# Generated by pormake.
# Topology ssa, (4,4)-cn, num edge types: 1
# Building blocks:
#     Node 0, Type 0, BuildingBlock: KOZSID_clean_sbu_0, # of connection points: 4
#     Node 1, Type 0, BuildingBlock: KOZSID_clean_sbu_0, # of connection points: 4
#     Node 2, Type 0, BuildingBlock: KOZSID_clean_sbu_0, # of connection points: 4
#     Node 3, Type 0, BuildingBlock: KOZSID_clean_sbu_0, # of connection points: 4
#     Node 4, Type 0, BuildingBlock: KOZSID_clean_sbu_0, # of connection points: 4
#     Node 5, Type 0, BuildingBlock: KOZSID_clean_sbu_0, # of connection points: 4
#     Node 6, Type 1, BuildingBlock: MIFKUJ_clean_linker_1, # of connection points: 4
#     Node 7, Type 1, BuildingBlock: MIFKUJ_clean_linker_1, # of connection points: 4
#     Node 8, Type 1, BuildingBlock: MIFKUJ_clean_linker_1, # of connection points: 4
#     Node 9, Type 1, BuildingBlock: MIFKUJ_clean_linker_1, # of connection points: 4
#     Node 10, Type 1, BuildingBlock: MIFKUJ_clean_linker_1, # of connection points: 4
#     Node 11, Type 1, BuildingBlock: MIFKUJ_clean_linker_1, # of connection points: 4
#     Edge 12, Type (0, 1), BuildingBlock: EZIPEK_clean_linker_0, # of connection points: 2
#     Edge 13, Type (0, 1), BuildingBlock: EZIPEK_clean_linker_0, # of connection points: 2
#     Edge 14, Type (0, 1), BuildingBlock: EZIPEK_clean_linker_0, # of connection points: 2
#     Edge 15, Type (0, 1), BuildingBlock: EZIPEK_clean_linker_0, # of connection points: 2
#     Edge 16, Type (0, 1), BuildingBlock: EZIPEK_clean_linker_0, # of connection points: 2
#     Edge 17, Type (0, 1), BuildingBlock: EZIPEK_clean_linker_0, # of connection points: 2
#     Edge 18, Type (0, 1), BuildingBlock: EZIPEK_clean_linker_0, # of connection points: 2
#     Edge 19, Type (0, 1), BuildingBlock: EZIPEK_clean_linker_0, # of connection points: 2
#     Edge 20, Type (0, 1), BuildingBlock: EZIPEK_clean_linker_0, # of connection points: 2
#     Edge 21, Type (0, 1), BuildingBlock: EZIPEK_clean_linker_0, # of connection points: 2
#     Edge 22, Type (0, 1), BuildingBlock: EZIPEK_clean_linker_0, # of connection points: 2
#     Edge 23, Type (0, 1), BuildingBlock: EZIPEK_clean_linker_0, # of connection points: 2
#     Edge 24, Type (0, 1), BuildingBlock: EZIPEK_clean_linker_0, # of connection points: 2
#     Edge 25, Type (0, 1), BuildingBlock: EZIPEK_clean_linker_0, # of connection points: 2
#     Edge 26, Type (0, 1), BuildingBlock: EZIPEK_clean_linker_0, # of connection points: 2
#     Edge 27, Type (0, 1), BuildingBlock: EZIPEK_clean_linker_0, # of connection points: 2
#     Edge 28, Type (0, 1), BuildingBlock: EZIPEK_clean_linker_0, # of connection points: 2
#     Edge 29, Type (0, 1), BuildingBlock: EZIPEK_clean_linker_0, # of connection points: 2
#     Edge 30, Type (0, 1), BuildingBlock: EZIPEK_clean_linker_0, # of connection points: 2
#     Edge 31, Type (0, 1), BuildingBlock: EZIPEK_clean_linker_0, # of connection points: 2
#     Edge 32, Type (0, 1), BuildingBlock: EZIPEK_clean_linker_0, # of connection points: 2
#     Edge 33, Type (0, 1), BuildingBlock: EZIPEK_clean_linker_0, # of connection points: 2
#     Edge 34, Type (0, 1), BuildingBlock: EZIPEK_clean_linker_0, # of connection points: 2
#     Edge 35, Type (0, 1), BuildingBlock: EZIPEK_clean_linker_0, # of connection points: 2
# Relax obj value: 0.006
# Max RMSD: 0.024
# Mean RMSD: 0.012
data_MOF--net-ssa--node1-KOZSID_clean_sbu_0--node2-MIFKUJ_clean_linker_1--edge1-EZIPEK_clean_linker_0
_symmetry_space_group_name_H-M    P1
_symmetry_Int_Tables_number       1
_symmetry_cell_setting            triclinic
loop_
_symmetry_equiv_pos_as_xyz
'x, y, z'
_cell_length_a     51.669596
_cell_length_b     53.026744
_cell_length_c     33.648336
_cell_angle_alpha  87.035787
_cell_angle_beta   90.058382
_cell_angle_gamma 122.68324
loop_
_atom_site_label
_atom_site_type_symbol
_atom_site_fract_x
_atom_site_fract_y
_atom_site_fract_z
_atom_type_partial_charge
C0 C 0.94791 0.51135 0.9921 0.0
C1 C 0.92012 0.50159 0.01172 0.0
C2 C 0.91903 0.48581 0.04567 0.0
C3 C 0.94591 0.48653 0.04473 0.0
N4 N 0.96444 0.50224 0.01256 0.0
Co5 Co 0.00362 0.50535 0.99685 0.0
N6 N 1.0006 0.47969 0.04495 0.0
C7 C 0.97851 0.46778 0.07423 0.0
C8 C 0.98427 0.45432 0.10577 0.0
C9 C 0.01191 0.4582 0.09647 0.0
C10 C 0.02133 0.47353 0.0593 0.0
N11 N 0.04214 0.50761 0.98027 0.0
C12 C 0.05707 0.49585 0.99852 0.0
C13 C 0.08224 0.50149 0.97572 0.0
C14 C 0.08384 0.51821 0.94249 0.0
C15 C 0.05948 0.52155 0.94665 0.0
N16 N 0.00733 0.53188 0.94953 0.0
C17 C 0.03058 0.54566 0.92184 0.0
C18 C 0.02713 0.56296 0.89334 0.0
C19 C 0.99982 0.55974 0.90306 0.0
C20 C 0.98804 0.54037 0.93689 0.0
N21 N 0.02817 0.54145 0.02829 0.0
C22 C 0.06561 0.58975 0.07618 0.0
C23 C 0.07515 0.58942 0.0375 0.0
C24 C 0.05627 0.56521 0.01429 0.0
C25 C 0.03663 0.5661 0.09002 0.0
C26 C 0.01828 0.54257 0.0656 0.0
N27 N 0.97907 0.4692 0.96559 0.0
C28 C 0.96824 0.44504 0.90314 0.0
C29 C 0.94192 0.41936 0.91998 0.0
C30 C 0.93484 0.41867 0.96016 0.0
C31 C 0.9537 0.44354 0.98232 0.0
C32 C 0.98631 0.46954 0.92626 0.0
H33 H 0.94703 0.4416 0.01279 0.0
H34 H 0.00574 0.48866 0.91147 0.0
H35 H 0.06521 0.56591 0.98546 0.0
H36 H 0.99642 0.52527 0.07792 0.0
C37 C 0.95363 0.4713 0.07242 0.0
C38 C 0.95722 0.52856 0.95365 0.0
C39 C 0.05034 0.48215 0.0391 0.0
C40 C 0.05369 0.53952 0.92123 0.0
H41 H 0.90215 0.50497 0.0022 0.0
H42 H 0.9004 0.47436 0.06777 0.0
H43 H 0.9705 0.44384 0.13293 0.0
H44 H 0.02393 0.45099 0.11542 0.0
H45 H 0.09849 0.49521 0.98317 0.0
H46 H 0.10129 0.52768 0.91881 0.0
H47 H 0.04208 0.57548 0.86767 0.0
H48 H 0.98917 0.56957 0.8863 0.0
H49 H 0.09747 0.60743 0.02563 0.0
H50 H 0.02836 0.56558 0.11982 0.0
H51 H 0.9745 0.44639 0.87202 0.0
H52 H 0.91462 0.39909 0.97429 0.0
C53 C 0.5511 0.02278 0.56765 0.0
C54 C 0.55343 0.01584 0.60739 0.0
C55 C 0.52458 0.99366 0.62094 0.0
C56 C 0.50615 0.98831 0.58908 0.0
N57 N 0.52158 0.00524 0.55581 0.0
Co58 Co 0.50232 0.0063 0.50472 0.0
N59 N 0.46226 0.96931 0.52156 0.0
C60 C 0.45325 0.95721 0.55898 0.0
C61 C 0.42441 0.93144 0.56144 0.0
C62 C 0.41461 0.92705 0.52312 0.0
C63 C 0.43816 0.95052 0.49946 0.0
N64 N 0.48313 0.00696 0.45362 0.0
C65 C 0.45744 0.98465 0.43712 0.0
C66 C 0.45248 0.99426 0.40048 0.0
C67 C 0.476 0.0237 0.39381 0.0
C68 C 0.4939 0.03034 0.42667 0.0
N69 N 0.54225 0.04381 0.48792 0.0
C70 C 0.54692 0.06261 0.45624 0.0
C71 C 0.57705 0.08581 0.45058 0.0
C72 C 0.59229 0.08188 0.48111 0.0
C73 C 0.5704 0.05669 0.50418 0.0
N74 N 0.51574 0.98191 0.48093 0.0
C75 C 0.52951 0.94439 0.44276 0.0
C76 C 0.53943 0.97309 0.42617 0.0
C77 C 0.53169 0.9911 0.44513 0.0
C78 C 0.5136 0.93537 0.47971 0.0
C79 C 0.50764 0.9547 0.49868 0.0
N80 N 0.48847 0.03046 0.52834 0.0
C81 C 0.49846 0.0699 0.57062 0.0
C82 C 0.46998 0.06564 0.56246 0.0
C83 C 0.45047 0.04311 0.5373 0.0
C84 C 0.46019 0.02575 0.52048 0.0
C85 C 0.50705 0.05202 0.55361 0.0
H86 H 0.44474 0.00842 0.50139 0.0
H87 H 0.52864 0.05553 0.56154 0.0
H88 H 0.53807 0.01216 0.43015 0.0
H89 H 0.49575 0.94722 0.52728 0.0
C90 C 0.47449 0.96725 0.58917 0.0
C91 C 0.57619 0.0493 0.54458 0.0
C92 C 0.43646 0.95484 0.45645 0.0
C93 C 0.52341 0.05578 0.42978 0.0
H94 H 0.57347 0.02662 0.62557 0.0
H95 H 0.51775 0.98319 0.65077 0.0
H96 H 0.41254 0.91678 0.58761 0.0
H97 H 0.39278 0.90858 0.51368 0.0
H98 H 0.43386 0.98132 0.38072 0.0
H99 H 0.48031 0.03807 0.36732 0.0
H100 H 0.58686 0.10332 0.42687 0.0
H101 H 0.61644 0.09679 0.48698 0.0
H102 H 0.55206 0.98105 0.39785 0.0
H103 H 0.50576 0.91346 0.49378 0.0
H104 H 0.51394 0.08686 0.59039 0.0
H105 H 0.42805 0.03906 0.53071 0.0
C106 C 0.55555 0.53798 0.94425 0.0
C107 C 0.56197 0.55403 0.90777 0.0
C108 C 0.53696 0.55546 0.89934 0.0
C109 C 0.51667 0.54017 0.93087 0.0
N110 N 0.52741 0.52941 0.95924 0.0
Co111 Co 0.50458 0.50439 0.00892 0.0
N112 N 0.46609 0.50219 0.99303 0.0
C113 C 0.46127 0.51237 0.95798 0.0
C114 C 0.43229 0.50711 0.95524 0.0
C115 C 0.41785 0.49302 0.99092 0.0
C116 C 0.43907 0.49073 0.0135 0.0
N117 N 0.48235 0.48113 0.05989 0.0
C118 C 0.45487 0.47414 0.07549 0.0
C119 C 0.4496 0.46108 0.11389 0.0
C120 C 0.47464 0.45982 0.12293 0.0
C121 C 0.49384 0.47243 0.08988 0.0
N122 N 0.54252 0.50505 0.02371 0.0
C123 C 0.54603 0.49144 0.05648 0.0
C124 C 0.57393 0.49414 0.05743 0.0
C125 C 0.58887 0.50973 0.02265 0.0
C126 C 0.56908 0.5156 0.00244 0.0
N127 N 0.51859 0.54176 0.03659 0.0
C128 C 0.53057 0.58979 0.08228 0.0
C129 C 0.53988 0.5705 0.09478 0.0
C130 C 0.5338 0.54687 0.07163 0.0
C131 C 0.51671 0.58579 0.04552 0.0
C132 C 0.51121 0.56191 0.02307 0.0
N133 N 0.49044 0.46677 0.9814 0.0
C134 C 0.47615 0.41504 0.9836 0.0
C135 C 0.47561 0.41499 0.94215 0.0
C136 C 0.48151 0.44085 0.92062 0.0
C137 C 0.48818 0.46608 0.94071 0.0
C138 C 0.48397 0.44103 0.00243 0.0
H139 H 0.49176 0.48482 0.92248 0.0
H140 H 0.48501 0.43971 0.03402 0.0
H141 H 0.54093 0.53258 0.08326 0.0
H142 H 0.50013 0.55962 0.99546 0.0
C143 C 0.48566 0.53059 0.93098 0.0
C144 C 0.57567 0.52929 0.96193 0.0
C145 C 0.43344 0.48001 0.05532 0.0
C146 C 0.52298 0.47697 0.08624 0.0
H147 H 0.582 0.56266 0.88829 0.0
H148 H 0.53317 0.56472 0.87218 0.0
H149 H 0.42327 0.51408 0.93103 0.0
H150 H 0.39479 0.48632 0.99997 0.0
H151 H 0.42992 0.45361 0.13359 0.0
H152 H 0.47868 0.45137 0.15065 0.0
H153 H 0.58225 0.48544 0.08041 0.0
H154 H 0.61145 0.51546 0.01275 0.0
H155 H 0.55111 0.5732 0.12289 0.0
H156 H 0.50952 0.60059 0.03463 0.0
H157 H 0.47141 0.39528 1.00138 0.0
H158 H 0.48089 0.44154 0.88841 0.0
C159 C 0.94335 0.4382 0.51212 0.0
C160 C 0.91484 0.41881 0.49635 0.0
C161 C 0.91262 0.43361 0.46349 0.0
C162 C 0.93969 0.46113 0.46115 0.0
N163 N 0.9593 0.46474 0.49029 0.0
Co164 Co 1.00036 0.50202 0.49963 0.0
N165 N 0.9958 0.5247 0.45344 0.0
C166 C 0.97162 0.51439 0.42922 0.0
C167 C 0.97553 0.53485 0.39935 0.0
C168 C 0.00408 0.55963 0.40444 0.0
C169 C 0.01595 0.55277 0.43723 0.0
N170 N 0.0414 0.53929 0.50898 0.0
C171 C 0.05709 0.56601 0.48759 0.0
C172 C 0.08534 0.58568 0.50375 0.0
C173 C 0.08778 0.57075 0.5363 0.0
C174 C 0.06103 0.54296 0.53812 0.0
N175 N 0.00495 0.47937 0.5458 0.0
C176 C 0.02916 0.4897 0.56997 0.0
C177 C 0.02552 0.46909 0.59942 0.0
C178 C 0.9971 0.4442 0.59414 0.0
C179 C 0.98497 0.45118 0.56173 0.0
N180 N 0.02073 0.48894 0.46336 0.0
C181 C 0.05148 0.47374 0.41015 0.0
C182 C 0.06366 0.48456 0.44696 0.0
C183 C 0.04792 0.49177 0.47304 0.0
C184 C 0.02331 0.46978 0.40067 0.0
C185 C 0.00852 0.47768 0.42742 0.0
N186 N 0.97993 0.51502 0.53592 0.0
C187 C 0.97708 0.53398 0.59866 0.0
C188 C 0.9483 0.52885 0.58978 0.0
C189 C 0.93611 0.51779 0.55306 0.0
C190 C 0.95235 0.51146 0.52658 0.0
C191 C 0.99224 0.52663 0.57168 0.0
H192 H 0.94189 0.50335 0.49897 0.0
H193 H 0.01363 0.53014 0.58069 0.0
H194 H 0.05841 0.49989 0.50065 0.0
H195 H 0.98746 0.4748 0.4181 0.0
C196 C 0.94639 0.48481 0.43383 0.0
C197 C 0.95372 0.43083 0.54871 0.0
C198 C 0.04696 0.57324 0.45076 0.0
C199 C 0.05437 0.51929 0.56542 0.0
H200 H 0.89715 0.3965 0.50785 0.0
H201 H 0.89316 0.42563 0.44435 0.0
H202 H 0.95982 0.53183 0.37603 0.0
H203 H 0.0152 0.58023 0.38571 0.0
H204 H 0.10266 0.60825 0.49262 0.0
H205 H 0.10711 0.57891 0.5557 0.0
H206 H 0.04135 0.47204 0.62254 0.0
H207 H 0.98619 0.42349 0.61262 0.0
H208 H 0.0854 0.48766 0.45542 0.0
H209 H 0.01311 0.46125 0.37239 0.0
H210 H 0.98741 0.54287 0.62675 0.0
H211 H 0.91399 0.5139 0.5449 0.0
C212 C 0.45977 0.99203 0.06917 0.0
C213 C 0.45807 0.00653 0.10127 0.0
C214 C 0.48553 0.03342 0.1016 0.0
C215 C 0.50225 0.03386 0.06966 0.0
N216 N 0.48698 0.00904 0.04863 0.0
Co217 Co 0.50232 1.00077 0.99935 0.0
N218 N 0.54399 0.03854 0.0027 0.0
C219 C 0.55384 0.058 0.03197 0.0
C220 C 0.58355 0.08195 0.02607 0.0
C221 C 0.59321 0.07769 0.99077 0.0
C222 C 0.56869 0.05129 0.97711 0.0
N223 N 0.51721 0.99329 0.94893 0.0
C224 C 0.544 0.01097 0.92764 0.0
C225 C 0.54434 0.99828 0.89276 0.0
C226 C 0.51655 0.97182 0.89161 0.0
C227 C 0.5009 0.96993 0.92566 0.0
N228 N 0.46112 0.96223 0.99727 0.0
C229 C 0.45207 0.94153 0.96975 0.0
C230 C 0.42379 0.91595 0.97821 0.0
C231 C 0.41439 0.92028 0.01366 0.0
C232 C 0.43749 0.9485 0.02465 0.0
N233 N 0.48783 0.02284 0.96673 0.0
C234 C 0.47116 0.05566 0.91689 0.0
C235 C 0.45936 0.02552 0.91125 0.0
C236 C 0.46803 0.00964 0.93629 0.0
C237 C 0.49052 0.06891 0.94845 0.0
C238 C 0.49836 0.05217 0.973 0.0
N239 N 0.51673 0.97861 0.03184 0.0
C240 C 0.52108 0.93559 0.04245 0.0
C241 C 0.53101 0.94356 0.08089 0.0
C242 C 0.53492 0.96985 0.09407 0.0
C243 C 0.52795 0.98712 0.06905 0.0
C244 C 0.51414 0.95334 0.01854 0.0
H245 H 0.53112 0.00686 0.0808 0.0
H246 H 0.50607 0.94574 0.98976 0.0
H247 H 0.4587 0.98685 0.93009 0.0
H248 H 0.51328 0.06362 0.99651 0.0
C249 C 0.5334 0.05531 0.06155 0.0
C250 C 0.43634 0.96098 0.06186 0.0
C251 C 0.56924 0.04035 0.93845 0.0
C252 C 0.47108 0.94641 0.93691 0.0
H253 H 0.43941 0.99796 0.12314 0.0
H254 H 0.49294 0.05002 0.12358 0.0
H255 H 0.5962 0.10096 0.0443 0.0
H256 H 0.61543 0.09283 0.9761 0.0
H257 H 0.56266 0.00746 0.87026 0.0
H258 H 0.50857 0.95601 0.86849 0.0
H259 H 0.41178 0.8962 0.96115 0.0
H260 H 0.39317 0.90419 0.02985 0.0
H261 H 0.44399 0.01449 0.8872 0.0
H262 H 0.4998 0.09222 0.95391 0.0
H263 H 0.51791 0.91532 0.03133 0.0
H264 H 0.54275 0.9767 0.12379 0.0
C265 C 0.52047 0.56737 0.48022 0.0
C266 C 0.51153 0.5862 0.49288 0.0
C267 C 0.48847 0.56999 0.52104 0.0
C268 C 0.48439 0.54219 0.52395 0.0
N269 N 0.50386 0.53993 0.49999 0.0
Co270 Co 0.50284 0.50233 0.4924 0.0
N271 N 0.47621 0.48183 0.54097 0.0
C272 C 0.46019 0.49072 0.56083 0.0
C273 C 0.44615 0.4735 0.59532 0.0
C274 C 0.45377 0.45242 0.59724 0.0
C275 C 0.47173 0.45772 0.56336 0.0
N276 N 0.50151 0.46475 0.4846 0.0
C277 C 0.49298 0.44103 0.51056 0.0
C278 C 0.49453 0.41885 0.49269 0.0
C279 C 0.50472 0.42932 0.45417 0.0
C280 C 0.50862 0.45709 0.4507 0.0
N281 N 0.52977 0.52271 0.44383 0.0
C282 C 0.53605 0.50936 0.41573 0.0
C283 C 0.55692 0.52926 0.38697 0.0
C284 C 0.56379 0.55686 0.39699 0.0
C285 C 0.54623 0.55213 0.43109 0.0
N286 N 0.53928 0.51677 0.52485 0.0
C287 C 0.58726 0.53048 0.5763 0.0
C288 C 0.58614 0.519 0.53936 0.0
C289 C 0.56209 0.5125 0.51396 0.0
C290 C 0.56486 0.53644 0.58612 0.0
C291 C 0.54101 0.52928 0.56011 0.0
N292 N 0.46601 0.4875 0.46043 0.0
C293 C 0.4379 0.49738 0.41175 0.0
C294 C 0.41366 0.46736 0.41487 0.0
C295 C 0.41592 0.44738 0.44128 0.0
C296 C 0.44218 0.458 0.46415 0.0
C297 C 0.4637 0.50688 0.43462 0.0
H298 H 0.44304 0.44237 0.48502 0.0
H299 H 0.48149 0.53008 0.43177 0.0
H300 H 0.56143 0.50304 0.48614 0.0
H301 H 0.52347 0.53304 0.56924 0.0
C302 C 0.46417 0.5185 0.55078 0.0
C303 C 0.5413 0.57494 0.44548 0.0
C304 C 0.48264 0.43857 0.55187 0.0
C305 C 0.52442 0.47864 0.41947 0.0
H306 H 0.5198 0.60892 0.48188 0.0
H307 H 0.47603 0.57753 0.53725 0.0
H308 H 0.43339 0.4769 0.61759 0.0
H309 H 0.44694 0.43526 0.62099 0.0
H310 H 0.48919 0.39753 0.50621 0.0
H311 H 0.51011 0.41859 0.43202 0.0
H312 H 0.56617 0.52434 0.36182 0.0
H313 H 0.57864 0.57786 0.3799 0.0
H314 H 0.6033 0.51439 0.53067 0.0
H315 H 0.56523 0.5456 0.61431 0.0
H316 H 0.43685 0.51349 0.39178 0.0
H317 H 0.39742 0.42395 0.44454 0.0
H318 H 0.17538 0.43025 0.13403 0.0
H319 H 0.1395 0.43573 0.09249 0.0
H320 H 0.14519 0.50067 0.17006 0.0
H321 H 0.18333 0.49757 0.2092 0.0
H322 H 0.23134 0.46414 0.14923 0.0
H323 H 0.13864 0.4182 0.23849 0.0
H324 H 0.09871 0.41922 0.27709 0.0
H325 H 0.16918 0.49499 0.33765 0.0
H326 H 0.20894 0.49429 0.29909 0.0
H327 H 0.28214 0.49172 0.30306 0.0
H328 H 0.32041 0.48962 0.34367 0.0
H329 H 0.30218 0.41128 0.28542 0.0
H330 H 0.26395 0.41355 0.2442 0.0
H331 H 0.22112 0.45138 0.29649 0.0
H332 H 0.31268 0.49599 0.21786 0.0
H333 H 0.35615 0.49916 0.1838 0.0
H334 H 0.29454 0.43626 0.1005 0.0
H335 H 0.2505 0.43058 0.13708 0.0
C336 C 0.18168 0.46289 0.17562 0.0
C337 C 0.16922 0.44593 0.14199 0.0
C338 C 0.14854 0.44886 0.1184 0.0
C339 C 0.1392 0.46823 0.1285 0.0
C340 C 0.15172 0.4853 0.16194 0.0
C341 C 0.17326 0.4832 0.18463 0.0
C342 C 0.20385 0.45966 0.20051 0.0
C343 C 0.2287 0.46068 0.18139 0.0
C344 C 0.20135 0.45647 0.24272 0.0
C345 C 0.17676 0.45628 0.26579 0.0
C346 C 0.14545 0.43505 0.26001 0.0
C347 C 0.12275 0.43556 0.28201 0.0
C348 C 0.13116 0.45714 0.31017 0.0
C349 C 0.16236 0.47816 0.3161 0.0
C350 C 0.18496 0.47768 0.2942 0.0
C351 C 0.27034 0.45291 0.27043 0.0
C352 C 0.28622 0.47398 0.29911 0.0
C353 C 0.30807 0.47284 0.32218 0.0
C354 C 0.31419 0.45041 0.31735 0.0
C355 C 0.29784 0.42884 0.28937 0.0
C356 C 0.27613 0.43016 0.26593 0.0
C357 C 0.24802 0.45521 0.24517 0.0
C358 C 0.22334 0.45418 0.26424 0.0
C359 C 0.25111 0.45893 0.20306 0.0
C360 C 0.27796 0.46224 0.18104 0.0
C361 C 0.30822 0.48207 0.19311 0.0
C362 C 0.33316 0.48425 0.17332 0.0
C363 C 0.32861 0.46784 0.1397 0.0
C364 C 0.29857 0.44895 0.12655 0.0
C365 C 0.27347 0.44589 0.1473 0.0
H366 H 0.71101 0.20075 0.81299 0.0
H367 H 0.66825 0.16083 0.85473 0.0
H368 H 0.67826 0.09477 0.79976 0.0
H369 H 0.72213 0.13494 0.75884 0.0
H370 H 0.76801 0.22005 0.81021 0.0
H371 H 0.68598 0.17141 0.72064 0.0
H372 H 0.64653 0.13397 0.67903 0.0
H373 H 0.71623 0.13189 0.61169 0.0
H374 H 0.75562 0.16752 0.6555 0.0
H375 H 0.8536 0.25928 0.69164 0.0
H376 H 0.89326 0.30456 0.65253 0.0
H377 H 0.83164 0.3358 0.64374 0.0
H378 H 0.79274 0.29139 0.68466 0.0
H379 H 0.77539 0.22189 0.66314 0.0
H380 H 0.8565 0.26937 0.76293 0.0
H381 H 0.89338 0.31226 0.80067 0.0
H382 H 0.81973 0.32025 0.84387 0.0
H383 H 0.78307 0.27832 0.80459 0.0
C384 C 0.71984 0.17093 0.78258 0.0
C385 C 0.70429 0.17774 0.81003 0.0
C386 C 0.67981 0.15499 0.83375 0.0
C387 C 0.67017 0.12492 0.83035 0.0
C388 C 0.68544 0.11789 0.8028 0.0
C389 C 0.71031 0.14077 0.77936 0.0
C390 C 0.74624 0.19572 0.75814 0.0
C391 C 0.76949 0.22025 0.77802 0.0
C392 C 0.74845 0.19598 0.71598 0.0
C393 C 0.72393 0.17198 0.69206 0.0
C394 C 0.69284 0.16215 0.69804 0.0
C395 C 0.67026 0.14093 0.674 0.0
C396 C 0.67837 0.12992 0.64239 0.0
C397 C 0.70938 0.13976 0.63617 0.0
C398 C 0.73187 0.1603 0.66102 0.0
C399 C 0.82055 0.27238 0.69152 0.0
C400 C 0.84884 0.27609 0.68167 0.0
C401 C 0.87133 0.30176 0.65927 0.0
C402 C 0.86536 0.32351 0.64521 0.0
C403 C 0.83672 0.31934 0.65437 0.0
C404 C 0.81459 0.29409 0.67763 0.0
C405 C 0.79668 0.24547 0.71543 0.0
C406 C 0.77392 0.2209 0.6954 0.0
C407 C 0.79452 0.24518 0.75728 0.0
C408 C 0.81712 0.27109 0.78004 0.0
C409 C 0.84837 0.2808 0.77964 0.0
C410 C 0.86935 0.30499 0.80158 0.0
C411 C 0.85926 0.31941 0.82502 0.0
C412 C 0.82796 0.30944 0.82592 0.0
C413 C 0.80709 0.28554 0.80357 0.0
H414 H 0.60288 0.84704 0.33349 0.0
H415 H 0.59727 0.88355 0.36855 0.0
H416 H 0.49972 0.8318 0.349 0.0
H417 H 0.50565 0.79626 0.31234 0.0
H418 H 0.56484 0.77707 0.34905 0.0
H419 H 0.59227 0.8583 0.25346 0.0
H420 H 0.58725 0.8954 0.21357 0.0
H421 H 0.50558 0.82389 0.16189 0.0
H422 H 0.50954 0.78676 0.20326 0.0
H423 H 0.5064 0.71227 0.21486 0.0
H424 H 0.50065 0.67278 0.17361 0.0
H425 H 0.59194 0.69593 0.20278 0.0
H426 H 0.5981 0.73606 0.24319 0.0
H427 H 0.55012 0.77314 0.20323 0.0
H428 H 0.51314 0.70212 0.33009 0.0
H429 H 0.51395 0.66136 0.36686 0.0
H430 H 0.61274 0.71078 0.35119 0.0
H431 H 0.61195 0.7522 0.31563 0.0
C432 C 0.5547 0.81907 0.32024 0.0
C433 C 0.58031 0.84356 0.3369 0.0
C434 C 0.5771 0.86435 0.35682 0.0
C435 C 0.54805 0.86041 0.36147 0.0
C436 C 0.52233 0.83534 0.34575 0.0
C437 C 0.52569 0.81506 0.32493 0.0
C438 C 0.55809 0.79797 0.29688 0.0
C439 C 0.56231 0.77665 0.31704 0.0
C440 C 0.55422 0.79704 0.25523 0.0
C441 C 0.55099 0.81969 0.2319 0.0
C442 C 0.57285 0.85055 0.23433 0.0
C443 C 0.57023 0.87171 0.21128 0.0
C444 C 0.54615 0.86229 0.18474 0.0
C445 C 0.52436 0.83152 0.18217 0.0
C446 C 0.52668 0.8104 0.20567 0.0
C447 C 0.55251 0.72687 0.2327 0.0
C448 C 0.52515 0.70878 0.21261 0.0
C449 C 0.52184 0.68627 0.18911 0.0
C450 C 0.54585 0.68145 0.18521 0.0
C451 C 0.57312 0.69926 0.20557 0.0
C452 C 0.57649 0.72192 0.22894 0.0
C453 C 0.55633 0.75199 0.25539 0.0
C454 C 0.55331 0.77402 0.23512 0.0
C455 C 0.56144 0.75369 0.29674 0.0
C456 C 0.56245 0.72992 0.32005 0.0
C457 C 0.53498 0.70433 0.33506 0.0
C458 C 0.53548 0.6812 0.35604 0.0
C459 C 0.56343 0.68319 0.36193 0.0
C460 C 0.59102 0.70901 0.3473 0.0
C461 C 0.59054 0.73246 0.32692 0.0
H462 H 0.71588 0.50436 0.70236 0.0
H463 H 0.67676 0.50337 0.65993 0.0
H464 H 0.69243 0.58321 0.71096 0.0
H465 H 0.73194 0.58445 0.75346 0.0
H466 H 0.77561 0.545 0.70526 0.0
H467 H 0.68666 0.5077 0.78855 0.0
H468 H 0.64538 0.50652 0.82545 0.0
H469 H 0.71164 0.57078 0.90382 0.0
H470 H 0.75342 0.57534 0.86354 0.0
H471 H 0.85343 0.592 0.82151 0.0
H472 H 0.89346 0.58959 0.85791 0.0
H473 H 0.83343 0.49319 0.87192 0.0
H474 H 0.79395 0.49557 0.8341 0.0
H475 H 0.77232 0.54341 0.85265 0.0
H476 H 0.85919 0.58912 0.74896 0.0
H477 H 0.89867 0.58719 0.71098 0.0
H478 H 0.83019 0.49763 0.67908 0.0
H479 H 0.79093 0.49918 0.71804 0.0
C480 C 0.72677 0.54439 0.7313 0.0
C481 C 0.71108 0.52178 0.70437 0.0
C482 C 0.68874 0.52114 0.68023 0.0
C483 C 0.68181 0.54322 0.68234 0.0
C484 C 0.69755 0.56602 0.70896 0.0
C485 C 0.71995 0.56664 0.73323 0.0
C486 C 0.75048 0.54458 0.75672 0.0
C487 C 0.77477 0.54484 0.73751 0.0
C488 C 0.74937 0.54415 0.79905 0.0
C489 C 0.72362 0.54241 0.82208 0.0
C490 C 0.69267 0.5226 0.8125 0.0
C491 C 0.66891 0.52146 0.8341 0.0
C492 C 0.67532 0.5386 0.86746 0.0
C493 C 0.70607 0.55752 0.87805 0.0
C494 C 0.72994 0.55987 0.85517 0.0
C495 C 0.82092 0.54393 0.82482 0.0
C496 C 0.84896 0.57036 0.83233 0.0
C497 C 0.8717 0.56901 0.85317 0.0
C498 C 0.8664 0.54122 0.86769 0.0
C499 C 0.83797 0.51484 0.86102 0.0
C500 C 0.81548 0.51619 0.83955 0.0
C501 C 0.79748 0.54514 0.80085 0.0
C502 C 0.77312 0.54447 0.82037 0.0
C503 C 0.79818 0.54514 0.75898 0.0
C504 C 0.82229 0.54407 0.73687 0.0
C505 C 0.85281 0.56886 0.73448 0.0
C506 C 0.87523 0.56788 0.7126 0.0
C507 C 0.86724 0.54229 0.69228 0.0
C508 C 0.83672 0.51754 0.69461 0.0
C509 C 0.8144 0.51844 0.71673 0.0
H510 H 0.28761 0.86423 0.24707 0.0
H511 H 0.32953 0.90523 0.20464 0.0
H512 H 0.34443 0.84177 0.15118 0.0
H513 H 0.30284 0.80083 0.19368 0.0
H514 H 0.24367 0.78098 0.19538 0.0
H515 H 0.26181 0.8421 0.33778 0.0
H516 H 0.30125 0.87764 0.37917 0.0
H517 H 0.36378 0.85477 0.33414 0.0
H518 H 0.32411 0.81991 0.29149 0.0
H519 H 0.21761 0.72154 0.35056 0.0
H520 H 0.17509 0.67806 0.38863 0.0
H521 H 0.10981 0.68875 0.3224 0.0
H522 H 0.15243 0.73272 0.28451 0.0
H523 H 0.23686 0.77905 0.34253 0.0
H524 H 0.19149 0.69528 0.26003 0.0
H525 H 0.15286 0.65501 0.22057 0.0
H526 H 0.15138 0.72045 0.14068 0.0
H527 H 0.18814 0.76065 0.18191 0.0
C528 C 0.29221 0.82946 0.22374 0.0
C529 C 0.30014 0.85917 0.22661 0.0
C530 C 0.32385 0.88249 0.20231 0.0
C531 C 0.33984 0.87636 0.17478 0.0
C532 C 0.33221 0.84681 0.1722 0.0
C533 C 0.30852 0.82353 0.19639 0.0
C534 C 0.26592 0.8043 0.24765 0.0
C535 C 0.242 0.78053 0.22757 0.0
C536 C 0.26407 0.80371 0.28963 0.0
C537 C 0.28931 0.82699 0.31314 0.0
C538 C 0.28376 0.84398 0.33805 0.0
C539 C 0.30642 0.86368 0.36337 0.0
C540 C 0.33459 0.86524 0.36715 0.0
C541 C 0.34121 0.85114 0.33766 0.0
C542 C 0.3187 0.83171 0.31187 0.0
C543 C 0.18824 0.7303 0.31446 0.0
C544 C 0.1942 0.71483 0.34449 0.0
C545 C 0.17 0.69 0.36611 0.0
C546 C 0.13942 0.68027 0.35823 0.0
C547 C 0.13332 0.69601 0.32885 0.0
C548 C 0.15758 0.72096 0.30723 0.0
C549 C 0.21428 0.75563 0.29029 0.0
C550 C 0.23818 0.77953 0.31029 0.0
C551 C 0.21621 0.75605 0.24815 0.0
C552 C 0.19243 0.73116 0.22463 0.0
C553 C 0.18227 0.70105 0.23479 0.0
C554 C 0.16042 0.67803 0.21203 0.0
C555 C 0.1492 0.68471 0.17768 0.0
C556 C 0.15959 0.71476 0.16715 0.0
C557 C 0.18073 0.73769 0.19058 0.0
H558 H 0.50463 0.2945 0.8154 0.0
H559 H 0.50585 0.32844 0.86099 0.0
H560 H 0.42142 0.31401 0.81376 0.0
H561 H 0.4207 0.28007 0.76791 0.0
H562 H 0.46 0.2342 0.81394 0.0
H563 H 0.49949 0.32418 0.7332 0.0
H564 H 0.50276 0.36663 0.69603 0.0
H565 H 0.43367 0.30598 0.61713 0.0
H566 H 0.42734 0.26321 0.6573 0.0
H567 H 0.41732 0.18393 0.66099 0.0
H568 H 0.41641 0.1459 0.62097 0.0
H569 H 0.49802 0.1608 0.6776 0.0
H570 H 0.4994 0.19915 0.71701 0.0
H571 H 0.45959 0.24342 0.66668 0.0
H572 H 0.41448 0.15417 0.75687 0.0
H573 H 0.41362 0.11198 0.79253 0.0
H574 H 0.49913 0.1743 0.84659 0.0
H575 H 0.50019 0.21643 0.81097 0.0
C576 C 0.46165 0.28329 0.78968 0.0
C577 C 0.48561 0.29769 0.81615 0.0
C578 C 0.48557 0.31654 0.84359 0.0
C579 C 0.46037 0.32 0.84777 0.0
C580 C 0.43861 0.30853 0.81719 0.0
C581 C 0.43871 0.28975 0.7894 0.0
C582 C 0.46075 0.26118 0.76329 0.0
C583 C 0.46002 0.23641 0.78169 0.0
C584 C 0.46035 0.26383 0.72111 0.0
C585 C 0.46253 0.29011 0.69901 0.0
C586 C 0.48399 0.31971 0.70909 0.0
C587 C 0.4863 0.34409 0.68739 0.0
C588 C 0.46853 0.33953 0.6537 0.0
C589 C 0.44754 0.31007 0.64309 0.0
C590 C 0.44415 0.28565 0.66591 0.0
C591 C 0.45822 0.19419 0.69237 0.0
C592 C 0.43514 0.17917 0.66462 0.0
C593 C 0.43452 0.15744 0.64193 0.0
C594 C 0.45707 0.15054 0.64653 0.0
C595 C 0.48037 0.16578 0.6738 0.0
C596 C 0.48106 0.18755 0.69634 0.0
C597 C 0.45823 0.21651 0.7175 0.0
C598 C 0.45897 0.24125 0.69895 0.0
C599 C 0.4586 0.21406 0.75949 0.0
C600 C 0.45751 0.18841 0.78115 0.0
C601 C 0.43309 0.15874 0.77628 0.0
C602 C 0.43252 0.13474 0.7966 0.0
C603 C 0.45635 0.14022 0.82199 0.0
C604 C 0.48062 0.16979 0.82702 0.0
C605 C 0.48114 0.19374 0.80687 0.0
C606 C 0.06701 0.4492 0.07189 0.0
C607 C 0.07377 0.47832 0.06039 0.0
C608 C 0.1257 0.49984 0.08587 0.0
C609 C 0.11693 0.47132 0.10363 0.0
N610 N 0.07654 0.41947 0.11928 0.0
N611 N 0.10868 0.53206 0.06141 0.0
C612 C 0.08685 0.44607 0.0981 0.0
C613 C 0.10291 0.50388 0.06881 0.0
N614 N 0.04189 0.42452 0.05741 0.0
N615 N 0.15597 0.52281 0.08397 0.0
H616 H 0.0924 0.53607 0.04993 0.0
H617 H 0.1287 0.55132 0.06994 0.0
H618 H 0.1735 0.52038 0.09468 0.0
H619 H 0.16403 0.54316 0.06789 0.0
H620 H 0.03751 0.40294 0.06198 0.0
H621 H 0.0271 0.42603 0.03771 0.0
H622 H 0.05379 0.40133 0.11909 0.0
H623 H 0.08974 0.4165 0.14015 0.0
C624 C 0.62487 0.06297 0.58047 0.0
C625 C 0.60494 0.07171 0.56547 0.0
C626 C 0.63858 0.12114 0.59258 0.0
C627 C 0.65458 0.11023 0.6139 0.0
N628 N 0.66023 0.06884 0.63195 0.0
N629 N 0.5914 0.10915 0.56239 0.0
C630 C 0.6472 0.08067 0.60866 0.0
C631 C 0.61142 0.10084 0.57281 0.0
N632 N 0.6224 0.03772 0.56781 0.0
N633 N 0.64989 0.15121 0.58999 0.0
H634 H 0.572 0.09634 0.54603 0.0
H635 H 0.59319 0.12833 0.57229 0.0
H636 H 0.67039 0.16703 0.6028 0.0
H637 H 0.64083 0.16073 0.57142 0.0
H638 H 0.63807 0.0317 0.57498 0.0
H639 H 0.60638 0.02436 0.5471 0.0
H640 H 0.65327 0.04636 0.63221 0.0
H641 H 0.67599 0.08071 0.65369 0.0
C642 C 0.55675 0.64415 0.09809 0.0
C643 C 0.5345 0.61344 0.10841 0.0
C644 C 0.52243 0.62721 0.17119 0.0
C645 C 0.54249 0.65803 0.15908 0.0
N646 N 0.57498 0.69609 0.10811 0.0
N647 N 0.49226 0.57595 0.15135 0.0
C648 C 0.55865 0.66659 0.1217 0.0
C649 C 0.51623 0.60501 0.14405 0.0
N650 N 0.57676 0.65184 0.06648 0.0
N651 N 0.51005 0.61911 0.20911 0.0
H652 H 0.48686 0.55903 0.13218 0.0
H653 H 0.47606 0.56912 0.17452 0.0
H654 H 0.51419 0.63472 0.22989 0.0
H655 H 0.49796 0.59704 0.22108 0.0
H656 H 0.59564 0.67355 0.0601 0.0
H657 H 0.57611 0.63607 0.04852 0.0
H658 H 0.5844 0.70333 0.07931 0.0
H659 H 0.57693 0.71319 0.12446 0.0
C660 C 0.91831 0.51677 0.65473 0.0
C661 C 0.93059 0.53477 0.61858 0.0
C662 C 0.90167 0.5582 0.63101 0.0
C663 C 0.89063 0.54128 0.66802 0.0
N664 N 0.89388 0.50977 0.71937 0.0
N665 N 0.94011 0.57768 0.57732 0.0
C666 C 0.90071 0.52223 0.68123 0.0
C667 C 0.92417 0.5571 0.6083 0.0
N668 N 0.92213 0.49349 0.66293 0.0
N669 N 0.8897 0.57429 0.61668 0.0
H670 H 0.95717 0.57786 0.56052 0.0
H671 H 0.93861 0.59626 0.57084 0.0
H672 H 0.87309 0.57562 0.63229 0.0
H673 H 0.89432 0.58426 0.58791 0.0
H674 H 0.91065 0.47746 0.6864 0.0
H675 H 0.93492 0.4887 0.6445 0.0
H676 H 0.90328 0.49827 0.73209 0.0
H677 H 0.88102 0.51333 0.73958 0.0
C678 C 0.41941 0.93161 0.12856 0.0
C679 C 0.41182 0.94164 0.09307 0.0
C680 C 0.35706 0.91057 0.11263 0.0
C681 C 0.36465 0.90076 0.14823 0.0
N682 N 0.40271 0.90643 0.19457 0.0
N683 N 0.37492 0.94707 0.05629 0.0
C684 C 0.39581 0.91281 0.15764 0.0
C685 C 0.38105 0.93314 0.08673 0.0
N686 N 0.44899 0.93931 0.13385 0.0
N687 N 0.32693 0.89747 0.10283 0.0
H688 H 0.39203 0.96374 0.03683 0.0
H689 H 0.35345 0.94407 0.05244 0.0
H690 H 0.30867 0.8813 0.12141 0.0
H691 H 0.32005 0.90109 0.07517 0.0
H692 H 0.45573 0.93108 0.15766 0.0
H693 H 0.46682 0.95263 0.11303 0.0
H694 H 0.42493 0.91673 0.20504 0.0
H695 H 0.38587 0.8925 0.21632 0.0
C696 C 0.5054 0.41369 0.59097 0.0
C697 C 0.47898 0.41364 0.57931 0.0
C698 C 0.44649 0.36745 0.62081 0.0
C699 C 0.47239 0.36552 0.62875 0.0
N700 N 0.52538 0.38333 0.61221 0.0
N701 N 0.42374 0.38529 0.5737 0.0
C702 C 0.50164 0.38774 0.61138 0.0
C703 C 0.44927 0.38896 0.59137 0.0
N704 N 0.5341 0.4385 0.58258 0.0
N705 N 0.4195 0.34952 0.64219 0.0
H706 H 0.42489 0.39994 0.55081 0.0
H707 H 0.40182 0.36611 0.57907 0.0
H708 H 0.41692 0.33446 0.66545 0.0
H709 H 0.40089 0.35203 0.63965 0.0
H710 H 0.55404 0.44081 0.59377 0.0
H711 H 0.53774 0.45787 0.56749 0.0
H712 H 0.54622 0.39752 0.59664 0.0
H713 H 0.52318 0.36384 0.62468 0.0
C714 C 0.52468 0.91571 0.3821 0.0
C715 C 0.53533 0.92371 0.42131 0.0
C716 C 0.55207 0.88822 0.42253 0.0
C717 C 0.54449 0.8828 0.38195 0.0
N718 N 0.53081 0.89764 0.32044 0.0
N719 N 0.56652 0.92303 0.4744 0.0
C720 C 0.53295 0.89843 0.36091 0.0
C721 C 0.5512 0.91155 0.44026 0.0
N722 N 0.50555 0.92341 0.36549 0.0
N723 N 0.55891 0.87037 0.44473 0.0
H724 H 0.56768 0.94104 0.48738 0.0
H725 H 0.58081 0.91686 0.48729 0.0
H726 H 0.55886 0.85243 0.43333 0.0
H727 H 0.56157 0.87151 0.47542 0.0
H728 H 0.49458 0.9153 0.33883 0.0
H729 H 0.49811 0.93536 0.38003 0.0
H730 H 0.52538 0.911 0.30328 0.0
H731 H 0.53764 0.88613 0.30357 0.0
C732 C 0.59931 0.50554 0.92592 0.0
C733 C 0.60134 0.53186 0.93754 0.0
C734 C 0.64981 0.56251 0.89893 0.0
C735 C 0.64982 0.53632 0.89174 0.0
N736 N 0.62779 0.48345 0.90818 0.0
N737 N 0.63211 0.58554 0.94242 0.0
C738 C 0.62544 0.50792 0.90797 0.0
C739 C 0.62779 0.56043 0.92643 0.0
N740 N 0.57228 0.47827 0.93123 0.0
N741 N 0.66971 0.58907 0.87813 0.0
H742 H 0.61647 0.58481 0.96279 0.0
H743 H 0.65245 0.60656 0.93813 0.0
H744 H 0.68498 0.59122 0.85596 0.0
H745 H 0.66864 0.60806 0.87979 0.0
H746 H 0.56885 0.45897 0.91931 0.0
H747 H 0.55247 0.47554 0.944 0.0
H748 H 0.61179 0.46295 0.92295 0.0
H749 H 0.64734 0.48452 0.89763 0.0
C750 C 0.0735 0.62872 0.4327 0.0
C751 C 0.06929 0.60065 0.42535 0.0
C752 C 0.10725 0.62428 0.36989 0.0
C753 C 0.11393 0.65281 0.38 0.0
N754 N 0.10607 0.68302 0.42343 0.0
N755 N 0.08461 0.57188 0.39066 0.0
C756 C 0.09764 0.65528 0.41195 0.0
C757 C 0.08678 0.59845 0.39487 0.0
N758 N 0.05421 0.62987 0.45924 0.0
N759 N 0.11989 0.62181 0.33578 0.0
H760 H 0.06928 0.5522 0.40763 0.0
H761 H 0.09971 0.56994 0.37259 0.0
H762 H 0.13494 0.64025 0.31668 0.0
H763 H 0.11339 0.60132 0.32454 0.0
H764 H 0.05391 0.64907 0.46299 0.0
H765 H 0.03676 0.6109 0.47553 0.0
H766 H 0.09752 0.68643 0.4492 0.0
H767 H 0.12336 0.70292 0.40864 0.0
C768 C 0.44375 0.08225 0.90417 0.0
C769 C 0.46358 0.07369 0.88993 0.0
C770 C 0.47234 0.1033 0.82718 0.0
C771 C 0.45615 0.11511 0.8438 0.0
N772 N 0.42742 0.1174 0.89834 0.0
N773 N 0.49828 0.07692 0.83899 0.0
C774 C 0.44187 0.10483 0.88227 0.0
C775 C 0.47802 0.08415 0.85149 0.0
N776 N 0.42632 0.06832 0.93828 0.0
N777 N 0.48207 0.11027 0.78808 0.0
H778 H 0.50246 0.06235 0.85542 0.0
H779 H 0.51244 0.08678 0.81354 0.0
H780 H 0.47868 0.12463 0.76966 0.0
H781 H 0.49118 0.1 0.77294 0.0
H782 H 0.40919 0.07136 0.94831 0.0
H783 H 0.42709 0.05157 0.95486 0.0
H784 H 0.41979 0.11357 0.92797 0.0
H785 H 0.42461 0.1332 0.88261 0.0
C786 C 0.38956 0.45894 0.34819 0.0
C787 C 0.3862 0.45761 0.39024 0.0
C788 C 0.33287 0.44376 0.38357 0.0
C789 C 0.33802 0.45 0.34179 0.0
N790 N 0.37261 0.46689 0.28432 0.0
N791 N 0.35567 0.45198 0.44832 0.0
C792 C 0.36663 0.4582 0.32396 0.0
C793 C 0.35799 0.45056 0.40814 0.0
N794 N 0.41462 0.46067 0.3315 0.0
N795 N 0.30385 0.43101 0.39967 0.0
H796 H 0.37351 0.45703 0.46745 0.0
H797 H 0.33689 0.45052 0.46231 0.0
H798 H 0.2849 0.42552 0.38242 0.0
H799 H 0.29808 0.42325 0.4294 0.0
H800 H 0.41697 0.45886 0.30123 0.0
H801 H 0.43167 0.46095 0.34852 0.0
H802 H 0.39427 0.47636 0.27073 0.0
H803 H 0.35661 0.46699 0.2655 0.0
C804 C 0.9181 0.36556 0.90249 0.0
C805 C 0.92123 0.39372 0.89527 0.0
C806 C 0.88747 0.37416 0.83843 0.0
C807 C 0.88141 0.34511 0.84859 0.0
N808 N 0.88689 0.31197 0.89469 0.0
N809 N 0.90365 0.42281 0.86163 0.0
C810 C 0.89565 0.34046 0.88184 0.0
C811 C 0.90449 0.39749 0.86461 0.0
N812 N 0.93715 0.36299 0.92821 0.0
N813 N 0.87769 0.3797 0.80322 0.0
H814 H 0.91477 0.43977 0.88138 0.0
H815 H 0.88938 0.4255 0.84239 0.0
H816 H 0.86561 0.36331 0.78287 0.0
H817 H 0.88417 0.40118 0.79246 0.0
H818 H 0.93807 0.34385 0.93154 0.0
H819 H 0.95407 0.38094 0.94356 0.0
H820 H 0.89407 0.307 0.92123 0.0
H821 H 0.87025 0.29296 0.88075 0.0
C822 C 0.92547 0.55172 0.94484 0.0
C823 C 0.93489 0.53306 0.93063 0.0
C824 C 0.90397 0.52486 0.87149 0.0
C825 C 0.89089 0.5395 0.88885 0.0
N826 N 0.88596 0.5631 0.94532 0.0
N827 N 0.9302 0.49876 0.88245 0.0
C828 C 0.90085 0.55205 0.92639 0.0
C829 C 0.92334 0.51877 0.89445 0.0
N830 N 0.94042 0.56955 0.97552 0.0
N831 N 0.89871 0.51766 0.83262 0.0
H832 H 0.94383 0.49323 0.8987 0.0
H833 H 0.92028 0.48581 0.85809 0.0
H834 H 0.88524 0.5224 0.81461 0.0
H835 H 0.91017 0.50984 0.81705 0.0
H836 H 0.93658 0.58579 0.98455 0.0
H837 H 0.95868 0.57001 0.98954 0.0
H838 H 0.89018 0.56961 0.97451 0.0
H839 H 0.8674 0.56318 0.93327 0.0
C840 C 0.38107 0.92831 0.43682 0.0
C841 C 0.40978 0.9308 0.43504 0.0
C842 C 0.38484 0.88245 0.40416 0.0
C843 C 0.35807 0.88341 0.39849 0.0
N844 N 0.32674 0.89197 0.44167 0.0
N845 N 0.43917 0.9096 0.41815 0.0
C846 C 0.35455 0.90219 0.42352 0.0
C847 C 0.41171 0.90761 0.41913 0.0
N848 N 0.37877 0.9504 0.45207 0.0
N849 N 0.38293 0.85588 0.4017 0.0
H850 H 0.45909 0.92732 0.42979 0.0
H851 H 0.44257 0.89483 0.40323 0.0
H852 H 0.36193 0.83585 0.39798 0.0
H853 H 0.40074 0.8529 0.40903 0.0
H854 H 0.3586 0.95041 0.45073 0.0
H855 H 0.3975 0.96962 0.46317 0.0
H856 H 0.32351 0.90378 0.46285 0.0
H857 H 0.30859 0.86961 0.44064 0.0
C858 C 0.4897 0.37793 0.92583 0.0
C859 C 0.46922 0.38792 0.92175 0.0
C860 C 0.43504 0.3436 0.88433 0.0
C861 C 0.45891 0.33803 0.88088 0.0
N862 N 0.49211 0.33389 0.92736 0.0
N863 N 0.42046 0.37857 0.89929 0.0
C864 C 0.4818 0.35053 0.90993 0.0
C865 C 0.44128 0.37027 0.9016 0.0
N866 N 0.51711 0.39473 0.94398 0.0
N867 N 0.4054 0.32108 0.87839 0.0
H868 H 0.42281 0.39643 0.91416 0.0
H869 H 0.40164 0.36851 0.88088 0.0
H870 H 0.39957 0.29926 0.87419 0.0
H871 H 0.38651 0.3227 0.8838 0.0
H872 H 0.53372 0.38927 0.94415 0.0
H873 H 0.52429 0.41526 0.95573 0.0
H874 H 0.50678 0.34098 0.95131 0.0
H875 H 0.48228 0.31137 0.92155 0.0
C876 C 0.07138 0.44208 0.39027 0.0
C877 C 0.06867 0.46706 0.38162 0.0
C878 C 0.10186 0.48096 0.32189 0.0
C879 C 0.10757 0.45851 0.33336 0.0
N880 N 0.1002 0.41882 0.37963 0.0
N881 N 0.0828 0.51178 0.34089 0.0
C882 C 0.09281 0.43915 0.36774 0.0
C883 C 0.08403 0.4868 0.34752 0.0
N884 N 0.05294 0.42088 0.4195 0.0
N885 N 0.11373 0.49602 0.28585 0.0
H886 H 0.06939 0.51634 0.35845 0.0
H887 H 0.09655 0.5291 0.31978 0.0
H888 H 0.10951 0.51166 0.27278 0.0
H889 H 0.10951 0.51166 0.27278 0.0
H890 H 0.05161 0.40069 0.42479 0.0
H891 H 0.03683 0.42226 0.43631 0.0
H892 H 0.09296 0.4064 0.40683 0.0
H893 H 0.11537 0.41577 0.36335 0.0
C894 C 0.59014 0.07729 0.87885 0.0
C895 C 0.59465 0.06033 0.90877 0.0
C896 C 0.64882 0.08539 0.88729 0.0
C897 C 0.64381 0.101 0.85574 0.0
N898 N 0.60827 0.10685 0.81609 0.0
N899 N 0.62616 0.04369 0.93707 0.0
C900 C 0.61399 0.09543 0.8499 0.0
C901 C 0.62335 0.06289 0.9115 0.0
N902 N 0.56348 0.0769 0.87891 0.0
N903 N 0.67806 0.09309 0.89543 0.0
H904 H 0.60806 0.0273 0.95568 0.0
H905 H 0.64553 0.04234 0.9375 0.0
H906 H 0.69738 0.10963 0.87871 0.0
H907 H 0.68348 0.08487 0.9207 0.0
H908 H 0.5605 0.09168 0.86094 0.0
H909 H 0.54521 0.06351 0.89919 0.0
H910 H 0.5863 0.10111 0.80826 0.0
H911 H 0.62508 0.11984 0.79389 0.0
C912 C 0.57223 0.63147 0.43642 0.0
C913 C 0.55169 0.60335 0.42032 0.0
C914 C 0.54786 0.62979 0.36075 0.0
C915 C 0.56296 0.65687 0.38051 0.0
N916 N 0.58787 0.68345 0.43888 0.0
N917 N 0.51747 0.57588 0.36728 0.0
C918 C 0.57512 0.65787 0.41865 0.0
C919 C 0.53902 0.6025 0.38233 0.0
N920 N 0.58874 0.63281 0.46888 0.0
N921 N 0.54239 0.63023 0.32101 0.0
H922 H 0.51105 0.55507 0.38021 0.0
H923 H 0.50451 0.57446 0.34275 0.0
H924 H 0.54911 0.64999 0.30404 0.0
H925 H 0.53424 0.61161 0.30407 0.0
H926 H 0.58705 0.61381 0.48247 0.0
H927 H 0.60607 0.65292 0.47988 0.0
H928 H 0.59397 0.68443 0.46853 0.0
H929 H 0.59014 0.70314 0.42705 0.0
C930 C 0.44898 0.07749 0.62098 0.0
C931 C 0.4612 0.08488 0.58128 0.0
C932 C 0.46885 0.1347 0.58332 0.0
C933 C 0.45645 0.12724 0.62293 0.0
N934 N 0.4295 0.09021 0.67713 0.0
N935 N 0.47737 0.11768 0.52187 0.0
C936 C 0.44484 0.09814 0.64101 0.0
C937 C 0.46928 0.11259 0.56152 0.0
N938 N 0.44238 0.05112 0.63991 0.0
N939 N 0.48153 0.16336 0.56726 0.0
H940 H 0.47848 0.10218 0.50531 0.0
H941 H 0.48058 0.13605 0.50456 0.0
H942 H 0.48119 0.17999 0.58204 0.0
H943 H 0.49417 0.17134 0.54045 0.0
H944 H 0.43712 0.0459 0.67025 0.0
H945 H 0.44365 0.03484 0.62552 0.0
H946 H 0.41782 0.06852 0.69033 0.0
H947 H 0.4264 0.10492 0.69278 0.0
C948 C 0.4066 0.50265 0.08591 0.0
C949 C 0.40663 0.4767 0.07772 0.0
C950 C 0.35722 0.44523 0.11415 0.0
C951 C 0.3554 0.47081 0.11804 0.0
N952 N 0.37554 0.52293 0.09904 0.0
N953 N 0.37903 0.42277 0.0769 0.0
C954 C 0.37934 0.49932 0.10153 0.0
C955 C 0.38099 0.44779 0.08961 0.0
N956 N 0.43278 0.53049 0.07951 0.0
N957 N 0.33717 0.41886 0.13524 0.0
H958 H 0.35937 0.40128 0.08141 0.0
H959 H 0.39602 0.42379 0.05885 0.0
H960 H 0.32022 0.41635 0.15488 0.0
H961 H 0.33941 0.40045 0.13638 0.0
H962 H 0.43491 0.54997 0.08872 0.0
H963 H 0.45331 0.53377 0.06854 0.0
H964 H 0.39109 0.54336 0.0838 0.0
H965 H 0.35535 0.52113 0.10844 0.0
C966 C 0.92324 0.37451 0.56183 0.0
C967 C 0.9318 0.40314 0.57407 0.0
C968 C 0.901 0.37964 0.63585 0.0
C969 C 0.8891 0.35086 0.62112 0.0
N970 N 0.8849 0.32114 0.56648 0.0
N971 N 0.92484 0.4328 0.61964 0.0
C972 C 0.89922 0.3483 0.58314 0.0
C973 C 0.91954 0.40567 0.61023 0.0
N974 N 0.9383 0.37236 0.53012 0.0
N975 N 0.89553 0.38216 0.67473 0.0
H976 H 0.93826 0.45244 0.60163 0.0
H977 H 0.91359 0.43516 0.64343 0.0
H978 H 0.88287 0.36364 0.69483 0.0
H979 H 0.90616 0.40262 0.68806 0.0
H980 H 0.93519 0.35215 0.52235 0.0
H981 H 0.9559 0.39112 0.51371 0.0
H982 H 0.88925 0.3186 0.53722 0.0
H983 H 0.86655 0.30154 0.58047 0.0
C984 C 0.51236 0.90417 0.13694 0.0
C985 C 0.53561 0.92345 0.10801 0.0
C986 C 0.56537 0.90158 0.12782 0.0
C987 C 0.54352 0.88452 0.15938 0.0
N988 N 0.49988 0.87462 0.19935 0.0
N989 N 0.58646 0.94414 0.07956 0.0
C990 C 0.5181 0.88736 0.16559 0.0
C991 C 0.56286 0.9233 0.10459 0.0
N992 N 0.48426 0.90085 0.13592 0.0
N993 N 0.58762 0.8961 0.11887 0.0
H994 H 0.58517 0.96007 0.06167 0.0
H995 H 0.60813 0.94719 0.07891 0.0
H996 H 0.58997 0.88007 0.13476 0.0
H997 H 0.60208 0.90555 0.09361 0.0
H998 H 0.46546 0.8849 0.15389 0.0
H999 H 0.47884 0.9119 0.11424 0.0
H1000 H 0.48288 0.87851 0.20722 0.0
H1001 H 0.50375 0.86258 0.22146 0.0
C1002 C 0.6031 0.51626 0.64034 0.0
C1003 C 0.61134 0.53534 0.60508 0.0
C1004 C 0.66598 0.56 0.62071 0.0
C1005 C 0.6576 0.54192 0.65681 0.0
N1006 N 0.61837 0.50705 0.70496 0.0
N1007 N 0.64976 0.57928 0.56579 0.0
C1008 C 0.62617 0.52133 0.66783 0.0
C1009 C 0.64258 0.55839 0.59646 0.0
N1010 N 0.57345 0.49251 0.64682 0.0
N1011 N 0.6963 0.57798 0.60893 0.0
H1012 H 0.63319 0.57896 0.54769 0.0
H1013 H 0.67166 0.59841 0.56047 0.0
H1014 H 0.71411 0.58022 0.62625 0.0
H1015 H 0.70374 0.58901 0.58084 0.0
H1016 H 0.5668 0.47566 0.66922 0.0
H1017 H 0.55567 0.48823 0.628 0.0
H1018 H 0.59587 0.49428 0.71647 0.0
H1019 H 0.63467 0.51005 0.72574 0.0
C1020 C 0.11475 0.6172 0.11364 0.0
C1021 C 0.0866 0.61394 0.10275 0.0
C1022 C 0.0976 0.65457 0.14548 0.0
C1023 C 0.12749 0.66034 0.15186 0.0
N1024 N 0.16682 0.6511 0.1339 0.0
N1025 N 0.05368 0.63326 0.10285 0.0
C1026 C 0.13676 0.6428 0.13358 0.0
C1027 C 0.07867 0.6337 0.11714 0.0
N1028 N 0.11996 0.59518 0.10655 0.0
N1029 N 0.08679 0.66812 0.1675 0.0
H1030 H 0.03961 0.61871 0.08156 0.0
H1031 H 0.04866 0.64921 0.10932 0.0
H1032 H 0.09957 0.68285 0.18934 0.0
H1033 H 0.0641 0.66247 0.16686 0.0
H1034 H 0.13887 0.59511 0.11723 0.0
H1035 H 0.10356 0.57532 0.09409 0.0
H1036 H 0.17519 0.64061 0.11766 0.0
H1037 H 0.18402 0.67036 0.14685 0.0
loop_
_geom_bond_atom_site_label_1
_geom_bond_atom_site_label_2
_geom_bond_distance
_geom_bond_site_symmetry_2
_ccdc_geom_bond_type
C0 C1 1.443 1_556 S
C0 N4 1.376 1_556 S
C0 C38 1.389 . S
C1 C0 1.443 1_554 S
C1 C2 1.340 . S
C1 H41 0.951 1_554 S
C2 C1 1.340 . S
C2 C3 1.439 . S
C2 H42 0.950 . S
C3 C2 1.439 . S
C3 N4 1.374 . S
C3 C37 1.395 . S
N4 C0 1.376 1_554 S
N4 C3 1.374 . S
N4 Co5 2.011 1_655 S
Co5 N4 2.011 1_455 S
Co5 N6 2.004 1_455 S
Co5 N11 2.006 1_554 S
Co5 N16 1.985 1_554 S
Co5 N21 2.289 . S
Co5 N27 2.276 1_454 S
N6 Co5 2.004 1_655 S
N6 C7 1.376 . S
N6 C10 1.383 1_655 S
C7 N6 1.376 . S
C7 C8 1.446 . S
C7 C37 1.391 . S
C8 C7 1.446 . S
C8 C9 1.339 1_655 S
C8 H43 0.949 . S
C9 C8 1.339 1_455 S
C9 C10 1.439 . S
C9 H44 0.950 . S
C10 N6 1.383 1_455 S
C10 C9 1.439 . S
C10 C39 1.392 . S
N11 Co5 2.006 1_556 S
N11 C12 1.376 1_556 S
N11 C15 1.374 . S
C12 N11 1.376 1_554 S
C12 C13 1.443 1_554 S
C12 C39 1.389 . S
C13 C12 1.443 1_556 S
C13 C14 1.340 . S
C13 H45 0.951 1_556 S
C14 C13 1.340 . S
C14 C15 1.439 . S
C14 H46 0.950 . S
C15 N11 1.374 . S
C15 C14 1.439 . S
C15 C40 1.395 . S
N16 Co5 1.985 1_556 S
N16 C17 1.376 . S
N16 C20 1.383 1_455 S
C17 N16 1.376 . S
C17 C18 1.446 . S
C17 C40 1.391 . S
C18 C17 1.446 . S
C18 C19 1.339 1_455 S
C18 H47 0.949 . S
C19 C18 1.339 1_655 S
C19 C20 1.439 . S
C19 H48 0.950 . S
C20 N16 1.383 1_655 S
C20 C19 1.439 . S
C20 C38 1.392 . S
N21 Co5 2.289 . S
N21 C24 1.332 . S
N21 C26 1.332 . S
C22 C23 1.386 . S
C22 C25 1.388 . S
C23 C22 1.386 . S
C23 C24 1.382 . S
C23 H49 0.950 . S
C24 N21 1.332 . S
C24 C23 1.382 . S
C24 H35 0.952 1_554 S
C25 C22 1.388 . S
C25 C26 1.382 . S
C25 H50 0.950 . S
C26 N21 1.332 . S
C26 C25 1.382 . S
C26 H36 0.948 . S
N27 Co5 2.276 1_656 S
N27 C31 1.332 . S
N27 C32 1.332 . S
C28 C29 1.388 . S
C28 C32 1.382 . S
C28 H51 0.950 . S
C29 C28 1.388 . S
C29 C30 1.386 . S
C30 C29 1.386 . S
C30 C31 1.382 . S
C30 H52 0.950 . S
C31 N27 1.332 . S
C31 C30 1.382 . S
C31 H33 0.952 1_556 S
C32 N27 1.332 . S
C32 C28 1.382 . S
C32 H34 0.948 . S
H33 C31 0.952 1_554 S
H34 C32 0.948 . S
H35 C24 0.952 1_556 S
H36 C26 0.948 . S
C37 C3 1.395 . S
C37 C7 1.391 . S
C38 C0 1.389 . S
C38 C20 1.392 . S
C39 C10 1.392 . S
C39 C12 1.389 . S
C40 C15 1.395 . S
C40 C17 1.391 . S
H41 C1 0.951 1_556 S
H42 C2 0.950 . S
H43 C8 0.949 . S
H44 C9 0.950 . S
H45 C13 0.951 1_554 S
H46 C14 0.950 . S
H47 C18 0.949 . S
H48 C19 0.950 . S
H49 C23 0.950 . S
H50 C25 0.950 . S
H51 C28 0.950 . S
H52 C30 0.950 . S
C53 C54 1.443 . S
C53 N57 1.376 1_545 S
C53 C91 1.389 . S
C54 C53 1.443 . S
C54 C55 1.340 1_545 S
C54 H94 0.951 . S
C55 C54 1.340 1_565 S
C55 C56 1.439 . S
C55 H95 0.950 . S
C56 C55 1.439 . S
C56 N57 1.374 . S
C56 C90 1.395 . S
N57 C53 1.376 1_565 S
N57 C56 1.374 . S
N57 Co58 2.008 1_565 S
Co58 N57 2.008 1_545 S
Co58 N59 1.995 1_545 S
Co58 N64 2.008 . S
Co58 N69 1.995 . S
Co58 N74 2.282 1_545 S
Co58 N80 2.282 . S
N59 Co58 1.995 1_565 S
N59 C60 1.376 . S
N59 C63 1.383 . S
C60 N59 1.376 . S
C60 C61 1.446 . S
C60 C90 1.391 . S
C61 C60 1.446 . S
C61 C62 1.339 . S
C61 H96 0.949 . S
C62 C61 1.339 . S
C62 C63 1.439 . S
C62 H97 0.950 . S
C63 N59 1.383 . S
C63 C62 1.439 . S
C63 C92 1.392 . S
N64 Co58 2.008 . S
N64 C65 1.376 1_545 S
N64 C68 1.374 . S
C65 N64 1.376 1_565 S
C65 C66 1.443 . S
C65 C92 1.389 . S
C66 C65 1.443 . S
C66 C67 1.340 1_565 S
C66 H98 0.951 . S
C67 C66 1.340 1_545 S
C67 C68 1.439 . S
C67 H99 0.950 . S
C68 N64 1.374 . S
C68 C67 1.439 . S
C68 C93 1.395 . S
N69 Co58 1.995 . S
N69 C70 1.376 . S
N69 C73 1.383 . S
C70 N69 1.376 . S
C70 C71 1.446 . S
C70 C93 1.391 . S
C71 C70 1.446 . S
C71 C72 1.339 . S
C71 H100 0.949 . S
C72 C71 1.339 . S
C72 C73 1.439 . S
C72 H101 0.950 . S
C73 N69 1.383 . S
C73 C72 1.439 . S
C73 C91 1.392 . S
N74 Co58 2.282 1_565 S
N74 C77 1.332 . S
N74 C79 1.332 . S
C75 C76 1.386 . S
C75 C78 1.388 . S
C76 C75 1.386 . S
C76 C77 1.382 . S
C76 H102 0.950 . S
C77 N74 1.332 . S
C77 C76 1.382 . S
C77 H88 0.952 1_565 S
C78 C75 1.388 . S
C78 C79 1.382 . S
C78 H103 0.950 . S
C79 N74 1.332 . S
C79 C78 1.382 . S
C79 H89 0.948 . S
N80 Co58 2.282 . S
N80 C84 1.332 . S
N80 C85 1.332 . S
C81 C82 1.388 . S
C81 C85 1.382 . S
C81 H104 0.950 . S
C82 C81 1.388 . S
C82 C83 1.386 . S
C83 C82 1.386 . S
C83 C84 1.382 . S
C83 H105 0.950 . S
C84 N80 1.332 . S
C84 C83 1.382 . S
C84 H86 0.952 1_545 S
C85 N80 1.332 . S
C85 C81 1.382 . S
C85 H87 0.948 . S
H86 C84 0.952 1_565 S
H87 C85 0.948 . S
H88 C77 0.952 1_545 S
H89 C79 0.948 . S
C90 C56 1.395 . S
C90 C60 1.391 . S
C91 C53 1.389 . S
C91 C73 1.392 . S
C92 C63 1.392 . S
C92 C65 1.389 . S
C93 C68 1.395 . S
C93 C70 1.391 . S
H94 C54 0.951 . S
H95 C55 0.950 . S
H96 C61 0.949 . S
H97 C62 0.950 . S
H98 C66 0.951 . S
H99 C67 0.950 . S
H100 C71 0.949 . S
H101 C72 0.950 . S
H102 C76 0.950 . S
H103 C78 0.950 . S
H104 C81 0.950 . S
H105 C83 0.950 . S
C106 C107 1.443 . S
C106 N110 1.376 . S
C106 C144 1.389 . S
C107 C106 1.443 . S
C107 C108 1.340 . S
C107 H147 0.951 . S
C108 C107 1.340 . S
C108 C109 1.439 . S
C108 H148 0.950 . S
C109 C108 1.439 . S
C109 N110 1.374 . S
C109 C143 1.395 . S
N110 C106 1.376 . S
N110 C109 1.374 . S
N110 Co111 1.998 1_556 S
Co111 N110 1.998 1_554 S
Co111 N112 1.992 1_554 S
Co111 N117 2.018 . S
Co111 N122 1.998 . S
Co111 N127 2.289 . S
Co111 N133 2.276 1_554 S
N112 Co111 1.992 1_556 S
N112 C113 1.376 . S
N112 C116 1.383 1_556 S
C113 N112 1.376 . S
C113 C114 1.446 . S
C113 C143 1.391 . S
C114 C113 1.446 . S
C114 C115 1.339 . S
C114 H149 0.949 . S
C115 C114 1.339 . S
C115 C116 1.439 1_556 S
C115 H150 0.946 1_556 S
C116 N112 1.383 1_554 S
C116 C115 1.439 1_554 S
C116 C145 1.392 . S
N117 Co111 2.018 . S
N117 C118 1.376 . S
N117 C121 1.374 . S
C118 N117 1.376 . S
C118 C119 1.443 . S
C118 C145 1.389 . S
C119 C118 1.443 . S
C119 C120 1.340 . S
C119 H151 0.951 . S
C120 C119 1.340 . S
C120 C121 1.439 . S
C120 H152 0.950 . S
C121 N117 1.374 . S
C121 C120 1.439 . S
C121 C146 1.395 . S
N122 Co111 1.998 . S
N122 C123 1.376 . S
N122 C126 1.383 1_554 S
C123 N122 1.376 . S
C123 C124 1.446 . S
C123 C146 1.391 . S
C124 C123 1.446 . S
C124 C125 1.339 . S
C124 H153 0.949 . S
C125 C124 1.339 . S
C125 C126 1.439 1_554 S
C125 H154 0.954 . S
C126 N122 1.383 1_556 S
C126 C125 1.439 1_556 S
C126 C144 1.392 . S
N127 Co111 2.289 . S
N127 C130 1.332 . S
N127 C132 1.332 . S
C128 C129 1.386 . S
C128 C131 1.388 . S
C129 C128 1.386 . S
C129 C130 1.382 . S
C129 H155 0.950 . S
C130 N127 1.332 . S
C130 C129 1.382 . S
C130 H141 0.952 . S
C131 C128 1.388 . S
C131 C132 1.382 . S
C131 H156 0.950 . S
C132 N127 1.332 . S
C132 C131 1.382 . S
C132 H142 0.948 1_554 S
N133 Co111 2.276 1_556 S
N133 C137 1.332 . S
N133 C138 1.332 . S
C134 C135 1.388 . S
C134 C138 1.382 . S
C134 H157 0.950 . S
C135 C134 1.388 . S
C135 C136 1.386 . S
C136 C135 1.386 . S
C136 C137 1.382 . S
C136 H158 0.950 . S
C137 N133 1.332 . S
C137 C136 1.382 . S
C137 H139 0.952 . S
C138 N133 1.332 . S
C138 C134 1.382 . S
C138 H140 0.948 1_556 S
H139 C137 0.952 . S
H140 C138 0.948 1_554 S
H141 C130 0.952 . S
H142 C132 0.948 1_556 S
C143 C109 1.395 . S
C143 C113 1.391 . S
C144 C106 1.389 . S
C144 C126 1.392 . S
C145 C116 1.392 . S
C145 C118 1.389 . S
C146 C121 1.395 . S
C146 C123 1.391 . S
H147 C107 0.951 . S
H148 C108 0.950 . S
H149 C114 0.949 . S
H150 C115 0.946 1_554 S
H151 C119 0.951 . S
H152 C120 0.950 . S
H153 C124 0.949 . S
H154 C125 0.954 . S
H155 C129 0.950 . S
H156 C131 0.950 . S
H157 C134 0.950 . S
H158 C136 0.950 . S
C159 C160 1.443 . S
C159 N163 1.376 . S
C159 C197 1.389 . S
C160 C159 1.443 . S
C160 C161 1.340 . S
C160 H200 0.951 . S
C161 C160 1.340 . S
C161 C162 1.439 . S
C161 H201 0.950 . S
C162 C161 1.439 . S
C162 N163 1.374 . S
C162 C196 1.395 . S
N163 C159 1.376 . S
N163 C162 1.374 . S
N163 Co164 2.008 1_655 S
Co164 N163 2.008 1_455 S
Co164 N165 1.995 1_455 S
Co164 N170 2.008 . S
Co164 N175 1.995 . S
Co164 N180 2.282 . S
Co164 N186 2.282 1_455 S
N165 Co164 1.995 1_655 S
N165 C166 1.376 . S
N165 C169 1.383 1_655 S
C166 N165 1.376 . S
C166 C167 1.446 . S
C166 C196 1.391 . S
C167 C166 1.446 . S
C167 C168 1.339 1_655 S
C167 H202 0.949 . S
C168 C167 1.339 1_455 S
C168 C169 1.439 . S
C168 H203 0.950 . S
C169 N165 1.383 1_455 S
C169 C168 1.439 . S
C169 C198 1.392 . S
N170 Co164 2.008 . S
N170 C171 1.376 . S
N170 C174 1.374 . S
C171 N170 1.376 . S
C171 C172 1.443 . S
C171 C198 1.389 . S
C172 C171 1.443 . S
C172 C173 1.340 . S
C172 H204 0.951 . S
C173 C172 1.340 . S
C173 C174 1.439 . S
C173 H205 0.950 . S
C174 N170 1.374 . S
C174 C173 1.439 . S
C174 C199 1.395 . S
N175 Co164 1.995 . S
N175 C176 1.376 . S
N175 C179 1.383 1_455 S
C176 N175 1.376 . S
C176 C177 1.446 . S
C176 C199 1.391 . S
C177 C176 1.446 . S
C177 C178 1.339 1_455 S
C177 H206 0.949 . S
C178 C177 1.339 1_655 S
C178 C179 1.439 . S
C178 H207 0.950 . S
C179 N175 1.383 1_655 S
C179 C178 1.439 . S
C179 C197 1.392 . S
N180 Co164 2.282 . S
N180 C183 1.332 . S
N180 C185 1.332 . S
C181 C182 1.386 . S
C181 C184 1.388 . S
C182 C181 1.386 . S
C182 C183 1.382 . S
C182 H208 0.950 . S
C183 N180 1.332 . S
C183 C182 1.382 . S
C183 H194 0.952 . S
C184 C181 1.388 . S
C184 C185 1.382 . S
C184 H209 0.950 . S
C185 N180 1.332 . S
C185 C184 1.382 . S
C185 H195 0.948 . S
N186 Co164 2.282 1_655 S
N186 C190 1.332 . S
N186 C191 1.332 . S
C187 C188 1.388 . S
C187 C191 1.382 . S
C187 H210 0.950 . S
C188 C187 1.388 . S
C188 C189 1.386 . S
C189 C188 1.386 . S
C189 C190 1.382 . S
C189 H211 0.950 . S
C190 N186 1.332 . S
C190 C189 1.382 . S
C190 H192 0.952 . S
C191 N186 1.332 . S
C191 C187 1.382 . S
C191 H193 0.948 . S
H192 C190 0.952 . S
H193 C191 0.948 . S
H194 C183 0.952 . S
H195 C185 0.948 . S
C196 C162 1.395 . S
C196 C166 1.391 . S
C197 C159 1.389 . S
C197 C179 1.392 . S
C198 C169 1.392 . S
C198 C171 1.389 . S
C199 C174 1.395 . S
C199 C176 1.391 . S
H200 C160 0.951 . S
H201 C161 0.950 . S
H202 C167 0.949 . S
H203 C168 0.950 . S
H204 C172 0.951 . S
H205 C173 0.950 . S
H206 C177 0.949 . S
H207 C178 0.950 . S
H208 C182 0.950 . S
H209 C184 0.950 . S
H210 C187 0.950 . S
H211 C189 0.950 . S
C212 C213 1.443 . S
C212 N216 1.376 1_565 S
C212 C250 1.389 . S
C213 C212 1.443 . S
C213 C214 1.340 1_565 S
C213 H253 0.951 . S
C214 C213 1.340 1_545 S
C214 C215 1.439 . S
C214 H254 0.950 . S
C215 C214 1.439 . S
C215 N216 1.374 . S
C215 C249 1.395 . S
N216 C212 1.376 1_545 S
N216 C215 1.374 . S
N216 Co217 2.020 . S
Co217 N216 2.020 . S
Co217 N218 1.997 . S
Co217 N223 1.994 1_544 S
Co217 N228 1.992 1_544 S
Co217 N233 2.277 1_554 S
Co217 N239 2.288 1_545 S
N218 Co217 1.997 . S
N218 C219 1.376 . S
N218 C222 1.383 1_554 S
C219 N218 1.376 . S
C219 C220 1.446 . S
C219 C249 1.391 . S
C220 C219 1.446 . S
C220 C221 1.339 1_554 S
C220 H255 0.949 . S
C221 C220 1.339 1_556 S
C221 C222 1.439 . S
C221 H256 0.950 . S
C222 N218 1.383 1_556 S
C222 C221 1.439 . S
C222 C251 1.392 . S
N223 Co217 1.994 1_566 S
N223 C224 1.373 1_565 S
N223 C227 1.379 . S
C224 N223 1.373 1_545 S
C224 C225 1.443 . S
C224 C251 1.389 . S
C225 C224 1.443 . S
C225 C226 1.340 1_545 S
C225 H257 0.951 . S
C226 C225 1.340 1_565 S
C226 C227 1.439 . S
C226 H258 0.950 . S
C227 N223 1.379 . S
C227 C226 1.439 . S
C227 C252 1.395 . S
N228 Co217 1.992 1_566 S
N228 C229 1.376 . S
N228 C232 1.383 1_556 S
C229 N228 1.376 . S
C229 C230 1.446 . S
C229 C252 1.391 . S
C230 C229 1.446 . S
C230 C231 1.339 1_556 S
C230 H259 0.949 . S
C231 C230 1.339 1_554 S
C231 C232 1.439 . S
C231 H260 0.950 . S
C232 N228 1.383 1_554 S
C232 C231 1.439 . S
C232 C250 1.392 . S
N233 Co217 2.277 1_556 S
N233 C236 1.332 . S
N233 C238 1.332 . S
C234 C235 1.386 . S
C234 C237 1.388 . S
C235 C234 1.386 . S
C235 C236 1.382 . S
C235 H261 0.950 . S
C236 N233 1.332 . S
C236 C235 1.382 . S
C236 H247 0.911 1_545 S
C237 C234 1.388 . S
C237 C238 1.382 . S
C237 H262 0.950 . S
C238 N233 1.332 . S
C238 C237 1.382 . S
C238 H248 0.948 . S
N239 Co217 2.288 1_565 S
N239 C243 1.332 . S
N239 C244 1.332 . S
C240 C241 1.388 . S
C240 C244 1.382 . S
C240 H263 0.950 . S
C241 C240 1.388 . S
C241 C242 1.386 . S
C242 C241 1.386 . S
C242 C243 1.382 . S
C242 H264 0.950 . S
C243 N239 1.332 . S
C243 C242 1.382 . S
C243 H245 0.952 1_565 S
C244 N239 1.332 . S
C244 C240 1.382 . S
C244 H246 0.948 . S
H245 C243 0.952 1_545 S
H246 C244 0.948 . S
H247 C236 0.911 1_565 S
H248 C238 0.948 . S
C249 C215 1.395 . S
C249 C219 1.391 . S
C250 C212 1.389 . S
C250 C232 1.392 . S
C251 C222 1.392 . S
C251 C224 1.389 . S
C252 C227 1.395 . S
C252 C229 1.391 . S
H253 C213 0.951 . S
H254 C214 0.950 . S
H255 C220 0.949 . S
H256 C221 0.950 . S
H257 C225 0.951 . S
H258 C226 0.950 . S
H259 C230 0.949 . S
H260 C231 0.950 . S
H261 C235 0.950 . S
H262 C237 0.950 . S
H263 C240 0.950 . S
H264 C242 0.950 . S
C265 C266 1.443 . S
C265 N269 1.376 . S
C265 C303 1.389 . S
C266 C265 1.443 . S
C266 C267 1.340 . S
C266 H306 0.951 . S
C267 C266 1.340 . S
C267 C268 1.439 . S
C267 H307 0.950 . S
C268 C267 1.439 . S
C268 N269 1.374 . S
C268 C302 1.395 . S
N269 C265 1.376 . S
N269 C268 1.374 . S
N269 Co270 2.008 . S
Co270 N269 2.008 . S
Co270 N271 1.995 . S
Co270 N276 2.008 . S
Co270 N281 1.995 . S
Co270 N286 2.282 . S
Co270 N292 2.282 . S
N271 Co270 1.995 . S
N271 C272 1.376 . S
N271 C275 1.383 . S
C272 N271 1.376 . S
C272 C273 1.446 . S
C272 C302 1.391 . S
C273 C272 1.446 . S
C273 C274 1.339 . S
C273 H308 0.949 . S
C274 C273 1.339 . S
C274 C275 1.439 . S
C274 H309 0.950 . S
C275 N271 1.383 . S
C275 C274 1.439 . S
C275 C304 1.392 . S
N276 Co270 2.008 . S
N276 C277 1.376 . S
N276 C280 1.374 . S
C277 N276 1.376 . S
C277 C278 1.443 . S
C277 C304 1.389 . S
C278 C277 1.443 . S
C278 C279 1.340 . S
C278 H310 0.951 . S
C279 C278 1.340 . S
C279 C280 1.439 . S
C279 H311 0.950 . S
C280 N276 1.374 . S
C280 C279 1.439 . S
C280 C305 1.395 . S
N281 Co270 1.995 . S
N281 C282 1.376 . S
N281 C285 1.383 . S
C282 N281 1.376 . S
C282 C283 1.446 . S
C282 C305 1.391 . S
C283 C282 1.446 . S
C283 C284 1.339 . S
C283 H312 0.949 . S
C284 C283 1.339 . S
C284 C285 1.439 . S
C284 H313 0.950 . S
C285 N281 1.383 . S
C285 C284 1.439 . S
C285 C303 1.392 . S
N286 Co270 2.282 . S
N286 C289 1.332 . S
N286 C291 1.332 . S
C287 C288 1.386 . S
C287 C290 1.388 . S
C288 C287 1.386 . S
C288 C289 1.382 . S
C288 H314 0.950 . S
C289 N286 1.332 . S
C289 C288 1.382 . S
C289 H300 0.952 . S
C290 C287 1.388 . S
C290 C291 1.382 . S
C290 H315 0.950 . S
C291 N286 1.332 . S
C291 C290 1.382 . S
C291 H301 0.948 . S
N292 Co270 2.282 . S
N292 C296 1.332 . S
N292 C297 1.332 . S
C293 C294 1.388 . S
C293 C297 1.382 . S
C293 H316 0.950 . S
C294 C293 1.388 . S
C294 C295 1.386 . S
C295 C294 1.386 . S
C295 C296 1.382 . S
C295 H317 0.950 . S
C296 N292 1.332 . S
C296 C295 1.382 . S
C296 H298 0.952 . S
C297 N292 1.332 . S
C297 C293 1.382 . S
C297 H299 0.948 . S
H298 C296 0.952 . S
H299 C297 0.948 . S
H300 C289 0.952 . S
H301 C291 0.948 . S
C302 C268 1.395 . S
C302 C272 1.391 . S
C303 C265 1.389 . S
C303 C285 1.392 . S
C304 C275 1.392 . S
C304 C277 1.389 . S
C305 C280 1.395 . S
C305 C282 1.391 . S
H306 C266 0.951 . S
H307 C267 0.950 . S
H308 C273 0.949 . S
H309 C274 0.950 . S
H310 C278 0.951 . S
H311 C279 0.950 . S
H312 C283 0.949 . S
H313 C284 0.950 . S
H314 C288 0.950 . S
H315 C290 0.950 . S
H316 C293 0.950 . S
H317 C295 0.950 . S
H318 C337 0.949 . S
H319 C338 0.950 . S
H320 C340 0.950 . S
H321 C341 0.950 . S
H322 C343 0.950 . S
H323 C346 0.950 . S
H324 C347 0.950 . S
H325 C349 0.951 . S
H326 C350 0.949 . S
H327 C352 0.949 . S
H328 C353 0.950 . S
H329 C355 0.950 . S
H330 C356 0.950 . S
H331 C358 0.950 . S
H332 C361 0.950 . S
H333 C362 0.950 . S
H334 C364 0.951 . S
H335 C365 0.949 . S
C336 C337 1.376 . S
C336 C341 1.386 . S
C336 C342 1.483 . S
C337 H318 0.949 . S
C337 C336 1.376 . S
C337 C338 1.397 . S
C338 H319 0.950 . S
C338 C337 1.397 . S
C338 C339 1.391 . S
C339 C338 1.391 . S
C339 C340 1.405 . S
C340 H320 0.950 . S
C340 C339 1.405 . S
C340 C341 1.367 . S
C341 H321 0.950 . S
C341 C336 1.386 . S
C341 C340 1.367 . S
C342 C336 1.483 . S
C342 C343 1.382 . S
C342 C344 1.403 . S
C343 H322 0.950 . S
C343 C342 1.382 . S
C343 C359 1.411 . S
C344 C342 1.403 . S
C344 C345 1.489 . S
C344 C358 1.411 . S
C345 C344 1.489 . S
C345 C346 1.383 . S
C345 C350 1.382 . S
C346 H323 0.950 . S
C346 C345 1.383 . S
C346 C347 1.395 . S
C347 H324 0.950 . S
C347 C346 1.395 . S
C347 C348 1.288 . S
C348 C347 1.288 . S
C348 C349 1.392 . S
C349 H325 0.951 . S
C349 C348 1.392 . S
C349 C350 1.392 . S
C350 H326 0.949 . S
C350 C345 1.382 . S
C350 C349 1.392 . S
C351 C352 1.376 . S
C351 C356 1.386 . S
C351 C357 1.483 . S
C352 H327 0.949 . S
C352 C351 1.376 . S
C352 C353 1.397 . S
C353 H328 0.950 . S
C353 C352 1.397 . S
C353 C354 1.391 . S
C354 C353 1.391 . S
C354 C355 1.405 . S
C355 H329 0.950 . S
C355 C354 1.405 . S
C355 C356 1.367 . S
C356 H330 0.950 . S
C356 C351 1.386 . S
C356 C355 1.367 . S
C357 C351 1.483 . S
C357 C358 1.382 . S
C357 C359 1.403 . S
C358 H331 0.950 . S
C358 C344 1.411 . S
C358 C357 1.382 . S
C359 C343 1.411 . S
C359 C357 1.403 . S
C359 C360 1.489 . S
C360 C359 1.489 . S
C360 C361 1.383 . S
C360 C365 1.382 . S
C361 H332 0.950 . S
C361 C360 1.383 . S
C361 C362 1.395 . S
C362 H333 0.950 . S
C362 C361 1.395 . S
C362 C363 1.288 . S
C363 C362 1.288 . S
C363 C364 1.392 . S
C364 H334 0.951 . S
C364 C363 1.392 . S
C364 C365 1.392 . S
C365 H335 0.949 . S
C365 C360 1.382 . S
C365 C364 1.392 . S
H366 C385 0.949 . S
H367 C386 0.950 . S
H368 C388 0.950 . S
H369 C389 0.950 . S
H370 C391 0.950 . S
H371 C394 0.950 . S
H372 C395 0.950 . S
H373 C397 0.951 . S
H374 C398 0.949 . S
H375 C400 0.949 . S
H376 C401 0.950 . S
H377 C403 0.950 . S
H378 C404 0.950 . S
H379 C406 0.950 . S
H380 C409 0.950 . S
H381 C410 0.950 . S
H382 C412 0.951 . S
H383 C413 0.949 . S
C384 C385 1.376 . S
C384 C389 1.386 . S
C384 C390 1.483 . S
C385 H366 0.949 . S
C385 C384 1.376 . S
C385 C386 1.397 . S
C386 H367 0.950 . S
C386 C385 1.397 . S
C386 C387 1.391 . S
C387 C386 1.391 . S
C387 C388 1.405 . S
C388 H368 0.950 . S
C388 C387 1.405 . S
C388 C389 1.367 . S
C389 H369 0.950 . S
C389 C384 1.386 . S
C389 C388 1.367 . S
C390 C384 1.483 . S
C390 C391 1.382 . S
C390 C392 1.403 . S
C391 H370 0.950 . S
C391 C390 1.382 . S
C391 C407 1.411 . S
C392 C390 1.403 . S
C392 C393 1.489 . S
C392 C406 1.411 . S
C393 C392 1.489 . S
C393 C394 1.383 . S
C393 C398 1.382 . S
C394 H371 0.950 . S
C394 C393 1.383 . S
C394 C395 1.395 . S
C395 H372 0.950 . S
C395 C394 1.395 . S
C395 C396 1.288 . S
C396 C395 1.288 . S
C396 C397 1.392 . S
C397 H373 0.951 . S
C397 C396 1.392 . S
C397 C398 1.392 . S
C398 H374 0.949 . S
C398 C393 1.382 . S
C398 C397 1.392 . S
C399 C400 1.376 . S
C399 C404 1.386 . S
C399 C405 1.483 . S
C400 H375 0.949 . S
C400 C399 1.376 . S
C400 C401 1.397 . S
C401 H376 0.950 . S
C401 C400 1.397 . S
C401 C402 1.391 . S
C402 C401 1.391 . S
C402 C403 1.405 . S
C403 H377 0.950 . S
C403 C402 1.405 . S
C403 C404 1.367 . S
C404 H378 0.950 . S
C404 C399 1.386 . S
C404 C403 1.367 . S
C405 C399 1.483 . S
C405 C406 1.382 . S
C405 C407 1.403 . S
C406 H379 0.950 . S
C406 C392 1.411 . S
C406 C405 1.382 . S
C407 C391 1.411 . S
C407 C405 1.403 . S
C407 C408 1.489 . S
C408 C407 1.489 . S
C408 C409 1.383 . S
C408 C413 1.382 . S
C409 H380 0.950 . S
C409 C408 1.383 . S
C409 C410 1.395 . S
C410 H381 0.950 . S
C410 C409 1.395 . S
C410 C411 1.288 . S
C411 C410 1.288 . S
C411 C412 1.392 . S
C412 H382 0.951 . S
C412 C411 1.392 . S
C412 C413 1.392 . S
C413 H383 0.949 . S
C413 C408 1.382 . S
C413 C412 1.392 . S
H414 C433 0.949 . S
H415 C434 0.950 . S
H416 C436 0.950 . S
H417 C437 0.950 . S
H418 C439 0.950 . S
H419 C442 0.950 . S
H420 C443 0.950 . S
H421 C445 0.951 . S
H422 C446 0.949 . S
H423 C448 0.949 . S
H424 C449 0.950 . S
H425 C451 0.950 . S
H426 C452 0.950 . S
H427 C454 0.950 . S
H428 C457 0.950 . S
H429 C458 0.950 . S
H430 C460 0.951 . S
H431 C461 0.949 . S
C432 C433 1.376 . S
C432 C437 1.386 . S
C432 C438 1.483 . S
C433 H414 0.949 . S
C433 C432 1.376 . S
C433 C434 1.397 . S
C434 H415 0.950 . S
C434 C433 1.397 . S
C434 C435 1.391 . S
C435 C434 1.391 . S
C435 C436 1.405 . S
C436 H416 0.950 . S
C436 C435 1.405 . S
C436 C437 1.367 . S
C437 H417 0.950 . S
C437 C432 1.386 . S
C437 C436 1.367 . S
C438 C432 1.483 . S
C438 C439 1.382 . S
C438 C440 1.403 . S
C439 H418 0.950 . S
C439 C438 1.382 . S
C439 C455 1.411 . S
C440 C438 1.403 . S
C440 C441 1.489 . S
C440 C454 1.411 . S
C441 C440 1.489 . S
C441 C442 1.383 . S
C441 C446 1.382 . S
C442 H419 0.950 . S
C442 C441 1.383 . S
C442 C443 1.395 . S
C443 H420 0.950 . S
C443 C442 1.395 . S
C443 C444 1.288 . S
C444 C443 1.288 . S
C444 C445 1.392 . S
C445 H421 0.951 . S
C445 C444 1.392 . S
C445 C446 1.392 . S
C446 H422 0.949 . S
C446 C441 1.382 . S
C446 C445 1.392 . S
C447 C448 1.376 . S
C447 C452 1.386 . S
C447 C453 1.483 . S
C448 H423 0.949 . S
C448 C447 1.376 . S
C448 C449 1.397 . S
C449 H424 0.950 . S
C449 C448 1.397 . S
C449 C450 1.391 . S
C450 C449 1.391 . S
C450 C451 1.405 . S
C451 H425 0.950 . S
C451 C450 1.405 . S
C451 C452 1.367 . S
C452 H426 0.950 . S
C452 C447 1.386 . S
C452 C451 1.367 . S
C453 C447 1.483 . S
C453 C454 1.382 . S
C453 C455 1.403 . S
C454 H427 0.950 . S
C454 C440 1.411 . S
C454 C453 1.382 . S
C455 C439 1.411 . S
C455 C453 1.403 . S
C455 C456 1.489 . S
C456 C455 1.489 . S
C456 C457 1.383 . S
C456 C461 1.382 . S
C457 H428 0.950 . S
C457 C456 1.383 . S
C457 C458 1.395 . S
C458 H429 0.950 . S
C458 C457 1.395 . S
C458 C459 1.288 . S
C459 C458 1.288 . S
C459 C460 1.392 . S
C460 H430 0.951 . S
C460 C459 1.392 . S
C460 C461 1.392 . S
C461 H431 0.949 . S
C461 C456 1.382 . S
C461 C460 1.392 . S
H462 C481 0.949 . S
H463 C482 0.950 . S
H464 C484 0.950 . S
H465 C485 0.950 . S
H466 C487 0.950 . S
H467 C490 0.950 . S
H468 C491 0.950 . S
H469 C493 0.951 . S
H470 C494 0.949 . S
H471 C496 0.949 . S
H472 C497 0.950 . S
H473 C499 0.950 . S
H474 C500 0.950 . S
H475 C502 0.950 . S
H476 C505 0.950 . S
H477 C506 0.950 . S
H478 C508 0.951 . S
H479 C509 0.949 . S
C480 C481 1.376 . S
C480 C485 1.386 . S
C480 C486 1.483 . S
C481 H462 0.949 . S
C481 C480 1.376 . S
C481 C482 1.397 . S
C482 H463 0.950 . S
C482 C481 1.397 . S
C482 C483 1.391 . S
C483 C482 1.391 . S
C483 C484 1.405 . S
C484 H464 0.950 . S
C484 C483 1.405 . S
C484 C485 1.367 . S
C485 H465 0.950 . S
C485 C480 1.386 . S
C485 C484 1.367 . S
C486 C480 1.483 . S
C486 C487 1.382 . S
C486 C488 1.403 . S
C487 H466 0.950 . S
C487 C486 1.382 . S
C487 C503 1.411 . S
C488 C486 1.403 . S
C488 C489 1.489 . S
C488 C502 1.411 . S
C489 C488 1.489 . S
C489 C490 1.383 . S
C489 C494 1.382 . S
C490 H467 0.950 . S
C490 C489 1.383 . S
C490 C491 1.395 . S
C491 H468 0.950 . S
C491 C490 1.395 . S
C491 C492 1.288 . S
C492 C491 1.288 . S
C492 C493 1.392 . S
C493 H469 0.951 . S
C493 C492 1.392 . S
C493 C494 1.392 . S
C494 H470 0.949 . S
C494 C489 1.382 . S
C494 C493 1.392 . S
C495 C496 1.376 . S
C495 C500 1.386 . S
C495 C501 1.483 . S
C496 H471 0.949 . S
C496 C495 1.376 . S
C496 C497 1.397 . S
C497 H472 0.950 . S
C497 C496 1.397 . S
C497 C498 1.391 . S
C498 C497 1.391 . S
C498 C499 1.405 . S
C499 H473 0.950 . S
C499 C498 1.405 . S
C499 C500 1.367 . S
C500 H474 0.950 . S
C500 C495 1.386 . S
C500 C499 1.367 . S
C501 C495 1.483 . S
C501 C502 1.382 . S
C501 C503 1.403 . S
C502 H475 0.950 . S
C502 C488 1.411 . S
C502 C501 1.382 . S
C503 C487 1.411 . S
C503 C501 1.403 . S
C503 C504 1.489 . S
C504 C503 1.489 . S
C504 C505 1.383 . S
C504 C509 1.382 . S
C505 H476 0.950 . S
C505 C504 1.383 . S
C505 C506 1.395 . S
C506 H477 0.950 . S
C506 C505 1.395 . S
C506 C507 1.288 . S
C507 C506 1.288 . S
C507 C508 1.392 . S
C508 H478 0.951 . S
C508 C507 1.392 . S
C508 C509 1.392 . S
C509 H479 0.949 . S
C509 C504 1.382 . S
C509 C508 1.392 . S
H510 C529 0.949 . S
H511 C530 0.950 . S
H512 C532 0.950 . S
H513 C533 0.950 . S
H514 C535 0.950 . S
H515 C538 0.950 . S
H516 C539 0.950 . S
H517 C541 0.951 . S
H518 C542 0.949 . S
H519 C544 0.949 . S
H520 C545 0.950 . S
H521 C547 0.950 . S
H522 C548 0.950 . S
H523 C550 0.950 . S
H524 C553 0.950 . S
H525 C554 0.950 . S
H526 C556 0.951 . S
H527 C557 0.949 . S
C528 C529 1.376 . S
C528 C533 1.386 . S
C528 C534 1.483 . S
C529 H510 0.949 . S
C529 C528 1.376 . S
C529 C530 1.397 . S
C530 H511 0.950 . S
C530 C529 1.397 . S
C530 C531 1.391 . S
C531 C530 1.391 . S
C531 C532 1.405 . S
C532 H512 0.950 . S
C532 C531 1.405 . S
C532 C533 1.367 . S
C533 H513 0.950 . S
C533 C528 1.386 . S
C533 C532 1.367 . S
C534 C528 1.483 . S
C534 C535 1.382 . S
C534 C536 1.403 . S
C535 H514 0.950 . S
C535 C534 1.382 . S
C535 C551 1.411 . S
C536 C534 1.403 . S
C536 C537 1.489 . S
C536 C550 1.411 . S
C537 C536 1.489 . S
C537 C538 1.383 . S
C537 C542 1.382 . S
C538 H515 0.950 . S
C538 C537 1.383 . S
C538 C539 1.395 . S
C539 H516 0.950 . S
C539 C538 1.395 . S
C539 C540 1.288 . S
C540 C539 1.288 . S
C540 C541 1.392 . S
C541 H517 0.951 . S
C541 C540 1.392 . S
C541 C542 1.392 . S
C542 H518 0.949 . S
C542 C537 1.382 . S
C542 C541 1.392 . S
C543 C544 1.376 . S
C543 C548 1.386 . S
C543 C549 1.483 . S
C544 H519 0.949 . S
C544 C543 1.376 . S
C544 C545 1.397 . S
C545 H520 0.950 . S
C545 C544 1.397 . S
C545 C546 1.391 . S
C546 C545 1.391 . S
C546 C547 1.405 . S
C547 H521 0.950 . S
C547 C546 1.405 . S
C547 C548 1.367 . S
C548 H522 0.950 . S
C548 C543 1.386 . S
C548 C547 1.367 . S
C549 C543 1.483 . S
C549 C550 1.382 . S
C549 C551 1.403 . S
C550 H523 0.950 . S
C550 C536 1.411 . S
C550 C549 1.382 . S
C551 C535 1.411 . S
C551 C549 1.403 . S
C551 C552 1.489 . S
C552 C551 1.489 . S
C552 C553 1.383 . S
C552 C557 1.382 . S
C553 H524 0.950 . S
C553 C552 1.383 . S
C553 C554 1.395 . S
C554 H525 0.950 . S
C554 C553 1.395 . S
C554 C555 1.288 . S
C555 C554 1.288 . S
C555 C556 1.392 . S
C556 H526 0.951 . S
C556 C555 1.392 . S
C556 C557 1.392 . S
C557 H527 0.949 . S
C557 C552 1.382 . S
C557 C556 1.392 . S
H558 C577 0.949 . S
H559 C578 0.950 . S
H560 C580 0.950 . S
H561 C581 0.950 . S
H562 C583 0.950 . S
H563 C586 0.950 . S
H564 C587 0.950 . S
H565 C589 0.951 . S
H566 C590 0.949 . S
H567 C592 0.949 . S
H568 C593 0.950 . S
H569 C595 0.950 . S
H570 C596 0.950 . S
H571 C598 0.950 . S
H572 C601 0.950 . S
H573 C602 0.950 . S
H574 C604 0.951 . S
H575 C605 0.949 . S
C576 C577 1.376 . S
C576 C581 1.386 . S
C576 C582 1.483 . S
C577 H558 0.949 . S
C577 C576 1.376 . S
C577 C578 1.397 . S
C578 H559 0.950 . S
C578 C577 1.397 . S
C578 C579 1.391 . S
C579 C578 1.391 . S
C579 C580 1.405 . S
C580 H560 0.950 . S
C580 C579 1.405 . S
C580 C581 1.367 . S
C581 H561 0.950 . S
C581 C576 1.386 . S
C581 C580 1.367 . S
C582 C576 1.483 . S
C582 C583 1.382 . S
C582 C584 1.403 . S
C583 H562 0.950 . S
C583 C582 1.382 . S
C583 C599 1.411 . S
C584 C582 1.403 . S
C584 C585 1.489 . S
C584 C598 1.411 . S
C585 C584 1.489 . S
C585 C586 1.383 . S
C585 C590 1.382 . S
C586 H563 0.950 . S
C586 C585 1.383 . S
C586 C587 1.395 . S
C587 H564 0.950 . S
C587 C586 1.395 . S
C587 C588 1.288 . S
C588 C587 1.288 . S
C588 C589 1.392 . S
C589 H565 0.951 . S
C589 C588 1.392 . S
C589 C590 1.392 . S
C590 H566 0.949 . S
C590 C585 1.382 . S
C590 C589 1.392 . S
C591 C592 1.376 . S
C591 C596 1.386 . S
C591 C597 1.483 . S
C592 H567 0.949 . S
C592 C591 1.376 . S
C592 C593 1.397 . S
C593 H568 0.950 . S
C593 C592 1.397 . S
C593 C594 1.391 . S
C594 C593 1.391 . S
C594 C595 1.405 . S
C595 H569 0.950 . S
C595 C594 1.405 . S
C595 C596 1.367 . S
C596 H570 0.950 . S
C596 C591 1.386 . S
C596 C595 1.367 . S
C597 C591 1.483 . S
C597 C598 1.382 . S
C597 C599 1.403 . S
C598 H571 0.950 . S
C598 C584 1.411 . S
C598 C597 1.382 . S
C599 C583 1.411 . S
C599 C597 1.403 . S
C599 C600 1.489 . S
C600 C599 1.489 . S
C600 C601 1.383 . S
C600 C605 1.382 . S
C601 H572 0.950 . S
C601 C600 1.383 . S
C601 C602 1.395 . S
C602 H573 0.950 . S
C602 C601 1.395 . S
C602 C603 1.288 . S
C603 C602 1.288 . S
C603 C604 1.392 . S
C604 H574 0.951 . S
C604 C603 1.392 . S
C604 C605 1.392 . S
C605 H575 0.949 . S
C605 C600 1.382 . S
C605 C604 1.392 . S
C606 C607 1.363 . S
C606 C612 1.379 . S
C606 N614 1.356 . S
C607 C606 1.363 . S
C607 C613 1.363 . S
C608 C609 1.363 . S
C608 C613 1.379 . S
C608 N615 1.356 . S
C609 C608 1.363 . S
C609 C612 1.363 . S
N610 C612 1.356 . S
N610 H622 0.984 . S
N610 H623 0.985 . S
N611 C613 1.356 . S
N611 H616 0.984 . S
N611 H617 0.985 . S
C612 C606 1.379 . S
C612 C609 1.363 . S
C612 N610 1.356 . S
C613 C607 1.363 . S
C613 C608 1.379 . S
C613 N611 1.356 . S
N614 C606 1.356 . S
N614 H620 0.984 . S
N614 H621 0.984 . S
N615 C608 1.356 . S
N615 H618 0.984 . S
N615 H619 0.985 . S
H616 N611 0.984 . S
H617 N611 0.985 . S
H618 N615 0.984 . S
H619 N615 0.985 . S
H620 N614 0.984 . S
H621 N614 0.984 . S
H622 N610 0.984 . S
H623 N610 0.985 . S
C624 C625 1.363 . S
C624 C630 1.379 . S
C624 N632 1.356 . S
C625 C624 1.363 . S
C625 C631 1.363 . S
C626 C627 1.363 . S
C626 C631 1.379 . S
C626 N633 1.356 . S
C627 C626 1.363 . S
C627 C630 1.363 . S
N628 C630 1.356 . S
N628 H640 0.984 . S
N628 H641 0.985 . S
N629 C631 1.356 . S
N629 H634 0.984 . S
N629 H635 0.985 . S
C630 C624 1.379 . S
C630 C627 1.363 . S
C630 N628 1.356 . S
C631 C625 1.363 . S
C631 C626 1.379 . S
C631 N629 1.356 . S
N632 C624 1.356 . S
N632 H638 0.984 . S
N632 H639 0.984 . S
N633 C626 1.356 . S
N633 H636 0.984 . S
N633 H637 0.985 . S
H634 N629 0.984 . S
H635 N629 0.985 . S
H636 N633 0.984 . S
H637 N633 0.985 . S
H638 N632 0.984 . S
H639 N632 0.984 . S
H640 N628 0.984 . S
H641 N628 0.985 . S
C642 C643 1.363 . S
C642 C648 1.379 . S
C642 N650 1.356 . S
C643 C642 1.363 . S
C643 C649 1.363 . S
C644 C645 1.363 . S
C644 C649 1.379 . S
C644 N651 1.356 . S
C645 C644 1.363 . S
C645 C648 1.363 . S
N646 C648 1.356 . S
N646 H658 0.984 . S
N646 H659 0.985 . S
N647 C649 1.356 . S
N647 H652 0.984 . S
N647 H653 0.985 . S
C648 C642 1.379 . S
C648 C645 1.363 . S
C648 N646 1.356 . S
C649 C643 1.363 . S
C649 C644 1.379 . S
C649 N647 1.356 . S
N650 C642 1.356 . S
N650 H656 0.984 . S
N650 H657 0.984 . S
N651 C644 1.356 . S
N651 H654 0.984 . S
N651 H655 0.985 . S
H652 N647 0.984 . S
H653 N647 0.985 . S
H654 N651 0.984 . S
H655 N651 0.985 . S
H656 N650 0.984 . S
H657 N650 0.984 . S
H658 N646 0.984 . S
H659 N646 0.985 . S
C660 C661 1.363 . S
C660 C666 1.379 . S
C660 N668 1.356 . S
C661 C660 1.363 . S
C661 C667 1.363 . S
C662 C663 1.363 . S
C662 C667 1.379 . S
C662 N669 1.356 . S
C663 C662 1.363 . S
C663 C666 1.363 . S
N664 C666 1.356 . S
N664 H676 0.984 . S
N664 H677 0.985 . S
N665 C667 1.356 . S
N665 H670 0.984 . S
N665 H671 0.985 . S
C666 C660 1.379 . S
C666 C663 1.363 . S
C666 N664 1.356 . S
C667 C661 1.363 . S
C667 C662 1.379 . S
C667 N665 1.356 . S
N668 C660 1.356 . S
N668 H674 0.984 . S
N668 H675 0.984 . S
N669 C662 1.356 . S
N669 H672 0.984 . S
N669 H673 0.985 . S
H670 N665 0.984 . S
H671 N665 0.985 . S
H672 N669 0.984 . S
H673 N669 0.985 . S
H674 N668 0.984 . S
H675 N668 0.984 . S
H676 N664 0.984 . S
H677 N664 0.985 . S
C678 C679 1.363 . S
C678 C684 1.379 . S
C678 N686 1.356 . S
C679 C678 1.363 . S
C679 C685 1.363 . S
C680 C681 1.363 . S
C680 C685 1.379 . S
C680 N687 1.356 . S
C681 C680 1.363 . S
C681 C684 1.363 . S
N682 C684 1.356 . S
N682 H694 0.984 . S
N682 H695 0.985 . S
N683 C685 1.356 . S
N683 H688 0.984 . S
N683 H689 0.985 . S
C684 C678 1.379 . S
C684 C681 1.363 . S
C684 N682 1.356 . S
C685 C679 1.363 . S
C685 C680 1.379 . S
C685 N683 1.356 . S
N686 C678 1.356 . S
N686 H692 0.984 . S
N686 H693 0.984 . S
N687 C680 1.356 . S
N687 H690 0.984 . S
N687 H691 0.985 . S
H688 N683 0.984 . S
H689 N683 0.985 . S
H690 N687 0.984 . S
H691 N687 0.985 . S
H692 N686 0.984 . S
H693 N686 0.984 . S
H694 N682 0.984 . S
H695 N682 0.985 . S
C696 C697 1.363 . S
C696 C702 1.379 . S
C696 N704 1.356 . S
C697 C696 1.363 . S
C697 C703 1.363 . S
C698 C699 1.363 . S
C698 C703 1.379 . S
C698 N705 1.356 . S
C699 C698 1.363 . S
C699 C702 1.363 . S
N700 C702 1.356 . S
N700 H712 0.984 . S
N700 H713 0.985 . S
N701 C703 1.356 . S
N701 H706 0.984 . S
N701 H707 0.985 . S
C702 C696 1.379 . S
C702 C699 1.363 . S
C702 N700 1.356 . S
C703 C697 1.363 . S
C703 C698 1.379 . S
C703 N701 1.356 . S
N704 C696 1.356 . S
N704 H710 0.984 . S
N704 H711 0.984 . S
N705 C698 1.356 . S
N705 H708 0.984 . S
N705 H709 0.985 . S
H706 N701 0.984 . S
H707 N701 0.985 . S
H708 N705 0.984 . S
H709 N705 0.985 . S
H710 N704 0.984 . S
H711 N704 0.984 . S
H712 N700 0.984 . S
H713 N700 0.985 . S
C714 C715 1.363 . S
C714 C720 1.379 . S
C714 N722 1.356 . S
C715 C714 1.363 . S
C715 C721 1.363 . S
C716 C717 1.363 . S
C716 C721 1.379 . S
C716 N723 1.356 . S
C717 C716 1.363 . S
C717 C720 1.363 . S
N718 C720 1.356 . S
N718 H730 0.984 . S
N718 H731 0.985 . S
N719 C721 1.356 . S
N719 H724 0.984 . S
N719 H725 0.985 . S
C720 C714 1.379 . S
C720 C717 1.363 . S
C720 N718 1.356 . S
C721 C715 1.363 . S
C721 C716 1.379 . S
C721 N719 1.356 . S
N722 C714 1.356 . S
N722 H728 0.984 . S
N722 H729 0.984 . S
N723 C716 1.356 . S
N723 H726 0.984 . S
N723 H727 0.985 . S
H724 N719 0.984 . S
H725 N719 0.985 . S
H726 N723 0.984 . S
H727 N723 0.985 . S
H728 N722 0.984 . S
H729 N722 0.984 . S
H730 N718 0.984 . S
H731 N718 0.985 . S
C732 C733 1.363 . S
C732 C738 1.379 . S
C732 N740 1.356 . S
C733 C732 1.363 . S
C733 C739 1.363 . S
C734 C735 1.363 . S
C734 C739 1.379 . S
C734 N741 1.356 . S
C735 C734 1.363 . S
C735 C738 1.363 . S
N736 C738 1.356 . S
N736 H748 0.984 . S
N736 H749 0.985 . S
N737 C739 1.356 . S
N737 H742 0.984 . S
N737 H743 0.985 . S
C738 C732 1.379 . S
C738 C735 1.363 . S
C738 N736 1.356 . S
C739 C733 1.363 . S
C739 C734 1.379 . S
C739 N737 1.356 . S
N740 C732 1.356 . S
N740 H746 0.984 . S
N740 H747 0.984 . S
N741 C734 1.356 . S
N741 H744 0.984 . S
N741 H745 0.985 . S
H742 N737 0.984 . S
H743 N737 0.985 . S
H744 N741 0.984 . S
H745 N741 0.985 . S
H746 N740 0.984 . S
H747 N740 0.984 . S
H748 N736 0.984 . S
H749 N736 0.985 . S
C750 C751 1.363 . S
C750 C756 1.379 . S
C750 N758 1.356 . S
C751 C750 1.363 . S
C751 C757 1.363 . S
C752 C753 1.363 . S
C752 C757 1.379 . S
C752 N759 1.356 . S
C753 C752 1.363 . S
C753 C756 1.363 . S
N754 C756 1.356 . S
N754 H766 0.984 . S
N754 H767 0.985 . S
N755 C757 1.356 . S
N755 H760 0.984 . S
N755 H761 0.985 . S
C756 C750 1.379 . S
C756 C753 1.363 . S
C756 N754 1.356 . S
C757 C751 1.363 . S
C757 C752 1.379 . S
C757 N755 1.356 . S
N758 C750 1.356 . S
N758 H764 0.984 . S
N758 H765 0.984 . S
N759 C752 1.356 . S
N759 H762 0.984 . S
N759 H763 0.985 . S
H760 N755 0.984 . S
H761 N755 0.985 . S
H762 N759 0.984 . S
H763 N759 0.985 . S
H764 N758 0.984 . S
H765 N758 0.984 . S
H766 N754 0.984 . S
H767 N754 0.985 . S
C768 C769 1.363 . S
C768 C774 1.379 . S
C768 N776 1.356 . S
C769 C768 1.363 . S
C769 C775 1.363 . S
C770 C771 1.363 . S
C770 C775 1.379 . S
C770 N777 1.356 . S
C771 C770 1.363 . S
C771 C774 1.363 . S
N772 C774 1.356 . S
N772 H784 0.984 . S
N772 H785 0.985 . S
N773 C775 1.356 . S
N773 H778 0.984 . S
N773 H779 0.985 . S
C774 C768 1.379 . S
C774 C771 1.363 . S
C774 N772 1.356 . S
C775 C769 1.363 . S
C775 C770 1.379 . S
C775 N773 1.356 . S
N776 C768 1.356 . S
N776 H782 0.984 . S
N776 H783 0.984 . S
N777 C770 1.356 . S
N777 H780 0.984 . S
N777 H781 0.985 . S
H778 N773 0.984 . S
H779 N773 0.985 . S
H780 N777 0.984 . S
H781 N777 0.985 . S
H782 N776 0.984 . S
H783 N776 0.984 . S
H784 N772 0.984 . S
H785 N772 0.985 . S
C786 C787 1.363 . S
C786 C792 1.379 . S
C786 N794 1.356 . S
C787 C786 1.363 . S
C787 C793 1.363 . S
C788 C789 1.363 . S
C788 C793 1.379 . S
C788 N795 1.356 . S
C789 C788 1.363 . S
C789 C792 1.363 . S
N790 C792 1.356 . S
N790 H802 0.984 . S
N790 H803 0.985 . S
N791 C793 1.356 . S
N791 H796 0.984 . S
N791 H797 0.985 . S
C792 C786 1.379 . S
C792 C789 1.363 . S
C792 N790 1.356 . S
C793 C787 1.363 . S
C793 C788 1.379 . S
C793 N791 1.356 . S
N794 C786 1.356 . S
N794 H800 0.984 . S
N794 H801 0.984 . S
N795 C788 1.356 . S
N795 H798 0.984 . S
N795 H799 0.985 . S
H796 N791 0.984 . S
H797 N791 0.985 . S
H798 N795 0.984 . S
H799 N795 0.985 . S
H800 N794 0.984 . S
H801 N794 0.984 . S
H802 N790 0.984 . S
H803 N790 0.985 . S
C804 C805 1.363 . S
C804 C810 1.379 . S
C804 N812 1.356 . S
C805 C804 1.363 . S
C805 C811 1.363 . S
C806 C807 1.363 . S
C806 C811 1.379 . S
C806 N813 1.356 . S
C807 C806 1.363 . S
C807 C810 1.363 . S
N808 C810 1.356 . S
N808 H820 0.984 . S
N808 H821 0.985 . S
N809 C811 1.356 . S
N809 H814 0.984 . S
N809 H815 0.985 . S
C810 C804 1.379 . S
C810 C807 1.363 . S
C810 N808 1.356 . S
C811 C805 1.363 . S
C811 C806 1.379 . S
C811 N809 1.356 . S
N812 C804 1.356 . S
N812 H818 0.984 . S
N812 H819 0.984 . S
N813 C806 1.356 . S
N813 H816 0.984 . S
N813 H817 0.985 . S
H814 N809 0.984 . S
H815 N809 0.985 . S
H816 N813 0.984 . S
H817 N813 0.985 . S
H818 N812 0.984 . S
H819 N812 0.984 . S
H820 N808 0.984 . S
H821 N808 0.985 . S
C822 C823 1.363 . S
C822 C828 1.379 . S
C822 N830 1.356 . S
C823 C822 1.363 . S
C823 C829 1.363 . S
C824 C825 1.363 . S
C824 C829 1.379 . S
C824 N831 1.356 . S
C825 C824 1.363 . S
C825 C828 1.363 . S
N826 C828 1.356 . S
N826 H838 0.984 . S
N826 H839 0.985 . S
N827 C829 1.356 . S
N827 H832 0.984 . S
N827 H833 0.985 . S
C828 C822 1.379 . S
C828 C825 1.363 . S
C828 N826 1.356 . S
C829 C823 1.363 . S
C829 C824 1.379 . S
C829 N827 1.356 . S
N830 C822 1.356 . S
N830 H836 0.984 . S
N830 H837 0.984 . S
N831 C824 1.356 . S
N831 H834 0.984 . S
N831 H835 0.985 . S
H832 N827 0.984 . S
H833 N827 0.985 . S
H834 N831 0.984 . S
H835 N831 0.985 . S
H836 N830 0.984 . S
H837 N830 0.984 . S
H838 N826 0.984 . S
H839 N826 0.985 . S
C840 C841 1.363 . S
C840 C846 1.379 . S
C840 N848 1.356 . S
C841 C840 1.363 . S
C841 C847 1.363 . S
C842 C843 1.363 . S
C842 C847 1.379 . S
C842 N849 1.356 . S
C843 C842 1.363 . S
C843 C846 1.363 . S
N844 C846 1.356 . S
N844 H856 0.984 . S
N844 H857 0.985 . S
N845 C847 1.356 . S
N845 H850 0.984 . S
N845 H851 0.985 . S
C846 C840 1.379 . S
C846 C843 1.363 . S
C846 N844 1.356 . S
C847 C841 1.363 . S
C847 C842 1.379 . S
C847 N845 1.356 . S
N848 C840 1.356 . S
N848 H854 0.984 . S
N848 H855 0.984 . S
N849 C842 1.356 . S
N849 H852 0.984 . S
N849 H853 0.985 . S
H850 N845 0.984 . S
H851 N845 0.985 . S
H852 N849 0.984 . S
H853 N849 0.985 . S
H854 N848 0.984 . S
H855 N848 0.984 . S
H856 N844 0.984 . S
H857 N844 0.985 . S
C858 C859 1.363 . S
C858 C864 1.379 . S
C858 N866 1.356 . S
C859 C858 1.363 . S
C859 C865 1.363 . S
C860 C861 1.363 . S
C860 C865 1.379 . S
C860 N867 1.356 . S
C861 C860 1.363 . S
C861 C864 1.363 . S
N862 C864 1.356 . S
N862 H874 0.984 . S
N862 H875 0.985 . S
N863 C865 1.356 . S
N863 H868 0.984 . S
N863 H869 0.985 . S
C864 C858 1.379 . S
C864 C861 1.363 . S
C864 N862 1.356 . S
C865 C859 1.363 . S
C865 C860 1.379 . S
C865 N863 1.356 . S
N866 C858 1.356 . S
N866 H872 0.984 . S
N866 H873 0.984 . S
N867 C860 1.356 . S
N867 H870 0.984 . S
N867 H871 0.985 . S
H868 N863 0.984 . S
H869 N863 0.985 . S
H870 N867 0.984 . S
H871 N867 0.985 . S
H872 N866 0.984 . S
H873 N866 0.984 . S
H874 N862 0.984 . S
H875 N862 0.985 . S
C876 C877 1.363 . S
C876 C882 1.379 . S
C876 N884 1.356 . S
C877 C876 1.363 . S
C877 C883 1.363 . S
C878 C879 1.363 . S
C878 C883 1.379 . S
C878 N885 1.356 . S
C879 C878 1.363 . S
C879 C882 1.363 . S
N880 C882 1.356 . S
N880 H892 0.984 . S
N880 H893 0.985 . S
N881 C883 1.356 . S
N881 H886 0.984 . S
N881 H887 0.985 . S
C882 C876 1.379 . S
C882 C879 1.363 . S
C882 N880 1.356 . S
C883 C877 1.363 . S
C883 C878 1.379 . S
C883 N881 1.356 . S
N884 C876 1.356 . S
N884 H890 0.984 . S
N884 H891 0.984 . S
N885 C878 1.356 . S
N885 H888 0.984 . S
N885 H889 0.985 . S
H886 N881 0.984 . S
H887 N881 0.985 . S
H888 N885 0.984 . S
H889 N885 0.985 . S
H890 N884 0.984 . S
H891 N884 0.984 . S
H892 N880 0.984 . S
H893 N880 0.985 . S
C894 C895 1.363 . S
C894 C900 1.379 . S
C894 N902 1.356 . S
C895 C894 1.363 . S
C895 C901 1.363 . S
C896 C897 1.363 . S
C896 C901 1.379 . S
C896 N903 1.356 . S
C897 C896 1.363 . S
C897 C900 1.363 . S
N898 C900 1.356 . S
N898 H910 0.984 . S
N898 H911 0.985 . S
N899 C901 1.356 . S
N899 H904 0.984 . S
N899 H905 0.985 . S
C900 C894 1.379 . S
C900 C897 1.363 . S
C900 N898 1.356 . S
C901 C895 1.363 . S
C901 C896 1.379 . S
C901 N899 1.356 . S
N902 C894 1.356 . S
N902 H908 0.984 . S
N902 H909 0.984 . S
N903 C896 1.356 . S
N903 H906 0.984 . S
N903 H907 0.985 . S
H904 N899 0.984 . S
H905 N899 0.985 . S
H906 N903 0.984 . S
H907 N903 0.985 . S
H908 N902 0.984 . S
H909 N902 0.984 . S
H910 N898 0.984 . S
H911 N898 0.985 . S
C912 C913 1.363 . S
C912 C918 1.379 . S
C912 N920 1.356 . S
C913 C912 1.363 . S
C913 C919 1.363 . S
C914 C915 1.363 . S
C914 C919 1.379 . S
C914 N921 1.356 . S
C915 C914 1.363 . S
C915 C918 1.363 . S
N916 C918 1.356 . S
N916 H928 0.984 . S
N916 H929 0.985 . S
N917 C919 1.356 . S
N917 H922 0.984 . S
N917 H923 0.985 . S
C918 C912 1.379 . S
C918 C915 1.363 . S
C918 N916 1.356 . S
C919 C913 1.363 . S
C919 C914 1.379 . S
C919 N917 1.356 . S
N920 C912 1.356 . S
N920 H926 0.984 . S
N920 H927 0.984 . S
N921 C914 1.356 . S
N921 H924 0.984 . S
N921 H925 0.985 . S
H922 N917 0.984 . S
H923 N917 0.985 . S
H924 N921 0.984 . S
H925 N921 0.985 . S
H926 N920 0.984 . S
H927 N920 0.984 . S
H928 N916 0.984 . S
H929 N916 0.985 . S
C930 C931 1.363 . S
C930 C936 1.379 . S
C930 N938 1.356 . S
C931 C930 1.363 . S
C931 C937 1.363 . S
C932 C933 1.363 . S
C932 C937 1.379 . S
C932 N939 1.356 . S
C933 C932 1.363 . S
C933 C936 1.363 . S
N934 C936 1.356 . S
N934 H946 0.984 . S
N934 H947 0.985 . S
N935 C937 1.356 . S
N935 H940 0.984 . S
N935 H941 0.985 . S
C936 C930 1.379 . S
C936 C933 1.363 . S
C936 N934 1.356 . S
C937 C931 1.363 . S
C937 C932 1.379 . S
C937 N935 1.356 . S
N938 C930 1.356 . S
N938 H944 0.984 . S
N938 H945 0.984 . S
N939 C932 1.356 . S
N939 H942 0.984 . S
N939 H943 0.985 . S
H940 N935 0.984 . S
H941 N935 0.985 . S
H942 N939 0.984 . S
H943 N939 0.985 . S
H944 N938 0.984 . S
H945 N938 0.984 . S
H946 N934 0.984 . S
H947 N934 0.985 . S
C948 C949 1.363 . S
C948 C954 1.379 . S
C948 N956 1.356 . S
C949 C948 1.363 . S
C949 C955 1.363 . S
C950 C951 1.363 . S
C950 C955 1.379 . S
C950 N957 1.356 . S
C951 C950 1.363 . S
C951 C954 1.363 . S
N952 C954 1.356 . S
N952 H964 0.984 . S
N952 H965 0.985 . S
N953 C955 1.356 . S
N953 H958 0.984 . S
N953 H959 0.985 . S
C954 C948 1.379 . S
C954 C951 1.363 . S
C954 N952 1.356 . S
C955 C949 1.363 . S
C955 C950 1.379 . S
C955 N953 1.356 . S
N956 C948 1.356 . S
N956 H962 0.996 . S
N956 H963 0.984 . S
N957 C950 1.356 . S
N957 H960 0.984 . S
N957 H961 0.985 . S
H958 N953 0.984 . S
H959 N953 0.985 . S
H960 N957 0.984 . S
H961 N957 0.985 . S
H962 N956 0.996 . S
H963 N956 0.984 . S
H964 N952 0.984 . S
H965 N952 0.985 . S
C966 C967 1.363 . S
C966 C972 1.379 . S
C966 N974 1.356 . S
C967 C966 1.363 . S
C967 C973 1.363 . S
C968 C969 1.363 . S
C968 C973 1.379 . S
C968 N975 1.356 . S
C969 C968 1.363 . S
C969 C972 1.363 . S
N970 C972 1.356 . S
N970 H982 0.984 . S
N970 H983 0.985 . S
N971 C973 1.356 . S
N971 H976 0.984 . S
N971 H977 0.985 . S
C972 C966 1.379 . S
C972 C969 1.363 . S
C972 N970 1.356 . S
C973 C967 1.363 . S
C973 C968 1.379 . S
C973 N971 1.356 . S
N974 C966 1.356 . S
N974 H980 0.984 . S
N974 H981 0.984 . S
N975 C968 1.356 . S
N975 H978 0.984 . S
N975 H979 0.985 . S
H976 N971 0.984 . S
H977 N971 0.985 . S
H978 N975 0.984 . S
H979 N975 0.985 . S
H980 N974 0.984 . S
H981 N974 0.984 . S
H982 N970 0.984 . S
H983 N970 0.985 . S
C984 C985 1.363 . S
C984 C990 1.379 . S
C984 N992 1.356 . S
C985 C984 1.363 . S
C985 C991 1.363 . S
C986 C987 1.363 . S
C986 C991 1.379 . S
C986 N993 1.356 . S
C987 C986 1.363 . S
C987 C990 1.363 . S
N988 C990 1.356 . S
N988 H1000 0.984 . S
N988 H1001 0.985 . S
N989 C991 1.356 . S
N989 H994 0.984 . S
N989 H995 0.985 . S
C990 C984 1.379 . S
C990 C987 1.363 . S
C990 N988 1.356 . S
C991 C985 1.363 . S
C991 C986 1.379 . S
C991 N989 1.356 . S
N992 C984 1.356 . S
N992 H998 0.984 . S
N992 H999 0.984 . S
N993 C986 1.356 . S
N993 H996 0.984 . S
N993 H997 0.985 . S
H994 N989 0.984 . S
H995 N989 0.985 . S
H996 N993 0.984 . S
H997 N993 0.985 . S
H998 N992 0.984 . S
H999 N992 0.984 . S
H1000 N988 0.984 . S
H1001 N988 0.985 . S
C1002 C1003 1.363 . S
C1002 C1008 1.379 . S
C1002 N1010 1.356 . S
C1003 C1002 1.363 . S
C1003 C1009 1.363 . S
C1004 C1005 1.363 . S
C1004 C1009 1.379 . S
C1004 N1011 1.356 . S
C1005 C1004 1.363 . S
C1005 C1008 1.363 . S
N1006 C1008 1.356 . S
N1006 H1018 0.984 . S
N1006 H1019 0.985 . S
N1007 C1009 1.356 . S
N1007 H1012 0.984 . S
N1007 H1013 0.985 . S
C1008 C1002 1.379 . S
C1008 C1005 1.363 . S
C1008 N1006 1.356 . S
C1009 C1003 1.363 . S
C1009 C1004 1.379 . S
C1009 N1007 1.356 . S
N1010 C1002 1.356 . S
N1010 H1016 0.984 . S
N1010 H1017 0.984 . S
N1011 C1004 1.356 . S
N1011 H1014 0.984 . S
N1011 H1015 0.985 . S
H1012 N1007 0.984 . S
H1013 N1007 0.985 . S
H1014 N1011 0.984 . S
H1015 N1011 0.985 . S
H1016 N1010 0.984 . S
H1017 N1010 0.984 . S
H1018 N1006 0.984 . S
H1019 N1006 0.985 . S
C1020 C1021 1.363 . S
C1020 C1026 1.379 . S
C1020 N1028 1.356 . S
C1021 C1020 1.363 . S
C1021 C1027 1.363 . S
C1022 C1023 1.363 . S
C1022 C1027 1.379 . S
C1022 N1029 1.356 . S
C1023 C1022 1.363 . S
C1023 C1026 1.363 . S
N1024 C1026 1.356 . S
N1024 H1036 0.984 . S
N1024 H1037 0.985 . S
N1025 C1027 1.356 . S
N1025 H1030 0.984 . S
N1025 H1031 0.985 . S
C1026 C1020 1.379 . S
C1026 C1023 1.363 . S
C1026 N1024 1.356 . S
C1027 C1021 1.363 . S
C1027 C1022 1.379 . S
C1027 N1025 1.356 . S
N1028 C1020 1.356 . S
N1028 H1034 0.984 . S
N1028 H1035 0.984 . S
N1029 C1022 1.356 . S
N1029 H1032 0.984 . S
N1029 H1033 0.985 . S
H1030 N1025 0.984 . S
H1031 N1025 0.985 . S
H1032 N1029 0.984 . S
H1033 N1029 0.985 . S
H1034 N1028 0.984 . S
H1035 N1028 0.984 . S
H1036 N1024 0.984 . S
H1037 N1024 0.985 . S
C607 C39 1.797 . S
C609 C339 1.771 . S
C625 C91 1.731 . S
C627 C396 1.734 . S
C645 C450 1.580 . S
C643 C128 1.625 . S
C663 C507 1.504 . S
C661 C188 1.563 . S
C681 C531 1.653 . S
C679 C250 1.663 . S
C699 C588 1.766 . S
C697 C304 1.772 . S
C715 C75 1.689 . S
C717 C435 1.660 . S
C733 C144 1.779 . S
C735 C492 1.777 . S
C753 C546 1.679 . S
C751 C198 1.718 . S
C771 C603 1.526 . S
C769 C234 1.597 . S
C787 C294 1.553 . S
C789 C354 1.522 . S
C807 C411 1.519 . S
C805 C29 1.568 . S
C825 C498 1.771 . S
C823 C38 1.797 . S
C841 C92 1.731 . S
C843 C540 1.676 . S
C861 C579 1.580 . S
C859 C135 1.625 . S
C877 C181 1.563 . S
C879 C348 1.504 . S
C895 C251 1.663 . S
C897 C387 1.632 . S
C913 C303 1.772 . S
C915 C459 1.766 . S
C931 C82 1.689 . S
C933 C594 1.659 . S
C951 C363 1.777 . S
C949 C145 1.779 . S
C967 C197 1.718 . S
C969 C402 1.700 . S
C985 C241 1.597 . S
C987 C444 1.526 . S
C1003 C287 1.553 . S
C1005 C483 1.521 . S
C1021 C22 1.568 . S
C1023 C555 1.571 . S
