# Generated by pormake.
# Topology eea, (3,6)-cn, num edge types: 1
# Building blocks:
#     Node 0, Type 0, BuildingBlock: BETDAH_clean_linker_0, # of connection points: 3
#     Node 1, Type 0, BuildingBlock: BETDAH_clean_linker_0, # of connection points: 3
#     Node 2, Type 0, BuildingBlock: BETDAH_clean_linker_0, # of connection points: 3
#     Node 3, Type 0, BuildingBlock: BETDAH_clean_linker_0, # of connection points: 3
#     Node 4, Type 0, BuildingBlock: BETDAH_clean_linker_0, # of connection points: 3
#     Node 5, Type 0, BuildingBlock: BETDAH_clean_linker_0, # of connection points: 3
#     Node 6, Type 0, BuildingBlock: BETDAH_clean_linker_0, # of connection points: 3
#     Node 7, Type 0, BuildingBlock: BETDAH_clean_linker_0, # of connection points: 3
#     Node 8, Type 0, BuildingBlock: BETDAH_clean_linker_0, # of connection points: 3
#     Node 9, Type 0, BuildingBlock: BETDAH_clean_linker_0, # of connection points: 3
#     Node 10, Type 0, BuildingBlock: BETDAH_clean_linker_0, # of connection points: 3
#     Node 11, Type 0, BuildingBlock: BETDAH_clean_linker_0, # of connection points: 3
#     Node 12, Type 0, BuildingBlock: BETDAH_clean_linker_0, # of connection points: 3
#     Node 13, Type 0, BuildingBlock: BETDAH_clean_linker_0, # of connection points: 3
#     Node 14, Type 0, BuildingBlock: BETDAH_clean_linker_0, # of connection points: 3
#     Node 15, Type 0, BuildingBlock: BETDAH_clean_linker_0, # of connection points: 3
#     Node 16, Type 0, BuildingBlock: BETDAH_clean_linker_0, # of connection points: 3
#     Node 17, Type 0, BuildingBlock: BETDAH_clean_linker_0, # of connection points: 3
#     Node 18, Type 1, BuildingBlock: CIFDUS_clean_sbu_1, # of connection points: 6
#     Node 19, Type 1, BuildingBlock: CIFDUS_clean_sbu_1, # of connection points: 6
#     Node 20, Type 1, BuildingBlock: CIFDUS_clean_sbu_1, # of connection points: 6
#     Node 21, Type 1, BuildingBlock: CIFDUS_clean_sbu_1, # of connection points: 6
#     Node 22, Type 1, BuildingBlock: CIFDUS_clean_sbu_1, # of connection points: 6
#     Node 23, Type 1, BuildingBlock: CIFDUS_clean_sbu_1, # of connection points: 6
#     Node 24, Type 1, BuildingBlock: CIFDUS_clean_sbu_1, # of connection points: 6
#     Node 25, Type 1, BuildingBlock: CIFDUS_clean_sbu_1, # of connection points: 6
#     Node 26, Type 1, BuildingBlock: CIFDUS_clean_sbu_1, # of connection points: 6
#     Edge 27, Type (0, 1), BuildingBlock: UVAHIK_clean_linker_0, # of connection points: 2
#     Edge 28, Type (0, 1), BuildingBlock: UVAHIK_clean_linker_0, # of connection points: 2
#     Edge 29, Type (0, 1), BuildingBlock: UVAHIK_clean_linker_0, # of connection points: 2
#     Edge 30, Type (0, 1), BuildingBlock: UVAHIK_clean_linker_0, # of connection points: 2
#     Edge 31, Type (0, 1), BuildingBlock: UVAHIK_clean_linker_0, # of connection points: 2
#     Edge 32, Type (0, 1), BuildingBlock: UVAHIK_clean_linker_0, # of connection points: 2
#     Edge 33, Type (0, 1), BuildingBlock: UVAHIK_clean_linker_0, # of connection points: 2
#     Edge 34, Type (0, 1), BuildingBlock: UVAHIK_clean_linker_0, # of connection points: 2
#     Edge 35, Type (0, 1), BuildingBlock: UVAHIK_clean_linker_0, # of connection points: 2
#     Edge 36, Type (0, 1), BuildingBlock: UVAHIK_clean_linker_0, # of connection points: 2
#     Edge 37, Type (0, 1), BuildingBlock: UVAHIK_clean_linker_0, # of connection points: 2
#     Edge 38, Type (0, 1), BuildingBlock: UVAHIK_clean_linker_0, # of connection points: 2
#     Edge 39, Type (0, 1), BuildingBlock: UVAHIK_clean_linker_0, # of connection points: 2
#     Edge 40, Type (0, 1), BuildingBlock: UVAHIK_clean_linker_0, # of connection points: 2
#     Edge 41, Type (0, 1), BuildingBlock: UVAHIK_clean_linker_0, # of connection points: 2
#     Edge 42, Type (0, 1), BuildingBlock: UVAHIK_clean_linker_0, # of connection points: 2
#     Edge 43, Type (0, 1), BuildingBlock: UVAHIK_clean_linker_0, # of connection points: 2
#     Edge 44, Type (0, 1), BuildingBlock: UVAHIK_clean_linker_0, # of connection points: 2
#     Edge 45, Type (0, 1), BuildingBlock: UVAHIK_clean_linker_0, # of connection points: 2
#     Edge 46, Type (0, 1), BuildingBlock: UVAHIK_clean_linker_0, # of connection points: 2
#     Edge 47, Type (0, 1), BuildingBlock: UVAHIK_clean_linker_0, # of connection points: 2
#     Edge 48, Type (0, 1), BuildingBlock: UVAHIK_clean_linker_0, # of connection points: 2
#     Edge 49, Type (0, 1), BuildingBlock: UVAHIK_clean_linker_0, # of connection points: 2
#     Edge 50, Type (0, 1), BuildingBlock: UVAHIK_clean_linker_0, # of connection points: 2
#     Edge 51, Type (0, 1), BuildingBlock: UVAHIK_clean_linker_0, # of connection points: 2
#     Edge 52, Type (0, 1), BuildingBlock: UVAHIK_clean_linker_0, # of connection points: 2
#     Edge 53, Type (0, 1), BuildingBlock: UVAHIK_clean_linker_0, # of connection points: 2
#     Edge 54, Type (0, 1), BuildingBlock: UVAHIK_clean_linker_0, # of connection points: 2
#     Edge 55, Type (0, 1), BuildingBlock: UVAHIK_clean_linker_0, # of connection points: 2
#     Edge 56, Type (0, 1), BuildingBlock: UVAHIK_clean_linker_0, # of connection points: 2
#     Edge 57, Type (0, 1), BuildingBlock: UVAHIK_clean_linker_0, # of connection points: 2
#     Edge 58, Type (0, 1), BuildingBlock: UVAHIK_clean_linker_0, # of connection points: 2
#     Edge 59, Type (0, 1), BuildingBlock: UVAHIK_clean_linker_0, # of connection points: 2
#     Edge 60, Type (0, 1), BuildingBlock: UVAHIK_clean_linker_0, # of connection points: 2
#     Edge 61, Type (0, 1), BuildingBlock: UVAHIK_clean_linker_0, # of connection points: 2
#     Edge 62, Type (0, 1), BuildingBlock: UVAHIK_clean_linker_0, # of connection points: 2
#     Edge 63, Type (0, 1), BuildingBlock: UVAHIK_clean_linker_0, # of connection points: 2
#     Edge 64, Type (0, 1), BuildingBlock: UVAHIK_clean_linker_0, # of connection points: 2
#     Edge 65, Type (0, 1), BuildingBlock: UVAHIK_clean_linker_0, # of connection points: 2
#     Edge 66, Type (0, 1), BuildingBlock: UVAHIK_clean_linker_0, # of connection points: 2
#     Edge 67, Type (0, 1), BuildingBlock: UVAHIK_clean_linker_0, # of connection points: 2
#     Edge 68, Type (0, 1), BuildingBlock: UVAHIK_clean_linker_0, # of connection points: 2
#     Edge 69, Type (0, 1), BuildingBlock: UVAHIK_clean_linker_0, # of connection points: 2
#     Edge 70, Type (0, 1), BuildingBlock: UVAHIK_clean_linker_0, # of connection points: 2
#     Edge 71, Type (0, 1), BuildingBlock: UVAHIK_clean_linker_0, # of connection points: 2
#     Edge 72, Type (0, 1), BuildingBlock: UVAHIK_clean_linker_0, # of connection points: 2
#     Edge 73, Type (0, 1), BuildingBlock: UVAHIK_clean_linker_0, # of connection points: 2
#     Edge 74, Type (0, 1), BuildingBlock: UVAHIK_clean_linker_0, # of connection points: 2
#     Edge 75, Type (0, 1), BuildingBlock: UVAHIK_clean_linker_0, # of connection points: 2
#     Edge 76, Type (0, 1), BuildingBlock: UVAHIK_clean_linker_0, # of connection points: 2
#     Edge 77, Type (0, 1), BuildingBlock: UVAHIK_clean_linker_0, # of connection points: 2
#     Edge 78, Type (0, 1), BuildingBlock: UVAHIK_clean_linker_0, # of connection points: 2
#     Edge 79, Type (0, 1), BuildingBlock: UVAHIK_clean_linker_0, # of connection points: 2
#     Edge 80, Type (0, 1), BuildingBlock: UVAHIK_clean_linker_0, # of connection points: 2
# Relax obj value: 0.084
# Max RMSD: 0.118
# Mean RMSD: 0.102
data_MOF--net-eea--node1-CIFDUS_clean_sbu_1--node2-BETDAH_clean_linker_0--edge1-UVAHIK_clean_linker_0
_symmetry_space_group_name_H-M    P1
_symmetry_Int_Tables_number       1
_symmetry_cell_setting            triclinic
loop_
_symmetry_equiv_pos_as_xyz
'x, y, z'
_cell_length_a     74.842201
_cell_length_b     73.789187
_cell_length_c     57.778686
_cell_angle_alpha  90.155161
_cell_angle_beta   90.118966
_cell_angle_gamma 119.97838
loop_
_atom_site_label
_atom_site_type_symbol
_atom_site_fract_x
_atom_site_fract_y
_atom_site_fract_z
_atom_type_partial_charge
H0 H 0.1824 0.04801 0.44813 0.0
H1 H 0.17477 0.10176 0.44092 0.0
H2 H 0.14035 0.04787 0.39722 0.0
C3 C 0.1748 0.05558 0.44001 0.0
C4 C 0.16052 0.0452 0.42211 0.0
C5 C 0.18002 0.07591 0.447 0.0
C6 C 0.17092 0.08614 0.43556 0.0
C7 C 0.15661 0.07603 0.41752 0.0
C8 C 0.15151 0.05563 0.41098 0.0
N9 N 0.14689 0.08569 0.40564 0.0
C10 C 0.15105 0.10616 0.40905 0.0
H11 H 0.94484 0.13588 0.43736 0.0
H12 H 0.90082 0.07069 0.42782 0.0
H13 H 0.95417 0.10029 0.38416 0.0
C14 C 0.93994 0.12134 0.42811 0.0
C15 C 0.95196 0.12057 0.40979 0.0
C16 C 0.9214 0.10343 0.43446 0.0
C17 C 0.91502 0.08448 0.42273 0.0
C18 C 0.92713 0.08329 0.40488 0.0
C19 C 0.94537 0.10132 0.39846 0.0
N20 N 0.92149 0.06428 0.39298 0.0
C21 C 0.90309 0.04568 0.39641 0.0
H22 H 0.84544 0.77062 0.4063 0.0
H23 H 0.89323 0.75643 0.38953 0.0
H24 H 0.86825 0.77841 0.33674 0.0
C25 C 0.8561 0.77017 0.39395 0.0
C26 C 0.85558 0.77579 0.37089 0.0
C27 C 0.86937 0.76282 0.40083 0.0
C28 C 0.88282 0.76193 0.38442 0.0
C29 C 0.88242 0.76764 0.36129 0.0
C30 C 0.86855 0.77414 0.35462 0.0
N31 N 0.89533 0.76655 0.34408 0.0
C32 C 0.91432 0.76823 0.34863 0.0
H33 H 0.09248 0.2476 0.60358 0.0
H34 H 0.14814 0.25913 0.63831 0.0
H35 H 0.09277 0.23946 0.67739 0.0
C36 C 0.10048 0.24789 0.61936 0.0
C37 C 0.08986 0.24245 0.64054 0.0
C38 C 0.12155 0.2541 0.6185 0.0
C39 C 0.13189 0.25431 0.63891 0.0
C40 C 0.12131 0.24869 0.6601 0.0
C41 C 0.10057 0.2432 0.66082 0.0
N42 N 0.13116 0.24877 0.68111 0.0
C43 C 0.147 0.24419 0.6822 0.0
H44 H 0.82495 0.87741 0.56997 0.0
H45 H 0.84384 0.94238 0.57929 0.0
H46 H 0.87436 0.91547 0.61723 0.0
C47 C 0.83499 0.89237 0.57817 0.0
C48 C 0.84998 0.89419 0.59421 0.0
C49 C 0.83276 0.90971 0.57269 0.0
C50 C 0.84564 0.92907 0.58344 0.0
C51 C 0.86055 0.93113 0.59971 0.0
C52 C 0.86267 0.91371 0.60489 0.0
N53 N 0.87367 0.95042 0.61119 0.0
C54 C 0.87162 0.96816 0.60997 0.0
H55 H 0.14488 0.96834 0.57198 0.0
H56 H 0.09256 0.9105 0.5939 0.0
H57 H 0.11158 0.96683 0.63322 0.0
C58 C 0.13211 0.95994 0.58378 0.0
C59 C 0.12992 0.97042 0.60291 0.0
C60 C 0.11872 0.93841 0.58034 0.0
C61 C 0.10282 0.92714 0.59637 0.0
C62 C 0.10024 0.93754 0.61545 0.0
C63 C 0.11375 0.95902 0.61848 0.0
N64 N 0.08456 0.92713 0.63226 0.0
C65 C 0.06932 0.90615 0.6319 0.0
H66 H 0.84327 0.37824 0.78161 0.0
H67 H 0.83965 0.43386 0.7707 0.0
H68 H 0.80675 0.38082 0.72535 0.0
C69 C 0.83696 0.38639 0.77203 0.0
C70 C 0.82425 0.37678 0.75269 0.0
C71 C 0.84257 0.4069 0.77852 0.0
C72 C 0.83523 0.418 0.76567 0.0
C73 C 0.82209 0.4085 0.74655 0.0
C74 C 0.81681 0.38801 0.74014 0.0
N75 N 0.81394 0.41895 0.73327 0.0
C76 C 0.81764 0.43919 0.73731 0.0
H77 H 0.61 0.46955 0.77214 0.0
H78 H 0.56581 0.40474 0.76041 0.0
H79 H 0.61899 0.43563 0.7167 0.0
C80 C 0.60503 0.4553 0.76226 0.0
C81 C 0.61697 0.45508 0.74355 0.0
C82 C 0.58647 0.43724 0.76819 0.0
C83 C 0.58001 0.41866 0.75564 0.0
C84 C 0.59204 0.41803 0.73734 0.0
C85 C 0.61028 0.43622 0.73134 0.0
N86 N 0.58632 0.39944 0.72453 0.0
C87 C 0.56798 0.38073 0.72765 0.0
H88 H 0.51777 0.11284 0.74503 0.0
H89 H 0.56101 0.09281 0.72641 0.0
H90 H 0.53961 0.11964 0.67513 0.0
C91 C 0.52769 0.1114 0.7324 0.0
C92 C 0.52772 0.11781 0.70955 0.0
C93 C 0.53932 0.10196 0.73864 0.0
C94 C 0.55183 0.0999 0.72184 0.0
C95 C 0.55196 0.10638 0.69893 0.0
C96 C 0.53959 0.11486 0.69287 0.0
N97 N 0.56375 0.10393 0.68133 0.0
C98 C 0.5826 0.1051 0.68521 0.0
H99 H 0.75949 0.58062 0.93984 0.0
H100 H 0.81629 0.59288 0.97208 0.0
H101 H 0.76181 0.57188 0.0133 0.0
C102 C 0.76795 0.58094 0.95524 0.0
C103 C 0.75788 0.57526 0.97676 0.0
C104 C 0.78904 0.58745 0.95353 0.0
C105 C 0.80002 0.5878 0.97342 0.0
C106 C 0.79003 0.58182 0.99496 0.0
C107 C 0.76917 0.57588 0.9965 0.0
N108 N 0.80053 0.5819 0.01548 0.0
C109 C 0.81897 0.58169 0.01558 0.0
H110 H 0.48979 0.20877 0.90892 0.0
H111 H 0.50761 0.27349 0.91822 0.0
H112 H 0.54029 0.24794 0.95438 0.0
C113 C 0.49981 0.22387 0.91687 0.0
C114 C 0.51541 0.22616 0.93223 0.0
C115 C 0.49693 0.24087 0.91174 0.0
C116 C 0.50988 0.26042 0.92209 0.0
C117 C 0.52547 0.26297 0.93764 0.0
C118 C 0.52813 0.24583 0.94255 0.0
N119 N 0.53875 0.28247 0.94864 0.0
C120 C 0.53657 0.30013 0.94731 0.0
H121 H 0.81669 0.29595 0.91228 0.0
H122 H 0.76491 0.23697 0.93261 0.0
H123 H 0.78462 0.29133 0.97563 0.0
C124 C 0.8042 0.28692 0.9242 0.0
C125 C 0.80234 0.29642 0.94442 0.0
C126 C 0.79079 0.26553 0.91979 0.0
C127 C 0.77518 0.2535 0.93583 0.0
C128 C 0.77298 0.26296 0.956 0.0
C129 C 0.78654 0.28425 0.96007 0.0
N130 N 0.75773 0.25177 0.97299 0.0
C131 C 0.74154 0.23131 0.97104 0.0
H132 H 0.51323 0.71217 0.11528 0.0
H133 H 0.5067 0.76648 0.1071 0.0
H134 H 0.47207 0.71256 0.06347 0.0
C135 C 0.50587 0.71988 0.10689 0.0
C136 C 0.49178 0.70962 0.0888 0.0
C137 C 0.51134 0.74032 0.11364 0.0
C138 C 0.50259 0.75075 0.10193 0.0
C139 C 0.48836 0.74071 0.0838 0.0
C140 C 0.48309 0.72023 0.07738 0.0
N141 N 0.47897 0.75055 0.07161 0.0
C142 C 0.483 0.77095 0.0752 0.0
H143 H 0.2738 0.80234 0.10705 0.0
H144 H 0.23009 0.73748 0.09469 0.0
H145 H 0.28322 0.76922 0.05107 0.0
C146 C 0.26896 0.78821 0.097 0.0
C147 C 0.28099 0.7883 0.07822 0.0
C148 C 0.25049 0.76998 0.10279 0.0
C149 C 0.24423 0.75154 0.09004 0.0
C150 C 0.25636 0.75123 0.07167 0.0
C151 C 0.27445 0.76959 0.06578 0.0
N152 N 0.25092 0.73279 0.05871 0.0
C153 C 0.23303 0.71373 0.06209 0.0
H154 H 0.17518 0.43267 0.07259 0.0
H155 H 0.23029 0.43071 0.05652 0.0
H156 H 0.20092 0.44821 0.00418 0.0
C157 C 0.187 0.43479 0.06031 0.0
C158 C 0.18613 0.44106 0.03761 0.0
C159 C 0.20275 0.43088 0.06727 0.0
C160 C 0.2181 0.4337 0.05129 0.0
C161 C 0.21752 0.44023 0.02855 0.0
C162 C 0.20147 0.44365 0.02187 0.0
N163 N 0.23248 0.44314 0.01168 0.0
C164 C 0.2513 0.44444 0.01635 0.0
H165 H 0.42532 0.91416 0.27267 0.0
H166 H 0.47988 0.92175 0.30657 0.0
H167 H 0.42506 0.904 0.34609 0.0
C168 C 0.43302 0.91342 0.28825 0.0
C169 C 0.42256 0.90849 0.30952 0.0
C170 C 0.45376 0.91842 0.28715 0.0
C171 C 0.46389 0.91787 0.30741 0.0
C172 C 0.45337 0.91247 0.32868 0.0
C173 C 0.43297 0.90815 0.3296 0.0
N174 N 0.4628 0.91136 0.34954 0.0
C175 C 0.48003 0.90898 0.35029 0.0
H176 H 0.16324 0.5466 0.23298 0.0
H177 H 0.17706 0.60902 0.25025 0.0
H178 H 0.20443 0.57979 0.28964 0.0
C179 C 0.17157 0.56057 0.24352 0.0
C180 C 0.18414 0.56087 0.26188 0.0
C181 C 0.16883 0.57783 0.23939 0.0
C182 C 0.17906 0.5957 0.25354 0.0
C183 C 0.192 0.59646 0.27161 0.0
C184 C 0.1944 0.57905 0.27566 0.0
N185 N 0.2028 0.61439 0.28608 0.0
C186 C 0.20126 0.63241 0.28463 0.0
H187 H 0.48007 0.63538 0.23794 0.0
H188 H 0.42738 0.57767 0.25948 0.0
H189 H 0.44583 0.63419 0.2982 0.0
C190 C 0.46714 0.62705 0.24955 0.0
C191 C 0.46464 0.63766 0.26835 0.0
C192 C 0.45377 0.6055 0.24613 0.0
C193 C 0.43764 0.59431 0.26194 0.0
C194 C 0.43481 0.60478 0.28076 0.0
C195 C 0.44826 0.62631 0.28373 0.0
N196 N 0.41886 0.59444 0.29731 0.0
C197 C 0.40365 0.57342 0.297 0.0
O198 O 0.48181 0.98215 0.01631 0.0
Mn199 Mn 0.51291 0.00541 0.01375 0.0
O200 O 0.46702 0.99526 0.03988 0.0
Mn201 Mn 0.49073 0.02016 0.04761 0.0
O202 O 0.54391 0.02881 0.01124 0.0
O203 O 0.52022 0.98335 0.00528 0.0
Mn204 Mn 0.53548 0.99117 0.9801 0.0
O205 O 0.50838 0.01057 0.97901 0.0
O206 O 0.55903 0.01632 0.98741 0.0
O207 O 0.51733 1.00016 0.0484 0.0
O208 O 0.50666 0.01784 0.07073 0.0
O209 O 0.53346 0.96624 0.98896 0.0
O210 O 0.51931 0.99293 0.957 0.0
C211 C 0.50388 0.04395 0.02155 0.0
C212 C 0.46601 0.9807 0.02693 0.0
C213 C 0.55977 0.03072 1.00039 0.0
C214 C 0.52279 0.96727 0.00599 0.0
C215 C 0.51058 0.00388 0.95923 0.0
C216 C 0.51517 0.00669 0.06827 0.0
O217 O 0.50589 0.02756 0.02241 0.0
O218 O 0.49347 0.04543 0.03856 0.0
O219 O 0.02323 0.5012 0.00907 0.0
Mn220 Mn 0.00705 0.51723 0.01032 0.0
O221 O 0.01358 0.48065 0.04083 0.0
Mn222 Mn 0.99507 0.48801 0.05343 0.0
O223 O 0.99077 0.5332 0.01183 0.0
O224 O 0.0287 0.54001 0.99174 0.0
Mn225 Mn 0.01961 0.5483 0.96845 0.0
O226 O 0.99082 0.50214 0.97993 0.0
O227 O 0.00155 0.5558 0.98192 0.0
O228 O 0.02371 0.53271 0.04027 0.0
O229 O 0.00738 0.51242 0.07087 0.0
O230 O 0.04814 0.56653 0.97094 0.0
O231 O 0.00659 0.52438 0.95026 0.0
C232 C 0.96752 0.47836 0.0329 0.0
C233 C 0.0242 0.48771 0.02229 0.0
C234 C 0.99026 0.54754 0.99976 0.0
C235 C 0.04685 0.5555 0.98885 0.0
C236 C 0.99316 0.50651 0.95811 0.0
C237 C 0.02131 0.52958 0.06223 0.0
O238 O 0.98528 0.49436 0.02912 0.0
O239 O 0.96687 0.46884 0.05189 0.0
O240 O 0.53312 0.51331 0.0051 0.0
Mn241 Mn 0.50107 0.49914 0.00718 0.0
O242 O 0.54217 0.53522 0.97457 0.0
Mn243 Mn 0.51599 0.5297 0.96551 0.0
O244 O 0.4691 0.48522 0.00893 0.0
O245 O 0.49981 0.47443 0.02258 0.0
Mn246 Mn 0.48432 0.46665 0.04742 0.0
O247 O 0.50337 0.51357 0.03936 0.0
O248 O 0.45838 0.46108 0.03723 0.0
O249 O 0.4988 0.48427 0.97548 0.0
O250 O 0.50182 0.50616 0.94692 0.0
O251 O 0.49272 0.44705 0.04235 0.0
O252 O 0.4973 0.48964 0.06697 0.0
C253 C 0.50078 0.54044 0.98894 0.0
C254 C 0.54671 0.52688 0.99132 0.0
C255 C 0.45478 0.47085 0.02129 0.0
C256 C 0.50159 0.45806 0.02419 0.0
C257 C 0.50234 0.5082 0.06078 0.0
C258 C 0.49822 0.48829 0.95394 0.0
O259 O 0.50212 0.52383 0.99155 0.0
O260 O 0.50863 0.55008 0.96974 0.0
O261 O 0.15198 0.31561 0.34615 0.0
Mn262 Mn 0.18271 0.34024 0.34428 0.0
O263 O 0.13508 0.32789 0.36747 0.0
Mn264 Mn 0.15771 0.35348 0.37555 0.0
O265 O 0.21329 0.36504 0.34246 0.0
O266 O 0.19198 0.31924 0.33773 0.0
Mn267 Mn 0.20817 0.32773 0.31326 0.0
O268 O 0.17875 0.34417 0.30899 0.0
O269 O 0.23062 0.35362 0.32073 0.0
O270 O 0.18651 0.33614 0.37947 0.0
O271 O 0.17323 0.35244 0.40003 0.0
O272 O 0.20744 0.30364 0.32284 0.0
O273 O 0.19237 0.32801 0.28882 0.0
C274 C 0.17089 0.3772 0.34949 0.0
C275 C 0.13539 0.31343 0.35555 0.0
C276 C 0.22995 0.36783 0.33271 0.0
C277 C 0.19564 0.30386 0.33907 0.0
C278 C 0.18232 0.33773 0.28978 0.0
C279 C 0.18295 0.34239 0.3988 0.0
O280 O 0.17382 0.36138 0.35109 0.0
O281 O 0.15938 0.37805 0.36563 0.0
O282 O 0.69541 0.84071 0.33886 0.0
Mn283 Mn 0.67442 0.85114 0.34237 0.0
O284 O 0.68639 0.81501 0.36523 0.0
Mn285 Mn 0.66402 0.81579 0.37826 0.0
O286 O 0.65351 0.86186 0.34605 0.0
O287 O 0.69509 0.87838 0.3289 0.0
Mn288 Mn 0.68496 0.887 0.30693 0.0
O289 O 0.66233 0.8394 0.3094 0.0
O290 O 0.66379 0.88891 0.32134 0.0
O291 O 0.68671 0.86299 0.37542 0.0
O292 O 0.67109 0.83635 0.40053 0.0
O293 O 0.71215 0.90808 0.31193 0.0
O294 O 0.6762 0.86633 0.2844 0.0
C295 C 0.63738 0.80546 0.35607 0.0
C296 C 0.69794 0.82671 0.34901 0.0
C297 C 0.65175 0.87684 0.33705 0.0
C298 C 0.71205 0.89586 0.32799 0.0
C299 C 0.665 0.84683 0.28873 0.0
C300 C 0.68306 0.8557 0.3962 0.0
O301 O 0.65373 0.8236 0.35561 0.0
O302 O 0.63754 0.79376 0.3726 0.0
O303 O 0.19846 0.84749 0.33827 0.0
Mn304 Mn 0.16651 0.83253 0.34159 0.0
O305 O 0.20584 0.86812 0.30678 0.0
Mn306 Mn 0.17914 0.8617 0.29877 0.0
O307 O 0.13461 0.81772 0.34444 0.0
O308 O 0.16658 0.80866 0.35751 0.0
Mn309 Mn 0.15178 0.80112 0.38289 0.0
O310 O 0.16924 0.84765 0.37339 0.0
O311 O 0.12529 0.79428 0.37335 0.0
O312 O 0.16381 0.81696 0.31029 0.0
O313 O 0.16479 0.83751 0.28122 0.0
O314 O 0.16114 0.78224 0.37817 0.0
O315 O 0.16458 0.82467 0.40164 0.0
C316 C 0.16436 0.87264 0.32256 0.0
C317 C 0.2113 0.86067 0.32362 0.0
C318 C 0.12088 0.80334 0.35732 0.0
C319 C 0.16922 0.79283 0.35954 0.0
C320 C 0.1689 0.8429 0.39494 0.0
C321 C 0.1622 0.82014 0.28873 0.0
O322 O 0.16625 0.85637 0.32543 0.0
O323 O 0.17126 0.8817 0.30286 0.0
O324 O 0.81714 0.65007 0.68151 0.0
Mn325 Mn 0.84798 0.67421 0.67924 0.0
O326 O 0.80118 0.66263 0.70403 0.0
Mn327 Mn 0.82422 0.68805 0.71177 0.0
O328 O 0.87867 0.69854 0.67704 0.0
O329 O 0.85657 0.65285 0.67187 0.0
Mn330 Mn 0.87237 0.66114 0.64709 0.0
O331 O 0.84359 0.67852 0.64419 0.0
O332 O 0.89522 0.68682 0.65443 0.0
O333 O 0.8522 0.66973 0.71418 0.0
O334 O 0.84017 0.68673 0.73557 0.0
O335 O 0.87126 0.63676 0.65629 0.0
O336 O 0.85626 0.66187 0.62324 0.0
C337 C 0.83702 0.71164 0.6855 0.0
C338 C 0.80092 0.64815 0.69159 0.0
C339 C 0.89504 0.70108 0.66681 0.0
C340 C 0.85985 0.63719 0.67285 0.0
C341 C 0.84658 0.67193 0.62475 0.0
C342 C 0.84937 0.67619 0.73377 0.0
O343 O 0.83975 0.6957 0.68684 0.0
O344 O 0.82606 0.71277 0.70211 0.0
O345 O 0.36343 0.17638 0.67443 0.0
Mn346 Mn 0.33877 0.18138 0.68067 0.0
O347 O 0.35768 0.1484 0.69591 0.0
Mn348 Mn 0.33392 0.1441 0.71089 0.0
O349 O 0.31416 0.18663 0.68727 0.0
O350 O 0.35621 0.21083 0.67032 0.0
Mn351 Mn 0.34346 0.2191 0.65131 0.0
O352 O 0.32771 0.17196 0.64694 0.0
O353 O 0.32134 0.21634 0.66845 0.0
O354 O 0.34996 0.19092 0.71448 0.0
O355 O 0.33867 0.16175 0.73589 0.0
O356 O 0.36958 0.24203 0.6567 0.0
O357 O 0.33627 0.20098 0.62616 0.0
C358 C 0.30676 0.13261 0.68947 0.0
C359 C 0.36834 0.16294 0.68154 0.0
C360 C 0.31023 0.20125 0.68202 0.0
C361 C 0.37182 0.22941 0.67029 0.0
C362 C 0.32831 0.18114 0.62778 0.0
C363 C 0.34776 0.18164 0.73401 0.0
O364 O 0.32144 0.15171 0.69072 0.0
O365 O 0.30896 0.12035 0.70366 0.0
O366 O 0.86559 0.18036 0.66925 0.0
Mn367 Mn 0.83359 0.16539 0.67173 0.0
O368 O 0.8739 0.20241 0.63893 0.0
Mn369 Mn 0.84737 0.19601 0.63016 0.0
O370 O 0.80162 0.15063 0.67388 0.0
O371 O 0.83324 0.14096 0.68681 0.0
Mn372 Mn 0.81805 0.13279 0.71187 0.0
O373 O 0.83581 0.17958 0.70407 0.0
O374 O 0.79178 0.12651 0.70212 0.0
O375 O 0.83151 0.15078 0.63991 0.0
O376 O 0.83379 0.17244 0.61146 0.0
O377 O 0.82716 0.11381 0.70647 0.0
O378 O 0.83081 0.15577 0.73143 0.0
C379 C 0.83163 0.20595 0.65376 0.0
C380 C 0.87886 0.19422 0.65546 0.0
C381 C 0.78766 0.13602 0.68634 0.0
C382 C 0.83562 0.12493 0.68826 0.0
C383 C 0.8353 0.17421 0.72541 0.0
C384 C 0.83079 0.15476 0.6184 0.0
O385 O 0.8337 0.18976 0.65637 0.0
O386 O 0.83906 0.21564 0.63448 0.0
C387 C 0.31725 0.80707 0.06258 0.0
C388 C 0.30006 0.80785 0.07119 0.0
C389 C 0.33475 0.82521 0.05494 0.0
C390 C 0.35272 0.8803 0.03718 0.0
H391 H 0.40695 0.88717 0.04788 0.0
C392 C 0.42838 0.95967 0.03633 0.0
C393 C 0.44588 0.96086 0.02578 0.0
C394 C 0.41006 0.94059 0.0382 0.0
C395 C 0.39189 0.88533 0.04445 0.0
H396 H 0.28809 0.82863 0.07858 0.0
H397 H 0.31891 0.86031 0.06647 0.0
H398 H 0.37637 0.85496 0.05976 0.0
H399 H 0.45708 0.94298 0.00718 0.0
H400 H 0.42519 0.90934 0.01133 0.0
H401 H 0.36849 0.91118 0.02285 0.0
C402 C 0.31867 0.84557 0.06496 0.0
C403 C 0.37431 0.86684 0.05124 0.0
C404 C 0.30106 0.82738 0.07234 0.0
C405 C 0.44417 0.94257 0.01599 0.0
C406 C 0.42589 0.92333 0.01828 0.0
C407 C 0.37032 0.89889 0.0307 0.0
C408 C 0.33572 0.84473 0.05598 0.0
C409 C 0.35446 0.86413 0.04792 0.0
C410 C 0.40879 0.92212 0.02978 0.0
C411 C 0.39008 0.90167 0.03445 0.0
H412 H 0.31727 0.79242 0.06174 0.0
H413 H 0.34742 0.82381 0.04793 0.0
H414 H 0.33775 0.87866 0.0338 0.0
H415 H 0.42895 0.97343 0.04385 0.0
H416 H 0.39717 0.94014 0.04719 0.0
C417 C 0.14883 0.43121 0.03788 0.0
C418 C 0.1691 0.44468 0.0304 0.0
C419 C 0.13294 0.43507 0.03201 0.0
C420 C 0.12406 0.47792 0.01457 0.0
H421 H 0.06817 0.4324 0.00468 0.0
C422 C 0.05568 0.49241 0.00158 0.0
C423 C 0.03916 0.48078 0.01671 0.0
C424 C 0.07116 0.48725 0.99859 0.0
C425 C 0.08372 0.44526 0.00735 0.0
H426 H 0.18848 0.47257 0.01044 0.0
H427 H 0.16061 0.47903 0.99969 0.0
H428 H 0.09635 0.42489 0.00791 0.0
H429 H 0.02533 0.45389 0.03951 0.0
H430 H 0.05215 0.44483 0.03413 0.0
H431 H 0.11131 0.49823 0.01435 0.0
C432 C 0.15707 0.46564 0.01042 0.0
C433 C 0.09985 0.44098 0.00931 0.0
C434 C 0.17301 0.46182 0.01638 0.0
C435 C 0.0379 0.46326 0.02784 0.0
C436 C 0.0532 0.45797 0.02464 0.0
C437 C 0.10794 0.48221 0.01245 0.0
C438 C 0.13688 0.45243 0.01837 0.0
C439 C 0.12014 0.4572 0.01353 0.0
C440 C 0.07021 0.47017 0.01039 0.0
C441 C 0.08754 0.46587 0.00938 0.0
H442 H 0.14521 0.41768 0.04839 0.0
H443 H 0.11765 0.42471 0.0387 0.0
H444 H 0.13944 0.49078 0.01808 0.0
H445 H 0.05707 0.50595 0.99267 0.0
H446 H 0.08403 0.49682 0.98737 0.0
C447 C 0.48571 0.68279 0.05802 0.0
C448 C 0.48688 0.68816 0.08157 0.0
C449 C 0.48314 0.66336 0.05133 0.0
C450 C 0.49327 0.62233 0.07251 0.0
H451 H 0.46188 0.59203 0.01823 0.0
C452 C 0.51177 0.56894 0.01746 0.0
C453 C 0.49565 0.55081 0.00736 0.0
C454 C 0.50762 0.58222 0.03078 0.0
C455 C 0.47044 0.60009 0.03367 0.0
H456 H 0.485 0.67669 0.11653 0.0
H457 H 0.48067 0.64294 0.10485 0.0
H458 H 0.45963 0.62206 0.03245 0.0
H459 H 0.46257 0.5321 0.0032 0.0
H460 H 0.45514 0.55549 0.02657 0.0
H461 H 0.50454 0.60075 0.07332 0.0
C462 C 0.48209 0.65389 0.09155 0.0
C463 C 0.46936 0.61746 0.04164 0.0
C464 C 0.48459 0.67327 0.09823 0.0
C465 C 0.47519 0.54575 0.01134 0.0
C466 C 0.471 0.55924 0.02446 0.0
C467 C 0.49447 0.60507 0.06443 0.0
C468 C 0.4817 0.64882 0.06801 0.0
C469 C 0.48109 0.62906 0.06088 0.0
C470 C 0.48723 0.5779 0.03385 0.0
C471 C 0.48342 0.59401 0.04462 0.0
H472 H 0.48762 0.69393 0.04472 0.0
H473 H 0.48315 0.66009 0.03304 0.0
H474 H 0.50263 0.63095 0.08728 0.0
H475 H 0.52768 0.57334 0.01416 0.0
H476 H 0.52049 0.59654 0.03746 0.0
C477 C 0.82479 0.32486 0.97245 0.0
C478 C 0.81743 0.31873 0.94973 0.0
C479 C 0.83945 0.34558 0.97749 0.0
C480 C 0.88144 0.39247 0.95138 0.0
H481 H 0.87902 0.41792 0.00923 0.0
C482 C 0.95281 0.45258 0.00135 0.0
C483 C 0.95172 0.46767 0.01509 0.0
C484 C 0.93569 0.43818 0.98858 0.0
C485 C 0.87981 0.41131 0.99276 0.0
H486 H 0.8195 0.32982 0.91454 0.0
H487 H 0.84549 0.36606 0.92336 0.0
H488 H 0.84943 0.38504 0.99673 0.0
H489 H 0.93243 0.48017 0.02605 0.0
H490 H 0.90239 0.45524 0.00313 0.0
H491 H 0.91211 0.41839 0.94781 0.0
C492 C 0.83985 0.3547 0.93721 0.0
C493 C 0.86293 0.39232 0.98575 0.0
C494 C 0.82503 0.33394 0.93218 0.0
C495 C 0.93363 0.46887 0.01513 0.0
C496 C 0.91646 0.45449 0.00223 0.0
C497 C 0.89839 0.41145 0.95845 0.0
C498 C 0.84724 0.36071 0.95993 0.0
C499 C 0.86381 0.38236 0.96537 0.0
C500 C 0.9171 0.43855 0.98943 0.0
C501 C 0.89799 0.42076 0.97958 0.0
H502 H 0.81966 0.31353 0.98632 0.0
H503 H 0.84517 0.34961 0.99508 0.0
H504 H 0.88259 0.38517 0.9356 0.0
H505 H 0.96655 0.45116 0.00156 0.0
H506 H 0.93667 0.42597 0.97923 0.0
C507 C 0.72246 0.55266 0.99327 0.0
C508 C 0.73582 0.56932 0.97893 0.0
C509 C 0.70201 0.54782 0.99636 0.0
C510 C 0.66866 0.57132 0.99176 0.0
H511 H 0.6238 0.51382 0.99218 0.0
C512 C 0.58395 0.54952 0.98125 0.0
C513 C 0.56867 0.53269 0.99397 0.0
C514 C 0.60442 0.55414 0.98191 0.0
C515 C 0.63619 0.52994 0.99249 0.0
H516 H 0.73808 0.59383 0.9564 0.0
H517 H 0.70233 0.58515 0.96142 0.0
H518 H 0.65924 0.52119 0.98754 0.0
H519 H 0.56319 0.50788 0.01795 0.0
H520 H 0.59915 0.51599 0.01908 0.0
H521 H 0.64565 0.5801 0.99643 0.0
C522 C 0.70774 0.57599 0.97054 0.0
C523 C 0.65649 0.53418 0.98977 0.0
C524 C 0.72816 0.58079 0.96741 0.0
C525 C 0.57454 0.52092 0.0079 0.0
C526 C 0.59511 0.52548 0.00844 0.0
C527 C 0.6484 0.5671 0.99448 0.0
C528 C 0.69447 0.55957 0.98522 0.0
C529 C 0.67294 0.55493 0.98904 0.0
C530 C 0.61024 0.54204 0.99526 0.0
C531 C 0.63189 0.54638 0.99454 0.0
H532 H 0.72782 0.54337 0.0022 0.0
H533 H 0.69225 0.53515 0.00787 0.0
H534 H 0.68101 0.58747 0.9918 0.0
H535 H 0.58008 0.559 0.97037 0.0
H536 H 0.6156 0.56683 0.97133 0.0
C537 C 0.52085 0.20348 0.9606 0.0
C538 C 0.51815 0.20792 0.93764 0.0
C539 C 0.5225 0.18583 0.96579 0.0
C540 C 0.5106 0.13411 0.94139 0.0
H541 H 0.54264 0.13439 0.99429 0.0
C542 C 0.49433 0.05925 0.9893 0.0
C543 C 0.50999 0.05875 0.00215 0.0
C544 C 0.49837 0.07698 0.9766 0.0
C545 C 0.53391 0.13402 0.97916 0.0
H546 H 0.5158 0.19764 0.90204 0.0
H547 H 0.51913 0.16716 0.91095 0.0
H548 H 0.54432 0.16672 0.98226 0.0
H549 H 0.54235 0.07596 0.01105 0.0
H550 H 0.54981 0.10683 0.98813 0.0
H551 H 0.5004 0.10145 0.93812 0.0
C552 C 0.51943 0.17696 0.9251 0.0
C553 C 0.53458 0.15259 0.97249 0.0
C554 C 0.51757 0.1945 0.91995 0.0
C555 C 0.53015 0.07575 1.00078 0.0
C556 C 0.53426 0.09359 0.98802 0.0
C557 C 0.51006 0.11557 0.94794 0.0
C558 C 0.52172 0.17222 0.94813 0.0
C559 C 0.52254 0.15284 0.95386 0.0
C560 C 0.51821 0.09481 0.97661 0.0
C561 C 0.5213 0.11511 0.96729 0.0
H562 H 0.5211 0.21333 0.97466 0.0
H563 H 0.52383 0.18259 0.98377 0.0
H564 H 0.50099 0.13351 0.92704 0.0
H565 H 0.47855 0.0465 0.99054 0.0
H566 H 0.4855 0.07724 0.96835 0.0
C567 C 0.70641 0.20945 0.98544 0.0
C568 C 0.72326 0.21107 0.97318 0.0
C569 C 0.68899 0.18992 0.98922 0.0
C570 C 0.67179 0.13342 0.99097 0.0
H571 H 0.6172 0.12716 0.98795 0.0
C572 C 0.59692 0.05315 0.98942 0.0
C573 C 0.57954 0.05092 0.00136 0.0
C574 C 0.61487 0.07261 0.98787 0.0
C575 C 0.63235 0.12871 0.98921 0.0
H576 H 0.73548 0.19399 0.95507 0.0
H577 H 0.70475 0.15957 0.96124 0.0
H578 H 0.64738 0.16108 0.98001 0.0
H579 H 0.56802 0.06736 0.02217 0.0
H580 H 0.59943 0.10148 0.01925 0.0
H581 H 0.65666 0.10093 0.99987 0.0
C582 C 0.70502 0.17334 0.96822 0.0
C583 C 0.64967 0.14816 0.9846 0.0
C584 C 0.72252 0.19297 0.96449 0.0
C585 C 0.58096 0.06855 0.01254 0.0
C586 C 0.59893 0.08811 0.01082 0.0
C587 C 0.65445 0.11395 0.99551 0.0
C588 C 0.68808 0.17158 0.98077 0.0
C589 C 0.66962 0.15076 0.98537 0.0
C590 C 0.61598 0.0904 0.99813 0.0
C591 C 0.63451 0.11135 0.99461 0.0
H592 H 0.70686 0.2233 0.99249 0.0
H593 H 0.67644 0.18918 0.99924 0.0
H594 H 0.68692 0.13493 0.99215 0.0
H595 H 0.59652 0.03997 0.98066 0.0
H596 H 0.62763 0.07382 0.97782 0.0
C597 C 0.83853 0.56635 0.03229 0.0
C598 C 0.83733 0.58008 0.01654 0.0
C599 C 0.856 0.56413 0.03291 0.0
C600 C 0.91079 0.58976 0.01558 0.0
H601 H 0.90238 0.53355 0.01928 0.0
C602 C 0.97394 0.56963 0.99305 0.0
C603 C 0.9749 0.5539 0.00575 0.0
C604 C 0.95816 0.57414 0.99692 0.0
C605 C 0.90505 0.54939 0.01864 0.0
H606 H 0.85301 0.60242 0.98922 0.0
H607 H 0.88367 0.59849 0.99006 0.0
H608 H 0.8728 0.53883 0.02082 0.0
H609 H 0.96038 0.53117 0.03322 0.0
H610 H 0.93298 0.53924 0.04016 0.0
H611 H 0.94306 0.60028 0.01311 0.0
C612 C 0.87131 0.58961 0.00215 0.0
C613 C 0.88807 0.55241 0.01948 0.0
C614 C 0.85378 0.59178 0.00154 0.0
C615 C 0.96012 0.54334 0.02307 0.0
C616 C 0.94431 0.54786 0.02693 0.0
C617 C 0.9278 0.58674 0.01478 0.0
C618 C 0.87254 0.57563 0.01774 0.0
C619 C 0.89073 0.57261 0.01776 0.0
C620 C 0.94293 0.56304 0.0136 0.0
C621 C 0.9251 0.56649 0.01609 0.0
H622 H 0.82591 0.55723 0.04402 0.0
H623 H 0.85658 0.55345 0.0453 0.0
H624 H 0.91337 0.60555 0.01456 0.0
H625 H 0.98507 0.57814 0.97958 0.0
H626 H 0.95745 0.58577 0.98619 0.0
C627 C 0.55344 0.33827 0.95295 0.0
C628 C 0.53561 0.31922 0.94795 0.0
C629 C 0.55242 0.3566 0.95556 0.0
C630 C 0.51926 0.38023 0.94508 0.0
H631 H 0.54743 0.41356 0.99921 0.0
C632 C 0.49431 0.43227 0.99309 0.0
C633 C 0.50891 0.44968 0.00571 0.0
C634 C 0.50027 0.42007 0.98032 0.0
C635 C 0.53985 0.40482 0.98368 0.0
H636 H 0.50284 0.30412 0.94117 0.0
H637 H 0.50088 0.33614 0.94585 0.0
H638 H 0.55238 0.38462 0.98818 0.0
H639 H 0.54125 0.46871 0.01421 0.0
H640 H 0.55195 0.44766 0.99146 0.0
H641 H 0.5063 0.40022 0.94101 0.0
C642 C 0.51575 0.3371 0.94749 0.0
C643 C 0.54264 0.38809 0.97738 0.0
C644 C 0.5168 0.31875 0.94494 0.0
C645 C 0.5298 0.45554 0.00425 0.0
C646 C 0.53582 0.4433 0.99148 0.0
C647 C 0.51653 0.39706 0.95134 0.0
C648 C 0.5335 0.35621 0.95323 0.0
C649 C 0.53204 0.37528 0.95831 0.0
C650 C 0.52099 0.42489 0.98017 0.0
C651 C 0.52641 0.40928 0.97107 0.0
H652 H 0.56812 0.33892 0.95533 0.0
H653 H 0.56643 0.37104 0.95968 0.0
H654 H 0.51114 0.37092 0.93005 0.0
H655 H 0.47805 0.4273 0.99433 0.0
H656 H 0.48836 0.40598 0.97208 0.0
C657 C 0.21543 0.67546 0.05864 0.0
C658 C 0.21461 0.69359 0.06366 0.0
C659 C 0.19728 0.65607 0.05749 0.0
C660 C 0.14107 0.62824 0.07046 0.0
H661 H 0.1369 0.59872 0.01329 0.0
C662 C 0.06558 0.5797 0.02093 0.0
C663 C 0.06312 0.56337 0.00644 0.0
C664 C 0.0835 0.59086 0.03411 0.0
C665 C 0.13783 0.60633 0.02967 0.0
H666 H 0.19477 0.7061 0.07228 0.0
H667 H 0.16286 0.67221 0.07007 0.0
H668 H 0.16996 0.62778 0.02513 0.0
H669 H 0.07661 0.54499 0.99491 0.0
H670 H 0.10796 0.56417 0.01846 0.0
H671 H 0.10864 0.6072 0.07443 0.0
C672 C 0.17744 0.67276 0.06735 0.0
C673 C 0.15686 0.6231 0.03644 0.0
C674 C 0.19562 0.69216 0.06847 0.0
C675 C 0.07819 0.55742 0.00626 0.0
C676 C 0.09616 0.56854 0.01954 0.0
C677 C 0.122 0.61137 0.06371 0.0
C678 C 0.17802 0.65457 0.06129 0.0
C679 C 0.15857 0.63469 0.05649 0.0
C680 C 0.09936 0.58592 0.03293 0.0
C681 C 0.12002 0.60069 0.0428 0.0
H682 H 0.23004 0.67636 0.0549 0.0
H683 H 0.19827 0.64233 0.05302 0.0
H684 H 0.14198 0.63665 0.08622 0.0
H685 H 0.05413 0.58461 0.02104 0.0
H686 H 0.08546 0.60425 0.04395 0.0
C687 C 0.27542 0.4334 0.03103 0.0
C688 C 0.27171 0.44719 0.01807 0.0
C689 C 0.29514 0.43564 0.03137 0.0
C690 C 0.35007 0.47374 0.01905 0.0
H691 H 0.35536 0.42418 0.01464 0.0
C692 C 0.42881 0.47917 0.00418 0.0
C693 C 0.43324 0.46634 0.01819 0.0
C694 C 0.40885 0.47624 0.0033 0.0
C695 C 0.35414 0.43817 0.01605 0.0
H696 H 0.28511 0.47402 0.99541 0.0
H697 H 0.3195 0.47793 0.99576 0.0
H698 H 0.32113 0.42055 0.01598 0.0
H699 H 0.41985 0.43981 0.04157 0.0
H700 H 0.38518 0.43478 0.04 0.0
H701 H 0.38307 0.49136 0.01908 0.0
C702 C 0.30748 0.46559 0.00597 0.0
C703 C 0.33452 0.43608 0.0169 0.0
C704 C 0.28781 0.46333 0.00567 0.0
C705 C 0.41706 0.45004 0.03061 0.0
C706 C 0.39711 0.44706 0.02964 0.0
C707 C 0.36967 0.47583 0.01815 0.0
C708 C 0.31139 0.45171 0.01871 0.0
C709 C 0.33225 0.45385 0.01839 0.0
C710 C 0.39284 0.46035 0.01629 0.0
C711 C 0.37195 0.45807 0.01663 0.0
H712 H 0.26307 0.42081 0.04068 0.0
H713 H 0.29768 0.42484 0.04158 0.0
H714 H 0.3489 0.48775 0.02056 0.0
H715 H 0.44085 0.49184 0.99434 0.0
H716 H 0.40599 0.48655 0.99257 0.0
C717 C 0.50499 0.80954 0.07646 0.0
C718 C 0.48536 0.79166 0.07622 0.0
C719 C 0.50712 0.82951 0.07509 0.0
C720 C 0.47927 0.85586 0.05381 0.0
H721 H 0.52346 0.90422 0.08478 0.0
C722 C 0.49608 0.93894 0.031 0.0
C723 C 0.51681 0.95215 0.02514 0.0
C724 C 0.4902 0.92046 0.04347 0.0
C725 C 0.51099 0.89088 0.07603 0.0
H726 H 0.45257 0.78029 0.07486 0.0
H727 H 0.45616 0.81509 0.07271 0.0
H728 H 0.51734 0.86929 0.09392 0.0
H729 H 0.54782 0.95753 0.02923 0.0
H730 H 0.53786 0.92591 0.05118 0.0
H731 H 0.47338 0.87745 0.03531 0.0
C732 C 0.46997 0.81387 0.07374 0.0
C733 C 0.50754 0.87083 0.08121 0.0
C734 C 0.46788 0.79394 0.07514 0.0
C735 C 0.53172 0.94764 0.03369 0.0
C736 C 0.52596 0.92946 0.04632 0.0
C737 C 0.48273 0.8759 0.04862 0.0
C738 C 0.48963 0.83194 0.07334 0.0
C739 C 0.49195 0.85308 0.06976 0.0
C740 C 0.50505 0.9151 0.05046 0.0
C741 C 0.49899 0.89374 0.0592 0.0
H742 H 0.51868 0.80807 0.07709 0.0
H743 H 0.52251 0.84299 0.07452 0.0
H744 H 0.46725 0.84263 0.04445 0.0
H745 H 0.48435 0.94202 0.02445 0.0
H746 H 0.47396 0.90989 0.04664 0.0
C747 C 0.98834 0.13882 0.39428 0.0
C748 C 0.97104 0.13983 0.40205 0.0
C749 C 0.00588 0.1567 0.38614 0.0
C750 C 0.02356 0.21081 0.3649 0.0
H751 H 0.078 0.21942 0.37878 0.0
C752 C 0.09754 0.29129 0.36319 0.0
C753 C 0.11581 0.29297 0.35426 0.0
C754 C 0.07962 0.27186 0.36513 0.0
C755 C 0.0629 0.21708 0.37443 0.0
H756 H 0.95885 0.16074 0.40725 0.0
H757 H 0.98963 0.19196 0.39413 0.0
H758 H 0.0475 0.18723 0.39102 0.0
H759 H 0.12881 0.27544 0.33854 0.0
H760 H 0.09756 0.24122 0.34284 0.0
H761 H 0.0391 0.24112 0.3492 0.0
C762 C 0.9895 0.17723 0.39377 0.0
C763 C 0.04536 0.1986 0.38145 0.0
C764 C 0.97191 0.15932 0.40172 0.0
C765 C 0.11528 0.27471 0.34613 0.0
C766 C 0.09736 0.25512 0.3485 0.0
C767 C 0.04108 0.22935 0.35813 0.0
C768 C 0.0067 0.17617 0.3857 0.0
C769 C 0.02543 0.19533 0.37709 0.0
C770 C 0.07945 0.2535 0.35839 0.0
C771 C 0.06094 0.23282 0.3631 0.0
H772 H 0.98842 0.12419 0.39455 0.0
H773 H 0.01868 0.15515 0.3799 0.0
H774 H 0.00854 0.20869 0.36068 0.0
H775 H 0.09716 0.30495 0.36939 0.0
H776 H 0.06612 0.27115 0.37288 0.0
C777 C 0.83997 0.79856 0.37645 0.0
C778 C 0.84115 0.78296 0.36373 0.0
C779 C 0.82603 0.80502 0.37003 0.0
C780 C 0.77637 0.78594 0.34224 0.0
H781 H 0.79149 0.84443 0.34054 0.0
C782 C 0.71446 0.80918 0.32871 0.0
C783 C 0.71612 0.8251 0.34335 0.0
C784 C 0.7311 0.80572 0.32629 0.0
C785 C 0.78698 0.82802 0.34107 0.0
H786 H 0.82885 0.76192 0.33432 0.0
H787 H 0.80414 0.77298 0.3233 0.0
H788 H 0.81815 0.83499 0.34636 0.0
H789 H 0.73605 0.8501 0.36666 0.0
H790 H 0.76499 0.84389 0.363 0.0
H791 H 0.74516 0.77878 0.33826 0.0
C792 C 0.81413 0.7803 0.33811 0.0
C793 C 0.80226 0.82265 0.34432 0.0
C794 C 0.82828 0.77405 0.34434 0.0
C795 C 0.7347 0.83795 0.35498 0.0
C796 C 0.75125 0.8344 0.35277 0.0
C797 C 0.76105 0.79127 0.3393 0.0
C798 C 0.81283 0.79579 0.35095 0.0
C799 C 0.79704 0.80157 0.34531 0.0
C800 C 0.74952 0.81791 0.33882 0.0
C801 C 0.76611 0.81238 0.33909 0.0
H802 H 0.84983 0.80575 0.39138 0.0
H803 H 0.82518 0.81684 0.38035 0.0
H804 H 0.77192 0.76955 0.34317 0.0
H805 H 0.70011 0.79904 0.31974 0.0
H806 H 0.72934 0.79313 0.31509 0.0
C807 C 0.15405 0.01821 0.39136 0.0
C808 C 0.15562 0.02374 0.4149 0.0
C809 C 0.15128 0.9987 0.38466 0.0
C810 C 0.16103 0.95724 0.40555 0.0
H811 H 0.12836 0.92684 0.352 0.0
C812 C 0.17657 0.90141 0.35092 0.0
C813 C 0.15996 0.88352 0.34105 0.0
C814 C 0.17319 0.9153 0.3641 0.0
C815 C 0.13729 0.93493 0.36723 0.0
H816 H 0.1543 0.01248 0.44986 0.0
H817 H 0.14959 0.97858 0.43818 0.0
H818 H 0.12713 0.95742 0.36617 0.0
H819 H 0.1268 0.86588 0.33716 0.0
H820 H 0.12071 0.89026 0.36039 0.0
H821 H 0.17157 0.93506 0.40625 0.0
C822 C 0.15087 0.98947 0.42487 0.0
C823 C 0.13679 0.95262 0.37517 0.0
C824 C 0.15359 0.00894 0.43156 0.0
C825 C 0.13979 0.87933 0.34513 0.0
C826 C 0.13637 0.8934 0.35817 0.0
C827 C 0.16163 0.93964 0.39752 0.0
C828 C 0.15002 0.98422 0.40133 0.0
C829 C 0.14896 0.96425 0.39416 0.0
C830 C 0.1531 0.91182 0.3673 0.0
C831 C 0.15009 0.92851 0.37797 0.0
H832 H 0.15576 0.02927 0.37806 0.0
H833 H 0.15094 0.99529 0.36637 0.0
H834 H 0.17071 0.96587 0.42012 0.0
H835 H 0.19229 0.90517 0.34749 0.0
H836 H 0.18643 0.92942 0.37058 0.0
C837 C 0.48867 0.6742 0.25385 0.0
C838 C 0.47977 0.66026 0.27249 0.0
C839 C 0.50435 0.69486 0.25767 0.0
C840 C 0.53022 0.73567 0.30297 0.0
H841 H 0.58022 0.7507 0.26881 0.0
C842 C 0.60914 0.80457 0.33164 0.0
C843 C 0.62196 0.79644 0.33743 0.0
C844 C 0.59168 0.79287 0.31759 0.0
C845 C 0.56628 0.74702 0.27814 0.0
H846 H 0.48014 0.65756 0.30987 0.0
H847 H 0.5071 0.69356 0.31648 0.0
H848 H 0.54785 0.72014 0.25696 0.0
H849 H 0.62772 0.77077 0.3321 0.0
H850 H 0.59797 0.75085 0.30709 0.0
H851 H 0.54898 0.7619 0.32495 0.0
C852 C 0.50183 0.68853 0.29891 0.0
C853 C 0.54772 0.72951 0.27135 0.0
C854 C 0.48633 0.66783 0.2951 0.0
C855 C 0.61804 0.77734 0.32777 0.0
C856 C 0.60106 0.766 0.31335 0.0
C857 C 0.54875 0.75336 0.30957 0.0
C858 C 0.51131 0.70216 0.28023 0.0
C859 C 0.52969 0.72311 0.28434 0.0
C860 C 0.58727 0.77323 0.30879 0.0
C861 C 0.56713 0.75864 0.29784 0.0
H862 H 0.48373 0.66907 0.23623 0.0
H863 H 0.51126 0.70505 0.24294 0.0
H864 H 0.51651 0.73124 0.31314 0.0
H865 H 0.61184 0.8192 0.33912 0.0
H866 H 0.58122 0.79873 0.31436 0.0
C867 C 0.39466 0.91197 0.32939 0.0
C868 C 0.40087 0.90385 0.31103 0.0
C869 C 0.37414 0.90706 0.33141 0.0
C870 C 0.3262 0.88841 0.29774 0.0
H871 H 0.30059 0.87703 0.3583 0.0
C872 C 0.23993 0.8555 0.33895 0.0
C873 C 0.23338 0.8668 0.3252 0.0
C874 C 0.26046 0.86002 0.33824 0.0
C875 C 0.30747 0.88002 0.34127 0.0
H876 H 0.39037 0.8842 0.28037 0.0
H877 H 0.35446 0.87562 0.28387 0.0
H878 H 0.33605 0.88425 0.35454 0.0
H879 H 0.24359 0.89246 0.30087 0.0
H880 H 0.27922 0.90048 0.29997 0.0
H881 H 0.29759 0.88388 0.28439 0.0
C882 C 0.36555 0.88597 0.29659 0.0
C883 C 0.32785 0.88437 0.33913 0.0
C884 C 0.38612 0.8909 0.29456 0.0
C885 C 0.24799 0.88325 0.31149 0.0
C886 C 0.26844 0.88778 0.31084 0.0
C887 C 0.30586 0.88409 0.29988 0.0
C888 C 0.35931 0.89392 0.31511 0.0
C889 C 0.33748 0.88873 0.31735 0.0
C890 C 0.27484 0.87596 0.32381 0.0
C891 C 0.29631 0.88 0.32168 0.0
H892 H 0.40573 0.9223 0.34214 0.0
H893 H 0.36994 0.91379 0.34561 0.0
H894 H 0.33319 0.89186 0.28075 0.0
H895 H 0.22908 0.84271 0.34968 0.0
H896 H 0.2649 0.85057 0.34839 0.0
C897 C 0.18792 0.53007 0.24937 0.0
C898 C 0.18604 0.54207 0.26717 0.0
C899 C 0.18947 0.51232 0.25451 0.0
C900 C 0.20081 0.48621 0.30317 0.0
H901 H 0.17123 0.43638 0.26527 0.0
C902 C 0.1977 0.40997 0.33084 0.0
C903 C 0.17783 0.39242 0.33042 0.0
C904 C 0.20204 0.42802 0.31838 0.0
C905 C 0.17962 0.45015 0.27605 0.0
H906 H 0.1839 0.5444 0.30437 0.0
H907 H 0.18637 0.51355 0.31329 0.0
H908 H 0.17161 0.46842 0.25416 0.0
H909 H 0.14719 0.37948 0.31597 0.0
H910 H 0.15456 0.41062 0.2942 0.0
H911 H 0.20791 0.46775 0.32574 0.0
C912 C 0.1872 0.51808 0.29534 0.0
C913 C 0.18001 0.46864 0.26954 0.0
C914 C 0.18573 0.53582 0.29022 0.0
C915 C 0.16279 0.39266 0.31611 0.0
C916 C 0.16706 0.41062 0.30368 0.0
C917 C 0.20036 0.46773 0.30972 0.0
C918 C 0.18912 0.50605 0.27759 0.0
C919 C 0.19023 0.48683 0.28329 0.0
C920 C 0.18647 0.42892 0.30549 0.0
C921 C 0.18941 0.44928 0.29653 0.0
H922 H 0.18844 0.53453 0.23144 0.0
H923 H 0.19116 0.50364 0.24037 0.0
H924 H 0.20921 0.49996 0.31398 0.0
H925 H 0.20934 0.41041 0.34231 0.0
H926 H 0.21727 0.44165 0.31992 0.0
C927 C 0.36931 0.55038 0.31307 0.0
C928 C 0.3863 0.55267 0.30052 0.0
C929 C 0.35273 0.53049 0.31783 0.0
C930 C 0.33858 0.47473 0.32159 0.0
H931 H 0.28265 0.46496 0.31903 0.0
C932 C 0.26682 0.39208 0.32182 0.0
C933 C 0.24896 0.38879 0.33354 0.0
C934 C 0.284 0.4121 0.31998 0.0
C935 C 0.29818 0.46749 0.32019 0.0
H936 H 0.39962 0.53636 0.28296 0.0
H937 H 0.37041 0.50132 0.29091 0.0
H938 H 0.31147 0.49956 0.31019 0.0
H939 H 0.23587 0.40402 0.3538 0.0
H940 H 0.26587 0.43917 0.35034 0.0
H941 H 0.32522 0.44255 0.33128 0.0
C942 C 0.36992 0.51485 0.29736 0.0
C943 C 0.31474 0.48734 0.31505 0.0
C944 C 0.38656 0.53485 0.29262 0.0
C945 C 0.24915 0.40601 0.34427 0.0
C946 C 0.26635 0.42616 0.34226 0.0
C947 C 0.32201 0.45486 0.32667 0.0
C948 C 0.35281 0.51242 0.31012 0.0
C949 C 0.33517 0.49122 0.31558 0.0
C950 C 0.28386 0.42947 0.32976 0.0
C951 C 0.30159 0.45095 0.3259 0.0
H952 H 0.36896 0.56402 0.31949 0.0
H953 H 0.34004 0.52928 0.32799 0.0
H954 H 0.35409 0.47721 0.32261 0.0
H955 H 0.2674 0.37927 0.31338 0.0
H956 H 0.29711 0.41405 0.31007 0.0
C957 C 0.49446 0.88708 0.36242 0.0
C958 C 0.49718 0.90541 0.35208 0.0
C959 C 0.51108 0.88354 0.36441 0.0
C960 C 0.56799 0.9109 0.36396 0.0
H961 H 0.56034 0.85648 0.34737 0.0
C962 C 0.6348 0.89859 0.33783 0.0
C963 C 0.63468 0.8802 0.34441 0.0
C964 C 0.61812 0.90135 0.34281 0.0
C965 C 0.56265 0.87164 0.35251 0.0
H966 H 0.51882 0.93446 0.33562 0.0
H967 H 0.54802 0.92831 0.33884 0.0
H968 H 0.53073 0.86189 0.34764 0.0
H969 H 0.61719 0.8506 0.36225 0.0
H970 H 0.5878 0.85543 0.37088 0.0
H971 H 0.59997 0.92078 0.36832 0.0
C972 C 0.53322 0.91676 0.34573 0.0
C973 C 0.54571 0.87476 0.35259 0.0
C974 C 0.51656 0.92024 0.34372 0.0
C975 C 0.61772 0.86489 0.35683 0.0
C976 C 0.60087 0.86761 0.36169 0.0
C977 C 0.58491 0.90777 0.36389 0.0
C978 C 0.53065 0.89836 0.35611 0.0
C979 C 0.54828 0.89455 0.35784 0.0
C980 C 0.60084 0.88579 0.35447 0.0
C981 C 0.5825 0.88824 0.35766 0.0
H982 H 0.47951 0.87551 0.36902 0.0
H983 H 0.50866 0.86932 0.37265 0.0
H984 H 0.57039 0.9262 0.36856 0.0
H985 H 0.64764 0.91079 0.32838 0.0
H986 H 0.61849 0.91541 0.33674 0.0
C987 C 0.2186 0.6705 0.29092 0.0
C988 C 0.20073 0.65174 0.28514 0.0
C989 C 0.21792 0.68902 0.29342 0.0
C990 C 0.18606 0.7139 0.28148 0.0
H991 H 0.21304 0.74617 0.33661 0.0
C992 C 0.16197 0.76745 0.32799 0.0
C993 C 0.17658 0.78442 0.34116 0.0
C994 C 0.1677 0.75488 0.31555 0.0
C995 C 0.20581 0.73773 0.32081 0.0
H996 H 0.16828 0.63735 0.27685 0.0
H997 H 0.1669 0.66971 0.28137 0.0
H998 H 0.21743 0.71682 0.32593 0.0
H999 H 0.20871 0.8023 0.35098 0.0
H1000 H 0.21902 0.7807 0.32874 0.0
H1001 H 0.17401 0.73461 0.27677 0.0
C1002 C 0.18154 0.67029 0.28371 0.0
C1003 C 0.20827 0.72076 0.31471 0.0
C1004 C 0.18226 0.65175 0.28124 0.0
C1005 C 0.19728 0.7895 0.34056 0.0
C1006 C 0.20307 0.77693 0.3281 0.0
C1007 C 0.18364 0.73097 0.28754 0.0
C1008 C 0.1993 0.68911 0.29023 0.0
C1009 C 0.19812 0.70835 0.29524 0.0
C1010 C 0.18816 0.7589 0.31628 0.0
C1011 C 0.19314 0.74285 0.30759 0.0
H1012 H 0.23302 0.67077 0.29398 0.0
H1013 H 0.23193 0.70323 0.29815 0.0
H1014 H 0.17828 0.70488 0.26615 0.0
H1015 H 0.14583 0.76305 0.32859 0.0
H1016 H 0.15574 0.7411 0.30688 0.0
C1017 C 0.86556 0.02622 0.40257 0.0
C1018 C 0.88395 0.02619 0.39836 0.0
C1019 C 0.84672 0.00744 0.40223 0.0
C1020 C 0.82285 0.95533 0.37557 0.0
H1021 H 0.77588 0.9466 0.41222 0.0
C1022 C 0.74034 0.89371 0.34874 0.0
C1023 C 0.72851 0.90342 0.34543 0.0
C1024 C 0.75853 0.90373 0.36197 0.0
C1025 C 0.78891 0.94868 0.40203 0.0
H1026 H 0.8976 0.00695 0.3913 0.0
H1027 H 0.86465 0.97394 0.39085 0.0
H1028 H 0.81043 0.97458 0.42277 0.0
H1029 H 0.72531 0.93017 0.35415 0.0
H1030 H 0.75657 0.9474 0.37747 0.0
H1031 H 0.80122 0.93012 0.35416 0.0
C1032 C 0.86464 0.98838 0.39422 0.0
C1033 C 0.80867 0.96477 0.40797 0.0
C1034 C 0.88347 0.0072 0.39457 0.0
C1035 C 0.73423 0.92242 0.35661 0.0
C1036 C 0.75206 0.93219 0.37009 0.0
C1037 C 0.8031 0.93922 0.36966 0.0
C1038 C 0.84598 0.98831 0.39762 0.0
C1039 C 0.82576 0.96884 0.39422 0.0
C1040 C 0.76483 0.92337 0.37226 0.0
C1041 C 0.78582 0.93632 0.38221 0.0
H1042 H 0.86569 0.04081 0.40541 0.0
H1043 H 0.83268 0.00805 0.40454 0.0
H1044 H 0.83561 0.95806 0.36449 0.0
H1045 H 0.73623 0.87914 0.33998 0.0
H1046 H 0.76808 0.89657 0.36337 0.0
C1047 C 0.95068 0.78734 0.33753 0.0
C1048 C 0.93491 0.77156 0.35062 0.0
C1049 C 0.97063 0.79038 0.33847 0.0
C1050 C 0.9995 0.76348 0.35295 0.0
H1051 H 0.04652 0.81981 0.35323 0.0
C1052 C 0.08343 0.78176 0.36768 0.0
C1053 C 0.09904 0.79791 0.35452 0.0
C1054 C 0.06316 0.77786 0.36666 0.0
C1055 C 0.03356 0.80398 0.35286 0.0
H1056 H 0.92709 0.74658 0.37505 0.0
H1057 H 0.96221 0.75195 0.37701 0.0
H1058 H 0.01172 0.81463 0.35363 0.0
H1059 H 0.10533 0.82221 0.32941 0.0
H1060 H 0.06992 0.81523 0.3275 0.0
H1061 H 0.02142 0.75286 0.35224 0.0
C1062 C 0.9592 0.76187 0.36581 0.0
C1063 C 0.01361 0.80101 0.35314 0.0
C1064 C 0.93919 0.75886 0.36484 0.0
C1065 C 0.09374 0.80966 0.33981 0.0
C1066 C 0.07347 0.80578 0.33885 0.0
C1067 C 0.01948 0.76646 0.3527 0.0
C1068 C 0.97514 0.77764 0.35255 0.0
C1069 C 0.99634 0.78073 0.35307 0.0
C1070 C 0.058 0.79003 0.3525 0.0
C1071 C 0.03674 0.78675 0.35256 0.0
H1072 H 0.94753 0.7972 0.32635 0.0
H1073 H 0.98243 0.80244 0.32779 0.0
H1074 H 0.98654 0.74766 0.35256 0.0
H1075 H 0.08692 0.77238 0.37921 0.0
H1076 H 0.05165 0.76572 0.37753 0.0
C1077 C 0.17349 0.14468 0.41011 0.0
C1078 C 0.15373 0.127 0.40995 0.0
C1079 C 0.17596 0.16478 0.40869 0.0
C1080 C 0.14881 0.19198 0.38766 0.0
H1081 H 0.19407 0.23989 0.41801 0.0
C1082 C 0.16851 0.27617 0.36456 0.0
C1083 C 0.1892 0.28838 0.35796 0.0
C1084 C 0.16201 0.25758 0.37708 0.0
C1085 C 0.18128 0.22667 0.40947 0.0
H1086 H 0.12103 0.11612 0.40866 0.0
H1087 H 0.12521 0.15118 0.40646 0.0
H1088 H 0.18702 0.20469 0.42742 0.0
H1089 H 0.21965 0.29202 0.36107 0.0
H1090 H 0.20866 0.26033 0.38321 0.0
H1091 H 0.14354 0.21401 0.36912 0.0
C1092 C 0.13886 0.14969 0.40745 0.0
C1093 C 0.17731 0.20648 0.41478 0.0
C1094 C 0.13644 0.12962 0.40888 0.0
C1095 C 0.20356 0.28286 0.36595 0.0
C1096 C 0.19723 0.26466 0.37871 0.0
C1097 C 0.15279 0.21219 0.38236 0.0
C1098 C 0.15867 0.16756 0.407 0.0
C1099 C 0.16138 0.18887 0.40347 0.0
C1100 C 0.17626 0.25125 0.38358 0.0
C1101 C 0.16947 0.22984 0.39268 0.0
H1102 H 0.18703 0.14294 0.41073 0.0
H1103 H 0.19145 0.17809 0.40807 0.0
H1104 H 0.13652 0.17887 0.37843 0.0
H1105 H 0.15723 0.28017 0.35867 0.0
H1106 H 0.14575 0.24773 0.38081 0.0
C1107 C 0.65324 0.47362 0.72782 0.0
C1108 C 0.63606 0.47451 0.73627 0.0
C1109 C 0.67074 0.49166 0.71997 0.0
C1110 C 0.68854 0.54641 0.70105 0.0
H1111 H 0.74292 0.55404 0.71278 0.0
C1112 C 0.76325 0.62635 0.70041 0.0
C1113 C 0.78112 0.62794 0.69036 0.0
C1114 C 0.74518 0.60704 0.70219 0.0
C1115 C 0.72782 0.55197 0.70905 0.0
H1116 H 0.6241 0.4954 0.7431 0.0
H1117 H 0.65488 0.5269 0.73055 0.0
H1118 H 0.71243 0.52173 0.72471 0.0
H1119 H 0.7932 0.61048 0.67253 0.0
H1120 H 0.76171 0.57644 0.67658 0.0
H1121 H 0.70413 0.57714 0.68633 0.0
C1122 C 0.65465 0.51213 0.72938 0.0
C1123 C 0.71029 0.53344 0.71588 0.0
C1124 C 0.63706 0.49405 0.737 0.0
C1125 C 0.78001 0.60978 0.681 0.0
C1126 C 0.76195 0.5903 0.68321 0.0
C1127 C 0.70607 0.56502 0.69449 0.0
C1128 C 0.67169 0.51119 0.72057 0.0
C1129 C 0.69039 0.5305 0.71226 0.0
C1130 C 0.74447 0.58873 0.69418 0.0
C1131 C 0.7259 0.56811 0.69868 0.0
H1132 H 0.65323 0.45894 0.72728 0.0
H1133 H 0.68342 0.49019 0.71313 0.0
H1134 H 0.67352 0.54457 0.69741 0.0
H1135 H 0.76333 0.63996 0.70758 0.0
H1136 H 0.73199 0.60634 0.71078 0.0
C1137 C 0.51584 0.14367 0.71573 0.0
C1138 C 0.51484 0.12699 0.70296 0.0
C1139 C 0.50326 0.15196 0.70989 0.0
C1140 C 0.46771 0.15139 0.66382 0.0
H1141 H 0.44374 0.16535 0.71543 0.0
C1142 C 0.38986 0.15029 0.66257 0.0
C1143 C 0.38853 0.16566 0.67552 0.0
C1144 C 0.40837 0.14995 0.66187 0.0
C1145 C 0.45058 0.1619 0.70078 0.0
H1146 H 0.50011 0.10593 0.67404 0.0
H1147 H 0.4775 0.11974 0.66435 0.0
H1148 H 0.46998 0.15594 0.72271 0.0
H1149 H 0.40508 0.19259 0.69786 0.0
H1150 H 0.43759 0.19239 0.6963 0.0
H1151 H 0.44718 0.15625 0.6421 0.0
C1152 C 0.48841 0.12696 0.67842 0.0
C1153 C 0.46569 0.15652 0.70493 0.0
C1154 C 0.50125 0.11891 0.68405 0.0
C1155 C 0.40608 0.18118 0.68695 0.0
C1156 C 0.42453 0.18081 0.68638 0.0
C1157 C 0.45233 0.15651 0.65969 0.0
C1158 C 0.48911 0.14348 0.6914 0.0
C1159 C 0.47429 0.15092 0.68656 0.0
C1160 C 0.42563 0.16474 0.67454 0.0
C1161 C 0.44348 0.16159 0.67818 0.0
H1162 H 0.52642 0.15033 0.7302 0.0
H1163 H 0.50456 0.16495 0.71998 0.0
H1164 H 0.47424 0.14754 0.64919 0.0
H1165 H 0.37629 0.13788 0.65412 0.0
H1166 H 0.40871 0.13724 0.65286 0.0
C1167 C 0.81604 0.33996 0.76171 0.0
C1168 C 0.81963 0.35544 0.74524 0.0
C1169 C 0.81359 0.32062 0.75489 0.0
C1170 C 0.80294 0.28562 0.70398 0.0
H1171 H 0.83378 0.26532 0.73869 0.0
C1172 C 0.80595 0.21255 0.67383 0.0
C1173 C 0.82609 0.21597 0.67221 0.0
C1174 C 0.80201 0.22636 0.68664 0.0
C1175 C 0.82497 0.27069 0.72889 0.0
H1176 H 0.82299 0.36236 0.70853 0.0
H1177 H 0.8186 0.32865 0.69663 0.0
H1178 H 0.83272 0.29609 0.75237 0.0
H1179 H 0.85781 0.23603 0.68272 0.0
H1180 H 0.85101 0.25986 0.70539 0.0
H1181 H 0.7959 0.26072 0.68 0.0
C1182 C 0.81748 0.33139 0.71485 0.0
C1183 C 0.82423 0.28826 0.73681 0.0
C1184 C 0.81999 0.35076 0.72168 0.0
C1185 C 0.84206 0.2328 0.68428 0.0
C1186 C 0.83813 0.24646 0.69721 0.0
C1187 C 0.80359 0.26798 0.69612 0.0
C1188 C 0.81456 0.31617 0.73139 0.0
C1189 C 0.81359 0.29624 0.72419 0.0
C1190 C 0.81819 0.24384 0.69793 0.0
C1191 C 0.815 0.26058 0.7082 0.0
H1192 H 0.81528 0.34285 0.77997 0.0
H1193 H 0.81103 0.30916 0.76806 0.0
H1194 H 0.79437 0.29115 0.69399 0.0
H1195 H 0.79352 0.19999 0.66411 0.0
H1196 H 0.78646 0.22385 0.68695 0.0
C1197 C 0.15392 0.00711 0.58891 0.0
C1198 C 0.14528 0.99286 0.60731 0.0
C1199 C 0.16989 0.0276 0.59293 0.0
C1200 C 0.19747 0.06697 0.63933 0.0
H1201 H 0.24622 0.08251 0.60243 0.0
C1202 C 0.27738 0.13257 0.66884 0.0
C1203 C 0.29038 0.12421 0.67188 0.0
C1204 C 0.25956 0.12198 0.65513 0.0
C1205 C 0.23264 0.07862 0.61261 0.0
H1206 H 0.14642 0.98933 0.64447 0.0
H1207 H 0.17392 0.02495 0.65146 0.0
H1208 H 0.21319 0.0528 0.59058 0.0
H1209 H 0.29603 0.09917 0.66221 0.0
H1210 H 0.26541 0.08096 0.63791 0.0
H1211 H 0.21724 0.09196 0.66217 0.0
C1212 C 0.16822 0.02039 0.63394 0.0
C1213 C 0.21369 0.06166 0.6058 0.0
C1214 C 0.1524 0.9999 0.62991 0.0
C1215 C 0.28617 0.10591 0.66001 0.0
C1216 C 0.26873 0.0956 0.64596 0.0
C1217 C 0.21639 0.08404 0.64605 0.0
C1218 C 0.17743 0.03436 0.61546 0.0
C1219 C 0.19612 0.05504 0.6197 0.0
C1220 C 0.25485 0.1031 0.64399 0.0
C1221 C 0.23434 0.08938 0.63335 0.0
H1222 H 0.14857 1.00234 0.57132 0.0
H1223 H 0.17657 0.03807 0.57837 0.0
H1224 H 0.18412 0.06244 0.65018 0.0
H1225 H 0.28035 0.1464 0.67834 0.0
H1226 H 0.24906 0.12805 0.65401 0.0
C1227 C 0.06042 0.24805 0.62993 0.0
C1228 C 0.06779 0.23651 0.64185 0.0
C1229 C 0.03998 0.24334 0.63256 0.0
C1230 C 0.98846 0.20181 0.6514 0.0
H1231 H 0.97801 0.24797 0.65846 0.0
C1232 C 0.90711 0.18873 0.67143 0.0
C1233 C 0.90092 0.20037 0.65774 0.0
C1234 C 0.92769 0.19342 0.67148 0.0
C1235 C 0.98066 0.23491 0.65639 0.0
H1236 H 0.05929 0.21049 0.66518 0.0
H1237 H 0.02372 0.20246 0.67 0.0
H1238 H 0.01328 0.25512 0.65342 0.0
H1239 H 0.91175 0.22663 0.63414 0.0
H1240 H 0.94738 0.23468 0.63424 0.0
H1241 H 0.95579 0.1816 0.65417 0.0
C1242 C 0.03369 0.2151 0.65857 0.0
C1243 C 1.00086 0.239 0.65342 0.0
C1244 C 0.05413 0.21982 0.65597 0.0
C1245 C 0.91591 0.21726 0.64484 0.0
C1246 C 0.93642 0.22199 0.645 0.0
C1247 C 0.96824 0.1977 0.65438 0.0
C1248 C 0.02645 0.22696 0.64712 0.0
C1249 C 0.00498 0.22251 0.65067 0.0
C1250 C 0.94252 0.20995 0.65803 0.0
C1251 C 0.9641 0.21422 0.65667 0.0
H1252 H 0.0706 0.26108 0.61905 0.0
H1253 H 0.03478 0.25259 0.62324 0.0
H1254 H 0.9911 0.18876 0.64912 0.0
H1255 H 0.89598 0.17565 0.6816 0.0
H1256 H 0.93198 0.184 0.68192 0.0
C1257 C 0.85448 0.87116 0.62301 0.0
C1258 C 0.85218 0.87566 0.59993 0.0
C1259 C 0.8559 0.85343 0.62846 0.0
C1260 C 0.84406 0.80159 0.60457 0.0
H1261 H 0.87586 0.80204 0.6578 0.0
C1262 C 0.82751 0.72694 0.6532 0.0
C1263 C 0.84317 0.72641 0.66605 0.0
C1264 C 0.8316 0.74463 0.64039 0.0
C1265 C 0.86719 0.80163 0.64259 0.0
H1266 H 0.8502 0.86529 0.56442 0.0
H1267 H 0.85304 0.83461 0.57381 0.0
H1268 H 0.87762 0.83435 0.64546 0.0
H1269 H 0.87555 0.74352 0.6748 0.0
H1270 H 0.88307 0.77436 0.65175 0.0
H1271 H 0.83381 0.76889 0.60157 0.0
C1272 C 0.85326 0.84448 0.58783 0.0
C1273 C 0.86791 0.82018 0.63574 0.0
C1274 C 0.85166 0.86213 0.58241 0.0
C1275 C 0.86335 0.74334 0.66456 0.0
C1276 C 0.86751 0.76116 0.65171 0.0
C1277 C 0.84346 0.78306 0.61133 0.0
C1278 C 0.85525 0.83975 0.61097 0.0
C1279 C 0.85597 0.82036 0.61696 0.0
C1280 C 0.85147 0.7624 0.64029 0.0
C1281 C 0.85461 0.78267 0.6308 0.0
H1282 H 0.85466 0.88108 0.63696 0.0
H1283 H 0.85699 0.85019 0.64651 0.0
H1284 H 0.83454 0.80095 0.59011 0.0
H1285 H 0.81172 0.71425 0.65451 0.0
H1286 H 0.81875 0.74492 0.63212 0.0
C1287 C 0.03533 0.88304 0.64863 0.0
C1288 C 0.052 0.88541 0.63538 0.0
C1289 C 0.01876 0.86313 0.65328 0.0
C1290 C 0.00418 0.80724 0.65526 0.0
H1291 H 0.94844 0.79808 0.65445 0.0
C1292 C 0.93181 0.725 0.65534 0.0
C1293 C 0.91425 0.72184 0.66762 0.0
C1294 C 0.94913 0.74492 0.65354 0.0
C1295 C 0.96392 0.80044 0.65512 0.0
H1296 H 0.0648 0.86924 0.61648 0.0
H1297 H 0.03557 0.83416 0.62425 0.0
H1298 H 0.97733 0.83267 0.64581 0.0
H1299 H 0.90182 0.73715 0.68889 0.0
H1300 H 0.9321 0.77209 0.68556 0.0
H1301 H 0.99068 0.7749 0.66429 0.0
C1302 C 0.03533 0.84764 0.63132 0.0
C1303 C 0.98052 0.82028 0.65009 0.0
C1304 C 0.05196 0.86766 0.62668 0.0
C1305 C 0.91488 0.73905 0.67895 0.0
C1306 C 0.93222 0.75908 0.67701 0.0
C1307 C 0.98757 0.78738 0.66024 0.0
C1308 C 0.01853 0.84514 0.64474 0.0
C1309 C 1.00087 0.82394 0.65002 0.0
C1310 C 0.94942 0.76229 0.66394 0.0
C1311 C 0.96722 0.78371 0.66012 0.0
H1312 H 0.03523 0.89662 0.65566 0.0
H1313 H 0.00631 0.86185 0.66396 0.0
H1314 H 0.01965 0.80956 0.65578 0.0
H1315 H 0.93202 0.71218 0.64643 0.0
H1316 H 0.962 0.74681 0.6432 0.0
C1317 C 0.18128 0.25119 0.69478 0.0
C1318 C 0.16222 0.23786 0.68436 0.0
C1319 C 0.19569 0.2446 0.69774 0.0
C1320 C 0.20988 0.20678 0.67513 0.0
H1321 H 0.24353 0.22158 0.73072 0.0
C1322 C 0.27199 0.18374 0.68487 0.0
C1323 C 0.29146 0.2005 0.69076 0.0
C1324 C 0.2543 0.18525 0.68823 0.0
C1325 C 0.23422 0.21732 0.71512 0.0
H1326 H 0.14279 0.2074 0.66898 0.0
H1327 H 0.16791 0.19568 0.6742 0.0
H1328 H 0.21637 0.23066 0.72758 0.0
H1329 H 0.30785 0.23167 0.70546 0.0
H1330 H 0.277 0.2344 0.71143 0.0
H1331 H 0.22796 0.19389 0.66243 0.0
C1332 C 0.17195 0.21128 0.67986 0.0
C1333 C 0.21875 0.22259 0.71327 0.0
C1334 C 0.15759 0.21792 0.6769 0.0
C1335 C 0.29291 0.2184 0.70114 0.0
C1336 C 0.27525 0.21992 0.70459 0.0
C1337 C 0.2253 0.20149 0.677 0.0
C1338 C 0.19117 0.22454 0.69035 0.0
C1339 C 0.20664 0.21769 0.69308 0.0
C1340 C 0.25583 0.20365 0.69739 0.0
C1341 C 0.23786 0.20699 0.69686 0.0
H1342 H 0.18501 0.26665 0.70068 0.0
H1343 H 0.21047 0.2553 0.70555 0.0
H1344 H 0.20102 0.20302 0.65923 0.0
H1345 H 0.27052 0.17018 0.67598 0.0
H1346 H 0.23954 0.17242 0.68261 0.0
C1347 C 0.88838 0.00623 0.61618 0.0
C1348 C 0.87064 0.98724 0.61075 0.0
C1349 C 0.88729 0.02451 0.61895 0.0
C1350 C 0.8542 0.04821 0.60835 0.0
H1351 H 0.88165 0.08084 0.66313 0.0
C1352 C 0.82867 0.0997 0.65664 0.0
C1353 C 0.84314 0.11692 0.66961 0.0
C1354 C 0.83477 0.08765 0.64379 0.0
C1355 C 0.87427 0.0723 0.64742 0.0
H1356 H 0.83797 0.97219 0.60339 0.0
H1357 H 0.83589 0.00412 0.60837 0.0
H1358 H 0.88677 0.05206 0.65184 0.0
H1359 H 0.87537 0.13577 0.67867 0.0
H1360 H 0.8863 0.11501 0.65575 0.0
H1361 H 0.84125 0.06822 0.60435 0.0
C1362 C 0.85074 0.00508 0.61022 0.0
C1363 C 0.87716 0.05566 0.64098 0.0
C1364 C 0.85186 0.98678 0.60748 0.0
C1365 C 0.86403 0.12276 0.66842 0.0
C1366 C 0.87018 0.11068 0.65556 0.0
C1367 C 0.85136 0.06494 0.61476 0.0
C1368 C 0.86839 0.02412 0.61638 0.0
C1369 C 0.86682 0.0431 0.62166 0.0
C1370 C 0.85548 0.09243 0.6439 0.0
C1371 C 0.86099 0.07691 0.63471 0.0
H1372 H 0.90303 0.00687 0.61876 0.0
H1373 H 0.90123 0.03891 0.6234 0.0
H1374 H 0.84627 0.03909 0.59314 0.0
H1375 H 0.8124 0.09473 0.65768 0.0
H1376 H 0.82295 0.07368 0.63526 0.0
C1377 C 0.54814 0.34254 0.72253 0.0
C1378 C 0.54893 0.36115 0.72935 0.0
C1379 C 0.52931 0.32375 0.72216 0.0
C1380 C 0.47465 0.29862 0.7415 0.0
H1381 H 0.4635 0.26789 0.68375 0.0
C1382 C 0.39506 0.25432 0.69974 0.0
C1383 C 0.38978 0.2369 0.6856 0.0
C1384 C 0.41412 0.26451 0.71096 0.0
C1385 C 0.46643 0.27586 0.70027 0.0
H1386 H 0.53128 0.3751 0.74169 0.0
H1387 H 0.49822 0.34234 0.74089 0.0
H1388 H 0.49828 0.29586 0.69228 0.0
H1389 H 0.39971 0.21604 0.67225 0.0
H1390 H 0.43333 0.23381 0.69206 0.0
H1391 H 0.44251 0.27914 0.74896 0.0
C1392 C 0.51206 0.34202 0.73617 0.0
C1393 C 0.48641 0.292 0.70515 0.0
C1394 C 0.5309 0.36079 0.7365 0.0
C1395 C 0.40338 0.22915 0.68362 0.0
C1396 C 0.42264 0.23948 0.69469 0.0
C1397 C 0.45465 0.28244 0.73664 0.0
C1398 C 0.51098 0.32333 0.72859 0.0
C1399 C 0.49061 0.30405 0.72544 0.0
C1400 C 0.42846 0.25769 0.7079 0.0
C1401 C 0.45017 0.27139 0.71557 0.0
H1402 H 0.56199 0.3426 0.71697 0.0
H1403 H 0.52903 0.30962 0.71644 0.0
H1404 H 0.47749 0.30735 0.7575 0.0
H1405 H 0.38479 0.26064 0.70126 0.0
H1406 H 0.41815 0.27863 0.72067 0.0
C1407 C 0.60719 0.0943 0.69885 0.0
C1408 C 0.60309 0.10802 0.6863 0.0
C1409 C 0.62705 0.09688 0.69876 0.0
C1410 C 0.68159 0.13592 0.68637 0.0
H1411 H 0.6881 0.08718 0.6804 0.0
C1412 C 0.76099 0.14362 0.66998 0.0
C1413 C 0.76593 0.13092 0.68355 0.0
C1414 C 0.74084 0.14013 0.66941 0.0
C1415 C 0.68653 0.10093 0.68225 0.0
H1416 H 0.61588 0.13504 0.66393 0.0
H1417 H 0.65051 0.13955 0.66354 0.0
H1418 H 0.65355 0.08271 0.68233 0.0
H1419 H 0.75328 0.10407 0.70646 0.0
H1420 H 0.71824 0.09808 0.70544 0.0
H1421 H 0.71454 0.15414 0.68628 0.0
C1422 C 0.6387 0.127 0.67373 0.0
C1423 C 0.66674 0.09837 0.68343 0.0
C1424 C 0.6189 0.1244 0.67385 0.0
C1425 C 0.75007 0.1142 0.69584 0.0
C1426 C 0.72992 0.11068 0.69518 0.0
C1427 C 0.70135 0.13848 0.68515 0.0
C1428 C 0.64301 0.11323 0.68611 0.0
C1429 C 0.66404 0.11584 0.68546 0.0
C1430 C 0.72515 0.12382 0.68229 0.0
C1431 C 0.70407 0.12102 0.68304 0.0
H1432 H 0.59507 0.08155 0.70854 0.0
H1433 H 0.62992 0.08616 0.70868 0.0
H1434 H 0.68007 0.14969 0.68831 0.0
H1435 H 0.77279 0.15664 0.66029 0.0
H1436 H 0.73758 0.15035 0.65903 0.0
C1437 C 0.83958 0.47772 0.73976 0.0
C1438 C 0.81995 0.45986 0.73884 0.0
C1439 C 0.84176 0.49772 0.73893 0.0
C1440 C 0.81437 0.52474 0.71817 0.0
H1441 H 0.85837 0.57222 0.75051 0.0
C1442 C 0.83262 0.60876 0.69739 0.0
C1443 C 0.85344 0.62167 0.69165 0.0
C1444 C 0.82629 0.58997 0.70944 0.0
C1445 C 0.84594 0.55913 0.7414 0.0
H1446 H 0.7872 0.44855 0.73682 0.0
H1447 H 0.79086 0.48343 0.73562 0.0
H1448 H 0.85179 0.537 0.75883 0.0
H1449 H 0.88417 0.62626 0.69571 0.0
H1450 H 0.87345 0.59418 0.71701 0.0
H1451 H 0.80899 0.54691 0.70015 0.0
C1452 C 0.80464 0.48216 0.73676 0.0
C1453 C 0.84223 0.53892 0.7461 0.0
C1454 C 0.8025 0.46219 0.73762 0.0
C1455 C 0.868 0.61659 0.70002 0.0
C1456 C 0.86181 0.59814 0.71228 0.0
C1457 C 0.81808 0.54496 0.71348 0.0
C1458 C 0.82431 0.50022 0.73707 0.0
C1459 C 0.82675 0.52148 0.7341 0.0
C1460 C 0.84079 0.58407 0.71622 0.0
C1461 C 0.8343 0.56249 0.72455 0.0
H1462 H 0.85325 0.47621 0.74051 0.0
H1463 H 0.85716 0.5112 0.73888 0.0
H1464 H 0.80243 0.51178 0.70841 0.0
H1465 H 0.82116 0.61233 0.69107 0.0
H1466 H 0.80999 0.57962 0.71246 0.0
C1467 C 0.48185 0.94546 0.26268 0.0
C1468 C 0.46498 0.92517 0.26496 0.0
C1469 C 0.49126 0.95263 0.24116 0.0
C1470 C 0.48053 0.94052 0.17814 0.0
H1471 H 0.53693 0.98601 0.17254 0.0
C1472 C 0.51431 0.97703 0.08994 0.0
C1473 C 0.51897 0.998 0.08953 0.0
C1474 C 0.51209 0.96687 0.11107 0.0
C1475 C 0.52123 0.97315 0.17387 0.0
H1476 H 0.44526 0.89606 0.24709 0.0
H1477 H 0.46234 0.90798 0.20977 0.0
H1478 H 0.52417 0.9696 0.21015 0.0
H1479 H 0.52692 0.02531 0.11069 0.0
H1480 H 0.5238 0.00777 0.14752 0.0
H1481 H 0.4778 0.94405 0.14175 0.0
C1482 C 0.4679 0.91881 0.22421 0.0
C1483 C 0.51377 0.96386 0.19546 0.0
C1484 C 0.45818 0.91185 0.24563 0.0
C1485 C 0.52333 0.00915 0.1105 0.0
C1486 C 0.52157 0.99913 0.13157 0.0
C1487 C 0.48814 0.94947 0.15653 0.0
C1488 C 0.48428 0.9395 0.22148 0.0
C1489 C 0.49311 0.94777 0.19806 0.0
C1490 C 0.515 0.97767 0.13207 0.0
C1491 C 0.50838 0.96619 0.15427 0.0
H1492 H 0.48722 0.95605 0.27737 0.0
H1493 H 0.50349 0.96875 0.23989 0.0
H1494 H 0.46446 0.92853 0.17925 0.0
H1495 H 0.5107 0.96799 0.07409 0.0
H1496 H 0.50707 0.95032 0.11102 0.0
C1497 C 0.13961 0.5824 0.22541 0.0
C1498 C 0.15484 0.57708 0.2207 0.0
C1499 C 0.12616 0.58138 0.20797 0.0
C1500 C 0.11977 0.58247 0.1453 0.0
H1501 H 0.06131 0.54818 0.15762 0.0
C1502 C 0.0584 0.55016 0.07276 0.0
C1503 C 0.03786 0.54401 0.07804 0.0
C1504 C 0.07372 0.55884 0.08982 0.0
C1505 C 0.07751 0.55832 0.15392 0.0
H1506 H 0.1683 0.56704 0.19399 0.0
H1507 H 0.14492 0.5656 0.16329 0.0
H1508 H 0.0861 0.55416 0.18804 0.0
H1509 H 0.01737 0.54341 0.10472 0.0
H1510 H 0.04422 0.55977 0.13424 0.0
H1511 H 0.11132 0.58691 0.11128 0.0
C1512 C 0.14337 0.57045 0.18053 0.0
C1513 C 0.09174 0.56156 0.1714 0.0
C1514 C 0.1566 0.57109 0.1981 0.0
C1515 C 0.03314 0.54811 0.10021 0.0
C1516 C 0.04852 0.55719 0.11719 0.0
C1517 C 0.10552 0.57956 0.12787 0.0
C1518 C 0.1279 0.5754 0.18537 0.0
C1519 C 0.11299 0.57335 0.16716 0.0
C1520 C 0.06884 0.56172 0.11257 0.0
C1521 C 0.08415 0.5671 0.13178 0.0
H1522 H 0.13787 0.58698 0.24272 0.0
H1523 H 0.11438 0.5853 0.21214 0.0
H1524 H 0.13611 0.59182 0.14168 0.0
H1525 H 0.06231 0.54655 0.05599 0.0
H1526 H 0.08901 0.56183 0.08545 0.0
C1527 C 0.46104 0.60396 0.20413 0.0
C1528 C 0.45745 0.59498 0.22628 0.0
C1529 C 0.46687 0.59561 0.18585 0.0
C1530 C 0.49256 0.56533 0.17429 0.0
H1531 H 0.46869 0.55791 0.11297 0.0
C1532 C 0.50456 0.51797 0.10267 0.0
C1533 C 0.50382 0.52289 0.07931 0.0
C1534 C 0.5014 0.52899 0.12036 0.0
C1535 C 0.47586 0.56026 0.12985 0.0
H1536 H 0.45667 0.56997 0.24656 0.0
H1537 H 0.46689 0.55529 0.21451 0.0
H1538 H 0.45671 0.5714 0.14417 0.0
H1539 H 0.50038 0.5441 0.05646 0.0
H1540 H 0.49568 0.56394 0.08724 0.0
H1541 H 0.51188 0.55445 0.16004 0.0
C1542 C 0.46528 0.56887 0.21137 0.0
C1543 C 0.46885 0.56786 0.14778 0.0
C1544 C 0.45921 0.5771 0.22963 0.0
C1545 C 0.50126 0.54005 0.07418 0.0
C1546 C 0.4982 0.55119 0.0919 0.0
C1547 C 0.49972 0.55792 0.15632 0.0
C1548 C 0.46943 0.57821 0.18936 0.0
C1549 C 0.47695 0.57026 0.17026 0.0
C1550 C 0.49754 0.54535 0.1152 0.0
C1551 C 0.4913 0.55504 0.1339 0.0
H1552 H 0.45972 0.61772 0.20106 0.0
H1553 H 0.47004 0.60322 0.16915 0.0
H1554 H 0.49941 0.56742 0.19133 0.0
H1555 H 0.50652 0.50485 0.10733 0.0
H1556 H 0.50085 0.52386 0.13801 0.0
C1557 C 0.87604 0.43478 0.79505 0.0
C1558 C 0.85678 0.41675 0.79832 0.0
C1559 C 0.89038 0.44277 0.81319 0.0
C1560 C 0.89626 0.44669 0.87535 0.0
H1561 H 0.95009 0.45261 0.86505 0.0
C1562 C 0.95755 0.47806 0.94784 0.0
C1563 C 0.97807 0.49147 0.94128 0.0
C1564 C 0.94245 0.46634 0.93127 0.0
C1565 C 0.93528 0.45138 0.86821 0.0
H1566 H 0.83703 0.39327 0.82303 0.0
H1567 H 0.86188 0.40779 0.85512 0.0
H1568 H 0.92432 0.43892 0.83423 0.0
H1569 H 0.99894 0.50302 0.91212 0.0
H1570 H 0.97271 0.48341 0.88315 0.0
H1571 H 0.90728 0.4601 0.90876 0.0
C1572 C 0.86595 0.4155 0.83846 0.0
C1573 C 0.9205 0.44342 0.85054 0.0
C1574 C 0.8518 0.40723 0.82019 0.0
C1575 C 0.98328 0.4926 0.91779 0.0
C1576 C 0.96817 0.48117 0.90115 0.0
C1577 C 0.91118 0.45509 0.89288 0.0
C1578 C 0.88549 0.43311 0.83499 0.0
C1579 C 0.90093 0.44115 0.85391 0.0
C1580 C 0.94743 0.46814 0.90757 0.0
C1581 C 0.931 0.45773 0.88951 0.0
H1582 H 0.88024 0.44224 0.77826 0.0
H1583 H 0.90532 0.45645 0.81018 0.0
H1584 H 0.88125 0.44511 0.8783 0.0
H1585 H 0.95291 0.47764 0.9656 0.0
H1586 H 0.92677 0.45641 0.93706 0.0
C1587 C 0.58189 0.44388 0.8097 0.0
C1588 C 0.57363 0.43781 0.78733 0.0
C1589 C 0.56975 0.44454 0.82771 0.0
C1590 C 0.52956 0.45578 0.83941 0.0
H1591 H 0.52077 0.42575 0.89708 0.0
C1592 C 0.4899 0.47248 0.91427 0.0
C1593 C 0.49823 0.47372 0.93638 0.0
C1594 C 0.49443 0.46295 0.89601 0.0
C1595 C 0.52322 0.43447 0.88123 0.0
H1596 H 0.54638 0.42772 0.76608 0.0
H1597 H 0.52534 0.42973 0.79747 0.0
H1598 H 0.53915 0.42017 0.86548 0.0
H1599 H 0.51715 0.46528 0.95695 0.0
H1600 H 0.52568 0.44944 0.92533 0.0
H1601 H 0.51523 0.47133 0.85522 0.0
C1602 C 0.54105 0.43355 0.8011 0.0
C1603 C 0.53364 0.43111 0.8631 0.0
C1604 C 0.55304 0.4324 0.78323 0.0
C1605 C 0.51011 0.46413 0.94022 0.0
C1606 C 0.51507 0.45506 0.92189 0.0
C1607 C 0.51962 0.45955 0.85767 0.0
C1608 C 0.54931 0.4396 0.82349 0.0
C1609 C 0.53705 0.44189 0.84214 0.0
C1610 C 0.50799 0.45508 0.89927 0.0
C1611 C 0.51649 0.44915 0.87901 0.0
H1612 H 0.59771 0.44803 0.81325 0.0
H1613 H 0.57647 0.44942 0.84481 0.0
H1614 H 0.53218 0.46441 0.82345 0.0
H1615 H 0.48064 0.47972 0.91088 0.0
H1616 H 0.488 0.46263 0.87913 0.0
C1617 C 0.53429 0.07277 0.76485 0.0
C1618 C 0.53703 0.09291 0.76216 0.0
C1619 C 0.53019 0.06335 0.78662 0.0
C1620 C 0.51069 0.06573 0.84491 0.0
H1621 H 0.53406 0.03099 0.86139 0.0
C1622 C 0.50794 0.03162 0.93695 0.0
C1623 C 0.50608 0.01169 0.93767 0.0
C1624 C 0.50918 0.04125 0.91565 0.0
C1625 C 0.52717 0.04042 0.85695 0.0
H1626 H 0.53826 0.11924 0.78038 0.0
H1627 H 0.53143 0.10292 0.8185 0.0
H1628 H 0.54289 0.04915 0.82455 0.0
H1629 H 0.50191 0.9854 0.91678 0.0
H1630 H 0.50364 1.00193 0.87983 0.0
H1631 H 0.49523 0.05711 0.87771 0.0
C1632 C 0.532 0.09421 0.80368 0.0
C1633 C 0.53226 0.05086 0.83579 0.0
C1634 C 0.53602 0.10361 0.78186 0.0
C1635 C 0.50361 1.00087 0.91679 0.0
C1636 C 0.50477 0.01041 0.89562 0.0
C1637 C 0.50567 0.05532 0.86622 0.0
C1638 C 0.52884 0.07387 0.80631 0.0
C1639 C 0.52396 0.06349 0.82936 0.0
C1640 C 0.50853 0.03105 0.89478 0.0
C1641 C 0.51368 0.04235 0.87233 0.0
H1642 H 0.53457 0.06394 0.74999 0.0
H1643 H 0.52752 0.04754 0.78788 0.0
H1644 H 0.50384 0.07516 0.84042 0.0
H1645 H 0.51003 0.04042 0.95274 0.0
H1646 H 0.51203 0.05715 0.91557 0.0
C1647 C 0.12716 0.24799 0.5772 0.0
C1648 C 0.13288 0.26138 0.59643 0.0
C1649 C 0.13697 0.25539 0.55589 0.0
C1650 C 0.18142 0.30221 0.52758 0.0
H1651 H 0.14669 0.27995 0.47312 0.0
C1652 C 0.18943 0.34566 0.44147 0.0
C1653 C 0.18671 0.33454 0.42075 0.0
C1654 C 0.18774 0.3361 0.46285 0.0
C1655 C 0.1567 0.28609 0.48813 0.0
H1656 H 0.15323 0.29284 0.60879 0.0
H1657 H 0.16959 0.3062 0.57151 0.0
H1658 H 0.13339 0.26418 0.51056 0.0
H1659 H 0.18132 0.30512 0.40614 0.0
H1660 H 0.17775 0.28821 0.44358 0.0
H1661 H 0.2041 0.32521 0.50491 0.0
C1662 C 0.1582 0.28976 0.57277 0.0
C1663 C 0.14912 0.277 0.5097 0.0
C1664 C 0.14873 0.28219 0.59418 0.0
C1665 C 0.18367 0.31415 0.4218 0.0
C1666 C 0.18148 0.30441 0.4432 0.0
C1667 C 0.18881 0.31161 0.50603 0.0
C1668 C 0.15233 0.27654 0.55318 0.0
C1669 C 0.16123 0.28509 0.52987 0.0
C1670 C 0.18284 0.3151 0.46388 0.0
C1671 C 0.17641 0.30376 0.48617 0.0
H1672 H 0.11503 0.23181 0.57864 0.0
H1673 H 0.1323 0.2445 0.54153 0.0
H1674 H 0.19149 0.30864 0.54247 0.0
H1675 H 0.19175 0.36137 0.44117 0.0
H1676 H 0.18875 0.34463 0.47854 0.0
C1677 C 0.79624 0.89147 0.55859 0.0
C1678 C 0.81676 0.90747 0.5559 0.0
C1679 C 0.78117 0.88896 0.54255 0.0
C1680 C 0.77055 0.91493 0.49295 0.0
H1681 H 0.72859 0.85777 0.47919 0.0
C1682 C 0.71601 0.88551 0.41189 0.0
C1683 C 0.69586 0.86893 0.41572 0.0
C1684 C 0.73021 0.89378 0.43022 0.0
C1685 C 0.74003 0.87386 0.48304 0.0
H1686 H 0.83766 0.93356 0.53455 0.0
H1687 H 0.81154 0.92871 0.5059 0.0
H1688 H 0.75464 0.86446 0.50814 0.0
H1689 H 0.6741 0.84981 0.44217 0.0
H1690 H 0.6987 0.86433 0.47401 0.0
H1691 H 0.75614 0.92401 0.46672 0.0
C1692 C 0.80687 0.9184 0.52071 0.0
C1693 C 0.75499 0.87774 0.49976 0.0
C1694 C 0.82189 0.92113 0.53703 0.0
C1695 C 0.68959 0.86237 0.43856 0.0
C1696 C 0.7037 0.8706 0.4568 0.0
C1697 C 0.75567 0.91098 0.47587 0.0
C1698 C 0.78631 0.90214 0.52313 0.0
C1699 C 0.77041 0.89832 0.50514 0.0
C1700 C 0.7244 0.88559 0.45264 0.0
C1701 C 0.74014 0.89039 0.47093 0.0
H1702 H 0.79183 0.88096 0.57321 0.0
H1703 H 0.76545 0.87663 0.54544 0.0
H1704 H 0.78203 0.931 0.49671 0.0
H1705 H 0.72132 0.89085 0.39453 0.0
H1706 H 0.74606 0.90538 0.4265 0.0
C1707 C 0.12485 0.91055 0.56371 0.0
C1708 C 0.12229 0.92796 0.56038 0.0
C1709 C 0.13108 0.9026 0.54534 0.0
C1710 C 0.13354 0.90083 0.48185 0.0
H1711 H 0.17909 0.891 0.4931 0.0
C1712 C 0.16627 0.874 0.40778 0.0
C1713 C 0.17029 0.85781 0.41311 0.0
C1714 C 0.16308 0.88512 0.42538 0.0
C1715 C 0.16623 0.89345 0.48966 0.0
H1716 H 0.1233 0.95013 0.53516 0.0
H1717 H 0.13378 0.93599 0.50299 0.0
H1718 H 0.16618 0.90334 0.52457 0.0
H1719 H 0.17538 0.84152 0.44129 0.0
H1720 H 0.16938 0.8604 0.47184 0.0
H1721 H 0.13306 0.89039 0.44721 0.0
C1722 C 0.13115 0.92859 0.51977 0.0
C1723 C 0.15884 0.90052 0.50773 0.0
C1724 C 0.1252 0.9367 0.53817 0.0
C1725 C 0.1723 0.85389 0.4365 0.0
C1726 C 0.16895 0.86485 0.4541 0.0
C1727 C 0.14077 0.89353 0.46384 0.0
C1728 C 0.13456 0.91173 0.52326 0.0
C1729 C 0.14233 0.90415 0.50406 0.0
C1730 C 0.16365 0.88018 0.4488 0.0
C1731 C 0.15713 0.88959 0.46752 0.0
H1732 H 0.12286 0.90365 0.58071 0.0
H1733 H 0.13338 0.88943 0.54845 0.0
H1734 H 0.12073 0.9034 0.47854 0.0
H1735 H 0.16427 0.87716 0.39004 0.0
H1736 H 0.15942 0.89708 0.42058 0.0
C1737 C 0.54309 0.77128 0.13002 0.0
C1738 C 0.52667 0.75071 0.13255 0.0
C1739 C 0.55853 0.78029 0.14695 0.0
C1740 C 0.5703 0.77573 0.20812 0.0
H1741 H 0.62706 0.8076 0.18756 0.0
C1742 C 0.63787 0.81176 0.27341 0.0
C1743 C 0.65249 0.83287 0.26944 0.0
C1744 C 0.62351 0.79977 0.25627 0.0
C1745 C 0.61129 0.79883 0.1936 0.0
H1746 H 0.5131 0.72378 0.15526 0.0
H1747 H 0.54008 0.73945 0.1847 0.0
H1748 H 0.59935 0.79141 0.15906 0.0
H1749 H 0.66437 0.85742 0.24353 0.0
H1750 H 0.63948 0.83667 0.21392 0.0
H1751 H 0.58221 0.78352 0.24266 0.0
C1752 C 0.54105 0.74863 0.16966 0.0
C1753 C 0.5954 0.78962 0.17726 0.0
C1754 C 0.52568 0.7396 0.15271 0.0
C1755 C 0.6533 0.84125 0.24735 0.0
C1756 C 0.63902 0.82929 0.23025 0.0
C1757 C 0.5862 0.78502 0.22449 0.0
C1758 C 0.55782 0.76896 0.16682 0.0
C1759 C 0.5747 0.77819 0.18431 0.0
C1760 C 0.62357 0.80859 0.2347 0.0
C1761 C 0.60688 0.79693 0.21741 0.0
H1762 H 0.54434 0.78019 0.11463 0.0
H1763 H 0.57109 0.79611 0.14442 0.0
H1764 H 0.55451 0.76713 0.21413 0.0
H1765 H 0.63704 0.80472 0.29003 0.0
H1766 H 0.6121 0.78373 0.26009 0.0
C1767 C 0.21684 0.76435 0.1181 0.0
C1768 C 0.23758 0.77022 0.12203 0.0
C1769 C 0.20479 0.7652 0.13608 0.0
C1770 C 0.19826 0.76325 0.19839 0.0
H1771 H 0.1774 0.80144 0.19007 0.0
C1772 C 0.17517 0.79685 0.27518 0.0
C1773 C 0.16235 0.8054 0.2715 0.0
C1774 C 0.18004 0.78761 0.25696 0.0
C1775 C 0.18249 0.79021 0.19266 0.0
H1776 H 0.26186 0.78097 0.14777 0.0
H1777 H 0.24054 0.78189 0.17949 0.0
H1778 H 0.19435 0.79474 0.15812 0.0
H1779 H 0.14315 0.80948 0.24644 0.0
H1780 H 0.15048 0.79216 0.21488 0.0
H1781 H 0.18616 0.75829 0.23272 0.0
C1782 C 0.23373 0.77685 0.16245 0.0
C1783 C 0.19242 0.78656 0.17429 0.0
C1784 C 0.24593 0.77647 0.14435 0.0
C1785 C 0.15311 0.80302 0.24971 0.0
C1786 C 0.15761 0.79336 0.23156 0.0
C1787 C 0.18788 0.76649 0.21664 0.0
C1788 C 0.21314 0.77144 0.1584 0.0
C1789 C 0.2008 0.77345 0.17717 0.0
C1790 C 0.17197 0.78648 0.23459 0.0
C1791 C 0.1803 0.78047 0.21426 0.0
H1792 H 0.21011 0.75954 0.10099 0.0
H1793 H 0.18896 0.76101 0.13257 0.0
H1794 H 0.20446 0.7529 0.20089 0.0
H1795 H 0.18295 0.79895 0.29163 0.0
H1796 H 0.19131 0.7828 0.26018 0.0
C1797 C 0.20416 0.40507 0.09425 0.0
C1798 C 0.20227 0.42288 0.09094 0.0
C1799 C 0.20121 0.39603 0.11617 0.0
C1800 C 0.1767 0.39351 0.17285 0.0
H1801 H 0.20846 0.36791 0.19267 0.0
C1802 C 0.1764 0.36277 0.26608 0.0
C1803 C 0.17768 0.34441 0.2675 0.0
C1804 C 0.17716 0.37179 0.24451 0.0
C1805 C 0.19929 0.37479 0.18727 0.0
H1806 H 0.19682 0.4458 0.10815 0.0
H1807 H 0.19216 0.43034 0.14651 0.0
H1808 H 0.21602 0.38583 0.15567 0.0
H1809 H 0.17871 0.32009 0.24737 0.0
H1810 H 0.17977 0.33564 0.20997 0.0
H1811 H 0.16024 0.38266 0.20486 0.0
C1812 C 0.19532 0.42297 0.1321 0.0
C1813 C 0.20363 0.38507 0.16603 0.0
C1814 C 0.19813 0.43192 0.11016 0.0
C1815 C 0.17797 0.33438 0.2469 0.0
C1816 C 0.17873 0.34336 0.22546 0.0
C1817 C 0.17247 0.38333 0.19425 0.0
C1818 C 0.19646 0.40469 0.13533 0.0
C1819 C 0.19229 0.39442 0.15841 0.0
C1820 C 0.17921 0.36259 0.22406 0.0
C1821 C 0.18358 0.37366 0.20155 0.0
H1822 H 0.20706 0.39762 0.07971 0.0
H1823 H 0.20195 0.38181 0.11789 0.0
H1824 H 0.16746 0.40028 0.16743 0.0
H1825 H 0.17628 0.37094 0.28162 0.0
H1826 H 0.17745 0.38661 0.24396 0.0
C1827 C 0.79329 0.58148 0.91173 0.0
C1828 C 0.79976 0.59475 0.93111 0.0
C1829 C 0.80281 0.58878 0.89028 0.0
C1830 C 0.84796 0.63472 0.86175 0.0
H1831 H 0.81245 0.61391 0.80773 0.0
C1832 C 0.85672 0.67915 0.77623 0.0
C1833 C 0.85319 0.66798 0.75539 0.0
C1834 C 0.85498 0.66938 0.79747 0.0
C1835 C 0.82266 0.61963 0.82261 0.0
H1836 H 0.82117 0.6259 0.94354 0.0
H1837 H 0.83706 0.63913 0.90602 0.0
H1838 H 0.79914 0.59824 0.84522 0.0
H1839 H 0.84638 0.63822 0.74038 0.0
H1840 H 0.84276 0.62097 0.77761 0.0
H1841 H 0.87092 0.65725 0.83894 0.0
C1842 C 0.82526 0.62284 0.90727 0.0
C1843 C 0.81507 0.61059 0.8442 0.0
C1844 C 0.81605 0.61535 0.92881 0.0
C1845 C 0.84936 0.64729 0.75614 0.0
C1846 C 0.84713 0.63736 0.77742 0.0
C1847 C 0.85538 0.64408 0.84019 0.0
C1848 C 0.81868 0.60972 0.88758 0.0
C1849 C 0.82749 0.61819 0.86422 0.0
C1850 C 0.84926 0.64814 0.79825 0.0
C1851 C 0.8427 0.63674 0.82049 0.0
H1852 H 0.78084 0.56545 0.9132 0.0
H1853 H 0.79758 0.57797 0.87581 0.0
H1854 H 0.85824 0.64074 0.87652 0.0
H1855 H 0.85965 0.6951 0.77615 0.0
H1856 H 0.85659 0.67799 0.81329 0.0
C1857 C 0.48428 0.25191 0.87719 0.0
C1858 C 0.48023 0.23804 0.89565 0.0
C1859 C 0.46873 0.24843 0.86127 0.0
C1860 C 0.41869 0.20541 0.83958 0.0
H1861 H 0.41482 0.25003 0.80891 0.0
C1862 C 0.35298 0.1852 0.77674 0.0
C1863 C 0.35913 0.194 0.75464 0.0
C1864 C 0.36637 0.19357 0.7956 0.0
C1865 C 0.41575 0.23744 0.81736 0.0
H1866 H 0.45654 0.21037 0.91272 0.0
H1867 H 0.42928 0.20457 0.8855 0.0
H1868 H 0.44105 0.25856 0.83896 0.0
H1869 H 0.38344 0.21959 0.73538 0.0
H1870 H 0.40693 0.23424 0.76843 0.0
H1871 H 0.39357 0.18431 0.8181 0.0
C1872 C 0.44459 0.21775 0.88271 0.0
C1873 C 0.43082 0.2423 0.83449 0.0
C1874 C 0.46018 0.22108 0.89839 0.0
C1875 C 0.3782 0.21255 0.75223 0.0
C1876 C 0.3917 0.2209 0.77116 0.0
C1877 C 0.40361 0.20059 0.82272 0.0
C1878 C 0.44873 0.23111 0.86364 0.0
C1879 C 0.43248 0.2263 0.84581 0.0
C1880 C 0.38626 0.21085 0.79277 0.0
C1881 C 0.40192 0.2165 0.81141 0.0
H1882 H 0.49966 0.26507 0.87463 0.0
H1883 H 0.47259 0.25893 0.84671 0.0
H1884 H 0.41981 0.19266 0.84735 0.0
H1885 H 0.33829 0.17104 0.77919 0.0
H1886 H 0.36156 0.18578 0.81217 0.0
C1887 C 0.79658 0.23838 0.90061 0.0
C1888 C 0.79407 0.25595 0.89881 0.0
C1889 C 0.80232 0.23104 0.88126 0.0
C1890 C 0.80287 0.23096 0.81776 0.0
H1891 H 0.84875 0.22096 0.82494 0.0
C1892 C 0.83252 0.2048 0.73991 0.0
C1893 C 0.83695 0.18873 0.74419 0.0
C1894 C 0.82995 0.21571 0.75825 0.0
C1895 C 0.83578 0.22346 0.82262 0.0
H1896 H 0.79472 0.2791 0.87531 0.0
H1897 H 0.80431 0.26599 0.84137 0.0
H1898 H 0.83705 0.23277 0.85804 0.0
H1899 H 0.84321 0.17225 0.77117 0.0
H1900 H 0.8382 0.19068 0.803 0.0
H1901 H 0.80101 0.221 0.78264 0.0
C1902 C 0.80202 0.25801 0.85774 0.0
C1903 C 0.8291 0.23023 0.84163 0.0
C1904 C 0.79659 0.26553 0.87714 0.0
C1905 C 0.83983 0.18457 0.76721 0.0
C1906 C 0.83707 0.19529 0.78554 0.0
C1907 C 0.80936 0.22391 0.79881 0.0
C1908 C 0.80534 0.24095 0.85969 0.0
C1909 C 0.81248 0.2339 0.83943 0.0
C1910 C 0.83151 0.21061 0.78136 0.0
C1911 C 0.8258 0.21987 0.80102 0.0
H1912 H 0.79489 0.23083 0.91716 0.0
H1913 H 0.80457 0.21771 0.88318 0.0
H1914 H 0.78996 0.23358 0.8156 0.0
H1915 H 0.82975 0.20805 0.72249 0.0
H1916 H 0.82605 0.22766 0.75428 0.0
C1917 C 0.1948 0.0749 0.48572 0.0
C1918 C 0.19526 0.08631 0.46603 0.0
C1919 C 0.20993 0.08408 0.5029 0.0
C1920 C 0.26304 0.12783 0.51244 0.0
H1921 H 0.24881 0.11679 0.57737 0.0
C1922 C 0.31717 0.17792 0.58632 0.0
C1923 C 0.31701 0.16822 0.60732 0.0
C1924 C 0.30371 0.16642 0.56835 0.0
C1925 C 0.25311 0.11974 0.55931 0.0
H1926 H 0.2118 0.11651 0.44926 0.0
H1927 H 0.23796 0.13275 0.47954 0.0
H1928 H 0.22189 0.10036 0.54803 0.0
H1929 H 0.3036 0.13846 0.62505 0.0
H1930 H 0.28 0.11836 0.59369 0.0
H1931 H 0.29422 0.14748 0.52378 0.0
C1932 C 0.22608 0.11653 0.48146 0.0
C1933 C 0.23765 0.11038 0.54246 0.0
C1934 C 0.21093 0.10733 0.46425 0.0
C1935 C 0.30395 0.14647 0.60929 0.0
C1936 C 0.29034 0.13497 0.59135 0.0
C1937 C 0.27849 0.13721 0.52928 0.0
C1938 C 0.22589 0.10495 0.50088 0.0
C1939 C 0.24239 0.1145 0.51882 0.0
C1940 C 0.28971 0.14494 0.5709 0.0
C1941 C 0.27367 0.13347 0.55292 0.0
H1942 H 0.18278 0.05875 0.48778 0.0
H1943 H 0.20935 0.07465 0.51751 0.0
H1944 H 0.26732 0.13098 0.49439 0.0
H1945 H 0.32707 0.19461 0.58406 0.0
H1946 H 0.30357 0.17463 0.5529 0.0
C1947 C 0.88797 0.09903 0.44897 0.0
C1948 C 0.90856 0.10451 0.45327 0.0
C1949 C 0.87593 0.10046 0.4666 0.0
C1950 C 0.86835 0.09862 0.52849 0.0
H1951 H 0.84932 0.13827 0.51972 0.0
C1952 C 0.84377 0.13147 0.60482 0.0
C1953 C 0.83144 0.14054 0.6008 0.0
C1954 C 0.84913 0.1226 0.58664 0.0
C1955 C 0.8539 0.12665 0.52242 0.0
H1956 H 0.93259 0.11523 0.47931 0.0
H1957 H 0.91126 0.11711 0.51045 0.0
H1958 H 0.86662 0.13136 0.48827 0.0
H1959 H 0.8137 0.14602 0.57502 0.0
H1960 H 0.82184 0.12934 0.54347 0.0
H1961 H 0.85532 0.0934 0.56238 0.0
C1962 C 0.90458 0.11196 0.49337 0.0
C1963 C 0.86403 0.12289 0.50435 0.0
C1964 C 0.91678 0.11102 0.4756 0.0
C1965 C 0.82324 0.13913 0.57858 0.0
C1966 C 0.82822 0.12984 0.56044 0.0
C1967 C 0.85775 0.10197 0.54643 0.0
C1968 C 0.88413 0.10687 0.48895 0.0
C1969 C 0.87173 0.10922 0.50741 0.0
C1970 C 0.84206 0.12235 0.56394 0.0
C1971 C 0.8508 0.11645 0.54388 0.0
H1972 H 0.88134 0.09401 0.43185 0.0
H1973 H 0.86021 0.09651 0.46281 0.0
H1974 H 0.874 0.08783 0.53113 0.0
H1975 H 0.85079 0.13285 0.6216 0.0
H1976 H 0.85998 0.11733 0.59025 0.0
C1977 C 0.86588 0.76539 0.44384 0.0
C1978 C 0.86798 0.75478 0.42471 0.0
C1979 C 0.8626 0.75677 0.46601 0.0
C1980 C 0.86685 0.71662 0.50029 0.0
H1981 H 0.82715 0.71991 0.54062 0.0
C1982 C 0.84018 0.66786 0.58224 0.0
C1983 C 0.84168 0.67878 0.60277 0.0
C1984 C 0.84089 0.67673 0.56076 0.0
C1985 C 0.83835 0.71898 0.52958 0.0
H1986 H 0.86836 0.72683 0.41391 0.0
H1987 H 0.86256 0.71173 0.45245 0.0
H1988 H 0.8348 0.73697 0.50278 0.0
H1989 H 0.84337 0.70687 0.61688 0.0
H1990 H 0.84458 0.72244 0.57913 0.0
H1991 H 0.8703 0.69854 0.52688 0.0
C1992 C 0.8638 0.7269 0.45046 0.0
C1993 C 0.84282 0.72882 0.50795 0.0
C1994 C 0.86717 0.73557 0.42833 0.0
C1995 C 0.84209 0.69802 0.60137 0.0
C1996 C 0.84287 0.70698 0.57974 0.0
C1997 C 0.8623 0.70673 0.52176 0.0
C1998 C 0.86128 0.73729 0.46957 0.0
C1999 C 0.85702 0.72761 0.49297 0.0
C2000 C 0.8432 0.69679 0.55926 0.0
C2001 C 0.84786 0.7076 0.53656 0.0
H2002 H 0.86665 0.78034 0.44162 0.0
H2003 H 0.86111 0.76537 0.48038 0.0
H2004 H 0.87821 0.71576 0.48949 0.0
H2005 H 0.83959 0.65289 0.58275 0.0
H2006 H 0.84056 0.66827 0.54526 0.0
loop_
_geom_bond_atom_site_label_1
_geom_bond_atom_site_label_2
_geom_bond_distance
_geom_bond_site_symmetry_2
_ccdc_geom_bond_type
H0 C3 0.929 . S
H1 C6 0.929 . S
H2 C8 0.930 . S
C3 H0 0.929 . S
C3 C4 1.398 . S
C3 C5 1.396 . S
C4 C3 1.398 . S
C4 C8 1.407 . S
C5 C3 1.396 . S
C5 C6 1.394 . S
C6 H1 0.929 . S
C6 C5 1.394 . S
C6 C7 1.382 . S
C7 C6 1.382 . S
C7 C8 1.392 . S
C7 N9 1.420 . S
C8 H2 0.930 . S
C8 C4 1.407 . S
C8 C7 1.392 . S
N9 C7 1.420 . S
N9 C10 1.244 . S
C10 N9 1.244 . S
H11 C14 0.929 . S
H12 C17 0.929 . S
H13 C19 0.930 . S
C14 H11 0.929 . S
C14 C15 1.398 . S
C14 C16 1.396 . S
C15 C14 1.398 . S
C15 C19 1.407 . S
C16 C14 1.396 . S
C16 C17 1.394 . S
C17 H12 0.929 . S
C17 C16 1.394 . S
C17 C18 1.382 . S
C18 C17 1.382 . S
C18 C19 1.392 . S
C18 N20 1.420 . S
C19 H13 0.930 . S
C19 C15 1.407 . S
C19 C18 1.392 . S
N20 C18 1.420 . S
N20 C21 1.244 . S
C21 N20 1.244 . S
H22 C25 0.929 . S
H23 C28 0.929 . S
H24 C30 0.930 . S
C25 H22 0.929 . S
C25 C26 1.398 . S
C25 C27 1.396 . S
C26 C25 1.398 . S
C26 C30 1.407 . S
C27 C25 1.396 . S
C27 C28 1.394 . S
C28 H23 0.929 . S
C28 C27 1.394 . S
C28 C29 1.382 . S
C29 C28 1.382 . S
C29 C30 1.392 . S
C29 N31 1.420 . S
C30 H24 0.930 . S
C30 C26 1.407 . S
C30 C29 1.392 . S
N31 C29 1.420 . S
N31 C32 1.244 . S
C32 N31 1.244 . S
H33 C36 0.929 . S
H34 C39 0.929 . S
H35 C41 0.930 . S
C36 H33 0.929 . S
C36 C37 1.398 . S
C36 C38 1.396 . S
C37 C36 1.398 . S
C37 C41 1.407 . S
C38 C36 1.396 . S
C38 C39 1.394 . S
C39 H34 0.929 . S
C39 C38 1.394 . S
C39 C40 1.382 . S
C40 C39 1.382 . S
C40 C41 1.392 . S
C40 N42 1.420 . S
C41 H35 0.930 . S
C41 C37 1.407 . S
C41 C40 1.392 . S
N42 C40 1.420 . S
N42 C43 1.244 . S
C43 N42 1.244 . S
H44 C47 0.929 . S
H45 C50 0.929 . S
H46 C52 0.930 . S
C47 H44 0.929 . S
C47 C48 1.398 . S
C47 C49 1.396 . S
C48 C47 1.398 . S
C48 C52 1.407 . S
C49 C47 1.396 . S
C49 C50 1.394 . S
C50 H45 0.929 . S
C50 C49 1.394 . S
C50 C51 1.382 . S
C51 C50 1.382 . S
C51 C52 1.392 . S
C51 N53 1.420 . S
C52 H46 0.930 . S
C52 C48 1.407 . S
C52 C51 1.392 . S
N53 C51 1.420 . S
N53 C54 1.244 . S
C54 N53 1.244 . S
H55 C58 0.929 . S
H56 C61 0.929 . S
H57 C63 0.930 . S
C58 H55 0.929 . S
C58 C59 1.398 . S
C58 C60 1.396 . S
C59 C58 1.398 . S
C59 C63 1.407 . S
C60 C58 1.396 . S
C60 C61 1.394 . S
C61 H56 0.929 . S
C61 C60 1.394 . S
C61 C62 1.382 . S
C62 C61 1.382 . S
C62 C63 1.392 . S
C62 N64 1.420 . S
C63 H57 0.930 . S
C63 C59 1.407 . S
C63 C62 1.392 . S
N64 C62 1.420 . S
N64 C65 1.244 . S
C65 N64 1.244 . S
H66 C69 0.929 . S
H67 C72 0.929 . S
H68 C74 0.930 . S
C69 H66 0.929 . S
C69 C70 1.398 . S
C69 C71 1.396 . S
C70 C69 1.398 . S
C70 C74 1.407 . S
C71 C69 1.396 . S
C71 C72 1.394 . S
C72 H67 0.929 . S
C72 C71 1.394 . S
C72 C73 1.382 . S
C73 C72 1.382 . S
C73 C74 1.392 . S
C73 N75 1.420 . S
C74 H68 0.930 . S
C74 C70 1.407 . S
C74 C73 1.392 . S
N75 C73 1.420 . S
N75 C76 1.244 . S
C76 N75 1.244 . S
H77 C80 0.929 . S
H78 C83 0.929 . S
H79 C85 0.930 . S
C80 H77 0.929 . S
C80 C81 1.398 . S
C80 C82 1.396 . S
C81 C80 1.398 . S
C81 C85 1.407 . S
C82 C80 1.396 . S
C82 C83 1.394 . S
C83 H78 0.929 . S
C83 C82 1.394 . S
C83 C84 1.382 . S
C84 C83 1.382 . S
C84 C85 1.392 . S
C84 N86 1.420 . S
C85 H79 0.930 . S
C85 C81 1.407 . S
C85 C84 1.392 . S
N86 C84 1.420 . S
N86 C87 1.244 . S
C87 N86 1.244 . S
H88 C91 0.929 . S
H89 C94 0.929 . S
H90 C96 0.930 . S
C91 H88 0.929 . S
C91 C92 1.398 . S
C91 C93 1.396 . S
C92 C91 1.398 . S
C92 C96 1.407 . S
C93 C91 1.396 . S
C93 C94 1.394 . S
C94 H89 0.929 . S
C94 C93 1.394 . S
C94 C95 1.382 . S
C95 C94 1.382 . S
C95 C96 1.392 . S
C95 N97 1.420 . S
C96 H90 0.930 . S
C96 C92 1.407 . S
C96 C95 1.392 . S
N97 C95 1.420 . S
N97 C98 1.244 . S
C98 N97 1.244 . S
H99 C102 0.929 . S
H100 C105 0.929 . S
H101 C107 0.930 . S
C102 H99 0.929 . S
C102 C103 1.398 . S
C102 C104 1.396 . S
C103 C102 1.398 . S
C103 C107 1.407 1_556 S
C104 C102 1.396 . S
C104 C105 1.394 . S
C105 H100 0.929 . S
C105 C104 1.394 . S
C105 C106 1.382 . S
C106 C105 1.382 . S
C106 C107 1.392 1_556 S
C106 N108 1.420 1_556 S
C107 H101 0.930 . S
C107 C103 1.407 1_554 S
C107 C106 1.392 1_554 S
N108 C106 1.420 1_554 S
N108 C109 1.244 . S
C109 N108 1.244 . S
H110 C113 0.929 . S
H111 C116 0.929 . S
H112 C118 0.930 . S
C113 H110 0.929 . S
C113 C114 1.398 . S
C113 C115 1.396 . S
C114 C113 1.398 . S
C114 C118 1.407 1_556 S
C115 C113 1.396 . S
C115 C116 1.394 . S
C116 H111 0.929 . S
C116 C115 1.394 . S
C116 C117 1.382 . S
C117 C116 1.382 . S
C117 C118 1.392 1_556 S
C117 N119 1.420 1_556 S
C118 H112 0.930 . S
C118 C114 1.407 1_554 S
C118 C117 1.392 1_554 S
N119 C117 1.420 1_554 S
N119 C120 1.244 . S
C120 N119 1.244 . S
H121 C124 0.929 . S
H122 C127 0.929 . S
H123 C129 0.930 . S
C124 H121 0.929 . S
C124 C125 1.398 . S
C124 C126 1.396 . S
C125 C124 1.398 . S
C125 C129 1.407 1_556 S
C126 C124 1.396 . S
C126 C127 1.394 . S
C127 H122 0.929 . S
C127 C126 1.394 . S
C127 C128 1.382 . S
C128 C127 1.382 . S
C128 C129 1.392 1_556 S
C128 N130 1.420 1_556 S
C129 H123 0.930 . S
C129 C125 1.407 1_554 S
C129 C128 1.392 1_554 S
N130 C128 1.420 1_554 S
N130 C131 1.244 1_554 S
C131 N130 1.244 1_556 S
H132 C135 0.929 . S
H133 C138 0.929 . S
H134 C140 0.887 1_556 S
C135 H132 0.929 . S
C135 C136 1.398 . S
C135 C137 1.396 . S
C136 C135 1.398 . S
C136 C140 1.407 . S
C137 C135 1.396 . S
C137 C138 1.394 . S
C138 H133 0.929 . S
C138 C137 1.394 . S
C138 C139 1.382 . S
C139 C138 1.382 . S
C139 C140 1.392 . S
C139 N141 1.420 . S
C140 H134 0.887 1_554 S
C140 C136 1.407 . S
C140 C139 1.392 . S
N141 C139 1.420 . S
N141 C142 1.244 . S
C142 N141 1.244 . S
H143 C146 0.929 . S
H144 C149 0.929 . S
H145 C151 0.930 1_556 S
C146 H143 0.929 . S
C146 C147 1.398 . S
C146 C148 1.396 . S
C147 C146 1.398 . S
C147 C151 1.407 . S
C148 C146 1.396 . S
C148 C149 1.394 . S
C149 H144 0.929 . S
C149 C148 1.394 . S
C149 C150 1.382 . S
C150 C149 1.382 . S
C150 C151 1.392 . S
C150 N152 1.420 . S
C151 H145 0.930 1_554 S
C151 C147 1.407 . S
C151 C150 1.392 . S
N152 C150 1.420 . S
N152 C153 1.244 . S
C153 N152 1.244 . S
H154 C157 0.929 . S
H155 C160 0.929 . S
H156 C162 0.930 . S
C157 H154 0.929 . S
C157 C158 1.398 . S
C157 C159 1.396 . S
C158 C157 1.398 . S
C158 C162 1.407 . S
C159 C157 1.396 . S
C159 C160 1.394 . S
C160 H155 0.929 . S
C160 C159 1.394 . S
C160 C161 1.382 . S
C161 C160 1.382 . S
C161 C162 1.392 . S
C161 N163 1.420 . S
C162 H156 0.930 . S
C162 C158 1.407 . S
C162 C161 1.392 . S
N163 C161 1.420 . S
N163 C164 1.244 . S
C164 N163 1.244 . S
H165 C168 0.929 . S
H166 C171 0.929 . S
H167 C173 0.930 . S
C168 H165 0.929 . S
C168 C169 1.398 . S
C168 C170 1.396 . S
C169 C168 1.398 . S
C169 C173 1.407 . S
C170 C168 1.396 . S
C170 C171 1.394 . S
C171 H166 0.929 . S
C171 C170 1.394 . S
C171 C172 1.382 . S
C172 C171 1.382 . S
C172 C173 1.392 . S
C172 N174 1.420 . S
C173 H167 0.930 . S
C173 C169 1.407 . S
C173 C172 1.392 . S
N174 C172 1.420 . S
N174 C175 1.244 . S
C175 N174 1.244 . S
H176 C179 0.929 . S
H177 C182 0.929 . S
H178 C184 0.930 . S
C179 H176 0.929 . S
C179 C180 1.398 . S
C179 C181 1.396 . S
C180 C179 1.398 . S
C180 C184 1.407 . S
C181 C179 1.396 . S
C181 C182 1.394 . S
C182 H177 0.929 . S
C182 C181 1.394 . S
C182 C183 1.382 . S
C183 C182 1.382 . S
C183 C184 1.392 . S
C183 N185 1.420 . S
C184 H178 0.930 . S
C184 C180 1.407 . S
C184 C183 1.392 . S
N185 C183 1.420 . S
N185 C186 1.244 . S
C186 N185 1.244 . S
H187 C190 0.929 . S
H188 C193 0.929 . S
H189 C195 0.930 . S
C190 H187 0.929 . S
C190 C191 1.398 . S
C190 C192 1.396 . S
C191 C190 1.398 . S
C191 C195 1.407 . S
C192 C190 1.396 . S
C192 C193 1.394 . S
C193 H188 0.929 . S
C193 C192 1.394 . S
C193 C194 1.382 . S
C194 C193 1.382 . S
C194 C195 1.392 . S
C194 N196 1.420 . S
C195 H189 0.930 . S
C195 C191 1.407 . S
C195 C194 1.392 . S
N196 C194 1.420 . S
N196 C197 1.244 . S
C197 N196 1.244 . S
O198 Mn199 2.163 1_565 S
O198 C212 1.244 . S
Mn199 O198 2.163 1_545 S
Mn199 O202 2.160 . S
Mn199 O203 2.221 1_545 S
Mn199 O205 2.163 1_554 S
Mn199 O207 2.160 . S
Mn199 O217 2.221 . S
O200 Mn201 2.087 1_565 S
O200 C212 1.256 . S
Mn201 O200 2.087 1_545 S
Mn201 O208 2.089 1_545 S
Mn201 O217 2.290 . S
Mn201 O218 2.251 . S
O202 Mn199 2.160 . S
O202 C213 1.239 . S
O203 Mn199 2.221 1_565 S
O203 Mn204 2.290 1_564 S
O203 C214 1.278 1_554 S
Mn204 O203 2.290 1_546 S
Mn204 O206 2.089 . S
Mn204 O209 2.251 1_545 S
Mn204 O210 2.087 . S
O205 Mn199 2.163 1_556 S
O205 C215 1.244 . S
O206 Mn204 2.089 . S
O206 C213 1.256 1_556 S
O207 Mn199 2.160 . S
O207 C216 1.239 1_545 S
O208 Mn201 2.089 1_565 S
O208 C216 1.256 . S
O209 Mn204 2.251 1_565 S
O209 C214 1.241 . S
O210 Mn204 2.087 . S
O210 C215 1.256 . S
C211 O217 1.278 . S
C211 O218 1.241 . S
C212 O198 1.244 . S
C212 O200 1.256 . S
C213 O202 1.239 . S
C213 O206 1.256 1_554 S
C214 O203 1.278 1_556 S
C214 O209 1.241 . S
C215 O205 1.244 . S
C215 O210 1.256 . S
C216 O207 1.239 1_565 S
C216 O208 1.256 . S
O217 Mn199 2.221 . S
O217 Mn201 2.290 . S
O217 C211 1.278 . S
O218 Mn201 2.251 . S
O218 C211 1.241 . S
O219 Mn220 2.163 . S
O219 C233 1.244 . S
Mn220 O219 2.163 . S
Mn220 O223 2.160 1_455 S
Mn220 O224 2.221 . S
Mn220 O226 2.163 1_454 S
Mn220 O228 2.160 . S
Mn220 O238 2.221 1_455 S
O221 Mn222 2.087 . S
O221 C233 1.256 . S
Mn222 O221 2.087 . S
Mn222 O229 2.089 . S
Mn222 O238 2.290 1_455 S
Mn222 O239 2.251 1_455 S
O223 Mn220 2.160 1_655 S
O223 C234 1.239 . S
O224 Mn220 2.221 . S
O224 Mn225 2.290 1_554 S
O224 C235 1.261 1_554 S
Mn225 O224 2.290 1_556 S
Mn225 O227 2.089 1_455 S
Mn225 O230 2.251 . S
Mn225 O231 2.087 . S
O226 Mn220 2.163 1_656 S
O226 C236 1.244 . S
O227 Mn225 2.089 1_655 S
O227 C234 1.256 1_556 S
O228 Mn220 2.160 . S
O228 C237 1.239 . S
O229 Mn222 2.089 . S
O229 C237 1.256 . S
O230 Mn225 2.251 . S
O230 C235 1.283 . S
O231 Mn225 2.087 . S
O231 C236 1.256 1_455 S
C232 O238 1.278 . S
C232 O239 1.241 . S
C233 O219 1.244 . S
C233 O221 1.256 . S
C234 O223 1.239 . S
C234 O227 1.256 1_554 S
C235 O224 1.261 1_556 S
C235 O230 1.283 . S
C236 O226 1.244 . S
C236 O231 1.256 1_655 S
C237 O228 1.239 . S
C237 O229 1.256 . S
O238 Mn220 2.221 1_655 S
O238 Mn222 2.290 1_655 S
O238 C232 1.278 . S
O239 Mn222 2.251 1_655 S
O239 C232 1.241 . S
O240 Mn241 2.163 . S
O240 C254 1.244 . S
Mn241 O240 2.163 . S
Mn241 O244 2.158 1_554 S
Mn241 O245 2.221 . S
Mn241 O247 2.163 . S
Mn241 O249 2.160 1_554 S
Mn241 O259 2.221 1_554 S
O242 Mn243 2.087 . S
O242 C254 1.256 1_556 S
Mn243 O242 2.087 . S
Mn243 O250 2.089 . S
Mn243 O259 2.290 . S
Mn243 O260 2.248 . S
O244 Mn241 2.158 1_556 S
O244 C255 1.231 1_556 S
O245 Mn241 2.221 . S
O245 Mn246 2.290 . S
O245 C256 1.278 . S
Mn246 O245 2.290 . S
Mn246 O248 2.089 . S
Mn246 O251 2.251 . S
Mn246 O252 2.087 . S
O247 Mn241 2.163 . S
O247 C257 1.244 . S
O248 Mn246 2.089 . S
O248 C255 1.256 . S
O249 Mn241 2.160 1_556 S
O249 C258 1.239 . S
O250 Mn243 2.089 . S
O250 C258 1.256 . S
O251 Mn246 2.251 . S
O251 C256 1.241 . S
O252 Mn246 2.087 . S
O252 C257 1.256 . S
C253 O259 1.278 1_554 S
C253 O260 1.242 1_554 S
C254 O240 1.244 . S
C254 O242 1.256 1_554 S
C255 O244 1.231 1_554 S
C255 O248 1.256 . S
C256 O245 1.278 . S
C256 O251 1.241 . S
C257 O247 1.244 . S
C257 O252 1.256 . S
C258 O249 1.239 . S
C258 O250 1.256 . S
O259 Mn241 2.221 1_556 S
O259 Mn243 2.290 . S
O259 C253 1.278 1_556 S
O260 Mn243 2.248 . S
O260 C253 1.242 1_556 S
O261 Mn262 2.163 . S
O261 C275 1.244 . S
Mn262 O261 2.163 . S
Mn262 O265 2.160 . S
Mn262 O266 2.221 . S
Mn262 O268 2.163 . S
Mn262 O270 2.160 . S
Mn262 O280 2.221 . S
O263 Mn264 2.087 . S
O263 C275 1.256 . S
Mn264 O263 2.087 . S
Mn264 O271 2.089 . S
Mn264 O280 2.290 . S
Mn264 O281 2.251 . S
O265 Mn262 2.160 . S
O265 C276 1.239 . S
O266 Mn262 2.221 . S
O266 Mn267 2.290 . S
O266 C277 1.278 . S
Mn267 O266 2.290 . S
Mn267 O269 2.089 . S
Mn267 O272 2.251 . S
Mn267 O273 2.087 . S
O268 Mn262 2.163 . S
O268 C278 1.244 . S
O269 Mn267 2.089 . S
O269 C276 1.256 . S
O270 Mn262 2.160 . S
O270 C279 1.239 . S
O271 Mn264 2.089 . S
O271 C279 1.256 . S
O272 Mn267 2.251 . S
O272 C277 1.241 . S
O273 Mn267 2.087 . S
O273 C278 1.256 . S
C274 O280 1.278 . S
C274 O281 1.241 . S
C275 O261 1.244 . S
C275 O263 1.256 . S
C276 O265 1.239 . S
C276 O269 1.256 . S
C277 O266 1.278 . S
C277 O272 1.241 . S
C278 O268 1.244 . S
C278 O273 1.256 . S
C279 O270 1.239 . S
C279 O271 1.256 . S
O280 Mn262 2.221 . S
O280 Mn264 2.290 . S
O280 C274 1.278 . S
O281 Mn264 2.251 . S
O281 C274 1.241 . S
O282 Mn283 2.163 . S
O282 C296 1.244 . S
Mn283 O282 2.163 . S
Mn283 O286 2.160 . S
Mn283 O287 2.221 . S
Mn283 O289 2.163 . S
Mn283 O291 2.160 . S
Mn283 O301 2.221 . S
O284 Mn285 2.087 . S
O284 C296 1.256 . S
Mn285 O284 2.087 . S
Mn285 O292 2.089 . S
Mn285 O301 2.290 . S
Mn285 O302 2.251 . S
O286 Mn283 2.160 . S
O286 C297 1.239 . S
O287 Mn283 2.221 . S
O287 Mn288 2.290 . S
O287 C298 1.278 . S
Mn288 O287 2.290 . S
Mn288 O290 2.089 . S
Mn288 O293 2.251 . S
Mn288 O294 2.087 . S
O289 Mn283 2.163 . S
O289 C299 1.244 . S
O290 Mn288 2.089 . S
O290 C297 1.256 . S
O291 Mn283 2.160 . S
O291 C300 1.239 . S
O292 Mn285 2.089 . S
O292 C300 1.256 . S
O293 Mn288 2.251 . S
O293 C298 1.241 . S
O294 Mn288 2.087 . S
O294 C299 1.256 . S
C295 O301 1.278 . S
C295 O302 1.241 . S
C296 O282 1.244 . S
C296 O284 1.256 . S
C297 O286 1.239 . S
C297 O290 1.256 . S
C298 O287 1.278 . S
C298 O293 1.241 . S
C299 O289 1.244 . S
C299 O294 1.256 . S
C300 O291 1.239 . S
C300 O292 1.256 . S
O301 Mn283 2.221 . S
O301 Mn285 2.290 . S
O301 C295 1.278 . S
O302 Mn285 2.251 . S
O302 C295 1.241 . S
O303 Mn304 2.163 . S
O303 C317 1.244 . S
Mn304 O303 2.163 . S
Mn304 O307 2.160 . S
Mn304 O308 2.221 . S
Mn304 O310 2.163 . S
Mn304 O312 2.160 . S
Mn304 O322 2.221 . S
O305 Mn306 2.087 . S
O305 C317 1.256 . S
Mn306 O305 2.087 . S
Mn306 O313 2.089 . S
Mn306 O322 2.290 . S
Mn306 O323 2.251 . S
O307 Mn304 2.160 . S
O307 C318 1.239 . S
O308 Mn304 2.221 . S
O308 Mn309 2.290 . S
O308 C319 1.278 . S
Mn309 O308 2.290 . S
Mn309 O311 2.089 . S
Mn309 O314 2.251 . S
Mn309 O315 2.087 . S
O310 Mn304 2.163 . S
O310 C320 1.244 . S
O311 Mn309 2.089 . S
O311 C318 1.256 . S
O312 Mn304 2.160 . S
O312 C321 1.239 . S
O313 Mn306 2.089 . S
O313 C321 1.256 . S
O314 Mn309 2.251 . S
O314 C319 1.241 . S
O315 Mn309 2.087 . S
O315 C320 1.256 . S
C316 O322 1.278 . S
C316 O323 1.241 . S
C317 O303 1.244 . S
C317 O305 1.256 . S
C318 O307 1.239 . S
C318 O311 1.256 . S
C319 O308 1.278 . S
C319 O314 1.241 . S
C320 O310 1.244 . S
C320 O315 1.256 . S
C321 O312 1.239 . S
C321 O313 1.256 . S
O322 Mn304 2.221 . S
O322 Mn306 2.290 . S
O322 C316 1.278 . S
O323 Mn306 2.251 . S
O323 C316 1.241 . S
O324 Mn325 2.163 . S
O324 C338 1.244 . S
Mn325 O324 2.163 . S
Mn325 O328 2.160 . S
Mn325 O329 2.221 . S
Mn325 O331 2.163 . S
Mn325 O333 2.160 . S
Mn325 O343 2.221 . S
O326 Mn327 2.087 . S
O326 C338 1.256 . S
Mn327 O326 2.087 . S
Mn327 O334 2.089 . S
Mn327 O343 2.290 . S
Mn327 O344 2.251 . S
O328 Mn325 2.160 . S
O328 C339 1.239 . S
O329 Mn325 2.221 . S
O329 Mn330 2.290 . S
O329 C340 1.278 . S
Mn330 O329 2.290 . S
Mn330 O332 2.089 . S
Mn330 O335 2.251 . S
Mn330 O336 2.087 . S
O331 Mn325 2.163 . S
O331 C341 1.244 . S
O332 Mn330 2.089 . S
O332 C339 1.256 . S
O333 Mn325 2.160 . S
O333 C342 1.239 . S
O334 Mn327 2.089 . S
O334 C342 1.256 . S
O335 Mn330 2.251 . S
O335 C340 1.241 . S
O336 Mn330 2.087 . S
O336 C341 1.256 . S
C337 O343 1.278 . S
C337 O344 1.241 . S
C338 O324 1.244 . S
C338 O326 1.256 . S
C339 O328 1.239 . S
C339 O332 1.256 . S
C340 O329 1.278 . S
C340 O335 1.241 . S
C341 O331 1.244 . S
C341 O336 1.256 . S
C342 O333 1.239 . S
C342 O334 1.256 . S
O343 Mn325 2.221 . S
O343 Mn327 2.290 . S
O343 C337 1.278 . S
O344 Mn327 2.251 . S
O344 C337 1.241 . S
O345 Mn346 2.163 . S
O345 C359 1.244 . S
Mn346 O345 2.163 . S
Mn346 O349 2.160 . S
Mn346 O350 2.221 . S
Mn346 O352 2.163 . S
Mn346 O354 2.160 . S
Mn346 O364 2.221 . S
O347 Mn348 2.087 . S
O347 C359 1.256 . S
Mn348 O347 2.087 . S
Mn348 O355 2.089 . S
Mn348 O364 2.290 . S
Mn348 O365 2.251 . S
O349 Mn346 2.160 . S
O349 C360 1.239 . S
O350 Mn346 2.221 . S
O350 Mn351 2.290 . S
O350 C361 1.278 . S
Mn351 O350 2.290 . S
Mn351 O353 2.089 . S
Mn351 O356 2.251 . S
Mn351 O357 2.087 . S
O352 Mn346 2.163 . S
O352 C362 1.244 . S
O353 Mn351 2.089 . S
O353 C360 1.256 . S
O354 Mn346 2.160 . S
O354 C363 1.239 . S
O355 Mn348 2.089 . S
O355 C363 1.256 . S
O356 Mn351 2.251 . S
O356 C361 1.241 . S
O357 Mn351 2.087 . S
O357 C362 1.256 . S
C358 O364 1.278 . S
C358 O365 1.241 . S
C359 O345 1.244 . S
C359 O347 1.256 . S
C360 O349 1.239 . S
C360 O353 1.256 . S
C361 O350 1.278 . S
C361 O356 1.241 . S
C362 O352 1.244 . S
C362 O357 1.256 . S
C363 O354 1.239 . S
C363 O355 1.256 . S
O364 Mn346 2.221 . S
O364 Mn348 2.290 . S
O364 C358 1.278 . S
O365 Mn348 2.251 . S
O365 C358 1.241 . S
O366 Mn367 2.163 . S
O366 C380 1.244 . S
Mn367 O366 2.163 . S
Mn367 O370 2.160 . S
Mn367 O371 2.221 . S
Mn367 O373 2.163 . S
Mn367 O375 2.160 . S
Mn367 O385 2.221 . S
O368 Mn369 2.087 . S
O368 C380 1.256 . S
Mn369 O368 2.087 . S
Mn369 O376 2.089 . S
Mn369 O385 2.290 . S
Mn369 O386 2.251 . S
O370 Mn367 2.160 . S
O370 C381 1.239 . S
O371 Mn367 2.221 . S
O371 Mn372 2.290 . S
O371 C382 1.278 . S
Mn372 O371 2.290 . S
Mn372 O374 2.089 . S
Mn372 O377 2.251 . S
Mn372 O378 2.087 . S
O373 Mn367 2.163 . S
O373 C383 1.244 . S
O374 Mn372 2.089 . S
O374 C381 1.256 . S
O375 Mn367 2.160 . S
O375 C384 1.239 . S
O376 Mn369 2.089 . S
O376 C384 1.256 . S
O377 Mn372 2.251 . S
O377 C382 1.241 . S
O378 Mn372 2.087 . S
O378 C383 1.256 . S
C379 O385 1.278 . S
C379 O386 1.241 . S
C380 O366 1.244 . S
C380 O368 1.256 . S
C381 O370 1.239 . S
C381 O374 1.256 . S
C382 O371 1.278 . S
C382 O377 1.241 . S
C383 O373 1.244 . S
C383 O378 1.256 . S
C384 O375 1.239 . S
C384 O376 1.256 . S
O385 Mn367 2.221 . S
O385 Mn369 2.290 . S
O385 C379 1.278 . S
O386 Mn369 2.251 . S
O386 C379 1.241 . S
C387 C388 1.349 . S
C387 C389 1.327 . S
C387 H412 0.950 . S
C388 C387 1.349 . S
C388 C404 1.349 . S
C389 C387 1.327 . S
C389 C408 1.429 . S
C389 H413 0.950 . S
C390 C407 1.575 . S
C390 C409 1.348 1_556 S
C390 H414 0.967 . S
H391 C395 0.949 . S
C392 C393 1.349 1_556 S
C392 C394 1.327 . S
C392 H415 0.950 . S
C393 C392 1.349 1_554 S
C393 C405 1.349 . S
C394 C392 1.327 . S
C394 C410 1.429 1_556 S
C394 H416 0.950 . S
C395 H391 0.949 . S
C395 C403 1.574 . S
C395 C411 1.368 . S
H396 C404 0.950 1_556 S
H397 C402 0.950 1_556 S
H398 C403 0.949 . S
H399 C405 0.950 . S
H400 C406 0.950 . S
H401 C407 0.949 . S
C402 H397 0.950 1_554 S
C402 C404 1.327 . S
C402 C408 1.429 . S
C403 C395 1.574 . S
C403 H398 0.949 . S
C403 C409 1.368 . S
C404 C388 1.349 . S
C404 H396 0.950 1_554 S
C404 C402 1.327 . S
C405 C393 1.349 . S
C405 H399 0.950 . S
C405 C406 1.327 . S
C406 H400 0.950 . S
C406 C405 1.327 . S
C406 C410 1.429 . S
C407 C390 1.575 . S
C407 H401 0.949 . S
C407 C411 1.368 1_556 S
C408 C389 1.429 . S
C408 C402 1.429 . S
C408 C409 1.523 . S
C409 C390 1.348 1_554 S
C409 C403 1.368 . S
C409 C408 1.523 . S
C410 C394 1.429 1_554 S
C410 C406 1.429 . S
C410 C411 1.523 . S
C411 C395 1.368 . S
C411 C407 1.368 1_554 S
C411 C410 1.523 . S
H412 C387 0.950 . S
H413 C389 0.950 . S
H414 C390 0.967 . S
H415 C392 0.950 . S
H416 C394 0.950 . S
C417 C418 1.349 . S
C417 C419 1.327 . S
C417 H442 0.950 1_554 S
C418 C417 1.349 . S
C418 C434 1.349 . S
C419 C417 1.327 . S
C419 C438 1.429 . S
C419 H443 0.950 1_554 S
C420 C437 1.574 . S
C420 C439 1.368 . S
C420 H444 0.949 . S
H421 C425 0.923 1_556 S
C422 C423 1.349 . S
C422 C424 1.327 . S
C422 H445 0.950 . S
C423 C422 1.349 . S
C423 C435 1.349 1_554 S
C424 C422 1.327 . S
C424 C440 1.429 . S
C424 H446 0.950 . S
C425 H421 0.923 1_554 S
C425 C433 1.576 . S
C425 C441 1.396 . S
H426 C434 0.950 . S
H427 C432 0.950 . S
H428 C433 0.949 1_556 S
H429 C435 0.950 . S
H430 C436 0.950 . S
H431 C437 0.949 . S
C432 H427 0.950 . S
C432 C434 1.327 . S
C432 C438 1.429 . S
C433 C425 1.576 . S
C433 H428 0.949 1_554 S
C433 C439 1.368 . S
C434 C418 1.349 . S
C434 H426 0.950 . S
C434 C432 1.327 . S
C435 C423 1.349 1_556 S
C435 H429 0.950 . S
C435 C436 1.327 . S
C436 H430 0.950 . S
C436 C435 1.327 . S
C436 C440 1.429 1_556 S
C437 C420 1.574 . S
C437 H431 0.949 . S
C437 C441 1.368 . S
C438 C419 1.429 . S
C438 C432 1.429 . S
C438 C439 1.523 . S
C439 C420 1.368 . S
C439 C433 1.368 . S
C439 C438 1.523 . S
C440 C424 1.429 . S
C440 C436 1.429 1_554 S
C440 C441 1.523 . S
C441 C425 1.396 . S
C441 C437 1.368 . S
C441 C440 1.523 . S
H442 C417 0.950 1_556 S
H443 C419 0.950 1_556 S
H444 C420 0.949 . S
H445 C422 0.950 . S
H446 C424 0.950 . S
C447 C448 1.349 . S
C447 C449 1.327 . S
C447 H472 0.950 1_554 S
C448 C447 1.349 . S
C448 C464 1.349 . S
C449 C447 1.327 . S
C449 C468 1.429 . S
C449 H473 0.950 1_554 S
C450 C467 1.574 . S
C450 C469 1.368 . S
C450 H474 0.949 . S
H451 C455 0.949 . S
C452 C453 1.349 . S
C452 C454 1.327 . S
C452 H475 0.950 . S
C453 C452 1.349 . S
C453 C465 1.349 1_554 S
C454 C452 1.327 . S
C454 C470 1.429 . S
C454 H476 0.950 . S
C455 H451 0.949 . S
C455 C463 1.576 . S
C455 C471 1.368 1_556 S
H456 C464 0.950 . S
H457 C462 0.950 . S
H458 C463 0.984 . S
H459 C465 0.950 . S
H460 C466 0.950 . S
H461 C467 0.949 . S
C462 H457 0.950 . S
C462 C464 1.327 . S
C462 C468 1.429 . S
C463 C455 1.576 . S
C463 H458 0.984 . S
C463 C469 1.329 1_556 S
C464 C448 1.349 . S
C464 H456 0.950 . S
C464 C462 1.327 . S
C465 C453 1.349 1_556 S
C465 H459 0.950 . S
C465 C466 1.327 . S
C466 H460 0.950 . S
C466 C465 1.327 . S
C466 C470 1.429 1_556 S
C467 C450 1.574 . S
C467 H461 0.949 . S
C467 C471 1.368 . S
C468 C449 1.429 . S
C468 C462 1.429 . S
C468 C469 1.523 . S
C469 C450 1.368 . S
C469 C463 1.329 1_554 S
C469 C468 1.523 . S
C470 C454 1.429 . S
C470 C466 1.429 1_554 S
C470 C471 1.523 . S
C471 C455 1.368 1_554 S
C471 C467 1.368 . S
C471 C470 1.523 . S
H472 C447 0.950 1_556 S
H473 C449 0.950 1_556 S
H474 C450 0.949 . S
H475 C452 0.950 . S
H476 C454 0.950 . S
C477 C478 1.349 1_554 S
C477 C479 1.327 . S
C477 H502 0.950 . S
C478 C477 1.349 1_556 S
C478 C494 1.349 . S
C479 C477 1.327 . S
C479 C498 1.429 1_554 S
C479 H503 0.950 . S
C480 C497 1.574 . S
C480 C499 1.368 . S
C480 H504 0.949 . S
H481 C485 0.949 . S
C482 C483 1.349 1_556 S
C482 C484 1.327 . S
C482 H505 0.950 . S
C483 C482 1.349 1_554 S
C483 C495 1.349 . S
C484 C482 1.327 . S
C484 C500 1.429 1_556 S
C484 H506 0.950 . S
C485 H481 0.949 . S
C485 C493 1.574 . S
C485 C501 1.407 . S
H486 C494 0.950 . S
H487 C492 0.950 . S
H488 C493 0.949 . S
H489 C495 0.950 . S
H490 C496 0.950 . S
H491 C497 0.949 . S
C492 H487 0.950 . S
C492 C494 1.327 . S
C492 C498 1.429 . S
C493 C485 1.574 . S
C493 H488 0.949 . S
C493 C499 1.368 1_554 S
C494 C478 1.349 . S
C494 H486 0.950 . S
C494 C492 1.327 . S
C495 C483 1.349 . S
C495 H489 0.950 . S
C495 C496 1.327 . S
C496 H490 0.950 . S
C496 C495 1.327 . S
C496 C500 1.429 . S
C497 C480 1.574 . S
C497 H491 0.949 . S
C497 C501 1.328 1_556 S
C498 C479 1.429 1_556 S
C498 C492 1.429 . S
C498 C499 1.523 . S
C499 C480 1.368 . S
C499 C493 1.368 1_556 S
C499 C498 1.523 . S
C500 C484 1.429 1_554 S
C500 C496 1.429 . S
C500 C501 1.526 . S
C501 C485 1.407 . S
C501 C497 1.328 1_554 S
C501 C500 1.526 . S
H502 C477 0.950 . S
H503 C479 0.950 . S
H504 C480 0.949 . S
H505 C482 0.950 . S
H506 C484 0.950 . S
C507 C508 1.349 . S
C507 C509 1.327 . S
C507 H532 0.950 . S
C508 C507 1.349 . S
C508 C524 1.349 1_556 S
C509 C507 1.327 . S
C509 C528 1.450 . S
C509 H533 0.950 . S
C510 C527 1.574 . S
C510 C529 1.374 . S
C510 H534 0.949 . S
H511 C515 0.949 . S
C512 C513 1.349 . S
C512 C514 1.327 . S
C512 H535 0.950 . S
C513 C512 1.349 . S
C513 C525 1.349 1_554 S
C514 C512 1.327 . S
C514 C530 1.429 . S
C514 H536 0.950 . S
C515 H511 0.949 . S
C515 C523 1.574 . S
C515 C531 1.368 1_556 S
H516 C524 0.950 . S
H517 C522 0.950 . S
H518 C523 0.949 . S
H519 C525 0.950 . S
H520 C526 0.950 . S
H521 C527 0.949 . S
C522 H517 0.950 . S
C522 C524 1.327 . S
C522 C528 1.409 1_554 S
C523 C515 1.574 . S
C523 H518 0.949 . S
C523 C529 1.363 1_556 S
C524 C508 1.349 1_554 S
C524 H516 0.950 . S
C524 C522 1.327 . S
C525 C513 1.349 1_556 S
C525 H519 0.950 . S
C525 C526 1.327 . S
C526 H520 0.950 . S
C526 C525 1.327 . S
C526 C530 1.429 1_556 S
C527 C510 1.574 . S
C527 H521 0.949 . S
C527 C531 1.368 . S
C528 C509 1.450 . S
C528 C522 1.409 1_556 S
C528 C529 1.522 1_556 S
C529 C510 1.374 . S
C529 C523 1.363 1_554 S
C529 C528 1.522 1_554 S
C530 C514 1.429 . S
C530 C526 1.429 1_554 S
C530 C531 1.523 . S
C531 C515 1.368 1_554 S
C531 C527 1.368 . S
C531 C530 1.523 . S
H532 C507 0.950 . S
H533 C509 0.950 . S
H534 C510 0.949 . S
H535 C512 0.950 . S
H536 C514 0.950 . S
C537 C538 1.350 1_554 S
C537 C539 1.327 . S
C537 H562 0.950 . S
C538 C537 1.350 1_556 S
C538 C554 1.348 . S
C539 C537 1.327 . S
C539 C558 1.429 . S
C539 H563 0.950 . S
C540 C557 1.574 . S
C540 C559 1.368 1_556 S
C540 H564 0.949 . S
H541 C545 0.949 . S
C542 C543 1.349 1_556 S
C542 C544 1.327 . S
C542 H565 0.950 . S
C543 C542 1.349 1_554 S
C543 C555 1.349 . S
C544 C542 1.327 . S
C544 C560 1.429 1_556 S
C544 H566 0.950 . S
C545 H541 0.949 . S
C545 C553 1.574 . S
C545 C561 1.368 . S
H546 C554 0.950 . S
H547 C552 0.950 . S
H548 C553 0.949 . S
H549 C555 0.950 . S
H550 C556 0.950 . S
H551 C557 0.949 . S
C552 H547 0.950 . S
C552 C554 1.327 . S
C552 C558 1.429 1_556 S
C553 C545 1.574 . S
C553 H548 0.949 . S
C553 C559 1.368 . S
C554 C538 1.348 . S
C554 H546 0.950 . S
C554 C552 1.327 . S
C555 C543 1.349 . S
C555 H549 0.950 . S
C555 C556 1.327 . S
C556 H550 0.950 . S
C556 C555 1.327 . S
C556 C560 1.429 . S
C557 C540 1.574 . S
C557 H551 0.949 . S
C557 C561 1.368 1_556 S
C558 C539 1.429 . S
C558 C552 1.429 1_554 S
C558 C559 1.523 . S
C559 C540 1.368 1_554 S
C559 C553 1.368 . S
C559 C558 1.523 . S
C560 C544 1.429 1_554 S
C560 C556 1.429 . S
C560 C561 1.523 . S
C561 C545 1.368 . S
C561 C557 1.368 1_554 S
C561 C560 1.523 . S
H562 C537 0.950 . S
H563 C539 0.950 . S
H564 C540 0.949 . S
H565 C542 0.950 . S
H566 C544 0.950 . S
C567 C568 1.349 . S
C567 C569 1.327 . S
C567 H592 0.950 . S
C568 C567 1.349 . S
C568 C584 1.349 1_554 S
C569 C567 1.327 . S
C569 C588 1.429 . S
C569 H593 0.950 . S
C570 C587 1.574 . S
C570 C589 1.368 1_556 S
C570 H594 0.949 . S
H571 C575 0.949 . S
C572 C573 1.349 1_556 S
C572 C574 1.327 . S
C572 H595 0.950 . S
C573 C572 1.349 1_554 S
C573 C585 1.349 . S
C574 C572 1.327 . S
C574 C590 1.429 1_556 S
C574 H596 0.950 . S
C575 H571 0.949 . S
C575 C583 1.574 . S
C575 C591 1.368 . S
H576 C584 0.950 . S
H577 C582 0.950 . S
H578 C583 0.949 . S
H579 C585 0.950 . S
H580 C586 0.950 . S
H581 C587 0.949 . S
C582 H577 0.950 . S
C582 C584 1.327 . S
C582 C588 1.429 1_556 S
C583 C575 1.574 . S
C583 H578 0.949 . S
C583 C589 1.368 . S
C584 C568 1.349 1_556 S
C584 H576 0.950 . S
C584 C582 1.327 . S
C585 C573 1.349 . S
C585 H579 0.950 . S
C585 C586 1.327 . S
C586 H580 0.950 . S
C586 C585 1.327 . S
C586 C590 1.429 . S
C587 C570 1.574 . S
C587 H581 0.949 . S
C587 C591 1.368 1_556 S
C588 C569 1.429 . S
C588 C582 1.429 1_554 S
C588 C589 1.523 . S
C589 C570 1.368 1_554 S
C589 C583 1.368 . S
C589 C588 1.523 . S
C590 C574 1.429 1_554 S
C590 C586 1.429 . S
C590 C591 1.523 . S
C591 C575 1.368 . S
C591 C587 1.368 1_554 S
C591 C590 1.523 . S
H592 C567 0.950 . S
H593 C569 0.950 . S
H594 C570 0.949 . S
H595 C572 0.950 . S
H596 C574 0.950 . S
C597 C598 1.349 . S
C597 C599 1.327 . S
C597 H622 0.950 . S
C598 C597 1.349 . S
C598 C614 1.349 1_554 S
C599 C597 1.327 . S
C599 C618 1.429 . S
C599 H623 0.950 . S
C600 C617 1.574 . S
C600 C619 1.368 1_556 S
C600 H624 0.949 . S
H601 C605 0.949 . S
C602 C603 1.349 1_556 S
C602 C604 1.327 . S
C602 H625 0.950 . S
C603 C602 1.349 1_554 S
C603 C615 1.349 . S
C604 C602 1.327 . S
C604 C620 1.429 1_556 S
C604 H626 0.950 . S
C605 H601 0.949 . S
C605 C613 1.574 . S
C605 C621 1.368 . S
H606 C614 0.950 . S
H607 C612 0.950 . S
H608 C613 0.949 . S
H609 C615 0.950 . S
H610 C616 0.950 . S
H611 C617 0.949 . S
C612 H607 0.950 . S
C612 C614 1.327 . S
C612 C618 1.429 1_556 S
C613 C605 1.574 . S
C613 H608 0.949 . S
C613 C619 1.368 . S
C614 C598 1.349 1_556 S
C614 H606 0.950 . S
C614 C612 1.327 . S
C615 C603 1.349 . S
C615 H609 0.950 . S
C615 C616 1.327 . S
C616 H610 0.950 . S
C616 C615 1.327 . S
C616 C620 1.429 . S
C617 C600 1.574 . S
C617 H611 0.949 . S
C617 C621 1.368 1_556 S
C618 C599 1.429 . S
C618 C612 1.429 1_554 S
C618 C619 1.523 . S
C619 C600 1.368 1_554 S
C619 C613 1.368 . S
C619 C618 1.523 . S
C620 C604 1.429 1_554 S
C620 C616 1.429 . S
C620 C621 1.523 . S
C621 C605 1.368 . S
C621 C617 1.368 1_554 S
C621 C620 1.523 . S
H622 C597 0.950 . S
H623 C599 0.950 . S
H624 C600 0.949 . S
H625 C602 0.950 . S
H626 C604 0.950 . S
C627 C628 1.349 . S
C627 C629 1.327 . S
C627 H652 0.950 . S
C628 C627 1.349 . S
C628 C644 1.349 1_554 S
C629 C627 1.327 . S
C629 C648 1.429 . S
C629 H653 0.950 . S
C630 C647 1.574 . S
C630 C649 1.368 1_556 S
C630 H654 0.949 . S
H631 C635 0.949 . S
C632 C633 1.349 1_556 S
C632 C634 1.327 . S
C632 H655 0.950 . S
C633 C632 1.349 1_554 S
C633 C645 1.349 . S
C634 C632 1.327 . S
C634 C650 1.429 1_556 S
C634 H656 0.950 . S
C635 H631 0.949 . S
C635 C643 1.574 . S
C635 C651 1.368 . S
H636 C644 0.950 . S
H637 C642 0.950 . S
H638 C643 0.949 . S
H639 C645 0.950 . S
H640 C646 0.950 . S
H641 C647 0.949 . S
C642 H637 0.950 . S
C642 C644 1.327 . S
C642 C648 1.429 1_556 S
C643 C635 1.574 . S
C643 H638 0.949 . S
C643 C649 1.368 . S
C644 C628 1.349 1_556 S
C644 H636 0.950 . S
C644 C642 1.327 . S
C645 C633 1.349 . S
C645 H639 0.950 . S
C645 C646 1.327 . S
C646 H640 0.950 . S
C646 C645 1.327 . S
C646 C650 1.429 . S
C647 C630 1.574 . S
C647 H641 0.949 . S
C647 C651 1.368 1_556 S
C648 C629 1.429 . S
C648 C642 1.429 1_554 S
C648 C649 1.523 . S
C649 C630 1.368 1_554 S
C649 C643 1.368 . S
C649 C648 1.523 . S
C650 C634 1.429 1_554 S
C650 C646 1.429 . S
C650 C651 1.523 . S
C651 C635 1.368 . S
C651 C647 1.368 1_554 S
C651 C650 1.523 . S
H652 C627 0.950 . S
H653 C629 0.950 . S
H654 C630 0.949 . S
H655 C632 0.950 . S
H656 C634 0.950 . S
C657 C658 1.349 1_556 S
C657 C659 1.327 . S
C657 H682 0.950 . S
C658 C657 1.349 1_554 S
C658 C674 1.349 . S
C659 C657 1.327 . S
C659 C678 1.429 1_556 S
C659 H683 0.950 . S
C660 C677 1.574 . S
C660 C679 1.368 . S
C660 H684 0.949 . S
H661 C665 0.949 . S
C662 C663 1.349 . S
C662 C664 1.327 . S
C662 H685 0.950 . S
C663 C662 1.349 . S
C663 C675 1.349 1_554 S
C664 C662 1.327 . S
C664 C680 1.429 . S
C664 H686 0.950 . S
C665 H661 0.949 . S
C665 C673 1.574 . S
C665 C681 1.368 1_556 S
H666 C674 0.950 . S
H667 C672 0.950 . S
H668 C673 0.949 . S
H669 C675 0.950 . S
H670 C676 0.950 . S
H671 C677 0.949 . S
C672 H667 0.950 . S
C672 C674 1.327 . S
C672 C678 1.429 . S
C673 C665 1.574 . S
C673 H668 0.949 . S
C673 C679 1.368 1_556 S
C674 C658 1.349 . S
C674 H666 0.950 . S
C674 C672 1.327 . S
C675 C663 1.349 1_556 S
C675 H669 0.950 . S
C675 C676 1.327 . S
C676 H670 0.950 . S
C676 C675 1.327 . S
C676 C680 1.429 1_556 S
C677 C660 1.574 . S
C677 H671 0.949 . S
C677 C681 1.368 . S
C678 C659 1.429 1_554 S
C678 C672 1.429 . S
C678 C679 1.523 . S
C679 C660 1.368 . S
C679 C673 1.368 1_554 S
C679 C678 1.523 . S
C680 C664 1.429 . S
C680 C676 1.429 1_554 S
C680 C681 1.523 . S
C681 C665 1.368 1_554 S
C681 C677 1.368 . S
C681 C680 1.523 . S
H682 C657 0.950 . S
H683 C659 0.950 . S
H684 C660 0.949 . S
H685 C662 0.950 . S
H686 C664 0.950 . S
C687 C688 1.349 . S
C687 C689 1.327 . S
C687 H712 0.950 . S
C688 C687 1.349 . S
C688 C704 1.349 1_554 S
C689 C687 1.327 . S
C689 C708 1.429 . S
C689 H713 0.950 . S
C690 C707 1.574 . S
C690 C709 1.368 1_556 S
C690 H714 0.949 . S
H691 C695 0.949 . S
C692 C693 1.349 1_556 S
C692 C694 1.327 . S
C692 H715 0.950 . S
C693 C692 1.349 1_554 S
C693 C705 1.349 . S
C694 C692 1.327 . S
C694 C710 1.429 1_556 S
C694 H716 0.950 . S
C695 H691 0.949 . S
C695 C703 1.574 . S
C695 C711 1.368 . S
H696 C704 0.950 . S
H697 C702 0.950 . S
H698 C703 0.949 . S
H699 C705 0.950 . S
H700 C706 0.950 . S
H701 C707 0.949 . S
C702 H697 0.950 . S
C702 C704 1.327 . S
C702 C708 1.429 1_556 S
C703 C695 1.574 . S
C703 H698 0.949 . S
C703 C709 1.368 . S
C704 C688 1.349 1_556 S
C704 H696 0.950 . S
C704 C702 1.327 . S
C705 C693 1.349 . S
C705 H699 0.950 . S
C705 C706 1.327 . S
C706 H700 0.950 . S
C706 C705 1.327 . S
C706 C710 1.429 . S
C707 C690 1.574 . S
C707 H701 0.949 . S
C707 C711 1.368 1_556 S
C708 C689 1.429 . S
C708 C702 1.429 1_554 S
C708 C709 1.523 . S
C709 C690 1.368 1_554 S
C709 C703 1.368 . S
C709 C708 1.523 . S
C710 C694 1.429 1_554 S
C710 C706 1.429 . S
C710 C711 1.523 . S
C711 C695 1.368 . S
C711 C707 1.368 1_554 S
C711 C710 1.523 . S
H712 C687 0.950 . S
H713 C689 0.950 . S
H714 C690 0.949 . S
H715 C692 0.950 . S
H716 C694 0.950 . S
C717 C718 1.349 . S
C717 C719 1.327 . S
C717 H742 0.950 . S
C718 C717 1.349 . S
C718 C734 1.349 1_554 S
C719 C717 1.327 . S
C719 C738 1.429 . S
C719 H743 0.950 . S
C720 C737 1.574 . S
C720 C739 1.368 1_556 S
C720 H744 0.949 . S
H721 C725 0.949 . S
C722 C723 1.349 1_556 S
C722 C724 1.327 . S
C722 H745 0.950 . S
C723 C722 1.349 1_554 S
C723 C735 1.349 . S
C724 C722 1.327 . S
C724 C740 1.429 1_556 S
C724 H746 0.950 . S
C725 H721 0.949 . S
C725 C733 1.574 . S
C725 C741 1.368 . S
H726 C734 0.950 . S
H727 C732 0.950 . S
H728 C733 0.949 . S
H729 C735 0.950 . S
H730 C736 0.950 . S
H731 C737 0.949 . S
C732 H727 0.950 . S
C732 C734 1.327 . S
C732 C738 1.429 1_556 S
C733 C725 1.574 . S
C733 H728 0.949 . S
C733 C739 1.368 . S
C734 C718 1.349 1_556 S
C734 H726 0.950 . S
C734 C732 1.327 . S
C735 C723 1.349 . S
C735 H729 0.950 . S
C735 C736 1.327 . S
C736 H730 0.950 . S
C736 C735 1.327 . S
C736 C740 1.429 . S
C737 C720 1.574 . S
C737 H731 0.949 . S
C737 C741 1.368 1_556 S
C738 C719 1.429 . S
C738 C732 1.429 1_554 S
C738 C739 1.523 . S
C739 C720 1.368 1_554 S
C739 C733 1.368 . S
C739 C738 1.523 . S
C740 C724 1.429 1_554 S
C740 C736 1.429 . S
C740 C741 1.523 . S
C741 C725 1.368 . S
C741 C737 1.368 1_554 S
C741 C740 1.523 . S
H742 C717 0.950 . S
H743 C719 0.950 . S
H744 C720 0.949 . S
H745 C722 0.950 . S
H746 C724 0.950 . S
C747 C748 1.349 . S
C747 C749 1.327 . S
C747 H772 0.950 . S
C748 C747 1.349 . S
C748 C764 1.349 . S
C749 C747 1.327 . S
C749 C768 1.429 . S
C749 H773 0.950 . S
C750 C767 1.574 1_655 S
C750 C769 1.368 . S
C750 H774 0.949 . S
H751 C755 0.949 . S
C752 C753 1.349 . S
C752 C754 1.327 . S
C752 H775 0.950 . S
C753 C752 1.349 . S
C753 C765 1.349 . S
C754 C752 1.327 . S
C754 C770 1.429 . S
C754 H776 0.950 . S
C755 H751 0.949 . S
C755 C763 1.574 . S
C755 C771 1.368 . S
H756 C764 0.950 . S
H757 C762 0.950 . S
H758 C763 0.949 1_655 S
H759 C765 0.950 . S
H760 C766 0.950 . S
H761 C767 0.949 . S
C762 H757 0.950 . S
C762 C764 1.327 . S
C762 C768 1.429 . S
C763 C755 1.574 . S
C763 H758 0.949 1_455 S
C763 C769 1.368 1_455 S
C764 C748 1.349 . S
C764 H756 0.950 . S
C764 C762 1.327 . S
C765 C753 1.349 . S
C765 H759 0.950 . S
C765 C766 1.327 . S
C766 H760 0.950 . S
C766 C765 1.327 . S
C766 C770 1.429 . S
C767 C750 1.574 1_455 S
C767 H761 0.949 . S
C767 C771 1.368 . S
C768 C749 1.429 . S
C768 C762 1.429 . S
C768 C769 1.523 . S
C769 C750 1.368 . S
C769 C763 1.368 1_655 S
C769 C768 1.523 . S
C770 C754 1.429 . S
C770 C766 1.429 . S
C770 C771 1.523 . S
C771 C755 1.368 . S
C771 C767 1.368 . S
C771 C770 1.523 . S
H772 C747 0.950 . S
H773 C749 0.950 . S
H774 C750 0.949 . S
H775 C752 0.950 . S
H776 C754 0.950 . S
C777 C778 1.349 . S
C777 C779 1.327 . S
C777 H802 0.950 . S
C778 C777 1.349 . S
C778 C794 1.349 . S
C779 C777 1.327 . S
C779 C798 1.429 . S
C779 H803 0.950 . S
C780 C797 1.574 . S
C780 C799 1.368 . S
C780 H804 0.949 . S
H781 C785 0.949 . S
C782 C783 1.349 . S
C782 C784 1.327 . S
C782 H805 0.950 . S
C783 C782 1.349 . S
C783 C795 1.349 . S
C784 C782 1.327 . S
C784 C800 1.429 . S
C784 H806 0.950 . S
C785 H781 0.949 . S
C785 C793 1.574 . S
C785 C801 1.368 . S
H786 C794 0.950 . S
H787 C792 0.950 . S
H788 C793 0.949 . S
H789 C795 0.950 . S
H790 C796 0.950 . S
H791 C797 0.949 . S
C792 H787 0.950 . S
C792 C794 1.327 . S
C792 C798 1.429 . S
C793 C785 1.574 . S
C793 H788 0.949 . S
C793 C799 1.368 . S
C794 C778 1.349 . S
C794 H786 0.950 . S
C794 C792 1.327 . S
C795 C783 1.349 . S
C795 H789 0.950 . S
C795 C796 1.327 . S
C796 H790 0.950 . S
C796 C795 1.327 . S
C796 C800 1.429 . S
C797 C780 1.574 . S
C797 H791 0.949 . S
C797 C801 1.368 . S
C798 C779 1.429 . S
C798 C792 1.429 . S
C798 C799 1.523 . S
C799 C780 1.368 . S
C799 C793 1.368 . S
C799 C798 1.523 . S
C800 C784 1.429 . S
C800 C796 1.429 . S
C800 C801 1.523 . S
C801 C785 1.368 . S
C801 C797 1.368 . S
C801 C800 1.523 . S
H802 C777 0.950 . S
H803 C779 0.950 . S
H804 C780 0.949 . S
H805 C782 0.950 . S
H806 C784 0.950 . S
C807 C808 1.349 . S
C807 C809 1.327 . S
C807 H832 0.950 . S
C808 C807 1.349 . S
C808 C824 1.349 . S
C809 C807 1.327 . S
C809 C828 1.429 . S
C809 H833 0.950 . S
C810 C827 1.574 1_545 S
C810 C829 1.368 . S
C810 H834 0.949 . S
H811 C815 0.949 . S
C812 C813 1.349 . S
C812 C814 1.327 . S
C812 H835 0.950 . S
C813 C812 1.349 . S
C813 C825 1.349 . S
C814 C812 1.327 . S
C814 C830 1.429 . S
C814 H836 0.950 . S
C815 H811 0.949 . S
C815 C823 1.574 1_565 S
C815 C831 1.368 . S
H816 C824 0.950 . S
H817 C822 0.950 . S
H818 C823 0.949 . S
H819 C825 0.950 . S
H820 C826 0.950 . S
H821 C827 0.949 . S
C822 H817 0.950 . S
C822 C824 1.327 . S
C822 C828 1.429 . S
C823 C815 1.574 1_545 S
C823 H818 0.949 . S
C823 C829 1.368 . S
C824 C808 1.349 . S
C824 H816 0.950 . S
C824 C822 1.327 . S
C825 C813 1.349 . S
C825 H819 0.950 . S
C825 C826 1.327 . S
C826 H820 0.950 . S
C826 C825 1.327 . S
C826 C830 1.429 . S
C827 C810 1.574 1_565 S
C827 H821 0.949 . S
C827 C831 1.368 . S
C828 C809 1.429 . S
C828 C822 1.429 . S
C828 C829 1.523 . S
C829 C810 1.368 . S
C829 C823 1.368 . S
C829 C828 1.523 . S
C830 C814 1.429 . S
C830 C826 1.429 . S
C830 C831 1.523 . S
C831 C815 1.368 . S
C831 C827 1.368 . S
C831 C830 1.523 . S
H832 C807 0.950 . S
H833 C809 0.950 . S
H834 C810 0.949 . S
H835 C812 0.950 . S
H836 C814 0.950 . S
C837 C838 1.349 . S
C837 C839 1.327 . S
C837 H862 0.950 . S
C838 C837 1.349 . S
C838 C854 1.349 . S
C839 C837 1.327 . S
C839 C858 1.429 . S
C839 H863 0.950 . S
C840 C857 1.574 . S
C840 C859 1.368 . S
C840 H864 0.949 . S
H841 C845 0.949 . S
C842 C843 1.349 . S
C842 C844 1.327 . S
C842 H865 0.950 . S
C843 C842 1.349 . S
C843 C855 1.349 . S
C844 C842 1.327 . S
C844 C860 1.429 . S
C844 H866 0.950 . S
C845 H841 0.949 . S
C845 C853 1.574 . S
C845 C861 1.368 . S
H846 C854 0.950 . S
H847 C852 0.950 . S
H848 C853 0.949 . S
H849 C855 0.950 . S
H850 C856 0.950 . S
H851 C857 0.949 . S
C852 H847 0.950 . S
C852 C854 1.327 . S
C852 C858 1.429 . S
C853 C845 1.574 . S
C853 H848 0.949 . S
C853 C859 1.368 . S
C854 C838 1.349 . S
C854 H846 0.950 . S
C854 C852 1.327 . S
C855 C843 1.349 . S
C855 H849 0.950 . S
C855 C856 1.327 . S
C856 H850 0.950 . S
C856 C855 1.327 . S
C856 C860 1.429 . S
C857 C840 1.574 . S
C857 H851 0.949 . S
C857 C861 1.368 . S
C858 C839 1.429 . S
C858 C852 1.429 . S
C858 C859 1.523 . S
C859 C840 1.368 . S
C859 C853 1.368 . S
C859 C858 1.523 . S
C860 C844 1.429 . S
C860 C856 1.429 . S
C860 C861 1.523 . S
C861 C845 1.368 . S
C861 C857 1.368 . S
C861 C860 1.523 . S
H862 C837 0.950 . S
H863 C839 0.950 . S
H864 C840 0.949 . S
H865 C842 0.950 . S
H866 C844 0.950 . S
C867 C868 1.349 . S
C867 C869 1.327 . S
C867 H892 0.950 . S
C868 C867 1.349 . S
C868 C884 1.349 . S
C869 C867 1.327 . S
C869 C888 1.429 . S
C869 H893 0.950 . S
C870 C887 1.574 . S
C870 C889 1.368 . S
C870 H894 0.949 . S
H871 C875 0.949 . S
C872 C873 1.349 . S
C872 C874 1.327 . S
C872 H895 0.950 . S
C873 C872 1.349 . S
C873 C885 1.349 . S
C874 C872 1.327 . S
C874 C890 1.429 . S
C874 H896 0.950 . S
C875 H871 0.949 . S
C875 C883 1.574 . S
C875 C891 1.368 . S
H876 C884 0.950 . S
H877 C882 0.950 . S
H878 C883 0.949 . S
H879 C885 0.950 . S
H880 C886 0.950 . S
H881 C887 0.949 . S
C882 H877 0.950 . S
C882 C884 1.327 . S
C882 C888 1.429 . S
C883 C875 1.574 . S
C883 H878 0.949 . S
C883 C889 1.368 . S
C884 C868 1.349 . S
C884 H876 0.950 . S
C884 C882 1.327 . S
C885 C873 1.349 . S
C885 H879 0.950 . S
C885 C886 1.327 . S
C886 H880 0.950 . S
C886 C885 1.327 . S
C886 C890 1.429 . S
C887 C870 1.574 . S
C887 H881 0.949 . S
C887 C891 1.368 . S
C888 C869 1.429 . S
C888 C882 1.429 . S
C888 C889 1.523 . S
C889 C870 1.368 . S
C889 C883 1.368 . S
C889 C888 1.523 . S
C890 C874 1.429 . S
C890 C886 1.429 . S
C890 C891 1.523 . S
C891 C875 1.368 . S
C891 C887 1.368 . S
C891 C890 1.523 . S
H892 C867 0.950 . S
H893 C869 0.950 . S
H894 C870 0.949 . S
H895 C872 0.950 . S
H896 C874 0.950 . S
C897 C898 1.349 . S
C897 C899 1.327 . S
C897 H922 0.950 . S
C898 C897 1.349 . S
C898 C914 1.349 . S
C899 C897 1.327 . S
C899 C918 1.429 . S
C899 H923 0.950 . S
C900 C917 1.574 . S
C900 C919 1.368 . S
C900 H924 0.949 . S
H901 C905 0.949 . S
C902 C903 1.349 . S
C902 C904 1.327 . S
C902 H925 0.950 . S
C903 C902 1.349 . S
C903 C915 1.349 . S
C904 C902 1.327 . S
C904 C920 1.429 . S
C904 H926 0.950 . S
C905 H901 0.949 . S
C905 C913 1.574 . S
C905 C921 1.368 . S
H906 C914 0.950 . S
H907 C912 0.950 . S
H908 C913 0.949 . S
H909 C915 0.950 . S
H910 C916 0.950 . S
H911 C917 0.949 . S
C912 H907 0.950 . S
C912 C914 1.327 . S
C912 C918 1.429 . S
C913 C905 1.574 . S
C913 H908 0.949 . S
C913 C919 1.368 . S
C914 C898 1.349 . S
C914 H906 0.950 . S
C914 C912 1.327 . S
C915 C903 1.349 . S
C915 H909 0.950 . S
C915 C916 1.327 . S
C916 H910 0.950 . S
C916 C915 1.327 . S
C916 C920 1.429 . S
C917 C900 1.574 . S
C917 H911 0.949 . S
C917 C921 1.368 . S
C918 C899 1.429 . S
C918 C912 1.429 . S
C918 C919 1.523 . S
C919 C900 1.368 . S
C919 C913 1.368 . S
C919 C918 1.523 . S
C920 C904 1.429 . S
C920 C916 1.429 . S
C920 C921 1.523 . S
C921 C905 1.368 . S
C921 C917 1.368 . S
C921 C920 1.523 . S
H922 C897 0.950 . S
H923 C899 0.950 . S
H924 C900 0.949 . S
H925 C902 0.950 . S
H926 C904 0.950 . S
C927 C928 1.349 . S
C927 C929 1.327 . S
C927 H952 0.950 . S
C928 C927 1.349 . S
C928 C944 1.349 . S
C929 C927 1.327 . S
C929 C948 1.429 . S
C929 H953 0.950 . S
C930 C947 1.574 . S
C930 C949 1.368 . S
C930 H954 0.949 . S
H931 C935 0.949 . S
C932 C933 1.349 . S
C932 C934 1.327 . S
C932 H955 0.950 . S
C933 C932 1.349 . S
C933 C945 1.349 . S
C934 C932 1.327 . S
C934 C950 1.429 . S
C934 H956 0.950 . S
C935 H931 0.949 . S
C935 C943 1.574 . S
C935 C951 1.368 . S
H936 C944 0.950 . S
H937 C942 0.950 . S
H938 C943 0.949 . S
H939 C945 0.950 . S
H940 C946 0.950 . S
H941 C947 0.949 . S
C942 H937 0.950 . S
C942 C944 1.327 . S
C942 C948 1.429 . S
C943 C935 1.574 . S
C943 H938 0.949 . S
C943 C949 1.368 . S
C944 C928 1.349 . S
C944 H936 0.950 . S
C944 C942 1.327 . S
C945 C933 1.349 . S
C945 H939 0.950 . S
C945 C946 1.327 . S
C946 H940 0.950 . S
C946 C945 1.327 . S
C946 C950 1.429 . S
C947 C930 1.574 . S
C947 H941 0.949 . S
C947 C951 1.368 . S
C948 C929 1.429 . S
C948 C942 1.429 . S
C948 C949 1.523 . S
C949 C930 1.368 . S
C949 C943 1.368 . S
C949 C948 1.523 . S
C950 C934 1.429 . S
C950 C946 1.429 . S
C950 C951 1.523 . S
C951 C935 1.368 . S
C951 C947 1.368 . S
C951 C950 1.523 . S
H952 C927 0.950 . S
H953 C929 0.950 . S
H954 C930 0.949 . S
H955 C932 0.950 . S
H956 C934 0.950 . S
C957 C958 1.349 . S
C957 C959 1.327 . S
C957 H982 0.950 . S
C958 C957 1.349 . S
C958 C974 1.349 . S
C959 C957 1.327 . S
C959 C978 1.429 . S
C959 H983 0.950 . S
C960 C977 1.574 . S
C960 C979 1.368 . S
C960 H984 0.949 . S
H961 C965 0.949 . S
C962 C963 1.349 . S
C962 C964 1.327 . S
C962 H985 0.950 . S
C963 C962 1.349 . S
C963 C975 1.349 . S
C964 C962 1.327 . S
C964 C980 1.429 . S
C964 H986 0.950 . S
C965 H961 0.949 . S
C965 C973 1.574 . S
C965 C981 1.368 . S
H966 C974 0.950 . S
H967 C972 0.950 . S
H968 C973 0.949 . S
H969 C975 0.950 . S
H970 C976 0.950 . S
H971 C977 0.949 . S
C972 H967 0.950 . S
C972 C974 1.327 . S
C972 C978 1.429 . S
C973 C965 1.574 . S
C973 H968 0.949 . S
C973 C979 1.368 . S
C974 C958 1.349 . S
C974 H966 0.950 . S
C974 C972 1.327 . S
C975 C963 1.349 . S
C975 H969 0.950 . S
C975 C976 1.327 . S
C976 H970 0.950 . S
C976 C975 1.327 . S
C976 C980 1.429 . S
C977 C960 1.574 . S
C977 H971 0.949 . S
C977 C981 1.368 . S
C978 C959 1.429 . S
C978 C972 1.429 . S
C978 C979 1.523 . S
C979 C960 1.368 . S
C979 C973 1.368 . S
C979 C978 1.523 . S
C980 C964 1.429 . S
C980 C976 1.429 . S
C980 C981 1.523 . S
C981 C965 1.368 . S
C981 C977 1.368 . S
C981 C980 1.523 . S
H982 C957 0.950 . S
H983 C959 0.950 . S
H984 C960 0.949 . S
H985 C962 0.950 . S
H986 C964 0.950 . S
C987 C988 1.349 . S
C987 C989 1.327 . S
C987 H1012 0.950 . S
C988 C987 1.349 . S
C988 C1004 1.349 . S
C989 C987 1.327 . S
C989 C1008 1.429 . S
C989 H1013 0.950 . S
C990 C1007 1.574 . S
C990 C1009 1.368 . S
C990 H1014 0.949 . S
H991 C995 0.949 . S
C992 C993 1.349 . S
C992 C994 1.327 . S
C992 H1015 0.950 . S
C993 C992 1.349 . S
C993 C1005 1.349 . S
C994 C992 1.327 . S
C994 C1010 1.429 . S
C994 H1016 0.950 . S
C995 H991 0.949 . S
C995 C1003 1.574 . S
C995 C1011 1.368 . S
H996 C1004 0.950 . S
H997 C1002 0.950 . S
H998 C1003 0.949 . S
H999 C1005 0.950 . S
H1000 C1006 0.950 . S
H1001 C1007 0.949 . S
C1002 H997 0.950 . S
C1002 C1004 1.327 . S
C1002 C1008 1.429 . S
C1003 C995 1.574 . S
C1003 H998 0.949 . S
C1003 C1009 1.368 . S
C1004 C988 1.349 . S
C1004 H996 0.950 . S
C1004 C1002 1.327 . S
C1005 C993 1.349 . S
C1005 H999 0.950 . S
C1005 C1006 1.327 . S
C1006 H1000 0.950 . S
C1006 C1005 1.327 . S
C1006 C1010 1.429 . S
C1007 C990 1.574 . S
C1007 H1001 0.949 . S
C1007 C1011 1.368 . S
C1008 C989 1.429 . S
C1008 C1002 1.429 . S
C1008 C1009 1.523 . S
C1009 C990 1.368 . S
C1009 C1003 1.368 . S
C1009 C1008 1.523 . S
C1010 C994 1.429 . S
C1010 C1006 1.429 . S
C1010 C1011 1.523 . S
C1011 C995 1.368 . S
C1011 C1007 1.368 . S
C1011 C1010 1.523 . S
H1012 C987 0.950 . S
H1013 C989 0.950 . S
H1014 C990 0.949 . S
H1015 C992 0.950 . S
H1016 C994 0.950 . S
C1017 C1018 1.349 . S
C1017 C1019 1.327 . S
C1017 H1042 0.950 . S
C1018 C1017 1.349 . S
C1018 C1034 1.349 . S
C1019 C1017 1.327 . S
C1019 C1038 1.429 . S
C1019 H1043 0.950 . S
C1020 C1037 1.574 . S
C1020 C1039 1.368 . S
C1020 H1044 0.949 . S
H1021 C1025 0.949 . S
C1022 C1023 1.349 . S
C1022 C1024 1.327 . S
C1022 H1045 0.950 . S
C1023 C1022 1.349 . S
C1023 C1035 1.349 . S
C1024 C1022 1.327 . S
C1024 C1040 1.429 . S
C1024 H1046 0.950 . S
C1025 H1021 0.949 . S
C1025 C1033 1.574 . S
C1025 C1041 1.368 . S
H1026 C1034 0.950 . S
H1027 C1032 0.950 . S
H1028 C1033 0.949 . S
H1029 C1035 0.950 . S
H1030 C1036 0.950 . S
H1031 C1037 0.949 . S
C1032 H1027 0.950 . S
C1032 C1034 1.327 . S
C1032 C1038 1.429 . S
C1033 C1025 1.574 . S
C1033 H1028 0.949 . S
C1033 C1039 1.368 . S
C1034 C1018 1.349 . S
C1034 H1026 0.950 . S
C1034 C1032 1.327 . S
C1035 C1023 1.349 . S
C1035 H1029 0.950 . S
C1035 C1036 1.327 . S
C1036 H1030 0.950 . S
C1036 C1035 1.327 . S
C1036 C1040 1.429 . S
C1037 C1020 1.574 . S
C1037 H1031 0.949 . S
C1037 C1041 1.368 . S
C1038 C1019 1.429 . S
C1038 C1032 1.429 . S
C1038 C1039 1.523 1_545 S
C1039 C1020 1.368 . S
C1039 C1033 1.368 . S
C1039 C1038 1.523 1_565 S
C1040 C1024 1.429 . S
C1040 C1036 1.429 . S
C1040 C1041 1.523 . S
C1041 C1025 1.368 . S
C1041 C1037 1.368 . S
C1041 C1040 1.523 . S
H1042 C1017 0.950 . S
H1043 C1019 0.950 . S
H1044 C1020 0.949 . S
H1045 C1022 0.950 . S
H1046 C1024 0.950 . S
C1047 C1048 1.349 . S
C1047 C1049 1.327 . S
C1047 H1072 0.950 . S
C1048 C1047 1.349 . S
C1048 C1064 1.349 . S
C1049 C1047 1.327 . S
C1049 C1068 1.429 . S
C1049 H1073 0.950 . S
C1050 C1067 1.574 . S
C1050 C1069 1.368 . S
C1050 H1074 0.949 . S
H1051 C1055 0.949 . S
C1052 C1053 1.349 . S
C1052 C1054 1.327 . S
C1052 H1075 0.950 . S
C1053 C1052 1.349 . S
C1053 C1065 1.349 . S
C1054 C1052 1.327 . S
C1054 C1070 1.429 . S
C1054 H1076 0.950 . S
C1055 H1051 0.949 . S
C1055 C1063 1.574 . S
C1055 C1071 1.368 . S
H1056 C1064 0.950 . S
H1057 C1062 0.950 . S
H1058 C1063 0.949 . S
H1059 C1065 0.950 . S
H1060 C1066 0.950 . S
H1061 C1067 0.949 . S
C1062 H1057 0.950 . S
C1062 C1064 1.327 . S
C1062 C1068 1.429 . S
C1063 C1055 1.574 . S
C1063 H1058 0.949 . S
C1063 C1069 1.368 . S
C1064 C1048 1.349 . S
C1064 H1056 0.950 . S
C1064 C1062 1.327 . S
C1065 C1053 1.349 . S
C1065 H1059 0.950 . S
C1065 C1066 1.327 . S
C1066 H1060 0.950 . S
C1066 C1065 1.327 . S
C1066 C1070 1.429 . S
C1067 C1050 1.574 . S
C1067 H1061 0.949 . S
C1067 C1071 1.368 . S
C1068 C1049 1.429 . S
C1068 C1062 1.429 . S
C1068 C1069 1.523 1_655 S
C1069 C1050 1.368 . S
C1069 C1063 1.368 . S
C1069 C1068 1.523 1_455 S
C1070 C1054 1.429 . S
C1070 C1066 1.429 . S
C1070 C1071 1.523 . S
C1071 C1055 1.368 . S
C1071 C1067 1.368 . S
C1071 C1070 1.523 . S
H1072 C1047 0.950 . S
H1073 C1049 0.950 . S
H1074 C1050 0.949 . S
H1075 C1052 0.950 . S
H1076 C1054 0.950 . S
C1077 C1078 1.349 . S
C1077 C1079 1.327 . S
C1077 H1102 0.950 . S
C1078 C1077 1.349 . S
C1078 C1094 1.349 . S
C1079 C1077 1.327 . S
C1079 C1098 1.429 . S
C1079 H1103 0.950 . S
C1080 C1097 1.574 . S
C1080 C1099 1.368 . S
C1080 H1104 0.949 . S
H1081 C1085 0.949 . S
C1082 C1083 1.349 . S
C1082 C1084 1.327 . S
C1082 H1105 0.950 . S
C1083 C1082 1.349 . S
C1083 C1095 1.349 . S
C1084 C1082 1.327 . S
C1084 C1100 1.429 . S
C1084 H1106 0.950 . S
C1085 H1081 0.949 . S
C1085 C1093 1.574 . S
C1085 C1101 1.368 . S
H1086 C1094 0.950 . S
H1087 C1092 0.950 . S
H1088 C1093 0.949 . S
H1089 C1095 0.950 . S
H1090 C1096 0.950 . S
H1091 C1097 0.949 . S
C1092 H1087 0.950 . S
C1092 C1094 1.327 . S
C1092 C1098 1.429 . S
C1093 C1085 1.574 . S
C1093 H1088 0.949 . S
C1093 C1099 1.368 . S
C1094 C1078 1.349 . S
C1094 H1086 0.950 . S
C1094 C1092 1.327 . S
C1095 C1083 1.349 . S
C1095 H1089 0.950 . S
C1095 C1096 1.327 . S
C1096 H1090 0.950 . S
C1096 C1095 1.327 . S
C1096 C1100 1.429 . S
C1097 C1080 1.574 . S
C1097 H1091 0.949 . S
C1097 C1101 1.368 . S
C1098 C1079 1.429 . S
C1098 C1092 1.429 . S
C1098 C1099 1.523 . S
C1099 C1080 1.368 . S
C1099 C1093 1.368 . S
C1099 C1098 1.523 . S
C1100 C1084 1.429 . S
C1100 C1096 1.429 . S
C1100 C1101 1.523 . S
C1101 C1085 1.368 . S
C1101 C1097 1.368 . S
C1101 C1100 1.523 . S
H1102 C1077 0.950 . S
H1103 C1079 0.950 . S
H1104 C1080 0.949 . S
H1105 C1082 0.950 . S
H1106 C1084 0.950 . S
C1107 C1108 1.349 . S
C1107 C1109 1.327 . S
C1107 H1132 0.950 . S
C1108 C1107 1.349 . S
C1108 C1124 1.349 . S
C1109 C1107 1.327 . S
C1109 C1128 1.429 . S
C1109 H1133 0.950 . S
C1110 C1127 1.574 . S
C1110 C1129 1.368 . S
C1110 H1134 0.949 . S
H1111 C1115 0.949 . S
C1112 C1113 1.349 . S
C1112 C1114 1.327 . S
C1112 H1135 0.950 . S
C1113 C1112 1.349 . S
C1113 C1125 1.349 . S
C1114 C1112 1.327 . S
C1114 C1130 1.429 . S
C1114 H1136 0.950 . S
C1115 H1111 0.949 . S
C1115 C1123 1.574 . S
C1115 C1131 1.368 . S
H1116 C1124 0.950 . S
H1117 C1122 0.950 . S
H1118 C1123 0.949 . S
H1119 C1125 0.950 . S
H1120 C1126 0.950 . S
H1121 C1127 0.949 . S
C1122 H1117 0.950 . S
C1122 C1124 1.327 . S
C1122 C1128 1.429 . S
C1123 C1115 1.574 . S
C1123 H1118 0.949 . S
C1123 C1129 1.368 . S
C1124 C1108 1.349 . S
C1124 H1116 0.950 . S
C1124 C1122 1.327 . S
C1125 C1113 1.349 . S
C1125 H1119 0.950 . S
C1125 C1126 1.327 . S
C1126 H1120 0.950 . S
C1126 C1125 1.327 . S
C1126 C1130 1.429 . S
C1127 C1110 1.574 . S
C1127 H1121 0.949 . S
C1127 C1131 1.368 . S
C1128 C1109 1.429 . S
C1128 C1122 1.429 . S
C1128 C1129 1.523 . S
C1129 C1110 1.368 . S
C1129 C1123 1.368 . S
C1129 C1128 1.523 . S
C1130 C1114 1.429 . S
C1130 C1126 1.429 . S
C1130 C1131 1.523 . S
C1131 C1115 1.368 . S
C1131 C1127 1.368 . S
C1131 C1130 1.523 . S
H1132 C1107 0.950 . S
H1133 C1109 0.950 . S
H1134 C1110 0.949 . S
H1135 C1112 0.950 . S
H1136 C1114 0.950 . S
C1137 C1138 1.349 . S
C1137 C1139 1.327 . S
C1137 H1162 0.950 . S
C1138 C1137 1.349 . S
C1138 C1154 1.349 . S
C1139 C1137 1.327 . S
C1139 C1158 1.429 . S
C1139 H1163 0.950 . S
C1140 C1157 1.574 . S
C1140 C1159 1.368 . S
C1140 H1164 0.949 . S
H1141 C1145 0.949 . S
C1142 C1143 1.349 . S
C1142 C1144 1.327 . S
C1142 H1165 0.950 . S
C1143 C1142 1.349 . S
C1143 C1155 1.349 . S
C1144 C1142 1.327 . S
C1144 C1160 1.429 . S
C1144 H1166 0.950 . S
C1145 H1141 0.949 . S
C1145 C1153 1.574 . S
C1145 C1161 1.368 . S
H1146 C1154 0.950 . S
H1147 C1152 0.950 . S
H1148 C1153 0.949 . S
H1149 C1155 0.950 . S
H1150 C1156 0.950 . S
H1151 C1157 0.949 . S
C1152 H1147 0.950 . S
C1152 C1154 1.327 . S
C1152 C1158 1.429 . S
C1153 C1145 1.574 . S
C1153 H1148 0.949 . S
C1153 C1159 1.368 . S
C1154 C1138 1.349 . S
C1154 H1146 0.950 . S
C1154 C1152 1.327 . S
C1155 C1143 1.349 . S
C1155 H1149 0.950 . S
C1155 C1156 1.327 . S
C1156 H1150 0.950 . S
C1156 C1155 1.327 . S
C1156 C1160 1.429 . S
C1157 C1140 1.574 . S
C1157 H1151 0.949 . S
C1157 C1161 1.368 . S
C1158 C1139 1.429 . S
C1158 C1152 1.429 . S
C1158 C1159 1.523 . S
C1159 C1140 1.368 . S
C1159 C1153 1.368 . S
C1159 C1158 1.523 . S
C1160 C1144 1.429 . S
C1160 C1156 1.429 . S
C1160 C1161 1.523 . S
C1161 C1145 1.368 . S
C1161 C1157 1.368 . S
C1161 C1160 1.523 . S
H1162 C1137 0.950 . S
H1163 C1139 0.950 . S
H1164 C1140 0.949 . S
H1165 C1142 0.950 . S
H1166 C1144 0.950 . S
C1167 C1168 1.349 . S
C1167 C1169 1.327 . S
C1167 H1192 0.950 . S
C1168 C1167 1.349 . S
C1168 C1184 1.349 . S
C1169 C1167 1.327 . S
C1169 C1188 1.429 . S
C1169 H1193 0.950 . S
C1170 C1187 1.574 . S
C1170 C1189 1.368 . S
C1170 H1194 0.949 . S
H1171 C1175 0.949 . S
C1172 C1173 1.349 . S
C1172 C1174 1.327 . S
C1172 H1195 0.950 . S
C1173 C1172 1.349 . S
C1173 C1185 1.349 . S
C1174 C1172 1.327 . S
C1174 C1190 1.429 . S
C1174 H1196 0.950 . S
C1175 H1171 0.949 . S
C1175 C1183 1.574 . S
C1175 C1191 1.368 . S
H1176 C1184 0.950 . S
H1177 C1182 0.950 . S
H1178 C1183 0.949 . S
H1179 C1185 0.950 . S
H1180 C1186 0.950 . S
H1181 C1187 0.949 . S
C1182 H1177 0.950 . S
C1182 C1184 1.327 . S
C1182 C1188 1.429 . S
C1183 C1175 1.574 . S
C1183 H1178 0.949 . S
C1183 C1189 1.368 . S
C1184 C1168 1.349 . S
C1184 H1176 0.950 . S
C1184 C1182 1.327 . S
C1185 C1173 1.349 . S
C1185 H1179 0.950 . S
C1185 C1186 1.327 . S
C1186 H1180 0.950 . S
C1186 C1185 1.327 . S
C1186 C1190 1.429 . S
C1187 C1170 1.574 . S
C1187 H1181 0.949 . S
C1187 C1191 1.368 . S
C1188 C1169 1.429 . S
C1188 C1182 1.429 . S
C1188 C1189 1.523 . S
C1189 C1170 1.368 . S
C1189 C1183 1.368 . S
C1189 C1188 1.523 . S
C1190 C1174 1.429 . S
C1190 C1186 1.429 . S
C1190 C1191 1.523 . S
C1191 C1175 1.368 . S
C1191 C1187 1.368 . S
C1191 C1190 1.523 . S
H1192 C1167 0.950 . S
H1193 C1169 0.950 . S
H1194 C1170 0.949 . S
H1195 C1172 0.950 . S
H1196 C1174 0.950 . S
C1197 C1198 1.349 . S
C1197 C1199 1.327 . S
C1197 H1222 0.950 . S
C1198 C1197 1.349 . S
C1198 C1214 1.349 . S
C1199 C1197 1.327 . S
C1199 C1218 1.429 . S
C1199 H1223 0.950 . S
C1200 C1217 1.574 1_565 S
C1200 C1219 1.368 . S
C1200 H1224 0.949 . S
H1201 C1205 0.949 . S
C1202 C1203 1.349 . S
C1202 C1204 1.327 . S
C1202 H1225 0.950 . S
C1203 C1202 1.349 . S
C1203 C1215 1.349 . S
C1204 C1202 1.327 . S
C1204 C1220 1.429 . S
C1204 H1226 0.950 . S
C1205 H1201 0.949 . S
C1205 C1213 1.574 1_545 S
C1205 C1221 1.368 . S
H1206 C1214 0.950 . S
H1207 C1212 0.950 . S
H1208 C1213 0.949 . S
H1209 C1215 0.950 . S
H1210 C1216 0.950 . S
H1211 C1217 0.949 . S
C1212 H1207 0.950 . S
C1212 C1214 1.327 . S
C1212 C1218 1.429 . S
C1213 C1205 1.574 1_565 S
C1213 H1208 0.949 . S
C1213 C1219 1.368 . S
C1214 C1198 1.349 . S
C1214 H1206 0.950 . S
C1214 C1212 1.327 . S
C1215 C1203 1.349 . S
C1215 H1209 0.950 . S
C1215 C1216 1.327 . S
C1216 H1210 0.950 . S
C1216 C1215 1.327 . S
C1216 C1220 1.429 . S
C1217 C1200 1.574 1_545 S
C1217 H1211 0.949 . S
C1217 C1221 1.368 . S
C1218 C1199 1.429 . S
C1218 C1212 1.429 . S
C1218 C1219 1.523 . S
C1219 C1200 1.368 . S
C1219 C1213 1.368 . S
C1219 C1218 1.523 . S
C1220 C1204 1.429 . S
C1220 C1216 1.429 . S
C1220 C1221 1.523 . S
C1221 C1205 1.368 . S
C1221 C1217 1.368 . S
C1221 C1220 1.523 . S
H1222 C1197 0.950 . S
H1223 C1199 0.950 . S
H1224 C1200 0.949 . S
H1225 C1202 0.950 . S
H1226 C1204 0.950 . S
C1227 C1228 1.349 . S
C1227 C1229 1.327 . S
C1227 H1252 0.950 . S
C1228 C1227 1.349 . S
C1228 C1244 1.349 . S
C1229 C1227 1.327 . S
C1229 C1248 1.429 . S
C1229 H1253 0.950 . S
C1230 C1247 1.574 1_455 S
C1230 C1249 1.368 . S
C1230 H1254 0.949 . S
H1231 C1235 0.949 . S
C1232 C1233 1.349 . S
C1232 C1234 1.327 . S
C1232 H1255 0.950 . S
C1233 C1232 1.349 . S
C1233 C1245 1.349 . S
C1234 C1232 1.327 . S
C1234 C1250 1.429 . S
C1234 H1256 0.950 . S
C1235 H1231 0.949 . S
C1235 C1243 1.574 1_655 S
C1235 C1251 1.368 . S
H1236 C1244 0.950 . S
H1237 C1242 0.950 . S
H1238 C1243 0.949 . S
H1239 C1245 0.950 . S
H1240 C1246 0.950 . S
H1241 C1247 0.949 . S
C1242 H1237 0.950 . S
C1242 C1244 1.327 . S
C1242 C1248 1.429 . S
C1243 C1235 1.574 1_455 S
C1243 H1238 0.949 . S
C1243 C1249 1.368 . S
C1244 C1228 1.349 . S
C1244 H1236 0.950 . S
C1244 C1242 1.327 . S
C1245 C1233 1.349 . S
C1245 H1239 0.950 . S
C1245 C1246 1.327 . S
C1246 H1240 0.950 . S
C1246 C1245 1.327 . S
C1246 C1250 1.429 . S
C1247 C1230 1.574 1_655 S
C1247 H1241 0.949 . S
C1247 C1251 1.368 . S
C1248 C1229 1.429 . S
C1248 C1242 1.429 . S
C1248 C1249 1.523 . S
C1249 C1230 1.368 . S
C1249 C1243 1.368 . S
C1249 C1248 1.523 . S
C1250 C1234 1.429 . S
C1250 C1246 1.429 . S
C1250 C1251 1.523 . S
C1251 C1235 1.368 . S
C1251 C1247 1.368 . S
C1251 C1250 1.523 . S
H1252 C1227 0.950 . S
H1253 C1229 0.950 . S
H1254 C1230 0.949 . S
H1255 C1232 0.950 . S
H1256 C1234 0.950 . S
C1257 C1258 1.349 . S
C1257 C1259 1.327 . S
C1257 H1282 0.950 . S
C1258 C1257 1.349 . S
C1258 C1274 1.349 . S
C1259 C1257 1.327 . S
C1259 C1278 1.429 . S
C1259 H1283 0.950 . S
C1260 C1277 1.574 . S
C1260 C1279 1.368 . S
C1260 H1284 0.949 . S
H1261 C1265 0.949 . S
C1262 C1263 1.349 . S
C1262 C1264 1.327 . S
C1262 H1285 0.950 . S
C1263 C1262 1.349 . S
C1263 C1275 1.349 . S
C1264 C1262 1.327 . S
C1264 C1280 1.429 . S
C1264 H1286 0.950 . S
C1265 H1261 0.949 . S
C1265 C1273 1.574 . S
C1265 C1281 1.368 . S
H1266 C1274 0.950 . S
H1267 C1272 0.950 . S
H1268 C1273 0.949 . S
H1269 C1275 0.950 . S
H1270 C1276 0.950 . S
H1271 C1277 0.949 . S
C1272 H1267 0.950 . S
C1272 C1274 1.327 . S
C1272 C1278 1.429 . S
C1273 C1265 1.574 . S
C1273 H1268 0.949 . S
C1273 C1279 1.368 . S
C1274 C1258 1.349 . S
C1274 H1266 0.950 . S
C1274 C1272 1.327 . S
C1275 C1263 1.349 . S
C1275 H1269 0.950 . S
C1275 C1276 1.327 . S
C1276 H1270 0.950 . S
C1276 C1275 1.327 . S
C1276 C1280 1.429 . S
C1277 C1260 1.574 . S
C1277 H1271 0.949 . S
C1277 C1281 1.368 . S
C1278 C1259 1.429 . S
C1278 C1272 1.429 . S
C1278 C1279 1.523 . S
C1279 C1260 1.368 . S
C1279 C1273 1.368 . S
C1279 C1278 1.523 . S
C1280 C1264 1.429 . S
C1280 C1276 1.429 . S
C1280 C1281 1.523 . S
C1281 C1265 1.368 . S
C1281 C1277 1.368 . S
C1281 C1280 1.523 . S
H1282 C1257 0.950 . S
H1283 C1259 0.950 . S
H1284 C1260 0.949 . S
H1285 C1262 0.950 . S
H1286 C1264 0.950 . S
C1287 C1288 1.349 . S
C1287 C1289 1.327 . S
C1287 H1312 0.950 . S
C1288 C1287 1.349 . S
C1288 C1304 1.349 . S
C1289 C1287 1.327 . S
C1289 C1308 1.429 . S
C1289 H1313 0.950 . S
C1290 C1307 1.574 . S
C1290 C1309 1.368 . S
C1290 H1314 0.949 . S
H1291 C1295 0.949 . S
C1292 C1293 1.349 . S
C1292 C1294 1.327 . S
C1292 H1315 0.950 . S
C1293 C1292 1.349 . S
C1293 C1305 1.349 . S
C1294 C1292 1.327 . S
C1294 C1310 1.429 . S
C1294 H1316 0.950 . S
C1295 H1291 0.949 . S
C1295 C1303 1.574 . S
C1295 C1311 1.368 . S
H1296 C1304 0.950 . S
H1297 C1302 0.950 . S
H1298 C1303 0.949 . S
H1299 C1305 0.950 . S
H1300 C1306 0.950 . S
H1301 C1307 0.949 . S
C1302 H1297 0.950 . S
C1302 C1304 1.327 . S
C1302 C1308 1.429 . S
C1303 C1295 1.574 . S
C1303 H1298 0.949 . S
C1303 C1309 1.368 . S
C1304 C1288 1.349 . S
C1304 H1296 0.950 . S
C1304 C1302 1.327 . S
C1305 C1293 1.349 . S
C1305 H1299 0.950 . S
C1305 C1306 1.327 . S
C1306 H1300 0.950 . S
C1306 C1305 1.327 . S
C1306 C1310 1.429 . S
C1307 C1290 1.574 . S
C1307 H1301 0.949 . S
C1307 C1311 1.368 . S
C1308 C1289 1.429 . S
C1308 C1302 1.429 . S
C1308 C1309 1.523 1_455 S
C1309 C1290 1.368 . S
C1309 C1303 1.368 . S
C1309 C1308 1.523 1_655 S
C1310 C1294 1.429 . S
C1310 C1306 1.429 . S
C1310 C1311 1.523 . S
C1311 C1295 1.368 . S
C1311 C1307 1.368 . S
C1311 C1310 1.523 . S
H1312 C1287 0.950 . S
H1313 C1289 0.950 . S
H1314 C1290 0.949 . S
H1315 C1292 0.950 . S
H1316 C1294 0.950 . S
C1317 C1318 1.349 . S
C1317 C1319 1.327 . S
C1317 H1342 0.950 . S
C1318 C1317 1.349 . S
C1318 C1334 1.349 . S
C1319 C1317 1.327 . S
C1319 C1338 1.429 . S
C1319 H1343 0.950 . S
C1320 C1337 1.574 . S
C1320 C1339 1.368 . S
C1320 H1344 0.949 . S
H1321 C1325 0.949 . S
C1322 C1323 1.349 . S
C1322 C1324 1.327 . S
C1322 H1345 0.950 . S
C1323 C1322 1.349 . S
C1323 C1335 1.349 . S
C1324 C1322 1.327 . S
C1324 C1340 1.429 . S
C1324 H1346 0.950 . S
C1325 H1321 0.949 . S
C1325 C1333 1.574 . S
C1325 C1341 1.368 . S
H1326 C1334 0.950 . S
H1327 C1332 0.950 . S
H1328 C1333 0.949 . S
H1329 C1335 0.950 . S
H1330 C1336 0.950 . S
H1331 C1337 0.949 . S
C1332 H1327 0.950 . S
C1332 C1334 1.327 . S
C1332 C1338 1.429 . S
C1333 C1325 1.574 . S
C1333 H1328 0.949 . S
C1333 C1339 1.368 . S
C1334 C1318 1.349 . S
C1334 H1326 0.950 . S
C1334 C1332 1.327 . S
C1335 C1323 1.349 . S
C1335 H1329 0.950 . S
C1335 C1336 1.327 . S
C1336 H1330 0.950 . S
C1336 C1335 1.327 . S
C1336 C1340 1.429 . S
C1337 C1320 1.574 . S
C1337 H1331 0.949 . S
C1337 C1341 1.368 . S
C1338 C1319 1.429 . S
C1338 C1332 1.429 . S
C1338 C1339 1.523 . S
C1339 C1320 1.368 . S
C1339 C1333 1.368 . S
C1339 C1338 1.523 . S
C1340 C1324 1.429 . S
C1340 C1336 1.429 . S
C1340 C1341 1.523 . S
C1341 C1325 1.368 . S
C1341 C1337 1.368 . S
C1341 C1340 1.523 . S
H1342 C1317 0.950 . S
H1343 C1319 0.950 . S
H1344 C1320 0.949 . S
H1345 C1322 0.950 . S
H1346 C1324 0.950 . S
C1347 C1348 1.349 . S
C1347 C1349 1.327 . S
C1347 H1372 0.950 . S
C1348 C1347 1.349 . S
C1348 C1364 1.349 . S
C1349 C1347 1.327 . S
C1349 C1368 1.468 . S
C1349 H1373 0.950 . S
C1350 C1367 1.574 . S
C1350 C1369 1.368 . S
C1350 H1374 0.949 . S
H1351 C1355 0.949 . S
C1352 C1353 1.349 . S
C1352 C1354 1.327 . S
C1352 H1375 0.950 . S
C1353 C1352 1.349 . S
C1353 C1365 1.349 . S
C1354 C1352 1.327 . S
C1354 C1370 1.429 . S
C1354 H1376 0.950 . S
C1355 H1351 0.949 . S
C1355 C1363 1.574 . S
C1355 C1371 1.368 . S
H1356 C1364 0.950 . S
H1357 C1362 0.950 . S
H1358 C1363 0.949 . S
H1359 C1365 0.950 . S
H1360 C1366 0.950 . S
H1361 C1367 0.949 . S
C1362 H1357 0.950 . S
C1362 C1364 1.327 . S
C1362 C1368 1.447 . S
C1363 C1355 1.574 . S
C1363 H1358 0.949 . S
C1363 C1369 1.368 . S
C1364 C1348 1.349 . S
C1364 H1356 0.950 . S
C1364 C1362 1.327 . S
C1365 C1353 1.349 . S
C1365 H1359 0.950 . S
C1365 C1366 1.327 . S
C1366 H1360 0.950 . S
C1366 C1365 1.327 . S
C1366 C1370 1.429 . S
C1367 C1350 1.574 . S
C1367 H1361 0.949 . S
C1367 C1371 1.368 . S
C1368 C1349 1.468 . S
C1368 C1362 1.447 . S
C1368 C1369 1.470 1_565 S
C1369 C1350 1.368 . S
C1369 C1363 1.368 . S
C1369 C1368 1.470 1_545 S
C1370 C1354 1.429 . S
C1370 C1366 1.429 . S
C1370 C1371 1.523 . S
C1371 C1355 1.368 . S
C1371 C1367 1.368 . S
C1371 C1370 1.523 . S
H1372 C1347 0.950 . S
H1373 C1349 0.950 . S
H1374 C1350 0.949 . S
H1375 C1352 0.950 . S
H1376 C1354 0.950 . S
C1377 C1378 1.349 . S
C1377 C1379 1.327 . S
C1377 H1402 0.950 . S
C1378 C1377 1.349 . S
C1378 C1394 1.349 . S
C1379 C1377 1.327 . S
C1379 C1398 1.429 . S
C1379 H1403 0.950 . S
C1380 C1397 1.574 . S
C1380 C1399 1.368 . S
C1380 H1404 0.949 . S
H1381 C1385 0.949 . S
C1382 C1383 1.349 . S
C1382 C1384 1.327 . S
C1382 H1405 0.950 . S
C1383 C1382 1.349 . S
C1383 C1395 1.349 . S
C1384 C1382 1.327 . S
C1384 C1400 1.429 . S
C1384 H1406 0.950 . S
C1385 H1381 0.949 . S
C1385 C1393 1.574 . S
C1385 C1401 1.368 . S
H1386 C1394 0.950 . S
H1387 C1392 0.950 . S
H1388 C1393 0.949 . S
H1389 C1395 0.950 . S
H1390 C1396 0.950 . S
H1391 C1397 0.949 . S
C1392 H1387 0.950 . S
C1392 C1394 1.327 . S
C1392 C1398 1.429 . S
C1393 C1385 1.574 . S
C1393 H1388 0.949 . S
C1393 C1399 1.368 . S
C1394 C1378 1.349 . S
C1394 H1386 0.950 . S
C1394 C1392 1.327 . S
C1395 C1383 1.349 . S
C1395 H1389 0.950 . S
C1395 C1396 1.327 . S
C1396 H1390 0.950 . S
C1396 C1395 1.327 . S
C1396 C1400 1.429 . S
C1397 C1380 1.574 . S
C1397 H1391 0.949 . S
C1397 C1401 1.368 . S
C1398 C1379 1.429 . S
C1398 C1392 1.429 . S
C1398 C1399 1.523 . S
C1399 C1380 1.368 . S
C1399 C1393 1.368 . S
C1399 C1398 1.523 . S
C1400 C1384 1.429 . S
C1400 C1396 1.429 . S
C1400 C1401 1.523 . S
C1401 C1385 1.368 . S
C1401 C1397 1.368 . S
C1401 C1400 1.523 . S
H1402 C1377 0.950 . S
H1403 C1379 0.950 . S
H1404 C1380 0.949 . S
H1405 C1382 0.950 . S
H1406 C1384 0.950 . S
C1407 C1408 1.349 . S
C1407 C1409 1.327 . S
C1407 H1432 0.950 . S
C1408 C1407 1.349 . S
C1408 C1424 1.349 . S
C1409 C1407 1.327 . S
C1409 C1428 1.429 . S
C1409 H1433 0.950 . S
C1410 C1427 1.574 . S
C1410 C1429 1.368 . S
C1410 H1434 0.949 . S
H1411 C1415 0.949 . S
C1412 C1413 1.349 . S
C1412 C1414 1.327 . S
C1412 H1435 0.950 . S
C1413 C1412 1.349 . S
C1413 C1425 1.349 . S
C1414 C1412 1.327 . S
C1414 C1430 1.429 . S
C1414 H1436 0.950 . S
C1415 H1411 0.949 . S
C1415 C1423 1.574 . S
C1415 C1431 1.368 . S
H1416 C1424 0.950 . S
H1417 C1422 0.950 . S
H1418 C1423 0.949 . S
H1419 C1425 0.950 . S
H1420 C1426 0.950 . S
H1421 C1427 0.949 . S
C1422 H1417 0.950 . S
C1422 C1424 1.327 . S
C1422 C1428 1.429 . S
C1423 C1415 1.574 . S
C1423 H1418 0.949 . S
C1423 C1429 1.368 . S
C1424 C1408 1.349 . S
C1424 H1416 0.950 . S
C1424 C1422 1.327 . S
C1425 C1413 1.349 . S
C1425 H1419 0.950 . S
C1425 C1426 1.327 . S
C1426 H1420 0.950 . S
C1426 C1425 1.327 . S
C1426 C1430 1.429 . S
C1427 C1410 1.574 . S
C1427 H1421 0.949 . S
C1427 C1431 1.368 . S
C1428 C1409 1.429 . S
C1428 C1422 1.429 . S
C1428 C1429 1.523 . S
C1429 C1410 1.368 . S
C1429 C1423 1.368 . S
C1429 C1428 1.523 . S
C1430 C1414 1.429 . S
C1430 C1426 1.429 . S
C1430 C1431 1.523 . S
C1431 C1415 1.368 . S
C1431 C1427 1.368 . S
C1431 C1430 1.523 . S
H1432 C1407 0.950 . S
H1433 C1409 0.950 . S
H1434 C1410 0.949 . S
H1435 C1412 0.950 . S
H1436 C1414 0.950 . S
C1437 C1438 1.349 . S
C1437 C1439 1.327 . S
C1437 H1462 0.950 . S
C1438 C1437 1.349 . S
C1438 C1454 1.349 . S
C1439 C1437 1.327 . S
C1439 C1458 1.429 . S
C1439 H1463 0.950 . S
C1440 C1457 1.574 . S
C1440 C1459 1.368 . S
C1440 H1464 0.949 . S
H1441 C1445 0.949 . S
C1442 C1443 1.349 . S
C1442 C1444 1.327 . S
C1442 H1465 0.950 . S
C1443 C1442 1.349 . S
C1443 C1455 1.349 . S
C1444 C1442 1.327 . S
C1444 C1460 1.429 . S
C1444 H1466 0.950 . S
C1445 H1441 0.949 . S
C1445 C1453 1.574 . S
C1445 C1461 1.368 . S
H1446 C1454 0.950 . S
H1447 C1452 0.950 . S
H1448 C1453 0.949 . S
H1449 C1455 0.950 . S
H1450 C1456 0.950 . S
H1451 C1457 0.949 . S
C1452 H1447 0.950 . S
C1452 C1454 1.327 . S
C1452 C1458 1.429 . S
C1453 C1445 1.574 . S
C1453 H1448 0.949 . S
C1453 C1459 1.368 . S
C1454 C1438 1.349 . S
C1454 H1446 0.950 . S
C1454 C1452 1.327 . S
C1455 C1443 1.349 . S
C1455 H1449 0.950 . S
C1455 C1456 1.327 . S
C1456 H1450 0.950 . S
C1456 C1455 1.327 . S
C1456 C1460 1.429 . S
C1457 C1440 1.574 . S
C1457 H1451 0.949 . S
C1457 C1461 1.368 . S
C1458 C1439 1.429 . S
C1458 C1452 1.429 . S
C1458 C1459 1.523 . S
C1459 C1440 1.368 . S
C1459 C1453 1.368 . S
C1459 C1458 1.523 . S
C1460 C1444 1.429 . S
C1460 C1456 1.429 . S
C1460 C1461 1.523 . S
C1461 C1445 1.368 . S
C1461 C1457 1.368 . S
C1461 C1460 1.523 . S
H1462 C1437 0.950 . S
H1463 C1439 0.950 . S
H1464 C1440 0.949 . S
H1465 C1442 0.950 . S
H1466 C1444 0.950 . S
C1467 C1468 1.349 . S
C1467 C1469 1.327 . S
C1467 H1492 0.950 . S
C1468 C1467 1.349 . S
C1468 C1484 1.349 . S
C1469 C1467 1.327 . S
C1469 C1488 1.429 . S
C1469 H1493 0.950 . S
C1470 C1487 1.574 . S
C1470 C1489 1.368 . S
C1470 H1494 0.949 . S
H1471 C1475 0.949 . S
C1472 C1473 1.349 . S
C1472 C1474 1.327 . S
C1472 H1495 0.950 . S
C1473 C1472 1.349 . S
C1473 C1485 1.349 1_565 S
C1474 C1472 1.327 . S
C1474 C1490 1.429 . S
C1474 H1496 0.950 . S
C1475 H1471 0.949 . S
C1475 C1483 1.574 . S
C1475 C1491 1.368 . S
H1476 C1484 0.950 . S
H1477 C1482 0.950 . S
H1478 C1483 0.949 . S
H1479 C1485 0.950 . S
H1480 C1486 0.950 1_545 S
H1481 C1487 0.949 . S
C1482 H1477 0.950 . S
C1482 C1484 1.327 . S
C1482 C1488 1.429 . S
C1483 C1475 1.574 . S
C1483 H1478 0.949 . S
C1483 C1489 1.368 . S
C1484 C1468 1.349 . S
C1484 H1476 0.950 . S
C1484 C1482 1.327 . S
C1485 C1473 1.349 1_545 S
C1485 H1479 0.950 . S
C1485 C1486 1.327 1_545 S
C1486 H1480 0.950 1_565 S
C1486 C1485 1.327 1_565 S
C1486 C1490 1.429 . S
C1487 C1470 1.574 . S
C1487 H1481 0.949 . S
C1487 C1491 1.368 . S
C1488 C1469 1.429 . S
C1488 C1482 1.429 . S
C1488 C1489 1.523 . S
C1489 C1470 1.368 . S
C1489 C1483 1.368 . S
C1489 C1488 1.523 . S
C1490 C1474 1.429 . S
C1490 C1486 1.429 . S
C1490 C1491 1.523 . S
C1491 C1475 1.368 . S
C1491 C1487 1.368 . S
C1491 C1490 1.523 . S
H1492 C1467 0.950 . S
H1493 C1469 0.950 . S
H1494 C1470 0.949 . S
H1495 C1472 0.950 . S
H1496 C1474 0.950 . S
C1497 C1498 1.349 . S
C1497 C1499 1.327 . S
C1497 H1522 0.950 . S
C1498 C1497 1.349 . S
C1498 C1514 1.349 . S
C1499 C1497 1.327 . S
C1499 C1518 1.429 . S
C1499 H1523 0.950 . S
C1500 C1517 1.574 . S
C1500 C1519 1.368 . S
C1500 H1524 0.949 . S
H1501 C1505 0.949 . S
C1502 C1503 1.349 . S
C1502 C1504 1.327 . S
C1502 H1525 0.950 . S
C1503 C1502 1.349 . S
C1503 C1515 1.349 . S
C1504 C1502 1.327 . S
C1504 C1520 1.429 . S
C1504 H1526 0.950 . S
C1505 H1501 0.949 . S
C1505 C1513 1.574 . S
C1505 C1521 1.368 . S
H1506 C1514 0.950 . S
H1507 C1512 0.950 . S
H1508 C1513 0.949 . S
H1509 C1515 0.950 1_655 S
H1510 C1516 0.950 . S
H1511 C1517 0.949 . S
C1512 H1507 0.950 . S
C1512 C1514 1.327 . S
C1512 C1518 1.429 . S
C1513 C1505 1.574 . S
C1513 H1508 0.949 . S
C1513 C1519 1.368 . S
C1514 C1498 1.349 . S
C1514 H1506 0.950 . S
C1514 C1512 1.327 . S
C1515 C1503 1.349 . S
C1515 H1509 0.950 1_455 S
C1515 C1516 1.327 . S
C1516 H1510 0.950 . S
C1516 C1515 1.327 . S
C1516 C1520 1.429 . S
C1517 C1500 1.574 . S
C1517 H1511 0.949 . S
C1517 C1521 1.368 . S
C1518 C1499 1.429 . S
C1518 C1512 1.429 . S
C1518 C1519 1.523 . S
C1519 C1500 1.368 . S
C1519 C1513 1.368 . S
C1519 C1518 1.523 . S
C1520 C1504 1.429 . S
C1520 C1516 1.429 . S
C1520 C1521 1.523 . S
C1521 C1505 1.368 . S
C1521 C1517 1.368 . S
C1521 C1520 1.523 . S
H1522 C1497 0.950 . S
H1523 C1499 0.950 . S
H1524 C1500 0.949 . S
H1525 C1502 0.950 . S
H1526 C1504 0.950 . S
C1527 C1528 1.349 . S
C1527 C1529 1.327 . S
C1527 H1552 0.950 . S
C1528 C1527 1.349 . S
C1528 C1544 1.349 . S
C1529 C1527 1.327 . S
C1529 C1548 1.429 . S
C1529 H1553 0.950 . S
C1530 C1547 1.574 . S
C1530 C1549 1.368 . S
C1530 H1554 0.949 . S
H1531 C1535 0.949 . S
C1532 C1533 1.349 . S
C1532 C1534 1.327 . S
C1532 H1555 0.950 . S
C1533 C1532 1.349 . S
C1533 C1545 1.349 . S
C1534 C1532 1.327 . S
C1534 C1550 1.429 . S
C1534 H1556 0.950 . S
C1535 H1531 0.949 . S
C1535 C1543 1.574 . S
C1535 C1551 1.368 . S
H1536 C1544 0.950 . S
H1537 C1542 0.950 . S
H1538 C1543 0.949 . S
H1539 C1545 0.950 . S
H1540 C1546 0.950 . S
H1541 C1547 0.949 . S
C1542 H1537 0.950 . S
C1542 C1544 1.327 . S
C1542 C1548 1.429 . S
C1543 C1535 1.574 . S
C1543 H1538 0.949 . S
C1543 C1549 1.368 . S
C1544 C1528 1.349 . S
C1544 H1536 0.950 . S
C1544 C1542 1.327 . S
C1545 C1533 1.349 . S
C1545 H1539 0.950 . S
C1545 C1546 1.327 . S
C1546 H1540 0.950 . S
C1546 C1545 1.327 . S
C1546 C1550 1.429 . S
C1547 C1530 1.574 . S
C1547 H1541 0.949 . S
C1547 C1551 1.368 . S
C1548 C1529 1.429 . S
C1548 C1542 1.429 . S
C1548 C1549 1.523 . S
C1549 C1530 1.368 . S
C1549 C1543 1.368 . S
C1549 C1548 1.523 . S
C1550 C1534 1.429 . S
C1550 C1546 1.429 . S
C1550 C1551 1.523 . S
C1551 C1535 1.368 . S
C1551 C1547 1.368 . S
C1551 C1550 1.523 . S
H1552 C1527 0.950 . S
H1553 C1529 0.950 . S
H1554 C1530 0.949 . S
H1555 C1532 0.950 . S
H1556 C1534 0.950 . S
C1557 C1558 1.349 . S
C1557 C1559 1.327 . S
C1557 H1582 0.950 . S
C1558 C1557 1.349 . S
C1558 C1574 1.349 . S
C1559 C1557 1.327 . S
C1559 C1578 1.429 . S
C1559 H1583 0.950 . S
C1560 C1577 1.574 . S
C1560 C1579 1.368 . S
C1560 H1584 0.949 . S
H1561 C1565 0.949 . S
C1562 C1563 1.349 . S
C1562 C1564 1.327 . S
C1562 H1585 0.950 . S
C1563 C1562 1.349 . S
C1563 C1575 1.349 . S
C1564 C1562 1.327 . S
C1564 C1580 1.429 . S
C1564 H1586 0.950 . S
C1565 H1561 0.949 . S
C1565 C1573 1.574 . S
C1565 C1581 1.368 . S
H1566 C1574 0.950 . S
H1567 C1572 0.950 . S
H1568 C1573 0.949 . S
H1569 C1575 0.950 . S
H1570 C1576 0.950 . S
H1571 C1577 0.949 . S
C1572 H1567 0.950 . S
C1572 C1574 1.327 . S
C1572 C1578 1.429 . S
C1573 C1565 1.574 . S
C1573 H1568 0.949 . S
C1573 C1579 1.368 . S
C1574 C1558 1.349 . S
C1574 H1566 0.950 . S
C1574 C1572 1.327 . S
C1575 C1563 1.349 . S
C1575 H1569 0.950 . S
C1575 C1576 1.327 . S
C1576 H1570 0.950 . S
C1576 C1575 1.327 . S
C1576 C1580 1.429 . S
C1577 C1560 1.574 . S
C1577 H1571 0.949 . S
C1577 C1581 1.368 . S
C1578 C1559 1.429 . S
C1578 C1572 1.429 . S
C1578 C1579 1.523 . S
C1579 C1560 1.368 . S
C1579 C1573 1.368 . S
C1579 C1578 1.523 . S
C1580 C1564 1.429 . S
C1580 C1576 1.429 . S
C1580 C1581 1.523 . S
C1581 C1565 1.368 . S
C1581 C1577 1.368 . S
C1581 C1580 1.523 . S
H1582 C1557 0.950 . S
H1583 C1559 0.950 . S
H1584 C1560 0.949 . S
H1585 C1562 0.950 . S
H1586 C1564 0.950 . S
C1587 C1588 1.349 . S
C1587 C1589 1.327 . S
C1587 H1612 0.950 . S
C1588 C1587 1.349 . S
C1588 C1604 1.349 . S
C1589 C1587 1.327 . S
C1589 C1608 1.429 . S
C1589 H1613 0.950 . S
C1590 C1607 1.574 . S
C1590 C1609 1.368 . S
C1590 H1614 0.949 . S
H1591 C1595 0.949 . S
C1592 C1593 1.349 . S
C1592 C1594 1.327 . S
C1592 H1615 0.950 . S
C1593 C1592 1.349 . S
C1593 C1605 1.349 . S
C1594 C1592 1.327 . S
C1594 C1610 1.429 . S
C1594 H1616 0.950 . S
C1595 H1591 0.949 . S
C1595 C1603 1.574 . S
C1595 C1611 1.368 . S
H1596 C1604 0.950 . S
H1597 C1602 0.950 . S
H1598 C1603 0.949 . S
H1599 C1605 0.950 . S
H1600 C1606 0.950 . S
H1601 C1607 0.949 . S
C1602 H1597 0.950 . S
C1602 C1604 1.327 . S
C1602 C1608 1.429 . S
C1603 C1595 1.574 . S
C1603 H1598 0.949 . S
C1603 C1609 1.368 . S
C1604 C1588 1.349 . S
C1604 H1596 0.950 . S
C1604 C1602 1.327 . S
C1605 C1593 1.349 . S
C1605 H1599 0.950 . S
C1605 C1606 1.327 . S
C1606 H1600 0.950 . S
C1606 C1605 1.327 . S
C1606 C1610 1.429 . S
C1607 C1590 1.574 . S
C1607 H1601 0.949 . S
C1607 C1611 1.368 . S
C1608 C1589 1.429 . S
C1608 C1602 1.429 . S
C1608 C1609 1.523 . S
C1609 C1590 1.368 . S
C1609 C1603 1.368 . S
C1609 C1608 1.523 . S
C1610 C1594 1.429 . S
C1610 C1606 1.429 . S
C1610 C1611 1.523 . S
C1611 C1595 1.368 . S
C1611 C1607 1.368 . S
C1611 C1610 1.523 . S
H1612 C1587 0.950 . S
H1613 C1589 0.950 . S
H1614 C1590 0.949 . S
H1615 C1592 0.950 . S
H1616 C1594 0.950 . S
C1617 C1618 1.349 . S
C1617 C1619 1.327 . S
C1617 H1642 0.950 . S
C1618 C1617 1.349 . S
C1618 C1634 1.349 . S
C1619 C1617 1.327 . S
C1619 C1638 1.429 . S
C1619 H1643 0.950 . S
C1620 C1637 1.574 . S
C1620 C1639 1.368 . S
C1620 H1644 0.949 . S
H1621 C1625 0.949 . S
C1622 C1623 1.349 . S
C1622 C1624 1.327 . S
C1622 H1645 0.950 . S
C1623 C1622 1.349 . S
C1623 C1635 1.349 . S
C1624 C1622 1.327 . S
C1624 C1640 1.429 . S
C1624 H1646 0.950 . S
C1625 H1621 0.949 . S
C1625 C1633 1.574 . S
C1625 C1641 1.368 . S
H1626 C1634 0.950 . S
H1627 C1632 0.950 . S
H1628 C1633 0.949 . S
H1629 C1635 0.950 1_565 S
H1630 C1636 0.950 . S
H1631 C1637 0.949 . S
C1632 H1627 0.950 . S
C1632 C1634 1.327 . S
C1632 C1638 1.429 . S
C1633 C1625 1.574 . S
C1633 H1628 0.949 . S
C1633 C1639 1.368 . S
C1634 C1618 1.349 . S
C1634 H1626 0.950 . S
C1634 C1632 1.327 . S
C1635 C1623 1.349 . S
C1635 H1629 0.950 1_545 S
C1635 C1636 1.327 . S
C1636 H1630 0.950 . S
C1636 C1635 1.327 . S
C1636 C1640 1.429 . S
C1637 C1620 1.574 . S
C1637 H1631 0.949 . S
C1637 C1641 1.368 . S
C1638 C1619 1.429 . S
C1638 C1632 1.429 . S
C1638 C1639 1.523 . S
C1639 C1620 1.368 . S
C1639 C1633 1.368 . S
C1639 C1638 1.523 . S
C1640 C1624 1.429 . S
C1640 C1636 1.429 . S
C1640 C1641 1.523 . S
C1641 C1625 1.368 . S
C1641 C1637 1.368 . S
C1641 C1640 1.523 . S
H1642 C1617 0.950 . S
H1643 C1619 0.950 . S
H1644 C1620 0.949 . S
H1645 C1622 0.950 . S
H1646 C1624 0.950 . S
C1647 C1648 1.349 . S
C1647 C1649 1.327 . S
C1647 H1672 0.950 . S
C1648 C1647 1.349 . S
C1648 C1664 1.349 . S
C1649 C1647 1.327 . S
C1649 C1668 1.429 . S
C1649 H1673 0.950 . S
C1650 C1667 1.574 . S
C1650 C1669 1.368 . S
C1650 H1674 0.949 . S
H1651 C1655 0.949 . S
C1652 C1653 1.349 . S
C1652 C1654 1.327 . S
C1652 H1675 0.950 . S
C1653 C1652 1.349 . S
C1653 C1665 1.349 . S
C1654 C1652 1.327 . S
C1654 C1670 1.429 . S
C1654 H1676 0.950 . S
C1655 H1651 0.949 . S
C1655 C1663 1.574 . S
C1655 C1671 1.368 . S
H1656 C1664 0.950 . S
H1657 C1662 0.950 . S
H1658 C1663 0.949 . S
H1659 C1665 0.950 . S
H1660 C1666 0.950 . S
H1661 C1667 0.949 . S
C1662 H1657 0.950 . S
C1662 C1664 1.327 . S
C1662 C1668 1.429 . S
C1663 C1655 1.574 . S
C1663 H1658 0.949 . S
C1663 C1669 1.368 . S
C1664 C1648 1.349 . S
C1664 H1656 0.950 . S
C1664 C1662 1.327 . S
C1665 C1653 1.349 . S
C1665 H1659 0.950 . S
C1665 C1666 1.327 . S
C1666 H1660 0.950 . S
C1666 C1665 1.327 . S
C1666 C1670 1.429 . S
C1667 C1650 1.574 . S
C1667 H1661 0.949 . S
C1667 C1671 1.368 . S
C1668 C1649 1.429 . S
C1668 C1662 1.429 . S
C1668 C1669 1.523 . S
C1669 C1650 1.368 . S
C1669 C1663 1.368 . S
C1669 C1668 1.523 . S
C1670 C1654 1.429 . S
C1670 C1666 1.429 . S
C1670 C1671 1.523 . S
C1671 C1655 1.368 . S
C1671 C1667 1.368 . S
C1671 C1670 1.523 . S
H1672 C1647 0.950 . S
H1673 C1649 0.950 . S
H1674 C1650 0.949 . S
H1675 C1652 0.950 . S
H1676 C1654 0.950 . S
C1677 C1678 1.349 . S
C1677 C1679 1.327 . S
C1677 H1702 0.950 . S
C1678 C1677 1.349 . S
C1678 C1694 1.349 . S
C1679 C1677 1.327 . S
C1679 C1698 1.429 . S
C1679 H1703 0.950 . S
C1680 C1697 1.574 . S
C1680 C1699 1.368 . S
C1680 H1704 0.949 . S
H1681 C1685 0.949 . S
C1682 C1683 1.349 . S
C1682 C1684 1.327 . S
C1682 H1705 0.950 . S
C1683 C1682 1.349 . S
C1683 C1695 1.349 . S
C1684 C1682 1.327 . S
C1684 C1700 1.429 . S
C1684 H1706 0.950 . S
C1685 H1681 0.949 . S
C1685 C1693 1.574 . S
C1685 C1701 1.368 . S
H1686 C1694 0.950 . S
H1687 C1692 0.950 . S
H1688 C1693 0.949 . S
H1689 C1695 0.950 . S
H1690 C1696 0.950 . S
H1691 C1697 0.949 . S
C1692 H1687 0.950 . S
C1692 C1694 1.327 . S
C1692 C1698 1.429 . S
C1693 C1685 1.574 . S
C1693 H1688 0.949 . S
C1693 C1699 1.368 . S
C1694 C1678 1.349 . S
C1694 H1686 0.950 . S
C1694 C1692 1.327 . S
C1695 C1683 1.349 . S
C1695 H1689 0.950 . S
C1695 C1696 1.327 . S
C1696 H1690 0.950 . S
C1696 C1695 1.327 . S
C1696 C1700 1.429 . S
C1697 C1680 1.574 . S
C1697 H1691 0.949 . S
C1697 C1701 1.368 . S
C1698 C1679 1.429 . S
C1698 C1692 1.429 . S
C1698 C1699 1.523 . S
C1699 C1680 1.368 . S
C1699 C1693 1.368 . S
C1699 C1698 1.523 . S
C1700 C1684 1.429 . S
C1700 C1696 1.429 . S
C1700 C1701 1.523 . S
C1701 C1685 1.368 . S
C1701 C1697 1.368 . S
C1701 C1700 1.523 . S
H1702 C1677 0.950 . S
H1703 C1679 0.950 . S
H1704 C1680 0.949 . S
H1705 C1682 0.950 . S
H1706 C1684 0.950 . S
C1707 C1708 1.349 . S
C1707 C1709 1.327 . S
C1707 H1732 0.950 . S
C1708 C1707 1.349 . S
C1708 C1724 1.349 . S
C1709 C1707 1.327 . S
C1709 C1728 1.429 . S
C1709 H1733 0.950 . S
C1710 C1727 1.574 . S
C1710 C1729 1.368 . S
C1710 H1734 0.949 . S
H1711 C1715 0.949 . S
C1712 C1713 1.349 . S
C1712 C1714 1.327 . S
C1712 H1735 0.950 . S
C1713 C1712 1.349 . S
C1713 C1725 1.349 . S
C1714 C1712 1.327 . S
C1714 C1730 1.429 . S
C1714 H1736 0.950 . S
C1715 H1711 0.949 . S
C1715 C1723 1.574 . S
C1715 C1731 1.368 . S
H1716 C1724 0.950 . S
H1717 C1722 0.950 . S
H1718 C1723 0.949 . S
H1719 C1725 0.950 . S
H1720 C1726 0.950 . S
H1721 C1727 0.949 . S
C1722 H1717 0.950 . S
C1722 C1724 1.327 . S
C1722 C1728 1.429 . S
C1723 C1715 1.574 . S
C1723 H1718 0.949 . S
C1723 C1729 1.368 . S
C1724 C1708 1.349 . S
C1724 H1716 0.950 . S
C1724 C1722 1.327 . S
C1725 C1713 1.349 . S
C1725 H1719 0.950 . S
C1725 C1726 1.327 . S
C1726 H1720 0.950 . S
C1726 C1725 1.327 . S
C1726 C1730 1.429 . S
C1727 C1710 1.574 . S
C1727 H1721 0.949 . S
C1727 C1731 1.368 . S
C1728 C1709 1.429 . S
C1728 C1722 1.429 . S
C1728 C1729 1.523 . S
C1729 C1710 1.368 . S
C1729 C1723 1.368 . S
C1729 C1728 1.523 . S
C1730 C1714 1.429 . S
C1730 C1726 1.429 . S
C1730 C1731 1.523 . S
C1731 C1715 1.368 . S
C1731 C1727 1.368 . S
C1731 C1730 1.523 . S
H1732 C1707 0.950 . S
H1733 C1709 0.950 . S
H1734 C1710 0.949 . S
H1735 C1712 0.950 . S
H1736 C1714 0.950 . S
C1737 C1738 1.349 . S
C1737 C1739 1.327 . S
C1737 H1762 0.950 . S
C1738 C1737 1.349 . S
C1738 C1754 1.349 . S
C1739 C1737 1.327 . S
C1739 C1758 1.429 . S
C1739 H1763 0.950 . S
C1740 C1757 1.574 . S
C1740 C1759 1.368 . S
C1740 H1764 0.949 . S
H1741 C1745 0.949 . S
C1742 C1743 1.349 . S
C1742 C1744 1.327 . S
C1742 H1765 0.950 . S
C1743 C1742 1.349 . S
C1743 C1755 1.349 . S
C1744 C1742 1.327 . S
C1744 C1760 1.429 . S
C1744 H1766 0.950 . S
C1745 H1741 0.949 . S
C1745 C1753 1.574 . S
C1745 C1761 1.368 . S
H1746 C1754 0.950 . S
H1747 C1752 0.950 . S
H1748 C1753 0.949 . S
H1749 C1755 0.950 . S
H1750 C1756 0.950 . S
H1751 C1757 0.949 . S
C1752 H1747 0.950 . S
C1752 C1754 1.327 . S
C1752 C1758 1.429 . S
C1753 C1745 1.574 . S
C1753 H1748 0.949 . S
C1753 C1759 1.368 . S
C1754 C1738 1.349 . S
C1754 H1746 0.950 . S
C1754 C1752 1.327 . S
C1755 C1743 1.349 . S
C1755 H1749 0.950 . S
C1755 C1756 1.327 . S
C1756 H1750 0.950 . S
C1756 C1755 1.327 . S
C1756 C1760 1.429 . S
C1757 C1740 1.574 . S
C1757 H1751 0.949 . S
C1757 C1761 1.368 . S
C1758 C1739 1.429 . S
C1758 C1752 1.429 . S
C1758 C1759 1.523 . S
C1759 C1740 1.368 . S
C1759 C1753 1.368 . S
C1759 C1758 1.523 . S
C1760 C1744 1.429 . S
C1760 C1756 1.429 . S
C1760 C1761 1.523 . S
C1761 C1745 1.368 . S
C1761 C1757 1.368 . S
C1761 C1760 1.523 . S
H1762 C1737 0.950 . S
H1763 C1739 0.950 . S
H1764 C1740 0.949 . S
H1765 C1742 0.950 . S
H1766 C1744 0.950 . S
C1767 C1768 1.349 . S
C1767 C1769 1.327 . S
C1767 H1792 0.950 . S
C1768 C1767 1.349 . S
C1768 C1784 1.349 . S
C1769 C1767 1.327 . S
C1769 C1788 1.429 . S
C1769 H1793 0.950 . S
C1770 C1787 1.574 . S
C1770 C1789 1.368 . S
C1770 H1794 0.949 . S
H1771 C1775 0.949 . S
C1772 C1773 1.349 . S
C1772 C1774 1.327 . S
C1772 H1795 0.950 . S
C1773 C1772 1.349 . S
C1773 C1785 1.349 . S
C1774 C1772 1.327 . S
C1774 C1790 1.429 . S
C1774 H1796 0.950 . S
C1775 H1771 0.949 . S
C1775 C1783 1.574 . S
C1775 C1791 1.368 . S
H1776 C1784 0.950 . S
H1777 C1782 0.950 . S
H1778 C1783 0.949 . S
H1779 C1785 0.950 . S
H1780 C1786 0.950 . S
H1781 C1787 0.949 . S
C1782 H1777 0.950 . S
C1782 C1784 1.327 . S
C1782 C1788 1.429 . S
C1783 C1775 1.574 . S
C1783 H1778 0.949 . S
C1783 C1789 1.368 . S
C1784 C1768 1.349 . S
C1784 H1776 0.950 . S
C1784 C1782 1.327 . S
C1785 C1773 1.349 . S
C1785 H1779 0.950 . S
C1785 C1786 1.327 . S
C1786 H1780 0.950 . S
C1786 C1785 1.327 . S
C1786 C1790 1.429 . S
C1787 C1770 1.574 . S
C1787 H1781 0.949 . S
C1787 C1791 1.368 . S
C1788 C1769 1.429 . S
C1788 C1782 1.429 . S
C1788 C1789 1.523 . S
C1789 C1770 1.368 . S
C1789 C1783 1.368 . S
C1789 C1788 1.523 . S
C1790 C1774 1.429 . S
C1790 C1786 1.429 . S
C1790 C1791 1.523 . S
C1791 C1775 1.368 . S
C1791 C1787 1.368 . S
C1791 C1790 1.523 . S
H1792 C1767 0.950 . S
H1793 C1769 0.950 . S
H1794 C1770 0.949 . S
H1795 C1772 0.950 . S
H1796 C1774 0.950 . S
C1797 C1798 1.349 . S
C1797 C1799 1.327 . S
C1797 H1822 0.950 . S
C1798 C1797 1.349 . S
C1798 C1814 1.349 . S
C1799 C1797 1.327 . S
C1799 C1818 1.429 . S
C1799 H1823 0.950 . S
C1800 C1817 1.574 . S
C1800 C1819 1.368 . S
C1800 H1824 0.949 . S
H1801 C1805 0.949 . S
C1802 C1803 1.349 . S
C1802 C1804 1.327 . S
C1802 H1825 0.950 . S
C1803 C1802 1.349 . S
C1803 C1815 1.349 . S
C1804 C1802 1.327 . S
C1804 C1820 1.429 . S
C1804 H1826 0.950 . S
C1805 H1801 0.949 . S
C1805 C1813 1.574 . S
C1805 C1821 1.368 . S
H1806 C1814 0.950 . S
H1807 C1812 0.950 . S
H1808 C1813 0.949 . S
H1809 C1815 0.950 . S
H1810 C1816 0.950 . S
H1811 C1817 0.949 . S
C1812 H1807 0.950 . S
C1812 C1814 1.327 . S
C1812 C1818 1.429 . S
C1813 C1805 1.574 . S
C1813 H1808 0.949 . S
C1813 C1819 1.368 . S
C1814 C1798 1.349 . S
C1814 H1806 0.950 . S
C1814 C1812 1.327 . S
C1815 C1803 1.349 . S
C1815 H1809 0.950 . S
C1815 C1816 1.327 . S
C1816 H1810 0.950 . S
C1816 C1815 1.327 . S
C1816 C1820 1.429 . S
C1817 C1800 1.574 . S
C1817 H1811 0.949 . S
C1817 C1821 1.368 . S
C1818 C1799 1.429 . S
C1818 C1812 1.429 . S
C1818 C1819 1.523 . S
C1819 C1800 1.368 . S
C1819 C1813 1.368 . S
C1819 C1818 1.523 . S
C1820 C1804 1.429 . S
C1820 C1816 1.429 . S
C1820 C1821 1.523 . S
C1821 C1805 1.368 . S
C1821 C1817 1.368 . S
C1821 C1820 1.523 . S
H1822 C1797 0.950 . S
H1823 C1799 0.950 . S
H1824 C1800 0.949 . S
H1825 C1802 0.950 . S
H1826 C1804 0.950 . S
C1827 C1828 1.349 . S
C1827 C1829 1.327 . S
C1827 H1852 0.950 . S
C1828 C1827 1.349 . S
C1828 C1844 1.349 . S
C1829 C1827 1.327 . S
C1829 C1848 1.429 . S
C1829 H1853 0.950 . S
C1830 C1847 1.574 . S
C1830 C1849 1.368 . S
C1830 H1854 0.949 . S
H1831 C1835 0.949 . S
C1832 C1833 1.349 . S
C1832 C1834 1.327 . S
C1832 H1855 0.950 . S
C1833 C1832 1.349 . S
C1833 C1845 1.349 . S
C1834 C1832 1.327 . S
C1834 C1850 1.429 . S
C1834 H1856 0.950 . S
C1835 H1831 0.949 . S
C1835 C1843 1.574 . S
C1835 C1851 1.368 . S
H1836 C1844 0.950 . S
H1837 C1842 0.950 . S
H1838 C1843 0.949 . S
H1839 C1845 0.950 . S
H1840 C1846 0.950 . S
H1841 C1847 0.949 . S
C1842 H1837 0.950 . S
C1842 C1844 1.327 . S
C1842 C1848 1.429 . S
C1843 C1835 1.574 . S
C1843 H1838 0.949 . S
C1843 C1849 1.368 . S
C1844 C1828 1.349 . S
C1844 H1836 0.950 . S
C1844 C1842 1.327 . S
C1845 C1833 1.349 . S
C1845 H1839 0.950 . S
C1845 C1846 1.327 . S
C1846 H1840 0.950 . S
C1846 C1845 1.327 . S
C1846 C1850 1.429 . S
C1847 C1830 1.574 . S
C1847 H1841 0.949 . S
C1847 C1851 1.368 . S
C1848 C1829 1.429 . S
C1848 C1842 1.429 . S
C1848 C1849 1.523 . S
C1849 C1830 1.368 . S
C1849 C1843 1.368 . S
C1849 C1848 1.523 . S
C1850 C1834 1.429 . S
C1850 C1846 1.429 . S
C1850 C1851 1.523 . S
C1851 C1835 1.368 . S
C1851 C1847 1.368 . S
C1851 C1850 1.523 . S
H1852 C1827 0.950 . S
H1853 C1829 0.950 . S
H1854 C1830 0.949 . S
H1855 C1832 0.950 . S
H1856 C1834 0.950 . S
C1857 C1858 1.349 . S
C1857 C1859 1.327 . S
C1857 H1882 0.950 . S
C1858 C1857 1.349 . S
C1858 C1874 1.349 . S
C1859 C1857 1.327 . S
C1859 C1878 1.429 . S
C1859 H1883 0.950 . S
C1860 C1877 1.574 . S
C1860 C1879 1.368 . S
C1860 H1884 0.949 . S
H1861 C1865 0.949 . S
C1862 C1863 1.349 . S
C1862 C1864 1.327 . S
C1862 H1885 0.950 . S
C1863 C1862 1.349 . S
C1863 C1875 1.349 . S
C1864 C1862 1.327 . S
C1864 C1880 1.429 . S
C1864 H1886 0.950 . S
C1865 H1861 0.949 . S
C1865 C1873 1.574 . S
C1865 C1881 1.368 . S
H1866 C1874 0.950 . S
H1867 C1872 0.950 . S
H1868 C1873 0.949 . S
H1869 C1875 0.950 . S
H1870 C1876 0.950 . S
H1871 C1877 0.949 . S
C1872 H1867 0.950 . S
C1872 C1874 1.327 . S
C1872 C1878 1.429 . S
C1873 C1865 1.574 . S
C1873 H1868 0.949 . S
C1873 C1879 1.368 . S
C1874 C1858 1.349 . S
C1874 H1866 0.950 . S
C1874 C1872 1.327 . S
C1875 C1863 1.349 . S
C1875 H1869 0.950 . S
C1875 C1876 1.327 . S
C1876 H1870 0.950 . S
C1876 C1875 1.327 . S
C1876 C1880 1.429 . S
C1877 C1860 1.574 . S
C1877 H1871 0.949 . S
C1877 C1881 1.368 . S
C1878 C1859 1.429 . S
C1878 C1872 1.429 . S
C1878 C1879 1.523 . S
C1879 C1860 1.368 . S
C1879 C1873 1.368 . S
C1879 C1878 1.523 . S
C1880 C1864 1.429 . S
C1880 C1876 1.429 . S
C1880 C1881 1.523 . S
C1881 C1865 1.368 . S
C1881 C1877 1.368 . S
C1881 C1880 1.523 . S
H1882 C1857 0.950 . S
H1883 C1859 0.950 . S
H1884 C1860 0.949 . S
H1885 C1862 0.950 . S
H1886 C1864 0.950 . S
C1887 C1888 1.349 . S
C1887 C1889 1.327 . S
C1887 H1912 0.950 . S
C1888 C1887 1.349 . S
C1888 C1904 1.349 . S
C1889 C1887 1.327 . S
C1889 C1908 1.429 . S
C1889 H1913 0.950 . S
C1890 C1907 1.574 . S
C1890 C1909 1.368 . S
C1890 H1914 0.949 . S
H1891 C1895 0.949 . S
C1892 C1893 1.349 . S
C1892 C1894 1.327 . S
C1892 H1915 0.950 . S
C1893 C1892 1.349 . S
C1893 C1905 1.349 . S
C1894 C1892 1.327 . S
C1894 C1910 1.429 . S
C1894 H1916 0.950 . S
C1895 H1891 0.949 . S
C1895 C1903 1.574 . S
C1895 C1911 1.368 . S
H1896 C1904 0.950 . S
H1897 C1902 0.950 . S
H1898 C1903 0.949 . S
H1899 C1905 0.950 . S
H1900 C1906 0.950 . S
H1901 C1907 0.949 . S
C1902 H1897 0.950 . S
C1902 C1904 1.327 . S
C1902 C1908 1.429 . S
C1903 C1895 1.574 . S
C1903 H1898 0.949 . S
C1903 C1909 1.368 . S
C1904 C1888 1.349 . S
C1904 H1896 0.950 . S
C1904 C1902 1.327 . S
C1905 C1893 1.349 . S
C1905 H1899 0.950 . S
C1905 C1906 1.327 . S
C1906 H1900 0.950 . S
C1906 C1905 1.327 . S
C1906 C1910 1.429 . S
C1907 C1890 1.574 . S
C1907 H1901 0.949 . S
C1907 C1911 1.368 . S
C1908 C1889 1.429 . S
C1908 C1902 1.429 . S
C1908 C1909 1.523 . S
C1909 C1890 1.368 . S
C1909 C1903 1.368 . S
C1909 C1908 1.523 . S
C1910 C1894 1.429 . S
C1910 C1906 1.429 . S
C1910 C1911 1.523 . S
C1911 C1895 1.368 . S
C1911 C1907 1.368 . S
C1911 C1910 1.523 . S
H1912 C1887 0.950 . S
H1913 C1889 0.950 . S
H1914 C1890 0.949 . S
H1915 C1892 0.950 . S
H1916 C1894 0.950 . S
C1917 C1918 1.349 . S
C1917 C1919 1.327 . S
C1917 H1942 0.950 . S
C1918 C1917 1.349 . S
C1918 C1934 1.349 . S
C1919 C1917 1.327 . S
C1919 C1938 1.429 . S
C1919 H1943 0.950 . S
C1920 C1937 1.574 . S
C1920 C1939 1.368 . S
C1920 H1944 0.949 . S
H1921 C1925 0.949 . S
C1922 C1923 1.349 . S
C1922 C1924 1.327 . S
C1922 H1945 0.950 . S
C1923 C1922 1.349 . S
C1923 C1935 1.349 . S
C1924 C1922 1.327 . S
C1924 C1940 1.429 . S
C1924 H1946 0.950 . S
C1925 H1921 0.949 . S
C1925 C1933 1.574 . S
C1925 C1941 1.368 . S
H1926 C1934 0.950 . S
H1927 C1932 0.950 . S
H1928 C1933 0.949 . S
H1929 C1935 0.950 . S
H1930 C1936 0.950 . S
H1931 C1937 0.949 . S
C1932 H1927 0.950 . S
C1932 C1934 1.327 . S
C1932 C1938 1.429 . S
C1933 C1925 1.574 . S
C1933 H1928 0.949 . S
C1933 C1939 1.368 . S
C1934 C1918 1.349 . S
C1934 H1926 0.950 . S
C1934 C1932 1.327 . S
C1935 C1923 1.349 . S
C1935 H1929 0.950 . S
C1935 C1936 1.327 . S
C1936 H1930 0.950 . S
C1936 C1935 1.327 . S
C1936 C1940 1.429 . S
C1937 C1920 1.574 . S
C1937 H1931 0.949 . S
C1937 C1941 1.368 . S
C1938 C1919 1.429 . S
C1938 C1932 1.429 . S
C1938 C1939 1.523 . S
C1939 C1920 1.368 . S
C1939 C1933 1.368 . S
C1939 C1938 1.523 . S
C1940 C1924 1.429 . S
C1940 C1936 1.429 . S
C1940 C1941 1.523 . S
C1941 C1925 1.368 . S
C1941 C1937 1.368 . S
C1941 C1940 1.523 . S
H1942 C1917 0.950 . S
H1943 C1919 0.950 . S
H1944 C1920 0.949 . S
H1945 C1922 0.950 . S
H1946 C1924 0.950 . S
C1947 C1948 1.349 . S
C1947 C1949 1.327 . S
C1947 H1972 0.950 . S
C1948 C1947 1.349 . S
C1948 C1964 1.349 . S
C1949 C1947 1.327 . S
C1949 C1968 1.429 . S
C1949 H1973 0.950 . S
C1950 C1967 1.574 . S
C1950 C1969 1.368 . S
C1950 H1974 0.949 . S
H1951 C1955 0.949 . S
C1952 C1953 1.349 . S
C1952 C1954 1.327 . S
C1952 H1975 0.950 . S
C1953 C1952 1.349 . S
C1953 C1965 1.349 . S
C1954 C1952 1.327 . S
C1954 C1970 1.429 . S
C1954 H1976 0.950 . S
C1955 H1951 0.949 . S
C1955 C1963 1.574 . S
C1955 C1971 1.368 . S
H1956 C1964 0.950 . S
H1957 C1962 0.950 . S
H1958 C1963 0.949 . S
H1959 C1965 0.950 . S
H1960 C1966 0.950 . S
H1961 C1967 0.949 . S
C1962 H1957 0.950 . S
C1962 C1964 1.327 . S
C1962 C1968 1.429 . S
C1963 C1955 1.574 . S
C1963 H1958 0.949 . S
C1963 C1969 1.368 . S
C1964 C1948 1.349 . S
C1964 H1956 0.950 . S
C1964 C1962 1.327 . S
C1965 C1953 1.349 . S
C1965 H1959 0.950 . S
C1965 C1966 1.327 . S
C1966 H1960 0.950 . S
C1966 C1965 1.327 . S
C1966 C1970 1.429 . S
C1967 C1950 1.574 . S
C1967 H1961 0.949 . S
C1967 C1971 1.368 . S
C1968 C1949 1.429 . S
C1968 C1962 1.429 . S
C1968 C1969 1.523 . S
C1969 C1950 1.368 . S
C1969 C1963 1.368 . S
C1969 C1968 1.523 . S
C1970 C1954 1.429 . S
C1970 C1966 1.429 . S
C1970 C1971 1.523 . S
C1971 C1955 1.368 . S
C1971 C1967 1.368 . S
C1971 C1970 1.523 . S
H1972 C1947 0.950 . S
H1973 C1949 0.950 . S
H1974 C1950 0.949 . S
H1975 C1952 0.950 . S
H1976 C1954 0.950 . S
C1977 C1978 1.349 . S
C1977 C1979 1.327 . S
C1977 H2002 0.950 . S
C1978 C1977 1.349 . S
C1978 C1994 1.349 . S
C1979 C1977 1.327 . S
C1979 C1998 1.429 . S
C1979 H2003 0.950 . S
C1980 C1997 1.574 . S
C1980 C1999 1.368 . S
C1980 H2004 0.949 . S
H1981 C1985 0.949 . S
C1982 C1983 1.349 . S
C1982 C1984 1.327 . S
C1982 H2005 0.950 . S
C1983 C1982 1.349 . S
C1983 C1995 1.349 . S
C1984 C1982 1.327 . S
C1984 C2000 1.429 . S
C1984 H2006 0.950 . S
C1985 H1981 0.949 . S
C1985 C1993 1.574 . S
C1985 C2001 1.368 . S
H1986 C1994 0.950 . S
H1987 C1992 0.950 . S
H1988 C1993 0.949 . S
H1989 C1995 0.950 . S
H1990 C1996 0.950 . S
H1991 C1997 0.949 . S
C1992 H1987 0.950 . S
C1992 C1994 1.327 . S
C1992 C1998 1.429 . S
C1993 C1985 1.574 . S
C1993 H1988 0.949 . S
C1993 C1999 1.368 . S
C1994 C1978 1.349 . S
C1994 H1986 0.950 . S
C1994 C1992 1.327 . S
C1995 C1983 1.349 . S
C1995 H1989 0.950 . S
C1995 C1996 1.327 . S
C1996 H1990 0.950 . S
C1996 C1995 1.327 . S
C1996 C2000 1.429 . S
C1997 C1980 1.574 . S
C1997 H1991 0.949 . S
C1997 C2001 1.368 . S
C1998 C1979 1.429 . S
C1998 C1992 1.429 . S
C1998 C1999 1.523 . S
C1999 C1980 1.368 . S
C1999 C1993 1.368 . S
C1999 C1998 1.523 . S
C2000 C1984 1.429 . S
C2000 C1996 1.429 . S
C2000 C2001 1.523 . S
C2001 C1985 1.368 . S
C2001 C1997 1.368 . S
C2001 C2000 1.523 . S
H2002 C1977 0.950 . S
H2003 C1979 0.950 . S
H2004 C1980 0.949 . S
H2005 C1982 0.950 . S
H2006 C1984 0.950 . S
C388 C147 1.404 . S
C393 C212 1.382 . S
C418 C158 1.387 . S
C423 C233 1.360 . S
C448 C136 1.336 . S
C453 C253 1.198 . S
C478 C125 1.334 . S
C483 C232 1.190 . S
C513 C254 1.376 . S
C508 C103 1.404 . S
C538 C114 1.354 . S
C543 C211 1.208 . S
C573 C213 1.367 . S
C568 C131 1.408 1_554 S
C603 C234 1.366 . S
C598 C109 1.397 . S
C628 C120 1.461 . S
C633 C256 1.258 . S
C658 C153 1.431 . S
C663 C235 1.224 1_554 S
C688 C164 1.379 . S
C693 C255 1.343 . S
C723 C214 1.250 1_554 S
C718 C142 1.445 . S
C753 C275 1.382 . S
C748 C15 1.404 . S
C778 C26 1.387 . S
C783 C296 1.360 . S
C808 C4 1.336 . S
C813 C316 1.198 . S
C838 C191 1.334 . S
C843 C295 1.190 . S
C868 C169 1.404 . S
C873 C317 1.376 . S
C898 C180 1.355 . S
C903 C274 1.208 . S
C928 C197 1.408 . S
C933 C276 1.367 . S
C958 C175 1.397 . S
C963 C297 1.367 . S
C993 C319 1.258 . S
C988 C186 1.461 . S
C1018 C21 1.431 . S
C1023 C298 1.240 . S
C1053 C318 1.343 . S
C1048 C32 1.379 . S
C1078 C10 1.445 . S
C1083 C277 1.250 . S
C1113 C338 1.382 . S
C1108 C81 1.405 . S
C1138 C92 1.387 . S
C1143 C359 1.360 . S
C1173 C379 1.198 . S
C1168 C70 1.336 . S
C1203 C358 1.190 . S
C1198 C59 1.334 . S
C1233 C380 1.376 . S
C1228 C37 1.404 . S
C1258 C48 1.355 . S
C1263 C337 1.208 . S
C1288 C65 1.408 . S
C1293 C339 1.367 . S
C1318 C43 1.397 . S
C1323 C360 1.367 . S
C1353 C382 1.257 . S
C1348 C54 1.461 . S
C1378 C87 1.431 . S
C1383 C361 1.240 . S
C1408 C98 1.379 . S
C1413 C381 1.343 . S
C1438 C76 1.445 . S
C1443 C340 1.250 . S
C1468 C170 1.485 . S
C1473 C216 1.471 . S
C1503 C237 1.509 . S
C1498 C181 1.523 . S
C1528 C192 1.556 . S
C1533 C257 1.503 . S
C1558 C71 1.629 . S
C1563 C236 1.575 . S
C1588 C82 1.559 . S
C1593 C258 1.543 . S
C1623 C215 1.538 . S
C1618 C93 1.590 . S
C1648 C38 1.485 . S
C1653 C279 1.471 . S
C1678 C49 1.523 . S
C1683 C300 1.509 . S
C1708 C60 1.556 . S
C1713 C320 1.503 . S
C1738 C137 1.629 . S
C1743 C299 1.575 . S
C1773 C321 1.543 . S
C1768 C148 1.559 . S
C1798 C159 1.590 . S
C1803 C278 1.538 . S
C1828 C104 1.485 . S
C1833 C342 1.471 . S
C1858 C115 1.523 . S
C1863 C363 1.509 . S
C1893 C383 1.503 . S
C1888 C126 1.556 . S
C1918 C5 1.630 . S
C1923 C362 1.575 . S
C1948 C16 1.559 . S
C1953 C384 1.543 . S
C1978 C27 1.590 . S
C1983 C341 1.538 . S
