# Generated by pormake.
# Topology pyr, (3,6)-cn, num edge types: 1
# Building blocks:
#     Node 0, Type 0, BuildingBlock: BELTOD_clean_linker_0, # of connection points: 3
#     Node 1, Type 0, BuildingBlock: BELTOD_clean_linker_0, # of connection points: 3
#     Node 2, Type 0, BuildingBlock: BELTOD_clean_linker_0, # of connection points: 3
#     Node 3, Type 0, BuildingBlock: BELTOD_clean_linker_0, # of connection points: 3
#     Node 4, Type 0, BuildingBlock: BELTOD_clean_linker_0, # of connection points: 3
#     Node 5, Type 0, BuildingBlock: BELTOD_clean_linker_0, # of connection points: 3
#     Node 6, Type 0, BuildingBlock: BELTOD_clean_linker_0, # of connection points: 3
#     Node 7, Type 0, BuildingBlock: BELTOD_clean_linker_0, # of connection points: 3
#     Node 8, Type 1, BuildingBlock: MIDCAF_clean_sbu_0, # of connection points: 6
#     Node 9, Type 1, BuildingBlock: MIDCAF_clean_sbu_0, # of connection points: 6
#     Node 10, Type 1, BuildingBlock: MIDCAF_clean_sbu_0, # of connection points: 6
#     Node 11, Type 1, BuildingBlock: MIDCAF_clean_sbu_0, # of connection points: 6
#     Edge 12, Type (0, 1), BuildingBlock: MIFKUJ_clean_linker_0, # of connection points: 2
#     Edge 13, Type (0, 1), BuildingBlock: MIFKUJ_clean_linker_0, # of connection points: 2
#     Edge 14, Type (0, 1), BuildingBlock: MIFKUJ_clean_linker_0, # of connection points: 2
#     Edge 15, Type (0, 1), BuildingBlock: MIFKUJ_clean_linker_0, # of connection points: 2
#     Edge 16, Type (0, 1), BuildingBlock: MIFKUJ_clean_linker_0, # of connection points: 2
#     Edge 17, Type (0, 1), BuildingBlock: MIFKUJ_clean_linker_0, # of connection points: 2
#     Edge 18, Type (0, 1), BuildingBlock: MIFKUJ_clean_linker_0, # of connection points: 2
#     Edge 19, Type (0, 1), BuildingBlock: MIFKUJ_clean_linker_0, # of connection points: 2
#     Edge 20, Type (0, 1), BuildingBlock: MIFKUJ_clean_linker_0, # of connection points: 2
#     Edge 21, Type (0, 1), BuildingBlock: MIFKUJ_clean_linker_0, # of connection points: 2
#     Edge 22, Type (0, 1), BuildingBlock: MIFKUJ_clean_linker_0, # of connection points: 2
#     Edge 23, Type (0, 1), BuildingBlock: MIFKUJ_clean_linker_0, # of connection points: 2
#     Edge 24, Type (0, 1), BuildingBlock: MIFKUJ_clean_linker_0, # of connection points: 2
#     Edge 25, Type (0, 1), BuildingBlock: MIFKUJ_clean_linker_0, # of connection points: 2
#     Edge 26, Type (0, 1), BuildingBlock: MIFKUJ_clean_linker_0, # of connection points: 2
#     Edge 27, Type (0, 1), BuildingBlock: MIFKUJ_clean_linker_0, # of connection points: 2
#     Edge 28, Type (0, 1), BuildingBlock: MIFKUJ_clean_linker_0, # of connection points: 2
#     Edge 29, Type (0, 1), BuildingBlock: MIFKUJ_clean_linker_0, # of connection points: 2
#     Edge 30, Type (0, 1), BuildingBlock: MIFKUJ_clean_linker_0, # of connection points: 2
#     Edge 31, Type (0, 1), BuildingBlock: MIFKUJ_clean_linker_0, # of connection points: 2
#     Edge 32, Type (0, 1), BuildingBlock: MIFKUJ_clean_linker_0, # of connection points: 2
#     Edge 33, Type (0, 1), BuildingBlock: MIFKUJ_clean_linker_0, # of connection points: 2
#     Edge 34, Type (0, 1), BuildingBlock: MIFKUJ_clean_linker_0, # of connection points: 2
#     Edge 35, Type (0, 1), BuildingBlock: MIFKUJ_clean_linker_0, # of connection points: 2
# Relax obj value: 0.020
# Max RMSD: 0.062
# Mean RMSD: 0.033
data_MOF--net-pry--node1-MIDCAF_clean_sbu_0--node2-BELTOD_clean_linker_0--edge1-MIFKUJ_clean_linker_0
_symmetry_space_group_name_H-M    P1
_symmetry_Int_Tables_number       1
_symmetry_cell_setting            triclinic
loop_
_symmetry_equiv_pos_as_xyz
'x, y, z'
_cell_length_a     51.205425
_cell_length_b     51.616523
_cell_length_c     50.819839
_cell_angle_alpha  89.814034
_cell_angle_beta   90.152333
_cell_angle_gamma 90.261048
loop_
_atom_site_label
_atom_site_type_symbol
_atom_site_fract_x
_atom_site_fract_y
_atom_site_fract_z
_atom_type_partial_charge
P0 P 0.24789 0.26253 0.25767 0.0
H1 H 0.30225 0.2674 0.24129 0.0
H2 H 0.3324 0.23818 0.21942 0.0
H3 H 0.27243 0.17902 0.21735 0.0
H4 H 0.2421 0.20875 0.23866 0.0
H5 H 0.19358 0.28142 0.25654 0.0
H6 H 0.17005 0.30929 0.22567 0.0
H7 H 0.23793 0.31227 0.17556 0.0
H8 H 0.26124 0.28383 0.20617 0.0
H9 H 0.2511 0.26055 0.31502 0.0
H10 H 0.20109 0.22901 0.25461 0.0
O11 O 0.26585 0.28495 0.27302 0.0
H12 H 0.22425 0.2402 0.34875 0.0
H13 H 0.17445 0.20768 0.28838 0.0
C14 C 0.27002 0.24014 0.24212 0.0
C15 C 0.29561 0.24807 0.23635 0.0
C16 C 0.31292 0.23125 0.2239 0.0
C17 C 0.30502 0.20606 0.21683 0.0
C18 C 0.27919 0.19829 0.22237 0.0
C19 C 0.26184 0.21523 0.23478 0.0
C20 C 0.22895 0.27975 0.23329 0.0
C21 C 0.20319 0.28731 0.23855 0.0
C22 C 0.18977 0.30342 0.22095 0.0
C23 C 0.20215 0.31289 0.19819 0.0
C24 C 0.22793 0.30528 0.19297 0.0
C25 C 0.24117 0.28884 0.21035 0.0
C26 C 0.228 0.24653 0.28225 0.0
C27 C 0.23436 0.24916 0.30896 0.0
C28 C 0.21903 0.23731 0.32831 0.0
C29 C 0.1971 0.22227 0.32139 0.0
C30 C 0.19093 0.21944 0.2945 0.0
C31 C 0.20629 0.23142 0.27513 0.0
P32 P 0.34044 0.84514 0.7179 0.0
H33 H 0.38939 0.82719 0.73993 0.0
H34 H 0.40777 0.82788 0.7843 0.0
H35 H 0.33573 0.86014 0.81358 0.0
H36 H 0.31716 0.85835 0.76934 0.0
H37 H 0.34217 0.83321 0.6622 0.0
H38 H 0.35035 0.79337 0.63786 0.0
H39 H 0.35513 0.75102 0.71127 0.0
H40 H 0.34575 0.79077 0.73532 0.0
H41 H 0.31817 0.89601 0.72656 0.0
H42 H 0.29032 0.82051 0.70329 0.0
O43 O 0.35974 0.86677 0.70301 0.0
H44 H 0.27502 0.91419 0.71788 0.0
H45 H 0.24734 0.83867 0.6937 0.0
C46 C 0.35192 0.84262 0.75133 0.0
C47 C 0.37738 0.83392 0.75602 0.0
C48 C 0.38794 0.83453 0.78137 0.0
C49 C 0.37332 0.84426 0.80252 0.0
C50 C 0.34744 0.85221 0.79785 0.0
C51 C 0.33683 0.85139 0.77245 0.0
C52 C 0.3441 0.81505 0.70053 0.0
C53 C 0.3448 0.81528 0.673 0.0
C54 C 0.34962 0.7925 0.65914 0.0
C55 C 0.35391 0.76903 0.6726 0.0
C56 C 0.35187 0.76869 0.70023 0.0
C57 C 0.3468 0.7915 0.71406 0.0
C58 C 0.30754 0.85705 0.71518 0.0
C59 C 0.30268 0.88332 0.71976 0.0
C60 C 0.27804 0.8937 0.71463 0.0
C61 C 0.25781 0.87798 0.70467 0.0
C62 C 0.26242 0.85131 0.70145 0.0
C63 C 0.28709 0.84092 0.70675 0.0
P64 P 0.74097 0.28722 0.78705 0.0
H65 H 0.79803 0.29034 0.78562 0.0
H66 H 0.82968 0.31844 0.80698 0.0
H67 H 0.76697 0.35666 0.84837 0.0
H68 H 0.73533 0.32991 0.82486 0.0
H69 H 0.72565 0.23321 0.78004 0.0
H70 H 0.70433 0.20149 0.80865 0.0
H71 H 0.70174 0.25808 0.871 0.0
H72 H 0.72318 0.28962 0.84242 0.0
H73 H 0.73888 0.34115 0.76842 0.0
H74 H 0.68912 0.2735 0.76706 0.0
O75 O 0.75686 0.27104 0.7637 0.0
H76 H 0.70739 0.3645 0.74124 0.0
H77 H 0.65761 0.29677 0.73963 0.0
C78 C 0.76427 0.3078 0.80382 0.0
C79 C 0.79105 0.30486 0.79918 0.0
C80 C 0.80925 0.32087 0.81174 0.0
C81 C 0.80115 0.33988 0.82976 0.0
C82 C 0.77416 0.34262 0.83441 0.0
C83 C 0.75594 0.32697 0.82132 0.0
C84 C 0.72647 0.26375 0.80912 0.0
C85 C 0.72079 0.23875 0.79996 0.0
C86 C 0.70842 0.22065 0.81629 0.0
C87 C 0.70142 0.22723 0.84214 0.0
C88 C 0.70726 0.25227 0.85133 0.0
C89 C 0.71949 0.27042 0.83489 0.0
C90 C 0.71606 0.30576 0.77048 0.0
C91 C 0.72089 0.33149 0.76291 0.0
C92 C 0.70287 0.34484 0.74726 0.0
C93 C 0.67995 0.33251 0.73839 0.0
C94 C 0.67511 0.30677 0.74613 0.0
C95 C 0.69302 0.29353 0.76201 0.0
P96 P 0.78944 0.75711 0.28534 0.0
H97 H 0.82029 0.8043 0.28274 0.0
H98 H 0.84726 0.82733 0.31483 0.0
H99 H 0.83005 0.76838 0.37291 0.0
H100 H 0.80286 0.74554 0.34067 0.0
H101 H 0.77867 0.7375 0.23284 0.0
H102 H 0.80568 0.71602 0.19992 0.0
H103 H 0.87166 0.71946 0.25308 0.0
H104 H 0.84431 0.74016 0.2861 0.0
H105 H 0.74174 0.76597 0.31457 0.0
H106 H 0.78756 0.70022 0.29089 0.0
O107 O 0.77219 0.77949 0.26923 0.0
H108 H 0.7104 0.73704 0.33596 0.0
H109 H 0.75592 0.67101 0.31162 0.0
C110 C 0.80922 0.77353 0.30947 0.0
C111 C 0.82226 0.7964 0.30242 0.0
C112 C 0.83785 0.80941 0.32072 0.0
C113 C 0.84079 0.79969 0.34646 0.0
C114 C 0.8279 0.77652 0.35336 0.0
C115 C 0.81238 0.76344 0.33493 0.0
C116 C 0.80958 0.74078 0.26169 0.0
C117 C 0.79896 0.73361 0.23735 0.0
C118 C 0.81449 0.72148 0.2185 0.0
C119 C 0.84095 0.71623 0.22372 0.0
C120 C 0.85134 0.72304 0.24844 0.0
C121 C 0.83575 0.73509 0.2673 0.0
C122 C 0.76667 0.73522 0.30078 0.0
C123 C 0.74489 0.74525 0.31376 0.0
C124 C 0.72691 0.72866 0.32585 0.0
C125 C 0.73046 0.70165 0.32524 0.0
C126 C 0.75265 0.6917 0.31255 0.0
C127 C 0.77067 0.70837 0.3005 0.0
P128 P 0.92578 0.9377 0.93923 0.0
H129 H 0.89665 0.95885 0.98315 0.0
H130 H 0.85233 0.97554 0.98745 0.0
H131 H 0.83741 0.95775 0.90573 0.0
H132 H 0.88187 0.94072 0.9017 0.0
H133 H 0.96586 0.9104 0.96918 0.0
H134 H 0.97096 0.8652 0.98246 0.0
H135 H 0.89717 0.84643 0.9456 0.0
H136 H 0.89221 0.89189 0.9323 0.0
H137 H 0.94089 0.98346 0.90946 0.0
H138 H 0.93688 0.90107 0.89611 0.0
O139 O 0.94435 0.95604 0.95885 0.0
H140 H 0.95853 0.98985 0.86522 0.0
H141 H 0.95489 0.90723 0.85208 0.0
C142 C 0.89268 0.94904 0.942 0.0
C143 C 0.88388 0.95862 0.96613 0.0
C144 C 0.85857 0.96829 0.96851 0.0
C145 C 0.84144 0.96837 0.94682 0.0
C146 C 0.85011 0.958 0.9228 0.0
C147 C 0.87555 0.94838 0.92043 0.0
C148 C 0.92845 0.90457 0.95015 0.0
C149 C 0.95059 0.89666 0.96425 0.0
C150 C 0.95346 0.8708 0.9719 0.0
C151 C 0.93437 0.85226 0.96526 0.0
C152 C 0.91223 0.86025 0.95096 0.0
C153 C 0.90929 0.88622 0.94349 0.0
C154 C 0.93787 0.94181 0.90621 0.0
C155 C 0.9439 0.96674 0.89703 0.0
C156 C 0.95413 0.97033 0.8718 0.0
C157 C 0.95838 0.94902 0.85519 0.0
C158 C 0.95175 0.92407 0.8643 0.0
C159 C 0.94155 0.92051 0.88959 0.0
P160 P 0.64448 0.16608 0.38898 0.0
H161 H 0.66344 0.21449 0.41112 0.0
H162 H 0.64629 0.24336 0.44462 0.0
H163 H 0.5838 0.18885 0.4603 0.0
H164 H 0.60084 0.16031 0.42599 0.0
H165 H 0.67947 0.13253 0.3602 0.0
H166 H 0.71555 0.10464 0.37396 0.0
H167 H 0.69823 0.12127 0.45536 0.0
H168 H 0.66197 0.14868 0.44147 0.0
H169 H 0.60507 0.18728 0.35432 0.0
H170 H 0.62408 0.11248 0.38691 0.0
O171 O 0.65934 0.1856 0.36742 0.0
H172 H 0.57095 0.16761 0.32741 0.0
H173 H 0.58945 0.09254 0.36039 0.0
C174 C 0.63296 0.1857 0.41563 0.0
C175 C 0.64611 0.2087 0.42185 0.0
C176 C 0.63645 0.22504 0.4413 0.0
C177 C 0.61357 0.21849 0.45514 0.0
C178 C 0.60122 0.19465 0.44974 0.0
C179 C 0.61091 0.17834 0.43016 0.0
C180 C 0.6683 0.14287 0.39977 0.0
C181 C 0.68326 0.12986 0.38101 0.0
C182 C 0.70393 0.11406 0.3889 0.0
C183 C 0.70993 0.11098 0.41574 0.0
C184 C 0.69402 0.1231 0.43454 0.0
C185 C 0.67335 0.13894 0.4266 0.0
C186 C 0.61744 0.15126 0.37206 0.0
C187 C 0.60161 0.16662 0.35591 0.0
C188 C 0.5819 0.15534 0.34074 0.0
C189 C 0.5775 0.12842 0.3416 0.0
C190 C 0.59259 0.11326 0.35895 0.0
C191 C 0.61238 0.12462 0.37414 0.0
P192 P 0.43157 0.60441 0.09804 0.0
H193 H 0.39251 0.61202 0.05684 0.0
H194 H 0.34708 0.59762 0.05194 0.0
H195 H 0.3515 0.559 0.12725 0.0
H196 H 0.39651 0.57405 0.13253 0.0
H197 H 0.47881 0.63278 0.08517 0.0
H198 H 0.48777 0.67791 0.07429 0.0
H199 H 0.40518 0.69462 0.07939 0.0
H200 H 0.39683 0.64986 0.09226 0.0
H201 H 0.45069 0.55819 0.12475 0.0
H202 H 0.43883 0.63861 0.14372 0.0
O203 O 0.44855 0.58595 0.0774 0.0
H204 H 0.46657 0.55009 0.16932 0.0
H205 H 0.45595 0.63109 0.1879 0.0
C206 C 0.39776 0.59475 0.09534 0.0
C207 C 0.38358 0.60083 0.07251 0.0
C208 C 0.3577 0.59254 0.06968 0.0
C209 C 0.34584 0.57731 0.08928 0.0
C210 C 0.36024 0.5707 0.11185 0.0
C211 C 0.38596 0.57945 0.11491 0.0
C212 C 0.43712 0.63776 0.0888 0.0
C213 C 0.46264 0.64619 0.0838 0.0
C214 C 0.46768 0.67205 0.07734 0.0
C215 C 0.44718 0.6901 0.07547 0.0
C216 C 0.42155 0.6815 0.08075 0.0
C217 C 0.41664 0.65568 0.08774 0.0
C218 C 0.44398 0.59904 0.1308 0.0
C219 C 0.45189 0.57419 0.13844 0.0
C220 C 0.46113 0.56965 0.16393 0.0
C221 C 0.46283 0.58997 0.18228 0.0
C222 C 0.4547 0.61489 0.17448 0.0
C223 C 0.44513 0.6193 0.14906 0.0
P224 P 0.1435 0.38989 0.6378 0.0
H225 H 0.16738 0.34363 0.61642 0.0
H226 H 0.15295 0.31166 0.58444 0.0
H227 H 0.08342 0.3567 0.56943 0.0
H228 H 0.09787 0.38839 0.60234 0.0
H229 H 0.17655 0.42761 0.66415 0.0
H230 H 0.20939 0.45829 0.64841 0.0
H231 H 0.19216 0.43594 0.56825 0.0
H232 H 0.15839 0.4064 0.58415 0.0
H233 H 0.0986 0.36438 0.66124 0.0
H234 H 0.12826 0.44247 0.65493 0.0
O235 O 0.16088 0.37273 0.65947 0.0
H236 H 0.06638 0.3787 0.69337 0.0
H237 H 0.09709 0.45668 0.68782 0.0
C238 C 0.13334 0.36794 0.61223 0.0
C239 C 0.14906 0.34667 0.60621 0.0
C240 C 0.14089 0.32854 0.58759 0.0
C241 C 0.11692 0.33147 0.57432 0.0
C242 C 0.10178 0.35359 0.57956 0.0
C243 C 0.10999 0.37174 0.59832 0.0
C244 C 0.16502 0.41474 0.62537 0.0
C245 C 0.17951 0.42974 0.64315 0.0
C246 C 0.19848 0.44709 0.63411 0.0
C247 C 0.20373 0.44943 0.60704 0.0
C248 C 0.1885 0.43493 0.5892 0.0
C249 C 0.16925 0.41781 0.5983 0.0
C250 C 0.11597 0.40226 0.65578 0.0
C251 C 0.09783 0.38472 0.66636 0.0
C252 C 0.07958 0.3929 0.68493 0.0
C253 C 0.07936 0.41878 0.69354 0.0
C254 C 0.0965 0.43665 0.68156 0.0
C255 C 0.11461 0.42845 0.66283 0.0
Zn256 Zn 0.98 0.05034 0.56355 0.0
Zn257 Zn 0.04621 0.00189 0.49813 0.0
Zn258 Zn 0.01221 0.02572 0.53002 0.0
C259 C 0.05207 0.05412 0.48853 0.0
C260 C 0.9955 0.98247 0.48744 0.0
O261 O 0.01875 0.01186 0.57135 0.0
O262 O 0.98902 0.03119 0.596 0.0
C263 C 0.01229 0.08767 0.53923 0.0
O264 O 0.03604 0.05492 0.50806 0.0
O265 O 0.05878 0.03277 0.47871 0.0
O266 O 0.01928 0.97906 0.48184 0.0
O267 O 0.98892 1.00006 0.50408 0.0
O268 O 0.996 0.08527 0.55773 0.0
O269 O 0.01979 0.0677 0.52614 0.0
O270 O 0.97214 0.01841 0.51575 0.0
O271 O 0.94785 0.04056 0.54378 0.0
C272 C 0.94972 0.02658 0.52352 0.0
O273 O 0.03766 0.00155 0.5548 0.0
O274 O 0.06848 0.98846 0.52742 0.0
C275 C 0.00771 0.01553 0.59382 0.0
C276 C 0.0593 0.98973 0.55043 0.0
Zn277 Zn 0.48796 0.0354 0.00413 0.0
Zn278 Zn 0.55999 0.99563 0.07311 0.0
Zn279 Zn 0.5231 0.01642 0.04003 0.0
C280 C 0.58668 0.01991 0.03215 0.0
C281 C 0.52846 0.9551 0.05354 0.0
O282 O 0.49663 0.04252 0.06169 0.0
O283 O 0.46662 0.05267 0.0319 0.0
C284 C 0.53826 0.05429 0.99123 0.0
O285 O 0.56308 0.02497 0.02488 0.0
O286 O 0.59105 0.0076 0.05319 0.0
O287 O 0.5479 0.95892 0.06843 0.0
O288 O 0.51735 0.97417 0.04162 0.0
O289 O 0.51466 0.0559 0.98406 0.0
O290 O 0.54469 0.03987 0.01094 0.0
O291 O 0.50151 0.98394 0.02154 0.0
O292 O 0.47638 0.00113 0.99054 0.0
C293 C 0.48497 0.98149 0.00257 0.0
O294 O 0.51557 0.03257 0.07943 0.0
O295 O 0.54785 0.01651 0.10361 0.0
C296 C 0.47519 0.05395 0.05522 0.0
C297 C 0.52781 0.03056 0.10152 0.0
Zn298 Zn 0.54188 0.54856 0.53958 0.0
Zn299 Zn 0.48047 0.49192 0.4787 0.0
Zn300 Zn 0.50978 0.52009 0.51039 0.0
C301 C 0.50817 0.45741 0.51055 0.0
C302 C 0.51161 0.52078 0.44578 0.0
O303 O 0.48477 0.54574 0.53383 0.0
O304 O 0.51388 0.57259 0.55128 0.0
C305 C 0.54783 0.49785 0.55668 0.0
O306 O 0.51841 0.47879 0.51875 0.0
O307 O 0.48996 0.45778 0.49375 0.0
O308 O 0.49579 0.50204 0.44445 0.0
O309 O 0.51835 0.53015 0.46834 0.0
O310 O 0.55433 0.5206 0.56304 0.0
O311 O 0.53232 0.49393 0.53701 0.0
O312 O 0.53595 0.54347 0.48465 0.0
O313 O 0.56582 0.56005 0.51143 0.0
C314 C 0.55721 0.55645 0.48847 0.0
O315 O 0.46827 0.52852 0.51973 0.0
O316 O 0.44649 0.50725 0.48883 0.0
C317 C 0.49039 0.56606 0.54737 0.0
C318 C 0.44655 0.52202 0.50859 0.0
Zn319 Zn 0.05045 0.55516 0.97654 0.0
Zn320 Zn 0.99196 0.50438 0.03665 0.0
Zn321 Zn 0.02239 0.52958 0.00706 0.0
C322 C 0.04141 0.48584 0.0476 0.0
C323 C 0.97507 0.49378 0.98676 0.0
O324 O 0.01067 0.57123 0.009 0.0
O325 O 0.02836 0.58634 0.97239 0.0
C326 C 0.08301 0.53964 0.01667 0.0
O327 O 0.04733 0.5065 0.03448 0.0
O328 O 0.01789 0.47852 0.04902 0.0
O329 O 0.96571 0.49398 0.00969 0.0
O330 O 0.99765 0.50401 0.98223 0.0
O331 O 0.08131 0.55765 0.99994 0.0
O332 O 0.06332 0.52453 0.02089 0.0
O333 O 0.01765 0.51328 0.96649 0.0
O334 O 0.05225 0.5303 0.94707 0.0
C335 C 0.03324 0.51469 0.94663 0.0
O336 O 0.99792 0.55771 0.02916 0.0
O337 O 0.98268 0.53266 0.06102 0.0
C338 C 0.01372 0.58964 0.99201 0.0
C339 C 0.98553 0.55491 0.05107 0.0
H340 H 0.14369 0.21619 0.32335 0.0
H341 H 0.11802 0.19324 0.35669 0.0
H342 H 0.18846 0.17682 0.40027 0.0
H343 H 0.21428 0.19869 0.36659 0.0
H344 H 0.16161 0.13499 0.39602 0.0
H345 H 0.14206 0.22055 0.42251 0.0
H346 H 0.12747 0.26593 0.42008 0.0
H347 H 0.05062 0.24074 0.39751 0.0
H348 H 0.06485 0.19518 0.39936 0.0
H349 H 0.0955 0.07942 0.50495 0.0
H350 H 0.11925 0.11354 0.48094 0.0
H351 H 0.05806 0.11561 0.42252 0.0
H352 H 0.03489 0.08069 0.44593 0.0
H353 H 0.08079 0.16694 0.43843 0.0
H354 H 0.10502 0.08046 0.40831 0.0
H355 H 0.1205 0.03591 0.41617 0.0
H356 H 0.19094 0.06565 0.45104 0.0
H357 H 0.17566 0.1104 0.44373 0.0
C358 C 0.15374 0.20761 0.33998 0.0
C359 C 0.18112 0.20927 0.34217 0.0
C360 C 0.13897 0.19481 0.35926 0.0
C361 C 0.15122 0.18349 0.38122 0.0
C362 C 0.17849 0.18546 0.38361 0.0
C363 C 0.19325 0.19816 0.36435 0.0
C364 C 0.13601 0.16777 0.40052 0.0
C365 C 0.1442 0.14228 0.40554 0.0
C366 C 0.11305 0.17699 0.4129 0.0
C367 C 0.10465 0.20441 0.41071 0.0
C368 C 0.12215 0.22467 0.41663 0.0
C369 C 0.11392 0.25044 0.41546 0.0
C370 C 0.08817 0.25622 0.40852 0.0
C371 C 0.07059 0.23624 0.40278 0.0
C372 C 0.07873 0.21043 0.40389 0.0
C373 C 0.08691 0.08769 0.48734 0.0
C374 C 0.06335 0.07786 0.47732 0.0
C375 C 0.1004 0.10712 0.4737 0.0
C376 C 0.09028 0.11718 0.45009 0.0
C377 C 0.06601 0.10828 0.44085 0.0
C378 C 0.05285 0.0884 0.45414 0.0
C379 C 0.10641 0.13449 0.43337 0.0
C380 C 0.09834 0.16004 0.42886 0.0
C381 C 0.12973 0.12559 0.42176 0.0
C382 C 0.1391 0.09873 0.42571 0.0
C383 C 0.12372 0.07748 0.41782 0.0
C384 C 0.13247 0.0522 0.42215 0.0
C385 C 0.15666 0.04795 0.43416 0.0
C386 C 0.17219 0.06897 0.44178 0.0
C387 C 0.16351 0.09429 0.43753 0.0
H388 H 0.1634 0.02837 0.4375 0.0
H389 H 0.08182 0.27617 0.40769 0.0
H390 H 0.35173 0.83644 0.85147 0.0
H391 H 0.37087 0.84771 0.8942 0.0
H392 H 0.44185 0.87196 0.85564 0.0
H393 H 0.42289 0.86117 0.81306 0.0
H394 H 0.45196 0.84706 0.90262 0.0
H395 H 0.3952 0.9154 0.86925 0.0
H396 H 0.35307 0.93264 0.85355 0.0
H397 H 0.31691 0.91049 0.92643 0.0
H398 H 0.3588 0.8928 0.9424 0.0
H399 H 0.50857 0.95448 0.96435 0.0
H400 H 0.49004 0.91817 0.93987 0.0
H401 H 0.42516 0.9149 0.99395 0.0
H402 H 0.44344 0.95215 0.0178 0.0
H403 H 0.40766 0.91993 0.94722 0.0
H404 H 0.46806 0.86108 0.98421 0.0
H405 H 0.51059 0.84436 0.99964 0.0
H406 H 0.54054 0.84882 0.92098 0.0
H407 H 0.49832 0.86565 0.90515 0.0
C408 C 0.37148 0.84401 0.85212 0.0
C409 C 0.38568 0.84807 0.82878 0.0
C410 C 0.38244 0.85027 0.87656 0.0
C411 C 0.40773 0.86083 0.87806 0.0
C412 C 0.42239 0.86366 0.85496 0.0
C413 C 0.41148 0.85744 0.83059 0.0
C414 C 0.41809 0.87157 0.90306 0.0
C415 C 0.44234 0.86296 0.91251 0.0
C416 C 0.4051 0.89175 0.9164 0.0
C417 C 0.38 0.90249 0.90687 0.0
C418 C 0.37821 0.91404 0.88183 0.0
C419 C 0.35439 0.92391 0.8729 0.0
C420 C 0.3323 0.92258 0.88895 0.0
C421 C 0.33402 0.91144 0.914 0.0
C422 C 0.35778 0.90149 0.923 0.0
C423 C 0.49084 0.94534 0.97148 0.0
C424 C 0.47741 0.95581 0.99289 0.0
C425 C 0.48029 0.92445 0.95761 0.0
C426 C 0.4562 0.91355 0.96509 0.0
C427 C 0.44376 0.92292 0.98779 0.0
C428 C 0.4542 0.94407 0.00147 0.0
C429 C 0.44212 0.89601 0.94662 0.0
C430 C 0.4171 0.90345 0.93815 0.0
C431 C 0.45449 0.87481 0.93424 0.0
C432 C 0.48002 0.86474 0.94358 0.0
C433 C 0.48379 0.85864 0.9703 0.0
C434 C 0.50781 0.84912 0.97909 0.0
C435 C 0.52825 0.84563 0.96133 0.0
C436 C 0.52468 0.85154 0.93472 0.0
C437 C 0.50067 0.86099 0.92582 0.0
H438 H 0.54684 0.83828 0.96818 0.0
H439 H 0.31388 0.93024 0.882 0.0
H440 H 0.65799 0.31366 0.69319 0.0
H441 H 0.63146 0.33721 0.66093 0.0
H442 H 0.63522 0.40557 0.70939 0.0
H443 H 0.66164 0.38209 0.7418 0.0
H444 H 0.58581 0.39771 0.68747 0.0
H445 H 0.67595 0.39955 0.66119 0.0
H446 H 0.71838 0.38062 0.64927 0.0
H447 H 0.6828 0.34198 0.58353 0.0
H448 H 0.64009 0.36042 0.59526 0.0
H449 H 0.59738 0.4942 0.57415 0.0
H450 H 0.61611 0.46106 0.60273 0.0
H451 H 0.54277 0.41953 0.60238 0.0
H452 H 0.52369 0.45328 0.57396 0.0
H453 H 0.62426 0.4101 0.59875 0.0
H454 H 0.53549 0.39414 0.66594 0.0
H455 H 0.49521 0.41665 0.67902 0.0
H456 H 0.53223 0.49022 0.66504 0.0
H457 H 0.57282 0.46813 0.65214 0.0
C458 C 0.65277 0.33357 0.69719 0.0
C459 C 0.66199 0.34608 0.71997 0.0
C460 C 0.63772 0.34702 0.67868 0.0
C461 C 0.63151 0.37317 0.68269 0.0
C462 C 0.63977 0.38539 0.70593 0.0
C463 C 0.65502 0.37203 0.72432 0.0
C464 C 0.61794 0.38836 0.66198 0.0
C465 C 0.59409 0.40023 0.66799 0.0
C466 C 0.62891 0.3919 0.63666 0.0
C467 C 0.65466 0.38093 0.62945 0.0
C468 C 0.67709 0.38676 0.64439 0.0
C469 C 0.70123 0.37619 0.63761 0.0
C470 C 0.70326 0.35998 0.61575 0.0
C471 C 0.68118 0.35443 0.60054 0.0
C472 C 0.65698 0.36493 0.60726 0.0
C473 C 0.58531 0.47787 0.57997 0.0
C474 C 0.55917 0.47616 0.57177 0.0
C475 C 0.59607 0.45886 0.59616 0.0
C476 C 0.58085 0.43786 0.60478 0.0
C477 C 0.55483 0.43566 0.59606 0.0
C478 C 0.54401 0.4548 0.57973 0.0
C479 C 0.59214 0.4195 0.62421 0.0
C480 C 0.61568 0.40712 0.61803 0.0
C481 C 0.58118 0.41596 0.64953 0.0
C482 C 0.55705 0.42945 0.6577 0.0
C483 C 0.53504 0.41511 0.66567 0.0
C484 C 0.51216 0.4278 0.67306 0.0
C485 C 0.51112 0.45485 0.67275 0.0
C486 C 0.53301 0.46927 0.66516 0.0
C487 C 0.55595 0.45667 0.65777 0.0
H488 H 0.49337 0.46463 0.67846 0.0
H489 H 0.72197 0.35183 0.61053 0.0
H490 H 0.87808 0.67882 0.23115 0.0
H491 H 0.90505 0.65794 0.19792 0.0
H492 H 0.86826 0.7037 0.13723 0.0
H493 H 0.84142 0.72504 0.17044 0.0
H494 H 0.8706 0.65296 0.12395 0.0
H495 H 0.93013 0.71712 0.15511 0.0
H496 H 0.95461 0.74232 0.1882 0.0
H497 H 0.99279 0.67308 0.21478 0.0
H498 H 0.96825 0.64739 0.1821 0.0
H499 H 0.95696 0.59519 0.03102 0.0
H500 H 0.93474 0.62911 0.05627 0.0
H501 H 0.96549 0.59694 0.12831 0.0
H502 H 0.98806 0.56363 0.10324 0.0
H503 H 0.9671 0.64782 0.13067 0.0
H504 H 0.90348 0.58322 0.10373 0.0
H505 H 0.87779 0.55747 0.07202 0.0
H506 H 0.84621 0.62722 0.03873 0.0
H507 H 0.87225 0.65342 0.06981 0.0
C508 C 0.87596 0.68476 0.2108 0.0
C509 C 0.85759 0.70366 0.20351 0.0
C510 C 0.89139 0.67277 0.1918 0.0
C511 C 0.88888 0.67948 0.16512 0.0
C512 C 0.87053 0.69826 0.15772 0.0
C513 C 0.85511 0.71032 0.17672 0.0
C514 C 0.90473 0.66605 0.14496 0.0
C515 C 0.89175 0.65226 0.12505 0.0
C516 C 0.93228 0.6649 0.14663 0.0
C517 C 0.9472 0.6803 0.16625 0.0
C518 C 0.9436 0.70723 0.16814 0.0
C519 C 0.95751 0.72161 0.1868 0.0
C520 C 0.97521 0.7093 0.20361 0.0
C521 C 0.97907 0.68259 0.20175 0.0
C522 C 0.96519 0.66812 0.18313 0.0
C523 C 0.95952 0.59593 0.05216 0.0
C524 C 0.97451 0.57715 0.06522 0.0
C525 C 0.94665 0.61511 0.06656 0.0
C526 C 0.94834 0.61554 0.09418 0.0
C527 C 0.96396 0.59715 0.10704 0.0
C528 C 0.97677 0.57807 0.09273 0.0
C529 C 0.93292 0.63405 0.11014 0.0
C530 C 0.94598 0.64887 0.12925 0.0
C531 C 0.90541 0.63605 0.1078 0.0
C532 C 0.8901 0.62029 0.08885 0.0
C533 C 0.8913 0.59308 0.08944 0.0
C534 C 0.87666 0.5784 0.0716 0.0
C535 C 0.86044 0.5907 0.05332 0.0
C536 C 0.85879 0.61771 0.05289 0.0
C537 C 0.87356 0.63249 0.07054 0.0
H538 H 0.8491 0.5793 0.03954 0.0
H539 H 0.98596 0.72047 0.21805 0.0
H540 H 0.35737 0.19964 0.22662 0.0
H541 H 0.38824 0.17232 0.20296 0.0
H542 H 0.32587 0.14451 0.15324 0.0
H543 H 0.29489 0.17209 0.17649 0.0
H544 H 0.3588 0.10509 0.16967 0.0
H545 H 0.36746 0.19105 0.13057 0.0
H546 H 0.37549 0.23819 0.13229 0.0
H547 H 0.45074 0.22499 0.16724 0.0
H548 H 0.44292 0.17779 0.16613 0.0
H549 H 0.42241 0.05659 0.05802 0.0
H550 H 0.39602 0.08067 0.08948 0.0
H551 H 0.46612 0.1074 0.12808 0.0
H552 H 0.49268 0.0841 0.09593 0.0
H553 H 0.43255 0.14631 0.1219 0.0
H554 H 0.42789 0.06163 0.15702 0.0
H555 H 0.4218 0.01423 0.15676 0.0
H556 H 0.34178 0.02381 0.13327 0.0
H557 H 0.34755 0.07129 0.13298 0.0
C558 C 0.35019 0.18786 0.21055 0.0
C559 C 0.32361 0.18829 0.20336 0.0
C560 C 0.36789 0.17215 0.19711 0.0
C561 C 0.35944 0.15656 0.17614 0.0
C562 C 0.33283 0.15635 0.16939 0.0
C563 C 0.31511 0.17209 0.18278 0.0
C564 C 0.37839 0.14102 0.16071 0.0
C565 C 0.37481 0.1141 0.15905 0.0
C566 C 0.39991 0.15262 0.1477 0.0
C567 C 0.40458 0.18095 0.14834 0.0
C568 C 0.38565 0.19823 0.13875 0.0
C569 C 0.39016 0.22495 0.13961 0.0
C570 C 0.4136 0.23458 0.14988 0.0
C571 C 0.4326 0.21751 0.15928 0.0
C572 C 0.42816 0.19078 0.1585 0.0
C573 C 0.4322 0.06756 0.07331 0.0
C574 C 0.4596 0.06802 0.07495 0.0
C575 C 0.41709 0.08117 0.0914 0.0
C576 C 0.42905 0.09554 0.11155 0.0
C577 C 0.45645 0.09632 0.11295 0.0
C578 C 0.47161 0.08271 0.09478 0.0
C579 C 0.41277 0.11036 0.13045 0.0
C580 C 0.41681 0.13716 0.13279 0.0
C581 C 0.39196 0.09857 0.14446 0.0
C582 C 0.38823 0.07002 0.14479 0.0
C583 C 0.40906 0.05362 0.15162 0.0
C584 C 0.40565 0.02674 0.15159 0.0
C585 C 0.38142 0.01601 0.14496 0.0
C586 C 0.36054 0.03216 0.13839 0.0
C587 C 0.36387 0.05906 0.13835 0.0
H588 H 0.37881 0.99519 0.14494 0.0
H589 H 0.41706 0.25527 0.15053 0.0
H590 H 0.2513 0.92345 0.67805 0.0
H591 H 0.21107 0.94176 0.66078 0.0
H592 H 0.16731 0.87738 0.69268 0.0
H593 H 0.20781 0.85884 0.71031 0.0
H594 H 0.15384 0.88627 0.6428 0.0
H595 H 0.16062 0.93788 0.71925 0.0
H596 H 0.18182 0.96555 0.75257 0.0
H597 H 0.19749 0.0234 0.69372 0.0
H598 H 0.17673 0.99593 0.65995 0.0
H599 H 0.04281 0.95723 0.58959 0.0
H600 H 0.06994 0.93742 0.62416 0.0
H601 H 0.13724 0.97885 0.59486 0.0
H602 H 0.1104 0.99803 0.56004 0.0
H603 H 0.13024 0.97889 0.65236 0.0
H604 H 0.12879 0.92259 0.57535 0.0
H605 H 0.10681 0.89455 0.54292 0.0
H606 H 0.08025 0.84443 0.60501 0.0
H607 H 0.10189 0.87236 0.63785 0.0
C608 C 0.2331 0.91341 0.68198 0.0
C609 C 0.2328 0.88975 0.69577 0.0
C610 C 0.21004 0.92393 0.67205 0.0
C611 C 0.18607 0.91117 0.67578 0.0
C612 C 0.18558 0.88762 0.68968 0.0
C613 C 0.20873 0.87702 0.69965 0.0
C614 C 0.16204 0.92181 0.66345 0.0
C615 C 0.14826 0.90635 0.64541 0.0
C616 C 0.15476 0.94804 0.66677 0.0
C617 C 0.16719 0.96475 0.68702 0.0
C618 C 0.16873 0.95643 0.71336 0.0
C619 C 0.18066 0.97209 0.73234 0.0
C620 C 0.19102 0.9962 0.72526 0.0
C621 C 0.18944 0.00472 0.69918 0.0
C622 C 0.17755 0.98912 0.68012 0.0
C623 C 0.06331 0.9623 0.59091 0.0
C624 C 0.07464 0.97908 0.57236 0.0
C625 C 0.07877 0.95098 0.61056 0.0
C626 C 0.10556 0.95675 0.61208 0.0
C627 C 0.11658 0.97426 0.59407 0.0
C628 C 0.10132 0.98506 0.57415 0.0
C629 C 0.1229 0.94359 0.63118 0.0
C630 C 0.13541 0.95863 0.6504 0.0
C631 C 0.12891 0.91696 0.62905 0.0
C632 C 0.11628 0.90002 0.60916 0.0
C633 C 0.11791 0.90584 0.58215 0.0
C634 C 0.10563 0.88988 0.56366 0.0
C635 C 0.09195 0.86784 0.57191 0.0
C636 C 0.0907 0.86161 0.59865 0.0
C637 C 0.10294 0.87752 0.61721 0.0
H638 H 0.08246 0.8555 0.55756 0.0
H639 H 0.20025 0.0083 0.73999 0.0
H640 H 0.8513 0.32751 0.84514 0.0
H641 H 0.88323 0.35495 0.86701 0.0
H642 H 0.82712 0.41696 0.8702 0.0
H643 H 0.7959 0.3906 0.84586 0.0
H644 H 0.87091 0.43726 0.86078 0.0
H645 H 0.8429 0.37496 0.92468 0.0
H646 H 0.83403 0.33155 0.9431 0.0
H647 H 0.91531 0.31246 0.93696 0.0
H648 H 0.92462 0.35565 0.91821 0.0
H649 H 0.92425 0.50159 0.97452 0.0
H650 H 0.89745 0.47703 0.94313 0.0
H651 H 0.96468 0.43172 0.92208 0.0
H652 H 0.99174 0.45685 0.95276 0.0
H653 H 0.91801 0.40312 0.93884 0.0
H654 H 0.94419 0.47013 0.87835 0.0
H655 H 0.95002 0.51536 0.86334 0.0
H656 H 0.86732 0.52749 0.86826 0.0
H657 H 0.86107 0.4825 0.88358 0.0
C658 C 0.84577 0.34714 0.8499 0.0
C659 C 0.82073 0.35661 0.84365 0.0
C660 C 0.86404 0.36273 0.86293 0.0
C661 C 0.8575 0.3879 0.87091 0.0
C662 C 0.83269 0.39756 0.86445 0.0
C663 C 0.81462 0.38222 0.85083 0.0
C664 C 0.87638 0.4041 0.88611 0.0
C665 C 0.88094 0.4298 0.87802 0.0
C666 C 0.8899 0.39443 0.90845 0.0
C667 C 0.88439 0.36843 0.91973 0.0
C668 C 0.85884 0.36143 0.92707 0.0
C669 C 0.85375 0.33688 0.9376 0.0
C670 C 0.87408 0.31923 0.94112 0.0
C671 C 0.89957 0.32613 0.93417 0.0
C672 C 0.90477 0.35065 0.9236 0.0
C673 C 0.93335 0.48674 0.96269 0.0
C674 C 0.96001 0.48118 0.96571 0.0
C675 C 0.91809 0.47278 0.94481 0.0
C676 C 0.92915 0.45268 0.93014 0.0
C677 C 0.95588 0.44733 0.93295 0.0
C678 C 0.9713 0.46169 0.9504 0.0
C679 C 0.91227 0.43606 0.9135 0.0
C680 C 0.90802 0.41037 0.92148 0.0
C681 C 0.89853 0.44596 0.89155 0.0
C682 C 0.90223 0.47301 0.8823 0.0
C683 C 0.92731 0.48253 0.87642 0.0
C684 C 0.93068 0.50808 0.86782 0.0
C685 C 0.90907 0.52428 0.86492 0.0
C686 C 0.88404 0.51493 0.87054 0.0
C687 C 0.88058 0.4894 0.87914 0.0
H688 H 0.91171 0.54406 0.85827 0.0
H689 H 0.87009 0.30023 0.94928 0.0
H690 H 0.67713 0.70555 0.32499 0.0
H691 H 0.6456 0.67838 0.34844 0.0
H692 H 0.70829 0.63064 0.37763 0.0
H693 H 0.74004 0.65794 0.35453 0.0
H694 H 0.66611 0.60151 0.36249 0.0
H695 H 0.68347 0.67534 0.41576 0.0
H696 H 0.68777 0.72176 0.42616 0.0
H697 H 0.60611 0.73268 0.4105 0.0
H698 H 0.60141 0.68639 0.39967 0.0
H699 H 0.60843 0.54938 0.47889 0.0
H700 H 0.63524 0.57132 0.4457 0.0
H701 H 0.56689 0.61062 0.41623 0.0
H702 H 0.54005 0.5886 0.44962 0.0
H703 H 0.6094 0.64355 0.42872 0.0
H704 H 0.59273 0.56585 0.38105 0.0
H705 H 0.59094 0.51887 0.37309 0.0
H706 H 0.67411 0.51408 0.3824 0.0
H707 H 0.67645 0.56105 0.39074 0.0
C708 C 0.68425 0.68933 0.33647 0.0
C709 C 0.71116 0.6841 0.3381 0.0
C710 C 0.66618 0.67374 0.34974 0.0
C711 C 0.67463 0.65265 0.36498 0.0
C712 C 0.70136 0.64679 0.36591 0.0
C713 C 0.71947 0.66241 0.35267 0.0
C714 C 0.65572 0.63749 0.38095 0.0
C715 C 0.65387 0.61062 0.37715 0.0
C716 C 0.63949 0.64953 0.39978 0.0
C717 C 0.64218 0.67742 0.4064 0.0
C718 C 0.66648 0.68768 0.41423 0.0
C719 C 0.66899 0.71397 0.42028 0.0
C720 C 0.64726 0.73019 0.41885 0.0
C721 C 0.62296 0.72011 0.41149 0.0
C722 C 0.62036 0.69383 0.40538 0.0
C723 C 0.59912 0.5623 0.46492 0.0
C724 C 0.57221 0.56703 0.46631 0.0
C725 C 0.61438 0.57477 0.44601 0.0
C726 C 0.60301 0.59244 0.42842 0.0
C727 C 0.57598 0.59688 0.4295 0.0
C728 C 0.56063 0.58412 0.44828 0.0
C729 C 0.61984 0.60755 0.41033 0.0
C730 C 0.62141 0.63445 0.41385 0.0
C731 C 0.63615 0.59542 0.39166 0.0
C732 C 0.63476 0.56708 0.38664 0.0
C733 C 0.61066 0.55484 0.38153 0.0
C734 C 0.60953 0.52817 0.37694 0.0
C735 C 0.63238 0.5135 0.37726 0.0
C736 C 0.65642 0.52548 0.38215 0.0
C737 C 0.65766 0.55214 0.38677 0.0
H738 H 0.63146 0.49285 0.3737 0.0
H739 H 0.64923 0.75054 0.42356 0.0
H740 H 0.15297 0.30889 0.17755 0.0
H741 H 0.13025 0.34025 0.14936 0.0
H742 H 0.19769 0.39054 0.15147 0.0
H743 H 0.22062 0.35908 0.17942 0.0
H744 H 0.14837 0.41554 0.16205 0.0
H745 H 0.18839 0.3607 0.09787 0.0
H746 H 0.19957 0.31903 0.07726 0.0
H747 H 0.11822 0.30292 0.06423 0.0
H748 H 0.10653 0.34433 0.08514 0.0
H749 H 0.08699 0.50175 0.0712 0.0
H750 H 0.11993 0.47452 0.09275 0.0
H751 H 0.07123 0.40725 0.07941 0.0
H752 H 0.04008 0.43397 0.0555 0.0
H753 H 0.11739 0.39315 0.07238 0.0
H754 H 0.07634 0.44335 0.14142 0.0
H755 H 0.06332 0.48373 0.16359 0.0
H756 H 0.14373 0.50713 0.16918 0.0
H757 H 0.15718 0.46697 0.14682 0.0
C758 C 0.16294 0.32661 0.17194 0.0
C759 C 0.18857 0.33152 0.18058 0.0
C760 C 0.15001 0.34444 0.15579 0.0
C761 C 0.16235 0.36766 0.14826 0.0
C762 C 0.18787 0.37272 0.15702 0.0
C763 C 0.20097 0.35469 0.17282 0.0
C764 C 0.14834 0.38672 0.13155 0.0
C765 C 0.14191 0.41087 0.14227 0.0
C766 C 0.1396 0.38041 0.10595 0.0
C767 C 0.14658 0.35553 0.09328 0.0
C768 C 0.17287 0.34817 0.09082 0.0
C769 C 0.1793 0.32462 0.07904 0.0
C770 C 0.15962 0.30831 0.06949 0.0
C771 C 0.13345 0.31556 0.07166 0.0
C772 C 0.12691 0.33908 0.08344 0.0
C773 C 0.08402 0.48101 0.07193 0.0
C774 C 0.06153 0.4699 0.06082 0.0
C775 C 0.10247 0.46549 0.08489 0.0
C776 C 0.09806 0.4387 0.08807 0.0
C777 C 0.07536 0.42774 0.07714 0.0
C778 C 0.0574 0.4431 0.06363 0.0
C779 C 0.11647 0.42185 0.10313 0.0
C780 C 0.12392 0.39806 0.09207 0.0
C781 C 0.12577 0.42833 0.12861 0.0
C782 C 0.11772 0.45232 0.14224 0.0
C783 C 0.09121 0.45718 0.14727 0.0
C784 C 0.08376 0.48 0.15988 0.0
C785 C 0.10268 0.49801 0.16773 0.0
C786 C 0.1291 0.49318 0.16306 0.0
C787 C 0.13665 0.47039 0.15045 0.0
H788 H 0.09687 0.51568 0.17747 0.0
H789 H 0.16464 0.29009 0.06038 0.0
H790 H 0.70956 0.21628 0.89442 0.0
H791 H 0.68459 0.18639 0.92242 0.0
H792 H 0.63621 0.16575 0.85604 0.0
H793 H 0.66075 0.19577 0.82815 0.0
H794 H 0.60742 0.17746 0.89887 0.0
H795 H 0.68166 0.12451 0.87921 0.0
H796 H 0.728 0.11198 0.87718 0.0
H797 H 0.73396 0.11759 0.96126 0.0
H798 H 0.68773 0.13059 0.96377 0.0
H799 H 0.53838 0.06835 0.93968 0.0
H800 H 0.56877 0.09763 0.91744 0.0
H801 H 0.61281 0.10604 0.98946 0.0
H802 H 0.58255 0.0763 0.01171 0.0
H803 H 0.64494 0.10434 0.94963 0.0
H804 H 0.56981 0.15331 0.96895 0.0
H805 H 0.52295 0.1638 0.97118 0.0
H806 H 0.51826 0.16379 0.88681 0.0
H807 H 0.56503 0.15292 0.88406 0.0
C808 C 0.6936 0.20535 0.88583 0.0
C809 C 0.68714 0.20838 0.85906 0.0
C810 C 0.6795 0.18813 0.90179 0.0
C811 C 0.65863 0.17373 0.89128 0.0
C812 C 0.65228 0.17662 0.86455 0.0
C813 C 0.66643 0.19367 0.84859 0.0
C814 C 0.64251 0.1565 0.90823 0.0
C815 C 0.61557 0.16116 0.90956 0.0
C816 C 0.65332 0.13595 0.92316 0.0
C817 C 0.68134 0.12899 0.92163 0.0
C818 C 0.69295 0.12348 0.89724 0.0
C819 C 0.71917 0.11618 0.89601 0.0
C820 C 0.73395 0.11411 0.91907 0.0
C821 C 0.72252 0.1193 0.94341 0.0
C822 C 0.69631 0.12665 0.94474 0.0
C823 C 0.55466 0.07628 0.9507 0.0
C824 C 0.55815 0.07 0.97738 0.0
C825 C 0.57194 0.09315 0.93805 0.0
C826 C 0.5927 0.10463 0.95196 0.0
C827 C 0.59684 0.0976 0.97837 0.0
C828 C 0.57966 0.08046 0.99099 0.0
C829 C 0.60968 0.12419 0.93882 0.0
C830 C 0.63679 0.12044 0.9387 0.0
C831 C 0.59904 0.14543 0.92479 0.0
C832 C 0.57091 0.15211 0.92631 0.0
C833 C 0.55875 0.15537 0.95087 0.0
C834 C 0.53221 0.1614 0.95222 0.0
C835 C 0.51762 0.16441 0.92915 0.0
C836 C 0.52957 0.16144 0.90467 0.0
C837 C 0.55611 0.15537 0.9032 0.0
H838 H 0.49707 0.16908 0.93024 0.0
H839 H 0.75423 0.10839 0.91808 0.0
H840 H 0.88837 0.82259 0.33868 0.0
H841 H 0.91314 0.84942 0.36938 0.0
H842 H 0.85503 0.83579 0.42923 0.0
H843 H 0.82967 0.80944 0.39823 0.0
H844 H 0.86616 0.88584 0.42556 0.0
H845 H 0.91597 0.80955 0.43528 0.0
H846 H 0.9405 0.77091 0.42161 0.0
H847 H 0.99682 0.81925 0.38246 0.0
H848 H 0.97243 0.8582 0.39556 0.0
H849 H 0.94929 0.96508 0.50866 0.0
H850 H 0.92136 0.93015 0.49155 0.0
H851 H 0.97001 0.92519 0.42251 0.0
H852 H 0.99829 0.95909 0.43996 0.0
H853 H 0.96163 0.87888 0.44023 0.0
H854 H 0.90719 0.95426 0.42553 0.0
H855 H 0.88214 0.99223 0.43889 0.0
H856 H 0.83319 0.9444 0.4877 0.0
H857 H 0.85882 0.90599 0.4752 0.0
C858 C 0.88087 0.82523 0.3584 0.0
C859 C 0.85696 0.81401 0.36596 0.0
C860 C 0.89522 0.84033 0.37606 0.0
C861 C 0.8861 0.84441 0.40174 0.0
C862 C 0.86251 0.83279 0.40956 0.0
C863 C 0.84812 0.81762 0.39188 0.0
C864 C 0.90032 0.86246 0.4195 0.0
C865 C 0.88695 0.88402 0.4293 0.0
C866 C 0.92745 0.86019 0.42424 0.0
C867 C 0.94226 0.83682 0.4163 0.0
C868 C 0.93348 0.81195 0.4236 0.0
C869 C 0.94738 0.78998 0.41597 0.0
C870 C 0.97018 0.79262 0.40115 0.0
C871 C 0.97916 0.81724 0.39395 0.0
C872 C 0.96532 0.83927 0.40151 0.0
C873 C 0.95368 0.95679 0.48964 0.0
C874 C 0.97596 0.96478 0.47563 0.0
C875 C 0.93778 0.93675 0.4799 0.0
C876 C 0.94359 0.92486 0.45572 0.0
C877 C 0.96526 0.93371 0.44135 0.0
C878 C 0.98131 0.95329 0.45123 0.0
C879 C 0.92771 0.90295 0.44513 0.0
C880 C 0.94077 0.8805 0.43688 0.0
C881 C 0.90027 0.90432 0.44192 0.0
C882 C 0.88512 0.92736 0.4497 0.0
C883 C 0.89128 0.95187 0.43934 0.0
C884 C 0.87688 0.9735 0.44675 0.0
C885 C 0.85588 0.97082 0.46409 0.0
C886 C 0.84944 0.94647 0.47426 0.0
C887 C 0.86397 0.92476 0.4671 0.0
H888 H 0.84452 0.98753 0.46963 0.0
H889 H 0.98092 0.77559 0.39527 0.0
H890 H 0.38718 0.76632 0.6308 0.0
H891 H 0.40225 0.72787 0.60792 0.0
H892 H 0.35532 0.67962 0.65879 0.0
H893 H 0.33957 0.71827 0.68162 0.0
H894 H 0.40544 0.66208 0.65459 0.0
H895 H 0.33738 0.68606 0.59583 0.0
H896 H 0.31107 0.7153 0.56804 0.0
H897 H 0.37795 0.73108 0.51968 0.0
H898 H 0.40476 0.70222 0.5474 0.0
H899 H 0.45001 0.55417 0.58032 0.0
H900 H 0.41843 0.58448 0.59936 0.0
H901 H 0.45529 0.64747 0.55722 0.0
H902 H 0.48592 0.61703 0.53747 0.0
H903 H 0.40282 0.65276 0.55747 0.0
H904 H 0.47152 0.6331 0.62087 0.0
H905 H 0.49736 0.60348 0.64872 0.0
H906 H 0.42757 0.5787 0.68835 0.0
H907 H 0.40131 0.60801 0.66054 0.0
C908 C 0.37953 0.74764 0.63682 0.0
C909 C 0.36199 0.74546 0.65798 0.0
C910 C 0.38826 0.72562 0.62374 0.0
C911 C 0.37968 0.70091 0.63146 0.0
C912 C 0.36213 0.69855 0.6525 0.0
C913 C 0.35325 0.72064 0.66558 0.0
C914 C 0.3903 0.67767 0.61828 0.0
C915 C 0.40437 0.65971 0.63341 0.0
C916 C 0.38917 0.67475 0.59062 0.0
C917 C 0.37313 0.6921 0.57382 0.0
C918 C 0.34653 0.69592 0.57939 0.0
C919 C 0.33152 0.7124 0.56363 0.0
C920 C 0.34284 0.72507 0.54214 0.0
C921 C 0.3692 0.72125 0.53634 0.0
C922 C 0.38431 0.70481 0.55205 0.0
C923 C 0.45052 0.57429 0.57437 0.0
C924 C 0.46981 0.58327 0.55703 0.0
C925 C 0.43285 0.59166 0.58556 0.0
C926 C 0.43464 0.61828 0.57982 0.0
C927 C 0.45347 0.62703 0.56183 0.0
C928 C 0.471 0.6097 0.55067 0.0
C929 C 0.41836 0.63753 0.59372 0.0
C930 C 0.40343 0.65488 0.57869 0.0
C931 C 0.4186 0.6398 0.62147 0.0
C932 C 0.43443 0.62249 0.63842 0.0
C933 C 0.46169 0.62121 0.63541 0.0
C934 C 0.47641 0.6045 0.65121 0.0
C935 C 0.46411 0.58915 0.67024 0.0
C936 C 0.43707 0.59056 0.67357 0.0
C937 C 0.42226 0.60722 0.65781 0.0
H938 H 0.47553 0.57622 0.68244 0.0
H939 H 0.33119 0.73782 0.52996 0.0
H940 H 0.99861 0.98117 0.84082 0.0
H941 H 0.01594 0.98879 0.79667 0.0
H942 H 0.96124 0.93318 0.76502 0.0
H943 H 0.94376 0.92549 0.80913 0.0
H944 H 0.00912 0.92801 0.74278 0.0
H945 H 0.94947 0.99787 0.76106 0.0
H946 H 0.93232 0.03461 0.78656 0.0
H947 H 0.00525 0.07503 0.77758 0.0
H948 H 0.02296 0.03835 0.75231 0.0
H949 H 0.98841 0.96996 0.61146 0.0
H950 H 0.99126 0.95365 0.65661 0.0
H951 H 0.04655 0.01421 0.67548 0.0
H952 H 0.0434 0.03062 0.6302 0.0
H953 H 0.00513 0.01697 0.7059 0.0
H954 H 0.06503 0.94809 0.68722 0.0
H955 H 0.0836 0.91045 0.66431 0.0
H956 H 0.01119 0.8691 0.67312 0.0
H957 H 0.99243 0.90626 0.69685 0.0
C958 C 0.99019 0.97064 0.82445 0.0
C959 C 0.96963 0.95288 0.82848 0.0
C960 C 1.00019 0.97494 0.79924 0.0
C961 C 0.98971 0.96176 0.77748 0.0
C962 C 0.96968 0.94352 0.78152 0.0
C963 C 0.95972 0.93914 0.80675 0.0
C964 C 0.99884 0.96769 0.75038 0.0
C965 C 0.00811 0.94743 0.73464 0.0
C966 C 0.99829 0.99315 0.73999 0.0
C967 C 0.98763 0.01525 0.75507 0.0
C968 C 0.96191 0.01451 0.7647 0.0
C969 C 0.95208 0.03533 0.77908 0.0
C970 C 0.96772 0.0571 0.78376 0.0
C971 C 0.99319 0.05813 0.77399 0.0
C972 C 0.00312 0.03734 0.75963 0.0
C973 C 0.00203 0.97901 0.625 0.0
C974 C 0.01589 0.00131 0.61749 0.0
C975 C 0.00372 0.96968 0.65081 0.0
C976 C 0.01915 0.98267 0.66955 0.0
C977 C 0.03457 0.00382 0.66139 0.0
C978 C 0.0329 0.01311 0.63554 0.0
C979 C 0.01528 0.97724 0.69806 0.0
C980 C 0.00672 0.99761 0.71411 0.0
C981 C 0.01652 0.95193 0.7087 0.0
C982 C 0.02728 0.93 0.69357 0.0
C983 C 0.05302 0.93103 0.68411 0.0
C984 C 0.06363 0.90971 0.67113 0.0
C985 C 0.04852 0.88747 0.66703 0.0
C986 C 0.02285 0.88637 0.67622 0.0
C987 C 0.01228 0.90746 0.68963 0.0
H988 H 0.0567 0.87103 0.65686 0.0
H989 H 0.96007 0.07321 0.79489 0.0
H990 H 0.52946 0.14594 0.32532 0.0
H991 H 0.50393 0.13034 0.28775 0.0
H992 H 0.55865 0.068 0.27699 0.0
H993 H 0.58437 0.08362 0.31404 0.0
H994 H 0.52273 0.13049 0.23939 0.0
H995 H 0.53133 0.01769 0.24656 0.0
H996 H 0.52755 0.98366 0.28048 0.0
H997 H 0.47972 0.03351 0.3274 0.0
H998 H 0.48285 0.06773 0.2936 0.0
H999 H 0.55742 0.06559 0.12664 0.0
H1000 H 0.54882 0.08607 0.16884 0.0
H1001 H 0.47294 0.04941 0.1715 0.0
H1002 H 0.48165 0.02884 0.12868 0.0
H1003 H 0.50038 0.04 0.21535 0.0
H1004 H 0.47481 0.11909 0.17299 0.0
H1005 H 0.47741 0.15403 0.13967 0.0
H1006 H 0.55515 0.17271 0.16523 0.0
H1007 H 0.55317 0.13771 0.19836 0.0
C1008 C 0.53581 0.12866 0.3152 0.0
C1009 C 0.55915 0.11621 0.32253 0.0
C1010 C 0.5211 0.11969 0.29384 0.0
C1011 C 0.52929 0.09795 0.2796 0.0
C1012 C 0.55162 0.08452 0.28796 0.0
C1013 C 0.56637 0.09351 0.30922 0.0
C1014 C 0.51723 0.09155 0.25383 0.0
C1015 C 0.51732 0.11079 0.23427 0.0
C1016 C 0.50961 0.066 0.24721 0.0
C1017 C 0.5074 0.04535 0.26752 0.0
C1018 C 0.51983 0.02136 0.26401 0.0
C1019 C 0.51785 0.00204 0.28325 0.0
C1020 C 0.50344 0.00643 0.3061 0.0
C1021 C 0.49093 0.03015 0.30973 0.0
C1022 C 0.49284 0.04953 0.29054 0.0
C1023 C 0.53862 0.06251 0.13591 0.0
C1024 C 0.52012 0.04588 0.12452 0.0
C1025 C 0.53359 0.07438 0.15992 0.0
C1026 C 0.51002 0.06969 0.17319 0.0
C1027 C 0.49108 0.05361 0.16142 0.0
C1028 C 0.49604 0.04188 0.13708 0.0
C1029 C 0.5074 0.07865 0.20079 0.0
C1030 C 0.50475 0.05988 0.2207 0.0
C1031 C 0.51249 0.10468 0.20785 0.0
C1032 C 0.5139 0.12564 0.1879 0.0
C1033 C 0.49253 0.1305 0.17126 0.0
C1034 C 0.49386 0.15035 0.1525 0.0
C1035 C 0.51642 0.16552 0.15031 0.0
C1036 C 0.53769 0.16093 0.16693 0.0
C1037 C 0.53646 0.14112 0.18572 0.0
H1038 H 0.51738 0.18087 0.13578 0.0
H1039 H 0.50194 0.99145 0.32098 0.0
H1040 H 0.50213 0.55716 0.19781 0.0
H1041 H 0.51695 0.54779 0.24255 0.0
H1042 H 0.46195 0.60294 0.27312 0.0
H1043 H 0.44614 0.61171 0.22859 0.0
H1044 H 0.51394 0.60646 0.29527 0.0
H1045 H 0.44617 0.54315 0.27753 0.0
H1046 H 0.42507 0.50832 0.25195 0.0
H1047 H 0.49312 0.46084 0.26138 0.0
H1048 H 0.51479 0.49558 0.2867 0.0
H1049 H 0.49943 0.56898 0.42908 0.0
H1050 H 0.50025 0.58434 0.38361 0.0
H1051 H 0.54099 0.51504 0.36049 0.0
H1052 H 0.53924 0.49934 0.406 0.0
H1053 H 0.49999 0.51873 0.33292 0.0
H1054 H 0.57137 0.5826 0.33939 0.0
H1055 H 0.59698 0.61822 0.35911 0.0
H1056 H 0.52696 0.66232 0.3698 0.0
H1057 H 0.50111 0.62736 0.34898 0.0
C1058 C 0.49292 0.56713 0.214 0.0
C1059 C 0.47276 0.58509 0.20947 0.0
C1060 C 0.5016 0.56189 0.23956 0.0
C1061 C 0.49047 0.57463 0.26109 0.0
C1062 C 0.47086 0.59302 0.25671 0.0
C1063 C 0.46194 0.59807 0.23118 0.0
C1064 C 0.4987 0.56815 0.28829 0.0
C1065 C 0.51071 0.58734 0.30364 0.0
C1066 C 0.49528 0.543 0.29884 0.0
C1067 C 0.48221 0.52207 0.28375 0.0
C1068 C 0.45673 0.52537 0.27395 0.0
C1069 C 0.44464 0.50563 0.25953 0.0
C1070 C 0.45778 0.48241 0.25497 0.0
C1071 C 0.48299 0.47886 0.26488 0.0
C1072 C 0.49517 0.49856 0.27928 0.0
C1073 C 0.50964 0.55766 0.41446 0.0
C1074 C 0.51961 0.53321 0.42097 0.0
C1075 C 0.51018 0.56646 0.38839 0.0
C1076 C 0.52086 0.55098 0.36842 0.0
C1077 C 0.53265 0.52738 0.37545 0.0
C1078 C 0.53181 0.51847 0.40145 0.0
C1079 C 0.51548 0.55704 0.34022 0.0
C1080 C 0.50368 0.53778 0.32461 0.0
C1081 C 0.51945 0.58198 0.32928 0.0
C1082 C 0.53435 0.60226 0.34322 0.0
C1083 C 0.56146 0.59977 0.3463 0.0
C1084 C 0.57602 0.61989 0.35748 0.0
C1085 C 0.56357 0.64232 0.36611 0.0
C1086 C 0.53655 0.64485 0.36326 0.0
C1087 C 0.52197 0.62501 0.35155 0.0
H1088 H 0.57489 0.65782 0.37479 0.0
H1089 H 0.44839 0.46715 0.24381 0.0
H1090 H 0.05299 0.46438 0.70216 0.0
H1091 H 0.03449 0.47932 0.74382 0.0
H1092 H 0.05243 0.40565 0.77964 0.0
H1093 H 0.07114 0.39073 0.73847 0.0
H1094 H 0.00666 0.42532 0.79892 0.0
H1095 H 0.09589 0.45439 0.78246 0.0
H1096 H 0.12981 0.47712 0.75673 0.0
H1097 H 0.08717 0.54827 0.76313 0.0
H1098 H 0.0528 0.52582 0.78859 0.0
H1099 H 0.07067 0.48722 0.92275 0.0
H1100 H 0.06892 0.46757 0.87918 0.0
H1101 H 0.98743 0.48698 0.87274 0.0
H1102 H 0.98898 0.50662 0.91692 0.0
H1103 H 0.05832 0.4978 0.83659 0.0
H1104 H 0.96158 0.44254 0.82571 0.0
H1105 H 0.93157 0.41353 0.84992 0.0
H1106 H 0.99452 0.38942 0.90016 0.0
H1107 H 0.02485 0.41842 0.87636 0.0
C1108 C 0.05265 0.45124 0.7188 0.0
C1109 C 0.06383 0.42644 0.71698 0.0
C1110 C 0.04193 0.45975 0.74255 0.0
C1111 C 0.04234 0.44368 0.76491 0.0
C1112 C 0.05177 0.41833 0.76262 0.0
C1113 C 0.06246 0.40981 0.73895 0.0
C1114 C 0.03635 0.45405 0.79141 0.0
C1115 C 0.01763 0.44144 0.80708 0.0
C1116 C 0.0509 0.47486 0.80216 0.0
C1117 C 0.07166 0.48839 0.78712 0.0
C1118 C 0.09369 0.47484 0.77822 0.0
C1119 C 0.11299 0.48767 0.7637 0.0
C1120 C 0.11061 0.51411 0.75823 0.0
C1121 C 0.08895 0.52778 0.76733 0.0
C1122 C 0.06956 0.51502 0.78179 0.0
C1123 C 0.05217 0.48665 0.91236 0.0
C1124 C 0.02995 0.49829 0.92316 0.0
C1125 C 0.05119 0.47546 0.88747 0.0
C1126 C 0.02802 0.47589 0.87269 0.0
C1127 C 0.00532 0.48617 0.88401 0.0
C1128 C 0.00625 0.49732 0.90918 0.0
C1129 C 0.029 0.46869 0.84446 0.0
C1130 C 0.04677 0.48211 0.82834 0.0
C1131 C 0.01382 0.44843 0.83353 0.0
C1132 C 0.99537 0.43284 0.84945 0.0
C1133 C 0.96893 0.43121 0.84208 0.0
C1134 C 0.95189 0.41474 0.85568 0.0
C1135 C 0.96116 0.3996 0.8765 0.0
C1136 C 0.9874 0.40116 0.884 0.0
C1137 C 0.00446 0.41779 0.87063 0.0
H1138 H 0.94802 0.38666 0.88682 0.0
H1139 H 0.12557 0.52401 0.74699 0.0
H1140 H 0.82693 0.01272 0.97203 0.0
H1141 H 0.78272 0.0284 0.98006 0.0
H1142 H 0.75105 0.96438 0.93577 0.0
H1143 H 0.79534 0.94849 0.92768 0.0
H1144 H 0.72379 0.01009 0.92675 0.0
H1145 H 0.75406 0.95999 0.00087 0.0
H1146 H 0.78487 0.94835 0.03632 0.0
H1147 H 0.77629 0.02391 0.07023 0.0
H1148 H 0.74571 0.03613 0.03473 0.0
H1149 H 0.59702 0.99876 0.98472 0.0
H1150 H 0.63974 0.99732 0.96343 0.0
H1151 H 0.6696 0.0525 0.01986 0.0
H1152 H 0.62733 0.05221 0.04225 0.0
H1153 H 0.69881 0.01417 0.02083 0.0
H1154 H 0.66401 0.06263 0.94803 0.0
H1155 H 0.63285 0.07288 0.91221 0.0
H1156 H 0.64921 1.00008 0.87551 0.0
H1157 H 0.67995 0.98915 0.91123 0.0
C1158 C 0.81057 0.00198 0.96394 0.0
C1159 C 0.81465 0.97912 0.94955 0.0
C1160 C 0.78532 0.01106 0.96842 0.0
C1161 C 0.76356 0.99738 0.95881 0.0
C1162 C 0.76756 0.97526 0.94334 0.0
C1163 C 0.79288 0.96619 0.93876 0.0
C1164 C 0.73675 0.00497 0.96672 0.0
C1165 C 0.71815 0.0109 0.94729 0.0
C1166 C 0.7296 0.00645 0.99352 0.0
C1167 C 0.74782 0.99906 0.015 0.0
C1168 C 0.7589 0.97418 0.01578 0.0
C1169 C 0.7763 0.96747 0.03589 0.0
C1170 C 0.78259 0.98541 0.05548 0.0
C1171 C 0.77144 0.01006 0.05502 0.0
C1172 C 0.75406 0.01689 0.03492 0.0
C1173 C 0.61252 0.01124 0.99192 0.0
C1174 C 0.60904 0.02566 0.01498 0.0
C1175 C 0.63699 0.01051 0.97969 0.0
C1176 C 0.65815 0.02482 0.98993 0.0
C1177 C 0.65377 0.04109 0.01164 0.0
C1178 C 0.62959 0.04114 0.02433 0.0
C1179 C 0.68542 0.01983 0.9809 0.0
C1180 C 0.70425 0.01401 1.00021 0.0
C1181 C 0.69259 0.01843 0.95398 0.0
C1182 C 0.67413 0.02503 0.93244 0.0
C1183 C 0.66077 0.04877 0.93241 0.0
C1184 C 0.64324 0.05471 0.91214 0.0
C1185 C 0.63908 0.03717 0.89167 0.0
C1186 C 0.65244 0.01365 0.89139 0.0
C1187 C 0.66993 0.00758 0.91164 0.0
H1188 H 0.62551 0.04183 0.87601 0.0
H1189 H 0.79607 0.98017 0.07103 0.0
H1190 H 0.75839 0.11343 0.39371 0.0
H1191 H 0.79834 0.09268 0.40905 0.0
H1192 H 0.75558 0.05604 0.47216 0.0
H1193 H 0.71539 0.07688 0.45688 0.0
H1194 H 0.79901 0.07844 0.48999 0.0
H1195 H 0.77826 0.0208 0.41944 0.0
H1196 H 0.76657 0.00845 0.37408 0.0
H1197 H 0.83754 0.04296 0.34554 0.0
H1198 H 0.8495 0.05586 0.39071 0.0
H1199 H 0.9026 0.0082 0.53916 0.0
H1200 H 0.86091 0.01578 0.51691 0.0
H1201 H 0.90186 0.0486 0.45047 0.0
H1202 H 0.94366 0.03928 0.47208 0.0
H1203 H 0.85911 0.02859 0.43332 0.0
H1204 H 0.87892 0.0866 0.50318 0.0
H1205 H 0.89107 0.09979 0.54819 0.0
H1206 H 0.82142 0.06397 0.57837 0.0
H1207 H 0.80904 0.05023 0.53356 0.0
C1208 C 0.75735 0.10054 0.41053 0.0
C1209 C 0.73369 0.09671 0.42403 0.0
C1210 C 0.78023 0.08869 0.4193 0.0
C1211 C 0.77992 0.07257 0.44158 0.0
C1212 C 0.75626 0.0684 0.4549 0.0
C1213 C 0.73335 0.08034 0.44619 0.0
C1214 C 0.80457 0.06135 0.45184 0.0
C1215 C 0.81182 0.06682 0.47786 0.0
C1216 C 0.82179 0.04716 0.43567 0.0
C1217 C 0.81465 0.03952 0.40845 0.0
C1218 C 0.79127 0.02596 0.40347 0.0
C1219 C 0.78462 0.01882 0.3778 0.0
C1220 C 0.80127 0.02497 0.35693 0.0
C1221 C 0.82464 0.03824 0.36172 0.0
C1222 C 0.83138 0.04545 0.38736 0.0
C1223 C 0.90264 0.01602 0.51935 0.0
C1224 C 0.92617 0.02323 0.50728 0.0
C1225 C 0.87885 0.02078 0.50681 0.0
C1226 C 0.87818 0.03389 0.48253 0.0
C1227 C 0.90181 0.03885 0.46937 0.0
C1228 C 0.9257 0.03334 0.48162 0.0
C1229 C 0.85307 0.04422 0.47207 0.0
C1230 C 0.846 0.03927 0.44585 0.0
C1231 C 0.83591 0.05875 0.4881 0.0
C1232 C 0.84318 0.06717 0.51505 0.0
C1233 C 0.86627 0.0814 0.51944 0.0
C1234 C 0.8732 0.08898 0.54491 0.0
C1235 C 0.85706 0.08267 0.56613 0.0
C1236 C 0.83392 0.06881 0.56191 0.0
C1237 C 0.82693 0.06113 0.53648 0.0
H1238 H 0.86245 0.08855 0.58584 0.0
H1239 H 0.79609 0.01942 0.33707 0.0
H1240 H 0.30329 0.60673 0.07818 0.0
H1241 H 0.25799 0.59217 0.0726 0.0
H1242 H 0.28147 0.51328 0.08714 0.0
H1243 H 0.32689 0.52788 0.09332 0.0
H1244 H 0.24839 0.52362 0.03942 0.0
H1245 H 0.25038 0.53545 0.13267 0.0
H1246 H 0.26024 0.55872 0.17383 0.0
H1247 H 0.20994 0.62089 0.14995 0.0
H1248 H 0.2001 0.59818 0.10844 0.0
H1249 H 0.11244 0.49597 0.02414 0.0
H1250 H 0.1563 0.49378 0.04393 0.0
H1251 H 0.15388 0.5761 0.05862 0.0
H1252 H 0.10992 0.57791 0.04023 0.0
H1253 H 0.17731 0.55387 0.09776 0.0
H1254 H 0.18313 0.54829 0.00227 0.0
H1255 H 0.17431 0.52828 0.9591 0.0
H1256 H 0.21049 0.45779 0.98518 0.0
H1257 H 0.21925 0.47734 0.02862 0.0
C1258 C 0.29875 0.58631 0.08022 0.0
C1259 C 0.31849 0.56841 0.08617 0.0
C1260 C 0.27293 0.57803 0.07715 0.0
C1261 C 0.26646 0.55168 0.07958 0.0
C1262 C 0.28614 0.53369 0.08529 0.0
C1263 C 0.31195 0.54204 0.08888 0.0
C1264 C 0.2391 0.54322 0.07548 0.0
C1265 C 0.23283 0.52964 0.05246 0.0
C1266 C 0.21891 0.55149 0.09233 0.0
C1267 C 0.22464 0.56517 0.11735 0.0
C1268 C 0.24159 0.55418 0.13609 0.0
C1269 C 0.24714 0.56726 0.15951 0.0
C1270 C 0.23576 0.59129 0.16448 0.0
C1271 C 0.21875 0.60227 0.14607 0.0
C1272 C 0.21315 0.58929 0.1226 0.0
C1273 C 0.12111 0.51334 0.03236 0.0
C1274 C 0.10776 0.537 0.03118 0.0
C1275 C 0.14622 0.51217 0.04337 0.0
C1276 C 0.15857 0.53485 0.05254 0.0
C1277 C 0.14481 0.5583 0.05188 0.0
C1278 C 0.11973 0.55937 0.04126 0.0
C1279 C 0.18637 0.53509 0.0611 0.0
C1280 C 0.19282 0.54719 0.085 0.0
C1281 C 0.20672 0.52584 0.04482 0.0
C1282 C 0.20154 0.51414 0.01874 0.0
C1283 C 0.18904 0.52847 0.99883 0.0
C1284 C 0.18408 0.51722 0.97432 0.0
C1285 C 0.19175 0.49175 0.96943 0.0
C1286 C 0.20449 0.47749 0.98902 0.0
C1287 C 0.20946 0.48864 0.01357 0.0
H1288 H 0.1879 0.48307 0.95044 0.0
H1289 H 0.24009 0.60139 0.18262 0.0
H1290 H 0.20702 0.47924 0.56209 0.0
H1291 H 0.24554 0.50187 0.54496 0.0
H1292 H 0.28949 0.47897 0.61359 0.0
H1293 H 0.25157 0.45568 0.63047 0.0
H1294 H 0.29911 0.53074 0.59784 0.0
H1295 H 0.29467 0.44432 0.5601 0.0
H1296 H 0.27317 0.40915 0.53531 0.0
H1297 H 0.26685 0.45875 0.46761 0.0
H1298 H 0.288 0.49435 0.49216 0.0
H1299 H 0.43185 0.51841 0.55969 0.0
H1300 H 0.38717 0.51928 0.57657 0.0
H1301 H 0.35872 0.53886 0.49907 0.0
H1302 H 0.40354 0.53857 0.48239 0.0
H1303 H 0.33749 0.49531 0.51608 0.0
H1304 H 0.34511 0.58001 0.54981 0.0
H1305 H 0.3613 0.61834 0.5736 0.0
H1306 H 0.36009 0.57563 0.64623 0.0
H1307 H 0.34362 0.53701 0.62286 0.0
C1308 C 0.22486 0.479 0.57357 0.0
C1309 C 0.22614 0.46546 0.59763 0.0
C1310 C 0.24679 0.49211 0.56382 0.0
C1311 C 0.27036 0.49199 0.57799 0.0
C1312 C 0.27142 0.47946 0.60246 0.0
C1313 C 0.24962 0.4662 0.61211 0.0
C1314 C 0.29455 0.50309 0.56655 0.0
C1315 C 0.30767 0.52296 0.58005 0.0
C1316 C 0.30514 0.49351 0.54285 0.0
C1317 C 0.29261 0.47207 0.52805 0.0
C1318 C 0.2885 0.44778 0.54 0.0
C1319 C 0.27641 0.42777 0.52598 0.0
C1320 C 0.26857 0.43174 0.49993 0.0
C1321 C 0.27288 0.45572 0.48781 0.0
C1322 C 0.28492 0.47582 0.50176 0.0
C1323 C 0.41622 0.52446 0.5467 0.0
C1324 C 0.42114 0.52907 0.51996 0.0
C1325 C 0.39062 0.5247 0.55626 0.0
C1326 C 0.36954 0.52919 0.53909 0.0
C1327 C 0.37465 0.53542 0.51269 0.0
C1328 C 0.40023 0.5353 0.50319 0.0
C1329 C 0.3425 0.52285 0.54755 0.0
C1330 C 0.32887 0.50359 0.53361 0.0
C1331 C 0.33138 0.53321 0.57066 0.0
C1332 C 0.34327 0.55557 0.58454 0.0
C1333 C 0.34866 0.57865 0.57079 0.0
C1334 C 0.35775 0.60049 0.58423 0.0
C1335 C 0.36169 0.59943 0.61142 0.0
C1336 C 0.35692 0.57643 0.62518 0.0
C1337 C 0.34762 0.55459 0.61186 0.0
H1338 H 0.36819 0.61647 0.62188 0.0
H1339 H 0.25922 0.41622 0.48911 0.0
H1340 H 0.95108 0.83231 0.01235 0.0
H1341 H 0.96021 0.78698 0.02308 0.0
H1342 H 0.93589 0.76444 0.94505 0.0
H1343 H 0.9264 0.80965 0.93438 0.0
H1344 H 0.91869 0.73023 0.98001 0.0
H1345 H 0.00123 0.77242 0.9622 0.0
H1346 H 0.03564 0.80543 0.96849 0.0
H1347 H 0.04517 0.78132 0.04889 0.0
H1348 H 0.01054 0.74838 0.04315 0.0
H1349 H 0.98846 0.61601 0.95386 0.0
H1350 H 0.97056 0.65975 0.95608 0.0
H1351 H 0.99234 0.66439 0.03801 0.0
H1352 H 0.01051 0.62033 0.03572 0.0
H1353 H 0.00845 0.70721 0.00844 0.0
H1354 H 0.9305 0.65998 0.02293 0.0
H1355 H 0.89863 0.62504 0.01454 0.0
H1356 H 0.88054 0.65845 0.93924 0.0
H1357 H 0.91333 0.69284 0.94667 0.0
C1358 C 0.94763 0.81766 0.99751 0.0
C1359 C 0.93818 0.82458 0.97245 0.0
C1360 C 0.95285 0.79176 0.00367 0.0
C1361 C 0.94913 0.77229 0.98475 0.0
C1362 C 0.9389 0.77908 0.96 0.0
C1363 C 0.93346 0.80494 0.95392 0.0
C1364 C 0.95678 0.74502 0.99022 0.0
C1365 C 0.93836 0.7252 0.98607 0.0
C1366 C 0.98224 0.73842 0.99889 0.0
C1367 C 0.00309 0.75816 0.00234 0.0
C1368 C 0.01053 0.7743 0.98127 0.0
C1369 C 0.03008 0.79297 0.98473 0.0
C1370 C 0.04252 0.79553 0.0091 0.0
C1371 C 0.03548 0.77936 0.03004 0.0
C1372 C 0.0159 0.76068 0.0267 0.0
C1373 C 0.98905 0.62623 0.97244 0.0
C1374 C 1.00044 0.61476 0.99473 0.0
C1375 C 0.97878 0.65117 0.97372 0.0
C1376 C 0.9799 0.66527 0.99726 0.0
C1377 C 0.99117 0.65379 0.01968 0.0
C1378 C 0.00131 0.62863 0.01844 0.0
C1379 C 0.97054 0.69246 0.99765 0.0
C1380 C 0.98865 0.71227 0.00284 0.0
C1381 C 0.94487 0.69902 0.98974 0.0
C1382 C 0.92458 0.67883 0.98532 0.0
C1383 C 0.91991 0.65969 0.0045 0.0
C1384 C 0.90166 0.64001 0.99992 0.0
C1385 C 0.88743 0.6396 0.97644 0.0
C1386 C 0.89155 0.65881 0.95744 0.0
C1387 C 0.91006 0.67836 0.9618 0.0
H1388 H 0.87324 0.62438 0.97295 0.0
H1389 H 0.05766 0.80999 0.01173 0.0
H1390 H 0.42215 0.73385 0.09333 0.0
H1391 H 0.43303 0.77907 0.08402 0.0
H1392 H 0.49657 0.75489 0.03462 0.0
H1393 H 0.48494 0.70958 0.04225 0.0
H1394 H 0.50678 0.79152 0.08164 0.0
H1395 H 0.45651 0.77928 0.00234 0.0
H1396 H 0.41772 0.76734 0.97614 0.0
H1397 H 0.37227 0.82401 0.01714 0.0
H1398 H 0.41074 0.836 0.04388 0.0
H1399 H 0.55605 0.91171 0.04292 0.0
H1400 H 0.53986 0.86708 0.04183 0.0
H1401 H 0.46194 0.89421 0.05835 0.0
H1402 H 0.478 0.93903 0.05757 0.0
H1403 H 0.45716 0.85569 0.02889 0.0
H1404 H 0.50571 0.86843 0.10764 0.0
H1405 H 0.54319 0.88103 0.13543 0.0
H1406 H 0.59073 0.82374 0.09788 0.0
H1407 H 0.5536 0.81102 0.06961 0.0
C1408 C 0.43799 0.73797 0.07987 0.0
C1409 C 0.45274 0.7178 0.06873 0.0
C1410 C 0.44424 0.76391 0.07471 0.0
C1411 C 0.46555 0.77021 0.05864 0.0
C1412 C 0.48004 0.75033 0.0471 0.0
C1413 C 0.4735 0.72441 0.05178 0.0
C1414 C 0.47407 0.79748 0.05576 0.0
C1415 C 0.49631 0.8055 0.06966 0.0
C1416 C 0.45968 0.81578 0.04102 0.0
C1417 C 0.4364 0.80822 0.02541 0.0
C1418 C 0.43815 0.78891 0.00605 0.0
C1419 C 0.41625 0.78222 0.99102 0.0
C1420 C 0.39251 0.79483 0.99505 0.0
C1421 C 0.39065 0.8142 0.01409 0.0
C1422 C 0.4125 0.82095 0.02919 0.0
C1423 C 0.53543 0.90805 0.04598 0.0
C1424 C 0.51824 0.9286 0.05052 0.0
C1425 C 0.5262 0.88257 0.04562 0.0
C1426 C 0.49981 0.87708 0.05103 0.0
C1427 C 0.48242 0.89781 0.05441 0.0
C1428 C 0.49156 0.9234 0.05397 0.0
C1429 C 0.49067 0.84977 0.05393 0.0
C1430 C 0.46803 0.84174 0.04049 0.0
C1431 C 0.50459 0.83143 0.06931 0.0
C1432 C 0.52693 0.83894 0.08636 0.0
C1433 C 0.5242 0.85863 0.1052 0.0
C1434 C 0.54538 0.86578 0.12105 0.0
C1435 C 0.56934 0.85323 0.11838 0.0
C1436 C 0.57216 0.83346 0.0999 0.0
C1437 C 0.55105 0.82625 0.08398 0.0
H1438 H 0.58571 0.8588 0.13067 0.0
H1439 H 0.37559 0.78966 0.98336 0.0
H1440 H 0.14463 0.30136 0.53976 0.0
H1441 H 0.12998 0.26122 0.51884 0.0
H1442 H 0.05221 0.27363 0.54842 0.0
H1443 H 0.06676 0.31323 0.56998 0.0
H1444 H 0.1137 0.22116 0.54765 0.0
H1445 H 0.00804 0.24434 0.50951 0.0
H1446 H 0.98612 0.27833 0.48348 0.0
H1447 H 0.05943 0.30018 0.4489 0.0
H1448 H 0.08174 0.26612 0.47442 0.0
H1449 H 0.02763 0.12245 0.57578 0.0
H1450 H 0.04859 0.16443 0.56863 0.0
H1451 H 0.04463 0.15295 0.48462 0.0
H1452 H 0.02223 0.11117 0.49196 0.0
H1453 H 0.03215 0.20263 0.49805 0.0
H1454 H 0.10244 0.14639 0.51341 0.0
H1455 H 0.12687 0.11095 0.5348 0.0
H1456 H 0.12972 0.15422 0.60678 0.0
H1457 H 0.10498 0.18969 0.58588 0.0
C1458 C 0.12432 0.29573 0.54154 0.0
C1459 C 0.107 0.31034 0.55699 0.0
C1460 C 0.11594 0.27289 0.52937 0.0
C1461 C 0.09002 0.26441 0.53206 0.0
C1462 C 0.07223 0.27997 0.54573 0.0
C1463 C 0.08062 0.30268 0.55809 0.0
C1464 C 0.08245 0.23761 0.52465 0.0
C1465 C 0.09607 0.21711 0.53648 0.0
C1466 C 0.05996 0.23218 0.50937 0.0
C1467 C 0.04659 0.25277 0.49407 0.0
C1468 C 0.01947 0.25632 0.49628 0.0
C1469 C 0.00698 0.27562 0.48162 0.0
C1470 C 0.02138 0.29144 0.46459 0.0
C1471 C 0.04831 0.28798 0.46217 0.0
C1472 C 0.0609 0.26872 0.47678 0.0
C1473 C 0.03114 0.12892 0.55579 0.0
C1474 C 0.02416 0.1133 0.53435 0.0
C1475 C 0.04328 0.15281 0.55171 0.0
C1476 C 0.04875 0.16155 0.52611 0.0
C1477 C 0.04094 0.1464 0.50455 0.0
C1478 C 0.02863 0.12242 0.5087 0.0
C1479 C 0.06254 0.18664 0.52247 0.0
C1480 C 0.0501 0.2067 0.50865 0.0
C1481 C 0.08656 0.19165 0.53533 0.0
C1482 C 0.10177 0.1706 0.54806 0.0
C1483 C 0.10817 0.14822 0.53382 0.0
C1484 C 0.12207 0.12816 0.54586 0.0
C1485 C 0.12981 0.13032 0.57214 0.0
C1486 C 0.12372 0.15258 0.58641 0.0
C1487 C 0.1098 0.17269 0.57446 0.0
H1488 H 0.14056 0.11477 0.58145 0.0
H1489 H 0.01167 0.30635 0.45325 0.0
H1490 H 0.56174 0.22992 0.45996 0.0
H1491 H 0.54278 0.26718 0.48202 0.0
H1492 H 0.61875 0.28901 0.51152 0.0
H1493 H 0.63785 0.25105 0.49034 0.0
H1494 H 0.5775 0.30212 0.54624 0.0
H1495 H 0.60149 0.31255 0.45506 0.0
H1496 H 0.60173 0.30021 0.40823 0.0
H1497 H 0.5183 0.30777 0.40497 0.0
H1498 H 0.51754 0.31973 0.45195 0.0
H1499 H 0.55863 0.4444 0.52275 0.0
H1500 H 0.57599 0.40035 0.52761 0.0
H1501 H 0.49819 0.36909 0.5197 0.0
H1502 H 0.48067 0.41285 0.51581 0.0
H1503 H 0.54097 0.36026 0.47764 0.0
H1504 H 0.51868 0.35661 0.56881 0.0
H1505 H 0.51921 0.36661 0.61609 0.0
H1506 H 0.59996 0.34535 0.62069 0.0
H1507 H 0.60052 0.33686 0.57304 0.0
C1508 C 0.57433 0.24201 0.47194 0.0
C1509 C 0.60143 0.23774 0.47297 0.0
C1510 C 0.56345 0.26341 0.48444 0.0
C1511 C 0.57947 0.28109 0.49793 0.0
C1512 C 0.60609 0.27565 0.50107 0.0
C1513 C 0.617 0.25413 0.48868 0.0
C1514 C 0.56925 0.30692 0.505 0.0
C1515 C 0.56973 0.31507 0.53134 0.0
C1516 C 0.55899 0.32355 0.48542 0.0
C1517 C 0.55944 0.31678 0.45707 0.0
C1518 C 0.58319 0.3114 0.4444 0.0
C1519 C 0.58341 0.30449 0.41783 0.0
C1520 C 0.56003 0.30314 0.40365 0.0
C1521 C 0.53639 0.30878 0.41599 0.0
C1522 C 0.53605 0.31564 0.44259 0.0
C1523 C 0.54515 0.42818 0.52328 0.0
C1524 C 0.51831 0.43199 0.519 0.0
C1525 C 0.55508 0.40307 0.52606 0.0
C1526 C 0.53828 0.38158 0.52426 0.0
C1527 C 0.51136 0.38549 0.52154 0.0
C1528 C 0.50143 0.41046 0.5191 0.0
C1529 C 0.5489 0.35559 0.51901 0.0
C1530 C 0.54871 0.34747 0.49273 0.0
C1531 C 0.55956 0.33931 0.53872 0.0
C1532 C 0.55976 0.34656 0.56703 0.0
C1533 C 0.53683 0.35491 0.57959 0.0
C1534 C 0.53692 0.36024 0.60655 0.0
C1535 C 0.55967 0.35678 0.62133 0.0
C1536 C 0.58246 0.34833 0.60914 0.0
C1537 C 0.58262 0.34342 0.58212 0.0
H1538 H 0.55959 0.36036 0.64228 0.0
H1539 H 0.56025 0.29779 0.38308 0.0
loop_
_geom_bond_atom_site_label_1
_geom_bond_atom_site_label_2
_geom_bond_distance
_geom_bond_site_symmetry_2
_ccdc_geom_bond_type
P0 O11 1.490 . S
P0 C14 1.812 . S
P0 C20 1.803 . S
P0 C26 1.819 . S
H1 C15 0.941 . S
H2 C16 0.939 . S
H3 C18 0.940 . S
H4 C19 0.940 . S
H5 C21 0.939 . S
H6 C22 0.942 . S
H7 C24 0.940 . S
H8 C25 0.939 . S
H9 C27 0.941 . S
H10 C31 0.939 . S
O11 P0 1.490 . S
H12 C28 0.939 . S
H13 C30 0.940 . S
C14 P0 1.812 . S
C14 C15 1.389 . S
C14 C19 1.391 . S
C15 H1 0.941 . S
C15 C14 1.389 . S
C15 C16 1.397 . S
C16 H2 0.939 . S
C16 C15 1.397 . S
C16 C17 1.378 . S
C17 C16 1.378 . S
C17 C18 1.378 . S
C18 H3 0.940 . S
C18 C17 1.378 . S
C18 C19 1.396 . S
C19 H4 0.940 . S
C19 C14 1.391 . S
C19 C18 1.396 . S
C20 P0 1.803 . S
C20 C21 1.378 . S
C20 C25 1.400 . S
C21 H5 0.939 . S
C21 C20 1.378 . S
C21 C22 1.361 . S
C22 H6 0.942 . S
C22 C21 1.361 . S
C22 C23 1.369 . S
C23 C22 1.369 . S
C23 C24 1.404 . S
C24 H7 0.940 . S
C24 C23 1.404 . S
C24 C25 1.389 . S
C25 H8 0.939 . S
C25 C20 1.400 . S
C25 C24 1.389 . S
C26 P0 1.819 . S
C26 C27 1.391 . S
C26 C31 1.391 . S
C27 H9 0.941 . S
C27 C26 1.391 . S
C27 C28 1.396 . S
C28 H12 0.939 . S
C28 C27 1.396 . S
C28 C29 1.397 . S
C29 C28 1.397 . S
C29 C30 1.385 . S
C30 H13 0.940 . S
C30 C29 1.385 . S
C30 C31 1.388 . S
C31 H10 0.939 . S
C31 C26 1.391 . S
C31 C30 1.388 . S
P32 O43 1.490 . S
P32 C46 1.812 . S
P32 C52 1.803 . S
P32 C58 1.819 . S
H33 C47 0.941 . S
H34 C48 0.939 . S
H35 C50 0.940 . S
H36 C51 0.940 . S
H37 C53 0.939 . S
H38 C54 0.942 . S
H39 C56 0.940 . S
H40 C57 0.939 . S
H41 C59 0.941 . S
H42 C63 0.939 . S
O43 P32 1.490 . S
H44 C60 0.939 . S
H45 C62 0.940 . S
C46 P32 1.812 . S
C46 C47 1.389 . S
C46 C51 1.391 . S
C47 H33 0.941 . S
C47 C46 1.389 . S
C47 C48 1.397 . S
C48 H34 0.939 . S
C48 C47 1.397 . S
C48 C49 1.378 . S
C49 C48 1.378 . S
C49 C50 1.378 . S
C50 H35 0.940 . S
C50 C49 1.378 . S
C50 C51 1.396 . S
C51 H36 0.940 . S
C51 C46 1.391 . S
C51 C50 1.396 . S
C52 P32 1.803 . S
C52 C53 1.378 . S
C52 C57 1.400 . S
C53 H37 0.939 . S
C53 C52 1.378 . S
C53 C54 1.361 . S
C54 H38 0.942 . S
C54 C53 1.361 . S
C54 C55 1.369 . S
C55 C54 1.369 . S
C55 C56 1.404 . S
C56 H39 0.940 . S
C56 C55 1.404 . S
C56 C57 1.389 . S
C57 H40 0.939 . S
C57 C52 1.400 . S
C57 C56 1.389 . S
C58 P32 1.819 . S
C58 C59 1.391 . S
C58 C63 1.391 . S
C59 H41 0.941 . S
C59 C58 1.391 . S
C59 C60 1.396 . S
C60 H44 0.939 . S
C60 C59 1.396 . S
C60 C61 1.397 . S
C61 C60 1.397 . S
C61 C62 1.385 . S
C62 H45 0.940 . S
C62 C61 1.385 . S
C62 C63 1.388 . S
C63 H42 0.939 . S
C63 C58 1.391 . S
C63 C62 1.388 . S
P64 O75 1.490 . S
P64 C78 1.812 . S
P64 C84 1.803 . S
P64 C90 1.819 . S
H65 C79 0.941 . S
H66 C80 0.939 . S
H67 C82 0.940 . S
H68 C83 0.940 . S
H69 C85 0.939 . S
H70 C86 0.942 . S
H71 C88 0.940 . S
H72 C89 0.939 . S
H73 C91 0.941 . S
H74 C95 0.939 . S
O75 P64 1.490 . S
H76 C92 0.939 . S
H77 C94 0.940 . S
C78 P64 1.812 . S
C78 C79 1.389 . S
C78 C83 1.391 . S
C79 H65 0.941 . S
C79 C78 1.389 . S
C79 C80 1.397 . S
C80 H66 0.939 . S
C80 C79 1.397 . S
C80 C81 1.378 . S
C81 C80 1.378 . S
C81 C82 1.378 . S
C82 H67 0.940 . S
C82 C81 1.378 . S
C82 C83 1.396 . S
C83 H68 0.940 . S
C83 C78 1.391 . S
C83 C82 1.396 . S
C84 P64 1.803 . S
C84 C85 1.378 . S
C84 C89 1.400 . S
C85 H69 0.939 . S
C85 C84 1.378 . S
C85 C86 1.361 . S
C86 H70 0.942 . S
C86 C85 1.361 . S
C86 C87 1.369 . S
C87 C86 1.369 . S
C87 C88 1.404 . S
C88 H71 0.940 . S
C88 C87 1.404 . S
C88 C89 1.389 . S
C89 H72 0.939 . S
C89 C84 1.400 . S
C89 C88 1.389 . S
C90 P64 1.819 . S
C90 C91 1.391 . S
C90 C95 1.391 . S
C91 H73 0.941 . S
C91 C90 1.391 . S
C91 C92 1.396 . S
C92 H76 0.939 . S
C92 C91 1.396 . S
C92 C93 1.397 . S
C93 C92 1.397 . S
C93 C94 1.385 . S
C94 H77 0.940 . S
C94 C93 1.385 . S
C94 C95 1.388 . S
C95 H74 0.939 . S
C95 C90 1.391 . S
C95 C94 1.388 . S
P96 O107 1.490 . S
P96 C110 1.812 . S
P96 C116 1.803 . S
P96 C122 1.819 . S
H97 C111 0.941 . S
H98 C112 0.939 . S
H99 C114 0.940 . S
H100 C115 0.940 . S
H101 C117 0.939 . S
H102 C118 0.942 . S
H103 C120 0.940 . S
H104 C121 0.939 . S
H105 C123 0.941 . S
H106 C127 0.939 . S
O107 P96 1.490 . S
H108 C124 0.939 . S
H109 C126 0.940 . S
C110 P96 1.812 . S
C110 C111 1.389 . S
C110 C115 1.391 . S
C111 H97 0.941 . S
C111 C110 1.389 . S
C111 C112 1.397 . S
C112 H98 0.939 . S
C112 C111 1.397 . S
C112 C113 1.378 . S
C113 C112 1.378 . S
C113 C114 1.378 . S
C114 H99 0.940 . S
C114 C113 1.378 . S
C114 C115 1.396 . S
C115 H100 0.940 . S
C115 C110 1.391 . S
C115 C114 1.396 . S
C116 P96 1.803 . S
C116 C117 1.378 . S
C116 C121 1.400 . S
C117 H101 0.939 . S
C117 C116 1.378 . S
C117 C118 1.361 . S
C118 H102 0.942 . S
C118 C117 1.361 . S
C118 C119 1.369 . S
C119 C118 1.369 . S
C119 C120 1.404 . S
C120 H103 0.940 . S
C120 C119 1.404 . S
C120 C121 1.389 . S
C121 H104 0.939 . S
C121 C116 1.400 . S
C121 C120 1.389 . S
C122 P96 1.819 . S
C122 C123 1.391 . S
C122 C127 1.391 . S
C123 H105 0.941 . S
C123 C122 1.391 . S
C123 C124 1.396 . S
C124 H108 0.939 . S
C124 C123 1.396 . S
C124 C125 1.397 . S
C125 C124 1.397 . S
C125 C126 1.385 . S
C126 H109 0.940 . S
C126 C125 1.385 . S
C126 C127 1.388 . S
C127 H106 0.939 . S
C127 C122 1.391 . S
C127 C126 1.388 . S
P128 O139 1.490 . S
P128 C142 1.812 . S
P128 C148 1.803 . S
P128 C154 1.819 . S
H129 C143 0.941 1_554 S
H130 C144 0.939 1_554 S
H131 C146 0.940 . S
H132 C147 0.940 . S
H133 C149 0.939 . S
H134 C150 0.942 1_455 S
H135 C152 0.940 . S
H136 C153 0.939 . S
H137 C155 0.941 . S
H138 C159 0.939 . S
O139 P128 1.490 . S
H140 C156 0.939 1_545 S
H141 C158 0.940 . S
C142 P128 1.812 . S
C142 C143 1.389 . S
C142 C147 1.391 . S
C143 H129 0.941 1_556 S
C143 C142 1.389 . S
C143 C144 1.397 . S
C144 H130 0.939 1_556 S
C144 C143 1.397 . S
C144 C145 1.378 . S
C145 C144 1.378 . S
C145 C146 1.378 . S
C146 H131 0.940 . S
C146 C145 1.378 . S
C146 C147 1.396 . S
C147 H132 0.940 . S
C147 C142 1.391 . S
C147 C146 1.396 . S
C148 P128 1.803 . S
C148 C149 1.378 . S
C148 C153 1.400 . S
C149 H133 0.939 . S
C149 C148 1.378 . S
C149 C150 1.361 . S
C150 H134 0.942 1_655 S
C150 C149 1.361 . S
C150 C151 1.369 . S
C151 C150 1.369 . S
C151 C152 1.404 . S
C152 H135 0.940 . S
C152 C151 1.404 . S
C152 C153 1.389 . S
C153 H136 0.939 . S
C153 C148 1.400 . S
C153 C152 1.389 . S
C154 P128 1.819 . S
C154 C155 1.391 . S
C154 C159 1.391 . S
C155 H137 0.941 . S
C155 C154 1.391 . S
C155 C156 1.396 . S
C156 H140 0.939 1_565 S
C156 C155 1.396 . S
C156 C157 1.397 . S
C157 C156 1.397 . S
C157 C158 1.385 . S
C158 H141 0.940 . S
C158 C157 1.385 . S
C158 C159 1.388 . S
C159 H138 0.939 . S
C159 C154 1.391 . S
C159 C158 1.388 . S
P160 O171 1.490 . S
P160 C174 1.812 . S
P160 C180 1.803 . S
P160 C186 1.819 . S
H161 C175 0.941 . S
H162 C176 0.939 . S
H163 C178 0.940 . S
H164 C179 0.940 . S
H165 C181 0.939 . S
H166 C182 0.942 . S
H167 C184 0.940 . S
H168 C185 0.939 . S
H169 C187 0.941 . S
H170 C191 0.939 . S
O171 P160 1.490 . S
H172 C188 0.939 . S
H173 C190 0.940 . S
C174 P160 1.812 . S
C174 C175 1.389 . S
C174 C179 1.391 . S
C175 H161 0.941 . S
C175 C174 1.389 . S
C175 C176 1.397 . S
C176 H162 0.939 . S
C176 C175 1.397 . S
C176 C177 1.378 . S
C177 C176 1.378 . S
C177 C178 1.378 . S
C178 H163 0.940 . S
C178 C177 1.378 . S
C178 C179 1.396 . S
C179 H164 0.940 . S
C179 C174 1.391 . S
C179 C178 1.396 . S
C180 P160 1.803 . S
C180 C181 1.378 . S
C180 C185 1.400 . S
C181 H165 0.939 . S
C181 C180 1.378 . S
C181 C182 1.361 . S
C182 H166 0.942 . S
C182 C181 1.361 . S
C182 C183 1.369 . S
C183 C182 1.369 . S
C183 C184 1.404 . S
C184 H167 0.940 . S
C184 C183 1.404 . S
C184 C185 1.389 . S
C185 H168 0.939 . S
C185 C180 1.400 . S
C185 C184 1.389 . S
C186 P160 1.819 . S
C186 C187 1.391 . S
C186 C191 1.391 . S
C187 H169 0.941 . S
C187 C186 1.391 . S
C187 C188 1.396 . S
C188 H172 0.939 . S
C188 C187 1.396 . S
C188 C189 1.397 . S
C189 C188 1.397 . S
C189 C190 1.385 . S
C190 H173 0.940 . S
C190 C189 1.385 . S
C190 C191 1.388 . S
C191 H170 0.939 . S
C191 C186 1.391 . S
C191 C190 1.388 . S
P192 O203 1.490 . S
P192 C206 1.812 . S
P192 C212 1.803 . S
P192 C218 1.819 . S
H193 C207 0.941 . S
H194 C208 0.939 . S
H195 C210 0.940 . S
H196 C211 0.940 . S
H197 C213 0.939 . S
H198 C214 0.942 . S
H199 C216 0.940 . S
H200 C217 0.939 . S
H201 C219 0.941 . S
H202 C223 0.939 . S
O203 P192 1.490 . S
H204 C220 0.939 . S
H205 C222 0.940 . S
C206 P192 1.812 . S
C206 C207 1.389 . S
C206 C211 1.391 . S
C207 H193 0.941 . S
C207 C206 1.389 . S
C207 C208 1.397 . S
C208 H194 0.939 . S
C208 C207 1.397 . S
C208 C209 1.378 . S
C209 C208 1.378 . S
C209 C210 1.378 . S
C210 H195 0.940 . S
C210 C209 1.378 . S
C210 C211 1.396 . S
C211 H196 0.940 . S
C211 C206 1.391 . S
C211 C210 1.396 . S
C212 P192 1.803 . S
C212 C213 1.378 . S
C212 C217 1.400 . S
C213 H197 0.939 . S
C213 C212 1.378 . S
C213 C214 1.361 . S
C214 H198 0.942 . S
C214 C213 1.361 . S
C214 C215 1.369 . S
C215 C214 1.369 . S
C215 C216 1.404 . S
C216 H199 0.940 . S
C216 C215 1.404 . S
C216 C217 1.389 . S
C217 H200 0.939 . S
C217 C212 1.400 . S
C217 C216 1.389 . S
C218 P192 1.819 . S
C218 C219 1.391 . S
C218 C223 1.391 . S
C219 H201 0.941 . S
C219 C218 1.391 . S
C219 C220 1.396 . S
C220 H204 0.939 . S
C220 C219 1.396 . S
C220 C221 1.397 . S
C221 C220 1.397 . S
C221 C222 1.385 . S
C222 H205 0.940 . S
C222 C221 1.385 . S
C222 C223 1.388 . S
C223 H202 0.939 . S
C223 C218 1.391 . S
C223 C222 1.388 . S
P224 O235 1.490 . S
P224 C238 1.812 . S
P224 C244 1.803 . S
P224 C250 1.819 . S
H225 C239 0.941 . S
H226 C240 0.939 . S
H227 C242 0.940 . S
H228 C243 0.940 . S
H229 C245 0.939 . S
H230 C246 0.942 . S
H231 C248 0.940 . S
H232 C249 0.939 . S
H233 C251 0.941 . S
H234 C255 0.939 . S
O235 P224 1.490 . S
H236 C252 0.939 . S
H237 C254 0.940 . S
C238 P224 1.812 . S
C238 C239 1.389 . S
C238 C243 1.391 . S
C239 H225 0.941 . S
C239 C238 1.389 . S
C239 C240 1.397 . S
C240 H226 0.939 . S
C240 C239 1.397 . S
C240 C241 1.378 . S
C241 C240 1.378 . S
C241 C242 1.378 . S
C242 H227 0.940 . S
C242 C241 1.378 . S
C242 C243 1.396 . S
C243 H228 0.940 . S
C243 C238 1.391 . S
C243 C242 1.396 . S
C244 P224 1.803 . S
C244 C245 1.378 . S
C244 C249 1.400 . S
C245 H229 0.939 . S
C245 C244 1.378 . S
C245 C246 1.361 . S
C246 H230 0.942 . S
C246 C245 1.361 . S
C246 C247 1.369 . S
C247 C246 1.369 . S
C247 C248 1.404 . S
C248 H231 0.940 . S
C248 C247 1.404 . S
C248 C249 1.389 . S
C249 H232 0.939 . S
C249 C244 1.400 . S
C249 C248 1.389 . S
C250 P224 1.819 . S
C250 C251 1.391 . S
C250 C255 1.391 . S
C251 H233 0.941 . S
C251 C250 1.391 . S
C251 C252 1.396 . S
C252 H236 0.939 . S
C252 C251 1.396 . S
C252 C253 1.397 . S
C253 C252 1.397 . S
C253 C254 1.385 . S
C254 H237 0.940 . S
C254 C253 1.385 . S
C254 C255 1.388 . S
C255 H234 0.939 . S
C255 C250 1.391 . S
C255 C254 1.388 . S
Zn256 O262 1.920 . S
Zn256 O268 1.898 . S
Zn256 O271 1.905 . S
Zn257 O265 1.905 1_565 S
Zn257 O266 1.898 . S
Zn257 O274 1.920 . S
Zn258 O261 2.080 1_455 S
Zn258 O264 2.114 . S
Zn258 O267 2.120 1_445 S
Zn258 O269 2.120 . S
Zn258 O270 2.114 1_455 S
Zn258 O273 2.080 . S
C259 O264 1.166 . S
C259 O265 1.182 . S
C260 O266 1.167 1_655 S
C260 O267 1.299 . S
O261 Zn258 2.080 1_655 S
O261 C275 1.305 . S
O262 Zn256 1.920 . S
O262 C275 1.234 . S
C263 O268 1.167 1_455 S
C263 O269 1.299 . S
O264 Zn258 2.114 . S
O264 C259 1.166 . S
O265 Zn257 1.905 1_545 S
O265 C259 1.182 . S
O266 Zn257 1.898 . S
O266 C260 1.167 1_455 S
O267 Zn258 2.120 1_665 S
O267 C260 1.299 . S
O268 Zn256 1.898 . S
O268 C263 1.167 1_655 S
O269 Zn258 2.120 . S
O269 C263 1.299 . S
O270 Zn258 2.114 1_655 S
O270 C272 1.166 . S
O271 Zn256 1.905 . S
O271 C272 1.182 . S
C272 O270 1.166 . S
C272 O271 1.182 . S
O273 Zn258 2.080 . S
O273 C276 1.305 . S
O274 Zn257 1.920 . S
O274 C276 1.234 1_565 S
C275 O261 1.305 . S
C275 O262 1.234 . S
C276 O273 1.305 . S
C276 O274 1.234 1_545 S
Zn277 O283 1.920 1_556 S
Zn277 O289 1.898 . S
Zn277 O292 1.905 . S
Zn278 O286 1.905 . S
Zn278 O287 1.898 . S
Zn278 O295 1.920 . S
Zn279 O282 2.080 . S
Zn279 O285 2.114 1_545 S
Zn279 O288 2.120 1_545 S
Zn279 O290 2.120 . S
Zn279 O291 2.114 1_554 S
Zn279 O294 2.080 . S
C280 O285 1.166 . S
C280 O286 1.182 . S
C281 O287 1.167 . S
C281 O288 1.299 . S
O282 Zn279 2.080 . S
O282 C296 1.305 . S
O283 Zn277 1.920 1_554 S
O283 C296 1.234 . S
C284 O289 1.176 . S
C284 O290 1.285 1_556 S
O285 Zn279 2.114 1_565 S
O285 C280 1.166 . S
O286 Zn278 1.905 . S
O286 C280 1.182 . S
O287 Zn278 1.898 . S
O287 C281 1.167 . S
O288 Zn279 2.120 1_565 S
O288 C281 1.299 . S
O289 Zn277 1.898 . S
O289 C284 1.176 . S
O290 Zn279 2.120 . S
O290 C284 1.285 1_554 S
O291 Zn279 2.114 1_556 S
O291 C293 1.166 . S
O292 Zn277 1.905 . S
O292 C293 1.182 . S
C293 O291 1.166 . S
C293 O292 1.182 . S
O294 Zn279 2.080 . S
O294 C297 1.305 . S
O295 Zn278 1.920 . S
O295 C297 1.234 1_565 S
C296 O282 1.305 . S
C296 O283 1.234 . S
C297 O294 1.305 . S
C297 O295 1.234 1_545 S
Zn298 O304 1.920 . S
Zn298 O310 1.898 . S
Zn298 O313 1.905 . S
Zn299 O307 1.905 . S
Zn299 O308 1.898 . S
Zn299 O316 1.920 . S
Zn300 O303 2.080 . S
Zn300 O306 2.114 . S
Zn300 O309 2.120 . S
Zn300 O311 2.120 . S
Zn300 O312 2.114 . S
Zn300 O315 2.080 . S
C301 O306 1.166 . S
C301 O307 1.182 . S
C302 O308 1.167 . S
C302 O309 1.299 . S
O303 Zn300 2.080 . S
O303 C317 1.305 . S
O304 Zn298 1.920 . S
O304 C317 1.234 . S
C305 O310 1.167 . S
C305 O311 1.299 . S
O306 Zn300 2.114 . S
O306 C301 1.166 . S
O307 Zn299 1.905 . S
O307 C301 1.182 . S
O308 Zn299 1.898 . S
O308 C302 1.167 . S
O309 Zn300 2.120 . S
O309 C302 1.299 . S
O310 Zn298 1.898 . S
O310 C305 1.167 . S
O311 Zn300 2.120 . S
O311 C305 1.299 . S
O312 Zn300 2.114 . S
O312 C314 1.166 . S
O313 Zn298 1.905 . S
O313 C314 1.182 . S
C314 O312 1.166 . S
C314 O313 1.182 . S
O315 Zn300 2.080 . S
O315 C318 1.305 . S
O316 Zn299 1.920 . S
O316 C318 1.234 . S
C317 O303 1.305 . S
C317 O304 1.234 . S
C318 O315 1.305 . S
C318 O316 1.234 . S
Zn319 O325 1.920 . S
Zn319 O331 1.898 . S
Zn319 O334 1.905 . S
Zn320 O328 1.905 1_655 S
Zn320 O329 1.898 . S
Zn320 O337 1.920 . S
Zn321 O324 2.080 1_554 S
Zn321 O327 2.114 . S
Zn321 O330 2.120 1_454 S
Zn321 O332 2.120 . S
Zn321 O333 2.114 1_554 S
Zn321 O336 2.080 . S
C322 O327 1.166 . S
C322 O328 1.182 . S
C323 O329 1.167 1_556 S
C323 O330 1.299 . S
O324 Zn321 2.080 1_556 S
O324 C338 1.305 . S
O325 Zn319 1.920 . S
O325 C338 1.234 . S
C326 O331 1.167 1_554 S
C326 O332 1.299 . S
O327 Zn321 2.114 . S
O327 C322 1.166 . S
O328 Zn320 1.905 1_455 S
O328 C322 1.182 . S
O329 Zn320 1.898 . S
O329 C323 1.167 1_554 S
O330 Zn321 2.120 1_656 S
O330 C323 1.299 . S
O331 Zn319 1.898 . S
O331 C326 1.167 1_556 S
O332 Zn321 2.120 . S
O332 C326 1.299 . S
O333 Zn321 2.114 1_556 S
O333 C335 1.166 . S
O334 Zn319 1.905 . S
O334 C335 1.182 . S
C335 O333 1.166 . S
C335 O334 1.182 . S
O336 Zn321 2.080 . S
O336 C339 1.305 1_455 S
O337 Zn320 1.920 . S
O337 C339 1.234 . S
C338 O324 1.305 . S
C338 O325 1.234 . S
C339 O336 1.305 1_655 S
C339 O337 1.234 . S
H340 C358 0.951 . S
H341 C360 0.951 . S
H342 C362 0.950 . S
H343 C363 0.950 . S
H344 C365 0.950 . S
H345 C368 0.950 . S
H346 C369 0.950 . S
H347 C371 0.950 . S
H348 C372 0.950 . S
H349 C373 0.951 . S
H350 C375 0.951 . S
H351 C377 0.950 . S
H352 C378 0.950 . S
H353 C380 0.950 . S
H354 C383 0.950 . S
H355 C384 0.941 1_565 S
H356 C386 0.950 . S
H357 C387 0.950 . S
C358 H340 0.951 . S
C358 C359 1.366 . S
C358 C360 1.388 . S
C359 C358 1.366 . S
C359 C363 1.385 . S
C360 H341 0.951 . S
C360 C358 1.388 . S
C360 C361 1.366 . S
C361 C360 1.366 . S
C361 C362 1.414 . S
C361 C364 1.499 . S
C362 H342 0.950 . S
C362 C361 1.414 . S
C362 C363 1.374 . S
C363 H343 0.950 . S
C363 C359 1.385 . S
C363 C362 1.374 . S
C364 C361 1.499 . S
C364 C365 1.373 . S
C364 C366 1.389 . S
C365 H344 0.950 . S
C365 C364 1.373 . S
C365 C381 1.377 . S
C366 C364 1.389 . S
C366 C367 1.524 . S
C366 C380 1.377 . S
C367 C366 1.524 . S
C367 C368 1.397 . S
C367 C372 1.363 . S
C368 H345 0.950 . S
C368 C367 1.397 . S
C368 C369 1.334 . S
C369 H346 0.950 . S
C369 C368 1.334 . S
C369 C370 1.287 . S
C370 C369 1.287 . S
C370 C371 1.524 . S
C370 H389 0.913 . S
C371 H347 0.950 . S
C371 C370 1.524 . S
C371 C372 1.415 . S
C372 H348 0.950 . S
C372 C367 1.363 . S
C372 C371 1.415 . S
C373 H349 0.951 . S
C373 C374 1.366 . S
C373 C375 1.388 . S
C374 C373 1.366 . S
C374 C378 1.385 . S
C375 H350 0.951 . S
C375 C373 1.388 . S
C375 C376 1.366 . S
C376 C375 1.366 . S
C376 C377 1.414 . S
C376 C379 1.499 . S
C377 H351 0.950 . S
C377 C376 1.414 . S
C377 C378 1.374 . S
C378 H352 0.950 . S
C378 C374 1.385 . S
C378 C377 1.374 . S
C379 C376 1.499 . S
C379 C380 1.373 . S
C379 C381 1.389 . S
C380 H353 0.950 . S
C380 C366 1.377 . S
C380 C379 1.373 . S
C381 C365 1.377 . S
C381 C379 1.389 . S
C381 C382 1.524 . S
C382 C381 1.524 . S
C382 C383 1.397 . S
C382 C387 1.363 . S
C383 H354 0.950 . S
C383 C382 1.397 . S
C383 C384 1.334 . S
C384 H355 0.941 1_545 S
C384 C383 1.334 . S
C384 C385 1.287 . S
C385 C384 1.287 . S
C385 C386 1.524 . S
C385 H388 0.999 1_545 S
C386 H356 0.950 . S
C386 C385 1.524 . S
C386 C387 1.415 . S
C387 H357 0.950 . S
C387 C382 1.363 . S
C387 C386 1.415 . S
H388 C385 0.999 1_565 S
H389 C370 0.913 . S
H390 C408 0.951 . S
H391 C410 0.951 . S
H392 C412 0.950 . S
H393 C413 0.950 . S
H394 C415 0.950 . S
H395 C418 0.950 . S
H396 C419 0.950 . S
H397 C421 0.950 . S
H398 C422 0.950 . S
H399 C423 0.951 . S
H400 C425 0.951 . S
H401 C427 0.950 . S
H402 C428 0.950 . S
H403 C430 0.950 . S
H404 C433 0.950 . S
H405 C434 0.950 . S
H406 C436 0.950 . S
H407 C437 0.950 . S
C408 H390 0.951 . S
C408 C409 1.366 . S
C408 C410 1.388 . S
C409 C408 1.366 . S
C409 C413 1.385 . S
C410 H391 0.951 . S
C410 C408 1.388 . S
C410 C411 1.366 . S
C411 C410 1.366 . S
C411 C412 1.414 . S
C411 C414 1.499 . S
C412 H392 0.950 . S
C412 C411 1.414 . S
C412 C413 1.374 . S
C413 H393 0.950 . S
C413 C409 1.385 . S
C413 C412 1.374 . S
C414 C411 1.499 . S
C414 C415 1.373 . S
C414 C416 1.389 . S
C415 H394 0.950 . S
C415 C414 1.373 . S
C415 C431 1.377 . S
C416 C414 1.389 . S
C416 C417 1.524 . S
C416 C430 1.377 . S
C417 C416 1.524 . S
C417 C418 1.397 . S
C417 C422 1.363 . S
C418 H395 0.950 . S
C418 C417 1.397 . S
C418 C419 1.334 . S
C419 H396 0.950 . S
C419 C418 1.334 . S
C419 C420 1.287 . S
C420 C419 1.287 . S
C420 C421 1.524 . S
C420 H439 0.913 . S
C421 H397 0.950 . S
C421 C420 1.524 . S
C421 C422 1.415 . S
C422 H398 0.950 . S
C422 C417 1.363 . S
C422 C421 1.415 . S
C423 H399 0.951 . S
C423 C424 1.366 . S
C423 C425 1.388 . S
C424 C423 1.366 . S
C424 C428 1.385 . S
C425 H400 0.951 . S
C425 C423 1.388 . S
C425 C426 1.366 . S
C426 C425 1.366 . S
C426 C427 1.414 . S
C426 C429 1.499 . S
C427 H401 0.950 . S
C427 C426 1.414 . S
C427 C428 1.374 . S
C428 H402 0.950 . S
C428 C424 1.385 . S
C428 C427 1.374 . S
C429 C426 1.499 . S
C429 C430 1.373 . S
C429 C431 1.389 . S
C430 H403 0.950 . S
C430 C416 1.377 . S
C430 C429 1.373 . S
C431 C415 1.377 . S
C431 C429 1.389 . S
C431 C432 1.524 . S
C432 C431 1.524 . S
C432 C433 1.397 . S
C432 C437 1.363 . S
C433 H404 0.950 . S
C433 C432 1.397 . S
C433 C434 1.334 . S
C434 H405 0.950 . S
C434 C433 1.334 . S
C434 C435 1.287 . S
C435 C434 1.287 . S
C435 C436 1.524 . S
C435 H438 0.999 . S
C436 H406 0.950 . S
C436 C435 1.524 . S
C436 C437 1.415 . S
C437 H407 0.950 . S
C437 C432 1.363 . S
C437 C436 1.415 . S
H438 C435 0.999 . S
H439 C420 0.913 . S
H440 C458 0.951 . S
H441 C460 0.951 . S
H442 C462 0.950 . S
H443 C463 0.950 . S
H444 C465 0.950 . S
H445 C468 0.950 . S
H446 C469 0.950 . S
H447 C471 0.950 . S
H448 C472 0.950 . S
H449 C473 0.951 . S
H450 C475 0.951 . S
H451 C477 0.950 . S
H452 C478 0.950 . S
H453 C480 0.950 . S
H454 C483 0.950 . S
H455 C484 0.950 . S
H456 C486 0.950 . S
H457 C487 0.950 . S
C458 H440 0.951 . S
C458 C459 1.366 . S
C458 C460 1.388 . S
C459 C458 1.366 . S
C459 C463 1.385 . S
C460 H441 0.951 . S
C460 C458 1.388 . S
C460 C461 1.366 . S
C461 C460 1.366 . S
C461 C462 1.414 . S
C461 C464 1.499 . S
C462 H442 0.950 . S
C462 C461 1.414 . S
C462 C463 1.374 . S
C463 H443 0.950 . S
C463 C459 1.385 . S
C463 C462 1.374 . S
C464 C461 1.499 . S
C464 C465 1.373 . S
C464 C466 1.389 . S
C465 H444 0.950 . S
C465 C464 1.373 . S
C465 C481 1.377 . S
C466 C464 1.389 . S
C466 C467 1.524 . S
C466 C480 1.377 . S
C467 C466 1.524 . S
C467 C468 1.397 . S
C467 C472 1.363 . S
C468 H445 0.950 . S
C468 C467 1.397 . S
C468 C469 1.334 . S
C469 H446 0.950 . S
C469 C468 1.334 . S
C469 C470 1.287 . S
C470 C469 1.287 . S
C470 C471 1.524 . S
C470 H489 0.913 . S
C471 H447 0.950 . S
C471 C470 1.524 . S
C471 C472 1.415 . S
C472 H448 0.950 . S
C472 C467 1.363 . S
C472 C471 1.415 . S
C473 H449 0.951 . S
C473 C474 1.366 . S
C473 C475 1.388 . S
C474 C473 1.366 . S
C474 C478 1.385 . S
C475 H450 0.951 . S
C475 C473 1.388 . S
C475 C476 1.366 . S
C476 C475 1.366 . S
C476 C477 1.414 . S
C476 C479 1.499 . S
C477 H451 0.950 . S
C477 C476 1.414 . S
C477 C478 1.374 . S
C478 H452 0.950 . S
C478 C474 1.385 . S
C478 C477 1.374 . S
C479 C476 1.499 . S
C479 C480 1.373 . S
C479 C481 1.389 . S
C480 H453 0.950 . S
C480 C466 1.377 . S
C480 C479 1.373 . S
C481 C465 1.377 . S
C481 C479 1.389 . S
C481 C482 1.524 . S
C482 C481 1.524 . S
C482 C483 1.397 . S
C482 C487 1.363 . S
C483 H454 0.950 . S
C483 C482 1.397 . S
C483 C484 1.334 . S
C484 H455 0.950 . S
C484 C483 1.334 . S
C484 C485 1.287 . S
C485 C484 1.287 . S
C485 C486 1.524 . S
C485 H488 0.999 . S
C486 H456 0.950 . S
C486 C485 1.524 . S
C486 C487 1.415 . S
C487 H457 0.950 . S
C487 C482 1.363 . S
C487 C486 1.415 . S
H488 C485 0.999 . S
H489 C470 0.913 . S
H490 C508 0.951 . S
H491 C510 0.951 . S
H492 C512 0.950 . S
H493 C513 0.950 . S
H494 C515 0.950 . S
H495 C518 0.950 . S
H496 C519 0.950 . S
H497 C521 0.950 . S
H498 C522 0.950 . S
H499 C523 0.951 . S
H500 C525 0.951 . S
H501 C527 0.950 . S
H502 C528 0.950 . S
H503 C530 0.950 . S
H504 C533 0.950 . S
H505 C534 0.950 . S
H506 C536 0.950 . S
H507 C537 0.950 . S
C508 H490 0.951 . S
C508 C509 1.366 . S
C508 C510 1.388 . S
C509 C508 1.366 . S
C509 C513 1.385 . S
C510 H491 0.951 . S
C510 C508 1.388 . S
C510 C511 1.366 . S
C511 C510 1.366 . S
C511 C512 1.414 . S
C511 C514 1.499 . S
C512 H492 0.950 . S
C512 C511 1.414 . S
C512 C513 1.374 . S
C513 H493 0.950 . S
C513 C509 1.385 . S
C513 C512 1.374 . S
C514 C511 1.499 . S
C514 C515 1.373 . S
C514 C516 1.389 . S
C515 H494 0.950 . S
C515 C514 1.373 . S
C515 C531 1.377 . S
C516 C514 1.389 . S
C516 C517 1.524 . S
C516 C530 1.377 . S
C517 C516 1.524 . S
C517 C518 1.397 . S
C517 C522 1.363 . S
C518 H495 0.950 . S
C518 C517 1.397 . S
C518 C519 1.334 . S
C519 H496 0.950 . S
C519 C518 1.334 . S
C519 C520 1.287 . S
C520 C519 1.287 . S
C520 C521 1.524 . S
C520 H539 0.913 1_655 S
C521 H497 0.950 . S
C521 C520 1.524 . S
C521 C522 1.415 . S
C522 H498 0.950 . S
C522 C517 1.363 . S
C522 C521 1.415 . S
C523 H499 0.951 . S
C523 C524 1.366 . S
C523 C525 1.388 . S
C524 C523 1.366 . S
C524 C528 1.385 . S
C525 H500 0.951 . S
C525 C523 1.388 . S
C525 C526 1.366 . S
C526 C525 1.366 . S
C526 C527 1.414 . S
C526 C529 1.499 . S
C527 H501 0.950 . S
C527 C526 1.414 . S
C527 C528 1.374 . S
C528 H502 0.950 . S
C528 C524 1.385 . S
C528 C527 1.374 . S
C529 C526 1.499 . S
C529 C530 1.373 . S
C529 C531 1.389 . S
C530 H503 0.950 . S
C530 C516 1.377 . S
C530 C529 1.373 . S
C531 C515 1.377 . S
C531 C529 1.389 . S
C531 C532 1.524 . S
C532 C531 1.524 . S
C532 C533 1.397 . S
C532 C537 1.363 . S
C533 H504 0.950 . S
C533 C532 1.397 . S
C533 C534 1.334 . S
C534 H505 0.950 . S
C534 C533 1.334 . S
C534 C535 1.287 . S
C535 C534 1.287 . S
C535 C536 1.524 . S
C535 H538 0.999 . S
C536 H506 0.950 . S
C536 C535 1.524 . S
C536 C537 1.415 . S
C537 H507 0.950 . S
C537 C532 1.363 . S
C537 C536 1.415 . S
H538 C535 0.999 . S
H539 C520 0.913 1_455 S
H540 C558 0.951 . S
H541 C560 0.951 . S
H542 C562 0.950 . S
H543 C563 0.950 . S
H544 C565 0.950 . S
H545 C568 0.950 . S
H546 C569 0.950 . S
H547 C571 0.950 . S
H548 C572 0.950 . S
H549 C573 0.951 . S
H550 C575 0.951 . S
H551 C577 0.950 . S
H552 C578 0.950 . S
H553 C580 0.950 . S
H554 C583 0.950 . S
H555 C584 0.950 1_565 S
H556 C586 0.950 . S
H557 C587 0.950 . S
C558 H540 0.951 . S
C558 C559 1.366 . S
C558 C560 1.388 . S
C559 C558 1.366 . S
C559 C563 1.385 . S
C560 H541 0.951 . S
C560 C558 1.388 . S
C560 C561 1.366 . S
C561 C560 1.366 . S
C561 C562 1.414 . S
C561 C564 1.499 . S
C562 H542 0.950 . S
C562 C561 1.414 . S
C562 C563 1.374 . S
C563 H543 0.950 . S
C563 C559 1.385 . S
C563 C562 1.374 . S
C564 C561 1.499 . S
C564 C565 1.373 . S
C564 C566 1.389 . S
C565 H544 0.950 . S
C565 C564 1.373 . S
C565 C581 1.377 . S
C566 C564 1.389 . S
C566 C567 1.524 . S
C566 C580 1.377 . S
C567 C566 1.524 . S
C567 C568 1.397 . S
C567 C572 1.363 . S
C568 H545 0.950 . S
C568 C567 1.397 . S
C568 C569 1.334 . S
C569 H546 0.950 . S
C569 C568 1.334 . S
C569 C570 1.287 . S
C570 C569 1.287 . S
C570 C571 1.524 . S
C570 H589 0.913 . S
C571 H547 0.950 . S
C571 C570 1.524 . S
C571 C572 1.415 . S
C572 H548 0.950 . S
C572 C567 1.363 . S
C572 C571 1.415 . S
C573 H549 0.951 . S
C573 C574 1.366 . S
C573 C575 1.388 . S
C574 C573 1.366 . S
C574 C578 1.385 . S
C575 H550 0.951 . S
C575 C573 1.388 . S
C575 C576 1.366 . S
C576 C575 1.366 . S
C576 C577 1.414 . S
C576 C579 1.499 . S
C577 H551 0.950 . S
C577 C576 1.414 . S
C577 C578 1.374 . S
C578 H552 0.950 . S
C578 C574 1.385 . S
C578 C577 1.374 . S
C579 C576 1.499 . S
C579 C580 1.373 . S
C579 C581 1.389 . S
C580 H553 0.950 . S
C580 C566 1.377 . S
C580 C579 1.373 . S
C581 C565 1.377 . S
C581 C579 1.389 . S
C581 C582 1.524 . S
C582 C581 1.524 . S
C582 C583 1.397 . S
C582 C587 1.363 . S
C583 H554 0.950 . S
C583 C582 1.397 . S
C583 C584 1.334 . S
C584 H555 0.950 1_545 S
C584 C583 1.334 . S
C584 C585 1.287 . S
C585 C584 1.287 . S
C585 C586 1.524 . S
C585 H588 0.999 1_545 S
C586 H556 0.950 . S
C586 C585 1.524 . S
C586 C587 1.415 . S
C587 H557 0.950 . S
C587 C582 1.363 . S
C587 C586 1.415 . S
H588 C585 0.999 1_565 S
H589 C570 0.913 . S
H590 C608 0.951 . S
H591 C610 0.951 . S
H592 C612 0.950 . S
H593 C613 0.950 . S
H594 C615 0.950 . S
H595 C618 0.950 . S
H596 C619 0.950 . S
H597 C621 0.950 . S
H598 C622 0.941 1_545 S
H599 C623 0.951 . S
H600 C625 0.951 . S
H601 C627 0.950 1_545 S
H602 C628 0.950 . S
H603 C630 0.950 . S
H604 C633 0.950 . S
H605 C634 0.950 . S
H606 C636 0.950 . S
H607 C637 0.950 . S
C608 H590 0.951 . S
C608 C609 1.366 . S
C608 C610 1.388 . S
C609 C608 1.366 . S
C609 C613 1.385 . S
C610 H591 0.951 . S
C610 C608 1.388 . S
C610 C611 1.366 . S
C611 C610 1.366 . S
C611 C612 1.414 . S
C611 C614 1.499 . S
C612 H592 0.950 . S
C612 C611 1.414 . S
C612 C613 1.374 . S
C613 H593 0.950 . S
C613 C609 1.385 . S
C613 C612 1.374 . S
C614 C611 1.499 . S
C614 C615 1.373 . S
C614 C616 1.389 . S
C615 H594 0.950 . S
C615 C614 1.373 . S
C615 C631 1.377 . S
C616 C614 1.389 . S
C616 C617 1.524 . S
C616 C630 1.377 . S
C617 C616 1.524 . S
C617 C618 1.397 . S
C617 C622 1.382 . S
C618 H595 0.950 . S
C618 C617 1.397 . S
C618 C619 1.334 . S
C619 H596 0.950 . S
C619 C618 1.334 . S
C619 C620 1.287 . S
C620 C619 1.287 . S
C620 C621 1.524 1_565 S
C620 H639 0.913 1_565 S
C621 H597 0.950 . S
C621 C620 1.524 1_545 S
C621 C622 1.405 1_545 S
C622 H598 0.941 1_565 S
C622 C617 1.382 . S
C622 C621 1.405 1_565 S
C623 H599 0.951 . S
C623 C624 1.366 . S
C623 C625 1.388 . S
C624 C623 1.366 . S
C624 C628 1.385 1_565 S
C625 H600 0.951 . S
C625 C623 1.388 . S
C625 C626 1.366 . S
C626 C625 1.366 . S
C626 C627 1.414 . S
C626 C629 1.499 . S
C627 H601 0.950 1_565 S
C627 C626 1.414 . S
C627 C628 1.374 1_565 S
C628 H602 0.950 . S
C628 C624 1.385 1_545 S
C628 C627 1.374 1_545 S
C629 C626 1.499 . S
C629 C630 1.373 . S
C629 C631 1.389 . S
C630 H603 0.950 . S
C630 C616 1.377 . S
C630 C629 1.373 . S
C631 C615 1.377 . S
C631 C629 1.389 . S
C631 C632 1.524 . S
C632 C631 1.524 . S
C632 C633 1.397 . S
C632 C637 1.363 . S
C633 H604 0.950 . S
C633 C632 1.397 . S
C633 C634 1.334 . S
C634 H605 0.950 . S
C634 C633 1.334 . S
C634 C635 1.287 . S
C635 C634 1.287 . S
C635 C636 1.524 . S
C635 H638 0.999 . S
C636 H606 0.950 . S
C636 C635 1.524 . S
C636 C637 1.415 . S
C637 H607 0.950 . S
C637 C632 1.363 . S
C637 C636 1.415 . S
H638 C635 0.999 . S
H639 C620 0.913 1_545 S
H640 C658 0.951 . S
H641 C660 0.951 . S
H642 C662 0.950 . S
H643 C663 0.950 . S
H644 C665 0.950 . S
H645 C668 0.950 . S
H646 C669 0.950 . S
H647 C671 0.950 . S
H648 C672 0.950 . S
H649 C673 0.951 . S
H650 C675 0.951 . S
H651 C677 0.950 . S
H652 C678 0.950 . S
H653 C680 0.950 . S
H654 C683 0.950 . S
H655 C684 0.950 . S
H656 C686 0.950 . S
H657 C687 0.950 . S
C658 H640 0.951 . S
C658 C659 1.366 . S
C658 C660 1.388 . S
C659 C658 1.366 . S
C659 C663 1.385 . S
C660 H641 0.951 . S
C660 C658 1.388 . S
C660 C661 1.366 . S
C661 C660 1.366 . S
C661 C662 1.414 . S
C661 C664 1.499 . S
C662 H642 0.950 . S
C662 C661 1.414 . S
C662 C663 1.374 . S
C663 H643 0.950 . S
C663 C659 1.385 . S
C663 C662 1.374 . S
C664 C661 1.499 . S
C664 C665 1.373 . S
C664 C666 1.389 . S
C665 H644 0.950 . S
C665 C664 1.373 . S
C665 C681 1.377 . S
C666 C664 1.389 . S
C666 C667 1.524 . S
C666 C680 1.377 . S
C667 C666 1.524 . S
C667 C668 1.397 . S
C667 C672 1.363 . S
C668 H645 0.950 . S
C668 C667 1.397 . S
C668 C669 1.334 . S
C669 H646 0.950 . S
C669 C668 1.334 . S
C669 C670 1.287 . S
C670 C669 1.287 . S
C670 C671 1.524 . S
C670 H689 0.913 1_556 S
C671 H647 0.950 . S
C671 C670 1.524 . S
C671 C672 1.415 . S
C672 H648 0.950 . S
C672 C667 1.363 . S
C672 C671 1.415 . S
C673 H649 0.951 . S
C673 C674 1.366 . S
C673 C675 1.388 . S
C674 C673 1.366 . S
C674 C678 1.385 . S
C675 H650 0.951 . S
C675 C673 1.388 . S
C675 C676 1.366 . S
C676 C675 1.366 . S
C676 C677 1.414 . S
C676 C679 1.499 . S
C677 H651 0.950 . S
C677 C676 1.414 . S
C677 C678 1.374 . S
C678 H652 0.950 . S
C678 C674 1.385 . S
C678 C677 1.374 . S
C679 C676 1.499 . S
C679 C680 1.373 . S
C679 C681 1.389 . S
C680 H653 0.950 . S
C680 C666 1.377 . S
C680 C679 1.373 . S
C681 C665 1.377 . S
C681 C679 1.389 . S
C681 C682 1.524 . S
C682 C681 1.524 . S
C682 C683 1.397 . S
C682 C687 1.363 . S
C683 H654 0.950 . S
C683 C682 1.397 . S
C683 C684 1.334 . S
C684 H655 0.950 . S
C684 C683 1.334 . S
C684 C685 1.287 . S
C685 C684 1.287 . S
C685 C686 1.524 . S
C685 H688 0.999 . S
C686 H656 0.950 . S
C686 C685 1.524 . S
C686 C687 1.415 . S
C687 H657 0.950 . S
C687 C682 1.363 . S
C687 C686 1.415 . S
H688 C685 0.999 . S
H689 C670 0.913 1_554 S
H690 C708 0.951 . S
H691 C710 0.951 . S
H692 C712 0.950 . S
H693 C713 0.950 . S
H694 C715 0.950 . S
H695 C718 0.950 . S
H696 C719 0.950 . S
H697 C721 0.950 . S
H698 C722 0.950 . S
H699 C723 0.951 . S
H700 C725 0.951 . S
H701 C727 0.950 . S
H702 C728 0.950 . S
H703 C730 0.950 . S
H704 C733 0.950 . S
H705 C734 0.950 . S
H706 C736 0.950 . S
H707 C737 0.950 . S
C708 H690 0.951 . S
C708 C709 1.366 . S
C708 C710 1.388 . S
C709 C708 1.366 . S
C709 C713 1.385 . S
C710 H691 0.951 . S
C710 C708 1.388 . S
C710 C711 1.366 . S
C711 C710 1.366 . S
C711 C712 1.414 . S
C711 C714 1.499 . S
C712 H692 0.950 . S
C712 C711 1.414 . S
C712 C713 1.374 . S
C713 H693 0.950 . S
C713 C709 1.385 . S
C713 C712 1.374 . S
C714 C711 1.499 . S
C714 C715 1.373 . S
C714 C716 1.389 . S
C715 H694 0.950 . S
C715 C714 1.373 . S
C715 C731 1.377 . S
C716 C714 1.389 . S
C716 C717 1.524 . S
C716 C730 1.377 . S
C717 C716 1.524 . S
C717 C718 1.397 . S
C717 C722 1.363 . S
C718 H695 0.950 . S
C718 C717 1.397 . S
C718 C719 1.334 . S
C719 H696 0.950 . S
C719 C718 1.334 . S
C719 C720 1.287 . S
C720 C719 1.287 . S
C720 C721 1.524 . S
C720 H739 0.913 . S
C721 H697 0.950 . S
C721 C720 1.524 . S
C721 C722 1.415 . S
C722 H698 0.950 . S
C722 C717 1.363 . S
C722 C721 1.415 . S
C723 H699 0.951 . S
C723 C724 1.366 . S
C723 C725 1.388 . S
C724 C723 1.366 . S
C724 C728 1.385 . S
C725 H700 0.951 . S
C725 C723 1.388 . S
C725 C726 1.366 . S
C726 C725 1.366 . S
C726 C727 1.414 . S
C726 C729 1.499 . S
C727 H701 0.950 . S
C727 C726 1.414 . S
C727 C728 1.374 . S
C728 H702 0.950 . S
C728 C724 1.385 . S
C728 C727 1.374 . S
C729 C726 1.499 . S
C729 C730 1.373 . S
C729 C731 1.389 . S
C730 H703 0.950 . S
C730 C716 1.377 . S
C730 C729 1.373 . S
C731 C715 1.377 . S
C731 C729 1.389 . S
C731 C732 1.524 . S
C732 C731 1.524 . S
C732 C733 1.397 . S
C732 C737 1.363 . S
C733 H704 0.950 . S
C733 C732 1.397 . S
C733 C734 1.334 . S
C734 H705 0.950 . S
C734 C733 1.334 . S
C734 C735 1.287 . S
C735 C734 1.287 . S
C735 C736 1.524 . S
C735 H738 0.999 . S
C736 H706 0.950 . S
C736 C735 1.524 . S
C736 C737 1.415 . S
C737 H707 0.950 . S
C737 C732 1.363 . S
C737 C736 1.415 . S
H738 C735 0.999 . S
H739 C720 0.913 . S
H740 C758 0.951 . S
H741 C760 0.951 . S
H742 C762 0.950 . S
H743 C763 0.950 . S
H744 C765 0.950 . S
H745 C768 0.950 . S
H746 C769 0.950 . S
H747 C771 0.950 . S
H748 C772 0.950 . S
H749 C773 0.951 . S
H750 C775 0.951 . S
H751 C777 0.950 . S
H752 C778 0.950 . S
H753 C780 0.950 . S
H754 C783 0.950 . S
H755 C784 0.950 . S
H756 C786 0.950 . S
H757 C787 0.950 . S
C758 H740 0.951 . S
C758 C759 1.366 . S
C758 C760 1.388 . S
C759 C758 1.366 . S
C759 C763 1.385 . S
C760 H741 0.951 . S
C760 C758 1.388 . S
C760 C761 1.366 . S
C761 C760 1.366 . S
C761 C762 1.414 . S
C761 C764 1.499 . S
C762 H742 0.950 . S
C762 C761 1.414 . S
C762 C763 1.374 . S
C763 H743 0.950 . S
C763 C759 1.385 . S
C763 C762 1.374 . S
C764 C761 1.499 . S
C764 C765 1.373 . S
C764 C766 1.389 . S
C765 H744 0.950 . S
C765 C764 1.373 . S
C765 C781 1.377 . S
C766 C764 1.389 . S
C766 C767 1.524 . S
C766 C780 1.377 . S
C767 C766 1.524 . S
C767 C768 1.397 . S
C767 C772 1.363 . S
C768 H745 0.950 . S
C768 C767 1.397 . S
C768 C769 1.334 . S
C769 H746 0.950 . S
C769 C768 1.334 . S
C769 C770 1.287 . S
C770 C769 1.287 . S
C770 C771 1.524 . S
C770 H789 0.913 . S
C771 H747 0.950 . S
C771 C770 1.524 . S
C771 C772 1.415 . S
C772 H748 0.950 . S
C772 C767 1.363 . S
C772 C771 1.415 . S
C773 H749 0.951 . S
C773 C774 1.366 . S
C773 C775 1.388 . S
C774 C773 1.366 . S
C774 C778 1.385 . S
C775 H750 0.951 . S
C775 C773 1.388 . S
C775 C776 1.366 . S
C776 C775 1.366 . S
C776 C777 1.414 . S
C776 C779 1.499 . S
C777 H751 0.950 . S
C777 C776 1.414 . S
C777 C778 1.374 . S
C778 H752 0.950 . S
C778 C774 1.385 . S
C778 C777 1.374 . S
C779 C776 1.499 . S
C779 C780 1.373 . S
C779 C781 1.389 . S
C780 H753 0.950 . S
C780 C766 1.377 . S
C780 C779 1.373 . S
C781 C765 1.377 . S
C781 C779 1.389 . S
C781 C782 1.524 . S
C782 C781 1.524 . S
C782 C783 1.397 . S
C782 C787 1.363 . S
C783 H754 0.950 . S
C783 C782 1.397 . S
C783 C784 1.334 . S
C784 H755 0.950 . S
C784 C783 1.334 . S
C784 C785 1.287 . S
C785 C784 1.287 . S
C785 C786 1.524 . S
C785 H788 0.999 . S
C786 H756 0.950 . S
C786 C785 1.524 . S
C786 C787 1.415 . S
C787 H757 0.950 . S
C787 C782 1.363 . S
C787 C786 1.415 . S
H788 C785 0.999 . S
H789 C770 0.913 . S
H790 C808 0.951 . S
H791 C810 0.951 . S
H792 C812 0.950 . S
H793 C813 0.950 . S
H794 C815 0.950 . S
H795 C818 0.950 . S
H796 C819 0.950 . S
H797 C821 0.950 . S
H798 C822 0.950 . S
H799 C823 0.951 . S
H800 C825 0.951 . S
H801 C827 0.950 . S
H802 C828 0.950 1_554 S
H803 C830 0.950 . S
H804 C833 0.950 1_554 S
H805 C834 0.950 . S
H806 C836 0.950 . S
H807 C837 0.950 . S
C808 H790 0.951 . S
C808 C809 1.366 . S
C808 C810 1.388 . S
C809 C808 1.366 . S
C809 C813 1.385 . S
C810 H791 0.951 . S
C810 C808 1.388 . S
C810 C811 1.366 . S
C811 C810 1.366 . S
C811 C812 1.414 . S
C811 C814 1.499 . S
C812 H792 0.950 . S
C812 C811 1.414 . S
C812 C813 1.374 . S
C813 H793 0.950 . S
C813 C809 1.385 . S
C813 C812 1.374 . S
C814 C811 1.499 . S
C814 C815 1.373 . S
C814 C816 1.389 . S
C815 H794 0.950 . S
C815 C814 1.373 . S
C815 C831 1.377 . S
C816 C814 1.389 . S
C816 C817 1.524 . S
C816 C830 1.377 . S
C817 C816 1.524 . S
C817 C818 1.397 . S
C817 C822 1.363 . S
C818 H795 0.950 . S
C818 C817 1.397 . S
C818 C819 1.334 . S
C819 H796 0.950 . S
C819 C818 1.334 . S
C819 C820 1.287 . S
C820 C819 1.287 . S
C820 C821 1.524 . S
C820 H839 0.913 . S
C821 H797 0.950 . S
C821 C820 1.524 . S
C821 C822 1.415 . S
C822 H798 0.950 . S
C822 C817 1.363 . S
C822 C821 1.415 . S
C823 H799 0.951 . S
C823 C824 1.366 . S
C823 C825 1.388 . S
C824 C823 1.366 . S
C824 C828 1.385 . S
C825 H800 0.951 . S
C825 C823 1.388 . S
C825 C826 1.366 . S
C826 C825 1.366 . S
C826 C827 1.414 . S
C826 C829 1.499 . S
C827 H801 0.950 . S
C827 C826 1.414 . S
C827 C828 1.374 . S
C828 H802 0.950 1_556 S
C828 C824 1.385 . S
C828 C827 1.374 . S
C829 C826 1.499 . S
C829 C830 1.373 . S
C829 C831 1.389 . S
C830 H803 0.950 . S
C830 C816 1.377 . S
C830 C829 1.373 . S
C831 C815 1.377 . S
C831 C829 1.389 . S
C831 C832 1.524 . S
C832 C831 1.524 . S
C832 C833 1.397 . S
C832 C837 1.363 . S
C833 H804 0.950 1_556 S
C833 C832 1.397 . S
C833 C834 1.334 1_556 S
C834 H805 0.950 . S
C834 C833 1.334 1_554 S
C834 C835 1.287 . S
C835 C834 1.287 . S
C835 C836 1.524 1_554 S
C835 H838 0.999 . S
C836 H806 0.950 . S
C836 C835 1.524 1_556 S
C836 C837 1.415 . S
C837 H807 0.950 . S
C837 C832 1.363 . S
C837 C836 1.415 . S
H838 C835 0.999 . S
H839 C820 0.913 . S
H840 C858 0.951 . S
H841 C860 0.951 . S
H842 C862 0.950 . S
H843 C863 0.950 . S
H844 C865 0.950 . S
H845 C868 0.950 . S
H846 C869 0.950 . S
H847 C871 0.950 . S
H848 C872 0.950 . S
H849 C873 0.951 . S
H850 C875 0.951 . S
H851 C877 0.950 . S
H852 C878 0.950 1_455 S
H853 C880 0.950 . S
H854 C883 0.950 . S
H855 C884 0.950 . S
H856 C886 0.950 . S
H857 C887 0.950 . S
C858 H840 0.951 . S
C858 C859 1.366 . S
C858 C860 1.388 . S
C859 C858 1.366 . S
C859 C863 1.385 . S
C860 H841 0.951 . S
C860 C858 1.388 . S
C860 C861 1.366 . S
C861 C860 1.366 . S
C861 C862 1.414 . S
C861 C864 1.499 . S
C862 H842 0.950 . S
C862 C861 1.414 . S
C862 C863 1.374 . S
C863 H843 0.950 . S
C863 C859 1.385 . S
C863 C862 1.374 . S
C864 C861 1.499 . S
C864 C865 1.373 . S
C864 C866 1.389 . S
C865 H844 0.950 . S
C865 C864 1.373 . S
C865 C881 1.377 . S
C866 C864 1.389 . S
C866 C867 1.524 . S
C866 C880 1.377 . S
C867 C866 1.524 . S
C867 C868 1.397 . S
C867 C872 1.363 . S
C868 H845 0.950 . S
C868 C867 1.397 . S
C868 C869 1.334 . S
C869 H846 0.950 . S
C869 C868 1.334 . S
C869 C870 1.287 . S
C870 C869 1.287 . S
C870 C871 1.524 1_655 S
C870 H889 0.913 . S
C871 H847 0.950 . S
C871 C870 1.524 1_455 S
C871 C872 1.415 1_455 S
C872 H848 0.950 . S
C872 C867 1.363 . S
C872 C871 1.415 1_655 S
C873 H849 0.951 . S
C873 C874 1.366 . S
C873 C875 1.388 . S
C874 C873 1.366 . S
C874 C878 1.385 . S
C875 H850 0.951 . S
C875 C873 1.388 . S
C875 C876 1.366 . S
C876 C875 1.366 . S
C876 C877 1.414 . S
C876 C879 1.499 . S
C877 H851 0.950 . S
C877 C876 1.414 . S
C877 C878 1.374 . S
C878 H852 0.950 1_655 S
C878 C874 1.385 . S
C878 C877 1.374 . S
C879 C876 1.499 . S
C879 C880 1.373 . S
C879 C881 1.389 . S
C880 H853 0.950 . S
C880 C866 1.377 . S
C880 C879 1.373 . S
C881 C865 1.377 . S
C881 C879 1.389 . S
C881 C882 1.524 . S
C882 C881 1.524 . S
C882 C883 1.397 . S
C882 C887 1.363 . S
C883 H854 0.950 . S
C883 C882 1.397 . S
C883 C884 1.334 . S
C884 H855 0.950 . S
C884 C883 1.334 . S
C884 C885 1.287 . S
C885 C884 1.287 . S
C885 C886 1.524 . S
C885 H888 0.999 . S
C886 H856 0.950 . S
C886 C885 1.524 . S
C886 C887 1.415 . S
C887 H857 0.950 . S
C887 C882 1.363 . S
C887 C886 1.415 . S
H888 C885 0.999 . S
H889 C870 0.913 . S
H890 C908 0.951 . S
H891 C910 0.951 . S
H892 C912 0.950 . S
H893 C913 0.950 . S
H894 C915 0.950 . S
H895 C918 0.950 . S
H896 C919 0.950 . S
H897 C921 0.950 . S
H898 C922 0.950 . S
H899 C923 0.951 . S
H900 C925 0.951 . S
H901 C927 0.950 . S
H902 C928 0.950 . S
H903 C930 0.950 . S
H904 C933 0.950 . S
H905 C934 0.950 . S
H906 C936 0.950 . S
H907 C937 0.950 . S
C908 H890 0.951 . S
C908 C909 1.366 . S
C908 C910 1.388 . S
C909 C908 1.366 . S
C909 C913 1.385 . S
C910 H891 0.951 . S
C910 C908 1.388 . S
C910 C911 1.366 . S
C911 C910 1.366 . S
C911 C912 1.414 . S
C911 C914 1.499 . S
C912 H892 0.950 . S
C912 C911 1.414 . S
C912 C913 1.374 . S
C913 H893 0.950 . S
C913 C909 1.385 . S
C913 C912 1.374 . S
C914 C911 1.499 . S
C914 C915 1.373 . S
C914 C916 1.389 . S
C915 H894 0.950 . S
C915 C914 1.373 . S
C915 C931 1.377 . S
C916 C914 1.389 . S
C916 C917 1.524 . S
C916 C930 1.377 . S
C917 C916 1.524 . S
C917 C918 1.397 . S
C917 C922 1.363 . S
C918 H895 0.950 . S
C918 C917 1.397 . S
C918 C919 1.334 . S
C919 H896 0.950 . S
C919 C918 1.334 . S
C919 C920 1.287 . S
C920 C919 1.287 . S
C920 C921 1.524 . S
C920 H939 0.913 . S
C921 H897 0.950 . S
C921 C920 1.524 . S
C921 C922 1.415 . S
C922 H898 0.950 . S
C922 C917 1.363 . S
C922 C921 1.415 . S
C923 H899 0.951 . S
C923 C924 1.366 . S
C923 C925 1.388 . S
C924 C923 1.366 . S
C924 C928 1.385 . S
C925 H900 0.951 . S
C925 C923 1.388 . S
C925 C926 1.366 . S
C926 C925 1.366 . S
C926 C927 1.414 . S
C926 C929 1.499 . S
C927 H901 0.950 . S
C927 C926 1.414 . S
C927 C928 1.374 . S
C928 H902 0.950 . S
C928 C924 1.385 . S
C928 C927 1.374 . S
C929 C926 1.499 . S
C929 C930 1.373 . S
C929 C931 1.389 . S
C930 H903 0.950 . S
C930 C916 1.377 . S
C930 C929 1.373 . S
C931 C915 1.377 . S
C931 C929 1.389 . S
C931 C932 1.524 . S
C932 C931 1.524 . S
C932 C933 1.397 . S
C932 C937 1.363 . S
C933 H904 0.950 . S
C933 C932 1.397 . S
C933 C934 1.334 . S
C934 H905 0.950 . S
C934 C933 1.334 . S
C934 C935 1.287 . S
C935 C934 1.287 . S
C935 C936 1.524 . S
C935 H938 0.999 . S
C936 H906 0.950 . S
C936 C935 1.524 . S
C936 C937 1.415 . S
C937 H907 0.950 . S
C937 C932 1.363 . S
C937 C936 1.415 . S
H938 C935 0.999 . S
H939 C920 0.913 . S
H940 C958 0.951 . S
H941 C960 0.951 . S
H942 C962 0.950 . S
H943 C963 0.950 . S
H944 C965 0.950 . S
H945 C968 0.950 . S
H946 C969 0.950 . S
H947 C971 0.950 . S
H948 C972 0.950 . S
H949 C973 0.951 . S
H950 C975 0.951 . S
H951 C977 0.950 1_455 S
H952 C978 0.947 1_455 S
H953 C980 0.950 . S
H954 C983 0.950 . S
H955 C984 0.950 . S
H956 C986 0.950 . S
H957 C987 0.950 . S
C958 H940 0.951 . S
C958 C959 1.366 1_545 S
C958 C960 1.388 . S
C959 C958 1.366 1_565 S
C959 C963 1.385 . S
C960 H941 0.951 . S
C960 C958 1.388 . S
C960 C961 1.366 1_545 S
C961 C960 1.366 1_565 S
C961 C962 1.414 . S
C961 C964 1.499 . S
C962 H942 0.950 . S
C962 C961 1.414 . S
C962 C963 1.374 . S
C963 H943 0.950 . S
C963 C959 1.385 . S
C963 C962 1.374 . S
C964 C961 1.499 . S
C964 C965 1.373 . S
C964 C966 1.389 1_565 S
C965 H944 0.950 . S
C965 C964 1.373 . S
C965 C981 1.377 . S
C966 C964 1.389 1_545 S
C966 C967 1.524 . S
C966 C980 1.377 . S
C967 C966 1.524 . S
C967 C968 1.397 . S
C967 C972 1.363 . S
C968 H945 0.950 . S
C968 C967 1.397 . S
C968 C969 1.334 . S
C969 H946 0.950 . S
C969 C968 1.334 . S
C969 C970 1.287 . S
C970 C969 1.287 . S
C970 C971 1.524 . S
C970 H989 0.913 . S
C971 H947 0.950 . S
C971 C970 1.524 . S
C971 C972 1.415 . S
C972 H948 0.950 . S
C972 C967 1.363 . S
C972 C971 1.415 . S
C973 H949 0.951 . S
C973 C974 1.366 1_565 S
C973 C975 1.388 . S
C974 C973 1.366 1_545 S
C974 C978 1.387 . S
C975 H950 0.951 . S
C975 C973 1.388 . S
C975 C976 1.366 1_565 S
C976 C975 1.366 1_545 S
C976 C977 1.414 . S
C976 C979 1.499 . S
C977 H951 0.950 1_655 S
C977 C976 1.414 . S
C977 C978 1.374 . S
C978 H952 0.947 1_655 S
C978 C974 1.387 . S
C978 C977 1.374 . S
C979 C976 1.499 . S
C979 C980 1.373 . S
C979 C981 1.389 1_545 S
C980 H953 0.950 . S
C980 C966 1.377 . S
C980 C979 1.373 . S
C981 C965 1.377 . S
C981 C979 1.389 1_565 S
C981 C982 1.524 1_655 S
C982 C981 1.524 1_455 S
C982 C983 1.397 . S
C982 C987 1.363 1_455 S
C983 H954 0.950 . S
C983 C982 1.397 . S
C983 C984 1.334 . S
C984 H955 0.950 . S
C984 C983 1.334 . S
C984 C985 1.287 . S
C985 C984 1.287 . S
C985 C986 1.524 . S
C985 H988 0.999 . S
C986 H956 0.950 . S
C986 C985 1.524 . S
C986 C987 1.415 1_455 S
C987 H957 0.950 . S
C987 C982 1.363 1_655 S
C987 C986 1.415 1_655 S
H988 C985 0.999 . S
H989 C970 0.913 . S
H990 C1008 0.951 . S
H991 C1010 0.951 . S
H992 C1012 0.950 . S
H993 C1013 0.950 . S
H994 C1015 0.950 . S
H995 C1018 0.942 1_545 S
H996 C1019 0.950 . S
H997 C1021 0.950 . S
H998 C1022 0.950 1_545 S
H999 C1023 0.951 . S
H1000 C1025 0.951 . S
H1001 C1027 0.950 . S
H1002 C1028 0.950 . S
H1003 C1030 0.950 . S
H1004 C1033 0.950 . S
H1005 C1034 0.950 . S
H1006 C1036 0.950 . S
H1007 C1037 0.950 . S
C1008 H990 0.951 . S
C1008 C1009 1.366 . S
C1008 C1010 1.388 . S
C1009 C1008 1.366 . S
C1009 C1013 1.385 . S
C1010 H991 0.951 . S
C1010 C1008 1.388 . S
C1010 C1011 1.366 . S
C1011 C1010 1.366 . S
C1011 C1012 1.414 . S
C1011 C1014 1.499 . S
C1012 H992 0.950 . S
C1012 C1011 1.414 . S
C1012 C1013 1.374 . S
C1013 H993 0.950 . S
C1013 C1009 1.385 . S
C1013 C1012 1.374 . S
C1014 C1011 1.499 . S
C1014 C1015 1.373 . S
C1014 C1016 1.389 . S
C1015 H994 0.950 . S
C1015 C1014 1.373 . S
C1015 C1031 1.377 . S
C1016 C1014 1.389 . S
C1016 C1017 1.524 . S
C1016 C1030 1.377 . S
C1017 C1016 1.524 . S
C1017 C1018 1.392 1_545 S
C1017 C1022 1.363 1_545 S
C1018 H995 0.942 1_565 S
C1018 C1017 1.392 1_565 S
C1018 C1019 1.347 . S
C1019 H996 0.950 . S
C1019 C1018 1.347 . S
C1019 C1020 1.287 . S
C1020 C1019 1.287 . S
C1020 C1021 1.524 . S
C1020 H1039 0.913 . S
C1021 H997 0.950 . S
C1021 C1020 1.524 . S
C1021 C1022 1.415 . S
C1022 H998 0.950 1_565 S
C1022 C1017 1.363 1_565 S
C1022 C1021 1.415 . S
C1023 H999 0.951 . S
C1023 C1024 1.366 . S
C1023 C1025 1.388 . S
C1024 C1023 1.366 . S
C1024 C1028 1.385 . S
C1025 H1000 0.951 . S
C1025 C1023 1.388 . S
C1025 C1026 1.366 . S
C1026 C1025 1.366 . S
C1026 C1027 1.414 . S
C1026 C1029 1.499 . S
C1027 H1001 0.950 . S
C1027 C1026 1.414 . S
C1027 C1028 1.374 . S
C1028 H1002 0.950 . S
C1028 C1024 1.385 . S
C1028 C1027 1.374 . S
C1029 C1026 1.499 . S
C1029 C1030 1.373 . S
C1029 C1031 1.389 . S
C1030 H1003 0.950 . S
C1030 C1016 1.377 . S
C1030 C1029 1.373 . S
C1031 C1015 1.377 . S
C1031 C1029 1.389 . S
C1031 C1032 1.524 . S
C1032 C1031 1.524 . S
C1032 C1033 1.397 . S
C1032 C1037 1.363 . S
C1033 H1004 0.950 . S
C1033 C1032 1.397 . S
C1033 C1034 1.334 . S
C1034 H1005 0.950 . S
C1034 C1033 1.334 . S
C1034 C1035 1.287 . S
C1035 C1034 1.287 . S
C1035 C1036 1.524 . S
C1035 H1038 0.999 . S
C1036 H1006 0.950 . S
C1036 C1035 1.524 . S
C1036 C1037 1.415 . S
C1037 H1007 0.950 . S
C1037 C1032 1.363 . S
C1037 C1036 1.415 . S
H1038 C1035 0.999 . S
H1039 C1020 0.913 . S
H1040 C1058 0.951 . S
H1041 C1060 0.951 . S
H1042 C1062 0.950 . S
H1043 C1063 0.950 . S
H1044 C1065 0.950 . S
H1045 C1068 0.950 . S
H1046 C1069 0.950 . S
H1047 C1071 0.950 . S
H1048 C1072 0.950 . S
H1049 C1073 0.951 . S
H1050 C1075 0.951 . S
H1051 C1077 0.950 . S
H1052 C1078 0.950 . S
H1053 C1080 0.950 . S
H1054 C1083 0.950 . S
H1055 C1084 0.950 . S
H1056 C1086 0.950 . S
H1057 C1087 0.950 . S
C1058 H1040 0.951 . S
C1058 C1059 1.366 . S
C1058 C1060 1.388 . S
C1059 C1058 1.366 . S
C1059 C1063 1.385 . S
C1060 H1041 0.951 . S
C1060 C1058 1.388 . S
C1060 C1061 1.366 . S
C1061 C1060 1.366 . S
C1061 C1062 1.414 . S
C1061 C1064 1.499 . S
C1062 H1042 0.950 . S
C1062 C1061 1.414 . S
C1062 C1063 1.374 . S
C1063 H1043 0.950 . S
C1063 C1059 1.385 . S
C1063 C1062 1.374 . S
C1064 C1061 1.499 . S
C1064 C1065 1.373 . S
C1064 C1066 1.389 . S
C1065 H1044 0.950 . S
C1065 C1064 1.373 . S
C1065 C1081 1.377 . S
C1066 C1064 1.389 . S
C1066 C1067 1.524 . S
C1066 C1080 1.377 . S
C1067 C1066 1.524 . S
C1067 C1068 1.397 . S
C1067 C1072 1.363 . S
C1068 H1045 0.950 . S
C1068 C1067 1.397 . S
C1068 C1069 1.334 . S
C1069 H1046 0.950 . S
C1069 C1068 1.334 . S
C1069 C1070 1.287 . S
C1070 C1069 1.287 . S
C1070 C1071 1.524 . S
C1070 H1089 0.913 . S
C1071 H1047 0.950 . S
C1071 C1070 1.524 . S
C1071 C1072 1.415 . S
C1072 H1048 0.950 . S
C1072 C1067 1.363 . S
C1072 C1071 1.415 . S
C1073 H1049 0.951 . S
C1073 C1074 1.366 . S
C1073 C1075 1.388 . S
C1074 C1073 1.366 . S
C1074 C1078 1.385 . S
C1075 H1050 0.951 . S
C1075 C1073 1.388 . S
C1075 C1076 1.366 . S
C1076 C1075 1.366 . S
C1076 C1077 1.414 . S
C1076 C1079 1.499 . S
C1077 H1051 0.950 . S
C1077 C1076 1.414 . S
C1077 C1078 1.374 . S
C1078 H1052 0.950 . S
C1078 C1074 1.385 . S
C1078 C1077 1.374 . S
C1079 C1076 1.499 . S
C1079 C1080 1.373 . S
C1079 C1081 1.389 . S
C1080 H1053 0.950 . S
C1080 C1066 1.377 . S
C1080 C1079 1.373 . S
C1081 C1065 1.377 . S
C1081 C1079 1.389 . S
C1081 C1082 1.524 . S
C1082 C1081 1.524 . S
C1082 C1083 1.397 . S
C1082 C1087 1.363 . S
C1083 H1054 0.950 . S
C1083 C1082 1.397 . S
C1083 C1084 1.334 . S
C1084 H1055 0.950 . S
C1084 C1083 1.334 . S
C1084 C1085 1.287 . S
C1085 C1084 1.287 . S
C1085 C1086 1.524 . S
C1085 H1088 0.999 . S
C1086 H1056 0.950 . S
C1086 C1085 1.524 . S
C1086 C1087 1.415 . S
C1087 H1057 0.950 . S
C1087 C1082 1.363 . S
C1087 C1086 1.415 . S
H1088 C1085 0.999 . S
H1089 C1070 0.913 . S
H1090 C1108 0.951 . S
H1091 C1110 0.951 . S
H1092 C1112 0.950 . S
H1093 C1113 0.950 . S
H1094 C1115 0.950 . S
H1095 C1118 0.950 . S
H1096 C1119 0.950 . S
H1097 C1121 0.950 . S
H1098 C1122 0.950 . S
H1099 C1123 0.951 . S
H1100 C1125 0.951 . S
H1101 C1127 0.950 . S
H1102 C1128 0.950 . S
H1103 C1130 0.950 . S
H1104 C1133 0.950 1_655 S
H1105 C1134 0.950 . S
H1106 C1136 0.950 . S
H1107 C1137 0.950 . S
C1108 H1090 0.951 . S
C1108 C1109 1.366 . S
C1108 C1110 1.388 . S
C1109 C1108 1.366 . S
C1109 C1113 1.385 . S
C1110 H1091 0.951 . S
C1110 C1108 1.388 . S
C1110 C1111 1.366 . S
C1111 C1110 1.366 . S
C1111 C1112 1.414 . S
C1111 C1114 1.499 . S
C1112 H1092 0.950 . S
C1112 C1111 1.414 . S
C1112 C1113 1.374 . S
C1113 H1093 0.950 . S
C1113 C1109 1.385 . S
C1113 C1112 1.374 . S
C1114 C1111 1.499 . S
C1114 C1115 1.373 . S
C1114 C1116 1.389 . S
C1115 H1094 0.950 . S
C1115 C1114 1.373 . S
C1115 C1131 1.377 . S
C1116 C1114 1.389 . S
C1116 C1117 1.524 . S
C1116 C1130 1.377 . S
C1117 C1116 1.524 . S
C1117 C1118 1.397 . S
C1117 C1122 1.363 . S
C1118 H1095 0.950 . S
C1118 C1117 1.397 . S
C1118 C1119 1.334 . S
C1119 H1096 0.950 . S
C1119 C1118 1.334 . S
C1119 C1120 1.287 . S
C1120 C1119 1.287 . S
C1120 C1121 1.524 . S
C1120 H1139 0.913 . S
C1121 H1097 0.950 . S
C1121 C1120 1.524 . S
C1121 C1122 1.415 . S
C1122 H1098 0.950 . S
C1122 C1117 1.363 . S
C1122 C1121 1.415 . S
C1123 H1099 0.951 . S
C1123 C1124 1.366 . S
C1123 C1125 1.388 . S
C1124 C1123 1.366 . S
C1124 C1128 1.385 . S
C1125 H1100 0.951 . S
C1125 C1123 1.388 . S
C1125 C1126 1.366 . S
C1126 C1125 1.366 . S
C1126 C1127 1.414 . S
C1126 C1129 1.499 . S
C1127 H1101 0.950 . S
C1127 C1126 1.414 . S
C1127 C1128 1.374 . S
C1128 H1102 0.950 . S
C1128 C1124 1.385 . S
C1128 C1127 1.374 . S
C1129 C1126 1.499 . S
C1129 C1130 1.373 . S
C1129 C1131 1.389 . S
C1130 H1103 0.950 . S
C1130 C1116 1.377 . S
C1130 C1129 1.373 . S
C1131 C1115 1.377 . S
C1131 C1129 1.389 . S
C1131 C1132 1.524 . S
C1132 C1131 1.524 . S
C1132 C1133 1.397 . S
C1132 C1137 1.363 . S
C1133 H1104 0.950 1_455 S
C1133 C1132 1.397 . S
C1133 C1134 1.334 1_455 S
C1134 H1105 0.950 . S
C1134 C1133 1.334 1_655 S
C1134 C1135 1.287 . S
C1135 C1134 1.287 . S
C1135 C1136 1.524 1_655 S
C1135 H1138 0.999 . S
C1136 H1106 0.950 . S
C1136 C1135 1.524 1_455 S
C1136 C1137 1.415 . S
C1137 H1107 0.950 . S
C1137 C1132 1.363 . S
C1137 C1136 1.415 . S
H1138 C1135 0.999 . S
H1139 C1120 0.913 . S
H1140 C1158 0.951 . S
H1141 C1160 0.951 . S
H1142 C1162 0.950 . S
H1143 C1163 0.950 . S
H1144 C1165 0.950 . S
H1145 C1168 0.950 . S
H1146 C1169 0.950 . S
H1147 C1171 0.950 . S
H1148 C1172 0.950 . S
H1149 C1173 0.951 . S
H1150 C1175 0.951 . S
H1151 C1177 0.950 . S
H1152 C1178 0.950 . S
H1153 C1180 0.950 . S
H1154 C1183 0.950 . S
H1155 C1184 0.950 . S
H1156 C1186 0.950 . S
H1157 C1187 0.953 . S
C1158 H1140 0.951 . S
C1158 C1159 1.366 1_554 S
C1158 C1160 1.388 . S
C1159 C1158 1.366 1_556 S
C1159 C1163 1.385 . S
C1160 H1141 0.951 . S
C1160 C1158 1.388 . S
C1160 C1161 1.366 1_554 S
C1161 C1160 1.366 1_556 S
C1161 C1162 1.414 . S
C1161 C1164 1.499 . S
C1162 H1142 0.950 . S
C1162 C1161 1.414 . S
C1162 C1163 1.374 . S
C1163 H1143 0.950 . S
C1163 C1159 1.385 . S
C1163 C1162 1.374 . S
C1164 C1161 1.499 . S
C1164 C1165 1.373 . S
C1164 C1166 1.389 1_556 S
C1165 H1144 0.950 . S
C1165 C1164 1.373 . S
C1165 C1181 1.377 . S
C1166 C1164 1.389 1_554 S
C1166 C1167 1.524 . S
C1166 C1180 1.377 . S
C1167 C1166 1.524 . S
C1167 C1168 1.397 . S
C1167 C1172 1.363 . S
C1168 H1145 0.950 . S
C1168 C1167 1.397 . S
C1168 C1169 1.334 . S
C1169 H1146 0.950 . S
C1169 C1168 1.334 . S
C1169 C1170 1.287 . S
C1170 C1169 1.287 . S
C1170 C1171 1.524 . S
C1170 H1189 0.913 . S
C1171 H1147 0.950 . S
C1171 C1170 1.524 . S
C1171 C1172 1.415 . S
C1172 H1148 0.950 . S
C1172 C1167 1.363 . S
C1172 C1171 1.415 . S
C1173 H1149 0.951 . S
C1173 C1174 1.366 1_556 S
C1173 C1175 1.388 . S
C1174 C1173 1.366 1_554 S
C1174 C1178 1.385 1_565 S
C1175 H1150 0.951 . S
C1175 C1173 1.388 . S
C1175 C1176 1.366 1_556 S
C1176 C1175 1.366 1_554 S
C1176 C1177 1.414 1_565 S
C1176 C1179 1.499 . S
C1177 H1151 0.950 . S
C1177 C1176 1.414 1_545 S
C1177 C1178 1.374 . S
C1178 H1152 0.950 . S
C1178 C1174 1.385 1_545 S
C1178 C1177 1.374 . S
C1179 C1176 1.499 . S
C1179 C1180 1.373 . S
C1179 C1181 1.389 1_554 S
C1180 H1153 0.950 . S
C1180 C1166 1.377 . S
C1180 C1179 1.373 . S
C1181 C1165 1.377 . S
C1181 C1179 1.389 1_556 S
C1181 C1182 1.524 1_565 S
C1182 C1181 1.524 1_545 S
C1182 C1183 1.397 . S
C1182 C1187 1.361 1_545 S
C1183 H1154 0.950 . S
C1183 C1182 1.397 . S
C1183 C1184 1.334 . S
C1184 H1155 0.950 . S
C1184 C1183 1.334 . S
C1184 C1185 1.287 . S
C1185 C1184 1.287 . S
C1185 C1186 1.524 . S
C1185 H1188 0.999 . S
C1186 H1156 0.950 . S
C1186 C1185 1.524 . S
C1186 C1187 1.413 1_545 S
C1187 H1157 0.953 . S
C1187 C1182 1.361 1_565 S
C1187 C1186 1.413 1_565 S
H1188 C1185 0.999 . S
H1189 C1170 0.913 . S
H1190 C1208 0.951 . S
H1191 C1210 0.951 . S
H1192 C1212 0.950 . S
H1193 C1213 0.950 . S
H1194 C1215 0.950 . S
H1195 C1218 0.950 . S
H1196 C1219 0.950 . S
H1197 C1221 0.950 . S
H1198 C1222 0.950 . S
H1199 C1223 0.951 . S
H1200 C1225 0.951 . S
H1201 C1227 0.950 . S
H1202 C1228 0.950 . S
H1203 C1230 0.950 . S
H1204 C1233 0.950 . S
H1205 C1234 0.950 . S
H1206 C1236 0.950 . S
H1207 C1237 0.950 . S
C1208 H1190 0.951 . S
C1208 C1209 1.366 . S
C1208 C1210 1.388 . S
C1209 C1208 1.366 . S
C1209 C1213 1.385 . S
C1210 H1191 0.951 . S
C1210 C1208 1.388 . S
C1210 C1211 1.366 . S
C1211 C1210 1.366 . S
C1211 C1212 1.414 . S
C1211 C1214 1.499 . S
C1212 H1192 0.950 . S
C1212 C1211 1.414 . S
C1212 C1213 1.374 . S
C1213 H1193 0.950 . S
C1213 C1209 1.385 . S
C1213 C1212 1.374 . S
C1214 C1211 1.499 . S
C1214 C1215 1.373 . S
C1214 C1216 1.389 . S
C1215 H1194 0.950 . S
C1215 C1214 1.373 . S
C1215 C1231 1.377 . S
C1216 C1214 1.389 . S
C1216 C1217 1.524 . S
C1216 C1230 1.377 . S
C1217 C1216 1.524 . S
C1217 C1218 1.397 . S
C1217 C1222 1.363 . S
C1218 H1195 0.950 . S
C1218 C1217 1.397 . S
C1218 C1219 1.334 . S
C1219 H1196 0.950 . S
C1219 C1218 1.334 . S
C1219 C1220 1.287 . S
C1220 C1219 1.287 . S
C1220 C1221 1.524 . S
C1220 H1239 0.913 . S
C1221 H1197 0.950 . S
C1221 C1220 1.524 . S
C1221 C1222 1.415 . S
C1222 H1198 0.950 . S
C1222 C1217 1.363 . S
C1222 C1221 1.415 . S
C1223 H1199 0.951 . S
C1223 C1224 1.366 . S
C1223 C1225 1.388 . S
C1224 C1223 1.366 . S
C1224 C1228 1.385 . S
C1225 H1200 0.951 . S
C1225 C1223 1.388 . S
C1225 C1226 1.366 . S
C1226 C1225 1.366 . S
C1226 C1227 1.414 . S
C1226 C1229 1.499 . S
C1227 H1201 0.950 . S
C1227 C1226 1.414 . S
C1227 C1228 1.374 . S
C1228 H1202 0.950 . S
C1228 C1224 1.385 . S
C1228 C1227 1.374 . S
C1229 C1226 1.499 . S
C1229 C1230 1.373 . S
C1229 C1231 1.389 . S
C1230 H1203 0.950 . S
C1230 C1216 1.377 . S
C1230 C1229 1.373 . S
C1231 C1215 1.377 . S
C1231 C1229 1.389 . S
C1231 C1232 1.524 . S
C1232 C1231 1.524 . S
C1232 C1233 1.397 . S
C1232 C1237 1.363 . S
C1233 H1204 0.950 . S
C1233 C1232 1.397 . S
C1233 C1234 1.334 . S
C1234 H1205 0.950 . S
C1234 C1233 1.334 . S
C1234 C1235 1.287 . S
C1235 C1234 1.287 . S
C1235 C1236 1.524 . S
C1235 H1238 0.999 . S
C1236 H1206 0.950 . S
C1236 C1235 1.524 . S
C1236 C1237 1.415 . S
C1237 H1207 0.950 . S
C1237 C1232 1.363 . S
C1237 C1236 1.415 . S
H1238 C1235 0.999 . S
H1239 C1220 0.913 . S
H1240 C1258 0.951 . S
H1241 C1260 0.951 . S
H1242 C1262 0.950 . S
H1243 C1263 0.950 . S
H1244 C1265 0.950 . S
H1245 C1268 0.950 . S
H1246 C1269 0.950 . S
H1247 C1271 0.950 . S
H1248 C1272 0.950 . S
H1249 C1273 0.951 . S
H1250 C1275 0.951 . S
H1251 C1277 0.950 . S
H1252 C1278 0.950 . S
H1253 C1280 0.950 . S
H1254 C1283 0.950 . S
H1255 C1284 0.950 . S
H1256 C1286 0.950 . S
H1257 C1287 0.950 . S
C1258 H1240 0.951 . S
C1258 C1259 1.366 . S
C1258 C1260 1.388 . S
C1259 C1258 1.366 . S
C1259 C1263 1.385 . S
C1260 H1241 0.951 . S
C1260 C1258 1.388 . S
C1260 C1261 1.366 . S
C1261 C1260 1.366 . S
C1261 C1262 1.414 . S
C1261 C1264 1.499 . S
C1262 H1242 0.950 . S
C1262 C1261 1.414 . S
C1262 C1263 1.374 . S
C1263 H1243 0.950 . S
C1263 C1259 1.385 . S
C1263 C1262 1.374 . S
C1264 C1261 1.499 . S
C1264 C1265 1.373 . S
C1264 C1266 1.389 . S
C1265 H1244 0.950 . S
C1265 C1264 1.373 . S
C1265 C1281 1.377 . S
C1266 C1264 1.389 . S
C1266 C1267 1.524 . S
C1266 C1280 1.377 . S
C1267 C1266 1.524 . S
C1267 C1268 1.397 . S
C1267 C1272 1.363 . S
C1268 H1245 0.950 . S
C1268 C1267 1.397 . S
C1268 C1269 1.334 . S
C1269 H1246 0.950 . S
C1269 C1268 1.334 . S
C1269 C1270 1.287 . S
C1270 C1269 1.287 . S
C1270 C1271 1.524 . S
C1270 H1289 0.913 . S
C1271 H1247 0.950 . S
C1271 C1270 1.524 . S
C1271 C1272 1.415 . S
C1272 H1248 0.950 . S
C1272 C1267 1.363 . S
C1272 C1271 1.415 . S
C1273 H1249 0.951 . S
C1273 C1274 1.366 . S
C1273 C1275 1.388 . S
C1274 C1273 1.366 . S
C1274 C1278 1.385 . S
C1275 H1250 0.951 . S
C1275 C1273 1.388 . S
C1275 C1276 1.366 . S
C1276 C1275 1.366 . S
C1276 C1277 1.414 . S
C1276 C1279 1.499 . S
C1277 H1251 0.950 . S
C1277 C1276 1.414 . S
C1277 C1278 1.374 . S
C1278 H1252 0.950 . S
C1278 C1274 1.385 . S
C1278 C1277 1.374 . S
C1279 C1276 1.499 . S
C1279 C1280 1.373 . S
C1279 C1281 1.389 . S
C1280 H1253 0.950 . S
C1280 C1266 1.377 . S
C1280 C1279 1.373 . S
C1281 C1265 1.377 . S
C1281 C1279 1.389 . S
C1281 C1282 1.524 . S
C1282 C1281 1.524 . S
C1282 C1283 1.397 1_554 S
C1282 C1287 1.363 . S
C1283 H1254 0.950 . S
C1283 C1282 1.397 1_556 S
C1283 C1284 1.334 . S
C1284 H1255 0.950 . S
C1284 C1283 1.334 . S
C1284 C1285 1.287 . S
C1285 C1284 1.287 . S
C1285 C1286 1.524 . S
C1285 H1288 0.999 . S
C1286 H1256 0.950 . S
C1286 C1285 1.524 . S
C1286 C1287 1.415 1_556 S
C1287 H1257 0.950 . S
C1287 C1282 1.363 . S
C1287 C1286 1.415 1_554 S
H1288 C1285 0.999 . S
H1289 C1270 0.913 . S
H1290 C1308 0.951 . S
H1291 C1310 0.951 . S
H1292 C1312 0.950 . S
H1293 C1313 0.950 . S
H1294 C1315 0.950 . S
H1295 C1318 0.950 . S
H1296 C1319 0.950 . S
H1297 C1321 0.950 . S
H1298 C1322 0.950 . S
H1299 C1323 0.951 . S
H1300 C1325 0.951 . S
H1301 C1327 0.950 . S
H1302 C1328 0.950 . S
H1303 C1330 0.950 . S
H1304 C1333 0.950 . S
H1305 C1334 0.950 . S
H1306 C1336 0.950 . S
H1307 C1337 0.950 . S
C1308 H1290 0.951 . S
C1308 C1309 1.366 . S
C1308 C1310 1.388 . S
C1309 C1308 1.366 . S
C1309 C1313 1.385 . S
C1310 H1291 0.951 . S
C1310 C1308 1.388 . S
C1310 C1311 1.366 . S
C1311 C1310 1.366 . S
C1311 C1312 1.414 . S
C1311 C1314 1.499 . S
C1312 H1292 0.950 . S
C1312 C1311 1.414 . S
C1312 C1313 1.374 . S
C1313 H1293 0.950 . S
C1313 C1309 1.385 . S
C1313 C1312 1.374 . S
C1314 C1311 1.499 . S
C1314 C1315 1.373 . S
C1314 C1316 1.389 . S
C1315 H1294 0.950 . S
C1315 C1314 1.373 . S
C1315 C1331 1.377 . S
C1316 C1314 1.389 . S
C1316 C1317 1.524 . S
C1316 C1330 1.377 . S
C1317 C1316 1.524 . S
C1317 C1318 1.397 . S
C1317 C1322 1.363 . S
C1318 H1295 0.950 . S
C1318 C1317 1.397 . S
C1318 C1319 1.334 . S
C1319 H1296 0.950 . S
C1319 C1318 1.334 . S
C1319 C1320 1.287 . S
C1320 C1319 1.287 . S
C1320 C1321 1.524 . S
C1320 H1339 0.913 . S
C1321 H1297 0.950 . S
C1321 C1320 1.524 . S
C1321 C1322 1.415 . S
C1322 H1298 0.950 . S
C1322 C1317 1.363 . S
C1322 C1321 1.415 . S
C1323 H1299 0.951 . S
C1323 C1324 1.366 . S
C1323 C1325 1.388 . S
C1324 C1323 1.366 . S
C1324 C1328 1.385 . S
C1325 H1300 0.951 . S
C1325 C1323 1.388 . S
C1325 C1326 1.366 . S
C1326 C1325 1.366 . S
C1326 C1327 1.414 . S
C1326 C1329 1.499 . S
C1327 H1301 0.950 . S
C1327 C1326 1.414 . S
C1327 C1328 1.374 . S
C1328 H1302 0.950 . S
C1328 C1324 1.385 . S
C1328 C1327 1.374 . S
C1329 C1326 1.499 . S
C1329 C1330 1.373 . S
C1329 C1331 1.389 . S
C1330 H1303 0.950 . S
C1330 C1316 1.377 . S
C1330 C1329 1.373 . S
C1331 C1315 1.377 . S
C1331 C1329 1.389 . S
C1331 C1332 1.524 . S
C1332 C1331 1.524 . S
C1332 C1333 1.397 . S
C1332 C1337 1.363 . S
C1333 H1304 0.950 . S
C1333 C1332 1.397 . S
C1333 C1334 1.334 . S
C1334 H1305 0.950 . S
C1334 C1333 1.334 . S
C1334 C1335 1.287 . S
C1335 C1334 1.287 . S
C1335 C1336 1.524 . S
C1335 H1338 0.999 . S
C1336 H1306 0.950 . S
C1336 C1335 1.524 . S
C1336 C1337 1.415 . S
C1337 H1307 0.950 . S
C1337 C1332 1.363 . S
C1337 C1336 1.415 . S
H1338 C1335 0.999 . S
H1339 C1320 0.913 . S
H1340 C1358 0.951 1_554 S
H1341 C1360 0.951 1_454 S
H1342 C1362 0.950 . S
H1343 C1363 0.950 . S
H1344 C1365 0.950 . S
H1345 C1368 0.950 . S
H1346 C1369 0.950 . S
H1347 C1371 0.950 . S
H1348 C1372 0.950 . S
H1349 C1373 0.943 1_655 S
H1350 C1375 0.951 . S
H1351 C1377 0.950 . S
H1352 C1378 0.950 . S
H1353 C1380 0.950 . S
H1354 C1383 0.940 1_554 S
H1355 C1384 0.950 . S
H1356 C1386 0.950 . S
H1357 C1387 0.950 . S
C1358 H1340 0.951 1_556 S
C1358 C1359 1.366 . S
C1358 C1360 1.388 . S
C1359 C1358 1.366 . S
C1359 C1363 1.385 . S
C1360 H1341 0.951 1_656 S
C1360 C1358 1.388 . S
C1360 C1361 1.366 . S
C1361 C1360 1.366 . S
C1361 C1362 1.414 . S
C1361 C1364 1.499 . S
C1362 H1342 0.950 . S
C1362 C1361 1.414 . S
C1362 C1363 1.374 . S
C1363 H1343 0.950 . S
C1363 C1359 1.385 . S
C1363 C1362 1.374 . S
C1364 C1361 1.499 . S
C1364 C1365 1.373 . S
C1364 C1366 1.389 1_655 S
C1365 H1344 0.950 . S
C1365 C1364 1.373 . S
C1365 C1381 1.377 . S
C1366 C1364 1.389 1_455 S
C1366 C1367 1.524 . S
C1366 C1380 1.377 . S
C1367 C1366 1.524 . S
C1367 C1368 1.397 . S
C1367 C1372 1.363 1_556 S
C1368 H1345 0.950 . S
C1368 C1367 1.397 . S
C1368 C1369 1.334 . S
C1369 H1346 0.950 . S
C1369 C1368 1.334 . S
C1369 C1370 1.287 . S
C1370 C1369 1.287 . S
C1370 C1371 1.524 1_556 S
C1370 H1389 0.913 . S
C1371 H1347 0.950 . S
C1371 C1370 1.524 1_554 S
C1371 C1372 1.415 . S
C1372 H1348 0.950 . S
C1372 C1367 1.363 1_554 S
C1372 C1371 1.415 . S
C1373 H1349 0.943 1_455 S
C1373 C1374 1.380 . S
C1373 C1375 1.383 1_455 S
C1374 C1373 1.380 . S
C1374 C1378 1.385 1_556 S
C1375 H1350 0.951 . S
C1375 C1373 1.383 1_655 S
C1375 C1376 1.366 1_655 S
C1376 C1375 1.366 1_455 S
C1376 C1377 1.414 1_556 S
C1376 C1379 1.499 1_455 S
C1377 H1351 0.950 . S
C1377 C1376 1.414 1_554 S
C1377 C1378 1.374 . S
C1378 H1352 0.950 . S
C1378 C1374 1.385 1_554 S
C1378 C1377 1.374 . S
C1379 C1376 1.499 1_655 S
C1379 C1380 1.373 1_655 S
C1379 C1381 1.389 . S
C1380 H1353 0.950 . S
C1380 C1366 1.377 . S
C1380 C1379 1.373 1_455 S
C1381 C1365 1.377 . S
C1381 C1379 1.389 . S
C1381 C1382 1.524 . S
C1382 C1381 1.524 . S
C1382 C1383 1.407 . S
C1382 C1387 1.363 . S
C1383 H1354 0.940 1_556 S
C1383 C1382 1.407 . S
C1383 C1384 1.334 1_556 S
C1384 H1355 0.950 . S
C1384 C1383 1.334 1_554 S
C1384 C1385 1.287 1_554 S
C1385 C1384 1.287 1_556 S
C1385 C1386 1.524 . S
C1385 H1388 0.999 . S
C1386 H1356 0.950 . S
C1386 C1385 1.524 . S
C1386 C1387 1.415 . S
C1387 H1357 0.950 . S
C1387 C1382 1.363 . S
C1387 C1386 1.415 . S
H1388 C1385 0.999 . S
H1389 C1370 0.913 . S
H1390 C1408 0.951 . S
H1391 C1410 0.951 . S
H1392 C1412 0.950 . S
H1393 C1413 0.950 . S
H1394 C1415 0.950 . S
H1395 C1418 0.950 . S
H1396 C1419 0.950 1_556 S
H1397 C1421 0.950 . S
H1398 C1422 0.950 . S
H1399 C1423 0.951 . S
H1400 C1425 0.951 . S
H1401 C1427 0.950 . S
H1402 C1428 0.950 . S
H1403 C1430 0.950 . S
H1404 C1433 0.950 . S
H1405 C1434 0.950 . S
H1406 C1436 0.950 . S
H1407 C1437 0.950 . S
C1408 H1390 0.951 . S
C1408 C1409 1.366 . S
C1408 C1410 1.388 . S
C1409 C1408 1.366 . S
C1409 C1413 1.385 . S
C1410 H1391 0.951 . S
C1410 C1408 1.388 . S
C1410 C1411 1.366 . S
C1411 C1410 1.366 . S
C1411 C1412 1.414 . S
C1411 C1414 1.499 . S
C1412 H1392 0.950 . S
C1412 C1411 1.414 . S
C1412 C1413 1.374 . S
C1413 H1393 0.950 . S
C1413 C1409 1.385 . S
C1413 C1412 1.374 . S
C1414 C1411 1.499 . S
C1414 C1415 1.373 . S
C1414 C1416 1.389 . S
C1415 H1394 0.950 . S
C1415 C1414 1.373 . S
C1415 C1431 1.377 . S
C1416 C1414 1.389 . S
C1416 C1417 1.524 . S
C1416 C1430 1.377 . S
C1417 C1416 1.524 . S
C1417 C1418 1.397 . S
C1417 C1422 1.363 . S
C1418 H1395 0.950 . S
C1418 C1417 1.397 . S
C1418 C1419 1.334 . S
C1419 H1396 0.950 1_554 S
C1419 C1418 1.334 . S
C1419 C1420 1.287 . S
C1420 C1419 1.287 . S
C1420 C1421 1.524 . S
C1420 H1439 0.913 . S
C1421 H1397 0.950 . S
C1421 C1420 1.524 . S
C1421 C1422 1.415 . S
C1422 H1398 0.950 . S
C1422 C1417 1.363 . S
C1422 C1421 1.415 . S
C1423 H1399 0.951 . S
C1423 C1424 1.366 . S
C1423 C1425 1.388 . S
C1424 C1423 1.366 . S
C1424 C1428 1.385 . S
C1425 H1400 0.951 . S
C1425 C1423 1.388 . S
C1425 C1426 1.366 . S
C1426 C1425 1.366 . S
C1426 C1427 1.414 . S
C1426 C1429 1.499 . S
C1427 H1401 0.950 . S
C1427 C1426 1.414 . S
C1427 C1428 1.374 . S
C1428 H1402 0.950 . S
C1428 C1424 1.385 . S
C1428 C1427 1.374 . S
C1429 C1426 1.499 . S
C1429 C1430 1.373 . S
C1429 C1431 1.389 . S
C1430 H1403 0.950 . S
C1430 C1416 1.377 . S
C1430 C1429 1.373 . S
C1431 C1415 1.377 . S
C1431 C1429 1.389 . S
C1431 C1432 1.524 . S
C1432 C1431 1.524 . S
C1432 C1433 1.397 . S
C1432 C1437 1.363 . S
C1433 H1404 0.950 . S
C1433 C1432 1.397 . S
C1433 C1434 1.334 . S
C1434 H1405 0.950 . S
C1434 C1433 1.334 . S
C1434 C1435 1.287 . S
C1435 C1434 1.287 . S
C1435 C1436 1.524 . S
C1435 H1438 0.999 . S
C1436 H1406 0.950 . S
C1436 C1435 1.524 . S
C1436 C1437 1.415 . S
C1437 H1407 0.950 . S
C1437 C1432 1.363 . S
C1437 C1436 1.415 . S
H1438 C1435 0.999 . S
H1439 C1420 0.913 . S
H1440 C1458 0.951 . S
H1441 C1460 0.951 . S
H1442 C1462 0.950 . S
H1443 C1463 0.950 . S
H1444 C1465 0.950 . S
H1445 C1468 0.950 . S
H1446 C1469 0.950 . S
H1447 C1471 0.950 . S
H1448 C1472 0.950 . S
H1449 C1473 0.951 . S
H1450 C1475 0.951 . S
H1451 C1477 0.950 . S
H1452 C1478 0.950 . S
H1453 C1480 0.950 . S
H1454 C1483 0.950 . S
H1455 C1484 0.950 . S
H1456 C1486 0.950 . S
H1457 C1487 0.950 . S
C1458 H1440 0.951 . S
C1458 C1459 1.366 . S
C1458 C1460 1.388 . S
C1459 C1458 1.366 . S
C1459 C1463 1.385 . S
C1460 H1441 0.951 . S
C1460 C1458 1.388 . S
C1460 C1461 1.366 . S
C1461 C1460 1.366 . S
C1461 C1462 1.414 . S
C1461 C1464 1.499 . S
C1462 H1442 0.950 . S
C1462 C1461 1.414 . S
C1462 C1463 1.374 . S
C1463 H1443 0.950 . S
C1463 C1459 1.385 . S
C1463 C1462 1.374 . S
C1464 C1461 1.499 . S
C1464 C1465 1.373 . S
C1464 C1466 1.389 . S
C1465 H1444 0.950 . S
C1465 C1464 1.373 . S
C1465 C1481 1.377 . S
C1466 C1464 1.389 . S
C1466 C1467 1.524 . S
C1466 C1480 1.377 . S
C1467 C1466 1.524 . S
C1467 C1468 1.397 1_455 S
C1467 C1472 1.363 . S
C1468 H1445 0.950 . S
C1468 C1467 1.397 1_655 S
C1468 C1469 1.334 . S
C1469 H1446 0.950 . S
C1469 C1468 1.334 . S
C1469 C1470 1.287 . S
C1470 C1469 1.287 . S
C1470 C1471 1.524 1_655 S
C1470 H1489 0.913 . S
C1471 H1447 0.950 . S
C1471 C1470 1.524 1_455 S
C1471 C1472 1.415 . S
C1472 H1448 0.950 . S
C1472 C1467 1.363 . S
C1472 C1471 1.415 . S
C1473 H1449 0.951 . S
C1473 C1474 1.366 . S
C1473 C1475 1.388 . S
C1474 C1473 1.366 . S
C1474 C1478 1.385 . S
C1475 H1450 0.951 . S
C1475 C1473 1.388 . S
C1475 C1476 1.366 . S
C1476 C1475 1.366 . S
C1476 C1477 1.414 . S
C1476 C1479 1.499 . S
C1477 H1451 0.950 . S
C1477 C1476 1.414 . S
C1477 C1478 1.374 . S
C1478 H1452 0.950 . S
C1478 C1474 1.385 . S
C1478 C1477 1.374 . S
C1479 C1476 1.499 . S
C1479 C1480 1.373 . S
C1479 C1481 1.389 . S
C1480 H1453 0.950 . S
C1480 C1466 1.377 . S
C1480 C1479 1.373 . S
C1481 C1465 1.377 . S
C1481 C1479 1.389 . S
C1481 C1482 1.524 . S
C1482 C1481 1.524 . S
C1482 C1483 1.397 . S
C1482 C1487 1.363 . S
C1483 H1454 0.950 . S
C1483 C1482 1.397 . S
C1483 C1484 1.334 . S
C1484 H1455 0.950 . S
C1484 C1483 1.334 . S
C1484 C1485 1.287 . S
C1485 C1484 1.287 . S
C1485 C1486 1.524 . S
C1485 H1488 0.999 . S
C1486 H1456 0.950 . S
C1486 C1485 1.524 . S
C1486 C1487 1.415 . S
C1487 H1457 0.950 . S
C1487 C1482 1.363 . S
C1487 C1486 1.415 . S
H1488 C1485 0.999 . S
H1489 C1470 0.913 . S
H1490 C1508 0.951 . S
H1491 C1510 0.951 . S
H1492 C1512 0.950 . S
H1493 C1513 0.950 . S
H1494 C1515 0.950 . S
H1495 C1518 0.950 . S
H1496 C1519 0.950 . S
H1497 C1521 0.950 . S
H1498 C1522 0.950 . S
H1499 C1523 0.951 . S
H1500 C1525 0.951 . S
H1501 C1527 0.950 . S
H1502 C1528 0.950 . S
H1503 C1530 0.950 . S
H1504 C1533 0.950 . S
H1505 C1534 0.950 . S
H1506 C1536 0.950 . S
H1507 C1537 0.950 . S
C1508 H1490 0.951 . S
C1508 C1509 1.366 . S
C1508 C1510 1.388 . S
C1509 C1508 1.366 . S
C1509 C1513 1.385 . S
C1510 H1491 0.951 . S
C1510 C1508 1.388 . S
C1510 C1511 1.366 . S
C1511 C1510 1.366 . S
C1511 C1512 1.414 . S
C1511 C1514 1.499 . S
C1512 H1492 0.950 . S
C1512 C1511 1.414 . S
C1512 C1513 1.374 . S
C1513 H1493 0.950 . S
C1513 C1509 1.385 . S
C1513 C1512 1.374 . S
C1514 C1511 1.499 . S
C1514 C1515 1.373 . S
C1514 C1516 1.389 . S
C1515 H1494 0.950 . S
C1515 C1514 1.373 . S
C1515 C1531 1.377 . S
C1516 C1514 1.389 . S
C1516 C1517 1.524 . S
C1516 C1530 1.377 . S
C1517 C1516 1.524 . S
C1517 C1518 1.397 . S
C1517 C1522 1.363 . S
C1518 H1495 0.950 . S
C1518 C1517 1.397 . S
C1518 C1519 1.334 . S
C1519 H1496 0.950 . S
C1519 C1518 1.334 . S
C1519 C1520 1.287 . S
C1520 C1519 1.287 . S
C1520 C1521 1.524 . S
C1520 H1539 0.913 . S
C1521 H1497 0.950 . S
C1521 C1520 1.524 . S
C1521 C1522 1.415 . S
C1522 H1498 0.950 . S
C1522 C1517 1.363 . S
C1522 C1521 1.415 . S
C1523 H1499 0.951 . S
C1523 C1524 1.366 . S
C1523 C1525 1.388 . S
C1524 C1523 1.366 . S
C1524 C1528 1.385 . S
C1525 H1500 0.951 . S
C1525 C1523 1.388 . S
C1525 C1526 1.366 . S
C1526 C1525 1.366 . S
C1526 C1527 1.414 . S
C1526 C1529 1.499 . S
C1527 H1501 0.950 . S
C1527 C1526 1.414 . S
C1527 C1528 1.374 . S
C1528 H1502 0.950 . S
C1528 C1524 1.385 . S
C1528 C1527 1.374 . S
C1529 C1526 1.499 . S
C1529 C1530 1.373 . S
C1529 C1531 1.389 . S
C1530 H1503 0.950 . S
C1530 C1516 1.377 . S
C1530 C1529 1.373 . S
C1531 C1515 1.377 . S
C1531 C1529 1.389 . S
C1531 C1532 1.524 . S
C1532 C1531 1.524 . S
C1532 C1533 1.397 . S
C1532 C1537 1.363 . S
C1533 H1504 0.950 . S
C1533 C1532 1.397 . S
C1533 C1534 1.334 . S
C1534 H1505 0.950 . S
C1534 C1533 1.334 . S
C1534 C1535 1.287 . S
C1535 C1534 1.287 . S
C1535 C1536 1.524 . S
C1535 H1538 0.999 . S
C1536 H1506 0.950 . S
C1536 C1535 1.524 . S
C1536 C1537 1.415 . S
C1537 H1507 0.950 . S
C1537 C1532 1.363 . S
C1537 C1536 1.415 . S
H1538 C1535 0.999 . S
H1539 C1520 0.913 . S
C359 C29 1.565 . S
C374 C259 1.487 . S
C409 C49 1.454 . S
C424 C293 1.374 1_565 S
C474 C305 1.426 . S
C459 C93 1.509 . S
C509 C119 1.437 . S
C524 C339 1.359 . S
C574 C296 1.411 . S
C559 C17 1.490 . S
C624 C276 1.438 1_565 S
C609 C61 1.518 . S
C674 C323 1.357 . S
C659 C81 1.441 . S
C724 C314 1.440 . S
C709 C125 1.520 . S
C759 C23 1.483 . S
C774 C322 1.400 . S
C824 C284 1.371 . S
C809 C87 1.455 . S
C859 C113 1.524 . S
C874 C260 1.432 . S
C909 C55 1.487 . S
C924 C317 1.407 . S
C974 C275 1.535 . S
C959 C157 1.668 . S
C1009 C189 1.539 . S
C1024 C297 1.549 . S
C1059 C221 1.695 . S
C1074 C302 1.555 . S
C1109 C253 1.567 . S
C1124 C335 1.585 . S
C1159 C145 1.731 . S
C1174 C280 1.603 . S
C1224 C272 1.544 . S
C1209 C183 1.544 . S
C1274 C326 1.578 . S
C1259 C209 1.714 . S
C1324 C318 1.523 . S
C1309 C247 1.526 . S
C1359 C151 1.667 . S
C1374 C338 1.539 . S
C1424 C281 1.556 . S
C1409 C215 1.693 . S
C1474 C263 1.568 . S
C1459 C241 1.583 . S
C1509 C177 1.598 . S
C1524 C301 1.593 . S
