# Generated by pormake.
# Topology ant, (3,6)-cn, num edge types: 1
# Building blocks:
#     Node 0, Type 0, BuildingBlock: CUQRIR_clean_linker_1, # of connection points: 3
#     Node 1, Type 0, BuildingBlock: CUQRIR_clean_linker_1, # of connection points: 3
#     Node 2, Type 0, BuildingBlock: CUQRIR_clean_linker_1, # of connection points: 3
#     Node 3, Type 0, BuildingBlock: CUQRIR_clean_linker_1, # of connection points: 3
#     Node 4, Type 0, BuildingBlock: CUQRIR_clean_linker_1, # of connection points: 3
#     Node 5, Type 0, BuildingBlock: CUQRIR_clean_linker_1, # of connection points: 3
#     Node 6, Type 0, BuildingBlock: CUQRIR_clean_linker_1, # of connection points: 3
#     Node 7, Type 0, BuildingBlock: CUQRIR_clean_linker_1, # of connection points: 3
#     Node 8, Type 1, BuildingBlock: MIDCAF_clean_sbu_0, # of connection points: 6
#     Node 9, Type 1, BuildingBlock: MIDCAF_clean_sbu_0, # of connection points: 6
#     Node 10, Type 1, BuildingBlock: MIDCAF_clean_sbu_0, # of connection points: 6
#     Node 11, Type 1, BuildingBlock: MIDCAF_clean_sbu_0, # of connection points: 6
#     Edge 12, Type (0, 1), BuildingBlock: ZUJKAS_clean_linker_0, # of connection points: 2
#     Edge 13, Type (0, 1), BuildingBlock: ZUJKAS_clean_linker_0, # of connection points: 2
#     Edge 14, Type (0, 1), BuildingBlock: ZUJKAS_clean_linker_0, # of connection points: 2
#     Edge 15, Type (0, 1), BuildingBlock: ZUJKAS_clean_linker_0, # of connection points: 2
#     Edge 16, Type (0, 1), BuildingBlock: ZUJKAS_clean_linker_0, # of connection points: 2
#     Edge 17, Type (0, 1), BuildingBlock: ZUJKAS_clean_linker_0, # of connection points: 2
#     Edge 18, Type (0, 1), BuildingBlock: ZUJKAS_clean_linker_0, # of connection points: 2
#     Edge 19, Type (0, 1), BuildingBlock: ZUJKAS_clean_linker_0, # of connection points: 2
#     Edge 20, Type (0, 1), BuildingBlock: ZUJKAS_clean_linker_0, # of connection points: 2
#     Edge 21, Type (0, 1), BuildingBlock: ZUJKAS_clean_linker_0, # of connection points: 2
#     Edge 22, Type (0, 1), BuildingBlock: ZUJKAS_clean_linker_0, # of connection points: 2
#     Edge 23, Type (0, 1), BuildingBlock: ZUJKAS_clean_linker_0, # of connection points: 2
#     Edge 24, Type (0, 1), BuildingBlock: ZUJKAS_clean_linker_0, # of connection points: 2
#     Edge 25, Type (0, 1), BuildingBlock: ZUJKAS_clean_linker_0, # of connection points: 2
#     Edge 26, Type (0, 1), BuildingBlock: ZUJKAS_clean_linker_0, # of connection points: 2
#     Edge 27, Type (0, 1), BuildingBlock: ZUJKAS_clean_linker_0, # of connection points: 2
#     Edge 28, Type (0, 1), BuildingBlock: ZUJKAS_clean_linker_0, # of connection points: 2
#     Edge 29, Type (0, 1), BuildingBlock: ZUJKAS_clean_linker_0, # of connection points: 2
#     Edge 30, Type (0, 1), BuildingBlock: ZUJKAS_clean_linker_0, # of connection points: 2
#     Edge 31, Type (0, 1), BuildingBlock: ZUJKAS_clean_linker_0, # of connection points: 2
#     Edge 32, Type (0, 1), BuildingBlock: ZUJKAS_clean_linker_0, # of connection points: 2
#     Edge 33, Type (0, 1), BuildingBlock: ZUJKAS_clean_linker_0, # of connection points: 2
#     Edge 34, Type (0, 1), BuildingBlock: ZUJKAS_clean_linker_0, # of connection points: 2
#     Edge 35, Type (0, 1), BuildingBlock: ZUJKAS_clean_linker_0, # of connection points: 2
# Relax obj value: 0.108
# Max RMSD: 0.219
# Mean RMSD: 0.148
data_MOF--net-ant--node1-MIDCAF_clean_sbu_0--node2-CUQRIR_clean_linker_1--edge1-ZUJKAS_clean_linker_0
_symmetry_space_group_name_H-M    P1
_symmetry_Int_Tables_number       1
_symmetry_cell_setting            triclinic
loop_
_symmetry_equiv_pos_as_xyz
'x, y, z'
_cell_length_a     35.17326
_cell_length_b     34.943773
_cell_length_c     87.705702
_cell_angle_alpha  85.001154
_cell_angle_beta   96.086446
_cell_angle_gamma 89.762429
loop_
_atom_site_label
_atom_site_type_symbol
_atom_site_fract_x
_atom_site_fract_y
_atom_site_fract_z
_atom_type_partial_charge
C0 C 0.15844 0.27789 0.07959 0.0
N1 N 0.15765 0.24615 0.07171 0.0
N2 N 0.1474 0.30946 0.07001 0.0
C3 C 0.16981 0.27794 0.0966 0.0
C4 C 0.14006 0.29579 0.05602 0.0
N5 N 0.1465 0.25735 0.05704 0.0
C6 C 0.12702 0.31998 0.04134 0.0
H7 H 0.14494 0.26917 0.10282 0.0
H8 H 0.17867 0.30681 0.09981 0.0
H9 H 0.19341 0.25693 0.10036 0.0
H10 H 0.11295 0.34704 0.04357 0.0
H11 H 0.107 0.30373 0.03374 0.0
H12 H 0.15229 0.3275 0.03517 0.0
C13 C 0.08332 0.79409 0.34013 0.0
N14 N 0.10976 0.80025 0.33 0.0
N15 N 0.04754 0.7989 0.33281 0.0
C16 C 0.09206 0.78456 0.35718 0.0
C17 C 0.05298 0.80799 0.31792 0.0
N18 N 0.09073 0.80933 0.31622 0.0
C19 C 0.0215 0.81107 0.30475 0.0
H20 H 0.06839 0.79433 0.36338 0.0
H21 H 0.1191 0.79807 0.36153 0.0
H22 H 0.09521 0.75295 0.3596 0.0
H23 H 0.01606 0.84187 0.30088 0.0
H24 H 0.99453 0.79818 0.30809 0.0
H25 H 0.03013 0.79662 0.29485 0.0
C26 C 0.666 0.772 0.58254 0.0
N27 N 0.662 0.7396 0.57509 0.0
N28 N 0.65032 0.80267 0.57347 0.0
C29 C 0.68486 0.77369 0.59866 0.0
C30 C 0.63644 0.78776 0.5603 0.0
N31 N 0.64317 0.74939 0.56134 0.0
C32 C 0.61668 0.81062 0.54635 0.0
H33 H 0.67916 0.74717 0.60593 0.0
H34 H 0.67488 0.79908 0.60395 0.0
H35 H 0.71622 0.77587 0.59831 0.0
H36 H 0.62645 0.8007 0.53572 0.0
H37 H 0.62187 0.84183 0.54665 0.0
H38 H 0.58545 0.80582 0.54595 0.0
C39 C 0.59181 0.30207 0.83968 0.0
N40 N 0.61732 0.31162 0.82949 0.0
N41 N 0.55562 0.30767 0.83288 0.0
C42 C 0.60208 0.28462 0.85587 0.0
C43 C 0.56011 0.32135 0.81828 0.0
N44 N 0.5976 0.32374 0.81616 0.0
C45 C 0.52778 0.32846 0.8056 0.0
H46 H 0.57979 0.29113 0.86334 0.0
H47 H 0.63004 0.29532 0.86074 0.0
H48 H 0.60428 0.25296 0.85577 0.0
H49 H 0.53232 0.35558 0.79853 0.0
H50 H 0.49977 0.33046 0.81024 0.0
H51 H 0.52711 0.30466 0.79798 0.0
C52 C 0.05329 0.69597 0.91252 0.0
N53 N 0.06081 0.71551 0.92519 0.0
N54 N 0.04496 0.65884 0.91659 0.0
C55 C 0.05177 0.71361 0.89621 0.0
C56 C 0.04795 0.65651 0.93218 0.0
N57 N 0.05702 0.69099 0.93736 0.0
C58 C 0.04565 0.61977 0.94237 0.0
H59 H 0.03262 0.69725 0.88834 0.0
H60 H 0.08095 0.71318 0.89251 0.0
H61 H 0.04169 0.74394 0.89535 0.0
H62 H 0.05442 0.59466 0.93659 0.0
H63 H 0.01571 0.61576 0.94503 0.0
H64 H 0.06416 0.6208 0.95339 0.0
C65 C 0.65563 0.80828 0.17171 0.0
N66 N 0.68371 0.80126 0.18355 0.0
N67 N 0.62102 0.81115 0.17707 0.0
C68 C 0.66177 0.81145 0.15496 0.0
C69 C 0.62905 0.80581 0.19253 0.0
N70 N 0.667 0.80014 0.19648 0.0
C71 C 0.59958 0.80484 0.2038 0.0
H72 H 0.63891 0.8291 0.14796 0.0
H73 H 0.66113 0.78227 0.15087 0.0
H74 H 0.69003 0.82415 0.15323 0.0
H75 H 0.59064 0.77469 0.2062 0.0
H76 H 0.57397 0.82234 0.19902 0.0
H77 H 0.61159 0.81551 0.21483 0.0
C78 C 0.55768 0.19435 0.41429 0.0
N79 N 0.5646 0.21459 0.4268 0.0
N80 N 0.55055 0.15713 0.41865 0.0
C81 C 0.55842 0.21063 0.3979 0.0
C82 C 0.55315 0.15548 0.43418 0.0
N83 N 0.56135 0.19036 0.43911 0.0
C84 C 0.54963 0.11934 0.44456 0.0
H85 H 0.54122 0.1931 0.38984 0.0
H86 H 0.5884 0.21063 0.39504 0.0
H87 H 0.54751 0.24071 0.39637 0.0
H88 H 0.57863 0.10693 0.44813 0.0
H89 H 0.53209 0.09777 0.43855 0.0
H90 H 0.53673 0.12555 0.45509 0.0
C91 C 0.15795 0.30669 0.67068 0.0
N92 N 0.18583 0.2993 0.68255 0.0
N93 N 0.12347 0.31079 0.67598 0.0
C94 C 0.16421 0.31024 0.65393 0.0
C95 C 0.1313 0.30582 0.69146 0.0
N96 N 0.1692 0.29938 0.69548 0.0
C97 C 0.10167 0.30558 0.70267 0.0
H98 H 0.19242 0.32312 0.65227 0.0
H99 H 0.14129 0.32795 0.64698 0.0
H100 H 0.16372 0.28117 0.64975 0.0
H101 H 0.07223 0.30354 0.69692 0.0
H102 H 0.10365 0.3326 0.70846 0.0
H103 H 0.10721 0.28124 0.71166 0.0
Zn104 Zn 0.18447 0.72146 0.14628 0.0
Zn105 Zn 0.09306 0.81799 0.11091 0.0
Zn106 Zn 0.14144 0.77185 0.12815 0.0
C107 C 0.10116 0.75488 0.09446 0.0
C108 C 0.16308 0.85627 0.11443 0.0
O109 O 0.11818 0.76339 0.15064 0.0
O110 O 0.15464 0.71818 0.16424 0.0
C111 C 0.16244 0.68437 0.12036 0.0
O112 O 0.12476 0.74501 0.10645 0.0
O113 O 0.08168 0.78551 0.09373 0.0
O114 O 0.12942 0.86011 0.10787 0.0
O115 O 0.17369 0.82515 0.12281 0.0
O116 O 0.18326 0.67856 0.13299 0.0
O117 O 0.14495 0.717 0.11675 0.0
O118 O 0.19898 0.79879 0.13192 0.0
O119 O 0.23052 0.75391 0.14776 0.0
C120 C 0.2298 0.78646 0.14024 0.0
O121 O 0.08912 0.78254 0.14032 0.0
O122 O 0.05306 0.82415 0.12465 0.0
C123 C 0.12723 0.742 0.16326 0.0
C124 C 0.05828 0.80328 0.13718 0.0
Zn125 Zn 0.55184 0.66143 0.36032 0.0
Zn126 Zn 0.63142 0.74361 0.39922 0.0
Zn127 Zn 0.59071 0.70358 0.38042 0.0
C128 C 0.56349 0.78459 0.39142 0.0
C129 C 0.67478 0.7393 0.37545 0.0
O130 O 0.58423 0.64467 0.39212 0.0
O131 O 0.55448 0.61285 0.37373 0.0
C132 C 0.5038 0.7223 0.36572 0.0
O133 O 0.5572 0.75673 0.38279 0.0
O134 O 0.59373 0.78483 0.40054 0.0
O135 O 0.67503 0.75626 0.38757 0.0
O136 O 0.64603 0.71851 0.37114 0.0
O137 O 0.50362 0.69197 0.35888 0.0
O138 O 0.53416 0.73233 0.37389 0.0
O139 O 0.62163 0.70277 0.3596 0.0
O140 O 0.5859 0.66882 0.34355 0.0
C141 C 0.61509 0.68898 0.34641 0.0
O142 O 0.60086 0.6685 0.40311 0.0
O143 O 0.64031 0.7047 0.41678 0.0
C144 C 0.56975 0.61335 0.3874 0.0
C145 C 0.62161 0.67416 0.41574 0.0
Zn146 Zn 0.59677 0.31284 0.61063 0.0
Zn147 Zn 0.68724 0.22141 0.6484 0.0
Zn148 Zn 0.64515 0.26941 0.62895 0.0
C149 C 0.73272 0.28584 0.64122 0.0
C150 C 0.66753 0.18072 0.62324 0.0
O151 O 0.5922 0.28137 0.64047 0.0
O152 O 0.55643 0.32148 0.62401 0.0
C153 C 0.6664 0.35229 0.61355 0.0
O154 O 0.70222 0.29722 0.63248 0.0
O155 O 0.7331 0.25419 0.64938 0.0
O156 O 0.68714 0.17655 0.63619 0.0
O157 O 0.6501 0.21298 0.61872 0.0
O158 O 0.63312 0.35446 0.60653 0.0
O159 O 0.67685 0.32262 0.62286 0.0
O160 O 0.62964 0.23956 0.60786 0.0
O161 O 0.58557 0.27765 0.59438 0.0
C162 C 0.60582 0.24743 0.59575 0.0
O163 O 0.621 0.2638 0.65135 0.0
O164 O 0.65695 0.22033 0.66618 0.0
C165 C 0.56137 0.3019 0.63685 0.0
C166 C 0.62948 0.24419 0.66443 0.0
Zn167 Zn 0.06207 0.15867 0.85786 0.0
Zn168 Zn 0.13535 0.24091 0.89775 0.0
Zn169 Zn 0.09598 0.20231 0.8778 0.0
C170 C 0.11829 0.17433 0.91425 0.0
C171 C 0.07019 0.28526 0.88652 0.0
O172 O 0.13021 0.19973 0.85783 0.0
O173 O 0.10025 0.15922 0.84277 0.0
C174 C 0.07091 0.113 0.88538 0.0
O175 O 0.10206 0.16775 0.90084 0.0
O176 O 0.13545 0.20541 0.91613 0.0
O177 O 0.10041 0.28584 0.89564 0.0
O178 O 0.06263 0.256 0.87879 0.0
O179 O 0.05674 0.11176 0.8716 0.0
O180 O 0.08674 0.14407 0.88977 0.0
O181 O 0.04035 0.23171 0.86943 0.0
O182 O 0.01629 0.19236 0.8526 0.0
C183 C 0.01318 0.22245 0.8594 0.0
O184 O 0.15317 0.21591 0.86981 0.0
O185 O 0.18414 0.24468 0.88885 0.0
C186 C 0.1274 0.18197 0.84545 0.0
C187 C 0.18374 0.23124 0.87597 0.0
H188 H 0.20633 0.35478 0.07815 0.0
H189 H 0.20295 0.42243 0.08373 0.0
H190 H 0.07997 0.4205 0.07475 0.0
H191 H 0.08362 0.35251 0.06965 0.0
H192 H 0.1744 0.48566 0.06521 0.0
H193 H 0.09363 0.46342 0.11633 0.0
H194 H 0.11531 0.42418 0.10816 0.0
H195 H 0.07074 0.44507 0.09924 0.0
C196 C 0.1787 0.36892 0.07757 0.0
C197 C 0.14522 0.34875 0.07364 0.0
C198 C 0.17671 0.40747 0.08065 0.0
C199 C 0.14115 0.42651 0.07985 0.0
C200 C 0.10766 0.40631 0.07576 0.0
H201 H 0.0974 0.6624 0.10334 0.0
H202 H 0.08858 0.6025 0.09058 0.0
C203 C 0.10969 0.36767 0.07278 0.0
C204 C 0.13944 0.46752 0.08319 0.0
H205 H 0.10674 0.52745 0.10787 0.0
C206 C 0.15942 0.49479 0.07449 0.0
C207 C 0.11967 0.47958 0.09523 0.0
C208 C 0.09888 0.45155 0.10538 0.0
C209 C 0.16081 0.53351 0.07771 0.0
C210 C 0.142 0.54526 0.09002 0.0
C211 C 0.12089 0.51839 0.09836 0.0
C212 C 0.14768 0.58391 0.09564 0.0
C213 C 0.1828 0.56155 0.06807 0.0
C214 C 0.18384 0.59349 0.10248 0.0
C215 C 0.1888 0.6273 0.10979 0.0
C216 C 0.1578 0.65246 0.11032 0.0
C217 C 0.12189 0.64381 0.10287 0.0
C218 C 0.11679 0.60955 0.09569 0.0
H219 H 0.1867 0.55093 0.05675 0.0
H220 H 0.16803 0.58999 0.06611 0.0
H221 H 0.21153 0.56557 0.07423 0.0
H222 H 0.20792 0.57391 0.10279 0.0
H223 H 0.21674 0.63317 0.1155 0.0
H224 H 0.02528 0.72992 0.34447 0.0
H225 H 0.9599 0.71247 0.34973 0.0
H226 H 0.92387 0.83083 0.33896 0.0
H227 H 0.98903 0.84782 0.33345 0.0
H228 H 0.91187 0.73646 0.36979 0.0
H229 H 0.8503 0.77535 0.30969 0.0
H230 H 0.90119 0.77096 0.31517 0.0
H231 H 0.87584 0.81432 0.31786 0.0
C232 C 0.00338 0.75212 0.34358 0.0
C233 C 0.01171 0.79012 0.33865 0.0
C234 C 0.96614 0.74218 0.34643 0.0
C235 C 0.93685 0.77019 0.3443 0.0
C236 C 0.9458 0.8086 0.34022 0.0
H237 H 0.72074 0.8007 0.3726 0.0
H238 H 0.7832 0.80305 0.36277 0.0
C239 C 0.98293 0.81842 0.33732 0.0
C240 C 0.89687 0.75949 0.34634 0.0
H241 H 0.80544 0.7681 0.32866 0.0
C242 C 0.88869 0.74272 0.36072 0.0
C243 C 0.86669 0.76716 0.33439 0.0
C244 C 0.87395 0.78255 0.31836 0.0
C245 C 0.85088 0.73566 0.36376 0.0
C246 C 0.82068 0.74569 0.35214 0.0
C247 C 0.82882 0.76061 0.33753 0.0
C248 C 0.78069 0.74529 0.35573 0.0
C249 C 0.8431 0.71913 0.37958 0.0
C250 C 0.75829 0.71234 0.35452 0.0
C251 C 0.72239 0.71093 0.3601 0.0
C252 C 0.7088 0.74245 0.36697 0.0
C253 C 0.73062 0.77598 0.3674 0.0
C254 C 0.76619 0.77742 0.36178 0.0
H255 H 0.86976 0.70974 0.38692 0.0
H256 H 0.82839 0.74112 0.38533 0.0
H257 H 0.82378 0.6942 0.37863 0.0
H258 H 0.76926 0.68728 0.34988 0.0
H259 H 0.70626 0.68462 0.35979 0.0
H260 H 0.61649 0.67815 0.5767 0.0
H261 H 0.63498 0.61222 0.5867 0.0
H262 H 0.75135 0.64811 0.59713 0.0
H263 H 0.73278 0.71409 0.58674 0.0
H264 H 0.74588 0.58001 0.58257 0.0
H265 H 0.65973 0.57185 0.6319 0.0
H266 H 0.63164 0.58748 0.61415 0.0
H267 H 0.67011 0.61685 0.62151 0.0
C268 C 0.64597 0.6718 0.58112 0.0
C269 C 0.67319 0.701 0.58109 0.0
C270 C 0.65647 0.63433 0.58696 0.0
C271 C 0.69441 0.62538 0.59297 0.0
C272 C 0.72185 0.65446 0.59273 0.0
H273 H 0.70958 0.38867 0.6357 0.0
H274 H 0.73067 0.45573 0.63271 0.0
C275 C 0.71126 0.69205 0.58688 0.0
C276 C 0.70519 0.58531 0.59901 0.0
H277 H 0.67789 0.51132 0.6233 0.0
C278 C 0.73161 0.56513 0.59169 0.0
C279 C 0.68743 0.56608 0.61118 0.0
C280 C 0.66097 0.5868 0.62026 0.0
C281 C 0.73829 0.52553 0.59538 0.0
C282 C 0.7176 0.50554 0.6065 0.0
C283 C 0.69362 0.52642 0.61468 0.0
C284 C 0.71521 0.46289 0.60805 0.0
C285 C 0.76657 0.50528 0.58698 0.0
C286 C 0.7011 0.44415 0.59515 0.0
C287 C 0.68911 0.4062 0.59686 0.0
C288 C 0.69092 0.3861 0.6115 0.0
C289 C 0.70832 0.40343 0.62427 0.0
C290 C 0.72008 0.4418 0.62257 0.0
H291 H 0.78998 0.52484 0.58395 0.0
H292 H 0.77923 0.47941 0.59396 0.0
H293 H 0.7518 0.49629 0.57607 0.0
H294 H 0.69621 0.45979 0.58389 0.0
H295 H 0.67555 0.39353 0.58685 0.0
H296 H 0.6669 0.36917 0.82653 0.0
H297 H 0.7368 0.36538 0.83241 0.0
H298 H 0.72958 0.24307 0.84375 0.0
H299 H 0.65966 0.24749 0.83842 0.0
H300 H 0.7766 0.27392 0.86467 0.0
H301 H 0.81409 0.32806 0.80688 0.0
H302 H 0.7856 0.36125 0.81545 0.0
H303 H 0.76584 0.31603 0.81042 0.0
C304 C 0.68056 0.3416 0.83021 0.0
C305 C 0.65834 0.30867 0.83215 0.0
C306 C 0.72038 0.33934 0.83349 0.0
C307 C 0.73866 0.30384 0.83834 0.0
C308 C 0.71623 0.27081 0.84007 0.0
H309 H 0.96173 0.22067 0.83423 0.0
H310 H 0.89735 0.24737 0.83016 0.0
C311 C 0.67642 0.27323 0.83703 0.0
C312 C 0.78099 0.30085 0.84191 0.0
H313 H 0.8653 0.31606 0.82639 0.0
C314 C 0.79603 0.28326 0.85632 0.0
C315 C 0.80638 0.31305 0.83101 0.0
C316 C 0.79222 0.33032 0.81503 0.0
C317 C 0.83547 0.27618 0.85993 0.0
C318 C 0.86087 0.28822 0.84901 0.0
C319 C 0.84593 0.3072 0.83483 0.0
C320 C 0.90197 0.27644 0.85107 0.0
C321 C 0.84918 0.25392 0.87506 0.0
C322 C 0.92687 0.2849 0.86396 0.0
C323 C 0.96399 0.26896 0.86648 0.0
C324 C 0.97689 0.24488 0.85601 0.0
C325 C 0.95268 0.23875 0.84264 0.0
C326 C 0.91576 0.25421 0.84023 0.0
H327 H 0.82527 0.23992 0.88064 0.0
H328 H 0.87035 0.2314 0.87341 0.0
H329 H 0.86317 0.27382 0.88304 0.0
H330 H 0.91725 0.30277 0.87231 0.0
H331 H 0.98173 0.27398 0.87694 0.0
H332 H 0.08664 0.63649 0.89471 0.0
H333 H 0.07846 0.57742 0.88156 0.0
H334 H 0.9782 0.55097 0.90472 0.0
H335 H 0.9853 0.61096 0.91707 0.0
H336 H 0.08628 0.51048 0.89626 0.0
H337 H 0.94275 0.51402 0.86414 0.0
H338 H 0.96486 0.55669 0.87104 0.0
H339 H 0.93939 0.52477 0.88355 0.0
C340 C 0.06207 0.61871 0.89646 0.0
C341 C 0.03668 0.62798 0.90692 0.0
C342 C 0.05747 0.58489 0.88903 0.0
C343 C 0.02748 0.55969 0.892 0.0
C344 C 1.00098 0.57015 0.90186 0.0
H345 H 0.04111 0.32142 0.90864 0.0
H346 H 0.02311 0.3894 0.90686 0.0
C347 C 0.00532 0.60416 0.90911 0.0
C348 C 0.02746 0.5201 0.88694 0.0
H349 H 0.96926 0.44999 0.87295 0.0
C350 C 0.06089 0.4977 0.8908 0.0
C351 C 0.99445 0.5031 0.87976 0.0
C352 C 0.95852 0.52612 0.87424 0.0
C353 C 0.0616 0.45855 0.88853 0.0
C354 C 0.02783 0.44096 0.8825 0.0
C355 C 0.99493 0.46351 0.87779 0.0
C356 C 0.02638 0.39867 0.88235 0.0
C357 C 0.09819 0.43578 0.89321 0.0
C358 C 0.0316 0.38091 0.86894 0.0
C359 C 0.04128 0.34169 0.86991 0.0
C360 C 0.04621 0.3203 0.88432 0.0
C361 C 0.03719 0.33734 0.89741 0.0
C362 C 0.02704 0.37616 0.89641 0.0
H363 H 0.12341 0.45471 0.8946 0.0
H364 H 0.096 0.41882 0.90438 0.0
H365 H 0.10305 0.41538 0.88457 0.0
H366 H 0.0314 0.39794 0.858 0.0
H367 H 0.04865 0.3292 0.85971 0.0
H368 H 0.74207 0.84218 0.19604 0.0
H369 H 0.80991 0.83697 0.19188 0.0
H370 H 0.78378 0.74225 0.16431 0.0
H371 H 0.71607 0.74754 0.16854 0.0
H372 H 0.86672 0.7756 0.19668 0.0
H373 H 0.82907 0.82398 0.13484 0.0
H374 H 0.79606 0.82791 0.14905 0.0
H375 H 0.80391 0.78242 0.14171 0.0
C376 C 0.7511 0.81981 0.18938 0.0
C377 C 0.72399 0.79546 0.1825 0.0
C378 C 0.78977 0.81687 0.18697 0.0
C379 C 0.80192 0.78955 0.17761 0.0
C380 C 0.77504 0.76394 0.17137 0.0
H381 H 0.03564 0.7419 0.15589 0.0
H382 H 0.97548 0.73703 0.16787 0.0
C383 C 0.73644 0.76695 0.17376 0.0
C384 C 0.84186 0.78986 0.17336 0.0
H385 H 0.89341 0.80669 0.14262 0.0
C386 C 0.87264 0.78229 0.18486 0.0
C387 C 0.8496 0.79901 0.15796 0.0
C388 C 0.81802 0.80913 0.14517 0.0
C389 C 0.91089 0.78349 0.18134 0.0
C390 C 0.91847 0.79234 0.1659 0.0
C391 C 0.88764 0.79977 0.15445 0.0
C392 C 0.95793 0.79614 0.16123 0.0
C393 C 0.9429 0.77628 0.19415 0.0
C394 C 0.9686 0.83107 0.15384 0.0
C395 C 1.00266 0.83381 0.14699 0.0
C396 C 0.02707 0.8017 0.14737 0.0
C397 C 0.01769 0.76726 0.15559 0.0
C398 C 0.98327 0.76446 0.16243 0.0
H399 H 0.93274 0.77758 0.20566 0.0
H400 H 0.95543 0.74727 0.19364 0.0
H401 H 0.96597 0.79755 0.19284 0.0
H402 H 0.94968 0.85593 0.15279 0.0
H403 H 0.0091 0.86078 0.14079 0.0
H404 H 0.62321 0.2523 0.4151 0.0
H405 H 0.63349 0.32197 0.41331 0.0
H406 H 0.5331 0.3374 0.43659 0.0
H407 H 0.52366 0.26767 0.43865 0.0
H408 H 0.58836 0.37375 0.39767 0.0
H409 H 0.6035 0.40992 0.45805 0.0
H410 H 0.60632 0.36107 0.45299 0.0
H411 H 0.56054 0.38379 0.4537 0.0
C412 C 0.60381 0.27073 0.42001 0.0
C413 C 0.57263 0.25497 0.42697 0.0
C414 C 0.60968 0.31043 0.41904 0.0
C415 C 0.5844 0.33514 0.425 0.0
C416 C 0.5537 0.3191 0.4323 0.0
H417 H 0.51562 0.55897 0.38772 0.0
H418 H 0.52257 0.49282 0.39913 0.0
C419 C 0.5481 0.27933 0.43339 0.0
C420 C 0.58759 0.37764 0.42202 0.0
H421 H 0.58565 0.46259 0.43871 0.0
C422 C 0.58843 0.393 0.40672 0.0
C423 C 0.5881 0.40308 0.43379 0.0
C424 C 0.58999 0.38858 0.45056 0.0
C425 C 0.58797 0.43279 0.4028 0.0
C426 C 0.58578 0.45816 0.41441 0.0
C427 C 0.58681 0.44308 0.42981 0.0
C428 C 0.57955 0.50003 0.41032 0.0
C429 C 0.58903 0.4474 0.38614 0.0
C430 C 0.60848 0.52671 0.41359 0.0
C431 C 0.60437 0.56501 0.40716 0.0
C432 C 0.57139 0.57678 0.39735 0.0
C433 C 0.54149 0.55062 0.39513 0.0
C434 C 0.54543 0.51277 0.40161 0.0
H435 H 0.60084 0.42542 0.37945 0.0
H436 H 0.55951 0.45472 0.38088 0.0
H437 H 0.60651 0.47371 0.3851 0.0
H438 H 0.635 0.51742 0.42033 0.0
H439 H 0.62795 0.5845 0.40896 0.0
H440 H 0.0714 0.25631 0.67085 0.0
H441 H 0.00482 0.26607 0.65958 0.0
H442 H 0.02504 0.38738 0.65095 0.0
H443 H 0.09165 0.37727 0.6626 0.0
H444 H 0.96212 0.37584 0.66496 0.0
H445 H 0.95379 0.28503 0.6164 0.0
H446 H 0.97289 0.25801 0.63386 0.0
H447 H 0.99888 0.29838 0.62622 0.0
C448 C 0.06165 0.28479 0.66617 0.0
C449 C 0.08637 0.316 0.66736 0.0
C450 C 0.02374 0.29043 0.65968 0.0
C451 C 0.00988 0.32741 0.65411 0.0
C452 C 0.03504 0.35855 0.65501 0.0
H453 H 0.76544 0.3253 0.61741 0.0
H454 H 0.83242 0.34644 0.61823 0.0
C455 C 0.07301 0.35285 0.66156 0.0
C456 C 0.96839 0.33371 0.64882 0.0
H457 H 0.89375 0.29683 0.62675 0.0
C458 C 0.94734 0.35915 0.65635 0.0
C459 C 0.94889 0.31273 0.63734 0.0
C460 C 0.96991 0.28736 0.62788 0.0
C461 C 0.90725 0.36184 0.65361 0.0
C462 C 0.88749 0.33798 0.64326 0.0
C463 C 0.90871 0.31485 0.63483 0.0
C464 C 0.84542 0.3322 0.64277 0.0
C465 C 0.88635 0.38944 0.66219 0.0
C466 C 0.8302 0.31813 0.65628 0.0
C467 C 0.79239 0.30609 0.6558 0.0
C468 C 0.7687 0.30776 0.6418 0.0
C469 C 0.78295 0.32413 0.62837 0.0
C470 C 0.82125 0.33591 0.62883 0.0
H471 H 0.90424 0.41472 0.66473 0.0
H472 H 0.859 0.39966 0.65556 0.0
H473 H 0.87999 0.37476 0.67335 0.0
H474 H 0.84825 0.31417 0.66711 0.0
H475 H 0.78224 0.29345 0.66632 0.0
H476 H 0.24365 0.33916 0.69607 0.0
H477 H 0.31169 0.33537 0.69196 0.0
H478 H 0.28692 0.24346 0.66279 0.0
H479 H 0.21905 0.24754 0.66686 0.0
H480 H 0.36908 0.2761 0.696 0.0
H481 H 0.33194 0.32686 0.63442 0.0
H482 H 0.29837 0.32891 0.64852 0.0
H483 H 0.30738 0.28433 0.64066 0.0
C484 C 0.25303 0.31785 0.68898 0.0
C485 C 0.22623 0.2941 0.68155 0.0
C486 C 0.29179 0.31566 0.68663 0.0
C487 C 0.30436 0.2896 0.67683 0.0
C488 C 0.27783 0.26433 0.67014 0.0
H489 H 0.53855 0.24221 0.65629 0.0
H490 H 0.47825 0.2385 0.66816 0.0
C491 C 0.23913 0.26667 0.67243 0.0
C492 C 0.3444 0.29077 0.67268 0.0
H493 H 0.39619 0.30859 0.64208 0.0
C494 C 0.3751 0.28318 0.68422 0.0
C495 C 0.35228 0.30051 0.65734 0.0
C496 C 0.32084 0.31098 0.64453 0.0
C497 C 0.4134 0.28476 0.68077 0.0
C498 C 0.42112 0.29385 0.66536 0.0
C499 C 0.39036 0.30147 0.65389 0.0
C500 C 0.46064 0.29723 0.6607 0.0
C501 C 0.44525 0.27757 0.69366 0.0
C502 C 0.47133 0.33156 0.65284 0.0
C503 C 0.50543 0.33358 0.646 0.0
C504 C 0.52992 0.30138 0.6469 0.0
C505 C 0.52054 0.26765 0.65559 0.0
C506 C 0.48604 0.26552 0.66237 0.0
H507 H 0.43508 0.28007 0.7051 0.0
H508 H 0.4569 0.24806 0.69352 0.0
H509 H 0.46892 0.29804 0.69218 0.0
H510 H 0.45239 0.35644 0.65141 0.0
H511 H 0.51189 0.36002 0.63943 0.0
H512 H 0.56678 0.75751 0.17551 0.0
H513 H 0.50023 0.76635 0.16406 0.0
H514 H 0.52382 0.88372 0.14877 0.0
H515 H 0.59058 0.8746 0.16041 0.0
H516 H 0.45938 0.87707 0.16433 0.0
H517 H 0.45158 0.77464 0.11955 0.0
H518 H 0.47139 0.75274 0.13795 0.0
H519 H 0.49648 0.79114 0.12848 0.0
C520 C 0.55778 0.78484 0.16939 0.0
C521 C 0.58362 0.81522 0.16859 0.0
C522 C 0.51989 0.78991 0.16281 0.0
C523 C 0.50705 0.82554 0.1553 0.0
C524 C 0.53311 0.85586 0.15434 0.0
H525 H 0.26417 0.82431 0.1166 0.0
H526 H 0.33156 0.84432 0.11791 0.0
C527 C 0.57116 0.85067 0.16088 0.0
C528 C 0.46577 0.8316 0.14968 0.0
H529 H 0.39153 0.79175 0.12842 0.0
C530 C 0.44468 0.85895 0.15623 0.0
C531 C 0.44649 0.80853 0.13889 0.0
C532 C 0.46773 0.7804 0.13069 0.0
C533 C 0.40463 0.86182 0.15317 0.0
C534 C 0.38505 0.83644 0.14342 0.0
C535 C 0.40639 0.81109 0.13598 0.0
C536 C 0.34282 0.83167 0.1426 0.0
C537 C 0.3835 0.89121 0.1608 0.0
C538 C 0.32654 0.81891 0.15602 0.0
C539 C 0.28853 0.80734 0.15526 0.0
C540 C 0.2657 0.80845 0.14107 0.0
C541 C 0.28101 0.8237 0.12771 0.0
C542 C 0.31952 0.83483 0.12845 0.0
H543 H 0.40181 0.91624 0.16325 0.0
H544 H 0.35707 0.90156 0.15352 0.0
H545 H 0.37534 0.87798 0.17193 0.0
H546 H 0.34393 0.81549 0.16703 0.0
H547 H 0.27753 0.79542 0.16572 0.0
H548 H 0.51383 0.2502 0.82194 0.0
H549 H 0.44932 0.23239 0.82784 0.0
H550 H 0.45529 0.3139 0.86228 0.0
H551 H 0.51917 0.33307 0.85565 0.0
H552 H 0.41818 0.20308 0.85185 0.0
H553 H 0.35963 0.35011 0.83617 0.0
H554 H 0.40715 0.33644 0.83261 0.0
H555 H 0.39802 0.3491 0.85138 0.0
C556 C 0.50125 0.26396 0.83084 0.0
C557 C 0.52087 0.29314 0.83828 0.0
C558 C 0.46454 0.25386 0.83421 0.0
C559 C 0.447 0.27256 0.8452 0.0
C560 C 0.46775 0.29996 0.8534 0.0
H561 H 0.2505 0.20085 0.88936 0.0
H562 H 0.31333 0.20779 0.88014 0.0
C563 C 0.50433 0.3105 0.84982 0.0
C564 C 0.40674 0.26395 0.84775 0.0
H565 H 0.31956 0.30602 0.84905 0.0
C566 C 0.39655 0.22557 0.85113 0.0
C567 C 0.37815 0.29309 0.8463 0.0
C568 C 0.38616 0.33441 0.84124 0.0
C569 C 0.35895 0.21571 0.85367 0.0
C570 C 0.33106 0.24519 0.85338 0.0
C571 C 0.34094 0.28339 0.84944 0.0
C572 C 0.29232 0.23757 0.85813 0.0
C573 C 0.34955 0.17375 0.85647 0.0
C574 C 0.25946 0.25286 0.84904 0.0
C575 C 0.22356 0.24975 0.85455 0.0
C576 C 0.21992 0.23064 0.86902 0.0
C577 C 0.25258 0.21488 0.87797 0.0
C578 C 0.28844 0.21851 0.87263 0.0
H579 H 0.36834 0.15552 0.85059 0.0
H580 H 0.3545 0.16491 0.86898 0.0
H581 H 0.31931 0.16806 0.85238 0.0
H582 H 0.26179 0.26842 0.83795 0.0
H583 H 0.19922 0.26427 0.84797 0.0
H584 H 0.16006 0.85353 0.32121 0.0
H585 H 0.22991 0.85159 0.32764 0.0
H586 H 0.22158 0.7406 0.35264 0.0
H587 H 0.15203 0.74224 0.34593 0.0
H588 H 0.26656 0.79952 0.36888 0.0
H589 H 0.30851 0.77979 0.31053 0.0
H590 H 0.27473 0.81765 0.31219 0.0
H591 H 0.26126 0.76851 0.31575 0.0
C592 C 0.17337 0.82863 0.32793 0.0
C593 C 0.15082 0.79824 0.33324 0.0
C594 C 0.2131 0.82756 0.33162 0.0
C595 C 0.23085 0.79597 0.34063 0.0
C596 C 0.20838 0.76536 0.34576 0.0
H597 H 0.44235 0.6979 0.37921 0.0
H598 H 0.37725 0.72385 0.37414 0.0
C599 C 0.16873 0.76636 0.342 0.0
C600 C 0.27279 0.79474 0.34496 0.0
H601 H 0.35793 0.781 0.3307 0.0
C602 C 0.28662 0.79583 0.36052 0.0
C603 C 0.29887 0.79048 0.33401 0.0
C604 C 0.28534 0.7888 0.31717 0.0
C605 C 0.32583 0.79167 0.3655 0.0
C606 C 0.35179 0.7853 0.35467 0.0
C607 C 0.33808 0.78593 0.339 0.0
C608 C 0.39223 0.77342 0.35949 0.0
C609 C 0.339 0.79381 0.38233 0.0
C610 C 0.42255 0.79258 0.35297 0.0
C611 C 0.45994 0.77758 0.35587 0.0
C612 C 0.46735 0.74327 0.3653 0.0
C613 C 0.43734 0.72492 0.37219 0.0
C614 C 0.40016 0.73982 0.36933 0.0
H615 H 0.3194 0.81218 0.38778 0.0
H616 H 0.33894 0.76456 0.38838 0.0
H617 H 0.36838 0.80533 0.38404 0.0
H618 H 0.41703 0.81825 0.34518 0.0
H619 H 0.4825 0.79145 0.35004 0.0
H620 H 0.69324 0.86014 0.56258 0.0
H621 H 0.69215 0.92758 0.56873 0.0
H622 H 0.60272 0.90116 0.59792 0.0
H623 H 0.60442 0.83372 0.59185 0.0
H624 H 0.63282 0.98386 0.56514 0.0
H625 H 0.68607 0.94757 0.62665 0.0
H626 H 0.68775 0.91369 0.61233 0.0
H627 H 0.64367 0.92265 0.62015 0.0
C628 C 0.67348 0.86904 0.57029 0.0
C629 C 0.64919 0.84214 0.57691 0.0
C630 C 0.67268 0.90741 0.57375 0.0
C631 C 0.64764 0.91937 0.58392 0.0
C632 C 0.62269 0.8925 0.59024 0.0
H633 H 0.60484 0.15649 0.60527 0.0
H634 H 0.59826 0.09471 0.59385 0.0
C635 C 0.62358 0.85414 0.58679 0.0
C636 C 0.64871 0.95952 0.58837 0.0
H637 H 0.66828 0.01217 0.6192 0.0
C638 C 0.64051 0.99013 0.57696 0.0
C639 C 0.65911 0.96767 0.60377 0.0
C640 C 0.67 0.93625 0.61643 0.0
C641 C 0.64241 0.02866 0.58056 0.0
C642 C 0.65246 0.03668 0.596 0.0
C643 C 0.66044 0.00602 0.60737 0.0
C644 C 0.65698 0.07646 0.60071 0.0
C645 C 0.63466 0.06045 0.5678 0.0
C646 C 0.69218 0.08706 0.60813 0.0
C647 C 0.69586 0.12202 0.61466 0.0
C648 C 0.6645 0.14742 0.61386 0.0
C649 C 0.62967 0.13781 0.60578 0.0
C650 C 0.62589 0.10248 0.59929 0.0
H651 H 0.63567 0.04985 0.55627 0.0
H652 H 0.60574 0.07283 0.56825 0.0
H653 H 0.65569 0.08384 0.56919 0.0
H654 H 0.71657 0.06757 0.60935 0.0
H655 H 0.72305 0.12866 0.62081 0.0
H656 H 0.21219 0.20172 0.06258 0.0
H657 H 0.22724 0.13404 0.07152 0.0
H658 H 0.14146 0.13586 0.10312 0.0
H659 H 0.12635 0.2034 0.0941 0.0
H660 H 0.24351 0.09599 0.10691 0.0
H661 H 0.11653 0.04998 0.06972 0.0
H662 H 0.14022 0.09483 0.0655 0.0
H663 H 0.11066 0.08993 0.08098 0.0
C664 C 0.19694 0.18758 0.07154 0.0
C665 C 0.16823 0.20744 0.07772 0.0
C666 C 0.20566 0.1492 0.07669 0.0
C667 C 0.1856 0.13016 0.08803 0.0
C668 C 0.15745 0.15024 0.09445 0.0
H669 H 0.18647 0.90501 0.13588 0.0
H670 H 0.2016 0.97268 0.12978 0.0
C671 C 0.14888 0.18866 0.08934 0.0
C672 C 0.19159 0.08844 0.09219 0.0
H673 H 0.15085 1.00203 0.08611 0.0
C674 C 0.22345 0.07529 0.10234 0.0
C675 C 0.16552 0.0617 0.08608 0.0
C676 C 0.13133 0.07453 0.07489 0.0
C677 C 0.22949 0.0358 0.10676 0.0
C678 C 0.20286 0.00908 0.1009 0.0
C679 C 0.1714 0.02245 0.09055 0.0
C680 C 0.20561 0.96715 0.1056 0.0
C681 C 0.26431 0.02296 0.11755 0.0
C682 C 0.20467 0.94113 0.09424 0.0
C683 C 0.19588 0.90263 0.09773 0.0
C684 C 0.18825 0.88943 0.11265 0.0
C685 C 0.19324 0.91437 0.12439 0.0
C686 C 0.2017 0.95311 0.12087 0.0
H687 H 0.28684 0.04515 0.11765 0.0
H688 H 0.25604 0.01775 0.12941 0.0
H689 H 0.2764 0.99578 0.11431 0.0
H690 H 0.20751 0.95128 0.08239 0.0
H691 H 0.19143 0.88407 0.08844 0.0
H692 H 0.59997 0.09946 0.41737 0.0
H693 H 0.58667 0.03939 0.40546 0.0
H694 H 0.47379 0.08215 0.38785 0.0
H695 H 0.48736 0.14228 0.40008 0.0
H696 H 0.47156 0.01163 0.40318 0.0
H697 H 0.57916 0.00847 0.36196 0.0
H698 H 0.60139 0.01851 0.3805 0.0
H699 H 0.5668 0.05201 0.3701 0.0
C700 C 0.57283 0.09626 0.41056 0.0
C701 C 0.54484 0.12531 0.40937 0.0
C702 C 0.56521 0.06211 0.40371 0.0
C703 C 0.52943 0.05644 0.3955 0.0
C704 C 0.50172 0.08604 0.39396 0.0
H705 H 0.53302 0.82486 0.36488 0.0
H706 H 0.51079 0.89207 0.36248 0.0
C707 C 0.50946 0.12034 0.40083 0.0
C708 C 0.52011 0.01805 0.39013 0.0
H709 H 0.55836 0.94605 0.37247 0.0
C710 C 0.48993 0.99757 0.39612 0.0
C711 C 0.54336 0.99983 0.38062 0.0
C712 C 0.5742 0.02107 0.37279 0.0
C713 C 0.48471 0.95844 0.39405 0.0
C714 C 0.51073 0.93916 0.38602 0.0
C715 C 0.53861 0.96055 0.37881 0.0
C716 C 0.5138 0.89652 0.38705 0.0
C717 C 0.4522 0.93783 0.40098 0.0
C718 C 0.52134 0.87619 0.40159 0.0
C719 C 0.53367 0.83794 0.40294 0.0
C720 C 0.53873 0.81916 0.38977 0.0
C721 C 0.52827 0.83836 0.37518 0.0
C722 C 0.51606 0.87689 0.37382 0.0
H723 H 0.42733 0.95755 0.40097 0.0
H724 H 0.44286 0.91273 0.39466 0.0
H725 H 0.4616 0.92761 0.41314 0.0
H726 H 0.52081 0.89073 0.41198 0.0
H727 H 0.54207 0.82392 0.41431 0.0
H728 H 0.1189 0.75373 0.91345 0.0
H729 H 0.12894 0.82341 0.91189 0.0
H730 H 0.02903 0.8378 0.93558 0.0
H731 H 0.01993 0.768 0.93747 0.0
H732 H 0.08306 0.8747 0.89644 0.0
H733 H 0.09941 0.91071 0.95686 0.0
H734 H 0.10236 0.86192 0.95176 0.0
H735 H 0.05653 0.88439 0.9526 0.0
C736 C 0.09961 0.77193 0.91852 0.0
C737 C 0.06866 0.75588 0.92554 0.0
C738 C 0.10532 0.81162 0.91768 0.0
C739 C 0.08005 0.83604 0.92379 0.0
C740 C 0.0496 0.81971 0.93116 0.0
H741 H 0.01432 0.06117 0.88609 0.0
H742 H 0.01889 0.99528 0.89795 0.0
C743 C 0.04418 0.77992 0.93215 0.0
C744 C 0.08292 0.87854 0.92082 0.0
H745 H 0.08178 0.96344 0.93759 0.0
C746 C 0.08339 0.89393 0.90551 0.0
C747 C 0.08372 0.90393 0.93262 0.0
C748 C 0.0859 0.88936 0.94939 0.0
C749 C 0.08307 0.93369 0.9016 0.0
C750 C 0.08134 0.95903 0.91325 0.0
C751 C 0.08254 0.94393 0.92866 0.0
C752 C 0.07605 1.001 0.90921 0.0
C753 C 0.084 0.94831 0.88493 0.0
C754 C 0.1058 0.02681 0.91243 0.0
C755 C 0.10303 0.06493 0.90578 0.0
C756 C 0.0706 0.07736 0.89577 0.0
C757 C 0.03975 0.05226 0.89367 0.0
C758 C 0.04235 0.01458 0.90041 0.0
H759 H 0.09534 0.92619 0.87818 0.0
H760 H 0.0545 0.95605 0.87976 0.0
H761 H 0.10184 0.97436 0.88386 0.0
H762 H 0.13202 0.01686 0.91925 0.0
H763 H 0.12732 0.08361 0.90748 0.0
H764 H 0.17991 0.26315 0.03077 0.0
H765 H 0.16541 0.2255 0.00856 0.0
H766 H 0.08609 0.15764 0.03338 0.0
H767 H 0.10025 0.19595 0.05559 0.0
H768 H 0.1488 0.11995 0.01247 0.0
H769 H 0.04521 0.23334 0.9857 0.0
H770 H 0.08946 0.24951 0.99516 0.0
H771 H 0.0561 0.22417 0.00631 0.0
C772 C 0.15955 0.24008 0.03145 0.0
C773 C 0.14077 0.23264 0.0447 0.0
C774 C 0.15149 0.21848 0.01887 0.0
C775 C 0.12463 0.18895 0.01937 0.0
C776 C 0.10698 0.18026 0.03284 0.0
H777 H 0.05282 0.14749 0.92518 0.0
H778 H 0.04637 0.13372 0.9527 0.0
C779 C 0.11503 0.20204 0.04545 0.0
C780 C 0.11314 0.16982 0.00522 0.0
H781 H 0.06761 0.19011 0.96918 0.0
C782 C 0.13033 0.13469 0.00307 0.0
C783 C 0.08844 0.1887 0.99314 0.0
C784 C 0.06841 0.22592 0.99513 0.0
C785 C 0.12572 0.11947 0.98866 0.0
C786 C 0.10404 0.14041 0.97609 0.0
C787 C 0.08426 0.17385 0.97872 0.0
C788 C 0.10729 0.13317 0.95979 0.0
C789 C 0.14525 0.08186 0.98692 0.0
C790 C 0.14359 0.13452 0.95448 0.0
C791 C 0.14718 0.14208 0.93883 0.0
C792 C 0.1146 0.14861 0.9282 0.0
C793 C 0.07836 0.14211 0.93316 0.0
C794 C 0.0747 0.1346 0.94891 0.0
H795 H 0.14531 0.06229 0.99762 0.0
H796 H 0.13118 0.06729 0.97711 0.0
H797 H 0.17551 0.08725 0.985 0.0
H798 H 0.16921 0.13431 0.96251 0.0
H799 H 0.17542 0.14732 0.93527 0.0
H800 H 0.12538 0.75026 0.30563 0.0
H801 H 0.13159 0.74303 0.27839 0.0
H802 H 0.09292 0.86024 0.26664 0.0
H803 H 0.0869 0.86724 0.29391 0.0
H804 H 0.06145 0.75557 0.25708 0.0
H805 H 0.18244 0.84561 0.23962 0.0
H806 H 0.17943 0.82705 0.25934 0.0
H807 H 0.1497 0.86691 0.25099 0.0
C808 C 0.12006 0.77487 0.29726 0.0
C809 C 0.106 0.80934 0.30169 0.0
C810 C 0.12314 0.77067 0.28175 0.0
C811 C 0.1126 0.80109 0.27055 0.0
C812 C 0.10158 0.8366 0.27514 0.0
H813 H 0.09625 0.80902 0.17049 0.0
H814 H 0.08421 0.82481 0.1962 0.0
C815 C 0.09835 0.84068 0.29065 0.0
C816 C 0.10823 0.79417 0.25408 0.0
H817 H 0.14417 0.81749 0.21994 0.0
C818 C 0.07954 0.76905 0.24893 0.0
C819 C 0.13135 0.81243 0.2435 0.0
C820 C 0.16267 0.83937 0.24857 0.0
C821 C 0.07369 0.76128 0.23345 0.0
C822 C 0.09767 0.77852 0.22295 0.0
C823 C 0.12572 0.80442 0.22803 0.0
C824 C 0.09674 0.76748 0.20701 0.0
C825 C 0.04186 0.73482 0.22843 0.0
C826 C 0.10629 0.72969 0.20451 0.0
C827 C 0.11292 0.72055 0.18984 0.0
C828 C 0.11022 0.74907 0.17744 0.0
C829 C 0.09795 0.78627 0.17975 0.0
C830 C 0.09143 0.79544 0.19446 0.0
H831 H 0.01929 0.73363 0.23641 0.0
H832 H 0.02859 0.74409 0.21662 0.0
H833 H 0.05368 0.70533 0.22842 0.0
H834 H 0.11112 0.70781 0.21407 0.0
H835 H 0.12248 0.69169 0.18841 0.0
H836 H 0.57386 0.73284 0.54757 0.0
H837 H 0.56046 0.69615 0.52499 0.0
H838 H 0.68144 0.67467 0.525 0.0
H839 H 0.69433 0.71039 0.54782 0.0
H840 H 0.58196 0.71716 0.49818 0.0
H841 H 0.64207 0.57183 0.51506 0.0
H842 H 0.63413 0.60521 0.52905 0.0
H843 H 0.67702 0.60752 0.51944 0.0
C844 C 0.59731 0.71952 0.54285 0.0
C845 C 0.63504 0.72434 0.54925 0.0
C846 C 0.58975 0.69849 0.53003 0.0
C847 C 0.61986 0.68207 0.52336 0.0
C848 C 0.65757 0.68594 0.53014 0.0
H849 H 0.67989 0.65363 0.43759 0.0
H850 H 0.67289 0.64163 0.46492 0.0
C851 C 0.66503 0.70661 0.54307 0.0
C852 C 0.61248 0.66595 0.50817 0.0
H853 H 0.63723 0.5926 0.48761 0.0
C854 C 0.59309 0.68942 0.49597 0.0
C855 C 0.62703 0.62976 0.50523 0.0
C856 C 0.64585 0.60201 0.51796 0.0
C857 C 0.59022 0.67908 0.4808 0.0
C858 C 0.60671 0.64389 0.47771 0.0
C859 C 0.62439 0.61941 0.49 0.0
C860 C 0.61143 0.63596 0.46166 0.0
C861 C 0.57201 0.70733 0.46806 0.0
C862 C 0.57961 0.63312 0.45068 0.0
C863 C 0.58364 0.63977 0.43492 0.0
C864 C 0.61949 0.64946 0.43013 0.0
C865 C 0.65191 0.64642 0.44102 0.0
C866 C 0.64791 0.63965 0.45668 0.0
H867 H 0.56527 0.73542 0.47226 0.0
H868 H 0.5912 0.71246 0.45884 0.0
H869 H 0.54494 0.69536 0.46291 0.0
H870 H 0.55124 0.62968 0.4543 0.0
H871 H 0.5582 0.642 0.42676 0.0
H872 H 0.62586 0.26246 0.80485 0.0
H873 H 0.62945 0.25496 0.7775 0.0
H874 H 0.59985 0.37483 0.76648 0.0
H875 H 0.59695 0.38224 0.79396 0.0
H876 H 0.56049 0.27153 0.75676 0.0
H877 H 0.68548 0.35437 0.73862 0.0
H878 H 0.68205 0.33695 0.75843 0.0
H879 H 0.65408 0.37786 0.74991 0.0
C880 C 0.62199 0.28748 0.79661 0.0
C881 C 0.61135 0.32291 0.80135 0.0
C882 C 0.62352 0.28314 0.78103 0.0
C883 C 0.6147 0.31429 0.76999 0.0
C884 C 0.60708 0.35053 0.77483 0.0
H885 H 0.5992 0.31309 0.66992 0.0
H886 H 0.58646 0.33283 0.69502 0.0
C887 C 0.60558 0.35482 0.79047 0.0
C888 C 0.60904 0.3076 0.75349 0.0
H889 H 0.6462 0.32622 0.7193 0.0
C890 C 0.57913 0.28358 0.74853 0.0
C891 C 0.63297 0.32393 0.74279 0.0
C892 C 0.66565 0.34956 0.74763 0.0
C893 C 0.57311 0.27467 0.73319 0.0
C894 C 0.59803 0.28968 0.72262 0.0
C895 C 0.62705 0.31486 0.72744 0.0
C896 C 0.59734 0.27648 0.70702 0.0
C897 C 0.54032 0.24909 0.72841 0.0
C898 C 0.60621 0.23798 0.70539 0.0
C899 C 0.61337 0.22662 0.6911 0.0
C900 C 0.61178 0.25359 0.67819 0.0
C901 C 0.60007 0.29153 0.6796 0.0
C902 C 0.59312 0.30294 0.69396 0.0
H903 H 0.51751 0.24977 0.73623 0.0
H904 H 0.52769 0.25772 0.71645 0.0
H905 H 0.55097 0.21902 0.7289 0.0
H906 H 0.61016 0.21722 0.71537 0.0
H907 H 0.62248 0.19725 0.69035 0.0
H908 H 0.12265 0.71578 0.95174 0.0
H909 H 0.13743 0.71937 0.97967 0.0
H910 H 0.02181 0.68663 0.98639 0.0
H911 H 0.00751 0.6826 0.95859 0.0
H912 H 0.10634 0.76161 1.00024 0.0
H913 H 0.08399 0.6068 0.01521 0.0
H914 H 0.08794 0.62656 0.99573 0.0
H915 H 0.04324 0.6294 0.00388 0.0
C916 C 0.10046 0.70998 0.95925 0.0
C917 C 0.0641 0.69876 0.95323 0.0
C918 C 0.10889 0.7117 0.97514 0.0
C919 C 0.08103 0.70211 0.98514 0.0
C920 C 0.04408 0.69292 0.97895 0.0
H921 H 0.03921 0.74695 0.07393 0.0
H922 H 0.03915 0.72704 0.0479 0.0
C923 C 0.03577 0.69105 0.96313 0.0
C924 C 0.09012 0.70218 1.00203 0.0
H925 H 0.08428 0.64766 0.03601 0.0
C926 C 0.10222 0.73652 0.00805 0.0
C927 C 0.08513 0.66923 0.01221 0.0
C928 C 0.07476 0.63081 0.00643 0.0
C929 C 0.10729 0.73937 0.02399 0.0
C930 C 0.10001 0.70713 0.03409 0.0
C931 C 0.08966 0.6723 0.02816 0.0
C932 C 0.09903 0.7109 0.05067 0.0
C933 C 0.11877 0.77728 0.03 0.0
C934 C 0.13242 0.70665 0.06097 0.0
C935 C 0.13249 0.71781 0.07594 0.0
C936 C 0.09921 0.73353 0.08063 0.0
C937 C 0.06524 0.73497 0.07059 0.0
C938 C 0.06514 0.72362 0.05575 0.0
H939 H 0.1259 0.79887 0.0207 0.0
H940 H 0.09499 0.78887 0.03568 0.0
H941 H 0.14392 0.77304 0.03878 0.0
H942 H 0.15883 0.69692 0.05717 0.0
H943 H 0.15914 0.71682 0.08339 0.0
H944 H 0.67218 0.72897 0.21054 0.0
H945 H 0.68277 0.71262 0.23849 0.0
H946 H 0.70906 0.83097 0.24498 0.0
H947 H 0.69725 0.84718 0.21702 0.0
H948 H 0.73971 0.72111 0.26351 0.0
H949 H 0.61087 0.81284 0.26554 0.0
H950 H 0.62573 0.79922 0.2477 0.0
H951 H 0.65022 0.83662 0.25746 0.0
C952 C 0.68174 0.75098 0.21797 0.0
C953 C 0.68444 0.78912 0.21179 0.0
C954 C 0.6876 0.74178 0.2339 0.0
C955 C 0.69606 0.77071 0.24384 0.0
C956 C 0.70206 0.80829 0.23754 0.0
H957 H 0.65099 0.75699 0.34045 0.0
H958 H 0.68074 0.77818 0.31717 0.0
C959 C 0.69586 0.81749 0.22161 0.0
C960 C 0.69332 0.76241 0.2606 0.0
H961 H 0.63722 0.78044 0.28872 0.0
C962 C 0.71763 0.7344 0.26909 0.0
C963 C 0.66432 0.77963 0.26786 0.0
C964 C 0.63604 0.80851 0.25919 0.0
C965 C 0.71324 0.72273 0.28457 0.0
C966 C 0.68351 0.73913 0.29164 0.0
C967 C 0.66018 0.7681 0.28332 0.0
C968 C 0.6731 0.72414 0.30699 0.0
C969 C 0.74015 0.69267 0.2932 0.0
C970 C 0.65963 0.6865 0.30915 0.0
C971 C 0.64275 0.67435 0.32244 0.0
C972 C 0.63914 0.69954 0.33387 0.0
C973 C 0.65423 0.73664 0.33203 0.0
C974 C 0.671 0.74886 0.31869 0.0
H975 H 0.76762 0.69166 0.28804 0.0
H976 H 0.74619 0.69819 0.3055 0.0
H977 H 0.72678 0.66405 0.29266 0.0
H978 H 0.66009 0.6672 0.30016 0.0
H979 H 0.63105 0.64572 0.3235 0.0
H980 H 0.63129 0.19528 0.4542 0.0
H981 H 0.64644 0.19567 0.48228 0.0
H982 H 0.52587 0.20181 0.48731 0.0
H983 H 0.51113 0.20071 0.45932 0.0
H984 H 0.62926 0.24633 0.5032 0.0
H985 H 0.56103 0.10616 0.51539 0.0
H986 H 0.57132 0.12375 0.49631 0.0
H987 H 0.52921 0.14019 0.50392 0.0
C988 C 0.60833 0.19752 0.4614 0.0
C989 C 0.57019 0.19814 0.45486 0.0
C990 C 0.61685 0.19742 0.47735 0.0
C991 C 0.58722 0.1977 0.48689 0.0
C992 C 0.54912 0.20052 0.48019 0.0
H993 H 0.54415 0.2347 0.57573 0.0
H994 H 0.54497 0.21326 0.55001 0.0
C995 C 0.54068 0.20048 0.46428 0.0
C996 C 0.59588 0.19488 0.50387 0.0
H997 H 0.57374 0.14442 0.53683 0.0
C998 C 0.61777 0.22369 0.51057 0.0
C999 C 0.58121 0.16498 0.51344 0.0
C1000 C 0.55973 0.13179 0.5069 0.0
C1001 C 0.62322 0.22483 0.52662 0.0
C1002 C 0.60669 0.19614 0.53615 0.0
C1003 C 0.58639 0.1663 0.52947 0.0
C1004 C 0.60557 0.2001 0.55274 0.0
C1005 C 0.64472 0.25794 0.53324 0.0
C1006 C 0.63903 0.19764 0.56307 0.0
C1007 C 0.63857 0.20968 0.57787 0.0
C1008 C 0.60467 0.22442 0.5824 0.0
C1009 C 0.57067 0.22358 0.57248 0.0
C1010 C 0.57109 0.21134 0.5578 0.0
H1011 H 0.65218 0.27997 0.52416 0.0
H1012 H 0.62741 0.27191 0.54113 0.0
H1013 H 0.67159 0.24701 0.54002 0.0
H1014 H 0.66584 0.18866 0.55937 0.0
H1015 H 0.66521 0.21027 0.58528 0.0
H1016 H 0.2052 0.23248 0.70589 0.0
H1017 H 0.21971 0.2082 0.73308 0.0
H1018 H 0.18439 0.31727 0.74685 0.0
H1019 H 0.17123 0.34167 0.71972 0.0
H1020 H 0.24467 0.28185 0.76712 0.0
H1021 H 0.12449 0.18205 0.75474 0.0
H1022 H 0.1642 0.17796 0.74367 0.0
H1023 H 0.13532 0.22106 0.74111 0.0
C1024 C 0.20201 0.25154 0.71478 0.0
C1025 C 0.18673 0.28867 0.71086 0.0
C1026 C 0.20987 0.23762 0.73027 0.0
C1027 C 0.20219 0.26062 0.742 0.0
C1028 C 0.1903 0.29892 0.73802 0.0
H1029 H 0.14009 0.253 0.83249 0.0
H1030 H 0.16841 0.26955 0.80854 0.0
C1031 C 0.18269 0.31282 0.72257 0.0
C1032 C 0.20145 0.24386 0.75813 0.0
H1033 H 0.15057 0.18231 0.78033 0.0
C1034 C 0.2245 0.25968 0.77002 0.0
C1035 C 0.17494 0.21507 0.76192 0.0
C1036 C 0.14806 0.19817 0.74975 0.0
C1037 C 0.22117 0.24803 0.78559 0.0
C1038 C 0.19368 0.22028 0.78934 0.0
C1039 C 0.1718 0.2034 0.77744 0.0
C1040 C 0.18401 0.21101 0.80532 0.0
C1041 C 0.24675 0.26583 0.79788 0.0
C1042 C 0.18346 0.17262 0.8116 0.0
C1043 C 0.16734 0.16322 0.82534 0.0
C1044 C 0.15182 0.19208 0.8331 0.0
C1045 C 0.15343 0.23048 0.82708 0.0
C1046 C 0.16956 0.23992 0.81337 0.0
H1047 H 0.27373 0.27616 0.7935 0.0
H1048 H 0.23178 0.29094 0.80155 0.0
H1049 H 0.25389 0.24509 0.80814 0.0
H1050 H 0.19388 0.14978 0.80548 0.0
H1051 H 0.16549 0.13329 0.82957 0.0
loop_
_geom_bond_atom_site_label_1
_geom_bond_atom_site_label_2
_geom_bond_distance
_geom_bond_site_symmetry_2
_ccdc_geom_bond_type
C0 N1 1.317 . S
C0 N2 1.348 . S
C0 C3 1.485 . S
N1 C0 1.317 . S
N1 N5 1.370 . S
N2 C0 1.348 . S
N2 C4 1.346 . S
C3 C0 1.485 . S
C3 H7 0.960 . S
C3 H8 0.961 . S
C3 H9 0.960 . S
C4 N2 1.346 . S
C4 N5 1.307 . S
C4 C6 1.486 . S
N5 N1 1.370 . S
N5 C4 1.307 . S
C6 C4 1.486 . S
C6 H10 0.960 . S
C6 H11 0.960 . S
C6 H12 0.959 . S
H7 C3 0.960 . S
H8 C3 0.961 . S
H9 C3 0.960 . S
H10 C6 0.960 . S
H11 C6 0.960 . S
H12 C6 0.959 . S
C13 N14 1.317 . S
C13 N15 1.348 . S
C13 C16 1.485 . S
N14 C13 1.317 . S
N14 N18 1.370 . S
N15 C13 1.348 . S
N15 C17 1.346 . S
C16 C13 1.485 . S
C16 H20 0.960 . S
C16 H21 0.961 . S
C16 H22 0.960 . S
C17 N15 1.346 . S
C17 N18 1.307 . S
C17 C19 1.486 . S
N18 N14 1.370 . S
N18 C17 1.307 . S
C19 C17 1.486 . S
C19 H23 0.960 . S
C19 H24 0.960 . S
C19 H25 0.959 . S
H20 C16 0.960 . S
H21 C16 0.961 . S
H22 C16 0.960 . S
H23 C19 0.960 . S
H24 C19 0.960 . S
H25 C19 0.959 . S
C26 N27 1.317 . S
C26 N28 1.348 . S
C26 C29 1.485 . S
N27 C26 1.317 . S
N27 N31 1.370 . S
N28 C26 1.348 . S
N28 C30 1.346 . S
C29 C26 1.485 . S
C29 H33 0.960 . S
C29 H34 0.961 . S
C29 H35 0.960 . S
C30 N28 1.346 . S
C30 N31 1.307 . S
C30 C32 1.486 . S
N31 N27 1.370 . S
N31 C30 1.307 . S
C32 C30 1.486 . S
C32 H36 0.960 . S
C32 H37 0.960 . S
C32 H38 0.959 . S
H33 C29 0.960 . S
H34 C29 0.961 . S
H35 C29 0.960 . S
H36 C32 0.960 . S
H37 C32 0.960 . S
H38 C32 0.959 . S
C39 N40 1.317 . S
C39 N41 1.348 . S
C39 C42 1.485 . S
N40 C39 1.317 . S
N40 N44 1.370 . S
N41 C39 1.348 . S
N41 C43 1.346 . S
C42 C39 1.485 . S
C42 H46 0.960 . S
C42 H47 0.961 . S
C42 H48 0.960 . S
C43 N41 1.346 . S
C43 N44 1.307 . S
C43 C45 1.486 . S
N44 N40 1.370 . S
N44 C43 1.307 . S
C45 C43 1.486 . S
C45 H49 0.960 . S
C45 H50 0.960 . S
C45 H51 0.959 . S
H46 C42 0.960 . S
H47 C42 0.961 . S
H48 C42 0.960 . S
H49 C45 0.960 . S
H50 C45 0.960 . S
H51 C45 0.959 . S
C52 N53 1.317 . S
C52 N54 1.348 . S
C52 C55 1.485 . S
N53 C52 1.317 . S
N53 N57 1.370 . S
N54 C52 1.348 . S
N54 C56 1.346 . S
C55 C52 1.485 . S
C55 H59 0.960 . S
C55 H60 0.961 . S
C55 H61 0.960 . S
C56 N54 1.346 . S
C56 N57 1.307 . S
C56 C58 1.486 . S
N57 N53 1.370 . S
N57 C56 1.307 . S
C58 C56 1.486 . S
C58 H62 0.960 . S
C58 H63 0.960 . S
C58 H64 0.959 . S
H59 C55 0.960 . S
H60 C55 0.961 . S
H61 C55 0.960 . S
H62 C58 0.960 . S
H63 C58 0.960 . S
H64 C58 0.959 . S
C65 N66 1.317 . S
C65 N67 1.348 . S
C65 C68 1.485 . S
N66 C65 1.317 . S
N66 N70 1.370 . S
N67 C65 1.348 . S
N67 C69 1.346 . S
C68 C65 1.485 . S
C68 H72 0.960 . S
C68 H73 0.961 . S
C68 H74 0.960 . S
C69 N67 1.346 . S
C69 N70 1.307 . S
C69 C71 1.486 . S
N70 N66 1.370 . S
N70 C69 1.307 . S
C71 C69 1.486 . S
C71 H75 0.960 . S
C71 H76 0.960 . S
C71 H77 0.959 . S
H72 C68 0.960 . S
H73 C68 0.961 . S
H74 C68 0.960 . S
H75 C71 0.960 . S
H76 C71 0.960 . S
H77 C71 0.959 . S
C78 N79 1.317 . S
C78 N80 1.348 . S
C78 C81 1.485 . S
N79 C78 1.317 . S
N79 N83 1.370 . S
N80 C78 1.348 . S
N80 C82 1.346 . S
C81 C78 1.485 . S
C81 H85 0.960 . S
C81 H86 0.961 . S
C81 H87 0.960 . S
C82 N80 1.346 . S
C82 N83 1.307 . S
C82 C84 1.486 . S
N83 N79 1.370 . S
N83 C82 1.307 . S
C84 C82 1.486 . S
C84 H88 0.960 . S
C84 H89 0.960 . S
C84 H90 0.959 . S
H85 C81 0.960 . S
H86 C81 0.961 . S
H87 C81 0.960 . S
H88 C84 0.960 . S
H89 C84 0.960 . S
H90 C84 0.959 . S
C91 N92 1.317 . S
C91 N93 1.348 . S
C91 C94 1.485 . S
N92 C91 1.317 . S
N92 N96 1.370 . S
N93 C91 1.348 . S
N93 C95 1.346 . S
C94 C91 1.485 . S
C94 H98 0.960 . S
C94 H99 0.961 . S
C94 H100 0.960 . S
C95 N93 1.346 . S
C95 N96 1.307 . S
C95 C97 1.486 . S
N96 N92 1.370 . S
N96 C95 1.307 . S
C97 C95 1.486 . S
C97 H101 0.960 . S
C97 H102 0.960 . S
C97 H103 0.959 . S
H98 C94 0.960 . S
H99 C94 0.961 . S
H100 C94 0.960 . S
H101 C97 0.960 . S
H102 C97 0.960 . S
H103 C97 0.959 . S
Zn104 O110 1.920 . S
Zn104 O116 1.898 . S
Zn104 O119 1.905 . S
Zn105 O113 1.905 . S
Zn105 O114 1.898 . S
Zn105 O122 1.920 . S
Zn106 O109 2.080 . S
Zn106 O112 2.114 . S
Zn106 O115 2.120 . S
Zn106 O117 2.120 . S
Zn106 O118 2.114 . S
Zn106 O121 2.080 . S
C107 O112 1.166 . S
C107 O113 1.182 . S
C108 O114 1.167 . S
C108 O115 1.299 . S
O109 Zn106 2.080 . S
O109 C123 1.305 . S
O110 Zn104 1.920 . S
O110 C123 1.234 . S
C111 O116 1.167 . S
C111 O117 1.299 . S
O112 Zn106 2.114 . S
O112 C107 1.166 . S
O113 Zn105 1.905 . S
O113 C107 1.182 . S
O114 Zn105 1.898 . S
O114 C108 1.167 . S
O115 Zn106 2.120 . S
O115 C108 1.299 . S
O116 Zn104 1.898 . S
O116 C111 1.167 . S
O117 Zn106 2.120 . S
O117 C111 1.299 . S
O118 Zn106 2.114 . S
O118 C120 1.166 . S
O119 Zn104 1.905 . S
O119 C120 1.182 . S
C120 O118 1.166 . S
C120 O119 1.182 . S
O121 Zn106 2.080 . S
O121 C124 1.305 . S
O122 Zn105 1.920 . S
O122 C124 1.234 . S
C123 O109 1.305 . S
C123 O110 1.234 . S
C124 O121 1.305 . S
C124 O122 1.234 . S
Zn125 O131 1.920 . S
Zn125 O137 1.898 . S
Zn125 O140 1.905 . S
Zn126 O134 1.905 . S
Zn126 O135 1.898 . S
Zn126 O143 1.920 . S
Zn127 O130 2.080 . S
Zn127 O133 2.114 . S
Zn127 O136 2.120 . S
Zn127 O138 2.120 . S
Zn127 O139 2.114 . S
Zn127 O142 2.080 . S
C128 O133 1.166 . S
C128 O134 1.182 . S
C129 O135 1.167 . S
C129 O136 1.299 . S
O130 Zn127 2.080 . S
O130 C144 1.305 . S
O131 Zn125 1.920 . S
O131 C144 1.234 . S
C132 O137 1.167 . S
C132 O138 1.299 . S
O133 Zn127 2.114 . S
O133 C128 1.166 . S
O134 Zn126 1.905 . S
O134 C128 1.182 . S
O135 Zn126 1.898 . S
O135 C129 1.167 . S
O136 Zn127 2.120 . S
O136 C129 1.299 . S
O137 Zn125 1.898 . S
O137 C132 1.167 . S
O138 Zn127 2.120 . S
O138 C132 1.299 . S
O139 Zn127 2.114 . S
O139 C141 1.166 . S
O140 Zn125 1.905 . S
O140 C141 1.182 . S
C141 O139 1.166 . S
C141 O140 1.182 . S
O142 Zn127 2.080 . S
O142 C145 1.305 . S
O143 Zn126 1.920 . S
O143 C145 1.234 . S
C144 O130 1.305 . S
C144 O131 1.234 . S
C145 O142 1.305 . S
C145 O143 1.234 . S
Zn146 O152 1.920 . S
Zn146 O158 1.898 . S
Zn146 O161 1.905 . S
Zn147 O155 1.905 . S
Zn147 O156 1.898 . S
Zn147 O164 1.920 . S
Zn148 O151 2.080 . S
Zn148 O154 2.114 . S
Zn148 O157 2.120 . S
Zn148 O159 2.120 . S
Zn148 O160 2.114 . S
Zn148 O163 2.080 . S
C149 O154 1.166 . S
C149 O155 1.182 . S
C150 O156 1.167 . S
C150 O157 1.299 . S
O151 Zn148 2.080 . S
O151 C165 1.305 . S
O152 Zn146 1.920 . S
O152 C165 1.234 . S
C153 O158 1.167 . S
C153 O159 1.299 . S
O154 Zn148 2.114 . S
O154 C149 1.166 . S
O155 Zn147 1.905 . S
O155 C149 1.182 . S
O156 Zn147 1.898 . S
O156 C150 1.167 . S
O157 Zn148 2.120 . S
O157 C150 1.299 . S
O158 Zn146 1.898 . S
O158 C153 1.167 . S
O159 Zn148 2.120 . S
O159 C153 1.299 . S
O160 Zn148 2.114 . S
O160 C162 1.166 . S
O161 Zn146 1.905 . S
O161 C162 1.182 . S
C162 O160 1.166 . S
C162 O161 1.182 . S
O163 Zn148 2.080 . S
O163 C166 1.305 . S
O164 Zn147 1.920 . S
O164 C166 1.234 . S
C165 O151 1.305 . S
C165 O152 1.234 . S
C166 O163 1.305 . S
C166 O164 1.234 . S
Zn167 O173 1.920 . S
Zn167 O179 1.898 . S
Zn167 O182 1.905 . S
Zn168 O176 1.905 . S
Zn168 O177 1.898 . S
Zn168 O185 1.920 . S
Zn169 O172 2.080 . S
Zn169 O175 2.114 . S
Zn169 O178 2.120 . S
Zn169 O180 2.120 . S
Zn169 O181 2.114 . S
Zn169 O184 2.080 . S
C170 O175 1.166 . S
C170 O176 1.182 . S
C171 O177 1.167 . S
C171 O178 1.299 . S
O172 Zn169 2.080 . S
O172 C186 1.305 . S
O173 Zn167 1.920 . S
O173 C186 1.234 . S
C174 O179 1.167 . S
C174 O180 1.299 . S
O175 Zn169 2.114 . S
O175 C170 1.166 . S
O176 Zn168 1.905 . S
O176 C170 1.182 . S
O177 Zn168 1.898 . S
O177 C171 1.167 . S
O178 Zn169 2.120 . S
O178 C171 1.299 . S
O179 Zn167 1.898 . S
O179 C174 1.167 . S
O180 Zn169 2.120 . S
O180 C174 1.299 . S
O181 Zn169 2.114 . S
O181 C183 1.166 . S
O182 Zn167 1.905 . S
O182 C183 1.182 . S
C183 O181 1.166 . S
C183 O182 1.182 . S
O184 Zn169 2.080 . S
O184 C187 1.305 . S
O185 Zn168 1.920 . S
O185 C187 1.234 . S
C186 O172 1.305 . S
C186 O173 1.234 . S
C187 O184 1.305 . S
C187 O185 1.234 . S
H188 C196 0.929 . S
H189 C198 0.930 . S
H190 C200 0.930 . S
H191 C203 0.929 . S
H192 C206 0.930 . S
H193 C208 0.960 . S
H194 C208 0.960 . S
H195 C208 0.960 . S
C196 H188 0.929 . S
C196 C197 1.377 . S
C196 C198 1.384 . S
C197 C196 1.377 . S
C197 C203 1.390 . S
C198 H189 0.930 . S
C198 C196 1.384 . S
C198 C199 1.372 . S
C199 C198 1.372 . S
C199 C200 1.400 . S
C199 C204 1.490 . S
C200 H190 0.930 . S
C200 C199 1.400 . S
C200 C203 1.386 . S
H201 C217 0.930 . S
H202 C218 0.931 . S
C203 H191 0.929 . S
C203 C197 1.390 . S
C203 C200 1.386 . S
C204 C199 1.490 . S
C204 C206 1.395 . S
C204 C207 1.403 . S
H205 C211 0.930 . S
C206 H192 0.930 . S
C206 C204 1.395 . S
C206 C209 1.403 . S
C207 C204 1.403 . S
C207 C208 1.524 . S
C207 C211 1.400 . S
C208 H193 0.960 . S
C208 H194 0.960 . S
C208 H195 0.960 . S
C208 C207 1.524 . S
C209 C206 1.403 . S
C209 C210 1.392 . S
C209 C213 1.495 . S
C210 C209 1.392 . S
C210 C211 1.385 . S
C210 C212 1.478 . S
C211 H205 0.930 . S
C211 C207 1.400 . S
C211 C210 1.385 . S
C212 C210 1.478 . S
C212 C214 1.381 . S
C212 C218 1.383 . S
C213 C209 1.495 . S
C213 H219 0.959 . S
C213 H220 0.961 . S
C213 H221 0.960 . S
C214 C212 1.381 . S
C214 C215 1.394 . S
C214 H222 0.930 . S
C215 C214 1.394 . S
C215 C216 1.383 . S
C215 H223 0.929 . S
C216 C215 1.383 . S
C216 C217 1.377 . S
C217 H201 0.930 . S
C217 C216 1.377 . S
C217 C218 1.379 . S
C218 H202 0.931 . S
C218 C212 1.383 . S
C218 C217 1.379 . S
H219 C213 0.959 . S
H220 C213 0.961 . S
H221 C213 0.960 . S
H222 C214 0.930 . S
H223 C215 0.929 . S
H224 C232 0.929 . S
H225 C234 0.930 . S
H226 C236 0.930 . S
H227 C239 0.929 . S
H228 C242 0.930 . S
H229 C244 0.960 . S
H230 C244 0.960 . S
H231 C244 0.960 . S
C232 H224 0.929 . S
C232 C233 1.377 . S
C232 C234 1.384 1_455 S
C233 C232 1.377 . S
C233 C239 1.390 . S
C234 H225 0.930 . S
C234 C232 1.384 1_655 S
C234 C235 1.372 . S
C235 C234 1.372 . S
C235 C236 1.400 . S
C235 C240 1.490 . S
C236 H226 0.930 . S
C236 C235 1.400 . S
C236 C239 1.386 1_655 S
H237 C253 0.930 . S
H238 C254 0.931 . S
C239 H227 0.929 . S
C239 C233 1.390 . S
C239 C236 1.386 1_455 S
C240 C235 1.490 . S
C240 C242 1.395 . S
C240 C243 1.403 . S
H241 C247 0.930 . S
C242 H228 0.930 . S
C242 C240 1.395 . S
C242 C245 1.403 . S
C243 C240 1.403 . S
C243 C244 1.524 . S
C243 C247 1.400 . S
C244 H229 0.960 . S
C244 H230 0.960 . S
C244 H231 0.960 . S
C244 C243 1.524 . S
C245 C242 1.403 . S
C245 C246 1.392 . S
C245 C249 1.495 . S
C246 C245 1.392 . S
C246 C247 1.385 . S
C246 C248 1.478 . S
C247 H241 0.930 . S
C247 C243 1.400 . S
C247 C246 1.385 . S
C248 C246 1.478 . S
C248 C250 1.381 . S
C248 C254 1.383 . S
C249 C245 1.495 . S
C249 H255 0.959 . S
C249 H256 0.961 . S
C249 H257 0.960 . S
C250 C248 1.381 . S
C250 C251 1.394 . S
C250 H258 0.930 . S
C251 C250 1.394 . S
C251 C252 1.383 . S
C251 H259 0.929 . S
C252 C251 1.383 . S
C252 C253 1.377 . S
C253 H237 0.930 . S
C253 C252 1.377 . S
C253 C254 1.379 . S
C254 H238 0.931 . S
C254 C248 1.383 . S
C254 C253 1.379 . S
H255 C249 0.959 . S
H256 C249 0.961 . S
H257 C249 0.960 . S
H258 C250 0.930 . S
H259 C251 0.929 . S
H260 C268 0.929 . S
H261 C270 0.930 . S
H262 C272 0.930 . S
H263 C275 0.929 . S
H264 C278 0.930 . S
H265 C280 0.960 . S
H266 C280 0.960 . S
H267 C280 0.960 . S
C268 H260 0.929 . S
C268 C269 1.377 . S
C268 C270 1.384 . S
C269 C268 1.377 . S
C269 C275 1.390 . S
C270 H261 0.930 . S
C270 C268 1.384 . S
C270 C271 1.372 . S
C271 C270 1.372 . S
C271 C272 1.400 . S
C271 C276 1.490 . S
C272 H262 0.930 . S
C272 C271 1.400 . S
C272 C275 1.386 . S
H273 C289 0.930 . S
H274 C290 0.931 . S
C275 H263 0.929 . S
C275 C269 1.390 . S
C275 C272 1.386 . S
C276 C271 1.490 . S
C276 C278 1.395 . S
C276 C279 1.403 . S
H277 C283 0.930 . S
C278 H264 0.930 . S
C278 C276 1.395 . S
C278 C281 1.403 . S
C279 C276 1.403 . S
C279 C280 1.524 . S
C279 C283 1.400 . S
C280 H265 0.960 . S
C280 H266 0.960 . S
C280 H267 0.960 . S
C280 C279 1.524 . S
C281 C278 1.403 . S
C281 C282 1.392 . S
C281 C285 1.495 . S
C282 C281 1.392 . S
C282 C283 1.385 . S
C282 C284 1.478 . S
C283 H277 0.930 . S
C283 C279 1.400 . S
C283 C282 1.385 . S
C284 C282 1.478 . S
C284 C286 1.381 . S
C284 C290 1.383 . S
C285 C281 1.495 . S
C285 H291 0.959 . S
C285 H292 0.961 . S
C285 H293 0.960 . S
C286 C284 1.381 . S
C286 C287 1.394 . S
C286 H294 0.930 . S
C287 C286 1.394 . S
C287 C288 1.383 . S
C287 H295 0.929 . S
C288 C287 1.383 . S
C288 C289 1.377 . S
C289 H273 0.930 . S
C289 C288 1.377 . S
C289 C290 1.379 . S
C290 H274 0.931 . S
C290 C284 1.383 . S
C290 C289 1.379 . S
H291 C285 0.959 . S
H292 C285 0.961 . S
H293 C285 0.960 . S
H294 C286 0.930 . S
H295 C287 0.929 . S
H296 C304 0.929 . S
H297 C306 0.930 . S
H298 C308 0.930 . S
H299 C311 0.929 . S
H300 C314 0.930 . S
H301 C316 0.960 . S
H302 C316 0.960 . S
H303 C316 0.960 . S
C304 H296 0.929 . S
C304 C305 1.377 . S
C304 C306 1.384 . S
C305 C304 1.377 . S
C305 C311 1.390 . S
C306 H297 0.930 . S
C306 C304 1.384 . S
C306 C307 1.372 . S
C307 C306 1.372 . S
C307 C308 1.400 . S
C307 C312 1.490 . S
C308 H298 0.930 . S
C308 C307 1.400 . S
C308 C311 1.386 . S
H309 C325 0.930 . S
H310 C326 0.931 . S
C311 H299 0.929 . S
C311 C305 1.390 . S
C311 C308 1.386 . S
C312 C307 1.490 . S
C312 C314 1.395 . S
C312 C315 1.403 . S
H313 C319 0.930 . S
C314 H300 0.930 . S
C314 C312 1.395 . S
C314 C317 1.403 . S
C315 C312 1.403 . S
C315 C316 1.524 . S
C315 C319 1.400 . S
C316 H301 0.960 . S
C316 H302 0.960 . S
C316 H303 0.960 . S
C316 C315 1.524 . S
C317 C314 1.403 . S
C317 C318 1.392 . S
C317 C321 1.495 . S
C318 C317 1.392 . S
C318 C319 1.385 . S
C318 C320 1.478 . S
C319 H313 0.930 . S
C319 C315 1.400 . S
C319 C318 1.385 . S
C320 C318 1.478 . S
C320 C322 1.381 . S
C320 C326 1.383 . S
C321 C317 1.495 . S
C321 H327 0.959 . S
C321 H328 0.961 . S
C321 H329 0.960 . S
C322 C320 1.381 . S
C322 C323 1.394 . S
C322 H330 0.930 . S
C323 C322 1.394 . S
C323 C324 1.383 . S
C323 H331 0.929 . S
C324 C323 1.383 . S
C324 C325 1.377 . S
C325 H309 0.930 . S
C325 C324 1.377 . S
C325 C326 1.379 . S
C326 H310 0.931 . S
C326 C320 1.383 . S
C326 C325 1.379 . S
H327 C321 0.959 . S
H328 C321 0.961 . S
H329 C321 0.960 . S
H330 C322 0.930 . S
H331 C323 0.929 . S
H332 C340 0.929 . S
H333 C342 0.930 . S
H334 C344 0.930 . S
H335 C347 0.937 . S
H336 C350 0.930 . S
H337 C352 0.960 . S
H338 C352 0.960 1_455 S
H339 C352 0.960 . S
C340 H332 0.929 . S
C340 C341 1.377 . S
C340 C342 1.384 . S
C341 C340 1.377 . S
C341 C347 1.390 . S
C342 H333 0.930 . S
C342 C340 1.384 . S
C342 C343 1.372 . S
C343 C342 1.372 . S
C343 C344 1.400 . S
C343 C348 1.490 . S
C344 H334 0.930 . S
C344 C343 1.400 . S
C344 C347 1.386 . S
H345 C361 0.930 . S
H346 C362 0.931 . S
C347 H335 0.937 . S
C347 C341 1.390 . S
C347 C344 1.386 . S
C348 C343 1.490 . S
C348 C350 1.395 . S
C348 C351 1.403 . S
H349 C355 0.930 . S
C350 H336 0.930 . S
C350 C348 1.395 . S
C350 C353 1.403 . S
C351 C348 1.403 . S
C351 C352 1.524 1_455 S
C351 C355 1.400 . S
C352 H337 0.960 . S
C352 H338 0.960 1_655 S
C352 H339 0.960 . S
C352 C351 1.524 1_655 S
C353 C350 1.403 . S
C353 C354 1.392 . S
C353 C357 1.495 . S
C354 C353 1.392 . S
C354 C355 1.385 . S
C354 C356 1.478 . S
C355 H349 0.930 . S
C355 C351 1.400 . S
C355 C354 1.385 . S
C356 C354 1.478 . S
C356 C358 1.381 . S
C356 C362 1.383 . S
C357 C353 1.495 . S
C357 H363 0.959 . S
C357 H364 0.961 . S
C357 H365 0.960 . S
C358 C356 1.381 . S
C358 C359 1.394 . S
C358 H366 0.930 . S
C359 C358 1.394 . S
C359 C360 1.383 . S
C359 H367 0.929 . S
C360 C359 1.383 . S
C360 C361 1.377 . S
C361 H345 0.930 . S
C361 C360 1.377 . S
C361 C362 1.379 . S
C362 H346 0.931 . S
C362 C356 1.383 . S
C362 C361 1.379 . S
H363 C357 0.959 . S
H364 C357 0.961 . S
H365 C357 0.960 . S
H366 C358 0.930 . S
H367 C359 0.929 . S
H368 C376 0.929 . S
H369 C378 0.930 . S
H370 C380 0.930 . S
H371 C383 0.929 . S
H372 C386 0.930 . S
H373 C388 0.960 . S
H374 C388 0.960 . S
H375 C388 0.960 . S
C376 H368 0.929 . S
C376 C377 1.377 . S
C376 C378 1.384 . S
C377 C376 1.377 . S
C377 C383 1.390 . S
C378 H369 0.930 . S
C378 C376 1.384 . S
C378 C379 1.372 . S
C379 C378 1.372 . S
C379 C380 1.400 . S
C379 C384 1.490 . S
C380 H370 0.930 . S
C380 C379 1.400 . S
C380 C383 1.386 . S
H381 C397 0.930 . S
H382 C398 0.931 . S
C383 H371 0.929 . S
C383 C377 1.390 . S
C383 C380 1.386 . S
C384 C379 1.490 . S
C384 C386 1.395 . S
C384 C387 1.403 . S
H385 C391 0.930 . S
C386 H372 0.930 . S
C386 C384 1.395 . S
C386 C389 1.403 . S
C387 C384 1.403 . S
C387 C388 1.524 . S
C387 C391 1.400 . S
C388 H373 0.960 . S
C388 H374 0.960 . S
C388 H375 0.960 . S
C388 C387 1.524 . S
C389 C386 1.403 . S
C389 C390 1.392 . S
C389 C393 1.495 . S
C390 C389 1.392 . S
C390 C391 1.385 . S
C390 C392 1.478 . S
C391 H385 0.930 . S
C391 C387 1.400 . S
C391 C390 1.385 . S
C392 C390 1.478 . S
C392 C394 1.381 . S
C392 C398 1.383 . S
C393 C389 1.495 . S
C393 H399 0.959 . S
C393 H400 0.961 . S
C393 H401 0.960 . S
C394 C392 1.381 . S
C394 C395 1.394 . S
C394 H402 0.930 . S
C395 C394 1.394 . S
C395 C396 1.383 . S
C395 H403 0.929 . S
C396 C395 1.383 . S
C396 C397 1.377 . S
C397 H381 0.930 . S
C397 C396 1.377 . S
C397 C398 1.379 . S
C398 H382 0.931 . S
C398 C392 1.383 . S
C398 C397 1.379 . S
H399 C393 0.959 . S
H400 C393 0.961 . S
H401 C393 0.960 . S
H402 C394 0.930 . S
H403 C395 0.929 . S
H404 C412 0.929 . S
H405 C414 0.930 . S
H406 C416 0.930 . S
H407 C419 0.929 . S
H408 C422 0.930 . S
H409 C424 0.960 . S
H410 C424 0.960 . S
H411 C424 0.960 . S
C412 H404 0.929 . S
C412 C413 1.377 . S
C412 C414 1.384 . S
C413 C412 1.377 . S
C413 C419 1.390 . S
C414 H405 0.930 . S
C414 C412 1.384 . S
C414 C415 1.372 . S
C415 C414 1.372 . S
C415 C416 1.400 . S
C415 C420 1.490 . S
C416 H406 0.930 . S
C416 C415 1.400 . S
C416 C419 1.386 . S
H417 C433 0.930 . S
H418 C434 0.931 . S
C419 H407 0.929 . S
C419 C413 1.390 . S
C419 C416 1.386 . S
C420 C415 1.490 . S
C420 C422 1.395 . S
C420 C423 1.403 . S
H421 C427 0.930 . S
C422 H408 0.930 . S
C422 C420 1.395 . S
C422 C425 1.403 . S
C423 C420 1.403 . S
C423 C424 1.524 . S
C423 C427 1.400 . S
C424 H409 0.960 . S
C424 H410 0.960 . S
C424 H411 0.960 . S
C424 C423 1.524 . S
C425 C422 1.403 . S
C425 C426 1.392 . S
C425 C429 1.495 . S
C426 C425 1.392 . S
C426 C427 1.385 . S
C426 C428 1.478 . S
C427 H421 0.930 . S
C427 C423 1.400 . S
C427 C426 1.385 . S
C428 C426 1.478 . S
C428 C430 1.381 . S
C428 C434 1.383 . S
C429 C425 1.495 . S
C429 H435 0.959 . S
C429 H436 0.961 . S
C429 H437 0.960 . S
C430 C428 1.381 . S
C430 C431 1.394 . S
C430 H438 0.930 . S
C431 C430 1.394 . S
C431 C432 1.383 . S
C431 H439 0.929 . S
C432 C431 1.383 . S
C432 C433 1.377 . S
C433 H417 0.930 . S
C433 C432 1.377 . S
C433 C434 1.379 . S
C434 H418 0.931 . S
C434 C428 1.383 . S
C434 C433 1.379 . S
H435 C429 0.959 . S
H436 C429 0.961 . S
H437 C429 0.960 . S
H438 C430 0.930 . S
H439 C431 0.929 . S
H440 C448 0.929 . S
H441 C450 0.930 . S
H442 C452 0.930 . S
H443 C455 0.929 . S
H444 C458 0.930 . S
H445 C460 0.960 . S
H446 C460 0.960 . S
H447 C460 0.960 . S
C448 H440 0.929 . S
C448 C449 1.377 . S
C448 C450 1.384 1_455 S
C449 C448 1.377 . S
C449 C455 1.390 . S
C450 H441 0.930 . S
C450 C448 1.384 1_655 S
C450 C451 1.372 . S
C451 C450 1.372 . S
C451 C452 1.400 . S
C451 C456 1.490 . S
C452 H442 0.930 . S
C452 C451 1.400 . S
C452 C455 1.386 1_655 S
H453 C469 0.930 . S
H454 C470 0.931 . S
C455 H443 0.929 . S
C455 C449 1.390 . S
C455 C452 1.386 1_455 S
C456 C451 1.490 . S
C456 C458 1.395 . S
C456 C459 1.403 . S
H457 C463 0.930 . S
C458 H444 0.930 . S
C458 C456 1.395 . S
C458 C461 1.403 . S
C459 C456 1.403 . S
C459 C460 1.524 . S
C459 C463 1.400 . S
C460 H445 0.960 . S
C460 H446 0.960 . S
C460 H447 0.960 . S
C460 C459 1.524 . S
C461 C458 1.403 . S
C461 C462 1.392 . S
C461 C465 1.495 . S
C462 C461 1.392 . S
C462 C463 1.385 . S
C462 C464 1.478 . S
C463 H457 0.930 . S
C463 C459 1.400 . S
C463 C462 1.385 . S
C464 C462 1.478 . S
C464 C466 1.381 . S
C464 C470 1.383 . S
C465 C461 1.495 . S
C465 H471 0.959 . S
C465 H472 0.961 . S
C465 H473 0.960 . S
C466 C464 1.381 . S
C466 C467 1.394 . S
C466 H474 0.930 . S
C467 C466 1.394 . S
C467 C468 1.383 . S
C467 H475 0.929 . S
C468 C467 1.383 . S
C468 C469 1.377 . S
C469 H453 0.930 . S
C469 C468 1.377 . S
C469 C470 1.379 . S
C470 H454 0.931 . S
C470 C464 1.383 . S
C470 C469 1.379 . S
H471 C465 0.959 . S
H472 C465 0.961 . S
H473 C465 0.960 . S
H474 C466 0.930 . S
H475 C467 0.929 . S
H476 C484 0.929 . S
H477 C486 0.930 . S
H478 C488 0.930 . S
H479 C491 0.929 . S
H480 C494 0.930 . S
H481 C496 0.960 . S
H482 C496 0.960 . S
H483 C496 0.960 . S
C484 H476 0.929 . S
C484 C485 1.377 . S
C484 C486 1.384 . S
C485 C484 1.377 . S
C485 C491 1.390 . S
C486 H477 0.930 . S
C486 C484 1.384 . S
C486 C487 1.372 . S
C487 C486 1.372 . S
C487 C488 1.400 . S
C487 C492 1.490 . S
C488 H478 0.930 . S
C488 C487 1.400 . S
C488 C491 1.386 . S
H489 C505 0.930 . S
H490 C506 0.931 . S
C491 H479 0.929 . S
C491 C485 1.390 . S
C491 C488 1.386 . S
C492 C487 1.490 . S
C492 C494 1.395 . S
C492 C495 1.403 . S
H493 C499 0.930 . S
C494 H480 0.930 . S
C494 C492 1.395 . S
C494 C497 1.403 . S
C495 C492 1.403 . S
C495 C496 1.524 . S
C495 C499 1.400 . S
C496 H481 0.960 . S
C496 H482 0.960 . S
C496 H483 0.960 . S
C496 C495 1.524 . S
C497 C494 1.403 . S
C497 C498 1.392 . S
C497 C501 1.495 . S
C498 C497 1.392 . S
C498 C499 1.385 . S
C498 C500 1.478 . S
C499 H493 0.930 . S
C499 C495 1.400 . S
C499 C498 1.385 . S
C500 C498 1.478 . S
C500 C502 1.381 . S
C500 C506 1.383 . S
C501 C497 1.495 . S
C501 H507 0.959 . S
C501 H508 0.961 . S
C501 H509 0.960 . S
C502 C500 1.381 . S
C502 C503 1.394 . S
C502 H510 0.930 . S
C503 C502 1.394 . S
C503 C504 1.383 . S
C503 H511 0.929 . S
C504 C503 1.383 . S
C504 C505 1.377 . S
C505 H489 0.930 . S
C505 C504 1.377 . S
C505 C506 1.379 . S
C506 H490 0.931 . S
C506 C500 1.383 . S
C506 C505 1.379 . S
H507 C501 0.959 . S
H508 C501 0.961 . S
H509 C501 0.960 . S
H510 C502 0.930 . S
H511 C503 0.929 . S
H512 C520 0.929 . S
H513 C522 0.930 . S
H514 C524 0.930 . S
H515 C527 0.929 . S
H516 C530 0.930 . S
H517 C532 0.960 . S
H518 C532 0.960 . S
H519 C532 0.960 . S
C520 H512 0.929 . S
C520 C521 1.377 . S
C520 C522 1.384 . S
C521 C520 1.377 . S
C521 C527 1.390 . S
C522 H513 0.930 . S
C522 C520 1.384 . S
C522 C523 1.372 . S
C523 C522 1.372 . S
C523 C524 1.400 . S
C523 C528 1.490 . S
C524 H514 0.930 . S
C524 C523 1.400 . S
C524 C527 1.386 . S
H525 C541 0.930 . S
H526 C542 0.931 . S
C527 H515 0.929 . S
C527 C521 1.390 . S
C527 C524 1.386 . S
C528 C523 1.490 . S
C528 C530 1.395 . S
C528 C531 1.403 . S
H529 C535 0.930 . S
C530 H516 0.930 . S
C530 C528 1.395 . S
C530 C533 1.403 . S
C531 C528 1.403 . S
C531 C532 1.524 . S
C531 C535 1.400 . S
C532 H517 0.960 . S
C532 H518 0.960 . S
C532 H519 0.960 . S
C532 C531 1.524 . S
C533 C530 1.403 . S
C533 C534 1.392 . S
C533 C537 1.495 . S
C534 C533 1.392 . S
C534 C535 1.385 . S
C534 C536 1.478 . S
C535 H529 0.930 . S
C535 C531 1.400 . S
C535 C534 1.385 . S
C536 C534 1.478 . S
C536 C538 1.381 . S
C536 C542 1.383 . S
C537 C533 1.495 . S
C537 H543 0.959 . S
C537 H544 0.961 . S
C537 H545 0.960 . S
C538 C536 1.381 . S
C538 C539 1.394 . S
C538 H546 0.930 . S
C539 C538 1.394 . S
C539 C540 1.383 . S
C539 H547 0.929 . S
C540 C539 1.383 . S
C540 C541 1.377 . S
C541 H525 0.930 . S
C541 C540 1.377 . S
C541 C542 1.379 . S
C542 H526 0.931 . S
C542 C536 1.383 . S
C542 C541 1.379 . S
H543 C537 0.959 . S
H544 C537 0.961 . S
H545 C537 0.960 . S
H546 C538 0.930 . S
H547 C539 0.929 . S
H548 C556 0.929 . S
H549 C558 0.930 . S
H550 C560 0.930 . S
H551 C563 0.929 . S
H552 C566 0.930 . S
H553 C568 0.960 . S
H554 C568 0.960 . S
H555 C568 0.960 . S
C556 H548 0.929 . S
C556 C557 1.377 . S
C556 C558 1.384 . S
C557 C556 1.377 . S
C557 C563 1.390 . S
C558 H549 0.930 . S
C558 C556 1.384 . S
C558 C559 1.372 . S
C559 C558 1.372 . S
C559 C560 1.400 . S
C559 C564 1.490 . S
C560 H550 0.930 . S
C560 C559 1.400 . S
C560 C563 1.386 . S
H561 C577 0.930 . S
H562 C578 0.931 . S
C563 H551 0.929 . S
C563 C557 1.390 . S
C563 C560 1.386 . S
C564 C559 1.490 . S
C564 C566 1.395 . S
C564 C567 1.403 . S
H565 C571 0.930 . S
C566 H552 0.930 . S
C566 C564 1.395 . S
C566 C569 1.403 . S
C567 C564 1.403 . S
C567 C568 1.524 . S
C567 C571 1.400 . S
C568 H553 0.960 . S
C568 H554 0.960 . S
C568 H555 0.960 . S
C568 C567 1.524 . S
C569 C566 1.403 . S
C569 C570 1.392 . S
C569 C573 1.495 . S
C570 C569 1.392 . S
C570 C571 1.385 . S
C570 C572 1.478 . S
C571 H565 0.930 . S
C571 C567 1.400 . S
C571 C570 1.385 . S
C572 C570 1.478 . S
C572 C574 1.381 . S
C572 C578 1.383 . S
C573 C569 1.495 . S
C573 H579 0.959 . S
C573 H580 0.961 . S
C573 H581 0.960 . S
C574 C572 1.381 . S
C574 C575 1.394 . S
C574 H582 0.930 . S
C575 C574 1.394 . S
C575 C576 1.383 . S
C575 H583 0.929 . S
C576 C575 1.383 . S
C576 C577 1.377 . S
C577 H561 0.930 . S
C577 C576 1.377 . S
C577 C578 1.379 . S
C578 H562 0.931 . S
C578 C572 1.383 . S
C578 C577 1.379 . S
H579 C573 0.959 . S
H580 C573 0.961 . S
H581 C573 0.960 . S
H582 C574 0.930 . S
H583 C575 0.929 . S
H584 C592 0.929 . S
H585 C594 0.930 . S
H586 C596 0.930 . S
H587 C599 0.929 . S
H588 C602 0.930 . S
H589 C604 0.960 . S
H590 C604 0.960 . S
H591 C604 0.960 . S
C592 H584 0.929 . S
C592 C593 1.377 . S
C592 C594 1.384 . S
C593 C592 1.377 . S
C593 C599 1.390 . S
C594 H585 0.930 . S
C594 C592 1.384 . S
C594 C595 1.372 . S
C595 C594 1.372 . S
C595 C596 1.400 . S
C595 C600 1.490 . S
C596 H586 0.930 . S
C596 C595 1.400 . S
C596 C599 1.386 . S
H597 C613 0.930 . S
H598 C614 0.931 . S
C599 H587 0.929 . S
C599 C593 1.390 . S
C599 C596 1.386 . S
C600 C595 1.490 . S
C600 C602 1.395 . S
C600 C603 1.403 . S
H601 C607 0.930 . S
C602 H588 0.930 . S
C602 C600 1.395 . S
C602 C605 1.403 . S
C603 C600 1.403 . S
C603 C604 1.524 . S
C603 C607 1.400 . S
C604 H589 0.960 . S
C604 H590 0.960 . S
C604 H591 0.960 . S
C604 C603 1.524 . S
C605 C602 1.403 . S
C605 C606 1.392 . S
C605 C609 1.495 . S
C606 C605 1.392 . S
C606 C607 1.385 . S
C606 C608 1.478 . S
C607 H601 0.930 . S
C607 C603 1.400 . S
C607 C606 1.385 . S
C608 C606 1.478 . S
C608 C610 1.381 . S
C608 C614 1.383 . S
C609 C605 1.495 . S
C609 H615 0.959 . S
C609 H616 0.961 . S
C609 H617 0.960 . S
C610 C608 1.381 . S
C610 C611 1.394 . S
C610 H618 0.930 . S
C611 C610 1.394 . S
C611 C612 1.383 . S
C611 H619 0.929 . S
C612 C611 1.383 . S
C612 C613 1.377 . S
C613 H597 0.930 . S
C613 C612 1.377 . S
C613 C614 1.379 . S
C614 H598 0.931 . S
C614 C608 1.383 . S
C614 C613 1.379 . S
H615 C609 0.959 . S
H616 C609 0.961 . S
H617 C609 0.960 . S
H618 C610 0.930 . S
H619 C611 0.929 . S
H620 C628 0.929 . S
H621 C630 0.930 . S
H622 C632 0.930 . S
H623 C635 0.929 . S
H624 C638 0.930 . S
H625 C640 0.960 . S
H626 C640 0.960 . S
H627 C640 0.960 . S
C628 H620 0.929 . S
C628 C629 1.377 . S
C628 C630 1.384 . S
C629 C628 1.377 . S
C629 C635 1.390 . S
C630 H621 0.930 . S
C630 C628 1.384 . S
C630 C631 1.372 . S
C631 C630 1.372 . S
C631 C632 1.400 . S
C631 C636 1.490 . S
C632 H622 0.930 . S
C632 C631 1.400 . S
C632 C635 1.386 . S
H633 C649 0.930 . S
H634 C650 0.931 . S
C635 H623 0.929 . S
C635 C629 1.390 . S
C635 C632 1.386 . S
C636 C631 1.490 . S
C636 C638 1.395 . S
C636 C639 1.403 . S
H637 C643 0.930 . S
C638 H624 0.930 . S
C638 C636 1.395 . S
C638 C641 1.403 1_565 S
C639 C636 1.403 . S
C639 C640 1.524 . S
C639 C643 1.400 1_565 S
C640 H625 0.960 . S
C640 H626 0.960 . S
C640 H627 0.960 . S
C640 C639 1.524 . S
C641 C638 1.403 1_545 S
C641 C642 1.392 . S
C641 C645 1.495 . S
C642 C641 1.392 . S
C642 C643 1.385 . S
C642 C644 1.478 . S
C643 H637 0.930 . S
C643 C639 1.400 1_545 S
C643 C642 1.385 . S
C644 C642 1.478 . S
C644 C646 1.381 . S
C644 C650 1.383 . S
C645 C641 1.495 . S
C645 H651 0.959 . S
C645 H652 0.961 . S
C645 H653 0.960 . S
C646 C644 1.381 . S
C646 C647 1.394 . S
C646 H654 0.930 . S
C647 C646 1.394 . S
C647 C648 1.383 . S
C647 H655 0.929 . S
C648 C647 1.383 . S
C648 C649 1.377 . S
C649 H633 0.930 . S
C649 C648 1.377 . S
C649 C650 1.379 . S
C650 H634 0.931 . S
C650 C644 1.383 . S
C650 C649 1.379 . S
H651 C645 0.959 . S
H652 C645 0.961 . S
H653 C645 0.960 . S
H654 C646 0.930 . S
H655 C647 0.929 . S
H656 C664 0.929 . S
H657 C666 0.930 . S
H658 C668 0.930 . S
H659 C671 0.929 . S
H660 C674 0.930 . S
H661 C676 0.960 . S
H662 C676 0.960 . S
H663 C676 0.960 . S
C664 H656 0.929 . S
C664 C665 1.377 . S
C664 C666 1.384 . S
C665 C664 1.377 . S
C665 C671 1.390 . S
C666 H657 0.930 . S
C666 C664 1.384 . S
C666 C667 1.372 . S
C667 C666 1.372 . S
C667 C668 1.400 . S
C667 C672 1.490 . S
C668 H658 0.930 . S
C668 C667 1.400 . S
C668 C671 1.386 . S
H669 C685 0.930 . S
H670 C686 0.931 . S
C671 H659 0.929 . S
C671 C665 1.390 . S
C671 C668 1.386 . S
C672 C667 1.490 . S
C672 C674 1.395 . S
C672 C675 1.403 . S
H673 C679 0.930 . S
C674 H660 0.930 . S
C674 C672 1.395 . S
C674 C677 1.403 . S
C675 C672 1.403 . S
C675 C676 1.524 . S
C675 C679 1.400 . S
C676 H661 0.960 . S
C676 H662 0.960 . S
C676 H663 0.960 . S
C676 C675 1.524 . S
C677 C674 1.403 . S
C677 C678 1.392 . S
C677 C681 1.495 . S
C678 C677 1.392 . S
C678 C679 1.385 . S
C678 C680 1.478 1_545 S
C679 H673 0.930 . S
C679 C675 1.400 . S
C679 C678 1.385 . S
C680 C678 1.478 1_565 S
C680 C682 1.381 . S
C680 C686 1.383 . S
C681 C677 1.495 . S
C681 H687 0.959 . S
C681 H688 0.961 1_545 S
C681 H689 0.960 1_545 S
C682 C680 1.381 . S
C682 C683 1.394 . S
C682 H690 0.930 . S
C683 C682 1.394 . S
C683 C684 1.383 . S
C683 H691 0.929 . S
C684 C683 1.383 . S
C684 C685 1.377 . S
C685 H669 0.930 . S
C685 C684 1.377 . S
C685 C686 1.379 . S
C686 H670 0.931 . S
C686 C680 1.383 . S
C686 C685 1.379 . S
H687 C681 0.959 . S
H688 C681 0.961 1_565 S
H689 C681 0.960 1_565 S
H690 C682 0.930 . S
H691 C683 0.929 . S
H692 C700 0.929 . S
H693 C702 0.930 . S
H694 C704 0.930 . S
H695 C707 0.929 . S
H696 C710 0.930 . S
H697 C712 0.960 . S
H698 C712 0.960 . S
H699 C712 0.960 . S
C700 H692 0.929 . S
C700 C701 1.377 . S
C700 C702 1.384 . S
C701 C700 1.377 . S
C701 C707 1.390 . S
C702 H693 0.930 . S
C702 C700 1.384 . S
C702 C703 1.372 . S
C703 C702 1.372 . S
C703 C704 1.400 . S
C703 C708 1.490 . S
C704 H694 0.930 . S
C704 C703 1.400 . S
C704 C707 1.386 . S
H705 C721 0.930 . S
H706 C722 0.931 . S
C707 H695 0.929 . S
C707 C701 1.390 . S
C707 C704 1.386 . S
C708 C703 1.490 . S
C708 C710 1.395 1_545 S
C708 C711 1.403 . S
H709 C715 0.930 . S
C710 H696 0.930 . S
C710 C708 1.395 1_565 S
C710 C713 1.403 . S
C711 C708 1.403 . S
C711 C712 1.524 . S
C711 C715 1.400 1_545 S
C712 H697 0.960 . S
C712 H698 0.960 . S
C712 H699 0.960 . S
C712 C711 1.524 . S
C713 C710 1.403 . S
C713 C714 1.392 . S
C713 C717 1.495 . S
C714 C713 1.392 . S
C714 C715 1.385 . S
C714 C716 1.478 . S
C715 H709 0.930 . S
C715 C711 1.400 1_565 S
C715 C714 1.385 . S
C716 C714 1.478 . S
C716 C718 1.381 . S
C716 C722 1.383 . S
C717 C713 1.495 . S
C717 H723 0.959 . S
C717 H724 0.961 . S
C717 H725 0.960 . S
C718 C716 1.381 . S
C718 C719 1.394 . S
C718 H726 0.930 . S
C719 C718 1.394 . S
C719 C720 1.383 . S
C719 H727 0.929 . S
C720 C719 1.383 . S
C720 C721 1.377 . S
C721 H705 0.930 . S
C721 C720 1.377 . S
C721 C722 1.379 . S
C722 H706 0.931 . S
C722 C716 1.383 . S
C722 C721 1.379 . S
H723 C717 0.959 . S
H724 C717 0.961 . S
H725 C717 0.960 . S
H726 C718 0.930 . S
H727 C719 0.929 . S
H728 C736 0.929 . S
H729 C738 0.930 . S
H730 C740 0.930 . S
H731 C743 0.929 1_655 S
H732 C746 0.930 . S
H733 C748 0.960 . S
H734 C748 0.960 . S
H735 C748 0.960 . S
C736 H728 0.929 . S
C736 C737 1.377 . S
C736 C738 1.384 . S
C737 C736 1.377 . S
C737 C743 1.390 . S
C738 H729 0.930 . S
C738 C736 1.384 . S
C738 C739 1.372 . S
C739 C738 1.372 . S
C739 C740 1.400 . S
C739 C744 1.490 . S
C740 H730 0.930 . S
C740 C739 1.400 . S
C740 C743 1.386 . S
H741 C757 0.930 . S
H742 C758 0.931 . S
C743 H731 0.929 1_455 S
C743 C737 1.390 . S
C743 C740 1.386 . S
C744 C739 1.490 . S
C744 C746 1.395 . S
C744 C747 1.403 . S
H745 C751 0.930 . S
C746 H732 0.930 . S
C746 C744 1.395 . S
C746 C749 1.403 . S
C747 C744 1.403 . S
C747 C748 1.524 . S
C747 C751 1.400 . S
C748 H733 0.960 . S
C748 H734 0.960 . S
C748 H735 0.960 . S
C748 C747 1.524 . S
C749 C746 1.403 . S
C749 C750 1.392 . S
C749 C753 1.495 . S
C750 C749 1.392 . S
C750 C751 1.385 . S
C750 C752 1.478 1_565 S
C751 H745 0.930 . S
C751 C747 1.400 . S
C751 C750 1.385 . S
C752 C750 1.478 1_545 S
C752 C754 1.381 . S
C752 C758 1.383 . S
C753 C749 1.495 . S
C753 H759 0.959 . S
C753 H760 0.961 . S
C753 H761 0.960 . S
C754 C752 1.381 . S
C754 C755 1.394 . S
C754 H762 0.930 . S
C755 C754 1.394 . S
C755 C756 1.383 . S
C755 H763 0.929 . S
C756 C755 1.383 . S
C756 C757 1.377 . S
C757 H741 0.930 . S
C757 C756 1.377 . S
C757 C758 1.379 . S
C758 H742 0.931 . S
C758 C752 1.383 . S
C758 C757 1.379 . S
H759 C753 0.959 . S
H760 C753 0.961 . S
H761 C753 0.960 . S
H762 C754 0.930 . S
H763 C755 0.929 . S
H764 C772 0.929 . S
H765 C774 0.930 . S
H766 C776 0.930 . S
H767 C779 0.929 . S
H768 C782 0.930 1_554 S
H769 C784 0.960 . S
H770 C784 0.988 . S
H771 C784 0.960 1_554 S
C772 H764 0.929 . S
C772 C773 1.377 . S
C772 C774 1.384 . S
C773 C772 1.377 . S
C773 C779 1.390 . S
C774 H765 0.930 . S
C774 C772 1.384 . S
C774 C775 1.372 . S
C775 C774 1.372 . S
C775 C776 1.400 . S
C775 C780 1.490 . S
C776 H766 0.930 . S
C776 C775 1.400 . S
C776 C779 1.386 . S
H777 C793 0.930 . S
H778 C794 0.931 . S
C779 H767 0.929 . S
C779 C773 1.390 . S
C779 C776 1.386 . S
C780 C775 1.490 . S
C780 C782 1.395 1_554 S
C780 C783 1.403 1_554 S
H781 C787 0.930 . S
C782 H768 0.930 1_556 S
C782 C780 1.395 1_556 S
C782 C785 1.403 . S
C783 C780 1.403 1_556 S
C783 C784 1.524 . S
C783 C787 1.400 . S
C784 H769 0.960 . S
C784 H770 0.988 . S
C784 H771 0.960 1_556 S
C784 C783 1.524 . S
C785 C782 1.403 . S
C785 C786 1.392 . S
C785 C789 1.495 . S
C786 C785 1.392 . S
C786 C787 1.385 . S
C786 C788 1.478 . S
C787 H781 0.930 . S
C787 C783 1.400 . S
C787 C786 1.385 . S
C788 C786 1.478 . S
C788 C790 1.381 . S
C788 C794 1.383 . S
C789 C785 1.495 . S
C789 H795 0.959 . S
C789 H796 0.961 . S
C789 H797 0.960 . S
C790 C788 1.381 . S
C790 C791 1.394 . S
C790 H798 0.930 . S
C791 C790 1.394 . S
C791 C792 1.383 . S
C791 H799 0.929 . S
C792 C791 1.383 . S
C792 C793 1.377 . S
C793 H777 0.930 . S
C793 C792 1.377 . S
C793 C794 1.379 . S
C794 H778 0.931 . S
C794 C788 1.383 . S
C794 C793 1.379 . S
H795 C789 0.959 . S
H796 C789 0.961 . S
H797 C789 0.960 . S
H798 C790 0.930 . S
H799 C791 0.929 . S
H800 C808 0.929 . S
H801 C810 0.930 . S
H802 C812 0.930 . S
H803 C815 0.929 . S
H804 C818 0.930 . S
H805 C820 0.960 . S
H806 C820 0.960 . S
H807 C820 0.960 . S
C808 H800 0.929 . S
C808 C809 1.377 . S
C808 C810 1.384 . S
C809 C808 1.377 . S
C809 C815 1.390 . S
C810 H801 0.930 . S
C810 C808 1.384 . S
C810 C811 1.372 . S
C811 C810 1.372 . S
C811 C812 1.400 . S
C811 C816 1.490 . S
C812 H802 0.930 . S
C812 C811 1.400 . S
C812 C815 1.386 . S
H813 C829 0.930 . S
H814 C830 0.931 . S
C815 H803 0.929 . S
C815 C809 1.390 . S
C815 C812 1.386 . S
C816 C811 1.490 . S
C816 C818 1.395 . S
C816 C819 1.403 . S
H817 C823 0.930 . S
C818 H804 0.930 . S
C818 C816 1.395 . S
C818 C821 1.403 . S
C819 C816 1.403 . S
C819 C820 1.524 . S
C819 C823 1.400 . S
C820 H805 0.960 . S
C820 H806 0.960 . S
C820 H807 0.960 . S
C820 C819 1.524 . S
C821 C818 1.403 . S
C821 C822 1.392 . S
C821 C825 1.495 . S
C822 C821 1.392 . S
C822 C823 1.385 . S
C822 C824 1.478 . S
C823 H817 0.930 . S
C823 C819 1.400 . S
C823 C822 1.385 . S
C824 C822 1.478 . S
C824 C826 1.381 . S
C824 C830 1.383 . S
C825 C821 1.495 . S
C825 H831 0.959 . S
C825 H832 0.961 . S
C825 H833 0.960 . S
C826 C824 1.381 . S
C826 C827 1.394 . S
C826 H834 0.930 . S
C827 C826 1.394 . S
C827 C828 1.383 . S
C827 H835 0.929 . S
C828 C827 1.383 . S
C828 C829 1.377 . S
C829 H813 0.930 . S
C829 C828 1.377 . S
C829 C830 1.379 . S
C830 H814 0.931 . S
C830 C824 1.383 . S
C830 C829 1.379 . S
H831 C825 0.959 . S
H832 C825 0.961 . S
H833 C825 0.960 . S
H834 C826 0.930 . S
H835 C827 0.929 . S
H836 C844 0.929 . S
H837 C846 0.930 . S
H838 C848 0.930 . S
H839 C851 0.929 . S
H840 C854 0.930 . S
H841 C856 0.960 . S
H842 C856 0.960 . S
H843 C856 0.960 . S
C844 H836 0.929 . S
C844 C845 1.377 . S
C844 C846 1.384 . S
C845 C844 1.377 . S
C845 C851 1.390 . S
C846 H837 0.930 . S
C846 C844 1.384 . S
C846 C847 1.372 . S
C847 C846 1.372 . S
C847 C848 1.400 . S
C847 C852 1.490 . S
C848 H838 0.930 . S
C848 C847 1.400 . S
C848 C851 1.386 . S
H849 C865 0.930 . S
H850 C866 0.931 . S
C851 H839 0.929 . S
C851 C845 1.390 . S
C851 C848 1.386 . S
C852 C847 1.490 . S
C852 C854 1.395 . S
C852 C855 1.403 . S
H853 C859 0.930 . S
C854 H840 0.930 . S
C854 C852 1.395 . S
C854 C857 1.403 . S
C855 C852 1.403 . S
C855 C856 1.524 . S
C855 C859 1.400 . S
C856 H841 0.960 . S
C856 H842 0.960 . S
C856 H843 0.960 . S
C856 C855 1.524 . S
C857 C854 1.403 . S
C857 C858 1.392 . S
C857 C861 1.495 . S
C858 C857 1.392 . S
C858 C859 1.385 . S
C858 C860 1.478 . S
C859 H853 0.930 . S
C859 C855 1.400 . S
C859 C858 1.385 . S
C860 C858 1.478 . S
C860 C862 1.381 . S
C860 C866 1.383 . S
C861 C857 1.495 . S
C861 H867 0.959 . S
C861 H868 0.961 . S
C861 H869 0.960 . S
C862 C860 1.381 . S
C862 C863 1.394 . S
C862 H870 0.930 . S
C863 C862 1.394 . S
C863 C864 1.383 . S
C863 H871 0.929 . S
C864 C863 1.383 . S
C864 C865 1.377 . S
C865 H849 0.930 . S
C865 C864 1.377 . S
C865 C866 1.379 . S
C866 H850 0.931 . S
C866 C860 1.383 . S
C866 C865 1.379 . S
H867 C861 0.959 . S
H868 C861 0.961 . S
H869 C861 0.960 . S
H870 C862 0.930 . S
H871 C863 0.929 . S
H872 C880 0.929 . S
H873 C882 0.930 . S
H874 C884 0.930 . S
H875 C887 0.929 . S
H876 C890 0.930 . S
H877 C892 0.960 . S
H878 C892 0.960 . S
H879 C892 0.960 . S
C880 H872 0.929 . S
C880 C881 1.377 . S
C880 C882 1.384 . S
C881 C880 1.377 . S
C881 C887 1.390 . S
C882 H873 0.930 . S
C882 C880 1.384 . S
C882 C883 1.372 . S
C883 C882 1.372 . S
C883 C884 1.400 . S
C883 C888 1.490 . S
C884 H874 0.930 . S
C884 C883 1.400 . S
C884 C887 1.386 . S
H885 C901 0.930 . S
H886 C902 0.931 . S
C887 H875 0.929 . S
C887 C881 1.390 . S
C887 C884 1.386 . S
C888 C883 1.490 . S
C888 C890 1.395 . S
C888 C891 1.403 . S
H889 C895 0.930 . S
C890 H876 0.930 . S
C890 C888 1.395 . S
C890 C893 1.403 . S
C891 C888 1.403 . S
C891 C892 1.524 . S
C891 C895 1.400 . S
C892 H877 0.960 . S
C892 H878 0.960 . S
C892 H879 0.960 . S
C892 C891 1.524 . S
C893 C890 1.403 . S
C893 C894 1.392 . S
C893 C897 1.495 . S
C894 C893 1.392 . S
C894 C895 1.385 . S
C894 C896 1.478 . S
C895 H889 0.930 . S
C895 C891 1.400 . S
C895 C894 1.385 . S
C896 C894 1.478 . S
C896 C898 1.381 . S
C896 C902 1.383 . S
C897 C893 1.495 . S
C897 H903 0.959 . S
C897 H904 0.961 . S
C897 H905 0.960 . S
C898 C896 1.381 . S
C898 C899 1.394 . S
C898 H906 0.930 . S
C899 C898 1.394 . S
C899 C900 1.383 . S
C899 H907 0.929 . S
C900 C899 1.383 . S
C900 C901 1.377 . S
C901 H885 0.930 . S
C901 C900 1.377 . S
C901 C902 1.379 . S
C902 H886 0.931 . S
C902 C896 1.383 . S
C902 C901 1.379 . S
H903 C897 0.959 . S
H904 C897 0.961 . S
H905 C897 0.960 . S
H906 C898 0.930 . S
H907 C899 0.929 . S
H908 C916 0.929 . S
H909 C918 0.930 . S
H910 C920 0.930 . S
H911 C923 0.929 1_655 S
H912 C926 0.930 1_556 S
H913 C928 0.960 . S
H914 C928 0.960 1_556 S
H915 C928 0.950 1_556 S
C916 H908 0.929 . S
C916 C917 1.377 . S
C916 C918 1.384 . S
C917 C916 1.377 . S
C917 C923 1.390 . S
C918 H909 0.930 . S
C918 C916 1.384 . S
C918 C919 1.372 . S
C919 C918 1.372 . S
C919 C920 1.400 . S
C919 C924 1.490 . S
C920 H910 0.930 . S
C920 C919 1.400 . S
C920 C923 1.386 . S
H921 C937 0.930 . S
H922 C938 0.931 . S
C923 H911 0.929 1_455 S
C923 C917 1.390 . S
C923 C920 1.386 . S
C924 C919 1.490 . S
C924 C926 1.395 1_556 S
C924 C927 1.403 1_556 S
H925 C931 0.930 . S
C926 H912 0.930 1_554 S
C926 C924 1.395 1_554 S
C926 C929 1.403 . S
C927 C924 1.403 1_554 S
C927 C928 1.524 . S
C927 C931 1.400 . S
C928 H913 0.960 . S
C928 H914 0.960 1_554 S
C928 H915 0.950 1_554 S
C928 C927 1.524 . S
C929 C926 1.403 . S
C929 C930 1.392 . S
C929 C933 1.495 . S
C930 C929 1.392 . S
C930 C931 1.385 . S
C930 C932 1.478 . S
C931 H925 0.930 . S
C931 C927 1.400 . S
C931 C930 1.385 . S
C932 C930 1.478 . S
C932 C934 1.381 . S
C932 C938 1.383 . S
C933 C929 1.495 . S
C933 H939 0.959 . S
C933 H940 0.961 . S
C933 H941 0.960 . S
C934 C932 1.381 . S
C934 C935 1.394 . S
C934 H942 0.930 . S
C935 C934 1.394 . S
C935 C936 1.383 . S
C935 H943 0.929 . S
C936 C935 1.383 . S
C936 C937 1.377 . S
C937 H921 0.930 . S
C937 C936 1.377 . S
C937 C938 1.379 . S
C938 H922 0.931 . S
C938 C932 1.383 . S
C938 C937 1.379 . S
H939 C933 0.959 . S
H940 C933 0.961 . S
H941 C933 0.960 . S
H942 C934 0.930 . S
H943 C935 0.929 . S
H944 C952 0.929 . S
H945 C954 0.930 . S
H946 C956 0.930 . S
H947 C959 0.929 . S
H948 C962 0.930 . S
H949 C964 0.960 . S
H950 C964 0.960 . S
H951 C964 0.960 . S
C952 H944 0.929 . S
C952 C953 1.377 . S
C952 C954 1.384 . S
C953 C952 1.377 . S
C953 C959 1.390 . S
C954 H945 0.930 . S
C954 C952 1.384 . S
C954 C955 1.372 . S
C955 C954 1.372 . S
C955 C956 1.400 . S
C955 C960 1.490 . S
C956 H946 0.930 . S
C956 C955 1.400 . S
C956 C959 1.386 . S
H957 C973 0.930 . S
H958 C974 0.931 . S
C959 H947 0.929 . S
C959 C953 1.390 . S
C959 C956 1.386 . S
C960 C955 1.490 . S
C960 C962 1.395 . S
C960 C963 1.403 . S
H961 C967 0.930 . S
C962 H948 0.930 . S
C962 C960 1.395 . S
C962 C965 1.403 . S
C963 C960 1.403 . S
C963 C964 1.524 . S
C963 C967 1.400 . S
C964 H949 0.960 . S
C964 H950 0.960 . S
C964 H951 0.960 . S
C964 C963 1.524 . S
C965 C962 1.403 . S
C965 C966 1.392 . S
C965 C969 1.495 . S
C966 C965 1.392 . S
C966 C967 1.385 . S
C966 C968 1.478 . S
C967 H961 0.930 . S
C967 C963 1.400 . S
C967 C966 1.385 . S
C968 C966 1.478 . S
C968 C970 1.381 . S
C968 C974 1.383 . S
C969 C965 1.495 . S
C969 H975 0.959 . S
C969 H976 0.961 . S
C969 H977 0.960 . S
C970 C968 1.381 . S
C970 C971 1.394 . S
C970 H978 0.930 . S
C971 C970 1.394 . S
C971 C972 1.383 . S
C971 H979 0.929 . S
C972 C971 1.383 . S
C972 C973 1.377 . S
C973 H957 0.930 . S
C973 C972 1.377 . S
C973 C974 1.379 . S
C974 H958 0.931 . S
C974 C968 1.383 . S
C974 C973 1.379 . S
H975 C969 0.959 . S
H976 C969 0.961 . S
H977 C969 0.960 . S
H978 C970 0.930 . S
H979 C971 0.929 . S
H980 C988 0.929 . S
H981 C990 0.930 . S
H982 C992 0.930 . S
H983 C995 0.929 . S
H984 C998 0.930 . S
H985 C1000 0.960 . S
H986 C1000 0.960 . S
H987 C1000 0.960 . S
C988 H980 0.929 . S
C988 C989 1.377 . S
C988 C990 1.384 . S
C989 C988 1.377 . S
C989 C995 1.390 . S
C990 H981 0.930 . S
C990 C988 1.384 . S
C990 C991 1.372 . S
C991 C990 1.372 . S
C991 C992 1.400 . S
C991 C996 1.490 . S
C992 H982 0.930 . S
C992 C991 1.400 . S
C992 C995 1.386 . S
H993 C1009 0.930 . S
H994 C1010 0.931 . S
C995 H983 0.929 . S
C995 C989 1.390 . S
C995 C992 1.386 . S
C996 C991 1.490 . S
C996 C998 1.395 . S
C996 C999 1.403 . S
H997 C1003 0.930 . S
C998 H984 0.930 . S
C998 C996 1.395 . S
C998 C1001 1.403 . S
C999 C996 1.403 . S
C999 C1000 1.524 . S
C999 C1003 1.400 . S
C1000 H985 0.960 . S
C1000 H986 0.960 . S
C1000 H987 0.960 . S
C1000 C999 1.524 . S
C1001 C998 1.403 . S
C1001 C1002 1.392 . S
C1001 C1005 1.495 . S
C1002 C1001 1.392 . S
C1002 C1003 1.385 . S
C1002 C1004 1.478 . S
C1003 H997 0.930 . S
C1003 C999 1.400 . S
C1003 C1002 1.385 . S
C1004 C1002 1.478 . S
C1004 C1006 1.381 . S
C1004 C1010 1.383 . S
C1005 C1001 1.495 . S
C1005 H1011 0.959 . S
C1005 H1012 0.961 . S
C1005 H1013 0.960 . S
C1006 C1004 1.381 . S
C1006 C1007 1.394 . S
C1006 H1014 0.930 . S
C1007 C1006 1.394 . S
C1007 C1008 1.383 . S
C1007 H1015 0.929 . S
C1008 C1007 1.383 . S
C1008 C1009 1.377 . S
C1009 H993 0.930 . S
C1009 C1008 1.377 . S
C1009 C1010 1.379 . S
C1010 H994 0.931 . S
C1010 C1004 1.383 . S
C1010 C1009 1.379 . S
H1011 C1005 0.959 . S
H1012 C1005 0.961 . S
H1013 C1005 0.960 . S
H1014 C1006 0.930 . S
H1015 C1007 0.929 . S
H1016 C1024 0.929 . S
H1017 C1026 0.930 . S
H1018 C1028 0.930 . S
H1019 C1031 0.929 . S
H1020 C1034 0.930 . S
H1021 C1036 0.960 . S
H1022 C1036 0.960 . S
H1023 C1036 0.960 . S
C1024 H1016 0.929 . S
C1024 C1025 1.377 . S
C1024 C1026 1.384 . S
C1025 C1024 1.377 . S
C1025 C1031 1.390 . S
C1026 H1017 0.930 . S
C1026 C1024 1.384 . S
C1026 C1027 1.372 . S
C1027 C1026 1.372 . S
C1027 C1028 1.400 . S
C1027 C1032 1.490 . S
C1028 H1018 0.930 . S
C1028 C1027 1.400 . S
C1028 C1031 1.386 . S
H1029 C1045 0.930 . S
H1030 C1046 0.931 . S
C1031 H1019 0.929 . S
C1031 C1025 1.390 . S
C1031 C1028 1.386 . S
C1032 C1027 1.490 . S
C1032 C1034 1.395 . S
C1032 C1035 1.403 . S
H1033 C1039 0.930 . S
C1034 H1020 0.930 . S
C1034 C1032 1.395 . S
C1034 C1037 1.403 . S
C1035 C1032 1.403 . S
C1035 C1036 1.524 . S
C1035 C1039 1.400 . S
C1036 H1021 0.960 . S
C1036 H1022 0.960 . S
C1036 H1023 0.960 . S
C1036 C1035 1.524 . S
C1037 C1034 1.403 . S
C1037 C1038 1.392 . S
C1037 C1041 1.495 . S
C1038 C1037 1.392 . S
C1038 C1039 1.385 . S
C1038 C1040 1.478 . S
C1039 H1033 0.930 . S
C1039 C1035 1.400 . S
C1039 C1038 1.385 . S
C1040 C1038 1.478 . S
C1040 C1042 1.381 . S
C1040 C1046 1.383 . S
C1041 C1037 1.495 . S
C1041 H1047 0.959 . S
C1041 H1048 0.961 . S
C1041 H1049 0.960 . S
C1042 C1040 1.381 . S
C1042 C1043 1.394 . S
C1042 H1050 0.930 . S
C1043 C1042 1.394 . S
C1043 C1044 1.383 . S
C1043 H1051 0.929 . S
C1044 C1043 1.383 . S
C1044 C1045 1.377 . S
C1045 H1029 0.930 . S
C1045 C1044 1.377 . S
C1045 C1046 1.379 . S
C1046 H1030 0.931 . S
C1046 C1040 1.383 . S
C1046 C1045 1.379 . S
H1047 C1041 0.959 . S
H1048 C1041 0.961 . S
H1049 C1041 0.960 . S
H1050 C1042 0.930 . S
H1051 C1043 0.929 . S
C216 C111 1.505 . S
C197 N2 1.628 . S
C252 C129 1.035 . S
C233 N15 1.065 . S
C269 N27 1.294 . S
C288 C153 1.190 . S
C324 C183 1.572 1_655 S
C305 N40 1.776 . S
C360 C171 1.204 . S
C341 N54 1.389 . S
C377 N66 1.759 . S
C396 C124 1.690 1_655 S
C413 N79 1.555 . S
C432 C144 1.399 . S
C449 N93 1.085 . S
C468 C149 0.965 . S
C485 N92 1.748 . S
C504 C165 1.673 . S
C521 N67 1.087 . S
C540 C120 0.997 . S
C576 C187 1.049 . S
C557 N41 1.069 . S
C612 C132 1.592 . S
C593 N14 1.780 . S
C629 N28 1.621 . S
C648 C150 1.518 . S
C665 N1 1.306 . S
C684 C108 1.234 . S
C720 C128 1.253 . S
C701 N80 1.377 . S
C756 C174 1.410 . S
C737 N53 1.565 . S
C792 C170 1.368 . S
C773 N5 1.554 . S
C828 C123 1.312 . S
C809 N18 1.430 . S
C845 N31 1.543 . S
C864 C145 1.304 . S
C881 N44 1.453 . S
C900 C166 1.321 . S
C936 C107 1.330 . S
C917 N57 1.466 . S
C953 N70 1.528 . S
C972 C141 1.496 . S
C1008 C162 1.390 . S
C989 N83 1.488 . S
C1044 C186 1.474 . S
C1025 N96 1.510 . S
