# Generated by pormake.
# Topology zzz, (3,6)-cn, num edge types: 1
# Building blocks:
#     Node 0, Type 0, BuildingBlock: BETDIP_clean_linker_0, # of connection points: 3
#     Node 1, Type 0, BuildingBlock: BETDIP_clean_linker_0, # of connection points: 3
#     Node 2, Type 0, BuildingBlock: BETDIP_clean_linker_0, # of connection points: 3
#     Node 3, Type 0, BuildingBlock: BETDIP_clean_linker_0, # of connection points: 3
#     Node 4, Type 0, BuildingBlock: BETDIP_clean_linker_0, # of connection points: 3
#     Node 5, Type 0, BuildingBlock: BETDIP_clean_linker_0, # of connection points: 3
#     Node 6, Type 0, BuildingBlock: BETDIP_clean_linker_0, # of connection points: 3
#     Node 7, Type 0, BuildingBlock: BETDIP_clean_linker_0, # of connection points: 3
#     Node 8, Type 1, BuildingBlock: JUFBIX_clean_sbu_0, # of connection points: 6
#     Node 9, Type 1, BuildingBlock: JUFBIX_clean_sbu_0, # of connection points: 6
#     Node 10, Type 1, BuildingBlock: JUFBIX_clean_sbu_0, # of connection points: 6
#     Node 11, Type 1, BuildingBlock: JUFBIX_clean_sbu_0, # of connection points: 6
#     Edge 12, Type (0, 1), BuildingBlock: TEMPAE_clean_linker_10, # of connection points: 2
#     Edge 13, Type (0, 1), BuildingBlock: TEMPAE_clean_linker_10, # of connection points: 2
#     Edge 14, Type (0, 1), BuildingBlock: TEMPAE_clean_linker_10, # of connection points: 2
#     Edge 15, Type (0, 1), BuildingBlock: TEMPAE_clean_linker_10, # of connection points: 2
#     Edge 16, Type (0, 1), BuildingBlock: TEMPAE_clean_linker_10, # of connection points: 2
#     Edge 17, Type (0, 1), BuildingBlock: TEMPAE_clean_linker_10, # of connection points: 2
#     Edge 18, Type (0, 1), BuildingBlock: TEMPAE_clean_linker_10, # of connection points: 2
#     Edge 19, Type (0, 1), BuildingBlock: TEMPAE_clean_linker_10, # of connection points: 2
#     Edge 20, Type (0, 1), BuildingBlock: TEMPAE_clean_linker_10, # of connection points: 2
#     Edge 21, Type (0, 1), BuildingBlock: TEMPAE_clean_linker_10, # of connection points: 2
#     Edge 22, Type (0, 1), BuildingBlock: TEMPAE_clean_linker_10, # of connection points: 2
#     Edge 23, Type (0, 1), BuildingBlock: TEMPAE_clean_linker_10, # of connection points: 2
#     Edge 24, Type (0, 1), BuildingBlock: TEMPAE_clean_linker_10, # of connection points: 2
#     Edge 25, Type (0, 1), BuildingBlock: TEMPAE_clean_linker_10, # of connection points: 2
#     Edge 26, Type (0, 1), BuildingBlock: TEMPAE_clean_linker_10, # of connection points: 2
#     Edge 27, Type (0, 1), BuildingBlock: TEMPAE_clean_linker_10, # of connection points: 2
#     Edge 28, Type (0, 1), BuildingBlock: TEMPAE_clean_linker_10, # of connection points: 2
#     Edge 29, Type (0, 1), BuildingBlock: TEMPAE_clean_linker_10, # of connection points: 2
#     Edge 30, Type (0, 1), BuildingBlock: TEMPAE_clean_linker_10, # of connection points: 2
#     Edge 31, Type (0, 1), BuildingBlock: TEMPAE_clean_linker_10, # of connection points: 2
#     Edge 32, Type (0, 1), BuildingBlock: TEMPAE_clean_linker_10, # of connection points: 2
#     Edge 33, Type (0, 1), BuildingBlock: TEMPAE_clean_linker_10, # of connection points: 2
#     Edge 34, Type (0, 1), BuildingBlock: TEMPAE_clean_linker_10, # of connection points: 2
#     Edge 35, Type (0, 1), BuildingBlock: TEMPAE_clean_linker_10, # of connection points: 2
# Relax obj value: 0.120
# Max RMSD: 0.176
# Mean RMSD: 0.086
data_MOF--net-zzz--node1-JUFBIX_clean_sbu_0--node2-BETDIP_clean_linker_0--edge1-TEMPAE_clean_linker_10
_symmetry_space_group_name_H-M    P1
_symmetry_Int_Tables_number       1
_symmetry_cell_setting            triclinic
loop_
_symmetry_equiv_pos_as_xyz
'x, y, z'
_cell_length_a     52.866648
_cell_length_b     52.614823
_cell_length_c     17.623818
_cell_angle_alpha  81.363797
_cell_angle_beta   89.837791
_cell_angle_gamma 91.458096
loop_
_atom_site_label
_atom_site_type_symbol
_atom_site_fract_x
_atom_site_fract_y
_atom_site_fract_z
_atom_type_partial_charge
H0 H 0.79466 0.52434 0.36911 0.0
H1 H 0.80012 0.49321 0.15684 0.0
H2 H 0.86527 0.49573 0.30071 0.0
H3 H 0.77605 0.53832 0.13415 0.0
C4 C 0.76161 0.52757 0.17069 0.0
C5 C 0.80554 0.51509 0.32932 0.0
C6 C 0.83137 0.51054 0.34263 0.0
C7 C 0.79427 0.50915 0.26153 0.0
C8 C 0.80874 0.49778 0.20902 0.0
C9 C 0.83423 0.49228 0.22378 0.0
C10 C 0.84525 0.49878 0.29055 0.0
N11 N 0.76865 0.51529 0.24483 0.0
H12 H 0.98326 0.74915 0.41501 0.0
H13 H 0.99551 0.76349 0.16965 0.0
H14 H 1.00147 0.82566 0.30053 0.0
H15 H 0.95397 0.73196 0.20385 0.0
C16 C 0.96862 0.71909 0.22816 0.0
C17 C 0.98792 0.76226 0.36312 0.0
C18 C 0.99261 0.78855 0.36636 0.0
C19 C 0.98878 0.75311 0.29188 0.0
C20 C 0.99465 0.77033 0.2246 0.0
C21 C 0.99935 0.79637 0.2282 0.0
C22 C 0.99829 0.80529 0.29866 0.0
N23 N 0.98391 0.72668 0.28758 0.0
H24 H 0.76043 0.98967 0.29166 0.0
H25 H 0.74713 0.00622 0.04692 0.0
H26 H 0.68694 0.01187 0.20431 0.0
H27 H 0.77893 0.98107 0.04 0.0
C28 C 0.79227 0.98599 0.08253 0.0
C29 C 0.74806 0.99551 0.24364 0.0
C30 C 0.72266 1.00133 0.25706 0.0
C31 C 0.75735 0.99709 0.16767 0.0
C32 C 0.74078 0.00443 0.10588 0.0
C33 C 0.71556 0.00966 0.11955 0.0
C34 C 0.70677 0.00841 0.19454 0.0
N35 N 0.78323 0.99163 0.15439 0.0
H36 H 0.51306 0.72916 0.30724 0.0
H37 H 0.52087 0.72506 0.06522 0.0
H38 H 0.51504 0.65585 0.2279 0.0
H39 H 0.55154 0.76202 0.09475 0.0
C40 C 0.53493 0.77151 0.11226 0.0
C41 C 0.51457 0.71794 0.26076 0.0
C42 C 0.51361 0.6909 0.27644 0.0
C43 C 0.51759 0.73045 0.18448 0.0
C44 C 0.51917 0.71568 0.12416 0.0
C45 C 0.51837 0.68878 0.14009 0.0
C46 C 0.51573 0.67672 0.21588 0.0
N47 N 0.51831 0.75778 0.16858 0.0
H48 H 0.23278 0.48997 0.19377 0.0
H49 H 0.22806 0.52992 0.38998 0.0
H50 H 0.16103 0.51518 0.26527 0.0
H51 H 0.2694 0.5469 0.31808 0.0
C52 C 0.27552 0.52712 0.32944 0.0
C53 C 0.22174 0.49971 0.232 0.0
C54 C 0.19542 0.50161 0.22232 0.0
C55 C 0.23374 0.51036 0.29173 0.0
C56 C 0.21914 0.52254 0.34218 0.0
C57 C 0.19291 0.52447 0.33248 0.0
C58 C 0.18139 0.51415 0.27223 0.0
N59 N 0.26019 0.50756 0.30354 0.0
H60 H 0.03395 0.2556 0.16534 0.0
H61 H 0.01181 0.23815 0.40409 0.0
H62 H 0.03354 0.17762 0.28157 0.0
H63 H 0.98282 0.27296 0.3465 0.0
C64 C 0.99952 0.28531 0.33275 0.0
C65 C 0.03093 0.24184 0.217 0.0
C66 C 0.0349 0.21554 0.216 0.0
C67 C 0.02242 0.25018 0.28487 0.0
C68 C 0.01805 0.232 0.35129 0.0
C69 C 0.02247 0.20592 0.3505 0.0
C70 C 0.03091 0.19795 0.28294 0.0
N71 N 0.01885 0.2768 0.28688 0.0
H72 H 0.25912 0.01288 0.27734 0.0
H73 H 0.2741 0.99898 0.52106 0.0
H74 H 0.33564 0.00943 0.36014 0.0
H75 H 0.23683 0.97295 0.51094 0.0
C76 C 0.2259 0.98868 0.48171 0.0
C77 C 0.27231 0.01056 0.32464 0.0
C78 C 0.29855 0.0116 0.30999 0.0
C79 C 0.2632 0.00563 0.40102 0.0
C80 C 0.28063 1.0023 0.46201 0.0
C81 C 0.30665 0.00399 0.44699 0.0
C82 C 0.3154 0.00864 0.3714 0.0
N83 N 0.23665 0.00443 0.41611 0.0
H84 H 0.49587 0.2729 0.2775 0.0
H85 H 0.51932 0.28146 0.50752 0.0
H86 H 0.50946 0.348 0.33902 0.0
H87 H 0.53918 0.24344 0.49287 0.0
C88 C 0.52295 0.23326 0.47293 0.0
C89 C 0.50138 0.28496 0.31966 0.0
C90 C 0.50178 0.31191 0.29994 0.0
C91 C 0.50814 0.27366 0.39444 0.0
C92 C 0.5149 0.28968 0.44916 0.0
C93 C 0.51582 0.31647 0.42876 0.0
C94 C 0.50921 0.32723 0.35451 0.0
N95 N 0.50743 0.24636 0.41442 0.0
Co96 Co 0.02027 0.01114 0.83971 0.0
C97 C 0.96875 0.99814 0.85997 0.0
Co98 Co 1.00346 0.99185 0.74719 0.0
C99 C 0.03717 0.05443 0.91396 0.0
C100 C 0.03727 0.019 0.99114 0.0
N101 N 0.0331 0.02875 0.91709 0.0
N102 N 0.04315 0.06109 0.98292 0.0
C103 C 0.04346 0.03872 0.03148 0.0
H104 H 0.03453 0.06826 0.86299 0.0
H105 H 0.03491 0.99897 0.01556 0.0
C106 C 0.05502 0.00459 0.72673 0.0
N107 N 0.991 0.97437 0.67005 0.0
C108 C 0.98361 0.94933 0.67573 0.0
C109 C 0.99229 0.98278 0.5941 0.0
N110 N 0.98086 0.94152 0.60632 0.0
C111 C 0.98612 0.96279 0.55502 0.0
C112 C 1.00051 0.04447 0.71708 0.0
O113 O 0.05282 0.01305 0.79047 0.0
O114 O 0.03564 0.99489 0.69814 0.0
O115 O 0.99436 0.02405 0.69043 0.0
O116 O 0.01188 0.0427 0.78078 0.0
O117 O 0.97139 0.98878 0.79788 0.0
H118 H 0.9991 1.0017 0.56858 0.0
H119 H 0.98158 0.93679 0.72998 0.0
O120 O 0.98763 0.00911 0.88747 0.0
O121 O 0.0283 0.97872 0.89754 0.0
O122 O 0.01271 0.96031 0.80393 0.0
C123 C 0.02309 0.95841 0.86914 0.0
H124 H 0.04716 0.03669 0.09241 0.0
H125 H 0.98735 0.96365 0.49343 0.0
Co126 Co 0.50145 0.00628 0.8392 0.0
C127 C 0.51459 0.95448 0.85106 0.0
Co128 Co 0.5198 0.99584 0.73519 0.0
C129 C 0.45992 0.02033 0.93116 0.0
C130 C 0.49182 0.0073 0.9992 0.0
N131 N 0.48417 0.01305 0.92598 0.0
N132 N 0.45189 0.01884 0.00479 0.0
C133 C 0.47216 0.0108 0.0475 0.0
H134 H 0.44812 0.02558 0.88158 0.0
H135 H 0.51 0.99948 0.01648 0.0
C136 C 0.50692 0.04767 0.72306 0.0
N137 N 0.53718 0.98913 0.64825 0.0
C138 C 0.56179 0.98305 0.64257 0.0
C139 C 0.52919 0.9941 0.57516 0.0
N140 N 0.56967 0.98455 0.56882 0.0
C141 C 0.54898 0.99131 0.52648 0.0
C142 C 0.46825 0.99004 0.73151 0.0
O143 O 0.49833 0.04123 0.79107 0.0
O144 O 0.51698 0.0307 0.68925 0.0
O145 O 0.48809 0.98769 0.69243 0.0
O146 O 0.47038 0.99751 0.79637 0.0
O147 O 0.52244 0.96088 0.78229 0.0
H148 H 0.51065 1.001 0.55807 0.0
H149 H 0.57396 0.9787 0.69173 0.0
O150 O 0.50491 0.9714 0.88605 0.0
O151 O 0.53293 0.0149 0.8814 0.0
O152 O 0.55099 0.00427 0.779 0.0
C153 C 0.55286 0.01226 0.84319 0.0
H154 H 0.47249 0.00612 0.10937 0.0
H155 H 0.54843 0.99568 0.46455 0.0
Co156 Co 0.53193 0.50205 0.80016 0.0
C157 C 0.50605 0.46436 0.89976 0.0
Co158 Co 0.49054 0.50147 0.78127 0.0
C159 C 0.57981 0.50438 0.88032 0.0
C160 C 0.58456 0.50072 0.76178 0.0
N161 N 0.56673 0.5026 0.81534 0.0
N162 N 0.60507 0.50343 0.86935 0.0
C163 C 0.60807 0.50112 0.79476 0.0
H164 H 0.57095 0.50595 0.93482 0.0
H165 H 0.5807 0.49913 0.70241 0.0
C166 C 0.51604 0.53913 0.68178 0.0
N167 N 0.45578 0.50066 0.76566 0.0
C168 C 0.44309 0.5035 0.69851 0.0
C169 C 0.43766 0.49636 0.82026 0.0
N170 N 0.41769 0.50114 0.70891 0.0
C171 C 0.41434 0.49658 0.78579 0.0
C172 C 0.50664 0.5357 0.87667 0.0
O173 O 0.53568 0.52899 0.71374 0.0
O174 O 0.49431 0.52964 0.70197 0.0
O175 O 0.48683 0.52564 0.85146 0.0
O176 O 0.52824 0.5275 0.86249 0.0
O177 O 0.48712 0.47319 0.86118 0.0
H178 H 0.44119 0.49306 0.88133 0.0
H179 H 0.45244 0.50744 0.64317 0.0
O180 O 0.52772 0.47526 0.88624 0.0
O181 O 0.53529 0.47657 0.73705 0.0
O182 O 0.49472 0.4776 0.71113 0.0
C183 C 0.51633 0.46813 0.70366 0.0
H184 H 0.62603 0.50021 0.76577 0.0
H185 H 0.39638 0.49321 0.81557 0.0
Co186 Co 0.01341 0.52472 0.79446 0.0
C187 C 0.0509 0.49651 0.87446 0.0
Co188 Co 0.0149 0.48486 0.76849 0.0
C189 C 0.0097 0.56637 0.88454 0.0
C190 C 0.01186 0.57982 0.76381 0.0
N191 N 0.01178 0.55819 0.81564 0.0
N192 N 0.00852 0.59226 0.87771 0.0
C193 C 0.00991 0.60073 0.80166 0.0
H194 H 0.0091 0.55354 0.93864 0.0
H195 H 0.01289 0.58031 0.7023 0.0
C196 C 0.97735 0.51306 0.68878 0.0
N197 N 0.01652 0.45134 0.74773 0.0
C198 C 0.01659 0.44268 0.67922 0.0
C199 C 0.018 0.43005 0.80035 0.0
N200 N 0.01814 0.41677 0.68705 0.0
C201 C 0.01895 0.40886 0.76346 0.0
C202 C 0.98194 0.49048 0.88694 0.0
O203 O 0.98587 0.53078 0.72435 0.0
O204 O 0.9879 0.49137 0.69823 0.0
O205 O 0.99069 0.47414 0.8481 0.0
O206 O 0.98993 0.51367 0.87357 0.0
O207 O 0.04227 0.47876 0.83925 0.0
H208 H 0.01824 0.42994 0.86177 0.0
H209 H 0.01577 0.45524 0.62476 0.0
O210 O 0.04053 0.5183 0.86425 0.0
O211 O 0.03734 0.53547 0.71463 0.0
O212 O 0.03866 0.49591 0.68951 0.0
C213 C 0.04639 0.51923 0.67604 0.0
H214 H 0.00886 0.62058 0.77497 0.0
H215 H 0.01965 0.3891 0.79119 0.0
C216 C 0.18633 0.01446 0.48485 0.0
C217 C 0.20044 0.99285 0.51265 0.0
C218 C 0.16263 0.01839 0.51745 0.0
C219 C 0.15281 1.00021 0.57873 0.0
C220 C 0.16703 0.97834 0.60649 0.0
C221 C 0.19066 0.97502 0.57336 0.0
C222 C 0.14812 0.04202 0.48656 0.0
C223 C 0.15724 0.95833 0.67113 0.0
C224 C 0.10148 0.01649 0.71486 0.0
C225 C 0.07987 0.00513 0.68656 0.0
C226 C 0.12521 0.01589 0.67871 0.0
C227 C 0.12743 1.00348 0.61302 0.0
C228 C 0.10557 0.99253 0.58322 0.0
C229 C 0.08212 0.99356 0.62009 0.0
C230 C 0.14802 0.02795 0.71197 0.0
C231 C 0.10707 0.97896 0.51372 0.0
H232 H 0.19389 0.02841 0.43829 0.0
H233 H 0.20157 0.95834 0.59509 0.0
H234 H 0.12955 0.03628 0.46436 0.0
H235 H 0.14427 0.05335 0.5334 0.0
H236 H 0.15852 0.05455 0.43971 0.0
H237 H 0.17064 0.94246 0.68615 0.0
H238 H 0.15375 0.96738 0.72302 0.0
H239 H 0.13891 0.95002 0.6548 0.0
H240 H 0.09994 0.0256 0.76586 0.0
H241 H 0.06557 0.98477 0.59748 0.0
H242 H 0.15808 0.04143 0.6667 0.0
H243 H 0.16146 0.0128 0.7342 0.0
H244 H 0.14286 0.03855 0.75952 0.0
H245 H 0.11626 0.99175 0.46514 0.0
H246 H 0.08813 0.97273 0.49511 0.0
H247 H 0.11889 0.96175 0.52695 0.0
C248 C 0.53585 0.19416 0.55958 0.0
C249 C 0.5184 0.20593 0.50675 0.0
C250 C 0.5324 0.16849 0.5942 0.0
C251 C 0.5108 0.15417 0.57601 0.0
C252 C 0.49294 0.16602 0.52303 0.0
C253 C 0.49698 0.19179 0.48877 0.0
C254 C 0.55202 0.15663 0.64983 0.0
C255 C 0.46962 0.15144 0.50246 0.0
C256 C 0.51747 0.08157 0.61106 0.0
C257 C 0.50614 0.07471 0.68371 0.0
C258 C 0.51837 0.10719 0.57441 0.0
C259 C 0.50757 0.12657 0.61087 0.0
C260 C 0.49538 0.11971 0.68308 0.0
C261 C 0.49488 0.09389 0.71875 0.0
C262 C 0.53168 0.11362 0.49772 0.0
C263 C 0.48349 0.13977 0.72364 0.0
H264 H 0.55239 0.20508 0.57376 0.0
H265 H 0.48333 0.20084 0.44832 0.0
H266 H 0.54307 0.14948 0.70625 0.0
H267 H 0.56029 0.13986 0.62838 0.0
H268 H 0.56759 0.17046 0.65849 0.0
H269 H 0.4572 0.16357 0.46201 0.0
H270 H 0.47519 0.13459 0.47581 0.0
H271 H 0.45859 0.14397 0.55511 0.0
H272 H 0.52618 0.06694 0.58321 0.0
H273 H 0.48596 0.0888 0.77462 0.0
H274 H 0.54863 0.12603 0.50353 0.0
H275 H 0.51908 0.12458 0.45521 0.0
H276 H 0.53777 0.09617 0.47487 0.0
H277 H 0.4984 0.15314 0.73986 0.0
H278 H 0.47301 0.13112 0.77635 0.0
H279 H 0.47027 0.15138 0.68471 0.0
C280 C 0.3039 0.49627 0.41007 0.0
C281 C 0.29854 0.52138 0.37615 0.0
C282 C 0.32432 0.49155 0.46097 0.0
C283 C 0.33983 0.51239 0.4775 0.0
C284 C 0.33503 0.53762 0.44071 0.0
C285 C 0.31435 0.5418 0.39104 0.0
C286 C 0.32863 0.46442 0.49955 0.0
C287 C 0.35124 0.56036 0.45584 0.0
C288 C 0.37311 0.50828 0.66976 0.0
C289 C 0.39816 0.5033 0.65081 0.0
C290 C 0.35394 0.5106 0.61437 0.0
C291 C 0.35985 0.50826 0.53739 0.0
C292 C 0.38499 0.50312 0.51757 0.0
C293 C 0.40379 0.50058 0.57445 0.0
C294 C 0.32736 0.51599 0.63816 0.0
C295 C 0.3921 0.50067 0.43602 0.0
H296 H 0.29165 0.48042 0.3991 0.0
H297 H 0.31023 0.56122 0.36475 0.0
H298 H 0.34862 0.45928 0.4924 0.0
H299 H 0.32493 0.46302 0.56207 0.0
H300 H 0.31617 0.45014 0.47637 0.0
H301 H 0.34629 0.57836 0.41802 0.0
H302 H 0.34884 0.56332 0.51642 0.0
H303 H 0.37152 0.55664 0.44712 0.0
H304 H 0.36841 0.51085 0.72784 0.0
H305 H 0.42286 0.49635 0.55887 0.0
H306 H 0.31386 0.5014 0.62112 0.0
H307 H 0.32166 0.53504 0.60826 0.0
H308 H 0.32557 0.5159 0.70102 0.0
H309 H 0.38022 0.48544 0.41549 0.0
H310 H 0.41233 0.49601 0.4302 0.0
H311 H 0.38843 0.51895 0.39783 0.0
C312 C 0.98439 0.31269 0.42562 0.0
C313 C 1.00296 0.30797 0.37301 0.0
C314 C 0.98766 0.33235 0.47062 0.0
C315 C 0.01004 0.34792 0.4625 0.0
C316 C 0.02848 0.34392 0.40719 0.0
C317 C 0.02479 0.32387 0.36323 0.0
C318 C 0.96757 0.33577 0.52911 0.0
C319 C 0.05244 0.36029 0.39616 0.0
C320 C 0.00725 0.40868 0.5556 0.0
C321 C 0.01815 0.40057 0.62748 0.0
C322 C 0.00552 0.3922 0.49971 0.0
C323 C 0.01473 0.36693 0.5162 0.0
C324 C 0.0266 0.35899 0.58741 0.0
C325 C 0.02829 0.3759 0.64177 0.0
C326 C 0.99296 0.40151 0.42418 0.0
C327 C 0.03667 0.33222 0.60757 0.0
H328 H 0.96749 0.30042 0.43324 0.0
H329 H 0.03919 0.32036 0.32245 0.0
H330 H 0.97551 0.33155 0.58775 0.0
H331 H 0.96139 0.35598 0.52092 0.0
H332 H 0.95072 0.32296 0.52558 0.0
H333 H 0.0637 0.35643 0.34599 0.0
H334 H 0.0479 0.38099 0.3882 0.0
H335 H 0.06431 0.35644 0.44823 0.0
H336 H 0.99927 0.4276 0.54379 0.0
H337 H 0.03733 0.3696 0.6961 0.0
H338 H 0.97464 0.39098 0.42093 0.0
H339 H 0.0049 0.3975 0.37569 0.0
H340 H 0.98934 0.42244 0.41677 0.0
H341 H 0.02079 0.31788 0.61056 0.0
H342 H 0.04664 0.32951 0.66349 0.0
H343 H 0.04992 0.32809 0.56236 0.0
C344 C 0.83897 0.98266 0.10885 0.0
C345 C 0.81909 0.98965 0.05827 0.0
C346 C 0.86421 0.98389 0.08208 0.0
C347 C 0.8696 0.99319 0.00369 0.0
C348 C 0.84952 1.00131 0.95356 0.0
C349 C 0.82453 0.99891 0.98113 0.0
C350 C 0.88497 0.97429 0.13677 0.0
C351 C 0.85436 0.01218 0.87034 0.0
C352 C 0.93623 0.01624 0.93872 0.0
C353 C 0.94396 0.99635 0.89989 0.0
C354 C 0.91224 0.01534 0.97392 0.0
C355 C 0.89596 0.99359 0.9726 0.0
C356 C 0.90418 0.97298 0.9361 0.0
C357 C 0.92787 0.97483 0.89895 0.0
C358 C 0.90392 0.03811 0.00972 0.0
C359 C 0.88779 0.94911 0.93523 0.0
H360 H 0.8347 0.97521 0.16835 0.0
H361 H 0.80909 0.0044 0.94215 0.0
H362 H 0.89388 0.95752 0.11718 0.0
H363 H 0.89999 0.98937 0.13718 0.0
H364 H 0.87782 0.96844 0.19634 0.0
H365 H 0.83695 0.01976 0.84088 0.0
H366 H 0.8689 0.02794 0.86581 0.0
H367 H 0.86178 0.99703 0.83949 0.0
H368 H 0.94862 0.03296 0.93923 0.0
H369 H 0.93396 0.95928 0.86978 0.0
H370 H 0.89777 0.03186 0.06997 0.0
H371 H 0.88741 0.04689 0.97809 0.0
H372 H 0.91919 0.05306 0.00889 0.0
H373 H 0.88103 0.9415 0.99414 0.0
H374 H 0.898 0.93373 0.91196 0.0
H375 H 0.87085 0.9539 0.89943 0.0
C376 C 0.50709 0.80937 0.07529 0.0
C377 C 0.53121 0.7988 0.07979 0.0
C378 C 0.50353 0.8347 0.03859 0.0
C379 C 0.52468 0.84998 0.00773 0.0
C380 C 0.54914 0.83952 0.0143 0.0
C381 C 0.55202 0.81394 0.04903 0.0
C382 C 0.47707 0.84487 0.03101 0.0
C383 C 0.5723 0.85531 0.98428 0.0
C384 C 0.51691 0.90704 0.84917 0.0
C385 C 0.51685 0.92774 0.89082 0.0
C386 C 0.51871 0.8816 0.88668 0.0
C387 C 0.52131 0.87678 0.96759 0.0
C388 C 0.5215 0.89768 0.00977 0.0
C389 C 0.51888 0.92284 0.97101 0.0
C390 C 0.51778 0.85985 0.8397 0.0
C391 C 0.52499 0.89353 0.09571 0.0
H392 H 0.49091 0.79758 0.09813 0.0
H393 H 0.57067 0.80574 0.05251 0.0
H394 H 0.47582 0.86249 0.05818 0.0
H395 H 0.47244 0.85029 0.96941 0.0
H396 H 0.46264 0.83056 0.05782 0.0
H397 H 0.59009 0.84484 0.99795 0.0
H398 H 0.57108 0.86062 0.9211 0.0
H399 H 0.57327 0.87347 0.0092 0.0
H400 H 0.51513 0.91072 0.78724 0.0
H401 H 0.51902 0.93881 0.00344 0.0
H402 H 0.50269 0.84561 0.86208 0.0
H403 H 0.53597 0.84969 0.84458 0.0
H404 H 0.51417 0.86667 0.77803 0.0
H405 H 0.50976 0.88052 0.12385 0.0
H406 H 0.52483 0.91182 0.12003 0.0
H407 H 0.54323 0.88407 0.1103 0.0
C408 C 0.72991 0.54014 0.06936 0.0
C409 C 0.73588 0.52497 0.13894 0.0
C410 C 0.7068 0.53676 0.0328 0.0
C411 C 0.68926 0.51746 0.06612 0.0
C412 C 0.69482 0.50261 0.13784 0.0
C413 C 0.71808 0.50662 0.17368 0.0
C414 C 0.7016 0.55321 0.95687 0.0
C415 C 0.67671 0.48175 0.17499 0.0
C416 C 0.62299 0.52103 0.98084 0.0
C417 C 0.62502 0.50503 0.92432 0.0
C418 C 0.64341 0.52458 0.02964 0.0
C419 C 0.66625 0.51159 0.02224 0.0
C420 C 0.66788 0.49448 0.96766 0.0
C421 C 0.64734 0.49154 0.91923 0.0
C422 C 0.64095 0.54313 0.0866 0.0
C423 C 0.69171 0.47997 0.95838 0.0
H424 H 0.74365 0.55438 0.04252 0.0
H425 H 0.72265 0.49476 0.22736 0.0
H426 H 0.70114 0.54105 0.9106 0.0
H427 H 0.68282 0.56208 0.9583 0.0
H428 H 0.71619 0.56874 0.94189 0.0
H429 H 0.68266 0.47358 0.23384 0.0
H430 H 0.6574 0.48933 0.17793 0.0
H431 H 0.6756 0.46601 0.13963 0.0
H432 H 0.60583 0.5316 0.98468 0.0
H433 H 0.64881 0.47882 0.87655 0.0
H434 H 0.6536 0.56018 0.06916 0.0
H435 H 0.64698 0.53407 0.1444 0.0
H436 H 0.62127 0.54977 0.09052 0.0
H437 H 0.70724 0.49372 0.9364 0.0
H438 H 0.68918 0.46581 0.91799 0.0
H439 H 0.69775 0.46966 0.0147 0.0
C440 C 0.95861 0.69118 0.13007 0.0
C441 C 0.97436 0.69669 0.1896 0.0
C442 C 0.96457 0.67201 0.08609 0.0
C443 C 0.98694 0.65797 0.1018 0.0
C444 C 1.00244 0.66274 0.16394 0.0
C445 C 0.99597 0.68209 0.20723 0.0
C446 C 0.94745 0.66756 0.02062 0.0
C447 C 0.02638 0.64814 0.18267 0.0
C448 C 0.99172 0.59809 0.00525 0.0
C449 C 0.00514 0.6078 0.93781 0.0
C450 C 0.98649 0.61387 0.0609 0.0
C451 C 0.99493 0.63995 0.04891 0.0
C452 C 0.00937 0.64951 0.98246 0.0
C453 C 0.01428 0.63336 0.9279 0.0
C454 C 0.97105 0.60291 0.13092 0.0
C455 C 0.01888 0.67714 0.96747 0.0
H456 H 0.94187 0.70244 0.11644 0.0
H457 H 0.00823 0.68628 0.25319 0.0
H458 H 0.95763 0.67318 0.96526 0.0
H459 H 0.94213 0.64686 0.02497 0.0
H460 H 0.92989 0.67876 0.01941 0.0
H461 H 0.035 0.65226 0.2371 0.0
H462 H 0.02249 0.62714 0.18732 0.0
H463 H 0.04038 0.65346 0.13557 0.0
H464 H 0.98445 0.57844 0.01321 0.0
H465 H 0.02508 0.64086 0.87679 0.0
H466 H 0.95231 0.61201 0.12829 0.0
H467 H 0.9805 0.60727 0.18376 0.0
H468 H 0.96803 0.58176 0.13555 0.0
H469 H 1.00258 0.69012 0.95904 0.0
H470 H 0.03128 0.6811 0.91584 0.0
H471 H 0.02959 0.68198 0.01764 0.0
C472 C 0.03627 0.16849 0.44258 0.0
C473 C 0.01765 0.18633 0.41857 0.0
C474 C 0.03086 0.14702 0.49777 0.0
C475 C 0.00616 0.14327 0.52935 0.0
C476 C 0.98763 0.16197 0.5084 0.0
C477 C 0.99365 0.18343 0.45313 0.0
C478 C 0.05128 0.12771 0.51937 0.0
C479 C 0.96114 0.15862 0.5411 0.0
C480 C 0.99087 0.07271 0.59392 0.0
C481 C 0.99708 0.07016 0.67186 0.0
C482 C 0.99206 0.09686 0.54762 0.0
C483 C 0.99963 0.11886 0.58025 0.0
C484 C 1.00409 0.11665 0.65999 0.0
C485 C 1.00268 0.09231 0.70488 0.0
C486 C 0.98696 0.09853 0.46278 0.0
C487 C 0.01214 0.13963 0.69702 0.0
H488 H 0.05488 0.17092 0.416 0.0
H489 H 0.97922 0.19718 0.43394 0.0
H490 H 0.05335 0.12381 0.58264 0.0
H491 H 0.04589 0.10924 0.49979 0.0
H492 H 0.06991 0.1344 0.49347 0.0
H493 H 0.94998 0.17626 0.52626 0.0
H494 H 0.95123 0.14258 0.51818 0.0
H495 H 0.96163 0.15349 0.60446 0.0
H496 H 0.98639 0.0557 0.56813 0.0
H497 H 0.00705 0.09057 0.76542 0.0
H498 H 0.00498 0.10263 0.43027 0.0
H499 H 0.97412 0.11453 0.44333 0.0
H500 H 0.9784 0.0804 0.44812 0.0
H501 H 0.03182 0.14559 0.6792 0.0
H502 H 0.01146 0.13536 0.76071 0.0
H503 H 0.99993 0.15618 0.67791 0.0
C504 C 0.33021 0.97575 0.54679 0.0
C505 C 0.32544 1.00045 0.50878 0.0
C506 C 0.35195 0.97118 0.59188 0.0
C507 C 0.36902 0.99188 0.5988 0.0
C508 C 0.36326 0.01714 0.56446 0.0
C509 C 0.34158 0.02107 0.51924 0.0
C510 C 0.35746 0.94404 0.62787 0.0
C511 C 0.38077 0.03979 0.5715 0.0
C512 C 0.42127 0.98875 0.74584 0.0
C513 C 0.44271 0.98644 0.7003 0.0
C514 C 0.39691 0.98911 0.71471 0.0
C515 C 0.39393 0.98713 0.63613 0.0
C516 C 0.41532 0.98323 0.59098 0.0
C517 C 0.43951 0.98292 0.62367 0.0
C518 C 0.37464 0.99322 0.7649 0.0
C519 C 0.41283 0.98082 0.50698 0.0
H520 H 0.31779 0.95981 0.53738 0.0
H521 H 0.33783 0.0401 0.48893 0.0
H522 H 0.37367 0.93697 0.59758 0.0
H523 H 0.36291 0.94346 0.68883 0.0
H524 H 0.34097 0.93072 0.62486 0.0
H525 H 0.37242 0.05839 0.54705 0.0
H526 H 0.38539 0.04034 0.6326 0.0
H527 H 0.3988 0.03776 0.54084 0.0
H528 H 0.42353 0.99124 0.80543 0.0
H529 H 0.45595 0.98102 0.58829 0.0
H530 H 0.3583 0.98057 0.75457 0.0
H531 H 0.36858 0.01341 0.75073 0.0
H532 H 0.37943 0.98956 0.82686 0.0
H533 H 0.39799 0.9662 0.49893 0.0
H534 H 0.43086 0.97542 0.4819 0.0
H535 H 0.40694 0.99944 0.47451 0.0
C536 C 0.53859 0.35531 0.4607 0.0
C537 C 0.52228 0.33413 0.48404 0.0
C538 C 0.53969 0.3762 0.50122 0.0
C539 C 0.52458 0.37554 0.56783 0.0
C540 C 0.51003 0.3531 0.59603 0.0
C541 C 0.5089 0.33261 0.55332 0.0
C542 C 0.5554 0.39978 0.46907 0.0
C543 C 0.49427 0.35146 0.66824 0.0
C544 C 0.53811 0.42783 0.6893 0.0
C545 C 0.51892 0.4452 0.66585 0.0
C546 C 0.53981 0.40472 0.65943 0.0
C547 C 0.52229 0.3992 0.60336 0.0
C548 C 0.50307 0.41683 0.57869 0.0
C549 C 0.5014 0.4395 0.61111 0.0
C550 C 0.56013 0.38611 0.68844 0.0
C551 C 0.48437 0.4118 0.51769 0.0
H552 H 0.54921 0.35628 0.40754 0.0
H553 H 0.49625 0.31627 0.57134 0.0
H554 H 0.54268 0.41575 0.44815 0.0
H555 H 0.56747 0.4062 0.51428 0.0
H556 H 0.56771 0.39632 0.42065 0.0
H557 H 0.48727 0.33151 0.68865 0.0
H558 H 0.50537 0.35844 0.7147 0.0
H559 H 0.47771 0.36397 0.65697 0.0
H560 H 0.55141 0.43195 0.73285 0.0
H561 H 0.4865 0.45286 0.59334 0.0
H562 H 0.57279 0.38307 0.64049 0.0
H563 H 0.55138 0.36714 0.71175 0.0
H564 H 0.5718 0.39298 0.73401 0.0
H565 H 0.49461 0.40945 0.46422 0.0
H566 H 0.47079 0.42759 0.50428 0.0
H567 H 0.47353 0.39362 0.53679 0.0
C568 C 0.1565 0.55045 0.36285 0.0
C569 C 0.1765 0.53446 0.38884 0.0
C570 C 0.13607 0.55346 0.41121 0.0
C571 C 0.13585 0.54029 0.48733 0.0
C572 C 0.15743 0.52672 0.51638 0.0
C573 C 0.17756 0.5239 0.46653 0.0
C574 C 0.11359 0.56834 0.37818 0.0
C575 C 0.15811 0.51284 0.59775 0.0
C576 C 0.08269 0.54853 0.62657 0.0
C577 C 0.06751 0.52658 0.62159 0.0
C578 C 0.10483 0.5537 0.5821 0.0
C579 C 0.11169 0.53661 0.53118 0.0
C580 C 0.09577 0.51508 0.52351 0.0
C581 C 0.07396 0.51026 0.56912 0.0
C582 C 0.12139 0.57674 0.59202 0.0
C583 C 0.10217 0.49662 0.46876 0.0
H584 H 0.15588 0.55894 0.30289 0.0
H585 H 0.193 0.51153 0.48678 0.0
H586 H 0.09843 0.55464 0.36553 0.0
H587 H 0.1058 0.58 0.41979 0.0
H588 H 0.11855 0.58126 0.32408 0.0
H589 H 0.17758 0.5071 0.61522 0.0
H590 H 0.15069 0.52506 0.6384 0.0
H591 H 0.14586 0.49522 0.60262 0.0
H592 H 0.07785 0.56111 0.66752 0.0
H593 H 0.0622 0.49336 0.56478 0.0
H594 H 0.12683 0.58778 0.53543 0.0
H595 H 0.1391 0.57016 0.62144 0.0
H596 H 0.1119 0.5898 0.62654 0.0
H597 H 0.10498 0.50721 0.40987 0.0
H598 H 0.08716 0.48154 0.46708 0.0
H599 H 0.12015 0.48705 0.48624 0.0
C600 C 0.98561 0.83225 0.13185 0.0
C601 C 0.00446 0.81514 0.15905 0.0
C602 C 0.9913 0.85392 0.07758 0.0
C603 C 0.01653 0.85859 0.05081 0.0
C604 C 0.03535 0.84052 0.07511 0.0
C605 C 0.02906 0.81891 0.12943 0.0
C606 C 0.97062 0.87258 0.05243 0.0
C607 C 0.06236 0.84478 0.04722 0.0
C608 C 0.02214 0.91066 0.87841 0.0
C609 C 0.02635 0.93261 0.91369 0.0
C610 C 0.02064 0.88608 0.92178 0.0
C611 C 0.02327 0.88342 0.00235 0.0
C612 C 0.02934 0.90528 0.03763 0.0
C613 C 0.03088 0.92966 0.99274 0.0
C614 C 0.01441 0.86329 0.88174 0.0
C615 C 0.03247 0.90316 0.12348 0.0
H616 H 0.96667 0.8293 0.15595 0.0
H617 H 0.04362 0.80572 0.15181 0.0
H618 H 0.97473 0.89107 0.07362 0.0
H619 H 0.9699 0.87669 0.98888 0.0
H620 H 0.95171 0.86518 0.07442 0.0
H621 H 0.07392 0.82753 0.06419 0.0
H622 H 0.063 0.84989 0.98382 0.0
H623 H 0.07108 0.86113 0.07169 0.0
H624 H 0.01892 0.91274 0.81708 0.0
H625 H 0.03425 0.94652 0.02026 0.0
H626 H 0.99397 0.8582 0.8895 0.0
H627 H 0.02518 0.84623 0.90651 0.0
H628 H 0.01853 0.86758 0.81922 0.0
H629 H 0.0139 0.89823 0.15217 0.0
H630 H 0.03986 0.92137 0.14087 0.0
H631 H 0.04553 0.88752 0.14464 0.0
C632 C 0.68629 0.99191 0.031 0.0
C633 C 0.69707 0.01351 0.05708 0.0
C634 C 0.66416 0.99388 0.98724 0.0
C635 C 0.65293 0.01816 0.96846 0.0
C636 C 0.66497 0.04038 0.98966 0.0
C637 C 0.68679 0.03771 0.03503 0.0
C638 C 0.65171 0.96967 0.96682 0.0
C639 C 0.65391 0.06665 0.96892 0.0
C640 C 0.59935 0.02017 0.8254 0.0
C641 C 0.57816 0.01675 0.87437 0.0
C642 C 0.62385 0.02192 0.8548 0.0
C643 C 0.62717 0.01963 0.93511 0.0
C644 C 0.60578 0.01689 0.98464 0.0
C645 C 0.58148 0.01578 0.9535 0.0
C646 C 0.64615 0.0254 0.80018 0.0
C647 C 0.60859 0.01392 0.0708 0.0
H648 H 0.69417 0.97317 0.04957 0.0
H649 H 0.69512 0.05429 0.05634 0.0
H650 H 0.6338 0.96553 -9e-05 0.0
H651 H 0.64682 0.9722 0.90506 0.0
H652 H 0.66399 0.95276 0.97973 0.0
H653 H 0.66758 0.08223 0.97842 0.0
H654 H 0.64795 0.06979 0.90797 0.0
H655 H 0.63685 0.06805 0.00467 0.0
H656 H 0.59682 0.02112 0.764 0.0
H657 H 0.56514 0.01299 0.99147 0.0
H658 H 0.65752 0.00778 0.80807 0.0
H659 H 0.65868 0.04148 0.81265 0.0
H660 H 0.6402 0.02933 0.73921 0.0
H661 H 0.61912 0.99625 0.09133 0.0
H662 H 0.59003 0.01265 0.10106 0.0
H663 H 0.6197 0.03041 0.08706 0.0
C664 C 0.53661 0.6524 0.08642 0.0
C665 C 0.51925 0.67226 0.07954 0.0
C666 C 0.53361 0.63191 0.04481 0.0
C667 C 0.51287 0.63149 0.99438 0.0
C668 C 0.4965 0.6526 0.98228 0.0
C669 C 0.49982 0.67281 0.02553 0.0
C670 C 0.55166 0.6099 0.05885 0.0
C671 C 0.47462 0.65311 0.92731 0.0
C672 C 0.51964 0.58132 0.86425 0.0
C673 C 0.5056 0.56058 0.90419 0.0
C674 C 0.5205 0.60526 0.88955 0.0
C675 C 0.50782 0.60815 0.95828 0.0
C676 C 0.49281 0.58746 0.9974 0.0
C677 C 0.49154 0.56387 0.96899 0.0
C678 C 0.53597 0.627 0.84462 0.0
C679 C 0.47923 0.5898 0.07137 0.0
H680 H 0.55163 0.6521 0.12833 0.0
H681 H 0.48628 0.68809 0.02086 0.0
H682 H 0.54125 0.59215 0.08512 0.0
H683 H 0.55984 0.60609 0.00379 0.0
H684 H 0.5674 0.61377 0.09751 0.0
H685 H 0.46614 0.6724 0.91578 0.0
H686 H 0.48079 0.64749 0.87206 0.0
H687 H 0.45975 0.63899 0.95202 0.0
H688 H 0.53018 0.57872 0.81319 0.0
H689 H 0.48059 0.54776 0.99918 0.0
H690 H 0.554 0.6296 0.87492 0.0
H691 H 0.52579 0.64534 0.84003 0.0
H692 H 0.54051 0.62316 0.78584 0.0
H693 H 0.49331 0.59217 0.11655 0.0
H694 H 0.46696 0.57266 0.09171 0.0
H695 H 0.46742 0.60712 0.06387 0.0
C696 C 0.86885 0.46416 0.1922 0.0
C697 C 0.85067 0.48247 0.167 0.0
C698 C 0.88926 0.4601 0.145 0.0
C699 C 0.89128 0.4745 0.07065 0.0
C700 C 0.87141 0.49072 0.04184 0.0
C701 C 0.85131 0.49461 0.09062 0.0
C702 C 0.9099 0.44246 0.17771 0.0
C703 C 0.87264 0.50599 0.96218 0.0
C704 C 0.95579 0.49938 0.99661 0.0
C705 C 0.96072 0.48365 0.94118 0.0
C706 C 0.93366 0.49586 0.04103 0.0
C707 C 0.91585 0.47631 0.029 0.0
C708 C 0.92119 0.45964 0.97535 0.0
C709 C 0.94373 0.46342 0.93221 0.0
C710 C 0.92891 0.51378 0.09876 0.0
C711 C 0.90259 0.43872 0.96065 0.0
H712 H 0.86809 0.45437 0.25092 0.0
H713 H 0.83731 0.50876 0.07084 0.0
H714 H 0.91667 0.4308 0.13467 0.0
H715 H 0.92624 0.4542 0.19356 0.0
H716 H 0.90344 0.42932 0.22984 0.0
H717 H 0.85405 0.51415 0.944 0.0
H718 H 0.88666 0.5221 0.96112 0.0
H719 H 0.87893 0.49382 0.91983 0.0
H720 H 0.96897 0.51495 0.0039 0.0
H721 H 0.9474 0.45138 0.8888 0.0
H722 H 0.92472 0.50255 0.15606 0.0
H723 H 0.91217 0.52552 0.08137 0.0
H724 H 0.94532 0.52701 0.10406 0.0
H725 H 0.89558 0.4276 0.01547 0.0
H726 H 0.91102 0.42526 0.92535 0.0
H727 H 0.88596 0.44757 0.92986 0.0
C728 C 0.02125 0.19795 0.10004 0.0
C729 C 0.04116 0.20469 0.1459 0.0
C730 C 0.02355 0.17762 0.05724 0.0
C731 C 0.04635 0.16389 0.06055 0.0
C732 C 0.06753 0.17294 0.09874 0.0
C733 C 0.06462 0.19318 0.1415 0.0
C734 C 1.00052 0.16882 0.01691 0.0
C735 C 0.09233 0.15925 0.1027 0.0
C736 C 0.0387 0.09133 0.07644 0.0
C737 C 0.04507 0.08684 0.00235 0.0
C738 C 0.0392 0.11625 0.09564 0.0
C739 C 0.04628 0.13745 0.03945 0.0
C740 C 0.05292 0.13315 0.96461 0.0
C741 C 0.05225 0.10791 0.94696 0.0
C742 C 0.03177 0.11989 0.17616 0.0
C743 C 0.06073 0.15518 0.90334 0.0
H744 H 1.00298 0.20656 0.10452 0.0
H745 H 0.0799 0.19815 0.17794 0.0
H746 H 0.00577 0.1629 0.96129 0.0
H747 H 0.9916 0.15187 0.05315 0.0
H748 H 0.98629 0.18411 0.00648 0.0
H749 H 0.10808 0.17149 0.12 0.0
H750 H 0.09071 0.14157 0.14572 0.0
H751 H 0.0971 0.15338 0.04662 0.0
H752 H 0.03266 0.07538 0.11929 0.0
H753 H 0.05745 0.10466 0.88979 0.0
H754 H 0.01533 0.13267 0.17425 0.0
H755 H 0.04758 0.12931 0.20356 0.0
H756 H 0.0267 0.10142 0.21299 0.0
H757 H 0.04591 0.16989 0.89623 0.0
H758 H 0.06415 0.14878 0.847 0.0
H759 H 0.07829 0.16465 0.92097 0.0
C760 C 0.32025 0.99245 0.20915 0.0
C761 C 0.30985 0.01429 0.23235 0.0
C762 C 0.34051 0.9947 0.15669 0.0
C763 C 0.35041 0.01942 0.12637 0.0
C764 C 0.33776 0.04151 0.14208 0.0
C765 C 0.31777 0.0387 0.19585 0.0
C766 C 0.35318 0.9706 0.14118 0.0
C767 C 0.347 0.06818 0.10832 0.0
C768 C 0.42208 0.02354 0.11021 0.0
C769 C 0.42637 0.0216 0.03263 0.0
C770 C 0.3975 0.02337 0.14055 0.0
C771 C 0.37637 0.02199 0.09188 0.0
C772 C 0.38041 0.02153 0.01265 0.0
C773 C 0.40529 0.02099 0.98417 0.0
C774 C 0.3942 0.02377 0.22563 0.0
C775 C 0.35858 0.02057 0.95807 0.0
H776 H 0.31437 0.97359 0.23842 0.0
H777 H 0.30999 0.0556 0.21461 0.0
H778 H 0.35726 0.97159 0.07905 0.0
H779 H 0.37151 0.96883 0.17187 0.0
H780 H 0.34139 0.95304 0.16069 0.0
H781 H 0.3325 0.08276 0.11333 0.0
H782 H 0.3642 0.07335 0.13916 0.0
H783 H 0.35219 0.06893 0.04692 0.0
H784 H 0.43798 0.02474 0.14812 0.0
H785 H 0.408 0.01938 0.92425 0.0
H786 H 0.38374 0.0061 0.25237 0.0
H787 H 0.38285 0.04044 0.23526 0.0
H788 H 0.41256 0.02492 0.25558 0.0
H789 H 0.34227 0.03146 0.97465 0.0
H790 H 0.35221 1.00028 0.95898 0.0
H791 H 0.36429 0.02845 0.89826 0.0
C792 C 0.47642 0.34413 0.21913 0.0
C793 C 0.49517 0.3256 0.22326 0.0
C794 C 0.47639 0.36501 0.15953 0.0
C795 C 0.49515 0.36698 0.10133 0.0
C796 C 0.51217 0.34662 0.10024 0.0
C797 C 0.51218 0.32622 0.16194 0.0
C798 C 0.45805 0.38631 0.16378 0.0
C799 C 0.53182 0.34748 0.03761 0.0
C800 C 0.48664 0.42048 0.93326 0.0
C801 C 0.5033 0.43973 0.9522 0.0
C802 C 0.48451 0.39633 0.97948 0.0
C803 C 0.49873 0.39162 0.04778 0.0
C804 C 0.51553 0.41108 0.06733 0.0
C805 C 0.51797 0.43474 0.01844 0.0
C806 C 0.46713 0.37586 0.95513 0.0
C807 C 0.5306 0.40706 0.14064 0.0
H808 H 0.46343 0.34374 0.2671 0.0
H809 H 0.52687 0.31209 0.16549 0.0
H810 H 0.4685 0.40342 0.17879 0.0
H811 H 0.44897 0.39215 0.10746 0.0
H812 H 0.44301 0.3806 0.20763 0.0
H813 H 0.54009 0.32833 0.03661 0.0
H814 H 0.52354 0.35428 0.9806 0.0
H815 H 0.54733 0.36121 0.04724 0.0
H816 H 0.47567 0.42411 0.88101 0.0
H817 H 0.53097 0.44955 0.03278 0.0
H818 H 0.45155 0.3711 0.99755 0.0
H819 H 0.47766 0.35797 0.95348 0.0
H820 H 0.45875 0.38198 0.89776 0.0
H821 H 0.5176 0.40256 0.1907 0.0
H822 H 0.54247 0.42423 0.14809 0.0
H823 H 0.54309 0.39043 0.14099 0.0
C824 C 0.18347 0.50324 0.08504 0.0
C825 C 0.18135 0.49104 0.16109 0.0
C826 C 0.1642 0.50022 0.03191 0.0
C827 C 0.14236 0.48489 0.0561 0.0
C828 C 0.14153 0.47045 0.13065 0.0
C829 C 0.16112 0.47364 0.18214 0.0
C830 C 0.16609 0.51551 0.95243 0.0
C831 C 0.1187 0.4539 0.15915 0.0
C832 C 0.07963 0.5096 0.97479 0.0
C833 C 0.07372 0.49257 0.92308 0.0
C834 C 0.10184 0.50714 0.01837 0.0
C835 C 0.11885 0.48741 0.00924 0.0
C836 C 0.113 0.47011 0.95716 0.0
C837 C 0.09038 0.47276 0.9151 0.0
C838 C 0.10708 0.52575 0.07428 0.0
C839 C 0.13079 0.44906 0.94515 0.0
H840 H 0.19898 0.51689 0.069 0.0
H841 H 0.15945 0.46434 0.24126 0.0
H842 H 0.15932 0.50382 0.90875 0.0
H843 H 0.15388 0.53248 0.94915 0.0
H844 H 0.18579 0.52241 0.93787 0.0
H845 H 0.1227 0.44081 0.21308 0.0
H846 H 0.10299 0.46645 0.17049 0.0
H847 H 0.11209 0.44221 0.11533 0.0
H848 H 0.06683 0.52491 0.98136 0.0
H849 H 0.08605 0.45969 0.8746 0.0
H850 H 0.12508 0.5366 0.05873 0.0
H851 H 0.10928 0.51506 0.13305 0.0
H852 H 0.09174 0.53974 0.0754 0.0
H853 H 0.14941 0.45762 0.92447 0.0
H854 H 0.12341 0.43705 0.90297 0.0
H855 H 0.13409 0.43644 0.00035 0.0
C856 C 0.01119 0.8144 0.4595 0.0
C857 C 0.99045 0.80015 0.43749 0.0
C858 C 0.00783 0.83409 0.50377 0.0
C859 C 0.98313 0.83947 0.52706 0.0
C860 C 0.96263 0.82285 0.51367 0.0
C861 C 0.96649 0.80342 0.46824 0.0
C862 C 0.03032 0.851 0.51771 0.0
C863 C 0.93623 0.82716 0.54086 0.0
C864 C 0.9813 0.89401 0.64668 0.0
C865 C 0.97768 0.91541 0.58973 0.0
C866 C 0.98133 0.86884 0.6285 0.0
C867 C 0.97839 0.86494 0.55126 0.0
C868 C 0.9734 0.88621 0.49436 0.0
C869 C 0.97268 0.91098 0.51451 0.0
C870 C 0.98582 0.84675 0.69174 0.0
C871 C 0.97018 0.88306 0.41103 0.0
H872 H 0.0297 0.81186 0.43544 0.0
H873 H 0.9504 0.7925 0.45092 0.0
H874 H 0.0287 0.87008 0.48162 0.0
H875 H 0.03076 0.85414 0.57851 0.0
H876 H 0.04851 0.8426 0.50362 0.0
H877 H 0.92374 0.80988 0.54046 0.0
H878 H 0.9366 0.83224 0.59975 0.0
H879 H 0.92792 0.84343 0.50247 0.0
H880 H 0.98505 0.89672 0.70525 0.0
H881 H 0.96894 0.92699 0.47025 0.0
H882 H 0.00646 0.84377 0.6977 0.0
H883 H 0.97672 0.82858 0.6795 0.0
H884 H 0.97852 0.85096 0.74756 0.0
H885 H 0.98783 0.87569 0.38912 0.0
H886 H 0.96571 0.90142 0.37419 0.0
H887 H 0.95478 0.8688 0.40516 0.0
C888 C 0.69816 0.0195 0.35528 0.0
C889 C 0.71082 0.99848 0.33433 0.0
C890 C 0.67814 0.01589 0.40858 0.0
C891 C 0.67082 0.99064 0.44249 0.0
C892 C 0.68576 0.96972 0.42911 0.0
C893 C 0.70553 0.97386 0.37451 0.0
C894 C 0.66296 0.03883 0.4212 0.0
C895 C 0.67926 0.94264 0.46646 0.0
C896 C 0.61638 0.98639 0.58711 0.0
C897 C 0.59532 0.98319 0.54038 0.0
C898 C 0.64124 0.98747 0.55751 0.0
C899 C 0.64521 0.98593 0.47885 0.0
C900 C 0.62415 0.98182 0.43215 0.0
C901 C 0.59964 0.98017 0.46364 0.0
C902 C 0.66305 0.99138 0.60997 0.0
C903 C 0.62737 0.9802 0.34774 0.0
H904 H 0.70217 0.03854 0.32386 0.0
H905 H 0.71515 0.95754 0.35803 0.0
H906 H 0.6446 0.03821 0.39106 0.0
H907 H 0.6588 0.03839 0.48307 0.0
H908 H 0.67297 0.0573 0.39913 0.0
H909 H 0.6953 0.92961 0.46312 0.0
H910 H 0.67391 0.94224 0.52759 0.0
H911 H 0.6628 0.93514 0.43693 0.0
H912 H 0.61358 0.98892 0.64632 0.0
H913 H 0.58377 0.97704 0.42726 0.0
H914 H 0.66867 0.01206 0.60219 0.0
H915 H 0.67975 0.98047 0.59645 0.0
H916 H 0.65778 0.98539 0.67125 0.0
H917 H 0.63595 0.99846 0.31775 0.0
H918 H 0.60912 0.97656 0.31962 0.0
H919 H 0.64038 0.96458 0.33999 0.0
C920 C 0.49158 0.65701 0.36736 0.0
C921 C 0.51074 0.67612 0.35457 0.0
C922 C 0.49297 0.6367 0.42829 0.0
C923 C 0.51375 0.6358 0.47904 0.0
C924 C 0.53177 0.65648 0.47111 0.0
C925 C 0.5302 0.67636 0.40823 0.0
C926 C 0.47334 0.6151 0.43419 0.0
C927 C 0.55363 0.65672 0.52582 0.0
C928 C 0.50449 0.58482 0.65385 0.0
C929 C 0.51775 0.56427 0.63231 0.0
C930 C 0.50466 0.6089 0.6073 0.0
C931 C 0.51741 0.61213 0.53569 0.0
C932 C 0.53139 0.59152 0.51461 0.0
C933 C 0.53178 0.5679 0.56409 0.0
C934 C 0.49041 0.63053 0.63366 0.0
C935 C 0.54487 0.59401 0.43814 0.0
H936 H 0.47657 0.65683 0.32558 0.0
H937 H 0.54516 0.69098 0.398 0.0
H938 H 0.48241 0.5972 0.42317 0.0
H939 H 0.46512 0.61131 0.49285 0.0
H940 H 0.45773 0.61937 0.39251 0.0
H941 H 0.56313 0.67599 0.52056 0.0
H942 H 0.54714 0.65093 0.58602 0.0
H943 H 0.56777 0.64266 0.5133 0.0
H944 H 0.4939 0.582 0.70739 0.0
H945 H 0.54206 0.55195 0.54791 0.0
H946 H 0.47243 0.63325 0.60156 0.0
H947 H 0.50156 0.64887 0.62194 0.0
H948 H 0.48585 0.62652 0.69598 0.0
H949 H 0.53084 0.59709 0.39112 0.0
H950 H 0.55576 0.57667 0.43182 0.0
H951 H 0.55801 0.61098 0.43092 0.0
C952 C 0.86501 0.53777 0.3887 0.0
C953 C 0.84551 0.51926 0.40663 0.0
C954 C 0.88482 0.54013 0.44008 0.0
C955 C 0.88496 0.52374 0.51152 0.0
C956 C 0.8639 0.50692 0.53307 0.0
C957 C 0.84444 0.5047 0.47988 0.0
C958 C 0.90687 0.5582 0.41423 0.0
C959 C 0.86303 0.48955 0.6094 0.0
C960 C 0.94915 0.50089 0.58591 0.0
C961 C 0.95431 0.51684 0.6412 0.0
C962 C 0.92672 0.5031 0.54332 0.0
C963 C 0.90867 0.52135 0.55743 0.0
C964 C 0.91373 0.53748 0.61338 0.0
C965 C 0.93663 0.53522 0.65408 0.0
C966 C 0.92237 0.48587 0.48303 0.0
C967 C 0.8948 0.55681 0.631 0.0
H968 H 0.86593 0.54878 0.33151 0.0
H969 H 0.82956 0.49014 0.49326 0.0
H970 H 0.91295 0.569 0.46071 0.0
H971 H 0.92316 0.54687 0.39985 0.0
H972 H 0.90223 0.57217 0.36272 0.0
H973 H 0.84373 0.48126 0.62316 0.0
H974 H 0.87613 0.47349 0.60787 0.0
H975 H 0.8693 0.50015 0.65617 0.0
H976 H 0.96275 0.48667 0.57571 0.0
H977 H 0.94037 0.54736 0.69753 0.0
H978 H 0.9194 0.49771 0.42627 0.0
H979 H 0.90502 0.47376 0.49708 0.0
H980 H 0.93849 0.47306 0.47812 0.0
H981 H 0.8908 0.57051 0.57846 0.0
H982 H 0.90154 0.56787 0.67633 0.0
H983 H 0.87665 0.5468 0.65016 0.0
loop_
_geom_bond_atom_site_label_1
_geom_bond_atom_site_label_2
_geom_bond_distance
_geom_bond_site_symmetry_2
_ccdc_geom_bond_type
H0 C5 0.930 . S
H1 C8 0.930 . S
H2 C10 0.930 . S
H3 C4 1.016 . S
C4 H3 1.016 . S
C4 N11 1.286 . S
C5 H0 0.930 . S
C5 C6 1.397 . S
C5 C7 1.361 . S
C6 C5 1.397 . S
C6 C10 1.390 . S
C7 C5 1.361 . S
C7 C8 1.393 . S
C7 N11 1.413 . S
C8 H1 0.930 . S
C8 C7 1.393 . S
C8 C9 1.399 . S
C9 C8 1.399 . S
C9 C10 1.381 . S
C10 H2 0.930 . S
C10 C6 1.390 . S
C10 C9 1.381 . S
N11 C4 1.286 . S
N11 C7 1.413 . S
H12 C17 0.930 . S
H13 C20 0.930 . S
H14 C22 0.930 . S
H15 C16 1.016 . S
C16 H15 1.016 . S
C16 N23 1.286 . S
C17 H12 0.930 . S
C17 C18 1.397 . S
C17 C19 1.361 . S
C18 C17 1.397 . S
C18 C22 1.390 . S
C19 C17 1.361 . S
C19 C20 1.393 . S
C19 N23 1.413 . S
C20 H13 0.930 . S
C20 C19 1.393 . S
C20 C21 1.399 . S
C21 C20 1.399 . S
C21 C22 1.381 . S
C22 H14 0.930 . S
C22 C18 1.390 . S
C22 C21 1.381 . S
N23 C16 1.286 . S
N23 C19 1.413 . S
H24 C29 0.930 . S
H25 C32 0.930 1_556 S
H26 C34 0.930 . S
H27 C28 1.034 1_556 S
C28 H27 1.034 1_554 S
C28 N35 1.263 1_565 S
C29 H24 0.930 . S
C29 C30 1.397 . S
C29 C31 1.361 . S
C30 C29 1.397 . S
C30 C34 1.390 1_545 S
C31 C29 1.361 . S
C31 C32 1.393 . S
C31 N35 1.413 . S
C32 H25 0.930 1_554 S
C32 C31 1.393 . S
C32 C33 1.401 . S
C33 C32 1.401 . S
C33 C34 1.382 1_545 S
C34 H26 0.930 . S
C34 C30 1.390 1_565 S
C34 C33 1.382 1_565 S
N35 C28 1.263 1_545 S
N35 C31 1.413 . S
H36 C41 0.930 . S
H37 C44 0.930 . S
H38 C46 0.930 . S
H39 C40 1.016 . S
C40 H39 1.016 . S
C40 N47 1.286 . S
C41 H36 0.930 . S
C41 C42 1.397 . S
C41 C43 1.361 . S
C42 C41 1.397 . S
C42 C46 1.390 . S
C43 C41 1.361 . S
C43 C44 1.393 . S
C43 N47 1.413 . S
C44 H37 0.930 . S
C44 C43 1.393 . S
C44 C45 1.399 . S
C45 C44 1.399 . S
C45 C46 1.381 . S
C46 H38 0.930 . S
C46 C42 1.390 . S
C46 C45 1.381 . S
N47 C40 1.286 . S
N47 C43 1.413 . S
H48 C53 0.930 . S
H49 C56 0.930 . S
H50 C58 0.930 . S
H51 C52 1.016 . S
C52 H51 1.016 . S
C52 N59 1.286 . S
C53 H48 0.930 . S
C53 C54 1.397 . S
C53 C55 1.361 . S
C54 C53 1.397 . S
C54 C58 1.390 . S
C55 C53 1.361 . S
C55 C56 1.393 . S
C55 N59 1.413 . S
C56 H49 0.930 . S
C56 C55 1.393 . S
C56 C57 1.399 . S
C57 C56 1.399 . S
C57 C58 1.381 . S
C58 H50 0.930 . S
C58 C54 1.390 . S
C58 C57 1.381 . S
N59 C52 1.286 . S
N59 C55 1.413 . S
H60 C65 0.930 . S
H61 C68 0.930 . S
H62 C70 0.930 . S
H63 C64 1.016 . S
C64 H63 1.016 . S
C64 N71 1.286 . S
C65 H60 0.930 . S
C65 C66 1.397 . S
C65 C67 1.361 . S
C66 C65 1.397 . S
C66 C70 1.390 . S
C67 C65 1.361 . S
C67 C68 1.393 . S
C67 N71 1.413 . S
C68 H61 0.930 . S
C68 C67 1.393 . S
C68 C69 1.399 . S
C69 C68 1.399 . S
C69 C70 1.381 . S
C70 H62 0.930 . S
C70 C66 1.390 . S
C70 C69 1.381 . S
N71 C64 1.286 . S
N71 C67 1.413 . S
H72 C77 0.930 . S
H73 C80 0.930 . S
H74 C82 0.930 . S
H75 C76 1.022 . S
C76 H75 1.022 . S
C76 N83 1.276 1_565 S
C77 H72 0.930 . S
C77 C78 1.397 . S
C77 C79 1.361 . S
C78 C77 1.397 . S
C78 C82 1.390 1_545 S
C79 C77 1.361 . S
C79 C80 1.393 . S
C79 N83 1.413 . S
C80 H73 0.930 . S
C80 C79 1.393 . S
C80 C81 1.406 . S
C81 C80 1.406 . S
C81 C82 1.373 1_545 S
C82 H74 0.930 . S
C82 C78 1.390 1_565 S
C82 C81 1.373 1_565 S
N83 C76 1.276 1_545 S
N83 C79 1.413 . S
H84 C89 0.930 . S
H85 C92 0.930 . S
H86 C94 0.930 . S
H87 C88 1.016 . S
C88 H87 1.016 . S
C88 N95 1.286 . S
C89 H84 0.930 . S
C89 C90 1.397 . S
C89 C91 1.361 . S
C90 C89 1.397 . S
C90 C94 1.390 . S
C91 C89 1.361 . S
C91 C92 1.393 . S
C91 N95 1.413 . S
C92 H85 0.930 . S
C92 C91 1.393 . S
C92 C93 1.399 . S
C93 C92 1.399 . S
C93 C94 1.381 . S
C94 H86 0.930 . S
C94 C90 1.390 . S
C94 C93 1.381 . S
N95 C88 1.286 . S
N95 C91 1.413 . S
Co96 N101 2.057 . S
Co96 O113 2.021 . S
Co96 O116 2.062 . S
Co96 O120 2.117 1_455 S
Co96 O121 2.020 1_545 S
C97 O117 1.259 1_545 S
C97 O120 1.258 . S
Co98 N107 2.057 . S
Co98 O114 2.069 1_655 S
Co98 O115 2.015 1_665 S
Co98 O117 2.067 . S
Co98 O122 2.063 . S
C99 N101 1.316 . S
C99 N102 1.347 1_556 S
C99 H104 0.931 . S
C100 N101 1.375 1_655 S
C100 C103 1.350 1_656 S
C100 H105 0.930 . S
N101 Co96 2.057 . S
N101 C99 1.316 . S
N101 C100 1.375 1_455 S
N102 C99 1.347 1_554 S
N102 C103 1.373 . S
C103 C100 1.350 1_454 S
C103 N102 1.373 . S
C103 H124 0.931 1_455 S
H104 C99 0.931 . S
H105 C100 0.930 . S
C106 O113 1.259 1_565 S
C106 O114 1.258 . S
N107 Co98 2.057 . S
N107 C108 1.316 . S
N107 C109 1.375 1_655 S
C108 N107 1.316 . S
C108 N110 1.347 . S
C108 H119 0.931 . S
C109 N107 1.375 1_455 S
C109 C111 1.350 . S
C109 H118 0.930 . S
N110 C108 1.347 . S
N110 C111 1.373 1_655 S
C111 C109 1.350 . S
C111 N110 1.373 1_455 S
C111 H125 0.931 . S
C112 O115 1.256 . S
C112 O116 1.255 . S
O113 Co96 2.021 . S
O113 C106 1.259 1_545 S
O114 Co98 2.069 1_455 S
O114 C106 1.258 . S
O115 Co98 2.015 1_445 S
O115 C112 1.256 . S
O116 Co96 2.062 . S
O116 C112 1.255 . S
O117 C97 1.259 1_565 S
O117 Co98 2.067 . S
H118 C109 0.930 . S
H119 C108 0.931 . S
O120 Co96 2.117 1_655 S
O120 C97 1.258 . S
O121 Co96 2.020 1_565 S
O121 C123 1.256 . S
O122 Co98 2.063 . S
O122 C123 1.255 1_655 S
C123 O121 1.256 . S
C123 O122 1.255 1_455 S
H124 C103 0.931 1_655 S
H125 C111 0.931 . S
Co126 N131 2.057 1_545 S
Co126 O143 2.021 . S
Co126 O146 2.067 . S
Co126 O150 2.117 1_545 S
Co126 O151 2.020 . S
C127 O147 1.259 . S
C127 O150 1.258 . S
Co128 N137 2.057 1_565 S
Co128 O144 2.117 1_565 S
Co128 O145 2.020 . S
Co128 O147 2.021 . S
Co128 O152 2.065 . S
C129 N131 1.316 1_545 S
C129 N132 1.347 1_556 S
C129 H134 0.931 . S
C130 N131 1.375 1_554 S
C130 C133 1.350 . S
C130 H135 0.931 . S
N131 Co126 2.057 1_565 S
N131 C129 1.316 1_565 S
N131 C130 1.375 1_556 S
N132 C129 1.347 1_554 S
N132 C133 1.373 1_545 S
C133 C130 1.350 . S
C133 N132 1.373 1_565 S
C133 H154 0.931 . S
H134 C129 0.931 . S
H135 C130 0.931 . S
C136 O143 1.259 . S
C136 O144 1.258 . S
N137 Co128 2.057 1_545 S
N137 C138 1.316 1_545 S
N137 C139 1.375 . S
C138 N137 1.316 1_565 S
C138 N140 1.347 . S
C138 H149 0.931 . S
C139 N137 1.375 . S
C139 C141 1.350 . S
C139 H148 0.930 . S
N140 C138 1.347 . S
N140 C141 1.373 1_565 S
C141 C139 1.350 . S
C141 N140 1.373 1_545 S
C141 H155 0.931 . S
C142 O145 1.256 . S
C142 O146 1.244 1_565 S
O143 Co126 2.021 . S
O143 C136 1.259 . S
O144 Co128 2.117 1_545 S
O144 C136 1.258 . S
O145 Co128 2.020 . S
O145 C142 1.256 . S
O146 Co126 2.067 . S
O146 C142 1.244 1_545 S
O147 C127 1.259 . S
O147 Co128 2.021 . S
H148 C139 0.930 . S
H149 C138 0.931 . S
O150 Co126 2.117 1_565 S
O150 C127 1.258 . S
O151 Co126 2.020 . S
O151 C153 1.256 . S
O152 Co128 2.065 . S
O152 C153 1.248 1_565 S
C153 O151 1.256 . S
C153 O152 1.248 1_545 S
H154 C133 0.931 . S
H155 C141 0.931 . S
Co156 N161 2.057 . S
Co156 O173 2.021 . S
Co156 O176 2.062 . S
Co156 O180 2.117 . S
Co156 O181 2.020 . S
C157 O177 1.259 . S
C157 O180 1.258 . S
Co158 N167 2.057 . S
Co158 O174 2.117 . S
Co158 O175 2.020 . S
Co158 O177 2.021 . S
Co158 O182 2.062 . S
C159 N161 1.316 . S
C159 N162 1.347 . S
C159 H164 0.931 . S
C160 N161 1.375 . S
C160 C163 1.350 . S
C160 H165 0.930 . S
N161 Co156 2.057 . S
N161 C159 1.316 . S
N161 C160 1.375 . S
N162 C159 1.347 . S
N162 C163 1.373 . S
C163 C160 1.350 . S
C163 N162 1.373 . S
C163 H184 0.931 . S
H164 C159 0.931 . S
H165 C160 0.930 . S
C166 O173 1.259 . S
C166 O174 1.258 . S
N167 Co158 2.057 . S
N167 C168 1.316 . S
N167 C169 1.375 . S
C168 N167 1.316 . S
C168 N170 1.347 . S
C168 H179 0.931 . S
C169 N167 1.375 . S
C169 C171 1.350 . S
C169 H178 0.930 . S
N170 C168 1.347 . S
N170 C171 1.373 . S
C171 C169 1.350 . S
C171 N170 1.373 . S
C171 H185 0.931 . S
C172 O175 1.256 . S
C172 O176 1.255 . S
O173 Co156 2.021 . S
O173 C166 1.259 . S
O174 Co158 2.117 . S
O174 C166 1.258 . S
O175 Co158 2.020 . S
O175 C172 1.256 . S
O176 Co156 2.062 . S
O176 C172 1.255 . S
O177 C157 1.259 . S
O177 Co158 2.021 . S
H178 C169 0.930 . S
H179 C168 0.931 . S
O180 Co156 2.117 . S
O180 C157 1.258 . S
O181 Co156 2.020 . S
O181 C183 1.256 . S
O182 Co158 2.062 . S
O182 C183 1.255 . S
C183 O181 1.256 . S
C183 O182 1.255 . S
H184 C163 0.931 . S
H185 C171 0.931 . S
Co186 N191 2.057 . S
Co186 O203 2.021 1_455 S
Co186 O206 2.062 1_455 S
Co186 O210 2.117 . S
Co186 O211 2.020 . S
C187 O207 1.259 . S
C187 O210 1.258 . S
Co188 N197 2.057 . S
Co188 O204 2.117 1_455 S
Co188 O205 2.020 1_455 S
Co188 O207 2.021 . S
Co188 O212 2.062 . S
C189 N191 1.316 1_655 S
C189 N192 1.347 1_655 S
C189 H194 0.931 . S
C190 N191 1.375 . S
C190 C193 1.350 . S
C190 H195 0.930 . S
N191 Co186 2.057 . S
N191 C189 1.316 1_455 S
N191 C190 1.375 . S
N192 C189 1.347 1_455 S
N192 C193 1.373 . S
C193 C190 1.350 . S
C193 N192 1.373 . S
C193 H214 0.931 . S
H194 C189 0.931 . S
H195 C190 0.930 . S
C196 O203 1.259 . S
C196 O204 1.258 . S
N197 Co188 2.057 . S
N197 C198 1.316 . S
N197 C199 1.375 1_455 S
C198 N197 1.316 . S
C198 N200 1.347 . S
C198 H209 0.931 . S
C199 N197 1.375 1_655 S
C199 C201 1.350 . S
C199 H208 0.930 . S
N200 C198 1.347 . S
N200 C201 1.373 1_455 S
C201 C199 1.350 . S
C201 N200 1.373 1_655 S
C201 H215 0.931 . S
C202 O205 1.256 . S
C202 O206 1.255 . S
O203 Co186 2.021 1_655 S
O203 C196 1.259 . S
O204 Co188 2.117 1_655 S
O204 C196 1.258 . S
O205 Co188 2.020 1_655 S
O205 C202 1.256 . S
O206 Co186 2.062 1_655 S
O206 C202 1.255 . S
O207 C187 1.259 . S
O207 Co188 2.021 . S
H208 C199 0.930 . S
H209 C198 0.931 . S
O210 Co186 2.117 . S
O210 C187 1.258 . S
O211 Co186 2.020 . S
O211 C213 1.256 . S
O212 Co188 2.062 . S
O212 C213 1.255 . S
C213 O211 1.256 . S
C213 O212 1.255 . S
H214 C193 0.931 . S
H215 C201 0.931 . S
C216 C217 1.391 . S
C216 C218 1.394 . S
C216 H232 0.931 . S
C217 C216 1.391 . S
C217 C221 1.376 1_545 S
C218 C216 1.394 . S
C218 C219 1.369 . S
C218 C222 1.531 . S
C219 C218 1.369 . S
C219 C220 1.410 1_545 S
C219 C227 1.503 . S
C220 C219 1.410 1_565 S
C220 C221 1.392 . S
C220 C223 1.511 . S
C221 C217 1.376 1_565 S
C221 C220 1.392 . S
C221 H233 0.929 . S
C222 C218 1.531 . S
C222 H234 0.960 . S
C222 H235 0.962 . S
C222 H236 0.960 . S
C223 C220 1.511 . S
C223 H237 0.961 . S
C223 H238 0.961 . S
C223 H239 0.961 . S
C224 C225 1.370 . S
C224 C226 1.363 . S
C224 H240 0.931 . S
C225 C224 1.370 . S
C225 C229 1.408 1_565 S
C226 C224 1.363 . S
C226 C227 1.371 1_565 S
C226 C230 1.524 . S
C227 C219 1.503 . S
C227 C226 1.371 1_545 S
C227 C228 1.402 . S
C228 C227 1.402 . S
C228 C229 1.404 . S
C228 C231 1.539 . S
C229 C225 1.408 1_545 S
C229 C228 1.404 . S
C229 H241 0.930 . S
C230 C226 1.524 . S
C230 H242 0.956 . S
C230 H243 0.961 . S
C230 H244 0.961 . S
C231 C228 1.539 . S
C231 H245 0.958 . S
C231 H246 0.961 . S
C231 H247 0.960 . S
H232 C216 0.931 . S
H233 C221 0.929 . S
H234 C222 0.960 . S
H235 C222 0.962 . S
H236 C222 0.960 . S
H237 C223 0.961 . S
H238 C223 0.961 . S
H239 C223 0.961 . S
H240 C224 0.931 . S
H241 C229 0.930 . S
H242 C230 0.956 . S
H243 C230 0.961 . S
H244 C230 0.961 . S
H245 C231 0.958 . S
H246 C231 0.961 . S
H247 C231 0.960 . S
C248 C249 1.391 . S
C248 C250 1.394 . S
C248 H264 0.931 . S
C249 C248 1.391 . S
C249 C253 1.376 . S
C250 C248 1.394 . S
C250 C251 1.369 . S
C250 C254 1.531 . S
C251 C250 1.369 . S
C251 C252 1.410 . S
C251 C259 1.503 . S
C252 C251 1.410 . S
C252 C253 1.392 . S
C252 C255 1.511 . S
C253 C249 1.376 . S
C253 C252 1.392 . S
C253 H265 0.929 . S
C254 C250 1.531 . S
C254 H266 0.960 . S
C254 H267 0.962 . S
C254 H268 0.960 . S
C255 C252 1.511 . S
C255 H269 0.961 . S
C255 H270 0.961 . S
C255 H271 0.961 . S
C256 C257 1.370 . S
C256 C258 1.363 . S
C256 H272 0.931 . S
C257 C256 1.370 . S
C257 C261 1.408 . S
C258 C256 1.363 . S
C258 C259 1.370 . S
C258 C262 1.524 . S
C259 C251 1.503 . S
C259 C258 1.370 . S
C259 C260 1.403 . S
C260 C259 1.403 . S
C260 C261 1.404 . S
C260 C263 1.539 . S
C261 C257 1.408 . S
C261 C260 1.404 . S
C261 H273 0.930 . S
C262 C258 1.524 . S
C262 H274 0.956 . S
C262 H275 0.961 . S
C262 H276 0.961 . S
C263 C260 1.539 . S
C263 H277 0.958 . S
C263 H278 0.961 . S
C263 H279 0.960 . S
H264 C248 0.931 . S
H265 C253 0.929 . S
H266 C254 0.960 . S
H267 C254 0.962 . S
H268 C254 0.960 . S
H269 C255 0.961 . S
H270 C255 0.961 . S
H271 C255 0.961 . S
H272 C256 0.931 . S
H273 C261 0.930 . S
H274 C262 0.956 . S
H275 C262 0.961 . S
H276 C262 0.961 . S
H277 C263 0.958 . S
H278 C263 0.961 . S
H279 C263 0.960 . S
C280 C281 1.391 . S
C280 C282 1.394 . S
C280 H296 0.931 . S
C281 C280 1.391 . S
C281 C285 1.376 . S
C282 C280 1.394 . S
C282 C283 1.369 . S
C282 C286 1.531 . S
C283 C282 1.369 . S
C283 C284 1.410 . S
C283 C291 1.503 . S
C284 C283 1.410 . S
C284 C285 1.392 . S
C284 C287 1.511 . S
C285 C281 1.376 . S
C285 C284 1.392 . S
C285 H297 0.929 . S
C286 C282 1.531 . S
C286 H298 0.960 . S
C286 H299 0.962 . S
C286 H300 0.960 . S
C287 C284 1.511 . S
C287 H301 0.961 . S
C287 H302 0.961 . S
C287 H303 0.961 . S
C288 C289 1.370 . S
C288 C290 1.363 . S
C288 H304 0.931 . S
C289 C288 1.370 . S
C289 C293 1.408 . S
C290 C288 1.363 . S
C290 C291 1.370 . S
C290 C294 1.524 . S
C291 C283 1.503 . S
C291 C290 1.370 . S
C291 C292 1.403 . S
C292 C291 1.403 . S
C292 C293 1.404 . S
C292 C295 1.539 . S
C293 C289 1.408 . S
C293 C292 1.404 . S
C293 H305 0.930 . S
C294 C290 1.524 . S
C294 H306 0.956 . S
C294 H307 0.961 . S
C294 H308 0.961 . S
C295 C292 1.539 . S
C295 H309 0.958 . S
C295 H310 0.961 . S
C295 H311 0.960 . S
H296 C280 0.931 . S
H297 C285 0.929 . S
H298 C286 0.960 . S
H299 C286 0.962 . S
H300 C286 0.960 . S
H301 C287 0.961 . S
H302 C287 0.961 . S
H303 C287 0.961 . S
H304 C288 0.931 . S
H305 C293 0.930 . S
H306 C294 0.956 . S
H307 C294 0.961 . S
H308 C294 0.961 . S
H309 C295 0.958 . S
H310 C295 0.961 . S
H311 C295 0.960 . S
C312 C313 1.391 . S
C312 C314 1.394 . S
C312 H328 0.931 . S
C313 C312 1.391 . S
C313 C317 1.376 . S
C314 C312 1.394 . S
C314 C315 1.369 . S
C314 C318 1.531 . S
C315 C314 1.369 . S
C315 C316 1.410 . S
C315 C323 1.503 . S
C316 C315 1.410 . S
C316 C317 1.392 . S
C316 C319 1.511 . S
C317 C313 1.376 . S
C317 C316 1.392 . S
C317 H329 0.929 . S
C318 C314 1.531 . S
C318 H330 0.960 . S
C318 H331 0.962 . S
C318 H332 0.960 . S
C319 C316 1.511 . S
C319 H333 0.961 . S
C319 H334 0.961 . S
C319 H335 0.961 . S
C320 C321 1.370 . S
C320 C322 1.363 . S
C320 H336 0.931 1_455 S
C321 C320 1.370 . S
C321 C325 1.408 . S
C322 C320 1.363 . S
C322 C323 1.370 . S
C322 C326 1.524 . S
C323 C315 1.503 . S
C323 C322 1.370 . S
C323 C324 1.403 . S
C324 C323 1.403 . S
C324 C325 1.404 . S
C324 C327 1.539 . S
C325 C321 1.408 . S
C325 C324 1.404 . S
C325 H337 0.930 . S
C326 C322 1.524 . S
C326 H338 0.956 1_455 S
C326 H339 0.961 . S
C326 H340 0.961 1_455 S
C327 C324 1.539 . S
C327 H341 0.958 . S
C327 H342 0.961 . S
C327 H343 0.960 . S
H328 C312 0.931 . S
H329 C317 0.929 . S
H330 C318 0.960 . S
H331 C318 0.962 . S
H332 C318 0.960 . S
H333 C319 0.961 . S
H334 C319 0.961 . S
H335 C319 0.961 . S
H336 C320 0.931 1_655 S
H337 C325 0.930 . S
H338 C326 0.956 1_655 S
H339 C326 0.961 . S
H340 C326 0.961 1_655 S
H341 C327 0.958 . S
H342 C327 0.961 . S
H343 C327 0.960 . S
C344 C345 1.391 1_554 S
C344 C346 1.394 . S
C344 H360 0.931 . S
C345 C344 1.391 1_556 S
C345 C349 1.379 1_565 S
C346 C344 1.394 . S
C346 C347 1.369 1_554 S
C346 C350 1.531 . S
C347 C346 1.369 1_556 S
C347 C348 1.410 . S
C347 C355 1.504 . S
C348 C347 1.410 . S
C348 C349 1.388 1_565 S
C348 C351 1.511 1_565 S
C349 C345 1.379 1_545 S
C349 C348 1.388 1_545 S
C349 H361 0.933 . S
C350 C346 1.531 . S
C350 H362 0.960 . S
C350 H363 0.962 1_565 S
C350 H364 0.960 . S
C351 C348 1.511 1_545 S
C351 H365 0.961 . S
C351 H366 0.961 . S
C351 H367 0.961 1_545 S
C352 C353 1.370 . S
C352 C354 1.363 . S
C352 H368 0.931 . S
C353 C352 1.370 . S
C353 C357 1.408 1_545 S
C354 C352 1.363 . S
C354 C355 1.335 1_545 S
C354 C358 1.524 . S
C355 C347 1.504 . S
C355 C354 1.335 1_565 S
C355 C356 1.438 . S
C356 C355 1.438 . S
C356 C357 1.404 . S
C356 C359 1.539 . S
C357 C353 1.408 1_565 S
C357 C356 1.404 . S
C357 H369 0.930 . S
C358 C354 1.524 . S
C358 H370 0.956 . S
C358 H371 0.961 . S
C358 H372 0.961 . S
C359 C356 1.539 . S
C359 H373 0.958 . S
C359 H374 0.961 . S
C359 H375 0.960 . S
H360 C344 0.931 . S
H361 C349 0.933 . S
H362 C350 0.960 . S
H363 C350 0.962 1_545 S
H364 C350 0.960 . S
H365 C351 0.961 . S
H366 C351 0.961 . S
H367 C351 0.961 1_565 S
H368 C352 0.931 . S
H369 C357 0.930 . S
H370 C358 0.956 . S
H371 C358 0.961 . S
H372 C358 0.961 . S
H373 C359 0.958 . S
H374 C359 0.961 . S
H375 C359 0.960 . S
C376 C377 1.391 . S
C376 C378 1.394 1_554 S
C376 H392 0.931 . S
C377 C376 1.391 . S
C377 C381 1.376 . S
C378 C376 1.394 1_556 S
C378 C379 1.369 . S
C378 C382 1.531 . S
C379 C378 1.369 . S
C379 C380 1.410 1_556 S
C379 C387 1.503 . S
C380 C379 1.410 1_554 S
C380 C381 1.392 . S
C380 C383 1.511 . S
C381 C377 1.376 . S
C381 C380 1.392 . S
C381 H393 0.929 . S
C382 C378 1.531 . S
C382 H394 0.960 . S
C382 H395 0.962 . S
C382 H396 0.960 . S
C383 C380 1.511 . S
C383 H397 0.961 1_554 S
C383 H398 0.962 1_554 S
C383 H399 0.959 . S
C384 C385 1.370 . S
C384 C386 1.363 . S
C384 H400 0.931 . S
C385 C384 1.370 . S
C385 C389 1.408 . S
C386 C384 1.363 . S
C386 C387 1.370 . S
C386 C390 1.524 . S
C387 C379 1.503 . S
C387 C386 1.370 . S
C387 C388 1.403 . S
C388 C387 1.403 . S
C388 C389 1.404 . S
C388 C391 1.539 1_556 S
C389 C385 1.408 . S
C389 C388 1.404 . S
C389 H401 0.930 . S
C390 C386 1.524 . S
C390 H402 0.956 . S
C390 H403 0.961 . S
C390 H404 0.961 . S
C391 C388 1.539 1_554 S
C391 H405 0.958 . S
C391 H406 0.961 . S
C391 H407 0.960 . S
H392 C376 0.931 . S
H393 C381 0.929 . S
H394 C382 0.960 . S
H395 C382 0.962 . S
H396 C382 0.960 . S
H397 C383 0.961 1_556 S
H398 C383 0.962 1_556 S
H399 C383 0.959 . S
H400 C384 0.931 . S
H401 C389 0.930 . S
H402 C390 0.956 . S
H403 C390 0.961 . S
H404 C390 0.961 . S
H405 C391 0.958 . S
H406 C391 0.961 . S
H407 C391 0.960 . S
C408 C409 1.391 . S
C408 C410 1.394 1_554 S
C408 H424 0.931 . S
C409 C408 1.391 . S
C409 C413 1.376 . S
C410 C408 1.394 1_556 S
C410 C411 1.369 1_556 S
C410 C414 1.531 . S
C411 C410 1.369 1_554 S
C411 C412 1.410 . S
C411 C419 1.503 1_554 S
C412 C411 1.410 . S
C412 C413 1.392 . S
C412 C415 1.511 . S
C413 C409 1.376 . S
C413 C412 1.392 . S
C413 H425 0.929 . S
C414 C410 1.531 . S
C414 H426 0.960 . S
C414 H427 0.962 . S
C414 H428 0.960 . S
C415 C412 1.511 . S
C415 H429 0.961 . S
C415 H430 0.961 . S
C415 H431 0.961 . S
C416 C417 1.370 . S
C416 C418 1.363 . S
C416 H432 0.931 . S
C417 C416 1.370 . S
C417 C421 1.408 . S
C418 C416 1.363 . S
C418 C419 1.370 . S
C418 C422 1.524 . S
C419 C411 1.503 1_556 S
C419 C418 1.370 . S
C419 C420 1.403 . S
C420 C419 1.403 . S
C420 C421 1.404 . S
C420 C423 1.539 1_556 S
C421 C417 1.408 . S
C421 C420 1.404 . S
C421 H433 0.930 . S
C422 C418 1.524 . S
C422 H434 0.956 . S
C422 H435 0.961 . S
C422 H436 0.961 . S
C423 C420 1.539 1_554 S
C423 H437 0.958 . S
C423 H438 0.961 . S
C423 H439 0.960 . S
H424 C408 0.931 . S
H425 C413 0.929 . S
H426 C414 0.960 . S
H427 C414 0.962 . S
H428 C414 0.960 . S
H429 C415 0.961 . S
H430 C415 0.961 . S
H431 C415 0.961 . S
H432 C416 0.931 . S
H433 C421 0.930 . S
H434 C422 0.956 . S
H435 C422 0.961 . S
H436 C422 0.961 . S
H437 C423 0.958 . S
H438 C423 0.961 . S
H439 C423 0.960 . S
C440 C441 1.391 . S
C440 C442 1.394 . S
C440 H456 0.931 . S
C441 C440 1.391 . S
C441 C445 1.376 1_554 S
C442 C440 1.394 . S
C442 C443 1.369 1_554 S
C442 C446 1.531 . S
C443 C442 1.369 1_556 S
C443 C444 1.410 . S
C443 C451 1.503 . S
C444 C443 1.410 . S
C444 C445 1.392 . S
C444 C447 1.511 1_655 S
C445 C441 1.376 1_556 S
C445 C444 1.392 . S
C445 H457 0.929 . S
C446 C442 1.531 . S
C446 H458 0.960 1_554 S
C446 H459 0.962 . S
C446 H460 0.960 . S
C447 C444 1.511 1_455 S
C447 H461 0.961 . S
C447 H462 0.961 . S
C447 H463 0.961 1_455 S
C448 C449 1.381 . S
C448 C450 1.374 . S
C448 H464 0.910 1_655 S
C449 C448 1.381 . S
C449 C453 1.408 . S
C450 C448 1.374 . S
C450 C451 1.370 . S
C450 C454 1.524 1_656 S
C451 C443 1.503 . S
C451 C450 1.370 . S
C451 C452 1.403 . S
C452 C451 1.403 . S
C452 C453 1.404 . S
C452 C455 1.539 . S
C453 C449 1.408 . S
C453 C452 1.404 . S
C453 H465 0.930 . S
C454 C450 1.524 1_454 S
C454 H466 0.956 1_455 S
C454 H467 0.961 . S
C454 H468 0.961 . S
C455 C452 1.539 . S
C455 H469 0.958 . S
C455 H470 0.961 . S
C455 H471 0.960 . S
H456 C440 0.931 . S
H457 C445 0.929 . S
H458 C446 0.960 1_556 S
H459 C446 0.962 . S
H460 C446 0.960 . S
H461 C447 0.961 . S
H462 C447 0.961 . S
H463 C447 0.961 1_655 S
H464 C448 0.910 1_455 S
H465 C453 0.930 . S
H466 C454 0.956 1_655 S
H467 C454 0.961 . S
H468 C454 0.961 . S
H469 C455 0.958 . S
H470 C455 0.961 . S
H471 C455 0.960 . S
C472 C473 1.391 . S
C472 C474 1.394 . S
C472 H488 0.931 . S
C473 C472 1.391 . S
C473 C477 1.376 . S
C474 C472 1.394 . S
C474 C475 1.369 . S
C474 C478 1.531 . S
C475 C474 1.369 . S
C475 C476 1.410 . S
C475 C483 1.503 . S
C476 C475 1.410 . S
C476 C477 1.392 . S
C476 C479 1.511 . S
C477 C473 1.376 . S
C477 C476 1.392 . S
C477 H489 0.929 . S
C478 C474 1.531 . S
C478 H490 0.960 . S
C478 H491 0.962 . S
C478 H492 0.960 . S
C479 C476 1.511 . S
C479 H493 0.961 1_455 S
C479 H494 0.961 1_455 S
C479 H495 0.961 1_455 S
C480 C481 1.370 . S
C480 C482 1.363 . S
C480 H496 0.931 . S
C481 C480 1.370 . S
C481 C485 1.408 . S
C482 C480 1.363 . S
C482 C483 1.370 . S
C482 C486 1.524 . S
C483 C475 1.503 . S
C483 C482 1.370 . S
C483 C484 1.403 . S
C484 C483 1.403 . S
C484 C485 1.404 . S
C484 C487 1.539 . S
C485 C481 1.408 . S
C485 C484 1.404 . S
C485 H497 0.930 1_455 S
C486 C482 1.524 . S
C486 H498 0.956 . S
C486 H499 0.961 . S
C486 H500 0.961 . S
C487 C484 1.539 . S
C487 H501 0.958 . S
C487 H502 0.961 1_455 S
C487 H503 0.960 . S
H488 C472 0.931 . S
H489 C477 0.929 . S
H490 C478 0.960 . S
H491 C478 0.962 . S
H492 C478 0.960 . S
H493 C479 0.961 1_655 S
H494 C479 0.961 1_655 S
H495 C479 0.961 1_655 S
H496 C480 0.931 . S
H497 C485 0.930 1_655 S
H498 C486 0.956 . S
H499 C486 0.961 . S
H500 C486 0.961 . S
H501 C487 0.958 . S
H502 C487 0.961 1_655 S
H503 C487 0.960 . S
C504 C505 1.425 . S
C504 C506 1.394 . S
C504 H520 0.931 . S
C505 C504 1.425 . S
C505 C509 1.347 1_565 S
C506 C504 1.394 . S
C506 C507 1.369 . S
C506 C510 1.531 . S
C507 C506 1.369 . S
C507 C508 1.410 1_565 S
C507 C515 1.503 . S
C508 C507 1.410 1_545 S
C508 C509 1.392 . S
C508 C511 1.511 . S
C509 C505 1.347 1_545 S
C509 C508 1.392 . S
C509 H521 0.929 . S
C510 C506 1.531 . S
C510 H522 0.960 . S
C510 H523 0.962 . S
C510 H524 0.960 . S
C511 C508 1.511 . S
C511 H525 0.961 . S
C511 H526 0.961 . S
C511 H527 0.961 . S
C512 C513 1.370 1_545 S
C512 C514 1.363 . S
C512 H528 0.931 . S
C513 C512 1.370 1_565 S
C513 C517 1.408 . S
C514 C512 1.363 . S
C514 C515 1.370 1_545 S
C514 C518 1.524 . S
C515 C507 1.503 . S
C515 C514 1.370 1_565 S
C515 C516 1.403 . S
C516 C515 1.403 . S
C516 C517 1.404 . S
C516 C519 1.539 . S
C517 C513 1.408 . S
C517 C516 1.404 . S
C517 H529 0.930 . S
C518 C514 1.524 . S
C518 H530 0.956 . S
C518 H531 0.961 . S
C518 H532 0.961 . S
C519 C516 1.539 . S
C519 H533 0.958 . S
C519 H534 0.961 . S
C519 H535 0.960 . S
H520 C504 0.931 . S
H521 C509 0.929 . S
H522 C510 0.960 . S
H523 C510 0.962 . S
H524 C510 0.960 . S
H525 C511 0.961 . S
H526 C511 0.961 . S
H527 C511 0.961 . S
H528 C512 0.931 . S
H529 C517 0.930 . S
H530 C518 0.956 . S
H531 C518 0.961 . S
H532 C518 0.961 . S
H533 C519 0.958 . S
H534 C519 0.961 . S
H535 C519 0.960 . S
C536 C537 1.391 . S
C536 C538 1.394 . S
C536 H552 0.931 . S
C537 C536 1.391 . S
C537 C541 1.376 . S
C538 C536 1.394 . S
C538 C539 1.369 . S
C538 C542 1.531 . S
C539 C538 1.369 . S
C539 C540 1.410 . S
C539 C547 1.503 . S
C540 C539 1.410 . S
C540 C541 1.392 . S
C540 C543 1.511 . S
C541 C537 1.376 . S
C541 C540 1.392 . S
C541 H553 0.929 . S
C542 C538 1.531 . S
C542 H554 0.960 . S
C542 H555 0.962 . S
C542 H556 0.960 . S
C543 C540 1.511 . S
C543 H557 0.961 . S
C543 H558 0.961 . S
C543 H559 0.961 . S
C544 C545 1.370 . S
C544 C546 1.363 . S
C544 H560 0.931 . S
C545 C544 1.370 . S
C545 C549 1.408 . S
C546 C544 1.363 . S
C546 C547 1.370 . S
C546 C550 1.524 . S
C547 C539 1.503 . S
C547 C546 1.370 . S
C547 C548 1.403 . S
C548 C547 1.403 . S
C548 C549 1.404 . S
C548 C551 1.539 . S
C549 C545 1.408 . S
C549 C548 1.404 . S
C549 H561 0.930 . S
C550 C546 1.524 . S
C550 H562 0.956 . S
C550 H563 0.961 . S
C550 H564 0.961 . S
C551 C548 1.539 . S
C551 H565 0.958 . S
C551 H566 0.961 . S
C551 H567 0.960 . S
H552 C536 0.931 . S
H553 C541 0.929 . S
H554 C542 0.960 . S
H555 C542 0.962 . S
H556 C542 0.960 . S
H557 C543 0.961 . S
H558 C543 0.961 . S
H559 C543 0.961 . S
H560 C544 0.931 . S
H561 C549 0.930 . S
H562 C550 0.956 . S
H563 C550 0.961 . S
H564 C550 0.961 . S
H565 C551 0.958 . S
H566 C551 0.961 . S
H567 C551 0.960 . S
C568 C569 1.391 . S
C568 C570 1.394 . S
C568 H584 0.931 . S
C569 C568 1.391 . S
C569 C573 1.376 . S
C570 C568 1.394 . S
C570 C571 1.369 . S
C570 C574 1.531 . S
C571 C570 1.369 . S
C571 C572 1.410 . S
C571 C579 1.503 . S
C572 C571 1.410 . S
C572 C573 1.392 . S
C572 C575 1.511 . S
C573 C569 1.376 . S
C573 C572 1.392 . S
C573 H585 0.929 . S
C574 C570 1.531 . S
C574 H586 0.960 . S
C574 H587 0.962 . S
C574 H588 0.960 . S
C575 C572 1.511 . S
C575 H589 0.961 . S
C575 H590 0.961 . S
C575 H591 0.961 . S
C576 C577 1.370 . S
C576 C578 1.363 . S
C576 H592 0.931 . S
C577 C576 1.370 . S
C577 C581 1.408 . S
C578 C576 1.363 . S
C578 C579 1.370 . S
C578 C582 1.524 . S
C579 C571 1.503 . S
C579 C578 1.370 . S
C579 C580 1.403 . S
C580 C579 1.403 . S
C580 C581 1.404 . S
C580 C583 1.539 . S
C581 C577 1.408 . S
C581 C580 1.404 . S
C581 H593 0.930 . S
C582 C578 1.524 . S
C582 H594 0.956 . S
C582 H595 0.961 . S
C582 H596 0.961 . S
C583 C580 1.539 . S
C583 H597 0.958 . S
C583 H598 0.961 . S
C583 H599 0.960 . S
H584 C568 0.931 . S
H585 C573 0.929 . S
H586 C574 0.960 . S
H587 C574 0.962 . S
H588 C574 0.960 . S
H589 C575 0.961 . S
H590 C575 0.961 . S
H591 C575 0.961 . S
H592 C576 0.931 . S
H593 C581 0.930 . S
H594 C582 0.956 . S
H595 C582 0.961 . S
H596 C582 0.961 . S
H597 C583 0.958 . S
H598 C583 0.961 . S
H599 C583 0.960 . S
C600 C601 1.391 1_556 S
C600 C602 1.394 . S
C600 H616 0.931 . S
C601 C600 1.391 1_554 S
C601 C605 1.376 . S
C602 C600 1.394 . S
C602 C603 1.369 . S
C602 C606 1.531 . S
C603 C602 1.369 . S
C603 C604 1.410 1_556 S
C603 C611 1.503 . S
C604 C603 1.410 1_554 S
C604 C605 1.392 . S
C604 C607 1.511 . S
C605 C601 1.376 . S
C605 C604 1.392 . S
C605 H617 0.929 . S
C606 C602 1.531 . S
C606 H618 0.960 . S
C606 H619 0.962 . S
C606 H620 0.960 . S
C607 C604 1.511 . S
C607 H621 0.961 . S
C607 H622 0.961 . S
C607 H623 0.961 . S
C608 C609 1.370 . S
C608 C610 1.363 . S
C608 H624 0.931 . S
C609 C608 1.370 . S
C609 C613 1.408 1_455 S
C610 C608 1.363 . S
C610 C611 1.370 1_455 S
C610 C614 1.524 . S
C611 C603 1.503 . S
C611 C610 1.370 1_655 S
C611 C612 1.403 . S
C612 C611 1.403 . S
C612 C613 1.404 . S
C612 C615 1.539 . S
C613 C609 1.408 1_655 S
C613 C612 1.404 . S
C613 H625 0.930 . S
C614 C610 1.524 . S
C614 H626 0.956 . S
C614 H627 0.961 . S
C614 H628 0.961 . S
C615 C612 1.539 . S
C615 H629 0.958 . S
C615 H630 0.954 1_556 S
C615 H631 0.960 1_556 S
H616 C600 0.931 . S
H617 C605 0.929 . S
H618 C606 0.960 . S
H619 C606 0.962 . S
H620 C606 0.960 . S
H621 C607 0.961 . S
H622 C607 0.961 . S
H623 C607 0.961 . S
H624 C608 0.931 . S
H625 C613 0.930 . S
H626 C614 0.956 . S
H627 C614 0.961 . S
H628 C614 0.961 . S
H629 C615 0.958 . S
H630 C615 0.954 1_554 S
H631 C615 0.960 1_554 S
C632 C633 1.391 . S
C632 C634 1.394 . S
C632 H648 0.931 . S
C633 C632 1.391 . S
C633 C637 1.376 1_566 S
C634 C632 1.394 . S
C634 C635 1.369 . S
C634 C638 1.531 . S
C635 C634 1.369 . S
C635 C636 1.410 1_566 S
C635 C643 1.504 . S
C636 C635 1.410 1_544 S
C636 C637 1.392 . S
C636 C639 1.511 . S
C637 C633 1.376 1_544 S
C637 C636 1.392 . S
C637 H649 0.929 . S
C638 C634 1.531 . S
C638 H650 0.960 . S
C638 H651 0.962 . S
C638 H652 0.960 . S
C639 C636 1.511 . S
C639 H653 0.961 . S
C639 H654 0.961 . S
C639 H655 0.957 . S
C640 C641 1.370 . S
C640 C642 1.363 . S
C640 H656 0.931 . S
C641 C640 1.370 . S
C641 C645 1.408 1_545 S
C642 C640 1.363 . S
C642 C643 1.367 1_545 S
C642 C646 1.524 . S
C643 C635 1.504 . S
C643 C642 1.367 1_565 S
C643 C644 1.406 . S
C644 C643 1.406 . S
C644 C645 1.404 . S
C644 C647 1.539 . S
C645 C641 1.408 1_565 S
C645 C644 1.404 . S
C645 H657 0.930 . S
C646 C642 1.524 . S
C646 H658 0.956 . S
C646 H659 0.961 . S
C646 H660 0.961 . S
C647 C644 1.539 . S
C647 H661 0.958 . S
C647 H662 0.961 1_556 S
C647 H663 0.960 1_556 S
H648 C632 0.931 . S
H649 C637 0.929 . S
H650 C638 0.960 . S
H651 C638 0.962 . S
H652 C638 0.960 . S
H653 C639 0.961 . S
H654 C639 0.961 . S
H655 C639 0.957 . S
H656 C640 0.931 . S
H657 C645 0.930 . S
H658 C646 0.956 . S
H659 C646 0.961 . S
H660 C646 0.961 . S
H661 C647 0.958 . S
H662 C647 0.961 1_554 S
H663 C647 0.960 1_554 S
C664 C665 1.391 . S
C664 C666 1.394 . S
C664 H680 0.931 . S
C665 C664 1.391 . S
C665 C669 1.376 . S
C666 C664 1.394 . S
C666 C667 1.369 1_554 S
C666 C670 1.531 . S
C667 C666 1.369 1_556 S
C667 C668 1.410 . S
C667 C675 1.503 . S
C668 C667 1.410 . S
C668 C669 1.392 1_556 S
C668 C671 1.511 . S
C669 C665 1.376 . S
C669 C668 1.392 1_554 S
C669 H681 0.929 1_554 S
C670 C666 1.531 . S
C670 H682 0.960 . S
C670 H683 0.962 . S
C670 H684 0.960 . S
C671 C668 1.511 . S
C671 H685 0.961 . S
C671 H686 0.961 . S
C671 H687 0.961 . S
C672 C673 1.370 . S
C672 C674 1.363 . S
C672 H688 0.931 . S
C673 C672 1.370 . S
C673 C677 1.408 . S
C674 C672 1.363 . S
C674 C675 1.370 . S
C674 C678 1.524 . S
C675 C667 1.503 . S
C675 C674 1.370 . S
C675 C676 1.403 . S
C676 C675 1.403 . S
C676 C677 1.404 . S
C676 C679 1.539 1_556 S
C677 C673 1.408 . S
C677 C676 1.404 . S
C677 H689 0.930 . S
C678 C674 1.524 . S
C678 H690 0.956 . S
C678 H691 0.961 . S
C678 H692 0.961 . S
C679 C676 1.539 1_554 S
C679 H693 0.958 . S
C679 H694 0.961 . S
C679 H695 0.960 . S
H680 C664 0.931 . S
H681 C669 0.929 1_556 S
H682 C670 0.960 . S
H683 C670 0.962 . S
H684 C670 0.960 . S
H685 C671 0.961 . S
H686 C671 0.961 . S
H687 C671 0.961 . S
H688 C672 0.931 . S
H689 C677 0.930 . S
H690 C678 0.956 . S
H691 C678 0.961 . S
H692 C678 0.961 . S
H693 C679 0.958 . S
H694 C679 0.961 . S
H695 C679 0.960 . S
C696 C697 1.391 . S
C696 C698 1.394 . S
C696 H712 0.931 . S
C697 C696 1.391 . S
C697 C701 1.376 . S
C698 C696 1.394 . S
C698 C699 1.369 . S
C698 C702 1.531 . S
C699 C698 1.369 . S
C699 C700 1.410 1_554 S
C699 C707 1.503 1_554 S
C700 C699 1.410 1_556 S
C700 C701 1.392 1_556 S
C700 C703 1.511 . S
C701 C697 1.376 . S
C701 C700 1.392 1_554 S
C701 H713 0.929 1_554 S
C702 C698 1.531 . S
C702 H714 0.960 . S
C702 H715 0.962 . S
C702 H716 0.960 . S
C703 C700 1.511 . S
C703 H717 0.961 . S
C703 H718 0.961 . S
C703 H719 0.961 . S
C704 C705 1.370 . S
C704 C706 1.363 . S
C704 H720 0.931 . S
C705 C704 1.370 . S
C705 C709 1.408 . S
C706 C704 1.363 . S
C706 C707 1.370 . S
C706 C710 1.524 . S
C707 C699 1.503 1_556 S
C707 C706 1.370 . S
C707 C708 1.403 . S
C708 C707 1.403 . S
C708 C709 1.404 . S
C708 C711 1.539 . S
C709 C705 1.408 . S
C709 C708 1.404 . S
C709 H721 0.930 . S
C710 C706 1.524 . S
C710 H722 0.956 1_556 S
C710 H723 0.961 . S
C710 H724 0.961 . S
C711 C708 1.539 . S
C711 H725 0.958 1_556 S
C711 H726 0.961 . S
C711 H727 0.960 . S
H712 C696 0.931 . S
H713 C701 0.929 1_556 S
H714 C702 0.960 . S
H715 C702 0.962 . S
H716 C702 0.960 . S
H717 C703 0.961 . S
H718 C703 0.961 . S
H719 C703 0.961 . S
H720 C704 0.931 . S
H721 C709 0.930 . S
H722 C710 0.956 1_554 S
H723 C710 0.961 . S
H724 C710 0.961 . S
H725 C711 0.958 1_554 S
H726 C711 0.961 . S
H727 C711 0.960 . S
C728 C729 1.391 . S
C728 C730 1.394 . S
C728 H744 0.931 . S
C729 C728 1.391 . S
C729 C733 1.376 . S
C730 C728 1.394 . S
C730 C731 1.369 . S
C730 C734 1.531 . S
C731 C730 1.369 . S
C731 C732 1.410 . S
C731 C739 1.503 . S
C732 C731 1.410 . S
C732 C733 1.392 . S
C732 C735 1.511 . S
C733 C729 1.376 . S
C733 C732 1.392 . S
C733 H745 0.929 . S
C734 C730 1.531 . S
C734 H746 0.960 . S
C734 H747 0.962 . S
C734 H748 0.960 . S
C735 C732 1.511 . S
C735 H749 0.961 . S
C735 H750 0.961 . S
C735 H751 0.961 . S
C736 C737 1.370 . S
C736 C738 1.363 . S
C736 H752 0.931 . S
C737 C736 1.370 . S
C737 C741 1.408 . S
C738 C736 1.363 . S
C738 C739 1.370 . S
C738 C742 1.524 . S
C739 C731 1.503 . S
C739 C738 1.370 . S
C739 C740 1.403 . S
C740 C739 1.403 . S
C740 C741 1.404 . S
C740 C743 1.539 . S
C741 C737 1.408 . S
C741 C740 1.404 . S
C741 H753 0.930 . S
C742 C738 1.524 . S
C742 H754 0.956 . S
C742 H755 0.961 . S
C742 H756 0.961 1_455 S
C743 C740 1.539 . S
C743 H757 0.958 . S
C743 H758 0.961 . S
C743 H759 0.960 . S
H744 C728 0.931 . S
H745 C733 0.929 . S
H746 C734 0.960 . S
H747 C734 0.962 . S
H748 C734 0.960 . S
H749 C735 0.961 . S
H750 C735 0.961 . S
H751 C735 0.961 . S
H752 C736 0.931 . S
H753 C741 0.930 . S
H754 C742 0.956 . S
H755 C742 0.961 . S
H756 C742 0.961 1_655 S
H757 C743 0.958 . S
H758 C743 0.961 . S
H759 C743 0.960 . S
C760 C761 1.412 . S
C760 C762 1.394 . S
C760 H776 0.931 . S
C761 C760 1.412 . S
C761 C765 1.363 1_565 S
C762 C760 1.394 . S
C762 C763 1.384 . S
C762 C766 1.531 . S
C763 C762 1.384 . S
C763 C764 1.391 1_565 S
C763 C771 1.504 1_565 S
C764 C763 1.391 1_545 S
C764 C765 1.392 . S
C764 C767 1.511 . S
C765 C761 1.363 1_545 S
C765 C764 1.392 . S
C765 H777 0.929 . S
C766 C762 1.531 . S
C766 H778 0.960 . S
C766 H779 0.962 . S
C766 H780 0.960 . S
C767 C764 1.511 . S
C767 H781 0.961 . S
C767 H782 0.961 . S
C767 H783 0.961 . S
C768 C769 1.370 . S
C768 C770 1.363 . S
C768 H784 0.931 . S
C769 C768 1.370 . S
C769 C773 1.408 1_545 S
C770 C768 1.363 . S
C770 C771 1.370 . S
C770 C774 1.524 . S
C771 C763 1.504 1_545 S
C771 C770 1.370 . S
C771 C772 1.403 1_545 S
C772 C771 1.403 1_565 S
C772 C773 1.404 . S
C772 C775 1.539 . S
C773 C769 1.408 1_565 S
C773 C772 1.404 . S
C773 H785 0.930 . S
C774 C770 1.524 . S
C774 H786 0.956 . S
C774 H787 0.961 . S
C774 H788 0.961 . S
C775 C772 1.539 . S
C775 H789 0.958 . S
C775 H790 0.961 . S
C775 H791 0.960 . S
H776 C760 0.931 . S
H777 C765 0.929 . S
H778 C766 0.960 . S
H779 C766 0.962 . S
H780 C766 0.960 . S
H781 C767 0.961 . S
H782 C767 0.961 . S
H783 C767 0.961 . S
H784 C768 0.931 . S
H785 C773 0.930 . S
H786 C774 0.956 . S
H787 C774 0.961 . S
H788 C774 0.961 . S
H789 C775 0.958 . S
H790 C775 0.961 . S
H791 C775 0.960 . S
C792 C793 1.391 . S
C792 C794 1.394 . S
C792 H808 0.931 . S
C793 C792 1.391 . S
C793 C797 1.376 . S
C794 C792 1.394 . S
C794 C795 1.369 . S
C794 C798 1.531 . S
C795 C794 1.369 . S
C795 C796 1.410 . S
C795 C803 1.503 . S
C796 C795 1.410 . S
C796 C797 1.392 . S
C796 C799 1.511 . S
C797 C793 1.376 . S
C797 C796 1.392 . S
C797 H809 0.929 . S
C798 C794 1.531 . S
C798 H810 0.960 . S
C798 H811 0.962 . S
C798 H812 0.960 . S
C799 C796 1.511 . S
C799 H813 0.961 . S
C799 H814 0.961 . S
C799 H815 0.961 . S
C800 C801 1.370 . S
C800 C802 1.363 1_556 S
C800 H816 0.931 . S
C801 C800 1.370 . S
C801 C805 1.408 1_556 S
C802 C800 1.363 1_554 S
C802 C803 1.370 . S
C802 C806 1.524 . S
C803 C795 1.503 . S
C803 C802 1.370 . S
C803 C804 1.403 . S
C804 C803 1.403 . S
C804 C805 1.404 . S
C804 C807 1.539 . S
C805 C801 1.408 1_554 S
C805 C804 1.404 . S
C805 H817 0.930 . S
C806 C802 1.524 . S
C806 H818 0.956 . S
C806 H819 0.961 . S
C806 H820 0.961 1_554 S
C807 C804 1.539 . S
C807 H821 0.958 . S
C807 H822 0.961 . S
C807 H823 0.960 . S
H808 C792 0.931 . S
H809 C797 0.929 . S
H810 C798 0.960 . S
H811 C798 0.962 . S
H812 C798 0.960 . S
H813 C799 0.961 . S
H814 C799 0.961 . S
H815 C799 0.961 . S
H816 C800 0.931 . S
H817 C805 0.930 . S
H818 C806 0.956 . S
H819 C806 0.961 . S
H820 C806 0.961 1_556 S
H821 C807 0.958 . S
H822 C807 0.961 . S
H823 C807 0.960 . S
C824 C825 1.391 . S
C824 C826 1.394 . S
C824 H840 0.931 . S
C825 C824 1.391 . S
C825 C829 1.376 . S
C826 C824 1.394 . S
C826 C827 1.369 . S
C826 C830 1.531 . S
C827 C826 1.369 . S
C827 C828 1.410 . S
C827 C835 1.503 . S
C828 C827 1.410 . S
C828 C829 1.392 . S
C828 C831 1.511 . S
C829 C825 1.376 . S
C829 C828 1.392 . S
C829 H841 0.929 . S
C830 C826 1.531 . S
C830 H842 0.960 1_554 S
C830 H843 0.962 1_554 S
C830 H844 0.960 . S
C831 C828 1.511 . S
C831 H845 0.961 . S
C831 H846 0.961 . S
C831 H847 0.961 . S
C832 C833 1.370 . S
C832 C834 1.363 1_556 S
C832 H848 0.931 . S
C833 C832 1.370 . S
C833 C837 1.408 . S
C834 C832 1.363 1_554 S
C834 C835 1.370 . S
C834 C838 1.524 . S
C835 C827 1.503 . S
C835 C834 1.370 . S
C835 C836 1.403 . S
C836 C835 1.403 . S
C836 C837 1.404 1_554 S
C836 C839 1.539 . S
C837 C833 1.408 . S
C837 C836 1.404 1_556 S
C837 H849 0.930 . S
C838 C834 1.524 . S
C838 H850 0.956 . S
C838 H851 0.961 . S
C838 H852 0.961 . S
C839 C836 1.539 . S
C839 H853 0.958 . S
C839 H854 0.961 . S
C839 H855 0.960 . S
H840 C824 0.931 . S
H841 C829 0.929 . S
H842 C830 0.960 1_556 S
H843 C830 0.962 1_556 S
H844 C830 0.960 . S
H845 C831 0.961 . S
H846 C831 0.961 . S
H847 C831 0.961 . S
H848 C832 0.931 . S
H849 C837 0.930 . S
H850 C838 0.956 . S
H851 C838 0.961 . S
H852 C838 0.961 . S
H853 C839 0.958 . S
H854 C839 0.961 . S
H855 C839 0.960 . S
C856 C857 1.391 . S
C856 C858 1.394 . S
C856 H872 0.931 . S
C857 C856 1.391 . S
C857 C861 1.376 . S
C858 C856 1.394 . S
C858 C859 1.369 . S
C858 C862 1.531 1_655 S
C859 C858 1.369 . S
C859 C860 1.410 . S
C859 C867 1.503 . S
C860 C859 1.410 . S
C860 C861 1.392 . S
C860 C863 1.511 . S
C861 C857 1.376 . S
C861 C860 1.392 . S
C861 H873 0.929 . S
C862 C858 1.531 1_455 S
C862 H874 0.960 . S
C862 H875 0.962 . S
C862 H876 0.960 . S
C863 C860 1.511 . S
C863 H877 0.961 . S
C863 H878 0.961 . S
C863 H879 0.961 . S
C864 C865 1.370 . S
C864 C866 1.363 . S
C864 H880 0.931 . S
C865 C864 1.370 . S
C865 C869 1.408 . S
C866 C864 1.363 . S
C866 C867 1.370 . S
C866 C870 1.524 . S
C867 C859 1.503 . S
C867 C866 1.370 . S
C867 C868 1.403 . S
C868 C867 1.403 . S
C868 C869 1.404 . S
C868 C871 1.539 . S
C869 C865 1.408 . S
C869 C868 1.404 . S
C869 H881 0.930 . S
C870 C866 1.524 . S
C870 H882 0.956 . S
C870 H883 0.961 . S
C870 H884 0.961 . S
C871 C868 1.539 . S
C871 H885 0.958 . S
C871 H886 0.961 . S
C871 H887 0.960 . S
H872 C856 0.931 . S
H873 C861 0.929 . S
H874 C862 0.960 . S
H875 C862 0.962 . S
H876 C862 0.960 . S
H877 C863 0.961 . S
H878 C863 0.961 . S
H879 C863 0.961 . S
H880 C864 0.931 . S
H881 C869 0.930 . S
H882 C870 0.956 . S
H883 C870 0.961 . S
H884 C870 0.961 . S
H885 C871 0.958 . S
H886 C871 0.961 . S
H887 C871 0.960 . S
C888 C889 1.393 . S
C888 C890 1.394 . S
C888 H904 0.929 1_565 S
C889 C888 1.393 . S
C889 C893 1.376 . S
C890 C888 1.394 . S
C890 C891 1.369 . S
C890 C894 1.531 . S
C891 C890 1.369 . S
C891 C892 1.410 . S
C891 C899 1.503 . S
C892 C891 1.410 . S
C892 C893 1.392 . S
C892 C895 1.511 . S
C893 C889 1.376 . S
C893 C892 1.392 . S
C893 H905 0.929 . S
C894 C890 1.531 . S
C894 H906 0.960 . S
C894 H907 0.962 1_565 S
C894 H908 0.960 . S
C895 C892 1.511 . S
C895 H909 0.961 . S
C895 H910 0.961 . S
C895 H911 0.961 . S
C896 C897 1.370 1_545 S
C896 C898 1.363 . S
C896 H912 0.931 . S
C897 C896 1.370 1_565 S
C897 C901 1.408 . S
C898 C896 1.363 . S
C898 C899 1.370 1_545 S
C898 C902 1.524 . S
C899 C891 1.503 . S
C899 C898 1.370 1_565 S
C899 C900 1.403 . S
C900 C899 1.403 . S
C900 C901 1.404 . S
C900 C903 1.539 . S
C901 C897 1.408 . S
C901 C900 1.404 . S
C901 H913 0.930 . S
C902 C898 1.524 . S
C902 H914 0.956 . S
C902 H915 0.961 . S
C902 H916 0.961 . S
C903 C900 1.539 . S
C903 H917 0.958 . S
C903 H918 0.961 . S
C903 H919 0.960 . S
H904 C888 0.929 1_545 S
H905 C893 0.929 . S
H906 C894 0.960 . S
H907 C894 0.962 1_545 S
H908 C894 0.960 . S
H909 C895 0.961 . S
H910 C895 0.961 . S
H911 C895 0.961 . S
H912 C896 0.931 . S
H913 C901 0.930 . S
H914 C902 0.956 . S
H915 C902 0.961 . S
H916 C902 0.961 . S
H917 C903 0.958 . S
H918 C903 0.961 . S
H919 C903 0.960 . S
C920 C921 1.391 . S
C920 C922 1.394 . S
C920 H936 0.931 . S
C921 C920 1.391 . S
C921 C925 1.376 . S
C922 C920 1.394 . S
C922 C923 1.369 . S
C922 C926 1.531 . S
C923 C922 1.369 . S
C923 C924 1.410 . S
C923 C931 1.503 . S
C924 C923 1.410 . S
C924 C925 1.392 . S
C924 C927 1.511 . S
C925 C921 1.376 . S
C925 C924 1.392 . S
C925 H937 0.929 . S
C926 C922 1.531 . S
C926 H938 0.960 . S
C926 H939 0.962 . S
C926 H940 0.960 . S
C927 C924 1.511 . S
C927 H941 0.961 . S
C927 H942 0.961 . S
C927 H943 0.961 . S
C928 C929 1.370 . S
C928 C930 1.363 . S
C928 H944 0.931 . S
C929 C928 1.370 . S
C929 C933 1.408 . S
C930 C928 1.363 . S
C930 C931 1.370 . S
C930 C934 1.524 . S
C931 C923 1.503 . S
C931 C930 1.370 . S
C931 C932 1.403 . S
C932 C931 1.403 . S
C932 C933 1.404 . S
C932 C935 1.539 . S
C933 C929 1.408 . S
C933 C932 1.404 . S
C933 H945 0.930 . S
C934 C930 1.524 . S
C934 H946 0.956 . S
C934 H947 0.961 . S
C934 H948 0.961 . S
C935 C932 1.539 . S
C935 H949 0.958 . S
C935 H950 0.961 . S
C935 H951 0.960 . S
H936 C920 0.931 . S
H937 C925 0.929 . S
H938 C926 0.960 . S
H939 C926 0.962 . S
H940 C926 0.960 . S
H941 C927 0.961 . S
H942 C927 0.961 . S
H943 C927 0.961 . S
H944 C928 0.931 . S
H945 C933 0.930 . S
H946 C934 0.956 . S
H947 C934 0.961 . S
H948 C934 0.961 . S
H949 C935 0.958 . S
H950 C935 0.961 . S
H951 C935 0.960 . S
C952 C953 1.391 . S
C952 C954 1.394 . S
C952 H968 0.931 . S
C953 C952 1.391 . S
C953 C957 1.376 . S
C954 C952 1.394 . S
C954 C955 1.369 . S
C954 C958 1.531 . S
C955 C954 1.369 . S
C955 C956 1.410 . S
C955 C963 1.503 . S
C956 C955 1.410 . S
C956 C957 1.392 . S
C956 C959 1.511 . S
C957 C953 1.376 . S
C957 C956 1.392 . S
C957 H969 0.929 . S
C958 C954 1.531 . S
C958 H970 0.960 . S
C958 H971 0.962 . S
C958 H972 0.960 . S
C959 C956 1.511 . S
C959 H973 0.961 . S
C959 H974 0.961 . S
C959 H975 0.961 . S
C960 C961 1.370 . S
C960 C962 1.363 . S
C960 H976 0.931 . S
C961 C960 1.370 . S
C961 C965 1.408 . S
C962 C960 1.363 . S
C962 C963 1.370 . S
C962 C966 1.524 . S
C963 C955 1.503 . S
C963 C962 1.370 . S
C963 C964 1.403 . S
C964 C963 1.403 . S
C964 C965 1.404 . S
C964 C967 1.539 . S
C965 C961 1.408 . S
C965 C964 1.404 . S
C965 H977 0.930 . S
C966 C962 1.524 . S
C966 H978 0.956 . S
C966 H979 0.961 . S
C966 H980 0.961 . S
C967 C964 1.539 . S
C967 H981 0.958 . S
C967 H982 0.961 . S
C967 H983 0.960 . S
H968 C952 0.931 . S
H969 C957 0.929 . S
H970 C958 0.960 . S
H971 C958 0.962 . S
H972 C958 0.960 . S
H973 C959 0.961 . S
H974 C959 0.961 . S
H975 C959 0.961 . S
H976 C960 0.931 . S
H977 C965 0.930 . S
H978 C966 0.956 . S
H979 C966 0.961 . S
H980 C966 0.961 . S
H981 C967 0.958 . S
H982 C967 0.961 . S
H983 C967 0.960 . S
C217 C76 1.667 1_545 S
C225 C106 1.676 . S
C257 C136 1.807 . S
C249 C88 1.754 . S
C289 N170 1.375 . S
C281 C52 1.394 . S
C321 N200 1.415 . S
C313 C64 1.392 . S
C353 C97 1.676 . S
C345 C28 1.655 1_556 S
C377 C40 1.794 . S
C385 C127 1.812 . S
C409 C4 1.388 . S
C417 N162 1.357 . S
C441 C16 1.385 . S
C449 N192 1.418 1_655 S
C481 C112 0.424 . S
C473 C69 0.564 . S
C513 C142 0.768 . S
C505 C81 0.694 1_565 S
C545 C183 1.037 . S
C537 C93 0.997 . S
C569 C57 0.546 . S
C577 C213 0.591 . S
C601 C21 0.552 . S
C609 C123 0.402 . S
C641 C153 0.754 . S
C633 C33 0.730 1_566 S
C673 C172 1.049 . S
C665 C45 0.972 . S
C697 C9 0.570 . S
C705 C202 0.586 . S
C729 C66 1.473 . S
C737 N102 1.481 . S
C761 C78 1.440 1_565 S
C769 N132 1.422 . S
C801 C157 1.660 . S
C793 C90 1.610 . S
C833 C187 1.597 . S
C825 C54 1.555 . S
C857 C18 1.430 . S
C865 N110 1.481 . S
C897 N140 1.441 . S
C889 C30 1.427 1_565 S
C929 C166 1.659 . S
C921 C42 1.615 . S
C953 C6 1.575 . S
C961 C196 1.596 . S
