# Generated by pormake.
# Topology rtl, (3,6)-cn, num edge types: 1
# Building blocks:
#     Node 0, Type 0, BuildingBlock: KAKCAD_clean_linker_0, # of connection points: 3
#     Node 1, Type 0, BuildingBlock: KAKCAD_clean_linker_0, # of connection points: 3
#     Node 2, Type 0, BuildingBlock: KAKCAD_clean_linker_0, # of connection points: 3
#     Node 3, Type 0, BuildingBlock: KAKCAD_clean_linker_0, # of connection points: 3
#     Node 4, Type 1, BuildingBlock: KUMBUR_clean_sbu_1, # of connection points: 6
#     Node 5, Type 1, BuildingBlock: KUMBUR_clean_sbu_1, # of connection points: 6
#     Edge 6, Type (0, 1), BuildingBlock: OJICUG_clean_linker_0, # of connection points: 2
#     Edge 7, Type (0, 1), BuildingBlock: OJICUG_clean_linker_0, # of connection points: 2
#     Edge 8, Type (0, 1), BuildingBlock: OJICUG_clean_linker_0, # of connection points: 2
#     Edge 9, Type (0, 1), BuildingBlock: OJICUG_clean_linker_0, # of connection points: 2
#     Edge 10, Type (0, 1), BuildingBlock: OJICUG_clean_linker_0, # of connection points: 2
#     Edge 11, Type (0, 1), BuildingBlock: OJICUG_clean_linker_0, # of connection points: 2
#     Edge 12, Type (0, 1), BuildingBlock: OJICUG_clean_linker_0, # of connection points: 2
#     Edge 13, Type (0, 1), BuildingBlock: OJICUG_clean_linker_0, # of connection points: 2
#     Edge 14, Type (0, 1), BuildingBlock: OJICUG_clean_linker_0, # of connection points: 2
#     Edge 15, Type (0, 1), BuildingBlock: OJICUG_clean_linker_0, # of connection points: 2
#     Edge 16, Type (0, 1), BuildingBlock: OJICUG_clean_linker_0, # of connection points: 2
#     Edge 17, Type (0, 1), BuildingBlock: OJICUG_clean_linker_0, # of connection points: 2
# Relax obj value: 0.018
# Max RMSD: 0.113
# Mean RMSD: 0.068
data_MOF--net-rtl--node1-KUMBUR_clean_sbu_1--node2-KAKCAD_clean_linker_0--edge1-OJICUG_clean_linker_0
_symmetry_space_group_name_H-M    P1
_symmetry_Int_Tables_number       1
_symmetry_cell_setting            triclinic
loop_
_symmetry_equiv_pos_as_xyz
'x, y, z'
_cell_length_a     31.153983
_cell_length_b     31.888397
_cell_length_c     28.153782
_cell_angle_alpha  77.356919
_cell_angle_beta   99.270035
_cell_angle_gamma 91.380803
loop_
_atom_site_label
_atom_site_type_symbol
_atom_site_fract_x
_atom_site_fract_y
_atom_site_fract_z
_atom_type_partial_charge
C0 C 0.12222 0.86309 0.84557 0.0
C1 C 0.11086 0.90694 0.83319 0.0
C2 C 0.14291 0.8442 0.8929 0.0
C3 C 0.15297 0.86866 0.92907 0.0
C4 C 0.14054 0.91224 0.91729 0.0
C5 C 0.11981 0.93126 0.86971 0.0
C6 C 0.17851 0.84886 0.97781 0.0
C7 C 0.21449 0.82256 0.97977 0.0
C8 C 0.23814 0.80131 0.02495 0.0
C9 C 0.22626 0.80801 0.06881 0.0
C10 C 0.19058 0.83467 0.068 0.0
C11 C 0.16687 0.85509 0.02205 0.0
C12 C 0.17797 0.84022 0.1153 0.0
C13 C 0.18262 0.80581 0.15685 0.0
C14 C 0.16225 0.87997 0.11989 0.0
C15 C 0.15232 0.88528 0.16506 0.0
C16 C 0.15858 0.8512 0.20668 0.0
C17 C 0.27405 0.77088 0.02608 0.0
C18 C 0.27048 0.74456 0.99148 0.0
C19 C 0.31162 0.76709 0.06207 0.0
C20 C 0.34435 0.73727 0.06384 0.0
C21 C 0.34053 0.71121 0.02917 0.0
C22 C 0.30351 0.71535 0.99277 0.0
C23 C 0.17352 0.81139 0.20204 0.0
H24 H 0.11622 0.84352 0.81827 0.0
H25 H 0.15159 0.81039 0.90103 0.0
H26 H 0.148 0.9319 0.94437 0.0
H27 H 0.11099 0.96503 0.86143 0.0
H28 H 0.22429 0.81888 0.94567 0.0
H29 H 0.13852 0.87462 0.02061 0.0
H30 H 0.24464 0.79197 0.10379 0.0
H31 H 0.19327 0.77433 0.15463 0.0
H32 H 0.1586 0.90733 0.08898 0.0
H33 H 0.14089 0.91635 0.16782 0.0
H34 H 0.24168 0.74573 0.96393 0.0
H35 H 0.31589 0.78723 0.0888 0.0
H36 H 0.17788 0.78439 0.23342 0.0
H37 H 0.29954 0.69507 0.96614 0.0
H38 H 0.3728 0.73471 0.09212 0.0
C39 C 0.6235 0.66723 0.7876 0.0
C40 C 0.62398 0.62262 0.80722 0.0
C41 C 0.6416 0.68408 0.74495 0.0
C42 C 0.65996 0.65662 0.72059 0.0
C43 C 0.66096 0.61213 0.74066 0.0
C44 C 0.64338 0.59538 0.7835 0.0
C45 C 0.67648 0.67373 0.67332 0.0
C46 C 0.70442 0.70936 0.66796 0.0
C47 C 0.72147 0.72375 0.62382 0.0
C48 C 0.70884 0.70321 0.58441 0.0
C49 C 0.68078 0.66799 0.58891 0.0
C50 C 0.66495 0.65338 0.63355 0.0
C51 C 0.66955 0.64546 0.54758 0.0
C52 C 0.65777 0.66874 0.49878 0.0
C53 C 0.67191 0.60043 0.55656 0.0
C54 C 0.66335 0.57916 0.51764 0.0
C55 C 0.6517 0.60232 0.46864 0.0
C56 C 0.75407 0.75878 0.61877 0.0
C57 C 0.74792 0.79768 0.63271 0.0
C58 C 0.79115 0.75385 0.59783 0.0
C59 C 0.82051 0.78737 0.58932 0.0
C60 C 0.81365 0.82699 0.60129 0.0
C61 C 0.77737 0.8315 0.62395 0.0
C62 C 0.64876 0.64743 0.45981 0.0
H63 H 0.60911 0.6891 0.80525 0.0
H64 H 0.6402 0.71846 0.73028 0.0
H65 H 0.67523 0.59014 0.72304 0.0
H66 H 0.64401 0.56088 0.79735 0.0
H67 H 0.71435 0.72461 0.69875 0.0
H68 H 0.64303 0.62634 0.6371 0.0
H69 H 0.72166 0.71418 0.55027 0.0
H70 H 0.65526 0.70348 0.49078 0.0
H71 H 0.68157 0.58163 0.59365 0.0
H72 H 0.66693 0.54452 0.526 0.0
H73 H 0.71961 0.80246 0.64885 0.0
H74 H 0.79742 0.72394 0.58774 0.0
H75 H 0.63926 0.66638 0.42279 0.0
H76 H 0.771 0.86158 0.63356 0.0
H77 H 0.84869 0.78218 0.57317 0.0
C78 C 0.82352 0.09542 0.25619 0.0
C79 C 0.86846 0.10136 0.26834 0.0
C80 C 0.80212 0.11134 0.20812 0.0
C81 C 0.82563 0.13253 0.17148 0.0
C82 C 0.87055 0.13825 0.18373 0.0
C83 C 0.89171 0.12306 0.23177 0.0
C84 C 0.80387 0.14906 0.12035 0.0
C85 C 0.76839 0.17747 0.11041 0.0
C86 C 0.75118 0.19734 0.06159 0.0
C87 C 0.76934 0.18763 0.02251 0.0
C88 C 0.80456 0.15857 0.0321 0.0
C89 C 0.8212 0.13922 0.08119 0.0
C90 C 0.82559 0.14933 0.99166 0.0
C91 C 0.80075 0.14278 0.94758 0.0
C92 C 0.87114 0.14545 0.99792 0.0
C93 C 0.89128 0.13354 0.96207 0.0
C94 C 0.86647 0.12575 0.91873 0.0
C95 C 0.71714 0.23116 0.05233 0.0
C96 C 0.68152 0.22499 0.07796 0.0
C97 C 0.72218 0.27129 0.02121 0.0
C98 C 0.69333 0.30513 0.01756 0.0
C99 C 0.65866 0.29942 0.04462 0.0
C100 C 0.65241 0.25874 0.07395 0.0
C101 C 0.82107 0.13123 0.91131 0.0
H102 H 0.80497 0.07891 0.28397 0.0
H103 H 0.76744 0.10661 0.19937 0.0
H104 H 0.88926 0.15485 0.15614 0.0
H105 H 0.92643 0.12776 0.24023 0.0
H106 H 0.75591 0.18608 0.14085 0.0
H107 H 0.84815 0.11653 0.08925 0.0
H108 H 0.75677 0.20349 0.98485 0.0
H109 H 0.76561 0.14536 0.94174 0.0
H110 H 0.89139 0.15146 0.03076 0.0
H111 H 0.92641 0.13054 0.9682 0.0
H112 H 0.67677 0.1943 0.10203 0.0
H113 H 0.74953 0.2771 1.00136 0.0
H114 H 0.80123 0.12543 0.87812 0.0
H115 H 0.62608 0.25349 0.09536 0.0
H116 H 0.69861 0.33606 0.99426 0.0
C117 C 0.36039 0.36261 0.27623 0.0
C118 C 0.40273 0.37909 0.28114 0.0
C119 C 0.34133 0.34556 0.31818 0.0
C120 C 0.36455 0.34424 0.36578 0.0
C121 C 0.40787 0.35858 0.37019 0.0
C122 C 0.42647 0.37624 0.32846 0.0
C123 C 0.34351 0.33057 0.41078 0.0
C124 C 0.31355 0.29655 0.41558 0.0
C125 C 0.29528 0.28363 0.45914 0.0
C126 C 0.30678 0.30542 0.49764 0.0
C127 C 0.33605 0.33962 0.49329 0.0
C128 C 0.3538 0.35214 0.4497 0.0
C129 C 0.34859 0.36217 0.53436 0.0
C130 C 0.31712 0.37384 0.55983 0.0
C131 C 0.3923 0.37245 0.54813 0.0
C132 C 0.40427 0.39408 0.5863 0.0
C133 C 0.3728 0.40611 0.61159 0.0
C134 C 0.26437 0.24726 0.46552 0.0
C135 C 0.22788 0.24534 0.42955 0.0
C136 C 0.26972 0.21567 0.50956 0.0
C137 C 0.23857 0.18384 0.5183 0.0
C138 C 0.20095 0.18289 0.48342 0.0
C139 C 0.1964 0.21359 0.43847 0.0
C140 C 0.32906 0.39564 0.59793 0.0
H141 H 0.34144 0.36457 0.23997 0.0
H142 H 0.30793 0.33504 0.31323 0.0
H143 H 0.42737 0.35687 0.40608 0.0
H144 H 0.4594 0.38818 0.33316 0.0
H145 H 0.30545 0.27926 0.38627 0.0
H146 H 0.37523 0.37953 0.44583 0.0
H147 H 0.29297 0.29558 0.53128 0.0
H148 H 0.28311 0.36683 0.54969 0.0
H149 H 0.41742 0.36328 0.52975 0.0
H150 H 0.43833 0.40087 0.5964 0.0
H151 H 0.22278 0.26942 0.39539 0.0
H152 H 0.29788 0.21589 0.53764 0.0
H153 H 0.30388 0.40495 0.61611 0.0
H154 H 0.16777 0.21411 0.41085 0.0
H155 H 0.24389 0.16013 0.55275 0.0
Tb156 Tb 0.03412 0.96325 0.52375 0.0
C157 C 0.94458 0.14268 0.49967 0.0
N158 N 0.98063 0.12605 0.53166 0.0
C159 C 0.01653 0.19375 0.51365 0.0
C160 C 0.94347 0.1855 0.47251 0.0
C161 C 0.01612 0.15106 0.53966 0.0
C162 C 0.98015 0.21099 0.4797 0.0
C163 C 0.8712 0.13219 0.4601 0.0
C164 C 0.90894 0.11628 0.49351 0.0
C165 C 0.87 0.17478 0.43279 0.0
C166 C 0.90603 0.20136 0.43898 0.0
Tb167 Tb 0.97688 0.05551 0.5701 0.0
N168 N 0.91187 0.07466 0.51927 0.0
C169 C 0.83586 0.10477 0.45504 0.0
C170 C 0.87651 0.04862 0.5164 0.0
C171 C 0.83836 0.063 0.48376 0.0
H172 H 0.04364 0.13846 0.56714 0.0
H173 H 0.81073 0.04193 0.48112 0.0
H174 H 0.9825 0.87414 0.56399 0.0
H175 H 0.2034 0.00741 0.56397 0.0
H176 H 0.87674 0.017 0.5395 0.0
H177 H 0.80628 0.11572 0.42972 0.0
H178 H 0.13076 0.01173 0.51426 0.0
H179 H 0.04479 0.21339 0.52004 0.0
H180 H 0.84134 0.18749 0.40679 0.0
H181 H 0.9046 0.23414 0.41765 0.0
H182 H 0.99688 0.8083 0.62983 0.0
H183 H 0.98058 0.24406 0.45955 0.0
H184 H 0.22134 0.9491 0.63829 0.0
N185 N 0.04485 0.90039 0.58164 0.0
C186 C 0.08471 0.89446 0.61021 0.0
C187 C 0.0218 0.83238 0.62481 0.0
C188 C 0.09431 0.85762 0.64833 0.0
C189 C 0.01367 0.86969 0.58768 0.0
C190 C 0.06217 0.82644 0.65551 0.0
N191 N 0.10465 0.96114 0.56412 0.0
C192 C 0.13666 0.98828 0.54855 0.0
C193 C 0.1573 0.92113 0.63001 0.0
C194 C 0.11538 0.92621 0.6016 0.0
C195 C 0.18871 0.95184 0.61749 0.0
C196 C 0.17861 0.98497 0.57581 0.0
H197 H 0.06825 0.79765 0.68446 0.0
H198 H 0.14336 0.82539 0.70788 0.0
H199 H 0.19876 0.88075 0.69143 0.0
O200 O 0.06889 0.96273 0.46543 0.0
O201 O 0.02568 0.95564 0.60128 0.0
O202 O 0.03564 0.02336 0.61475 0.0
O203 O 0.02536 0.91186 0.4875 0.0
O204 O 0.05512 0.03056 0.50264 0.0
O205 O 0.04703 0.05962 0.56897 0.0
O206 O 0.94339 0.04047 0.63095 0.0
O207 O 0.97542 0.06296 0.49063 0.0
O208 O 0.97725 0.99517 0.47415 0.0
O209 O 0.97291 0.10202 0.61168 0.0
O210 O 0.94721 0.99096 0.582 0.0
O211 O 0.96412 0.95558 0.52298 0.0
C212 C 0.0388 0.98164 0.63065 0.0
C213 C 0.08528 0.89417 0.45361 0.0
C214 C 0.12356 0.86333 0.3996 0.0
C215 C 0.14177 0.83184 0.44093 0.0
C216 C 0.10413 0.86272 0.49415 0.0
C217 C 0.13232 0.83184 0.48776 0.0
C218 C 0.09542 0.89466 0.40663 0.0
C219 C 0.06523 0.05932 0.52989 0.0
C220 C 0.05372 0.92579 0.4589 0.0
C221 C 0.13542 0.85329 0.67806 0.0
C222 C 0.16687 0.88494 0.66887 0.0
C223 C 0.96549 0.03591 0.46169 0.0
C224 C 0.97219 0.07419 0.69557 0.0
C225 C 0.9635 0.07999 0.77849 0.0
C226 C 0.00853 0.07257 0.79366 0.0
C227 C 0.01703 0.06765 0.71121 0.0
C228 C 0.94552 0.08018 0.72922 0.0
C229 C 0.03499 0.06631 0.76019 0.0
C230 C 0.94063 0.96036 0.55655 0.0
C231 C 0.95322 0.07678 0.64379 0.0
H232 H 0.1627 0.80657 0.43713 0.0
H233 H 0.09663 0.86155 0.53054 0.0
H234 H 0.14643 0.80738 0.51914 0.0
H235 H 0.08123 0.91951 0.37566 0.0
H236 H 0.02361 0.07283 0.83103 0.0
H237 H 0.03819 0.0644 0.68534 0.0
H238 H 0.91089 0.08533 0.71683 0.0
H239 H 0.06965 0.06126 0.77203 0.0
Tb240 Tb 0.45632 0.49133 0.99349 0.0
C241 C 0.61003 0.60543 0.04226 0.0
N242 N 0.61133 0.56248 0.06014 0.0
C243 C 0.68149 0.55841 0.03661 0.0
C244 C 0.64338 0.62665 0.0184 0.0
C245 C 0.64755 0.53909 0.06038 0.0
C246 C 0.67891 0.60226 0.01443 0.0
C247 C 0.57691 0.67345 0.04044 0.0
C248 C 0.57739 0.62821 0.05286 0.0
C249 C 0.60787 0.69501 0.01291 0.0
C250 C 0.64114 0.67157 1.00185 0.0
Tb251 Tb 0.55175 0.53237 0.09153 0.0
N252 N 0.54945 0.60593 0.08093 0.0
C253 C 0.5472 0.69544 0.05876 0.0
C254 C 0.52409 0.62724 0.10355 0.0
C255 C 0.52146 0.67221 0.09157 0.0
H256 H 0.6495 0.50537 0.0778 0.0
H257 H 0.49992 0.68889 0.10798 0.0
H258 H 0.39094 0.57593 0.94032 0.0
H259 H 0.40142 0.33057 0.05776 0.0
H260 H 0.5051 0.60951 0.13007 0.0
H261 H 0.54563 0.73025 0.0501 0.0
H262 H 0.44885 0.38618 0.01719 0.0
H263 H 0.70954 0.53952 0.03542 0.0
H264 H 0.60768 0.72978 1.0022 0.0
H265 H 0.66603 0.68858 0.98267 0.0
H266 H 0.32183 0.60502 0.95321 0.0
H267 H 0.7053 0.61725 0.99634 0.0
H268 H 0.33754 0.35255 0.08922 0.0
N269 N 0.38967 0.51926 0.99644 0.0
C270 C 0.36431 0.49337 0.02501 0.0
C271 C 0.33375 0.57379 0.97437 0.0
C272 C 0.3238 0.50756 0.03209 0.0
C273 C 0.37317 0.55748 0.96768 0.0
C274 C 0.30955 0.5492 0.00795 0.0
N275 N 0.41287 0.43826 0.02753 0.0
C276 C 0.42099 0.3957 0.0309 0.0
C277 C 0.34817 0.42063 0.06399 0.0
C278 C 0.37617 0.45077 0.04073 0.0
C279 C 0.35829 0.37684 0.07167 0.0
C280 C 0.3942 0.36431 0.05373 0.0
H281 H 0.27867 0.5615 0.01241 0.0
H282 H 0.26664 0.48908 0.06641 0.0
H283 H 0.28807 0.41262 0.09439 0.0
O284 O 0.47981 0.47137 0.9358 0.0
O285 O 0.47074 0.45455 0.0706 0.0
O286 O 0.48891 0.50904 0.11014 0.0
O287 O 0.41179 0.48212 0.93215 0.0
O288 O 0.51163 0.44667 0.01992 0.0
O289 O 0.56875 0.473 0.07101 0.0
O290 O 0.5856 0.54921 0.15638 0.0
O291 O 0.56407 0.52938 0.01746 0.0
O292 O 0.49743 0.54622 0.96931 0.0
O293 O 0.5739 0.48243 0.15249 0.0
O294 O 0.48415 0.55576 0.07931 0.0
O295 O 0.46043 0.55977 0.99719 0.0
C296 C 0.47565 0.46967 0.11094 0.0
C297 C 0.43874 0.49684 0.85733 0.0
C298 C 0.42342 0.4969 0.76946 0.0
C299 C 0.43124 0.5414 0.75879 0.0
C300 C 0.44589 0.54121 0.84599 0.0
C301 C 0.44245 0.56329 0.79688 0.0
C302 C 0.4276 0.47483 0.81916 0.0
C303 C 0.55103 0.44426 0.04631 0.0
C304 C 0.44173 0.47324 0.90873 0.0
C305 C 0.29756 0.47867 0.05975 0.0
C306 C 0.30972 0.43511 0.07563 0.0
C307 C 0.54012 0.54531 0.9747 0.0
C308 C 0.61254 0.49463 0.2304 0.0
C309 C 0.63323 0.5056 0.31436 0.0
C310 C 0.64956 0.46323 0.32924 0.0
C311 C 0.62908 0.45244 0.24627 0.0
C312 C 0.61529 0.52144 0.26449 0.0
C313 C 0.64773 0.43702 0.29531 0.0
C314 C 0.46169 0.57527 0.03698 0.0
C315 C 0.58998 0.50917 0.17926 0.0
H316 H 0.42786 0.55948 0.72103 0.0
H317 H 0.45374 0.55872 0.87506 0.0
H318 H 0.44804 0.59756 0.78829 0.0
H319 H 0.42237 0.44046 0.8283 0.0
H320 H 0.66394 0.45043 0.36721 0.0
H321 H 0.62735 0.43121 0.22079 0.0
H322 H 0.60197 0.55383 0.25279 0.0
H323 H 0.66042 0.40445 0.30719 0.0
C324 C 0.15576 0.13972 0.54297 0.0
C325 C 0.16611 0.15097 0.49494 0.0
H326 H 0.11657 0.10175 0.59171 0.0
C327 C 0.14275 0.13164 0.4584 0.0
H328 H 0.17243 0.15433 0.57198 0.0
C329 C 0.11002 0.1019 0.46967 0.0
C330 C 0.09979 0.09088 0.51768 0.0
H331 H 0.15009 0.13907 0.42118 0.0
H332 H 0.09261 0.08763 0.44072 0.0
C333 C 0.12326 0.10992 0.55422 0.0
C334 C 0.38687 0.64822 0.07617 0.0
C335 C 0.37408 0.6784 0.03196 0.0
H336 H 0.42399 0.59126 0.11204 0.0
C337 C 0.39181 0.67567 0.9899 0.0
H338 H 0.37333 0.64949 0.10894 0.0
C339 C 0.42139 0.64286 0.99187 0.0
C340 C 0.43294 0.61174 0.03562 0.0
H341 H 0.38256 0.69879 0.95548 0.0
H342 H 0.43462 0.64133 0.95897 0.0
C343 C 0.41581 0.61499 0.07789 0.0
C344 C 0.85729 0.8906 0.62156 0.0
C345 C 0.84399 0.86331 0.58894 0.0
H346 H 0.89822 0.94268 0.63705 0.0
C347 C 0.86083 0.8702 0.54443 0.0
H348 H 0.84516 0.88614 0.65625 0.0
C349 C 0.89126 0.90232 0.53358 0.0
C350 C 0.90568 0.92869 0.56681 0.0
H351 H 0.8506 0.85059 0.51781 0.0
H352 H 0.90384 0.90612 0.49921 0.0
C353 C 0.88778 0.92298 0.61058 0.0
C354 C 0.58527 0.33264 0.03957 0.0
C355 C 0.63071 0.33643 0.04452 0.0
H356 H 0.52439 0.36384 0.03612 0.0
C357 C 0.64967 0.3757 0.05063 0.0
H358 H 0.5698 0.30274 0.03471 0.0
C359 C 0.62379 0.41044 0.05188 0.0
C360 C 0.57834 0.40688 0.04656 0.0
H361 H 0.68465 0.37942 0.0551 0.0
H362 H 0.63944 0.44026 0.05616 0.0
C363 C 0.55931 0.36765 0.04018 0.0
C364 C 0.18236 0.84547 0.29701 0.0
C365 C 0.15021 0.85687 0.25525 0.0
H366 H 0.2 0.84024 0.37458 0.0
C367 C 0.1098 0.87219 0.26058 0.0
H368 H 0.214 0.83407 0.29371 0.0
C369 C 0.10121 0.87471 0.3072 0.0
C370 C 0.13317 0.86267 0.34942 0.0
H371 H 0.08439 0.88089 0.22891 0.0
H372 H 0.06906 0.88495 0.31018 0.0
C373 C 0.17413 0.84874 0.34341 0.0
C374 C 0.56192 0.61847 0.85535 0.0
C375 C 0.6033 0.6042 0.85136 0.0
H376 H 0.50957 0.61113 0.89741 0.0
C377 C 0.62402 0.57097 0.88894 0.0
H378 H 0.54491 0.64373 0.82688 0.0
C379 C 0.60365 0.55215 0.92916 0.0
C380 C 0.56199 0.56591 0.93261 0.0
H381 H 0.65603 0.55946 0.88722 0.0
H382 H 0.62019 0.52623 0.95709 0.0
C383 C 0.54144 0.59944 0.89544 0.0
C384 C 0.91897 0.11197 0.34289 0.0
C385 C 0.89156 0.08485 0.31885 0.0
H386 H 0.96402 0.11758 0.40696 0.0
C387 C 0.88806 0.04155 0.34233 0.0
H388 H 0.92196 0.14555 0.32557 0.0
C389 C 0.91247 0.02539 0.38871 0.0
C390 C 0.94015 0.0525 0.41254 0.0
H391 H 0.86727 0.02004 0.32429 0.0
H392 H 0.90947 0.99183 0.40606 0.0
C393 C 0.94288 0.09599 0.38942 0.0
C394 C 0.36627 0.41988 0.69484 0.0
C395 C 0.38562 0.42951 0.65197 0.0
H396 H 0.36253 0.43379 0.76503 0.0
C397 C 0.41747 0.46158 0.64805 0.0
H398 H 0.34197 0.39508 0.69936 0.0
C399 C 0.42976 0.48335 0.68608 0.0
C400 C 0.41046 0.47367 0.72898 0.0
H401 H 0.43269 0.47022 0.61533 0.0
H402 H 0.45475 0.50748 0.68204 0.0
C403 C 0.3785 0.4417 0.73282 0.0
C404 C 0.65699 0.59686 0.38144 0.0
C405 C 0.64368 0.57932 0.42718 0.0
H406 H 0.66384 0.58742 0.30974 0.0
C407 C 0.62407 0.53867 0.43367 0.0
H408 H 0.6726 0.62784 0.37511 0.0
C409 C 0.61976 0.51541 0.39653 0.0
C410 C 0.63436 0.53235 0.35161 0.0
H411 H 0.6123 0.52452 0.46771 0.0
H412 H 0.60527 0.48385 0.40311 0.0
C413 C 0.65213 0.57371 0.34396 0.0
C414 C 0.92028 0.07899 0.89719 0.0
C415 C 0.88844 0.1117 0.88188 0.0
H416 H 0.96797 0.04244 0.87645 0.0
C417 C 0.87939 0.13208 0.83181 0.0
H418 H 0.92738 0.06228 0.9355 0.0
C419 C 0.90305 0.12114 0.79798 0.0
C420 C 0.93592 0.08927 0.81353 0.0
H421 H 0.8552 0.1576 0.81914 0.0
H422 H 0.8966 0.13876 0.76 0.0
C423 C 0.94361 0.06776 0.86338 0.0
C424 C 0.42648 0.38091 0.19949 0.0
C425 C 0.42152 0.40162 0.23745 0.0
H426 H 0.45039 0.38521 0.13143 0.0
C427 C 0.43555 0.44417 0.23425 0.0
H428 H 0.41657 0.34785 0.20158 0.0
C429 C 0.45335 0.46598 0.19338 0.0
C430 C 0.45811 0.44555 0.15498 0.0
H431 H 0.43216 0.46079 0.26317 0.0
H432 H 0.46308 0.49903 0.19183 0.0
C433 C 0.44538 0.40245 0.1591 0.0
C434 C 0.05933 0.90526 0.75527 0.0
C435 C 0.09096 0.92717 0.7819 0.0
H436 H 0.01781 0.90563 0.68673 0.0
C437 C 0.10477 0.96762 0.7584 0.0
H438 H 0.04766 0.87425 0.77239 0.0
C439 C 0.08772 0.98547 0.70923 0.0
C440 C 0.05633 0.96338 0.68276 0.0
H441 H 0.12962 0.98498 0.77758 0.0
H442 H 0.09976 0.01615 0.69162 0.0
C443 C 0.04222 0.92319 0.70624 0.0
loop_
_geom_bond_atom_site_label_1
_geom_bond_atom_site_label_2
_geom_bond_distance
_geom_bond_site_symmetry_2
_ccdc_geom_bond_type
C0 C1 1.386 . S
C0 C2 1.397 . S
C0 H24 0.931 . S
C1 C0 1.386 . S
C1 C5 1.397 . S
C2 C0 1.397 . S
C2 C3 1.384 . S
C2 H25 0.930 . S
C3 C2 1.384 . S
C3 C4 1.377 . S
C3 C6 1.481 . S
C4 C3 1.377 . S
C4 C5 1.389 . S
C4 H26 0.929 . S
C5 C1 1.397 . S
C5 C4 1.389 . S
C5 H27 0.931 1_565 S
C6 C3 1.481 . S
C6 C7 1.387 . S
C6 C11 1.390 1_556 S
C7 C6 1.387 . S
C7 C8 1.401 1_556 S
C7 H28 0.930 . S
C8 C7 1.401 1_554 S
C8 C9 1.376 . S
C8 C17 1.511 . S
C9 C8 1.376 . S
C9 C10 1.392 . S
C9 H30 0.931 . S
C10 C9 1.392 . S
C10 C11 1.361 . S
C10 C12 1.500 . S
C11 C6 1.390 1_554 S
C11 C10 1.361 . S
C11 H29 0.931 . S
C12 C10 1.500 . S
C12 C13 1.371 . S
C12 C14 1.365 . S
C13 C12 1.371 . S
C13 C23 1.386 . S
C13 H31 0.931 . S
C14 C12 1.365 . S
C14 C15 1.409 . S
C14 H32 0.929 . S
C15 C14 1.409 . S
C15 C16 1.380 . S
C15 H33 0.930 . S
C16 C15 1.380 . S
C16 C23 1.357 . S
C17 C8 1.511 . S
C17 C18 1.341 1_554 S
C17 C19 1.371 . S
C18 C17 1.341 1_556 S
C18 C22 1.394 1_556 S
C18 H34 0.930 . S
C19 C17 1.371 . S
C19 C20 1.392 . S
C19 H35 0.931 . S
C20 C19 1.392 . S
C20 C21 1.331 . S
C20 H38 0.932 . S
C21 C20 1.331 . S
C21 C22 1.336 . S
C22 C18 1.394 1_554 S
C22 C21 1.336 . S
C22 H37 0.929 1_554 S
C23 C13 1.386 . S
C23 C16 1.357 . S
C23 H36 0.928 . S
H24 C0 0.931 . S
H25 C2 0.930 . S
H26 C4 0.929 . S
H27 C5 0.931 1_545 S
H28 C7 0.930 . S
H29 C11 0.931 . S
H30 C9 0.931 . S
H31 C13 0.931 . S
H32 C14 0.929 . S
H33 C15 0.930 . S
H34 C18 0.930 . S
H35 C19 0.931 . S
H36 C23 0.928 . S
H37 C22 0.929 1_556 S
H38 C20 0.932 . S
C39 C40 1.386 . S
C39 C41 1.397 . S
C39 H63 0.931 . S
C40 C39 1.386 . S
C40 C44 1.397 . S
C41 C39 1.397 . S
C41 C42 1.384 . S
C41 H64 0.930 . S
C42 C41 1.384 . S
C42 C43 1.377 . S
C42 C45 1.481 . S
C43 C42 1.377 . S
C43 C44 1.389 . S
C43 H65 0.929 . S
C44 C40 1.397 . S
C44 C43 1.389 . S
C44 H66 0.931 . S
C45 C42 1.481 . S
C45 C46 1.387 . S
C45 C50 1.390 . S
C46 C45 1.387 . S
C46 C47 1.401 . S
C46 H67 0.930 . S
C47 C46 1.401 . S
C47 C48 1.376 . S
C47 C56 1.511 . S
C48 C47 1.376 . S
C48 C49 1.392 . S
C48 H69 0.931 . S
C49 C48 1.392 . S
C49 C50 1.361 . S
C49 C51 1.500 . S
C50 C45 1.390 . S
C50 C49 1.361 . S
C50 H68 0.931 . S
C51 C49 1.500 . S
C51 C52 1.371 . S
C51 C53 1.365 . S
C52 C51 1.371 . S
C52 C62 1.386 . S
C52 H70 0.931 . S
C53 C51 1.365 . S
C53 C54 1.409 . S
C53 H71 0.929 . S
C54 C53 1.409 . S
C54 C55 1.380 . S
C54 H72 0.930 . S
C55 C54 1.380 . S
C55 C62 1.357 . S
C56 C47 1.511 . S
C56 C57 1.341 . S
C56 C58 1.371 . S
C57 C56 1.341 . S
C57 C61 1.394 . S
C57 H73 0.930 . S
C58 C56 1.371 . S
C58 C59 1.392 . S
C58 H74 0.931 . S
C59 C58 1.392 . S
C59 C60 1.331 . S
C59 H77 0.932 . S
C60 C59 1.331 . S
C60 C61 1.336 . S
C61 C57 1.394 . S
C61 C60 1.336 . S
C61 H76 0.929 . S
C62 C52 1.386 . S
C62 C55 1.357 . S
C62 H75 0.928 . S
H63 C39 0.931 . S
H64 C41 0.930 . S
H65 C43 0.929 . S
H66 C44 0.931 . S
H67 C46 0.930 . S
H68 C50 0.931 . S
H69 C48 0.931 . S
H70 C52 0.931 . S
H71 C53 0.929 . S
H72 C54 0.930 . S
H73 C57 0.930 . S
H74 C58 0.931 . S
H75 C62 0.928 . S
H76 C61 0.929 . S
H77 C59 0.932 . S
C78 C79 1.386 . S
C78 C80 1.397 . S
C78 H102 0.931 . S
C79 C78 1.386 . S
C79 C83 1.397 . S
C80 C78 1.397 . S
C80 C81 1.384 . S
C80 H103 0.930 . S
C81 C80 1.384 . S
C81 C82 1.377 . S
C81 C84 1.481 . S
C82 C81 1.377 . S
C82 C83 1.389 . S
C82 H104 0.929 . S
C83 C79 1.397 . S
C83 C82 1.389 . S
C83 H105 0.931 . S
C84 C81 1.481 . S
C84 C85 1.387 . S
C84 C89 1.390 . S
C85 C84 1.387 . S
C85 C86 1.401 . S
C85 H106 0.930 . S
C86 C85 1.401 . S
C86 C87 1.376 . S
C86 C95 1.511 . S
C87 C86 1.376 . S
C87 C88 1.392 . S
C87 H108 0.931 1_554 S
C88 C87 1.392 . S
C88 C89 1.361 . S
C88 C90 1.500 1_554 S
C89 C84 1.390 . S
C89 C88 1.361 . S
C89 H107 0.931 . S
C90 C88 1.500 1_556 S
C90 C91 1.371 . S
C90 C92 1.365 . S
C91 C90 1.371 . S
C91 C101 1.386 . S
C91 H109 0.931 . S
C92 C90 1.365 . S
C92 C93 1.409 . S
C92 H110 0.929 1_556 S
C93 C92 1.409 . S
C93 C94 1.380 . S
C93 H111 0.930 . S
C94 C93 1.380 . S
C94 C101 1.357 . S
C95 C86 1.511 . S
C95 C96 1.341 . S
C95 C97 1.371 . S
C96 C95 1.341 . S
C96 C100 1.394 . S
C96 H112 0.930 . S
C97 C95 1.371 . S
C97 C98 1.392 . S
C97 H113 0.931 1_554 S
C98 C97 1.392 . S
C98 C99 1.331 . S
C98 H116 0.932 1_554 S
C99 C98 1.331 . S
C99 C100 1.336 . S
C100 C96 1.394 . S
C100 C99 1.336 . S
C100 H115 0.929 . S
C101 C91 1.386 . S
C101 C94 1.357 . S
C101 H114 0.928 . S
H102 C78 0.931 . S
H103 C80 0.930 . S
H104 C82 0.929 . S
H105 C83 0.931 . S
H106 C85 0.930 . S
H107 C89 0.931 . S
H108 C87 0.931 1_556 S
H109 C91 0.931 . S
H110 C92 0.929 1_554 S
H111 C93 0.930 . S
H112 C96 0.930 . S
H113 C97 0.931 1_556 S
H114 C101 0.928 . S
H115 C100 0.929 . S
H116 C98 0.932 1_556 S
C117 C118 1.386 . S
C117 C119 1.397 . S
C117 H141 0.931 . S
C118 C117 1.386 . S
C118 C122 1.397 . S
C119 C117 1.397 . S
C119 C120 1.384 . S
C119 H142 0.930 . S
C120 C119 1.384 . S
C120 C121 1.377 . S
C120 C123 1.481 . S
C121 C120 1.377 . S
C121 C122 1.389 . S
C121 H143 0.929 . S
C122 C118 1.397 . S
C122 C121 1.389 . S
C122 H144 0.931 . S
C123 C120 1.481 . S
C123 C124 1.387 . S
C123 C128 1.390 . S
C124 C123 1.387 . S
C124 C125 1.401 . S
C124 H145 0.930 . S
C125 C124 1.401 . S
C125 C126 1.376 . S
C125 C134 1.511 . S
C126 C125 1.376 . S
C126 C127 1.392 . S
C126 H147 0.931 . S
C127 C126 1.392 . S
C127 C128 1.361 . S
C127 C129 1.500 . S
C128 C123 1.390 . S
C128 C127 1.361 . S
C128 H146 0.931 . S
C129 C127 1.500 . S
C129 C130 1.371 . S
C129 C131 1.365 . S
C130 C129 1.371 . S
C130 C140 1.386 . S
C130 H148 0.931 . S
C131 C129 1.365 . S
C131 C132 1.409 . S
C131 H149 0.929 . S
C132 C131 1.409 . S
C132 C133 1.380 . S
C132 H150 0.930 . S
C133 C132 1.380 . S
C133 C140 1.357 . S
C134 C125 1.511 . S
C134 C135 1.341 . S
C134 C136 1.371 . S
C135 C134 1.341 . S
C135 C139 1.394 . S
C135 H151 0.930 . S
C136 C134 1.371 . S
C136 C137 1.392 . S
C136 H152 0.931 . S
C137 C136 1.392 . S
C137 C138 1.331 . S
C137 H155 0.932 . S
C138 C137 1.331 . S
C138 C139 1.336 . S
C139 C135 1.394 . S
C139 C138 1.336 . S
C139 H154 0.929 . S
C140 C130 1.386 . S
C140 C133 1.357 . S
C140 H153 0.928 . S
H141 C117 0.931 . S
H142 C119 0.930 . S
H143 C121 0.929 . S
H144 C122 0.931 . S
H145 C124 0.930 . S
H146 C128 0.931 . S
H147 C126 0.931 . S
H148 C130 0.931 . S
H149 C131 0.929 . S
H150 C132 0.930 . S
H151 C135 0.930 . S
H152 C136 0.931 . S
H153 C140 0.928 . S
H154 C139 0.929 . S
H155 C137 0.932 . S
Tb156 N185 2.617 . S
Tb156 N191 2.572 . S
Tb156 O200 2.465 . S
Tb156 O201 2.387 . S
Tb156 O203 2.428 . S
Tb156 O204 2.308 1_565 S
Tb156 O208 2.345 1_465 S
Tb156 O211 2.393 1_455 S
Tb156 C220 2.802 . S
C157 N158 1.379 . S
C157 C160 1.416 . S
C157 C164 1.424 . S
N158 C157 1.379 . S
N158 C161 1.356 . S
N158 Tb167 2.617 . S
C159 C161 1.390 . S
C159 C162 1.339 . S
C159 H179 0.930 1_655 S
C160 C157 1.416 . S
C160 C162 1.416 . S
C160 C166 1.448 . S
C161 N158 1.356 . S
C161 C159 1.390 . S
C161 H172 0.908 1_655 S
C162 C159 1.339 . S
C162 C160 1.416 . S
C162 H183 0.930 . S
C163 C164 1.413 . S
C163 C165 1.427 . S
C163 C169 1.416 . S
C164 C157 1.424 . S
C164 C163 1.413 . S
C164 N168 1.361 . S
C165 C163 1.427 . S
C165 C166 1.328 . S
C165 H180 0.929 . S
C166 C160 1.448 . S
C166 C165 1.328 . S
C166 H181 0.930 . S
Tb167 N158 2.617 . S
Tb167 N168 2.572 . S
Tb167 O202 2.349 1_655 S
Tb167 O205 2.393 1_655 S
Tb167 O206 2.465 . S
Tb167 O207 2.387 . S
Tb167 O209 2.428 . S
Tb167 O210 2.308 1_545 S
Tb167 C231 2.802 . S
N168 C164 1.361 . S
N168 Tb167 2.572 . S
N168 C170 1.340 . S
C169 C163 1.416 . S
C169 C171 1.332 . S
C169 H177 0.931 . S
C170 N168 1.340 . S
C170 C171 1.407 . S
C170 H176 0.930 . S
C171 C169 1.332 . S
C171 C170 1.407 . S
C171 H173 0.929 . S
H172 C161 0.908 1_455 S
H173 C171 0.929 . S
H174 C189 0.930 1_655 S
H175 C196 0.929 . S
H176 C170 0.930 . S
H177 C169 0.931 . S
H178 C192 0.930 . S
H179 C159 0.930 1_455 S
H180 C165 0.929 . S
H181 C166 0.930 . S
H182 C187 0.930 1_655 S
H183 C162 0.930 . S
H184 C195 0.931 . S
N185 Tb156 2.617 . S
N185 C186 1.379 . S
N185 C189 1.334 . S
C186 N185 1.379 . S
C186 C188 1.416 . S
C186 C194 1.424 . S
C187 H182 0.930 1_455 S
C187 C189 1.390 . S
C187 C190 1.339 . S
C188 C186 1.416 . S
C188 C190 1.416 . S
C188 C221 1.448 . S
C189 H174 0.930 1_455 S
C189 N185 1.334 . S
C189 C187 1.390 . S
C190 C187 1.339 . S
C190 C188 1.416 . S
C190 H197 0.930 . S
N191 Tb156 2.572 . S
N191 C192 1.340 . S
N191 C194 1.361 . S
C192 H178 0.930 . S
C192 N191 1.340 . S
C192 C196 1.407 . S
C193 C194 1.413 . S
C193 C195 1.416 . S
C193 C222 1.427 . S
C194 C186 1.424 . S
C194 N191 1.361 . S
C194 C193 1.413 . S
C195 H184 0.931 . S
C195 C193 1.416 . S
C195 C196 1.332 . S
C196 H175 0.929 . S
C196 C192 1.407 . S
C196 C195 1.332 . S
H197 C190 0.930 . S
H198 C221 0.930 . S
H199 C222 0.929 . S
O200 Tb156 2.465 . S
O200 C220 1.264 . S
O201 Tb156 2.387 . S
O201 C212 1.264 . S
O202 Tb167 2.349 1_455 S
O202 C212 1.243 1_545 S
O203 Tb156 2.428 . S
O203 C220 1.256 . S
O204 Tb156 2.308 1_545 S
O204 C219 1.266 . S
O205 Tb167 2.393 1_455 S
O205 C219 1.248 . S
O206 Tb167 2.465 . S
O206 C231 1.264 . S
O207 Tb167 2.387 . S
O207 C223 1.264 . S
O208 Tb156 2.345 1_645 S
O208 C223 1.251 . S
O209 Tb167 2.428 . S
O209 C231 1.256 . S
O210 Tb167 2.308 1_565 S
O210 C230 1.266 . S
O211 Tb156 2.393 1_655 S
O211 C230 1.248 . S
C212 O201 1.264 . S
C212 O202 1.243 1_565 S
C213 C216 1.399 . S
C213 C218 1.383 . S
C213 C220 1.496 . S
C214 C215 1.399 . S
C214 C218 1.389 . S
C215 C214 1.399 . S
C215 C217 1.380 . S
C215 H232 0.929 . S
C216 C213 1.399 . S
C216 C217 1.392 . S
C216 H233 0.929 . S
C217 C215 1.380 . S
C217 C216 1.392 . S
C217 H234 0.929 . S
C218 C213 1.383 . S
C218 C214 1.389 . S
C218 H235 0.931 . S
C219 O204 1.266 . S
C219 O205 1.248 . S
C220 Tb156 2.802 . S
C220 O200 1.264 . S
C220 O203 1.256 . S
C220 C213 1.496 . S
C221 C188 1.448 . S
C221 H198 0.930 . S
C221 C222 1.328 . S
C222 C193 1.427 . S
C222 H199 0.929 . S
C222 C221 1.328 . S
C223 O207 1.264 . S
C223 O208 1.251 . S
C224 C227 1.399 . S
C224 C228 1.383 . S
C224 C231 1.496 . S
C225 C226 1.399 . S
C225 C228 1.389 . S
C226 C225 1.399 . S
C226 C229 1.380 . S
C226 H236 0.929 . S
C227 C224 1.399 . S
C227 C229 1.392 . S
C227 H237 0.929 . S
C228 C224 1.383 . S
C228 C225 1.389 . S
C228 H238 0.931 . S
C229 C226 1.380 . S
C229 C227 1.392 . S
C229 H239 0.929 . S
C230 O210 1.266 . S
C230 O211 1.248 . S
C231 Tb167 2.802 . S
C231 O206 1.264 . S
C231 O209 1.256 . S
C231 C224 1.496 . S
H232 C215 0.929 . S
H233 C216 0.929 . S
H234 C217 0.929 . S
H235 C218 0.931 . S
H236 C226 0.929 . S
H237 C227 0.929 . S
H238 C228 0.931 . S
H239 C229 0.929 . S
Tb240 N269 2.618 1_556 S
Tb240 N275 2.572 1_556 S
Tb240 O284 2.465 . S
Tb240 O285 2.387 1_556 S
Tb240 O287 2.428 . S
Tb240 O288 2.308 1_556 S
Tb240 O292 2.349 . S
Tb240 O295 2.393 1_556 S
Tb240 C304 2.802 . S
C241 N242 1.379 . S
C241 C244 1.416 . S
C241 C248 1.424 . S
N242 C241 1.379 . S
N242 C245 1.334 . S
N242 Tb251 2.617 . S
C243 C245 1.390 . S
C243 C246 1.339 . S
C243 H263 0.930 . S
C244 C241 1.416 . S
C244 C246 1.416 . S
C244 C250 1.448 . S
C245 N242 1.334 . S
C245 C243 1.390 . S
C245 H256 0.930 . S
C246 C243 1.339 . S
C246 C244 1.416 . S
C246 H267 0.930 . S
C247 C248 1.413 . S
C247 C249 1.427 . S
C247 C253 1.416 . S
C248 C241 1.424 . S
C248 C247 1.413 . S
C248 N252 1.361 . S
C249 C247 1.427 . S
C249 C250 1.328 . S
C249 H264 0.929 . S
C250 C244 1.448 . S
C250 C249 1.328 . S
C250 H265 0.930 . S
Tb251 N242 2.617 . S
Tb251 N252 2.572 . S
Tb251 O286 2.349 . S
Tb251 O289 2.393 . S
Tb251 O290 2.465 . S
Tb251 O291 2.387 . S
Tb251 O293 2.428 . S
Tb251 O294 2.308 . S
Tb251 C315 2.802 . S
N252 C248 1.361 . S
N252 Tb251 2.572 . S
N252 C254 1.340 . S
C253 C247 1.416 . S
C253 C255 1.332 . S
C253 H261 0.931 . S
C254 N252 1.340 . S
C254 C255 1.407 . S
C254 H260 0.930 . S
C255 C253 1.332 . S
C255 C254 1.407 . S
C255 H257 0.929 . S
H256 C245 0.930 . S
H257 C255 0.929 . S
H258 C273 0.930 . S
H259 C280 0.929 . S
H260 C254 0.930 . S
H261 C253 0.931 . S
H262 C276 0.930 . S
H263 C243 0.930 . S
H264 C249 0.929 . S
H265 C250 0.930 . S
H266 C271 0.930 . S
H267 C246 0.930 . S
H268 C279 0.931 . S
N269 Tb240 2.618 1_554 S
N269 C270 1.379 . S
N269 C273 1.334 1_554 S
C270 N269 1.379 . S
C270 C272 1.416 . S
C270 C278 1.424 . S
C271 H266 0.930 . S
C271 C273 1.390 . S
C271 C274 1.339 1_556 S
C272 C270 1.416 . S
C272 C274 1.416 . S
C272 C305 1.448 . S
C273 H258 0.930 . S
C273 N269 1.334 1_556 S
C273 C271 1.390 . S
C274 C271 1.339 1_554 S
C274 C272 1.416 . S
C274 H281 0.930 . S
N275 Tb240 2.572 1_554 S
N275 C276 1.340 . S
N275 C278 1.361 . S
C276 H262 0.930 . S
C276 N275 1.340 . S
C276 C280 1.407 . S
C277 C278 1.413 . S
C277 C279 1.416 . S
C277 C306 1.427 . S
C278 C270 1.424 . S
C278 N275 1.361 . S
C278 C277 1.413 . S
C279 H268 0.931 . S
C279 C277 1.416 . S
C279 C280 1.332 . S
C280 H259 0.929 . S
C280 C276 1.407 . S
C280 C279 1.332 . S
H281 C274 0.930 . S
H282 C305 0.930 . S
H283 C306 0.929 . S
O284 Tb240 2.465 . S
O284 C304 1.264 . S
O285 Tb240 2.387 1_554 S
O285 C296 1.264 . S
O286 Tb251 2.349 . S
O286 C296 1.243 . S
O287 Tb240 2.428 . S
O287 C304 1.256 . S
O288 Tb240 2.308 1_554 S
O288 C303 1.266 . S
O289 Tb251 2.393 . S
O289 C303 1.248 . S
O290 Tb251 2.465 . S
O290 C315 1.264 . S
O291 Tb251 2.387 . S
O291 C307 1.264 1_554 S
O292 Tb240 2.349 . S
O292 C307 1.243 . S
O293 Tb251 2.428 . S
O293 C315 1.256 . S
O294 Tb251 2.308 . S
O294 C314 1.266 . S
O295 Tb240 2.393 1_554 S
O295 C314 1.248 . S
C296 O285 1.264 . S
C296 O286 1.243 . S
C297 C300 1.399 . S
C297 C302 1.383 . S
C297 C304 1.496 . S
C298 C299 1.399 . S
C298 C302 1.389 . S
C299 C298 1.399 . S
C299 C301 1.380 . S
C299 H316 0.929 . S
C300 C297 1.399 . S
C300 C301 1.392 . S
C300 H317 0.929 . S
C301 C299 1.380 . S
C301 C300 1.392 . S
C301 H318 0.929 . S
C302 C297 1.383 . S
C302 C298 1.389 . S
C302 H319 0.931 . S
C303 O288 1.266 . S
C303 O289 1.248 . S
C304 Tb240 2.802 . S
C304 O284 1.264 . S
C304 O287 1.256 . S
C304 C297 1.496 . S
C305 C272 1.448 . S
C305 H282 0.930 . S
C305 C306 1.328 . S
C306 C277 1.427 . S
C306 H283 0.929 . S
C306 C305 1.328 . S
C307 O291 1.264 1_556 S
C307 O292 1.243 . S
C308 C311 1.399 . S
C308 C312 1.383 . S
C308 C315 1.496 . S
C309 C310 1.399 . S
C309 C312 1.389 . S
C310 C309 1.399 . S
C310 C313 1.380 . S
C310 H320 0.929 . S
C311 C308 1.399 . S
C311 C313 1.392 . S
C311 H321 0.929 . S
C312 C308 1.383 . S
C312 C309 1.389 . S
C312 H322 0.931 . S
C313 C310 1.380 . S
C313 C311 1.392 . S
C313 H323 0.929 . S
C314 O294 1.266 . S
C314 O295 1.248 . S
C315 Tb251 2.802 . S
C315 O290 1.264 . S
C315 O293 1.256 . S
C315 C308 1.496 . S
H316 C299 0.929 . S
H317 C300 0.929 . S
H318 C301 0.929 . S
H319 C302 0.931 . S
H320 C310 0.929 . S
H321 C311 0.929 . S
H322 C312 0.931 . S
H323 C313 0.929 . S
C324 C325 1.387 . S
C324 H328 0.950 . S
C324 C333 1.390 . S
C325 C324 1.387 . S
C325 C327 1.387 . S
H326 C333 0.950 . S
C327 C325 1.387 . S
C327 C329 1.390 . S
C327 H331 0.950 . S
H328 C324 0.950 . S
C329 C327 1.390 . S
C329 C330 1.387 . S
C329 H332 0.950 . S
C330 C329 1.387 . S
C330 C333 1.387 . S
H331 C327 0.950 . S
H332 C329 0.950 . S
C333 C324 1.390 . S
C333 H326 0.950 . S
C333 C330 1.387 . S
C334 C335 1.387 . S
C334 H338 0.950 . S
C334 C343 1.390 . S
C335 C334 1.387 . S
C335 C337 1.387 . S
H336 C343 0.950 . S
C337 C335 1.387 . S
C337 C339 1.391 . S
C337 H341 0.950 1_554 S
H338 C334 0.950 . S
C339 C337 1.391 . S
C339 C340 1.389 . S
C339 H342 0.948 1_554 S
C340 C339 1.389 . S
C340 C343 1.387 . S
H341 C337 0.950 1_556 S
H342 C339 0.948 1_556 S
C343 C334 1.390 . S
C343 H336 0.950 . S
C343 C340 1.387 . S
C344 C345 1.387 . S
C344 H348 0.950 . S
C344 C353 1.390 . S
C345 C344 1.387 . S
C345 C347 1.387 . S
H346 C353 0.950 . S
C347 C345 1.387 . S
C347 C349 1.390 . S
C347 H351 0.950 . S
H348 C344 0.950 . S
C349 C347 1.390 . S
C349 C350 1.387 . S
C349 H352 0.950 . S
C350 C349 1.387 . S
C350 C353 1.387 . S
H351 C347 0.950 . S
H352 C349 0.950 . S
C353 C344 1.390 . S
C353 H346 0.950 . S
C353 C350 1.387 . S
C354 C355 1.387 . S
C354 H358 0.950 . S
C354 C363 1.390 . S
C355 C354 1.387 . S
C355 C357 1.387 . S
H356 C363 0.950 . S
C357 C355 1.387 . S
C357 C359 1.390 . S
C357 H361 0.950 1_554 S
H358 C354 0.950 . S
C359 C357 1.390 . S
C359 C360 1.387 . S
C359 H362 0.950 1_554 S
C360 C359 1.387 . S
C360 C363 1.387 . S
H361 C357 0.950 1_556 S
H362 C359 0.950 1_556 S
C363 C354 1.390 . S
C363 H356 0.950 . S
C363 C360 1.387 . S
C364 C365 1.387 . S
C364 H368 0.950 . S
C364 C373 1.390 . S
C365 C364 1.387 . S
C365 C367 1.387 . S
H366 C373 0.950 . S
C367 C365 1.387 . S
C367 C369 1.390 . S
C367 H371 0.950 . S
H368 C364 0.950 . S
C369 C367 1.390 . S
C369 C370 1.387 . S
C369 H372 0.950 . S
C370 C369 1.387 . S
C370 C373 1.387 . S
H371 C367 0.950 . S
H372 C369 0.950 . S
C373 C364 1.390 . S
C373 H366 0.950 . S
C373 C370 1.387 . S
C374 C375 1.387 . S
C374 H378 0.950 . S
C374 C383 1.390 . S
C375 C374 1.387 . S
C375 C377 1.387 . S
H376 C383 0.950 . S
C377 C375 1.387 . S
C377 C379 1.390 . S
C377 H381 0.950 . S
H378 C374 0.950 . S
C379 C377 1.390 . S
C379 C380 1.387 . S
C379 H382 0.950 . S
C380 C379 1.387 . S
C380 C383 1.387 . S
H381 C377 0.950 . S
H382 C379 0.950 . S
C383 C374 1.390 . S
C383 H376 0.950 . S
C383 C380 1.387 . S
C384 C385 1.387 . S
C384 H388 0.950 . S
C384 C393 1.390 . S
C385 C384 1.387 . S
C385 C387 1.387 . S
H386 C393 0.950 . S
C387 C385 1.387 . S
C387 C389 1.390 . S
C387 H391 0.950 1_545 S
H388 C384 0.950 . S
C389 C387 1.390 . S
C389 C390 1.387 . S
C389 H392 0.950 1_545 S
C390 C389 1.387 . S
C390 C393 1.387 . S
H391 C387 0.950 1_565 S
H392 C389 0.950 1_565 S
C393 C384 1.390 . S
C393 H386 0.950 . S
C393 C390 1.387 . S
C394 C395 1.387 . S
C394 H398 0.950 . S
C394 C403 1.390 . S
C395 C394 1.387 . S
C395 C397 1.387 . S
H396 C403 0.950 . S
C397 C395 1.387 . S
C397 C399 1.390 . S
C397 H401 0.950 . S
H398 C394 0.950 . S
C399 C397 1.390 . S
C399 C400 1.387 . S
C399 H402 0.950 . S
C400 C399 1.387 . S
C400 C403 1.387 . S
H401 C397 0.950 . S
H402 C399 0.950 . S
C403 C394 1.390 . S
C403 H396 0.950 . S
C403 C400 1.387 . S
C404 C405 1.387 . S
C404 H408 0.950 . S
C404 C413 1.390 . S
C405 C404 1.387 . S
C405 C407 1.387 . S
H406 C413 0.950 . S
C407 C405 1.387 . S
C407 C409 1.390 . S
C407 H411 0.950 . S
H408 C404 0.950 . S
C409 C407 1.390 . S
C409 C410 1.387 . S
C409 H412 0.950 . S
C410 C409 1.387 . S
C410 C413 1.387 . S
H411 C407 0.950 . S
H412 C409 0.950 . S
C413 C404 1.390 . S
C413 H406 0.950 . S
C413 C410 1.387 . S
C414 C415 1.387 . S
C414 H418 0.950 . S
C414 C423 1.390 . S
C415 C414 1.387 . S
C415 C417 1.387 . S
H416 C423 0.950 1_565 S
C417 C415 1.387 . S
C417 C419 1.390 . S
C417 H421 0.950 . S
H418 C414 0.950 . S
C419 C417 1.390 . S
C419 C420 1.387 . S
C419 H422 0.950 . S
C420 C419 1.387 . S
C420 C423 1.387 . S
H421 C417 0.950 . S
H422 C419 0.950 . S
C423 C414 1.390 . S
C423 H416 0.950 1_545 S
C423 C420 1.387 . S
C424 C425 1.387 . S
C424 H428 0.950 . S
C424 C433 1.390 . S
C425 C424 1.387 . S
C425 C427 1.387 . S
H426 C433 0.950 . S
C427 C425 1.387 . S
C427 C429 1.390 . S
C427 H431 0.950 . S
H428 C424 0.950 . S
C429 C427 1.390 . S
C429 C430 1.387 . S
C429 H432 0.950 . S
C430 C429 1.387 . S
C430 C433 1.387 . S
H431 C427 0.950 . S
H432 C429 0.950 . S
C433 C424 1.390 . S
C433 H426 0.950 . S
C433 C430 1.387 . S
C434 C435 1.387 . S
C434 H438 0.950 . S
C434 C443 1.390 . S
C435 C434 1.387 . S
C435 C437 1.387 1_565 S
H436 C443 0.950 . S
C437 C435 1.387 1_545 S
C437 C439 1.390 . S
C437 H441 0.950 . S
H438 C434 0.950 . S
C439 C437 1.390 . S
C439 C440 1.387 1_545 S
C439 H442 0.950 . S
C440 C439 1.387 1_565 S
C440 C443 1.387 . S
H441 C437 0.950 . S
H442 C439 0.950 . S
C443 C434 1.390 . S
C443 H436 0.950 . S
C443 C440 1.387 . S
C330 C219 1.682 . S
C325 C138 1.643 . S
C335 C21 1.638 . S
C340 C314 1.670 . S
C345 C60 1.651 . S
C350 C230 1.682 . S
C355 C99 1.652 . S
C360 C303 1.669 . S
C370 C214 1.432 . S
C365 C16 1.552 . S
C380 C307 1.636 . S
C375 C40 1.616 . S
C385 C79 1.635 . S
C390 C223 1.672 . S
C395 C133 1.537 . S
C400 C298 1.416 . S
C410 C309 1.413 . S
C405 C55 1.536 . S
C420 C225 1.433 . S
C415 C94 1.549 . S
C430 C296 1.636 . S
C425 C118 1.612 . S
C435 C1 1.628 . S
C440 C212 1.672 . S
