# Generated by pormake.
# Topology zzz, (3,6)-cn, num edge types: 1
# Building blocks:
#     Node 0, Type 0, BuildingBlock: KAKCAD_clean_linker_0, # of connection points: 3
#     Node 1, Type 0, BuildingBlock: KAKCAD_clean_linker_0, # of connection points: 3
#     Node 2, Type 0, BuildingBlock: KAKCAD_clean_linker_0, # of connection points: 3
#     Node 3, Type 0, BuildingBlock: KAKCAD_clean_linker_0, # of connection points: 3
#     Node 4, Type 0, BuildingBlock: KAKCAD_clean_linker_0, # of connection points: 3
#     Node 5, Type 0, BuildingBlock: KAKCAD_clean_linker_0, # of connection points: 3
#     Node 6, Type 0, BuildingBlock: KAKCAD_clean_linker_0, # of connection points: 3
#     Node 7, Type 0, BuildingBlock: KAKCAD_clean_linker_0, # of connection points: 3
#     Node 8, Type 1, BuildingBlock: PAMTOO_clean_sbu_0, # of connection points: 6
#     Node 9, Type 1, BuildingBlock: PAMTOO_clean_sbu_0, # of connection points: 6
#     Node 10, Type 1, BuildingBlock: PAMTOO_clean_sbu_0, # of connection points: 6
#     Node 11, Type 1, BuildingBlock: PAMTOO_clean_sbu_0, # of connection points: 6
#     Edge 12, Type (0, 1), BuildingBlock: MIFKUJ_clean_linker_0, # of connection points: 2
#     Edge 13, Type (0, 1), BuildingBlock: MIFKUJ_clean_linker_0, # of connection points: 2
#     Edge 14, Type (0, 1), BuildingBlock: MIFKUJ_clean_linker_0, # of connection points: 2
#     Edge 15, Type (0, 1), BuildingBlock: MIFKUJ_clean_linker_0, # of connection points: 2
#     Edge 16, Type (0, 1), BuildingBlock: MIFKUJ_clean_linker_0, # of connection points: 2
#     Edge 17, Type (0, 1), BuildingBlock: MIFKUJ_clean_linker_0, # of connection points: 2
#     Edge 18, Type (0, 1), BuildingBlock: MIFKUJ_clean_linker_0, # of connection points: 2
#     Edge 19, Type (0, 1), BuildingBlock: MIFKUJ_clean_linker_0, # of connection points: 2
#     Edge 20, Type (0, 1), BuildingBlock: MIFKUJ_clean_linker_0, # of connection points: 2
#     Edge 21, Type (0, 1), BuildingBlock: MIFKUJ_clean_linker_0, # of connection points: 2
#     Edge 22, Type (0, 1), BuildingBlock: MIFKUJ_clean_linker_0, # of connection points: 2
#     Edge 23, Type (0, 1), BuildingBlock: MIFKUJ_clean_linker_0, # of connection points: 2
#     Edge 24, Type (0, 1), BuildingBlock: MIFKUJ_clean_linker_0, # of connection points: 2
#     Edge 25, Type (0, 1), BuildingBlock: MIFKUJ_clean_linker_0, # of connection points: 2
#     Edge 26, Type (0, 1), BuildingBlock: MIFKUJ_clean_linker_0, # of connection points: 2
#     Edge 27, Type (0, 1), BuildingBlock: MIFKUJ_clean_linker_0, # of connection points: 2
#     Edge 28, Type (0, 1), BuildingBlock: MIFKUJ_clean_linker_0, # of connection points: 2
#     Edge 29, Type (0, 1), BuildingBlock: MIFKUJ_clean_linker_0, # of connection points: 2
#     Edge 30, Type (0, 1), BuildingBlock: MIFKUJ_clean_linker_0, # of connection points: 2
#     Edge 31, Type (0, 1), BuildingBlock: MIFKUJ_clean_linker_0, # of connection points: 2
#     Edge 32, Type (0, 1), BuildingBlock: MIFKUJ_clean_linker_0, # of connection points: 2
#     Edge 33, Type (0, 1), BuildingBlock: MIFKUJ_clean_linker_0, # of connection points: 2
#     Edge 34, Type (0, 1), BuildingBlock: MIFKUJ_clean_linker_0, # of connection points: 2
#     Edge 35, Type (0, 1), BuildingBlock: MIFKUJ_clean_linker_0, # of connection points: 2
# Relax obj value: 0.326
# Max RMSD: 0.268
# Mean RMSD: 0.216
data_MOF--net-zzz--node1-PAMTOO_clean_sbu_0--node2-KAKCAD_clean_linker_0--edge1-MIFKUJ_clean_linker_0
_symmetry_space_group_name_H-M    P1
_symmetry_Int_Tables_number       1
_symmetry_cell_setting            triclinic
loop_
_symmetry_equiv_pos_as_xyz
'x, y, z'
_cell_length_a     78.534256
_cell_length_b     70.080469
_cell_length_c     26.117164
_cell_angle_alpha  90.594844
_cell_angle_beta   83.366917
_cell_angle_gamma 84.93305
loop_
_atom_site_label
_atom_site_type_symbol
_atom_site_fract_x
_atom_site_fract_y
_atom_site_fract_z
_atom_type_partial_charge
C0 C 0.79748 0.56341 0.15518 0.0
C1 C 0.81518 0.55757 0.14982 0.0
C2 C 0.78693 0.55897 0.19967 0.0
C3 C 0.79388 0.54834 0.23909 0.0
C4 C 0.81169 0.54315 0.23408 0.0
C5 C 0.82218 0.54779 0.19028 0.0
C6 C 0.78267 0.54103 0.28307 0.0
C7 C 0.76694 0.53415 0.27534 0.0
C8 C 0.75744 0.52466 0.31443 0.0
C9 C 0.764 0.52163 0.36224 0.0
C10 C 0.77969 0.52894 0.37097 0.0
C11 C 0.78857 0.53891 0.3315 0.0
C12 C 0.78824 0.52543 0.41858 0.0
C13 C 0.79428 0.54096 0.44345 0.0
C14 C 0.79407 0.50674 0.43152 0.0
C15 C 0.80675 0.50372 0.4653 0.0
C16 C 0.8139 0.51935 0.48637 0.0
C17 C 0.74114 0.51756 0.30178 0.0
C18 C 0.72588 0.52984 0.30822 0.0
C19 C 0.74184 0.50108 0.2703 0.0
C20 C 0.72796 0.49754 0.24334 0.0
C21 C 0.71307 0.5105 0.24688 0.0
C22 C 0.71195 0.52629 0.28134 0.0
C23 C 0.80697 0.53797 0.4767 0.0
H24 H 0.79175 0.57088 0.1244 0.0
H25 H 0.77329 0.56341 0.20253 0.0
H26 H 0.81752 0.5345 0.26265 0.0
H27 H 0.83568 0.54254 0.18673 0.0
H28 H 0.76228 0.53544 0.2379 0.0
H29 H 0.80066 0.54436 0.33795 0.0
H30 H 0.75705 0.51374 0.39203 0.0
H31 H 0.79008 0.55553 0.43415 0.0
H32 H 0.78987 0.4945 0.41237 0.0
H33 H 0.81182 0.4892 0.47194 0.0
H34 H 0.72521 0.54294 0.33104 0.0
H35 H 0.7536 0.49164 0.26369 0.0
H36 H 0.81197 0.55032 0.49295 0.0
H37 H 0.70079 0.53668 0.2848 0.0
H38 H 0.72921 0.48508 0.21785 0.0
C39 C 0.97354 0.76184 0.14698 0.0
C40 C 0.9846 0.77655 0.14506 0.0
C41 C 0.97251 0.7496 0.18901 0.0
C42 C 0.9827 0.7518 0.22927 0.0
C43 C 0.99389 0.76642 0.2266 0.0
C44 C 0.99476 0.77869 0.18516 0.0
C45 C 0.98233 0.7386 0.27325 0.0
C46 C 0.98193 0.71891 0.26532 0.0
C47 C 0.98358 0.70606 0.30571 0.0
C48 C 0.98599 0.71315 0.35511 0.0
C49 C 0.98591 0.73313 0.36358 0.0
C50 C 0.98379 0.74557 0.32276 0.0
C51 C 0.98906 0.74218 0.41275 0.0
C52 C 0.97508 0.7514 0.44481 0.0
C53 C 1.00566 0.74751 0.41729 0.0
C54 C 1.00804 0.76289 0.44962 0.0
C55 C 0.99387 0.77326 0.47832 0.0
C56 C 0.98343 0.68539 0.29271 0.0
C57 C 0.96918 0.67934 0.27115 0.0
C58 C 0.99869 0.67316 0.28862 0.0
C59 C 1.00007 0.65591 0.25988 0.0
C60 C 0.98624 0.65062 0.23436 0.0
C61 C 0.97055 0.66224 0.24234 0.0
C62 C 0.97747 0.76669 0.47763 0.0
H63 H 0.96561 0.75995 0.11634 0.0
H64 H 0.96371 0.73852 0.19011 0.0
H65 H 1.00231 0.76816 0.25606 0.0
H66 H 1.00369 0.78966 0.18393 0.0
H67 H 0.98107 0.71338 0.22685 0.0
H68 H 0.98378 0.76087 0.32951 0.0
H69 H 0.98781 0.70336 0.38624 0.0
H70 H 0.96209 0.74799 0.44088 0.0
H71 H 0.01659 0.74101 0.39201 0.0
H72 H 0.02087 0.76744 0.44973 0.0
H73 H 0.95734 0.68866 0.27303 0.0
H74 H 0.00995 0.67763 0.30418 0.0
H75 H 0.96627 0.7744 0.49902 0.0
H76 H 0.95963 0.65896 0.22316 0.0
H77 H 0.01225 0.64719 0.25567 0.0
C78 C 0.74276 0.98838 0.07588 0.0
C79 C 0.73147 0.005 0.07312 0.0
C80 C 0.75425 0.98712 0.11302 0.0
C81 C 0.75447 0.00237 0.14801 0.0
C82 C 0.74404 0.01938 0.14322 0.0
C83 C 0.73277 0.02076 0.10576 0.0
C84 C 0.764 -0.0001 0.19307 0.0
C85 C 0.78188 0.99663 0.1873 0.0
C86 C 0.79089 0.99505 0.23067 0.0
C87 C 0.78166 0.99613 0.28073 0.0
C88 C 0.76346 0.99921 0.28648 0.0
C89 C 0.75492 0.00116 0.24232 0.0
C90 C 0.75249 0.00058 0.33702 0.0
C91 C 0.75042 0.98427 0.36708 0.0
C92 C 0.74072 0.0168 0.34793 0.0
C93 C 0.72637 0.01623 0.38474 0.0
C94 C 0.72339 0.99943 0.41227 0.0
C95 C 0.80991 0.99372 0.22077 0.0
C96 C 0.81905 0.9761 0.20494 0.0
C97 C 0.81803 0.01063 0.21186 0.0
C98 C 0.83447 0.01009 0.18431 0.0
C99 C 0.84317 0.99259 0.16519 0.0
C100 C 0.83561 0.97552 0.17784 0.0
C101 C 0.73606 0.98373 0.40449 0.0
H102 H 0.74201 0.97595 0.05152 0.0
H103 H 0.76221 0.97385 0.11643 0.0
H104 H 0.74419 0.03135 0.16972 0.0
H105 H 0.72455 0.03392 0.10374 0.0
H106 H 0.78887 0.99595 0.14888 0.0
H107 H 0.74098 0.00344 0.24626 0.0
H108 H 0.7885 0.99498 0.31444 0.0
H109 H 0.75915 0.97147 0.35903 0.0
H110 H 0.74187 0.02948 0.32482 0.0
H111 H 0.71701 0.0286 0.38863 0.0
H112 H 0.81286 0.96293 0.20999 0.0
H113 H 0.81108 0.02441 0.22248 0.0
H114 H 0.73455 0.97067 0.42564 0.0
H115 H 0.8419 0.96183 0.16338 0.0
H116 H 0.84001 0.02347 0.17563 0.0
C117 C 0.5545 0.70708 0.32107 0.0
C118 C 0.56794 0.69275 0.32588 0.0
C119 C 0.55613 0.72059 0.28195 0.0
C120 C 0.57123 0.72002 0.24728 0.0
C121 C 0.58519 0.70687 0.25513 0.0
C122 C 0.58359 0.69342 0.2941 0.0
C123 C 0.57086 0.72895 0.19628 0.0
C124 C 0.56949 0.74892 0.18949 0.0
C125 C 0.56881 0.7563 0.1396 0.0
C126 C 0.56867 0.74367 0.09752 0.0
C127 C 0.56945 0.72385 0.10442 0.0
C128 C 0.57091 0.71665 0.15362 0.0
C129 C 0.56684 0.71058 0.06218 0.0
C130 C 0.55269 0.71419 0.03426 0.0
C131 C 0.57693 0.69299 0.05467 0.0
C132 C 0.57216 0.67872 0.02297 0.0
C133 C 0.55717 0.68174 0.99842 0.0
C134 C 0.56753 0.77711 0.12989 0.0
C135 C 0.55268 0.78882 0.14886 0.0
C136 C 0.57988 0.78459 0.09428 0.0
C137 C 0.57705 0.80312 0.07589 0.0
C138 C 0.56167 0.81446 0.09216 0.0
C139 C 0.54971 0.80731 0.12991 0.0
C140 C 0.54787 0.69988 0.00269 0.0
H141 H 0.54226 0.70692 0.3448 0.0
H142 H 0.54508 0.73036 0.27601 0.0
H143 H 0.5969 0.70605 0.22853 0.0
H144 H 0.59429 0.68283 0.29743 0.0
H145 H 0.56919 0.75856 0.22236 0.0
H146 H 0.57113 0.70132 0.15944 0.0
H147 H 0.56752 0.74932 0.05944 0.0
H148 H 0.54461 0.72758 0.03967 0.0
H149 H 0.58804 0.68996 0.07524 0.0
H150 H 0.57981 0.66503 0.01943 0.0
H151 H 0.54289 0.78324 0.17583 0.0
H152 H 0.59136 0.77572 0.07877 0.0
H153 H 0.53621 0.70262 0.98448 0.0
H154 H 0.5378 0.81578 0.14338 0.0
H155 H 0.58643 0.80809 0.04649 0.0
C156 C 0.23512 0.45695 0.23122 0.0
C157 C 0.21912 0.44946 0.23111 0.0
C158 C 0.24606 0.45794 0.18555 0.0
C159 C 0.24151 0.45094 0.13874 0.0
C160 C 0.22628 0.44171 0.13967 0.0
C161 C 0.21512 0.44116 0.18521 0.0
C162 C 0.25175 0.45496 0.08903 0.0
C163 C 0.26954 0.45604 0.08648 0.0
C164 C 0.27902 0.46271 0.04249 0.0
C165 C 0.27054 0.4677 0.99886 0.0
C166 C 0.25275 0.46551 0.99984 0.0
C167 C 0.24357 0.45946 0.04517 0.0
C168 C 0.24281 0.46956 0.95538 0.0
C169 C 0.23623 0.48835 0.94634 0.0
C170 C 0.23616 0.4543 0.93127 0.0
C171 C 0.2226 0.45762 0.90104 0.0
C172 C 0.21517 0.47635 0.89447 0.0
C173 C 0.29749 0.46504 0.04635 0.0
C174 C 0.3029 0.48339 0.05326 0.0
C175 C 0.30821 0.449 0.0587 0.0
C176 C 0.3231 0.45127 0.08198 0.0
C177 C 0.32774 0.46964 0.09324 0.0
C178 C 0.31796 0.48568 0.07627 0.0
C179 C 0.22259 0.49172 0.91613 0.0
H180 H 0.23881 0.46306 0.26613 0.0
H181 H 0.25757 0.46526 0.18678 0.0
H182 H 0.22257 0.43564 0.10476 0.0
H183 H 0.20289 0.4353 0.18347 0.0
H184 H 0.2761 0.45221 0.11973 0.0
H185 H 0.22976 0.45898 0.0465 0.0
H186 H 0.27769 0.47289 0.96464 0.0
H187 H 0.24082 0.50035 0.96545 0.0
H188 H 0.24069 0.43965 0.93874 0.0
H189 H 0.21722 0.44537 0.88574 0.0
H190 H 0.29471 0.496 0.04522 0.0
H191 H 0.30424 0.43471 0.05447 0.0
H192 H 0.21743 0.50635 0.9114 0.0
H193 H 0.32116 0.50002 0.08452 0.0
H194 H 0.33047 0.43863 0.09392 0.0
C195 C 0.05303 0.25102 0.25179 0.0
C196 C 0.06026 0.23215 0.24104 0.0
C197 C 0.05148 0.26395 0.21202 0.0
C198 C 0.05749 0.25842 0.16068 0.0
C199 C 0.06655 0.2403 0.15093 0.0
C200 C 0.06779 0.22724 0.19057 0.0
C201 C 0.05217 0.27037 0.11753 0.0
C202 C 0.05017 0.29037 0.12238 0.0
C203 C 0.04189 0.30162 0.08683 0.0
C204 C 0.0361 0.29263 0.0441 0.0
C205 C 0.03904 0.27253 0.03716 0.0
C206 C 0.04689 0.26167 0.07416 0.0
C207 C 0.03335 0.26176 0.99393 0.0
C208 C 0.01732 0.25414 0.00071 0.0
C209 C 0.04563 0.25445 0.9535 0.0
C210 C 0.04235 0.23905 0.92243 0.0
C211 C 0.02679 0.23042 0.93161 0.0
C212 C 0.03815 0.32236 0.09976 0.0
C213 C 0.02132 0.3296 0.11851 0.0
C214 C 0.05182 0.33336 0.10724 0.0
C215 C 0.04892 0.35044 0.13649 0.0
C216 C 0.03226 0.35685 0.15938 0.0
C217 C 0.0184 0.34667 0.14808 0.0
C218 C 0.01405 0.23868 0.96984 0.0
H219 H 0.04753 0.25546 0.29048 0.0
H220 H 0.04442 0.27776 0.22131 0.0
H221 H 0.07178 0.23577 0.11209 0.0
H222 H 0.07349 0.21285 0.18065 0.0
H223 H 0.05431 0.29727 0.15559 0.0
H224 H 0.04803 0.24617 0.07015 0.0
H225 H 0.0294 0.3011 0.01691 0.0
H226 H 1.00781 0.25918 0.03243 0.0
H227 H 0.05828 0.25969 0.94849 0.0
H228 H 0.05253 0.23302 0.89378 0.0
H229 H 0.01059 0.32125 0.11411 0.0
H230 H 0.06495 0.32792 0.09397 0.0
H231 H 1.00183 0.23259 0.97758 0.0
H232 H 1.00537 0.35134 0.16439 0.0
H233 H 0.05993 0.35776 0.1445 0.0
C234 C 0.28764 0.01238 0.31539 0.0
C235 C 0.29829 0.02747 0.31631 0.0
C236 C 0.27571 0.01213 0.27978 0.0
C237 C 0.27437 0.02684 0.24409 0.0
C238 C 0.28404 0.04261 0.24734 0.0
C239 C 0.29577 0.04303 0.28353 0.0
C240 C 0.26466 0.02443 0.19971 0.0
C241 C 0.24769 0.01965 0.20702 0.0
C242 C 0.23902 0.01539 0.16485 0.0
C243 C 0.24772 0.0156 0.11427 0.0
C244 C 0.26494 0.02047 0.10663 0.0
C245 C 0.27308 0.02505 0.14971 0.0
C246 C 0.27559 0.01965 0.05541 0.0
C247 C 0.27909 0.00236 0.02694 0.0
C248 C 0.28538 0.035 0.04095 0.0
C249 C 0.29925 0.03267 0.00202 0.0
C250 C 0.30372 0.01492 0.97598 0.0
C251 C 0.221 0.01054 0.17661 0.0
C252 C 0.21784 0.99404 0.20496 0.0
C253 C 0.20728 0.02452 0.17271 0.0
C254 C 0.19101 0.02268 0.1999 0.0
C255 C 0.18826 0.0069 0.23184 0.0
C256 C 0.20167 0.99222 0.23214 0.0
C257 C 0.29299 2e-05 0.98759 0.0
H258 H 0.28932 4e-05 0.33951 0.0
H259 H 0.26844 0.99976 0.2777 0.0
H260 H 0.28304 0.05421 0.22045 0.0
H261 H 0.30347 0.05509 0.28405 0.0
H262 H 0.2412 0.01914 0.24593 0.0
H263 H 0.28648 0.02808 0.14449 0.0
H264 H 0.24126 0.01189 0.08157 0.0
H265 H 0.27189 0.99022 0.03751 0.0
H266 H 0.28305 0.04847 0.06241 0.0
H267 H 0.30713 0.04449 0.995 0.0
H268 H 0.22829 0.9832 0.20924 0.0
H269 H 0.2095 0.03758 0.15213 0.0
H270 H 0.29572 0.98626 0.96774 0.0
H271 H 0.19992 0.97973 0.2556 0.0
H272 H 0.18098 0.03428 0.19893 0.0
C273 C 0.45641 0.29929 0.06187 0.0
C274 C 0.47374 0.30194 0.04573 0.0
C275 C 0.45211 0.28671 0.10154 0.0
C276 C 0.46503 0.27642 0.12569 0.0
C277 C 0.48232 0.27759 0.10615 0.0
C278 C 0.48664 0.29028 0.06662 0.0
C279 C 0.46089 0.26953 0.17873 0.0
C280 C 0.4658 0.25075 0.19357 0.0
C281 C 0.46404 0.24605 0.24623 0.0
C282 C 0.45787 0.26042 0.28353 0.0
C283 C 0.45328 0.27922 0.26911 0.0
C284 C 0.45411 0.28332 0.21657 0.0
C285 C 0.44987 0.2951 0.30822 0.0
C286 C 0.44095 0.29261 0.35735 0.0
C287 C 0.45672 0.31269 0.2974 0.0
C288 C 0.4549 0.32729 0.33449 0.0
C289 C 0.44638 0.3247 0.38381 0.0
C290 C 0.46929 0.22654 0.26391 0.0
C291 C 0.46263 0.21026 0.24493 0.0
C292 C 0.47961 0.22444 0.30436 0.0
C293 C 0.48231 0.20677 0.32757 0.0
C294 C 0.47476 0.19069 0.31101 0.0
C295 C 0.46534 0.19245 0.26831 0.0
C296 C 0.43935 0.30726 0.39502 0.0
H297 H 0.44613 0.30807 0.04689 0.0
H298 H 0.43869 0.28626 0.11643 0.0
H299 H 0.49252 0.27005 0.12461 0.0
H300 H 0.50011 0.29175 0.05444 0.0
H301 H 0.47137 0.2401 0.16463 0.0
H302 H 0.45053 0.2978 0.20494 0.0
H303 H 0.45726 0.25707 0.32407 0.0
H304 H 0.43544 0.2793 0.3669 0.0
H305 H 0.4642 0.31499 0.26085 0.0
H306 H 0.46092 0.34035 0.32525 0.0
H307 H 0.45459 0.2115 0.21388 0.0
H308 H 0.48517 0.23667 0.31919 0.0
H309 H 0.43284 0.30491 0.43298 0.0
H310 H 0.45938 0.18032 0.2546 0.0
H311 H 0.49002 0.20579 0.35943 0.0
Dy312 Dy 1.00053 0.01058 0.65489 0.0
Dy313 Dy 0.02758 0.99454 0.7329 0.0
C314 C 0.04106 0.00651 0.62001 0.0
O315 O 0.99684 0.97929 0.65986 0.0
O316 O 0.02351 0.96965 0.68233 0.0
O317 O 0.98982 0.00854 0.58274 0.0
O318 O 0.98103 0.03219 0.63592 0.0
O319 O 1.00184 0.98707 0.76943 0.0
O320 O 0.98472 0.00968 0.73174 0.0
O321 O 0.02029 0.02518 0.75702 0.0
O322 O 0.01384 0.03584 0.67862 0.0
O323 O 0.0347 0.98969 0.80954 0.0
O324 O 0.05246 0.9803 0.74276 0.0
C325 C 1.00918 0.96573 0.66468 0.0
O326 O 0.02588 0.00349 0.60693 0.0
O327 O 0.04349 0.00796 0.66873 0.0
C328 C 0.98696 0.03922 0.54916 0.0
C329 C 0.99778 0.06781 0.48143 0.0
C330 C 0.00979 0.0565 0.50659 0.0
C331 C 1.00441 0.04242 0.54017 0.0
C332 C 0.9749 0.05009 0.52341 0.0
C333 C 0.98028 0.06435 0.48963 0.0
C334 C 0.98171 0.02562 0.58876 0.0
C335 C 0.98705 0.99733 0.76842 0.0
C336 C 0.01755 0.03927 0.72544 0.0
C337 C 0.049 0.9591 0.8102 0.0
C338 C 0.04827 0.92126 0.84368 0.0
C339 C 0.03722 0.92836 0.80849 0.0
C340 C 0.03746 0.94715 0.79242 0.0
C341 C 0.06036 0.95208 0.84461 0.0
C342 C 0.05989 0.93321 0.86172 0.0
C343 C 0.04857 0.97882 0.79235 0.0
H344 H 0.02328 0.05907 0.50219 0.0
H345 H 0.01387 0.03443 0.56054 0.0
H346 H 0.96136 0.04787 0.53035 0.0
H347 H 0.97077 0.07286 0.47063 0.0
H348 H 0.0278 0.91966 0.79513 0.0
H349 H 0.02834 0.95251 0.76685 0.0
H350 H 0.06929 0.96121 0.8588 0.0
H351 H 0.06838 0.92804 0.8894 0.0
Dy352 Dy 0.50998 0.98187 0.64785 0.0
Dy353 Dy 0.517 0.01342 0.73326 0.0
C354 C 0.50313 0.02711 0.62932 0.0
O355 O 0.53873 0.98064 0.64513 0.0
O356 O 0.53971 0.01152 0.6724 0.0
O357 O 0.51519 0.96966 0.57077 0.0
O358 O 0.49702 0.95749 0.62717 0.0
O359 O 0.52999 0.98547 0.75493 0.0
O360 O 0.51222 0.96605 0.72087 0.0
O361 O 0.49037 0.00525 0.75803 0.0
O362 O 0.48374 0.99477 0.68004 0.0
O363 O 0.5158 0.02206 0.81321 0.0
O364 O 0.52705 0.03985 0.75354 0.0
C365 C 0.54722 0.99584 0.64876 0.0
O366 O 0.50889 0.01021 0.60892 0.0
O367 O 0.50197 0.0304 0.67925 0.0
C368 C 0.48914 0.96118 0.54421 0.0
C369 C 0.45893 0.96867 0.49686 0.0
C370 C 0.47015 0.98302 0.50056 0.0
C371 C 0.48507 0.97934 0.52423 0.0
C372 C 0.47844 0.94653 0.53822 0.0
C373 C 0.46341 0.95025 0.51473 0.0
C374 C 0.50269 0.95854 0.57846 0.0
C375 C 0.52324 0.96906 0.75348 0.0
C376 C 0.47901 0.00052 0.72803 0.0
C377 C 0.5418 0.03494 0.82676 0.0
C378 C 0.57498 0.02767 0.85747 0.0
C379 C 0.56134 0.01759 0.87937 0.0
C380 C 0.54492 0.0212 0.86426 0.0
C381 C 0.55515 0.04596 0.80764 0.0
C382 C 0.57159 0.04233 0.82275 0.0
C383 C 0.52564 0.03589 0.8025 0.0
H384 H 0.46692 0.99742 0.48783 0.0
H385 H 0.49294 0.99101 0.52923 0.0
H386 H 0.48126 0.93251 0.55395 0.0
H387 H 0.45502 0.93891 0.51196 0.0
H388 H 0.56345 0.00655 0.90727 0.0
H389 H 0.5349 0.01258 0.88034 0.0
H390 H 0.55311 0.05672 0.77896 0.0
H391 H 0.58179 0.05041 0.80531 0.0
Dy392 Dy 0.53583 0.4948 0.70155 0.0
Dy393 Dy 0.49613 0.49913 0.65919 0.0
C394 C 0.50601 0.47121 0.75262 0.0
O395 O 0.5326 0.46936 0.6521 0.0
O396 O 0.51711 0.48734 0.60064 0.0
O397 O 0.55681 0.47786 0.73137 0.0
O398 O 0.55946 0.50745 0.71175 0.0
O399 O 0.50874 0.52493 0.63109 0.0
O400 O 0.53725 0.51374 0.6323 0.0
O401 O 0.49179 0.51584 0.7334 0.0
O402 O 0.5202 0.51795 0.74929 0.0
O403 O 0.47254 0.51323 0.63539 0.0
O404 O 0.47803 0.48242 0.6272 0.0
C405 C 0.52495 0.47083 0.61017 0.0
O406 O 0.5187 0.48129 0.76198 0.0
O407 O 0.49778 0.47405 0.71177 0.0
C408 C 0.57555 0.49497 0.77773 0.0
C409 C 0.59521 0.49895 0.86147 0.0
C410 C 0.57981 0.48984 0.86793 0.0
C411 C 0.57009 0.48784 0.82648 0.0
C412 C 0.59064 0.50445 0.77164 0.0
C413 C 0.60032 0.50644 0.81284 0.0
C414 C 0.56637 0.49215 0.73192 0.0
C415 C 0.52528 0.52654 0.61885 0.0
C416 C 0.50352 0.52277 0.75874 0.0
C417 C 0.4592 0.4971 0.571 0.0
C418 C 0.44109 0.49301 0.48403 0.0
C419 C 0.45877 0.4869 0.48146 0.0
C420 C 0.46772 0.48883 0.52463 0.0
C421 C 0.44176 0.50373 0.57301 0.0
C422 C 0.43281 0.50172 0.53019 0.0
C423 C 0.46746 0.49721 0.61927 0.0
H424 H 0.57549 0.48379 0.90463 0.0
H425 H 0.55848 0.48048 0.8324 0.0
H426 H 0.59511 0.51014 0.73455 0.0
H427 H 0.61187 0.51388 0.80648 0.0
H428 H 0.46554 0.48004 0.44669 0.0
H429 H 0.48115 0.48344 0.52217 0.0
H430 H 0.43488 0.51004 0.60837 0.0
H431 H 0.41931 0.50686 0.53342 0.0
Dy432 Dy 0.01594 0.51988 0.66862 0.0
Dy433 Dy 1.00869 0.48146 0.73373 0.0
C434 C 0.02011 0.47903 0.61164 0.0
O435 O 0.98957 0.51308 0.65488 0.0
O436 O 0.98245 0.49655 0.72804 0.0
O437 O 0.01303 0.53685 0.60123 0.0
O438 O 0.02668 0.54723 0.6615 0.0
O439 O 0.00969 0.50503 0.79161 0.0
O440 O 1.0017 0.53075 0.74393 0.0
O441 O 0.0374 0.47955 0.71584 0.0
O442 O 0.04005 0.51156 0.70472 0.0
O443 O 0.01394 0.46271 0.79635 0.0
O444 O 0.99517 0.45607 0.74603 0.0
C445 C 0.97797 0.50584 0.68745 0.0
O446 O 0.02683 0.49545 0.61509 0.0
O447 O 0.01049 0.47247 0.65085 0.0
C448 C 0.03913 0.54988 0.57517 0.0
C449 C 0.0692 0.53897 0.50865 0.0
C450 C 0.07033 0.54594 0.55862 0.0
C451 C 0.0554 0.55139 0.59166 0.0
C452 C 0.03814 0.54533 0.52309 0.0
C453 C 0.05307 0.53975 0.49019 0.0
C454 C 0.02384 0.54877 0.61338 0.0
C455 C 1.00395 0.52311 0.78861 0.0
C456 C 0.04673 0.49425 0.7141 0.0
C457 C 0.9874 0.45308 0.83415 0.0
C458 C 0.95574 0.46129 0.89564 0.0
C459 C 0.96939 0.47271 0.89971 0.0
C460 C 0.98505 0.46865 0.8693 0.0
C461 C 0.9745 0.44046 0.83399 0.0
C462 C 0.95876 0.44451 0.86467 0.0
C463 C 1.00094 0.45287 0.79027 0.0
H464 H 0.08263 0.54554 0.57376 0.0
H465 H 0.05665 0.55512 0.63132 0.0
H466 H 0.02579 0.54438 0.509 0.0
H467 H 0.05193 0.53478 0.45142 0.0
H468 H 0.96756 0.48586 0.92263 0.0
H469 H 0.9947 0.47876 0.87007 0.0
H470 H 0.97605 0.42841 0.80702 0.0
H471 H 0.94859 0.43524 0.86145 0.0
H472 H 0.18599 0.99792 0.33352 0.0
H473 H 0.16037 0.99818 0.39576 0.0
H474 H 0.12859 0.01578 0.27747 0.0
H475 H 0.15446 0.01598 0.21486 0.0
H476 H 0.11701 0.03497 0.36238 0.0
H477 H 0.13155 0.96863 0.32374 0.0
H478 H 0.15012 0.93829 0.31138 0.0
H479 H 0.15925 0.94029 0.47022 0.0
H480 H 0.14092 0.97079 0.48338 0.0
H481 H 0.03986 0.0115 0.51648 0.0
H482 H 0.06404 0.01215 0.44858 0.0
H483 H 0.09967 0.00438 0.56203 0.0
H484 H 0.07555 0.00392 0.63034 0.0
H485 H 0.10795 0.97955 0.47588 0.0
H486 H 0.09291 0.04693 0.51167 0.0
H487 H 0.07318 0.07645 0.52164 0.0
H488 H 0.06348 0.07112 0.36387 0.0
H489 H 0.08289 0.04137 0.35326 0.0
C490 C 0.17354 0.0016 0.32043 0.0
C491 C 0.17229 0.00663 0.26888 0.0
C492 C 0.15884 0.00175 0.3562 0.0
C493 C 0.1424 0.00659 0.34135 0.0
C494 C 0.14108 0.01189 0.29001 0.0
C495 C 0.15588 0.01197 0.25418 0.0
C496 C 0.12674 0.00633 0.37984 0.0
C497 C 0.11491 0.0227 0.38654 0.0
C498 C 0.12397 0.99046 0.4121 0.0
C499 C 0.13497 0.97209 0.40442 0.0
C500 C 0.13762 0.96267 0.35595 0.0
C501 C 0.14809 0.94543 0.34881 0.0
C502 C 0.15589 0.93739 0.38996 0.0
C503 C 0.15321 0.94654 0.43837 0.0
C504 C 0.14277 0.9638 0.44571 0.0
C505 C 0.05283 0.01003 0.52712 0.0
C506 C 0.05574 0.00767 0.57899 0.0
C507 C 0.06665 0.01045 0.48819 0.0
C508 C 0.08369 0.00836 0.50015 0.0
C509 C 0.08664 0.00602 0.55186 0.0
C510 C 0.07282 0.00584 0.59091 0.0
C511 C 0.09846 0.00822 0.45872 0.0
C512 C 0.11006 0.99175 0.45147 0.0
C513 C 0.10085 0.02386 0.42554 0.0
C514 C 0.08922 0.04181 0.43182 0.0
C515 C 0.08644 0.05195 0.47924 0.0
C516 C 0.07532 0.06874 0.48501 0.0
C517 C 0.06704 0.07564 0.4435 0.0
C518 C 0.06986 0.06576 0.39608 0.0
C519 C 0.08093 0.04893 0.39016 0.0
H520 H 0.05849 0.08868 0.44808 0.0
H521 H 0.16399 0.92404 0.38436 0.0
H522 H 0.47065 0.18702 0.41527 0.0
H523 H 0.47425 0.15796 0.46481 0.0
H524 H 0.48503 0.12424 0.32386 0.0
H525 H 0.48134 0.15351 0.27363 0.0
H526 H 0.46466 0.10621 0.39833 0.0
H527 H 0.51772 0.13531 0.38692 0.0
H528 H 0.53637 0.16157 0.39297 0.0
H529 H 0.51972 0.1681 0.55516 0.0
H530 H 0.50076 0.14206 0.54994 0.0
H531 H 0.50336 0.02569 0.52428 0.0
H532 H 0.49722 0.0522 0.46724 0.0
H533 H 0.48622 0.09092 0.59869 0.0
H534 H 0.49251 0.06455 0.65604 0.0
H535 H 0.50762 0.10519 0.52375 0.0
H536 H 0.45408 0.07606 0.53414 0.0
H537 H 0.43629 0.04906 0.52773 0.0
H538 H 0.45462 0.04168 0.36683 0.0
H539 H 0.47274 0.0685 0.37241 0.0
C540 C 0.47386 0.17345 0.39466 0.0
C541 C 0.47603 0.17263 0.34044 0.0
C542 C 0.47585 0.15682 0.42309 0.0
C543 C 0.48023 0.13894 0.3981 0.0
C544 C 0.48172 0.1379 0.34396 0.0
C545 C 0.47963 0.15461 0.31533 0.0
C546 C 0.4839 0.12163 0.42895 0.0
C547 C 0.47422 0.10585 0.42522 0.0
C548 C 0.49623 0.12123 0.46454 0.0
C549 C 0.50771 0.13683 0.46793 0.0
C550 C 0.51794 0.14243 0.4238 0.0
C551 C 0.52858 0.15727 0.4271 0.0
C552 C 0.5292 0.16652 0.4744 0.0
C553 C 0.51921 0.16093 0.51854 0.0
C554 C 0.50853 0.14612 0.51544 0.0
C555 C 0.49953 0.03981 0.5412 0.0
C556 C 0.49848 0.04297 0.59485 0.0
C557 C 0.49594 0.05495 0.50845 0.0
C558 C 0.49115 0.07354 0.52866 0.0
C559 C 0.4899 0.07669 0.58221 0.0
C560 C 0.49346 0.06157 0.61498 0.0
C561 C 0.48815 0.08991 0.49401 0.0
C562 C 0.49805 0.10551 0.49685 0.0
C563 C 0.4761 0.09003 0.45756 0.0
C564 C 0.4649 0.07418 0.45382 0.0
C565 C 0.4544 0.06862 0.49744 0.0
C566 C 0.44424 0.05335 0.49396 0.0
C567 C 0.44435 0.04362 0.44694 0.0
C568 C 0.45457 0.04921 0.40324 0.0
C569 C 0.46477 0.06446 0.40653 0.0
H570 H 0.43651 0.03178 0.44436 0.0
H571 H 0.53744 0.17801 0.47687 0.0
H572 H 0.3311 0.4523 0.18475 0.0
H573 H 0.35211 0.45695 0.24495 0.0
H574 H 0.37611 0.49684 0.14164 0.0
H575 H 0.35476 0.49253 0.08125 0.0
H576 H 0.39906 0.46401 0.19342 0.0
H577 H 0.3559 0.51812 0.22737 0.0
H578 H 0.32599 0.53268 0.2444 0.0
H579 H 0.31799 0.49893 0.37992 0.0
H580 H 0.34779 0.48394 0.36319 0.0
H581 H 0.45026 0.49858 0.38041 0.0
H582 H 0.43294 0.49472 0.30922 0.0
H583 H 0.39201 0.47604 0.41634 0.0
H584 H 0.40909 0.48018 0.48729 0.0
H585 H 0.37845 0.49986 0.35681 0.0
H586 H 0.41931 0.44519 0.32758 0.0
H587 H 0.44766 0.42667 0.31175 0.0
H588 H 0.459 0.45667 0.17115 0.0
H589 H 0.43082 0.47562 0.18657 0.0
C590 C 0.34097 0.46189 0.17442 0.0
C591 C 0.34131 0.47195 0.12796 0.0
C592 C 0.35294 0.46457 0.20899 0.0
C593 C 0.36572 0.47717 0.19776 0.0
C594 C 0.36641 0.48696 0.15095 0.0
C595 C 0.35417 0.48457 0.11663 0.0
C596 C 0.37773 0.48063 0.23646 0.0
C597 C 0.39474 0.47218 0.22876 0.0
C598 C 0.37186 0.49064 0.28333 0.0
C599 C 0.35401 0.49978 0.29373 0.0
C600 C 0.34771 0.51367 0.26052 0.0
C601 C 0.33079 0.52203 0.27018 0.0
C602 C 0.32008 0.5167 0.31314 0.0
C603 C 0.32629 0.50303 0.34662 0.0
C604 C 0.3432 0.49461 0.33709 0.0
C605 C 0.43763 0.49349 0.38867 0.0
C606 C 0.43104 0.48985 0.43976 0.0
C607 C 0.42772 0.49124 0.34784 0.0
C608 C 0.41109 0.48499 0.357 0.0
C609 C 0.40469 0.48103 0.40794 0.0
C610 C 0.41449 0.48345 0.44866 0.0
C611 C 0.40002 0.48319 0.31434 0.0
C612 C 0.38304 0.49188 0.32135 0.0
C613 C 0.40588 0.47304 0.26732 0.0
C614 C 0.42303 0.46203 0.25862 0.0
C615 C 0.42793 0.44802 0.29362 0.0
C616 C 0.44396 0.43741 0.28464 0.0
C617 C 0.45515 0.44053 0.24055 0.0
C618 C 0.45034 0.4543 0.20536 0.0
C619 C 0.43434 0.46499 0.21421 0.0
H620 H 0.46752 0.43225 0.23357 0.0
H621 H 0.30699 0.52318 0.32056 0.0
H622 H 0.04759 0.39082 0.15916 0.0
H623 H 0.04571 0.41458 0.22958 0.0
H624 H 0.00993 0.3819 0.32155 0.0
H625 H 0.01164 0.35829 0.2515 0.0
H626 H 1.0 0.41854 0.33461 0.0
H627 H 0.05437 0.37997 0.33412 0.0
H628 H 0.08321 0.3663 0.29685 0.0
H629 H 0.09928 0.42291 0.27431 0.0
H630 H 0.07044 0.43692 0.31063 0.0
H631 H 1.00655 0.44569 0.58998 0.0
H632 H 1.00887 0.42839 0.5078 0.0
H633 H 0.04129 0.46973 0.43735 0.0
H634 H 0.03908 0.48727 0.5201 0.0
H635 H 0.05331 0.43286 0.4068 0.0
H636 H 1.00016 0.47149 0.41458 0.0
H637 H 0.9716 0.48551 0.45313 0.0
H638 H 0.95336 0.42953 0.46211 0.0
H639 H 0.98191 0.41512 0.42436 0.0
C640 C 0.03924 0.38876 0.19428 0.0
C641 C 0.02977 0.37258 0.19948 0.0
C642 C 0.03822 0.40234 0.23465 0.0
C643 C 0.02789 0.39994 0.28146 0.0
C644 C 0.01799 0.38416 0.28597 0.0
C645 C 0.01891 0.37068 0.24561 0.0
C646 C 0.02764 0.41341 0.32643 0.0
C647 C 0.01167 0.42152 0.35054 0.0
C648 C 0.04287 0.41793 0.34653 0.0
C649 C 0.06018 0.40949 0.32446 0.0
C650 C 0.064 0.3895 0.32075 0.0
C651 C 0.08036 0.38169 0.29985 0.0
C652 C 0.09305 0.39373 0.28302 0.0
C653 C 0.08942 0.4136 0.28717 0.0
C654 C 0.07307 0.42148 0.30789 0.0
C655 C 0.01426 0.45115 0.55724 0.0
C656 C 0.02257 0.46798 0.56186 0.0
C657 C 0.01549 0.44125 0.51003 0.0
C658 C 0.02501 0.4479 0.46603 0.0
C659 C 0.03377 0.46438 0.47066 0.0
C660 C 0.03249 0.47439 0.51804 0.0
C661 C 0.02567 0.4375 0.41556 0.0
C662 C 0.04167 0.43003 0.39046 0.0
C663 C 0.01048 0.4336 0.39443 0.0
C664 C 0.99324 0.4422 0.41697 0.0
C665 C 0.9901 0.46214 0.42513 0.0
C666 C 0.97391 0.47017 0.44679 0.0
C667 C 0.96068 0.45842 0.46014 0.0
C668 C 0.96362 0.43861 0.45177 0.0
C669 C 0.97981 0.43051 0.43019 0.0
H670 H 0.94815 0.46466 0.47689 0.0
H671 H 0.10571 0.38765 0.26692 0.0
H672 H 0.87346 0.96933 0.16273 0.0
H673 H 0.89873 0.96831 0.09729 0.0
H674 H 0.87352 0.01377 0.01593 0.0
H675 H 0.84843 0.01498 0.08111 0.0
H676 H 0.88825 0.98194 0.95185 0.0
H677 H 0.90382 0.02438 0.0828 0.0
H678 H 0.90921 0.0331 0.17084 0.0
H679 H 0.94836 0.98615 0.16798 0.0
H680 H 0.94303 0.97699 0.08011 0.0
H681 H 0.95407 0.01452 0.77647 0.0
H682 H 0.93068 0.01145 0.84515 0.0
H683 H 0.96374 0.97205 0.92318 0.0
H684 H 0.98735 0.97515 0.85463 0.0
H685 H 0.94584 0.99764 0.99081 0.0
H686 H 0.93241 0.95564 0.86111 0.0
H687 H 0.92755 0.94518 0.77401 0.0
H688 H 0.88497 0.98814 0.77533 0.0
H689 H 0.88975 0.99908 0.86222 0.0
C690 C 0.87337 0.97916 0.13102 0.0
C691 C 0.85899 0.99236 0.12743 0.0
C692 C 0.88782 0.97859 0.09371 0.0
C693 C 0.88804 0.99099 0.05169 0.0
C694 C 0.87366 0.00407 0.04796 0.0
C695 C 0.85938 0.00486 0.08555 0.0
C696 C 0.90312 0.99033 0.01119 0.0
C697 C 0.9008 0.98555 0.96025 0.0
C698 C 0.91966 0.99436 0.0224 0.0
C699 C 0.92288 0.99987 0.07515 0.0
C700 C 0.91346 0.01581 0.10113 0.0
C701 C 0.91653 0.02085 0.15096 0.0
C702 C 0.92908 0.01015 0.17505 0.0
C703 C 0.93862 0.9944 0.1493 0.0
C704 C 0.93559 0.98929 0.09949 0.0
C705 C 0.95641 0.00513 0.80806 0.0
C706 C 0.97265 0.99505 0.80975 0.0
C707 C 0.94296 0.00333 0.84734 0.0
C708 C 0.94533 0.99137 0.88927 0.0
C709 C 0.96155 0.98136 0.89128 0.0
C710 C 0.97503 0.9831 0.85187 0.0
C711 C 0.93092 0.98959 0.93111 0.0
C712 C 0.93334 0.99388 0.98232 0.0
C713 C 0.91452 0.98481 0.92029 0.0
C714 C 0.91154 0.9783 0.86804 0.0
C715 C 0.9221 0.96297 0.84268 0.0
C716 C 0.91934 0.95693 0.79336 0.0
C717 C 0.90598 0.96602 0.7691 0.0
C718 C 0.89533 0.98114 0.79416 0.0
C719 C 0.89805 0.98725 0.84348 0.0
H720 H 0.90387 0.96132 0.73092 0.0
H721 H 0.93144 0.01408 0.21362 0.0
H722 H 0.53152 0.82635 0.05504 0.0
H723 H 0.52573 0.85402 0.00136 0.0
H724 H 0.57653 0.87108 0.0137 0.0
H725 H 0.58244 0.84336 0.0677 0.0
H726 H 0.54985 0.90239 0.02077 0.0
H727 H 0.57181 0.84811 0.9112 0.0
H728 H 0.57295 0.81474 0.87924 0.0
H729 H 0.52132 0.82473 0.84028 0.0
H730 H 0.51977 0.8581 0.8728 0.0
H731 H 0.55069 0.96611 0.8098 0.0
H732 H 0.55816 0.94088 0.86944 0.0
H733 H 0.51342 0.91277 0.84 0.0
H734 H 0.50635 0.93745 0.77872 0.0
H735 H 0.53869 0.88717 0.84234 0.0
H736 H 0.51592 0.9409 0.9539 0.0
H737 H 0.51438 0.97441 0.98523 0.0
H738 H 0.5665 0.96577 0.02077 0.0
H739 H 0.56841 0.93225 0.9891 0.0
C740 C 0.54133 0.83622 0.04736 0.0
C741 C 0.55745 0.83266 0.0656 0.0
C742 C 0.53804 0.85195 0.01635 0.0
C743 C 0.55076 0.8645 0.00317 0.0
C744 C 0.56656 0.86155 0.02338 0.0
C745 C 0.56994 0.84568 0.05399 0.0
C746 C 0.54788 0.87989 0.96563 0.0
C747 C 0.5476 0.89911 0.98156 0.0
C748 C 0.5447 0.87558 0.91475 0.0
C749 C 0.54562 0.85555 0.89493 0.0
C750 C 0.56065 0.84315 0.89624 0.0
C751 C 0.56138 0.82424 0.87795 0.0
C752 C 0.5472 0.81761 0.85787 0.0
C753 C 0.53228 0.82988 0.85592 0.0
C754 C 0.53147 0.8488 0.87425 0.0
C755 C 0.54247 0.95453 0.81599 0.0
C756 C 0.52792 0.95379 0.78951 0.0
C757 C 0.54669 0.94016 0.8504 0.0
C758 C 0.5362 0.92502 0.86007 0.0
C759 C 0.52174 0.92425 0.83333 0.0
C760 C 0.51769 0.93841 0.79829 0.0
C761 C 0.54028 0.90984 0.89752 0.0
C762 C 0.54089 0.89057 0.88153 0.0
C763 C 0.54362 0.91415 0.94842 0.0
C764 C 0.54235 0.93413 0.96873 0.0
C765 C 0.52707 0.94617 0.96823 0.0
C766 C 0.52613 0.96516 0.98604 0.0
C767 C 0.54035 0.97223 0.00484 0.0
C768 C 0.55551 0.96028 0.00614 0.0
C769 C 0.55652 0.94128 0.98834 0.0
H770 H 0.53961 0.98695 0.01849 0.0
H771 H 0.54779 0.80297 0.8437 0.0
H772 H 0.71804 0.50047 0.14429 0.0
H773 H 0.69658 0.49904 0.08421 0.0
H774 H 0.65618 0.51544 0.20683 0.0
H775 H 0.67768 0.51662 0.26778 0.0
H776 H 0.64738 0.48658 0.14384 0.0
H777 H 0.66848 0.54808 0.12239 0.0
H778 H 0.69042 0.57117 0.10859 0.0
H779 H 0.70894 0.54477 0.96122 0.0
H780 H 0.68727 0.52132 0.97446 0.0
H781 H 0.58508 0.50639 0.96512 0.0
H782 H 0.6034 0.50882 0.03439 0.0
H783 H 0.64859 0.4969 0.92456 0.0
H784 H 0.63044 0.49441 0.85548 0.0
H785 H 0.65316 0.52559 0.98639 0.0
H786 H 0.63304 0.46289 0.0106 0.0
H787 H 0.61113 0.43977 0.02492 0.0
H788 H 0.59057 0.46868 0.16741 0.0
H789 H 0.61223 0.49214 0.15358 0.0
C790 C 0.70459 0.50348 0.1589 0.0
C791 C 0.69965 0.50859 0.21116 0.0
C792 C 0.69231 0.50285 0.12423 0.0
C793 C 0.67472 0.50734 0.14069 0.0
C794 C 0.66965 0.51197 0.19307 0.0
C795 C 0.68198 0.51274 0.22784 0.0
C796 C 0.66182 0.5075 0.10273 0.0
C797 C 0.64848 0.49534 0.10983 0.0
C798 C 0.66332 0.51871 0.05787 0.0
C799 C 0.67634 0.53283 0.04964 0.0
C800 C 0.67732 0.54709 0.08721 0.0
C801 C 0.68969 0.56027 0.07946 0.0
C802 C 0.70109 0.55941 0.03411 0.0
C803 C 0.70011 0.5454 0.99636 0.0
C804 C 0.68778 0.53217 0.00395 0.0
C805 C 0.59892 0.50411 0.95576 0.0
C806 C 0.60622 0.50025 0.90444 0.0
C807 C 0.60941 0.50552 0.9955 0.0
C808 C 0.62746 0.50292 0.98502 0.0
C809 C 0.63474 0.49908 0.93385 0.0
C810 C 0.6243 0.49771 0.89421 0.0
C811 C 0.63889 0.50435 0.0268 0.0
C812 C 0.65197 0.51688 0.0205 0.0
C813 C 0.63712 0.49349 0.07235 0.0
C814 C 0.62413 0.47938 0.08077 0.0
C815 C 0.62376 0.4644 0.04478 0.0
C816 C 0.6114 0.45122 0.05284 0.0
C817 C 0.59943 0.45279 0.09697 0.0
C818 C 0.59983 0.46751 0.1332 0.0
C819 C 0.61215 0.48074 0.12529 0.0
H820 H 0.58987 0.44257 0.10314 0.0
H821 H 0.71066 0.56963 0.02818 0.0
H822 H 0.01506 0.6387 0.16754 0.0
H823 H 0.01762 0.61535 0.09674 0.0
H824 H 0.96489 0.60349 0.13797 0.0
H825 H 0.96257 0.62586 0.2112 0.0
H826 H 0.98201 0.572 0.10485 0.0
H827 H 0.97731 0.63533 0.03946 0.0
H828 H 0.98479 0.66853 0.02652 0.0
H829 H 0.03514 0.64771 0.95543 0.0
H830 H 0.02803 0.61438 0.9686 0.0
H831 H 0.98716 0.5592 0.80233 0.0
H832 H 0.98294 0.57934 0.8807 0.0
H833 H 0.01016 0.53497 0.96086 0.0
H834 H 0.01384 0.51457 0.88343 0.0
H835 H 1.00377 0.59513 0.9328 0.0
H836 H 0.99618 0.53684 0.09017 0.0
H837 H 0.98458 0.50534 0.10055 0.0
H838 H 0.95164 0.51869 0.98307 0.0
H839 H 0.96295 0.5503 0.97251 0.0
C840 C 1.00411 0.63078 0.16272 0.0
C841 C 0.98852 0.63447 0.19524 0.0
C842 C 1.00552 0.61758 0.12144 0.0
C843 C 0.9913 0.60798 0.1108 0.0
C844 C 0.97603 0.61082 0.14477 0.0
C845 C 0.97466 0.62383 0.18651 0.0
C846 C 0.99212 0.59568 0.06319 0.0
C847 C 0.98684 0.57704 0.06729 0.0
C848 C 0.99789 0.60235 0.01365 0.0
C849 C 1.00219 0.62237 0.00546 0.0
C850 C 0.99002 0.63784 0.02137 0.0
C851 C 0.99418 0.65668 0.01397 0.0
C852 C 0.01045 0.66023 0.99029 0.0
C853 C 0.02256 0.64494 0.97384 0.0
C854 C 0.01846 0.62607 0.98123 0.0
C855 C 0.99214 0.55368 0.83675 0.0
C856 C 1.00081 0.53523 0.83649 0.0
C857 C 0.98978 0.56525 0.88159 0.0
C858 C 0.99611 0.55871 0.92713 0.0
C859 C 1.00483 0.54029 0.92678 0.0
C860 C 1.00699 0.52863 0.88223 0.0
C861 C 0.99399 0.57129 0.9745 0.0
C862 C 0.99902 0.59001 0.97035 0.0
C863 C 0.98744 0.56488 0.02365 0.0
C864 C 0.98048 0.54591 0.03029 0.0
C865 C 0.9864 0.53309 0.06675 0.0
C866 C 0.9799 0.51519 0.07262 0.0
C867 C 0.96741 0.50999 0.04244 0.0
C868 C 0.96135 0.52269 0.00638 0.0
C869 C 0.9678 0.54059 0.00042 0.0
H870 H 0.96242 0.49613 0.0471 0.0
H871 H 0.01365 0.67482 0.98458 0.0
H872 H 0.0317 0.22913 0.30968 0.0
H873 H 0.02416 0.20129 0.35866 0.0
H874 H 0.07383 0.172 0.30636 0.0
H875 H 0.08187 0.20027 0.2582 0.0
H876 H 0.04654 0.15306 0.28087 0.0
H877 H 0.06352 0.18161 0.43116 0.0
H878 H 0.06486 0.20669 0.49707 0.0
H879 H 0.01043 0.20713 0.54109 0.0
H880 H 1.00868 0.18233 0.47475 0.0
H881 H 0.02688 0.06844 0.41339 0.0
H882 H 0.0391 0.09661 0.37579 0.0
H883 H 0.99407 0.13221 0.44127 0.0
H884 H 0.98209 0.10418 0.48118 0.0
H885 H 0.02163 0.14716 0.4627 0.0
H886 H 1.00367 0.12197 0.3077 0.0
H887 H 1.00143 0.09726 0.24149 0.0
H888 H 0.05642 0.09128 0.20582 0.0
H889 H 0.059 0.11581 0.27226 0.0
C890 C 0.04139 0.21717 0.31016 0.0
C891 C 0.05739 0.21694 0.2795 0.0
C892 C 0.03698 0.20117 0.33814 0.0
C893 C 0.04842 0.18461 0.33596 0.0
C894 C 0.06482 0.18469 0.3083 0.0
C895 C 0.06934 0.2008 0.28063 0.0
C896 C 0.04221 0.16658 0.3563 0.0
C897 C 0.04142 0.15157 0.3209 0.0
C898 C 0.03499 0.16504 0.40806 0.0
C899 C 0.03595 0.18019 0.44757 0.0
C900 C 0.05179 0.1872 0.45445 0.0
C901 C 0.05263 0.20135 0.49199 0.0
C902 C 0.03774 0.20853 0.52316 0.0
C903 C 0.02196 0.20158 0.51686 0.0
C904 C 0.02104 0.18747 0.4793 0.0
C905 C 0.0195 0.08225 0.41939 0.0
C906 C 1.00358 0.08413 0.45059 0.0
C907 C 0.02645 0.09831 0.39756 0.0
C908 C 0.01752 0.11651 0.40576 0.0
C909 C 1.00122 0.11829 0.43468 0.0
C910 C 0.99429 0.10224 0.4569 0.0
C911 C 0.02568 0.13378 0.38707 0.0
C912 C 0.02684 0.1486 0.42275 0.0
C913 C 0.03306 0.13529 0.33541 0.0
C914 C 0.03153 0.12061 0.29523 0.0
C915 C 0.01529 0.1153 0.28596 0.0
C916 C 0.01396 0.10134 0.24835 0.0
C917 C 0.02878 0.09267 0.21954 0.0
C918 C 0.04496 0.09799 0.22819 0.0
C919 C 0.04636 0.11194 0.26576 0.0
H920 H 0.02772 0.08187 0.19046 0.0
H921 H 0.03842 0.21946 0.55226 0.0
H922 H 0.33049 0.03794 0.28548 0.0
H923 H 0.35666 0.02937 0.32427 0.0
H924 H 0.3275 0.00259 0.44935 0.0
H925 H 0.30087 0.01205 0.4121 0.0
H926 H 0.355 0.01976 0.48133 0.0
H927 H 0.34499 0.97561 0.35001 0.0
H928 H 0.33821 0.96569 0.26436 0.0
H929 H 0.38375 0.98882 0.19303 0.0
H930 H 0.39066 0.99916 0.27825 0.0
H931 H 0.42769 0.95911 0.5405 0.0
H932 H 0.39939 0.96964 0.51513 0.0
H933 H 0.42353 0.00045 0.38852 0.0
H934 H 0.4519 0.9897 0.41311 0.0
H935 H 0.39748 0.97943 0.3614 0.0
H936 H 0.40615 0.02505 0.49519 0.0
H937 H 0.41264 0.03389 0.58211 0.0
H938 H 0.36961 0.00546 0.65014 0.0
H939 H 0.36281 0.99651 0.56366 0.0
C940 C 0.32943 0.03088 0.32224 0.0
C941 C 0.31352 0.02551 0.34535 0.0
C942 C 0.34449 0.02578 0.34405 0.0
C943 C 0.34403 0.01493 0.38887 0.0
C944 C 0.32811 0.0108 0.41438 0.0
C945 C 0.31294 0.01608 0.39279 0.0
C946 C 0.36029 0.00641 0.4058 0.0
C947 C 0.3642 0.01075 0.45541 0.0
C948 C 0.37228 0.99467 0.37183 0.0
C949 C 0.36826 0.98831 0.3205 0.0
C950 C 0.35349 0.97871 0.31603 0.0
C951 C 0.34963 0.97299 0.26757 0.0
C952 C 0.36052 0.97666 0.22327 0.0
C953 C 0.37532 0.98601 0.22737 0.0
C954 C 0.37922 0.99179 0.27575 0.0
C955 C 0.42697 0.96783 0.50669 0.0
C956 C 0.44198 0.97354 0.47862 0.0
C957 C 0.41081 0.974 0.49265 0.0
C958 C 0.40943 0.98599 0.4504 0.0
C959 C 0.42438 0.99125 0.42139 0.0
C960 C 0.44054 0.98515 0.43552 0.0
C961 C 0.39237 0.99315 0.43638 0.0
C962 C 0.38827 0.98842 0.38734 0.0
C963 C 0.38018 0.00432 0.47107 0.0
C964 C 0.38405 0.01001 0.52302 0.0
C965 C 0.3981 0.02065 0.52871 0.0
C966 C 0.4018 0.02573 0.57787 0.0
C967 C 0.39152 0.02029 0.62158 0.0
C968 C 0.3775 0.00978 0.61626 0.0
C969 C 0.37368 0.00474 0.56719 0.0
H970 H 0.39442 0.02426 0.65953 0.0
H971 H 0.35751 0.97223 0.18578 0.0
H972 H 0.43809 0.36302 0.37708 0.0
H973 H 0.44811 0.38792 0.42935 0.0
H974 H 0.46619 0.34507 0.53246 0.0
H975 H 0.45639 0.31998 0.4798 0.0
H976 H 0.4525 0.38698 0.5753 0.0
H977 H 0.49415 0.34956 0.44909 0.0
H978 H 0.50158 0.33486 0.36223 0.0
H979 H 0.49342 0.38999 0.29434 0.0
H980 H 0.48563 0.40493 0.38088 0.0
H981 H 0.52042 0.43655 0.65676 0.0
H982 H 0.50388 0.41134 0.62792 0.0
H983 H 0.49733 0.44184 0.48795 0.0
H984 H 0.5138 0.46713 0.51653 0.0
H985 H 0.50477 0.40492 0.46756 0.0
H986 H 0.46554 0.44364 0.58677 0.0
H987 H 0.45247 0.46007 0.66762 0.0
H988 H 0.45207 0.40621 0.74428 0.0
H989 H 0.46515 0.38943 0.664 0.0
C990 C 0.4436 0.35899 0.412 0.0
C991 C 0.44678 0.3396 0.42397 0.0
C992 C 0.44924 0.37321 0.44189 0.0
C993 C 0.45807 0.3682 0.48413 0.0
C994 C 0.45935 0.34912 0.49996 0.0
C995 C 0.45374 0.33483 0.46989 0.0
C996 C 0.46896 0.38197 0.50403 0.0
C997 C 0.46412 0.39073 0.55249 0.0
C998 C 0.48375 0.38714 0.47313 0.0
C999 C 0.48923 0.37832 0.42134 0.0
C1000 C 0.49389 0.35852 0.4156 0.0
C1001 C 0.49816 0.35015 0.36646 0.0
C1002 C 0.49796 0.36148 0.32279 0.0
C1003 C 0.49357 0.38123 0.3282 0.0
C1004 C 0.48925 0.38966 0.37728 0.0
C1005 C 0.51589 0.43762 0.61917 0.0
C1006 C 0.51853 0.45372 0.58854 0.0
C1007 C 0.50623 0.42333 0.60314 0.0
C1008 C 0.49923 0.42482 0.55613 0.0
C1009 C 0.50259 0.44042 0.52443 0.0
C1010 C 0.51209 0.45478 0.5406 0.0
C1011 C 0.48847 0.41014 0.53954 0.0
C1012 C 0.49333 0.40112 0.49124 0.0
C1013 C 0.47354 0.40506 0.57043 0.0
C1014 C 0.46667 0.41529 0.61956 0.0
C1015 C 0.46296 0.43531 0.62107 0.0
C1016 C 0.45543 0.44469 0.66672 0.0
C1017 C 0.45149 0.4342 0.71106 0.0
C1018 C 0.45514 0.41432 0.70993 0.0
C1019 C 0.46263 0.40488 0.6644 0.0
H1020 H 0.44565 0.44149 0.74634 0.0
H1021 H 0.50121 0.35497 0.28476 0.0
H1022 H 0.19436 0.42602 0.26901 0.0
H1023 H 0.16868 0.4355 0.32942 0.0
H1024 H 0.18785 0.4902 0.35466 0.0
H1025 H 0.21305 0.48127 0.29388 0.0
H1026 H 0.16976 0.47687 0.44318 0.0
H1027 H 0.16409 0.48499 0.25925 0.0
H1028 H 0.16483 0.47258 0.17021 0.0
H1029 H 0.12662 0.43451 0.22078 0.0
H1030 H 0.12584 0.44651 0.31034 0.0
H1031 H 0.10216 0.54919 0.4906 0.0
H1032 H 0.12762 0.52894 0.45267 0.0
H1033 H 0.09568 0.48351 0.42686 0.0
H1034 H 0.07025 0.50378 0.46364 0.0
H1035 H 0.11866 0.48583 0.34749 0.0
H1036 H 0.11946 0.48333 0.52845 0.0
H1037 H 0.11806 0.49659 0.61664 0.0
H1038 H 0.16491 0.52292 0.57522 0.0
H1039 H 0.1663 0.51034 0.48616 0.0
C1040 C 0.19323 0.43994 0.2881 0.0
C1041 C 0.20568 0.45296 0.27592 0.0
C1042 C 0.17863 0.44526 0.32286 0.0
C1043 C 0.17634 0.46363 0.34588 0.0
C1044 C 0.18944 0.47593 0.33743 0.0
C1045 C 0.20392 0.47072 0.3026 0.0
C1046 C 0.15946 0.4714 0.37211 0.0
C1047 C 0.15852 0.47879 0.42256 0.0
C1048 C 0.14476 0.47349 0.34534 0.0
C1049 C 0.14508 0.46646 0.29149 0.0
C1050 C 0.15593 0.47388 0.25141 0.0
C1051 C 0.15635 0.46693 0.20087 0.0
C1052 C 0.14581 0.45272 0.18988 0.0
C1053 C 0.1348 0.44548 0.22939 0.0
C1054 C 0.13437 0.45234 0.28004 0.0
C1055 C 0.10061 0.53497 0.4762 0.0
C1056 C 0.08429 0.52807 0.47973 0.0
C1057 C 0.11512 0.52337 0.455 0.0
C1058 C 0.11356 0.50457 0.43805 0.0
C1059 C 0.09718 0.49793 0.4399 0.0
C1060 C 0.08266 0.50958 0.46054 0.0
C1061 C 0.12901 0.49185 0.41829 0.0
C1062 C 0.12968 0.48354 0.36896 0.0
C1063 C 0.14338 0.48884 0.44637 0.0
C1064 C 0.14289 0.49602 0.50035 0.0
C1065 C 0.12941 0.49206 0.53798 0.0
C1066 C 0.12861 0.49947 0.58817 0.0
C1067 C 0.14138 0.51063 0.60152 0.0
C1068 C 0.155 0.51433 0.56474 0.0
C1069 C 0.15579 0.50707 0.51437 0.0
H1070 H 0.14075 0.51637 0.6404 0.0
H1071 H 0.14615 0.44737 0.15073 0.0
H1072 H 0.98312 0.81523 0.14939 0.0
H1073 H 0.99153 0.83639 0.07964 0.0
H1074 H 0.99817 0.78853 0.97152 0.0
H1075 H 0.99016 0.76703 0.04234 0.0
H1076 H 0.02595 0.80718 0.96346 0.0
H1077 H 0.96727 0.82587 0.95947 0.0
H1078 H 0.93693 0.8352 0.99205 0.0
H1079 H 0.95131 0.88645 0.06058 0.0
H1080 H 0.98178 0.87732 0.02916 0.0
H1081 H 0.04663 0.88758 0.79181 0.0
H1082 H 0.03499 0.85863 0.82839 0.0
H1083 H 0.03176 0.88379 0.98099 0.0
H1084 H 0.04342 0.91262 0.94486 0.0
H1085 H 0.99937 0.87308 0.9426 0.0
H1086 H 0.05907 0.84895 0.95776 0.0
H1087 H 0.08896 0.83902 0.92135 0.0
H1088 H 0.07104 0.79725 0.82378 0.0
H1089 H 0.04101 0.80713 0.85917 0.0
C1090 C 0.98604 0.80929 0.11056 0.0
C1091 C 0.98616 0.78955 0.10112 0.0
C1092 C 0.99068 0.82141 0.07059 0.0
C1093 C 0.99534 0.81407 0.02022 0.0
C1094 C 0.99454 0.79447 0.01009 0.0
C1095 C 0.98988 0.78226 0.05036 0.0
C1096 C 1.00306 0.82665 0.98059 0.0
C1097 C 0.01993 0.82141 0.95767 0.0
C1098 C 0.99522 0.8452 0.97292 0.0
C1099 C 0.97686 0.85086 0.99195 0.0
C1100 C 0.96399 0.83908 0.98175 0.0
C1101 C 0.94676 0.84434 0.99999 0.0
C1102 C 0.9422 0.8614 0.02837 0.0
C1103 C 0.95486 0.87325 0.03852 0.0
C1104 C 0.97212 0.86806 0.0204 0.0
C1105 C 0.04392 0.88662 0.83329 0.0
C1106 C 0.04583 0.90227 0.86566 0.0
C1107 C 0.03727 0.87016 0.85399 0.0
C1108 C 0.0324 0.86931 0.90713 0.0
C1109 C 0.03544 0.88434 0.93978 0.0
C1110 C 0.04224 0.90068 0.91922 0.0
C1111 C 0.02241 0.85386 0.92858 0.0
C1112 C 1.00511 0.85865 0.94743 0.0
C1113 C 0.02975 0.83486 0.93167 0.0
C1114 C 0.04779 0.82895 0.91058 0.0
C1115 C 0.06149 0.83779 0.92815 0.0
C1116 C 0.07846 0.83213 0.9078 0.0
C1117 C 0.0819 0.81756 0.87013 0.0
C1118 C 0.06836 0.80857 0.85286 0.0
C1119 C 0.05137 0.81418 0.87308 0.0
H1120 H 0.09504 0.8132 0.85443 0.0
H1121 H 0.92884 0.86544 0.04247 0.0
H1122 H 0.69834 0.01961 0.09916 0.0
H1123 H 0.67425 0.0187 0.04895 0.0
H1124 H 0.7075 0.98888 0.92497 0.0
H1125 H 0.7321 0.99046 0.97452 0.0
H1126 H 0.6856 0.01612 0.88888 0.0
H1127 H 0.6809 0.96392 0.0016 0.0
H1128 H 0.6807 0.94709 0.08406 0.0
H1129 H 0.63638 0.98366 0.14756 0.0
H1130 H 0.63646 0.00091 0.06573 0.0
H1131 H 0.59058 0.99157 0.86509 0.0
H1132 H 0.61983 0.98248 0.88495 0.0
H1133 H 0.6291 0.04213 0.89324 0.0
H1134 H 0.59973 0.05137 0.87481 0.0
H1135 H 0.63218 0.99148 0.973 0.0
H1136 H 0.66846 0.04775 0.8533 0.0
H1137 H 0.67138 0.06039 0.7651 0.0
H1138 H 0.65531 0.00824 0.70653 0.0
H1139 H 0.65174 0.99558 0.79453 0.0
C1140 C 0.70068 0.01319 0.06081 0.0
C1141 C 0.71718 0.00519 0.0407 0.0
C1142 C 0.68682 0.01244 0.03246 0.0
C1143 C 0.68905 0.0034 0.98374 0.0
C1144 C 0.70554 0.99578 0.96277 0.0
C1145 C 0.71952 0.9966 0.99116 0.0
C1146 C 0.67398 0.00209 0.95536 0.0
C1147 C 0.67396 0.01058 0.90701 0.0
C1148 C 0.659 0.99424 0.97828 0.0
C1149 C 0.65874 0.98377 0.02751 0.0
C1150 C 0.67116 0.96845 0.03322 0.0
C1151 C 0.67107 0.95883 0.07986 0.0
C1152 C 0.65854 0.96431 0.12104 0.0
C1153 C 0.64606 0.97941 0.11562 0.0
C1154 C 0.64611 0.9891 0.06907 0.0
C1155 C 0.59881 0.00276 0.8715 0.0
C1156 C 0.5928 0.02221 0.86884 0.0
C1157 C 0.61557 0.99753 0.8821 0.0
C1158 C 0.62667 0.01162 0.88976 0.0
C1159 C 0.62084 0.03102 0.88629 0.0
C1160 C 0.60402 0.03628 0.87614 0.0
C1161 C 0.64358 0.00633 0.90771 0.0
C1162 C 0.64391 0.99665 0.95434 0.0
C1163 C 0.65894 0.0126 0.88259 0.0
C1164 C 0.65976 0.02078 0.83043 0.0
C1165 C 0.66539 0.03908 0.82161 0.0
C1166 C 0.66709 0.04627 0.77171 0.0
C1167 C 0.66348 0.03514 0.73026 0.0
C1168 C 0.65796 0.0169 0.73871 0.0
C1169 C 0.65591 0.0098 0.78865 0.0
H1170 H 0.66495 0.04065 0.69158 0.0
H1171 H 0.6585 0.95686 0.15714 0.0
H1172 H 0.55563 0.64549 0.03383 0.0
H1173 H 0.5425 0.61913 0.99706 0.0
H1174 H 0.52906 0.65476 0.87148 0.0
H1175 H 0.54233 0.68138 0.90814 0.0
H1176 H 0.50225 0.63512 0.9115 0.0
H1177 H 0.56202 0.62052 0.85223 0.0
H1178 H 0.59312 0.6147 0.85863 0.0
H1179 H 0.58386 0.56747 0.95835 0.0
H1180 H 0.55266 0.57321 0.95328 0.0
H1181 H 0.48996 0.55829 0.7394 0.0
H1182 H 0.49372 0.58697 0.78943 0.0
H1183 H 0.51074 0.55142 0.91106 0.0
H1184 H 0.50776 0.5228 0.85973 0.0
H1185 H 0.53495 0.57181 0.87335 0.0
H1186 H 0.47477 0.58587 0.92986 0.0
H1187 H 0.44388 0.59139 0.92007 0.0
H1188 H 0.45389 0.63903 0.82247 0.0
H1189 H 0.48488 0.63364 0.83109 0.0
C1190 C 0.5502 0.64765 0.99783 0.0
C1191 C 0.5502 0.66547 0.97354 0.0
C1192 C 0.5426 0.63259 0.97705 0.0
C1193 C 0.53494 0.63495 0.93136 0.0
C1194 C 0.53489 0.65269 0.90686 0.0
C1195 C 0.54249 0.66783 0.92775 0.0
C1196 C 0.52691 0.61883 0.90967 0.0
C1197 C 0.5094 0.6213 0.90256 0.0
C1198 C 0.5362 0.60075 0.89912 0.0
C1199 C 0.55496 0.59745 0.90283 0.0
C1200 C 0.56659 0.60903 0.87599 0.0
C1201 C 0.58424 0.60572 0.8793 0.0
C1202 C 0.59045 0.59077 0.90901 0.0
C1203 C 0.57903 0.57908 0.93545 0.0
C1204 C 0.56136 0.58235 0.93237 0.0
C1205 C 0.49359 0.55669 0.77802 0.0
C1206 C 0.49852 0.5385 0.79611 0.0
C1207 C 0.4958 0.57308 0.80658 0.0
C1208 C 0.50266 0.57135 0.85387 0.0
C1209 C 0.50553 0.55308 0.87454 0.0
C1210 C 0.50368 0.53674 0.84554 0.0
C1211 C 0.51009 0.58783 0.87619 0.0
C1212 C 0.52764 0.58551 0.88287 0.0
C1213 C 0.50082 0.60599 0.88606 0.0
C1214 C 0.48218 0.60924 0.8808 0.0
C1215 C 0.47041 0.59742 0.90595 0.0
C1216 C 0.45288 0.60055 0.90069 0.0
C1217 C 0.44693 0.61552 0.87057 0.0
C1218 C 0.45851 0.62743 0.84575 0.0
C1219 C 0.47606 0.62436 0.85088 0.0
H1220 H 0.43335 0.61792 0.86655 0.0
H1221 H 0.60413 0.58821 0.91144 0.0
H1222 H 0.80753 0.5481 0.05397 0.0
H1223 H 0.82887 0.53696 0.98202 0.0
H1224 H 0.86908 0.55681 0.06281 0.0
H1225 H 0.84774 0.56874 0.13355 0.0
H1226 H 0.87974 0.55339 0.96159 0.0
H1227 H 0.85255 0.5146 0.09635 0.0
H1228 H 0.82724 0.50206 0.14506 0.0
H1229 H 0.81369 0.47753 0.00556 0.0
H1230 H 0.8388 0.49023 0.95592 0.0
H1231 H 0.9451 0.4805 0.98722 0.0
H1232 H 0.91805 0.50048 0.0085 0.0
H1233 H 0.8989 0.47891 0.87307 0.0
H1234 H 0.9263 0.45985 0.84946 0.0
H1235 H 0.87528 0.48339 0.97702 0.0
H1236 H 0.91315 0.51448 0.85515 0.0
H1237 H 0.94017 0.52712 0.81995 0.0
H1238 H 0.93607 0.56685 0.94793 0.0
H1239 H 0.90947 0.55376 0.98552 0.0
C1240 C 0.82077 0.55113 0.05503 0.0
C1241 C 0.82612 0.55867 0.10003 0.0
C1242 C 0.83299 0.54465 0.01394 0.0
C1243 C 0.8506 0.54534 0.01815 0.0
C1244 C 0.85558 0.55583 0.05909 0.0
C1245 C 0.84338 0.56254 0.09975 0.0
C1246 C 0.86361 0.5315 0.98898 0.0
C1247 C 0.87877 0.53809 0.96439 0.0
C1248 C 0.86225 0.5115 0.99263 0.0
C1249 C 0.84738 0.50353 0.02241 0.0
C1250 C 0.84412 0.50658 0.07609 0.0
C1251 C 0.82982 0.49947 0.10384 0.0
C1252 C 0.81884 0.48904 0.07839 0.0
C1253 C 0.82218 0.48565 0.02518 0.0
C1254 C 0.83643 0.49282 0.99721 0.0
C1255 C 0.93511 0.47988 0.96217 0.0
C1256 C 0.93802 0.46887 0.91617 0.0
C1257 C 0.91967 0.49123 0.97445 0.0
C1258 C 0.90677 0.49137 0.94162 0.0
C1259 C 0.90886 0.47901 0.89849 0.0
C1260 C 0.92448 0.46797 0.88546 0.0
C1261 C 0.89157 0.50531 0.95118 0.0
C1262 C 0.87608 0.49867 0.97234 0.0
C1263 C 0.89295 0.52522 0.94589 0.0
C1264 C 0.90926 0.53291 0.92364 0.0
C1265 C 0.91816 0.52557 0.87663 0.0
C1266 C 0.93344 0.53286 0.8561 0.0
C1267 C 0.93992 0.54769 0.88186 0.0
C1268 C 0.93111 0.55526 0.92815 0.0
C1269 C 0.91593 0.54786 0.94917 0.0
H1270 H 0.95172 0.55337 0.86586 0.0
H1271 H 0.80777 0.48354 0.09992 0.0
H1272 H 0.03614 0.21927 0.82973 0.0
H1273 H 0.03471 0.18764 0.79 0.0
H1274 H 0.01148 0.16761 0.93485 0.0
H1275 H 0.01307 0.19895 0.97484 0.0
H1276 H 0.03845 0.14283 0.89137 0.0
H1277 H 0.98777 0.17744 0.83491 0.0
H1278 H 0.9726 0.20363 0.79091 0.0
H1279 H 1.00388 0.1877 0.64845 0.0
H1280 H 0.01938 0.16155 0.69178 0.0
H1281 H 0.0129 0.05336 0.8243 0.0
H1282 H 0.01426 0.0862 0.85426 0.0
H1283 H 0.02682 0.10345 0.69724 0.0
H1284 H 0.02439 0.07067 0.6669 0.0
H1285 H 1.00721 0.13041 0.74165 0.0
H1286 H 0.05771 0.09658 0.79056 0.0
H1287 H 0.07529 0.07101 0.8296 0.0
H1288 H 0.04837 0.08617 0.97902 0.0
H1289 H 0.03047 0.11167 0.94078 0.0
C1290 C 0.03064 0.20816 0.85305 0.0
C1291 C 0.02463 0.21178 0.90552 0.0
C1292 C 0.02974 0.19009 0.83019 0.0
C1293 C 0.02291 0.17519 0.85931 0.0
C1294 C 0.01677 0.17883 0.91147 0.0
C1295 C 0.01754 0.19688 0.93419 0.0
C1296 C 0.0227 0.15557 0.83646 0.0
C1297 C 0.03145 0.14008 0.859 0.0
C1298 C 0.01424 0.15201 0.79273 0.0
C1299 C 1.00485 0.16766 0.76672 0.0
C1300 C 0.9915 0.17962 0.7943 0.0
C1301 C 0.98282 0.19444 0.76946 0.0
C1302 C 0.9873 0.19736 0.71696 0.0
C1303 C 1.00043 0.18543 0.68914 0.0
C1304 C 1.00916 0.1706 0.71381 0.0
C1305 C 0.016 0.06413 0.79611 0.0
C1306 C 0.01869 0.05933 0.74322 0.0
C1307 C 0.0169 0.08297 0.81334 0.0
C1308 C 0.02112 0.09744 0.77834 0.0
C1309 C 0.02362 0.09268 0.7253 0.0
C1310 C 0.02229 0.07388 0.70793 0.0
C1311 C 0.02271 0.11746 0.79722 0.0
C1312 C 0.01429 0.13306 0.77388 0.0
C1313 C 0.03188 0.12122 0.83948 0.0
C1314 C 0.04265 0.10594 0.86271 0.0
C1315 C 0.05547 0.09438 0.8317 0.0
C1316 C 0.06549 0.07991 0.85369 0.0
C1317 C 0.06292 0.07694 0.90674 0.0
C1318 C 0.05034 0.08847 0.93793 0.0
C1319 C 0.04026 0.10295 0.91612 0.0
H1320 H 0.07069 0.06572 0.92369 0.0
H1321 H 0.98057 0.20884 0.69781 0.0
H1322 H 0.31966 0.04038 0.91038 0.0
H1323 H 0.34848 0.03636 0.86368 0.0
H1324 H 0.3543 0.9778 0.91262 0.0
H1325 H 0.32598 0.98211 0.96247 0.0
H1326 H 0.38178 0.99223 0.92487 0.0
H1327 H 0.34902 0.99174 0.78269 0.0
H1328 H 0.32716 0.00292 0.72653 0.0
H1329 H 0.35218 0.05441 0.69699 0.0
H1330 H 0.37405 0.04367 0.75358 0.0
H1331 H 0.45206 0.98755 0.68316 0.0
H1332 H 0.42187 0.98818 0.71975 0.0
H1333 H 0.43356 0.0171 0.85632 0.0
H1334 H 0.46376 0.01601 0.82073 0.0
H1335 H 0.39713 0.01417 0.74705 0.0
H1336 H 0.40852 0.00531 0.96184 0.0
H1337 H 0.43036 0.98992 0.01254 0.0
H1338 H 0.44745 0.94965 0.88824 0.0
H1339 H 0.42556 0.96462 0.8371 0.0
C1340 C 0.32702 0.02662 0.91145 0.0
C1341 C 0.32032 0.01164 0.94085 0.0
C1342 C 0.34352 0.02425 0.88392 0.0
C1343 C 0.3537 0.0067 0.88399 0.0
C1344 C 0.34682 0.99152 0.9118 0.0
C1345 C 0.33041 0.99394 0.93988 0.0
C1346 C 0.37183 0.00453 0.85784 0.0
C1347 C 0.38505 0.997 0.88589 0.0
C1348 C 0.37631 0.01036 0.80652 0.0
C1349 C 0.36308 0.01698 0.77285 0.0
C1350 C 0.34977 0.00553 0.76464 0.0
C1351 C 0.33738 0.01178 0.73266 0.0
C1352 C 0.33824 0.0294 0.70839 0.0
C1353 C 0.3515 0.0408 0.71598 0.0
C1354 C 0.3639 0.03463 0.74797 0.0
C1355 C 0.44822 0.99404 0.72103 0.0
C1356 C 0.46045 0.00157 0.74913 0.0
C1357 C 0.4309 0.99443 0.74191 0.0
C1358 C 0.42536 0.00238 0.79135 0.0
C1359 C 0.43748 0.01043 0.81872 0.0
C1360 C 0.4548 0.00989 0.79812 0.0
C1361 C 0.40698 0.00224 0.81441 0.0
C1362 C 0.39377 0.00935 0.78589 0.0
C1363 C 0.40244 0.99548 0.8647 0.0
C1364 C 0.4155 0.98622 0.89547 0.0
C1365 C 0.41689 0.99312 0.94542 0.0
C1366 C 0.42929 0.98447 0.97422 0.0
C1367 C 0.44032 0.96885 0.95356 0.0
C1368 C 0.43894 0.96179 0.90413 0.0
C1369 C 0.42655 0.97036 0.8752 0.0
H1370 H 0.44993 0.9622 0.97589 0.0
H1371 H 0.32867 0.03419 0.68354 0.0
H1372 H 0.4979 0.32697 0.05721 0.0
H1373 H 0.50335 0.35569 0.008 0.0
H1374 H 0.46457 0.34351 0.91115 0.0
H1375 H 0.45927 0.31445 0.95967 0.0
H1376 H 0.49287 0.35508 0.85508 0.0
H1377 H 0.45594 0.37696 0.00692 0.0
H1378 H 0.44642 0.38123 0.09996 0.0
H1379 H 0.49167 0.40939 0.11982 0.0
H1380 H 0.50162 0.405 0.02698 0.0
H1381 H 0.48274 0.44534 0.74038 0.0
H1382 H 0.47733 0.41696 0.79092 0.0
H1383 H 0.51501 0.43082 0.88971 0.0
H1384 H 0.52019 0.45962 0.84004 0.0
H1385 H 0.48748 0.41839 0.94512 0.0
H1386 H 0.5241 0.39697 0.79234 0.0
H1387 H 0.53336 0.39275 0.69916 0.0
H1388 H 0.4886 0.36349 0.68096 0.0
H1389 H 0.47875 0.36808 0.77377 0.0
C1390 C 0.49075 0.33016 0.02481 0.0
C1391 C 0.47817 0.31833 0.0123 0.0
C1392 C 0.49373 0.34676 0.99712 0.0
C1393 C 0.48419 0.35195 0.95637 0.0
C1394 C 0.47203 0.33986 0.94265 0.0
C1395 C 0.46897 0.32329 0.97049 0.0
C1396 C 0.48686 0.37001 0.92822 0.0
C1397 C 0.49146 0.36896 0.87466 0.0
C1398 C 0.48544 0.38809 0.95397 0.0
C1399 C 0.47963 0.39044 0.01003 0.0
C1400 C 0.46397 0.38386 0.0312 0.0
C1401 C 0.45847 0.38635 0.0839 0.0
C1402 C 0.46846 0.39553 0.11581 0.0
C1403 C 0.48397 0.40224 0.09507 0.0
C1404 C 0.48954 0.39976 0.04241 0.0
C1405 C 0.4897 0.44255 0.77328 0.0
C1406 C 0.50186 0.45483 0.78611 0.0
C1407 C 0.48671 0.42618 0.80185 0.0
C1408 C 0.49597 0.42153 0.84354 0.0
C1409 C 0.50775 0.43405 0.85754 0.0
C1410 C 0.51071 0.45052 0.82905 0.0
C1411 C 0.49349 0.40347 0.87193 0.0
C1412 C 0.48892 0.40451 0.92553 0.0
C1413 C 0.49492 0.38537 0.8462 0.0
C1414 C 0.50062 0.383 0.79006 0.0
C1415 C 0.51611 0.38984 0.76841 0.0
C1416 C 0.52148 0.38737 0.71564 0.0
C1417 C 0.51158 0.37783 0.68421 0.0
C1418 C 0.49624 0.37088 0.70539 0.0
C1419 C 0.49074 0.37345 0.75805 0.0
H1420 H 0.51579 0.37586 0.6434 0.0
H1421 H 0.46415 0.3975 0.15657 0.0
H1422 H 0.20582 0.45734 0.81018 0.0
H1423 H 0.17812 0.46053 0.77536 0.0
H1424 H 0.15983 0.50588 0.8862 0.0
H1425 H 0.1872 0.50231 0.9224 0.0
H1426 H 0.13611 0.48227 0.88435 0.0
H1427 H 0.17074 0.51401 0.75384 0.0
H1428 H 0.19487 0.51802 0.68666 0.0
H1429 H 0.1809 0.47064 0.59981 0.0
H1430 H 0.15683 0.46618 0.66681 0.0
H1431 H 0.07193 0.51888 0.69533 0.0
H1432 H 0.10105 0.51572 0.72097 0.0
H1433 H 0.09198 0.46072 0.78592 0.0
H1434 H 0.06285 0.46372 0.76016 0.0
H1435 H 0.12924 0.48974 0.69918 0.0
H1436 H 0.11168 0.45721 0.89785 0.0
H1437 H 0.08653 0.4565 0.96365 0.0
H1438 H 0.0657 0.511 0.91393 0.0
H1439 H 0.09084 0.51216 0.84842 0.0
C1440 C 0.19594 0.46803 0.82719 0.0
C1441 C 0.19891 0.47956 0.86928 0.0
C1442 C 0.18009 0.46996 0.80684 0.0
C1443 C 0.16678 0.48354 0.82779 0.0
C1444 C 0.16981 0.49529 0.86917 0.0
C1445 C 0.18563 0.49336 0.88953 0.0
C1446 C 0.14947 0.48502 0.80828 0.0
C1447 C 0.13469 0.48391 0.84376 0.0
C1448 C 0.14738 0.48728 0.75536 0.0
C1449 C 0.16213 0.48959 0.71573 0.0
C1450 C 0.17295 0.50429 0.72074 0.0
C1451 C 0.18658 0.50668 0.68261 0.0
C1452 C 0.18947 0.49452 0.63913 0.0
C1453 C 0.17871 0.47997 0.63366 0.0
C1454 C 0.16507 0.47751 0.67169 0.0
C1455 C 0.07614 0.50604 0.71478 0.0
C1456 C 0.06494 0.49161 0.72592 0.0
C1457 C 0.09285 0.50423 0.72929 0.0
C1458 C 0.09871 0.4881 0.75603 0.0
C1459 C 0.08773 0.47342 0.7659 0.0
C1460 C 0.07108 0.47512 0.75089 0.0
C1461 C 0.11603 0.48699 0.77507 0.0
C1462 C 0.13076 0.48808 0.7396 0.0
C1463 C 0.11807 0.48503 0.828 0.0
C1464 C 0.10305 0.48465 0.86788 0.0
C1465 C 0.10176 0.46907 0.90112 0.0
C1466 C 0.08751 0.46859 0.93835 0.0
C1467 C 0.0745 0.48366 0.94285 0.0
C1468 C 0.07575 0.4993 0.91029 0.0
C1469 C 0.08999 0.49986 0.87307 0.0
H1470 H 0.06347 0.48325 0.97164 0.0
H1471 H 0.19999 0.49644 0.60957 0.0
H1472 H 0.01141 0.80233 0.43682 0.0
H1473 H 0.01353 0.83395 0.47392 0.0
H1474 H 0.98298 0.81884 0.61319 0.0
H1475 H 0.98028 0.78722 0.57501 0.0
H1476 H 0.97311 0.85334 0.59398 0.0
H1477 H 0.02848 0.82175 0.60412 0.0
H1478 H 0.05584 0.80276 0.57421 0.0
H1479 H 0.06892 0.8459 0.4646 0.0
H1480 H 0.04153 0.86503 0.49338 0.0
H1481 H 0.02851 0.93319 0.68785 0.0
H1482 H 0.02514 0.9001 0.66459 0.0
H1483 H 0.98262 0.91924 0.58133 0.0
H1484 H 0.98531 0.95238 0.60725 0.0
H1485 H 0.02924 0.88127 0.58242 0.0
H1486 H 0.95531 0.88529 0.57207 0.0
H1487 H 0.92877 0.90273 0.61524 0.0
H1488 H 0.95402 0.91178 0.74962 0.0
H1489 H 0.98062 0.89415 0.70759 0.0
C1490 C 1.00534 0.80561 0.47566 0.0
C1491 C 0.99589 0.7921 0.50323 0.0
C1492 C 1.00656 0.82377 0.49696 0.0
C1493 C 0.99874 0.82884 0.547 0.0
C1494 C 0.98921 0.81538 0.57462 0.0
C1495 C 0.98772 0.79725 0.55287 0.0
C1496 C 1.00032 0.84828 0.5697 0.0
C1497 C 0.9854 0.85939 0.59156 0.0
C1498 C 0.01638 0.8562 0.56812 0.0
C1499 C 0.03288 0.84475 0.55064 0.0
C1500 C 0.03714 0.82713 0.57339 0.0
C1501 C 0.05266 0.81635 0.55668 0.0
C1502 C 0.06409 0.8231 0.51745 0.0
C1503 C 0.06004 0.84067 0.49495 0.0
C1504 C 0.04453 0.85151 0.51149 0.0
C1505 C 0.01829 0.9304 0.66512 0.0
C1506 C 1.00708 0.94553 0.64989 0.0
C1507 C 0.01643 0.91138 0.65151 0.0
C1508 C 1.00349 0.90692 0.62154 0.0
C1509 C 0.99244 0.92207 0.60557 0.0
C1510 C 0.99407 0.94111 0.62013 0.0
C1511 C 1.00199 0.88653 0.6058 0.0
C1512 C 0.01694 0.87522 0.58513 0.0
C1513 C 0.98606 0.87821 0.61045 0.0
C1514 C 0.97001 0.88855 0.63642 0.0
C1515 C 0.95517 0.89091 0.61092 0.0
C1516 C 0.94012 0.90085 0.63518 0.0
C1517 C 0.93973 0.90841 0.68507 0.0
C1518 C 0.95436 0.90597 0.71091 0.0
C1519 C 0.96943 0.89602 0.68687 0.0
H1520 H 0.92807 0.91612 0.70374 0.0
H1521 H 0.0761 0.81473 0.50457 0.0
H1522 H 0.70521 0.96759 0.42832 0.0
H1523 H 0.67645 0.96592 0.47311 0.0
H1524 H 0.67333 0.02629 0.51073 0.0
H1525 H 0.70266 0.02775 0.47 0.0
H1526 H 0.65754 0.01089 0.5859 0.0
H1527 H 0.65427 0.00599 0.40507 0.0
H1528 H 0.66138 0.99313 0.31618 0.0
H1529 H 0.64516 0.93856 0.36462 0.0
H1530 H 0.63815 0.95104 0.45399 0.0
H1531 H 0.56651 0.02632 0.63224 0.0
H1532 H 0.59641 0.02615 0.59449 0.0
H1533 H 0.59966 0.96466 0.57613 0.0
H1534 H 0.56941 0.96481 0.61228 0.0
H1535 H 0.61533 0.98002 0.49277 0.0
H1536 H 0.61728 0.98894 0.67761 0.0
H1537 H 0.60827 0.00587 0.76089 0.0
H1538 H 0.62508 0.05808 0.69646 0.0
H1539 H 0.6341 0.0415 0.61268 0.0
C1540 C 0.69869 0.98046 0.44722 0.0
C1541 C 0.70644 0.99788 0.44463 0.0
C1542 C 0.68198 0.97955 0.47215 0.0
C1543 C 0.67232 0.9961 0.49411 0.0
C1544 C 0.68029 0.0133 0.4937 0.0
C1545 C 0.69711 0.01415 0.46967 0.0
C1546 C 0.65386 0.99565 0.51645 0.0
C1547 C 0.64834 0.00426 0.56513 0.0
C1548 C 0.64164 0.98697 0.48997 0.0
C1549 C 0.64587 0.97939 0.43632 0.0
C1550 C 0.65234 0.99121 0.39684 0.0
C1551 C 0.65633 0.98399 0.34636 0.0
C1552 C 0.65377 0.96502 0.33479 0.0
C1553 C 0.64717 0.95324 0.37366 0.0
C1554 C 0.64318 0.96038 0.42423 0.0
C1555 C 0.57355 0.01272 0.62029 0.0
C1556 C 0.56552 0.99555 0.62568 0.0
C1557 C 0.59075 0.01264 0.59888 0.0
C1558 C 0.60055 0.99535 0.58336 0.0
C1559 C 0.59248 0.9782 0.588 0.0
C1560 C 0.57517 0.97829 0.60881 0.0
C1561 C 0.61911 0.99518 0.56204 0.0
C1562 C 0.62462 0.98648 0.51356 0.0
C1563 C 0.63119 0.00427 0.58798 0.0
C1564 C 0.62628 0.014 0.63886 0.0
C1565 C 0.61901 0.00404 0.68121 0.0
C1566 C 0.61388 0.01358 0.72848 0.0
C1567 C 0.61605 0.03306 0.73387 0.0
C1568 C 0.62336 0.04302 0.69212 0.0
C1569 C 0.62855 0.03354 0.64482 0.0
H1570 H 0.61219 0.04044 0.7704 0.0
H1571 H 0.65686 0.95947 0.29567 0.0
H1572 H 0.55174 0.69205 0.42521 0.0
H1573 H 0.5456 0.66369 0.47632 0.0
H1574 H 0.57102 0.62707 0.35164 0.0
H1575 H 0.57703 0.65514 0.30049 0.0
H1576 H 0.5399 0.61533 0.38839 0.0
H1577 H 0.59068 0.63317 0.45582 0.0
H1578 H 0.60864 0.65498 0.4954 0.0
H1579 H 0.57137 0.66181 0.62967 0.0
H1580 H 0.55307 0.64023 0.59054 0.0
H1581 H 0.55796 0.53664 0.58914 0.0
H1582 H 0.56618 0.56471 0.54028 0.0
H1583 H 0.51266 0.5827 0.53173 0.0
H1584 H 0.50433 0.55471 0.57986 0.0
H1585 H 0.55913 0.60307 0.56042 0.0
H1586 H 0.50864 0.60332 0.41606 0.0
H1587 H 0.49223 0.58042 0.37417 0.0
H1588 H 0.53205 0.53539 0.38862 0.0
H1589 H 0.5488 0.55807 0.42993 0.0
C1590 C 0.55608 0.67794 0.40889 0.0
C1591 C 0.56502 0.67588 0.35897 0.0
C1592 C 0.55263 0.66176 0.43816 0.0
C1593 C 0.55791 0.64325 0.41785 0.0
C1594 C 0.56684 0.64119 0.36814 0.0
C1595 C 0.57042 0.6573 0.33915 0.0
C1596 C 0.55381 0.62591 0.44756 0.0
C1597 C 0.54407 0.61269 0.42608 0.0
C1598 C 0.55944 0.62229 0.49639 0.0
C1599 C 0.57042 0.63525 0.52002 0.0
C1600 C 0.58624 0.63945 0.49359 0.0
C1601 C 0.5965 0.65175 0.51598 0.0
C1602 C 0.59113 0.65982 0.56496 0.0
C1603 C 0.5755 0.65557 0.5917 0.0
C1604 C 0.56519 0.6433 0.56945 0.0
C1605 C 0.54793 0.5465 0.57664 0.0
C1606 C 0.53047 0.54328 0.5882 0.0
C1607 C 0.55265 0.56261 0.54897 0.0
C1608 C 0.54005 0.57575 0.53198 0.0
C1609 C 0.52263 0.57265 0.54382 0.0
C1610 C 0.5179 0.5566 0.57147 0.0
C1611 C 0.54504 0.59262 0.5015 0.0
C1612 C 0.55491 0.60576 0.52283 0.0
C1613 C 0.53971 0.59607 0.45219 0.0
C1614 C 0.52989 0.58237 0.42653 0.0
C1615 C 0.51393 0.58855 0.41008 0.0
C1616 C 0.50456 0.57561 0.38648 0.0
C1617 C 0.51107 0.55645 0.37889 0.0
C1618 C 0.52699 0.55022 0.39469 0.0
C1619 C 0.53642 0.5631 0.41826 0.0
H1620 H 0.50378 0.54645 0.36067 0.0
H1621 H 0.59909 0.66933 0.58223 0.0
H1622 H 0.84319 0.53752 0.46834 0.0
H1623 H 0.8695 0.53283 0.51005 0.0
H1624 H 0.84701 0.4902 0.60744 0.0
H1625 H 0.82051 0.49465 0.56496 0.0
H1626 H 0.86517 0.51983 0.65926 0.0
H1627 H 0.87421 0.47343 0.52026 0.0
H1628 H 0.87487 0.46205 0.43036 0.0
H1629 H 0.91228 0.50118 0.38091 0.0
H1630 H 0.91162 0.51304 0.47042 0.0
H1631 H 0.94938 0.49189 0.7419 0.0
H1632 H 0.92008 0.49279 0.71679 0.0
H1633 H 0.93602 0.52455 0.58174 0.0
H1634 H 0.96501 0.52361 0.60603 0.0
H1635 H 0.91978 0.49598 0.55467 0.0
H1636 H 0.90916 0.54517 0.68609 0.0
H1637 H 0.90633 0.5612 0.77152 0.0
H1638 H 0.8719 0.52057 0.83269 0.0
H1639 H 0.87465 0.50415 0.74763 0.0
C1640 C 0.84374 0.52724 0.49893 0.0
C1641 C 0.82967 0.51654 0.51351 0.0
C1642 C 0.85885 0.52452 0.52259 0.0
C1643 C 0.86027 0.51116 0.56189 0.0
C1644 C 0.84619 0.50061 0.57727 0.0
C1645 C 0.8311 0.5031 0.55285 0.0
C1646 C 0.8767 0.50817 0.58562 0.0
C1647 C 0.87709 0.5142 0.6369 0.0
C1648 C 0.89231 0.50135 0.55597 0.0
C1649 C 0.89273 0.49425 0.50204 0.0
C1650 C 0.88245 0.47975 0.49016 0.0
C1651 C 0.88285 0.47319 0.43927 0.0
C1652 C 0.89358 0.48092 0.39993 0.0
C1653 C 0.90396 0.49521 0.41141 0.0
C1654 C 0.90358 0.50185 0.46223 0.0
C1655 C 0.94659 0.49921 0.7071 0.0
C1656 C 0.9597 0.50753 0.67585 0.0
C1657 C 0.92978 0.49978 0.69286 0.0
C1658 C 0.92575 0.50869 0.64711 0.0
C1659 C 0.93873 0.51745 0.61693 0.0
C1660 C 0.95539 0.51692 0.63107 0.0
C1661 C 0.90847 0.50809 0.62831 0.0
C1662 C 0.90789 0.50132 0.57768 0.0
C1663 C 0.89276 0.51452 0.65845 0.0
C1664 C 0.89225 0.52331 0.71057 0.0
C1665 C 0.90121 0.53945 0.71791 0.0
C1666 C 0.89951 0.5487 0.76616 0.0
C1667 C 0.88878 0.54204 0.80727 0.0
C1668 C 0.88006 0.52582 0.80061 0.0
C1669 C 0.88171 0.51652 0.75243 0.0
H1670 H 0.88729 0.54939 0.84437 0.0
H1671 H 0.89388 0.47581 0.36055 0.0
loop_
_geom_bond_atom_site_label_1
_geom_bond_atom_site_label_2
_geom_bond_distance
_geom_bond_site_symmetry_2
_ccdc_geom_bond_type
C0 C1 1.386 . S
C0 C2 1.397 . S
C0 H24 0.931 . S
C1 C0 1.386 . S
C1 C5 1.397 . S
C2 C0 1.397 . S
C2 C3 1.384 . S
C2 H25 0.930 . S
C3 C2 1.384 . S
C3 C4 1.377 . S
C3 C6 1.481 . S
C4 C3 1.377 . S
C4 C5 1.389 . S
C4 H26 0.929 . S
C5 C1 1.397 . S
C5 C4 1.389 . S
C5 H27 0.931 . S
C6 C3 1.481 . S
C6 C7 1.387 . S
C6 C11 1.390 . S
C7 C6 1.387 . S
C7 C8 1.401 . S
C7 H28 0.930 . S
C8 C7 1.401 . S
C8 C9 1.376 . S
C8 C17 1.511 . S
C9 C8 1.376 . S
C9 C10 1.392 . S
C9 H30 0.931 . S
C10 C9 1.392 . S
C10 C11 1.361 . S
C10 C12 1.500 . S
C11 C6 1.390 . S
C11 C10 1.361 . S
C11 H29 0.931 . S
C12 C10 1.500 . S
C12 C13 1.371 . S
C12 C14 1.365 . S
C13 C12 1.371 . S
C13 C23 1.386 . S
C13 H31 0.931 . S
C14 C12 1.365 . S
C14 C15 1.409 . S
C14 H32 0.929 . S
C15 C14 1.409 . S
C15 C16 1.380 . S
C15 H33 0.930 . S
C16 C15 1.380 . S
C16 C23 1.357 . S
C17 C8 1.511 . S
C17 C18 1.341 . S
C17 C19 1.371 . S
C18 C17 1.341 . S
C18 C22 1.394 . S
C18 H34 0.930 . S
C19 C17 1.371 . S
C19 C20 1.392 . S
C19 H35 0.931 . S
C20 C19 1.392 . S
C20 C21 1.331 . S
C20 H38 0.932 . S
C21 C20 1.331 . S
C21 C22 1.336 . S
C22 C18 1.394 . S
C22 C21 1.336 . S
C22 H37 0.929 . S
C23 C13 1.386 . S
C23 C16 1.357 . S
C23 H36 0.928 . S
H24 C0 0.931 . S
H25 C2 0.930 . S
H26 C4 0.929 . S
H27 C5 0.931 . S
H28 C7 0.930 . S
H29 C11 0.931 . S
H30 C9 0.931 . S
H31 C13 0.931 . S
H32 C14 0.929 . S
H33 C15 0.930 . S
H34 C18 0.930 . S
H35 C19 0.931 . S
H36 C23 0.928 . S
H37 C22 0.929 . S
H38 C20 0.932 . S
C39 C40 1.386 . S
C39 C41 1.397 . S
C39 H63 0.931 . S
C40 C39 1.386 . S
C40 C44 1.397 . S
C41 C39 1.397 . S
C41 C42 1.384 . S
C41 H64 0.930 . S
C42 C41 1.384 . S
C42 C43 1.377 . S
C42 C45 1.481 . S
C43 C42 1.377 . S
C43 C44 1.389 . S
C43 H65 0.929 1_655 S
C44 C40 1.397 . S
C44 C43 1.389 . S
C44 H66 0.931 1_655 S
C45 C42 1.481 . S
C45 C46 1.387 . S
C45 C50 1.390 . S
C46 C45 1.387 . S
C46 C47 1.401 . S
C46 H67 0.930 . S
C47 C46 1.401 . S
C47 C48 1.376 . S
C47 C56 1.511 . S
C48 C47 1.376 . S
C48 C49 1.392 . S
C48 H69 0.931 . S
C49 C48 1.392 . S
C49 C50 1.361 . S
C49 C51 1.500 . S
C50 C45 1.390 . S
C50 C49 1.361 . S
C50 H68 0.931 . S
C51 C49 1.500 . S
C51 C52 1.371 . S
C51 C53 1.365 . S
C52 C51 1.371 . S
C52 C62 1.386 . S
C52 H70 0.931 . S
C53 C51 1.365 . S
C53 C54 1.409 . S
C53 H71 0.929 . S
C54 C53 1.409 . S
C54 C55 1.380 . S
C54 H72 0.930 . S
C55 C54 1.380 . S
C55 C62 1.357 . S
C56 C47 1.511 . S
C56 C57 1.341 . S
C56 C58 1.371 . S
C57 C56 1.341 . S
C57 C61 1.394 . S
C57 H73 0.930 . S
C58 C56 1.371 . S
C58 C59 1.392 . S
C58 H74 0.931 . S
C59 C58 1.392 . S
C59 C60 1.331 . S
C59 H77 0.932 . S
C60 C59 1.331 . S
C60 C61 1.336 . S
C61 C57 1.394 . S
C61 C60 1.336 . S
C61 H76 0.929 . S
C62 C52 1.386 . S
C62 C55 1.357 . S
C62 H75 0.928 . S
H63 C39 0.931 . S
H64 C41 0.930 . S
H65 C43 0.929 1_455 S
H66 C44 0.931 1_455 S
H67 C46 0.930 . S
H68 C50 0.931 . S
H69 C48 0.931 . S
H70 C52 0.931 . S
H71 C53 0.929 . S
H72 C54 0.930 . S
H73 C57 0.930 . S
H74 C58 0.931 . S
H75 C62 0.928 . S
H76 C61 0.929 . S
H77 C59 0.932 . S
C78 C79 1.393 . S
C78 C80 1.397 . S
C78 H102 0.931 . S
C79 C78 1.393 . S
C79 C83 1.389 1_565 S
C80 C78 1.397 . S
C80 C81 1.389 . S
C80 H103 0.930 . S
C81 C80 1.389 . S
C81 C82 1.373 1_565 S
C81 C84 1.482 . S
C82 C81 1.373 1_545 S
C82 C83 1.389 . S
C82 H104 0.929 . S
C83 C79 1.389 1_545 S
C83 C82 1.389 . S
C83 H105 0.931 . S
C84 C81 1.482 . S
C84 C85 1.385 . S
C84 C89 1.391 . S
C85 C84 1.385 . S
C85 C86 1.404 . S
C85 H106 0.930 . S
C86 C85 1.404 . S
C86 C87 1.376 . S
C86 C95 1.510 . S
C87 C86 1.376 . S
C87 C88 1.395 . S
C87 H108 0.932 . S
C88 C87 1.395 . S
C88 C89 1.361 . S
C88 C90 1.500 1_565 S
C89 C84 1.391 . S
C89 C88 1.361 . S
C89 H107 0.932 . S
C90 C88 1.500 1_545 S
C90 C91 1.364 1_545 S
C90 C92 1.372 . S
C91 C90 1.364 1_565 S
C91 C101 1.386 . S
C91 H109 0.931 . S
C92 C90 1.372 . S
C92 C93 1.409 . S
C92 H110 0.929 . S
C93 C92 1.409 . S
C93 C94 1.378 . S
C93 H111 0.930 . S
C94 C93 1.378 . S
C94 C101 1.359 1_545 S
C95 C86 1.510 . S
C95 C96 1.341 . S
C95 C97 1.371 1_565 S
C96 C95 1.341 . S
C96 C100 1.394 . S
C96 H112 0.930 . S
C97 C95 1.371 1_545 S
C97 C98 1.392 . S
C97 H113 0.931 . S
C98 C97 1.392 . S
C98 C99 1.323 1_545 S
C98 H116 0.932 . S
C99 C98 1.323 1_565 S
C99 C100 1.347 . S
C100 C96 1.394 . S
C100 C99 1.347 . S
C100 H115 0.929 . S
C101 C91 1.386 . S
C101 C94 1.359 1_565 S
C101 H114 0.928 . S
H102 C78 0.931 . S
H103 C80 0.930 . S
H104 C82 0.929 . S
H105 C83 0.931 . S
H106 C85 0.930 . S
H107 C89 0.932 . S
H108 C87 0.932 . S
H109 C91 0.931 . S
H110 C92 0.929 . S
H111 C93 0.930 . S
H112 C96 0.930 . S
H113 C97 0.931 . S
H114 C101 0.928 . S
H115 C100 0.929 . S
H116 C98 0.932 . S
C117 C118 1.386 . S
C117 C119 1.397 . S
C117 H141 0.931 . S
C118 C117 1.386 . S
C118 C122 1.397 . S
C119 C117 1.397 . S
C119 C120 1.384 . S
C119 H142 0.930 . S
C120 C119 1.384 . S
C120 C121 1.377 . S
C120 C123 1.481 . S
C121 C120 1.377 . S
C121 C122 1.389 . S
C121 H143 0.929 . S
C122 C118 1.397 . S
C122 C121 1.389 . S
C122 H144 0.931 . S
C123 C120 1.481 . S
C123 C124 1.387 . S
C123 C128 1.390 . S
C124 C123 1.387 . S
C124 C125 1.401 . S
C124 H145 0.930 . S
C125 C124 1.401 . S
C125 C126 1.376 . S
C125 C134 1.511 . S
C126 C125 1.376 . S
C126 C127 1.392 . S
C126 H147 0.931 1_554 S
C127 C126 1.392 . S
C127 C128 1.361 . S
C127 C129 1.500 1_554 S
C128 C123 1.390 . S
C128 C127 1.361 . S
C128 H146 0.931 . S
C129 C127 1.500 1_556 S
C129 C130 1.371 . S
C129 C131 1.365 . S
C130 C129 1.371 . S
C130 C140 1.386 . S
C130 H148 0.931 . S
C131 C129 1.365 . S
C131 C132 1.409 . S
C131 H149 0.929 1_556 S
C132 C131 1.409 . S
C132 C133 1.380 . S
C132 H150 0.930 . S
C133 C132 1.380 . S
C133 C140 1.357 . S
C134 C125 1.511 . S
C134 C135 1.341 . S
C134 C136 1.371 1_554 S
C135 C134 1.341 . S
C135 C139 1.394 . S
C135 H151 0.930 . S
C136 C134 1.371 1_556 S
C136 C137 1.392 . S
C136 H152 0.931 . S
C137 C136 1.392 . S
C137 C138 1.331 1_556 S
C137 H155 0.932 . S
C138 C137 1.331 1_554 S
C138 C139 1.336 . S
C139 C135 1.394 . S
C139 C138 1.336 . S
C139 H154 0.929 . S
C140 C130 1.386 . S
C140 C133 1.357 . S
C140 H153 0.928 . S
H141 C117 0.931 . S
H142 C119 0.930 . S
H143 C121 0.929 . S
H144 C122 0.931 . S
H145 C124 0.930 . S
H146 C128 0.931 . S
H147 C126 0.931 1_556 S
H148 C130 0.931 . S
H149 C131 0.929 1_554 S
H150 C132 0.930 . S
H151 C135 0.930 . S
H152 C136 0.931 . S
H153 C140 0.928 . S
H154 C139 0.929 . S
H155 C137 0.932 . S
C156 C157 1.386 . S
C156 C158 1.397 . S
C156 H180 0.931 . S
C157 C156 1.386 . S
C157 C161 1.397 . S
C158 C156 1.397 . S
C158 C159 1.384 . S
C158 H181 0.930 . S
C159 C158 1.384 . S
C159 C160 1.377 . S
C159 C162 1.481 . S
C160 C159 1.377 . S
C160 C161 1.389 . S
C160 H182 0.929 . S
C161 C157 1.397 . S
C161 C160 1.389 . S
C161 H183 0.931 . S
C162 C159 1.481 . S
C162 C163 1.387 . S
C162 C167 1.390 1_554 S
C163 C162 1.387 . S
C163 C164 1.401 . S
C163 H184 0.930 . S
C164 C163 1.401 . S
C164 C165 1.376 1_554 S
C164 C173 1.511 . S
C165 C164 1.376 1_556 S
C165 C166 1.392 . S
C165 H186 0.931 . S
C166 C165 1.392 . S
C166 C167 1.361 . S
C166 C168 1.500 . S
C167 C162 1.390 1_556 S
C167 C166 1.361 . S
C167 H185 0.931 . S
C168 C166 1.500 . S
C168 C169 1.371 . S
C168 C170 1.365 . S
C169 C168 1.371 . S
C169 C179 1.386 . S
C169 H187 0.931 . S
C170 C168 1.365 . S
C170 C171 1.409 . S
C170 H188 0.929 . S
C171 C170 1.409 . S
C171 C172 1.380 . S
C171 H189 0.930 . S
C172 C171 1.380 . S
C172 C179 1.357 . S
C173 C164 1.511 . S
C173 C174 1.341 . S
C173 C175 1.371 1_554 S
C174 C173 1.341 . S
C174 C178 1.394 . S
C174 H190 0.930 . S
C175 C173 1.371 1_556 S
C175 C176 1.392 . S
C175 H191 0.931 . S
C176 C175 1.392 . S
C176 C177 1.331 1_556 S
C176 H194 0.932 . S
C177 C176 1.331 1_554 S
C177 C178 1.336 . S
C178 C174 1.394 . S
C178 C177 1.336 . S
C178 H193 0.929 . S
C179 C169 1.386 . S
C179 C172 1.357 . S
C179 H192 0.928 . S
H180 C156 0.931 . S
H181 C158 0.930 . S
H182 C160 0.929 . S
H183 C161 0.931 . S
H184 C163 0.930 . S
H185 C167 0.931 . S
H186 C165 0.931 . S
H187 C169 0.931 . S
H188 C170 0.929 . S
H189 C171 0.930 . S
H190 C174 0.930 . S
H191 C175 0.931 . S
H192 C179 0.928 . S
H193 C178 0.929 . S
H194 C176 0.932 . S
C195 C196 1.386 . S
C195 C197 1.397 . S
C195 H219 0.931 . S
C196 C195 1.386 . S
C196 C200 1.397 . S
C197 C195 1.397 . S
C197 C198 1.384 . S
C197 H220 0.930 . S
C198 C197 1.384 . S
C198 C199 1.377 . S
C198 C201 1.481 . S
C199 C198 1.377 . S
C199 C200 1.389 . S
C199 H221 0.929 . S
C200 C196 1.397 . S
C200 C199 1.389 . S
C200 H222 0.931 . S
C201 C198 1.481 . S
C201 C202 1.387 . S
C201 C206 1.390 . S
C202 C201 1.387 . S
C202 C203 1.401 . S
C202 H223 0.930 . S
C203 C202 1.401 . S
C203 C204 1.376 . S
C203 C212 1.511 . S
C204 C203 1.376 . S
C204 C205 1.392 . S
C204 H225 0.931 . S
C205 C204 1.392 . S
C205 C206 1.361 . S
C205 C207 1.500 1_554 S
C206 C201 1.390 . S
C206 C205 1.361 . S
C206 H224 0.931 . S
C207 C205 1.500 1_556 S
C207 C208 1.371 . S
C207 C209 1.365 . S
C208 C207 1.371 . S
C208 C218 1.386 . S
C208 H226 0.931 . S
C209 C207 1.365 . S
C209 C210 1.409 . S
C209 H227 0.929 . S
C210 C209 1.409 . S
C210 C211 1.380 . S
C210 H228 0.930 . S
C211 C210 1.380 . S
C211 C218 1.357 . S
C212 C203 1.511 . S
C212 C213 1.341 . S
C212 C214 1.371 . S
C213 C212 1.341 . S
C213 C217 1.394 . S
C213 H229 0.930 . S
C214 C212 1.371 . S
C214 C215 1.392 . S
C214 H230 0.931 . S
C215 C214 1.392 . S
C215 C216 1.331 . S
C215 H233 0.932 . S
C216 C215 1.331 . S
C216 C217 1.336 . S
C217 C213 1.394 . S
C217 C216 1.336 . S
C217 H232 0.929 . S
C218 C208 1.386 . S
C218 C211 1.357 . S
C218 H231 0.928 . S
H219 C195 0.931 . S
H220 C197 0.930 . S
H221 C199 0.929 . S
H222 C200 0.931 . S
H223 C202 0.930 . S
H224 C206 0.931 . S
H225 C204 0.931 . S
H226 C208 0.931 . S
H227 C209 0.929 . S
H228 C210 0.930 . S
H229 C213 0.930 . S
H230 C214 0.931 . S
H231 C218 0.928 . S
H232 C217 0.929 . S
H233 C215 0.932 . S
C234 C235 1.386 . S
C234 C236 1.397 . S
C234 H258 0.931 . S
C235 C234 1.386 . S
C235 C239 1.397 1_565 S
C236 C234 1.397 . S
C236 C237 1.380 . S
C236 H259 0.930 . S
C237 C236 1.380 . S
C237 C238 1.381 1_565 S
C237 C240 1.479 . S
C238 C237 1.381 1_545 S
C238 C239 1.389 . S
C238 H260 0.929 . S
C239 C235 1.397 1_545 S
C239 C238 1.389 . S
C239 H261 0.931 . S
C240 C237 1.479 . S
C240 C241 1.383 . S
C240 C245 1.390 . S
C241 C240 1.383 . S
C241 C242 1.402 . S
C241 H262 0.938 . S
C242 C241 1.402 . S
C242 C243 1.377 . S
C242 C251 1.514 . S
C243 C242 1.377 . S
C243 C244 1.389 1_565 S
C243 H264 0.935 . S
C244 C243 1.389 1_545 S
C244 C245 1.361 1_545 S
C244 C246 1.498 . S
C245 C240 1.390 . S
C245 C244 1.361 1_565 S
C245 H263 0.932 1_565 S
C246 C244 1.498 . S
C246 C247 1.356 1_545 S
C246 C248 1.383 . S
C247 C246 1.356 1_565 S
C247 C257 1.386 1_554 S
C247 H265 0.931 . S
C248 C246 1.383 . S
C248 C249 1.409 1_554 S
C248 H266 0.929 . S
C249 C248 1.409 1_556 S
C249 C250 1.385 . S
C249 H267 0.930 . S
C250 C249 1.385 . S
C250 C257 1.353 1_545 S
C251 C242 1.514 . S
C251 C252 1.341 . S
C251 C253 1.371 1_565 S
C252 C251 1.341 . S
C252 C256 1.394 . S
C252 H268 0.930 . S
C253 C251 1.371 1_545 S
C253 C254 1.392 . S
C253 H269 0.931 . S
C254 C253 1.392 . S
C254 C255 1.326 1_545 S
C254 H272 0.932 . S
C255 C254 1.326 1_565 S
C255 C256 1.340 . S
C256 C252 1.394 . S
C256 C255 1.340 . S
C256 H271 0.929 . S
C257 C247 1.386 1_556 S
C257 C250 1.353 1_565 S
C257 H270 0.928 . S
H258 C234 0.931 . S
H259 C236 0.930 . S
H260 C238 0.929 . S
H261 C239 0.931 . S
H262 C241 0.938 . S
H263 C245 0.932 1_545 S
H264 C243 0.935 . S
H265 C247 0.931 . S
H266 C248 0.929 . S
H267 C249 0.930 . S
H268 C252 0.930 . S
H269 C253 0.931 . S
H270 C257 0.928 . S
H271 C256 0.929 . S
H272 C254 0.932 . S
C273 C274 1.386 . S
C273 C275 1.397 . S
C273 H297 0.931 . S
C274 C273 1.386 . S
C274 C278 1.397 . S
C275 C273 1.397 . S
C275 C276 1.384 . S
C275 H298 0.930 . S
C276 C275 1.384 . S
C276 C277 1.377 . S
C276 C279 1.481 . S
C277 C276 1.377 . S
C277 C278 1.389 . S
C277 H299 0.929 . S
C278 C274 1.397 . S
C278 C277 1.389 . S
C278 H300 0.931 . S
C279 C276 1.481 . S
C279 C280 1.387 . S
C279 C284 1.390 . S
C280 C279 1.387 . S
C280 C281 1.401 . S
C280 H301 0.930 . S
C281 C280 1.401 . S
C281 C282 1.376 . S
C281 C290 1.511 . S
C282 C281 1.376 . S
C282 C283 1.392 . S
C282 H303 0.931 . S
C283 C282 1.392 . S
C283 C284 1.361 . S
C283 C285 1.500 . S
C284 C279 1.390 . S
C284 C283 1.361 . S
C284 H302 0.931 . S
C285 C283 1.500 . S
C285 C286 1.371 . S
C285 C287 1.365 . S
C286 C285 1.371 . S
C286 C296 1.386 . S
C286 H304 0.931 . S
C287 C285 1.365 . S
C287 C288 1.409 . S
C287 H305 0.929 . S
C288 C287 1.409 . S
C288 C289 1.380 . S
C288 H306 0.930 . S
C289 C288 1.380 . S
C289 C296 1.357 . S
C290 C281 1.511 . S
C290 C291 1.341 . S
C290 C292 1.371 . S
C291 C290 1.341 . S
C291 C295 1.394 . S
C291 H307 0.930 . S
C292 C290 1.371 . S
C292 C293 1.392 . S
C292 H308 0.931 . S
C293 C292 1.392 . S
C293 C294 1.331 . S
C293 H311 0.932 . S
C294 C293 1.331 . S
C294 C295 1.336 . S
C295 C291 1.394 . S
C295 C294 1.336 . S
C295 H310 0.929 . S
C296 C286 1.386 . S
C296 C289 1.357 . S
C296 H309 0.928 . S
H297 C273 0.931 . S
H298 C275 0.930 . S
H299 C277 0.929 . S
H300 C278 0.931 . S
H301 C280 0.930 . S
H302 C284 0.931 . S
H303 C282 0.931 . S
H304 C286 0.931 . S
H305 C287 0.929 . S
H306 C288 0.930 . S
H307 C291 0.930 . S
H308 C292 0.931 . S
H309 C296 0.928 . S
H310 C295 0.929 . S
H311 C293 0.932 . S
Dy312 O315 2.307 1_545 S
Dy312 O317 2.395 1_655 S
Dy312 O318 2.379 . S
Dy312 O320 2.339 . S
Dy312 O322 2.273 1_655 S
Dy312 O326 2.275 1_655 S
Dy312 C334 2.738 . S
Dy313 O316 2.298 . S
Dy313 O319 2.275 1_455 S
Dy313 O321 2.307 1_565 S
Dy313 O323 2.428 . S
Dy313 O324 2.379 . S
Dy313 O327 2.339 . S
Dy313 C343 2.738 . S
C314 O326 1.254 1_565 S
C314 O327 1.257 . S
O315 Dy312 2.307 1_565 S
O315 C325 1.266 . S
O316 Dy313 2.298 . S
O316 C325 1.236 1_455 S
O317 Dy312 2.395 1_455 S
O317 C334 1.255 1_455 S
O318 Dy312 2.379 . S
O318 C334 1.249 . S
O319 Dy313 2.275 1_655 S
O319 C335 1.254 1_565 S
O320 Dy312 2.339 . S
O320 C335 1.257 . S
O321 Dy313 2.307 1_545 S
O321 C336 1.266 . S
O322 Dy312 2.273 1_455 S
O322 C336 1.288 . S
O323 Dy313 2.428 . S
O323 C343 1.315 . S
O324 Dy313 2.379 . S
O324 C343 1.249 . S
C325 O315 1.266 . S
C325 O316 1.236 1_655 S
O326 Dy312 2.275 1_455 S
O326 C314 1.254 1_545 S
O327 Dy313 2.339 . S
O327 C314 1.257 . S
C328 C331 1.344 1_655 S
C328 C332 1.328 . S
C328 C334 1.516 . S
C329 C330 1.304 1_655 S
C329 C333 1.323 . S
C330 C329 1.304 1_455 S
C330 C331 1.371 . S
C330 H344 0.930 . S
C331 C328 1.344 1_455 S
C331 C330 1.371 . S
C331 H345 0.931 . S
C332 C328 1.328 . S
C332 C333 1.433 . S
C332 H346 0.931 . S
C333 C329 1.323 . S
C333 C332 1.433 . S
C333 H347 0.933 . S
C334 Dy312 2.738 . S
C334 O317 1.255 1_655 S
C334 O318 1.249 . S
C334 C328 1.516 . S
C335 O319 1.254 1_545 S
C335 O320 1.257 . S
C336 O321 1.266 . S
C336 O322 1.288 . S
C337 C340 1.363 . S
C337 C341 1.328 . S
C337 C343 1.516 . S
C338 C339 1.337 . S
C338 C342 1.323 . S
C339 C338 1.337 . S
C339 C340 1.371 . S
C339 H348 0.896 1_455 S
C340 C337 1.363 . S
C340 C339 1.371 . S
C340 H349 0.912 1_455 S
C341 C337 1.328 . S
C341 C342 1.433 . S
C341 H350 0.931 . S
C342 C338 1.323 . S
C342 C341 1.433 . S
C342 H351 0.933 . S
C343 Dy313 2.738 . S
C343 O323 1.315 . S
C343 O324 1.249 . S
C343 C337 1.516 . S
H344 C330 0.930 . S
H345 C331 0.931 . S
H346 C332 0.931 . S
H347 C333 0.933 . S
H348 C339 0.896 1_655 S
H349 C340 0.912 1_655 S
H350 C341 0.931 . S
H351 C342 0.933 . S
Dy352 O355 2.307 . S
Dy352 O357 2.395 1_565 S
Dy352 O358 2.379 . S
Dy352 O360 2.339 . S
Dy352 O362 2.298 . S
Dy352 O366 2.275 1_565 S
Dy352 C374 2.738 . S
Dy353 O356 2.298 . S
Dy353 O359 2.275 1_545 S
Dy353 O361 2.307 . S
Dy353 O363 2.395 1_545 S
Dy353 O364 2.379 . S
Dy353 O367 2.339 . S
Dy353 C383 2.738 . S
C354 O366 1.254 . S
C354 O367 1.257 . S
O355 Dy352 2.307 . S
O355 C365 1.266 . S
O356 Dy353 2.298 . S
O356 C365 1.236 1_545 S
O357 Dy352 2.395 1_545 S
O357 C374 1.255 1_545 S
O358 Dy352 2.379 . S
O358 C374 1.249 . S
O359 Dy353 2.275 1_565 S
O359 C375 1.254 . S
O360 Dy352 2.339 . S
O360 C375 1.257 . S
O361 Dy353 2.307 . S
O361 C376 1.266 . S
O362 Dy352 2.298 . S
O362 C376 1.236 1_565 S
O363 Dy353 2.395 1_565 S
O363 C383 1.255 1_565 S
O364 Dy353 2.379 . S
O364 C383 1.249 . S
C365 O355 1.266 . S
C365 O356 1.236 1_565 S
O366 Dy352 2.275 1_545 S
O366 C354 1.254 . S
O367 Dy353 2.339 . S
O367 C354 1.257 . S
C368 C371 1.344 1_565 S
C368 C372 1.328 . S
C368 C374 1.516 . S
C369 C370 1.301 . S
C369 C373 1.323 . S
C370 C369 1.301 . S
C370 C371 1.371 1_565 S
C370 H384 0.933 1_565 S
C371 C368 1.344 1_545 S
C371 C370 1.371 1_545 S
C371 H385 0.931 . S
C372 C368 1.328 . S
C372 C373 1.433 . S
C372 H386 0.931 . S
C373 C369 1.323 . S
C373 C372 1.433 . S
C373 H387 0.933 . S
C374 Dy352 2.738 . S
C374 O357 1.255 1_565 S
C374 O358 1.249 . S
C374 C368 1.516 . S
C375 O359 1.254 . S
C375 O360 1.257 . S
C376 O361 1.266 . S
C376 O362 1.236 1_545 S
C377 C380 1.303 1_545 S
C377 C381 1.328 . S
C377 C383 1.516 . S
C378 C379 1.314 . S
C378 C382 1.323 . S
C379 C378 1.314 . S
C379 C380 1.364 1_545 S
C379 H388 0.922 1_545 S
C380 C377 1.303 1_565 S
C380 C379 1.364 1_565 S
C380 H389 0.980 . S
C381 C377 1.328 . S
C381 C382 1.433 . S
C381 H390 0.931 . S
C382 C378 1.323 . S
C382 C381 1.433 . S
C382 H391 0.933 . S
C383 Dy353 2.738 . S
C383 O363 1.255 1_545 S
C383 O364 1.249 . S
C383 C377 1.516 . S
H384 C370 0.933 1_545 S
H385 C371 0.931 . S
H386 C372 0.931 . S
H387 C373 0.933 . S
H388 C379 0.922 1_565 S
H389 C380 0.980 . S
H390 C381 0.931 . S
H391 C382 0.933 . S
Dy392 O395 2.307 . S
Dy392 O397 2.395 . S
Dy392 O398 2.379 . S
Dy392 O400 2.339 . S
Dy392 O402 2.298 . S
Dy392 O406 2.275 . S
Dy392 C414 2.738 . S
Dy393 O396 2.298 . S
Dy393 O399 2.275 . S
Dy393 O401 2.307 . S
Dy393 O403 2.395 . S
Dy393 O404 2.379 . S
Dy393 O407 2.339 . S
Dy393 C423 2.738 . S
C394 O406 1.254 . S
C394 O407 1.257 . S
O395 Dy392 2.307 . S
O395 C405 1.266 . S
O396 Dy393 2.298 . S
O396 C405 1.236 . S
O397 Dy392 2.395 . S
O397 C414 1.255 . S
O398 Dy392 2.379 . S
O398 C414 1.249 . S
O399 Dy393 2.275 . S
O399 C415 1.254 . S
O400 Dy392 2.339 . S
O400 C415 1.257 . S
O401 Dy393 2.307 . S
O401 C416 1.266 . S
O402 Dy392 2.298 . S
O402 C416 1.236 . S
O403 Dy393 2.395 . S
O403 C423 1.255 . S
O404 Dy393 2.379 . S
O404 C423 1.249 . S
C405 O395 1.266 . S
C405 O396 1.236 . S
O406 Dy392 2.275 . S
O406 C394 1.254 . S
O407 Dy393 2.339 . S
O407 C394 1.257 . S
C408 C411 1.344 . S
C408 C412 1.328 . S
C408 C414 1.516 . S
C409 C410 1.304 . S
C409 C413 1.323 . S
C410 C409 1.304 . S
C410 C411 1.371 . S
C410 H424 0.930 . S
C411 C408 1.344 . S
C411 C410 1.371 . S
C411 H425 0.931 . S
C412 C408 1.328 . S
C412 C413 1.433 . S
C412 H426 0.931 . S
C413 C409 1.323 . S
C413 C412 1.433 . S
C413 H427 0.933 . S
C414 Dy392 2.738 . S
C414 O397 1.255 . S
C414 O398 1.249 . S
C414 C408 1.516 . S
C415 O399 1.254 . S
C415 O400 1.257 . S
C416 O401 1.266 . S
C416 O402 1.236 . S
C417 C420 1.344 . S
C417 C421 1.328 . S
C417 C423 1.516 . S
C418 C419 1.304 . S
C418 C422 1.323 . S
C419 C418 1.304 . S
C419 C420 1.371 . S
C419 H428 0.930 . S
C420 C417 1.344 . S
C420 C419 1.371 . S
C420 H429 0.931 . S
C421 C417 1.328 . S
C421 C422 1.433 . S
C421 H430 0.931 . S
C422 C418 1.323 . S
C422 C421 1.433 . S
C422 H431 0.933 . S
C423 Dy393 2.738 . S
C423 O403 1.255 . S
C423 O404 1.249 . S
C423 C417 1.516 . S
H424 C410 0.930 . S
H425 C411 0.931 . S
H426 C412 0.931 . S
H427 C413 0.933 . S
H428 C419 0.930 . S
H429 C420 0.931 . S
H430 C421 0.931 . S
H431 C422 0.933 . S
Dy432 O435 2.307 1_455 S
Dy432 O437 2.395 . S
Dy432 O438 2.379 . S
Dy432 O440 2.339 . S
Dy432 O442 2.298 . S
Dy432 O446 2.275 . S
Dy432 C454 2.738 . S
Dy433 O436 2.298 . S
Dy433 O439 2.275 1_655 S
Dy433 O441 2.307 1_655 S
Dy433 O443 2.395 . S
Dy433 O444 2.379 . S
Dy433 O447 2.339 . S
Dy433 C463 2.738 . S
C434 O446 1.254 . S
C434 O447 1.257 1_455 S
O435 Dy432 2.307 1_655 S
O435 C445 1.266 . S
O436 Dy433 2.298 . S
O436 C445 1.236 . S
O437 Dy432 2.395 . S
O437 C454 1.255 . S
O438 Dy432 2.379 . S
O438 C454 1.249 . S
O439 Dy433 2.275 1_455 S
O439 C455 1.254 . S
O440 Dy432 2.339 . S
O440 C455 1.257 . S
O441 Dy433 2.307 1_455 S
O441 C456 1.266 . S
O442 Dy432 2.298 . S
O442 C456 1.236 . S
O443 Dy433 2.395 . S
O443 C463 1.255 . S
O444 Dy433 2.379 . S
O444 C463 1.249 . S
C445 O435 1.266 . S
C445 O436 1.236 . S
O446 Dy432 2.275 . S
O446 C434 1.254 . S
O447 Dy433 2.339 . S
O447 C434 1.257 1_655 S
C448 C451 1.344 . S
C448 C452 1.328 . S
C448 C454 1.516 . S
C449 C450 1.304 . S
C449 C453 1.323 . S
C450 C449 1.304 . S
C450 C451 1.371 . S
C450 H464 0.930 . S
C451 C448 1.344 . S
C451 C450 1.371 . S
C451 H465 0.931 . S
C452 C448 1.328 . S
C452 C453 1.433 . S
C452 H466 0.931 . S
C453 C449 1.323 . S
C453 C452 1.433 . S
C453 H467 0.933 . S
C454 Dy432 2.738 . S
C454 O437 1.255 . S
C454 O438 1.249 . S
C454 C448 1.516 . S
C455 O439 1.254 . S
C455 O440 1.257 . S
C456 O441 1.266 . S
C456 O442 1.236 . S
C457 C460 1.344 . S
C457 C461 1.328 . S
C457 C463 1.516 . S
C458 C459 1.304 . S
C458 C462 1.323 . S
C459 C458 1.304 . S
C459 C460 1.371 . S
C459 H468 0.930 . S
C460 C457 1.344 . S
C460 C459 1.371 . S
C460 H469 0.931 . S
C461 C457 1.328 . S
C461 C462 1.433 . S
C461 H470 0.931 . S
C462 C458 1.323 . S
C462 C461 1.433 . S
C462 H471 0.933 . S
C463 Dy433 2.738 . S
C463 O443 1.255 . S
C463 O444 1.249 . S
C463 C457 1.516 . S
H464 C450 0.930 . S
H465 C451 0.931 . S
H466 C452 0.931 . S
H467 C453 0.933 . S
H468 C459 0.930 . S
H469 C460 0.931 . S
H470 C461 0.931 . S
H471 C462 0.933 . S
H472 C490 0.951 . S
H473 C492 0.955 . S
H474 C494 0.950 . S
H475 C495 0.950 . S
H476 C497 0.950 . S
H477 C500 0.950 . S
H478 C501 0.950 . S
H479 C503 0.950 . S
H480 C504 0.950 . S
H481 C505 0.951 . S
H482 C507 0.956 . S
H483 C509 0.950 . S
H484 C510 0.950 . S
H485 C512 0.950 . S
H486 C515 0.950 . S
H487 C516 0.950 . S
H488 C518 0.950 . S
H489 C519 0.950 . S
C490 H472 0.951 . S
C490 C491 1.366 . S
C490 C492 1.392 . S
C491 C490 1.366 . S
C491 C495 1.384 1_545 S
C492 H473 0.955 . S
C492 C490 1.392 . S
C492 C493 1.359 1_545 S
C493 C492 1.359 1_565 S
C493 C494 1.414 . S
C493 C496 1.499 . S
C494 H474 0.950 . S
C494 C493 1.414 . S
C494 C495 1.374 . S
C495 H475 0.950 . S
C495 C491 1.384 1_565 S
C495 C494 1.374 . S
C496 C493 1.499 . S
C496 C497 1.373 1_565 S
C496 C498 1.389 . S
C497 H476 0.950 . S
C497 C496 1.373 1_545 S
C497 C513 1.377 . S
C498 C496 1.389 . S
C498 C499 1.524 . S
C498 C512 1.377 . S
C499 C498 1.524 . S
C499 C500 1.397 . S
C499 C504 1.363 . S
C500 H477 0.950 . S
C500 C499 1.397 . S
C500 C501 1.334 . S
C501 H478 0.950 . S
C501 C500 1.334 . S
C501 C502 1.287 . S
C502 C501 1.287 . S
C502 C503 1.524 . S
C502 H521 0.913 . S
C503 H479 0.950 . S
C503 C502 1.524 . S
C503 C504 1.415 . S
C504 H480 0.950 . S
C504 C499 1.363 . S
C504 C503 1.415 . S
C505 H481 0.951 . S
C505 C506 1.366 . S
C505 C507 1.393 . S
C506 C505 1.366 . S
C506 C510 1.384 1_565 S
C507 H482 0.956 . S
C507 C505 1.393 . S
C507 C508 1.352 1_565 S
C508 C507 1.352 1_545 S
C508 C509 1.418 . S
C508 C511 1.504 . S
C509 H483 0.950 . S
C509 C508 1.418 . S
C509 C510 1.374 . S
C510 H484 0.950 . S
C510 C506 1.384 1_545 S
C510 C509 1.374 . S
C511 C508 1.504 . S
C511 C512 1.373 1_545 S
C511 C513 1.389 . S
C512 H485 0.950 . S
C512 C498 1.377 . S
C512 C511 1.373 1_565 S
C513 C497 1.377 . S
C513 C511 1.389 . S
C513 C514 1.524 . S
C514 C513 1.524 . S
C514 C515 1.397 . S
C514 C519 1.363 . S
C515 H486 0.950 . S
C515 C514 1.397 . S
C515 C516 1.334 . S
C516 H487 0.950 . S
C516 C515 1.334 . S
C516 C517 1.287 . S
C517 C516 1.287 . S
C517 C518 1.524 . S
C517 H520 0.999 . S
C518 H488 0.950 . S
C518 C517 1.524 . S
C518 C519 1.415 . S
C519 H489 0.950 . S
C519 C514 1.363 . S
C519 C518 1.415 . S
H520 C517 0.999 . S
H521 C502 0.913 . S
H522 C540 0.951 . S
H523 C542 0.951 . S
H524 C544 0.950 . S
H525 C545 0.950 . S
H526 C547 0.950 . S
H527 C550 0.950 . S
H528 C551 0.950 . S
H529 C553 0.950 . S
H530 C554 0.950 . S
H531 C555 0.951 . S
H532 C557 0.951 . S
H533 C559 0.950 . S
H534 C560 0.950 . S
H535 C562 0.950 . S
H536 C565 0.950 . S
H537 C566 0.950 . S
H538 C568 0.950 . S
H539 C569 0.950 . S
C540 H522 0.951 . S
C540 C541 1.366 . S
C540 C542 1.388 . S
C541 C540 1.366 . S
C541 C545 1.385 . S
C542 H523 0.951 . S
C542 C540 1.388 . S
C542 C543 1.366 . S
C543 C542 1.366 . S
C543 C544 1.414 . S
C543 C546 1.499 . S
C544 H524 0.950 . S
C544 C543 1.414 . S
C544 C545 1.374 . S
C545 H525 0.950 . S
C545 C541 1.385 . S
C545 C544 1.374 . S
C546 C543 1.499 . S
C546 C547 1.373 . S
C546 C548 1.389 . S
C547 H526 0.950 . S
C547 C546 1.373 . S
C547 C563 1.377 . S
C548 C546 1.389 . S
C548 C549 1.524 . S
C548 C562 1.377 . S
C549 C548 1.524 . S
C549 C550 1.397 . S
C549 C554 1.363 . S
C550 H527 0.950 . S
C550 C549 1.397 . S
C550 C551 1.334 . S
C551 H528 0.950 . S
C551 C550 1.334 . S
C551 C552 1.287 . S
C552 C551 1.287 . S
C552 C553 1.524 . S
C552 H571 0.913 . S
C553 H529 0.950 . S
C553 C552 1.524 . S
C553 C554 1.415 . S
C554 H530 0.950 . S
C554 C549 1.363 . S
C554 C553 1.415 . S
C555 H531 0.951 . S
C555 C556 1.366 . S
C555 C557 1.388 . S
C556 C555 1.366 . S
C556 C560 1.385 . S
C557 H532 0.951 . S
C557 C555 1.388 . S
C557 C558 1.366 . S
C558 C557 1.366 . S
C558 C559 1.414 . S
C558 C561 1.499 . S
C559 H533 0.950 . S
C559 C558 1.414 . S
C559 C560 1.374 . S
C560 H534 0.950 . S
C560 C556 1.385 . S
C560 C559 1.374 . S
C561 C558 1.499 . S
C561 C562 1.373 . S
C561 C563 1.389 . S
C562 H535 0.950 . S
C562 C548 1.377 . S
C562 C561 1.373 . S
C563 C547 1.377 . S
C563 C561 1.389 . S
C563 C564 1.524 . S
C564 C563 1.524 . S
C564 C565 1.397 . S
C564 C569 1.363 . S
C565 H536 0.950 . S
C565 C564 1.397 . S
C565 C566 1.334 . S
C566 H537 0.950 . S
C566 C565 1.334 . S
C566 C567 1.287 . S
C567 C566 1.287 . S
C567 C568 1.524 . S
C567 H570 0.999 . S
C568 H538 0.950 . S
C568 C567 1.524 . S
C568 C569 1.415 . S
C569 H539 0.950 . S
C569 C564 1.363 . S
C569 C568 1.415 . S
H570 C567 0.999 . S
H571 C552 0.913 . S
H572 C590 0.951 . S
H573 C592 0.951 . S
H574 C594 0.950 . S
H575 C595 0.950 . S
H576 C597 0.950 . S
H577 C600 0.950 . S
H578 C601 0.950 . S
H579 C603 0.950 . S
H580 C604 0.950 . S
H581 C605 0.951 . S
H582 C607 0.951 . S
H583 C609 0.950 . S
H584 C610 0.950 . S
H585 C612 0.950 . S
H586 C615 0.950 . S
H587 C616 0.950 . S
H588 C618 0.950 . S
H589 C619 0.950 . S
C590 H572 0.951 . S
C590 C591 1.366 . S
C590 C592 1.388 . S
C591 C590 1.366 . S
C591 C595 1.385 . S
C592 H573 0.951 . S
C592 C590 1.388 . S
C592 C593 1.366 . S
C593 C592 1.366 . S
C593 C594 1.414 . S
C593 C596 1.499 . S
C594 H574 0.950 . S
C594 C593 1.414 . S
C594 C595 1.374 . S
C595 H575 0.950 . S
C595 C591 1.385 . S
C595 C594 1.374 . S
C596 C593 1.499 . S
C596 C597 1.373 . S
C596 C598 1.389 . S
C597 H576 0.950 . S
C597 C596 1.373 . S
C597 C613 1.377 . S
C598 C596 1.389 . S
C598 C599 1.524 . S
C598 C612 1.377 . S
C599 C598 1.524 . S
C599 C600 1.397 . S
C599 C604 1.363 . S
C600 H577 0.950 . S
C600 C599 1.397 . S
C600 C601 1.334 . S
C601 H578 0.950 . S
C601 C600 1.334 . S
C601 C602 1.287 . S
C602 C601 1.287 . S
C602 C603 1.524 . S
C602 H621 0.913 . S
C603 H579 0.950 . S
C603 C602 1.524 . S
C603 C604 1.415 . S
C604 H580 0.950 . S
C604 C599 1.363 . S
C604 C603 1.415 . S
C605 H581 0.951 . S
C605 C606 1.366 . S
C605 C607 1.388 . S
C606 C605 1.366 . S
C606 C610 1.385 . S
C607 H582 0.951 . S
C607 C605 1.388 . S
C607 C608 1.366 . S
C608 C607 1.366 . S
C608 C609 1.414 . S
C608 C611 1.499 . S
C609 H583 0.950 . S
C609 C608 1.414 . S
C609 C610 1.374 . S
C610 H584 0.950 . S
C610 C606 1.385 . S
C610 C609 1.374 . S
C611 C608 1.499 . S
C611 C612 1.373 . S
C611 C613 1.389 . S
C612 H585 0.950 . S
C612 C598 1.377 . S
C612 C611 1.373 . S
C613 C597 1.377 . S
C613 C611 1.389 . S
C613 C614 1.524 . S
C614 C613 1.524 . S
C614 C615 1.397 . S
C614 C619 1.363 . S
C615 H586 0.950 . S
C615 C614 1.397 . S
C615 C616 1.334 . S
C616 H587 0.950 . S
C616 C615 1.334 . S
C616 C617 1.287 . S
C617 C616 1.287 . S
C617 C618 1.524 . S
C617 H620 0.999 . S
C618 H588 0.950 . S
C618 C617 1.524 . S
C618 C619 1.415 . S
C619 H589 0.950 . S
C619 C614 1.363 . S
C619 C618 1.415 . S
H620 C617 0.999 . S
H621 C602 0.913 . S
H622 C640 0.951 . S
H623 C642 0.951 . S
H624 C644 1.000 . S
H625 C645 0.950 . S
H626 C647 0.950 1_655 S
H627 C650 0.950 . S
H628 C651 0.950 . S
H629 C653 0.950 . S
H630 C654 0.950 . S
H631 C655 0.951 . S
H632 C657 0.935 1_655 S
H633 C659 0.950 . S
H634 C660 0.950 . S
H635 C662 0.950 . S
H636 C665 0.950 . S
H637 C666 0.950 . S
H638 C668 0.950 . S
H639 C669 0.950 . S
C640 H622 0.951 . S
C640 C641 1.366 . S
C640 C642 1.388 . S
C641 C640 1.366 . S
C641 C645 1.385 . S
C642 H623 0.951 . S
C642 C640 1.388 . S
C642 C643 1.366 . S
C643 C642 1.366 . S
C643 C644 1.414 . S
C643 C646 1.499 . S
C644 H624 1.000 . S
C644 C643 1.414 . S
C644 C645 1.374 . S
C645 H625 0.950 . S
C645 C641 1.385 . S
C645 C644 1.374 . S
C646 C643 1.499 . S
C646 C647 1.373 . S
C646 C648 1.389 . S
C647 H626 0.950 1_455 S
C647 C646 1.373 . S
C647 C663 1.377 . S
C648 C646 1.389 . S
C648 C649 1.524 . S
C648 C662 1.377 . S
C649 C648 1.524 . S
C649 C650 1.397 . S
C649 C654 1.363 . S
C650 H627 0.950 . S
C650 C649 1.397 . S
C650 C651 1.334 . S
C651 H628 0.950 . S
C651 C650 1.334 . S
C651 C652 1.287 . S
C652 C651 1.287 . S
C652 C653 1.524 . S
C652 H671 0.913 . S
C653 H629 0.950 . S
C653 C652 1.524 . S
C653 C654 1.415 . S
C654 H630 0.950 . S
C654 C649 1.363 . S
C654 C653 1.415 . S
C655 H631 0.951 . S
C655 C656 1.366 1_655 S
C655 C657 1.389 1_655 S
C656 C655 1.366 1_455 S
C656 C660 1.385 . S
C657 H632 0.935 1_455 S
C657 C655 1.389 1_455 S
C657 C658 1.380 . S
C658 C657 1.380 . S
C658 C659 1.414 . S
C658 C661 1.499 . S
C659 H633 0.950 . S
C659 C658 1.414 . S
C659 C660 1.374 . S
C660 H634 0.950 . S
C660 C656 1.385 . S
C660 C659 1.374 . S
C661 C658 1.499 . S
C661 C662 1.373 . S
C661 C663 1.389 . S
C662 H635 0.950 . S
C662 C648 1.377 . S
C662 C661 1.373 . S
C663 C647 1.377 . S
C663 C661 1.389 . S
C663 C664 1.524 1_455 S
C664 C663 1.524 1_655 S
C664 C665 1.397 . S
C664 C669 1.363 . S
C665 H636 0.950 . S
C665 C664 1.397 . S
C665 C666 1.334 . S
C666 H637 0.950 . S
C666 C665 1.334 . S
C666 C667 1.287 . S
C667 C666 1.287 . S
C667 C668 1.524 . S
C667 H670 0.999 . S
C668 H638 0.950 . S
C668 C667 1.524 . S
C668 C669 1.415 . S
C669 H639 0.950 . S
C669 C664 1.363 . S
C669 C668 1.415 . S
H670 C667 0.999 . S
H671 C652 0.913 . S
H672 C690 0.951 . S
H673 C692 0.951 . S
H674 C694 0.950 1_556 S
H675 C695 0.950 . S
H676 C697 0.950 . S
H677 C700 0.950 . S
H678 C701 0.950 . S
H679 C703 0.950 . S
H680 C704 0.950 . S
H681 C705 0.951 . S
H682 C707 0.951 . S
H683 C709 0.950 . S
H684 C710 0.950 . S
H685 C712 0.950 . S
H686 C715 0.950 . S
H687 C716 0.950 . S
H688 C718 0.950 . S
H689 C719 0.950 . S
C690 H672 0.951 . S
C690 C691 1.366 1_565 S
C690 C692 1.388 . S
C691 C690 1.366 1_545 S
C691 C695 1.384 . S
C692 H673 0.951 . S
C692 C690 1.388 . S
C692 C693 1.366 1_565 S
C693 C692 1.366 1_545 S
C693 C694 1.414 . S
C693 C696 1.499 1_554 S
C694 H674 0.950 1_554 S
C694 C693 1.414 . S
C694 C695 1.374 . S
C695 H675 0.950 . S
C695 C691 1.384 . S
C695 C694 1.374 . S
C696 C693 1.499 1_556 S
C696 C697 1.373 1_545 S
C696 C698 1.389 . S
C697 H676 0.950 . S
C697 C696 1.373 1_565 S
C697 C713 1.377 . S
C698 C696 1.389 . S
C698 C699 1.524 1_556 S
C698 C712 1.377 . S
C699 C698 1.524 1_554 S
C699 C700 1.397 . S
C699 C704 1.363 . S
C700 H677 0.950 . S
C700 C699 1.397 . S
C700 C701 1.334 . S
C701 H678 0.950 . S
C701 C700 1.334 . S
C701 C702 1.287 . S
C702 C701 1.287 . S
C702 C703 1.524 . S
C702 H721 0.913 . S
C703 H679 0.950 . S
C703 C702 1.524 . S
C703 C704 1.415 . S
C704 H680 0.950 . S
C704 C699 1.363 . S
C704 C703 1.415 . S
C705 H681 0.951 . S
C705 C706 1.370 . S
C705 C707 1.388 . S
C706 C705 1.370 . S
C706 C710 1.379 1_545 S
C707 H682 0.951 . S
C707 C705 1.388 . S
C707 C708 1.354 1_545 S
C708 C707 1.354 1_565 S
C708 C709 1.422 . S
C708 C711 1.497 . S
C709 H683 0.950 . S
C709 C708 1.422 . S
C709 C710 1.374 . S
C710 H684 0.950 . S
C710 C706 1.379 1_565 S
C710 C709 1.374 . S
C711 C708 1.497 . S
C711 C712 1.346 1_565 S
C711 C713 1.419 . S
C712 H685 0.950 . S
C712 C698 1.377 . S
C712 C711 1.346 1_545 S
C713 C697 1.377 . S
C713 C711 1.419 . S
C713 C714 1.524 . S
C714 C713 1.524 . S
C714 C715 1.397 . S
C714 C719 1.363 . S
C715 H686 0.950 . S
C715 C714 1.397 . S
C715 C716 1.334 . S
C716 H687 0.950 . S
C716 C715 1.334 . S
C716 C717 1.287 . S
C717 C716 1.287 . S
C717 C718 1.524 . S
C717 H720 0.999 . S
C718 H688 0.950 . S
C718 C717 1.524 . S
C718 C719 1.415 . S
C719 H689 0.950 . S
C719 C714 1.363 . S
C719 C718 1.415 . S
H720 C717 0.999 . S
H721 C702 0.913 . S
H722 C740 0.951 . S
H723 C742 0.951 . S
H724 C744 0.950 . S
H725 C745 0.950 . S
H726 C747 0.950 . S
H727 C750 0.950 . S
H728 C751 0.950 . S
H729 C753 0.950 . S
H730 C754 0.950 . S
H731 C755 0.951 . S
H732 C757 0.951 . S
H733 C759 0.950 . S
H734 C760 0.950 . S
H735 C762 0.950 . S
H736 C765 0.950 . S
H737 C766 0.950 . S
H738 C768 0.950 . S
H739 C769 0.950 . S
C740 H722 0.951 . S
C740 C741 1.366 . S
C740 C742 1.388 . S
C741 C740 1.366 . S
C741 C745 1.385 . S
C742 H723 0.951 . S
C742 C740 1.388 . S
C742 C743 1.366 . S
C743 C742 1.366 . S
C743 C744 1.414 . S
C743 C746 1.499 . S
C744 H724 0.950 . S
C744 C743 1.414 . S
C744 C745 1.374 . S
C745 H725 0.950 . S
C745 C741 1.385 . S
C745 C744 1.374 . S
C746 C743 1.499 . S
C746 C747 1.373 . S
C746 C748 1.389 . S
C747 H726 0.950 . S
C747 C746 1.373 . S
C747 C763 1.377 . S
C748 C746 1.389 . S
C748 C749 1.524 . S
C748 C762 1.377 . S
C749 C748 1.524 . S
C749 C750 1.397 . S
C749 C754 1.363 . S
C750 H727 0.950 . S
C750 C749 1.397 . S
C750 C751 1.334 . S
C751 H728 0.950 . S
C751 C750 1.334 . S
C751 C752 1.287 . S
C752 C751 1.287 . S
C752 C753 1.524 . S
C752 H771 0.913 . S
C753 H729 0.950 . S
C753 C752 1.524 . S
C753 C754 1.415 . S
C754 H730 0.950 . S
C754 C749 1.363 . S
C754 C753 1.415 . S
C755 H731 0.951 . S
C755 C756 1.366 . S
C755 C757 1.388 . S
C756 C755 1.366 . S
C756 C760 1.385 . S
C757 H732 0.951 . S
C757 C755 1.388 . S
C757 C758 1.366 . S
C758 C757 1.366 . S
C758 C759 1.414 . S
C758 C761 1.499 . S
C759 H733 0.950 . S
C759 C758 1.414 . S
C759 C760 1.374 . S
C760 H734 0.950 . S
C760 C756 1.385 . S
C760 C759 1.374 . S
C761 C758 1.499 . S
C761 C762 1.373 . S
C761 C763 1.389 . S
C762 H735 0.950 . S
C762 C748 1.377 . S
C762 C761 1.373 . S
C763 C747 1.377 . S
C763 C761 1.389 . S
C763 C764 1.524 . S
C764 C763 1.524 . S
C764 C765 1.397 . S
C764 C769 1.363 . S
C765 H736 0.950 . S
C765 C764 1.397 . S
C765 C766 1.334 . S
C766 H737 0.950 . S
C766 C765 1.334 . S
C766 C767 1.287 . S
C767 C766 1.287 . S
C767 C768 1.524 . S
C767 H770 0.999 . S
C768 H738 0.950 . S
C768 C767 1.524 . S
C768 C769 1.415 . S
C769 H739 0.950 . S
C769 C764 1.363 . S
C769 C768 1.415 . S
H770 C767 0.999 . S
H771 C752 0.913 . S
H772 C790 0.951 . S
H773 C792 0.951 . S
H774 C794 0.950 . S
H775 C795 0.950 . S
H776 C797 0.950 . S
H777 C800 0.950 . S
H778 C801 0.950 . S
H779 C803 0.950 . S
H780 C804 0.950 . S
H781 C805 0.951 . S
H782 C807 0.951 . S
H783 C809 0.950 . S
H784 C810 0.950 . S
H785 C812 0.950 . S
H786 C815 0.950 . S
H787 C816 0.950 . S
H788 C818 0.950 . S
H789 C819 0.950 . S
C790 H772 0.951 . S
C790 C791 1.366 . S
C790 C792 1.388 . S
C791 C790 1.366 . S
C791 C795 1.385 . S
C792 H773 0.951 . S
C792 C790 1.388 . S
C792 C793 1.366 . S
C793 C792 1.366 . S
C793 C794 1.414 . S
C793 C796 1.499 . S
C794 H774 0.950 . S
C794 C793 1.414 . S
C794 C795 1.374 . S
C795 H775 0.950 . S
C795 C791 1.385 . S
C795 C794 1.374 . S
C796 C793 1.499 . S
C796 C797 1.373 . S
C796 C798 1.389 . S
C797 H776 0.950 . S
C797 C796 1.373 . S
C797 C813 1.377 . S
C798 C796 1.389 . S
C798 C799 1.524 . S
C798 C812 1.377 . S
C799 C798 1.524 . S
C799 C800 1.397 . S
C799 C804 1.363 . S
C800 H777 0.950 . S
C800 C799 1.397 . S
C800 C801 1.334 . S
C801 H778 0.950 . S
C801 C800 1.334 . S
C801 C802 1.287 . S
C802 C801 1.287 . S
C802 C803 1.524 . S
C802 H821 0.913 . S
C803 H779 0.950 . S
C803 C802 1.524 . S
C803 C804 1.415 . S
C804 H780 0.950 . S
C804 C799 1.363 . S
C804 C803 1.415 . S
C805 H781 0.951 . S
C805 C806 1.366 . S
C805 C807 1.388 1_556 S
C806 C805 1.366 . S
C806 C810 1.385 . S
C807 H782 0.951 . S
C807 C805 1.388 1_554 S
C807 C808 1.366 . S
C808 C807 1.366 . S
C808 C809 1.414 1_554 S
C808 C811 1.499 . S
C809 H783 0.950 . S
C809 C808 1.414 1_556 S
C809 C810 1.374 . S
C810 H784 0.950 . S
C810 C806 1.385 . S
C810 C809 1.374 . S
C811 C808 1.499 . S
C811 C812 1.373 . S
C811 C813 1.389 . S
C812 H785 0.950 . S
C812 C798 1.377 . S
C812 C811 1.373 . S
C813 C797 1.377 . S
C813 C811 1.389 . S
C813 C814 1.524 . S
C814 C813 1.524 . S
C814 C815 1.397 . S
C814 C819 1.363 . S
C815 H786 0.950 . S
C815 C814 1.397 . S
C815 C816 1.334 . S
C816 H787 0.950 . S
C816 C815 1.334 . S
C816 C817 1.287 . S
C817 C816 1.287 . S
C817 C818 1.524 . S
C817 H820 0.999 . S
C818 H788 0.950 . S
C818 C817 1.524 . S
C818 C819 1.415 . S
C819 H789 0.950 . S
C819 C814 1.363 . S
C819 C818 1.415 . S
H820 C817 0.999 . S
H821 C802 0.913 . S
H822 C840 0.979 . S
H823 C842 0.951 . S
H824 C844 0.950 . S
H825 C845 0.950 . S
H826 C847 0.950 . S
H827 C850 0.901 1_655 S
H828 C851 0.950 . S
H829 C853 0.950 . S
H830 C854 0.950 . S
H831 C855 0.951 . S
H832 C857 0.951 . S
H833 C859 0.950 . S
H834 C860 0.950 . S
H835 C862 0.950 . S
H836 C865 0.950 . S
H837 C866 0.950 . S
H838 C868 0.950 . S
H839 C869 0.950 . S
C840 H822 0.979 . S
C840 C841 1.340 1_455 S
C840 C842 1.387 . S
C841 C840 1.340 1_655 S
C841 C845 1.385 . S
C842 H823 0.951 . S
C842 C840 1.387 . S
C842 C843 1.366 1_455 S
C843 C842 1.366 1_655 S
C843 C844 1.414 . S
C843 C846 1.499 . S
C844 H824 0.950 . S
C844 C843 1.414 . S
C844 C845 1.374 . S
C845 H825 0.950 . S
C845 C841 1.385 . S
C845 C844 1.374 . S
C846 C843 1.499 . S
C846 C847 1.373 . S
C846 C848 1.389 1_654 S
C847 H826 0.950 . S
C847 C846 1.373 . S
C847 C863 1.377 1_554 S
C848 C846 1.389 1_456 S
C848 C849 1.524 1_556 S
C848 C862 1.377 . S
C849 C848 1.524 1_554 S
C849 C850 1.397 . S
C849 C854 1.363 1_554 S
C850 H827 0.901 1_455 S
C850 C849 1.397 . S
C850 C851 1.334 . S
C851 H828 0.950 . S
C851 C850 1.334 . S
C851 C852 1.287 . S
C852 C851 1.287 . S
C852 C853 1.524 1_554 S
C852 H871 0.913 . S
C853 H829 0.950 . S
C853 C852 1.524 1_556 S
C853 C854 1.415 . S
C854 H830 0.950 . S
C854 C849 1.363 1_556 S
C854 C853 1.415 . S
C855 H831 0.951 . S
C855 C856 1.369 1_655 S
C855 C857 1.388 . S
C856 C855 1.369 1_455 S
C856 C860 1.381 . S
C857 H832 0.951 . S
C857 C855 1.388 . S
C857 C858 1.366 . S
C858 C857 1.366 . S
C858 C859 1.414 1_655 S
C858 C861 1.499 . S
C859 H833 0.950 . S
C859 C858 1.414 1_455 S
C859 C860 1.374 . S
C860 H834 0.950 . S
C860 C856 1.381 . S
C860 C859 1.374 . S
C861 C858 1.499 . S
C861 C862 1.373 1_655 S
C861 C863 1.389 . S
C862 H835 0.950 . S
C862 C848 1.377 . S
C862 C861 1.373 1_455 S
C863 C847 1.377 1_556 S
C863 C861 1.389 . S
C863 C864 1.524 . S
C864 C863 1.524 . S
C864 C865 1.397 . S
C864 C869 1.363 . S
C865 H836 0.950 . S
C865 C864 1.397 . S
C865 C866 1.334 . S
C866 H837 0.950 . S
C866 C865 1.334 . S
C866 C867 1.287 . S
C867 C866 1.287 . S
C867 C868 1.524 . S
C867 H870 0.999 . S
C868 H838 0.950 . S
C868 C867 1.524 . S
C868 C869 1.415 . S
C869 H839 0.950 . S
C869 C864 1.363 . S
C869 C868 1.415 . S
H870 C867 0.999 . S
H871 C852 0.913 . S
H872 C890 0.951 . S
H873 C892 0.951 1_655 S
H874 C894 0.950 . S
H875 C895 0.950 . S
H876 C897 0.950 . S
H877 C900 0.950 . S
H878 C901 0.950 . S
H879 C903 0.950 . S
H880 C904 0.950 . S
H881 C905 0.951 . S
H882 C907 0.951 . S
H883 C909 0.950 . S
H884 C910 0.950 . S
H885 C912 0.942 1_655 S
H886 C915 0.950 . S
H887 C916 0.950 . S
H888 C918 0.950 . S
H889 C919 0.950 . S
C890 H872 0.951 . S
C890 C891 1.366 . S
C890 C892 1.388 . S
C891 C890 1.366 . S
C891 C895 1.385 . S
C892 H873 0.951 1_455 S
C892 C890 1.388 . S
C892 C893 1.366 . S
C893 C892 1.366 . S
C893 C894 1.414 . S
C893 C896 1.499 . S
C894 H874 0.950 . S
C894 C893 1.414 . S
C894 C895 1.374 . S
C895 H875 0.950 . S
C895 C891 1.385 . S
C895 C894 1.374 . S
C896 C893 1.499 . S
C896 C897 1.373 . S
C896 C898 1.389 . S
C897 H876 0.950 . S
C897 C896 1.373 . S
C897 C913 1.377 . S
C898 C896 1.389 . S
C898 C899 1.524 . S
C898 C912 1.377 . S
C899 C898 1.524 . S
C899 C900 1.397 . S
C899 C904 1.363 1_455 S
C900 H877 0.950 . S
C900 C899 1.397 . S
C900 C901 1.334 . S
C901 H878 0.950 . S
C901 C900 1.334 . S
C901 C902 1.287 . S
C902 C901 1.287 . S
C902 C903 1.524 1_455 S
C902 H921 0.913 . S
C903 H879 0.950 . S
C903 C902 1.524 1_655 S
C903 C904 1.415 . S
C904 H880 0.950 . S
C904 C899 1.363 1_655 S
C904 C903 1.415 . S
C905 H881 0.951 . S
C905 C906 1.366 1_455 S
C905 C907 1.388 . S
C906 C905 1.366 1_655 S
C906 C910 1.385 . S
C907 H882 0.951 . S
C907 C905 1.388 . S
C907 C908 1.340 1_455 S
C908 C907 1.340 1_655 S
C908 C909 1.451 . S
C908 C911 1.488 1_655 S
C909 H883 0.950 . S
C909 C908 1.451 . S
C909 C910 1.374 . S
C910 H884 0.950 . S
C910 C906 1.385 . S
C910 C909 1.374 . S
C911 C908 1.488 1_455 S
C911 C912 1.373 . S
C911 C913 1.389 . S
C912 H885 0.942 1_455 S
C912 C898 1.377 . S
C912 C911 1.373 . S
C913 C897 1.377 . S
C913 C911 1.389 . S
C913 C914 1.524 . S
C914 C913 1.524 . S
C914 C915 1.397 1_455 S
C914 C919 1.363 . S
C915 H886 0.950 . S
C915 C914 1.397 1_655 S
C915 C916 1.334 . S
C916 H887 0.950 . S
C916 C915 1.334 . S
C916 C917 1.287 1_655 S
C917 C916 1.287 1_455 S
C917 C918 1.524 . S
C917 H920 0.999 . S
C918 H888 0.950 . S
C918 C917 1.524 . S
C918 C919 1.415 . S
C919 H889 0.950 . S
C919 C914 1.363 . S
C919 C918 1.415 . S
H920 C917 0.999 . S
H921 C902 0.913 . S
H922 C940 0.951 . S
H923 C942 0.951 . S
H924 C944 0.950 . S
H925 C945 0.950 . S
H926 C947 0.948 . S
H927 C950 0.950 . S
H928 C951 0.950 . S
H929 C953 0.950 . S
H930 C954 0.950 . S
H931 C955 0.951 . S
H932 C957 0.951 . S
H933 C959 0.950 . S
H934 C960 0.950 . S
H935 C962 0.950 . S
H936 C965 0.950 . S
H937 C966 0.950 . S
H938 C968 0.950 . S
H939 C969 0.950 1_565 S
C940 H922 0.951 . S
C940 C941 1.383 . S
C940 C942 1.388 . S
C941 C940 1.383 . S
C941 C945 1.365 1_545 S
C942 H923 0.951 . S
C942 C940 1.388 . S
C942 C943 1.366 1_545 S
C943 C942 1.366 1_565 S
C943 C944 1.414 . S
C943 C946 1.499 . S
C944 H924 0.950 . S
C944 C943 1.414 . S
C944 C945 1.374 . S
C945 H925 0.950 . S
C945 C941 1.365 1_565 S
C945 C944 1.374 . S
C946 C943 1.499 . S
C946 C947 1.375 1_565 S
C946 C948 1.389 . S
C947 H926 0.948 . S
C947 C946 1.375 1_545 S
C947 C963 1.376 1_545 S
C948 C946 1.389 . S
C948 C949 1.524 . S
C948 C962 1.377 . S
C949 C948 1.524 . S
C949 C950 1.397 . S
C949 C954 1.363 . S
C950 H927 0.950 . S
C950 C949 1.397 . S
C950 C951 1.334 . S
C951 H928 0.950 . S
C951 C950 1.334 . S
C951 C952 1.287 . S
C952 C951 1.287 . S
C952 C953 1.524 . S
C952 H971 0.913 . S
C953 H929 0.950 . S
C953 C952 1.524 . S
C953 C954 1.415 . S
C954 H930 0.950 . S
C954 C949 1.363 . S
C954 C953 1.415 . S
C955 H931 0.951 . S
C955 C956 1.366 . S
C955 C957 1.388 . S
C956 C955 1.366 . S
C956 C960 1.385 . S
C957 H932 0.951 . S
C957 C955 1.388 . S
C957 C958 1.366 . S
C958 C957 1.366 . S
C958 C959 1.414 . S
C958 C961 1.499 . S
C959 H933 0.950 . S
C959 C958 1.414 . S
C959 C960 1.374 . S
C960 H934 0.950 . S
C960 C956 1.385 . S
C960 C959 1.374 . S
C961 C958 1.499 . S
C961 C962 1.373 . S
C961 C963 1.389 . S
C962 H935 0.950 . S
C962 C948 1.377 . S
C962 C961 1.373 . S
C963 C947 1.376 1_565 S
C963 C961 1.389 . S
C963 C964 1.524 1_565 S
C964 C963 1.524 1_545 S
C964 C965 1.397 . S
C964 C969 1.363 . S
C965 H936 0.950 . S
C965 C964 1.397 . S
C965 C966 1.334 . S
C966 H937 0.950 . S
C966 C965 1.334 . S
C966 C967 1.287 . S
C967 C966 1.287 . S
C967 C968 1.524 . S
C967 H970 0.999 . S
C968 H938 0.950 . S
C968 C967 1.524 . S
C968 C969 1.415 . S
C969 H939 0.950 1_545 S
C969 C964 1.363 . S
C969 C968 1.415 . S
H970 C967 0.999 . S
H971 C952 0.913 . S
H972 C990 0.951 . S
H973 C992 0.951 . S
H974 C994 0.950 . S
H975 C995 0.950 . S
H976 C997 0.950 . S
H977 C1000 0.950 . S
H978 C1001 0.950 . S
H979 C1003 0.950 . S
H980 C1004 0.950 . S
H981 C1005 0.951 . S
H982 C1007 0.951 . S
H983 C1009 0.950 . S
H984 C1010 0.950 . S
H985 C1012 0.950 . S
H986 C1015 0.950 . S
H987 C1016 0.950 . S
H988 C1018 0.950 . S
H989 C1019 0.950 . S
C990 H972 0.951 . S
C990 C991 1.366 . S
C990 C992 1.388 . S
C991 C990 1.366 . S
C991 C995 1.385 . S
C992 H973 0.951 . S
C992 C990 1.388 . S
C992 C993 1.366 . S
C993 C992 1.366 . S
C993 C994 1.414 . S
C993 C996 1.499 . S
C994 H974 0.950 . S
C994 C993 1.414 . S
C994 C995 1.374 . S
C995 H975 0.950 . S
C995 C991 1.385 . S
C995 C994 1.374 . S
C996 C993 1.499 . S
C996 C997 1.373 . S
C996 C998 1.389 . S
C997 H976 0.950 . S
C997 C996 1.373 . S
C997 C1013 1.377 . S
C998 C996 1.389 . S
C998 C999 1.524 . S
C998 C1012 1.377 . S
C999 C998 1.524 . S
C999 C1000 1.397 . S
C999 C1004 1.363 . S
C1000 H977 0.950 . S
C1000 C999 1.397 . S
C1000 C1001 1.334 . S
C1001 H978 0.950 . S
C1001 C1000 1.334 . S
C1001 C1002 1.287 . S
C1002 C1001 1.287 . S
C1002 C1003 1.524 . S
C1002 H1021 0.913 . S
C1003 H979 0.950 . S
C1003 C1002 1.524 . S
C1003 C1004 1.415 . S
C1004 H980 0.950 . S
C1004 C999 1.363 . S
C1004 C1003 1.415 . S
C1005 H981 0.951 . S
C1005 C1006 1.366 . S
C1005 C1007 1.388 . S
C1006 C1005 1.366 . S
C1006 C1010 1.385 . S
C1007 H982 0.951 . S
C1007 C1005 1.388 . S
C1007 C1008 1.366 . S
C1008 C1007 1.366 . S
C1008 C1009 1.414 . S
C1008 C1011 1.499 . S
C1009 H983 0.950 . S
C1009 C1008 1.414 . S
C1009 C1010 1.374 . S
C1010 H984 0.950 . S
C1010 C1006 1.385 . S
C1010 C1009 1.374 . S
C1011 C1008 1.499 . S
C1011 C1012 1.373 . S
C1011 C1013 1.389 . S
C1012 H985 0.950 . S
C1012 C998 1.377 . S
C1012 C1011 1.373 . S
C1013 C997 1.377 . S
C1013 C1011 1.389 . S
C1013 C1014 1.524 . S
C1014 C1013 1.524 . S
C1014 C1015 1.397 . S
C1014 C1019 1.363 . S
C1015 H986 0.950 . S
C1015 C1014 1.397 . S
C1015 C1016 1.334 . S
C1016 H987 0.950 . S
C1016 C1015 1.334 . S
C1016 C1017 1.287 . S
C1017 C1016 1.287 . S
C1017 C1018 1.524 . S
C1017 H1020 0.999 . S
C1018 H988 0.950 . S
C1018 C1017 1.524 . S
C1018 C1019 1.415 . S
C1019 H989 0.950 . S
C1019 C1014 1.363 . S
C1019 C1018 1.415 . S
H1020 C1017 0.999 . S
H1021 C1002 0.913 . S
H1022 C1040 0.951 . S
H1023 C1042 0.951 . S
H1024 C1044 0.950 . S
H1025 C1045 0.950 . S
H1026 C1047 0.950 . S
H1027 C1050 0.950 . S
H1028 C1051 0.950 . S
H1029 C1053 0.950 . S
H1030 C1054 0.950 . S
H1031 C1055 0.951 . S
H1032 C1057 0.951 . S
H1033 C1059 0.950 . S
H1034 C1060 0.950 . S
H1035 C1062 0.950 . S
H1036 C1065 0.950 . S
H1037 C1066 0.950 . S
H1038 C1068 0.950 . S
H1039 C1069 0.950 . S
C1040 H1022 0.951 . S
C1040 C1041 1.366 . S
C1040 C1042 1.388 . S
C1041 C1040 1.366 . S
C1041 C1045 1.385 . S
C1042 H1023 0.951 . S
C1042 C1040 1.388 . S
C1042 C1043 1.366 . S
C1043 C1042 1.366 . S
C1043 C1044 1.414 . S
C1043 C1046 1.499 . S
C1044 H1024 0.950 . S
C1044 C1043 1.414 . S
C1044 C1045 1.374 . S
C1045 H1025 0.950 . S
C1045 C1041 1.385 . S
C1045 C1044 1.374 . S
C1046 C1043 1.499 . S
C1046 C1047 1.373 . S
C1046 C1048 1.389 . S
C1047 H1026 0.950 . S
C1047 C1046 1.373 . S
C1047 C1063 1.377 . S
C1048 C1046 1.389 . S
C1048 C1049 1.524 . S
C1048 C1062 1.377 . S
C1049 C1048 1.524 . S
C1049 C1050 1.397 . S
C1049 C1054 1.363 . S
C1050 H1027 0.950 . S
C1050 C1049 1.397 . S
C1050 C1051 1.334 . S
C1051 H1028 0.950 . S
C1051 C1050 1.334 . S
C1051 C1052 1.287 . S
C1052 C1051 1.287 . S
C1052 C1053 1.524 . S
C1052 H1071 0.913 . S
C1053 H1029 0.950 . S
C1053 C1052 1.524 . S
C1053 C1054 1.415 . S
C1054 H1030 0.950 . S
C1054 C1049 1.363 . S
C1054 C1053 1.415 . S
C1055 H1031 0.951 . S
C1055 C1056 1.366 . S
C1055 C1057 1.388 . S
C1056 C1055 1.366 . S
C1056 C1060 1.385 . S
C1057 H1032 0.951 . S
C1057 C1055 1.388 . S
C1057 C1058 1.366 . S
C1058 C1057 1.366 . S
C1058 C1059 1.414 . S
C1058 C1061 1.499 . S
C1059 H1033 0.950 . S
C1059 C1058 1.414 . S
C1059 C1060 1.374 . S
C1060 H1034 0.950 . S
C1060 C1056 1.385 . S
C1060 C1059 1.374 . S
C1061 C1058 1.499 . S
C1061 C1062 1.373 . S
C1061 C1063 1.389 . S
C1062 H1035 0.950 . S
C1062 C1048 1.377 . S
C1062 C1061 1.373 . S
C1063 C1047 1.377 . S
C1063 C1061 1.389 . S
C1063 C1064 1.524 . S
C1064 C1063 1.524 . S
C1064 C1065 1.397 . S
C1064 C1069 1.363 . S
C1065 H1036 0.950 . S
C1065 C1064 1.397 . S
C1065 C1066 1.334 . S
C1066 H1037 0.950 . S
C1066 C1065 1.334 . S
C1066 C1067 1.287 . S
C1067 C1066 1.287 . S
C1067 C1068 1.524 . S
C1067 H1070 0.999 . S
C1068 H1038 0.950 . S
C1068 C1067 1.524 . S
C1068 C1069 1.415 . S
C1069 H1039 0.950 . S
C1069 C1064 1.363 . S
C1069 C1068 1.415 . S
H1070 C1067 0.999 . S
H1071 C1052 0.913 . S
H1072 C1090 0.951 . S
H1073 C1092 0.951 . S
H1074 C1094 0.951 1_556 S
H1075 C1095 0.950 . S
H1076 C1097 0.950 . S
H1077 C1100 0.950 . S
H1078 C1101 0.950 . S
H1079 C1103 0.950 . S
H1080 C1104 0.950 . S
H1081 C1105 0.951 . S
H1082 C1107 0.951 . S
H1083 C1109 0.950 . S
H1084 C1110 0.950 . S
H1085 C1112 0.950 . S
H1086 C1115 0.950 . S
H1087 C1116 0.950 . S
H1088 C1118 0.950 . S
H1089 C1119 0.950 . S
C1090 H1072 0.951 . S
C1090 C1091 1.366 . S
C1090 C1092 1.388 . S
C1091 C1090 1.366 . S
C1091 C1095 1.385 . S
C1092 H1073 0.951 . S
C1092 C1090 1.388 . S
C1092 C1093 1.366 . S
C1093 C1092 1.366 . S
C1093 C1094 1.414 . S
C1093 C1096 1.499 . S
C1094 H1074 0.951 1_554 S
C1094 C1093 1.414 . S
C1094 C1095 1.374 . S
C1095 H1075 0.950 . S
C1095 C1091 1.385 . S
C1095 C1094 1.374 . S
C1096 C1093 1.499 . S
C1096 C1097 1.373 1_654 S
C1096 C1098 1.389 . S
C1097 H1076 0.950 . S
C1097 C1096 1.373 1_456 S
C1097 C1113 1.377 . S
C1098 C1096 1.389 . S
C1098 C1099 1.524 . S
C1098 C1112 1.377 . S
C1099 C1098 1.524 . S
C1099 C1100 1.397 . S
C1099 C1104 1.363 . S
C1100 H1077 0.950 . S
C1100 C1099 1.397 . S
C1100 C1101 1.334 . S
C1101 H1078 0.950 . S
C1101 C1100 1.334 . S
C1101 C1102 1.287 . S
C1102 C1101 1.287 . S
C1102 C1103 1.524 . S
C1102 H1121 0.913 . S
C1103 H1079 0.950 . S
C1103 C1102 1.524 . S
C1103 C1104 1.415 . S
C1104 H1080 0.950 . S
C1104 C1099 1.363 . S
C1104 C1103 1.415 . S
C1105 H1081 0.951 . S
C1105 C1106 1.366 . S
C1105 C1107 1.388 . S
C1106 C1105 1.366 . S
C1106 C1110 1.385 . S
C1107 H1082 0.951 . S
C1107 C1105 1.388 . S
C1107 C1108 1.366 . S
C1108 C1107 1.366 . S
C1108 C1109 1.414 . S
C1108 C1111 1.499 . S
C1109 H1083 0.950 . S
C1109 C1108 1.414 . S
C1109 C1110 1.374 . S
C1110 H1084 0.950 . S
C1110 C1106 1.385 . S
C1110 C1109 1.374 . S
C1111 C1108 1.499 . S
C1111 C1112 1.373 1_456 S
C1111 C1113 1.389 . S
C1112 H1085 0.950 . S
C1112 C1098 1.377 . S
C1112 C1111 1.373 1_654 S
C1113 C1097 1.377 . S
C1113 C1111 1.389 . S
C1113 C1114 1.524 . S
C1114 C1113 1.524 . S
C1114 C1115 1.397 . S
C1114 C1119 1.363 . S
C1115 H1086 0.950 . S
C1115 C1114 1.397 . S
C1115 C1116 1.334 . S
C1116 H1087 0.950 . S
C1116 C1115 1.334 . S
C1116 C1117 1.287 . S
C1117 C1116 1.287 . S
C1117 C1118 1.524 . S
C1117 H1120 0.999 . S
C1118 H1088 0.950 . S
C1118 C1117 1.524 . S
C1118 C1119 1.415 . S
C1119 H1089 0.950 . S
C1119 C1114 1.363 . S
C1119 C1118 1.415 . S
H1120 C1117 0.999 . S
H1121 C1102 0.913 . S
H1122 C1140 0.951 . S
H1123 C1142 0.951 . S
H1124 C1144 0.950 1_565 S
H1125 C1145 0.950 . S
H1126 C1147 0.950 . S
H1127 C1150 0.950 1_556 S
H1128 C1151 0.950 . S
H1129 C1153 0.950 . S
H1130 C1154 0.950 . S
H1131 C1155 0.951 . S
H1132 C1157 0.951 . S
H1133 C1159 0.950 . S
H1134 C1160 0.950 . S
H1135 C1162 0.952 1_565 S
H1136 C1165 0.950 . S
H1137 C1166 0.950 . S
H1138 C1168 0.950 . S
H1139 C1169 0.950 . S
C1140 H1122 0.951 . S
C1140 C1141 1.363 1_545 S
C1140 C1142 1.388 . S
C1141 C1140 1.363 1_565 S
C1141 C1145 1.387 1_554 S
C1142 H1123 0.951 . S
C1142 C1140 1.388 . S
C1142 C1143 1.360 1_554 S
C1143 C1142 1.360 1_556 S
C1143 C1144 1.418 . S
C1143 C1146 1.502 . S
C1144 H1124 0.950 1_545 S
C1144 C1143 1.418 . S
C1144 C1145 1.373 1_545 S
C1145 H1125 0.950 . S
C1145 C1141 1.387 1_556 S
C1145 C1144 1.373 1_565 S
C1146 C1143 1.502 . S
C1146 C1147 1.373 . S
C1146 C1148 1.389 1_545 S
C1147 H1126 0.950 . S
C1147 C1146 1.373 . S
C1147 C1163 1.377 . S
C1148 C1146 1.389 1_565 S
C1148 C1149 1.524 1_556 S
C1148 C1162 1.377 1_565 S
C1149 C1148 1.524 1_554 S
C1149 C1150 1.397 . S
C1149 C1154 1.363 . S
C1150 H1127 0.950 1_554 S
C1150 C1149 1.397 . S
C1150 C1151 1.334 . S
C1151 H1128 0.950 . S
C1151 C1150 1.334 . S
C1151 C1152 1.287 . S
C1152 C1151 1.287 . S
C1152 C1153 1.524 . S
C1152 H1171 0.913 . S
C1153 H1129 0.950 . S
C1153 C1152 1.524 . S
C1153 C1154 1.415 . S
C1154 H1130 0.950 . S
C1154 C1149 1.363 . S
C1154 C1153 1.415 . S
C1155 H1131 0.951 . S
C1155 C1156 1.366 . S
C1155 C1157 1.388 . S
C1156 C1155 1.366 . S
C1156 C1160 1.385 . S
C1157 H1132 0.951 . S
C1157 C1155 1.388 . S
C1157 C1158 1.366 . S
C1158 C1157 1.366 . S
C1158 C1159 1.414 . S
C1158 C1161 1.499 . S
C1159 H1133 0.950 . S
C1159 C1158 1.414 . S
C1159 C1160 1.374 . S
C1160 H1134 0.950 . S
C1160 C1156 1.385 . S
C1160 C1159 1.374 . S
C1161 C1158 1.499 . S
C1161 C1162 1.371 . S
C1161 C1163 1.389 . S
C1162 H1135 0.952 1_545 S
C1162 C1148 1.377 1_545 S
C1162 C1161 1.371 . S
C1163 C1147 1.377 . S
C1163 C1161 1.389 . S
C1163 C1164 1.524 . S
C1164 C1163 1.524 . S
C1164 C1165 1.397 . S
C1164 C1169 1.363 . S
C1165 H1136 0.950 . S
C1165 C1164 1.397 . S
C1165 C1166 1.334 . S
C1166 H1137 0.950 . S
C1166 C1165 1.334 . S
C1166 C1167 1.287 . S
C1167 C1166 1.287 . S
C1167 C1168 1.524 . S
C1167 H1170 0.999 . S
C1168 H1138 0.950 . S
C1168 C1167 1.524 . S
C1168 C1169 1.415 . S
C1169 H1139 0.950 . S
C1169 C1164 1.363 . S
C1169 C1168 1.415 . S
H1170 C1167 0.999 . S
H1171 C1152 0.913 . S
H1172 C1190 0.951 . S
H1173 C1192 0.951 . S
H1174 C1194 0.950 . S
H1175 C1195 0.950 . S
H1176 C1197 0.950 . S
H1177 C1200 0.950 . S
H1178 C1201 0.950 . S
H1179 C1203 0.950 . S
H1180 C1204 0.950 . S
H1181 C1205 0.951 . S
H1182 C1207 0.951 . S
H1183 C1209 0.950 . S
H1184 C1210 0.950 . S
H1185 C1212 0.950 . S
H1186 C1215 0.950 . S
H1187 C1216 0.950 . S
H1188 C1218 0.950 . S
H1189 C1219 0.950 . S
C1190 H1172 0.951 . S
C1190 C1191 1.366 . S
C1190 C1192 1.388 . S
C1191 C1190 1.366 . S
C1191 C1195 1.385 . S
C1192 H1173 0.951 . S
C1192 C1190 1.388 . S
C1192 C1193 1.366 . S
C1193 C1192 1.366 . S
C1193 C1194 1.414 . S
C1193 C1196 1.499 . S
C1194 H1174 0.950 . S
C1194 C1193 1.414 . S
C1194 C1195 1.374 . S
C1195 H1175 0.950 . S
C1195 C1191 1.385 . S
C1195 C1194 1.374 . S
C1196 C1193 1.499 . S
C1196 C1197 1.373 . S
C1196 C1198 1.389 . S
C1197 H1176 0.950 . S
C1197 C1196 1.373 . S
C1197 C1213 1.377 . S
C1198 C1196 1.389 . S
C1198 C1199 1.524 . S
C1198 C1212 1.377 . S
C1199 C1198 1.524 . S
C1199 C1200 1.397 . S
C1199 C1204 1.363 . S
C1200 H1177 0.950 . S
C1200 C1199 1.397 . S
C1200 C1201 1.334 . S
C1201 H1178 0.950 . S
C1201 C1200 1.334 . S
C1201 C1202 1.287 . S
C1202 C1201 1.287 . S
C1202 C1203 1.524 . S
C1202 H1221 0.913 . S
C1203 H1179 0.950 . S
C1203 C1202 1.524 . S
C1203 C1204 1.415 . S
C1204 H1180 0.950 . S
C1204 C1199 1.363 . S
C1204 C1203 1.415 . S
C1205 H1181 0.951 . S
C1205 C1206 1.366 . S
C1205 C1207 1.388 . S
C1206 C1205 1.366 . S
C1206 C1210 1.385 . S
C1207 H1182 0.951 . S
C1207 C1205 1.388 . S
C1207 C1208 1.366 . S
C1208 C1207 1.366 . S
C1208 C1209 1.414 . S
C1208 C1211 1.499 . S
C1209 H1183 0.950 . S
C1209 C1208 1.414 . S
C1209 C1210 1.374 . S
C1210 H1184 0.950 . S
C1210 C1206 1.385 . S
C1210 C1209 1.374 . S
C1211 C1208 1.499 . S
C1211 C1212 1.373 . S
C1211 C1213 1.389 . S
C1212 H1185 0.950 . S
C1212 C1198 1.377 . S
C1212 C1211 1.373 . S
C1213 C1197 1.377 . S
C1213 C1211 1.389 . S
C1213 C1214 1.524 . S
C1214 C1213 1.524 . S
C1214 C1215 1.397 . S
C1214 C1219 1.363 . S
C1215 H1186 0.950 . S
C1215 C1214 1.397 . S
C1215 C1216 1.334 . S
C1216 H1187 0.950 . S
C1216 C1215 1.334 . S
C1216 C1217 1.287 . S
C1217 C1216 1.287 . S
C1217 C1218 1.524 . S
C1217 H1220 0.999 . S
C1218 H1188 0.950 . S
C1218 C1217 1.524 . S
C1218 C1219 1.415 . S
C1219 H1189 0.950 . S
C1219 C1214 1.363 . S
C1219 C1218 1.415 . S
H1220 C1217 0.999 . S
H1221 C1202 0.913 . S
H1222 C1240 0.951 . S
H1223 C1242 0.951 . S
H1224 C1244 0.950 . S
H1225 C1245 0.950 . S
H1226 C1247 0.950 . S
H1227 C1250 0.950 . S
H1228 C1251 0.950 . S
H1229 C1253 0.950 . S
H1230 C1254 0.950 . S
H1231 C1255 0.951 . S
H1232 C1257 0.951 1_554 S
H1233 C1259 0.950 . S
H1234 C1260 0.950 . S
H1235 C1262 0.950 . S
H1236 C1265 0.950 . S
H1237 C1266 0.950 . S
H1238 C1268 0.950 . S
H1239 C1269 0.950 . S
C1240 H1222 0.951 . S
C1240 C1241 1.366 . S
C1240 C1242 1.388 . S
C1241 C1240 1.366 . S
C1241 C1245 1.385 . S
C1242 H1223 0.951 . S
C1242 C1240 1.388 . S
C1242 C1243 1.366 . S
C1243 C1242 1.366 . S
C1243 C1244 1.414 . S
C1243 C1246 1.499 . S
C1244 H1224 0.950 . S
C1244 C1243 1.414 . S
C1244 C1245 1.374 . S
C1245 H1225 0.950 . S
C1245 C1241 1.385 . S
C1245 C1244 1.374 . S
C1246 C1243 1.499 . S
C1246 C1247 1.373 . S
C1246 C1248 1.389 . S
C1247 H1226 0.950 . S
C1247 C1246 1.373 . S
C1247 C1263 1.377 . S
C1248 C1246 1.389 . S
C1248 C1249 1.524 . S
C1248 C1262 1.377 . S
C1249 C1248 1.524 . S
C1249 C1250 1.397 . S
C1249 C1254 1.363 . S
C1250 H1227 0.950 . S
C1250 C1249 1.397 . S
C1250 C1251 1.334 . S
C1251 H1228 0.950 . S
C1251 C1250 1.334 . S
C1251 C1252 1.287 . S
C1252 C1251 1.287 . S
C1252 C1253 1.524 . S
C1252 H1271 0.913 . S
C1253 H1229 0.950 . S
C1253 C1252 1.524 . S
C1253 C1254 1.415 . S
C1254 H1230 0.950 . S
C1254 C1249 1.363 . S
C1254 C1253 1.415 . S
C1255 H1231 0.951 . S
C1255 C1256 1.366 . S
C1255 C1257 1.388 . S
C1256 C1255 1.366 . S
C1256 C1260 1.385 . S
C1257 H1232 0.951 1_556 S
C1257 C1255 1.388 . S
C1257 C1258 1.366 . S
C1258 C1257 1.366 . S
C1258 C1259 1.414 . S
C1258 C1261 1.499 1_556 S
C1259 H1233 0.950 . S
C1259 C1258 1.414 . S
C1259 C1260 1.374 . S
C1260 H1234 0.950 . S
C1260 C1256 1.385 . S
C1260 C1259 1.374 . S
C1261 C1258 1.499 1_554 S
C1261 C1262 1.373 . S
C1261 C1263 1.389 . S
C1262 H1235 0.950 . S
C1262 C1248 1.377 . S
C1262 C1261 1.373 . S
C1263 C1247 1.377 . S
C1263 C1261 1.389 . S
C1263 C1264 1.524 . S
C1264 C1263 1.524 . S
C1264 C1265 1.397 1_554 S
C1264 C1269 1.363 . S
C1265 H1236 0.950 . S
C1265 C1264 1.397 1_556 S
C1265 C1266 1.334 . S
C1266 H1237 0.950 . S
C1266 C1265 1.334 . S
C1266 C1267 1.287 . S
C1267 C1266 1.287 . S
C1267 C1268 1.524 1_556 S
C1267 H1270 0.999 . S
C1268 H1238 0.950 . S
C1268 C1267 1.524 1_554 S
C1268 C1269 1.415 . S
C1269 H1239 0.950 . S
C1269 C1264 1.363 . S
C1269 C1268 1.415 . S
H1270 C1267 0.999 . S
H1271 C1252 0.913 . S
H1272 C1290 0.951 . S
H1273 C1292 0.951 . S
H1274 C1294 0.950 . S
H1275 C1295 0.950 . S
H1276 C1297 0.950 . S
H1277 C1300 0.950 . S
H1278 C1301 0.950 . S
H1279 C1303 0.950 . S
H1280 C1304 0.950 . S
H1281 C1305 0.951 . S
H1282 C1307 0.951 . S
H1283 C1309 0.950 . S
H1284 C1310 0.950 . S
H1285 C1312 0.950 . S
H1286 C1315 0.950 . S
H1287 C1316 0.950 . S
H1288 C1318 0.950 . S
H1289 C1319 0.950 . S
C1290 H1272 0.951 . S
C1290 C1291 1.366 . S
C1290 C1292 1.388 . S
C1291 C1290 1.366 . S
C1291 C1295 1.385 . S
C1292 H1273 0.951 . S
C1292 C1290 1.388 . S
C1292 C1293 1.366 . S
C1293 C1292 1.366 . S
C1293 C1294 1.414 . S
C1293 C1296 1.499 . S
C1294 H1274 0.950 . S
C1294 C1293 1.414 . S
C1294 C1295 1.374 . S
C1295 H1275 0.950 . S
C1295 C1291 1.385 . S
C1295 C1294 1.374 . S
C1296 C1293 1.499 . S
C1296 C1297 1.373 . S
C1296 C1298 1.389 . S
C1297 H1276 0.950 . S
C1297 C1296 1.373 . S
C1297 C1313 1.377 . S
C1298 C1296 1.389 . S
C1298 C1299 1.524 . S
C1298 C1312 1.377 . S
C1299 C1298 1.524 . S
C1299 C1300 1.397 1_455 S
C1299 C1304 1.363 . S
C1300 H1277 0.950 . S
C1300 C1299 1.397 1_655 S
C1300 C1301 1.334 . S
C1301 H1278 0.950 . S
C1301 C1300 1.334 . S
C1301 C1302 1.287 . S
C1302 C1301 1.287 . S
C1302 C1303 1.524 . S
C1302 H1321 0.913 . S
C1303 H1279 0.950 . S
C1303 C1302 1.524 . S
C1303 C1304 1.415 1_655 S
C1304 H1280 0.950 . S
C1304 C1299 1.363 . S
C1304 C1303 1.415 1_455 S
C1305 H1281 0.951 . S
C1305 C1306 1.366 . S
C1305 C1307 1.388 . S
C1306 C1305 1.366 . S
C1306 C1310 1.385 . S
C1307 H1282 0.951 . S
C1307 C1305 1.388 . S
C1307 C1308 1.366 . S
C1308 C1307 1.366 . S
C1308 C1309 1.414 . S
C1308 C1311 1.499 . S
C1309 H1283 0.950 . S
C1309 C1308 1.414 . S
C1309 C1310 1.374 . S
C1310 H1284 0.950 . S
C1310 C1306 1.385 . S
C1310 C1309 1.374 . S
C1311 C1308 1.499 . S
C1311 C1312 1.373 . S
C1311 C1313 1.389 . S
C1312 H1285 0.950 . S
C1312 C1298 1.377 . S
C1312 C1311 1.373 . S
C1313 C1297 1.377 . S
C1313 C1311 1.389 . S
C1313 C1314 1.524 . S
C1314 C1313 1.524 . S
C1314 C1315 1.397 . S
C1314 C1319 1.363 . S
C1315 H1286 0.950 . S
C1315 C1314 1.397 . S
C1315 C1316 1.334 . S
C1316 H1287 0.950 . S
C1316 C1315 1.334 . S
C1316 C1317 1.287 . S
C1317 C1316 1.287 . S
C1317 C1318 1.524 . S
C1317 H1320 0.999 . S
C1318 H1288 0.950 . S
C1318 C1317 1.524 . S
C1318 C1319 1.415 . S
C1319 H1289 0.950 . S
C1319 C1314 1.363 . S
C1319 C1318 1.415 . S
H1320 C1317 0.999 . S
H1321 C1302 0.913 . S
H1322 C1340 0.951 . S
H1323 C1342 0.951 . S
H1324 C1344 0.950 . S
H1325 C1345 0.950 . S
H1326 C1347 0.950 . S
H1327 C1350 0.950 . S
H1328 C1351 0.950 . S
H1329 C1353 0.950 . S
H1330 C1354 0.950 . S
H1331 C1355 0.951 . S
H1332 C1357 0.951 . S
H1333 C1359 0.950 . S
H1334 C1360 0.950 . S
H1335 C1362 0.950 . S
H1336 C1365 0.890 1_545 S
H1337 C1366 0.950 . S
H1338 C1368 0.950 . S
H1339 C1369 0.950 . S
C1340 H1322 0.951 . S
C1340 C1341 1.414 . S
C1340 C1342 1.388 . S
C1341 C1340 1.414 . S
C1341 C1345 1.343 1_545 S
C1342 H1323 0.951 . S
C1342 C1340 1.388 . S
C1342 C1343 1.366 . S
C1343 C1342 1.366 . S
C1343 C1344 1.414 1_545 S
C1343 C1346 1.499 . S
C1344 H1324 0.950 . S
C1344 C1343 1.414 1_565 S
C1344 C1345 1.374 . S
C1345 H1325 0.950 . S
C1345 C1341 1.343 1_565 S
C1345 C1344 1.374 . S
C1346 C1343 1.499 . S
C1346 C1347 1.373 1_545 S
C1346 C1348 1.389 . S
C1347 H1326 0.950 . S
C1347 C1346 1.373 1_565 S
C1347 C1363 1.377 . S
C1348 C1346 1.389 . S
C1348 C1349 1.524 . S
C1348 C1362 1.377 . S
C1349 C1348 1.524 . S
C1349 C1350 1.397 . S
C1349 C1354 1.363 . S
C1350 H1327 0.950 . S
C1350 C1349 1.397 . S
C1350 C1351 1.334 . S
C1351 H1328 0.950 . S
C1351 C1350 1.334 . S
C1351 C1352 1.287 . S
C1352 C1351 1.287 . S
C1352 C1353 1.524 . S
C1352 H1371 0.913 . S
C1353 H1329 0.950 . S
C1353 C1352 1.524 . S
C1353 C1354 1.415 . S
C1354 H1330 0.950 . S
C1354 C1349 1.363 . S
C1354 C1353 1.415 . S
C1355 H1331 0.951 . S
C1355 C1356 1.366 1_565 S
C1355 C1357 1.388 . S
C1356 C1355 1.366 1_545 S
C1356 C1360 1.385 . S
C1357 H1332 0.951 . S
C1357 C1355 1.388 . S
C1357 C1358 1.366 1_565 S
C1358 C1357 1.366 1_545 S
C1358 C1359 1.414 . S
C1358 C1361 1.499 . S
C1359 H1333 0.950 . S
C1359 C1358 1.414 . S
C1359 C1360 1.374 . S
C1360 H1334 0.950 . S
C1360 C1356 1.385 . S
C1360 C1359 1.374 . S
C1361 C1358 1.499 . S
C1361 C1362 1.373 . S
C1361 C1363 1.389 1_545 S
C1362 H1335 0.950 . S
C1362 C1348 1.377 . S
C1362 C1361 1.373 . S
C1363 C1347 1.377 . S
C1363 C1361 1.389 1_565 S
C1363 C1364 1.524 . S
C1364 C1363 1.524 . S
C1364 C1365 1.397 . S
C1364 C1369 1.363 . S
C1365 H1336 0.890 1_565 S
C1365 C1364 1.397 . S
C1365 C1366 1.334 . S
C1366 H1337 0.950 . S
C1366 C1365 1.334 . S
C1366 C1367 1.287 . S
C1367 C1366 1.287 . S
C1367 C1368 1.524 . S
C1367 H1370 0.999 . S
C1368 H1338 0.950 . S
C1368 C1367 1.524 . S
C1368 C1369 1.415 . S
C1369 H1339 0.950 . S
C1369 C1364 1.363 . S
C1369 C1368 1.415 . S
H1370 C1367 0.999 . S
H1371 C1352 0.913 . S
H1372 C1390 0.951 . S
H1373 C1392 0.951 . S
H1374 C1394 0.950 . S
H1375 C1395 0.950 1_556 S
H1376 C1397 0.950 . S
H1377 C1400 0.950 . S
H1378 C1401 0.950 . S
H1379 C1403 0.950 . S
H1380 C1404 0.950 . S
H1381 C1405 0.951 . S
H1382 C1407 0.951 . S
H1383 C1409 0.950 . S
H1384 C1410 0.950 . S
H1385 C1412 0.950 . S
H1386 C1415 0.950 . S
H1387 C1416 0.950 . S
H1388 C1418 0.950 . S
H1389 C1419 0.950 . S
C1390 H1372 0.951 . S
C1390 C1391 1.366 . S
C1390 C1392 1.388 . S
C1391 C1390 1.366 . S
C1391 C1395 1.385 . S
C1392 H1373 0.951 . S
C1392 C1390 1.388 . S
C1392 C1393 1.366 1_554 S
C1393 C1392 1.366 1_556 S
C1393 C1394 1.414 . S
C1393 C1396 1.499 . S
C1394 H1374 0.950 . S
C1394 C1393 1.414 . S
C1394 C1395 1.374 1_556 S
C1395 H1375 0.950 1_554 S
C1395 C1391 1.385 . S
C1395 C1394 1.374 1_554 S
C1396 C1393 1.499 . S
C1396 C1397 1.373 . S
C1396 C1398 1.389 . S
C1397 H1376 0.950 . S
C1397 C1396 1.373 . S
C1397 C1413 1.377 . S
C1398 C1396 1.389 . S
C1398 C1399 1.524 1_556 S
C1398 C1412 1.377 . S
C1399 C1398 1.524 1_554 S
C1399 C1400 1.397 . S
C1399 C1404 1.363 . S
C1400 H1377 0.950 . S
C1400 C1399 1.397 . S
C1400 C1401 1.334 . S
C1401 H1378 0.950 . S
C1401 C1400 1.334 . S
C1401 C1402 1.287 . S
C1402 C1401 1.287 . S
C1402 C1403 1.524 . S
C1402 H1421 0.913 . S
C1403 H1379 0.950 . S
C1403 C1402 1.524 . S
C1403 C1404 1.415 . S
C1404 H1380 0.950 . S
C1404 C1399 1.363 . S
C1404 C1403 1.415 . S
C1405 H1381 0.951 . S
C1405 C1406 1.366 . S
C1405 C1407 1.388 . S
C1406 C1405 1.366 . S
C1406 C1410 1.385 . S
C1407 H1382 0.951 . S
C1407 C1405 1.388 . S
C1407 C1408 1.366 . S
C1408 C1407 1.366 . S
C1408 C1409 1.414 . S
C1408 C1411 1.499 . S
C1409 H1383 0.950 . S
C1409 C1408 1.414 . S
C1409 C1410 1.374 . S
C1410 H1384 0.950 . S
C1410 C1406 1.385 . S
C1410 C1409 1.374 . S
C1411 C1408 1.499 . S
C1411 C1412 1.373 . S
C1411 C1413 1.389 . S
C1412 H1385 0.950 . S
C1412 C1398 1.377 . S
C1412 C1411 1.373 . S
C1413 C1397 1.377 . S
C1413 C1411 1.389 . S
C1413 C1414 1.524 . S
C1414 C1413 1.524 . S
C1414 C1415 1.397 . S
C1414 C1419 1.363 . S
C1415 H1386 0.950 . S
C1415 C1414 1.397 . S
C1415 C1416 1.334 . S
C1416 H1387 0.950 . S
C1416 C1415 1.334 . S
C1416 C1417 1.287 . S
C1417 C1416 1.287 . S
C1417 C1418 1.524 . S
C1417 H1420 0.999 . S
C1418 H1388 0.950 . S
C1418 C1417 1.524 . S
C1418 C1419 1.415 . S
C1419 H1389 0.950 . S
C1419 C1414 1.363 . S
C1419 C1418 1.415 . S
H1420 C1417 0.999 . S
H1421 C1402 0.913 . S
H1422 C1440 0.951 . S
H1423 C1442 0.951 . S
H1424 C1444 0.950 . S
H1425 C1445 0.950 . S
H1426 C1447 0.950 . S
H1427 C1450 0.950 . S
H1428 C1451 0.950 . S
H1429 C1453 0.950 . S
H1430 C1454 0.950 . S
H1431 C1455 0.951 . S
H1432 C1457 0.951 . S
H1433 C1459 0.950 . S
H1434 C1460 0.950 . S
H1435 C1462 0.950 . S
H1436 C1465 0.950 . S
H1437 C1466 0.950 . S
H1438 C1468 0.950 . S
H1439 C1469 0.950 . S
C1440 H1422 0.951 . S
C1440 C1441 1.366 . S
C1440 C1442 1.388 . S
C1441 C1440 1.366 . S
C1441 C1445 1.385 . S
C1442 H1423 0.951 . S
C1442 C1440 1.388 . S
C1442 C1443 1.366 . S
C1443 C1442 1.366 . S
C1443 C1444 1.414 . S
C1443 C1446 1.499 . S
C1444 H1424 0.950 . S
C1444 C1443 1.414 . S
C1444 C1445 1.374 . S
C1445 H1425 0.950 . S
C1445 C1441 1.385 . S
C1445 C1444 1.374 . S
C1446 C1443 1.499 . S
C1446 C1447 1.373 . S
C1446 C1448 1.389 . S
C1447 H1426 0.950 . S
C1447 C1446 1.373 . S
C1447 C1463 1.377 . S
C1448 C1446 1.389 . S
C1448 C1449 1.524 . S
C1448 C1462 1.377 . S
C1449 C1448 1.524 . S
C1449 C1450 1.397 . S
C1449 C1454 1.363 . S
C1450 H1427 0.950 . S
C1450 C1449 1.397 . S
C1450 C1451 1.334 . S
C1451 H1428 0.950 . S
C1451 C1450 1.334 . S
C1451 C1452 1.287 . S
C1452 C1451 1.287 . S
C1452 C1453 1.524 . S
C1452 H1471 0.913 . S
C1453 H1429 0.950 . S
C1453 C1452 1.524 . S
C1453 C1454 1.415 . S
C1454 H1430 0.950 . S
C1454 C1449 1.363 . S
C1454 C1453 1.415 . S
C1455 H1431 0.951 . S
C1455 C1456 1.366 . S
C1455 C1457 1.388 . S
C1456 C1455 1.366 . S
C1456 C1460 1.385 . S
C1457 H1432 0.951 . S
C1457 C1455 1.388 . S
C1457 C1458 1.366 . S
C1458 C1457 1.366 . S
C1458 C1459 1.414 . S
C1458 C1461 1.499 . S
C1459 H1433 0.950 . S
C1459 C1458 1.414 . S
C1459 C1460 1.374 . S
C1460 H1434 0.950 . S
C1460 C1456 1.385 . S
C1460 C1459 1.374 . S
C1461 C1458 1.499 . S
C1461 C1462 1.373 . S
C1461 C1463 1.389 . S
C1462 H1435 0.950 . S
C1462 C1448 1.377 . S
C1462 C1461 1.373 . S
C1463 C1447 1.377 . S
C1463 C1461 1.389 . S
C1463 C1464 1.524 . S
C1464 C1463 1.524 . S
C1464 C1465 1.397 . S
C1464 C1469 1.363 . S
C1465 H1436 0.950 . S
C1465 C1464 1.397 . S
C1465 C1466 1.334 . S
C1466 H1437 0.950 . S
C1466 C1465 1.334 . S
C1466 C1467 1.287 . S
C1467 C1466 1.287 . S
C1467 C1468 1.524 . S
C1467 H1470 0.999 . S
C1468 H1438 0.950 . S
C1468 C1467 1.524 . S
C1468 C1469 1.415 . S
C1469 H1439 0.950 . S
C1469 C1464 1.363 . S
C1469 C1468 1.415 . S
H1470 C1467 0.999 . S
H1471 C1452 0.913 . S
H1472 C1490 0.951 . S
H1473 C1492 0.953 . S
H1474 C1494 0.950 . S
H1475 C1495 0.950 . S
H1476 C1497 0.950 . S
H1477 C1500 0.950 . S
H1478 C1501 0.950 . S
H1479 C1503 0.950 . S
H1480 C1504 0.950 . S
H1481 C1505 0.951 . S
H1482 C1507 0.951 . S
H1483 C1509 0.940 1_455 S
H1484 C1510 0.963 . S
H1485 C1512 0.950 . S
H1486 C1515 0.950 . S
H1487 C1516 0.950 . S
H1488 C1518 0.950 . S
H1489 C1519 0.950 . S
C1490 H1472 0.951 . S
C1490 C1491 1.366 . S
C1490 C1492 1.388 . S
C1491 C1490 1.366 . S
C1491 C1495 1.385 . S
C1492 H1473 0.953 . S
C1492 C1490 1.388 . S
C1492 C1493 1.366 . S
C1493 C1492 1.366 . S
C1493 C1494 1.414 . S
C1493 C1496 1.499 . S
C1494 H1474 0.950 . S
C1494 C1493 1.414 . S
C1494 C1495 1.374 . S
C1495 H1475 0.950 . S
C1495 C1491 1.385 . S
C1495 C1494 1.374 . S
C1496 C1493 1.499 . S
C1496 C1497 1.373 . S
C1496 C1498 1.389 1_655 S
C1497 H1476 0.950 . S
C1497 C1496 1.373 . S
C1497 C1513 1.377 . S
C1498 C1496 1.389 1_455 S
C1498 C1499 1.524 . S
C1498 C1512 1.377 . S
C1499 C1498 1.524 . S
C1499 C1500 1.397 . S
C1499 C1504 1.363 . S
C1500 H1477 0.950 . S
C1500 C1499 1.397 . S
C1500 C1501 1.334 . S
C1501 H1478 0.950 . S
C1501 C1500 1.334 . S
C1501 C1502 1.287 . S
C1502 C1501 1.287 . S
C1502 C1503 1.524 . S
C1502 H1521 0.913 . S
C1503 H1479 0.950 . S
C1503 C1502 1.524 . S
C1503 C1504 1.415 . S
C1504 H1480 0.950 . S
C1504 C1499 1.363 . S
C1504 C1503 1.415 . S
C1505 H1481 0.951 . S
C1505 C1506 1.366 . S
C1505 C1507 1.388 . S
C1506 C1505 1.366 . S
C1506 C1510 1.378 1_655 S
C1507 H1482 0.951 . S
C1507 C1505 1.388 . S
C1507 C1508 1.366 . S
C1508 C1507 1.366 . S
C1508 C1509 1.434 . S
C1508 C1511 1.499 . S
C1509 H1483 0.940 1_655 S
C1509 C1508 1.434 . S
C1509 C1510 1.362 1_655 S
C1510 H1484 0.963 . S
C1510 C1506 1.378 1_455 S
C1510 C1509 1.362 1_455 S
C1511 C1508 1.499 . S
C1511 C1512 1.373 1_655 S
C1511 C1513 1.389 . S
C1512 H1485 0.950 . S
C1512 C1498 1.377 . S
C1512 C1511 1.373 1_455 S
C1513 C1497 1.377 . S
C1513 C1511 1.389 . S
C1513 C1514 1.524 . S
C1514 C1513 1.524 . S
C1514 C1515 1.397 . S
C1514 C1519 1.363 . S
C1515 H1486 0.950 . S
C1515 C1514 1.397 . S
C1515 C1516 1.334 . S
C1516 H1487 0.950 . S
C1516 C1515 1.334 . S
C1516 C1517 1.287 . S
C1517 C1516 1.287 . S
C1517 C1518 1.524 . S
C1517 H1520 0.999 . S
C1518 H1488 0.950 . S
C1518 C1517 1.524 . S
C1518 C1519 1.415 . S
C1519 H1489 0.950 . S
C1519 C1514 1.363 . S
C1519 C1518 1.415 . S
H1520 C1517 0.999 . S
H1521 C1502 0.913 . S
H1522 C1540 0.951 . S
H1523 C1542 0.951 . S
H1524 C1544 0.950 . S
H1525 C1545 0.950 . S
H1526 C1547 0.950 . S
H1527 C1550 0.950 . S
H1528 C1551 0.950 . S
H1529 C1553 0.950 . S
H1530 C1554 0.950 . S
H1531 C1555 0.951 . S
H1532 C1557 0.951 . S
H1533 C1559 0.950 . S
H1534 C1560 0.950 . S
H1535 C1562 0.950 . S
H1536 C1565 0.950 . S
H1537 C1566 0.950 . S
H1538 C1568 0.950 . S
H1539 C1569 0.950 . S
C1540 H1522 0.951 . S
C1540 C1541 1.399 . S
C1540 C1542 1.388 . S
C1541 C1540 1.399 . S
C1541 C1545 1.357 1_565 S
C1542 H1523 0.951 . S
C1542 C1540 1.388 . S
C1542 C1543 1.366 . S
C1543 C1542 1.366 . S
C1543 C1544 1.414 1_565 S
C1543 C1546 1.499 . S
C1544 H1524 0.950 . S
C1544 C1543 1.414 1_545 S
C1544 C1545 1.374 . S
C1545 H1525 0.950 . S
C1545 C1541 1.357 1_545 S
C1545 C1544 1.374 . S
C1546 C1543 1.499 . S
C1546 C1547 1.373 1_565 S
C1546 C1548 1.389 . S
C1547 H1526 0.950 . S
C1547 C1546 1.373 1_545 S
C1547 C1563 1.377 . S
C1548 C1546 1.389 . S
C1548 C1549 1.524 . S
C1548 C1562 1.377 . S
C1549 C1548 1.524 . S
C1549 C1550 1.397 . S
C1549 C1554 1.363 . S
C1550 H1527 0.950 . S
C1550 C1549 1.397 . S
C1550 C1551 1.334 . S
C1551 H1528 0.950 . S
C1551 C1550 1.334 . S
C1551 C1552 1.287 . S
C1552 C1551 1.287 . S
C1552 C1553 1.524 . S
C1552 H1571 0.913 . S
C1553 H1529 0.950 . S
C1553 C1552 1.524 . S
C1553 C1554 1.415 . S
C1554 H1530 0.950 . S
C1554 C1549 1.363 . S
C1554 C1553 1.415 . S
C1555 H1531 0.951 . S
C1555 C1556 1.366 1_545 S
C1555 C1557 1.388 . S
C1556 C1555 1.366 1_565 S
C1556 C1560 1.385 . S
C1557 H1532 0.951 . S
C1557 C1555 1.388 . S
C1557 C1558 1.366 1_545 S
C1558 C1557 1.366 1_565 S
C1558 C1559 1.414 . S
C1558 C1561 1.499 . S
C1559 H1533 0.950 . S
C1559 C1558 1.414 . S
C1559 C1560 1.374 . S
C1560 H1534 0.950 . S
C1560 C1556 1.385 . S
C1560 C1559 1.374 . S
C1561 C1558 1.499 . S
C1561 C1562 1.373 . S
C1561 C1563 1.389 1_565 S
C1562 H1535 0.950 . S
C1562 C1548 1.377 . S
C1562 C1561 1.373 . S
C1563 C1547 1.377 . S
C1563 C1561 1.389 1_545 S
C1563 C1564 1.524 . S
C1564 C1563 1.524 . S
C1564 C1565 1.397 . S
C1564 C1569 1.363 . S
C1565 H1536 0.950 . S
C1565 C1564 1.397 . S
C1565 C1566 1.334 . S
C1566 H1537 0.950 . S
C1566 C1565 1.334 . S
C1566 C1567 1.287 . S
C1567 C1566 1.287 . S
C1567 C1568 1.524 . S
C1567 H1570 0.999 . S
C1568 H1538 0.950 . S
C1568 C1567 1.524 . S
C1568 C1569 1.415 . S
C1569 H1539 0.950 . S
C1569 C1564 1.363 . S
C1569 C1568 1.415 . S
H1570 C1567 0.999 . S
H1571 C1552 0.913 . S
H1572 C1590 0.951 . S
H1573 C1592 0.951 . S
H1574 C1594 0.950 . S
H1575 C1595 0.950 . S
H1576 C1597 0.950 . S
H1577 C1600 0.950 . S
H1578 C1601 0.950 . S
H1579 C1603 0.950 . S
H1580 C1604 0.950 . S
H1581 C1605 0.951 . S
H1582 C1607 0.951 . S
H1583 C1609 0.950 . S
H1584 C1610 0.950 . S
H1585 C1612 0.950 . S
H1586 C1615 0.950 . S
H1587 C1616 0.950 . S
H1588 C1618 0.950 . S
H1589 C1619 0.950 . S
C1590 H1572 0.951 . S
C1590 C1591 1.366 . S
C1590 C1592 1.388 . S
C1591 C1590 1.366 . S
C1591 C1595 1.385 . S
C1592 H1573 0.951 . S
C1592 C1590 1.388 . S
C1592 C1593 1.366 . S
C1593 C1592 1.366 . S
C1593 C1594 1.414 . S
C1593 C1596 1.499 . S
C1594 H1574 0.950 . S
C1594 C1593 1.414 . S
C1594 C1595 1.374 . S
C1595 H1575 0.950 . S
C1595 C1591 1.385 . S
C1595 C1594 1.374 . S
C1596 C1593 1.499 . S
C1596 C1597 1.373 . S
C1596 C1598 1.389 . S
C1597 H1576 0.950 . S
C1597 C1596 1.373 . S
C1597 C1613 1.377 . S
C1598 C1596 1.389 . S
C1598 C1599 1.524 . S
C1598 C1612 1.377 . S
C1599 C1598 1.524 . S
C1599 C1600 1.397 . S
C1599 C1604 1.363 . S
C1600 H1577 0.950 . S
C1600 C1599 1.397 . S
C1600 C1601 1.334 . S
C1601 H1578 0.950 . S
C1601 C1600 1.334 . S
C1601 C1602 1.287 . S
C1602 C1601 1.287 . S
C1602 C1603 1.524 . S
C1602 H1621 0.913 . S
C1603 H1579 0.950 . S
C1603 C1602 1.524 . S
C1603 C1604 1.415 . S
C1604 H1580 0.950 . S
C1604 C1599 1.363 . S
C1604 C1603 1.415 . S
C1605 H1581 0.951 . S
C1605 C1606 1.366 . S
C1605 C1607 1.388 . S
C1606 C1605 1.366 . S
C1606 C1610 1.385 . S
C1607 H1582 0.951 . S
C1607 C1605 1.388 . S
C1607 C1608 1.366 . S
C1608 C1607 1.366 . S
C1608 C1609 1.414 . S
C1608 C1611 1.499 . S
C1609 H1583 0.950 . S
C1609 C1608 1.414 . S
C1609 C1610 1.374 . S
C1610 H1584 0.950 . S
C1610 C1606 1.385 . S
C1610 C1609 1.374 . S
C1611 C1608 1.499 . S
C1611 C1612 1.373 . S
C1611 C1613 1.389 . S
C1612 H1585 0.950 . S
C1612 C1598 1.377 . S
C1612 C1611 1.373 . S
C1613 C1597 1.377 . S
C1613 C1611 1.389 . S
C1613 C1614 1.524 . S
C1614 C1613 1.524 . S
C1614 C1615 1.397 . S
C1614 C1619 1.363 . S
C1615 H1586 0.950 . S
C1615 C1614 1.397 . S
C1615 C1616 1.334 . S
C1616 H1587 0.950 . S
C1616 C1615 1.334 . S
C1616 C1617 1.287 . S
C1617 C1616 1.287 . S
C1617 C1618 1.524 . S
C1617 H1620 0.999 . S
C1618 H1588 0.950 . S
C1618 C1617 1.524 . S
C1618 C1619 1.415 . S
C1619 H1589 0.950 . S
C1619 C1614 1.363 . S
C1619 C1618 1.415 . S
H1620 C1617 0.999 . S
H1621 C1602 0.913 . S
H1622 C1640 0.951 . S
H1623 C1642 0.951 . S
H1624 C1644 0.950 . S
H1625 C1645 0.950 . S
H1626 C1647 0.950 . S
H1627 C1650 0.950 . S
H1628 C1651 0.950 . S
H1629 C1653 0.950 . S
H1630 C1654 0.950 . S
H1631 C1655 0.951 . S
H1632 C1657 0.951 . S
H1633 C1659 0.950 . S
H1634 C1660 0.950 . S
H1635 C1662 0.950 . S
H1636 C1665 0.950 . S
H1637 C1666 0.950 . S
H1638 C1668 0.950 . S
H1639 C1669 0.950 . S
C1640 H1622 0.951 . S
C1640 C1641 1.366 . S
C1640 C1642 1.388 . S
C1641 C1640 1.366 . S
C1641 C1645 1.385 . S
C1642 H1623 0.951 . S
C1642 C1640 1.388 . S
C1642 C1643 1.366 . S
C1643 C1642 1.366 . S
C1643 C1644 1.414 . S
C1643 C1646 1.499 . S
C1644 H1624 0.950 . S
C1644 C1643 1.414 . S
C1644 C1645 1.374 . S
C1645 H1625 0.950 . S
C1645 C1641 1.385 . S
C1645 C1644 1.374 . S
C1646 C1643 1.499 . S
C1646 C1647 1.373 . S
C1646 C1648 1.389 . S
C1647 H1626 0.950 . S
C1647 C1646 1.373 . S
C1647 C1663 1.377 . S
C1648 C1646 1.389 . S
C1648 C1649 1.524 . S
C1648 C1662 1.377 . S
C1649 C1648 1.524 . S
C1649 C1650 1.397 . S
C1649 C1654 1.363 . S
C1650 H1627 0.950 . S
C1650 C1649 1.397 . S
C1650 C1651 1.334 . S
C1651 H1628 0.950 . S
C1651 C1650 1.334 . S
C1651 C1652 1.287 . S
C1652 C1651 1.287 . S
C1652 C1653 1.524 . S
C1652 H1671 0.913 . S
C1653 H1629 0.950 . S
C1653 C1652 1.524 . S
C1653 C1654 1.415 . S
C1654 H1630 0.950 . S
C1654 C1649 1.363 . S
C1654 C1653 1.415 . S
C1655 H1631 0.951 . S
C1655 C1656 1.366 . S
C1655 C1657 1.388 . S
C1656 C1655 1.366 . S
C1656 C1660 1.385 . S
C1657 H1632 0.951 . S
C1657 C1655 1.388 . S
C1657 C1658 1.366 . S
C1658 C1657 1.366 . S
C1658 C1659 1.414 . S
C1658 C1661 1.499 . S
C1659 H1633 0.950 . S
C1659 C1658 1.414 . S
C1659 C1660 1.374 . S
C1660 H1634 0.950 . S
C1660 C1656 1.385 . S
C1660 C1659 1.374 . S
C1661 C1658 1.499 . S
C1661 C1662 1.373 . S
C1661 C1663 1.389 . S
C1662 H1635 0.950 . S
C1662 C1648 1.377 . S
C1662 C1661 1.373 . S
C1663 C1647 1.377 . S
C1663 C1661 1.389 . S
C1663 C1664 1.524 . S
C1664 C1663 1.524 . S
C1664 C1665 1.397 . S
C1664 C1669 1.363 . S
C1665 H1636 0.950 . S
C1665 C1664 1.397 . S
C1665 C1666 1.334 . S
C1666 H1637 0.950 . S
C1666 C1665 1.334 . S
C1666 C1667 1.287 . S
C1667 C1666 1.287 . S
C1667 C1668 1.524 . S
C1667 H1670 0.999 . S
C1668 H1638 0.950 . S
C1668 C1667 1.524 . S
C1668 C1669 1.415 . S
C1669 H1639 0.950 . S
C1669 C1664 1.363 . S
C1669 C1668 1.415 . S
H1670 C1667 0.999 . S
H1671 C1652 0.913 . S
C491 C255 1.805 1_545 S
C506 C314 1.859 . S
C556 C354 2.114 . S
C541 C294 2.065 . S
C606 C418 2.302 . S
C591 C177 2.231 . S
C656 C434 1.811 . S
C641 C216 1.679 . S
C706 C335 1.861 . S
C691 C99 1.802 1_545 S
C741 C138 2.061 1_556 S
C756 C375 2.120 . S
C791 C21 2.240 . S
C806 C409 2.303 . S
C841 C60 1.683 . S
C856 C455 1.810 . S
C906 C329 0.357 . S
C891 C196 0.265 . S
C956 C369 0.363 . S
C941 C235 0.344 1_545 S
C1006 C405 0.559 . S
C991 C289 0.537 . S
C1041 C157 0.385 . S
C1056 C449 0.477 . S
C1091 C40 0.238 . S
C1106 C338 0.354 . S
C1156 C378 0.361 . S
C1141 C79 0.344 . S
C1206 C416 0.556 . S
C1191 C133 0.520 . S
C1241 C1 0.371 . S
C1256 C458 0.478 . S
C1291 C211 2.452 . S
C1306 C336 2.703 . S
C1341 C250 2.192 . S
C1356 C376 2.412 . S
C1406 C394 1.771 . S
C1391 C274 1.741 . S
C1456 C456 3.042 . S
C1441 C172 2.736 . S
C1491 C55 2.451 . S
C1506 C325 2.715 . S
C1556 C365 2.412 . S
C1541 C94 2.192 1_565 S
C1606 C415 1.771 . S
C1591 C118 1.736 . S
C1641 C16 2.736 . S
C1656 C445 3.043 . S
