# Generated by pormake.
# Topology pth, (4,4)-cn, num edge types: 1
# Building blocks:
#     Node 0, Type 0, BuildingBlock: QUQFOY_clean_sbu_1, # of connection points: 4
#     Node 1, Type 0, BuildingBlock: QUQFOY_clean_sbu_1, # of connection points: 4
#     Node 2, Type 0, BuildingBlock: QUQFOY_clean_sbu_1, # of connection points: 4
#     Node 3, Type 1, BuildingBlock: NAHDIM_clean_linker_0, # of connection points: 4
#     Node 4, Type 1, BuildingBlock: NAHDIM_clean_linker_0, # of connection points: 4
#     Node 5, Type 1, BuildingBlock: NAHDIM_clean_linker_0, # of connection points: 4
#     Edge 6, Type (0, 1), BuildingBlock: MIFKUJ_clean_linker_0, # of connection points: 2
#     Edge 7, Type (0, 1), BuildingBlock: MIFKUJ_clean_linker_0, # of connection points: 2
#     Edge 8, Type (0, 1), BuildingBlock: MIFKUJ_clean_linker_0, # of connection points: 2
#     Edge 9, Type (0, 1), BuildingBlock: MIFKUJ_clean_linker_0, # of connection points: 2
#     Edge 10, Type (0, 1), BuildingBlock: MIFKUJ_clean_linker_0, # of connection points: 2
#     Edge 11, Type (0, 1), BuildingBlock: MIFKUJ_clean_linker_0, # of connection points: 2
#     Edge 12, Type (0, 1), BuildingBlock: MIFKUJ_clean_linker_0, # of connection points: 2
#     Edge 13, Type (0, 1), BuildingBlock: MIFKUJ_clean_linker_0, # of connection points: 2
#     Edge 14, Type (0, 1), BuildingBlock: MIFKUJ_clean_linker_0, # of connection points: 2
#     Edge 15, Type (0, 1), BuildingBlock: MIFKUJ_clean_linker_0, # of connection points: 2
#     Edge 16, Type (0, 1), BuildingBlock: MIFKUJ_clean_linker_0, # of connection points: 2
#     Edge 17, Type (0, 1), BuildingBlock: MIFKUJ_clean_linker_0, # of connection points: 2
# Relax obj value: 0.026
# Max RMSD: 0.120
# Mean RMSD: 0.079
data_MOF--net-pth--node1-QUQFOY_clean_sbu_1--node2-NAHDIM_clean_linker_0--edge1-MIFKUJ_clean_linker_0
_symmetry_space_group_name_H-M    P1
_symmetry_Int_Tables_number       1
_symmetry_cell_setting            triclinic
loop_
_symmetry_equiv_pos_as_xyz
'x, y, z'
_cell_length_a     37.253893
_cell_length_b     40.329696
_cell_length_c     101.01574
_cell_angle_alpha  89.741034
_cell_angle_beta   90.613536
_cell_angle_gamma 120.0489
loop_
_atom_site_label
_atom_site_type_symbol
_atom_site_fract_x
_atom_site_fract_y
_atom_site_fract_z
_atom_type_partial_charge
O0 O 0.02992 0.07027 0.06772 0.0
Cd1 Cd 0.98278 0.03252 0.07972 0.0
Cd2 Cd 0.02874 0.99962 0.08051 0.0
O3 O 0.07408 0.05055 0.07239 0.0
O4 O 0.95613 0.06118 0.08659 0.0
O5 O 0.99083 0.04167 0.09926 0.0
C6 C 0.97109 0.0603 0.09808 0.0
C7 C 0.04021 0.97169 0.09905 0.0
C8 C 0.06584 0.07424 0.06675 0.0
C9 C 0.94686 0.95772 0.06619 0.0
O10 O 0.98243 0.96128 0.06805 0.0
O11 O 0.93843 0.98196 0.07112 0.0
O12 O 0.05651 0.97215 0.0878 0.0
O13 O 0.01896 0.98889 0.09994 0.0
O14 O 0.98918 0.05935 0.41768 0.0
Cd15 Cd 0.03801 0.06632 0.40623 0.0
Cd16 Cd 0.99912 0.98983 0.40839 0.0
O17 O 0.95433 0.99608 0.41802 0.0
O18 O 0.06119 0.1172 0.39741 0.0
O19 O 0.02812 0.06195 0.38662 0.0
C20 C 0.0463 0.0989 0.38644 0.0
C21 C 0.98262 0.94556 0.39135 0.0
C22 C 0.95766 0.02801 0.42114 0.0
C23 C 0.08422 0.03437 0.42065 0.0
O24 O 0.0514 0.00215 0.41915 0.0
O25 O 0.08668 0.06439 0.41562 0.0
O26 O 0.9743 0.93484 0.40352 0.0
O27 O 0.99885 0.98162 0.38877 0.0
O28 O 0.94396 0.98766 0.72992 0.0
Cd29 Cd 0.98071 0.97524 0.74191 0.0
Cd30 Cd 0.0286 0.05114 0.74262 0.0
O31 O 0.97936 0.05029 0.73268 0.0
O32 O 0.94433 0.9217 0.74786 0.0
O33 O 0.97204 0.97117 0.76159 0.0
C34 C 0.94868 0.93472 0.75976 0.0
C35 C 0.05916 0.09218 0.76059 0.0
C36 C 0.94838 0.02057 0.72783 0.0
C37 C 0.06347 0.00653 0.72957 0.0
O38 O 0.06782 0.03926 0.73192 0.0
O39 O 0.03116 0.97641 0.73336 0.0
O40 O 0.06543 0.10471 0.74859 0.0
O41 O 0.03423 0.05604 0.76248 0.0
C42 C 0.98318 0.62583 0.32821 0.0
C43 C 0.00394 0.65801 0.31798 0.0
C44 C 0.99081 0.61993 0.29791 0.0
C45 C 0.02956 0.62255 0.29635 0.0
C46 C 0.0336 0.59597 0.28852 0.0
C47 C 0.99811 0.56595 0.28224 0.0
C48 C 0.95914 0.56362 0.28362 0.0
C49 C 0.95618 0.59109 0.29129 0.0
C50 C 0.07584 0.59999 0.28693 0.0
C51 C 0.92063 0.53195 0.2771 0.0
C52 C 0.99305 0.29547 0.30931 0.0
C53 C 0.98013 0.31904 0.30142 0.0
C54 C 0.00385 0.3863 0.29649 0.0
C55 C 0.96947 0.37985 0.28869 0.0
C56 C 0.9695 0.4099 0.28161 0.0
C57 C 0.00526 0.44685 0.28192 0.0
C58 C 0.03997 0.45333 0.28973 0.0
C59 C 0.03846 0.42306 0.29709 0.0
C60 C 0.93119 0.40206 0.27383 0.0
C61 C 0.07874 0.49218 0.29034 0.0
C62 C 0.03372 0.40169 0.19729 0.0
C63 C 0.99486 0.39416 0.20173 0.0
C64 C 0.99039 0.42266 0.20816 0.0
C65 C 0.02577 0.45915 0.21041 0.0
C66 C 0.0648 0.46708 0.20554 0.0
C67 C 0.06809 0.4383 0.19884 0.0
C68 C 0.94794 0.41358 0.21269 0.0
C69 C 0.10318 0.50563 0.20765 0.0
C70 C 0.06674 0.73321 0.20754 0.0
C71 C 0.06221 0.71537 0.1938 0.0
C72 C 0.02869 0.64656 0.199 0.0
C73 C 0.99083 0.61216 0.19921 0.0
C74 C 0.98733 0.57917 0.2052 0.0
C75 C 0.02279 0.58062 0.211 0.0
C76 C 0.06155 0.61486 0.2104 0.0
C77 C 0.0641 0.6475 0.20449 0.0
C78 C 0.94557 0.54306 0.20565 0.0
C79 C 0.10018 0.61723 0.21631 0.0
C80 C 0.00187 0.53699 0.27427 0.0
C81 C 0.00148 0.50637 0.28094 0.0
C82 C 0.00624 0.4787 0.27414 0.0
C83 C 0.01143 0.48149 0.26024 0.0
C84 C 0.0176 0.45492 0.25311 0.0
C85 C 0.02139 0.45723 0.2394 0.0
C86 C 0.01939 0.48634 0.23228 0.0
C87 C 0.02226 0.48843 0.2183 0.0
C88 C 0.02217 0.51885 0.21161 0.0
C89 C 0.01914 0.54732 0.21851 0.0
C90 C 0.01476 0.54493 0.23243 0.0
C91 C 0.01065 0.5726 0.23963 0.0
C92 C 0.00667 0.57021 0.25333 0.0
C93 C 0.00634 0.53989 0.26036 0.0
C94 C 0.0108 0.51185 0.25332 0.0
C95 C 0.01487 0.51431 0.23933 0.0
C96 C 0.06284 0.34234 0.20565 0.0
C97 C 0.02735 0.33882 0.19686 0.0
O98 O 0.98578 0.6448 0.30562 0.0
O99 O 0.02941 0.67794 0.19361 0.0
O100 O 0.03869 0.37423 0.19132 0.0
O101 O 0.00475 0.35809 0.30365 0.0
H102 H 0.03751 0.66747 0.31769 0.0
H103 H 0.98743 0.60139 0.32546 0.0
H104 H 0.94941 0.61554 0.3287 0.0
H105 H 0.99731 0.63608 0.33817 0.0
H106 H 0.05689 0.64563 0.30101 0.0
H107 H 0.9265 0.58958 0.29244 0.0
H108 H 0.07607 0.57515 0.29161 0.0
H109 H 0.10088 0.62668 0.29153 0.0
H110 H 0.08271 0.5999 0.27627 0.0
H111 H 0.89225 0.53264 0.27988 0.0
H112 H 0.91673 0.50367 0.27989 0.0
H113 H 0.92389 0.53461 0.26618 0.0
H114 H 0.94623 0.30869 0.30163 0.0
H115 H 0.96611 0.27763 0.316 0.0
H116 H 0.01378 0.31438 0.31754 0.0
H117 H 0.01332 0.27116 0.29497 0.0
H118 H 0.94223 0.35164 0.28824 0.0
H119 H 0.06476 0.4278 0.30318 0.0
H120 H 0.93687 0.40131 0.26311 0.0
H121 H 0.92375 0.42518 0.27546 0.0
H122 H 0.9038 0.37421 0.27656 0.0
H123 H 0.10515 0.49093 0.29502 0.0
H124 H 0.07251 0.51188 0.29623 0.0
H125 H 0.08788 0.50447 0.28025 0.0
H126 H 0.99946 0.32898 0.20315 0.0
H127 H 0.968 0.36612 0.20008 0.0
H128 H 0.09782 0.44387 0.19515 0.0
H129 H 0.94626 0.41044 0.22362 0.0
H130 H 0.92294 0.38657 0.20825 0.0
H131 H 0.94218 0.4373 0.21008 0.0
H132 H 0.13174 0.50602 0.20435 0.0
H133 H 0.10673 0.51361 0.21829 0.0
H134 H 0.10003 0.52777 0.20203 0.0
H135 H 0.09148 0.7158 0.19138 0.0
H136 H 0.09223 0.76355 0.20755 0.0
H137 H 0.0743 0.71753 0.2151 0.0
H138 H 0.03748 0.73211 0.21045 0.0
H139 H 0.96371 0.6115 0.19489 0.0
H140 H 0.09384 0.67358 0.20441 0.0
H141 H 0.93653 0.53482 0.21611 0.0
H142 H 0.94748 0.51924 0.20088 0.0
H143 H 0.92098 0.54646 0.20058 0.0
H144 H 0.12863 0.64457 0.21384 0.0
H145 H 0.1037 0.59304 0.21271 0.0
H146 H 0.09736 0.61482 0.22724 0.0
H147 H 0.99759 0.50413 0.2916 0.0
H148 H 0.0194 0.4319 0.25803 0.0
H149 H 0.0259 0.43584 0.23446 0.0
H150 H 0.02513 0.52072 0.20092 0.0
H151 H 0.01035 0.59644 0.23477 0.0
H152 H 0.00368 0.59238 0.25833 0.0
H153 H 0.05426 0.31431 0.21028 0.0
H154 H 0.0695 0.36342 0.21368 0.0
H155 H 0.09143 0.35215 0.19974 0.0
C156 C 0.29504 0.9238 0.62847 0.0
C157 C 0.32467 0.95524 0.63806 0.0
C158 C 0.38587 0.998 0.62475 0.0
C159 C 0.40809 0.03473 0.61936 0.0
C160 C 0.44491 0.04648 0.6124 0.0
C161 C 0.45955 0.02051 0.61066 0.0
C162 C 0.43739 0.9833 0.61613 0.0
C163 C 0.40085 0.97242 0.62317 0.0
C164 C 0.46802 0.08654 0.60683 0.0
C165 C 0.45215 0.95492 0.61438 0.0
C166 C 0.80191 0.156 0.61915 0.0
C167 C 0.76189 0.12015 0.62332 0.0
C168 C 0.69227 0.11157 0.6219 0.0
C169 C 0.67057 0.07199 0.61938 0.0
C170 C 0.63042 0.0542 0.61389 0.0
C171 C 0.61186 0.07654 0.61083 0.0
C172 C 0.6327 0.11594 0.61413 0.0
C173 C 0.67258 0.13285 0.61977 0.0
C174 C 0.60843 0.01187 0.61091 0.0
C175 C 0.61353 0.14047 0.61119 0.0
C176 C 0.68919 0.09767 0.52832 0.0
C177 C 0.66502 0.05833 0.53105 0.0
C178 C 0.62552 0.0433 0.53663 0.0
C179 C 0.60991 0.06807 0.53939 0.0
C180 C 0.63314 0.1072 0.53587 0.0
C181 C 0.67247 0.12143 0.53029 0.0
C182 C 0.60098 0.00123 0.53996 0.0
C183 C 0.61708 0.13424 0.53848 0.0
C184 C 0.28277 0.95412 0.53335 0.0
C185 C 0.31398 0.98786 0.52492 0.0
C186 C 0.38161 0.99228 0.52615 0.0
C187 C 0.39618 0.96665 0.52782 0.0
C188 C 0.43409 0.97791 0.5343 0.0
C189 C 0.45815 0.01596 0.53897 0.0
C190 C 0.44466 0.04263 0.53661 0.0
C191 C 0.40649 0.0305 0.5302 0.0
C192 C 0.44793 0.94896 0.5365 0.0
C193 C 0.47025 0.08377 0.54107 0.0
C194 C 0.49767 0.03214 0.60293 0.0
C195 C 0.53536 0.04682 0.60981 0.0
C196 C 0.57259 0.05967 0.60307 0.0
C197 C 0.57243 0.05777 0.58909 0.0
C198 C 0.6094 0.07079 0.582 0.0
C199 C 0.60903 0.0692 0.56826 0.0
C200 C 0.57171 0.05486 0.56103 0.0
C201 C 0.57115 0.05387 0.54703 0.0
C202 C 0.53371 0.0404 0.54011 0.0
C203 C 0.49645 0.02757 0.54685 0.0
C204 C 0.49624 0.02753 0.56086 0.0
C205 C 0.45919 0.01412 0.56794 0.0
C206 C 0.45948 0.01517 0.58172 0.0
C207 C 0.49685 0.02986 0.58894 0.0
C208 C 0.53442 0.04288 0.58201 0.0
C209 C 0.53409 0.04157 0.56796 0.0
C210 C 0.79726 0.13392 0.53123 0.0
C211 C 0.75623 0.10072 0.52608 0.0
O212 O 0.35019 0.98865 0.63121 0.0
O213 O 0.34366 0.97939 0.52053 0.0
O214 O 0.72868 0.11385 0.52387 0.0
O215 O 0.73231 0.13024 0.62618 0.0
H216 H 0.34378 0.94529 0.64343 0.0
H217 H 0.31265 0.91677 0.62132 0.0
H218 H 0.27604 0.93322 0.62277 0.0
H219 H 0.27404 0.89731 0.63402 0.0
H220 H 0.39637 0.05427 0.62063 0.0
H221 H 0.38413 0.94385 0.62725 0.0
H222 H 0.50087 0.10113 0.61024 0.0
H223 H 0.45405 0.10407 0.6098 0.0
H224 H 0.46795 0.08518 0.59586 0.0
H225 H 0.43081 0.92667 0.6189 0.0
H226 H 0.48336 0.96641 0.61898 0.0
H227 H 0.45508 0.95072 0.60367 0.0
H228 H 0.75184 0.10033 0.61467 0.0
H229 H 0.8262 0.14863 0.61686 0.0
H230 H 0.81357 0.17799 0.62711 0.0
H231 H 0.796 0.16846 0.61013 0.0
H232 H 0.68506 0.05503 0.62154 0.0
H233 H 0.68933 0.16323 0.622 0.0
H234 H 0.57624 0.99775 0.61472 0.0
H235 H 0.62473 0.99769 0.61533 0.0
H236 H 0.60647 0.00751 0.60003 0.0
H237 H 0.63369 0.17063 0.61444 0.0
H238 H 0.58325 0.1285 0.61626 0.0
H239 H 0.60751 0.14017 0.60039 0.0
H240 H 0.74477 0.07842 0.53395 0.0
H241 H 0.67693 0.03935 0.52895 0.0
H242 H 0.69105 0.15158 0.52789 0.0
H243 H 0.59768 0.99772 0.55087 0.0
H244 H 0.616 0.98522 0.5363 0.0
H245 H 0.5693 0.9884 0.53561 0.0
H246 H 0.63808 0.16349 0.53461 0.0
H247 H 0.61353 0.13618 0.5493 0.0
H248 H 0.58598 0.123 0.53383 0.0
H249 H 0.32781 0.01341 0.5315 0.0
H250 H 0.26073 0.96113 0.53818 0.0
H251 H 0.29947 0.94812 0.54133 0.0
H252 H 0.26548 0.92788 0.5272 0.0
H253 H 0.37706 0.9374 0.52441 0.0
H254 H 0.39626 0.05093 0.52832 0.0
H255 H 0.45143 0.94565 0.54728 0.0
H256 H 0.47872 0.95936 0.53193 0.0
H257 H 0.42568 0.92048 0.53225 0.0
H258 H 0.45713 0.10165 0.53752 0.0
H259 H 0.50246 0.0963 0.5374 0.0
H260 H 0.47182 0.08492 0.55205 0.0
H261 H 0.5358 0.04877 0.62053 0.0
H262 H 0.63916 0.08246 0.58699 0.0
H263 H 0.63851 0.07968 0.56339 0.0
H264 H 0.53365 0.04045 0.52937 0.0
H265 H 0.42951 0.00272 0.56292 0.0
H266 H 0.43002 0.00455 0.58662 0.0
H267 H 0.81995 0.12417 0.53314 0.0
H268 H 0.79203 0.14486 0.54066 0.0
H269 H 0.81062 0.15779 0.52395 0.0
C270 C 0.735 0.64993 0.86798 0.0
C271 C 0.70692 0.64981 0.85673 0.0
C272 C 0.63891 0.62644 0.86717 0.0
C273 C 0.61058 0.63714 0.87143 0.0
C274 C 0.57339 0.6107 0.87753 0.0
C275 C 0.56451 0.57259 0.87947 0.0
C276 C 0.59252 0.56124 0.87494 0.0
C277 C 0.62942 0.58822 0.86883 0.0
C278 C 0.54406 0.62368 0.8822 0.0
C279 C 0.58383 0.52074 0.87684 0.0
C280 C 0.29339 0.436 0.83571 0.0
C281 C 0.31008 0.41134 0.84163 0.0
C282 C 0.34403 0.43187 0.86296 0.0
C283 C 0.37522 0.42218 0.86261 0.0
C284 C 0.41119 0.44204 0.87044 0.0
C285 C 0.41622 0.47268 0.87855 0.0
C286 C 0.38462 0.48251 0.87883 0.0
C287 C 0.34842 0.46126 0.87124 0.0
C288 C 0.4438 0.43034 0.87001 0.0
C289 C 0.38919 0.51573 0.88698 0.0
C290 C 0.3462 0.40648 0.96307 0.0
C291 C 0.37262 0.39367 0.9585 0.0
C292 C 0.40964 0.41888 0.95203 0.0
C293 C 0.42008 0.45745 0.95005 0.0
C294 C 0.39402 0.47058 0.95502 0.0
C295 C 0.35766 0.44494 0.96165 0.0
C296 C 0.43743 0.40431 0.94723 0.0
C297 C 0.40432 0.51159 0.95324 0.0
C298 C 0.71953 0.6997 0.95389 0.0
C299 C 0.68994 0.69234 0.96537 0.0
C300 C 0.63482 0.62548 0.96344 0.0
C301 C 0.63154 0.58983 0.96134 0.0
C302 C 0.59649 0.56005 0.95504 0.0
C303 C 0.56387 0.56615 0.95091 0.0
C304 C 0.56602 0.60147 0.95366 0.0
C305 C 0.60133 0.63067 0.96 0.0
C306 C 0.59485 0.52255 0.95238 0.0
C307 C 0.53133 0.60864 0.94966 0.0
C308 C 0.52729 0.54521 0.88699 0.0
C309 C 0.49059 0.52182 0.88 0.0
C310 C 0.45474 0.49495 0.88654 0.0
C311 C 0.45559 0.49087 0.90045 0.0
C312 C 0.4206 0.46332 0.90733 0.0
C313 C 0.42121 0.46076 0.92106 0.0
C314 C 0.45698 0.48538 0.92845 0.0
C315 C 0.45756 0.48389 0.94245 0.0
C316 C 0.49326 0.50956 0.9495 0.0
C317 C 0.52871 0.53682 0.94292 0.0
C318 C 0.52913 0.53806 0.92894 0.0
C319 C 0.56465 0.56459 0.92203 0.0
C320 C 0.56434 0.56656 0.90829 0.0
C321 C 0.52831 0.54248 0.90093 0.0
C322 C 0.49233 0.51519 0.90767 0.0
C323 C 0.49293 0.51263 0.92169 0.0
C324 C 0.24202 0.34294 0.96103 0.0
C325 C 0.28227 0.34513 0.96585 0.0
O326 O 0.67494 0.654 0.86175 0.0
O327 O 0.67042 0.65395 0.96889 0.0
O328 O 0.30999 0.38288 0.96919 0.0
O329 O 0.3095 0.41323 0.85531 0.0
H330 H 0.69398 0.62225 0.85125 0.0
H331 H 0.71746 0.62506 0.87463 0.0
H332 H 0.74734 0.67647 0.874 0.0
H333 H 0.7614 0.64793 0.86386 0.0
H334 H 0.618 0.66657 0.87008 0.0
H335 H 0.65076 0.57919 0.86559 0.0
H336 H 0.51251 0.60458 0.87809 0.0
H337 H 0.55426 0.65366 0.87925 0.0
H338 H 0.54188 0.62162 0.89316 0.0
H339 H 0.6081 0.51604 0.87242 0.0
H340 H 0.55339 0.50029 0.8723 0.0
H341 H 0.58196 0.51414 0.88758 0.0
H342 H 0.34249 0.42321 0.83808 0.0
H343 H 0.29423 0.43556 0.82472 0.0
H344 H 0.31288 0.46612 0.83909 0.0
H345 H 0.26095 0.42538 0.83889 0.0
H346 H 0.37116 0.39891 0.85627 0.0
H347 H 0.32392 0.46832 0.87141 0.0
H348 H 0.45348 0.42761 0.88021 0.0
H349 H 0.47159 0.45281 0.86486 0.0
H350 H 0.43268 0.40276 0.86471 0.0
H351 H 0.36558 0.52378 0.88426 0.0
H352 H 0.42052 0.54116 0.88572 0.0
H353 H 0.3855 0.50782 0.89762 0.0
H354 H 0.29407 0.33523 0.95757 0.0
H355 H 0.36465 0.36421 0.96013 0.0
H356 H 0.33735 0.45458 0.96546 0.0
H357 H 0.43797 0.40483 0.93624 0.0
H358 H 0.42689 0.37459 0.95059 0.0
H359 H 0.46969 0.42333 0.95081 0.0
H360 H 0.37866 0.51615 0.95642 0.0
H361 H 0.4114 0.52028 0.94272 0.0
H362 H 0.43236 0.53057 0.95922 0.0
H363 H 0.66724 0.70068 0.96187 0.0
H364 H 0.73634 0.73061 0.95126 0.0
H365 H 0.7016 0.68316 0.94505 0.0
H366 H 0.74244 0.6907 0.95649 0.0
H367 H 0.65717 0.58583 0.96429 0.0
H368 H 0.60234 0.65728 0.96229 0.0
H369 H 0.5941 0.51791 0.94153 0.0
H370 H 0.56595 0.49855 0.95652 0.0
H371 H 0.6219 0.5217 0.95673 0.0
H372 H 0.53695 0.63706 0.95302 0.0
H373 H 0.50166 0.58609 0.95388 0.0
H374 H 0.52776 0.60712 0.93872 0.0
H375 H 0.48984 0.52477 0.86933 0.0
H376 H 0.3922 0.44364 0.90217 0.0
H377 H 0.39313 0.43938 0.92581 0.0
H378 H 0.49305 0.50907 0.96024 0.0
H379 H 0.59313 0.58422 0.92716 0.0
H380 H 0.5926 0.58763 0.90355 0.0
H381 H 0.22774 0.35087 0.96912 0.0
H382 H 0.21943 0.31367 0.95747 0.0
H383 H 0.24871 0.3631 0.95265 0.0
H384 H 0.93185 0.10218 0.09853 0.0
H385 H 0.93715 0.14712 0.11563 0.0
H386 H 0.01121 0.11532 0.13983 0.0
H387 H 0.00644 0.07054 0.12271 0.0
H388 H 0.91699 0.14335 0.14135 0.0
H389 H 0.08968 0.19683 0.15382 0.0
H390 H 0.15161 0.20238 0.14304 0.0
H391 H 0.10212 0.2067 0.1049 0.0
H392 H 0.04025 0.20175 0.11546 0.0
H393 H 0.97612 0.26145 0.19856 0.0
H394 H 0.96291 0.21227 0.18207 0.0
H395 H 0.04364 0.30002 0.15473 0.0
H396 H 0.05837 0.34904 0.1714 0.0
H397 H 0.05917 0.24499 0.15392 0.0
H398 H 0.93418 0.25103 0.15176 0.0
H399 H 0.87208 0.25004 0.16049 0.0
H400 H 0.82562 0.13504 0.17442 0.0
H401 H 0.88772 0.13552 0.16591 0.0
C402 C 0.94877 0.1043 0.10757 0.0
C403 C 0.96903 0.08302 0.10922 0.0
C404 C 0.95168 0.12996 0.11735 0.0
C405 C 0.97509 0.13499 0.12891 0.0
C406 C 0.99349 0.11229 0.13089 0.0
C407 C 0.99056 0.08657 0.12113 0.0
C408 C 0.98229 0.16557 0.13849 0.0
C409 C 0.94805 0.16551 0.14416 0.0
C410 C 0.0228 0.19505 0.14186 0.0
C411 C 0.06013 0.19845 0.13543 0.0
C412 C 0.09209 0.19907 0.14314 0.0
C413 C 0.12718 0.20211 0.13707 0.0
C414 C 0.13072 0.20474 0.1233 0.0
C415 C 0.09927 0.2045 0.11556 0.0
C416 C 0.06417 0.20153 0.12159 0.0
C417 C 0.99063 0.27019 0.18896 0.0
C418 C 0.01735 0.30915 0.18616 0.0
C419 C 0.98299 0.24211 0.17953 0.0
C420 C 0.00159 0.25242 0.16703 0.0
C421 C 0.02867 0.29132 0.16426 0.0
C422 C 0.03677 0.31938 0.17376 0.0
C423 C 0.99384 0.22262 0.15699 0.0
C424 C 0.02804 0.22279 0.1512 0.0
C425 C 0.95325 0.19389 0.15324 0.0
C426 C 0.91577 0.19344 0.1583 0.0
C427 C 0.91085 0.22562 0.15676 0.0
C428 C 0.87563 0.22514 0.16166 0.0
C429 C 0.84497 0.19253 0.16803 0.0
C430 C 0.84941 0.16029 0.16949 0.0
C431 C 0.88459 0.16064 0.16462 0.0
H432 H 0.81774 0.19222 0.17182 0.0
H433 H 0.15789 0.20706 0.11862 0.0
H434 H 0.91034 0.97647 0.44002 0.0
H435 H 0.8656 0.983 0.45604 0.0
H436 H 0.88811 0.08773 0.437 0.0
H437 H 0.93486 0.08239 0.42149 0.0
H438 H 0.89917 0.10014 0.46141 0.0
H439 H 0.78976 0.99808 0.43637 0.0
H440 H 0.75234 0.93476 0.42557 0.0
H441 H 0.74048 0.87971 0.46305 0.0
H442 H 0.77829 0.9427 0.47406 0.0
H443 H 0.76443 0.12929 0.50082 0.0
H444 H 0.78667 0.1099 0.48105 0.0
H445 H 0.78928 0.01946 0.50322 0.0
H446 H 0.76641 0.03845 0.52301 0.0
H447 H 0.7612 0.99857 0.47671 0.0
H448 H 0.87487 0.1012 0.50103 0.0
H449 H 0.91073 0.16457 0.51183 0.0
H450 H 0.91304 0.21852 0.47485 0.0
H451 H 0.87653 0.15535 0.46387 0.0
C452 C 0.90514 0.00052 0.43914 0.0
C453 C 0.92615 0.02903 0.42957 0.0
C454 C 0.87932 0.00413 0.44825 0.0
C455 C 0.87301 0.0357 0.44769 0.0
C456 C 0.89256 0.06321 0.4377 0.0
C457 C 0.9192 0.06013 0.42882 0.0
C458 C 0.8495 0.04214 0.45821 0.0
C459 C 0.8686 0.07805 0.4645 0.0
C460 C 0.81009 0.01309 0.46261 0.0
C461 C 0.78716 0.97515 0.45602 0.0
C462 C 0.77942 0.97248 0.4423 0.0
C463 C 0.75809 0.93664 0.43614 0.0
C464 C 0.74412 0.90324 0.44361 0.0
C465 C 0.75134 0.9056 0.45727 0.0
C466 C 0.77267 0.94137 0.46347 0.0
C467 C 0.76864 0.10463 0.50138 0.0
C468 C 0.76344 0.08517 0.51342 0.0
C469 C 0.78144 0.09365 0.4901 0.0
C470 C 0.78991 0.06346 0.49073 0.0
C471 C 0.7827 0.04271 0.50253 0.0
C472 C 0.76979 0.05364 0.51382 0.0
C473 C 0.81078 0.0565 0.47958 0.0
C474 C 0.79146 0.02058 0.47335 0.0
C475 C 0.84992 0.08552 0.47513 0.0
C476 C 0.87264 0.12355 0.48166 0.0
C477 C 0.88281 0.12657 0.49522 0.0
C478 C 0.90326 0.16244 0.50137 0.0
C479 C 0.91409 0.19555 0.49404 0.0
C480 C 0.90459 0.19285 0.48052 0.0
C481 C 0.88404 0.15702 0.47433 0.0
H482 H 0.9299 0.2233 0.49882 0.0
H483 H 0.72764 0.87552 0.43882 0.0
H484 H 0.90312 0.85694 0.75887 0.0
H485 H 0.86266 0.81326 0.77653 0.0
H486 H 0.90203 0.90873 0.80324 0.0
H487 H 0.94347 0.95293 0.78556 0.0
H488 H 0.90269 0.8489 0.81534 0.0
H489 H 0.80627 0.86739 0.78985 0.0
H490 H 0.77093 0.87148 0.76966 0.0
H491 H 0.72737 0.75296 0.76127 0.0
H492 H 0.76297 0.74829 0.78132 0.0
H493 H 0.74326 0.72745 0.86109 0.0
H494 H 0.78491 0.77986 0.84572 0.0
H495 H 0.76753 0.69755 0.81559 0.0
H496 H 0.72644 0.64515 0.83092 0.0
H497 H 0.75387 0.75643 0.8066 0.0
H498 H 0.85607 0.7411 0.83176 0.0
H499 H 0.89081 0.73838 0.85232 0.0
H500 H 0.92185 0.85342 0.86188 0.0
H501 H 0.88672 0.85661 0.84146 0.0
C502 C 0.90339 0.86876 0.7685 0.0
C503 C 0.92625 0.90845 0.77079 0.0
C504 C 0.88007 0.84372 0.77858 0.0
C505 C 0.87867 0.85781 0.79112 0.0
C506 C 0.90249 0.89732 0.7936 0.0
C507 C 0.92608 0.9225 0.78349 0.0
C508 C 0.85188 0.83095 0.80149 0.0
C509 C 0.86998 0.82916 0.81353 0.0
C510 C 0.80924 0.80501 0.79909 0.0
C511 C 0.78757 0.80758 0.78704 0.0
C512 C 0.78941 0.84227 0.78365 0.0
C513 C 0.76929 0.84468 0.77224 0.0
C514 C 0.74699 0.81252 0.76417 0.0
C515 C 0.74468 0.77786 0.76752 0.0
C516 C 0.76479 0.7753 0.77892 0.0
C517 C 0.74845 0.72063 0.85119 0.0
C518 C 0.73172 0.68224 0.8472 0.0
C519 C 0.7722 0.75051 0.84245 0.0
C520 C 0.7794 0.74249 0.82956 0.0
C521 C 0.76224 0.70426 0.8255 0.0
C522 C 0.73886 0.6744 0.83426 0.0
C523 C 0.80494 0.77382 0.82026 0.0
C524 C 0.78649 0.77648 0.80844 0.0
C525 C 0.84705 0.80076 0.82294 0.0
C526 C 0.86835 0.79893 0.83517 0.0
C527 C 0.86998 0.76569 0.83831 0.0
C528 C 0.8898 0.76409 0.84992 0.0
C529 C 0.90842 0.79567 0.85842 0.0
C530 C 0.90735 0.82896 0.8553 0.0
C531 C 0.8875 0.83068 0.84371 0.0
H532 H 0.92376 0.79438 0.86741 0.0
H533 H 0.73143 0.81445 0.75534 0.0
H534 H 0.09912 0.95165 0.1033 0.0
H535 H 0.09885 0.90764 0.12002 0.0
H536 H 0.98545 0.8945 0.13603 0.0
H537 H 0.98687 0.9402 0.1197 0.0
H538 H 0.02986 0.89307 0.15535 0.0
H539 H 0.98671 0.82694 0.11434 0.0
H540 H 0.98959 0.8155 0.09052 0.0
H541 H 0.1035 0.81493 0.09669 0.0
H542 H 0.10162 0.82692 0.12053 0.0
H543 H 0.99245 0.7215 0.18949 0.0
H544 H 0.98358 0.76349 0.17372 0.0
H545 H 0.10748 0.80458 0.15941 0.0
H546 H 0.11657 0.76306 0.17512 0.0
H547 H 0.04868 0.78678 0.13919 0.0
H548 H 0.0892 0.85634 0.18114 0.0
H549 H 0.07969 0.86368 0.20487 0.0
H550 H 0.96038 0.85133 0.19641 0.0
H551 H 0.96894 0.84337 0.17265 0.0
C552 C 0.07448 0.93981 0.11051 0.0
C553 C 0.04288 0.94912 0.11016 0.0
C554 C 0.07411 0.91437 0.12 0.0
C555 C 0.04141 0.89675 0.12905 0.0
C556 C 0.01084 0.90744 0.1291 0.0
C557 C 0.01171 0.9336 0.11978 0.0
C558 C 0.03871 0.86652 0.13816 0.0
C559 C 0.03336 0.86953 0.15176 0.0
C560 C 0.043 0.83555 0.13354 0.0
C561 C 0.04418 0.82814 0.11921 0.0
C562 C 0.01251 0.82462 0.1106 0.0
C563 C 0.01395 0.81801 0.0971 0.0
C564 C 0.04675 0.81457 0.09209 0.0
C565 C 0.07813 0.81764 0.10058 0.0
C566 C 0.07687 0.8243 0.11409 0.0
C567 C 0.01758 0.73929 0.18288 0.0
C568 C 0.05511 0.73885 0.18347 0.0
C569 C 0.01256 0.76331 0.17394 0.0
C570 C 0.04498 0.78725 0.16547 0.0
C571 C 0.08206 0.78624 0.16585 0.0
C572 C 0.0872 0.76251 0.17482 0.0
C573 C 0.04103 0.81407 0.15631 0.0
C574 C 0.04491 0.81023 0.1427 0.0
C575 C 0.03436 0.84364 0.16089 0.0
C576 C 0.02953 0.84887 0.17515 0.0
C577 C 0.06081 0.85491 0.18436 0.0
C578 C 0.05561 0.85923 0.19781 0.0
C579 C 0.01941 0.85787 0.20215 0.0
C580 C 0.98838 0.85232 0.19304 0.0
C581 C 0.9934 0.84793 0.17958 0.0
H582 H 0.01544 0.86121 0.21256 0.0
H583 H 0.04781 0.80945 0.08163 0.0
H584 H 0.08786 0.97549 0.43267 0.0
H585 H 0.13929 0.97947 0.44866 0.0
H586 H 0.20925 0.10207 0.44391 0.0
H587 H 0.15732 0.09862 0.42793 0.0
H588 H 0.23827 0.02391 0.44593 0.0
H589 H 0.20686 0.12023 0.46764 0.0
H590 H 0.15547 0.14007 0.47247 0.0
H591 H 0.07128 0.02745 0.48719 0.0
H592 H 0.12214 0.00697 0.48229 0.0
H593 H 0.35528 0.03807 0.50509 0.0
H594 H 0.32754 0.05641 0.48612 0.0
H595 H 0.20312 0.97951 0.49933 0.0
H596 H 0.22993 0.96121 0.51817 0.0
H597 H 0.21236 0.04769 0.49207 0.0
H598 H 0.24526 0.95461 0.47435 0.0
H599 H 0.29155 0.92917 0.46929 0.0
H600 H 0.36913 0.02964 0.44642 0.0
H601 H 0.32353 0.0559 0.4515 0.0
C602 C 0.11434 0.00336 0.43487 0.0
C603 C 0.11822 0.03681 0.4291 0.0
C604 C 0.14377 0.0055 0.44399 0.0
C605 C 0.17773 0.04103 0.4475 0.0
C606 C 0.18296 0.07441 0.44136 0.0
C607 C 0.15334 0.07235 0.43223 0.0
C608 C 0.2053 0.04261 0.45838 0.0
C609 C 0.23371 0.03022 0.456 0.0
C610 C 0.19836 0.04984 0.47148 0.0
C611 C 0.16798 0.06205 0.47449 0.0
C612 C 0.17725 0.0997 0.47182 0.0
C613 C 0.14828 0.11106 0.47459 0.0
C614 C 0.11008 0.085 0.4801 0.0
C615 C 0.10084 0.04757 0.48289 0.0
C616 C 0.1297 0.03608 0.48013 0.0
C617 C 0.32197 0.0248 0.50389 0.0
C618 C 0.29518 0.99746 0.51309 0.0
C619 C 0.30622 0.0354 0.49306 0.0
C620 C 0.26327 0.01906 0.49127 0.0
C621 C 0.23641 0.99244 0.50053 0.0
C622 C 0.25205 0.98179 0.51133 0.0
C623 C 0.24581 0.0291 0.47969 0.0
C624 C 0.21858 0.04297 0.48199 0.0
C625 C 0.25401 0.02323 0.46651 0.0
C626 C 0.28132 0.00742 0.46344 0.0
C627 C 0.27239 0.97141 0.46834 0.0
C628 C 0.29845 0.95682 0.46545 0.0
C629 C 0.33334 0.97783 0.45758 0.0
C630 C 0.34215 0.01344 0.45254 0.0
C631 C 0.31621 0.02818 0.45542 0.0
H632 H 0.35347 0.96648 0.45535 0.0
H633 H 0.0877 0.09384 0.48225 0.0
H634 H 0.12848 0.16203 0.75907 0.0
H635 H 0.16714 0.20575 0.77714 0.0
H636 H 0.07942 0.12669 0.80524 0.0
H637 H 0.04072 0.08187 0.7871 0.0
H638 H 0.1032 0.21212 0.80595 0.0
H639 H 0.15926 0.12841 0.80837 0.0
H640 H 0.18814 0.09013 0.79931 0.0
H641 H 0.29133 0.19201 0.78359 0.0
H642 H 0.26272 0.23085 0.79237 0.0
H643 H 0.23876 0.35169 0.85252 0.0
H644 H 0.19356 0.28802 0.84307 0.0
H645 H 0.27586 0.31679 0.80984 0.0
H646 H 0.32178 0.37971 0.81952 0.0
H647 H 0.24789 0.24509 0.8163 0.0
H648 H 0.18701 0.32575 0.80928 0.0
H649 H 0.15872 0.36641 0.81646 0.0
H650 H 0.06546 0.27292 0.839 0.0
H651 H 0.09359 0.23185 0.83208 0.0
C652 C 0.11727 0.15384 0.76908 0.0
C653 C 0.08151 0.11855 0.77167 0.0
C654 C 0.13952 0.1788 0.77939 0.0
C655 C 0.12618 0.16926 0.79248 0.0
C656 C 0.09016 0.13436 0.79517 0.0
C657 C 0.0682 0.10888 0.78483 0.0
C658 C 0.15016 0.19672 0.80314 0.0
C659 C 0.13443 0.21873 0.80855 0.0
C660 C 0.19114 0.2057 0.80621 0.0
C661 C 0.20867 0.18252 0.80097 0.0
C662 C 0.18793 0.14263 0.80289 0.0
C663 C 0.20429 0.12083 0.79782 0.0
C664 C 0.24151 0.13862 0.79086 0.0
C665 C 0.26249 0.17826 0.78898 0.0
C666 C 0.24624 0.20019 0.79402 0.0
C667 C 0.24767 0.34402 0.84337 0.0
C668 C 0.28416 0.37045 0.83684 0.0
C669 C 0.22165 0.30776 0.83792 0.0
C670 C 0.23105 0.29772 0.82567 0.0
C671 C 0.26803 0.32372 0.81934 0.0
C672 C 0.29423 0.3597 0.82485 0.0
C673 C 0.20145 0.26142 0.81886 0.0
C674 C 0.21623 0.23786 0.81409 0.0
C675 C 0.15975 0.25135 0.81621 0.0
C676 C 0.1427 0.27592 0.8203 0.0
C677 C 0.16065 0.31397 0.81584 0.0
C678 C 0.14463 0.33707 0.81985 0.0
C679 C 0.11039 0.3223 0.82822 0.0
C680 C 0.09203 0.28435 0.83255 0.0
C681 C 0.10799 0.26115 0.82858 0.0
H682 H 0.09803 0.34022 0.83131 0.0
H683 H 0.25413 0.12169 0.78694 0.0
H684 H 0.89427 0.96813 0.71008 0.0
H685 H 0.85173 0.97736 0.6935 0.0
H686 H 0.89296 0.09055 0.70882 0.0
H687 H 0.93635 0.08193 0.72532 0.0
H688 H 0.80184 0.04171 0.7013 0.0
H689 H 0.94256 0.09034 0.68494 0.0
H690 H 0.00309 0.08324 0.68006 0.0
H691 H 0.92791 0.98808 0.65444 0.0
H692 H 0.86675 0.99429 0.65934 0.0
H693 H 0.77703 0.14585 0.64904 0.0
H694 H 0.79753 0.12017 0.66776 0.0
H695 H 0.78523 0.02773 0.64316 0.0
H696 H 0.76589 0.0541 0.6243 0.0
H697 H 0.85546 0.05804 0.65554 0.0
H698 H 0.71726 0.01226 0.66879 0.0
H699 H 0.65352 0.01387 0.67374 0.0
H700 H 0.71719 0.09532 0.70486 0.0
H701 H 0.78157 0.09469 0.69997 0.0
C702 C 0.89382 0.99477 0.71007 0.0
C703 C 0.91895 0.02447 0.71893 0.0
C704 C 0.86947 0.99993 0.70061 0.0
C705 C 0.8694 0.03462 0.69997 0.0
C706 C 0.8926 0.06353 0.70923 0.0
C707 C 0.91752 0.05865 0.71858 0.0
C708 C 0.84852 0.04219 0.68883 0.0
C709 C 0.81357 0.04563 0.69129 0.0
C710 C 0.86313 0.0458 0.67575 0.0
C711 C 0.90002 0.0425 0.67263 0.0
C712 C 0.93887 0.06771 0.67835 0.0
C713 C 0.9733 0.06388 0.67557 0.0
C714 C 0.96932 0.03514 0.66698 0.0
C715 C 0.93093 0.01028 0.66111 0.0
C716 C 0.89638 0.01395 0.66388 0.0
C717 C 0.77813 0.11974 0.64771 0.0
C718 C 0.76978 0.10187 0.63525 0.0
C719 C 0.7896 0.10493 0.65842 0.0
C720 C 0.79252 0.07175 0.65692 0.0
C721 C 0.78313 0.05332 0.64456 0.0
C722 C 0.77196 0.0683 0.63382 0.0
C723 C 0.80875 0.05829 0.66793 0.0
C724 C 0.84307 0.05376 0.66547 0.0
C725 C 0.79298 0.05301 0.68095 0.0
C726 C 0.7544 0.05368 0.68392 0.0
C727 C 0.71781 0.03079 0.67661 0.0
C728 C 0.68153 0.03148 0.67942 0.0
C729 C 0.68133 0.05475 0.68959 0.0
C730 C 0.71741 0.07734 0.69698 0.0
C731 C 0.7538 0.0768 0.6942 0.0
H732 H 0.6532 0.05522 0.69175 0.0
H733 H 0.99601 0.0322 0.66484 0.0
H734 H 0.87396 0.94859 0.05602 0.0
H735 H 0.82699 0.89994 0.04027 0.0
H736 H 0.90321 0.84726 0.04135 0.0
H737 H 0.9508 0.89625 0.05683 0.0
H738 H 0.88647 0.85609 0.01678 0.0
H739 H 0.80653 0.80551 0.05615 0.0
H740 H 0.77123 0.80696 0.07646 0.0
H741 H 0.69167 0.83411 0.05351 0.0
H742 H 0.72689 0.83333 0.03307 0.0
H743 H 0.74817 0.68798 0.9811 0.0
H744 H 0.78863 0.7301 0.99949 0.0
H745 H 0.72416 0.79334 0.99476 0.0
H746 H 0.68396 0.75163 0.97629 0.0
H747 H 0.73374 0.77753 0.02143 0.0
H748 H 0.81562 0.82983 0.98225 0.0
H749 H 0.85064 0.82755 0.96199 0.0
H750 H 0.92666 0.79617 0.98498 0.0
H751 H 0.8916 0.79766 0.00537 0.0
C752 C 0.88046 0.92639 0.05303 0.0
C753 C 0.9162 0.92638 0.05765 0.0
C754 C 0.85349 0.8985 0.04406 0.0
C755 C 0.86142 0.86978 0.03969 0.0
C756 C 0.89652 0.86919 0.04455 0.0
C757 C 0.92365 0.8972 0.05343 0.0
C758 C 0.83453 0.84162 0.0295 0.0
C759 C 0.85316 0.83847 0.01792 0.0
C760 C 0.79093 0.8193 0.03082 0.0
C761 C 0.76963 0.81972 0.04309 0.0
C762 C 0.78173 0.81209 0.05544 0.0
C763 C 0.76169 0.81273 0.06698 0.0
C764 C 0.72929 0.82072 0.06628 0.0
C765 C 0.7168 0.82797 0.05404 0.0
C766 C 0.73676 0.8274 0.04247 0.0
C767 C 0.7426 0.71081 0.98403 0.0
C768 C 0.71318 0.71675 0.97722 0.0
C769 C 0.76563 0.73476 0.99451 0.0
C770 C 0.75949 0.76492 0.99839 0.0
C771 C 0.72926 0.77017 0.9919 0.0
C772 C 0.70647 0.74644 0.98134 0.0
C773 C 0.78584 0.79198 0.00886 0.0
C774 C 0.7671 0.79503 0.0204 0.0
C775 C 0.82938 0.81414 0.00756 0.0
C776 C 0.85067 0.81344 0.99532 0.0
C777 C 0.83955 0.82211 0.98298 0.0
C778 C 0.85945 0.82102 0.97147 0.0
C779 C 0.89077 0.81161 0.97219 0.0
C780 C 0.90234 0.80338 0.98443 0.0
C781 C 0.88248 0.80436 0.99597 0.0
H782 H 0.90615 0.8108 0.96327 0.0
H783 H 0.71382 0.8212 0.07522 0.0
H784 H 0.99956 0.95871 0.36485 0.0
H785 H 0.99612 0.913 0.34827 0.0
H786 H 0.95057 0.82408 0.37791 0.0
H787 H 0.95291 0.86904 0.39434 0.0
H788 H 0.03805 0.87753 0.34728 0.0
H789 H 0.89114 0.7378 0.36525 0.0
H790 H 0.82184 0.71865 0.37395 0.0
H791 H 0.82633 0.81714 0.35582 0.0
H792 H 0.89538 0.8366 0.34684 0.0
H793 H 0.05382 0.71491 0.3351 0.0
H794 H 0.04539 0.76707 0.34365 0.0
H795 H 0.93618 0.72968 0.31914 0.0
H796 H 0.94341 0.67624 0.31106 0.0
H797 H 0.92058 0.74481 0.34196 0.0
H798 H 0.03118 0.81466 0.31248 0.0
H799 H 0.09833 0.836 0.30169 0.0
H800 H 0.16199 0.88137 0.33865 0.0
H801 H 0.0952 0.85984 0.34971 0.0
C802 C 0.98808 0.92922 0.36776 0.0
C803 C 0.97648 0.9175 0.38091 0.0
C804 C 0.98628 0.90318 0.35828 0.0
C805 C 0.97273 0.86497 0.36179 0.0
C806 C 0.96029 0.85313 0.37486 0.0
C807 C 0.96187 0.87901 0.38428 0.0
C808 C 0.97442 0.83797 0.35219 0.0
C809 C 0.01224 0.84862 0.346 0.0
C810 C 0.94041 0.80058 0.35018 0.0
C811 C 0.89861 0.78878 0.35543 0.0
C812 C 0.87725 0.75526 0.36304 0.0
C813 C 0.83803 0.74437 0.36805 0.0
C814 C 0.81973 0.7667 0.36546 0.0
C815 C 0.84059 0.79992 0.35785 0.0
C816 C 0.8798 0.81092 0.35281 0.0
C817 C 0.02838 0.7182 0.3314 0.0
C818 C -7e-05 0.69203 0.32217 0.0
C819 C 0.02368 0.74815 0.33623 0.0
C820 C 0.9907 0.75299 0.33181 0.0
C821 C 0.96212 0.72683 0.3226 0.0
C822 C 0.96646 0.69644 0.31791 0.0
C823 C 0.98478 0.78385 0.33752 0.0
C824 C 0.94618 0.77391 0.343 0.0
C825 C 0.01773 0.82221 0.33855 0.0
C826 C 0.0581 0.83545 0.33194 0.0
C827 C 0.05947 0.82899 0.31833 0.0
C828 C 0.09749 0.84114 0.31216 0.0
C829 C 0.13439 0.85999 0.31948 0.0
C830 C 0.13337 0.86678 0.33299 0.0
C831 C 0.09544 0.85467 0.33921 0.0
H832 H 0.16379 0.86936 0.31469 0.0
H833 H 0.78938 0.75824 0.36935 0.0
H834 H 0.13605 0.06475 0.71963 0.0
H835 H 0.18422 0.05915 0.70477 0.0
H836 H 0.11027 0.93601 0.70671 0.0
H837 H 0.0619 0.94118 0.72151 0.0
H838 H 0.23208 0.02298 0.70666 0.0
H839 H 0.10036 0.9026 0.67631 0.0
H840 H 0.02717 0.88004 0.67045 0.0
H841 H 0.04917 0.9949 0.67375 0.0
H842 H 0.12247 0.01808 0.67957 0.0
H843 H 0.31183 0.93477 0.66433 0.0
H844 H 0.27097 0.94704 0.68038 0.0
H845 H 0.24065 0.00548 0.65027 0.0
H846 H 0.28132 0.99314 0.63418 0.0
H847 H 0.17307 0.95626 0.66396 0.0
H848 H 0.31116 0.05625 0.67375 0.0
H849 H 0.38542 0.08403 0.67918 0.0
H850 H 0.35438 0.02031 0.71551 0.0
H851 H 0.27989 0.9917 0.7102 0.0
C852 C 0.13025 0.03645 0.71702 0.0
C853 C 0.09489 0.00339 0.72167 0.0
C854 C 0.15791 0.03335 0.70857 0.0
C855 C 0.1505 0.9972 0.70456 0.0
C856 C 0.11622 0.96418 0.7096 0.0
C857 C 0.08865 0.96722 0.71807 0.0
C858 C 0.17709 0.99382 0.69451 0.0
C859 C 0.21929 0.00836 0.69733 0.0
C860 C 0.16048 0.97556 0.68223 0.0
C861 C 0.11675 0.96197 0.67843 0.0
C862 C 0.08958 0.92302 0.67571 0.0
C863 C 0.04808 0.91013 0.67243 0.0
C864 C 0.03352 0.93601 0.67175 0.0
C865 C 0.06045 0.97486 0.67432 0.0
C866 C 0.10193 0.98787 0.67763 0.0
C867 C 0.29666 0.95045 0.66118 0.0
C868 C 0.30014 0.96342 0.64806 0.0
C869 C 0.27343 0.9575 0.67034 0.0
C870 C 0.25317 0.97753 0.66654 0.0
C871 C 0.25615 0.99008 0.65341 0.0
C872 C 0.27946 0.98315 0.64426 0.0
C873 C 0.22813 0.98471 0.67618 0.0
C874 C 0.18606 0.97085 0.67328 0.0
C875 C 0.24517 0.00432 0.68826 0.0
C876 C 0.28994 0.02156 0.69151 0.0
C877 C 0.32017 0.04792 0.68285 0.0
C878 C 0.3623 0.06386 0.68591 0.0
C879 C 0.37461 0.05387 0.69767 0.0
C880 C 0.3448 0.02799 0.7064 0.0
C881 C 0.30261 0.01192 0.70337 0.0
H882 H 0.40725 0.06624 0.70003 0.0
H883 H 0.00138 0.92597 0.66922 0.0
H884 H 0.05357 0.12168 0.05051 0.0
H885 H 0.10255 0.16989 0.0355 0.0
H886 H 0.19821 0.14688 0.04906 0.0
H887 H 0.14848 0.09716 0.06392 0.0
H888 H 0.16993 0.23377 0.03842 0.0
H889 H 0.26514 0.16396 0.02311 0.0
H890 H 0.25844 0.09998 0.02175 0.0
H891 H 0.12654 0.04841 0.01682 0.0
H892 H 0.13254 0.11208 0.018 0.0
H893 H 0.30785 0.36343 0.99227 0.0
H894 H 0.28647 0.32009 0.01112 0.0
H895 H 0.21436 0.22415 0.98511 0.0
H896 H 0.2381 0.26708 0.96605 0.0
H897 H 0.24162 0.20072 0.00428 0.0
H898 H 0.17301 0.27574 0.0015 0.0
H899 H 0.17065 0.33578 0.00063 0.0
H900 H 0.23282 0.36947 0.03836 0.0
H901 H 0.23598 0.30979 0.03937 0.0
C902 C 0.08504 0.12687 0.05039 0.0
C903 C 0.09703 0.10538 0.05838 0.0
C904 C 0.11314 0.15463 0.04181 0.0
C905 C 0.15404 0.1619 0.04106 0.0
C906 C 0.16663 0.14137 0.04932 0.0
C907 C 0.13824 0.1131 0.05784 0.0
C908 C 0.18251 0.19035 0.0313 0.0
C909 C 0.18595 0.22663 0.03104 0.0
C910 C 0.20327 0.18109 0.02161 0.0
C911 C 0.19927 0.14269 0.02083 0.0
C912 C 0.23473 0.13894 0.02173 0.0
C913 C 0.23106 0.10275 0.02099 0.0
C914 C 0.19207 0.07014 0.01926 0.0
C915 C 0.15669 0.07366 0.01822 0.0
C916 C 0.16021 0.10979 0.01894 0.0
C917 C 0.28811 0.33306 0.99047 0.0
C918 C 0.27387 0.31876 0.97761 0.0
C919 C 0.27576 0.30828 0.00131 0.0
C920 C 0.2478 0.26897 -0.00039 0.0
C921 C 0.23572 0.25438 0.98673 0.0
C922 C 0.24896 0.27898 0.97584 0.0
C923 C 0.22782 0.24359 0.01116 0.0
C924 C 0.22628 0.2081 0.01182 0.0
C925 C 0.2074 0.25293 0.02096 0.0
C926 C 0.20513 0.28858 0.02044 0.0
C927 C 0.18634 0.29606 0.00958 0.0
C928 C 0.18486 0.33 0.00906 0.0
C929 C 0.20168 0.35647 0.01942 0.0
C930 C 0.21989 0.34898 0.03034 0.0
C931 C 0.22152 0.31511 0.03089 0.0
H932 H 0.20052 0.38274 0.019 0.0
H933 H 0.18929 0.04215 0.0187 0.0
H934 H 0.10466 0.17121 0.37922 0.0
H935 H 0.10176 0.20804 0.36035 0.0
H936 H 0.98443 0.11136 0.34826 0.0
H937 H 0.98898 0.07373 0.36654 0.0
H938 H 0.02188 0.1432 0.32759 0.0
H939 H 0.99668 0.19335 0.36716 0.0
H940 H 0.01108 0.22136 0.38959 0.0
H941 H 0.12207 0.31965 0.37569 0.0
H942 H 0.10858 0.29199 0.35321 0.0
H943 H 0.92382 0.24269 0.2884 0.0
H944 H 0.94453 0.19966 0.30683 0.0
H945 H 0.08956 0.30944 0.31201 0.0
H946 H 0.07303 0.35554 0.29355 0.0
H947 H 0.04336 0.27277 0.33662 0.0
H948 H 0.05966 0.22135 0.29592 0.0
H949 H 0.03827 0.19201 0.27378 0.0
H950 H 0.93378 0.09344 0.29063 0.0
H951 H 0.95421 0.12242 0.31286 0.0
C952 C 0.07865 0.15773 0.37238 0.0
C953 C 0.04698 0.11973 0.37433 0.0
C954 C 0.07674 0.17889 0.36167 0.0
C955 C 0.04222 0.16299 0.35305 0.0
C956 C 0.01135 0.12447 0.35475 0.0
C957 C 0.01393 0.10293 0.36521 0.0
C958 C 0.03751 0.18657 0.34251 0.0
C959 C 0.02606 0.17129 0.32967 0.0
C960 C 0.04367 0.22369 0.34504 0.0
C961 C 0.05186 0.24039 0.35855 0.0
C962 C 0.0243 0.22081 0.36891 0.0
C963 C 0.03228 0.23664 0.38163 0.0
C964 C 0.06753 0.27221 0.38407 0.0
C965 C 0.09482 0.29207 0.37379 0.0
C966 C 0.08701 0.27634 0.36106 0.0
C967 C 0.95512 0.25432 0.29219 0.0
C968 C 0.99421 0.30613 0.29087 0.0
C969 C 0.96775 0.22849 0.30415 0.0
C970 C 0.01837 0.25058 0.31194 0.0
C971 C 0.05922 0.29786 0.30745 0.0
C972 C 0.04984 0.32611 0.29556 0.0
C973 C 0.027 0.22887 0.32197 0.0
C974 C 0.03934 0.24467 0.33464 0.0
C975 C 0.0204 0.19185 0.3194 0.0
C976 C 0.00829 0.17422 0.30605 0.0
C977 C 0.03195 0.19354 0.29489 0.0
C978 C 0.02003 0.17695 0.28233 0.0
C979 C 0.98464 0.14093 0.28079 0.0
C980 C 0.96117 0.12136 0.29183 0.0
C981 C 0.97294 0.13783 0.30442 0.0
H982 H 0.97545 0.12814 0.27105 0.0
H983 H 0.07365 0.28442 0.39392 0.0
loop_
_geom_bond_atom_site_label_1
_geom_bond_atom_site_label_2
_geom_bond_distance
_geom_bond_site_symmetry_2
_ccdc_geom_bond_type
O0 Cd1 2.223 1_455 S
O0 C8 1.315 . S
Cd1 O0 2.223 1_655 S
Cd1 O4 2.297 . S
Cd1 O5 2.439 1_655 S
Cd1 O11 2.240 1_545 S
Cd2 O3 2.240 1_565 S
Cd2 O10 2.223 . S
Cd2 O12 2.297 . S
Cd2 O13 2.439 . S
O3 Cd2 2.240 1_545 S
O3 C8 1.279 . S
O4 Cd1 2.297 . S
O4 C6 1.247 1_655 S
O5 Cd1 2.439 1_455 S
O5 C6 1.208 . S
C6 O4 1.247 1_455 S
C6 O5 1.208 . S
C7 O12 1.247 . S
C7 O13 1.208 . S
C8 O0 1.315 . S
C8 O3 1.279 . S
C9 O10 1.315 1_655 S
C9 O11 1.279 . S
O10 Cd2 2.223 . S
O10 C9 1.315 1_455 S
O11 Cd1 2.240 1_565 S
O11 C9 1.279 . S
O12 Cd2 2.297 . S
O12 C7 1.247 . S
O13 Cd2 2.439 . S
O13 C7 1.208 . S
O14 Cd15 2.223 . S
O14 C22 1.315 1_455 S
Cd15 O14 2.223 . S
Cd15 O18 2.297 . S
Cd15 O19 2.439 . S
Cd15 O25 2.240 . S
Cd16 O17 2.240 1_565 S
Cd16 O24 2.223 1_655 S
Cd16 O26 2.297 1_655 S
Cd16 O27 2.439 1_655 S
O17 Cd16 2.240 1_545 S
O17 C22 1.279 . S
O18 Cd15 2.297 . S
O18 C20 1.247 . S
O19 Cd15 2.439 . S
O19 C20 1.208 . S
C20 O18 1.247 . S
C20 O19 1.208 . S
C21 O26 1.247 . S
C21 O27 1.208 . S
C22 O14 1.315 1_655 S
C22 O17 1.279 . S
C23 O24 1.315 1_545 S
C23 O25 1.279 . S
O24 Cd16 2.223 1_455 S
O24 C23 1.315 1_565 S
O25 Cd15 2.240 . S
O25 C23 1.279 . S
O26 Cd16 2.297 1_455 S
O26 C21 1.247 . S
O27 Cd16 2.439 1_455 S
O27 C21 1.208 . S
O28 Cd29 2.223 . S
O28 C36 1.315 1_565 S
Cd29 O28 2.223 . S
Cd29 O32 2.297 . S
Cd29 O33 2.439 . S
Cd29 O39 2.240 1_665 S
Cd30 O31 2.240 1_455 S
Cd30 O38 2.223 . S
Cd30 O40 2.297 . S
Cd30 O41 2.439 . S
O31 Cd30 2.240 1_655 S
O31 C36 1.279 . S
O32 Cd29 2.297 . S
O32 C34 1.247 . S
O33 Cd29 2.439 . S
O33 C34 1.208 . S
C34 O32 1.247 . S
C34 O33 1.208 . S
C35 O40 1.247 . S
C35 O41 1.208 . S
C36 O28 1.315 1_545 S
C36 O31 1.279 . S
C37 O38 1.315 . S
C37 O39 1.279 . S
O38 Cd30 2.223 . S
O38 C37 1.315 . S
O39 Cd29 2.240 1_445 S
O39 C37 1.279 . S
O40 Cd30 2.297 . S
O40 C35 1.247 . S
O41 Cd30 2.439 . S
O41 C35 1.208 . S
C42 C43 1.560 . S
C42 H103 0.959 . S
C42 H104 0.959 . S
C42 H105 0.960 . S
C43 C42 1.560 . S
C43 O98 1.426 . S
C43 H102 0.980 1_655 S
C44 C45 1.407 1_655 S
C44 C49 1.418 . S
C44 O98 1.334 . S
C45 C44 1.407 1_455 S
C45 C46 1.360 . S
C45 H106 0.929 . S
C46 C45 1.360 . S
C46 C47 1.401 . S
C46 C50 1.527 . S
C47 C46 1.401 . S
C47 C48 1.405 1_455 S
C47 C80 1.587 . S
C48 C47 1.405 1_655 S
C48 C49 1.332 . S
C48 C51 1.496 . S
C49 C44 1.418 . S
C49 C48 1.332 . S
C49 H107 0.929 . S
C50 C46 1.527 . S
C50 H108 0.959 . S
C50 H109 0.961 . S
C50 H110 0.961 . S
C51 C48 1.496 . S
C51 H111 0.960 . S
C51 H112 0.960 . S
C51 H113 0.961 . S
C52 C53 1.517 . S
C52 H115 0.961 . S
C52 H116 0.960 . S
C52 H117 0.959 . S
C53 C52 1.517 . S
C53 O101 1.468 . S
C53 H114 0.980 . S
C54 C55 1.349 . S
C54 C59 1.367 . S
C54 O101 1.408 . S
C55 C54 1.349 . S
C55 C56 1.407 . S
C55 H118 0.930 . S
C56 C55 1.407 . S
C56 C57 1.449 . S
C56 C60 1.535 1_455 S
C57 C56 1.449 . S
C57 C58 1.384 . S
C57 C82 1.553 . S
C58 C57 1.384 . S
C58 C59 1.364 . S
C58 C61 1.450 . S
C59 C54 1.367 . S
C59 C58 1.364 . S
C59 H119 0.931 . S
C60 C56 1.535 1_655 S
C60 H120 0.959 . S
C60 H121 0.961 . S
C60 H122 0.959 . S
C61 C58 1.450 . S
C61 H123 0.960 . S
C61 H124 0.960 . S
C61 H125 0.960 . S
C62 C63 1.309 . S
C62 C67 1.304 . S
C62 O100 1.435 . S
C63 C62 1.309 . S
C63 C64 1.476 . S
C63 H127 0.930 1_455 S
C64 C63 1.476 . S
C64 C65 1.400 . S
C64 C68 1.567 1_455 S
C65 C64 1.400 . S
C65 C66 1.373 . S
C65 C87 1.432 . S
C66 C65 1.373 . S
C66 C67 1.339 . S
C66 C69 1.530 . S
C67 C62 1.304 . S
C67 C66 1.339 . S
C67 H128 0.930 . S
C68 C64 1.567 1_655 S
C68 H129 0.961 . S
C68 H130 0.960 . S
C68 H131 0.958 . S
C69 C66 1.530 . S
C69 H132 0.961 . S
C69 H133 0.960 . S
C69 H134 0.960 . S
C70 C71 1.508 1_655 S
C70 H136 0.961 . S
C70 H137 0.961 . S
C70 H138 0.959 . S
C71 C70 1.508 1_455 S
C71 O99 1.407 1_455 S
C71 H135 0.988 . S
C72 C73 1.288 . S
C72 C77 1.377 1_655 S
C72 O99 1.393 . S
C73 C72 1.288 . S
C73 C74 1.369 . S
C73 H139 0.932 . S
C74 C73 1.369 . S
C74 C75 1.398 1_655 S
C74 C78 1.527 . S
C75 C74 1.398 1_455 S
C75 C76 1.380 . S
C75 C89 1.497 . S
C76 C75 1.380 . S
C76 C77 1.383 . S
C76 C79 1.603 . S
C77 C72 1.377 1_455 S
C77 C76 1.383 . S
C77 H140 0.929 . S
C78 C74 1.527 . S
C78 H141 0.961 . S
C78 H142 0.959 . S
C78 H143 0.959 . S
C79 C76 1.603 . S
C79 H144 0.960 . S
C79 H145 0.962 . S
C79 H146 0.961 . S
C80 C47 1.587 . S
C80 C81 1.360 . S
C80 C93 1.412 . S
C81 C80 1.360 . S
C81 C82 1.365 . S
C81 H147 0.929 . S
C82 C57 1.553 . S
C82 C81 1.365 . S
C82 C83 1.404 . S
C83 C82 1.404 . S
C83 C84 1.395 . S
C83 C94 1.451 . S
C84 C83 1.395 . S
C84 C85 1.322 . S
C84 H148 0.930 . S
C85 C84 1.322 . S
C85 C86 1.459 . S
C85 H149 0.929 . S
C86 C85 1.459 . S
C86 C87 1.445 . S
C86 C95 1.395 . S
C87 C65 1.432 . S
C87 C86 1.445 . S
C87 C88 1.370 . S
C88 C87 1.370 . S
C88 C89 1.438 . S
C88 H150 0.930 . S
C89 C75 1.497 . S
C89 C88 1.438 . S
C89 C90 1.360 . S
C90 C89 1.360 . S
C90 C91 1.401 . S
C90 C95 1.446 . S
C91 C90 1.401 . S
C91 C92 1.347 . S
C91 H151 0.929 . S
C92 C91 1.347 . S
C92 C93 1.455 . S
C92 H152 0.930 . S
C93 C80 1.412 . S
C93 C92 1.455 . S
C93 C94 1.331 . S
C94 C83 1.451 . S
C94 C93 1.331 . S
C94 C95 1.497 . S
C95 C86 1.395 . S
C95 C90 1.446 . S
C95 C94 1.497 . S
C96 C97 1.582 . S
C96 H153 0.962 . S
C96 H154 0.959 . S
C96 H155 0.958 . S
C97 C96 1.582 . S
C97 O100 1.458 . S
C97 H126 0.980 . S
O98 C43 1.426 . S
O98 C44 1.334 . S
O99 C71 1.407 1_655 S
O99 C72 1.393 . S
O100 C62 1.435 . S
O100 C97 1.458 . S
O101 C53 1.468 . S
O101 C54 1.408 . S
H102 C43 0.980 1_455 S
H103 C42 0.959 . S
H104 C42 0.959 . S
H105 C42 0.960 . S
H106 C45 0.929 . S
H107 C49 0.929 . S
H108 C50 0.959 . S
H109 C50 0.961 . S
H110 C50 0.961 . S
H111 C51 0.960 . S
H112 C51 0.960 . S
H113 C51 0.961 . S
H114 C53 0.980 . S
H115 C52 0.961 . S
H116 C52 0.960 . S
H117 C52 0.959 . S
H118 C55 0.930 . S
H119 C59 0.931 . S
H120 C60 0.959 . S
H121 C60 0.961 . S
H122 C60 0.959 . S
H123 C61 0.960 . S
H124 C61 0.960 . S
H125 C61 0.960 . S
H126 C97 0.980 . S
H127 C63 0.930 1_655 S
H128 C67 0.930 . S
H129 C68 0.961 . S
H130 C68 0.960 . S
H131 C68 0.958 . S
H132 C69 0.961 . S
H133 C69 0.960 . S
H134 C69 0.960 . S
H135 C71 0.988 . S
H136 C70 0.961 . S
H137 C70 0.961 . S
H138 C70 0.959 . S
H139 C73 0.932 . S
H140 C77 0.929 . S
H141 C78 0.961 . S
H142 C78 0.959 . S
H143 C78 0.959 . S
H144 C79 0.960 . S
H145 C79 0.962 . S
H146 C79 0.961 . S
H147 C81 0.929 . S
H148 C84 0.930 . S
H149 C85 0.929 . S
H150 C88 0.930 . S
H151 C91 0.929 . S
H152 C92 0.930 . S
H153 C96 0.962 . S
H154 C96 0.959 . S
H155 C96 0.958 . S
C156 C157 1.560 1_565 S
C156 H217 0.959 . S
C156 H218 0.959 . S
C156 H219 0.960 . S
C157 C156 1.560 1_545 S
C157 O212 1.426 1_545 S
C157 H216 0.980 . S
C158 C159 1.407 . S
C158 C163 1.418 1_545 S
C158 O212 1.334 1_545 S
C159 C158 1.407 . S
C159 C160 1.360 . S
C159 H220 0.929 . S
C160 C159 1.360 . S
C160 C161 1.401 . S
C160 C164 1.527 . S
C161 C160 1.401 . S
C161 C162 1.405 1_545 S
C161 C194 1.587 . S
C162 C161 1.405 1_565 S
C162 C163 1.332 . S
C162 C165 1.496 . S
C163 C158 1.418 1_565 S
C163 C162 1.332 . S
C163 H221 0.929 . S
C164 C160 1.527 . S
C164 H222 0.959 . S
C164 H223 0.961 . S
C164 H224 0.961 . S
C165 C162 1.496 . S
C165 H225 0.960 . S
C165 H226 0.960 . S
C165 H227 0.961 . S
C166 C167 1.517 . S
C166 H229 0.961 . S
C166 H230 0.960 . S
C166 H231 0.959 . S
C167 C166 1.517 . S
C167 O215 1.468 . S
C167 H228 0.980 . S
C168 C169 1.349 . S
C168 C173 1.367 . S
C168 O215 1.408 . S
C169 C168 1.349 . S
C169 C170 1.407 . S
C169 H232 0.930 . S
C170 C169 1.407 . S
C170 C171 1.449 . S
C170 C174 1.535 1_545 S
C171 C170 1.449 . S
C171 C172 1.384 . S
C171 C196 1.553 . S
C172 C171 1.384 . S
C172 C173 1.364 . S
C172 C175 1.450 . S
C173 C168 1.367 . S
C173 C172 1.364 . S
C173 H233 0.931 . S
C174 C170 1.535 1_565 S
C174 H234 0.959 . S
C174 H235 0.961 . S
C174 H236 0.959 . S
C175 C172 1.450 . S
C175 H237 0.960 . S
C175 H238 0.960 . S
C175 H239 0.960 . S
C176 C177 1.309 . S
C176 C181 1.304 . S
C176 O214 1.435 . S
C177 C176 1.309 . S
C177 C178 1.476 . S
C177 H241 0.930 . S
C178 C177 1.476 . S
C178 C179 1.400 . S
C178 C182 1.567 1_545 S
C179 C178 1.400 . S
C179 C180 1.373 . S
C179 C201 1.432 . S
C180 C179 1.373 . S
C180 C181 1.339 . S
C180 C183 1.530 . S
C181 C176 1.304 . S
C181 C180 1.339 . S
C181 H242 0.930 . S
C182 C178 1.567 1_565 S
C182 H243 0.961 . S
C182 H244 0.960 . S
C182 H245 0.958 . S
C183 C180 1.530 . S
C183 H246 0.961 . S
C183 H247 0.960 . S
C183 H248 0.960 . S
C184 C185 1.530 1_565 S
C184 H250 0.961 1_565 S
C184 H251 0.961 . S
C184 H252 0.959 . S
C185 C184 1.530 1_545 S
C185 O213 1.412 1_545 S
C185 H249 0.980 . S
C186 C187 1.288 1_545 S
C186 C191 1.377 . S
C186 O213 1.393 1_545 S
C187 C186 1.288 1_565 S
C187 C188 1.369 . S
C187 H253 0.932 . S
C188 C187 1.369 . S
C188 C189 1.398 1_565 S
C188 C192 1.527 . S
C189 C188 1.398 1_545 S
C189 C190 1.380 . S
C189 C203 1.497 . S
C190 C189 1.380 . S
C190 C191 1.383 . S
C190 C193 1.603 . S
C191 C186 1.377 . S
C191 C190 1.383 . S
C191 H254 0.929 . S
C192 C188 1.527 . S
C192 H255 0.961 . S
C192 H256 0.959 . S
C192 H257 0.959 . S
C193 C190 1.603 . S
C193 H258 0.960 . S
C193 H259 0.962 . S
C193 H260 0.961 . S
C194 C161 1.587 . S
C194 C195 1.360 . S
C194 C207 1.412 . S
C195 C194 1.360 . S
C195 C196 1.365 . S
C195 H261 0.929 . S
C196 C171 1.553 . S
C196 C195 1.365 . S
C196 C197 1.404 . S
C197 C196 1.404 . S
C197 C198 1.395 . S
C197 C208 1.451 . S
C198 C197 1.395 . S
C198 C199 1.322 . S
C198 H262 0.930 . S
C199 C198 1.322 . S
C199 C200 1.459 . S
C199 H263 0.929 . S
C200 C199 1.459 . S
C200 C201 1.445 . S
C200 C209 1.395 . S
C201 C179 1.432 . S
C201 C200 1.445 . S
C201 C202 1.370 . S
C202 C201 1.370 . S
C202 C203 1.438 . S
C202 H264 0.930 . S
C203 C189 1.497 . S
C203 C202 1.438 . S
C203 C204 1.360 . S
C204 C203 1.360 . S
C204 C205 1.401 . S
C204 C209 1.446 . S
C205 C204 1.401 . S
C205 C206 1.347 . S
C205 H265 0.929 . S
C206 C205 1.347 . S
C206 C207 1.455 . S
C206 H266 0.930 . S
C207 C194 1.412 . S
C207 C206 1.455 . S
C207 C208 1.331 . S
C208 C197 1.451 . S
C208 C207 1.331 . S
C208 C209 1.497 . S
C209 C200 1.395 . S
C209 C204 1.446 . S
C209 C208 1.497 . S
C210 C211 1.582 . S
C210 H267 0.962 . S
C210 H268 0.959 . S
C210 H269 0.958 . S
C211 C210 1.582 . S
C211 O214 1.458 . S
C211 H240 0.980 . S
O212 C157 1.426 1_565 S
O212 C158 1.334 1_565 S
O213 C185 1.412 1_565 S
O213 C186 1.393 1_565 S
O214 C176 1.435 . S
O214 C211 1.458 . S
O215 C167 1.468 . S
O215 C168 1.408 . S
H216 C157 0.980 . S
H217 C156 0.959 . S
H218 C156 0.959 . S
H219 C156 0.960 . S
H220 C159 0.929 . S
H221 C163 0.929 . S
H222 C164 0.959 . S
H223 C164 0.961 . S
H224 C164 0.961 . S
H225 C165 0.960 . S
H226 C165 0.960 . S
H227 C165 0.961 . S
H228 C167 0.980 . S
H229 C166 0.961 . S
H230 C166 0.960 . S
H231 C166 0.959 . S
H232 C169 0.930 . S
H233 C173 0.931 . S
H234 C174 0.959 . S
H235 C174 0.961 . S
H236 C174 0.959 . S
H237 C175 0.960 . S
H238 C175 0.960 . S
H239 C175 0.960 . S
H240 C211 0.980 . S
H241 C177 0.930 . S
H242 C181 0.930 . S
H243 C182 0.961 . S
H244 C182 0.960 . S
H245 C182 0.958 . S
H246 C183 0.961 . S
H247 C183 0.960 . S
H248 C183 0.960 . S
H249 C185 0.980 . S
H250 C184 0.961 1_545 S
H251 C184 0.961 . S
H252 C184 0.959 . S
H253 C187 0.932 . S
H254 C191 0.929 . S
H255 C192 0.961 . S
H256 C192 0.959 . S
H257 C192 0.959 . S
H258 C193 0.960 . S
H259 C193 0.962 . S
H260 C193 0.961 . S
H261 C195 0.929 . S
H262 C198 0.930 . S
H263 C199 0.929 . S
H264 C202 0.930 . S
H265 C205 0.929 . S
H266 C206 0.930 . S
H267 C210 0.962 . S
H268 C210 0.959 . S
H269 C210 0.958 . S
C270 C271 1.560 . S
C270 H331 0.959 . S
C270 H332 0.959 . S
C270 H333 0.960 . S
C271 C270 1.560 . S
C271 O326 1.426 . S
C271 H330 0.980 . S
C272 C273 1.407 . S
C272 C277 1.418 . S
C272 O326 1.334 . S
C273 C272 1.407 . S
C273 C274 1.360 . S
C273 H334 0.929 . S
C274 C273 1.360 . S
C274 C275 1.401 . S
C274 C278 1.527 . S
C275 C274 1.401 . S
C275 C276 1.405 . S
C275 C308 1.587 . S
C276 C275 1.405 . S
C276 C277 1.332 . S
C276 C279 1.496 . S
C277 C272 1.418 . S
C277 C276 1.332 . S
C277 H335 0.929 . S
C278 C274 1.527 . S
C278 H336 0.959 . S
C278 H337 0.961 . S
C278 H338 0.961 . S
C279 C276 1.496 . S
C279 H339 0.960 . S
C279 H340 0.960 . S
C279 H341 0.961 . S
C280 C281 1.517 . S
C280 H343 0.961 . S
C280 H344 0.960 . S
C280 H345 0.959 . S
C281 C280 1.517 . S
C281 O329 1.468 . S
C281 H342 0.980 . S
C282 C283 1.349 . S
C282 C287 1.367 . S
C282 O329 1.408 . S
C283 C282 1.349 . S
C283 C284 1.407 . S
C283 H346 0.930 . S
C284 C283 1.407 . S
C284 C285 1.449 . S
C284 C288 1.535 . S
C285 C284 1.449 . S
C285 C286 1.384 . S
C285 C310 1.553 . S
C286 C285 1.384 . S
C286 C287 1.364 . S
C286 C289 1.450 . S
C287 C282 1.367 . S
C287 C286 1.364 . S
C287 H347 0.931 . S
C288 C284 1.535 . S
C288 H348 0.959 . S
C288 H349 0.961 . S
C288 H350 0.959 . S
C289 C286 1.450 . S
C289 H351 0.960 . S
C289 H352 0.960 . S
C289 H353 0.960 . S
C290 C291 1.309 . S
C290 C295 1.304 . S
C290 O328 1.435 . S
C291 C290 1.309 . S
C291 C292 1.476 . S
C291 H355 0.930 . S
C292 C291 1.476 . S
C292 C293 1.400 . S
C292 C296 1.567 . S
C293 C292 1.400 . S
C293 C294 1.373 . S
C293 C315 1.432 . S
C294 C293 1.373 . S
C294 C295 1.339 . S
C294 C297 1.530 . S
C295 C290 1.304 . S
C295 C294 1.339 . S
C295 H356 0.930 . S
C296 C292 1.567 . S
C296 H357 0.961 . S
C296 H358 0.960 . S
C296 H359 0.958 . S
C297 C294 1.530 . S
C297 H360 0.961 . S
C297 H361 0.960 . S
C297 H362 0.960 . S
C298 C299 1.530 . S
C298 H364 0.961 . S
C298 H365 0.961 . S
C298 H366 0.959 . S
C299 C298 1.530 . S
C299 O327 1.412 . S
C299 H363 0.980 . S
C300 C301 1.288 . S
C300 C305 1.377 . S
C300 O327 1.393 . S
C301 C300 1.288 . S
C301 C302 1.369 . S
C301 H367 0.932 . S
C302 C301 1.369 . S
C302 C303 1.398 . S
C302 C306 1.527 . S
C303 C302 1.398 . S
C303 C304 1.380 . S
C303 C317 1.497 . S
C304 C303 1.380 . S
C304 C305 1.383 . S
C304 C307 1.603 . S
C305 C300 1.377 . S
C305 C304 1.383 . S
C305 H368 0.929 . S
C306 C302 1.527 . S
C306 H369 0.961 . S
C306 H370 0.959 . S
C306 H371 0.959 . S
C307 C304 1.603 . S
C307 H372 0.960 . S
C307 H373 0.962 . S
C307 H374 0.961 . S
C308 C275 1.587 . S
C308 C309 1.360 . S
C308 C321 1.412 . S
C309 C308 1.360 . S
C309 C310 1.365 . S
C309 H375 0.929 . S
C310 C285 1.553 . S
C310 C309 1.365 . S
C310 C311 1.404 . S
C311 C310 1.404 . S
C311 C312 1.395 . S
C311 C322 1.451 . S
C312 C311 1.395 . S
C312 C313 1.322 . S
C312 H376 0.930 . S
C313 C312 1.322 . S
C313 C314 1.459 . S
C313 H377 0.929 . S
C314 C313 1.459 . S
C314 C315 1.445 . S
C314 C323 1.395 . S
C315 C293 1.432 . S
C315 C314 1.445 . S
C315 C316 1.370 . S
C316 C315 1.370 . S
C316 C317 1.438 . S
C316 H378 0.930 . S
C317 C303 1.497 . S
C317 C316 1.438 . S
C317 C318 1.360 . S
C318 C317 1.360 . S
C318 C319 1.401 . S
C318 C323 1.446 . S
C319 C318 1.401 . S
C319 C320 1.347 . S
C319 H379 0.929 . S
C320 C319 1.347 . S
C320 C321 1.455 . S
C320 H380 0.930 . S
C321 C308 1.412 . S
C321 C320 1.455 . S
C321 C322 1.331 . S
C322 C311 1.451 . S
C322 C321 1.331 . S
C322 C323 1.497 . S
C323 C314 1.395 . S
C323 C318 1.446 . S
C323 C322 1.497 . S
C324 C325 1.582 . S
C324 H381 0.962 . S
C324 H382 0.959 . S
C324 H383 0.958 . S
C325 C324 1.582 . S
C325 O328 1.458 . S
C325 H354 0.980 . S
O326 C271 1.426 . S
O326 C272 1.334 . S
O327 C299 1.412 . S
O327 C300 1.393 . S
O328 C290 1.435 . S
O328 C325 1.458 . S
O329 C281 1.468 . S
O329 C282 1.408 . S
H330 C271 0.980 . S
H331 C270 0.959 . S
H332 C270 0.959 . S
H333 C270 0.960 . S
H334 C273 0.929 . S
H335 C277 0.929 . S
H336 C278 0.959 . S
H337 C278 0.961 . S
H338 C278 0.961 . S
H339 C279 0.960 . S
H340 C279 0.960 . S
H341 C279 0.961 . S
H342 C281 0.980 . S
H343 C280 0.961 . S
H344 C280 0.960 . S
H345 C280 0.959 . S
H346 C283 0.930 . S
H347 C287 0.931 . S
H348 C288 0.959 . S
H349 C288 0.961 . S
H350 C288 0.959 . S
H351 C289 0.960 . S
H352 C289 0.960 . S
H353 C289 0.960 . S
H354 C325 0.980 . S
H355 C291 0.930 . S
H356 C295 0.930 . S
H357 C296 0.961 . S
H358 C296 0.960 . S
H359 C296 0.958 . S
H360 C297 0.961 . S
H361 C297 0.960 . S
H362 C297 0.960 . S
H363 C299 0.980 . S
H364 C298 0.961 . S
H365 C298 0.961 . S
H366 C298 0.959 . S
H367 C301 0.932 . S
H368 C305 0.929 . S
H369 C306 0.961 . S
H370 C306 0.959 . S
H371 C306 0.959 . S
H372 C307 0.960 . S
H373 C307 0.962 . S
H374 C307 0.961 . S
H375 C309 0.929 . S
H376 C312 0.930 . S
H377 C313 0.929 . S
H378 C316 0.930 . S
H379 C319 0.929 . S
H380 C320 0.930 . S
H381 C324 0.962 . S
H382 C324 0.959 . S
H383 C324 0.958 . S
H384 C402 0.951 . S
H385 C404 0.951 . S
H386 C406 0.950 . S
H387 C407 0.950 . S
H388 C409 0.950 . S
H389 C412 0.950 . S
H390 C413 0.950 . S
H391 C415 0.950 . S
H392 C416 0.950 . S
H393 C417 0.951 . S
H394 C419 0.951 . S
H395 C421 0.950 . S
H396 C422 0.950 . S
H397 C424 0.950 . S
H398 C427 0.950 . S
H399 C428 0.950 . S
H400 C430 0.950 . S
H401 C431 0.950 . S
C402 H384 0.951 . S
C402 C403 1.366 . S
C402 C404 1.388 . S
C403 C402 1.366 . S
C403 C407 1.385 1_455 S
C404 H385 0.951 . S
C404 C402 1.388 . S
C404 C405 1.366 . S
C405 C404 1.366 . S
C405 C406 1.414 1_455 S
C405 C408 1.499 . S
C406 H386 0.950 . S
C406 C405 1.414 1_655 S
C406 C407 1.374 . S
C407 H387 0.950 . S
C407 C403 1.385 1_655 S
C407 C406 1.374 . S
C408 C405 1.499 . S
C408 C409 1.373 1_455 S
C408 C410 1.389 . S
C409 H388 0.950 . S
C409 C408 1.373 1_655 S
C409 C425 1.377 . S
C410 C408 1.389 . S
C410 C411 1.524 . S
C410 C424 1.377 . S
C411 C410 1.524 . S
C411 C412 1.397 . S
C411 C416 1.363 . S
C412 H389 0.950 . S
C412 C411 1.397 . S
C412 C413 1.334 . S
C413 H390 0.950 . S
C413 C412 1.334 . S
C413 C414 1.287 . S
C414 C413 1.287 . S
C414 C415 1.524 . S
C414 H433 0.913 . S
C415 H391 0.950 . S
C415 C414 1.524 . S
C415 C416 1.415 . S
C416 H392 0.950 . S
C416 C411 1.363 . S
C416 C415 1.415 . S
C417 H393 0.951 . S
C417 C418 1.366 1_655 S
C417 C419 1.388 . S
C418 C417 1.366 1_455 S
C418 C422 1.385 . S
C419 H394 0.951 . S
C419 C417 1.388 . S
C419 C420 1.359 1_655 S
C420 C419 1.359 1_455 S
C420 C421 1.411 . S
C420 C423 1.510 . S
C421 H395 0.950 . S
C421 C420 1.411 . S
C421 C422 1.374 . S
C422 H396 0.950 . S
C422 C418 1.385 . S
C422 C421 1.374 . S
C423 C420 1.510 . S
C423 C424 1.373 . S
C423 C425 1.389 1_455 S
C424 H397 0.950 . S
C424 C410 1.377 . S
C424 C423 1.373 . S
C425 C409 1.377 . S
C425 C423 1.389 1_655 S
C425 C426 1.524 . S
C426 C425 1.524 . S
C426 C427 1.397 . S
C426 C431 1.363 . S
C427 H398 0.950 . S
C427 C426 1.397 . S
C427 C428 1.334 . S
C428 H399 0.950 . S
C428 C427 1.334 . S
C428 C429 1.287 . S
C429 C428 1.287 . S
C429 C430 1.524 . S
C429 H432 0.999 . S
C430 H400 0.950 . S
C430 C429 1.524 . S
C430 C431 1.415 . S
C431 H401 0.950 . S
C431 C426 1.363 . S
C431 C430 1.415 . S
H432 C429 0.999 . S
H433 C414 0.913 . S
H434 C452 0.939 1_565 S
H435 C454 0.951 1_565 S
H436 C456 0.950 . S
H437 C457 0.950 . S
H438 C459 0.950 . S
H439 C462 0.950 . S
H440 C463 0.950 . S
H441 C465 0.950 . S
H442 C466 0.950 . S
H443 C467 0.951 . S
H444 C469 0.951 . S
H445 C471 0.950 1_565 S
H446 C472 0.950 1_565 S
H447 C474 0.950 . S
H448 C477 0.950 . S
H449 C478 0.950 . S
H450 C480 0.950 . S
H451 C481 0.950 . S
C452 H434 0.939 1_545 S
C452 C453 1.366 . S
C452 C454 1.388 . S
C453 C452 1.366 . S
C453 C457 1.385 . S
C454 H435 0.951 1_545 S
C454 C452 1.388 . S
C454 C455 1.366 . S
C455 C454 1.366 . S
C455 C456 1.414 . S
C455 C458 1.499 . S
C456 H436 0.950 . S
C456 C455 1.414 . S
C456 C457 1.374 . S
C457 H437 0.950 . S
C457 C453 1.385 . S
C457 C456 1.374 . S
C458 C455 1.499 . S
C458 C459 1.373 . S
C458 C460 1.389 1_545 S
C459 H438 0.950 . S
C459 C458 1.373 . S
C459 C475 1.377 . S
C460 C458 1.389 1_565 S
C460 C461 1.524 . S
C460 C474 1.377 . S
C461 C460 1.524 . S
C461 C462 1.397 . S
C461 C466 1.363 . S
C462 H439 0.950 . S
C462 C461 1.397 . S
C462 C463 1.334 . S
C463 H440 0.950 . S
C463 C462 1.334 . S
C463 C464 1.287 . S
C464 C463 1.287 . S
C464 C465 1.524 . S
C464 H483 0.913 . S
C465 H441 0.950 . S
C465 C464 1.524 . S
C465 C466 1.415 . S
C466 H442 0.950 . S
C466 C461 1.363 . S
C466 C465 1.415 . S
C467 H443 0.951 . S
C467 C468 1.366 . S
C467 C469 1.388 . S
C468 C467 1.366 . S
C468 C472 1.385 . S
C469 H444 0.951 . S
C469 C467 1.388 . S
C469 C470 1.366 . S
C470 C469 1.366 . S
C470 C471 1.414 . S
C470 C473 1.499 . S
C471 H445 0.950 1_545 S
C471 C470 1.414 . S
C471 C472 1.374 . S
C472 H446 0.950 1_545 S
C472 C468 1.385 . S
C472 C471 1.374 . S
C473 C470 1.499 . S
C473 C474 1.373 1_545 S
C473 C475 1.389 . S
C474 H447 0.950 . S
C474 C460 1.377 . S
C474 C473 1.373 1_565 S
C475 C459 1.377 . S
C475 C473 1.389 . S
C475 C476 1.524 . S
C476 C475 1.524 . S
C476 C477 1.397 . S
C476 C481 1.363 . S
C477 H448 0.950 . S
C477 C476 1.397 . S
C477 C478 1.334 . S
C478 H449 0.950 . S
C478 C477 1.334 . S
C478 C479 1.287 . S
C479 C478 1.287 . S
C479 C480 1.524 . S
C479 H482 0.999 . S
C480 H450 0.950 . S
C480 C479 1.524 . S
C480 C481 1.415 . S
C481 H451 0.950 . S
C481 C476 1.363 . S
C481 C480 1.415 . S
H482 C479 0.999 . S
H483 C464 0.913 . S
H484 C502 0.951 . S
H485 C504 0.951 . S
H486 C506 0.950 . S
H487 C507 0.950 . S
H488 C509 0.950 . S
H489 C512 0.950 . S
H490 C513 0.950 . S
H491 C515 0.950 . S
H492 C516 0.950 . S
H493 C517 0.951 . S
H494 C519 0.951 . S
H495 C521 0.950 . S
H496 C522 0.950 . S
H497 C524 0.950 . S
H498 C527 0.950 . S
H499 C528 0.950 . S
H500 C530 0.950 . S
H501 C531 0.950 . S
C502 H484 0.951 . S
C502 C503 1.366 . S
C502 C504 1.388 . S
C503 C502 1.366 . S
C503 C507 1.385 . S
C504 H485 0.951 . S
C504 C502 1.388 . S
C504 C505 1.366 . S
C505 C504 1.366 . S
C505 C506 1.414 . S
C505 C508 1.499 . S
C506 H486 0.950 . S
C506 C505 1.414 . S
C506 C507 1.374 . S
C507 H487 0.950 . S
C507 C503 1.385 . S
C507 C506 1.374 . S
C508 C505 1.499 . S
C508 C509 1.373 . S
C508 C510 1.389 . S
C509 H488 0.950 . S
C509 C508 1.373 . S
C509 C525 1.377 . S
C510 C508 1.389 . S
C510 C511 1.524 . S
C510 C524 1.377 . S
C511 C510 1.524 . S
C511 C512 1.397 . S
C511 C516 1.363 . S
C512 H489 0.950 . S
C512 C511 1.397 . S
C512 C513 1.334 . S
C513 H490 0.950 . S
C513 C512 1.334 . S
C513 C514 1.287 . S
C514 C513 1.287 . S
C514 C515 1.524 . S
C514 H533 0.913 . S
C515 H491 0.950 . S
C515 C514 1.524 . S
C515 C516 1.415 . S
C516 H492 0.950 . S
C516 C511 1.363 . S
C516 C515 1.415 . S
C517 H493 0.951 . S
C517 C518 1.366 . S
C517 C519 1.388 . S
C518 C517 1.366 . S
C518 C522 1.385 . S
C519 H494 0.951 . S
C519 C517 1.388 . S
C519 C520 1.366 . S
C520 C519 1.366 . S
C520 C521 1.414 . S
C520 C523 1.499 . S
C521 H495 0.950 . S
C521 C520 1.414 . S
C521 C522 1.374 . S
C522 H496 0.950 . S
C522 C518 1.385 . S
C522 C521 1.374 . S
C523 C520 1.499 . S
C523 C524 1.373 . S
C523 C525 1.389 . S
C524 H497 0.950 . S
C524 C510 1.377 . S
C524 C523 1.373 . S
C525 C509 1.377 . S
C525 C523 1.389 . S
C525 C526 1.524 . S
C526 C525 1.524 . S
C526 C527 1.397 . S
C526 C531 1.363 . S
C527 H498 0.950 . S
C527 C526 1.397 . S
C527 C528 1.334 . S
C528 H499 0.950 . S
C528 C527 1.334 . S
C528 C529 1.287 . S
C529 C528 1.287 . S
C529 C530 1.524 . S
C529 H532 0.999 . S
C530 H500 0.950 . S
C530 C529 1.524 . S
C530 C531 1.415 . S
C531 H501 0.950 . S
C531 C526 1.363 . S
C531 C530 1.415 . S
H532 C529 0.999 . S
H533 C514 0.913 . S
H534 C552 0.951 . S
H535 C554 0.951 . S
H536 C556 0.950 . S
H537 C557 0.950 . S
H538 C559 0.950 . S
H539 C562 0.950 1_655 S
H540 C563 0.950 1_655 S
H541 C565 0.950 . S
H542 C566 0.950 . S
H543 C567 0.951 . S
H544 C569 0.951 . S
H545 C571 0.950 . S
H546 C572 0.950 . S
H547 C574 0.950 . S
H548 C577 0.950 . S
H549 C578 0.950 . S
H550 C580 0.950 . S
H551 C581 0.950 . S
C552 H534 0.951 . S
C552 C553 1.366 . S
C552 C554 1.388 . S
C553 C552 1.366 . S
C553 C557 1.385 1_455 S
C554 H535 0.951 . S
C554 C552 1.388 . S
C554 C555 1.366 . S
C555 C554 1.366 . S
C555 C556 1.414 1_455 S
C555 C558 1.499 . S
C556 H536 0.950 . S
C556 C555 1.414 1_655 S
C556 C557 1.374 . S
C557 H537 0.950 . S
C557 C553 1.385 1_655 S
C557 C556 1.374 . S
C558 C555 1.499 . S
C558 C559 1.373 1_455 S
C558 C560 1.389 . S
C559 H538 0.950 . S
C559 C558 1.373 1_655 S
C559 C575 1.381 . S
C560 C558 1.389 . S
C560 C561 1.524 . S
C560 C574 1.377 . S
C561 C560 1.524 . S
C561 C562 1.397 . S
C561 C566 1.363 . S
C562 H539 0.950 1_455 S
C562 C561 1.397 . S
C562 C563 1.334 . S
C563 H540 0.950 1_455 S
C563 C562 1.334 . S
C563 C564 1.287 . S
C564 C563 1.287 . S
C564 C565 1.524 . S
C564 H583 0.913 . S
C565 H541 0.950 . S
C565 C564 1.524 . S
C565 C566 1.415 . S
C566 H542 0.950 . S
C566 C561 1.363 . S
C566 C565 1.415 . S
C567 H543 0.951 . S
C567 C568 1.366 1_655 S
C567 C569 1.388 . S
C568 C567 1.366 1_455 S
C568 C572 1.385 . S
C569 H544 0.951 . S
C569 C567 1.388 . S
C569 C570 1.366 1_655 S
C570 C569 1.366 1_455 S
C570 C571 1.414 . S
C570 C573 1.499 . S
C571 H545 0.950 . S
C571 C570 1.414 . S
C571 C572 1.374 . S
C572 H546 0.950 . S
C572 C568 1.385 . S
C572 C571 1.374 . S
C573 C570 1.499 . S
C573 C574 1.373 . S
C573 C575 1.382 1_455 S
C574 H547 0.950 . S
C574 C560 1.377 . S
C574 C573 1.373 . S
C575 C559 1.381 . S
C575 C573 1.382 1_655 S
C575 C576 1.528 . S
C576 C575 1.528 . S
C576 C577 1.397 1_655 S
C576 C581 1.363 . S
C577 H548 0.950 . S
C577 C576 1.397 1_455 S
C577 C578 1.334 . S
C578 H549 0.950 . S
C578 C577 1.334 . S
C578 C579 1.287 1_455 S
C579 C578 1.287 1_655 S
C579 C580 1.524 . S
C579 H582 0.999 . S
C580 H550 0.950 . S
C580 C579 1.524 . S
C580 C581 1.415 . S
C581 H551 0.950 . S
C581 C576 1.363 . S
C581 C580 1.415 . S
H582 C579 0.999 . S
H583 C564 0.913 . S
H584 C602 0.951 1_565 S
H585 C604 0.951 1_565 S
H586 C606 0.950 . S
H587 C607 0.950 . S
H588 C609 0.950 . S
H589 C612 0.950 . S
H590 C613 0.950 . S
H591 C615 0.950 . S
H592 C616 0.950 . S
H593 C617 0.951 . S
H594 C619 0.951 . S
H595 C621 0.950 1_565 S
H596 C622 0.950 . S
H597 C624 0.950 . S
H598 C627 0.950 . S
H599 C628 0.950 . S
H600 C630 0.950 . S
H601 C631 0.950 . S
C602 H584 0.951 1_545 S
C602 C603 1.366 . S
C602 C604 1.388 . S
C603 C602 1.366 . S
C603 C607 1.385 . S
C604 H585 0.951 1_545 S
C604 C602 1.388 . S
C604 C605 1.366 . S
C605 C604 1.366 . S
C605 C606 1.414 . S
C605 C608 1.499 . S
C606 H586 0.950 . S
C606 C605 1.414 . S
C606 C607 1.374 . S
C607 H587 0.950 . S
C607 C603 1.385 . S
C607 C606 1.374 . S
C608 C605 1.499 . S
C608 C609 1.373 . S
C608 C610 1.389 . S
C609 H588 0.950 . S
C609 C608 1.373 . S
C609 C625 1.377 . S
C610 C608 1.389 . S
C610 C611 1.524 . S
C610 C624 1.377 . S
C611 C610 1.524 . S
C611 C612 1.397 . S
C611 C616 1.363 . S
C612 H589 0.950 . S
C612 C611 1.397 . S
C612 C613 1.334 . S
C613 H590 0.950 . S
C613 C612 1.334 . S
C613 C614 1.287 . S
C614 C613 1.287 . S
C614 C615 1.524 . S
C614 H633 0.913 . S
C615 H591 0.950 . S
C615 C614 1.524 . S
C615 C616 1.415 . S
C616 H592 0.950 . S
C616 C611 1.363 . S
C616 C615 1.415 . S
C617 H593 0.951 . S
C617 C618 1.366 . S
C617 C619 1.388 . S
C618 C617 1.366 . S
C618 C622 1.385 . S
C619 H594 0.951 . S
C619 C617 1.388 . S
C619 C620 1.366 . S
C620 C619 1.366 . S
C620 C621 1.414 . S
C620 C623 1.499 . S
C621 H595 0.950 1_545 S
C621 C620 1.414 . S
C621 C622 1.374 . S
C622 H596 0.950 . S
C622 C618 1.385 . S
C622 C621 1.374 . S
C623 C620 1.499 . S
C623 C624 1.373 . S
C623 C625 1.389 . S
C624 H597 0.950 . S
C624 C610 1.377 . S
C624 C623 1.373 . S
C625 C609 1.377 . S
C625 C623 1.389 . S
C625 C626 1.524 . S
C626 C625 1.524 . S
C626 C627 1.397 1_545 S
C626 C631 1.363 . S
C627 H598 0.950 . S
C627 C626 1.397 1_565 S
C627 C628 1.334 . S
C628 H599 0.950 . S
C628 C627 1.334 . S
C628 C629 1.287 . S
C629 C628 1.287 . S
C629 C630 1.524 1_565 S
C629 H632 0.999 . S
C630 H600 0.950 . S
C630 C629 1.524 1_545 S
C630 C631 1.415 . S
C631 H601 0.950 . S
C631 C626 1.363 . S
C631 C630 1.415 . S
H632 C629 0.999 . S
H633 C614 0.913 . S
H634 C652 0.951 . S
H635 C654 0.951 . S
H636 C656 0.950 . S
H637 C657 0.950 . S
H638 C659 0.950 . S
H639 C662 0.950 . S
H640 C663 0.950 . S
H641 C665 0.950 . S
H642 C666 0.950 . S
H643 C667 0.951 . S
H644 C669 0.951 . S
H645 C671 0.950 . S
H646 C672 0.950 . S
H647 C674 0.950 . S
H648 C677 0.950 . S
H649 C678 0.950 . S
H650 C680 0.950 . S
H651 C681 0.950 . S
C652 H634 0.951 . S
C652 C653 1.366 . S
C652 C654 1.388 . S
C653 C652 1.366 . S
C653 C657 1.385 . S
C654 H635 0.951 . S
C654 C652 1.388 . S
C654 C655 1.366 . S
C655 C654 1.366 . S
C655 C656 1.414 . S
C655 C658 1.499 . S
C656 H636 0.950 . S
C656 C655 1.414 . S
C656 C657 1.374 . S
C657 H637 0.950 . S
C657 C653 1.385 . S
C657 C656 1.374 . S
C658 C655 1.499 . S
C658 C659 1.373 . S
C658 C660 1.389 . S
C659 H638 0.950 . S
C659 C658 1.373 . S
C659 C675 1.377 . S
C660 C658 1.389 . S
C660 C661 1.524 . S
C660 C674 1.377 . S
C661 C660 1.524 . S
C661 C662 1.397 . S
C661 C666 1.363 . S
C662 H639 0.950 . S
C662 C661 1.397 . S
C662 C663 1.334 . S
C663 H640 0.950 . S
C663 C662 1.334 . S
C663 C664 1.287 . S
C664 C663 1.287 . S
C664 C665 1.524 . S
C664 H683 0.913 . S
C665 H641 0.950 . S
C665 C664 1.524 . S
C665 C666 1.415 . S
C666 H642 0.950 . S
C666 C661 1.363 . S
C666 C665 1.415 . S
C667 H643 0.951 . S
C667 C668 1.366 . S
C667 C669 1.388 . S
C668 C667 1.366 . S
C668 C672 1.385 . S
C669 H644 0.951 . S
C669 C667 1.388 . S
C669 C670 1.366 . S
C670 C669 1.366 . S
C670 C671 1.414 . S
C670 C673 1.499 . S
C671 H645 0.950 . S
C671 C670 1.414 . S
C671 C672 1.374 . S
C672 H646 0.950 . S
C672 C668 1.385 . S
C672 C671 1.374 . S
C673 C670 1.499 . S
C673 C674 1.373 . S
C673 C675 1.389 . S
C674 H647 0.950 . S
C674 C660 1.377 . S
C674 C673 1.373 . S
C675 C659 1.377 . S
C675 C673 1.389 . S
C675 C676 1.524 . S
C676 C675 1.524 . S
C676 C677 1.397 . S
C676 C681 1.363 . S
C677 H648 0.950 . S
C677 C676 1.397 . S
C677 C678 1.334 . S
C678 H649 0.950 . S
C678 C677 1.334 . S
C678 C679 1.287 . S
C679 C678 1.287 . S
C679 C680 1.524 . S
C679 H682 0.999 . S
C680 H650 0.950 . S
C680 C679 1.524 . S
C680 C681 1.415 . S
C681 H651 0.950 . S
C681 C676 1.363 . S
C681 C680 1.415 . S
H682 C679 0.999 . S
H683 C664 0.913 . S
H684 C702 0.951 . S
H685 C704 0.952 . S
H686 C706 0.950 . S
H687 C707 0.950 . S
H688 C709 0.950 . S
H689 C712 0.950 . S
H690 C713 0.950 1_455 S
H691 C715 0.950 . S
H692 C716 0.950 . S
H693 C717 0.951 . S
H694 C719 0.951 . S
H695 C721 0.950 1_565 S
H696 C722 0.950 1_565 S
H697 C724 0.950 . S
H698 C727 0.950 . S
H699 C728 0.950 . S
H700 C730 0.950 . S
H701 C731 0.950 . S
C702 H684 0.951 . S
C702 C703 1.366 1_565 S
C702 C704 1.389 . S
C703 C702 1.366 1_545 S
C703 C707 1.385 . S
C704 H685 0.952 . S
C704 C702 1.389 . S
C704 C705 1.362 1_565 S
C705 C704 1.362 1_545 S
C705 C706 1.414 . S
C705 C708 1.499 . S
C706 H686 0.950 . S
C706 C705 1.414 . S
C706 C707 1.374 . S
C707 H687 0.950 . S
C707 C703 1.385 . S
C707 C706 1.374 . S
C708 C705 1.499 . S
C708 C709 1.373 . S
C708 C710 1.389 . S
C709 H688 0.950 . S
C709 C708 1.373 . S
C709 C725 1.377 . S
C710 C708 1.389 . S
C710 C711 1.524 . S
C710 C724 1.377 . S
C711 C710 1.524 . S
C711 C712 1.397 . S
C711 C716 1.363 . S
C712 H689 0.950 . S
C712 C711 1.397 . S
C712 C713 1.334 . S
C713 H690 0.950 1_655 S
C713 C712 1.334 . S
C713 C714 1.287 . S
C714 C713 1.287 . S
C714 C715 1.524 . S
C714 H733 0.913 1_655 S
C715 H691 0.950 . S
C715 C714 1.524 . S
C715 C716 1.415 . S
C716 H692 0.950 . S
C716 C711 1.363 . S
C716 C715 1.415 . S
C717 H693 0.951 . S
C717 C718 1.366 . S
C717 C719 1.388 . S
C718 C717 1.366 . S
C718 C722 1.385 . S
C719 H694 0.951 . S
C719 C717 1.388 . S
C719 C720 1.366 . S
C720 C719 1.366 . S
C720 C721 1.414 . S
C720 C723 1.499 . S
C721 H695 0.950 1_545 S
C721 C720 1.414 . S
C721 C722 1.374 . S
C722 H696 0.950 1_545 S
C722 C718 1.385 . S
C722 C721 1.374 . S
C723 C720 1.499 . S
C723 C724 1.373 . S
C723 C725 1.389 . S
C724 H697 0.950 . S
C724 C710 1.377 . S
C724 C723 1.373 . S
C725 C709 1.377 . S
C725 C723 1.389 . S
C725 C726 1.524 . S
C726 C725 1.524 . S
C726 C727 1.397 1_545 S
C726 C731 1.363 . S
C727 H698 0.950 . S
C727 C726 1.397 1_565 S
C727 C728 1.334 . S
C728 H699 0.950 . S
C728 C727 1.334 . S
C728 C729 1.287 . S
C729 C728 1.287 . S
C729 C730 1.524 1_565 S
C729 H732 0.999 . S
C730 H700 0.950 . S
C730 C729 1.524 1_545 S
C730 C731 1.415 . S
C731 H701 0.950 . S
C731 C726 1.363 . S
C731 C730 1.415 . S
H732 C729 0.999 . S
H733 C714 0.913 1_455 S
H734 C752 0.951 . S
H735 C754 0.951 . S
H736 C756 0.950 . S
H737 C757 0.950 . S
H738 C759 0.950 . S
H739 C762 0.950 . S
H740 C763 0.950 . S
H741 C765 0.950 . S
H742 C766 0.950 . S
H743 C767 0.951 . S
H744 C769 0.951 . S
H745 C771 0.955 . S
H746 C772 0.950 . S
H747 C774 0.950 . S
H748 C777 0.950 . S
H749 C778 0.950 . S
H750 C780 0.950 . S
H751 C781 0.950 . S
C752 H734 0.951 . S
C752 C753 1.366 . S
C752 C754 1.388 . S
C753 C752 1.366 . S
C753 C757 1.385 . S
C754 H735 0.951 . S
C754 C752 1.388 . S
C754 C755 1.366 . S
C755 C754 1.366 . S
C755 C756 1.414 . S
C755 C758 1.499 . S
C756 H736 0.950 . S
C756 C755 1.414 . S
C756 C757 1.374 . S
C757 H737 0.950 . S
C757 C753 1.385 . S
C757 C756 1.374 . S
C758 C755 1.499 . S
C758 C759 1.373 . S
C758 C760 1.389 . S
C759 H738 0.950 . S
C759 C758 1.373 . S
C759 C775 1.377 . S
C760 C758 1.389 . S
C760 C761 1.524 . S
C760 C774 1.377 . S
C761 C760 1.524 . S
C761 C762 1.397 . S
C761 C766 1.363 . S
C762 H739 0.950 . S
C762 C761 1.397 . S
C762 C763 1.334 . S
C763 H740 0.950 . S
C763 C762 1.334 . S
C763 C764 1.287 . S
C764 C763 1.287 . S
C764 C765 1.524 . S
C764 H783 0.913 . S
C765 H741 0.950 . S
C765 C764 1.524 . S
C765 C766 1.415 . S
C766 H742 0.950 . S
C766 C761 1.363 . S
C766 C765 1.415 . S
C767 H743 0.951 . S
C767 C768 1.366 . S
C767 C769 1.388 . S
C768 C767 1.366 . S
C768 C772 1.385 . S
C769 H744 0.951 . S
C769 C767 1.388 . S
C769 C770 1.366 . S
C770 C769 1.366 . S
C770 C771 1.414 . S
C770 C773 1.499 1_556 S
C771 H745 0.955 . S
C771 C770 1.414 . S
C771 C772 1.374 . S
C772 H746 0.950 . S
C772 C768 1.385 . S
C772 C771 1.374 . S
C773 C770 1.499 1_554 S
C773 C774 1.373 . S
C773 C775 1.389 . S
C774 H747 0.950 . S
C774 C760 1.377 . S
C774 C773 1.373 . S
C775 C759 1.377 . S
C775 C773 1.389 . S
C775 C776 1.524 1_554 S
C776 C775 1.524 1_556 S
C776 C777 1.397 . S
C776 C781 1.363 . S
C777 H748 0.950 . S
C777 C776 1.397 . S
C777 C778 1.334 . S
C778 H749 0.950 . S
C778 C777 1.334 . S
C778 C779 1.287 . S
C779 C778 1.287 . S
C779 C780 1.524 . S
C779 H782 0.999 . S
C780 H750 0.950 . S
C780 C779 1.524 . S
C780 C781 1.415 . S
C781 H751 0.950 . S
C781 C776 1.363 . S
C781 C780 1.415 . S
H782 C779 0.999 . S
H783 C764 0.913 . S
H784 C802 0.951 . S
H785 C804 0.951 . S
H786 C806 0.950 . S
H787 C807 0.950 . S
H788 C809 0.950 . S
H789 C812 0.950 . S
H790 C813 0.950 . S
H791 C815 0.950 . S
H792 C816 0.950 . S
H793 C817 0.951 . S
H794 C819 0.951 . S
H795 C821 0.950 . S
H796 C822 0.950 . S
H797 C824 0.950 . S
H798 C827 0.950 . S
H799 C828 0.950 . S
H800 C830 0.950 . S
H801 C831 0.950 . S
C802 H784 0.951 . S
C802 C803 1.366 1_655 S
C802 C804 1.388 . S
C803 C802 1.366 1_455 S
C803 C807 1.385 . S
C804 H785 0.951 . S
C804 C802 1.388 . S
C804 C805 1.366 1_655 S
C805 C804 1.366 1_455 S
C805 C806 1.414 . S
C805 C808 1.499 . S
C806 H786 0.950 . S
C806 C805 1.414 . S
C806 C807 1.374 . S
C807 H787 0.950 . S
C807 C803 1.385 . S
C807 C806 1.374 . S
C808 C805 1.499 . S
C808 C809 1.373 . S
C808 C810 1.389 1_455 S
C809 H788 0.950 . S
C809 C808 1.373 . S
C809 C825 1.377 . S
C810 C808 1.389 1_655 S
C810 C811 1.524 . S
C810 C824 1.377 . S
C811 C810 1.524 . S
C811 C812 1.397 . S
C811 C816 1.363 . S
C812 H789 0.950 . S
C812 C811 1.397 . S
C812 C813 1.334 . S
C813 H790 0.950 . S
C813 C812 1.334 . S
C813 C814 1.287 . S
C814 C813 1.287 . S
C814 C815 1.524 . S
C814 H833 0.913 . S
C815 H791 0.950 . S
C815 C814 1.524 . S
C815 C816 1.415 . S
C816 H792 0.950 . S
C816 C811 1.363 . S
C816 C815 1.415 . S
C817 H793 0.951 . S
C817 C818 1.366 . S
C817 C819 1.388 . S
C818 C817 1.366 . S
C818 C822 1.385 1_455 S
C819 H794 0.951 . S
C819 C817 1.388 . S
C819 C820 1.366 . S
C820 C819 1.366 . S
C820 C821 1.414 1_455 S
C820 C823 1.499 . S
C821 H795 0.950 . S
C821 C820 1.414 1_655 S
C821 C822 1.374 . S
C822 H796 0.950 . S
C822 C818 1.385 1_655 S
C822 C821 1.374 . S
C823 C820 1.499 . S
C823 C824 1.373 1_455 S
C823 C825 1.389 . S
C824 H797 0.950 . S
C824 C810 1.377 . S
C824 C823 1.373 1_655 S
C825 C809 1.377 . S
C825 C823 1.389 . S
C825 C826 1.524 . S
C826 C825 1.524 . S
C826 C827 1.397 . S
C826 C831 1.363 . S
C827 H798 0.950 . S
C827 C826 1.397 . S
C827 C828 1.334 . S
C828 H799 0.950 . S
C828 C827 1.334 . S
C828 C829 1.287 . S
C829 C828 1.287 . S
C829 C830 1.524 . S
C829 H832 0.999 . S
C830 H800 0.950 . S
C830 C829 1.524 . S
C830 C831 1.415 . S
C831 H801 0.950 . S
C831 C826 1.363 . S
C831 C830 1.415 . S
H832 C829 0.999 . S
H833 C814 0.913 . S
H834 C852 0.951 . S
H835 C854 0.951 . S
H836 C856 0.950 . S
H837 C857 0.950 . S
H838 C859 0.950 . S
H839 C862 0.950 . S
H840 C863 0.950 . S
H841 C865 0.950 . S
H842 C866 0.950 . S
H843 C867 0.951 . S
H844 C869 0.951 . S
H845 C871 0.950 . S
H846 C872 0.950 . S
H847 C874 0.950 1_565 S
H848 C877 0.950 . S
H849 C878 0.950 . S
H850 C880 0.950 . S
H851 C881 0.950 . S
C852 H834 0.951 . S
C852 C853 1.366 . S
C852 C854 1.388 . S
C853 C852 1.366 . S
C853 C857 1.385 . S
C854 H835 0.951 . S
C854 C852 1.388 . S
C854 C855 1.366 . S
C855 C854 1.366 . S
C855 C856 1.414 . S
C855 C858 1.499 . S
C856 H836 0.950 . S
C856 C855 1.414 . S
C856 C857 1.374 . S
C857 H837 0.950 . S
C857 C853 1.385 . S
C857 C856 1.374 . S
C858 C855 1.499 . S
C858 C859 1.373 . S
C858 C860 1.382 1_545 S
C859 H838 0.950 . S
C859 C858 1.373 . S
C859 C875 1.377 . S
C860 C858 1.382 1_565 S
C860 C861 1.528 . S
C860 C874 1.383 1_565 S
C861 C860 1.528 . S
C861 C862 1.397 . S
C861 C866 1.363 . S
C862 H839 0.950 . S
C862 C861 1.397 . S
C862 C863 1.334 . S
C863 H840 0.950 . S
C863 C862 1.334 . S
C863 C864 1.287 . S
C864 C863 1.287 . S
C864 C865 1.524 . S
C864 H883 0.913 . S
C865 H841 0.950 . S
C865 C864 1.524 . S
C865 C866 1.415 . S
C866 H842 0.950 . S
C866 C861 1.363 . S
C866 C865 1.415 . S
C867 H843 0.951 . S
C867 C868 1.366 . S
C867 C869 1.388 . S
C868 C867 1.366 . S
C868 C872 1.385 . S
C869 H844 0.951 . S
C869 C867 1.388 . S
C869 C870 1.366 . S
C870 C869 1.366 . S
C870 C871 1.414 . S
C870 C873 1.499 . S
C871 H845 0.950 . S
C871 C870 1.414 . S
C871 C872 1.374 . S
C872 H846 0.950 . S
C872 C868 1.385 . S
C872 C871 1.374 . S
C873 C870 1.499 . S
C873 C874 1.373 . S
C873 C875 1.389 . S
C874 H847 0.950 1_545 S
C874 C860 1.383 1_545 S
C874 C873 1.373 . S
C875 C859 1.377 . S
C875 C873 1.389 . S
C875 C876 1.524 . S
C876 C875 1.524 . S
C876 C877 1.397 . S
C876 C881 1.363 . S
C877 H848 0.950 . S
C877 C876 1.397 . S
C877 C878 1.334 . S
C878 H849 0.950 . S
C878 C877 1.334 . S
C878 C879 1.287 . S
C879 C878 1.287 . S
C879 C880 1.524 . S
C879 H882 0.999 . S
C880 H850 0.950 . S
C880 C879 1.524 . S
C880 C881 1.415 . S
C881 H851 0.950 . S
C881 C876 1.363 . S
C881 C880 1.415 . S
H882 C879 0.999 . S
H883 C864 0.913 . S
H884 C902 0.951 . S
H885 C904 0.951 . S
H886 C906 0.950 . S
H887 C907 0.950 . S
H888 C909 0.950 . S
H889 C912 0.950 . S
H890 C913 0.950 . S
H891 C915 0.950 . S
H892 C916 0.950 . S
H893 C917 0.951 . S
H894 C919 0.954 1_554 S
H895 C921 0.950 . S
H896 C922 0.950 . S
H897 C924 0.950 1_556 S
H898 C927 0.950 1_556 S
H899 C928 0.903 1_556 S
H900 C930 0.950 . S
H901 C931 0.950 . S
C902 H884 0.951 . S
C902 C903 1.366 . S
C902 C904 1.388 . S
C903 C902 1.366 . S
C903 C907 1.385 . S
C904 H885 0.951 . S
C904 C902 1.388 . S
C904 C905 1.366 . S
C905 C904 1.366 . S
C905 C906 1.414 . S
C905 C908 1.499 . S
C906 H886 0.950 . S
C906 C905 1.414 . S
C906 C907 1.374 . S
C907 H887 0.950 . S
C907 C903 1.385 . S
C907 C906 1.374 . S
C908 C905 1.499 . S
C908 C909 1.373 . S
C908 C910 1.389 . S
C909 H888 0.950 . S
C909 C908 1.373 . S
C909 C925 1.377 . S
C910 C908 1.389 . S
C910 C911 1.524 . S
C910 C924 1.377 . S
C911 C910 1.524 . S
C911 C912 1.397 . S
C911 C916 1.363 1_554 S
C912 H889 0.950 . S
C912 C911 1.397 . S
C912 C913 1.334 . S
C913 H890 0.950 . S
C913 C912 1.334 . S
C913 C914 1.287 . S
C914 C913 1.287 . S
C914 C915 1.524 1_554 S
C914 H933 0.913 . S
C915 H891 0.950 . S
C915 C914 1.524 1_556 S
C915 C916 1.415 . S
C916 H892 0.950 . S
C916 C911 1.363 1_556 S
C916 C915 1.415 . S
C917 H893 0.951 . S
C917 C918 1.366 . S
C917 C919 1.385 . S
C918 C917 1.366 . S
C918 C922 1.385 . S
C919 H894 0.954 1_556 S
C919 C917 1.385 . S
C919 C920 1.364 . S
C920 C919 1.364 . S
C920 C921 1.414 . S
C920 C923 1.499 1_556 S
C921 H895 0.950 . S
C921 C920 1.414 . S
C921 C922 1.374 . S
C922 H896 0.950 . S
C922 C918 1.385 . S
C922 C921 1.374 . S
C923 C920 1.499 1_554 S
C923 C924 1.373 . S
C923 C925 1.389 . S
C924 H897 0.950 1_554 S
C924 C910 1.377 . S
C924 C923 1.373 . S
C925 C909 1.377 . S
C925 C923 1.389 . S
C925 C926 1.524 . S
C926 C925 1.524 . S
C926 C927 1.397 . S
C926 C931 1.363 . S
C927 H898 0.950 1_554 S
C927 C926 1.397 . S
C927 C928 1.334 . S
C928 H899 0.903 1_554 S
C928 C927 1.334 . S
C928 C929 1.287 . S
C929 C928 1.287 . S
C929 C930 1.524 . S
C929 H932 0.999 . S
C930 H900 0.950 . S
C930 C929 1.524 . S
C930 C931 1.415 . S
C931 H901 0.950 . S
C931 C926 1.363 . S
C931 C930 1.415 . S
H932 C929 0.999 . S
H933 C914 0.913 . S
H934 C952 0.951 . S
H935 C954 0.951 . S
H936 C956 0.950 . S
H937 C957 0.950 . S
H938 C959 0.950 . S
H939 C962 0.950 1_655 S
H940 C963 0.950 . S
H941 C965 0.950 . S
H942 C966 0.950 . S
H943 C967 0.951 . S
H944 C969 0.951 . S
H945 C971 0.950 . S
H946 C972 0.950 . S
H947 C974 0.950 . S
H948 C977 0.950 . S
H949 C978 0.950 1_455 S
H950 C980 0.950 . S
H951 C981 0.950 . S
C952 H934 0.951 . S
C952 C953 1.366 . S
C952 C954 1.388 . S
C953 C952 1.366 . S
C953 C957 1.385 1_455 S
C954 H935 0.951 . S
C954 C952 1.388 . S
C954 C955 1.366 . S
C955 C954 1.366 . S
C955 C956 1.414 1_455 S
C955 C958 1.499 . S
C956 H936 0.950 . S
C956 C955 1.414 1_655 S
C956 C957 1.374 . S
C957 H937 0.950 . S
C957 C953 1.385 1_655 S
C957 C956 1.374 . S
C958 C955 1.499 . S
C958 C959 1.373 1_455 S
C958 C960 1.389 . S
C959 H938 0.950 . S
C959 C958 1.373 1_655 S
C959 C975 1.377 . S
C960 C958 1.389 . S
C960 C961 1.524 . S
C960 C974 1.377 . S
C961 C960 1.524 . S
C961 C962 1.397 . S
C961 C966 1.363 . S
C962 H939 0.950 1_455 S
C962 C961 1.397 . S
C962 C963 1.334 . S
C963 H940 0.950 . S
C963 C962 1.334 . S
C963 C964 1.287 . S
C964 C963 1.287 . S
C964 C965 1.524 . S
C964 H983 0.913 . S
C965 H941 0.950 . S
C965 C964 1.524 . S
C965 C966 1.415 . S
C966 H942 0.950 . S
C966 C961 1.363 . S
C966 C965 1.415 . S
C967 H943 0.951 . S
C967 C968 1.366 1_655 S
C967 C969 1.388 . S
C968 C967 1.366 1_455 S
C968 C972 1.385 . S
C969 H944 0.951 . S
C969 C967 1.388 . S
C969 C970 1.366 1_655 S
C970 C969 1.366 1_455 S
C970 C971 1.414 . S
C970 C973 1.499 . S
C971 H945 0.950 . S
C971 C970 1.414 . S
C971 C972 1.374 . S
C972 H946 0.950 . S
C972 C968 1.385 . S
C972 C971 1.374 . S
C973 C970 1.499 . S
C973 C974 1.373 . S
C973 C975 1.389 1_455 S
C974 H947 0.950 . S
C974 C960 1.377 . S
C974 C973 1.373 . S
C975 C959 1.377 . S
C975 C973 1.389 1_655 S
C975 C976 1.524 . S
C976 C975 1.524 . S
C976 C977 1.397 1_655 S
C976 C981 1.363 . S
C977 H948 0.950 . S
C977 C976 1.397 1_455 S
C977 C978 1.334 1_455 S
C978 H949 0.950 1_655 S
C978 C977 1.334 1_655 S
C978 C979 1.287 . S
C979 C978 1.287 . S
C979 C980 1.524 . S
C979 H982 0.999 . S
C980 H950 0.950 . S
C980 C979 1.524 . S
C980 C981 1.415 . S
C981 H951 0.950 . S
C981 C976 1.363 . S
C981 C980 1.415 . S
H982 C979 0.999 . S
H983 C964 0.913 . S
C418 C97 1.154 . S
C403 C6 1.567 . S
C453 C22 1.678 . S
C468 C211 1.266 . S
C503 C34 1.044 . S
C518 C271 0.874 . S
C553 C7 1.393 . S
C568 C71 1.134 . S
C618 C185 1.225 . S
C603 C23 1.506 . S
C653 C35 1.220 . S
C668 C281 0.789 . S
C718 C167 1.000 . S
C703 C36 1.615 . S
C753 C9 1.774 . S
C768 C299 1.451 . S
C818 C43 1.053 1_455 S
C803 C21 1.297 . S
C868 C157 1.119 . S
C853 C37 1.419 . S
C918 C325 1.481 . S
C903 C8 1.945 . S
C953 C20 1.470 . S
C968 C53 0.925 . S
