# Generated by pormake.
# Topology rtl, (3,6)-cn, num edge types: 1
# Building blocks:
#     Node 0, Type 0, BuildingBlock: VETTIZ_charged_linker_0, # of connection points: 3
#     Node 1, Type 0, BuildingBlock: VETTIZ_charged_linker_0, # of connection points: 3
#     Node 2, Type 0, BuildingBlock: VETTIZ_charged_linker_0, # of connection points: 3
#     Node 3, Type 0, BuildingBlock: VETTIZ_charged_linker_0, # of connection points: 3
#     Node 4, Type 1, BuildingBlock: FUNLAD_clean_sbu_0, # of connection points: 6
#     Node 5, Type 1, BuildingBlock: FUNLAD_clean_sbu_0, # of connection points: 6
#     Edge 6, Type (0, 1), BuildingBlock: MIFKUJ_clean_linker_0, # of connection points: 2
#     Edge 7, Type (0, 1), BuildingBlock: MIFKUJ_clean_linker_0, # of connection points: 2
#     Edge 8, Type (0, 1), BuildingBlock: MIFKUJ_clean_linker_0, # of connection points: 2
#     Edge 9, Type (0, 1), BuildingBlock: MIFKUJ_clean_linker_0, # of connection points: 2
#     Edge 10, Type (0, 1), BuildingBlock: MIFKUJ_clean_linker_0, # of connection points: 2
#     Edge 11, Type (0, 1), BuildingBlock: MIFKUJ_clean_linker_0, # of connection points: 2
#     Edge 12, Type (0, 1), BuildingBlock: MIFKUJ_clean_linker_0, # of connection points: 2
#     Edge 13, Type (0, 1), BuildingBlock: MIFKUJ_clean_linker_0, # of connection points: 2
#     Edge 14, Type (0, 1), BuildingBlock: MIFKUJ_clean_linker_0, # of connection points: 2
#     Edge 15, Type (0, 1), BuildingBlock: MIFKUJ_clean_linker_0, # of connection points: 2
#     Edge 16, Type (0, 1), BuildingBlock: MIFKUJ_clean_linker_0, # of connection points: 2
#     Edge 17, Type (0, 1), BuildingBlock: MIFKUJ_clean_linker_0, # of connection points: 2
# Relax obj value: 0.030
# Max RMSD: 0.087
# Mean RMSD: 0.075
data_MOF--net-rtl--node1-FUNLAD_clean_sbu_0--node2-VETTIZ_charged_linker_0--edge1-MIFKUJ_clean_linker_0
_symmetry_space_group_name_H-M    P1
_symmetry_Int_Tables_number       1
_symmetry_cell_setting            triclinic
loop_
_symmetry_equiv_pos_as_xyz
'x, y, z'
_cell_length_a     59.262333
_cell_length_b     48.609734
_cell_length_c     35.289273
_cell_angle_alpha  89.980481
_cell_angle_beta   90.961715
_cell_angle_gamma 90.681799
loop_
_atom_site_label
_atom_site_type_symbol
_atom_site_fract_x
_atom_site_fract_y
_atom_site_fract_z
_atom_type_partial_charge
C0 C 0.09841 0.7871 0.89151 0.0
C1 C 0.08231 0.80808 0.89038 0.0
C2 C 0.07282 0.81726 0.9243 0.0
C3 C 0.09623 0.7858 0.96018 0.0
C4 C 0.10529 0.77646 0.92677 0.0
C5 C 0.12361 0.75575 0.9338 0.0
H6 H 0.19217 0.69013 0.05912 0.0
C7 C 0.10797 0.77203 0.99201 0.0
C8 C 0.12411 0.75444 0.97687 0.0
H9 H 0.19221 0.68537 0.93675 0.0
H10 H 0.15959 0.71456 0.93318 0.0
H11 H 0.1835 0.75407 0.06435 0.0
H12 H 0.13732 0.68498 0.06686 0.0
H13 H 0.1288 0.70862 0.10131 0.0
H14 H 0.1562 0.69305 0.10569 0.0
H15 H 0.18178 0.73134 0.10433 0.0
H16 H 0.1636 0.76064 0.09944 0.0
C17 C 0.14589 0.76767 0.91786 0.0
C18 C 0.11593 0.72804 0.91589 0.0
C19 C 0.08791 0.79703 0.12666 0.0
C20 C 0.09688 0.78972 0.1623 0.0
C21 C 0.11457 0.77061 0.16428 0.0
C22 C 0.12326 0.7591 0.13117 0.0
C23 C 0.11433 0.76701 0.09566 0.0
C24 C 0.09689 0.7856 0.09395 0.0
C25 C 0.09 0.79253 0.05397 0.0
C26 C 0.10595 0.77472 0.03183 0.0
C27 C 0.12018 0.75983 0.05629 0.0
C28 C 0.09456 0.82372 0.04758 0.0
C29 C 0.06507 0.78336 0.04793 0.0
C30 C 0.18518 0.69544 0.03155 0.0
C31 C 0.19489 0.68558 0.99818 0.0
C32 C 0.18498 0.69254 0.9629 0.0
C33 C 0.16614 0.7097 0.96086 0.0
C34 C 0.15711 0.72013 0.99443 0.0
C35 C 0.16638 0.71255 0.02904 0.0
C36 C 0.15441 0.72533 0.06177 0.0
C37 C 0.13669 0.7422 0.04111 0.0
C38 C 0.13845 0.73925 0.00164 0.0
C39 C 0.1716 0.74371 0.08399 0.0
C40 C 0.14368 0.70193 0.0855 0.0
H41 H 0.07179 0.81412 0.98396 0.0
H42 H 0.1061 0.77998 0.86572 0.0
H43 H 0.0974 0.7249 0.91865 0.0
H44 H 0.12354 0.71008 0.93014 0.0
H45 H 0.11983 0.72739 0.88522 0.0
H46 H 0.14716 0.79023 0.92301 0.0
H47 H 0.1468 0.76428 0.8868 0.0
H48 H 0.16111 0.75912 0.9316 0.0
H49 H 0.07465 0.8121 0.12414 0.0
H50 H 0.12168 0.7646 0.19148 0.0
H51 H 0.13678 0.74476 0.13448 0.0
H52 H 0.10827 0.83163 0.06671 0.0
H53 H 0.07927 0.836 0.05305 0.0
H54 H 0.10059 0.82836 0.01877 0.0
H55 H 0.06176 0.76333 0.06221 0.0
H56 H 0.0605 0.77984 0.01784 0.0
H57 H 0.05339 0.79867 0.0599 0.0
H58 H 0.06034 0.83337 0.9238 0.0
C59 C 0.07955 0.80609 0.95914 0.0
C60 C 0.59433 0.72613 0.63865 0.0
C61 C 0.57667 0.70672 0.64169 0.0
C62 C 0.56478 0.69837 0.60864 0.0
C63 C 0.58902 0.72714 0.57031 0.0
C64 C 0.60013 0.73611 0.60282 0.0
C65 C 0.61879 0.75634 0.59439 0.0
H66 H 0.68462 0.81941 0.4653 0.0
C67 C 0.59991 0.74033 0.53754 0.0
C68 C 0.61716 0.75778 0.55142 0.0
H69 H 0.68906 0.8248 0.58754 0.0
H70 H 0.65545 0.79683 0.5928 0.0
H71 H 0.6714 0.7548 0.46127 0.0
H72 H 0.63075 0.82773 0.45936 0.0
H73 H 0.61757 0.80377 0.42875 0.0
H74 H 0.64555 0.81653 0.4183 0.0
H75 H 0.67175 0.77938 0.42325 0.0
H76 H 0.65125 0.7519 0.4242 0.0
C77 C 0.64133 0.74367 0.60834 0.0
C78 C 0.61308 0.7842 0.61308 0.0
C79 C 0.57768 0.70987 0.40456 0.0
C80 C 0.58511 0.71759 0.36851 0.0
C81 C 0.60087 0.73931 0.36513 0.0
C82 C 0.6099 0.75238 0.39756 0.0
C83 C 0.603 0.74364 0.43362 0.0
C84 C 0.58665 0.72328 0.43656 0.0
C85 C 0.58059 0.7174 0.47694 0.0
C86 C 0.59651 0.737 0.49791 0.0
C87 C 0.60985 0.75201 0.47246 0.0
C88 C 0.58611 0.68689 0.48536 0.0
C89 C 0.55549 0.72498 0.48238 0.0
C90 C 0.67817 0.81485 0.49317 0.0
C91 C 0.68969 0.82404 0.52607 0.0
C92 C 0.68077 0.81751 0.5618 0.0
C93 C 0.6612 0.80131 0.5648 0.0
C94 C 0.65043 0.7913 0.53175 0.0
C95 C 0.65866 0.79853 0.49667 0.0
C96 C 0.6449 0.78602 0.46469 0.0
C97 C 0.62732 0.76973 0.48644 0.0
C98 C 0.63079 0.77275 0.5257 0.0
C99 C 0.66052 0.7671 0.44183 0.0
C100 C 0.63419 0.80959 0.44122 0.0
H101 H 0.5614 0.70094 0.54896 0.0
H102 H 0.60358 0.73323 0.6636 0.0
H103 H 0.59451 0.78726 0.61384 0.0
H104 H 0.61958 0.80207 0.59704 0.0
H105 H 0.61964 0.78526 0.64271 0.0
H106 H 0.64157 0.72119 0.60242 0.0
H107 H 0.64373 0.74649 0.63939 0.0
H108 H 0.65622 0.75213 0.59386 0.0
H109 H 0.56527 0.69352 0.40776 0.0
H110 H 0.60672 0.74556 0.33747 0.0
H111 H 0.6222 0.76841 0.39335 0.0
H112 H 0.6025 0.68126 0.47275 0.0
H113 H 0.5729 0.67295 0.47315 0.0
H114 H 0.58802 0.68236 0.51584 0.0
H115 H 0.55003 0.74117 0.46202 0.0
H116 H 0.55241 0.73392 0.51064 0.0
H117 H 0.5442 0.70683 0.47795 0.0
H118 H 0.55123 0.68327 0.61017 0.0
C119 C 0.57083 0.7085 0.57305 0.0
C120 C 0.90436 0.21714 0.12819 0.0
C121 C 0.92065 0.19638 0.12958 0.0
C122 C 0.92998 0.18688 0.09568 0.0
C123 C 0.90603 0.21755 0.05945 0.0
C124 C 0.89714 0.22721 0.09282 0.0
C125 C 0.87861 0.24762 0.08571 0.0
H126 H 0.8094 0.31218 0.96042 0.0
C127 C 0.89397 0.23081 0.02755 0.0
C128 C 0.87781 0.24841 0.04263 0.0
H129 H 0.80966 0.31731 0.0828 0.0
H130 H 0.84222 0.2881 0.08632 0.0
H131 H 0.86415 0.31689 0.9518 0.0
H132 H 0.81768 0.24818 0.95605 0.0
H133 H 0.83751 0.24087 0.92118 0.0
H134 H 0.81951 0.27028 0.91544 0.0
H135 H 0.84488 0.30871 0.91354 0.0
H136 H 0.87225 0.293 0.91737 0.0
C137 C 0.88622 0.27561 0.10285 0.0
C138 C 0.85653 0.23565 0.10235 0.0
C139 C 0.91311 0.2045 0.89291 0.0
C140 C 0.90375 0.21133 0.85736 0.0
C141 C 0.88599 0.23035 0.85542 0.0
C142 C 0.87759 0.24222 0.88849 0.0
C143 C 0.88686 0.23475 0.92394 0.0
C144 C 0.90439 0.21627 0.92562 0.0
C145 C 0.91161 0.20982 0.9656 0.0
C146 C 0.89573 0.22774 0.98774 0.0
C147 C 0.88127 0.24229 0.96327 0.0
C148 C 0.93653 0.21924 0.97093 0.0
C149 C 0.90729 0.17868 0.97273 0.0
C150 C 0.81642 0.30693 0.98799 0.0
C151 C 0.80683 0.31699 0.02138 0.0
C152 C 0.81679 0.31006 0.05663 0.0
C153 C 0.83561 0.29288 0.05864 0.0
C154 C 0.84457 0.28235 0.02507 0.0
C155 C 0.83518 0.28975 0.99049 0.0
C156 C 0.84695 0.27668 0.95777 0.0
C157 C 0.86478 0.25997 0.97842 0.0
C158 C 0.86322 0.26323 0.01786 0.0
C159 C 0.85755 0.29987 0.9335 0.0
C160 C 0.82962 0.25813 0.93612 0.0
H161 H 0.93054 0.18923 0.03589 0.0
H162 H 0.89676 0.22451 0.15392 0.0
H163 H 0.85555 0.21296 0.09826 0.0
H164 H 0.84116 0.24354 0.08827 0.0
H165 H 0.85564 0.23977 0.13324 0.0
H166 H 0.90467 0.27899 0.09937 0.0
H167 H 0.8827 0.2765 0.13364 0.0
H168 H 0.87825 0.29332 0.08856 0.0
H169 H 0.92645 0.18953 0.89538 0.0
H170 H 0.8786 0.236 0.82828 0.0
H171 H 0.864 0.25646 0.88521 0.0
H172 H 0.93962 0.23914 0.95618 0.0
H173 H 0.9482 0.20389 0.95901 0.0
H174 H 0.9413 0.22312 0.00085 0.0
H175 H 0.89333 0.17053 0.9543 0.0
H176 H 0.90172 0.17426 0.00187 0.0
H177 H 0.92254 0.16644 0.9668 0.0
H178 H 0.94264 0.17097 0.09631 0.0
C179 C 0.9229 0.19748 0.06067 0.0
C180 C 0.41074 0.27759 0.38414 0.0
C181 C 0.43015 0.29446 0.38166 0.0
C182 C 0.44364 0.29872 0.41453 0.0
C183 C 0.417 0.2727 0.45192 0.0
C184 C 0.40462 0.2668 0.41938 0.0
C185 C 0.38435 0.24886 0.42725 0.0
H186 H 0.31553 0.18884 0.55492 0.0
C187 C 0.4051 0.26046 0.48435 0.0
C188 C 0.38619 0.24598 0.47007 0.0
H189 H 0.31026 0.18602 0.43261 0.0
H190 H 0.34487 0.2123 0.42781 0.0
H191 H 0.37018 0.1784 0.56068 0.0
H192 H 0.32958 0.2513 0.55982 0.0
H193 H 0.35159 0.25687 0.59284 0.0
H194 H 0.3316 0.22925 0.6005 0.0
H195 H 0.35271 0.18779 0.59956 0.0
H196 H 0.38117 0.20092 0.59559 0.0
C197 C 0.38739 0.22095 0.40679 0.0
C198 C 0.36294 0.2647 0.41482 0.0
C199 C 0.42893 0.28795 0.61776 0.0
C200 C 0.41954 0.28309 0.65348 0.0
C201 C 0.40131 0.26434 0.65638 0.0
C202 C 0.39193 0.25169 0.62393 0.0
C203 C 0.40078 0.25795 0.58817 0.0
C204 C 0.41927 0.27538 0.58567 0.0
C205 C 0.42632 0.28008 0.54546 0.0
C206 C 0.40863 0.2631 0.52406 0.0
C207 C 0.39367 0.25027 0.54916 0.0
C208 C 0.45038 0.26849 0.5407 0.0
C209 C 0.42428 0.31125 0.53695 0.0
C210 C 0.32203 0.19354 0.52712 0.0
C211 C 0.31013 0.18541 0.49409 0.0
C212 C 0.31898 0.19233 0.45845 0.0
C213 C 0.33913 0.20749 0.45572 0.0
C214 C 0.35054 0.21605 0.48897 0.0
C215 C 0.3421 0.20881 0.5239 0.0
C216 C 0.3563 0.22014 0.55614 0.0
C217 C 0.37487 0.23492 0.53477 0.0
C218 C 0.37127 0.23265 0.49544 0.0
C219 C 0.36554 0.19568 0.57957 0.0
C220 C 0.34163 0.24033 0.57886 0.0
H221 H 0.44791 0.29243 0.47356 0.0
H222 H 0.4 0.27369 0.35956 0.0
H223 H 0.36438 0.28671 0.42331 0.0
H224 H 0.34743 0.25696 0.42821 0.0
H225 H 0.36048 0.26397 0.38356 0.0
H226 H 0.40556 0.21601 0.40374 0.0
H227 H 0.37965 0.22123 0.37792 0.0
H228 H 0.38032 0.20342 0.42288 0.0
H229 H 0.44324 0.3018 0.6147 0.0
H230 H 0.39375 0.26025 0.68357 0.0
H231 H 0.37777 0.23807 0.62784 0.0
H232 H 0.45395 0.2518 0.56146 0.0
H233 H 0.46348 0.28478 0.545 0.0
H234 H 0.45262 0.2588 0.51265 0.0
H235 H 0.40833 0.3194 0.5485 0.0
H236 H 0.42367 0.31614 0.50649 0.0
H237 H 0.43853 0.32302 0.55019 0.0
H238 H 0.45909 0.31078 0.41335 0.0
C239 C 0.43718 0.28794 0.44953 0.0
C240 C 0.01623 0.96439 0.45649 0.0
N241 N 0.04917 0.02977 0.51318 0.0
C242 C 0.06777 0.01364 0.5147 0.0
C243 C 0.08934 0.02552 0.51503 0.0
C244 C 0.0918 0.05429 0.51375 0.0
C245 C 0.07228 0.07041 0.51259 0.0
C246 C 0.05105 0.05768 0.51231 0.0
Zn247 Zn 0.01788 0.01176 0.51101 0.0
C248 C 0.98855 0.03679 0.45137 0.0
N249 N 0.95272 0.97355 0.50486 0.0
C250 C 0.95036 0.94572 0.5069 0.0
C251 C 0.93441 0.9901 0.50202 0.0
C252 C 0.91267 0.97879 0.5014 0.0
C253 C 0.90969 0.95016 0.50389 0.0
C254 C 0.92889 0.93354 0.50653 0.0
Zn255 Zn 0.98412 0.99128 0.50711 0.0
O256 O 0.02922 0.98299 0.47029 0.0
C257 C 0.01347 0.96631 0.56682 0.0
O258 O 0.99585 0.96297 0.46698 0.0
H259 H 0.93666 0.01219 0.50063 0.0
H260 H 0.06589 0.99149 0.51527 0.0
H261 H 0.96514 0.93295 0.50903 0.0
O262 O 0.02715 0.98467 0.55524 0.0
O263 O 0.99392 0.96431 0.55164 0.0
H264 H 0.03604 0.07011 0.51118 0.0
O265 O 0.97272 0.02015 0.54742 0.0
O266 O 0.00615 0.03989 0.55163 0.0
O267 O 0.97498 0.01818 0.46251 0.0
O268 O 0.00799 0.03899 0.46688 0.0
C269 C 0.98569 0.03856 0.56169 0.0
H270 H 0.10391 0.01229 0.51548 0.0
H271 H 0.07339 0.09267 0.5121 0.0
H272 H 0.89833 0.99238 0.49982 0.0
H273 H 0.92734 0.91134 0.5081 0.0
C274 C 0.48949 0.46374 0.95487 0.0
N275 N 0.55017 0.47628 0.0153 0.0
C276 C 0.5525 0.44848 0.01447 0.0
C277 C 0.57393 0.43686 0.01503 0.0
C278 C 0.59317 0.45399 0.01658 0.0
C279 C 0.59026 0.48261 0.0178 0.0
C280 C 0.56851 0.49337 0.01705 0.0
Zn281 Zn 0.51848 0.49245 0.01286 0.0
C282 C 0.51515 0.53818 0.95691 0.0
N283 N 0.45213 0.52589 0.0064 0.0
C284 C 0.43375 0.50901 0.00252 0.0
C285 C 0.44988 0.55365 0.00864 0.0
C286 C 0.42853 0.56544 0.00728 0.0
C287 C 0.4092 0.5486 0.00303 0.0
C288 C 0.41207 0.51997 0.00057 0.0
Zn289 Zn 0.48382 0.50964 0.00907 0.0
O290 O 0.50924 0.4643 0.96943 0.0
C291 C 0.48703 0.46388 0.06485 0.0
O292 O 0.47499 0.48084 0.9661 0.0
H293 H 0.46469 0.56673 0.01166 0.0
H294 H 0.53771 0.43525 0.0132 0.0
H295 H 0.4359 0.48699 0.00082 0.0
O296 O 0.50739 0.46406 0.05411 0.0
O297 O 0.47327 0.48111 0.05074 0.0
H298 H 0.56627 0.51542 0.01754 0.0
O299 O 0.49339 0.5383 0.0522 0.0
O300 O 0.52723 0.52056 0.0563 0.0
O301 O 0.49473 0.53767 0.96732 0.0
O302 O 0.52905 0.52135 0.97153 0.0
C303 C 0.51304 0.53812 0.06722 0.0
H304 H 0.5754 0.41468 0.01455 0.0
H305 H 0.60465 0.49657 0.01861 0.0
H306 H 0.42725 0.58755 0.01001 0.0
H307 H 0.39776 0.50614 0.99676 0.0
H308 H 0.27146 0.19529 0.4536 0.0
H309 H 0.23492 0.1719 0.45894 0.0
H310 H 0.26235 0.11931 0.5463 0.0
H311 H 0.29917 0.1424 0.54068 0.0
H312 H 0.23613 0.09078 0.49307 0.0
H313 H 0.23018 0.17068 0.57141 0.0
H314 H 0.23278 0.22014 0.58656 0.0
H315 H 0.18374 0.23759 0.49915 0.0
H316 H 0.18109 0.18825 0.48308 0.0
H317 H 0.12954 0.04006 0.55484 0.0
H318 H 0.1671 0.06137 0.5528 0.0
H319 H 0.14309 0.1194 0.46932 0.0
H320 H 0.10556 0.09811 0.47098 0.0
H321 H 0.16815 0.14459 0.52364 0.0
H322 H 0.17495 0.06523 0.44372 0.0
H323 H 0.1725 0.01592 0.42764 0.0
H324 H 0.21994 0.99752 0.51714 0.0
H325 H 0.22243 0.04672 0.5341 0.0
C326 C 0.26979 0.17855 0.47366 0.0
C327 C 0.28817 0.17066 0.49674 0.0
C328 C 0.24887 0.16536 0.47689 0.0
C329 C 0.2459 0.14408 0.50328 0.0
C330 C 0.2643 0.13576 0.52586 0.0
C331 C 0.28524 0.14907 0.52279 0.0
C332 C 0.22349 0.13073 0.50739 0.0
C333 C 0.22131 0.10242 0.50034 0.0
C334 C 0.20413 0.1461 0.51611 0.0
C335 C 0.2056 0.17579 0.52581 0.0
C336 C 0.22008 0.18509 0.55521 0.0
C337 C 0.22154 0.2131 0.56399 0.0
C338 C 0.20847 0.232 0.54377 0.0
C339 C 0.19387 0.22292 0.51476 0.0
C340 C 0.19237 0.19493 0.50582 0.0
C341 C 0.1323 0.05721 0.53581 0.0
C342 C 0.11457 0.06737 0.51302 0.0
C343 C 0.15376 0.06939 0.53473 0.0
C344 C 0.15793 0.09181 0.51065 0.0
C345 C 0.14022 0.10216 0.48817 0.0
C346 C 0.11877 0.09003 0.48926 0.0
C347 C 0.18071 0.10464 0.50897 0.0
C348 C 0.18297 0.13288 0.51653 0.0
C349 C 0.20012 0.08921 0.50063 0.0
C350 C 0.19868 0.05962 0.49044 0.0
C351 C 0.18471 0.05064 0.46018 0.0
C352 C 0.18334 0.02272 0.45087 0.0
C353 C 0.19601 0.00358 0.47143 0.0
C354 C 0.21011 0.01236 0.50128 0.0
C355 C 0.21152 0.04026 0.51074 0.0
H356 H 0.19493 0.98197 0.46417 0.0
H357 H 0.20962 0.25368 0.55062 0.0
H358 H 0.23222 0.69474 0.04296 0.0
H359 H 0.26753 0.66934 0.04384 0.0
H360 H 0.2404 0.61396 0.9586 0.0
H361 H 0.20501 0.63946 0.95742 0.0
H362 H 0.27893 0.61854 0.06047 0.0
H363 H 0.28265 0.59532 0.89981 0.0
H364 H 0.26918 0.61501 0.83918 0.0
H365 H 0.26759 0.6953 0.88968 0.0
H366 H 0.28134 0.67616 0.95041 0.0
H367 H 0.36975 0.52787 0.03229 0.0
H368 H 0.33244 0.54854 0.03019 0.0
H369 H 0.35952 0.61849 0.97007 0.0
H370 H 0.39649 0.59715 0.96972 0.0
H371 H 0.32066 0.60617 0.94107 0.0
H372 H 0.3491 0.61927 0.06814 0.0
H373 H 0.36487 0.60493 0.13008 0.0
H374 H 0.30623 0.5544 0.14922 0.0
H375 H 0.29024 0.56819 0.08715 0.0
C376 C 0.23366 0.67695 0.02473 0.0
C377 C 0.21585 0.66916 1e-05 0.0
C378 C 0.25387 0.66247 0.02522 0.0
C379 C 0.25672 0.63992 0.00101 0.0
C380 C 0.23874 0.63159 0.97706 0.0
C381 C 0.21854 0.64618 0.97638 0.0
C382 C 0.27874 0.6257 0.00022 0.0
C383 C 0.28801 0.61572 0.03434 0.0
C384 C 0.29081 0.62246 0.96626 0.0
C385 C 0.28276 0.63423 0.92975 0.0
C386 C 0.27948 0.61718 0.89792 0.0
C387 C 0.2718 0.62825 0.86355 0.0
C388 C 0.26745 0.65637 0.86062 0.0
C389 C 0.27087 0.67351 0.89202 0.0
C390 C 0.27859 0.66256 0.92643 0.0
C391 C 0.36775 0.54743 0.01802 0.0
C392 C 0.38628 0.56088 0.00139 0.0
C393 C 0.34641 0.55941 0.01729 0.0
C394 C 0.34321 0.58533 0.00057 0.0
C395 C 0.36155 0.59854 0.98332 0.0
C396 C 0.3828 0.58643 0.98358 0.0
C397 C 0.32089 0.59894 0.00134 0.0
C398 C 0.31152 0.60876 0.96719 0.0
C399 C 0.30905 0.60276 0.03546 0.0
C400 C 0.31858 0.59455 0.07285 0.0
C401 C 0.33964 0.60496 0.08545 0.0
C402 C 0.34861 0.59695 0.1206 0.0
C403 C 0.33659 0.57871 0.14353 0.0
C404 C 0.31554 0.5685 0.13141 0.0
C405 C 0.30651 0.57642 0.09627 0.0
H406 H 0.34356 0.57253 0.17072 0.0
H407 H 0.26148 0.66489 0.83399 0.0
H408 H 0.72788 0.8164 0.56874 0.0
H409 H 0.76408 0.84039 0.56379 0.0
H410 H 0.73741 0.88952 0.47197 0.0
H411 H 0.70096 0.86548 0.47678 0.0
H412 H 0.77856 0.87079 0.45593 0.0
H413 H 0.74542 0.91726 0.55984 0.0
H414 H 0.72631 0.92145 0.62105 0.0
H415 H 0.78201 0.88216 0.67748 0.0
H416 H 0.80133 0.87736 0.6165 0.0
H417 H 0.873 0.96372 0.45987 0.0
H418 H 0.83479 0.94424 0.46253 0.0
H419 H 0.85621 0.88913 0.55159 0.0
H420 H 0.89432 0.90891 0.54969 0.0
H421 H 0.81649 0.91411 0.56764 0.0
H422 H 0.84853 0.86582 0.46247 0.0
H423 H 0.86743 0.86205 0.401 0.0
H424 H 0.81335 0.90593 0.34674 0.0
H425 H 0.79427 0.9103 0.40804 0.0
C426 C 0.72958 0.83258 0.54784 0.0
C427 C 0.71149 0.83921 0.52337 0.0
C428 C 0.75031 0.84625 0.545 0.0
C429 C 0.75335 0.86702 0.51787 0.0
C430 C 0.7354 0.87359 0.49316 0.0
C431 C 0.71462 0.85983 0.4959 0.0
C432 C 0.7755 0.88132 0.51491 0.0
C433 C 0.78669 0.8807 0.48018 0.0
C434 C 0.78627 0.89381 0.54674 0.0
C435 C 0.77474 0.89675 0.58352 0.0
C436 C 0.75352 0.90932 0.58525 0.0
C437 C 0.74266 0.91184 0.61992 0.0
C438 C 0.75291 0.90203 0.65312 0.0
C439 C 0.77408 0.88973 0.65174 0.0
C440 C 0.785 0.88714 0.61713 0.0
C441 C 0.86954 0.94753 0.48012 0.0
C442 C 0.88668 0.93781 0.50453 0.0
C443 C 0.84775 0.93629 0.48141 0.0
C444 C 0.84273 0.91512 0.50707 0.0
C445 C 0.85977 0.90543 0.53153 0.0
C446 C 0.88157 0.91658 0.53018 0.0
C447 C 0.81963 0.90322 0.50884 0.0
C448 C 0.80827 0.90436 0.54335 0.0
C449 C 0.80868 0.89133 0.47678 0.0
C450 C 0.8201 0.88865 0.43991 0.0
C451 C 0.84076 0.87487 0.43749 0.0
C452 C 0.85149 0.87258 0.40267 0.0
C453 C 0.84163 0.88381 0.37 0.0
C454 C 0.82099 0.89728 0.37208 0.0
C455 C 0.81021 0.89965 0.40684 0.0
H456 H 0.84996 0.88201 0.34307 0.0
H457 H 0.74448 0.904 0.67994 0.0
H458 H 0.79687 0.36276 0.06303 0.0
H459 H 0.76178 0.38883 0.06176 0.0
H460 H 0.73471 0.33512 0.97451 0.0
H461 H 0.76963 0.30893 0.97573 0.0
H462 H 0.7253 0.38806 0.95918 0.0
H463 H 0.71961 0.32718 0.06632 0.0
H464 H 0.73205 0.30646 0.12682 0.0
H465 H 0.73083 0.3857 0.18046 0.0
H466 H 0.71869 0.40697 0.12008 0.0
H467 H 0.60817 0.41152 0.97334 0.0
H468 H 0.64573 0.39132 0.97395 0.0
H469 H 0.66779 0.44944 0.05958 0.0
H470 H 0.63002 0.46938 0.05978 0.0
H471 H 0.68096 0.39739 0.07643 0.0
H472 H 0.68418 0.45773 0.96952 0.0
H473 H 0.67127 0.47787 0.90893 0.0
H474 H 0.67668 0.39924 0.85466 0.0
H475 H 0.68932 0.37851 0.91509 0.0
C476 C 0.78341 0.35646 0.04367 0.0
C477 C 0.78601 0.33371 0.01957 0.0
C478 C 0.76339 0.3714 0.04292 0.0
C479 C 0.74554 0.36374 0.01831 0.0
C480 C 0.74829 0.34144 0.99365 0.0
C481 C 0.76829 0.32653 0.99432 0.0
C482 C 0.72379 0.37853 0.0187 0.0
C483 C 0.7155 0.38989 0.98473 0.0
C484 C 0.71127 0.38147 0.05224 0.0
C485 C 0.71849 0.36871 0.08859 0.0
C486 C 0.72217 0.34022 0.09094 0.0
C487 C 0.72914 0.32837 0.12522 0.0
C488 C 0.73229 0.34476 0.15744 0.0
C489 C 0.72843 0.37303 0.15546 0.0
C490 C 0.72149 0.385 0.12122 0.0
C491 C 0.62097 0.41991 0.99248 0.0
C492 C 0.61612 0.44204 0.01654 0.0
C493 C 0.64249 0.40852 0.99252 0.0
C494 C 0.65962 0.41908 0.01651 0.0
C495 C 0.65483 0.44107 0.04073 0.0
C496 C 0.6333 0.45255 0.04062 0.0
C497 C 0.68237 0.40671 0.01683 0.0
C498 C 0.69085 0.39578 0.05094 0.0
C499 C 0.69502 0.4041 0.98339 0.0
C500 C 0.68752 0.41652 0.94694 0.0
C501 C 0.68245 0.44468 0.94475 0.0
C502 C 0.67521 0.45621 0.91041 0.0
C503 C 0.67311 0.43984 0.87799 0.0
C504 C 0.6783 0.4119 0.87981 0.0
C505 C 0.68553 0.40025 0.91409 0.0
H506 H 0.6675 0.4488 0.85143 0.0
H507 H 0.73768 0.33555 0.18396 0.0
H508 H 0.1216 0.81217 0.2208 0.0
H509 H 0.10766 0.83891 0.27406 0.0
H510 H 0.03915 0.8246 0.23483 0.0
H511 H 0.05305 0.79816 0.18128 0.0
H512 H 0.04559 0.87695 0.24906 0.0
H513 H 0.06082 0.7935 0.31587 0.0
H514 H 0.08335 0.75398 0.33745 0.0
H515 H 0.1313 0.80887 0.39121 0.0
H516 H 0.10922 0.84877 0.36949 0.0
H517 H 0.99154 0.92909 0.41167 0.0
H518 H 0.00553 0.89709 0.3643 0.0
H519 H 0.07393 0.92265 0.39069 0.0
H520 H 0.06009 0.95497 0.43798 0.0
H521 H 0.06731 0.86419 0.38428 0.0
H522 H 0.05164 0.94755 0.31542 0.0
H523 H 0.02807 0.98641 0.29474 0.0
H524 H 0.97956 0.93006 0.24547 0.0
H525 H 0.0027 0.89082 0.26639 0.0
C526 C 0.10355 0.81428 0.224 0.0
C527 C 0.0884 0.80315 0.19688 0.0
C528 C 0.0956 0.82957 0.25443 0.0
C529 C 0.07234 0.83367 0.25858 0.0
C530 C 0.05717 0.82182 0.23213 0.0
C531 C 0.06511 0.80673 0.20157 0.0
C532 C 0.06388 0.85169 0.28904 0.0
C533 C 0.05007 0.87384 0.27868 0.0
C534 C 0.07013 0.84808 0.32762 0.0
C535 C 0.08347 0.82414 0.34073 0.0
C536 C 0.07627 0.79716 0.33202 0.0
C537 C 0.08894 0.77469 0.34433 0.0
C538 C 0.10878 0.77892 0.3656 0.0
C539 C 0.11595 0.80563 0.37469 0.0
C540 C 0.10335 0.82818 0.36242 0.0
C541 C 0.00956 0.92787 0.40749 0.0
C542 C 0.02471 0.94465 0.42841 0.0
C543 C 0.01751 0.9096 0.38041 0.0
C544 C 0.04073 0.90765 0.37397 0.0
C545 C 0.05594 0.9239 0.39534 0.0
C546 C 0.048 0.94243 0.42216 0.0
C547 C 0.04904 0.88916 0.34413 0.0
C548 C 0.06283 0.86709 0.35462 0.0
C549 C 0.04265 0.89267 0.30569 0.0
C550 C 0.02879 0.91624 0.29283 0.0
C551 C 0.03585 0.94343 0.30047 0.0
C552 C 0.02259 0.96553 0.28865 0.0
C553 C 0.0023 0.9607 0.2689 0.0
C554 C 0.99527 0.93376 0.26083 0.0
C555 C 0.00846 0.91159 0.27264 0.0
H556 H 0.99205 0.97784 0.25977 0.0
H557 H 0.11856 0.76149 0.37512 0.0
H558 H 0.53505 0.69679 0.67151 0.0
H559 H 0.52641 0.67171 0.72972 0.0
H560 H 0.59758 0.66275 0.75356 0.0
H561 H 0.60634 0.6874 0.69504 0.0
H562 H 0.57441 0.61403 0.75806 0.0
H563 H 0.56722 0.70553 0.80628 0.0
H564 H 0.55331 0.75312 0.80714 0.0
H565 H 0.48516 0.72302 0.81542 0.0
H566 H 0.49863 0.67522 0.81405 0.0
H567 H 0.55835 0.55081 0.93643 0.0
H568 H 0.5704 0.58296 0.88729 0.0
H569 H 0.50082 0.60198 0.86184 0.0
H570 H 0.48869 0.57055 0.91171 0.0
H571 H 0.52543 0.64732 0.86063 0.0
H572 H 0.53144 0.55674 0.80695 0.0
H573 H 0.54426 0.50871 0.80434 0.0
H574 H 0.61329 0.53659 0.80409 0.0
H575 H 0.60087 0.5848 0.8072 0.0
C576 C 0.54885 0.68961 0.6893 0.0
C577 C 0.57137 0.694 0.67871 0.0
C578 C 0.5439 0.67549 0.72266 0.0
C579 C 0.56137 0.66552 0.74603 0.0
C580 C 0.58387 0.67036 0.73595 0.0
C581 C 0.58883 0.68461 0.70268 0.0
C582 C 0.55612 0.64852 0.77965 0.0
C583 C 0.56404 0.62146 0.78087 0.0
C584 C 0.54209 0.65803 0.80879 0.0
C585 C 0.53393 0.68677 0.80974 0.0
C586 C 0.54925 0.70905 0.80797 0.0
C587 C 0.54145 0.73607 0.80861 0.0
C588 C 0.51836 0.74109 0.81125 0.0
C589 C 0.50303 0.7191 0.81334 0.0
C590 C 0.51075 0.69203 0.81268 0.0
C591 C 0.54562 0.56189 0.92042 0.0
C592 C 0.52256 0.55799 0.92775 0.0
C593 C 0.55253 0.58021 0.89228 0.0
C594 C 0.53649 0.59457 0.87047 0.0
C595 C 0.51349 0.59112 0.87829 0.0
C596 C 0.50658 0.57306 0.90671 0.0
C597 C 0.54358 0.61273 0.83891 0.0
C598 C 0.53597 0.63997 0.83801 0.0
C599 C 0.55773 0.60332 0.80981 0.0
C600 C 0.56523 0.57435 0.80771 0.0
C601 C 0.54935 0.55262 0.80661 0.0
C602 C 0.55655 0.52536 0.805 0.0
C603 C 0.57958 0.5196 0.80416 0.0
C604 C 0.59546 0.54108 0.80481 0.0
C605 C 0.58835 0.56838 0.80646 0.0
H606 H 0.58512 0.49849 0.80292 0.0
H607 H 0.51235 0.76202 0.81174 0.0
H608 H 0.91804 0.14219 0.14682 0.0
H609 H 0.92915 0.11979 0.20637 0.0
H610 H 0.94926 0.19842 0.25324 0.0
H611 H 0.93755 0.22113 0.19373 0.0
H612 H 0.98226 0.14913 0.25747 0.0
H613 H 0.90733 0.17868 0.28867 0.0
H614 H 0.86648 0.18367 0.27667 0.0
H615 H 0.85845 0.09582 0.27211 0.0
H616 H 0.89933 0.09032 0.28348 0.0
H617 H 0.00501 0.08841 0.43727 0.0
H618 H 0.99303 0.11993 0.38696 0.0
H619 H 0.94541 0.05876 0.34511 0.0
H620 H 0.95646 0.02789 0.39657 0.0
H621 H 0.92631 0.10502 0.34188 0.0
H622 H 0.99898 0.07345 0.30304 0.0
H623 H 0.03981 0.06503 0.30973 0.0
H624 H 0.05244 0.15172 0.32258 0.0
H625 H 0.01163 0.16063 0.31642 0.0
C626 C 0.92478 0.15467 0.1699 0.0
C627 C 0.92703 0.1833 0.16589 0.0
C628 C 0.93105 0.1419 0.20379 0.0
C629 C 0.93998 0.15752 0.23399 0.0
C630 C 0.94237 0.18613 0.2301 0.0
C631 C 0.93564 0.19902 0.19635 0.0
C632 C 0.94702 0.14351 0.2693 0.0
C633 C 0.97012 0.13993 0.27651 0.0
C634 C 0.93106 0.13086 0.29313 0.0
C635 C 0.90643 0.13411 0.2866 0.0
C636 C 0.89689 0.16044 0.28477 0.0
C637 C 0.87372 0.16335 0.27815 0.0
C638 C 0.85988 0.14008 0.27354 0.0
C639 C 0.86919 0.11383 0.27565 0.0
C640 C 0.89236 0.11081 0.28222 0.0
C641 C 0.99199 0.08175 0.41727 0.0
C642 C 0.98171 0.05569 0.42067 0.0
C643 C 0.98522 0.09972 0.38843 0.0
C644 C 0.96855 0.09162 0.36176 0.0
C645 C 0.95825 0.06557 0.36532 0.0
C646 C 0.96464 0.04788 0.39465 0.0
C647 C 0.96173 0.11009 0.33008 0.0
C648 C 0.93861 0.11448 0.32337 0.0
C649 C 0.9777 0.12296 0.30617 0.0
C650 C 0.00224 0.11767 0.3097 0.0
C651 C 0.01046 0.0907 0.30756 0.0
C652 C 0.03359 0.08584 0.31121 0.0
C653 C 0.04871 0.10782 0.3167 0.0
C654 C 0.04071 0.13471 0.31841 0.0
C655 C 0.01758 0.13968 0.31481 0.0
H656 H 0.06661 0.10402 0.31953 0.0
H657 H 0.84194 0.14238 0.26842 0.0
H658 H 0.42995 0.33772 0.65677 0.0
H659 H 0.44375 0.36417 0.71119 0.0
H660 H 0.4414 0.29117 0.78064 0.0
H661 H 0.42749 0.26438 0.72592 0.0
H662 H 0.42454 0.33453 0.81737 0.0
H663 H 0.49161 0.31563 0.7506 0.0
H664 H 0.51628 0.31279 0.6952 0.0
H665 H 0.51321 0.4004 0.68098 0.0
H666 H 0.48824 0.40374 0.73598 0.0
H667 H 0.51591 0.42291 0.92723 0.0
H668 H 0.50554 0.38804 0.88001 0.0
H669 H 0.43912 0.42286 0.86899 0.0
H670 H 0.44921 0.45752 0.91666 0.0
H671 H 0.49384 0.39232 0.80794 0.0
H672 H 0.40062 0.37253 0.85052 0.0
H673 H 0.3778 0.37246 0.90834 0.0
H674 H 0.43701 0.35615 0.97608 0.0
H675 H 0.46012 0.35572 0.91864 0.0
C676 C 0.43262 0.32717 0.68348 0.0
C677 C 0.4279 0.29887 0.68695 0.0
C678 C 0.44047 0.34235 0.7146 0.0
C679 C 0.44395 0.32956 0.74981 0.0
C680 C 0.43889 0.30141 0.75365 0.0
C681 C 0.43094 0.28616 0.72244 0.0
C682 C 0.45264 0.3459 0.78249 0.0
C683 C 0.43975 0.34707 0.81542 0.0
C684 C 0.47277 0.36176 0.78026 0.0
C685 C 0.48792 0.3599 0.74729 0.0
C686 C 0.49607 0.33428 0.73552 0.0
C687 C 0.51012 0.33258 0.7042 0.0
C688 C 0.51628 0.3564 0.68455 0.0
C689 C 0.50842 0.38197 0.69623 0.0
C690 C 0.49434 0.38378 0.7275 0.0
C691 C 0.49908 0.42314 0.91481 0.0
C692 C 0.48336 0.44297 0.92574 0.0
C693 C 0.4932 0.4032 0.8878 0.0
C694 C 0.47149 0.40264 0.87131 0.0
C695 C 0.45584 0.42259 0.88186 0.0
C696 C 0.46168 0.4425 0.90895 0.0
C697 C 0.46535 0.38164 0.84234 0.0
C698 C 0.47874 0.37961 0.81007 0.0
C699 C 0.44597 0.36455 0.84559 0.0
C700 C 0.43212 0.36433 0.88026 0.0
C701 C 0.40875 0.36879 0.87772 0.0
C702 C 0.39577 0.36886 0.91045 0.0
C703 C 0.40596 0.36438 0.94587 0.0
C704 C 0.42915 0.35971 0.94864 0.0
C705 C 0.4422 0.35959 0.91601 0.0
H706 H 0.39588 0.36448 0.97117 0.0
H707 H 0.52716 0.35504 0.66031 0.0
H708 H 0.58794 0.66264 0.35764 0.0
H709 H 0.57501 0.63598 0.3023 0.0
H710 H 0.55125 0.71023 0.24886 0.0
H711 H 0.56479 0.73722 0.30399 0.0
H712 H 0.51978 0.65645 0.25515 0.0
H713 H 0.59074 0.69361 0.20993 0.0
H714 H 0.63148 0.70398 0.21597 0.0
H715 H 0.64525 0.61792 0.22877 0.0
H716 H 0.60453 0.60709 0.22342 0.0
H717 H 0.49361 0.58765 0.08151 0.0
H718 H 0.50525 0.62162 0.12928 0.0
H719 H 0.55809 0.56759 0.16829 0.0
H720 H 0.54722 0.53427 0.11938 0.0
H721 H 0.57429 0.61606 0.16628 0.0
H722 H 0.50618 0.57721 0.2164 0.0
H723 H 0.46596 0.56356 0.21606 0.0
H724 H 0.44697 0.64785 0.20062 0.0
H725 H 0.48711 0.66197 0.20039 0.0
C726 C 0.57997 0.67324 0.33405 0.0
C727 C 0.5773 0.70189 0.33488 0.0
C728 C 0.57264 0.65805 0.30257 0.0
C729 C 0.56222 0.67123 0.27172 0.0
C730 C 0.55928 0.69982 0.27254 0.0
C731 C 0.56706 0.71515 0.3038 0.0
C732 C 0.55451 0.65477 0.23874 0.0
C733 C 0.53154 0.648 0.23512 0.0
C734 C 0.57009 0.64314 0.21372 0.0
C735 C 0.59458 0.64958 0.21665 0.0
C736 C 0.60244 0.67693 0.21441 0.0
C737 C 0.62553 0.68288 0.21763 0.0
C738 C 0.64094 0.66163 0.22285 0.0
C739 C 0.63329 0.63436 0.22477 0.0
C740 C 0.61021 0.62831 0.22161 0.0
C741 C 0.50766 0.58303 0.10038 0.0
C742 C 0.51948 0.5583 0.09683 0.0
C743 C 0.51425 0.60241 0.12779 0.0
C744 C 0.53237 0.59706 0.15284 0.0
C745 C 0.54411 0.57228 0.14929 0.0
C746 C 0.53783 0.55319 0.12141 0.0
C747 C 0.53937 0.61727 0.18253 0.0
C748 C 0.56231 0.62469 0.18577 0.0
C749 C 0.52378 0.62902 0.20774 0.0
C750 C 0.49964 0.6206 0.20794 0.0
C751 C 0.49342 0.59281 0.21264 0.0
C752 C 0.47064 0.58499 0.2126 0.0
C753 C 0.45392 0.60481 0.20819 0.0
C754 C 0.45994 0.63251 0.20395 0.0
C755 C 0.4827 0.64043 0.20393 0.0
H756 H 0.43629 0.59872 0.20817 0.0
H757 H 0.65881 0.66627 0.22533 0.0
H758 H 0.94735 0.20303 0.83679 0.0
H759 H 0.96061 0.17622 0.783 0.0
H760 H 0.89171 0.1612 0.7466 0.0
H761 H 0.87834 0.18783 0.80056 0.0
H762 H 0.91731 0.11371 0.75153 0.0
H763 H 0.92344 0.20413 0.69705 0.0
H764 H 0.93572 0.25274 0.69498 0.0
H765 H 0.00507 0.2282 0.70009 0.0
H766 H 0.9932 0.17943 0.70274 0.0
H767 H 0.94174 0.04787 0.57917 0.0
H768 H 0.92743 0.07971 0.62631 0.0
H769 H 0.99562 0.10476 0.65566 0.0
H770 H 0.01003 0.07359 0.60762 0.0
H771 H 0.96969 0.148 0.65349 0.0
H772 H 0.96503 0.05884 0.71051 0.0
H773 H 0.9542 0.00982 0.71459 0.0
H774 H 0.88414 0.03114 0.70848 0.0
H775 H 0.89455 0.0803 0.7036 0.0
C776 C 0.93506 0.19418 0.81713 0.0
C777 C 0.91182 0.19749 0.82282 0.0
C778 C 0.94264 0.17902 0.78634 0.0
C779 C 0.92712 0.16684 0.76079 0.0
C780 C 0.90393 0.17051 0.766 0.0
C781 C 0.89634 0.18587 0.79662 0.0
C782 C 0.9351 0.14906 0.72982 0.0
C783 C 0.92846 0.12127 0.72968 0.0
C784 C 0.95024 0.15881 0.70219 0.0
C785 C 0.95742 0.18812 0.70044 0.0
C786 C 0.94131 0.2091 0.69805 0.0
C787 C 0.94819 0.23668 0.69671 0.0
C788 C 0.97116 0.24356 0.6975 0.0
C789 C 0.98729 0.22285 0.69952 0.0
C790 C 0.98049 0.19523 0.7009 0.0
C791 C 0.9537 0.06018 0.59564 0.0
C792 C 0.97703 0.05809 0.58987 0.0
C793 C 0.9455 0.07831 0.62266 0.0
C794 C 0.96047 0.0943 0.645 0.0
C795 C 0.98375 0.0926 0.63882 0.0
C796 C 0.99196 0.07471 0.61144 0.0
C797 C 0.95186 0.11256 0.67507 0.0
C798 C 0.95844 0.14042 0.67518 0.0
C799 C 0.93689 0.10279 0.70305 0.0
C800 C 0.93058 0.07325 0.70631 0.0
C801 C 0.94731 0.05307 0.70976 0.0
C802 C 0.94125 0.02526 0.71226 0.0
C803 C 0.91851 0.01737 0.71176 0.0
C804 C 0.90176 0.03729 0.70882 0.0
C805 C 0.90773 0.06513 0.70618 0.0
H806 H 0.91386 0.99582 0.71371 0.0
H807 H 0.97646 0.26492 0.69645 0.0
H808 H 0.44722 0.34658 0.37353 0.0
H809 H 0.45482 0.37132 0.31523 0.0
H810 H 0.43155 0.30131 0.24976 0.0
H811 H 0.42521 0.27555 0.30831 0.0
H812 H 0.46685 0.32335 0.21747 0.0
H813 H 0.39765 0.3575 0.262 0.0
H814 H 0.37106 0.37626 0.30807 0.0
H815 H 0.4127 0.44864 0.32114 0.0
H816 H 0.43973 0.43013 0.27554 0.0
H817 H 0.4437 0.45109 0.08426 0.0
H818 H 0.43127 0.41805 0.13204 0.0
H819 H 0.50071 0.3991 0.15881 0.0
H820 H 0.51319 0.43133 0.11025 0.0
H821 H 0.43643 0.41758 0.20395 0.0
H822 H 0.50638 0.33466 0.19018 0.0
H823 H 0.52898 0.31378 0.13991 0.0
H824 H 0.4783 0.33487 0.05688 0.0
H825 H 0.45524 0.35551 0.10668 0.0
C826 C 0.44414 0.3361 0.34684 0.0
C827 C 0.43559 0.30898 0.34576 0.0
C828 C 0.44818 0.3505 0.31344 0.0
C829 C 0.4433 0.33841 0.27811 0.0
C830 C 0.43527 0.31113 0.27673 0.0
C831 C 0.43146 0.29653 0.31025 0.0
C832 C 0.44647 0.35453 0.24285 0.0
C833 C 0.46013 0.3439 0.21438 0.0
C834 C 0.43706 0.38099 0.23821 0.0
C835 C 0.42079 0.39233 0.26551 0.0
C836 C 0.40121 0.37734 0.27487 0.0
C837 C 0.38606 0.38794 0.30089 0.0
C838 C 0.39021 0.4136 0.31757 0.0
C839 C 0.40951 0.42875 0.3082 0.0
C840 C 0.42474 0.41823 0.28223 0.0
C841 C 0.45631 0.43974 0.10018 0.0
C842 C 0.47943 0.44379 0.0935 0.0
C843 C 0.44918 0.42087 0.12748 0.0
C844 C 0.46502 0.40581 0.14874 0.0
C845 C 0.48813 0.40996 0.14218 0.0
C846 C 0.49526 0.42855 0.11458 0.0
C847 C 0.45752 0.38684 0.17913 0.0
C848 C 0.44299 0.39693 0.20673 0.0
C849 C 0.46552 0.35957 0.18226 0.0
C850 C 0.47917 0.34684 0.15218 0.0
C851 C 0.5 0.33472 0.16123 0.0
C852 C 0.5129 0.32295 0.13281 0.0
C853 C 0.50511 0.32307 0.09522 0.0
C854 C 0.48435 0.33487 0.08598 0.0
C855 C 0.47137 0.34664 0.1143 0.0
H856 H 0.51514 0.31397 0.07325 0.0
H857 H 0.37846 0.42177 0.33771 0.0
H858 H 0.06232 0.78535 0.82735 0.0
H859 H 0.04967 0.80955 0.76984 0.0
H860 H 0.07701 0.8857 0.81523 0.0
H861 H 0.08848 0.86175 0.87321 0.0
H862 H 0.03831 0.89547 0.78794 0.0
H863 H 0.10214 0.84694 0.74094 0.0
H864 H 0.12554 0.80654 0.72779 0.0
H865 H 0.07174 0.77109 0.66022 0.0
H866 H 0.0479 0.81114 0.67338 0.0
H867 H 0.04744 0.97423 0.61875 0.0
H868 H 0.058 0.94416 0.6716 0.0
H869 H 0.00589 0.88614 0.63785 0.0
H870 H 0.99477 0.91646 0.58525 0.0
H871 H 0.05429 0.86514 0.65697 0.0
H872 H 0.99154 0.91745 0.7046 0.0
H873 H 0.97113 0.96041 0.7165 0.0
H874 H 0.0275 0.9915 0.7822 0.0
H875 H 0.04838 0.94883 0.7702 0.0
C876 C 0.0657 0.80721 0.82468 0.0
C877 C 0.07627 0.82182 0.85443 0.0
C878 C 0.05859 0.82101 0.79185 0.0
C879 C 0.06253 0.84948 0.78796 0.0
C880 C 0.07361 0.86382 0.81755 0.0
C881 C 0.08025 0.85016 0.85057 0.0
C882 C 0.05446 0.86475 0.75391 0.0
C883 C 0.04205 0.88886 0.75939 0.0
C884 C 0.05885 0.85598 0.71645 0.0
C885 C 0.07315 0.83189 0.7085 0.0
C886 C 0.09523 0.83043 0.72353 0.0
C887 C 0.10859 0.80761 0.71603 0.0
C888 C 0.1001 0.78623 0.69328 0.0
C889 C 0.07827 0.78765 0.6779 0.0
C890 C 0.06483 0.81041 0.68534 0.0
C891 C 0.03826 0.95503 0.62246 0.0
C892 C 0.02022 0.94772 0.59799 0.0
C893 C 0.04433 0.93792 0.65261 0.0
C894 C 0.03271 0.91303 0.65844 0.0
C895 C 0.01505 0.90529 0.6336 0.0
C896 C 0.00867 0.92266 0.6038 0.0
C897 C 0.03862 0.89574 0.69144 0.0
C898 C 0.05053 0.8714 0.68567 0.0
C899 C 0.0342 0.90451 0.72867 0.0
C900 C 0.02159 0.93006 0.73619 0.0
C901 C 0.99966 0.93355 0.72129 0.0
C902 C 0.98799 0.95783 0.72811 0.0
C903 C 0.99804 0.97871 0.75001 0.0
C904 C 0.01975 0.97532 0.76521 0.0
C905 C 0.03149 0.95108 0.75844 0.0
H906 H 0.98899 0.9975 0.7553 0.0
H907 H 0.11047 0.76858 0.6875 0.0
loop_
_geom_bond_atom_site_label_1
_geom_bond_atom_site_label_2
_geom_bond_distance
_geom_bond_site_symmetry_2
_ccdc_geom_bond_type
C0 C1 1.391 . S
C0 C4 1.391 . S
C0 H42 0.948 . S
C1 C0 1.391 . S
C1 C2 1.391 . S
C2 C1 1.391 . S
C2 H58 0.947 . S
C2 C59 1.392 . S
C3 C4 1.391 . S
C3 C7 1.397 . S
C3 C59 1.419 . S
C4 C0 1.391 . S
C4 C3 1.391 . S
C4 C5 1.399 . S
C5 C4 1.399 . S
C5 C8 1.396 . S
C5 C17 1.453 . S
C5 C18 1.684 . S
H6 C30 0.948 . S
C7 C3 1.397 . S
C7 C8 1.394 . S
C7 C26 1.723 1_556 S
C8 C5 1.396 . S
C8 C7 1.394 . S
C8 C38 1.723 1_556 S
H9 C32 0.947 . S
H10 C33 0.948 . S
H11 C39 0.982 . S
H12 C40 0.979 . S
H13 C40 0.980 . S
H14 C40 0.983 . S
H15 C39 0.979 . S
H16 C39 0.977 . S
C17 C5 1.453 . S
C17 H46 0.982 . S
C17 H47 0.979 . S
C17 H48 0.977 . S
C18 C5 1.684 . S
C18 H43 0.979 . S
C18 H44 0.980 . S
C18 H45 0.983 . S
C19 C20 1.391 . S
C19 C24 1.391 . S
C19 H49 0.948 . S
C20 C19 1.391 . S
C20 C21 1.391 . S
C21 C20 1.391 . S
C21 C22 1.392 . S
C21 H50 0.947 . S
C22 C21 1.392 . S
C22 C23 1.419 . S
C22 H51 0.948 . S
C23 C22 1.419 . S
C23 C24 1.391 . S
C23 C27 1.397 . S
C24 C19 1.391 . S
C24 C23 1.391 . S
C24 C25 1.399 . S
C25 C24 1.399 . S
C25 C26 1.396 . S
C25 C28 1.453 . S
C25 C29 1.684 . S
C26 C7 1.723 1_554 S
C26 C25 1.396 . S
C26 C27 1.394 . S
C27 C23 1.397 . S
C27 C26 1.394 . S
C27 C37 1.723 . S
C28 C25 1.453 . S
C28 H52 0.982 . S
C28 H53 0.979 . S
C28 H54 0.977 . S
C29 C25 1.684 . S
C29 H55 0.979 . S
C29 H56 0.980 . S
C29 H57 0.983 . S
C30 H6 0.948 . S
C30 C31 1.391 . S
C30 C35 1.391 . S
C31 C30 1.391 . S
C31 C32 1.391 1_554 S
C32 H9 0.947 . S
C32 C31 1.391 1_556 S
C32 C33 1.392 . S
C33 H10 0.948 . S
C33 C32 1.392 . S
C33 C34 1.419 1_556 S
C34 C33 1.419 1_554 S
C34 C35 1.391 . S
C34 C38 1.397 . S
C35 C30 1.391 . S
C35 C34 1.391 . S
C35 C36 1.399 . S
C36 C35 1.399 . S
C36 C37 1.396 . S
C36 C39 1.453 . S
C36 C40 1.684 . S
C37 C27 1.723 . S
C37 C36 1.396 . S
C37 C38 1.394 . S
C38 C8 1.723 1_554 S
C38 C34 1.397 . S
C38 C37 1.394 . S
C39 H11 0.982 . S
C39 H15 0.979 . S
C39 H16 0.977 . S
C39 C36 1.453 . S
C40 H12 0.979 . S
C40 H13 0.980 . S
C40 H14 0.983 . S
C40 C36 1.684 . S
H41 C59 0.948 . S
H42 C0 0.948 . S
H43 C18 0.979 . S
H44 C18 0.980 . S
H45 C18 0.983 . S
H46 C17 0.982 . S
H47 C17 0.979 . S
H48 C17 0.977 . S
H49 C19 0.948 . S
H50 C21 0.947 . S
H51 C22 0.948 . S
H52 C28 0.982 . S
H53 C28 0.979 . S
H54 C28 0.977 . S
H55 C29 0.979 . S
H56 C29 0.980 . S
H57 C29 0.983 . S
H58 C2 0.947 . S
C59 C2 1.392 . S
C59 C3 1.419 . S
C59 H41 0.948 . S
C60 C61 1.391 . S
C60 C64 1.391 . S
C60 H102 0.948 . S
C61 C60 1.391 . S
C61 C62 1.391 . S
C62 C61 1.391 . S
C62 H118 0.947 . S
C62 C119 1.392 . S
C63 C64 1.391 . S
C63 C67 1.397 . S
C63 C119 1.419 . S
C64 C60 1.391 . S
C64 C63 1.391 . S
C64 C65 1.399 . S
C65 C64 1.399 . S
C65 C68 1.396 . S
C65 C77 1.453 . S
C65 C78 1.684 . S
H66 C90 0.948 . S
C67 C63 1.397 . S
C67 C68 1.394 . S
C67 C86 1.723 . S
C68 C65 1.396 . S
C68 C67 1.394 . S
C68 C98 1.723 . S
H69 C92 0.947 . S
H70 C93 0.948 . S
H71 C99 0.982 . S
H72 C100 0.979 . S
H73 C100 0.980 . S
H74 C100 0.983 . S
H75 C99 0.979 . S
H76 C99 0.977 . S
C77 C65 1.453 . S
C77 H106 0.982 . S
C77 H107 0.979 . S
C77 H108 0.977 . S
C78 C65 1.684 . S
C78 H103 0.979 . S
C78 H104 0.980 . S
C78 H105 0.983 . S
C79 C80 1.391 . S
C79 C84 1.391 . S
C79 H109 0.948 . S
C80 C79 1.391 . S
C80 C81 1.391 . S
C81 C80 1.391 . S
C81 C82 1.392 . S
C81 H110 0.947 . S
C82 C81 1.392 . S
C82 C83 1.419 . S
C82 H111 0.948 . S
C83 C82 1.419 . S
C83 C84 1.391 . S
C83 C87 1.397 . S
C84 C79 1.391 . S
C84 C83 1.391 . S
C84 C85 1.399 . S
C85 C84 1.399 . S
C85 C86 1.396 . S
C85 C88 1.453 . S
C85 C89 1.684 . S
C86 C67 1.723 . S
C86 C85 1.396 . S
C86 C87 1.394 . S
C87 C83 1.397 . S
C87 C86 1.394 . S
C87 C97 1.723 . S
C88 C85 1.453 . S
C88 H112 0.982 . S
C88 H113 0.979 . S
C88 H114 0.977 . S
C89 C85 1.684 . S
C89 H115 0.979 . S
C89 H116 0.980 . S
C89 H117 0.983 . S
C90 H66 0.948 . S
C90 C91 1.391 . S
C90 C95 1.391 . S
C91 C90 1.391 . S
C91 C92 1.391 . S
C92 H69 0.947 . S
C92 C91 1.391 . S
C92 C93 1.392 . S
C93 H70 0.948 . S
C93 C92 1.392 . S
C93 C94 1.419 . S
C94 C93 1.419 . S
C94 C95 1.391 . S
C94 C98 1.397 . S
C95 C90 1.391 . S
C95 C94 1.391 . S
C95 C96 1.399 . S
C96 C95 1.399 . S
C96 C97 1.396 . S
C96 C99 1.453 . S
C96 C100 1.684 . S
C97 C87 1.723 . S
C97 C96 1.396 . S
C97 C98 1.394 . S
C98 C68 1.723 . S
C98 C94 1.397 . S
C98 C97 1.394 . S
C99 H71 0.982 . S
C99 H75 0.979 . S
C99 H76 0.977 . S
C99 C96 1.453 . S
C100 H72 0.979 . S
C100 H73 0.980 . S
C100 H74 0.983 . S
C100 C96 1.684 . S
H101 C119 0.948 . S
H102 C60 0.948 . S
H103 C78 0.979 . S
H104 C78 0.980 . S
H105 C78 0.983 . S
H106 C77 0.982 . S
H107 C77 0.979 . S
H108 C77 0.977 . S
H109 C79 0.948 . S
H110 C81 0.947 . S
H111 C82 0.948 . S
H112 C88 0.982 . S
H113 C88 0.979 . S
H114 C88 0.977 . S
H115 C89 0.979 . S
H116 C89 0.980 . S
H117 C89 0.983 . S
H118 C62 0.947 . S
C119 C62 1.392 . S
C119 C63 1.419 . S
C119 H101 0.948 . S
C120 C121 1.391 . S
C120 C124 1.391 . S
C120 H162 0.948 . S
C121 C120 1.391 . S
C121 C122 1.391 . S
C122 C121 1.391 . S
C122 H178 0.947 . S
C122 C179 1.392 . S
C123 C124 1.391 . S
C123 C127 1.397 . S
C123 C179 1.419 . S
C124 C120 1.391 . S
C124 C123 1.391 . S
C124 C125 1.399 . S
C125 C124 1.399 . S
C125 C128 1.396 . S
C125 C137 1.453 . S
C125 C138 1.684 . S
H126 C150 0.948 . S
C127 C123 1.397 . S
C127 C128 1.394 . S
C127 C146 1.723 1_554 S
C128 C125 1.396 . S
C128 C127 1.394 . S
C128 C158 1.723 . S
H129 C152 0.947 . S
H130 C153 0.948 . S
H131 C159 0.982 . S
H132 C160 0.979 . S
H133 C160 0.980 . S
H134 C160 0.983 . S
H135 C159 0.979 . S
H136 C159 0.977 . S
C137 C125 1.453 . S
C137 H166 0.982 . S
C137 H167 0.979 . S
C137 H168 0.977 . S
C138 C125 1.684 . S
C138 H163 0.979 . S
C138 H164 0.980 . S
C138 H165 0.983 . S
C139 C140 1.391 . S
C139 C144 1.391 . S
C139 H169 0.948 . S
C140 C139 1.391 . S
C140 C141 1.391 . S
C141 C140 1.391 . S
C141 C142 1.392 . S
C141 H170 0.947 . S
C142 C141 1.392 . S
C142 C143 1.419 . S
C142 H171 0.948 . S
C143 C142 1.419 . S
C143 C144 1.391 . S
C143 C147 1.397 . S
C144 C139 1.391 . S
C144 C143 1.391 . S
C144 C145 1.399 . S
C145 C144 1.399 . S
C145 C146 1.396 . S
C145 C148 1.453 . S
C145 C149 1.684 . S
C146 C127 1.723 1_556 S
C146 C145 1.396 . S
C146 C147 1.394 . S
C147 C143 1.397 . S
C147 C146 1.394 . S
C147 C157 1.723 . S
C148 C145 1.453 . S
C148 H172 0.982 . S
C148 H173 0.979 . S
C148 H174 0.977 1_556 S
C149 C145 1.684 . S
C149 H175 0.979 . S
C149 H176 0.980 1_556 S
C149 H177 0.983 . S
C150 H126 0.948 . S
C150 C151 1.391 1_556 S
C150 C155 1.391 . S
C151 C150 1.391 1_554 S
C151 C152 1.391 . S
C152 H129 0.947 . S
C152 C151 1.391 . S
C152 C153 1.392 . S
C153 H130 0.948 . S
C153 C152 1.392 . S
C153 C154 1.419 . S
C154 C153 1.419 . S
C154 C155 1.391 1_554 S
C154 C158 1.397 . S
C155 C150 1.391 . S
C155 C154 1.391 1_556 S
C155 C156 1.399 . S
C156 C155 1.399 . S
C156 C157 1.396 . S
C156 C159 1.453 . S
C156 C160 1.684 . S
C157 C147 1.723 . S
C157 C156 1.396 . S
C157 C158 1.394 1_556 S
C158 C128 1.723 . S
C158 C154 1.397 . S
C158 C157 1.394 1_554 S
C159 H131 0.982 . S
C159 H135 0.979 . S
C159 H136 0.977 . S
C159 C156 1.453 . S
C160 H132 0.979 . S
C160 H133 0.980 . S
C160 H134 0.983 . S
C160 C156 1.684 . S
H161 C179 0.948 . S
H162 C120 0.948 . S
H163 C138 0.979 . S
H164 C138 0.980 . S
H165 C138 0.983 . S
H166 C137 0.982 . S
H167 C137 0.979 . S
H168 C137 0.977 . S
H169 C139 0.948 . S
H170 C141 0.947 . S
H171 C142 0.948 . S
H172 C148 0.982 . S
H173 C148 0.979 . S
H174 C148 0.977 1_554 S
H175 C149 0.979 . S
H176 C149 0.980 1_554 S
H177 C149 0.983 . S
H178 C122 0.947 . S
C179 C122 1.392 . S
C179 C123 1.419 . S
C179 H161 0.948 . S
C180 C181 1.391 . S
C180 C184 1.391 . S
C180 H222 0.948 . S
C181 C180 1.391 . S
C181 C182 1.391 . S
C182 C181 1.391 . S
C182 H238 0.947 . S
C182 C239 1.392 . S
C183 C184 1.391 . S
C183 C187 1.397 . S
C183 C239 1.419 . S
C184 C180 1.391 . S
C184 C183 1.391 . S
C184 C185 1.399 . S
C185 C184 1.399 . S
C185 C188 1.396 . S
C185 C197 1.453 . S
C185 C198 1.684 . S
H186 C210 0.948 . S
C187 C183 1.397 . S
C187 C188 1.394 . S
C187 C206 1.723 . S
C188 C185 1.396 . S
C188 C187 1.394 . S
C188 C218 1.723 . S
H189 C212 0.947 . S
H190 C213 0.948 . S
H191 C219 0.982 . S
H192 C220 0.979 . S
H193 C220 0.980 . S
H194 C220 0.983 . S
H195 C219 0.979 . S
H196 C219 0.977 . S
C197 C185 1.453 . S
C197 H226 0.982 . S
C197 H227 0.979 . S
C197 H228 0.977 . S
C198 C185 1.684 . S
C198 H223 0.979 . S
C198 H224 0.980 . S
C198 H225 0.983 . S
C199 C200 1.391 . S
C199 C204 1.391 . S
C199 H229 0.948 . S
C200 C199 1.391 . S
C200 C201 1.391 . S
C201 C200 1.391 . S
C201 C202 1.392 . S
C201 H230 0.947 . S
C202 C201 1.392 . S
C202 C203 1.419 . S
C202 H231 0.948 . S
C203 C202 1.419 . S
C203 C204 1.391 . S
C203 C207 1.397 . S
C204 C199 1.391 . S
C204 C203 1.391 . S
C204 C205 1.399 . S
C205 C204 1.399 . S
C205 C206 1.396 . S
C205 C208 1.453 . S
C205 C209 1.684 . S
C206 C187 1.723 . S
C206 C205 1.396 . S
C206 C207 1.394 . S
C207 C203 1.397 . S
C207 C206 1.394 . S
C207 C217 1.723 . S
C208 C205 1.453 . S
C208 H232 0.982 . S
C208 H233 0.979 . S
C208 H234 0.977 . S
C209 C205 1.684 . S
C209 H235 0.979 . S
C209 H236 0.980 . S
C209 H237 0.983 . S
C210 H186 0.948 . S
C210 C211 1.391 . S
C210 C215 1.391 . S
C211 C210 1.391 . S
C211 C212 1.391 . S
C212 H189 0.947 . S
C212 C211 1.391 . S
C212 C213 1.392 . S
C213 H190 0.948 . S
C213 C212 1.392 . S
C213 C214 1.419 . S
C214 C213 1.419 . S
C214 C215 1.391 . S
C214 C218 1.397 . S
C215 C210 1.391 . S
C215 C214 1.391 . S
C215 C216 1.399 . S
C216 C215 1.399 . S
C216 C217 1.396 . S
C216 C219 1.453 . S
C216 C220 1.684 . S
C217 C207 1.723 . S
C217 C216 1.396 . S
C217 C218 1.394 . S
C218 C188 1.723 . S
C218 C214 1.397 . S
C218 C217 1.394 . S
C219 H191 0.982 . S
C219 H195 0.979 . S
C219 H196 0.977 . S
C219 C216 1.453 . S
C220 H192 0.979 . S
C220 H193 0.980 . S
C220 H194 0.983 . S
C220 C216 1.684 . S
H221 C239 0.948 . S
H222 C180 0.948 . S
H223 C198 0.979 . S
H224 C198 0.980 . S
H225 C198 0.983 . S
H226 C197 0.982 . S
H227 C197 0.979 . S
H228 C197 0.977 . S
H229 C199 0.948 . S
H230 C201 0.947 . S
H231 C202 0.948 . S
H232 C208 0.982 . S
H233 C208 0.979 . S
H234 C208 0.977 . S
H235 C209 0.979 . S
H236 C209 0.980 . S
H237 C209 0.983 . S
H238 C182 0.947 . S
C239 C182 1.392 . S
C239 C183 1.419 . S
C239 H221 0.948 . S
C240 O256 1.251 . S
C240 O258 1.254 1_455 S
N241 C242 1.333 . S
N241 C246 1.307 . S
N241 Zn247 2.020 . S
C242 N241 1.333 . S
C242 C243 1.379 . S
C242 H260 0.952 . S
C243 C242 1.379 . S
C243 C244 1.390 . S
C243 H270 0.949 . S
C244 C243 1.390 . S
C244 C245 1.357 . S
C245 C244 1.357 . S
C245 C246 1.370 . S
C245 H271 0.950 . S
C246 N241 1.307 . S
C246 C245 1.370 . S
C246 H264 0.948 . S
Zn247 N241 2.020 . S
Zn247 O256 2.039 1_545 S
Zn247 O262 2.034 1_545 S
Zn247 O266 2.025 . S
Zn247 O268 2.024 . S
C248 O267 1.246 . S
C248 O268 1.249 1_655 S
N249 C250 1.307 . S
N249 C251 1.333 . S
N249 Zn255 2.020 . S
C250 N249 1.307 . S
C250 C254 1.370 . S
C250 H261 0.948 . S
C251 N249 1.333 . S
C251 C252 1.379 . S
C251 H259 0.952 1_565 S
C252 C251 1.379 . S
C252 C253 1.390 . S
C252 H272 0.949 . S
C253 C252 1.390 . S
C253 C254 1.357 . S
C254 C250 1.370 . S
C254 C253 1.357 . S
C254 H273 0.950 . S
Zn255 N249 2.020 . S
Zn255 O258 2.025 . S
Zn255 O263 2.024 . S
Zn255 O265 2.039 1_565 S
Zn255 O267 2.034 1_565 S
O256 C240 1.251 . S
O256 Zn247 2.039 1_565 S
C257 O262 1.246 . S
C257 O263 1.249 1_455 S
O258 C240 1.254 1_655 S
O258 Zn255 2.025 . S
H259 C251 0.952 1_545 S
H260 C242 0.952 . S
H261 C250 0.948 . S
O262 Zn247 2.034 1_565 S
O262 C257 1.246 . S
O263 Zn255 2.024 . S
O263 C257 1.249 1_655 S
H264 C246 0.948 . S
O265 Zn255 2.039 1_545 S
O265 C269 1.251 . S
O266 Zn247 2.025 . S
O266 C269 1.254 1_455 S
O267 C248 1.246 . S
O267 Zn255 2.034 1_545 S
O268 Zn247 2.024 . S
O268 C248 1.249 1_455 S
C269 O265 1.251 . S
C269 O266 1.254 1_655 S
H270 C243 0.949 . S
H271 C245 0.950 . S
H272 C252 0.949 . S
H273 C254 0.950 . S
C274 O290 1.251 . S
C274 O292 1.254 . S
N275 C276 1.334 1_554 S
N275 C280 1.307 . S
N275 Zn281 2.020 . S
C276 N275 1.334 1_556 S
C276 C277 1.379 . S
C276 H294 0.951 . S
C277 C276 1.379 . S
C277 C278 1.390 1_556 S
C277 H304 0.949 . S
C278 C277 1.390 1_554 S
C278 C279 1.357 . S
C279 C278 1.357 . S
C279 C280 1.370 . S
C279 H305 0.950 . S
C280 N275 1.307 . S
C280 C279 1.370 . S
C280 H298 0.948 . S
Zn281 N275 2.020 . S
Zn281 O290 2.039 1_554 S
Zn281 O296 2.034 . S
Zn281 O300 2.025 . S
Zn281 O302 2.024 1_554 S
C282 O301 1.246 . S
C282 O302 1.249 . S
N283 C284 1.313 . S
N283 C285 1.333 . S
N283 Zn289 2.020 . S
C284 N283 1.313 . S
C284 C288 1.371 . S
C284 H295 0.942 1_554 S
C285 N283 1.333 . S
C285 C286 1.379 . S
C285 H293 0.952 . S
C286 C285 1.379 . S
C286 C287 1.390 . S
C286 H306 0.949 . S
C287 C286 1.390 . S
C287 C288 1.357 . S
C288 C284 1.371 . S
C288 C287 1.357 . S
C288 H307 0.950 1_554 S
Zn289 N283 2.020 . S
Zn289 O292 2.025 1_554 S
Zn289 O297 2.024 . S
Zn289 O299 2.039 . S
Zn289 O301 2.034 1_554 S
O290 C274 1.251 . S
O290 Zn281 2.039 1_556 S
C291 O296 1.246 . S
C291 O297 1.249 . S
O292 C274 1.254 . S
O292 Zn289 2.025 1_556 S
H293 C285 0.952 . S
H294 C276 0.951 . S
H295 C284 0.942 1_556 S
O296 Zn281 2.034 . S
O296 C291 1.246 . S
O297 Zn289 2.024 . S
O297 C291 1.249 . S
H298 C280 0.948 . S
O299 Zn289 2.039 . S
O299 C303 1.251 . S
O300 Zn281 2.025 . S
O300 C303 1.254 . S
O301 C282 1.246 . S
O301 Zn289 2.034 1_556 S
O302 Zn281 2.024 1_556 S
O302 C282 1.249 . S
C303 O299 1.251 . S
C303 O300 1.254 . S
H304 C277 0.949 . S
H305 C279 0.950 . S
H306 C286 0.949 . S
H307 C288 0.950 1_556 S
H308 C326 0.951 . S
H309 C328 0.951 . S
H310 C330 0.950 . S
H311 C331 0.950 . S
H312 C333 0.950 . S
H313 C336 0.950 . S
H314 C337 0.950 . S
H315 C339 0.950 . S
H316 C340 0.950 . S
H317 C341 0.951 . S
H318 C343 0.951 . S
H319 C345 0.950 . S
H320 C346 0.950 . S
H321 C348 0.950 . S
H322 C351 0.950 . S
H323 C352 0.950 . S
H324 C354 0.950 1_565 S
H325 C355 0.950 . S
C326 H308 0.951 . S
C326 C327 1.366 . S
C326 C328 1.388 . S
C327 C326 1.366 . S
C327 C331 1.385 . S
C328 H309 0.951 . S
C328 C326 1.388 . S
C328 C329 1.366 . S
C329 C328 1.366 . S
C329 C330 1.414 . S
C329 C332 1.499 . S
C330 H310 0.950 . S
C330 C329 1.414 . S
C330 C331 1.374 . S
C331 H311 0.950 . S
C331 C327 1.385 . S
C331 C330 1.374 . S
C332 C329 1.499 . S
C332 C333 1.373 . S
C332 C334 1.389 . S
C333 H312 0.950 . S
C333 C332 1.373 . S
C333 C349 1.377 . S
C334 C332 1.389 . S
C334 C335 1.524 . S
C334 C348 1.377 . S
C335 C334 1.524 . S
C335 C336 1.397 . S
C335 C340 1.363 . S
C336 H313 0.950 . S
C336 C335 1.397 . S
C336 C337 1.334 . S
C337 H314 0.950 . S
C337 C336 1.334 . S
C337 C338 1.287 . S
C338 C337 1.287 . S
C338 C339 1.524 . S
C338 H357 0.913 . S
C339 H315 0.950 . S
C339 C338 1.524 . S
C339 C340 1.415 . S
C340 H316 0.950 . S
C340 C335 1.363 . S
C340 C339 1.415 . S
C341 H317 0.951 . S
C341 C342 1.366 . S
C341 C343 1.388 . S
C342 C341 1.366 . S
C342 C346 1.385 . S
C343 H318 0.951 . S
C343 C341 1.388 . S
C343 C344 1.366 . S
C344 C343 1.366 . S
C344 C345 1.414 . S
C344 C347 1.499 . S
C345 H319 0.950 . S
C345 C344 1.414 . S
C345 C346 1.374 . S
C346 H320 0.950 . S
C346 C342 1.385 . S
C346 C345 1.374 . S
C347 C344 1.499 . S
C347 C348 1.373 . S
C347 C349 1.389 . S
C348 H321 0.950 . S
C348 C334 1.377 . S
C348 C347 1.373 . S
C349 C333 1.377 . S
C349 C347 1.389 . S
C349 C350 1.524 . S
C350 C349 1.524 . S
C350 C351 1.397 . S
C350 C355 1.363 . S
C351 H322 0.950 . S
C351 C350 1.397 . S
C351 C352 1.334 . S
C352 H323 0.950 . S
C352 C351 1.334 . S
C352 C353 1.287 . S
C353 C352 1.287 . S
C353 C354 1.524 . S
C353 H356 0.999 . S
C354 H324 0.950 1_545 S
C354 C353 1.524 . S
C354 C355 1.415 . S
C355 H325 0.950 . S
C355 C350 1.363 . S
C355 C354 1.415 . S
H356 C353 0.999 . S
H357 C338 0.913 . S
H358 C376 0.951 . S
H359 C378 0.951 . S
H360 C380 0.950 . S
H361 C381 0.950 . S
H362 C383 0.950 . S
H363 C386 0.950 . S
H364 C387 0.950 . S
H365 C389 0.950 . S
H366 C390 0.950 . S
H367 C391 0.951 . S
H368 C393 0.951 . S
H369 C395 0.950 . S
H370 C396 0.950 . S
H371 C398 0.950 . S
H372 C401 0.950 . S
H373 C402 0.950 . S
H374 C404 0.950 . S
H375 C405 0.950 . S
C376 H358 0.951 . S
C376 C377 1.366 . S
C376 C378 1.388 . S
C377 C376 1.366 . S
C377 C381 1.385 . S
C378 H359 0.951 . S
C378 C376 1.388 . S
C378 C379 1.366 . S
C379 C378 1.366 . S
C379 C380 1.414 . S
C379 C382 1.499 . S
C380 H360 0.950 . S
C380 C379 1.414 . S
C380 C381 1.374 . S
C381 H361 0.950 . S
C381 C377 1.385 . S
C381 C380 1.374 . S
C382 C379 1.499 . S
C382 C383 1.373 . S
C382 C384 1.389 1_554 S
C383 H362 0.950 . S
C383 C382 1.373 . S
C383 C399 1.377 . S
C384 C382 1.389 1_556 S
C384 C385 1.524 . S
C384 C398 1.377 . S
C385 C384 1.524 . S
C385 C386 1.397 . S
C385 C390 1.363 . S
C386 H363 0.950 . S
C386 C385 1.397 . S
C386 C387 1.334 . S
C387 H364 0.950 . S
C387 C386 1.334 . S
C387 C388 1.287 . S
C388 C387 1.287 . S
C388 C389 1.524 . S
C388 H407 0.913 . S
C389 H365 0.950 . S
C389 C388 1.524 . S
C389 C390 1.415 . S
C390 H366 0.950 . S
C390 C385 1.363 . S
C390 C389 1.415 . S
C391 H367 0.951 . S
C391 C392 1.366 . S
C391 C393 1.388 . S
C392 C391 1.366 . S
C392 C396 1.385 . S
C393 H368 0.951 . S
C393 C391 1.388 . S
C393 C394 1.366 . S
C394 C393 1.366 . S
C394 C395 1.414 . S
C394 C397 1.499 . S
C395 H369 0.950 . S
C395 C394 1.414 . S
C395 C396 1.374 . S
C396 H370 0.950 . S
C396 C392 1.385 . S
C396 C395 1.374 . S
C397 C394 1.499 . S
C397 C398 1.373 1_554 S
C397 C399 1.389 . S
C398 H371 0.950 . S
C398 C384 1.377 . S
C398 C397 1.373 1_556 S
C399 C383 1.377 . S
C399 C397 1.389 . S
C399 C400 1.524 . S
C400 C399 1.524 . S
C400 C401 1.397 . S
C400 C405 1.363 . S
C401 H372 0.950 . S
C401 C400 1.397 . S
C401 C402 1.334 . S
C402 H373 0.950 . S
C402 C401 1.334 . S
C402 C403 1.287 . S
C403 C402 1.287 . S
C403 C404 1.524 . S
C403 H406 0.999 . S
C404 H374 0.950 . S
C404 C403 1.524 . S
C404 C405 1.415 . S
C405 H375 0.950 . S
C405 C400 1.363 . S
C405 C404 1.415 . S
H406 C403 0.999 . S
H407 C388 0.913 . S
H408 C426 0.951 . S
H409 C428 0.951 . S
H410 C430 0.950 . S
H411 C431 0.950 . S
H412 C433 0.950 . S
H413 C436 0.950 . S
H414 C437 0.950 . S
H415 C439 0.950 . S
H416 C440 0.950 . S
H417 C441 0.951 . S
H418 C443 0.951 . S
H419 C445 0.950 . S
H420 C446 0.950 . S
H421 C448 0.950 . S
H422 C451 0.950 . S
H423 C452 0.950 . S
H424 C454 0.950 . S
H425 C455 0.950 . S
C426 H408 0.951 . S
C426 C427 1.366 . S
C426 C428 1.388 . S
C427 C426 1.366 . S
C427 C431 1.385 . S
C428 H409 0.951 . S
C428 C426 1.388 . S
C428 C429 1.366 . S
C429 C428 1.366 . S
C429 C430 1.414 . S
C429 C432 1.499 . S
C430 H410 0.950 . S
C430 C429 1.414 . S
C430 C431 1.374 . S
C431 H411 0.950 . S
C431 C427 1.385 . S
C431 C430 1.374 . S
C432 C429 1.499 . S
C432 C433 1.373 . S
C432 C434 1.389 . S
C433 H412 0.950 . S
C433 C432 1.373 . S
C433 C449 1.377 . S
C434 C432 1.389 . S
C434 C435 1.524 . S
C434 C448 1.377 . S
C435 C434 1.524 . S
C435 C436 1.397 . S
C435 C440 1.363 . S
C436 H413 0.950 . S
C436 C435 1.397 . S
C436 C437 1.334 . S
C437 H414 0.950 . S
C437 C436 1.334 . S
C437 C438 1.287 . S
C438 C437 1.287 . S
C438 C439 1.524 . S
C438 H457 0.913 . S
C439 H415 0.950 . S
C439 C438 1.524 . S
C439 C440 1.415 . S
C440 H416 0.950 . S
C440 C435 1.363 . S
C440 C439 1.415 . S
C441 H417 0.951 . S
C441 C442 1.366 . S
C441 C443 1.388 . S
C442 C441 1.366 . S
C442 C446 1.385 . S
C443 H418 0.951 . S
C443 C441 1.388 . S
C443 C444 1.366 . S
C444 C443 1.366 . S
C444 C445 1.414 . S
C444 C447 1.499 . S
C445 H419 0.950 . S
C445 C444 1.414 . S
C445 C446 1.374 . S
C446 H420 0.950 . S
C446 C442 1.385 . S
C446 C445 1.374 . S
C447 C444 1.499 . S
C447 C448 1.373 . S
C447 C449 1.389 . S
C448 H421 0.950 . S
C448 C434 1.377 . S
C448 C447 1.373 . S
C449 C433 1.377 . S
C449 C447 1.389 . S
C449 C450 1.524 . S
C450 C449 1.524 . S
C450 C451 1.397 . S
C450 C455 1.363 . S
C451 H422 0.950 . S
C451 C450 1.397 . S
C451 C452 1.334 . S
C452 H423 0.950 . S
C452 C451 1.334 . S
C452 C453 1.287 . S
C453 C452 1.287 . S
C453 C454 1.524 . S
C453 H456 0.999 . S
C454 H424 0.950 . S
C454 C453 1.524 . S
C454 C455 1.415 . S
C455 H425 0.950 . S
C455 C450 1.363 . S
C455 C454 1.415 . S
H456 C453 0.999 . S
H457 C438 0.913 . S
H458 C476 0.951 . S
H459 C478 0.951 . S
H460 C480 0.950 . S
H461 C481 0.950 . S
H462 C483 0.950 . S
H463 C486 0.950 . S
H464 C487 0.950 . S
H465 C489 0.950 . S
H466 C490 0.950 . S
H467 C491 0.951 . S
H468 C493 0.951 . S
H469 C495 0.950 . S
H470 C496 0.950 . S
H471 C498 0.950 . S
H472 C501 0.950 . S
H473 C502 0.950 . S
H474 C504 0.950 . S
H475 C505 0.950 . S
C476 H458 0.951 . S
C476 C477 1.366 . S
C476 C478 1.388 . S
C477 C476 1.366 . S
C477 C481 1.385 1_554 S
C478 H459 0.951 . S
C478 C476 1.388 . S
C478 C479 1.366 . S
C479 C478 1.366 . S
C479 C480 1.414 1_554 S
C479 C482 1.499 . S
C480 H460 0.950 . S
C480 C479 1.414 1_556 S
C480 C481 1.374 . S
C481 H461 0.950 . S
C481 C477 1.385 1_556 S
C481 C480 1.374 . S
C482 C479 1.499 . S
C482 C483 1.373 1_554 S
C482 C484 1.389 . S
C483 H462 0.950 . S
C483 C482 1.373 1_556 S
C483 C499 1.377 . S
C484 C482 1.389 . S
C484 C485 1.524 . S
C484 C498 1.377 . S
C485 C484 1.524 . S
C485 C486 1.397 . S
C485 C490 1.363 . S
C486 H463 0.950 . S
C486 C485 1.397 . S
C486 C487 1.334 . S
C487 H464 0.950 . S
C487 C486 1.334 . S
C487 C488 1.287 . S
C488 C487 1.287 . S
C488 C489 1.524 . S
C488 H507 0.913 . S
C489 H465 0.950 . S
C489 C488 1.524 . S
C489 C490 1.415 . S
C490 H466 0.950 . S
C490 C485 1.363 . S
C490 C489 1.415 . S
C491 H467 0.951 . S
C491 C492 1.366 1_556 S
C491 C493 1.388 . S
C492 C491 1.366 1_554 S
C492 C496 1.385 . S
C493 H468 0.951 . S
C493 C491 1.388 . S
C493 C494 1.366 1_556 S
C494 C493 1.366 1_554 S
C494 C495 1.414 . S
C494 C497 1.499 . S
C495 H469 0.950 . S
C495 C494 1.414 . S
C495 C496 1.374 . S
C496 H470 0.950 . S
C496 C492 1.385 . S
C496 C495 1.374 . S
C497 C494 1.499 . S
C497 C498 1.373 . S
C497 C499 1.389 1_554 S
C498 H471 0.950 . S
C498 C484 1.377 . S
C498 C497 1.373 . S
C499 C483 1.377 . S
C499 C497 1.389 1_556 S
C499 C500 1.524 . S
C500 C499 1.524 . S
C500 C501 1.397 . S
C500 C505 1.363 . S
C501 H472 0.950 . S
C501 C500 1.397 . S
C501 C502 1.334 . S
C502 H473 0.950 . S
C502 C501 1.334 . S
C502 C503 1.287 . S
C503 C502 1.287 . S
C503 C504 1.524 . S
C503 H506 0.999 . S
C504 H474 0.950 . S
C504 C503 1.524 . S
C504 C505 1.415 . S
C505 H475 0.950 . S
C505 C500 1.363 . S
C505 C504 1.415 . S
H506 C503 0.999 . S
H507 C488 0.913 . S
H508 C526 0.951 . S
H509 C528 0.951 . S
H510 C530 0.950 . S
H511 C531 0.950 . S
H512 C533 0.950 . S
H513 C536 0.950 . S
H514 C537 0.950 . S
H515 C539 0.950 . S
H516 C540 0.950 . S
H517 C541 0.951 1_655 S
H518 C543 0.951 . S
H519 C545 0.950 . S
H520 C546 0.950 . S
H521 C548 0.950 . S
H522 C551 0.950 . S
H523 C552 0.950 . S
H524 C554 0.950 . S
H525 C555 0.950 . S
C526 H508 0.951 . S
C526 C527 1.366 . S
C526 C528 1.388 . S
C527 C526 1.366 . S
C527 C531 1.385 . S
C528 H509 0.951 . S
C528 C526 1.388 . S
C528 C529 1.366 . S
C529 C528 1.366 . S
C529 C530 1.414 . S
C529 C532 1.499 . S
C530 H510 0.950 . S
C530 C529 1.414 . S
C530 C531 1.374 . S
C531 H511 0.950 . S
C531 C527 1.385 . S
C531 C530 1.374 . S
C532 C529 1.499 . S
C532 C533 1.373 . S
C532 C534 1.389 . S
C533 H512 0.950 . S
C533 C532 1.373 . S
C533 C549 1.377 . S
C534 C532 1.389 . S
C534 C535 1.524 . S
C534 C548 1.377 . S
C535 C534 1.524 . S
C535 C536 1.397 . S
C535 C540 1.363 . S
C536 H513 0.950 . S
C536 C535 1.397 . S
C536 C537 1.334 . S
C537 H514 0.950 . S
C537 C536 1.334 . S
C537 C538 1.287 . S
C538 C537 1.287 . S
C538 C539 1.524 . S
C538 H557 0.913 . S
C539 H515 0.950 . S
C539 C538 1.524 . S
C539 C540 1.415 . S
C540 H516 0.950 . S
C540 C535 1.363 . S
C540 C539 1.415 . S
C541 H517 0.951 1_455 S
C541 C542 1.366 . S
C541 C543 1.388 . S
C542 C541 1.366 . S
C542 C546 1.385 . S
C543 H518 0.951 . S
C543 C541 1.388 . S
C543 C544 1.366 . S
C544 C543 1.366 . S
C544 C545 1.414 . S
C544 C547 1.499 . S
C545 H519 0.950 . S
C545 C544 1.414 . S
C545 C546 1.374 . S
C546 H520 0.950 . S
C546 C542 1.385 . S
C546 C545 1.374 . S
C547 C544 1.499 . S
C547 C548 1.373 . S
C547 C549 1.389 . S
C548 H521 0.950 . S
C548 C534 1.377 . S
C548 C547 1.373 . S
C549 C533 1.377 . S
C549 C547 1.389 . S
C549 C550 1.524 . S
C550 C549 1.524 . S
C550 C551 1.397 . S
C550 C555 1.363 . S
C551 H522 0.950 . S
C551 C550 1.397 . S
C551 C552 1.334 . S
C552 H523 0.950 . S
C552 C551 1.334 . S
C552 C553 1.287 . S
C553 C552 1.287 . S
C553 C554 1.524 . S
C553 H556 0.999 1_565 S
C554 H524 0.950 . S
C554 C553 1.524 . S
C554 C555 1.415 . S
C555 H525 0.950 . S
C555 C550 1.363 . S
C555 C554 1.415 . S
H556 C553 0.999 1_545 S
H557 C538 0.913 . S
H558 C576 0.951 . S
H559 C578 0.951 . S
H560 C580 0.950 . S
H561 C581 0.950 . S
H562 C583 0.950 . S
H563 C586 0.950 . S
H564 C587 0.950 . S
H565 C589 0.950 . S
H566 C590 0.950 . S
H567 C591 0.951 . S
H568 C593 0.951 . S
H569 C595 0.950 . S
H570 C596 0.950 . S
H571 C598 0.950 . S
H572 C601 0.950 . S
H573 C602 0.950 . S
H574 C604 0.950 . S
H575 C605 0.950 . S
C576 H558 0.951 . S
C576 C577 1.366 . S
C576 C578 1.388 . S
C577 C576 1.366 . S
C577 C581 1.385 . S
C578 H559 0.951 . S
C578 C576 1.388 . S
C578 C579 1.366 . S
C579 C578 1.366 . S
C579 C580 1.414 . S
C579 C582 1.499 . S
C580 H560 0.950 . S
C580 C579 1.414 . S
C580 C581 1.374 . S
C581 H561 0.950 . S
C581 C577 1.385 . S
C581 C580 1.374 . S
C582 C579 1.499 . S
C582 C583 1.373 . S
C582 C584 1.389 . S
C583 H562 0.950 . S
C583 C582 1.373 . S
C583 C599 1.377 . S
C584 C582 1.389 . S
C584 C585 1.524 . S
C584 C598 1.377 . S
C585 C584 1.524 . S
C585 C586 1.397 . S
C585 C590 1.363 . S
C586 H563 0.950 . S
C586 C585 1.397 . S
C586 C587 1.334 . S
C587 H564 0.950 . S
C587 C586 1.334 . S
C587 C588 1.287 . S
C588 C587 1.287 . S
C588 C589 1.524 . S
C588 H607 0.913 . S
C589 H565 0.950 . S
C589 C588 1.524 . S
C589 C590 1.415 . S
C590 H566 0.950 . S
C590 C585 1.363 . S
C590 C589 1.415 . S
C591 H567 0.951 . S
C591 C592 1.366 . S
C591 C593 1.388 . S
C592 C591 1.366 . S
C592 C596 1.385 . S
C593 H568 0.951 . S
C593 C591 1.388 . S
C593 C594 1.366 . S
C594 C593 1.366 . S
C594 C595 1.414 . S
C594 C597 1.499 . S
C595 H569 0.950 . S
C595 C594 1.414 . S
C595 C596 1.374 . S
C596 H570 0.950 . S
C596 C592 1.385 . S
C596 C595 1.374 . S
C597 C594 1.499 . S
C597 C598 1.373 . S
C597 C599 1.389 . S
C598 H571 0.950 . S
C598 C584 1.377 . S
C598 C597 1.373 . S
C599 C583 1.377 . S
C599 C597 1.389 . S
C599 C600 1.524 . S
C600 C599 1.524 . S
C600 C601 1.397 . S
C600 C605 1.363 . S
C601 H572 0.950 . S
C601 C600 1.397 . S
C601 C602 1.334 . S
C602 H573 0.950 . S
C602 C601 1.334 . S
C602 C603 1.287 . S
C603 C602 1.287 . S
C603 C604 1.524 . S
C603 H606 0.999 . S
C604 H574 0.950 . S
C604 C603 1.524 . S
C604 C605 1.415 . S
C605 H575 0.950 . S
C605 C600 1.363 . S
C605 C604 1.415 . S
H606 C603 0.999 . S
H607 C588 0.913 . S
H608 C626 0.951 . S
H609 C628 0.951 . S
H610 C630 0.950 . S
H611 C631 0.950 . S
H612 C633 0.950 . S
H613 C636 0.950 . S
H614 C637 0.950 . S
H615 C639 0.950 . S
H616 C640 0.950 . S
H617 C641 0.951 . S
H618 C643 0.951 . S
H619 C645 0.950 . S
H620 C646 0.950 . S
H621 C648 0.950 . S
H622 C651 0.950 . S
H623 C652 0.950 . S
H624 C654 0.950 . S
H625 C655 0.950 1_655 S
C626 H608 0.951 . S
C626 C627 1.366 . S
C626 C628 1.388 . S
C627 C626 1.366 . S
C627 C631 1.385 . S
C628 H609 0.951 . S
C628 C626 1.388 . S
C628 C629 1.366 . S
C629 C628 1.366 . S
C629 C630 1.414 . S
C629 C632 1.499 . S
C630 H610 0.950 . S
C630 C629 1.414 . S
C630 C631 1.374 . S
C631 H611 0.950 . S
C631 C627 1.385 . S
C631 C630 1.374 . S
C632 C629 1.499 . S
C632 C633 1.373 . S
C632 C634 1.389 . S
C633 H612 0.950 . S
C633 C632 1.373 . S
C633 C649 1.377 . S
C634 C632 1.389 . S
C634 C635 1.524 . S
C634 C648 1.377 . S
C635 C634 1.524 . S
C635 C636 1.397 . S
C635 C640 1.363 . S
C636 H613 0.950 . S
C636 C635 1.397 . S
C636 C637 1.334 . S
C637 H614 0.950 . S
C637 C636 1.334 . S
C637 C638 1.287 . S
C638 C637 1.287 . S
C638 C639 1.524 . S
C638 H657 0.913 . S
C639 H615 0.950 . S
C639 C638 1.524 . S
C639 C640 1.415 . S
C640 H616 0.950 . S
C640 C635 1.363 . S
C640 C639 1.415 . S
C641 H617 0.951 . S
C641 C642 1.366 . S
C641 C643 1.388 . S
C642 C641 1.366 . S
C642 C646 1.385 . S
C643 H618 0.951 . S
C643 C641 1.388 . S
C643 C644 1.366 . S
C644 C643 1.366 . S
C644 C645 1.414 . S
C644 C647 1.499 . S
C645 H619 0.950 . S
C645 C644 1.414 . S
C645 C646 1.374 . S
C646 H620 0.950 . S
C646 C642 1.385 . S
C646 C645 1.374 . S
C647 C644 1.499 . S
C647 C648 1.373 . S
C647 C649 1.389 . S
C648 H621 0.950 . S
C648 C634 1.377 . S
C648 C647 1.373 . S
C649 C633 1.377 . S
C649 C647 1.389 . S
C649 C650 1.486 1_655 S
C650 C649 1.486 1_455 S
C650 C651 1.423 . S
C650 C655 1.376 . S
C651 H622 0.950 . S
C651 C650 1.423 . S
C651 C652 1.334 . S
C652 H623 0.950 . S
C652 C651 1.334 . S
C652 C653 1.287 . S
C653 C652 1.287 . S
C653 C654 1.524 . S
C653 H656 0.999 . S
C654 H624 0.950 . S
C654 C653 1.524 . S
C654 C655 1.415 . S
C655 H625 0.950 1_455 S
C655 C650 1.376 . S
C655 C654 1.415 . S
H656 C653 0.999 . S
H657 C638 0.913 . S
H658 C676 0.951 . S
H659 C678 0.951 . S
H660 C680 0.950 . S
H661 C681 0.950 . S
H662 C683 0.950 . S
H663 C686 0.950 . S
H664 C687 0.950 . S
H665 C689 0.950 . S
H666 C690 0.950 . S
H667 C691 0.951 . S
H668 C693 0.951 . S
H669 C695 0.950 . S
H670 C696 0.950 . S
H671 C698 0.950 . S
H672 C701 0.950 . S
H673 C702 0.950 . S
H674 C704 0.950 . S
H675 C705 0.950 . S
C676 H658 0.951 . S
C676 C677 1.366 . S
C676 C678 1.388 . S
C677 C676 1.366 . S
C677 C681 1.385 . S
C678 H659 0.951 . S
C678 C676 1.388 . S
C678 C679 1.366 . S
C679 C678 1.366 . S
C679 C680 1.414 . S
C679 C682 1.499 . S
C680 H660 0.950 . S
C680 C679 1.414 . S
C680 C681 1.374 . S
C681 H661 0.950 . S
C681 C677 1.385 . S
C681 C680 1.374 . S
C682 C679 1.499 . S
C682 C683 1.373 . S
C682 C684 1.389 . S
C683 H662 0.950 . S
C683 C682 1.373 . S
C683 C699 1.377 . S
C684 C682 1.389 . S
C684 C685 1.524 . S
C684 C698 1.377 . S
C685 C684 1.524 . S
C685 C686 1.397 . S
C685 C690 1.363 . S
C686 H663 0.950 . S
C686 C685 1.397 . S
C686 C687 1.334 . S
C687 H664 0.950 . S
C687 C686 1.334 . S
C687 C688 1.287 . S
C688 C687 1.287 . S
C688 C689 1.524 . S
C688 H707 0.913 . S
C689 H665 0.950 . S
C689 C688 1.524 . S
C689 C690 1.415 . S
C690 H666 0.950 . S
C690 C685 1.363 . S
C690 C689 1.415 . S
C691 H667 0.951 . S
C691 C692 1.366 . S
C691 C693 1.388 . S
C692 C691 1.366 . S
C692 C696 1.385 . S
C693 H668 0.951 . S
C693 C691 1.388 . S
C693 C694 1.366 . S
C694 C693 1.366 . S
C694 C695 1.414 . S
C694 C697 1.499 . S
C695 H669 0.950 . S
C695 C694 1.414 . S
C695 C696 1.374 . S
C696 H670 0.950 . S
C696 C692 1.385 . S
C696 C695 1.374 . S
C697 C694 1.499 . S
C697 C698 1.373 . S
C697 C699 1.389 . S
C698 H671 0.950 . S
C698 C684 1.377 . S
C698 C697 1.373 . S
C699 C683 1.377 . S
C699 C697 1.389 . S
C699 C700 1.524 . S
C700 C699 1.524 . S
C700 C701 1.397 . S
C700 C705 1.363 . S
C701 H672 0.950 . S
C701 C700 1.397 . S
C701 C702 1.334 . S
C702 H673 0.950 . S
C702 C701 1.334 . S
C702 C703 1.287 . S
C703 C702 1.287 . S
C703 C704 1.524 . S
C703 H706 0.999 . S
C704 H674 0.950 . S
C704 C703 1.524 . S
C704 C705 1.415 . S
C705 H675 0.950 . S
C705 C700 1.363 . S
C705 C704 1.415 . S
H706 C703 0.999 . S
H707 C688 0.913 . S
H708 C726 0.951 . S
H709 C728 0.951 . S
H710 C730 0.950 . S
H711 C731 0.950 . S
H712 C733 0.950 . S
H713 C736 0.950 . S
H714 C737 0.950 . S
H715 C739 0.950 . S
H716 C740 0.950 . S
H717 C741 0.951 . S
H718 C743 0.951 . S
H719 C745 0.950 . S
H720 C746 0.950 . S
H721 C748 0.950 . S
H722 C751 0.950 . S
H723 C752 0.950 . S
H724 C754 0.950 . S
H725 C755 0.950 . S
C726 H708 0.951 . S
C726 C727 1.366 . S
C726 C728 1.388 . S
C727 C726 1.366 . S
C727 C731 1.385 . S
C728 H709 0.951 . S
C728 C726 1.388 . S
C728 C729 1.366 . S
C729 C728 1.366 . S
C729 C730 1.414 . S
C729 C732 1.499 . S
C730 H710 0.950 . S
C730 C729 1.414 . S
C730 C731 1.374 . S
C731 H711 0.950 . S
C731 C727 1.385 . S
C731 C730 1.374 . S
C732 C729 1.499 . S
C732 C733 1.373 . S
C732 C734 1.389 . S
C733 H712 0.950 . S
C733 C732 1.373 . S
C733 C749 1.377 . S
C734 C732 1.389 . S
C734 C735 1.524 . S
C734 C748 1.377 . S
C735 C734 1.524 . S
C735 C736 1.397 . S
C735 C740 1.363 . S
C736 H713 0.950 . S
C736 C735 1.397 . S
C736 C737 1.334 . S
C737 H714 0.950 . S
C737 C736 1.334 . S
C737 C738 1.287 . S
C738 C737 1.287 . S
C738 C739 1.524 . S
C738 H757 0.913 . S
C739 H715 0.950 . S
C739 C738 1.524 . S
C739 C740 1.415 . S
C740 H716 0.950 . S
C740 C735 1.363 . S
C740 C739 1.415 . S
C741 H717 0.951 . S
C741 C742 1.366 . S
C741 C743 1.388 . S
C742 C741 1.366 . S
C742 C746 1.385 . S
C743 H718 0.951 . S
C743 C741 1.388 . S
C743 C744 1.366 . S
C744 C743 1.366 . S
C744 C745 1.414 . S
C744 C747 1.499 . S
C745 H719 0.950 . S
C745 C744 1.414 . S
C745 C746 1.374 . S
C746 H720 0.950 . S
C746 C742 1.385 . S
C746 C745 1.374 . S
C747 C744 1.499 . S
C747 C748 1.373 . S
C747 C749 1.389 . S
C748 H721 0.950 . S
C748 C734 1.377 . S
C748 C747 1.373 . S
C749 C733 1.377 . S
C749 C747 1.389 . S
C749 C750 1.524 . S
C750 C749 1.524 . S
C750 C751 1.397 . S
C750 C755 1.363 . S
C751 H722 0.950 . S
C751 C750 1.397 . S
C751 C752 1.334 . S
C752 H723 0.950 . S
C752 C751 1.334 . S
C752 C753 1.287 . S
C753 C752 1.287 . S
C753 C754 1.524 . S
C753 H756 0.999 . S
C754 H724 0.950 . S
C754 C753 1.524 . S
C754 C755 1.415 . S
C755 H725 0.950 . S
C755 C750 1.363 . S
C755 C754 1.415 . S
H756 C753 0.999 . S
H757 C738 0.913 . S
H758 C776 0.951 . S
H759 C778 0.951 . S
H760 C780 0.950 . S
H761 C781 0.950 . S
H762 C783 0.950 . S
H763 C786 0.950 . S
H764 C787 0.950 . S
H765 C789 0.950 . S
H766 C790 0.950 . S
H767 C791 0.951 . S
H768 C793 0.951 . S
H769 C795 0.952 . S
H770 C796 0.950 1_455 S
H771 C798 0.950 . S
H772 C801 0.950 . S
H773 C802 0.950 . S
H774 C804 0.950 . S
H775 C805 0.950 . S
C776 H758 0.951 . S
C776 C777 1.366 . S
C776 C778 1.388 . S
C777 C776 1.366 . S
C777 C781 1.385 . S
C778 H759 0.951 . S
C778 C776 1.388 . S
C778 C779 1.366 . S
C779 C778 1.366 . S
C779 C780 1.414 . S
C779 C782 1.499 . S
C780 H760 0.950 . S
C780 C779 1.414 . S
C780 C781 1.374 . S
C781 H761 0.950 . S
C781 C777 1.385 . S
C781 C780 1.374 . S
C782 C779 1.499 . S
C782 C783 1.373 . S
C782 C784 1.389 . S
C783 H762 0.950 . S
C783 C782 1.373 . S
C783 C799 1.377 . S
C784 C782 1.389 . S
C784 C785 1.524 . S
C784 C798 1.377 . S
C785 C784 1.524 . S
C785 C786 1.397 . S
C785 C790 1.363 1_655 S
C786 H763 0.950 . S
C786 C785 1.397 . S
C786 C787 1.334 . S
C787 H764 0.950 . S
C787 C786 1.334 . S
C787 C788 1.287 1_655 S
C788 C787 1.287 1_455 S
C788 C789 1.524 . S
C788 H807 0.913 . S
C789 H765 0.950 . S
C789 C788 1.524 . S
C789 C790 1.415 . S
C790 H766 0.950 . S
C790 C785 1.363 1_455 S
C790 C789 1.415 . S
C791 H767 0.951 . S
C791 C792 1.366 . S
C791 C793 1.388 . S
C792 C791 1.366 . S
C792 C796 1.385 . S
C793 H768 0.951 . S
C793 C791 1.388 . S
C793 C794 1.366 . S
C794 C793 1.366 . S
C794 C795 1.414 . S
C794 C797 1.499 . S
C795 H769 0.952 . S
C795 C794 1.414 . S
C795 C796 1.374 . S
C796 H770 0.950 1_655 S
C796 C792 1.385 . S
C796 C795 1.374 . S
C797 C794 1.499 . S
C797 C798 1.373 . S
C797 C799 1.389 . S
C798 H771 0.950 . S
C798 C784 1.377 . S
C798 C797 1.373 . S
C799 C783 1.377 . S
C799 C797 1.389 . S
C799 C800 1.524 . S
C800 C799 1.524 . S
C800 C801 1.397 . S
C800 C805 1.363 . S
C801 H772 0.950 . S
C801 C800 1.397 . S
C801 C802 1.334 . S
C802 H773 0.950 . S
C802 C801 1.334 . S
C802 C803 1.287 . S
C803 C802 1.287 . S
C803 C804 1.524 . S
C803 H806 0.999 . S
C804 H774 0.950 . S
C804 C803 1.524 . S
C804 C805 1.415 . S
C805 H775 0.950 . S
C805 C800 1.363 . S
C805 C804 1.415 . S
H806 C803 0.999 . S
H807 C788 0.913 . S
H808 C826 0.951 . S
H809 C828 0.951 . S
H810 C830 0.950 . S
H811 C831 0.950 . S
H812 C833 0.950 . S
H813 C836 0.950 . S
H814 C837 0.950 . S
H815 C839 0.950 . S
H816 C840 0.950 . S
H817 C841 0.951 . S
H818 C843 0.951 . S
H819 C845 0.950 . S
H820 C846 0.950 . S
H821 C848 0.950 . S
H822 C851 0.950 . S
H823 C852 0.950 . S
H824 C854 0.950 . S
H825 C855 0.950 . S
C826 H808 0.951 . S
C826 C827 1.366 . S
C826 C828 1.388 . S
C827 C826 1.366 . S
C827 C831 1.385 . S
C828 H809 0.951 . S
C828 C826 1.388 . S
C828 C829 1.366 . S
C829 C828 1.366 . S
C829 C830 1.414 . S
C829 C832 1.499 . S
C830 H810 0.950 . S
C830 C829 1.414 . S
C830 C831 1.374 . S
C831 H811 0.950 . S
C831 C827 1.385 . S
C831 C830 1.374 . S
C832 C829 1.499 . S
C832 C833 1.373 . S
C832 C834 1.389 . S
C833 H812 0.950 . S
C833 C832 1.373 . S
C833 C849 1.377 . S
C834 C832 1.389 . S
C834 C835 1.524 . S
C834 C848 1.377 . S
C835 C834 1.524 . S
C835 C836 1.397 . S
C835 C840 1.363 . S
C836 H813 0.950 . S
C836 C835 1.397 . S
C836 C837 1.334 . S
C837 H814 0.950 . S
C837 C836 1.334 . S
C837 C838 1.287 . S
C838 C837 1.287 . S
C838 C839 1.524 . S
C838 H857 0.913 . S
C839 H815 0.950 . S
C839 C838 1.524 . S
C839 C840 1.415 . S
C840 H816 0.950 . S
C840 C835 1.363 . S
C840 C839 1.415 . S
C841 H817 0.951 . S
C841 C842 1.366 . S
C841 C843 1.388 . S
C842 C841 1.366 . S
C842 C846 1.385 . S
C843 H818 0.951 . S
C843 C841 1.388 . S
C843 C844 1.366 . S
C844 C843 1.366 . S
C844 C845 1.414 . S
C844 C847 1.499 . S
C845 H819 0.950 . S
C845 C844 1.414 . S
C845 C846 1.374 . S
C846 H820 0.950 . S
C846 C842 1.385 . S
C846 C845 1.374 . S
C847 C844 1.499 . S
C847 C848 1.373 . S
C847 C849 1.389 . S
C848 H821 0.950 . S
C848 C834 1.377 . S
C848 C847 1.373 . S
C849 C833 1.377 . S
C849 C847 1.389 . S
C849 C850 1.524 . S
C850 C849 1.524 . S
C850 C851 1.397 . S
C850 C855 1.363 . S
C851 H822 0.950 . S
C851 C850 1.397 . S
C851 C852 1.334 . S
C852 H823 0.950 . S
C852 C851 1.334 . S
C852 C853 1.287 . S
C853 C852 1.287 . S
C853 C854 1.524 . S
C853 H856 0.999 . S
C854 H824 0.950 . S
C854 C853 1.524 . S
C854 C855 1.415 . S
C855 H825 0.950 . S
C855 C850 1.363 . S
C855 C854 1.415 . S
H856 C853 0.999 . S
H857 C838 0.913 . S
H858 C876 0.951 . S
H859 C878 0.951 . S
H860 C880 0.950 . S
H861 C881 0.950 . S
H862 C883 0.950 . S
H863 C886 0.950 . S
H864 C887 0.950 . S
H865 C889 0.950 . S
H866 C890 0.950 . S
H867 C891 0.951 . S
H868 C893 0.951 . S
H869 C895 0.950 . S
H870 C896 0.950 . S
H871 C898 0.950 . S
H872 C901 0.950 . S
H873 C902 0.950 . S
H874 C904 0.950 . S
H875 C905 0.950 . S
C876 H858 0.951 . S
C876 C877 1.366 . S
C876 C878 1.388 . S
C877 C876 1.366 . S
C877 C881 1.385 . S
C878 H859 0.951 . S
C878 C876 1.388 . S
C878 C879 1.366 . S
C879 C878 1.366 . S
C879 C880 1.414 . S
C879 C882 1.499 . S
C880 H860 0.950 . S
C880 C879 1.414 . S
C880 C881 1.374 . S
C881 H861 0.950 . S
C881 C877 1.385 . S
C881 C880 1.374 . S
C882 C879 1.499 . S
C882 C883 1.373 . S
C882 C884 1.389 . S
C883 H862 0.950 . S
C883 C882 1.373 . S
C883 C899 1.377 . S
C884 C882 1.389 . S
C884 C885 1.524 . S
C884 C898 1.377 . S
C885 C884 1.524 . S
C885 C886 1.397 . S
C885 C890 1.363 . S
C886 H863 0.950 . S
C886 C885 1.397 . S
C886 C887 1.334 . S
C887 H864 0.950 . S
C887 C886 1.334 . S
C887 C888 1.287 . S
C888 C887 1.287 . S
C888 C889 1.524 . S
C888 H907 0.913 . S
C889 H865 0.950 . S
C889 C888 1.524 . S
C889 C890 1.415 . S
C890 H866 0.950 . S
C890 C885 1.363 . S
C890 C889 1.415 . S
C891 H867 0.951 . S
C891 C892 1.366 . S
C891 C893 1.388 . S
C892 C891 1.366 . S
C892 C896 1.385 . S
C893 H868 0.951 . S
C893 C891 1.388 . S
C893 C894 1.366 . S
C894 C893 1.366 . S
C894 C895 1.414 . S
C894 C897 1.499 . S
C895 H869 0.950 . S
C895 C894 1.414 . S
C895 C896 1.374 . S
C896 H870 0.950 . S
C896 C892 1.385 . S
C896 C895 1.374 . S
C897 C894 1.499 . S
C897 C898 1.373 . S
C897 C899 1.389 . S
C898 H871 0.950 . S
C898 C884 1.377 . S
C898 C897 1.373 . S
C899 C883 1.377 . S
C899 C897 1.389 . S
C899 C900 1.524 . S
C900 C899 1.524 . S
C900 C901 1.397 1_455 S
C900 C905 1.363 . S
C901 H872 0.950 . S
C901 C900 1.397 1_655 S
C901 C902 1.334 . S
C902 H873 0.950 . S
C902 C901 1.334 . S
C902 C903 1.287 . S
C903 C902 1.287 . S
C903 C904 1.524 1_655 S
C903 H906 0.999 . S
C904 H874 0.950 . S
C904 C903 1.524 1_455 S
C904 C905 1.415 . S
C905 H875 0.950 . S
C905 C900 1.363 . S
C905 C904 1.415 . S
H906 C903 0.999 . S
H907 C888 0.913 . S
C342 C244 1.643 . S
C327 C211 1.571 . S
C377 C31 1.548 . S
C392 C287 1.563 . S
C427 C91 1.623 . S
C442 C253 1.643 . S
C477 C151 1.506 . S
C492 C278 1.563 . S
C542 C240 1.618 . S
C527 C20 1.612 . S
C592 C282 1.712 . S
C577 C61 1.666 . S
C627 C121 1.524 . S
C642 C248 1.609 . S
C677 C200 1.630 . S
C692 C274 1.706 . S
C742 C303 1.706 . S
C727 C80 1.692 . S
C792 C269 1.618 . S
C777 C140 1.563 . S
C842 C291 1.712 . S
C827 C181 1.605 . S
C877 C1 1.572 . S
C892 C257 1.609 . S
