# Generated by pormake.
# Topology zzz, (3,6)-cn, num edge types: 1
# Building blocks:
#     Node 0, Type 0, BuildingBlock: CUQRIR_clean_linker_1, # of connection points: 3
#     Node 1, Type 0, BuildingBlock: CUQRIR_clean_linker_1, # of connection points: 3
#     Node 2, Type 0, BuildingBlock: CUQRIR_clean_linker_1, # of connection points: 3
#     Node 3, Type 0, BuildingBlock: CUQRIR_clean_linker_1, # of connection points: 3
#     Node 4, Type 0, BuildingBlock: CUQRIR_clean_linker_1, # of connection points: 3
#     Node 5, Type 0, BuildingBlock: CUQRIR_clean_linker_1, # of connection points: 3
#     Node 6, Type 0, BuildingBlock: CUQRIR_clean_linker_1, # of connection points: 3
#     Node 7, Type 0, BuildingBlock: CUQRIR_clean_linker_1, # of connection points: 3
#     Node 8, Type 1, BuildingBlock: BETDAH_clean_sbu_0, # of connection points: 6
#     Node 9, Type 1, BuildingBlock: BETDAH_clean_sbu_0, # of connection points: 6
#     Node 10, Type 1, BuildingBlock: BETDAH_clean_sbu_0, # of connection points: 6
#     Node 11, Type 1, BuildingBlock: BETDAH_clean_sbu_0, # of connection points: 6
#     Edge 12, Type (0, 1), BuildingBlock: MIFKUJ_clean_linker_0, # of connection points: 2
#     Edge 13, Type (0, 1), BuildingBlock: MIFKUJ_clean_linker_0, # of connection points: 2
#     Edge 14, Type (0, 1), BuildingBlock: MIFKUJ_clean_linker_0, # of connection points: 2
#     Edge 15, Type (0, 1), BuildingBlock: MIFKUJ_clean_linker_0, # of connection points: 2
#     Edge 16, Type (0, 1), BuildingBlock: MIFKUJ_clean_linker_0, # of connection points: 2
#     Edge 17, Type (0, 1), BuildingBlock: MIFKUJ_clean_linker_0, # of connection points: 2
#     Edge 18, Type (0, 1), BuildingBlock: MIFKUJ_clean_linker_0, # of connection points: 2
#     Edge 19, Type (0, 1), BuildingBlock: MIFKUJ_clean_linker_0, # of connection points: 2
#     Edge 20, Type (0, 1), BuildingBlock: MIFKUJ_clean_linker_0, # of connection points: 2
#     Edge 21, Type (0, 1), BuildingBlock: MIFKUJ_clean_linker_0, # of connection points: 2
#     Edge 22, Type (0, 1), BuildingBlock: MIFKUJ_clean_linker_0, # of connection points: 2
#     Edge 23, Type (0, 1), BuildingBlock: MIFKUJ_clean_linker_0, # of connection points: 2
#     Edge 24, Type (0, 1), BuildingBlock: MIFKUJ_clean_linker_0, # of connection points: 2
#     Edge 25, Type (0, 1), BuildingBlock: MIFKUJ_clean_linker_0, # of connection points: 2
#     Edge 26, Type (0, 1), BuildingBlock: MIFKUJ_clean_linker_0, # of connection points: 2
#     Edge 27, Type (0, 1), BuildingBlock: MIFKUJ_clean_linker_0, # of connection points: 2
#     Edge 28, Type (0, 1), BuildingBlock: MIFKUJ_clean_linker_0, # of connection points: 2
#     Edge 29, Type (0, 1), BuildingBlock: MIFKUJ_clean_linker_0, # of connection points: 2
#     Edge 30, Type (0, 1), BuildingBlock: MIFKUJ_clean_linker_0, # of connection points: 2
#     Edge 31, Type (0, 1), BuildingBlock: MIFKUJ_clean_linker_0, # of connection points: 2
#     Edge 32, Type (0, 1), BuildingBlock: MIFKUJ_clean_linker_0, # of connection points: 2
#     Edge 33, Type (0, 1), BuildingBlock: MIFKUJ_clean_linker_0, # of connection points: 2
#     Edge 34, Type (0, 1), BuildingBlock: MIFKUJ_clean_linker_0, # of connection points: 2
#     Edge 35, Type (0, 1), BuildingBlock: MIFKUJ_clean_linker_0, # of connection points: 2
# Relax obj value: 0.245
# Max RMSD: 0.178
# Mean RMSD: 0.160
data_MOF--net-zzz--node1-BETDAH_clean_sbu_0--node2-CUQRIR_clean_linker_1--edge1-MIFKUJ_clean_linker_0
_symmetry_space_group_name_H-M    P1
_symmetry_Int_Tables_number       1
_symmetry_cell_setting            triclinic
loop_
_symmetry_equiv_pos_as_xyz
'x, y, z'
_cell_length_a     64.771095
_cell_length_b     64.827939
_cell_length_c     15.558485
_cell_angle_alpha  89.960882
_cell_angle_beta   89.981235
_cell_angle_gamma 89.725021
loop_
_atom_site_label
_atom_site_type_symbol
_atom_site_fract_x
_atom_site_fract_y
_atom_site_fract_z
_atom_type_partial_charge
C0 C 0.74317 0.5068 0.36003 0.0
N1 N 0.76051 0.49496 0.3662 0.0
N2 N 0.72763 0.49626 0.32118 0.0
C3 C 0.74159 0.52876 0.38947 0.0
C4 C 0.73631 0.47772 0.30297 0.0
N5 N 0.75628 0.47694 0.32906 0.0
C6 C 0.72564 0.46095 0.25302 0.0
H7 H 0.75073 0.53105 0.44901 0.0
H8 H 0.72525 0.53321 0.40082 0.0
H9 H 0.74805 0.53893 0.33886 0.0
H10 H 0.71065 0.45724 0.28346 0.0
H11 H 0.73501 0.44661 0.25012 0.0
H12 H 0.72241 0.46652 0.18692 0.0
C13 C 1.00782 0.74842 0.33824 0.0
N14 N 0.99752 0.76668 0.34468 0.0
N15 N 0.99737 0.73505 0.28683 0.0
C16 C 0.02883 0.7444 0.37511 0.0
C17 C 0.98052 0.74593 0.26186 0.0
N18 N 0.98053 0.76497 0.29719 0.0
C19 C 0.96468 0.73827 0.19914 0.0
H20 H 0.04038 0.75332 0.33802 0.0
H21 H 0.03287 0.72776 0.37211 0.0
H22 H 0.02941 0.7498 0.44271 0.0
H23 H 0.96213 0.72149 0.20797 0.0
H24 H 0.97048 0.74075 0.13283 0.0
H25 H 0.94983 0.74669 0.20677 0.0
C26 C 0.78022 1.01147 0.29637 0.0
N27 N 0.76252 1.00154 0.31739 0.0
N28 N 0.79428 0.99815 0.26208 0.0
C29 C 0.78325 0.03434 0.30393 0.0
C30 C 0.78436 0.97974 0.26292 0.0
N31 N 0.76506 0.98177 0.29595 0.0
C32 C 0.79322 0.96003 0.22691 0.0
H33 H 0.77597 0.04201 0.24775 0.0
H34 H 0.79991 0.03823 0.30505 0.0
H35 H 0.77568 0.04032 0.36284 0.0
H36 H 0.78391 0.94643 0.24538 0.0
H37 H 0.80916 0.95755 0.25051 0.0
H38 H 0.79391 0.96122 0.15579 0.0
C39 C 0.51693 0.78752 0.31336 0.0
N40 N 0.508 0.76854 0.3145 0.0
N41 N 0.508 0.79982 0.25243 0.0
C42 C 0.53363 0.7943 0.37364 0.0
C43 C 0.49358 0.78749 0.21616 0.0
N44 N 0.49351 0.76879 0.2541 0.0
C45 C 0.48071 0.79308 0.13887 0.0
H46 H 0.53241 0.78607 0.43599 0.0
H47 H 0.53282 0.81121 0.38442 0.0
H48 H 0.54885 0.79055 0.34471 0.0
H49 H 0.48899 0.80409 0.09668 0.0
H50 H 0.46615 0.80045 0.16097 0.0
H51 H 0.47664 0.7792 0.10098 0.0
C52 C 0.2829 0.52193 0.08975 0.0
N53 N 0.26293 0.52859 0.0893 0.0
N54 N 0.29311 0.52902 0.16087 0.0
C55 C 0.29261 0.5097 0.01852 0.0
C56 C 0.27831 0.53991 0.2035 0.0
N57 N 0.26036 0.5398 0.15973 0.0
C58 C 0.28057 0.54909 0.2919 0.0
H59 H 0.29188 0.49307 0.03497 0.0
H60 H 0.30905 0.51403 0.01026 0.0
H61 H 0.28419 0.51215 0.95722 0.0
H62 H 0.28524 0.56547 0.28586 0.0
H63 H 0.29231 0.54062 0.33018 0.0
H64 H 0.26564 0.54874 0.3269 0.0
C65 C 0.0174 0.28494 0.09853 0.0
N66 N 0.02531 0.26552 0.09522 0.0
N67 N 0.02386 0.2948 0.17089 0.0
C68 C 1.00294 0.29398 0.03332 0.0
C69 C 0.03587 0.28062 0.2112 0.0
N70 N 0.03675 0.26299 0.16522 0.0
C71 C 0.04588 0.28372 0.29726 0.0
H72 H 1.0047 0.31098 0.02989 0.0
H73 H 0.98684 0.29055 0.05294 0.0
H74 H 1.00569 0.28705 0.96912 0.0
H75 H 0.03439 0.28046 0.34835 0.0
H76 H 0.05098 0.29995 0.30459 0.0
H77 H 0.05925 0.27315 0.30582 0.0
C78 C 0.2481 0.02365 0.11463 0.0
N79 N 0.26552 1.01229 0.10205 0.0
N80 N 0.23306 1.01209 0.15183 0.0
C81 C 0.24628 0.0463 0.09625 0.0
C82 C 0.24208 0.99332 0.16167 0.0
N83 N 0.26183 0.99345 0.13258 0.0
C84 C 0.23169 0.97511 0.20309 0.0
H85 H 0.25387 0.05497 0.14886 0.0
H86 H 0.22986 0.05114 0.09236 0.0
H87 H 0.25431 0.05014 0.03534 0.0
H88 H 0.21581 0.97335 0.17788 0.0
H89 H 0.23053 0.97779 0.27337 0.0
H90 H 0.24027 0.96055 0.19098 0.0
C91 C 0.51504 0.25416 0.10683 0.0
N92 N 0.52407 0.27307 0.10396 0.0
N93 N 0.52293 0.24269 0.1725 0.0
C94 C 0.49899 0.24669 0.04497 0.0
C95 C 0.53685 0.25533 0.20988 0.0
N96 N 0.53756 0.27365 0.16846 0.0
C97 C 0.54879 0.25022 0.29014 0.0
H98 H 0.49938 0.22961 0.04011 0.0
H99 H 0.50136 0.25363 0.98052 0.0
H100 H 0.48353 0.25142 0.06873 0.0
H101 H 0.56423 0.24422 0.27157 0.0
H102 H 0.54086 0.23824 0.3287 0.0
H103 H 0.55101 0.26418 0.33024 0.0
Ho104 Ho 0.02055 1.01176 0.79539 0.0
Ho105 Ho 1.00765 0.02379 0.61806 0.0
C106 C 1.01158 0.97479 0.6678 0.0
C107 C 0.0211 1.00665 0.96028 0.0
C108 C 1.01041 0.99202 0.01646 0.0
C109 C 1.00968 0.99511 0.10561 0.0
C110 C 0.99845 0.98159 0.15792 0.0
C111 C 0.98746 0.96518 0.121 0.0
C112 C 0.9883 0.96225 0.03159 0.0
C113 C 0.99978 0.97544 0.98002 0.0
C114 C 0.05231 0.01481 0.68209 0.0
C115 C 0.0178 0.06085 0.74538 0.0
C116 C 1.0072 0.02782 0.4526 0.0
C117 C 0.01974 0.04036 0.39456 0.0
C118 C 0.03232 0.05575 0.42894 0.0
C119 C 0.04537 0.06697 0.37582 0.0
C120 C 0.04594 0.06319 0.28683 0.0
C121 C 0.03325 0.04774 0.2522 0.0
C122 C 0.02038 0.0362 0.30617 0.0
C123 C 0.97567 0.02056 0.73009 0.0
O124 O 1.01168 0.98005 0.74983 0.0
O125 O 1.01179 0.98909 0.60709 0.0
O126 O 0.03501 0.99874 0.90871 0.0
O127 O 1.0089 0.01971 0.92114 0.0
O128 O 0.05168 1.0016 0.74463 0.0
O129 O 0.03697 0.0268 0.68718 0.0
O130 O 0.01662 0.05557 0.66337 0.0
O131 O 0.01812 0.04663 0.8065 0.0
O132 O 0.99471 0.03792 0.50378 0.0
O133 O 0.0176 0.01349 0.49284 0.0
O134 O 0.97609 0.03326 0.66581 0.0
O135 O 0.99119 1.00877 0.72604 0.0
H136 H 0.01776 1.00794 0.13449 0.0
H137 H 0.99823 0.98401 0.2268 0.0
H138 H 0.98051 0.94937 0.00159 0.0
H139 H 1.00029 0.97273 0.91143 0.0
H140 H 0.03199 0.05915 0.49704 0.0
H141 H 0.05449 0.07916 0.40426 0.0
H142 H 0.03325 0.04469 0.18376 0.0
H143 H 1.01094 0.02408 0.27921 0.0
Ho144 Ho 0.52205 0.03173 0.80979 0.0
Ho145 Ho 0.50934 0.01389 0.62876 0.0
C146 C 0.5577 0.01916 0.67183 0.0
C147 C 0.53531 0.03748 0.9648 0.0
C148 C 0.54754 0.02536 0.0275 0.0
C149 C 0.54001 1.00676 0.06202 0.0
C150 C 0.55261 0.99437 0.11366 0.0
C151 C 0.57273 1.00061 0.13369 0.0
C152 C 0.57976 0.01984 0.10428 0.0
C153 C 0.56729 0.03208 0.05141 0.0
C154 C 0.51093 0.06006 0.68829 0.0
C155 C 0.47399 0.02242 0.772 0.0
C156 C 0.49907 1.00922 0.47015 0.0
C157 C 0.48584 0.99461 0.42416 0.0
C158 C 0.47394 1.00151 0.35475 0.0
C159 C 0.4596 0.9884 0.31648 0.0
C160 C 0.45696 0.96811 0.34702 0.0
C161 C 0.46975 0.96096 0.41376 0.0
C162 C 0.484 0.97411 0.45225 0.0
C163 C 0.51353 0.98258 0.74647 0.0
O164 O 0.55298 0.02124 0.75464 0.0
O165 O 0.54331 0.01887 0.61155 0.0
O166 O 0.54509 0.04416 0.89657 0.0
O167 O 0.51696 0.03042 0.94654 0.0
O168 O 0.50796 0.06241 0.77015 0.0
O169 O 0.521 0.04366 0.67667 0.0
O170 O 0.47831 0.02178 0.68855 0.0
O171 O 0.48876 0.02315 0.83084 0.0
O172 O 0.51596 1.00142 0.50351 0.0
O173 O 0.4895 0.02205 0.52204 0.0
O174 O 0.50789 0.9799 0.66738 0.0
O175 O 0.51615 1.00159 0.75618 0.0
H176 H 0.52463 1.00139 0.04707 0.0
H177 H 0.54684 0.97967 0.13619 0.0
H178 H 0.59531 0.0249 0.11838 0.0
H179 H 0.57333 0.04649 0.02691 0.0
H180 H 0.47515 0.0173 0.33237 0.0
H181 H 0.44978 0.99459 0.26633 0.0
H182 H 0.46823 0.94544 0.43852 0.0
H183 H 0.49308 0.96843 0.50574 0.0
Ho184 Ho 0.50642 0.52547 0.79255 0.0
Ho185 Ho 0.52884 0.51498 0.62037 0.0
C186 C 0.51851 0.56341 0.66956 0.0
C187 C 0.49652 0.53293 0.95032 0.0
C188 C 0.47926 0.5444 0.98904 0.0
C189 C 0.48099 0.55215 0.07265 0.0
C190 C 0.46621 0.56601 0.10408 0.0
C191 C 0.44969 0.57253 0.05158 0.0
C192 C 0.4471 0.56328 0.97078 0.0
C193 C 0.4618 0.54938 0.93972 0.0
C194 C 0.47771 0.52187 0.6636 0.0
C195 C 0.51624 0.47756 0.74144 0.0
C196 C 0.54142 0.51197 0.4632 0.0
C197 C 0.55341 0.49769 0.40837 0.0
C198 C 0.54329 0.48212 0.36248 0.0
C199 C 0.5545 0.46831 0.31215 0.0
C200 C 0.57612 0.46982 0.30577 0.0
C201 C 0.58621 0.4859 0.34885 0.0
C202 C 0.57493 0.4998 0.39932 0.0
C203 C 0.55287 0.51235 0.76275 0.0
O204 O 0.51025 0.55799 0.74404 0.0
O205 O 0.52595 0.54979 0.614 0.0
O206 O 0.49158 0.51592 0.91029 0.0
O207 O 0.50965 0.54416 0.90684 0.0
O208 O 0.47349 0.52656 0.74232 0.0
O209 O 0.497 0.51963 0.65924 0.0
O210 O 0.51879 0.48302 0.65986 0.0
O211 O 0.51455 0.49156 0.80331 0.0
O212 O 0.55163 0.5217 0.52325 0.0
O213 O 0.52321 0.50575 0.4892 0.0
O214 O 0.55485 0.50066 0.69543 0.0
O215 O 0.539 0.52582 0.74886 0.0
H216 H 0.49432 0.54839 0.11181 0.0
H217 H 0.46867 0.57283 0.16671 0.0
H218 H 0.43441 0.56779 0.92937 0.0
H219 H 0.46002 0.54342 0.87541 0.0
H220 H 0.5267 0.4803 0.36663 0.0
H221 H 0.54624 0.4559 0.28112 0.0
H222 H 0.60282 0.48752 0.34458 0.0
H223 H 0.58311 0.51202 0.4321 0.0
Ho224 Ho 1.00713 0.5045 0.81682 0.0
Ho225 Ho 0.01734 0.52391 0.63766 0.0
C226 C 0.96997 0.51434 0.68955 0.0
C227 C 1.0014 0.49273 0.97286 0.0
C228 C 0.98649 0.47822 0.01008 0.0
C229 C 0.97551 0.48378 0.08412 0.0
C230 C 0.95869 0.47202 0.11106 0.0
C231 C 0.95261 0.45449 0.06421 0.0
C232 C 0.96455 0.4482 0.99346 0.0
C233 C 0.98127 0.46002 0.96633 0.0
C234 C 1.00615 0.47771 0.68211 0.0
C235 C 0.05504 0.51618 0.76831 0.0
C236 C 0.02561 0.53241 0.47927 0.0
C237 C 0.03696 0.54976 0.44169 0.0
C238 C 0.04258 0.54967 0.35477 0.0
C239 C 0.05622 0.56457 0.32329 0.0
C240 C 0.06446 0.57959 0.37881 0.0
C241 C 0.05737 0.58057 0.46386 0.0
C242 C 0.0439 0.5657 0.49507 0.0
C243 C 0.01307 0.55439 0.76019 0.0
O244 O 0.97544 0.51453 0.7717 0.0
O245 O 0.98396 0.51404 0.62732 0.0
O246 O 0.01557 0.48468 0.92274 0.0
O247 O 0.99326 0.50968 0.94135 0.0
O248 O 0.99453 0.47653 0.7496 0.0
O249 O 0.01879 0.49233 0.69185 0.0
O250 O 0.04973 0.51933 0.68708 0.0
O251 O 0.04115 0.51242 0.82916 0.0
O252 O 1.00806 0.53719 0.51602 0.0
O253 O 0.03683 0.51986 0.52611 0.0
O254 O 0.01753 0.5576 0.68057 0.0
O255 O 1.01111 0.53527 0.76786 0.0
H256 H 0.97924 0.49782 0.11838 0.0
H257 H 0.9497 0.47746 0.16526 0.0
H258 H 0.96044 0.43462 0.95685 0.0
H259 H 0.98949 0.45538 0.90881 0.0
H260 H 0.03735 0.53748 0.31257 0.0
H261 H 0.06153 0.56332 0.2575 0.0
H262 H 0.06328 0.59207 0.50781 0.0
H263 H 0.03995 0.56605 0.56226 0.0
H264 H 0.19453 1.00029 0.108 0.0
H265 H 0.16282 1.00581 0.19153 0.0
H266 H 0.19658 0.04405 0.36909 0.0
H267 H 0.22835 0.03791 0.28631 0.0
H268 H 0.17603 0.01827 0.45689 0.0
H269 H 0.15752 0.06345 0.23138 0.0
H270 H 0.15085 0.07623 0.08467 0.0
H271 H 0.10417 0.03018 0.05018 0.0
H272 H 0.11075 0.01692 0.19628 0.0
H273 H 0.06145 0.04771 0.57769 0.0
H274 H 0.09127 0.05168 0.48166 0.0
H275 H 0.11295 0.99113 0.55489 0.0
H276 H 0.08335 0.98732 0.65113 0.0
H277 H 0.1059 0.03362 0.34532 0.0
H278 H 0.16438 0.98841 0.56014 0.0
H279 H 0.17072 0.98201 0.71425 0.0
H280 H 0.13844 0.03791 0.7787 0.0
H281 H 0.13216 0.04479 0.62499 0.0
C282 C 0.19498 1.0102 0.16395 0.0
C283 C 0.21383 0.01869 0.19079 0.0
C284 C 0.17684 0.01345 0.21164 0.0
C285 C 0.17708 0.02542 0.28713 0.0
C286 C 0.19583 0.0347 0.31152 0.0
C287 C 0.21397 0.03139 0.26385 0.0
C288 C 0.15843 0.02664 0.34452 0.0
C289 C 0.16074 0.02168 0.43206 0.0
C290 C 0.13836 0.03158 0.31368 0.0
C291 C 0.13482 0.03903 0.22459 0.0
C292 C 0.14602 0.05587 0.19217 0.0
C293 C 0.1422 0.06325 0.10918 0.0
C294 C 0.12714 0.05398 0.05804 0.0
C295 C 0.11586 0.03732 0.0898 0.0
C296 C 0.11962 0.02987 0.17273 0.0
C297 C 0.0725 0.0352 0.57255 0.0
C298 C 0.07004 0.01722 0.62204 0.0
C299 C 0.08961 0.03749 0.51776 0.0
C300 C 0.10471 0.02186 0.51164 0.0
C301 C 0.10189 1.00366 0.55957 0.0
C302 C 0.08489 1.00145 0.61452 0.0
C303 C 0.12354 0.02454 0.4564 0.0
C304 C 0.12123 0.03022 0.36966 0.0
C305 C 0.14373 0.02093 0.4884 0.0
C306 C 0.14764 0.017 0.58101 0.0
C307 C 0.15871 0.99938 0.60717 0.0
C308 C 0.16228 0.99566 0.69446 0.0
C309 C 0.15493 1.00951 0.75623 0.0
C310 C 0.14406 0.02715 0.73081 0.0
C311 C 0.14047 0.03096 0.64362 0.0
H312 H 0.1577 1.0066 0.82377 0.0
H313 H 0.12418 0.05976 0.9939 0.0
H314 H 0.48882 0.23151 0.25979 0.0
H315 H 0.48351 0.19863 0.33599 0.0
H316 H 0.54061 0.17527 0.23082 0.0
H317 H 0.54592 0.20829 0.156 0.0
H318 H 0.50845 0.14484 0.23867 0.0
H319 H 0.54204 0.19482 0.42167 0.0
H320 H 0.54523 0.22847 0.49423 0.0
H321 H 0.48763 0.21846 0.62402 0.0
H322 H 0.48399 0.18482 0.5515 0.0
H323 H 0.53185 0.06445 0.53644 0.0
H324 H 0.53133 0.09398 0.43861 0.0
H325 H 0.48478 0.12333 0.59588 0.0
H326 H 0.48634 0.09431 0.69662 0.0
H327 H 0.50982 0.15074 0.55643 0.0
H328 H 0.47643 0.09994 0.38265 0.0
H329 H 0.47248 0.06628 0.31085 0.0
H330 H 0.52719 0.07745 0.16237 0.0
H331 H 0.53166 0.11105 0.23426 0.0
C332 C 0.49982 0.21907 0.2511 0.0
C333 C 0.51759 0.22221 0.2012 0.0
C334 C 0.49692 0.20036 0.29505 0.0
C335 C 0.51172 0.18443 0.28963 0.0
C336 C 0.52891 0.18721 0.23579 0.0
C337 C 0.53192 0.206 0.19281 0.0
C338 C 0.51027 0.16571 0.34573 0.0
C339 C 0.50886 0.14606 0.30817 0.0
C340 C 0.5104 0.16726 0.4365 0.0
C341 C 0.51264 0.18741 0.4805 0.0
C342 C 0.52998 0.19987 0.4652 0.0
C343 C 0.53189 0.21892 0.50641 0.0
C344 C 0.51661 0.22563 0.56345 0.0
C345 C 0.49943 0.21326 0.57968 0.0
C346 C 0.49745 0.19419 0.53864 0.0
C347 C 0.52138 0.07714 0.54968 0.0
C348 C 0.50912 0.07704 0.62429 0.0
C349 C 0.52095 0.09404 0.49317 0.0
C350 C 0.50775 0.111 0.50824 0.0
C351 C 0.49517 0.11061 0.58213 0.0
C352 C 0.49597 0.09394 0.63969 0.0
C353 C 0.50776 0.12955 0.44994 0.0
C354 C 0.50909 0.1493 0.48705 0.0
C355 C 0.50729 0.12803 0.35877 0.0
C356 C 0.50447 0.10796 0.31443 0.0
C357 C 0.48769 0.09518 0.33503 0.0
C358 C 0.48535 0.07611 0.2943 0.0
C359 C 0.4996 0.06972 0.23222 0.0
C360 C 0.51618 0.08242 0.21053 0.0
C361 C 0.51861 0.10149 0.2512 0.0
H362 H 0.49778 0.05494 0.20084 0.0
H363 H 0.5181 0.24039 0.59525 0.0
H364 H 0.31753 0.49433 0.15575 0.0
H365 H 0.35274 0.49066 0.2111 0.0
H366 H 0.35144 0.55455 0.29036 0.0
H367 H 0.31824 0.55886 0.22147 0.0
H368 H 0.38606 0.54979 0.26723 0.0
H369 H 0.34199 0.5043 0.42734 0.0
H370 H 0.31774 0.47562 0.45117 0.0
H371 H 0.36196 0.43285 0.34704 0.0
H372 H 0.3864 0.46134 0.32184 0.0
H373 H 0.43934 0.53807 0.66939 0.0
H374 H 0.41193 0.53645 0.56208 0.0
H375 H 0.4519 0.50177 0.39381 0.0
H376 H 0.47991 0.50373 0.50163 0.0
H377 H 0.4029 0.48824 0.44316 0.0
H378 H 0.44871 0.54348 0.33318 0.0
H379 H 0.46753 0.57529 0.36888 0.0
H380 H 0.41055 0.6051 0.43802 0.0
H381 H 0.39151 0.57324 0.40606 0.0
C382 C 0.32509 0.50771 0.18247 0.0
C383 C 0.31469 0.52681 0.18593 0.0
C384 C 0.34516 0.5055 0.21657 0.0
C385 C 0.35495 0.52204 0.25934 0.0
C386 C 0.34473 0.54128 0.25895 0.0
C387 C 0.32531 0.54371 0.22083 0.0
C388 C 0.37537 0.51964 0.30619 0.0
C389 C 0.38942 0.53622 0.30553 0.0
C390 C 0.38054 0.50207 0.35708 0.0
C391 C 0.36588 0.48496 0.37159 0.0
C392 C 0.34647 0.48879 0.40903 0.0
C393 C 0.33271 0.47257 0.42284 0.0
C394 C 0.33828 0.45244 0.40031 0.0
C395 C 0.35765 0.44847 0.36419 0.0
C396 C 0.37146 0.46463 0.35013 0.0
C397 C 0.44243 0.53014 0.60945 0.0
C398 C 0.4619 0.52112 0.59398 0.0
C399 C 0.42666 0.52917 0.54824 0.0
C400 C 0.42974 0.51891 0.47001 0.0
C401 C 0.44913 0.50971 0.45396 0.0
C402 C 0.46517 0.51097 0.51517 0.0
C403 C 0.41262 0.51854 0.4054 0.0
C404 C 0.39937 0.50148 0.40298 0.0
C405 C 0.40731 0.53627 0.35709 0.0
C406 C 0.41871 0.55587 0.36799 0.0
C407 C 0.44022 0.55678 0.35637 0.0
C408 C 0.45093 0.57483 0.37621 0.0
C409 C 0.44022 0.59216 0.40628 0.0
C410 C 0.4188 0.59162 0.4151 0.0
C411 C 0.40806 0.57357 0.3962 0.0
H412 H 0.44843 0.60603 0.42326 0.0
H413 H 0.3276 0.4399 0.41108 0.0
H414 H 0.03975 0.33096 0.11747 0.0
H415 H 0.0354 0.36485 0.18705 0.0
H416 H 0.99285 0.33798 0.36814 0.0
H417 H 0.99742 0.30418 0.29853 0.0
H418 H 0.98035 0.37753 0.31399 0.0
H419 H 0.04186 0.34376 0.42218 0.0
H420 H 0.07589 0.32695 0.40694 0.0
H421 H 0.1002 0.38181 0.2907 0.0
H422 H 0.06618 0.39884 0.30396 0.0
H423 H 0.98263 0.44328 0.67368 0.0
H424 H 0.98461 0.41498 0.57118 0.0
H425 H 0.03344 0.44623 0.43559 0.0
H426 H 0.0319 0.47457 0.54081 0.0
H427 H 0.04293 0.40705 0.44944 0.0
H428 H 0.98272 0.44283 0.35974 0.0
H429 H 0.94884 0.45986 0.37515 0.0
H430 H 0.92158 0.4023 0.44911 0.0
H431 H 0.95542 0.38502 0.43725 0.0
C432 C 0.02912 0.33253 0.17081 0.0
C433 C 0.0187 0.31515 0.20221 0.0
C434 C 0.02673 0.35181 0.21096 0.0
C435 C 0.01387 0.35403 0.28342 0.0
C436 C 1.00277 0.33676 0.31231 0.0
C437 C 1.00533 0.31749 0.2726 0.0
C438 C 0.01304 0.37385 0.33286 0.0
C439 C 0.99398 0.38394 0.34415 0.0
C440 C 0.03092 0.38262 0.37018 0.0
C441 C 0.05143 0.37249 0.36319 0.0
C442 C 0.05442 0.35218 0.39278 0.0
C443 C 0.07371 0.34262 0.38457 0.0
C444 C 0.09018 0.35329 0.34767 0.0
C445 C 0.08742 0.37356 0.31913 0.0
C446 C 0.06814 0.38317 0.32698 0.0
C447 C 0.99375 0.44425 0.62183 0.0
C448 C 1.0071 0.46124 0.61546 0.0
C449 C 0.99478 0.42803 0.56264 0.0
C450 C 1.00893 0.42844 0.49417 0.0
C451 C 0.0223 0.44548 0.48741 0.0
C452 C 0.02137 0.46173 0.54737 0.0
C453 C 1.01011 0.41071 0.43219 0.0
C454 C 0.02926 0.40093 0.41855 0.0
C455 C 0.99227 0.40233 0.39225 0.0
C456 C 0.97175 0.41264 0.39838 0.0
C457 C 0.96957 0.43381 0.38022 0.0
C458 C 0.95036 0.44353 0.38855 0.0
C459 C 0.93306 0.43217 0.41307 0.0
C460 C 0.93497 0.41108 0.42988 0.0
C461 C 0.9542 0.40132 0.42269 0.0
H462 H 0.91817 0.43969 0.41883 0.0
H463 H 0.10511 0.34586 0.34137 0.0
H464 H 0.79991 0.02358 0.12648 0.0
H465 H 0.83171 0.02832 0.04314 0.0
H466 H 0.86383 0.98667 0.21399 0.0
H467 H 0.83226 0.98304 0.30003 0.0
H468 H 0.88964 0.01478 0.16869 0.0
H469 H 0.84411 0.97152 0.01161 0.0
H470 H 0.81155 0.96108 0.94247 0.0
H471 H 0.81545 0.01268 0.77009 0.0
H472 H 0.84788 0.02363 0.83919 0.0
H473 H 0.971 0.99319 0.8634 0.0
H474 H 0.94123 0.98954 0.96022 0.0
H475 H 0.90974 0.03842 0.82435 0.0
H476 H 0.93952 0.04223 0.72883 0.0
H477 H 0.88444 1.00495 0.85327 0.0
H478 H 0.93123 0.04742 0.01862 0.0
H479 H 0.96483 0.05487 0.08612 0.0
H480 H 0.95957 1.00035 0.24136 0.0
H481 H 0.92612 0.99235 0.1735 0.0
C482 C 0.81389 0.0158 0.14699 0.0
C483 C 0.81356 1.00272 0.21896 0.0
C484 C 0.83204 0.01828 0.09878 0.0
C485 C 0.85022 1.00739 0.12034 0.0
C486 C 0.8501 0.99511 0.19496 0.0
C487 C 0.832 0.99288 0.2438 0.0
C488 C 0.86899 1.00822 0.06355 0.0
C489 C 0.88845 1.01238 0.0999 0.0
C490 C 0.86775 1.00512 0.97336 0.0
C491 C 0.84832 0.99851 0.93116 0.0
C492 C 0.83795 0.98073 0.95934 0.0
C493 C 0.81953 0.97471 0.92013 0.0
C494 C 0.81141 0.98624 0.85206 0.0
C495 C 0.82174 1.00378 0.82292 0.0
C496 C 0.84015 1.0099 0.86207 0.0
C497 C 0.95778 1.0032 0.85476 0.0
C498 C 0.95769 0.01803 0.7888 0.0
C499 C 0.94074 1.00113 0.91004 0.0
C500 C 0.92317 0.01379 0.90006 0.0
C501 C 0.92303 0.02845 0.8335 0.0
C502 C 0.94011 0.03064 0.77897 0.0
C503 C 0.90486 1.01184 0.95826 0.0
C504 C 0.88553 1.00736 0.92211 0.0
C505 C 0.90633 0.01423 0.04857 0.0
C506 C 0.92623 0.01923 0.09062 0.0
C507 C 0.9373 0.03696 0.06681 0.0
C508 C 0.95632 0.04127 0.10506 0.0
C509 C 0.96435 0.02806 0.16779 0.0
C510 C 0.95335 1.01054 0.19261 0.0
C511 C 0.93435 1.00612 0.15431 0.0
H512 H 0.97907 0.03143 0.19725 0.0
H513 H 0.79714 0.98155 0.82177 0.0
H514 H 0.54496 0.81603 0.20561 0.0
H515 H 0.55077 0.85018 0.14096 0.0
H516 H 0.48601 0.86445 0.17144 0.0
H517 H 0.48071 0.83113 0.2406 0.0
H518 H 0.53854 0.86493 1.00003 0.0
H519 H 0.4742 0.9124 0.16911 0.0
H520 H 0.45857 0.91504 0.3132 0.0
H521 H 0.51522 0.8942 0.42795 0.0
H522 H 0.53113 0.89114 0.28437 0.0
H523 H 0.50201 0.94272 0.7288 0.0
H524 H 0.50543 0.91454 0.83186 0.0
H525 H 0.53323 0.95602 0.01436 0.0
H526 H 0.52964 0.98455 0.9099 0.0
H527 H 0.50616 0.93064 0.0944 0.0
H528 H 0.56321 0.92151 0.90814 0.0
H529 H 0.58151 0.91909 0.76947 0.0
H530 H 0.54592 0.86577 0.70227 0.0
H531 H 0.52719 0.86804 0.84004 0.0
C532 C 0.53221 0.82683 0.20117 0.0
C533 C 0.51239 0.82095 0.22825 0.0
C534 C 0.53543 0.84628 0.16322 0.0
C535 C 0.5189 0.86024 0.15136 0.0
C536 C 0.49925 0.85447 0.18127 0.0
C537 C 0.49613 0.83526 0.22019 0.0
C538 C 0.52162 0.87998 0.1017 0.0
C539 C 0.53159 0.87928 0.0214 0.0
C540 C 0.51306 0.89908 0.12936 0.0
C541 C 0.50382 0.90148 0.21599 0.0
C542 C 0.48337 0.90852 0.22511 0.0
C543 C 0.47444 0.91002 0.30667 0.0
C544 C 0.48591 0.90486 0.3797 0.0
C545 C 0.50634 0.89816 0.37132 0.0
C546 C 0.51529 0.89643 0.28985 0.0
C547 C 0.50883 0.9459 0.79092 0.0
C548 C 0.51548 0.9659 0.81161 0.0
C549 C 0.51087 0.92971 0.84984 0.0
C550 C 0.51984 0.93297 0.93091 0.0
C551 C 0.52625 0.95305 0.95241 0.0
C552 C 0.52417 0.96935 0.89304 0.0
C553 C 0.52238 0.91524 0.99196 0.0
C554 C 0.51337 0.91633 0.07399 0.0
C555 C 0.53232 0.89665 0.96693 0.0
C556 C 0.54371 0.89502 0.8843 0.0
C557 C 0.5592 0.90934 0.8636 0.0
C558 C 0.56966 0.90799 0.78517 0.0
C559 C 0.56486 0.89231 0.72705 0.0
C560 C 0.54963 0.87791 0.74736 0.0
C561 C 0.5391 0.8792 0.82569 0.0
H562 H 0.57296 0.8913 0.66632 0.0
H563 H 0.47896 0.90605 0.44278 0.0
H564 H 0.68955 0.48252 0.36184 0.0
H565 H 0.65768 0.48859 0.27982 0.0
H566 H 0.68972 0.53269 0.12129 0.0
H567 H 0.7217 0.52597 0.20183 0.0
H568 H 0.63125 0.51859 0.23401 0.0
H569 H 0.67608 0.52631 0.91459 0.0
H570 H 0.70964 0.516 0.85242 0.0
H571 H 0.71278 0.46432 0.02477 0.0
H572 H 0.67917 0.47421 0.08738 0.0
H573 H 0.56003 0.54224 0.88629 0.0
H574 H 0.58785 0.5425 0.99422 0.0
H575 H 0.60768 0.48228 0.9089 0.0
H576 H 0.58048 0.48224 0.80067 0.0
H577 H 0.63971 0.50517 0.92214 0.0
H578 H 0.5811 0.49195 0.10072 0.0
H579 H 0.54664 0.49919 0.16097 0.0
H580 H 0.56923 0.55499 0.27493 0.0
H581 H 0.60369 0.54846 0.21281 0.0
C582 C 0.68958 0.49383 0.31061 0.0
C583 C 0.70809 0.50369 0.28779 0.0
C584 C 0.67136 0.49734 0.26379 0.0
C585 C 0.67124 0.51082 0.19289 0.0
C586 C 0.68938 0.52194 0.17461 0.0
C587 C 0.70763 0.51831 0.22119 0.0
C588 C 0.653 0.51157 0.13326 0.0
C589 C 0.63312 0.51582 0.1657 0.0
C590 C 0.65515 0.50741 0.04423 0.0
C591 C 0.67522 0.50115 0.00618 0.0
C592 C 0.68391 0.51272 0.93899 0.0
C593 C 0.70295 0.50696 0.90378 0.0
C594 C 0.71338 0.48957 0.93491 0.0
C595 C 0.70474 0.47785 0.00105 0.0
C596 C 0.68571 0.48353 0.03645 0.0
C597 C 0.57024 0.52901 0.89133 0.0
C598 C 0.56811 0.51227 0.83451 0.0
C599 C 0.58615 0.52913 0.95318 0.0
C600 C 0.60006 0.5124 0.9602 0.0
C601 C 0.59742 0.49549 0.90482 0.0
C602 C 0.58174 0.49545 0.84295 0.0
C603 C 0.61787 0.51251 0.02218 0.0
C604 C 0.63776 0.50826 0.99019 0.0
C605 C 0.61554 0.51619 0.11167 0.0
C606 C 0.59494 0.51987 0.15086 0.0
C607 C 0.57868 0.50591 0.13763 0.0
C608 C 0.55912 0.50991 0.17199 0.0
C609 C 0.55571 0.52761 0.22126 0.0
C610 C 0.57187 0.54133 0.23641 0.0
C611 C 0.59141 0.53751 0.20145 0.0
H612 H 0.54059 0.5306 0.24826 0.0
H613 H 0.72812 0.48515 0.90763 0.0
H614 H 0.9901 0.6972 0.35194 0.0
H615 H 0.99462 0.66406 0.27663 0.0
H616 H 0.02245 0.69604 0.06303 0.0
H617 H 0.01768 0.729 0.13855 0.0
H618 H 0.99184 0.67218 0.00962 0.0
H619 H 0.05164 0.66102 0.19469 0.0
H620 H 0.06942 0.65824 0.33458 0.0
H621 H 0.02667 0.61157 0.4146 0.0
H622 H 1.00892 0.61383 0.27473 0.0
H623 H 0.02571 0.59364 0.74146 0.0
H624 H 0.02446 0.62178 0.84446 0.0
H625 H 0.99808 0.5811 0.03403 0.0
H626 H 0.99994 0.55232 0.93022 0.0
H627 H 0.02521 0.60742 0.10934 0.0
H628 H 0.96749 0.61558 0.92346 0.0
H629 H 0.94889 0.61748 0.78541 0.0
H630 H 0.9848 0.67012 0.71177 0.0
H631 H 1.00382 0.66836 0.84892 0.0
C632 C 0.99779 0.69692 0.29015 0.0
C633 C 1.00391 0.71549 0.25146 0.0
C634 C 1.00035 0.67802 0.24694 0.0
C635 C 1.009 0.67739 0.1639 0.0
C636 C 0.01579 0.69599 0.1269 0.0
C637 C 0.01326 0.7148 0.17017 0.0
C638 C 1.00915 0.6579 0.11183 0.0
C639 C 0.99941 0.65814 0.03116 0.0
C640 C 0.01812 0.63915 0.14098 0.0
C641 C 0.02885 0.63774 0.22474 0.0
C642 C 0.04603 0.65022 0.24231 0.0
C643 C 0.05616 0.64866 0.32141 0.0
C644 C 0.04919 0.63474 0.38349 0.0
C645 C 0.03213 0.62229 0.36641 0.0
C646 C 0.02209 0.62361 0.2871 0.0
C647 C 0.01968 0.59056 0.80513 0.0
C648 C 1.0127 0.57075 0.82727 0.0
C649 C 0.01891 0.60677 0.86412 0.0
C650 C 1.01071 0.60385 0.9468 0.0
C651 C 1.00433 0.58386 0.97051 0.0
C652 C 1.00533 0.56742 0.91118 0.0
C653 C 1.00846 0.62198 0.00602 0.0
C654 C 0.01761 0.62147 0.08797 0.0
C655 C 0.99871 0.6405 0.97865 0.0
C656 C 0.98718 0.64174 0.89629 0.0
C657 C 0.97151 0.62748 0.87762 0.0
C658 C 0.96088 0.62855 0.79954 0.0
C659 C 0.96569 0.64389 0.73979 0.0
C660 C 0.9811 0.65824 0.7581 0.0
C661 C 0.99179 0.65723 0.83605 0.0
H662 H 0.95744 0.64469 0.67936 0.0
H663 H 0.05704 0.63356 0.44472 0.0
H664 H 0.01584 0.23064 0.22399 0.0
H665 H 0.02847 0.19498 0.2305 0.0
H666 H 0.08954 0.21564 0.16189 0.0
H667 H 0.07659 0.25146 0.15472 0.0
H668 H 0.07416 0.18222 0.05965 0.0
H669 H 0.08083 0.20029 0.36279 0.0
H670 H 0.06712 0.21401 0.4993 0.0
H671 H 0.01974 0.16792 0.49947 0.0
H672 H 0.03286 0.15419 0.36218 0.0
H673 H 0.08564 0.07614 0.30883 0.0
H674 H 0.09825 0.10974 0.2618 0.0
H675 H 0.04604 0.11597 0.09222 0.0
H676 H 0.03283 0.08286 0.1415 0.0
H677 H 0.06732 0.13732 0.31601 0.0
H678 H 0.05726 0.15876 0.95371 0.0
H679 H 0.06558 0.14359 0.81236 0.0
H680 H 0.1145 0.10805 0.92583 0.0
H681 H 0.10698 0.12337 0.06722 0.0
C682 C 0.03209 0.22752 0.21359 0.0
C683 C 0.04543 0.24355 0.19083 0.0
C684 C 0.03925 0.20724 0.2163 0.0
C685 C 0.05995 0.20273 0.19691 0.0
C686 C 0.07353 0.21887 0.17721 0.0
C687 C 0.0663 0.23923 0.17461 0.0
C688 C 0.06696 0.18101 0.19479 0.0
C689 C 0.073 0.17235 0.11574 0.0
C690 C 0.0653 0.16827 0.26808 0.0
C691 C 0.05783 0.17625 0.35202 0.0
C692 C 0.06745 0.19313 0.3918 0.0
C693 C 0.05976 0.20091 0.46932 0.0
C694 C 0.04254 0.19184 0.5079 0.0
C695 C 0.03306 0.17492 0.46944 0.0
C696 C 0.04063 0.16713 0.39186 0.0
C697 C 0.07731 0.0843 0.25877 0.0
C698 C 0.05783 0.0774 0.23147 0.0
C699 C 0.08463 0.1034 0.23147 0.0
C700 C 0.07269 0.11555 0.17559 0.0
C701 C 0.05528 0.10691 0.13626 0.0
C702 C 0.04776 0.08791 0.16443 0.0
C703 C 0.07418 0.13826 0.18053 0.0
C704 C 0.06933 0.14717 0.2602 0.0
C705 C 0.07632 0.15096 0.10725 0.0
C706 C 0.08137 0.14211 0.0216 0.0
C707 C 0.06988 0.14783 0.94853 0.0
C708 C 0.07445 0.1392 0.86835 0.0
C709 C 0.09044 0.1248 0.86028 0.0
C710 C 0.10204 0.11913 0.93223 0.0
C711 C 0.09763 0.12779 0.01245 0.0
H712 H 0.09388 0.11809 0.79819 0.0
H713 H 0.03646 0.19791 0.56744 0.0
H714 H 0.26968 0.97459 0.2842 0.0
H715 H 0.3 0.95412 0.32038 0.0
H716 H 0.3222 0.96073 0.05998 0.0
H717 H 0.28993 0.97792 0.02049 0.0
H718 H 0.33927 0.92954 0.11537 0.0
H719 H 0.33302 0.9976 0.24487 0.0
H720 H 0.31769 0.02516 0.33464 0.0
H721 H 0.32022 0.98531 0.55504 0.0
H722 H 0.33549 0.95761 0.46617 0.0
H723 H 0.44115 0.9648 0.18373 0.0
H724 H 0.40648 0.95331 0.14677 0.0
H725 H 0.39783 0.93123 0.40588 0.0
H726 H 0.43187 0.94369 0.44461 0.0
H727 H 0.37255 0.96166 0.36859 0.0
H728 H 0.39118 0.89874 0.2314 0.0
H729 H 0.41119 0.87638 0.13371 0.0
H730 H 0.39001 0.91162 0.91694 0.0
H731 H 0.3701 0.93439 0.01334 0.0
C732 C 0.28046 0.97068 0.23359 0.0
C733 C 0.27761 0.97817 0.14969 0.0
C734 C 0.29812 0.95941 0.25482 0.0
C735 C 0.31405 0.95685 0.19437 0.0
C736 C 0.3104 0.96274 0.10864 0.0
C737 C 0.29207 0.97285 0.08618 0.0
C738 C 0.33514 0.95043 0.222 0.0
C739 C 0.34656 0.9366 0.17065 0.0
C740 C 0.3447 0.95916 0.2955 0.0
C741 C 0.33495 0.9755 0.34853 0.0
C742 C 0.33004 0.99473 0.3122 0.0
C743 C 0.32144 1.01036 0.36293 0.0
C744 C 0.31782 1.00692 0.45032 0.0
C745 C 0.32289 0.9879 0.48721 0.0
C746 C 0.33153 0.97225 0.4367 0.0
C747 C 0.43204 0.95708 0.23233 0.0
C748 C 0.43906 0.95575 0.3177 0.0
C749 C 0.41233 0.95016 0.21069 0.0
C750 C 0.3995 0.94152 0.2738 0.0
C751 C 0.40749 0.93786 0.35623 0.0
C752 C 0.42704 0.94501 0.37821 0.0
C753 C 0.37688 0.94138 0.26045 0.0
C754 C 0.36513 0.95406 0.3147 0.0
C755 C 0.36743 0.93217 0.18828 0.0
C756 C 0.37915 0.91831 0.12979 0.0
C757 C 0.39086 0.9018 0.16295 0.0
C758 C 0.40218 0.88903 0.10776 0.0
C759 C 0.40187 0.89257 0.01918 0.0
C760 C 0.3902 0.90887 0.98557 0.0
C761 C 0.37885 0.92168 0.04046 0.0
H762 H 0.41066 0.88268 0.97659 0.0
H763 H 0.31118 0.01904 0.48956 0.0
H764 H 0.52118 0.31044 0.20732 0.0
H765 H 0.53981 0.34241 0.23359 0.0
H766 H 0.59774 0.30927 0.22064 0.0
H767 H 0.57881 0.2773 0.18928 0.0
H768 H 0.56235 0.35719 0.34535 0.0
H769 H 0.63545 0.34194 0.14849 0.0
H770 H 0.64792 0.31998 0.02949 0.0
H771 H 0.58659 0.31731 0.92579 0.0
H772 H 0.57382 0.33947 0.04403 0.0
H773 H 0.61094 0.45052 0.36462 0.0
H774 H 0.62011 0.41484 0.33238 0.0
H775 H 0.57602 0.41443 0.12518 0.0
H776 H 0.5675 0.45044 0.15394 0.0
H777 H 0.61393 0.38124 0.13193 0.0
H778 H 0.54084 0.3965 0.28564 0.0
H779 H 0.52284 0.42178 0.37819 0.0
H780 H 0.57699 0.42729 0.53534 0.0
H781 H 0.59508 0.40162 0.44484 0.0
C782 C 0.53788 0.31008 0.21028 0.0
C783 C 0.54867 0.29168 0.19518 0.0
C784 C 0.54854 0.32827 0.22561 0.0
C785 C 0.57024 0.32841 0.22742 0.0
C786 C 0.58104 0.30969 0.21753 0.0
C787 C 0.57029 0.29144 0.20072 0.0
C788 C 0.58102 0.34847 0.23618 0.0
C789 C 0.57395 0.36219 0.29957 0.0
C790 C 0.59619 0.35523 0.17668 0.0
C791 C 0.60365 0.34204 0.10548 0.0
C792 C 0.62464 0.33665 0.10023 0.0
C793 C 0.63176 0.3242 0.03301 0.0
C794 C 0.61802 0.31718 0.97039 0.0
C795 C 0.59716 0.32269 0.97463 0.0
C796 C 0.58998 0.33516 0.04169 0.0
C797 C 0.60415 0.44332 0.30864 0.0
C798 C 0.58782 0.45289 0.26411 0.0
C799 C 0.60944 0.42287 0.29031 0.0
C800 C 0.59819 0.41193 0.22857 0.0
C801 C 0.58468 0.42262 0.17388 0.0
C802 C 0.57963 0.44312 0.19116 0.0
C803 C 0.59491 0.38962 0.23975 0.0
C804 C 0.60317 0.37571 0.18005 0.0
C805 C 0.58031 0.38272 0.30078 0.0
C806 C 0.56932 0.3973 0.3584 0.0
C807 C 0.54881 0.40298 0.34048 0.0
C808 C 0.53859 0.41733 0.39258 0.0
C809 C 0.54877 0.42613 0.46265 0.0
C810 C 0.56913 0.42046 0.48108 0.0
C811 C 0.57933 0.40594 0.42968 0.0
H812 H 0.54089 0.43735 0.50254 0.0
H813 H 0.62355 0.30754 0.91843 0.0
H814 H 0.25414 0.58068 0.16058 0.0
H815 H 0.22096 0.59861 0.1814 0.0
H816 H 0.19158 0.54001 0.22935 0.0
H817 H 0.22463 0.52232 0.20548 0.0
H818 H 0.16844 0.56122 0.12846 0.0
H819 H 0.20396 0.57475 0.39428 0.0
H820 H 0.23236 0.58729 0.48568 0.0
H821 H 0.22414 0.64847 0.38497 0.0
H822 H 0.19579 0.63622 0.2923 0.0
H823 H 0.09898 0.58414 0.47447 0.0
H824 H 0.13309 0.59185 0.42157 0.0
H825 H 0.10755 0.6086 0.17487 0.0
H826 H 0.07288 0.60003 0.22735 0.0
H827 H 0.15878 0.61665 0.34492 0.0
H828 H 0.12998 0.58535 0.03417 0.0
H829 H 0.09805 0.56938 0.97889 0.0
H830 H 0.09154 0.53514 0.21368 0.0
H831 H 0.12326 0.55111 0.27042 0.0
C832 C 0.24053 0.57186 0.17691 0.0
C833 C 0.24164 0.55032 0.18252 0.0
C834 C 0.22166 0.582 0.18838 0.0
C835 C 0.20379 0.57066 0.20716 0.0
C836 C 0.20512 0.54908 0.21429 0.0
C837 C 0.22391 0.53898 0.20172 0.0
C838 C 0.18361 0.58107 0.21991 0.0
C839 C 0.16645 0.57359 0.17477 0.0
C840 C 0.18088 0.59716 0.28047 0.0
C841 C 0.19799 0.60453 0.33552 0.0
C842 C 0.20834 0.59084 0.39109 0.0
C843 C 0.22439 0.5979 0.44325 0.0
C844 C 0.23011 0.61865 0.44087 0.0
C845 C 0.21973 0.63239 0.38654 0.0
C846 C 0.20367 0.62541 0.33422 0.0
C847 C 0.10037 0.59029 0.40999 0.0
C848 C 0.08333 0.59091 0.35415 0.0
C849 C 0.12002 0.59481 0.37979 0.0
C850 C 0.12298 0.60011 0.29336 0.0
C851 C 0.10563 0.60392 0.24119 0.0
C852 C 0.08587 0.59898 0.27101 0.0
C853 C 0.14367 0.59634 0.25567 0.0
C854 C 0.16099 0.605 0.29569 0.0
C855 C 0.14654 0.5806 0.19365 0.0
C856 C 0.12886 0.5694 0.15629 0.0
C857 C 0.12182 0.57424 0.07338 0.0
C858 C 0.10366 0.56537 0.04228 0.0
C859 C 0.09267 0.55142 0.09315 0.0
C860 C 0.09999 0.54604 0.17461 0.0
C861 C 0.11803 0.55499 0.20626 0.0
H862 H 0.07857 0.54465 0.06914 0.0
H863 H 0.24253 0.62409 0.48132 0.0
H864 H 0.95748 0.78731 0.4066 0.0
H865 H 0.94612 0.82267 0.38036 0.0
H866 H 0.96315 0.81678 0.11361 0.0
H867 H 0.97482 0.78144 0.14059 0.0
H868 H 0.98489 0.84449 0.1777 0.0
H869 H 0.91238 0.83223 0.19166 0.0
H870 H 0.88008 0.81809 0.25074 0.0
H871 H 0.88907 0.85228 0.48392 0.0
H872 H 0.92156 0.86645 0.42666 0.0
H873 H 0.94864 0.95008 0.09831 0.0
H874 H 0.93666 0.9165 0.14904 0.0
H875 H 0.99003 0.91155 0.31365 0.0
H876 H 1.00231 0.9449 0.26165 0.0
H877 H 0.93014 0.89029 0.29497 0.0
H878 H 0.01549 0.86877 0.24297 0.0
H879 H 0.04654 0.88324 0.17381 0.0
H880 H 1.00843 0.91536 0.99128 0.0
H881 H 0.97725 0.90072 0.05822 0.0
C882 C 0.95788 0.79336 0.34173 0.0
C883 C 0.96721 0.78197 0.27576 0.0
C884 C 0.9515 0.81362 0.32678 0.0
C885 C 0.95438 0.82271 0.2458 0.0
C886 C 0.96109 0.81026 0.17714 0.0
C887 C 0.96754 0.79001 0.19215 0.0
C888 C 0.95478 0.84554 0.23741 0.0
C889 C 0.97268 0.85435 0.20246 0.0
C890 C 0.9391 0.85864 0.27064 0.0
C891 C 0.91945 0.85034 0.30494 0.0
C892 C 0.90753 0.83666 0.25571 0.0
C893 C 0.88917 0.82865 0.28885 0.0
C894 C 0.88253 0.83428 0.37105 0.0
C895 C 0.89421 0.84797 0.42019 0.0
C896 C 0.91257 0.85603 0.38733 0.0
C897 C 0.95738 0.94216 0.14785 0.0
C898 C 0.97669 0.94968 0.1742 0.0
C899 C 0.95042 0.92308 0.17736 0.0
C900 C 0.96274 0.91139 0.2333 0.0
C901 C 0.98043 0.92033 0.26967 0.0
C902 C 0.98743 0.93939 0.23998 0.0
C903 C 0.96013 0.88875 0.23576 0.0
C904 C 0.94205 0.88015 0.26978 0.0
C905 C 0.97535 0.87568 0.19954 0.0
C906 C 0.99405 0.88392 0.15657 0.0
C907 C 0.01377 0.87884 0.18785 0.0
C908 C 0.03138 0.88706 0.149 0.0
C909 C 0.02945 0.90031 0.07853 0.0
C910 C 1.00991 0.90518 0.04615 0.0
C911 C 0.99227 0.89692 0.08451 0.0
H912 H 0.0431 0.90673 0.04882 0.0
H913 H 0.86833 0.82804 0.39663 0.0
H914 H 0.75341 0.95813 0.16032 0.0
H915 H 0.72018 0.94134 0.14405 0.0
H916 H 0.70397 0.95974 0.40251 0.0
H917 H 0.73902 0.97163 0.42482 0.0
H918 H 0.67867 0.93554 0.37173 0.0
H919 H 0.69563 0.9943 0.16077 0.0
H920 H 0.71631 1.00811 0.04059 0.0
H921 H 0.7053 0.95281 0.89616 0.0
H922 H 0.68499 0.93863 0.01688 0.0
H923 H 0.59733 1.00755 0.27349 0.0
H924 H 0.62709 0.98663 0.3181 0.0
H925 H 0.61173 0.94101 0.1273 0.0
H926 H 0.5816 0.96148 0.08446 0.0
H927 H 0.64945 0.96569 0.1053 0.0
H928 H 0.61548 0.92225 0.2981 0.0
H929 H 0.59318 0.91142 0.41785 0.0
H930 H 0.63369 0.94077 0.59774 0.0
H931 H 0.65574 0.95283 0.47883 0.0
C932 C 0.74322 0.95734 0.21534 0.0
C933 C 0.74853 0.96688 0.29322 0.0
C934 C 0.72375 0.94851 0.20486 0.0
C935 C 0.70854 0.95099 0.2687 0.0
C936 C 0.71489 0.95798 0.3503 0.0
C937 C 0.73497 0.96508 0.36312 0.0
C938 C 0.68595 0.94924 0.24879 0.0
C939 C 0.67238 0.9424 0.31377 0.0
C940 C 0.67724 0.95686 0.17084 0.0
C941 C 0.68957 0.96518 0.09889 0.0
C942 C 0.69809 0.98498 0.1042 0.0
C943 C 0.70963 0.99289 0.03587 0.0
C944 C 0.71239 0.98121 0.96123 0.0
C945 C 0.70339 0.96172 0.95444 0.0
C946 C 0.69188 0.95375 0.0228 0.0
C947 C 0.59987 0.99267 0.24359 0.0
C948 C 0.58735 0.98615 0.1752 0.0
C949 C 0.61674 0.98067 0.26947 0.0
C950 C 0.6215 0.96229 0.22601 0.0
C951 C 0.60809 0.95501 0.16229 0.0
C952 C 0.59096 0.96675 0.13774 0.0
C953 C 0.64271 0.95401 0.23143 0.0
C954 C 0.65585 0.95872 0.16302 0.0
C955 C 0.65085 0.94506 0.30685 0.0
C956 C 0.63724 0.93861 0.37897 0.0
C957 C 0.61946 0.92681 0.36293 0.0
C958 C 0.60683 0.92047 0.43078 0.0
C959 C 0.61193 0.92558 0.51529 0.0
C960 C 0.62965 0.93708 0.5321 0.0
C961 C 0.64221 0.94371 0.46442 0.0
H962 H 0.60222 0.92052 0.56781 0.0
H963 H 0.72127 0.98736 0.90823 0.0
H964 H 0.50921 0.73577 0.17556 0.0
H965 H 0.49112 0.7037 0.14188 0.0
H966 H 0.43451 0.72976 0.24227 0.0
H967 H 0.45275 0.76225 0.27215 0.0
H968 H 0.47584 0.679 0.25194 0.0
H969 H 0.39327 0.70292 0.15157 0.0
H970 H 0.37535 0.73177 0.07903 0.0
H971 H 0.43084 0.74646 0.94124 0.0
H972 H 0.44898 0.71758 0.01216 0.0
H973 H 0.43349 0.58434 0.20741 0.0
H974 H 0.42734 0.62014 0.2512 0.0
H975 H 0.43453 0.63986 0.98819 0.0
H976 H 0.44073 0.60451 0.94454 0.0
H977 H 0.4122 0.66838 0.08024 0.0
H978 H 0.47759 0.63159 0.09481 0.0
H979 H 0.49954 0.60218 0.13851 0.0
H980 H 0.48537 0.61417 0.40354 0.0
H981 H 0.46348 0.64369 0.36126 0.0
C982 C 0.49282 0.73462 0.18844 0.0
C983 C 0.48221 0.7511 0.22614 0.0
C984 C 0.48252 0.7164 0.16988 0.0
C985 C 0.46148 0.71429 0.19007 0.0
C986 C 0.45067 0.73111 0.22533 0.0
C987 C 0.46099 0.74955 0.24247 0.0
C988 C 0.45161 0.69391 0.17951 0.0
C989 C 0.46177 0.6768 0.21521 0.0
C990 C 0.4333 0.69095 0.13144 0.0
C991 C 0.42253 0.70828 0.0881 0.0
C992 C 0.40162 0.71231 0.10572 0.0
C993 C 0.39143 0.72866 0.06488 0.0
C994 C 0.40197 0.741 0.00586 0.0
C995 C 0.42271 0.73696 0.9873 0.0
C996 C 0.43297 0.72063 0.02792 0.0
C997 C 0.43295 0.59625 0.15875 0.0
C998 C 0.43828 0.59172 0.07326 0.0
C999 C 0.42924 0.61665 0.18358 0.0
C1000 C 0.43108 0.63266 0.12316 0.0
C1001 C 0.43313 0.62776 0.0359 0.0
C1002 C 0.43675 0.60742 0.01105 0.0
C1003 C 0.43673 0.65368 0.1512 0.0
C1004 C 0.42585 0.67082 0.11922 0.0
C1005 C 0.45502 0.65681 0.19905 0.0
C1006 C 0.46869 0.63956 0.22495 0.0
C1007 C 0.47919 0.6279 0.16239 0.0
C1008 C 0.49166 0.61127 0.18688 0.0
C1009 C 0.49378 0.60623 0.27371 0.0
C1010 C 0.48375 0.61808 0.33624 0.0
C1011 C 0.47133 0.63478 0.31216 0.0
H1012 H 0.50318 0.59316 0.29258 0.0
H1013 H 0.39406 0.75364 0.97434 0.0
H1014 H 0.78399 0.4527 0.41481 0.0
H1015 H 0.81565 0.43855 0.35334 0.0
H1016 H 0.79206 0.45088 0.09859 0.0
H1017 H 0.76282 0.46922 0.16134 0.0
H1018 H 0.83193 0.41283 0.26268 0.0
H1019 H 0.82948 0.46547 0.95804 0.0
H1020 H 0.81421 0.49838 0.90933 0.0
H1021 H 0.80816 0.51837 0.17118 0.0
H1022 H 0.82322 0.48558 0.22156 0.0
H1023 H 0.92396 0.44137 0.94799 0.0
H1024 H 0.88835 0.43166 0.97682 0.0
H1025 H 0.89943 0.43713 0.24932 0.0
H1026 H 0.93536 0.44602 0.22078 0.0
H1027 H 0.86416 0.45952 0.04952 0.0
H1028 H 0.86366 0.41161 0.3634 0.0
H1029 H 0.88416 0.38388 0.43094 0.0
H1030 H 0.90324 0.36239 0.18221 0.0
H1031 H 0.88253 0.38974 0.11296 0.0
C1032 C 0.78606 0.45317 0.34607 0.0
C1033 C 0.77178 0.4634 0.29332 0.0
C1034 C 0.80382 0.44439 0.31046 0.0
C1035 C 0.80684 0.44456 0.22093 0.0
C1036 C 0.79072 0.45158 0.1679 0.0
C1037 C 0.77381 0.46176 0.20372 0.0
C1038 C 0.8276 0.44002 0.18448 0.0
C1039 C 0.839 0.42316 0.21654 0.0
C1040 C 0.83688 0.45323 0.12282 0.0
C1041 C 0.82728 0.47291 0.09352 0.0
C1042 C 0.8248 0.47685 0.00525 0.0
C1043 C 0.81614 0.49548 0.97738 0.0
C1044 C 0.81013 0.51042 0.03715 0.0
C1045 C 0.81269 0.50673 0.12497 0.0
C1046 C 0.82123 0.48809 0.15322 0.0
C1047 C 0.91912 0.43963 0.01422 0.0
C1048 C 0.93248 0.44458 0.08238 0.0
C1049 C 0.8987 0.43416 0.0305 0.0
C1050 C 0.89125 0.43355 0.1151 0.0
C1051 C 0.90491 0.43711 0.18351 0.0
C1052 C 0.92538 0.44247 0.16722 0.0
C1053 C 0.86874 0.43313 0.1312 0.0
C1054 C 0.8569 0.44894 0.09427 0.0
C1055 C 0.85964 0.41981 0.19217 0.0
C1056 C 0.87155 0.40279 0.23296 0.0
C1057 C 0.87205 0.40084 0.323 0.0
C1058 C 0.88375 0.38521 0.36162 0.0
C1059 C 0.89503 0.37141 0.31092 0.0
C1060 C 0.89453 0.37313 0.22142 0.0
C1061 C 0.88281 0.3887 0.18244 0.0
H1062 H 0.90416 0.35938 0.34098 0.0
H1063 H 0.80353 0.52487 0.01538 0.0
H1064 H 0.05419 0.24752 0.99685 0.0
H1065 H 0.05167 0.21379 0.92785 0.0
H1066 H 0.98653 0.2123 0.98553 0.0
H1067 H 0.98959 0.24567 0.06001 0.0
H1068 H 1.00299 0.17704 0.02763 0.0
H1069 H 1.00753 0.21837 0.76776 0.0
H1070 H 0.02395 0.24556 0.68059 0.0
H1071 H 0.08106 0.21163 0.68176 0.0
H1072 H 0.06499 0.18428 0.76919 0.0
H1073 H 1.00596 0.09512 0.65272 0.0
H1074 H 1.00553 0.1312 0.70023 0.0
H1075 H 0.03321 0.11306 0.94092 0.0
H1076 H 0.03269 0.07703 0.89561 0.0
H1077 H 0.03198 0.15901 0.74213 0.0
H1078 H 0.01886 0.145 0.10513 0.0
H1079 H 1.00442 0.11833 0.20051 0.0
H1080 H 0.9642 0.09815 0.99833 0.0
H1081 H 0.97821 0.12488 0.90194 0.0
C1082 C 0.03922 0.24024 0.99226 0.0
C1083 C 0.02203 0.24934 0.03256 0.0
C1084 C 0.03775 0.2209 0.95276 0.0
C1085 C 0.01882 0.21037 0.94988 0.0
C1086 C 1.00132 0.22 0.98634 0.0
C1087 C 1.00293 0.23926 0.02745 0.0
C1088 C 0.01766 0.18889 0.91389 0.0
C1089 C 1.00922 0.17315 0.96495 0.0
C1090 C 0.02581 0.18357 0.83216 0.0
C1091 C 0.03507 0.19933 0.77509 0.0
C1092 C 0.02357 0.2167 0.74917 0.0
C1093 C 0.03283 0.23216 0.69997 0.0
C1094 C 0.05357 0.23039 0.67612 0.0
C1095 C 0.06503 0.21303 0.70063 0.0
C1096 C 0.05582 0.19749 0.74956 0.0
C1097 C 1.01196 0.09883 0.71579 0.0
C1098 C 0.01908 0.08306 0.77067 0.0
C1099 C 1.01173 0.11953 0.743 0.0
C1100 C 0.0188 0.12503 0.82547 0.0
C1101 C 0.02693 0.10936 0.87838 0.0
C1102 C 0.02677 0.08867 0.85199 0.0
C1103 C 0.01749 0.14701 0.85636 0.0
C1104 C 0.02548 0.16287 0.80438 0.0
C1105 C 1.00902 0.1524 0.93768 0.0
C1106 C 0.9998 0.13679 0.99592 0.0
C1107 C 1.00682 0.13498 0.08116 0.0
C1108 C 0.99873 0.11983 0.13539 0.0
C1109 C 0.98345 0.1065 0.1054 0.0
C1110 C 0.9761 0.10843 0.02133 0.0
C1111 C 0.98413 0.12357 0.96683 0.0
H1112 H 0.97728 0.09472 0.14735 0.0
H1113 H 0.06072 0.24239 0.63815 0.0
H1114 H 0.30079 0.01817 0.19009 0.0
H1115 H 0.33558 0.02215 0.12961 0.0
H1116 H 0.30954 0.02479 0.8747 0.0
H1117 H 0.27483 0.02021 0.93619 0.0
H1118 H 0.34082 1.00002 0.8701 0.0
H1119 H 0.33269 0.06828 0.98385 0.0
H1120 H 0.32468 0.0943 0.0947 0.0
H1121 H 0.37345 0.07047 0.25374 0.0
H1122 H 0.38159 0.04415 0.14425 0.0
H1123 H 0.43829 0.02439 0.67466 0.0
H1124 H 0.40245 0.02497 0.72526 0.0
H1125 H 0.42367 0.02043 0.98728 0.0
H1126 H 0.45938 0.02035 0.93748 0.0
H1127 H 0.39419 0.04757 0.98161 0.0
H1128 H 0.40102 0.97831 0.87135 0.0
H1129 H 0.40885 0.95196 0.76158 0.0
H1130 H 0.36251 0.9778 0.5956 0.0
H1131 H 0.35449 1.0044 0.7042 0.0
C1132 C 0.30259 0.02017 0.12148 0.0
C1133 C 0.28519 0.01913 0.06794 0.0
C1134 C 0.32246 0.02237 0.08661 0.0
C1135 C 0.32546 0.02389 0.99709 0.0
C1136 C 0.30787 0.02364 0.9438 0.0
C1137 C 0.28798 0.02133 0.97885 0.0
C1138 C 0.3469 0.02467 0.95929 0.0
C1139 C 0.35233 1.01072 0.8936 0.0
C1140 C 0.36234 0.03819 0.99061 0.0
C1141 C 0.35765 0.05417 0.05607 0.0
C1142 C 0.34164 0.06853 0.04264 0.0
C1143 C 0.33708 0.08334 0.10521 0.0
C1144 C 0.34853 0.08402 0.18127 0.0
C1145 C 0.36459 0.06993 0.19481 0.0
C1146 C 0.36921 0.05508 0.13245 0.0
C1147 C 0.43536 0.02346 0.74307 0.0
C1148 C 0.45192 0.02232 0.80167 0.0
C1149 C 0.41475 0.02368 0.77209 0.0
C1150 C 0.41009 0.02252 0.86049 0.0
C1151 C 0.42664 0.02139 0.91887 0.0
C1152 C 0.44718 0.02128 0.89003 0.0
C1153 C 0.38814 0.02285 0.89285 0.0
C1154 C 0.38262 0.03699 0.95765 0.0
C1155 C 0.37263 1.00952 0.8606 0.0
C1156 C 0.37733 0.99348 0.7955 0.0
C1157 C 0.39259 0.97845 0.81121 0.0
C1158 C 0.39704 0.96345 0.74927 0.0
C1159 C 0.38623 0.96325 0.67155 0.0
C1160 C 0.37087 0.97799 0.65579 0.0
C1161 C 0.36636 0.99301 0.71756 0.0
H1162 H 0.38971 0.95166 0.6236 0.0
H1163 H 0.34496 0.09548 0.22967 0.0
H1164 H 0.55332 0.29292 0.0132 0.0
H1165 H 0.54969 0.3258 0.93853 0.0
H1166 H 0.48377 0.32387 0.97727 0.0
H1167 H 0.48777 0.29161 0.05866 0.0
H1168 H 0.5368 0.34299 0.81548 0.0
H1169 H 0.46206 0.37052 0.98639 0.0
H1170 H 0.44373 0.36542 0.12393 0.0
H1171 H 0.50083 0.34897 0.24684 0.0
H1172 H 0.51949 0.35418 0.11002 0.0
H1173 H 0.51423 0.44273 0.6382 0.0
H1174 H 0.51373 0.40648 0.68398 0.0
H1175 H 0.51903 0.42567 0.94853 0.0
H1176 H 0.51883 0.46156 0.90369 0.0
H1177 H 0.49381 0.39744 0.95039 0.0
H1178 H 0.56025 0.40214 0.83026 0.0
H1179 H 0.58913 0.40744 0.72957 0.0
H1180 H 0.56285 0.36351 0.55514 0.0
H1181 H 0.53369 0.35801 0.65478 0.0
C1182 C 0.53803 0.29947 0.00524 0.0
C1183 C 0.52089 0.2898 0.04299 0.0
C1184 C 0.53592 0.31835 0.96223 0.0
C1185 C 0.51654 0.32807 0.95407 0.0
C1186 C 0.49908 0.31739 0.98511 0.0
C1187 C 0.50127 0.29864 0.03019 0.0
C1188 C 0.5151 0.34961 0.91701 0.0
C1189 C 0.52724 0.35479 0.84501 0.0
C1190 C 0.50321 0.36555 0.95584 0.0
C1191 C 0.49209 0.36243 0.03796 0.0
C1192 C 0.47068 0.36582 0.04284 0.0
C1193 C 0.46024 0.36292 0.12058 0.0
C1194 C 0.4711 0.35678 0.19395 0.0
C1195 C 0.49244 0.35362 0.18985 0.0
C1196 C 0.50294 0.35652 0.1123 0.0
C1197 C 0.51527 0.43921 0.70611 0.0
C1198 C 0.51641 0.45524 0.76702 0.0
C1199 C 0.51511 0.41838 0.7324 0.0
C1200 C 0.51636 0.41302 0.82021 0.0
C1201 C 0.51776 0.42909 0.88058 0.0
C1202 C 0.51772 0.44979 0.85456 0.0
C1203 C 0.51589 0.39089 0.85027 0.0
C1204 C 0.50321 0.38558 0.92036 0.0
C1205 C 0.52839 0.37519 0.81346 0.0
C1206 C 0.54467 0.37984 0.74951 0.0
C1207 C 0.56043 0.39387 0.76977 0.0
C1208 C 0.57692 0.39679 0.71324 0.0
C1209 C 0.57789 0.38568 0.63649 0.0
C1210 C 0.56212 0.37198 0.615 0.0
C1211 C 0.5456 0.36897 0.67143 0.0
H1212 H 0.59092 0.38764 0.59385 0.0
H1213 H 0.463 0.35453 0.25405 0.0
H1214 H 0.24398 0.49236 0.05659 0.0
H1215 H 0.21032 0.4881 0.98561 0.0
H1216 H 0.20969 0.55293 0.9226 0.0
H1217 H 0.24353 0.55678 0.99066 0.0
H1218 H 0.17542 0.50297 0.03198 0.0
H1219 H 0.17682 0.5639 0.75728 0.0
H1220 H 0.20113 0.57792 0.65026 0.0
H1221 H 0.2375 0.52248 0.66471 0.0
H1222 H 0.21324 0.50798 0.77063 0.0
H1223 H 0.07182 0.52535 0.92526 0.0
H1224 H 0.10815 0.52621 0.96587 0.0
H1225 H 0.12552 0.50825 0.70917 0.0
H1226 H 0.0891 0.50864 0.66676 0.0
H1227 H 0.15248 0.53202 0.75296 0.0
H1228 H 0.12529 0.47452 0.91455 0.0
H1229 H 0.10129 0.45732 0.01451 0.0
H1230 H 0.11806 0.49971 0.21435 0.0
H1231 H 0.14201 0.51728 0.11536 0.0
C1232 C 0.23702 0.50541 0.02398 0.0
C1233 C 0.24654 0.5248 0.02775 0.0
C1234 C 0.21759 0.50311 0.98464 0.0
C1235 C 0.2072 0.52017 0.94805 0.0
C1236 C 0.21729 0.53935 0.94835 0.0
C1237 C 0.23673 0.54158 0.98709 0.0
C1238 C 0.18527 0.51832 0.91645 0.0
C1239 C 0.1705 0.50921 0.97053 0.0
C1240 C 0.17855 0.52631 0.83613 0.0
C1241 C 0.1933 0.53494 0.77267 0.0
C1242 C 0.18997 0.55467 0.73747 0.0
C1243 C 0.20374 0.56271 0.67697 0.0
C1244 C 0.22088 0.55113 0.65095 0.0
C1245 C 0.22426 0.53147 0.6852 0.0
C1246 C 0.21052 0.52335 0.74556 0.0
C1247 C 0.08336 0.52161 0.87728 0.0
C1248 C 0.07741 0.51683 0.79273 0.0
C1249 C 0.10428 0.52196 0.90091 0.0
C1250 C 0.12 0.51685 0.84192 0.0
C1251 C 0.11401 0.51227 0.75687 0.0
C1252 C 0.09306 0.51243 0.73249 0.0
C1253 C 0.14251 0.5166 0.86844 0.0
C1254 C 0.15739 0.52553 0.81389 0.0
C1255 C 0.14947 0.50801 0.94756 0.0
C1256 C 0.13535 0.49724 0.00746 0.0
C1257 C 0.12382 0.48017 0.97978 0.0
C1258 C 0.11022 0.47038 0.03625 0.0
C1259 C 0.10813 0.47743 0.12068 0.0
C1260 C 0.1197 0.49425 0.14896 0.0
C1261 C 0.13331 0.50411 0.09278 0.0
H1262 H 0.09757 0.46985 0.16423 0.0
H1263 H 0.23152 0.55737 0.60411 0.0
H1264 H 1.00109 0.77486 0.51482 0.0
H1265 H 1.00621 0.80886 0.58126 0.0
H1266 H 1.01171 0.83614 0.32929 0.0
H1267 H 1.00807 0.80199 0.26419 0.0
H1268 H 0.03702 0.85477 0.42584 0.0
H1269 H 0.96062 0.84635 0.47395 0.0
H1270 H 0.93052 0.82613 0.52415 0.0
H1271 H 0.96072 0.81538 0.76577 0.0
H1272 H 0.99085 0.83546 0.71656 0.0
H1273 H 1.01094 0.95876 0.5048 0.0
H1274 H 1.01108 0.92265 0.46113 0.0
H1275 H 1.01166 0.90387 0.72702 0.0
H1276 H 1.0112 0.94019 0.77157 0.0
H1277 H 0.98565 0.8802 0.63768 0.0
H1278 H 0.05584 0.90016 0.60231 0.0
H1279 H 0.08441 0.92224 0.55293 0.0
H1280 H 0.06665 0.91211 0.29044 0.0
H1281 H 0.03782 0.89023 0.33868 0.0
C1282 C 1.004 0.78809 0.47417 0.0
C1283 C 1.0043 0.78576 0.38444 0.0
C1284 C 1.00641 0.80767 0.51194 0.0
C1285 C 1.00871 0.8255 0.46074 0.0
C1286 C 1.00988 0.8229 0.37099 0.0
C1287 C 1.00786 0.80333 0.33354 0.0
C1288 C 1.01 0.84681 0.49942 0.0
C1289 C 0.02564 0.86028 0.47162 0.0
C1290 C 0.99572 0.85422 0.56161 0.0
C1291 C 0.97804 0.84179 0.59074 0.0
C1292 C 0.96086 0.83929 0.53706 0.0
C1293 C 0.9438 0.82802 0.5655 0.0
C1294 C 0.94381 0.81931 0.64768 0.0
C1295 C 0.96079 0.82201 0.70191 0.0
C1296 C 0.97781 0.83337 0.67388 0.0
C1297 C 1.01109 0.94702 0.55437 0.0
C1298 C 1.01115 0.95254 0.64198 0.0
C1299 C 1.0113 0.92627 0.52909 0.0
C1300 C 1.01177 0.91035 0.59052 0.0
C1301 C 1.01142 0.91577 0.67814 0.0
C1302 C 1.0112 0.9366 0.70359 0.0
C1303 C 1.01238 0.88816 0.56274 0.0
C1304 C 0.99715 0.87459 0.59256 0.0
C1305 C 0.02715 0.88065 0.50299 0.0
C1306 C 0.04463 0.89361 0.47394 0.0
C1307 C 0.05798 0.90273 0.53407 0.0
C1308 C 0.07423 0.9152 0.50636 0.0
C1309 C 0.07734 0.91859 0.41861 0.0
C1310 C 0.06424 0.90947 0.3584 0.0
C1311 C 0.04797 0.897 0.38586 0.0
H1312 H 0.08992 0.92827 0.39728 0.0
H1313 H 0.93061 0.81058 0.66955 0.0
H1314 H 0.72645 1.00385 0.23306 0.0
H1315 H 0.69235 1.00854 0.29791 0.0
H1316 H 0.7211 0.02516 0.53802 0.0
H1317 H 0.75513 0.01789 0.47463 0.0
H1318 H 0.69252 1.00272 0.57845 0.0
H1319 H 0.69068 0.06047 0.38349 0.0
H1320 H 0.694 0.078 0.24337 0.0
H1321 H 0.64737 0.03871 0.1368 0.0
H1322 H 0.6439 0.02085 0.27595 0.0
H1323 H 0.59324 0.03016 0.75933 0.0
H1324 H 0.62879 0.03035 0.70411 0.0
H1325 H 0.60752 1.00496 0.46388 0.0
H1326 H 0.5722 1.00536 0.51736 0.0
H1327 H 0.63263 0.03445 0.4299 0.0
H1328 H 0.63488 0.97719 0.62714 0.0
H1329 H 0.63181 0.95981 0.76772 0.0
H1330 H 0.67732 1.00046 0.87372 0.0
H1331 H 0.68079 0.01788 0.73352 0.0
C1332 C 0.72535 1.009 0.29901 0.0
C1333 C 0.74335 1.0105 0.34867 0.0
C1334 C 0.70582 1.01186 0.33626 0.0
C1335 C 0.70372 0.01765 0.42314 0.0
C1336 C 0.72196 0.02063 0.47115 0.0
C1337 C 0.74151 0.01689 0.43458 0.0
C1338 C 0.68268 0.01916 0.46489 0.0
C1339 C 0.67961 1.01013 0.54637 0.0
C1340 C 0.66533 0.02826 0.42334 0.0
C1341 C 0.66712 0.03926 0.34006 0.0
C1342 C 0.68118 0.05555 0.3301 0.0
C1343 C 0.68308 0.06554 0.25083 0.0
C1344 C 0.67093 0.05945 0.18119 0.0
C1345 C 0.65677 0.04341 0.19075 0.0
C1346 C 0.6548 0.03339 0.26986 0.0
C1347 C 0.59618 0.02445 0.69506 0.0
C1348 C 0.57973 0.01781 0.64296 0.0
C1349 C 0.61658 0.02452 0.66341 0.0
C1350 C 0.62108 0.01758 0.57948 0.0
C1351 C 0.60465 1.01056 0.52843 0.0
C1352 C 0.58435 1.01073 0.55947 0.0
C1353 C 0.6426 0.01806 0.54295 0.0
C1354 C 0.64569 0.02737 0.46231 0.0
C1355 C 0.65996 1.00945 0.58573 0.0
C1356 C 0.65802 0.99885 0.66988 0.0
C1357 C 0.64425 0.98235 0.68043 0.0
C1358 C 0.64247 0.97248 0.76001 0.0
C1359 C 0.65442 0.97898 0.82963 0.0
C1360 C 0.66818 0.99533 0.81967 0.0
C1361 C 0.6701 1.00517 0.74007 0.0
H1362 H 0.65299 0.97137 0.89129 0.0
H1363 H 0.67246 0.06718 0.11986 0.0
H1364 H 0.48036 0.74764 0.40962 0.0
H1365 H 0.48501 0.71406 0.47744 0.0
H1366 H 0.54998 0.71567 0.41591 0.0
H1367 H 0.54472 0.74878 0.34107 0.0
H1368 H 0.53852 0.67959 0.38675 0.0
H1369 H 0.52803 0.72114 0.63282 0.0
H1370 H 0.51158 0.74681 0.72788 0.0
H1371 H 0.45661 0.71013 0.73849 0.0
H1372 H 0.47261 0.68437 0.64241 0.0
H1373 H 0.55265 0.58524 0.62327 0.0
H1374 H 0.55465 0.62146 0.57855 0.0
H1375 H 0.48866 0.62739 0.60988 0.0
H1376 H 0.48706 0.59167 0.66164 0.0
H1377 H 0.50474 0.66065 0.66119 0.0
H1378 H 0.52129 0.61679 0.41692 0.0
H1379 H 0.5419 0.5927 0.32945 0.0
H1380 H 0.59246 0.63523 0.33052 0.0
H1381 H 0.57214 0.65951 0.41851 0.0
C1382 C 0.49568 0.7409 0.41121 0.0
C1383 C 0.51215 0.7509 0.3699 0.0
C1384 C 0.49842 0.72169 0.45101 0.0
C1385 C 0.51797 0.71211 0.45385 0.0
C1386 C 0.53469 0.72251 0.41523 0.0
C1387 C 0.5318 0.74164 0.37351 0.0
C1388 C 0.52053 0.69092 0.49314 0.0
C1389 C 0.53144 0.67558 0.44765 0.0
C1390 C 0.51127 0.68534 0.57252 0.0
C1391 C 0.50148 0.70089 0.62977 0.0
C1392 C 0.51237 0.71862 0.65483 0.0
C1393 C 0.50313 0.73318 0.709 0.0
C1394 C 0.48305 0.73013 0.73906 0.0
C1395 C 0.47216 0.71249 0.71508 0.0
C1396 C 0.48132 0.69789 0.66082 0.0
C1397 C 0.53863 0.59441 0.62144 0.0
C1398 C 0.5197 0.58564 0.64603 0.0
C1399 C 0.53973 0.61511 0.59497 0.0
C1400 C 0.52174 0.62732 0.588 0.0
C1401 C 0.50284 0.61852 0.61401 0.0
C1402 C 0.50188 0.59804 0.64358 0.0
C1403 C 0.52231 0.64913 0.5539 0.0
C1404 C 0.51195 0.66464 0.60052 0.0
C1405 C 0.53276 0.65494 0.47698 0.0
C1406 C 0.545 0.64007 0.42436 0.0
C1407 C 0.53668 0.62111 0.39807 0.0
C1408 C 0.54838 0.60735 0.34864 0.0
C1409 C 0.56846 0.61245 0.32421 0.0
C1410 C 0.57688 0.63129 0.34936 0.0
C1411 C 0.56525 0.64505 0.39908 0.0
H1412 H 0.5775 0.60178 0.28596 0.0
H1413 H 0.47593 0.74141 0.78108 0.0
H1414 H 0.78791 0.52388 0.31127 0.0
H1415 H 0.82202 0.53114 0.37178 0.0
H1416 H 0.81252 0.48369 0.56257 0.0
H1417 H 0.77737 0.47918 0.51007 0.0
H1418 H 0.83297 0.50679 0.6372 0.0
H1419 H 0.86558 0.47936 0.35017 0.0
H1420 H 0.87219 0.47945 0.19429 0.0
H1421 H 0.86203 0.54485 0.18534 0.0
H1422 H 0.85732 0.5454 0.34293 0.0
H1423 H 0.95335 0.4935 0.55473 0.0
H1424 H 0.91736 0.49182 0.50979 0.0
H1425 H 0.90016 0.53196 0.71967 0.0
H1426 H 0.93622 0.53234 0.76825 0.0
H1427 H 0.89346 0.51623 0.44721 0.0
H1428 H 0.84933 0.53028 0.76481 0.0
H1429 H 0.85277 0.52273 0.91975 0.0
H1430 H 0.89027 0.46971 0.86236 0.0
H1431 H 0.88707 0.47696 0.70712 0.0
C1432 C 0.79318 0.51525 0.36671 0.0
C1433 C 0.78027 0.50042 0.4042 0.0
C1434 C 0.81309 0.51893 0.40016 0.0
C1435 C 0.82099 0.50728 0.46986 0.0
C1436 C 0.80748 0.49299 0.50866 0.0
C1437 C 0.78732 0.49011 0.47789 0.0
C1438 C 0.84274 0.51007 0.50493 0.0
C1439 C 0.84608 0.50869 0.5947 0.0
C1440 C 0.86047 0.51272 0.4521 0.0
C1441 C 0.85996 0.51227 0.35732 0.0
C1442 C 0.86427 0.49368 0.31455 0.0
C1443 C 0.86808 0.49366 0.22617 0.0
C1444 C 0.86694 0.51203 0.17934 0.0
C1445 C 0.86258 0.53058 0.22138 0.0
C1446 C 0.85963 0.5308 0.31041 0.0
C1447 C 0.94187 0.50182 0.59188 0.0
C1448 C 0.94771 0.51307 0.66509 0.0
C1449 C 0.92116 0.50094 0.56588 0.0
C1450 C 0.90559 0.5117 0.61089 0.0
C1451 C 0.91148 0.52302 0.68435 0.0
C1452 C 0.93221 0.52339 0.71195 0.0
C1453 C 0.88363 0.51159 0.57787 0.0
C1454 C 0.88028 0.51396 0.48919 0.0
C1455 C 0.8661 0.50875 0.63125 0.0
C1456 C 0.86814 0.50432 0.72444 0.0
C1457 C 0.8583 0.51701 0.78528 0.0
C1458 C 0.86024 0.51281 0.87311 0.0
C1459 C 0.87177 0.49579 0.90082 0.0
C1460 C 0.88141 0.48294 0.84078 0.0
C1461 C 0.8796 0.48713 0.75289 0.0
H1462 H 0.8732 0.49253 0.96877 0.0
H1463 H 0.86966 0.51192 0.11072 0.0
loop_
_geom_bond_atom_site_label_1
_geom_bond_atom_site_label_2
_geom_bond_distance
_geom_bond_site_symmetry_2
_ccdc_geom_bond_type
C0 N1 1.317 . S
C0 N2 1.348 . S
C0 C3 1.485 . S
N1 C0 1.317 . S
N1 N5 1.370 . S
N2 C0 1.348 . S
N2 C4 1.346 . S
C3 C0 1.485 . S
C3 H7 0.960 . S
C3 H8 0.961 . S
C3 H9 0.960 . S
C4 N2 1.346 . S
C4 N5 1.307 . S
C4 C6 1.486 . S
N5 N1 1.370 . S
N5 C4 1.307 . S
C6 C4 1.486 . S
C6 H10 0.960 . S
C6 H11 0.960 . S
C6 H12 0.959 . S
H7 C3 0.960 . S
H8 C3 0.961 . S
H9 C3 0.960 . S
H10 C6 0.960 . S
H11 C6 0.960 . S
H12 C6 0.959 . S
C13 N14 1.317 . S
C13 N15 1.348 . S
C13 C16 1.485 . S
N14 C13 1.317 . S
N14 N18 1.372 . S
N15 C13 1.348 . S
N15 C17 1.347 . S
C16 C13 1.485 . S
C16 H20 0.960 1_655 S
C16 H21 0.961 . S
C16 H22 0.960 . S
C17 N15 1.347 . S
C17 N18 1.307 . S
C17 C19 1.486 1_655 S
N18 N14 1.372 . S
N18 C17 1.307 . S
C19 C17 1.486 1_455 S
C19 H23 0.946 1_455 S
C19 H24 0.971 . S
C19 H25 0.962 . S
H20 C16 0.960 1_455 S
H21 C16 0.961 . S
H22 C16 0.960 . S
H23 C19 0.946 1_655 S
H24 C19 0.971 . S
H25 C19 0.962 . S
C26 N27 1.317 . S
C26 N28 1.348 . S
C26 C29 1.485 . S
N27 C26 1.317 . S
N27 N31 1.370 . S
N28 C26 1.348 . S
N28 C30 1.349 . S
C29 C26 1.485 . S
C29 H33 0.960 1_565 S
C29 H34 0.961 . S
C29 H35 0.960 . S
C30 N28 1.349 . S
C30 N31 1.309 . S
C30 C32 1.485 . S
N31 N27 1.370 . S
N31 C30 1.309 . S
C32 C30 1.485 . S
C32 H36 0.966 . S
C32 H37 0.955 1_565 S
C32 H38 0.957 1_565 S
H33 C29 0.960 1_545 S
H34 C29 0.961 . S
H35 C29 0.960 . S
H36 C32 0.966 . S
H37 C32 0.955 1_545 S
H38 C32 0.957 1_545 S
C39 N40 1.317 . S
C39 N41 1.348 . S
C39 C42 1.485 . S
N40 C39 1.317 . S
N40 N44 1.370 . S
N41 C39 1.348 . S
N41 C43 1.346 . S
C42 C39 1.485 . S
C42 H46 0.960 . S
C42 H47 0.961 . S
C42 H48 0.960 . S
C43 N41 1.346 . S
C43 N44 1.307 . S
C43 C45 1.486 . S
N44 N40 1.370 . S
N44 C43 1.307 . S
C45 C43 1.486 . S
C45 H49 0.960 . S
C45 H50 0.960 . S
C45 H51 0.959 . S
H46 C42 0.960 . S
H47 C42 0.961 . S
H48 C42 0.960 . S
H49 C45 0.960 . S
H50 C45 0.960 . S
H51 C45 0.959 . S
C52 N53 1.317 . S
C52 N54 1.348 1_556 S
C52 C55 1.485 . S
N53 C52 1.317 . S
N53 N57 1.370 1_556 S
N54 C52 1.348 1_554 S
N54 C56 1.346 . S
C55 C52 1.485 . S
C55 H59 0.960 . S
C55 H60 0.961 . S
C55 H61 0.960 . S
C56 N54 1.346 . S
C56 N57 1.307 . S
C56 C58 1.486 . S
N57 N53 1.370 1_554 S
N57 C56 1.307 . S
C58 C56 1.486 . S
C58 H62 0.960 . S
C58 H63 0.960 . S
C58 H64 0.959 . S
H59 C55 0.960 . S
H60 C55 0.961 . S
H61 C55 0.960 . S
H62 C58 0.960 . S
H63 C58 0.960 . S
H64 C58 0.959 . S
C65 N66 1.317 . S
C65 N67 1.349 1_556 S
C65 C68 1.483 1_455 S
N66 C65 1.317 . S
N66 N70 1.372 1_556 S
N67 C65 1.349 1_554 S
N67 C69 1.346 . S
C68 C65 1.483 1_655 S
C68 H72 0.921 1_655 S
C68 H73 0.986 . S
C68 H74 0.977 . S
C69 N67 1.346 . S
C69 N70 1.307 . S
C69 C71 1.486 . S
N70 N66 1.372 1_554 S
N70 C69 1.307 . S
C71 C69 1.486 . S
C71 H75 0.960 1_455 S
C71 H76 0.960 . S
C71 H77 0.959 . S
H72 C68 0.921 1_455 S
H73 C68 0.986 . S
H74 C68 0.977 . S
H75 C71 0.960 1_655 S
H76 C71 0.960 . S
H77 C71 0.959 . S
C78 N79 1.317 1_565 S
C78 N80 1.347 1_566 S
C78 C81 1.485 . S
N79 C78 1.317 1_545 S
N79 N83 1.370 1_556 S
N80 C78 1.347 1_544 S
N80 C82 1.348 . S
C81 C78 1.485 . S
C81 H85 0.960 1_565 S
C81 H86 0.961 . S
C81 H87 0.960 . S
C82 N80 1.348 . S
C82 N83 1.307 . S
C82 C84 1.486 . S
N83 N79 1.370 1_554 S
N83 C82 1.307 . S
C84 C82 1.486 . S
C84 H88 0.960 1_545 S
C84 H89 0.960 . S
C84 H90 0.959 . S
H85 C81 0.960 1_545 S
H86 C81 0.961 . S
H87 C81 0.960 . S
H88 C84 0.960 1_565 S
H89 C84 0.960 . S
H90 C84 0.959 . S
C91 N92 1.317 . S
C91 N93 1.348 1_556 S
C91 C94 1.485 . S
N92 C91 1.317 . S
N92 N96 1.370 1_556 S
N93 C91 1.348 1_554 S
N93 C95 1.346 . S
C94 C91 1.485 . S
C94 H98 0.960 . S
C94 H99 0.961 . S
C94 H100 0.960 . S
C95 N93 1.346 . S
C95 N96 1.307 . S
C95 C97 1.486 . S
N96 N92 1.370 1_554 S
N96 C95 1.307 . S
C97 C95 1.486 . S
C97 H101 0.960 . S
C97 H102 0.960 . S
C97 H103 0.959 . S
H98 C94 0.960 . S
H99 C94 0.961 . S
H100 C94 0.960 . S
H101 C97 0.960 . S
H102 C97 0.960 . S
H103 C97 0.959 . S
Ho104 C107 2.811 . S
Ho104 O124 2.322 . S
Ho104 O126 2.378 . S
Ho104 O127 2.516 1_455 S
Ho104 O128 2.381 . S
Ho104 O129 2.669 1_565 S
Ho104 O131 2.346 1_565 S
Ho104 O135 2.305 1_455 S
Ho105 C116 2.811 . S
Ho105 O125 2.346 1_545 S
Ho105 O129 2.305 1_655 S
Ho105 O130 2.322 . S
Ho105 O132 2.378 . S
Ho105 O133 2.524 1_655 S
Ho105 O134 2.381 . S
Ho105 O135 2.669 1_545 S
C106 O124 1.259 1_655 S
C106 O125 1.268 . S
C107 Ho104 2.811 . S
C107 C108 1.488 . S
C107 O126 1.215 . S
C107 O127 1.272 1_455 S
C108 C107 1.488 . S
C108 C109 1.348 . S
C108 C113 1.413 . S
C109 C108 1.348 . S
C109 C110 1.442 . S
C109 H136 0.930 1_455 S
C110 C109 1.442 . S
C110 C111 1.381 1_556 S
C110 H137 0.931 1_456 S
C111 C110 1.381 1_554 S
C111 C112 1.321 1_554 S
C112 C111 1.321 1_556 S
C112 C113 1.403 . S
C112 H138 0.934 1_556 S
C113 C108 1.413 . S
C113 C112 1.403 . S
C113 H139 0.930 . S
C114 O128 1.294 . S
C114 O129 1.245 1_565 S
C115 O130 1.259 1_455 S
C115 O131 1.268 . S
C116 Ho105 2.811 . S
C116 C117 1.488 . S
C116 O132 1.215 . S
C116 O133 1.289 1_655 S
C117 C116 1.488 . S
C117 C118 1.348 . S
C117 C122 1.413 . S
C118 C117 1.348 . S
C118 C119 1.442 . S
C118 H140 0.930 1_655 S
C119 C118 1.442 . S
C119 C120 1.381 . S
C119 H141 0.931 1_655 S
C120 C119 1.381 . S
C120 C121 1.321 . S
C121 C120 1.321 . S
C121 C122 1.403 . S
C121 H142 0.934 . S
C122 C117 1.413 . S
C122 C121 1.403 . S
C122 H143 0.930 . S
C123 O134 1.301 . S
C123 O135 1.242 1_545 S
O124 Ho104 2.322 . S
O124 C106 1.259 1_455 S
O125 Ho105 2.346 1_565 S
O125 C106 1.268 . S
O126 Ho104 2.378 . S
O126 C107 1.215 . S
O127 Ho104 2.516 1_655 S
O127 C107 1.272 1_655 S
O128 Ho104 2.381 . S
O128 C114 1.294 . S
O129 Ho104 2.669 1_545 S
O129 Ho105 2.305 1_455 S
O129 C114 1.245 1_545 S
O130 Ho105 2.322 . S
O130 C115 1.259 1_655 S
O131 Ho104 2.346 1_545 S
O131 C115 1.268 . S
O132 Ho105 2.378 . S
O132 C116 1.215 . S
O133 Ho105 2.524 1_455 S
O133 C116 1.289 1_455 S
O134 Ho105 2.381 . S
O134 C123 1.301 . S
O135 Ho104 2.305 1_655 S
O135 Ho105 2.669 1_565 S
O135 C123 1.242 1_565 S
H136 C109 0.930 1_655 S
H137 C110 0.931 1_654 S
H138 C112 0.934 1_554 S
H139 C113 0.930 . S
H140 C118 0.930 1_455 S
H141 C119 0.931 1_455 S
H142 C121 0.934 . S
H143 C122 0.930 . S
Ho144 C147 2.811 . S
Ho144 O164 2.322 . S
Ho144 O166 2.378 . S
Ho144 O167 2.502 1_545 S
Ho144 O168 2.381 . S
Ho144 O169 2.669 . S
Ho144 O171 2.346 . S
Ho144 O175 2.305 1_545 S
Ho145 C156 2.811 . S
Ho145 O165 2.346 . S
Ho145 O169 2.305 1_565 S
Ho145 O170 2.322 . S
Ho145 O172 2.378 . S
Ho145 O173 2.524 1_565 S
Ho145 O174 2.381 . S
Ho145 O175 2.669 . S
C146 O164 1.259 1_565 S
C146 O165 1.268 . S
C147 Ho144 2.811 . S
C147 C148 1.488 . S
C147 O166 1.215 . S
C147 O167 1.241 1_545 S
C148 C147 1.488 . S
C148 C149 1.348 . S
C148 C153 1.413 . S
C149 C148 1.348 . S
C149 C150 1.442 . S
C149 H176 0.930 1_545 S
C150 C149 1.442 . S
C150 C151 1.381 1_556 S
C150 H177 0.931 1_546 S
C151 C150 1.381 1_554 S
C151 C152 1.321 1_554 S
C152 C151 1.321 1_556 S
C152 C153 1.403 . S
C152 H178 0.934 1_556 S
C153 C148 1.413 . S
C153 C152 1.403 . S
C153 H179 0.930 . S
C154 O168 1.275 . S
C154 O169 1.256 . S
C155 O170 1.259 1_545 S
C155 O171 1.268 . S
C156 Ho145 2.811 . S
C156 C157 1.488 . S
C156 O172 1.215 . S
C156 O173 1.289 1_565 S
C157 C156 1.488 . S
C157 C158 1.348 . S
C157 C162 1.413 . S
C158 C157 1.348 . S
C158 C159 1.442 . S
C158 H180 0.930 1_565 S
C159 C158 1.442 . S
C159 C160 1.381 . S
C159 H181 0.931 1_565 S
C160 C159 1.381 . S
C160 C161 1.321 . S
C161 C160 1.321 . S
C161 C162 1.403 . S
C161 H182 0.934 . S
C162 C157 1.413 . S
C162 C161 1.403 . S
C162 H183 0.930 . S
C163 O174 1.275 . S
C163 O175 1.256 . S
O164 Ho144 2.322 . S
O164 C146 1.259 1_545 S
O165 Ho145 2.346 . S
O165 C146 1.268 . S
O166 Ho144 2.378 . S
O166 C147 1.215 . S
O167 Ho144 2.502 1_565 S
O167 C147 1.241 1_565 S
O168 Ho144 2.381 . S
O168 C154 1.275 . S
O169 Ho144 2.669 . S
O169 Ho145 2.305 1_545 S
O169 C154 1.256 . S
O170 Ho145 2.322 . S
O170 C155 1.259 1_565 S
O171 Ho144 2.346 . S
O171 C155 1.268 . S
O172 Ho145 2.378 . S
O172 C156 1.215 . S
O173 Ho145 2.524 1_545 S
O173 C156 1.289 1_545 S
O174 Ho145 2.381 . S
O174 C163 1.275 . S
O175 Ho144 2.305 1_565 S
O175 Ho145 2.669 . S
O175 C163 1.256 . S
H176 C149 0.930 1_565 S
H177 C150 0.931 1_564 S
H178 C152 0.934 1_554 S
H179 C153 0.930 . S
H180 C158 0.930 1_545 S
H181 C159 0.931 1_545 S
H182 C161 0.934 . S
H183 C162 0.930 . S
Ho184 C187 2.811 . S
Ho184 O204 2.322 . S
Ho184 O206 2.378 . S
Ho184 O207 2.524 . S
Ho184 O208 2.381 . S
Ho184 O209 2.669 . S
Ho184 O211 2.346 . S
Ho184 O215 2.305 . S
Ho185 C196 2.811 . S
Ho185 O205 2.346 . S
Ho185 O209 2.305 . S
Ho185 O210 2.322 . S
Ho185 O212 2.378 . S
Ho185 O213 2.524 . S
Ho185 O214 2.381 . S
Ho185 O215 2.669 . S
C186 O204 1.259 . S
C186 O205 1.268 . S
C187 Ho184 2.811 . S
C187 C188 1.488 . S
C187 O206 1.215 . S
C187 O207 1.289 . S
C188 C187 1.488 . S
C188 C189 1.348 . S
C188 C193 1.413 . S
C189 C188 1.348 . S
C189 C190 1.442 . S
C189 H216 0.930 . S
C190 C189 1.442 . S
C190 C191 1.381 1_556 S
C190 H217 0.931 1_556 S
C191 C190 1.381 1_554 S
C191 C192 1.321 1_554 S
C192 C191 1.321 1_556 S
C192 C193 1.403 . S
C192 H218 0.934 1_556 S
C193 C188 1.413 . S
C193 C192 1.403 . S
C193 H219 0.930 . S
C194 O208 1.275 . S
C194 O209 1.256 . S
C195 O210 1.259 . S
C195 O211 1.268 . S
C196 Ho185 2.811 . S
C196 C197 1.488 . S
C196 O212 1.215 . S
C196 O213 1.289 . S
C197 C196 1.488 . S
C197 C198 1.348 . S
C197 C202 1.413 . S
C198 C197 1.348 . S
C198 C199 1.442 . S
C198 H220 0.930 . S
C199 C198 1.442 . S
C199 C200 1.381 . S
C199 H221 0.931 . S
C200 C199 1.381 . S
C200 C201 1.321 . S
C201 C200 1.321 . S
C201 C202 1.403 . S
C201 H222 0.934 . S
C202 C197 1.413 . S
C202 C201 1.403 . S
C202 H223 0.930 . S
C203 O214 1.275 . S
C203 O215 1.256 . S
O204 Ho184 2.322 . S
O204 C186 1.259 . S
O205 Ho185 2.346 . S
O205 C186 1.268 . S
O206 Ho184 2.378 . S
O206 C187 1.215 . S
O207 Ho184 2.524 . S
O207 C187 1.289 . S
O208 Ho184 2.381 . S
O208 C194 1.275 . S
O209 Ho184 2.669 . S
O209 Ho185 2.305 . S
O209 C194 1.256 . S
O210 Ho185 2.322 . S
O210 C195 1.259 . S
O211 Ho184 2.346 . S
O211 C195 1.268 . S
O212 Ho185 2.378 . S
O212 C196 1.215 . S
O213 Ho185 2.524 . S
O213 C196 1.289 . S
O214 Ho185 2.381 . S
O214 C203 1.275 . S
O215 Ho184 2.305 . S
O215 Ho185 2.669 . S
O215 C203 1.256 . S
H216 C189 0.930 . S
H217 C190 0.931 1_554 S
H218 C192 0.934 1_554 S
H219 C193 0.930 . S
H220 C198 0.930 . S
H221 C199 0.931 . S
H222 C201 0.934 . S
H223 C202 0.930 . S
Ho224 C227 2.811 . S
Ho224 O244 2.322 . S
Ho224 O246 2.378 . S
Ho224 O247 2.524 . S
Ho224 O248 2.381 . S
Ho224 O249 2.669 1_655 S
Ho224 O251 2.346 1_655 S
Ho224 O255 2.305 . S
Ho225 C236 2.811 . S
Ho225 O245 2.346 1_455 S
Ho225 O249 2.305 . S
Ho225 O250 2.322 . S
Ho225 O252 2.378 . S
Ho225 O253 2.524 . S
Ho225 O254 2.381 . S
Ho225 O255 2.669 1_455 S
C226 O244 1.259 . S
C226 O245 1.268 . S
C227 Ho224 2.811 . S
C227 C228 1.488 . S
C227 O246 1.215 . S
C227 O247 1.289 . S
C228 C227 1.488 . S
C228 C229 1.348 . S
C228 C233 1.413 . S
C229 C228 1.348 . S
C229 C230 1.442 . S
C229 H256 0.930 . S
C230 C229 1.442 . S
C230 C231 1.381 1_556 S
C230 H257 0.931 1_556 S
C231 C230 1.381 1_554 S
C231 C232 1.321 1_554 S
C232 C231 1.321 1_556 S
C232 C233 1.403 . S
C232 H258 0.934 1_556 S
C233 C228 1.413 . S
C233 C232 1.403 . S
C233 H259 0.930 . S
C234 O248 1.277 . S
C234 O249 1.255 1_655 S
C235 O250 1.259 . S
C235 O251 1.268 . S
C236 Ho225 2.811 . S
C236 C237 1.488 . S
C236 O252 1.215 . S
C236 O253 1.289 . S
C237 C236 1.488 . S
C237 C238 1.348 . S
C237 C242 1.413 . S
C238 C237 1.348 . S
C238 C239 1.442 . S
C238 H260 0.930 . S
C239 C238 1.442 . S
C239 C240 1.381 . S
C239 H261 0.931 . S
C240 C239 1.381 . S
C240 C241 1.321 . S
C241 C240 1.321 . S
C241 C242 1.403 . S
C241 H262 0.934 . S
C242 C237 1.413 . S
C242 C241 1.403 . S
C242 H263 0.930 . S
C243 O254 1.275 . S
C243 O255 1.256 1_455 S
O244 Ho224 2.322 . S
O244 C226 1.259 . S
O245 Ho225 2.346 1_655 S
O245 C226 1.268 . S
O246 Ho224 2.378 . S
O246 C227 1.215 . S
O247 Ho224 2.524 . S
O247 C227 1.289 . S
O248 Ho224 2.381 . S
O248 C234 1.277 . S
O249 Ho224 2.669 1_455 S
O249 Ho225 2.305 . S
O249 C234 1.255 1_455 S
O250 Ho225 2.322 . S
O250 C235 1.259 . S
O251 Ho224 2.346 1_455 S
O251 C235 1.268 . S
O252 Ho225 2.378 . S
O252 C236 1.215 . S
O253 Ho225 2.524 . S
O253 C236 1.289 . S
O254 Ho225 2.381 . S
O254 C243 1.275 . S
O255 Ho224 2.305 . S
O255 Ho225 2.669 1_655 S
O255 C243 1.256 1_655 S
H256 C229 0.930 . S
H257 C230 0.931 1_554 S
H258 C232 0.934 1_554 S
H259 C233 0.930 . S
H260 C238 0.930 . S
H261 C239 0.931 . S
H262 C241 0.934 . S
H263 C242 0.930 . S
H264 C282 0.951 . S
H265 C284 0.951 . S
H266 C286 0.950 . S
H267 C287 0.950 . S
H268 C289 0.950 . S
H269 C292 0.950 . S
H270 C293 0.950 . S
H271 C295 0.950 . S
H272 C296 0.950 . S
H273 C297 0.951 . S
H274 C299 0.951 . S
H275 C301 0.950 . S
H276 C302 0.950 . S
H277 C304 0.950 . S
H278 C307 0.950 . S
H279 C308 0.950 . S
H280 C310 0.950 . S
H281 C311 0.950 . S
C282 H264 0.951 . S
C282 C283 1.366 1_565 S
C282 C284 1.388 . S
C283 C282 1.366 1_545 S
C283 C287 1.385 . S
C284 H265 0.951 . S
C284 C282 1.388 . S
C284 C285 1.354 1_565 S
C285 C284 1.354 1_545 S
C285 C286 1.427 . S
C285 C288 1.498 . S
C286 H266 0.950 . S
C286 C285 1.427 . S
C286 C287 1.374 . S
C287 H267 0.950 . S
C287 C283 1.385 . S
C287 C286 1.374 . S
C288 C285 1.498 . S
C288 C289 1.414 . S
C288 C290 1.351 1_545 S
C289 H268 0.950 . S
C289 C288 1.414 . S
C289 C305 1.377 . S
C290 C288 1.351 1_565 S
C290 C291 1.524 . S
C290 C304 1.377 . S
C291 C290 1.524 . S
C291 C292 1.397 . S
C291 C296 1.363 . S
C292 H269 0.950 . S
C292 C291 1.397 . S
C292 C293 1.334 . S
C293 H270 0.950 . S
C293 C292 1.334 . S
C293 C294 1.287 . S
C294 C293 1.287 . S
C294 C295 1.524 . S
C294 H313 0.913 . S
C295 H271 0.950 . S
C295 C294 1.524 . S
C295 C296 1.415 . S
C296 H272 0.950 . S
C296 C291 1.363 . S
C296 C295 1.415 . S
C297 H273 0.951 . S
C297 C298 1.366 . S
C297 C299 1.388 . S
C298 C297 1.366 . S
C298 C302 1.385 1_545 S
C299 H274 0.951 . S
C299 C297 1.388 . S
C299 C300 1.366 . S
C300 C299 1.366 . S
C300 C301 1.414 1_545 S
C300 C303 1.499 . S
C301 H275 0.950 . S
C301 C300 1.414 1_565 S
C301 C302 1.374 . S
C302 H276 0.950 . S
C302 C298 1.385 1_565 S
C302 C301 1.374 . S
C303 C300 1.499 . S
C303 C304 1.373 1_545 S
C303 C305 1.389 . S
C304 H277 0.950 . S
C304 C290 1.377 . S
C304 C303 1.373 1_565 S
C305 C289 1.377 . S
C305 C303 1.389 . S
C305 C306 1.524 . S
C306 C305 1.524 . S
C306 C307 1.397 . S
C306 C311 1.363 . S
C307 H278 0.950 . S
C307 C306 1.397 . S
C307 C308 1.334 . S
C308 H279 0.950 . S
C308 C307 1.334 . S
C308 C309 1.287 . S
C309 C308 1.287 . S
C309 C310 1.524 . S
C309 H312 0.999 . S
C310 H280 0.950 . S
C310 C309 1.524 . S
C310 C311 1.415 . S
C311 H281 0.950 . S
C311 C306 1.363 . S
C311 C310 1.415 . S
H312 C309 0.999 . S
H313 C294 0.913 . S
H314 C332 0.951 . S
H315 C334 0.951 . S
H316 C336 0.950 . S
H317 C337 0.950 . S
H318 C339 0.950 . S
H319 C342 0.950 . S
H320 C343 0.950 . S
H321 C345 0.950 . S
H322 C346 0.950 . S
H323 C347 0.951 . S
H324 C349 0.951 . S
H325 C351 0.950 . S
H326 C352 0.950 . S
H327 C354 0.950 . S
H328 C357 0.950 . S
H329 C358 0.950 . S
H330 C360 0.950 . S
H331 C361 0.950 . S
C332 H314 0.951 . S
C332 C333 1.366 . S
C332 C334 1.388 . S
C333 C332 1.366 . S
C333 C337 1.385 . S
C334 H315 0.951 . S
C334 C332 1.388 . S
C334 C335 1.366 . S
C335 C334 1.366 . S
C335 C336 1.414 . S
C335 C338 1.499 . S
C336 H316 0.950 . S
C336 C335 1.414 . S
C336 C337 1.374 . S
C337 H317 0.950 . S
C337 C333 1.385 . S
C337 C336 1.374 . S
C338 C335 1.499 . S
C338 C339 1.373 . S
C338 C340 1.389 . S
C339 H318 0.950 . S
C339 C338 1.373 . S
C339 C355 1.377 . S
C340 C338 1.389 . S
C340 C341 1.524 . S
C340 C354 1.377 . S
C341 C340 1.524 . S
C341 C342 1.397 . S
C341 C346 1.363 . S
C342 H319 0.950 . S
C342 C341 1.397 . S
C342 C343 1.334 . S
C343 H320 0.950 . S
C343 C342 1.334 . S
C343 C344 1.287 . S
C344 C343 1.287 . S
C344 C345 1.524 . S
C344 H363 0.913 . S
C345 H321 0.950 . S
C345 C344 1.524 . S
C345 C346 1.415 . S
C346 H322 0.950 . S
C346 C341 1.363 . S
C346 C345 1.415 . S
C347 H323 0.951 . S
C347 C348 1.366 . S
C347 C349 1.388 . S
C348 C347 1.366 . S
C348 C352 1.385 . S
C349 H324 0.951 . S
C349 C347 1.388 . S
C349 C350 1.366 . S
C350 C349 1.366 . S
C350 C351 1.414 . S
C350 C353 1.499 . S
C351 H325 0.950 . S
C351 C350 1.414 . S
C351 C352 1.374 . S
C352 H326 0.950 . S
C352 C348 1.385 . S
C352 C351 1.374 . S
C353 C350 1.499 . S
C353 C354 1.373 . S
C353 C355 1.389 . S
C354 H327 0.950 . S
C354 C340 1.377 . S
C354 C353 1.373 . S
C355 C339 1.377 . S
C355 C353 1.389 . S
C355 C356 1.524 . S
C356 C355 1.524 . S
C356 C357 1.397 . S
C356 C361 1.363 . S
C357 H328 0.950 . S
C357 C356 1.397 . S
C357 C358 1.334 . S
C358 H329 0.950 . S
C358 C357 1.334 . S
C358 C359 1.287 . S
C359 C358 1.287 . S
C359 C360 1.524 . S
C359 H362 0.999 . S
C360 H330 0.950 . S
C360 C359 1.524 . S
C360 C361 1.415 . S
C361 H331 0.950 . S
C361 C356 1.363 . S
C361 C360 1.415 . S
H362 C359 0.999 . S
H363 C344 0.913 . S
H364 C382 0.951 . S
H365 C384 0.951 . S
H366 C386 0.950 . S
H367 C387 0.950 . S
H368 C389 0.950 . S
H369 C392 0.950 . S
H370 C393 0.950 . S
H371 C395 0.950 . S
H372 C396 0.950 . S
H373 C397 0.951 . S
H374 C399 0.951 . S
H375 C401 0.950 . S
H376 C402 0.950 . S
H377 C404 0.950 . S
H378 C407 0.950 . S
H379 C408 0.950 . S
H380 C410 0.950 . S
H381 C411 0.950 . S
C382 H364 0.951 . S
C382 C383 1.366 . S
C382 C384 1.388 . S
C383 C382 1.366 . S
C383 C387 1.385 . S
C384 H365 0.951 . S
C384 C382 1.388 . S
C384 C385 1.366 . S
C385 C384 1.366 . S
C385 C386 1.414 . S
C385 C388 1.499 . S
C386 H366 0.950 . S
C386 C385 1.414 . S
C386 C387 1.374 . S
C387 H367 0.950 . S
C387 C383 1.385 . S
C387 C386 1.374 . S
C388 C385 1.499 . S
C388 C389 1.373 . S
C388 C390 1.389 . S
C389 H368 0.950 . S
C389 C388 1.373 . S
C389 C405 1.377 . S
C390 C388 1.389 . S
C390 C391 1.524 . S
C390 C404 1.377 . S
C391 C390 1.524 . S
C391 C392 1.397 . S
C391 C396 1.363 . S
C392 H369 0.950 . S
C392 C391 1.397 . S
C392 C393 1.334 . S
C393 H370 0.950 . S
C393 C392 1.334 . S
C393 C394 1.287 . S
C394 C393 1.287 . S
C394 C395 1.524 . S
C394 H413 0.913 . S
C395 H371 0.950 . S
C395 C394 1.524 . S
C395 C396 1.415 . S
C396 H372 0.950 . S
C396 C391 1.363 . S
C396 C395 1.415 . S
C397 H373 0.951 . S
C397 C398 1.366 . S
C397 C399 1.388 . S
C398 C397 1.366 . S
C398 C402 1.385 . S
C399 H374 0.951 . S
C399 C397 1.388 . S
C399 C400 1.366 . S
C400 C399 1.366 . S
C400 C401 1.414 . S
C400 C403 1.499 . S
C401 H375 0.950 . S
C401 C400 1.414 . S
C401 C402 1.374 . S
C402 H376 0.950 . S
C402 C398 1.385 . S
C402 C401 1.374 . S
C403 C400 1.499 . S
C403 C404 1.373 . S
C403 C405 1.389 . S
C404 H377 0.950 . S
C404 C390 1.377 . S
C404 C403 1.373 . S
C405 C389 1.377 . S
C405 C403 1.389 . S
C405 C406 1.524 . S
C406 C405 1.524 . S
C406 C407 1.397 . S
C406 C411 1.363 . S
C407 H378 0.950 . S
C407 C406 1.397 . S
C407 C408 1.334 . S
C408 H379 0.950 . S
C408 C407 1.334 . S
C408 C409 1.287 . S
C409 C408 1.287 . S
C409 C410 1.524 . S
C409 H412 0.999 . S
C410 H380 0.950 . S
C410 C409 1.524 . S
C410 C411 1.415 . S
C411 H381 0.950 . S
C411 C406 1.363 . S
C411 C410 1.415 . S
H412 C409 0.999 . S
H413 C394 0.913 . S
H414 C432 0.947 1_655 S
H415 C434 0.949 1_655 S
H416 C436 0.950 . S
H417 C437 0.950 . S
H418 C439 0.950 . S
H419 C442 0.950 . S
H420 C443 0.950 . S
H421 C445 0.950 . S
H422 C446 0.950 . S
H423 C447 0.951 . S
H424 C449 0.951 . S
H425 C451 0.949 . S
H426 C452 0.948 1_655 S
H427 C454 0.950 . S
H428 C457 0.950 . S
H429 C458 0.950 . S
H430 C460 0.950 . S
H431 C461 0.950 . S
C432 H414 0.947 1_455 S
C432 C433 1.367 . S
C432 C434 1.387 . S
C433 C432 1.367 . S
C433 C437 1.385 . S
C434 H415 0.949 1_455 S
C434 C432 1.387 . S
C434 C435 1.372 . S
C435 C434 1.372 . S
C435 C436 1.414 . S
C435 C438 1.499 . S
C436 H416 0.950 . S
C436 C435 1.414 . S
C436 C437 1.374 . S
C437 H417 0.950 . S
C437 C433 1.385 . S
C437 C436 1.374 . S
C438 C435 1.499 . S
C438 C439 1.373 1_455 S
C438 C440 1.389 . S
C439 H418 0.950 . S
C439 C438 1.373 1_655 S
C439 C455 1.377 . S
C440 C438 1.389 . S
C440 C441 1.524 . S
C440 C454 1.377 . S
C441 C440 1.524 . S
C441 C442 1.397 . S
C441 C446 1.363 . S
C442 H419 0.950 . S
C442 C441 1.397 . S
C442 C443 1.334 . S
C443 H420 0.950 . S
C443 C442 1.334 . S
C443 C444 1.287 . S
C444 C443 1.287 . S
C444 C445 1.524 . S
C444 H463 0.913 . S
C445 H421 0.950 . S
C445 C444 1.524 . S
C445 C446 1.415 . S
C446 H422 0.950 . S
C446 C441 1.363 . S
C446 C445 1.415 . S
C447 H423 0.951 . S
C447 C448 1.366 . S
C447 C449 1.388 . S
C448 C447 1.366 . S
C448 C452 1.386 . S
C449 H424 0.951 . S
C449 C447 1.388 . S
C449 C450 1.371 . S
C450 C449 1.371 . S
C450 C451 1.413 1_455 S
C450 C453 1.499 . S
C451 H425 0.949 . S
C451 C450 1.413 1_655 S
C451 C452 1.374 1_655 S
C452 H426 0.948 1_455 S
C452 C448 1.386 . S
C452 C451 1.374 1_455 S
C453 C450 1.499 . S
C453 C454 1.399 . S
C453 C455 1.367 1_455 S
C454 H427 0.950 . S
C454 C440 1.377 . S
C454 C453 1.399 . S
C455 C439 1.377 . S
C455 C453 1.367 1_655 S
C455 C456 1.524 . S
C456 C455 1.524 . S
C456 C457 1.397 . S
C456 C461 1.363 . S
C457 H428 0.950 . S
C457 C456 1.397 . S
C457 C458 1.334 . S
C458 H429 0.950 . S
C458 C457 1.334 . S
C458 C459 1.287 . S
C459 C458 1.287 . S
C459 C460 1.524 . S
C459 H462 0.999 . S
C460 H430 0.950 . S
C460 C459 1.524 . S
C460 C461 1.415 . S
C461 H431 0.950 . S
C461 C456 1.363 . S
C461 C460 1.415 . S
H462 C459 0.999 . S
H463 C444 0.913 . S
H464 C482 0.951 . S
H465 C484 0.951 . S
H466 C486 0.950 . S
H467 C487 0.950 . S
H468 C489 0.950 . S
H469 C492 0.970 . S
H470 C493 0.949 1_564 S
H471 C495 0.950 . S
H472 C496 0.950 . S
H473 C497 0.951 . S
H474 C499 0.951 . S
H475 C501 0.950 . S
H476 C502 0.950 . S
H477 C504 0.950 1_556 S
H478 C507 0.950 1_545 S
H479 C508 0.950 1_545 S
H480 C510 0.950 . S
H481 C511 0.950 . S
C482 H464 0.951 . S
C482 C483 1.366 1_545 S
C482 C484 1.388 . S
C483 C482 1.366 1_565 S
C483 C487 1.385 . S
C484 H465 0.951 . S
C484 C482 1.388 . S
C484 C485 1.366 1_545 S
C485 C484 1.366 1_565 S
C485 C486 1.414 . S
C485 C488 1.499 . S
C486 H466 0.950 . S
C486 C485 1.414 . S
C486 C487 1.374 . S
C487 H467 0.950 . S
C487 C483 1.385 . S
C487 C486 1.374 . S
C488 C485 1.499 . S
C488 C489 1.373 . S
C488 C490 1.389 1_565 S
C489 H468 0.950 . S
C489 C488 1.373 . S
C489 C505 1.377 . S
C490 C488 1.389 1_545 S
C490 C491 1.524 . S
C490 C504 1.377 . S
C491 C490 1.524 . S
C491 C492 1.382 1_545 S
C491 C496 1.363 1_554 S
C492 H469 0.970 . S
C492 C491 1.382 1_565 S
C492 C493 1.325 1_564 S
C493 H470 0.949 1_546 S
C493 C492 1.325 1_546 S
C493 C494 1.292 . S
C494 C493 1.292 . S
C494 C495 1.524 . S
C494 H513 0.913 . S
C495 H471 0.950 . S
C495 C494 1.524 . S
C495 C496 1.415 . S
C496 H472 0.950 . S
C496 C491 1.363 1_556 S
C496 C495 1.415 . S
C497 H473 0.951 . S
C497 C498 1.366 . S
C497 C499 1.388 . S
C498 C497 1.366 . S
C498 C502 1.385 1_565 S
C499 H474 0.951 . S
C499 C497 1.388 . S
C499 C500 1.411 . S
C500 C499 1.411 . S
C500 C501 1.370 1_565 S
C500 C503 1.498 1_556 S
C501 H475 0.950 . S
C501 C500 1.370 1_545 S
C501 C502 1.374 . S
C502 H476 0.950 . S
C502 C498 1.385 1_545 S
C502 C501 1.374 . S
C503 C500 1.498 1_554 S
C503 C504 1.369 1_565 S
C503 C505 1.394 . S
C504 H477 0.950 1_554 S
C504 C490 1.377 . S
C504 C503 1.369 1_545 S
C505 C489 1.377 . S
C505 C503 1.394 . S
C505 C506 1.524 . S
C506 C505 1.524 . S
C506 C507 1.397 . S
C506 C511 1.363 . S
C507 H478 0.950 1_565 S
C507 C506 1.397 . S
C507 C508 1.334 . S
C508 H479 0.950 1_565 S
C508 C507 1.334 . S
C508 C509 1.287 . S
C509 C508 1.287 . S
C509 C510 1.524 . S
C509 H512 0.999 . S
C510 H480 0.950 . S
C510 C509 1.524 . S
C510 C511 1.415 . S
C511 H481 0.950 . S
C511 C506 1.363 . S
C511 C510 1.415 . S
H512 C509 0.999 . S
H513 C494 0.913 . S
H514 C532 0.951 . S
H515 C534 0.951 . S
H516 C536 0.950 . S
H517 C537 0.950 . S
H518 C539 0.950 . S
H519 C542 0.950 . S
H520 C543 0.950 . S
H521 C545 0.950 . S
H522 C546 0.950 . S
H523 C547 0.951 . S
H524 C549 0.951 . S
H525 C551 0.950 . S
H526 C552 0.950 . S
H527 C554 0.950 . S
H528 C557 0.950 . S
H529 C558 0.950 . S
H530 C560 0.950 . S
H531 C561 0.950 . S
C532 H514 0.951 . S
C532 C533 1.366 . S
C532 C534 1.388 . S
C533 C532 1.366 . S
C533 C537 1.385 . S
C534 H515 0.951 . S
C534 C532 1.388 . S
C534 C535 1.366 . S
C535 C534 1.366 . S
C535 C536 1.414 . S
C535 C538 1.499 . S
C536 H516 0.950 . S
C536 C535 1.414 . S
C536 C537 1.374 . S
C537 H517 0.950 . S
C537 C533 1.385 . S
C537 C536 1.374 . S
C538 C535 1.499 . S
C538 C539 1.373 . S
C538 C540 1.389 . S
C539 H518 0.950 . S
C539 C538 1.373 . S
C539 C555 1.377 . S
C540 C538 1.389 . S
C540 C541 1.524 . S
C540 C554 1.377 . S
C541 C540 1.524 . S
C541 C542 1.397 . S
C541 C546 1.363 . S
C542 H519 0.950 . S
C542 C541 1.397 . S
C542 C543 1.334 . S
C543 H520 0.950 . S
C543 C542 1.334 . S
C543 C544 1.287 . S
C544 C543 1.287 . S
C544 C545 1.524 . S
C544 H563 0.913 . S
C545 H521 0.950 . S
C545 C544 1.524 . S
C545 C546 1.415 . S
C546 H522 0.950 . S
C546 C541 1.363 . S
C546 C545 1.415 . S
C547 H523 0.951 . S
C547 C548 1.366 . S
C547 C549 1.388 . S
C548 C547 1.366 . S
C548 C552 1.385 . S
C549 H524 0.951 . S
C549 C547 1.388 . S
C549 C550 1.366 . S
C550 C549 1.366 . S
C550 C551 1.414 . S
C550 C553 1.499 1_556 S
C551 H525 0.950 . S
C551 C550 1.414 . S
C551 C552 1.374 . S
C552 H526 0.950 . S
C552 C548 1.385 . S
C552 C551 1.374 . S
C553 C550 1.499 1_554 S
C553 C554 1.373 . S
C553 C555 1.389 . S
C554 H527 0.950 . S
C554 C540 1.377 . S
C554 C553 1.373 . S
C555 C539 1.377 . S
C555 C553 1.389 . S
C555 C556 1.524 1_554 S
C556 C555 1.524 1_556 S
C556 C557 1.397 . S
C556 C561 1.363 . S
C557 H528 0.950 . S
C557 C556 1.397 . S
C557 C558 1.334 . S
C558 H529 0.950 . S
C558 C557 1.334 . S
C558 C559 1.287 . S
C559 C558 1.287 . S
C559 C560 1.524 . S
C559 H562 0.999 . S
C560 H530 0.950 . S
C560 C559 1.524 . S
C560 C561 1.415 . S
C561 H531 0.950 . S
C561 C556 1.363 . S
C561 C560 1.415 . S
H562 C559 0.999 . S
H563 C544 0.913 . S
H564 C582 0.951 . S
H565 C584 0.951 . S
H566 C586 0.950 . S
H567 C587 0.950 . S
H568 C589 0.950 . S
H569 C592 0.950 . S
H570 C593 0.950 . S
H571 C595 0.950 . S
H572 C596 0.950 . S
H573 C597 0.951 . S
H574 C599 0.951 1_554 S
H575 C601 0.950 . S
H576 C602 0.950 . S
H577 C604 0.950 1_556 S
H578 C607 0.950 . S
H579 C608 0.950 . S
H580 C610 0.950 . S
H581 C611 0.950 . S
C582 H564 0.951 . S
C582 C583 1.366 . S
C582 C584 1.388 . S
C583 C582 1.366 . S
C583 C587 1.385 . S
C584 H565 0.951 . S
C584 C582 1.388 . S
C584 C585 1.366 . S
C585 C584 1.366 . S
C585 C586 1.414 . S
C585 C588 1.499 . S
C586 H566 0.950 . S
C586 C585 1.414 . S
C586 C587 1.374 . S
C587 H567 0.950 . S
C587 C583 1.385 . S
C587 C586 1.374 . S
C588 C585 1.499 . S
C588 C589 1.373 . S
C588 C590 1.389 . S
C589 H568 0.950 . S
C589 C588 1.373 . S
C589 C605 1.377 . S
C590 C588 1.389 . S
C590 C591 1.524 . S
C590 C604 1.377 . S
C591 C590 1.524 . S
C591 C592 1.397 . S
C591 C596 1.363 1_554 S
C592 H569 0.950 . S
C592 C591 1.397 . S
C592 C593 1.334 . S
C593 H570 0.950 . S
C593 C592 1.334 . S
C593 C594 1.287 . S
C594 C593 1.287 . S
C594 C595 1.524 1_554 S
C594 H613 0.913 1_554 S
C595 H571 0.950 . S
C595 C594 1.524 1_556 S
C595 C596 1.415 . S
C596 H572 0.950 . S
C596 C591 1.363 1_556 S
C596 C595 1.415 . S
C597 H573 0.951 . S
C597 C598 1.366 . S
C597 C599 1.388 . S
C598 C597 1.366 . S
C598 C602 1.385 . S
C599 H574 0.951 1_556 S
C599 C597 1.388 . S
C599 C600 1.366 . S
C600 C599 1.366 . S
C600 C601 1.414 . S
C600 C603 1.499 1_556 S
C601 H575 0.950 . S
C601 C600 1.414 . S
C601 C602 1.374 . S
C602 H576 0.950 . S
C602 C598 1.385 . S
C602 C601 1.374 . S
C603 C600 1.499 1_554 S
C603 C604 1.373 . S
C603 C605 1.389 . S
C604 H577 0.950 1_554 S
C604 C590 1.377 . S
C604 C603 1.373 . S
C605 C589 1.377 . S
C605 C603 1.389 . S
C605 C606 1.524 . S
C606 C605 1.524 . S
C606 C607 1.397 . S
C606 C611 1.363 . S
C607 H578 0.950 . S
C607 C606 1.397 . S
C607 C608 1.334 . S
C608 H579 0.950 . S
C608 C607 1.334 . S
C608 C609 1.287 . S
C609 C608 1.287 . S
C609 C610 1.524 . S
C609 H612 0.999 . S
C610 H580 0.950 . S
C610 C609 1.524 . S
C610 C611 1.415 . S
C611 H581 0.950 . S
C611 C606 1.363 . S
C611 C610 1.415 . S
H612 C609 0.999 . S
H613 C594 0.913 1_556 S
H614 C632 0.951 . S
H615 C634 0.951 . S
H616 C636 0.950 . S
H617 C637 0.950 . S
H618 C639 0.950 . S
H619 C642 0.950 . S
H620 C643 0.950 . S
H621 C645 0.950 . S
H622 C646 0.950 1_655 S
H623 C647 0.951 . S
H624 C649 0.951 . S
H625 C651 0.950 1_554 S
H626 C652 0.950 . S
H627 C654 0.950 . S
H628 C657 0.950 . S
H629 C658 0.950 . S
H630 C660 0.950 . S
H631 C661 0.950 1_455 S
C632 H614 0.951 . S
C632 C633 1.379 . S
C632 C634 1.388 . S
C633 C632 1.379 . S
C633 C637 1.371 1_655 S
C634 H615 0.951 . S
C634 C632 1.388 . S
C634 C635 1.357 1_655 S
C635 C634 1.357 1_455 S
C635 C636 1.422 . S
C635 C638 1.498 . S
C636 H616 0.950 . S
C636 C635 1.422 . S
C636 C637 1.374 . S
C637 H617 0.950 . S
C637 C633 1.371 1_455 S
C637 C636 1.374 . S
C638 C635 1.498 . S
C638 C639 1.363 1_455 S
C638 C640 1.398 . S
C639 H618 0.950 . S
C639 C638 1.363 1_655 S
C639 C655 1.377 . S
C640 C638 1.398 . S
C640 C641 1.524 . S
C640 C654 1.377 . S
C641 C640 1.524 . S
C641 C642 1.397 . S
C641 C646 1.363 . S
C642 H619 0.950 . S
C642 C641 1.397 . S
C642 C643 1.334 . S
C643 H620 0.950 . S
C643 C642 1.334 . S
C643 C644 1.287 . S
C644 C643 1.287 . S
C644 C645 1.524 . S
C644 H663 0.913 . S
C645 H621 0.950 . S
C645 C644 1.524 . S
C645 C646 1.415 . S
C646 H622 0.950 1_455 S
C646 C641 1.363 . S
C646 C645 1.415 . S
C647 H623 0.951 . S
C647 C648 1.345 1_455 S
C647 C649 1.388 . S
C648 C647 1.345 1_655 S
C648 C652 1.407 . S
C649 H624 0.951 . S
C649 C647 1.388 . S
C649 C650 1.366 1_455 S
C650 C649 1.366 1_655 S
C650 C651 1.414 . S
C650 C653 1.499 1_556 S
C651 H625 0.950 1_556 S
C651 C650 1.414 . S
C651 C652 1.374 . S
C652 H626 0.950 . S
C652 C648 1.407 . S
C652 C651 1.374 . S
C653 C650 1.499 1_554 S
C653 C654 1.373 1_655 S
C653 C655 1.389 . S
C654 H627 0.950 . S
C654 C640 1.377 . S
C654 C653 1.373 1_455 S
C655 C639 1.377 . S
C655 C653 1.389 . S
C655 C656 1.524 1_554 S
C656 C655 1.524 1_556 S
C656 C657 1.397 . S
C656 C661 1.363 . S
C657 H628 0.950 . S
C657 C656 1.397 . S
C657 C658 1.334 . S
C658 H629 0.950 . S
C658 C657 1.334 . S
C658 C659 1.287 . S
C659 C658 1.287 . S
C659 C660 1.524 . S
C659 H662 0.999 . S
C660 H630 0.950 . S
C660 C659 1.524 . S
C660 C661 1.415 . S
C661 H631 0.950 1_655 S
C661 C656 1.363 . S
C661 C660 1.415 . S
H662 C659 0.999 . S
H663 C644 0.913 . S
H664 C682 0.951 . S
H665 C684 0.951 . S
H666 C686 0.950 . S
H667 C687 0.950 . S
H668 C689 0.950 . S
H669 C692 0.950 . S
H670 C693 0.950 . S
H671 C695 0.950 . S
H672 C696 0.950 . S
H673 C697 0.951 1_455 S
H674 C699 0.951 1_455 S
H675 C701 0.950 . S
H676 C702 0.950 . S
H677 C704 0.950 . S
H678 C707 0.950 . S
H679 C708 0.950 1_655 S
H680 C710 0.950 . S
H681 C711 0.950 . S
C682 H664 0.951 . S
C682 C683 1.366 1_655 S
C682 C684 1.388 . S
C683 C682 1.366 1_455 S
C683 C687 1.385 . S
C684 H665 0.951 . S
C684 C682 1.388 . S
C684 C685 1.366 . S
C685 C684 1.366 . S
C685 C686 1.414 1_655 S
C685 C688 1.499 . S
C686 H666 0.950 . S
C686 C685 1.414 1_455 S
C686 C687 1.374 . S
C687 H667 0.950 . S
C687 C683 1.385 . S
C687 C686 1.374 . S
C688 C685 1.499 . S
C688 C689 1.373 1_655 S
C688 C690 1.389 . S
C689 H668 0.950 . S
C689 C688 1.373 1_455 S
C689 C705 1.377 1_455 S
C690 C688 1.389 . S
C690 C691 1.524 . S
C690 C704 1.377 . S
C691 C690 1.524 . S
C691 C692 1.397 . S
C691 C696 1.363 . S
C692 H669 0.950 . S
C692 C691 1.397 . S
C692 C693 1.334 . S
C693 H670 0.950 . S
C693 C692 1.334 . S
C693 C694 1.287 . S
C694 C693 1.287 . S
C694 C695 1.524 . S
C694 H713 0.913 . S
C695 H671 0.950 . S
C695 C694 1.524 . S
C695 C696 1.415 . S
C696 H672 0.950 . S
C696 C691 1.363 . S
C696 C695 1.415 . S
C697 H673 0.951 1_655 S
C697 C698 1.366 . S
C697 C699 1.388 . S
C698 C697 1.366 . S
C698 C702 1.385 . S
C699 H674 0.951 1_655 S
C699 C697 1.388 . S
C699 C700 1.366 . S
C700 C699 1.366 . S
C700 C701 1.414 . S
C700 C703 1.499 . S
C701 H675 0.950 . S
C701 C700 1.414 . S
C701 C702 1.374 . S
C702 H676 0.950 . S
C702 C698 1.385 . S
C702 C701 1.374 . S
C703 C700 1.499 . S
C703 C704 1.373 . S
C703 C705 1.389 . S
C704 H677 0.950 . S
C704 C690 1.377 . S
C704 C703 1.373 . S
C705 C689 1.377 1_655 S
C705 C703 1.389 . S
C705 C706 1.524 1_655 S
C706 C705 1.524 1_455 S
C706 C707 1.397 1_455 S
C706 C711 1.363 . S
C707 H678 0.950 . S
C707 C706 1.397 1_655 S
C707 C708 1.334 1_655 S
C708 H679 0.950 1_455 S
C708 C707 1.334 1_455 S
C708 C709 1.287 . S
C709 C708 1.287 . S
C709 C710 1.524 . S
C709 H712 0.999 . S
C710 H680 0.950 . S
C710 C709 1.524 . S
C710 C711 1.415 . S
C711 H681 0.950 . S
C711 C706 1.363 . S
C711 C710 1.415 . S
H712 C709 0.999 . S
H713 C694 0.913 . S
H714 C732 0.951 . S
H715 C734 0.954 . S
H716 C736 0.950 . S
H717 C737 0.950 1_556 S
H718 C739 0.950 . S
H719 C742 0.950 . S
H720 C743 0.950 . S
H721 C745 0.950 . S
H722 C746 0.950 . S
H723 C747 0.951 . S
H724 C749 0.951 . S
H725 C751 0.950 . S
H726 C752 0.950 . S
H727 C754 0.959 . S
H728 C757 0.950 . S
H729 C758 0.950 . S
H730 C760 0.950 . S
H731 C761 0.950 . S
C732 H714 0.951 . S
C732 C733 1.366 . S
C732 C734 1.395 . S
C733 C732 1.366 . S
C733 C737 1.385 1_545 S
C734 H715 0.954 . S
C734 C732 1.395 . S
C734 C735 1.358 1_545 S
C735 C734 1.358 1_565 S
C735 C736 1.414 . S
C735 C738 1.499 . S
C736 H716 0.950 . S
C736 C735 1.414 . S
C736 C737 1.374 . S
C737 H717 0.950 1_554 S
C737 C733 1.385 1_565 S
C737 C736 1.374 . S
C738 C735 1.499 . S
C738 C739 1.373 . S
C738 C740 1.389 1_565 S
C739 H718 0.950 . S
C739 C738 1.373 . S
C739 C755 1.377 . S
C740 C738 1.389 1_545 S
C740 C741 1.524 . S
C740 C754 1.380 . S
C741 C740 1.524 . S
C741 C742 1.397 . S
C741 C746 1.363 . S
C742 H719 0.950 . S
C742 C741 1.397 . S
C742 C743 1.334 . S
C743 H720 0.950 . S
C743 C742 1.334 . S
C743 C744 1.287 . S
C744 C743 1.287 . S
C744 C745 1.524 . S
C744 H763 0.913 . S
C745 H721 0.950 . S
C745 C744 1.524 . S
C745 C746 1.415 . S
C746 H722 0.950 . S
C746 C741 1.363 . S
C746 C745 1.415 . S
C747 H723 0.951 . S
C747 C748 1.366 . S
C747 C749 1.388 . S
C748 C747 1.366 . S
C748 C752 1.385 . S
C749 H724 0.951 . S
C749 C747 1.388 . S
C749 C750 1.366 . S
C750 C749 1.366 . S
C750 C751 1.414 . S
C750 C753 1.499 . S
C751 H725 0.950 . S
C751 C750 1.414 . S
C751 C752 1.374 . S
C752 H726 0.950 . S
C752 C748 1.385 . S
C752 C751 1.374 . S
C753 C750 1.499 . S
C753 C754 1.362 1_565 S
C753 C755 1.389 . S
C754 H727 0.959 . S
C754 C740 1.380 . S
C754 C753 1.362 1_545 S
C755 C739 1.377 . S
C755 C753 1.389 . S
C755 C756 1.524 . S
C756 C755 1.524 . S
C756 C757 1.397 . S
C756 C761 1.363 . S
C757 H728 0.950 . S
C757 C756 1.397 . S
C757 C758 1.334 . S
C758 H729 0.950 . S
C758 C757 1.334 . S
C758 C759 1.287 . S
C759 C758 1.287 . S
C759 C760 1.524 . S
C759 H762 0.999 . S
C760 H730 0.950 . S
C760 C759 1.524 . S
C760 C761 1.415 . S
C761 H731 0.950 . S
C761 C756 1.363 . S
C761 C760 1.415 . S
H762 C759 0.999 . S
H763 C744 0.913 . S
H764 C782 0.951 1_556 S
H765 C784 0.951 . S
H766 C786 0.950 . S
H767 C787 0.950 . S
H768 C789 0.950 . S
H769 C792 0.950 . S
H770 C793 0.950 . S
H771 C795 0.950 . S
H772 C796 0.950 . S
H773 C797 0.951 . S
H774 C799 0.951 . S
H775 C801 0.950 . S
H776 C802 0.950 . S
H777 C804 0.950 . S
H778 C807 0.950 . S
H779 C808 0.950 . S
H780 C810 0.950 . S
H781 C811 0.950 . S
C782 H764 0.951 1_554 S
C782 C783 1.366 . S
C782 C784 1.388 . S
C783 C782 1.366 . S
C783 C787 1.385 . S
C784 H765 0.951 . S
C784 C782 1.388 . S
C784 C785 1.366 . S
C785 C784 1.366 . S
C785 C786 1.414 . S
C785 C788 1.499 . S
C786 H766 0.950 . S
C786 C785 1.414 . S
C786 C787 1.374 . S
C787 H767 0.950 . S
C787 C783 1.385 . S
C787 C786 1.374 . S
C788 C785 1.499 . S
C788 C789 1.373 . S
C788 C790 1.389 . S
C789 H768 0.950 . S
C789 C788 1.373 . S
C789 C805 1.377 . S
C790 C788 1.389 . S
C790 C791 1.524 . S
C790 C804 1.377 . S
C791 C790 1.524 . S
C791 C792 1.397 . S
C791 C796 1.363 . S
C792 H769 0.950 . S
C792 C791 1.397 . S
C792 C793 1.334 . S
C793 H770 0.950 . S
C793 C792 1.334 . S
C793 C794 1.287 1_554 S
C794 C793 1.287 1_556 S
C794 C795 1.524 . S
C794 H813 0.913 . S
C795 H771 0.950 . S
C795 C794 1.524 . S
C795 C796 1.415 1_556 S
C796 H772 0.950 . S
C796 C791 1.363 . S
C796 C795 1.415 1_554 S
C797 H773 0.951 . S
C797 C798 1.366 . S
C797 C799 1.388 . S
C798 C797 1.366 . S
C798 C802 1.385 . S
C799 H774 0.951 . S
C799 C797 1.388 . S
C799 C800 1.366 . S
C800 C799 1.366 . S
C800 C801 1.414 . S
C800 C803 1.499 . S
C801 H775 0.950 . S
C801 C800 1.414 . S
C801 C802 1.374 . S
C802 H776 0.950 . S
C802 C798 1.385 . S
C802 C801 1.374 . S
C803 C800 1.499 . S
C803 C804 1.373 . S
C803 C805 1.389 . S
C804 H777 0.950 . S
C804 C790 1.377 . S
C804 C803 1.373 . S
C805 C789 1.377 . S
C805 C803 1.389 . S
C805 C806 1.524 . S
C806 C805 1.524 . S
C806 C807 1.397 . S
C806 C811 1.363 . S
C807 H778 0.950 . S
C807 C806 1.397 . S
C807 C808 1.334 . S
C808 H779 0.950 . S
C808 C807 1.334 . S
C808 C809 1.287 . S
C809 C808 1.287 . S
C809 C810 1.524 . S
C809 H812 0.999 . S
C810 H780 0.950 . S
C810 C809 1.524 . S
C810 C811 1.415 . S
C811 H781 0.950 . S
C811 C806 1.363 . S
C811 C810 1.415 . S
H812 C809 0.999 . S
H813 C794 0.913 . S
H814 C832 0.951 . S
H815 C834 0.951 . S
H816 C836 0.950 . S
H817 C837 0.950 . S
H818 C839 0.950 . S
H819 C842 0.950 . S
H820 C843 0.950 . S
H821 C845 0.950 . S
H822 C846 0.950 . S
H823 C847 0.951 . S
H824 C849 0.951 . S
H825 C851 0.950 . S
H826 C852 0.950 . S
H827 C854 0.950 . S
H828 C857 0.950 . S
H829 C858 0.950 . S
H830 C860 0.950 . S
H831 C861 0.950 . S
C832 H814 0.951 . S
C832 C833 1.366 . S
C832 C834 1.388 . S
C833 C832 1.366 . S
C833 C837 1.385 . S
C834 H815 0.951 . S
C834 C832 1.388 . S
C834 C835 1.366 . S
C835 C834 1.366 . S
C835 C836 1.414 . S
C835 C838 1.499 . S
C836 H816 0.950 . S
C836 C835 1.414 . S
C836 C837 1.374 . S
C837 H817 0.950 . S
C837 C833 1.385 . S
C837 C836 1.374 . S
C838 C835 1.499 . S
C838 C839 1.373 . S
C838 C840 1.389 . S
C839 H818 0.950 . S
C839 C838 1.373 . S
C839 C855 1.377 . S
C840 C838 1.389 . S
C840 C841 1.524 . S
C840 C854 1.377 . S
C841 C840 1.524 . S
C841 C842 1.397 . S
C841 C846 1.363 . S
C842 H819 0.950 . S
C842 C841 1.397 . S
C842 C843 1.334 . S
C843 H820 0.950 . S
C843 C842 1.334 . S
C843 C844 1.287 . S
C844 C843 1.287 . S
C844 C845 1.524 . S
C844 H863 0.913 . S
C845 H821 0.950 . S
C845 C844 1.524 . S
C845 C846 1.415 . S
C846 H822 0.950 . S
C846 C841 1.363 . S
C846 C845 1.415 . S
C847 H823 0.951 . S
C847 C848 1.366 . S
C847 C849 1.388 . S
C848 C847 1.366 . S
C848 C852 1.385 . S
C849 H824 0.951 . S
C849 C847 1.388 . S
C849 C850 1.366 . S
C850 C849 1.366 . S
C850 C851 1.414 . S
C850 C853 1.499 . S
C851 H825 0.950 . S
C851 C850 1.414 . S
C851 C852 1.374 . S
C852 H826 0.950 . S
C852 C848 1.385 . S
C852 C851 1.374 . S
C853 C850 1.499 . S
C853 C854 1.373 . S
C853 C855 1.389 . S
C854 H827 0.950 . S
C854 C840 1.377 . S
C854 C853 1.373 . S
C855 C839 1.377 . S
C855 C853 1.389 . S
C855 C856 1.524 . S
C856 C855 1.524 . S
C856 C857 1.397 . S
C856 C861 1.363 . S
C857 H828 0.950 . S
C857 C856 1.397 . S
C857 C858 1.334 . S
C858 H829 0.950 . S
C858 C857 1.334 . S
C858 C859 1.287 . S
C859 C858 1.287 . S
C859 C860 1.524 . S
C859 H862 0.999 . S
C860 H830 0.950 . S
C860 C859 1.524 . S
C860 C861 1.415 . S
C861 H831 0.950 . S
C861 C856 1.363 . S
C861 C860 1.415 . S
H862 C859 0.999 . S
H863 C844 0.913 . S
H864 C882 0.951 . S
H865 C884 0.951 . S
H866 C886 0.950 . S
H867 C887 0.950 . S
H868 C889 0.950 . S
H869 C892 0.950 . S
H870 C893 0.950 . S
H871 C895 0.950 . S
H872 C896 0.950 . S
H873 C897 0.951 . S
H874 C899 0.951 . S
H875 C901 0.950 1_655 S
H876 C902 0.950 1_655 S
H877 C904 0.958 . S
H878 C907 0.950 . S
H879 C908 0.950 . S
H880 C910 0.950 . S
H881 C911 0.950 . S
C882 H864 0.951 . S
C882 C883 1.366 . S
C882 C884 1.388 . S
C883 C882 1.366 . S
C883 C887 1.385 1_655 S
C884 H865 0.951 . S
C884 C882 1.388 . S
C884 C885 1.366 1_655 S
C885 C884 1.366 1_455 S
C885 C886 1.414 . S
C885 C888 1.499 . S
C886 H866 0.950 . S
C886 C885 1.414 . S
C886 C887 1.374 . S
C887 H867 0.950 . S
C887 C883 1.385 1_455 S
C887 C886 1.374 . S
C888 C885 1.499 . S
C888 C889 1.373 . S
C888 C890 1.389 1_455 S
C889 H868 0.950 . S
C889 C888 1.373 . S
C889 C905 1.377 . S
C890 C888 1.389 1_655 S
C890 C891 1.524 . S
C890 C904 1.378 . S
C891 C890 1.524 . S
C891 C892 1.397 . S
C891 C896 1.363 . S
C892 H869 0.950 . S
C892 C891 1.397 . S
C892 C893 1.334 . S
C893 H870 0.950 . S
C893 C892 1.334 . S
C893 C894 1.287 . S
C894 C893 1.287 . S
C894 C895 1.524 . S
C894 H913 0.913 . S
C895 H871 0.950 . S
C895 C894 1.524 . S
C895 C896 1.415 . S
C896 H872 0.950 . S
C896 C891 1.363 . S
C896 C895 1.415 . S
C897 H873 0.951 . S
C897 C898 1.366 . S
C897 C899 1.388 . S
C898 C897 1.366 . S
C898 C902 1.385 . S
C899 H874 0.951 . S
C899 C897 1.388 . S
C899 C900 1.366 . S
C900 C899 1.366 . S
C900 C901 1.414 . S
C900 C903 1.499 . S
C901 H875 0.950 1_455 S
C901 C900 1.414 . S
C901 C902 1.374 . S
C902 H876 0.950 1_455 S
C902 C898 1.385 . S
C902 C901 1.374 . S
C903 C900 1.499 . S
C903 C904 1.364 1_455 S
C903 C905 1.389 . S
C904 H877 0.958 . S
C904 C890 1.378 . S
C904 C903 1.364 1_655 S
C905 C889 1.377 . S
C905 C903 1.389 . S
C905 C906 1.524 . S
C906 C905 1.524 . S
C906 C907 1.397 . S
C906 C911 1.363 . S
C907 H878 0.950 . S
C907 C906 1.397 . S
C907 C908 1.334 . S
C908 H879 0.950 . S
C908 C907 1.334 . S
C908 C909 1.287 . S
C909 C908 1.287 . S
C909 C910 1.524 . S
C909 H912 0.999 . S
C910 H880 0.950 . S
C910 C909 1.524 . S
C910 C911 1.415 . S
C911 H881 0.950 . S
C911 C906 1.363 . S
C911 C910 1.415 . S
H912 C909 0.999 . S
H913 C894 0.913 . S
H914 C932 0.950 1_565 S
H915 C934 0.951 . S
H916 C936 0.950 . S
H917 C937 0.950 . S
H918 C939 0.950 . S
H919 C942 0.950 . S
H920 C943 0.950 . S
H921 C945 0.950 . S
H922 C946 0.950 . S
H923 C947 0.951 . S
H924 C949 0.951 . S
H925 C951 0.950 1_556 S
H926 C952 0.950 . S
H927 C954 0.950 . S
H928 C957 0.950 . S
H929 C958 0.950 . S
H930 C960 0.950 . S
H931 C961 0.950 . S
C932 H914 0.950 1_545 S
C932 C933 1.361 1_545 S
C932 C934 1.395 . S
C933 C932 1.361 1_565 S
C933 C937 1.385 . S
C934 H915 0.951 . S
C934 C932 1.395 . S
C934 C935 1.366 . S
C935 C934 1.366 . S
C935 C936 1.414 . S
C935 C938 1.499 . S
C936 H916 0.950 . S
C936 C935 1.414 . S
C936 C937 1.374 1_545 S
C937 H917 0.950 . S
C937 C933 1.385 . S
C937 C936 1.374 1_565 S
C938 C935 1.499 . S
C938 C939 1.373 1_545 S
C938 C940 1.389 . S
C939 H918 0.950 . S
C939 C938 1.373 1_565 S
C939 C955 1.379 . S
C940 C938 1.389 . S
C940 C941 1.524 . S
C940 C954 1.377 . S
C941 C940 1.524 . S
C941 C942 1.397 . S
C941 C946 1.363 . S
C942 H919 0.950 . S
C942 C941 1.397 . S
C942 C943 1.334 . S
C943 H920 0.950 . S
C943 C942 1.334 . S
C943 C944 1.287 . S
C944 C943 1.287 . S
C944 C945 1.524 . S
C944 H963 0.913 . S
C945 H921 0.950 . S
C945 C944 1.524 . S
C945 C946 1.415 . S
C946 H922 0.950 . S
C946 C941 1.363 . S
C946 C945 1.415 . S
C947 H923 0.951 . S
C947 C948 1.366 . S
C947 C949 1.388 . S
C948 C947 1.366 . S
C948 C952 1.385 1_554 S
C949 H924 0.951 . S
C949 C947 1.388 . S
C949 C950 1.366 . S
C950 C949 1.366 . S
C950 C951 1.414 . S
C950 C953 1.499 . S
C951 H925 0.950 1_554 S
C951 C950 1.414 . S
C951 C952 1.374 1_554 S
C952 H926 0.950 . S
C952 C948 1.385 1_556 S
C952 C951 1.374 1_556 S
C953 C950 1.499 . S
C953 C954 1.373 . S
C953 C955 1.376 1_545 S
C954 H927 0.950 . S
C954 C940 1.377 . S
C954 C953 1.373 . S
C955 C939 1.379 . S
C955 C953 1.376 1_565 S
C955 C956 1.537 . S
C956 C955 1.537 . S
C956 C957 1.397 . S
C956 C961 1.363 . S
C957 H928 0.950 . S
C957 C956 1.397 . S
C957 C958 1.334 . S
C958 H929 0.950 . S
C958 C957 1.334 . S
C958 C959 1.287 . S
C959 C958 1.287 . S
C959 C960 1.524 . S
C959 H962 0.999 . S
C960 H930 0.950 . S
C960 C959 1.524 . S
C960 C961 1.415 . S
C961 H931 0.950 . S
C961 C956 1.363 . S
C961 C960 1.415 . S
H962 C959 0.999 . S
H963 C944 0.913 . S
H964 C982 0.951 . S
H965 C984 0.951 . S
H966 C986 0.950 . S
H967 C987 0.950 . S
H968 C989 0.950 . S
H969 C992 0.950 . S
H970 C993 0.950 . S
H971 C995 0.950 . S
H972 C996 0.950 . S
H973 C997 0.951 . S
H974 C999 0.951 . S
H975 C1001 0.950 . S
H976 C1002 0.950 1_556 S
H977 C1004 0.950 . S
H978 C1007 0.950 . S
H979 C1008 0.950 . S
H980 C1010 0.950 . S
H981 C1011 0.950 . S
C982 H964 0.951 . S
C982 C983 1.366 . S
C982 C984 1.388 . S
C983 C982 1.366 . S
C983 C987 1.385 . S
C984 H965 0.951 . S
C984 C982 1.388 . S
C984 C985 1.366 . S
C985 C984 1.366 . S
C985 C986 1.414 . S
C985 C988 1.499 . S
C986 H966 0.950 . S
C986 C985 1.414 . S
C986 C987 1.374 . S
C987 H967 0.950 . S
C987 C983 1.385 . S
C987 C986 1.374 . S
C988 C985 1.499 . S
C988 C989 1.373 . S
C988 C990 1.389 . S
C989 H968 0.950 . S
C989 C988 1.373 . S
C989 C1005 1.377 . S
C990 C988 1.389 . S
C990 C991 1.524 . S
C990 C1004 1.377 . S
C991 C990 1.524 . S
C991 C992 1.397 . S
C991 C996 1.363 . S
C992 H969 0.950 . S
C992 C991 1.397 . S
C992 C993 1.334 . S
C993 H970 0.950 . S
C993 C992 1.334 . S
C993 C994 1.287 1_554 S
C994 C993 1.287 1_556 S
C994 C995 1.524 . S
C994 H1013 0.913 . S
C995 H971 0.950 . S
C995 C994 1.524 . S
C995 C996 1.415 1_556 S
C996 H972 0.950 . S
C996 C991 1.363 . S
C996 C995 1.415 1_554 S
C997 H973 0.951 . S
C997 C998 1.366 . S
C997 C999 1.388 . S
C998 C997 1.366 . S
C998 C1002 1.385 . S
C999 H974 0.951 . S
C999 C997 1.388 . S
C999 C1000 1.366 . S
C1000 C999 1.366 . S
C1000 C1001 1.414 . S
C1000 C1003 1.499 . S
C1001 H975 0.950 . S
C1001 C1000 1.414 . S
C1001 C1002 1.374 . S
C1002 H976 0.950 1_554 S
C1002 C998 1.385 . S
C1002 C1001 1.374 . S
C1003 C1000 1.499 . S
C1003 C1004 1.373 . S
C1003 C1005 1.389 . S
C1004 H977 0.950 . S
C1004 C990 1.377 . S
C1004 C1003 1.373 . S
C1005 C989 1.377 . S
C1005 C1003 1.389 . S
C1005 C1006 1.524 . S
C1006 C1005 1.524 . S
C1006 C1007 1.397 . S
C1006 C1011 1.363 . S
C1007 H978 0.950 . S
C1007 C1006 1.397 . S
C1007 C1008 1.334 . S
C1008 H979 0.950 . S
C1008 C1007 1.334 . S
C1008 C1009 1.287 . S
C1009 C1008 1.287 . S
C1009 C1010 1.524 . S
C1009 H1012 0.999 . S
C1010 H980 0.950 . S
C1010 C1009 1.524 . S
C1010 C1011 1.415 . S
C1011 H981 0.950 . S
C1011 C1006 1.363 . S
C1011 C1010 1.415 . S
H1012 C1009 0.999 . S
H1013 C994 0.913 . S
H1014 C1032 0.951 . S
H1015 C1034 0.951 . S
H1016 C1036 0.950 . S
H1017 C1037 0.950 . S
H1018 C1039 0.950 . S
H1019 C1042 0.950 . S
H1020 C1043 0.950 . S
H1021 C1045 0.950 . S
H1022 C1046 0.950 . S
H1023 C1047 0.951 . S
H1024 C1049 0.951 1_556 S
H1025 C1051 0.950 . S
H1026 C1052 0.950 . S
H1027 C1054 0.950 . S
H1028 C1057 0.950 . S
H1029 C1058 0.950 . S
H1030 C1060 0.950 . S
H1031 C1061 0.950 . S
C1032 H1014 0.951 . S
C1032 C1033 1.366 . S
C1032 C1034 1.388 . S
C1033 C1032 1.366 . S
C1033 C1037 1.385 . S
C1034 H1015 0.951 . S
C1034 C1032 1.388 . S
C1034 C1035 1.366 . S
C1035 C1034 1.366 . S
C1035 C1036 1.414 . S
C1035 C1038 1.499 . S
C1036 H1016 0.950 . S
C1036 C1035 1.414 . S
C1036 C1037 1.374 . S
C1037 H1017 0.950 . S
C1037 C1033 1.385 . S
C1037 C1036 1.374 . S
C1038 C1035 1.499 . S
C1038 C1039 1.373 . S
C1038 C1040 1.389 . S
C1039 H1018 0.950 . S
C1039 C1038 1.373 . S
C1039 C1055 1.377 . S
C1040 C1038 1.389 . S
C1040 C1041 1.524 . S
C1040 C1054 1.377 . S
C1041 C1040 1.524 . S
C1041 C1042 1.397 . S
C1041 C1046 1.363 . S
C1042 H1019 0.950 . S
C1042 C1041 1.397 . S
C1042 C1043 1.334 . S
C1043 H1020 0.950 . S
C1043 C1042 1.334 . S
C1043 C1044 1.287 . S
C1044 C1043 1.287 . S
C1044 C1045 1.524 . S
C1044 H1063 0.913 . S
C1045 H1021 0.950 . S
C1045 C1044 1.524 . S
C1045 C1046 1.415 . S
C1046 H1022 0.950 . S
C1046 C1041 1.363 . S
C1046 C1045 1.415 . S
C1047 H1023 0.951 . S
C1047 C1048 1.366 1_556 S
C1047 C1049 1.388 1_556 S
C1048 C1047 1.366 1_554 S
C1048 C1052 1.385 . S
C1049 H1024 0.951 1_554 S
C1049 C1047 1.388 1_554 S
C1049 C1050 1.366 . S
C1050 C1049 1.366 . S
C1050 C1051 1.414 . S
C1050 C1053 1.499 . S
C1051 H1025 0.950 . S
C1051 C1050 1.414 . S
C1051 C1052 1.374 . S
C1052 H1026 0.950 . S
C1052 C1048 1.385 . S
C1052 C1051 1.374 . S
C1053 C1050 1.499 . S
C1053 C1054 1.373 . S
C1053 C1055 1.389 . S
C1054 H1027 0.950 . S
C1054 C1040 1.377 . S
C1054 C1053 1.373 . S
C1055 C1039 1.377 . S
C1055 C1053 1.389 . S
C1055 C1056 1.524 . S
C1056 C1055 1.524 . S
C1056 C1057 1.397 . S
C1056 C1061 1.363 . S
C1057 H1028 0.950 . S
C1057 C1056 1.397 . S
C1057 C1058 1.334 . S
C1058 H1029 0.950 . S
C1058 C1057 1.334 . S
C1058 C1059 1.287 1_554 S
C1059 C1058 1.287 1_556 S
C1059 C1060 1.524 . S
C1059 H1062 0.999 . S
C1060 H1030 0.950 . S
C1060 C1059 1.524 . S
C1060 C1061 1.415 1_556 S
C1061 H1031 0.950 . S
C1061 C1056 1.363 . S
C1061 C1060 1.415 1_554 S
H1062 C1059 0.999 . S
H1063 C1044 0.913 . S
H1064 C1082 0.951 . S
H1065 C1084 0.951 . S
H1066 C1086 0.950 . S
H1067 C1087 0.950 . S
H1068 C1089 0.950 . S
H1069 C1092 0.950 . S
H1070 C1093 0.950 . S
H1071 C1095 0.950 . S
H1072 C1096 0.950 . S
H1073 C1097 0.951 . S
H1074 C1099 0.951 . S
H1075 C1101 0.950 . S
H1076 C1102 0.950 . S
H1077 C1104 0.950 . S
H1078 C1107 0.950 1_455 S
H1079 C1108 0.950 . S
H1080 C1110 0.950 . S
H1081 C1111 0.950 . S
C1082 H1064 0.951 . S
C1082 C1083 1.366 . S
C1082 C1084 1.388 . S
C1083 C1082 1.366 . S
C1083 C1087 1.385 1_455 S
C1084 H1065 0.951 . S
C1084 C1082 1.388 . S
C1084 C1085 1.366 . S
C1085 C1084 1.366 . S
C1085 C1086 1.414 1_455 S
C1085 C1088 1.499 . S
C1086 H1066 0.950 . S
C1086 C1085 1.414 1_655 S
C1086 C1087 1.374 . S
C1087 H1067 0.950 . S
C1087 C1083 1.385 1_655 S
C1087 C1086 1.374 . S
C1088 C1085 1.499 . S
C1088 C1089 1.373 1_455 S
C1088 C1090 1.389 . S
C1089 H1068 0.950 . S
C1089 C1088 1.373 1_655 S
C1089 C1105 1.377 . S
C1090 C1088 1.389 . S
C1090 C1091 1.524 . S
C1090 C1104 1.377 . S
C1091 C1090 1.524 . S
C1091 C1092 1.397 . S
C1091 C1096 1.363 . S
C1092 H1069 0.950 . S
C1092 C1091 1.397 . S
C1092 C1093 1.334 . S
C1093 H1070 0.950 . S
C1093 C1092 1.334 . S
C1093 C1094 1.287 . S
C1094 C1093 1.287 . S
C1094 C1095 1.524 . S
C1094 H1113 0.913 . S
C1095 H1071 0.950 . S
C1095 C1094 1.524 . S
C1095 C1096 1.415 . S
C1096 H1072 0.950 . S
C1096 C1091 1.363 . S
C1096 C1095 1.415 . S
C1097 H1073 0.951 . S
C1097 C1098 1.366 1_655 S
C1097 C1099 1.388 . S
C1098 C1097 1.366 1_455 S
C1098 C1102 1.385 . S
C1099 H1074 0.951 . S
C1099 C1097 1.388 . S
C1099 C1100 1.366 1_655 S
C1100 C1099 1.366 1_455 S
C1100 C1101 1.414 . S
C1100 C1103 1.499 . S
C1101 H1075 0.950 . S
C1101 C1100 1.414 . S
C1101 C1102 1.374 . S
C1102 H1076 0.950 . S
C1102 C1098 1.385 . S
C1102 C1101 1.374 . S
C1103 C1100 1.499 . S
C1103 C1104 1.373 . S
C1103 C1105 1.389 1_455 S
C1104 H1077 0.950 . S
C1104 C1090 1.377 . S
C1104 C1103 1.373 . S
C1105 C1089 1.377 . S
C1105 C1103 1.389 1_655 S
C1105 C1106 1.524 . S
C1106 C1105 1.524 . S
C1106 C1107 1.397 1_556 S
C1106 C1111 1.363 . S
C1107 H1078 0.950 1_655 S
C1107 C1106 1.397 1_554 S
C1107 C1108 1.334 . S
C1108 H1079 0.950 . S
C1108 C1107 1.334 . S
C1108 C1109 1.287 . S
C1109 C1108 1.287 . S
C1109 C1110 1.524 . S
C1109 H1112 0.999 . S
C1110 H1080 0.950 . S
C1110 C1109 1.524 . S
C1110 C1111 1.415 1_554 S
C1111 H1081 0.950 . S
C1111 C1106 1.363 . S
C1111 C1110 1.415 1_556 S
H1112 C1109 0.999 . S
H1113 C1094 0.913 . S
H1114 C1132 0.951 1_554 S
H1115 C1134 0.951 1_554 S
H1116 C1136 0.947 1_565 S
H1117 C1137 0.949 . S
H1118 C1139 0.950 . S
H1119 C1142 0.950 . S
H1120 C1143 0.950 . S
H1121 C1145 0.950 . S
H1122 C1146 0.950 . S
H1123 C1147 0.951 . S
H1124 C1149 0.951 . S
H1125 C1151 0.950 . S
H1126 C1152 0.950 . S
H1127 C1154 0.950 . S
H1128 C1157 0.950 . S
H1129 C1158 0.950 . S
H1130 C1160 0.950 . S
H1131 C1161 0.950 . S
C1132 H1114 0.951 1_556 S
C1132 C1133 1.366 . S
C1132 C1134 1.388 . S
C1133 C1132 1.366 . S
C1133 C1137 1.385 1_545 S
C1134 H1115 0.951 1_556 S
C1134 C1132 1.388 . S
C1134 C1135 1.366 . S
C1135 C1134 1.366 . S
C1135 C1136 1.414 . S
C1135 C1138 1.499 . S
C1136 H1116 0.947 1_545 S
C1136 C1135 1.414 . S
C1136 C1137 1.374 1_545 S
C1137 H1117 0.949 . S
C1137 C1133 1.385 1_565 S
C1137 C1136 1.374 1_565 S
C1138 C1135 1.499 . S
C1138 C1139 1.373 1_545 S
C1138 C1140 1.389 . S
C1139 H1118 0.950 . S
C1139 C1138 1.373 1_565 S
C1139 C1155 1.377 . S
C1140 C1138 1.389 . S
C1140 C1141 1.524 . S
C1140 C1154 1.377 . S
C1141 C1140 1.524 . S
C1141 C1142 1.397 . S
C1141 C1146 1.363 1_556 S
C1142 H1119 0.950 . S
C1142 C1141 1.397 . S
C1142 C1143 1.334 . S
C1143 H1120 0.950 . S
C1143 C1142 1.334 . S
C1143 C1144 1.287 1_556 S
C1144 C1143 1.287 1_554 S
C1144 C1145 1.524 . S
C1144 H1163 0.913 . S
C1145 H1121 0.950 . S
C1145 C1144 1.524 . S
C1145 C1146 1.415 . S
C1146 H1122 0.950 . S
C1146 C1141 1.363 1_554 S
C1146 C1145 1.415 . S
C1147 H1123 0.951 . S
C1147 C1148 1.366 . S
C1147 C1149 1.388 . S
C1148 C1147 1.366 . S
C1148 C1152 1.385 . S
C1149 H1124 0.951 . S
C1149 C1147 1.388 . S
C1149 C1150 1.366 . S
C1150 C1149 1.366 . S
C1150 C1151 1.414 . S
C1150 C1153 1.499 . S
C1151 H1125 0.950 . S
C1151 C1150 1.414 . S
C1151 C1152 1.374 . S
C1152 H1126 0.950 . S
C1152 C1148 1.385 . S
C1152 C1151 1.374 . S
C1153 C1150 1.499 . S
C1153 C1154 1.373 . S
C1153 C1155 1.389 1_545 S
C1154 H1127 0.950 . S
C1154 C1140 1.377 . S
C1154 C1153 1.373 . S
C1155 C1139 1.377 . S
C1155 C1153 1.389 1_565 S
C1155 C1156 1.524 . S
C1156 C1155 1.524 . S
C1156 C1157 1.397 . S
C1156 C1161 1.363 . S
C1157 H1128 0.950 . S
C1157 C1156 1.397 . S
C1157 C1158 1.334 . S
C1158 H1129 0.950 . S
C1158 C1157 1.334 . S
C1158 C1159 1.287 . S
C1159 C1158 1.287 . S
C1159 C1160 1.524 . S
C1159 H1162 0.999 . S
C1160 H1130 0.950 . S
C1160 C1159 1.524 . S
C1160 C1161 1.415 . S
C1161 H1131 0.950 . S
C1161 C1156 1.363 . S
C1161 C1160 1.415 . S
H1162 C1159 0.999 . S
H1163 C1144 0.913 . S
H1164 C1182 0.951 1_554 S
H1165 C1184 0.951 . S
H1166 C1186 0.950 . S
H1167 C1187 0.950 . S
H1168 C1189 0.950 . S
H1169 C1192 0.950 1_556 S
H1170 C1193 0.950 . S
H1171 C1195 0.950 . S
H1172 C1196 0.950 . S
H1173 C1197 0.951 . S
H1174 C1199 0.951 . S
H1175 C1201 0.950 . S
H1176 C1202 0.950 . S
H1177 C1204 0.950 . S
H1178 C1207 0.950 . S
H1179 C1208 0.950 . S
H1180 C1210 0.950 . S
H1181 C1211 0.950 . S
C1182 H1164 0.951 1_556 S
C1182 C1183 1.366 . S
C1182 C1184 1.388 . S
C1183 C1182 1.366 . S
C1183 C1187 1.385 . S
C1184 H1165 0.951 . S
C1184 C1182 1.388 . S
C1184 C1185 1.366 . S
C1185 C1184 1.366 . S
C1185 C1186 1.414 . S
C1185 C1188 1.499 . S
C1186 H1166 0.950 . S
C1186 C1185 1.414 . S
C1186 C1187 1.374 . S
C1187 H1167 0.950 . S
C1187 C1183 1.385 . S
C1187 C1186 1.374 . S
C1188 C1185 1.499 . S
C1188 C1189 1.373 . S
C1188 C1190 1.389 . S
C1189 H1168 0.950 . S
C1189 C1188 1.373 . S
C1189 C1205 1.377 . S
C1190 C1188 1.389 . S
C1190 C1191 1.524 1_556 S
C1190 C1204 1.377 . S
C1191 C1190 1.524 1_554 S
C1191 C1192 1.397 . S
C1191 C1196 1.363 . S
C1192 H1169 0.950 1_554 S
C1192 C1191 1.397 . S
C1192 C1193 1.334 . S
C1193 H1170 0.950 . S
C1193 C1192 1.334 . S
C1193 C1194 1.287 . S
C1194 C1193 1.287 . S
C1194 C1195 1.524 . S
C1194 H1213 0.913 . S
C1195 H1171 0.950 . S
C1195 C1194 1.524 . S
C1195 C1196 1.415 . S
C1196 H1172 0.950 . S
C1196 C1191 1.363 . S
C1196 C1195 1.415 . S
C1197 H1173 0.951 . S
C1197 C1198 1.366 . S
C1197 C1199 1.388 . S
C1198 C1197 1.366 . S
C1198 C1202 1.385 . S
C1199 H1174 0.951 . S
C1199 C1197 1.388 . S
C1199 C1200 1.366 . S
C1200 C1199 1.366 . S
C1200 C1201 1.414 . S
C1200 C1203 1.499 . S
C1201 H1175 0.950 . S
C1201 C1200 1.414 . S
C1201 C1202 1.374 . S
C1202 H1176 0.950 . S
C1202 C1198 1.385 . S
C1202 C1201 1.374 . S
C1203 C1200 1.499 . S
C1203 C1204 1.373 . S
C1203 C1205 1.389 . S
C1204 H1177 0.950 . S
C1204 C1190 1.377 . S
C1204 C1203 1.373 . S
C1205 C1189 1.377 . S
C1205 C1203 1.389 . S
C1205 C1206 1.524 . S
C1206 C1205 1.524 . S
C1206 C1207 1.397 . S
C1206 C1211 1.363 . S
C1207 H1178 0.950 . S
C1207 C1206 1.397 . S
C1207 C1208 1.334 . S
C1208 H1179 0.950 . S
C1208 C1207 1.334 . S
C1208 C1209 1.287 . S
C1209 C1208 1.287 . S
C1209 C1210 1.524 . S
C1209 H1212 0.999 . S
C1210 H1180 0.950 . S
C1210 C1209 1.524 . S
C1210 C1211 1.415 . S
C1211 H1181 0.950 . S
C1211 C1206 1.363 . S
C1211 C1210 1.415 . S
H1212 C1209 0.999 . S
H1213 C1194 0.913 . S
H1214 C1232 0.951 . S
H1215 C1234 0.951 . S
H1216 C1236 0.950 1_554 S
H1217 C1237 0.950 1_554 S
H1218 C1239 0.950 . S
H1219 C1242 0.950 . S
H1220 C1243 0.950 . S
H1221 C1245 0.950 . S
H1222 C1246 0.950 . S
H1223 C1247 0.951 . S
H1224 C1249 0.951 . S
H1225 C1251 0.950 . S
H1226 C1252 0.950 . S
H1227 C1254 0.950 . S
H1228 C1257 0.950 . S
H1229 C1258 0.950 . S
H1230 C1260 0.950 . S
H1231 C1261 0.950 . S
C1232 H1214 0.951 . S
C1232 C1233 1.366 . S
C1232 C1234 1.388 . S
C1233 C1232 1.366 . S
C1233 C1237 1.385 . S
C1234 H1215 0.951 . S
C1234 C1232 1.388 . S
C1234 C1235 1.366 . S
C1235 C1234 1.366 . S
C1235 C1236 1.414 . S
C1235 C1238 1.499 . S
C1236 H1216 0.950 1_556 S
C1236 C1235 1.414 . S
C1236 C1237 1.374 . S
C1237 H1217 0.950 1_556 S
C1237 C1233 1.385 . S
C1237 C1236 1.374 . S
C1238 C1235 1.499 . S
C1238 C1239 1.373 . S
C1238 C1240 1.389 . S
C1239 H1218 0.950 . S
C1239 C1238 1.373 . S
C1239 C1255 1.377 . S
C1240 C1238 1.389 . S
C1240 C1241 1.524 . S
C1240 C1254 1.377 . S
C1241 C1240 1.524 . S
C1241 C1242 1.397 . S
C1241 C1246 1.363 . S
C1242 H1219 0.950 . S
C1242 C1241 1.397 . S
C1242 C1243 1.334 . S
C1243 H1220 0.950 . S
C1243 C1242 1.334 . S
C1243 C1244 1.287 . S
C1244 C1243 1.287 . S
C1244 C1245 1.524 . S
C1244 H1263 0.913 . S
C1245 H1221 0.950 . S
C1245 C1244 1.524 . S
C1245 C1246 1.415 . S
C1246 H1222 0.950 . S
C1246 C1241 1.363 . S
C1246 C1245 1.415 . S
C1247 H1223 0.951 . S
C1247 C1248 1.366 . S
C1247 C1249 1.388 . S
C1248 C1247 1.366 . S
C1248 C1252 1.385 . S
C1249 H1224 0.951 . S
C1249 C1247 1.388 . S
C1249 C1250 1.366 . S
C1250 C1249 1.366 . S
C1250 C1251 1.414 . S
C1250 C1253 1.499 . S
C1251 H1225 0.950 . S
C1251 C1250 1.414 . S
C1251 C1252 1.374 . S
C1252 H1226 0.950 . S
C1252 C1248 1.385 . S
C1252 C1251 1.374 . S
C1253 C1250 1.499 . S
C1253 C1254 1.373 . S
C1253 C1255 1.389 . S
C1254 H1227 0.950 . S
C1254 C1240 1.377 . S
C1254 C1253 1.373 . S
C1255 C1239 1.377 . S
C1255 C1253 1.389 . S
C1255 C1256 1.524 . S
C1256 C1255 1.524 . S
C1256 C1257 1.397 . S
C1256 C1261 1.363 1_556 S
C1257 H1228 0.950 . S
C1257 C1256 1.397 . S
C1257 C1258 1.334 . S
C1258 H1229 0.950 . S
C1258 C1257 1.334 . S
C1258 C1259 1.287 1_556 S
C1259 C1258 1.287 1_554 S
C1259 C1260 1.524 . S
C1259 H1262 0.999 . S
C1260 H1230 0.950 . S
C1260 C1259 1.524 . S
C1260 C1261 1.415 . S
C1261 H1231 0.950 . S
C1261 C1256 1.363 1_554 S
C1261 C1260 1.415 . S
H1262 C1259 0.999 . S
H1263 C1244 0.913 . S
H1264 C1282 0.951 . S
H1265 C1284 0.951 . S
H1266 C1286 0.950 . S
H1267 C1287 0.950 . S
H1268 C1289 0.950 . S
H1269 C1292 0.950 . S
H1270 C1293 0.950 . S
H1271 C1295 0.950 . S
H1272 C1296 0.950 . S
H1273 C1297 0.951 . S
H1274 C1299 0.962 . S
H1275 C1301 0.950 . S
H1276 C1302 0.950 . S
H1277 C1304 0.950 . S
H1278 C1307 0.950 . S
H1279 C1308 0.950 . S
H1280 C1310 0.950 . S
H1281 C1311 0.950 . S
C1282 H1264 0.951 . S
C1282 C1283 1.366 . S
C1282 C1284 1.388 . S
C1283 C1282 1.366 . S
C1283 C1287 1.385 1_655 S
C1284 H1265 0.951 . S
C1284 C1282 1.388 . S
C1284 C1285 1.366 . S
C1285 C1284 1.366 . S
C1285 C1286 1.414 1_655 S
C1285 C1288 1.499 . S
C1286 H1266 0.950 . S
C1286 C1285 1.414 1_455 S
C1286 C1287 1.374 . S
C1287 H1267 0.950 . S
C1287 C1283 1.385 1_455 S
C1287 C1286 1.374 . S
C1288 C1285 1.499 . S
C1288 C1289 1.373 1_655 S
C1288 C1290 1.389 . S
C1289 H1268 0.950 . S
C1289 C1288 1.373 1_455 S
C1289 C1305 1.377 . S
C1290 C1288 1.389 . S
C1290 C1291 1.524 . S
C1290 C1304 1.377 . S
C1291 C1290 1.524 . S
C1291 C1292 1.397 . S
C1291 C1296 1.363 . S
C1292 H1269 0.950 . S
C1292 C1291 1.397 . S
C1292 C1293 1.334 . S
C1293 H1270 0.950 . S
C1293 C1292 1.334 . S
C1293 C1294 1.287 . S
C1294 C1293 1.287 . S
C1294 C1295 1.524 . S
C1294 H1313 0.913 . S
C1295 H1271 0.950 . S
C1295 C1294 1.524 . S
C1295 C1296 1.415 . S
C1296 H1272 0.950 . S
C1296 C1291 1.363 . S
C1296 C1295 1.415 . S
C1297 H1273 0.951 . S
C1297 C1298 1.366 . S
C1297 C1299 1.388 . S
C1298 C1297 1.366 . S
C1298 C1302 1.385 . S
C1299 H1274 0.962 . S
C1299 C1297 1.388 . S
C1299 C1300 1.366 . S
C1300 C1299 1.366 . S
C1300 C1301 1.414 . S
C1300 C1303 1.499 . S
C1301 H1275 0.950 . S
C1301 C1300 1.414 . S
C1301 C1302 1.374 . S
C1302 H1276 0.950 . S
C1302 C1298 1.385 . S
C1302 C1301 1.374 . S
C1303 C1300 1.499 . S
C1303 C1304 1.373 . S
C1303 C1305 1.389 1_655 S
C1304 H1277 0.950 . S
C1304 C1290 1.377 . S
C1304 C1303 1.373 . S
C1305 C1289 1.377 . S
C1305 C1303 1.389 1_455 S
C1305 C1306 1.524 . S
C1306 C1305 1.524 . S
C1306 C1307 1.397 . S
C1306 C1311 1.363 . S
C1307 H1278 0.950 . S
C1307 C1306 1.397 . S
C1307 C1308 1.334 . S
C1308 H1279 0.950 . S
C1308 C1307 1.334 . S
C1308 C1309 1.287 . S
C1309 C1308 1.287 . S
C1309 C1310 1.524 . S
C1309 H1312 0.999 . S
C1310 H1280 0.950 . S
C1310 C1309 1.524 . S
C1310 C1311 1.415 . S
C1311 H1281 0.950 . S
C1311 C1306 1.363 . S
C1311 C1310 1.415 . S
H1312 C1309 0.999 . S
H1313 C1294 0.913 . S
H1314 C1332 0.953 . S
H1315 C1334 0.951 1_545 S
H1316 C1336 0.950 . S
H1317 C1337 0.950 . S
H1318 C1339 0.950 . S
H1319 C1342 0.950 . S
H1320 C1343 0.950 . S
H1321 C1345 0.950 . S
H1322 C1346 0.950 . S
H1323 C1347 0.951 . S
H1324 C1349 0.951 . S
H1325 C1351 0.950 . S
H1326 C1352 0.950 . S
H1327 C1354 0.950 . S
H1328 C1357 0.950 . S
H1329 C1358 0.950 . S
H1330 C1360 0.950 . S
H1331 C1361 0.950 . S
C1332 H1314 0.953 . S
C1332 C1333 1.364 1_545 S
C1332 C1334 1.388 1_545 S
C1333 C1332 1.364 1_565 S
C1333 C1337 1.385 . S
C1334 H1315 0.951 1_565 S
C1334 C1332 1.388 1_565 S
C1334 C1335 1.365 . S
C1335 C1334 1.365 . S
C1335 C1336 1.414 . S
C1335 C1338 1.499 . S
C1336 H1316 0.950 . S
C1336 C1335 1.414 . S
C1336 C1337 1.374 . S
C1337 H1317 0.950 . S
C1337 C1333 1.385 . S
C1337 C1336 1.374 . S
C1338 C1335 1.499 . S
C1338 C1339 1.373 . S
C1338 C1340 1.389 1_565 S
C1339 H1318 0.950 . S
C1339 C1338 1.373 . S
C1339 C1355 1.377 . S
C1340 C1338 1.389 1_545 S
C1340 C1341 1.524 . S
C1340 C1354 1.377 . S
C1341 C1340 1.524 . S
C1341 C1342 1.397 . S
C1341 C1346 1.363 . S
C1342 H1319 0.950 . S
C1342 C1341 1.397 . S
C1342 C1343 1.334 . S
C1343 H1320 0.950 . S
C1343 C1342 1.334 . S
C1343 C1344 1.287 . S
C1344 C1343 1.287 . S
C1344 C1345 1.524 . S
C1344 H1363 0.913 . S
C1345 H1321 0.950 . S
C1345 C1344 1.524 . S
C1345 C1346 1.415 . S
C1346 H1322 0.950 . S
C1346 C1341 1.363 . S
C1346 C1345 1.415 . S
C1347 H1323 0.951 . S
C1347 C1348 1.366 . S
C1347 C1349 1.388 . S
C1348 C1347 1.366 . S
C1348 C1352 1.385 . S
C1349 H1324 0.951 . S
C1349 C1347 1.388 . S
C1349 C1350 1.366 . S
C1350 C1349 1.366 . S
C1350 C1351 1.414 . S
C1350 C1353 1.499 . S
C1351 H1325 0.950 . S
C1351 C1350 1.414 . S
C1351 C1352 1.374 . S
C1352 H1326 0.950 . S
C1352 C1348 1.385 . S
C1352 C1351 1.374 . S
C1353 C1350 1.499 . S
C1353 C1354 1.373 1_565 S
C1353 C1355 1.389 . S
C1354 H1327 0.950 . S
C1354 C1340 1.377 . S
C1354 C1353 1.373 1_545 S
C1355 C1339 1.377 . S
C1355 C1353 1.389 . S
C1355 C1356 1.524 . S
C1356 C1355 1.524 . S
C1356 C1357 1.397 . S
C1356 C1361 1.363 . S
C1357 H1328 0.950 . S
C1357 C1356 1.397 . S
C1357 C1358 1.334 . S
C1358 H1329 0.950 . S
C1358 C1357 1.334 . S
C1358 C1359 1.287 . S
C1359 C1358 1.287 . S
C1359 C1360 1.524 . S
C1359 H1362 0.999 . S
C1360 H1330 0.950 . S
C1360 C1359 1.524 . S
C1360 C1361 1.415 . S
C1361 H1331 0.950 . S
C1361 C1356 1.363 . S
C1361 C1360 1.415 . S
H1362 C1359 0.999 . S
H1363 C1344 0.913 . S
H1364 C1382 0.951 . S
H1365 C1384 0.951 . S
H1366 C1386 0.950 . S
H1367 C1387 0.950 . S
H1368 C1389 0.950 . S
H1369 C1392 0.950 . S
H1370 C1393 0.950 . S
H1371 C1395 0.950 . S
H1372 C1396 0.950 . S
H1373 C1397 0.951 . S
H1374 C1399 0.951 . S
H1375 C1401 0.950 . S
H1376 C1402 0.950 . S
H1377 C1404 0.950 . S
H1378 C1407 0.950 . S
H1379 C1408 0.950 . S
H1380 C1410 0.950 . S
H1381 C1411 0.950 . S
C1382 H1364 0.951 . S
C1382 C1383 1.366 . S
C1382 C1384 1.388 . S
C1383 C1382 1.366 . S
C1383 C1387 1.385 . S
C1384 H1365 0.951 . S
C1384 C1382 1.388 . S
C1384 C1385 1.366 . S
C1385 C1384 1.366 . S
C1385 C1386 1.414 . S
C1385 C1388 1.499 . S
C1386 H1366 0.950 . S
C1386 C1385 1.414 . S
C1386 C1387 1.374 . S
C1387 H1367 0.950 . S
C1387 C1383 1.385 . S
C1387 C1386 1.374 . S
C1388 C1385 1.499 . S
C1388 C1389 1.373 . S
C1388 C1390 1.389 . S
C1389 H1368 0.950 . S
C1389 C1388 1.373 . S
C1389 C1405 1.377 . S
C1390 C1388 1.389 . S
C1390 C1391 1.524 . S
C1390 C1404 1.377 . S
C1391 C1390 1.524 . S
C1391 C1392 1.397 . S
C1391 C1396 1.363 . S
C1392 H1369 0.950 . S
C1392 C1391 1.397 . S
C1392 C1393 1.334 . S
C1393 H1370 0.950 . S
C1393 C1392 1.334 . S
C1393 C1394 1.287 . S
C1394 C1393 1.287 . S
C1394 C1395 1.524 . S
C1394 H1413 0.913 . S
C1395 H1371 0.950 . S
C1395 C1394 1.524 . S
C1395 C1396 1.415 . S
C1396 H1372 0.950 . S
C1396 C1391 1.363 . S
C1396 C1395 1.415 . S
C1397 H1373 0.951 . S
C1397 C1398 1.366 . S
C1397 C1399 1.388 . S
C1398 C1397 1.366 . S
C1398 C1402 1.385 . S
C1399 H1374 0.951 . S
C1399 C1397 1.388 . S
C1399 C1400 1.366 . S
C1400 C1399 1.366 . S
C1400 C1401 1.414 . S
C1400 C1403 1.499 . S
C1401 H1375 0.950 . S
C1401 C1400 1.414 . S
C1401 C1402 1.374 . S
C1402 H1376 0.950 . S
C1402 C1398 1.385 . S
C1402 C1401 1.374 . S
C1403 C1400 1.499 . S
C1403 C1404 1.373 . S
C1403 C1405 1.389 . S
C1404 H1377 0.950 . S
C1404 C1390 1.377 . S
C1404 C1403 1.373 . S
C1405 C1389 1.377 . S
C1405 C1403 1.389 . S
C1405 C1406 1.524 . S
C1406 C1405 1.524 . S
C1406 C1407 1.397 . S
C1406 C1411 1.363 . S
C1407 H1378 0.950 . S
C1407 C1406 1.397 . S
C1407 C1408 1.334 . S
C1408 H1379 0.950 . S
C1408 C1407 1.334 . S
C1408 C1409 1.287 . S
C1409 C1408 1.287 . S
C1409 C1410 1.524 . S
C1409 H1412 0.999 . S
C1410 H1380 0.950 . S
C1410 C1409 1.524 . S
C1410 C1411 1.415 . S
C1411 H1381 0.950 . S
C1411 C1406 1.363 . S
C1411 C1410 1.415 . S
H1412 C1409 0.999 . S
H1413 C1394 0.913 . S
H1414 C1432 0.951 . S
H1415 C1434 0.951 . S
H1416 C1436 0.950 . S
H1417 C1437 0.950 . S
H1418 C1439 0.950 . S
H1419 C1442 0.950 . S
H1420 C1443 0.950 . S
H1421 C1445 0.950 . S
H1422 C1446 0.950 . S
H1423 C1447 0.951 . S
H1424 C1449 0.951 . S
H1425 C1451 0.950 . S
H1426 C1452 0.950 . S
H1427 C1454 0.950 . S
H1428 C1457 0.950 . S
H1429 C1458 0.950 . S
H1430 C1460 0.950 . S
H1431 C1461 0.950 . S
C1432 H1414 0.951 . S
C1432 C1433 1.366 . S
C1432 C1434 1.388 . S
C1433 C1432 1.366 . S
C1433 C1437 1.385 . S
C1434 H1415 0.951 . S
C1434 C1432 1.388 . S
C1434 C1435 1.366 . S
C1435 C1434 1.366 . S
C1435 C1436 1.414 . S
C1435 C1438 1.499 . S
C1436 H1416 0.950 . S
C1436 C1435 1.414 . S
C1436 C1437 1.374 . S
C1437 H1417 0.950 . S
C1437 C1433 1.385 . S
C1437 C1436 1.374 . S
C1438 C1435 1.499 . S
C1438 C1439 1.373 . S
C1438 C1440 1.389 . S
C1439 H1418 0.950 . S
C1439 C1438 1.373 . S
C1439 C1455 1.377 . S
C1440 C1438 1.389 . S
C1440 C1441 1.524 . S
C1440 C1454 1.377 . S
C1441 C1440 1.524 . S
C1441 C1442 1.397 . S
C1441 C1446 1.363 . S
C1442 H1419 0.950 . S
C1442 C1441 1.397 . S
C1442 C1443 1.334 . S
C1443 H1420 0.950 . S
C1443 C1442 1.334 . S
C1443 C1444 1.287 . S
C1444 C1443 1.287 . S
C1444 C1445 1.524 . S
C1444 H1463 0.913 . S
C1445 H1421 0.950 . S
C1445 C1444 1.524 . S
C1445 C1446 1.415 . S
C1446 H1422 0.950 . S
C1446 C1441 1.363 . S
C1446 C1445 1.415 . S
C1447 H1423 0.951 . S
C1447 C1448 1.366 . S
C1447 C1449 1.388 . S
C1448 C1447 1.366 . S
C1448 C1452 1.385 . S
C1449 H1424 0.951 . S
C1449 C1447 1.388 . S
C1449 C1450 1.366 . S
C1450 C1449 1.366 . S
C1450 C1451 1.414 . S
C1450 C1453 1.499 . S
C1451 H1425 0.950 . S
C1451 C1450 1.414 . S
C1451 C1452 1.374 . S
C1452 H1426 0.950 . S
C1452 C1448 1.385 . S
C1452 C1451 1.374 . S
C1453 C1450 1.499 . S
C1453 C1454 1.373 . S
C1453 C1455 1.389 . S
C1454 H1427 0.950 . S
C1454 C1440 1.377 . S
C1454 C1453 1.373 . S
C1455 C1439 1.377 . S
C1455 C1453 1.389 . S
C1455 C1456 1.524 . S
C1456 C1455 1.524 . S
C1456 C1457 1.397 . S
C1456 C1461 1.363 . S
C1457 H1428 0.950 . S
C1457 C1456 1.397 . S
C1457 C1458 1.334 . S
C1458 H1429 0.950 . S
C1458 C1457 1.334 . S
C1458 C1459 1.287 . S
C1459 C1458 1.287 . S
C1459 C1460 1.524 . S
C1459 H1462 0.999 . S
C1460 H1430 0.950 . S
C1460 C1459 1.524 . S
C1460 C1461 1.415 . S
C1461 H1431 0.950 . S
C1461 C1456 1.363 . S
C1461 C1460 1.415 . S
H1462 C1459 0.999 . S
H1463 C1444 0.913 . S
C283 N80 1.796 . S
C298 C114 1.833 1_545 S
C348 C154 1.836 . S
C333 N93 1.795 . S
C398 C194 1.837 . S
C383 N54 1.795 . S
C448 C234 1.836 1_455 S
C433 N67 1.795 . S
C498 C123 1.833 1_565 S
C483 N28 1.796 . S
C533 N41 1.794 . S
C548 C163 1.836 . S
C583 N2 1.795 . S
C598 C203 1.836 . S
C633 N15 1.796 . S
C648 C243 1.834 1_655 S
C698 C120 0.291 . S
C683 N70 0.246 . S
C748 C160 0.289 . S
C733 N83 0.245 . S
C798 C200 0.293 . S
C783 N96 0.247 . S
C833 N57 0.247 . S
C848 C240 0.291 . S
C883 N18 0.250 . S
C898 C111 0.290 . S
C948 C151 0.293 . S
C933 N31 0.238 . S
C998 C191 0.291 . S
C983 N44 0.237 . S
C1033 N5 0.235 . S
C1048 C231 0.289 . S
C1083 N66 1.977 . S
C1098 C115 2.035 . S
C1133 N79 1.975 . S
C1148 C155 2.036 . S
C1198 C195 2.036 . S
C1183 N92 1.976 . S
C1248 C235 2.036 . S
C1233 N53 1.975 . S
C1283 N14 1.971 . S
C1298 C106 2.037 . S
C1348 C146 2.035 . S
C1333 N27 1.971 . S
C1398 C186 2.035 . S
C1383 N40 1.970 . S
C1433 N1 1.971 . S
C1448 C226 2.036 . S
