# Generated by pormake.
# Topology zzz, (3,6)-cn, num edge types: 1
# Building blocks:
#     Node 0, Type 0, BuildingBlock: PAMTOO_clean_linker_0, # of connection points: 3
#     Node 1, Type 0, BuildingBlock: PAMTOO_clean_linker_0, # of connection points: 3
#     Node 2, Type 0, BuildingBlock: PAMTOO_clean_linker_0, # of connection points: 3
#     Node 3, Type 0, BuildingBlock: PAMTOO_clean_linker_0, # of connection points: 3
#     Node 4, Type 0, BuildingBlock: PAMTOO_clean_linker_0, # of connection points: 3
#     Node 5, Type 0, BuildingBlock: PAMTOO_clean_linker_0, # of connection points: 3
#     Node 6, Type 0, BuildingBlock: PAMTOO_clean_linker_0, # of connection points: 3
#     Node 7, Type 0, BuildingBlock: PAMTOO_clean_linker_0, # of connection points: 3
#     Node 8, Type 1, BuildingBlock: VOLQOD_clean_sbu_1, # of connection points: 6
#     Node 9, Type 1, BuildingBlock: VOLQOD_clean_sbu_1, # of connection points: 6
#     Node 10, Type 1, BuildingBlock: VOLQOD_clean_sbu_1, # of connection points: 6
#     Node 11, Type 1, BuildingBlock: VOLQOD_clean_sbu_1, # of connection points: 6
#     Edge 12, Type (0, 1), BuildingBlock: XIVTED_clean_linker_0, # of connection points: 2
#     Edge 13, Type (0, 1), BuildingBlock: XIVTED_clean_linker_0, # of connection points: 2
#     Edge 14, Type (0, 1), BuildingBlock: XIVTED_clean_linker_0, # of connection points: 2
#     Edge 15, Type (0, 1), BuildingBlock: XIVTED_clean_linker_0, # of connection points: 2
#     Edge 16, Type (0, 1), BuildingBlock: XIVTED_clean_linker_0, # of connection points: 2
#     Edge 17, Type (0, 1), BuildingBlock: XIVTED_clean_linker_0, # of connection points: 2
#     Edge 18, Type (0, 1), BuildingBlock: XIVTED_clean_linker_0, # of connection points: 2
#     Edge 19, Type (0, 1), BuildingBlock: XIVTED_clean_linker_0, # of connection points: 2
#     Edge 20, Type (0, 1), BuildingBlock: XIVTED_clean_linker_0, # of connection points: 2
#     Edge 21, Type (0, 1), BuildingBlock: XIVTED_clean_linker_0, # of connection points: 2
#     Edge 22, Type (0, 1), BuildingBlock: XIVTED_clean_linker_0, # of connection points: 2
#     Edge 23, Type (0, 1), BuildingBlock: XIVTED_clean_linker_0, # of connection points: 2
#     Edge 24, Type (0, 1), BuildingBlock: XIVTED_clean_linker_0, # of connection points: 2
#     Edge 25, Type (0, 1), BuildingBlock: XIVTED_clean_linker_0, # of connection points: 2
#     Edge 26, Type (0, 1), BuildingBlock: XIVTED_clean_linker_0, # of connection points: 2
#     Edge 27, Type (0, 1), BuildingBlock: XIVTED_clean_linker_0, # of connection points: 2
#     Edge 28, Type (0, 1), BuildingBlock: XIVTED_clean_linker_0, # of connection points: 2
#     Edge 29, Type (0, 1), BuildingBlock: XIVTED_clean_linker_0, # of connection points: 2
#     Edge 30, Type (0, 1), BuildingBlock: XIVTED_clean_linker_0, # of connection points: 2
#     Edge 31, Type (0, 1), BuildingBlock: XIVTED_clean_linker_0, # of connection points: 2
#     Edge 32, Type (0, 1), BuildingBlock: XIVTED_clean_linker_0, # of connection points: 2
#     Edge 33, Type (0, 1), BuildingBlock: XIVTED_clean_linker_0, # of connection points: 2
#     Edge 34, Type (0, 1), BuildingBlock: XIVTED_clean_linker_0, # of connection points: 2
#     Edge 35, Type (0, 1), BuildingBlock: XIVTED_clean_linker_0, # of connection points: 2
# Relax obj value: 0.194
# Max RMSD: 0.236
# Mean RMSD: 0.108
data_MOF--net-zzz--node1-VOLQOD_clean_sbu_1--node2-PAMTOO_clean_linker_0--edge1-XIVTED_clean_linker_0
_symmetry_space_group_name_H-M    P1
_symmetry_Int_Tables_number       1
_symmetry_cell_setting            triclinic
loop_
_symmetry_equiv_pos_as_xyz
'x, y, z'
_cell_length_a     51.087971
_cell_length_b     50.854775
_cell_length_c     17.576152
_cell_angle_alpha  90.055671
_cell_angle_beta   89.889139
_cell_angle_gamma 91.088998
loop_
_atom_site_label
_atom_site_type_symbol
_atom_site_fract_x
_atom_site_fract_y
_atom_site_fract_z
_atom_type_partial_charge
H0 H 0.84577 0.50319 0.16816 0.0
H1 H 0.77301 0.49532 0.04645 0.0
H2 H 0.77884 0.54645 0.24135 0.0
H3 H 0.7206 0.52601 0.21591 0.0
C4 C 0.72687 0.51541 0.16386 0.0
O5 O 0.74797 0.52872 0.13185 0.0
H6 H 0.73228 0.49518 0.18157 0.0
C7 C 0.82533 0.50807 0.1613 0.0
C8 C 0.81421 0.52615 0.21129 0.0
C9 C 0.81069 0.49645 0.10244 0.0
C10 C 0.78452 0.50364 0.09258 0.0
C11 C 0.77303 0.52157 0.1428 0.0
C12 C 0.78778 0.53263 0.20273 0.0
H13 H 1.0037 0.83091 0.21599 0.0
H14 H 0.01082 0.77214 0.04162 0.0
H15 H 0.99229 0.74931 0.27216 0.0
H16 H 0.02607 0.70997 0.19144 0.0
C17 C 0.02198 0.71646 0.13229 0.0
O18 O 1.00038 0.73231 0.13233 0.0
H19 H 0.03958 0.72753 0.11124 0.0
C20 C 1.00306 0.81042 0.19849 0.0
C21 C 0.99747 0.79102 0.25259 0.0
C22 C 0.00779 0.80398 0.12251 0.0
C23 C 0.00736 0.77747 0.10045 0.0
C24 C 1.0017 0.75774 0.15444 0.0
C25 C 0.9967 0.76451 0.23071 0.0
H26 H 0.67631 0.04009 0.14004 0.0
H27 H 0.74796 0.03928 0.01138 0.0
H28 H 0.74437 0.00381 0.23318 0.0
H29 H 0.8029 0.02251 0.19024 0.0
C30 C 0.79553 0.02913 0.13412 0.0
O31 O 0.77414 0.01369 0.11394 0.0
H32 H 0.79011 0.05017 0.14018 0.0
C33 C 0.69702 0.03597 0.13628 0.0
C34 C 0.70881 0.0222 0.19575 0.0
C35 C 0.71071 0.04224 0.06933 0.0
C36 C 0.73703 0.03504 0.06296 0.0
C37 C 0.7492 0.02154 0.12241 0.0
C38 C 0.73504 0.01487 0.18845 0.0
H39 H 0.50451 0.67033 0.16825 0.0
H40 H 0.4941 0.74276 0.04659 0.0
H41 H 0.54933 0.73929 0.23059 0.0
H42 H 0.5294 0.7973 0.20701 0.0
C43 C 0.51757 0.79063 0.15736 0.0
O44 O 0.52934 0.76923 0.12441 0.0
H45 H 0.4976 0.78535 0.17875 0.0
C46 C 0.50883 0.69113 0.16087 0.0
C47 C 0.52812 0.70308 0.20641 0.0
C48 C 0.49626 0.7051 0.10325 0.0
C49 C 0.50299 0.73174 0.09218 0.0
C50 C 0.52185 0.74411 0.13873 0.0
C51 C 0.53428 0.72984 0.19624 0.0
H52 H 0.18161 0.53916 0.21578 0.0
H53 H 0.2552 0.54014 0.33366 0.0
H54 H 0.24847 0.50283 0.11458 0.0
H55 H 0.29098 0.47622 0.21189 0.0
C56 C 0.28736 0.49029 0.25904 0.0
O57 O 0.28013 0.5141 0.22857 0.0
H58 H 0.27141 0.48155 0.29488 0.0
C59 C 0.20241 0.53527 0.21642 0.0
C60 C 0.2133 0.5211 0.15611 0.0
C61 C 0.21713 0.54234 0.28065 0.0
C62 C 0.24356 0.53536 0.28389 0.0
C63 C 0.25485 0.52132 0.22379 0.0
C64 C 0.23973 0.5141 0.16004 0.0
H65 H 0.04814 0.17597 0.12704 0.0
H66 H 0.02627 0.24058 0.27024 0.0
H67 H 0.05733 0.25514 0.04577 0.0
H68 H 0.06842 0.30415 0.14536 0.0
C69 C 0.061 0.29266 0.19488 0.0
O70 O 0.04007 0.27703 0.17161 0.0
H71 H 0.07737 0.28036 0.21559 0.0
C72 C 0.04722 0.19697 0.1375 0.0
C73 C 0.05491 0.21434 0.07976 0.0
C74 C 0.0367 0.20598 0.20609 0.0
C75 C 0.03426 0.23316 0.21745 0.0
C76 C 0.04214 0.25087 0.16009 0.0
C77 C 0.05194 0.24144 0.09056 0.0
H78 H 0.34177 1.00287 0.16687 0.0
H79 H 0.26954 0.98926 0.28828 0.0
H80 H 0.27284 0.04451 0.10302 0.0
H81 H 0.23054 0.06075 0.22368 0.0
C82 C 0.23557 0.04326 0.25817 0.0
O83 O 0.243 0.02328 0.20987 0.0
H84 H 0.25192 0.04934 0.29671 0.0
C85 C 0.32113 0.00667 0.175 0.0
C86 C 0.30913 0.02521 0.12854 0.0
C87 C 0.3071 0.99321 0.23196 0.0
C88 C 0.28063 0.999 0.24352 0.0
C89 C 0.26836 0.01756 0.19731 0.0
C90 C 0.28247 0.03034 0.13888 0.0
H91 H 0.47784 0.33314 0.19326 0.0
H92 H 0.49388 0.26082 0.30892 0.0
H93 H 0.46305 0.25929 0.08087 0.0
H94 H 0.44436 0.20979 0.1687 0.0
C95 C 0.4555 0.2161 0.22007 0.0
O96 O 0.47741 0.23041 0.19751 0.0
H97 H 0.44214 0.2283 0.25512 0.0
C98 C 0.47721 0.3118 0.19459 0.0
C99 C 0.46875 0.29796 0.13014 0.0
C100 C 0.48646 0.29875 0.25895 0.0
C101 C 0.48686 0.27121 0.25941 0.0
C102 C 0.47785 0.25699 0.19577 0.0
C103 C 0.46932 0.27035 0.13051 0.0
O104 O 0.07196 0.00647 0.62977 0.0
Zn105 Zn 0.04256 0.00911 0.70739 0.0
O106 O 0.00769 0.00663 0.65764 0.0
Zn107 Zn 0.98816 0.03863 0.67323 0.0
Zn108 Zn 0.01228 1.00041 0.54924 0.0
Zn109 Zn 0.98635 0.97811 0.69953 0.0
O110 O 0.95498 0.03324 0.73457 0.0
O111 O 0.95277 0.98994 0.74763 0.0
O112 O 0.04781 0.04526 0.75632 0.0
O113 O 0.01074 0.06495 0.72674 0.0
O114 O 0.97995 0.05585 0.57451 0.0
O115 O 0.99585 0.02903 0.48692 0.0
O116 O 0.99992 0.96386 0.52057 0.0
O117 O 0.0465 0.9798 0.786 0.0
O118 O 0.9795 0.94898 0.62406 0.0
O119 O 0.0065 0.96158 0.78167 0.0
C120 C 0.07173 0.00441 0.5575 0.0
C121 C 0.94335 0.01258 0.75927 0.0
C122 C 0.98455 0.05027 0.50531 0.0
C123 C 0.03347 0.06555 0.75608 0.0
C124 C 0.98727 0.9458 0.55592 0.0
C125 C 0.02943 0.96301 0.80927 0.0
O126 O 0.05029 1.00228 0.52117 0.0
O127 O 0.49982 0.05945 0.60931 0.0
Zn128 Zn 0.50466 0.03276 0.6937 0.0
O129 O 0.5049 0.99672 0.65034 0.0
Zn130 Zn 0.476 0.97602 0.69141 0.0
Zn131 Zn 0.5018 0.998 0.53997 0.0
Zn132 Zn 0.5371 0.97879 0.67565 0.0
O133 O 0.488 0.94677 0.75922 0.0
O134 O 0.53117 0.94749 0.74537 0.0
O135 O 0.47348 0.03756 0.76533 0.0
O136 O 0.4525 0.99918 0.75057 0.0
O137 O 0.45354 0.96061 0.60942 0.0
O138 O 0.47147 0.97544 0.50235 0.0
O139 O 0.53554 0.98745 0.49078 0.0
O140 O 0.53948 0.04174 0.74559 0.0
O141 O 0.55828 0.96907 0.58327 0.0
O142 O 0.56062 0.00437 0.72796 0.0
C143 C 0.49595 0.05739 0.53788 0.0
C144 C 0.51037 0.93753 0.77447 0.0
C145 C 0.4538 0.96212 0.53725 0.0
C146 C 0.45364 0.02245 0.77708 0.0
C147 C 0.55594 0.9759 0.514 0.0
C148 C 0.56003 0.028 0.75147 0.0
O149 O 0.49559 0.03504 0.50511 0.0
O150 O 0.45189 0.50126 0.63925 0.0
Zn151 Zn 0.47918 0.50216 0.72314 0.0
O152 O 0.51482 0.50462 0.67812 0.0
Zn153 Zn 0.53579 0.47492 0.70962 0.0
Zn154 Zn 0.51273 0.50535 0.56739 0.0
Zn155 Zn 0.53279 0.53642 0.71168 0.0
O156 O 0.56735 0.48585 0.77267 0.0
O157 O 0.56304 0.52907 0.78181 0.0
O158 O 0.47432 0.46826 0.78479 0.0
O159 O 0.51352 0.45057 0.77162 0.0
O160 O 0.54606 0.45222 0.62119 0.0
O161 O 0.5272 0.47216 0.52407 0.0
O162 O 0.53135 0.53718 0.52254 0.0
O163 O 0.47112 0.53499 0.78571 0.0
O164 O 0.54598 0.55839 0.62464 0.0
O165 O 0.50726 0.55902 0.76419 0.0
C166 C 0.45318 0.50363 0.56711 0.0
C167 C 0.575 0.50811 0.79865 0.0
C168 C 0.53987 0.45299 0.55116 0.0
C169 C 0.49011 0.44951 0.79636 0.0
C170 C 0.54352 0.55662 0.55284 0.0
C171 C 0.48423 0.55652 0.79103 0.0
O172 O 0.47514 0.50606 0.53317 0.0
O173 O 0.9795 0.53451 0.57688 0.0
Zn174 Zn 0.01081 0.53025 0.64837 0.0
O175 O 0.01118 0.49443 0.69321 0.0
Zn176 Zn 0.00618 0.49607 0.80316 0.0
Zn177 Zn 0.98376 0.47248 0.64784 0.0
Zn178 Zn 0.04435 0.47764 0.67404 0.0
O179 O 0.03855 0.48493 0.85925 0.0
O180 O 0.06415 0.46914 0.76898 0.0
O181 O 0.00686 0.55736 0.73219 0.0
O182 O 1.00097 0.53341 0.83659 0.0
O183 O 0.97446 0.47465 0.83562 0.0
O184 O 0.95943 0.45772 0.7273 0.0
O185 O 0.99809 0.44291 0.58334 0.0
O186 O 0.04563 0.53923 0.59609 0.0
O187 O 0.04065 0.44552 0.60792 0.0
O188 O 0.06793 0.50322 0.62206 0.0
C189 C 0.96091 0.51837 0.56045 0.0
C190 C 0.05993 0.47462 0.83843 0.0
C191 C 0.95774 0.46069 0.79901 0.0
C192 C 1.00262 0.55565 0.80354 0.0
C193 C 0.02123 0.43443 0.57478 0.0
C194 C 0.06679 0.5263 0.59473 0.0
O195 O 0.96082 0.49474 0.58413 0.0
H196 H 0.23253 0.03225 0.41149 0.0
H197 H 0.07814 1.00185 0.40311 0.0
H198 H 0.18556 0.03415 0.20828 0.0
H199 H 0.12204 0.01136 0.61141 0.0
H200 H 0.11838 0.00856 0.33073 0.0
H201 H 0.19337 0.01983 0.48521 0.0
C202 C 0.21392 0.02998 0.38252 0.0
C203 C 0.21206 0.03454 0.30402 0.0
C204 C 0.11927 0.00907 0.39226 0.0
C205 C 0.16736 0.02016 0.38749 0.0
C206 C 0.09626 0.00516 0.43384 0.0
C207 C 0.09658 0.00621 0.51373 0.0
C208 C 0.14294 0.01406 0.43053 0.0
C209 C 0.12078 0.01048 0.54999 0.0
C210 C 0.19162 0.0229 0.42449 0.0
C211 C 0.18766 0.03104 0.26888 0.0
N212 N 0.14297 0.01438 0.50811 0.0
N213 N 0.16624 0.02415 0.31087 0.0
H214 H 0.46266 0.16546 0.17094 0.0
H215 H 0.4941 0.10882 0.58604 0.0
H216 H 0.46715 0.21379 0.37209 0.0
H217 H 0.48791 0.0607 0.38404 0.0
H218 H 0.48611 0.14774 0.50845 0.0
H219 H 0.47406 0.12711 0.2475 0.0
C220 C 0.46607 0.16791 0.23136 0.0
C221 C 0.46351 0.19259 0.26579 0.0
C222 C 0.48656 0.12866 0.48113 0.0
C223 C 0.4767 0.14899 0.35375 0.0
C224 C 0.49112 0.1064 0.52543 0.0
C225 C 0.4916 0.08135 0.49172 0.0
C226 C 0.48245 0.12592 0.40245 0.0
C227 C 0.48765 0.07953 0.41276 0.0
C228 C 0.47257 0.14607 0.27508 0.0
C229 C 0.46857 0.19492 0.34391 0.0
N230 N 0.4832 0.10146 0.37099 0.0
N231 N 0.47476 0.17336 0.38544 0.0
H232 H 0.29148 0.49754 0.41354 0.0
H233 H 0.44841 0.50498 0.41182 0.0
H234 H 0.33838 0.49218 0.21037 0.0
H235 H 0.40216 0.5013 0.6176 0.0
H236 H 0.40821 0.50334 0.3372 0.0
H237 H 0.33163 0.50217 0.48925 0.0
C238 C 0.3103 0.4973 0.38508 0.0
C239 C 0.31178 0.49395 0.306 0.0
C240 C 0.40683 0.50293 0.39867 0.0
C241 C 0.35768 0.49953 0.39165 0.0
C242 C 0.42981 0.50389 0.44147 0.0
C243 C 0.42876 0.5032 0.52134 0.0
C244 C 0.38247 0.50134 0.43573 0.0
C245 C 0.404 0.5018 0.55625 0.0
C246 C 0.33318 0.49994 0.42814 0.0
C247 C 0.33652 0.49431 0.27142 0.0
N248 N 0.38187 0.5009 0.51326 0.0
N249 N 0.35851 0.49691 0.31447 0.0
H250 H 0.01613 0.32187 0.2037 0.0
H251 H 0.06603 0.40623 0.56047 0.0
H252 H 0.08813 0.30739 0.32271 0.0
H253 H 0.98744 0.41101 0.47232 0.0
H254 H 0.07448 0.37041 0.47213 0.0
H255 H 0.00513 0.35496 0.29974 0.0
C256 C 0.02941 0.32541 0.25074 0.0
C257 C 0.0528 0.31153 0.2563 0.0
C258 C 0.05532 0.37917 0.47229 0.0
C259 C 0.04075 0.34973 0.36502 0.0
C260 C 0.05049 0.39971 0.52269 0.0
C261 C 0.02599 0.41176 0.52377 0.0
C262 C 0.03564 0.37068 0.4218 0.0
C263 C 0.0066 0.40231 0.47358 0.0
C264 C 0.02318 0.34432 0.30534 0.0
C265 C 0.06969 0.31735 0.31709 0.0
N266 N 0.0119 0.38245 0.42425 0.0
N267 N 0.06337 0.33602 0.36893 0.0
H268 H 0.82448 0.98578 0.10287 0.0
H269 H 0.91564 0.05704 0.79154 0.0
H270 H 0.81403 0.06587 0.03106 0.0
H271 H 0.91699 0.97367 0.83744 0.0
H272 H 0.87868 0.06093 0.8792 0.0
H273 H 0.85898 0.98115 0.00686 0.0
C274 C 0.82956 1.00237 0.06677 0.0
C275 C 0.8167 0.02629 0.07517 0.0
C276 C 0.88696 0.04176 0.86966 0.0
C277 C 0.85596 0.02125 0.96525 0.0
C278 C 0.90807 0.03951 0.81953 0.0
C279 C 0.91955 0.01499 0.80711 0.0
C280 C 0.87735 0.01939 0.90821 0.0
C281 C 0.90883 0.99298 0.8451 0.0
C282 C 0.84914 0.99974 0.01191 0.0
C283 C 0.82371 0.04718 0.02674 0.0
N284 N 0.8885 0.99574 0.89423 0.0
N285 N 0.84299 0.04423 0.97409 0.0
H286 H 0.47491 0.80663 0.07565 0.0
H287 H 0.55447 0.9161 0.83664 0.0
H288 H 0.55722 0.82317 0.10671 0.0
H289 H 0.47018 0.90799 0.83561 0.0
H290 H 0.55646 0.88007 0.92851 0.0
H291 H 0.4733 0.84177 0.98056 0.0
C292 C 0.4926 0.81783 0.06261 0.0
C293 C 0.51613 0.81244 0.0998 0.0
C294 C 0.53754 0.88618 0.90807 0.0
C295 C 0.51463 0.85229 0.9904 0.0
C296 C 0.53639 0.90671 0.85541 0.0
C297 C 0.51211 0.91518 0.82832 0.0
C298 C 0.51427 0.87389 0.93355 0.0
C299 C 0.48934 0.90224 0.85496 0.0
C300 C 0.49172 0.83783 0.00833 0.0
C301 C 0.53864 0.82709 0.07989 0.0
N302 N 0.49099 0.88228 0.90595 0.0
N303 N 0.53735 0.84639 0.02659 0.0
H304 H 0.71231 0.47437 0.07017 0.0
H305 H 0.59444 0.55126 0.8752 0.0
H306 H 0.69193 0.55372 0.12824 0.0
H307 H 0.60801 0.46856 0.84024 0.0
H308 H 0.63174 0.55328 0.96179 0.0
H309 H 0.67593 0.47261 0.97929 0.0
C310 C 0.70004 0.49136 0.06385 0.0
C311 C 0.7047 0.51404 0.10757 0.0
C312 C 0.62658 0.53469 0.93514 0.0
C313 C 0.66337 0.51239 0.00322 0.0
C314 C 0.60528 0.53351 0.88548 0.0
C315 C 0.59797 0.50967 0.85027 0.0
C316 C 0.64085 0.51191 0.94967 0.0
C317 C 0.61283 0.48736 0.8661 0.0
C318 C 0.67933 0.49039 0.01203 0.0
C319 C 0.68865 0.53575 0.09628 0.0
N320 N 0.63354 0.48903 0.91454 0.0
N321 N 0.66865 0.53438 0.04538 0.0
H322 H 0.02577 0.71399 0.97705 0.0
H323 H 0.99195 0.55972 0.95589 0.0
H324 H 0.00574 0.66653 0.17228 0.0
H325 H 0.01103 0.60692 0.75859 0.0
H326 H 0.99423 0.59919 0.03453 0.0
H327 H 0.01808 0.67563 0.89468 0.0
C328 C 0.0198 0.6954 0.00234 0.0
C329 C 0.01691 0.69314 0.08139 0.0
C330 C 0.99776 0.60098 0.97397 0.0
C331 C 0.00779 0.64934 0.98807 0.0
C332 C 0.99643 0.57841 0.92886 0.0
C333 C 1.00148 0.5799 0.85037 0.0
C334 C 1.00429 0.62532 0.94067 0.0
C335 C 0.00707 0.60476 0.8188 0.0
C336 C 0.01535 0.67357 0.9555 0.0
C337 C 0.00862 0.66888 0.11161 0.0
N338 N 0.0085 0.62644 0.86412 0.0
N339 N 0.00452 0.64787 0.06497 0.0
H340 H 0.98949 0.20389 0.28218 0.0
H341 H 0.00623 0.05203 0.36314 0.0
H342 H 0.06176 0.16237 0.25381 0.0
H343 H 0.96061 0.098 0.52001 0.0
H344 H 0.01646 0.09194 0.29159 0.0
H345 H 0.97089 0.16523 0.34947 0.0
C346 C 1.00158 0.18693 0.29149 0.0
C347 C 0.02708 0.18615 0.26165 0.0
C348 C 1.0038 0.09313 0.34097 0.0
C349 C 0.00567 0.14199 0.33439 0.0
C350 C 0.99765 0.07031 0.38134 0.0
C351 C 0.98303 0.07173 0.44881 0.0
C352 C 0.99499 0.11744 0.36751 0.0
C353 C 0.97235 0.0961 0.46904 0.0
C354 C 0.99086 0.16487 0.32876 0.0
C355 C 0.04185 0.16361 0.27462 0.0
N356 N 0.97887 0.11819 0.42912 0.0
N357 N 0.03079 0.14229 0.30878 0.0
H358 H 0.30528 0.98984 0.38738 0.0
H359 H 0.40704 0.94384 0.59504 0.0
H360 H 0.34193 0.95562 0.19038 0.0
H361 H 0.44747 0.95823 0.38265 0.0
H362 H 0.36589 0.93921 0.5254 0.0
H363 H 0.33816 0.96971 0.46783 0.0
C364 C 0.31964 0.97724 0.36136 0.0
C365 C 0.32132 0.97494 0.28204 0.0
C366 C 0.38384 0.94302 0.4941 0.0
C367 C 0.35916 0.95205 0.37339 0.0
C368 C 0.40742 0.94545 0.5336 0.0
C369 C 0.43066 0.95227 0.49474 0.0
C370 C 0.3836 0.94737 0.41535 0.0
C371 C 0.42995 0.95364 0.4151 0.0
C372 C 0.33847 0.96569 0.40736 0.0
C373 C 0.34045 0.9585 0.25128 0.0
N374 N 0.40669 0.95163 0.3781 0.0
N375 N 0.35913 0.94835 0.29678 0.0
H376 H 0.53535 0.29818 0.32375 0.0
H377 H 0.52625 0.44633 0.40225 0.0
H378 H 0.46124 0.33724 0.33369 0.0
H379 H 0.5571 0.40419 0.59475 0.0
H380 H 0.51642 0.4044 0.34034 0.0
H381 H 0.5552 0.33459 0.39863 0.0
C382 C 0.52312 0.3139 0.344 0.0
C383 C 0.49671 0.31497 0.32231 0.0
C384 C 0.52594 0.40449 0.3954 0.0
C385 C 0.51926 0.35642 0.40391 0.0
C386 C 0.53171 0.42836 0.43069 0.0
C387 C 0.54195 0.42882 0.5047 0.0
C388 C 0.5308 0.38096 0.43366 0.0
C389 C 0.54885 0.40474 0.5381 0.0
C390 C 0.53448 0.33465 0.38573 0.0
C391 C 0.48171 0.33588 0.3488 0.0
N392 N 0.54271 0.38159 0.50278 0.0
N393 N 0.49334 0.35611 0.38663 0.0
H394 H 0.22052 0.52662 0.42885 0.0
H395 H 0.07337 0.5662 0.48928 0.0
H396 H 0.18084 0.58143 0.28406 0.0
H397 H 0.11622 0.51356 0.63337 0.0
H398 H 0.11499 0.58074 0.43111 0.0
H399 H 0.18647 0.53196 0.52443 0.0
C400 C 0.20515 0.54053 0.41825 0.0
C401 C 0.20304 0.55295 0.34748 0.0
C402 C 0.11525 0.56633 0.47639 0.0
C403 C 0.16334 0.55829 0.45513 0.0
C404 C 0.09151 0.558 0.50931 0.0
C405 C 0.09131 0.53809 0.56444 0.0
C406 C 0.13877 0.55469 0.4993 0.0
C407 C 0.11537 0.52837 0.58926 0.0
C408 C 0.18544 0.54334 0.47251 0.0
C409 C 0.18269 0.57084 0.33714 0.0
N410 N 0.13802 0.53652 0.55594 0.0
N411 N 0.16316 0.57238 0.38935 0.0
H412 H 0.9759 0.84469 0.09847 0.0
H413 H 0.06402 0.92277 0.80066 0.0
H414 H 0.04967 0.8132 0.02632 0.0
H415 H 0.0062 0.95785 0.94546 0.0
H416 H 0.06078 0.88222 0.87715 0.0
H417 H 0.98606 0.88511 0.03004 0.0
C418 C 0.99415 0.84626 0.06709 0.0
C419 C 0.01205 0.82576 0.06816 0.0
C420 C 0.04941 0.89909 0.89336 0.0
C421 C 0.02415 0.87223 0.99058 0.0
C422 C 0.05156 0.92229 0.8506 0.0
C423 C 0.0355 0.94357 0.86768 0.0
C424 C 0.03081 0.89739 0.95222 0.0
C425 C 0.01904 0.94186 0.93115 0.0
C426 C 1.00011 0.86943 0.02878 0.0
C427 C 0.03536 0.82863 0.02631 0.0
N428 N 0.01684 0.91905 0.97044 0.0
N429 N 0.04086 0.85162 0.98916 0.0
H430 H 0.71338 0.02633 0.92082 0.0
H431 H 0.5667 0.06804 0.85653 0.0
H432 H 0.67328 0.08038 0.06796 0.0
H433 H 0.60933 0.01408 0.71538 0.0
H434 H 0.60819 0.08157 0.91724 0.0
H435 H 0.67945 0.03191 0.82564 0.0
C436 C 0.6979 0.04006 0.93224 0.0
C437 C 0.69574 0.05227 0.00344 0.0
C438 C 0.60844 0.06709 0.87204 0.0
C439 C 0.65615 0.05791 0.89587 0.0
C440 C 0.58479 0.05937 0.83761 0.0
C441 C 0.58455 0.0394 0.78257 0.0
C442 C 0.63182 0.05481 0.85059 0.0
C443 C 0.60853 0.029 0.75929 0.0
C444 C 0.67827 0.04301 0.87811 0.0
C445 C 0.67519 0.06989 0.01467 0.0
N446 N 0.63107 0.03659 0.79395 0.0
N447 N 0.65576 0.07163 0.96237 0.0
H448 H 0.45803 0.66796 0.13456 0.0
H449 H 0.48594 0.60541 0.73273 0.0
H450 H 0.49706 0.70743 0.9479 0.0
H451 H 0.45671 0.56129 0.92517 0.0
H452 H 0.47576 0.64619 0.79822 0.0
H453 H 0.44323 0.63334 0.04711 0.0
C454 C 0.46281 0.66975 0.07468 0.0
C455 C 0.47952 0.69015 0.04881 0.0
C456 C 0.47108 0.62767 0.82587 0.0
C457 C 0.46276 0.65065 0.94886 0.0
C458 C 0.47691 0.60439 0.78854 0.0
C459 C 0.47264 0.58011 0.82456 0.0
C460 C 0.46152 0.62671 0.9007 0.0
C461 C 0.46051 0.57972 0.89605 0.0
C462 C 0.4544 0.64995 0.0249 0.0
C463 C 0.48453 0.69191 0.97057 0.0
N464 N 0.45593 0.60279 0.9328 0.0
N465 N 0.47671 0.67206 0.92366 0.0
H466 H 0.80987 0.49667 0.94658 0.0
H467 H 0.91039 0.44766 0.73513 0.0
H468 H 0.8426 0.45582 0.138 0.0
H469 H 0.9495 0.45453 0.95197 0.0
H470 H 0.86828 0.44516 0.80142 0.0
H471 H 0.84206 0.47619 0.86369 0.0
C472 C 0.82317 0.48259 0.97064 0.0
C473 C 0.82403 0.47841 0.04939 0.0
C474 C 0.88612 0.44682 0.83437 0.0
C475 C 0.86102 0.45509 0.95541 0.0
C476 C 0.91021 0.44797 0.79675 0.0
C477 C 0.93347 0.45199 0.83816 0.0
C478 C 0.88542 0.44957 0.91376 0.0
C479 C 0.93202 0.45202 0.9178 0.0
C480 C 0.84159 0.47084 0.92327 0.0
C481 C 0.84179 0.46009 0.07771 0.0
N482 N 0.90835 0.4512 0.953 0.0
N483 N 0.86011 0.44972 0.03114 0.0
H484 H 0.03135 0.21926 0.94197 0.0
H485 H 0.07766 0.07532 0.84256 0.0
H486 H 0.0953 0.18133 0.05411 0.0
H487 H 0.01202 0.11384 0.73932 0.0
H488 H 0.09132 0.11749 0.89916 0.0
H489 H 0.03245 0.18579 0.84213 0.0
C490 C 0.04642 0.20457 0.94359 0.0
C491 C 0.06298 0.20271 0.0066 0.0
C492 C 0.07411 0.11671 0.8633 0.0
C493 C 0.06363 0.16373 0.89514 0.0
C494 C 0.06623 0.09262 0.83138 0.0
C495 C 0.04331 0.09087 0.78768 0.0
C496 C 0.05896 0.13916 0.85123 0.0
C497 C 0.02949 0.11403 0.7741 0.0
C498 C 0.0468 0.18517 0.88733 0.0
C499 C 0.08202 0.18315 0.00653 0.0
N500 N 0.03737 0.13708 0.80633 0.0
N501 N 0.08137 0.16395 0.95281 0.0
H502 H 0.30128 0.02275 0.97539 0.0
H503 H 0.45174 0.0588 0.8936 0.0
H504 H 0.35394 0.05448 0.14474 0.0
H505 H 0.40303 0.00759 0.75572 0.0
H506 H 0.41304 0.06948 0.97067 0.0
H507 H 0.33496 0.03068 0.87807 0.0
C508 C 0.31958 0.03231 -0.00856 0.0
C509 C 0.32506 0.03774 0.06789 0.0
C510 C 0.41085 0.05623 0.92272 0.0
C511 C 0.3638 0.04618 0.95804 0.0
C512 C 0.43288 0.05016 0.87892 0.0
C513 C 0.43063 0.03186 0.81943 0.0
C514 C 0.38649 0.04422 0.90581 0.0
C515 C 0.40573 0.02133 0.80228 0.0
C516 C 0.33891 0.03655 0.93622 0.0
C517 C 0.34917 0.04985 0.08617 0.0
N518 N 0.38472 0.02751 0.84551 0.0
N519 N 0.36788 0.05325 0.03184 0.0
H520 H 0.49043 0.29486 0.9886 0.0
H521 H 0.44661 0.44095 0.88762 0.0
H522 H 0.4334 0.33728 0.11861 0.0
H523 H 0.51311 0.40179 0.79062 0.0
H524 H 0.43427 0.39985 0.95337 0.0
H525 H 0.49028 0.32979 0.89284 0.0
C526 C 0.47715 0.31105 -0.00454 0.0
C527 C 0.46213 0.31341 0.06174 0.0
C528 C 0.45142 0.4003 0.91705 0.0
C529 C 0.46246 0.35382 0.95424 0.0
C530 C 0.4585 0.42374 0.87981 0.0
C531 C 0.48121 0.42499 0.83481 0.0
C532 C 0.46701 0.37796 0.90834 0.0
C533 C 0.49575 0.40199 0.826 0.0
C534 C 0.47732 0.33119 0.94145 0.0
C535 C 0.44545 0.33496 0.06839 0.0
N536 N 0.48849 0.37956 0.86264 0.0
N537 N 0.44642 0.35461 0.01608 0.0
H538 H 0.20802 0.4716 0.09276 0.0
H539 H 0.06375 0.49946 0.97566 0.0
H540 H 0.17747 0.55001 0.08054 0.0
H541 H 0.10747 0.45042 0.82208 0.0
H542 H 0.10388 0.50864 0.04653 0.0
H543 H 0.17077 0.45566 0.01492 0.0
C544 C 0.19392 0.48553 0.07215 0.0
C545 C 0.19559 0.51211 0.09402 0.0
C546 C 0.1045 0.49552 -0.00203 0.0
C547 C 0.15288 0.4939 0.00886 0.0
C548 C 0.08158 0.49001 0.95791 0.0
C549 C 0.08226 0.47439 0.89211 0.0
C550 C 0.12819 0.48499 0.97317 0.0
C551 C 0.10612 0.46277 0.87208 0.0
C552 C 0.17263 0.47638 0.02867 0.0
C553 C 0.17665 0.52928 0.06632 0.0
N554 N 0.12831 0.46844 0.91226 0.0
N555 N 0.1558 0.5198 0.02673 0.0
H556 H 0.03413 0.80167 0.35877 0.0
H557 H 0.94887 0.90755 0.57513 0.0
H558 H 0.95118 0.80422 0.31765 0.0
H559 H 0.0228 0.92327 0.46343 0.0
H560 H 0.94943 0.86215 0.52473 0.0
H561 H 0.02993 0.83721 0.45174 0.0
C562 C 0.01479 0.80864 0.37285 0.0
C563 C 0.99296 0.80011 0.3309 0.0
C564 C 0.96547 0.87566 0.51193 0.0
C565 C 0.98815 0.8411 0.43462 0.0
C566 C 0.9651 0.90147 0.5399 0.0
C567 C 0.9856 0.91924 0.52213 0.0
C568 C 0.98699 0.86753 0.4688 0.0
C569 C 0.00636 0.91038 0.47722 0.0
C570 C 0.01248 0.8292 0.42469 0.0
C571 C 0.96839 0.81023 0.34956 0.0
N572 N 0.00661 0.88512 0.45266 0.0
N573 N 0.96666 0.83073 0.39908 0.0
H574 H 0.67643 0.05265 0.27903 0.0
H575 H 0.60291 0.951 0.53649 0.0
H576 H 0.70237 0.97274 0.2576 0.0
H577 H 0.56278 1.00143 0.37907 0.0
H578 H 0.64406 0.96007 0.467 0.0
H579 H 0.63996 0.03714 0.35822 0.0
C580 C 0.67482 0.03191 0.29273 0.0
C581 C 0.69213 0.01388 0.2608 0.0
C582 C 0.62604 0.96867 0.4475 0.0
C583 C 0.65059 0.99615 0.35118 0.0
C584 C 0.60258 0.96348 0.48662 0.0
C585 C 0.57932 0.97564 0.46401 0.0
C586 C 0.62615 0.98663 0.38712 0.0
C587 C 0.58011 0.99166 0.39902 0.0
C588 C 0.65396 0.0231 0.33729 0.0
C589 C 0.68936 0.98723 0.28111 0.0
N590 N 0.60323 0.99713 0.36398 0.0
N591 N 0.66864 0.979 0.32462 0.0
H592 H 0.53242 0.70956 0.36067 0.0
H593 H 0.56086 0.60548 0.59917 0.0
H594 H 0.55417 0.65826 0.17682 0.0
H595 H 0.54489 0.55957 0.39713 0.0
H596 H 0.56663 0.6446 0.52003 0.0
H597 H 0.54485 0.67558 0.45165 0.0
C598 C 0.54076 0.6915 0.33977 0.0
C599 C 0.54205 0.68648 0.26153 0.0
C600 C 0.5619 0.62599 0.49302 0.0
C601 C 0.55622 0.64749 0.36443 0.0
C602 C 0.55888 0.60352 0.53807 0.0
C603 C 0.55181 0.57923 0.50488 0.0
C604 C 0.55781 0.62413 0.41423 0.0
C605 C 0.54986 0.57791 0.42539 0.0
C606 C 0.54788 0.67204 0.39162 0.0
C607 C 0.55263 0.66267 0.23694 0.0
N608 N 0.5526 0.60009 0.38293 0.0
N609 N 0.55879 0.64386 0.28813 0.0
H610 H 0.80761 0.51955 0.36395 0.0
H611 H 0.95775 0.55693 0.45028 0.0
H612 H 0.85936 0.55509 0.19807 0.0
H613 H 0.91114 0.49972 0.5743 0.0
H614 H 0.91882 0.56752 0.37432 0.0
H615 H 0.84204 0.52474 0.46021 0.0
C616 C 0.82588 0.52935 0.34867 0.0
C617 C 0.83081 0.53679 0.27329 0.0
C618 C 0.91716 0.5529 0.41891 0.0
C619 C 0.8704 0.54218 0.38183 0.0
C620 C 0.93931 0.54687 0.46206 0.0
C621 C 0.93776 0.52707 0.51749 0.0
C622 C 0.89332 0.53939 0.43263 0.0
C623 C 0.91336 0.51472 0.53096 0.0
C624 C 0.84563 0.53203 0.40318 0.0
C625 C 0.85495 0.54905 0.25583 0.0
N626 N 0.8922 0.521 0.48873 0.0
N627 N 0.87404 0.55102 0.30942 0.0
loop_
_geom_bond_atom_site_label_1
_geom_bond_atom_site_label_2
_geom_bond_distance
_geom_bond_site_symmetry_2
_ccdc_geom_bond_type
H0 C7 0.929 . S
H1 C10 0.930 . S
H2 C12 0.929 . S
H3 C4 0.969 . S
C4 H3 0.969 . S
C4 O5 1.550 1_556 S
C4 H6 0.973 . S
O5 C4 1.550 1_554 S
O5 C11 1.412 . S
H6 C4 0.973 . S
C7 H0 0.929 . S
C7 C8 1.400 . S
C7 C9 1.364 1_554 S
C8 C7 1.400 . S
C8 C12 1.377 . S
C9 C7 1.364 1_556 S
C9 C10 1.374 . S
C10 H1 0.930 . S
C10 C9 1.374 . S
C10 C11 1.383 1_556 S
C11 O5 1.412 . S
C11 C10 1.383 1_554 S
C11 C12 1.394 . S
C12 H2 0.929 . S
C12 C8 1.377 . S
C12 C11 1.394 . S
H13 C20 0.929 . S
H14 C23 0.931 . S
H15 C25 0.928 . S
H16 C17 0.969 . S
C17 H16 0.969 . S
C17 O18 1.550 1_455 S
C17 H19 0.973 1_454 S
O18 C17 1.550 1_655 S
O18 C24 1.410 1_655 S
H19 C17 0.973 1_656 S
C20 H13 0.929 . S
C20 C21 1.400 . S
C20 C22 1.365 . S
C21 C20 1.400 . S
C21 C25 1.377 1_455 S
C22 C20 1.365 . S
C22 C23 1.374 1_455 S
C23 H14 0.931 . S
C23 C22 1.374 1_655 S
C23 C24 1.383 1_655 S
C24 O18 1.410 1_455 S
C24 C23 1.383 1_455 S
C24 C25 1.394 1_455 S
C25 H15 0.928 . S
C25 C21 1.377 1_655 S
C25 C24 1.394 1_655 S
H26 C33 0.929 . S
H27 C36 0.931 1_556 S
H28 C38 0.928 1_565 S
H29 C30 0.970 . S
C30 H29 0.970 . S
C30 O31 1.550 1_545 S
C30 H32 0.973 1_544 S
O31 C30 1.550 1_565 S
O31 C37 1.406 1_565 S
H32 C30 0.973 1_566 S
C33 H26 0.929 . S
C33 C34 1.400 . S
C33 C35 1.364 . S
C34 C33 1.400 . S
C34 C38 1.376 . S
C35 C33 1.364 . S
C35 C36 1.374 1_545 S
C36 H27 0.931 1_554 S
C36 C35 1.374 1_565 S
C36 C37 1.383 1_565 S
C37 O31 1.406 1_545 S
C37 C36 1.383 1_545 S
C37 C38 1.394 . S
C38 H28 0.928 1_545 S
C38 C34 1.376 . S
C38 C37 1.394 . S
H39 C46 0.929 . S
H40 C49 0.930 . S
H41 C51 0.929 . S
H42 C43 0.969 . S
C43 H42 0.969 . S
C43 O44 1.550 1_556 S
C43 H45 0.973 . S
O44 C43 1.550 1_554 S
O44 C50 1.412 . S
H45 C43 0.973 . S
C46 H39 0.929 . S
C46 C47 1.400 . S
C46 C48 1.364 1_554 S
C47 C46 1.400 . S
C47 C51 1.377 . S
C48 C46 1.364 1_556 S
C48 C49 1.374 . S
C49 H40 0.930 . S
C49 C48 1.374 . S
C49 C50 1.383 1_556 S
C50 O44 1.412 . S
C50 C49 1.383 1_554 S
C50 C51 1.394 . S
C51 H41 0.929 . S
C51 C47 1.377 . S
C51 C50 1.394 . S
H52 C59 0.929 . S
H53 C62 0.930 . S
H54 C64 0.929 . S
H55 C56 0.969 . S
C56 H55 0.969 . S
C56 O57 1.550 . S
C56 H58 0.973 . S
O57 C56 1.550 . S
O57 C63 1.412 . S
H58 C56 0.973 . S
C59 H52 0.929 . S
C59 C60 1.400 . S
C59 C61 1.364 . S
C60 C59 1.400 . S
C60 C64 1.377 . S
C61 C59 1.364 . S
C61 C62 1.374 . S
C62 H53 0.930 . S
C62 C61 1.374 . S
C62 C63 1.383 . S
C63 O57 1.412 . S
C63 C62 1.383 . S
C63 C64 1.394 . S
C64 H54 0.929 . S
C64 C60 1.377 . S
C64 C63 1.394 . S
H65 C72 0.929 . S
H66 C75 0.930 . S
H67 C77 0.929 . S
H68 C69 0.969 . S
C69 H68 0.969 . S
C69 O70 1.550 . S
C69 H71 0.973 . S
O70 C69 1.550 . S
O70 C76 1.412 . S
H71 C69 0.973 . S
C72 H65 0.929 . S
C72 C73 1.400 . S
C72 C74 1.364 . S
C73 C72 1.400 . S
C73 C77 1.377 . S
C74 C72 1.364 . S
C74 C75 1.374 . S
C75 H66 0.930 . S
C75 C74 1.374 . S
C75 C76 1.383 . S
C76 O70 1.412 . S
C76 C75 1.383 . S
C76 C77 1.394 . S
C77 H67 0.929 . S
C77 C73 1.377 . S
C77 C76 1.394 . S
H78 C85 0.929 . S
H79 C88 0.930 . S
H80 C90 0.929 . S
H81 C82 0.969 . S
C82 H81 0.969 . S
C82 O83 1.550 . S
C82 H84 0.973 . S
O83 C82 1.550 . S
O83 C89 1.412 . S
H84 C82 0.973 . S
C85 H78 0.929 . S
C85 C86 1.400 . S
C85 C87 1.364 . S
C86 C85 1.400 . S
C86 C90 1.377 . S
C87 C85 1.364 . S
C87 C88 1.374 . S
C88 H79 0.930 . S
C88 C87 1.374 . S
C88 C89 1.383 . S
C89 O83 1.412 . S
C89 C88 1.383 . S
C89 C90 1.394 . S
C90 H80 0.929 . S
C90 C86 1.377 . S
C90 C89 1.394 . S
H91 C98 0.929 . S
H92 C101 0.930 . S
H93 C103 0.929 . S
H94 C95 0.969 . S
C95 H94 0.969 . S
C95 O96 1.550 . S
C95 H97 0.973 . S
O96 C95 1.550 . S
O96 C102 1.412 . S
H97 C95 0.973 . S
C98 H91 0.929 . S
C98 C99 1.400 . S
C98 C100 1.364 . S
C99 C98 1.400 . S
C99 C103 1.377 . S
C100 C98 1.364 . S
C100 C101 1.374 . S
C101 H92 0.930 . S
C101 C100 1.374 . S
C101 C102 1.383 . S
C102 O96 1.412 . S
C102 C101 1.383 . S
C102 C103 1.394 . S
C103 H93 0.929 . S
C103 C99 1.377 . S
C103 C102 1.394 . S
O104 Zn105 1.955 . S
O104 C120 1.225 1_545 S
Zn105 O104 1.955 . S
Zn105 O106 1.948 1_545 S
Zn105 O112 1.946 . S
Zn105 O117 1.891 1_545 S
O106 Zn105 1.948 1_565 S
O106 Zn107 1.901 1_465 S
O106 Zn108 1.952 . S
O106 Zn109 1.965 1_455 S
Zn107 O106 1.901 1_645 S
Zn107 O110 1.933 . S
Zn107 O113 1.941 1_655 S
Zn107 O114 1.965 . S
Zn108 O106 1.952 . S
Zn108 O115 1.938 1_565 S
Zn108 O116 1.906 . S
Zn108 O126 1.953 . S
Zn109 O106 1.965 1_655 S
Zn109 O111 1.932 . S
Zn109 O118 1.977 . S
Zn109 O119 1.910 1_655 S
O110 Zn107 1.933 . S
O110 C121 1.226 . S
O111 Zn109 1.932 . S
O111 C121 1.307 1_565 S
O112 Zn105 1.946 . S
O112 C123 1.253 . S
O113 Zn107 1.941 1_455 S
O113 C123 1.283 . S
O114 Zn107 1.965 . S
O114 C122 1.303 1_655 S
O115 Zn108 1.938 1_545 S
O115 C122 1.247 . S
O116 Zn108 1.906 . S
O116 C124 1.304 1_455 S
O117 Zn105 1.891 1_565 S
O117 C125 1.311 . S
O118 Zn109 1.977 . S
O118 C124 1.272 . S
O119 Zn109 1.910 1_455 S
O119 C125 1.231 . S
C120 O104 1.225 1_565 S
C120 O126 1.298 . S
C121 O110 1.226 . S
C121 O111 1.307 1_545 S
C122 O114 1.303 1_455 S
C122 O115 1.247 . S
C123 O112 1.253 . S
C123 O113 1.283 . S
C124 O116 1.304 1_655 S
C124 O118 1.272 . S
C125 O117 1.311 . S
C125 O119 1.231 . S
O126 Zn108 1.953 . S
O126 C120 1.298 . S
O127 Zn128 1.953 . S
O127 C143 1.225 . S
Zn128 O127 1.953 . S
Zn128 O129 1.949 . S
Zn128 O135 1.919 . S
Zn128 O140 1.924 . S
O129 Zn128 1.949 . S
O129 Zn130 1.923 1_545 S
O129 Zn131 1.950 . S
O129 Zn132 1.945 1_545 S
Zn130 O129 1.923 1_565 S
Zn130 O133 1.933 . S
Zn130 O136 1.941 . S
Zn130 O137 1.965 . S
Zn131 O129 1.950 . S
Zn131 O138 1.938 . S
Zn131 O139 1.906 . S
Zn131 O149 1.953 . S
Zn132 O129 1.945 1_565 S
Zn132 O134 1.932 . S
Zn132 O141 1.977 . S
Zn132 O142 1.910 1_565 S
O133 Zn130 1.933 . S
O133 C144 1.226 . S
O134 Zn132 1.932 . S
O134 C144 1.307 . S
O135 Zn128 1.919 . S
O135 C146 1.253 . S
O136 Zn130 1.941 . S
O136 C146 1.283 1_565 S
O137 Zn130 1.965 . S
O137 C145 1.303 1_565 S
O138 Zn131 1.938 . S
O138 C145 1.247 . S
O139 Zn131 1.906 . S
O139 C147 1.304 1_545 S
O140 Zn128 1.924 . S
O140 C148 1.311 . S
O141 Zn132 1.977 . S
O141 C147 1.272 . S
O142 Zn132 1.910 1_545 S
O142 C148 1.231 . S
C143 O127 1.225 . S
C143 O149 1.298 . S
C144 O133 1.226 . S
C144 O134 1.307 . S
C145 O137 1.303 1_545 S
C145 O138 1.247 . S
C146 O135 1.253 . S
C146 O136 1.283 1_545 S
C147 O139 1.304 1_565 S
C147 O141 1.272 . S
C148 O140 1.311 . S
C148 O142 1.231 . S
O149 Zn131 1.953 . S
O149 C143 1.298 . S
O150 Zn151 1.953 . S
O150 C166 1.225 . S
Zn151 O150 1.953 . S
Zn151 O152 1.949 . S
Zn151 O158 1.919 . S
Zn151 O163 1.924 . S
O152 Zn151 1.949 . S
O152 Zn153 1.923 . S
O152 Zn154 1.950 . S
O152 Zn155 1.945 . S
Zn153 O152 1.923 . S
Zn153 O156 1.933 . S
Zn153 O159 1.941 . S
Zn153 O160 1.965 . S
Zn154 O152 1.950 . S
Zn154 O161 1.938 . S
Zn154 O162 1.906 . S
Zn154 O172 1.953 . S
Zn155 O152 1.945 . S
Zn155 O157 1.932 . S
Zn155 O164 1.977 . S
Zn155 O165 1.910 . S
O156 Zn153 1.933 . S
O156 C167 1.226 . S
O157 Zn155 1.932 . S
O157 C167 1.307 . S
O158 Zn151 1.919 . S
O158 C169 1.253 . S
O159 Zn153 1.941 . S
O159 C169 1.283 . S
O160 Zn153 1.965 . S
O160 C168 1.303 . S
O161 Zn154 1.938 . S
O161 C168 1.247 . S
O162 Zn154 1.906 . S
O162 C170 1.304 . S
O163 Zn151 1.924 . S
O163 C171 1.311 . S
O164 Zn155 1.977 . S
O164 C170 1.272 . S
O165 Zn155 1.910 . S
O165 C171 1.231 . S
C166 O150 1.225 . S
C166 O172 1.298 . S
C167 O156 1.226 . S
C167 O157 1.307 . S
C168 O160 1.303 . S
C168 O161 1.247 . S
C169 O158 1.253 . S
C169 O159 1.283 . S
C170 O162 1.304 . S
C170 O164 1.272 . S
C171 O163 1.311 . S
C171 O165 1.231 . S
O172 Zn154 1.953 . S
O172 C166 1.298 . S
O173 Zn174 1.920 1_655 S
O173 C189 1.225 . S
Zn174 O173 1.920 1_455 S
Zn174 O175 1.949 . S
Zn174 O181 1.919 . S
Zn174 O186 1.959 . S
O175 Zn174 1.949 . S
O175 Zn176 1.918 1_455 S
O175 Zn177 1.929 1_455 S
O175 Zn178 1.973 . S
Zn176 O175 1.918 1_655 S
Zn176 O179 1.933 1_655 S
Zn176 O182 1.941 . S
Zn176 O183 1.965 . S
Zn177 O175 1.929 1_655 S
Zn177 O184 1.938 . S
Zn177 O185 1.906 . S
Zn177 O195 1.953 . S
Zn178 O175 1.973 . S
Zn178 O180 1.932 . S
Zn178 O187 1.977 . S
Zn178 O188 1.910 . S
O179 Zn176 1.933 1_455 S
O179 C190 1.226 . S
O180 Zn178 1.932 . S
O180 C190 1.307 . S
O181 Zn174 1.919 . S
O181 C192 1.253 . S
O182 Zn176 1.941 . S
O182 C192 1.284 1_655 S
O183 Zn176 1.965 . S
O183 C191 1.303 . S
O184 Zn177 1.938 . S
O184 C191 1.247 . S
O185 Zn177 1.906 . S
O185 C193 1.304 1_655 S
O186 Zn174 1.959 . S
O186 C194 1.311 . S
O187 Zn178 1.977 . S
O187 C193 1.272 . S
O188 Zn178 1.910 . S
O188 C194 1.231 . S
C189 O173 1.225 . S
C189 O195 1.298 . S
C190 O179 1.226 . S
C190 O180 1.307 . S
C191 O183 1.303 . S
C191 O184 1.247 . S
C192 O181 1.253 . S
C192 O182 1.284 1_455 S
C193 O185 1.304 1_455 S
C193 O187 1.272 . S
C194 O186 1.311 . S
C194 O188 1.231 . S
O195 Zn177 1.953 . S
O195 C189 1.298 . S
H196 C202 0.930 . S
H197 C206 0.930 . S
H198 C211 0.929 . S
H199 C209 0.929 . S
H200 C204 0.929 . S
H201 C210 0.929 . S
C202 H196 0.930 . S
C202 C203 1.367 . S
C202 C210 1.378 . S
C203 C202 1.367 . S
C203 C211 1.433 1_545 S
C204 H200 0.929 . S
C204 C206 1.378 . S
C204 C208 1.350 1_565 S
C205 C208 1.463 . S
C205 C210 1.350 . S
C205 N213 1.427 1_545 S
C206 H197 0.930 . S
C206 C204 1.378 . S
C206 C207 1.367 . S
C207 C206 1.367 . S
C207 C209 1.433 1_565 S
C208 C204 1.350 1_545 S
C208 C205 1.463 . S
C208 N212 1.427 . S
C209 H199 0.929 . S
C209 C207 1.433 1_545 S
C209 N212 1.384 . S
C210 H201 0.929 . S
C210 C202 1.378 . S
C210 C205 1.350 . S
C211 H198 0.929 . S
C211 C203 1.433 1_565 S
C211 N213 1.384 . S
N212 C208 1.427 . S
N212 C209 1.384 . S
N213 C205 1.427 1_565 S
N213 C211 1.384 . S
H214 C220 0.930 . S
H215 C224 0.930 . S
H216 C229 0.929 . S
H217 C227 0.929 . S
H218 C222 0.929 . S
H219 C228 0.929 . S
C220 H214 0.930 . S
C220 C221 1.367 . S
C220 C228 1.378 . S
C221 C220 1.367 . S
C221 C229 1.433 . S
C222 H218 0.929 . S
C222 C224 1.378 . S
C222 C226 1.350 . S
C223 C226 1.463 . S
C223 C228 1.350 . S
C223 N231 1.427 . S
C224 H215 0.930 . S
C224 C222 1.378 . S
C224 C225 1.367 . S
C225 C224 1.367 . S
C225 C227 1.433 . S
C226 C222 1.350 . S
C226 C223 1.463 . S
C226 N230 1.427 . S
C227 H217 0.929 . S
C227 C225 1.433 . S
C227 N230 1.384 . S
C228 H219 0.929 . S
C228 C220 1.378 . S
C228 C223 1.350 . S
C229 H216 0.929 . S
C229 C221 1.433 . S
C229 N231 1.384 . S
N230 C226 1.427 . S
N230 C227 1.384 . S
N231 C223 1.427 . S
N231 C229 1.384 . S
H232 C238 0.930 . S
H233 C242 0.930 . S
H234 C247 0.929 . S
H235 C245 0.929 . S
H236 C240 0.929 . S
H237 C246 0.929 . S
C238 H232 0.930 . S
C238 C239 1.367 . S
C238 C246 1.378 . S
C239 C238 1.367 . S
C239 C247 1.433 . S
C240 H236 0.929 . S
C240 C242 1.378 . S
C240 C244 1.350 . S
C241 C244 1.463 . S
C241 C246 1.350 . S
C241 N249 1.427 . S
C242 H233 0.930 . S
C242 C240 1.378 . S
C242 C243 1.367 . S
C243 C242 1.367 . S
C243 C245 1.433 . S
C244 C240 1.350 . S
C244 C241 1.463 . S
C244 N248 1.427 . S
C245 H235 0.929 . S
C245 C243 1.433 . S
C245 N248 1.384 . S
C246 H237 0.929 . S
C246 C238 1.378 . S
C246 C241 1.350 . S
C247 H234 0.929 . S
C247 C239 1.433 . S
C247 N249 1.384 . S
N248 C244 1.427 . S
N248 C245 1.384 . S
N249 C241 1.427 . S
N249 C247 1.384 . S
H250 C256 0.930 . S
H251 C260 0.930 . S
H252 C265 0.929 . S
H253 C263 0.922 1_655 S
H254 C258 0.929 . S
H255 C264 0.929 . S
C256 H250 0.930 . S
C256 C257 1.367 . S
C256 C264 1.378 . S
C257 C256 1.367 . S
C257 C265 1.433 . S
C258 H254 0.929 . S
C258 C260 1.378 . S
C258 C262 1.350 . S
C259 C262 1.463 . S
C259 C264 1.350 . S
C259 N267 1.427 . S
C260 H251 0.930 . S
C260 C258 1.378 . S
C260 C261 1.367 . S
C261 C260 1.367 . S
C261 C263 1.438 . S
C262 C258 1.350 . S
C262 C259 1.463 . S
C262 N266 1.427 . S
C263 H253 0.922 1_455 S
C263 C261 1.438 . S
C263 N266 1.386 . S
C264 H255 0.929 . S
C264 C256 1.378 . S
C264 C259 1.350 . S
C265 H252 0.929 . S
C265 C257 1.433 . S
C265 N267 1.384 . S
N266 C262 1.427 . S
N266 C263 1.386 . S
N267 C259 1.427 . S
N267 C265 1.384 . S
H268 C274 0.930 . S
H269 C278 0.930 . S
H270 C283 0.929 . S
H271 C281 0.929 . S
H272 C276 0.929 . S
H273 C282 0.929 1_554 S
C274 H268 0.930 . S
C274 C275 1.370 1_554 S
C274 C282 1.378 1_554 S
C275 C274 1.370 1_556 S
C275 C283 1.430 1_565 S
C276 H272 0.929 . S
C276 C278 1.378 . S
C276 C280 1.350 . S
C277 C280 1.463 . S
C277 C282 1.347 1_545 S
C277 N285 1.430 . S
C278 H269 0.930 . S
C278 C276 1.378 . S
C278 C279 1.367 . S
C279 C278 1.367 . S
C279 C281 1.433 1_545 S
C280 C276 1.350 . S
C280 C277 1.463 . S
C280 N284 1.427 1_545 S
C281 H271 0.929 . S
C281 C279 1.433 1_565 S
C281 N284 1.384 . S
C282 H273 0.929 1_556 S
C282 C274 1.378 1_556 S
C282 C277 1.347 1_565 S
C283 H270 0.929 . S
C283 C275 1.430 1_545 S
C283 N285 1.384 . S
N284 C280 1.427 1_565 S
N284 C281 1.384 . S
N285 C277 1.430 . S
N285 C283 1.384 . S
H286 C292 0.932 . S
H287 C296 0.930 . S
H288 C301 0.929 . S
H289 C299 0.929 . S
H290 C294 0.929 . S
H291 C300 0.929 . S
C292 H286 0.932 . S
C292 C293 1.366 1_554 S
C292 C300 1.377 1_554 S
C293 C292 1.366 1_556 S
C293 C301 1.433 . S
C294 H290 0.929 . S
C294 C296 1.378 . S
C294 C298 1.350 . S
C295 C298 1.463 . S
C295 C300 1.350 . S
C295 N303 1.427 . S
C296 H287 0.930 . S
C296 C294 1.378 . S
C296 C297 1.367 . S
C297 C296 1.367 . S
C297 C299 1.433 . S
C298 C294 1.350 . S
C298 C295 1.463 . S
C298 N302 1.427 . S
C299 H289 0.929 . S
C299 C297 1.433 . S
C299 N302 1.384 . S
C300 H291 0.929 . S
C300 C292 1.377 1_556 S
C300 C295 1.350 . S
C301 H288 0.929 . S
C301 C293 1.433 . S
C301 N303 1.384 . S
N302 C298 1.427 . S
N302 C299 1.384 . S
N303 C295 1.427 . S
N303 C301 1.384 . S
H304 C310 0.930 . S
H305 C314 0.930 . S
H306 C319 0.929 . S
H307 C317 0.929 . S
H308 C312 0.929 . S
H309 C318 0.929 . S
C310 H304 0.930 . S
C310 C311 1.367 . S
C310 C318 1.378 . S
C311 C310 1.367 . S
C311 C319 1.433 . S
C312 H308 0.929 . S
C312 C314 1.378 . S
C312 C316 1.350 . S
C313 C316 1.463 . S
C313 C318 1.350 . S
C313 N321 1.427 . S
C314 H305 0.930 . S
C314 C312 1.378 . S
C314 C315 1.367 . S
C315 C314 1.367 . S
C315 C317 1.433 . S
C316 C312 1.350 . S
C316 C313 1.463 . S
C316 N320 1.427 . S
C317 H307 0.929 . S
C317 C315 1.433 . S
C317 N320 1.384 . S
C318 H309 0.929 . S
C318 C310 1.378 . S
C318 C313 1.350 . S
C319 H306 0.929 . S
C319 C311 1.433 . S
C319 N321 1.384 . S
N320 C316 1.427 . S
N320 C317 1.384 . S
N321 C313 1.427 . S
N321 C319 1.384 . S
H322 C328 0.930 . S
H323 C332 0.931 1_655 S
H324 C337 0.929 . S
H325 C335 0.929 . S
H326 C330 0.929 . S
H327 C336 0.929 . S
C328 H322 0.930 . S
C328 C329 1.367 1_456 S
C328 C336 1.378 . S
C329 C328 1.367 1_654 S
C329 C337 1.433 . S
C330 H326 0.929 . S
C330 C332 1.378 1_655 S
C330 C334 1.350 1_655 S
C331 C334 1.463 . S
C331 C336 1.350 . S
C331 N339 1.427 1_456 S
C332 H323 0.931 1_455 S
C332 C330 1.378 1_455 S
C332 C333 1.366 . S
C333 C332 1.366 . S
C333 C335 1.433 . S
C334 C330 1.350 1_455 S
C334 C331 1.463 . S
C334 N338 1.427 . S
C335 H325 0.929 . S
C335 C333 1.433 . S
C335 N338 1.384 . S
C336 H327 0.929 . S
C336 C328 1.378 . S
C336 C331 1.350 . S
C337 H324 0.929 . S
C337 C329 1.433 . S
C337 N339 1.384 . S
N338 C334 1.427 . S
N338 C335 1.384 . S
N339 C331 1.427 1_654 S
N339 C337 1.384 . S
H340 C346 0.930 . S
H341 C350 0.930 . S
H342 C355 0.929 . S
H343 C353 0.929 . S
H344 C348 0.929 . S
H345 C354 0.929 . S
C346 H340 0.930 . S
C346 C347 1.367 . S
C346 C354 1.378 . S
C347 C346 1.367 . S
C347 C355 1.433 . S
C348 H344 0.929 . S
C348 C350 1.378 . S
C348 C352 1.350 . S
C349 C352 1.463 . S
C349 C354 1.350 . S
C349 N357 1.427 . S
C350 H341 0.930 . S
C350 C348 1.378 . S
C350 C351 1.367 . S
C351 C350 1.367 . S
C351 C353 1.433 . S
C352 C348 1.350 . S
C352 C349 1.463 . S
C352 N356 1.427 . S
C353 H343 0.929 . S
C353 C351 1.433 . S
C353 N356 1.384 . S
C354 H345 0.929 . S
C354 C346 1.378 . S
C354 C349 1.350 . S
C355 H342 0.929 . S
C355 C347 1.433 . S
C355 N357 1.384 . S
N356 C352 1.427 . S
N356 C353 1.384 . S
N357 C349 1.427 . S
N357 C355 1.384 . S
H358 C364 0.930 . S
H359 C368 0.930 . S
H360 C373 0.929 . S
H361 C371 0.929 . S
H362 C366 0.929 . S
H363 C372 0.929 . S
C364 H358 0.930 . S
C364 C365 1.367 . S
C364 C372 1.378 . S
C365 C364 1.367 . S
C365 C373 1.433 1_545 S
C366 H362 0.929 . S
C366 C368 1.378 . S
C366 C370 1.350 1_565 S
C367 C370 1.463 . S
C367 C372 1.350 . S
C367 N375 1.427 1_545 S
C368 H359 0.930 . S
C368 C366 1.378 . S
C368 C369 1.367 1_565 S
C369 C368 1.367 1_545 S
C369 C371 1.433 . S
C370 C366 1.350 1_545 S
C370 C367 1.463 . S
C370 N374 1.427 . S
C371 H361 0.929 . S
C371 C369 1.433 . S
C371 N374 1.384 . S
C372 H363 0.929 . S
C372 C364 1.378 . S
C372 C367 1.350 . S
C373 H360 0.929 . S
C373 C365 1.433 1_565 S
C373 N375 1.384 . S
N374 C370 1.427 . S
N374 C371 1.384 . S
N375 C367 1.427 1_565 S
N375 C373 1.384 . S
H376 C382 0.930 . S
H377 C386 0.930 . S
H378 C391 0.929 . S
H379 C389 0.929 . S
H380 C384 0.929 . S
H381 C390 0.929 . S
C382 H376 0.930 . S
C382 C383 1.367 . S
C382 C390 1.378 . S
C383 C382 1.367 . S
C383 C391 1.433 . S
C384 H380 0.929 . S
C384 C386 1.378 . S
C384 C388 1.350 . S
C385 C388 1.463 . S
C385 C390 1.350 . S
C385 N393 1.427 . S
C386 H377 0.930 . S
C386 C384 1.378 . S
C386 C387 1.367 . S
C387 C386 1.367 . S
C387 C389 1.433 . S
C388 C384 1.350 . S
C388 C385 1.463 . S
C388 N392 1.427 . S
C389 H379 0.929 . S
C389 C387 1.433 . S
C389 N392 1.384 . S
C390 H381 0.929 . S
C390 C382 1.378 . S
C390 C385 1.350 . S
C391 H378 0.929 . S
C391 C383 1.433 . S
C391 N393 1.384 . S
N392 C388 1.427 . S
N392 C389 1.384 . S
N393 C385 1.427 . S
N393 C391 1.384 . S
H394 C400 0.930 . S
H395 C404 0.930 . S
H396 C409 0.929 . S
H397 C407 0.929 . S
H398 C402 0.929 . S
H399 C408 0.929 . S
C400 H394 0.930 . S
C400 C401 1.367 . S
C400 C408 1.378 . S
C401 C400 1.367 . S
C401 C409 1.433 . S
C402 H398 0.929 . S
C402 C404 1.378 . S
C402 C406 1.350 . S
C403 C406 1.463 . S
C403 C408 1.350 . S
C403 N411 1.427 . S
C404 H395 0.930 . S
C404 C402 1.378 . S
C404 C405 1.367 . S
C405 C404 1.367 . S
C405 C407 1.433 . S
C406 C402 1.350 . S
C406 C403 1.463 . S
C406 N410 1.427 . S
C407 H397 0.929 . S
C407 C405 1.433 . S
C407 N410 1.384 . S
C408 H399 0.929 . S
C408 C400 1.378 . S
C408 C403 1.350 . S
C409 H396 0.929 . S
C409 C401 1.433 . S
C409 N411 1.384 . S
N410 C406 1.427 . S
N410 C407 1.384 . S
N411 C403 1.427 . S
N411 C409 1.384 . S
H412 C418 0.930 . S
H413 C422 0.930 . S
H414 C427 0.929 . S
H415 C425 0.929 . S
H416 C420 0.929 . S
H417 C426 0.929 . S
C418 H412 0.930 . S
C418 C419 1.360 1_655 S
C418 C426 1.378 . S
C419 C418 1.360 1_455 S
C419 C427 1.444 1_554 S
C420 H416 0.929 . S
C420 C422 1.378 . S
C420 C424 1.350 . S
C421 C424 1.463 . S
C421 C426 1.350 1_456 S
C421 N429 1.427 . S
C422 H413 0.930 . S
C422 C420 1.378 . S
C422 C423 1.367 . S
C423 C422 1.367 . S
C423 C425 1.433 . S
C424 C420 1.350 . S
C424 C421 1.463 . S
C424 N428 1.427 . S
C425 H415 0.929 . S
C425 C423 1.433 . S
C425 N428 1.384 . S
C426 H417 0.929 . S
C426 C418 1.378 . S
C426 C421 1.350 1_654 S
C427 H414 0.929 . S
C427 C419 1.444 1_556 S
C427 N429 1.384 . S
N428 C424 1.427 . S
N428 C425 1.384 . S
N429 C421 1.427 . S
N429 C427 1.384 . S
H430 C436 0.930 . S
H431 C440 0.930 . S
H432 C445 0.929 . S
H433 C443 0.929 . S
H434 C438 0.929 . S
H435 C444 0.929 1_554 S
C436 H430 0.930 . S
C436 C437 1.367 1_554 S
C436 C444 1.378 1_564 S
C437 C436 1.367 1_556 S
C437 C445 1.434 1_565 S
C438 H434 0.929 . S
C438 C440 1.378 . S
C438 C442 1.350 . S
C439 C442 1.463 . S
C439 C444 1.350 . S
C439 N447 1.427 . S
C440 H431 0.930 . S
C440 C438 1.378 . S
C440 C441 1.367 . S
C441 C440 1.367 . S
C441 C443 1.433 . S
C442 C438 1.350 . S
C442 C439 1.463 . S
C442 N446 1.427 . S
C443 H433 0.929 . S
C443 C441 1.433 . S
C443 N446 1.384 . S
C444 H435 0.929 1_556 S
C444 C436 1.378 1_546 S
C444 C439 1.350 . S
C445 H432 0.929 . S
C445 C437 1.434 1_545 S
C445 N447 1.384 . S
N446 C442 1.427 . S
N446 C443 1.384 . S
N447 C439 1.427 . S
N447 C445 1.384 . S
H448 C454 0.930 . S
H449 C458 0.930 . S
H450 C463 0.929 . S
H451 C461 0.929 . S
H452 C456 0.929 . S
H453 C462 0.929 . S
C454 H448 0.930 . S
C454 C455 1.367 1_554 S
C454 C462 1.378 1_554 S
C455 C454 1.367 1_556 S
C455 C463 1.433 . S
C456 H452 0.929 . S
C456 C458 1.378 . S
C456 C460 1.350 . S
C457 C460 1.463 . S
C457 C462 1.350 . S
C457 N465 1.427 . S
C458 H449 0.930 . S
C458 C456 1.378 . S
C458 C459 1.367 . S
C459 C458 1.367 . S
C459 C461 1.433 . S
C460 C456 1.350 . S
C460 C457 1.463 . S
C460 N464 1.427 . S
C461 H451 0.929 . S
C461 C459 1.433 . S
C461 N464 1.384 . S
C462 H453 0.929 . S
C462 C454 1.378 1_556 S
C462 C457 1.350 . S
C463 H450 0.929 . S
C463 C455 1.433 . S
C463 N465 1.384 . S
N464 C460 1.427 . S
N464 C461 1.384 . S
N465 C457 1.427 . S
N465 C463 1.384 . S
H466 C472 0.930 . S
H467 C476 0.930 . S
H468 C481 0.929 . S
H469 C479 0.929 . S
H470 C474 0.929 . S
H471 C480 0.929 . S
C472 H466 0.930 . S
C472 C473 1.367 . S
C472 C480 1.378 . S
C473 C472 1.367 . S
C473 C481 1.433 . S
C474 H470 0.929 . S
C474 C476 1.378 . S
C474 C478 1.350 . S
C475 C478 1.463 . S
C475 C480 1.350 . S
C475 N483 1.427 . S
C476 H467 0.930 . S
C476 C474 1.378 . S
C476 C477 1.367 . S
C477 C476 1.367 . S
C477 C479 1.433 . S
C478 C474 1.350 . S
C478 C475 1.463 . S
C478 N482 1.427 . S
C479 H469 0.929 . S
C479 C477 1.433 . S
C479 N482 1.384 . S
C480 H471 0.929 . S
C480 C472 1.378 . S
C480 C475 1.350 . S
C481 H468 0.929 . S
C481 C473 1.433 . S
C481 N483 1.384 . S
N482 C478 1.427 . S
N482 C479 1.384 . S
N483 C475 1.427 . S
N483 C481 1.384 . S
H484 C490 0.930 . S
H485 C494 0.930 . S
H486 C499 0.929 . S
H487 C497 0.929 . S
H488 C492 0.929 . S
H489 C498 0.929 . S
C490 H484 0.930 . S
C490 C491 1.367 . S
C490 C498 1.378 . S
C491 C490 1.367 . S
C491 C499 1.433 . S
C492 H488 0.929 . S
C492 C494 1.378 . S
C492 C496 1.350 . S
C493 C496 1.463 . S
C493 C498 1.350 . S
C493 N501 1.427 . S
C494 H485 0.930 . S
C494 C492 1.378 . S
C494 C495 1.367 1_554 S
C495 C494 1.367 1_556 S
C495 C497 1.433 . S
C496 C492 1.350 . S
C496 C493 1.463 . S
C496 N500 1.427 1_554 S
C497 H487 0.929 . S
C497 C495 1.433 . S
C497 N500 1.384 . S
C498 H489 0.929 . S
C498 C490 1.378 . S
C498 C493 1.350 . S
C499 H486 0.929 . S
C499 C491 1.433 . S
C499 N501 1.384 . S
N500 C496 1.427 1_556 S
N500 C497 1.384 . S
N501 C493 1.427 . S
N501 C499 1.384 . S
H502 C508 0.930 . S
H503 C512 0.930 . S
H504 C517 0.929 . S
H505 C515 0.929 . S
H506 C510 0.929 . S
H507 C516 0.929 1_556 S
C508 H502 0.930 . S
C508 C509 1.367 1_565 S
C508 C516 1.378 . S
C509 C508 1.367 1_545 S
C509 C517 1.433 . S
C510 H506 0.929 . S
C510 C512 1.378 1_554 S
C510 C514 1.350 1_554 S
C511 C514 1.463 1_554 S
C511 C516 1.350 1_545 S
C511 N519 1.427 . S
C512 H503 0.930 . S
C512 C510 1.378 1_556 S
C512 C513 1.367 . S
C513 C512 1.367 . S
C513 C515 1.433 1_545 S
C514 C510 1.350 1_556 S
C514 C511 1.463 1_556 S
C514 N518 1.427 1_545 S
C515 H505 0.929 . S
C515 C513 1.433 1_565 S
C515 N518 1.384 . S
C516 H507 0.929 1_554 S
C516 C508 1.378 . S
C516 C511 1.350 1_565 S
C517 H504 0.929 . S
C517 C509 1.433 . S
C517 N519 1.384 . S
N518 C514 1.427 1_565 S
N518 C515 1.384 . S
N519 C511 1.427 . S
N519 C517 1.384 . S
H520 C526 0.930 . S
H521 C530 0.930 . S
H522 C535 0.929 . S
H523 C533 0.929 . S
H524 C528 0.929 . S
H525 C534 0.929 . S
C526 H520 0.930 . S
C526 C527 1.367 . S
C526 C534 1.378 . S
C527 C526 1.367 . S
C527 C535 1.433 . S
C528 H524 0.929 . S
C528 C530 1.378 . S
C528 C532 1.350 . S
C529 C532 1.463 1_554 S
C529 C534 1.350 . S
C529 N537 1.427 1_554 S
C530 H521 0.930 . S
C530 C528 1.378 . S
C530 C531 1.367 . S
C531 C530 1.367 . S
C531 C533 1.433 . S
C532 C528 1.350 . S
C532 C529 1.463 1_556 S
C532 N536 1.427 . S
C533 H523 0.929 . S
C533 C531 1.433 . S
C533 N536 1.384 . S
C534 H525 0.929 . S
C534 C526 1.378 . S
C534 C529 1.350 . S
C535 H522 0.929 . S
C535 C527 1.433 . S
C535 N537 1.384 1_554 S
N536 C532 1.427 . S
N536 C533 1.384 . S
N537 C529 1.427 1_556 S
N537 C535 1.384 1_556 S
H538 C544 0.930 . S
H539 C548 0.930 . S
H540 C553 0.929 . S
H541 C551 0.929 . S
H542 C546 0.929 1_554 S
H543 C552 0.929 1_556 S
C544 H538 0.930 . S
C544 C545 1.367 . S
C544 C552 1.378 . S
C545 C544 1.367 . S
C545 C553 1.433 . S
C546 H542 0.929 1_556 S
C546 C548 1.378 . S
C546 C550 1.350 . S
C547 C550 1.463 1_554 S
C547 C552 1.350 . S
C547 N555 1.427 . S
C548 H539 0.930 . S
C548 C546 1.378 . S
C548 C549 1.367 . S
C549 C548 1.367 . S
C549 C551 1.433 . S
C550 C546 1.350 . S
C550 C547 1.463 1_556 S
C550 N554 1.427 . S
C551 H541 0.929 . S
C551 C549 1.433 . S
C551 N554 1.384 . S
C552 H543 0.929 1_554 S
C552 C544 1.378 . S
C552 C547 1.350 . S
C553 H540 0.929 . S
C553 C545 1.433 . S
C553 N555 1.384 . S
N554 C550 1.427 . S
N554 C551 1.384 . S
N555 C547 1.427 . S
N555 C553 1.384 . S
H556 C562 0.930 . S
H557 C566 0.930 . S
H558 C571 0.929 . S
H559 C569 0.929 . S
H560 C564 0.929 . S
H561 C570 0.929 . S
C562 H556 0.930 . S
C562 C563 1.352 1_455 S
C562 C570 1.378 . S
C563 C562 1.352 1_655 S
C563 C571 1.451 . S
C564 H560 0.929 . S
C564 C566 1.378 . S
C564 C568 1.350 . S
C565 C568 1.463 . S
C565 C570 1.350 1_655 S
C565 N573 1.427 . S
C566 H557 0.930 . S
C566 C564 1.378 . S
C566 C567 1.367 . S
C567 C566 1.367 . S
C567 C569 1.433 1_655 S
C568 C564 1.350 . S
C568 C565 1.463 . S
C568 N572 1.427 1_655 S
C569 H559 0.929 . S
C569 C567 1.433 1_455 S
C569 N572 1.384 . S
C570 H561 0.929 . S
C570 C562 1.378 . S
C570 C565 1.350 1_455 S
C571 H558 0.929 . S
C571 C563 1.451 . S
C571 N573 1.384 . S
N572 C568 1.427 1_455 S
N572 C569 1.384 . S
N573 C565 1.427 . S
N573 C571 1.384 . S
H574 C580 0.930 . S
H575 C584 0.930 . S
H576 C589 0.929 . S
H577 C587 0.929 . S
H578 C582 0.929 . S
H579 C588 0.930 . S
C580 H574 0.930 . S
C580 C581 1.367 1_545 S
C580 C588 1.379 . S
C581 C580 1.367 1_565 S
C581 C589 1.433 . S
C582 H578 0.929 . S
C582 C584 1.378 . S
C582 C586 1.350 . S
C583 C586 1.463 . S
C583 C588 1.348 1_565 S
C583 N591 1.427 . S
C584 H575 0.930 . S
C584 C582 1.378 . S
C584 C585 1.367 . S
C585 C584 1.367 . S
C585 C587 1.433 . S
C586 C582 1.350 . S
C586 C583 1.463 . S
C586 N590 1.427 . S
C587 H577 0.929 . S
C587 C585 1.433 . S
C587 N590 1.384 . S
C588 H579 0.930 . S
C588 C580 1.379 . S
C588 C583 1.348 1_545 S
C589 H576 0.929 . S
C589 C581 1.433 . S
C589 N591 1.384 . S
N590 C586 1.427 . S
N590 C587 1.384 . S
N591 C583 1.427 . S
N591 C589 1.384 . S
H592 C598 0.930 . S
H593 C602 0.930 . S
H594 C607 0.929 . S
H595 C605 0.929 . S
H596 C600 0.929 . S
H597 C606 0.929 . S
C598 H592 0.930 . S
C598 C599 1.367 . S
C598 C606 1.378 . S
C599 C598 1.367 . S
C599 C607 1.433 . S
C600 H596 0.929 . S
C600 C602 1.378 . S
C600 C604 1.350 . S
C601 C604 1.463 . S
C601 C606 1.350 . S
C601 N609 1.427 . S
C602 H593 0.930 . S
C602 C600 1.378 . S
C602 C603 1.367 . S
C603 C602 1.367 . S
C603 C605 1.433 . S
C604 C600 1.350 . S
C604 C601 1.463 . S
C604 N608 1.427 . S
C605 H595 0.929 . S
C605 C603 1.433 . S
C605 N608 1.384 . S
C606 H597 0.929 . S
C606 C598 1.378 . S
C606 C601 1.350 . S
C607 H594 0.929 . S
C607 C599 1.433 . S
C607 N609 1.384 . S
N608 C604 1.427 . S
N608 C605 1.384 . S
N609 C601 1.427 . S
N609 C607 1.384 . S
H610 C616 0.930 . S
H611 C620 0.930 . S
H612 C625 0.929 . S
H613 C623 0.929 . S
H614 C618 0.929 . S
H615 C624 0.929 . S
C616 H610 0.930 . S
C616 C617 1.367 . S
C616 C624 1.378 . S
C617 C616 1.367 . S
C617 C625 1.433 . S
C618 H614 0.929 . S
C618 C620 1.378 . S
C618 C622 1.350 . S
C619 C622 1.463 . S
C619 C624 1.350 . S
C619 N627 1.427 . S
C620 H611 0.930 . S
C620 C618 1.378 . S
C620 C621 1.367 . S
C621 C620 1.367 . S
C621 C623 1.433 . S
C622 C618 1.350 . S
C622 C619 1.463 . S
C622 N626 1.427 . S
C623 H613 0.929 . S
C623 C621 1.433 . S
C623 N626 1.384 . S
C624 H615 0.929 . S
C624 C616 1.378 . S
C624 C619 1.350 . S
C625 H612 0.929 . S
C625 C617 1.433 . S
C625 N627 1.384 . S
N626 C622 1.427 . S
N626 C623 1.384 . S
N627 C619 1.427 . S
N627 C625 1.384 . S
C203 C82 1.471 . S
C207 C120 1.587 . S
C225 C143 1.624 . S
C221 C95 1.522 . S
C243 C166 1.637 . S
C239 C56 1.521 . S
C261 C193 1.502 . S
C257 C69 1.490 . S
C279 C121 1.564 . S
C275 C30 1.458 1_566 S
C293 C43 1.392 . S
C297 C144 1.506 . S
C311 C4 1.370 . S
C315 C167 1.487 . S
C329 C17 1.457 1_655 S
C333 C192 1.579 . S
C351 C122 0.416 . S
C347 C74 0.510 . S
C369 C145 0.403 . S
C365 C87 0.475 . S
C387 C168 0.456 . S
C383 C100 0.496 . S
C401 C61 0.610 . S
C405 C194 0.640 . S
C419 C22 0.693 . S
C423 C125 0.725 . S
C441 C148 0.703 . S
C437 C35 0.669 1_566 S
C459 C171 0.658 . S
C455 C48 0.625 . S
C473 C9 0.454 . S
C477 C191 0.411 . S
C491 C73 1.579 . S
C495 C123 1.558 . S
C509 C86 1.531 . S
C513 C146 1.528 . S
C531 C169 1.534 . S
C527 C99 1.536 . S
C549 C190 1.387 . S
C545 C60 1.349 . S
C563 C21 1.602 1_655 S
C567 C124 1.551 . S
C585 C147 1.492 . S
C581 C34 1.552 1_565 S
C603 C170 1.488 . S
C599 C47 1.539 . S
C617 C8 1.679 . S
C621 C189 1.726 . S
