# Generated by pormake.
# Topology pto, (3,4)-cn, num edge types: 1
# Building blocks:
#     Node 0, Type 0, BuildingBlock: BELTOD_clean_linker_0, # of connection points: 3
#     Node 1, Type 0, BuildingBlock: BELTOD_clean_linker_0, # of connection points: 3
#     Node 2, Type 0, BuildingBlock: BELTOD_clean_linker_0, # of connection points: 3
#     Node 3, Type 0, BuildingBlock: BELTOD_clean_linker_0, # of connection points: 3
#     Node 4, Type 0, BuildingBlock: BELTOD_clean_linker_0, # of connection points: 3
#     Node 5, Type 0, BuildingBlock: BELTOD_clean_linker_0, # of connection points: 3
#     Node 6, Type 0, BuildingBlock: BELTOD_clean_linker_0, # of connection points: 3
#     Node 7, Type 0, BuildingBlock: BELTOD_clean_linker_0, # of connection points: 3
#     Node 8, Type 1, BuildingBlock: NAWXER_clean_sbu_0, # of connection points: 4
#     Node 9, Type 1, BuildingBlock: NAWXER_clean_sbu_0, # of connection points: 4
#     Node 10, Type 1, BuildingBlock: NAWXER_clean_sbu_0, # of connection points: 4
#     Node 11, Type 1, BuildingBlock: NAWXER_clean_sbu_0, # of connection points: 4
#     Node 12, Type 1, BuildingBlock: NAWXER_clean_sbu_0, # of connection points: 4
#     Node 13, Type 1, BuildingBlock: NAWXER_clean_sbu_0, # of connection points: 4
#     Edge 14, Type (0, 1), BuildingBlock: CIFDUS_clean_linker_0, # of connection points: 2
#     Edge 15, Type (0, 1), BuildingBlock: CIFDUS_clean_linker_0, # of connection points: 2
#     Edge 16, Type (0, 1), BuildingBlock: CIFDUS_clean_linker_0, # of connection points: 2
#     Edge 17, Type (0, 1), BuildingBlock: CIFDUS_clean_linker_0, # of connection points: 2
#     Edge 18, Type (0, 1), BuildingBlock: CIFDUS_clean_linker_0, # of connection points: 2
#     Edge 19, Type (0, 1), BuildingBlock: CIFDUS_clean_linker_0, # of connection points: 2
#     Edge 20, Type (0, 1), BuildingBlock: CIFDUS_clean_linker_0, # of connection points: 2
#     Edge 21, Type (0, 1), BuildingBlock: CIFDUS_clean_linker_0, # of connection points: 2
#     Edge 22, Type (0, 1), BuildingBlock: CIFDUS_clean_linker_0, # of connection points: 2
#     Edge 23, Type (0, 1), BuildingBlock: CIFDUS_clean_linker_0, # of connection points: 2
#     Edge 24, Type (0, 1), BuildingBlock: CIFDUS_clean_linker_0, # of connection points: 2
#     Edge 25, Type (0, 1), BuildingBlock: CIFDUS_clean_linker_0, # of connection points: 2
#     Edge 26, Type (0, 1), BuildingBlock: CIFDUS_clean_linker_0, # of connection points: 2
#     Edge 27, Type (0, 1), BuildingBlock: CIFDUS_clean_linker_0, # of connection points: 2
#     Edge 28, Type (0, 1), BuildingBlock: CIFDUS_clean_linker_0, # of connection points: 2
#     Edge 29, Type (0, 1), BuildingBlock: CIFDUS_clean_linker_0, # of connection points: 2
#     Edge 30, Type (0, 1), BuildingBlock: CIFDUS_clean_linker_0, # of connection points: 2
#     Edge 31, Type (0, 1), BuildingBlock: CIFDUS_clean_linker_0, # of connection points: 2
#     Edge 32, Type (0, 1), BuildingBlock: CIFDUS_clean_linker_0, # of connection points: 2
#     Edge 33, Type (0, 1), BuildingBlock: CIFDUS_clean_linker_0, # of connection points: 2
#     Edge 34, Type (0, 1), BuildingBlock: CIFDUS_clean_linker_0, # of connection points: 2
#     Edge 35, Type (0, 1), BuildingBlock: CIFDUS_clean_linker_0, # of connection points: 2
#     Edge 36, Type (0, 1), BuildingBlock: CIFDUS_clean_linker_0, # of connection points: 2
#     Edge 37, Type (0, 1), BuildingBlock: CIFDUS_clean_linker_0, # of connection points: 2
# Relax obj value: 0.000
# Max RMSD: 0.008
# Mean RMSD: 0.005
data_MOF--net-pto--node1-NAWXER_clean_sbu_0--node2-BELTOD_clean_linker_0--edge1-CIFDUS_clean_linker_0
_symmetry_space_group_name_H-M    P1
_symmetry_Int_Tables_number       1
_symmetry_cell_setting            triclinic
loop_
_symmetry_equiv_pos_as_xyz
'x, y, z'
_cell_length_a     44.085369
_cell_length_b     41.650274
_cell_length_c     38.858804
_cell_angle_alpha  89.21995
_cell_angle_beta   91.553862
_cell_angle_gamma 92.122427
loop_
_atom_site_label
_atom_site_type_symbol
_atom_site_fract_x
_atom_site_fract_y
_atom_site_fract_z
_atom_type_partial_charge
P0 P 0.28746 0.32566 0.2985 0.0
H1 H 0.34438 0.35925 0.27966 0.0
H2 H 0.37688 0.35556 0.23006 0.0
H3 H 0.31149 0.28878 0.18277 0.0
H4 H 0.27941 0.29211 0.23296 0.0
H5 H 0.23607 0.33118 0.34273 0.0
H6 H 0.18811 0.35825 0.3364 0.0
H7 H 0.21556 0.3961 0.23735 0.0
H8 H 0.26301 0.36774 0.24338 0.0
H9 H 0.32072 0.27972 0.34073 0.0
H10 H 0.23475 0.28157 0.28522 0.0
O11 O 0.30797 0.34354 0.33 0.0
H12 H 0.30734 0.22609 0.36319 0.0
H13 H 0.22107 0.22794 0.30791 0.0
C14 C 0.30971 0.32552 0.26022 0.0
C15 C 0.33694 0.34393 0.25855 0.0
C16 C 0.35544 0.342 0.22999 0.0
C17 C 0.347 0.32163 0.20251 0.0
C18 C 0.319 0.30423 0.20376 0.0
C19 C 0.30054 0.30619 0.23235 0.0
C20 C 0.25281 0.34696 0.29327 0.0
C21 C 0.23166 0.34521 0.31957 0.0
C22 C 0.20433 0.36098 0.31605 0.0
C23 C 0.1978 0.37933 0.2863 0.0
C24 C 0.21952 0.38167 0.26031 0.0
C25 C 0.24678 0.36559 0.26377 0.0
C26 C 0.27846 0.28492 0.31204 0.0
C27 C 0.29902 0.26851 0.33326 0.0
C28 C 0.29139 0.23779 0.34592 0.0
C29 C 0.26302 0.22291 0.33752 0.0
C30 C 0.24288 0.239 0.31522 0.0
C31 C 0.2507 0.26963 0.30225 0.0
P32 P 0.27839 0.71841 0.69478 0.0
H33 H 0.25446 0.65341 0.68015 0.0
H34 H 0.20544 0.626 0.69053 0.0
H35 H 0.17443 0.71141 0.73838 0.0
H36 H 0.22346 0.73879 0.72767 0.0
H37 H 0.28816 0.78299 0.72503 0.0
H38 H 0.27906 0.83682 0.70236 0.0
H39 H 0.24349 0.79578 0.6073 0.0
H40 H 0.25189 0.74197 0.63061 0.0
H41 H 0.34243 0.70333 0.70509 0.0
H42 H 0.26925 0.73246 0.76769 0.0
O43 O 0.2949 0.69926 0.66323 0.0
H44 H 0.37665 0.70372 0.75568 0.0
H45 H 0.3034 0.73294 0.81841 0.0
C46 C 0.24251 0.69816 0.70301 0.0
C47 C 0.23708 0.6663 0.69271 0.0
C48 C 0.209 0.65072 0.69846 0.0
C49 C 0.18606 0.66664 0.71506 0.0
C50 C 0.19173 0.69851 0.72563 0.0
C51 C 0.21971 0.71416 0.71955 0.0
C52 C 0.27123 0.75846 0.67922 0.0
C53 C 0.27828 0.78549 0.69941 0.0
C54 C 0.27308 0.81634 0.68635 0.0
C55 C 0.2607 0.82072 0.65287 0.0
C56 C 0.25272 0.79339 0.63327 0.0
C57 C 0.25786 0.7626 0.64641 0.0
C58 C 0.30318 0.71768 0.73259 0.0
C59 C 0.3336 0.70953 0.72975 0.0
C60 C 0.35315 0.7096 0.75875 0.0
C61 C 0.34274 0.71827 0.79108 0.0
C62 C 0.31217 0.72631 0.79383 0.0
C63 C 0.29256 0.72592 0.76487 0.0
P64 P 0.77794 0.76704 0.22778 0.0
H65 H 0.82721 0.80115 0.26412 0.0
H66 H 0.83019 0.83335 0.31606 0.0
H67 H 0.73396 0.81497 0.32986 0.0
H68 H 0.73205 0.78054 0.27974 0.0
H69 H 0.8181 0.73352 0.18352 0.0
H70 H 0.84793 0.68584 0.19171 0.0
H71 H 0.81281 0.67248 0.2939 0.0
H72 H 0.78317 0.72092 0.28557 0.0
H73 H 0.72309 0.80453 0.22231 0.0
H74 H 0.75126 0.71218 0.18909 0.0
O75 O 0.79621 0.79004 0.19894 0.0
H76 H 0.67523 0.79675 0.19054 0.0
H77 H 0.7045 0.70531 0.15475 0.0
C78 C 0.77921 0.78932 0.26737 0.0
C79 C 0.80681 0.80396 0.27854 0.0
C80 C 0.80839 0.82269 0.30817 0.0
C81 C 0.78223 0.82755 0.32716 0.0
C82 C 0.75475 0.81182 0.31633 0.0
C83 C 0.75341 0.79246 0.28711 0.0
C84 C 0.79882 0.73099 0.23411 0.0
C85 C 0.81682 0.7204 0.20772 0.0
C86 C 0.83369 0.69293 0.21236 0.0
C87 C 0.83274 0.67528 0.24347 0.0
C88 C 0.81428 0.68574 0.2698 0.0
C89 C 0.79727 0.71331 0.26503 0.0
C90 C 0.74047 0.7585 0.20926 0.0
C91 C 0.71872 0.78218 0.20885 0.0
C92 C 0.69149 0.77794 0.1899 0.0
C93 C 0.68587 0.75051 0.16948 0.0
C94 C 0.70757 0.72651 0.17045 0.0
C95 C 0.73454 0.73049 0.19012 0.0
P96 P 0.75476 0.25515 0.78377 0.0
H97 H 0.69783 0.22358 0.80343 0.0
H98 H 0.6526 0.24341 0.82962 0.0
H99 H 0.68687 0.34106 0.81449 0.0
H100 H 0.7325 0.32091 0.78966 0.0
H101 H 0.79274 0.20238 0.76785 0.0
H102 H 0.79321 0.16509 0.72009 0.0
H103 H 0.71555 0.21069 0.67326 0.0
H104 H 0.71489 0.24761 0.72193 0.0
H105 H 0.80811 0.28131 0.82144 0.0
H106 H 0.7616 0.29862 0.72428 0.0
O107 O 0.76715 0.23544 0.81879 0.0
H108 H 0.84557 0.32371 0.80828 0.0
H109 H 0.79873 0.34214 0.71121 0.0
C110 C 0.71852 0.27064 0.7944 0.0
C111 C 0.69525 0.24927 0.80502 0.0
C112 C 0.66929 0.26075 0.81995 0.0
C113 C 0.66602 0.29395 0.82449 0.0
C114 C 0.68877 0.31535 0.81202 0.0
C115 C 0.71483 0.3038 0.79736 0.0
C116 C 0.75332 0.22719 0.74881 0.0
C117 C 0.77559 0.20414 0.74748 0.0
C118 C 0.77608 0.18306 0.71989 0.0
C119 C 0.75445 0.18485 0.69273 0.0
C120 C 0.73229 0.20834 0.69397 0.0
C121 C 0.73184 0.22947 0.72173 0.0
C122 C 0.78217 0.28675 0.77376 0.0
C123 C 0.80588 0.29434 0.79726 0.0
C124 C 0.8272 0.31884 0.78979 0.0
C125 C 0.82506 0.33655 0.75877 0.0
C126 C 0.80122 0.32879 0.73516 0.0
C127 C 0.77992 0.30406 0.74265 0.0
P128 P 0.79457 0.79164 0.81554 0.0
H129 H 0.75239 0.83743 0.83981 0.0
H130 H 0.70079 0.83212 0.86049 0.0
H131 H 0.70534 0.72859 0.85616 0.0
H132 H 0.75598 0.73445 0.83287 0.0
H133 H 0.8184 0.7457 0.86566 0.0
H134 H 0.84737 0.69712 0.8603 0.0
H135 H 0.84313 0.70835 0.74947 0.0
H136 H 0.813 0.75562 0.75511 0.0
H137 H 0.74131 0.80855 0.7717 0.0
H138 H 0.83877 0.82127 0.76957 0.0
O139 O 0.81626 0.81481 0.84168 0.0
H140 H 0.73613 0.8437 0.72184 0.0
H141 H 0.83401 0.85421 0.7175 0.0
C142 C 0.75802 0.78638 0.83488 0.0
C143 C 0.74223 0.81359 0.84352 0.0
C144 C 0.71269 0.81046 0.85556 0.0
C145 C 0.69853 0.77989 0.86001 0.0
C146 C 0.71501 0.75259 0.85231 0.0
C147 C 0.7443 0.75584 0.83944 0.0
C148 C 0.81369 0.75442 0.81086 0.0
C149 C 0.82348 0.7374 0.84022 0.0
C150 C 0.84031 0.70978 0.8371 0.0
C151 C 0.84791 0.69877 0.80444 0.0
C152 C 0.83746 0.7157 0.77505 0.0
C153 C 0.82037 0.74308 0.77824 0.0
C154 C 0.79048 0.81306 0.77509 0.0
C155 C 0.76171 0.81864 0.76035 0.0
C156 C 0.75877 0.83849 0.73125 0.0
C157 C 0.7846 0.85247 0.71566 0.0
C158 C 0.81348 0.84493 0.72932 0.0
C159 C 0.81633 0.82576 0.75894 0.0
P160 P 0.78081 0.22282 0.20339 0.0
H161 H 0.84574 0.23237 0.21769 0.0
H162 H 0.87991 0.28003 0.21875 0.0
H163 H 0.80408 0.33981 0.19465 0.0
H164 H 0.76987 0.29217 0.19429 0.0
H165 H 0.72877 0.18379 0.22773 0.0
H166 H 0.7173 0.15809 0.28225 0.0
H167 H 0.80511 0.19108 0.32328 0.0
H168 H 0.81484 0.21971 0.26965 0.0
H169 H 0.76077 0.21286 0.13168 0.0
H170 H 0.72405 0.25059 0.22397 0.0
O171 O 0.79914 0.19552 0.18175 0.0
H172 H 0.71138 0.21779 0.10199 0.0
H173 H 0.67434 0.25465 0.19461 0.0
C174 C 0.80521 0.2586 0.20605 0.0
C175 C 0.83637 0.25576 0.21304 0.0
C176 C 0.8559 0.283 0.2136 0.0
C177 C 0.84468 0.31364 0.20665 0.0
C178 C 0.8134 0.31647 0.19976 0.0
C179 C 0.79379 0.28921 0.19974 0.0
C180 C 0.77216 0.20501 0.24483 0.0
C181 C 0.74515 0.18659 0.24882 0.0
C182 C 0.73886 0.17112 0.28006 0.0
C183 C 0.76015 0.17229 0.3077 0.0
C184 C 0.7876 0.19023 0.30324 0.0
C185 C 0.79341 0.20654 0.27225 0.0
C186 C 0.74581 0.23065 0.18023 0.0
C187 C 0.74214 0.22231 0.14551 0.0
C188 C 0.71397 0.22511 0.12859 0.0
C189 C 0.68904 0.23601 0.1463 0.0
C190 C 0.69312 0.24561 0.18065 0.0
C191 C 0.72146 0.24344 0.19733 0.0
P192 P 0.25843 0.30009 0.7262 0.0
H193 H 0.28352 0.28661 0.65927 0.0
H194 H 0.28439 0.23775 0.62542 0.0
H195 H 0.22699 0.18845 0.69904 0.0
H196 H 0.22634 0.23762 0.73308 0.0
H197 H 0.24614 0.35322 0.7706 0.0
H198 H 0.20024 0.38183 0.78211 0.0
H199 H 0.14754 0.3136 0.72003 0.0
H200 H 0.19375 0.28585 0.7077 0.0
H201 H 0.31983 0.27838 0.73077 0.0
H202 H 0.24697 0.29124 0.80063 0.0
O203 O 0.27824 0.32927 0.70607 0.0
H204 H 0.35234 0.26049 0.77867 0.0
H205 H 0.27971 0.27393 0.84886 0.0
C206 C 0.25426 0.26595 0.6983 0.0
C207 C 0.27063 0.26553 0.66787 0.0
C208 C 0.27144 0.23745 0.64873 0.0
C209 C 0.2559 0.20924 0.65968 0.0
C210 C 0.23898 0.20991 0.68983 0.0
C211 C 0.23844 0.23798 0.70917 0.0
C212 C 0.22339 0.31719 0.73863 0.0
C213 C 0.22459 0.34411 0.75996 0.0
C214 C 0.19825 0.36037 0.76668 0.0
C215 C 0.17008 0.35012 0.75199 0.0
C216 C 0.16887 0.32243 0.73146 0.0
C217 C 0.1953 0.30627 0.72464 0.0
C218 C 0.28129 0.28683 0.76226 0.0
C219 C 0.31085 0.27736 0.75646 0.0
C220 C 0.32929 0.26683 0.78375 0.0
C221 C 0.3185 0.26581 0.81743 0.0
C222 C 0.28859 0.27469 0.82313 0.0
C223 C 0.26997 0.2848 0.79563 0.0
P224 P 0.27054 0.73192 0.27142 0.0
H225 H 0.32084 0.69617 0.24577 0.0
H226 H 0.35421 0.70529 0.19749 0.0
H227 H 0.30147 0.7859 0.16374 0.0
H228 H 0.26834 0.77691 0.21298 0.0
H229 H 0.32078 0.76469 0.30707 0.0
H230 H 0.32724 0.81689 0.33418 0.0
H231 H 0.23327 0.83585 0.30885 0.0
H232 H 0.2282 0.78498 0.27889 0.0
H233 H 0.24382 0.69102 0.21688 0.0
H234 H 0.21424 0.73503 0.30931 0.0
O235 O 0.28705 0.70551 0.29788 0.0
H236 H 0.19559 0.66051 0.21201 0.0
H237 H 0.16521 0.70683 0.30319 0.0
C238 C 0.29222 0.73596 0.23298 0.0
C239 C 0.3162 0.71559 0.22783 0.0
C240 C 0.33522 0.72077 0.20004 0.0
C241 C 0.33056 0.74638 0.17672 0.0
C242 C 0.30589 0.76622 0.18145 0.0
C243 C 0.28682 0.76097 0.20936 0.0
C244 C 0.27367 0.77037 0.29219 0.0
C245 C 0.30157 0.78015 0.30748 0.0
C246 C 0.30515 0.81005 0.32323 0.0
C247 C 0.28068 0.83075 0.32449 0.0
C248 C 0.25284 0.82096 0.30834 0.0
C249 C 0.2496 0.79138 0.29174 0.0
C250 C 0.23241 0.71616 0.26288 0.0
C251 C 0.22648 0.69518 0.23534 0.0
C252 C 0.19874 0.67773 0.23253 0.0
C253 C 0.17635 0.68089 0.25732 0.0
C254 C 0.18198 0.70317 0.28392 0.0
C255 C 0.20992 0.71998 0.2871 0.0
C256 C 0.96586 0.45914 0.237 0.0
C257 C 0.03689 0.55313 0.23449 0.0
O258 O 0.97337 0.47009 0.26683 0.0
Zn259 Zn 0.99994 0.50895 0.28895 0.0
O260 O 0.97581 0.47347 0.21021 0.0
Zn261 Zn 1.00024 0.50702 0.23371 0.0
O262 O 0.03453 0.48037 0.26059 0.0
O263 O 0.02983 0.48637 0.31657 0.0
O264 O 0.02552 0.53855 0.2083 0.0
O265 O 0.0287 0.54417 0.26461 0.0
O266 O 0.97028 0.53506 0.31067 0.0
O267 O 0.96631 0.53602 0.25397 0.0
C268 C 0.04369 0.47461 0.29161 0.0
C269 C 0.9571 0.54492 0.28321 0.0
C270 C 0.95445 0.47602 0.75792 0.0
C271 C 0.03689 0.55414 0.73334 0.0
O272 O 0.9689 0.48628 0.78491 0.0
Zn273 Zn 0.00642 0.51826 0.79816 0.0
O274 O 0.9626 0.48593 0.72834 0.0
Zn275 Zn 0.99542 0.51481 0.7443 0.0
O276 O 0.02827 0.48196 0.76332 0.0
O277 O 0.03599 0.48962 0.81892 0.0
O278 O 0.01902 0.5403 0.71148 0.0
O279 O 0.03405 0.54784 0.76547 0.0
O280 O 0.98739 0.55 0.82572 0.0
O281 O 0.97147 0.55038 0.77134 0.0
C282 C 0.04193 0.47464 0.79173 0.0
C283 C 0.97038 0.56143 0.80194 0.0
C284 C 0.2428 0.97556 0.53338 0.0
C285 C 0.25607 0.05873 0.44344 0.0
O286 O 0.22155 0.98733 0.51488 0.0
Zn287 Zn 0.2472 0.01762 0.48833 0.0
O288 O 0.27024 0.98564 0.52918 0.0
Zn289 Zn 0.29576 0.01826 0.49812 0.0
O290 O 0.31358 0.0483 0.53156 0.0
O291 O 0.26376 0.0509 0.52624 0.0
O292 O 0.28073 0.0497 0.45813 0.0
O293 O 0.23066 0.04675 0.45317 0.0
O294 O 0.27177 0.98546 0.45816 0.0
O295 O 0.32043 0.98871 0.47362 0.0
C296 C 0.289 0.06066 0.54031 0.0
C297 C 0.29898 0.97637 0.45495 0.0
C298 C 0.54496 0.71548 0.03835 0.0
C299 C 0.46973 0.71042 0.94221 0.0
O300 O 0.53622 0.69028 0.02213 0.0
Zn301 Zn 0.50701 0.71092 0.99064 0.0
O302 O 0.53279 0.7422 0.03076 0.0
Zn303 Zn 0.49987 0.76146 0.99582 0.0
O304 O 0.46874 0.77531 0.02625 0.0
O305 O 0.47155 0.7226 0.02406 0.0
O306 O 0.4736 0.73836 0.95544 0.0
O307 O 0.4849 0.68722 0.95434 0.0
O308 O 0.53639 0.74224 0.96174 0.0
O309 O 0.52543 0.79265 0.9713 0.0
C310 C 0.45906 0.74746 0.03555 0.0
C311 C 0.54155 0.77239 0.95666 0.0
C312 C 0.74837 0.96554 0.55267 0.0
C313 C 0.73761 0.04359 0.4582 0.0
O314 O 0.72363 0.97243 0.53709 0.0
Zn315 Zn 0.74135 0.00351 0.50482 0.0
O316 O 0.77347 0.97894 0.54316 0.0
Zn317 Zn 0.78972 0.01291 0.50574 0.0
O318 O 0.80766 0.04622 0.53507 0.0
O319 O 0.75775 0.04141 0.53842 0.0
O320 O 0.76494 0.0407 0.46939 0.0
O321 O 0.7163 0.026 0.47068 0.0
O322 O 0.76593 0.97286 0.47333 0.0
O323 O 0.81455 0.98737 0.47623 0.0
C324 C 0.78308 0.0553 0.54772 0.0
C325 C 0.79323 0.96895 0.46431 0.0
C326 C 0.53865 0.26491 0.03391 0.0
C327 C 0.44414 0.27106 0.96634 0.0
O328 O 0.52011 0.24164 0.02702 0.0
Zn329 Zn 0.49045 0.26659 0.00125 0.0
O330 O 0.53229 0.29355 0.02472 0.0
Zn331 Zn 0.49707 0.31801 0.99825 0.0
O332 O 0.47963 0.344 0.03378 0.0
O333 O 0.46889 0.29223 0.04033 0.0
O334 O 0.4572 0.29852 0.9723 0.0
O335 O 0.45606 0.2455 0.97769 0.0
O336 O 0.51583 0.28441 0.95838 0.0
O337 O 0.52028 0.33738 0.96059 0.0
C338 C 0.46615 0.3212 0.05013 0.0
C339 C 0.52582 0.31123 0.94577 0.0
H340 H 0.16616 0.40925 0.33558 0.0
H341 H 0.16264 0.38535 0.22767 0.0
H342 H 0.11457 0.41194 0.22032 0.0
H343 H 0.07387 0.44226 0.24407 0.0
H344 H 0.07601 0.46521 0.35212 0.0
H345 H 0.12392 0.43778 0.36002 0.0
C346 C 0.15474 0.40949 0.31052 0.0
C347 C 0.16828 0.39545 0.28217 0.0
C348 C 0.12675 0.42443 0.30652 0.0
C349 C 0.15322 0.39648 0.24982 0.0
C350 C 0.12553 0.41145 0.24562 0.0
C351 C 0.08467 0.44119 0.26945 0.0
C352 C 0.07137 0.4559 0.29745 0.0
C353 C 0.11218 0.42558 0.27374 0.0
C354 C 0.08568 0.45405 0.33014 0.0
C355 C 0.11316 0.43849 0.33463 0.0
H356 H 0.15011 0.63001 0.67153 0.0
H357 H 0.15645 0.66506 0.77556 0.0
H358 H 0.10975 0.63496 0.7895 0.0
H359 H 0.06885 0.59662 0.77322 0.0
H360 H 0.06161 0.56114 0.66941 0.0
H361 H 0.10684 0.59371 0.65415 0.0
C362 C 0.14119 0.63102 0.69721 0.0
C363 C 0.15677 0.64961 0.72254 0.0
C364 C 0.11424 0.61363 0.70506 0.0
C365 C 0.14477 0.65112 0.75557 0.0
C366 C 0.11815 0.6338 0.7636 0.0
C367 C 0.07701 0.5961 0.74716 0.0
C368 C 0.06204 0.57625 0.72256 0.0
C369 C 0.10294 0.61471 0.73869 0.0
C370 C 0.07271 0.57623 0.68881 0.0
C371 C 0.09865 0.59471 0.68015 0.0
H372 H 0.86662 0.65741 0.3002 0.0
H373 H 0.84071 0.62812 0.19704 0.0
H374 H 0.87562 0.58418 0.20129 0.0
H375 H 0.9159 0.55646 0.23238 0.0
H376 H 0.94209 0.58438 0.33578 0.0
H377 H 0.90418 0.62604 0.33364 0.0
C378 C 0.86823 0.64106 0.2789 0.0
C379 C 0.8514 0.64642 0.24812 0.0
C380 C 0.88845 0.61569 0.2815 0.0
C381 C 0.85387 0.62504 0.22072 0.0
C382 C 0.87374 0.5998 0.22316 0.0
C383 C 0.91321 0.5715 0.2546 0.0
C384 C 0.93203 0.56759 0.28404 0.0
C385 C 0.8916 0.59535 0.2531 0.0
C386 C 0.92791 0.58694 0.31277 0.0
C387 C 0.90634 0.61085 0.31149 0.0
H388 H 0.84855 0.38073 0.80364 0.0
H389 H 0.85217 0.35217 0.69757 0.0
H390 H 0.89131 0.39412 0.68709 0.0
H391 H 0.92661 0.43719 0.70917 0.0
H392 H 0.92381 0.46298 0.81629 0.0
H393 H 0.88265 0.42357 0.82525 0.0
C394 C 0.85804 0.38344 0.77826 0.0
C395 C 0.84762 0.36308 0.75156 0.0
C396 C 0.88087 0.40707 0.77262 0.0
C397 C 0.85962 0.36761 0.71859 0.0
C398 C 0.88216 0.39147 0.71263 0.0
C399 C 0.91683 0.43428 0.73437 0.0
C400 C 0.92844 0.4529 0.76203 0.0
C401 C 0.89325 0.41111 0.73959 0.0
C402 C 0.91555 0.4488 0.79459 0.0
C403 C 0.89193 0.42628 0.79978 0.0
H404 H 0.29716 0.17024 0.34315 0.0
H405 H 0.20931 0.20472 0.36715 0.0
H406 H 0.19742 0.15485 0.39893 0.0
H407 H 0.21445 0.10369 0.4251 0.0
H408 H 0.30331 0.07105 0.40191 0.0
H409 H 0.31221 0.11764 0.36459 0.0
C410 C 0.27535 0.16675 0.35519 0.0
C411 C 0.25432 0.19125 0.35316 0.0
C412 C 0.26887 0.13831 0.37374 0.0
C413 C 0.22589 0.18615 0.36829 0.0
C414 C 0.21914 0.15772 0.38663 0.0
C415 C 0.23545 0.10651 0.41128 0.0
C416 C 0.25829 0.08412 0.41654 0.0
C417 C 0.24076 0.13389 0.39024 0.0
C418 C 0.28549 0.08815 0.39861 0.0
C419 C 0.29066 0.11482 0.37728 0.0
H420 H 0.3849 0.67518 0.81268 0.0
H421 H 0.3485 0.76652 0.83758 0.0
H422 H 0.38416 0.7717 0.88647 0.0
H423 H 0.42623 0.75114 0.92137 0.0
H424 H 0.46271 0.65947 0.89801 0.0
H425 H 0.42653 0.65359 0.84927 0.0
C426 C 0.38486 0.69622 0.82881 0.0
C427 C 0.36402 0.72043 0.82146 0.0
C428 C 0.40546 0.69902 0.85708 0.0
C429 C 0.36401 0.74738 0.84285 0.0
C430 C 0.38453 0.75045 0.87071 0.0
C431 C 0.42637 0.72983 0.90565 0.0
C432 C 0.44736 0.70588 0.91323 0.0
C433 C 0.40542 0.72653 0.87795 0.0
C434 C 0.44685 0.67829 0.89277 0.0
C435 C 0.42619 0.67495 0.86485 0.0
H436 H 0.81828 0.88216 0.33757 0.0
H437 H 0.749 0.8223 0.38602 0.0
H438 H 0.74721 0.86025 0.43282 0.0
H439 H 0.7633 0.91164 0.45876 0.0
H440 H 0.83525 0.96953 0.41359 0.0
H441 H 0.83881 0.93037 0.36738 0.0
C442 C 0.80322 0.87684 0.35864 0.0
C443 C 0.78336 0.84941 0.35752 0.0
C444 C 0.80287 0.89838 0.38623 0.0
C445 C 0.76386 0.84356 0.38522 0.0
C446 C 0.76301 0.86513 0.41234 0.0
C447 C 0.78 0.91549 0.43897 0.0
C448 C 0.79881 0.94351 0.43933 0.0
C449 C 0.78203 0.89284 0.4128 0.0
C450 C 0.82061 0.94807 0.41388 0.0
C451 C 0.82247 0.92579 0.38736 0.0
H452 H 0.60698 0.27119 0.82462 0.0
H453 H 0.66749 0.34332 0.87067 0.0
H454 H 0.62761 0.35872 0.90869 0.0
H455 H 0.57741 0.34732 0.93391 0.0
H456 H 0.51903 0.27183 0.8912 0.0
H457 H 0.55597 0.26218 0.84713 0.0
C458 C 0.6115 0.29032 0.84291 0.0
C459 C 0.64043 0.30581 0.84474 0.0
C460 C 0.58873 0.29842 0.86557 0.0
C461 C 0.64546 0.33108 0.86821 0.0
C462 C 0.62268 0.33978 0.89029 0.0
C463 C 0.57253 0.32938 0.91436 0.0
C464 C 0.54554 0.31039 0.91566 0.0
C465 C 0.59446 0.32309 0.88982 0.0
C466 C 0.53968 0.28675 0.89064 0.0
C467 C 0.56085 0.28111 0.86555 0.0
H468 H 0.21507 0.8443 0.61123 0.0
H469 H 0.30175 0.87091 0.6592 0.0
H470 H 0.30152 0.92274 0.62969 0.0
H471 H 0.27964 0.95824 0.58624 0.0
H472 H 0.19421 0.93206 0.53556 0.0
H473 H 0.19087 0.88248 0.57038 0.0
C474 C 0.23384 0.8615 0.61531 0.0
C475 C 0.25847 0.85351 0.63738 0.0
C476 C 0.23386 0.89129 0.59768 0.0
C477 C 0.28233 0.87638 0.64278 0.0
C478 C 0.28236 0.90601 0.62567 0.0
C479 C 0.26006 0.94189 0.58301 0.0
C480 C 0.23738 0.94864 0.55805 0.0
C481 C 0.25863 0.91338 0.60252 0.0
C482 C 0.21197 0.92744 0.5546 0.0
C483 C 0.2102 0.89899 0.57432 0.0
H484 H 0.65167 0.69668 0.14905 0.0
H485 H 0.65945 0.79971 0.13394 0.0
H486 H 0.61616 0.79756 0.09425 0.0
H487 H 0.57707 0.76713 0.06235 0.0
H488 H 0.57025 0.66387 0.07251 0.0
H489 H 0.6126 0.66546 0.11497 0.0
C490 C 0.64408 0.71867 0.13695 0.0
C491 C 0.65882 0.74841 0.1453 0.0
C492 C 0.61941 0.71727 0.113 0.0
C493 C 0.64827 0.77655 0.12924 0.0
C494 C 0.6236 0.77537 0.10606 0.0
C495 C 0.5846 0.74486 0.07393 0.0
C496 C 0.57028 0.71542 0.0644 0.0
C497 C 0.60908 0.74594 0.09772 0.0
C498 C 0.5808 0.68687 0.0794 0.0
C499 C 0.60501 0.6878 0.10369 0.0
H500 H 0.80371 0.16335 0.65981 0.0
H501 H 0.70586 0.1542 0.66054 0.0
H502 H 0.70623 0.11442 0.61507 0.0
H503 H 0.7342 0.0807 0.57683 0.0
H504 H 0.83213 0.08854 0.57664 0.0
H505 H 0.83182 0.13011 0.62051 0.0
C506 C 0.78246 0.15254 0.65016 0.0
C507 C 0.75479 0.16178 0.66375 0.0
C508 C 0.78284 0.12932 0.62425 0.0
C509 C 0.72746 0.14791 0.65038 0.0
C510 C 0.72766 0.12495 0.62453 0.0
C511 C 0.75555 0.09149 0.58626 0.0
C512 C 0.78318 0.08133 0.57348 0.0
C513 C 0.7552 0.11527 0.6115 0.0
C514 C 0.81053 0.0958 0.586 0.0
C515 C 0.81037 0.11958 0.61112 0.0
H516 H 0.38228 0.36716 0.16877 0.0
H517 H 0.35958 0.26542 0.17183 0.0
H518 H 0.39447 0.25669 0.12568 0.0
H519 H 0.43144 0.27738 0.08479 0.0
H520 H 0.45505 0.37883 0.08066 0.0
H521 H 0.42016 0.3881 0.1273 0.0
C522 C 0.38509 0.34307 0.15945 0.0
C523 C 0.36805 0.31703 0.1737 0.0
C524 C 0.40549 0.3381 0.13287 0.0
C525 C 0.37184 0.28601 0.161 0.0
C526 C 0.39203 0.28092 0.13476 0.0
C527 C 0.42916 0.30159 0.09408 0.0
C528 C 0.44601 0.32736 0.07922 0.0
C529 C 0.40895 0.30674 0.12055 0.0
C530 C 0.44247 0.35852 0.09163 0.0
C531 C 0.42246 0.36383 0.11827 0.0
H532 H 0.89599 0.68055 0.84564 0.0
H533 H 0.84303 0.65228 0.75513 0.0
H534 H 0.87623 0.60782 0.74657 0.0
H535 H 0.92083 0.57755 0.76376 0.0
H536 H 0.97239 0.60337 0.85583 0.0
H537 H 0.93873 0.64776 0.86519 0.0
C538 C 0.89132 0.66441 0.82434 0.0
C539 C 0.8671 0.67022 0.80085 0.0
C540 C 0.91027 0.63839 0.81982 0.0
C541 C 0.86184 0.64906 0.7732 0.0
C542 C 0.88071 0.62341 0.76838 0.0
C543 C 0.92473 0.59286 0.78592 0.0
C544 C 0.94927 0.58733 0.8089 0.0
C545 C 0.90516 0.61805 0.79129 0.0
C546 C 0.95369 0.60711 0.83775 0.0
C547 C 0.93449 0.63254 0.84305 0.0
H548 H 0.88772 0.33027 0.255 0.0
H549 H 0.84849 0.36169 0.15807 0.0
H550 H 0.88349 0.4088 0.15764 0.0
H551 H 0.92517 0.44152 0.18547 0.0
H552 H 0.96197 0.41077 0.28399 0.0
H553 H 0.92842 0.36293 0.28296 0.0
C554 C 0.88698 0.34735 0.23369 0.0
C555 C 0.86564 0.34246 0.20657 0.0
C556 C 0.90686 0.37451 0.23386 0.0
C557 C 0.8646 0.36506 0.17938 0.0
C558 C 0.8847 0.3919 0.17904 0.0
C559 C 0.92594 0.42417 0.20651 0.0
C560 C 0.94611 0.42965 0.2347 0.0
C561 C 0.90594 0.39694 0.20619 0.0
C562 C 0.94659 0.40719 0.26204 0.0
C563 C 0.92741 0.37979 0.2615 0.0
H564 H 0.1518 0.38143 0.80923 0.0
H565 H 0.12699 0.36364 0.7027 0.0
H566 H 0.08432 0.39866 0.7066 0.0
H567 H 0.05585 0.43678 0.7387 0.0
H568 H 0.08082 0.45678 0.84463 0.0
H569 H 0.12169 0.41864 0.84237 0.0
C570 C 0.13707 0.38522 0.78686 0.0
C571 C 0.14273 0.36974 0.75571 0.0
C572 C 0.11269 0.40597 0.78906 0.0
C573 C 0.12305 0.37467 0.72717 0.0
C574 C 0.09873 0.39499 0.72926 0.0
C575 C 0.07008 0.43277 0.76145 0.0
C576 C 0.06533 0.44986 0.79174 0.0
C577 C 0.09359 0.41108 0.75988 0.0
C578 C 0.08394 0.44404 0.82095 0.0
C579 C 0.10738 0.42227 0.81964 0.0
H580 H 0.14221 0.65644 0.20224 0.0
H581 H 0.14862 0.65453 0.3135 0.0
H582 H 0.10515 0.61739 0.31558 0.0
H583 H 0.06701 0.58339 0.28677 0.0
H584 H 0.06116 0.58094 0.17579 0.0
H585 H 0.10292 0.62151 0.17278 0.0
C586 C 0.13418 0.64785 0.22695 0.0
C587 C 0.14873 0.6589 0.25767 0.0
C588 C 0.10935 0.62549 0.22809 0.0
C589 C 0.13764 0.64747 0.28938 0.0
C590 C 0.11286 0.62581 0.29067 0.0
C591 C 0.0746 0.59175 0.26176 0.0
C592 C 0.06086 0.57903 0.23153 0.0
C593 C 0.09875 0.6145 0.26028 0.0
C594 C 0.07126 0.59027 0.1995 0.0
C595 C 0.09519 0.61343 0.19779 0.0
H596 H 0.74067 0.85364 0.66381 0.0
H597 H 0.82117 0.90546 0.70223 0.0
H598 H 0.81692 0.9441 0.65528 0.0
H599 H 0.79061 0.96376 0.60376 0.0
H600 H 0.70792 0.91565 0.56708 0.0
H601 H 0.71219 0.87563 0.6138 0.0
C602 C 0.75712 0.87355 0.6623 0.0
C603 C 0.78153 0.87604 0.68656 0.0
C604 C 0.754 0.89661 0.63574 0.0
C605 C 0.80269 0.90203 0.68358 0.0
C606 C 0.8001 0.92453 0.6569 0.0
C607 C 0.77346 0.94453 0.60596 0.0
C608 C 0.74911 0.94247 0.58189 0.0
C609 C 0.77593 0.92201 0.63287 0.0
C610 C 0.72684 0.91774 0.58538 0.0
C611 C 0.72939 0.89481 0.61195 0.0
H612 H 0.67491 0.26537 0.08592 0.0
H613 H 0.63567 0.209 0.16832 0.0
H614 H 0.58553 0.21051 0.13956 0.0
H615 H 0.55255 0.2294 0.0913 0.0
H616 H 0.59189 0.28951 0.01179 0.0
H617 H 0.64227 0.28475 0.03863 0.0
C618 C 0.65535 0.25331 0.09739 0.0
C619 C 0.6588 0.23707 0.12901 0.0
C620 C 0.62666 0.25489 0.08112 0.0
C621 C 0.63335 0.22182 0.144 0.0
C622 C 0.60478 0.22258 0.12753 0.0
C623 C 0.5723 0.24108 0.07983 0.0
C624 C 0.56877 0.25957 0.04963 0.0
C625 C 0.6011 0.23918 0.09611 0.0
C626 C 0.59426 0.27515 0.03512 0.0
C627 C 0.62301 0.27249 0.05043 0.0
H628 H 0.30625 0.18316 0.63414 0.0
H629 H 0.20923 0.16797 0.64068 0.0
H630 H 0.21135 0.1197 0.60591 0.0
H631 H 0.24027 0.08337 0.57169 0.0
H632 H 0.33738 0.09788 0.56484 0.0
H633 H 0.33576 0.14485 0.60192 0.0
C634 C 0.28559 0.16928 0.62784 0.0
C635 C 0.25757 0.17924 0.63973 0.0
C636 C 0.287 0.1415 0.60787 0.0
C637 C 0.23105 0.16073 0.63196 0.0
C638 C 0.23225 0.13322 0.61198 0.0
C639 C 0.26116 0.09667 0.57839 0.0
C640 C 0.28889 0.08725 0.56527 0.0
C641 C 0.26003 0.12359 0.59955 0.0
C642 C 0.31574 0.10459 0.57458 0.0
C643 C 0.3148 0.13153 0.59565 0.0
H644 H 0.35554 0.70263 0.136 0.0
H645 H 0.35421 0.80451 0.15407 0.0
H646 H 0.3929 0.8143 0.11083 0.0
H647 H 0.42939 0.7934 0.07016 0.0
H648 H 0.43116 0.69099 0.0545 0.0
H649 H 0.3905 0.68204 0.09484 0.0
C650 C 0.36377 0.72699 0.1306 0.0
C651 C 0.35213 0.75273 0.14845 0.0
C652 C 0.38638 0.73238 0.1063 0.0
C653 C 0.36258 0.78423 0.14052 0.0
C654 C 0.38491 0.78984 0.11599 0.0
C655 C 0.42078 0.76917 0.0755 0.0
C656 C 0.43355 0.74295 0.05943 0.0
C657 C 0.39732 0.76403 0.09905 0.0
C658 C 0.42202 0.71168 0.0666 0.0
C659 C 0.39866 0.70646 0.08967 0.0
H660 H 0.72722 0.11538 0.3164 0.0
H661 H 0.77962 0.18768 0.37352 0.0
H662 H 0.7753 0.15504 0.42558 0.0
H663 H 0.76014 0.10416 0.45398 0.0
H664 H 0.7042 0.03404 0.39882 0.0
H665 H 0.70521 0.06853 0.34709 0.0
C666 C 0.73707 0.12466 0.34025 0.0
C667 C 0.7544 0.15391 0.3404 0.0
C668 C 0.73367 0.10623 0.37058 0.0
C669 C 0.76714 0.16486 0.37194 0.0
C670 C 0.76439 0.14636 0.40198 0.0
C671 C 0.74762 0.09683 0.43078 0.0
C672 C 0.73222 0.06671 0.42993 0.0
C673 C 0.74829 0.11673 0.4014 0.0
C674 C 0.71597 0.05732 0.39999 0.0
C675 C 0.71684 0.07687 0.3704 0.0
H676 H 0.32845 0.29964 0.87559 0.0
H677 H 0.35593 0.21503 0.82383 0.0
H678 H 0.39537 0.20659 0.86832 0.0
H679 H 0.42537 0.22673 0.91874 0.0
H680 H 0.39972 0.31386 0.96716 0.0
H681 H 0.35595 0.31759 0.92772 0.0
C682 C 0.34264 0.27895 0.87452 0.0
C683 C 0.33938 0.258 0.84658 0.0
C684 C 0.36573 0.27485 0.89953 0.0
C685 C 0.35822 0.23158 0.84508 0.0
C686 C 0.38074 0.22677 0.87047 0.0
C687 C 0.40978 0.2461 0.92097 0.0
C688 C 0.41567 0.27003 0.94563 0.0
C689 C 0.38522 0.24873 0.89736 0.0
C690 C 0.39565 0.29529 0.94814 0.0
C691 C 0.37067 0.29747 0.92561 0.0
H692 H 0.31657 0.84553 0.38153 0.0
H693 H 0.25264 0.88732 0.309 0.0
H694 H 0.25408 0.93647 0.34208 0.0
H695 H 0.2709 0.96648 0.39346 0.0
H696 H 0.33782 0.92706 0.46333 0.0
H697 H 0.33881 0.87852 0.42839 0.0
C698 C 0.30344 0.86551 0.37227 0.0
C699 C 0.28398 0.86205 0.34296 0.0
C700 C 0.30507 0.8943 0.39083 0.0
C701 C 0.26701 0.88849 0.33201 0.0
C702 C 0.26806 0.9169 0.35072 0.0
C703 C 0.28607 0.94743 0.40068 0.0
C704 C 0.30411 0.9501 0.43096 0.0
C705 C 0.28655 0.91982 0.38048 0.0
C706 C 0.32388 0.92554 0.43998 0.0
C707 C 0.32421 0.89771 0.42019 0.0
H708 H 0.66978 0.81815 0.90512 0.0
H709 H 0.65482 0.73416 0.84179 0.0
H710 H 0.60421 0.72602 0.86435 0.0
H711 H 0.56529 0.74066 0.90443 0.0
H712 H 0.57833 0.82621 0.9651 0.0
H713 H 0.62813 0.83667 0.93983 0.0
C714 C 0.65536 0.79841 0.89559 0.0
C715 C 0.6667 0.77644 0.8722 0.0
C716 C 0.62576 0.79431 0.90792 0.0
C717 C 0.64741 0.75088 0.86063 0.0
C718 C 0.6182 0.74638 0.8732 0.0
C719 C 0.57885 0.76191 0.91168 0.0
C720 C 0.56833 0.78254 0.9367 0.0
C721 C 0.60736 0.76761 0.89724 0.0
C722 C 0.5859 0.81011 0.94569 0.0
C723 C 0.61449 0.81588 0.93152 0.0
loop_
_geom_bond_atom_site_label_1
_geom_bond_atom_site_label_2
_geom_bond_distance
_geom_bond_site_symmetry_2
_ccdc_geom_bond_type
P0 O11 1.490 . S
P0 C14 1.812 . S
P0 C20 1.803 . S
P0 C26 1.819 . S
H1 C15 0.941 . S
H2 C16 0.939 . S
H3 C18 0.940 . S
H4 C19 0.940 . S
H5 C21 0.939 . S
H6 C22 0.942 . S
H7 C24 0.940 . S
H8 C25 0.939 . S
H9 C27 0.941 . S
H10 C31 0.939 . S
O11 P0 1.490 . S
H12 C28 0.939 . S
H13 C30 0.940 . S
C14 P0 1.812 . S
C14 C15 1.389 . S
C14 C19 1.391 . S
C15 H1 0.941 . S
C15 C14 1.389 . S
C15 C16 1.397 . S
C16 H2 0.939 . S
C16 C15 1.397 . S
C16 C17 1.378 . S
C17 C16 1.378 . S
C17 C18 1.378 . S
C18 H3 0.940 . S
C18 C17 1.378 . S
C18 C19 1.396 . S
C19 H4 0.940 . S
C19 C14 1.391 . S
C19 C18 1.396 . S
C20 P0 1.803 . S
C20 C21 1.378 . S
C20 C25 1.400 . S
C21 H5 0.939 . S
C21 C20 1.378 . S
C21 C22 1.361 . S
C22 H6 0.942 . S
C22 C21 1.361 . S
C22 C23 1.369 . S
C23 C22 1.369 . S
C23 C24 1.404 . S
C24 H7 0.940 . S
C24 C23 1.404 . S
C24 C25 1.389 . S
C25 H8 0.939 . S
C25 C20 1.400 . S
C25 C24 1.389 . S
C26 P0 1.819 . S
C26 C27 1.391 . S
C26 C31 1.391 . S
C27 H9 0.941 . S
C27 C26 1.391 . S
C27 C28 1.396 . S
C28 H12 0.939 . S
C28 C27 1.396 . S
C28 C29 1.397 . S
C29 C28 1.397 . S
C29 C30 1.385 . S
C30 H13 0.940 . S
C30 C29 1.385 . S
C30 C31 1.388 . S
C31 H10 0.939 . S
C31 C26 1.391 . S
C31 C30 1.388 . S
P32 O43 1.490 . S
P32 C46 1.812 . S
P32 C52 1.803 . S
P32 C58 1.819 . S
H33 C47 0.941 . S
H34 C48 0.939 . S
H35 C50 0.940 . S
H36 C51 0.940 . S
H37 C53 0.939 . S
H38 C54 0.942 . S
H39 C56 0.940 . S
H40 C57 0.939 . S
H41 C59 0.941 . S
H42 C63 0.939 . S
O43 P32 1.490 . S
H44 C60 0.939 . S
H45 C62 0.940 . S
C46 P32 1.812 . S
C46 C47 1.389 . S
C46 C51 1.391 . S
C47 H33 0.941 . S
C47 C46 1.389 . S
C47 C48 1.397 . S
C48 H34 0.939 . S
C48 C47 1.397 . S
C48 C49 1.378 . S
C49 C48 1.378 . S
C49 C50 1.378 . S
C50 H35 0.940 . S
C50 C49 1.378 . S
C50 C51 1.396 . S
C51 H36 0.940 . S
C51 C46 1.391 . S
C51 C50 1.396 . S
C52 P32 1.803 . S
C52 C53 1.378 . S
C52 C57 1.400 . S
C53 H37 0.939 . S
C53 C52 1.378 . S
C53 C54 1.361 . S
C54 H38 0.942 . S
C54 C53 1.361 . S
C54 C55 1.369 . S
C55 C54 1.369 . S
C55 C56 1.404 . S
C56 H39 0.940 . S
C56 C55 1.404 . S
C56 C57 1.389 . S
C57 H40 0.939 . S
C57 C52 1.400 . S
C57 C56 1.389 . S
C58 P32 1.819 . S
C58 C59 1.391 . S
C58 C63 1.391 . S
C59 H41 0.941 . S
C59 C58 1.391 . S
C59 C60 1.396 . S
C60 H44 0.939 . S
C60 C59 1.396 . S
C60 C61 1.397 . S
C61 C60 1.397 . S
C61 C62 1.385 . S
C62 H45 0.940 . S
C62 C61 1.385 . S
C62 C63 1.388 . S
C63 H42 0.939 . S
C63 C58 1.391 . S
C63 C62 1.388 . S
P64 O75 1.490 . S
P64 C78 1.812 . S
P64 C84 1.803 . S
P64 C90 1.819 . S
H65 C79 0.941 . S
H66 C80 0.939 . S
H67 C82 0.940 . S
H68 C83 0.940 . S
H69 C85 0.939 . S
H70 C86 0.942 . S
H71 C88 0.940 . S
H72 C89 0.939 . S
H73 C91 0.941 . S
H74 C95 0.939 . S
O75 P64 1.490 . S
H76 C92 0.939 . S
H77 C94 0.940 . S
C78 P64 1.812 . S
C78 C79 1.389 . S
C78 C83 1.391 . S
C79 H65 0.941 . S
C79 C78 1.389 . S
C79 C80 1.397 . S
C80 H66 0.939 . S
C80 C79 1.397 . S
C80 C81 1.378 . S
C81 C80 1.378 . S
C81 C82 1.378 . S
C82 H67 0.940 . S
C82 C81 1.378 . S
C82 C83 1.396 . S
C83 H68 0.940 . S
C83 C78 1.391 . S
C83 C82 1.396 . S
C84 P64 1.803 . S
C84 C85 1.378 . S
C84 C89 1.400 . S
C85 H69 0.939 . S
C85 C84 1.378 . S
C85 C86 1.361 . S
C86 H70 0.942 . S
C86 C85 1.361 . S
C86 C87 1.369 . S
C87 C86 1.369 . S
C87 C88 1.404 . S
C88 H71 0.940 . S
C88 C87 1.404 . S
C88 C89 1.389 . S
C89 H72 0.939 . S
C89 C84 1.400 . S
C89 C88 1.389 . S
C90 P64 1.819 . S
C90 C91 1.391 . S
C90 C95 1.391 . S
C91 H73 0.941 . S
C91 C90 1.391 . S
C91 C92 1.396 . S
C92 H76 0.939 . S
C92 C91 1.396 . S
C92 C93 1.397 . S
C93 C92 1.397 . S
C93 C94 1.385 . S
C94 H77 0.940 . S
C94 C93 1.385 . S
C94 C95 1.388 . S
C95 H74 0.939 . S
C95 C90 1.391 . S
C95 C94 1.388 . S
P96 O107 1.490 . S
P96 C110 1.812 . S
P96 C116 1.803 . S
P96 C122 1.819 . S
H97 C111 0.941 . S
H98 C112 0.939 . S
H99 C114 0.940 . S
H100 C115 0.940 . S
H101 C117 0.939 . S
H102 C118 0.942 . S
H103 C120 0.940 . S
H104 C121 0.939 . S
H105 C123 0.941 . S
H106 C127 0.939 . S
O107 P96 1.490 . S
H108 C124 0.939 . S
H109 C126 0.940 . S
C110 P96 1.812 . S
C110 C111 1.389 . S
C110 C115 1.391 . S
C111 H97 0.941 . S
C111 C110 1.389 . S
C111 C112 1.397 . S
C112 H98 0.939 . S
C112 C111 1.397 . S
C112 C113 1.378 . S
C113 C112 1.378 . S
C113 C114 1.378 . S
C114 H99 0.940 . S
C114 C113 1.378 . S
C114 C115 1.396 . S
C115 H100 0.940 . S
C115 C110 1.391 . S
C115 C114 1.396 . S
C116 P96 1.803 . S
C116 C117 1.378 . S
C116 C121 1.400 . S
C117 H101 0.939 . S
C117 C116 1.378 . S
C117 C118 1.361 . S
C118 H102 0.942 . S
C118 C117 1.361 . S
C118 C119 1.369 . S
C119 C118 1.369 . S
C119 C120 1.404 . S
C120 H103 0.940 . S
C120 C119 1.404 . S
C120 C121 1.389 . S
C121 H104 0.939 . S
C121 C116 1.400 . S
C121 C120 1.389 . S
C122 P96 1.819 . S
C122 C123 1.391 . S
C122 C127 1.391 . S
C123 H105 0.941 . S
C123 C122 1.391 . S
C123 C124 1.396 . S
C124 H108 0.939 . S
C124 C123 1.396 . S
C124 C125 1.397 . S
C125 C124 1.397 . S
C125 C126 1.385 . S
C126 H109 0.940 . S
C126 C125 1.385 . S
C126 C127 1.388 . S
C127 H106 0.939 . S
C127 C122 1.391 . S
C127 C126 1.388 . S
P128 O139 1.490 . S
P128 C142 1.812 . S
P128 C148 1.803 . S
P128 C154 1.819 . S
H129 C143 0.941 . S
H130 C144 0.939 . S
H131 C146 0.940 . S
H132 C147 0.940 . S
H133 C149 0.939 . S
H134 C150 0.942 . S
H135 C152 0.940 . S
H136 C153 0.939 . S
H137 C155 0.941 . S
H138 C159 0.939 . S
O139 P128 1.490 . S
H140 C156 0.939 . S
H141 C158 0.940 . S
C142 P128 1.812 . S
C142 C143 1.389 . S
C142 C147 1.391 . S
C143 H129 0.941 . S
C143 C142 1.389 . S
C143 C144 1.397 . S
C144 H130 0.939 . S
C144 C143 1.397 . S
C144 C145 1.378 . S
C145 C144 1.378 . S
C145 C146 1.378 . S
C146 H131 0.940 . S
C146 C145 1.378 . S
C146 C147 1.396 . S
C147 H132 0.940 . S
C147 C142 1.391 . S
C147 C146 1.396 . S
C148 P128 1.803 . S
C148 C149 1.378 . S
C148 C153 1.400 . S
C149 H133 0.939 . S
C149 C148 1.378 . S
C149 C150 1.361 . S
C150 H134 0.942 . S
C150 C149 1.361 . S
C150 C151 1.369 . S
C151 C150 1.369 . S
C151 C152 1.404 . S
C152 H135 0.940 . S
C152 C151 1.404 . S
C152 C153 1.389 . S
C153 H136 0.939 . S
C153 C148 1.400 . S
C153 C152 1.389 . S
C154 P128 1.819 . S
C154 C155 1.391 . S
C154 C159 1.391 . S
C155 H137 0.941 . S
C155 C154 1.391 . S
C155 C156 1.396 . S
C156 H140 0.939 . S
C156 C155 1.396 . S
C156 C157 1.397 . S
C157 C156 1.397 . S
C157 C158 1.385 . S
C158 H141 0.940 . S
C158 C157 1.385 . S
C158 C159 1.388 . S
C159 H138 0.939 . S
C159 C154 1.391 . S
C159 C158 1.388 . S
P160 O171 1.490 . S
P160 C174 1.812 . S
P160 C180 1.803 . S
P160 C186 1.819 . S
H161 C175 0.941 . S
H162 C176 0.939 . S
H163 C178 0.940 . S
H164 C179 0.940 . S
H165 C181 0.939 . S
H166 C182 0.942 . S
H167 C184 0.940 . S
H168 C185 0.939 . S
H169 C187 0.941 . S
H170 C191 0.939 . S
O171 P160 1.490 . S
H172 C188 0.939 . S
H173 C190 0.940 . S
C174 P160 1.812 . S
C174 C175 1.389 . S
C174 C179 1.391 . S
C175 H161 0.941 . S
C175 C174 1.389 . S
C175 C176 1.397 . S
C176 H162 0.939 . S
C176 C175 1.397 . S
C176 C177 1.378 . S
C177 C176 1.378 . S
C177 C178 1.378 . S
C178 H163 0.940 . S
C178 C177 1.378 . S
C178 C179 1.396 . S
C179 H164 0.940 . S
C179 C174 1.391 . S
C179 C178 1.396 . S
C180 P160 1.803 . S
C180 C181 1.378 . S
C180 C185 1.400 . S
C181 H165 0.939 . S
C181 C180 1.378 . S
C181 C182 1.361 . S
C182 H166 0.942 . S
C182 C181 1.361 . S
C182 C183 1.369 . S
C183 C182 1.369 . S
C183 C184 1.404 . S
C184 H167 0.940 . S
C184 C183 1.404 . S
C184 C185 1.389 . S
C185 H168 0.939 . S
C185 C180 1.400 . S
C185 C184 1.389 . S
C186 P160 1.819 . S
C186 C187 1.391 . S
C186 C191 1.391 . S
C187 H169 0.941 . S
C187 C186 1.391 . S
C187 C188 1.396 . S
C188 H172 0.939 . S
C188 C187 1.396 . S
C188 C189 1.397 . S
C189 C188 1.397 . S
C189 C190 1.385 . S
C190 H173 0.940 . S
C190 C189 1.385 . S
C190 C191 1.388 . S
C191 H170 0.939 . S
C191 C186 1.391 . S
C191 C190 1.388 . S
P192 O203 1.490 . S
P192 C206 1.812 . S
P192 C212 1.803 . S
P192 C218 1.819 . S
H193 C207 0.941 . S
H194 C208 0.939 . S
H195 C210 0.940 . S
H196 C211 0.940 . S
H197 C213 0.939 . S
H198 C214 0.942 . S
H199 C216 0.940 . S
H200 C217 0.939 . S
H201 C219 0.941 . S
H202 C223 0.939 . S
O203 P192 1.490 . S
H204 C220 0.939 . S
H205 C222 0.940 . S
C206 P192 1.812 . S
C206 C207 1.389 . S
C206 C211 1.391 . S
C207 H193 0.941 . S
C207 C206 1.389 . S
C207 C208 1.397 . S
C208 H194 0.939 . S
C208 C207 1.397 . S
C208 C209 1.378 . S
C209 C208 1.378 . S
C209 C210 1.378 . S
C210 H195 0.940 . S
C210 C209 1.378 . S
C210 C211 1.396 . S
C211 H196 0.940 . S
C211 C206 1.391 . S
C211 C210 1.396 . S
C212 P192 1.803 . S
C212 C213 1.378 . S
C212 C217 1.400 . S
C213 H197 0.939 . S
C213 C212 1.378 . S
C213 C214 1.361 . S
C214 H198 0.942 . S
C214 C213 1.361 . S
C214 C215 1.369 . S
C215 C214 1.369 . S
C215 C216 1.404 . S
C216 H199 0.940 . S
C216 C215 1.404 . S
C216 C217 1.389 . S
C217 H200 0.939 . S
C217 C212 1.400 . S
C217 C216 1.389 . S
C218 P192 1.819 . S
C218 C219 1.391 . S
C218 C223 1.391 . S
C219 H201 0.941 . S
C219 C218 1.391 . S
C219 C220 1.396 . S
C220 H204 0.939 . S
C220 C219 1.396 . S
C220 C221 1.397 . S
C221 C220 1.397 . S
C221 C222 1.385 . S
C222 H205 0.940 . S
C222 C221 1.385 . S
C222 C223 1.388 . S
C223 H202 0.939 . S
C223 C218 1.391 . S
C223 C222 1.388 . S
P224 O235 1.490 . S
P224 C238 1.812 . S
P224 C244 1.803 . S
P224 C250 1.819 . S
H225 C239 0.941 . S
H226 C240 0.939 . S
H227 C242 0.940 . S
H228 C243 0.940 . S
H229 C245 0.939 . S
H230 C246 0.942 . S
H231 C248 0.940 . S
H232 C249 0.939 . S
H233 C251 0.941 . S
H234 C255 0.939 . S
O235 P224 1.490 . S
H236 C252 0.939 . S
H237 C254 0.940 . S
C238 P224 1.812 . S
C238 C239 1.389 . S
C238 C243 1.391 . S
C239 H225 0.941 . S
C239 C238 1.389 . S
C239 C240 1.397 . S
C240 H226 0.939 . S
C240 C239 1.397 . S
C240 C241 1.378 . S
C241 C240 1.378 . S
C241 C242 1.378 . S
C242 H227 0.940 . S
C242 C241 1.378 . S
C242 C243 1.396 . S
C243 H228 0.940 . S
C243 C238 1.391 . S
C243 C242 1.396 . S
C244 P224 1.803 . S
C244 C245 1.378 . S
C244 C249 1.400 . S
C245 H229 0.939 . S
C245 C244 1.378 . S
C245 C246 1.361 . S
C246 H230 0.942 . S
C246 C245 1.361 . S
C246 C247 1.369 . S
C247 C246 1.369 . S
C247 C248 1.404 . S
C248 H231 0.940 . S
C248 C247 1.404 . S
C248 C249 1.389 . S
C249 H232 0.939 . S
C249 C244 1.400 . S
C249 C248 1.389 . S
C250 P224 1.819 . S
C250 C251 1.391 . S
C250 C255 1.391 . S
C251 H233 0.941 . S
C251 C250 1.391 . S
C251 C252 1.396 . S
C252 H236 0.939 . S
C252 C251 1.396 . S
C252 C253 1.397 . S
C253 C252 1.397 . S
C253 C254 1.385 . S
C254 H237 0.940 . S
C254 C253 1.385 . S
C254 C255 1.388 . S
C255 H234 0.939 . S
C255 C250 1.391 . S
C255 C254 1.388 . S
C256 O258 1.247 . S
C256 O260 1.258 . S
C257 O264 1.247 . S
C257 O265 1.258 . S
O258 C256 1.247 . S
O258 Zn259 2.028 1_655 S
Zn259 O258 2.028 1_455 S
Zn259 O263 2.035 . S
Zn259 O265 2.035 . S
Zn259 O266 2.028 1_455 S
O260 C256 1.258 . S
O260 Zn261 2.035 1_655 S
Zn261 O260 2.035 1_455 S
Zn261 O262 2.028 . S
Zn261 O264 2.028 . S
Zn261 O267 2.035 1_455 S
O262 Zn261 2.028 . S
O262 C268 1.247 . S
O263 Zn259 2.035 . S
O263 C268 1.258 . S
O264 C257 1.247 . S
O264 Zn261 2.028 . S
O265 C257 1.258 . S
O265 Zn259 2.035 . S
O266 Zn259 2.028 1_655 S
O266 C269 1.247 . S
O267 Zn261 2.035 1_655 S
O267 C269 1.258 . S
C268 O262 1.247 . S
C268 O263 1.258 . S
C269 O266 1.247 . S
C269 O267 1.258 . S
C270 O272 1.247 . S
C270 O274 1.258 . S
C271 O278 1.247 . S
C271 O279 1.258 . S
O272 C270 1.247 . S
O272 Zn273 2.028 1_655 S
Zn273 O272 2.028 1_455 S
Zn273 O277 2.035 . S
Zn273 O279 2.035 . S
Zn273 O280 2.028 1_455 S
O274 C270 1.258 . S
O274 Zn275 2.050 . S
Zn275 O274 2.050 . S
Zn275 O276 2.012 1_655 S
Zn275 O278 2.013 1_655 S
Zn275 O281 2.051 . S
O276 Zn275 2.012 1_455 S
O276 C282 1.247 . S
O277 Zn273 2.035 . S
O277 C282 1.258 . S
O278 C271 1.247 . S
O278 Zn275 2.013 1_455 S
O279 C271 1.258 . S
O279 Zn273 2.035 . S
O280 Zn273 2.028 1_655 S
O280 C283 1.247 . S
O281 Zn275 2.051 . S
O281 C283 1.258 . S
C282 O276 1.247 . S
C282 O277 1.258 . S
C283 O280 1.247 . S
C283 O281 1.258 . S
C284 O286 1.247 . S
C284 O288 1.258 . S
C285 O292 1.247 . S
C285 O293 1.258 . S
O286 C284 1.247 . S
O286 Zn287 2.028 1_565 S
Zn287 O286 2.028 1_545 S
Zn287 O291 2.035 . S
Zn287 O293 2.035 . S
Zn287 O294 2.028 1_545 S
O288 C284 1.258 . S
O288 Zn289 2.035 1_565 S
Zn289 O288 2.035 1_545 S
Zn289 O290 2.028 . S
Zn289 O292 2.028 . S
Zn289 O295 2.035 1_545 S
O290 Zn289 2.028 . S
O290 C296 1.247 . S
O291 Zn287 2.035 . S
O291 C296 1.258 . S
O292 C285 1.247 . S
O292 Zn289 2.028 . S
O293 C285 1.258 . S
O293 Zn287 2.035 . S
O294 Zn287 2.028 1_565 S
O294 C297 1.247 . S
O295 Zn289 2.035 1_565 S
O295 C297 1.258 . S
C296 O290 1.247 . S
C296 O291 1.258 . S
C297 O294 1.247 . S
C297 O295 1.258 . S
C298 O300 1.247 . S
C298 O302 1.258 . S
C299 O306 1.247 . S
C299 O307 1.258 . S
O300 C298 1.247 . S
O300 Zn301 2.028 . S
Zn301 O300 2.028 . S
Zn301 O305 2.035 . S
Zn301 O307 2.035 1_554 S
Zn301 O308 2.028 1_554 S
O302 C298 1.258 . S
O302 Zn303 2.056 . S
Zn303 O302 2.056 . S
Zn303 O304 2.050 . S
Zn303 O306 2.007 1_554 S
Zn303 O309 2.014 1_554 S
O304 Zn303 2.050 . S
O304 C310 1.247 . S
O305 Zn301 2.035 . S
O305 C310 1.258 . S
O306 C299 1.247 . S
O306 Zn303 2.007 1_556 S
O307 C299 1.258 . S
O307 Zn301 2.035 1_556 S
O308 Zn301 2.028 1_556 S
O308 C311 1.247 . S
O309 Zn303 2.014 1_556 S
O309 C311 1.258 . S
C310 O304 1.247 . S
C310 O305 1.258 . S
C311 O308 1.247 . S
C311 O309 1.258 . S
C312 O314 1.247 . S
C312 O316 1.258 . S
C313 O320 1.247 . S
C313 O321 1.258 . S
O314 C312 1.247 . S
O314 Zn315 2.034 . S
Zn315 O314 2.034 . S
Zn315 O319 2.029 1_565 S
Zn315 O321 2.029 1_565 S
Zn315 O322 2.034 . S
O316 C312 1.258 . S
O316 Zn317 2.035 1_565 S
Zn317 O316 2.035 1_545 S
Zn317 O318 2.028 . S
Zn317 O320 2.028 . S
Zn317 O323 2.035 1_545 S
O318 Zn317 2.028 . S
O318 C324 1.247 . S
O319 Zn315 2.029 1_545 S
O319 C324 1.258 . S
O320 C313 1.247 . S
O320 Zn317 2.028 . S
O321 C313 1.258 . S
O321 Zn315 2.029 1_545 S
O322 Zn315 2.034 . S
O322 C325 1.247 . S
O323 Zn317 2.035 1_565 S
O323 C325 1.258 . S
C324 O318 1.247 . S
C324 O319 1.258 . S
C325 O322 1.247 . S
C325 O323 1.258 . S
C326 O328 1.247 . S
C326 O330 1.258 . S
C327 O334 1.247 . S
C327 O335 1.258 . S
O328 C326 1.247 . S
O328 Zn329 2.028 . S
Zn329 O328 2.028 . S
Zn329 O333 2.035 . S
Zn329 O335 2.035 1_554 S
Zn329 O336 2.028 1_554 S
O330 C326 1.258 . S
O330 Zn331 2.029 1_554 S
Zn331 O330 2.029 1_556 S
Zn331 O332 2.022 1_556 S
Zn331 O334 2.034 . S
Zn331 O337 2.041 . S
O332 Zn331 2.022 1_554 S
O332 C338 1.247 . S
O333 Zn329 2.035 . S
O333 C338 1.258 . S
O334 C327 1.247 . S
O334 Zn331 2.034 . S
O335 C327 1.258 . S
O335 Zn329 2.035 1_556 S
O336 Zn329 2.028 1_556 S
O336 C339 1.247 . S
O337 Zn331 2.041 . S
O337 C339 1.258 . S
C338 O332 1.247 . S
C338 O333 1.258 . S
C339 O336 1.247 . S
C339 O337 1.258 . S
H340 C346 0.930 . S
H341 C349 0.930 . S
H342 C350 0.930 . S
H343 C351 0.930 . S
H344 C354 0.930 . S
H345 C355 0.930 . S
C346 H340 0.930 . S
C346 C347 1.355 . S
C346 C348 1.415 . S
C347 C346 1.355 . S
C347 C349 1.419 . S
C348 C346 1.415 . S
C348 C353 1.425 . S
C348 C355 1.409 . S
C349 H341 0.930 . S
C349 C347 1.419 . S
C349 C350 1.362 . S
C350 H342 0.930 . S
C350 C349 1.362 . S
C350 C353 1.409 . S
C351 H343 0.930 . S
C351 C352 1.355 . S
C351 C353 1.415 . S
C352 C351 1.355 . S
C352 C354 1.419 . S
C353 C348 1.425 . S
C353 C350 1.409 . S
C353 C351 1.415 . S
C354 H344 0.930 . S
C354 C352 1.419 . S
C354 C355 1.362 . S
C355 H345 0.930 . S
C355 C348 1.409 . S
C355 C354 1.362 . S
H356 C362 0.930 . S
H357 C365 0.930 . S
H358 C366 0.930 . S
H359 C367 0.930 . S
H360 C370 0.930 . S
H361 C371 0.930 . S
C362 H356 0.930 . S
C362 C363 1.355 . S
C362 C364 1.415 . S
C363 C362 1.355 . S
C363 C365 1.419 . S
C364 C362 1.415 . S
C364 C369 1.425 . S
C364 C371 1.409 . S
C365 H357 0.930 . S
C365 C363 1.419 . S
C365 C366 1.362 . S
C366 H358 0.930 . S
C366 C365 1.362 . S
C366 C369 1.409 . S
C367 H359 0.930 . S
C367 C368 1.355 . S
C367 C369 1.415 . S
C368 C367 1.355 . S
C368 C370 1.419 . S
C369 C364 1.425 . S
C369 C366 1.409 . S
C369 C367 1.415 . S
C370 H360 0.930 . S
C370 C368 1.419 . S
C370 C371 1.362 . S
C371 H361 0.930 . S
C371 C364 1.409 . S
C371 C370 1.362 . S
H372 C378 0.930 . S
H373 C381 0.930 . S
H374 C382 0.930 . S
H375 C383 0.930 . S
H376 C386 0.930 . S
H377 C387 0.930 . S
C378 H372 0.930 . S
C378 C379 1.355 . S
C378 C380 1.415 . S
C379 C378 1.355 . S
C379 C381 1.419 . S
C380 C378 1.415 . S
C380 C385 1.425 . S
C380 C387 1.409 . S
C381 H373 0.930 . S
C381 C379 1.419 . S
C381 C382 1.362 . S
C382 H374 0.930 . S
C382 C381 1.362 . S
C382 C385 1.409 . S
C383 H375 0.930 . S
C383 C384 1.355 . S
C383 C385 1.415 . S
C384 C383 1.355 . S
C384 C386 1.419 . S
C385 C380 1.425 . S
C385 C382 1.409 . S
C385 C383 1.415 . S
C386 H376 0.930 . S
C386 C384 1.419 . S
C386 C387 1.362 . S
C387 H377 0.930 . S
C387 C380 1.409 . S
C387 C386 1.362 . S
H388 C394 0.930 . S
H389 C397 0.930 . S
H390 C398 0.930 . S
H391 C399 0.930 . S
H392 C402 0.930 . S
H393 C403 0.930 . S
C394 H388 0.930 . S
C394 C395 1.355 . S
C394 C396 1.415 . S
C395 C394 1.355 . S
C395 C397 1.419 . S
C396 C394 1.415 . S
C396 C401 1.425 . S
C396 C403 1.409 . S
C397 H389 0.930 . S
C397 C395 1.419 . S
C397 C398 1.362 . S
C398 H390 0.930 . S
C398 C397 1.362 . S
C398 C401 1.409 . S
C399 H391 0.930 . S
C399 C400 1.355 . S
C399 C401 1.415 . S
C400 C399 1.355 . S
C400 C402 1.419 . S
C401 C396 1.425 . S
C401 C398 1.409 . S
C401 C399 1.415 . S
C402 H392 0.930 . S
C402 C400 1.419 . S
C402 C403 1.362 . S
C403 H393 0.930 . S
C403 C396 1.409 . S
C403 C402 1.362 . S
H404 C410 0.930 . S
H405 C413 0.930 . S
H406 C414 0.930 . S
H407 C415 0.930 . S
H408 C418 0.930 . S
H409 C419 0.930 . S
C410 H404 0.930 . S
C410 C411 1.355 . S
C410 C412 1.415 . S
C411 C410 1.355 . S
C411 C413 1.419 . S
C412 C410 1.415 . S
C412 C417 1.425 . S
C412 C419 1.409 . S
C413 H405 0.930 . S
C413 C411 1.419 . S
C413 C414 1.362 . S
C414 H406 0.930 . S
C414 C413 1.362 . S
C414 C417 1.409 . S
C415 H407 0.930 . S
C415 C416 1.355 . S
C415 C417 1.415 . S
C416 C415 1.355 . S
C416 C418 1.419 . S
C417 C412 1.425 . S
C417 C414 1.409 . S
C417 C415 1.415 . S
C418 H408 0.930 . S
C418 C416 1.419 . S
C418 C419 1.362 . S
C419 H409 0.930 . S
C419 C412 1.409 . S
C419 C418 1.362 . S
H420 C426 0.930 . S
H421 C429 0.930 . S
H422 C430 0.930 . S
H423 C431 0.930 . S
H424 C434 0.930 . S
H425 C435 0.930 . S
C426 H420 0.930 . S
C426 C427 1.355 . S
C426 C428 1.415 . S
C427 C426 1.355 . S
C427 C429 1.419 . S
C428 C426 1.415 . S
C428 C433 1.425 . S
C428 C435 1.409 . S
C429 H421 0.930 . S
C429 C427 1.419 . S
C429 C430 1.362 . S
C430 H422 0.930 . S
C430 C429 1.362 . S
C430 C433 1.409 . S
C431 H423 0.930 . S
C431 C432 1.355 . S
C431 C433 1.415 . S
C432 C431 1.355 . S
C432 C434 1.419 . S
C433 C428 1.425 . S
C433 C430 1.409 . S
C433 C431 1.415 . S
C434 H424 0.930 . S
C434 C432 1.419 . S
C434 C435 1.362 . S
C435 H425 0.930 . S
C435 C428 1.409 . S
C435 C434 1.362 . S
H436 C442 0.930 . S
H437 C445 0.930 . S
H438 C446 0.930 . S
H439 C447 0.930 . S
H440 C450 0.930 . S
H441 C451 0.930 . S
C442 H436 0.930 . S
C442 C443 1.355 . S
C442 C444 1.415 . S
C443 C442 1.355 . S
C443 C445 1.419 . S
C444 C442 1.415 . S
C444 C449 1.425 . S
C444 C451 1.409 . S
C445 H437 0.930 . S
C445 C443 1.419 . S
C445 C446 1.362 . S
C446 H438 0.930 . S
C446 C445 1.362 . S
C446 C449 1.409 . S
C447 H439 0.930 . S
C447 C448 1.355 . S
C447 C449 1.415 . S
C448 C447 1.355 . S
C448 C450 1.419 . S
C449 C444 1.425 . S
C449 C446 1.409 . S
C449 C447 1.415 . S
C450 H440 0.930 . S
C450 C448 1.419 . S
C450 C451 1.362 . S
C451 H441 0.930 . S
C451 C444 1.409 . S
C451 C450 1.362 . S
H452 C458 0.930 . S
H453 C461 0.930 . S
H454 C462 0.930 . S
H455 C463 0.930 . S
H456 C466 0.930 . S
H457 C467 0.930 . S
C458 H452 0.930 . S
C458 C459 1.355 . S
C458 C460 1.415 . S
C459 C458 1.355 . S
C459 C461 1.419 . S
C460 C458 1.415 . S
C460 C465 1.425 . S
C460 C467 1.409 . S
C461 H453 0.930 . S
C461 C459 1.419 . S
C461 C462 1.362 . S
C462 H454 0.930 . S
C462 C461 1.362 . S
C462 C465 1.409 . S
C463 H455 0.930 . S
C463 C464 1.355 . S
C463 C465 1.415 . S
C464 C463 1.355 . S
C464 C466 1.419 . S
C465 C460 1.425 . S
C465 C462 1.409 . S
C465 C463 1.415 . S
C466 H456 0.930 . S
C466 C464 1.419 . S
C466 C467 1.362 . S
C467 H457 0.930 . S
C467 C460 1.409 . S
C467 C466 1.362 . S
H468 C474 0.930 . S
H469 C477 0.930 . S
H470 C478 0.930 . S
H471 C479 0.930 . S
H472 C482 0.930 . S
H473 C483 0.930 . S
C474 H468 0.930 . S
C474 C475 1.355 . S
C474 C476 1.415 . S
C475 C474 1.355 . S
C475 C477 1.419 . S
C476 C474 1.415 . S
C476 C481 1.425 . S
C476 C483 1.409 . S
C477 H469 0.930 . S
C477 C475 1.419 . S
C477 C478 1.362 . S
C478 H470 0.930 . S
C478 C477 1.362 . S
C478 C481 1.409 . S
C479 H471 0.930 . S
C479 C480 1.355 . S
C479 C481 1.415 . S
C480 C479 1.355 . S
C480 C482 1.419 . S
C481 C476 1.425 . S
C481 C478 1.409 . S
C481 C479 1.415 . S
C482 H472 0.930 . S
C482 C480 1.419 . S
C482 C483 1.362 . S
C483 H473 0.930 . S
C483 C476 1.409 . S
C483 C482 1.362 . S
H484 C490 0.930 . S
H485 C493 0.930 . S
H486 C494 0.930 . S
H487 C495 0.930 . S
H488 C498 0.930 . S
H489 C499 0.930 . S
C490 H484 0.930 . S
C490 C491 1.355 . S
C490 C492 1.415 . S
C491 C490 1.355 . S
C491 C493 1.419 . S
C492 C490 1.415 . S
C492 C497 1.425 . S
C492 C499 1.409 . S
C493 H485 0.930 . S
C493 C491 1.419 . S
C493 C494 1.362 . S
C494 H486 0.930 . S
C494 C493 1.362 . S
C494 C497 1.409 . S
C495 H487 0.930 . S
C495 C496 1.355 . S
C495 C497 1.415 . S
C496 C495 1.355 . S
C496 C498 1.419 . S
C497 C492 1.425 . S
C497 C494 1.409 . S
C497 C495 1.415 . S
C498 H488 0.930 . S
C498 C496 1.419 . S
C498 C499 1.362 . S
C499 H489 0.930 . S
C499 C492 1.409 . S
C499 C498 1.362 . S
H500 C506 0.930 . S
H501 C509 0.930 . S
H502 C510 0.930 . S
H503 C511 0.930 . S
H504 C514 0.930 . S
H505 C515 0.930 . S
C506 H500 0.930 . S
C506 C507 1.355 . S
C506 C508 1.415 . S
C507 C506 1.355 . S
C507 C509 1.419 . S
C508 C506 1.415 . S
C508 C513 1.425 . S
C508 C515 1.409 . S
C509 H501 0.930 . S
C509 C507 1.419 . S
C509 C510 1.362 . S
C510 H502 0.930 . S
C510 C509 1.362 . S
C510 C513 1.409 . S
C511 H503 0.930 . S
C511 C512 1.355 . S
C511 C513 1.415 . S
C512 C511 1.355 . S
C512 C514 1.419 . S
C513 C508 1.425 . S
C513 C510 1.409 . S
C513 C511 1.415 . S
C514 H504 0.930 . S
C514 C512 1.419 . S
C514 C515 1.362 . S
C515 H505 0.930 . S
C515 C508 1.409 . S
C515 C514 1.362 . S
H516 C522 0.930 . S
H517 C525 0.930 . S
H518 C526 0.930 . S
H519 C527 0.930 . S
H520 C530 0.930 . S
H521 C531 0.930 . S
C522 H516 0.930 . S
C522 C523 1.355 . S
C522 C524 1.415 . S
C523 C522 1.355 . S
C523 C525 1.419 . S
C524 C522 1.415 . S
C524 C529 1.425 . S
C524 C531 1.409 . S
C525 H517 0.930 . S
C525 C523 1.419 . S
C525 C526 1.362 . S
C526 H518 0.930 . S
C526 C525 1.362 . S
C526 C529 1.409 . S
C527 H519 0.930 . S
C527 C528 1.355 . S
C527 C529 1.415 . S
C528 C527 1.355 . S
C528 C530 1.419 . S
C529 C524 1.425 . S
C529 C526 1.409 . S
C529 C527 1.415 . S
C530 H520 0.930 . S
C530 C528 1.419 . S
C530 C531 1.362 . S
C531 H521 0.930 . S
C531 C524 1.409 . S
C531 C530 1.362 . S
H532 C538 0.930 . S
H533 C541 0.930 . S
H534 C542 0.930 . S
H535 C543 0.930 . S
H536 C546 0.930 . S
H537 C547 0.930 . S
C538 H532 0.930 . S
C538 C539 1.355 . S
C538 C540 1.415 . S
C539 C538 1.355 . S
C539 C541 1.419 . S
C540 C538 1.415 . S
C540 C545 1.425 . S
C540 C547 1.409 . S
C541 H533 0.930 . S
C541 C539 1.419 . S
C541 C542 1.362 . S
C542 H534 0.930 . S
C542 C541 1.362 . S
C542 C545 1.409 . S
C543 H535 0.930 . S
C543 C544 1.355 . S
C543 C545 1.415 . S
C544 C543 1.355 . S
C544 C546 1.419 . S
C545 C540 1.425 . S
C545 C542 1.409 . S
C545 C543 1.415 . S
C546 H536 0.930 . S
C546 C544 1.419 . S
C546 C547 1.362 . S
C547 H537 0.930 . S
C547 C540 1.409 . S
C547 C546 1.362 . S
H548 C554 0.930 . S
H549 C557 0.930 . S
H550 C558 0.930 . S
H551 C559 0.930 . S
H552 C562 0.930 . S
H553 C563 0.930 . S
C554 H548 0.930 . S
C554 C555 1.355 . S
C554 C556 1.415 . S
C555 C554 1.355 . S
C555 C557 1.419 . S
C556 C554 1.415 . S
C556 C561 1.425 . S
C556 C563 1.409 . S
C557 H549 0.930 . S
C557 C555 1.419 . S
C557 C558 1.362 . S
C558 H550 0.930 . S
C558 C557 1.362 . S
C558 C561 1.409 . S
C559 H551 0.930 . S
C559 C560 1.355 . S
C559 C561 1.415 . S
C560 C559 1.355 . S
C560 C562 1.419 . S
C561 C556 1.425 . S
C561 C558 1.409 . S
C561 C559 1.415 . S
C562 H552 0.930 . S
C562 C560 1.419 . S
C562 C563 1.362 . S
C563 H553 0.930 . S
C563 C556 1.409 . S
C563 C562 1.362 . S
H564 C570 0.930 . S
H565 C573 0.930 . S
H566 C574 0.930 . S
H567 C575 0.930 . S
H568 C578 0.930 . S
H569 C579 0.930 . S
C570 H564 0.930 . S
C570 C571 1.355 . S
C570 C572 1.415 . S
C571 C570 1.355 . S
C571 C573 1.419 . S
C572 C570 1.415 . S
C572 C577 1.425 . S
C572 C579 1.409 . S
C573 H565 0.930 . S
C573 C571 1.419 . S
C573 C574 1.362 . S
C574 H566 0.930 . S
C574 C573 1.362 . S
C574 C577 1.409 . S
C575 H567 0.930 . S
C575 C576 1.355 . S
C575 C577 1.415 . S
C576 C575 1.355 . S
C576 C578 1.419 . S
C577 C572 1.425 . S
C577 C574 1.409 . S
C577 C575 1.415 . S
C578 H568 0.930 . S
C578 C576 1.419 . S
C578 C579 1.362 . S
C579 H569 0.930 . S
C579 C572 1.409 . S
C579 C578 1.362 . S
H580 C586 0.930 . S
H581 C589 0.930 . S
H582 C590 0.930 . S
H583 C591 0.930 . S
H584 C594 0.930 . S
H585 C595 0.930 . S
C586 H580 0.930 . S
C586 C587 1.355 . S
C586 C588 1.415 . S
C587 C586 1.355 . S
C587 C589 1.419 . S
C588 C586 1.415 . S
C588 C593 1.425 . S
C588 C595 1.409 . S
C589 H581 0.930 . S
C589 C587 1.419 . S
C589 C590 1.362 . S
C590 H582 0.930 . S
C590 C589 1.362 . S
C590 C593 1.409 . S
C591 H583 0.930 . S
C591 C592 1.355 . S
C591 C593 1.415 . S
C592 C591 1.355 . S
C592 C594 1.419 . S
C593 C588 1.425 . S
C593 C590 1.409 . S
C593 C591 1.415 . S
C594 H584 0.930 . S
C594 C592 1.419 . S
C594 C595 1.362 . S
C595 H585 0.930 . S
C595 C588 1.409 . S
C595 C594 1.362 . S
H596 C602 0.930 . S
H597 C605 0.930 . S
H598 C606 0.930 . S
H599 C607 0.930 . S
H600 C610 0.930 . S
H601 C611 0.930 . S
C602 H596 0.930 . S
C602 C603 1.355 . S
C602 C604 1.415 . S
C603 C602 1.355 . S
C603 C605 1.419 . S
C604 C602 1.415 . S
C604 C609 1.425 . S
C604 C611 1.409 . S
C605 H597 0.930 . S
C605 C603 1.419 . S
C605 C606 1.362 . S
C606 H598 0.930 . S
C606 C605 1.362 . S
C606 C609 1.409 . S
C607 H599 0.930 . S
C607 C608 1.355 . S
C607 C609 1.415 . S
C608 C607 1.355 . S
C608 C610 1.419 . S
C609 C604 1.425 . S
C609 C606 1.409 . S
C609 C607 1.415 . S
C610 H600 0.930 . S
C610 C608 1.419 . S
C610 C611 1.362 . S
C611 H601 0.930 . S
C611 C604 1.409 . S
C611 C610 1.362 . S
H612 C618 0.930 . S
H613 C621 0.930 . S
H614 C622 0.930 . S
H615 C623 0.930 . S
H616 C626 0.930 . S
H617 C627 0.930 . S
C618 H612 0.930 . S
C618 C619 1.355 . S
C618 C620 1.415 . S
C619 C618 1.355 . S
C619 C621 1.419 . S
C620 C618 1.415 . S
C620 C625 1.425 . S
C620 C627 1.409 . S
C621 H613 0.930 . S
C621 C619 1.419 . S
C621 C622 1.362 . S
C622 H614 0.930 . S
C622 C621 1.362 . S
C622 C625 1.409 . S
C623 H615 0.930 . S
C623 C624 1.355 . S
C623 C625 1.415 . S
C624 C623 1.355 . S
C624 C626 1.419 . S
C625 C620 1.425 . S
C625 C622 1.409 . S
C625 C623 1.415 . S
C626 H616 0.930 . S
C626 C624 1.419 . S
C626 C627 1.362 . S
C627 H617 0.930 . S
C627 C620 1.409 . S
C627 C626 1.362 . S
H628 C634 0.930 . S
H629 C637 0.930 . S
H630 C638 0.930 . S
H631 C639 0.930 . S
H632 C642 0.930 . S
H633 C643 0.930 . S
C634 H628 0.930 . S
C634 C635 1.355 . S
C634 C636 1.415 . S
C635 C634 1.355 . S
C635 C637 1.419 . S
C636 C634 1.415 . S
C636 C641 1.425 . S
C636 C643 1.409 . S
C637 H629 0.930 . S
C637 C635 1.419 . S
C637 C638 1.362 . S
C638 H630 0.930 . S
C638 C637 1.362 . S
C638 C641 1.409 . S
C639 H631 0.930 . S
C639 C640 1.355 . S
C639 C641 1.415 . S
C640 C639 1.355 . S
C640 C642 1.419 . S
C641 C636 1.425 . S
C641 C638 1.409 . S
C641 C639 1.415 . S
C642 H632 0.930 . S
C642 C640 1.419 . S
C642 C643 1.362 . S
C643 H633 0.930 . S
C643 C636 1.409 . S
C643 C642 1.362 . S
H644 C650 0.930 . S
H645 C653 0.930 . S
H646 C654 0.930 . S
H647 C655 0.930 . S
H648 C658 0.930 . S
H649 C659 0.930 . S
C650 H644 0.930 . S
C650 C651 1.355 . S
C650 C652 1.415 . S
C651 C650 1.355 . S
C651 C653 1.419 . S
C652 C650 1.415 . S
C652 C657 1.425 . S
C652 C659 1.409 . S
C653 H645 0.930 . S
C653 C651 1.419 . S
C653 C654 1.362 . S
C654 H646 0.930 . S
C654 C653 1.362 . S
C654 C657 1.409 . S
C655 H647 0.930 . S
C655 C656 1.355 . S
C655 C657 1.415 . S
C656 C655 1.355 . S
C656 C658 1.419 . S
C657 C652 1.425 . S
C657 C654 1.409 . S
C657 C655 1.415 . S
C658 H648 0.930 . S
C658 C656 1.419 . S
C658 C659 1.362 . S
C659 H649 0.930 . S
C659 C652 1.409 . S
C659 C658 1.362 . S
H660 C666 0.930 . S
H661 C669 0.930 . S
H662 C670 0.930 . S
H663 C671 0.930 . S
H664 C674 0.930 . S
H665 C675 0.930 . S
C666 H660 0.930 . S
C666 C667 1.355 . S
C666 C668 1.415 . S
C667 C666 1.355 . S
C667 C669 1.419 . S
C668 C666 1.415 . S
C668 C673 1.425 . S
C668 C675 1.409 . S
C669 H661 0.930 . S
C669 C667 1.419 . S
C669 C670 1.362 . S
C670 H662 0.930 . S
C670 C669 1.362 . S
C670 C673 1.409 . S
C671 H663 0.930 . S
C671 C672 1.355 . S
C671 C673 1.415 . S
C672 C671 1.355 . S
C672 C674 1.419 . S
C673 C668 1.425 . S
C673 C670 1.409 . S
C673 C671 1.415 . S
C674 H664 0.930 . S
C674 C672 1.419 . S
C674 C675 1.362 . S
C675 H665 0.930 . S
C675 C668 1.409 . S
C675 C674 1.362 . S
H676 C682 0.930 . S
H677 C685 0.930 . S
H678 C686 0.930 . S
H679 C687 0.930 . S
H680 C690 0.930 . S
H681 C691 0.930 . S
C682 H676 0.930 . S
C682 C683 1.355 . S
C682 C684 1.415 . S
C683 C682 1.355 . S
C683 C685 1.419 . S
C684 C682 1.415 . S
C684 C689 1.425 . S
C684 C691 1.409 . S
C685 H677 0.930 . S
C685 C683 1.419 . S
C685 C686 1.362 . S
C686 H678 0.930 . S
C686 C685 1.362 . S
C686 C689 1.409 . S
C687 H679 0.930 . S
C687 C688 1.355 . S
C687 C689 1.415 . S
C688 C687 1.355 . S
C688 C690 1.419 . S
C689 C684 1.425 . S
C689 C686 1.409 . S
C689 C687 1.415 . S
C690 H680 0.930 . S
C690 C688 1.419 . S
C690 C691 1.362 . S
C691 H681 0.930 . S
C691 C684 1.409 . S
C691 C690 1.362 . S
H692 C698 0.930 . S
H693 C701 0.930 . S
H694 C702 0.930 . S
H695 C703 0.930 . S
H696 C706 0.930 . S
H697 C707 0.930 . S
C698 H692 0.930 . S
C698 C699 1.355 . S
C698 C700 1.415 . S
C699 C698 1.355 . S
C699 C701 1.419 . S
C700 C698 1.415 . S
C700 C705 1.425 . S
C700 C707 1.409 . S
C701 H693 0.930 . S
C701 C699 1.419 . S
C701 C702 1.362 . S
C702 H694 0.930 . S
C702 C701 1.362 . S
C702 C705 1.409 . S
C703 H695 0.930 . S
C703 C704 1.355 . S
C703 C705 1.415 . S
C704 C703 1.355 . S
C704 C706 1.419 . S
C705 C700 1.425 . S
C705 C702 1.409 . S
C705 C703 1.415 . S
C706 H696 0.930 . S
C706 C704 1.419 . S
C706 C707 1.362 . S
C707 H697 0.930 . S
C707 C700 1.409 . S
C707 C706 1.362 . S
H708 C714 0.930 . S
H709 C717 0.930 . S
H710 C718 0.930 . S
H711 C719 0.930 . S
H712 C722 0.930 . S
H713 C723 0.930 . S
C714 H708 0.930 . S
C714 C715 1.355 . S
C714 C716 1.415 . S
C715 C714 1.355 . S
C715 C717 1.419 . S
C716 C714 1.415 . S
C716 C721 1.425 . S
C716 C723 1.409 . S
C717 H709 0.930 . S
C717 C715 1.419 . S
C717 C718 1.362 . S
C718 H710 0.930 . S
C718 C717 1.362 . S
C718 C721 1.409 . S
C719 H711 0.930 . S
C719 C720 1.355 . S
C719 C721 1.415 . S
C720 C719 1.355 . S
C720 C722 1.419 . S
C721 C716 1.425 . S
C721 C718 1.409 . S
C721 C719 1.415 . S
C722 H712 0.930 . S
C722 C720 1.419 . S
C722 C723 1.362 . S
C723 H713 0.930 . S
C723 C716 1.409 . S
C723 C722 1.362 . S
C352 C268 1.512 . S
C347 C23 1.508 . S
C368 C271 1.486 . S
C363 C49 1.483 . S
C384 C269 1.493 . S
C379 C87 1.468 . S
C400 C270 1.513 . S
C395 C125 1.453 . S
C416 C285 1.504 . S
C411 C29 1.498 . S
C432 C299 1.502 . S
C427 C61 1.447 . S
C443 C81 1.471 . S
C448 C325 1.491 . S
C464 C339 1.492 . S
C459 C113 1.497 . S
C480 C284 1.482 . S
C475 C55 1.445 . S
C491 C93 1.443 . S
C496 C298 1.501 . S
C512 C324 1.494 . S
C507 C119 1.473 . S
C528 C338 1.506 . S
C523 C17 1.507 . S
C539 C151 1.492 . S
C544 C283 1.502 . S
C560 C256 1.491 . S
C555 C177 1.493 . S
C571 C215 1.482 . S
C576 C282 1.510 . S
C587 C253 1.455 . S
C592 C257 1.506 . S
C608 C312 1.505 . S
C603 C157 1.432 . S
C624 C326 1.500 . S
C619 C189 1.486 . S
C640 C296 1.498 . S
C635 C209 1.497 . S
C651 C241 1.496 . S
C656 C310 1.499 . S
C672 C313 1.488 . S
C667 C183 1.476 . S
C688 C327 1.515 . S
C683 C221 1.471 . S
C704 C297 1.497 . S
C699 C247 1.493 . S
C715 C145 1.503 . S
C720 C311 1.509 . S
