# Generated by pormake.
# Topology anh, (6,3)-cn, num edge types: 1
# Building blocks:
#     Node 0, Type 0, BuildingBlock: INOVEN_clean_sbu_0, # of connection points: 6
#     Node 1, Type 0, BuildingBlock: INOVEN_clean_sbu_0, # of connection points: 6
#     Node 2, Type 0, BuildingBlock: INOVEN_clean_sbu_0, # of connection points: 6
#     Node 3, Type 1, BuildingBlock: KAKCAD_clean_linker_0, # of connection points: 3
#     Node 4, Type 1, BuildingBlock: KAKCAD_clean_linker_0, # of connection points: 3
#     Node 5, Type 1, BuildingBlock: KAKCAD_clean_linker_0, # of connection points: 3
#     Node 6, Type 1, BuildingBlock: KAKCAD_clean_linker_0, # of connection points: 3
#     Node 7, Type 1, BuildingBlock: KAKCAD_clean_linker_0, # of connection points: 3
#     Node 8, Type 1, BuildingBlock: KAKCAD_clean_linker_0, # of connection points: 3
#     Edge 9, Type (0, 1), BuildingBlock: OJICUG_clean_linker_0, # of connection points: 2
#     Edge 10, Type (0, 1), BuildingBlock: OJICUG_clean_linker_0, # of connection points: 2
#     Edge 11, Type (0, 1), BuildingBlock: OJICUG_clean_linker_0, # of connection points: 2
#     Edge 12, Type (0, 1), BuildingBlock: OJICUG_clean_linker_0, # of connection points: 2
#     Edge 13, Type (0, 1), BuildingBlock: OJICUG_clean_linker_0, # of connection points: 2
#     Edge 14, Type (0, 1), BuildingBlock: OJICUG_clean_linker_0, # of connection points: 2
#     Edge 15, Type (0, 1), BuildingBlock: OJICUG_clean_linker_0, # of connection points: 2
#     Edge 16, Type (0, 1), BuildingBlock: OJICUG_clean_linker_0, # of connection points: 2
#     Edge 17, Type (0, 1), BuildingBlock: OJICUG_clean_linker_0, # of connection points: 2
#     Edge 18, Type (0, 1), BuildingBlock: OJICUG_clean_linker_0, # of connection points: 2
#     Edge 19, Type (0, 1), BuildingBlock: OJICUG_clean_linker_0, # of connection points: 2
#     Edge 20, Type (0, 1), BuildingBlock: OJICUG_clean_linker_0, # of connection points: 2
#     Edge 21, Type (0, 1), BuildingBlock: OJICUG_clean_linker_0, # of connection points: 2
#     Edge 22, Type (0, 1), BuildingBlock: OJICUG_clean_linker_0, # of connection points: 2
#     Edge 23, Type (0, 1), BuildingBlock: OJICUG_clean_linker_0, # of connection points: 2
#     Edge 24, Type (0, 1), BuildingBlock: OJICUG_clean_linker_0, # of connection points: 2
#     Edge 25, Type (0, 1), BuildingBlock: OJICUG_clean_linker_0, # of connection points: 2
#     Edge 26, Type (0, 1), BuildingBlock: OJICUG_clean_linker_0, # of connection points: 2
# Relax obj value: 0.208
# Max RMSD: 0.229
# Mean RMSD: 0.166
data_MOF--net-anh--node1-INOVEN_clean_sbu_0--node2-KAKCAD_clean_linker_0--edge1-OJICUG_clean_linker_0
_symmetry_space_group_name_H-M    P1
_symmetry_Int_Tables_number       1
_symmetry_cell_setting            triclinic
loop_
_symmetry_equiv_pos_as_xyz
'x, y, z'
_cell_length_a     29.082529
_cell_length_b     35.411975
_cell_length_c     52.354504
_cell_angle_alpha  92.820175
_cell_angle_beta   89.552192
_cell_angle_gamma 130.00655
loop_
_atom_site_label
_atom_site_type_symbol
_atom_site_fract_x
_atom_site_fract_y
_atom_site_fract_z
_atom_type_partial_charge
Gd0 Gd 0.13142 0.52082 0.14026 0.0
Gd1 Gd 1.06461 0.55348 0.15614 0.0
C2 C 0.20259 0.64006 0.15086 0.0
C3 C 0.20365 0.50964 0.12063 0.0
C4 C 0.26379 0.528 0.12855 0.0
C5 C 0.26877 0.49638 0.1408 0.0
C6 C 0.31606 0.57668 0.12472 0.0
C7 C 0.37701 0.56095 0.14479 0.0
C8 C 0.37235 0.59292 0.13266 0.0
C9 C 0.32457 0.51273 0.14898 0.0
C10 C 0.12029 0.52388 0.19138 0.0
C11 C 0.99459 0.43587 0.14674 0.0
C12 C 0.98495 0.55314 0.17785 0.0
C13 C 0.9214 0.50896 0.17958 0.0
C14 C 0.89364 0.47318 0.15912 0.0
C15 C 0.89076 0.49871 0.20246 0.0
C16 C 0.80512 0.41757 0.18407 0.0
C17 C 0.8327 0.45341 0.20463 0.0
C18 C 0.83639 0.42822 0.16132 0.0
C19 C 1.07804 0.55113 0.10496 0.0
O20 O 0.20234 0.60527 0.13988 0.0
O21 O 0.15426 0.62852 0.16178 0.0
O22 O 0.16033 0.47821 0.13559 0.0
O23 O 0.1993 0.54176 0.11267 0.0
O24 O 0.11767 0.49012 0.17894 0.0
O25 O 0.13201 0.55579 0.17661 0.0
O26 O 0.99956 0.47055 0.16056 0.0
O27 O 1.03864 0.44822 0.13187 0.0
O28 O 1.0032 0.56848 0.15481 0.0
O29 O 1.02218 0.55196 0.19082 0.0
O30 O 0.08222 0.58583 0.11748 0.0
O31 O 1.06456 0.51857 0.11974 0.0
H32 H 0.22941 0.45861 0.14386 0.0
H33 H 0.31364 0.602 0.11539 0.0
H34 H 0.41224 0.63005 0.12892 0.0
H35 H 0.32682 0.4867 0.15754 0.0
H36 H 0.91658 0.47955 0.1414 0.0
H37 H 0.91198 0.52539 0.21867 0.0
H38 H 0.80944 0.44637 0.22231 0.0
H39 H 0.81609 0.40223 0.14482 0.0
Gd40 Gd 0.66388 0.04232 0.46915 0.0
Gd41 Gd 0.58116 0.06315 0.4613 0.0
C42 C 0.52011 0.95088 0.46022 0.0
C43 C 0.71625 1.00944 0.48432 0.0
C44 C 0.69932 0.96232 0.49149 0.0
C45 C 0.73335 0.94928 0.48268 0.0
C46 C 0.65017 0.93031 0.50698 0.0
C47 C 0.67093 0.87365 0.50546 0.0
C48 C 0.63631 0.88645 0.51402 0.0
C49 C 0.71923 0.90532 0.48952 0.0
C50 C 0.65409 0.05726 0.42019 0.0
C51 C 0.72667 0.15578 0.46818 0.0
C52 C 0.52993 0.09827 0.44861 0.0
C53 C 0.5401 0.14411 0.45603 0.0
C54 C 0.49768 0.14142 0.4708 0.0
C55 C 0.59282 0.19076 0.4497 0.0
C56 C 0.56181 0.23122 0.47404 0.0
C57 C 0.60348 0.23379 0.45857 0.0
C58 C 0.50848 0.18439 0.47981 0.0
C59 C 0.59322 0.04959 0.51032 0.0
O60 O 0.57079 0.96705 0.47169 0.0
O61 O 0.5162 0.98213 0.45001 0.0
O62 O 0.70786 0.01211 0.46022 0.0
O63 O 0.7017 0.03016 0.49987 0.0
O64 O 0.70368 0.07261 0.43118 0.0
O65 O 0.61094 0.03265 0.43518 0.0
O66 O 0.67271 0.13987 0.46153 0.0
O67 O 0.73493 0.12482 0.47451 0.0
O68 O 0.51051 0.06725 0.46661 0.0
O69 O 0.57063 0.1025 0.43479 0.0
O70 O 0.54306 0.03367 0.49982 0.0
O71 O 0.63517 0.07403 0.4949 0.0
H72 H 0.77134 0.97343 0.47067 0.0
H73 H 0.62275 0.93929 0.51377 0.0
H74 H 0.59845 0.8625 0.5261 0.0
H75 H 0.74709 0.89672 0.48285 0.0
H76 H 0.45666 0.10598 0.47595 0.0
H77 H 0.62638 0.19421 0.43823 0.0
H78 H 0.64456 0.26908 0.45336 0.0
H79 H 0.4757 0.1808 0.49195 0.0
Gd80 Gd 0.66078 0.58785 0.84503 0.0
Gd81 Gd 0.57022 0.47067 0.84532 0.0
C82 C 0.51213 0.52585 0.84692 0.0
C83 C 0.71761 0.67876 0.83517 0.0
C84 C 0.70415 0.7097 0.8263 0.0
C85 C 0.73773 0.7583 0.83662 0.0
C86 C 0.65839 0.69164 0.80791 0.0
C87 C 0.68131 0.77128 0.80979 0.0
C88 C 0.64721 0.72219 0.79967 0.0
C89 C 0.7264 0.78874 0.82853 0.0
C90 C 0.64317 0.54811 0.89008 0.0
C91 C 0.71904 0.53348 0.84419 0.0
C92 C 0.51573 0.38223 0.85855 0.0
C93 C 0.52395 0.3472 0.84895 0.0
C94 C 0.56669 0.36172 0.83033 0.0
C95 C 0.49119 0.30021 0.85852 0.0
C96 C 0.54455 0.28278 0.83101 0.0
C97 C 0.50126 0.26812 0.84956 0.0
C98 C 0.5769 0.32994 0.82147 0.0
C99 C 0.60008 0.50036 0.79669 0.0
O100 O 0.56761 0.56813 0.84332 0.0
O101 O 0.50257 0.48395 0.84982 0.0
O102 O 0.69946 0.66221 0.85803 0.0
O103 O 0.70983 0.64602 0.81848 0.0
O104 O 0.69452 0.58902 0.8839 0.0
O105 O 0.60357 0.53231 0.87293 0.0
O106 O 0.6637 0.4917 0.84822 0.0
O107 O 0.72867 0.575 0.84006 0.0
O108 O 0.49236 0.39277 0.84193 0.0
O109 O 0.56228 0.42145 0.87145 0.0
O110 O 0.56403 0.45447 0.80225 0.0
O111 O 0.617 0.52632 0.81716 0.0
H112 H 0.77287 0.77278 0.851 0.0
H113 H 0.63155 0.65407 0.7998 0.0
H114 H 0.61256 0.70757 0.78505 0.0
H115 H 0.75278 0.8259 0.83713 0.0
H116 H 0.59244 0.39787 0.82267 0.0
H117 H 0.45824 0.2885 0.87299 0.0
H118 H 0.47588 0.23219 0.85743 0.0
H119 H 0.60977 0.34218 0.80688 0.0
C120 C 0.61435 0.078 0.29839 0.0
C121 C 0.62687 0.05089 0.31054 0.0
C122 C 0.61054 0.07622 0.27164 0.0
C123 C 0.61784 0.04641 0.2567 0.0
C124 C 0.62928 0.01865 0.26891 0.0
C125 C 0.63435 0.02125 0.29557 0.0
C126 C 0.6135 0.04398 0.22841 0.0
C127 C 0.64935 0.08715 0.21499 0.0
C128 C 0.6473 0.08497 0.1881 0.0
C129 C 0.60673 0.03857 0.17453 0.0
C130 C 0.56957 0.99484 0.18795 0.0
C131 C 0.5742 0.99818 0.2148 0.0
C132 C 0.52367 0.94507 0.17493 0.0
C133 C 0.47587 0.93463 0.16043 0.0
C134 C 0.5218 0.90571 0.18066 0.0
C135 C 0.47201 0.85684 0.17324 0.0
C136 C 0.4223 0.84591 0.16017 0.0
C137 C 0.68953 0.13202 0.17508 0.0
C138 C 0.68605 0.16958 0.17914 0.0
C139 C 0.73934 0.14293 0.16249 0.0
C140 C 0.78635 0.1912 0.15536 0.0
C141 C 0.78446 0.22968 0.16057 0.0
C142 C 0.73243 0.21751 0.17176 0.0
C143 C 0.42556 0.88556 0.15326 0.0
H144 H 0.60872 0.10128 0.30958 0.0
H145 H 0.60138 0.09774 0.26262 0.0
H146 H 0.63525 0.99553 0.25779 0.0
H147 H 0.64388 0.99993 0.30454 0.0
H148 H 0.68052 0.12257 0.22551 0.0
H149 H 0.54571 0.9649 0.22527 0.0
H150 H 0.60416 0.03653 0.15381 0.0
H151 H 0.47573 0.96412 0.156 0.0
H152 H 0.55784 0.91263 0.19197 0.0
H153 H 0.47107 0.82743 0.17907 0.0
H154 H 0.64831 0.16225 0.18896 0.0
H155 H 0.74364 0.11483 0.15955 0.0
H156 H 0.38839 0.87856 0.14294 0.0
H157 H 0.72801 0.2453 0.17557 0.0
H158 H 0.8255 0.19874 0.14703 0.0
C159 C 0.615 0.56644 0.68055 0.0
C160 C 0.64624 0.55314 0.69168 0.0
C161 C 0.61428 0.56951 0.65403 0.0
C162 C 0.6452 0.55973 0.63813 0.0
C163 C 0.67872 0.5487 0.6495 0.0
C164 C 0.679 0.54523 0.67594 0.0
C165 C 0.6409 0.55928 0.60977 0.0
C166 C 0.64061 0.59407 0.59823 0.0
C167 C 0.63576 0.59338 0.57151 0.0
C168 C 0.63197 0.55771 0.55615 0.0
C169 C 0.63171 0.52221 0.56731 0.0
C170 C 0.63586 0.52326 0.59413 0.0
C171 C 0.62568 0.4832 0.55122 0.0
C172 C 0.58639 0.45998 0.52964 0.0
C173 C 0.65765 0.46757 0.55791 0.0
C174 C 0.64925 0.42884 0.5439 0.0
C175 C 0.60904 0.40487 0.52263 0.0
C176 C 0.63484 0.63026 0.55986 0.0
C177 C 0.59824 0.64009 0.56976 0.0
C178 C 0.6719 0.65705 0.53944 0.0
C179 C 0.67375 0.69407 0.52968 0.0
C180 C 0.63814 0.70478 0.53997 0.0
C181 C 0.59964 0.67673 0.55987 0.0
C182 C 0.57829 0.4214 0.5155 0.0
H183 H 0.58879 0.57217 0.6922 0.0
H184 H 0.58753 0.57765 0.64595 0.0
H185 H 0.70423 0.54213 0.63792 0.0
H186 H 0.70402 0.53546 0.68408 0.0
H187 H 0.64539 0.6225 0.61003 0.0
H188 H 0.63332 0.49495 0.60294 0.0
H189 H 0.62884 0.55747 0.53552 0.0
H190 H 0.56064 0.47071 0.52401 0.0
H191 H 0.68899 0.48506 0.57417 0.0
H192 H 0.67326 0.4169 0.55021 0.0
H193 H 0.56852 0.61943 0.58525 0.0
H194 H 0.70094 0.6505 0.53158 0.0
H195 H 0.54762 0.40436 0.49902 0.0
H196 H 0.57061 0.68314 0.5679 0.0
H197 H 0.70456 0.7153 0.5146 0.0
C198 C 0.15959 0.57734 0.98368 0.0
C199 C 0.10516 0.54167 0.99557 0.0
C200 C 0.1636 0.5749 0.95702 0.0
C201 C 0.11292 0.53736 0.94174 0.0
C202 C 1.05866 0.50161 0.95365 0.0
C203 C 1.05496 0.50348 0.98028 0.0
C204 C 0.11551 0.53623 0.91335 0.0
C205 C 0.15782 0.53535 0.90103 0.0
C206 C 0.15939 0.53176 0.87414 0.0
C207 C 0.11647 0.53079 0.85943 0.0
C208 C 1.07265 0.53189 0.87201 0.0
C209 C 1.0739 0.53451 0.89886 0.0
C210 C 1.02192 0.52798 0.85947 0.0
C211 C 1.03191 0.56904 0.84947 0.0
C212 C 0.96146 0.48749 0.86442 0.0
C213 C 0.9138 0.48819 0.86028 0.0
C214 C 0.92337 0.52962 0.85092 0.0
C215 C 0.20482 0.52638 0.86363 0.0
C216 C 0.25591 0.56309 0.84994 0.0
C217 C 0.20417 0.4888 0.87233 0.0
C218 C 0.25206 0.48824 0.86819 0.0
C219 C 0.30424 0.52546 0.85512 0.0
C220 C 0.30428 0.5626 0.84576 0.0
C221 C 0.98394 0.56971 0.84512 0.0
H222 H 0.19908 0.60701 0.99502 0.0
H223 H 0.20586 0.603 0.94829 0.0
H224 H 1.01898 0.47218 0.94231 0.0
H225 H 1.01237 0.47568 0.98888 0.0
H226 H 0.18921 0.53621 0.91268 0.0
H227 H 1.04165 0.53534 0.90881 0.0
H228 H 0.11588 0.5276 0.83875 0.0
H229 H 1.07746 0.60188 0.84619 0.0
H230 H 0.95125 0.45576 0.87305 0.0
H231 H 0.86954 0.45645 0.86573 0.0
H232 H 0.25988 0.59357 0.84339 0.0
H233 H 0.16698 0.4603 0.88348 0.0
H234 H 0.99511 0.60253 0.8376 0.0
H235 H 0.3422 0.59205 0.83533 0.0
H236 H 0.24865 0.45911 0.87638 0.0
C237 C 1.06246 0.50964 0.31454 0.0
C238 C 0.11628 0.53759 0.30135 0.0
C239 C 1.0634 0.51226 0.34128 0.0
C240 C 0.11831 0.54202 0.35542 0.0
C241 C 0.17218 0.56973 0.34198 0.0
C242 C 0.17111 0.56794 0.31525 0.0
C243 C 0.11938 0.54416 0.384 0.0
C244 C 1.07489 0.5024 0.39729 0.0
C245 C 1.0742 0.50409 0.42419 0.0
C246 C 0.12068 0.54856 0.43811 0.0
C247 C 0.16635 0.59066 0.42498 0.0
C248 C 0.16472 0.58804 0.39813 0.0
C249 C 0.21642 0.6387 0.43824 0.0
C250 C 0.20676 0.67008 0.44905 0.0
C251 C 0.27577 0.65753 0.43521 0.0
C252 C 0.32446 0.70718 0.44184 0.0
C253 C 0.31505 0.73956 0.45134 0.0
C254 C 1.02372 0.45853 0.43678 0.0
C255 C 0.96448 0.43244 0.42755 0.0
C256 C 1.0341 0.43751 0.45556 0.0
C257 C 0.9866 0.39032 0.46389 0.0
C258 C 0.92759 0.36331 0.45378 0.0
C259 C 0.91729 0.38568 0.43585 0.0
C260 C 0.25553 0.72001 0.45548 0.0
H261 H 1.01964 0.48618 0.30412 0.0
H262 H 1.02095 0.49123 0.3508 0.0
H263 H 0.21536 0.59228 0.35203 0.0
H264 H 0.21318 0.58938 0.30539 0.0
H265 H 1.04074 0.46781 0.38666 0.0
H266 H 0.1987 0.62105 0.38828 0.0
H267 H 0.1211 0.55053 0.45883 0.0
H268 H 0.16144 0.65673 0.4511 0.0
H269 H 0.28438 0.63435 0.42642 0.0
H270 H 0.36938 0.7208 0.43812 0.0
H271 H 0.95487 0.44762 0.41311 0.0
H272 H 1.07927 0.45651 0.46292 0.0
H273 H 0.24656 0.74367 0.463 0.0
H274 H 0.87303 0.36622 0.42726 0.0
H275 H 0.99631 0.37471 0.47796 0.0
C276 C 0.58337 0.99299 0.63025 0.0
C277 C 0.61811 0.03831 0.61851 0.0
C278 C 0.58532 0.99175 0.65685 0.0
C279 C 0.62162 0.03581 0.67231 0.0
C280 C 0.65717 0.08112 0.66054 0.0
C281 C 0.65568 0.08235 0.63391 0.0
C282 C 0.62109 0.03445 0.70065 0.0
C283 C 0.62407 1.00139 0.71256 0.0
C284 C 0.62263 0.99928 0.73933 0.0
C285 C 0.61764 0.03063 0.75424 0.0
C286 C 0.61425 0.06383 0.74262 0.0
C287 C 0.61632 0.06556 0.71582 0.0
C288 C 0.60727 0.09613 0.7582 0.0
C289 C 0.56659 0.07734 0.77823 0.0
C290 C 0.6396 0.14563 0.75243 0.0
C291 C 0.63068 0.17535 0.76599 0.0
C292 C 0.5891 0.15636 0.78566 0.0
C293 C 0.62723 0.9647 0.75153 0.0
C294 C 0.5946 0.91598 0.74126 0.0
C295 C 0.66596 0.98061 0.77287 0.0
C296 C 0.67309 0.94892 0.78327 0.0
C297 C 0.64128 0.90048 0.77269 0.0
C298 C 0.6014 0.8842 0.75176 0.0
C299 C 0.55746 0.10708 0.79175 0.0
H300 H 0.55431 0.95845 0.61886 0.0
H301 H 0.55718 0.95629 0.66537 0.0
H302 H 0.68599 0.11565 0.67196 0.0
H303 H 0.6826 0.11782 0.62542 0.0
H304 H 0.629 0.97804 0.70095 0.0
H305 H 0.61221 0.09007 0.70663 0.0
H306 H 0.61631 0.02913 0.77488 0.0
H307 H 0.54064 0.03926 0.78303 0.0
H308 H 0.6717 0.1614 0.73729 0.0
H309 H 0.65538 0.21295 0.76059 0.0
H310 H 0.56397 0.90246 0.72498 0.0
H311 H 0.692 0.01801 0.78112 0.0
H312 H 0.52554 0.09143 0.80695 0.0
H313 H 0.57656 0.84726 0.74304 0.0
H314 H 0.7037 0.96242 0.79956 0.0
C315 C 0.55825 0.40371 0.98766 0.0
C316 C 0.60772 0.4531 0.98311 0.0
C317 C 0.54598 0.38743 0.01258 0.0
C318 C 0.58287 0.4204 0.03324 0.0
C319 C 0.63426 0.46869 0.02847 0.0
C320 C 0.64643 0.48491 0.00376 0.0
C321 C 0.56536 0.40714 0.05998 0.0
C322 C 0.55143 0.36449 0.06943 0.0
C323 C 0.54044 0.35554 0.09563 0.0
C324 C 0.54169 0.38915 0.11189 0.0
C325 C 0.55438 0.43119 0.10251 0.0
C326 C 0.56561 0.43959 0.07653 0.0
C327 C 0.5546 0.466 0.11952 0.0
C328 C 0.50839 0.44783 0.13681 0.0
C329 C 0.59707 0.51722 0.11669 0.0
C330 C 0.58955 0.54891 0.12875 0.0
C331 C 0.53951 0.52987 0.14387 0.0
C332 C 0.53948 0.31766 0.10741 0.0
C333 C 0.58244 0.3131 0.10033 0.0
C334 C 0.50811 0.29654 0.13002 0.0
C335 C 0.52896 0.28204 0.1478 0.0
C336 C 0.58071 0.2879 0.14287 0.0
C337 C 0.60248 0.29778 0.11787 0.0
C338 C 0.50096 0.47946 0.14891 0.0
H339 H 0.52808 0.37807 0.97209 0.0
H340 H 0.50614 0.34999 0.01582 0.0
H341 H 0.6638 0.49467 0.0441 0.0
H342 H 0.68452 0.52327 0.00112 0.0
H343 H 0.55207 0.33979 0.05668 0.0
H344 H 0.57426 0.47155 0.06899 0.0
H345 H 0.53623 0.38436 0.13228 0.0
H346 H 0.47501 0.40861 0.13943 0.0
H347 H 0.63425 0.53243 0.10403 0.0
H348 H 0.62042 0.58767 0.12482 0.0
H349 H 0.60688 0.32795 0.08289 0.0
H350 H 0.47273 0.29735 0.13547 0.0
H351 H 0.4615 0.46332 0.1602 0.0
H352 H 0.64166 0.30176 0.11309 0.0
H353 H 0.50997 0.27297 0.16662 0.0
C354 C 0.47501 0.5895 0.12916 0.0
C355 C 0.43573 0.57373 0.14947 0.0
H356 H 0.54045 0.58836 0.11163 0.0
C357 C 0.44555 0.55835 0.17149 0.0
H358 H 0.46869 0.60177 0.11199 0.0
C359 C 0.48704 0.55073 0.17137 0.0
C360 C 0.51881 0.55823 0.14917 0.0
H361 H 0.41662 0.54707 0.18766 0.0
H362 H 0.48924 0.53379 0.18746 0.0
C363 C 0.51639 0.58181 0.129 0.0
C364 C 0.83833 0.22728 0.46718 0.0
C365 C 0.779 0.20962 0.4674 0.0
H366 H 0.93143 0.28905 0.46249 0.0
C367 C 0.76972 0.24376 0.46529 0.0
H368 H 0.84723 0.2021 0.4687 0.0
C369 C 0.81803 0.29373 0.46207 0.0
C370 C 0.87722 0.31119 0.46057 0.0
H371 H 0.72485 0.23179 0.46573 0.0
H372 H 0.80869 0.31859 0.46034 0.0
C373 C 0.88678 0.27736 0.46374 0.0
C374 C 0.61215 0.78622 0.79487 0.0
C375 C 0.67065 0.80442 0.80066 0.0
H376 H 0.55691 0.80225 0.78184 0.0
C377 C 0.71915 0.85469 0.79753 0.0
H378 H 0.57361 0.74797 0.79744 0.0
C379 C 0.70948 0.88584 0.78883 0.0
C380 C 0.65109 0.86754 0.78285 0.0
H381 H 0.76491 0.86991 0.80132 0.0
H382 H 0.74796 0.9241 0.7862 0.0
C383 C 0.60251 0.81737 0.786 0.0
C384 C 0.69757 0.3752 0.19183 0.0
C385 C 0.74135 0.37192 0.18433 0.0
H386 H 0.60874 0.3482 0.18499 0.0
C387 C 0.72283 0.32835 0.17114 0.0
H388 H 0.71011 0.4079 0.20232 0.0
C389 C 0.66414 0.29359 0.1612 0.0
C390 C 0.62381 0.30257 0.16411 0.0
H391 H 0.75544 0.32426 0.16569 0.0
H392 H 0.65328 0.26393 0.14817 0.0
C393 C 0.63889 0.34046 0.1819 0.0
C394 C 0.41141 0.87925 0.44862 0.0
C395 C 0.46724 0.89692 0.4587 0.0
H396 H 0.32012 0.81634 0.43846 0.0
C397 C 0.47193 0.86241 0.46729 0.0
H398 H 0.40592 0.90459 0.44186 0.0
C399 C 0.42249 0.81162 0.46539 0.0
C400 C 0.3668 0.79389 0.45503 0.0
H401 H 0.51403 0.87452 0.47529 0.0
H402 H 0.42792 0.78618 0.47204 0.0
C403 C 0.3619 0.82852 0.44688 0.0
C404 C 0.61492 0.26818 0.81663 0.0
C405 C 0.55599 0.2493 0.8213 0.0
H406 H 0.67161 0.2537 0.80225 0.0
C407 C 0.50824 0.19879 0.81555 0.0
H408 H 0.65288 0.30667 0.82132 0.0
C409 C 0.51903 0.16833 0.8046 0.0
C410 C 0.57784 0.18767 0.79915 0.0
H411 H 0.46228 0.18314 0.81867 0.0
H412 H 0.48107 0.13001 0.79957 0.0
C413 C 0.62569 0.2378 0.8057 0.0
C414 C 0.64827 0.81728 0.53973 0.0
C415 C 0.65848 0.8285 0.51388 0.0
H416 H 0.63533 0.77044 0.5683 0.0
C417 C 0.65951 0.79762 0.49643 0.0
H418 H 0.64805 0.84078 0.55368 0.0
C419 C 0.65157 0.75687 0.50473 0.0
C420 C 0.64292 0.74631 0.53073 0.0
H421 H 0.66653 0.80502 0.47632 0.0
H422 H 0.65231 0.7337 0.49075 0.0
C423 C 0.64084 0.77682 0.54807 0.0
C424 C 0.83273 0.57688 0.84615 0.0
C425 C 0.77182 0.53313 0.84496 0.0
H426 H 0.92618 0.61095 0.84939 0.0
C427 C 0.76188 0.48843 0.84507 0.0
H428 H 0.84342 0.61236 0.84626 0.0
C429 C 0.80991 0.48739 0.84643 0.0
C430 C 0.87117 0.53109 0.84815 0.0
H431 H 0.71636 0.45356 0.84399 0.0
H432 H 0.79819 0.45156 0.84592 0.0
C433 C 0.88097 0.57592 0.84782 0.0
C434 C 0.25698 0.73068 0.1592 0.0
C435 C 0.25864 0.69284 0.15174 0.0
H436 H 0.30665 0.80809 0.16748 0.0
C437 C 0.31446 0.70607 0.14575 0.0
H438 H 0.21488 0.72204 0.16387 0.0
C439 C 0.36736 0.75569 0.1479 0.0
C440 C 0.36575 0.79345 0.15576 0.0
H441 H 0.31754 0.67801 0.13991 0.0
H442 H 0.40967 0.76449 0.14354 0.0
C443 C 0.30967 0.78023 0.16105 0.0
C444 C 0.52819 0.27911 0.48786 0.0
C445 C 0.57465 0.277 0.48493 0.0
H446 H 0.50217 0.32028 0.50228 0.0
C447 C 0.63312 0.31836 0.49342 0.0
H448 H 0.48277 0.24835 0.48121 0.0
C449 C 0.64454 0.3602 0.50502 0.0
C450 C 0.59775 0.36173 0.50863 0.0
H451 H 0.67 0.31803 0.49177 0.0
H452 H 0.69012 0.39126 0.51132 0.0
C453 C 0.53953 0.3208 0.49963 0.0
C454 C 0.46685 0.5696 0.84718 0.0
C455 C 0.45897 0.52582 0.84832 0.0
H456 H 0.42759 0.60459 0.84858 0.0
C457 C 0.39917 0.48197 0.85109 0.0
H458 H 0.51147 0.6045 0.8451 0.0
C459 C 0.35016 0.48186 0.85283 0.0
C460 C 0.35779 0.52567 0.85208 0.0
H461 H 0.38985 0.44713 0.85191 0.0
H462 H 0.30579 0.44664 0.85456 0.0
C463 C 0.41778 0.56955 0.84903 0.0
C464 C 0.92712 0.345 0.13233 0.0
C465 C 0.94024 0.38311 0.14929 0.0
H466 H 0.86735 0.26724 0.12197 0.0
C467 C 0.90137 0.37035 0.16954 0.0
H468 H 0.95598 0.35344 0.11649 0.0
C469 C 0.8514 0.32104 0.17302 0.0
C470 C 0.83766 0.2826 0.15609 0.0
H471 H 0.91017 0.39846 0.18321 0.0
H472 H 0.82427 0.31317 0.18946 0.0
C473 C 0.87634 0.29543 0.13561 0.0
C474 C 0.11248 0.59092 0.06295 0.0
C475 C 0.0859 0.54901 0.0771 0.0
H476 H 0.14017 0.62161 0.02609 0.0
C477 C 1.06709 0.50503 0.06442 0.0
H478 H 0.12767 0.62537 0.07227 0.0
C479 C 1.07356 0.50271 0.03799 0.0
C480 C 0.10007 0.5446 0.02378 0.0
H481 H 1.04664 0.47218 0.07486 0.0
H482 H 1.05812 0.46819 0.02865 0.0
C483 C 0.11998 0.58886 0.03658 0.0
C484 C 0.59442 0.0443 0.3813 0.0
C485 C 0.64723 0.05747 0.3923 0.0
H486 H 0.54694 0.03269 0.34653 0.0
C487 C 0.69367 0.0699 0.3763 0.0
H488 H 0.55802 0.03465 0.39324 0.0
C489 C 0.6869 0.06788 0.34979 0.0
C490 C 0.63408 0.05442 0.33873 0.0
H491 H 0.73492 0.08023 0.38423 0.0
H492 H 0.72306 0.07691 0.33787 0.0
C493 C 0.58815 0.0433 0.35469 0.0
C494 C 0.6348 0.56248 0.76381 0.0
C495 C 0.61753 0.51716 0.77056 0.0
H496 H 0.65716 0.60953 0.73319 0.0
C497 C 0.61287 0.48537 0.7516 0.0
H498 H 0.63782 0.5872 0.77809 0.0
C499 C 0.62433 0.49812 0.72622 0.0
C500 C 0.63979 0.54266 0.71914 0.0
H501 H 0.59951 0.45015 0.75635 0.0
H502 H 0.61894 0.47221 0.71195 0.0
C503 C 0.64533 0.57497 0.73817 0.0
C504 C 0.54968 0.01334 0.55216 0.0
C505 C 0.60065 0.04532 0.5376 0.0
H506 H 0.51535 0.98606 0.58907 0.0
C507 C 0.65787 0.07377 0.54952 0.0
H508 H 0.50502 0.99087 0.54342 0.0
C509 C 0.66381 0.07124 0.57578 0.0
C510 C 0.61265 0.03967 0.59044 0.0
H511 H 0.69789 0.09864 0.53868 0.0
H512 H 0.70836 0.09396 0.58463 0.0
C513 C 0.5556 1.01037 0.57826 0.0
C514 C 0.57563 0.48343 0.92077 0.0
C515 C 0.63389 0.52134 0.91277 0.0
H516 H 0.52158 0.43223 0.94938 0.0
C517 C 0.68331 0.53378 0.92673 0.0
H518 H 0.53681 0.47312 0.9102 0.0
C519 C 0.67469 0.50967 0.94883 0.0
C520 C 0.61648 0.47316 0.95761 0.0
H521 H 0.72867 0.56239 0.92068 0.0
H522 H 0.71376 0.52034 0.95932 0.0
C523 C 0.56697 0.45966 0.94304 0.0
C524 C 0.08942 0.48513 0.23333 0.0
C525 C 0.11748 0.52745 0.21939 0.0
H526 H 1.06616 0.45524 0.27038 0.0
C527 C 0.14365 0.57301 0.23246 0.0
H528 H 1.06864 0.44955 0.22361 0.0
C529 C 0.14331 0.5764 0.25919 0.0
C530 C 0.11538 0.53405 0.27311 0.0
H531 H 0.16553 0.60614 0.22208 0.0
H532 H 0.16468 0.612 0.26901 0.0
C533 C 0.08778 0.48831 0.25997 0.0
loop_
_geom_bond_atom_site_label_1
_geom_bond_atom_site_label_2
_geom_bond_distance
_geom_bond_site_symmetry_2
_ccdc_geom_bond_type
Gd0 C3 2.818 . S
Gd0 O20 2.377 . S
Gd0 O22 2.448 . S
Gd0 O23 2.506 . S
Gd0 O24 2.435 . S
Gd0 O25 2.717 . S
Gd0 O27 2.395 1_455 S
Gd0 O31 2.327 . S
Gd1 C12 2.811 1_455 S
Gd1 O21 2.401 . S
Gd1 O25 2.332 . S
Gd1 O26 2.377 1_455 S
Gd1 O28 2.441 1_455 S
Gd1 O29 2.500 1_455 S
Gd1 O30 2.437 . S
Gd1 O31 2.724 . S
C2 O20 1.240 . S
C2 O21 1.240 . S
C3 Gd0 2.818 . S
C3 C4 1.510 . S
C3 O22 1.249 . S
C3 O23 1.252 . S
C4 C3 1.510 . S
C4 C5 1.404 . S
C4 C6 1.352 . S
C5 C4 1.404 . S
C5 C9 1.389 . S
C5 H32 0.930 . S
C6 C4 1.352 . S
C6 C8 1.374 . S
C6 H33 0.931 . S
C7 C8 1.359 . S
C7 C9 1.364 . S
C8 C6 1.374 . S
C8 C7 1.359 . S
C8 H34 0.931 . S
C9 C5 1.389 . S
C9 C7 1.364 . S
C9 H35 0.931 . S
C10 O24 1.256 . S
C10 O25 1.257 . S
C11 O26 1.240 . S
C11 O27 1.240 . S
C12 Gd1 2.811 1_655 S
C12 C13 1.510 . S
C12 O28 1.249 . S
C12 O29 1.252 . S
C13 C12 1.510 . S
C13 C14 1.404 . S
C13 C15 1.352 . S
C14 C13 1.404 . S
C14 C18 1.389 . S
C14 H36 0.930 . S
C15 C13 1.352 . S
C15 C17 1.374 . S
C15 H37 0.931 . S
C16 C17 1.359 . S
C16 C18 1.364 . S
C17 C15 1.374 . S
C17 C16 1.359 . S
C17 H38 0.931 . S
C18 C14 1.389 . S
C18 C16 1.364 . S
C18 H39 0.931 . S
C19 O30 1.256 . S
C19 O31 1.257 . S
O20 Gd0 2.377 . S
O20 C2 1.240 . S
O21 Gd1 2.401 . S
O21 C2 1.240 . S
O22 Gd0 2.448 . S
O22 C3 1.249 . S
O23 Gd0 2.506 . S
O23 C3 1.252 . S
O24 Gd0 2.435 . S
O24 C10 1.256 . S
O25 Gd0 2.717 . S
O25 Gd1 2.332 . S
O25 C10 1.257 . S
O26 Gd1 2.377 1_655 S
O26 C11 1.240 . S
O27 Gd0 2.395 1_655 S
O27 C11 1.240 . S
O28 Gd1 2.441 1_655 S
O28 C12 1.249 . S
O29 Gd1 2.500 1_655 S
O29 C12 1.252 . S
O30 Gd1 2.437 . S
O30 C19 1.256 . S
O31 Gd0 2.327 . S
O31 Gd1 2.724 . S
O31 C19 1.257 . S
H32 C5 0.930 . S
H33 C6 0.931 . S
H34 C8 0.931 . S
H35 C9 0.931 . S
H36 C14 0.930 . S
H37 C15 0.931 . S
H38 C17 0.931 . S
H39 C18 0.931 . S
Gd40 C43 2.818 . S
Gd40 O60 2.377 . S
Gd40 O62 2.448 . S
Gd40 O63 2.506 . S
Gd40 O64 2.435 . S
Gd40 O65 2.717 1_565 S
Gd40 O67 2.395 1_565 S
Gd40 O71 2.327 1_565 S
Gd41 C52 2.818 . S
Gd41 O61 2.395 1_545 S
Gd41 O65 2.327 . S
Gd41 O66 2.377 . S
Gd41 O68 2.448 . S
Gd41 O69 2.506 . S
Gd41 O70 2.435 . S
Gd41 O71 2.717 . S
C42 O60 1.240 . S
C42 O61 1.240 . S
C43 Gd40 2.818 . S
C43 C44 1.510 . S
C43 O62 1.249 . S
C43 O63 1.252 . S
C44 C43 1.510 . S
C44 C45 1.404 . S
C44 C46 1.352 . S
C45 C44 1.404 . S
C45 C49 1.389 . S
C45 H72 0.930 . S
C46 C44 1.352 . S
C46 C48 1.374 . S
C46 H73 0.931 . S
C47 C48 1.359 . S
C47 C49 1.364 . S
C48 C46 1.374 . S
C48 C47 1.359 . S
C48 H74 0.931 . S
C49 C45 1.389 . S
C49 C47 1.364 . S
C49 H75 0.931 . S
C50 O64 1.256 1_545 S
C50 O65 1.257 . S
C51 O66 1.240 . S
C51 O67 1.240 . S
C52 Gd41 2.818 . S
C52 C53 1.510 . S
C52 O68 1.249 . S
C52 O69 1.252 . S
C53 C52 1.510 . S
C53 C54 1.404 . S
C53 C55 1.352 . S
C54 C53 1.404 . S
C54 C58 1.389 . S
C54 H76 0.930 . S
C55 C53 1.352 . S
C55 C57 1.374 . S
C55 H77 0.931 . S
C56 C57 1.359 . S
C56 C58 1.364 . S
C57 C55 1.374 . S
C57 C56 1.359 . S
C57 H78 0.931 . S
C58 C54 1.389 . S
C58 C56 1.364 . S
C58 H79 0.931 . S
C59 O70 1.256 . S
C59 O71 1.257 . S
O60 Gd40 2.377 . S
O60 C42 1.240 . S
O61 Gd41 2.395 1_565 S
O61 C42 1.240 . S
O62 Gd40 2.448 . S
O62 C43 1.249 . S
O63 Gd40 2.506 . S
O63 C43 1.252 . S
O64 Gd40 2.435 . S
O64 C50 1.256 1_565 S
O65 Gd40 2.717 1_545 S
O65 Gd41 2.327 . S
O65 C50 1.257 . S
O66 Gd41 2.377 . S
O66 C51 1.240 . S
O67 Gd40 2.395 1_545 S
O67 C51 1.240 . S
O68 Gd41 2.448 . S
O68 C52 1.249 . S
O69 Gd41 2.506 . S
O69 C52 1.252 . S
O70 Gd41 2.435 . S
O70 C59 1.256 . S
O71 Gd40 2.327 1_545 S
O71 Gd41 2.717 . S
O71 C59 1.257 . S
H72 C45 0.930 . S
H73 C46 0.931 . S
H74 C48 0.931 . S
H75 C49 0.931 . S
H76 C54 0.930 . S
H77 C55 0.931 . S
H78 C57 0.931 . S
H79 C58 0.931 . S
Gd80 C83 2.818 . S
Gd80 O100 2.377 . S
Gd80 O102 2.448 . S
Gd80 O103 2.506 . S
Gd80 O104 2.435 . S
Gd80 O105 2.717 . S
Gd80 O107 2.395 . S
Gd80 O111 2.327 . S
Gd81 C92 2.818 . S
Gd81 O101 2.395 . S
Gd81 O105 2.327 . S
Gd81 O106 2.377 . S
Gd81 O108 2.448 . S
Gd81 O109 2.506 . S
Gd81 O110 2.435 . S
Gd81 O111 2.717 . S
C82 O100 1.240 . S
C82 O101 1.240 . S
C83 Gd80 2.818 . S
C83 C84 1.510 . S
C83 O102 1.249 . S
C83 O103 1.252 . S
C84 C83 1.510 . S
C84 C85 1.404 . S
C84 C86 1.352 . S
C85 C84 1.404 . S
C85 C89 1.389 . S
C85 H112 0.930 . S
C86 C84 1.352 . S
C86 C88 1.374 . S
C86 H113 0.931 . S
C87 C88 1.359 . S
C87 C89 1.364 . S
C88 C86 1.374 . S
C88 C87 1.359 . S
C88 H114 0.931 . S
C89 C85 1.389 . S
C89 C87 1.364 . S
C89 H115 0.931 . S
C90 O104 1.256 . S
C90 O105 1.257 . S
C91 O106 1.240 . S
C91 O107 1.240 . S
C92 Gd81 2.818 . S
C92 C93 1.510 . S
C92 O108 1.249 . S
C92 O109 1.252 . S
C93 C92 1.510 . S
C93 C94 1.404 . S
C93 C95 1.352 . S
C94 C93 1.404 . S
C94 C98 1.389 . S
C94 H116 0.930 . S
C95 C93 1.352 . S
C95 C97 1.374 . S
C95 H117 0.931 . S
C96 C97 1.359 . S
C96 C98 1.364 . S
C97 C95 1.374 . S
C97 C96 1.359 . S
C97 H118 0.931 . S
C98 C94 1.389 . S
C98 C96 1.364 . S
C98 H119 0.931 . S
C99 O110 1.256 . S
C99 O111 1.257 . S
O100 Gd80 2.377 . S
O100 C82 1.240 . S
O101 Gd81 2.395 . S
O101 C82 1.240 . S
O102 Gd80 2.448 . S
O102 C83 1.249 . S
O103 Gd80 2.506 . S
O103 C83 1.252 . S
O104 Gd80 2.435 . S
O104 C90 1.256 . S
O105 Gd80 2.717 . S
O105 Gd81 2.327 . S
O105 C90 1.257 . S
O106 Gd81 2.377 . S
O106 C91 1.240 . S
O107 Gd80 2.395 . S
O107 C91 1.240 . S
O108 Gd81 2.448 . S
O108 C92 1.249 . S
O109 Gd81 2.506 . S
O109 C92 1.252 . S
O110 Gd81 2.435 . S
O110 C99 1.256 . S
O111 Gd80 2.327 . S
O111 Gd81 2.717 . S
O111 C99 1.257 . S
H112 C85 0.930 . S
H113 C86 0.931 . S
H114 C88 0.931 . S
H115 C89 0.931 . S
H116 C94 0.930 . S
H117 C95 0.931 . S
H118 C97 0.931 . S
H119 C98 0.931 . S
C120 C121 1.386 . S
C120 C122 1.397 . S
C120 H144 0.931 . S
C121 C120 1.386 . S
C121 C125 1.397 1_545 S
C122 C120 1.397 . S
C122 C123 1.384 . S
C122 H145 0.930 . S
C123 C122 1.384 . S
C123 C124 1.377 1_545 S
C123 C126 1.481 . S
C124 C123 1.377 1_565 S
C124 C125 1.389 . S
C124 H146 0.929 . S
C125 C121 1.397 1_565 S
C125 C124 1.389 . S
C125 H147 0.931 . S
C126 C123 1.481 . S
C126 C127 1.387 . S
C126 C131 1.390 1_545 S
C127 C126 1.387 . S
C127 C128 1.401 . S
C127 H148 0.930 . S
C128 C127 1.401 . S
C128 C129 1.376 . S
C128 C137 1.511 . S
C129 C128 1.376 . S
C129 C130 1.392 1_545 S
C129 H150 0.931 . S
C130 C129 1.392 1_565 S
C130 C131 1.361 . S
C130 C132 1.500 . S
C131 C126 1.390 1_565 S
C131 C130 1.361 . S
C131 H149 0.931 . S
C132 C130 1.500 . S
C132 C133 1.371 . S
C132 C134 1.365 . S
C133 C132 1.371 . S
C133 C143 1.386 . S
C133 H151 0.931 . S
C134 C132 1.365 . S
C134 C135 1.409 . S
C134 H152 0.929 . S
C135 C134 1.409 . S
C135 C136 1.380 . S
C135 H153 0.930 . S
C136 C135 1.380 . S
C136 C143 1.357 . S
C137 C128 1.511 . S
C137 C138 1.341 . S
C137 C139 1.371 . S
C138 C137 1.341 . S
C138 C142 1.394 . S
C138 H154 0.930 . S
C139 C137 1.371 . S
C139 C140 1.392 . S
C139 H155 0.931 . S
C140 C139 1.392 . S
C140 C141 1.331 . S
C140 H158 0.932 . S
C141 C140 1.331 . S
C141 C142 1.336 . S
C142 C138 1.394 . S
C142 C141 1.336 . S
C142 H157 0.929 . S
C143 C133 1.386 . S
C143 C136 1.357 . S
C143 H156 0.928 . S
H144 C120 0.931 . S
H145 C122 0.930 . S
H146 C124 0.929 . S
H147 C125 0.931 . S
H148 C127 0.930 . S
H149 C131 0.931 . S
H150 C129 0.931 . S
H151 C133 0.931 . S
H152 C134 0.929 . S
H153 C135 0.930 . S
H154 C138 0.930 . S
H155 C139 0.931 . S
H156 C143 0.928 . S
H157 C142 0.929 . S
H158 C140 0.932 . S
C159 C160 1.386 . S
C159 C161 1.397 . S
C159 H183 0.931 . S
C160 C159 1.386 . S
C160 C164 1.397 . S
C161 C159 1.397 . S
C161 C162 1.384 . S
C161 H184 0.930 . S
C162 C161 1.384 . S
C162 C163 1.377 . S
C162 C165 1.481 . S
C163 C162 1.377 . S
C163 C164 1.389 . S
C163 H185 0.929 . S
C164 C160 1.397 . S
C164 C163 1.389 . S
C164 H186 0.931 . S
C165 C162 1.481 . S
C165 C166 1.387 . S
C165 C170 1.390 . S
C166 C165 1.387 . S
C166 C167 1.401 . S
C166 H187 0.930 . S
C167 C166 1.401 . S
C167 C168 1.376 . S
C167 C176 1.511 . S
C168 C167 1.376 . S
C168 C169 1.392 . S
C168 H189 0.931 . S
C169 C168 1.392 . S
C169 C170 1.361 . S
C169 C171 1.500 . S
C170 C165 1.390 . S
C170 C169 1.361 . S
C170 H188 0.931 . S
C171 C169 1.500 . S
C171 C172 1.371 . S
C171 C173 1.365 . S
C172 C171 1.371 . S
C172 C182 1.386 . S
C172 H190 0.931 . S
C173 C171 1.365 . S
C173 C174 1.409 . S
C173 H191 0.929 . S
C174 C173 1.409 . S
C174 C175 1.380 . S
C174 H192 0.930 . S
C175 C174 1.380 . S
C175 C182 1.357 . S
C176 C167 1.511 . S
C176 C177 1.341 . S
C176 C178 1.371 . S
C177 C176 1.341 . S
C177 C181 1.394 . S
C177 H193 0.930 . S
C178 C176 1.371 . S
C178 C179 1.392 . S
C178 H194 0.931 . S
C179 C178 1.392 . S
C179 C180 1.331 . S
C179 H197 0.932 . S
C180 C179 1.331 . S
C180 C181 1.336 . S
C181 C177 1.394 . S
C181 C180 1.336 . S
C181 H196 0.929 . S
C182 C172 1.386 . S
C182 C175 1.357 . S
C182 H195 0.928 . S
H183 C159 0.931 . S
H184 C161 0.930 . S
H185 C163 0.929 . S
H186 C164 0.931 . S
H187 C166 0.930 . S
H188 C170 0.931 . S
H189 C168 0.931 . S
H190 C172 0.931 . S
H191 C173 0.929 . S
H192 C174 0.930 . S
H193 C177 0.930 . S
H194 C178 0.931 . S
H195 C182 0.928 . S
H196 C181 0.929 . S
H197 C179 0.932 . S
C198 C199 1.372 1_556 S
C198 C200 1.397 . S
C198 H222 0.946 . S
C199 C198 1.372 1_554 S
C199 C203 1.381 1_554 S
C200 C198 1.397 . S
C200 C201 1.384 . S
C200 H223 0.930 . S
C201 C200 1.384 . S
C201 C202 1.377 . S
C201 C204 1.481 . S
C202 C201 1.377 . S
C202 C203 1.389 . S
C202 H224 0.929 1_455 S
C203 C199 1.381 1_556 S
C203 C202 1.389 . S
C203 H225 0.931 1_455 S
C204 C201 1.481 . S
C204 C205 1.387 . S
C204 C209 1.390 . S
C205 C204 1.387 . S
C205 C206 1.401 . S
C205 H226 0.930 . S
C206 C205 1.401 . S
C206 C207 1.376 . S
C206 C215 1.511 . S
C207 C206 1.376 . S
C207 C208 1.392 . S
C207 H228 0.931 . S
C208 C207 1.392 . S
C208 C209 1.361 . S
C208 C210 1.500 1_455 S
C209 C204 1.390 . S
C209 C208 1.361 . S
C209 H227 0.931 . S
C210 C208 1.500 1_655 S
C210 C211 1.371 1_655 S
C210 C212 1.365 . S
C211 C210 1.371 1_455 S
C211 C221 1.386 1_455 S
C211 H229 0.931 . S
C212 C210 1.365 . S
C212 C213 1.409 . S
C212 H230 0.929 . S
C213 C212 1.409 . S
C213 C214 1.380 . S
C213 H231 0.930 . S
C214 C213 1.380 . S
C214 C221 1.357 . S
C215 C206 1.511 . S
C215 C216 1.341 . S
C215 C217 1.371 . S
C216 C215 1.341 . S
C216 C220 1.394 . S
C216 H232 0.930 . S
C217 C215 1.371 . S
C217 C218 1.392 . S
C217 H233 0.931 . S
C218 C217 1.392 . S
C218 C219 1.331 . S
C218 H236 0.932 . S
C219 C218 1.331 . S
C219 C220 1.336 . S
C220 C216 1.394 . S
C220 C219 1.336 . S
C220 H235 0.929 . S
C221 C211 1.386 1_655 S
C221 C214 1.357 . S
C221 H234 0.928 . S
H222 C198 0.946 . S
H223 C200 0.930 . S
H224 C202 0.929 1_655 S
H225 C203 0.931 1_655 S
H226 C205 0.930 . S
H227 C209 0.931 . S
H228 C207 0.931 . S
H229 C211 0.931 . S
H230 C212 0.929 . S
H231 C213 0.930 . S
H232 C216 0.930 . S
H233 C217 0.931 . S
H234 C221 0.928 . S
H235 C220 0.929 . S
H236 C218 0.932 . S
C237 C238 1.405 . S
C237 C239 1.397 . S
C237 H261 0.931 . S
C238 C237 1.405 . S
C238 C242 1.379 1_655 S
C239 C237 1.397 . S
C239 C240 1.384 . S
C239 H262 0.930 . S
C240 C239 1.384 . S
C240 C241 1.377 1_655 S
C240 C243 1.481 . S
C241 C240 1.377 1_455 S
C241 C242 1.389 . S
C241 H263 0.929 . S
C242 C238 1.379 1_455 S
C242 C241 1.389 . S
C242 H264 0.931 . S
C243 C240 1.481 . S
C243 C244 1.387 . S
C243 C248 1.390 1_655 S
C244 C243 1.387 . S
C244 C245 1.401 . S
C244 H265 0.930 . S
C245 C244 1.401 . S
C245 C246 1.376 . S
C245 C254 1.511 . S
C246 C245 1.376 . S
C246 C247 1.392 1_655 S
C246 H267 0.931 . S
C247 C246 1.392 1_455 S
C247 C248 1.361 . S
C247 C249 1.500 . S
C248 C243 1.390 1_455 S
C248 C247 1.361 . S
C248 H266 0.931 . S
C249 C247 1.500 . S
C249 C250 1.371 . S
C249 C251 1.365 . S
C250 C249 1.371 . S
C250 C260 1.386 . S
C250 H268 0.931 . S
C251 C249 1.365 . S
C251 C252 1.409 . S
C251 H269 0.929 . S
C252 C251 1.409 . S
C252 C253 1.380 . S
C252 H270 0.930 . S
C253 C252 1.380 . S
C253 C260 1.357 . S
C254 C245 1.511 . S
C254 C255 1.341 . S
C254 C256 1.371 . S
C255 C254 1.341 . S
C255 C259 1.394 . S
C255 H271 0.930 . S
C256 C254 1.371 . S
C256 C257 1.392 . S
C256 H272 0.931 . S
C257 C256 1.392 . S
C257 C258 1.331 . S
C257 H275 0.932 . S
C258 C257 1.331 . S
C258 C259 1.336 . S
C259 C255 1.394 . S
C259 C258 1.336 . S
C259 H274 0.929 . S
C260 C250 1.386 . S
C260 C253 1.357 . S
C260 H273 0.928 . S
H261 C237 0.931 . S
H262 C239 0.930 . S
H263 C241 0.929 . S
H264 C242 0.931 . S
H265 C244 0.930 . S
H266 C248 0.931 . S
H267 C246 0.931 . S
H268 C250 0.931 . S
H269 C251 0.929 . S
H270 C252 0.930 . S
H271 C255 0.930 . S
H272 C256 0.931 . S
H273 C260 0.928 . S
H274 C259 0.929 . S
H275 C257 0.932 . S
C276 C277 1.386 . S
C276 C278 1.397 . S
C276 H300 0.931 . S
C277 C276 1.386 . S
C277 C281 1.397 1_565 S
C278 C276 1.397 . S
C278 C279 1.384 . S
C278 H301 0.930 . S
C279 C278 1.384 . S
C279 C280 1.377 1_565 S
C279 C282 1.481 . S
C280 C279 1.377 1_545 S
C280 C281 1.389 . S
C280 H302 0.929 . S
C281 C277 1.397 1_545 S
C281 C280 1.389 . S
C281 H303 0.931 . S
C282 C279 1.481 . S
C282 C283 1.387 . S
C282 C287 1.390 1_565 S
C283 C282 1.387 . S
C283 C284 1.401 . S
C283 H304 0.930 . S
C284 C283 1.401 . S
C284 C285 1.376 1_565 S
C284 C293 1.511 . S
C285 C284 1.376 1_545 S
C285 C286 1.392 . S
C285 H306 0.931 . S
C286 C285 1.392 . S
C286 C287 1.361 . S
C286 C288 1.500 . S
C287 C282 1.390 1_545 S
C287 C286 1.361 . S
C287 H305 0.931 . S
C288 C286 1.500 . S
C288 C289 1.371 . S
C288 C290 1.365 . S
C289 C288 1.371 . S
C289 C299 1.386 . S
C289 H307 0.931 . S
C290 C288 1.365 . S
C290 C291 1.409 . S
C290 H308 0.929 . S
C291 C290 1.409 . S
C291 C292 1.380 . S
C291 H309 0.930 . S
C292 C291 1.380 . S
C292 C299 1.357 . S
C293 C284 1.511 . S
C293 C294 1.341 . S
C293 C295 1.371 . S
C294 C293 1.341 . S
C294 C298 1.394 . S
C294 H310 0.930 . S
C295 C293 1.371 . S
C295 C296 1.392 . S
C295 H311 0.931 . S
C296 C295 1.392 . S
C296 C297 1.331 . S
C296 H314 0.932 . S
C297 C296 1.331 . S
C297 C298 1.336 . S
C298 C294 1.394 . S
C298 C297 1.336 . S
C298 H313 0.929 . S
C299 C289 1.386 . S
C299 C292 1.357 . S
C299 H312 0.928 . S
H300 C276 0.931 . S
H301 C278 0.930 . S
H302 C280 0.929 . S
H303 C281 0.931 . S
H304 C283 0.930 . S
H305 C287 0.931 . S
H306 C285 0.931 . S
H307 C289 0.931 . S
H308 C290 0.929 . S
H309 C291 0.930 . S
H310 C294 0.930 . S
H311 C295 0.931 . S
H312 C299 0.928 . S
H313 C298 0.929 . S
H314 C296 0.932 . S
C315 C316 1.386 . S
C315 C317 1.397 1_556 S
C315 H339 0.931 . S
C316 C315 1.386 . S
C316 C320 1.397 . S
C317 C315 1.397 1_554 S
C317 C318 1.384 . S
C317 H340 0.930 . S
C318 C317 1.384 . S
C318 C319 1.377 . S
C318 C321 1.481 . S
C319 C318 1.377 . S
C319 C320 1.389 1_554 S
C319 H341 0.929 . S
C320 C316 1.397 . S
C320 C319 1.389 1_556 S
C320 H342 0.931 . S
C321 C318 1.481 . S
C321 C322 1.387 . S
C321 C326 1.390 . S
C322 C321 1.387 . S
C322 C323 1.401 . S
C322 H343 0.930 . S
C323 C322 1.401 . S
C323 C324 1.376 . S
C323 C332 1.511 . S
C324 C323 1.376 . S
C324 C325 1.392 . S
C324 H345 0.931 . S
C325 C324 1.392 . S
C325 C326 1.361 . S
C325 C327 1.500 . S
C326 C321 1.390 . S
C326 C325 1.361 . S
C326 H344 0.931 . S
C327 C325 1.500 . S
C327 C328 1.371 . S
C327 C329 1.365 . S
C328 C327 1.371 . S
C328 C338 1.386 . S
C328 H346 0.931 . S
C329 C327 1.365 . S
C329 C330 1.409 . S
C329 H347 0.929 . S
C330 C329 1.409 . S
C330 C331 1.380 . S
C330 H348 0.930 . S
C331 C330 1.380 . S
C331 C338 1.357 . S
C332 C323 1.511 . S
C332 C333 1.341 . S
C332 C334 1.371 . S
C333 C332 1.341 . S
C333 C337 1.394 . S
C333 H349 0.930 . S
C334 C332 1.371 . S
C334 C335 1.392 . S
C334 H350 0.931 . S
C335 C334 1.392 . S
C335 C336 1.331 . S
C335 H353 0.932 . S
C336 C335 1.331 . S
C336 C337 1.336 . S
C337 C333 1.394 . S
C337 C336 1.336 . S
C337 H352 0.929 . S
C338 C328 1.386 . S
C338 C331 1.357 . S
C338 H351 0.928 . S
H339 C315 0.931 . S
H340 C317 0.930 . S
H341 C319 0.929 . S
H342 C320 0.931 . S
H343 C322 0.930 . S
H344 C326 0.931 . S
H345 C324 0.931 . S
H346 C328 0.931 . S
H347 C329 0.929 . S
H348 C330 0.930 . S
H349 C333 0.930 . S
H350 C334 0.931 . S
H351 C338 0.928 . S
H352 C337 0.929 . S
H353 C335 0.932 . S
C354 C355 1.387 . S
C354 H358 0.950 . S
C354 C363 1.390 . S
C355 C354 1.387 . S
C355 C357 1.387 . S
H356 C363 0.950 . S
C357 C355 1.387 . S
C357 C359 1.390 . S
C357 H361 0.950 . S
H358 C354 0.950 . S
C359 C357 1.390 . S
C359 C360 1.387 . S
C359 H362 0.950 . S
C360 C359 1.387 . S
C360 C363 1.387 . S
H361 C357 0.950 . S
H362 C359 0.950 . S
C363 C354 1.390 . S
C363 H356 0.950 . S
C363 C360 1.387 . S
C364 C365 1.387 . S
C364 H368 0.950 . S
C364 C373 1.390 . S
C365 C364 1.387 . S
C365 C367 1.387 . S
H366 C373 0.950 . S
C367 C365 1.387 . S
C367 C369 1.390 . S
C367 H371 0.950 . S
H368 C364 0.950 . S
C369 C367 1.390 . S
C369 C370 1.387 . S
C369 H372 0.950 . S
C370 C369 1.387 . S
C370 C373 1.387 . S
H371 C367 0.950 . S
H372 C369 0.950 . S
C373 C364 1.390 . S
C373 H366 0.950 . S
C373 C370 1.387 . S
C374 C375 1.387 . S
C374 H378 0.950 . S
C374 C383 1.390 . S
C375 C374 1.387 . S
C375 C377 1.387 . S
H376 C383 0.950 . S
C377 C375 1.387 . S
C377 C379 1.390 . S
C377 H381 0.950 . S
H378 C374 0.950 . S
C379 C377 1.390 . S
C379 C380 1.387 . S
C379 H382 0.950 . S
C380 C379 1.387 . S
C380 C383 1.387 . S
H381 C377 0.950 . S
H382 C379 0.950 . S
C383 C374 1.390 . S
C383 H376 0.950 . S
C383 C380 1.387 . S
C384 C385 1.387 . S
C384 H388 0.950 . S
C384 C393 1.390 . S
C385 C384 1.387 . S
C385 C387 1.387 . S
H386 C393 0.950 . S
C387 C385 1.387 . S
C387 C389 1.390 . S
C387 H391 0.950 . S
H388 C384 0.950 . S
C389 C387 1.390 . S
C389 C390 1.387 . S
C389 H392 0.950 . S
C390 C389 1.387 . S
C390 C393 1.387 . S
H391 C387 0.950 . S
H392 C389 0.950 . S
C393 C384 1.390 . S
C393 H386 0.950 . S
C393 C390 1.387 . S
C394 C395 1.387 . S
C394 H398 0.950 . S
C394 C403 1.390 . S
C395 C394 1.387 . S
C395 C397 1.387 . S
H396 C403 0.950 . S
C397 C395 1.387 . S
C397 C399 1.390 . S
C397 H401 0.950 . S
H398 C394 0.950 . S
C399 C397 1.390 . S
C399 C400 1.387 . S
C399 H402 0.950 . S
C400 C399 1.387 . S
C400 C403 1.387 . S
H401 C397 0.950 . S
H402 C399 0.950 . S
C403 C394 1.390 . S
C403 H396 0.950 . S
C403 C400 1.387 . S
C404 C405 1.387 . S
C404 H408 0.950 . S
C404 C413 1.390 . S
C405 C404 1.387 . S
C405 C407 1.387 . S
H406 C413 0.950 . S
C407 C405 1.387 . S
C407 C409 1.390 . S
C407 H411 0.950 . S
H408 C404 0.950 . S
C409 C407 1.390 . S
C409 C410 1.387 . S
C409 H412 0.950 . S
C410 C409 1.387 . S
C410 C413 1.387 . S
H411 C407 0.950 . S
H412 C409 0.950 . S
C413 C404 1.390 . S
C413 H406 0.950 . S
C413 C410 1.387 . S
C414 C415 1.387 . S
C414 H418 0.950 . S
C414 C423 1.390 . S
C415 C414 1.387 . S
C415 C417 1.387 . S
H416 C423 0.950 . S
C417 C415 1.387 . S
C417 C419 1.390 . S
C417 H421 0.950 . S
H418 C414 0.950 . S
C419 C417 1.390 . S
C419 C420 1.387 . S
C419 H422 0.950 . S
C420 C419 1.387 . S
C420 C423 1.387 . S
H421 C417 0.950 . S
H422 C419 0.950 . S
C423 C414 1.390 . S
C423 H416 0.950 . S
C423 C420 1.387 . S
C424 C425 1.387 . S
C424 H428 0.950 . S
C424 C433 1.390 . S
C425 C424 1.387 . S
C425 C427 1.387 . S
H426 C433 0.950 . S
C427 C425 1.387 . S
C427 C429 1.390 . S
C427 H431 0.950 . S
H428 C424 0.950 . S
C429 C427 1.390 . S
C429 C430 1.387 . S
C429 H432 0.950 . S
C430 C429 1.387 . S
C430 C433 1.387 . S
H431 C427 0.950 . S
H432 C429 0.950 . S
C433 C424 1.390 . S
C433 H426 0.950 . S
C433 C430 1.387 . S
C434 C435 1.387 . S
C434 H438 0.950 . S
C434 C443 1.390 . S
C435 C434 1.387 . S
C435 C437 1.387 . S
H436 C443 0.950 . S
C437 C435 1.387 . S
C437 C439 1.390 . S
C437 H441 0.950 . S
H438 C434 0.950 . S
C439 C437 1.390 . S
C439 C440 1.387 . S
C439 H442 0.950 . S
C440 C439 1.387 . S
C440 C443 1.387 . S
H441 C437 0.950 . S
H442 C439 0.950 . S
C443 C434 1.390 . S
C443 H436 0.950 . S
C443 C440 1.387 . S
C444 C445 1.387 . S
C444 H448 0.950 . S
C444 C453 1.390 . S
C445 C444 1.387 . S
C445 C447 1.387 . S
H446 C453 0.950 . S
C447 C445 1.387 . S
C447 C449 1.390 . S
C447 H451 0.950 . S
H448 C444 0.950 . S
C449 C447 1.390 . S
C449 C450 1.387 . S
C449 H452 0.950 . S
C450 C449 1.387 . S
C450 C453 1.387 . S
H451 C447 0.950 . S
H452 C449 0.950 . S
C453 C444 1.390 . S
C453 H446 0.950 . S
C453 C450 1.387 . S
C454 C455 1.387 . S
C454 H458 0.950 . S
C454 C463 1.390 . S
C455 C454 1.387 . S
C455 C457 1.387 . S
H456 C463 0.950 . S
C457 C455 1.387 . S
C457 C459 1.390 . S
C457 H461 0.950 . S
H458 C454 0.950 . S
C459 C457 1.390 . S
C459 C460 1.387 . S
C459 H462 0.950 . S
C460 C459 1.387 . S
C460 C463 1.387 . S
H461 C457 0.950 . S
H462 C459 0.950 . S
C463 C454 1.390 . S
C463 H456 0.950 . S
C463 C460 1.387 . S
C464 C465 1.387 . S
C464 H468 0.950 . S
C464 C473 1.390 . S
C465 C464 1.387 . S
C465 C467 1.387 . S
H466 C473 0.950 . S
C467 C465 1.387 . S
C467 C469 1.390 . S
C467 H471 0.950 . S
H468 C464 0.950 . S
C469 C467 1.390 . S
C469 C470 1.387 . S
C469 H472 0.950 . S
C470 C469 1.387 . S
C470 C473 1.387 . S
H471 C467 0.950 . S
H472 C469 0.950 . S
C473 C464 1.390 . S
C473 H466 0.950 . S
C473 C470 1.387 . S
C474 C475 1.387 . S
C474 H478 0.950 . S
C474 C483 1.390 . S
C475 C474 1.387 . S
C475 C477 1.387 . S
H476 C483 0.950 . S
C477 C475 1.387 . S
C477 C479 1.390 . S
C477 H481 0.950 . S
H478 C474 0.950 . S
C479 C477 1.390 . S
C479 C480 1.387 . S
C479 H482 0.950 . S
C480 C479 1.387 . S
C480 C483 1.387 . S
H481 C477 0.950 . S
H482 C479 0.950 . S
C483 C474 1.390 . S
C483 H476 0.950 . S
C483 C480 1.387 . S
C484 C485 1.387 . S
C484 H488 0.950 . S
C484 C493 1.390 . S
C485 C484 1.387 . S
C485 C487 1.387 . S
H486 C493 0.950 . S
C487 C485 1.387 . S
C487 C489 1.390 . S
C487 H491 0.950 . S
H488 C484 0.950 . S
C489 C487 1.390 . S
C489 C490 1.387 . S
C489 H492 0.950 . S
C490 C489 1.387 . S
C490 C493 1.387 . S
H491 C487 0.950 . S
H492 C489 0.950 . S
C493 C484 1.390 . S
C493 H486 0.950 . S
C493 C490 1.387 . S
C494 C495 1.387 . S
C494 H498 0.950 . S
C494 C503 1.390 . S
C495 C494 1.387 . S
C495 C497 1.387 . S
H496 C503 0.950 . S
C497 C495 1.387 . S
C497 C499 1.390 . S
C497 H501 0.950 . S
H498 C494 0.950 . S
C499 C497 1.390 . S
C499 C500 1.387 . S
C499 H502 0.950 . S
C500 C499 1.387 . S
C500 C503 1.387 . S
H501 C497 0.950 . S
H502 C499 0.950 . S
C503 C494 1.390 . S
C503 H496 0.950 . S
C503 C500 1.387 . S
C504 C505 1.387 1_565 S
C504 H508 0.950 . S
C504 C513 1.390 . S
C505 C504 1.387 1_545 S
C505 C507 1.387 . S
H506 C513 0.950 . S
C507 C505 1.387 . S
C507 C509 1.390 . S
C507 H511 0.950 . S
H508 C504 0.950 . S
C509 C507 1.390 . S
C509 C510 1.387 1_545 S
C509 H512 0.950 . S
C510 C509 1.387 1_565 S
C510 C513 1.387 . S
H511 C507 0.950 . S
H512 C509 0.950 . S
C513 C504 1.390 . S
C513 H506 0.950 . S
C513 C510 1.387 . S
C514 C515 1.387 . S
C514 H518 0.950 . S
C514 C523 1.390 . S
C515 C514 1.387 . S
C515 C517 1.387 . S
H516 C523 0.950 . S
C517 C515 1.387 . S
C517 C519 1.390 . S
C517 H521 0.950 . S
H518 C514 0.950 . S
C519 C517 1.390 . S
C519 C520 1.387 . S
C519 H522 0.950 . S
C520 C519 1.387 . S
C520 C523 1.387 . S
H521 C517 0.950 . S
H522 C519 0.950 . S
C523 C514 1.390 . S
C523 H516 0.950 . S
C523 C520 1.387 . S
C524 C525 1.387 1_655 S
C524 H528 0.950 . S
C524 C533 1.390 . S
C525 C524 1.387 1_455 S
C525 C527 1.387 . S
H526 C533 0.950 . S
C527 C525 1.387 . S
C527 C529 1.390 . S
C527 H531 0.950 . S
H528 C524 0.950 . S
C529 C527 1.390 . S
C529 C530 1.387 . S
C529 H532 0.950 . S
C530 C529 1.387 . S
C530 C533 1.387 1_455 S
H531 C527 0.950 . S
H532 C529 0.950 . S
C533 C524 1.390 . S
C533 H526 0.950 . S
C533 C530 1.387 1_655 S
C355 C7 0.986 . S
C360 C331 1.059 . S
C365 C51 2.024 . S
C370 C258 1.958 . S
C375 C87 1.360 . S
C380 C297 1.412 . S
C385 C16 0.645 . S
C390 C336 0.577 . S
C400 C253 2.072 . S
C395 C42 2.182 . S
C410 C292 1.405 . S
C405 C96 1.386 . S
C415 C47 1.281 . S
C420 C180 1.312 . S
C425 C91 3.206 . S
C430 C214 3.130 . S
C435 C2 2.219 . S
C440 C136 2.129 . S
C450 C175 1.412 . S
C445 C56 1.379 . S
C460 C219 3.034 . S
C455 C82 3.100 . S
C465 C11 2.021 . S
C470 C141 1.968 . S
C480 C199 1.822 . S
C475 C19 1.720 . S
C485 C50 1.337 . S
C490 C121 1.376 . S
C495 C99 1.463 . S
C500 C160 1.512 . S
C510 C277 1.494 . S
C505 C59 1.458 . S
C520 C316 1.132 . S
C515 C90 1.140 . S
C525 C10 1.332 . S
C530 C238 1.358 1_455 S
