# Generated by pormake.
# Topology sqc, (4,8)-cn, num edge types: 1
# Building blocks:
#     Node 0, Type 0, BuildingBlock: NAHDIM_clean_linker_0, # of connection points: 4
#     Node 1, Type 0, BuildingBlock: NAHDIM_clean_linker_0, # of connection points: 4
#     Node 2, Type 0, BuildingBlock: NAHDIM_clean_linker_0, # of connection points: 4
#     Node 3, Type 0, BuildingBlock: NAHDIM_clean_linker_0, # of connection points: 4
#     Node 4, Type 0, BuildingBlock: NAHDIM_clean_linker_0, # of connection points: 4
#     Node 5, Type 0, BuildingBlock: NAHDIM_clean_linker_0, # of connection points: 4
#     Node 6, Type 0, BuildingBlock: NAHDIM_clean_linker_0, # of connection points: 4
#     Node 7, Type 0, BuildingBlock: NAHDIM_clean_linker_0, # of connection points: 4
#     Node 8, Type 1, BuildingBlock: VETTIZ_charged_sbu_0, # of connection points: 8
#     Node 9, Type 1, BuildingBlock: VETTIZ_charged_sbu_0, # of connection points: 8
#     Node 10, Type 1, BuildingBlock: VETTIZ_charged_sbu_0, # of connection points: 8
#     Node 11, Type 1, BuildingBlock: VETTIZ_charged_sbu_0, # of connection points: 8
#     Edge 12, Type (0, 1), BuildingBlock: CIFDUS_clean_linker_0, # of connection points: 2
#     Edge 13, Type (0, 1), BuildingBlock: CIFDUS_clean_linker_0, # of connection points: 2
#     Edge 14, Type (0, 1), BuildingBlock: CIFDUS_clean_linker_0, # of connection points: 2
#     Edge 15, Type (0, 1), BuildingBlock: CIFDUS_clean_linker_0, # of connection points: 2
#     Edge 16, Type (0, 1), BuildingBlock: CIFDUS_clean_linker_0, # of connection points: 2
#     Edge 17, Type (0, 1), BuildingBlock: CIFDUS_clean_linker_0, # of connection points: 2
#     Edge 18, Type (0, 1), BuildingBlock: CIFDUS_clean_linker_0, # of connection points: 2
#     Edge 19, Type (0, 1), BuildingBlock: CIFDUS_clean_linker_0, # of connection points: 2
#     Edge 20, Type (0, 1), BuildingBlock: CIFDUS_clean_linker_0, # of connection points: 2
#     Edge 21, Type (0, 1), BuildingBlock: CIFDUS_clean_linker_0, # of connection points: 2
#     Edge 22, Type (0, 1), BuildingBlock: CIFDUS_clean_linker_0, # of connection points: 2
#     Edge 23, Type (0, 1), BuildingBlock: CIFDUS_clean_linker_0, # of connection points: 2
#     Edge 24, Type (0, 1), BuildingBlock: CIFDUS_clean_linker_0, # of connection points: 2
#     Edge 25, Type (0, 1), BuildingBlock: CIFDUS_clean_linker_0, # of connection points: 2
#     Edge 26, Type (0, 1), BuildingBlock: CIFDUS_clean_linker_0, # of connection points: 2
#     Edge 27, Type (0, 1), BuildingBlock: CIFDUS_clean_linker_0, # of connection points: 2
#     Edge 28, Type (0, 1), BuildingBlock: CIFDUS_clean_linker_0, # of connection points: 2
#     Edge 29, Type (0, 1), BuildingBlock: CIFDUS_clean_linker_0, # of connection points: 2
#     Edge 30, Type (0, 1), BuildingBlock: CIFDUS_clean_linker_0, # of connection points: 2
#     Edge 31, Type (0, 1), BuildingBlock: CIFDUS_clean_linker_0, # of connection points: 2
#     Edge 32, Type (0, 1), BuildingBlock: CIFDUS_clean_linker_0, # of connection points: 2
#     Edge 33, Type (0, 1), BuildingBlock: CIFDUS_clean_linker_0, # of connection points: 2
#     Edge 34, Type (0, 1), BuildingBlock: CIFDUS_clean_linker_0, # of connection points: 2
#     Edge 35, Type (0, 1), BuildingBlock: CIFDUS_clean_linker_0, # of connection points: 2
#     Edge 36, Type (0, 1), BuildingBlock: CIFDUS_clean_linker_0, # of connection points: 2
#     Edge 37, Type (0, 1), BuildingBlock: CIFDUS_clean_linker_0, # of connection points: 2
#     Edge 38, Type (0, 1), BuildingBlock: CIFDUS_clean_linker_0, # of connection points: 2
#     Edge 39, Type (0, 1), BuildingBlock: CIFDUS_clean_linker_0, # of connection points: 2
#     Edge 40, Type (0, 1), BuildingBlock: CIFDUS_clean_linker_0, # of connection points: 2
#     Edge 41, Type (0, 1), BuildingBlock: CIFDUS_clean_linker_0, # of connection points: 2
#     Edge 42, Type (0, 1), BuildingBlock: CIFDUS_clean_linker_0, # of connection points: 2
#     Edge 43, Type (0, 1), BuildingBlock: CIFDUS_clean_linker_0, # of connection points: 2
# Relax obj value: 0.111
# Max RMSD: 0.262
# Mean RMSD: 0.120
data_MOF--net-sqc--node1-VETTIZ_charged_sbu_0--node2-NAHDIM_clean_linker_0--edge1-CIFDUS_clean_linker_0
_symmetry_space_group_name_H-M    P1
_symmetry_Int_Tables_number       1
_symmetry_cell_setting            triclinic
loop_
_symmetry_equiv_pos_as_xyz
'x, y, z'
_cell_length_a     28.837674
_cell_length_b     28.878225
_cell_length_c     93.719114
_cell_angle_alpha  89.62835
_cell_angle_beta   89.643664
_cell_angle_gamma 89.915029
loop_
_atom_site_label
_atom_site_type_symbol
_atom_site_fract_x
_atom_site_fract_y
_atom_site_fract_z
_atom_type_partial_charge
C0 C 0.75476 0.0455 0.44793 0.0
C1 C 0.76428 0.99915 0.44056 0.0
C2 C 0.82895 0.96631 0.45474 0.0
C3 C 0.84002 0.93158 0.46459 0.0
C4 C 0.88429 0.92869 0.47063 0.0
C5 C 0.91819 0.96192 0.46683 0.0
C6 C 0.90782 0.99631 0.45649 0.0
C7 C 0.86333 0.998 0.45045 0.0
C8 C 0.8944 0.89098 0.4814 0.0
C9 C 0.94346 0.03194 0.4521 0.0
C10 C 0.16854 0.76476 0.43341 0.0
C11 C 0.18783 0.81317 0.43613 0.0
C12 C 0.14959 0.85207 0.45608 0.0
C13 C 0.14013 0.89578 0.45015 0.0
C14 C 0.1064 0.92482 0.45628 0.0
C15 C 0.08153 0.90958 0.46851 0.0
C16 C 0.09147 0.86561 0.47456 0.0
C17 C 0.12607 0.83785 0.4684 0.0
C18 C 0.09745 0.97183 0.44973 0.0
C19 C 0.06527 0.84761 0.48744 0.0
C20 C 0.20448 0.05693 0.54457 0.0
C21 C 0.19137 0.08209 0.53234 0.0
C22 C 0.14678 0.0773 0.52657 0.0
C23 C 0.11524 0.04528 0.53277 0.0
C24 C 0.12848 0.01974 0.54503 0.0
C25 C 0.17265 0.0265 0.55087 0.0
C26 C 0.13354 0.10657 0.51381 0.0
C27 C 0.09615 0.98512 0.55197 0.0
C28 C 0.8323 0.19661 0.56419 0.0
C29 C 0.80431 0.15701 0.55755 0.0
C30 C 0.86613 0.10199 0.55087 0.0
C31 C 0.88609 0.12941 0.53996 0.0
C32 C 0.92588 0.11452 0.53256 0.0
C33 C 0.94524 0.07063 0.53573 0.0
C34 C 0.9249 0.0427 0.54654 0.0
C35 C 0.88588 0.05897 0.55403 0.0
C36 C 0.94696 0.14551 0.52124 0.0
C37 C 0.94417 0.99545 0.55011 0.0
C38 C 0.96335 0.96261 0.47436 0.0
C39 C 0.00098 0.93922 0.46828 0.0
C40 C 0.04442 0.93894 0.47485 0.0
C41 C 0.05103 0.96403 0.4876 0.0
C42 C 0.09475 0.96667 0.4941 0.0
C43 C 0.10069 0.99086 0.50677 0.0
C44 C 0.06309 0.01322 0.51346 0.0
C45 C 0.06878 0.03814 0.5263 0.0
C46 C 0.02994 0.05715 0.53316 0.0
C47 C 0.98552 0.05289 0.52738 0.0
C48 C 0.97974 0.0307 0.5141 0.0
C49 C 0.93605 0.02805 0.50757 0.0
C50 C 0.9308 0.00674 0.49443 0.0
C51 C 0.96864 0.98547 0.48755 0.0
C52 C 0.01279 0.98673 0.49409 0.0
C53 C 0.01859 0.01039 0.5072 0.0
C54 C 0.31105 0.04888 0.53503 0.0
C55 C 0.28656 0.08189 0.54534 0.0
O56 O 0.78457 0.96799 0.44996 0.0
O57 O 0.82837 0.11551 0.55864 0.0
O58 O 0.24685 0.06095 0.55079 0.0
O59 O 0.18221 0.82345 0.45048 0.0
H60 H 0.7876 0.00484 0.43121 0.0
H61 H 0.78761 0.06188 0.45132 0.0
H62 H 0.7325 0.04042 0.45753 0.0
H63 H 0.73709 0.06969 0.44046 0.0
H64 H 0.81341 0.90699 0.46772 0.0
H65 H 0.8556 0.02454 0.44262 0.0
H66 H 0.92698 0.8727 0.47848 0.0
H67 H 0.86586 0.86528 0.48219 0.0
H68 H 0.89951 0.90662 0.49206 0.0
H69 H 0.9303 0.05609 0.44378 0.0
H70 H 0.97497 0.01433 0.44794 0.0
H71 H 0.95392 0.05234 0.46155 0.0
H72 H 0.16806 0.8379 0.42933 0.0
H73 H 0.17322 0.75516 0.42203 0.0
H74 H 0.13089 0.76403 0.43598 0.0
H75 H 0.18634 0.73876 0.44025 0.0
H76 H 0.15963 0.90756 0.44091 0.0
H77 H 0.13418 0.80427 0.47298 0.0
H78 H 0.09846 0.99891 0.45809 0.0
H79 H 0.06226 0.97241 0.445 0.0
H80 H 0.12311 0.98065 0.44126 0.0
H81 H 0.07298 0.81057 0.48967 0.0
H82 H 0.02733 0.85161 0.48586 0.0
H83 H 0.07486 0.86808 0.49695 0.0
H84 H 0.27752 0.11444 0.53963 0.0
H85 H 0.21523 0.10589 0.52726 0.0
H86 H 0.1829 0.00736 0.56033 0.0
H87 H 0.13392 0.08482 0.5041 0.0
H88 H 0.15793 0.13584 0.51208 0.0
H89 H 0.09795 0.12073 0.51514 0.0
H90 H 0.1142 0.96287 0.5599 0.0
H91 H 0.08012 0.96263 0.5438 0.0
H92 H 0.06784 0.00395 0.55753 0.0
H93 H 0.79785 0.16503 0.5461 0.0
H94 H 0.81247 0.22958 0.56353 0.0
H95 H 0.86572 0.20186 0.55852 0.0
H96 H 0.83998 0.18896 0.57557 0.0
H97 H 0.87106 0.16249 0.53713 0.0
H98 H 0.87033 0.03792 0.56239 0.0
H99 H 0.94182 0.12984 0.51058 0.0
H100 H 0.9849 0.14881 0.52292 0.0
H101 H 0.93125 0.18066 0.52118 0.0
H102 H 0.92287 0.97694 0.55824 0.0
H103 H 0.97996 0.99907 0.55424 0.0
H104 H 0.94608 0.97401 0.54033 0.0
H105 H 0.99617 0.92033 0.45842 0.0
H106 H 0.12494 0.95019 0.48943 0.0
H107 H 0.13512 0.9915 0.51129 0.0
H108 H 0.03428 0.0753 0.54316 0.0
H109 H 0.90543 0.04297 0.51246 0.0
H110 H 0.89644 0.00654 0.48984 0.0
H111 H 0.32098 0.01632 0.54062 0.0
H112 H 0.34269 0.06533 0.53047 0.0
H113 H 0.28761 0.04017 0.52608 0.0
C114 C 0.03271 0.92215 0.80522 0.0
C115 C 0.08039 0.94537 0.80413 0.0
C116 C 0.12727 0.90466 0.78686 0.0
C117 C 0.16845 0.89664 0.79437 0.0
C118 C 0.19705 0.8588 0.79104 0.0
C119 C 0.18402 0.82838 0.77999 0.0
C120 C 0.14293 0.83709 0.77219 0.0
C121 C 0.11535 0.87561 0.77563 0.0
C122 C 0.24109 0.85121 0.79934 0.0
C123 C 0.12786 0.80539 0.76036 0.0
C124 C 0.18019 0.47493 0.82449 0.0
C125 C 0.19992 0.50095 0.81207 0.0
C126 C 0.21797 0.5832 0.80718 0.0
C127 C 0.19991 0.58512 0.79329 0.0
C128 C 0.20169 0.62623 0.78525 0.0
C129 C 0.22526 0.66521 0.79075 0.0
C130 C 0.24397 0.66317 0.80467 0.0
C131 C 0.23917 0.62246 0.81279 0.0
C132 C 0.1789 0.62736 0.77077 0.0
C133 C 0.26946 0.70375 0.81097 0.0
C134 C 0.39181 0.56941 0.71789 0.0
C135 C 0.34694 0.5855 0.71502 0.0
C136 C 0.33289 0.62979 0.71936 0.0
C137 C 0.36451 0.65854 0.72667 0.0
C138 C 0.41047 0.64319 0.72897 0.0
C139 C 0.42358 0.59874 0.72447 0.0
C140 C 0.28397 0.64557 0.71633 0.0
C141 C 0.44523 0.67318 0.73651 0.0
C142 C 0.34622 0.95053 0.67398 0.0
C143 C 0.33809 0.97399 0.68844 0.0
C144 C 0.3575 0.91202 0.70552 0.0
C145 C 0.31854 0.88421 0.70278 0.0
C146 C 0.31205 0.84201 0.70999 0.0
C147 C 0.34461 0.82776 0.72035 0.0
C148 C 0.38409 0.85528 0.72302 0.0
C149 C 0.39004 0.89704 0.71552 0.0
C150 C 0.26984 0.81312 0.70677 0.0
C151 C 0.41947 0.84096 0.73399 0.0
C152 C 0.21335 0.78753 0.77655 0.0
C153 C 0.2074 0.74711 0.78467 0.0
C154 C 0.2328 0.70695 0.78167 0.0
C155 C 0.2642 0.70659 0.77 0.0
C156 C 0.28985 0.6667 0.76649 0.0
C157 C 0.31745 0.66547 0.75429 0.0
C158 C 0.32217 0.70475 0.74548 0.0
C159 C 0.34821 0.70321 0.73267 0.0
C160 C 0.35534 0.7438 0.72475 0.0
C161 C 0.33571 0.78578 0.72909 0.0
C162 C 0.3068 0.78722 0.74133 0.0
C163 C 0.28423 0.82826 0.7455 0.0
C164 C 0.25377 0.82856 0.75707 0.0
C165 C 0.24556 0.78811 0.76512 0.0
C166 C 0.27004 0.74712 0.7616 0.0
C167 C 0.29997 0.74647 0.74952 0.0
C168 C 0.40067 0.45769 0.72809 0.0
C169 C 0.38023 0.48587 0.71576 0.0
O170 O 0.09818 0.93969 0.79049 0.0
O171 O 0.36521 0.95327 0.69883 0.0
O172 O 0.40584 0.52627 0.71415 0.0
O173 O 0.21475 0.54503 0.81572 0.0
H174 H 0.10227 0.92699 0.81213 0.0
H175 H 0.03664 0.88412 0.80396 0.0
H176 H 0.00925 0.9347 0.79669 0.0
H177 H 0.01682 0.92875 0.81584 0.0
H178 H 0.17817 0.92004 0.80283 0.0
H179 H 0.08358 0.88238 0.76985 0.0
H180 H 0.23847 0.81834 0.80549 0.0
H181 H 0.24806 0.87985 0.80689 0.0
H182 H 0.27101 0.84793 0.79189 0.0
H183 H 0.09326 0.81493 0.75608 0.0
H184 H 0.12661 0.76905 0.76429 0.0
H185 H 0.15356 0.80689 0.7515 0.0
H186 H 0.22557 0.48191 0.80537 0.0
H187 H 0.10934 0.46593 0.81909 0.0
H188 H 0.19148 0.49358 0.83441 0.0
H189 H 0.20465 0.44492 0.82614 0.0
H190 H 0.184 0.55506 0.78859 0.0
H191 H 0.25281 0.62078 0.82353 0.0
H192 H 0.16446 0.66215 0.76831 0.0
H193 H 0.1505 0.60151 0.77012 0.0
H194 H 0.20496 0.61871 0.76245 0.0
H195 H 0.28741 0.69436 0.82104 0.0
H196 H 0.24436 0.73191 0.8133 0.0
H197 H 0.29546 0.71749 0.80325 0.0
H198 H 0.34349 0.49358 0.71857 0.0
H199 H 0.32293 0.56364 0.70933 0.0
H200 H 0.4584 0.58618 0.72645 0.0
H201 H 0.26417 0.64758 0.72651 0.0
H202 H 0.26555 0.62162 0.70908 0.0
H203 H 0.28423 0.68073 0.71147 0.0
H204 H 0.47973 0.65624 0.7374 0.0
H205 H 0.43227 0.68137 0.74739 0.0
H206 H 0.44939 0.70647 0.73065 0.0
H207 H 0.30083 0.97123 0.6915 0.0
H208 H 0.38328 0.95318 0.67075 0.0
H209 H 0.3245 0.96719 0.66564 0.0
H210 H 0.33685 0.91333 0.67449 0.0
H211 H 0.29283 0.89505 0.69511 0.0
H212 H 0.42002 0.91857 0.71753 0.0
H213 H 0.24616 0.81303 0.71616 0.0
H214 H 0.28019 0.77669 0.70474 0.0
H215 H 0.25048 0.82643 0.69739 0.0
H216 H 0.44845 0.8661 0.73476 0.0
H217 H 0.43392 0.80647 0.73124 0.0
H218 H 0.40248 0.83771 0.74462 0.0
H219 H 0.1825 0.74684 0.7934 0.0
H220 H 0.28812 0.63551 0.77293 0.0
H221 H 0.33521 0.63337 0.75189 0.0
H222 H 0.37563 0.74255 0.71497 0.0
H223 H 0.28904 0.86044 0.7397 0.0
H224 H 0.23665 0.86089 0.7596 0.0
H225 H 0.38033 0.42552 0.72993 0.0
H226 H 0.39957 0.47842 0.73803 0.0
H227 H 0.43733 0.44829 0.72576 0.0
C228 C 0.74041 0.8125 0.05696 0.0
C229 C 0.76612 0.85711 0.05264 0.0
C230 C 0.69913 0.90794 0.04766 0.0
C231 C 0.68436 0.88557 0.03519 0.0
C232 C 0.64242 0.89803 0.02863 0.0
C233 C 0.61533 0.93428 0.03442 0.0
C234 C 0.63087 0.95781 0.04669 0.0
C235 C 0.67251 0.9442 0.05315 0.0
C236 C 0.62688 0.87232 0.01553 0.0
C237 C 0.60327 0.99716 0.05302 0.0
C238 C 0.26116 0.88431 0.0251 0.0
C239 C 0.27733 0.85485 0.03781 0.0
C240 C 0.35476 0.88866 0.04188 0.0
C241 C 0.37812 0.92146 0.05002 0.0
C242 C 0.42247 0.93702 0.04609 0.0
C243 C 0.44415 0.91863 0.0338 0.0
C244 C 0.42208 0.88301 0.02607 0.0
C245 C 0.37742 0.86855 0.03013 0.0
C246 C 0.44516 0.9747 0.05465 0.0
C247 C 0.44482 0.86178 0.01312 0.0
C248 C 0.33785 0.1191 0.9723 0.0
C249 C 0.36345 0.14488 0.98219 0.0
C250 C 0.40928 0.13249 0.98551 0.0
C251 C 0.42984 0.09367 0.97882 0.0
C252 C 0.40484 0.06896 0.96842 0.0
C253 C 0.35907 0.08195 0.96535 0.0
C254 C 0.43517 0.15969 0.9966 0.0
C255 C 0.42582 0.02766 0.96099 0.0
C256 C 0.78967 0.0998 0.96976 0.0
C257 C 0.76673 0.10243 0.95508 0.0
C258 C 0.68601 0.11813 0.96126 0.0
C259 C 0.66298 0.14884 0.97033 0.0
C260 C 0.62101 0.13643 0.97698 0.0
C261 C 0.60128 0.09264 0.97415 0.0
C262 C 0.62301 0.06265 0.96425 0.0
C263 C 0.66533 0.07562 0.95796 0.0
C264 C 0.59847 0.16948 0.98733 0.0
C265 C 0.60194 0.01651 0.96049 0.0
C266 C 0.57065 0.94769 0.02774 0.0
C267 C 0.52985 0.92782 0.03314 0.0
C268 C 0.48649 0.94097 0.02789 0.0
C269 C 0.48343 0.97524 0.01709 0.0
C270 C 0.44022 0.99088 0.01208 0.0
C271 C 0.43744 0.02416 0.00136 0.0
C272 C 0.47775 0.04268 0.99505 0.0
C273 C 0.47519 0.07581 0.9839 0.0
C274 C 0.51588 0.09201 0.9774 0.0
C275 C 0.55941 0.0769 0.98207 0.0
C276 C 0.56264 0.04559 0.99371 0.0
C277 C 0.60584 0.03165 0.99919 0.0
C278 C 0.60861 6e-05 0.01044 0.0
C279 C 0.56832 0.98055 0.01649 0.0
C280 C 0.52448 0.99444 0.01119 0.0
C281 C 0.52163 0.02766 -1e-05 0.0
C282 C 0.24542 0.15113 0.98899 0.0
C283 C 0.26471 0.16377 0.97414 0.0
O284 O 0.7382 0.8956 0.05485 0.0
O285 O 0.72782 0.1307 0.95578 0.0
O286 O 0.29245 0.12758 0.96941 0.0
O287 O 0.31035 0.87838 0.04565 0.0
H288 H 0.77629 0.85545 0.04118 0.0
H289 H 0.70906 0.80733 0.05039 0.0
H290 H 0.72951 0.81388 0.06835 0.0
H291 H 0.76328 0.78191 0.05541 0.0
H292 H 0.70504 0.85819 0.03057 0.0
H293 H 0.68433 0.96157 0.06268 0.0
H294 H 0.59178 0.8576 0.01738 0.0
H295 H 0.65097 0.8438 0.01262 0.0
H296 H 0.62443 0.89675 0.00637 0.0
H297 H 0.62118 0.01338 0.06218 0.0
H298 H 0.56901 0.98416 0.05672 0.0
H299 H 0.59686 0.02408 0.04475 0.0
H300 H 0.29224 0.82176 0.03386 0.0
H301 H 0.23347 0.86596 0.0192 0.0
H302 H 0.29036 0.89074 0.01758 0.0
H303 H 0.24757 0.91826 0.02877 0.0
H304 H 0.36061 0.93624 0.05919 0.0
H305 H 0.36029 0.84231 0.0239 0.0
H306 H 0.47975 0.96284 0.05832 0.0
H307 H 0.42409 0.98476 0.0641 0.0
H308 H 0.45058 0.00578 0.0478 0.0
H309 H 0.42681 0.82981 0.00966 0.0
H310 H 0.48166 0.85335 0.01537 0.0
H311 H 0.44425 0.88713 0.00417 0.0
H312 H 0.28526 0.19621 0.9748 0.0
H313 H 0.34764 0.17379 0.98766 0.0
H314 H 0.33917 0.06243 0.95768 0.0
H315 H 0.44177 0.13725 0.00604 0.0
H316 H 0.41567 0.19083 0.00013 0.0
H317 H 0.46935 0.17076 0.99227 0.0
H318 H 0.40347 0.01469 0.95228 0.0
H319 H 0.43112 0.99924 0.96886 0.0
H320 H 0.46031 0.03686 0.95648 0.0
H321 H 0.75696 0.06679 0.95188 0.0
H322 H 0.82112 0.07755 0.96931 0.0
H323 H 0.76521 0.08447 0.97767 0.0
H324 H 0.79963 0.13492 0.97341 0.0
H325 H 0.67887 0.18198 0.97256 0.0
H326 H 0.68182 0.05266 0.95039 0.0
H327 H 0.59364 0.15219 0.99785 0.0
H328 H 0.56362 0.17941 0.98337 0.0
H329 H 0.61925 0.20144 0.98882 0.0
H330 H 0.61925 0.00052 0.95111 0.0
H331 H 0.56442 0.02059 0.95818 0.0
H332 H 0.60522 0.99242 0.9697 0.0
H333 H 0.53185 0.90215 0.04162 0.0
H334 H 0.4079 0.97777 0.01642 0.0
H335 H 0.40317 0.03476 0.998 0.0
H336 H 0.51364 0.11634 0.96857 0.0
H337 H 0.63805 0.04516 0.99489 0.0
H338 H 0.64277 0.9907 0.01423 0.0
H339 H 0.2299 0.18191 0.99421 0.0
H340 H 0.27361 0.13851 0.99603 0.0
H341 H 0.219 0.12329 0.9882 0.0
C342 C 0.01162 0.0871 0.19401 0.0
C343 C 0.06461 0.08666 0.19477 0.0
C344 C 0.10853 0.12084 0.21388 0.0
C345 C 0.15228 0.12637 0.20753 0.0
C346 C 0.18308 0.16029 0.21242 0.0
C347 C 0.1692 0.19002 0.22364 0.0
C348 C 0.12484 0.1844 0.23002 0.0
C349 C 0.09553 0.14898 0.22528 0.0
C350 C 0.23026 0.16462 0.20548 0.0
C351 C 0.10787 0.21634 0.24164 0.0
C352 C 0.20929 0.43395 0.15858 0.0
C353 C 0.19032 0.45157 0.17285 0.0
C354 C 0.22836 0.41826 0.19331 0.0
C355 C 0.19288 0.41307 0.20345 0.0
C356 C 0.19452 0.37732 0.21367 0.0
C357 C 0.23214 0.34569 0.21353 0.0
C358 C 0.26847 0.35153 0.20343 0.0
C359 C 0.26648 0.38841 0.19359 0.0
C360 C 0.15553 0.37276 0.22439 0.0
C361 C 0.30857 0.31797 0.20271 0.0
C362 C 0.42272 0.40823 0.28779 0.0
C363 C 0.37454 0.41219 0.28939 0.0
C364 C 0.3452 0.37568 0.28551 0.0
C365 C 0.36456 0.33506 0.27949 0.0
C366 C 0.41333 0.33082 0.27812 0.0
C367 C 0.44185 0.36727 0.28255 0.0
C368 C 0.29359 0.38063 0.28783 0.0
C369 C 0.43535 0.28808 0.27182 0.0
C370 C 0.22346 0.00787 0.31985 0.0
C371 C 0.26951 0.02396 0.31336 0.0
C372 C 0.28612 0.10527 0.30884 0.0
C373 C 0.26417 0.14732 0.31168 0.0
C374 C 0.26897 0.18519 0.30234 0.0
C375 C 0.29785 0.18117 0.29013 0.0
C376 C 0.32235 0.13937 0.28767 0.0
C377 C 0.3157 0.10157 0.29697 0.0
C378 C 0.24254 0.22921 0.3054 0.0
C379 C 0.35521 0.13451 0.27517 0.0
C380 C 0.20037 0.22799 0.2283 0.0
C381 C 0.20352 0.26744 0.21962 0.0
C382 C 0.23169 0.30484 0.22329 0.0
C383 C 0.25773 0.30299 0.23604 0.0
C384 C 0.28648 0.33985 0.2401 0.0
C385 C 0.31212 0.33758 0.25262 0.0
C386 C 0.30908 0.29889 0.26178 0.0
C387 C 0.33399 0.29681 0.27475 0.0
C388 C 0.33002 0.25781 0.28359 0.0
C389 C 0.30179 0.22053 0.27989 0.0
C390 C 0.27677 0.22188 0.26695 0.0
C391 C 0.2481 0.18497 0.26286 0.0
C392 C 0.22381 0.18649 0.25009 0.0
C393 C 0.22609 0.22556 0.24109 0.0
C394 C 0.25477 0.26325 0.24498 0.0
C395 C 0.28032 0.26129 0.2579 0.0
C396 C 0.48872 0.50428 0.27844 0.0
C397 C 0.44543 0.48891 0.2867 0.0
O398 O 0.07793 0.08928 0.20892 0.0
O399 O 0.27815 0.06888 0.31774 0.0
O400 O 0.45144 0.44351 0.29119 0.0
O401 O 0.22541 0.45091 0.1829 0.0
H402 H 0.07663 0.11805 0.1888 0.0
H403 H 0.99805 0.11982 0.19861 0.0
H404 H 0.99656 0.05758 0.20012 0.0
H405 H 1.00013 0.085 0.18274 0.0
H406 H 0.1623 0.10399 0.1988 0.0
H407 H 0.06157 0.14427 0.23007 0.0
H408 H 0.23161 0.19698 0.19903 0.0
H409 H 0.23817 0.13497 0.19837 0.0
H410 H 0.2576 0.16685 0.21374 0.0
H411 H 0.07021 0.21199 0.24383 0.0
H412 H 0.1145 0.25302 0.23864 0.0
H413 H 0.12701 0.20898 0.25163 0.0
H414 H 0.16199 0.42731 0.17606 0.0
H415 H 0.18177 0.43493 0.15034 0.0
H416 H 0.22122 0.39756 0.15983 0.0
H417 H 0.23916 0.45522 0.15488 0.0
H418 H 0.16374 0.43681 0.20325 0.0
H419 H 0.2937 0.39292 0.18568 0.0
H420 H 0.16967 0.36776 0.23529 0.0
H421 H 0.13444 0.3418 0.22184 0.0
H422 H 0.13241 0.40357 0.22437 0.0
H423 H 0.33201 0.32523 0.19351 0.0
H424 H 0.29543 0.28198 0.20183 0.0
H425 H 0.32905 0.32001 0.21266 0.0
H426 H 0.41575 0.49151 0.27915 0.0
H427 H 0.36004 0.44368 0.2938 0.0
H428 H 0.4792 0.36456 0.28152 0.0
H429 H 0.27629 0.38552 0.27738 0.0
H430 H 0.28492 0.41073 0.29467 0.0
H431 H 0.27918 0.34877 0.29284 0.0
H432 H 0.47322 0.29238 0.27002 0.0
H433 H 0.41872 0.27956 0.2615 0.0
H434 H 0.42987 0.25824 0.27916 0.0
H435 H 0.26538 0.0228 0.30154 0.0
H436 H 0.21543 0.97205 0.31638 0.0
H437 H 0.19505 0.03106 0.31623 0.0
H438 H 0.22477 0.00868 0.3317 0.0
H439 H 0.24192 0.14985 0.32101 0.0
H440 H 0.3338 0.06928 0.29505 0.0
H441 H 0.22255 0.24008 0.29586 0.0
H442 H 0.26735 0.25737 0.30786 0.0
H443 H 0.21822 0.22524 0.31457 0.0
H444 H 0.37658 0.10256 0.27595 0.0
H445 H 0.37863 0.16496 0.27448 0.0
H446 H 0.3351 0.13322 0.26513 0.0
H447 H 0.1835 0.26916 0.20986 0.0
H448 H 0.28964 0.37081 0.23359 0.0
H449 H 0.33407 0.36679 0.25509 0.0
H450 H 0.34894 0.25661 0.29356 0.0
H451 H 0.24424 0.1543 0.26946 0.0
H452 H 0.20281 0.15676 0.24744 0.0
H453 H 0.48464 0.5405 0.27456 0.0
H454 H 0.49404 0.48156 0.26905 0.0
H455 H 0.51997 0.50205 0.2853 0.0
C456 C 0.62935 0.48062 0.30576 0.0
C457 C 0.65472 0.46964 0.31979 0.0
C458 C 0.72024 0.42013 0.31265 0.0
C459 C 0.76856 0.41642 0.31225 0.0
C460 C 0.79046 0.37613 0.30726 0.0
C461 C 0.76317 0.33939 0.302 0.0
C462 C 0.71419 0.3427 0.3025 0.0
C463 C 0.69331 0.38251 0.3081 0.0
C464 C 0.84269 0.37314 0.30745 0.0
C465 C 0.68363 0.30436 0.29701 0.0
C466 C 0.71117 0.98205 0.33444 0.0
C467 C 0.73954 0.01137 0.32453 0.0
C468 C 0.76076 0.09235 0.32133 0.0
C469 C 0.73303 0.10759 0.30996 0.0
C470 C 0.74476 0.14702 0.302 0.0
C471 C 0.78566 0.17158 0.30532 0.0
C472 C 0.81371 0.15661 0.31681 0.0
C473 C 0.80047 0.11742 0.32481 0.0
C474 C 0.71272 0.16268 0.29019 0.0
C475 C 0.85735 0.1822 0.32068 0.0
C476 C 0.8568 0.08287 0.21573 0.0
C477 C 0.81371 0.10139 0.21987 0.0
C478 C 0.81111 0.1433 0.22731 0.0
C479 C 0.85245 0.16674 0.23096 0.0
C480 C 0.89585 0.14837 0.22672 0.0
C481 C 0.89735 0.10678 0.21907 0.0
C482 C 0.76401 0.16254 0.23124 0.0
C483 C 0.94062 0.1724 0.23038 0.0
C484 C 0.8517 0.52583 0.2336 0.0
C485 C 0.88203 0.51034 0.22103 0.0
C486 C 0.8609 0.42852 0.21885 0.0
C487 C 0.82169 0.40195 0.21593 0.0
C488 C 0.81702 0.35695 0.22147 0.0
C489 C 0.85309 0.33804 0.22984 0.0
C490 C 0.89443 0.36338 0.23185 0.0
C491 C 0.89785 0.40852 0.2264 0.0
C492 C 0.77271 0.33056 0.21901 0.0
C493 C 0.93429 0.3434 0.24027 0.0
C494 C 0.78525 0.29782 0.29562 0.0
C495 C 0.78411 0.25656 0.30346 0.0
C496 C 0.79698 0.2145 0.29729 0.0
C497 C 0.81314 0.21351 0.28302 0.0
C498 C 0.82606 0.17172 0.27644 0.0
C499 C 0.83846 0.17067 0.26206 0.0
C500 C 0.83934 0.2115 0.25381 0.0
C501 C 0.84976 0.2107 0.23903 0.0
C502 C 0.8539 0.25231 0.23142 0.0
C503 C 0.84557 0.29471 0.23804 0.0
C504 C 0.83103 0.29588 0.25246 0.0
C505 C 0.81795 0.33767 0.259 0.0
C506 C 0.80265 0.33836 0.27307 0.0
C507 C 0.80138 0.29759 0.28134 0.0
C508 C 0.81516 0.25521 0.27501 0.0
C509 C 0.8289 0.25423 0.26045 0.0
C510 C 0.81784 0.98258 0.22042 0.0
C511 C 0.82725 0.0089 0.20643 0.0
O512 O 0.70126 0.46057 0.31729 0.0
O513 O 0.86164 0.47311 0.21421 0.0
O514 O 0.86104 0.04228 0.20855 0.0
O515 O 0.74841 0.05553 0.32963 0.0
H516 H 0.63804 0.43885 0.32484 0.0
H517 H 0.62866 0.4501 0.29867 0.0
H518 H 0.6467 0.5092 0.29982 0.0
H519 H 0.59283 0.49072 0.30801 0.0
H520 H 0.78916 0.4453 0.31592 0.0
H521 H 0.65592 0.38393 0.30864 0.0
H522 H 0.85399 0.33894 0.31167 0.0
H523 H 0.8583 0.40085 0.31403 0.0
H524 H 0.85636 0.37659 0.2964 0.0
H525 H 0.64677 0.31523 0.29613 0.0
H526 H 0.68541 0.27431 0.30443 0.0
H527 H 0.69582 0.29269 0.28636 0.0
H528 H 0.77098 0.99454 0.3199 0.0
H529 H 0.64858 0.97139 0.32306 0.0
H530 H 0.71219 0.99931 0.34519 0.0
H531 H 0.73484 0.95275 0.33764 0.0
H532 H 0.70112 0.09017 0.30746 0.0
H533 H 0.82128 0.10598 0.33376 0.0
H534 H 0.70685 0.20061 0.29062 0.0
H535 H 0.67853 0.14506 0.29073 0.0
H536 H 0.72881 0.15472 0.2797 0.0
H537 H 0.87818 0.16311 0.32874 0.0
H538 H 0.84804 0.2166 0.32508 0.0
H539 H 0.87902 0.18814 0.311 0.0
H540 H 0.79476 0.02553 0.20262 0.0
H541 H 0.7819 0.08363 0.21732 0.0
H542 H 0.9304 0.09226 0.21583 0.0
H543 H 0.75875 0.15966 0.24295 0.0
H544 H 0.7354 0.14375 0.22591 0.0
H545 H 0.76178 0.19979 0.2283 0.0
H546 H 0.97154 0.15147 0.22743 0.0
H547 H 0.94168 0.17974 0.24199 0.0
H548 H 0.94251 0.20607 0.22463 0.0
H549 H 0.9167 0.50073 0.22518 0.0
H550 H 0.86728 0.55643 0.23885 0.0
H551 H 0.84903 0.49744 0.24161 0.0
H552 H 0.81621 0.53486 0.22994 0.0
H553 H 0.7938 0.41741 0.20983 0.0
H554 H 0.92944 0.42771 0.22812 0.0
H555 H 0.75497 0.32411 0.22939 0.0
H556 H 0.78075 0.29635 0.21425 0.0
H557 H 0.74857 0.34952 0.21185 0.0
H558 H 0.96633 0.36443 0.2391 0.0
H559 H 0.94177 0.30746 0.23677 0.0
H560 H 0.92463 0.34197 0.25175 0.0
H561 H 0.7701 0.25674 0.31424 0.0
H562 H 0.82591 0.13926 0.28229 0.0
H563 H 0.8473 0.13746 0.25747 0.0
H564 H 0.863 0.25166 0.22017 0.0
H565 H 0.81836 0.37026 0.25323 0.0
H566 H 0.79193 0.37139 0.27738 0.0
H567 H 0.79054 0.956 0.2189 0.0
H568 H 0.80557 0.00667 0.22882 0.0
H569 H 0.85 0.96531 0.22422 0.0
C570 C 0.50747 0.58533 0.69653 0.0
C571 C 0.5605 0.58328 0.69625 0.0
C572 C 0.61011 0.61526 0.71457 0.0
C573 C 0.64901 0.626 0.70612 0.0
C574 C 0.6812 0.65932 0.71053 0.0
C575 C 0.67391 0.6828 0.72357 0.0
C576 C 0.63547 0.67081 0.73233 0.0
C577 C 0.60452 0.63648 0.72781 0.0
C578 C 0.72232 0.67021 0.70106 0.0
C579 C 0.62608 0.69536 0.74622 0.0
C580 C 0.65924 0.04312 0.68516 0.0
C581 C 0.66245 0.00681 0.69643 0.0
C582 C 0.69377 0.92889 0.70031 0.0
C583 C 0.67426 0.92255 0.71399 0.0
C584 C 0.68275 0.88193 0.72188 0.0
C585 C 0.71259 0.84764 0.7162 0.0
C586 C 0.733 0.85436 0.70257 0.0
C587 C 0.72283 0.89468 0.69475 0.0
C588 C 0.65952 0.87551 0.73624 0.0
C589 C 0.76537 0.81882 0.69622 0.0
C590 C 0.90202 0.9222 0.78625 0.0
C591 C 0.85875 0.90509 0.79072 0.0
C592 C 0.84245 0.8623 0.78578 0.0
C593 C 0.87002 0.83609 0.77621 0.0
C594 C 0.91462 0.85221 0.77228 0.0
C595 C 0.93017 0.89495 0.77746 0.0
C596 C 0.79538 0.8454 0.79063 0.0
C597 C 0.94523 0.82497 0.76227 0.0
C598 C 0.88358 0.47516 0.7717 0.0
C599 C 0.91324 0.49545 0.78365 0.0
C600 C 0.88074 0.57432 0.78582 0.0
C601 C 0.85006 0.60182 0.79369 0.0
C602 C 0.83779 0.64653 0.78905 0.0
C603 C 0.85726 0.66437 0.77626 0.0
C604 C 0.8898 0.63752 0.76853 0.0
C605 C 0.90097 0.5927 0.77331 0.0
C606 C 0.80309 0.67422 0.79757 0.0
C607 C 0.91207 0.65584 0.75502 0.0
C608 C 0.70424 0.72226 0.72751 0.0
C609 C 0.69646 0.7648 0.72071 0.0
C610 C 0.72173 0.80423 0.72433 0.0
C611 C 0.75484 0.80175 0.73538 0.0
C612 C 0.77942 0.84113 0.73977 0.0
C613 C 0.81056 0.83864 0.75103 0.0
C614 C 0.81959 0.79633 0.75801 0.0
C615 C 0.85063 0.79361 0.76962 0.0
C616 C 0.86191 0.75034 0.77549 0.0
C617 C 0.84151 0.70971 0.77041 0.0
C618 C 0.80745 0.71238 0.75961 0.0
C619 C 0.78362 0.67274 0.755 0.0
C620 C 0.74979 0.67584 0.7445 0.0
C621 C 0.739 0.71854 0.73804 0.0
C622 C 0.76361 0.75868 0.74221 0.0
C623 C 0.79697 0.75577 0.75327 0.0
C624 C 0.90472 0.03809 0.78074 0.0
C625 C 0.89301 0.00413 0.79289 0.0
O626 O 0.57697 0.58543 0.71009 0.0
O627 O 0.88924 0.53046 0.79062 0.0
O628 O 0.91844 0.96396 0.79048 0.0
O629 O 0.68517 0.96693 0.69208 0.0
H630 H 0.5718 0.61439 0.69003 0.0
H631 H 0.49591 0.61876 0.70115 0.0
H632 H 0.49286 0.55676 0.70312 0.0
H633 H 0.49353 0.58281 0.68553 0.0
H634 H 0.65408 0.60855 0.69603 0.0
H635 H 0.57457 0.62754 0.7343 0.0
H636 H 0.71647 0.70399 0.69566 0.0
H637 H 0.72774 0.64343 0.69276 0.0
H638 H 0.75437 0.67317 0.7075 0.0
H639 H 0.59252 0.68482 0.75114 0.0
H640 H 0.62568 0.73343 0.74447 0.0
H641 H 0.65424 0.68747 0.75388 0.0
H642 H 0.6291 5e-05 0.70215 0.0
H643 H 0.62102 0.04707 0.68304 0.0
H644 H 0.66684 0.02555 0.67469 0.0
H645 H 0.70019 0.09754 0.69311 0.0
H646 H 0.65193 0.94873 0.71855 0.0
H647 H 0.73783 0.89983 0.68422 0.0
H648 H 0.68604 0.87623 0.74476 0.0
H649 H 0.6421 0.84126 0.73679 0.0
H650 H 0.63346 0.90294 0.73846 0.0
H651 H 0.78236 0.8315 0.68627 0.0
H652 H 0.74555 0.78702 0.69372 0.0
H653 H 0.79259 0.8092 0.70403 0.0
H654 H 0.85509 0.99764 0.79254 0.0
H655 H 0.83778 0.92472 0.79815 0.0
H656 H 0.964 0.90797 0.77434 0.0
H657 H 0.77103 0.84664 0.78151 0.0
H658 H 0.78078 0.86675 0.7994 0.0
H659 H 0.79763 0.80883 0.79431 0.0
H660 H 0.97895 0.8424 0.76018 0.0
H661 H 0.92718 0.81996 0.75196 0.0
H662 H 0.95207 0.79013 0.76688 0.0
H663 H 0.94588 0.50956 0.77899 0.0
H664 H 0.90249 0.44653 0.76633 0.0
H665 H 0.87573 0.50206 0.76356 0.0
H666 H 0.85027 0.46167 0.77605 0.0
H667 H 0.83484 0.58764 0.80338 0.0
H668 H 0.92514 0.57236 0.7671 0.0
H669 H 0.77289 0.68314 0.79078 0.0
H670 H 0.81912 0.70722 0.80101 0.0
H671 H 0.79052 0.65517 0.80717 0.0
H672 H 0.94071 0.63323 0.75119 0.0
H673 H 0.92594 0.69119 0.75678 0.0
H674 H 0.88557 0.65833 0.74651 0.0
H675 H 0.67016 0.76731 0.71251 0.0
H676 H 0.77425 0.87453 0.73471 0.0
H677 H 0.82784 0.87028 0.75409 0.0
H678 H 0.88676 0.74828 0.78412 0.0
H679 H 0.79038 0.63892 0.75959 0.0
H680 H 0.73229 0.64429 0.74145 0.0
H681 H 0.88103 0.06838 0.78078 0.0
H682 H 0.90056 0.02062 0.7703 0.0
H683 H 0.94117 0.05021 0.78159 0.0
C684 C 0.70082 0.6037 0.08399 0.0
C685 C 0.72824 0.60102 0.06991 0.0
C686 C 0.66444 0.603 0.0526 0.0
C687 C 0.64797 0.55799 0.05549 0.0
C688 C 0.60773 0.54133 0.04895 0.0
C689 C 0.58365 0.5699 0.03917 0.0
C690 C 0.60008 0.61509 0.03619 0.0
C691 C 0.64032 0.63101 0.04295 0.0
C692 C 0.59115 0.49293 0.05237 0.0
C693 C 0.57537 0.6463 0.02573 0.0
C694 C 0.24841 0.48217 0.0693 0.0
C695 C 0.27618 0.52467 0.07404 0.0
C696 C 0.33086 0.54628 0.05481 0.0
C697 C 0.34304 0.58192 0.04533 0.0
C698 C 0.38467 0.58038 0.03747 0.0
C699 C 0.41455 0.54185 0.03902 0.0
C700 C 0.40213 0.50525 0.0484 0.0
C701 C 0.36047 0.50779 0.05618 0.0
C702 C 0.39682 0.61988 0.02754 0.0
C703 C 0.43306 0.46342 0.05024 0.0
C704 C 0.36247 0.40919 0.9517 0.0
C705 C 0.38201 0.45378 0.95117 0.0
C706 C 0.41944 0.46547 0.95994 0.0
C707 C 0.43737 0.43219 0.9696 0.0
C708 C 0.41716 0.38766 0.97041 0.0
C709 C 0.37992 0.3768 0.96143 0.0
C710 C 0.44018 0.51334 0.9588 0.0
C711 C 0.43505 0.35157 0.9807 0.0
C712 C 0.79095 0.3745 0.98707 0.0
C713 C 0.77302 0.35791 0.97255 0.0
C714 C 0.69974 0.40177 0.96979 0.0
C715 C 0.67884 0.43885 0.96262 0.0
C716 C 0.63317 0.4525 0.96579 0.0
C717 C 0.60776 0.4282 0.97638 0.0
C718 C 0.62801 0.38948 0.9833 0.0
C719 C 0.67383 0.37678 0.98 0.0
C720 C 0.61261 0.49381 0.95818 0.0
C721 C 0.60167 0.36235 0.99453 0.0
C722 C 0.54278 0.55149 0.0315 0.0
C723 C 0.49878 0.55749 0.03757 0.0
C724 C 0.45918 0.53966 0.03103 0.0
C725 C 0.46322 0.51678 0.01777 0.0
C726 C 0.42398 0.50061 0.01049 0.0
C727 C 0.42851 0.47752 0.99754 0.0
C728 C 0.47253 0.46839 0.99163 0.0
C729 C 0.47772 0.44408 0.97865 0.0
C730 C 0.5221 0.43203 0.97377 0.0
C731 C 0.56172 0.44548 0.9812 0.0
C732 C 0.55721 0.47333 0.99349 0.0
C733 C 0.59639 0.49067 0.00053 0.0
C734 C 0.5917 0.5172 0.01277 0.0
C735 C 0.54773 0.5263 0.0187 0.0
C736 C 0.50777 0.50926 0.01175 0.0
C737 C 0.51249 0.48379 0.99892 0.0
C738 C 0.34368 0.41975 0.91889 0.0
C739 C 0.30913 0.4197 0.93142 0.0
O740 O 0.70295 0.62082 0.05889 0.0
O741 O 0.745 0.39231 0.96674 0.0
O742 O 0.32735 0.39572 0.94299 0.0
O743 O 0.29031 0.55034 0.06223 0.0
H744 H 0.73584 0.5642 0.06737 0.0
H745 H 0.66771 0.58441 0.0833 0.0
H746 H 0.69268 0.64031 0.08662 0.0
H747 H 0.72122 0.58822 0.09285 0.0
H748 H 0.66619 0.53543 0.0628 0.0
H749 H 0.65316 0.66559 0.04073 0.0
H750 H 0.5548 0.49416 0.05632 0.0
H751 H 0.6129 0.4755 0.06055 0.0
H752 H 0.5916 0.47171 0.04254 0.0
H753 H 0.59194 0.68091 0.02479 0.0
H754 H 0.5387 0.6509 0.02913 0.0
H755 H 0.57518 0.62992 0.01505 0.0
H756 H 0.30675 0.51163 0.08005 0.0
H757 H 0.23228 0.46466 0.07868 0.0
H758 H 0.27169 0.45694 0.06396 0.0
H759 H 0.22109 0.49207 0.06156 0.0
H760 H 0.31993 0.61134 0.04424 0.0
H761 H 0.35135 0.47939 0.06322 0.0
H762 H 0.43016 0.63559 0.03085 0.0
H763 H 0.36967 0.64721 0.02741 0.0
H764 H 0.40167 0.60662 0.01653 0.0
H765 H 0.41836 0.43767 0.05787 0.0
H766 H 0.46754 0.47446 0.05416 0.0
H767 H 0.43849 0.44635 0.03978 0.0
H768 H 0.30129 0.45596 0.93457 0.0
H769 H 0.36863 0.47963 0.94388 0.0
H770 H 0.36452 0.34259 0.96187 0.0
H771 H 0.43595 0.53152 0.96913 0.0
H772 H 0.42373 0.53459 0.9503 0.0
H773 H 0.47794 0.51079 0.95653 0.0
H774 H 0.4139 0.31944 0.98062 0.0
H775 H 0.43516 0.36571 0.99169 0.0
H776 H 0.4714 0.34259 0.97788 0.0
H777 H 0.75295 0.32542 0.97408 0.0
H778 H 0.80686 0.3454 0.9931 0.0
H779 H 0.76197 0.38793 0.99371 0.0
H780 H 0.81667 0.40278 0.9856 0.0
H781 H 0.69892 0.4578 0.95471 0.0
H782 H 0.68923 0.34796 0.98567 0.0
H783 H 0.60363 0.521 0.96606 0.0
H784 H 0.58003 0.48356 0.9528 0.0
H785 H 0.63671 0.50877 0.95009 0.0
H786 H 0.6198 0.32982 0.99757 0.0
H787 H 0.56648 0.35362 0.99063 0.0
H788 H 0.59743 0.38391 0.00422 0.0
H789 H 0.49546 0.57515 0.04771 0.0
H790 H 0.38932 0.50602 0.01466 0.0
H791 H 0.39714 0.46609 0.99236 0.0
H792 H 0.52585 0.41193 0.96409 0.0
H793 H 0.63117 0.48425 0.99659 0.0
H794 H 0.62313 0.52979 0.01766 0.0
H795 H 0.32864 0.43818 0.90955 0.0
H796 H 0.35245 0.38372 0.91575 0.0
H797 H 0.37623 0.43769 0.92179 0.0
C798 C 0.84735 0.55821 0.41546 0.0
C799 C 0.81356 0.54974 0.42793 0.0
C800 C 0.87132 0.54818 0.44743 0.0
C801 C 0.89134 0.50479 0.44464 0.0
C802 C 0.93153 0.49048 0.45189 0.0
C803 C 0.9518 0.52013 0.46207 0.0
C804 C 0.93133 0.56366 0.46494 0.0
C805 C 0.89106 0.57678 0.45768 0.0
C806 C 0.95243 0.44376 0.44868 0.0
C807 C 0.95219 0.59654 0.47559 0.0
C808 C 0.29231 0.62333 0.4301 0.0
C809 C 0.24559 0.60552 0.43382 0.0
C810 C 0.20385 0.56696 0.45258 0.0
C811 C 0.18233 0.58772 0.46425 0.0
C812 C 0.14089 0.56988 0.46986 0.0
C813 C 0.12197 0.5289 0.46399 0.0
C814 C 0.14421 0.50742 0.45226 0.0
C815 C 0.18486 0.52706 0.44658 0.0
C816 C 0.1175 0.59514 0.48201 0.0
C817 C 0.12532 0.46362 0.44584 0.0
C818 C 0.20837 0.43839 0.54901 0.0
C819 C 0.18611 0.48126 0.54692 0.0
C820 C 0.14245 0.48378 0.5404 0.0
C821 C 0.12064 0.4427 0.53574 0.0
C822 C 0.14245 0.39946 0.53808 0.0
C823 C 0.18603 0.39792 0.54468 0.0
C824 C 0.12027 0.5306 0.5381 0.0
C825 C 0.12029 0.35505 0.53321 0.0
C826 C 0.7476 0.49095 0.53761 0.0
C827 C 0.77377 0.45341 0.54586 0.0
C828 C 0.85836 0.46339 0.54664 0.0
C829 C 0.89032 0.49951 0.54718 0.0
C830 C 0.93532 0.49421 0.54171 0.0
C831 C 0.94886 0.45118 0.53585 0.0
C832 C 0.91787 0.41325 0.53636 0.0
C833 C 0.87275 0.41973 0.54176 0.0
C834 C 0.96774 0.53519 0.54169 0.0
C835 C 0.93179 0.36657 0.53061 0.0
C836 C 0.99475 0.50619 0.46964 0.0
C837 C 0.03725 0.51676 0.46317 0.0
C838 C 0.07905 0.50886 0.47025 0.0
C839 C 0.0788 0.48816 0.48395 0.0
C840 C 0.12033 0.47769 0.49107 0.0
C841 C 0.11982 0.4621 0.50513 0.0
C842 C 0.07776 0.45674 0.51265 0.0
C843 C 0.07702 0.44557 0.52738 0.0
C844 C 0.0345 0.44145 0.53458 0.0
C845 C 0.99253 0.44834 0.52742 0.0
C846 C 0.99271 0.4588 0.51265 0.0
C847 C 0.95114 0.46587 0.50511 0.0
C848 C 0.95168 0.47957 0.49086 0.0
C849 C 0.99378 0.4879 0.48368 0.0
C850 C 0.03601 0.47922 0.49089 0.0
C851 C 0.03548 0.46406 0.50534 0.0
C852 C 0.30639 0.49314 0.54865 0.0
C853 C 0.27875 0.4689 0.56058 0.0
O854 O 0.83299 0.56416 0.44066 0.0
O855 O 0.81443 0.47209 0.55115 0.0
O856 O 0.25137 0.43428 0.55484 0.0
O857 O 0.24323 0.58567 0.44727 0.0
H858 H 0.80481 0.51229 0.42868 0.0
H859 H 0.87945 0.5375 0.4168 0.0
H860 H 0.85698 0.59542 0.4148 0.0
H861 H 0.83129 0.54784 0.40522 0.0
H862 H 0.87574 0.48204 0.43691 0.0
H863 H 0.87507 0.61006 0.4598 0.0
H864 H 0.98796 0.44839 0.44427 0.0
H865 H 0.93153 0.42389 0.44091 0.0
H866 H 0.95547 0.42324 0.4587 0.0
H867 H 0.93362 0.63026 0.47592 0.0
H868 H 0.98916 0.60304 0.47288 0.0
H869 H 0.95101 0.58075 0.48641 0.0
H870 H 0.22822 0.58481 0.42539 0.0
H871 H 0.28272 0.69595 0.42874 0.0
H872 H 0.30381 0.60187 0.42072 0.0
H873 H 0.31739 0.6066 0.43775 0.0
H874 H 0.19757 0.6186 0.46875 0.0
H875 H 0.20231 0.51105 0.4376 0.0
H876 H 0.12447 0.57657 0.49217 0.0
H877 H 0.07935 0.59641 0.48051 0.0
H878 H 0.13056 0.63113 0.48305 0.0
H879 H 0.14938 0.44853 0.43781 0.0
H880 H 0.09178 0.47125 0.44056 0.0
H881 H 0.1186 0.43747 0.45434 0.0
H882 H 0.25675 0.49546 0.56589 0.0
H883 H 0.20273 0.51308 0.55007 0.0
H884 H 0.20329 0.36497 0.54633 0.0
H885 H 0.12041 0.53911 0.52653 0.0
H886 H 0.13876 0.55854 0.54383 0.0
H887 H 0.08361 0.52998 0.54176 0.0
H888 H 0.1413 0.32408 0.53603 0.0
H889 H 0.1157 0.35613 0.52145 0.0
H890 H 0.08533 0.35149 0.53813 0.0
H891 H 0.78104 0.42485 0.53827 0.0
H892 H 0.71489 0.47678 0.53321 0.0
H893 H 0.76933 0.50364 0.52857 0.0
H894 H 0.73922 0.52069 0.54465 0.0
H895 H 0.87918 0.53263 0.55137 0.0
H896 H 0.84901 0.39075 0.54209 0.0
H897 H 0.97856 0.54375 0.53059 0.0
H898 H 0.99944 0.52626 0.54778 0.0
H899 H 0.95165 0.5664 0.54653 0.0
H900 H 0.90646 0.33913 0.53357 0.0
H901 H 0.96653 0.35662 0.53468 0.0
H902 H 0.93422 0.36856 0.5188 0.0
H903 H 0.03767 0.5335 0.45276 0.0
H904 H 0.15372 0.48231 0.48591 0.0
H905 H 0.15292 0.45549 0.51015 0.0
H906 H 0.03412 0.43474 0.54598 0.0
H907 H 0.91759 0.46147 0.51017 0.0
H908 H 0.91864 0.48488 0.48567 0.0
H909 H 0.33019 0.51935 0.55319 0.0
H910 H 0.28245 0.51132 0.54126 0.0
H911 H 0.32653 0.46756 0.54233 0.0
Fe912 Fe 0.0314 0.76833 0.14985 0.0
O913 O 0.06525 0.7942 0.13305 0.0
Fe914 Fe 0.92375 0.74006 0.13644 0.0
Fe915 Fe 0.13304 0.79324 0.13199 0.0
O916 O 0.99162 0.738 0.13538 0.0
O917 O 0.99133 0.73794 0.13405 0.0
O918 O 0.06479 0.79442 0.13166 0.0
Fe919 Fe 0.02616 0.76239 0.11707 0.0
C920 C 0.10343 0.83958 0.15966 0.0
O921 O 0.07284 0.71107 0.15013 0.0
O922 O 0.14133 0.7457 0.14858 0.0
O923 O 0.97983 0.72523 0.10415 0.0
O924 O 0.92767 0.69208 0.12018 0.0
O925 O 0.93481 0.69659 0.15352 0.0
O926 O 0.99147 0.73585 0.16579 0.0
O927 O 0.13841 0.73878 0.11798 0.0
O928 O 0.06868 0.70496 0.11746 0.0
C929 C 0.95943 0.70429 0.16481 0.0
O930 O 0.98345 0.81957 0.11521 0.0
O931 O 0.91467 0.78782 0.12051 0.0
O932 O 0.07642 0.80511 0.16306 0.0
O933 O 0.12515 0.84351 0.1475 0.0
C934 C 0.11651 0.71041 0.1516 0.0
C935 C 0.11237 0.70433 0.11527 0.0
C936 C 0.10243 0.82281 0.10231 0.0
O937 O 0.12351 0.8342 0.11403 0.0
O938 O 0.06923 0.7923 0.10134 0.0
C939 C 0.94652 0.69661 0.10759 0.0
O940 O 0.9209 0.79303 0.15134 0.0
O941 O 0.99035 0.8258 0.14998 0.0
C942 C 0.93928 0.81917 0.11466 0.0
C943 C 0.94804 0.82694 0.15365 0.0
Fe944 Fe 0.52765 0.76468 0.40943 0.0
O945 O 0.53998 0.76495 0.38876 0.0
Fe946 Fe 0.51227 0.81875 0.3764 0.0
Fe947 Fe 0.52213 0.7124 0.37618 0.0
O948 O 0.53979 0.76939 0.38875 0.0
O949 O 0.49359 0.76609 0.36395 0.0
O950 O 0.4942 0.76171 0.36392 0.0
Fe951 Fe 0.5039 0.76503 0.34325 0.0
C952 C 0.58182 0.67748 0.40159 0.0
O953 O 0.48157 0.71002 0.40885 0.0
O954 O 0.45942 0.70644 0.38628 0.0
O955 O 0.45346 0.81615 0.34382 0.0
O956 O 0.47949 0.86357 0.36188 0.0
O957 O 0.44944 0.81321 0.38673 0.0
O958 O 0.47184 0.80945 0.40935 0.0
O959 O 0.49935 0.66349 0.36129 0.0
O960 O 0.46262 0.70638 0.34382 0.0
C961 C 0.4405 0.815 0.4 0.0
O962 O 0.55072 0.8182 0.34336 0.0
O963 O 0.5746 0.82658 0.36584 0.0
O964 O 0.57926 0.71566 0.40882 0.0
O965 O 0.55548 0.66743 0.39075 0.0
C966 C 0.45075 0.70225 0.39951 0.0
C967 C 0.47353 0.66727 0.34995 0.0
C968 C 0.58938 0.70823 0.35246 0.0
O969 O 0.58452 0.71682 0.36567 0.0
O970 O 0.55843 0.71888 0.34338 0.0
C971 C 0.45372 0.85501 0.3508 0.0
O972 O 0.53728 0.86757 0.39113 0.0
O973 O 0.56837 0.82301 0.40936 0.0
C974 C 0.58052 0.83109 0.35244 0.0
C975 C 0.56357 0.8616 0.4023 0.0
Fe976 Fe 0.52577 0.26572 0.64758 0.0
O977 O 0.56646 0.29069 0.6322 0.0
Fe978 Fe 0.42267 0.24302 0.63087 0.0
Fe979 Fe 0.63382 0.28949 0.63358 0.0
O980 O 0.49088 0.2361 0.63179 0.0
O981 O 0.49088 0.23657 0.63036 0.0
O982 O 0.5664 0.29125 0.63092 0.0
Fe983 Fe 0.53147 0.26279 0.61482 0.0
C984 C 0.59432 0.33655 0.65992 0.0
O985 O 0.56634 0.20826 0.64991 0.0
O986 O 0.63497 0.2431 0.65063 0.0
O987 O 0.48784 0.22933 0.60016 0.0
O988 O 0.42879 0.19751 0.61396 0.0
O989 O 0.42607 0.19707 0.64742 0.0
O990 O 0.47892 0.23338 0.662 0.0
O991 O 0.64276 0.23537 0.61983 0.0
O992 O 0.57318 0.20429 0.61504 0.0
C993 C 0.44668 0.20277 0.65954 0.0
O994 O 0.49172 0.32216 0.61293 0.0
O995 O 0.42043 0.29348 0.61554 0.0
O996 O 0.5654 0.30273 0.66233 0.0
O997 O 0.62072 0.33996 0.64865 0.0
C998 C 0.6081 0.20979 0.65406 0.0
C999 C 0.61753 0.20322 0.61483 0.0
C1000 C 0.61322 0.32248 0.60302 0.0
O1001 O 0.63189 0.33076 0.61537 0.0
O1002 O 0.57906 0.29392 0.60079 0.0
C1003 C 0.45198 0.20223 0.60206 0.0
O1004 O 0.41746 0.29367 0.64676 0.0
O1005 O 0.48714 0.32408 0.64547 0.0
C1006 C 0.44805 0.32468 0.61113 0.0
C1007 C 0.44532 0.32676 0.64929 0.0
Fe1008 Fe 0.01892 0.24943 0.89436 0.0
O1009 O 0.04997 0.21343 0.87895 0.0
Fe1010 Fe 0.98444 0.35017 0.87743 0.0
Fe1011 Fe 0.05315 0.14556 0.87949 0.0
O1012 O 0.98802 0.28246 0.8783 0.0
O1013 O 0.98816 0.2824 0.87691 0.0
O1014 O 0.04975 0.21313 0.87754 0.0
Fe1015 Fe 0.01888 0.24618 0.86134 0.0
C1016 C 0.09274 0.18312 0.90709 0.0
O1017 O 0.96507 0.20419 0.89509 0.0
O1018 O 0.00361 0.13771 0.89558 0.0
O1019 O 0.98261 0.28749 0.84655 0.0
O1020 O 0.94049 0.33888 0.8604 0.0
O1021 O 0.93806 0.33906 0.89382 0.0
O1022 O 0.9799 0.29063 0.9086 0.0
O1023 O 0.00316 0.13384 0.86447 0.0
O1024 O 0.96433 0.19985 0.86126 0.0
C1025 C 0.94462 0.31757 0.90585 0.0
O1026 O 0.07347 0.29221 0.85993 0.0
O1027 O 0.03494 0.359 0.86226 0.0
O1028 O 0.05769 0.21085 0.90934 0.0
O1029 O 0.09923 0.15944 0.89551 0.0
C1030 C 0.9681 0.16204 0.89871 0.0
C1031 C 0.96898 0.15634 0.85939 0.0
C1032 C 0.08588 0.16979 0.84964 0.0
O1033 O 0.0973 0.1541 0.86219 0.0
O1034 O 0.05472 0.2018 0.84729 0.0
C1035 C 0.95119 0.31963 0.84829 0.0
O1036 O 0.03414 0.36116 0.8931 0.0
O1037 O 0.07283 0.29475 0.89408 0.0
C1038 C 0.06969 0.33576 0.85785 0.0
C1039 C 0.07033 0.3379 0.89625 0.0
H1040 H 0.22456 0.83497 0.41015 0.0
H1041 H 0.26455 0.79206 0.45249 0.0
H1042 H 0.34601 0.79179 0.44522 0.0
H1043 H 0.40552 0.80118 0.4267 0.0
H1044 H 0.36554 0.8404 0.38396 0.0
H1045 H 0.28445 0.84461 0.39153 0.0
C1046 C 0.25126 0.82613 0.41781 0.0
C1047 C 0.23863 0.81499 0.43194 0.0
C1048 C 0.29795 0.82508 0.41348 0.0
C1049 C 0.27339 0.80213 0.44166 0.0
C1050 C 0.31996 0.80169 0.43749 0.0
C1051 C 0.37922 0.81127 0.41905 0.0
C1052 C 0.39177 0.82081 0.40479 0.0
C1053 C 0.33261 0.81293 0.42342 0.0
C1054 C 0.35697 0.83299 0.39501 0.0
C1055 C 0.31055 0.83532 0.39932 0.0
H1056 H 0.42344 0.01543 0.69099 0.0
H1057 H 0.27991 0.04558 0.68206 0.0
H1058 H 0.30043 0.12456 0.67508 0.0
H1059 H 0.36044 0.1797 0.66767 0.0
H1060 H 0.5041 0.14824 0.6752 0.0
H1061 H 0.48244 0.07595 0.68719 0.0
C1062 C 0.39652 0.03975 0.68795 0.0
C1063 C 0.35016 0.02478 0.68709 0.0
C1064 C 0.40869 0.08488 0.68373 0.0
C1065 C 0.31573 0.05644 0.68289 0.0
C1066 C 0.32747 0.1015 0.67885 0.0
C1067 C 0.38678 0.1577 0.67243 0.0
C1068 C 0.43377 0.16919 0.6707 0.0
C1069 C 0.374 0.11543 0.67871 0.0
C1070 C 0.46778 0.14058 0.67675 0.0
C1071 C 0.45533 0.09879 0.68334 0.0
H1072 H 0.26736 0.14711 0.94546 0.0
H1073 H 0.17726 0.2052 0.97775 0.0
H1074 H 0.11698 0.21687 0.96004 0.0
H1075 H 0.08837 0.20802 0.93535 0.0
H1076 H 0.17986 0.14914 0.90355 0.0
H1077 H 0.24039 0.1402 0.92118 0.0
C1078 C 0.23434 0.1616 0.9488 0.0
C1079 C 0.22649 0.17262 0.96323 0.0
C1080 C 0.19969 0.1682 0.93858 0.0
C1081 C 0.18414 0.19409 0.96695 0.0
C1082 C 0.14947 0.20116 0.95677 0.0
C1083 C 0.12153 0.19322 0.93229 0.0
C1084 C 0.12905 0.17867 0.91815 0.0
C1085 C 0.1566 0.18772 0.94257 0.0
C1086 C 0.1725 0.15992 0.91438 0.0
C1087 C 0.20743 0.15494 0.92445 0.0
H1088 H 0.05795 0.99638 0.20395 0.0
H1089 H 0.1139 0.08055 0.16982 0.0
H1090 H 0.13688 0.01111 0.15683 0.0
H1091 H 0.13335 0.92712 0.15397 0.0
H1092 H 0.07359 0.84249 0.18748 0.0
H1093 H 0.06039 0.91128 0.20194 0.0
C1094 C 0.07579 0.99936 0.19377 0.0
C1095 C 0.08404 0.04349 0.18782 0.0
C1096 C 0.08802 0.95922 0.1862 0.0
C1097 C 0.1071 0.04698 0.17461 0.0
C1098 C 0.12016 0.00729 0.16716 0.0
C1099 C 0.11842 0.92343 0.16457 0.0
C1100 C 0.10429 0.87955 0.16955 0.0
C1101 C 0.10975 0.96326 0.17269 0.0
C1102 C 0.08472 0.87576 0.18331 0.0
C1103 C 0.07692 0.91516 0.19159 0.0
H1104 H 0.35562 0.14592 0.54466 0.0
H1105 H 0.29185 0.0454 0.57281 0.0
H1106 H 0.34065 0.07108 0.59237 0.0
H1107 H 0.39682 0.1261 0.60197 0.0
H1108 H 0.46224 0.22576 0.57387 0.0
H1109 H 0.41835 0.19555 0.55374 0.0
C1110 C 0.3526 0.12961 0.55508 0.0
C1111 C 0.31893 0.09503 0.55737 0.0
C1112 C 0.38122 0.14416 0.56627 0.0
C1113 C 0.31633 0.07311 0.57082 0.0
C1114 C 0.34445 0.0876 0.58201 0.0
C1115 C 0.40195 0.1409 0.59141 0.0
C1116 C 0.43239 0.17854 0.58948 0.0
C1117 C 0.37625 0.12375 0.57993 0.0
C1118 C 0.43912 0.19675 0.57567 0.0
C1119 C 0.41371 0.17975 0.56417 0.0
H1120 H 0.147 0.99326 0.81787 0.0
H1121 H 0.01347 0.01338 0.79826 0.0
H1122 H 0.00786 0.09037 0.80862 0.0
H1123 H 0.03501 0.14585 0.82662 0.0
H1124 H 0.16826 0.125 0.84634 0.0
H1125 H 0.1807 0.05548 0.83213 0.0
C1126 C 0.11693 0.01475 0.81572 0.0
C1127 C 0.07955 0.99635 0.80806 0.0
C1128 C 0.11405 0.05916 0.82166 0.0
C1129 C 0.04176 0.02544 0.80477 0.0
C1130 C 0.03867 0.06981 0.8106 0.0
C1131 C 0.06764 0.12726 0.82735 0.0
C1132 C 0.10057 0.14034 0.8376 0.0
C1133 C 0.07373 0.08621 0.81957 0.0
C1134 C 0.14239 0.1155 0.83855 0.0
C1135 C 0.14927 0.07545 0.83055 0.0
H1136 H 0.23523 0.91194 0.05707 0.0
H1137 H 0.22709 0.7742 0.0398 0.0
H1138 H 0.16533 0.75471 0.05685 0.0
H1139 H 0.12089 0.77402 0.07851 0.0
H1140 H 0.13431 0.90971 0.09693 0.0
H1141 H 0.18613 0.9333 0.07745 0.0
C1142 C 0.21973 0.87774 0.05702 0.0
C1143 C 0.23652 0.8441 0.0475 0.0
C1144 C 0.1851 0.86658 0.06702 0.0
C1145 C 0.2154 0.80029 0.04726 0.0
C1146 C 0.18007 0.78921 0.05697 0.0
C1147 C 0.13405 0.80918 0.07798 0.0
C1148 C 0.12374 0.84027 0.08903 0.0
C1149 C 0.16555 0.82168 0.06714 0.0
C1150 C 0.14176 0.88538 0.08847 0.0
C1151 C 0.17161 0.8987 0.07741 0.0
H1152 H 0.31676 0.02188 0.33875 0.0
H1153 H 0.3069 0.95234 0.29831 0.0
H1154 H 0.36356 0.89473 0.30615 0.0
H1155 H 0.41334 0.86244 0.32476 0.0
H1156 H 0.42371 0.93159 0.36533 0.0
H1157 H 0.36974 0.99126 0.35712 0.0
C1158 C 0.32767 0.99452 0.3316 0.0
C1159 C 0.30822 0.9917 0.31789 0.0
C1160 C 0.36006 0.96132 0.33622 0.0
C1161 C 0.32189 0.95555 0.30882 0.0
C1162 C 0.35408 0.92251 0.31333 0.0
C1163 C 0.40387 0.89053 0.33184 0.0
C1164 C 0.42238 0.89226 0.34568 0.0
C1165 C 0.37296 0.92475 0.32705 0.0
C1166 C 0.41009 0.92935 0.35461 0.0
C1167 C 0.37912 0.96347 0.34994 0.0
H1168 H 0.78582 0.11946 0.58395 0.0
H1169 H 0.7197 0.18892 0.54865 0.0
H1170 H 0.64896 0.19835 0.56279 0.0
H1171 H 0.61189 0.1999 0.58642 0.0
H1172 H 0.68163 0.13905 0.62243 0.0
H1173 H 0.74394 0.1113 0.60679 0.0
C1174 C 0.75538 0.13532 0.57924 0.0
C1175 C 0.75797 0.15329 0.56525 0.0
C1176 C 0.71531 0.142 0.58761 0.0
C1177 C 0.71851 0.17452 0.55935 0.0
C1178 C 0.67809 0.18008 0.56745 0.0
C1179 C 0.63958 0.17847 0.59067 0.0
C1180 C 0.64194 0.17063 0.60545 0.0
C1181 C 0.67674 0.16558 0.58176 0.0
C1182 C 0.67877 0.14448 0.61101 0.0
C1183 C 0.71475 0.1294 0.6021 0.0
H1184 H 0.72338 0.92945 0.30495 0.0
H1185 H 0.65175 0.07302 0.32905 0.0
H1186 H 0.60916 0.01154 0.34976 0.0
H1187 H 0.59553 0.92036 0.35768 0.0
H1188 H 0.64599 0.80073 0.33488 0.0
H1189 H 0.69472 0.84465 0.31844 0.0
C1190 C 0.70106 0.94466 0.31297 0.0
C1191 C 0.69945 0.00803 0.31633 0.0
C1192 C 0.67516 0.91039 0.32686 0.0
C1193 C 0.65546 0.03585 0.32823 0.0
C1194 C 0.63158 0.99772 0.34153 0.0
C1195 C 0.61911 0.90632 0.34976 0.0
C1196 C 0.6193 0.85856 0.34689 0.0
C1197 C 0.64278 0.93661 0.3409 0.0
C1198 C 0.64784 0.8379 0.33632 0.0
C1199 C 0.67565 0.86272 0.32669 0.0
H1200 H 0.77531 0.89292 0.07953 0.0
H1201 H 0.85347 0.82655 0.04603 0.0
H1202 H 0.92015 0.81881 0.06187 0.0
H1203 H 0.95101 0.81956 0.08627 0.0
H1204 H 0.86983 0.87957 0.12015 0.0
H1205 H 0.81041 0.90328 0.10306 0.0
C1206 C 0.80746 0.87816 0.07556 0.0
C1207 C 0.80965 0.86085 0.06156 0.0
C1208 C 0.84525 0.87298 0.08481 0.0
C1209 C 0.85118 0.84067 0.05669 0.0
C1210 C 0.88922 0.83609 0.06576 0.0
C1211 C 0.92136 0.83987 0.08974 0.0
C1212 C 0.91497 0.8487 0.10433 0.0
C1213 C 0.88614 0.8508 0.07997 0.0
C1214 C 0.87569 0.87338 0.10888 0.0
C1215 C 0.84142 0.88618 0.09915 0.0
H1216 H 0.86894 0.08961 0.8038 0.0
H1217 H 0.93892 0.96276 0.8156 0.0
H1218 H 0.96286 0.99722 0.83791 0.0
H1219 H 0.97052 0.06499 0.853 0.0
H1220 H 0.90465 0.19375 0.84098 0.0
H1221 H 0.87188 0.15647 0.81995 0.0
C1222 C 0.88992 0.06956 0.81113 0.0
C1223 C 0.90446 0.02442 0.80746 0.0
C1224 C 0.90399 0.0898 0.824 0.0
C1225 C 0.92907 0.99825 0.81765 0.0
C1226 C 0.94249 0.01782 0.83054 0.0
C1227 C 0.94844 0.08498 0.84594 0.0
C1228 C 0.94051 0.13236 0.84855 0.0
C1229 C 0.9312 0.06389 0.83364 0.0
C1230 C 0.91137 0.15727 0.83929 0.0
C1231 C 0.89296 0.13605 0.82717 0.0
H1232 H 0.72865 0.99731 0.41336 0.0
H1233 H 0.69766 0.95615 0.45672 0.0
H1234 H 0.62858 0.91543 0.44879 0.0
H1235 H 0.58253 0.88395 0.42938 0.0
H1236 H 0.61211 0.92376 0.38589 0.0
H1237 H 0.6755 0.97355 0.39399 0.0
C1238 C 0.70648 0.9797 0.42104 0.0
C1239 C 0.71903 0.97842 0.43554 0.0
C1240 C 0.6666 0.95628 0.41639 0.0
C1241 C 0.68935 0.95659 0.44546 0.0
C1242 C 0.6498 0.93343 0.44095 0.0
C1243 C 0.60226 0.90435 0.42171 0.0
C1244 C 0.59309 0.90005 0.40709 0.0
C1245 C 0.63891 0.93194 0.42642 0.0
C1246 C 0.61845 0.92685 0.39722 0.0
C1247 C 0.655 0.95483 0.40185 0.0
H1248 H 0.91589 0.99184 0.19613 0.0
H1249 H 0.77343 0.94918 0.19142 0.0
H1250 H 0.79733 0.89005 0.17428 0.0
H1251 H 0.85921 0.8485 0.16144 0.0
H1252 H 0.00088 0.89477 0.16543 0.0
H1253 H 0.97646 0.95512 0.18182 0.0
C1254 C 0.88983 0.97021 0.19123 0.0
C1255 C 0.84276 0.97514 0.19501 0.0
C1256 C 0.90367 0.93687 0.18125 0.0
C1257 C 0.80981 0.94616 0.18862 0.0
C1258 C 0.82344 0.91237 0.17884 0.0
C1259 C 0.88467 0.872 0.16581 0.0
C1260 C 0.93186 0.86656 0.16233 0.0
C1261 C 0.87036 0.90711 0.17518 0.0
C1262 C 0.96434 0.89777 0.16798 0.0
C1263 C 0.95046 0.93234 0.1774 0.0
H1264 H 0.82668 0.05371 0.93838 0.0
H1265 H 0.78509 0.19363 0.94812 0.0
H1266 H 0.84214 0.2237 0.93109 0.0
H1267 H 0.90443 0.21034 0.91388 0.0
H1268 H 0.94966 0.07088 0.90486 0.0
H1269 H 0.89025 0.04037 0.92116 0.0
C1270 C 0.82984 0.09074 0.93661 0.0
C1271 C 0.80079 0.12131 0.94417 0.0
C1272 C 0.86328 0.10779 0.92699 0.0
C1273 C 0.80614 0.16932 0.94215 0.0
C1274 C 0.8389 0.18653 0.93248 0.0
C1275 C 0.90113 0.17319 0.91534 0.0
C1276 C 0.93126 0.14286 0.90807 0.0
C1277 C 0.8676 0.15607 0.92486 0.0
C1278 C 0.92687 0.09492 0.9103 0.0
C1279 C 0.89295 0.0775 0.91962 0.0
H1280 H 0.62452 0.08303 0.71481 0.0
H1281 H 0.76653 0.01979 0.6875 0.0
H1282 H 0.74568 0.08481 0.66465 0.0
H1283 H 0.68122 0.15086 0.65463 0.0
H1284 H 0.56503 0.20434 0.67886 0.0
H1285 H 0.57836 0.15602 0.69971 0.0
C1286 C 0.64859 0.08499 0.70592 0.0
C1287 C 0.69253 0.03906 0.70255 0.0
C1288 C 0.63766 0.12217 0.6909 0.0
C1289 C 0.73856 0.04459 0.68851 0.0
C1290 C 0.72402 0.08357 0.6741 0.0
C1291 C 0.66084 0.15012 0.66438 0.0
C1292 C 0.6215 0.17878 0.66585 0.0
C1293 C 0.67346 0.12016 0.67531 0.0
C1294 C 0.59392 0.1803 0.67843 0.0
C1295 C 0.60132 0.15303 0.69058 0.0
H1296 H 0.76819 0.35795 0.94359 0.0
H1297 H 0.86458 0.32738 0.97751 0.0
H1298 H 0.92477 0.31066 0.96005 0.0
H1299 H 0.95171 0.30777 0.93493 0.0
H1300 H 0.85464 0.33995 0.90138 0.0
H1301 H 0.79373 0.35298 0.91891 0.0
C1302 C 0.80253 0.34839 0.94725 0.0
C1303 C 0.81186 0.34657 0.96197 0.0
C1304 C 0.83728 0.33893 0.93716 0.0
C1305 C 0.85616 0.33135 0.96635 0.0
C1306 C 0.89088 0.32137 0.95632 0.0
C1307 C 0.91721 0.31754 0.93149 0.0
C1308 C 0.90809 0.3236 0.91686 0.0
C1309 C 0.88207 0.32569 0.94169 0.0
C1310 C 0.86302 0.33594 0.91257 0.0
C1311 C 0.82797 0.34324 0.92259 0.0
H1312 H 0.95748 0.56621 0.21712 0.0
H1313 H 0.81905 0.54281 0.20157 0.0
H1314 H 0.83 0.60286 0.18338 0.0
H1315 H 0.88033 0.65828 0.17108 0.0
H1316 H 0.01904 0.68213 0.18641 0.0
H1317 H 0.00644 0.62577 0.20565 0.0
C1318 C 0.92976 0.57441 0.20975 0.0
C1319 C 0.88796 0.54945 0.21042 0.0
C1320 C 0.93634 0.60888 0.19933 0.0
C1321 C 0.85184 0.56102 0.20104 0.0
C1322 C 0.85805 0.59532 0.19068 0.0
C1323 C 0.90778 0.65132 0.17867 0.0
C1324 C 0.95066 0.67402 0.17727 0.0
C1325 C 0.90042 0.61883 0.18958 0.0
C1326 C 0.98564 0.6652 0.18731 0.0
C1327 C 0.97855 0.63281 0.19825 0.0
H1328 H 0.74076 0.52782 0.41051 0.0
H1329 H 0.78845 0.63502 0.43883 0.0
H1330 H 0.71966 0.68038 0.43399 0.0
H1331 H 0.64841 0.69201 0.4212 0.0
H1332 H 0.60122 0.59015 0.39104 0.0
H1333 H 0.66736 0.54045 0.39714 0.0
C1334 C 0.73567 0.5609 0.4157 0.0
C1335 C 0.76932 0.5771 0.42532 0.0
C1336 C 0.69634 0.58798 0.4125 0.0
C1337 C 0.76289 0.62073 0.43169 0.0
C1338 C 0.72356 0.64704 0.42886 0.0
C1339 C 0.65197 0.6588 0.41597 0.0
C1340 C 0.61949 0.64493 0.4057 0.0
C1341 C 0.69035 0.63119 0.41924 0.0
C1342 C 0.62546 0.60177 0.39904 0.0
C1343 C 0.66338 0.57338 0.40249 0.0
H1344 H 0.54652 0.49272 0.70438 0.0
H1345 H 0.61232 0.57638 0.6718 0.0
H1346 H 0.63371 0.50682 0.65864 0.0
H1347 H 0.62736 0.42335 0.65524 0.0
H1348 H 0.55646 0.33956 0.68683 0.0
H1349 H 0.54345 0.408 0.7015 0.0
C1350 C 0.5658 0.49558 0.69444 0.0
C1351 C 0.5774 0.53964 0.68899 0.0
C1352 C 0.57692 0.45547 0.68673 0.0
C1353 C 0.60274 0.54289 0.67617 0.0
C1354 C 0.61492 0.50315 0.66863 0.0
C1355 C 0.6099 0.41972 0.66547 0.0
C1356 C 0.59303 0.37622 0.6699 0.0
C1357 C 0.60133 0.45936 0.67365 0.0
C1358 C 0.56991 0.37254 0.68313 0.0
C1359 C 0.56231 0.41171 0.69152 0.0
H1360 H 0.81013 0.56377 0.07822 0.0
H1361 H 0.74765 0.69436 0.06666 0.0
H1362 H 0.817 0.73541 0.07452 0.0
H1363 H 0.88892 0.73456 0.08855 0.0
H1364 H 0.94646 0.60444 0.10253 0.0
H1365 H 0.88654 0.56247 0.0895 0.0
C1366 C 0.81236 0.6011 0.07702 0.0
C1367 C 0.77405 0.62589 0.07173 0.0
C1368 C 0.85154 0.62446 0.08205 0.0
C1369 C 0.77689 0.67441 0.07051 0.0
C1370 C 0.81642 0.6979 0.07509 0.0
C1371 C 0.8893 0.697 0.08818 0.0
C1372 C 0.92217 0.67232 0.09621 0.0
C1373 C 0.85317 0.67338 0.08137 0.0
C1374 C 0.92181 0.6238 0.09616 0.0
C1375 C 0.88724 0.59996 0.08888 0.0
H1376 H 0.68628 0.55824 0.31594 0.0
H1377 H 0.61391 0.47144 0.34635 0.0
H1378 H 0.59775 0.5387 0.36126 0.0
H1379 H 0.59285 0.62296 0.3635 0.0
H1380 H 0.65324 0.71052 0.33102 0.0
H1381 H 0.68644 0.64258 0.31918 0.0
C1382 C 0.66729 0.55409 0.32589 0.0
C1383 C 0.65046 0.51013 0.32989 0.0
C1384 C 0.65617 0.59318 0.33403 0.0
C1385 C 0.6267 0.50501 0.34295 0.0
C1386 C 0.61744 0.54343 0.35146 0.0
C1387 C 0.61486 0.62711 0.35414 0.0
C1388 C 0.62146 0.67138 0.34821 0.0
C1389 C 0.63053 0.58783 0.34685 0.0
C1390 C 0.6486 0.67663 0.33584 0.0
C1391 C 0.66694 0.6378 0.329 0.0
H1392 H 0.71444 0.37998 0.54577 0.0
H1393 H 0.76455 0.48877 0.57294 0.0
H1394 H 0.7173 0.45937 0.59268 0.0
H1395 H 0.66442 0.40108 0.60249 0.0
H1396 H 0.61259 0.29281 0.57536 0.0
H1397 H 0.65725 0.32408 0.55527 0.0
C1398 C 0.71507 0.397 0.55605 0.0
C1399 C 0.74414 0.43543 0.55805 0.0
C1400 C 0.6873 0.38027 0.5673 0.0
C1401 C 0.74357 0.45823 0.57127 0.0
C1402 C 0.71635 0.44164 0.58252 0.0
C1403 C 0.66261 0.38448 0.59216 0.0
C1404 C 0.63538 0.3446 0.59046 0.0
C1405 C 0.68853 0.4024 0.58071 0.0
C1406 C 0.633 0.3238 0.57695 0.0
C1407 C 0.65882 0.34143 0.56548 0.0
H1408 H 0.85892 0.45674 0.80469 0.0
H1409 H 0.99537 0.44802 0.78581 0.0
H1410 H 0.01683 0.38751 0.80291 0.0
H1411 H 0.99871 0.34139 0.82433 0.0
H1412 H 0.86402 0.35352 0.84418 0.0
H1413 H 0.83946 0.4075 0.82543 0.0
C1414 C 0.89333 0.44155 0.80436 0.0
C1415 C 0.92588 0.4576 0.79423 0.0
C1416 C 0.90548 0.40696 0.81427 0.0
C1417 C 0.97003 0.43691 0.79369 0.0
C1418 C 0.98222 0.40214 0.8034 0.0
C1419 C 0.96352 0.35476 0.82428 0.0
C1420 C 0.93292 0.34304 0.83547 0.0
C1421 C 0.95042 0.3873 0.81385 0.0
C1422 C 0.88792 0.36171 0.83556 0.0
C1423 C 0.87406 0.39287 0.82493 0.0
H1424 H 0.1816 0.54604 0.07459 0.0
H1425 H 0.31103 0.57688 0.0954 0.0
H1426 H 0.27154 0.63277 0.11069 0.0
H1427 H 0.20129 0.67545 0.11732 0.0
H1428 H 0.07153 0.64357 0.09697 0.0
H1429 H 0.11004 0.58421 0.0826 0.0
C1430 C 0.20121 0.56406 0.08264 0.0
C1431 C 0.2493 0.55623 0.08404 0.0
C1432 C 0.1782 0.5959 0.0915 0.0
C1433 C 0.27393 0.58149 0.09429 0.0
C1434 C 0.25142 0.61353 0.10301 0.0
C1435 C 0.18136 0.65519 0.10983 0.0
C1436 C 0.13376 0.66411 0.10811 0.0
C1437 C 0.20369 0.62132 0.10161 0.0
C1438 C 0.1082 0.63723 0.09852 0.0
C1439 C 0.13028 0.60355 0.09022 0.0
H1440 H 0.16365 0.41613 0.79653 0.0
H1441 H 0.12217 0.56826 0.82215 0.0
H1442 H 0.09736 0.51365 0.84703 0.0
H1443 H 0.09043 0.42586 0.85818 0.0
H1444 H 0.11524 0.29787 0.83552 0.0
H1445 H 0.14581 0.33559 0.8142 0.0
C1446 C 0.14957 0.43418 0.80566 0.0
C1447 C 0.1538 0.4983 0.80757 0.0
C1448 C 0.13559 0.40424 0.82197 0.0
C1449 C 0.12337 0.53082 0.82196 0.0
C1450 C 0.11066 0.49687 0.83756 0.0
C1451 C 0.104 0.40838 0.84885 0.0
C1452 C 0.10093 0.35977 0.84767 0.0
C1453 C 0.11831 0.43518 0.83746 0.0
C1454 C 0.11828 0.33525 0.83567 0.0
C1455 C 0.13535 0.35655 0.82319 0.0
H1456 H 0.37534 0.45075 0.56143 0.0
H1457 H 0.24873 0.43758 0.58607 0.0
H1458 H 0.29095 0.39684 0.60482 0.0
H1459 H 0.36176 0.3596 0.61324 0.0
H1460 H 0.48832 0.37178 0.58877 0.0
H1461 H 0.44819 0.41995 0.57108 0.0
C1462 C 0.35672 0.43977 0.57092 0.0
C1463 C 0.30843 0.44752 0.57229 0.0
C1464 C 0.38129 0.41643 0.58173 0.0
C1465 C 0.28572 0.43229 0.58477 0.0
C1466 C 0.30982 0.409 0.59549 0.0
C1467 C 0.38078 0.37347 0.60415 0.0
C1468 C 0.42779 0.36189 0.60224 0.0
C1469 C 0.35736 0.4002 0.59396 0.0
C1470 C 0.45217 0.38045 0.59052 0.0
C1471 C 0.42907 0.40752 0.58033 0.0
H1472 H 0.48738 0.48753 0.31296 0.0
H1473 H 0.38658 0.56279 0.28812 0.0
H1474 H 0.3812 0.62178 0.30661 0.0
H1475 H 0.41177 0.65631 0.32838 0.0
H1476 H 0.51392 0.58197 0.35308 0.0
H1477 H 0.51126 0.51791 0.33632 0.0
C1478 C 0.46342 0.51627 0.31179 0.0
C1479 C 0.43712 0.52065 0.29925 0.0
C1480 C 0.46089 0.55037 0.3224 0.0
C1481 C 0.40683 0.55849 0.29773 0.0
C1482 C 0.40388 0.5923 0.30827 0.0
C1483 C 0.43277 0.62572 0.33028 0.0
C1484 C 0.46343 0.62442 0.34189 0.0
C1485 C 0.43166 0.58923 0.32046 0.0
C1486 C 0.49 0.58416 0.34424 0.0
C1487 C 0.4888 0.54752 0.33458 0.0
H1488 H 0.23173 0.46174 0.9208 0.0
H1489 H 0.28774 0.32677 0.93065 0.0
H1490 H 0.21833 0.29012 0.92111 0.0
H1491 H 0.14354 0.29629 0.90914 0.0
H1492 H 0.08732 0.43098 0.89877 0.0
H1493 H 0.15504 0.46794 0.9094 0.0
C1494 C 0.22833 0.42434 0.92103 0.0
C1495 C 0.26439 0.39709 0.92671 0.0
C1496 C 0.18859 0.40349 0.91533 0.0
C1497 C 0.26009 0.34857 0.92663 0.0
C1498 C 0.22057 0.3276 0.92108 0.0
C1499 C 0.14595 0.33378 0.90918 0.0
C1500 C 0.11043 0.36082 0.90306 0.0
C1501 C 0.18488 0.35472 0.91527 0.0
C1502 C 0.11409 0.40932 0.90338 0.0
C1503 C 0.15285 0.43047 0.90944 0.0
H1504 H 0.44462 0.48753 0.69383 0.0
H1505 H 0.31924 0.41896 0.70765 0.0
H1506 H 0.32492 0.3658 0.68746 0.0
H1507 H 0.36964 0.33473 0.66705 0.0
H1508 H 0.49396 0.40595 0.65332 0.0
H1509 H 0.48355 0.46284 0.67201 0.0
C1510 C 0.41788 0.46173 0.69228 0.0
C1511 C 0.38127 0.4575 0.70219 0.0
C1512 C 0.42118 0.43158 0.68064 0.0
C1513 C 0.34752 0.42312 0.70009 0.0
C1514 C 0.35082 0.39267 0.68858 0.0
C1515 C 0.39384 0.36325 0.66796 0.0
C1516 C 0.43276 0.36553 0.65887 0.0
C1517 C 0.38801 0.396 0.67891 0.0
C1518 C 0.46386 0.40285 0.66024 0.0
C1519 C 0.45815 0.43545 0.67099 0.0
H1520 H 0.22063 0.65531 0.40653 0.0
H1521 H 0.26536 0.67151 0.4594 0.0
H1522 H 0.3592 0.69202 0.45012 0.0
H1523 H 0.41874 0.69681 0.42674 0.0
H1524 H 0.37827 0.68533 0.38234 0.0
H1525 H 0.29727 0.6722 0.38756 0.0
C1526 C 0.24548 0.66468 0.41461 0.0
C1527 C 0.23496 0.65289 0.43391 0.0
C1528 C 0.30505 0.6757 0.41012 0.0
C1529 C 0.2741 0.67437 0.4482 0.0
C1530 C 0.33262 0.68503 0.44234 0.0
C1531 C 0.39209 0.69084 0.41888 0.0
C1532 C 0.40267 0.69119 0.40413 0.0
C1533 C 0.34728 0.68385 0.42366 0.0
C1534 C 0.36828 0.68443 0.3935 0.0
C1535 C 0.32113 0.67705 0.39629 0.0
H1536 H 0.23608 0.53259 0.16626 0.0
H1537 H 0.09977 0.47862 0.17563 0.0
H1538 H 0.06558 0.55443 0.17081 0.0
H1539 H 0.07358 0.63425 0.16246 0.0
H1540 H 0.20918 0.68853 0.15209 0.0
H1541 H 0.24442 0.61445 0.15877 0.0
C1542 C 0.19896 0.53765 0.16734 0.0
C1543 C 0.17048 0.49996 0.17122 0.0
C1544 C 0.17936 0.58122 0.16427 0.0
C1545 C 0.12243 0.50699 0.17263 0.0
C1546 C 0.10283 0.55029 0.16984 0.0
C1547 C 0.11091 0.63012 0.16171 0.0
C1548 C 0.13863 0.66697 0.15671 0.0
C1549 C 0.13085 0.58738 0.1654 0.0
C1550 C 0.18697 0.66087 0.15593 0.0
C1551 C 0.20716 0.61843 0.15971 0.0
loop_
_geom_bond_atom_site_label_1
_geom_bond_atom_site_label_2
_geom_bond_distance
_geom_bond_site_symmetry_2
_ccdc_geom_bond_type
C0 C1 1.560 . S
C0 H61 0.959 . S
C0 H62 0.959 . S
C0 H63 0.960 . S
C1 C0 1.560 . S
C1 O56 1.426 . S
C1 H60 0.980 . S
C2 C3 1.407 . S
C2 C7 1.418 . S
C2 O56 1.334 . S
C3 C2 1.407 . S
C3 C4 1.360 . S
C3 H64 0.929 . S
C4 C3 1.360 . S
C4 C5 1.401 . S
C4 C8 1.527 . S
C5 C4 1.401 . S
C5 C6 1.405 . S
C5 C38 1.587 . S
C6 C5 1.405 . S
C6 C7 1.332 . S
C6 C9 1.496 1_565 S
C7 C2 1.418 . S
C7 C6 1.332 . S
C7 H65 0.929 1_565 S
C8 C4 1.527 . S
C8 H66 0.959 . S
C8 H67 0.961 . S
C8 H68 0.961 . S
C9 C6 1.496 1_545 S
C9 H69 0.960 . S
C9 H70 0.960 . S
C9 H71 0.961 . S
C10 C11 1.517 . S
C10 H73 0.961 . S
C10 H74 0.960 . S
C10 H75 0.959 . S
C11 C10 1.517 . S
C11 O59 1.468 . S
C11 H72 0.980 . S
C12 C13 1.349 . S
C12 C17 1.367 . S
C12 O59 1.408 . S
C13 C12 1.349 . S
C13 C14 1.407 . S
C13 H76 0.930 . S
C14 C13 1.407 . S
C14 C15 1.449 . S
C14 C18 1.535 . S
C15 C14 1.449 . S
C15 C16 1.384 . S
C15 C40 1.553 . S
C16 C15 1.384 . S
C16 C17 1.364 . S
C16 C19 1.450 . S
C17 C12 1.367 . S
C17 C16 1.364 . S
C17 H77 0.931 . S
C18 C14 1.535 . S
C18 H78 0.959 . S
C18 H79 0.961 . S
C18 H80 0.959 1_565 S
C19 C16 1.450 . S
C19 H81 0.960 . S
C19 H82 0.960 . S
C19 H83 0.960 . S
C20 C21 1.309 . S
C20 C25 1.304 . S
C20 O58 1.435 . S
C21 C20 1.309 . S
C21 C22 1.476 . S
C21 H85 0.930 . S
C22 C21 1.476 . S
C22 C23 1.400 . S
C22 C26 1.567 . S
C23 C22 1.400 . S
C23 C24 1.373 . S
C23 C45 1.432 . S
C24 C23 1.373 . S
C24 C25 1.339 . S
C24 C27 1.530 1_545 S
C25 C20 1.304 . S
C25 C24 1.339 . S
C25 H86 0.930 . S
C26 C22 1.567 . S
C26 H87 0.961 . S
C26 H88 0.960 . S
C26 H89 0.958 . S
C27 C24 1.530 1_565 S
C27 H90 0.961 . S
C27 H91 0.960 . S
C27 H92 0.960 . S
C28 C29 1.530 . S
C28 H94 0.961 . S
C28 H95 0.961 . S
C28 H96 0.959 . S
C29 C28 1.530 . S
C29 O57 1.412 . S
C29 H93 0.980 . S
C30 C31 1.288 . S
C30 C35 1.377 . S
C30 O57 1.393 . S
C31 C30 1.288 . S
C31 C32 1.369 . S
C31 H97 0.932 . S
C32 C31 1.369 . S
C32 C33 1.398 . S
C32 C36 1.527 . S
C33 C32 1.398 . S
C33 C34 1.380 . S
C33 C47 1.497 . S
C34 C33 1.380 . S
C34 C35 1.383 . S
C34 C37 1.603 . S
C35 C30 1.377 . S
C35 C34 1.383 . S
C35 H98 0.929 . S
C36 C32 1.527 . S
C36 H99 0.961 . S
C36 H100 0.959 . S
C36 H101 0.959 . S
C37 C34 1.603 . S
C37 H102 0.960 . S
C37 H103 0.962 1_545 S
C37 H104 0.961 1_545 S
C38 C5 1.587 . S
C38 C39 1.360 1_655 S
C38 C51 1.412 . S
C39 C38 1.360 1_455 S
C39 C40 1.365 . S
C39 H105 0.929 . S
C40 C15 1.553 . S
C40 C39 1.365 . S
C40 C41 1.404 . S
C41 C40 1.404 . S
C41 C42 1.395 . S
C41 C52 1.451 . S
C42 C41 1.395 . S
C42 C43 1.322 . S
C42 H106 0.930 . S
C43 C42 1.322 . S
C43 C44 1.459 1_565 S
C43 H107 0.929 . S
C44 C43 1.459 1_545 S
C44 C45 1.445 . S
C44 C53 1.395 . S
C45 C23 1.432 . S
C45 C44 1.445 . S
C45 C46 1.370 . S
C46 C45 1.370 . S
C46 C47 1.438 1_455 S
C46 H108 0.930 . S
C47 C33 1.497 . S
C47 C46 1.438 1_655 S
C47 C48 1.360 . S
C48 C47 1.360 . S
C48 C49 1.401 . S
C48 C53 1.446 1_655 S
C49 C48 1.401 . S
C49 C50 1.347 1_545 S
C49 H109 0.929 . S
C50 C49 1.347 1_565 S
C50 C51 1.455 . S
C50 H110 0.930 . S
C51 C38 1.412 . S
C51 C50 1.455 . S
C51 C52 1.331 1_655 S
C52 C41 1.451 . S
C52 C51 1.331 1_455 S
C52 C53 1.497 1_565 S
C53 C44 1.395 . S
C53 C48 1.446 1_455 S
C53 C52 1.497 1_545 S
C54 C55 1.582 . S
C54 H111 0.962 . S
C54 H112 0.959 . S
C54 H113 0.958 . S
C55 C54 1.582 . S
C55 O58 1.458 . S
C55 H84 0.980 . S
O56 C1 1.426 . S
O56 C2 1.334 . S
O57 C29 1.412 . S
O57 C30 1.393 . S
O58 C20 1.435 . S
O58 C55 1.458 . S
O59 C11 1.468 . S
O59 C12 1.408 . S
H60 C1 0.980 . S
H61 C0 0.959 . S
H62 C0 0.959 . S
H63 C0 0.960 . S
H64 C3 0.929 . S
H65 C7 0.929 1_545 S
H66 C8 0.959 . S
H67 C8 0.961 . S
H68 C8 0.961 . S
H69 C9 0.960 . S
H70 C9 0.960 . S
H71 C9 0.961 . S
H72 C11 0.980 . S
H73 C10 0.961 . S
H74 C10 0.960 . S
H75 C10 0.959 . S
H76 C13 0.930 . S
H77 C17 0.931 . S
H78 C18 0.959 . S
H79 C18 0.961 . S
H80 C18 0.959 1_545 S
H81 C19 0.960 . S
H82 C19 0.960 . S
H83 C19 0.960 . S
H84 C55 0.980 . S
H85 C21 0.930 . S
H86 C25 0.930 . S
H87 C26 0.961 . S
H88 C26 0.960 . S
H89 C26 0.958 . S
H90 C27 0.961 . S
H91 C27 0.960 . S
H92 C27 0.960 . S
H93 C29 0.980 . S
H94 C28 0.961 . S
H95 C28 0.961 . S
H96 C28 0.959 . S
H97 C31 0.932 . S
H98 C35 0.929 . S
H99 C36 0.961 . S
H100 C36 0.959 . S
H101 C36 0.959 . S
H102 C37 0.960 . S
H103 C37 0.962 1_565 S
H104 C37 0.961 1_565 S
H105 C39 0.929 . S
H106 C42 0.930 . S
H107 C43 0.929 . S
H108 C46 0.930 . S
H109 C49 0.929 . S
H110 C50 0.930 . S
H111 C54 0.962 . S
H112 C54 0.959 . S
H113 C54 0.958 . S
C114 C115 1.562 . S
C114 H175 0.963 . S
C114 H176 0.956 1_565 S
C114 H177 0.957 1_565 S
C115 C114 1.562 . S
C115 O170 1.426 . S
C115 H174 0.980 . S
C116 C117 1.407 . S
C116 C121 1.418 . S
C116 O170 1.334 . S
C117 C116 1.407 . S
C117 C118 1.360 . S
C117 H178 0.929 . S
C118 C117 1.360 . S
C118 C119 1.401 . S
C118 C122 1.527 . S
C119 C118 1.401 . S
C119 C120 1.405 . S
C119 C152 1.587 . S
C120 C119 1.405 . S
C120 C121 1.332 . S
C120 C123 1.496 . S
C121 C116 1.418 . S
C121 C120 1.332 . S
C121 H179 0.929 . S
C122 C118 1.527 . S
C122 H180 0.959 . S
C122 H181 0.961 . S
C122 H182 0.961 . S
C123 C120 1.496 . S
C123 H183 0.960 . S
C123 H184 0.960 . S
C123 H185 0.961 . S
C124 C125 1.517 . S
C124 H187 0.961 . S
C124 H188 0.960 . S
C124 H189 0.959 . S
C125 C124 1.517 . S
C125 O173 1.468 . S
C125 H186 0.980 . S
C126 C127 1.349 . S
C126 C131 1.367 . S
C126 O173 1.408 . S
C127 C126 1.349 . S
C127 C128 1.407 . S
C127 H190 0.930 . S
C128 C127 1.407 . S
C128 C129 1.449 . S
C128 C132 1.535 . S
C129 C128 1.449 . S
C129 C130 1.384 . S
C129 C154 1.553 . S
C130 C129 1.384 . S
C130 C131 1.364 . S
C130 C133 1.450 . S
C131 C126 1.367 . S
C131 C130 1.364 . S
C131 H191 0.931 . S
C132 C128 1.535 . S
C132 H192 0.959 . S
C132 H193 0.961 . S
C132 H194 0.959 . S
C133 C130 1.450 . S
C133 H195 0.960 . S
C133 H196 0.960 . S
C133 H197 0.960 . S
C134 C135 1.309 . S
C134 C139 1.304 . S
C134 O172 1.435 . S
C135 C134 1.309 . S
C135 C136 1.476 . S
C135 H199 0.930 . S
C136 C135 1.476 . S
C136 C137 1.400 . S
C136 C140 1.567 . S
C137 C136 1.400 . S
C137 C138 1.373 . S
C137 C159 1.432 . S
C138 C137 1.373 . S
C138 C139 1.339 . S
C138 C141 1.530 . S
C139 C134 1.304 . S
C139 C138 1.339 . S
C139 H200 0.930 . S
C140 C136 1.567 . S
C140 H201 0.961 . S
C140 H202 0.960 . S
C140 H203 0.958 . S
C141 C138 1.530 . S
C141 H204 0.961 . S
C141 H205 0.960 . S
C141 H206 0.960 . S
C142 C143 1.530 1_545 S
C142 H208 0.961 . S
C142 H209 0.961 . S
C142 H210 0.959 . S
C143 C142 1.530 1_565 S
C143 O171 1.412 . S
C143 H207 0.980 . S
C144 C145 1.288 . S
C144 C149 1.377 . S
C144 O171 1.393 . S
C145 C144 1.288 . S
C145 C146 1.369 . S
C145 H211 0.932 . S
C146 C145 1.369 . S
C146 C147 1.398 . S
C146 C150 1.527 . S
C147 C146 1.398 . S
C147 C148 1.380 . S
C147 C161 1.497 . S
C148 C147 1.380 . S
C148 C149 1.383 . S
C148 C151 1.603 . S
C149 C144 1.377 . S
C149 C148 1.383 . S
C149 H212 0.929 . S
C150 C146 1.527 . S
C150 H213 0.961 . S
C150 H214 0.959 . S
C150 H215 0.959 . S
C151 C148 1.603 . S
C151 H216 0.960 . S
C151 H217 0.962 . S
C151 H218 0.961 . S
C152 C119 1.587 . S
C152 C153 1.360 . S
C152 C165 1.412 . S
C153 C152 1.360 . S
C153 C154 1.365 . S
C153 H219 0.929 . S
C154 C129 1.553 . S
C154 C153 1.365 . S
C154 C155 1.404 . S
C155 C154 1.404 . S
C155 C156 1.395 . S
C155 C166 1.451 . S
C156 C155 1.395 . S
C156 C157 1.322 . S
C156 H220 0.930 . S
C157 C156 1.322 . S
C157 C158 1.459 . S
C157 H221 0.929 . S
C158 C157 1.459 . S
C158 C159 1.445 . S
C158 C167 1.395 . S
C159 C137 1.432 . S
C159 C158 1.445 . S
C159 C160 1.370 . S
C160 C159 1.370 . S
C160 C161 1.438 . S
C160 H222 0.930 . S
C161 C147 1.497 . S
C161 C160 1.438 . S
C161 C162 1.360 . S
C162 C161 1.360 . S
C162 C163 1.401 . S
C162 C167 1.446 . S
C163 C162 1.401 . S
C163 C164 1.347 . S
C163 H223 0.929 . S
C164 C163 1.347 . S
C164 C165 1.455 . S
C164 H224 0.930 . S
C165 C152 1.412 . S
C165 C164 1.455 . S
C165 C166 1.331 . S
C166 C155 1.451 . S
C166 C165 1.331 . S
C166 C167 1.497 . S
C167 C158 1.395 . S
C167 C162 1.446 . S
C167 C166 1.497 . S
C168 C169 1.582 . S
C168 H225 0.962 . S
C168 H226 0.959 . S
C168 H227 0.958 . S
C169 C168 1.582 . S
C169 O172 1.458 . S
C169 H198 0.980 . S
O170 C115 1.426 . S
O170 C116 1.334 . S
O171 C143 1.412 . S
O171 C144 1.393 . S
O172 C134 1.435 . S
O172 C169 1.458 . S
O173 C125 1.468 . S
O173 C126 1.408 . S
H174 C115 0.980 . S
H175 C114 0.963 . S
H176 C114 0.956 1_545 S
H177 C114 0.957 1_545 S
H178 C117 0.929 . S
H179 C121 0.929 . S
H180 C122 0.959 . S
H181 C122 0.961 . S
H182 C122 0.961 . S
H183 C123 0.960 . S
H184 C123 0.960 . S
H185 C123 0.961 . S
H186 C125 0.980 . S
H187 C124 0.961 . S
H188 C124 0.960 . S
H189 C124 0.959 . S
H190 C127 0.930 . S
H191 C131 0.931 . S
H192 C132 0.959 . S
H193 C132 0.961 . S
H194 C132 0.959 . S
H195 C133 0.960 . S
H196 C133 0.960 . S
H197 C133 0.960 . S
H198 C169 0.980 . S
H199 C135 0.930 . S
H200 C139 0.930 . S
H201 C140 0.961 . S
H202 C140 0.960 . S
H203 C140 0.958 . S
H204 C141 0.961 . S
H205 C141 0.960 . S
H206 C141 0.960 . S
H207 C143 0.980 . S
H208 C142 0.961 . S
H209 C142 0.961 . S
H210 C142 0.959 . S
H211 C145 0.932 . S
H212 C149 0.929 . S
H213 C150 0.961 . S
H214 C150 0.959 . S
H215 C150 0.959 . S
H216 C151 0.960 . S
H217 C151 0.962 . S
H218 C151 0.961 . S
H219 C153 0.929 . S
H220 C156 0.930 . S
H221 C157 0.929 . S
H222 C160 0.930 . S
H223 C163 0.929 . S
H224 C164 0.930 . S
H225 C168 0.962 . S
H226 C168 0.959 . S
H227 C168 0.958 . S
C228 C229 1.560 . S
C228 H289 0.959 . S
C228 H290 0.959 . S
C228 H291 0.960 . S
C229 C228 1.560 . S
C229 O284 1.426 . S
C229 H288 0.980 . S
C230 C231 1.407 . S
C230 C235 1.418 . S
C230 O284 1.334 . S
C231 C230 1.407 . S
C231 C232 1.360 . S
C231 H292 0.929 . S
C232 C231 1.360 . S
C232 C233 1.401 . S
C232 C236 1.527 . S
C233 C232 1.401 . S
C233 C234 1.405 . S
C233 C266 1.587 . S
C234 C233 1.405 . S
C234 C235 1.332 . S
C234 C237 1.496 1_565 S
C235 C230 1.418 . S
C235 C234 1.332 . S
C235 H293 0.929 . S
C236 C232 1.527 . S
C236 H294 0.959 . S
C236 H295 0.961 . S
C236 H296 0.961 . S
C237 C234 1.496 1_545 S
C237 H297 0.960 . S
C237 H298 0.960 1_545 S
C237 H299 0.961 . S
C238 C239 1.517 . S
C238 H301 0.961 . S
C238 H302 0.960 . S
C238 H303 0.959 . S
C239 C238 1.517 . S
C239 O287 1.468 . S
C239 H300 0.980 . S
C240 C241 1.349 . S
C240 C245 1.367 . S
C240 O287 1.408 . S
C241 C240 1.349 . S
C241 C242 1.407 . S
C241 H304 0.930 . S
C242 C241 1.407 . S
C242 C243 1.449 . S
C242 C246 1.535 . S
C243 C242 1.449 . S
C243 C244 1.384 . S
C243 C268 1.553 . S
C244 C243 1.384 . S
C244 C245 1.364 . S
C244 C247 1.450 . S
C245 C240 1.367 . S
C245 C244 1.364 . S
C245 H305 0.931 . S
C246 C242 1.535 . S
C246 H306 0.959 . S
C246 H307 0.961 . S
C246 H308 0.959 . S
C247 C244 1.450 . S
C247 H309 0.960 . S
C247 H310 0.960 . S
C247 H311 0.960 . S
C248 C249 1.309 . S
C248 C253 1.304 . S
C248 O286 1.435 . S
C249 C248 1.309 . S
C249 C250 1.476 . S
C249 H313 0.930 . S
C250 C249 1.476 . S
C250 C251 1.400 . S
C250 C254 1.567 . S
C251 C250 1.400 . S
C251 C252 1.373 . S
C251 C273 1.432 . S
C252 C251 1.373 . S
C252 C253 1.339 . S
C252 C255 1.530 1_545 S
C253 C248 1.304 . S
C253 C252 1.339 . S
C253 H314 0.930 1_545 S
C254 C250 1.567 . S
C254 H315 0.961 . S
C254 H316 0.960 . S
C254 H317 0.958 . S
C255 C252 1.530 1_565 S
C255 H318 0.961 . S
C255 H319 0.960 . S
C255 H320 0.960 . S
C256 C257 1.530 . S
C256 H322 0.961 . S
C256 H323 0.961 . S
C256 H324 0.959 . S
C257 C256 1.530 . S
C257 O285 1.412 . S
C257 H321 0.980 . S
C258 C259 1.288 . S
C258 C263 1.377 . S
C258 O285 1.393 . S
C259 C258 1.288 . S
C259 C260 1.369 . S
C259 H325 0.932 . S
C260 C259 1.369 . S
C260 C261 1.398 . S
C260 C264 1.527 . S
C261 C260 1.398 . S
C261 C262 1.380 . S
C261 C275 1.497 . S
C262 C261 1.380 . S
C262 C263 1.383 . S
C262 C265 1.603 1_545 S
C263 C258 1.377 . S
C263 C262 1.383 . S
C263 H326 0.929 . S
C264 C260 1.527 . S
C264 H327 0.961 . S
C264 H328 0.959 . S
C264 H329 0.959 . S
C265 C262 1.603 1_565 S
C265 H330 0.960 . S
C265 H331 0.962 . S
C265 H332 0.961 . S
C266 C233 1.587 . S
C266 C267 1.360 . S
C266 C279 1.412 . S
C267 C266 1.360 . S
C267 C268 1.365 . S
C267 H333 0.929 . S
C268 C243 1.553 . S
C268 C267 1.365 . S
C268 C269 1.404 . S
C269 C268 1.404 . S
C269 C270 1.395 . S
C269 C280 1.451 . S
C270 C269 1.395 . S
C270 C271 1.322 1_554 S
C270 H334 0.930 . S
C271 C270 1.322 1_556 S
C271 C272 1.459 . S
C271 H335 0.929 . S
C272 C271 1.459 . S
C272 C273 1.445 1_565 S
C272 C281 1.395 . S
C273 C251 1.432 . S
C273 C272 1.445 1_545 S
C273 C274 1.370 . S
C274 C273 1.370 . S
C274 C275 1.438 . S
C274 H336 0.930 . S
C275 C261 1.497 . S
C275 C274 1.438 . S
C275 C276 1.360 . S
C276 C275 1.360 . S
C276 C277 1.401 . S
C276 C281 1.446 1_545 S
C277 C276 1.401 . S
C277 C278 1.347 1_546 S
C277 H337 0.929 . S
C278 C277 1.347 1_564 S
C278 C279 1.455 . S
C278 H338 0.930 . S
C279 C266 1.412 . S
C279 C278 1.455 . S
C279 C280 1.331 . S
C280 C269 1.451 . S
C280 C279 1.331 . S
C280 C281 1.497 1_554 S
C281 C272 1.395 . S
C281 C276 1.446 1_565 S
C281 C280 1.497 1_556 S
C282 C283 1.582 . S
C282 H339 0.962 . S
C282 H340 0.959 . S
C282 H341 0.958 . S
C283 C282 1.582 . S
C283 O286 1.458 . S
C283 H312 0.980 . S
O284 C229 1.426 . S
O284 C230 1.334 . S
O285 C257 1.412 . S
O285 C258 1.393 . S
O286 C248 1.435 . S
O286 C283 1.458 . S
O287 C239 1.468 . S
O287 C240 1.408 . S
H288 C229 0.980 . S
H289 C228 0.959 . S
H290 C228 0.959 . S
H291 C228 0.960 . S
H292 C231 0.929 . S
H293 C235 0.929 . S
H294 C236 0.959 . S
H295 C236 0.961 . S
H296 C236 0.961 . S
H297 C237 0.960 . S
H298 C237 0.960 1_565 S
H299 C237 0.961 . S
H300 C239 0.980 . S
H301 C238 0.961 . S
H302 C238 0.960 . S
H303 C238 0.959 . S
H304 C241 0.930 . S
H305 C245 0.931 . S
H306 C246 0.959 . S
H307 C246 0.961 . S
H308 C246 0.959 . S
H309 C247 0.960 . S
H310 C247 0.960 . S
H311 C247 0.960 . S
H312 C283 0.980 . S
H313 C249 0.930 . S
H314 C253 0.930 1_565 S
H315 C254 0.961 . S
H316 C254 0.960 . S
H317 C254 0.958 . S
H318 C255 0.961 . S
H319 C255 0.960 . S
H320 C255 0.960 . S
H321 C257 0.980 . S
H322 C256 0.961 . S
H323 C256 0.961 . S
H324 C256 0.959 . S
H325 C259 0.932 . S
H326 C263 0.929 . S
H327 C264 0.961 . S
H328 C264 0.959 . S
H329 C264 0.959 . S
H330 C265 0.960 . S
H331 C265 0.962 . S
H332 C265 0.961 . S
H333 C267 0.929 . S
H334 C270 0.930 . S
H335 C271 0.929 . S
H336 C274 0.930 . S
H337 C277 0.929 . S
H338 C278 0.930 . S
H339 C282 0.962 . S
H340 C282 0.959 . S
H341 C282 0.958 . S
C342 C343 1.560 . S
C342 H403 0.959 . S
C342 H404 0.959 1_545 S
C342 H405 0.960 1_545 S
C343 C342 1.560 . S
C343 O398 1.426 . S
C343 H402 0.980 . S
C344 C345 1.407 . S
C344 C349 1.418 . S
C344 O398 1.334 . S
C345 C344 1.407 . S
C345 C346 1.360 . S
C345 H406 0.929 . S
C346 C345 1.360 . S
C346 C347 1.401 . S
C346 C350 1.527 . S
C347 C346 1.401 . S
C347 C348 1.405 . S
C347 C380 1.587 . S
C348 C347 1.405 . S
C348 C349 1.332 . S
C348 C351 1.496 . S
C349 C344 1.418 . S
C349 C348 1.332 . S
C349 H407 0.929 . S
C350 C346 1.527 . S
C350 H408 0.959 . S
C350 H409 0.961 . S
C350 H410 0.961 . S
C351 C348 1.496 . S
C351 H411 0.960 . S
C351 H412 0.960 . S
C351 H413 0.961 . S
C352 C353 1.517 . S
C352 H415 0.961 . S
C352 H416 0.960 . S
C352 H417 0.959 . S
C353 C352 1.517 . S
C353 O401 1.468 . S
C353 H414 0.980 . S
C354 C355 1.349 . S
C354 C359 1.367 . S
C354 O401 1.408 . S
C355 C354 1.349 . S
C355 C356 1.407 . S
C355 H418 0.930 . S
C356 C355 1.407 . S
C356 C357 1.449 . S
C356 C360 1.535 . S
C357 C356 1.449 . S
C357 C358 1.384 . S
C357 C382 1.553 . S
C358 C357 1.384 . S
C358 C359 1.364 . S
C358 C361 1.450 . S
C359 C354 1.367 . S
C359 C358 1.364 . S
C359 H419 0.931 . S
C360 C356 1.535 . S
C360 H420 0.959 . S
C360 H421 0.961 . S
C360 H422 0.959 . S
C361 C358 1.450 . S
C361 H423 0.960 . S
C361 H424 0.960 . S
C361 H425 0.960 . S
C362 C363 1.309 . S
C362 C367 1.304 . S
C362 O400 1.435 . S
C363 C362 1.309 . S
C363 C364 1.476 . S
C363 H427 0.930 . S
C364 C363 1.476 . S
C364 C365 1.400 . S
C364 C368 1.567 . S
C365 C364 1.400 . S
C365 C366 1.373 . S
C365 C387 1.432 . S
C366 C365 1.373 . S
C366 C367 1.339 . S
C366 C369 1.530 . S
C367 C362 1.304 . S
C367 C366 1.339 . S
C367 H428 0.930 . S
C368 C364 1.567 . S
C368 H429 0.961 . S
C368 H430 0.960 . S
C368 H431 0.958 . S
C369 C366 1.530 . S
C369 H432 0.961 . S
C369 H433 0.960 . S
C369 H434 0.960 . S
C370 C371 1.530 1_565 S
C370 H436 0.961 . S
C370 H437 0.961 . S
C370 H438 0.959 1_565 S
C371 C370 1.530 1_545 S
C371 O399 1.412 . S
C371 H435 0.980 . S
C372 C373 1.288 . S
C372 C377 1.377 . S
C372 O399 1.393 . S
C373 C372 1.288 . S
C373 C374 1.369 . S
C373 H439 0.932 . S
C374 C373 1.369 . S
C374 C375 1.398 . S
C374 C378 1.527 . S
C375 C374 1.398 . S
C375 C376 1.380 . S
C375 C389 1.497 . S
C376 C375 1.380 . S
C376 C377 1.383 . S
C376 C379 1.603 . S
C377 C372 1.377 . S
C377 C376 1.383 . S
C377 H440 0.929 . S
C378 C374 1.527 . S
C378 H441 0.961 . S
C378 H442 0.959 . S
C378 H443 0.959 . S
C379 C376 1.603 . S
C379 H444 0.960 . S
C379 H445 0.962 . S
C379 H446 0.961 . S
C380 C347 1.587 . S
C380 C381 1.360 . S
C380 C393 1.412 . S
C381 C380 1.360 . S
C381 C382 1.365 . S
C381 H447 0.929 . S
C382 C357 1.553 . S
C382 C381 1.365 . S
C382 C383 1.404 . S
C383 C382 1.404 . S
C383 C384 1.395 . S
C383 C394 1.451 . S
C384 C383 1.395 . S
C384 C385 1.322 . S
C384 H448 0.930 . S
C385 C384 1.322 . S
C385 C386 1.459 . S
C385 H449 0.929 . S
C386 C385 1.459 . S
C386 C387 1.445 . S
C386 C395 1.395 . S
C387 C365 1.432 . S
C387 C386 1.445 . S
C387 C388 1.370 . S
C388 C387 1.370 . S
C388 C389 1.438 . S
C388 H450 0.930 . S
C389 C375 1.497 . S
C389 C388 1.438 . S
C389 C390 1.360 . S
C390 C389 1.360 . S
C390 C391 1.401 . S
C390 C395 1.446 . S
C391 C390 1.401 . S
C391 C392 1.347 . S
C391 H451 0.929 . S
C392 C391 1.347 . S
C392 C393 1.455 . S
C392 H452 0.930 . S
C393 C380 1.412 . S
C393 C392 1.455 . S
C393 C394 1.331 . S
C394 C383 1.451 . S
C394 C393 1.331 . S
C394 C395 1.497 . S
C395 C386 1.395 . S
C395 C390 1.446 . S
C395 C394 1.497 . S
C396 C397 1.582 . S
C396 H453 0.962 . S
C396 H454 0.959 . S
C396 H455 0.958 . S
C397 C396 1.582 . S
C397 O400 1.458 . S
C397 H426 0.980 . S
O398 C343 1.426 . S
O398 C344 1.334 . S
O399 C371 1.412 . S
O399 C372 1.393 . S
O400 C362 1.435 . S
O400 C397 1.458 . S
O401 C353 1.468 . S
O401 C354 1.408 . S
H402 C343 0.980 . S
H403 C342 0.959 . S
H404 C342 0.959 1_565 S
H405 C342 0.960 1_565 S
H406 C345 0.929 . S
H407 C349 0.929 . S
H408 C350 0.959 . S
H409 C350 0.961 . S
H410 C350 0.961 . S
H411 C351 0.960 . S
H412 C351 0.960 . S
H413 C351 0.961 . S
H414 C353 0.980 . S
H415 C352 0.961 . S
H416 C352 0.960 . S
H417 C352 0.959 . S
H418 C355 0.930 . S
H419 C359 0.931 . S
H420 C360 0.959 . S
H421 C360 0.961 . S
H422 C360 0.959 . S
H423 C361 0.960 . S
H424 C361 0.960 . S
H425 C361 0.960 . S
H426 C397 0.980 . S
H427 C363 0.930 . S
H428 C367 0.930 . S
H429 C368 0.961 . S
H430 C368 0.960 . S
H431 C368 0.958 . S
H432 C369 0.961 . S
H433 C369 0.960 . S
H434 C369 0.960 . S
H435 C371 0.980 . S
H436 C370 0.961 . S
H437 C370 0.961 . S
H438 C370 0.959 1_545 S
H439 C373 0.932 . S
H440 C377 0.929 . S
H441 C378 0.961 . S
H442 C378 0.959 . S
H443 C378 0.959 . S
H444 C379 0.960 . S
H445 C379 0.962 . S
H446 C379 0.961 . S
H447 C381 0.929 . S
H448 C384 0.930 . S
H449 C385 0.929 . S
H450 C388 0.930 . S
H451 C391 0.929 . S
H452 C392 0.930 . S
H453 C396 0.962 . S
H454 C396 0.959 . S
H455 C396 0.958 . S
C456 C457 1.560 . S
C456 H517 0.959 . S
C456 H518 0.959 . S
C456 H519 0.960 . S
C457 C456 1.560 . S
C457 O512 1.426 . S
C457 H516 0.980 . S
C458 C459 1.407 . S
C458 C463 1.418 . S
C458 O512 1.334 . S
C459 C458 1.407 . S
C459 C460 1.360 . S
C459 H520 0.929 . S
C460 C459 1.360 . S
C460 C461 1.401 . S
C460 C464 1.527 . S
C461 C460 1.401 . S
C461 C462 1.405 . S
C461 C494 1.587 . S
C462 C461 1.405 . S
C462 C463 1.332 . S
C462 C465 1.496 . S
C463 C458 1.418 . S
C463 C462 1.332 . S
C463 H521 0.929 . S
C464 C460 1.527 . S
C464 H522 0.959 . S
C464 H523 0.961 . S
C464 H524 0.961 . S
C465 C462 1.496 . S
C465 H525 0.960 . S
C465 H526 0.960 . S
C465 H527 0.961 . S
C466 C467 1.517 1_565 S
C466 H529 0.961 . S
C466 H530 0.960 . S
C466 H531 0.959 . S
C467 C466 1.517 1_545 S
C467 O515 1.468 . S
C467 H528 0.980 . S
C468 C469 1.349 . S
C468 C473 1.367 . S
C468 O515 1.408 . S
C469 C468 1.349 . S
C469 C470 1.407 . S
C469 H532 0.930 . S
C470 C469 1.407 . S
C470 C471 1.449 . S
C470 C474 1.535 . S
C471 C470 1.449 . S
C471 C472 1.384 . S
C471 C496 1.553 . S
C472 C471 1.384 . S
C472 C473 1.364 . S
C472 C475 1.450 . S
C473 C468 1.367 . S
C473 C472 1.364 . S
C473 H533 0.931 . S
C474 C470 1.535 . S
C474 H534 0.959 . S
C474 H535 0.961 . S
C474 H536 0.959 . S
C475 C472 1.450 . S
C475 H537 0.960 . S
C475 H538 0.960 . S
C475 H539 0.960 . S
C476 C477 1.309 . S
C476 C481 1.304 . S
C476 O514 1.435 . S
C477 C476 1.309 . S
C477 C478 1.476 . S
C477 H541 0.930 . S
C478 C477 1.476 . S
C478 C479 1.400 . S
C478 C482 1.567 . S
C479 C478 1.400 . S
C479 C480 1.373 . S
C479 C501 1.432 . S
C480 C479 1.373 . S
C480 C481 1.339 . S
C480 C483 1.530 . S
C481 C476 1.304 . S
C481 C480 1.339 . S
C481 H542 0.930 . S
C482 C478 1.567 . S
C482 H543 0.961 . S
C482 H544 0.960 . S
C482 H545 0.958 . S
C483 C480 1.530 . S
C483 H546 0.961 . S
C483 H547 0.960 . S
C483 H548 0.960 . S
C484 C485 1.530 . S
C484 H550 0.961 . S
C484 H551 0.961 . S
C484 H552 0.959 . S
C485 C484 1.530 . S
C485 O513 1.412 . S
C485 H549 0.980 . S
C486 C487 1.288 . S
C486 C491 1.377 . S
C486 O513 1.393 . S
C487 C486 1.288 . S
C487 C488 1.369 . S
C487 H553 0.932 . S
C488 C487 1.369 . S
C488 C489 1.398 . S
C488 C492 1.527 . S
C489 C488 1.398 . S
C489 C490 1.380 . S
C489 C503 1.497 . S
C490 C489 1.380 . S
C490 C491 1.383 . S
C490 C493 1.603 . S
C491 C486 1.377 . S
C491 C490 1.383 . S
C491 H554 0.929 . S
C492 C488 1.527 . S
C492 H555 0.961 . S
C492 H556 0.959 . S
C492 H557 0.959 . S
C493 C490 1.603 . S
C493 H558 0.960 . S
C493 H559 0.962 . S
C493 H560 0.961 . S
C494 C461 1.587 . S
C494 C495 1.360 . S
C494 C507 1.412 . S
C495 C494 1.360 . S
C495 C496 1.365 . S
C495 H561 0.929 . S
C496 C471 1.553 . S
C496 C495 1.365 . S
C496 C497 1.404 . S
C497 C496 1.404 . S
C497 C498 1.395 . S
C497 C508 1.451 . S
C498 C497 1.395 . S
C498 C499 1.322 . S
C498 H562 0.930 . S
C499 C498 1.322 . S
C499 C500 1.459 . S
C499 H563 0.929 . S
C500 C499 1.459 . S
C500 C501 1.445 . S
C500 C509 1.395 . S
C501 C479 1.432 . S
C501 C500 1.445 . S
C501 C502 1.370 . S
C502 C501 1.370 . S
C502 C503 1.438 . S
C502 H564 0.930 . S
C503 C489 1.497 . S
C503 C502 1.438 . S
C503 C504 1.360 . S
C504 C503 1.360 . S
C504 C505 1.401 . S
C504 C509 1.446 . S
C505 C504 1.401 . S
C505 C506 1.347 . S
C505 H565 0.929 . S
C506 C505 1.347 . S
C506 C507 1.455 . S
C506 H566 0.930 . S
C507 C494 1.412 . S
C507 C506 1.455 . S
C507 C508 1.331 . S
C508 C497 1.451 . S
C508 C507 1.331 . S
C508 C509 1.497 . S
C509 C500 1.395 . S
C509 C504 1.446 . S
C509 C508 1.497 . S
C510 C511 1.582 1_565 S
C510 H567 0.962 . S
C510 H568 0.959 . S
C510 H569 0.958 . S
C511 C510 1.582 1_545 S
C511 O514 1.458 . S
C511 H540 0.975 1_545 S
O512 C457 1.426 . S
O512 C458 1.334 . S
O513 C485 1.412 . S
O513 C486 1.393 . S
O514 C476 1.435 . S
O514 C511 1.458 . S
O515 C467 1.468 . S
O515 C468 1.408 . S
H516 C457 0.980 . S
H517 C456 0.959 . S
H518 C456 0.959 . S
H519 C456 0.960 . S
H520 C459 0.929 . S
H521 C463 0.929 . S
H522 C464 0.959 . S
H523 C464 0.961 . S
H524 C464 0.961 . S
H525 C465 0.960 . S
H526 C465 0.960 . S
H527 C465 0.961 . S
H528 C467 0.980 . S
H529 C466 0.961 . S
H530 C466 0.960 . S
H531 C466 0.959 . S
H532 C469 0.930 . S
H533 C473 0.931 . S
H534 C474 0.959 . S
H535 C474 0.961 . S
H536 C474 0.959 . S
H537 C475 0.960 . S
H538 C475 0.960 . S
H539 C475 0.960 . S
H540 C511 0.975 1_565 S
H541 C477 0.930 . S
H542 C481 0.930 . S
H543 C482 0.961 . S
H544 C482 0.960 . S
H545 C482 0.958 . S
H546 C483 0.961 . S
H547 C483 0.960 . S
H548 C483 0.960 . S
H549 C485 0.980 . S
H550 C484 0.961 . S
H551 C484 0.961 . S
H552 C484 0.959 . S
H553 C487 0.932 . S
H554 C491 0.929 . S
H555 C492 0.961 . S
H556 C492 0.959 . S
H557 C492 0.959 . S
H558 C493 0.960 . S
H559 C493 0.962 . S
H560 C493 0.961 . S
H561 C495 0.929 . S
H562 C498 0.930 . S
H563 C499 0.929 . S
H564 C502 0.930 . S
H565 C505 0.929 . S
H566 C506 0.930 . S
H567 C510 0.962 . S
H568 C510 0.959 . S
H569 C510 0.958 . S
C570 C571 1.560 . S
C570 H631 0.959 . S
C570 H632 0.959 . S
C570 H633 0.960 . S
C571 C570 1.560 . S
C571 O626 1.426 . S
C571 H630 0.980 . S
C572 C573 1.407 . S
C572 C577 1.418 . S
C572 O626 1.334 . S
C573 C572 1.407 . S
C573 C574 1.360 . S
C573 H634 0.929 . S
C574 C573 1.360 . S
C574 C575 1.401 . S
C574 C578 1.527 . S
C575 C574 1.401 . S
C575 C576 1.405 . S
C575 C608 1.587 . S
C576 C575 1.405 . S
C576 C577 1.332 . S
C576 C579 1.496 . S
C577 C572 1.418 . S
C577 C576 1.332 . S
C577 H635 0.929 . S
C578 C574 1.527 . S
C578 H636 0.959 . S
C578 H637 0.961 . S
C578 H638 0.961 . S
C579 C576 1.496 . S
C579 H639 0.960 . S
C579 H640 0.960 . S
C579 H641 0.961 . S
C580 C581 1.517 1_545 S
C580 H643 0.961 . S
C580 H644 0.960 . S
C580 H645 0.959 . S
C581 C580 1.517 1_565 S
C581 O629 1.468 . S
C581 H642 0.980 . S
C582 C583 1.349 . S
C582 C587 1.367 . S
C582 O629 1.408 . S
C583 C582 1.349 . S
C583 C584 1.407 . S
C583 H646 0.930 . S
C584 C583 1.407 . S
C584 C585 1.449 . S
C584 C588 1.535 . S
C585 C584 1.449 . S
C585 C586 1.384 . S
C585 C610 1.553 . S
C586 C585 1.384 . S
C586 C587 1.364 . S
C586 C589 1.450 . S
C587 C582 1.367 . S
C587 C586 1.364 . S
C587 H647 0.931 . S
C588 C584 1.535 . S
C588 H648 0.959 . S
C588 H649 0.961 . S
C588 H650 0.959 . S
C589 C586 1.450 . S
C589 H651 0.960 . S
C589 H652 0.960 . S
C589 H653 0.960 . S
C590 C591 1.309 . S
C590 C595 1.304 . S
C590 O628 1.435 . S
C591 C590 1.309 . S
C591 C592 1.476 . S
C591 H655 0.930 . S
C592 C591 1.476 . S
C592 C593 1.400 . S
C592 C596 1.567 . S
C593 C592 1.400 . S
C593 C594 1.373 . S
C593 C615 1.432 . S
C594 C593 1.373 . S
C594 C595 1.339 . S
C594 C597 1.530 . S
C595 C590 1.304 . S
C595 C594 1.339 . S
C595 H656 0.930 . S
C596 C592 1.567 . S
C596 H657 0.961 . S
C596 H658 0.960 . S
C596 H659 0.958 . S
C597 C594 1.530 . S
C597 H660 0.961 . S
C597 H661 0.960 . S
C597 H662 0.960 . S
C598 C599 1.530 . S
C598 H664 0.961 . S
C598 H665 0.961 . S
C598 H666 0.959 . S
C599 C598 1.530 . S
C599 O627 1.412 . S
C599 H663 0.980 . S
C600 C601 1.288 . S
C600 C605 1.377 . S
C600 O627 1.393 . S
C601 C600 1.288 . S
C601 C602 1.369 . S
C601 H667 0.932 . S
C602 C601 1.369 . S
C602 C603 1.398 . S
C602 C606 1.527 . S
C603 C602 1.398 . S
C603 C604 1.380 . S
C603 C617 1.497 . S
C604 C603 1.380 . S
C604 C605 1.383 . S
C604 C607 1.603 . S
C605 C600 1.377 . S
C605 C604 1.383 . S
C605 H668 0.929 . S
C606 C602 1.527 . S
C606 H669 0.961 . S
C606 H670 0.959 . S
C606 H671 0.959 . S
C607 C604 1.603 . S
C607 H672 0.960 . S
C607 H673 0.962 . S
C607 H674 0.961 . S
C608 C575 1.587 . S
C608 C609 1.360 . S
C608 C621 1.412 . S
C609 C608 1.360 . S
C609 C610 1.365 . S
C609 H675 0.929 . S
C610 C585 1.553 . S
C610 C609 1.365 . S
C610 C611 1.404 . S
C611 C610 1.404 . S
C611 C612 1.395 . S
C611 C622 1.451 . S
C612 C611 1.395 . S
C612 C613 1.322 . S
C612 H676 0.930 . S
C613 C612 1.322 . S
C613 C614 1.459 . S
C613 H677 0.929 . S
C614 C613 1.459 . S
C614 C615 1.445 . S
C614 C623 1.395 . S
C615 C593 1.432 . S
C615 C614 1.445 . S
C615 C616 1.370 . S
C616 C615 1.370 . S
C616 C617 1.438 . S
C616 H678 0.930 . S
C617 C603 1.497 . S
C617 C616 1.438 . S
C617 C618 1.360 . S
C618 C617 1.360 . S
C618 C619 1.401 . S
C618 C623 1.446 . S
C619 C618 1.401 . S
C619 C620 1.347 . S
C619 H679 0.929 . S
C620 C619 1.347 . S
C620 C621 1.455 . S
C620 H680 0.930 . S
C621 C608 1.412 . S
C621 C620 1.455 . S
C621 C622 1.331 . S
C622 C611 1.451 . S
C622 C621 1.331 . S
C622 C623 1.497 . S
C623 C614 1.395 . S
C623 C618 1.446 . S
C623 C622 1.497 . S
C624 C625 1.582 . S
C624 H681 0.962 . S
C624 H682 0.959 . S
C624 H683 0.958 . S
C625 C624 1.582 . S
C625 O628 1.458 1_545 S
C625 H654 0.980 . S
O626 C571 1.426 . S
O626 C572 1.334 . S
O627 C599 1.412 . S
O627 C600 1.393 . S
O628 C590 1.435 . S
O628 C625 1.458 1_565 S
O629 C581 1.468 . S
O629 C582 1.408 . S
H630 C571 0.980 . S
H631 C570 0.959 . S
H632 C570 0.959 . S
H633 C570 0.960 . S
H634 C573 0.929 . S
H635 C577 0.929 . S
H636 C578 0.959 . S
H637 C578 0.961 . S
H638 C578 0.961 . S
H639 C579 0.960 . S
H640 C579 0.960 . S
H641 C579 0.961 . S
H642 C581 0.980 . S
H643 C580 0.961 . S
H644 C580 0.960 . S
H645 C580 0.959 . S
H646 C583 0.930 . S
H647 C587 0.931 . S
H648 C588 0.959 . S
H649 C588 0.961 . S
H650 C588 0.959 . S
H651 C589 0.960 . S
H652 C589 0.960 . S
H653 C589 0.960 . S
H654 C625 0.980 . S
H655 C591 0.930 . S
H656 C595 0.930 . S
H657 C596 0.961 . S
H658 C596 0.960 . S
H659 C596 0.958 . S
H660 C597 0.961 . S
H661 C597 0.960 . S
H662 C597 0.960 . S
H663 C599 0.980 . S
H664 C598 0.961 . S
H665 C598 0.961 . S
H666 C598 0.959 . S
H667 C601 0.932 . S
H668 C605 0.929 . S
H669 C606 0.961 . S
H670 C606 0.959 . S
H671 C606 0.959 . S
H672 C607 0.960 . S
H673 C607 0.962 . S
H674 C607 0.961 . S
H675 C609 0.929 . S
H676 C612 0.930 . S
H677 C613 0.929 . S
H678 C616 0.930 . S
H679 C619 0.929 . S
H680 C620 0.930 . S
H681 C624 0.962 . S
H682 C624 0.959 . S
H683 C624 0.958 . S
C684 C685 1.560 . S
C684 H745 0.959 . S
C684 H746 0.959 . S
C684 H747 0.960 . S
C685 C684 1.560 . S
C685 O740 1.426 . S
C685 H744 0.980 . S
C686 C687 1.407 . S
C686 C691 1.418 . S
C686 O740 1.334 . S
C687 C686 1.407 . S
C687 C688 1.360 . S
C687 H748 0.929 . S
C688 C687 1.360 . S
C688 C689 1.401 . S
C688 C692 1.527 . S
C689 C688 1.401 . S
C689 C690 1.405 . S
C689 C722 1.587 . S
C690 C689 1.405 . S
C690 C691 1.332 . S
C690 C693 1.496 . S
C691 C686 1.418 . S
C691 C690 1.332 . S
C691 H749 0.929 . S
C692 C688 1.527 . S
C692 H750 0.959 . S
C692 H751 0.961 . S
C692 H752 0.961 . S
C693 C690 1.496 . S
C693 H753 0.960 . S
C693 H754 0.960 . S
C693 H755 0.961 . S
C694 C695 1.517 . S
C694 H757 0.961 . S
C694 H758 0.960 . S
C694 H759 0.959 . S
C695 C694 1.517 . S
C695 O743 1.468 . S
C695 H756 0.980 . S
C696 C697 1.349 . S
C696 C701 1.367 . S
C696 O743 1.408 . S
C697 C696 1.349 . S
C697 C698 1.407 . S
C697 H760 0.930 . S
C698 C697 1.407 . S
C698 C699 1.449 . S
C698 C702 1.535 . S
C699 C698 1.449 . S
C699 C700 1.384 . S
C699 C724 1.553 . S
C700 C699 1.384 . S
C700 C701 1.364 . S
C700 C703 1.450 . S
C701 C696 1.367 . S
C701 C700 1.364 . S
C701 H761 0.931 . S
C702 C698 1.535 . S
C702 H762 0.959 . S
C702 H763 0.961 . S
C702 H764 0.959 . S
C703 C700 1.450 . S
C703 H765 0.960 . S
C703 H766 0.960 . S
C703 H767 0.960 . S
C704 C705 1.309 . S
C704 C709 1.304 . S
C704 O742 1.435 . S
C705 C704 1.309 . S
C705 C706 1.476 . S
C705 H769 0.930 . S
C706 C705 1.476 . S
C706 C707 1.400 . S
C706 C710 1.567 . S
C707 C706 1.400 . S
C707 C708 1.373 . S
C707 C729 1.432 . S
C708 C707 1.373 . S
C708 C709 1.339 . S
C708 C711 1.530 . S
C709 C704 1.304 . S
C709 C708 1.339 . S
C709 H770 0.930 . S
C710 C706 1.567 . S
C710 H771 0.961 . S
C710 H772 0.960 . S
C710 H773 0.958 . S
C711 C708 1.530 . S
C711 H774 0.961 . S
C711 H775 0.931 1_556 S
C711 H776 0.960 . S
C712 C713 1.530 . S
C712 H778 0.961 . S
C712 H779 0.961 . S
C712 H780 0.959 . S
C713 C712 1.530 . S
C713 O741 1.412 . S
C713 H777 0.980 . S
C714 C715 1.288 . S
C714 C719 1.377 . S
C714 O741 1.393 . S
C715 C714 1.288 . S
C715 C716 1.369 . S
C715 H781 0.932 . S
C716 C715 1.369 . S
C716 C717 1.398 . S
C716 C720 1.527 . S
C717 C716 1.398 . S
C717 C718 1.380 . S
C717 C731 1.497 . S
C718 C717 1.380 . S
C718 C719 1.383 . S
C718 C721 1.603 . S
C719 C714 1.377 . S
C719 C718 1.383 . S
C719 H782 0.929 . S
C720 C716 1.527 . S
C720 H783 0.961 . S
C720 H784 0.959 . S
C720 H785 0.959 . S
C721 C718 1.603 . S
C721 H786 0.960 . S
C721 H787 0.962 . S
C721 H788 0.961 . S
C722 C689 1.587 . S
C722 C723 1.360 . S
C722 C735 1.412 . S
C723 C722 1.360 . S
C723 C724 1.365 . S
C723 H789 0.929 . S
C724 C699 1.553 . S
C724 C723 1.365 . S
C724 C725 1.404 . S
C725 C724 1.404 . S
C725 C726 1.395 . S
C725 C736 1.451 . S
C726 C725 1.395 . S
C726 C727 1.322 . S
C726 H790 0.930 . S
C727 C726 1.322 . S
C727 C728 1.459 1_554 S
C727 H791 0.929 . S
C728 C727 1.459 1_556 S
C728 C729 1.445 . S
C728 C737 1.395 1_556 S
C729 C707 1.432 . S
C729 C728 1.445 . S
C729 C730 1.370 . S
C730 C729 1.370 . S
C730 C731 1.438 . S
C730 H792 0.930 . S
C731 C717 1.497 . S
C731 C730 1.438 . S
C731 C732 1.360 . S
C732 C731 1.360 . S
C732 C733 1.401 1_556 S
C732 C737 1.446 1_556 S
C733 C732 1.401 1_554 S
C733 C734 1.347 . S
C733 H793 0.929 1_554 S
C734 C733 1.347 . S
C734 C735 1.455 . S
C734 H794 0.930 . S
C735 C722 1.412 . S
C735 C734 1.455 . S
C735 C736 1.331 . S
C736 C725 1.451 . S
C736 C735 1.331 . S
C736 C737 1.497 . S
C737 C728 1.395 1_554 S
C737 C732 1.446 1_554 S
C737 C736 1.497 . S
C738 C739 1.582 . S
C738 H795 0.962 . S
C738 H796 0.959 . S
C738 H797 0.958 . S
C739 C738 1.582 . S
C739 O742 1.458 . S
C739 H768 0.980 . S
O740 C685 1.426 . S
O740 C686 1.334 . S
O741 C713 1.412 . S
O741 C714 1.393 . S
O742 C704 1.435 . S
O742 C739 1.458 . S
O743 C695 1.468 . S
O743 C696 1.408 . S
H744 C685 0.980 . S
H745 C684 0.959 . S
H746 C684 0.959 . S
H747 C684 0.960 . S
H748 C687 0.929 . S
H749 C691 0.929 . S
H750 C692 0.959 . S
H751 C692 0.961 . S
H752 C692 0.961 . S
H753 C693 0.960 . S
H754 C693 0.960 . S
H755 C693 0.961 . S
H756 C695 0.980 . S
H757 C694 0.961 . S
H758 C694 0.960 . S
H759 C694 0.959 . S
H760 C697 0.930 . S
H761 C701 0.931 . S
H762 C702 0.959 . S
H763 C702 0.961 . S
H764 C702 0.959 . S
H765 C703 0.960 . S
H766 C703 0.960 . S
H767 C703 0.960 . S
H768 C739 0.980 . S
H769 C705 0.930 . S
H770 C709 0.930 . S
H771 C710 0.961 . S
H772 C710 0.960 . S
H773 C710 0.958 . S
H774 C711 0.961 . S
H775 C711 0.931 1_554 S
H776 C711 0.960 . S
H777 C713 0.980 . S
H778 C712 0.961 . S
H779 C712 0.961 . S
H780 C712 0.959 . S
H781 C715 0.932 . S
H782 C719 0.929 . S
H783 C720 0.961 . S
H784 C720 0.959 . S
H785 C720 0.959 . S
H786 C721 0.960 . S
H787 C721 0.962 . S
H788 C721 0.961 . S
H789 C723 0.929 . S
H790 C726 0.930 . S
H791 C727 0.929 . S
H792 C730 0.930 . S
H793 C733 0.929 1_556 S
H794 C734 0.930 . S
H795 C738 0.962 . S
H796 C738 0.959 . S
H797 C738 0.958 . S
C798 C799 1.560 . S
C798 H859 0.959 . S
C798 H860 0.959 . S
C798 H861 0.960 . S
C799 C798 1.560 . S
C799 O854 1.426 . S
C799 H858 0.980 . S
C800 C801 1.407 . S
C800 C805 1.418 . S
C800 O854 1.334 . S
C801 C800 1.407 . S
C801 C802 1.360 . S
C801 H862 0.929 . S
C802 C801 1.360 . S
C802 C803 1.401 . S
C802 C806 1.527 . S
C803 C802 1.401 . S
C803 C804 1.405 . S
C803 C836 1.587 . S
C804 C803 1.405 . S
C804 C805 1.332 . S
C804 C807 1.496 . S
C805 C800 1.418 . S
C805 C804 1.332 . S
C805 H863 0.929 . S
C806 C802 1.527 . S
C806 H864 0.959 . S
C806 H865 0.961 . S
C806 H866 0.961 . S
C807 C804 1.496 . S
C807 H867 0.960 . S
C807 H868 0.960 . S
C807 H869 0.961 . S
C808 C809 1.517 . S
C808 H871 0.961 . S
C808 H872 0.960 . S
C808 H873 0.959 . S
C809 C808 1.517 . S
C809 O857 1.468 . S
C809 H870 0.980 . S
C810 C811 1.349 . S
C810 C815 1.367 . S
C810 O857 1.408 . S
C811 C810 1.349 . S
C811 C812 1.407 . S
C811 H874 0.930 . S
C812 C811 1.407 . S
C812 C813 1.449 . S
C812 C816 1.535 . S
C813 C812 1.449 . S
C813 C814 1.384 . S
C813 C838 1.553 . S
C814 C813 1.384 . S
C814 C815 1.364 . S
C814 C817 1.450 . S
C815 C810 1.367 . S
C815 C814 1.364 . S
C815 H875 0.931 . S
C816 C812 1.535 . S
C816 H876 0.959 . S
C816 H877 0.961 . S
C816 H878 0.959 . S
C817 C814 1.450 . S
C817 H879 0.960 . S
C817 H880 0.960 . S
C817 H881 0.960 . S
C818 C819 1.309 . S
C818 C823 1.304 . S
C818 O856 1.435 . S
C819 C818 1.309 . S
C819 C820 1.476 . S
C819 H883 0.930 . S
C820 C819 1.476 . S
C820 C821 1.400 . S
C820 C824 1.567 . S
C821 C820 1.400 . S
C821 C822 1.373 . S
C821 C843 1.432 . S
C822 C821 1.373 . S
C822 C823 1.339 . S
C822 C825 1.530 . S
C823 C818 1.304 . S
C823 C822 1.339 . S
C823 H884 0.930 . S
C824 C820 1.567 . S
C824 H885 0.961 . S
C824 H886 0.960 . S
C824 H887 0.958 . S
C825 C822 1.530 . S
C825 H888 0.961 . S
C825 H889 0.960 . S
C825 H890 0.960 . S
C826 C827 1.530 . S
C826 H892 0.961 . S
C826 H893 0.961 . S
C826 H894 0.959 . S
C827 C826 1.530 . S
C827 O855 1.412 . S
C827 H891 0.980 . S
C828 C829 1.288 . S
C828 C833 1.377 . S
C828 O855 1.393 . S
C829 C828 1.288 . S
C829 C830 1.369 . S
C829 H895 0.932 . S
C830 C829 1.369 . S
C830 C831 1.398 . S
C830 C834 1.527 . S
C831 C830 1.398 . S
C831 C832 1.380 . S
C831 C845 1.497 . S
C832 C831 1.380 . S
C832 C833 1.383 . S
C832 C835 1.603 . S
C833 C828 1.377 . S
C833 C832 1.383 . S
C833 H896 0.929 . S
C834 C830 1.527 . S
C834 H897 0.961 . S
C834 H898 0.959 . S
C834 H899 0.959 . S
C835 C832 1.603 . S
C835 H900 0.960 . S
C835 H901 0.962 . S
C835 H902 0.961 . S
C836 C803 1.587 . S
C836 C837 1.360 1_655 S
C836 C849 1.412 . S
C837 C836 1.360 1_455 S
C837 C838 1.365 . S
C837 H903 0.929 . S
C838 C813 1.553 . S
C838 C837 1.365 . S
C838 C839 1.404 . S
C839 C838 1.404 . S
C839 C840 1.395 . S
C839 C850 1.451 . S
C840 C839 1.395 . S
C840 C841 1.322 . S
C840 H904 0.930 . S
C841 C840 1.322 . S
C841 C842 1.459 . S
C841 H905 0.929 . S
C842 C841 1.459 . S
C842 C843 1.445 . S
C842 C851 1.395 . S
C843 C821 1.432 . S
C843 C842 1.445 . S
C843 C844 1.370 . S
C844 C843 1.370 . S
C844 C845 1.438 1_455 S
C844 H906 0.930 . S
C845 C831 1.497 . S
C845 C844 1.438 1_655 S
C845 C846 1.360 . S
C846 C845 1.360 . S
C846 C847 1.401 . S
C846 C851 1.446 1_655 S
C847 C846 1.401 . S
C847 C848 1.347 . S
C847 H907 0.929 . S
C848 C847 1.347 . S
C848 C849 1.455 . S
C848 H908 0.930 . S
C849 C836 1.412 . S
C849 C848 1.455 . S
C849 C850 1.331 1_655 S
C850 C839 1.451 . S
C850 C849 1.331 1_455 S
C850 C851 1.497 . S
C851 C842 1.395 . S
C851 C846 1.446 1_455 S
C851 C850 1.497 . S
C852 C853 1.582 . S
C852 H909 0.962 . S
C852 H910 0.959 . S
C852 H911 0.958 . S
C853 C852 1.582 . S
C853 O856 1.458 . S
C853 H882 0.980 . S
O854 C799 1.426 . S
O854 C800 1.334 . S
O855 C827 1.412 . S
O855 C828 1.393 . S
O856 C818 1.435 . S
O856 C853 1.458 . S
O857 C809 1.468 . S
O857 C810 1.408 . S
H858 C799 0.980 . S
H859 C798 0.959 . S
H860 C798 0.959 . S
H861 C798 0.960 . S
H862 C801 0.929 . S
H863 C805 0.929 . S
H864 C806 0.959 . S
H865 C806 0.961 . S
H866 C806 0.961 . S
H867 C807 0.960 . S
H868 C807 0.960 . S
H869 C807 0.961 . S
H870 C809 0.980 . S
H871 C808 0.961 . S
H872 C808 0.960 . S
H873 C808 0.959 . S
H874 C811 0.930 . S
H875 C815 0.931 . S
H876 C816 0.959 . S
H877 C816 0.961 . S
H878 C816 0.959 . S
H879 C817 0.960 . S
H880 C817 0.960 . S
H881 C817 0.960 . S
H882 C853 0.980 . S
H883 C819 0.930 . S
H884 C823 0.930 . S
H885 C824 0.961 . S
H886 C824 0.960 . S
H887 C824 0.958 . S
H888 C825 0.961 . S
H889 C825 0.960 . S
H890 C825 0.960 . S
H891 C827 0.980 . S
H892 C826 0.961 . S
H893 C826 0.961 . S
H894 C826 0.959 . S
H895 C829 0.932 . S
H896 C833 0.929 . S
H897 C834 0.961 . S
H898 C834 0.959 . S
H899 C834 0.959 . S
H900 C835 0.960 . S
H901 C835 0.962 . S
H902 C835 0.961 . S
H903 C837 0.929 . S
H904 C840 0.930 . S
H905 C841 0.929 . S
H906 C844 0.930 . S
H907 C847 0.929 . S
H908 C848 0.930 . S
H909 C852 0.962 . S
H910 C852 0.959 . S
H911 C852 0.958 . S
Fe912 O913 1.886 . S
Fe912 O916 1.715 1_455 S
Fe912 O921 2.077 . S
Fe912 O926 1.935 1_455 S
Fe912 O932 2.077 . S
Fe912 O941 1.935 1_455 S
O913 Fe912 1.886 . S
O913 Fe915 1.715 . S
Fe914 O916 1.886 . S
Fe914 O917 1.715 . S
Fe914 O924 1.935 . S
Fe914 O925 2.077 . S
Fe914 O931 1.935 . S
Fe914 O940 2.077 . S
Fe915 O913 1.715 . S
Fe915 O918 1.886 . S
Fe915 O922 1.935 . S
Fe915 O927 2.077 . S
Fe915 O933 1.935 . S
Fe915 O937 2.077 . S
O916 Fe912 1.715 1_655 S
O916 Fe914 1.886 . S
O917 Fe914 1.715 . S
O917 Fe919 1.886 1_655 S
O918 Fe915 1.886 . S
O918 Fe919 1.715 . S
Fe919 O917 1.886 1_455 S
Fe919 O918 1.715 . S
Fe919 O923 2.077 1_455 S
Fe919 O928 1.935 . S
Fe919 O930 2.077 1_455 S
Fe919 O938 1.935 . S
C920 O932 1.381 . S
C920 O933 1.421 . S
O921 Fe912 2.077 . S
O921 C934 1.381 . S
O922 Fe915 1.935 . S
O922 C934 1.421 . S
O923 Fe919 2.077 1_655 S
O923 C939 1.381 . S
O924 Fe914 1.935 . S
O924 C939 1.421 . S
O925 Fe914 2.077 . S
O925 C929 1.381 . S
O926 Fe912 1.935 1_655 S
O926 C929 1.421 . S
O927 Fe915 2.077 . S
O927 C935 1.381 . S
O928 Fe919 1.935 . S
O928 C935 1.421 . S
C929 O925 1.381 . S
C929 O926 1.421 . S
O930 Fe919 2.077 1_655 S
O930 C942 1.381 . S
O931 Fe914 1.935 . S
O931 C942 1.421 . S
O932 Fe912 2.077 . S
O932 C920 1.381 . S
O933 Fe915 1.935 . S
O933 C920 1.421 . S
C934 O921 1.381 . S
C934 O922 1.421 . S
C935 O927 1.381 . S
C935 O928 1.421 . S
C936 O937 1.381 . S
C936 O938 1.421 . S
O937 Fe915 2.077 . S
O937 C936 1.381 . S
O938 Fe919 1.935 . S
O938 C936 1.421 . S
C939 O923 1.381 . S
C939 O924 1.421 . S
O940 Fe914 2.077 . S
O940 C943 1.381 . S
O941 Fe912 1.935 1_655 S
O941 C943 1.421 . S
C942 O930 1.381 . S
C942 O931 1.421 . S
C943 O940 1.381 . S
C943 O941 1.421 . S
Fe944 O945 1.886 . S
Fe944 O948 1.715 . S
Fe944 O953 2.077 . S
Fe944 O958 1.935 . S
Fe944 O964 2.077 . S
Fe944 O973 1.935 . S
O945 Fe944 1.886 . S
O945 Fe947 1.715 . S
Fe946 O948 1.886 . S
Fe946 O949 1.715 . S
Fe946 O956 1.935 . S
Fe946 O957 2.077 . S
Fe946 O963 1.935 . S
Fe946 O972 2.077 . S
Fe947 O945 1.715 . S
Fe947 O950 1.886 . S
Fe947 O954 1.935 . S
Fe947 O959 2.077 . S
Fe947 O965 1.935 . S
Fe947 O969 2.077 . S
O948 Fe944 1.715 . S
O948 Fe946 1.886 . S
O949 Fe946 1.715 . S
O949 Fe951 1.886 . S
O950 Fe947 1.886 . S
O950 Fe951 1.715 . S
Fe951 O949 1.886 . S
Fe951 O950 1.715 . S
Fe951 O955 2.077 . S
Fe951 O960 1.935 . S
Fe951 O962 2.077 . S
Fe951 O970 1.935 . S
C952 O964 1.381 . S
C952 O965 1.421 . S
O953 Fe944 2.077 . S
O953 C966 1.381 . S
O954 Fe947 1.935 . S
O954 C966 1.421 . S
O955 Fe951 2.077 . S
O955 C971 1.381 . S
O956 Fe946 1.935 . S
O956 C971 1.421 . S
O957 Fe946 2.077 . S
O957 C961 1.381 . S
O958 Fe944 1.935 . S
O958 C961 1.421 . S
O959 Fe947 2.077 . S
O959 C967 1.381 . S
O960 Fe951 1.935 . S
O960 C967 1.421 . S
C961 O957 1.381 . S
C961 O958 1.421 . S
O962 Fe951 2.077 . S
O962 C974 1.381 . S
O963 Fe946 1.935 . S
O963 C974 1.421 . S
O964 Fe944 2.077 . S
O964 C952 1.381 . S
O965 Fe947 1.935 . S
O965 C952 1.421 . S
C966 O953 1.381 . S
C966 O954 1.421 . S
C967 O959 1.381 . S
C967 O960 1.421 . S
C968 O969 1.381 . S
C968 O970 1.421 . S
O969 Fe947 2.077 . S
O969 C968 1.381 . S
O970 Fe951 1.935 . S
O970 C968 1.421 . S
C971 O955 1.381 . S
C971 O956 1.421 . S
O972 Fe946 2.077 . S
O972 C975 1.381 . S
O973 Fe944 1.935 . S
O973 C975 1.421 . S
C974 O962 1.381 . S
C974 O963 1.421 . S
C975 O972 1.381 . S
C975 O973 1.421 . S
Fe976 O977 1.886 . S
Fe976 O980 1.715 . S
Fe976 O985 2.077 . S
Fe976 O990 1.935 . S
Fe976 O996 2.077 . S
Fe976 O1005 1.935 . S
O977 Fe976 1.886 . S
O977 Fe979 1.715 . S
Fe978 O980 1.886 . S
Fe978 O981 1.715 . S
Fe978 O988 1.935 . S
Fe978 O989 2.077 . S
Fe978 O995 1.935 . S
Fe978 O1004 2.077 . S
Fe979 O977 1.715 . S
Fe979 O982 1.886 . S
Fe979 O986 1.935 . S
Fe979 O991 2.077 . S
Fe979 O997 1.935 . S
Fe979 O1001 2.077 . S
O980 Fe976 1.715 . S
O980 Fe978 1.886 . S
O981 Fe978 1.715 . S
O981 Fe983 1.886 . S
O982 Fe979 1.886 . S
O982 Fe983 1.715 . S
Fe983 O981 1.886 . S
Fe983 O982 1.715 . S
Fe983 O987 2.077 . S
Fe983 O992 1.935 . S
Fe983 O994 2.077 . S
Fe983 O1002 1.935 . S
C984 O996 1.381 . S
C984 O997 1.421 . S
O985 Fe976 2.077 . S
O985 C998 1.381 . S
O986 Fe979 1.935 . S
O986 C998 1.421 . S
O987 Fe983 2.077 . S
O987 C1003 1.381 . S
O988 Fe978 1.935 . S
O988 C1003 1.421 . S
O989 Fe978 2.077 . S
O989 C993 1.381 . S
O990 Fe976 1.935 . S
O990 C993 1.421 . S
O991 Fe979 2.077 . S
O991 C999 1.381 . S
O992 Fe983 1.935 . S
O992 C999 1.421 . S
C993 O989 1.381 . S
C993 O990 1.421 . S
O994 Fe983 2.077 . S
O994 C1006 1.381 . S
O995 Fe978 1.935 . S
O995 C1006 1.421 . S
O996 Fe976 2.077 . S
O996 C984 1.381 . S
O997 Fe979 1.935 . S
O997 C984 1.421 . S
C998 O985 1.381 . S
C998 O986 1.421 . S
C999 O991 1.381 . S
C999 O992 1.421 . S
C1000 O1001 1.381 . S
C1000 O1002 1.421 . S
O1001 Fe979 2.077 . S
O1001 C1000 1.381 . S
O1002 Fe983 1.935 . S
O1002 C1000 1.421 . S
C1003 O987 1.381 . S
C1003 O988 1.421 . S
O1004 Fe978 2.077 . S
O1004 C1007 1.381 . S
O1005 Fe976 1.935 . S
O1005 C1007 1.421 . S
C1006 O994 1.381 . S
C1006 O995 1.421 . S
C1007 O1004 1.381 . S
C1007 O1005 1.421 . S
Fe1008 O1009 1.886 . S
Fe1008 O1012 1.715 . S
Fe1008 O1017 2.077 1_455 S
Fe1008 O1022 1.935 1_455 S
Fe1008 O1028 2.077 . S
Fe1008 O1037 1.935 . S
O1009 Fe1008 1.886 . S
O1009 Fe1011 1.715 . S
Fe1010 O1012 1.886 . S
Fe1010 O1013 1.715 . S
Fe1010 O1020 1.935 1_455 S
Fe1010 O1021 2.077 1_455 S
Fe1010 O1027 1.935 . S
Fe1010 O1036 2.077 . S
Fe1011 O1009 1.715 . S
Fe1011 O1014 1.886 . S
Fe1011 O1018 1.935 1_455 S
Fe1011 O1023 2.077 1_455 S
Fe1011 O1029 1.935 . S
Fe1011 O1033 2.077 . S
O1012 Fe1008 1.715 . S
O1012 Fe1010 1.886 . S
O1013 Fe1010 1.715 . S
O1013 Fe1015 1.886 . S
O1014 Fe1011 1.886 . S
O1014 Fe1015 1.715 . S
Fe1015 O1013 1.886 . S
Fe1015 O1014 1.715 . S
Fe1015 O1019 2.077 1_455 S
Fe1015 O1024 1.935 1_455 S
Fe1015 O1026 2.077 . S
Fe1015 O1034 1.935 . S
C1016 O1028 1.381 . S
C1016 O1029 1.421 . S
O1017 Fe1008 2.077 1_655 S
O1017 C1030 1.381 . S
O1018 Fe1011 1.935 1_655 S
O1018 C1030 1.421 . S
O1019 Fe1015 2.077 1_655 S
O1019 C1035 1.381 . S
O1020 Fe1010 1.935 1_655 S
O1020 C1035 1.421 . S
O1021 Fe1010 2.077 1_655 S
O1021 C1025 1.381 . S
O1022 Fe1008 1.935 1_655 S
O1022 C1025 1.421 . S
O1023 Fe1011 2.077 1_655 S
O1023 C1031 1.381 . S
O1024 Fe1015 1.935 1_655 S
O1024 C1031 1.421 . S
C1025 O1021 1.381 . S
C1025 O1022 1.421 . S
O1026 Fe1015 2.077 . S
O1026 C1038 1.381 . S
O1027 Fe1010 1.935 . S
O1027 C1038 1.421 . S
O1028 Fe1008 2.077 . S
O1028 C1016 1.381 . S
O1029 Fe1011 1.935 . S
O1029 C1016 1.421 . S
C1030 O1017 1.381 . S
C1030 O1018 1.421 . S
C1031 O1023 1.381 . S
C1031 O1024 1.421 . S
C1032 O1033 1.381 . S
C1032 O1034 1.421 . S
O1033 Fe1011 2.077 . S
O1033 C1032 1.381 . S
O1034 Fe1015 1.935 . S
O1034 C1032 1.421 . S
C1035 O1019 1.381 . S
C1035 O1020 1.421 . S
O1036 Fe1010 2.077 . S
O1036 C1039 1.381 . S
O1037 Fe1008 1.935 . S
O1037 C1039 1.421 . S
C1038 O1026 1.381 . S
C1038 O1027 1.421 . S
C1039 O1036 1.381 . S
C1039 O1037 1.421 . S
H1040 C1046 0.930 . S
H1041 C1049 0.930 . S
H1042 C1050 0.930 . S
H1043 C1051 0.930 . S
H1044 C1054 0.930 . S
H1045 C1055 0.930 . S
C1046 H1040 0.930 . S
C1046 C1047 1.355 . S
C1046 C1048 1.415 . S
C1047 C1046 1.355 . S
C1047 C1049 1.419 . S
C1048 C1046 1.415 . S
C1048 C1053 1.425 . S
C1048 C1055 1.409 . S
C1049 H1041 0.930 . S
C1049 C1047 1.419 . S
C1049 C1050 1.362 . S
C1050 H1042 0.930 . S
C1050 C1049 1.362 . S
C1050 C1053 1.409 . S
C1051 H1043 0.930 . S
C1051 C1052 1.355 . S
C1051 C1053 1.415 . S
C1052 C1051 1.355 . S
C1052 C1054 1.419 . S
C1053 C1048 1.425 . S
C1053 C1050 1.409 . S
C1053 C1051 1.415 . S
C1054 H1044 0.930 . S
C1054 C1052 1.419 . S
C1054 C1055 1.362 . S
C1055 H1045 0.930 . S
C1055 C1048 1.409 . S
C1055 C1054 1.362 . S
H1056 C1062 0.930 1_565 S
H1057 C1065 0.930 . S
H1058 C1066 0.930 . S
H1059 C1067 0.930 . S
H1060 C1070 0.930 . S
H1061 C1071 0.930 . S
C1062 H1056 0.930 1_545 S
C1062 C1063 1.355 . S
C1062 C1064 1.415 . S
C1063 C1062 1.355 . S
C1063 C1065 1.419 . S
C1064 C1062 1.415 . S
C1064 C1069 1.425 . S
C1064 C1071 1.409 . S
C1065 H1057 0.930 . S
C1065 C1063 1.419 . S
C1065 C1066 1.362 . S
C1066 H1058 0.930 . S
C1066 C1065 1.362 . S
C1066 C1069 1.409 . S
C1067 H1059 0.930 . S
C1067 C1068 1.355 . S
C1067 C1069 1.415 . S
C1068 C1067 1.355 . S
C1068 C1070 1.419 . S
C1069 C1064 1.425 . S
C1069 C1066 1.409 . S
C1069 C1067 1.415 . S
C1070 H1060 0.930 . S
C1070 C1068 1.419 . S
C1070 C1071 1.362 . S
C1071 H1061 0.930 . S
C1071 C1064 1.409 . S
C1071 C1070 1.362 . S
H1072 C1078 0.930 . S
H1073 C1081 0.930 . S
H1074 C1082 0.930 . S
H1075 C1083 0.930 . S
H1076 C1086 0.930 . S
H1077 C1087 0.930 . S
C1078 H1072 0.930 . S
C1078 C1079 1.355 . S
C1078 C1080 1.415 . S
C1079 C1078 1.355 . S
C1079 C1081 1.419 . S
C1080 C1078 1.415 . S
C1080 C1085 1.425 . S
C1080 C1087 1.409 . S
C1081 H1073 0.930 . S
C1081 C1079 1.419 . S
C1081 C1082 1.362 . S
C1082 H1074 0.930 . S
C1082 C1081 1.362 . S
C1082 C1085 1.409 . S
C1083 H1075 0.930 . S
C1083 C1084 1.355 . S
C1083 C1085 1.415 . S
C1084 C1083 1.355 . S
C1084 C1086 1.419 . S
C1085 C1080 1.425 . S
C1085 C1082 1.409 . S
C1085 C1083 1.415 . S
C1086 H1076 0.930 . S
C1086 C1084 1.419 . S
C1086 C1087 1.362 . S
C1087 H1077 0.930 . S
C1087 C1080 1.409 . S
C1087 C1086 1.362 . S
H1088 C1094 0.930 . S
H1089 C1097 0.930 1_545 S
H1090 C1098 0.930 . S
H1091 C1099 0.930 . S
H1092 C1102 0.930 . S
H1093 C1103 0.930 . S
C1094 H1088 0.930 . S
C1094 C1095 1.364 . S
C1094 C1096 1.415 . S
C1095 C1094 1.364 . S
C1095 C1097 1.423 . S
C1096 C1094 1.415 . S
C1096 C1101 1.425 . S
C1096 C1103 1.409 . S
C1097 H1089 0.930 1_565 S
C1097 C1095 1.423 . S
C1097 C1098 1.362 . S
C1098 H1090 0.930 . S
C1098 C1097 1.362 . S
C1098 C1101 1.409 . S
C1099 H1091 0.930 . S
C1099 C1100 1.355 . S
C1099 C1101 1.415 . S
C1100 C1099 1.355 . S
C1100 C1102 1.419 . S
C1101 C1096 1.425 . S
C1101 C1098 1.409 . S
C1101 C1099 1.415 . S
C1102 H1092 0.930 . S
C1102 C1100 1.419 . S
C1102 C1103 1.362 . S
C1103 H1093 0.930 . S
C1103 C1096 1.409 . S
C1103 C1102 1.362 . S
H1104 C1110 0.930 . S
H1105 C1113 0.930 . S
H1106 C1114 0.930 . S
H1107 C1115 0.930 . S
H1108 C1118 0.930 . S
H1109 C1119 0.930 . S
C1110 H1104 0.930 . S
C1110 C1111 1.355 . S
C1110 C1112 1.415 . S
C1111 C1110 1.355 . S
C1111 C1113 1.419 . S
C1112 C1110 1.415 . S
C1112 C1117 1.425 . S
C1112 C1119 1.409 . S
C1113 H1105 0.930 . S
C1113 C1111 1.419 . S
C1113 C1114 1.362 . S
C1114 H1106 0.930 . S
C1114 C1113 1.362 . S
C1114 C1117 1.409 . S
C1115 H1107 0.930 . S
C1115 C1116 1.355 . S
C1115 C1117 1.415 . S
C1116 C1115 1.355 . S
C1116 C1118 1.419 . S
C1117 C1112 1.425 . S
C1117 C1114 1.409 . S
C1117 C1115 1.415 . S
C1118 H1108 0.930 . S
C1118 C1116 1.419 . S
C1118 C1119 1.362 . S
C1119 H1109 0.930 . S
C1119 C1112 1.409 . S
C1119 C1118 1.362 . S
H1120 C1126 0.930 1_565 S
H1121 C1129 0.930 . S
H1122 C1130 0.930 . S
H1123 C1131 0.930 . S
H1124 C1134 0.930 . S
H1125 C1135 0.930 . S
C1126 H1120 0.930 1_545 S
C1126 C1127 1.355 . S
C1126 C1128 1.415 . S
C1127 C1126 1.355 . S
C1127 C1129 1.419 . S
C1128 C1126 1.415 . S
C1128 C1133 1.425 . S
C1128 C1135 1.409 . S
C1129 H1121 0.930 . S
C1129 C1127 1.419 . S
C1129 C1130 1.362 . S
C1130 H1122 0.930 . S
C1130 C1129 1.362 . S
C1130 C1133 1.409 . S
C1131 H1123 0.930 . S
C1131 C1132 1.355 . S
C1131 C1133 1.415 . S
C1132 C1131 1.355 . S
C1132 C1134 1.419 . S
C1133 C1128 1.425 . S
C1133 C1130 1.409 . S
C1133 C1131 1.415 . S
C1134 H1124 0.930 . S
C1134 C1132 1.419 . S
C1134 C1135 1.362 . S
C1135 H1125 0.930 . S
C1135 C1128 1.409 . S
C1135 C1134 1.362 . S
H1136 C1142 0.930 . S
H1137 C1145 0.930 . S
H1138 C1146 0.930 . S
H1139 C1147 0.930 . S
H1140 C1150 0.930 . S
H1141 C1151 0.930 . S
C1142 H1136 0.930 . S
C1142 C1143 1.355 . S
C1142 C1144 1.415 . S
C1143 C1142 1.355 . S
C1143 C1145 1.419 . S
C1144 C1142 1.415 . S
C1144 C1149 1.425 . S
C1144 C1151 1.409 . S
C1145 H1137 0.930 . S
C1145 C1143 1.419 . S
C1145 C1146 1.362 . S
C1146 H1138 0.930 . S
C1146 C1145 1.362 . S
C1146 C1149 1.409 . S
C1147 H1139 0.930 . S
C1147 C1148 1.355 . S
C1147 C1149 1.415 . S
C1148 C1147 1.355 . S
C1148 C1150 1.419 . S
C1149 C1144 1.425 . S
C1149 C1146 1.409 . S
C1149 C1147 1.415 . S
C1150 H1140 0.930 . S
C1150 C1148 1.419 . S
C1150 C1151 1.362 . S
C1151 H1141 0.930 . S
C1151 C1144 1.409 . S
C1151 C1150 1.362 . S
H1152 C1158 0.930 . S
H1153 C1161 0.930 . S
H1154 C1162 0.930 . S
H1155 C1163 0.930 . S
H1156 C1166 0.930 . S
H1157 C1167 0.930 . S
C1158 H1152 0.930 . S
C1158 C1159 1.355 . S
C1158 C1160 1.415 1_545 S
C1159 C1158 1.355 . S
C1159 C1161 1.419 1_545 S
C1160 C1158 1.415 1_565 S
C1160 C1165 1.425 . S
C1160 C1167 1.409 . S
C1161 H1153 0.930 . S
C1161 C1159 1.419 1_565 S
C1161 C1162 1.362 . S
C1162 H1154 0.930 . S
C1162 C1161 1.362 . S
C1162 C1165 1.409 . S
C1163 H1155 0.930 . S
C1163 C1164 1.355 . S
C1163 C1165 1.415 . S
C1164 C1163 1.355 . S
C1164 C1166 1.419 . S
C1165 C1160 1.425 . S
C1165 C1162 1.409 . S
C1165 C1163 1.415 . S
C1166 H1156 0.930 . S
C1166 C1164 1.419 . S
C1166 C1167 1.362 . S
C1167 H1157 0.930 . S
C1167 C1160 1.409 . S
C1167 C1166 1.362 . S
H1168 C1174 0.930 . S
H1169 C1177 0.930 . S
H1170 C1178 0.930 . S
H1171 C1179 0.930 . S
H1172 C1182 0.930 . S
H1173 C1183 0.930 . S
C1174 H1168 0.930 . S
C1174 C1175 1.355 . S
C1174 C1176 1.415 . S
C1175 C1174 1.355 . S
C1175 C1177 1.419 . S
C1176 C1174 1.415 . S
C1176 C1181 1.425 . S
C1176 C1183 1.409 . S
C1177 H1169 0.930 . S
C1177 C1175 1.419 . S
C1177 C1178 1.362 . S
C1178 H1170 0.930 . S
C1178 C1177 1.362 . S
C1178 C1181 1.409 . S
C1179 H1171 0.930 . S
C1179 C1180 1.355 . S
C1179 C1181 1.415 . S
C1180 C1179 1.355 . S
C1180 C1182 1.419 . S
C1181 C1176 1.425 . S
C1181 C1178 1.409 . S
C1181 C1179 1.415 . S
C1182 H1172 0.930 . S
C1182 C1180 1.419 . S
C1182 C1183 1.362 . S
C1183 H1173 0.930 . S
C1183 C1176 1.409 . S
C1183 C1182 1.362 . S
H1184 C1190 0.930 . S
H1185 C1193 0.930 . S
H1186 C1194 0.929 . S
H1187 C1195 0.930 . S
H1188 C1198 0.930 . S
H1189 C1199 0.930 . S
C1190 H1184 0.930 . S
C1190 C1191 1.335 1_565 S
C1190 C1192 1.415 . S
C1191 C1190 1.335 1_545 S
C1191 C1193 1.426 . S
C1192 C1190 1.415 . S
C1192 C1197 1.425 . S
C1192 C1199 1.409 . S
C1193 H1185 0.930 . S
C1193 C1191 1.426 . S
C1193 C1194 1.362 1_545 S
C1194 H1186 0.929 . S
C1194 C1193 1.362 1_565 S
C1194 C1197 1.409 . S
C1195 H1187 0.930 . S
C1195 C1196 1.355 . S
C1195 C1197 1.415 . S
C1196 C1195 1.355 . S
C1196 C1198 1.419 . S
C1197 C1192 1.425 . S
C1197 C1194 1.409 . S
C1197 C1195 1.415 . S
C1198 H1188 0.930 . S
C1198 C1196 1.419 . S
C1198 C1199 1.362 . S
C1199 H1189 0.930 . S
C1199 C1192 1.409 . S
C1199 C1198 1.362 . S
H1200 C1206 0.930 . S
H1201 C1209 0.930 . S
H1202 C1210 0.930 . S
H1203 C1211 0.930 . S
H1204 C1214 0.930 . S
H1205 C1215 0.930 . S
C1206 H1200 0.930 . S
C1206 C1207 1.355 . S
C1206 C1208 1.415 . S
C1207 C1206 1.355 . S
C1207 C1209 1.419 . S
C1208 C1206 1.415 . S
C1208 C1213 1.425 . S
C1208 C1215 1.409 . S
C1209 H1201 0.930 . S
C1209 C1207 1.419 . S
C1209 C1210 1.362 . S
C1210 H1202 0.930 . S
C1210 C1209 1.362 . S
C1210 C1213 1.409 . S
C1211 H1203 0.930 . S
C1211 C1212 1.355 . S
C1211 C1213 1.415 . S
C1212 C1211 1.355 . S
C1212 C1214 1.419 . S
C1213 C1208 1.425 . S
C1213 C1210 1.409 . S
C1213 C1211 1.415 . S
C1214 H1204 0.930 . S
C1214 C1212 1.419 . S
C1214 C1215 1.362 . S
C1215 H1205 0.930 . S
C1215 C1208 1.409 . S
C1215 C1214 1.362 . S
H1216 C1222 0.930 . S
H1217 C1225 0.930 1_565 S
H1218 C1226 0.930 . S
H1219 C1227 0.930 . S
H1220 C1230 0.930 . S
H1221 C1231 0.930 . S
C1222 H1216 0.930 . S
C1222 C1223 1.355 . S
C1222 C1224 1.415 . S
C1223 C1222 1.355 . S
C1223 C1225 1.419 . S
C1224 C1222 1.415 . S
C1224 C1229 1.425 . S
C1224 C1231 1.409 . S
C1225 H1217 0.930 1_545 S
C1225 C1223 1.419 . S
C1225 C1226 1.362 . S
C1226 H1218 0.930 . S
C1226 C1225 1.362 . S
C1226 C1229 1.409 . S
C1227 H1219 0.930 . S
C1227 C1228 1.355 . S
C1227 C1229 1.415 . S
C1228 C1227 1.355 . S
C1228 C1230 1.419 . S
C1229 C1224 1.425 . S
C1229 C1226 1.409 . S
C1229 C1227 1.415 . S
C1230 H1220 0.930 . S
C1230 C1228 1.419 . S
C1230 C1231 1.362 . S
C1231 H1221 0.930 . S
C1231 C1224 1.409 . S
C1231 C1230 1.362 . S
H1232 C1238 0.930 . S
H1233 C1241 0.930 . S
H1234 C1242 0.930 . S
H1235 C1243 0.930 . S
H1236 C1246 0.930 . S
H1237 C1247 0.930 . S
C1238 H1232 0.930 . S
C1238 C1239 1.355 . S
C1238 C1240 1.415 . S
C1239 C1238 1.355 . S
C1239 C1241 1.419 . S
C1240 C1238 1.415 . S
C1240 C1245 1.425 . S
C1240 C1247 1.409 . S
C1241 H1233 0.930 . S
C1241 C1239 1.419 . S
C1241 C1242 1.362 . S
C1242 H1234 0.930 . S
C1242 C1241 1.362 . S
C1242 C1245 1.409 . S
C1243 H1235 0.930 . S
C1243 C1244 1.355 . S
C1243 C1245 1.415 . S
C1244 C1243 1.355 . S
C1244 C1246 1.419 . S
C1245 C1240 1.425 . S
C1245 C1242 1.409 . S
C1245 C1243 1.415 . S
C1246 H1236 0.930 . S
C1246 C1244 1.419 . S
C1246 C1247 1.362 . S
C1247 H1237 0.930 . S
C1247 C1240 1.409 . S
C1247 C1246 1.362 . S
H1248 C1254 0.930 . S
H1249 C1257 0.930 1_545 S
H1250 C1258 0.930 . S
H1251 C1259 0.930 . S
H1252 C1262 0.930 . S
H1253 C1263 0.930 . S
C1254 H1248 0.930 . S
C1254 C1255 1.354 1_565 S
C1254 C1256 1.415 . S
C1255 C1254 1.354 1_545 S
C1255 C1257 1.419 1_545 S
C1256 C1254 1.415 . S
C1256 C1261 1.425 . S
C1256 C1263 1.409 . S
C1257 H1249 0.930 1_565 S
C1257 C1255 1.419 1_565 S
C1257 C1258 1.362 . S
C1258 H1250 0.930 . S
C1258 C1257 1.362 . S
C1258 C1261 1.409 . S
C1259 H1251 0.930 . S
C1259 C1260 1.355 . S
C1259 C1261 1.415 . S
C1260 C1259 1.355 . S
C1260 C1262 1.419 . S
C1261 C1256 1.425 . S
C1261 C1258 1.409 . S
C1261 C1259 1.415 . S
C1262 H1252 0.930 . S
C1262 C1260 1.419 . S
C1262 C1263 1.362 . S
C1263 H1253 0.930 . S
C1263 C1256 1.409 . S
C1263 C1262 1.362 . S
H1264 C1270 0.930 . S
H1265 C1273 0.930 . S
H1266 C1274 0.930 . S
H1267 C1275 0.930 . S
H1268 C1278 0.930 . S
H1269 C1279 0.930 . S
C1270 H1264 0.930 . S
C1270 C1271 1.355 . S
C1270 C1272 1.415 . S
C1271 C1270 1.355 . S
C1271 C1273 1.419 . S
C1272 C1270 1.415 . S
C1272 C1277 1.425 . S
C1272 C1279 1.409 . S
C1273 H1265 0.930 . S
C1273 C1271 1.419 . S
C1273 C1274 1.362 . S
C1274 H1266 0.930 . S
C1274 C1273 1.362 . S
C1274 C1277 1.409 . S
C1275 H1267 0.930 . S
C1275 C1276 1.355 . S
C1275 C1277 1.415 . S
C1276 C1275 1.355 . S
C1276 C1278 1.419 . S
C1277 C1272 1.425 . S
C1277 C1274 1.409 . S
C1277 C1275 1.415 . S
C1278 H1268 0.930 . S
C1278 C1276 1.419 . S
C1278 C1279 1.362 . S
C1279 H1269 0.930 . S
C1279 C1272 1.409 . S
C1279 C1278 1.362 . S
H1280 C1286 0.930 . S
H1281 C1289 0.930 . S
H1282 C1290 0.930 . S
H1283 C1291 0.930 . S
H1284 C1294 0.930 . S
H1285 C1295 0.930 . S
C1286 H1280 0.930 . S
C1286 C1287 1.355 . S
C1286 C1288 1.415 . S
C1287 C1286 1.355 . S
C1287 C1289 1.419 . S
C1288 C1286 1.415 . S
C1288 C1293 1.425 . S
C1288 C1295 1.409 . S
C1289 H1281 0.930 . S
C1289 C1287 1.419 . S
C1289 C1290 1.362 . S
C1290 H1282 0.930 . S
C1290 C1289 1.362 . S
C1290 C1293 1.409 . S
C1291 H1283 0.930 . S
C1291 C1292 1.355 . S
C1291 C1293 1.415 . S
C1292 C1291 1.355 . S
C1292 C1294 1.419 . S
C1293 C1288 1.425 . S
C1293 C1290 1.409 . S
C1293 C1291 1.415 . S
C1294 H1284 0.930 . S
C1294 C1292 1.419 . S
C1294 C1295 1.362 . S
C1295 H1285 0.930 . S
C1295 C1288 1.409 . S
C1295 C1294 1.362 . S
H1296 C1302 0.930 . S
H1297 C1305 0.930 . S
H1298 C1306 0.930 . S
H1299 C1307 0.930 . S
H1300 C1310 0.930 . S
H1301 C1311 0.930 . S
C1302 H1296 0.930 . S
C1302 C1303 1.355 . S
C1302 C1304 1.415 . S
C1303 C1302 1.355 . S
C1303 C1305 1.419 . S
C1304 C1302 1.415 . S
C1304 C1309 1.425 . S
C1304 C1311 1.409 . S
C1305 H1297 0.930 . S
C1305 C1303 1.419 . S
C1305 C1306 1.362 . S
C1306 H1298 0.930 . S
C1306 C1305 1.362 . S
C1306 C1309 1.409 . S
C1307 H1299 0.930 . S
C1307 C1308 1.355 . S
C1307 C1309 1.415 . S
C1308 C1307 1.355 . S
C1308 C1310 1.419 . S
C1309 C1304 1.425 . S
C1309 C1306 1.409 . S
C1309 C1307 1.415 . S
C1310 H1300 0.930 . S
C1310 C1308 1.419 . S
C1310 C1311 1.362 . S
C1311 H1301 0.930 . S
C1311 C1304 1.409 . S
C1311 C1310 1.362 . S
H1312 C1318 0.930 . S
H1313 C1321 0.930 . S
H1314 C1322 0.930 . S
H1315 C1323 0.930 . S
H1316 C1326 0.930 . S
H1317 C1327 0.930 . S
C1318 H1312 0.930 . S
C1318 C1319 1.355 . S
C1318 C1320 1.415 . S
C1319 C1318 1.355 . S
C1319 C1321 1.419 . S
C1320 C1318 1.415 . S
C1320 C1325 1.425 . S
C1320 C1327 1.409 . S
C1321 H1313 0.930 . S
C1321 C1319 1.419 . S
C1321 C1322 1.362 . S
C1322 H1314 0.930 . S
C1322 C1321 1.362 . S
C1322 C1325 1.409 . S
C1323 H1315 0.930 . S
C1323 C1324 1.355 . S
C1323 C1325 1.415 . S
C1324 C1323 1.355 . S
C1324 C1326 1.419 . S
C1325 C1320 1.425 . S
C1325 C1322 1.409 . S
C1325 C1323 1.415 . S
C1326 H1316 0.930 . S
C1326 C1324 1.419 . S
C1326 C1327 1.362 . S
C1327 H1317 0.930 . S
C1327 C1320 1.409 . S
C1327 C1326 1.362 . S
H1328 C1334 0.930 . S
H1329 C1337 0.930 . S
H1330 C1338 0.930 . S
H1331 C1339 0.930 . S
H1332 C1342 0.930 . S
H1333 C1343 0.930 . S
C1334 H1328 0.930 . S
C1334 C1335 1.355 . S
C1334 C1336 1.415 . S
C1335 C1334 1.355 . S
C1335 C1337 1.419 . S
C1336 C1334 1.415 . S
C1336 C1341 1.425 . S
C1336 C1343 1.409 . S
C1337 H1329 0.930 . S
C1337 C1335 1.419 . S
C1337 C1338 1.362 . S
C1338 H1330 0.930 . S
C1338 C1337 1.362 . S
C1338 C1341 1.409 . S
C1339 H1331 0.930 . S
C1339 C1340 1.355 . S
C1339 C1341 1.415 . S
C1340 C1339 1.355 . S
C1340 C1342 1.419 . S
C1341 C1336 1.425 . S
C1341 C1338 1.409 . S
C1341 C1339 1.415 . S
C1342 H1332 0.930 . S
C1342 C1340 1.419 . S
C1342 C1343 1.362 . S
C1343 H1333 0.930 . S
C1343 C1336 1.409 . S
C1343 C1342 1.362 . S
H1344 C1350 0.930 . S
H1345 C1353 0.930 . S
H1346 C1354 0.930 . S
H1347 C1355 0.930 . S
H1348 C1358 0.930 . S
H1349 C1359 0.930 . S
C1350 H1344 0.930 . S
C1350 C1351 1.355 . S
C1350 C1352 1.415 . S
C1351 C1350 1.355 . S
C1351 C1353 1.419 . S
C1352 C1350 1.415 . S
C1352 C1357 1.425 . S
C1352 C1359 1.409 . S
C1353 H1345 0.930 . S
C1353 C1351 1.419 . S
C1353 C1354 1.362 . S
C1354 H1346 0.930 . S
C1354 C1353 1.362 . S
C1354 C1357 1.409 . S
C1355 H1347 0.930 . S
C1355 C1356 1.355 . S
C1355 C1357 1.415 . S
C1356 C1355 1.355 . S
C1356 C1358 1.419 . S
C1357 C1352 1.425 . S
C1357 C1354 1.409 . S
C1357 C1355 1.415 . S
C1358 H1348 0.930 . S
C1358 C1356 1.419 . S
C1358 C1359 1.362 . S
C1359 H1349 0.930 . S
C1359 C1352 1.409 . S
C1359 C1358 1.362 . S
H1360 C1366 0.930 . S
H1361 C1369 0.930 . S
H1362 C1370 0.930 . S
H1363 C1371 0.930 . S
H1364 C1374 0.930 . S
H1365 C1375 0.930 . S
C1366 H1360 0.930 . S
C1366 C1367 1.355 . S
C1366 C1368 1.415 . S
C1367 C1366 1.355 . S
C1367 C1369 1.419 . S
C1368 C1366 1.415 . S
C1368 C1373 1.425 . S
C1368 C1375 1.409 . S
C1369 H1361 0.930 . S
C1369 C1367 1.419 . S
C1369 C1370 1.362 . S
C1370 H1362 0.930 . S
C1370 C1369 1.362 . S
C1370 C1373 1.409 . S
C1371 H1363 0.930 . S
C1371 C1372 1.355 . S
C1371 C1373 1.415 . S
C1372 C1371 1.355 . S
C1372 C1374 1.419 . S
C1373 C1368 1.425 . S
C1373 C1370 1.409 . S
C1373 C1371 1.415 . S
C1374 H1364 0.930 . S
C1374 C1372 1.419 . S
C1374 C1375 1.362 . S
C1375 H1365 0.930 . S
C1375 C1368 1.409 . S
C1375 C1374 1.362 . S
H1376 C1382 0.930 . S
H1377 C1385 0.930 . S
H1378 C1386 0.930 . S
H1379 C1387 0.930 . S
H1380 C1390 0.930 . S
H1381 C1391 0.930 . S
C1382 H1376 0.930 . S
C1382 C1383 1.355 . S
C1382 C1384 1.415 . S
C1383 C1382 1.355 . S
C1383 C1385 1.419 . S
C1384 C1382 1.415 . S
C1384 C1389 1.425 . S
C1384 C1391 1.409 . S
C1385 H1377 0.930 . S
C1385 C1383 1.419 . S
C1385 C1386 1.362 . S
C1386 H1378 0.930 . S
C1386 C1385 1.362 . S
C1386 C1389 1.409 . S
C1387 H1379 0.930 . S
C1387 C1388 1.355 . S
C1387 C1389 1.415 . S
C1388 C1387 1.355 . S
C1388 C1390 1.419 . S
C1389 C1384 1.425 . S
C1389 C1386 1.409 . S
C1389 C1387 1.415 . S
C1390 H1380 0.930 . S
C1390 C1388 1.419 . S
C1390 C1391 1.362 . S
C1391 H1381 0.930 . S
C1391 C1384 1.409 . S
C1391 C1390 1.362 . S
H1392 C1398 0.930 . S
H1393 C1401 0.930 . S
H1394 C1402 0.930 . S
H1395 C1403 0.930 . S
H1396 C1406 0.930 . S
H1397 C1407 0.930 . S
C1398 H1392 0.930 . S
C1398 C1399 1.355 . S
C1398 C1400 1.415 . S
C1399 C1398 1.355 . S
C1399 C1401 1.419 . S
C1400 C1398 1.415 . S
C1400 C1405 1.425 . S
C1400 C1407 1.409 . S
C1401 H1393 0.930 . S
C1401 C1399 1.419 . S
C1401 C1402 1.362 . S
C1402 H1394 0.930 . S
C1402 C1401 1.362 . S
C1402 C1405 1.409 . S
C1403 H1395 0.930 . S
C1403 C1404 1.355 . S
C1403 C1405 1.415 . S
C1404 C1403 1.355 . S
C1404 C1406 1.419 . S
C1405 C1400 1.425 . S
C1405 C1402 1.409 . S
C1405 C1403 1.415 . S
C1406 H1396 0.930 . S
C1406 C1404 1.419 . S
C1406 C1407 1.362 . S
C1407 H1397 0.930 . S
C1407 C1400 1.409 . S
C1407 C1406 1.362 . S
H1408 C1414 0.930 . S
H1409 C1417 0.930 . S
H1410 C1418 0.930 . S
H1411 C1419 0.930 . S
H1412 C1422 0.930 . S
H1413 C1423 0.930 . S
C1414 H1408 0.930 . S
C1414 C1415 1.355 . S
C1414 C1416 1.415 . S
C1415 C1414 1.355 . S
C1415 C1417 1.419 . S
C1416 C1414 1.415 . S
C1416 C1421 1.425 . S
C1416 C1423 1.409 . S
C1417 H1409 0.930 . S
C1417 C1415 1.419 . S
C1417 C1418 1.362 . S
C1418 H1410 0.930 . S
C1418 C1417 1.362 . S
C1418 C1421 1.409 . S
C1419 H1411 0.930 . S
C1419 C1420 1.355 . S
C1419 C1421 1.415 . S
C1420 C1419 1.355 . S
C1420 C1422 1.419 . S
C1421 C1416 1.425 . S
C1421 C1418 1.409 . S
C1421 C1419 1.415 . S
C1422 H1412 0.930 . S
C1422 C1420 1.419 . S
C1422 C1423 1.362 . S
C1423 H1413 0.930 . S
C1423 C1416 1.409 . S
C1423 C1422 1.362 . S
H1424 C1430 0.930 . S
H1425 C1433 0.930 . S
H1426 C1434 0.930 . S
H1427 C1435 0.930 . S
H1428 C1438 0.930 . S
H1429 C1439 0.930 . S
C1430 H1424 0.930 . S
C1430 C1431 1.355 . S
C1430 C1432 1.415 . S
C1431 C1430 1.355 . S
C1431 C1433 1.419 . S
C1432 C1430 1.415 . S
C1432 C1437 1.425 . S
C1432 C1439 1.409 . S
C1433 H1425 0.930 . S
C1433 C1431 1.419 . S
C1433 C1434 1.362 . S
C1434 H1426 0.930 . S
C1434 C1433 1.362 . S
C1434 C1437 1.409 . S
C1435 H1427 0.930 . S
C1435 C1436 1.355 . S
C1435 C1437 1.415 . S
C1436 C1435 1.355 . S
C1436 C1438 1.419 . S
C1437 C1432 1.425 . S
C1437 C1434 1.409 . S
C1437 C1435 1.415 . S
C1438 H1428 0.930 . S
C1438 C1436 1.419 . S
C1438 C1439 1.362 . S
C1439 H1429 0.930 . S
C1439 C1432 1.409 . S
C1439 C1438 1.362 . S
H1440 C1446 0.930 . S
H1441 C1449 0.930 . S
H1442 C1450 0.930 . S
H1443 C1451 0.930 . S
H1444 C1454 0.930 . S
H1445 C1455 0.930 . S
C1446 H1440 0.930 . S
C1446 C1447 1.355 . S
C1446 C1448 1.415 . S
C1447 C1446 1.355 . S
C1447 C1449 1.419 . S
C1448 C1446 1.415 . S
C1448 C1453 1.425 . S
C1448 C1455 1.409 . S
C1449 H1441 0.930 . S
C1449 C1447 1.419 . S
C1449 C1450 1.362 . S
C1450 H1442 0.930 . S
C1450 C1449 1.362 . S
C1450 C1453 1.409 . S
C1451 H1443 0.930 . S
C1451 C1452 1.355 . S
C1451 C1453 1.415 . S
C1452 C1451 1.355 . S
C1452 C1454 1.419 . S
C1453 C1448 1.425 . S
C1453 C1450 1.409 . S
C1453 C1451 1.415 . S
C1454 H1444 0.930 . S
C1454 C1452 1.419 . S
C1454 C1455 1.362 . S
C1455 H1445 0.930 . S
C1455 C1448 1.409 . S
C1455 C1454 1.362 . S
H1456 C1462 0.930 . S
H1457 C1465 0.930 . S
H1458 C1466 0.930 . S
H1459 C1467 0.930 . S
H1460 C1470 0.930 . S
H1461 C1471 0.930 . S
C1462 H1456 0.930 . S
C1462 C1463 1.355 . S
C1462 C1464 1.415 . S
C1463 C1462 1.355 . S
C1463 C1465 1.419 . S
C1464 C1462 1.415 . S
C1464 C1469 1.425 . S
C1464 C1471 1.409 . S
C1465 H1457 0.930 . S
C1465 C1463 1.419 . S
C1465 C1466 1.362 . S
C1466 H1458 0.930 . S
C1466 C1465 1.362 . S
C1466 C1469 1.409 . S
C1467 H1459 0.930 . S
C1467 C1468 1.355 . S
C1467 C1469 1.415 . S
C1468 C1467 1.355 . S
C1468 C1470 1.419 . S
C1469 C1464 1.425 . S
C1469 C1466 1.409 . S
C1469 C1467 1.415 . S
C1470 H1460 0.930 . S
C1470 C1468 1.419 . S
C1470 C1471 1.362 . S
C1471 H1461 0.930 . S
C1471 C1464 1.409 . S
C1471 C1470 1.362 . S
H1472 C1478 0.930 . S
H1473 C1481 0.930 . S
H1474 C1482 0.930 . S
H1475 C1483 0.930 . S
H1476 C1486 0.930 . S
H1477 C1487 0.930 . S
C1478 H1472 0.930 . S
C1478 C1479 1.355 . S
C1478 C1480 1.415 . S
C1479 C1478 1.355 . S
C1479 C1481 1.419 . S
C1480 C1478 1.415 . S
C1480 C1485 1.425 . S
C1480 C1487 1.409 . S
C1481 H1473 0.930 . S
C1481 C1479 1.419 . S
C1481 C1482 1.362 . S
C1482 H1474 0.930 . S
C1482 C1481 1.362 . S
C1482 C1485 1.409 . S
C1483 H1475 0.930 . S
C1483 C1484 1.355 . S
C1483 C1485 1.415 . S
C1484 C1483 1.355 . S
C1484 C1486 1.419 . S
C1485 C1480 1.425 . S
C1485 C1482 1.409 . S
C1485 C1483 1.415 . S
C1486 H1476 0.930 . S
C1486 C1484 1.419 . S
C1486 C1487 1.362 . S
C1487 H1477 0.930 . S
C1487 C1480 1.409 . S
C1487 C1486 1.362 . S
H1488 C1494 0.930 . S
H1489 C1497 0.930 . S
H1490 C1498 0.930 . S
H1491 C1499 0.930 . S
H1492 C1502 0.930 . S
H1493 C1503 0.930 . S
C1494 H1488 0.930 . S
C1494 C1495 1.355 . S
C1494 C1496 1.415 . S
C1495 C1494 1.355 . S
C1495 C1497 1.419 . S
C1496 C1494 1.415 . S
C1496 C1501 1.425 . S
C1496 C1503 1.409 . S
C1497 H1489 0.930 . S
C1497 C1495 1.419 . S
C1497 C1498 1.362 . S
C1498 H1490 0.930 . S
C1498 C1497 1.362 . S
C1498 C1501 1.409 . S
C1499 H1491 0.930 . S
C1499 C1500 1.355 . S
C1499 C1501 1.415 . S
C1500 C1499 1.355 . S
C1500 C1502 1.419 . S
C1501 C1496 1.425 . S
C1501 C1498 1.409 . S
C1501 C1499 1.415 . S
C1502 H1492 0.930 . S
C1502 C1500 1.419 . S
C1502 C1503 1.362 . S
C1503 H1493 0.930 . S
C1503 C1496 1.409 . S
C1503 C1502 1.362 . S
H1504 C1510 0.930 . S
H1505 C1513 0.930 . S
H1506 C1514 0.930 . S
H1507 C1515 0.930 . S
H1508 C1518 0.930 . S
H1509 C1519 0.930 . S
C1510 H1504 0.930 . S
C1510 C1511 1.355 . S
C1510 C1512 1.415 . S
C1511 C1510 1.355 . S
C1511 C1513 1.419 . S
C1512 C1510 1.415 . S
C1512 C1517 1.425 . S
C1512 C1519 1.409 . S
C1513 H1505 0.930 . S
C1513 C1511 1.419 . S
C1513 C1514 1.362 . S
C1514 H1506 0.930 . S
C1514 C1513 1.362 . S
C1514 C1517 1.409 . S
C1515 H1507 0.930 . S
C1515 C1516 1.355 . S
C1515 C1517 1.415 . S
C1516 C1515 1.355 . S
C1516 C1518 1.419 . S
C1517 C1512 1.425 . S
C1517 C1514 1.409 . S
C1517 C1515 1.415 . S
C1518 H1508 0.930 . S
C1518 C1516 1.419 . S
C1518 C1519 1.362 . S
C1519 H1509 0.930 . S
C1519 C1512 1.409 . S
C1519 C1518 1.362 . S
H1520 C1526 0.930 . S
H1521 C1529 0.930 . S
H1522 C1530 0.930 . S
H1523 C1531 0.930 . S
H1524 C1534 0.930 . S
H1525 C1535 0.930 . S
C1526 H1520 0.930 . S
C1526 C1527 1.355 . S
C1526 C1528 1.415 . S
C1527 C1526 1.355 . S
C1527 C1529 1.419 . S
C1528 C1526 1.415 . S
C1528 C1533 1.425 . S
C1528 C1535 1.409 . S
C1529 H1521 0.930 . S
C1529 C1527 1.419 . S
C1529 C1530 1.362 . S
C1530 H1522 0.930 . S
C1530 C1529 1.362 . S
C1530 C1533 1.409 . S
C1531 H1523 0.930 . S
C1531 C1532 1.355 . S
C1531 C1533 1.415 . S
C1532 C1531 1.355 . S
C1532 C1534 1.419 . S
C1533 C1528 1.425 . S
C1533 C1530 1.409 . S
C1533 C1531 1.415 . S
C1534 H1524 0.930 . S
C1534 C1532 1.419 . S
C1534 C1535 1.362 . S
C1535 H1525 0.930 . S
C1535 C1528 1.409 . S
C1535 C1534 1.362 . S
H1536 C1542 0.930 . S
H1537 C1545 0.930 . S
H1538 C1546 0.930 . S
H1539 C1547 0.930 . S
H1540 C1550 0.930 . S
H1541 C1551 0.930 . S
C1542 H1536 0.930 . S
C1542 C1543 1.355 . S
C1542 C1544 1.415 . S
C1543 C1542 1.355 . S
C1543 C1545 1.419 . S
C1544 C1542 1.415 . S
C1544 C1549 1.425 . S
C1544 C1551 1.409 . S
C1545 H1537 0.930 . S
C1545 C1543 1.419 . S
C1545 C1546 1.362 . S
C1546 H1538 0.930 . S
C1546 C1545 1.362 . S
C1546 C1549 1.409 . S
C1547 H1539 0.930 . S
C1547 C1548 1.355 . S
C1547 C1549 1.415 . S
C1548 C1547 1.355 . S
C1548 C1550 1.419 . S
C1549 C1544 1.425 . S
C1549 C1546 1.409 . S
C1549 C1547 1.415 . S
C1550 H1540 0.930 . S
C1550 C1548 1.419 . S
C1550 C1551 1.362 . S
C1551 H1541 0.930 . S
C1551 C1544 1.409 . S
C1551 C1550 1.362 . S
C1052 C961 1.547 . S
C1047 C11 1.054 . S
C1063 C143 1.066 1_545 S
C1068 C993 1.484 . S
C1079 C283 1.198 . S
C1084 C1016 1.598 . S
C1100 C920 1.418 . S
C1095 C343 1.225 1_565 S
C1116 C1003 1.397 . S
C1111 C55 1.064 . S
C1132 C1032 1.285 . S
C1127 C115 1.166 1_545 S
C1148 C936 1.342 . S
C1143 C239 1.086 . S
C1164 C971 1.350 . S
C1159 C371 1.158 . S
C1175 C29 1.118 . S
C1180 C999 1.281 . S
C1191 C467 0.766 . S
C1196 C974 1.360 . S
C1207 C229 1.141 . S
C1212 C942 1.194 . S
C1228 C1031 1.449 . S
C1223 C625 1.164 . S
C1244 C975 1.379 . S
C1239 C1 1.161 . S
C1255 C511 1.255 . S
C1260 C943 1.512 . S
C1271 C257 1.157 . S
C1276 C1030 1.462 . S
C1292 C998 1.500 . S
C1287 C581 0.835 1_545 S
C1303 C713 1.116 . S
C1308 C1025 1.505 . S
C1319 C485 1.053 . S
C1324 C929 1.451 . S
C1335 C799 1.140 . S
C1340 C952 1.410 . S
C1351 C571 1.111 . S
C1356 C984 1.387 . S
C1372 C939 1.289 . S
C1367 C685 1.129 . S
C1383 C457 1.080 . S
C1388 C968 1.267 . S
C1399 C827 1.107 . S
C1404 C1000 1.288 . S
C1420 C1035 1.352 . S
C1415 C599 1.172 . S
C1431 C695 0.883 . S
C1436 C935 1.314 . S
C1447 C125 0.751 . S
C1452 C1038 1.369 . S
C1463 C853 1.181 . S
C1468 C1006 1.444 . S
C1484 C967 1.360 . S
C1479 C397 1.229 . S
C1500 C1039 1.582 . S
C1495 C739 1.110 . S
C1516 C1007 1.534 . S
C1511 C169 1.251 . S
C1532 C966 1.520 . S
C1527 C809 1.006 . S
C1548 C934 1.512 . S
C1543 C353 0.870 . S
