# Generated by pormake.
# Topology anh, (6,3)-cn, num edge types: 1
# Building blocks:
#     Node 0, Type 0, BuildingBlock: BETGAK_clean_sbu_0, # of connection points: 6
#     Node 1, Type 0, BuildingBlock: BETGAK_clean_sbu_0, # of connection points: 6
#     Node 2, Type 0, BuildingBlock: BETGAK_clean_sbu_0, # of connection points: 6
#     Node 3, Type 1, BuildingBlock: CUQRIR_clean_linker_1, # of connection points: 3
#     Node 4, Type 1, BuildingBlock: CUQRIR_clean_linker_1, # of connection points: 3
#     Node 5, Type 1, BuildingBlock: CUQRIR_clean_linker_1, # of connection points: 3
#     Node 6, Type 1, BuildingBlock: CUQRIR_clean_linker_1, # of connection points: 3
#     Node 7, Type 1, BuildingBlock: CUQRIR_clean_linker_1, # of connection points: 3
#     Node 8, Type 1, BuildingBlock: CUQRIR_clean_linker_1, # of connection points: 3
#     Edge 9, Type (0, 1), BuildingBlock: ZUJKAS_clean_linker_0, # of connection points: 2
#     Edge 10, Type (0, 1), BuildingBlock: ZUJKAS_clean_linker_0, # of connection points: 2
#     Edge 11, Type (0, 1), BuildingBlock: ZUJKAS_clean_linker_0, # of connection points: 2
#     Edge 12, Type (0, 1), BuildingBlock: ZUJKAS_clean_linker_0, # of connection points: 2
#     Edge 13, Type (0, 1), BuildingBlock: ZUJKAS_clean_linker_0, # of connection points: 2
#     Edge 14, Type (0, 1), BuildingBlock: ZUJKAS_clean_linker_0, # of connection points: 2
#     Edge 15, Type (0, 1), BuildingBlock: ZUJKAS_clean_linker_0, # of connection points: 2
#     Edge 16, Type (0, 1), BuildingBlock: ZUJKAS_clean_linker_0, # of connection points: 2
#     Edge 17, Type (0, 1), BuildingBlock: ZUJKAS_clean_linker_0, # of connection points: 2
#     Edge 18, Type (0, 1), BuildingBlock: ZUJKAS_clean_linker_0, # of connection points: 2
#     Edge 19, Type (0, 1), BuildingBlock: ZUJKAS_clean_linker_0, # of connection points: 2
#     Edge 20, Type (0, 1), BuildingBlock: ZUJKAS_clean_linker_0, # of connection points: 2
#     Edge 21, Type (0, 1), BuildingBlock: ZUJKAS_clean_linker_0, # of connection points: 2
#     Edge 22, Type (0, 1), BuildingBlock: ZUJKAS_clean_linker_0, # of connection points: 2
#     Edge 23, Type (0, 1), BuildingBlock: ZUJKAS_clean_linker_0, # of connection points: 2
#     Edge 24, Type (0, 1), BuildingBlock: ZUJKAS_clean_linker_0, # of connection points: 2
#     Edge 25, Type (0, 1), BuildingBlock: ZUJKAS_clean_linker_0, # of connection points: 2
#     Edge 26, Type (0, 1), BuildingBlock: ZUJKAS_clean_linker_0, # of connection points: 2
# Relax obj value: 0.169
# Max RMSD: 0.211
# Mean RMSD: 0.159
data_MOF--net-anh--node1-BETGAK_clean_sbu_0--node2-CUQRIR_clean_linker_1--edge1-ZUJKAS_clean_linker_0
_symmetry_space_group_name_H-M    P1
_symmetry_Int_Tables_number       1
_symmetry_cell_setting            triclinic
loop_
_symmetry_equiv_pos_as_xyz
'x, y, z'
_cell_length_a     39.093106
_cell_length_b     44.45519
_cell_length_c     61.857228
_cell_angle_alpha  88.112952
_cell_angle_beta   90.83305
_cell_angle_gamma 128.66839
loop_
_atom_site_label
_atom_site_type_symbol
_atom_site_fract_x
_atom_site_fract_y
_atom_site_fract_z
_atom_type_partial_charge
La0 La 0.10521 0.51308 0.15266 0.0
La1 La 0.0582 0.54227 0.15863 0.0
C2 C 0.16024 0.50452 0.1419 0.0
C3 C 0.20315 0.52161 0.15133 0.0
C4 C 0.2155 0.54238 0.1704 0.0
C5 C 0.2531 0.5537 0.18142 0.0
C6 C 0.279 0.54466 0.17339 0.0
C7 C 0.26784 0.52593 0.15355 0.0
C8 C 0.23005 0.51437 0.14264 0.0
C9 C 0.08446 0.51077 0.19342 0.0
C10 C 0.15836 0.60426 0.15982 0.0
C11 C 1.00213 0.54953 0.16962 0.0
C12 C 0.95486 0.52364 0.16583 0.0
C13 C 0.9376 0.49701 0.14925 0.0
C14 C 0.8927 0.47221 0.14541 0.0
C15 C 0.86422 0.47347 0.15816 0.0
C16 C 0.88156 0.49944 0.17521 0.0
C17 C 0.92664 0.52439 0.179 0.0
C18 C 0.07959 0.54427 0.11778 0.0
C19 C 1.00524 0.45148 0.15376 0.0
O20 O 0.12731 0.48069 0.155 0.0
O21 O 0.15636 0.52859 0.13186 0.0
O22 O 0.08488 0.48501 0.18477 0.0
O23 O 0.09831 0.53789 0.17988 0.0
O24 O 0.15852 0.57669 0.15229 0.0
O25 O 0.12138 0.59592 0.1666 0.0
O26 O 1.02653 0.56601 0.15225 0.0
O27 O 1.01604 0.53547 0.18256 0.0
O28 O 0.0805 0.57073 0.12655 0.0
O29 O 0.06505 0.51707 0.1314 0.0
O30 O 1.00663 0.47914 0.16224 0.0
O31 O 1.04071 0.46006 0.14449 0.0
H32 H 0.19491 0.5482 0.1773 0.0
H33 H 0.26098 0.56811 0.19661 0.0
H34 H 0.28676 0.51798 0.14715 0.0
H35 H 0.22082 0.49828 0.12798 0.0
H36 H 0.95895 0.49577 0.13903 0.0
H37 H 0.88056 0.45296 0.13201 0.0
H38 H 0.86033 0.50067 0.18552 0.0
H39 H 0.93946 0.54436 0.19208 0.0
La40 La 0.66273 0.05715 0.47866 0.0
La41 La 0.60839 0.08162 0.47147 0.0
C42 C 0.69463 0.02541 0.49276 0.0
C43 C 0.68105 0.98668 0.49879 0.0
C44 C 0.69267 0.96951 0.48528 0.0
C45 C 0.68395 0.93478 0.49149 0.0
C46 C 0.66371 0.91639 0.5115 0.0
C47 C 0.65116 0.93314 0.52484 0.0
C48 C 0.65982 0.96793 0.51859 0.0
C49 C 0.65975 0.07566 0.43818 0.0
C50 C 0.55909 0.9937 0.4712 0.0
C51 C 0.57681 0.11449 0.45922 0.0
C52 C 0.5847 0.15031 0.46482 0.0
C53 C 0.6085 0.17021 0.48335 0.0
C54 C 0.61346 0.20285 0.48931 0.0
C55 C 0.59491 0.21639 0.47679 0.0
C56 C 0.57206 0.19679 0.4579 0.0
C57 C 0.56694 0.16404 0.45203 0.0
C58 C 0.61366 0.06534 0.5123 0.0
C59 C 0.71344 0.14599 0.47608 0.0
O60 O 0.69292 0.03249 0.47225 0.0
O61 O 0.68178 0.04001 0.5052 0.0
O62 O 0.69417 0.08286 0.44723 0.0
O63 O 0.62788 0.05682 0.45127 0.0
O64 O 0.59481 1.00192 0.48048 0.0
O65 O 0.55957 0.02164 0.46266 0.0
O66 O 0.55992 0.088 0.47465 0.0
O67 O 0.6086 0.11847 0.44906 0.0
O68 O 0.57932 0.05867 0.5037 0.0
O69 O 0.64431 0.08308 0.4986 0.0
O70 O 0.67541 0.13744 0.47046 0.0
O71 O 0.71587 0.11864 0.48246 0.0
H72 H 0.70934 0.98336 0.47002 0.0
H73 H 0.69341 0.92247 0.48063 0.0
H74 H 0.63592 0.92004 0.54045 0.0
H75 H 0.65077 0.98051 0.5295 0.0
H76 H 0.62249 0.16004 0.49344 0.0
H77 H 0.63082 0.21681 0.50407 0.0
H78 H 0.55803 0.2067 0.44763 0.0
H79 H 0.54865 0.14915 0.43761 0.0
La80 La 0.60087 0.59909 0.84716 0.0
La81 La 0.54035 0.51432 0.84874 0.0
C82 C 0.64011 0.66832 0.83461 0.0
C83 C 0.63131 0.69535 0.82823 0.0
C84 C 0.60404 0.69895 0.84044 0.0
C85 C 0.59844 0.72636 0.83434 0.0
C86 C 0.61994 0.75073 0.81588 0.0
C87 C 0.64638 0.74626 0.80351 0.0
C88 C 0.65203 0.71904 0.80965 0.0
C89 C 0.58522 0.5676 0.88584 0.0
C90 C 0.49326 0.55387 0.85077 0.0
C91 C 0.50402 0.44431 0.85768 0.0
C92 C 0.51472 0.41867 0.85277 0.0
C93 C 0.54541 0.42894 0.83656 0.0
C94 C 0.55379 0.40367 0.83125 0.0
C95 C 0.53175 0.36752 0.84206 0.0
C96 C 0.50166 0.35779 0.85861 0.0
C97 C 0.49323 0.38308 0.86386 0.0
C98 C 0.55755 0.54543 0.8095 0.0
C99 C 0.64836 0.55978 0.84853 0.0
O100 O 0.63488 0.65709 0.85498 0.0
O101 O 0.6258 0.64014 0.82154 0.0
O102 O 0.62328 0.59883 0.87966 0.0
O103 O 0.55744 0.55649 0.87111 0.0
O104 O 0.53415 0.58663 0.84653 0.0
O105 O 0.48841 0.52136 0.85425 0.0
O106 O 0.49384 0.45614 0.84103 0.0
O107 O 0.53049 0.47233 0.87082 0.0
O108 O 0.52009 0.5139 0.81565 0.0
O109 O 0.58443 0.55679 0.82472 0.0
O110 O 0.60691 0.52677 0.85049 0.0
O111 O 0.65405 0.59275 0.84572 0.0
H112 H 0.58748 0.68096 0.85483 0.0
H113 H 0.57805 0.72903 0.84438 0.0
H114 H 0.66273 0.76376 0.78897 0.0
H115 H 0.67304 0.7167 0.79989 0.0
H116 H 0.56237 0.45628 0.82775 0.0
H117 H 0.57677 0.41213 0.81826 0.0
H118 H 0.4846 0.33061 0.86758 0.0
H119 H 0.46958 0.37465 0.87649 0.0
C120 C 0.58397 0.02777 0.17858 0.0
N121 N 0.61277 0.05543 0.19284 0.0
N122 N 0.55048 0.99487 0.18917 0.0
C123 C 0.58929 0.03192 0.15441 0.0
C124 C 0.55998 1.00316 0.21027 0.0
N125 N 0.59774 0.03949 0.21257 0.0
C126 C 0.53234 0.9754 0.22874 0.0
H127 H 0.57333 0.04385 0.14779 0.0
H128 H 0.57329 1.0035 0.14715 0.0
H129 H 0.62447 0.05176 0.14975 0.0
H130 H 0.54432 0.95911 0.23332 0.0
H131 H 0.49747 0.95435 0.22413 0.0
H132 H 0.53472 0.991 0.24305 0.0
C133 C 0.6213 0.55731 0.55029 0.0
N134 N 0.62001 0.57718 0.56601 0.0
N135 N 0.61606 0.52622 0.55892 0.0
C136 C 0.62814 0.56842 0.52661 0.0
C137 C 0.61117 0.52768 0.58037 0.0
N138 N 0.61327 0.55844 0.58466 0.0
C139 C 0.60594 0.49984 0.5972 0.0
H140 H 0.61423 0.54309 0.51647 0.0
H141 H 0.66382 0.5895 0.5232 0.0
H142 H 0.61308 0.58216 0.52211 0.0
H143 H 0.63865 0.51207 0.60386 0.0
H144 H 0.59184 0.47167 0.59011 0.0
H145 H 0.58474 0.49532 0.61074 0.0
C146 C 0.07054 0.55572 0.85597 0.0
N147 N 0.09694 0.55252 0.86994 0.0
N148 N 1.03743 0.55349 0.86659 0.0
C149 C 0.07554 0.55921 0.83189 0.0
C150 C 1.04535 0.54915 0.8874 0.0
N151 N 0.0797 0.54842 0.88942 0.0
C152 C 1.01908 0.54581 0.90632 0.0
H153 H 0.1021 0.5898 0.82717 0.0
H154 H 1.04478 0.55001 0.82402 0.0
H155 H 0.08471 0.54165 0.82625 0.0
H156 H 0.99221 0.51484 0.91005 0.0
H157 H 1.0044 0.56013 0.9026 0.0
H158 H 1.03957 0.55873 0.92096 0.0
C159 C 0.13119 0.57055 0.45401 0.0
N160 N 0.10176 0.5431 0.43993 0.0
N161 N 0.16029 0.60522 0.44352 0.0
C162 C 0.13089 0.56381 0.47795 0.0
C163 C 0.14769 0.59769 0.42262 0.0
N164 N 0.11228 0.56024 0.42042 0.0
C165 C 0.17135 0.62698 0.40423 0.0
H166 H 0.14808 0.5912 0.48662 0.0
H167 H 0.14799 0.55154 0.48126 0.0
H168 H 0.09675 0.54279 0.48409 0.0
H169 H 0.20718 0.64291 0.40567 0.0
H170 H 0.16538 0.64821 0.40529 0.0
H171 H 0.16027 0.61383 0.38815 0.0
C172 C 0.59095 0.0724 0.77323 0.0
N173 N 0.59871 0.05572 0.75813 0.0
N174 N 0.5975 0.10423 0.76477 0.0
C175 C 0.58004 0.05933 0.79658 0.0
C176 C 0.60954 0.10631 0.744 0.0
N177 N 0.61072 0.07719 0.74003 0.0
C178 C 0.61713 0.1352 0.72716 0.0
H179 H 0.54402 0.03698 0.79836 0.0
H180 H 0.59082 0.08367 0.80699 0.0
H181 H 0.59574 0.04659 0.80215 0.0
H182 H 0.65258 0.16019 0.72657 0.0
H183 H 0.59864 0.14565 0.73112 0.0
H184 H 0.60731 0.12258 0.71089 0.0
C185 C 0.47306 0.39787 0.13601 0.0
N186 N 0.48283 0.39644 0.11534 0.0
N187 N 0.45355 0.4144 0.13666 0.0
C188 C 0.4879 0.38791 0.15565 0.0
C189 C 0.45185 0.42295 0.11565 0.0
N190 N 0.47071 0.41298 0.10266 0.0
C191 C 0.4296 0.43927 0.10787 0.0
H192 H 0.46274 0.35678 0.15978 0.0
H193 H 0.49225 0.40462 0.16981 0.0
H194 H 0.51925 0.39343 0.15246 0.0
H195 H 0.45317 0.47119 0.1079 0.0
H196 H 0.40198 0.42957 0.11884 0.0
H197 H 0.4172 0.43021 0.09119 0.0
H198 H 0.36079 0.57237 0.16078 0.0
H199 H 0.4045 0.55727 0.17873 0.0
H200 H 0.319 0.51183 0.23451 0.0
H201 H 0.27426 0.5259 0.21633 0.0
H202 H 0.4451 0.55942 0.21997 0.0
H203 H 0.28508 0.41603 0.20334 0.0
H204 H 0.29511 0.45935 0.19316 0.0
H205 H 0.28757 0.44786 0.22169 0.0
C206 C 0.35224 0.56046 0.17717 0.0
C207 C 0.31342 0.54912 0.18687 0.0
C208 C 0.3775 0.55222 0.18755 0.0
C209 C 0.3642 0.53248 0.2077 0.0
C210 C 0.32936 0.52658 0.21882 0.0
H211 H 0.40595 0.37488 0.17275 0.0
H212 H 0.39212 0.4007 0.20299 0.0
C213 C 0.30389 0.53472 0.2084 0.0
C214 C 0.37887 0.50963 0.21332 0.0
H215 H 0.34816 0.42266 0.19917 0.0
C216 C 0.42375 0.52905 0.21633 0.0
C217 C 0.35081 0.46968 0.20931 0.0
C218 C 0.30194 0.44678 0.20669 0.0
C219 C 0.44205 0.51088 0.21225 0.0
C220 C 0.41492 0.47315 0.20415 0.0
C221 C 0.36932 0.45193 0.2048 0.0
C222 C 0.4323 0.4593 0.18979 0.0
C223 C 0.49066 0.53331 0.21512 0.0
C224 C 0.46031 0.4836 0.1726 0.0
C225 C 0.46852 0.46897 0.15571 0.0
C226 C 0.44791 0.42954 0.15522 0.0
C227 C 0.42168 0.40535 0.17279 0.0
C228 C 0.41409 0.42017 0.19005 0.0
H229 H 0.50126 0.54905 0.23048 0.0
H230 H 0.50009 0.51435 0.21532 0.0
H231 H 0.5085 0.55528 0.2018 0.0
H232 H 0.47369 0.5135 0.17139 0.0
H233 H 0.48987 0.48827 0.14258 0.0
H234 H 0.79881 0.176 0.48454 0.0
H235 H 0.86547 0.24311 0.48024 0.0
H236 H 0.78781 0.27653 0.45882 0.0
H237 H 0.72118 0.20989 0.46342 0.0
H238 H 0.90153 0.29067 0.44445 0.0
H239 H 0.8623 0.35583 0.50376 0.0
H240 H 0.83168 0.30441 0.50243 0.0
H241 H 0.82048 0.32922 0.4838 0.0
C242 C 0.79577 0.19766 0.47915 0.0
C243 C 0.75425 0.18723 0.47451 0.0
C244 C 0.83409 0.23615 0.47661 0.0
C245 C 0.83203 0.2654 0.46952 0.0
C246 C 0.79059 0.255 0.46483 0.0
H247 H 1.01659 0.51023 0.4343 0.0
H248 H 0.95261 0.44268 0.44149 0.0
C249 C 0.75232 0.21659 0.46737 0.0
C250 C 0.87309 0.3064 0.46631 0.0
H251 H 0.92223 0.39949 0.47977 0.0
C252 C 0.90616 0.31438 0.45235 0.0
C253 C 0.87954 0.33769 0.47654 0.0
C254 C 0.84684 0.33141 0.49263 0.0
C255 C 0.94446 0.35246 0.44788 0.0
C256 C 0.9506 0.38376 0.45788 0.0
C257 C 0.91777 0.37575 0.47201 0.0
C258 C 0.99012 0.42502 0.45347 0.0
C259 C 0.97739 0.35891 0.43188 0.0
C260 C 1.03287 0.43822 0.45801 0.0
C261 C 0.06952 0.47695 0.45374 0.0
C262 C 0.06426 0.5033 0.44481 0.0
C263 C 1.02161 0.49031 0.44065 0.0
C264 C 0.98502 0.45174 0.44496 0.0
H265 H 0.96309 0.33348 0.4217 0.0
H266 H 0.99015 0.38447 0.42113 0.0
H267 H 1.00543 0.36418 0.4408 0.0
H268 H 1.03792 0.41863 0.46501 0.0
H269 H 0.10204 0.48631 0.45723 0.0
H270 H 0.68331 0.82391 0.79927 0.0
H271 H 0.67615 0.87305 0.78842 0.0
H272 H 0.54015 0.79649 0.80764 0.0
H273 H 0.54672 0.74671 0.81823 0.0
H274 H 0.61927 0.86912 0.7575 0.0
H275 H 0.58955 0.89593 0.83961 0.0
H276 H 0.61114 0.87064 0.8353 0.0
H277 H 0.5537 0.84643 0.83191 0.0
C278 C 0.65167 0.81721 0.80105 0.0
C279 C 0.61557 0.78107 0.80964 0.0
C280 C 0.64774 0.84554 0.79492 0.0
C281 C 0.60776 0.83872 0.7974 0.0
C282 C 0.57158 0.80275 0.80593 0.0
H283 H 0.53166 0.98498 0.77411 0.0
H284 H 0.53224 0.93085 0.78238 0.0
C285 C 0.57544 0.77428 0.81202 0.0
C286 C 0.60404 0.86917 0.79079 0.0
H287 H 0.58439 0.92824 0.81027 0.0
C288 C 0.61167 0.88207 0.76904 0.0
C289 C 0.59399 0.88603 0.8058 0.0
C290 C 0.58695 0.87438 0.8295 0.0
C291 C 0.60908 0.911 0.76187 0.0
C292 C 0.59959 0.92825 0.77694 0.0
C293 C 0.59163 0.9151 0.79867 0.0
C294 C 0.59841 0.96037 0.77068 0.0
C295 C 0.61567 0.9222 0.73811 0.0
C296 C 0.63527 0.99505 0.76129 0.0
C297 C 0.63481 0.02586 0.75653 0.0
C298 C 0.59774 0.02282 0.76131 0.0
C299 C 0.56071 0.98805 0.77043 0.0
C300 C 0.56107 0.95718 0.77512 0.0
H301 H 0.60923 0.89891 0.72806 0.0
H302 H 0.59395 0.92901 0.73264 0.0
H303 H 0.65016 0.94817 0.73523 0.0
H304 H 0.66488 0.99873 0.75817 0.0
H305 H 0.66395 0.05259 0.74982 0.0
H306 H 0.80909 0.39829 0.14527 0.0
H307 H 0.73328 0.36235 0.13266 0.0
H308 H 0.73777 0.45934 0.14597 0.0
H309 H 0.81329 0.49571 0.15792 0.0
H310 H 0.65859 0.37431 0.16215 0.0
H311 H 0.70201 0.40171 0.07443 0.0
H312 H 0.72617 0.38774 0.0931 0.0
H313 H 0.74185 0.43515 0.09391 0.0
C314 C 0.79385 0.41191 0.14549 0.0
C315 C 0.81719 0.44989 0.15258 0.0
C316 C 0.75065 0.39131 0.13837 0.0
C317 C 0.73041 0.40844 0.13835 0.0
C318 C 0.7531 0.44577 0.14595 0.0
H319 H 0.56557 0.44691 0.10106 0.0
H320 H 0.61969 0.436 0.10155 0.0
C321 C 0.79611 0.46637 0.15295 0.0
C322 C 0.68582 0.38863 0.13006 0.0
H323 H 0.63426 0.38596 0.0844 0.0
C324 C 0.65239 0.37536 0.14509 0.0
C325 C 0.67851 0.39039 0.10782 0.0
C326 C 0.71385 0.40441 0.09123 0.0
C327 C 0.61297 0.36726 0.13867 0.0
C328 C 0.60696 0.37214 0.11655 0.0
C329 C 0.63896 0.38208 0.10129 0.0
C330 C 0.57269 0.37512 0.11001 0.0
C331 C 0.58012 0.35741 0.1559 0.0
C332 C 0.52814 0.34404 0.11328 0.0
C333 C 0.49744 0.35046 0.1131 0.0
C334 C 0.51099 0.38777 0.1093 0.0
C335 C 0.55468 0.41792 0.10375 0.0
C336 C 0.58542 0.41163 0.10408 0.0
H337 H 0.59218 0.3588 0.1725 0.0
H338 H 0.57234 0.37752 0.15457 0.0
H339 H 0.54932 0.32776 0.15367 0.0
H340 H 0.51769 0.3156 0.11761 0.0
H341 H 0.46371 0.32705 0.1175 0.0
H342 H 0.47851 0.96641 0.45553 0.0
H343 H 0.4117 0.89961 0.4537 0.0
H344 H 0.47997 0.86048 0.48152 0.0
H345 H 0.54679 0.92742 0.48388 0.0
H346 H 0.39359 0.84039 0.43194 0.0
H347 H 0.37242 0.80047 0.51933 0.0
H348 H 0.41102 0.8497 0.50941 0.0
H349 H 0.42443 0.8177 0.50862 0.0
C350 C 0.47942 0.94369 0.46138 0.0
C351 C 0.51831 0.95262 0.46995 0.0
C352 C 0.44099 0.90531 0.46031 0.0
C353 C 0.44011 0.8746 0.46781 0.0
C354 C 0.47907 0.8834 0.47614 0.0
H355 H 0.23368 0.62227 0.46202 0.0
H356 H 0.30217 0.68731 0.46912 0.0
C357 C 0.51754 0.92186 0.47732 0.0
C358 C 0.39886 0.83361 0.46614 0.0
H359 H 0.32461 0.74973 0.49538 0.0
C360 C 0.37856 0.82073 0.44588 0.0
C361 C 0.37891 0.80747 0.48423 0.0
C362 C 0.39753 0.81955 0.50666 0.0
C363 C 0.33951 0.7829 0.44317 0.0
C364 C 0.31935 0.75692 0.46127 0.0
C365 C 0.33985 0.76948 0.48149 0.0
C366 C 0.27661 0.71703 0.45939 0.0
C367 C 0.3205 0.77087 0.42079 0.0
C368 C 0.23877 0.7117 0.45246 0.0
C369 C 0.19981 0.67469 0.44859 0.0
C370 C 0.1975 0.64199 0.45166 0.0
C371 C 0.23448 0.64696 0.45975 0.0
C372 C 0.27365 0.68413 0.46365 0.0
H373 H 0.34533 0.79002 0.40804 0.0
H374 H 0.30703 0.74074 0.41797 0.0
H375 H 0.29341 0.77253 0.41908 0.0
H376 H 0.23969 0.73633 0.44949 0.0
H377 H 0.17172 0.67159 0.44246 0.0
H378 H 0.47159 0.28858 0.83996 0.0
H379 H 0.48375 0.24349 0.82927 0.0
H380 H 0.62045 0.3382 0.81787 0.0
H381 H 0.60907 0.38338 0.8295 0.0
H382 H 0.51093 0.23775 0.79096 0.0
H383 H 0.62921 0.26626 0.85404 0.0
H384 H 0.59796 0.2834 0.8557 0.0
H385 H 0.64645 0.3089 0.83901 0.0
C386 C 0.50449 0.29988 0.83562 0.0
C387 C 0.53936 0.33981 0.83578 0.0
C388 C 0.51131 0.27399 0.82931 0.0
C389 C 0.55317 0.28722 0.82306 0.0
C390 C 0.58802 0.32704 0.82307 0.0
H391 H 0.65706 0.18151 0.76735 0.0
H392 H 0.64565 0.22532 0.78217 0.0
C393 C 0.58129 0.35297 0.82946 0.0
C394 C 0.55983 0.2595 0.81571 0.0
H395 H 0.62014 0.22855 0.82464 0.0
C396 C 0.53458 0.23557 0.79846 0.0
C397 C 0.59074 0.25655 0.82543 0.0
C398 C 0.61735 0.27986 0.8447 0.0
C399 C 0.53998 0.20951 0.79041 0.0
C400 C 0.5711 0.20681 0.80001 0.0
C401 C 0.5963 0.23062 0.81728 0.0
C402 C 0.57849 0.17995 0.79203 0.0
C403 C 0.51309 0.18575 0.77129 0.0
C404 C 0.54492 0.13982 0.79307 0.0
C405 C 0.5515 0.11487 0.78463 0.0
C406 C 0.59176 0.12957 0.77503 0.0
C407 C 0.62568 0.1696 0.77455 0.0
C408 C 0.61919 0.19454 0.78304 0.0
H409 H 0.49821 0.19739 0.76275 0.0
H410 H 0.53345 0.18456 0.75958 0.0
H411 H 0.48618 0.15585 0.77702 0.0
H412 H 0.51347 0.12782 0.80023 0.0
H413 H 0.52486 0.08414 0.7851 0.0
H414 H 0.71992 0.89996 0.50631 0.0
H415 H 0.7094 0.84152 0.51758 0.0
H416 H 0.5837 0.79418 0.54523 0.0
H417 H 0.59322 0.85211 0.53328 0.0
H418 H 0.69759 0.80989 0.55864 0.0
H419 H 0.5538 0.70748 0.50728 0.0
H420 H 0.58726 0.75906 0.50319 0.0
H421 H 0.54718 0.73515 0.52463 0.0
C422 C 0.68966 0.87692 0.51447 0.0
C423 C 0.65721 0.88069 0.51865 0.0
C424 C 0.68389 0.84362 0.52109 0.0
C425 C 0.64551 0.81318 0.53198 0.0
C426 C 0.61325 0.81696 0.53648 0.0
H427 H 0.56212 0.58747 0.57818 0.0
H428 H 0.56807 0.64556 0.57191 0.0
C429 C 0.61897 0.85031 0.52985 0.0
C430 C 0.63988 0.7779 0.53884 0.0
H431 H 0.5763 0.68084 0.53159 0.0
C432 C 0.67103 0.78167 0.55274 0.0
C433 C 0.60514 0.74102 0.5312 0.0
C434 C 0.5716 0.73529 0.5156 0.0
C435 C 0.66845 0.74967 0.55917 0.0
C436 C 0.63417 0.71295 0.55123 0.0
C437 C 0.60254 0.709 0.53767 0.0
C438 C 0.63149 0.67854 0.55611 0.0
C439 C 0.70226 0.75541 0.57455 0.0
C440 C 0.66507 0.67777 0.54932 0.0
C441 C 0.66168 0.64476 0.55297 0.0
C442 C 0.62456 0.61187 0.56333 0.0
C443 C 0.59119 0.61271 0.57035 0.0
C444 C 0.5945 0.64571 0.56666 0.0
H445 H 0.71841 0.78219 0.58375 0.0
H446 H 0.68732 0.73058 0.58621 0.0
H447 H 0.72795 0.75787 0.56519 0.0
H448 H 0.69357 0.70247 0.54083 0.0
H449 H 0.68786 0.64472 0.54755 0.0
H450 H 0.65239 0.4981 0.85494 0.0
H451 H 0.71523 0.49793 0.85671 0.0
H452 H 0.80271 0.62056 0.84489 0.0
H453 H 0.74016 0.6208 0.84382 0.0
H454 H 0.77586 0.50663 0.83547 0.0
H455 H 0.8804 0.63017 0.88812 0.0
H456 H 0.82441 0.60994 0.88298 0.0
H457 H 0.8672 0.64392 0.86385 0.0
C458 C 0.6849 0.52542 0.85287 0.0
C459 C 0.6891 0.55955 0.8494 0.0
C460 C 0.72194 0.52532 0.85386 0.0
C461 C 0.76659 0.55935 0.85162 0.0
C462 C 0.77054 0.59335 0.84771 0.0
H463 H 1.03781 0.61435 0.85257 0.0
H464 H 0.97552 0.61545 0.84866 0.0
C465 C 0.73356 0.59347 0.84679 0.0
C466 C 0.8075 0.55892 0.85286 0.0
H467 H 0.91474 0.60792 0.87149 0.0
C468 C 0.80581 0.52902 0.84359 0.0
C469 C 0.84874 0.5873 0.86322 0.0
C470 C 0.85534 0.61942 0.8753 0.0
C471 C 0.84175 0.52722 0.84384 0.0
C472 C 0.88299 0.55564 0.85414 0.0
C473 C 0.88475 0.58557 0.86337 0.0
C474 C 0.92347 0.55471 0.85564 0.0
C475 C 0.83508 0.49482 0.83204 0.0
C476 C 0.91869 0.52073 0.86104 0.0
C477 C 0.95515 0.5201 0.86306 0.0
C478 C 0.99977 0.55324 0.85964 0.0
C479 C 1.00494 0.58741 0.85444 0.0
C480 C 0.96833 0.58808 0.85251 0.0
H481 H 0.81012 0.48394 0.81916 0.0
H482 H 0.86604 0.50405 0.82453 0.0
H483 H 0.8231 0.4705 0.84366 0.0
H484 H 0.88633 0.49417 0.86462 0.0
H485 H 0.94828 0.49327 0.86814 0.0
H486 H 0.16899 0.66892 0.17086 0.0
H487 H 0.23692 0.7351 0.17295 0.0
H488 H 0.31095 0.69822 0.15418 0.0
H489 H 0.2429 0.63162 0.15211 0.0
H490 H 0.34724 0.74794 0.18967 0.0
H491 H 0.31182 0.81019 0.12247 0.0
H492 H 0.26925 0.78383 0.14263 0.0
H493 H 0.28177 0.75893 0.12645 0.0
C494 C 0.19963 0.67474 0.16711 0.0
C495 C 0.20018 0.64469 0.16121 0.0
C496 C 0.23858 0.71282 0.16818 0.0
C497 C 0.27926 0.72205 0.16337 0.0
C498 C 0.28007 0.69205 0.1578 0.0
H499 H 0.55084 0.93862 0.17434 0.0
H500 H 0.48637 0.87235 0.16619 0.0
C501 C 0.24102 0.6539 0.1566 0.0
C502 C 0.32084 0.76277 0.1647 0.0
H503 H 0.37256 0.85473 0.14468 0.0
C504 C 0.35295 0.77122 0.17968 0.0
C505 C 0.32845 0.79339 0.15178 0.0
C506 C 0.29623 0.78623 0.13478 0.0
C507 C 0.39152 0.80932 0.18258 0.0
C508 C 0.39908 0.84005 0.16972 0.0
C509 C 0.36714 0.83146 0.15455 0.0
C510 C 0.43897 0.88133 0.17236 0.0
C511 C 0.42295 0.81636 0.20004 0.0
C512 C 0.43444 0.90937 0.17733 0.0
C513 C 0.47136 0.94736 0.18152 0.0
C514 C 0.51371 0.95831 0.18072 0.0
C515 C 0.51854 0.93091 0.17482 0.0
C516 C 0.48162 0.89291 0.17051 0.0
H517 H 0.40698 0.79209 0.21216 0.0
H518 H 0.45058 0.81927 0.1926 0.0
H519 H 0.4365 0.84328 0.20858 0.0
H520 H 0.40216 0.90152 0.17879 0.0
H521 H 0.46687 0.96788 0.18635 0.0
H522 H 0.66486 0.28271 0.49556 0.0
H523 H 0.6686 0.3361 0.50848 0.0
H524 H 0.5374 0.28086 0.48577 0.0
H525 H 0.53251 0.22654 0.47379 0.0
H526 H 0.66205 0.387 0.4872 0.0
H527 H 0.52769 0.30087 0.54768 0.0
H528 H 0.55167 0.28222 0.53463 0.0
H529 H 0.51128 0.28291 0.52086 0.0
C530 C 0.63654 0.28161 0.49355 0.0
C531 C 0.59824 0.25001 0.48375 0.0
C532 C 0.63889 0.31237 0.5008 0.0
C533 C 0.603 0.31223 0.49848 0.0
C534 C 0.56518 0.28127 0.48821 0.0
H535 H 0.55438 0.47159 0.5324 0.0
H536 H 0.55218 0.42041 0.51634 0.0
C537 C 0.56269 0.25042 0.48106 0.0
C538 C 0.60524 0.34453 0.50669 0.0
H539 H 0.55481 0.36526 0.54075 0.0
C540 C 0.63871 0.38225 0.49897 0.0
C541 C 0.57482 0.33839 0.5221 0.0
C542 C 0.5396 0.29898 0.53198 0.0
C543 C 0.64214 0.41382 0.50599 0.0
C544 C 0.61153 0.40757 0.52124 0.0
C545 C 0.57806 0.36993 0.52894 0.0
C546 C 0.61413 0.43977 0.52982 0.0
C547 C 0.67808 0.45358 0.49679 0.0
C548 C 0.64957 0.46748 0.54272 0.0
C549 C 0.65068 0.49647 0.55185 0.0
C550 C 0.61652 0.4983 0.54814 0.0
C551 C 0.58128 0.47086 0.53512 0.0
C552 C 0.58 0.4417 0.52608 0.0
H553 H 0.69261 0.45249 0.48183 0.0
H554 H 0.66551 0.4697 0.4931 0.0
H555 H 0.70448 0.46984 0.50892 0.0
H556 H 0.67584 0.46613 0.54614 0.0
H557 H 0.67778 0.51718 0.5621 0.0
H558 H 0.48856 0.61477 0.8569 0.0
H559 H 0.42535 0.61403 0.85974 0.0
H560 H 0.33901 0.49249 0.8482 0.0
H561 H 0.40172 0.49291 0.84724 0.0
H562 H 0.3669 0.61067 0.84417 0.0
H563 H 0.25437 0.47155 0.88757 0.0
H564 H 0.31086 0.49285 0.88358 0.0
H565 H 0.27096 0.46472 0.86265 0.0
C566 C 0.45614 0.58745 0.85529 0.0
C567 C 0.45235 0.55378 0.85212 0.0
C568 C 0.41876 0.58698 0.85685 0.0
C569 C 0.37408 0.5529 0.85508 0.0
C570 C 0.37078 0.51956 0.85109 0.0
H571 H 0.1186 0.50934 0.8909 0.0
H572 H 0.18282 0.51302 0.88788 0.0
C573 C 0.40801 0.51986 0.85011 0.0
C574 C 0.33267 0.55274 0.85684 0.0
H575 H 0.2222 0.4972 0.87163 0.0
C576 C 0.33562 0.5855 0.85042 0.0
C577 C 0.28983 0.52129 0.86533 0.0
C578 C 0.2813 0.48581 0.8754 0.0
C579 C 0.29994 0.5876 0.8519 0.0
C580 C 0.25633 0.55527 0.85914 0.0
C581 C 0.25359 0.52267 0.86571 0.0
C582 C 0.21454 0.55459 0.86103 0.0
C583 C 0.31097 0.62604 0.84642 0.0
C584 C 0.20607 0.57603 0.8473 0.0
C585 C 0.1686 0.57532 0.84983 0.0
C586 C 0.13535 0.55221 0.86595 0.0
C587 C 0.14269 0.52945 0.8789 0.0
C588 C 0.18048 0.53091 0.87673 0.0
H589 H 0.34658 0.65005 0.84812 0.0
H590 H 0.30229 0.6265 0.82933 0.0
H591 H 0.29298 0.63159 0.85708 0.0
H592 H 0.22819 0.5935 0.83404 0.0
H593 H 0.16625 0.59359 0.83905 0.0
H594 H 0.97922 0.38846 0.13033 0.0
H595 H 0.9117 0.32168 0.13474 0.0
H596 H 0.87245 0.35486 0.18783 0.0
H597 H 0.93805 0.42154 0.18255 0.0
H598 H 0.88041 0.2692 0.16348 0.0
H599 H 0.76054 0.29577 0.15792 0.0
H600 H 0.81777 0.33323 0.15196 0.0
H601 H 0.79774 0.32267 0.17949 0.0
C602 C 0.95583 0.38156 0.14273 0.0
C603 C 0.96398 0.41066 0.15586 0.0
C604 C 0.91713 0.34321 0.14533 0.0
C605 C 0.88574 0.33273 0.16133 0.0
C606 C 0.89463 0.36181 0.17476 0.0
H607 H 0.69398 0.09306 0.21045 0.0
H608 H 0.75897 0.15969 0.20325 0.0
C609 C 0.93267 0.40018 0.17183 0.0
C610 C 0.84484 0.29143 0.16458 0.0
H611 H 0.73425 0.23484 0.17406 0.0
C612 C 0.84843 0.2618 0.16555 0.0
C613 C 0.80243 0.28089 0.16687 0.0
C614 C 0.79433 0.30981 0.16375 0.0
C615 C 0.81165 0.2227 0.16914 0.0
C616 C 0.76976 0.21253 0.17301 0.0
C617 C 0.76605 0.24208 0.17156 0.0
C618 C 0.72933 0.17165 0.17813 0.0
C619 C 0.81828 0.19279 0.16801 0.0
C620 C 0.68949 0.15592 0.1675 0.0
C621 C 0.65151 0.1182 0.17244 0.0
C622 C 0.6522 0.09464 0.18791 0.0
C623 C 0.69191 0.1103 0.19861 0.0
C624 C 0.72961 0.1484 0.19409 0.0
H625 H 0.84674 0.20307 0.15751 0.0
H626 H 0.82525 0.18716 0.18445 0.0
H627 H 0.78889 0.16532 0.16164 0.0
H628 H 0.68764 0.17284 0.15526 0.0
H629 H 0.62138 0.10755 0.16424 0.0
H630 H 0.11187 0.60211 0.08751 0.0
H631 H 0.12005 0.60013 0.04847 0.0
H632 H 0.07083 0.48245 0.0559 0.0
H633 H 0.06295 0.48435 0.09513 0.0
H634 H 0.16734 0.56958 0.02494 0.0
H635 H 0.98982 0.4938 0.01084 0.0
H636 H 1.01801 0.52483 0.0335 0.0
H637 H 1.00619 0.47887 0.03347 0.0
C638 C 0.1031 0.57589 0.08087 0.0
C639 C 0.08652 0.54331 0.09437 0.0
C640 C 0.10795 0.57487 0.05858 0.0
C641 C 0.09606 0.54118 0.0493 0.0
C642 C 0.08027 0.50877 0.06276 0.0
H643 H 1.04324 0.48385 0.91353 0.0
H644 H 0.05285 0.48029 0.95254 0.0
C645 C 0.07572 0.50987 0.08514 0.0
C646 C 0.09786 0.53942 0.0254 0.0
H647 H 1.03404 0.51044 0.98041 0.0
C648 C 0.13823 0.55644 0.01514 0.0
C649 C 0.05985 0.5222 0.01272 0.0
C650 C 1.01585 0.50389 0.02302 0.0
C651 C 0.14154 0.55664 0.99244 0.0
C652 C 0.10361 0.54027 0.97963 0.0
C653 C 0.06319 0.52289 0.99008 0.0
C654 C 0.10465 0.54163 0.95542 0.0
C655 C 0.18551 0.57387 0.98251 0.0
C656 C 0.13175 0.57698 0.94369 0.0
C657 C 0.12697 0.5787 0.92124 0.0
C658 C 0.0947 0.54526 0.91017 0.0
C659 C 0.06916 0.50977 0.92168 0.0
C660 C 0.07431 0.5079 0.94399 0.0
H661 H 0.20676 0.57292 0.99415 0.0
H662 H 0.18199 0.55857 0.96777 0.0
H663 H 0.20238 0.60455 0.97795 0.0
H664 H 0.15454 0.60362 0.95204 0.0
H665 H 0.14585 0.60649 0.91281 0.0
H666 H 0.72591 0.13003 0.4113 0.0
H667 H 0.72305 0.13799 0.37215 0.0
H668 H 0.58498 0.0409 0.37315 0.0
H669 H 0.58738 0.03474 0.4125 0.0
H670 H 0.71004 0.09541 0.34245 0.0
H671 H 0.57965 0.10878 0.33379 0.0
H672 H 0.60264 0.11111 0.35976 0.0
H673 H 0.55882 0.06517 0.3487 0.0
C674 C 0.69481 0.11092 0.40314 0.0
C675 C 0.65685 0.08187 0.41485 0.0
C676 C 0.69317 0.1154 0.38075 0.0
C677 C 0.65366 0.09045 0.36951 0.0
C678 C 0.61559 0.06147 0.38134 0.0
H679 H 0.62509 0.01328 0.24187 0.0
H680 H 0.64461 0.03251 0.27934 0.0
C681 C 0.61702 0.05766 0.40385 0.0
C682 C 0.65319 0.09266 0.34535 0.0
H683 H 0.59365 0.08673 0.30229 0.0
C684 C 0.68496 0.09422 0.33374 0.0
C685 C 0.62137 0.09215 0.33366 0.0
C686 C 0.58909 0.09469 0.34467 0.0
C687 C 0.68444 0.09326 0.31105 0.0
C688 C 0.65002 0.08882 0.29955 0.0
C689 C 0.61967 0.08942 0.31101 0.0
C690 C 0.64264 0.08011 0.27607 0.0
C691 C 0.72099 0.09706 0.29976 0.0
C692 C 0.63434 0.09996 0.26157 0.0
C693 C 0.62208 0.0882 0.24015 0.0
C694 C 0.61799 0.05648 0.23298 0.0
C695 C 0.62825 0.0379 0.24713 0.0
C696 C 0.63981 0.04918 0.26849 0.0
H697 H 0.75202 0.11554 0.30895 0.0
H698 H 0.71247 0.06818 0.29889 0.0
H699 H 0.7268 0.10957 0.28311 0.0
H700 H 0.63606 0.12379 0.26699 0.0
H701 H 0.61384 0.10261 0.2295 0.0
H702 H 0.50216 0.51849 0.77551 0.0
H703 H 0.52074 0.53483 0.73715 0.0
H704 H 0.65741 0.61827 0.75318 0.0
H705 H 0.63898 0.60119 0.79176 0.0
H706 H 0.56212 0.60274 0.71297 0.0
H707 H 0.65805 0.549 0.712 0.0
H708 H 0.62364 0.53966 0.73459 0.0
H709 H 0.67619 0.58622 0.73077 0.0
C710 C 0.53617 0.54046 0.77089 0.0
C711 C 0.56917 0.55834 0.78659 0.0
C712 C 0.54673 0.54987 0.74896 0.0
C713 C 0.59052 0.57734 0.74224 0.0
C714 C 0.62348 0.59645 0.75796 0.0
H715 H 0.68217 0.61452 0.60759 0.0
H716 H 0.68126 0.62762 0.64593 0.0
C717 C 0.61291 0.5869 0.77998 0.0
C718 C 0.60111 0.58435 0.71874 0.0
H719 H 0.64977 0.57106 0.67892 0.0
C720 C 0.5817 0.59623 0.70554 0.0
C721 C 0.62671 0.5759 0.70904 0.0
C722 C 0.64713 0.56169 0.72224 0.0
C723 C 0.58621 0.59886 0.68291 0.0
C724 C 0.61034 0.58894 0.67321 0.0
C725 C 0.63136 0.57873 0.68642 0.0
C726 C 0.61081 0.5853 0.64947 0.0
C727 C 0.56458 0.6117 0.66956 0.0
C728 C 0.57159 0.55756 0.63874 0.0
C729 C 0.57227 0.55017 0.61703 0.0
C730 C 0.6121 0.57036 0.60575 0.0
C731 C 0.65118 0.59907 0.61612 0.0
C732 C 0.65061 0.60637 0.63791 0.0
H733 H 0.55928 0.62922 0.67911 0.0
H734 H 0.58452 0.62883 0.65499 0.0
H735 H 0.53211 0.58592 0.66415 0.0
H736 H 0.54063 0.54035 0.64742 0.0
H737 H 0.54198 0.5276 0.60923 0.0
H738 H 0.68926 0.09922 0.53557 0.0
H739 H 0.69566 0.09658 0.57511 0.0
H740 H 0.5549 0.01966 0.58129 0.0
H741 H 0.54832 0.02263 0.54199 0.0
H742 H 0.65199 0.11721 0.60494 0.0
H743 H 0.60105 0.97025 0.61995 0.0
H744 H 0.62438 0.9965 0.59446 0.0
H745 H 0.56866 0.97466 0.60118 0.0
C746 C 0.65975 0.08138 0.54538 0.0
C747 C 0.61829 0.06127 0.53577 0.0
C748 C 0.66343 0.07989 0.56791 0.0
C749 C 0.62573 0.05765 0.58109 0.0
C750 C 0.58437 0.03661 0.57141 0.0
H751 H 0.55021 0.01802 0.7154 0.0
H752 H 0.55772 0.01208 0.67667 0.0
C753 C 0.58068 0.03849 0.54897 0.0
C754 C 0.62919 0.05895 0.60502 0.0
H755 H 0.60621 1.00357 0.65063 0.0
C756 C 0.64262 0.09261 0.61498 0.0
C757 C 0.61625 0.02657 0.61799 0.0
C758 C 0.60199 0.98992 0.60796 0.0
C759 C 0.64205 0.0944 0.6376 0.0
C760 C 0.62914 0.06199 0.6507 0.0
C761 C 0.61641 0.02849 0.64067 0.0
C762 C 0.62646 0.06187 0.67473 0.0
C763 C 0.65319 0.13041 0.64712 0.0
C764 C 0.66298 0.09053 0.68679 0.0
C765 C 0.65844 0.09405 0.70876 0.0
C766 C 0.61765 0.06836 0.71915 0.0
C767 C 0.582 0.03781 0.70763 0.0
C768 C 0.58632 0.0346 0.68555 0.0
H769 H 0.65045 0.14775 0.63496 0.0
H770 H 0.63136 0.12325 0.66102 0.0
H771 H 0.6875 0.14867 0.6529 0.0
H772 H 0.69458 0.11124 0.67901 0.0
H773 H 0.68619 0.11784 0.71746 0.0
H774 H 0.5092 0.52997 0.90842 0.0
H775 H 0.49329 0.50076 0.94481 0.0
H776 H 0.62118 0.52945 0.94675 0.0
H777 H 0.63836 0.56172 0.91109 0.0
H778 H 0.48421 0.44428 0.96192 0.0
H779 H 0.62749 0.57282 0.00189 0.0
H780 H 0.61405 0.57469 0.9742 0.0
H781 H 0.64374 0.55696 0.98106 0.0
C782 C 0.53397 0.53031 0.91679 0.0
C783 C 0.57523 0.54861 0.9073 0.0
C784 C 0.52486 0.51346 0.93753 0.0
C785 C 0.5564 0.51364 0.94891 0.0
C786 C 0.59692 0.53029 0.93882 0.0
H787 H 0.46442 0.37051 0.07 0.0
H788 H 0.48858 0.3925 0.03235 0.0
C789 C 0.60663 0.54843 0.91839 0.0
C790 C 0.54655 0.49654 0.97128 0.0
H791 H 0.58506 0.51501 0.02296 0.0
C792 C 0.5062 0.45989 0.9753 0.0
C793 C 0.57504 0.51687 0.98884 0.0
C794 C 0.61723 0.55763 0.98634 0.0
C795 C 0.49285 0.44364 0.99633 0.0
C796 C 0.5218 0.4636 0.0138 0.0
C797 C 0.56285 0.49955 0.00963 0.0
C798 C 0.50899 0.44983 0.03674 0.0
C799 C 0.447 0.4063 -0.0004 0.0
C800 C 0.51468 0.47517 0.0521 0.0
C801 C 0.50289 0.46318 0.07365 0.0
C802 C 0.48366 0.42514 0.08033 0.0
C803 C 0.47862 0.39983 0.06517 0.0
C804 C 0.49182 0.41225 0.04361 0.0
H805 H 0.42538 0.40095 0.98586 0.0
H806 H 0.4482 0.38201 0.00069 0.0
H807 H 0.43195 0.40627 0.01469 0.0
H808 H 0.52825 0.50442 0.04742 0.0
H809 H 0.50913 0.48385 0.08516 0.0
H810 H 0.12703 0.57406 0.21846 0.0
H811 H 0.12312 0.57488 0.25792 0.0
H812 H 1.02311 0.45116 0.26011 0.0
H813 H 1.02971 0.4502 0.2209 0.0
H814 H 0.0668 0.55851 0.28558 0.0
H815 H 0.10146 0.45713 0.30305 0.0
H816 H 0.10496 0.47543 0.2761 0.0
H817 H 0.05273 0.43512 0.2874 0.0
C818 C 0.10433 0.54711 0.22746 0.0
C819 C 0.07912 0.51202 0.21681 0.0
C820 C 0.10202 0.54753 0.25 0.0
C821 C 0.07372 0.51293 0.26224 0.0
C822 C 1.0466 0.47808 0.2513 0.0
H823 H 1.04007 0.53985 0.39911 0.0
H824 H 1.02249 0.52068 0.36129 0.0
C825 C 0.04998 0.47757 0.22886 0.0
C826 C 0.07282 0.51354 0.28635 0.0
H827 H 0.07902 0.47342 0.33284 0.0
C828 C 0.06969 0.53999 0.29589 0.0
C829 C 0.0771 0.48974 0.29995 0.0
C830 C 0.08473 0.4631 0.2911 0.0
C831 C 0.07165 0.54397 0.31842 0.0
C832 C 0.0742 0.51912 0.33206 0.0
C833 C 0.0764 0.49211 0.32252 0.0
C834 C 0.07892 0.52312 0.35602 0.0
C835 C 0.07331 0.57621 0.32712 0.0
C836 C 0.11382 0.52714 0.36634 0.0
C837 C 0.12213 0.53577 0.38822 0.0
C838 C 0.09625 0.5412 0.40014 0.0
C839 C 0.05987 0.53501 0.39031 0.0
C840 C 0.05061 0.52508 0.36855 0.0
H841 H 0.08408 0.59899 0.31452 0.0
H842 H 1.04007 0.56451 0.33259 0.0
H843 H 0.09606 0.58983 0.34099 0.0
H844 H 0.13614 0.52565 0.35722 0.0
H845 H 0.15073 0.54106 0.39552 0.0
loop_
_geom_bond_atom_site_label_1
_geom_bond_atom_site_label_2
_geom_bond_distance
_geom_bond_site_symmetry_2
_ccdc_geom_bond_type
La0 C2 2.928 . S
La0 O20 2.521 . S
La0 O21 2.628 . S
La0 O22 2.554 . S
La0 O23 2.757 1_455 S
La0 O24 2.470 . S
La0 O29 2.482 . S
La0 O31 2.503 1_455 S
La1 C11 2.928 . S
La1 O23 2.482 . S
La1 O25 2.503 1_655 S
La1 O26 2.521 . S
La1 O27 2.628 . S
La1 O28 2.554 . S
La1 O29 2.757 1_655 S
La1 O30 2.470 . S
C2 La0 2.928 . S
C2 C3 1.503 . S
C2 O20 1.261 . S
C2 O21 1.243 . S
C3 C2 1.503 . S
C3 C4 1.394 . S
C3 C8 1.373 . S
C4 C3 1.394 . S
C4 C5 1.380 . S
C4 H32 0.930 . S
C5 C4 1.380 . S
C5 C6 1.376 . S
C5 H33 0.930 . S
C6 C5 1.376 . S
C6 C7 1.370 . S
C7 C6 1.370 . S
C7 C8 1.396 . S
C7 H34 0.929 . S
C8 C3 1.373 . S
C8 C7 1.396 . S
C8 H35 0.929 . S
C9 O22 1.236 1_655 S
C9 O23 1.292 . S
C10 O24 1.258 . S
C10 O25 1.256 . S
C11 La1 2.928 . S
C11 C12 1.503 . S
C11 O26 1.261 . S
C11 O27 1.243 . S
C12 C11 1.503 . S
C12 C13 1.394 . S
C12 C17 1.373 . S
C13 C12 1.394 . S
C13 C14 1.380 . S
C13 H36 0.930 . S
C14 C13 1.380 . S
C14 C15 1.376 . S
C14 H37 0.930 . S
C15 C14 1.376 . S
C15 C16 1.370 . S
C16 C15 1.370 . S
C16 C17 1.396 . S
C16 H38 0.929 . S
C17 C12 1.373 . S
C17 C16 1.396 . S
C17 H39 0.929 . S
C18 O28 1.216 1_455 S
C18 O29 1.302 . S
C19 O30 1.258 . S
C19 O31 1.256 . S
O20 La0 2.521 . S
O20 C2 1.261 . S
O21 La0 2.628 . S
O21 C2 1.243 . S
O22 La0 2.554 . S
O22 C9 1.236 1_455 S
O23 La0 2.757 1_655 S
O23 La1 2.482 . S
O23 C9 1.292 . S
O24 La0 2.470 . S
O24 C10 1.258 . S
O25 La1 2.503 1_455 S
O25 C10 1.256 . S
O26 La1 2.521 . S
O26 C11 1.261 . S
O27 La1 2.628 . S
O27 C11 1.243 . S
O28 La1 2.554 . S
O28 C18 1.216 1_655 S
O29 La0 2.482 . S
O29 La1 2.757 1_455 S
O29 C18 1.302 . S
O30 La1 2.470 . S
O30 C19 1.258 . S
O31 La0 2.503 1_655 S
O31 C19 1.256 . S
H32 C4 0.930 . S
H33 C5 0.930 . S
H34 C7 0.929 . S
H35 C8 0.929 . S
H36 C13 0.930 . S
H37 C14 0.930 . S
H38 C16 0.929 . S
H39 C17 0.929 . S
La40 C42 2.928 1_545 S
La40 O60 2.521 1_545 S
La40 O61 2.628 1_545 S
La40 O62 2.554 . S
La40 O63 2.757 . S
La40 O64 2.470 1_545 S
La40 O69 2.482 . S
La40 O71 2.503 . S
La41 C51 2.928 . S
La41 O63 2.482 . S
La41 O65 2.503 1_545 S
La41 O66 2.521 . S
La41 O67 2.628 . S
La41 O68 2.554 . S
La41 O69 2.757 . S
La41 O70 2.470 . S
C42 La40 2.928 1_565 S
C42 C43 1.503 . S
C42 O60 1.261 . S
C42 O61 1.243 . S
C43 C42 1.503 . S
C43 C44 1.394 . S
C43 C48 1.373 . S
C44 C43 1.394 . S
C44 C45 1.380 . S
C44 H72 0.930 . S
C45 C44 1.380 . S
C45 C46 1.376 . S
C45 H73 0.930 . S
C46 C45 1.376 . S
C46 C47 1.370 . S
C47 C46 1.370 . S
C47 C48 1.396 . S
C47 H74 0.929 . S
C48 C43 1.373 . S
C48 C47 1.396 . S
C48 H75 0.929 . S
C49 O62 1.240 . S
C49 O63 1.289 . S
C50 O64 1.258 . S
C50 O65 1.256 . S
C51 La41 2.928 . S
C51 C52 1.503 . S
C51 O66 1.261 . S
C51 O67 1.243 . S
C52 C51 1.503 . S
C52 C53 1.394 . S
C52 C57 1.373 . S
C53 C52 1.394 . S
C53 C54 1.380 . S
C53 H76 0.930 . S
C54 C53 1.380 . S
C54 C55 1.376 . S
C54 H77 0.930 . S
C55 C54 1.376 . S
C55 C56 1.370 . S
C56 C55 1.370 . S
C56 C57 1.396 . S
C56 H78 0.929 . S
C57 C52 1.373 . S
C57 C56 1.396 . S
C57 H79 0.929 . S
C58 O68 1.240 . S
C58 O69 1.289 . S
C59 O70 1.258 . S
C59 O71 1.256 . S
O60 La40 2.521 1_565 S
O60 C42 1.261 . S
O61 La40 2.628 1_565 S
O61 C42 1.243 . S
O62 La40 2.554 . S
O62 C49 1.240 . S
O63 La40 2.757 . S
O63 La41 2.482 . S
O63 C49 1.289 . S
O64 La40 2.470 1_565 S
O64 C50 1.258 . S
O65 La41 2.503 1_565 S
O65 C50 1.256 . S
O66 La41 2.521 . S
O66 C51 1.261 . S
O67 La41 2.628 . S
O67 C51 1.243 . S
O68 La41 2.554 . S
O68 C58 1.240 . S
O69 La40 2.482 . S
O69 La41 2.757 . S
O69 C58 1.289 . S
O70 La41 2.470 . S
O70 C59 1.258 . S
O71 La40 2.503 . S
O71 C59 1.256 . S
H72 C44 0.930 . S
H73 C45 0.930 . S
H74 C47 0.929 . S
H75 C48 0.929 . S
H76 C53 0.930 . S
H77 C54 0.930 . S
H78 C56 0.929 . S
H79 C57 0.929 . S
La80 C82 2.928 . S
La80 O100 2.521 . S
La80 O101 2.628 . S
La80 O102 2.554 . S
La80 O103 2.757 . S
La80 O104 2.470 . S
La80 O109 2.482 . S
La80 O111 2.503 . S
La81 C91 2.928 . S
La81 O103 2.482 . S
La81 O105 2.503 . S
La81 O106 2.521 . S
La81 O107 2.628 . S
La81 O108 2.554 . S
La81 O109 2.757 . S
La81 O110 2.470 . S
C82 La80 2.928 . S
C82 C83 1.503 . S
C82 O100 1.261 . S
C82 O101 1.243 . S
C83 C82 1.503 . S
C83 C84 1.394 . S
C83 C88 1.373 . S
C84 C83 1.394 . S
C84 C85 1.380 . S
C84 H112 0.930 . S
C85 C84 1.380 . S
C85 C86 1.376 . S
C85 H113 0.930 . S
C86 C85 1.376 . S
C86 C87 1.370 . S
C87 C86 1.370 . S
C87 C88 1.396 . S
C87 H114 0.929 . S
C88 C83 1.373 . S
C88 C87 1.396 . S
C88 H115 0.929 . S
C89 O102 1.240 . S
C89 O103 1.289 . S
C90 O104 1.258 . S
C90 O105 1.256 . S
C91 La81 2.928 . S
C91 C92 1.503 . S
C91 O106 1.261 . S
C91 O107 1.243 . S
C92 C91 1.503 . S
C92 C93 1.394 . S
C92 C97 1.373 . S
C93 C92 1.394 . S
C93 C94 1.380 . S
C93 H116 0.930 . S
C94 C93 1.380 . S
C94 C95 1.376 . S
C94 H117 0.930 . S
C95 C94 1.376 . S
C95 C96 1.370 . S
C96 C95 1.370 . S
C96 C97 1.396 . S
C96 H118 0.929 . S
C97 C92 1.373 . S
C97 C96 1.396 . S
C97 H119 0.929 . S
C98 O108 1.240 . S
C98 O109 1.289 . S
C99 O110 1.258 . S
C99 O111 1.256 . S
O100 La80 2.521 . S
O100 C82 1.261 . S
O101 La80 2.628 . S
O101 C82 1.243 . S
O102 La80 2.554 . S
O102 C89 1.240 . S
O103 La80 2.757 . S
O103 La81 2.482 . S
O103 C89 1.289 . S
O104 La80 2.470 . S
O104 C90 1.258 . S
O105 La81 2.503 . S
O105 C90 1.256 . S
O106 La81 2.521 . S
O106 C91 1.261 . S
O107 La81 2.628 . S
O107 C91 1.243 . S
O108 La81 2.554 . S
O108 C98 1.240 . S
O109 La80 2.482 . S
O109 La81 2.757 . S
O109 C98 1.289 . S
O110 La81 2.470 . S
O110 C99 1.258 . S
O111 La80 2.503 . S
O111 C99 1.256 . S
H112 C84 0.930 . S
H113 C85 0.930 . S
H114 C87 0.929 . S
H115 C88 0.929 . S
H116 C93 0.930 . S
H117 C94 0.930 . S
H118 C96 0.929 . S
H119 C97 0.929 . S
C120 N121 1.317 1_565 S
C120 N122 1.348 . S
C120 C123 1.485 1_565 S
N121 C120 1.317 1_545 S
N121 N125 1.370 . S
N122 C120 1.348 . S
N122 C124 1.346 . S
C123 C120 1.485 1_545 S
C123 H127 0.960 . S
C123 H128 0.961 1_545 S
C123 H129 0.960 . S
C124 N122 1.346 . S
C124 N125 1.307 1_565 S
C124 C126 1.486 . S
N125 N121 1.370 . S
N125 C124 1.307 1_545 S
C126 C124 1.486 . S
C126 H130 0.960 . S
C126 H131 0.960 . S
C126 H132 0.959 . S
H127 C123 0.960 . S
H128 C123 0.961 1_565 S
H129 C123 0.960 . S
H130 C126 0.960 . S
H131 C126 0.960 . S
H132 C126 0.959 . S
C133 N134 1.317 . S
C133 N135 1.348 . S
C133 C136 1.485 . S
N134 C133 1.317 . S
N134 N138 1.370 . S
N135 C133 1.348 . S
N135 C137 1.346 . S
C136 C133 1.485 . S
C136 H140 0.960 . S
C136 H141 0.961 . S
C136 H142 0.960 . S
C137 N135 1.346 . S
C137 N138 1.307 . S
C137 C139 1.486 . S
N138 N134 1.370 . S
N138 C137 1.307 . S
C139 C137 1.486 . S
C139 H143 0.960 . S
C139 H144 0.960 . S
C139 H145 0.959 . S
H140 C136 0.960 . S
H141 C136 0.961 . S
H142 C136 0.960 . S
H143 C139 0.960 . S
H144 C139 0.960 . S
H145 C139 0.959 . S
C146 N147 1.317 . S
C146 N148 1.348 . S
C146 C149 1.485 . S
N147 C146 1.317 . S
N147 N151 1.370 . S
N148 C146 1.348 . S
N148 C150 1.346 . S
C149 C146 1.485 . S
C149 H153 0.960 . S
C149 H154 0.961 . S
C149 H155 0.960 . S
C150 N148 1.346 . S
C150 N151 1.307 . S
C150 C152 1.486 1_455 S
N151 N147 1.370 . S
N151 C150 1.307 . S
C152 C150 1.486 1_655 S
C152 H156 0.960 . S
C152 H157 0.960 . S
C152 H158 0.959 1_655 S
H153 C149 0.960 . S
H154 C149 0.961 . S
H155 C149 0.960 . S
H156 C152 0.960 . S
H157 C152 0.960 . S
H158 C152 0.959 1_455 S
C159 N160 1.317 . S
C159 N161 1.348 . S
C159 C162 1.485 . S
N160 C159 1.317 . S
N160 N164 1.370 . S
N161 C159 1.348 . S
N161 C163 1.346 . S
C162 C159 1.485 . S
C162 H166 0.960 . S
C162 H167 0.961 . S
C162 H168 0.960 . S
C163 N161 1.346 . S
C163 N164 1.307 . S
C163 C165 1.486 . S
N164 N160 1.370 . S
N164 C163 1.307 . S
C165 C163 1.486 . S
C165 H169 0.960 . S
C165 H170 0.960 . S
C165 H171 0.959 . S
H166 C162 0.960 . S
H167 C162 0.961 . S
H168 C162 0.960 . S
H169 C165 0.960 . S
H170 C165 0.960 . S
H171 C165 0.959 . S
C172 N173 1.317 . S
C172 N174 1.348 . S
C172 C175 1.485 . S
N173 C172 1.317 . S
N173 N177 1.370 . S
N174 C172 1.348 . S
N174 C176 1.346 . S
C175 C172 1.485 . S
C175 H179 0.960 . S
C175 H180 0.961 . S
C175 H181 0.960 . S
C176 N174 1.346 . S
C176 N177 1.307 . S
C176 C178 1.486 . S
N177 N173 1.370 . S
N177 C176 1.307 . S
C178 C176 1.486 . S
C178 H182 0.960 . S
C178 H183 0.960 . S
C178 H184 0.959 . S
H179 C175 0.960 . S
H180 C175 0.961 . S
H181 C175 0.960 . S
H182 C178 0.960 . S
H183 C178 0.960 . S
H184 C178 0.959 . S
C185 N186 1.317 . S
C185 N187 1.348 . S
C185 C188 1.485 . S
N186 C185 1.317 . S
N186 N190 1.370 . S
N187 C185 1.348 . S
N187 C189 1.346 . S
C188 C185 1.485 . S
C188 H192 0.960 . S
C188 H193 0.961 . S
C188 H194 0.960 . S
C189 N187 1.346 . S
C189 N190 1.307 . S
C189 C191 1.486 . S
N190 N186 1.370 . S
N190 C189 1.307 . S
C191 C189 1.486 . S
C191 H195 0.960 . S
C191 H196 0.960 . S
C191 H197 0.959 . S
H192 C188 0.960 . S
H193 C188 0.961 . S
H194 C188 0.960 . S
H195 C191 0.960 . S
H196 C191 0.960 . S
H197 C191 0.959 . S
H198 C206 0.929 . S
H199 C208 0.930 . S
H200 C210 0.930 . S
H201 C213 0.929 . S
H202 C216 0.930 . S
H203 C218 0.960 . S
H204 C218 0.960 . S
H205 C218 0.960 . S
C206 H198 0.929 . S
C206 C207 1.377 . S
C206 C208 1.384 . S
C207 C206 1.377 . S
C207 C213 1.390 . S
C208 H199 0.930 . S
C208 C206 1.384 . S
C208 C209 1.372 . S
C209 C208 1.372 . S
C209 C210 1.400 . S
C209 C214 1.490 . S
C210 H200 0.930 . S
C210 C209 1.400 . S
C210 C213 1.386 . S
H211 C227 0.930 . S
H212 C228 0.931 . S
C213 H201 0.929 . S
C213 C207 1.390 . S
C213 C210 1.386 . S
C214 C209 1.490 . S
C214 C216 1.395 . S
C214 C217 1.403 . S
H215 C221 0.930 . S
C216 H202 0.930 . S
C216 C214 1.395 . S
C216 C219 1.403 . S
C217 C214 1.403 . S
C217 C218 1.524 . S
C217 C221 1.400 . S
C218 H203 0.960 . S
C218 H204 0.960 . S
C218 H205 0.960 . S
C218 C217 1.524 . S
C219 C216 1.403 . S
C219 C220 1.392 . S
C219 C223 1.495 . S
C220 C219 1.392 . S
C220 C221 1.385 . S
C220 C222 1.478 . S
C221 H215 0.930 . S
C221 C217 1.400 . S
C221 C220 1.385 . S
C222 C220 1.478 . S
C222 C224 1.381 . S
C222 C228 1.383 . S
C223 C219 1.495 . S
C223 H229 0.959 . S
C223 H230 0.961 . S
C223 H231 0.960 . S
C224 C222 1.381 . S
C224 C225 1.394 . S
C224 H232 0.930 . S
C225 C224 1.394 . S
C225 C226 1.383 . S
C225 H233 0.929 . S
C226 C225 1.383 . S
C226 C227 1.377 . S
C227 H211 0.930 . S
C227 C226 1.377 . S
C227 C228 1.379 . S
C228 H212 0.931 . S
C228 C222 1.383 . S
C228 C227 1.379 . S
H229 C223 0.959 . S
H230 C223 0.961 . S
H231 C223 0.960 . S
H232 C224 0.930 . S
H233 C225 0.929 . S
H234 C242 0.929 . S
H235 C244 0.930 . S
H236 C246 0.930 . S
H237 C249 0.929 . S
H238 C252 0.930 . S
H239 C254 0.960 . S
H240 C254 0.960 . S
H241 C254 0.960 . S
C242 H234 0.929 . S
C242 C243 1.377 . S
C242 C244 1.384 . S
C243 C242 1.377 . S
C243 C249 1.390 . S
C244 H235 0.930 . S
C244 C242 1.384 . S
C244 C245 1.372 . S
C245 C244 1.372 . S
C245 C246 1.400 . S
C245 C250 1.490 . S
C246 H236 0.930 . S
C246 C245 1.400 . S
C246 C249 1.386 . S
H247 C263 0.930 . S
H248 C264 0.931 . S
C249 H237 0.929 . S
C249 C243 1.390 . S
C249 C246 1.386 . S
C250 C245 1.490 . S
C250 C252 1.395 . S
C250 C253 1.403 . S
H251 C257 0.930 . S
C252 H238 0.930 . S
C252 C250 1.395 . S
C252 C255 1.403 . S
C253 C250 1.403 . S
C253 C254 1.524 . S
C253 C257 1.400 . S
C254 H239 0.960 . S
C254 H240 0.960 . S
C254 H241 0.960 . S
C254 C253 1.524 . S
C255 C252 1.403 . S
C255 C256 1.392 . S
C255 C259 1.495 . S
C256 C255 1.392 . S
C256 C257 1.385 . S
C256 C258 1.478 . S
C257 H251 0.930 . S
C257 C253 1.400 . S
C257 C256 1.385 . S
C258 C256 1.478 . S
C258 C260 1.381 . S
C258 C264 1.383 . S
C259 C255 1.495 . S
C259 H265 0.959 . S
C259 H266 0.961 . S
C259 H267 0.960 . S
C260 C258 1.381 . S
C260 C261 1.394 . S
C260 H268 0.930 . S
C261 C260 1.394 . S
C261 C262 1.383 . S
C261 H269 0.929 1_655 S
C262 C261 1.383 . S
C262 C263 1.377 . S
C263 H247 0.930 . S
C263 C262 1.377 . S
C263 C264 1.379 . S
C264 H248 0.931 . S
C264 C258 1.383 . S
C264 C263 1.379 . S
H265 C259 0.959 . S
H266 C259 0.961 . S
H267 C259 0.960 . S
H268 C260 0.930 . S
H269 C261 0.929 1_455 S
H270 C278 0.929 . S
H271 C280 0.930 . S
H272 C282 0.930 . S
H273 C285 0.929 . S
H274 C288 0.930 . S
H275 C290 0.960 . S
H276 C290 0.960 . S
H277 C290 0.960 . S
C278 H270 0.929 . S
C278 C279 1.377 . S
C278 C280 1.384 . S
C279 C278 1.377 . S
C279 C285 1.390 . S
C280 H271 0.930 . S
C280 C278 1.384 . S
C280 C281 1.372 . S
C281 C280 1.372 . S
C281 C282 1.400 . S
C281 C286 1.490 . S
C282 H272 0.930 . S
C282 C281 1.400 . S
C282 C285 1.386 . S
H283 C299 0.930 . S
H284 C300 0.931 . S
C285 H273 0.929 . S
C285 C279 1.390 . S
C285 C282 1.386 . S
C286 C281 1.490 . S
C286 C288 1.395 . S
C286 C289 1.403 . S
H287 C293 0.930 . S
C288 H274 0.930 . S
C288 C286 1.395 . S
C288 C291 1.403 . S
C289 C286 1.403 . S
C289 C290 1.524 . S
C289 C293 1.400 . S
C290 H275 0.960 . S
C290 H276 0.960 . S
C290 H277 0.960 . S
C290 C289 1.524 . S
C291 C288 1.403 . S
C291 C292 1.392 . S
C291 C295 1.495 . S
C292 C291 1.392 . S
C292 C293 1.385 . S
C292 C294 1.478 . S
C293 H287 0.930 . S
C293 C289 1.400 . S
C293 C292 1.385 . S
C294 C292 1.478 . S
C294 C296 1.381 . S
C294 C300 1.383 . S
C295 C291 1.495 . S
C295 H301 0.959 . S
C295 H302 0.961 . S
C295 H303 0.960 . S
C296 C294 1.381 . S
C296 C297 1.394 1_565 S
C296 H304 0.940 1_565 S
C297 C296 1.394 1_545 S
C297 C298 1.383 . S
C297 H305 0.929 . S
C298 C297 1.383 . S
C298 C299 1.377 1_545 S
C299 H283 0.930 . S
C299 C298 1.377 1_565 S
C299 C300 1.379 . S
C300 H284 0.931 . S
C300 C294 1.383 . S
C300 C299 1.379 . S
H301 C295 0.959 . S
H302 C295 0.961 . S
H303 C295 0.960 . S
H304 C296 0.940 1_545 S
H305 C297 0.929 . S
H306 C314 0.929 . S
H307 C316 0.930 . S
H308 C318 0.930 . S
H309 C321 0.929 . S
H310 C324 0.930 . S
H311 C326 0.960 . S
H312 C326 0.960 . S
H313 C326 0.960 . S
C314 H306 0.929 . S
C314 C315 1.377 . S
C314 C316 1.384 . S
C315 C314 1.377 . S
C315 C321 1.390 . S
C316 H307 0.930 . S
C316 C314 1.384 . S
C316 C317 1.372 . S
C317 C316 1.372 . S
C317 C318 1.400 . S
C317 C322 1.490 . S
C318 H308 0.930 . S
C318 C317 1.400 . S
C318 C321 1.386 . S
H319 C335 0.930 . S
H320 C336 0.931 . S
C321 H309 0.929 . S
C321 C315 1.390 . S
C321 C318 1.386 . S
C322 C317 1.490 . S
C322 C324 1.395 . S
C322 C325 1.403 . S
H323 C329 0.930 . S
C324 H310 0.930 . S
C324 C322 1.395 . S
C324 C327 1.403 . S
C325 C322 1.403 . S
C325 C326 1.524 . S
C325 C329 1.400 . S
C326 H311 0.960 . S
C326 H312 0.960 . S
C326 H313 0.960 . S
C326 C325 1.524 . S
C327 C324 1.403 . S
C327 C328 1.392 . S
C327 C331 1.495 . S
C328 C327 1.392 . S
C328 C329 1.385 . S
C328 C330 1.478 . S
C329 H323 0.930 . S
C329 C325 1.400 . S
C329 C328 1.385 . S
C330 C328 1.478 . S
C330 C332 1.381 . S
C330 C336 1.383 . S
C331 C327 1.495 . S
C331 H337 0.959 . S
C331 H338 0.961 . S
C331 H339 0.960 . S
C332 C330 1.381 . S
C332 C333 1.394 . S
C332 H340 0.930 . S
C333 C332 1.394 . S
C333 C334 1.383 . S
C333 H341 0.929 . S
C334 C333 1.383 . S
C334 C335 1.377 . S
C335 H319 0.930 . S
C335 C334 1.377 . S
C335 C336 1.379 . S
C336 H320 0.931 . S
C336 C330 1.383 . S
C336 C335 1.379 . S
H337 C331 0.959 . S
H338 C331 0.961 . S
H339 C331 0.960 . S
H340 C332 0.930 . S
H341 C333 0.929 . S
H342 C350 0.929 . S
H343 C352 0.930 . S
H344 C354 0.930 . S
H345 C357 0.929 . S
H346 C360 0.930 . S
H347 C362 0.960 . S
H348 C362 0.960 . S
H349 C362 0.960 . S
C350 H342 0.929 . S
C350 C351 1.377 . S
C350 C352 1.384 . S
C351 C350 1.377 . S
C351 C357 1.390 . S
C352 H343 0.930 . S
C352 C350 1.384 . S
C352 C353 1.372 . S
C353 C352 1.372 . S
C353 C354 1.400 . S
C353 C358 1.490 . S
C354 H344 0.930 . S
C354 C353 1.400 . S
C354 C357 1.386 . S
H355 C371 0.930 . S
H356 C372 0.931 . S
C357 H345 0.929 . S
C357 C351 1.390 . S
C357 C354 1.386 . S
C358 C353 1.490 . S
C358 C360 1.395 . S
C358 C361 1.403 . S
H359 C365 0.930 . S
C360 H346 0.930 . S
C360 C358 1.395 . S
C360 C363 1.403 . S
C361 C358 1.403 . S
C361 C362 1.524 . S
C361 C365 1.400 . S
C362 H347 0.960 . S
C362 H348 0.960 . S
C362 H349 0.960 . S
C362 C361 1.524 . S
C363 C360 1.403 . S
C363 C364 1.392 . S
C363 C367 1.495 . S
C364 C363 1.392 . S
C364 C365 1.385 . S
C364 C366 1.478 . S
C365 H359 0.930 . S
C365 C361 1.400 . S
C365 C364 1.385 . S
C366 C364 1.478 . S
C366 C368 1.381 . S
C366 C372 1.383 . S
C367 C363 1.495 . S
C367 H373 0.959 . S
C367 H374 0.961 . S
C367 H375 0.960 . S
C368 C366 1.381 . S
C368 C369 1.394 . S
C368 H376 0.930 . S
C369 C368 1.394 . S
C369 C370 1.383 . S
C369 H377 0.929 . S
C370 C369 1.383 . S
C370 C371 1.377 . S
C371 H355 0.930 . S
C371 C370 1.377 . S
C371 C372 1.379 . S
C372 H356 0.931 . S
C372 C366 1.383 . S
C372 C371 1.379 . S
H373 C367 0.959 . S
H374 C367 0.961 . S
H375 C367 0.960 . S
H376 C368 0.930 . S
H377 C369 0.929 . S
H378 C386 0.929 . S
H379 C388 0.930 . S
H380 C390 0.930 . S
H381 C393 0.929 . S
H382 C396 0.930 . S
H383 C398 0.960 . S
H384 C398 0.960 . S
H385 C398 0.960 . S
C386 H378 0.929 . S
C386 C387 1.377 . S
C386 C388 1.384 . S
C387 C386 1.377 . S
C387 C393 1.390 . S
C388 H379 0.930 . S
C388 C386 1.384 . S
C388 C389 1.372 . S
C389 C388 1.372 . S
C389 C390 1.400 . S
C389 C394 1.490 . S
C390 H380 0.930 . S
C390 C389 1.400 . S
C390 C393 1.386 . S
H391 C407 0.930 . S
H392 C408 0.931 . S
C393 H381 0.929 . S
C393 C387 1.390 . S
C393 C390 1.386 . S
C394 C389 1.490 . S
C394 C396 1.395 . S
C394 C397 1.403 . S
H395 C401 0.930 . S
C396 H382 0.930 . S
C396 C394 1.395 . S
C396 C399 1.403 . S
C397 C394 1.403 . S
C397 C398 1.524 . S
C397 C401 1.400 . S
C398 H383 0.960 . S
C398 H384 0.960 . S
C398 H385 0.960 . S
C398 C397 1.524 . S
C399 C396 1.403 . S
C399 C400 1.392 . S
C399 C403 1.495 . S
C400 C399 1.392 . S
C400 C401 1.385 . S
C400 C402 1.478 . S
C401 H395 0.930 . S
C401 C397 1.400 . S
C401 C400 1.385 . S
C402 C400 1.478 . S
C402 C404 1.381 . S
C402 C408 1.383 . S
C403 C399 1.495 . S
C403 H409 0.959 . S
C403 H410 0.961 . S
C403 H411 0.960 . S
C404 C402 1.381 . S
C404 C405 1.394 . S
C404 H412 0.930 . S
C405 C404 1.394 . S
C405 C406 1.383 . S
C405 H413 0.929 . S
C406 C405 1.383 . S
C406 C407 1.377 . S
C407 H391 0.930 . S
C407 C406 1.377 . S
C407 C408 1.379 . S
C408 H392 0.931 . S
C408 C402 1.383 . S
C408 C407 1.379 . S
H409 C403 0.959 . S
H410 C403 0.961 . S
H411 C403 0.960 . S
H412 C404 0.930 . S
H413 C405 0.929 . S
H414 C422 0.929 . S
H415 C424 0.930 . S
H416 C426 0.930 . S
H417 C429 0.929 . S
H418 C432 0.930 . S
H419 C434 0.960 . S
H420 C434 0.960 . S
H421 C434 0.960 . S
C422 H414 0.929 . S
C422 C423 1.377 . S
C422 C424 1.384 . S
C423 C422 1.377 . S
C423 C429 1.390 . S
C424 H415 0.930 . S
C424 C422 1.384 . S
C424 C425 1.372 . S
C425 C424 1.372 . S
C425 C426 1.400 . S
C425 C430 1.490 . S
C426 H416 0.930 . S
C426 C425 1.400 . S
C426 C429 1.386 . S
H427 C443 0.930 . S
H428 C444 0.931 . S
C429 H417 0.929 . S
C429 C423 1.390 . S
C429 C426 1.386 . S
C430 C425 1.490 . S
C430 C432 1.395 . S
C430 C433 1.403 . S
H431 C437 0.930 . S
C432 H418 0.930 . S
C432 C430 1.395 . S
C432 C435 1.403 . S
C433 C430 1.403 . S
C433 C434 1.524 . S
C433 C437 1.400 . S
C434 H419 0.960 . S
C434 H420 0.960 . S
C434 H421 0.960 . S
C434 C433 1.524 . S
C435 C432 1.403 . S
C435 C436 1.392 . S
C435 C439 1.495 . S
C436 C435 1.392 . S
C436 C437 1.385 . S
C436 C438 1.478 . S
C437 H431 0.930 . S
C437 C433 1.400 . S
C437 C436 1.385 . S
C438 C436 1.478 . S
C438 C440 1.381 . S
C438 C444 1.383 . S
C439 C435 1.495 . S
C439 H445 0.959 . S
C439 H446 0.961 . S
C439 H447 0.960 . S
C440 C438 1.381 . S
C440 C441 1.394 . S
C440 H448 0.930 . S
C441 C440 1.394 . S
C441 C442 1.383 . S
C441 H449 0.929 . S
C442 C441 1.383 . S
C442 C443 1.377 . S
C443 H427 0.930 . S
C443 C442 1.377 . S
C443 C444 1.379 . S
C444 H428 0.931 . S
C444 C438 1.383 . S
C444 C443 1.379 . S
H445 C439 0.959 . S
H446 C439 0.961 . S
H447 C439 0.960 . S
H448 C440 0.930 . S
H449 C441 0.929 . S
H450 C458 0.929 . S
H451 C460 0.930 . S
H452 C462 0.930 . S
H453 C465 0.929 . S
H454 C468 0.930 . S
H455 C470 0.960 . S
H456 C470 0.960 . S
H457 C470 0.960 . S
C458 H450 0.929 . S
C458 C459 1.377 . S
C458 C460 1.384 . S
C459 C458 1.377 . S
C459 C465 1.390 . S
C460 H451 0.930 . S
C460 C458 1.384 . S
C460 C461 1.372 . S
C461 C460 1.372 . S
C461 C462 1.400 . S
C461 C466 1.490 . S
C462 H452 0.930 . S
C462 C461 1.400 . S
C462 C465 1.386 . S
H463 C479 0.930 . S
H464 C480 0.931 . S
C465 H453 0.929 . S
C465 C459 1.390 . S
C465 C462 1.386 . S
C466 C461 1.490 . S
C466 C468 1.395 . S
C466 C469 1.403 . S
H467 C473 0.930 . S
C468 H454 0.930 . S
C468 C466 1.395 . S
C468 C471 1.403 . S
C469 C466 1.403 . S
C469 C470 1.524 . S
C469 C473 1.400 . S
C470 H455 0.960 . S
C470 H456 0.960 . S
C470 H457 0.960 . S
C470 C469 1.524 . S
C471 C468 1.403 . S
C471 C472 1.392 . S
C471 C475 1.495 . S
C472 C471 1.392 . S
C472 C473 1.385 . S
C472 C474 1.478 . S
C473 H467 0.930 . S
C473 C469 1.400 . S
C473 C472 1.385 . S
C474 C472 1.478 . S
C474 C476 1.381 . S
C474 C480 1.383 . S
C475 C471 1.495 . S
C475 H481 0.959 . S
C475 H482 0.961 . S
C475 H483 0.960 . S
C476 C474 1.381 . S
C476 C477 1.394 . S
C476 H484 0.930 . S
C477 C476 1.394 . S
C477 C478 1.383 . S
C477 H485 0.929 . S
C478 C477 1.383 . S
C478 C479 1.377 . S
C479 H463 0.930 . S
C479 C478 1.377 . S
C479 C480 1.379 . S
C480 H464 0.931 . S
C480 C474 1.383 . S
C480 C479 1.379 . S
H481 C475 0.959 . S
H482 C475 0.961 . S
H483 C475 0.960 . S
H484 C476 0.930 . S
H485 C477 0.929 . S
H486 C494 0.929 . S
H487 C496 0.930 . S
H488 C498 0.930 . S
H489 C501 0.929 . S
H490 C504 0.930 . S
H491 C506 0.960 . S
H492 C506 0.960 . S
H493 C506 0.960 . S
C494 H486 0.929 . S
C494 C495 1.377 . S
C494 C496 1.384 . S
C495 C494 1.377 . S
C495 C501 1.390 . S
C496 H487 0.930 . S
C496 C494 1.384 . S
C496 C497 1.372 . S
C497 C496 1.372 . S
C497 C498 1.400 . S
C497 C502 1.490 . S
C498 H488 0.930 . S
C498 C497 1.400 . S
C498 C501 1.386 . S
H499 C515 0.930 . S
H500 C516 0.931 . S
C501 H489 0.929 . S
C501 C495 1.390 . S
C501 C498 1.386 . S
C502 C497 1.490 . S
C502 C504 1.395 . S
C502 C505 1.403 . S
H503 C509 0.930 . S
C504 H490 0.930 . S
C504 C502 1.395 . S
C504 C507 1.403 . S
C505 C502 1.403 . S
C505 C506 1.524 . S
C505 C509 1.400 . S
C506 H491 0.960 . S
C506 H492 0.960 . S
C506 H493 0.960 . S
C506 C505 1.524 . S
C507 C504 1.403 . S
C507 C508 1.392 . S
C507 C511 1.495 . S
C508 C507 1.392 . S
C508 C509 1.385 . S
C508 C510 1.478 . S
C509 H503 0.930 . S
C509 C505 1.400 . S
C509 C508 1.385 . S
C510 C508 1.478 . S
C510 C512 1.381 . S
C510 C516 1.383 . S
C511 C507 1.495 . S
C511 H517 0.959 . S
C511 H518 0.961 . S
C511 H519 0.960 . S
C512 C510 1.381 . S
C512 C513 1.394 . S
C512 H520 0.930 . S
C513 C512 1.394 . S
C513 C514 1.383 . S
C513 H521 0.929 . S
C514 C513 1.383 . S
C514 C515 1.377 . S
C515 H499 0.930 . S
C515 C514 1.377 . S
C515 C516 1.379 . S
C516 H500 0.931 . S
C516 C510 1.383 . S
C516 C515 1.379 . S
H517 C511 0.959 . S
H518 C511 0.961 . S
H519 C511 0.960 . S
H520 C512 0.930 . S
H521 C513 0.929 . S
H522 C530 0.929 . S
H523 C532 0.930 . S
H524 C534 0.930 . S
H525 C537 0.929 . S
H526 C540 0.930 . S
H527 C542 0.960 . S
H528 C542 0.960 . S
H529 C542 0.960 . S
C530 H522 0.929 . S
C530 C531 1.377 . S
C530 C532 1.384 . S
C531 C530 1.377 . S
C531 C537 1.390 . S
C532 H523 0.930 . S
C532 C530 1.384 . S
C532 C533 1.372 . S
C533 C532 1.372 . S
C533 C534 1.400 . S
C533 C538 1.490 . S
C534 H524 0.930 . S
C534 C533 1.400 . S
C534 C537 1.386 . S
H535 C551 0.930 . S
H536 C552 0.931 . S
C537 H525 0.929 . S
C537 C531 1.390 . S
C537 C534 1.386 . S
C538 C533 1.490 . S
C538 C540 1.395 . S
C538 C541 1.403 . S
H539 C545 0.930 . S
C540 H526 0.930 . S
C540 C538 1.395 . S
C540 C543 1.403 . S
C541 C538 1.403 . S
C541 C542 1.524 . S
C541 C545 1.400 . S
C542 H527 0.960 . S
C542 H528 0.960 . S
C542 H529 0.960 . S
C542 C541 1.524 . S
C543 C540 1.403 . S
C543 C544 1.392 . S
C543 C547 1.495 . S
C544 C543 1.392 . S
C544 C545 1.385 . S
C544 C546 1.478 . S
C545 H539 0.930 . S
C545 C541 1.400 . S
C545 C544 1.385 . S
C546 C544 1.478 . S
C546 C548 1.381 . S
C546 C552 1.383 . S
C547 C543 1.495 . S
C547 H553 0.959 . S
C547 H554 0.961 . S
C547 H555 0.960 . S
C548 C546 1.381 . S
C548 C549 1.394 . S
C548 H556 0.930 . S
C549 C548 1.394 . S
C549 C550 1.383 . S
C549 H557 0.929 . S
C550 C549 1.383 . S
C550 C551 1.377 . S
C551 H535 0.930 . S
C551 C550 1.377 . S
C551 C552 1.379 . S
C552 H536 0.931 . S
C552 C546 1.383 . S
C552 C551 1.379 . S
H553 C547 0.959 . S
H554 C547 0.961 . S
H555 C547 0.960 . S
H556 C548 0.930 . S
H557 C549 0.929 . S
H558 C566 0.929 . S
H559 C568 0.930 . S
H560 C570 0.930 . S
H561 C573 0.929 . S
H562 C576 0.930 . S
H563 C578 0.960 . S
H564 C578 0.960 . S
H565 C578 0.960 . S
C566 H558 0.929 . S
C566 C567 1.377 . S
C566 C568 1.384 . S
C567 C566 1.377 . S
C567 C573 1.390 . S
C568 H559 0.930 . S
C568 C566 1.384 . S
C568 C569 1.372 . S
C569 C568 1.372 . S
C569 C570 1.400 . S
C569 C574 1.490 . S
C570 H560 0.930 . S
C570 C569 1.400 . S
C570 C573 1.386 . S
H571 C587 0.930 . S
H572 C588 0.931 . S
C573 H561 0.929 . S
C573 C567 1.390 . S
C573 C570 1.386 . S
C574 C569 1.490 . S
C574 C576 1.395 . S
C574 C577 1.403 . S
H575 C581 0.930 . S
C576 H562 0.930 . S
C576 C574 1.395 . S
C576 C579 1.403 . S
C577 C574 1.403 . S
C577 C578 1.524 . S
C577 C581 1.400 . S
C578 H563 0.960 . S
C578 H564 0.960 . S
C578 H565 0.960 . S
C578 C577 1.524 . S
C579 C576 1.403 . S
C579 C580 1.392 . S
C579 C583 1.495 . S
C580 C579 1.392 . S
C580 C581 1.385 . S
C580 C582 1.478 . S
C581 H575 0.930 . S
C581 C577 1.400 . S
C581 C580 1.385 . S
C582 C580 1.478 . S
C582 C584 1.381 . S
C582 C588 1.383 . S
C583 C579 1.495 . S
C583 H589 0.959 . S
C583 H590 0.961 . S
C583 H591 0.960 . S
C584 C582 1.381 . S
C584 C585 1.394 . S
C584 H592 0.930 . S
C585 C584 1.394 . S
C585 C586 1.383 . S
C585 H593 0.929 . S
C586 C585 1.383 . S
C586 C587 1.377 . S
C587 H571 0.930 . S
C587 C586 1.377 . S
C587 C588 1.379 . S
C588 H572 0.931 . S
C588 C582 1.383 . S
C588 C587 1.379 . S
H589 C583 0.959 . S
H590 C583 0.961 . S
H591 C583 0.960 . S
H592 C584 0.930 . S
H593 C585 0.929 . S
H594 C602 0.929 . S
H595 C604 0.930 . S
H596 C606 0.930 . S
H597 C609 0.929 . S
H598 C612 0.930 . S
H599 C614 0.960 . S
H600 C614 0.960 . S
H601 C614 0.960 . S
C602 H594 0.929 . S
C602 C603 1.377 . S
C602 C604 1.384 . S
C603 C602 1.377 . S
C603 C609 1.390 . S
C604 H595 0.930 . S
C604 C602 1.384 . S
C604 C605 1.372 . S
C605 C604 1.372 . S
C605 C606 1.400 . S
C605 C610 1.490 . S
C606 H596 0.930 . S
C606 C605 1.400 . S
C606 C609 1.386 . S
H607 C623 0.930 . S
H608 C624 0.931 . S
C609 H597 0.929 . S
C609 C603 1.390 . S
C609 C606 1.386 . S
C610 C605 1.490 . S
C610 C612 1.395 . S
C610 C613 1.403 . S
H611 C617 0.930 . S
C612 H598 0.930 . S
C612 C610 1.395 . S
C612 C615 1.403 . S
C613 C610 1.403 . S
C613 C614 1.524 . S
C613 C617 1.400 . S
C614 H599 0.960 . S
C614 H600 0.960 . S
C614 H601 0.960 . S
C614 C613 1.524 . S
C615 C612 1.403 . S
C615 C616 1.392 . S
C615 C619 1.495 . S
C616 C615 1.392 . S
C616 C617 1.385 . S
C616 C618 1.478 . S
C617 H611 0.930 . S
C617 C613 1.400 . S
C617 C616 1.385 . S
C618 C616 1.478 . S
C618 C620 1.381 . S
C618 C624 1.383 . S
C619 C615 1.495 . S
C619 H625 0.959 . S
C619 H626 0.961 . S
C619 H627 0.960 . S
C620 C618 1.381 . S
C620 C621 1.394 . S
C620 H628 0.930 . S
C621 C620 1.394 . S
C621 C622 1.383 . S
C621 H629 0.929 . S
C622 C621 1.383 . S
C622 C623 1.377 . S
C623 H607 0.930 . S
C623 C622 1.377 . S
C623 C624 1.379 . S
C624 H608 0.931 . S
C624 C618 1.383 . S
C624 C623 1.379 . S
H625 C619 0.959 . S
H626 C619 0.961 . S
H627 C619 0.960 . S
H628 C620 0.930 . S
H629 C621 0.929 . S
H630 C638 0.929 . S
H631 C640 0.930 . S
H632 C642 0.930 . S
H633 C645 0.929 . S
H634 C648 0.930 . S
H635 C650 0.960 . S
H636 C650 0.960 . S
H637 C650 0.960 . S
C638 H630 0.929 . S
C638 C639 1.377 . S
C638 C640 1.384 . S
C639 C638 1.377 . S
C639 C645 1.390 1_455 S
C640 H631 0.930 . S
C640 C638 1.384 . S
C640 C641 1.372 . S
C641 C640 1.372 . S
C641 C642 1.400 1_455 S
C641 C646 1.490 . S
C642 H632 0.930 . S
C642 C641 1.400 1_655 S
C642 C645 1.386 . S
H643 C659 0.930 . S
H644 C660 0.931 . S
C645 H633 0.929 . S
C645 C639 1.390 1_655 S
C645 C642 1.386 . S
C646 C641 1.490 . S
C646 C648 1.395 . S
C646 C649 1.403 1_455 S
H647 C653 0.930 1_655 S
C648 H634 0.930 . S
C648 C646 1.395 . S
C648 C651 1.398 1_554 S
C649 C646 1.403 1_655 S
C649 C650 1.524 . S
C649 C653 1.400 1_654 S
C650 H635 0.960 . S
C650 H636 0.960 . S
C650 H637 0.960 . S
C650 C649 1.524 . S
C651 C648 1.398 1_556 S
C651 C652 1.396 . S
C651 C655 1.497 . S
C652 C651 1.396 . S
C652 C653 1.385 . S
C652 C654 1.478 . S
C653 H647 0.930 1_455 S
C653 C649 1.400 1_456 S
C653 C652 1.385 . S
C654 C652 1.478 . S
C654 C656 1.381 . S
C654 C660 1.383 . S
C655 C651 1.497 . S
C655 H661 0.959 1_556 S
C655 H662 0.961 . S
C655 H663 0.960 . S
C656 C654 1.381 . S
C656 C657 1.394 . S
C656 H664 0.930 . S
C657 C656 1.394 . S
C657 C658 1.383 . S
C657 H665 0.929 . S
C658 C657 1.383 . S
C658 C659 1.377 . S
C659 H643 0.930 . S
C659 C658 1.377 . S
C659 C660 1.379 . S
C660 H644 0.931 . S
C660 C654 1.383 . S
C660 C659 1.379 . S
H661 C655 0.959 1_554 S
H662 C655 0.961 . S
H663 C655 0.960 . S
H664 C656 0.930 . S
H665 C657 0.929 . S
H666 C674 0.929 . S
H667 C676 0.930 . S
H668 C678 0.940 . S
H669 C681 0.929 1_565 S
H670 C684 0.930 . S
H671 C686 0.960 . S
H672 C686 0.960 1_545 S
H673 C686 0.960 . S
C674 H666 0.929 . S
C674 C675 1.377 . S
C674 C676 1.384 . S
C675 C674 1.377 . S
C675 C681 1.390 . S
C676 H667 0.930 . S
C676 C674 1.384 . S
C676 C677 1.372 . S
C677 C676 1.372 . S
C677 C678 1.389 1_545 S
C677 C682 1.490 . S
C678 H668 0.940 . S
C678 C677 1.389 1_565 S
C678 C681 1.386 1_565 S
H679 C695 0.930 . S
H680 C696 0.931 . S
C681 H669 0.929 1_545 S
C681 C675 1.390 . S
C681 C678 1.386 1_545 S
C682 C677 1.490 . S
C682 C684 1.395 . S
C682 C685 1.403 . S
H683 C689 0.930 1_565 S
C684 H670 0.930 . S
C684 C682 1.395 . S
C684 C687 1.403 . S
C685 C682 1.403 . S
C685 C686 1.524 1_545 S
C685 C689 1.400 . S
C686 H671 0.960 . S
C686 H672 0.960 1_565 S
C686 H673 0.960 . S
C686 C685 1.524 1_565 S
C687 C684 1.403 . S
C687 C688 1.392 . S
C687 C691 1.495 . S
C688 C687 1.392 . S
C688 C689 1.385 . S
C688 C690 1.478 . S
C689 H683 0.930 1_545 S
C689 C685 1.400 . S
C689 C688 1.385 . S
C690 C688 1.478 . S
C690 C692 1.381 . S
C690 C696 1.383 1_545 S
C691 C687 1.495 . S
C691 H697 0.959 . S
C691 H698 0.961 . S
C691 H699 0.960 . S
C692 C690 1.381 . S
C692 C693 1.394 . S
C692 H700 0.930 . S
C693 C692 1.394 . S
C693 C694 1.383 . S
C693 H701 0.929 . S
C694 C693 1.383 . S
C694 C695 1.377 1_545 S
C695 H679 0.930 . S
C695 C694 1.377 1_565 S
C695 C696 1.379 . S
C696 H680 0.931 . S
C696 C690 1.383 1_565 S
C696 C695 1.379 . S
H697 C691 0.959 . S
H698 C691 0.961 . S
H699 C691 0.960 . S
H700 C692 0.930 . S
H701 C693 0.929 . S
H702 C710 0.929 . S
H703 C712 0.930 . S
H704 C714 0.930 . S
H705 C717 0.929 . S
H706 C720 0.930 . S
H707 C722 0.960 . S
H708 C722 0.960 . S
H709 C722 0.960 . S
C710 H702 0.929 . S
C710 C711 1.377 . S
C710 C712 1.384 . S
C711 C710 1.377 . S
C711 C717 1.390 . S
C712 H703 0.930 . S
C712 C710 1.384 . S
C712 C713 1.372 . S
C713 C712 1.372 . S
C713 C714 1.400 . S
C713 C718 1.490 . S
C714 H704 0.930 . S
C714 C713 1.400 . S
C714 C717 1.386 . S
H715 C731 0.930 . S
H716 C732 0.931 . S
C717 H705 0.929 . S
C717 C711 1.390 . S
C717 C714 1.386 . S
C718 C713 1.490 . S
C718 C720 1.395 . S
C718 C721 1.403 . S
H719 C725 0.930 . S
C720 H706 0.930 . S
C720 C718 1.395 . S
C720 C723 1.403 . S
C721 C718 1.403 . S
C721 C722 1.524 . S
C721 C725 1.400 . S
C722 H707 0.960 . S
C722 H708 0.960 . S
C722 H709 0.960 . S
C722 C721 1.524 . S
C723 C720 1.403 . S
C723 C724 1.392 . S
C723 C727 1.495 . S
C724 C723 1.392 . S
C724 C725 1.385 . S
C724 C726 1.478 . S
C725 H719 0.930 . S
C725 C721 1.400 . S
C725 C724 1.385 . S
C726 C724 1.478 . S
C726 C728 1.381 . S
C726 C732 1.383 . S
C727 C723 1.495 . S
C727 H733 0.959 . S
C727 H734 0.961 . S
C727 H735 0.960 . S
C728 C726 1.381 . S
C728 C729 1.394 . S
C728 H736 0.930 . S
C729 C728 1.394 . S
C729 C730 1.383 . S
C729 H737 0.929 . S
C730 C729 1.383 . S
C730 C731 1.377 . S
C731 H715 0.930 . S
C731 C730 1.377 . S
C731 C732 1.379 . S
C732 H716 0.931 . S
C732 C726 1.383 . S
C732 C731 1.379 . S
H733 C727 0.959 . S
H734 C727 0.961 . S
H735 C727 0.960 . S
H736 C728 0.930 . S
H737 C729 0.929 . S
H738 C746 0.929 . S
H739 C748 0.930 . S
H740 C750 0.930 . S
H741 C753 0.929 . S
H742 C756 0.930 . S
H743 C758 0.960 . S
H744 C758 0.960 . S
H745 C758 0.960 . S
C746 H738 0.929 . S
C746 C747 1.377 . S
C746 C748 1.384 . S
C747 C746 1.377 . S
C747 C753 1.390 . S
C748 H739 0.930 . S
C748 C746 1.384 . S
C748 C749 1.372 . S
C749 C748 1.372 . S
C749 C750 1.400 . S
C749 C754 1.490 . S
C750 H740 0.930 . S
C750 C749 1.400 . S
C750 C753 1.386 . S
H751 C767 0.930 . S
H752 C768 0.931 . S
C753 H741 0.929 . S
C753 C747 1.390 . S
C753 C750 1.386 . S
C754 C749 1.490 . S
C754 C756 1.395 . S
C754 C757 1.403 . S
H755 C761 0.930 1_565 S
C756 H742 0.930 . S
C756 C754 1.395 . S
C756 C759 1.403 . S
C757 C754 1.403 . S
C757 C758 1.524 1_545 S
C757 C761 1.400 . S
C758 H743 0.960 . S
C758 H744 0.960 . S
C758 H745 0.960 . S
C758 C757 1.524 1_565 S
C759 C756 1.403 . S
C759 C760 1.392 . S
C759 C763 1.495 . S
C760 C759 1.392 . S
C760 C761 1.385 . S
C760 C762 1.478 . S
C761 H755 0.930 1_545 S
C761 C757 1.400 . S
C761 C760 1.385 . S
C762 C760 1.478 . S
C762 C764 1.381 . S
C762 C768 1.383 . S
C763 C759 1.495 . S
C763 H769 0.959 . S
C763 H770 0.961 . S
C763 H771 0.960 . S
C764 C762 1.381 . S
C764 C765 1.394 . S
C764 H772 0.930 . S
C765 C764 1.394 . S
C765 C766 1.383 . S
C765 H773 0.929 . S
C766 C765 1.383 . S
C766 C767 1.377 . S
C767 H751 0.930 . S
C767 C766 1.377 . S
C767 C768 1.379 . S
C768 H752 0.931 . S
C768 C762 1.383 . S
C768 C767 1.379 . S
H769 C763 0.959 . S
H770 C763 0.961 . S
H771 C763 0.960 . S
H772 C764 0.930 . S
H773 C765 0.929 . S
H774 C782 0.929 . S
H775 C784 0.930 . S
H776 C786 0.930 . S
H777 C789 0.929 . S
H778 C792 0.930 . S
H779 C794 0.960 . S
H780 C794 0.960 . S
H781 C794 0.960 . S
C782 H774 0.929 . S
C782 C783 1.377 . S
C782 C784 1.384 . S
C783 C782 1.377 . S
C783 C789 1.390 . S
C784 H775 0.930 . S
C784 C782 1.384 . S
C784 C785 1.372 . S
C785 C784 1.372 . S
C785 C786 1.400 . S
C785 C790 1.490 . S
C786 H776 0.930 . S
C786 C785 1.400 . S
C786 C789 1.386 . S
H787 C803 0.930 . S
H788 C804 0.931 . S
C789 H777 0.929 . S
C789 C783 1.390 . S
C789 C786 1.386 . S
C790 C785 1.490 . S
C790 C792 1.395 . S
C790 C793 1.403 . S
H791 C797 0.930 . S
C792 H778 0.930 . S
C792 C790 1.395 . S
C792 C795 1.403 . S
C793 C790 1.403 . S
C793 C794 1.524 . S
C793 C797 1.400 1_556 S
C794 H779 0.960 . S
C794 H780 0.960 . S
C794 H781 0.960 . S
C794 C793 1.524 . S
C795 C792 1.403 . S
C795 C796 1.392 1_556 S
C795 C799 1.495 1_556 S
C796 C795 1.392 1_554 S
C796 C797 1.385 . S
C796 C798 1.478 . S
C797 H791 0.930 . S
C797 C793 1.400 1_554 S
C797 C796 1.385 . S
C798 C796 1.478 . S
C798 C800 1.381 . S
C798 C804 1.383 . S
C799 C795 1.495 1_554 S
C799 H805 0.959 1_554 S
C799 H806 0.961 . S
C799 H807 0.960 . S
C800 C798 1.381 . S
C800 C801 1.394 . S
C800 H808 0.930 . S
C801 C800 1.394 . S
C801 C802 1.383 . S
C801 H809 0.929 . S
C802 C801 1.383 . S
C802 C803 1.377 . S
C803 H787 0.930 . S
C803 C802 1.377 . S
C803 C804 1.379 . S
C804 H788 0.931 . S
C804 C798 1.383 . S
C804 C803 1.379 . S
H805 C799 0.959 1_556 S
H806 C799 0.961 . S
H807 C799 0.960 . S
H808 C800 0.930 . S
H809 C801 0.929 . S
H810 C818 0.929 . S
H811 C820 0.930 . S
H812 C822 0.930 . S
H813 C825 0.929 . S
H814 C828 0.930 . S
H815 C830 0.960 . S
H816 C830 0.960 . S
H817 C830 0.960 . S
C818 H810 0.929 . S
C818 C819 1.377 1_455 S
C818 C820 1.384 . S
C819 C818 1.377 1_655 S
C819 C825 1.390 . S
C820 H811 0.930 . S
C820 C818 1.384 . S
C820 C821 1.372 . S
C821 C820 1.372 . S
C821 C822 1.400 1_455 S
C821 C826 1.490 . S
C822 H812 0.930 . S
C822 C821 1.400 1_655 S
C822 C825 1.386 . S
H823 C839 0.930 . S
H824 C840 0.931 . S
C825 H813 0.929 . S
C825 C819 1.390 . S
C825 C822 1.386 . S
C826 C821 1.490 . S
C826 C828 1.395 . S
C826 C829 1.403 1_455 S
H827 C833 0.929 . S
C828 H814 0.930 . S
C828 C826 1.395 . S
C828 C831 1.403 . S
C829 C826 1.403 1_655 S
C829 C830 1.524 . S
C829 C833 1.399 . S
C830 H815 0.960 . S
C830 H816 0.960 . S
C830 H817 0.960 . S
C830 C829 1.524 . S
C831 C828 1.403 . S
C831 C832 1.392 . S
C831 C835 1.495 . S
C832 C831 1.392 . S
C832 C833 1.389 1_455 S
C832 C834 1.478 . S
C833 H827 0.929 . S
C833 C829 1.399 . S
C833 C832 1.389 1_655 S
C834 C832 1.478 . S
C834 C836 1.381 . S
C834 C840 1.383 1_455 S
C835 C831 1.495 . S
C835 H841 0.959 . S
C835 H842 0.961 . S
C835 H843 0.960 . S
C836 C834 1.381 . S
C836 C837 1.394 . S
C836 H844 0.930 . S
C837 C836 1.394 . S
C837 C838 1.383 . S
C837 H845 0.929 . S
C838 C837 1.383 . S
C838 C839 1.377 1_455 S
C839 H823 0.930 . S
C839 C838 1.377 1_655 S
C839 C840 1.379 . S
C840 H824 0.931 . S
C840 C834 1.383 1_655 S
C840 C839 1.379 . S
H841 C835 0.959 . S
H842 C835 0.961 . S
H843 C835 0.960 . S
H844 C836 0.930 . S
H845 C837 0.929 . S
C207 C6 0.260 . S
C226 N187 0.275 . S
C243 C59 1.751 . S
C262 N160 1.747 1_655 S
C279 C86 1.071 . S
C298 N173 1.070 . S
C315 C15 0.597 . S
C334 N186 0.561 . S
C370 N161 1.978 . S
C351 C50 1.957 . S
C406 N174 1.303 . S
C387 C95 1.300 . S
C423 C46 1.019 . S
C442 N134 1.006 . S
C459 C99 2.739 . S
C478 N148 2.698 1_655 S
C495 C10 1.961 . S
C514 N122 1.974 . S
C550 N135 1.337 . S
C531 C55 1.326 . S
C586 N147 3.322 . S
C567 C90 3.271 . S
C603 C19 1.747 . S
C622 N121 1.753 . S
C658 N151 1.743 . S
C639 C18 1.700 . S
C675 C49 1.473 . S
C694 N125 1.494 . S
C711 C98 1.491 . S
C730 N138 1.595 . S
C766 N177 1.528 . S
C747 C58 1.480 . S
C802 N190 1.271 . S
C783 C89 1.280 . S
C819 C9 1.438 . S
C838 N164 1.457 . S
