# Generated by pormake.
# Topology tsx, (6,3)-cn, num edge types: 1
# Building blocks:
#     Node 0, Type 0, BuildingBlock: VOLQOD_clean_sbu_1, # of connection points: 6
#     Node 1, Type 0, BuildingBlock: VOLQOD_clean_sbu_1, # of connection points: 6
#     Node 2, Type 1, BuildingBlock: ESEHIV_clean_linker_0, # of connection points: 3
#     Node 3, Type 1, BuildingBlock: ESEHIV_clean_linker_0, # of connection points: 3
#     Node 4, Type 1, BuildingBlock: ESEHIV_clean_linker_0, # of connection points: 3
#     Node 5, Type 1, BuildingBlock: ESEHIV_clean_linker_0, # of connection points: 3
#     Edge 6, Type (0, 1), BuildingBlock: TEMPAE_clean_linker_10, # of connection points: 2
#     Edge 7, Type (0, 1), BuildingBlock: TEMPAE_clean_linker_10, # of connection points: 2
#     Edge 8, Type (0, 1), BuildingBlock: TEMPAE_clean_linker_10, # of connection points: 2
#     Edge 9, Type (0, 1), BuildingBlock: TEMPAE_clean_linker_10, # of connection points: 2
#     Edge 10, Type (0, 1), BuildingBlock: TEMPAE_clean_linker_10, # of connection points: 2
#     Edge 11, Type (0, 1), BuildingBlock: TEMPAE_clean_linker_10, # of connection points: 2
#     Edge 12, Type (0, 1), BuildingBlock: TEMPAE_clean_linker_10, # of connection points: 2
#     Edge 13, Type (0, 1), BuildingBlock: TEMPAE_clean_linker_10, # of connection points: 2
#     Edge 14, Type (0, 1), BuildingBlock: TEMPAE_clean_linker_10, # of connection points: 2
#     Edge 15, Type (0, 1), BuildingBlock: TEMPAE_clean_linker_10, # of connection points: 2
#     Edge 16, Type (0, 1), BuildingBlock: TEMPAE_clean_linker_10, # of connection points: 2
#     Edge 17, Type (0, 1), BuildingBlock: TEMPAE_clean_linker_10, # of connection points: 2
# Relax obj value: 0.075
# Max RMSD: 0.108
# Mean RMSD: 0.082
data_MOF--net-tsx--node1-VOLQOD_clean_sbu_1--node2-ESEHIV_clean_linker_0--edge1-TEMPAE_clean_linker_10
_symmetry_space_group_name_H-M    P1
_symmetry_Int_Tables_number       1
_symmetry_cell_setting            triclinic
loop_
_symmetry_equiv_pos_as_xyz
'x, y, z'
_cell_length_a     19.602653
_cell_length_b     20.359922
_cell_length_c     38.540081
_cell_angle_alpha  90.453931
_cell_angle_beta   89.992733
_cell_angle_gamma 90.233546
loop_
_atom_site_label
_atom_site_type_symbol
_atom_site_fract_x
_atom_site_fract_y
_atom_site_fract_z
_atom_type_partial_charge
O0 O 0.09691 0.00475 0.08179 0.0
Zn1 Zn 0.11342 -0.0043 0.03008 0.0
O2 O 0.02886 0.00644 0.00373 0.0
Zn3 Zn 0.00779 0.92698 0.97724 0.0
Zn4 Zn 0.95499 0.02466 0.03606 0.0
Zn5 Zn 0.03764 0.07902 0.9714 0.0
O6 O 0.01103 0.94229 0.92561 0.0
O7 O 0.03817 0.04782 0.92175 0.0
O8 O 0.15579 0.90678 0.02082 0.0
O9 O 0.07814 0.85884 0.98704 0.0
O10 O 0.91619 0.88903 0.99021 0.0
O11 O 0.88758 0.95112 0.03555 0.0
O12 O 0.9028 0.10515 0.02261 0.0
O13 O 0.17981 0.06769 0.01801 0.0
O14 O 0.95864 0.14075 0.97632 0.0
O15 O 0.1239 0.12938 0.98028 0.0
C16 C 0.04508 0.02194 0.09959 0.0
C17 C 0.02534 0.99254 0.90749 0.0
C18 C 0.87632 0.90265 0.01531 0.0
C19 C 0.13407 0.857 0.00378 0.0
C20 C 0.90954 0.14556 0.9978 0.0
C21 C 0.1763 0.11824 0.99879 0.0
O22 O 0.98808 0.03356 0.08512 0.0
O23 O 0.52775 0.46149 0.58128 0.0
Zn24 Zn 0.5552 0.46713 0.53112 0.0
O25 O 0.47776 0.48461 0.50092 0.0
Zn26 Zn 0.4668 0.41256 0.46751 0.0
Zn27 Zn 0.3956 0.49383 0.52942 0.0
Zn28 Zn 0.4947 0.56525 0.47552 0.0
O29 O 0.463 0.44533 0.4182 0.0
O30 O 0.48689 0.55145 0.42392 0.0
O31 O 0.6029 0.38456 0.51706 0.0
O32 O 0.54607 0.35039 0.47047 0.0
O33 O 0.38108 0.36139 0.4774 0.0
O34 O 0.32943 0.42113 0.51802 0.0
O35 O 0.35042 0.58206 0.52246 0.0
O36 O 0.62551 0.53817 0.52728 0.0
O37 O 0.42494 0.63207 0.48817 0.0
O38 O 0.58672 0.60414 0.48632 0.0
C39 C 0.47152 0.47077 0.59707 0.0
C40 C 0.47304 0.50168 0.40495 0.0
C41 C 0.33088 0.37142 0.49772 0.0
C42 C 0.59517 0.34451 0.49186 0.0
C43 C 0.37031 0.63269 0.50599 0.0
C44 C 0.63252 0.58826 0.50806 0.0
O45 O 0.41732 0.48479 0.58049 0.0
H46 H 0.96828 0.10406 0.36123 0.0
H47 H 0.12538 0.95863 0.36936 0.0
H48 H 0.01553 0.0205 0.4605 0.0
C49 C -0.00049 0.0722 0.37702 0.0
C50 C 0.98712 0.06797 0.41285 0.0
C51 C 0.04888 0.03244 0.36108 0.0
C52 C 0.08673 0.98903 0.3815 0.0
C53 C 0.07488 0.98434 0.41739 0.0
C54 C 0.02544 0.0244 0.43291 0.0
H55 H 0.95907 0.87375 0.6446 0.0
H56 H 0.09352 0.04016 0.63899 0.0
H57 H 0.01632 0.95106 0.54514 0.0
C58 C 0.98705 0.90922 0.62925 0.0
C59 C 0.98256 0.90705 0.59289 0.0
C60 C 0.0274 0.95673 0.64604 0.0
C61 C 0.06417 0.00195 0.62605 0.0
C62 C 0.06035 0.00032 0.58959 0.0
C63 C 0.0199 0.9523 0.57321 0.0
H64 H 0.39183 0.52998 0.86531 0.0
H65 H 0.55088 0.38572 0.86143 0.0
H66 H 0.48748 0.46678 0.95968 0.0
C67 C 0.42886 0.49968 0.87851 0.0
C68 C 0.435 0.50368 0.91481 0.0
C69 C 0.47016 0.45702 0.85905 0.0
C70 C 0.51716 0.41713 0.87638 0.0
C71 C 0.52373 0.42045 0.91269 0.0
C72 C 0.48208 0.46348 0.93172 0.0
H73 H 0.40108 0.46335 0.13772 0.0
H74 H 0.53401 0.63174 0.14211 0.0
H75 H 0.4787 0.54808 0.04344 0.0
C76 C 0.4297 0.50145 0.12459 0.0
C77 C 0.43449 0.50057 0.08814 0.0
C78 C 0.46527 0.54861 0.14435 0.0
C79 C 0.50524 0.59565 0.12725 0.0
C80 C 0.50974 0.59527 0.09098 0.0
C81 C 0.4742 0.54823 0.0715 0.0
C82 C 0.28121 0.16395 0.0268 0.0
C83 C 0.22992 0.16938 0.00163 0.0
C84 C 0.32281 0.21775 0.03533 0.0
C85 C 0.31307 0.27809 0.01809 0.0
C86 C 0.26661 0.28186 0.99015 0.0
C87 C 0.22525 0.22738 0.98228 0.0
C88 C 0.37297 0.21162 0.06486 0.0
C89 C 0.25678 0.34496 0.97048 0.0
C90 C 0.3356 0.42642 0.0764 0.0
C91 C 0.4015 0.4473 0.06781 0.0
C92 C 0.3056 0.37267 0.05944 0.0
C93 C 0.34253 0.33893 0.03326 0.0
C94 C 0.40829 0.361 0.02361 0.0
C95 C 0.43695 0.41528 0.04095 0.0
C96 C 0.2351 0.35075 0.07038 0.0
C97 C 0.44883 0.32693 0.99548 0.0
H98 H 0.28608 0.11904 0.0415 0.0
H99 H 0.18671 0.23163 0.96227 0.0
H100 H 0.42307 0.23302 0.05762 0.0
H101 H 0.35381 0.23947 0.08772 0.0
H102 H 0.38061 0.1597 0.07257 0.0
H103 H 0.22567 0.33749 0.94667 0.0
H104 H 0.23071 0.38145 0.98736 0.0
H105 H 0.30683 0.36628 0.96308 0.0
H106 H 0.3076 0.45195 0.09663 0.0
H107 H 0.48811 0.43117 0.03426 0.0
H108 H 0.23745 0.30032 0.08102 0.0
H109 H 0.20051 0.34926 0.04761 0.0
H110 H 0.21256 0.3837 0.0904 0.0
H111 H 0.4466 0.27279 0.99837 0.0
H112 H 0.50318 0.34253 0.99558 0.0
H113 H 0.42664 0.33884 0.96982 0.0
C114 C 0.15288 0.74344 0.98118 0.0
C115 C 0.17647 0.79713 1.00091 0.0
C116 C 0.1956 0.69051 0.97336 0.0
C117 C 0.26349 0.69101 0.98572 0.0
C118 C 0.28577 0.74181 0.00832 0.0
C119 C 0.24204 0.79473 0.01552 0.0
C120 C 0.16951 0.63625 0.94985 0.0
C121 C 0.35698 0.742 0.02321 0.0
C122 C 0.36332 0.53552 0.96621 0.0
C123 C 0.39456 0.55233 0.93472 0.0
C124 C 0.32234 0.58088 0.98415 0.0
C125 C 0.31318 0.64447 0.9703 0.0
C126 C 0.34683 0.66228 0.93923 0.0
C127 C 0.38723 0.61608 0.92193 0.0
C128 C 0.28891 0.56019 0.01763 0.0
C129 C 0.33814 0.72947 0.92345 0.0
H130 H 0.10183 0.74396 0.97038 0.0
H131 H 0.2603 0.83532 0.03139 0.0
H132 H 0.19627 0.63853 0.9245 0.0
H133 H 0.18041 0.58757 0.9613 0.0
H134 H 0.11376 0.63992 0.94511 0.0
H135 H 0.36339 0.77968 0.04398 0.0
H136 H 0.36924 0.69302 0.03396 0.0
H137 H 0.39446 0.75223 0.00234 0.0
H138 H 0.36931 0.48636 0.97635 0.0
H139 H 0.41287 0.6298 0.89812 0.0
H140 H 0.23754 0.58206 0.02081 0.0
H141 H 0.32094 0.57716 0.03971 0.0
H142 H 0.28396 0.50592 0.0191 0.0
H143 H 0.28389 0.73687 0.91628 0.0
H144 H 0.36995 0.73618 0.89987 0.0
H145 H 0.35198 0.76821 0.94261 0.0
C146 C 0.78511 0.82463 0.99557 0.0
C147 C 0.81727 0.85988 0.02237 0.0
C148 C 0.72971 0.78289 0.00262 0.0
C149 C 0.70775 0.77509 0.03734 0.0
C150 C 0.73986 0.81099 0.06439 0.0
C151 C 0.79368 0.85359 0.0565 0.0
C152 C 0.69531 0.74655 0.9731 0.0
C153 C 0.71887 0.80286 0.10186 0.0
C154 C 0.53796 0.70281 0.06443 0.0
C155 C 0.55771 0.63949 0.07369 0.0
C156 C 0.58557 0.74669 0.0503 0.0
C157 C 0.65419 0.72649 0.04611 0.0
C158 C 0.67326 0.66135 0.05417 0.0
C159 C 0.62444 0.61844 0.0678 0.0
C160 C 0.56317 0.81534 0.04137 0.0
C161 C 0.74594 0.63806 0.05029 0.0
H162 H 0.80296 0.83005 0.96912 0.0
H163 H 0.81881 0.8805 0.07729 0.0
H164 H 0.70372 0.69299 0.97576 0.0
H165 H 0.6394 0.75476 0.97397 0.0
H166 H 0.71483 0.76217 0.94738 0.0
H167 H 0.74861 0.8351 0.11971 0.0
H168 H 0.66393 0.81421 0.10502 0.0
H169 H 0.72627 0.75108 0.10979 0.0
H170 H 0.48586 0.7183 0.06901 0.0
H171 H 0.63884 0.56897 0.07498 0.0
H172 H 0.58308 0.82959 0.01554 0.0
H173 H 0.58429 0.85063 0.06069 0.0
H174 H 0.50672 0.82007 0.04128 0.0
H175 H 0.76549 0.64909 0.02397 0.0
H176 H 0.75086 0.58445 0.05482 0.0
H177 H 0.77895 0.66459 0.06918 0.0
C178 C 0.79569 0.19474 0.01161 0.0
C179 C 0.85571 0.19492 0.9917 0.0
C180 C 0.74036 0.23482 0.00283 0.0
C181 C 0.74535 0.27591 0.97352 0.0
C182 C 0.80707 0.27912 0.95455 0.0
C183 C 0.86154 0.23863 0.9639 0.0
C184 C 0.67543 0.23067 0.02381 0.0
C185 C 0.81438 0.32276 0.92324 0.0
C186 C 0.58796 0.31613 0.92116 0.0
C187 C 0.57699 0.38187 0.93045 0.0
C188 C 0.64133 0.28042 0.93594 0.0
C189 C 0.68452 0.31123 0.96067 0.0
C190 C 0.67203 0.37678 0.97122 0.0
C191 C 0.6185 0.41148 0.95584 0.0
C192 C 0.65284 0.21036 0.92422 0.0
C193 C 0.71668 0.41106 0.99772 0.0
H194 H 0.79077 0.1614 0.03326 0.0
H195 H 0.90785 0.23959 0.94854 0.0
H196 H 0.65691 0.28054 0.03065 0.0
H197 H 0.63502 0.2064 0.00809 0.0
H198 H 0.68238 0.20233 0.04806 0.0
H199 H 0.86737 0.32347 0.91301 0.0
H200 H 0.77983 0.30509 0.90232 0.0
H201 H 0.79925 0.37379 0.92982 0.0
H202 H 0.55517 0.29284 0.90201 0.0
H203 H 0.61051 0.4625 0.96293 0.0
H204 H 0.65422 0.17732 0.94696 0.0
H205 H 0.70295 0.20648 0.91098 0.0
H206 H 0.61257 0.19265 0.90611 0.0
H207 H 0.76828 0.41901 0.98665 0.0
H208 H 0.72276 0.38009 0.02106 0.0
H209 H 0.69569 0.45942 0.00583 0.0
C210 C 0.74602 0.61141 0.53496 0.0
C211 C 0.69323 0.63077 0.51274 0.0
C212 C 0.7995 0.65445 0.54337 0.0
C213 C 0.79999 0.71838 0.5293 0.0
C214 C 0.74972 0.73661 0.50491 0.0
C215 C 0.69681 0.69249 0.49687 0.0
C216 C 0.85285 0.63301 0.56913 0.0
C217 C 0.74938 0.80416 0.48903 0.0
C218 C 0.87031 0.84996 0.58905 0.0
C219 C 0.93595 0.85969 0.57566 0.0
C220 C 0.82543 0.80482 0.57373 0.0
C221 C 0.84657 0.76877 0.5441 0.0
C222 C 0.9122 0.77948 0.52983 0.0
C223 C 0.95634 0.82482 0.54591 0.0
C224 C 0.75561 0.79515 0.58959 0.0
C225 C 0.93664 0.74202 0.49828 0.0
H226 H 0.74436 0.56337 0.54687 0.0
H227 H 0.65668 0.70759 0.47934 0.0
H228 H 0.90471 0.64486 0.55946 0.0
H229 H 0.84565 0.66011 0.59396 0.0
H230 H 0.84995 0.57952 0.57445 0.0
H231 H 0.71251 0.80767 0.46724 0.0
H232 H 0.7353 0.84106 0.5091 0.0
H233 H 0.80098 0.81726 0.47939 0.0
H234 H 0.85384 0.87799 0.61155 0.0
H235 H 0.00718 0.83218 0.53554 0.0
H236 H 0.74971 0.7436 0.59827 0.0
H237 H 0.71549 0.80431 0.56993 0.0
H238 H 0.74669 0.82823 0.61219 0.0
H239 H 0.95077 0.69148 0.50598 0.0
H240 H 0.98206 0.7656 0.48633 0.0
H241 H 0.89581 0.73791 0.47844 0.0
C242 C 0.70571 0.29096 0.50701 0.0
C243 C 0.64815 0.29433 0.48541 0.0
C244 C 0.76084 0.25028 0.49851 0.0
C245 C 0.75818 0.21212 0.46773 0.0
C246 C 0.6988 0.21244 0.44686 0.0
C247 C 0.64441 0.25354 0.45597 0.0
C248 C 0.82326 0.2507 0.52149 0.0
C249 C 0.69411 0.17194 0.41393 0.0
C250 C 0.92228 0.17226 0.42055 0.0
C251 C 0.93107 0.10601 0.42882 0.0
C252 C 0.86693 0.20777 0.43376 0.0
C253 C 0.81941 0.1761 0.45575 0.0
C254 C 0.82912 0.10974 0.46504 0.0
C255 C 0.8849 0.07537 0.45138 0.0
C256 C 0.85848 0.27875 0.42356 0.0
C257 C 0.7796 0.07455 0.48853 0.0
H258 H 0.70895 0.32193 0.52996 0.0
H259 H 0.60003 0.25545 0.43924 0.0
H260 H 0.83895 0.19977 0.52756 0.0
H261 H 0.86641 0.27429 0.50766 0.0
H262 H 0.81456 0.27778 0.54623 0.0
H263 H 0.64239 0.17349 0.40218 0.0
H264 H 0.73142 0.19065 0.39469 0.0
H265 H 0.70729 0.12002 0.41916 0.0
H266 H 0.95857 0.1962 0.40355 0.0
H267 H 0.89126 0.02391 0.45756 0.0
H268 H 0.85512 0.31033 0.44708 0.0
H269 H 0.81019 0.2847 0.40892 0.0
H270 H 0.9013 0.29663 0.40722 0.0
H271 H 0.77212 0.10297 0.5129 0.0
H272 H 0.79717 0.02439 0.4952 0.0
H273 H 0.72915 0.0705 0.47562 0.0
C274 C 0.2255 0.32787 0.52589 0.0
C275 C 0.27732 0.32032 0.50108 0.0
C276 C 0.18299 0.27515 0.53468 0.0
C277 C 0.19229 0.21358 0.51811 0.0
C278 C 0.23976 0.20732 0.49068 0.0
C279 C 0.28203 0.26084 0.48252 0.0
C280 C 0.13194 0.28397 0.56369 0.0
C281 C 0.24938 0.14277 0.47178 0.0
C282 C 0.16236 0.07023 0.57786 0.0
C283 C 0.09606 0.05086 0.56887 0.0
C284 C 0.19506 0.12149 0.56046 0.0
C285 C 0.16052 0.1543 0.53341 0.0
C286 C 0.09446 0.1335 0.5233 0.0
C287 C 0.06304 0.08171 0.54111 0.0
C288 C 0.26575 0.14205 0.57194 0.0
C289 C 0.05643 0.16655 0.49422 0.0
H290 H 0.22055 0.37391 0.53997 0.0
H291 H 0.32113 0.2548 0.46287 0.0
H292 H 0.08157 0.26345 0.55606 0.0
H293 H 0.14946 0.25677 0.58687 0.0
H294 H 0.12537 0.33643 0.57107 0.0
H295 H 0.28131 0.14825 0.44816 0.0
H296 H 0.27446 0.10718 0.48926 0.0
H297 H 0.1993 0.12148 0.46422 0.0
H298 H 0.18857 0.04548 0.59876 0.0
H299 H 0.01164 0.06698 0.53407 0.0
H300 H 0.26448 0.1931 0.58223 0.0
H301 H 0.30124 0.1414 0.54953 0.0
H302 H 0.28653 0.10959 0.5924 0.0
H303 H 0.05896 0.22078 0.49698 0.0
H304 H 0.00196 0.15139 0.49328 0.0
H305 H 0.08054 0.15342 0.46908 0.0
C306 C 0.26061 0.69204 0.51832 0.0
C307 C 0.32711 0.69209 0.50477 0.0
C308 C 0.21611 0.74447 0.51178 0.0
C309 C 0.23862 0.7971 0.49089 0.0
C310 C 0.30744 0.80025 0.48007 0.0
C311 C 0.35088 0.74782 0.48723 0.0
C312 C 0.14404 0.74199 0.52544 0.0
C313 C 0.33391 0.85679 0.4587 0.0
C314 C 0.12071 0.87159 0.42497 0.0
C315 C 0.11186 0.93518 0.43821 0.0
C316 C 0.15899 0.82524 0.44297 0.0
C317 C 0.18888 0.84276 0.47521 0.0
C318 C 0.17739 0.90595 0.48963 0.0
C319 C 0.13863 0.95147 0.47095 0.0
C320 C 0.17018 0.75845 0.42656 0.0
C321 C 0.20626 0.92638 0.5244 0.0
H322 H 0.24226 0.64988 0.53261 0.0
H323 H 0.40273 0.74927 0.47747 0.0
H324 H 0.13073 0.78969 0.53779 0.0
H325 H 0.10799 0.73372 0.50364 0.0
H326 H 0.13679 0.70218 0.54465 0.0
H327 H 0.39004 0.85464 0.45491 0.0
H328 H 0.30903 0.85599 0.43282 0.0
H329 H 0.32106 0.90425 0.47141 0.0
H330 H 0.09831 0.85826 0.40016 0.0
H331 H 0.13125 0.00048 0.48147 0.0
H332 H 0.15505 0.71918 0.44483 0.0
H333 H 0.22518 0.75191 0.42066 0.0
H334 H 0.14081 0.75177 0.40213 0.0
H335 H 0.16886 0.91362 0.54492 0.0
H336 H 0.21515 0.98025 0.52557 0.0
H337 H 0.25488 0.90126 0.5304 0.0
C338 C 0.11408 0.02588 0.15448 0.0
C339 C 0.05032 0.02698 0.13792 0.0
C340 C 0.11909 0.02918 0.19083 0.0
C341 C 0.05892 0.03284 0.21106 0.0
C342 C -0.00548 0.03444 0.1945 0.0
C343 C 0.99103 0.03187 0.15817 0.0
C344 C 0.18867 0.02813 0.2076 0.0
C345 C 0.92911 0.03769 0.21517 0.0
C346 C 0.05834 0.97348 0.30414 0.0
C347 C 0.05721 0.03286 0.3228 0.0
C348 C 0.0608 0.97278 0.26777 0.0
C349 C 0.06267 0.03296 0.24962 0.0
C350 C 0.06381 0.09308 0.26836 0.0
C351 C 0.06065 0.09231 0.30476 0.0
C352 C 0.05879 0.90767 0.24874 0.0
C353 C 0.06663 0.15819 0.24994 0.0
H354 H 0.16018 0.0225 0.13904 0.0
H355 H 0.94151 0.03251 0.14567 0.0
H356 H 0.19505 0.07151 0.22492 0.0
H357 H 0.19359 0.98379 0.22394 0.0
H358 H 0.23057 0.02806 0.18819 0.0
H359 H 0.88319 0.03938 0.19831 0.0
H360 H 0.925 -0.00584 0.2322 0.0
H361 H 0.92936 0.08184 0.23222 0.0
H362 H 0.05484 0.92742 0.31798 0.0
H363 H 0.06042 0.13827 0.31916 0.0
H364 H 0.10208 0.90412 0.2303 0.0
H365 H 0.01111 0.90388 0.23332 0.0
H366 H 0.061 0.8653 0.26669 0.0
H367 H 0.10982 0.15892 0.23133 0.0
H368 H 0.07241 0.20021 0.26828 0.0
H369 H 0.01916 0.16515 0.23475 0.0
C370 C 0.02941 0.92471 0.853 0.0
C371 C 0.02721 0.98668 0.86914 0.0
C372 C 0.0314 0.91859 0.8167 0.0
C373 C 0.0302 0.97577 0.79605 0.0
C374 C 0.02791 0.03844 0.81216 0.0
C375 C 0.02689 0.04316 0.8485 0.0
C376 C 0.03463 0.85095 0.80044 0.0
C377 C 0.02571 0.10052 0.791 0.0
C378 C 0.09051 0.96695 0.70237 0.0
C379 C 0.02855 0.96088 0.68447 0.0
C380 C 0.09193 0.97112 0.73876 0.0
C381 C 0.02983 0.97006 0.75755 0.0
C382 C 0.96713 0.96423 0.73954 0.0
C383 C 0.96729 0.95938 0.70323 0.0
C384 C 0.1598 0.97651 0.75709 0.0
C385 C 0.89982 0.9638 0.75862 0.0
H386 H 0.03015 0.88083 0.86874 0.0
H387 H 0.02491 0.09123 0.86074 0.0
H388 H 0.98893 0.84228 0.78404 0.0
H389 H 0.07992 0.84723 0.78327 0.0
H390 H 0.03739 0.81152 0.82015 0.0
H391 H 0.02428 0.14546 0.80751 0.0
H392 H 0.07105 0.10326 0.77384 0.0
H393 H 0.97997 0.09996 0.77404 0.0
H394 H 0.13793 0.96763 0.6879 0.0
H395 H 0.91926 0.95555 0.68939 0.0
H396 H 0.16546 0.93555 0.77568 0.0
H397 H 0.16224 0.02293 0.77231 0.0
H398 H 0.20348 0.97541 0.73872 0.0
H399 H 0.8983 0.92248 0.77719 0.0
H400 H 0.8556 0.95904 0.74073 0.0
H401 H 0.89424 0.00986 0.77392 0.0
C402 C 0.53028 0.46201 0.65456 0.0
C403 C 0.46947 0.46579 0.63546 0.0
C404 C 0.52941 0.4588 0.69092 0.0
C405 C 0.4662 0.45876 0.70867 0.0
C406 C 0.40458 0.4615 0.68959 0.0
C407 C 0.40694 0.46531 0.65322 0.0
C408 C 0.59624 0.45651 0.71037 0.0
C409 C 0.33618 0.46097 0.7076 0.0
C410 C 0.46599 0.39778 0.80172 0.0
C411 C 0.46692 0.457 0.82055 0.0
C412 C 0.46458 0.39753 0.76527 0.0
C413 C 0.4648 0.45793 0.74729 0.0
C414 C 0.46542 0.51783 0.76619 0.0
C415 C 0.46627 0.51662 0.80257 0.0
C416 C 0.46329 0.33268 0.746 0.0
C417 C 0.46641 0.58325 0.74799 0.0
H418 H 0.57886 0.4625 0.64114 0.0
H419 H 0.35967 0.46782 0.63872 0.0
H420 H 0.6007 0.49994 0.72782 0.0
H421 H 0.59797 0.41222 0.72692 0.0
H422 H 0.64099 0.4558 0.69268 0.0
H423 H 0.29295 0.4608 0.68896 0.0
H424 H 0.33175 0.41706 0.72434 0.0
H425 H 0.33162 0.50481 0.72471 0.0
H426 H 0.46594 0.35162 0.81555 0.0
H427 H 0.46797 0.56252 0.81701 0.0
H428 H 0.50953 0.32807 0.72958 0.0
H429 H 0.41847 0.33045 0.72844 0.0
H430 H 0.46109 0.29012 0.76384 0.0
H431 H 0.51285 0.58718 0.73167 0.0
H432 H 0.46564 0.62535 0.7665 0.0
H433 H 0.42174 0.58715 0.73047 0.0
C434 C 0.46406 0.57251 0.35232 0.0
C435 C 0.46895 0.50965 0.3668 0.0
C436 C 0.46106 0.58097 0.31624 0.0
C437 C 0.46394 0.52532 0.29406 0.0
C438 C 0.46858 0.46173 0.30847 0.0
C439 C 0.47057 0.45463 0.34467 0.0
C440 C 0.4552 0.6495 0.30184 0.0
C441 C 0.47251 0.40124 0.28564 0.0
C442 C 0.4027 0.53737 0.20073 0.0
C443 C 0.46436 0.54563 0.18281 0.0
C444 C 0.40163 0.53176 0.23702 0.0
C445 C 0.4638 0.53364 0.25573 0.0
C446 C 0.52614 0.54242 0.23776 0.0
C447 C 0.52563 0.5486 0.20153 0.0
C448 C 0.33408 0.52335 0.25531 0.0
C449 C 0.59353 0.54404 0.25674 0.0
H450 H 0.46225 0.61529 0.36921 0.0
H451 H 0.47459 0.40592 0.35561 0.0
H452 H 0.50053 0.66088 0.28571 0.0
H453 H 0.40977 0.6528 0.28479 0.0
H454 H 0.45099 0.68741 0.32262 0.0
H455 H 0.4754 0.35529 0.30091 0.0
H456 H 0.42717 0.39839 0.26847 0.0
H457 H 0.51813 0.40425 0.26866 0.0
H458 H 0.35524 0.53553 0.18631 0.0
H459 H 0.57347 0.55404 0.18771 0.0
H460 H 0.32763 0.56247 0.27523 0.0
H461 H 0.33292 0.47561 0.26898 0.0
H462 H 0.2902 0.52507 0.2371 0.0
H463 H 0.59345 0.58379 0.27659 0.0
H464 H 0.63737 0.55201 0.23897 0.0
H465 H 0.6012 0.49703 0.27056 0.0
loop_
_geom_bond_atom_site_label_1
_geom_bond_atom_site_label_2
_geom_bond_distance
_geom_bond_site_symmetry_2
_ccdc_geom_bond_type
O0 Zn1 1.953 . S
O0 C16 1.225 1_565 S
Zn1 O0 1.953 . S
Zn1 O2 1.951 1_565 S
Zn1 O8 1.919 . S
Zn1 O13 1.924 1_565 S
O2 Zn1 1.951 1_545 S
O2 Zn3 1.920 1_444 S
O2 Zn4 1.953 1_455 S
O2 Zn5 1.942 1_554 S
Zn3 O2 1.920 1_666 S
Zn3 O6 1.933 . S
Zn3 O9 1.941 1_655 S
Zn3 O10 1.965 . S
Zn4 O2 1.953 1_655 S
Zn4 O11 1.938 1_545 S
Zn4 O12 1.906 . S
Zn4 O22 1.953 . S
Zn5 O2 1.942 1_556 S
Zn5 O7 1.932 . S
Zn5 O14 1.977 1_455 S
Zn5 O15 1.910 . S
O6 Zn3 1.933 . S
O6 C17 1.226 1_665 S
O7 Zn5 1.932 . S
O7 C17 1.307 . S
O8 Zn1 1.919 . S
O8 C19 1.253 1_554 S
O9 Zn3 1.941 1_455 S
O9 C19 1.283 . S
O10 Zn3 1.965 . S
O10 C18 1.303 1_556 S
O11 Zn4 1.938 1_565 S
O11 C18 1.247 . S
O12 Zn4 1.906 . S
O12 C20 1.304 1_554 S
O13 Zn1 1.924 1_545 S
O13 C21 1.311 . S
O14 Zn5 1.977 1_655 S
O14 C20 1.272 . S
O15 Zn5 1.910 . S
O15 C21 1.231 1_556 S
C16 O0 1.225 1_545 S
C16 O22 1.298 1_455 S
C17 O6 1.226 1_445 S
C17 O7 1.307 . S
C18 O10 1.303 1_554 S
C18 O11 1.247 . S
C19 O8 1.253 1_556 S
C19 O9 1.283 . S
C20 O12 1.304 1_556 S
C20 O14 1.272 . S
C21 O13 1.311 . S
C21 O15 1.231 1_554 S
O22 Zn4 1.953 . S
O22 C16 1.298 1_655 S
O23 Zn24 1.953 . S
O23 C39 1.225 . S
Zn24 O23 1.953 . S
Zn24 O25 1.949 . S
Zn24 O31 1.919 . S
Zn24 O36 1.924 . S
O25 Zn24 1.949 . S
O25 Zn26 1.923 . S
O25 Zn27 1.950 . S
O25 Zn28 1.945 . S
Zn26 O25 1.923 . S
Zn26 O29 1.933 . S
Zn26 O32 1.941 . S
Zn26 O33 1.965 . S
Zn27 O25 1.950 . S
Zn27 O34 1.938 . S
Zn27 O35 1.906 . S
Zn27 O45 1.953 . S
Zn28 O25 1.945 . S
Zn28 O30 1.932 . S
Zn28 O37 1.977 . S
Zn28 O38 1.910 . S
O29 Zn26 1.933 . S
O29 C40 1.226 . S
O30 Zn28 1.932 . S
O30 C40 1.307 . S
O31 Zn24 1.919 . S
O31 C42 1.253 . S
O32 Zn26 1.941 . S
O32 C42 1.283 . S
O33 Zn26 1.965 . S
O33 C41 1.303 . S
O34 Zn27 1.938 . S
O34 C41 1.247 . S
O35 Zn27 1.906 . S
O35 C43 1.304 . S
O36 Zn24 1.924 . S
O36 C44 1.311 . S
O37 Zn28 1.977 . S
O37 C43 1.272 . S
O38 Zn28 1.910 . S
O38 C44 1.231 . S
C39 O23 1.225 . S
C39 O45 1.298 . S
C40 O29 1.226 . S
C40 O30 1.307 . S
C41 O33 1.303 . S
C41 O34 1.247 . S
C42 O31 1.253 . S
C42 O32 1.283 . S
C43 O35 1.304 . S
C43 O37 1.272 . S
C44 O36 1.311 . S
C44 O38 1.231 . S
O45 Zn27 1.953 . S
O45 C39 1.298 . S
H46 C49 0.931 . S
H47 C52 0.928 . S
H48 C54 0.930 1_545 S
C49 H46 0.931 . S
C49 C50 1.413 . S
C49 C51 1.357 1_545 S
C50 C49 1.413 . S
C50 C54 1.422 1_645 S
C51 C49 1.357 1_565 S
C51 C52 1.376 1_655 S
C52 H47 0.928 . S
C52 C51 1.376 1_455 S
C52 C53 1.404 . S
C53 C52 1.404 . S
C53 C54 1.398 . S
C54 H48 0.930 1_565 S
C54 C50 1.422 1_465 S
C54 C53 1.398 . S
H55 C58 0.931 . S
H56 C61 0.928 . S
H57 C63 0.930 . S
C58 H55 0.931 . S
C58 C59 1.413 . S
C58 C60 1.360 1_665 S
C59 C58 1.413 . S
C59 C63 1.429 1_665 S
C60 C58 1.360 1_445 S
C60 C61 1.372 . S
C61 H56 0.928 . S
C61 C60 1.372 . S
C61 C62 1.404 . S
C62 C61 1.404 . S
C62 C63 1.391 . S
C63 H57 0.930 . S
C63 C59 1.429 1_445 S
C63 C62 1.391 . S
H64 C67 0.931 . S
H65 C70 0.928 . S
H66 C72 0.930 . S
C67 H64 0.931 . S
C67 C68 1.413 . S
C67 C69 1.360 . S
C68 C67 1.413 . S
C68 C72 1.429 . S
C69 C67 1.360 . S
C69 C70 1.372 . S
C70 H65 0.928 . S
C70 C69 1.372 . S
C70 C71 1.404 . S
C71 C70 1.404 . S
C71 C72 1.391 . S
C72 H66 0.930 . S
C72 C68 1.429 . S
C72 C71 1.391 . S
H73 C76 0.931 . S
H74 C79 0.928 . S
H75 C81 0.930 . S
C76 H73 0.931 . S
C76 C77 1.413 . S
C76 C78 1.360 . S
C77 C76 1.413 . S
C77 C81 1.429 . S
C78 C76 1.360 . S
C78 C79 1.372 . S
C79 H74 0.928 . S
C79 C78 1.372 . S
C79 C80 1.404 . S
C80 C79 1.404 . S
C80 C81 1.391 . S
C81 H75 0.930 . S
C81 C77 1.429 . S
C81 C80 1.391 . S
C82 C83 1.391 . S
C82 C84 1.394 . S
C82 H98 0.931 . S
C83 C82 1.391 . S
C83 C87 1.376 . S
C84 C82 1.394 . S
C84 C85 1.369 . S
C84 C88 1.531 . S
C85 C84 1.369 . S
C85 C86 1.410 . S
C85 C93 1.503 . S
C86 C85 1.410 . S
C86 C87 1.392 . S
C86 C89 1.502 1_554 S
C87 C83 1.376 . S
C87 C86 1.392 . S
C87 H99 0.929 1_554 S
C88 C84 1.531 . S
C88 H100 0.960 . S
C88 H101 0.962 . S
C88 H102 0.960 . S
C89 C86 1.502 1_556 S
C89 H103 0.976 . S
C89 H104 0.959 1_556 S
C89 H105 0.956 1_556 S
C90 C91 1.370 . S
C90 C92 1.363 . S
C90 H106 0.931 . S
C91 C90 1.370 . S
C91 C95 1.408 . S
C92 C90 1.363 . S
C92 C93 1.370 . S
C92 C96 1.524 . S
C93 C85 1.503 . S
C93 C92 1.370 . S
C93 C94 1.403 . S
C94 C93 1.403 . S
C94 C95 1.404 . S
C94 C97 1.539 . S
C95 C91 1.408 . S
C95 C94 1.404 . S
C95 H107 0.930 . S
C96 C92 1.524 . S
C96 H108 0.956 . S
C96 H109 0.961 . S
C96 H110 0.961 . S
C97 C94 1.539 . S
C97 H111 0.958 . S
C97 H112 0.961 . S
C97 H113 0.960 . S
H98 C82 0.931 . S
H99 C87 0.929 1_556 S
H100 C88 0.960 . S
H101 C88 0.962 . S
H102 C88 0.960 . S
H103 C89 0.976 . S
H104 C89 0.959 1_554 S
H105 C89 0.956 1_554 S
H106 C90 0.931 . S
H107 C95 0.930 . S
H108 C96 0.956 . S
H109 C96 0.961 . S
H110 C96 0.961 . S
H111 C97 0.958 . S
H112 C97 0.961 . S
H113 C97 0.960 . S
C114 C115 1.391 . S
C114 C116 1.394 . S
C114 H130 0.931 . S
C115 C114 1.391 . S
C115 C119 1.376 . S
C116 C114 1.394 . S
C116 C117 1.369 . S
C116 C120 1.531 . S
C117 C116 1.369 . S
C117 C118 1.410 . S
C117 C125 1.503 . S
C118 C117 1.410 . S
C118 C119 1.392 . S
C118 C121 1.511 . S
C119 C115 1.376 . S
C119 C118 1.392 . S
C119 H131 0.929 1_556 S
C120 C116 1.531 . S
C120 H132 0.960 . S
C120 H133 0.962 . S
C120 H134 0.960 . S
C121 C118 1.511 . S
C121 H135 0.961 1_556 S
C121 H136 0.961 . S
C121 H137 0.961 . S
C122 C123 1.370 . S
C122 C124 1.363 . S
C122 H138 0.931 . S
C123 C122 1.370 . S
C123 C127 1.408 . S
C124 C122 1.363 . S
C124 C125 1.370 . S
C124 C128 1.524 . S
C125 C117 1.503 . S
C125 C124 1.370 . S
C125 C126 1.403 . S
C126 C125 1.403 . S
C126 C127 1.404 . S
C126 C129 1.539 . S
C127 C123 1.408 . S
C127 C126 1.404 . S
C127 H139 0.930 . S
C128 C124 1.524 . S
C128 H140 0.956 . S
C128 H141 0.961 . S
C128 H142 0.961 . S
C129 C126 1.539 . S
C129 H143 0.958 . S
C129 H144 0.961 . S
C129 H145 0.960 . S
H130 C114 0.931 . S
H131 C119 0.929 1_554 S
H132 C120 0.960 . S
H133 C120 0.962 . S
H134 C120 0.960 . S
H135 C121 0.961 1_554 S
H136 C121 0.961 . S
H137 C121 0.961 . S
H138 C122 0.931 . S
H139 C127 0.930 . S
H140 C128 0.956 . S
H141 C128 0.961 . S
H142 C128 0.961 . S
H143 C129 0.958 . S
H144 C129 0.961 . S
H145 C129 0.960 . S
C146 C147 1.391 . S
C146 C148 1.394 . S
C146 H162 0.931 1_554 S
C147 C146 1.391 . S
C147 C151 1.376 . S
C148 C146 1.394 . S
C148 C149 1.369 . S
C148 C152 1.531 1_554 S
C149 C148 1.369 . S
C149 C150 1.410 . S
C149 C157 1.503 . S
C150 C149 1.410 . S
C150 C151 1.392 . S
C150 C153 1.511 . S
C151 C147 1.376 . S
C151 C150 1.392 . S
C151 H163 0.929 . S
C152 C148 1.531 1_556 S
C152 H164 0.960 . S
C152 H165 0.962 1_556 S
C152 H166 0.960 . S
C153 C150 1.511 . S
C153 H167 0.961 . S
C153 H168 0.961 . S
C153 H169 0.961 . S
C154 C155 1.370 . S
C154 C156 1.363 . S
C154 H170 0.931 . S
C155 C154 1.370 . S
C155 C159 1.408 . S
C156 C154 1.363 . S
C156 C157 1.370 . S
C156 C160 1.524 . S
C157 C149 1.503 . S
C157 C156 1.370 . S
C157 C158 1.403 . S
C158 C157 1.403 . S
C158 C159 1.404 . S
C158 C161 1.539 . S
C159 C155 1.408 . S
C159 C158 1.404 . S
C159 H171 0.930 . S
C160 C156 1.524 . S
C160 H172 0.956 . S
C160 H173 0.961 . S
C160 H174 0.961 . S
C161 C158 1.539 . S
C161 H175 0.958 1_554 S
C161 H176 0.961 . S
C161 H177 0.960 . S
H162 C146 0.931 1_556 S
H163 C151 0.929 . S
H164 C152 0.960 . S
H165 C152 0.962 1_554 S
H166 C152 0.960 . S
H167 C153 0.961 . S
H168 C153 0.961 . S
H169 C153 0.961 . S
H170 C154 0.931 . S
H171 C159 0.930 . S
H172 C160 0.956 . S
H173 C160 0.961 . S
H174 C160 0.961 . S
H175 C161 0.958 1_556 S
H176 C161 0.961 . S
H177 C161 0.960 . S
C178 C179 1.391 . S
C178 C180 1.394 . S
C178 H194 0.931 . S
C179 C178 1.391 . S
C179 C183 1.376 . S
C180 C178 1.394 . S
C180 C181 1.369 . S
C180 C184 1.531 . S
C181 C180 1.369 . S
C181 C182 1.410 . S
C181 C189 1.503 . S
C182 C181 1.410 . S
C182 C183 1.392 . S
C182 C185 1.511 . S
C183 C179 1.376 . S
C183 C182 1.392 . S
C183 H195 0.929 . S
C184 C180 1.531 . S
C184 H196 0.960 . S
C184 H197 0.962 . S
C184 H198 0.960 1_556 S
C185 C182 1.511 . S
C185 H199 0.961 . S
C185 H200 0.961 . S
C185 H201 0.961 . S
C186 C187 1.370 . S
C186 C188 1.363 . S
C186 H202 0.931 . S
C187 C186 1.370 . S
C187 C191 1.408 . S
C188 C186 1.363 . S
C188 C189 1.370 . S
C188 C192 1.524 . S
C189 C181 1.503 . S
C189 C188 1.370 . S
C189 C190 1.403 . S
C190 C189 1.403 . S
C190 C191 1.404 . S
C190 C193 1.539 1_556 S
C191 C187 1.408 . S
C191 C190 1.404 . S
C191 H203 0.930 . S
C192 C188 1.524 . S
C192 H204 0.956 . S
C192 H205 0.961 . S
C192 H206 0.961 . S
C193 C190 1.539 1_554 S
C193 H207 0.958 . S
C193 H208 0.961 . S
C193 H209 0.960 . S
H194 C178 0.931 . S
H195 C183 0.929 . S
H196 C184 0.960 . S
H197 C184 0.962 . S
H198 C184 0.960 1_554 S
H199 C185 0.961 . S
H200 C185 0.961 . S
H201 C185 0.961 . S
H202 C186 0.931 . S
H203 C191 0.930 . S
H204 C192 0.956 . S
H205 C192 0.961 . S
H206 C192 0.961 . S
H207 C193 0.958 . S
H208 C193 0.961 . S
H209 C193 0.960 . S
C210 C211 1.391 . S
C210 C212 1.394 . S
C210 H226 0.931 . S
C211 C210 1.391 . S
C211 C215 1.376 . S
C212 C210 1.394 . S
C212 C213 1.369 . S
C212 C216 1.531 . S
C213 C212 1.369 . S
C213 C214 1.410 . S
C213 C221 1.503 . S
C214 C213 1.410 . S
C214 C215 1.392 . S
C214 C217 1.511 . S
C215 C211 1.376 . S
C215 C214 1.392 . S
C215 H227 0.929 . S
C216 C212 1.531 . S
C216 H228 0.960 . S
C216 H229 0.962 . S
C216 H230 0.960 . S
C217 C214 1.511 . S
C217 H231 0.961 . S
C217 H232 0.961 . S
C217 H233 0.961 . S
C218 C219 1.370 . S
C218 C220 1.363 . S
C218 H234 0.931 . S
C219 C218 1.370 . S
C219 C223 1.408 . S
C220 C218 1.363 . S
C220 C221 1.370 . S
C220 C224 1.524 . S
C221 C213 1.503 . S
C221 C220 1.370 . S
C221 C222 1.403 . S
C222 C221 1.403 . S
C222 C223 1.404 . S
C222 C225 1.539 . S
C223 C219 1.408 . S
C223 C222 1.404 . S
C223 H235 0.930 . S
C224 C220 1.524 . S
C224 H236 0.956 . S
C224 H237 0.961 . S
C224 H238 0.961 . S
C225 C222 1.539 . S
C225 H239 0.958 . S
C225 H240 0.961 . S
C225 H241 0.960 . S
H226 C210 0.931 . S
H227 C215 0.929 . S
H228 C216 0.960 . S
H229 C216 0.962 . S
H230 C216 0.960 . S
H231 C217 0.961 . S
H232 C217 0.961 . S
H233 C217 0.961 . S
H234 C218 0.931 . S
H235 C223 0.930 . S
H236 C224 0.956 . S
H237 C224 0.961 . S
H238 C224 0.961 . S
H239 C225 0.958 . S
H240 C225 0.961 . S
H241 C225 0.960 . S
C242 C243 1.391 . S
C242 C244 1.394 . S
C242 H258 0.931 . S
C243 C242 1.391 . S
C243 C247 1.376 . S
C244 C242 1.394 . S
C244 C245 1.369 . S
C244 C248 1.531 . S
C245 C244 1.369 . S
C245 C246 1.410 . S
C245 C253 1.503 . S
C246 C245 1.410 . S
C246 C247 1.392 . S
C246 C249 1.511 . S
C247 C243 1.376 . S
C247 C246 1.392 . S
C247 H259 0.929 . S
C248 C244 1.531 . S
C248 H260 0.960 . S
C248 H261 0.962 . S
C248 H262 0.960 . S
C249 C246 1.511 . S
C249 H263 0.961 . S
C249 H264 0.961 . S
C249 H265 0.961 . S
C250 C251 1.370 . S
C250 C252 1.363 . S
C250 H266 0.931 . S
C251 C250 1.370 . S
C251 C255 1.408 . S
C252 C250 1.363 . S
C252 C253 1.370 . S
C252 C256 1.524 . S
C253 C245 1.503 . S
C253 C252 1.370 . S
C253 C254 1.403 . S
C254 C253 1.403 . S
C254 C255 1.404 . S
C254 C257 1.539 . S
C255 C251 1.408 . S
C255 C254 1.404 . S
C255 H267 0.930 . S
C256 C252 1.524 . S
C256 H268 0.956 . S
C256 H269 0.961 . S
C256 H270 0.961 . S
C257 C254 1.539 . S
C257 H271 0.958 . S
C257 H272 0.961 . S
C257 H273 0.960 . S
H258 C242 0.931 . S
H259 C247 0.929 . S
H260 C248 0.960 . S
H261 C248 0.962 . S
H262 C248 0.960 . S
H263 C249 0.961 . S
H264 C249 0.961 . S
H265 C249 0.961 . S
H266 C250 0.931 . S
H267 C255 0.930 . S
H268 C256 0.956 . S
H269 C256 0.961 . S
H270 C256 0.961 . S
H271 C257 0.958 . S
H272 C257 0.961 . S
H273 C257 0.960 . S
C274 C275 1.391 . S
C274 C276 1.394 . S
C274 H290 0.931 . S
C275 C274 1.391 . S
C275 C279 1.376 . S
C276 C274 1.394 . S
C276 C277 1.369 . S
C276 C280 1.531 . S
C277 C276 1.369 . S
C277 C278 1.410 . S
C277 C285 1.503 . S
C278 C277 1.410 . S
C278 C279 1.392 . S
C278 C281 1.511 . S
C279 C275 1.376 . S
C279 C278 1.392 . S
C279 H291 0.929 . S
C280 C276 1.531 . S
C280 H292 0.960 . S
C280 H293 0.962 . S
C280 H294 0.960 . S
C281 C278 1.511 . S
C281 H295 0.961 . S
C281 H296 0.961 . S
C281 H297 0.961 . S
C282 C283 1.370 . S
C282 C284 1.363 . S
C282 H298 0.931 . S
C283 C282 1.370 . S
C283 C287 1.408 . S
C284 C282 1.363 . S
C284 C285 1.370 . S
C284 C288 1.524 . S
C285 C277 1.503 . S
C285 C284 1.370 . S
C285 C286 1.403 . S
C286 C285 1.403 . S
C286 C287 1.404 . S
C286 C289 1.539 . S
C287 C283 1.408 . S
C287 C286 1.404 . S
C287 H299 0.930 . S
C288 C284 1.524 . S
C288 H300 0.956 . S
C288 H301 0.961 . S
C288 H302 0.961 . S
C289 C286 1.539 . S
C289 H303 0.958 . S
C289 H304 0.961 . S
C289 H305 0.960 . S
H290 C274 0.931 . S
H291 C279 0.929 . S
H292 C280 0.960 . S
H293 C280 0.962 . S
H294 C280 0.960 . S
H295 C281 0.961 . S
H296 C281 0.961 . S
H297 C281 0.961 . S
H298 C282 0.931 . S
H299 C287 0.930 . S
H300 C288 0.956 . S
H301 C288 0.961 . S
H302 C288 0.961 . S
H303 C289 0.958 . S
H304 C289 0.961 . S
H305 C289 0.960 . S
C306 C307 1.391 . S
C306 C308 1.394 . S
C306 H322 0.931 . S
C307 C306 1.391 . S
C307 C311 1.376 . S
C308 C306 1.394 . S
C308 C309 1.369 . S
C308 C312 1.531 . S
C309 C308 1.369 . S
C309 C310 1.410 . S
C309 C317 1.503 . S
C310 C309 1.410 . S
C310 C311 1.392 . S
C310 C313 1.511 . S
C311 C307 1.376 . S
C311 C310 1.392 . S
C311 H323 0.929 . S
C312 C308 1.531 . S
C312 H324 0.960 . S
C312 H325 0.962 . S
C312 H326 0.960 . S
C313 C310 1.511 . S
C313 H327 0.961 . S
C313 H328 0.961 . S
C313 H329 0.961 . S
C314 C315 1.370 . S
C314 C316 1.363 . S
C314 H330 0.931 . S
C315 C314 1.370 . S
C315 C319 1.408 . S
C316 C314 1.363 . S
C316 C317 1.370 . S
C316 C320 1.524 . S
C317 C309 1.503 . S
C317 C316 1.370 . S
C317 C318 1.403 . S
C318 C317 1.403 . S
C318 C319 1.404 . S
C318 C321 1.539 . S
C319 C315 1.408 . S
C319 C318 1.404 . S
C319 H331 0.930 . S
C320 C316 1.524 . S
C320 H332 0.956 . S
C320 H333 0.961 . S
C320 H334 0.961 . S
C321 C318 1.539 . S
C321 H335 0.958 . S
C321 H336 0.961 . S
C321 H337 0.960 . S
H322 C306 0.931 . S
H323 C311 0.929 . S
H324 C312 0.960 . S
H325 C312 0.962 . S
H326 C312 0.960 . S
H327 C313 0.961 . S
H328 C313 0.961 . S
H329 C313 0.961 . S
H330 C314 0.931 . S
H331 C319 0.930 . S
H332 C320 0.956 . S
H333 C320 0.961 . S
H334 C320 0.961 . S
H335 C321 0.958 . S
H336 C321 0.961 . S
H337 C321 0.960 . S
C338 C339 1.391 . S
C338 C340 1.394 . S
C338 H354 0.931 . S
C339 C338 1.391 . S
C339 C343 1.376 1_445 S
C340 C338 1.394 . S
C340 C341 1.369 1_455 S
C340 C344 1.531 . S
C341 C340 1.369 1_655 S
C341 C342 1.410 1_545 S
C341 C349 1.503 . S
C342 C341 1.410 1_565 S
C342 C343 1.392 . S
C342 C345 1.511 . S
C343 C339 1.376 1_665 S
C343 C342 1.392 . S
C343 H355 0.929 . S
C344 C340 1.531 . S
C344 H356 0.960 . S
C344 H357 0.962 . S
C344 H358 0.960 . S
C345 C342 1.511 . S
C345 H359 0.961 . S
C345 H360 0.961 . S
C345 H361 0.961 . S
C346 C347 1.370 1_465 S
C346 C348 1.363 . S
C346 H362 0.931 . S
C347 C346 1.370 1_645 S
C347 C351 1.408 . S
C348 C346 1.363 . S
C348 C349 1.370 1_465 S
C348 C352 1.524 . S
C349 C341 1.503 . S
C349 C348 1.370 1_645 S
C349 C350 1.403 . S
C350 C349 1.403 . S
C350 C351 1.404 . S
C350 C353 1.539 . S
C351 C347 1.408 . S
C351 C350 1.404 . S
C351 H363 0.930 . S
C352 C348 1.524 . S
C352 H364 0.956 . S
C352 H365 0.961 . S
C352 H366 0.961 . S
C353 C350 1.539 . S
C353 H367 0.958 . S
C353 H368 0.961 . S
C353 H369 0.960 . S
H354 C338 0.931 . S
H355 C343 0.929 . S
H356 C344 0.960 . S
H357 C344 0.962 . S
H358 C344 0.960 . S
H359 C345 0.961 . S
H360 C345 0.961 . S
H361 C345 0.961 . S
H362 C346 0.931 . S
H363 C351 0.930 . S
H364 C352 0.956 . S
H365 C352 0.961 . S
H366 C352 0.961 . S
H367 C353 0.958 . S
H368 C353 0.961 . S
H369 C353 0.960 . S
C370 C371 1.391 1_565 S
C370 C372 1.394 . S
C370 H386 0.931 . S
C371 C370 1.391 1_545 S
C371 C375 1.376 1_455 S
C372 C370 1.394 . S
C372 C373 1.369 . S
C372 C376 1.531 . S
C373 C372 1.369 . S
C373 C374 1.410 1_465 S
C373 C381 1.503 . S
C374 C373 1.410 1_645 S
C374 C375 1.392 . S
C374 C377 1.511 . S
C375 C371 1.376 1_655 S
C375 C374 1.392 . S
C375 H387 0.929 . S
C376 C372 1.531 . S
C376 H388 0.960 . S
C376 H389 0.962 . S
C376 H390 0.960 . S
C377 C374 1.511 . S
C377 H391 0.961 . S
C377 H392 0.961 . S
C377 H393 0.961 . S
C378 C379 1.370 . S
C378 C380 1.363 . S
C378 H394 0.931 . S
C379 C378 1.370 . S
C379 C383 1.408 1_445 S
C380 C378 1.363 . S
C380 C381 1.370 1_545 S
C380 C384 1.524 . S
C381 C373 1.503 . S
C381 C380 1.370 1_565 S
C381 C382 1.403 1_455 S
C382 C381 1.403 1_655 S
C382 C383 1.404 . S
C382 C385 1.539 . S
C383 C379 1.408 1_665 S
C383 C382 1.404 . S
C383 H395 0.930 . S
C384 C380 1.524 . S
C384 H396 0.956 . S
C384 H397 0.961 . S
C384 H398 0.961 . S
C385 C382 1.539 . S
C385 H399 0.958 . S
C385 H400 0.961 . S
C385 H401 0.960 . S
H386 C370 0.931 . S
H387 C375 0.929 . S
H388 C376 0.960 . S
H389 C376 0.962 . S
H390 C376 0.960 . S
H391 C377 0.961 . S
H392 C377 0.961 . S
H393 C377 0.961 . S
H394 C378 0.931 . S
H395 C383 0.930 . S
H396 C384 0.956 . S
H397 C384 0.961 . S
H398 C384 0.961 . S
H399 C385 0.958 . S
H400 C385 0.961 . S
H401 C385 0.960 . S
C402 C403 1.391 . S
C402 C404 1.394 . S
C402 H418 0.931 . S
C403 C402 1.391 . S
C403 C407 1.376 . S
C404 C402 1.394 . S
C404 C405 1.369 . S
C404 C408 1.531 . S
C405 C404 1.369 . S
C405 C406 1.410 . S
C405 C413 1.503 . S
C406 C405 1.410 . S
C406 C407 1.392 . S
C406 C409 1.511 . S
C407 C403 1.376 . S
C407 C406 1.392 . S
C407 H419 0.929 . S
C408 C404 1.531 . S
C408 H420 0.960 . S
C408 H421 0.962 . S
C408 H422 0.960 . S
C409 C406 1.511 . S
C409 H423 0.961 . S
C409 H424 0.961 . S
C409 H425 0.961 . S
C410 C411 1.370 . S
C410 C412 1.363 . S
C410 H426 0.931 . S
C411 C410 1.370 . S
C411 C415 1.408 . S
C412 C410 1.363 . S
C412 C413 1.370 . S
C412 C416 1.524 . S
C413 C405 1.503 . S
C413 C412 1.370 . S
C413 C414 1.403 . S
C414 C413 1.403 . S
C414 C415 1.404 . S
C414 C417 1.539 . S
C415 C411 1.408 . S
C415 C414 1.404 . S
C415 H427 0.930 . S
C416 C412 1.524 . S
C416 H428 0.956 . S
C416 H429 0.961 . S
C416 H430 0.961 . S
C417 C414 1.539 . S
C417 H431 0.958 . S
C417 H432 0.961 . S
C417 H433 0.960 . S
H418 C402 0.931 . S
H419 C407 0.929 . S
H420 C408 0.960 . S
H421 C408 0.962 . S
H422 C408 0.960 . S
H423 C409 0.961 . S
H424 C409 0.961 . S
H425 C409 0.961 . S
H426 C410 0.931 . S
H427 C415 0.930 . S
H428 C416 0.956 . S
H429 C416 0.961 . S
H430 C416 0.961 . S
H431 C417 0.958 . S
H432 C417 0.961 . S
H433 C417 0.960 . S
C434 C435 1.391 . S
C434 C436 1.394 . S
C434 H450 0.931 . S
C435 C434 1.391 . S
C435 C439 1.376 . S
C436 C434 1.394 . S
C436 C437 1.369 . S
C436 C440 1.531 . S
C437 C436 1.369 . S
C437 C438 1.410 . S
C437 C445 1.503 . S
C438 C437 1.410 . S
C438 C439 1.392 . S
C438 C441 1.511 . S
C439 C435 1.376 . S
C439 C438 1.392 . S
C439 H451 0.929 . S
C440 C436 1.531 . S
C440 H452 0.960 . S
C440 H453 0.962 . S
C440 H454 0.960 . S
C441 C438 1.511 . S
C441 H455 0.961 . S
C441 H456 0.961 . S
C441 H457 0.961 . S
C442 C443 1.370 . S
C442 C444 1.363 . S
C442 H458 0.931 . S
C443 C442 1.370 . S
C443 C447 1.408 . S
C444 C442 1.363 . S
C444 C445 1.370 . S
C444 C448 1.524 . S
C445 C437 1.503 . S
C445 C444 1.370 . S
C445 C446 1.403 . S
C446 C445 1.403 . S
C446 C447 1.404 . S
C446 C449 1.539 . S
C447 C443 1.408 . S
C447 C446 1.404 . S
C447 H459 0.930 . S
C448 C444 1.524 . S
C448 H460 0.956 . S
C448 H461 0.961 . S
C448 H462 0.961 . S
C449 C446 1.539 . S
C449 H463 0.958 . S
C449 H464 0.961 . S
C449 H465 0.960 . S
H450 C434 0.931 . S
H451 C439 0.929 . S
H452 C440 0.960 . S
H453 C440 0.962 . S
H454 C440 0.960 . S
H455 C441 0.961 . S
H456 C441 0.961 . S
H457 C441 0.961 . S
H458 C442 0.931 . S
H459 C447 0.930 . S
H460 C448 0.956 . S
H461 C448 0.961 . S
H462 C448 0.961 . S
H463 C449 0.958 . S
H464 C449 0.961 . S
H465 C449 0.960 . S
C91 C77 1.420 . S
C83 C21 1.414 . S
C115 C19 1.426 . S
C123 C68 1.416 . S
C147 C18 1.395 . S
C155 C80 1.398 . S
C179 C20 1.398 . S
C187 C71 1.411 . S
C211 C44 1.414 . S
C219 C59 1.419 . S
C243 C42 1.404 . S
C251 C50 1.423 . S
C283 C62 1.399 . S
C275 C41 1.372 . S
C315 C53 1.404 . S
C307 C43 1.394 . S
C339 C16 1.493 . S
C347 C51 1.495 1_545 S
C371 C17 1.456 . S
C379 C60 1.465 . S
C411 C69 1.495 . S
C403 C39 1.493 . S
C435 C40 1.460 . S
C443 C78 1.466 . S
