# Generated by pormake.
# Topology eea, (3,6)-cn, num edge types: 1
# Building blocks:
#     Node 0, Type 0, BuildingBlock: BETDIP_clean_linker_0, # of connection points: 3
#     Node 1, Type 0, BuildingBlock: BETDIP_clean_linker_0, # of connection points: 3
#     Node 2, Type 0, BuildingBlock: BETDIP_clean_linker_0, # of connection points: 3
#     Node 3, Type 0, BuildingBlock: BETDIP_clean_linker_0, # of connection points: 3
#     Node 4, Type 0, BuildingBlock: BETDIP_clean_linker_0, # of connection points: 3
#     Node 5, Type 0, BuildingBlock: BETDIP_clean_linker_0, # of connection points: 3
#     Node 6, Type 0, BuildingBlock: BETDIP_clean_linker_0, # of connection points: 3
#     Node 7, Type 0, BuildingBlock: BETDIP_clean_linker_0, # of connection points: 3
#     Node 8, Type 0, BuildingBlock: BETDIP_clean_linker_0, # of connection points: 3
#     Node 9, Type 0, BuildingBlock: BETDIP_clean_linker_0, # of connection points: 3
#     Node 10, Type 0, BuildingBlock: BETDIP_clean_linker_0, # of connection points: 3
#     Node 11, Type 0, BuildingBlock: BETDIP_clean_linker_0, # of connection points: 3
#     Node 12, Type 0, BuildingBlock: BETDIP_clean_linker_0, # of connection points: 3
#     Node 13, Type 0, BuildingBlock: BETDIP_clean_linker_0, # of connection points: 3
#     Node 14, Type 0, BuildingBlock: BETDIP_clean_linker_0, # of connection points: 3
#     Node 15, Type 0, BuildingBlock: BETDIP_clean_linker_0, # of connection points: 3
#     Node 16, Type 0, BuildingBlock: BETDIP_clean_linker_0, # of connection points: 3
#     Node 17, Type 0, BuildingBlock: BETDIP_clean_linker_0, # of connection points: 3
#     Node 18, Type 1, BuildingBlock: CUWYAW_clean_sbu_0, # of connection points: 6
#     Node 19, Type 1, BuildingBlock: CUWYAW_clean_sbu_0, # of connection points: 6
#     Node 20, Type 1, BuildingBlock: CUWYAW_clean_sbu_0, # of connection points: 6
#     Node 21, Type 1, BuildingBlock: CUWYAW_clean_sbu_0, # of connection points: 6
#     Node 22, Type 1, BuildingBlock: CUWYAW_clean_sbu_0, # of connection points: 6
#     Node 23, Type 1, BuildingBlock: CUWYAW_clean_sbu_0, # of connection points: 6
#     Node 24, Type 1, BuildingBlock: CUWYAW_clean_sbu_0, # of connection points: 6
#     Node 25, Type 1, BuildingBlock: CUWYAW_clean_sbu_0, # of connection points: 6
#     Node 26, Type 1, BuildingBlock: CUWYAW_clean_sbu_0, # of connection points: 6
#     Edge 27, Type (0, 1), BuildingBlock: XUDNAN_clean_linker_2, # of connection points: 2
#     Edge 28, Type (0, 1), BuildingBlock: XUDNAN_clean_linker_2, # of connection points: 2
#     Edge 29, Type (0, 1), BuildingBlock: XUDNAN_clean_linker_2, # of connection points: 2
#     Edge 30, Type (0, 1), BuildingBlock: XUDNAN_clean_linker_2, # of connection points: 2
#     Edge 31, Type (0, 1), BuildingBlock: XUDNAN_clean_linker_2, # of connection points: 2
#     Edge 32, Type (0, 1), BuildingBlock: XUDNAN_clean_linker_2, # of connection points: 2
#     Edge 33, Type (0, 1), BuildingBlock: XUDNAN_clean_linker_2, # of connection points: 2
#     Edge 34, Type (0, 1), BuildingBlock: XUDNAN_clean_linker_2, # of connection points: 2
#     Edge 35, Type (0, 1), BuildingBlock: XUDNAN_clean_linker_2, # of connection points: 2
#     Edge 36, Type (0, 1), BuildingBlock: XUDNAN_clean_linker_2, # of connection points: 2
#     Edge 37, Type (0, 1), BuildingBlock: XUDNAN_clean_linker_2, # of connection points: 2
#     Edge 38, Type (0, 1), BuildingBlock: XUDNAN_clean_linker_2, # of connection points: 2
#     Edge 39, Type (0, 1), BuildingBlock: XUDNAN_clean_linker_2, # of connection points: 2
#     Edge 40, Type (0, 1), BuildingBlock: XUDNAN_clean_linker_2, # of connection points: 2
#     Edge 41, Type (0, 1), BuildingBlock: XUDNAN_clean_linker_2, # of connection points: 2
#     Edge 42, Type (0, 1), BuildingBlock: XUDNAN_clean_linker_2, # of connection points: 2
#     Edge 43, Type (0, 1), BuildingBlock: XUDNAN_clean_linker_2, # of connection points: 2
#     Edge 44, Type (0, 1), BuildingBlock: XUDNAN_clean_linker_2, # of connection points: 2
#     Edge 45, Type (0, 1), BuildingBlock: XUDNAN_clean_linker_2, # of connection points: 2
#     Edge 46, Type (0, 1), BuildingBlock: XUDNAN_clean_linker_2, # of connection points: 2
#     Edge 47, Type (0, 1), BuildingBlock: XUDNAN_clean_linker_2, # of connection points: 2
#     Edge 48, Type (0, 1), BuildingBlock: XUDNAN_clean_linker_2, # of connection points: 2
#     Edge 49, Type (0, 1), BuildingBlock: XUDNAN_clean_linker_2, # of connection points: 2
#     Edge 50, Type (0, 1), BuildingBlock: XUDNAN_clean_linker_2, # of connection points: 2
#     Edge 51, Type (0, 1), BuildingBlock: XUDNAN_clean_linker_2, # of connection points: 2
#     Edge 52, Type (0, 1), BuildingBlock: XUDNAN_clean_linker_2, # of connection points: 2
#     Edge 53, Type (0, 1), BuildingBlock: XUDNAN_clean_linker_2, # of connection points: 2
#     Edge 54, Type (0, 1), BuildingBlock: XUDNAN_clean_linker_2, # of connection points: 2
#     Edge 55, Type (0, 1), BuildingBlock: XUDNAN_clean_linker_2, # of connection points: 2
#     Edge 56, Type (0, 1), BuildingBlock: XUDNAN_clean_linker_2, # of connection points: 2
#     Edge 57, Type (0, 1), BuildingBlock: XUDNAN_clean_linker_2, # of connection points: 2
#     Edge 58, Type (0, 1), BuildingBlock: XUDNAN_clean_linker_2, # of connection points: 2
#     Edge 59, Type (0, 1), BuildingBlock: XUDNAN_clean_linker_2, # of connection points: 2
#     Edge 60, Type (0, 1), BuildingBlock: XUDNAN_clean_linker_2, # of connection points: 2
#     Edge 61, Type (0, 1), BuildingBlock: XUDNAN_clean_linker_2, # of connection points: 2
#     Edge 62, Type (0, 1), BuildingBlock: XUDNAN_clean_linker_2, # of connection points: 2
#     Edge 63, Type (0, 1), BuildingBlock: XUDNAN_clean_linker_2, # of connection points: 2
#     Edge 64, Type (0, 1), BuildingBlock: XUDNAN_clean_linker_2, # of connection points: 2
#     Edge 65, Type (0, 1), BuildingBlock: XUDNAN_clean_linker_2, # of connection points: 2
#     Edge 66, Type (0, 1), BuildingBlock: XUDNAN_clean_linker_2, # of connection points: 2
#     Edge 67, Type (0, 1), BuildingBlock: XUDNAN_clean_linker_2, # of connection points: 2
#     Edge 68, Type (0, 1), BuildingBlock: XUDNAN_clean_linker_2, # of connection points: 2
#     Edge 69, Type (0, 1), BuildingBlock: XUDNAN_clean_linker_2, # of connection points: 2
#     Edge 70, Type (0, 1), BuildingBlock: XUDNAN_clean_linker_2, # of connection points: 2
#     Edge 71, Type (0, 1), BuildingBlock: XUDNAN_clean_linker_2, # of connection points: 2
#     Edge 72, Type (0, 1), BuildingBlock: XUDNAN_clean_linker_2, # of connection points: 2
#     Edge 73, Type (0, 1), BuildingBlock: XUDNAN_clean_linker_2, # of connection points: 2
#     Edge 74, Type (0, 1), BuildingBlock: XUDNAN_clean_linker_2, # of connection points: 2
#     Edge 75, Type (0, 1), BuildingBlock: XUDNAN_clean_linker_2, # of connection points: 2
#     Edge 76, Type (0, 1), BuildingBlock: XUDNAN_clean_linker_2, # of connection points: 2
#     Edge 77, Type (0, 1), BuildingBlock: XUDNAN_clean_linker_2, # of connection points: 2
#     Edge 78, Type (0, 1), BuildingBlock: XUDNAN_clean_linker_2, # of connection points: 2
#     Edge 79, Type (0, 1), BuildingBlock: XUDNAN_clean_linker_2, # of connection points: 2
#     Edge 80, Type (0, 1), BuildingBlock: XUDNAN_clean_linker_2, # of connection points: 2
# Relax obj value: 0.060
# Max RMSD: 0.209
# Mean RMSD: 0.146
data_MOF--net-eea--node1-CUWYAW_clean_sbu_0--node2-BETDIP_clean_linker_0--edge1-XUDNAN_clean_linker_2
_symmetry_space_group_name_H-M    P1
_symmetry_Int_Tables_number       1
_symmetry_cell_setting            triclinic
loop_
_symmetry_equiv_pos_as_xyz
'x, y, z'
_cell_length_a     54.678858
_cell_length_b     54.264795
_cell_length_c     69.972633
_cell_angle_alpha  93.291481
_cell_angle_beta   93.409513
_cell_angle_gamma 119.82037
loop_
_atom_site_label
_atom_site_type_symbol
_atom_site_fract_x
_atom_site_fract_y
_atom_site_fract_z
_atom_type_partial_charge
H0 H 0.19928 0.08339 0.38531 0.0
H1 H 0.20255 0.1301 0.43833 0.0
H2 H 0.21063 0.05554 0.43973 0.0
H3 H 0.20965 0.16476 0.42032 0.0
C4 C 0.20138 0.1557 0.40558 0.0
C5 C 0.20107 0.08594 0.4009 0.0
C6 C 0.20501 0.06669 0.4114 0.0
C7 C 0.20068 0.10926 0.41037 0.0
C8 C 0.20338 0.11272 0.43065 0.0
C9 C 0.20656 0.09311 0.44125 0.0
C10 C 0.20748 0.0703 0.43154 0.0
N11 N 0.19735 0.12849 0.39894 0.0
H12 H 0.91753 0.11688 0.38675 0.0
H13 H 0.88635 0.10564 0.44188 0.0
H14 H 0.96531 0.18018 0.43508 0.0
H15 H 0.87418 0.05967 0.43301 0.0
C16 C 0.86567 0.05675 0.4181 0.0
C17 C 0.9208 0.12475 0.40176 0.0
C18 C 0.94446 0.15146 0.409 0.0
C19 C 0.90092 0.1074 0.41382 0.0
C20 C 0.90305 0.11786 0.43301 0.0
C21 C 0.92592 0.14445 0.44065 0.0
C22 C 0.94694 0.1606 0.42872 0.0
N23 N 0.87887 0.07955 0.40634 0.0
H24 H 0.89019 0.78582 0.38641 0.0
H25 H 0.929 0.78493 0.44145 0.0
H26 H 0.84774 0.77924 0.43744 0.0
H27 H 0.96941 0.80728 0.42653 0.0
C28 C 0.96331 0.79818 0.41162 0.0
C29 C 0.88936 0.78457 0.40178 0.0
C30 C 0.86591 0.78238 0.41046 0.0
C31 C 0.91238 0.78603 0.41277 0.0
C32 C 0.91178 0.78464 0.43277 0.0
C33 C 0.88862 0.78268 0.44168 0.0
C34 C 0.86587 0.78158 0.43049 0.0
N35 N 0.93537 0.78829 0.40303 0.0
H36 H 0.09235 0.21695 0.62928 0.0
H37 H 0.1372 0.23795 0.57898 0.0
H38 H 0.06173 0.24407 0.5817 0.0
H39 H 0.15672 0.21211 0.59101 0.0
C40 C 0.15665 0.21469 0.6065 0.0
C41 C 0.09408 0.22361 0.61487 0.0
C42 C 0.07447 0.23049 0.60671 0.0
C43 C 0.11616 0.22536 0.60482 0.0
C44 C 0.11918 0.23486 0.58633 0.0
C45 C 0.09977 0.24207 0.57783 0.0
C46 C 0.07702 0.23893 0.58802 0.0
N47 N 0.13582 0.21929 0.61459 0.0
H48 H 0.82607 0.90205 0.63998 0.0
H49 H 0.82228 0.93263 0.58513 0.0
H50 H 0.79313 0.84369 0.58814 0.0
H51 H 0.82567 0.94446 0.65125 0.0
C52 C 0.83321 0.95892 0.64012 0.0
C53 C 0.82057 0.898 0.62456 0.0
C54 C 0.80921 0.87004 0.61541 0.0
C55 C 0.82491 0.92054 0.6135 0.0
C56 C 0.81868 0.91514 0.59353 0.0
C57 C 0.80677 0.8875 0.58434 0.0
C58 C 0.80186 0.86501 0.59534 0.0
N59 N 0.83567 0.94916 0.62144 0.0
H60 H 0.12583 0.91773 0.63009 0.0
H61 H 0.0843 0.87548 0.57401 0.0
H62 H 0.16279 0.95551 0.57936 0.0
H63 H 0.04481 0.85561 0.5901 0.0
C64 C 0.05187 0.85363 0.60447 0.0
C65 C 0.12495 0.91727 0.61455 0.0
C66 C 0.14678 0.93945 0.60602 0.0
C67 C 0.10176 0.89465 0.60322 0.0
C68 C 0.10125 0.8935 0.58301 0.0
C69 C 0.1232 0.91552 0.57432 0.0
C70 C 0.14553 0.93874 0.58594 0.0
N71 N 0.07999 0.87312 0.61274 0.0
H72 H 0.86585 0.42626 0.71214 0.0
H73 H 0.90988 0.49023 0.75989 0.0
H74 H 0.90674 0.40932 0.75985 0.0
H75 H 0.90691 0.52023 0.73999 0.0
C76 C 0.88845 0.50724 0.72976 0.0
C77 C 0.87848 0.43309 0.72597 0.0
C78 C 0.88511 0.41433 0.73495 0.0
C79 C 0.88771 0.46062 0.73458 0.0
C80 C 0.90377 0.46955 0.75265 0.0
C81 C 0.91076 0.45115 0.76193 0.0
C82 C 0.90161 0.42369 0.75282 0.0
N83 N 0.87878 0.47772 0.72504 0.0
H84 H 0.58667 0.45318 0.71618 0.0
H85 H 0.55183 0.44301 0.77047 0.0
H86 H 0.62832 0.52021 0.76282 0.0
H87 H 0.51111 0.42026 0.75005 0.0
C88 C 0.51581 0.40679 0.74069 0.0
C89 C 0.58794 0.4615 0.73088 0.0
C90 C 0.6103 0.48882 0.73808 0.0
C91 C 0.56658 0.44508 0.74237 0.0
C92 C 0.56821 0.45565 0.76152 0.0
C93 C 0.59039 0.48276 0.76905 0.0
C94 C 0.6114 0.49909 0.75722 0.0
N95 N 0.5433 0.41831 0.73433 0.0
H96 H 0.55594 0.12551 0.7269 0.0
H97 H 0.59047 0.10715 0.77705 0.0
H98 H 0.50807 0.09953 0.77583 0.0
H99 H 0.63174 0.13051 0.76369 0.0
C100 C 0.62584 0.1261 0.74826 0.0
C101 C 0.55396 0.11931 0.74143 0.0
C102 C 0.52944 0.11322 0.75032 0.0
C103 C 0.57607 0.11737 0.75089 0.0
C104 C 0.57369 0.10917 0.76971 0.0
C105 C 0.54924 0.10276 0.77896 0.0
C106 C 0.52736 0.10524 0.76918 0.0
N107 N 0.59931 0.12198 0.74044 0.0
H108 H 0.75181 0.54333 0.95338 0.0
H109 H 0.79057 0.55308 0.90076 0.0
H110 H 0.7187 0.56502 0.90373 0.0
H111 H 0.80747 0.52572 0.91444 0.0
C112 C 0.8123 0.53498 0.92931 0.0
C113 C 0.75228 0.54769 0.93844 0.0
C114 C 0.73238 0.554 0.92986 0.0
C115 C 0.77303 0.54695 0.92807 0.0
C116 C 0.77413 0.55283 0.90877 0.0
C117 C 0.75449 0.55922 0.89983 0.0
C118 C 0.7334 0.55936 0.91039 0.0
N119 N 0.7937 0.54244 0.93799 0.0
H120 H 0.47694 0.22942 0.98219 0.0
H121 H 0.44743 0.23882 0.92629 0.0
H122 H 0.45928 0.16749 0.93415 0.0
H123 H 0.42816 0.25942 0.94413 0.0
C124 C 0.44565 0.27286 0.95499 0.0
C125 C 0.46998 0.22166 0.96713 0.0
C126 C 0.46908 0.19648 0.95965 0.0
C127 C 0.46131 0.23659 0.95538 0.0
C128 C 0.45263 0.22668 0.93579 0.0
C129 C 0.45168 0.20173 0.92805 0.0
C130 C 0.45983 0.18668 0.94008 0.0
N131 N 0.46227 0.26192 0.96334 0.0
H132 H 0.79042 0.25288 0.97123 0.0
H133 H 0.75598 0.19795 0.91842 0.0
H134 H 0.83913 0.27268 0.92261 0.0
H135 H 0.71351 0.18543 0.93089 0.0
C136 C 0.71922 0.18457 0.94587 0.0
C137 C 0.79242 0.24803 0.95635 0.0
C138 C 0.81711 0.2661 0.94798 0.0
C139 C 0.7701 0.22377 0.94573 0.0
C140 C 0.77286 0.21706 0.92657 0.0
C141 C 0.79777 0.23445 0.91804 0.0
C142 C 0.81959 0.25932 0.92879 0.0
N143 N 0.74615 0.20556 0.95519 0.0
H144 H 0.52841 0.75256 0.04493 0.0
H145 H 0.563 0.81958 0.09147 0.0
H146 H 0.56643 0.7428 0.09732 0.0
H147 H 0.56885 0.84745 0.06663 0.0
C148 C 0.54881 0.83427 0.05784 0.0
C149 C 0.5394 0.76107 0.05923 0.0
C150 C 0.54645 0.74438 0.07041 0.0
C151 C 0.54584 0.78848 0.06655 0.0
C152 C 0.5593 0.7991 0.08537 0.0
C153 C 0.56688 0.78285 0.09671 0.0
C154 C 0.56037 0.7555 0.089 0.0
N155 N 0.53707 0.80413 0.05512 0.0
H156 H 0.25964 0.80869 0.04598 0.0
H157 H 0.19598 0.76498 0.08369 0.0
H158 H 0.26515 0.84917 0.10235 0.0
H159 H 0.17516 0.76271 0.03837 0.0
C160 C 0.18326 0.74873 0.04203 0.0
C161 C 0.25109 0.80901 0.0595 0.0
C162 C 0.26559 0.83277 0.07345 0.0
C163 C 0.2256 0.78509 0.06301 0.0
C164 C 0.21507 0.78409 0.08088 0.0
C165 C 0.22984 0.80673 0.09542 0.0
C166 C 0.25432 0.83143 0.09128 0.0
N167 N 0.21204 0.76069 0.04939 0.0
H168 H 0.21591 0.46642 0.05566 0.0
H169 H 0.25228 0.43608 0.09778 0.0
H170 H 0.1733 0.43258 0.10565 0.0
H171 H 0.29307 0.47084 0.08686 0.0
C172 C 0.28701 0.46568 0.07145 0.0
C173 C 0.21471 0.45673 0.06895 0.0
C174 C 0.19228 0.45072 0.08018 0.0
C175 C 0.23658 0.45181 0.07533 0.0
C176 C 0.23547 0.43991 0.09284 0.0
C177 C 0.2128 0.43301 0.10404 0.0
C178 C 0.19121 0.43826 0.09741 0.0
N179 N 0.25939 0.45885 0.06387 0.0
H180 H 0.44747 0.90826 0.29958 0.0
H181 H 0.48092 0.91427 0.2452 0.0
H182 H 0.3952 0.89523 0.24679 0.0
H183 H 0.50999 0.90308 0.26022 0.0
C184 C 0.51185 0.9086 0.27558 0.0
C185 C 0.44413 0.90674 0.28406 0.0
C186 C 0.41778 0.90055 0.27477 0.0
C187 C 0.46652 0.91043 0.27361 0.0
C188 C 0.46351 0.91024 0.25356 0.0
C189 C 0.43802 0.9054 0.24404 0.0
C190 C 0.41508 0.90015 0.25454 0.0
N191 N 0.49132 0.91353 0.28383 0.0
H192 H 0.15695 0.55383 0.3015 0.0
H193 H 0.10935 0.57466 0.261 0.0
H194 H 0.1067 0.4947 0.252 0.0
H195 H 0.14279 0.61927 0.27065 0.0
C196 C 0.14667 0.61905 0.28602 0.0
C197 C 0.1428 0.54818 0.28845 0.0
C198 C 0.13281 0.52163 0.2776 0.0
C199 C 0.13523 0.5679 0.2823 0.0
C200 C 0.11649 0.56037 0.26558 0.0
C201 C 0.10655 0.53425 0.25455 0.0
C202 C 0.11495 0.5151 0.26045 0.0
N203 N 0.14614 0.5948 0.29334 0.0
H204 H 0.45802 0.58737 0.29643 0.0
H205 H 0.42596 0.51926 0.25064 0.0
H206 H 0.50088 0.59911 0.24519 0.0
H207 H 0.38394 0.50896 0.26217 0.0
C208 C 0.3895 0.51181 0.27762 0.0
C209 C 0.45971 0.57923 0.28237 0.0
C210 C 0.48182 0.59682 0.27162 0.0
C211 C 0.43901 0.55149 0.27473 0.0
C212 C 0.44129 0.54086 0.25648 0.0
C213 C 0.46344 0.55801 0.24567 0.0
C214 C 0.48345 0.58596 0.25332 0.0
N215 N 0.41638 0.53467 0.28576 0.0
C216 C 0.52834 0.01087 0.06996 0.0
Eu217 Eu 0.51238 0.01665 0.0355 0.0
C218 C 0.51399 0.99523 0.0862 0.0
C219 C 0.49208 0.99797 0.09374 0.0
C220 C 0.47853 0.98258 0.10893 0.0
C221 C 0.48649 0.96403 0.11679 0.0
C222 C 0.50834 0.96128 0.10918 0.0
C223 C 0.52201 0.97682 0.0941 0.0
C224 C 0.50623 0.06052 0.02484 0.0
C225 C 0.44307 0.98016 0.02924 0.0
C226 C 0.46491 0.01157 0.96093 0.0
Eu227 Eu 0.48178 0.00639 0.99546 0.0
C228 C 0.47786 0.0227 0.94321 0.0
C229 C 0.50498 0.02743 0.94035 0.0
C230 C 0.51645 0.03664 0.92305 0.0
C231 C 0.501 0.04125 0.90824 0.0
C232 C 0.47413 0.03723 0.91145 0.0
C233 C 0.46271 0.02806 0.92879 0.0
C234 C 0.48916 0.96309 0.00601 0.0
C235 C 0.55183 0.04248 0.00249 0.0
O236 O 0.52703 0.99519 0.05459 0.0
O237 O 0.52494 0.03227 0.06585 0.0
O238 O 0.52835 0.06368 0.03512 0.0
O239 O 0.48755 0.03439 0.02151 0.0
O240 O 0.46677 0.98572 0.03925 0.0
O241 O 0.44296 0.98881 0.01194 0.0
O242 O 0.47156 0.0304 0.97566 0.0
O243 O 0.46486 0.98864 0.96579 0.0
O244 O 0.46676 0.95931 0.99577 0.0
O245 O 0.50717 0.98934 0.00923 0.0
O246 O 0.52852 0.03664 0.99159 0.0
O247 O 0.5508 0.03337 0.01965 0.0
H248 H 0.48535 0.01193 0.08789 0.0
H249 H 0.46163 0.98497 0.11441 0.0
H250 H 0.51523 0.94747 0.11512 0.0
H251 H 0.53893 0.97449 0.08861 0.0
H252 H 0.51709 0.02357 0.95137 0.0
H253 H 0.53734 0.03992 0.92121 0.0
H254 H 0.46151 0.04028 0.90034 0.0
H255 H 0.44177 0.02461 0.93079 0.0
C256 C 0.99347 0.52332 0.06653 0.0
Eu257 Eu 0.99416 0.50553 0.03134 0.0
C258 C 0.00551 0.5247 0.08615 0.0
C259 C 0.01547 0.50625 0.09099 0.0
C260 C 0.02406 0.50597 0.1102 0.0
C261 C 0.02266 0.52402 0.12481 0.0
C262 C 0.01373 0.54322 0.11969 0.0
C263 C 0.00521 0.5435 0.10055 0.0
C264 C 0.95928 0.45353 0.01222 0.0
C265 C 0.0435 0.48817 0.02791 0.0
C266 C 1.0039 0.46507 0.95624 0.0
Eu267 Eu 0.0094 0.49194 0.98961 0.0
C268 C 0.99839 0.46846 0.93604 0.0
C269 C 0.99811 0.49297 0.93098 0.0
C270 C 0.99186 0.49549 0.91175 0.0
C271 C 0.98563 0.47347 0.8973 0.0
C272 C 0.98594 0.44896 0.90252 0.0
C273 C 0.99226 0.4465 0.92173 0.0
C274 C 0.04117 0.54844 0.00274 0.0
C275 C 0.96674 0.51788 0.99419 0.0
O276 O 0.01084 0.5399 0.05476 0.0
O277 O 0.9752 0.49777 0.05831 0.0
O278 O 0.95056 0.46702 0.02325 0.0
O279 O 0.98593 0.46698 0.01287 0.0
O280 O 0.03049 0.49816 0.03855 0.0
O281 O 0.0374 0.48165 0.00897 0.0
O282 O 0.98283 0.45859 0.96674 0.0
O283 O 0.02855 0.48436 0.96518 0.0
O284 O 0.04378 0.53831 0.98616 0.0
O285 O 0.0218 0.5283 0.01009 0.0
O286 O 0.97413 0.5023 0.98319 0.0
O287 O 0.9756 0.52542 0.01272 0.0
H288 H 0.01581 0.49154 0.08002 0.0
H289 H 0.03077 0.4909 0.11368 0.0
H290 H 0.01296 0.55781 0.13055 0.0
H291 H 0.99768 0.55795 0.09704 0.0
H292 H 1.00247 0.50999 0.94192 0.0
H293 H 0.9914 0.51446 0.90826 0.0
H294 H 0.98153 0.43175 0.89173 0.0
H295 H 0.99223 0.42737 0.92543 0.0
C296 C 0.49003 0.50964 0.94253 0.0
Eu297 Eu 0.50102 0.51785 0.97972 0.0
C298 C 0.50515 0.50995 0.92578 0.0
C299 C 0.50182 0.52264 0.90971 0.0
C300 C 0.51719 0.52499 0.89404 0.0
C301 C 0.53614 0.51458 0.89409 0.0
C302 C 0.53919 0.50145 0.91009 0.0
C303 C 0.52395 0.49934 0.92591 0.0
C304 C 0.51189 0.56473 0.00246 0.0
C305 C 0.56774 0.53649 0.99141 0.0
C306 C 0.54103 0.54168 0.06023 0.0
Eu307 Eu 0.52479 0.52288 0.02408 0.0
C308 C 0.52843 0.53615 0.07876 0.0
C309 C 0.53895 0.52593 0.0932 0.0
C310 C 0.52832 0.52202 0.11116 0.0
C311 C 0.50716 0.52857 0.11511 0.0
C312 C 0.49634 0.5384 0.10058 0.0
C313 C 0.50677 0.54206 0.08257 0.0
C314 C 0.50398 0.4692 0.006 0.0
C315 C 0.45676 0.49719 0.01132 0.0
O316 O 0.48322 0.48873 0.95344 0.0
O317 O 0.49964 0.53446 0.95241 0.0
O318 O 0.49139 0.55256 0.9887 0.0
O319 O 0.52656 0.55262 0.00301 0.0
O320 O 0.54603 0.52692 0.97799 0.0
O321 O 0.56539 0.53954 0.01004 0.0
O322 O 0.53211 0.55365 0.04806 0.0
O323 O 0.5448 0.52177 0.05179 0.0
O324 O 0.51534 0.4764 0.02374 0.0
O325 O 0.50488 0.49073 0.99969 0.0
O326 O 0.47837 0.50963 0.02503 0.0
O327 O 0.45998 0.49416 0.99285 0.0
H328 H 0.48751 0.53104 0.90938 0.0
H329 H 0.51407 0.5348 0.88177 0.0
H330 H 0.55372 0.49333 0.9105 0.0
H331 H 0.52709 0.48974 0.93829 0.0
H332 H 0.55573 0.52138 0.09069 0.0
H333 H 0.53725 0.51467 0.12215 0.0
H334 H 0.47982 0.54333 0.10316 0.0
H335 H 0.49806 0.54987 0.07176 0.0
C336 C 0.18194 0.3472 0.39879 0.0
Eu337 Eu 0.17171 0.34384 0.36156 0.0
C338 C 0.16827 0.33178 0.41529 0.0
C339 C 0.14028 0.3243 0.41819 0.0
C340 C 0.12897 0.31291 0.4351 0.0
C341 C 0.14528 0.30853 0.44936 0.0
C342 C 0.17266 0.31446 0.44591 0.0
C343 C 0.18408 0.3261 0.42906 0.0
C344 C 0.1626 0.38053 0.34178 0.0
C345 C 0.10574 0.29523 0.34758 0.0
C346 C 0.14261 0.32118 0.28165 0.0
Eu347 Eu 0.15268 0.32478 0.31884 0.0
C348 C 0.15565 0.33791 0.26551 0.0
C349 C 0.18448 0.34866 0.26319 0.0
C350 C 0.19558 0.36126 0.24654 0.0
C351 C 0.17814 0.36358 0.23203 0.0
C352 C 0.14973 0.35427 0.23489 0.0
C353 C 0.13857 0.34144 0.25145 0.0
C354 C 0.16128 0.28749 0.33808 0.0
C355 C 0.219 0.3723 0.33308 0.0
O356 O 0.19043 0.33452 0.38664 0.0
O357 O 0.17069 0.36061 0.39029 0.0
O358 O 0.18191 0.38873 0.35616 0.0
O359 O 0.14779 0.35365 0.33944 0.0
O360 O 0.12655 0.30747 0.36166 0.0
O361 O 0.10973 0.30079 0.32954 0.0
O362 O 0.13155 0.33133 0.29367 0.0
O363 O 0.15615 0.30999 0.29022 0.0
O364 O 0.14194 0.28031 0.32389 0.0
O365 O 0.17678 0.31441 0.34082 0.0
O366 O 0.19791 0.36143 0.31916 0.0
O367 O 0.21481 0.36575 0.35093 0.0
H368 H 0.12742 0.32804 0.40769 0.0
H369 H 0.10766 0.30815 0.43725 0.0
H370 H 0.18579 0.31145 0.45665 0.0
H371 H 0.20564 0.33157 0.42707 0.0
H372 H 0.19825 0.34653 0.27391 0.0
H373 H 0.21765 0.36862 0.24482 0.0
H374 H 0.13578 0.35567 0.2239 0.0
H375 H 0.11632 0.33336 0.25298 0.0
C376 C 0.66287 0.83539 0.40041 0.0
Eu377 Eu 0.66738 0.82567 0.36425 0.0
C378 C 0.6808 0.84034 0.41836 0.0
C379 C 0.67283 0.84586 0.43604 0.0
C380 C 0.69012 0.851 0.45309 0.0
C381 C 0.71578 0.8509 0.45267 0.0
C382 C 0.72352 0.84507 0.43489 0.0
C383 C 0.70611 0.83972 0.41791 0.0
C384 C 0.63218 0.77893 0.33951 0.0
C385 C 0.71001 0.80412 0.3535 0.0
C386 C 0.68774 0.81862 0.28688 0.0
Eu387 Eu 0.68291 0.82919 0.3228 0.0
C388 C 0.67437 0.81841 0.26791 0.0
C389 C 0.6664 0.8388 0.26433 0.0
C390 C 0.65482 0.83889 0.24598 0.0
C391 C 0.65068 0.81841 0.23096 0.0
C392 C 0.65797 0.79757 0.23477 0.0
C393 C 0.66979 0.79765 0.25306 0.0
C394 C 0.71727 0.87626 0.34744 0.0
C395 C 0.64271 0.85365 0.33379 0.0
O396 O 0.67335 0.85547 0.38877 0.0
O397 O 0.6513 0.80977 0.39135 0.0
O398 O 0.63847 0.77771 0.35746 0.0
O399 O 0.64308 0.80452 0.33594 0.0
O400 O 0.70256 0.81576 0.36737 0.0
O401 O 0.70199 0.80367 0.33519 0.0
O402 O 0.67181 0.79872 0.29752 0.0
O403 O 0.70353 0.84355 0.29677 0.0
O404 O 0.71109 0.87738 0.32942 0.0
O405 O 0.70689 0.85072 0.35101 0.0
O406 O 0.65046 0.84285 0.31956 0.0
O407 O 0.64891 0.85174 0.35207 0.0
H408 H 0.65333 0.84638 0.43665 0.0
H409 H 0.68373 0.85568 0.46655 0.0
H410 H 0.74296 0.8445 0.43411 0.0
H411 H 0.71247 0.83517 0.40443 0.0
H412 H 0.66937 0.8548 0.27565 0.0
H413 H 0.64906 0.85497 0.24352 0.0
H414 H 0.65522 0.78166 0.22345 0.0
H415 H 0.67569 0.78169 0.25557 0.0
C416 C 0.16449 0.83397 0.28473 0.0
Eu417 Eu 0.17919 0.84728 0.32169 0.0
C418 C 0.17498 0.83058 0.2664 0.0
C419 C 0.16735 0.83986 0.24999 0.0
C420 C 0.17514 0.83525 0.23206 0.0
C421 C 0.19071 0.82116 0.23016 0.0
C422 C 0.19898 0.81249 0.24675 0.0
C423 C 0.19123 0.81721 0.26474 0.0
C424 C 0.19169 0.8979 0.34056 0.0
C425 C 0.2459 0.86784 0.33334 0.0
C426 C 0.21354 0.87204 0.40057 0.0
Eu427 Eu 0.20159 0.85677 0.36369 0.0
C428 C 0.19971 0.87777 0.41624 0.0
C429 C 0.20541 0.8729 0.43499 0.0
C430 C 0.19234 0.87786 0.4501 0.0
C431 C 0.17327 0.88782 0.44676 0.0
C432 C 0.16745 0.89253 0.42787 0.0
C433 C 0.18049 0.88745 0.41272 0.0
C434 C 0.19122 0.80646 0.346 0.0
C435 C 0.13459 0.83373 0.35183 0.0
O436 O 0.16006 0.81519 0.29698 0.0
O437 O 0.17546 0.85991 0.29307 0.0
O438 O 0.16957 0.88306 0.32825 0.0
O439 O 0.20613 0.88579 0.34192 0.0
O440 O 0.22406 0.85577 0.31995 0.0
O441 O 0.24332 0.87353 0.35147 0.0
O442 O 0.22213 0.89019 0.38756 0.0
O443 O 0.20141 0.8455 0.39311 0.0
O444 O 0.21167 0.82175 0.3594 0.0
O445 O 0.17562 0.81736 0.34331 0.0
O446 O 0.15675 0.84862 0.3647 0.0
O447 O 0.13749 0.82678 0.3341 0.0
H448 H 0.15474 0.85014 0.25097 0.0
H449 H 0.16811 0.84188 0.21958 0.0
H450 H 0.21128 0.80189 0.24582 0.0
H451 H 0.19754 0.81002 0.27725 0.0
H452 H 0.22012 0.86535 0.43795 0.0
H453 H 0.19763 0.87444 0.4645 0.0
H454 H 0.15272 0.89999 0.42481 0.0
H455 H 0.1756 0.8911 0.39829 0.0
C456 C 0.85308 0.68521 0.72956 0.0
Eu457 Eu 0.84053 0.68366 0.69279 0.0
C458 C 0.83961 0.66833 0.74548 0.0
C459 C 0.84635 0.68195 0.76421 0.0
C460 C 0.83319 0.66665 0.77951 0.0
C461 C 0.81296 0.63737 0.77636 0.0
C462 C 0.80636 0.62372 0.75752 0.0
C463 C 0.81956 0.63907 0.7422 0.0
C464 C 0.82763 0.72042 0.67624 0.0
C465 C 0.7737 0.63583 0.68053 0.0
C466 C 0.80484 0.66693 0.61433 0.0
Eu467 Eu 0.81766 0.66732 0.65081 0.0
C468 C 0.81836 0.68469 0.59883 0.0
C469 C 0.81181 0.67199 0.57985 0.0
C470 C 0.82441 0.68837 0.56486 0.0
C471 C 0.84381 0.71781 0.56859 0.0
C472 C 0.85056 0.73044 0.58771 0.0
C473 C 0.838 0.71399 0.60273 0.0
C474 C 0.82781 0.62874 0.66692 0.0
C475 C 0.88479 0.7137 0.66291 0.0
O476 O 0.86069 0.67318 0.71625 0.0
O477 O 0.84131 0.69902 0.72244 0.0
O478 O 0.84971 0.7287 0.68846 0.0
O479 O 0.81322 0.69359 0.67388 0.0
O480 O 0.7961 0.6458 0.69336 0.0
O481 O 0.77592 0.64424 0.66307 0.0
O482 O 0.79708 0.6783 0.62798 0.0
O483 O 0.81673 0.65292 0.62092 0.0
O484 O 0.80709 0.62218 0.65387 0.0
O485 O 0.84362 0.65557 0.67 0.0
O486 O 0.86242 0.70443 0.65019 0.0
O487 O 0.88232 0.7056 0.68045 0.0
H488 H 0.86163 0.70455 0.76699 0.0
H489 H 0.83848 0.67792 0.79378 0.0
H490 H 0.79119 0.60114 0.75467 0.0
H491 H 0.81407 0.62813 0.72781 0.0
H492 H 0.79677 0.64939 0.5766 0.0
H493 H 0.81845 0.67809 0.55027 0.0
H494 H 0.86558 0.75301 0.59104 0.0
H495 H 0.84353 0.72414 0.61735 0.0
C496 C 0.33271 0.17204 0.73958 0.0
Eu497 Eu 0.3322 0.16259 0.70259 0.0
C498 C 0.34824 0.17223 0.75755 0.0
C499 C 0.35295 0.192 0.7731 0.0
C500 C 0.36695 0.19233 0.79053 0.0
C501 C 0.37638 0.1727 0.79285 0.0
C502 C 0.37216 0.15326 0.77704 0.0
C503 C 0.35827 0.15308 0.75951 0.0
C504 C 0.29721 0.11389 0.68003 0.0
C505 C 0.38112 0.14694 0.69253 0.0
C506 C 0.34569 0.15262 0.62439 0.0
Eu507 Eu 0.34677 0.16159 0.66146 0.0
C508 C 0.32576 0.14685 0.60745 0.0
C509 C 0.33583 0.1522 0.58935 0.0
C510 C 0.3171 0.14601 0.57296 0.0
C511 C 0.28791 0.13436 0.57442 0.0
C512 C 0.27796 0.12952 0.59269 0.0
C513 C 0.29674 0.13572 0.60909 0.0
C514 C 0.38063 0.21118 0.68385 0.0
C515 C 0.29706 0.17566 0.67129 0.0
O516 O 0.34701 0.1922 0.72865 0.0
O517 O 0.31609 0.14723 0.72977 0.0
O518 O 0.28852 0.12508 0.69292 0.0
O519 O 0.32379 0.12778 0.68033 0.0
O520 O 0.37051 0.15628 0.70578 0.0
O521 O 0.37306 0.14434 0.67403 0.0
O522 O 0.33779 0.13246 0.63595 0.0
O523 O 0.35727 0.17813 0.63359 0.0
O524 O 0.39002 0.20055 0.67105 0.0
O525 O 0.35416 0.19601 0.68347 0.0
O526 O 0.30662 0.16459 0.65842 0.0
O527 O 0.30687 0.18084 0.68966 0.0
H528 H 0.34566 0.20716 0.77178 0.0
H529 H 0.37045 0.20809 0.8022 0.0
H530 H 0.37901 0.13777 0.77832 0.0
H531 H 0.35509 0.1378 0.74758 0.0
H532 H 0.35816 0.16078 0.58784 0.0
H533 H 0.3254 0.14959 0.55908 0.0
H534 H 0.25566 0.12085 0.59429 0.0
H535 H 0.28856 0.13152 0.62299 0.0
C536 C 0.82662 0.16719 0.61534 0.0
Eu537 Eu 0.83768 0.18159 0.65225 0.0
C538 C 0.84222 0.16761 0.59875 0.0
C539 C 0.83902 0.18029 0.58261 0.0
C540 C 0.85467 0.18291 0.56706 0.0
C541 C 0.87373 0.17265 0.56722 0.0
C542 C 0.87664 0.15944 0.58322 0.0
C543 C 0.86117 0.15715 0.59898 0.0
C544 C 0.84253 0.22925 0.67053 0.0
C545 C 0.90619 0.20993 0.66445 0.0
C546 C 0.87836 0.22442 0.7313 0.0
Eu547 Eu 0.86333 0.19756 0.69692 0.0
C548 C 0.86791 0.22071 0.75054 0.0
C549 C 0.86914 0.20104 0.7622 0.0
C550 C 0.85925 0.19815 0.78039 0.0
C551 C 0.84792 0.21484 0.78731 0.0
C552 C 0.84679 0.23453 0.77561 0.0
C553 C 0.8568 0.23752 0.7575 0.0
C554 C 0.85037 0.14362 0.68331 0.0
C555 C 0.79436 0.16196 0.6847 0.0
O556 O 0.82275 0.14879 0.62789 0.0
O557 O 0.83308 0.19236 0.62338 0.0
O558 O 0.82205 0.21243 0.6575 0.0
O559 O 0.86037 0.22099 0.67271 0.0
O560 O 0.88414 0.1956 0.6513 0.0
O561 O 0.90371 0.21629 0.68255 0.0
O562 O 0.86321 0.22844 0.71795 0.0
O563 O 0.888 0.20797 0.72487 0.0
O564 O 0.86093 0.15429 0.70097 0.0
O565 O 0.84683 0.16174 0.67525 0.0
O566 O 0.81599 0.17852 0.69778 0.0
O567 O 0.79757 0.15665 0.66651 0.0
H568 H 0.82459 0.18855 0.58214 0.0
H569 H 0.8517 0.19281 0.5548 0.0
H570 H 0.89124 0.15141 0.58368 0.0
H571 H 0.86427 0.14754 0.61135 0.0
H572 H 0.87779 0.18792 0.75734 0.0
H573 H 0.86087 0.1831 0.78914 0.0
H574 H 0.83786 0.24746 0.78033 0.0
H575 H 0.85573 0.25298 0.74886 0.0
H576 H 0.28407 0.85565 0.03886 0.0
H577 H 0.31121 0.86703 0.10007 0.0
H578 H 0.35612 0.90896 0.09509 0.0
H579 H 0.35175 0.87146 0.02434 0.0
H580 H 0.34959 0.88917 0.00383 0.0
H581 H 0.31769 0.86173 0.01221 0.0
H582 H 0.29884 0.89697 0.01545 0.0
H583 H 0.33085 0.92462 0.00725 0.0
H584 H 0.31983 0.93063 0.02998 0.0
H585 H 0.39842 0.94833 0.08422 0.0
H586 H 0.43874 0.98021 0.06737 0.0
H587 H 0.38807 0.94241 0.01239 0.0
C588 C 0.29937 0.86687 0.05127 0.0
C589 C 0.29326 0.85814 0.07002 0.0
C590 C 0.31432 0.87364 0.0857 0.0
C591 C 0.34022 0.89751 0.08302 0.0
C592 C 0.3453 0.90557 0.06451 0.0
C593 C 0.32579 0.89056 0.04881 0.0
C594 C 0.33796 0.90256 0.03027 0.0
C595 C 0.33933 0.87988 0.01687 0.0
C596 C 0.32084 0.9144 0.02014 0.0
C597 C 0.36745 0.92645 0.03808 0.0
C598 C 0.3708 0.9279 0.05794 0.0
C599 C 0.39609 0.94742 0.06868 0.0
C600 C 0.41893 0.96543 0.05892 0.0
C601 C 0.41668 0.96377 0.03854 0.0
C602 C 0.39032 0.94443 0.02796 0.0
H603 H 0.16265 0.44306 0.04464 0.0
H604 H 0.17407 0.47809 0.10401 0.0
H605 H 0.13782 0.49129 0.09662 0.0
H606 H 0.15145 0.49699 0.02319 0.0
H607 H 0.12482 0.47202 0.00465 0.0
H608 H 0.15221 0.46556 0.01427 0.0
H609 H 0.11401 0.41598 0.02284 0.0
H610 H 0.08651 0.42232 0.01331 0.0
H611 H 0.0872 0.4135 0.03771 0.0
H612 H 0.10051 0.49988 0.0837 0.0
H613 H 0.06361 0.50452 0.06569 0.0
H614 H 0.0748 0.46446 0.01386 0.0
C615 C 0.15762 0.45372 0.056 0.0
C616 C 0.17099 0.45928 0.07498 0.0
C617 C 0.16377 0.47314 0.08948 0.0
C618 C 0.14332 0.48088 0.0854 0.0
C619 C 0.13026 0.47475 0.06671 0.0
C620 C 0.13704 0.4616 0.05217 0.0
C621 C 0.11922 0.45729 0.0334 0.0
C622 C 0.13805 0.47396 0.01797 0.0
C623 C 0.10063 0.42537 0.02641 0.0
C624 C 0.10136 0.46997 0.03979 0.0
C625 C 0.10829 0.47989 0.05908 0.0
C626 C 0.09487 0.49225 0.06857 0.0
C627 C 0.07376 0.49467 0.05812 0.0
C628 C 0.06601 0.48474 0.03826 0.0
C629 C 0.08015 0.47225 0.02898 0.0
H630 H 0.55949 0.72661 0.0369 0.0
H631 H 0.51596 0.6959 0.08765 0.0
H632 H 0.50307 0.64658 0.07609 0.0
H633 H 0.51126 0.66638 0.00323 0.0
H634 H 0.53876 0.66659 0.99013 0.0
H635 H 0.54399 0.69931 0.00221 0.0
H636 H 0.59001 0.70716 0.02098 0.0
H637 H 0.58483 0.67438 0.00903 0.0
H638 H 0.5887 0.67969 0.03494 0.0
H639 H 0.49282 0.60041 0.05821 0.0
H640 H 0.48852 0.5609 0.03617 0.0
H641 H 0.54199 0.62158 0.99832 0.0
C642 C 0.54711 0.70941 0.04546 0.0
C643 C 0.53854 0.7149 0.06309 0.0
C644 C 0.52271 0.69203 0.07411 0.0
C645 C 0.51528 0.664 0.06765 0.0
C646 C 0.52418 0.65926 0.05026 0.0
C647 C 0.53994 0.68132 0.03938 0.0
C648 C 0.54739 0.67045 0.02146 0.0
C649 C 0.53458 0.67601 0.00318 0.0
C650 C 0.57965 0.68371 0.02162 0.0
C651 C 0.53313 0.63883 0.02388 0.0
C652 C 0.51968 0.63282 0.04053 0.0
C653 C 0.50379 0.60494 0.04537 0.0
C654 C 0.50165 0.58265 0.03287 0.0
C655 C 0.51597 0.58843 0.01609 0.0
C656 C 0.53169 0.61682 0.01146 0.0
H657 H 0.84457 0.32183 0.93949 0.0
H658 H 0.84256 0.2671 0.98289 0.0
H659 H 0.88089 0.30903 0.00314 0.0
H660 H 0.92128 0.37217 0.94599 0.0
H661 H 0.91747 0.40284 0.94273 0.0
H662 H 0.89149 0.36834 0.93086 0.0
H663 H 0.85167 0.37247 0.94642 0.0
H664 H 0.8775 0.40697 0.95828 0.0
H665 H 0.85427 0.37916 0.97221 0.0
H666 H 0.91838 0.35669 0.01904 0.0
H667 H 0.95089 0.40774 0.03038 0.0
H668 H 0.92708 0.43207 0.97762 0.0
C669 C 0.85254 0.31874 0.95315 0.0
C670 C 0.84078 0.2913 0.95966 0.0
C671 C 0.85129 0.288 0.97773 0.0
C672 C 0.87312 0.31163 0.98926 0.0
C673 C 0.8841 0.33845 0.98256 0.0
C674 C 0.87411 0.34221 0.96498 0.0
C675 C 0.88842 0.3736 0.96174 0.0
C676 C 0.90569 0.37958 0.94429 0.0
C677 C 0.86667 0.38363 0.95954 0.0
C678 C 0.90766 0.38685 0.98036 0.0
C679 C 0.90514 0.36614 0.99202 0.0
C680 C 0.92061 0.37309 0.01002 0.0
C681 C 0.93896 0.40201 0.01634 0.0
C682 C 0.9414 0.42344 0.00476 0.0
C683 C 0.92564 0.41585 0.98658 0.0
H684 H 0.67556 0.5343 0.91961 0.0
H685 H 0.74205 0.57878 0.96675 0.0
H686 H 0.70754 0.58031 0.98713 0.0
H687 H 0.63803 0.57321 0.92941 0.0
H688 H 0.60344 0.54229 0.92311 0.0
H689 H 0.6334 0.5453 0.91175 0.0
H690 H 0.62319 0.49663 0.92261 0.0
H691 H 0.59322 0.49331 0.93407 0.0
H692 H 0.62093 0.4911 0.94776 0.0
H693 H 0.66572 0.575 0.00305 0.0
H694 H 0.61926 0.56433 0.01315 0.0
H695 H 0.57984 0.52458 0.95556 0.0
C696 C 0.68293 0.54471 0.93412 0.0
C697 C 0.71153 0.55616 0.94161 0.0
C698 C 0.7202 0.56935 0.96077 0.0
C699 C 0.70079 0.57053 0.97245 0.0
C700 C 0.67273 0.55866 0.96475 0.0
C701 C 0.66378 0.54617 0.946 0.0
C702 C 0.63221 0.53445 0.94149 0.0
C703 C 0.62644 0.54973 0.92549 0.0
C704 C 0.61647 0.50195 0.93617 0.0
C705 C 0.62487 0.54201 0.96072 0.0
C706 C 0.64858 0.556 0.9739 0.0
C707 C 0.64701 0.56427 0.99281 0.0
C708 C 0.62048 0.55803 0.99843 0.0
C709 C 0.59583 0.54371 0.98518 0.0
C710 C 0.59825 0.53579 0.96604 0.0
H711 H 0.44243 0.13855 0.96231 0.0
H712 H 0.51687 0.21873 0.98489 0.0
H713 H 0.53357 0.19261 0.0046 0.0
H714 H 0.43205 0.10459 0.00664 0.0
H715 H 0.42085 0.06976 0.99472 0.0
H716 H 0.41452 0.09471 0.9825 0.0
H717 H 0.44125 0.09036 0.95421 0.0
H718 H 0.44722 0.06517 0.96635 0.0
H719 H 0.47678 0.09677 0.95915 0.0
H720 H 0.54359 0.15782 0.0203 0.0
H721 H 0.54512 0.11683 0.0325 0.0
H722 H 0.46262 0.05909 1.0017 0.0
C723 C 0.46224 0.15058 0.97142 0.0
C724 C 0.47839 0.18071 0.97208 0.0
C725 C 0.50404 0.19571 0.98431 0.0
C726 C 0.51376 0.18104 0.99547 0.0
C727 C 0.49745 0.15137 0.9944 0.0
C728 C 0.47211 0.13628 0.98282 0.0
C729 C 0.45862 0.10443 0.98441 0.0
C730 C 0.4298 0.09269 0.99256 0.0
C731 C 0.45582 0.08824 0.96487 0.0
C732 C 0.48044 0.104 0.99861 0.0
C733 C 0.50277 0.13131 0.00402 0.0
C734 C 0.52611 0.13637 0.01631 0.0
C735 C 0.52676 0.11292 0.02317 0.0
C736 C 0.5041 0.08473 0.01792 0.0
C737 C 0.48043 0.08032 0.00573 0.0
H738 H 0.66247 0.15001 0.93518 0.0
H739 H 0.728 0.17 0.98142 0.0
H740 H 0.69252 0.1337 0.99977 0.0
H741 H 0.60851 0.14049 0.96546 0.0
H742 H 0.58004 0.11145 0.94992 0.0
H743 H 0.61083 0.13793 0.9399 0.0
H744 H 0.61822 0.098 0.92427 0.0
H745 H 0.58765 0.07143 0.93447 0.0
H746 H 0.62141 0.07351 0.93916 0.0
H747 H 0.65038 0.09612 0.01333 0.0
H748 H 0.60351 0.06159 0.02244 0.0
H749 H 0.56423 0.06649 0.96802 0.0
C750 C 0.66928 0.14657 0.94914 0.0
C751 C 0.69794 0.16278 0.9569 0.0
C752 C 0.70614 0.15792 0.97523 0.0
C753 C 0.68616 0.13725 0.98573 0.0
C754 C 0.65806 0.12169 0.97773 0.0
C755 C 0.6495 0.12618 0.95992 0.0
C756 C 0.61771 0.10733 0.95508 0.0
C757 C 0.60344 0.12539 0.95244 0.0
C758 C 0.61086 0.08632 0.93718 0.0
C759 C 0.60975 0.09189 0.97308 0.0
C760 C 0.63345 0.10027 0.9858 0.0
C761 C 0.63164 0.08935 0.00349 0.0
C762 C 0.60484 0.06967 0.00851 0.0
C763 C 0.58005 0.06123 0.99597 0.0
C764 C 0.58269 0.07234 0.97791 0.0
H765 H 0.84348 0.50952 0.92102 0.0
H766 H 0.83689 0.56626 0.96405 0.0
H767 H 0.87768 0.57026 0.98388 0.0
H768 H 0.86018 0.47137 0.95444 0.0
H769 H 0.88469 0.46742 0.94025 0.0
H770 H 0.85613 0.47039 0.9286 0.0
H771 H 0.89226 0.51342 0.91193 0.0
H772 H 0.92094 0.51061 0.9236 0.0
H773 H 0.92094 0.54384 0.92637 0.0
H774 H 0.91771 0.56733 0.99948 0.0
H775 H 0.95357 0.55566 0.01117 0.0
H776 H 0.9345 0.49954 0.95879 0.0
C777 C 0.85086 0.52294 0.93456 0.0
C778 C 0.83706 0.53758 0.94102 0.0
C779 C 0.84703 0.55474 0.95886 0.0
C780 C 0.87029 0.55728 0.97019 0.0
C781 C 0.88332 0.54246 0.96351 0.0
C782 C 0.87397 0.52548 0.94619 0.0
C783 C 0.891 0.51068 0.943 0.0
C784 C 0.87185 0.47803 0.94149 0.0
C785 C 0.90725 0.52022 0.92516 0.0
C786 C 0.91111 0.52179 0.96135 0.0
C787 C 0.9064 0.54032 0.97281 0.0
C788 C 0.92167 0.55291 0.99064 0.0
C789 C 0.94201 0.54605 0.99715 0.0
C790 C 0.9469 0.52659 0.98595 0.0
C791 C 0.93145 0.51463 0.96765 0.0
H792 H 0.48267 0.31278 0.98469 0.0
H793 H 0.42179 0.29931 0.9368 0.0
H794 H 0.43072 0.34832 0.94414 0.0
H795 H 0.46381 0.35377 0.01669 0.0
H796 H 0.49962 0.37754 0.02723 0.0
H797 H 0.4891 0.34165 0.01793 0.0
H798 H 0.52988 0.36133 0.99591 0.0
H799 H 0.54049 0.39729 0.00514 0.0
H800 H 0.53244 0.38687 0.9796 0.0
H801 H 0.44624 0.39873 0.95645 0.0
H802 H 0.46594 0.44663 0.97402 0.0
H803 H 0.51588 0.42745 0.01441 0.0
C804 C 0.47131 0.32021 0.97575 0.0
C805 C 0.4516 0.30234 0.9601 0.0
C806 C 0.43698 0.31273 0.94883 0.0
C807 C 0.44195 0.34053 0.95286 0.0
C808 C 0.46149 0.35768 0.96833 0.0
C809 C 0.47583 0.34793 0.9797 0.0
C810 C 0.49517 0.37059 0.99577 0.0
C811 C 0.48639 0.36027 0.01558 0.0
C812 C 0.52634 0.37955 0.99399 0.0
C813 C 0.48943 0.3945 0.99164 0.0
C814 C 0.47009 0.38666 0.97565 0.0
C815 C 0.46151 0.40517 0.96894 0.0
C816 C 0.47296 0.4324 0.97887 0.0
C817 C 0.49265 0.44081 0.99533 0.0
C818 C 0.50087 0.42154 1.00181 0.0
H819 H 0.14536 0.71726 0.01104 0.0
H820 H 0.17802 0.71037 0.0672 0.0
H821 H 0.14317 0.65851 0.06399 0.0
H822 H 0.07218 0.66549 0.01257 0.0
H823 H 0.06672 0.65085 0.98788 0.0
H824 H 0.09323 0.68758 0.99494 0.0
H825 H 0.13159 0.67883 0.98128 0.0
H826 H 0.10514 0.64217 0.97399 0.0
H827 H 0.13646 0.65045 0.98935 0.0
H828 H 0.10241 0.60807 0.05541 0.0
H829 H 0.06482 0.56099 0.03976 0.0
H830 H 0.063 0.59956 0.98756 0.0
C831 C 0.14513 0.70469 0.02258 0.0
C832 C 0.1641 0.71755 0.0394 0.0
C833 C 0.16363 0.70067 0.05418 0.0
C834 C 0.14381 0.67133 0.05254 0.0
C835 C 0.12517 0.6592 0.0358 0.0
C836 C 0.12617 0.6752 0.02087 0.0
C837 C 0.10516 0.65662 0.00388 0.0
C838 C 0.08301 0.66568 0.99957 0.0
C839 C 0.12051 0.65704 0.98607 0.0
C840 C 0.09196 0.62772 0.01166 0.0
C841 C 0.10333 0.62979 0.03027 0.0
C842 C 0.0936 0.60614 0.04077 0.0
C843 C 0.07214 0.57959 0.03186 0.0
C844 C 0.06124 0.57688 0.01254 0.0
C845 C 0.07121 0.60121 0.00235 0.0
H846 H 0.3425 0.48436 0.08208 0.0
H847 H 0.27984 0.45097 0.03233 0.0
H848 H 0.31613 0.4536 0.01173 0.0
H849 H 0.40059 0.53444 0.05793 0.0
H850 H 0.4266 0.52919 0.07125 0.0
H851 H 0.3955 0.52401 0.08204 0.0
H852 H 0.38345 0.47274 0.08838 0.0
H853 H 0.41448 0.47784 0.07752 0.0
H854 H 0.38013 0.44811 0.06861 0.0
H855 H 0.35945 0.46019 0.99657 0.0
H856 H 0.40684 0.47215 0.98769 0.0
H857 H 0.44127 0.50183 0.04743 0.0
C858 C 0.33646 0.47759 0.06684 0.0
C859 C 0.30843 0.46747 0.05877 0.0
C860 C 0.30123 0.45885 0.03879 0.0
C861 C 0.32167 0.46019 0.027 0.0
C862 C 0.34915 0.47024 0.03542 0.0
C863 C 0.35661 0.47893 0.05487 0.0
C864 C 0.38774 0.48953 0.06027 0.0
C865 C 0.40353 0.52117 0.06834 0.0
C866 C 0.39167 0.47094 0.07454 0.0
C867 C 0.39667 0.48553 0.0408 0.0
C868 C 0.37409 0.47424 0.02668 0.0
C869 C 0.37727 0.469 0.00752 0.0
C870 C 0.40431 0.47584 0.00263 0.0
C871 C 0.42788 0.48791 0.01683 0.0
C872 C 0.42377 0.4925 0.03619 0.0
H873 H 0.56997 0.8914 0.05682 0.0
H874 H 0.49632 0.80905 0.03712 0.0
H875 H 0.47326 0.83321 0.02176 0.0
H876 H 0.53237 0.92853 0.06735 0.0
H877 H 0.55841 0.96144 0.05897 0.0
H878 H 0.56898 0.93763 0.06849 0.0
H879 H 0.59091 0.93606 0.03689 0.0
H880 H 0.58028 0.95982 0.02735 0.0
H881 H 0.56924 0.92579 0.01422 0.0
H882 H 0.45775 0.86638 0.00923 0.0
H883 H 0.45157 0.9061 0.99938 0.0
H884 H 0.53606 0.96698 0.02601 0.0
C885 C 0.54901 0.8785 0.04922 0.0
C886 C 0.53494 0.84838 0.04813 0.0
C887 C 0.50755 0.83215 0.03808 0.0
C888 C 0.49426 0.84569 0.02934 0.0
C889 C 0.50869 0.87545 0.03071 0.0
C890 C 0.53553 0.89167 0.0403 0.0
C891 C 0.54652 0.92332 0.03949 0.0
C892 C 0.55188 0.93862 0.05979 0.0
C893 C 0.57332 0.93705 0.02885 0.0
C894 C 0.52165 0.92237 0.02798 0.0
C895 C 0.49998 0.89454 0.02316 0.0
C896 C 0.47462 0.88824 0.01285 0.0
C897 C 0.47132 0.91094 0.00732 0.0
C898 C 0.49329 0.9396 0.01199 0.0
C899 C 0.51882 0.9453 0.02238 0.0
H900 H 0.98243 0.21042 0.41371 0.0
H901 H 0.95813 0.13441 0.37484 0.0
H902 H 0.99266 0.1641 0.35352 0.0
H903 H 0.99991 0.26154 0.37955 0.0
H904 H 0.03108 0.28901 0.39404 0.0
H905 H 1.00186 0.26258 0.40542 0.0
H906 H 0.03546 0.24887 0.4235 0.0
H907 H 0.06477 0.2755 0.41235 0.0
H908 H 0.05686 0.23896 0.41 0.0
H909 H 0.02988 0.20224 0.33587 0.0
H910 H 0.0723 0.24426 0.32633 0.0
H911 H 0.07776 0.29331 0.37918 0.0
C912 C 0.98426 0.1995 0.40095 0.0
C913 C 0.96643 0.16959 0.39612 0.0
C914 C 0.97013 0.15716 0.37886 0.0
C915 C 0.99009 0.1739 0.36658 0.0
C916 C 0.00702 0.20307 0.37187 0.0
C917 C 1.00486 0.21564 0.3889 0.0
C918 C 0.02756 0.24694 0.39221 0.0
C919 C 0.0143 0.26614 0.39284 0.0
C920 C 0.04733 0.2529 0.4106 0.0
C921 C 0.0428 0.24995 0.37434 0.0
C922 C 0.03014 0.22456 0.36255 0.0
C923 C 0.04006 0.22219 0.34503 0.0
C924 C 0.064 0.24618 0.33966 0.0
C925 C 0.07813 0.27192 0.35199 0.0
C926 C 0.06724 0.27385 0.36948 0.0
H927 H 0.8343 0.80702 0.42007 0.0
H928 H 0.84232 0.7549 0.37416 0.0
H929 H 0.80258 0.75373 0.3546 0.0
H930 H 0.7575 0.7703 0.41451 0.0
H931 H 0.75637 0.80255 0.42006 0.0
H932 H 0.78553 0.79931 0.43032 0.0
H933 H 0.82093 0.84573 0.41625 0.0
H934 H 0.79185 0.84905 0.406 0.0
H935 H 0.81707 0.84843 0.39081 0.0
H936 H 0.76266 0.75984 0.33957 0.0
H937 H 0.72548 0.77188 0.33091 0.0
H938 H 0.74249 0.81718 0.38767 0.0
C939 C 0.82752 0.79496 0.40604 0.0
C940 C 0.84161 0.78112 0.39869 0.0
C941 C 0.83226 0.76611 0.38003 0.0
C942 C 0.80953 0.7651 0.36886 0.0
C943 C 0.79616 0.77897 0.37659 0.0
C944 C 0.80473 0.79346 0.39481 0.0
C945 C 0.78698 0.80669 0.39984 0.0
C946 C 0.77062 0.79394 0.41721 0.0
C947 C 0.80531 0.83941 0.40342 0.0
C948 C 0.76722 0.7976 0.38153 0.0
C949 C 0.77281 0.7817 0.36823 0.0
C950 C 0.75792 0.77204 0.34995 0.0
C951 C 0.73687 0.77897 0.34515 0.0
C952 C 0.73087 0.7952 0.35866 0.0
C953 C 0.74618 0.80434 0.37709 0.0
H954 H 0.16826 0.02403 0.38353 0.0
H955 H 0.2492 0.05761 0.41754 0.0
H956 H 0.25493 0.01872 0.40248 0.0
H957 H 0.14608 0.95 0.38702 0.0
H958 H 0.12853 0.93812 0.36292 0.0
H959 H 0.13125 0.96932 0.37567 0.0
H960 H 0.15545 0.9991 0.34776 0.0
H961 H 0.15277 0.96796 0.33493 0.0
H962 H 0.18677 1.00009 0.34002 0.0
H963 H 0.25199 0.97656 0.38408 0.0
H964 H 0.23994 0.9324 0.36402 0.0
H965 H 0.15985 0.92426 0.34265 0.0
C966 C 0.18727 0.02325 0.38759 0.0
C967 C 0.2084 0.04379 0.4016 0.0
C968 C 0.23281 0.04198 0.40685 0.0
C969 C 0.23626 0.02004 0.39836 0.0
C970 C 0.21497 0.99994 0.38474 0.0
C971 C 0.19087 1.00117 0.37942 0.0
C972 C 0.17078 0.97612 0.36495 0.0
C973 C 0.14249 0.95728 0.37314 0.0
C974 C 0.16618 0.98644 0.34578 0.0
C975 C 0.18748 0.9608 0.3629 0.0
C976 C 0.21293 0.97502 0.37442 0.0
C977 C 0.23208 0.96515 0.37506 0.0
C978 C 0.22499 0.94 0.36367 0.0
C979 C 0.19888 0.92481 0.35195 0.0
C980 C 0.17996 0.93546 0.3515 0.0
H981 H 0.5114 0.61682 0.30767 0.0
H982 H 0.50058 0.6443 0.25234 0.0
H983 H 0.53792 0.69362 0.26367 0.0
H984 H 0.52459 0.6808 0.33683 0.0
H985 H 0.5508 0.68055 0.35358 0.0
H986 H 0.52263 0.6475 0.3413 0.0
H987 H 0.55969 0.63596 0.3285 0.0
H988 H 0.58797 0.66906 0.34063 0.0
H989 H 0.58681 0.66124 0.31509 0.0
H990 H 0.57678 0.73975 0.28066 0.0
H991 H 0.61422 0.77996 0.30254 0.0
H992 H 0.60063 0.72291 0.34684 0.0
C993 C 0.51667 0.63332 0.29805 0.0
C994 C 0.50312 0.62671 0.2791 0.0
C995 C 0.51088 0.64882 0.26684 0.0
C996 C 0.53199 0.67691 0.27316 0.0
C997 C 0.54524 0.68264 0.29179 0.0
C998 C 0.53788 0.66153 0.3041 0.0
C999 C 0.55587 0.67342 0.32331 0.0
C1000 C 0.53737 0.67039 0.33973 0.0
C1001 C 0.57364 0.65907 0.3271 0.0
C1002 C 0.57445 0.70445 0.31985 0.0
C1003 C 0.56791 0.70928 0.30157 0.0
C1004 C 0.58209 0.73624 0.29501 0.0
C1005 C 0.60337 0.75892 0.30752 0.0
C1006 C 0.61037 0.75451 0.32634 0.0
C1007 C 0.59577 0.72687 0.33251 0.0
H1008 H 0.37173 0.90855 0.2667 0.0
H1009 H 0.40684 0.8755 0.30886 0.0
H1010 H 0.36878 0.86698 0.32888 0.0
H1011 H 0.34494 0.9408 0.29855 0.0
H1012 H 0.31231 0.92897 0.28362 0.0
H1013 H 0.34359 0.93474 0.2728 0.0
H1014 H 0.31642 0.88295 0.25626 0.0
H1015 H 0.28498 0.8771 0.26689 0.0
H1016 H 0.29887 0.85362 0.27067 0.0
H1017 H 0.32841 0.86399 0.34536 0.0
H1018 H 0.28359 0.85944 0.35476 0.0
H1019 H 0.27027 0.88716 0.30014 0.0
C1020 C 0.37146 0.89924 0.28 0.0
C1021 C 0.3933 0.89377 0.28629 0.0
C1022 C 0.39154 0.88144 0.30392 0.0
C1023 C 0.36968 0.87611 0.31541 0.0
C1024 C 0.34901 0.88227 0.30892 0.0
C1025 C 0.3492 0.89283 0.29141 0.0
C1026 C 0.32317 0.89563 0.28728 0.0
C1027 C 0.33152 0.9269 0.28546 0.0
C1028 C 0.30477 0.87616 0.2692 0.0
C1029 C 0.30859 0.88526 0.30532 0.0
C1030 C 0.3242 0.87817 0.31775 0.0
C1031 C 0.3158 0.86915 0.33568 0.0
C1032 C 0.29047 0.86682 0.34094 0.0
C1033 C 0.2736 0.87287 0.32814 0.0
C1034 C 0.28278 0.88223 0.31011 0.0
H1035 H 0.13579 0.50686 0.31442 0.0
H1036 H 0.14715 0.48826 0.2555 0.0
H1037 H 0.15669 0.45081 0.26567 0.0
H1038 H 0.19136 0.49598 0.33714 0.0
H1039 H 0.17157 0.48002 0.35706 0.0
H1040 H 0.16661 0.5061 0.34526 0.0
H1041 H 0.11274 0.4701 0.339 0.0
H1042 H 0.11754 0.44385 0.35065 0.0
H1043 H 0.10063 0.43547 0.32639 0.0
H1044 H 0.16343 0.41426 0.2819 0.0
H1045 H 0.16813 0.38207 0.30343 0.0
H1046 H 0.15288 0.42412 0.35188 0.0
C1047 C 0.14076 0.49525 0.3037 0.0
C1048 C 0.14057 0.50048 0.28411 0.0
C1049 C 0.14675 0.48443 0.27053 0.0
C1050 C 0.15235 0.4632 0.27618 0.0
C1051 C 0.1519 0.45829 0.29551 0.0
C1052 C 0.14646 0.47396 0.30911 0.0
C1053 C 0.14671 0.46396 0.3289 0.0
C1054 C 0.17048 0.48794 0.34292 0.0
C1055 C 0.11768 0.45267 0.33669 0.0
C1056 C 0.15284 0.44003 0.32426 0.0
C1057 C 0.15575 0.43715 0.30489 0.0
C1058 C 0.16101 0.41623 0.29706 0.0
C1059 C 0.1632 0.39771 0.30932 0.0
C1060 C 0.15998 0.40007 0.32911 0.0
C1061 C 0.15517 0.42178 0.33672 0.0
H1062 H 0.33503 0.4713 0.26577 0.0
H1063 H 0.39495 0.50959 0.31685 0.0
H1064 H 0.35816 0.47725 0.33656 0.0
H1065 H 0.27396 0.46264 0.28809 0.0
H1066 H 0.24988 0.42904 0.27427 0.0
H1067 H 0.28109 0.45496 0.26432 0.0
H1068 H 0.29622 0.41705 0.25866 0.0
H1069 H 0.2652 0.39114 0.2688 0.0
H1070 H 0.29988 0.39911 0.2786 0.0
H1071 H 0.31449 0.44038 0.35065 0.0
H1072 H 0.26725 0.40332 0.35815 0.0
H1073 H 0.23593 0.38985 0.29775 0.0
C1074 C 0.34037 0.47283 0.28111 0.0
C1075 C 0.36779 0.4929 0.2898 0.0
C1076 C 0.37405 0.4944 0.3099 0.0
C1077 C 0.35331 0.47607 0.3212 0.0
C1078 C 0.32644 0.45647 0.31217 0.0
C1079 C 0.3199 0.45484 0.29258 0.0
C1080 C 0.28935 0.43223 0.28641 0.0
C1081 C 0.27259 0.44552 0.27777 0.0
C1082 C 0.28758 0.40848 0.27228 0.0
C1083 C 0.27967 0.42143 0.3056 0.0
C1084 C 0.30136 0.43554 0.32027 0.0
C1085 C 0.29736 0.4292 0.33926 0.0
C1086 C 0.27044 0.40805 0.34337 0.0
C1087 C 0.24779 0.39356 0.32857 0.0
C1088 C 0.2527 0.40039 0.30944 0.0
H1089 H 0.54712 0.89023 0.26413 0.0
H1090 H 0.52375 0.91994 0.31497 0.0
H1091 H 0.55687 0.91163 0.33542 0.0
H1092 H 0.55085 0.83397 0.28422 0.0
H1093 H 0.58066 0.83824 0.27205 0.0
H1094 H 0.55688 0.8487 0.26137 0.0
H1095 H 0.59914 0.89964 0.25949 0.0
H1096 H 0.62303 0.88922 0.27012 0.0
H1097 H 0.62208 0.91962 0.281 0.0
H1098 H 0.59047 0.89725 0.35042 0.0
H1099 H 0.62195 0.8781 0.35873 0.0
H1100 H 0.62299 0.85779 0.29792 0.0
C1101 C 0.54933 0.89538 0.27955 0.0
C1102 C 0.53299 0.90577 0.28798 0.0
C1103 C 0.53611 0.91198 0.30821 0.0
C1104 C 0.5549 0.90737 0.31994 0.0
C1105 C 0.5704 0.89666 0.31119 0.0
C1106 C 0.56788 0.89084 0.29144 0.0
C1107 C 0.58589 0.8782 0.28567 0.0
C1108 C 0.56746 0.84799 0.27522 0.0
C1109 C 0.60891 0.89785 0.27334 0.0
C1110 C 0.59863 0.87744 0.30526 0.0
C1111 C 0.5896 0.88831 0.31981 0.0
C1112 C 0.59786 0.88889 0.33914 0.0
C1113 C 0.61571 0.87793 0.34372 0.0
C1114 C 0.625 0.86646 0.329 0.0
C1115 C 0.61644 0.86652 0.30955 0.0
H1116 H 0.14485 0.66571 0.27569 0.0
H1117 H 0.16277 0.63018 0.32502 0.0
H1118 H 0.17367 0.67352 0.34578 0.0
H1119 H 0.19959 0.73813 0.28863 0.0
H1120 H 0.17869 0.75332 0.28016 0.0
H1121 H 0.1717 0.71928 0.26927 0.0
H1122 H 0.11933 0.69661 0.2766 0.0
H1123 H 0.12631 0.73063 0.28761 0.0
H1124 H 0.11144 0.6998 0.30096 0.0
H1125 H 0.18521 0.72138 0.36071 0.0
H1126 H 0.19566 0.7706 0.36929 0.0
H1127 H 0.16827 0.77486 0.31075 0.0
C1128 C 0.15099 0.66708 0.29089 0.0
C1129 C 0.15303 0.64467 0.29878 0.0
C1130 C 0.16107 0.64708 0.31869 0.0
C1131 C 0.16726 0.6716 0.33059 0.0
C1132 C 0.16507 0.69333 0.32236 0.0
C1133 C 0.15703 0.69131 0.30299 0.0
C1134 C 0.15669 0.71793 0.29777 0.0
C1135 C 0.17793 0.73306 0.28309 0.0
C1136 C 0.12665 0.7108 0.2903 0.0
C1137 C 0.16612 0.73539 0.31722 0.0
C1138 C 0.17089 0.72074 0.33115 0.0
C1139 C 0.18122 0.7329 0.35 0.0
C1140 C 0.18712 0.76087 0.35471 0.0
C1141 C 0.18237 0.77629 0.34072 0.0
C1142 C 0.17141 0.76327 0.32179 0.0
H1143 H 0.837 0.03827 0.38136 0.0
H1144 H 0.84198 0.01031 0.4376 0.0
H1145 H 0.80382 0.96154 0.42583 0.0
H1146 H 0.76038 0.99457 0.37116 0.0
H1147 H 0.76159 0.98683 0.34595 0.0
H1148 H 0.78908 0.01981 0.35877 0.0
H1149 H 0.82705 0.00796 0.34836 0.0
H1150 H 0.79969 0.97496 0.33551 0.0
H1151 H 0.82431 0.97459 0.35363 0.0
H1152 H 0.76662 0.91573 0.408 0.0
H1153 H 0.73173 0.87544 0.38507 0.0
H1154 H 0.74927 0.93252 0.34038 0.0
C1155 C 0.82998 0.02188 0.39117 0.0
C1156 C 0.84245 0.02797 0.4104 0.0
C1157 C 0.83268 0.006 0.42282 0.0
C1158 C 0.81103 0.97827 0.41628 0.0
C1159 C 0.79921 0.97286 0.39727 0.0
C1160 C 0.80819 0.99397 0.38488 0.0
C1161 C 0.7919 0.98218 0.36509 0.0
C1162 C 0.77471 0.99672 0.35995 0.0
C1163 C 0.81194 0.98509 0.34975 0.0
C1164 C 0.77262 0.95114 0.3683 0.0
C1165 C 0.77725 0.94631 0.387 0.0
C1166 C 0.76265 0.91928 0.39337 0.0
C1167 C 0.74284 0.89653 0.38026 0.0
C1168 C 0.73765 0.9009 0.36105 0.0
C1169 C 0.75265 0.92862 0.35504 0.0
H1170 H 0.02038 0.82491 0.42166 0.0
H1171 H 0.95569 0.77451 0.37449 0.0
H1172 H 0.99249 0.77785 0.35433 0.0
H1173 H 0.07223 0.8727 0.39247 0.0
H1174 H 0.10211 0.87515 0.40665 0.0
H1175 H 0.07076 0.86829 0.41781 0.0
H1176 H 0.06683 0.82243 0.43004 0.0
H1177 H 0.09835 0.82936 0.4191 0.0
H1178 H 0.06606 0.79564 0.41313 0.0
H1179 H 0.03607 0.78708 0.33908 0.0
H1180 H 0.08381 0.80154 0.32974 0.0
H1181 H 0.12049 0.84632 0.38667 0.0
C1182 C 0.01403 0.81448 0.40712 0.0
C1183 C 0.98524 0.79949 0.39963 0.0
C1184 C 0.97763 0.7862 0.38052 0.0
C1185 C 0.99838 0.78794 0.36895 0.0
C1186 C 0.02661 0.80306 0.37669 0.0
C1187 C 0.03452 0.81613 0.39532 0.0
C1188 C 0.06644 0.83153 0.39995 0.0
C1189 C 0.07859 0.86383 0.40448 0.0
C1190 C 0.0749 0.81897 0.41654 0.0
C1191 C 0.07513 0.82491 0.38104 0.0
C1192 C 0.05183 0.8085 0.36783 0.0
C1193 C 0.05449 0.79989 0.34931 0.0
C1194 C 0.08172 0.80824 0.34414 0.0
C1195 C 0.10594 0.82503 0.35745 0.0
C1196 C 0.10246 0.83342 0.37614 0.0
H1197 H 0.20725 0.2085 0.41357 0.0
H1198 H 0.1822 0.14124 0.36722 0.0
H1199 H 0.17189 0.16921 0.34501 0.0
H1200 H 0.15396 0.22626 0.40007 0.0
H1201 H 0.17659 0.26413 0.40635 0.0
H1202 H 0.18301 0.23936 0.41869 0.0
H1203 H 0.23451 0.26435 0.40939 0.0
H1204 H 0.22812 0.28911 0.39697 0.0
H1205 H 0.24067 0.26827 0.38442 0.0
H1206 H 0.16183 0.20248 0.32825 0.0
H1207 H 0.15304 0.23999 0.31745 0.0
H1208 H 0.18585 0.28738 0.37385 0.0
C1209 C 0.19974 0.19981 0.39871 0.0
C1210 C 0.19557 0.17271 0.39212 0.0
C1211 C 0.1856 0.16191 0.37262 0.0
C1212 C 0.17971 0.17768 0.35987 0.0
C1213 C 0.18397 0.20424 0.36679 0.0
C1214 C 0.19378 0.21535 0.38572 0.0
C1215 C 0.19583 0.24424 0.38941 0.0
C1216 C 0.17618 0.24343 0.40452 0.0
C1217 C 0.22662 0.26789 0.3954 0.0
C1218 C 0.18543 0.24743 0.36961 0.0
C1219 C 0.17869 0.22401 0.35686 0.0
C1220 C 0.16729 0.22108 0.33802 0.0
C1221 C 0.16234 0.24249 0.33204 0.0
C1222 C 0.16904 0.26674 0.34477 0.0
C1223 C 0.18107 0.26941 0.36374 0.0
H1224 H 0.66766 0.52438 0.74728 0.0
H1225 H 0.60099 0.4963 0.7004 0.0
H1226 H 0.63554 0.53029 0.6803 0.0
H1227 H 0.70174 0.59796 0.7403 0.0
H1228 H 0.73717 0.60461 0.74615 0.0
H1229 H 0.70793 0.57669 0.75665 0.0
H1230 H 0.72119 0.53993 0.74367 0.0
H1231 H 0.75051 0.56712 0.73282 0.0
H1232 H 0.72389 0.53548 0.71828 0.0
H1233 H 0.67717 0.56929 0.66585 0.0
H1234 H 0.72286 0.60853 0.65781 0.0
H1235 H 0.76163 0.61156 0.71456 0.0
C1236 C 0.66028 0.52529 0.73277 0.0
C1237 C 0.63156 0.50755 0.72543 0.0
C1238 C 0.62293 0.50928 0.70627 0.0
C1239 C 0.64236 0.52871 0.69479 0.0
C1240 C 0.67036 0.54626 0.70264 0.0
C1241 C 0.67932 0.5446 0.72116 0.0
C1242 C 0.7104 0.56623 0.72635 0.0
C1243 C 0.71454 0.58763 0.74338 0.0
C1244 C 0.7275 0.55129 0.73053 0.0
C1245 C 0.71751 0.58045 0.70791 0.0
C1246 C 0.69418 0.56866 0.69439 0.0
C1247 C 0.69561 0.5786 0.67632 0.0
C1248 C 0.72165 0.60098 0.67191 0.0
C1249 C 0.7459 0.61321 0.68554 0.0
C1250 C 0.74358 0.60277 0.70379 0.0
H1251 H 0.49674 0.13591 0.76239 0.0
H1252 H 0.50806 0.09139 0.71319 0.0
H1253 H 0.47084 0.09442 0.69372 0.0
H1254 H 0.41934 0.10282 0.75248 0.0
H1255 H 0.41929 0.13508 0.76013 0.0
H1256 H 0.44607 0.12847 0.77071 0.0
H1257 H 0.48514 0.1769 0.76116 0.0
H1258 H 0.45844 0.18354 0.75051 0.0
H1259 H 0.48528 0.18433 0.73637 0.0
H1260 H 0.43475 0.10415 0.679 0.0
H1261 H 0.3999 0.11852 0.66989 0.0
H1262 H 0.41005 0.15599 0.72847 0.0
C1263 C 0.49106 0.12647 0.7476 0.0
C1264 C 0.50556 0.11367 0.73926 0.0
C1265 C 0.49767 0.10176 0.7198 0.0
C1266 C 0.47641 0.10321 0.70865 0.0
C1267 C 0.46298 0.11643 0.71714 0.0
C1268 C 0.46974 0.12769 0.73618 0.0
C1269 C 0.45227 0.14134 0.74147 0.0
C1270 C 0.4331 0.126 0.75713 0.0
C1271 C 0.47143 0.17343 0.74774 0.0
C1272 C 0.43497 0.13623 0.72235 0.0
C1273 C 0.44157 0.12179 0.70857 0.0
C1274 C 0.42921 0.11528 0.68967 0.0
C1275 C 0.40947 0.12367 0.68463 0.0
C1276 C 0.40214 0.1384 0.69843 0.0
C1277 C 0.41505 0.14463 0.71759 0.0
H1278 H 0.91249 0.38323 0.73087 0.0
H1279 H 0.83109 0.37796 0.719 0.0
H1280 H 0.81128 0.32927 0.70311 0.0
H1281 H 0.91097 0.34697 0.68674 0.0
H1282 H 0.92709 0.32798 0.69683 0.0
H1283 H 0.93473 0.3618 0.70857 0.0
H1284 H 0.91848 0.33841 0.74012 0.0
H1285 H 0.91059 0.30439 0.72847 0.0
H1286 H 0.88357 0.30771 0.73992 0.0
H1287 H 0.80061 0.28267 0.68726 0.0
H1288 H 0.7997 0.24042 0.6716 0.0
H1289 H 0.88773 0.27446 0.69324 0.0
C1290 C 0.8904 0.37163 0.72515 0.0
C1291 C 0.87337 0.38452 0.72607 0.0
C1292 C 0.84465 0.36875 0.71821 0.0
C1293 C 0.83313 0.34098 0.7093 0.0
C1294 C 0.85051 0.32906 0.70839 0.0
C1295 C 0.8785 0.34374 0.7161 0.0
C1296 C 0.89269 0.32616 0.71235 0.0
C1297 C 0.91786 0.34166 0.70041 0.0
C1298 C 0.90188 0.31873 0.73135 0.0
C1299 C 0.86848 0.2997 0.7009 0.0
C1300 C 0.8443 0.30182 0.69905 0.0
C1301 C 0.81934 0.28066 0.6887 0.0
C1302 C 0.81908 0.25676 0.67981 0.0
C1303 C 0.8436 0.25414 0.68123 0.0
C1304 C 0.86859 0.27581 0.69207 0.0
H1305 H 0.16489 0.99664 0.60927 0.0
H1306 H 0.18454 0.93401 0.62979 0.0
H1307 H 0.22714 0.9725 0.6495 0.0
H1308 H 0.23771 0.0546 0.60776 0.0
H1309 H 0.2302 0.08183 0.6164 0.0
H1310 H 0.20276 0.0497 0.60269 0.0
H1311 H 0.17071 0.04063 0.63044 0.0
H1312 H 0.19824 0.07273 0.64408 0.0
H1313 H 0.18376 0.03915 0.65438 0.0
H1314 H 0.2681 0.01785 0.66626 0.0
H1315 H 0.3012 0.06632 0.68242 0.0
H1316 H 0.25237 0.09881 0.65356 0.0
C1317 C 0.17834 0.99121 0.61786 0.0
C1318 C 0.17175 0.96255 0.61804 0.0
C1319 C 0.18942 0.95594 0.62957 0.0
C1320 C 0.21366 0.97762 0.64067 0.0
C1321 C 0.21967 0.00573 0.64022 0.0
C1322 C 0.20233 0.01256 0.62933 0.0
C1323 C 0.21254 0.04423 0.63245 0.0
C1324 C 0.22132 0.0584 0.6137 0.0
C1325 C 0.18997 0.04948 0.64084 0.0
C1326 C 0.23807 0.05402 0.64697 0.0
C1327 C 0.24223 0.0316 0.65088 0.0
C1328 C 0.26495 0.03552 0.66343 0.0
C1329 C 0.28363 0.06301 0.67247 0.0
C1330 C 0.27896 0.08586 0.66925 0.0
C1331 C 0.25605 0.08141 0.65631 0.0
H1332 H 0.01756 0.2086 0.59569 0.0
H1333 H 0.0822 0.25334 0.64381 0.0
H1334 H 0.04659 0.25448 0.66333 0.0
H1335 H 0.97844 0.24564 0.60348 0.0
H1336 H 0.94426 0.21415 0.59701 0.0
H1337 H 0.97496 0.21746 0.58657 0.0
H1338 H 0.96492 0.16941 0.59863 0.0
H1339 H 0.93435 0.16607 0.60926 0.0
H1340 H 0.96189 0.16476 0.62386 0.0
H1341 H 1.0042 0.25048 0.6778 0.0
H1342 H 0.95722 0.23994 0.6867 0.0
H1343 H 0.9198 0.19762 0.62928 0.0
C1344 C 0.02421 0.2188 0.61029 0.0
C1345 C 0.05265 0.23079 0.61827 0.0
C1346 C 0.06047 0.24368 0.6375 0.0
C1347 C 0.04045 0.24463 0.64865 0.0
C1348 C 0.01263 0.23258 0.6404 0.0
C1349 C 1.0044 0.2198 0.62169 0.0
C1350 C 0.97288 0.20763 0.61657 0.0
C1351 C 0.96732 0.2221 0.59993 0.0
C1352 C 0.95762 0.17503 0.6118 0.0
C1353 C 0.96479 0.21564 0.63532 0.0
C1354 C 0.98805 0.2301 0.64883 0.0
C1355 C 0.98581 0.23924 0.66733 0.0
C1356 C 0.959 0.23316 0.67224 0.0
C1357 C 0.93473 0.21801 0.65873 0.0
C1358 C 0.93787 0.2094 0.63996 0.0
H1359 H 0.84838 0.86685 0.64028 0.0
H1360 H 0.76156 0.81792 0.61416 0.0
H1361 H 0.75651 0.77492 0.6279 0.0
H1362 H 0.86546 0.81279 0.63146 0.0
H1363 H 0.88738 0.82073 0.65378 0.0
H1364 H 0.88369 0.84851 0.64348 0.0
H1365 H 0.86656 0.85899 0.67507 0.0
H1366 H 0.8705 0.83142 0.68554 0.0
H1367 H 0.83697 0.83035 0.68481 0.0
H1368 H 0.76201 0.73639 0.64177 0.0
H1369 H 0.77669 0.7052 0.65697 0.0
H1370 H 0.85979 0.77856 0.67485 0.0
C1371 C 0.82811 0.84725 0.63794 0.0
C1372 C 0.80527 0.84573 0.62625 0.0
C1373 C 0.77928 0.81953 0.62308 0.0
C1374 C 0.77623 0.795 0.63081 0.0
C1375 C 0.79935 0.79695 0.64177 0.0
C1376 C 0.82473 0.82242 0.64552 0.0
C1377 C 0.8466 0.81821 0.65704 0.0
C1378 C 0.8723 0.8255 0.64576 0.0
C1379 C 0.85569 0.83579 0.67679 0.0
C1380 C 0.8296 0.78641 0.659 0.0
C1381 C 0.80243 0.77461 0.65002 0.0
C1382 C 0.78311 0.74544 0.64907 0.0
C1383 C 0.79167 0.72788 0.65768 0.0
C1384 C 0.81926 0.73949 0.66721 0.0
C1385 C 0.83844 0.76917 0.66787 0.0
H1386 H 0.99482 0.81998 0.59501 0.0
H1387 H 0.06151 0.84019 0.64039 0.0
H1388 H 0.02613 0.80612 0.66 0.0
H1389 H 0.9428 0.81407 0.62629 0.0
H1390 H 0.9133 0.78491 0.61155 0.0
H1391 H 0.94378 0.81019 0.60062 0.0
H1392 H 0.94973 0.76914 0.58532 0.0
H1393 H 0.91904 0.74368 0.59599 0.0
H1394 H 0.9523 0.74456 0.60046 0.0
H1395 H 0.9834 0.7704 0.67496 0.0
H1396 H 0.93637 0.73559 0.68415 0.0
H1397 H 0.89741 0.73875 0.62909 0.0
C1398 C 1.00193 0.81707 0.60903 0.0
C1399 C 0.03088 0.83271 0.61617 0.0
C1400 C 0.03944 0.82851 0.63463 0.0
C1401 C 0.0195 0.80916 0.64588 0.0
C1402 C 0.99108 0.79421 0.63848 0.0
C1403 C 0.98227 0.79792 0.62049 0.0
C1404 C 0.95037 0.77965 0.61612 0.0
C1405 C 0.93677 0.79832 0.61349 0.0
C1406 C 0.94241 0.75797 0.59843 0.0
C1407 C 0.9427 0.76497 0.63441 0.0
C1408 C 0.96646 0.77369 0.64714 0.0
C1409 C 0.96464 0.76335 0.66509 0.0
C1410 C 0.9378 0.74359 0.67019 0.0
C1411 C 0.91313 0.73432 0.65736 0.0
C1412 C 0.91579 0.74523 0.63923 0.0
H1413 H 0.19226 0.19514 0.5964 0.0
H1414 H 0.16626 0.22516 0.64578 0.0
H1415 H 0.19892 0.21801 0.66735 0.0
H1416 H 0.19856 0.14012 0.61947 0.0
H1417 H 0.22926 0.14554 0.60799 0.0
H1418 H 0.20398 0.15313 0.59607 0.0
H1419 H 0.24399 0.20472 0.59291 0.0
H1420 H 0.26937 0.19714 0.60469 0.0
H1421 H 0.26613 0.2269 0.61413 0.0
H1422 H 0.23434 0.20815 0.68371 0.0
H1423 H 0.27048 0.19584 0.69395 0.0
H1424 H 0.27361 0.17127 0.63432 0.0
C1425 C 0.19355 0.20023 0.61176 0.0
C1426 C 0.17666 0.21066 0.61939 0.0
C1427 C 0.17882 0.21702 0.63956 0.0
C1428 C 0.19737 0.21306 0.65196 0.0
C1429 C 0.21358 0.20261 0.64404 0.0
C1430 C 0.21188 0.1962 0.62442 0.0
C1431 C 0.23161 0.18501 0.61978 0.0
C1432 C 0.21484 0.15411 0.61027 0.0
C1433 C 0.25411 0.20463 0.60713 0.0
C1434 C 0.24476 0.18644 0.63984 0.0
C1435 C 0.23399 0.19663 0.65358 0.0
C1436 C 0.24293 0.2001 0.6731 0.0
C1437 C 0.26351 0.19304 0.67877 0.0
C1438 C 0.27497 0.18257 0.66498 0.0
C1439 C 0.26529 0.17916 0.64525 0.0
H1440 H 0.83173 0.98667 0.67395 0.0
H1441 H 0.84458 0.99771 0.61367 0.0
H1442 H 0.84979 0.04531 0.61843 0.0
H1443 H 0.79162 0.0225 0.67856 0.0
H1444 H 0.80762 0.03958 0.7024 0.0
H1445 H 0.80499 0.00606 0.69456 0.0
H1446 H 0.85919 0.02853 0.70242 0.0
H1447 H 0.86196 0.06208 0.71037 0.0
H1448 H 0.8829 0.06047 0.69191 0.0
H1449 H 0.85231 0.0911 0.62903 0.0
H1450 H 0.85481 0.13375 0.64565 0.0
H1451 H 0.84179 0.09508 0.69936 0.0
C1452 C 0.83579 0.99922 0.66182 0.0
C1453 C 0.8377 0.9883 0.64346 0.0
C1454 C 0.84304 0.0054 0.62791 0.0
C1455 C 0.84598 0.03257 0.63043 0.0
C1456 C 0.84377 0.04261 0.64862 0.0
C1457 C 0.83907 0.02668 0.66412 0.0
C1458 C 0.83796 0.04293 0.68218 0.0
C1459 C 0.80881 0.0268 0.68987 0.0
C1460 C 0.86193 0.04885 0.69764 0.0
C1461 C 0.84261 0.07031 0.67431 0.0
C1462 C 0.8457 0.06949 0.65487 0.0
C1463 C 0.84982 0.09196 0.64424 0.0
C1464 C 0.85089 0.11597 0.65373 0.0
C1465 C 0.84797 0.11746 0.67363 0.0
C1466 C 0.84397 0.09439 0.68408 0.0
H1467 H 0.51698 0.36471 0.71683 0.0
H1468 H 0.46216 0.38295 0.7499 0.0
H1469 H 0.42215 0.33453 0.73963 0.0
H1470 H 0.46519 0.32341 0.67683 0.0
H1471 H 0.47701 0.29799 0.67322 0.0
H1472 H 0.5017 0.33393 0.68345 0.0
H1473 H 0.51443 0.31441 0.71305 0.0
H1474 H 0.48974 0.2784 0.70292 0.0
H1475 H 0.48666 0.29058 0.72669 0.0
H1476 H 0.38795 0.28524 0.72534 0.0
H1477 H 0.36111 0.23726 0.70772 0.0
H1478 H 0.43764 0.24964 0.68414 0.0
C1479 C 0.49656 0.35845 0.7219 0.0
C1480 C 0.49255 0.37754 0.73414 0.0
C1481 C 0.46557 0.3686 0.7405 0.0
C1482 C 0.44276 0.34117 0.73478 0.0
C1483 C 0.44729 0.32284 0.72271 0.0
C1484 C 0.47346 0.33098 0.71634 0.0
C1485 C 0.4723 0.30702 0.70327 0.0
C1486 C 0.47947 0.31614 0.68299 0.0
C1487 C 0.49195 0.29701 0.71201 0.0
C1488 C 0.44137 0.28434 0.70319 0.0
C1489 C 0.42743 0.29399 0.71456 0.0
C1490 C 0.39865 0.27732 0.71651 0.0
C1491 C 0.38361 0.25006 0.70649 0.0
C1492 C 0.39736 0.23964 0.69474 0.0
C1493 C 0.42665 0.257 0.69314 0.0
H1494 H 0.68167 0.14434 0.75813 0.0
H1495 H 0.6175 0.11052 0.70927 0.0
H1496 H 0.65298 0.11311 0.68795 0.0
H1497 H 0.73781 0.19462 0.73333 0.0
H1498 H 0.76481 0.1901 0.74593 0.0
H1499 H 0.73396 0.18402 0.75742 0.0
H1500 H 0.72349 0.13307 0.76328 0.0
H1501 H 0.75428 0.13904 0.7517 0.0
H1502 H 0.72004 0.10884 0.74319 0.0
H1503 H 0.69603 0.12061 0.67174 0.0
H1504 H 0.74354 0.13475 0.66181 0.0
H1505 H 0.77954 0.16436 0.72125 0.0
C1506 C 0.67509 0.1373 0.74296 0.0
C1507 C 0.64687 0.12721 0.73536 0.0
C1508 C 0.63904 0.1184 0.71542 0.0
C1509 C 0.65902 0.11968 0.70319 0.0
C1510 C 0.68675 0.12988 0.71112 0.0
C1511 C 0.69483 0.13866 0.73054 0.0
C1512 C 0.72622 0.14996 0.73529 0.0
C1513 C 0.7416 0.18154 0.74347 0.0
C1514 C 0.7313 0.13162 0.74918 0.0
C1515 C 0.73458 0.1464 0.71551 0.0
C1516 C 0.71151 0.13454 0.70177 0.0
C1517 C 0.71423 0.1298 0.6824 0.0
C1518 C 0.74131 0.13783 0.6769 0.0
C1519 C 0.76537 0.15066 0.6907 0.0
C1520 C 0.76168 0.15457 0.71028 0.0
H1521 H 0.90601 0.56444 0.73084 0.0
H1522 H 0.83931 0.48091 0.70549 0.0
H1523 H 0.81648 0.50336 0.68797 0.0
H1524 H 0.86064 0.59614 0.73592 0.0
H1525 H 0.88698 0.6306 0.72975 0.0
H1526 H 0.89777 0.60818 0.74128 0.0
H1527 H 0.92796 0.61106 0.71339 0.0
H1528 H 0.91726 0.63347 0.70181 0.0
H1529 H 0.91143 0.60092 0.68898 0.0
H1530 H 0.80111 0.534 0.67272 0.0
H1531 H 0.7945 0.57159 0.65964 0.0
H1532 H 0.87134 0.63644 0.69368 0.0
C1533 C 0.8865 0.55095 0.72168 0.0
C1534 C 0.87449 0.52092 0.71953 0.0
C1535 C 0.84902 0.50393 0.70735 0.0
C1536 C 0.8358 0.51648 0.69736 0.0
C1537 C 0.84824 0.54608 0.69966 0.0
C1538 C 0.87299 0.5632 0.71148 0.0
C1539 C 0.88218 0.59459 0.71079 0.0
C1540 C 0.88187 0.60817 0.73062 0.0
C1541 C 0.91144 0.61097 0.70329 0.0
C1542 C 0.85898 0.59232 0.69647 0.0
C1543 C 0.83951 0.56406 0.69048 0.0
C1544 C 0.81619 0.55621 0.6773 0.0
C1545 C 0.81268 0.57778 0.66992 0.0
C1546 C 0.83245 0.60696 0.67557 0.0
C1547 C 0.85588 0.61433 0.68912 0.0
H1548 H 0.44428 0.9494 0.22413 0.0
H1549 H 0.42968 0.86321 0.21714 0.0
H1550 H 0.43505 0.86693 0.18233 0.0
H1551 H 0.41009 0.94826 0.17549 0.0
H1552 H 0.43667 0.98468 0.17324 0.0
H1553 H 0.42667 0.97335 0.19666 0.0
H1554 H 0.47922 0.99125 0.20826 0.0
H1555 H 0.48933 1.00236 0.18489 0.0
H1556 H 0.49842 0.97793 0.19522 0.0
H1557 H 0.44842 0.88232 0.14969 0.0
H1558 H 0.46786 0.90782 0.12126 0.0
H1559 H 0.47456 0.98449 0.14956 0.0
C1560 C 0.44114 0.93102 0.21503 0.0
C1561 C 0.4359 0.90577 0.22298 0.0
C1562 C 0.43307 0.88243 0.21103 0.0
C1563 C 0.43614 0.88442 0.19132 0.0
C1564 C 0.44205 0.90991 0.1839 0.0
C1565 C 0.4443 0.93275 0.19535 0.0
C1566 C 0.45362 0.95868 0.18429 0.0
C1567 C 0.43037 0.9667 0.1823 0.0
C1568 C 0.48182 0.98403 0.19373 0.0
C1569 C 0.45723 0.94719 0.16507 0.0
C1570 C 0.45012 0.91893 0.16507 0.0
C1571 C 0.45362 0.90431 0.14941 0.0
C1572 C 0.46487 0.91902 0.1334 0.0
C1573 C 0.4726 0.94808 0.13318 0.0
C1574 C 0.4683 0.96213 0.14915 0.0
H1575 H 0.11492 0.52297 0.21764 0.0
H1576 H 0.05555 0.53159 0.25181 0.0
H1577 H 0.02564 0.526 0.22212 0.0
H1578 H 0.11259 0.56428 0.18185 0.0
H1579 H 0.11522 0.54328 0.16202 0.0
H1580 H 0.13005 0.54399 0.18584 0.0
H1581 H 0.10008 0.48883 0.18393 0.0
H1582 H 0.08529 0.48793 0.16001 0.0
H1583 H 0.06219 0.47136 0.17836 0.0
H1584 H 1.00452 0.52363 0.18918 0.0
H1585 H 0.99307 0.52459 0.15474 0.0
H1586 H 0.06692 0.51916 0.14147 0.0
C1587 C 0.0952 0.52285 0.21878 0.0
C1588 C 0.0872 0.52732 0.23689 0.0
C1589 C 0.06177 0.52796 0.23798 0.0
C1590 C 0.0447 0.52476 0.22124 0.0
C1591 C 0.05345 0.52106 0.20354 0.0
C1592 C 0.07803 0.52 0.20215 0.0
C1593 C 0.08369 0.51813 0.1813 0.0
C1594 C 0.11207 0.54396 0.17754 0.0
C1595 C 0.08275 0.48988 0.17557 0.0
C1596 C 0.05878 0.51892 0.17126 0.0
C1597 C 0.04149 0.52031 0.18438 0.0
C1598 C 0.01778 0.52237 0.17874 0.0
C1599 C 0.01161 0.52317 0.15916 0.0
C1600 C 0.02919 0.52213 0.14541 0.0
C1601 C 0.05291 0.51967 0.15159 0.0
H1602 H 0.47495 0.58507 0.21272 0.0
H1603 H 0.45826 0.50597 0.23534 0.0
H1604 H 0.46535 0.48862 0.20384 0.0
H1605 H 0.44077 0.55401 0.16426 0.0
H1606 H 0.46685 0.58386 0.15308 0.0
H1607 H 0.45888 0.58923 0.17706 0.0
H1608 H 0.51198 0.6122 0.18952 0.0
H1609 H 0.5201 0.6069 0.16561 0.0
H1610 H 0.53015 0.59263 0.18527 0.0
H1611 H 0.47764 0.48146 0.17046 0.0
H1612 H 0.49223 0.48428 0.13746 0.0
H1613 H 0.50038 0.56792 0.13681 0.0
C1614 C 0.47269 0.56405 0.21102 0.0
C1615 C 0.46606 0.54685 0.22647 0.0
C1616 C 0.46303 0.51937 0.22363 0.0
C1617 C 0.46714 0.5094 0.20583 0.0
C1618 C 0.47403 0.52708 0.19097 0.0
C1619 C 0.47656 0.55375 0.19336 0.0
C1620 C 0.48477 0.56887 0.1753 0.0
C1621 C 0.46142 0.5743 0.16693 0.0
C1622 C 0.51345 0.59679 0.17916 0.0
C1623 C 0.48691 0.54675 0.16245 0.0
C1624 C 0.48063 0.52278 0.17173 0.0
C1625 C 0.48235 0.50002 0.163 0.0
C1626 C 0.49077 0.50185 0.14432 0.0
C1627 C 0.49723 0.52621 0.13456 0.0
C1628 C 0.49506 0.5488 0.14378 0.0
H1629 H 0.90064 0.41906 0.7926 0.0
H1630 H 0.9562 0.50353 0.77567 0.0
H1631 H 0.9813 0.51862 0.80845 0.0
H1632 H 0.89477 0.44127 0.84025 0.0
H1633 H 0.89494 0.41175 0.85071 0.0
H1634 H 0.88148 0.40763 0.82591 0.0
H1635 H 0.9167 0.39182 0.81545 0.0
H1636 H 0.93021 0.39582 0.84023 0.0
H1637 H 0.95405 0.41458 0.82273 0.0
H1638 H 1.00008 0.52453 0.84331 0.0
H1639 H 0.01158 0.52051 0.87728 0.0
H1640 H 0.94393 0.43201 0.8711 0.0
C1641 C 0.91833 0.44063 0.79567 0.0
C1642 C 0.92646 0.4601 0.7815 0.0
C1643 C 0.94938 0.48831 0.78631 0.0
C1644 C 0.96385 0.49704 0.80487 0.0
C1645 C 0.95521 0.47731 0.81847 0.0
C1646 C 0.93302 0.44967 0.81407 0.0
C1647 C 0.92779 0.43264 0.83129 0.0
C1648 C 0.89798 0.42275 0.8374 0.0
C1649 C 0.93248 0.40722 0.82718 0.0
C1650 C 0.95052 0.45501 0.84608 0.0
C1651 C 0.96608 0.48065 0.83843 0.0
C1652 C 0.98804 0.50454 0.84944 0.0
C1653 C 0.9943 0.5021 0.86875 0.0
C1654 C 0.97871 0.47595 0.87687 0.0
C1655 C 0.95651 0.45218 0.86528 0.0
H1656 H 0.57528 0.45471 0.80176 0.0
H1657 H 0.60421 0.53767 0.7808 0.0
H1658 H 0.5997 0.55644 0.81243 0.0
H1659 H 0.52178 0.45432 0.82608 0.0
H1660 H 0.52569 0.43646 0.84598 0.0
H1661 H 0.53586 0.43072 0.82291 0.0
H1662 H 0.58627 0.4465 0.83859 0.0
H1663 H 0.57622 0.4523 0.86177 0.0
H1664 H 0.60657 0.48075 0.85254 0.0
H1665 H 0.58651 0.56477 0.84461 0.0
H1666 H 0.56489 0.56177 0.87501 0.0
H1667 H 0.54277 0.47312 0.87488 0.0
C1668 C 0.58103 0.47693 0.80387 0.0
C1669 C 0.59036 0.49473 0.78875 0.0
C1670 C 0.59767 0.52371 0.7922 0.0
C1671 C 0.59506 0.53458 0.81014 0.0
C1672 C 0.58516 0.51628 0.82453 0.0
C1673 C 0.57834 0.48809 0.82164 0.0
C1674 C 0.56561 0.47223 0.83885 0.0
C1675 C 0.53545 0.44695 0.83311 0.0
C1676 C 0.58482 0.46237 0.84851 0.0
C1677 C 0.56532 0.49563 0.85154 0.0
C1678 C 0.57714 0.521 0.84314 0.0
C1679 C 0.57755 0.54515 0.85146 0.0
C1680 C 0.56508 0.5432 0.86864 0.0
C1681 C 0.55221 0.51723 0.87726 0.0
C1682 C 0.55293 0.49337 0.86878 0.0
H1683 H 0.52536 0.11453 0.80943 0.0
H1684 H 0.56466 0.06528 0.79213 0.0
H1685 H 0.55856 0.04625 0.82367 0.0
H1686 H 0.55399 0.13136 0.8596 0.0
H1687 H 0.52194 0.12739 0.86825 0.0
H1688 H 0.53066 0.13846 0.84461 0.0
H1689 H 0.48215 0.09638 0.82971 0.0
H1690 H 0.47329 0.08519 0.85329 0.0
H1691 H 0.47231 0.06048 0.8345 0.0
H1692 H 0.54694 0.03117 0.85657 0.0
H1693 H 0.52968 0.02035 0.88847 0.0
H1694 H 0.49731 0.07875 0.88467 0.0
C1695 C 0.53267 0.09972 0.81224 0.0
C1696 C 0.54584 0.09174 0.79827 0.0
C1697 C 0.55516 0.07235 0.80267 0.0
C1698 C 0.55161 0.06122 0.82053 0.0
C1699 C 0.53858 0.06952 0.83392 0.0
C1700 C 0.52919 0.08827 0.83002 0.0
C1701 C 0.51512 0.09302 0.84678 0.0
C1702 C 0.53141 0.12443 0.85531 0.0
C1703 C 0.48387 0.08317 0.8407 0.0
C1704 C 0.51786 0.07379 0.86061 0.0
C1705 C 0.53161 0.06059 0.85292 0.0
C1706 C 0.53632 0.04155 0.86281 0.0
C1707 C 0.5266 0.03569 0.88102 0.0
C1708 C 0.51226 0.04879 0.88923 0.0
C1709 C 0.50801 0.06821 0.8788 0.0
H1710 H 0.12061 0.2293 0.54575 0.0
H1711 H 0.08975 0.28447 0.56736 0.0
H1712 H 0.09559 0.30493 0.53645 0.0
H1713 H 0.17508 0.28285 0.52057 0.0
H1714 H 0.17119 0.25799 0.50078 0.0
H1715 H 0.16299 0.24609 0.52428 0.0
H1716 H 0.11268 0.20688 0.50991 0.0
H1717 H 0.12069 0.21874 0.48637 0.0
H1718 H 0.09029 0.21682 0.49648 0.0
H1719 H 0.10457 0.31975 0.50349 0.0
H1720 H 0.11972 0.33065 0.47107 0.0
H1721 H 0.14769 0.26849 0.4709 0.0
C1722 C 0.11517 0.24575 0.54405 0.0
C1723 C 0.10406 0.25467 0.55902 0.0
C1724 C 0.09731 0.27637 0.55604 0.0
C1725 C 0.10079 0.28839 0.53853 0.0
C1726 C 0.11145 0.27891 0.52411 0.0
C1727 C 0.11888 0.25835 0.52669 0.0
C1728 C 0.13106 0.25299 0.50902 0.0
C1729 C 0.16191 0.26043 0.51396 0.0
C1730 C 0.11257 0.22202 0.49991 0.0
C1731 C 0.12936 0.27384 0.49619 0.0
C1732 C 0.11767 0.2883 0.50516 0.0
C1733 C 0.11373 0.30855 0.49629 0.0
C1734 C 0.12222 0.31445 0.47781 0.0
C1735 C 0.13475 0.30033 0.4684 0.0
C1736 C 0.13826 0.27968 0.47776 0.0
H1737 H 0.7549 0.85099 0.56472 0.0
H1738 H 0.8414 0.91364 0.55671 0.0
H1739 H 0.82808 0.90871 0.52169 0.0
H1740 H 0.73875 0.80571 0.51905 0.0
H1741 H 0.70304 0.79925 0.51545 0.0
H1742 H 0.72007 0.80541 0.53949 0.0
H1743 H 0.71035 0.84687 0.5471 0.0
H1744 H 0.6935 0.841 0.52307 0.0
H1745 H 0.72274 0.87575 0.53199 0.0
H1746 H 0.80491 0.89897 0.488 0.0
H1747 H 0.77324 0.88627 0.45799 0.0
H1748 H 0.70128 0.83103 0.48795 0.0
C1749 C 0.77109 0.86313 0.55547 0.0
C1750 C 0.79923 0.88245 0.56326 0.0
C1751 C 0.81978 0.89863 0.5509 0.0
C1752 C 0.81242 0.89592 0.53104 0.0
C1753 C 0.78437 0.87707 0.52381 0.0
C1754 C 0.764 0.86096 0.53563 0.0
C1755 C 0.73499 0.84386 0.5244 0.0
C1756 C 0.72355 0.81164 0.52461 0.0
C1757 C 0.71418 0.85239 0.5321 0.0
C1758 C 0.74217 0.85321 0.50451 0.0
C1759 C 0.77083 0.87207 0.50444 0.0
C1760 C 0.78247 0.88405 0.48783 0.0
C1761 C 0.76433 0.87663 0.47085 0.0
C1762 C 0.73481 0.85763 0.47062 0.0
C1763 C 0.72371 0.84574 0.48771 0.0
H1764 H 0.1212 0.87194 0.5515 0.0
H1765 H 0.12958 0.95549 0.55002 0.0
H1766 H 0.13792 0.95498 0.51564 0.0
H1767 H 0.17684 0.8855 0.52466 0.0
H1768 H 0.16088 0.8503 0.51201 0.0
H1769 H 0.15086 0.855 0.53537 0.0
H1770 H 0.09817 0.83003 0.52148 0.0
H1771 H 0.108 0.82504 0.49805 0.0
H1772 H 0.08816 0.84313 0.5011 0.0
H1773 H 0.15003 0.94743 0.48252 0.0
H1774 H 0.16679 0.93438 0.45372 0.0
H1775 H 0.15155 0.85612 0.47704 0.0
C1776 C 0.12385 0.88966 0.54372 0.0
C1777 C 0.12429 0.91355 0.55322 0.0
C1778 C 0.12889 0.93689 0.54285 0.0
C1779 C 0.13356 0.93673 0.52335 0.0
C1780 C 0.13368 0.91312 0.51448 0.0
C1781 C 0.12891 0.88998 0.52432 0.0
C1782 C 0.13307 0.86865 0.5121 0.0
C1783 C 0.15682 0.86465 0.5216 0.0
C1784 C 0.10518 0.84001 0.50793 0.0
C1785 C 0.14169 0.88375 0.49405 0.0
C1786 C 0.14143 0.90912 0.49557 0.0
C1787 C 0.14993 0.92741 0.48107 0.0
C1788 C 0.15933 0.91977 0.46472 0.0
C1789 C 0.16046 0.89422 0.4631 0.0
C1790 C 0.15104 0.87584 0.47788 0.0
H1791 H 0.56018 0.7533 0.12867 0.0
H1792 H 0.60687 0.83829 0.10995 0.0
H1793 H 0.63118 0.85701 0.1427 0.0
H1794 H 0.55239 0.77397 0.17682 0.0
H1795 H 0.55787 0.74734 0.18736 0.0
H1796 H 0.54262 0.74091 0.16278 0.0
H1797 H 0.58193 0.73168 0.15154 0.0
H1798 H 0.59725 0.738 0.17607 0.0
H1799 H 0.61859 0.75841 0.15795 0.0
H1800 H 0.65131 0.86638 0.17741 0.0
H1801 H 0.66745 0.86511 0.21092 0.0
H1802 H 0.60959 0.77366 0.20635 0.0
C1803 C 0.57563 0.77583 0.13132 0.0
C1804 C 0.58138 0.79427 0.1166 0.0
C1805 C 0.60155 0.82372 0.12097 0.0
C1806 C 0.61564 0.83457 0.13953 0.0
C1807 C 0.60954 0.81573 0.1536 0.0
C1808 C 0.59014 0.78696 0.14968 0.0
C1809 C 0.58834 0.77101 0.1671 0.0
C1810 C 0.55853 0.75752 0.17391 0.0
C1811 C 0.59705 0.74845 0.16291 0.0
C1812 C 0.60995 0.79528 0.1814 0.0
C1813 C 0.62171 0.82096 0.1734 0.0
C1814 C 0.64221 0.84639 0.18383 0.0
C1815 C 0.65114 0.84549 0.20287 0.0
C1816 C 0.63978 0.8193 0.21122 0.0
C1817 C 0.61879 0.79395 0.20031 0.0
H1818 H 0.22836 0.84629 0.12142 0.0
H1819 H 0.2134 0.75967 0.11494 0.0
H1820 H 0.20238 0.75425 0.14859 0.0
H1821 H 0.26243 0.86423 0.16969 0.0
H1822 H 0.24679 0.88512 0.17729 0.0
H1823 H 0.25276 0.88212 0.15243 0.0
H1824 H 0.19967 0.86332 0.14204 0.0
H1825 H 0.19357 0.86641 0.16685 0.0
H1826 H 0.17304 0.83271 0.1523 0.0
H1827 H 0.1943 0.75845 0.18318 0.0
H1828 H 0.18694 0.77119 0.21591 0.0
H1829 H 0.2079 0.85532 0.20037 0.0
C1830 C 0.22272 0.82617 0.12707 0.0
C1831 C 0.22152 0.80332 0.11541 0.0
C1832 C 0.21391 0.7773 0.12339 0.0
C1833 C 0.20787 0.77408 0.14257 0.0
C1834 C 0.2095 0.79706 0.15368 0.0
C1835 C 0.21656 0.82255 0.14623 0.0
C1836 C 0.21674 0.84386 0.16132 0.0
C1837 C 0.24645 0.8704 0.16542 0.0
C1838 C 0.19442 0.85205 0.15526 0.0
C1839 C 0.20871 0.82635 0.17839 0.0
C1840 C 0.20478 0.79947 0.17368 0.0
C1841 C 0.19734 0.77946 0.18705 0.0
C1842 C 0.19343 0.78698 0.20566 0.0
C1843 C 0.19689 0.81426 0.21077 0.0
C1844 C 0.20485 0.8342 0.1969 0.0
H1845 H 0.19284 0.44294 0.13726 0.0
H1846 H 0.2302 0.39505 0.11341 0.0
H1847 H 0.2287 0.37517 0.14439 0.0
H1848 H 0.22604 0.4579 0.18584 0.0
H1849 H 0.19482 0.45255 0.19659 0.0
H1850 H 0.20091 0.46493 0.17304 0.0
H1851 H 0.15188 0.42262 0.15914 0.0
H1852 H 0.14558 0.41021 0.18265 0.0
H1853 H 0.14342 0.38665 0.16256 0.0
H1854 H 0.22223 0.35963 0.17777 0.0
H1855 H 0.20791 0.34671 0.2102 0.0
H1856 H 0.17178 0.40206 0.21145 0.0
C1857 C 0.20054 0.42812 0.13839 0.0
C1858 C 0.21185 0.42083 0.12277 0.0
C1859 C 0.22203 0.4016 0.12518 0.0
C1860 C 0.22112 0.39002 0.14272 0.0
C1861 C 0.20974 0.39762 0.15771 0.0
C1862 C 0.19938 0.41601 0.15566 0.0
C1863 C 0.18677 0.41949 0.17362 0.0
C1864 C 0.20312 0.45057 0.18281 0.0
C1865 C 0.15503 0.40911 0.16922 0.0
C1866 C 0.19141 0.39994 0.18605 0.0
C1867 C 0.20508 0.38787 0.1767 0.0
C1868 C 0.21158 0.36899 0.18524 0.0
C1869 C 0.20352 0.36192 0.20369 0.0
C1870 C 0.18882 0.37345 0.21333 0.0
C1871 C 0.18292 0.39288 0.20439 0.0
H1872 H 0.8027 0.59641 0.88446 0.0
H1873 H 0.71226 0.54045 0.87008 0.0
H1874 H 0.71723 0.55355 0.83659 0.0
H1875 H 0.80971 0.65187 0.85593 0.0
H1876 H 0.84396 0.65991 0.84904 0.0
H1877 H 0.83309 0.64575 0.87164 0.0
H1878 H 0.84197 0.60421 0.86207 0.0
H1879 H 0.85286 0.61823 0.83943 0.0
H1880 H 0.82466 0.58193 0.83983 0.0
H1881 H 0.7327 0.57241 0.8044 0.0
H1882 H 0.75673 0.59745 0.77688 0.0
H1883 H 0.83687 0.64106 0.8128 0.0
C1884 C 0.78396 0.5867 0.87423 0.0
C1885 C 0.75711 0.56722 0.87979 0.0
C1886 C 0.73301 0.55548 0.8661 0.0
C1887 C 0.73566 0.56269 0.84706 0.0
C1888 C 0.76254 0.58182 0.84202 0.0
C1889 C 0.78621 0.59379 0.85528 0.0
C1890 C 0.8126 0.61424 0.84642 0.0
C1891 C 0.82559 0.64475 0.85635 0.0
C1892 C 0.83429 0.60403 0.84697 0.0
C1893 C 0.80015 0.61191 0.82606 0.0
C1894 C 0.77128 0.593 0.82374 0.0
C1895 C 0.75529 0.58729 0.8061 0.0
C1896 C 0.76914 0.60151 0.79051 0.0
C1897 C 0.79865 0.62136 0.79267 0.0
C1898 C 0.81424 0.62634 0.81072 0.0
H1899 H 0.40595 0.1978 0.90702 0.0
H1900 H 0.4772 0.18428 0.90214 0.0
H1901 H 0.46416 0.17227 0.86696 0.0
H1902 H 0.35716 0.14107 0.86981 0.0
H1903 H 0.34191 0.16182 0.86154 0.0
H1904 H 0.35567 0.16688 0.88638 0.0
H1905 H 0.38832 0.22089 0.88354 0.0
H1906 H 0.37482 0.21598 0.85869 0.0
H1907 H 0.41239 0.23199 0.86516 0.0
H1908 H 0.44535 0.16591 0.83175 0.0
H1909 H 0.42172 0.16428 0.80005 0.0
H1910 H 0.36226 0.18077 0.82868 0.0
C1911 C 0.41867 0.19207 0.89857 0.0
C1912 C 0.44259 0.19199 0.90727 0.0
C1913 C 0.45861 0.18418 0.89577 0.0
C1914 C 0.45142 0.17746 0.87578 0.0
C1915 C 0.42801 0.17834 0.86761 0.0
C1916 C 0.41173 0.18518 0.87871 0.0
C1917 C 0.38823 0.18563 0.86649 0.0
C1918 C 0.35901 0.16246 0.87135 0.0
C1919 C 0.39113 0.21539 0.8686 0.0
C1920 C 0.39421 0.1787 0.84668 0.0
C1921 C 0.4171 0.1744 0.84756 0.0
C1922 C 0.42716 0.16887 0.83093 0.0
C1923 C 0.41353 0.16787 0.81298 0.0
C1924 C 0.39012 0.17245 0.81181 0.0
C1925 C 0.38029 0.17756 0.82899 0.0
H1926 H 0.82328 0.26869 0.88932 0.0
H1927 H 0.78172 0.1804 0.90238 0.0
H1928 H 0.78878 0.16573 0.87018 0.0
H1929 H 0.79681 0.2551 0.83912 0.0
H1930 H 0.82956 0.28266 0.83169 0.0
H1931 H 0.82011 0.2862 0.8555 0.0
H1932 H 0.86771 0.29246 0.87028 0.0
H1933 H 0.87731 0.289 0.84651 0.0
H1934 H 0.87697 0.26567 0.86396 0.0
H1935 H 0.80097 0.16057 0.83674 0.0
H1936 H 0.81796 0.16551 0.80451 0.0
H1937 H 0.85392 0.25736 0.81393 0.0
C1938 C 0.81571 0.24627 0.88546 0.0
C1939 C 0.80164 0.2257 0.8984 0.0
C1940 C 0.79194 0.19655 0.89264 0.0
C1941 C 0.79605 0.18798 0.8744 0.0
C1942 C 0.81003 0.2088 0.86207 0.0
C1943 C 0.81979 0.23735 0.86735 0.0
C1944 C 0.83481 0.2555 0.85156 0.0
C1945 C 0.81939 0.27076 0.84402 0.0
C1946 C 0.86605 0.27691 0.85849 0.0
C1947 C 0.83204 0.23269 0.83661 0.0
C1948 C 0.81759 0.20589 0.84293 0.0
C1949 C 0.81242 0.18147 0.83165 0.0
C1950 C 0.82234 0.18452 0.81342 0.0
C1951 C 0.83739 0.21182 0.80665 0.0
C1952 C 0.84221 0.23614 0.81851 0.0
H1953 H 0.24639 0.13979 0.46459 0.0
H1954 H 0.17579 0.054 0.46553 0.0
H1955 H 0.18548 0.05773 0.50089 0.0
H1956 H 0.29192 0.1328 0.49713 0.0
H1957 H 0.30894 0.1687 0.50879 0.0
H1958 H 0.2936 0.16134 0.48423 0.0
H1959 H 0.26264 0.18329 0.49311 0.0
H1960 H 0.27806 0.19092 0.51774 0.0
H1961 H 0.24014 0.17011 0.51226 0.0
H1962 H 0.2059 0.06875 0.53531 0.0
H1963 H 0.23657 0.08535 0.56604 0.0
H1964 H 0.29455 0.16381 0.54268 0.0
C1965 C 0.23247 0.12221 0.47239 0.0
C1966 C 0.21012 0.09677 0.46251 0.0
C1967 C 0.19287 0.07373 0.47297 0.0
C1968 C 0.19815 0.07572 0.49301 0.0
C1969 C 0.22081 0.10087 0.50233 0.0
C1970 C 0.2377 0.12374 0.49237 0.0
C1971 C 0.26252 0.14707 0.50546 0.0
C1972 C 0.29091 0.15279 0.49848 0.0
C1973 C 0.26072 0.17447 0.50725 0.0
C1974 C 0.25748 0.13337 0.52416 0.0
C1975 C 0.23303 0.10697 0.52215 0.0
C1976 C 0.22485 0.08959 0.53716 0.0
C1977 C 0.24236 0.09925 0.55459 0.0
C1978 C 0.26792 0.12591 0.55678 0.0
C1979 C 0.27518 0.14332 0.54143 0.0
H1980 H 0.91014 0.11476 0.47269 0.0
H1981 H 0.94289 0.19966 0.45418 0.0
H1982 H 0.93925 0.21742 0.48646 0.0
H1983 H 0.85793 0.11564 0.49778 0.0
H1984 H 0.86061 0.09596 0.5169 0.0
H1985 H 0.87045 0.0909 0.49356 0.0
H1986 H 0.92018 0.10371 0.50889 0.0
H1987 H 0.91047 0.1088 0.53235 0.0
H1988 H 0.94158 0.13707 0.52368 0.0
H1989 H 0.92611 0.22468 0.51903 0.0
H1990 H 0.90434 0.22077 0.54948 0.0
H1991 H 0.87884 0.13105 0.54677 0.0
C1992 C 0.91692 0.13719 0.47546 0.0
C1993 C 0.92694 0.1558 0.4608 0.0
C1994 C 0.93568 0.18503 0.46517 0.0
C1995 C 0.93358 0.19533 0.48349 0.0
C1996 C 0.92282 0.17622 0.49737 0.0
C1997 C 0.91478 0.14778 0.49362 0.0
C1998 C 0.9014 0.13114 0.51042 0.0
C1999 C 0.87079 0.107 0.50429 0.0
C2000 C 0.91949 0.1195 0.51936 0.0
C2001 C 0.9022 0.15443 0.52392 0.0
C2002 C 0.91504 0.18037 0.51622 0.0
C2003 C 0.91642 0.2046 0.52533 0.0
C2004 C 0.9039 0.20216 0.54255 0.0
C2005 C 0.89006 0.17566 0.55047 0.0
C2006 C 0.88979 0.15168 0.54122 0.0
H2007 H 0.89117 0.74305 0.46275 0.0
H2008 H 0.88207 0.81798 0.46741 0.0
H2009 H 0.8751 0.81264 0.50188 0.0
H2010 H 0.83674 0.70311 0.4904 0.0
H2011 H 0.8535 0.68553 0.50173 0.0
H2012 H 0.86226 0.69775 0.4784 0.0
H2013 H 0.9154 0.72755 0.49128 0.0
H2014 H 0.90681 0.71528 0.51467 0.0
H2015 H 0.92618 0.753 0.51218 0.0
H2016 H 0.8649 0.79671 0.53482 0.0
H2017 H 0.84974 0.77004 0.56334 0.0
H2018 H 0.86423 0.70463 0.53705 0.0
C2019 C 0.88853 0.75874 0.47124 0.0
C2020 C 0.88755 0.78117 0.46266 0.0
C2021 C 0.8831 0.80083 0.4739 0.0
C2022 C 0.87924 0.79801 0.49345 0.0
C2023 C 0.87975 0.77532 0.50146 0.0
C2024 C 0.88425 0.75599 0.49071 0.0
C2025 C 0.8809 0.73188 0.50223 0.0
C2026 C 0.85692 0.70287 0.49262 0.0
C2027 C 0.909 0.73195 0.50527 0.0
C2028 C 0.87308 0.74026 0.52093 0.0
C2029 C 0.87304 0.76565 0.52032 0.0
C2030 C 0.86521 0.777 0.53557 0.0
C2031 C 0.85673 0.76176 0.55174 0.0
C2032 C 0.85584 0.73529 0.55243 0.0
C2033 C 0.86461 0.72476 0.53691 0.0
loop_
_geom_bond_atom_site_label_1
_geom_bond_atom_site_label_2
_geom_bond_distance
_geom_bond_site_symmetry_2
_ccdc_geom_bond_type
H0 C5 0.930 . S
H1 C8 0.930 . S
H2 C10 0.930 . S
H3 C4 1.016 . S
C4 H3 1.016 . S
C4 N11 1.286 . S
C5 H0 0.930 . S
C5 C6 1.397 . S
C5 C7 1.361 . S
C6 C5 1.397 . S
C6 C10 1.390 . S
C7 C5 1.361 . S
C7 C8 1.393 . S
C7 N11 1.413 . S
C8 H1 0.930 . S
C8 C7 1.393 . S
C8 C9 1.399 . S
C9 C8 1.399 . S
C9 C10 1.381 . S
C10 H2 0.930 . S
C10 C6 1.390 . S
C10 C9 1.381 . S
N11 C4 1.286 . S
N11 C7 1.413 . S
H12 C17 0.930 . S
H13 C20 0.930 . S
H14 C22 0.930 . S
H15 C16 1.016 . S
C16 H15 1.016 . S
C16 N23 1.286 . S
C17 H12 0.930 . S
C17 C18 1.397 . S
C17 C19 1.361 . S
C18 C17 1.397 . S
C18 C22 1.390 . S
C19 C17 1.361 . S
C19 C20 1.393 . S
C19 N23 1.413 . S
C20 H13 0.930 . S
C20 C19 1.393 . S
C20 C21 1.399 . S
C21 C20 1.399 . S
C21 C22 1.381 . S
C22 H14 0.930 . S
C22 C18 1.390 . S
C22 C21 1.381 . S
N23 C16 1.286 . S
N23 C19 1.413 . S
H24 C29 0.930 . S
H25 C32 0.930 . S
H26 C34 0.930 . S
H27 C28 1.016 . S
C28 H27 1.016 . S
C28 N35 1.286 . S
C29 H24 0.930 . S
C29 C30 1.397 . S
C29 C31 1.361 . S
C30 C29 1.397 . S
C30 C34 1.390 . S
C31 C29 1.361 . S
C31 C32 1.393 . S
C31 N35 1.413 . S
C32 H25 0.930 . S
C32 C31 1.393 . S
C32 C33 1.399 . S
C33 C32 1.399 . S
C33 C34 1.381 . S
C34 H26 0.930 . S
C34 C30 1.390 . S
C34 C33 1.381 . S
N35 C28 1.286 . S
N35 C31 1.413 . S
H36 C41 0.930 . S
H37 C44 0.930 . S
H38 C46 0.930 . S
H39 C40 1.016 . S
C40 H39 1.016 . S
C40 N47 1.286 . S
C41 H36 0.930 . S
C41 C42 1.397 . S
C41 C43 1.361 . S
C42 C41 1.397 . S
C42 C46 1.390 . S
C43 C41 1.361 . S
C43 C44 1.393 . S
C43 N47 1.413 . S
C44 H37 0.930 . S
C44 C43 1.393 . S
C44 C45 1.399 . S
C45 C44 1.399 . S
C45 C46 1.381 . S
C46 H38 0.930 . S
C46 C42 1.390 . S
C46 C45 1.381 . S
N47 C40 1.286 . S
N47 C43 1.413 . S
H48 C53 0.930 . S
H49 C56 0.930 . S
H50 C58 0.930 . S
H51 C52 1.016 . S
C52 H51 1.016 . S
C52 N59 1.286 . S
C53 H48 0.930 . S
C53 C54 1.397 . S
C53 C55 1.361 . S
C54 C53 1.397 . S
C54 C58 1.390 . S
C55 C53 1.361 . S
C55 C56 1.393 . S
C55 N59 1.413 . S
C56 H49 0.930 . S
C56 C55 1.393 . S
C56 C57 1.399 . S
C57 C56 1.399 . S
C57 C58 1.381 . S
C58 H50 0.930 . S
C58 C54 1.390 . S
C58 C57 1.381 . S
N59 C52 1.286 . S
N59 C55 1.413 . S
H60 C65 0.930 . S
H61 C68 0.930 . S
H62 C70 0.930 . S
H63 C64 1.016 . S
C64 H63 1.016 . S
C64 N71 1.286 . S
C65 H60 0.930 . S
C65 C66 1.397 . S
C65 C67 1.361 . S
C66 C65 1.397 . S
C66 C70 1.390 . S
C67 C65 1.361 . S
C67 C68 1.393 . S
C67 N71 1.413 . S
C68 H61 0.930 . S
C68 C67 1.393 . S
C68 C69 1.399 . S
C69 C68 1.399 . S
C69 C70 1.381 . S
C70 H62 0.930 . S
C70 C66 1.390 . S
C70 C69 1.381 . S
N71 C64 1.286 . S
N71 C67 1.413 . S
H72 C77 0.930 . S
H73 C80 0.930 . S
H74 C82 0.930 . S
H75 C76 1.016 . S
C76 H75 1.016 . S
C76 N83 1.286 . S
C77 H72 0.930 . S
C77 C78 1.397 . S
C77 C79 1.361 . S
C78 C77 1.397 . S
C78 C82 1.390 . S
C79 C77 1.361 . S
C79 C80 1.393 . S
C79 N83 1.413 . S
C80 H73 0.930 . S
C80 C79 1.393 . S
C80 C81 1.399 . S
C81 C80 1.399 . S
C81 C82 1.381 . S
C82 H74 0.930 . S
C82 C78 1.390 . S
C82 C81 1.381 . S
N83 C76 1.286 . S
N83 C79 1.413 . S
H84 C89 0.930 . S
H85 C92 0.930 . S
H86 C94 0.930 . S
H87 C88 1.016 . S
C88 H87 1.016 . S
C88 N95 1.286 . S
C89 H84 0.930 . S
C89 C90 1.397 . S
C89 C91 1.361 . S
C90 C89 1.397 . S
C90 C94 1.390 . S
C91 C89 1.361 . S
C91 C92 1.393 . S
C91 N95 1.413 . S
C92 H85 0.930 . S
C92 C91 1.393 . S
C92 C93 1.399 . S
C93 C92 1.399 . S
C93 C94 1.381 . S
C94 H86 0.930 . S
C94 C90 1.390 . S
C94 C93 1.381 . S
N95 C88 1.286 . S
N95 C91 1.413 . S
H96 C101 0.930 . S
H97 C104 0.930 . S
H98 C106 0.930 . S
H99 C100 1.016 . S
C100 H99 1.016 . S
C100 N107 1.286 . S
C101 H96 0.930 . S
C101 C102 1.397 . S
C101 C103 1.361 . S
C102 C101 1.397 . S
C102 C106 1.390 . S
C103 C101 1.361 . S
C103 C104 1.393 . S
C103 N107 1.413 . S
C104 H97 0.930 . S
C104 C103 1.393 . S
C104 C105 1.399 . S
C105 C104 1.399 . S
C105 C106 1.381 . S
C106 H98 0.930 . S
C106 C102 1.390 . S
C106 C105 1.381 . S
N107 C100 1.286 . S
N107 C103 1.413 . S
H108 C113 0.930 . S
H109 C116 0.930 . S
H110 C118 0.930 . S
H111 C112 1.016 . S
C112 H111 1.016 . S
C112 N119 1.286 . S
C113 H108 0.930 . S
C113 C114 1.397 . S
C113 C115 1.361 . S
C114 C113 1.397 . S
C114 C118 1.390 . S
C115 C113 1.361 . S
C115 C116 1.393 . S
C115 N119 1.413 . S
C116 H109 0.930 . S
C116 C115 1.393 . S
C116 C117 1.399 . S
C117 C116 1.399 . S
C117 C118 1.381 . S
C118 H110 0.930 . S
C118 C114 1.390 . S
C118 C117 1.381 . S
N119 C112 1.286 . S
N119 C115 1.413 . S
H120 C125 0.930 . S
H121 C128 0.930 . S
H122 C130 0.930 . S
H123 C124 1.016 . S
C124 H123 1.016 . S
C124 N131 1.286 . S
C125 H120 0.930 . S
C125 C126 1.397 . S
C125 C127 1.361 . S
C126 C125 1.397 . S
C126 C130 1.390 . S
C127 C125 1.361 . S
C127 C128 1.393 . S
C127 N131 1.413 . S
C128 H121 0.930 . S
C128 C127 1.393 . S
C128 C129 1.399 . S
C129 C128 1.399 . S
C129 C130 1.381 . S
C130 H122 0.930 . S
C130 C126 1.390 . S
C130 C129 1.381 . S
N131 C124 1.286 . S
N131 C127 1.413 . S
H132 C137 0.930 . S
H133 C140 0.930 . S
H134 C142 0.930 . S
H135 C136 1.016 . S
C136 H135 1.016 . S
C136 N143 1.286 . S
C137 H132 0.930 . S
C137 C138 1.397 . S
C137 C139 1.361 . S
C138 C137 1.397 . S
C138 C142 1.390 . S
C139 C137 1.361 . S
C139 C140 1.393 . S
C139 N143 1.413 . S
C140 H133 0.930 . S
C140 C139 1.393 . S
C140 C141 1.399 . S
C141 C140 1.399 . S
C141 C142 1.381 . S
C142 H134 0.930 . S
C142 C138 1.390 . S
C142 C141 1.381 . S
N143 C136 1.286 . S
N143 C139 1.413 . S
H144 C149 0.930 . S
H145 C152 0.930 . S
H146 C154 0.930 . S
H147 C148 1.016 . S
C148 H147 1.016 . S
C148 N155 1.286 . S
C149 H144 0.930 . S
C149 C150 1.397 . S
C149 C151 1.361 . S
C150 C149 1.397 . S
C150 C154 1.390 . S
C151 C149 1.361 . S
C151 C152 1.393 . S
C151 N155 1.413 . S
C152 H145 0.930 . S
C152 C151 1.393 . S
C152 C153 1.399 . S
C153 C152 1.399 . S
C153 C154 1.381 . S
C154 H146 0.930 . S
C154 C150 1.390 . S
C154 C153 1.381 . S
N155 C148 1.286 . S
N155 C151 1.413 . S
H156 C161 0.930 . S
H157 C164 0.930 . S
H158 C166 0.930 . S
H159 C160 1.016 . S
C160 H159 1.016 . S
C160 N167 1.286 . S
C161 H156 0.930 . S
C161 C162 1.397 . S
C161 C163 1.361 . S
C162 C161 1.397 . S
C162 C166 1.390 . S
C163 C161 1.361 . S
C163 C164 1.393 . S
C163 N167 1.413 . S
C164 H157 0.930 . S
C164 C163 1.393 . S
C164 C165 1.399 . S
C165 C164 1.399 . S
C165 C166 1.381 . S
C166 H158 0.930 . S
C166 C162 1.390 . S
C166 C165 1.381 . S
N167 C160 1.286 . S
N167 C163 1.413 . S
H168 C173 0.930 . S
H169 C176 0.930 . S
H170 C178 0.930 . S
H171 C172 1.016 . S
C172 H171 1.016 . S
C172 N179 1.286 . S
C173 H168 0.930 . S
C173 C174 1.397 . S
C173 C175 1.361 . S
C174 C173 1.397 . S
C174 C178 1.390 . S
C175 C173 1.361 . S
C175 C176 1.393 . S
C175 N179 1.413 . S
C176 H169 0.930 . S
C176 C175 1.393 . S
C176 C177 1.399 . S
C177 C176 1.399 . S
C177 C178 1.381 . S
C178 H170 0.930 . S
C178 C174 1.390 . S
C178 C177 1.381 . S
N179 C172 1.286 . S
N179 C175 1.413 . S
H180 C185 0.930 . S
H181 C188 0.930 . S
H182 C190 0.930 . S
H183 C184 1.016 . S
C184 H183 1.016 . S
C184 N191 1.286 . S
C185 H180 0.930 . S
C185 C186 1.397 . S
C185 C187 1.361 . S
C186 C185 1.397 . S
C186 C190 1.390 . S
C187 C185 1.361 . S
C187 C188 1.393 . S
C187 N191 1.413 . S
C188 H181 0.930 . S
C188 C187 1.393 . S
C188 C189 1.399 . S
C189 C188 1.399 . S
C189 C190 1.381 . S
C190 H182 0.930 . S
C190 C186 1.390 . S
C190 C189 1.381 . S
N191 C184 1.286 . S
N191 C187 1.413 . S
H192 C197 0.930 . S
H193 C200 0.930 . S
H194 C202 0.930 . S
H195 C196 1.016 . S
C196 H195 1.016 . S
C196 N203 1.286 . S
C197 H192 0.930 . S
C197 C198 1.397 . S
C197 C199 1.361 . S
C198 C197 1.397 . S
C198 C202 1.390 . S
C199 C197 1.361 . S
C199 C200 1.393 . S
C199 N203 1.413 . S
C200 H193 0.930 . S
C200 C199 1.393 . S
C200 C201 1.399 . S
C201 C200 1.399 . S
C201 C202 1.381 . S
C202 H194 0.930 . S
C202 C198 1.390 . S
C202 C201 1.381 . S
N203 C196 1.286 . S
N203 C199 1.413 . S
H204 C209 0.930 . S
H205 C212 0.930 . S
H206 C214 0.930 . S
H207 C208 1.016 . S
C208 H207 1.016 . S
C208 N215 1.286 . S
C209 H204 0.930 . S
C209 C210 1.397 . S
C209 C211 1.361 . S
C210 C209 1.397 . S
C210 C214 1.390 . S
C211 C209 1.361 . S
C211 C212 1.393 . S
C211 N215 1.413 . S
C212 H205 0.930 . S
C212 C211 1.393 . S
C212 C213 1.399 . S
C213 C212 1.399 . S
C213 C214 1.381 . S
C214 H206 0.930 . S
C214 C210 1.390 . S
C214 C213 1.381 . S
N215 C208 1.286 . S
N215 C211 1.413 . S
C216 Eu217 2.835 . S
C216 C218 1.500 1_545 S
C216 O236 1.257 1_545 S
C216 O237 1.260 . S
Eu217 C216 2.835 . S
Eu217 O236 2.473 1_545 S
Eu217 O237 2.480 . S
Eu217 O238 2.430 . S
Eu217 O239 2.670 1_554 S
Eu217 O240 2.394 1_545 S
Eu217 O245 2.355 1_545 S
Eu217 O247 2.374 . S
C218 C216 1.500 1_565 S
C218 C219 1.377 1_565 S
C218 C223 1.377 . S
C219 C218 1.377 1_545 S
C219 C220 1.400 . S
C219 H248 0.931 . S
C220 C219 1.400 . S
C220 C221 1.362 1_545 S
C220 H249 0.948 . S
C221 C220 1.362 1_565 S
C221 C222 1.394 . S
C222 C221 1.394 . S
C222 C223 1.378 . S
C222 H250 0.931 . S
C223 C218 1.377 . S
C223 C222 1.378 . S
C223 H251 0.931 . S
C224 O238 1.259 . S
C224 O239 1.270 1_554 S
C225 O240 1.251 . S
C225 O241 1.251 1_554 S
C226 Eu227 2.835 1_545 S
C226 C228 1.500 . S
C226 O242 1.257 . S
C226 O243 1.260 1_545 S
Eu227 C226 2.835 1_565 S
Eu227 O239 2.355 1_565 S
Eu227 O241 2.374 . S
Eu227 O242 2.473 1_565 S
Eu227 O243 2.480 . S
Eu227 O244 2.430 . S
Eu227 O245 2.670 1_556 S
Eu227 O246 2.394 1_565 S
C228 C226 1.500 . S
C228 C229 1.377 . S
C228 C233 1.377 . S
C229 C228 1.377 . S
C229 C230 1.395 . S
C229 H252 0.931 1_545 S
C230 C229 1.395 . S
C230 C231 1.383 . S
C230 H253 0.931 1_545 S
C231 C230 1.383 . S
C231 C232 1.394 . S
C232 C231 1.394 . S
C232 C233 1.378 . S
C232 H254 0.931 . S
C233 C228 1.377 . S
C233 C232 1.378 . S
C233 H255 0.931 . S
C234 O244 1.259 1_554 S
C234 O245 1.270 . S
C235 O246 1.251 . S
C235 O247 1.251 1_556 S
O236 C216 1.257 1_565 S
O236 Eu217 2.473 1_565 S
O237 C216 1.260 . S
O237 Eu217 2.480 . S
O238 Eu217 2.430 . S
O238 C224 1.259 . S
O239 Eu217 2.670 1_556 S
O239 C224 1.270 1_556 S
O239 Eu227 2.355 1_545 S
O240 Eu217 2.394 1_565 S
O240 C225 1.251 . S
O241 C225 1.251 1_556 S
O241 Eu227 2.374 . S
O242 C226 1.257 . S
O242 Eu227 2.473 1_545 S
O243 C226 1.260 1_565 S
O243 Eu227 2.480 . S
O244 Eu227 2.430 . S
O244 C234 1.259 1_556 S
O245 Eu217 2.355 1_565 S
O245 Eu227 2.670 1_554 S
O245 C234 1.270 . S
O246 Eu227 2.394 1_545 S
O246 C235 1.251 . S
O247 Eu217 2.374 . S
O247 C235 1.251 1_554 S
H248 C219 0.931 . S
H249 C220 0.948 . S
H250 C222 0.931 . S
H251 C223 0.931 . S
H252 C229 0.931 1_565 S
H253 C230 0.931 1_565 S
H254 C232 0.931 . S
H255 C233 0.931 . S
C256 Eu257 2.835 1_455 S
C256 C258 1.500 . S
C256 O276 1.257 . S
C256 O277 1.260 1_455 S
Eu257 C256 2.835 1_655 S
Eu257 O276 2.473 1_655 S
Eu257 O277 2.480 . S
Eu257 O278 2.430 . S
Eu257 O279 2.670 1_554 S
Eu257 O280 2.394 1_655 S
Eu257 O285 2.355 1_655 S
Eu257 O287 2.374 . S
C258 C256 1.500 . S
C258 C259 1.377 . S
C258 C263 1.377 . S
C259 C258 1.377 . S
C259 C260 1.395 . S
C259 H288 0.931 1_455 S
C260 C259 1.395 . S
C260 C261 1.383 . S
C260 H289 0.931 . S
C261 C260 1.383 . S
C261 C262 1.394 . S
C262 C261 1.394 . S
C262 C263 1.378 . S
C262 H290 0.931 . S
C263 C258 1.377 . S
C263 C262 1.378 . S
C263 H291 0.931 . S
C264 O278 1.259 . S
C264 O279 1.270 1_554 S
C265 O280 1.251 . S
C265 O281 1.251 . S
C266 Eu267 2.835 1_655 S
C266 C268 1.500 . S
C266 O282 1.257 . S
C266 O283 1.260 1_655 S
Eu267 C266 2.835 1_455 S
Eu267 O279 2.355 1_455 S
Eu267 O281 2.374 1_556 S
Eu267 O282 2.473 1_455 S
Eu267 O283 2.480 . S
Eu267 O284 2.430 . S
Eu267 O285 2.670 1_556 S
Eu267 O286 2.394 1_455 S
C268 C266 1.500 . S
C268 C269 1.376 . S
C268 C273 1.377 . S
C269 C268 1.376 . S
C269 C270 1.395 . S
C269 H292 0.931 1_655 S
C270 C269 1.395 . S
C270 C271 1.383 . S
C270 H293 0.931 1_655 S
C271 C270 1.383 . S
C271 C272 1.394 . S
C272 C271 1.394 . S
C272 C273 1.378 . S
C272 H294 0.931 . S
C273 C268 1.377 . S
C273 C272 1.378 . S
C273 H295 0.931 . S
C274 O284 1.259 1_554 S
C274 O285 1.270 . S
C275 O286 1.251 . S
C275 O287 1.251 1_556 S
O276 C256 1.257 . S
O276 Eu257 2.473 1_455 S
O277 C256 1.260 1_655 S
O277 Eu257 2.480 . S
O278 Eu257 2.430 . S
O278 C264 1.259 . S
O279 Eu257 2.670 1_556 S
O279 C264 1.270 1_556 S
O279 Eu267 2.355 1_655 S
O280 Eu257 2.394 1_455 S
O280 C265 1.251 . S
O281 C265 1.251 . S
O281 Eu267 2.374 1_554 S
O282 C266 1.257 . S
O282 Eu267 2.473 1_655 S
O283 C266 1.260 1_455 S
O283 Eu267 2.480 . S
O284 Eu267 2.430 . S
O284 C274 1.259 1_556 S
O285 Eu257 2.355 1_455 S
O285 Eu267 2.670 1_554 S
O285 C274 1.270 . S
O286 Eu267 2.394 1_655 S
O286 C275 1.251 . S
O287 Eu257 2.374 . S
O287 C275 1.251 1_554 S
H288 C259 0.931 1_655 S
H289 C260 0.931 . S
H290 C262 0.931 . S
H291 C263 0.931 . S
H292 C269 0.931 1_455 S
H293 C270 0.931 1_455 S
H294 C272 0.931 . S
H295 C273 0.931 . S
C296 Eu297 2.835 . S
C296 C298 1.500 . S
C296 O316 1.257 . S
C296 O317 1.260 . S
Eu297 C296 2.835 . S
Eu297 O316 2.473 . S
Eu297 O317 2.480 . S
Eu297 O318 2.430 . S
Eu297 O319 2.670 1_556 S
Eu297 O320 2.394 . S
Eu297 O325 2.355 1_556 S
Eu297 O327 2.374 1_556 S
C298 C296 1.500 . S
C298 C299 1.377 . S
C298 C303 1.377 . S
C299 C298 1.377 . S
C299 C300 1.395 . S
C299 H328 0.931 . S
C300 C299 1.395 . S
C300 C301 1.383 . S
C300 H329 0.931 . S
C301 C300 1.383 . S
C301 C302 1.394 . S
C302 C301 1.394 . S
C302 C303 1.378 . S
C302 H330 0.931 . S
C303 C298 1.377 . S
C303 C302 1.378 . S
C303 H331 0.931 . S
C304 O318 1.259 1_554 S
C304 O319 1.270 . S
C305 O320 1.251 . S
C305 O321 1.251 1_556 S
C306 Eu307 2.835 . S
C306 C308 1.500 . S
C306 O322 1.257 . S
C306 O323 1.260 . S
Eu307 C306 2.835 . S
Eu307 O319 2.355 . S
Eu307 O321 2.374 . S
Eu307 O322 2.473 . S
Eu307 O323 2.480 . S
Eu307 O324 2.430 . S
Eu307 O325 2.670 . S
Eu307 O326 2.394 . S
C308 C306 1.500 . S
C308 C309 1.377 . S
C308 C313 1.377 . S
C309 C308 1.377 . S
C309 C310 1.395 . S
C309 H332 0.931 . S
C310 C309 1.395 . S
C310 C311 1.383 . S
C310 H333 0.931 . S
C311 C310 1.383 . S
C311 C312 1.394 . S
C312 C311 1.394 . S
C312 C313 1.378 . S
C312 H334 0.931 . S
C313 C308 1.377 . S
C313 C312 1.378 . S
C313 H335 0.931 . S
C314 O324 1.259 . S
C314 O325 1.270 . S
C315 O326 1.251 . S
C315 O327 1.251 . S
O316 C296 1.257 . S
O316 Eu297 2.473 . S
O317 C296 1.260 . S
O317 Eu297 2.480 . S
O318 Eu297 2.430 . S
O318 C304 1.259 1_556 S
O319 Eu297 2.670 1_554 S
O319 C304 1.270 . S
O319 Eu307 2.355 . S
O320 Eu297 2.394 . S
O320 C305 1.251 . S
O321 C305 1.251 1_554 S
O321 Eu307 2.374 . S
O322 C306 1.257 . S
O322 Eu307 2.473 . S
O323 C306 1.260 . S
O323 Eu307 2.480 . S
O324 Eu307 2.430 . S
O324 C314 1.259 . S
O325 Eu297 2.355 1_554 S
O325 Eu307 2.670 . S
O325 C314 1.270 . S
O326 Eu307 2.394 . S
O326 C315 1.251 . S
O327 Eu297 2.374 1_554 S
O327 C315 1.251 . S
H328 C299 0.931 . S
H329 C300 0.931 . S
H330 C302 0.931 . S
H331 C303 0.931 . S
H332 C309 0.931 . S
H333 C310 0.931 . S
H334 C312 0.931 . S
H335 C313 0.931 . S
C336 Eu337 2.835 . S
C336 C338 1.500 . S
C336 O356 1.257 . S
C336 O357 1.260 . S
Eu337 C336 2.835 . S
Eu337 O356 2.473 . S
Eu337 O357 2.480 . S
Eu337 O358 2.430 . S
Eu337 O359 2.670 . S
Eu337 O360 2.394 . S
Eu337 O365 2.355 . S
Eu337 O367 2.374 . S
C338 C336 1.500 . S
C338 C339 1.377 . S
C338 C343 1.377 . S
C339 C338 1.377 . S
C339 C340 1.395 . S
C339 H368 0.931 . S
C340 C339 1.395 . S
C340 C341 1.383 . S
C340 H369 0.931 . S
C341 C340 1.383 . S
C341 C342 1.394 . S
C342 C341 1.394 . S
C342 C343 1.378 . S
C342 H370 0.931 . S
C343 C338 1.377 . S
C343 C342 1.378 . S
C343 H371 0.931 . S
C344 O358 1.259 . S
C344 O359 1.270 . S
C345 O360 1.251 . S
C345 O361 1.251 . S
C346 Eu347 2.835 . S
C346 C348 1.500 . S
C346 O362 1.257 . S
C346 O363 1.260 . S
Eu347 C346 2.835 . S
Eu347 O359 2.355 . S
Eu347 O361 2.374 . S
Eu347 O362 2.473 . S
Eu347 O363 2.480 . S
Eu347 O364 2.430 . S
Eu347 O365 2.670 . S
Eu347 O366 2.394 . S
C348 C346 1.500 . S
C348 C349 1.377 . S
C348 C353 1.377 . S
C349 C348 1.377 . S
C349 C350 1.395 . S
C349 H372 0.931 . S
C350 C349 1.395 . S
C350 C351 1.383 . S
C350 H373 0.931 . S
C351 C350 1.383 . S
C351 C352 1.394 . S
C352 C351 1.394 . S
C352 C353 1.378 . S
C352 H374 0.931 . S
C353 C348 1.377 . S
C353 C352 1.378 . S
C353 H375 0.931 . S
C354 O364 1.259 . S
C354 O365 1.270 . S
C355 O366 1.251 . S
C355 O367 1.251 . S
O356 C336 1.257 . S
O356 Eu337 2.473 . S
O357 C336 1.260 . S
O357 Eu337 2.480 . S
O358 Eu337 2.430 . S
O358 C344 1.259 . S
O359 Eu337 2.670 . S
O359 C344 1.270 . S
O359 Eu347 2.355 . S
O360 Eu337 2.394 . S
O360 C345 1.251 . S
O361 C345 1.251 . S
O361 Eu347 2.374 . S
O362 C346 1.257 . S
O362 Eu347 2.473 . S
O363 C346 1.260 . S
O363 Eu347 2.480 . S
O364 Eu347 2.430 . S
O364 C354 1.259 . S
O365 Eu337 2.355 . S
O365 Eu347 2.670 . S
O365 C354 1.270 . S
O366 Eu347 2.394 . S
O366 C355 1.251 . S
O367 Eu337 2.374 . S
O367 C355 1.251 . S
H368 C339 0.931 . S
H369 C340 0.931 . S
H370 C342 0.931 . S
H371 C343 0.931 . S
H372 C349 0.931 . S
H373 C350 0.931 . S
H374 C352 0.931 . S
H375 C353 0.931 . S
C376 Eu377 2.835 . S
C376 C378 1.500 . S
C376 O396 1.257 . S
C376 O397 1.260 . S
Eu377 C376 2.835 . S
Eu377 O396 2.473 . S
Eu377 O397 2.480 . S
Eu377 O398 2.430 . S
Eu377 O399 2.670 . S
Eu377 O400 2.394 . S
Eu377 O405 2.355 . S
Eu377 O407 2.374 . S
C378 C376 1.500 . S
C378 C379 1.377 . S
C378 C383 1.377 . S
C379 C378 1.377 . S
C379 C380 1.395 . S
C379 H408 0.931 . S
C380 C379 1.395 . S
C380 C381 1.383 . S
C380 H409 0.931 . S
C381 C380 1.383 . S
C381 C382 1.394 . S
C382 C381 1.394 . S
C382 C383 1.378 . S
C382 H410 0.931 . S
C383 C378 1.377 . S
C383 C382 1.378 . S
C383 H411 0.931 . S
C384 O398 1.259 . S
C384 O399 1.270 . S
C385 O400 1.251 . S
C385 O401 1.251 . S
C386 Eu387 2.835 . S
C386 C388 1.500 . S
C386 O402 1.257 . S
C386 O403 1.260 . S
Eu387 C386 2.835 . S
Eu387 O399 2.355 . S
Eu387 O401 2.374 . S
Eu387 O402 2.473 . S
Eu387 O403 2.480 . S
Eu387 O404 2.430 . S
Eu387 O405 2.670 . S
Eu387 O406 2.394 . S
C388 C386 1.500 . S
C388 C389 1.377 . S
C388 C393 1.377 . S
C389 C388 1.377 . S
C389 C390 1.395 . S
C389 H412 0.931 . S
C390 C389 1.395 . S
C390 C391 1.383 . S
C390 H413 0.931 . S
C391 C390 1.383 . S
C391 C392 1.394 . S
C392 C391 1.394 . S
C392 C393 1.378 . S
C392 H414 0.931 . S
C393 C388 1.377 . S
C393 C392 1.378 . S
C393 H415 0.931 . S
C394 O404 1.259 . S
C394 O405 1.270 . S
C395 O406 1.251 . S
C395 O407 1.251 . S
O396 C376 1.257 . S
O396 Eu377 2.473 . S
O397 C376 1.260 . S
O397 Eu377 2.480 . S
O398 Eu377 2.430 . S
O398 C384 1.259 . S
O399 Eu377 2.670 . S
O399 C384 1.270 . S
O399 Eu387 2.355 . S
O400 Eu377 2.394 . S
O400 C385 1.251 . S
O401 C385 1.251 . S
O401 Eu387 2.374 . S
O402 C386 1.257 . S
O402 Eu387 2.473 . S
O403 C386 1.260 . S
O403 Eu387 2.480 . S
O404 Eu387 2.430 . S
O404 C394 1.259 . S
O405 Eu377 2.355 . S
O405 Eu387 2.670 . S
O405 C394 1.270 . S
O406 Eu387 2.394 . S
O406 C395 1.251 . S
O407 Eu377 2.374 . S
O407 C395 1.251 . S
H408 C379 0.931 . S
H409 C380 0.931 . S
H410 C382 0.931 . S
H411 C383 0.931 . S
H412 C389 0.931 . S
H413 C390 0.931 . S
H414 C392 0.931 . S
H415 C393 0.931 . S
C416 Eu417 2.835 . S
C416 C418 1.500 . S
C416 O436 1.257 . S
C416 O437 1.260 . S
Eu417 C416 2.835 . S
Eu417 O436 2.473 . S
Eu417 O437 2.480 . S
Eu417 O438 2.430 . S
Eu417 O439 2.670 . S
Eu417 O440 2.394 . S
Eu417 O445 2.355 . S
Eu417 O447 2.374 . S
C418 C416 1.500 . S
C418 C419 1.377 . S
C418 C423 1.377 . S
C419 C418 1.377 . S
C419 C420 1.395 . S
C419 H448 0.931 . S
C420 C419 1.395 . S
C420 C421 1.383 . S
C420 H449 0.931 . S
C421 C420 1.383 . S
C421 C422 1.394 . S
C422 C421 1.394 . S
C422 C423 1.378 . S
C422 H450 0.931 . S
C423 C418 1.377 . S
C423 C422 1.378 . S
C423 H451 0.931 . S
C424 O438 1.259 . S
C424 O439 1.270 . S
C425 O440 1.251 . S
C425 O441 1.251 . S
C426 Eu427 2.835 . S
C426 C428 1.500 . S
C426 O442 1.257 . S
C426 O443 1.260 . S
Eu427 C426 2.835 . S
Eu427 O439 2.355 . S
Eu427 O441 2.374 . S
Eu427 O442 2.473 . S
Eu427 O443 2.480 . S
Eu427 O444 2.430 . S
Eu427 O445 2.670 . S
Eu427 O446 2.394 . S
C428 C426 1.500 . S
C428 C429 1.377 . S
C428 C433 1.377 . S
C429 C428 1.377 . S
C429 C430 1.395 . S
C429 H452 0.931 . S
C430 C429 1.395 . S
C430 C431 1.383 . S
C430 H453 0.931 . S
C431 C430 1.383 . S
C431 C432 1.394 . S
C432 C431 1.394 . S
C432 C433 1.378 . S
C432 H454 0.931 . S
C433 C428 1.377 . S
C433 C432 1.378 . S
C433 H455 0.931 . S
C434 O444 1.259 . S
C434 O445 1.270 . S
C435 O446 1.251 . S
C435 O447 1.251 . S
O436 C416 1.257 . S
O436 Eu417 2.473 . S
O437 C416 1.260 . S
O437 Eu417 2.480 . S
O438 Eu417 2.430 . S
O438 C424 1.259 . S
O439 Eu417 2.670 . S
O439 C424 1.270 . S
O439 Eu427 2.355 . S
O440 Eu417 2.394 . S
O440 C425 1.251 . S
O441 C425 1.251 . S
O441 Eu427 2.374 . S
O442 C426 1.257 . S
O442 Eu427 2.473 . S
O443 C426 1.260 . S
O443 Eu427 2.480 . S
O444 Eu427 2.430 . S
O444 C434 1.259 . S
O445 Eu417 2.355 . S
O445 Eu427 2.670 . S
O445 C434 1.270 . S
O446 Eu427 2.394 . S
O446 C435 1.251 . S
O447 Eu417 2.374 . S
O447 C435 1.251 . S
H448 C419 0.931 . S
H449 C420 0.931 . S
H450 C422 0.931 . S
H451 C423 0.931 . S
H452 C429 0.931 . S
H453 C430 0.931 . S
H454 C432 0.931 . S
H455 C433 0.931 . S
C456 Eu457 2.835 . S
C456 C458 1.500 . S
C456 O476 1.257 . S
C456 O477 1.260 . S
Eu457 C456 2.835 . S
Eu457 O476 2.473 . S
Eu457 O477 2.480 . S
Eu457 O478 2.430 . S
Eu457 O479 2.670 . S
Eu457 O480 2.394 . S
Eu457 O485 2.355 . S
Eu457 O487 2.374 . S
C458 C456 1.500 . S
C458 C459 1.377 . S
C458 C463 1.377 . S
C459 C458 1.377 . S
C459 C460 1.395 . S
C459 H488 0.931 . S
C460 C459 1.395 . S
C460 C461 1.383 . S
C460 H489 0.931 . S
C461 C460 1.383 . S
C461 C462 1.394 . S
C462 C461 1.394 . S
C462 C463 1.378 . S
C462 H490 0.931 . S
C463 C458 1.377 . S
C463 C462 1.378 . S
C463 H491 0.931 . S
C464 O478 1.259 . S
C464 O479 1.270 . S
C465 O480 1.251 . S
C465 O481 1.251 . S
C466 Eu467 2.835 . S
C466 C468 1.500 . S
C466 O482 1.257 . S
C466 O483 1.260 . S
Eu467 C466 2.835 . S
Eu467 O479 2.355 . S
Eu467 O481 2.374 . S
Eu467 O482 2.473 . S
Eu467 O483 2.480 . S
Eu467 O484 2.430 . S
Eu467 O485 2.670 . S
Eu467 O486 2.394 . S
C468 C466 1.500 . S
C468 C469 1.377 . S
C468 C473 1.377 . S
C469 C468 1.377 . S
C469 C470 1.395 . S
C469 H492 0.931 . S
C470 C469 1.395 . S
C470 C471 1.383 . S
C470 H493 0.931 . S
C471 C470 1.383 . S
C471 C472 1.394 . S
C472 C471 1.394 . S
C472 C473 1.378 . S
C472 H494 0.931 . S
C473 C468 1.377 . S
C473 C472 1.378 . S
C473 H495 0.931 . S
C474 O484 1.259 . S
C474 O485 1.270 . S
C475 O486 1.251 . S
C475 O487 1.251 . S
O476 C456 1.257 . S
O476 Eu457 2.473 . S
O477 C456 1.260 . S
O477 Eu457 2.480 . S
O478 Eu457 2.430 . S
O478 C464 1.259 . S
O479 Eu457 2.670 . S
O479 C464 1.270 . S
O479 Eu467 2.355 . S
O480 Eu457 2.394 . S
O480 C465 1.251 . S
O481 C465 1.251 . S
O481 Eu467 2.374 . S
O482 C466 1.257 . S
O482 Eu467 2.473 . S
O483 C466 1.260 . S
O483 Eu467 2.480 . S
O484 Eu467 2.430 . S
O484 C474 1.259 . S
O485 Eu457 2.355 . S
O485 Eu467 2.670 . S
O485 C474 1.270 . S
O486 Eu467 2.394 . S
O486 C475 1.251 . S
O487 Eu457 2.374 . S
O487 C475 1.251 . S
H488 C459 0.931 . S
H489 C460 0.931 . S
H490 C462 0.931 . S
H491 C463 0.931 . S
H492 C469 0.931 . S
H493 C470 0.931 . S
H494 C472 0.931 . S
H495 C473 0.931 . S
C496 Eu497 2.835 . S
C496 C498 1.500 . S
C496 O516 1.257 . S
C496 O517 1.260 . S
Eu497 C496 2.835 . S
Eu497 O516 2.473 . S
Eu497 O517 2.480 . S
Eu497 O518 2.430 . S
Eu497 O519 2.670 . S
Eu497 O520 2.394 . S
Eu497 O525 2.355 . S
Eu497 O527 2.374 . S
C498 C496 1.500 . S
C498 C499 1.377 . S
C498 C503 1.377 . S
C499 C498 1.377 . S
C499 C500 1.395 . S
C499 H528 0.931 . S
C500 C499 1.395 . S
C500 C501 1.383 . S
C500 H529 0.931 . S
C501 C500 1.383 . S
C501 C502 1.394 . S
C502 C501 1.394 . S
C502 C503 1.378 . S
C502 H530 0.931 . S
C503 C498 1.377 . S
C503 C502 1.378 . S
C503 H531 0.931 . S
C504 O518 1.259 . S
C504 O519 1.270 . S
C505 O520 1.251 . S
C505 O521 1.251 . S
C506 Eu507 2.835 . S
C506 C508 1.500 . S
C506 O522 1.257 . S
C506 O523 1.260 . S
Eu507 C506 2.835 . S
Eu507 O519 2.355 . S
Eu507 O521 2.374 . S
Eu507 O522 2.473 . S
Eu507 O523 2.480 . S
Eu507 O524 2.430 . S
Eu507 O525 2.670 . S
Eu507 O526 2.394 . S
C508 C506 1.500 . S
C508 C509 1.377 . S
C508 C513 1.377 . S
C509 C508 1.377 . S
C509 C510 1.395 . S
C509 H532 0.931 . S
C510 C509 1.395 . S
C510 C511 1.383 . S
C510 H533 0.931 . S
C511 C510 1.383 . S
C511 C512 1.394 . S
C512 C511 1.394 . S
C512 C513 1.378 . S
C512 H534 0.931 . S
C513 C508 1.377 . S
C513 C512 1.378 . S
C513 H535 0.931 . S
C514 O524 1.259 . S
C514 O525 1.270 . S
C515 O526 1.251 . S
C515 O527 1.251 . S
O516 C496 1.257 . S
O516 Eu497 2.473 . S
O517 C496 1.260 . S
O517 Eu497 2.480 . S
O518 Eu497 2.430 . S
O518 C504 1.259 . S
O519 Eu497 2.670 . S
O519 C504 1.270 . S
O519 Eu507 2.355 . S
O520 Eu497 2.394 . S
O520 C505 1.251 . S
O521 C505 1.251 . S
O521 Eu507 2.374 . S
O522 C506 1.257 . S
O522 Eu507 2.473 . S
O523 C506 1.260 . S
O523 Eu507 2.480 . S
O524 Eu507 2.430 . S
O524 C514 1.259 . S
O525 Eu497 2.355 . S
O525 Eu507 2.670 . S
O525 C514 1.270 . S
O526 Eu507 2.394 . S
O526 C515 1.251 . S
O527 Eu497 2.374 . S
O527 C515 1.251 . S
H528 C499 0.931 . S
H529 C500 0.931 . S
H530 C502 0.931 . S
H531 C503 0.931 . S
H532 C509 0.931 . S
H533 C510 0.931 . S
H534 C512 0.931 . S
H535 C513 0.931 . S
C536 Eu537 2.835 . S
C536 C538 1.500 . S
C536 O556 1.257 . S
C536 O557 1.260 . S
Eu537 C536 2.835 . S
Eu537 O556 2.473 . S
Eu537 O557 2.480 . S
Eu537 O558 2.430 . S
Eu537 O559 2.670 . S
Eu537 O560 2.394 . S
Eu537 O565 2.355 . S
Eu537 O567 2.374 . S
C538 C536 1.500 . S
C538 C539 1.377 . S
C538 C543 1.377 . S
C539 C538 1.377 . S
C539 C540 1.395 . S
C539 H568 0.931 . S
C540 C539 1.395 . S
C540 C541 1.383 . S
C540 H569 0.931 . S
C541 C540 1.383 . S
C541 C542 1.394 . S
C542 C541 1.394 . S
C542 C543 1.378 . S
C542 H570 0.931 . S
C543 C538 1.377 . S
C543 C542 1.378 . S
C543 H571 0.931 . S
C544 O558 1.259 . S
C544 O559 1.270 . S
C545 O560 1.251 . S
C545 O561 1.251 . S
C546 Eu547 2.835 . S
C546 C548 1.500 . S
C546 O562 1.257 . S
C546 O563 1.260 . S
Eu547 C546 2.835 . S
Eu547 O559 2.355 . S
Eu547 O561 2.374 . S
Eu547 O562 2.473 . S
Eu547 O563 2.480 . S
Eu547 O564 2.430 . S
Eu547 O565 2.670 . S
Eu547 O566 2.394 . S
C548 C546 1.500 . S
C548 C549 1.377 . S
C548 C553 1.377 . S
C549 C548 1.377 . S
C549 C550 1.395 . S
C549 H572 0.931 . S
C550 C549 1.395 . S
C550 C551 1.383 . S
C550 H573 0.931 . S
C551 C550 1.383 . S
C551 C552 1.394 . S
C552 C551 1.394 . S
C552 C553 1.378 . S
C552 H574 0.931 . S
C553 C548 1.377 . S
C553 C552 1.378 . S
C553 H575 0.931 . S
C554 O564 1.259 . S
C554 O565 1.270 . S
C555 O566 1.251 . S
C555 O567 1.251 . S
O556 C536 1.257 . S
O556 Eu537 2.473 . S
O557 C536 1.260 . S
O557 Eu537 2.480 . S
O558 Eu537 2.430 . S
O558 C544 1.259 . S
O559 Eu537 2.670 . S
O559 C544 1.270 . S
O559 Eu547 2.355 . S
O560 Eu537 2.394 . S
O560 C545 1.251 . S
O561 C545 1.251 . S
O561 Eu547 2.374 . S
O562 C546 1.257 . S
O562 Eu547 2.473 . S
O563 C546 1.260 . S
O563 Eu547 2.480 . S
O564 Eu547 2.430 . S
O564 C554 1.259 . S
O565 Eu537 2.355 . S
O565 Eu547 2.670 . S
O565 C554 1.270 . S
O566 Eu547 2.394 . S
O566 C555 1.251 . S
O567 Eu537 2.374 . S
O567 C555 1.251 . S
H568 C539 0.931 . S
H569 C540 0.931 . S
H570 C542 0.931 . S
H571 C543 0.931 . S
H572 C549 0.931 . S
H573 C550 0.931 . S
H574 C552 0.931 . S
H575 C553 0.931 . S
H576 C588 0.930 . S
H577 C590 0.930 . S
H578 C591 0.930 . S
H579 C595 0.959 . S
H580 C595 0.959 . S
H581 C595 0.961 . S
H582 C596 0.960 . S
H583 C596 0.914 1_556 S
H584 C596 0.959 . S
H585 C599 0.929 . S
H586 C600 0.931 . S
H587 C602 0.954 . S
C588 H576 0.930 . S
C588 C589 1.399 . S
C588 C593 1.399 . S
C589 C588 1.399 . S
C589 C590 1.376 . S
C590 H577 0.930 . S
C590 C589 1.376 . S
C590 C591 1.388 . S
C591 H578 0.930 . S
C591 C590 1.388 . S
C591 C592 1.390 . S
C592 C591 1.390 . S
C592 C593 1.394 . S
C592 C598 1.465 . S
C593 C588 1.399 . S
C593 C592 1.394 . S
C593 C594 1.516 . S
C594 C593 1.516 . S
C594 C595 1.502 1_554 S
C594 C596 1.561 . S
C594 C597 1.526 . S
C595 H579 0.959 . S
C595 H580 0.959 . S
C595 H581 0.961 . S
C595 C594 1.502 1_556 S
C596 H582 0.960 . S
C596 H583 0.914 1_554 S
C596 H584 0.959 . S
C596 C594 1.561 . S
C597 C594 1.526 . S
C597 C598 1.396 . S
C597 C602 1.390 . S
C598 C592 1.465 . S
C598 C597 1.396 . S
C598 C599 1.399 . S
C599 H585 0.929 . S
C599 C598 1.399 . S
C599 C600 1.385 . S
C600 H586 0.931 . S
C600 C599 1.385 . S
C600 C601 1.389 . S
C601 C600 1.389 . S
C601 C602 1.387 . S
C602 H587 0.954 . S
C602 C597 1.390 . S
C602 C601 1.387 . S
H603 C615 0.930 . S
H604 C617 0.930 . S
H605 C618 0.930 . S
H606 C622 0.959 . S
H607 C622 0.959 . S
H608 C622 0.961 . S
H609 C623 0.960 . S
H610 C623 0.961 . S
H611 C623 0.959 . S
H612 C626 0.929 . S
H613 C627 0.931 . S
H614 C629 0.930 . S
C615 H603 0.930 . S
C615 C616 1.399 . S
C615 C620 1.399 . S
C616 C615 1.399 . S
C616 C617 1.376 . S
C617 H604 0.930 . S
C617 C616 1.376 . S
C617 C618 1.388 . S
C618 H605 0.930 . S
C618 C617 1.388 . S
C618 C619 1.390 . S
C619 C618 1.390 . S
C619 C620 1.394 . S
C619 C625 1.465 . S
C620 C615 1.399 . S
C620 C619 1.394 . S
C620 C621 1.516 . S
C621 C620 1.516 . S
C621 C622 1.502 . S
C621 C623 1.561 . S
C621 C624 1.526 . S
C622 H606 0.959 . S
C622 H607 0.959 . S
C622 H608 0.961 . S
C622 C621 1.502 . S
C623 H609 0.960 . S
C623 H610 0.961 . S
C623 H611 0.959 . S
C623 C621 1.561 . S
C624 C621 1.526 . S
C624 C625 1.396 . S
C624 C629 1.390 . S
C625 C619 1.465 . S
C625 C624 1.396 . S
C625 C626 1.399 . S
C626 H612 0.929 . S
C626 C625 1.399 . S
C626 C627 1.385 . S
C627 H613 0.931 . S
C627 C626 1.385 . S
C627 C628 1.389 . S
C628 C627 1.389 . S
C628 C629 1.387 . S
C629 H614 0.930 . S
C629 C624 1.390 . S
C629 C628 1.387 . S
H630 C642 0.930 . S
H631 C644 0.930 . S
H632 C645 0.930 . S
H633 C649 0.959 . S
H634 C649 0.959 . S
H635 C649 0.961 . S
H636 C650 0.960 1_556 S
H637 C650 0.961 1_556 S
H638 C650 0.959 . S
H639 C653 0.929 . S
H640 C654 0.931 . S
H641 C656 0.930 1_556 S
C642 H630 0.930 . S
C642 C643 1.399 . S
C642 C647 1.399 . S
C643 C642 1.399 . S
C643 C644 1.376 . S
C644 H631 0.930 . S
C644 C643 1.376 . S
C644 C645 1.388 . S
C645 H632 0.930 . S
C645 C644 1.388 . S
C645 C646 1.390 . S
C646 C645 1.390 . S
C646 C647 1.394 . S
C646 C652 1.465 . S
C647 C642 1.399 . S
C647 C646 1.394 . S
C647 C648 1.516 . S
C648 C647 1.516 . S
C648 C649 1.502 1_554 S
C648 C650 1.561 . S
C648 C651 1.526 . S
C649 H633 0.959 . S
C649 H634 0.959 . S
C649 H635 0.961 . S
C649 C648 1.502 1_556 S
C650 H636 0.960 1_554 S
C650 H637 0.961 1_554 S
C650 H638 0.959 . S
C650 C648 1.561 . S
C651 C648 1.526 . S
C651 C652 1.396 . S
C651 C656 1.390 . S
C652 C646 1.465 . S
C652 C651 1.396 . S
C652 C653 1.399 . S
C653 H639 0.929 . S
C653 C652 1.399 . S
C653 C654 1.385 . S
C654 H640 0.931 . S
C654 C653 1.385 . S
C654 C655 1.389 . S
C655 C654 1.389 . S
C655 C656 1.387 . S
C656 H641 0.930 1_554 S
C656 C651 1.390 . S
C656 C655 1.387 . S
H657 C669 0.930 . S
H658 C671 0.930 . S
H659 C672 0.889 1_554 S
H660 C676 0.959 . S
H661 C676 0.959 . S
H662 C676 0.961 . S
H663 C677 0.960 . S
H664 C677 0.961 . S
H665 C677 0.959 . S
H666 C680 0.929 . S
H667 C681 0.931 . S
H668 C683 0.930 . S
C669 H657 0.930 . S
C669 C670 1.399 . S
C669 C674 1.399 . S
C670 C669 1.399 . S
C670 C671 1.376 . S
C671 H658 0.930 . S
C671 C670 1.376 . S
C671 C672 1.403 . S
C672 H659 0.889 1_556 S
C672 C671 1.403 . S
C672 C673 1.418 . S
C673 C672 1.418 . S
C673 C674 1.394 . S
C673 C679 1.465 . S
C674 C669 1.399 . S
C674 C673 1.394 . S
C674 C675 1.516 . S
C675 C674 1.516 . S
C675 C676 1.502 . S
C675 C677 1.561 . S
C675 C678 1.526 . S
C676 H660 0.959 . S
C676 H661 0.959 . S
C676 H662 0.961 . S
C676 C675 1.502 . S
C677 H663 0.960 . S
C677 H664 0.961 . S
C677 H665 0.959 . S
C677 C675 1.561 . S
C678 C675 1.526 . S
C678 C679 1.396 . S
C678 C683 1.390 . S
C679 C673 1.465 . S
C679 C678 1.396 . S
C679 C680 1.399 1_556 S
C680 H666 0.929 . S
C680 C679 1.399 1_554 S
C680 C681 1.385 . S
C681 H667 0.931 . S
C681 C680 1.385 . S
C681 C682 1.389 1_554 S
C682 C681 1.389 1_556 S
C682 C683 1.387 . S
C683 H668 0.930 . S
C683 C678 1.390 . S
C683 C682 1.387 . S
H684 C696 0.930 . S
H685 C698 0.930 . S
H686 C699 0.930 . S
H687 C703 0.959 . S
H688 C703 0.959 . S
H689 C703 0.961 . S
H690 C704 0.960 . S
H691 C704 0.961 . S
H692 C704 0.959 . S
H693 C707 0.929 1_554 S
H694 C708 0.931 . S
H695 C710 0.930 . S
C696 H684 0.930 . S
C696 C697 1.399 . S
C696 C701 1.399 . S
C697 C696 1.399 . S
C697 C698 1.376 . S
C698 H685 0.930 . S
C698 C697 1.376 . S
C698 C699 1.388 . S
C699 H686 0.930 . S
C699 C698 1.388 . S
C699 C700 1.390 . S
C700 C699 1.390 . S
C700 C701 1.394 . S
C700 C706 1.465 . S
C701 C696 1.399 . S
C701 C700 1.394 . S
C701 C702 1.516 . S
C702 C701 1.516 . S
C702 C703 1.502 . S
C702 C704 1.561 . S
C702 C705 1.526 . S
C703 H687 0.959 . S
C703 H688 0.959 . S
C703 H689 0.961 . S
C703 C702 1.502 . S
C704 H690 0.960 . S
C704 H691 0.961 . S
C704 H692 0.959 . S
C704 C702 1.561 . S
C705 C702 1.526 . S
C705 C706 1.396 . S
C705 C710 1.390 . S
C706 C700 1.465 . S
C706 C705 1.396 . S
C706 C707 1.399 . S
C707 H693 0.929 1_556 S
C707 C706 1.399 . S
C707 C708 1.385 1_556 S
C708 H694 0.931 . S
C708 C707 1.385 1_554 S
C708 C709 1.389 1_554 S
C709 C708 1.389 1_556 S
C709 C710 1.387 . S
C710 H695 0.930 . S
C710 C705 1.390 . S
C710 C709 1.387 . S
H711 C723 0.930 . S
H712 C725 0.930 . S
H713 C726 0.930 1_554 S
H714 C730 0.959 . S
H715 C730 0.959 . S
H716 C730 0.961 . S
H717 C731 0.960 . S
H718 C731 0.961 . S
H719 C731 0.959 . S
H720 C734 0.929 . S
H721 C735 0.931 . S
H722 C737 0.930 . S
C723 H711 0.930 . S
C723 C724 1.399 . S
C723 C728 1.399 . S
C724 C723 1.399 . S
C724 C725 1.376 . S
C725 H712 0.930 . S
C725 C724 1.376 . S
C725 C726 1.388 . S
C726 H713 0.930 1_556 S
C726 C725 1.388 . S
C726 C727 1.390 . S
C727 C726 1.390 . S
C727 C728 1.394 . S
C727 C733 1.465 . S
C728 C723 1.399 . S
C728 C727 1.394 . S
C728 C729 1.516 . S
C729 C728 1.516 . S
C729 C730 1.502 . S
C729 C731 1.561 . S
C729 C732 1.526 . S
C730 H714 0.959 . S
C730 H715 0.959 . S
C730 H716 0.961 . S
C730 C729 1.502 . S
C731 H717 0.960 . S
C731 H718 0.961 . S
C731 H719 0.959 . S
C731 C729 1.561 . S
C732 C729 1.526 . S
C732 C733 1.396 . S
C732 C737 1.390 . S
C733 C727 1.465 . S
C733 C732 1.396 . S
C733 C734 1.399 1_556 S
C734 H720 0.929 . S
C734 C733 1.399 1_554 S
C734 C735 1.385 . S
C735 H721 0.931 . S
C735 C734 1.385 . S
C735 C736 1.393 . S
C736 C735 1.393 . S
C736 C737 1.380 1_554 S
C737 H722 0.930 . S
C737 C732 1.390 . S
C737 C736 1.380 1_556 S
H738 C750 0.930 . S
H739 C752 0.930 1_554 S
H740 C753 0.930 . S
H741 C757 0.959 . S
H742 C757 0.959 . S
H743 C757 0.961 . S
H744 C758 0.960 . S
H745 C758 0.961 . S
H746 C758 0.959 . S
H747 C761 0.929 . S
H748 C762 0.931 . S
H749 C764 0.930 . S
C750 H738 0.930 . S
C750 C751 1.399 . S
C750 C755 1.399 . S
C751 C750 1.399 . S
C751 C752 1.376 . S
C752 H739 0.930 1_556 S
C752 C751 1.376 . S
C752 C753 1.388 1_556 S
C753 H740 0.930 . S
C753 C752 1.388 1_554 S
C753 C754 1.390 1_554 S
C754 C753 1.390 1_556 S
C754 C755 1.394 . S
C754 C760 1.465 . S
C755 C750 1.399 . S
C755 C754 1.394 . S
C755 C756 1.516 . S
C756 C755 1.516 . S
C756 C757 1.502 . S
C756 C758 1.561 . S
C756 C759 1.526 . S
C757 H741 0.959 . S
C757 H742 0.959 . S
C757 H743 0.961 . S
C757 C756 1.502 . S
C758 H744 0.960 . S
C758 H745 0.961 . S
C758 H746 0.959 . S
C758 C756 1.561 . S
C759 C756 1.526 . S
C759 C760 1.396 . S
C759 C764 1.390 . S
C760 C754 1.465 . S
C760 C759 1.396 . S
C760 C761 1.399 1_556 S
C761 H747 0.929 . S
C761 C760 1.399 1_554 S
C761 C762 1.385 . S
C762 H748 0.931 . S
C762 C761 1.385 . S
C762 C763 1.389 1_554 S
C763 C762 1.389 1_556 S
C763 C764 1.387 . S
C764 H749 0.930 . S
C764 C759 1.390 . S
C764 C763 1.387 . S
H765 C777 0.930 . S
H766 C779 0.930 . S
H767 C780 0.930 1_554 S
H768 C784 0.959 . S
H769 C784 0.959 . S
H770 C784 0.961 . S
H771 C785 0.960 . S
H772 C785 0.961 . S
H773 C785 0.959 . S
H774 C788 0.944 . S
H775 C789 0.958 . S
H776 C791 0.930 . S
C777 H765 0.930 . S
C777 C778 1.399 . S
C777 C782 1.399 . S
C778 C777 1.399 . S
C778 C779 1.376 . S
C779 H766 0.930 . S
C779 C778 1.376 . S
C779 C780 1.388 . S
C780 H767 0.930 1_556 S
C780 C779 1.388 . S
C780 C781 1.390 . S
C781 C780 1.390 . S
C781 C782 1.394 . S
C781 C787 1.465 . S
C782 C777 1.399 . S
C782 C781 1.394 . S
C782 C783 1.516 . S
C783 C782 1.516 . S
C783 C784 1.502 . S
C783 C785 1.561 . S
C783 C786 1.526 . S
C784 H768 0.959 . S
C784 H769 0.959 . S
C784 H770 0.961 . S
C784 C783 1.502 . S
C785 H771 0.960 . S
C785 H772 0.961 . S
C785 H773 0.959 . S
C785 C783 1.561 . S
C786 C783 1.526 . S
C786 C787 1.396 . S
C786 C791 1.390 . S
C787 C781 1.465 . S
C787 C786 1.396 . S
C787 C788 1.384 1_556 S
C788 H774 0.944 . S
C788 C787 1.384 1_554 S
C788 C789 1.385 . S
C789 H775 0.958 . S
C789 C788 1.385 . S
C789 C790 1.363 1_554 S
C790 C789 1.363 1_556 S
C790 C791 1.387 . S
C791 H776 0.930 . S
C791 C786 1.390 . S
C791 C790 1.387 . S
H792 C804 0.930 . S
H793 C806 0.930 . S
H794 C807 0.930 . S
H795 C811 0.959 . S
H796 C811 0.959 . S
H797 C811 0.961 . S
H798 C812 0.960 . S
H799 C812 0.961 . S
H800 C812 0.959 . S
H801 C815 0.929 . S
H802 C816 0.931 . S
H803 C818 0.930 . S
C804 H792 0.930 . S
C804 C805 1.399 1_554 S
C804 C809 1.399 . S
C805 C804 1.399 1_556 S
C805 C806 1.376 . S
C806 H793 0.930 . S
C806 C805 1.376 . S
C806 C807 1.388 . S
C807 H794 0.930 . S
C807 C806 1.388 . S
C807 C808 1.390 . S
C808 C807 1.390 . S
C808 C809 1.394 1_556 S
C808 C814 1.465 . S
C809 C804 1.399 . S
C809 C808 1.394 1_554 S
C809 C810 1.516 . S
C810 C809 1.516 . S
C810 C811 1.502 . S
C810 C812 1.561 . S
C810 C813 1.526 . S
C811 H795 0.959 . S
C811 H796 0.959 . S
C811 H797 0.961 . S
C811 C810 1.502 . S
C812 H798 0.960 . S
C812 H799 0.961 . S
C812 H800 0.959 . S
C812 C810 1.561 . S
C813 C810 1.526 . S
C813 C814 1.396 1_554 S
C813 C818 1.390 . S
C814 C808 1.465 . S
C814 C813 1.396 1_556 S
C814 C815 1.399 . S
C815 H801 0.929 . S
C815 C814 1.399 . S
C815 C816 1.385 . S
C816 H802 0.931 . S
C816 C815 1.385 . S
C816 C817 1.366 1_556 S
C817 C816 1.366 1_554 S
C817 C818 1.407 . S
C818 H803 0.930 . S
C818 C813 1.390 . S
C818 C817 1.407 . S
H819 C831 0.930 . S
H820 C833 0.930 . S
H821 C834 0.930 . S
H822 C838 0.959 . S
H823 C838 0.959 1_556 S
H824 C838 0.961 1_556 S
H825 C839 0.960 . S
H826 C839 0.961 . S
H827 C839 0.959 . S
H828 C842 0.929 . S
H829 C843 0.931 . S
H830 C845 0.930 1_556 S
C831 H819 0.930 . S
C831 C832 1.399 . S
C831 C836 1.399 . S
C832 C831 1.399 . S
C832 C833 1.376 . S
C833 H820 0.930 . S
C833 C832 1.376 . S
C833 C834 1.388 . S
C834 H821 0.930 . S
C834 C833 1.388 . S
C834 C835 1.390 . S
C835 C834 1.390 . S
C835 C836 1.394 . S
C835 C841 1.465 . S
C836 C831 1.399 . S
C836 C835 1.394 . S
C836 C837 1.516 . S
C837 C836 1.516 . S
C837 C838 1.502 . S
C837 C839 1.561 1_554 S
C837 C840 1.526 . S
C838 H822 0.959 . S
C838 H823 0.959 1_554 S
C838 H824 0.961 1_554 S
C838 C837 1.502 . S
C839 H825 0.960 . S
C839 H826 0.961 . S
C839 H827 0.959 . S
C839 C837 1.561 1_556 S
C840 C837 1.526 . S
C840 C841 1.396 . S
C840 C845 1.390 . S
C841 C835 1.465 . S
C841 C840 1.396 . S
C841 C842 1.399 . S
C842 H828 0.929 . S
C842 C841 1.399 . S
C842 C843 1.385 . S
C843 H829 0.931 . S
C843 C842 1.385 . S
C843 C844 1.389 . S
C844 C843 1.389 . S
C844 C845 1.387 . S
C845 H830 0.930 1_554 S
C845 C840 1.390 . S
C845 C844 1.387 . S
H846 C858 0.930 . S
H847 C860 0.930 . S
H848 C861 0.930 . S
H849 C865 0.959 . S
H850 C865 0.959 . S
H851 C865 0.961 . S
H852 C866 0.960 . S
H853 C866 0.961 . S
H854 C866 0.959 . S
H855 C869 0.929 . S
H856 C870 0.931 . S
H857 C872 0.930 . S
C858 H846 0.930 . S
C858 C859 1.399 . S
C858 C863 1.399 . S
C859 C858 1.399 . S
C859 C860 1.376 . S
C860 H847 0.930 . S
C860 C859 1.376 . S
C860 C861 1.388 . S
C861 H848 0.930 . S
C861 C860 1.388 . S
C861 C862 1.390 . S
C862 C861 1.390 . S
C862 C863 1.394 . S
C862 C868 1.465 . S
C863 C858 1.399 . S
C863 C862 1.394 . S
C863 C864 1.516 . S
C864 C863 1.516 . S
C864 C865 1.502 . S
C864 C866 1.561 . S
C864 C867 1.526 . S
C865 H849 0.959 . S
C865 H850 0.959 . S
C865 H851 0.961 . S
C865 C864 1.502 . S
C866 H852 0.960 . S
C866 H853 0.961 . S
C866 H854 0.959 . S
C866 C864 1.561 . S
C867 C864 1.526 . S
C867 C868 1.396 . S
C867 C872 1.390 . S
C868 C862 1.465 . S
C868 C867 1.396 . S
C868 C869 1.399 . S
C869 H855 0.929 . S
C869 C868 1.399 . S
C869 C870 1.385 . S
C870 H856 0.931 . S
C870 C869 1.385 . S
C870 C871 1.389 . S
C871 C870 1.389 . S
C871 C872 1.387 . S
C872 H857 0.930 . S
C872 C867 1.390 . S
C872 C871 1.387 . S
H873 C885 0.930 . S
H874 C887 0.957 . S
H875 C888 0.930 1_556 S
H876 C892 0.959 . S
H877 C892 0.959 . S
H878 C892 0.961 . S
H879 C893 0.960 . S
H880 C893 0.961 . S
H881 C893 0.959 . S
H882 C896 0.929 . S
H883 C897 0.931 . S
H884 C899 0.930 . S
C885 H873 0.930 . S
C885 C886 1.399 . S
C885 C890 1.399 . S
C886 C885 1.399 . S
C886 C887 1.376 . S
C887 H874 0.957 . S
C887 C886 1.376 . S
C887 C888 1.388 . S
C888 H875 0.930 1_554 S
C888 C887 1.388 . S
C888 C889 1.390 . S
C889 C888 1.390 . S
C889 C890 1.394 . S
C889 C895 1.465 . S
C890 C885 1.399 . S
C890 C889 1.394 . S
C890 C891 1.516 . S
C891 C890 1.516 . S
C891 C892 1.502 . S
C891 C893 1.561 . S
C891 C894 1.526 . S
C892 H876 0.959 . S
C892 H877 0.959 . S
C892 H878 0.961 . S
C892 C891 1.502 . S
C893 H879 0.960 . S
C893 H880 0.961 . S
C893 H881 0.959 . S
C893 C891 1.561 . S
C894 C891 1.526 . S
C894 C895 1.396 . S
C894 C899 1.390 . S
C895 C889 1.465 . S
C895 C894 1.396 . S
C895 C896 1.399 1_554 S
C896 H882 0.929 . S
C896 C895 1.399 1_556 S
C896 C897 1.385 . S
C897 H883 0.931 . S
C897 C896 1.385 . S
C897 C898 1.389 1_556 S
C898 C897 1.389 1_554 S
C898 C899 1.387 . S
C899 H884 0.930 . S
C899 C894 1.390 . S
C899 C898 1.387 . S
H900 C912 0.930 . S
H901 C914 0.930 . S
H902 C915 0.930 . S
H903 C919 0.959 . S
H904 C919 0.959 . S
H905 C919 0.961 . S
H906 C920 0.960 1_655 S
H907 C920 0.961 . S
H908 C920 0.959 . S
H909 C923 0.929 . S
H910 C924 0.931 . S
H911 C926 0.930 . S
C912 H900 0.930 . S
C912 C913 1.399 . S
C912 C917 1.399 . S
C913 C912 1.399 . S
C913 C914 1.376 . S
C914 H901 0.930 . S
C914 C913 1.376 . S
C914 C915 1.388 . S
C915 H902 0.930 . S
C915 C914 1.388 . S
C915 C916 1.390 . S
C916 C915 1.390 . S
C916 C917 1.394 . S
C916 C922 1.465 1_655 S
C917 C912 1.399 . S
C917 C916 1.394 . S
C917 C918 1.516 . S
C918 C917 1.516 . S
C918 C919 1.502 . S
C918 C920 1.561 1_655 S
C918 C921 1.526 1_655 S
C919 H903 0.959 . S
C919 H904 0.959 . S
C919 H905 0.961 . S
C919 C918 1.502 . S
C920 H906 0.960 1_455 S
C920 H907 0.961 . S
C920 H908 0.959 . S
C920 C918 1.561 1_455 S
C921 C918 1.526 1_455 S
C921 C922 1.396 . S
C921 C926 1.390 . S
C922 C916 1.465 1_455 S
C922 C921 1.396 . S
C922 C923 1.399 . S
C923 H909 0.929 . S
C923 C922 1.399 . S
C923 C924 1.385 . S
C924 H910 0.931 . S
C924 C923 1.385 . S
C924 C925 1.389 . S
C925 C924 1.389 . S
C925 C926 1.387 . S
C926 H911 0.930 . S
C926 C921 1.390 . S
C926 C925 1.387 . S
H927 C939 0.930 . S
H928 C941 0.930 . S
H929 C942 0.930 . S
H930 C946 0.959 . S
H931 C946 0.959 . S
H932 C946 0.961 . S
H933 C947 0.960 . S
H934 C947 0.961 . S
H935 C947 0.959 . S
H936 C950 0.929 . S
H937 C951 0.931 . S
H938 C953 0.930 . S
C939 H927 0.930 . S
C939 C940 1.399 . S
C939 C944 1.399 . S
C940 C939 1.399 . S
C940 C941 1.376 . S
C941 H928 0.930 . S
C941 C940 1.376 . S
C941 C942 1.388 . S
C942 H929 0.930 . S
C942 C941 1.388 . S
C942 C943 1.390 . S
C943 C942 1.390 . S
C943 C944 1.394 . S
C943 C949 1.465 . S
C944 C939 1.399 . S
C944 C943 1.394 . S
C944 C945 1.516 . S
C945 C944 1.516 . S
C945 C946 1.502 . S
C945 C947 1.561 . S
C945 C948 1.526 . S
C946 H930 0.959 . S
C946 H931 0.959 . S
C946 H932 0.961 . S
C946 C945 1.502 . S
C947 H933 0.960 . S
C947 H934 0.961 . S
C947 H935 0.959 . S
C947 C945 1.561 . S
C948 C945 1.526 . S
C948 C949 1.396 . S
C948 C953 1.390 . S
C949 C943 1.465 . S
C949 C948 1.396 . S
C949 C950 1.399 . S
C950 H936 0.929 . S
C950 C949 1.399 . S
C950 C951 1.385 . S
C951 H937 0.931 . S
C951 C950 1.385 . S
C951 C952 1.389 . S
C952 C951 1.389 . S
C952 C953 1.387 . S
C953 H938 0.930 . S
C953 C948 1.390 . S
C953 C952 1.387 . S
H954 C966 0.930 . S
H955 C968 0.930 . S
H956 C969 0.930 . S
H957 C973 0.959 . S
H958 C973 0.959 1_565 S
H959 C973 0.961 . S
H960 C974 0.960 . S
H961 C974 0.961 . S
H962 C974 0.959 . S
H963 C977 0.929 1_545 S
H964 C978 0.931 . S
H965 C980 0.930 . S
C966 H954 0.930 . S
C966 C967 1.399 . S
C966 C971 1.399 . S
C967 C966 1.399 . S
C967 C968 1.376 . S
C968 H955 0.930 . S
C968 C967 1.376 . S
C968 C969 1.388 . S
C969 H956 0.930 . S
C969 C968 1.388 . S
C969 C970 1.390 . S
C970 C969 1.390 . S
C970 C971 1.394 . S
C970 C976 1.465 . S
C971 C966 1.399 . S
C971 C970 1.394 . S
C971 C972 1.516 . S
C972 C971 1.516 . S
C972 C973 1.502 . S
C972 C974 1.561 . S
C972 C975 1.526 1_545 S
C973 H957 0.959 . S
C973 H958 0.959 1_545 S
C973 H959 0.961 . S
C973 C972 1.502 . S
C974 H960 0.960 . S
C974 H961 0.961 . S
C974 H962 0.959 . S
C974 C972 1.561 . S
C975 C972 1.526 1_565 S
C975 C976 1.396 1_565 S
C975 C980 1.390 . S
C976 C970 1.465 . S
C976 C975 1.396 1_545 S
C976 C977 1.399 1_545 S
C977 H963 0.929 1_565 S
C977 C976 1.399 1_565 S
C977 C978 1.385 . S
C978 H964 0.931 . S
C978 C977 1.385 . S
C978 C979 1.389 . S
C979 C978 1.389 . S
C979 C980 1.387 . S
C980 H965 0.930 . S
C980 C975 1.390 . S
C980 C979 1.387 . S
H981 C993 0.930 . S
H982 C995 0.930 . S
H983 C996 0.930 . S
H984 C1000 0.959 . S
H985 C1000 0.959 . S
H986 C1000 0.961 . S
H987 C1001 0.960 . S
H988 C1001 0.961 . S
H989 C1001 0.959 . S
H990 C1004 0.929 . S
H991 C1005 0.931 . S
H992 C1007 0.930 . S
C993 H981 0.930 . S
C993 C994 1.399 . S
C993 C998 1.399 . S
C994 C993 1.399 . S
C994 C995 1.376 . S
C995 H982 0.930 . S
C995 C994 1.376 . S
C995 C996 1.388 . S
C996 H983 0.930 . S
C996 C995 1.388 . S
C996 C997 1.390 . S
C997 C996 1.390 . S
C997 C998 1.394 . S
C997 C1003 1.465 . S
C998 C993 1.399 . S
C998 C997 1.394 . S
C998 C999 1.516 . S
C999 C998 1.516 . S
C999 C1000 1.502 . S
C999 C1001 1.561 . S
C999 C1002 1.526 . S
C1000 H984 0.959 . S
C1000 H985 0.959 . S
C1000 H986 0.961 . S
C1000 C999 1.502 . S
C1001 H987 0.960 . S
C1001 H988 0.961 . S
C1001 H989 0.959 . S
C1001 C999 1.561 . S
C1002 C999 1.526 . S
C1002 C1003 1.396 . S
C1002 C1007 1.390 . S
C1003 C997 1.465 . S
C1003 C1002 1.396 . S
C1003 C1004 1.399 . S
C1004 H990 0.929 . S
C1004 C1003 1.399 . S
C1004 C1005 1.385 . S
C1005 H991 0.931 . S
C1005 C1004 1.385 . S
C1005 C1006 1.389 . S
C1006 C1005 1.389 . S
C1006 C1007 1.387 . S
C1007 H992 0.930 . S
C1007 C1002 1.390 . S
C1007 C1006 1.387 . S
H1008 C1020 0.930 . S
H1009 C1022 0.930 . S
H1010 C1023 0.930 . S
H1011 C1027 0.959 . S
H1012 C1027 0.959 . S
H1013 C1027 0.961 . S
H1014 C1028 0.960 . S
H1015 C1028 0.961 . S
H1016 C1028 0.959 . S
H1017 C1031 0.929 . S
H1018 C1032 0.931 . S
H1019 C1034 0.930 . S
C1020 H1008 0.930 . S
C1020 C1021 1.399 . S
C1020 C1025 1.399 . S
C1021 C1020 1.399 . S
C1021 C1022 1.376 . S
C1022 H1009 0.930 . S
C1022 C1021 1.376 . S
C1022 C1023 1.388 . S
C1023 H1010 0.930 . S
C1023 C1022 1.388 . S
C1023 C1024 1.390 . S
C1024 C1023 1.390 . S
C1024 C1025 1.394 . S
C1024 C1030 1.465 . S
C1025 C1020 1.399 . S
C1025 C1024 1.394 . S
C1025 C1026 1.516 . S
C1026 C1025 1.516 . S
C1026 C1027 1.502 . S
C1026 C1028 1.561 . S
C1026 C1029 1.526 . S
C1027 H1011 0.959 . S
C1027 H1012 0.959 . S
C1027 H1013 0.961 . S
C1027 C1026 1.502 . S
C1028 H1014 0.960 . S
C1028 H1015 0.961 . S
C1028 H1016 0.959 . S
C1028 C1026 1.561 . S
C1029 C1026 1.526 . S
C1029 C1030 1.396 . S
C1029 C1034 1.390 . S
C1030 C1024 1.465 . S
C1030 C1029 1.396 . S
C1030 C1031 1.399 . S
C1031 H1017 0.929 . S
C1031 C1030 1.399 . S
C1031 C1032 1.385 . S
C1032 H1018 0.931 . S
C1032 C1031 1.385 . S
C1032 C1033 1.389 . S
C1033 C1032 1.389 . S
C1033 C1034 1.387 . S
C1034 H1019 0.930 . S
C1034 C1029 1.390 . S
C1034 C1033 1.387 . S
H1035 C1047 0.930 . S
H1036 C1049 0.930 . S
H1037 C1050 0.930 . S
H1038 C1054 0.959 . S
H1039 C1054 0.959 . S
H1040 C1054 0.961 . S
H1041 C1055 0.960 . S
H1042 C1055 0.961 . S
H1043 C1055 0.959 . S
H1044 C1058 0.929 . S
H1045 C1059 0.931 . S
H1046 C1061 0.930 . S
C1047 H1035 0.930 . S
C1047 C1048 1.399 . S
C1047 C1052 1.399 . S
C1048 C1047 1.399 . S
C1048 C1049 1.376 . S
C1049 H1036 0.930 . S
C1049 C1048 1.376 . S
C1049 C1050 1.388 . S
C1050 H1037 0.930 . S
C1050 C1049 1.388 . S
C1050 C1051 1.390 . S
C1051 C1050 1.390 . S
C1051 C1052 1.394 . S
C1051 C1057 1.465 . S
C1052 C1047 1.399 . S
C1052 C1051 1.394 . S
C1052 C1053 1.516 . S
C1053 C1052 1.516 . S
C1053 C1054 1.502 . S
C1053 C1055 1.561 . S
C1053 C1056 1.526 . S
C1054 H1038 0.959 . S
C1054 H1039 0.959 . S
C1054 H1040 0.961 . S
C1054 C1053 1.502 . S
C1055 H1041 0.960 . S
C1055 H1042 0.961 . S
C1055 H1043 0.959 . S
C1055 C1053 1.561 . S
C1056 C1053 1.526 . S
C1056 C1057 1.396 . S
C1056 C1061 1.390 . S
C1057 C1051 1.465 . S
C1057 C1056 1.396 . S
C1057 C1058 1.399 . S
C1058 H1044 0.929 . S
C1058 C1057 1.399 . S
C1058 C1059 1.385 . S
C1059 H1045 0.931 . S
C1059 C1058 1.385 . S
C1059 C1060 1.389 . S
C1060 C1059 1.389 . S
C1060 C1061 1.387 . S
C1061 H1046 0.930 . S
C1061 C1056 1.390 . S
C1061 C1060 1.387 . S
H1062 C1074 0.930 . S
H1063 C1076 0.930 . S
H1064 C1077 0.930 . S
H1065 C1081 0.959 . S
H1066 C1081 0.959 . S
H1067 C1081 0.961 . S
H1068 C1082 0.960 . S
H1069 C1082 0.961 . S
H1070 C1082 0.959 . S
H1071 C1085 0.929 . S
H1072 C1086 0.931 . S
H1073 C1088 0.930 . S
C1074 H1062 0.930 . S
C1074 C1075 1.399 . S
C1074 C1079 1.399 . S
C1075 C1074 1.399 . S
C1075 C1076 1.376 . S
C1076 H1063 0.930 . S
C1076 C1075 1.376 . S
C1076 C1077 1.388 . S
C1077 H1064 0.930 . S
C1077 C1076 1.388 . S
C1077 C1078 1.390 . S
C1078 C1077 1.390 . S
C1078 C1079 1.394 . S
C1078 C1084 1.465 . S
C1079 C1074 1.399 . S
C1079 C1078 1.394 . S
C1079 C1080 1.516 . S
C1080 C1079 1.516 . S
C1080 C1081 1.502 . S
C1080 C1082 1.561 . S
C1080 C1083 1.526 . S
C1081 H1065 0.959 . S
C1081 H1066 0.959 . S
C1081 H1067 0.961 . S
C1081 C1080 1.502 . S
C1082 H1068 0.960 . S
C1082 H1069 0.961 . S
C1082 H1070 0.959 . S
C1082 C1080 1.561 . S
C1083 C1080 1.526 . S
C1083 C1084 1.396 . S
C1083 C1088 1.390 . S
C1084 C1078 1.465 . S
C1084 C1083 1.396 . S
C1084 C1085 1.399 . S
C1085 H1071 0.929 . S
C1085 C1084 1.399 . S
C1085 C1086 1.385 . S
C1086 H1072 0.931 . S
C1086 C1085 1.385 . S
C1086 C1087 1.389 . S
C1087 C1086 1.389 . S
C1087 C1088 1.387 . S
C1088 H1073 0.930 . S
C1088 C1083 1.390 . S
C1088 C1087 1.387 . S
H1089 C1101 0.930 . S
H1090 C1103 0.930 . S
H1091 C1104 0.930 . S
H1092 C1108 0.959 . S
H1093 C1108 0.959 . S
H1094 C1108 0.961 . S
H1095 C1109 0.960 . S
H1096 C1109 0.961 . S
H1097 C1109 0.959 . S
H1098 C1112 0.929 . S
H1099 C1113 0.931 . S
H1100 C1115 0.930 . S
C1101 H1089 0.930 . S
C1101 C1102 1.399 . S
C1101 C1106 1.399 . S
C1102 C1101 1.399 . S
C1102 C1103 1.376 . S
C1103 H1090 0.930 . S
C1103 C1102 1.376 . S
C1103 C1104 1.388 . S
C1104 H1091 0.930 . S
C1104 C1103 1.388 . S
C1104 C1105 1.390 . S
C1105 C1104 1.390 . S
C1105 C1106 1.394 . S
C1105 C1111 1.465 . S
C1106 C1101 1.399 . S
C1106 C1105 1.394 . S
C1106 C1107 1.516 . S
C1107 C1106 1.516 . S
C1107 C1108 1.502 . S
C1107 C1109 1.561 . S
C1107 C1110 1.526 . S
C1108 H1092 0.959 . S
C1108 H1093 0.959 . S
C1108 H1094 0.961 . S
C1108 C1107 1.502 . S
C1109 H1095 0.960 . S
C1109 H1096 0.961 . S
C1109 H1097 0.959 . S
C1109 C1107 1.561 . S
C1110 C1107 1.526 . S
C1110 C1111 1.396 . S
C1110 C1115 1.390 . S
C1111 C1105 1.465 . S
C1111 C1110 1.396 . S
C1111 C1112 1.399 . S
C1112 H1098 0.929 . S
C1112 C1111 1.399 . S
C1112 C1113 1.385 . S
C1113 H1099 0.931 . S
C1113 C1112 1.385 . S
C1113 C1114 1.389 . S
C1114 C1113 1.389 . S
C1114 C1115 1.387 . S
C1115 H1100 0.930 . S
C1115 C1110 1.390 . S
C1115 C1114 1.387 . S
H1116 C1128 0.930 . S
H1117 C1130 0.930 . S
H1118 C1131 0.930 . S
H1119 C1135 0.959 . S
H1120 C1135 0.959 . S
H1121 C1135 0.961 . S
H1122 C1136 0.960 . S
H1123 C1136 0.961 . S
H1124 C1136 0.959 . S
H1125 C1139 0.929 . S
H1126 C1140 0.931 . S
H1127 C1142 0.930 . S
C1128 H1116 0.930 . S
C1128 C1129 1.399 . S
C1128 C1133 1.399 . S
C1129 C1128 1.399 . S
C1129 C1130 1.376 . S
C1130 H1117 0.930 . S
C1130 C1129 1.376 . S
C1130 C1131 1.388 . S
C1131 H1118 0.930 . S
C1131 C1130 1.388 . S
C1131 C1132 1.390 . S
C1132 C1131 1.390 . S
C1132 C1133 1.394 . S
C1132 C1138 1.465 . S
C1133 C1128 1.399 . S
C1133 C1132 1.394 . S
C1133 C1134 1.516 . S
C1134 C1133 1.516 . S
C1134 C1135 1.502 . S
C1134 C1136 1.561 . S
C1134 C1137 1.526 . S
C1135 H1119 0.959 . S
C1135 H1120 0.959 . S
C1135 H1121 0.961 . S
C1135 C1134 1.502 . S
C1136 H1122 0.960 . S
C1136 H1123 0.961 . S
C1136 H1124 0.959 . S
C1136 C1134 1.561 . S
C1137 C1134 1.526 . S
C1137 C1138 1.396 . S
C1137 C1142 1.390 . S
C1138 C1132 1.465 . S
C1138 C1137 1.396 . S
C1138 C1139 1.399 . S
C1139 H1125 0.929 . S
C1139 C1138 1.399 . S
C1139 C1140 1.385 . S
C1140 H1126 0.931 . S
C1140 C1139 1.385 . S
C1140 C1141 1.389 . S
C1141 C1140 1.389 . S
C1141 C1142 1.387 . S
C1142 H1127 0.930 . S
C1142 C1137 1.390 . S
C1142 C1141 1.387 . S
H1143 C1155 0.930 . S
H1144 C1157 0.930 . S
H1145 C1158 0.930 . S
H1146 C1162 0.959 . S
H1147 C1162 0.959 . S
H1148 C1162 0.961 . S
H1149 C1163 0.960 . S
H1150 C1163 0.961 . S
H1151 C1163 0.959 . S
H1152 C1166 0.929 . S
H1153 C1167 0.931 . S
H1154 C1169 0.930 . S
C1155 H1143 0.930 . S
C1155 C1156 1.399 . S
C1155 C1160 1.399 1_545 S
C1156 C1155 1.399 . S
C1156 C1157 1.376 . S
C1157 H1144 0.930 . S
C1157 C1156 1.376 . S
C1157 C1158 1.388 1_545 S
C1158 H1145 0.930 . S
C1158 C1157 1.388 1_565 S
C1158 C1159 1.390 . S
C1159 C1158 1.390 . S
C1159 C1160 1.394 . S
C1159 C1165 1.465 . S
C1160 C1155 1.399 1_565 S
C1160 C1159 1.394 . S
C1160 C1161 1.516 . S
C1161 C1160 1.516 . S
C1161 C1162 1.502 . S
C1161 C1163 1.561 . S
C1161 C1164 1.526 . S
C1162 H1146 0.959 . S
C1162 H1147 0.959 . S
C1162 H1148 0.961 . S
C1162 C1161 1.502 . S
C1163 H1149 0.960 . S
C1163 H1150 0.961 . S
C1163 H1151 0.959 . S
C1163 C1161 1.561 . S
C1164 C1161 1.526 . S
C1164 C1165 1.396 . S
C1164 C1169 1.390 . S
C1165 C1159 1.465 . S
C1165 C1164 1.396 . S
C1165 C1166 1.399 . S
C1166 H1152 0.929 . S
C1166 C1165 1.399 . S
C1166 C1167 1.385 . S
C1167 H1153 0.931 . S
C1167 C1166 1.385 . S
C1167 C1168 1.389 . S
C1168 C1167 1.389 . S
C1168 C1169 1.387 . S
C1169 H1154 0.930 . S
C1169 C1164 1.390 . S
C1169 C1168 1.387 . S
H1170 C1182 0.930 1_655 S
H1171 C1184 0.930 . S
H1172 C1185 0.930 . S
H1173 C1189 0.959 . S
H1174 C1189 0.959 . S
H1175 C1189 0.961 . S
H1176 C1190 0.960 . S
H1177 C1190 0.961 . S
H1178 C1190 0.959 . S
H1179 C1193 0.929 . S
H1180 C1194 0.931 . S
H1181 C1196 0.930 . S
C1182 H1170 0.930 1_455 S
C1182 C1183 1.399 1_455 S
C1182 C1187 1.399 . S
C1183 C1182 1.399 1_655 S
C1183 C1184 1.376 . S
C1184 H1171 0.930 . S
C1184 C1183 1.376 . S
C1184 C1185 1.388 1_655 S
C1185 H1172 0.930 . S
C1185 C1184 1.388 1_455 S
C1185 C1186 1.390 . S
C1186 C1185 1.390 . S
C1186 C1187 1.394 . S
C1186 C1192 1.465 . S
C1187 C1182 1.399 . S
C1187 C1186 1.394 . S
C1187 C1188 1.516 . S
C1188 C1187 1.516 . S
C1188 C1189 1.502 . S
C1188 C1190 1.561 . S
C1188 C1191 1.526 . S
C1189 H1173 0.959 . S
C1189 H1174 0.959 . S
C1189 H1175 0.961 . S
C1189 C1188 1.502 . S
C1190 H1176 0.960 . S
C1190 H1177 0.961 . S
C1190 H1178 0.959 . S
C1190 C1188 1.561 . S
C1191 C1188 1.526 . S
C1191 C1192 1.396 . S
C1191 C1196 1.390 . S
C1192 C1186 1.465 . S
C1192 C1191 1.396 . S
C1192 C1193 1.399 . S
C1193 H1179 0.929 . S
C1193 C1192 1.399 . S
C1193 C1194 1.385 . S
C1194 H1180 0.931 . S
C1194 C1193 1.385 . S
C1194 C1195 1.389 . S
C1195 C1194 1.389 . S
C1195 C1196 1.387 . S
C1196 H1181 0.930 . S
C1196 C1191 1.390 . S
C1196 C1195 1.387 . S
H1197 C1209 0.930 . S
H1198 C1211 0.930 . S
H1199 C1212 0.930 . S
H1200 C1216 0.959 . S
H1201 C1216 0.959 . S
H1202 C1216 0.961 . S
H1203 C1217 0.960 . S
H1204 C1217 0.961 . S
H1205 C1217 0.959 . S
H1206 C1220 0.929 . S
H1207 C1221 0.931 . S
H1208 C1223 0.930 . S
C1209 H1197 0.930 . S
C1209 C1210 1.399 . S
C1209 C1214 1.399 . S
C1210 C1209 1.399 . S
C1210 C1211 1.376 . S
C1211 H1198 0.930 . S
C1211 C1210 1.376 . S
C1211 C1212 1.388 . S
C1212 H1199 0.930 . S
C1212 C1211 1.388 . S
C1212 C1213 1.390 . S
C1213 C1212 1.390 . S
C1213 C1214 1.394 . S
C1213 C1219 1.465 . S
C1214 C1209 1.399 . S
C1214 C1213 1.394 . S
C1214 C1215 1.516 . S
C1215 C1214 1.516 . S
C1215 C1216 1.502 . S
C1215 C1217 1.561 . S
C1215 C1218 1.526 . S
C1216 H1200 0.959 . S
C1216 H1201 0.959 . S
C1216 H1202 0.961 . S
C1216 C1215 1.502 . S
C1217 H1203 0.960 . S
C1217 H1204 0.961 . S
C1217 H1205 0.959 . S
C1217 C1215 1.561 . S
C1218 C1215 1.526 . S
C1218 C1219 1.396 . S
C1218 C1223 1.390 . S
C1219 C1213 1.465 . S
C1219 C1218 1.396 . S
C1219 C1220 1.399 . S
C1220 H1206 0.929 . S
C1220 C1219 1.399 . S
C1220 C1221 1.385 . S
C1221 H1207 0.931 . S
C1221 C1220 1.385 . S
C1221 C1222 1.389 . S
C1222 C1221 1.389 . S
C1222 C1223 1.387 . S
C1223 H1208 0.930 . S
C1223 C1218 1.390 . S
C1223 C1222 1.387 . S
H1224 C1236 0.930 . S
H1225 C1238 0.930 . S
H1226 C1239 0.930 . S
H1227 C1243 0.959 . S
H1228 C1243 0.959 . S
H1229 C1243 0.961 . S
H1230 C1244 0.960 . S
H1231 C1244 0.961 . S
H1232 C1244 0.959 . S
H1233 C1247 0.929 . S
H1234 C1248 0.931 . S
H1235 C1250 0.930 . S
C1236 H1224 0.930 . S
C1236 C1237 1.399 . S
C1236 C1241 1.399 . S
C1237 C1236 1.399 . S
C1237 C1238 1.376 . S
C1238 H1225 0.930 . S
C1238 C1237 1.376 . S
C1238 C1239 1.388 . S
C1239 H1226 0.930 . S
C1239 C1238 1.388 . S
C1239 C1240 1.390 . S
C1240 C1239 1.390 . S
C1240 C1241 1.394 . S
C1240 C1246 1.465 . S
C1241 C1236 1.399 . S
C1241 C1240 1.394 . S
C1241 C1242 1.516 . S
C1242 C1241 1.516 . S
C1242 C1243 1.502 . S
C1242 C1244 1.561 . S
C1242 C1245 1.526 . S
C1243 H1227 0.959 . S
C1243 H1228 0.959 . S
C1243 H1229 0.961 . S
C1243 C1242 1.502 . S
C1244 H1230 0.960 . S
C1244 H1231 0.961 . S
C1244 H1232 0.959 . S
C1244 C1242 1.561 . S
C1245 C1242 1.526 . S
C1245 C1246 1.396 . S
C1245 C1250 1.390 . S
C1246 C1240 1.465 . S
C1246 C1245 1.396 . S
C1246 C1247 1.399 . S
C1247 H1233 0.929 . S
C1247 C1246 1.399 . S
C1247 C1248 1.385 . S
C1248 H1234 0.931 . S
C1248 C1247 1.385 . S
C1248 C1249 1.389 . S
C1249 C1248 1.389 . S
C1249 C1250 1.387 . S
C1250 H1235 0.930 . S
C1250 C1245 1.390 . S
C1250 C1249 1.387 . S
H1251 C1263 0.930 . S
H1252 C1265 0.930 . S
H1253 C1266 0.930 . S
H1254 C1270 0.959 . S
H1255 C1270 0.959 . S
H1256 C1270 0.961 . S
H1257 C1271 0.960 . S
H1258 C1271 0.961 . S
H1259 C1271 0.959 . S
H1260 C1274 0.929 . S
H1261 C1275 0.931 . S
H1262 C1277 0.930 . S
C1263 H1251 0.930 . S
C1263 C1264 1.399 . S
C1263 C1268 1.399 . S
C1264 C1263 1.399 . S
C1264 C1265 1.376 . S
C1265 H1252 0.930 . S
C1265 C1264 1.376 . S
C1265 C1266 1.388 . S
C1266 H1253 0.930 . S
C1266 C1265 1.388 . S
C1266 C1267 1.390 . S
C1267 C1266 1.390 . S
C1267 C1268 1.394 . S
C1267 C1273 1.465 . S
C1268 C1263 1.399 . S
C1268 C1267 1.394 . S
C1268 C1269 1.516 . S
C1269 C1268 1.516 . S
C1269 C1270 1.502 . S
C1269 C1271 1.561 . S
C1269 C1272 1.526 . S
C1270 H1254 0.959 . S
C1270 H1255 0.959 . S
C1270 H1256 0.961 . S
C1270 C1269 1.502 . S
C1271 H1257 0.960 . S
C1271 H1258 0.961 . S
C1271 H1259 0.959 . S
C1271 C1269 1.561 . S
C1272 C1269 1.526 . S
C1272 C1273 1.396 . S
C1272 C1277 1.390 . S
C1273 C1267 1.465 . S
C1273 C1272 1.396 . S
C1273 C1274 1.399 . S
C1274 H1260 0.929 . S
C1274 C1273 1.399 . S
C1274 C1275 1.385 . S
C1275 H1261 0.931 . S
C1275 C1274 1.385 . S
C1275 C1276 1.389 . S
C1276 C1275 1.389 . S
C1276 C1277 1.387 . S
C1277 H1262 0.930 . S
C1277 C1272 1.390 . S
C1277 C1276 1.387 . S
H1278 C1290 0.930 . S
H1279 C1292 0.930 . S
H1280 C1293 0.930 . S
H1281 C1297 0.959 . S
H1282 C1297 0.959 . S
H1283 C1297 0.961 . S
H1284 C1298 0.960 . S
H1285 C1298 0.961 . S
H1286 C1298 0.959 . S
H1287 C1301 0.929 . S
H1288 C1302 0.931 . S
H1289 C1304 0.930 . S
C1290 H1278 0.930 . S
C1290 C1291 1.399 . S
C1290 C1295 1.399 . S
C1291 C1290 1.399 . S
C1291 C1292 1.376 . S
C1292 H1279 0.930 . S
C1292 C1291 1.376 . S
C1292 C1293 1.388 . S
C1293 H1280 0.930 . S
C1293 C1292 1.388 . S
C1293 C1294 1.390 . S
C1294 C1293 1.390 . S
C1294 C1295 1.394 . S
C1294 C1300 1.465 . S
C1295 C1290 1.399 . S
C1295 C1294 1.394 . S
C1295 C1296 1.516 . S
C1296 C1295 1.516 . S
C1296 C1297 1.502 . S
C1296 C1298 1.561 . S
C1296 C1299 1.526 . S
C1297 H1281 0.959 . S
C1297 H1282 0.959 . S
C1297 H1283 0.961 . S
C1297 C1296 1.502 . S
C1298 H1284 0.960 . S
C1298 H1285 0.961 . S
C1298 H1286 0.959 . S
C1298 C1296 1.561 . S
C1299 C1296 1.526 . S
C1299 C1300 1.396 . S
C1299 C1304 1.390 . S
C1300 C1294 1.465 . S
C1300 C1299 1.396 . S
C1300 C1301 1.399 . S
C1301 H1287 0.929 . S
C1301 C1300 1.399 . S
C1301 C1302 1.385 . S
C1302 H1288 0.931 . S
C1302 C1301 1.385 . S
C1302 C1303 1.389 . S
C1303 C1302 1.389 . S
C1303 C1304 1.387 . S
C1304 H1289 0.930 . S
C1304 C1299 1.390 . S
C1304 C1303 1.387 . S
H1305 C1317 0.930 . S
H1306 C1319 0.930 . S
H1307 C1320 0.930 . S
H1308 C1324 0.959 . S
H1309 C1324 0.959 1_545 S
H1310 C1324 0.961 . S
H1311 C1325 0.960 1_565 S
H1312 C1325 0.961 . S
H1313 C1325 0.959 . S
H1314 C1328 0.929 . S
H1315 C1329 0.931 . S
H1316 C1331 0.930 . S
C1317 H1305 0.930 . S
C1317 C1318 1.399 . S
C1317 C1322 1.399 . S
C1318 C1317 1.399 . S
C1318 C1319 1.376 . S
C1319 H1306 0.930 . S
C1319 C1318 1.376 . S
C1319 C1320 1.388 . S
C1320 H1307 0.930 . S
C1320 C1319 1.388 . S
C1320 C1321 1.390 . S
C1321 C1320 1.390 . S
C1321 C1322 1.394 . S
C1321 C1327 1.465 1_565 S
C1322 C1317 1.399 . S
C1322 C1321 1.394 . S
C1322 C1323 1.516 . S
C1323 C1322 1.516 . S
C1323 C1324 1.502 . S
C1323 C1325 1.561 1_565 S
C1323 C1326 1.526 1_565 S
C1324 H1308 0.959 . S
C1324 H1309 0.959 1_565 S
C1324 H1310 0.961 . S
C1324 C1323 1.502 . S
C1325 H1311 0.960 1_545 S
C1325 H1312 0.961 . S
C1325 H1313 0.959 . S
C1325 C1323 1.561 1_545 S
C1326 C1323 1.526 1_545 S
C1326 C1327 1.396 . S
C1326 C1331 1.390 . S
C1327 C1321 1.465 1_545 S
C1327 C1326 1.396 . S
C1327 C1328 1.399 . S
C1328 H1314 0.929 . S
C1328 C1327 1.399 . S
C1328 C1329 1.385 . S
C1329 H1315 0.931 . S
C1329 C1328 1.385 . S
C1329 C1330 1.389 . S
C1330 C1329 1.389 . S
C1330 C1331 1.387 . S
C1331 H1316 0.930 . S
C1331 C1326 1.390 . S
C1331 C1330 1.387 . S
H1332 C1344 0.930 . S
H1333 C1346 0.930 . S
H1334 C1347 0.930 . S
H1335 C1351 0.959 . S
H1336 C1351 0.959 . S
H1337 C1351 0.961 . S
H1338 C1352 0.960 . S
H1339 C1352 0.961 . S
H1340 C1352 0.959 . S
H1341 C1355 0.929 1_455 S
H1342 C1356 0.931 . S
H1343 C1358 0.930 . S
C1344 H1332 0.930 . S
C1344 C1345 1.399 . S
C1344 C1349 1.399 . S
C1345 C1344 1.399 . S
C1345 C1346 1.376 . S
C1346 H1333 0.930 . S
C1346 C1345 1.376 . S
C1346 C1347 1.388 . S
C1347 H1334 0.930 . S
C1347 C1346 1.388 . S
C1347 C1348 1.390 . S
C1348 C1347 1.390 . S
C1348 C1349 1.394 . S
C1348 C1354 1.427 1_455 S
C1349 C1344 1.399 . S
C1349 C1348 1.394 . S
C1349 C1350 1.516 1_455 S
C1350 C1349 1.516 1_655 S
C1350 C1351 1.502 . S
C1350 C1352 1.561 . S
C1350 C1353 1.526 . S
C1351 H1335 0.959 . S
C1351 H1336 0.959 . S
C1351 H1337 0.961 . S
C1351 C1350 1.502 . S
C1352 H1338 0.960 . S
C1352 H1339 0.961 . S
C1352 H1340 0.959 . S
C1352 C1350 1.561 . S
C1353 C1350 1.526 . S
C1353 C1354 1.412 . S
C1353 C1358 1.390 . S
C1354 C1348 1.427 1_655 S
C1354 C1353 1.412 . S
C1354 C1355 1.422 . S
C1355 H1341 0.929 1_655 S
C1355 C1354 1.422 . S
C1355 C1356 1.385 . S
C1356 H1342 0.931 . S
C1356 C1355 1.385 . S
C1356 C1357 1.389 . S
C1357 C1356 1.389 . S
C1357 C1358 1.387 . S
C1358 H1343 0.930 . S
C1358 C1353 1.390 . S
C1358 C1357 1.387 . S
H1359 C1371 0.930 . S
H1360 C1373 0.930 . S
H1361 C1374 0.930 . S
H1362 C1378 0.959 . S
H1363 C1378 0.959 . S
H1364 C1378 0.961 . S
H1365 C1379 0.960 . S
H1366 C1379 0.961 . S
H1367 C1379 0.959 . S
H1368 C1382 0.929 . S
H1369 C1383 0.931 . S
H1370 C1385 0.930 . S
C1371 H1359 0.930 . S
C1371 C1372 1.399 . S
C1371 C1376 1.399 . S
C1372 C1371 1.399 . S
C1372 C1373 1.376 . S
C1373 H1360 0.930 . S
C1373 C1372 1.376 . S
C1373 C1374 1.388 . S
C1374 H1361 0.930 . S
C1374 C1373 1.388 . S
C1374 C1375 1.390 . S
C1375 C1374 1.390 . S
C1375 C1376 1.394 . S
C1375 C1381 1.465 . S
C1376 C1371 1.399 . S
C1376 C1375 1.394 . S
C1376 C1377 1.516 . S
C1377 C1376 1.516 . S
C1377 C1378 1.502 . S
C1377 C1379 1.561 . S
C1377 C1380 1.526 . S
C1378 H1362 0.959 . S
C1378 H1363 0.959 . S
C1378 H1364 0.961 . S
C1378 C1377 1.502 . S
C1379 H1365 0.960 . S
C1379 H1366 0.961 . S
C1379 H1367 0.959 . S
C1379 C1377 1.561 . S
C1380 C1377 1.526 . S
C1380 C1381 1.396 . S
C1380 C1385 1.390 . S
C1381 C1375 1.465 . S
C1381 C1380 1.396 . S
C1381 C1382 1.399 . S
C1382 H1368 0.929 . S
C1382 C1381 1.399 . S
C1382 C1383 1.385 . S
C1383 H1369 0.931 . S
C1383 C1382 1.385 . S
C1383 C1384 1.389 . S
C1384 C1383 1.389 . S
C1384 C1385 1.387 . S
C1385 H1370 0.930 . S
C1385 C1380 1.390 . S
C1385 C1384 1.387 . S
H1386 C1398 0.930 . S
H1387 C1400 0.930 . S
H1388 C1401 0.930 . S
H1389 C1405 0.959 . S
H1390 C1405 0.959 . S
H1391 C1405 0.961 . S
H1392 C1406 0.960 . S
H1393 C1406 0.961 . S
H1394 C1406 0.959 . S
H1395 C1409 0.929 . S
H1396 C1410 0.931 . S
H1397 C1412 0.930 . S
C1398 H1386 0.930 . S
C1398 C1399 1.399 . S
C1398 C1403 1.399 1_455 S
C1399 C1398 1.399 . S
C1399 C1400 1.376 . S
C1400 H1387 0.930 . S
C1400 C1399 1.376 . S
C1400 C1401 1.388 . S
C1401 H1388 0.930 . S
C1401 C1400 1.388 . S
C1401 C1402 1.390 1_455 S
C1402 C1401 1.390 1_655 S
C1402 C1403 1.394 . S
C1402 C1408 1.465 . S
C1403 C1398 1.399 1_655 S
C1403 C1402 1.394 . S
C1403 C1404 1.516 . S
C1404 C1403 1.516 . S
C1404 C1405 1.502 . S
C1404 C1406 1.561 . S
C1404 C1407 1.526 . S
C1405 H1389 0.959 . S
C1405 H1390 0.959 . S
C1405 H1391 0.961 . S
C1405 C1404 1.502 . S
C1406 H1392 0.960 . S
C1406 H1393 0.961 . S
C1406 H1394 0.959 . S
C1406 C1404 1.561 . S
C1407 C1404 1.526 . S
C1407 C1408 1.396 . S
C1407 C1412 1.390 . S
C1408 C1402 1.465 . S
C1408 C1407 1.396 . S
C1408 C1409 1.399 . S
C1409 H1395 0.929 . S
C1409 C1408 1.399 . S
C1409 C1410 1.385 . S
C1410 H1396 0.931 . S
C1410 C1409 1.385 . S
C1410 C1411 1.389 . S
C1411 C1410 1.389 . S
C1411 C1412 1.387 . S
C1412 H1397 0.930 . S
C1412 C1407 1.390 . S
C1412 C1411 1.387 . S
H1413 C1425 0.930 . S
H1414 C1427 0.930 . S
H1415 C1428 0.930 . S
H1416 C1432 0.959 . S
H1417 C1432 0.959 . S
H1418 C1432 0.961 . S
H1419 C1433 0.960 . S
H1420 C1433 0.961 . S
H1421 C1433 0.959 . S
H1422 C1436 0.929 . S
H1423 C1437 0.931 . S
H1424 C1439 0.930 . S
C1425 H1413 0.930 . S
C1425 C1426 1.399 . S
C1425 C1430 1.399 . S
C1426 C1425 1.399 . S
C1426 C1427 1.376 . S
C1427 H1414 0.930 . S
C1427 C1426 1.376 . S
C1427 C1428 1.388 . S
C1428 H1415 0.930 . S
C1428 C1427 1.388 . S
C1428 C1429 1.390 . S
C1429 C1428 1.390 . S
C1429 C1430 1.394 . S
C1429 C1435 1.465 . S
C1430 C1425 1.399 . S
C1430 C1429 1.394 . S
C1430 C1431 1.516 . S
C1431 C1430 1.516 . S
C1431 C1432 1.502 . S
C1431 C1433 1.561 . S
C1431 C1434 1.526 . S
C1432 H1416 0.959 . S
C1432 H1417 0.959 . S
C1432 H1418 0.961 . S
C1432 C1431 1.502 . S
C1433 H1419 0.960 . S
C1433 H1420 0.961 . S
C1433 H1421 0.959 . S
C1433 C1431 1.561 . S
C1434 C1431 1.526 . S
C1434 C1435 1.396 . S
C1434 C1439 1.390 . S
C1435 C1429 1.465 . S
C1435 C1434 1.396 . S
C1435 C1436 1.399 . S
C1436 H1422 0.929 . S
C1436 C1435 1.399 . S
C1436 C1437 1.385 . S
C1437 H1423 0.931 . S
C1437 C1436 1.385 . S
C1437 C1438 1.389 . S
C1438 C1437 1.389 . S
C1438 C1439 1.387 . S
C1439 H1424 0.930 . S
C1439 C1434 1.390 . S
C1439 C1438 1.387 . S
H1440 C1452 0.930 . S
H1441 C1454 0.930 . S
H1442 C1455 0.930 . S
H1443 C1459 0.959 . S
H1444 C1459 0.959 . S
H1445 C1459 0.961 . S
H1446 C1460 0.960 . S
H1447 C1460 0.961 . S
H1448 C1460 0.959 . S
H1449 C1463 0.929 . S
H1450 C1464 0.931 . S
H1451 C1466 0.930 . S
C1452 H1440 0.930 . S
C1452 C1453 1.399 . S
C1452 C1457 1.399 1_565 S
C1453 C1452 1.399 . S
C1453 C1454 1.376 . S
C1454 H1441 0.930 . S
C1454 C1453 1.376 . S
C1454 C1455 1.388 1_565 S
C1455 H1442 0.930 . S
C1455 C1454 1.388 1_545 S
C1455 C1456 1.390 . S
C1456 C1455 1.390 . S
C1456 C1457 1.394 . S
C1456 C1462 1.465 . S
C1457 C1452 1.399 1_545 S
C1457 C1456 1.394 . S
C1457 C1458 1.516 . S
C1458 C1457 1.516 . S
C1458 C1459 1.502 . S
C1458 C1460 1.561 . S
C1458 C1461 1.526 . S
C1459 H1443 0.959 . S
C1459 H1444 0.959 . S
C1459 H1445 0.961 . S
C1459 C1458 1.502 . S
C1460 H1446 0.960 . S
C1460 H1447 0.961 . S
C1460 H1448 0.959 . S
C1460 C1458 1.561 . S
C1461 C1458 1.526 . S
C1461 C1462 1.396 . S
C1461 C1466 1.390 . S
C1462 C1456 1.465 . S
C1462 C1461 1.396 . S
C1462 C1463 1.399 . S
C1463 H1449 0.929 . S
C1463 C1462 1.399 . S
C1463 C1464 1.385 . S
C1464 H1450 0.931 . S
C1464 C1463 1.385 . S
C1464 C1465 1.389 . S
C1465 C1464 1.389 . S
C1465 C1466 1.387 . S
C1466 H1451 0.930 . S
C1466 C1461 1.390 . S
C1466 C1465 1.387 . S
H1467 C1479 0.930 . S
H1468 C1481 0.930 . S
H1469 C1482 0.930 . S
H1470 C1486 0.959 . S
H1471 C1486 0.959 . S
H1472 C1486 0.961 . S
H1473 C1487 0.960 . S
H1474 C1487 0.961 . S
H1475 C1487 0.959 . S
H1476 C1490 0.929 . S
H1477 C1491 0.931 . S
H1478 C1493 0.930 . S
C1479 H1467 0.930 . S
C1479 C1480 1.399 . S
C1479 C1484 1.399 . S
C1480 C1479 1.399 . S
C1480 C1481 1.376 . S
C1481 H1468 0.930 . S
C1481 C1480 1.376 . S
C1481 C1482 1.388 . S
C1482 H1469 0.930 . S
C1482 C1481 1.388 . S
C1482 C1483 1.390 . S
C1483 C1482 1.390 . S
C1483 C1484 1.394 . S
C1483 C1489 1.465 . S
C1484 C1479 1.399 . S
C1484 C1483 1.394 . S
C1484 C1485 1.516 . S
C1485 C1484 1.516 . S
C1485 C1486 1.502 . S
C1485 C1487 1.561 . S
C1485 C1488 1.526 . S
C1486 H1470 0.959 . S
C1486 H1471 0.959 . S
C1486 H1472 0.961 . S
C1486 C1485 1.502 . S
C1487 H1473 0.960 . S
C1487 H1474 0.961 . S
C1487 H1475 0.959 . S
C1487 C1485 1.561 . S
C1488 C1485 1.526 . S
C1488 C1489 1.396 . S
C1488 C1493 1.390 . S
C1489 C1483 1.465 . S
C1489 C1488 1.396 . S
C1489 C1490 1.399 . S
C1490 H1476 0.929 . S
C1490 C1489 1.399 . S
C1490 C1491 1.385 . S
C1491 H1477 0.931 . S
C1491 C1490 1.385 . S
C1491 C1492 1.389 . S
C1492 C1491 1.389 . S
C1492 C1493 1.387 . S
C1493 H1478 0.930 . S
C1493 C1488 1.390 . S
C1493 C1492 1.387 . S
H1494 C1506 0.930 . S
H1495 C1508 0.930 . S
H1496 C1509 0.930 . S
H1497 C1513 0.959 . S
H1498 C1513 0.959 . S
H1499 C1513 0.961 . S
H1500 C1514 0.960 . S
H1501 C1514 0.961 . S
H1502 C1514 0.959 . S
H1503 C1517 0.929 . S
H1504 C1518 0.931 . S
H1505 C1520 0.930 . S
C1506 H1494 0.930 . S
C1506 C1507 1.399 . S
C1506 C1511 1.399 . S
C1507 C1506 1.399 . S
C1507 C1508 1.376 . S
C1508 H1495 0.930 . S
C1508 C1507 1.376 . S
C1508 C1509 1.388 . S
C1509 H1496 0.930 . S
C1509 C1508 1.388 . S
C1509 C1510 1.390 . S
C1510 C1509 1.390 . S
C1510 C1511 1.394 . S
C1510 C1516 1.465 . S
C1511 C1506 1.399 . S
C1511 C1510 1.394 . S
C1511 C1512 1.516 . S
C1512 C1511 1.516 . S
C1512 C1513 1.502 . S
C1512 C1514 1.561 . S
C1512 C1515 1.526 . S
C1513 H1497 0.959 . S
C1513 H1498 0.959 . S
C1513 H1499 0.961 . S
C1513 C1512 1.502 . S
C1514 H1500 0.960 . S
C1514 H1501 0.961 . S
C1514 H1502 0.959 . S
C1514 C1512 1.561 . S
C1515 C1512 1.526 . S
C1515 C1516 1.396 . S
C1515 C1520 1.390 . S
C1516 C1510 1.465 . S
C1516 C1515 1.396 . S
C1516 C1517 1.399 . S
C1517 H1503 0.929 . S
C1517 C1516 1.399 . S
C1517 C1518 1.385 . S
C1518 H1504 0.931 . S
C1518 C1517 1.385 . S
C1518 C1519 1.389 . S
C1519 C1518 1.389 . S
C1519 C1520 1.387 . S
C1520 H1505 0.930 . S
C1520 C1515 1.390 . S
C1520 C1519 1.387 . S
H1521 C1533 0.930 . S
H1522 C1535 0.930 . S
H1523 C1536 0.930 . S
H1524 C1540 0.959 . S
H1525 C1540 0.959 . S
H1526 C1540 0.961 . S
H1527 C1541 0.960 . S
H1528 C1541 0.961 . S
H1529 C1541 0.959 . S
H1530 C1544 0.929 . S
H1531 C1545 0.931 . S
H1532 C1547 0.930 . S
C1533 H1521 0.930 . S
C1533 C1534 1.399 . S
C1533 C1538 1.399 . S
C1534 C1533 1.399 . S
C1534 C1535 1.376 . S
C1535 H1522 0.930 . S
C1535 C1534 1.376 . S
C1535 C1536 1.388 . S
C1536 H1523 0.930 . S
C1536 C1535 1.388 . S
C1536 C1537 1.390 . S
C1537 C1536 1.390 . S
C1537 C1538 1.394 . S
C1537 C1543 1.465 . S
C1538 C1533 1.399 . S
C1538 C1537 1.394 . S
C1538 C1539 1.516 . S
C1539 C1538 1.516 . S
C1539 C1540 1.502 . S
C1539 C1541 1.561 . S
C1539 C1542 1.526 . S
C1540 H1524 0.959 . S
C1540 H1525 0.959 . S
C1540 H1526 0.961 . S
C1540 C1539 1.502 . S
C1541 H1527 0.960 . S
C1541 H1528 0.961 . S
C1541 H1529 0.959 . S
C1541 C1539 1.561 . S
C1542 C1539 1.526 . S
C1542 C1543 1.396 . S
C1542 C1547 1.390 . S
C1543 C1537 1.465 . S
C1543 C1542 1.396 . S
C1543 C1544 1.399 . S
C1544 H1530 0.929 . S
C1544 C1543 1.399 . S
C1544 C1545 1.385 . S
C1545 H1531 0.931 . S
C1545 C1544 1.385 . S
C1545 C1546 1.389 . S
C1546 C1545 1.389 . S
C1546 C1547 1.387 . S
C1547 H1532 0.930 . S
C1547 C1542 1.390 . S
C1547 C1546 1.387 . S
H1548 C1560 0.930 . S
H1549 C1562 0.930 . S
H1550 C1563 0.930 . S
H1551 C1567 0.959 . S
H1552 C1567 0.959 . S
H1553 C1567 0.961 . S
H1554 C1568 0.960 . S
H1555 C1568 0.961 . S
H1556 C1568 0.959 . S
H1557 C1571 0.929 . S
H1558 C1572 0.931 . S
H1559 C1574 0.930 . S
C1560 H1548 0.930 . S
C1560 C1561 1.399 . S
C1560 C1565 1.399 . S
C1561 C1560 1.399 . S
C1561 C1562 1.376 . S
C1562 H1549 0.930 . S
C1562 C1561 1.376 . S
C1562 C1563 1.388 . S
C1563 H1550 0.930 . S
C1563 C1562 1.388 . S
C1563 C1564 1.390 . S
C1564 C1563 1.390 . S
C1564 C1565 1.394 . S
C1564 C1570 1.465 . S
C1565 C1560 1.399 . S
C1565 C1564 1.394 . S
C1565 C1566 1.516 . S
C1566 C1565 1.516 . S
C1566 C1567 1.502 . S
C1566 C1568 1.561 1_565 S
C1566 C1569 1.526 . S
C1567 H1551 0.959 . S
C1567 H1552 0.959 . S
C1567 H1553 0.961 . S
C1567 C1566 1.502 . S
C1568 H1554 0.960 . S
C1568 H1555 0.961 . S
C1568 H1556 0.959 . S
C1568 C1566 1.561 1_545 S
C1569 C1566 1.526 . S
C1569 C1570 1.396 . S
C1569 C1574 1.390 . S
C1570 C1564 1.465 . S
C1570 C1569 1.396 . S
C1570 C1571 1.399 . S
C1571 H1557 0.929 . S
C1571 C1570 1.399 . S
C1571 C1572 1.385 . S
C1572 H1558 0.931 . S
C1572 C1571 1.385 . S
C1572 C1573 1.389 . S
C1573 C1572 1.389 . S
C1573 C1574 1.387 . S
C1574 H1559 0.930 . S
C1574 C1569 1.390 . S
C1574 C1573 1.387 . S
H1575 C1587 0.930 . S
H1576 C1589 0.930 . S
H1577 C1590 0.930 . S
H1578 C1594 0.959 . S
H1579 C1594 0.959 . S
H1580 C1594 0.961 . S
H1581 C1595 0.960 . S
H1582 C1595 0.961 . S
H1583 C1595 0.959 . S
H1584 C1598 0.929 . S
H1585 C1599 0.931 . S
H1586 C1601 0.930 . S
C1587 H1575 0.930 . S
C1587 C1588 1.399 . S
C1587 C1592 1.399 . S
C1588 C1587 1.399 . S
C1588 C1589 1.376 . S
C1589 H1576 0.930 . S
C1589 C1588 1.376 . S
C1589 C1590 1.388 . S
C1590 H1577 0.930 . S
C1590 C1589 1.388 . S
C1590 C1591 1.390 . S
C1591 C1590 1.390 . S
C1591 C1592 1.394 . S
C1591 C1597 1.465 . S
C1592 C1587 1.399 . S
C1592 C1591 1.394 . S
C1592 C1593 1.516 . S
C1593 C1592 1.516 . S
C1593 C1594 1.502 . S
C1593 C1595 1.561 . S
C1593 C1596 1.526 . S
C1594 H1578 0.959 . S
C1594 H1579 0.959 . S
C1594 H1580 0.961 . S
C1594 C1593 1.502 . S
C1595 H1581 0.960 . S
C1595 H1582 0.961 . S
C1595 H1583 0.959 . S
C1595 C1593 1.561 . S
C1596 C1593 1.526 . S
C1596 C1597 1.396 . S
C1596 C1601 1.390 . S
C1597 C1591 1.465 . S
C1597 C1596 1.396 . S
C1597 C1598 1.399 . S
C1598 H1584 0.929 . S
C1598 C1597 1.399 . S
C1598 C1599 1.385 . S
C1599 H1585 0.931 . S
C1599 C1598 1.385 . S
C1599 C1600 1.389 . S
C1600 C1599 1.389 . S
C1600 C1601 1.387 . S
C1601 H1586 0.930 . S
C1601 C1596 1.390 . S
C1601 C1600 1.387 . S
H1602 C1614 0.930 . S
H1603 C1616 0.930 . S
H1604 C1617 0.930 . S
H1605 C1621 0.959 . S
H1606 C1621 0.959 . S
H1607 C1621 0.961 . S
H1608 C1622 0.960 . S
H1609 C1622 0.961 . S
H1610 C1622 0.959 . S
H1611 C1625 0.929 . S
H1612 C1626 0.931 . S
H1613 C1628 0.930 . S
C1614 H1602 0.930 . S
C1614 C1615 1.399 . S
C1614 C1619 1.399 . S
C1615 C1614 1.399 . S
C1615 C1616 1.376 . S
C1616 H1603 0.930 . S
C1616 C1615 1.376 . S
C1616 C1617 1.388 . S
C1617 H1604 0.930 . S
C1617 C1616 1.388 . S
C1617 C1618 1.390 . S
C1618 C1617 1.390 . S
C1618 C1619 1.394 . S
C1618 C1624 1.465 . S
C1619 C1614 1.399 . S
C1619 C1618 1.394 . S
C1619 C1620 1.516 . S
C1620 C1619 1.516 . S
C1620 C1621 1.502 . S
C1620 C1622 1.561 . S
C1620 C1623 1.526 . S
C1621 H1605 0.959 . S
C1621 H1606 0.959 . S
C1621 H1607 0.961 . S
C1621 C1620 1.502 . S
C1622 H1608 0.960 . S
C1622 H1609 0.961 . S
C1622 H1610 0.959 . S
C1622 C1620 1.561 . S
C1623 C1620 1.526 . S
C1623 C1624 1.396 . S
C1623 C1628 1.390 . S
C1624 C1618 1.465 . S
C1624 C1623 1.396 . S
C1624 C1625 1.399 . S
C1625 H1611 0.929 . S
C1625 C1624 1.399 . S
C1625 C1626 1.385 . S
C1626 H1612 0.931 . S
C1626 C1625 1.385 . S
C1626 C1627 1.389 . S
C1627 C1626 1.389 . S
C1627 C1628 1.387 . S
C1628 H1613 0.930 . S
C1628 C1623 1.390 . S
C1628 C1627 1.387 . S
H1629 C1641 0.930 . S
H1630 C1643 0.930 . S
H1631 C1644 0.930 1_455 S
H1632 C1648 0.959 . S
H1633 C1648 0.959 . S
H1634 C1648 0.961 . S
H1635 C1649 0.960 . S
H1636 C1649 0.961 . S
H1637 C1649 0.959 . S
H1638 C1652 0.929 1_455 S
H1639 C1653 0.915 1_455 S
H1640 C1655 0.930 . S
C1641 H1629 0.930 . S
C1641 C1642 1.399 . S
C1641 C1646 1.399 . S
C1642 C1641 1.399 . S
C1642 C1643 1.376 . S
C1643 H1630 0.930 . S
C1643 C1642 1.376 . S
C1643 C1644 1.388 . S
C1644 H1631 0.930 1_655 S
C1644 C1643 1.388 . S
C1644 C1645 1.390 . S
C1645 C1644 1.390 . S
C1645 C1646 1.394 . S
C1645 C1651 1.465 . S
C1646 C1641 1.399 . S
C1646 C1645 1.394 . S
C1646 C1647 1.516 . S
C1647 C1646 1.516 . S
C1647 C1648 1.502 . S
C1647 C1649 1.561 . S
C1647 C1650 1.526 . S
C1648 H1632 0.959 . S
C1648 H1633 0.959 . S
C1648 H1634 0.961 . S
C1648 C1647 1.502 . S
C1649 H1635 0.960 . S
C1649 H1636 0.961 . S
C1649 H1637 0.959 . S
C1649 C1647 1.561 . S
C1650 C1647 1.526 . S
C1650 C1651 1.396 . S
C1650 C1655 1.390 . S
C1651 C1645 1.465 . S
C1651 C1650 1.396 . S
C1651 C1652 1.399 . S
C1652 H1638 0.929 1_655 S
C1652 C1651 1.399 . S
C1652 C1653 1.385 . S
C1653 H1639 0.915 1_655 S
C1653 C1652 1.385 . S
C1653 C1654 1.389 . S
C1654 C1653 1.389 . S
C1654 C1655 1.387 . S
C1655 H1640 0.930 . S
C1655 C1650 1.390 . S
C1655 C1654 1.387 . S
H1656 C1668 0.930 . S
H1657 C1670 0.930 . S
H1658 C1671 0.930 . S
H1659 C1675 0.959 . S
H1660 C1675 0.959 . S
H1661 C1675 0.961 . S
H1662 C1676 0.960 . S
H1663 C1676 0.961 . S
H1664 C1676 0.959 . S
H1665 C1679 0.929 . S
H1666 C1680 0.931 . S
H1667 C1682 0.930 . S
C1668 H1656 0.930 . S
C1668 C1669 1.399 . S
C1668 C1673 1.399 . S
C1669 C1668 1.399 . S
C1669 C1670 1.376 . S
C1670 H1657 0.930 . S
C1670 C1669 1.376 . S
C1670 C1671 1.388 . S
C1671 H1658 0.930 . S
C1671 C1670 1.388 . S
C1671 C1672 1.390 . S
C1672 C1671 1.390 . S
C1672 C1673 1.394 . S
C1672 C1678 1.465 . S
C1673 C1668 1.399 . S
C1673 C1672 1.394 . S
C1673 C1674 1.516 . S
C1674 C1673 1.516 . S
C1674 C1675 1.502 . S
C1674 C1676 1.561 . S
C1674 C1677 1.526 . S
C1675 H1659 0.959 . S
C1675 H1660 0.959 . S
C1675 H1661 0.961 . S
C1675 C1674 1.502 . S
C1676 H1662 0.960 . S
C1676 H1663 0.961 . S
C1676 H1664 0.959 . S
C1676 C1674 1.561 . S
C1677 C1674 1.526 . S
C1677 C1678 1.396 . S
C1677 C1682 1.390 . S
C1678 C1672 1.465 . S
C1678 C1677 1.396 . S
C1678 C1679 1.399 . S
C1679 H1665 0.929 . S
C1679 C1678 1.399 . S
C1679 C1680 1.385 . S
C1680 H1666 0.931 . S
C1680 C1679 1.385 . S
C1680 C1681 1.389 . S
C1681 C1680 1.389 . S
C1681 C1682 1.387 . S
C1682 H1667 0.930 . S
C1682 C1677 1.390 . S
C1682 C1681 1.387 . S
H1683 C1695 0.930 . S
H1684 C1697 0.930 . S
H1685 C1698 0.930 . S
H1686 C1702 0.959 . S
H1687 C1702 0.959 . S
H1688 C1702 0.961 . S
H1689 C1703 0.960 . S
H1690 C1703 0.961 . S
H1691 C1703 0.959 . S
H1692 C1706 0.929 . S
H1693 C1707 0.931 . S
H1694 C1709 0.930 . S
C1695 H1683 0.930 . S
C1695 C1696 1.399 . S
C1695 C1700 1.399 . S
C1696 C1695 1.399 . S
C1696 C1697 1.376 . S
C1697 H1684 0.930 . S
C1697 C1696 1.376 . S
C1697 C1698 1.388 . S
C1698 H1685 0.930 . S
C1698 C1697 1.388 . S
C1698 C1699 1.390 . S
C1699 C1698 1.390 . S
C1699 C1700 1.394 . S
C1699 C1705 1.465 . S
C1700 C1695 1.399 . S
C1700 C1699 1.394 . S
C1700 C1701 1.516 . S
C1701 C1700 1.516 . S
C1701 C1702 1.502 . S
C1701 C1703 1.561 . S
C1701 C1704 1.526 . S
C1702 H1686 0.959 . S
C1702 H1687 0.959 . S
C1702 H1688 0.961 . S
C1702 C1701 1.502 . S
C1703 H1689 0.960 . S
C1703 H1690 0.961 . S
C1703 H1691 0.959 . S
C1703 C1701 1.561 . S
C1704 C1701 1.526 . S
C1704 C1705 1.396 . S
C1704 C1709 1.390 . S
C1705 C1699 1.465 . S
C1705 C1704 1.396 . S
C1705 C1706 1.399 . S
C1706 H1692 0.929 . S
C1706 C1705 1.399 . S
C1706 C1707 1.385 . S
C1707 H1693 0.931 . S
C1707 C1706 1.385 . S
C1707 C1708 1.389 . S
C1708 C1707 1.389 . S
C1708 C1709 1.387 . S
C1709 H1694 0.930 . S
C1709 C1704 1.390 . S
C1709 C1708 1.387 . S
H1710 C1722 0.930 . S
H1711 C1724 0.930 . S
H1712 C1725 0.930 . S
H1713 C1729 0.959 . S
H1714 C1729 0.959 . S
H1715 C1729 0.961 . S
H1716 C1730 0.960 . S
H1717 C1730 0.961 . S
H1718 C1730 0.959 . S
H1719 C1733 0.929 . S
H1720 C1734 0.931 . S
H1721 C1736 0.930 . S
C1722 H1710 0.930 . S
C1722 C1723 1.399 . S
C1722 C1727 1.399 . S
C1723 C1722 1.399 . S
C1723 C1724 1.376 . S
C1724 H1711 0.930 . S
C1724 C1723 1.376 . S
C1724 C1725 1.388 . S
C1725 H1712 0.930 . S
C1725 C1724 1.388 . S
C1725 C1726 1.390 . S
C1726 C1725 1.390 . S
C1726 C1727 1.394 . S
C1726 C1732 1.465 . S
C1727 C1722 1.399 . S
C1727 C1726 1.394 . S
C1727 C1728 1.516 . S
C1728 C1727 1.516 . S
C1728 C1729 1.502 . S
C1728 C1730 1.561 . S
C1728 C1731 1.526 . S
C1729 H1713 0.959 . S
C1729 H1714 0.959 . S
C1729 H1715 0.961 . S
C1729 C1728 1.502 . S
C1730 H1716 0.960 . S
C1730 H1717 0.961 . S
C1730 H1718 0.959 . S
C1730 C1728 1.561 . S
C1731 C1728 1.526 . S
C1731 C1732 1.396 . S
C1731 C1736 1.390 . S
C1732 C1726 1.465 . S
C1732 C1731 1.396 . S
C1732 C1733 1.399 . S
C1733 H1719 0.929 . S
C1733 C1732 1.399 . S
C1733 C1734 1.385 . S
C1734 H1720 0.931 . S
C1734 C1733 1.385 . S
C1734 C1735 1.389 . S
C1735 C1734 1.389 . S
C1735 C1736 1.387 . S
C1736 H1721 0.930 . S
C1736 C1731 1.390 . S
C1736 C1735 1.387 . S
H1737 C1749 0.930 . S
H1738 C1751 0.930 . S
H1739 C1752 0.930 . S
H1740 C1756 0.959 . S
H1741 C1756 0.959 . S
H1742 C1756 0.961 . S
H1743 C1757 0.960 . S
H1744 C1757 0.961 . S
H1745 C1757 0.959 . S
H1746 C1760 0.929 . S
H1747 C1761 0.931 . S
H1748 C1763 0.930 . S
C1749 H1737 0.930 . S
C1749 C1750 1.399 . S
C1749 C1754 1.399 . S
C1750 C1749 1.399 . S
C1750 C1751 1.376 . S
C1751 H1738 0.930 . S
C1751 C1750 1.376 . S
C1751 C1752 1.388 . S
C1752 H1739 0.930 . S
C1752 C1751 1.388 . S
C1752 C1753 1.390 . S
C1753 C1752 1.390 . S
C1753 C1754 1.394 . S
C1753 C1759 1.465 . S
C1754 C1749 1.399 . S
C1754 C1753 1.394 . S
C1754 C1755 1.516 . S
C1755 C1754 1.516 . S
C1755 C1756 1.502 . S
C1755 C1757 1.561 . S
C1755 C1758 1.526 . S
C1756 H1740 0.959 . S
C1756 H1741 0.959 . S
C1756 H1742 0.961 . S
C1756 C1755 1.502 . S
C1757 H1743 0.960 . S
C1757 H1744 0.961 . S
C1757 H1745 0.959 . S
C1757 C1755 1.561 . S
C1758 C1755 1.526 . S
C1758 C1759 1.396 . S
C1758 C1763 1.390 . S
C1759 C1753 1.465 . S
C1759 C1758 1.396 . S
C1759 C1760 1.399 . S
C1760 H1746 0.929 . S
C1760 C1759 1.399 . S
C1760 C1761 1.385 . S
C1761 H1747 0.931 . S
C1761 C1760 1.385 . S
C1761 C1762 1.389 . S
C1762 C1761 1.389 . S
C1762 C1763 1.387 . S
C1763 H1748 0.930 . S
C1763 C1758 1.390 . S
C1763 C1762 1.387 . S
H1764 C1776 0.930 . S
H1765 C1778 0.930 . S
H1766 C1779 0.930 . S
H1767 C1783 0.959 . S
H1768 C1783 0.959 . S
H1769 C1783 0.961 . S
H1770 C1784 0.960 . S
H1771 C1784 0.961 . S
H1772 C1784 0.959 . S
H1773 C1787 0.929 . S
H1774 C1788 0.931 . S
H1775 C1790 0.930 . S
C1776 H1764 0.930 . S
C1776 C1777 1.399 . S
C1776 C1781 1.399 . S
C1777 C1776 1.399 . S
C1777 C1778 1.376 . S
C1778 H1765 0.930 . S
C1778 C1777 1.376 . S
C1778 C1779 1.388 . S
C1779 H1766 0.930 . S
C1779 C1778 1.388 . S
C1779 C1780 1.390 . S
C1780 C1779 1.390 . S
C1780 C1781 1.394 . S
C1780 C1786 1.465 . S
C1781 C1776 1.399 . S
C1781 C1780 1.394 . S
C1781 C1782 1.516 . S
C1782 C1781 1.516 . S
C1782 C1783 1.502 . S
C1782 C1784 1.561 . S
C1782 C1785 1.526 . S
C1783 H1767 0.959 . S
C1783 H1768 0.959 . S
C1783 H1769 0.961 . S
C1783 C1782 1.502 . S
C1784 H1770 0.960 . S
C1784 H1771 0.961 . S
C1784 H1772 0.959 . S
C1784 C1782 1.561 . S
C1785 C1782 1.526 . S
C1785 C1786 1.396 . S
C1785 C1790 1.390 . S
C1786 C1780 1.465 . S
C1786 C1785 1.396 . S
C1786 C1787 1.399 . S
C1787 H1773 0.929 . S
C1787 C1786 1.399 . S
C1787 C1788 1.385 . S
C1788 H1774 0.931 . S
C1788 C1787 1.385 . S
C1788 C1789 1.389 . S
C1789 C1788 1.389 . S
C1789 C1790 1.387 . S
C1790 H1775 0.930 . S
C1790 C1785 1.390 . S
C1790 C1789 1.387 . S
H1791 C1803 0.930 . S
H1792 C1805 0.930 . S
H1793 C1806 0.930 . S
H1794 C1810 0.959 . S
H1795 C1810 0.959 . S
H1796 C1810 0.961 . S
H1797 C1811 0.960 . S
H1798 C1811 0.961 . S
H1799 C1811 0.959 . S
H1800 C1814 0.929 . S
H1801 C1815 0.931 . S
H1802 C1817 0.930 . S
C1803 H1791 0.930 . S
C1803 C1804 1.399 . S
C1803 C1808 1.399 . S
C1804 C1803 1.399 . S
C1804 C1805 1.376 . S
C1805 H1792 0.930 . S
C1805 C1804 1.376 . S
C1805 C1806 1.388 . S
C1806 H1793 0.930 . S
C1806 C1805 1.388 . S
C1806 C1807 1.390 . S
C1807 C1806 1.390 . S
C1807 C1808 1.394 . S
C1807 C1813 1.465 . S
C1808 C1803 1.399 . S
C1808 C1807 1.394 . S
C1808 C1809 1.516 . S
C1809 C1808 1.516 . S
C1809 C1810 1.502 . S
C1809 C1811 1.561 . S
C1809 C1812 1.526 . S
C1810 H1794 0.959 . S
C1810 H1795 0.959 . S
C1810 H1796 0.961 . S
C1810 C1809 1.502 . S
C1811 H1797 0.960 . S
C1811 H1798 0.961 . S
C1811 H1799 0.959 . S
C1811 C1809 1.561 . S
C1812 C1809 1.526 . S
C1812 C1813 1.396 . S
C1812 C1817 1.390 . S
C1813 C1807 1.465 . S
C1813 C1812 1.396 . S
C1813 C1814 1.399 . S
C1814 H1800 0.929 . S
C1814 C1813 1.399 . S
C1814 C1815 1.385 . S
C1815 H1801 0.931 . S
C1815 C1814 1.385 . S
C1815 C1816 1.389 . S
C1816 C1815 1.389 . S
C1816 C1817 1.387 . S
C1817 H1802 0.930 . S
C1817 C1812 1.390 . S
C1817 C1816 1.387 . S
H1818 C1830 0.930 . S
H1819 C1832 0.930 . S
H1820 C1833 0.930 . S
H1821 C1837 0.959 . S
H1822 C1837 0.959 . S
H1823 C1837 0.961 . S
H1824 C1838 0.960 . S
H1825 C1838 0.961 . S
H1826 C1838 0.959 . S
H1827 C1841 0.929 . S
H1828 C1842 0.931 . S
H1829 C1844 0.930 . S
C1830 H1818 0.930 . S
C1830 C1831 1.399 . S
C1830 C1835 1.399 . S
C1831 C1830 1.399 . S
C1831 C1832 1.376 . S
C1832 H1819 0.930 . S
C1832 C1831 1.376 . S
C1832 C1833 1.388 . S
C1833 H1820 0.930 . S
C1833 C1832 1.388 . S
C1833 C1834 1.390 . S
C1834 C1833 1.390 . S
C1834 C1835 1.394 . S
C1834 C1840 1.465 . S
C1835 C1830 1.399 . S
C1835 C1834 1.394 . S
C1835 C1836 1.516 . S
C1836 C1835 1.516 . S
C1836 C1837 1.502 . S
C1836 C1838 1.561 . S
C1836 C1839 1.526 . S
C1837 H1821 0.959 . S
C1837 H1822 0.959 . S
C1837 H1823 0.961 . S
C1837 C1836 1.502 . S
C1838 H1824 0.960 . S
C1838 H1825 0.961 . S
C1838 H1826 0.959 . S
C1838 C1836 1.561 . S
C1839 C1836 1.526 . S
C1839 C1840 1.396 . S
C1839 C1844 1.390 . S
C1840 C1834 1.465 . S
C1840 C1839 1.396 . S
C1840 C1841 1.399 . S
C1841 H1827 0.929 . S
C1841 C1840 1.399 . S
C1841 C1842 1.385 . S
C1842 H1828 0.931 . S
C1842 C1841 1.385 . S
C1842 C1843 1.389 . S
C1843 C1842 1.389 . S
C1843 C1844 1.387 . S
C1844 H1829 0.930 . S
C1844 C1839 1.390 . S
C1844 C1843 1.387 . S
H1845 C1857 0.930 . S
H1846 C1859 0.930 . S
H1847 C1860 0.930 . S
H1848 C1864 0.959 . S
H1849 C1864 0.959 . S
H1850 C1864 0.961 . S
H1851 C1865 0.960 . S
H1852 C1865 0.961 . S
H1853 C1865 0.959 . S
H1854 C1868 0.929 . S
H1855 C1869 0.931 . S
H1856 C1871 0.930 . S
C1857 H1845 0.930 . S
C1857 C1858 1.399 . S
C1857 C1862 1.399 . S
C1858 C1857 1.399 . S
C1858 C1859 1.376 . S
C1859 H1846 0.930 . S
C1859 C1858 1.376 . S
C1859 C1860 1.388 . S
C1860 H1847 0.930 . S
C1860 C1859 1.388 . S
C1860 C1861 1.390 . S
C1861 C1860 1.390 . S
C1861 C1862 1.394 . S
C1861 C1867 1.465 . S
C1862 C1857 1.399 . S
C1862 C1861 1.394 . S
C1862 C1863 1.516 . S
C1863 C1862 1.516 . S
C1863 C1864 1.502 . S
C1863 C1865 1.561 . S
C1863 C1866 1.526 . S
C1864 H1848 0.959 . S
C1864 H1849 0.959 . S
C1864 H1850 0.961 . S
C1864 C1863 1.502 . S
C1865 H1851 0.960 . S
C1865 H1852 0.961 . S
C1865 H1853 0.959 . S
C1865 C1863 1.561 . S
C1866 C1863 1.526 . S
C1866 C1867 1.396 . S
C1866 C1871 1.390 . S
C1867 C1861 1.465 . S
C1867 C1866 1.396 . S
C1867 C1868 1.399 . S
C1868 H1854 0.929 . S
C1868 C1867 1.399 . S
C1868 C1869 1.385 . S
C1869 H1855 0.931 . S
C1869 C1868 1.385 . S
C1869 C1870 1.389 . S
C1870 C1869 1.389 . S
C1870 C1871 1.387 . S
C1871 H1856 0.930 . S
C1871 C1866 1.390 . S
C1871 C1870 1.387 . S
H1872 C1884 0.930 . S
H1873 C1886 0.930 . S
H1874 C1887 0.930 . S
H1875 C1891 0.959 . S
H1876 C1891 0.959 . S
H1877 C1891 0.961 . S
H1878 C1892 0.960 . S
H1879 C1892 0.961 . S
H1880 C1892 0.959 . S
H1881 C1895 0.929 . S
H1882 C1896 0.931 . S
H1883 C1898 0.930 . S
C1884 H1872 0.930 . S
C1884 C1885 1.399 . S
C1884 C1889 1.399 . S
C1885 C1884 1.399 . S
C1885 C1886 1.376 . S
C1886 H1873 0.930 . S
C1886 C1885 1.376 . S
C1886 C1887 1.388 . S
C1887 H1874 0.930 . S
C1887 C1886 1.388 . S
C1887 C1888 1.390 . S
C1888 C1887 1.390 . S
C1888 C1889 1.394 . S
C1888 C1894 1.465 . S
C1889 C1884 1.399 . S
C1889 C1888 1.394 . S
C1889 C1890 1.516 . S
C1890 C1889 1.516 . S
C1890 C1891 1.502 . S
C1890 C1892 1.561 . S
C1890 C1893 1.526 . S
C1891 H1875 0.959 . S
C1891 H1876 0.959 . S
C1891 H1877 0.961 . S
C1891 C1890 1.502 . S
C1892 H1878 0.960 . S
C1892 H1879 0.961 . S
C1892 H1880 0.959 . S
C1892 C1890 1.561 . S
C1893 C1890 1.526 . S
C1893 C1894 1.396 . S
C1893 C1898 1.390 . S
C1894 C1888 1.465 . S
C1894 C1893 1.396 . S
C1894 C1895 1.399 . S
C1895 H1881 0.929 . S
C1895 C1894 1.399 . S
C1895 C1896 1.385 . S
C1896 H1882 0.931 . S
C1896 C1895 1.385 . S
C1896 C1897 1.389 . S
C1897 C1896 1.389 . S
C1897 C1898 1.387 . S
C1898 H1883 0.930 . S
C1898 C1893 1.390 . S
C1898 C1897 1.387 . S
H1899 C1911 0.930 . S
H1900 C1913 0.930 . S
H1901 C1914 0.930 . S
H1902 C1918 0.959 . S
H1903 C1918 0.959 . S
H1904 C1918 0.961 . S
H1905 C1919 0.960 . S
H1906 C1919 0.961 . S
H1907 C1919 0.959 . S
H1908 C1922 0.929 . S
H1909 C1923 0.931 . S
H1910 C1925 0.930 . S
C1911 H1899 0.930 . S
C1911 C1912 1.399 . S
C1911 C1916 1.399 . S
C1912 C1911 1.399 . S
C1912 C1913 1.376 . S
C1913 H1900 0.930 . S
C1913 C1912 1.376 . S
C1913 C1914 1.388 . S
C1914 H1901 0.930 . S
C1914 C1913 1.388 . S
C1914 C1915 1.390 . S
C1915 C1914 1.390 . S
C1915 C1916 1.394 . S
C1915 C1921 1.465 . S
C1916 C1911 1.399 . S
C1916 C1915 1.394 . S
C1916 C1917 1.516 . S
C1917 C1916 1.516 . S
C1917 C1918 1.502 . S
C1917 C1919 1.561 . S
C1917 C1920 1.526 . S
C1918 H1902 0.959 . S
C1918 H1903 0.959 . S
C1918 H1904 0.961 . S
C1918 C1917 1.502 . S
C1919 H1905 0.960 . S
C1919 H1906 0.961 . S
C1919 H1907 0.959 . S
C1919 C1917 1.561 . S
C1920 C1917 1.526 . S
C1920 C1921 1.396 . S
C1920 C1925 1.390 . S
C1921 C1915 1.465 . S
C1921 C1920 1.396 . S
C1921 C1922 1.399 . S
C1922 H1908 0.929 . S
C1922 C1921 1.399 . S
C1922 C1923 1.385 . S
C1923 H1909 0.931 . S
C1923 C1922 1.385 . S
C1923 C1924 1.389 . S
C1924 C1923 1.389 . S
C1924 C1925 1.387 . S
C1925 H1910 0.930 . S
C1925 C1920 1.390 . S
C1925 C1924 1.387 . S
H1926 C1938 0.930 . S
H1927 C1940 0.930 . S
H1928 C1941 0.930 . S
H1929 C1945 0.959 . S
H1930 C1945 0.959 . S
H1931 C1945 0.961 . S
H1932 C1946 0.960 . S
H1933 C1946 0.961 . S
H1934 C1946 0.959 . S
H1935 C1949 0.929 . S
H1936 C1950 0.931 . S
H1937 C1952 0.930 . S
C1938 H1926 0.930 . S
C1938 C1939 1.399 . S
C1938 C1943 1.399 . S
C1939 C1938 1.399 . S
C1939 C1940 1.376 . S
C1940 H1927 0.930 . S
C1940 C1939 1.376 . S
C1940 C1941 1.388 . S
C1941 H1928 0.930 . S
C1941 C1940 1.388 . S
C1941 C1942 1.390 . S
C1942 C1941 1.390 . S
C1942 C1943 1.394 . S
C1942 C1948 1.465 . S
C1943 C1938 1.399 . S
C1943 C1942 1.394 . S
C1943 C1944 1.516 . S
C1944 C1943 1.516 . S
C1944 C1945 1.502 . S
C1944 C1946 1.561 . S
C1944 C1947 1.526 . S
C1945 H1929 0.959 . S
C1945 H1930 0.959 . S
C1945 H1931 0.961 . S
C1945 C1944 1.502 . S
C1946 H1932 0.960 . S
C1946 H1933 0.961 . S
C1946 H1934 0.959 . S
C1946 C1944 1.561 . S
C1947 C1944 1.526 . S
C1947 C1948 1.396 . S
C1947 C1952 1.390 . S
C1948 C1942 1.465 . S
C1948 C1947 1.396 . S
C1948 C1949 1.399 . S
C1949 H1935 0.929 . S
C1949 C1948 1.399 . S
C1949 C1950 1.385 . S
C1950 H1936 0.931 . S
C1950 C1949 1.385 . S
C1950 C1951 1.389 . S
C1951 C1950 1.389 . S
C1951 C1952 1.387 . S
C1952 H1937 0.930 . S
C1952 C1947 1.390 . S
C1952 C1951 1.387 . S
H1953 C1965 0.930 . S
H1954 C1967 0.930 . S
H1955 C1968 0.930 . S
H1956 C1972 0.959 . S
H1957 C1972 0.959 . S
H1958 C1972 0.961 . S
H1959 C1973 0.960 . S
H1960 C1973 0.961 . S
H1961 C1973 0.959 . S
H1962 C1976 0.929 . S
H1963 C1977 0.931 . S
H1964 C1979 0.930 . S
C1965 H1953 0.930 . S
C1965 C1966 1.399 . S
C1965 C1970 1.399 . S
C1966 C1965 1.399 . S
C1966 C1967 1.376 . S
C1967 H1954 0.930 . S
C1967 C1966 1.376 . S
C1967 C1968 1.388 . S
C1968 H1955 0.930 . S
C1968 C1967 1.388 . S
C1968 C1969 1.390 . S
C1969 C1968 1.390 . S
C1969 C1970 1.394 . S
C1969 C1975 1.465 . S
C1970 C1965 1.399 . S
C1970 C1969 1.394 . S
C1970 C1971 1.516 . S
C1971 C1970 1.516 . S
C1971 C1972 1.502 . S
C1971 C1973 1.561 . S
C1971 C1974 1.526 . S
C1972 H1956 0.959 . S
C1972 H1957 0.959 . S
C1972 H1958 0.961 . S
C1972 C1971 1.502 . S
C1973 H1959 0.960 . S
C1973 H1960 0.961 . S
C1973 H1961 0.959 . S
C1973 C1971 1.561 . S
C1974 C1971 1.526 . S
C1974 C1975 1.396 . S
C1974 C1979 1.390 . S
C1975 C1969 1.465 . S
C1975 C1974 1.396 . S
C1975 C1976 1.399 . S
C1976 H1962 0.929 . S
C1976 C1975 1.399 . S
C1976 C1977 1.385 . S
C1977 H1963 0.931 . S
C1977 C1976 1.385 . S
C1977 C1978 1.389 . S
C1978 C1977 1.389 . S
C1978 C1979 1.387 . S
C1979 H1964 0.930 . S
C1979 C1974 1.390 . S
C1979 C1978 1.387 . S
H1980 C1992 0.930 . S
H1981 C1994 0.930 . S
H1982 C1995 0.930 . S
H1983 C1999 0.959 . S
H1984 C1999 0.959 . S
H1985 C1999 0.961 . S
H1986 C2000 0.960 . S
H1987 C2000 0.961 . S
H1988 C2000 0.959 . S
H1989 C2003 0.929 . S
H1990 C2004 0.931 . S
H1991 C2006 0.930 . S
C1992 H1980 0.930 . S
C1992 C1993 1.399 . S
C1992 C1997 1.399 . S
C1993 C1992 1.399 . S
C1993 C1994 1.376 . S
C1994 H1981 0.930 . S
C1994 C1993 1.376 . S
C1994 C1995 1.388 . S
C1995 H1982 0.930 . S
C1995 C1994 1.388 . S
C1995 C1996 1.390 . S
C1996 C1995 1.390 . S
C1996 C1997 1.394 . S
C1996 C2002 1.465 . S
C1997 C1992 1.399 . S
C1997 C1996 1.394 . S
C1997 C1998 1.516 . S
C1998 C1997 1.516 . S
C1998 C1999 1.502 . S
C1998 C2000 1.561 . S
C1998 C2001 1.526 . S
C1999 H1983 0.959 . S
C1999 H1984 0.959 . S
C1999 H1985 0.961 . S
C1999 C1998 1.502 . S
C2000 H1986 0.960 . S
C2000 H1987 0.961 . S
C2000 H1988 0.959 . S
C2000 C1998 1.561 . S
C2001 C1998 1.526 . S
C2001 C2002 1.396 . S
C2001 C2006 1.390 . S
C2002 C1996 1.465 . S
C2002 C2001 1.396 . S
C2002 C2003 1.399 . S
C2003 H1989 0.929 . S
C2003 C2002 1.399 . S
C2003 C2004 1.385 . S
C2004 H1990 0.931 . S
C2004 C2003 1.385 . S
C2004 C2005 1.389 . S
C2005 C2004 1.389 . S
C2005 C2006 1.387 . S
C2006 H1991 0.930 . S
C2006 C2001 1.390 . S
C2006 C2005 1.387 . S
H2007 C2019 0.930 . S
H2008 C2021 0.930 . S
H2009 C2022 0.930 . S
H2010 C2026 0.959 . S
H2011 C2026 0.959 . S
H2012 C2026 0.961 . S
H2013 C2027 0.960 . S
H2014 C2027 0.961 . S
H2015 C2027 0.959 . S
H2016 C2030 0.929 . S
H2017 C2031 0.931 . S
H2018 C2033 0.930 . S
C2019 H2007 0.930 . S
C2019 C2020 1.399 . S
C2019 C2024 1.399 . S
C2020 C2019 1.399 . S
C2020 C2021 1.376 . S
C2021 H2008 0.930 . S
C2021 C2020 1.376 . S
C2021 C2022 1.388 . S
C2022 H2009 0.930 . S
C2022 C2021 1.388 . S
C2022 C2023 1.390 . S
C2023 C2022 1.390 . S
C2023 C2024 1.394 . S
C2023 C2029 1.465 . S
C2024 C2019 1.399 . S
C2024 C2023 1.394 . S
C2024 C2025 1.516 . S
C2025 C2024 1.516 . S
C2025 C2026 1.502 . S
C2025 C2027 1.561 . S
C2025 C2028 1.526 . S
C2026 H2010 0.959 . S
C2026 H2011 0.959 . S
C2026 H2012 0.961 . S
C2026 C2025 1.502 . S
C2027 H2013 0.960 . S
C2027 H2014 0.961 . S
C2027 H2015 0.959 . S
C2027 C2025 1.561 . S
C2028 C2025 1.526 . S
C2028 C2029 1.396 . S
C2028 C2033 1.390 . S
C2029 C2023 1.465 . S
C2029 C2028 1.396 . S
C2029 C2030 1.399 . S
C2030 H2016 0.929 . S
C2030 C2029 1.399 . S
C2030 C2031 1.385 . S
C2031 H2017 0.931 . S
C2031 C2030 1.385 . S
C2031 C2032 1.389 . S
C2032 C2031 1.389 . S
C2032 C2033 1.387 . S
C2033 H2018 0.930 . S
C2033 C2028 1.390 . S
C2033 C2032 1.387 . S
C589 C162 1.645 . S
C601 C225 1.659 . S
C616 C174 1.767 . S
C628 C265 1.780 . S
C643 C150 1.569 . S
C655 C304 1.580 . S
C670 C138 1.487 . S
C682 C264 1.397 1_556 S
C709 C305 1.482 . S
C697 C114 1.498 . S
C724 C126 1.347 . S
C736 C224 1.312 . S
C763 C235 1.612 . S
C751 C136 1.658 . S
C790 C275 1.617 . S
C778 C112 1.662 . S
C805 C124 1.607 . S
C817 C314 1.682 . S
C832 C160 1.463 . S
C844 C274 1.514 . S
C859 C172 1.464 . S
C871 C315 1.399 . S
C898 C234 1.447 . S
C886 C148 1.485 . S
C925 C345 1.658 . S
C913 C18 1.648 . S
C940 C30 1.782 . S
C952 C385 1.758 . S
C967 C6 1.585 . S
C979 C424 1.590 . S
C994 C210 1.482 . S
C1006 C384 1.393 . S
C1021 C186 1.497 . S
C1033 C425 1.492 . S
C1048 C198 1.336 . S
C1060 C344 1.344 . S
C1075 C208 1.659 . S
C1087 C355 1.607 . S
C1102 C184 1.653 . S
C1114 C395 1.601 . S
C1141 C434 1.636 . S
C1129 C196 1.668 . S
C1156 C16 1.466 . S
C1168 C394 1.510 . S
C1195 C435 1.459 . S
C1183 C28 1.443 . S
C1210 C4 1.474 . S
C1222 C354 1.460 . S
C1249 C465 1.641 . S
C1237 C90 1.660 . S
C1264 C102 1.781 . S
C1276 C505 1.753 . S
C1303 C544 1.559 . S
C1291 C78 1.566 . S
C1330 C504 1.398 . S
C1318 C66 1.488 . S
C1357 C545 1.481 . S
C1345 C42 1.498 . S
C1372 C54 1.357 . S
C1384 C464 1.370 . S
C1399 C64 1.660 . S
C1411 C475 1.599 . S
C1426 C40 1.647 . S
C1438 C515 1.602 . S
C1465 C554 1.670 . S
C1453 C52 1.610 . S
C1480 C88 1.455 . S
C1492 C514 1.523 . S
C1507 C100 1.454 . S
C1519 C555 1.449 . S
C1534 C76 1.411 . S
C1546 C474 1.492 . S
C1561 C189 1.524 . S
C1573 C221 1.473 . S
C1600 C261 1.903 . S
C1588 C201 1.947 . S
C1615 C213 1.579 . S
C1627 C311 1.560 . S
C1642 C81 1.779 . S
C1654 C271 1.766 . S
C1669 C93 1.664 . S
C1681 C301 1.694 . S
C1708 C231 1.330 . S
C1696 C105 1.300 . S
C1723 C45 1.499 . S
C1735 C341 1.497 . S
C1750 C57 1.936 . S
C1762 C381 1.917 . S
C1777 C69 1.543 . S
C1789 C431 1.584 . S
C1804 C153 1.778 . S
C1816 C391 1.766 . S
C1843 C421 1.665 . S
C1831 C165 1.693 . S
C1858 C177 1.299 . S
C1870 C351 1.330 . S
C1885 C117 1.522 . S
C1897 C461 1.476 . S
C1912 C129 1.944 . S
C1924 C501 1.907 . S
C1951 C551 1.563 . S
C1939 C141 1.571 . S
C1966 C9 1.749 . S
C1978 C511 1.788 . S
C1993 C21 1.664 . S
C2005 C541 1.695 . S
C2020 C33 1.311 . S
C2032 C471 1.322 . S
