# Generated by pormake.
# Topology pth, (4,4)-cn, num edge types: 1
# Building blocks:
#     Node 0, Type 0, BuildingBlock: KUFVIS_clean_sbu_0, # of connection points: 4
#     Node 1, Type 0, BuildingBlock: KUFVIS_clean_sbu_0, # of connection points: 4
#     Node 2, Type 0, BuildingBlock: KUFVIS_clean_sbu_0, # of connection points: 4
#     Node 3, Type 1, BuildingBlock: AZAVOO_clean_linker_0, # of connection points: 4
#     Node 4, Type 1, BuildingBlock: AZAVOO_clean_linker_0, # of connection points: 4
#     Node 5, Type 1, BuildingBlock: AZAVOO_clean_linker_0, # of connection points: 4
#     Edge 6, Type (0, 1), None
#     Edge 7, Type (0, 1), None
#     Edge 8, Type (0, 1), None
#     Edge 9, Type (0, 1), None
#     Edge 10, Type (0, 1), None
#     Edge 11, Type (0, 1), None
#     Edge 12, Type (0, 1), None
#     Edge 13, Type (0, 1), None
#     Edge 14, Type (0, 1), None
#     Edge 15, Type (0, 1), None
#     Edge 16, Type (0, 1), None
#     Edge 17, Type (0, 1), None
# Relax obj value: 0.163
# Max RMSD: 0.225
# Mean RMSD: 0.162
data_MOF--net-pth--node1-KUFVIS_clean_sbu_0--node2-AZAVOO_clean_linker_0--edge1-none
_symmetry_space_group_name_H-M    P1
_symmetry_Int_Tables_number       1
_symmetry_cell_setting            triclinic
loop_
_symmetry_equiv_pos_as_xyz
'x, y, z'
_cell_length_a     13.819268
_cell_length_b     14.076865
_cell_length_c     38.323764
_cell_angle_alpha  93.221586
_cell_angle_beta   90.273185
_cell_angle_gamma 120.24802
loop_
_atom_site_label
_atom_site_type_symbol
_atom_site_fract_x
_atom_site_fract_y
_atom_site_fract_z
_atom_type_partial_charge
Mn0 Mn 0.11477 0.11297 0.09935 0.0
Mn1 Mn 0.99883 0.25647 0.07094 0.0
C2 C 0.01634 0.05765 0.04667 0.0
C3 C 0.10087 0.98242 0.13538 0.0
C4 C 0.24502 0.32572 0.06404 0.0
O5 O 0.12676 0.20974 0.14216 0.0
O6 O 0.02317 0.27964 0.12299 0.0
C7 C 0.77908 0.14799 0.10436 0.0
N8 N 0.83977 0.18234 0.07515 0.0
C9 C 0.67299 0.12573 0.03965 0.0
C10 C 0.60909 0.09178 0.06953 0.0
C11 C 0.66238 0.10256 0.102 0.0
C12 C 0.78941 0.17302 0.04378 0.0
H13 H 0.8194 0.15484 0.12917 0.0
C14 C 0.07448 0.26143 0.14734 0.0
O15 O 0.19826 0.05772 0.12547 0.0
O16 O 0.01265 0.98223 0.12366 0.0
N17 N 0.96668 0.23798 0.02156 0.0
C18 C 0.03618 0.25159 0.99483 0.0
C19 C 0.99258 0.22626 0.96029 0.0
C20 C 0.87987 0.19337 0.95332 0.0
C21 C 0.80968 0.17939 0.98119 0.0
C22 C 0.85661 0.20157 0.01525 0.0
H23 H 0.12273 0.27597 -0.00011 0.0
O24 O 0.08385 0.02301 0.05494 0.0
O25 O 0.00161 0.11825 0.07073 0.0
O26 O 0.24179 0.24248 0.07663 0.0
O27 O 0.16174 0.3416 0.06383 0.0
C28 C 0.69342 0.13629 0.97652 0.0
C29 C 0.62519 0.11024 0.00577 0.0
H30 H 0.51882 0.05503 0.06771 0.0
H31 H 0.61353 0.07523 0.12512 0.0
H32 H 0.04531 0.23 0.93914 0.0
H33 H 0.84701 0.17448 0.92657 0.0
H34 H 0.65503 0.11909 0.95049 0.0
H35 H 0.53549 0.07429 0.0018 0.0
Mn36 Mn 0.07769 0.10495 0.43153 0.0
Mn37 Mn 0.2346 0.36226 0.46983 0.0
C38 C 0.20379 0.1358 0.47612 0.0
C39 C 0.05353 0.96346 0.39182 0.0
C40 C 0.00215 0.19962 0.49228 0.0
O41 O 0.05388 0.19704 0.39649 0.0
O42 O 0.15735 0.36113 0.426 0.0
C43 C 0.39958 0.444 0.41383 0.0
N44 N 0.37676 0.43192 0.44837 0.0
C45 C 0.57323 0.53239 0.46499 0.0
C46 C 0.59881 0.54788 0.42965 0.0
C47 C 0.51156 0.50273 0.40395 0.0
C48 C 0.4601 0.4725 0.4732 0.0
H49 H 0.33295 0.40867 0.39397 0.0
C50 C 0.09475 0.30121 0.39978 0.0
O51 O 0.96759 0.9613 0.40629 0.0
O52 O 0.14927 0.05376 0.39673 0.0
N53 N 0.31806 0.38443 0.51231 0.0
C54 C 0.27892 0.36568 0.54521 0.0
C55 C 0.35473 0.41056 0.57399 0.0
C56 C 0.47048 0.47094 0.56892 0.0
C57 C 0.50897 0.49116 0.53486 0.0
C58 C 0.42886 0.44953 0.50717 0.0
H59 H 0.19026 0.3206 0.54963 0.0
O60 O 0.12093 0.0386 0.46716 0.0
O61 O 0.21595 0.21589 0.45739 0.0
O62 O 0.97915 0.1253 0.46766 0.0
O63 O 0.09244 0.29332 0.49436 0.0
C64 C 0.62331 0.55338 0.52733 0.0
C65 C 0.65548 0.57315 0.49238 0.0
H66 H 0.68507 0.59334 0.42193 0.0
H67 H 0.53059 0.51324 0.37659 0.0
H68 H 0.32298 0.40185 0.59989 0.0
H69 H 0.52865 0.50416 0.59135 0.0
H70 H 0.68717 0.58635 0.54821 0.0
H71 H 0.74367 0.62021 0.48687 0.0
Mn72 Mn 0.15458 0.15888 0.77259 0.0
Mn73 Mn 0.04724 0.3096 0.80712 0.0
C74 C 0.26 0.29689 0.8157 0.0
C75 C 0.27619 0.13032 0.73716 0.0
C76 C 0.96646 0.07453 0.82561 0.0
O77 O 0.0413 0.13544 0.73344 0.0
O78 O 0.97036 0.22882 0.76216 0.0
C79 C 0.12542 0.46545 0.751 0.0
N80 N 0.1118 0.44756 0.78565 0.0
C81 C 0.19136 0.64163 0.80081 0.0
C82 C 0.20129 0.66122 0.76519 0.0
C83 C 0.16932 0.57277 0.74018 0.0
C84 C 0.14543 0.53254 0.80994 0.0
H85 H 0.10406 0.39834 0.73182 0.0
C86 C 0.97172 0.16992 0.73574 0.0
O87 O 0.19009 0.04811 0.75015 0.0
O88 O 0.28394 0.22582 0.74156 0.0
N89 N 0.10992 0.39832 0.85074 0.0
C90 C 0.10606 0.36517 0.88487 0.0
C91 C 0.14401 0.45018 0.91179 0.0
C92 C 0.18334 0.56078 0.90531 0.0
C93 C 0.1839 0.59125 0.87125 0.0
C94 C 0.14354 0.5086 0.84432 0.0
H95 H 0.09445 0.34656 0.85786 0.0
O96 O 0.26209 0.20596 0.81237 0.0
O97 O 0.18354 0.30026 0.79623 0.0
O98 O 0.02615 0.05888 0.8034 0.0
O99 O 0.97267 0.16802 0.8311 0.0
C100 C 0.22572 0.70117 0.86293 0.0
C101 C 0.2297 0.72646 0.82768 0.0
H102 H 0.23645 0.74414 0.7568 0.0
H103 H 0.17947 0.58737 0.71266 0.0
H104 H 0.14483 0.43025 0.93855 0.0
H105 H 0.21372 0.62237 0.9271 0.0
H106 H 0.25777 0.76714 0.88337 0.0
H107 H 0.265 0.81157 0.82149 0.0
H108 H 0.90631 0.43141 0.03597 0.0
H109 H 0.15802 0.29205 0.29894 0.0
H110 H 0.87633 0.30875 0.23564 0.0
H111 H 0.88819 0.20536 0.18441 0.0
H112 H 0.24894 0.39913 0.19245 0.0
H113 H 0.23676 0.50343 0.24397 0.0
H114 H 0.85934 0.45903 0.18694 0.0
H115 H 0.84444 0.41939 0.12352 0.0
H116 H 0.20593 0.58679 0.12046 0.0
H117 H 0.21943 0.62383 0.18406 0.0
H118 H 0.89129 0.71051 0.20964 0.0
H119 H 0.91355 0.84501 0.16827 0.0
H120 H 0.26349 0.94427 0.15985 0.0
H121 H 0.24192 0.81452 0.20348 0.0
H122 H 0.87041 0.74242 0.27902 0.0
H123 H 0.87294 0.91732 0.28746 0.0
H124 H 0.23522 0.09315 0.28806 0.0
H125 H 0.23129 0.91744 0.27943 0.0
H126 H 0.86346 0.61244 0.33553 0.0
H127 H 0.86675 0.76295 0.37203 0.0
H128 H 0.22874 0.93567 0.37539 0.0
H129 H 0.22461 0.78688 0.33924 0.0
H130 H 0.89853 0.33027 0.30464 0.0
H131 H 0.91964 0.22516 0.35048 0.0
H132 H 0.23463 0.513 0.3847 0.0
H133 H 0.21587 0.61378 0.33846 0.0
O134 O 0.91389 0.4403 0.06124 0.0
O135 O 0.09926 0.51676 0.06115 0.0
O136 O 0.96881 0.12754 0.29101 0.0
O137 O 0.15491 0.22172 0.29665 0.0
C138 C 0.04776 0.51329 0.25453 0.0
C139 C 0.04822 0.57917 0.22782 0.0
C140 C 0.05295 0.67913 0.23655 0.0
C141 C 0.04836 0.71115 0.27139 0.0
C142 C 0.0441 0.6447 0.29843 0.0
C143 C 0.04615 0.54559 0.29026 0.0
C144 C 0.05552 0.41536 0.24308 0.0
C145 C 0.9581 0.32431 0.22789 0.0
C146 C 0.96494 0.26773 0.19781 0.0
C147 C 0.06932 0.29938 0.18347 0.0
C148 C 0.16745 0.37557 0.20265 0.0
C149 C 0.16051 0.43339 0.23257 0.0
C150 C 0.04035 0.54357 0.19007 0.0
C151 C 0.93509 0.48531 0.17258 0.0
C152 C 0.9269 0.46347 0.13634 0.0
C153 C 0.02404 0.50162 0.11686 0.0
C154 C 0.12947 0.55717 0.13465 0.0
C155 C 0.13746 0.57806 0.17096 0.0
C156 C 0.06463 0.75262 0.20903 0.0
C157 C 0.97241 0.76104 0.19869 0.0
C158 C 0.98528 0.83715 0.17496 0.0
C159 C 0.08956 0.90281 0.16032 0.0
C160 C 0.18192 0.89355 0.1705 0.0
C161 C 0.16962 0.81926 0.19506 0.0
C162 C 0.05067 0.81733 0.27915 0.0
C163 C 0.9502 0.81879 0.28138 0.0
C164 C 0.95193 0.91879 0.28604 0.0
C165 C 0.05437 0.01931 0.2884 0.0
C166 C 0.15496 0.01733 0.28642 0.0
C167 C 0.15303 0.91719 0.28159 0.0
C168 C 0.04383 0.68816 0.33453 0.0
C169 C 0.94328 0.67952 0.34602 0.0
C170 C 0.94527 0.76734 0.36591 0.0
C171 C 0.04795 0.86383 0.37471 0.0
C172 C 0.14803 0.86438 0.36774 0.0
C173 C 0.14594 0.77682 0.34817 0.0
C174 C 0.05471 0.48108 0.31848 0.0
C175 C 0.97223 0.37022 0.32203 0.0
C176 C 0.9843 0.31012 0.34817 0.0
C177 C 0.07852 0.36042 0.37138 0.0
C178 C 0.1603 0.47134 0.3676 0.0
C179 C 0.14922 0.5301 0.34129 0.0
C180 C 0.0151 0.48624 0.0781 0.0
C181 C 0.05634 0.12583 0.29219 0.0
H182 H 0.60688 0.95622 0.37494 0.0
H183 H 0.13498 0.3722 0.67078 0.0
H184 H 0.70193 0.95332 0.55539 0.0
H185 H 0.83484 0.99568 0.50878 0.0
H186 H 0.00507 0.3398 0.54548 0.0
H187 H 0.87036 0.29653 0.59143 0.0
H188 H 0.48049 0.92665 0.52121 0.0
H189 H 0.50815 0.9067 0.45874 0.0
H190 H 0.7666 0.25049 0.46207 0.0
H191 H 0.73711 0.26946 0.52432 0.0
H192 H 0.28201 0.97944 0.56507 0.0
H193 H 0.15297 0.99852 0.52731 0.0
H194 H 0.43235 0.27261 0.48242 0.0
H195 H 0.55706 0.27786 0.52925 0.0
H196 H 0.26226 0.98575 0.6246 0.0
H197 H 0.12246 0.0364 0.64117 0.0
H198 H 0.38429 0.37835 0.65394 0.0
H199 H 0.51971 0.32861 0.63193 0.0
H200 H 0.40346 0.93365 0.67015 0.0
H201 H 0.27031 0.94158 0.71045 0.0
H202 H 0.48863 0.29364 0.72675 0.0
H203 H 0.61992 0.28529 0.68678 0.0
H204 H 0.71575 0.96145 0.64279 0.0
H205 H 0.85401 0.98664 0.68905 0.0
H206 H 0.91267 0.31453 0.71513 0.0
H207 H 0.78293 0.29159 0.66838 0.0
O208 O 0.59618 0.9662 0.39953 0.0
O209 O 0.73024 0.14271 0.40291 0.0
O210 O 0.05763 0.1786 0.64854 0.0
O211 O 0.18902 0.34847 0.6671 0.0
C212 C 0.66965 0.10863 0.59031 0.0
C213 C 0.59296 0.1091 0.56564 0.0
C214 C 0.50342 0.12158 0.57714 0.0
C215 C 0.4849 0.12551 0.6131 0.0
C216 C 0.55426 0.11418 0.63781 0.0
C217 C 0.65048 0.11067 0.62667 0.0
C218 C 0.77568 0.12192 0.57666 0.0
C219 C 0.77113 0.03698 0.55436 0.0
C220 C 0.845 0.06206 0.52698 0.0
C221 C 0.92675 0.17213 0.52217 0.0
C222 C 0.94059 0.25466 0.5476 0.0
C223 C 0.86571 0.22965 0.57466 0.0
C224 C 0.60771 0.09904 0.52737 0.0
C225 C 0.5427 0.99754 0.50833 0.0
C226 C 0.55886 0.98641 0.47269 0.0
C227 C 0.6401 0.07686 0.45545 0.0
C228 C 0.70372 0.17903 0.47455 0.0
C229 C 0.68737 0.19 0.51014 0.0
C230 C 0.4281 0.13026 0.5515 0.0
C231 C 0.31439 0.05022 0.54952 0.0
C232 C 0.24122 0.0602 0.52727 0.0
C233 C 0.28195 0.14357 0.50362 0.0
C234 C 0.39742 0.21684 0.50301 0.0
C235 C 0.46922 0.2153 0.52844 0.0
C236 C 0.39998 0.15402 0.62533 0.0
C237 C 0.28836 0.07197 0.62957 0.0
C238 C 0.20911 0.10091 0.63962 0.0
C239 C 0.24173 0.21202 0.64752 0.0
C240 C 0.35568 0.29257 0.64665 0.0
C241 C 0.4332 0.26446 0.63413 0.0
C242 C 0.52163 0.10903 0.67495 0.0
C243 C 0.42628 0.01148 0.6842 0.0
C244 C 0.34852 0.01645 0.70655 0.0
C245 C 0.36617 0.11907 0.72 0.0
C246 C 0.47062 0.21372 0.71559 0.0
C247 C 0.5484 0.20853 0.69358 0.0
C248 C 0.73658 0.12369 0.65295 0.0
C249 C 0.75975 0.03892 0.65842 0.0
C250 C 0.83851 0.05328 0.68475 0.0
C251 C 0.89398 0.1523 0.70595 0.0
C252 C 0.87165 0.23701 0.69954 0.0
C253 C 0.79588 0.2236 0.67304 0.0
C254 C 0.6585 0.06439 0.41773 0.0
C255 C 0.15695 0.2446 0.65481 0.0
H256 H 0.72373 0.64835 0.16681 0.0
H257 H 0.20414 0.91043 0.90258 0.0
H258 H 0.67201 0.87948 0.98925 0.0
H259 H 0.79705 0.99111 0.03804 0.0
H260 H 0.07582 0.00119 0.98496 0.0
H261 H 0.94437 0.86388 0.94044 0.0
H262 H 0.59095 0.72827 0.03219 0.0
H263 H 0.63586 0.7191 0.09314 0.0
H264 H 0.88951 0.64358 0.05966 0.0
H265 H 0.84317 0.65234 -0.00132 0.0
H266 H 0.40548 0.58666 0.98265 0.0
H267 H 0.26968 0.49497 0.02671 0.0
H268 H 0.4354 0.31403 0.0516 0.0
H269 H 0.57453 0.41079 0.00757 0.0
H270 H 0.32996 0.43578 0.9132 0.0
H271 H 0.19092 0.2382 0.90246 0.0
H272 H 0.45097 0.15992 0.91965 0.0
H273 H 0.58811 0.35665 0.93 0.0
H274 H 0.47093 0.65709 0.86446 0.0
H275 H 0.31935 0.51848 0.8249 0.0
H276 H 0.46212 0.31043 0.82766 0.0
H277 H 0.6248 0.45646 0.8601 0.0
H278 H 0.68493 0.90939 0.90637 0.0
H279 H 0.80688 0.0622 0.871 0.0
H280 H 0.94342 0.86853 0.82594 0.0
H281 H 0.82158 0.71662 0.86145 0.0
O282 O 0.71627 0.66382 0.14298 0.0
O283 O 0.85102 0.63265 0.12478 0.0
O284 O 0.1279 0.03438 0.89706 0.0
O285 O 0.25763 0.98846 0.90629 0.0
C286 C 0.71811 0.74705 0.94884 0.0
C287 C 0.66886 0.6687 0.97427 0.0
C288 C 0.57919 0.56417 0.96485 0.0
C289 C 0.55168 0.52872 0.92963 0.0
C290 C 0.60323 0.60448 0.90314 0.0
C291 C 0.68544 0.71649 0.91287 0.0
C292 C 0.79873 0.86107 0.96199 0.0
C293 C 0.76093 0.90966 0.98722 0.0
C294 C 0.83272 0.97579 0.01491 0.0
C295 C 0.94652 0.00961 0.01451 0.0
C296 C 0.98798 0.97689 0.98561 0.0
C297 C 0.91376 0.90069 0.95971 0.0
C298 C 0.71371 0.69073 0.01101 0.0
C299 C 0.65801 0.71238 0.03808 0.0
C300 C 0.68334 0.70636 0.07289 0.0
C301 C 0.76463 0.67837 0.08117 0.0
C302 C 0.82558 0.66419 0.0541 0.0
C303 C 0.80001 0.6701 0.01928 0.0
C304 C 0.49801 0.50355 0.99163 0.0
C305 C 0.41271 0.52762 -0.00219 0.0
C306 C 0.33606 0.47603 0.02339 0.0
C307 C 0.34124 0.3968 0.04285 0.0
C308 C 0.42924 0.37499 0.03724 0.0
C309 C 0.50769 0.42863 0.01182 0.0
C310 C 0.46849 0.41006 0.9216 0.0
C311 C 0.35592 0.37541 0.91431 0.0
C312 C 0.27728 0.26319 0.90839 0.0
C313 C 0.30986 0.18368 0.91012 0.0
C314 C 0.42299 0.2189 0.91791 0.0
C315 C 0.5015 0.33115 0.92374 0.0
C316 C 0.55666 0.56438 0.86686 0.0
C317 C 0.47253 0.58401 0.85489 0.0
C318 C 0.38118 0.50176 0.83435 0.0
C319 C 0.36816 0.39692 0.82823 0.0
C320 C 0.46344 0.38684 0.83436 0.0
C321 C 0.55897 0.47208 0.85218 0.0
C322 C 0.7432 0.80063 0.88653 0.0
C323 C 0.7398 0.89912 0.88841 0.0
C324 C 0.81069 0.98721 0.86841 0.0
C325 C 0.88688 0.97923 0.84589 0.0
C326 C 0.88661 0.87863 0.84303 0.0
C327 C 0.81584 0.7907 0.86309 0.0
C328 C 0.78086 0.65771 0.11761 0.0
C329 C 0.22606 0.06453 0.90406 0.0
loop_
_geom_bond_atom_site_label_1
_geom_bond_atom_site_label_2
_geom_bond_distance
_geom_bond_site_symmetry_2
_ccdc_geom_bond_type
Mn0 O5 2.095 . S
Mn0 O15 2.162 . S
Mn0 O16 2.297 1_545 S
Mn0 O24 2.385 1_545 S
Mn0 O25 2.209 1_455 S
Mn0 O26 2.094 . S
Mn1 O6 2.121 . S
Mn1 N8 2.257 1_455 S
Mn1 N17 2.282 1_455 S
Mn1 O25 2.215 1_455 S
Mn1 O27 2.117 . S
C2 O24 1.234 1_645 S
C2 O25 1.283 . S
C3 O15 1.281 1_565 S
C3 O16 1.236 . S
C4 O26 1.240 . S
C4 O27 1.264 . S
O5 Mn0 2.095 . S
O5 C14 1.250 . S
O6 Mn1 2.121 . S
O6 C14 1.258 . S
C7 N8 1.326 . S
C7 C11 1.460 . S
C7 H13 0.929 . S
N8 Mn1 2.257 1_655 S
N8 C7 1.326 . S
N8 C12 1.362 . S
C9 C10 1.258 . S
C9 C12 1.431 . S
C9 C29 1.449 1_554 S
C10 C9 1.258 . S
C10 C11 1.477 . S
C10 H30 0.931 . S
C11 C7 1.460 . S
C11 C10 1.477 . S
C11 H31 0.930 . S
C12 N8 1.362 . S
C12 C9 1.431 . S
C12 C22 1.455 1_554 S
H13 C7 0.929 . S
C14 O5 1.250 . S
C14 O6 1.258 . S
O15 Mn0 2.162 . S
O15 C3 1.281 1_545 S
O16 Mn0 2.297 1_565 S
O16 C3 1.236 . S
N17 Mn1 2.282 1_655 S
N17 C18 1.328 1_654 S
N17 C22 1.310 1_554 S
C18 N17 1.328 1_456 S
C18 C19 1.457 . S
C18 H23 0.929 . S
C19 C18 1.457 . S
C19 C20 1.291 1_455 S
C19 H32 0.931 . S
C20 C19 1.291 1_655 S
C20 C21 1.373 . S
C20 H33 0.929 . S
C21 C20 1.373 . S
C21 C22 1.424 . S
C21 C28 1.403 . S
C22 C12 1.455 1_556 S
C22 N17 1.310 1_556 S
C22 C21 1.424 . S
H23 C18 0.929 . S
O24 Mn0 2.385 1_565 S
O24 C2 1.234 1_465 S
O25 Mn0 2.209 1_655 S
O25 Mn1 2.215 1_655 S
O25 C2 1.283 . S
O26 Mn0 2.094 . S
O26 C4 1.240 . S
O27 Mn1 2.117 . S
O27 C4 1.264 . S
C28 C21 1.403 . S
C28 C29 1.399 . S
C28 H34 0.929 . S
C29 C9 1.449 1_556 S
C29 C28 1.399 . S
C29 H35 0.930 . S
H30 C10 0.931 . S
H31 C11 0.930 . S
H32 C19 0.931 . S
H33 C20 0.929 . S
H34 C28 0.929 . S
H35 C29 0.930 . S
Mn36 O41 2.095 1_455 S
Mn36 O51 2.162 1_445 S
Mn36 O52 2.297 1_545 S
Mn36 O60 2.385 1_545 S
Mn36 O61 2.209 . S
Mn36 O62 2.094 1_445 S
Mn37 O42 2.121 . S
Mn37 N44 2.257 . S
Mn37 N53 2.282 . S
Mn37 O61 2.215 . S
Mn37 O63 2.117 1_455 S
C38 O60 1.234 1_545 S
C38 O61 1.283 . S
C39 O51 1.281 1_455 S
C39 O52 1.236 . S
C40 O62 1.240 1_545 S
C40 O63 1.264 . S
O41 Mn36 2.095 1_655 S
O41 C50 1.250 1_655 S
O42 Mn37 2.121 . S
O42 C50 1.258 . S
C43 N44 1.326 . S
C43 C47 1.460 . S
C43 H49 0.929 . S
N44 Mn37 2.257 . S
N44 C43 1.326 . S
N44 C48 1.362 . S
C45 C46 1.258 . S
C45 C48 1.431 . S
C45 C65 1.449 . S
C46 C45 1.258 . S
C46 C47 1.477 . S
C46 H66 0.931 . S
C47 C43 1.460 . S
C47 C46 1.477 . S
C47 H67 0.930 . S
C48 N44 1.362 . S
C48 C45 1.431 . S
C48 C58 1.476 . S
H49 C43 0.929 . S
C50 O41 1.250 1_455 S
C50 O42 1.258 . S
O51 Mn36 2.162 1_665 S
O51 C39 1.281 1_655 S
O52 Mn36 2.297 1_565 S
O52 C39 1.236 . S
N53 Mn37 2.282 . S
N53 C54 1.328 . S
N53 C58 1.318 . S
C54 N53 1.328 . S
C54 C55 1.457 . S
C54 H59 0.929 . S
C55 C54 1.457 . S
C55 C56 1.291 . S
C55 H68 0.931 . S
C56 C55 1.291 . S
C56 C57 1.373 . S
C56 H69 0.929 . S
C57 C56 1.373 . S
C57 C58 1.396 . S
C57 C64 1.403 . S
C58 C48 1.476 . S
C58 N53 1.318 . S
C58 C57 1.396 . S
H59 C54 0.929 . S
O60 Mn36 2.385 1_565 S
O60 C38 1.234 1_565 S
O61 Mn36 2.209 . S
O61 Mn37 2.215 . S
O61 C38 1.283 . S
O62 Mn36 2.094 1_665 S
O62 C40 1.240 1_565 S
O63 Mn37 2.117 1_655 S
O63 C40 1.264 . S
C64 C57 1.403 . S
C64 C65 1.399 . S
C64 H70 0.929 . S
C65 C45 1.449 . S
C65 C64 1.399 . S
C65 H71 0.930 . S
H66 C46 0.931 . S
H67 C47 0.930 . S
H68 C55 0.931 . S
H69 C56 0.929 . S
H70 C64 0.929 . S
H71 C65 0.930 . S
Mn72 O77 2.095 . S
Mn72 O87 2.162 . S
Mn72 O88 2.297 . S
Mn72 O96 2.385 . S
Mn72 O97 2.209 . S
Mn72 O98 2.094 . S
Mn73 O78 2.121 . S
Mn73 N80 2.257 . S
Mn73 N89 2.282 . S
Mn73 O97 2.215 . S
Mn73 O99 2.117 . S
C74 O96 1.234 . S
C74 O97 1.283 . S
C75 O87 1.281 . S
C75 O88 1.236 . S
C76 O98 1.240 . S
C76 O99 1.264 . S
O77 Mn72 2.095 . S
O77 C86 1.250 . S
O78 Mn73 2.121 . S
O78 C86 1.258 . S
C79 N80 1.326 . S
C79 C83 1.460 . S
C79 H85 0.929 . S
N80 Mn73 2.257 . S
N80 C79 1.326 . S
N80 C84 1.362 . S
C81 C82 1.258 . S
C81 C84 1.431 . S
C81 C101 1.449 . S
C82 C81 1.258 . S
C82 C83 1.477 . S
C82 H102 0.931 . S
C83 C79 1.460 . S
C83 C82 1.477 . S
C83 H103 0.930 . S
C84 N80 1.362 . S
C84 C81 1.431 . S
C84 C94 1.476 . S
H85 C79 0.929 . S
C86 O77 1.250 . S
C86 O78 1.258 . S
O87 Mn72 2.162 . S
O87 C75 1.281 . S
O88 Mn72 2.297 . S
O88 C75 1.236 . S
N89 Mn73 2.282 . S
N89 C90 1.328 . S
N89 C94 1.318 . S
C90 N89 1.328 . S
C90 C91 1.457 . S
C90 H95 0.929 . S
C91 C90 1.457 . S
C91 C92 1.291 . S
C91 H104 0.931 . S
C92 C91 1.291 . S
C92 C93 1.373 . S
C92 H105 0.929 . S
C93 C92 1.373 . S
C93 C94 1.396 . S
C93 C100 1.403 . S
C94 C84 1.476 . S
C94 N89 1.318 . S
C94 C93 1.396 . S
H95 C90 0.929 . S
O96 Mn72 2.385 . S
O96 C74 1.234 . S
O97 Mn72 2.209 . S
O97 Mn73 2.215 . S
O97 C74 1.283 . S
O98 Mn72 2.094 . S
O98 C76 1.240 . S
O99 Mn73 2.117 . S
O99 C76 1.264 . S
C100 C93 1.403 . S
C100 C101 1.399 . S
C100 H106 0.929 . S
C101 C81 1.449 . S
C101 C100 1.399 . S
C101 H107 0.930 . S
H102 C82 0.931 . S
H103 C83 0.930 . S
H104 C91 0.931 . S
H105 C92 0.929 . S
H106 C100 0.929 . S
H107 C101 0.930 . S
H108 O134 0.856 . S
H109 O137 0.854 . S
H110 C145 0.930 . S
H111 C146 0.930 . S
H112 C148 0.930 . S
H113 C149 0.930 . S
H114 C151 0.931 1_655 S
H115 C152 0.930 1_655 S
H116 C154 0.930 . S
H117 C155 0.929 . S
H118 C157 0.930 1_655 S
H119 C158 0.931 1_655 S
H120 C160 0.930 . S
H121 C161 0.929 . S
H122 C163 0.931 . S
H123 C164 0.930 . S
H124 C166 0.930 . S
H125 C167 0.932 . S
H126 C169 0.930 . S
H127 C170 0.929 . S
H128 C172 0.931 . S
H129 C173 0.930 . S
H130 C175 0.929 . S
H131 C176 0.931 . S
H132 C178 0.930 . S
H133 C179 0.929 . S
O134 H108 0.856 . S
O134 C180 1.300 . S
O135 C180 1.209 . S
O136 C181 1.199 1_655 S
O137 H109 0.854 . S
O137 C181 1.297 . S
C138 C139 1.404 . S
C138 C143 1.397 . S
C138 C144 1.492 . S
C139 C138 1.404 . S
C139 C140 1.396 . S
C139 C150 1.492 . S
C140 C139 1.396 . S
C140 C141 1.397 . S
C140 C156 1.509 . S
C141 C140 1.397 . S
C141 C142 1.412 . S
C141 C162 1.485 . S
C142 C141 1.412 . S
C142 C143 1.388 . S
C142 C168 1.490 . S
C143 C138 1.397 . S
C143 C142 1.388 . S
C143 C174 1.519 . S
C144 C138 1.492 . S
C144 C145 1.363 1_455 S
C144 C149 1.390 . S
C145 H110 0.930 . S
C145 C144 1.363 1_655 S
C145 C146 1.372 . S
C146 H111 0.930 . S
C146 C145 1.372 . S
C146 C147 1.383 1_655 S
C147 C146 1.383 1_455 S
C147 C148 1.395 . S
C148 H112 0.930 . S
C148 C147 1.395 . S
C148 C149 1.362 . S
C149 H113 0.930 . S
C149 C144 1.390 . S
C149 C148 1.362 . S
C150 C139 1.492 . S
C150 C151 1.377 . S
C150 C155 1.397 . S
C151 H114 0.931 1_455 S
C151 C150 1.377 . S
C151 C152 1.376 . S
C152 H115 0.930 1_455 S
C152 C151 1.376 . S
C152 C153 1.376 . S
C153 C152 1.376 . S
C153 C154 1.378 . S
C153 C180 1.486 . S
C154 H116 0.930 . S
C154 C153 1.378 . S
C154 C155 1.376 . S
C155 H117 0.929 . S
C155 C150 1.397 . S
C155 C154 1.376 . S
C156 C140 1.509 . S
C156 C157 1.391 . S
C156 C161 1.386 . S
C157 H118 0.930 1_455 S
C157 C156 1.391 . S
C157 C158 1.375 . S
C158 H119 0.931 1_455 S
C158 C157 1.375 . S
C158 C159 1.375 . S
C159 C158 1.375 . S
C159 C160 1.361 . S
C160 H120 0.930 . S
C160 C159 1.361 . S
C160 C161 1.399 . S
C161 H121 0.929 . S
C161 C156 1.386 . S
C161 C160 1.399 . S
C162 C141 1.485 . S
C162 C163 1.394 1_455 S
C162 C167 1.360 . S
C163 H122 0.931 . S
C163 C162 1.394 1_655 S
C163 C164 1.372 . S
C164 H123 0.930 . S
C164 C163 1.372 . S
C164 C165 1.397 1_665 S
C165 C164 1.397 1_445 S
C165 C166 1.390 . S
C165 C181 1.476 . S
C166 H124 0.930 . S
C166 C165 1.390 . S
C166 C167 1.366 1_545 S
C167 H125 0.932 . S
C167 C162 1.360 . S
C167 C166 1.366 1_565 S
C168 C142 1.490 . S
C168 C169 1.380 1_455 S
C168 C173 1.386 . S
C169 H126 0.930 . S
C169 C168 1.380 1_655 S
C169 C170 1.381 . S
C170 H127 0.929 . S
C170 C169 1.381 . S
C170 C171 1.371 . S
C171 C170 1.371 . S
C171 C172 1.380 1_655 S
C172 H128 0.931 . S
C172 C171 1.380 1_455 S
C172 C173 1.387 . S
C173 H129 0.930 . S
C173 C168 1.386 . S
C173 C172 1.387 . S
C174 C143 1.519 . S
C174 C175 1.377 1_455 S
C174 C179 1.361 . S
C175 H130 0.929 . S
C175 C174 1.377 1_655 S
C175 C176 1.386 . S
C176 H131 0.931 . S
C176 C175 1.386 . S
C176 C177 1.363 1_655 S
C177 C176 1.363 1_455 S
C177 C178 1.385 . S
C178 H132 0.930 . S
C178 C177 1.385 . S
C178 C179 1.396 . S
C179 H133 0.929 . S
C179 C174 1.361 . S
C179 C178 1.396 . S
C180 O134 1.300 . S
C180 O135 1.209 . S
C180 C153 1.486 . S
C181 O136 1.199 1_455 S
C181 O137 1.297 . S
C181 C165 1.476 . S
H182 O208 0.856 . S
H183 O211 0.854 . S
H184 C219 0.930 1_565 S
H185 C220 0.930 1_565 S
H186 C222 0.930 1_455 S
H187 C223 0.930 . S
H188 C225 0.931 . S
H189 C226 0.930 1_565 S
H190 C228 0.930 . S
H191 C229 0.929 . S
H192 C231 0.930 . S
H193 C232 0.931 . S
H194 C234 0.930 . S
H195 C235 0.929 . S
H196 C237 0.931 . S
H197 C238 0.930 . S
H198 C240 0.930 . S
H199 C241 0.932 . S
H200 C243 0.930 . S
H201 C244 0.929 . S
H202 C246 0.931 . S
H203 C247 0.930 . S
H204 C249 0.929 . S
H205 C250 0.931 . S
H206 C252 0.930 . S
H207 C253 0.929 . S
O208 H182 0.856 . S
O208 C254 1.300 . S
O209 C254 1.209 . S
O210 C255 1.199 . S
O211 H183 0.854 . S
O211 C255 1.297 . S
C212 C213 1.404 . S
C212 C217 1.397 . S
C212 C218 1.492 . S
C213 C212 1.404 . S
C213 C214 1.396 . S
C213 C224 1.492 . S
C214 C213 1.396 . S
C214 C215 1.397 . S
C214 C230 1.509 . S
C215 C214 1.397 . S
C215 C216 1.412 . S
C215 C236 1.485 . S
C216 C215 1.412 . S
C216 C217 1.388 . S
C216 C242 1.490 . S
C217 C212 1.397 . S
C217 C216 1.388 . S
C217 C248 1.519 . S
C218 C212 1.492 . S
C218 C219 1.363 . S
C218 C223 1.390 . S
C219 H184 0.930 1_545 S
C219 C218 1.363 . S
C219 C220 1.372 . S
C220 H185 0.930 1_545 S
C220 C219 1.372 . S
C220 C221 1.383 . S
C221 C220 1.383 . S
C221 C222 1.395 . S
C222 H186 0.930 1_655 S
C222 C221 1.395 . S
C222 C223 1.362 . S
C223 H187 0.930 . S
C223 C218 1.390 . S
C223 C222 1.362 . S
C224 C213 1.492 . S
C224 C225 1.377 . S
C224 C229 1.397 . S
C225 H188 0.931 . S
C225 C224 1.377 . S
C225 C226 1.376 . S
C226 H189 0.930 1_545 S
C226 C225 1.376 . S
C226 C227 1.376 . S
C227 C226 1.376 . S
C227 C228 1.378 . S
C227 C254 1.486 . S
C228 H190 0.930 . S
C228 C227 1.378 . S
C228 C229 1.376 . S
C229 H191 0.929 . S
C229 C224 1.397 . S
C229 C228 1.376 . S
C230 C214 1.509 . S
C230 C231 1.391 . S
C230 C235 1.386 . S
C231 H192 0.930 . S
C231 C230 1.391 . S
C231 C232 1.375 . S
C232 H193 0.931 . S
C232 C231 1.375 . S
C232 C233 1.375 . S
C233 C232 1.375 . S
C233 C234 1.361 . S
C234 H194 0.930 . S
C234 C233 1.361 . S
C234 C235 1.399 . S
C235 H195 0.929 . S
C235 C230 1.386 . S
C235 C234 1.399 . S
C236 C215 1.485 . S
C236 C237 1.394 . S
C236 C241 1.360 . S
C237 H196 0.931 . S
C237 C236 1.394 . S
C237 C238 1.372 . S
C238 H197 0.930 . S
C238 C237 1.372 . S
C238 C239 1.397 . S
C239 C238 1.397 . S
C239 C240 1.390 . S
C239 C255 1.476 . S
C240 H198 0.930 . S
C240 C239 1.390 . S
C240 C241 1.366 . S
C241 H199 0.932 . S
C241 C236 1.360 . S
C241 C240 1.366 . S
C242 C216 1.490 . S
C242 C243 1.380 . S
C242 C247 1.386 . S
C243 H200 0.930 . S
C243 C242 1.380 . S
C243 C244 1.381 . S
C244 H201 0.929 . S
C244 C243 1.381 . S
C244 C245 1.371 . S
C245 C244 1.371 . S
C245 C246 1.380 . S
C246 H202 0.931 . S
C246 C245 1.380 . S
C246 C247 1.387 . S
C247 H203 0.930 . S
C247 C242 1.386 . S
C247 C246 1.387 . S
C248 C217 1.519 . S
C248 C249 1.377 . S
C248 C253 1.361 . S
C249 H204 0.929 . S
C249 C248 1.377 . S
C249 C250 1.386 . S
C250 H205 0.931 . S
C250 C249 1.386 . S
C250 C251 1.363 . S
C251 C250 1.363 . S
C251 C252 1.385 . S
C252 H206 0.930 . S
C252 C251 1.385 . S
C252 C253 1.396 . S
C253 H207 0.929 . S
C253 C248 1.361 . S
C253 C252 1.396 . S
C254 O208 1.300 . S
C254 O209 1.209 . S
C254 C227 1.486 . S
C255 O210 1.199 . S
C255 O211 1.297 . S
C255 C239 1.476 . S
H256 O282 0.856 . S
H257 O285 0.854 1_565 S
H258 C293 0.930 . S
H259 C294 0.930 . S
H260 C296 0.930 1_455 S
H261 C297 0.930 . S
H262 C299 0.931 . S
H263 C300 0.930 . S
H264 C302 0.930 . S
H265 C303 0.929 . S
H266 C305 0.930 . S
H267 C306 0.931 . S
H268 C308 0.930 . S
H269 C309 0.929 . S
H270 C311 0.931 . S
H271 C312 0.930 . S
H272 C314 0.930 . S
H273 C315 0.932 . S
H274 C317 0.930 . S
H275 C318 0.929 . S
H276 C320 0.931 . S
H277 C321 0.930 . S
H278 C323 0.929 . S
H279 C324 0.931 1_545 S
H280 C326 0.930 . S
H281 C327 0.929 . S
O282 H256 0.856 . S
O282 C328 1.300 . S
O283 C328 1.209 . S
O284 C329 1.199 . S
O285 H257 0.854 1_545 S
O285 C329 1.297 . S
C286 C287 1.404 . S
C286 C291 1.397 . S
C286 C292 1.492 . S
C287 C286 1.404 . S
C287 C288 1.396 . S
C287 C298 1.492 1_556 S
C288 C287 1.396 . S
C288 C289 1.397 . S
C288 C304 1.509 1_556 S
C289 C288 1.397 . S
C289 C290 1.412 . S
C289 C310 1.485 . S
C290 C289 1.412 . S
C290 C291 1.388 . S
C290 C316 1.490 . S
C291 C286 1.397 . S
C291 C290 1.388 . S
C291 C322 1.519 . S
C292 C286 1.492 . S
C292 C293 1.363 . S
C292 C297 1.390 . S
C293 H258 0.930 . S
C293 C292 1.363 . S
C293 C294 1.372 1_566 S
C294 H259 0.930 . S
C294 C293 1.372 1_544 S
C294 C295 1.383 . S
C295 C294 1.383 . S
C295 C296 1.395 1_544 S
C296 H260 0.930 1_655 S
C296 C295 1.395 1_566 S
C296 C297 1.362 . S
C297 H261 0.930 . S
C297 C292 1.390 . S
C297 C296 1.362 . S
C298 C287 1.492 1_554 S
C298 C299 1.377 . S
C298 C303 1.397 . S
C299 H262 0.931 . S
C299 C298 1.377 . S
C299 C300 1.376 . S
C300 H263 0.930 . S
C300 C299 1.376 . S
C300 C301 1.376 . S
C301 C300 1.376 . S
C301 C302 1.378 . S
C301 C328 1.486 . S
C302 H264 0.930 . S
C302 C301 1.378 . S
C302 C303 1.376 . S
C303 H265 0.929 . S
C303 C298 1.397 . S
C303 C302 1.376 . S
C304 C288 1.509 1_554 S
C304 C305 1.391 . S
C304 C309 1.386 . S
C305 H266 0.930 . S
C305 C304 1.391 . S
C305 C306 1.375 . S
C306 H267 0.931 . S
C306 C305 1.375 . S
C306 C307 1.375 . S
C307 C306 1.375 . S
C307 C308 1.361 . S
C308 H268 0.930 . S
C308 C307 1.361 . S
C308 C309 1.399 . S
C309 H269 0.929 . S
C309 C304 1.386 . S
C309 C308 1.399 . S
C310 C289 1.485 . S
C310 C311 1.394 . S
C310 C315 1.360 . S
C311 H270 0.931 . S
C311 C310 1.394 . S
C311 C312 1.372 . S
C312 H271 0.930 . S
C312 C311 1.372 . S
C312 C313 1.397 . S
C313 C312 1.397 . S
C313 C314 1.390 . S
C313 C329 1.476 . S
C314 H272 0.930 . S
C314 C313 1.390 . S
C314 C315 1.366 . S
C315 H273 0.932 . S
C315 C310 1.360 . S
C315 C314 1.366 . S
C316 C290 1.490 . S
C316 C317 1.380 . S
C316 C321 1.386 . S
C317 H274 0.930 . S
C317 C316 1.380 . S
C317 C318 1.381 . S
C318 H275 0.929 . S
C318 C317 1.381 . S
C318 C319 1.371 . S
C319 C318 1.371 . S
C319 C320 1.380 . S
C320 H276 0.931 . S
C320 C319 1.380 . S
C320 C321 1.387 . S
C321 H277 0.930 . S
C321 C316 1.386 . S
C321 C320 1.387 . S
C322 C291 1.519 . S
C322 C323 1.377 . S
C322 C327 1.361 . S
C323 H278 0.929 . S
C323 C322 1.377 . S
C323 C324 1.386 . S
C324 H279 0.931 1_565 S
C324 C323 1.386 . S
C324 C325 1.363 . S
C325 C324 1.363 . S
C325 C326 1.385 . S
C326 H280 0.930 . S
C326 C325 1.385 . S
C326 C327 1.396 . S
C327 H281 0.929 . S
C327 C322 1.361 . S
C327 C326 1.396 . S
C328 O282 1.300 . S
C328 O283 1.209 . S
C328 C301 1.486 . S
C329 O284 1.199 . S
C329 O285 1.297 . S
C329 C313 1.476 . S
C147 C14 2.543 . S
C40 C221 2.144 . S
C76 C325 2.411 1_445 S
C3 C159 0.630 . S
C233 C38 1.279 . S
C74 C319 2.611 . S
C251 C86 2.390 1_655 S
C2 C295 2.246 . S
C171 C39 2.476 1_655 S
C245 C75 2.315 . S
C307 C4 0.634 . S
C50 C177 2.460 . S
