# Generated by pormake.
# Topology llk, (3,12)-cn, num edge types: 1
# Building blocks:
#     Node 0, Type 0, BuildingBlock: QEWDON_clean_linker_0, # of connection points: 3
#     Node 1, Type 0, BuildingBlock: QEWDON_clean_linker_0, # of connection points: 3
#     Node 2, Type 0, BuildingBlock: QEWDON_clean_linker_0, # of connection points: 3
#     Node 3, Type 0, BuildingBlock: QEWDON_clean_linker_0, # of connection points: 3
#     Node 4, Type 0, BuildingBlock: QEWDON_clean_linker_0, # of connection points: 3
#     Node 5, Type 0, BuildingBlock: QEWDON_clean_linker_0, # of connection points: 3
#     Node 6, Type 0, BuildingBlock: QEWDON_clean_linker_0, # of connection points: 3
#     Node 7, Type 0, BuildingBlock: QEWDON_clean_linker_0, # of connection points: 3
#     Node 8, Type 0, BuildingBlock: QEWDON_clean_linker_0, # of connection points: 3
#     Node 9, Type 0, BuildingBlock: QEWDON_clean_linker_0, # of connection points: 3
#     Node 10, Type 0, BuildingBlock: QEWDON_clean_linker_0, # of connection points: 3
#     Node 11, Type 0, BuildingBlock: QEWDON_clean_linker_0, # of connection points: 3
#     Node 12, Type 0, BuildingBlock: QEWDON_clean_linker_0, # of connection points: 3
#     Node 13, Type 0, BuildingBlock: QEWDON_clean_linker_0, # of connection points: 3
#     Node 14, Type 0, BuildingBlock: QEWDON_clean_linker_0, # of connection points: 3
#     Node 15, Type 0, BuildingBlock: QEWDON_clean_linker_0, # of connection points: 3
#     Node 16, Type 0, BuildingBlock: QEWDON_clean_linker_0, # of connection points: 3
#     Node 17, Type 0, BuildingBlock: QEWDON_clean_linker_0, # of connection points: 3
#     Node 18, Type 0, BuildingBlock: QEWDON_clean_linker_0, # of connection points: 3
#     Node 19, Type 0, BuildingBlock: QEWDON_clean_linker_0, # of connection points: 3
#     Node 20, Type 0, BuildingBlock: QEWDON_clean_linker_0, # of connection points: 3
#     Node 21, Type 0, BuildingBlock: QEWDON_clean_linker_0, # of connection points: 3
#     Node 22, Type 0, BuildingBlock: QEWDON_clean_linker_0, # of connection points: 3
#     Node 23, Type 0, BuildingBlock: QEWDON_clean_linker_0, # of connection points: 3
#     Node 24, Type 1, BuildingBlock: EZIPEK_clean_sbu_0, # of connection points: 12
#     Node 25, Type 1, BuildingBlock: EZIPEK_clean_sbu_0, # of connection points: 12
#     Node 26, Type 1, BuildingBlock: EZIPEK_clean_sbu_0, # of connection points: 12
#     Node 27, Type 1, BuildingBlock: EZIPEK_clean_sbu_0, # of connection points: 12
#     Node 28, Type 1, BuildingBlock: EZIPEK_clean_sbu_0, # of connection points: 12
#     Node 29, Type 1, BuildingBlock: EZIPEK_clean_sbu_0, # of connection points: 12
#     Edge 30, Type (0, 1), BuildingBlock: TEMPAE_clean_linker_10, # of connection points: 2
#     Edge 31, Type (0, 1), BuildingBlock: TEMPAE_clean_linker_10, # of connection points: 2
#     Edge 32, Type (0, 1), BuildingBlock: TEMPAE_clean_linker_10, # of connection points: 2
#     Edge 33, Type (0, 1), BuildingBlock: TEMPAE_clean_linker_10, # of connection points: 2
#     Edge 34, Type (0, 1), BuildingBlock: TEMPAE_clean_linker_10, # of connection points: 2
#     Edge 35, Type (0, 1), BuildingBlock: TEMPAE_clean_linker_10, # of connection points: 2
#     Edge 36, Type (0, 1), BuildingBlock: TEMPAE_clean_linker_10, # of connection points: 2
#     Edge 37, Type (0, 1), BuildingBlock: TEMPAE_clean_linker_10, # of connection points: 2
#     Edge 38, Type (0, 1), BuildingBlock: TEMPAE_clean_linker_10, # of connection points: 2
#     Edge 39, Type (0, 1), BuildingBlock: TEMPAE_clean_linker_10, # of connection points: 2
#     Edge 40, Type (0, 1), BuildingBlock: TEMPAE_clean_linker_10, # of connection points: 2
#     Edge 41, Type (0, 1), BuildingBlock: TEMPAE_clean_linker_10, # of connection points: 2
#     Edge 42, Type (0, 1), BuildingBlock: TEMPAE_clean_linker_10, # of connection points: 2
#     Edge 43, Type (0, 1), BuildingBlock: TEMPAE_clean_linker_10, # of connection points: 2
#     Edge 44, Type (0, 1), BuildingBlock: TEMPAE_clean_linker_10, # of connection points: 2
#     Edge 45, Type (0, 1), BuildingBlock: TEMPAE_clean_linker_10, # of connection points: 2
#     Edge 46, Type (0, 1), BuildingBlock: TEMPAE_clean_linker_10, # of connection points: 2
#     Edge 47, Type (0, 1), BuildingBlock: TEMPAE_clean_linker_10, # of connection points: 2
#     Edge 48, Type (0, 1), BuildingBlock: TEMPAE_clean_linker_10, # of connection points: 2
#     Edge 49, Type (0, 1), BuildingBlock: TEMPAE_clean_linker_10, # of connection points: 2
#     Edge 50, Type (0, 1), BuildingBlock: TEMPAE_clean_linker_10, # of connection points: 2
#     Edge 51, Type (0, 1), BuildingBlock: TEMPAE_clean_linker_10, # of connection points: 2
#     Edge 52, Type (0, 1), BuildingBlock: TEMPAE_clean_linker_10, # of connection points: 2
#     Edge 53, Type (0, 1), BuildingBlock: TEMPAE_clean_linker_10, # of connection points: 2
#     Edge 54, Type (0, 1), BuildingBlock: TEMPAE_clean_linker_10, # of connection points: 2
#     Edge 55, Type (0, 1), BuildingBlock: TEMPAE_clean_linker_10, # of connection points: 2
#     Edge 56, Type (0, 1), BuildingBlock: TEMPAE_clean_linker_10, # of connection points: 2
#     Edge 57, Type (0, 1), BuildingBlock: TEMPAE_clean_linker_10, # of connection points: 2
#     Edge 58, Type (0, 1), BuildingBlock: TEMPAE_clean_linker_10, # of connection points: 2
#     Edge 59, Type (0, 1), BuildingBlock: TEMPAE_clean_linker_10, # of connection points: 2
#     Edge 60, Type (0, 1), BuildingBlock: TEMPAE_clean_linker_10, # of connection points: 2
#     Edge 61, Type (0, 1), BuildingBlock: TEMPAE_clean_linker_10, # of connection points: 2
#     Edge 62, Type (0, 1), BuildingBlock: TEMPAE_clean_linker_10, # of connection points: 2
#     Edge 63, Type (0, 1), BuildingBlock: TEMPAE_clean_linker_10, # of connection points: 2
#     Edge 64, Type (0, 1), BuildingBlock: TEMPAE_clean_linker_10, # of connection points: 2
#     Edge 65, Type (0, 1), BuildingBlock: TEMPAE_clean_linker_10, # of connection points: 2
#     Edge 66, Type (0, 1), BuildingBlock: TEMPAE_clean_linker_10, # of connection points: 2
#     Edge 67, Type (0, 1), BuildingBlock: TEMPAE_clean_linker_10, # of connection points: 2
#     Edge 68, Type (0, 1), BuildingBlock: TEMPAE_clean_linker_10, # of connection points: 2
#     Edge 69, Type (0, 1), BuildingBlock: TEMPAE_clean_linker_10, # of connection points: 2
#     Edge 70, Type (0, 1), BuildingBlock: TEMPAE_clean_linker_10, # of connection points: 2
#     Edge 71, Type (0, 1), BuildingBlock: TEMPAE_clean_linker_10, # of connection points: 2
#     Edge 72, Type (0, 1), BuildingBlock: TEMPAE_clean_linker_10, # of connection points: 2
#     Edge 73, Type (0, 1), BuildingBlock: TEMPAE_clean_linker_10, # of connection points: 2
#     Edge 74, Type (0, 1), BuildingBlock: TEMPAE_clean_linker_10, # of connection points: 2
#     Edge 75, Type (0, 1), BuildingBlock: TEMPAE_clean_linker_10, # of connection points: 2
#     Edge 76, Type (0, 1), BuildingBlock: TEMPAE_clean_linker_10, # of connection points: 2
#     Edge 77, Type (0, 1), BuildingBlock: TEMPAE_clean_linker_10, # of connection points: 2
#     Edge 78, Type (0, 1), BuildingBlock: TEMPAE_clean_linker_10, # of connection points: 2
#     Edge 79, Type (0, 1), BuildingBlock: TEMPAE_clean_linker_10, # of connection points: 2
#     Edge 80, Type (0, 1), BuildingBlock: TEMPAE_clean_linker_10, # of connection points: 2
#     Edge 81, Type (0, 1), BuildingBlock: TEMPAE_clean_linker_10, # of connection points: 2
#     Edge 82, Type (0, 1), BuildingBlock: TEMPAE_clean_linker_10, # of connection points: 2
#     Edge 83, Type (0, 1), BuildingBlock: TEMPAE_clean_linker_10, # of connection points: 2
#     Edge 84, Type (0, 1), BuildingBlock: TEMPAE_clean_linker_10, # of connection points: 2
#     Edge 85, Type (0, 1), BuildingBlock: TEMPAE_clean_linker_10, # of connection points: 2
#     Edge 86, Type (0, 1), BuildingBlock: TEMPAE_clean_linker_10, # of connection points: 2
#     Edge 87, Type (0, 1), BuildingBlock: TEMPAE_clean_linker_10, # of connection points: 2
#     Edge 88, Type (0, 1), BuildingBlock: TEMPAE_clean_linker_10, # of connection points: 2
#     Edge 89, Type (0, 1), BuildingBlock: TEMPAE_clean_linker_10, # of connection points: 2
#     Edge 90, Type (0, 1), BuildingBlock: TEMPAE_clean_linker_10, # of connection points: 2
#     Edge 91, Type (0, 1), BuildingBlock: TEMPAE_clean_linker_10, # of connection points: 2
#     Edge 92, Type (0, 1), BuildingBlock: TEMPAE_clean_linker_10, # of connection points: 2
#     Edge 93, Type (0, 1), BuildingBlock: TEMPAE_clean_linker_10, # of connection points: 2
#     Edge 94, Type (0, 1), BuildingBlock: TEMPAE_clean_linker_10, # of connection points: 2
#     Edge 95, Type (0, 1), BuildingBlock: TEMPAE_clean_linker_10, # of connection points: 2
#     Edge 96, Type (0, 1), BuildingBlock: TEMPAE_clean_linker_10, # of connection points: 2
#     Edge 97, Type (0, 1), BuildingBlock: TEMPAE_clean_linker_10, # of connection points: 2
#     Edge 98, Type (0, 1), BuildingBlock: TEMPAE_clean_linker_10, # of connection points: 2
#     Edge 99, Type (0, 1), BuildingBlock: TEMPAE_clean_linker_10, # of connection points: 2
#     Edge 100, Type (0, 1), BuildingBlock: TEMPAE_clean_linker_10, # of connection points: 2
#     Edge 101, Type (0, 1), BuildingBlock: TEMPAE_clean_linker_10, # of connection points: 2
# Relax obj value: 0.088
# Max RMSD: 0.249
# Mean RMSD: 0.190
data_MOF--net-llk--node1-EZIPEK_clean_sbu_0--node2-QEWDON_clean_linker_0--edge1-TEMPAE_clean_linker_10
_symmetry_space_group_name_H-M    P1
_symmetry_Int_Tables_number       1
_symmetry_cell_setting            triclinic
loop_
_symmetry_equiv_pos_as_xyz
'x, y, z'
_cell_length_a     49.874477
_cell_length_b     49.40012
_cell_length_c     48.947816
_cell_angle_alpha  89.977097
_cell_angle_beta   89.989531
_cell_angle_gamma 90.023589
loop_
_atom_site_label
_atom_site_type_symbol
_atom_site_fract_x
_atom_site_fract_y
_atom_site_fract_z
_atom_type_partial_charge
H0 H 0.98801 0.29733 0.27908 0.0
C1 C 0.99107 0.2781 0.28924 0.0
C2 C 0.99362 0.27789 0.31776 0.0
C3 C 0.99139 0.25376 0.2742 0.0
H4 H 0.99792 0.25305 0.35363 0.0
C5 C 0.99591 0.2532 0.33156 0.0
C6 C 0.99661 0.22875 0.31713 0.0
C7 C 0.99491 0.22913 0.28848 0.0
C8 C 0.98672 0.25401 0.24398 0.0
H9 H 0.99592 0.21013 0.27751 0.0
C10 C 0.99461 0.2763 0.2277 0.0
C11 C 0.98811 0.27743 0.19971 0.0
C12 C 0.97293 0.23248 0.23135 0.0
H13 H 0.9658 0.21534 0.24304 0.0
C14 C 0.96732 0.2331 0.20345 0.0
H15 H 1.00531 0.2931 0.2368 0.0
C16 C 0.9747 0.25541 0.18774 0.0
H17 H 0.96984 0.25547 0.16617 0.0
H18 H 0.95674 0.21639 0.19405 0.0
H19 H 0.747 0.02032 0.30335 0.0
C20 C 0.73762 0.01698 0.28369 0.0
C21 C 0.71011 0.01104 0.28292 0.0
C22 C 0.7527 0.01917 0.25939 0.0
H23 H 0.67577 0.00481 0.25695 0.0
C24 C 0.69724 0.00832 0.25766 0.0
C25 C 0.71157 0.01087 0.23324 0.0
C26 C 0.73935 0.01546 0.23412 0.0
C27 C 0.78176 0.027 0.26043 0.0
H28 H 0.75023 0.01681 0.21502 0.0
C29 C 0.79822 0.02006 0.28297 0.0
C30 C 0.82492 0.02941 0.28474 0.0
C31 C 0.79296 0.04286 0.23938 0.0
H32 H 0.78107 0.04945 0.22214 0.0
C33 C 0.81961 0.05128 0.24059 0.0
H34 H 0.79025 0.00786 0.29945 0.0
C35 C 0.83546 0.04473 0.26306 0.0
H36 H 0.85604 0.05174 0.26348 0.0
H37 H 0.82791 0.06338 0.22419 0.0
H38 H 1.00164 0.7324 0.30303 0.0
C39 C 0.00655 0.723 0.28369 0.0
C40 C 0.01372 0.69554 0.28349 0.0
C41 C 0.00568 0.73811 0.25925 0.0
H42 H 0.02359 0.66127 0.2583 0.0
C43 C 0.01913 0.68276 0.25857 0.0
C44 C 0.01745 0.69703 0.23392 0.0
C45 C 0.01114 0.72473 0.23437 0.0
C46 C 0.99908 0.76766 0.25975 0.0
H47 H 0.01089 0.73572 0.21523 0.0
C48 C 0.00581 0.78386 0.28253 0.0
C49 C 0.9996 0.81156 0.28299 0.0
C50 C 0.98591 0.78002 0.23751 0.0
H51 H 0.97953 0.76835 0.21998 0.0
C52 C 0.98028 0.80772 0.23776 0.0
H53 H 0.01624 0.77525 0.29987 0.0
C54 C 0.98716 0.82347 0.26033 0.0
H55 H 0.98219 0.84483 0.26039 0.0
H56 H 0.97023 0.81693 0.22051 0.0
H57 H 0.28763 0.9853 0.30362 0.0
C58 C 0.29789 0.9876 0.28429 0.0
C59 C 0.32599 0.98708 0.28441 0.0
C60 C 0.2834 0.99047 0.25968 0.0
H61 H 0.36169 0.98764 0.25971 0.0
C62 C 0.33995 0.988 0.25963 0.0
C63 C 0.32622 0.99069 0.23483 0.0
C64 C 0.29809 0.99269 0.23501 0.0
C65 C 0.25322 0.99067 0.2598 0.0
H66 H 0.28791 0.99577 0.21575 0.0
C67 C 0.23854 0.99808 0.28343 0.0
C68 C 0.21035 0.99701 0.28379 0.0
C69 C 0.23865 0.98256 0.23646 0.0
H70 H 0.24863 0.97563 0.21816 0.0
C71 C 0.21066 0.98251 0.23651 0.0
H72 H 0.24867 0.00487 0.30171 0.0
C73 C 0.19656 0.98966 0.25998 0.0
H74 H 0.17486 0.98861 0.25982 0.0
H75 H 0.19985 0.97626 0.2184 0.0
H76 H 0.99386 0.70825 0.73617 0.0
C77 C 0.99821 0.72784 0.72723 0.0
C78 C 0.00574 0.72903 0.6997 0.0
C79 C 0.99484 0.75169 0.7426 0.0
H80 H 0.01545 0.75493 0.66582 0.0
C81 C 0.01015 0.75414 0.6873 0.0
C82 C 0.00712 0.7782 0.70216 0.0
C83 C 0.99953 0.77689 0.72979 0.0
C84 C 0.98506 0.75019 0.7714 0.0
H85 H 0.99744 0.79553 0.74124 0.0
C86 C 0.99227 0.72833 0.78849 0.0
C87 C 0.98128 0.7257 0.81485 0.0
C88 C 0.96727 0.76988 0.78158 0.0
H89 H 0.96075 0.78664 0.76898 0.0
C90 C 0.95691 0.76774 0.80797 0.0
H91 H 0.00601 0.713 0.78116 0.0
C92 C 0.9637 0.74577 0.82447 0.0
H93 H 0.95522 0.74448 0.8448 0.0
H94 H 0.94321 0.78299 0.81553 0.0
H95 H 0.28943 0.02251 0.71401 0.0
C96 C 0.29883 0.01901 0.73362 0.0
C97 C 0.32622 0.01252 0.73427 0.0
C98 C 0.2839 0.02142 0.75799 0.0
H99 H 0.36052 0.00555 0.7601 0.0
C100 C 0.33913 0.00953 0.75947 0.0
C101 C 0.32495 0.01231 0.78394 0.0
C102 C 0.29726 0.01744 0.7832 0.0
C103 C 0.25495 0.02956 0.75708 0.0
H104 H 0.28648 0.01893 0.80233 0.0
C105 C 0.23835 0.02265 0.73466 0.0
C106 C 0.21172 0.03214 0.73299 0.0
C107 C 0.24399 0.04556 0.77812 0.0
H108 H 0.25603 0.05209 0.79528 0.0
C109 C 0.21739 0.05416 0.77701 0.0
H110 H 0.24616 0.01033 0.71822 0.0
C111 C 0.20138 0.04762 0.75465 0.0
H112 H 0.18085 0.05474 0.7543 0.0
H113 H 0.20926 0.06636 0.7934 0.0
H114 H 0.99535 0.27299 0.71438 0.0
C115 C 0.99946 0.28207 0.7341 0.0
C116 C 0.00745 0.30919 0.73521 0.0
C117 C 0.99483 0.26736 0.75829 0.0
H118 H 0.01737 0.34278 0.76114 0.0
C119 C 0.0117 0.32159 0.76049 0.0
C120 C 0.00762 0.30729 0.78487 0.0
C121 C 0.99898 0.2802 0.78371 0.0
C122 C 0.98342 0.23956 0.75666 0.0
H123 H 0.99548 0.26922 0.80254 0.0
C124 C 0.99209 0.22131 0.73635 0.0
C125 C 0.97893 0.19631 0.73223 0.0
C126 C 0.96225 0.23194 0.77395 0.0
H127 H 0.95485 0.2456 0.78953 0.0
C128 C 0.94949 0.20707 0.77051 0.0
H129 H 0.00906 0.22679 0.72372 0.0
C130 C 0.95741 0.18958 0.74964 0.0
H131 H 0.94612 0.17108 0.74687 0.0
H132 H 0.93285 0.20163 0.78361 0.0
H133 H 0.72344 0.02255 0.73586 0.0
C134 C 0.74274 0.01981 0.72614 0.0
C135 C 0.74348 0.01726 0.69763 0.0
C136 C 0.76656 0.02007 0.74166 0.0
H137 H 0.76879 0.01399 0.66214 0.0
C138 C 0.76823 0.01575 0.68423 0.0
C139 C 0.79223 0.0157 0.69908 0.0
C140 C 0.79129 0.01714 0.72776 0.0
C141 C 0.7656 0.02508 0.7719 0.0
H142 H 0.80997 0.01656 0.739 0.0
C143 C 0.74287 0.0179 0.78771 0.0
C144 C 0.74103 0.02518 0.8155 0.0
C145 C 0.78684 0.03877 0.78496 0.0
H146 H 0.80429 0.0455 0.77374 0.0
C147 C 0.78556 0.04492 0.81272 0.0
H148 H 0.72626 0.00726 0.77842 0.0
C149 C 0.76284 0.03834 0.82787 0.0
H150 H 0.76228 0.04371 0.84932 0.0
H151 H 0.80208 0.05538 0.82243 0.0
H152 H 0.29176 0.29808 0.01949 0.0
C153 C 0.3012 0.27856 0.01682 0.0
C154 C 0.3292 0.27771 0.01424 0.0
C155 C 0.2857 0.25464 0.01592 0.0
H156 H 0.36392 0.25195 0.01136 0.0
C157 C 0.3422 0.25265 0.01249 0.0
C158 C 0.32756 0.22848 0.01236 0.0
C159 C 0.29937 0.22957 0.01307 0.0
C160 C 0.2556 0.25587 0.01862 0.0
H161 H 0.2884 0.21073 0.0118 0.0
C162 C 0.24088 0.27954 0.01175 0.0
C163 C 0.21282 0.28056 0.01507 0.0
C164 C 0.2412 0.23345 0.02889 0.0
H165 H 0.25128 0.21527 0.0356 0.0
C166 C 0.21334 0.23425 0.0314 0.0
H167 H 0.25082 0.29721 0.00354 0.0
C168 C 0.19921 0.25758 0.02449 0.0
H169 H 0.17765 0.25795 0.02724 0.0
H170 H 0.20268 0.21681 0.03924 0.0
H171 H 0.29119 0.70601 0.00076 0.0
C172 C 0.30051 0.72553 0.00422 0.0
C173 C 0.32749 0.72651 0.01226 0.0
C174 C 0.28594 0.74937 0.99921 0.0
H175 H 0.36102 0.75249 0.02126 0.0
C176 C 0.33992 0.75174 0.01601 0.0
C177 C 0.326 0.77598 0.01101 0.0
C178 C 0.29895 0.77461 0.00266 0.0
C179 C 0.25825 0.74744 0.98758 0.0
H180 H 0.28814 0.79322 0.9987 0.0
C181 C 0.24015 0.72688 0.99593 0.0
C182 C 0.21532 0.72299 0.9824 0.0
C183 C 0.25067 0.76479 0.9662 0.0
H184 H 0.26411 0.7804 0.95886 0.0
C185 C 0.22619 0.76138 0.95298 0.0
H186 H 0.24552 0.71397 0.01293 0.0
C187 C 0.20888 0.74054 0.96064 0.0
H188 H 0.19071 0.73794 0.94887 0.0
H189 H 0.22088 0.77455 0.93615 0.0
H190 H 0.7239 0.27577 0.02376 0.0
C191 C 0.74332 0.2852 0.02118 0.0
C192 C 0.74436 0.31347 0.01899 0.0
C193 C 0.76693 0.26952 0.02152 0.0
H194 H 0.77008 0.34843 0.01651 0.0
C195 C 0.76928 0.32653 0.01787 0.0
C196 C 0.79317 0.31161 0.01787 0.0
C197 C 0.7919 0.28313 0.01894 0.0
C198 C 0.76543 0.2395 0.02672 0.0
H199 H 0.81048 0.27184 0.01845 0.0
C200 C 0.74227 0.22409 0.02 0.0
C201 C 0.7399 0.19672 0.02803 0.0
C202 C 0.78653 0.22632 0.04052 0.0
H203 H 0.80428 0.23715 0.04694 0.0
C204 C 0.78472 0.19898 0.04734 0.0
H205 H 0.72572 0.23335 0.00921 0.0
C206 C 0.7616 0.18434 0.04137 0.0
H207 H 0.76062 0.16324 0.04735 0.0
H208 H 0.80114 0.18923 0.05794 0.0
H209 H 0.72436 0.73041 0.9967 0.0
C210 C 0.74361 0.72068 0.99918 0.0
C211 C 0.74425 0.69231 0.9991 0.0
C212 C 0.76733 0.73608 0.00172 0.0
H213 H 0.76945 0.65694 0.99987 0.0
C214 C 0.76896 0.67889 1.00004 0.0
C215 C 0.79298 0.69345 0.00236 0.0
C216 C 0.79199 0.72191 0.00403 0.0
C217 C 0.76626 0.76663 0.0013 0.0
H218 H 0.81063 0.73272 0.00685 0.0
C219 C 0.7424 0.78101 0.00773 0.0
C220 C 0.74135 0.80946 0.00612 0.0
C221 C 0.78896 0.78187 0.99347 0.0
H222 H 0.8074 0.77224 0.98718 0.0
C223 C 0.78816 0.8101 0.99284 0.0
H224 H 0.72449 0.7705 0.01424 0.0
C225 C 0.76457 0.82385 0.99912 0.0
H226 H 0.76423 0.84573 0.9977 0.0
H227 H 0.80581 0.82139 0.98684 0.0
H228 H 0.49908 0.79591 0.77922 0.0
C229 C 0.50402 0.77664 0.78851 0.0
C230 C 0.51281 0.77625 0.81571 0.0
C231 C 0.50109 0.75248 0.77355 0.0
H232 H 0.52404 0.75102 0.84966 0.0
C233 C 0.51834 0.7514 0.82829 0.0
C234 C 0.5149 0.72698 0.81412 0.0
C235 C 0.50657 0.72764 0.78668 0.0
C236 C 0.49139 0.75334 0.74469 0.0
H237 H 0.50451 0.70875 0.77566 0.0
C238 C 0.4982 0.77513 0.72734 0.0
C239 C 0.48766 0.77699 0.70072 0.0
C240 C 0.47434 0.73296 0.73457 0.0
H241 H 0.46812 0.71621 0.74734 0.0
C242 C 0.46441 0.73433 0.70795 0.0
H243 H 0.51137 0.79098 0.73464 0.0
C244 C 0.47088 0.75619 0.69116 0.0
H245 H 0.46279 0.75678 0.67063 0.0
H246 H 0.45131 0.71852 0.70042 0.0
H247 H 0.24773 0.5212 0.80387 0.0
C248 C 0.23846 0.51794 0.78415 0.0
C249 C 0.21101 0.51171 0.7832 0.0
C250 C 0.25361 0.52053 0.75994 0.0
H251 H 0.17686 0.50533 0.75701 0.0
C252 C 0.19829 0.50907 0.75786 0.0
C253 C 0.21269 0.51201 0.73353 0.0
C254 C 0.24041 0.51692 0.73457 0.0
C255 C 0.28255 0.52875 0.76121 0.0
H256 H 0.25135 0.51862 0.71554 0.0
C257 C 0.29902 0.52172 0.78372 0.0
C258 C 0.32553 0.53152 0.78578 0.0
C259 C 0.29358 0.54512 0.74047 0.0
H260 H 0.28165 0.55177 0.72327 0.0
C261 C 0.32007 0.55401 0.74197 0.0
H262 H 0.29119 0.50911 0.79995 0.0
C263 C 0.33591 0.5474 0.76443 0.0
H264 H 0.35634 0.55479 0.76512 0.0
H265 H 0.32823 0.56653 0.72582 0.0
H266 H 0.49921 0.23479 0.80281 0.0
C267 C 0.50159 0.22415 0.78366 0.0
C268 C 0.50039 0.1958 0.78407 0.0
C269 C 0.5053 0.23837 0.75888 0.0
H270 H 0.5009 0.15944 0.75993 0.0
C271 C 0.50171 0.18139 0.75957 0.0
C272 C 0.50545 0.19486 0.73474 0.0
C273 C 0.50795 0.22317 0.73453 0.0
C274 C 0.50606 0.26878 0.75835 0.0
H275 H 0.5118 0.23309 0.71522 0.0
C276 C 0.51331 0.28388 0.78176 0.0
C277 C 0.51293 0.31233 0.78145 0.0
C278 C 0.49877 0.28316 0.73454 0.0
H279 H 0.49196 0.27285 0.71635 0.0
C280 C 0.49942 0.31141 0.73395 0.0
H281 H 0.51942 0.27387 0.8004 0.0
C282 C 0.50646 0.32596 0.75723 0.0
H283 H 0.50595 0.34788 0.7566 0.0
H284 H 0.49381 0.32208 0.71549 0.0
H285 H 0.78813 0.49308 0.80513 0.0
C286 C 0.79782 0.49668 0.78564 0.0
C287 C 0.82459 0.50534 0.78531 0.0
C288 C 0.78396 0.49129 0.76125 0.0
H289 H 0.85848 0.51503 0.75984 0.0
C290 C 0.83749 0.50931 0.76014 0.0
C291 C 0.82421 0.50393 0.73541 0.0
C292 C 0.79739 0.49495 0.73612 0.0
C293 C 0.75651 0.47933 0.76259 0.0
H294 H 0.78709 0.49069 0.71711 0.0
C295 C 0.73807 0.48761 0.78286 0.0
C296 C 0.71372 0.47355 0.78708 0.0
C297 C 0.74956 0.45772 0.74534 0.0
H298 H 0.76333 0.45054 0.72985 0.0
C299 C 0.72529 0.44416 0.7488 0.0
H300 H 0.74294 0.50493 0.79545 0.0
C301 C 0.70775 0.45161 0.76968 0.0
H302 H 0.68984 0.43958 0.77249 0.0
H303 H 0.72041 0.42718 0.73574 0.0
H304 H 0.49709 0.20806 0.23752 0.0
C305 C 0.50205 0.22743 0.22845 0.0
C306 C 0.5116 0.22807 0.2015 0.0
C307 C 0.49826 0.25147 0.24338 0.0
H308 H 0.52356 0.25372 0.16806 0.0
C309 C 0.51724 0.25309 0.18925 0.0
C310 C 0.51302 0.27737 0.20346 0.0
C311 C 0.50381 0.27644 0.23059 0.0
C312 C 0.48744 0.25033 0.2718 0.0
H313 H 0.50105 0.29523 0.24163 0.0
C314 C 0.49412 0.22871 0.28939 0.0
C315 C 0.48246 0.22648 0.31549 0.0
C316 C 0.46942 0.27019 0.28117 0.0
H317 H 0.46332 0.2868 0.26815 0.0
C318 C 0.45835 0.26844 0.3073 0.0
H319 H 0.50803 0.21327 0.28265 0.0
C320 C 0.46467 0.24671 0.32432 0.0
H321 H 0.45568 0.24576 0.34444 0.0
H322 H 0.44449 0.28383 0.31425 0.0
H323 H 0.79123 0.5168 0.21492 0.0
C324 C 0.80012 0.512 0.23451 0.0
C325 C 0.82698 0.50361 0.23536 0.0
C326 C 0.78503 0.51486 0.25868 0.0
H327 H 0.86015 0.49307 0.26139 0.0
C328 C 0.83906 0.49837 0.26066 0.0
C329 C 0.82477 0.5017 0.2851 0.0
C330 C 0.79768 0.50955 0.28396 0.0
C331 C 0.75665 0.52468 0.25747 0.0
H332 H 0.78659 0.51148 0.30288 0.0
C333 C 0.73984 0.51835 0.23507 0.0
C334 C 0.71369 0.52906 0.2332 0.0
C335 C 0.74647 0.54147 0.27827 0.0
H336 H 0.75879 0.54748 0.29542 0.0
C337 C 0.72035 0.55143 0.27691 0.0
H338 H 0.74715 0.50546 0.21882 0.0
C339 C 0.70409 0.54537 0.25459 0.0
H340 H 0.68391 0.55347 0.2541 0.0
H341 H 0.71279 0.56425 0.29311 0.0
H342 H 0.48931 0.77282 0.21432 0.0
C343 C 0.49397 0.7823 0.23369 0.0
C344 C 0.50005 0.80998 0.23406 0.0
C345 C 0.49264 0.76737 0.25822 0.0
H346 H 0.50938 0.84446 0.25908 0.0
C347 C 0.50504 0.82293 0.25892 0.0
C348 C 0.50401 0.80856 0.28353 0.0
C349 C 0.49784 0.78081 0.28313 0.0
C350 C 0.48482 0.73818 0.25782 0.0
H351 H 0.4974 0.76977 0.30225 0.0
C352 C 0.49216 0.72125 0.23582 0.0
C353 C 0.48346 0.69415 0.23466 0.0
C354 C 0.46907 0.72725 0.27899 0.0
H355 H 0.46245 0.73966 0.29592 0.0
C356 C 0.46097 0.70023 0.27828 0.0
H357 H 0.50431 0.7292 0.21932 0.0
C358 C 0.468 0.68378 0.25628 0.0
H359 H 0.46138 0.6629 0.25622 0.0
H360 H 0.44889 0.69209 0.29472 0.0
H361 H 0.22449 0.5191 0.2361 0.0
C362 C 0.24383 0.51586 0.22664 0.0
C363 C 0.24478 0.5112 0.1984 0.0
C364 C 0.26748 0.51673 0.2424 0.0
H365 H 0.2705 0.50589 0.16344 0.0
C366 C 0.26967 0.50859 0.18542 0.0
C367 C 0.29356 0.50995 0.2004 0.0
C368 C 0.29238 0.51314 0.22893 0.0
C369 C 0.26608 0.52295 0.2724 0.0
H370 H 0.31098 0.51347 0.24032 0.0
C371 C 0.24325 0.51608 0.28823 0.0
C372 C 0.241 0.52428 0.31574 0.0
C373 C 0.28702 0.53733 0.28518 0.0
H374 H 0.30453 0.5438 0.2739 0.0
C375 C 0.28535 0.54448 0.31268 0.0
H376 H 0.22687 0.50489 0.27914 0.0
C377 C 0.26254 0.53817 0.32783 0.0
H378 H 0.26172 0.54426 0.34907 0.0
H379 H 0.30165 0.55547 0.32218 0.0
H380 H 0.79125 0.79805 0.52217 0.0
C381 C 0.80096 0.77861 0.52009 0.0
C382 C 0.82907 0.77795 0.52101 0.0
C383 C 0.7858 0.75463 0.51723 0.0
H384 H 0.86411 0.75254 0.5212 0.0
C385 C 0.84238 0.75302 0.52045 0.0
C386 C 0.82807 0.72877 0.5177 0.0
C387 C 0.79994 0.72973 0.51527 0.0
C388 C 0.75551 0.7556 0.517 0.0
H389 H 0.78936 0.71089 0.51212 0.0
C390 C 0.74122 0.77961 0.51026 0.0
C391 C 0.71297 0.78039 0.51111 0.0
C392 C 0.74041 0.73259 0.52452 0.0
H393 H 0.74992 0.71405 0.53108 0.0
C394 C 0.71244 0.73315 0.52447 0.0
H395 H 0.75164 0.79779 0.50407 0.0
C396 C 0.69878 0.75682 0.51779 0.0
H397 H 0.67707 0.75696 0.51864 0.0
H398 H 0.70127 0.71524 0.53023 0.0
H399 H 0.79012 0.20758 0.49595 0.0
C400 C 0.79971 0.22699 0.49898 0.0
C401 C 0.82751 0.22757 0.50336 0.0
C402 C 0.78457 0.25108 0.49792 0.0
H403 H 0.86226 0.25308 0.50802 0.0
C404 C 0.84064 0.25255 0.50563 0.0
C405 C 0.82633 0.27689 0.50422 0.0
C406 C 0.79825 0.27608 0.50126 0.0
C407 C 0.7551 0.25003 0.49135 0.0
H408 H 0.78739 0.29503 0.50084 0.0
C409 C 0.7391 0.22707 0.4978 0.0
C410 C 0.71224 0.22518 0.48884 0.0
C411 C 0.74305 0.2714 0.47674 0.0
H412 H 0.75442 0.289 0.47051 0.0
C413 C 0.71621 0.27007 0.46893 0.0
H414 H 0.74753 0.21032 0.50916 0.0
C415 C 0.70096 0.24716 0.47473 0.0
H416 H 0.68027 0.24659 0.46804 0.0
H417 H 0.70731 0.28671 0.45774 0.0
H418 H 0.22311 0.77623 0.52425 0.0
C419 C 0.24248 0.78557 0.52103 0.0
C420 C 0.2435 0.81357 0.5162 0.0
C421 C 0.26609 0.76993 0.52227 0.0
H422 H 0.2694 0.84814 0.51092 0.0
C423 C 0.26847 0.82637 0.51364 0.0
C424 C 0.29232 0.81147 0.51517 0.0
C425 C 0.29105 0.78322 0.51862 0.0
C426 C 0.26464 0.74031 0.52924 0.0
H427 H 0.30963 0.77192 0.51917 0.0
C428 C 0.24181 0.72438 0.52269 0.0
C429 C 0.23961 0.69732 0.53175 0.0
C430 C 0.28552 0.72806 0.54418 0.0
H431 H 0.30299 0.73943 0.55048 0.0
C432 C 0.28388 0.70103 0.55216 0.0
H433 H 0.22545 0.73303 0.51111 0.0
C434 C 0.26113 0.6858 0.54616 0.0
H435 H 0.26034 0.66493 0.55291 0.0
H436 H 0.30015 0.69196 0.56358 0.0
H437 H 0.22389 0.23041 0.49627 0.0
C438 C 0.24302 0.22048 0.49889 0.0
C439 C 0.24335 0.1921 0.49889 0.0
C440 C 0.26686 0.23564 0.5016 0.0
H441 H 0.26821 0.15648 0.49983 0.0
C442 C 0.26793 0.17844 0.49996 0.0
C443 C 0.29209 0.19277 0.50235 0.0
C444 C 0.29137 0.22123 0.50401 0.0
C445 C 0.26605 0.26618 0.50127 0.0
H446 H 0.31011 0.23187 0.5069 0.0
C447 C 0.24229 0.28071 0.5077 0.0
C448 C 0.24142 0.30916 0.50613 0.0
C449 C 0.28888 0.28128 0.49355 0.0
H450 H 0.30727 0.27153 0.4873 0.0
C451 C 0.28826 0.30952 0.49298 0.0
H452 H 0.22431 0.27031 0.51418 0.0
C453 C 0.26475 0.32341 0.49922 0.0
H454 H 0.26454 0.3453 0.49782 0.0
H455 H 0.30601 0.32071 0.48706 0.0
C456 C 0.01716 0.93712 0.57443 0.0
C457 C 0.01802 0.93886 0.44193 0.0
C458 C 0.01532 0.06825 0.57592 0.0
C459 C 0.01796 0.06973 0.44346 0.0
C460 C 0.95296 0.06843 0.50717 0.0
C461 C 0.95448 0.93693 0.50884 0.0
C462 C 0.08287 0.06966 0.51043 0.0
C463 C 0.08445 0.93898 0.51038 0.0
C464 C 0.08367 0.0043 0.44338 0.0
C465 C 0.95367 0.0035 0.4421 0.0
C466 C 0.08281 0.00427 0.57615 0.0
C467 C 0.95263 1.00293 0.57475 0.0
Eu468 Eu 0.01921 0.95224 0.5083 0.0
O469 O 0.99488 0.97931 0.4843 0.0
O470 O 0.04228 0.97944 0.53339 0.0
Eu471 Eu 0.9675 1.00285 0.50861 0.0
Eu472 Eu 0.06905 0.0042 0.50965 0.0
O473 O 0.99483 0.97899 0.53266 0.0
O474 O 0.04285 0.98004 0.48457 0.0
Eu475 Eu 0.01789 1.00295 0.56085 0.0
Eu476 Eu 0.01858 0.00405 0.45744 0.0
O477 O 0.99415 0.02698 0.53326 0.0
O478 O 0.99451 0.02752 0.48503 0.0
O479 O 0.04209 0.02809 0.48522 0.0
O480 O 0.04177 0.02777 0.53403 0.0
Eu481 Eu 0.01797 0.05482 0.50957 0.0
O482 O 0.01761 0.92925 0.54833 0.0
O483 O 0.01987 0.92999 0.46764 0.0
O484 O 0.01456 0.07693 0.5501 0.0
O485 O 0.01876 0.07776 0.46949 0.0
O486 O 0.94473 0.04271 0.50856 0.0
O487 O 0.94577 0.96248 0.50972 0.0
O488 O 0.0911 0.04401 0.51069 0.0
O489 O 0.09203 0.96487 0.51085 0.0
O490 O 0.05823 0.00328 0.43495 0.0
O491 O 0.9793 0.00405 0.4342 0.0
O492 O 0.0572 0.00316 0.58408 0.0
O493 O 0.97803 0.00355 0.58345 0.0
O494 O 0.05739 0.07799 0.50987 0.0
O495 O 0.9784 0.07678 0.50693 0.0
O496 O 0.05918 0.93007 0.50901 0.0
O497 O 0.98006 0.92912 0.50751 0.0
O498 O 0.01691 0.96468 0.43412 0.0
O499 O 0.01753 0.04411 0.43483 0.0
O500 O 0.01754 0.96271 0.58323 0.0
O501 O 0.01746 0.04258 0.5841 0.0
O502 O 0.94478 1.0023 0.54869 0.0
O503 O 0.94521 1.00292 0.46802 0.0
O504 O 0.09124 0.00495 0.55023 0.0
O505 O 0.09186 0.00534 0.46936 0.0
C506 C 0.51643 0.93834 0.0762 0.0
C507 C 0.51798 0.06946 0.07287 0.0
C508 C 0.51814 0.93492 0.94412 0.0
C509 C 0.51575 0.06614 0.94083 0.0
C510 C 0.58326 1.00104 0.94214 0.0
C511 C 0.58346 1.00302 0.07455 0.0
C512 C 0.45276 1.00076 0.94252 0.0
C513 C 0.4533 1.00296 0.07522 0.0
C514 C 0.4528 0.06791 0.00728 0.0
C515 C 0.58326 0.06815 0.00681 0.0
C516 C 0.45307 0.93592 0.00937 0.0
C517 C 0.58343 0.93676 0.00999 0.0
Eu518 Eu 0.5183 0.00353 0.06019 0.0
O519 O 0.54201 0.02701 0.03212 0.0
O520 O 0.49436 0.97874 0.03347 0.0
Eu521 Eu 0.56883 1.00238 0.00836 0.0
Eu522 Eu 0.46703 1.00199 0.00883 0.0
O523 O 0.54209 0.97876 0.03335 0.0
O524 O 0.49416 0.0268 0.03225 0.0
Eu525 Eu 0.51817 0.95098 0.00986 0.0
Eu526 Eu 0.51799 0.05337 0.00716 0.0
O527 O 0.54192 0.97757 0.98477 0.0
O528 O 0.54192 0.02582 0.98334 0.0
O529 O 0.49424 0.02524 0.98389 0.0
O530 O 0.49421 0.97757 0.98498 0.0
Eu531 Eu 0.51806 1.00085 0.95669 0.0
O532 O 0.51782 0.96419 0.08398 0.0
O533 O 0.51899 0.04401 0.08205 0.0
O534 O 0.51853 0.96036 0.93491 0.0
O535 O 0.51677 0.04027 0.93297 0.0
O536 O 0.5912 1.0013 0.96818 0.0
O537 O 0.5916 0.00335 0.04855 0.0
O538 O 0.44459 1.00215 0.96848 0.0
O539 O 0.44488 1.00156 0.04935 0.0
O540 O 0.47837 0.07595 0.00617 0.0
O541 O 0.55769 0.0764 0.00679 0.0
O542 O 0.4787 0.92802 0.00917 0.0
O543 O 0.55798 0.92832 0.01146 0.0
O544 O 0.47826 0.99959 0.93416 0.0
O545 O 0.55776 1.00116 0.93365 0.0
O546 O 0.47886 0.00439 0.08327 0.0
O547 O 0.55796 1.00278 0.08293 0.0
O548 O 0.5172 0.07689 0.04669 0.0
O549 O 0.51614 0.07501 0.96655 0.0
O550 O 0.516 0.92939 0.0505 0.0
O551 O 0.51802 0.92746 0.97032 0.0
O552 O 0.59138 0.96253 0.00835 0.0
O553 O 0.59126 0.04234 0.00717 0.0
O554 O 0.44465 0.96164 0.00957 0.0
O555 O 0.44451 0.04219 0.00892 0.0
C556 C 0.01934 0.43586 0.07379 0.0
C557 C 0.01647 0.43836 0.94159 0.0
C558 C 0.02029 0.56722 0.07621 0.0
C559 C 0.01551 0.57008 0.94398 0.0
C560 C 0.95316 0.56864 0.01177 0.0
C561 C 0.95293 0.43725 0.0088 0.0
C562 C 0.08354 0.56869 0.0071 0.0
C563 C 0.08336 0.43706 0.00693 0.0
C564 C 0.08157 0.50408 0.94051 0.0
C565 C 0.952 0.50465 0.94415 0.0
C566 C 0.08541 0.50375 0.07259 0.0
C567 C 0.95539 0.50163 0.07672 0.0
Eu568 Eu 0.01825 0.45166 0.00792 0.0
O569 O 0.99395 0.4794 0.98473 0.0
O570 O 0.04305 0.47837 0.03182 0.0
Eu571 Eu 0.96761 0.50295 0.01011 0.0
Eu572 Eu 0.0692 0.50289 0.00692 0.0
O573 O 0.99513 0.47844 0.0333 0.0
O574 O 0.04153 0.47916 0.98322 0.0
Eu575 Eu 0.01996 0.50183 0.06042 0.0
Eu576 Eu 0.0171 0.50397 0.95708 0.0
O577 O 0.99531 0.52651 0.03418 0.0
O578 O 0.99408 0.52744 0.98573 0.0
O579 O 0.04163 0.52769 0.98415 0.0
O580 O 0.04288 0.52635 0.03254 0.0
Eu581 Eu 0.01845 0.5543 0.00982 0.0
O582 O 0.019 0.42828 0.04763 0.0
O583 O 0.01756 0.42968 0.96739 0.0
O584 O 0.01988 0.57609 0.05046 0.0
O585 O 0.01712 0.5776 0.97011 0.0
O586 O 0.94519 0.54282 0.01237 0.0
O587 O 0.94498 0.46308 0.00862 0.0
O588 O 0.09167 0.54301 0.00486 0.0
O589 O 0.0917 0.46278 0.00601 0.0
O590 O 0.05586 0.50518 0.933 0.0
O591 O 0.97728 0.50386 0.93537 0.0
O592 O 0.0603 0.50201 0.08197 0.0
O593 O 0.9811 0.50213 0.08426 0.0
O594 O 0.05818 0.57696 0.00981 0.0
O595 O 0.97864 0.57705 0.01052 0.0
O596 O 0.05782 0.42894 0.00796 0.0
O597 O 0.97844 0.42885 0.00908 0.0
O598 O 0.01605 0.46426 0.93367 0.0
O599 O 0.01517 0.5445 0.93503 0.0
O600 O 0.01964 0.46142 0.08273 0.0
O601 O 0.02017 0.54131 0.08403 0.0
O602 O 0.94636 0.50132 0.05104 0.0
O603 O 0.94419 0.50501 0.97028 0.0
O604 O 0.09262 0.50447 0.04635 0.0
O605 O 0.09052 0.50259 0.96614 0.0
C606 C 0.51923 0.4357 0.0745 0.0
C607 C 0.51806 0.56683 0.07738 0.0
C608 C 0.52017 0.43886 0.94194 0.0
C609 C 0.52006 0.56991 0.94477 0.0
C610 C 0.58495 0.50266 0.94387 0.0
C611 C 0.58398 0.50251 0.07669 0.0
C612 C 0.45499 0.50465 0.9425 0.0
C613 C 0.45377 0.501 0.0752 0.0
C614 C 0.4549 0.56852 0.01106 0.0
C615 C 0.58489 0.56812 0.01032 0.0
C616 C 0.45496 0.43689 0.00915 0.0
C617 C 0.58489 0.43739 0.00919 0.0
Eu618 Eu 0.51907 0.50159 0.06127 0.0
O619 O 0.54328 0.52635 0.03472 0.0
O620 O 0.49563 0.47821 0.03295 0.0
Eu621 Eu 0.57037 0.50274 0.01015 0.0
Eu622 Eu 0.46869 0.50268 0.00902 0.0
O623 O 0.54342 0.47806 0.03378 0.0
O624 O 0.49564 0.52614 0.03393 0.0
Eu625 Eu 0.51988 0.4515 0.00856 0.0
Eu626 Eu 0.51978 0.55404 0.01072 0.0
O627 O 0.54355 0.47943 0.98508 0.0
O628 O 0.54375 0.52739 0.98605 0.0
O629 O 0.49589 0.52748 0.98566 0.0
O630 O 0.496 0.47911 0.98456 0.0
Eu631 Eu 0.51995 0.50407 0.95795 0.0
O632 O 0.51935 0.46124 0.08343 0.0
O633 O 0.51832 0.54087 0.08493 0.0
O634 O 0.51934 0.46477 0.9343 0.0
O635 O 0.52074 0.54438 0.93586 0.0
O636 O 0.59309 0.50147 0.96985 0.0
O637 O 0.59249 0.50279 0.05079 0.0
O638 O 0.44649 0.50404 0.96841 0.0
O639 O 0.44593 0.50088 0.04911 0.0
O640 O 0.48043 0.57658 0.01061 0.0
O641 O 0.55948 0.57669 0.01013 0.0
O642 O 0.4805 0.42888 0.00925 0.0
O643 O 0.55949 0.42881 0.00939 0.0
O644 O 0.48064 0.50479 0.93465 0.0
O645 O 0.5596 0.50431 0.93532 0.0
O646 O 0.47918 0.5016 0.08389 0.0
O647 O 0.55834 0.50191 0.08456 0.0
O648 O 0.51863 0.57582 0.05162 0.0
O649 O 0.51929 0.57757 0.97093 0.0
O650 O 0.51923 0.42806 0.04834 0.0
O651 O 0.52094 0.42977 0.96765 0.0
O652 O 0.59289 0.46314 0.00931 0.0
O653 O 0.59288 0.54237 0.01055 0.0
O654 O 0.44642 0.46252 0.00829 0.0
O655 O 0.44641 0.54284 0.01104 0.0
C656 C 0.01899 0.43767 0.57698 0.0
C657 C 0.01571 0.43562 0.44486 0.0
C658 C 0.01918 0.56879 0.57456 0.0
C659 C 0.01743 0.56662 0.44233 0.0
C660 C 0.95366 0.5684 0.5092 0.0
C661 C 0.95304 0.43647 0.51135 0.0
C662 C 0.08406 0.56772 0.50859 0.0
C663 C 0.08349 0.43639 0.51026 0.0
C664 C 0.0833 0.50071 0.44301 0.0
C665 C 0.95291 0.50152 0.44388 0.0
C666 C 0.08399 0.50302 0.57547 0.0
C667 C 0.95367 0.50305 0.57671 0.0
Eu668 Eu 0.01829 0.45093 0.51076 0.0
O669 O 0.99445 0.478 0.4863 0.0
O670 O 0.04239 0.47848 0.53431 0.0
Eu671 Eu 0.96737 0.50237 0.51018 0.0
Eu672 Eu 0.06918 0.50204 0.50932 0.0
O673 O 0.99447 0.47856 0.53469 0.0
O674 O 0.04206 0.47754 0.48564 0.0
Eu675 Eu 0.0187 0.50298 0.56144 0.0
Eu676 Eu 0.01812 0.50132 0.45802 0.0
O677 O 0.99489 0.52674 0.53362 0.0
O678 O 0.99451 0.52583 0.4853 0.0
O679 O 0.0424 0.52591 0.48461 0.0
O680 O 0.04242 0.52649 0.53336 0.0
Eu681 Eu 0.01879 0.55345 0.50867 0.0
O682 O 0.01797 0.4289 0.55124 0.0
O683 O 0.01736 0.42773 0.47089 0.0
O684 O 0.0198 0.57657 0.54847 0.0
O685 O 0.01854 0.57545 0.46807 0.0
O686 O 0.94519 0.54272 0.5102 0.0
O687 O 0.94479 0.46222 0.51031 0.0
O688 O 0.0919 0.54185 0.50855 0.0
O689 O 0.09155 0.46213 0.50903 0.0
O690 O 0.05774 0.50078 0.43467 0.0
O691 O 0.9784 0.50185 0.4355 0.0
O692 O 0.05852 0.50296 0.58397 0.0
O693 O 0.9793 0.50256 0.58469 0.0
O694 O 0.05857 0.57613 0.50864 0.0
O695 O 0.97928 0.57632 0.50832 0.0
O696 O 0.058 0.42804 0.51156 0.0
O697 O 0.9786 0.42833 0.51198 0.0
O698 O 0.01552 0.46115 0.43596 0.0
O699 O 0.01709 0.54074 0.43455 0.0
O700 O 0.01973 0.4635 0.5849 0.0
O701 O 0.01822 0.54329 0.58357 0.0
O702 O 0.94521 0.50331 0.5508 0.0
O703 O 0.94474 0.5014 0.46989 0.0
O704 O 0.09203 0.50296 0.54943 0.0
O705 O 0.09135 0.50113 0.46901 0.0
C706 C 0.51804 0.93461 0.57295 0.0
C707 C 0.51625 0.93843 0.44076 0.0
C708 C 0.51857 0.06605 0.57631 0.0
C709 C 0.51471 0.06999 0.44425 0.0
C710 C 0.45198 0.06744 0.51099 0.0
C711 C 0.45261 0.93613 0.50793 0.0
C712 C 0.58252 0.06845 0.50878 0.0
C713 C 0.58301 0.93665 0.50581 0.0
C714 C 0.58114 0.00459 0.4407 0.0
C715 C 0.45141 1.00253 0.44376 0.0
C716 C 0.58428 1.0014 0.57288 0.0
C717 C 0.45432 1.00186 0.57613 0.0
Eu718 Eu 0.51782 0.95098 0.50723 0.0
O719 O 0.49357 0.97883 0.48421 0.0
O720 O 0.54234 0.97755 0.5316 0.0
Eu721 Eu 0.4669 1.00183 0.50966 0.0
Eu722 Eu 0.56851 1.0024 0.50709 0.0
O723 O 0.49441 0.97732 0.53284 0.0
O724 O 0.54097 0.97894 0.48294 0.0
Eu725 Eu 0.51899 1.00077 0.56019 0.0
Eu726 Eu 0.51652 0.00384 0.45681 0.0
O727 O 0.49439 0.02534 0.5339 0.0
O728 O 0.49306 0.02686 0.48543 0.0
O729 O 0.54093 0.02725 0.48426 0.0
O730 O 0.54189 0.02564 0.53261 0.0
Eu731 Eu 0.51732 0.05349 0.50986 0.0
O732 O 0.51799 0.92733 0.54671 0.0
O733 O 0.51754 0.92946 0.46645 0.0
O734 O 0.51709 0.075 0.55063 0.0
O735 O 0.51606 0.07724 0.47047 0.0
O736 O 0.44414 0.04157 0.51117 0.0
O737 O 0.44454 0.96189 0.50862 0.0
O738 O 0.59083 0.04272 0.50747 0.0
O739 O 0.59118 0.96243 0.50498 0.0
O740 O 0.55546 0.00533 0.43304 0.0
O741 O 0.47667 0.004 0.43494 0.0
O742 O 0.55907 1.00144 0.58206 0.0
O743 O 0.48 1.00209 0.58382 0.0
O744 O 0.55689 0.07635 0.50996 0.0
O745 O 0.47741 0.07601 0.51025 0.0
O746 O 0.55751 0.92842 0.50711 0.0
O747 O 0.47815 0.92785 0.50763 0.0
O748 O 0.51552 0.96439 0.43308 0.0
O749 O 0.51461 0.04451 0.43505 0.0
O750 O 0.51842 0.96011 0.58214 0.0
O751 O 0.51989 0.04014 0.58397 0.0
O752 O 0.44543 1.00103 0.55043 0.0
O753 O 0.44362 1.00137 0.46983 0.0
O754 O 0.59181 1.00124 0.54672 0.0
O755 O 0.59 0.00319 0.46638 0.0
C756 C 0.19787 0.18299 0.51811 0.0
C757 C 0.21785 0.17668 0.49899 0.0
C758 C 0.17445 0.16737 0.52006 0.0
C759 C 0.1708 0.14516 0.50218 0.0
C760 C 0.19049 0.1393 0.48217 0.0
C761 C 0.21393 0.15501 0.48098 0.0
C762 C 0.15416 0.17395 0.54197 0.0
C763 C 0.18711 0.11602 0.46247 0.0
C764 C 0.12817 0.08551 0.5242 0.0
C765 C 0.10418 0.09033 0.51012 0.0
C766 C 0.14968 0.10366 0.52242 0.0
C767 C 0.14735 0.12689 0.50563 0.0
C768 C 0.12297 0.13211 0.49171 0.0
C769 C 0.1015 0.11386 0.49439 0.0
C770 C 0.17507 0.09766 0.53811 0.0
C771 C 0.11991 0.15642 0.47329 0.0
H772 H 0.20102 0.19959 0.53224 0.0
H773 H 0.22928 0.15028 0.46605 0.0
H774 H 0.13392 0.17626 0.53289 0.0
H775 H 0.15308 0.15702 0.55683 0.0
H776 H 0.15926 0.1928 0.55321 0.0
H777 H 0.20318 0.11551 0.44677 0.0
H778 H 0.1874 0.09659 0.47383 0.0
H779 H 0.16741 0.11743 0.45202 0.0
H780 H 0.13015 0.06739 0.53656 0.0
H781 H 0.08302 0.11743 0.48328 0.0
H782 H 0.18074 0.11534 0.55085 0.0
H783 H 0.19179 0.09394 0.52364 0.0
H784 H 0.17298 0.07968 0.5516 0.0
H785 H 0.12444 0.17526 0.48472 0.0
H786 H 0.09939 0.15803 0.46459 0.0
H787 H 0.13449 0.1551 0.45623 0.0
C788 C 0.86193 0.19824 0.52568 0.0
C789 C 0.84319 0.20212 0.5047 0.0
C790 C 0.87805 0.17501 0.52647 0.0
C791 C 0.87553 0.15532 0.50562 0.0
C792 C 0.85616 0.15878 0.48476 0.0
C793 C 0.84013 0.18214 0.4846 0.0
C794 C 0.89831 0.17191 0.5492 0.0
C795 C 0.85308 0.13834 0.46205 0.0
C796 C 0.93814 0.11411 0.49205 0.0
C797 C 0.93234 0.08979 0.50558 0.0
C798 C 0.91945 0.13524 0.49122 0.0
C799 C 0.89451 0.13216 0.50465 0.0
C800 C 0.88832 0.10747 0.51798 0.0
C801 C 0.90727 0.08642 0.51808 0.0
C802 C 0.92665 0.16107 0.47636 0.0
C803 C 0.86203 0.10358 0.53277 0.0
H804 H 0.86408 0.21353 0.54141 0.0
H805 H 0.82581 0.18521 0.46824 0.0
H806 H 0.89591 0.15195 0.5593 0.0
H807 H 0.91889 0.17266 0.54062 0.0
H808 H 0.89641 0.18805 0.56489 0.0
H809 H 0.83588 0.14307 0.44846 0.0
H810 H 0.87164 0.13786 0.44955 0.0
H811 H 0.85022 0.11776 0.47065 0.0
H812 H 0.95737 0.11665 0.48203 0.0
H813 H 0.90279 0.06766 0.52865 0.0
H814 H 0.92775 0.17807 0.49112 0.0
H815 H 0.9109 0.16617 0.46121 0.0
H816 H 0.9462 0.15957 0.46556 0.0
H817 H 0.86051 0.1183 0.54981 0.0
H818 H 0.85988 0.08281 0.54122 0.0
H819 H 0.84503 0.10759 0.51874 0.0
C820 C 0.86551 0.80714 0.54022 0.0
C821 C 0.84478 0.80341 0.52128 0.0
C822 C 0.88198 0.83016 0.53911 0.0
C823 C 0.87789 0.84957 0.51821 0.0
C824 C 0.85658 0.84617 0.49942 0.0
C825 C 0.84012 0.82321 0.50133 0.0
C826 C 0.90421 0.83333 0.55982 0.0
C827 C 0.85187 0.86619 0.47659 0.0
C828 C 0.9104 0.91889 0.52492 0.0
C829 C 0.93418 0.91521 0.51011 0.0
C830 C 0.89182 0.8977 0.52778 0.0
C831 C 0.89695 0.87251 0.515 0.0
C832 C 0.92061 0.86898 0.49941 0.0
C833 C 0.93909 0.89028 0.49742 0.0
C834 C 0.86708 0.90203 0.545 0.0
C835 C 0.92654 0.84262 0.48499 0.0
H836 H 0.86897 0.79188 0.55576 0.0
H837 H 0.82425 0.82016 0.48651 0.0
H838 H 0.92394 0.83191 0.54946 0.0
H839 H 0.90311 0.85358 0.56955 0.0
H840 H 0.90333 0.81761 0.57604 0.0
H841 H 0.83363 0.86133 0.46453 0.0
H842 H 0.84983 0.88695 0.48493 0.0
H843 H 0.8694 0.86626 0.46262 0.0
H844 H 0.9067 0.93806 0.53501 0.0
H845 H 0.95737 0.88747 0.48577 0.0
H846 H 0.86727 0.88786 0.56259 0.0
H847 H 0.8488 0.89758 0.53291 0.0
H848 H 0.86569 0.92305 0.55292 0.0
H849 H 0.92874 0.82612 0.5002 0.0
H850 H 0.94516 0.84365 0.47257 0.0
H851 H 0.9096 0.83711 0.47139 0.0
C852 C 0.19866 0.8272 0.53476 0.0
C853 C 0.21848 0.82972 0.5146 0.0
C854 C 0.17551 0.84336 0.53412 0.0
C855 C 0.17203 0.86226 0.51265 0.0
C856 C 0.19162 0.86429 0.4918 0.0
C857 C 0.2147 0.84811 0.49313 0.0
C858 C 0.15524 0.84086 0.5569 0.0
C859 C 0.18851 0.88399 0.46842 0.0
C860 C 0.1032 0.89306 0.49986 0.0
C861 C 0.10618 0.91868 0.51179 0.0
C862 C 0.12442 0.87432 0.50007 0.0
C863 C 0.14891 0.88127 0.51296 0.0
C864 C 0.1517 0.90685 0.52565 0.0
C865 C 0.1304 0.9253 0.52472 0.0
C866 C 0.12086 0.84737 0.48602 0.0
C867 C 0.17732 0.9149 0.53999 0.0
H868 H 0.20166 0.81315 0.55151 0.0
H869 H 0.22987 0.84984 0.47735 0.0
H870 H 0.15446 0.86008 0.56861 0.0
H871 H 0.13494 0.83732 0.54838 0.0
H872 H 0.16014 0.82413 0.57122 0.0
H873 H 0.20457 0.88171 0.45287 0.0
H874 H 0.1688 0.88108 0.45834 0.0
H875 H 0.18904 0.90504 0.47632 0.0
H876 H 0.08456 0.88792 0.48971 0.0
H877 H 0.13269 0.94496 0.53429 0.0
H878 H 0.12463 0.83064 0.50063 0.0
H879 H 0.13571 0.84536 0.46926 0.0
H880 H 0.10042 0.84489 0.47733 0.0
H881 H 0.18252 0.89966 0.55579 0.0
H882 H 0.17578 0.93505 0.54993 0.0
H883 H 0.19409 0.91547 0.52511 0.0
C884 C 0.49303 0.18394 0.18513 0.0
C885 C 0.51406 0.20277 0.18542 0.0
C886 C 0.49413 0.16095 0.16838 0.0
C887 C 0.51687 0.15669 0.15162 0.0
C888 C 0.53857 0.17516 0.15251 0.0
C889 C 0.53685 0.19806 0.16935 0.0
C890 C 0.47051 0.14182 0.16779 0.0
C891 C 0.56323 0.17116 0.13507 0.0
C892 C 0.52713 0.08725 0.11991 0.0
C893 C 0.51752 0.09149 0.09331 0.0
C894 C 0.5272 0.10833 0.13915 0.0
C895 C 0.51708 0.13406 0.13166 0.0
C896 C 0.50707 0.13833 0.10496 0.0
C897 C 0.50755 0.11705 0.08608 0.0
C898 C 0.53826 0.10316 0.16738 0.0
C899 C 0.49579 0.1654 0.09631 0.0
H900 H 0.47524 0.18769 0.19729 0.0
H901 H 0.55325 0.21247 0.16977 0.0
H902 H 0.46091 0.14248 0.14735 0.0
H903 H 0.47728 0.12071 0.17126 0.0
H904 H 0.45519 0.14699 0.18342 0.0
H905 H 0.57914 0.18621 0.1397 0.0
H906 H 0.57149 0.15054 0.13818 0.0
H907 H 0.5578 0.17298 0.11317 0.0
H908 H 0.535 0.06758 0.12557 0.0
H909 H 0.49983 0.12042 0.06567 0.0
H910 H 0.5226 0.10715 0.18295 0.0
H911 H 0.55513 0.11722 0.17155 0.0
H912 H 0.54551 0.08205 0.16991 0.0
H913 H 0.47902 0.17123 0.10998 0.0
H914 H 0.48833 0.16521 0.07492 0.0
H915 H 0.51144 0.18127 0.09815 0.0
C916 C 0.84319 0.52339 0.19128 0.0
C917 C 0.84316 0.5019 0.21 0.0
C918 C 0.86016 0.52309 0.16842 0.0
C919 C 0.87735 0.50068 0.16415 0.0
C920 C 0.87672 0.47852 0.18249 0.0
C921 C 0.8597 0.47946 0.20528 0.0
C922 C 0.86045 0.54719 0.14944 0.0
C923 C 0.89456 0.45415 0.17844 0.0
C924 C 0.90933 0.49144 0.09431 0.0
C925 C 0.93522 0.50156 0.09887 0.0
C926 C 0.89025 0.49091 0.1154 0.0
C927 C 0.89715 0.50113 0.14148 0.0
C928 C 0.92315 0.51169 0.14608 0.0
C929 C 0.94192 0.51161 0.12478 0.0
C930 C 0.86281 0.47921 0.10985 0.0
C931 C 0.93117 0.52311 0.17352 0.0
H932 H 0.83064 0.5409 0.19506 0.0
H933 H 0.8595 0.46272 0.21962 0.0
H934 H 0.88032 0.55726 0.15038 0.0
H935 H 0.85735 0.54055 0.12802 0.0
H936 H 0.84476 0.56227 0.15472 0.0
H937 H 0.89032 0.43784 0.19346 0.0
H938 H 0.89194 0.44588 0.15754 0.0
H939 H 0.91588 0.46022 0.18052 0.0
H940 H 0.90409 0.48349 0.07437 0.0
H941 H 0.9618 0.51974 0.12837 0.0
H942 H 0.84718 0.49468 0.11383 0.0
H943 H 0.85892 0.46201 0.1239 0.0
H944 H 0.86067 0.47195 0.08848 0.0
H945 H 0.91734 0.53971 0.17938 0.0
H946 H 0.952 0.5311 0.17354 0.0
H947 H 0.92956 0.50719 0.18943 0.0
C948 C 0.52006 0.82053 0.18867 0.0
C949 C 0.50072 0.82592 0.20863 0.0
C950 C 0.52285 0.83757 0.1659 0.0
C951 C 0.50549 0.86008 0.16296 0.0
C952 C 0.48516 0.86484 0.18257 0.0
C953 C 0.48323 0.84783 0.20539 0.0
C954 C 0.54503 0.83217 0.14562 0.0
C955 C 0.46591 0.88829 0.17983 0.0
C956 C 0.52755 0.9219 0.12295 0.0
C957 C 0.51456 0.91782 0.09793 0.0
C958 C 0.52541 0.9028 0.14402 0.0
C959 C 0.50933 0.87947 0.14013 0.0
C960 C 0.49619 0.87525 0.11486 0.0
C961 C 0.49925 0.89436 0.0939 0.0
C962 C 0.54014 0.90772 0.17051 0.0
C963 C 0.47837 0.85096 0.11022 0.0
H964 H 0.53367 0.80364 0.19148 0.0
H965 H 0.46826 0.85181 0.22094 0.0
H966 H 0.53675 0.83079 0.12464 0.0
H967 H 0.55947 0.84926 0.14581 0.0
H968 H 0.55606 0.81317 0.15024 0.0
H969 H 0.44998 0.88788 0.19569 0.0
H970 H 0.47701 0.90767 0.18162 0.0
H971 H 0.45629 0.88802 0.15939 0.0
H972 H 0.53958 0.93995 0.12596 0.0
H973 H 0.48899 0.89134 0.07461 0.0
H974 H 0.55278 0.88995 0.17564 0.0
H975 H 0.52553 0.91035 0.18739 0.0
H976 H 0.55313 0.92598 0.16959 0.0
H977 H 0.48981 0.83202 0.11368 0.0
H978 H 0.46987 0.8505 0.08924 0.0
H979 H 0.46159 0.85117 0.1251 0.0
C980 C 0.21588 0.4881 0.16391 0.0
C981 C 0.21976 0.50958 0.18217 0.0
C982 C 0.19282 0.4867 0.1476 0.0
C983 C 0.17336 0.50748 0.14939 0.0
C984 C 0.17695 0.52899 0.16815 0.0
C985 C 0.20009 0.52971 0.18445 0.0
C986 C 0.18956 0.46328 0.12805 0.0
C987 C 0.1568 0.55169 0.17035 0.0
C988 C 0.13146 0.51822 0.08577 0.0
C989 C 0.10733 0.50541 0.09282 0.0
C990 C 0.15282 0.5196 0.10428 0.0
C991 C 0.15016 0.50752 0.13035 0.0
C992 C 0.12575 0.4948 0.13775 0.0
C993 C 0.10449 0.49411 0.11893 0.0
C994 C 0.17837 0.53375 0.09579 0.0
C995 C 0.12233 0.48143 0.16526 0.0
H996 H 0.23096 0.47237 0.16239 0.0
H997 H 0.2032 0.54644 0.19842 0.0
H998 H 0.16986 0.45333 0.13127 0.0
H999 H 0.18994 0.47083 0.1067 0.0
H1000 H 0.20562 0.44789 0.13046 0.0
H1001 H 0.16184 0.56614 0.18696 0.0
H1002 H 0.15595 0.56296 0.15076 0.0
H1003 H 0.13647 0.54339 0.17418 0.0
H1004 H 0.13363 0.52736 0.06575 0.0
H1005 H 0.08589 0.48412 0.12442 0.0
H1006 H 0.19515 0.51902 0.09532 0.0
H1007 H 0.18366 0.54961 0.11089 0.0
H1008 H 0.17668 0.5433 0.07531 0.0
H1009 H 0.13702 0.46471 0.16745 0.0
H1010 H 0.10183 0.47309 0.16816 0.0
H1011 H 0.12646 0.49617 0.18183 0.0
C1012 C 0.53749 0.80669 0.84779 0.0
C1013 C 0.51483 0.80164 0.83165 0.0
C1014 C 0.53884 0.82962 0.86459 0.0
C1015 C 0.51688 0.84775 0.86541 0.0
C1016 C 0.49426 0.84315 0.84857 0.0
C1017 C 0.49354 0.82015 0.8318 0.0
C1018 C 0.56341 0.83402 0.88207 0.0
C1019 C 0.47037 0.86192 0.84909 0.0
C1020 C 0.50762 0.88734 0.93096 0.0
C1021 C 0.51753 0.91292 0.92368 0.0
C1022 C 0.507 0.8661 0.91205 0.0
C1023 C 0.51682 0.87044 0.88527 0.0
C1024 C 0.52676 0.89622 0.87772 0.0
C1025 C 0.52683 0.91726 0.897 0.0
C1026 C 0.49588 0.83898 0.92077 0.0
C1027 C 0.53761 0.90146 0.84941 0.0
H1028 H 0.55407 0.7925 0.84746 0.0
H1029 H 0.47589 0.81612 0.81954 0.0
H1030 H 0.57142 0.85474 0.87891 0.0
H1031 H 0.55794 0.83219 0.90397 0.0
H1032 H 0.57952 0.81916 0.87754 0.0
H1033 H 0.45515 0.85648 0.83346 0.0
H1034 H 0.46076 0.86117 0.86953 0.0
H1035 H 0.47685 0.88312 0.84558 0.0
H1036 H 0.50007 0.88394 0.95145 0.0
H1037 H 0.53462 0.93696 0.89129 0.0
H1038 H 0.51156 0.82318 0.91879 0.0
H1039 H 0.47902 0.8331 0.90722 0.0
H1040 H 0.48858 0.83912 0.94221 0.0
H1041 H 0.55474 0.88775 0.84526 0.0
H1042 H 0.54443 0.92271 0.84672 0.0
H1043 H 0.52198 0.89705 0.83391 0.0
C1044 C 0.19557 0.52951 0.82839 0.0
C1045 C 0.19501 0.50909 0.80854 0.0
C1046 C 0.17843 0.52847 0.85111 0.0
C1047 C 0.16058 0.50635 0.85408 0.0
C1048 C 0.16075 0.48515 0.83464 0.0
C1049 C 0.17787 0.48687 0.812 0.0
C1050 C 0.17862 0.55155 0.87133 0.0
C1051 C 0.14227 0.46106 0.8373 0.0
C1052 C 0.12754 0.49391 0.92287 0.0
C1053 C 0.10189 0.50476 0.91855 0.0
C1054 C 0.14691 0.49426 0.90207 0.0
C1055 C 0.14057 0.50613 0.87655 0.0
C1056 C 0.11482 0.51738 0.8722 0.0
C1057 C 0.09572 0.51638 0.89319 0.0
C1058 C 0.17402 0.48169 0.90729 0.0
C1059 C 0.10741 0.53048 0.84535 0.0
H1060 H 0.20867 0.54681 0.82557 0.0
H1061 H 0.17764 0.47096 0.79674 0.0
H1062 H 0.15905 0.56222 0.87072 0.0
H1063 H 0.18131 0.54373 0.89239 0.0
H1064 H 0.19478 0.56644 0.86697 0.0
H1065 H 0.14632 0.44538 0.82157 0.0
H1066 H 0.14439 0.45175 0.85781 0.0
H1067 H 0.12114 0.46775 0.83522 0.0
H1068 H 0.13236 0.48472 0.94237 0.0
H1069 H 0.07602 0.52503 0.88983 0.0
H1070 H 0.19002 0.49704 0.90445 0.0
H1071 H 0.17776 0.46527 0.89231 0.0
H1072 H 0.1757 0.47314 0.92822 0.0
H1073 H 0.12176 0.54696 0.84051 0.0
H1074 H 0.08681 0.53903 0.84558 0.0
H1075 H 0.10873 0.51539 0.82862 0.0
C1076 C 0.48018 0.16073 0.81443 0.0
C1077 C 0.49966 0.18071 0.8101 0.0
C1078 C 0.48165 0.14347 0.83713 0.0
C1079 C 0.50346 0.14595 0.85548 0.0
C1080 C 0.52265 0.16676 0.85168 0.0
C1081 C 0.52036 0.18409 0.8291 0.0
C1082 C 0.46046 0.12194 0.84088 0.0
C1083 C 0.54634 0.16981 0.87064 0.0
C1084 C 0.49984 0.11118 0.92451 0.0
C1085 C 0.51326 0.0868 0.9192 0.0
C1086 C 0.49643 0.13065 0.90395 0.0
C1087 C 0.50709 0.12576 0.87763 0.0
C1088 C 0.52108 0.10137 0.8723 0.0
C1089 C 0.52374 0.08203 0.8931 0.0
C1090 C 0.4809 0.15614 0.91022 0.0
C1091 C 0.53322 0.09568 0.84462 0.0
H1092 H 0.46417 0.15822 0.79966 0.0
H1093 H 0.53557 0.19937 0.82547 0.0
H1094 H 0.46946 0.10164 0.83778 0.0
H1095 H 0.45243 0.12253 0.86202 0.0
H1096 H 0.44354 0.12435 0.82632 0.0
H1097 H 0.55864 0.18792 0.8657 0.0
H1098 H 0.53945 0.17138 0.89212 0.0
H1099 H 0.55927 0.15159 0.8692 0.0
H1100 H 0.49141 0.11479 0.94459 0.0
H1101 H 0.5343 0.06327 0.88901 0.0
H1102 H 0.46198 0.15624 0.89829 0.0
H1103 H 0.49251 0.17429 0.90406 0.0
H1104 H 0.47587 0.15786 0.93224 0.0
H1105 H 0.5172 0.09487 0.82892 0.0
H1106 H 0.54443 0.07626 0.84418 0.0
H1107 H 0.54708 0.11229 0.8388 0.0
C1108 C 0.85723 0.52957 0.81568 0.0
C1109 C 0.83992 0.50766 0.8112 0.0
C1110 C 0.87358 0.5306 0.839 0.0
C1111 C 0.87272 0.50908 0.85811 0.0
C1112 C 0.85456 0.48741 0.85419 0.0
C1113 C 0.83838 0.48697 0.83079 0.0
C1114 C 0.89255 0.55416 0.84262 0.0
C1115 C 0.85323 0.46397 0.87397 0.0
C1116 C 0.93671 0.49429 0.89692 0.0
C1117 C 0.93111 0.50516 0.92276 0.0
C1118 C 0.91778 0.49531 0.87586 0.0
C1119 C 0.89267 0.50779 0.88061 0.0
C1120 C 0.88678 0.51871 0.90668 0.0
C1121 C 0.90604 0.51707 0.92758 0.0
C1122 C 0.92471 0.48305 0.84847 0.0
C1123 C 0.8603 0.53239 0.91237 0.0
H1124 H 0.85827 0.54572 0.80071 0.0
H1125 H 0.8253 0.46979 0.82725 0.0
H1126 H 0.8906 0.56274 0.86347 0.0
H1127 H 0.91353 0.54706 0.8403 0.0
H1128 H 0.88888 0.57049 0.82747 0.0
H1129 H 0.83637 0.45 0.86933 0.0
H1130 H 0.87224 0.45234 0.87307 0.0
H1131 H 0.85094 0.47145 0.8952 0.0
H1132 H 0.95595 0.48478 0.89315 0.0
H1133 H 0.90171 0.52565 0.94748 0.0
H1134 H 0.92406 0.49886 0.83238 0.0
H1135 H 0.90972 0.46738 0.84294 0.0
H1136 H 0.94494 0.47362 0.84833 0.0
H1137 H 0.85746 0.54964 0.89814 0.0
H1138 H 0.85892 0.54003 0.93367 0.0
H1139 H 0.84358 0.518 0.90876 0.0
C1140 C 0.69908 0.68222 0.01861 0.0
C1141 C 0.71894 0.67658 0.99916 0.0
C1142 C 0.67593 0.66619 0.02052 0.0
C1143 C 0.67242 0.64426 0.00225 0.0
C1144 C 0.69198 0.6391 0.98192 0.0
C1145 C 0.71517 0.65518 0.98079 0.0
C1146 C 0.65578 0.67203 0.04277 0.0
C1147 C 0.68873 0.61618 0.96178 0.0
C1148 C 0.63052 0.58372 0.02339 0.0
C1149 C 0.60632 0.58868 0.00975 0.0
C1150 C 0.65189 0.60207 0.02173 0.0
C1151 C 0.6492 0.62564 0.00548 0.0
C1152 C 0.62466 0.63092 0.99191 0.0
C1153 C 0.60334 0.61248 0.99448 0.0
C1154 C 0.67748 0.596 0.03705 0.0
C1155 C 0.62121 0.65558 0.97403 0.0
H1156 H 0.70214 0.69863 0.03299 0.0
H1157 H 0.73045 0.65096 0.96562 0.0
H1158 H 0.63543 0.67434 0.03393 0.0
H1159 H 0.655 0.65474 0.05723 0.0
H1160 H 0.66078 0.69067 0.05441 0.0
H1161 H 0.70467 0.61621 0.94593 0.0
H1162 H 0.68938 0.59653 0.97274 0.0
H1163 H 0.66893 0.61755 0.95154 0.0
H1164 H 0.63275 0.56541 0.03541 0.0
H1165 H 0.58469 0.61618 0.98372 0.0
H1166 H 0.68303 0.61343 0.05018 0.0
H1167 H 0.69413 0.59286 0.02236 0.0
H1168 H 0.67571 0.57766 0.05009 0.0
H1169 H 0.62543 0.67423 0.98589 0.0
H1170 H 0.60068 0.65705 0.96535 0.0
H1171 H 0.63583 0.65489 0.95695 0.0
C1172 C 0.34217 0.68195 0.99318 0.0
C1173 C 0.34348 0.70122 0.01418 0.0
C1174 C 0.35873 0.65901 0.99338 0.0
C1175 C 0.37697 0.65518 0.01519 0.0
C1176 C 0.37774 0.67407 0.03694 0.0
C1177 C 0.36107 0.69697 0.0361 0.0
C1178 C 0.35752 0.63951 0.96966 0.0
C1179 C 0.39676 0.67053 0.06067 0.0
C1180 C 0.40928 0.58587 0.02355 0.0
C1181 C 0.43449 0.59021 0.01163 0.0
C1182 C 0.39036 0.6069 0.02513 0.0
C1183 C 0.3967 0.63264 0.01409 0.0
C1184 C 0.42197 0.63694 0.00165 0.0
C1185 C 0.4406 0.61575 0.00076 0.0
C1186 C 0.36374 0.60169 0.03884 0.0
C1187 C 0.42936 0.66394 0.98923 0.0
H1188 H 0.32888 0.68533 0.97599 0.0
H1189 H 0.36197 0.71172 0.05247 0.0
H1190 H 0.37676 0.6401 0.95827 0.0
H1191 H 0.35477 0.6185 0.97715 0.0
H1192 H 0.34099 0.64437 0.95527 0.0
H1193 H 0.39333 0.68575 0.07701 0.0
H1194 H 0.39458 0.64999 0.06957 0.0
H1195 H 0.41775 0.67248 0.05342 0.0
H1196 H 0.40456 0.56622 0.03217 0.0
H1197 H 0.45996 0.61915 0.99127 0.0
H1198 H 0.34716 0.60529 0.02418 0.0
H1199 H 0.36094 0.616 0.05607 0.0
H1200 H 0.36208 0.58068 0.04678 0.0
H1201 H 0.41459 0.66954 0.97326 0.0
H1202 H 0.44967 0.66377 0.9799 0.0
H1203 H 0.42876 0.67994 0.00511 0.0
C1204 C 0.36354 0.30695 0.99187 0.0
C1205 C 0.34514 0.30299 0.01313 0.0
C1206 C 0.37967 0.33017 0.9909 0.0
C1207 C 0.37762 0.3497 0.01195 0.0
C1208 C 0.35868 0.34607 0.03321 0.0
C1209 C 0.34248 0.32279 0.03344 0.0
C1210 C 0.39935 0.33347 0.96767 0.0
C1211 C 0.35621 0.36627 0.05622 0.0
C1212 C 0.44073 0.39078 0.02373 0.0
C1213 C 0.43453 0.41527 0.0107 0.0
C1214 C 0.42203 0.36966 0.02505 0.0
C1215 C 0.39664 0.37289 0.01257 0.0
C1216 C 0.39007 0.39771 0.99968 0.0
C1217 C 0.40905 0.41875 0.99914 0.0
C1218 C 0.42964 0.34372 0.03944 0.0
C1219 C 0.36333 0.40173 0.98583 0.0
H1220 H 0.36533 0.29176 0.97598 0.0
H1221 H 0.32832 0.31964 0.04994 0.0
H1222 H 0.39669 0.35353 0.95783 0.0
H1223 H 0.42014 0.33265 0.97568 0.0
H1224 H 0.39703 0.31748 0.95189 0.0
H1225 H 0.33945 0.36131 0.0703 0.0
H1226 H 0.37514 0.36671 0.06812 0.0
H1227 H 0.35303 0.38692 0.04793 0.0
H1228 H 0.46026 0.38814 0.0331 0.0
H1229 H 0.40421 0.43765 0.989 0.0
H1230 H 0.43028 0.32683 0.02452 0.0
H1231 H 0.41434 0.3385 0.05504 0.0
H1232 H 0.44949 0.34514 0.04961 0.0
H1233 H 0.36126 0.38717 0.96871 0.0
H1234 H 0.36093 0.42258 0.97767 0.0
H1235 H 0.34677 0.39758 0.00037 0.0
C1236 C 0.69943 0.32348 0.99882 0.0
C1237 C 0.71932 0.32952 0.0181 0.0
C1238 C 0.67625 0.33945 0.99671 0.0
C1239 C 0.67273 0.36163 0.01468 0.0
C1240 C 0.69243 0.36727 0.03474 0.0
C1241 C 0.71563 0.35129 0.03603 0.0
C1242 C 0.65596 0.33315 0.97473 0.0
C1243 C 0.68919 0.39047 0.05456 0.0
C1244 C 0.63005 0.42185 0.99458 0.0
C1245 C 0.60629 0.41684 0.009 0.0
C1246 C 0.65141 0.40348 0.9954 0.0
C1247 C 0.64922 0.37987 0.01166 0.0
C1248 C 0.62507 0.37447 0.02592 0.0
C1249 C 0.60369 0.39291 0.02412 0.0
C1250 C 0.67653 0.40964 0.97931 0.0
C1251 C 0.62217 0.34977 0.04385 0.0
H1252 H 0.70243 0.30673 0.98484 0.0
H1253 H 0.73093 0.35576 0.05111 0.0
H1254 H 0.63577 0.33046 0.98384 0.0
H1255 H 0.65467 0.35038 0.96023 0.0
H1256 H 0.66117 0.31458 0.96308 0.0
H1257 H 0.70544 0.391 0.07008 0.0
H1258 H 0.68929 0.40995 0.04327 0.0
H1259 H 0.66963 0.38891 0.06524 0.0
H1260 H 0.63195 0.44026 0.98265 0.0
H1261 H 0.58536 0.38914 0.03541 0.0
H1262 H 0.68194 0.39211 0.96625 0.0
H1263 H 0.69351 0.41318 0.99351 0.0
H1264 H 0.67422 0.42778 0.96609 0.0
H1265 H 0.62654 0.33117 0.03197 0.0
H1266 H 0.60176 0.34799 0.05277 0.0
H1267 H 0.63695 0.35073 0.06076 0.0
C1268 C 0.9909 0.70041 0.6608 0.0
C1269 C 0.00776 0.70407 0.68334 0.0
C1270 C 0.99293 0.67719 0.64451 0.0
C1271 C 0.01275 0.65757 0.65061 0.0
C1272 C 0.02977 0.66117 0.67349 0.0
C1273 C 0.02684 0.68433 0.68984 0.0
C1274 C 0.97406 0.6738 0.62061 0.0
C1275 C 0.05149 0.64097 0.68024 0.0
C1276 C 1.00403 0.58792 0.6191 0.0
C1277 C 0.01914 0.59053 0.59512 0.0
C1278 C 1.00209 0.60947 0.63768 0.0
C1279 C 0.01616 0.63382 0.63237 0.0
C1280 C 0.03237 0.63606 0.60872 0.0
C1281 C 0.03337 0.61448 0.59019 0.0
C1282 C 0.98417 0.60656 0.66237 0.0
C1283 C 0.04817 0.66145 0.60266 0.0
H1284 H 0.97606 0.71573 0.65603 0.0
H1285 H 0.0399 0.6874 0.70727 0.0
H1286 H 0.98557 0.67392 0.60122 0.0
H1287 H 0.96364 0.65399 0.62196 0.0
H1288 H 0.95875 0.6901 0.61968 0.0
H1289 H 0.06269 0.64651 0.69904 0.0
H1290 H 0.04269 0.62053 0.68304 0.0
H1291 H 0.06588 0.63965 0.66299 0.0
H1292 H 0.99287 0.56943 0.62279 0.0
H1293 H 0.04532 0.61636 0.57176 0.0
H1294 H 0.96754 0.62143 0.66112 0.0
H1295 H 0.99556 0.61106 0.6813 0.0
H1296 H 0.97544 0.58593 0.66411 0.0
H1297 H 0.03423 0.67847 0.59861 0.0
H1298 H 0.06156 0.65903 0.58467 0.0
H1299 H 0.06054 0.66715 0.6206 0.0
C1300 C 0.34143 0.03014 0.6889 0.0
C1301 C 0.3419 0.00971 0.70876 0.0
C1302 C 0.35826 0.02882 0.66595 0.0
C1303 C 0.37568 0.00641 0.66276 0.0
C1304 C 0.37539 0.98521 0.68222 0.0
C1305 C 0.3586 0.9872 0.70508 0.0
C1306 C 0.35821 0.05192 0.64573 0.0
C1307 C 0.39343 0.96082 0.67934 0.0
C1308 C 0.40807 0.99302 0.59384 0.0
C1309 C 0.43401 0.00317 0.59806 0.0
C1310 C 0.38876 0.99402 0.61468 0.0
C1311 C 0.39547 0.00587 0.6401 0.0
C1312 C 0.42148 0.01659 0.64427 0.0
C1313 C 0.4405 0.0149 0.62328 0.0
C1314 C 0.36134 0.98206 0.60965 0.0
C1315 C 0.42928 0.02976 0.67097 0.0
H1316 H 0.32866 0.04765 0.69188 0.0
H1317 H 0.35874 0.97128 0.72033 0.0
H1318 H 0.37789 0.06238 0.64625 0.0
H1319 H 0.35535 0.04415 0.62467 0.0
H1320 H 0.34224 0.06696 0.65017 0.0
H1321 H 0.3893 0.94519 0.69512 0.0
H1322 H 0.3909 0.95155 0.65886 0.0
H1323 H 0.41469 0.96716 0.68116 0.0
H1324 H 0.40299 0.98384 0.5744 0.0
H1325 H 0.4604 0.02312 0.62652 0.0
H1326 H 0.34566 0.99764 0.61298 0.0
H1327 H 0.3575 0.96546 0.62443 0.0
H1328 H 0.3592 0.9739 0.58862 0.0
H1329 H 0.41511 0.04636 0.67592 0.0
H1330 H 0.44994 0.03818 0.67047 0.0
H1331 H 0.42805 0.01473 0.68778 0.0
C1332 C 0.99088 0.34679 0.70629 0.0
C1333 C 0.00907 0.32558 0.71015 0.0
C1334 C 0.99271 0.36366 0.68339 0.0
C1335 C 0.0136 0.35948 0.66427 0.0
C1336 C 0.03187 0.33782 0.66796 0.0
C1337 C 0.02919 0.32087 0.69084 0.0
C1338 C 0.97254 0.38622 0.6799 0.0
C1339 C 0.05464 0.33309 0.64821 0.0
C1340 C 1.00528 0.39246 0.59482 0.0
C1341 C 0.01892 0.41698 0.59866 0.0
C1342 C 1.00379 0.37324 0.61585 0.0
C1343 C 0.01675 0.37851 0.64103 0.0
C1344 C 0.03136 0.40283 0.64462 0.0
C1345 C 0.032 0.42194 0.62347 0.0
C1346 C 0.98755 0.3478 0.61149 0.0
C1347 C 0.04587 0.40892 0.671 0.0
H1348 H 0.97527 0.35019 0.72134 0.0
H1349 H 0.04326 0.30445 0.6941 0.0
H1350 H 0.98283 0.4061 0.68109 0.0
H1351 H 0.96301 0.38491 0.65946 0.0
H1352 H 0.95658 0.38564 0.69572 0.0
H1353 H 0.06661 0.31489 0.65358 0.0
H1354 H 0.04677 0.33063 0.62717 0.0
H1355 H 0.06812 0.35097 0.64807 0.0
H1356 H 0.995 0.38869 0.57568 0.0
H1357 H 0.04283 0.44077 0.62633 0.0
H1358 H 0.97015 0.3477 0.62562 0.0
H1359 H 0.99979 0.32966 0.61622 0.0
H1360 H 0.97998 0.34608 0.59022 0.0
H1361 H 0.03113 0.41131 0.6878 0.0
H1362 H 0.05807 0.42769 0.66967 0.0
H1363 H 0.05923 0.39182 0.67654 0.0
C1364 C 0.71421 0.03365 0.6597 0.0
C1365 C 0.71833 0.01599 0.68168 0.0
C1366 C 0.69111 0.03167 0.64348 0.0
C1367 C 0.67204 0.01115 0.64908 0.0
C1368 C 0.67596 0.99351 0.67153 0.0
C1369 C 0.69898 0.99633 0.68777 0.0
C1370 C 0.68738 0.05121 0.62005 0.0
C1371 C 0.65635 0.97105 0.6778 0.0
C1372 C 0.60279 0.01751 0.61735 0.0
C1373 C 0.60592 1.00238 0.59335 0.0
C1374 C 0.62409 0.02042 0.63587 0.0
C1375 C 0.64879 0.0073 0.6305 0.0
C1376 C 0.65166 0.99119 0.60676 0.0
C1377 C 0.63029 0.98923 0.58827 0.0
C1378 C 0.62046 0.03822 0.66066 0.0
C1379 C 0.67745 0.97636 0.60064 0.0
H1380 H 0.72915 0.04897 0.65518 0.0
H1381 H 0.70235 0.98257 0.70469 0.0
H1382 H 0.68812 0.04008 0.60039 0.0
H1383 H 0.6674 0.061 0.6214 0.0
H1384 H 0.70302 0.06722 0.61972 0.0
H1385 H 0.66178 0.95975 0.69663 0.0
H1386 H 0.63585 0.97938 0.68028 0.0
H1387 H 0.6557 0.95661 0.66045 0.0
H1388 H 0.58401 0.0279 0.62114 0.0
H1389 H 0.63262 0.97733 0.5698 0.0
H1390 H 0.6348 0.05538 0.65976 0.0
H1391 H 0.62494 0.02666 0.67954 0.0
H1392 H 0.5998 0.0465 0.66218 0.0
H1393 H 0.69384 0.99115 0.59715 0.0
H1394 H 0.67576 0.9632 0.58231 0.0
H1395 H 0.68332 0.96365 0.61835 0.0
C1396 C 0.97748 0.3074 0.3557 0.0
C1397 C 0.99462 0.30345 0.33339 0.0
C1398 C 0.97997 0.33034 0.37236 0.0
C1399 C 1.0005 0.3494 0.36685 0.0
C1400 C 0.01741 0.34583 0.34388 0.0
C1401 C 0.01409 0.32295 0.32724 0.0
C1402 C 0.96119 0.33374 0.39633 0.0
C1403 C 0.03979 0.36548 0.33764 0.0
C1404 C 0.9971 0.41835 0.40092 0.0
C1405 C 0.01297 0.41413 0.42417 0.0
C1406 C 0.99284 0.39747 0.38198 0.0
C1407 C 1.00532 0.37207 0.38614 0.0
C1408 C 0.02197 0.36799 0.40922 0.0
C1409 C 0.02531 0.38899 0.42816 0.0
C1410 C 0.97447 0.40235 0.35797 0.0
C1411 C 0.03606 0.34135 0.41406 0.0
H1412 H 0.96233 0.29231 0.36028 0.0
H1413 H 0.02747 0.31969 0.31009 0.0
H1414 H 0.97257 0.33183 0.4157 0.0
H1415 H 0.95209 0.35423 0.39605 0.0
H1416 H 0.94487 0.31843 0.39634 0.0
H1417 H 0.0502 0.3606 0.31819 0.0
H1418 H 0.03188 0.38642 0.33636 0.0
H1419 H 0.05471 0.36509 0.35446 0.0
H1420 H 0.98728 0.43772 0.39799 0.0
H1421 H 0.03773 0.3858 0.44606 0.0
H1422 H 0.95731 0.38806 0.35881 0.0
H1423 H 0.98527 0.39846 0.33856 0.0
H1424 H 0.96651 0.42336 0.35756 0.0
H1425 H 0.02104 0.32507 0.41717 0.0
H1426 H 0.04946 0.342 0.43217 0.0
H1427 H 0.04816 0.3358 0.39588 0.0
C1428 C 0.67693 0.98666 0.31208 0.0
C1429 C 0.69421 0.00873 0.30836 0.0
C1430 C 0.65995 0.98521 0.33485 0.0
C1431 C 0.66006 0.00653 0.35417 0.0
C1432 C 0.67805 0.02849 0.35093 0.0
C1433 C 0.69506 0.02926 0.32808 0.0
C1434 C 0.64132 0.96127 0.3378 0.0
C1435 C 0.67855 0.0517 0.37098 0.0
C1436 C 0.59538 0.01705 0.39345 0.0
C1437 C 0.60154 0.00544 0.41881 0.0
C1438 C 0.61445 0.01796 0.37243 0.0
C1439 C 0.64016 0.0066 0.37675 0.0
C1440 C 0.64652 0.99483 0.4023 0.0
C1441 C 0.62718 0.99458 0.42314 0.0
C1442 C 0.60702 0.03098 0.34555 0.0
C1443 C 0.67359 0.98214 0.4075 0.0
H1444 H 0.67649 0.97066 0.29693 0.0
H1445 H 0.70827 0.04644 0.32507 0.0
H1446 H 0.64349 0.95209 0.35836 0.0
H1447 H 0.62022 0.9681 0.33579 0.0
H1448 H 0.64517 0.94545 0.32216 0.0
H1449 H 0.69482 0.06641 0.36645 0.0
H1450 H 0.65907 0.06254 0.37039 0.0
H1451 H 0.68126 0.044 0.39209 0.0
H1452 H 0.57568 0.02571 0.39008 0.0
H1453 H 0.63199 0.98539 0.44265 0.0
H1454 H 0.60807 0.01578 0.32891 0.0
H1455 H 0.62152 0.04728 0.34051 0.0
H1456 H 0.58652 0.03976 0.34585 0.0
H1457 H 0.6771 0.9655 0.39271 0.0
H1458 H 0.67536 0.97386 0.42853 0.0
H1459 H 0.68967 0.99733 0.40433 0.0
C1460 C 0.03717 0.66317 0.31443 0.0
C1461 C 0.01494 0.67969 0.30913 0.0
C1462 C 0.03782 0.64629 0.33742 0.0
C1463 C 0.01558 0.64577 0.35537 0.0
C1464 C 0.99339 0.663 0.35056 0.0
C1465 C 0.99339 0.6799 0.32749 0.0
C1466 C 0.06198 0.62843 0.34205 0.0
C1467 C 0.96924 0.66282 0.36916 0.0
C1468 C 0.00603 0.58041 0.39469 0.0
C1469 C 0.01631 0.58722 0.42045 0.0
C1470 C 1.00509 0.59951 0.37355 0.0
C1471 C 0.01496 0.62598 0.37819 0.0
C1472 C 0.02511 0.6331 0.40422 0.0
C1473 C 0.02551 0.61365 0.42513 0.0
C1474 C 0.99377 0.59126 0.34616 0.0
C1475 C 0.03605 0.66106 0.40979 0.0
H1476 H 0.05396 0.66326 0.30035 0.0
H1477 H 0.9761 0.69252 0.32326 0.0
H1478 H 0.06985 0.63134 0.36304 0.0
H1479 H 0.05608 0.60686 0.3401 0.0
H1480 H 0.07834 0.63263 0.32723 0.0
H1481 H 0.95442 0.67867 0.3636 0.0
H1482 H 0.95923 0.64278 0.36809 0.0
H1483 H 0.97549 0.66596 0.39068 0.0
H1484 H 0.99854 0.56013 0.39102 0.0
H1485 H 0.03354 0.61902 0.44497 0.0
H1486 H 0.00958 0.59273 0.33028 0.0
H1487 H 0.97737 0.60521 0.34015 0.0
H1488 H 0.98584 0.57024 0.34629 0.0
H1489 H 0.05351 0.66503 0.39633 0.0
H1490 H 0.04245 0.66361 0.43138 0.0
H1491 H 0.02067 0.67657 0.40502 0.0
C1492 C 0.36202 0.96882 0.31475 0.0
C1493 C 0.34101 0.98714 0.31047 0.0
C1494 C 0.37819 0.97058 0.33813 0.0
C1495 C 0.37349 0.99149 0.35733 0.0
C1496 C 0.35177 0.00954 0.35349 0.0
C1497 C 0.33564 0.007 0.33016 0.0
C1498 C 0.40086 0.95064 0.34181 0.0
C1499 C 0.34636 0.0323 0.37332 0.0
C1500 C 0.4069 0.98641 0.4269 0.0
C1501 C 0.43043 1.00132 0.42255 0.0
C1502 C 0.38794 0.98323 0.40594 0.0
C1503 C 0.39251 0.99566 0.38029 0.0
C1504 C 0.4158 0.01155 0.37618 0.0
C1505 C 0.43462 0.01395 0.39728 0.0
C1506 C 0.36358 0.96576 0.41092 0.0
C1507 C 0.4211 0.02565 0.34932 0.0
H1508 H 0.36602 0.95336 0.29957 0.0
H1509 H 0.31953 0.02133 0.32667 0.0
H1510 H 0.42036 0.96133 0.34008 0.0
H1511 H 0.39999 0.94146 0.36248 0.0
H1512 H 0.40034 0.9342 0.32634 0.0
H1513 H 0.32768 0.04348 0.36832 0.0
H1514 H 0.34474 0.02432 0.39444 0.0
H1515 H 0.36339 0.04677 0.37301 0.0
H1516 H 0.40375 0.97641 0.44636 0.0
H1517 H 0.45269 0.02571 0.39397 0.0
H1518 H 0.36506 0.9471 0.39839 0.0
H1519 H 0.34506 0.97648 0.40458 0.0
H1520 H 0.3616 0.95984 0.43271 0.0
H1521 H 0.42375 0.01041 0.3329 0.0
H1522 H 0.4393 0.03862 0.35005 0.0
H1523 H 0.40369 0.03844 0.34363 0.0
C1524 C 0.01971 0.18473 0.32673 0.0
C1525 C 0.99897 0.20298 0.33244 0.0
C1526 C 0.02362 0.16164 0.34307 0.0
C1527 C 0.00608 0.1566 0.36528 0.0
C1528 C 0.98446 0.17447 0.37039 0.0
C1529 C 0.98131 0.19755 0.35403 0.0
C1530 C 0.04709 0.14325 0.33723 0.0
C1531 C 0.96505 0.1696 0.39359 0.0
C1532 C 1.00242 0.08695 0.39814 0.0
C1533 C 0.01664 0.0912 0.42248 0.0
C1534 C 0.99919 0.10791 0.37903 0.0
C1535 C 0.01099 0.13349 0.38415 0.0
C1536 C 0.02623 0.13753 0.40823 0.0
C1537 C 0.0286 0.11642 0.42725 0.0
C1538 C 0.98234 0.10297 0.35389 0.0
C1539 C 0.03952 0.16435 0.41423 0.0
H1540 H 0.03347 0.18907 0.31015 0.0
H1541 H 0.96514 0.2116 0.35828 0.0
H1542 H 0.06129 0.14379 0.35467 0.0
H1543 H 0.04017 0.12202 0.33503 0.0
H1544 H 0.05802 0.14919 0.31838 0.0
H1545 H 0.94825 0.18436 0.3936 0.0
H1546 H 0.95661 0.14886 0.39225 0.0
H1547 H 0.97574 0.17114 0.4134 0.0
H1548 H 0.99294 0.06752 0.3945 0.0
H1549 H 0.03982 0.11968 0.44594 0.0
H1550 H 0.99382 0.10825 0.33522 0.0
H1551 H 0.96439 0.11622 0.3544 0.0
H1552 H 0.97559 0.08159 0.35229 0.0
H1553 H 0.05198 0.17078 0.3966 0.0
H1554 H 0.05241 0.16349 0.43272 0.0
H1555 H 0.024 0.18012 0.41739 0.0
C1556 C 0.84245 0.99849 0.32171 0.0
C1557 C 0.84172 0.02415 0.30941 0.0
C1558 C 0.85929 0.99331 0.34422 0.0
C1559 C 0.87573 0.0143 0.35469 0.0
C1560 C 0.8746 0.04036 0.34273 0.0
C1561 C 0.85762 0.04496 0.32034 0.0
C1562 C 0.85996 0.96525 0.35639 0.0
C1563 C 0.89168 0.06336 0.35329 0.0
C1564 C 0.90633 0.01095 0.42595 0.0
C1565 C 0.93308 0.0042 0.42011 0.0
C1566 C 0.88721 0.01347 0.40497 0.0
C1567 C 0.89493 0.00899 0.37748 0.0
C1568 C 0.92164 1.00122 0.37157 0.0
C1569 C 0.94035 0.99901 0.39288 0.0
C1570 C 0.85896 0.02183 0.41213 0.0
C1571 C 0.93071 0.99606 0.3426 0.0
H1572 H 0.83037 0.98226 0.31332 0.0
H1573 H 0.85679 0.06499 0.31133 0.0
H1574 H 0.88021 0.95635 0.3537 0.0
H1575 H 0.856 0.96621 0.37868 0.0
H1576 H 0.84501 0.95153 0.34683 0.0
H1577 H 0.88781 0.08264 0.34229 0.0
H1578 H 0.88782 0.06657 0.37537 0.0
H1579 H 0.91322 0.05821 0.35104 0.0
H1580 H 0.90045 0.01503 0.44686 0.0
H1581 H 0.96084 0.99345 0.38809 0.0
H1582 H 0.84432 0.00756 0.40299 0.0
H1583 H 0.85477 0.04216 0.4035 0.0
H1584 H 0.85562 0.02257 0.43456 0.0
H1585 H 0.91712 0.98138 0.33248 0.0
H1586 H 0.95151 0.98807 0.34164 0.0
H1587 H 0.92983 0.01518 0.33074 0.0
C1588 C 0.02291 0.84962 0.30665 0.0
C1589 C 1.00493 0.82789 0.30765 0.0
C1590 C 0.02681 0.86629 0.32954 0.0
C1591 C 0.01172 0.86152 0.3536 0.0
C1592 C 0.99381 0.83928 0.35475 0.0
C1593 C 0.99089 0.8225 0.33181 0.0
C1594 C 0.04657 0.88938 0.32775 0.0
C1595 C 0.97685 0.83393 0.37974 0.0
C1596 C 0.032 0.89513 0.42049 0.0
C1597 C 0.01618 0.91854 0.41998 0.0
C1598 C 0.03103 0.87644 0.39885 0.0
C1599 C 0.01318 0.88095 0.37677 0.0
C1600 C 0.99668 0.90428 0.37664 0.0
C1601 C 0.99869 0.92298 0.39805 0.0
C1602 C 0.04945 0.85221 0.39932 0.0
C1603 C 0.97683 0.90949 0.35393 0.0
H1604 H 0.03378 0.85361 0.28789 0.0
H1605 H 0.97685 0.80574 0.33235 0.0
H1606 H 0.03569 0.90895 0.3284 0.0
H1607 H 0.06039 0.88896 0.34551 0.0
H1608 H 0.05862 0.88867 0.30867 0.0
H1609 H 0.9648 0.81511 0.37779 0.0
H1610 H 0.98969 0.83226 0.39816 0.0
H1611 H 0.963 0.85118 0.38311 0.0
H1612 H 0.04567 0.89186 0.43739 0.0
H1613 H 0.98625 0.94098 0.39785 0.0
H1614 H 0.06254 0.85245 0.38099 0.0
H1615 H 0.03756 0.83325 0.39855 0.0
H1616 H 0.06231 0.85177 0.41785 0.0
H1617 H 0.98758 0.91186 0.33423 0.0
H1618 H 0.96465 0.92798 0.35756 0.0
H1619 H 0.96309 0.89195 0.35177 0.0
C1620 C 0.17394 0.0201 0.31018 0.0
C1621 C 0.19521 1.00161 0.30944 0.0
C1622 C 0.15759 0.02241 0.33344 0.0
C1623 C 0.16219 0.00525 0.35618 0.0
C1624 C 0.18417 0.98709 0.3558 0.0
C1625 C 0.2006 0.98571 0.33252 0.0
C1626 C 0.13478 0.04249 0.33328 0.0
C1627 C 0.18943 0.96804 0.37932 0.0
C1628 C 0.12755 0.01992 0.42406 0.0
C1629 C 0.1044 0.00398 0.42181 0.0
C1630 C 0.14654 0.02074 0.4028 0.0
C1631 C 0.1426 0.00459 0.3792 0.0
C1632 C 0.11957 0.98789 0.37728 0.0
C1633 C 0.10058 0.98811 0.39842 0.0
C1634 C 0.17045 0.03932 0.40531 0.0
C1635 C 0.11491 0.96982 0.35285 0.0
H1636 H 0.16986 0.03247 0.29235 0.0
H1637 H 0.2169 0.9712 0.33181 0.0
H1638 H 0.11538 0.03152 0.33255 0.0
H1639 H 0.13494 0.05469 0.35231 0.0
H1640 H 0.13579 0.05641 0.31547 0.0
H1641 H 0.20841 0.95656 0.3767 0.0
H1642 H 0.19038 0.97937 0.39884 0.0
H1643 H 0.17264 0.95337 0.38103 0.0
H1644 H 0.13039 0.03238 0.44206 0.0
H1645 H 0.0828 0.97558 0.39678 0.0
H1646 H 0.17046 0.05407 0.3882 0.0
H1647 H 0.18929 0.02749 0.4038 0.0
H1648 H 0.17053 0.05067 0.4249 0.0
H1649 H 0.11257 0.98232 0.33417 0.0
H1650 H 0.09675 0.957 0.35521 0.0
H1651 H 0.13249 0.95644 0.34964 0.0
C1652 C 0.03305 0.80898 0.67141 0.0
C1653 C 0.01057 0.80452 0.688 0.0
C1654 C 0.03498 0.83217 0.65497 0.0
C1655 C 0.01375 0.85118 0.65489 0.0
C1656 C 0.99151 0.84736 0.6725 0.0
C1657 C 0.99026 0.8241 0.68899 0.0
C1658 C 0.0592 0.83569 0.63679 0.0
C1659 C 0.96838 0.86705 0.67284 0.0
C1660 C 0.02576 0.91987 0.6218 0.0
C1661 C 0.01584 0.9155 0.59535 0.0
C1662 C 0.0251 0.89919 0.64153 0.0
C1663 C 0.01384 0.87375 0.63473 0.0
C1664 C 1.00328 0.86946 0.60822 0.0
C1665 C 1.00462 0.8903 0.5888 0.0
C1666 C 0.03685 0.9044 0.66945 0.0
C1667 C 0.99071 0.84277 0.60027 0.0
H1668 H 0.04888 0.79395 0.67083 0.0
H1669 H 0.97275 0.82055 0.70163 0.0
H1670 H 0.05314 0.83359 0.61509 0.0
H1671 H 0.0678 0.85625 0.63934 0.0
H1672 H 0.07507 0.82052 0.64119 0.0
H1673 H 0.9538 0.86249 0.68937 0.0
H1674 H 0.9758 0.88806 0.67551 0.0
H1675 H 0.95772 0.86624 0.65296 0.0
H1676 H 0.03457 0.93928 0.62694 0.0
H1677 H 0.9966 0.8869 0.56851 0.0
H1678 H 0.0537 0.89023 0.67325 0.0
H1679 H 0.02156 0.9006 0.68546 0.0
H1680 H 0.04436 0.92546 0.67168 0.0
H1681 H 0.00592 0.82643 0.60141 0.0
H1682 H 0.98228 0.84316 0.57926 0.0
H1683 H 0.97441 0.83751 0.61476 0.0
C1684 C 0.19424 1.00117 0.69609 0.0
C1685 C 0.19482 0.02681 0.70843 0.0
C1686 C 0.17748 0.99593 0.67356 0.0
C1687 C 0.16091 0.01682 0.66313 0.0
C1688 C 0.16186 0.04287 0.67513 0.0
C1689 C 0.17881 0.04754 0.69752 0.0
C1690 C 0.17704 0.96791 0.6613 0.0
C1691 C 0.1446 0.06575 0.66462 0.0
C1692 C 0.13001 0.01288 0.59207 0.0
C1693 C 0.10343 0.00557 0.59807 0.0
C1694 C 0.14917 0.01588 0.61294 0.0
C1695 C 0.14164 0.01135 0.64048 0.0
C1696 C 0.1151 0.00317 0.64657 0.0
C1697 C 0.09635 1.00044 0.62536 0.0
C1698 C 0.17724 0.0247 0.60559 0.0
C1699 C 0.10624 0.99806 0.67563 0.0
H1700 H 0.20639 0.98499 0.70446 0.0
H1701 H 0.17953 0.06756 0.70654 0.0
H1702 H 0.15689 0.95878 0.66406 0.0
H1703 H 0.18089 0.969 0.639 0.0
H1704 H 0.19217 0.95432 0.67075 0.0
H1705 H 0.14836 0.08504 0.67563 0.0
H1706 H 0.14838 0.06902 0.64253 0.0
H1707 H 0.1231 0.06041 0.66692 0.0
H1708 H 0.13576 0.01697 0.57112 0.0
H1709 H 0.07598 0.99453 0.63029 0.0
H1710 H 0.19213 0.01053 0.61448 0.0
H1711 H 0.18128 0.045 0.61436 0.0
H1712 H 0.18039 0.0257 0.58313 0.0
H1713 H 0.11985 0.98332 0.68563 0.0
H1714 H 0.0854 0.99017 0.67679 0.0
H1715 H 0.10733 0.01717 0.68748 0.0
C1716 C 0.99699 0.18829 0.68463 0.0
C1717 C 0.98678 0.17783 0.70928 0.0
C1718 C 1.00357 0.17122 0.66267 0.0
C1719 C 0.9988 0.14307 0.66482 0.0
C1720 C 0.98851 0.1323 0.68948 0.0
C1721 C 0.98323 0.14966 0.71154 0.0
C1722 C 0.01528 0.1834 0.637 0.0
C1723 C 0.98245 0.10246 0.69236 0.0
C1724 C 0.98816 0.10332 0.59923 0.0
C1725 C 0.01205 0.08862 0.59749 0.0
C1726 C 0.98356 0.12112 0.62107 0.0
C1727 C 1.00379 0.12493 0.64106 0.0
C1728 C 0.02839 0.11073 0.63874 0.0
C1729 C 0.03199 0.09226 0.61724 0.0
C1730 C 0.95672 0.13509 0.62327 0.0
C1731 C 0.05079 0.11492 0.65904 0.0
H1732 H 0.9994 0.20992 0.6821 0.0
H1733 H 0.97612 0.14102 0.73053 0.0
H1734 H 0.0338 0.17242 0.63106 0.0
H1735 H 1.00083 0.1813 0.61991 0.0
H1736 H 0.02017 0.2052 0.63951 0.0
H1737 H 0.97381 0.09738 0.71265 0.0
H1738 H 0.96806 0.09608 0.6763 0.0
H1739 H 1.001 0.09043 0.68945 0.0
H1740 H 0.97266 0.10009 0.58402 0.0
H1741 H 0.05045 0.08075 0.61572 0.0
H1742 H 0.95947 0.15736 0.62386 0.0
H1743 H 0.94674 0.12911 0.64262 0.0
H1744 H 0.94321 0.13002 0.60596 0.0
H1745 H 0.05554 0.1368 0.66079 0.0
H1746 H 0.06932 0.10386 0.65319 0.0
H1747 H 0.04442 0.10786 0.67955 0.0
C1748 C 0.83711 0.99453 0.68988 0.0
C1749 C 0.81816 0.0147 0.6842 0.0
C1750 C 0.86054 0.99207 0.67403 0.0
C1751 C 0.86526 0.01053 0.65235 0.0
C1752 C 0.84666 0.03161 0.64736 0.0
C1753 C 0.82325 0.03328 0.66318 0.0
C1754 C 0.87968 0.96911 0.67975 0.0
C1755 C 0.85108 0.05198 0.62478 0.0
C1756 C 0.93457 0.01743 0.62025 0.0
C1757 C 0.93114 0.00335 0.59562 0.0
C1758 C 0.91347 0.01959 0.63922 0.0
C1759 C 0.88859 0.00686 0.63364 0.0
C1760 C 0.88542 0.9918 0.60922 0.0
C1761 C 0.90661 0.99048 0.59041 0.0
C1762 C 0.9175 0.03628 0.66471 0.0
C1763 C 0.85942 0.97753 0.60268 0.0
H1764 H 0.8331 0.98007 0.70604 0.0
H1765 H 0.8087 0.04904 0.65896 0.0
H1766 H 0.87997 0.95504 0.66208 0.0
H1767 H 0.90036 0.97695 0.68236 0.0
H1768 H 0.87402 0.95752 0.69833 0.0
H1769 H 0.83584 0.06837 0.62498 0.0
H1770 H 0.87128 0.06123 0.62665 0.0
H1771 H 0.85023 0.04166 0.60467 0.0
H1772 H 0.95344 0.02759 0.62426 0.0
H1773 H 0.90397 0.97933 0.57152 0.0
H1774 H 0.91256 0.02414 0.6831 0.0
H1775 H 0.90369 0.05389 0.66443 0.0
H1776 H 0.93838 0.04389 0.66664 0.0
H1777 H 0.85376 0.96383 0.61971 0.0
H1778 H 0.8607 0.96547 0.58357 0.0
H1779 H 0.84308 0.99259 0.60038 0.0
C1780 C 0.33828 0.01302 0.19041 0.0
C1781 C 0.34172 0.99167 0.20895 0.0
C1782 C 0.35483 0.0154 0.16725 0.0
C1783 C 0.37499 0.99575 0.16241 0.0
C1784 C 0.37777 0.97358 0.18054 0.0
C1785 C 0.36123 0.97193 0.20366 0.0
C1786 C 0.35145 0.03948 0.14858 0.0
C1787 C 0.39872 0.95198 0.17593 0.0
C1788 C 0.40778 0.98978 0.09241 0.0
C1789 C 0.43261 1.00239 0.09695 0.0
C1790 C 0.38863 0.98777 0.11339 0.0
C1791 C 0.39425 0.99907 0.13936 0.0
C1792 C 0.41897 0.01251 0.14378 0.0
C1793 C 0.43792 0.01379 0.12261 0.0
C1794 C 0.36272 0.97289 0.108 0.0
C1795 C 0.42561 0.02517 0.17103 0.0
H1796 H 0.32334 0.0284 0.19459 0.0
H1797 H 0.36373 0.95527 0.21787 0.0
H1798 H 0.36971 0.05229 0.14942 0.0
H1799 H 0.34906 0.03269 0.12712 0.0
H1800 H 0.33386 0.05208 0.15425 0.0
H1801 H 0.39699 0.93508 0.19081 0.0
H1802 H 0.39694 0.94363 0.15497 0.0
H1803 H 0.41904 0.96094 0.17779 0.0
H1804 H 0.40361 0.98074 0.07268 0.0
H1805 H 0.45695 0.0238 0.12618 0.0
H1806 H 0.34537 0.98613 0.11271 0.0
H1807 H 0.36131 0.95498 0.12161 0.0
H1808 H 0.36106 0.96596 0.08647 0.0
H1809 H 0.40949 0.03938 0.17722 0.0
H1810 H 0.44495 0.03634 0.17062 0.0
H1811 H 0.42683 0.00922 0.18694 0.0
C1812 C 0.01928 0.31478 0.18491 0.0
C1813 C 0.99425 0.30191 0.1831 0.0
C1814 C 0.02526 0.33752 0.16871 0.0
C1815 C 0.00572 0.34765 0.15036 0.0
C1816 C 0.98027 0.33503 0.14884 0.0
C1817 C 0.97487 0.31237 0.16521 0.0
C1818 C 0.05264 0.35037 0.17081 0.0
C1819 C 0.95882 0.34526 0.12964 0.0
C1820 C 0.00946 0.41892 0.12111 0.0
C1821 C 0.01838 0.41385 0.0944 0.0
C1822 C 0.00609 0.39767 0.13992 0.0
C1823 C 0.01201 0.37077 0.13189 0.0
C1824 C 0.02213 0.36572 0.10536 0.0
C1825 C 0.02509 0.38727 0.08694 0.0
C1826 C 0.99517 0.40387 0.16799 0.0
C1827 C 0.02891 0.33739 0.09604 0.0
H1828 H 0.03439 0.3067 0.19857 0.0
H1829 H 0.95531 0.30286 0.16408 0.0
H1830 H 0.06324 0.34859 0.15096 0.0
H1831 H 0.05068 0.37228 0.17536 0.0
H1832 H 0.06517 0.34083 0.18691 0.0
H1833 H 0.93979 0.33372 0.13156 0.0
H1834 H 0.95464 0.36694 0.13375 0.0
H1835 H 0.96592 0.34374 0.1082 0.0
H1836 H 1.00417 0.43936 0.12706 0.0
H1837 H 0.03235 0.38317 0.06647 0.0
H1838 H 0.00811 0.3947 0.18393 0.0
H1839 H 0.97492 0.39482 0.17019 0.0
H1840 H 0.99366 0.42598 0.17183 0.0
H1841 H 0.04237 0.32741 0.11101 0.0
H1842 H 0.03879 0.33718 0.07569 0.0
H1843 H 0.01031 0.32512 0.09483 0.0
C1844 C 0.67754 0.03073 0.20205 0.0
C1845 C 0.69665 0.01059 0.2071 0.0
C1846 C 0.66092 0.0296 0.17896 0.0
C1847 C 0.66312 0.00745 0.16073 0.0
C1848 C 0.68293 0.98737 0.16539 0.0
C1849 C 0.69965 0.98929 0.1885 0.0
C1850 C 0.64041 0.05167 0.17459 0.0
C1851 C 0.68567 0.96329 0.14664 0.0
C1852 C 0.59915 0.99153 0.12169 0.0
C1853 C 0.60442 1.003 0.09603 0.0
C1854 C 0.61848 0.99195 0.14254 0.0
C1855 C 0.64354 0.00465 0.13786 0.0
C1856 C 0.6491 0.01601 0.11188 0.0
C1857 C 0.62957 0.01481 0.09119 0.0
C1858 C 0.61185 0.9792 0.16977 0.0
C1859 C 0.67534 0.03019 0.10622 0.0
H1860 H 0.6753 0.04719 0.21653 0.0
H1861 H 0.71431 0.97362 0.19262 0.0
H1862 H 0.64209 0.05994 0.15358 0.0
H1863 H 0.61992 0.04317 0.17678 0.0
H1864 H 0.64273 0.06855 0.18939 0.0
H1865 H 0.70309 0.95037 0.15209 0.0
H1866 H 0.66719 0.9508 0.14771 0.0
H1867 H 0.68792 0.97008 0.12516 0.0
H1868 H 0.57988 0.98207 0.12546 0.0
H1869 H 0.63372 0.02385 0.07145 0.0
H1870 H 0.61104 0.99505 0.18579 0.0
H1871 H 0.62777 0.96465 0.17571 0.0
H1872 H 0.59231 0.96838 0.16945 0.0
H1873 H 0.67726 0.04814 0.11969 0.0
H1874 H 0.67704 0.03695 0.08463 0.0
H1875 H 0.6924 0.01656 0.11091 0.0
C1876 C 0.04234 0.66452 0.20413 0.0
C1877 C 0.02069 0.68222 0.20781 0.0
C1878 C 0.04365 0.64743 0.18129 0.0
C1879 C 0.02259 0.64783 0.1619 0.0
C1880 C 1.00125 0.6665 0.16492 0.0
C1881 C 1.00064 0.68362 0.18781 0.0
C1882 C 0.06697 0.62814 0.17854 0.0
C1883 C 0.97832 0.66737 0.14481 0.0
C1884 C 0.03249 0.61333 0.09322 0.0
C1885 C 0.02084 0.58791 0.09799 0.0
C1886 C 0.03339 0.63303 0.11387 0.0
C1887 C 0.02188 0.62732 0.13967 0.0
C1888 C 0.00983 0.60178 0.14447 0.0
C1889 C 0.00969 0.58229 0.12365 0.0
C1890 C 0.04683 0.65983 0.10815 0.0
C1891 C 0.997 0.59504 0.1716 0.0
H1892 H 0.05795 0.66359 0.21953 0.0
H1893 H 0.98375 0.69712 0.19079 0.0
H1894 H 0.05984 0.60704 0.18132 0.0
H1895 H 0.07581 0.62955 0.15779 0.0
H1896 H 0.08293 0.6322 0.19384 0.0
H1897 H 0.96436 0.68441 0.14892 0.0
H1898 H 0.98604 0.66933 0.12365 0.0
H1899 H 0.96688 0.64813 0.14589 0.0
H1900 H 0.04136 0.61766 0.07347 0.0
H1901 H 1.00044 0.56276 0.12734 0.0
H1902 H 0.06328 0.66326 0.12301 0.0
H1903 H 0.03224 0.67657 0.11076 0.0
H1904 H 0.05526 0.66089 0.08716 0.0
H1905 H 0.01223 0.59603 0.18809 0.0
H1906 H 0.9878 0.57455 0.17174 0.0
H1907 H 0.98126 0.61014 0.1765 0.0
C1908 C 0.35956 0.03109 0.81513 0.0
C1909 C 0.33991 0.01149 0.81002 0.0
C1910 C 0.37617 0.02936 0.83818 0.0
C1911 C 0.37337 0.00717 0.85629 0.0
C1912 C 0.35303 0.98765 0.85156 0.0
C1913 C 0.33634 0.99017 0.8285 0.0
C1914 C 0.39726 0.05087 0.84267 0.0
C1915 C 0.34966 0.96353 0.87017 0.0
C1916 C 0.43682 0.98948 0.89539 0.0
C1917 C 0.43179 1.00102 0.92105 0.0
C1918 C 0.41755 0.99044 0.8745 0.0
C1919 C 0.39281 0.00375 0.87918 0.0
C1920 C 0.38745 0.01513 0.90517 0.0
C1921 C 0.40691 0.01341 0.92587 0.0
C1922 C 0.4239 0.97767 0.84723 0.0
C1923 C 0.36155 0.0299 0.91082 0.0
H1924 H 0.36222 0.04757 0.80073 0.0
H1925 H 0.32125 0.97492 0.82431 0.0
H1926 H 0.39577 0.05909 0.86371 0.0
H1927 H 0.41752 0.04185 0.84048 0.0
H1928 H 0.39542 0.06787 0.82793 0.0
H1929 H 0.33192 0.95108 0.86465 0.0
H1930 H 0.36781 0.95059 0.86906 0.0
H1931 H 0.34756 0.97024 0.89169 0.0
H1932 H 0.45588 0.97961 0.89161 0.0
H1933 H 0.40294 0.02253 0.9456 0.0
H1934 H 0.42514 0.99358 0.83128 0.0
H1935 H 0.40763 0.96357 0.8412 0.0
H1936 H 0.44315 0.96638 0.84754 0.0
H1937 H 0.36019 0.04805 0.89751 0.0
H1938 H 0.35991 0.03648 0.93246 0.0
H1939 H 0.34417 0.01678 0.90589 0.0
C1940 C 0.98969 0.32244 0.8301 0.0
C1941 C 0.01076 0.32179 0.81118 0.0
C1942 C 0.99066 0.33979 0.85284 0.0
C1943 C 0.01335 0.35663 0.85676 0.0
C1944 C 0.03528 0.3549 0.8385 0.0
C1945 C 0.03367 0.33758 0.81587 0.0
C1946 C 0.96684 0.34113 0.87182 0.0
C1947 C 0.05999 0.37221 0.84216 0.0
C1948 C 1.00536 0.42359 0.894 0.0
C1949 C 0.0155 0.41739 0.91998 0.0
C1950 C 1.00409 0.40384 0.87344 0.0
C1951 C 0.01351 0.37732 0.87885 0.0
C1952 C 0.02376 0.37091 0.90502 0.0
C1953 C 0.02448 0.39097 0.92532 0.0
C1954 C 0.99276 0.41141 0.84586 0.0
C1955 C 0.03429 0.34297 0.91146 0.0
H1956 H 0.97185 0.31045 0.82635 0.0
H1957 H 0.05005 0.33694 0.80131 0.0
H1958 H 0.9734 0.33891 0.89336 0.0
H1959 H 0.95707 0.36122 0.86993 0.0
H1960 H 0.95174 0.32523 0.86725 0.0
H1961 H 0.07615 0.36679 0.82754 0.0
H1962 H 0.05473 0.39382 0.83909 0.0
H1963 H 0.06786 0.37015 0.86326 0.0
H1964 H 0.99811 0.44386 0.88978 0.0
H1965 H 0.03248 0.38603 0.9453 0.0
H1966 H 0.97598 0.39765 0.84049 0.0
H1967 H 0.00839 0.40901 0.82992 0.0
H1968 H 0.98532 0.4326 0.84529 0.0
H1969 H 0.01848 0.32762 0.90771 0.0
H1970 H 0.04116 0.34113 0.93297 0.0
H1971 H 0.05133 0.33811 0.89775 0.0
C1972 C 0.70594 0.04065 0.8486 0.0
C1973 C 0.71605 0.02026 0.8315 0.0
C1974 C 0.68314 0.03632 0.8648 0.0
C1975 C 0.66995 0.01096 0.86393 0.0
C1976 C 0.67957 0.99049 0.84617 0.0
C1977 C 0.7025 0.99539 0.83012 0.0
C1978 C 0.67352 0.05876 0.88333 0.0
C1979 C 0.66607 0.96318 0.84469 0.0
C1980 C 0.63107 0.99398 0.92837 0.0
C1981 C 0.60479 1.00125 0.92116 0.0
C1982 C 0.6522 0.99595 0.90956 0.0
C1983 C 0.64708 0.00561 0.88283 0.0
C1984 C 0.62047 0.01208 0.87507 0.0
C1985 C 0.59961 0.00973 0.8943 0.0
C1986 C 0.68021 0.98861 0.91866 0.0
C1987 C 0.61418 0.02248 0.84679 0.0
H1988 H 0.71595 0.06012 0.84935 0.0
H1989 H 0.71024 0.97951 0.81704 0.0
H1990 H 0.65208 0.06322 0.87927 0.0
H1991 H 0.67511 0.05226 0.90497 0.0
H1992 H 0.68525 0.0777 0.88068 0.0
H1993 H 0.67485 0.9501 0.82854 0.0
H1994 H 0.66803 0.95268 0.86463 0.0
H1995 H 0.64433 0.96566 0.84061 0.0
H1996 H 0.63528 0.98702 0.94893 0.0
H1997 H 0.5794 0.01542 0.88852 0.0
H1998 H 0.6929 0.00706 0.91903 0.0
H1999 H 0.68946 0.97426 0.90401 0.0
H2000 H 0.68049 0.97931 0.93933 0.0
H2001 H 0.62369 0.04258 0.84383 0.0
H2002 H 0.59227 0.02456 0.84327 0.0
H2003 H 0.62261 0.0087 0.83111 0.0
C2004 C 0.01387 0.69234 0.83482 0.0
C2005 C 0.98746 0.7017 0.83206 0.0
C2006 C 0.01987 0.6701 0.85166 0.0
C2007 C 0.99893 0.65685 0.86594 0.0
C2008 C 0.97217 0.66585 0.86275 0.0
C2009 C 0.96678 0.68817 0.8459 0.0
C2010 C 0.04867 0.66119 0.85469 0.0
C2011 C 0.94925 0.65217 0.8775 0.0
C2012 C 0.00888 0.58635 0.8957 0.0
C2013 C 0.01304 0.59215 0.92346 0.0
C2014 C 1.00486 0.60721 0.87657 0.0
C2015 C 1.00504 0.63451 0.8854 0.0
C2016 C 0.00987 0.64053 0.91322 0.0
C2017 C 0.01381 0.61934 0.93186 0.0
C2018 C 0.99975 0.60002 0.84706 0.0
C2019 C 0.01022 0.66937 0.92348 0.0
H2020 H 0.02994 0.70282 0.8243 0.0
H2021 H 0.94627 0.69503 0.84347 0.0
H2022 H 0.05524 0.66406 0.87615 0.0
H2023 H 0.05056 0.63931 0.84998 0.0
H2024 H 0.06242 0.6727 0.84111 0.0
H2025 H 0.92948 0.66087 0.87186 0.0
H2026 H 0.94907 0.63021 0.87278 0.0
H2027 H 0.95196 0.65425 0.8999 0.0
H2028 H 0.00825 0.56549 0.8889 0.0
H2029 H 0.0171 0.62423 0.95318 0.0
H2030 H 0.01392 0.61105 0.83359 0.0
H2031 H 0.97919 0.60635 0.84122 0.0
H2032 H 1.00181 0.57796 0.84318 0.0
H2033 H 0.02474 0.68159 0.91153 0.0
H2034 H 0.01564 0.6707 0.94546 0.0
H2035 H 0.99016 0.67864 0.92063 0.0
C2036 C 0.20168 0.32844 0.02709 0.0
C2037 C 0.1975 0.30589 0.01027 0.0
C2038 C 0.18455 0.35104 0.02578 0.0
C2039 C 0.16312 0.35132 0.00675 0.0
C2040 C 0.15977 0.32911 0.98873 0.0
C2041 C 0.17674 0.30649 0.99101 0.0
C2042 C 0.18851 0.37395 0.04578 0.0
C2043 C 0.13766 0.32882 0.96767 0.0
C2044 C 0.1 0.39188 0.02236 0.0
C2045 C 0.10411 0.41556 0.00713 0.0
C2046 C 0.1193 0.37117 0.02285 0.0
C2047 C 0.143 0.37378 0.00706 0.0
C2048 C 0.14714 0.39761 0.99144 0.0
C2049 C 0.12783 0.4184 0.992 0.0
C2050 C 0.11432 0.34649 0.04037 0.0
C2051 C 0.17171 0.40091 0.97374 0.0
H2052 H 0.21754 0.32779 0.04223 0.0
H2053 H 0.1735 0.28899 0.97805 0.0
H2054 H 0.18955 0.39359 0.03486 0.0
H2055 H 0.17109 0.37494 0.05985 0.0
H2056 H 0.20704 0.37146 0.05813 0.0
H2057 H 0.13957 0.31153 0.9533 0.0
H2058 H 0.11792 0.32738 0.97803 0.0
H2059 H 0.13777 0.34794 0.95577 0.0
H2060 H 0.08181 0.38972 0.0343 0.0
H2061 H 0.13096 0.4366 0.98002 0.0
H2062 H 0.13134 0.34341 0.05462 0.0
H2063 H 0.11295 0.32821 0.0273 0.0
H2064 H 0.09554 0.34819 0.05248 0.0
H2065 H 0.19008 0.39971 0.98644 0.0
H2066 H 0.17179 0.42049 0.96255 0.0
H2067 H 0.17271 0.38418 0.95866 0.0
C2068 C 0.20608 0.67543 0.99999 0.0
C2069 C 0.19648 0.70029 0.98988 0.0
C2070 C 0.18861 0.65357 0.00521 0.0
C2071 C 0.16092 0.65609 0.99923 0.0
C2072 C 0.15101 0.68112 0.98944 0.0
C2073 C 0.16868 0.70296 0.98558 0.0
C2074 C 0.1999 0.62759 0.01666 0.0
C2075 C 0.12176 0.68465 0.98219 0.0
C2076 C 0.12064 0.59244 0.98273 0.0
C2077 C 0.10434 0.58997 0.00588 0.0
C2078 C 0.13924 0.61374 0.98037 0.0
C2079 C 0.14235 0.63241 0.00218 0.0
C2080 C 0.12659 0.62922 0.02611 0.0
C2081 C 0.10735 0.60838 0.02741 0.0
C2082 C 0.15482 0.61686 0.95411 0.0
C2083 C 0.12993 0.64789 0.05027 0.0
H2084 H 0.22738 0.67265 0.00324 0.0
H2085 H 0.16055 0.72213 0.9788 0.0
H2086 H 0.18775 0.6207 0.03435 0.0
H2087 H 0.19896 0.61146 0.00094 0.0
H2088 H 0.22107 0.62989 0.02331 0.0
H2089 H 0.11733 0.70517 0.9741 0.0
H2090 H 0.11589 0.66948 0.96657 0.0
H2091 H 0.10905 0.68109 0.00042 0.0
H2092 H 0.1181 0.57825 0.96602 0.0
H2093 H 0.0948 0.6063 0.04538 0.0
H2094 H 0.17665 0.61652 0.95832 0.0
H2095 H 0.15015 0.63675 0.94467 0.0
H2096 H 0.15012 0.60064 0.93913 0.0
H2097 H 0.15135 0.64887 0.05633 0.0
H2098 H 0.1179 0.64124 0.06817 0.0
H2099 H 0.12367 0.66869 0.04466 0.0
C2100 C 0.3612 0.19707 0.03288 0.0
C2101 C 0.34227 0.20229 0.01238 0.0
C2102 C 0.37721 0.1737 0.03225 0.0
C2103 C 0.37467 0.15525 0.01024 0.0
C2104 C 0.35508 0.16009 0.98979 0.0
C2105 C 0.33891 0.18346 0.99124 0.0
C2106 C 0.39748 0.16921 0.05473 0.0
C2107 C 0.35197 0.14119 0.96579 0.0
C2108 C 0.43786 0.11478 0.99494 0.0
C2109 C 0.43207 0.08956 0.00679 0.0
C2110 C 0.41902 0.13592 0.99514 0.0
C2111 C 0.39379 0.13203 0.00786 0.0
C2112 C 0.38765 0.10651 0.01955 0.0
C2113 C 0.40675 0.0855 0.01865 0.0
C2114 C 0.42628 0.1626 0.98199 0.0
C2115 C 0.36124 0.10166 0.0338 0.0
H2116 H 0.3637 0.21157 0.04932 0.0
H2117 H 0.32441 0.18758 0.97528 0.0
H2118 H 0.39524 0.14857 0.06339 0.0
H2119 H 0.41806 0.17074 0.04627 0.0
H2120 H 0.39541 0.18419 0.07151 0.0
H2121 H 0.3347 0.14676 0.95262 0.0
H2122 H 0.37049 0.14163 0.95322 0.0
H2123 H 0.34923 0.12007 0.97298 0.0
H2124 H 0.45722 0.11803 0.98542 0.0
H2125 H 0.40213 0.06615 0.02798 0.0
H2126 H 0.42533 0.17912 0.99731 0.0
H2127 H 0.41161 0.1675 0.96568 0.0
H2128 H 0.44669 0.16237 0.97296 0.0
H2129 H 0.35961 0.1152 0.0518 0.0
H2130 H 0.35901 0.08037 0.04078 0.0
H2131 H 0.34434 0.10662 0.01995 0.0
C2132 C 0.82442 0.34616 0.0374 0.0
C2133 C 0.81924 0.32633 0.01759 0.0
C2134 C 0.84767 0.36221 0.03628 0.0
C2135 C 0.86605 0.35879 0.01448 0.0
C2136 C 0.86125 0.33829 0.99476 0.0
C2137 C 0.83801 0.32212 0.9967 0.0
C2138 C 0.85214 0.3834 0.05805 0.0
C2139 C 0.88006 0.33424 0.97096 0.0
C2140 C 0.9065 0.4219 0.99691 0.0
C2141 C 0.93145 0.41634 0.00891 0.0
C2142 C 0.88548 0.40294 0.99772 0.0
C2143 C 0.88917 0.37794 0.01144 0.0
C2144 C 0.91442 0.37208 0.02338 0.0
C2145 C 0.93535 0.39121 0.02169 0.0
C2146 C 0.85912 0.40992 0.98428 0.0
C2147 C 0.91907 0.34599 0.03871 0.0
H2148 H 0.81 0.34933 0.05366 0.0
H2149 H 0.83395 0.30694 0.98126 0.0
H2150 H 0.87255 0.38138 0.06682 0.0
H2151 H 0.85071 0.40388 0.04887 0.0
H2152 H 0.83725 0.38191 0.07487 0.0
H2153 H 0.87446 0.31642 0.95835 0.0
H2154 H 0.87984 0.35252 0.95778 0.0
H2155 H 0.90091 0.33155 0.97834 0.0
H2156 H 0.9034 0.44115 0.98674 0.0
H2157 H 0.9545 0.38684 0.0312 0.0
H2158 H 0.84321 0.41166 1.00002 0.0
H2159 H 0.85306 0.39356 0.97004 0.0
H2160 H 0.8601 0.42928 0.97276 0.0
H2161 H 0.90547 0.345 0.05663 0.0
H2162 H 0.94008 0.34402 0.04599 0.0
H2163 H 0.91429 0.32841 0.02548 0.0
C2164 C 0.71398 0.84531 0.02919 0.0
C2165 C 0.71578 0.8244 0.00995 0.0
C2166 C 0.69105 0.8618 0.03073 0.0
C2167 C 0.66973 0.8578 0.012 0.0
C2168 C 0.6712 0.8362 0.99299 0.0
C2169 C 0.69409 0.81957 0.99241 0.0
C2170 C 0.69006 0.88411 0.05177 0.0
C2171 C 0.64925 0.83157 0.97227 0.0
C2172 C 0.60216 0.89191 0.02492 0.0
C2173 C 0.60489 0.91597 0.00994 0.0
C2174 C 0.62308 0.87278 0.0259 0.0
C2175 C 0.64698 0.8775 0.01093 0.0
C2176 C 0.64946 0.90146 0.99519 0.0
C2177 C 0.62858 0.92052 0.99519 0.0
C2178 C 0.61987 0.84785 0.04343 0.0
C2179 C 0.67425 0.90706 0.97838 0.0
H2180 H 0.73077 0.84903 0.04276 0.0
H2181 H 0.69563 0.80359 0.97731 0.0
H2182 H 0.6912 0.90407 0.04144 0.0
H2183 H 0.67079 0.88342 0.06309 0.0
H2184 H 0.70681 0.88269 0.06667 0.0
H2185 H 0.65256 0.81288 0.96011 0.0
H2186 H 0.62949 0.83009 0.98256 0.0
H2187 H 0.6483 0.84907 0.95809 0.0
H2188 H 0.58396 0.8884 0.03651 0.0
H2189 H 0.63068 0.93895 0.98334 0.0
H2190 H 0.63577 0.84743 0.05928 0.0
H2191 H 0.62229 0.82936 0.03083 0.0
H2192 H 0.60002 0.84707 0.0537 0.0
H2193 H 0.69193 0.90902 0.99197 0.0
H2194 H 0.67242 0.92588 0.96609 0.0
H2195 H 0.67819 0.88988 0.96434 0.0
C2196 C 0.83759 0.68283 0.02401 0.0
C2197 C 0.81892 0.67848 0.00304 0.0
C2198 C 0.86093 0.66687 0.02605 0.0
C2199 C 0.86589 0.64635 0.00642 0.0
C2200 C 0.84759 0.64268 0.9846 0.0
C2201 C 0.82429 0.65861 0.9833 0.0
C2202 C 0.87971 0.67124 0.0498 0.0
C2203 C 0.85222 0.62137 0.96298 0.0
C2204 C 0.93535 0.61457 0.99906 0.0
C2205 C 0.93169 0.58949 0.01203 0.0
C2206 C 0.9143 0.63352 0.99742 0.0
C2207 C 0.88916 0.62749 0.00953 0.0
C2208 C 0.88573 0.60258 0.02348 0.0
C2209 C 0.90689 0.58383 0.02431 0.0
C2210 C 0.91868 0.65957 0.98193 0.0
C2211 C 0.85947 0.59544 0.03707 0.0
H2212 H 0.83343 0.69803 0.0394 0.0
H2213 H 0.81004 0.65538 0.96689 0.0
H2214 H 0.87969 0.65302 0.06307 0.0
H2215 H 0.90053 0.67412 0.04237 0.0
H2216 H 0.87396 0.68905 0.06234 0.0
H2217 H 0.83721 0.62247 0.94626 0.0
H2218 H 0.87254 0.62364 0.95404 0.0
H2219 H 0.85116 0.60094 0.97234 0.0
H2220 H 0.95438 0.619 0.98932 0.0
H2221 H 0.90397 0.56462 0.03461 0.0
H2222 H 0.9136 0.67717 0.995 0.0
H2223 H 0.90516 0.66023 0.96394 0.0
H2224 H 0.93969 0.66178 0.97472 0.0
H2225 H 0.85329 0.61186 0.05119 0.0
H2226 H 0.86066 0.57619 0.04875 0.0
H2227 H 0.84354 0.59342 0.02138 0.0
C2228 C 0.33952 0.8209 0.99087 0.0
C2229 C 0.34073 0.8023 0.01253 0.0
C2230 C 0.35607 0.84403 0.9904 0.0
C2231 C 0.37412 0.8489 0.01224 0.0
C2232 C 0.37452 0.83083 0.03474 0.0
C2233 C 0.35797 0.80775 0.03453 0.0
C2234 C 0.35513 0.86257 0.96591 0.0
C2235 C 0.39313 0.83536 0.05863 0.0
C2236 C 0.43862 0.88834 0.99911 0.0
C2237 C 0.43241 0.91411 0.00941 0.0
C2238 C 0.41969 0.86724 0.99943 0.0
C2239 C 0.39391 0.87172 0.01075 0.0
C2240 C 0.38746 0.89772 0.02113 0.0
C2241 C 0.40667 0.91864 0.02011 0.0
C2242 C 0.42739 0.84003 0.98777 0.0
C2243 C 0.36041 0.9033 0.03376 0.0
H2244 H 0.3265 0.81671 0.97365 0.0
H2245 H 0.35887 0.7936 0.05145 0.0
H2246 H 0.35236 0.88386 0.97251 0.0
H2247 H 0.37448 0.86151 0.95476 0.0
H2248 H 0.33872 0.85714 0.95157 0.0
H2249 H 0.38946 0.82077 0.07551 0.0
H2250 H 0.41424 0.83322 0.05183 0.0
H2251 H 0.39074 0.85622 0.06667 0.0
H2252 H 0.45833 0.88465 0.99055 0.0
H2253 H 0.40172 0.93841 0.0283 0.0
H2254 H 0.41287 0.83394 0.97173 0.0
H2255 H 0.42665 0.8244 0.00404 0.0
H2256 H 0.44784 0.84011 0.97876 0.0
H2257 H 0.34428 0.89901 0.01876 0.0
H2258 H 0.35842 0.92459 0.04078 0.0
H2259 H 0.35717 0.88966 0.05147 0.0
C2260 C 0.70414 0.16536 0.04521 0.0
C2261 C 0.71463 0.18103 0.02378 0.0
C2262 C 0.68153 0.14882 0.04144 0.0
C2263 C 0.66897 0.14772 0.01553 0.0
C2264 C 0.67891 0.16412 0.99398 0.0
C2265 C 0.70155 0.18069 0.9984 0.0
C2266 C 0.67153 0.13194 0.06509 0.0
C2267 C 0.66617 0.16349 0.96603 0.0
C2268 C 0.63144 0.08205 0.00141 0.0
C2269 C 0.60474 0.0892 0.00704 0.0
C2270 C 0.65229 0.10113 0.0031 0.0
C2271 C 0.64651 0.12814 0.0108 0.0
C2272 C 0.61954 0.13573 0.01581 0.0
C2273 C 0.59899 0.11623 0.01377 0.0
C2274 C 0.68068 0.09212 0.99739 0.0
C2275 C 0.61248 0.16424 0.02422 0.0
H2276 H 0.71382 0.16588 0.06503 0.0
H2277 H 0.70957 0.19266 0.98173 0.0
H2278 H 0.64987 0.13569 0.06854 0.0
H2279 H 0.67387 0.11012 0.06025 0.0
H2280 H 0.68253 0.13628 0.08433 0.0
H2281 H 0.67501 0.17879 0.95203 0.0
H2282 H 0.66886 0.14314 0.95686 0.0
H2283 H 0.64429 0.16717 0.96764 0.0
H2284 H 0.63621 0.06135 0.9959 0.0
H2285 H 0.5785 0.12206 0.01822 0.0
H2286 H 0.69276 0.09351 0.01637 0.0
H2287 H 0.69013 0.10565 0.98206 0.0
H2288 H 0.68163 0.07098 0.98973 0.0
H2289 H 0.62129 0.16863 0.04456 0.0
H2290 H 0.59047 0.16747 0.02537 0.0
H2291 H 0.62112 0.17901 0.00958 0.0
C2292 C 0.49773 0.68149 0.82833 0.0
C2293 C 0.51816 0.70098 0.82899 0.0
C2294 C 0.49858 0.65872 0.84551 0.0
C2295 C 0.52052 0.65529 0.86357 0.0
C2296 C 0.54188 0.67418 0.86325 0.0
C2297 C 0.54037 0.69687 0.84605 0.0
C2298 C 0.47534 0.63912 0.84537 0.0
C2299 C 0.56579 0.67104 0.8819 0.0
C2300 C 0.50935 0.61712 0.92997 0.0
C2301 C 0.52009 0.5916 0.92388 0.0
C2302 C 0.50908 0.63786 0.91039 0.0
C2303 C 0.52022 0.63313 0.8842 0.0
C2304 C 0.53123 0.60746 0.87796 0.0
C2305 C 0.53084 0.58692 0.89781 0.0
C2306 C 0.49684 0.66485 0.91776 0.0
C2307 C 0.54364 0.60178 0.85041 0.0
H2308 H 0.48039 0.68476 0.81538 0.0
H2309 H 0.5563 0.7118 0.84642 0.0
H2310 H 0.48268 0.61806 0.84306 0.0
H2311 H 0.46458 0.64027 0.86518 0.0
H2312 H 0.46087 0.64347 0.82869 0.0
H2313 H 0.58177 0.68607 0.8774 0.0
H2314 H 0.5594 0.67365 0.90345 0.0
H2315 H 0.57436 0.6504 0.88 0.0
H2316 H 0.50078 0.6208 0.94999 0.0
H2317 H 0.53938 0.5673 0.89304 0.0
H2318 H 0.48062 0.66996 0.90314 0.0
H2319 H 0.51222 0.68102 0.91625 0.0
H2320 H 0.48839 0.66501 0.93877 0.0
H2321 H 0.55161 0.58083 0.8489 0.0
H2322 H 0.56025 0.61621 0.8465 0.0
H2323 H 0.52854 0.6048 0.83406 0.0
C2324 C 0.34378 0.50023 0.82206 0.0
C2325 C 0.34231 0.52616 0.81043 0.0
C2326 C 0.36074 0.49497 0.84445 0.0
C2327 C 0.37653 0.51617 0.85553 0.0
C2328 C 0.37456 0.54251 0.8443 0.0
C2329 C 0.35752 0.54716 0.82198 0.0
C2330 C 0.36229 0.46662 0.85583 0.0
C2331 C 0.39086 0.56576 0.85555 0.0
C2332 C 0.40745 0.51159 0.9266 0.0
C2333 C 0.43437 0.50577 0.92051 0.0
C2334 C 0.38821 0.51422 0.90574 0.0
C2335 C 0.39597 0.51083 0.87811 0.0
C2336 C 0.42288 0.50407 0.87191 0.0
C2337 C 0.44171 0.50169 0.89311 0.0
C2338 C 0.35973 0.52146 0.91323 0.0
C2339 C 0.432 0.5001 0.84276 0.0
H2340 H 0.33221 0.48387 0.81318 0.0
H2341 H 0.35611 0.56738 0.81348 0.0
H2342 H 0.38277 0.45841 0.85276 0.0
H2343 H 0.35843 0.46684 0.87815 0.0
H2344 H 0.34768 0.45274 0.84595 0.0
H2345 H 0.38631 0.58522 0.84517 0.0
H2346 H 0.38696 0.56815 0.87774 0.0
H2347 H 0.41256 0.56142 0.8531 0.0
H2348 H 0.40147 0.51477 0.94764 0.0
H2349 H 0.46232 0.49686 0.88808 0.0
H2350 H 0.34552 0.50697 0.90374 0.0
H2351 H 0.35485 0.54186 0.90517 0.0
H2352 H 0.35645 0.52149 0.93568 0.0
H2353 H 0.41896 0.48516 0.8323 0.0
H2354 H 0.4531 0.49301 0.84148 0.0
H2355 H 0.43028 0.51948 0.83144 0.0
C2356 C 0.50063 0.32327 0.82952 0.0
C2357 C 0.5172 0.32793 0.80689 0.0
C2358 C 0.502 0.33998 0.85266 0.0
C2359 C 0.52083 0.36143 0.85336 0.0
C2360 C 0.53853 0.36535 0.83105 0.0
C2361 C 0.53623 0.34876 0.80787 0.0
C2362 C 0.48237 0.33552 0.87573 0.0
C2363 C 0.55931 0.38758 0.83131 0.0
C2364 C 0.50516 0.42356 0.89601 0.0
C2365 C 0.52001 0.41862 0.91979 0.0
C2366 C 0.50496 0.40489 0.87446 0.0
C2367 C 0.52059 0.38103 0.87644 0.0
C2368 C 0.5358 0.37604 0.90035 0.0
C2369 C 0.53502 0.39475 0.92196 0.0
C2370 C 0.48792 0.41068 0.84962 0.0
C2371 C 0.55322 0.35118 0.90291 0.0
H2372 H 0.48572 0.30731 0.82857 0.0
H2373 H 0.54909 0.35223 0.79035 0.0
H2374 H 0.49315 0.33373 0.89546 0.0
H2375 H 0.46878 0.35323 0.87734 0.0
H2376 H 0.47001 0.31705 0.8727 0.0
H2377 H 0.57333 0.38611 0.81373 0.0
H2378 H 0.54924 0.40759 0.83051 0.0
H2379 H 0.57107 0.38686 0.85053 0.0
H2380 H 0.49335 0.44193 0.89442 0.0
H2381 H 0.54671 0.39107 0.94027 0.0
H2382 H 0.47383 0.39366 0.846 0.0
H2383 H 0.50083 0.41246 0.83125 0.0
H2384 H 0.47614 0.42965 0.85178 0.0
H2385 H 0.5408 0.33265 0.90103 0.0
H2386 H 0.56412 0.35047 0.92269 0.0
H2387 H 0.56809 0.35076 0.88604 0.0
C2388 C 0.70516 0.49161 0.83477 0.0
C2389 C 0.69519 0.48074 0.8102 0.0
C2390 C 0.68809 0.49731 0.85692 0.0
C2391 C 0.66049 0.49092 0.85509 0.0
C2392 C 0.6502 0.48002 0.8305 0.0
C2393 C 0.66747 0.47572 0.80824 0.0
C2394 C 0.69971 0.50984 0.88245 0.0
C2395 C 0.62101 0.47224 0.82788 0.0
C2396 C 0.62184 0.47773 0.92087 0.0
C2397 C 0.60564 0.50077 0.92251 0.0
C2398 C 0.63988 0.47429 0.89909 0.0
C2399 C 0.6424 0.49491 0.87907 0.0
C2400 C 0.62675 0.51876 0.88138 0.0
C2401 C 0.6081 0.52113 0.90279 0.0
C2402 C 0.65542 0.44816 0.89695 0.0
C2403 C 0.62954 0.54166 0.86115 0.0
H2404 H 0.72644 0.49521 0.8371 0.0
H2405 H 0.65909 0.46816 0.78932 0.0
H2406 H 0.68773 0.52776 0.8886 0.0
H2407 H 0.69882 0.49511 0.89952 0.0
H2408 H 0.7209 0.51619 0.87963 0.0
H2409 H 0.61633 0.46314 0.80768 0.0
H2410 H 0.61562 0.45747 0.84407 0.0
H2411 H 0.60811 0.49029 0.83077 0.0
H2412 H 0.61956 0.46187 0.93602 0.0
H2413 H 0.59549 0.53896 0.90421 0.0
H2414 H 0.67725 0.45236 0.89658 0.0
H2415 H 0.65033 0.4378 0.87751 0.0
H2416 H 0.65112 0.43416 0.91418 0.0
H2417 H 0.61761 0.5597 0.86716 0.0
H2418 H 0.62277 0.53494 0.84067 0.0
H2419 H 0.6509 0.54766 0.85926 0.0
C2420 C 0.53911 0.30844 0.173 0.0
C2421 C 0.51624 0.30352 0.18891 0.0
C2422 C 0.54084 0.33143 0.15622 0.0
C2423 C 0.519 0.34971 0.15506 0.0
C2424 C 0.49631 0.3454 0.17192 0.0
C2425 C 0.49528 0.32241 0.18878 0.0
C2426 C 0.56554 0.33551 0.13885 0.0
C2427 C 0.47252 0.36427 0.17108 0.0
C2428 C 0.52844 0.41875 0.12188 0.0
C2429 C 0.51903 0.41391 0.0953 0.0
C2430 C 0.52871 0.39803 0.14156 0.0
C2431 C 0.51898 0.37201 0.1346 0.0
C2432 C 0.50924 0.3671 0.10788 0.0
C2433 C 0.50952 0.38804 0.08853 0.0
C2434 C 0.53964 0.40391 0.1697 0.0
C2435 C 0.49834 0.33973 0.09973 0.0
H2436 H 0.55542 0.29393 0.17323 0.0
H2437 H 0.47746 0.3185 0.20084 0.0
H2438 H 0.56031 0.33284 0.11698 0.0
H2439 H 0.57332 0.35641 0.14131 0.0
H2440 H 0.58175 0.32099 0.14409 0.0
H2441 H 0.4574 0.3593 0.18699 0.0
H2442 H 0.4791 0.38553 0.17393 0.0
H2443 H 0.46276 0.36297 0.15075 0.0
H2444 H 0.53602 0.43863 0.1272 0.0
H2445 H 0.50198 0.3842 0.06813 0.0
H2446 H 0.55665 0.39014 0.17421 0.0
H2447 H 0.52399 0.40005 0.18532 0.0
H2448 H 0.54667 0.42516 0.1718 0.0
H2449 H 0.51364 0.32383 0.10329 0.0
H2450 H 0.49224 0.33903 0.07792 0.0
H2451 H 0.48068 0.33467 0.11255 0.0
C2452 C 0.69496 0.49811 0.19693 0.0
C2453 C 0.69652 0.52394 0.20878 0.0
C2454 C 0.67801 0.49309 0.17451 0.0
C2455 C 0.66221 0.51439 0.1637 0.0
C2456 C 0.66411 0.5406 0.17523 0.0
C2457 C 0.68125 0.54505 0.19751 0.0
C2458 C 0.67657 0.46489 0.16275 0.0
C2459 C 0.64768 0.56389 0.16431 0.0
C2460 C 0.63136 0.51012 0.09263 0.0
C2461 C 0.60456 0.50371 0.09867 0.0
C2462 C 0.65053 0.51296 0.11351 0.0
C2463 C 0.6428 0.50921 0.1411 0.0
C2464 C 0.61599 0.502 0.14727 0.0
C2465 C 0.59724 0.49938 0.12604 0.0
C2466 C 0.6789 0.52071 0.10608 0.0
C2467 C 0.60689 0.49779 0.17639 0.0
H2468 H 0.70652 0.48164 0.20559 0.0
H2469 H 0.68272 0.56519 0.20615 0.0
H2470 H 0.65609 0.45658 0.1656 0.0
H2471 H 0.68052 0.46544 0.14045 0.0
H2472 H 0.69116 0.45091 0.17249 0.0
H2473 H 0.65209 0.58322 0.17501 0.0
H2474 H 0.65162 0.56668 0.14218 0.0
H2475 H 0.62601 0.55936 0.16663 0.0
H2476 H 0.6373 0.51359 0.07162 0.0
H2477 H 0.5767 0.49419 0.13103 0.0
H2478 H 0.69328 0.50613 0.11517 0.0
H2479 H 0.68363 0.54096 0.11461 0.0
H2480 H 0.6821 0.52133 0.08362 0.0
H2481 H 0.61992 0.48273 0.1867 0.0
H2482 H 0.58578 0.49072 0.17766 0.0
H2483 H 0.60868 0.51706 0.18789 0.0
C2484 C 0.46997 0.66013 0.19928 0.0
C2485 C 0.48981 0.67683 0.21065 0.0
C2486 C 0.47558 0.64331 0.17692 0.0
C2487 C 0.50167 0.6432 0.16554 0.0
C2488 C 0.52172 0.66026 0.17663 0.0
C2489 C 0.51555 0.67689 0.19906 0.0
C2490 C 0.45361 0.62544 0.16565 0.0
C2491 C 0.5498 0.66061 0.16509 0.0
C2492 C 0.52052 0.57945 0.12684 0.0
C2493 C 0.516 0.58715 0.09961 0.0
C2494 C 0.51672 0.59775 0.14839 0.0
C2495 C 0.50807 0.62443 0.14266 0.0
C2496 C 0.5042 0.63262 0.11521 0.0
C2497 C 0.50828 0.61391 0.094 0.0
C2498 C 0.5212 0.58825 0.17737 0.0
C2499 C 0.49489 0.66089 0.10831 0.0
H2500 H 0.44991 0.66033 0.20781 0.0
H2501 H 0.53104 0.68957 0.20787 0.0
H2502 H 0.45067 0.62963 0.14358 0.0
H2503 H 0.45945 0.60385 0.16759 0.0
H2504 H 0.43421 0.62846 0.17637 0.0
H2505 H 0.56279 0.67579 0.17534 0.0
H2506 H 0.55907 0.64033 0.16744 0.0
H2507 H 0.5492 0.66518 0.14291 0.0
H2508 H 0.52673 0.55893 0.13146 0.0
H2509 H 0.50464 0.62007 0.07307 0.0
H2510 H 0.50193 0.58853 0.18869 0.0
H2511 H 0.53513 0.60215 0.18812 0.0
H2512 H 0.52955 0.56742 0.17827 0.0
H2513 H 0.47444 0.66416 0.11659 0.0
H2514 H 0.49445 0.6646 0.08592 0.0
H2515 H 0.50824 0.67609 0.11797 0.0
C2516 C 0.32445 0.52837 0.1649 0.0
C2517 C 0.31954 0.50937 0.18559 0.0
C2518 C 0.3478 0.52713 0.14894 0.0
C2519 C 0.36652 0.50603 0.1534 0.0
C2520 C 0.36196 0.48713 0.17474 0.0
C2521 C 0.33859 0.48919 0.19079 0.0
C2522 C 0.35204 0.548 0.12679 0.0
C2523 C 0.3812 0.46412 0.17987 0.0
C2524 C 0.40781 0.48789 0.09071 0.0
C2525 C 0.43229 0.50077 0.09615 0.0
C2526 C 0.3867 0.4885 0.10969 0.0
C2527 C 0.38985 0.50292 0.13451 0.0
C2528 C 0.41468 0.51568 0.14029 0.0
C2529 C 0.43571 0.51418 0.12117 0.0
C2530 C 0.36079 0.47419 0.10288 0.0
C2531 C 0.41869 0.53176 0.16618 0.0
H2532 H 0.30977 0.54409 0.16103 0.0
H2533 H 0.33469 0.47442 0.20669 0.0
H2534 H 0.37221 0.55728 0.12877 0.0
H2535 H 0.35112 0.53811 0.10646 0.0
H2536 H 0.33674 0.56432 0.12743 0.0
H2537 H 0.37563 0.45209 0.1982 0.0
H2538 H 0.38148 0.45046 0.16187 0.0
H2539 H 0.40186 0.47198 0.18259 0.0
H2540 H 0.40514 0.47725 0.07152 0.0
H2541 H 0.45453 0.52434 0.12539 0.0
H2542 H 0.34451 0.48927 0.10028 0.0
H2543 H 0.35487 0.46057 0.11988 0.0
H2544 H 0.36231 0.46204 0.08384 0.0
H2545 H 0.40481 0.54931 0.16637 0.0
H2546 H 0.43955 0.5394 0.16825 0.0
H2547 H 0.41384 0.51915 0.18428 0.0
C2548 C 0.83913 0.48398 0.69073 0.0
C2549 C 0.83942 0.50565 0.70925 0.0
C2550 C 0.85615 0.48376 0.6678 0.0
C2551 C 0.8737 0.50586 0.66311 0.0
C2552 C 0.87316 0.52833 0.68107 0.0
C2553 C 0.85614 0.52789 0.70396 0.0
C2554 C 0.85623 0.45931 0.6493 0.0
C2555 C 0.89125 0.55246 0.67666 0.0
C2556 C 0.93902 0.49373 0.62479 0.0
C2557 C 0.93295 0.50338 0.59854 0.0
C2558 C 0.91981 0.49406 0.64577 0.0
C2559 C 0.89391 0.50469 0.6406 0.0
C2560 C 0.88764 0.51452 0.61417 0.0
C2561 C 0.90715 0.51354 0.5934 0.0
C2562 C 0.92727 0.48307 0.67355 0.0
C2563 C 0.86043 0.52637 0.6079 0.0
H2564 H 0.82649 0.4666 0.69486 0.0
H2565 H 0.85627 0.54479 0.71808 0.0
H2566 H 0.85372 0.4656 0.6277 0.0
H2567 H 0.87584 0.44883 0.65089 0.0
H2568 H 0.84011 0.4447 0.65457 0.0
H2569 H 0.88684 0.56921 0.69111 0.0
H2570 H 0.91248 0.5463 0.67938 0.0
H2571 H 0.88913 0.56015 0.65547 0.0
H2572 H 0.95881 0.48563 0.62892 0.0
H2573 H 0.90232 0.52124 0.57326 0.0
H2574 H 0.91303 0.46688 0.67963 0.0
H2575 H 0.92582 0.49936 0.68907 0.0
H2576 H 0.94793 0.47467 0.674 0.0
H2577 H 0.84458 0.51111 0.61187 0.0
H2578 H 0.85875 0.53329 0.58637 0.0
H2579 H 0.85647 0.54384 0.62157 0.0
C2580 C 0.47285 0.81305 0.66798 0.0
C2581 C 0.49345 0.80096 0.68323 0.0
C2582 C 0.47787 0.8355 0.65118 0.0
C2583 C 0.50414 0.84626 0.64959 0.0
C2584 C 0.52498 0.83443 0.6652 0.0
C2585 C 0.51939 0.81191 0.68181 0.0
C2586 C 0.45508 0.84754 0.63487 0.0
C2587 C 0.55326 0.84528 0.66397 0.0
C2588 C 0.52012 0.88536 0.58488 0.0
C2589 C 0.51662 0.91232 0.59329 0.0
C2590 C 0.51685 0.86377 0.60318 0.0
C2591 C 0.50989 0.86915 0.63067 0.0
C2592 C 0.50713 0.89629 0.63958 0.0
C2593 C 0.51057 0.91757 0.6208 0.0
C2594 C 0.52006 0.83514 0.59285 0.0
C2595 C 0.49977 0.90282 0.66876 0.0
H2596 H 0.45266 0.80503 0.66933 0.0
H2597 H 0.53547 0.80255 0.69333 0.0
H2598 H 0.45293 0.86937 0.6397 0.0
H2599 H 0.4595 0.84595 0.61271 0.0
H2600 H 0.43567 0.83729 0.63899 0.0
H2601 H 0.56692 0.83457 0.67827 0.0
H2602 H 0.56124 0.84313 0.64292 0.0
H2603 H 0.55342 0.86718 0.66898 0.0
H2604 H 0.52507 0.88097 0.56378 0.0
H2605 H 0.50779 0.93826 0.62756 0.0
H2606 H 0.50057 0.82438 0.59414 0.0
H2607 H 0.53453 0.82391 0.60581 0.0
H2608 H 0.52715 0.83445 0.57134 0.0
H2609 H 0.47938 0.89501 0.67325 0.0
H2610 H 0.50008 0.92493 0.67288 0.0
H2611 H 0.51381 0.89267 0.68303 0.0
C2612 C 0.17849 0.53175 0.70243 0.0
C2613 C 0.19784 0.51179 0.70734 0.0
C2614 C 0.16181 0.53051 0.6794 0.0
C2615 C 0.16419 0.50847 0.66107 0.0
C2616 C 0.18428 0.48863 0.66554 0.0
C2617 C 0.20105 0.49064 0.6886 0.0
C2618 C 0.14099 0.55233 0.67524 0.0
C2619 C 0.18725 0.46468 0.64665 0.0
C2620 C 0.10014 0.49173 0.62248 0.0
C2621 C 0.10507 0.50331 0.59681 0.0
C2622 C 0.11962 0.49239 0.64319 0.0
C2623 C 0.14447 0.50547 0.63834 0.0
C2624 C 0.14967 0.51698 0.61235 0.0
C2625 C 0.13001 0.51551 0.5918 0.0
C2626 C 0.11339 0.47947 0.67043 0.0
C2627 C 0.17564 0.53157 0.60652 0.0
H2628 H 0.17609 0.54809 0.71702 0.0
H2629 H 0.21589 0.47511 0.69261 0.0
H2630 H 0.14239 0.56066 0.65423 0.0
H2631 H 0.12064 0.54357 0.6776 0.0
H2632 H 0.14324 0.56922 0.69005 0.0
H2633 H 0.20493 0.45203 0.65188 0.0
H2634 H 0.16899 0.45188 0.64784 0.0
H2635 H 0.1892 0.4716 0.62518 0.0
H2636 H 0.08103 0.48199 0.62637 0.0
H2637 H 0.13387 0.52464 0.57205 0.0
H2638 H 0.11276 0.49522 0.68657 0.0
H2639 H 0.12944 0.46494 0.67605 0.0
H2640 H 0.09389 0.4686 0.67033 0.0
H2641 H 0.17741 0.5495 0.62006 0.0
H2642 H 0.17705 0.53845 0.58496 0.0
H2643 H 0.19294 0.51818 0.61101 0.0
C2644 C 0.48731 0.15948 0.70356 0.0
C2645 C 0.50706 0.17885 0.70924 0.0
C2646 C 0.48949 0.14238 0.68085 0.0
C2647 C 0.51216 0.14454 0.66358 0.0
C2648 C 0.53189 0.16451 0.66884 0.0
C2649 C 0.52901 0.18159 0.6916 0.0
C2650 C 0.46783 0.1216 0.6757 0.0
C2651 C 0.55643 0.1672 0.651 0.0
C2652 C 0.52897 0.08078 0.62399 0.0
C2653 C 0.51822 0.08665 0.59821 0.0
C2654 C 0.52796 0.09984 0.64519 0.0
C2655 C 0.5155 0.12519 0.6406 0.0
C2656 C 0.50495 0.13139 0.6145 0.0
C2657 C 0.50662 0.11211 0.59354 0.0
C2658 C 0.53978 0.09264 0.67265 0.0
C2659 C 0.49119 0.15806 0.60895 0.0
H2660 H 0.47022 0.15754 0.71713 0.0
H2661 H 0.54439 0.19643 0.69616 0.0
H2662 H 0.46001 0.12368 0.65458 0.0
H2663 H 0.47631 0.10093 0.6776 0.0
H2664 H 0.45083 0.12354 0.69023 0.0
H2665 H 0.56931 0.18451 0.65716 0.0
H2666 H 0.56847 0.14835 0.65215 0.0
H2667 H 0.55046 0.16994 0.62934 0.0
H2668 H 0.53824 0.06126 0.62763 0.0
H2669 H 0.49812 0.11672 0.5737 0.0
H2670 H 0.52363 0.09164 0.6882 0.0
H2671 H 0.55409 0.10854 0.67927 0.0
H2672 H 0.55039 0.07287 0.67231 0.0
H2673 H 0.47302 0.1598 0.62193 0.0
H2674 H 0.48513 0.16023 0.58722 0.0
H2675 H 0.50461 0.17514 0.61438 0.0
C2676 C 0.8377 0.5199 0.33101 0.0
C2677 C 0.83912 0.49907 0.3116 0.0
C2678 C 0.85434 0.51979 0.3542 0.0
C2679 C 0.87263 0.49821 0.35818 0.0
C2680 C 0.87307 0.4764 0.33941 0.0
C2681 C 0.85642 0.47717 0.31628 0.0
C2682 C 0.85339 0.54353 0.37359 0.0
C2683 C 0.89199 0.45281 0.3431 0.0
C2684 C 0.93757 0.51184 0.39639 0.0
C2685 C 0.93202 0.50118 0.42234 0.0
C2686 C 0.91826 0.51137 0.37556 0.0
C2687 C 0.89286 0.49952 0.38059 0.0
C2688 C 0.8871 0.48869 0.40675 0.0
C2689 C 0.90668 0.48987 0.4274 0.0
C2690 C 0.92512 0.52349 0.34809 0.0
C2691 C 0.86044 0.47552 0.41279 0.0
H2692 H 0.82458 0.537 0.32734 0.0
H2693 H 0.85741 0.46093 0.30142 0.0
H2694 H 0.85136 0.53638 0.39497 0.0
H2695 H 0.87246 0.55504 0.37223 0.0
H2696 H 0.83655 0.5575 0.36895 0.0
H2697 H 0.88802 0.43628 0.32826 0.0
H2698 H 0.91297 0.45977 0.34036 0.0
H2699 H 0.8903 0.44453 0.3641 0.0
H2700 H 0.95702 0.52084 0.3924 0.0
H2701 H 0.90233 0.48139 0.44735 0.0
H2702 H 0.91023 0.53927 0.34261 0.0
H2703 H 0.9242 0.50763 0.33208 0.0
H2704 H 0.94543 0.53272 0.34778 0.0
H2705 H 0.84394 0.49014 0.40919 0.0
H2706 H 0.8591 0.46807 0.43417 0.0
H2707 H 0.8572 0.4582 0.39874 0.0
C2708 C 0.48874 0.82241 0.3301 0.0
C2709 C 0.50823 0.82329 0.30951 0.0
C2710 C 0.49045 0.83957 0.35291 0.0
C2711 C 0.51233 0.85774 0.3552 0.0
C2712 C 0.53279 0.85761 0.33516 0.0
C2713 C 0.5304 0.84048 0.31246 0.0
C2714 C 0.46816 0.83927 0.37378 0.0
C2715 C 0.55663 0.87636 0.33708 0.0
C2716 C 0.50307 0.92365 0.39386 0.0
C2717 C 0.51527 0.91776 0.41896 0.0
C2718 C 0.50155 0.9041 0.37315 0.0
C2719 C 0.51295 0.87818 0.37747 0.0
C2720 C 0.5254 0.87214 0.40273 0.0
C2721 C 0.5262 0.89194 0.42327 0.0
C2722 C 0.48776 0.9112 0.34662 0.0
C2723 C 0.53812 0.84489 0.40792 0.0
H2724 H 0.47148 0.80928 0.32768 0.0
H2725 H 0.54556 0.841 0.29658 0.0
H2726 H 0.4765 0.83717 0.39468 0.0
H2727 H 0.45715 0.85877 0.37303 0.0
H2728 H 0.45368 0.82255 0.37017 0.0
H2729 H 0.57192 0.87204 0.32116 0.0
H2730 H 0.5499 0.89764 0.3347 0.0
H2731 H 0.5662 0.87463 0.35747 0.0
H2732 H 0.49431 0.94347 0.39053 0.0
H2733 H 0.5358 0.88733 0.44259 0.0
H2734 H 0.47151 0.89645 0.34235 0.0
H2735 H 0.50227 0.90996 0.32949 0.0
H2736 H 0.47899 0.93187 0.34694 0.0
H2737 H 0.52302 0.82859 0.40536 0.0
H2738 H 0.54684 0.84335 0.42874 0.0
H2739 H 0.55423 0.84118 0.39274 0.0
C2740 C 0.20557 0.54009 0.34839 0.0
C2741 C 0.21596 0.51946 0.33175 0.0
C2742 C 0.18279 0.53583 0.36469 0.0
C2743 C 0.16988 0.51031 0.36437 0.0
C2744 C 0.17976 0.48959 0.34705 0.0
C2745 C 0.20267 0.49442 0.33092 0.0
C2746 C 0.17292 0.55854 0.38274 0.0
C2747 C 0.16656 0.46211 0.34612 0.0
C2748 C 0.13121 0.49399 0.4292 0.0
C2749 C 0.10481 0.50081 0.42193 0.0
C2750 C 0.15231 0.49593 0.41034 0.0
C2751 C 0.14707 0.50506 0.38344 0.0
C2752 C 0.12035 0.51105 0.37562 0.0
C2753 C 0.09952 0.50877 0.39493 0.0
C2754 C 0.18042 0.48912 0.41954 0.0
C2755 C 0.1139 0.52084 0.34716 0.0
H2756 H 0.21534 0.55969 0.34874 0.0
H2757 H 0.21061 0.47833 0.31823 0.0
H2758 H 0.15144 0.56267 0.37859 0.0
H2759 H 0.17457 0.55249 0.40451 0.0
H2760 H 0.18445 0.57755 0.3797 0.0
H2761 H 0.17546 0.44883 0.33022 0.0
H2762 H 0.16867 0.45201 0.36626 0.0
H2763 H 0.14479 0.46427 0.34204 0.0
H2764 H 0.13554 0.48743 0.44987 0.0
H2765 H 0.07924 0.51409 0.38906 0.0
H2766 H 0.19289 0.50773 0.4195 0.0
H2767 H 0.18982 0.47459 0.40518 0.0
H2768 H 0.18084 0.48025 0.4404 0.0
H2769 H 0.12298 0.54109 0.34389 0.0
H2770 H 0.09196 0.52237 0.34356 0.0
H2771 H 0.12267 0.507 0.33172 0.0
C2772 C 0.51448 0.19289 0.33605 0.0
C2773 C 0.48822 0.20268 0.33317 0.0
C2774 C 0.52006 0.17055 0.3529 0.0
C2775 C 0.49888 0.1577 0.36715 0.0
C2776 C 0.4723 0.16725 0.36402 0.0
C2777 C 0.4673 0.1896 0.34708 0.0
C2778 C 0.54868 0.16104 0.35585 0.0
C2779 C 0.44915 0.15406 0.37884 0.0
C2780 C 0.5077 0.08677 0.39623 0.0
C2781 C 0.51229 0.09227 0.42398 0.0
C2782 C 0.50382 0.10787 0.37734 0.0
C2783 C 0.50457 0.13508 0.38641 0.0
C2784 C 0.50976 0.14078 0.41423 0.0
C2785 C 0.51356 0.11937 0.43262 0.0
C2786 C 0.49832 0.10102 0.34781 0.0
C2787 C 0.5107 0.16952 0.42473 0.0
H2788 H 0.53076 0.20303 0.32554 0.0
H2789 H 0.44691 0.19677 0.34457 0.0
H2790 H 0.55529 0.1635 0.37735 0.0
H2791 H 0.55013 0.13918 0.35087 0.0
H2792 H 0.56267 0.17241 0.34242 0.0
H2793 H 0.42956 0.16331 0.37343 0.0
H2794 H 0.44838 0.13214 0.37395 0.0
H2795 H 0.45207 0.15587 0.40124 0.0
H2796 H 0.50664 0.06598 0.38926 0.0
H2797 H 0.51719 0.124 0.45394 0.0
H2798 H 0.51285 0.1116 0.33436 0.0
H2799 H 0.478 0.10815 0.34207 0.0
H2800 H 0.49957 0.07892 0.3438 0.0
H2801 H 0.52547 0.18153 0.41287 0.0
H2802 H 0.51615 0.17056 0.44671 0.0
H2803 H 0.49083 0.17924 0.42196 0.0
C2804 C 0.67784 0.80745 0.48677 0.0
C2805 C 0.69789 0.80598 0.50677 0.0
C2806 C 0.66087 0.83012 0.4849 0.0
C2807 C 0.6635 0.85151 0.50403 0.0
C2808 C 0.68429 0.85044 0.52376 0.0
C2809 C 0.70143 0.82781 0.52469 0.0
C2810 C 0.63948 0.8307 0.4631 0.0
C2811 C 0.68748 0.87245 0.5449 0.0
C2812 C 0.62802 0.91892 0.49127 0.0
C2813 C 0.6039 0.91525 0.50557 0.0
C2814 C 0.64755 0.89833 0.49036 0.0
C2815 C 0.64318 0.8738 0.50474 0.0
C2816 C 0.61906 0.87029 0.51967 0.0
C2817 C 0.59961 0.89087 0.51958 0.0
C2818 C 0.67261 0.90265 0.47364 0.0
C2819 C 0.61377 0.84479 0.53583 0.0
H2820 H 0.67509 0.79055 0.47293 0.0
H2821 H 0.71671 0.82652 0.54039 0.0
H2822 H 0.61943 0.82864 0.47269 0.0
H2823 H 0.63983 0.85036 0.45213 0.0
H2824 H 0.642 0.81412 0.44798 0.0
H2825 H 0.70569 0.86956 0.55764 0.0
H2826 H 0.6886 0.89258 0.53493 0.0
H2827 H 0.66967 0.87263 0.55851 0.0
H2828 H 0.63135 0.93765 0.48022 0.0
H2829 H 0.58113 0.88802 0.5309 0.0
H2830 H 0.67428 0.88659 0.45788 0.0
H2831 H 0.69059 0.90108 0.48688 0.0
H2832 H 0.67283 0.92269 0.46332 0.0
H2833 H 0.613 0.82712 0.52188 0.0
H2834 H 0.59461 0.84575 0.54738 0.0
H2835 H 0.63037 0.8412 0.55048 0.0
C2836 C 0.69469 0.18714 0.51847 0.0
C2837 C 0.69595 0.2001 0.49297 0.0
C2838 C 0.67774 0.16464 0.52266 0.0
C2839 C 0.66185 0.15473 0.5008 0.0
C2840 C 0.66379 0.16721 0.47482 0.0
C2841 C 0.68072 0.18966 0.47127 0.0
C2842 C 0.67623 0.15198 0.55068 0.0
C2843 C 0.64749 0.15722 0.45084 0.0
C2844 C 0.63023 0.08429 0.50223 0.0
C2845 C 0.60334 0.09021 0.50843 0.0
C2846 C 0.64967 0.10493 0.50046 0.0
C2847 C 0.64217 0.13221 0.50514 0.0
C2848 C 0.61528 0.13821 0.51219 0.0
C2849 C 0.59625 0.11725 0.51367 0.0
C2850 C 0.67806 0.09762 0.49277 0.0
C2851 C 0.60639 0.16696 0.51749 0.0
H2852 H 0.7063 0.19512 0.53536 0.0
H2853 H 0.68194 0.19923 0.45137 0.0
H2854 H 0.65583 0.15485 0.55924 0.0
H2855 H 0.6798 0.12986 0.54933 0.0
H2856 H 0.69103 0.1609 0.56505 0.0
H2857 H 0.65226 0.16828 0.43168 0.0
H2858 H 0.65116 0.13532 0.4475 0.0
H2859 H 0.62581 0.1597 0.45524 0.0
H2860 H 0.63606 0.06356 0.49812 0.0
H2861 H 0.57567 0.12219 0.51873 0.0
H2862 H 0.69236 0.10615 0.50785 0.0
H2863 H 0.68304 0.10658 0.47261 0.0
H2864 H 0.68113 0.07537 0.49162 0.0
H2865 H 0.61938 0.17645 0.5332 0.0
H2866 H 0.58522 0.1681 0.52447 0.0
H2867 H 0.60844 0.17909 0.49852 0.0
C2868 C 0.86212 0.69723 0.53768 0.0
C2869 C 0.84304 0.70266 0.51735 0.0
C2870 C 0.87832 0.67399 0.53659 0.0
C2871 C 0.8757 0.6558 0.51438 0.0
C2872 C 0.85593 0.66077 0.49416 0.0
C2873 C 0.83969 0.68405 0.49599 0.0
C2874 C 0.89879 0.66935 0.55884 0.0
C2875 C 0.85269 0.6421 0.46999 0.0
C2876 C 0.9387 0.61549 0.49774 0.0
C2877 C 0.93301 0.59013 0.50932 0.0
C2878 C 0.91988 0.63665 0.49847 0.0
C2879 C 0.89485 0.63264 0.51157 0.0
C2880 C 0.88886 0.60699 0.52307 0.0
C2881 C 0.90789 0.58598 0.52157 0.0
C2882 C 0.92701 0.66348 0.48557 0.0
C2883 C 0.86264 0.60198 0.53763 0.0
H2884 H 0.8646 0.71145 0.55436 0.0
H2885 H 0.82511 0.68827 0.48013 0.0
H2886 H 0.89665 0.64864 0.56736 0.0
H2887 H 0.9193 0.67095 0.55019 0.0
H2888 H 0.89688 0.6842 0.57576 0.0
H2889 H 0.83534 0.64779 0.45697 0.0
H2890 H 0.87114 0.64266 0.45731 0.0
H2891 H 0.85 0.62092 0.477 0.0
H2892 H 0.95794 0.61881 0.48797 0.0
H2893 H 0.90339 0.56652 0.53074 0.0
H2894 H 0.92814 0.67936 0.50154 0.0
H2895 H 0.91119 0.66965 0.4709 0.0
H2896 H 0.94652 0.66278 0.47463 0.0
H2897 H 0.86103 0.61562 0.55556 0.0
H2898 H 0.86068 0.58072 0.54478 0.0
H2899 H 0.84558 0.60668 0.52391 0.0
C2900 C 0.33685 0.8222 0.4936 0.0
C2901 C 0.31838 0.82606 0.51481 0.0
C2902 C 0.36026 0.83813 0.49187 0.0
C2903 C 0.36551 0.85797 0.51215 0.0
C2904 C 0.34738 0.86101 0.53424 0.0
C2905 C 0.32394 0.84526 0.53511 0.0
C2906 C 0.37879 0.83453 0.46777 0.0
C2907 C 0.35231 0.88153 0.55654 0.0
C2908 C 0.43507 0.88972 0.51955 0.0
C2909 C 0.43115 0.91523 0.50756 0.0
C2910 C 0.41407 0.87065 0.52086 0.0
C2911 C 0.38873 0.877 0.50937 0.0
C2912 C 0.38502 0.90239 0.49645 0.0
C2913 C 0.40613 0.92122 0.49593 0.0
C2914 C 0.41873 0.8441 0.53535 0.0
C2915 C 0.35856 0.90988 0.4835 0.0
H2916 H 0.33245 0.80746 0.47782 0.0
H2917 H 0.30968 0.84814 0.55158 0.0
H2918 H 0.37861 0.85316 0.45509 0.0
H2919 H 0.39969 0.83144 0.47485 0.0
H2920 H 0.37288 0.81711 0.45474 0.0
H2921 H 0.3376 0.87972 0.57349 0.0
H2922 H 0.3728 0.87907 0.56501 0.0
H2923 H 0.35096 0.90228 0.54797 0.0
H2924 H 0.45429 0.88502 0.52874 0.0
H2925 H 0.40302 0.94075 0.48634 0.0
H2926 H 0.41353 0.82694 0.52173 0.0
H2927 H 0.40543 0.84276 0.55349 0.0
H2928 H 0.43984 0.84173 0.54219 0.0
H2929 H 0.35317 0.89476 0.46767 0.0
H2930 H 0.35905 0.93025 0.47392 0.0
H2931 H 0.34242 0.90964 0.49909 0.0
C2932 C 0.19415 0.31924 0.49246 0.0
C2933 C 0.2159 0.3242 0.50988 0.0
C2934 C 0.17123 0.33583 0.49305 0.0
C2935 C 0.16979 0.35751 0.51196 0.0
C2936 C 0.19119 0.36166 0.53057 0.0
C2937 C 0.21415 0.34521 0.52902 0.0
C2938 C 0.14921 0.33105 0.47244 0.0
C2939 C 0.19023 0.38406 0.55151 0.0
C2940 C 0.12846 0.42007 0.49511 0.0
C2941 C 0.10486 0.41553 0.50999 0.0
C2942 C 0.14937 0.40104 0.49506 0.0
C2943 C 0.147 0.37714 0.5109 0.0
C2944 C 0.12317 0.37242 0.52598 0.0
C2945 C 0.10221 0.39152 0.52504 0.0
C2946 C 0.17407 0.40663 0.4781 0.0
C2947 C 0.12009 0.34756 0.54363 0.0
H2948 H 0.19565 0.30319 0.47744 0.0
H2949 H 0.23097 0.34901 0.54252 0.0
H2950 H 0.1295 0.32956 0.48282 0.0
H2951 H 0.14814 0.3485 0.45819 0.0
H2952 H 0.15252 0.31233 0.46034 0.0
H2953 H 0.20705 0.38276 0.56633 0.0
H2954 H 0.19125 0.40398 0.54109 0.0
H2955 H 0.17101 0.38336 0.56293 0.0
H2956 H 0.13049 0.43849 0.48321 0.0
H2957 H 0.08408 0.38804 0.53675 0.0
H2958 H 0.178 0.38939 0.46414 0.0
H2959 H 0.19179 0.40872 0.49161 0.0
H2960 H 0.17212 0.42538 0.46572 0.0
H2961 H 0.12254 0.32902 0.53111 0.0
H2962 H 0.10026 0.34676 0.55396 0.0
H2963 H 0.13604 0.34726 0.55944 0.0
C2964 C 0.33651 0.18165 0.52413 0.0
C2965 C 0.31789 0.17757 0.50307 0.0
C2966 C 0.35976 0.16555 0.52611 0.0
C2967 C 0.36468 0.14519 0.50631 0.0
C2968 C 0.34641 0.14178 0.48442 0.0
C2969 C 0.3232 0.15783 0.4832 0.0
C2970 C 0.37851 0.16963 0.54995 0.0
C2971 C 0.35102 0.12066 0.46261 0.0
C2972 C 0.43411 0.11343 0.49862 0.0
C2973 C 0.43043 0.08821 0.51129 0.0
C2974 C 0.41308 0.13241 0.49719 0.0
C2975 C 0.38794 0.12627 0.50923 0.0
C2976 C 0.38449 0.10121 0.5229 0.0
C2977 C 0.40563 0.08242 0.5235 0.0
C2978 C 0.41749 0.15864 0.48201 0.0
C2979 C 0.35823 0.09396 0.53644 0.0
H2980 H 0.33239 0.19676 0.53963 0.0
H2981 H 0.30898 0.15481 0.46672 0.0
H2982 H 0.37847 0.15126 0.563 0.0
H2983 H 0.39934 0.17258 0.54258 0.0
H2984 H 0.37275 0.1873 0.56269 0.0
H2985 H 0.33601 0.12193 0.4459 0.0
H2986 H 0.37135 0.123 0.4537 0.0
H2987 H 0.34994 0.10016 0.47179 0.0
H2988 H 0.45317 0.11798 0.48899 0.0
H2989 H 0.40271 0.0631 0.53359 0.0
H2990 H 0.41248 0.17609 0.49531 0.0
H2991 H 0.40393 0.15955 0.46406 0.0
H2992 H 0.43849 0.16088 0.47478 0.0
H2993 H 0.35209 0.11024 0.55074 0.0
H2994 H 0.35941 0.07459 0.54792 0.0
H2995 H 0.34228 0.09211 0.52075 0.0
C2996 C 0.83732 0.32226 0.52484 0.0
C2997 C 0.84142 0.30289 0.50435 0.0
C2998 C 0.8538 0.34542 0.5266 0.0
C2999 C 0.87449 0.34949 0.50711 0.0
C3000 C 0.87786 0.33047 0.48572 0.0
C3001 C 0.86149 0.30734 0.48479 0.0
C3002 C 0.84977 0.36494 0.54995 0.0
C3003 C 0.89928 0.33416 0.46421 0.0
C3004 C 0.90748 0.41881 0.49839 0.0
C3005 C 0.93219 0.41493 0.51155 0.0
C3006 C 0.88831 0.39789 0.49711 0.0
C3007 C 0.89369 0.37266 0.50981 0.0
C3008 C 0.91827 0.36901 0.52389 0.0
C3009 C 0.93729 0.39003 0.52432 0.0
C3010 C 0.86267 0.40249 0.4814 0.0
C3011 C 0.92471 0.3427 0.53816 0.0
H3012 H 0.82194 0.31874 0.54009 0.0
H3013 H 0.86459 0.29242 0.46885 0.0
H3014 H 0.86775 0.36479 0.56331 0.0
H3015 H 0.84743 0.38586 0.54208 0.0
H3016 H 0.83193 0.35976 0.5625 0.0
H3017 H 0.89791 0.31872 0.44776 0.0
H3018 H 0.89768 0.35456 0.45486 0.0
H3019 H 0.91939 0.3327 0.47376 0.0
H3020 H 0.90347 0.43793 0.48831 0.0
H3021 H 0.9562 0.38697 0.53479 0.0
H3022 H 0.84508 0.39828 0.49461 0.0
H3023 H 0.86167 0.38827 0.46389 0.0
H3024 H 0.86108 0.42351 0.47348 0.0
H3025 H 0.90831 0.33723 0.55247 0.0
H3026 H 0.94382 0.34373 0.54977 0.0
H3027 H 0.92628 0.32616 0.52291 0.0
C3028 C 0.20421 0.66532 0.5486 0.0
C3029 C 0.21472 0.68108 0.52724 0.0
C3030 C 0.18188 0.64846 0.54462 0.0
C3031 C 0.16955 0.64723 0.5186 0.0
C3032 C 0.1795 0.66369 0.49712 0.0
C3033 C 0.20193 0.68047 0.5017 0.0
C3034 C 0.17188 0.63145 0.56817 0.0
C3035 C 0.16695 0.66296 0.46908 0.0
C3036 C 0.13231 0.58157 0.50387 0.0
C3037 C 0.10556 0.58868 0.50928 0.0
C3038 C 0.15312 0.60065 0.50591 0.0
C3039 C 0.14721 0.6276 0.51373 0.0
C3040 C 0.12021 0.63513 0.5186 0.0
C3041 C 0.09973 0.61564 0.51623 0.0
C3042 C 0.18157 0.59172 0.50042 0.0
C3043 C 0.11303 0.66357 0.52715 0.0
H3044 H 0.21362 0.66606 0.56855 0.0
H3045 H 0.20996 0.69248 0.48507 0.0
H3046 H 0.15019 0.63514 0.57159 0.0
H3047 H 0.17427 0.60966 0.56325 0.0
H3048 H 0.18281 0.63574 0.58746 0.0
H3049 H 0.17587 0.67821 0.45508 0.0
H3050 H 0.16967 0.64257 0.45999 0.0
H3051 H 0.14506 0.66667 0.47054 0.0
H3052 H 0.13713 0.56091 0.49824 0.0
H3053 H 0.0792 0.62142 0.52056 0.0
H3054 H 0.19353 0.59319 0.51948 0.0
H3055 H 0.19108 0.60525 0.48513 0.0
H3056 H 0.18265 0.57057 0.49281 0.0
H3057 H 0.12196 0.66799 0.54742 0.0
H3058 H 0.09101 0.66667 0.52847 0.0
H3059 H 0.12148 0.67842 0.51247 0.0
loop_
_geom_bond_atom_site_label_1
_geom_bond_atom_site_label_2
_geom_bond_distance
_geom_bond_site_symmetry_2
_ccdc_geom_bond_type
H0 C1 0.949 . S
C1 H0 0.949 . S
C1 C2 1.395 . S
C1 C3 1.391 . S
C2 C1 1.395 . S
C2 C5 1.390 . S
C3 C1 1.391 . S
C3 C7 1.387 . S
C3 C8 1.491 1_455 S
H4 C5 0.950 . S
C5 C2 1.390 . S
C5 H4 0.950 . S
C5 C6 1.378 . S
C6 C5 1.378 . S
C6 C7 1.409 . S
C7 C3 1.387 . S
C7 C6 1.409 . S
C7 H9 0.951 . S
C8 C3 1.491 1_655 S
C8 C10 1.382 1_655 S
C8 C12 1.404 . S
H9 C7 0.951 . S
C10 C8 1.382 1_455 S
C10 C11 1.390 . S
C10 H15 0.949 . S
C11 C10 1.390 . S
C11 C16 1.399 1_455 S
C12 C8 1.404 . S
C12 H13 0.950 . S
C12 C14 1.375 . S
H13 C12 0.950 . S
C14 C12 1.375 . S
C14 C16 1.382 . S
C14 H18 0.950 . S
H15 C10 0.949 . S
C16 C11 1.399 1_655 S
C16 C14 1.382 . S
C16 H17 0.952 . S
H17 C16 0.952 . S
H18 C14 0.950 . S
H19 C20 0.949 . S
C20 H19 0.949 . S
C20 C21 1.395 . S
C20 C22 1.391 . S
C21 C20 1.395 . S
C21 C24 1.390 1_545 S
C22 C20 1.391 . S
C22 C26 1.387 . S
C22 C27 1.491 . S
H23 C24 0.950 . S
C24 C21 1.390 1_565 S
C24 H23 0.950 . S
C24 C25 1.377 1_565 S
C25 C24 1.377 1_545 S
C25 C26 1.413 . S
C26 C22 1.387 . S
C26 C25 1.413 . S
C26 H28 0.951 . S
C27 C22 1.491 . S
C27 C29 1.382 . S
C27 C31 1.404 . S
H28 C26 0.951 . S
C29 C27 1.382 . S
C29 C30 1.390 . S
C29 H34 0.949 1_545 S
C30 C29 1.390 . S
C30 C35 1.399 . S
C31 C27 1.404 . S
C31 H32 0.950 . S
C31 C33 1.375 . S
H32 C31 0.950 . S
C33 C31 1.375 . S
C33 C35 1.382 . S
C33 H37 0.950 . S
H34 C29 0.949 1_565 S
C35 C30 1.399 . S
C35 C33 1.382 . S
C35 H36 0.952 . S
H36 C35 0.952 . S
H37 C33 0.950 . S
H38 C39 0.949 . S
C39 H38 0.949 . S
C39 C40 1.395 . S
C39 C41 1.391 . S
C40 C39 1.395 . S
C40 C43 1.390 . S
C41 C39 1.391 . S
C41 C45 1.387 . S
C41 C46 1.486 1_455 S
H42 C43 0.950 . S
C43 C40 1.390 . S
C43 H42 0.950 . S
C43 C44 1.378 . S
C44 C43 1.378 . S
C44 C45 1.409 . S
C45 C41 1.387 . S
C45 C44 1.409 . S
C45 H47 0.951 . S
C46 C41 1.486 1_655 S
C46 C48 1.370 1_655 S
C46 C50 1.421 . S
H47 C45 0.951 . S
C48 C46 1.370 1_455 S
C48 C49 1.390 . S
C48 H53 0.949 . S
C49 C48 1.390 . S
C49 C54 1.399 1_455 S
C50 C46 1.421 . S
C50 H51 0.950 . S
C50 C52 1.375 . S
H51 C50 0.950 . S
C52 C50 1.375 . S
C52 C54 1.382 . S
C52 H56 0.950 . S
H53 C48 0.949 . S
C54 C49 1.399 1_655 S
C54 C52 1.382 . S
C54 H55 0.952 . S
H55 C54 0.952 . S
H56 C52 0.950 . S
H57 C58 0.949 . S
C58 H57 0.949 . S
C58 C59 1.394 . S
C58 C60 1.391 . S
C59 C58 1.394 . S
C59 C62 1.390 1_565 S
C60 C58 1.391 . S
C60 C64 1.387 . S
C60 C65 1.491 . S
H61 C62 0.950 . S
C62 C59 1.390 1_545 S
C62 H61 0.950 . S
C62 C63 1.377 1_545 S
C63 C62 1.377 1_565 S
C63 C64 1.411 . S
C64 C60 1.387 . S
C64 C63 1.411 . S
C64 H66 0.951 . S
C65 C60 1.491 . S
C65 C67 1.382 . S
C65 C69 1.404 . S
H66 C64 0.951 . S
C67 C65 1.382 . S
C67 C68 1.390 . S
C67 H72 0.949 1_565 S
C68 C67 1.390 . S
C68 C73 1.399 . S
C69 C65 1.404 . S
C69 H70 0.950 . S
C69 C71 1.375 . S
H70 C69 0.950 . S
C71 C69 1.375 . S
C71 C73 1.382 . S
C71 H75 0.950 . S
H72 C67 0.949 1_545 S
C73 C68 1.399 . S
C73 C71 1.382 . S
C73 H74 0.952 . S
H74 C73 0.952 . S
H75 C71 0.950 . S
H76 C77 0.949 . S
C77 H76 0.949 . S
C77 C78 1.395 . S
C77 C79 1.391 . S
C78 C77 1.395 . S
C78 C81 1.390 . S
C79 C77 1.391 . S
C79 C83 1.387 . S
C79 C84 1.491 1_455 S
H80 C81 0.950 . S
C81 C78 1.390 . S
C81 H80 0.950 . S
C81 C82 1.378 . S
C82 C81 1.378 . S
C82 C83 1.409 . S
C83 C79 1.387 . S
C83 C82 1.409 . S
C83 H85 0.951 . S
C84 C79 1.491 1_655 S
C84 C86 1.382 1_655 S
C84 C88 1.404 . S
H85 C83 0.951 . S
C86 C84 1.382 1_455 S
C86 C87 1.390 . S
C86 H91 0.949 . S
C87 C86 1.390 . S
C87 C92 1.399 1_455 S
C88 C84 1.404 . S
C88 H89 0.950 . S
C88 C90 1.375 . S
H89 C88 0.950 . S
C90 C88 1.375 . S
C90 C92 1.382 . S
C90 H94 0.950 . S
H91 C86 0.949 . S
C92 C87 1.399 1_655 S
C92 C90 1.382 . S
C92 H93 0.952 . S
H93 C92 0.952 . S
H94 C90 0.950 . S
H95 C96 0.949 . S
C96 H95 0.949 . S
C96 C97 1.395 . S
C96 C98 1.391 . S
C97 C96 1.395 . S
C97 C100 1.389 1_545 S
C98 C96 1.391 . S
C98 C102 1.387 . S
C98 C103 1.491 . S
H99 C100 0.954 . S
C100 C97 1.389 1_565 S
C100 H99 0.954 . S
C100 C101 1.376 1_565 S
C101 C100 1.376 1_545 S
C101 C102 1.409 . S
C102 C98 1.387 . S
C102 C101 1.409 . S
C102 H104 0.951 . S
C103 C98 1.491 . S
C103 C105 1.382 . S
C103 C107 1.404 . S
H104 C102 0.951 . S
C105 C103 1.382 . S
C105 C106 1.390 . S
C105 H110 0.949 1_545 S
C106 C105 1.390 . S
C106 C111 1.399 . S
C107 C103 1.404 . S
C107 H108 0.950 . S
C107 C109 1.375 . S
H108 C107 0.950 . S
C109 C107 1.375 . S
C109 C111 1.382 . S
C109 H113 0.950 . S
H110 C105 0.949 1_565 S
C111 C106 1.399 . S
C111 C109 1.382 . S
C111 H112 0.952 . S
H112 C111 0.952 . S
H113 C109 0.950 . S
H114 C115 0.949 . S
C115 H114 0.949 . S
C115 C116 1.395 . S
C115 C117 1.391 . S
C116 C115 1.395 . S
C116 C119 1.390 . S
C117 C115 1.391 . S
C117 C121 1.387 . S
C117 C122 1.491 1_455 S
H118 C119 0.950 . S
C119 C116 1.390 . S
C119 H118 0.950 . S
C119 C120 1.378 . S
C120 C119 1.378 . S
C120 C121 1.409 . S
C121 C117 1.387 . S
C121 C120 1.409 . S
C121 H123 0.951 . S
C122 C117 1.491 1_655 S
C122 C124 1.382 1_655 S
C122 C126 1.403 . S
H123 C121 0.951 . S
C124 C122 1.382 1_455 S
C124 C125 1.390 . S
C124 H129 0.949 . S
C125 C124 1.390 . S
C125 C130 1.399 1_455 S
C126 C122 1.403 . S
C126 H127 0.950 . S
C126 C128 1.375 . S
H127 C126 0.950 . S
C128 C126 1.375 . S
C128 C130 1.382 . S
C128 H132 0.950 . S
H129 C124 0.949 . S
C130 C125 1.399 1_655 S
C130 C128 1.382 . S
C130 H131 0.952 . S
H131 C130 0.952 . S
H132 C128 0.950 . S
H133 C134 0.949 . S
C134 H133 0.949 . S
C134 C135 1.395 . S
C134 C136 1.391 . S
C135 C134 1.395 . S
C135 C138 1.389 1_545 S
C136 C134 1.391 . S
C136 C140 1.387 . S
C136 C141 1.491 . S
H137 C138 0.955 . S
C138 C135 1.389 1_565 S
C138 H137 0.955 . S
C138 C139 1.376 1_565 S
C139 C138 1.376 1_545 S
C139 C140 1.409 . S
C140 C136 1.387 . S
C140 C139 1.409 . S
C140 H142 0.951 . S
C141 C136 1.491 . S
C141 C143 1.382 . S
C141 C145 1.404 . S
H142 C140 0.951 . S
C143 C141 1.382 . S
C143 C144 1.390 . S
C143 H148 0.949 1_545 S
C144 C143 1.390 . S
C144 C149 1.399 . S
C145 C141 1.404 . S
C145 H146 0.950 . S
C145 C147 1.375 . S
H146 C145 0.950 . S
C147 C145 1.375 . S
C147 C149 1.382 . S
C147 H151 0.950 . S
H148 C143 0.949 1_565 S
C149 C144 1.399 . S
C149 C147 1.382 . S
C149 H150 0.952 . S
H150 C149 0.952 . S
H151 C147 0.950 . S
H152 C153 0.949 . S
C153 H152 0.949 . S
C153 C154 1.395 . S
C153 C155 1.391 . S
C154 C153 1.395 . S
C154 C157 1.390 . S
C155 C153 1.391 . S
C155 C159 1.387 . S
C155 C160 1.491 . S
H156 C157 0.950 . S
C157 C154 1.390 . S
C157 H156 0.950 . S
C157 C158 1.378 . S
C158 C157 1.378 . S
C158 C159 1.409 . S
C159 C155 1.387 . S
C159 C158 1.409 . S
C159 H161 0.951 . S
C160 C155 1.491 . S
C160 C162 1.382 . S
C160 C164 1.404 . S
H161 C159 0.951 . S
C162 C160 1.382 . S
C162 C163 1.390 . S
C162 H167 0.949 1_554 S
C163 C162 1.390 . S
C163 C168 1.399 . S
C164 C160 1.404 . S
C164 H165 0.950 . S
C164 C166 1.375 . S
H165 C164 0.950 . S
C166 C164 1.375 . S
C166 C168 1.382 . S
C166 H170 0.950 . S
H167 C162 0.949 1_556 S
C168 C163 1.399 . S
C168 C166 1.382 . S
C168 H169 0.952 . S
H169 C168 0.952 . S
H170 C166 0.950 . S
H171 C172 0.949 . S
C172 H171 0.949 . S
C172 C173 1.395 . S
C172 C174 1.393 . S
C173 C172 1.395 . S
C173 C176 1.390 . S
C174 C172 1.393 . S
C174 C178 1.389 . S
C174 C179 1.487 1_554 S
H175 C176 0.950 . S
C176 C173 1.390 . S
C176 H175 0.950 . S
C176 C177 1.378 . S
C177 C176 1.378 . S
C177 C178 1.409 . S
C178 C174 1.389 . S
C178 C177 1.409 . S
C178 H180 0.951 . S
C179 C174 1.487 1_556 S
C179 C181 1.382 1_556 S
C179 C183 1.404 . S
H180 C178 0.951 . S
C181 C179 1.382 1_554 S
C181 C182 1.386 1_554 S
C181 H186 0.949 . S
C182 C181 1.386 1_556 S
C182 C187 1.412 . S
C183 C179 1.404 . S
C183 H184 0.950 . S
C183 C185 1.375 . S
H184 C183 0.950 . S
C185 C183 1.375 . S
C185 C187 1.382 . S
C185 H189 0.950 . S
H186 C181 0.949 . S
C187 C182 1.412 . S
C187 C185 1.382 . S
C187 H188 0.952 . S
H188 C187 0.952 . S
H189 C185 0.950 . S
H190 C191 0.949 . S
C191 H190 0.949 . S
C191 C192 1.395 . S
C191 C193 1.391 . S
C192 C191 1.395 . S
C192 C195 1.390 . S
C193 C191 1.391 . S
C193 C197 1.387 . S
C193 C198 1.491 . S
H194 C195 0.950 . S
C195 C192 1.390 . S
C195 H194 0.950 . S
C195 C196 1.378 . S
C196 C195 1.378 . S
C196 C197 1.409 . S
C197 C193 1.387 . S
C197 C196 1.409 . S
C197 H199 0.951 . S
C198 C193 1.491 . S
C198 C200 1.382 . S
C198 C202 1.404 . S
H199 C197 0.951 . S
C200 C198 1.382 . S
C200 C201 1.390 . S
C200 H205 0.949 1_554 S
C201 C200 1.390 . S
C201 C206 1.399 . S
C202 C198 1.404 . S
C202 H203 0.950 . S
C202 C204 1.375 . S
H203 C202 0.950 . S
C204 C202 1.375 . S
C204 C206 1.382 . S
C204 H208 0.950 . S
H205 C200 0.949 1_556 S
C206 C201 1.399 . S
C206 C204 1.382 . S
C206 H207 0.952 . S
H207 C206 0.952 . S
H208 C204 0.950 . S
H209 C210 0.949 . S
C210 H209 0.949 . S
C210 C211 1.395 . S
C210 C212 1.392 . S
C211 C210 1.395 . S
C211 C214 1.390 . S
C212 C210 1.392 . S
C212 C216 1.388 . S
C212 C217 1.490 1_554 S
H213 C214 0.950 . S
C214 C211 1.390 . S
C214 H213 0.950 . S
C214 C215 1.378 . S
C215 C214 1.378 . S
C215 C216 1.409 . S
C216 C212 1.388 . S
C216 C215 1.409 . S
C216 H218 0.952 . S
C217 C212 1.490 1_556 S
C217 C219 1.382 1_556 S
C217 C221 1.404 . S
H218 C216 0.952 . S
C219 C217 1.382 1_554 S
C219 C220 1.390 . S
C219 H224 0.949 . S
C220 C219 1.390 . S
C220 C225 1.399 1_554 S
C221 C217 1.404 . S
C221 H222 0.950 . S
C221 C223 1.375 . S
H222 C221 0.950 . S
C223 C221 1.375 . S
C223 C225 1.382 . S
C223 H227 0.950 . S
H224 C219 0.949 . S
C225 C220 1.399 1_556 S
C225 C223 1.382 . S
C225 H226 0.952 . S
H226 C225 0.952 . S
H227 C223 0.950 . S
H228 C229 0.949 . S
C229 H228 0.949 . S
C229 C230 1.395 . S
C229 C231 1.391 . S
C230 C229 1.395 . S
C230 C233 1.390 . S
C231 C229 1.391 . S
C231 C235 1.387 . S
C231 C236 1.491 . S
H232 C233 0.950 . S
C233 C230 1.390 . S
C233 H232 0.950 . S
C233 C234 1.378 . S
C234 C233 1.378 . S
C234 C235 1.409 . S
C235 C231 1.387 . S
C235 C234 1.409 . S
C235 H237 0.951 . S
C236 C231 1.491 . S
C236 C238 1.382 . S
C236 C240 1.404 . S
H237 C235 0.951 . S
C238 C236 1.382 . S
C238 C239 1.390 . S
C238 H243 0.949 . S
C239 C238 1.390 . S
C239 C244 1.399 . S
C240 C236 1.404 . S
C240 H241 0.950 . S
C240 C242 1.375 . S
H241 C240 0.950 . S
C242 C240 1.375 . S
C242 C244 1.382 . S
C242 H246 0.950 . S
H243 C238 0.949 . S
C244 C239 1.399 . S
C244 C242 1.382 . S
C244 H245 0.952 . S
H245 C244 0.952 . S
H246 C242 0.950 . S
H247 C248 0.949 . S
C248 H247 0.949 . S
C248 C249 1.395 . S
C248 C250 1.391 . S
C249 C248 1.395 . S
C249 C252 1.390 . S
C250 C248 1.391 . S
C250 C254 1.387 . S
C250 C255 1.491 . S
H251 C252 0.950 . S
C252 C249 1.390 . S
C252 H251 0.950 . S
C252 C253 1.378 . S
C253 C252 1.378 . S
C253 C254 1.409 . S
C254 C250 1.387 . S
C254 C253 1.409 . S
C254 H256 0.951 . S
C255 C250 1.491 . S
C255 C257 1.382 . S
C255 C259 1.404 . S
H256 C254 0.951 . S
C257 C255 1.382 . S
C257 C258 1.390 . S
C257 H262 0.949 . S
C258 C257 1.390 . S
C258 C263 1.399 . S
C259 C255 1.404 . S
C259 H260 0.950 . S
C259 C261 1.375 . S
H260 C259 0.950 . S
C261 C259 1.375 . S
C261 C263 1.382 . S
C261 H265 0.950 . S
H262 C257 0.949 . S
C263 C258 1.399 . S
C263 C261 1.382 . S
C263 H264 0.952 . S
H264 C263 0.952 . S
H265 C261 0.950 . S
H266 C267 0.949 . S
C267 H266 0.949 . S
C267 C268 1.395 . S
C267 C269 1.391 . S
C268 C267 1.395 . S
C268 C271 1.390 . S
C269 C267 1.391 . S
C269 C273 1.387 . S
C269 C274 1.491 . S
H270 C271 0.950 . S
C271 C268 1.390 . S
C271 H270 0.950 . S
C271 C272 1.378 . S
C272 C271 1.378 . S
C272 C273 1.409 . S
C273 C269 1.387 . S
C273 C272 1.409 . S
C273 H275 0.951 . S
C274 C269 1.491 . S
C274 C276 1.382 . S
C274 C278 1.404 . S
H275 C273 0.951 . S
C276 C274 1.382 . S
C276 C277 1.390 . S
C276 H281 0.949 . S
C277 C276 1.390 . S
C277 C282 1.399 . S
C278 C274 1.404 . S
C278 H279 0.950 . S
C278 C280 1.375 . S
H279 C278 0.950 . S
C280 C278 1.375 . S
C280 C282 1.382 . S
C280 H284 0.950 . S
H281 C276 0.949 . S
C282 C277 1.399 . S
C282 C280 1.382 . S
C282 H283 0.952 . S
H283 C282 0.952 . S
H284 C280 0.950 . S
H285 C286 0.949 . S
C286 H285 0.949 . S
C286 C287 1.395 . S
C286 C288 1.391 . S
C287 C286 1.395 . S
C287 C290 1.390 . S
C288 C286 1.391 . S
C288 C292 1.387 . S
C288 C293 1.491 . S
H289 C290 0.950 . S
C290 C287 1.390 . S
C290 H289 0.950 . S
C290 C291 1.378 . S
C291 C290 1.378 . S
C291 C292 1.409 . S
C292 C288 1.387 . S
C292 C291 1.409 . S
C292 H294 0.951 . S
C293 C288 1.491 . S
C293 C295 1.382 . S
C293 C297 1.404 . S
H294 C292 0.951 . S
C295 C293 1.382 . S
C295 C296 1.390 . S
C295 H300 0.949 . S
C296 C295 1.390 . S
C296 C301 1.399 . S
C297 C293 1.404 . S
C297 H298 0.950 . S
C297 C299 1.375 . S
H298 C297 0.950 . S
C299 C297 1.375 . S
C299 C301 1.382 . S
C299 H303 0.950 . S
H300 C295 0.949 . S
C301 C296 1.399 . S
C301 C299 1.382 . S
C301 H302 0.952 . S
H302 C301 0.952 . S
H303 C299 0.950 . S
H304 C305 0.949 . S
C305 H304 0.949 . S
C305 C306 1.395 . S
C305 C307 1.391 . S
C306 C305 1.395 . S
C306 C309 1.390 . S
C307 C305 1.391 . S
C307 C311 1.387 . S
C307 C312 1.491 . S
H308 C309 0.950 . S
C309 C306 1.390 . S
C309 H308 0.950 . S
C309 C310 1.378 . S
C310 C309 1.378 . S
C310 C311 1.409 . S
C311 C307 1.387 . S
C311 C310 1.409 . S
C311 H313 0.951 . S
C312 C307 1.491 . S
C312 C314 1.382 . S
C312 C316 1.404 . S
H313 C311 0.951 . S
C314 C312 1.382 . S
C314 C315 1.390 . S
C314 H319 0.949 . S
C315 C314 1.390 . S
C315 C320 1.399 . S
C316 C312 1.404 . S
C316 H317 0.950 . S
C316 C318 1.375 . S
H317 C316 0.950 . S
C318 C316 1.375 . S
C318 C320 1.382 . S
C318 H322 0.950 . S
H319 C314 0.949 . S
C320 C315 1.399 . S
C320 C318 1.382 . S
C320 H321 0.952 . S
H321 C320 0.952 . S
H322 C318 0.950 . S
H323 C324 0.949 . S
C324 H323 0.949 . S
C324 C325 1.395 . S
C324 C326 1.391 . S
C325 C324 1.395 . S
C325 C328 1.390 . S
C326 C324 1.391 . S
C326 C330 1.387 . S
C326 C331 1.491 . S
H327 C328 0.950 . S
C328 C325 1.390 . S
C328 H327 0.950 . S
C328 C329 1.378 . S
C329 C328 1.378 . S
C329 C330 1.409 . S
C330 C326 1.387 . S
C330 C329 1.409 . S
C330 H332 0.951 . S
C331 C326 1.491 . S
C331 C333 1.382 . S
C331 C335 1.404 . S
H332 C330 0.951 . S
C333 C331 1.382 . S
C333 C334 1.390 . S
C333 H338 0.949 . S
C334 C333 1.390 . S
C334 C339 1.399 . S
C335 C331 1.404 . S
C335 H336 0.950 . S
C335 C337 1.375 . S
H336 C335 0.950 . S
C337 C335 1.375 . S
C337 C339 1.382 . S
C337 H341 0.950 . S
H338 C333 0.949 . S
C339 C334 1.399 . S
C339 C337 1.382 . S
C339 H340 0.952 . S
H340 C339 0.952 . S
H341 C337 0.950 . S
H342 C343 0.949 . S
C343 H342 0.949 . S
C343 C344 1.395 . S
C343 C345 1.391 . S
C344 C343 1.395 . S
C344 C347 1.390 . S
C345 C343 1.391 . S
C345 C349 1.387 . S
C345 C350 1.491 . S
H346 C347 0.950 . S
C347 C344 1.390 . S
C347 H346 0.950 . S
C347 C348 1.378 . S
C348 C347 1.378 . S
C348 C349 1.409 . S
C349 C345 1.387 . S
C349 C348 1.409 . S
C349 H351 0.951 . S
C350 C345 1.491 . S
C350 C352 1.382 . S
C350 C354 1.404 . S
H351 C349 0.951 . S
C352 C350 1.382 . S
C352 C353 1.390 . S
C352 H357 0.949 . S
C353 C352 1.390 . S
C353 C358 1.399 . S
C354 C350 1.404 . S
C354 H355 0.950 . S
C354 C356 1.375 . S
H355 C354 0.950 . S
C356 C354 1.375 . S
C356 C358 1.382 . S
C356 H360 0.950 . S
H357 C352 0.949 . S
C358 C353 1.399 . S
C358 C356 1.382 . S
C358 H359 0.952 . S
H359 C358 0.952 . S
H360 C356 0.950 . S
H361 C362 0.949 . S
C362 H361 0.949 . S
C362 C363 1.395 . S
C362 C364 1.391 . S
C363 C362 1.395 . S
C363 C366 1.390 . S
C364 C362 1.391 . S
C364 C368 1.387 . S
C364 C369 1.491 . S
H365 C366 0.950 . S
C366 C363 1.390 . S
C366 H365 0.950 . S
C366 C367 1.378 . S
C367 C366 1.378 . S
C367 C368 1.409 . S
C368 C364 1.387 . S
C368 C367 1.409 . S
C368 H370 0.951 . S
C369 C364 1.491 . S
C369 C371 1.382 . S
C369 C373 1.404 . S
H370 C368 0.951 . S
C371 C369 1.382 . S
C371 C372 1.390 . S
C371 H376 0.949 . S
C372 C371 1.390 . S
C372 C377 1.399 . S
C373 C369 1.404 . S
C373 H374 0.950 . S
C373 C375 1.375 . S
H374 C373 0.950 . S
C375 C373 1.375 . S
C375 C377 1.382 . S
C375 H379 0.950 . S
H376 C371 0.949 . S
C377 C372 1.399 . S
C377 C375 1.382 . S
C377 H378 0.952 . S
H378 C377 0.952 . S
H379 C375 0.950 . S
H380 C381 0.949 . S
C381 H380 0.949 . S
C381 C382 1.395 . S
C381 C383 1.391 . S
C382 C381 1.395 . S
C382 C385 1.390 . S
C383 C381 1.391 . S
C383 C387 1.387 . S
C383 C388 1.491 . S
H384 C385 0.950 . S
C385 C382 1.390 . S
C385 H384 0.950 . S
C385 C386 1.378 . S
C386 C385 1.378 . S
C386 C387 1.409 . S
C387 C383 1.387 . S
C387 C386 1.409 . S
C387 H389 0.951 . S
C388 C383 1.491 . S
C388 C390 1.382 . S
C388 C392 1.404 . S
H389 C387 0.951 . S
C390 C388 1.382 . S
C390 C391 1.390 . S
C390 H395 0.949 . S
C391 C390 1.390 . S
C391 C396 1.399 . S
C392 C388 1.404 . S
C392 H393 0.950 . S
C392 C394 1.375 . S
H393 C392 0.950 . S
C394 C392 1.375 . S
C394 C396 1.382 . S
C394 H398 0.950 . S
H395 C390 0.949 . S
C396 C391 1.399 . S
C396 C394 1.382 . S
C396 H397 0.952 . S
H397 C396 0.952 . S
H398 C394 0.950 . S
H399 C400 0.949 . S
C400 H399 0.949 . S
C400 C401 1.395 . S
C400 C402 1.391 . S
C401 C400 1.395 . S
C401 C404 1.390 . S
C402 C400 1.391 . S
C402 C406 1.387 . S
C402 C407 1.491 . S
H403 C404 0.950 . S
C404 C401 1.390 . S
C404 H403 0.950 . S
C404 C405 1.378 . S
C405 C404 1.378 . S
C405 C406 1.409 . S
C406 C402 1.387 . S
C406 C405 1.409 . S
C406 H408 0.951 . S
C407 C402 1.491 . S
C407 C409 1.382 . S
C407 C411 1.404 . S
H408 C406 0.951 . S
C409 C407 1.382 . S
C409 C410 1.390 . S
C409 H414 0.949 . S
C410 C409 1.390 . S
C410 C415 1.399 . S
C411 C407 1.404 . S
C411 H412 0.950 . S
C411 C413 1.375 . S
H412 C411 0.950 . S
C413 C411 1.375 . S
C413 C415 1.382 . S
C413 H417 0.950 . S
H414 C409 0.949 . S
C415 C410 1.399 . S
C415 C413 1.382 . S
C415 H416 0.952 . S
H416 C415 0.952 . S
H417 C413 0.950 . S
H418 C419 0.949 . S
C419 H418 0.949 . S
C419 C420 1.395 . S
C419 C421 1.391 . S
C420 C419 1.395 . S
C420 C423 1.390 . S
C421 C419 1.391 . S
C421 C425 1.387 . S
C421 C426 1.491 . S
H422 C423 0.950 . S
C423 C420 1.390 . S
C423 H422 0.950 . S
C423 C424 1.378 . S
C424 C423 1.378 . S
C424 C425 1.409 . S
C425 C421 1.387 . S
C425 C424 1.409 . S
C425 H427 0.951 . S
C426 C421 1.491 . S
C426 C428 1.382 . S
C426 C430 1.404 . S
H427 C425 0.951 . S
C428 C426 1.382 . S
C428 C429 1.390 . S
C428 H433 0.949 . S
C429 C428 1.390 . S
C429 C434 1.399 . S
C430 C426 1.404 . S
C430 H431 0.950 . S
C430 C432 1.375 . S
H431 C430 0.950 . S
C432 C430 1.375 . S
C432 C434 1.382 . S
C432 H436 0.950 . S
H433 C428 0.949 . S
C434 C429 1.399 . S
C434 C432 1.382 . S
C434 H435 0.952 . S
H435 C434 0.952 . S
H436 C432 0.950 . S
H437 C438 0.949 . S
C438 H437 0.949 . S
C438 C439 1.395 . S
C438 C440 1.391 . S
C439 C438 1.395 . S
C439 C442 1.390 . S
C440 C438 1.391 . S
C440 C444 1.387 . S
C440 C445 1.491 . S
H441 C442 0.950 . S
C442 C439 1.390 . S
C442 H441 0.950 . S
C442 C443 1.378 . S
C443 C442 1.378 . S
C443 C444 1.409 . S
C444 C440 1.387 . S
C444 C443 1.409 . S
C444 H446 0.951 . S
C445 C440 1.491 . S
C445 C447 1.382 . S
C445 C449 1.404 . S
H446 C444 0.951 . S
C447 C445 1.382 . S
C447 C448 1.390 . S
C447 H452 0.949 . S
C448 C447 1.390 . S
C448 C453 1.399 . S
C449 C445 1.404 . S
C449 H450 0.950 . S
C449 C451 1.375 . S
H450 C449 0.950 . S
C451 C449 1.375 . S
C451 C453 1.382 . S
C451 H455 0.950 . S
H452 C447 0.949 . S
C453 C448 1.399 . S
C453 C451 1.382 . S
C453 H454 0.952 . S
H454 C453 0.952 . S
H455 C451 0.950 . S
C456 O482 1.283 . S
C456 O500 1.283 . S
C457 O483 1.283 . S
C457 O498 1.283 . S
C458 O484 1.283 . S
C458 O501 1.283 . S
C459 O485 1.283 . S
C459 O499 1.283 . S
C460 O486 1.283 . S
C460 O495 1.283 . S
C461 O487 1.283 . S
C461 O497 1.283 . S
C462 O488 1.283 . S
C462 O494 1.283 . S
C463 O489 1.283 . S
C463 O496 1.283 . S
C464 O490 1.283 . S
C464 O505 1.283 . S
C465 O491 1.283 . S
C465 O503 1.283 . S
C466 O492 1.283 . S
C466 O504 1.283 . S
C467 O493 1.283 . S
C467 O502 1.283 . S
Eu468 O469 2.370 1_455 S
Eu468 O470 2.370 . S
Eu468 O473 2.370 1_455 S
Eu468 O474 2.370 . S
Eu468 O482 2.363 . S
Eu468 O483 2.363 . S
Eu468 O496 2.363 . S
Eu468 O497 2.363 1_455 S
O469 Eu468 2.370 1_655 S
O469 Eu471 2.359 1_565 S
O469 Eu476 2.360 1_665 S
O470 Eu468 2.370 . S
O470 Eu472 2.359 1_565 S
O470 Eu475 2.357 1_565 S
Eu471 O469 2.359 1_545 S
Eu471 O473 2.359 1_545 S
Eu471 O477 2.382 . S
Eu471 O478 2.382 . S
Eu471 O486 2.382 . S
Eu471 O487 2.344 1_545 S
Eu471 O502 2.363 . S
Eu471 O503 2.363 . S
Eu472 O470 2.359 1_545 S
Eu472 O474 2.359 1_545 S
Eu472 O479 2.381 . S
Eu472 O480 2.381 . S
Eu472 O488 2.382 . S
Eu472 O489 2.344 1_545 S
Eu472 O504 2.363 . S
Eu472 O505 2.363 . S
O473 Eu468 2.370 1_655 S
O473 Eu471 2.359 1_565 S
O473 Eu475 2.357 1_665 S
O474 Eu468 2.370 . S
O474 Eu472 2.359 1_565 S
O474 Eu476 2.360 1_565 S
Eu475 O470 2.357 1_545 S
Eu475 O473 2.357 1_445 S
Eu475 O477 2.383 1_455 S
Eu475 O480 2.383 . S
Eu475 O492 2.363 . S
Eu475 O493 2.363 1_455 S
Eu475 O500 2.341 1_545 S
Eu475 O501 2.385 . S
Eu476 O469 2.360 1_445 S
Eu476 O474 2.360 1_545 S
Eu476 O478 2.380 1_455 S
Eu476 O479 2.380 . S
Eu476 O490 2.363 . S
Eu476 O491 2.363 1_455 S
Eu476 O498 2.346 1_545 S
Eu476 O499 2.380 . S
O477 Eu471 2.382 . S
O477 Eu475 2.383 1_655 S
O477 Eu481 2.370 1_655 S
O478 Eu471 2.382 . S
O478 Eu476 2.380 1_655 S
O478 Eu481 2.370 1_655 S
O479 Eu472 2.381 . S
O479 Eu476 2.380 . S
O479 Eu481 2.370 . S
O480 Eu472 2.381 . S
O480 Eu475 2.383 . S
O480 Eu481 2.370 . S
Eu481 O477 2.370 1_455 S
Eu481 O478 2.370 1_455 S
Eu481 O479 2.370 . S
Eu481 O480 2.370 . S
Eu481 O484 2.363 . S
Eu481 O485 2.363 . S
Eu481 O494 2.363 . S
Eu481 O495 2.363 1_455 S
O482 C456 1.283 . S
O482 Eu468 2.363 . S
O483 C457 1.283 . S
O483 Eu468 2.363 . S
O484 C458 1.283 . S
O484 Eu481 2.363 . S
O485 C459 1.283 . S
O485 Eu481 2.363 . S
O486 C460 1.283 . S
O486 Eu471 2.382 . S
O487 C461 1.283 . S
O487 Eu471 2.344 1_565 S
O488 C462 1.283 . S
O488 Eu472 2.382 . S
O489 C463 1.283 . S
O489 Eu472 2.344 1_565 S
O490 C464 1.283 . S
O490 Eu476 2.363 . S
O491 C465 1.283 . S
O491 Eu476 2.363 1_655 S
O492 C466 1.283 . S
O492 Eu475 2.363 . S
O493 C467 1.283 . S
O493 Eu475 2.363 1_655 S
O494 C462 1.283 . S
O494 Eu481 2.363 . S
O495 C460 1.283 . S
O495 Eu481 2.363 1_655 S
O496 C463 1.283 . S
O496 Eu468 2.363 . S
O497 C461 1.283 . S
O497 Eu468 2.363 1_655 S
O498 C457 1.283 . S
O498 Eu476 2.346 1_565 S
O499 C459 1.283 . S
O499 Eu476 2.380 . S
O500 C456 1.283 . S
O500 Eu475 2.341 1_565 S
O501 C458 1.283 . S
O501 Eu475 2.385 . S
O502 C467 1.283 . S
O502 Eu471 2.363 . S
O503 C465 1.283 . S
O503 Eu471 2.363 . S
O504 C466 1.283 . S
O504 Eu472 2.363 . S
O505 C464 1.283 . S
O505 Eu472 2.363 . S
C506 O532 1.283 . S
C506 O550 1.283 . S
C507 O533 1.283 . S
C507 O548 1.283 . S
C508 O534 1.283 . S
C508 O551 1.283 . S
C509 O535 1.283 . S
C509 O549 1.283 . S
C510 O536 1.283 . S
C510 O545 1.283 . S
C511 O537 1.283 . S
C511 O547 1.283 . S
C512 O538 1.283 . S
C512 O544 1.283 . S
C513 O539 1.283 . S
C513 O546 1.283 . S
C514 O540 1.283 . S
C514 O555 1.283 . S
C515 O541 1.283 . S
C515 O553 1.283 . S
C516 O542 1.283 . S
C516 O554 1.283 . S
C517 O543 1.283 . S
C517 O552 1.283 . S
Eu518 O519 2.379 . S
Eu518 O520 2.361 1_545 S
Eu518 O523 2.361 1_545 S
Eu518 O524 2.379 . S
Eu518 O532 2.348 1_545 S
Eu518 O533 2.378 . S
Eu518 O546 2.363 . S
Eu518 O547 2.363 . S
O519 Eu518 2.379 . S
O519 Eu521 2.381 . S
O519 Eu526 2.370 . S
O520 Eu518 2.361 1_565 S
O520 Eu522 2.359 1_565 S
O520 Eu525 2.370 . S
Eu521 O519 2.381 . S
Eu521 O523 2.359 1_545 S
Eu521 O527 2.359 1_544 S
Eu521 O528 2.381 1_554 S
Eu521 O536 2.363 1_554 S
Eu521 O537 2.363 . S
Eu521 O552 2.345 1_545 S
Eu521 O553 2.381 . S
Eu522 O520 2.359 1_545 S
Eu522 O524 2.381 . S
Eu522 O529 2.381 1_554 S
Eu522 O530 2.359 1_544 S
Eu522 O538 2.363 1_554 S
Eu522 O539 2.363 . S
Eu522 O554 2.344 1_545 S
Eu522 O555 2.382 . S
O523 Eu518 2.361 1_565 S
O523 Eu521 2.359 1_565 S
O523 Eu525 2.370 . S
O524 Eu518 2.379 . S
O524 Eu522 2.381 . S
O524 Eu526 2.370 . S
Eu525 O520 2.370 . S
Eu525 O523 2.370 . S
Eu525 O527 2.370 1_554 S
Eu525 O530 2.370 1_554 S
Eu525 O542 2.363 . S
Eu525 O543 2.363 . S
Eu525 O550 2.363 . S
Eu525 O551 2.363 1_554 S
Eu526 O519 2.370 . S
Eu526 O524 2.370 . S
Eu526 O528 2.370 1_554 S
Eu526 O529 2.370 1_554 S
Eu526 O540 2.363 . S
Eu526 O541 2.363 . S
Eu526 O548 2.363 . S
Eu526 O549 2.363 1_554 S
O527 Eu521 2.359 1_566 S
O527 Eu525 2.370 1_556 S
O527 Eu531 2.357 1_565 S
O528 Eu521 2.381 1_556 S
O528 Eu526 2.370 1_556 S
O528 Eu531 2.383 . S
O529 Eu522 2.381 1_556 S
O529 Eu526 2.370 1_556 S
O529 Eu531 2.383 . S
O530 Eu522 2.359 1_566 S
O530 Eu525 2.370 1_556 S
O530 Eu531 2.357 1_565 S
Eu531 O527 2.357 1_545 S
Eu531 O528 2.383 . S
Eu531 O529 2.383 . S
Eu531 O530 2.357 1_545 S
Eu531 O534 2.341 1_545 S
Eu531 O535 2.385 . S
Eu531 O544 2.363 . S
Eu531 O545 2.363 . S
O532 C506 1.283 . S
O532 Eu518 2.348 1_565 S
O533 C507 1.283 . S
O533 Eu518 2.378 . S
O534 C508 1.283 . S
O534 Eu531 2.341 1_565 S
O535 C509 1.283 . S
O535 Eu531 2.385 . S
O536 C510 1.283 . S
O536 Eu521 2.363 1_556 S
O537 C511 1.283 . S
O537 Eu521 2.363 . S
O538 C512 1.283 . S
O538 Eu522 2.363 1_556 S
O539 C513 1.283 . S
O539 Eu522 2.363 . S
O540 C514 1.283 . S
O540 Eu526 2.363 . S
O541 C515 1.283 . S
O541 Eu526 2.363 . S
O542 C516 1.283 . S
O542 Eu525 2.363 . S
O543 C517 1.283 . S
O543 Eu525 2.363 . S
O544 C512 1.283 . S
O544 Eu531 2.363 . S
O545 C510 1.283 . S
O545 Eu531 2.363 . S
O546 C513 1.283 . S
O546 Eu518 2.363 . S
O547 C511 1.283 . S
O547 Eu518 2.363 . S
O548 C507 1.283 . S
O548 Eu526 2.363 . S
O549 C509 1.283 . S
O549 Eu526 2.363 1_556 S
O550 C506 1.283 . S
O550 Eu525 2.363 . S
O551 C508 1.283 . S
O551 Eu525 2.363 1_556 S
O552 C517 1.283 . S
O552 Eu521 2.345 1_565 S
O553 C515 1.283 . S
O553 Eu521 2.381 . S
O554 C516 1.283 . S
O554 Eu522 2.344 1_565 S
O555 C514 1.283 . S
O555 Eu522 2.382 . S
C556 O582 1.283 . S
C556 O600 1.283 . S
C557 O583 1.283 . S
C557 O598 1.283 . S
C558 O584 1.283 . S
C558 O601 1.283 . S
C559 O585 1.283 . S
C559 O599 1.283 . S
C560 O586 1.283 . S
C560 O595 1.283 . S
C561 O587 1.283 . S
C561 O597 1.283 . S
C562 O588 1.283 . S
C562 O594 1.283 . S
C563 O589 1.283 . S
C563 O596 1.283 . S
C564 O590 1.283 . S
C564 O605 1.283 . S
C565 O591 1.283 . S
C565 O603 1.283 . S
C566 O592 1.283 . S
C566 O604 1.283 . S
C567 O593 1.283 . S
C567 O602 1.283 . S
Eu568 O569 2.370 1_454 S
Eu568 O570 2.370 . S
Eu568 O573 2.370 1_455 S
Eu568 O574 2.370 1_554 S
Eu568 O582 2.363 . S
Eu568 O583 2.363 1_554 S
Eu568 O596 2.363 . S
Eu568 O597 2.363 1_455 S
O569 Eu568 2.370 1_656 S
O569 Eu571 2.370 1_556 S
O569 Eu576 2.370 1_655 S
O570 Eu568 2.370 . S
O570 Eu572 2.370 . S
O570 Eu575 2.370 . S
Eu571 O569 2.370 1_554 S
Eu571 O573 2.370 . S
Eu571 O577 2.370 . S
Eu571 O578 2.370 1_554 S
Eu571 O586 2.363 . S
Eu571 O587 2.363 . S
Eu571 O602 2.363 . S
Eu571 O603 2.363 1_554 S
Eu572 O570 2.370 . S
Eu572 O574 2.370 1_554 S
Eu572 O579 2.370 1_554 S
Eu572 O580 2.370 . S
Eu572 O588 2.363 . S
Eu572 O589 2.363 . S
Eu572 O604 2.363 . S
Eu572 O605 2.363 1_554 S
O573 Eu568 2.370 1_655 S
O573 Eu571 2.370 . S
O573 Eu575 2.370 1_655 S
O574 Eu568 2.370 1_556 S
O574 Eu572 2.370 1_556 S
O574 Eu576 2.370 . S
Eu575 O570 2.370 . S
Eu575 O573 2.370 1_455 S
Eu575 O577 2.370 1_455 S
Eu575 O580 2.370 . S
Eu575 O592 2.363 . S
Eu575 O593 2.363 1_455 S
Eu575 O600 2.363 . S
Eu575 O601 2.363 . S
Eu576 O569 2.370 1_455 S
Eu576 O574 2.370 . S
Eu576 O578 2.370 1_455 S
Eu576 O579 2.370 . S
Eu576 O590 2.363 . S
Eu576 O591 2.363 1_455 S
Eu576 O598 2.363 . S
Eu576 O599 2.363 . S
O577 Eu571 2.370 . S
O577 Eu575 2.370 1_655 S
O577 Eu581 2.370 1_655 S
O578 Eu571 2.370 1_556 S
O578 Eu576 2.370 1_655 S
O578 Eu581 2.370 1_656 S
O579 Eu572 2.370 1_556 S
O579 Eu576 2.370 . S
O579 Eu581 2.370 1_556 S
O580 Eu572 2.370 . S
O580 Eu575 2.370 . S
O580 Eu581 2.370 . S
Eu581 O577 2.370 1_455 S
Eu581 O578 2.370 1_454 S
Eu581 O579 2.370 1_554 S
Eu581 O580 2.370 . S
Eu581 O584 2.363 . S
Eu581 O585 2.363 1_554 S
Eu581 O594 2.363 . S
Eu581 O595 2.363 1_455 S
O582 C556 1.283 . S
O582 Eu568 2.363 . S
O583 C557 1.283 . S
O583 Eu568 2.363 1_556 S
O584 C558 1.283 . S
O584 Eu581 2.363 . S
O585 C559 1.283 . S
O585 Eu581 2.363 1_556 S
O586 C560 1.283 . S
O586 Eu571 2.363 . S
O587 C561 1.283 . S
O587 Eu571 2.363 . S
O588 C562 1.283 . S
O588 Eu572 2.363 . S
O589 C563 1.283 . S
O589 Eu572 2.363 . S
O590 C564 1.283 . S
O590 Eu576 2.363 . S
O591 C565 1.283 . S
O591 Eu576 2.363 1_655 S
O592 C566 1.283 . S
O592 Eu575 2.363 . S
O593 C567 1.283 . S
O593 Eu575 2.363 1_655 S
O594 C562 1.283 . S
O594 Eu581 2.363 . S
O595 C560 1.283 . S
O595 Eu581 2.363 1_655 S
O596 C563 1.283 . S
O596 Eu568 2.363 . S
O597 C561 1.283 . S
O597 Eu568 2.363 1_655 S
O598 C557 1.283 . S
O598 Eu576 2.363 . S
O599 C559 1.283 . S
O599 Eu576 2.363 . S
O600 C556 1.283 . S
O600 Eu575 2.363 . S
O601 C558 1.283 . S
O601 Eu575 2.363 . S
O602 C567 1.283 . S
O602 Eu571 2.363 . S
O603 C565 1.283 . S
O603 Eu571 2.363 1_556 S
O604 C566 1.283 . S
O604 Eu572 2.363 . S
O605 C564 1.283 . S
O605 Eu572 2.363 1_556 S
C606 O632 1.283 . S
C606 O650 1.283 . S
C607 O633 1.283 . S
C607 O648 1.283 . S
C608 O634 1.283 . S
C608 O651 1.283 . S
C609 O635 1.283 . S
C609 O649 1.283 . S
C610 O636 1.283 . S
C610 O645 1.283 . S
C611 O637 1.283 . S
C611 O647 1.283 . S
C612 O638 1.283 . S
C612 O644 1.283 . S
C613 O639 1.283 . S
C613 O646 1.283 . S
C614 O640 1.283 . S
C614 O655 1.283 . S
C615 O641 1.283 . S
C615 O653 1.283 . S
C616 O642 1.283 . S
C616 O654 1.283 . S
C617 O643 1.283 . S
C617 O652 1.283 . S
Eu618 O619 2.370 . S
Eu618 O620 2.370 . S
Eu618 O623 2.370 . S
Eu618 O624 2.370 . S
Eu618 O632 2.363 . S
Eu618 O633 2.363 . S
Eu618 O646 2.363 . S
Eu618 O647 2.363 . S
O619 Eu618 2.370 . S
O619 Eu621 2.370 . S
O619 Eu626 2.370 . S
O620 Eu618 2.370 . S
O620 Eu622 2.370 . S
O620 Eu625 2.370 . S
Eu621 O619 2.370 . S
Eu621 O623 2.370 . S
Eu621 O627 2.370 1_554 S
Eu621 O628 2.370 1_554 S
Eu621 O636 2.363 1_554 S
Eu621 O637 2.363 . S
Eu621 O652 2.363 . S
Eu621 O653 2.363 . S
Eu622 O620 2.370 . S
Eu622 O624 2.370 . S
Eu622 O629 2.370 1_554 S
Eu622 O630 2.370 1_554 S
Eu622 O638 2.363 1_554 S
Eu622 O639 2.363 . S
Eu622 O654 2.363 . S
Eu622 O655 2.363 . S
O623 Eu618 2.370 . S
O623 Eu621 2.370 . S
O623 Eu625 2.370 . S
O624 Eu618 2.370 . S
O624 Eu622 2.370 . S
O624 Eu626 2.370 . S
Eu625 O620 2.370 . S
Eu625 O623 2.370 . S
Eu625 O627 2.370 1_554 S
Eu625 O630 2.370 1_554 S
Eu625 O642 2.363 . S
Eu625 O643 2.363 . S
Eu625 O650 2.363 . S
Eu625 O651 2.363 1_554 S
Eu626 O619 2.370 . S
Eu626 O624 2.370 . S
Eu626 O628 2.370 1_554 S
Eu626 O629 2.370 1_554 S
Eu626 O640 2.363 . S
Eu626 O641 2.363 . S
Eu626 O648 2.363 . S
Eu626 O649 2.363 1_554 S
O627 Eu621 2.370 1_556 S
O627 Eu625 2.370 1_556 S
O627 Eu631 2.370 . S
O628 Eu621 2.370 1_556 S
O628 Eu626 2.370 1_556 S
O628 Eu631 2.370 . S
O629 Eu622 2.370 1_556 S
O629 Eu626 2.370 1_556 S
O629 Eu631 2.370 . S
O630 Eu622 2.370 1_556 S
O630 Eu625 2.370 1_556 S
O630 Eu631 2.370 . S
Eu631 O627 2.370 . S
Eu631 O628 2.370 . S
Eu631 O629 2.370 . S
Eu631 O630 2.370 . S
Eu631 O634 2.363 . S
Eu631 O635 2.363 . S
Eu631 O644 2.363 . S
Eu631 O645 2.363 . S
O632 C606 1.283 . S
O632 Eu618 2.363 . S
O633 C607 1.283 . S
O633 Eu618 2.363 . S
O634 C608 1.283 . S
O634 Eu631 2.363 . S
O635 C609 1.283 . S
O635 Eu631 2.363 . S
O636 C610 1.283 . S
O636 Eu621 2.363 1_556 S
O637 C611 1.283 . S
O637 Eu621 2.363 . S
O638 C612 1.283 . S
O638 Eu622 2.363 1_556 S
O639 C613 1.283 . S
O639 Eu622 2.363 . S
O640 C614 1.283 . S
O640 Eu626 2.363 . S
O641 C615 1.283 . S
O641 Eu626 2.363 . S
O642 C616 1.283 . S
O642 Eu625 2.363 . S
O643 C617 1.283 . S
O643 Eu625 2.363 . S
O644 C612 1.283 . S
O644 Eu631 2.363 . S
O645 C610 1.283 . S
O645 Eu631 2.363 . S
O646 C613 1.283 . S
O646 Eu618 2.363 . S
O647 C611 1.283 . S
O647 Eu618 2.363 . S
O648 C607 1.283 . S
O648 Eu626 2.363 . S
O649 C609 1.283 . S
O649 Eu626 2.363 1_556 S
O650 C606 1.283 . S
O650 Eu625 2.363 . S
O651 C608 1.283 . S
O651 Eu625 2.363 1_556 S
O652 C617 1.283 . S
O652 Eu621 2.363 . S
O653 C615 1.283 . S
O653 Eu621 2.363 . S
O654 C616 1.283 . S
O654 Eu622 2.363 . S
O655 C614 1.283 . S
O655 Eu622 2.363 . S
C656 O682 1.283 . S
C656 O700 1.283 . S
C657 O683 1.283 . S
C657 O698 1.283 . S
C658 O684 1.283 . S
C658 O701 1.283 . S
C659 O685 1.283 . S
C659 O699 1.283 . S
C660 O686 1.283 . S
C660 O695 1.283 . S
C661 O687 1.283 . S
C661 O697 1.283 . S
C662 O688 1.283 . S
C662 O694 1.283 . S
C663 O689 1.283 . S
C663 O696 1.283 . S
C664 O690 1.283 . S
C664 O705 1.283 . S
C665 O691 1.283 . S
C665 O703 1.283 . S
C666 O692 1.283 . S
C666 O704 1.283 . S
C667 O693 1.283 . S
C667 O702 1.283 . S
Eu668 O669 2.370 1_455 S
Eu668 O670 2.370 . S
Eu668 O673 2.370 1_455 S
Eu668 O674 2.370 . S
Eu668 O682 2.363 . S
Eu668 O683 2.363 . S
Eu668 O696 2.363 . S
Eu668 O697 2.363 1_455 S
O669 Eu668 2.370 1_655 S
O669 Eu671 2.370 . S
O669 Eu676 2.370 1_655 S
O670 Eu668 2.370 . S
O670 Eu672 2.370 . S
O670 Eu675 2.370 . S
Eu671 O669 2.370 . S
Eu671 O673 2.370 . S
Eu671 O677 2.370 . S
Eu671 O678 2.370 . S
Eu671 O686 2.363 . S
Eu671 O687 2.363 . S
Eu671 O702 2.363 . S
Eu671 O703 2.363 . S
Eu672 O670 2.370 . S
Eu672 O674 2.370 . S
Eu672 O679 2.370 . S
Eu672 O680 2.370 . S
Eu672 O688 2.363 . S
Eu672 O689 2.363 . S
Eu672 O704 2.363 . S
Eu672 O705 2.363 . S
O673 Eu668 2.370 1_655 S
O673 Eu671 2.370 . S
O673 Eu675 2.370 1_655 S
O674 Eu668 2.370 . S
O674 Eu672 2.370 . S
O674 Eu676 2.370 . S
Eu675 O670 2.370 . S
Eu675 O673 2.370 1_455 S
Eu675 O677 2.370 1_455 S
Eu675 O680 2.370 . S
Eu675 O692 2.363 . S
Eu675 O693 2.363 1_455 S
Eu675 O700 2.363 . S
Eu675 O701 2.363 . S
Eu676 O669 2.370 1_455 S
Eu676 O674 2.370 . S
Eu676 O678 2.370 1_455 S
Eu676 O679 2.370 . S
Eu676 O690 2.363 . S
Eu676 O691 2.363 1_455 S
Eu676 O698 2.363 . S
Eu676 O699 2.363 . S
O677 Eu671 2.370 . S
O677 Eu675 2.370 1_655 S
O677 Eu681 2.370 1_655 S
O678 Eu671 2.370 . S
O678 Eu676 2.370 1_655 S
O678 Eu681 2.370 1_655 S
O679 Eu672 2.370 . S
O679 Eu676 2.370 . S
O679 Eu681 2.370 . S
O680 Eu672 2.370 . S
O680 Eu675 2.370 . S
O680 Eu681 2.370 . S
Eu681 O677 2.370 1_455 S
Eu681 O678 2.370 1_455 S
Eu681 O679 2.370 . S
Eu681 O680 2.370 . S
Eu681 O684 2.363 . S
Eu681 O685 2.363 . S
Eu681 O694 2.363 . S
Eu681 O695 2.363 1_455 S
O682 C656 1.283 . S
O682 Eu668 2.363 . S
O683 C657 1.283 . S
O683 Eu668 2.363 . S
O684 C658 1.283 . S
O684 Eu681 2.363 . S
O685 C659 1.283 . S
O685 Eu681 2.363 . S
O686 C660 1.283 . S
O686 Eu671 2.363 . S
O687 C661 1.283 . S
O687 Eu671 2.363 . S
O688 C662 1.283 . S
O688 Eu672 2.363 . S
O689 C663 1.283 . S
O689 Eu672 2.363 . S
O690 C664 1.283 . S
O690 Eu676 2.363 . S
O691 C665 1.283 . S
O691 Eu676 2.363 1_655 S
O692 C666 1.283 . S
O692 Eu675 2.363 . S
O693 C667 1.283 . S
O693 Eu675 2.363 1_655 S
O694 C662 1.283 . S
O694 Eu681 2.363 . S
O695 C660 1.283 . S
O695 Eu681 2.363 1_655 S
O696 C663 1.283 . S
O696 Eu668 2.363 . S
O697 C661 1.283 . S
O697 Eu668 2.363 1_655 S
O698 C657 1.283 . S
O698 Eu676 2.363 . S
O699 C659 1.283 . S
O699 Eu676 2.363 . S
O700 C656 1.283 . S
O700 Eu675 2.363 . S
O701 C658 1.283 . S
O701 Eu675 2.363 . S
O702 C667 1.283 . S
O702 Eu671 2.363 . S
O703 C665 1.283 . S
O703 Eu671 2.363 . S
O704 C666 1.283 . S
O704 Eu672 2.363 . S
O705 C664 1.283 . S
O705 Eu672 2.363 . S
C706 O732 1.283 . S
C706 O750 1.283 . S
C707 O733 1.283 . S
C707 O748 1.283 . S
C708 O734 1.283 . S
C708 O751 1.283 . S
C709 O735 1.283 . S
C709 O749 1.283 . S
C710 O736 1.283 . S
C710 O745 1.283 . S
C711 O737 1.283 . S
C711 O747 1.283 . S
C712 O738 1.283 . S
C712 O744 1.283 . S
C713 O739 1.283 . S
C713 O746 1.283 . S
C714 O740 1.283 . S
C714 O755 1.283 . S
C715 O741 1.283 . S
C715 O753 1.283 . S
C716 O742 1.283 . S
C716 O754 1.283 . S
C717 O743 1.283 . S
C717 O752 1.283 . S
Eu718 O719 2.370 . S
Eu718 O720 2.370 . S
Eu718 O723 2.370 . S
Eu718 O724 2.370 . S
Eu718 O732 2.363 . S
Eu718 O733 2.363 . S
Eu718 O746 2.363 . S
Eu718 O747 2.363 . S
O719 Eu718 2.370 . S
O719 Eu721 2.358 1_565 S
O719 Eu726 2.360 1_565 S
O720 Eu718 2.370 . S
O720 Eu722 2.358 1_565 S
O720 Eu725 2.357 1_565 S
Eu721 O719 2.358 1_545 S
Eu721 O723 2.358 1_545 S
Eu721 O727 2.382 . S
Eu721 O728 2.382 . S
Eu721 O736 2.383 . S
Eu721 O737 2.343 1_545 S
Eu721 O752 2.363 . S
Eu721 O753 2.363 . S
Eu722 O720 2.358 1_545 S
Eu722 O724 2.358 1_545 S
Eu722 O729 2.382 . S
Eu722 O730 2.382 . S
Eu722 O738 2.383 . S
Eu722 O739 2.343 1_545 S
Eu722 O754 2.363 . S
Eu722 O755 2.363 . S
O723 Eu718 2.370 . S
O723 Eu721 2.358 1_565 S
O723 Eu725 2.357 1_565 S
O724 Eu718 2.370 . S
O724 Eu722 2.358 1_565 S
O724 Eu726 2.360 1_565 S
Eu725 O720 2.357 1_545 S
Eu725 O723 2.357 1_545 S
Eu725 O727 2.383 . S
Eu725 O730 2.383 . S
Eu725 O742 2.363 . S
Eu725 O743 2.363 . S
Eu725 O750 2.340 1_545 S
Eu725 O751 2.385 . S
Eu726 O719 2.360 1_545 S
Eu726 O724 2.360 1_545 S
Eu726 O728 2.380 . S
Eu726 O729 2.380 . S
Eu726 O740 2.363 . S
Eu726 O741 2.363 . S
Eu726 O748 2.346 1_545 S
Eu726 O749 2.380 . S
O727 Eu721 2.382 . S
O727 Eu725 2.383 . S
O727 Eu731 2.370 . S
O728 Eu721 2.382 . S
O728 Eu726 2.380 . S
O728 Eu731 2.370 . S
O729 Eu722 2.382 . S
O729 Eu726 2.380 . S
O729 Eu731 2.370 . S
O730 Eu722 2.382 . S
O730 Eu725 2.383 . S
O730 Eu731 2.370 . S
Eu731 O727 2.370 . S
Eu731 O728 2.370 . S
Eu731 O729 2.370 . S
Eu731 O730 2.370 . S
Eu731 O734 2.363 . S
Eu731 O735 2.363 . S
Eu731 O744 2.363 . S
Eu731 O745 2.363 . S
O732 C706 1.283 . S
O732 Eu718 2.363 . S
O733 C707 1.283 . S
O733 Eu718 2.363 . S
O734 C708 1.283 . S
O734 Eu731 2.363 . S
O735 C709 1.283 . S
O735 Eu731 2.363 . S
O736 C710 1.283 . S
O736 Eu721 2.383 . S
O737 C711 1.283 . S
O737 Eu721 2.343 1_565 S
O738 C712 1.283 . S
O738 Eu722 2.383 . S
O739 C713 1.283 . S
O739 Eu722 2.343 1_565 S
O740 C714 1.283 . S
O740 Eu726 2.363 . S
O741 C715 1.283 . S
O741 Eu726 2.363 . S
O742 C716 1.283 . S
O742 Eu725 2.363 . S
O743 C717 1.283 . S
O743 Eu725 2.363 . S
O744 C712 1.283 . S
O744 Eu731 2.363 . S
O745 C710 1.283 . S
O745 Eu731 2.363 . S
O746 C713 1.283 . S
O746 Eu718 2.363 . S
O747 C711 1.283 . S
O747 Eu718 2.363 . S
O748 C707 1.283 . S
O748 Eu726 2.346 1_565 S
O749 C709 1.283 . S
O749 Eu726 2.380 . S
O750 C706 1.283 . S
O750 Eu725 2.340 1_565 S
O751 C708 1.283 . S
O751 Eu725 2.385 . S
O752 C717 1.283 . S
O752 Eu721 2.363 . S
O753 C715 1.283 . S
O753 Eu721 2.363 . S
O754 C716 1.283 . S
O754 Eu722 2.363 . S
O755 C714 1.283 . S
O755 Eu722 2.363 . S
C756 C757 1.391 . S
C756 C758 1.394 . S
C756 H772 0.931 . S
C757 C756 1.391 . S
C757 C761 1.376 . S
C758 C756 1.394 . S
C758 C759 1.369 . S
C758 C762 1.531 . S
C759 C758 1.369 . S
C759 C760 1.410 . S
C759 C767 1.503 . S
C760 C759 1.410 . S
C760 C761 1.392 . S
C760 C763 1.511 . S
C761 C757 1.376 . S
C761 C760 1.392 . S
C761 H773 0.929 . S
C762 C758 1.531 . S
C762 H774 0.960 . S
C762 H775 0.962 . S
C762 H776 0.960 . S
C763 C760 1.511 . S
C763 H777 0.961 . S
C763 H778 0.961 . S
C763 H779 0.961 . S
C764 C765 1.370 . S
C764 C766 1.363 . S
C764 H780 0.931 . S
C765 C764 1.370 . S
C765 C769 1.408 . S
C766 C764 1.363 . S
C766 C767 1.370 . S
C766 C770 1.524 . S
C767 C759 1.503 . S
C767 C766 1.370 . S
C767 C768 1.403 . S
C768 C767 1.403 . S
C768 C769 1.404 . S
C768 C771 1.539 . S
C769 C765 1.408 . S
C769 C768 1.404 . S
C769 H781 0.930 . S
C770 C766 1.524 . S
C770 H782 0.956 . S
C770 H783 0.961 . S
C770 H784 0.961 . S
C771 C768 1.539 . S
C771 H785 0.958 . S
C771 H786 0.961 . S
C771 H787 0.960 . S
H772 C756 0.931 . S
H773 C761 0.929 . S
H774 C762 0.960 . S
H775 C762 0.962 . S
H776 C762 0.960 . S
H777 C763 0.961 . S
H778 C763 0.961 . S
H779 C763 0.961 . S
H780 C764 0.931 . S
H781 C769 0.930 . S
H782 C770 0.956 . S
H783 C770 0.961 . S
H784 C770 0.961 . S
H785 C771 0.958 . S
H786 C771 0.961 . S
H787 C771 0.960 . S
C788 C789 1.391 . S
C788 C790 1.394 . S
C788 H804 0.931 . S
C789 C788 1.391 . S
C789 C793 1.376 . S
C790 C788 1.394 . S
C790 C791 1.369 . S
C790 C794 1.531 . S
C791 C790 1.369 . S
C791 C792 1.410 . S
C791 C799 1.503 . S
C792 C791 1.410 . S
C792 C793 1.392 . S
C792 C795 1.511 . S
C793 C789 1.376 . S
C793 C792 1.392 . S
C793 H805 0.929 . S
C794 C790 1.531 . S
C794 H806 0.960 . S
C794 H807 0.962 . S
C794 H808 0.960 . S
C795 C792 1.511 . S
C795 H809 0.961 . S
C795 H810 0.961 . S
C795 H811 0.961 . S
C796 C797 1.370 . S
C796 C798 1.363 . S
C796 H812 0.931 . S
C797 C796 1.370 . S
C797 C801 1.408 . S
C798 C796 1.363 . S
C798 C799 1.370 . S
C798 C802 1.524 . S
C799 C791 1.503 . S
C799 C798 1.370 . S
C799 C800 1.403 . S
C800 C799 1.403 . S
C800 C801 1.404 . S
C800 C803 1.539 . S
C801 C797 1.408 . S
C801 C800 1.404 . S
C801 H813 0.930 . S
C802 C798 1.524 . S
C802 H814 0.956 . S
C802 H815 0.961 . S
C802 H816 0.961 . S
C803 C800 1.539 . S
C803 H817 0.958 . S
C803 H818 0.961 . S
C803 H819 0.960 . S
H804 C788 0.931 . S
H805 C793 0.929 . S
H806 C794 0.960 . S
H807 C794 0.962 . S
H808 C794 0.960 . S
H809 C795 0.961 . S
H810 C795 0.961 . S
H811 C795 0.961 . S
H812 C796 0.931 . S
H813 C801 0.930 . S
H814 C802 0.956 . S
H815 C802 0.961 . S
H816 C802 0.961 . S
H817 C803 0.958 . S
H818 C803 0.961 . S
H819 C803 0.960 . S
C820 C821 1.391 . S
C820 C822 1.394 . S
C820 H836 0.931 . S
C821 C820 1.391 . S
C821 C825 1.376 . S
C822 C820 1.394 . S
C822 C823 1.369 . S
C822 C826 1.531 . S
C823 C822 1.369 . S
C823 C824 1.410 . S
C823 C831 1.503 . S
C824 C823 1.410 . S
C824 C825 1.392 . S
C824 C827 1.511 . S
C825 C821 1.376 . S
C825 C824 1.392 . S
C825 H837 0.929 . S
C826 C822 1.531 . S
C826 H838 0.960 . S
C826 H839 0.962 . S
C826 H840 0.960 . S
C827 C824 1.511 . S
C827 H841 0.961 . S
C827 H842 0.961 . S
C827 H843 0.961 . S
C828 C829 1.370 . S
C828 C830 1.363 . S
C828 H844 0.931 . S
C829 C828 1.370 . S
C829 C833 1.408 . S
C830 C828 1.363 . S
C830 C831 1.370 . S
C830 C834 1.524 . S
C831 C823 1.503 . S
C831 C830 1.370 . S
C831 C832 1.403 . S
C832 C831 1.403 . S
C832 C833 1.404 . S
C832 C835 1.539 . S
C833 C829 1.408 . S
C833 C832 1.404 . S
C833 H845 0.930 . S
C834 C830 1.524 . S
C834 H846 0.956 . S
C834 H847 0.961 . S
C834 H848 0.961 . S
C835 C832 1.539 . S
C835 H849 0.958 . S
C835 H850 0.961 . S
C835 H851 0.960 . S
H836 C820 0.931 . S
H837 C825 0.929 . S
H838 C826 0.960 . S
H839 C826 0.962 . S
H840 C826 0.960 . S
H841 C827 0.961 . S
H842 C827 0.961 . S
H843 C827 0.961 . S
H844 C828 0.931 . S
H845 C833 0.930 . S
H846 C834 0.956 . S
H847 C834 0.961 . S
H848 C834 0.961 . S
H849 C835 0.958 . S
H850 C835 0.961 . S
H851 C835 0.960 . S
C852 C853 1.391 . S
C852 C854 1.394 . S
C852 H868 0.931 . S
C853 C852 1.391 . S
C853 C857 1.376 . S
C854 C852 1.394 . S
C854 C855 1.369 . S
C854 C858 1.531 . S
C855 C854 1.369 . S
C855 C856 1.410 . S
C855 C863 1.503 . S
C856 C855 1.410 . S
C856 C857 1.392 . S
C856 C859 1.511 . S
C857 C853 1.376 . S
C857 C856 1.392 . S
C857 H869 0.929 . S
C858 C854 1.531 . S
C858 H870 0.960 . S
C858 H871 0.962 . S
C858 H872 0.960 . S
C859 C856 1.511 . S
C859 H873 0.961 . S
C859 H874 0.961 . S
C859 H875 0.961 . S
C860 C861 1.370 . S
C860 C862 1.363 . S
C860 H876 0.931 . S
C861 C860 1.370 . S
C861 C865 1.408 . S
C862 C860 1.363 . S
C862 C863 1.370 . S
C862 C866 1.524 . S
C863 C855 1.503 . S
C863 C862 1.370 . S
C863 C864 1.403 . S
C864 C863 1.403 . S
C864 C865 1.404 . S
C864 C867 1.539 . S
C865 C861 1.408 . S
C865 C864 1.404 . S
C865 H877 0.930 . S
C866 C862 1.524 . S
C866 H878 0.956 . S
C866 H879 0.961 . S
C866 H880 0.961 . S
C867 C864 1.539 . S
C867 H881 0.958 . S
C867 H882 0.961 . S
C867 H883 0.960 . S
H868 C852 0.931 . S
H869 C857 0.929 . S
H870 C858 0.960 . S
H871 C858 0.962 . S
H872 C858 0.960 . S
H873 C859 0.961 . S
H874 C859 0.961 . S
H875 C859 0.961 . S
H876 C860 0.931 . S
H877 C865 0.930 . S
H878 C866 0.956 . S
H879 C866 0.961 . S
H880 C866 0.961 . S
H881 C867 0.958 . S
H882 C867 0.961 . S
H883 C867 0.960 . S
C884 C885 1.391 . S
C884 C886 1.394 . S
C884 H900 0.931 . S
C885 C884 1.391 . S
C885 C889 1.376 . S
C886 C884 1.394 . S
C886 C887 1.369 . S
C886 C890 1.531 . S
C887 C886 1.369 . S
C887 C888 1.410 . S
C887 C895 1.503 . S
C888 C887 1.410 . S
C888 C889 1.392 . S
C888 C891 1.511 . S
C889 C885 1.376 . S
C889 C888 1.392 . S
C889 H901 0.929 . S
C890 C886 1.531 . S
C890 H902 0.960 . S
C890 H903 0.962 . S
C890 H904 0.960 . S
C891 C888 1.511 . S
C891 H905 0.961 . S
C891 H906 0.961 . S
C891 H907 0.961 . S
C892 C893 1.370 . S
C892 C894 1.363 . S
C892 H908 0.931 . S
C893 C892 1.370 . S
C893 C897 1.408 . S
C894 C892 1.363 . S
C894 C895 1.370 . S
C894 C898 1.524 . S
C895 C887 1.503 . S
C895 C894 1.370 . S
C895 C896 1.403 . S
C896 C895 1.403 . S
C896 C897 1.404 . S
C896 C899 1.539 . S
C897 C893 1.408 . S
C897 C896 1.404 . S
C897 H909 0.930 . S
C898 C894 1.524 . S
C898 H910 0.956 . S
C898 H911 0.961 . S
C898 H912 0.961 . S
C899 C896 1.539 . S
C899 H913 0.958 . S
C899 H914 0.961 . S
C899 H915 0.960 . S
H900 C884 0.931 . S
H901 C889 0.929 . S
H902 C890 0.960 . S
H903 C890 0.962 . S
H904 C890 0.960 . S
H905 C891 0.961 . S
H906 C891 0.961 . S
H907 C891 0.961 . S
H908 C892 0.931 . S
H909 C897 0.930 . S
H910 C898 0.956 . S
H911 C898 0.961 . S
H912 C898 0.961 . S
H913 C899 0.958 . S
H914 C899 0.961 . S
H915 C899 0.960 . S
C916 C917 1.391 . S
C916 C918 1.394 . S
C916 H932 0.931 . S
C917 C916 1.391 . S
C917 C921 1.376 . S
C918 C916 1.394 . S
C918 C919 1.369 . S
C918 C922 1.531 . S
C919 C918 1.369 . S
C919 C920 1.410 . S
C919 C927 1.503 . S
C920 C919 1.410 . S
C920 C921 1.392 . S
C920 C923 1.511 . S
C921 C917 1.376 . S
C921 C920 1.392 . S
C921 H933 0.929 . S
C922 C918 1.531 . S
C922 H934 0.960 . S
C922 H935 0.962 . S
C922 H936 0.960 . S
C923 C920 1.511 . S
C923 H937 0.961 . S
C923 H938 0.961 . S
C923 H939 0.961 . S
C924 C925 1.370 . S
C924 C926 1.363 . S
C924 H940 0.931 . S
C925 C924 1.370 . S
C925 C929 1.408 . S
C926 C924 1.363 . S
C926 C927 1.370 . S
C926 C930 1.524 . S
C927 C919 1.503 . S
C927 C926 1.370 . S
C927 C928 1.403 . S
C928 C927 1.403 . S
C928 C929 1.404 . S
C928 C931 1.539 . S
C929 C925 1.408 . S
C929 C928 1.404 . S
C929 H941 0.930 . S
C930 C926 1.524 . S
C930 H942 0.956 . S
C930 H943 0.961 . S
C930 H944 0.961 . S
C931 C928 1.539 . S
C931 H945 0.958 . S
C931 H946 0.961 . S
C931 H947 0.960 . S
H932 C916 0.931 . S
H933 C921 0.929 . S
H934 C922 0.960 . S
H935 C922 0.962 . S
H936 C922 0.960 . S
H937 C923 0.961 . S
H938 C923 0.961 . S
H939 C923 0.961 . S
H940 C924 0.931 . S
H941 C929 0.930 . S
H942 C930 0.956 . S
H943 C930 0.961 . S
H944 C930 0.961 . S
H945 C931 0.958 . S
H946 C931 0.961 . S
H947 C931 0.960 . S
C948 C949 1.391 . S
C948 C950 1.394 . S
C948 H964 0.931 . S
C949 C948 1.391 . S
C949 C953 1.376 . S
C950 C948 1.394 . S
C950 C951 1.369 . S
C950 C954 1.531 . S
C951 C950 1.369 . S
C951 C952 1.410 . S
C951 C959 1.503 . S
C952 C951 1.410 . S
C952 C953 1.392 . S
C952 C955 1.511 . S
C953 C949 1.376 . S
C953 C952 1.392 . S
C953 H965 0.929 . S
C954 C950 1.531 . S
C954 H966 0.960 . S
C954 H967 0.962 . S
C954 H968 0.960 . S
C955 C952 1.511 . S
C955 H969 0.961 . S
C955 H970 0.961 . S
C955 H971 0.961 . S
C956 C957 1.370 . S
C956 C958 1.363 . S
C956 H972 0.931 . S
C957 C956 1.370 . S
C957 C961 1.408 . S
C958 C956 1.363 . S
C958 C959 1.370 . S
C958 C962 1.524 . S
C959 C951 1.503 . S
C959 C958 1.370 . S
C959 C960 1.403 . S
C960 C959 1.403 . S
C960 C961 1.404 . S
C960 C963 1.539 . S
C961 C957 1.408 . S
C961 C960 1.404 . S
C961 H973 0.930 . S
C962 C958 1.524 . S
C962 H974 0.956 . S
C962 H975 0.961 . S
C962 H976 0.961 . S
C963 C960 1.539 . S
C963 H977 0.958 . S
C963 H978 0.961 . S
C963 H979 0.960 . S
H964 C948 0.931 . S
H965 C953 0.929 . S
H966 C954 0.960 . S
H967 C954 0.962 . S
H968 C954 0.960 . S
H969 C955 0.961 . S
H970 C955 0.961 . S
H971 C955 0.961 . S
H972 C956 0.931 . S
H973 C961 0.930 . S
H974 C962 0.956 . S
H975 C962 0.961 . S
H976 C962 0.961 . S
H977 C963 0.958 . S
H978 C963 0.961 . S
H979 C963 0.960 . S
C980 C981 1.391 . S
C980 C982 1.394 . S
C980 H996 0.931 . S
C981 C980 1.391 . S
C981 C985 1.376 . S
C982 C980 1.394 . S
C982 C983 1.369 . S
C982 C986 1.531 . S
C983 C982 1.369 . S
C983 C984 1.410 . S
C983 C991 1.503 . S
C984 C983 1.410 . S
C984 C985 1.392 . S
C984 C987 1.511 . S
C985 C981 1.376 . S
C985 C984 1.392 . S
C985 H997 0.929 . S
C986 C982 1.531 . S
C986 H998 0.960 . S
C986 H999 0.962 . S
C986 H1000 0.960 . S
C987 C984 1.511 . S
C987 H1001 0.961 . S
C987 H1002 0.961 . S
C987 H1003 0.961 . S
C988 C989 1.370 . S
C988 C990 1.363 . S
C988 H1004 0.931 . S
C989 C988 1.370 . S
C989 C993 1.408 . S
C990 C988 1.363 . S
C990 C991 1.370 . S
C990 C994 1.524 . S
C991 C983 1.503 . S
C991 C990 1.370 . S
C991 C992 1.403 . S
C992 C991 1.403 . S
C992 C993 1.404 . S
C992 C995 1.539 . S
C993 C989 1.408 . S
C993 C992 1.404 . S
C993 H1005 0.930 . S
C994 C990 1.524 . S
C994 H1006 0.956 . S
C994 H1007 0.961 . S
C994 H1008 0.961 . S
C995 C992 1.539 . S
C995 H1009 0.958 . S
C995 H1010 0.961 . S
C995 H1011 0.960 . S
H996 C980 0.931 . S
H997 C985 0.929 . S
H998 C986 0.960 . S
H999 C986 0.962 . S
H1000 C986 0.960 . S
H1001 C987 0.961 . S
H1002 C987 0.961 . S
H1003 C987 0.961 . S
H1004 C988 0.931 . S
H1005 C993 0.930 . S
H1006 C994 0.956 . S
H1007 C994 0.961 . S
H1008 C994 0.961 . S
H1009 C995 0.958 . S
H1010 C995 0.961 . S
H1011 C995 0.960 . S
C1012 C1013 1.391 . S
C1012 C1014 1.394 . S
C1012 H1028 0.931 . S
C1013 C1012 1.391 . S
C1013 C1017 1.376 . S
C1014 C1012 1.394 . S
C1014 C1015 1.369 . S
C1014 C1018 1.531 . S
C1015 C1014 1.369 . S
C1015 C1016 1.410 . S
C1015 C1023 1.503 . S
C1016 C1015 1.410 . S
C1016 C1017 1.392 . S
C1016 C1019 1.511 . S
C1017 C1013 1.376 . S
C1017 C1016 1.392 . S
C1017 H1029 0.929 . S
C1018 C1014 1.531 . S
C1018 H1030 0.960 . S
C1018 H1031 0.962 . S
C1018 H1032 0.960 . S
C1019 C1016 1.511 . S
C1019 H1033 0.961 . S
C1019 H1034 0.961 . S
C1019 H1035 0.961 . S
C1020 C1021 1.370 . S
C1020 C1022 1.363 . S
C1020 H1036 0.931 . S
C1021 C1020 1.370 . S
C1021 C1025 1.408 . S
C1022 C1020 1.363 . S
C1022 C1023 1.370 . S
C1022 C1026 1.524 . S
C1023 C1015 1.503 . S
C1023 C1022 1.370 . S
C1023 C1024 1.403 . S
C1024 C1023 1.403 . S
C1024 C1025 1.404 . S
C1024 C1027 1.539 . S
C1025 C1021 1.408 . S
C1025 C1024 1.404 . S
C1025 H1037 0.930 . S
C1026 C1022 1.524 . S
C1026 H1038 0.956 . S
C1026 H1039 0.961 . S
C1026 H1040 0.961 . S
C1027 C1024 1.539 . S
C1027 H1041 0.958 . S
C1027 H1042 0.961 . S
C1027 H1043 0.960 . S
H1028 C1012 0.931 . S
H1029 C1017 0.929 . S
H1030 C1018 0.960 . S
H1031 C1018 0.962 . S
H1032 C1018 0.960 . S
H1033 C1019 0.961 . S
H1034 C1019 0.961 . S
H1035 C1019 0.961 . S
H1036 C1020 0.931 . S
H1037 C1025 0.930 . S
H1038 C1026 0.956 . S
H1039 C1026 0.961 . S
H1040 C1026 0.961 . S
H1041 C1027 0.958 . S
H1042 C1027 0.961 . S
H1043 C1027 0.960 . S
C1044 C1045 1.391 . S
C1044 C1046 1.394 . S
C1044 H1060 0.931 . S
C1045 C1044 1.391 . S
C1045 C1049 1.376 . S
C1046 C1044 1.394 . S
C1046 C1047 1.369 . S
C1046 C1050 1.531 . S
C1047 C1046 1.369 . S
C1047 C1048 1.410 . S
C1047 C1055 1.503 . S
C1048 C1047 1.410 . S
C1048 C1049 1.392 . S
C1048 C1051 1.511 . S
C1049 C1045 1.376 . S
C1049 C1048 1.392 . S
C1049 H1061 0.929 . S
C1050 C1046 1.531 . S
C1050 H1062 0.960 . S
C1050 H1063 0.962 . S
C1050 H1064 0.960 . S
C1051 C1048 1.511 . S
C1051 H1065 0.961 . S
C1051 H1066 0.961 . S
C1051 H1067 0.961 . S
C1052 C1053 1.370 . S
C1052 C1054 1.363 . S
C1052 H1068 0.931 . S
C1053 C1052 1.370 . S
C1053 C1057 1.408 . S
C1054 C1052 1.363 . S
C1054 C1055 1.370 . S
C1054 C1058 1.524 . S
C1055 C1047 1.503 . S
C1055 C1054 1.370 . S
C1055 C1056 1.403 . S
C1056 C1055 1.403 . S
C1056 C1057 1.404 . S
C1056 C1059 1.539 . S
C1057 C1053 1.408 . S
C1057 C1056 1.404 . S
C1057 H1069 0.930 . S
C1058 C1054 1.524 . S
C1058 H1070 0.956 . S
C1058 H1071 0.961 . S
C1058 H1072 0.961 . S
C1059 C1056 1.539 . S
C1059 H1073 0.958 . S
C1059 H1074 0.961 . S
C1059 H1075 0.960 . S
H1060 C1044 0.931 . S
H1061 C1049 0.929 . S
H1062 C1050 0.960 . S
H1063 C1050 0.962 . S
H1064 C1050 0.960 . S
H1065 C1051 0.961 . S
H1066 C1051 0.961 . S
H1067 C1051 0.961 . S
H1068 C1052 0.931 . S
H1069 C1057 0.930 . S
H1070 C1058 0.956 . S
H1071 C1058 0.961 . S
H1072 C1058 0.961 . S
H1073 C1059 0.958 . S
H1074 C1059 0.961 . S
H1075 C1059 0.960 . S
C1076 C1077 1.391 . S
C1076 C1078 1.394 . S
C1076 H1092 0.931 . S
C1077 C1076 1.391 . S
C1077 C1081 1.376 . S
C1078 C1076 1.394 . S
C1078 C1079 1.369 . S
C1078 C1082 1.531 . S
C1079 C1078 1.369 . S
C1079 C1080 1.410 . S
C1079 C1087 1.503 . S
C1080 C1079 1.410 . S
C1080 C1081 1.392 . S
C1080 C1083 1.511 . S
C1081 C1077 1.376 . S
C1081 C1080 1.392 . S
C1081 H1093 0.929 . S
C1082 C1078 1.531 . S
C1082 H1094 0.960 . S
C1082 H1095 0.962 . S
C1082 H1096 0.960 . S
C1083 C1080 1.511 . S
C1083 H1097 0.961 . S
C1083 H1098 0.961 . S
C1083 H1099 0.961 . S
C1084 C1085 1.370 . S
C1084 C1086 1.363 . S
C1084 H1100 0.931 . S
C1085 C1084 1.370 . S
C1085 C1089 1.408 . S
C1086 C1084 1.363 . S
C1086 C1087 1.370 . S
C1086 C1090 1.524 . S
C1087 C1079 1.503 . S
C1087 C1086 1.370 . S
C1087 C1088 1.403 . S
C1088 C1087 1.403 . S
C1088 C1089 1.404 . S
C1088 C1091 1.539 . S
C1089 C1085 1.408 . S
C1089 C1088 1.404 . S
C1089 H1101 0.930 . S
C1090 C1086 1.524 . S
C1090 H1102 0.956 . S
C1090 H1103 0.961 . S
C1090 H1104 0.961 . S
C1091 C1088 1.539 . S
C1091 H1105 0.958 . S
C1091 H1106 0.961 . S
C1091 H1107 0.960 . S
H1092 C1076 0.931 . S
H1093 C1081 0.929 . S
H1094 C1082 0.960 . S
H1095 C1082 0.962 . S
H1096 C1082 0.960 . S
H1097 C1083 0.961 . S
H1098 C1083 0.961 . S
H1099 C1083 0.961 . S
H1100 C1084 0.931 . S
H1101 C1089 0.930 . S
H1102 C1090 0.956 . S
H1103 C1090 0.961 . S
H1104 C1090 0.961 . S
H1105 C1091 0.958 . S
H1106 C1091 0.961 . S
H1107 C1091 0.960 . S
C1108 C1109 1.391 . S
C1108 C1110 1.394 . S
C1108 H1124 0.931 . S
C1109 C1108 1.391 . S
C1109 C1113 1.376 . S
C1110 C1108 1.394 . S
C1110 C1111 1.369 . S
C1110 C1114 1.531 . S
C1111 C1110 1.369 . S
C1111 C1112 1.410 . S
C1111 C1119 1.503 . S
C1112 C1111 1.410 . S
C1112 C1113 1.392 . S
C1112 C1115 1.511 . S
C1113 C1109 1.376 . S
C1113 C1112 1.392 . S
C1113 H1125 0.929 . S
C1114 C1110 1.531 . S
C1114 H1126 0.960 . S
C1114 H1127 0.962 . S
C1114 H1128 0.960 . S
C1115 C1112 1.511 . S
C1115 H1129 0.961 . S
C1115 H1130 0.961 . S
C1115 H1131 0.961 . S
C1116 C1117 1.370 . S
C1116 C1118 1.363 . S
C1116 H1132 0.931 . S
C1117 C1116 1.370 . S
C1117 C1121 1.408 . S
C1118 C1116 1.363 . S
C1118 C1119 1.370 . S
C1118 C1122 1.524 . S
C1119 C1111 1.503 . S
C1119 C1118 1.370 . S
C1119 C1120 1.403 . S
C1120 C1119 1.403 . S
C1120 C1121 1.404 . S
C1120 C1123 1.539 . S
C1121 C1117 1.408 . S
C1121 C1120 1.404 . S
C1121 H1133 0.930 . S
C1122 C1118 1.524 . S
C1122 H1134 0.956 . S
C1122 H1135 0.961 . S
C1122 H1136 0.961 . S
C1123 C1120 1.539 . S
C1123 H1137 0.958 . S
C1123 H1138 0.961 . S
C1123 H1139 0.960 . S
H1124 C1108 0.931 . S
H1125 C1113 0.929 . S
H1126 C1114 0.960 . S
H1127 C1114 0.962 . S
H1128 C1114 0.960 . S
H1129 C1115 0.961 . S
H1130 C1115 0.961 . S
H1131 C1115 0.961 . S
H1132 C1116 0.931 . S
H1133 C1121 0.930 . S
H1134 C1122 0.956 . S
H1135 C1122 0.961 . S
H1136 C1122 0.961 . S
H1137 C1123 0.958 . S
H1138 C1123 0.961 . S
H1139 C1123 0.960 . S
C1140 C1141 1.391 . S
C1140 C1142 1.394 . S
C1140 H1156 0.931 . S
C1141 C1140 1.391 . S
C1141 C1145 1.376 1_554 S
C1142 C1140 1.394 . S
C1142 C1143 1.369 . S
C1142 C1146 1.531 . S
C1143 C1142 1.369 . S
C1143 C1144 1.410 1_554 S
C1143 C1151 1.503 . S
C1144 C1143 1.410 1_556 S
C1144 C1145 1.392 . S
C1144 C1147 1.511 . S
C1145 C1141 1.376 1_556 S
C1145 C1144 1.392 . S
C1145 H1157 0.929 . S
C1146 C1142 1.531 . S
C1146 H1158 0.960 . S
C1146 H1159 0.962 . S
C1146 H1160 0.960 . S
C1147 C1144 1.511 . S
C1147 H1161 0.961 . S
C1147 H1162 0.961 . S
C1147 H1163 0.961 . S
C1148 C1149 1.370 . S
C1148 C1150 1.363 . S
C1148 H1164 0.931 . S
C1149 C1148 1.370 . S
C1149 C1153 1.408 1_554 S
C1150 C1148 1.363 . S
C1150 C1151 1.370 . S
C1150 C1154 1.524 . S
C1151 C1143 1.503 . S
C1151 C1150 1.370 . S
C1151 C1152 1.403 1_554 S
C1152 C1151 1.403 1_556 S
C1152 C1153 1.404 . S
C1152 C1155 1.539 . S
C1153 C1149 1.408 1_556 S
C1153 C1152 1.404 . S
C1153 H1165 0.930 . S
C1154 C1150 1.524 . S
C1154 H1166 0.956 . S
C1154 H1167 0.961 . S
C1154 H1168 0.961 . S
C1155 C1152 1.539 . S
C1155 H1169 0.958 . S
C1155 H1170 0.961 . S
C1155 H1171 0.960 . S
H1156 C1140 0.931 . S
H1157 C1145 0.929 . S
H1158 C1146 0.960 . S
H1159 C1146 0.962 . S
H1160 C1146 0.960 . S
H1161 C1147 0.961 . S
H1162 C1147 0.961 . S
H1163 C1147 0.961 . S
H1164 C1148 0.931 . S
H1165 C1153 0.930 . S
H1166 C1154 0.956 . S
H1167 C1154 0.961 . S
H1168 C1154 0.961 . S
H1169 C1155 0.958 . S
H1170 C1155 0.961 . S
H1171 C1155 0.960 . S
C1172 C1173 1.391 1_556 S
C1172 C1174 1.394 . S
C1172 H1188 0.931 . S
C1173 C1172 1.391 1_554 S
C1173 C1177 1.376 . S
C1174 C1172 1.394 . S
C1174 C1175 1.369 1_556 S
C1174 C1178 1.531 . S
C1175 C1174 1.369 1_554 S
C1175 C1176 1.410 . S
C1175 C1183 1.503 . S
C1176 C1175 1.410 . S
C1176 C1177 1.392 . S
C1176 C1179 1.511 . S
C1177 C1173 1.376 . S
C1177 C1176 1.392 . S
C1177 H1189 0.929 . S
C1178 C1174 1.531 . S
C1178 H1190 0.960 . S
C1178 H1191 0.962 . S
C1178 H1192 0.960 . S
C1179 C1176 1.511 . S
C1179 H1193 0.961 . S
C1179 H1194 0.961 . S
C1179 H1195 0.961 . S
C1180 C1181 1.370 . S
C1180 C1182 1.363 . S
C1180 H1196 0.931 . S
C1181 C1180 1.370 . S
C1181 C1185 1.408 1_554 S
C1182 C1180 1.363 . S
C1182 C1183 1.370 . S
C1182 C1186 1.524 . S
C1183 C1175 1.503 . S
C1183 C1182 1.370 . S
C1183 C1184 1.403 1_554 S
C1184 C1183 1.403 1_556 S
C1184 C1185 1.404 . S
C1184 C1187 1.539 . S
C1185 C1181 1.408 1_556 S
C1185 C1184 1.404 . S
C1185 H1197 0.930 . S
C1186 C1182 1.524 . S
C1186 H1198 0.956 . S
C1186 H1199 0.961 . S
C1186 H1200 0.961 . S
C1187 C1184 1.539 . S
C1187 H1201 0.958 . S
C1187 H1202 0.961 . S
C1187 H1203 0.960 . S
H1188 C1172 0.931 . S
H1189 C1177 0.929 . S
H1190 C1178 0.960 . S
H1191 C1178 0.962 . S
H1192 C1178 0.960 . S
H1193 C1179 0.961 . S
H1194 C1179 0.961 . S
H1195 C1179 0.961 . S
H1196 C1180 0.931 . S
H1197 C1185 0.930 . S
H1198 C1186 0.956 . S
H1199 C1186 0.961 . S
H1200 C1186 0.961 . S
H1201 C1187 0.958 . S
H1202 C1187 0.961 . S
H1203 C1187 0.960 . S
C1204 C1205 1.391 1_556 S
C1204 C1206 1.394 . S
C1204 H1220 0.931 . S
C1205 C1204 1.391 1_554 S
C1205 C1209 1.376 . S
C1206 C1204 1.394 . S
C1206 C1207 1.369 1_556 S
C1206 C1210 1.531 . S
C1207 C1206 1.369 1_554 S
C1207 C1208 1.410 . S
C1207 C1215 1.503 . S
C1208 C1207 1.410 . S
C1208 C1209 1.392 . S
C1208 C1211 1.511 . S
C1209 C1205 1.376 . S
C1209 C1208 1.392 . S
C1209 H1221 0.929 . S
C1210 C1206 1.531 . S
C1210 H1222 0.960 . S
C1210 H1223 0.962 . S
C1210 H1224 0.960 . S
C1211 C1208 1.511 . S
C1211 H1225 0.961 . S
C1211 H1226 0.961 . S
C1211 H1227 0.961 . S
C1212 C1213 1.370 . S
C1212 C1214 1.363 . S
C1212 H1228 0.931 . S
C1213 C1212 1.370 . S
C1213 C1217 1.408 1_554 S
C1214 C1212 1.363 . S
C1214 C1215 1.370 . S
C1214 C1218 1.524 . S
C1215 C1207 1.503 . S
C1215 C1214 1.370 . S
C1215 C1216 1.403 1_554 S
C1216 C1215 1.403 1_556 S
C1216 C1217 1.404 . S
C1216 C1219 1.539 . S
C1217 C1213 1.408 1_556 S
C1217 C1216 1.404 . S
C1217 H1229 0.930 . S
C1218 C1214 1.524 . S
C1218 H1230 0.956 . S
C1218 H1231 0.961 . S
C1218 H1232 0.961 . S
C1219 C1216 1.539 . S
C1219 H1233 0.958 . S
C1219 H1234 0.961 . S
C1219 H1235 0.960 . S
H1220 C1204 0.931 . S
H1221 C1209 0.929 . S
H1222 C1210 0.960 . S
H1223 C1210 0.962 . S
H1224 C1210 0.960 . S
H1225 C1211 0.961 . S
H1226 C1211 0.961 . S
H1227 C1211 0.961 . S
H1228 C1212 0.931 . S
H1229 C1217 0.930 . S
H1230 C1218 0.956 . S
H1231 C1218 0.961 . S
H1232 C1218 0.961 . S
H1233 C1219 0.958 . S
H1234 C1219 0.961 . S
H1235 C1219 0.960 . S
C1236 C1237 1.391 . S
C1236 C1238 1.394 . S
C1236 H1252 0.940 . S
C1237 C1236 1.391 . S
C1237 C1241 1.376 . S
C1238 C1236 1.394 . S
C1238 C1239 1.369 . S
C1238 C1242 1.531 . S
C1239 C1238 1.369 . S
C1239 C1240 1.410 . S
C1239 C1247 1.503 . S
C1240 C1239 1.410 . S
C1240 C1241 1.392 . S
C1240 C1243 1.511 . S
C1241 C1237 1.376 . S
C1241 C1240 1.392 . S
C1241 H1253 0.929 . S
C1242 C1238 1.531 . S
C1242 H1254 0.960 . S
C1242 H1255 0.962 1_554 S
C1242 H1256 0.960 . S
C1243 C1240 1.511 . S
C1243 H1257 0.961 . S
C1243 H1258 0.961 . S
C1243 H1259 0.961 . S
C1244 C1245 1.370 1_556 S
C1244 C1246 1.363 . S
C1244 H1260 0.931 . S
C1245 C1244 1.370 1_554 S
C1245 C1249 1.408 . S
C1246 C1244 1.363 . S
C1246 C1247 1.370 1_556 S
C1246 C1250 1.524 . S
C1247 C1239 1.503 . S
C1247 C1246 1.370 1_554 S
C1247 C1248 1.403 . S
C1248 C1247 1.403 . S
C1248 C1249 1.404 . S
C1248 C1251 1.539 . S
C1249 C1245 1.408 . S
C1249 C1248 1.404 . S
C1249 H1261 0.930 . S
C1250 C1246 1.524 . S
C1250 H1262 0.956 . S
C1250 H1263 0.961 . S
C1250 H1264 0.961 . S
C1251 C1248 1.539 . S
C1251 H1265 0.958 . S
C1251 H1266 0.961 . S
C1251 H1267 0.960 . S
H1252 C1236 0.940 . S
H1253 C1241 0.929 . S
H1254 C1242 0.960 . S
H1255 C1242 0.962 1_556 S
H1256 C1242 0.960 . S
H1257 C1243 0.961 . S
H1258 C1243 0.961 . S
H1259 C1243 0.961 . S
H1260 C1244 0.931 . S
H1261 C1249 0.930 . S
H1262 C1250 0.956 . S
H1263 C1250 0.961 . S
H1264 C1250 0.961 . S
H1265 C1251 0.958 . S
H1266 C1251 0.961 . S
H1267 C1251 0.960 . S
C1268 C1269 1.391 1_655 S
C1268 C1270 1.394 . S
C1268 H1284 0.931 . S
C1269 C1268 1.391 1_455 S
C1269 C1273 1.376 . S
C1270 C1268 1.394 . S
C1270 C1271 1.369 1_655 S
C1270 C1274 1.531 . S
C1271 C1270 1.369 1_455 S
C1271 C1272 1.410 . S
C1271 C1279 1.503 . S
C1272 C1271 1.410 . S
C1272 C1273 1.392 . S
C1272 C1275 1.511 . S
C1273 C1269 1.376 . S
C1273 C1272 1.392 . S
C1273 H1285 0.929 . S
C1274 C1270 1.531 . S
C1274 H1286 0.960 . S
C1274 H1287 0.962 . S
C1274 H1288 0.960 . S
C1275 C1272 1.511 . S
C1275 H1289 0.961 . S
C1275 H1290 0.961 . S
C1275 H1291 0.961 . S
C1276 C1277 1.370 . S
C1276 C1278 1.363 . S
C1276 H1292 0.931 . S
C1277 C1276 1.370 . S
C1277 C1281 1.408 . S
C1278 C1276 1.363 . S
C1278 C1279 1.370 . S
C1278 C1282 1.529 . S
C1279 C1271 1.503 . S
C1279 C1278 1.370 . S
C1279 C1280 1.403 . S
C1280 C1279 1.403 . S
C1280 C1281 1.404 . S
C1280 C1283 1.539 . S
C1281 C1277 1.408 . S
C1281 C1280 1.404 . S
C1281 H1293 0.930 . S
C1282 C1278 1.529 . S
C1282 H1294 0.938 1_455 S
C1282 H1295 0.977 . S
C1282 H1296 0.959 1_455 S
C1283 C1280 1.539 . S
C1283 H1297 0.958 . S
C1283 H1298 0.961 . S
C1283 H1299 0.960 . S
H1284 C1268 0.931 . S
H1285 C1273 0.929 . S
H1286 C1274 0.960 . S
H1287 C1274 0.962 . S
H1288 C1274 0.960 . S
H1289 C1275 0.961 . S
H1290 C1275 0.961 . S
H1291 C1275 0.961 . S
H1292 C1276 0.931 . S
H1293 C1281 0.930 . S
H1294 C1282 0.938 1_655 S
H1295 C1282 0.977 . S
H1296 C1282 0.959 1_655 S
H1297 C1283 0.958 . S
H1298 C1283 0.961 . S
H1299 C1283 0.960 . S
C1300 C1301 1.391 . S
C1300 C1302 1.394 . S
C1300 H1316 0.931 . S
C1301 C1300 1.391 . S
C1301 C1305 1.376 1_545 S
C1302 C1300 1.394 . S
C1302 C1303 1.369 . S
C1302 C1306 1.531 . S
C1303 C1302 1.369 . S
C1303 C1304 1.410 . S
C1303 C1311 1.503 . S
C1304 C1303 1.410 . S
C1304 C1305 1.392 1_545 S
C1304 C1307 1.511 1_545 S
C1305 C1301 1.376 1_565 S
C1305 C1304 1.392 1_565 S
C1305 H1317 0.929 . S
C1306 C1302 1.531 . S
C1306 H1318 0.960 . S
C1306 H1319 0.962 . S
C1306 H1320 0.960 . S
C1307 C1304 1.511 1_565 S
C1307 H1321 0.961 . S
C1307 H1322 0.961 . S
C1307 H1323 0.961 1_565 S
C1308 C1309 1.370 1_565 S
C1308 C1310 1.363 . S
C1308 H1324 0.931 . S
C1309 C1308 1.370 1_545 S
C1309 C1313 1.408 . S
C1310 C1308 1.363 . S
C1310 C1311 1.370 1_565 S
C1310 C1314 1.524 . S
C1311 C1303 1.503 . S
C1311 C1310 1.370 1_545 S
C1311 C1312 1.403 . S
C1312 C1311 1.403 . S
C1312 C1313 1.404 . S
C1312 C1315 1.539 . S
C1313 C1309 1.408 . S
C1313 C1312 1.404 . S
C1313 H1325 0.930 . S
C1314 C1310 1.524 . S
C1314 H1326 0.956 . S
C1314 H1327 0.961 . S
C1314 H1328 0.961 . S
C1315 C1312 1.539 . S
C1315 H1329 0.958 . S
C1315 H1330 0.961 . S
C1315 H1331 0.960 . S
H1316 C1300 0.931 . S
H1317 C1305 0.929 . S
H1318 C1306 0.960 . S
H1319 C1306 0.962 . S
H1320 C1306 0.960 . S
H1321 C1307 0.961 . S
H1322 C1307 0.961 . S
H1323 C1307 0.961 1_545 S
H1324 C1308 0.931 . S
H1325 C1313 0.930 . S
H1326 C1314 0.956 . S
H1327 C1314 0.961 . S
H1328 C1314 0.961 . S
H1329 C1315 0.958 . S
H1330 C1315 0.961 . S
H1331 C1315 0.960 . S
C1332 C1333 1.391 1_655 S
C1332 C1334 1.393 1_655 S
C1332 H1348 0.931 . S
C1333 C1332 1.391 1_455 S
C1333 C1337 1.376 . S
C1334 C1332 1.393 1_455 S
C1334 C1335 1.373 . S
C1334 C1338 1.527 1_455 S
C1335 C1334 1.373 . S
C1335 C1336 1.410 . S
C1335 C1343 1.503 . S
C1336 C1335 1.410 . S
C1336 C1337 1.392 . S
C1336 C1339 1.511 . S
C1337 C1333 1.376 . S
C1337 C1336 1.392 . S
C1337 H1349 0.929 . S
C1338 C1334 1.527 1_655 S
C1338 H1350 0.960 . S
C1338 H1351 0.962 . S
C1338 H1352 0.960 . S
C1339 C1336 1.511 . S
C1339 H1353 0.961 . S
C1339 H1354 0.961 . S
C1339 H1355 0.961 . S
C1340 C1341 1.370 1_655 S
C1340 C1342 1.363 . S
C1340 H1356 0.931 . S
C1341 C1340 1.370 1_455 S
C1341 C1345 1.408 . S
C1342 C1340 1.363 . S
C1342 C1343 1.370 1_655 S
C1342 C1346 1.524 . S
C1343 C1335 1.503 . S
C1343 C1342 1.370 1_455 S
C1343 C1344 1.403 . S
C1344 C1343 1.403 . S
C1344 C1345 1.404 . S
C1344 C1347 1.539 . S
C1345 C1341 1.408 . S
C1345 C1344 1.404 . S
C1345 H1357 0.930 . S
C1346 C1342 1.524 . S
C1346 H1358 0.956 . S
C1346 H1359 0.961 . S
C1346 H1360 0.961 . S
C1347 C1344 1.539 . S
C1347 H1361 0.958 . S
C1347 H1362 0.961 . S
C1347 H1363 0.960 . S
H1348 C1332 0.931 . S
H1349 C1337 0.929 . S
H1350 C1338 0.960 . S
H1351 C1338 0.962 . S
H1352 C1338 0.960 . S
H1353 C1339 0.961 . S
H1354 C1339 0.961 . S
H1355 C1339 0.961 . S
H1356 C1340 0.931 . S
H1357 C1345 0.930 . S
H1358 C1346 0.956 . S
H1359 C1346 0.961 . S
H1360 C1346 0.961 . S
H1361 C1347 0.958 . S
H1362 C1347 0.961 . S
H1363 C1347 0.960 . S
C1364 C1365 1.391 1_545 S
C1364 C1366 1.394 . S
C1364 H1380 0.931 . S
C1365 C1364 1.391 1_565 S
C1365 C1369 1.376 . S
C1366 C1364 1.394 . S
C1366 C1367 1.369 1_545 S
C1366 C1370 1.531 . S
C1367 C1366 1.369 1_565 S
C1367 C1368 1.410 . S
C1367 C1375 1.503 . S
C1368 C1367 1.410 . S
C1368 C1369 1.392 . S
C1368 C1371 1.511 . S
C1369 C1365 1.376 . S
C1369 C1368 1.392 . S
C1369 H1381 0.929 . S
C1370 C1366 1.531 . S
C1370 H1382 0.960 . S
C1370 H1383 0.962 . S
C1370 H1384 0.960 . S
C1371 C1368 1.511 . S
C1371 H1385 0.961 . S
C1371 H1386 0.961 . S
C1371 H1387 0.961 . S
C1372 C1373 1.365 1_545 S
C1372 C1374 1.363 . S
C1372 H1388 0.931 . S
C1373 C1372 1.365 1_565 S
C1373 C1377 1.414 . S
C1374 C1372 1.363 . S
C1374 C1375 1.370 1_545 S
C1374 C1378 1.524 . S
C1375 C1367 1.503 . S
C1375 C1374 1.370 1_565 S
C1375 C1376 1.403 . S
C1376 C1375 1.403 . S
C1376 C1377 1.404 . S
C1376 C1379 1.539 . S
C1377 C1373 1.414 . S
C1377 C1376 1.404 . S
C1377 H1389 0.930 . S
C1378 C1374 1.524 . S
C1378 H1390 0.956 . S
C1378 H1391 0.961 . S
C1378 H1392 0.961 . S
C1379 C1376 1.539 . S
C1379 H1393 0.958 . S
C1379 H1394 0.961 . S
C1379 H1395 0.960 . S
H1380 C1364 0.931 . S
H1381 C1369 0.929 . S
H1382 C1370 0.960 . S
H1383 C1370 0.962 . S
H1384 C1370 0.960 . S
H1385 C1371 0.961 . S
H1386 C1371 0.961 . S
H1387 C1371 0.961 . S
H1388 C1372 0.931 . S
H1389 C1377 0.930 . S
H1390 C1378 0.956 . S
H1391 C1378 0.961 . S
H1392 C1378 0.961 . S
H1393 C1379 0.958 . S
H1394 C1379 0.961 . S
H1395 C1379 0.960 . S
C1396 C1397 1.391 . S
C1396 C1398 1.394 . S
C1396 H1412 0.931 . S
C1397 C1396 1.391 . S
C1397 C1401 1.376 . S
C1398 C1396 1.394 . S
C1398 C1399 1.369 . S
C1398 C1402 1.531 . S
C1399 C1398 1.369 . S
C1399 C1400 1.410 . S
C1399 C1407 1.503 . S
C1400 C1399 1.410 . S
C1400 C1401 1.392 . S
C1400 C1403 1.511 . S
C1401 C1397 1.376 . S
C1401 C1400 1.392 . S
C1401 H1413 0.929 . S
C1402 C1398 1.531 . S
C1402 H1414 0.960 . S
C1402 H1415 0.962 1_455 S
C1402 H1416 0.960 . S
C1403 C1400 1.511 . S
C1403 H1417 0.961 . S
C1403 H1418 0.961 . S
C1403 H1419 0.961 . S
C1404 C1405 1.370 1_655 S
C1404 C1406 1.363 . S
C1404 H1420 0.931 . S
C1405 C1404 1.370 1_455 S
C1405 C1409 1.408 . S
C1406 C1404 1.363 . S
C1406 C1407 1.370 1_655 S
C1406 C1410 1.524 . S
C1407 C1399 1.503 . S
C1407 C1406 1.370 1_455 S
C1407 C1408 1.403 . S
C1408 C1407 1.403 . S
C1408 C1409 1.404 . S
C1408 C1411 1.539 . S
C1409 C1405 1.408 . S
C1409 C1408 1.404 . S
C1409 H1421 0.930 . S
C1410 C1406 1.524 . S
C1410 H1422 0.956 . S
C1410 H1423 0.961 . S
C1410 H1424 0.961 . S
C1411 C1408 1.539 . S
C1411 H1425 0.958 . S
C1411 H1426 0.961 . S
C1411 H1427 0.960 . S
H1412 C1396 0.931 . S
H1413 C1401 0.929 . S
H1414 C1402 0.960 . S
H1415 C1402 0.962 1_655 S
H1416 C1402 0.960 . S
H1417 C1403 0.961 . S
H1418 C1403 0.961 . S
H1419 C1403 0.961 . S
H1420 C1404 0.931 . S
H1421 C1409 0.930 . S
H1422 C1410 0.956 . S
H1423 C1410 0.961 . S
H1424 C1410 0.961 . S
H1425 C1411 0.958 . S
H1426 C1411 0.961 . S
H1427 C1411 0.960 . S
C1428 C1429 1.391 . S
C1428 C1430 1.394 . S
C1428 H1444 0.931 . S
C1429 C1428 1.391 . S
C1429 C1433 1.376 1_565 S
C1430 C1428 1.394 . S
C1430 C1431 1.369 . S
C1430 C1434 1.531 . S
C1431 C1430 1.369 . S
C1431 C1432 1.410 1_565 S
C1431 C1439 1.503 . S
C1432 C1431 1.410 1_545 S
C1432 C1433 1.392 . S
C1432 C1435 1.511 . S
C1433 C1429 1.376 1_545 S
C1433 C1432 1.392 . S
C1433 H1445 0.929 . S
C1434 C1430 1.531 . S
C1434 H1446 0.960 . S
C1434 H1447 0.962 . S
C1434 H1448 0.960 . S
C1435 C1432 1.511 . S
C1435 H1449 0.961 . S
C1435 H1450 0.961 . S
C1435 H1451 0.961 . S
C1436 C1437 1.370 . S
C1436 C1438 1.363 . S
C1436 H1452 0.931 . S
C1437 C1436 1.370 . S
C1437 C1441 1.408 1_545 S
C1438 C1436 1.363 . S
C1438 C1439 1.370 1_545 S
C1438 C1442 1.524 . S
C1439 C1431 1.503 . S
C1439 C1438 1.370 1_565 S
C1439 C1440 1.403 . S
C1440 C1439 1.403 . S
C1440 C1441 1.404 . S
C1440 C1443 1.539 . S
C1441 C1437 1.408 1_565 S
C1441 C1440 1.404 . S
C1441 H1453 0.930 . S
C1442 C1438 1.524 . S
C1442 H1454 0.956 . S
C1442 H1455 0.961 . S
C1442 H1456 0.961 . S
C1443 C1440 1.539 . S
C1443 H1457 0.958 . S
C1443 H1458 0.961 . S
C1443 H1459 0.960 . S
H1444 C1428 0.931 . S
H1445 C1433 0.929 . S
H1446 C1434 0.960 . S
H1447 C1434 0.962 . S
H1448 C1434 0.960 . S
H1449 C1435 0.961 . S
H1450 C1435 0.961 . S
H1451 C1435 0.961 . S
H1452 C1436 0.931 . S
H1453 C1441 0.930 . S
H1454 C1442 0.956 . S
H1455 C1442 0.961 . S
H1456 C1442 0.961 . S
H1457 C1443 0.958 . S
H1458 C1443 0.961 . S
H1459 C1443 0.960 . S
C1460 C1461 1.391 . S
C1460 C1462 1.394 . S
C1460 H1476 0.931 . S
C1461 C1460 1.391 . S
C1461 C1465 1.376 1_455 S
C1462 C1460 1.394 . S
C1462 C1463 1.369 . S
C1462 C1466 1.531 . S
C1463 C1462 1.369 . S
C1463 C1464 1.410 1_455 S
C1463 C1471 1.503 . S
C1464 C1463 1.410 1_655 S
C1464 C1465 1.392 . S
C1464 C1467 1.511 . S
C1465 C1461 1.376 1_655 S
C1465 C1464 1.392 . S
C1465 H1477 0.929 . S
C1466 C1462 1.531 . S
C1466 H1478 0.960 . S
C1466 H1479 0.962 . S
C1466 H1480 0.960 . S
C1467 C1464 1.511 . S
C1467 H1481 0.961 . S
C1467 H1482 0.961 . S
C1467 H1483 0.961 . S
C1468 C1469 1.370 1_655 S
C1468 C1470 1.363 . S
C1468 H1484 0.931 . S
C1469 C1468 1.370 1_455 S
C1469 C1473 1.408 . S
C1470 C1468 1.363 . S
C1470 C1471 1.370 1_655 S
C1470 C1474 1.524 . S
C1471 C1463 1.503 . S
C1471 C1470 1.370 1_455 S
C1471 C1472 1.403 . S
C1472 C1471 1.403 . S
C1472 C1473 1.404 . S
C1472 C1475 1.539 . S
C1473 C1469 1.408 . S
C1473 C1472 1.404 . S
C1473 H1485 0.930 . S
C1474 C1470 1.524 . S
C1474 H1486 0.956 . S
C1474 H1487 0.961 . S
C1474 H1488 0.961 . S
C1475 C1472 1.539 . S
C1475 H1489 0.958 . S
C1475 H1490 0.961 . S
C1475 H1491 0.960 . S
H1476 C1460 0.931 . S
H1477 C1465 0.929 . S
H1478 C1466 0.960 . S
H1479 C1466 0.962 . S
H1480 C1466 0.960 . S
H1481 C1467 0.961 . S
H1482 C1467 0.961 . S
H1483 C1467 0.961 . S
H1484 C1468 0.931 . S
H1485 C1473 0.930 . S
H1486 C1474 0.956 . S
H1487 C1474 0.961 . S
H1488 C1474 0.961 . S
H1489 C1475 0.958 . S
H1490 C1475 0.961 . S
H1491 C1475 0.960 . S
C1492 C1493 1.391 1_565 S
C1492 C1494 1.394 . S
C1492 H1508 0.931 . S
C1493 C1492 1.391 1_545 S
C1493 C1497 1.376 . S
C1494 C1492 1.394 . S
C1494 C1495 1.369 1_565 S
C1494 C1498 1.531 . S
C1495 C1494 1.369 1_545 S
C1495 C1496 1.410 . S
C1495 C1503 1.503 . S
C1496 C1495 1.410 . S
C1496 C1497 1.392 . S
C1496 C1499 1.511 . S
C1497 C1493 1.376 . S
C1497 C1496 1.392 . S
C1497 H1509 0.929 . S
C1498 C1494 1.531 . S
C1498 H1510 0.960 . S
C1498 H1511 0.962 . S
C1498 H1512 0.960 . S
C1499 C1496 1.511 . S
C1499 H1513 0.961 . S
C1499 H1514 0.961 . S
C1499 H1515 0.961 . S
C1500 C1501 1.370 1_565 S
C1500 C1502 1.363 . S
C1500 H1516 0.931 . S
C1501 C1500 1.370 1_545 S
C1501 C1505 1.408 . S
C1502 C1500 1.363 . S
C1502 C1503 1.370 1_565 S
C1502 C1506 1.524 . S
C1503 C1495 1.503 . S
C1503 C1502 1.370 1_545 S
C1503 C1504 1.403 . S
C1504 C1503 1.403 . S
C1504 C1505 1.404 . S
C1504 C1507 1.539 . S
C1505 C1501 1.408 . S
C1505 C1504 1.404 . S
C1505 H1517 0.930 . S
C1506 C1502 1.524 . S
C1506 H1518 0.956 . S
C1506 H1519 0.961 . S
C1506 H1520 0.961 . S
C1507 C1504 1.539 . S
C1507 H1521 0.958 . S
C1507 H1522 0.961 . S
C1507 H1523 0.960 . S
H1508 C1492 0.931 . S
H1509 C1497 0.929 . S
H1510 C1498 0.960 . S
H1511 C1498 0.962 . S
H1512 C1498 0.960 . S
H1513 C1499 0.961 . S
H1514 C1499 0.961 . S
H1515 C1499 0.961 . S
H1516 C1500 0.931 . S
H1517 C1505 0.930 . S
H1518 C1506 0.956 . S
H1519 C1506 0.961 . S
H1520 C1506 0.961 . S
H1521 C1507 0.958 . S
H1522 C1507 0.961 . S
H1523 C1507 0.960 . S
C1524 C1525 1.391 . S
C1524 C1526 1.394 . S
C1524 H1540 0.931 . S
C1525 C1524 1.391 . S
C1525 C1529 1.376 . S
C1526 C1524 1.394 . S
C1526 C1527 1.369 . S
C1526 C1530 1.531 . S
C1527 C1526 1.369 . S
C1527 C1528 1.410 . S
C1527 C1535 1.503 . S
C1528 C1527 1.410 . S
C1528 C1529 1.392 . S
C1528 C1531 1.511 . S
C1529 C1525 1.376 . S
C1529 C1528 1.392 . S
C1529 H1541 0.929 . S
C1530 C1526 1.531 . S
C1530 H1542 0.960 . S
C1530 H1543 0.962 . S
C1530 H1544 0.960 . S
C1531 C1528 1.511 . S
C1531 H1545 0.961 1_455 S
C1531 H1546 0.961 1_455 S
C1531 H1547 0.961 . S
C1532 C1533 1.370 1_655 S
C1532 C1534 1.363 . S
C1532 H1548 0.931 . S
C1533 C1532 1.370 1_455 S
C1533 C1537 1.408 . S
C1534 C1532 1.363 . S
C1534 C1535 1.370 1_655 S
C1534 C1538 1.524 . S
C1535 C1527 1.503 . S
C1535 C1534 1.370 1_455 S
C1535 C1536 1.403 . S
C1536 C1535 1.403 . S
C1536 C1537 1.404 . S
C1536 C1539 1.539 . S
C1537 C1533 1.408 . S
C1537 C1536 1.404 . S
C1537 H1549 0.930 . S
C1538 C1534 1.524 . S
C1538 H1550 0.956 . S
C1538 H1551 0.961 . S
C1538 H1552 0.961 . S
C1539 C1536 1.539 . S
C1539 H1553 0.958 . S
C1539 H1554 0.961 . S
C1539 H1555 0.960 . S
H1540 C1524 0.931 . S
H1541 C1529 0.929 . S
H1542 C1530 0.960 . S
H1543 C1530 0.962 . S
H1544 C1530 0.960 . S
H1545 C1531 0.961 1_655 S
H1546 C1531 0.961 1_655 S
H1547 C1531 0.961 . S
H1548 C1532 0.931 . S
H1549 C1537 0.930 . S
H1550 C1538 0.956 . S
H1551 C1538 0.961 . S
H1552 C1538 0.961 . S
H1553 C1539 0.958 . S
H1554 C1539 0.961 . S
H1555 C1539 0.960 . S
C1556 C1557 1.391 . S
C1556 C1558 1.394 . S
C1556 H1572 0.931 . S
C1557 C1556 1.391 . S
C1557 C1561 1.376 1_565 S
C1558 C1556 1.394 . S
C1558 C1559 1.369 . S
C1558 C1562 1.531 . S
C1559 C1558 1.369 . S
C1559 C1560 1.410 1_565 S
C1559 C1567 1.503 . S
C1560 C1559 1.410 1_545 S
C1560 C1561 1.392 . S
C1560 C1563 1.511 . S
C1561 C1557 1.376 1_545 S
C1561 C1560 1.392 . S
C1561 H1573 0.929 . S
C1562 C1558 1.531 . S
C1562 H1574 0.960 . S
C1562 H1575 0.962 . S
C1562 H1576 0.960 . S
C1563 C1560 1.511 . S
C1563 H1577 0.961 . S
C1563 H1578 0.961 . S
C1563 H1579 0.961 . S
C1564 C1565 1.371 . S
C1564 C1566 1.363 . S
C1564 H1580 0.931 . S
C1565 C1564 1.371 . S
C1565 C1569 1.408 1_545 S
C1566 C1564 1.363 . S
C1566 C1567 1.370 1_545 S
C1566 C1570 1.524 . S
C1567 C1559 1.503 . S
C1567 C1566 1.370 1_565 S
C1567 C1568 1.403 . S
C1568 C1567 1.403 . S
C1568 C1569 1.404 . S
C1568 C1571 1.539 . S
C1569 C1565 1.408 1_565 S
C1569 C1568 1.404 . S
C1569 H1581 0.930 . S
C1570 C1566 1.524 . S
C1570 H1582 0.956 . S
C1570 H1583 0.961 . S
C1570 H1584 0.961 . S
C1571 C1568 1.539 . S
C1571 H1585 0.958 . S
C1571 H1586 0.961 . S
C1571 H1587 0.960 . S
H1572 C1556 0.931 . S
H1573 C1561 0.929 . S
H1574 C1562 0.960 . S
H1575 C1562 0.962 . S
H1576 C1562 0.960 . S
H1577 C1563 0.961 . S
H1578 C1563 0.961 . S
H1579 C1563 0.961 . S
H1580 C1564 0.931 . S
H1581 C1569 0.930 . S
H1582 C1570 0.956 . S
H1583 C1570 0.961 . S
H1584 C1570 0.961 . S
H1585 C1571 0.958 . S
H1586 C1571 0.961 . S
H1587 C1571 0.960 . S
C1588 C1589 1.391 . S
C1588 C1590 1.394 . S
C1588 H1604 0.931 . S
C1589 C1588 1.391 . S
C1589 C1593 1.376 . S
C1590 C1588 1.394 . S
C1590 C1591 1.369 . S
C1590 C1594 1.531 . S
C1591 C1590 1.369 . S
C1591 C1592 1.410 . S
C1591 C1599 1.503 . S
C1592 C1591 1.410 . S
C1592 C1593 1.392 . S
C1592 C1595 1.518 . S
C1593 C1589 1.376 . S
C1593 C1592 1.392 . S
C1593 H1605 0.929 . S
C1594 C1590 1.531 . S
C1594 H1606 0.960 . S
C1594 H1607 0.962 . S
C1594 H1608 0.960 . S
C1595 C1592 1.518 . S
C1595 H1609 0.976 . S
C1595 H1610 0.982 . S
C1595 H1611 0.919 1_455 S
C1596 C1597 1.370 . S
C1596 C1598 1.363 . S
C1596 H1612 0.931 . S
C1597 C1596 1.370 . S
C1597 C1601 1.408 1_455 S
C1598 C1596 1.363 . S
C1598 C1599 1.370 . S
C1598 C1602 1.524 . S
C1599 C1591 1.503 . S
C1599 C1598 1.370 . S
C1599 C1600 1.403 1_455 S
C1600 C1599 1.403 1_655 S
C1600 C1601 1.404 . S
C1600 C1603 1.539 . S
C1601 C1597 1.408 1_655 S
C1601 C1600 1.404 . S
C1601 H1613 0.930 . S
C1602 C1598 1.524 . S
C1602 H1614 0.956 . S
C1602 H1615 0.961 . S
C1602 H1616 0.961 . S
C1603 C1600 1.539 . S
C1603 H1617 0.958 . S
C1603 H1618 0.961 . S
C1603 H1619 0.960 . S
H1604 C1588 0.931 . S
H1605 C1593 0.929 . S
H1606 C1594 0.960 . S
H1607 C1594 0.962 . S
H1608 C1594 0.960 . S
H1609 C1595 0.976 . S
H1610 C1595 0.982 . S
H1611 C1595 0.919 1_655 S
H1612 C1596 0.931 . S
H1613 C1601 0.930 . S
H1614 C1602 0.956 . S
H1615 C1602 0.961 . S
H1616 C1602 0.961 . S
H1617 C1603 0.958 . S
H1618 C1603 0.961 . S
H1619 C1603 0.960 . S
C1620 C1621 1.391 . S
C1620 C1622 1.394 . S
C1620 H1636 0.931 . S
C1621 C1620 1.391 . S
C1621 C1625 1.376 . S
C1622 C1620 1.394 . S
C1622 C1623 1.369 . S
C1622 C1626 1.531 . S
C1623 C1622 1.369 . S
C1623 C1624 1.410 . S
C1623 C1631 1.503 . S
C1624 C1623 1.410 . S
C1624 C1625 1.392 . S
C1624 C1627 1.511 . S
C1625 C1621 1.376 . S
C1625 C1624 1.392 . S
C1625 H1637 0.931 . S
C1626 C1622 1.531 . S
C1626 H1638 0.960 . S
C1626 H1639 0.962 1_565 S
C1626 H1640 0.960 . S
C1627 C1624 1.511 . S
C1627 H1641 0.961 1_565 S
C1627 H1642 0.961 1_565 S
C1627 H1643 0.961 . S
C1628 C1629 1.356 1_545 S
C1628 C1630 1.363 . S
C1628 H1644 0.931 . S
C1629 C1628 1.356 1_565 S
C1629 C1633 1.424 . S
C1630 C1628 1.363 . S
C1630 C1631 1.370 1_545 S
C1630 C1634 1.524 . S
C1631 C1623 1.503 . S
C1631 C1630 1.370 1_565 S
C1631 C1632 1.403 . S
C1632 C1631 1.403 . S
C1632 C1633 1.404 . S
C1632 C1635 1.539 . S
C1633 C1629 1.424 . S
C1633 C1632 1.404 . S
C1633 H1645 0.930 . S
C1634 C1630 1.524 . S
C1634 H1646 0.956 . S
C1634 H1647 0.961 . S
C1634 H1648 0.961 . S
C1635 C1632 1.539 . S
C1635 H1649 0.958 . S
C1635 H1650 0.961 . S
C1635 H1651 0.960 . S
H1636 C1620 0.931 . S
H1637 C1625 0.931 . S
H1638 C1626 0.960 . S
H1639 C1626 0.962 1_545 S
H1640 C1626 0.960 . S
H1641 C1627 0.961 1_545 S
H1642 C1627 0.961 1_545 S
H1643 C1627 0.961 . S
H1644 C1628 0.931 . S
H1645 C1633 0.930 . S
H1646 C1634 0.956 . S
H1647 C1634 0.961 . S
H1648 C1634 0.961 . S
H1649 C1635 0.958 . S
H1650 C1635 0.961 . S
H1651 C1635 0.960 . S
C1652 C1653 1.391 . S
C1652 C1654 1.394 . S
C1652 H1668 0.931 . S
C1653 C1652 1.391 . S
C1653 C1657 1.376 1_455 S
C1654 C1652 1.394 . S
C1654 C1655 1.369 . S
C1654 C1658 1.531 . S
C1655 C1654 1.369 . S
C1655 C1656 1.410 1_455 S
C1655 C1663 1.503 . S
C1656 C1655 1.410 1_655 S
C1656 C1657 1.392 . S
C1656 C1659 1.511 . S
C1657 C1653 1.376 1_655 S
C1657 C1656 1.392 . S
C1657 H1669 0.929 . S
C1658 C1654 1.531 . S
C1658 H1670 0.960 . S
C1658 H1671 0.962 . S
C1658 H1672 0.960 . S
C1659 C1656 1.511 . S
C1659 H1673 0.961 . S
C1659 H1674 0.961 . S
C1659 H1675 0.961 . S
C1660 C1661 1.370 . S
C1660 C1662 1.363 . S
C1660 H1676 0.931 . S
C1661 C1660 1.370 . S
C1661 C1665 1.408 . S
C1662 C1660 1.363 . S
C1662 C1663 1.370 . S
C1662 C1666 1.524 . S
C1663 C1655 1.503 . S
C1663 C1662 1.370 . S
C1663 C1664 1.403 . S
C1664 C1663 1.403 . S
C1664 C1665 1.404 . S
C1664 C1667 1.539 1_455 S
C1665 C1661 1.408 . S
C1665 C1664 1.404 . S
C1665 H1677 0.930 1_455 S
C1666 C1662 1.524 . S
C1666 H1678 0.956 . S
C1666 H1679 0.961 . S
C1666 H1680 0.961 . S
C1667 C1664 1.539 1_655 S
C1667 H1681 0.973 . S
C1667 H1682 0.961 . S
C1667 H1683 0.960 . S
H1668 C1652 0.931 . S
H1669 C1657 0.929 . S
H1670 C1658 0.960 . S
H1671 C1658 0.962 . S
H1672 C1658 0.960 . S
H1673 C1659 0.961 . S
H1674 C1659 0.961 . S
H1675 C1659 0.961 . S
H1676 C1660 0.931 . S
H1677 C1665 0.930 1_655 S
H1678 C1666 0.956 . S
H1679 C1666 0.961 . S
H1680 C1666 0.961 . S
H1681 C1667 0.973 . S
H1682 C1667 0.961 . S
H1683 C1667 0.960 . S
C1684 C1685 1.410 . S
C1684 C1686 1.394 . S
C1684 H1700 0.931 . S
C1685 C1684 1.410 . S
C1685 C1689 1.360 1_565 S
C1686 C1684 1.394 . S
C1686 C1687 1.369 . S
C1686 C1690 1.531 . S
C1687 C1686 1.369 . S
C1687 C1688 1.410 1_565 S
C1687 C1695 1.503 . S
C1688 C1687 1.410 1_545 S
C1688 C1689 1.392 . S
C1688 C1691 1.511 . S
C1689 C1685 1.360 1_545 S
C1689 C1688 1.392 . S
C1689 H1701 0.929 . S
C1690 C1686 1.531 . S
C1690 H1702 0.960 . S
C1690 H1703 0.962 . S
C1690 H1704 0.960 . S
C1691 C1688 1.511 . S
C1691 H1705 0.961 . S
C1691 H1706 0.961 . S
C1691 H1707 0.961 . S
C1692 C1693 1.368 . S
C1692 C1694 1.363 . S
C1692 H1708 0.931 . S
C1693 C1692 1.368 . S
C1693 C1697 1.410 1_545 S
C1694 C1692 1.363 . S
C1694 C1695 1.370 1_545 S
C1694 C1698 1.524 . S
C1695 C1687 1.503 . S
C1695 C1694 1.370 1_565 S
C1695 C1696 1.403 . S
C1696 C1695 1.403 . S
C1696 C1697 1.404 . S
C1696 C1699 1.539 . S
C1697 C1693 1.410 1_565 S
C1697 C1696 1.404 . S
C1697 H1709 0.930 . S
C1698 C1694 1.524 . S
C1698 H1710 0.956 . S
C1698 H1711 0.961 . S
C1698 H1712 0.961 . S
C1699 C1696 1.539 . S
C1699 H1713 0.958 . S
C1699 H1714 0.961 . S
C1699 H1715 0.960 . S
H1700 C1684 0.931 . S
H1701 C1689 0.929 . S
H1702 C1690 0.960 . S
H1703 C1690 0.962 . S
H1704 C1690 0.960 . S
H1705 C1691 0.961 . S
H1706 C1691 0.961 . S
H1707 C1691 0.961 . S
H1708 C1692 0.931 . S
H1709 C1697 0.930 . S
H1710 C1698 0.956 . S
H1711 C1698 0.961 . S
H1712 C1698 0.961 . S
H1713 C1699 0.958 . S
H1714 C1699 0.961 . S
H1715 C1699 0.960 . S
C1716 C1717 1.391 . S
C1716 C1718 1.394 . S
C1716 H1732 0.931 . S
C1717 C1716 1.391 . S
C1717 C1721 1.376 . S
C1718 C1716 1.394 . S
C1718 C1719 1.369 . S
C1718 C1722 1.531 . S
C1719 C1718 1.369 . S
C1719 C1720 1.410 . S
C1719 C1727 1.503 . S
C1720 C1719 1.410 . S
C1720 C1721 1.392 . S
C1720 C1723 1.511 1_455 S
C1721 C1717 1.376 . S
C1721 C1720 1.392 . S
C1721 H1733 0.929 1_455 S
C1722 C1718 1.531 . S
C1722 H1734 0.960 . S
C1722 H1735 0.962 . S
C1722 H1736 0.960 . S
C1723 C1720 1.511 1_655 S
C1723 H1737 0.961 . S
C1723 H1738 0.961 . S
C1723 H1739 0.961 1_655 S
C1724 C1725 1.369 . S
C1724 C1726 1.363 . S
C1724 H1740 0.933 1_455 S
C1725 C1724 1.369 . S
C1725 C1729 1.408 . S
C1726 C1724 1.363 . S
C1726 C1727 1.384 . S
C1726 C1730 1.511 1_455 S
C1727 C1719 1.503 . S
C1727 C1726 1.384 . S
C1727 C1728 1.403 . S
C1728 C1727 1.403 . S
C1728 C1729 1.404 . S
C1728 C1731 1.539 . S
C1729 C1725 1.408 . S
C1729 C1728 1.404 . S
C1729 H1741 0.930 . S
C1730 C1726 1.511 1_655 S
C1730 H1742 0.956 . S
C1730 H1743 0.961 . S
C1730 H1744 0.961 . S
C1731 C1728 1.539 . S
C1731 H1745 0.958 . S
C1731 H1746 0.961 . S
C1731 H1747 0.960 . S
H1732 C1716 0.931 . S
H1733 C1721 0.929 1_655 S
H1734 C1722 0.960 . S
H1735 C1722 0.962 . S
H1736 C1722 0.960 . S
H1737 C1723 0.961 . S
H1738 C1723 0.961 . S
H1739 C1723 0.961 1_455 S
H1740 C1724 0.933 1_655 S
H1741 C1729 0.930 . S
H1742 C1730 0.956 . S
H1743 C1730 0.961 . S
H1744 C1730 0.961 . S
H1745 C1731 0.958 . S
H1746 C1731 0.961 . S
H1747 C1731 0.960 . S
C1748 C1749 1.391 . S
C1748 C1750 1.394 . S
C1748 H1764 0.931 . S
C1749 C1748 1.391 . S
C1749 C1753 1.376 1_565 S
C1750 C1748 1.394 . S
C1750 C1751 1.369 . S
C1750 C1754 1.531 . S
C1751 C1750 1.369 . S
C1751 C1752 1.410 1_565 S
C1751 C1759 1.503 . S
C1752 C1751 1.410 1_545 S
C1752 C1753 1.392 . S
C1752 C1755 1.511 . S
C1753 C1749 1.376 1_545 S
C1753 C1752 1.392 . S
C1753 H1765 0.929 . S
C1754 C1750 1.531 . S
C1754 H1766 0.960 . S
C1754 H1767 0.962 . S
C1754 H1768 0.960 . S
C1755 C1752 1.511 . S
C1755 H1769 0.961 . S
C1755 H1770 0.961 . S
C1755 H1771 0.961 1_545 S
C1756 C1757 1.366 1_545 S
C1756 C1758 1.363 . S
C1756 H1772 0.931 . S
C1757 C1756 1.366 1_565 S
C1757 C1761 1.413 . S
C1758 C1756 1.363 . S
C1758 C1759 1.370 1_545 S
C1758 C1762 1.524 . S
C1759 C1751 1.503 . S
C1759 C1758 1.370 1_565 S
C1759 C1760 1.403 . S
C1760 C1759 1.403 . S
C1760 C1761 1.404 . S
C1760 C1763 1.539 . S
C1761 C1757 1.413 . S
C1761 C1760 1.404 . S
C1761 H1773 0.930 . S
C1762 C1758 1.524 . S
C1762 H1774 0.956 . S
C1762 H1775 0.961 . S
C1762 H1776 0.961 . S
C1763 C1760 1.539 . S
C1763 H1777 0.958 . S
C1763 H1778 0.961 . S
C1763 H1779 0.960 . S
H1764 C1748 0.931 . S
H1765 C1753 0.929 . S
H1766 C1754 0.960 . S
H1767 C1754 0.962 . S
H1768 C1754 0.960 . S
H1769 C1755 0.961 . S
H1770 C1755 0.961 . S
H1771 C1755 0.961 1_565 S
H1772 C1756 0.931 . S
H1773 C1761 0.930 . S
H1774 C1762 0.956 . S
H1775 C1762 0.961 . S
H1776 C1762 0.961 . S
H1777 C1763 0.958 . S
H1778 C1763 0.961 . S
H1779 C1763 0.960 . S
C1780 C1781 1.419 . S
C1780 C1782 1.394 . S
C1780 H1796 0.931 . S
C1781 C1780 1.419 . S
C1781 C1785 1.350 1_545 S
C1782 C1780 1.394 . S
C1782 C1783 1.369 . S
C1782 C1786 1.531 . S
C1783 C1782 1.369 . S
C1783 C1784 1.410 1_545 S
C1783 C1791 1.503 . S
C1784 C1783 1.410 1_565 S
C1784 C1785 1.392 . S
C1784 C1787 1.511 . S
C1785 C1781 1.350 1_565 S
C1785 C1784 1.392 . S
C1785 H1797 0.929 . S
C1786 C1782 1.531 . S
C1786 H1798 0.960 . S
C1786 H1799 0.962 . S
C1786 H1800 0.960 . S
C1787 C1784 1.511 . S
C1787 H1801 0.961 . S
C1787 H1802 0.961 . S
C1787 H1803 0.961 . S
C1788 C1789 1.366 1_565 S
C1788 C1790 1.363 . S
C1788 H1804 0.931 . S
C1789 C1788 1.366 1_545 S
C1789 C1793 1.414 . S
C1790 C1788 1.363 . S
C1790 C1791 1.370 1_565 S
C1790 C1794 1.524 . S
C1791 C1783 1.503 . S
C1791 C1790 1.370 1_545 S
C1791 C1792 1.403 . S
C1792 C1791 1.403 . S
C1792 C1793 1.404 . S
C1792 C1795 1.539 . S
C1793 C1789 1.414 . S
C1793 C1792 1.404 . S
C1793 H1805 0.930 . S
C1794 C1790 1.524 . S
C1794 H1806 0.956 1_565 S
C1794 H1807 0.961 . S
C1794 H1808 0.961 . S
C1795 C1792 1.539 . S
C1795 H1809 0.958 . S
C1795 H1810 0.961 . S
C1795 H1811 0.960 . S
H1796 C1780 0.931 . S
H1797 C1785 0.929 . S
H1798 C1786 0.960 . S
H1799 C1786 0.962 . S
H1800 C1786 0.960 . S
H1801 C1787 0.961 . S
H1802 C1787 0.961 . S
H1803 C1787 0.961 . S
H1804 C1788 0.931 . S
H1805 C1793 0.930 . S
H1806 C1794 0.956 1_545 S
H1807 C1794 0.961 . S
H1808 C1794 0.961 . S
H1809 C1795 0.958 . S
H1810 C1795 0.961 . S
H1811 C1795 0.960 . S
C1812 C1813 1.391 . S
C1812 C1814 1.394 . S
C1812 H1828 0.931 . S
C1813 C1812 1.391 . S
C1813 C1817 1.376 1_455 S
C1814 C1812 1.394 . S
C1814 C1815 1.369 . S
C1814 C1818 1.531 . S
C1815 C1814 1.369 . S
C1815 C1816 1.410 1_455 S
C1815 C1823 1.503 . S
C1816 C1815 1.410 1_655 S
C1816 C1817 1.392 . S
C1816 C1819 1.511 . S
C1817 C1813 1.376 1_655 S
C1817 C1816 1.392 . S
C1817 H1829 0.929 . S
C1818 C1814 1.531 . S
C1818 H1830 0.960 . S
C1818 H1831 0.962 . S
C1818 H1832 0.960 . S
C1819 C1816 1.511 . S
C1819 H1833 0.961 . S
C1819 H1834 0.961 . S
C1819 H1835 0.961 . S
C1820 C1821 1.370 . S
C1820 C1822 1.363 . S
C1820 H1836 0.931 . S
C1821 C1820 1.370 . S
C1821 C1825 1.408 . S
C1822 C1820 1.363 . S
C1822 C1823 1.370 . S
C1822 C1826 1.524 . S
C1823 C1815 1.503 . S
C1823 C1822 1.370 . S
C1823 C1824 1.403 . S
C1824 C1823 1.403 . S
C1824 C1825 1.404 . S
C1824 C1827 1.540 . S
C1825 C1821 1.408 . S
C1825 C1824 1.404 . S
C1825 H1837 0.930 . S
C1826 C1822 1.524 . S
C1826 H1838 0.956 . S
C1826 H1839 0.940 1_455 S
C1826 H1840 0.961 . S
C1827 C1824 1.540 . S
C1827 H1841 0.963 . S
C1827 H1842 0.958 1_455 S
C1827 H1843 0.957 1_455 S
H1828 C1812 0.931 . S
H1829 C1817 0.929 . S
H1830 C1818 0.960 . S
H1831 C1818 0.962 . S
H1832 C1818 0.960 . S
H1833 C1819 0.961 . S
H1834 C1819 0.961 . S
H1835 C1819 0.961 . S
H1836 C1820 0.931 . S
H1837 C1825 0.930 . S
H1838 C1826 0.956 . S
H1839 C1826 0.940 1_655 S
H1840 C1826 0.961 . S
H1841 C1827 0.963 . S
H1842 C1827 0.958 1_655 S
H1843 C1827 0.957 1_655 S
C1844 C1845 1.391 . S
C1844 C1846 1.394 . S
C1844 H1860 0.931 . S
C1845 C1844 1.391 . S
C1845 C1849 1.376 1_545 S
C1846 C1844 1.394 . S
C1846 C1847 1.369 . S
C1846 C1850 1.531 . S
C1847 C1846 1.369 . S
C1847 C1848 1.410 1_545 S
C1847 C1855 1.503 . S
C1848 C1847 1.410 1_565 S
C1848 C1849 1.392 . S
C1848 C1851 1.511 . S
C1849 C1845 1.376 1_565 S
C1849 C1848 1.392 . S
C1849 H1861 0.929 . S
C1850 C1846 1.531 . S
C1850 H1862 0.960 . S
C1850 H1863 0.962 . S
C1850 H1864 0.960 . S
C1851 C1848 1.511 . S
C1851 H1865 0.961 . S
C1851 H1866 0.961 . S
C1851 H1867 0.961 . S
C1852 C1853 1.370 1_565 S
C1852 C1854 1.363 . S
C1852 H1868 0.931 . S
C1853 C1852 1.370 1_545 S
C1853 C1857 1.408 . S
C1854 C1852 1.363 . S
C1854 C1855 1.370 1_565 S
C1854 C1858 1.524 . S
C1855 C1847 1.503 . S
C1855 C1854 1.370 1_545 S
C1855 C1856 1.403 . S
C1856 C1855 1.403 . S
C1856 C1857 1.404 . S
C1856 C1859 1.539 . S
C1857 C1853 1.408 . S
C1857 C1856 1.404 . S
C1857 H1869 0.930 . S
C1858 C1854 1.524 . S
C1858 H1870 0.956 . S
C1858 H1871 0.961 . S
C1858 H1872 0.961 . S
C1859 C1856 1.539 . S
C1859 H1873 0.958 . S
C1859 H1874 0.961 . S
C1859 H1875 0.960 . S
H1860 C1844 0.931 . S
H1861 C1849 0.929 . S
H1862 C1850 0.960 . S
H1863 C1850 0.962 . S
H1864 C1850 0.960 . S
H1865 C1851 0.961 . S
H1866 C1851 0.961 . S
H1867 C1851 0.961 . S
H1868 C1852 0.931 . S
H1869 C1857 0.930 . S
H1870 C1858 0.956 . S
H1871 C1858 0.961 . S
H1872 C1858 0.961 . S
H1873 C1859 0.958 . S
H1874 C1859 0.961 . S
H1875 C1859 0.960 . S
C1876 C1877 1.391 . S
C1876 C1878 1.394 . S
C1876 H1892 0.931 . S
C1877 C1876 1.391 . S
C1877 C1881 1.376 1_455 S
C1878 C1876 1.394 . S
C1878 C1879 1.369 . S
C1878 C1882 1.531 . S
C1879 C1878 1.369 . S
C1879 C1880 1.410 1_455 S
C1879 C1887 1.503 . S
C1880 C1879 1.410 1_655 S
C1880 C1881 1.392 . S
C1880 C1883 1.511 . S
C1881 C1877 1.376 1_655 S
C1881 C1880 1.392 . S
C1881 H1893 0.929 . S
C1882 C1878 1.531 . S
C1882 H1894 0.960 . S
C1882 H1895 0.962 . S
C1882 H1896 0.960 . S
C1883 C1880 1.511 . S
C1883 H1897 0.961 . S
C1883 H1898 0.961 . S
C1883 H1899 0.961 . S
C1884 C1885 1.370 . S
C1884 C1886 1.363 . S
C1884 H1900 0.931 . S
C1885 C1884 1.370 . S
C1885 C1889 1.397 1_455 S
C1886 C1884 1.363 . S
C1886 C1887 1.370 . S
C1886 C1890 1.524 . S
C1887 C1879 1.503 . S
C1887 C1886 1.370 . S
C1887 C1888 1.398 1_455 S
C1888 C1887 1.398 1_655 S
C1888 C1889 1.404 . S
C1888 C1891 1.545 . S
C1889 C1885 1.397 1_655 S
C1889 C1888 1.404 . S
C1889 H1901 0.943 . S
C1890 C1886 1.524 . S
C1890 H1902 0.956 . S
C1890 H1903 0.961 . S
C1890 H1904 0.961 . S
C1891 C1888 1.545 . S
C1891 H1905 0.958 1_655 S
C1891 H1906 0.961 . S
C1891 H1907 0.960 . S
H1892 C1876 0.931 . S
H1893 C1881 0.929 . S
H1894 C1882 0.960 . S
H1895 C1882 0.962 . S
H1896 C1882 0.960 . S
H1897 C1883 0.961 . S
H1898 C1883 0.961 . S
H1899 C1883 0.961 . S
H1900 C1884 0.931 . S
H1901 C1889 0.943 . S
H1902 C1890 0.956 . S
H1903 C1890 0.961 . S
H1904 C1890 0.961 . S
H1905 C1891 0.958 1_455 S
H1906 C1891 0.961 . S
H1907 C1891 0.960 . S
C1908 C1909 1.391 . S
C1908 C1910 1.394 . S
C1908 H1924 0.931 . S
C1909 C1908 1.391 . S
C1909 C1913 1.376 1_545 S
C1910 C1908 1.394 . S
C1910 C1911 1.369 . S
C1910 C1914 1.531 . S
C1911 C1910 1.369 . S
C1911 C1912 1.410 1_545 S
C1911 C1919 1.503 . S
C1912 C1911 1.410 1_565 S
C1912 C1913 1.392 . S
C1912 C1915 1.511 . S
C1913 C1909 1.376 1_565 S
C1913 C1912 1.392 . S
C1913 H1925 0.929 . S
C1914 C1910 1.531 . S
C1914 H1926 0.960 . S
C1914 H1927 0.962 . S
C1914 H1928 0.960 . S
C1915 C1912 1.511 . S
C1915 H1929 0.961 . S
C1915 H1930 0.961 . S
C1915 H1931 0.961 . S
C1916 C1917 1.370 1_565 S
C1916 C1918 1.363 . S
C1916 H1932 0.931 . S
C1917 C1916 1.370 1_545 S
C1917 C1921 1.408 . S
C1918 C1916 1.363 . S
C1918 C1919 1.370 1_565 S
C1918 C1922 1.524 . S
C1919 C1911 1.503 . S
C1919 C1918 1.370 1_545 S
C1919 C1920 1.403 . S
C1920 C1919 1.403 . S
C1920 C1921 1.404 . S
C1920 C1923 1.539 . S
C1921 C1917 1.408 . S
C1921 C1920 1.404 . S
C1921 H1933 0.930 . S
C1922 C1918 1.524 . S
C1922 H1934 0.956 . S
C1922 H1935 0.961 . S
C1922 H1936 0.961 . S
C1923 C1920 1.539 . S
C1923 H1937 0.958 . S
C1923 H1938 0.961 . S
C1923 H1939 0.960 . S
H1924 C1908 0.931 . S
H1925 C1913 0.929 . S
H1926 C1914 0.960 . S
H1927 C1914 0.962 . S
H1928 C1914 0.960 . S
H1929 C1915 0.961 . S
H1930 C1915 0.961 . S
H1931 C1915 0.961 . S
H1932 C1916 0.931 . S
H1933 C1921 0.930 . S
H1934 C1922 0.956 . S
H1935 C1922 0.961 . S
H1936 C1922 0.961 . S
H1937 C1923 0.958 . S
H1938 C1923 0.961 . S
H1939 C1923 0.960 . S
C1940 C1941 1.391 1_655 S
C1940 C1942 1.394 . S
C1940 H1956 0.931 . S
C1941 C1940 1.391 1_455 S
C1941 C1945 1.376 . S
C1942 C1940 1.394 . S
C1942 C1943 1.369 1_655 S
C1942 C1946 1.531 . S
C1943 C1942 1.369 1_455 S
C1943 C1944 1.410 . S
C1943 C1951 1.503 . S
C1944 C1943 1.410 . S
C1944 C1945 1.392 . S
C1944 C1947 1.511 . S
C1945 C1941 1.376 . S
C1945 C1944 1.392 . S
C1945 H1957 0.929 . S
C1946 C1942 1.531 . S
C1946 H1958 0.960 . S
C1946 H1959 0.962 . S
C1946 H1960 0.960 . S
C1947 C1944 1.511 . S
C1947 H1961 0.961 . S
C1947 H1962 0.961 . S
C1947 H1963 0.961 . S
C1948 C1949 1.370 . S
C1948 C1950 1.363 . S
C1948 H1964 0.931 1_455 S
C1949 C1948 1.370 . S
C1949 C1953 1.408 . S
C1950 C1948 1.363 . S
C1950 C1951 1.370 . S
C1950 C1954 1.524 . S
C1951 C1943 1.503 . S
C1951 C1950 1.370 . S
C1951 C1952 1.403 . S
C1952 C1951 1.403 . S
C1952 C1953 1.404 . S
C1952 C1955 1.539 . S
C1953 C1949 1.408 . S
C1953 C1952 1.404 . S
C1953 H1965 0.930 . S
C1954 C1950 1.524 . S
C1954 H1966 0.958 1_455 S
C1954 H1967 0.959 . S
C1954 H1968 0.961 1_455 S
C1955 C1952 1.539 . S
C1955 H1969 0.958 . S
C1955 H1970 0.961 . S
C1955 H1971 0.960 . S
H1956 C1940 0.931 . S
H1957 C1945 0.929 . S
H1958 C1946 0.960 . S
H1959 C1946 0.962 . S
H1960 C1946 0.960 . S
H1961 C1947 0.961 . S
H1962 C1947 0.961 . S
H1963 C1947 0.961 . S
H1964 C1948 0.931 1_655 S
H1965 C1953 0.930 . S
H1966 C1954 0.958 1_655 S
H1967 C1954 0.959 . S
H1968 C1954 0.961 1_655 S
H1969 C1955 0.958 . S
H1970 C1955 0.961 . S
H1971 C1955 0.960 . S
C1972 C1973 1.391 . S
C1972 C1974 1.394 . S
C1972 H1988 0.931 . S
C1973 C1972 1.391 . S
C1973 C1977 1.376 1_545 S
C1974 C1972 1.394 . S
C1974 C1975 1.369 . S
C1974 C1978 1.531 . S
C1975 C1974 1.369 . S
C1975 C1976 1.410 1_545 S
C1975 C1983 1.503 . S
C1976 C1975 1.410 1_565 S
C1976 C1977 1.392 . S
C1976 C1979 1.511 . S
C1977 C1973 1.376 1_565 S
C1977 C1976 1.392 . S
C1977 H1989 0.929 . S
C1978 C1974 1.531 . S
C1978 H1990 0.960 . S
C1978 H1991 0.962 . S
C1978 H1992 0.960 . S
C1979 C1976 1.511 . S
C1979 H1993 0.961 . S
C1979 H1994 0.961 . S
C1979 H1995 0.961 . S
C1980 C1981 1.360 1_565 S
C1980 C1982 1.363 . S
C1980 H1996 0.931 . S
C1981 C1980 1.360 1_545 S
C1981 C1985 1.422 . S
C1982 C1980 1.363 . S
C1982 C1983 1.370 1_565 S
C1982 C1986 1.524 . S
C1983 C1975 1.503 . S
C1983 C1982 1.370 1_545 S
C1983 C1984 1.403 . S
C1984 C1983 1.403 . S
C1984 C1985 1.404 . S
C1984 C1987 1.539 . S
C1985 C1981 1.422 . S
C1985 C1984 1.404 . S
C1985 H1997 0.930 . S
C1986 C1982 1.524 . S
C1986 H1998 0.956 . S
C1986 H1999 0.961 . S
C1986 H2000 0.961 . S
C1987 C1984 1.539 . S
C1987 H2001 0.958 . S
C1987 H2002 0.961 . S
C1987 H2003 0.960 . S
H1988 C1972 0.931 . S
H1989 C1977 0.929 . S
H1990 C1978 0.960 . S
H1991 C1978 0.962 . S
H1992 C1978 0.960 . S
H1993 C1979 0.961 . S
H1994 C1979 0.961 . S
H1995 C1979 0.961 . S
H1996 C1980 0.931 . S
H1997 C1985 0.930 . S
H1998 C1986 0.956 . S
H1999 C1986 0.961 . S
H2000 C1986 0.961 . S
H2001 C1987 0.958 . S
H2002 C1987 0.961 . S
H2003 C1987 0.960 . S
C2004 C2005 1.391 . S
C2004 C2006 1.394 . S
C2004 H2020 0.931 . S
C2005 C2004 1.391 . S
C2005 C2009 1.376 1_455 S
C2006 C2004 1.394 . S
C2006 C2007 1.369 . S
C2006 C2010 1.531 . S
C2007 C2006 1.369 . S
C2007 C2008 1.410 1_455 S
C2007 C2015 1.503 . S
C2008 C2007 1.410 1_655 S
C2008 C2009 1.392 . S
C2008 C2011 1.511 . S
C2009 C2005 1.376 1_655 S
C2009 C2008 1.392 . S
C2009 H2021 0.929 . S
C2010 C2006 1.531 . S
C2010 H2022 0.960 . S
C2010 H2023 0.962 . S
C2010 H2024 0.960 . S
C2011 C2008 1.511 . S
C2011 H2025 0.961 . S
C2011 H2026 0.961 . S
C2011 H2027 0.961 . S
C2012 C2013 1.370 . S
C2012 C2014 1.363 . S
C2012 H2028 0.931 . S
C2013 C2012 1.370 . S
C2013 C2017 1.408 1_455 S
C2014 C2012 1.363 . S
C2014 C2015 1.370 . S
C2014 C2018 1.524 . S
C2015 C2007 1.503 . S
C2015 C2014 1.370 . S
C2015 C2016 1.403 1_455 S
C2016 C2015 1.403 1_655 S
C2016 C2017 1.404 . S
C2016 C2019 1.539 . S
C2017 C2013 1.408 1_655 S
C2017 C2016 1.404 . S
C2017 H2029 0.930 . S
C2018 C2014 1.524 . S
C2018 H2030 0.956 . S
C2018 H2031 0.961 . S
C2018 H2032 0.961 . S
C2019 C2016 1.539 . S
C2019 H2033 0.958 . S
C2019 H2034 0.961 . S
C2019 H2035 0.960 . S
H2020 C2004 0.931 . S
H2021 C2009 0.929 . S
H2022 C2010 0.960 . S
H2023 C2010 0.962 . S
H2024 C2010 0.960 . S
H2025 C2011 0.961 . S
H2026 C2011 0.961 . S
H2027 C2011 0.961 . S
H2028 C2012 0.931 . S
H2029 C2017 0.930 . S
H2030 C2018 0.956 . S
H2031 C2018 0.961 . S
H2032 C2018 0.961 . S
H2033 C2019 0.958 . S
H2034 C2019 0.961 . S
H2035 C2019 0.960 . S
C2036 C2037 1.396 . S
C2036 C2038 1.391 1_554 S
C2036 H2052 0.930 1_554 S
C2037 C2036 1.396 . S
C2037 C2041 1.376 . S
C2038 C2036 1.391 1_556 S
C2038 C2039 1.371 . S
C2038 C2042 1.531 . S
C2039 C2038 1.371 . S
C2039 C2040 1.406 1_556 S
C2039 C2047 1.503 1_556 S
C2040 C2039 1.406 1_554 S
C2040 C2041 1.392 . S
C2040 C2043 1.511 . S
C2041 C2037 1.376 . S
C2041 C2040 1.392 . S
C2041 H2053 0.929 . S
C2042 C2038 1.531 . S
C2042 H2054 0.960 . S
C2042 H2055 0.962 1_556 S
C2042 H2056 0.960 . S
C2043 C2040 1.511 . S
C2043 H2057 0.961 . S
C2043 H2058 0.961 . S
C2043 H2059 0.961 1_554 S
C2044 C2045 1.370 . S
C2044 C2046 1.363 . S
C2044 H2060 0.931 . S
C2045 C2044 1.370 . S
C2045 C2049 1.408 1_554 S
C2046 C2044 1.363 . S
C2046 C2047 1.366 . S
C2046 C2050 1.524 . S
C2047 C2039 1.503 1_554 S
C2047 C2046 1.366 . S
C2047 C2048 1.407 1_554 S
C2048 C2047 1.407 1_556 S
C2048 C2049 1.404 . S
C2048 C2051 1.539 . S
C2049 C2045 1.408 1_556 S
C2049 C2048 1.404 . S
C2049 H2061 0.930 . S
C2050 C2046 1.524 . S
C2050 H2062 0.956 . S
C2050 H2063 0.961 . S
C2050 H2064 0.961 . S
C2051 C2048 1.539 . S
C2051 H2065 0.958 . S
C2051 H2066 0.961 . S
C2051 H2067 0.960 . S
H2052 C2036 0.930 1_556 S
H2053 C2041 0.929 . S
H2054 C2042 0.960 . S
H2055 C2042 0.962 1_554 S
H2056 C2042 0.960 . S
H2057 C2043 0.961 . S
H2058 C2043 0.961 . S
H2059 C2043 0.961 1_556 S
H2060 C2044 0.931 . S
H2061 C2049 0.930 . S
H2062 C2050 0.956 . S
H2063 C2050 0.961 . S
H2064 C2050 0.961 . S
H2065 C2051 0.958 . S
H2066 C2051 0.961 . S
H2067 C2051 0.960 . S
C2068 C2069 1.391 . S
C2068 C2070 1.394 . S
C2068 H2084 0.931 . S
C2069 C2068 1.391 . S
C2069 C2073 1.376 1_554 S
C2070 C2068 1.394 . S
C2070 C2071 1.369 . S
C2070 C2074 1.531 . S
C2071 C2070 1.369 . S
C2071 C2072 1.410 1_554 S
C2071 C2079 1.503 . S
C2072 C2071 1.410 1_556 S
C2072 C2073 1.392 . S
C2072 C2075 1.511 . S
C2073 C2069 1.376 1_556 S
C2073 C2072 1.392 . S
C2073 H2085 0.929 . S
C2074 C2070 1.531 . S
C2074 H2086 0.960 . S
C2074 H2087 0.962 . S
C2074 H2088 0.960 . S
C2075 C2072 1.511 . S
C2075 H2089 0.961 . S
C2075 H2090 0.961 . S
C2075 H2091 0.941 1_556 S
C2076 C2077 1.370 1_556 S
C2076 C2078 1.363 . S
C2076 H2092 0.931 . S
C2077 C2076 1.370 1_554 S
C2077 C2081 1.408 . S
C2078 C2076 1.363 . S
C2078 C2079 1.370 1_556 S
C2078 C2082 1.524 . S
C2079 C2071 1.503 . S
C2079 C2078 1.370 1_554 S
C2079 C2080 1.403 . S
C2080 C2079 1.403 . S
C2080 C2081 1.404 . S
C2080 C2083 1.539 . S
C2081 C2077 1.408 . S
C2081 C2080 1.404 . S
C2081 H2093 0.930 . S
C2082 C2078 1.524 . S
C2082 H2094 0.956 . S
C2082 H2095 0.961 . S
C2082 H2096 0.961 . S
C2083 C2080 1.539 . S
C2083 H2097 0.958 . S
C2083 H2098 0.961 . S
C2083 H2099 0.960 . S
H2084 C2068 0.931 . S
H2085 C2073 0.929 . S
H2086 C2074 0.960 . S
H2087 C2074 0.962 . S
H2088 C2074 0.960 . S
H2089 C2075 0.961 . S
H2090 C2075 0.961 . S
H2091 C2075 0.941 1_554 S
H2092 C2076 0.931 . S
H2093 C2081 0.930 . S
H2094 C2082 0.956 . S
H2095 C2082 0.961 . S
H2096 C2082 0.961 . S
H2097 C2083 0.958 . S
H2098 C2083 0.961 . S
H2099 C2083 0.960 . S
C2100 C2101 1.391 . S
C2100 C2102 1.394 . S
C2100 H2116 0.931 . S
C2101 C2100 1.391 . S
C2101 C2105 1.376 . S
C2102 C2100 1.394 . S
C2102 C2103 1.369 . S
C2102 C2106 1.531 . S
C2103 C2102 1.369 . S
C2103 C2104 1.410 . S
C2103 C2111 1.503 . S
C2104 C2103 1.410 . S
C2104 C2105 1.392 . S
C2104 C2107 1.514 . S
C2105 C2101 1.376 . S
C2105 C2104 1.392 . S
C2105 H2117 0.917 1_554 S
C2106 C2102 1.531 . S
C2106 H2118 0.960 . S
C2106 H2119 0.962 . S
C2106 H2120 0.960 . S
C2107 C2104 1.514 . S
C2107 H2121 0.952 1_554 S
C2107 H2122 0.957 1_554 S
C2107 H2123 0.970 . S
C2108 C2109 1.370 1_556 S
C2108 C2110 1.363 . S
C2108 H2124 0.931 . S
C2109 C2108 1.370 1_554 S
C2109 C2113 1.408 . S
C2110 C2108 1.363 . S
C2110 C2111 1.370 1_556 S
C2110 C2114 1.524 . S
C2111 C2103 1.503 . S
C2111 C2110 1.370 1_554 S
C2111 C2112 1.403 . S
C2112 C2111 1.403 . S
C2112 C2113 1.404 . S
C2112 C2115 1.539 . S
C2113 C2109 1.408 . S
C2113 C2112 1.404 . S
C2113 H2125 0.930 . S
C2114 C2110 1.524 . S
C2114 H2126 0.956 . S
C2114 H2127 0.961 . S
C2114 H2128 0.961 . S
C2115 C2112 1.539 . S
C2115 H2129 0.958 . S
C2115 H2130 0.961 . S
C2115 H2131 0.960 . S
H2116 C2100 0.931 . S
H2117 C2105 0.917 1_556 S
H2118 C2106 0.960 . S
H2119 C2106 0.962 . S
H2120 C2106 0.960 . S
H2121 C2107 0.952 1_556 S
H2122 C2107 0.957 1_556 S
H2123 C2107 0.970 . S
H2124 C2108 0.931 . S
H2125 C2113 0.930 . S
H2126 C2114 0.956 . S
H2127 C2114 0.961 . S
H2128 C2114 0.961 . S
H2129 C2115 0.958 . S
H2130 C2115 0.961 . S
H2131 C2115 0.960 . S
C2132 C2133 1.391 . S
C2132 C2134 1.394 . S
C2132 H2148 0.931 . S
C2133 C2132 1.391 . S
C2133 C2137 1.376 1_554 S
C2134 C2132 1.394 . S
C2134 C2135 1.369 . S
C2134 C2138 1.531 . S
C2135 C2134 1.369 . S
C2135 C2136 1.410 1_554 S
C2135 C2143 1.503 . S
C2136 C2135 1.410 1_556 S
C2136 C2137 1.392 . S
C2136 C2139 1.511 . S
C2137 C2133 1.376 1_556 S
C2137 C2136 1.392 . S
C2137 H2149 0.929 . S
C2138 C2134 1.531 . S
C2138 H2150 0.960 . S
C2138 H2151 0.962 . S
C2138 H2152 0.960 . S
C2139 C2136 1.511 . S
C2139 H2153 0.961 . S
C2139 H2154 0.961 . S
C2139 H2155 0.961 . S
C2140 C2141 1.370 1_556 S
C2140 C2142 1.363 . S
C2140 H2156 0.931 . S
C2141 C2140 1.370 1_554 S
C2141 C2145 1.408 . S
C2142 C2140 1.363 . S
C2142 C2143 1.370 1_556 S
C2142 C2146 1.524 . S
C2143 C2135 1.503 . S
C2143 C2142 1.370 1_554 S
C2143 C2144 1.403 . S
C2144 C2143 1.403 . S
C2144 C2145 1.404 . S
C2144 C2147 1.539 . S
C2145 C2141 1.408 . S
C2145 C2144 1.404 . S
C2145 H2157 0.930 . S
C2146 C2142 1.524 . S
C2146 H2158 0.956 1_556 S
C2146 H2159 0.961 . S
C2146 H2160 0.961 . S
C2147 C2144 1.539 . S
C2147 H2161 0.958 . S
C2147 H2162 0.961 . S
C2147 H2163 0.960 . S
H2148 C2132 0.931 . S
H2149 C2137 0.929 . S
H2150 C2138 0.960 . S
H2151 C2138 0.962 . S
H2152 C2138 0.960 . S
H2153 C2139 0.961 . S
H2154 C2139 0.961 . S
H2155 C2139 0.961 . S
H2156 C2140 0.931 . S
H2157 C2145 0.930 . S
H2158 C2146 0.956 1_554 S
H2159 C2146 0.961 . S
H2160 C2146 0.961 . S
H2161 C2147 0.958 . S
H2162 C2147 0.961 . S
H2163 C2147 0.960 . S
C2164 C2165 1.391 . S
C2164 C2166 1.394 . S
C2164 H2180 0.931 . S
C2165 C2164 1.391 . S
C2165 C2169 1.376 1_554 S
C2166 C2164 1.394 . S
C2166 C2167 1.369 . S
C2166 C2170 1.531 . S
C2167 C2166 1.369 . S
C2167 C2168 1.410 1_554 S
C2167 C2175 1.503 . S
C2168 C2167 1.410 1_556 S
C2168 C2169 1.392 . S
C2168 C2171 1.511 . S
C2169 C2165 1.376 1_556 S
C2169 C2168 1.392 . S
C2169 H2181 0.929 . S
C2170 C2166 1.531 . S
C2170 H2182 0.960 . S
C2170 H2183 0.962 . S
C2170 H2184 0.960 . S
C2171 C2168 1.511 . S
C2171 H2185 0.961 . S
C2171 H2186 0.961 . S
C2171 H2187 0.961 . S
C2172 C2173 1.370 . S
C2172 C2174 1.363 . S
C2172 H2188 0.931 . S
C2173 C2172 1.370 . S
C2173 C2177 1.408 1_554 S
C2174 C2172 1.363 . S
C2174 C2175 1.370 . S
C2174 C2178 1.524 . S
C2175 C2167 1.503 . S
C2175 C2174 1.370 . S
C2175 C2176 1.403 1_554 S
C2176 C2175 1.403 1_556 S
C2176 C2177 1.404 . S
C2176 C2179 1.539 . S
C2177 C2173 1.408 1_556 S
C2177 C2176 1.404 . S
C2177 H2189 0.930 . S
C2178 C2174 1.524 . S
C2178 H2190 0.956 . S
C2178 H2191 0.961 . S
C2178 H2192 0.961 . S
C2179 C2176 1.539 . S
C2179 H2193 0.958 . S
C2179 H2194 0.961 . S
C2179 H2195 0.960 . S
H2180 C2164 0.931 . S
H2181 C2169 0.929 . S
H2182 C2170 0.960 . S
H2183 C2170 0.962 . S
H2184 C2170 0.960 . S
H2185 C2171 0.961 . S
H2186 C2171 0.961 . S
H2187 C2171 0.961 . S
H2188 C2172 0.931 . S
H2189 C2177 0.930 . S
H2190 C2178 0.956 . S
H2191 C2178 0.961 . S
H2192 C2178 0.961 . S
H2193 C2179 0.958 . S
H2194 C2179 0.961 . S
H2195 C2179 0.960 . S
C2196 C2197 1.391 . S
C2196 C2198 1.394 . S
C2196 H2212 0.931 . S
C2197 C2196 1.391 . S
C2197 C2201 1.376 1_554 S
C2198 C2196 1.394 . S
C2198 C2199 1.369 . S
C2198 C2202 1.531 . S
C2199 C2198 1.369 . S
C2199 C2200 1.410 1_554 S
C2199 C2207 1.503 . S
C2200 C2199 1.410 1_556 S
C2200 C2201 1.392 . S
C2200 C2203 1.511 . S
C2201 C2197 1.376 1_556 S
C2201 C2200 1.392 . S
C2201 H2213 0.929 . S
C2202 C2198 1.531 . S
C2202 H2214 0.960 . S
C2202 H2215 0.962 . S
C2202 H2216 0.960 . S
C2203 C2200 1.511 . S
C2203 H2217 0.961 . S
C2203 H2218 0.961 . S
C2203 H2219 0.961 . S
C2204 C2205 1.370 1_556 S
C2204 C2206 1.363 . S
C2204 H2220 0.931 . S
C2205 C2204 1.370 1_554 S
C2205 C2209 1.408 . S
C2206 C2204 1.363 . S
C2206 C2207 1.370 1_556 S
C2206 C2210 1.524 . S
C2207 C2199 1.503 . S
C2207 C2206 1.370 1_554 S
C2207 C2208 1.403 . S
C2208 C2207 1.403 . S
C2208 C2209 1.404 . S
C2208 C2211 1.539 . S
C2209 C2205 1.408 . S
C2209 C2208 1.404 . S
C2209 H2221 0.930 . S
C2210 C2206 1.524 . S
C2210 H2222 0.956 . S
C2210 H2223 0.961 . S
C2210 H2224 0.961 . S
C2211 C2208 1.539 . S
C2211 H2225 0.958 . S
C2211 H2226 0.961 . S
C2211 H2227 0.960 . S
H2212 C2196 0.931 . S
H2213 C2201 0.929 . S
H2214 C2202 0.960 . S
H2215 C2202 0.962 . S
H2216 C2202 0.960 . S
H2217 C2203 0.961 . S
H2218 C2203 0.961 . S
H2219 C2203 0.961 . S
H2220 C2204 0.931 . S
H2221 C2209 0.930 . S
H2222 C2210 0.956 . S
H2223 C2210 0.961 . S
H2224 C2210 0.961 . S
H2225 C2211 0.958 . S
H2226 C2211 0.961 . S
H2227 C2211 0.960 . S
C2228 C2229 1.391 . S
C2228 C2230 1.394 . S
C2228 H2244 0.931 1_554 S
C2229 C2228 1.391 . S
C2229 C2233 1.376 . S
C2230 C2228 1.394 . S
C2230 C2231 1.369 . S
C2230 C2234 1.531 1_554 S
C2231 C2230 1.369 . S
C2231 C2232 1.410 . S
C2231 C2239 1.503 . S
C2232 C2231 1.410 . S
C2232 C2233 1.392 . S
C2232 C2235 1.511 . S
C2233 C2229 1.376 . S
C2233 C2232 1.392 . S
C2233 H2245 0.929 . S
C2234 C2230 1.531 1_556 S
C2234 H2246 0.960 1_556 S
C2234 H2247 0.962 . S
C2234 H2248 0.960 . S
C2235 C2232 1.511 . S
C2235 H2249 0.961 . S
C2235 H2250 0.961 . S
C2235 H2251 0.961 . S
C2236 C2237 1.370 1_556 S
C2236 C2238 1.363 . S
C2236 H2252 0.931 . S
C2237 C2236 1.370 1_554 S
C2237 C2241 1.408 . S
C2238 C2236 1.363 . S
C2238 C2239 1.370 1_556 S
C2238 C2242 1.524 . S
C2239 C2231 1.503 . S
C2239 C2238 1.370 1_554 S
C2239 C2240 1.403 . S
C2240 C2239 1.403 . S
C2240 C2241 1.404 . S
C2240 C2243 1.539 . S
C2241 C2237 1.408 . S
C2241 C2240 1.404 . S
C2241 H2253 0.930 . S
C2242 C2238 1.524 . S
C2242 H2254 0.956 . S
C2242 H2255 0.961 . S
C2242 H2256 0.961 . S
C2243 C2240 1.539 . S
C2243 H2257 0.958 . S
C2243 H2258 0.961 . S
C2243 H2259 0.960 . S
H2244 C2228 0.931 1_556 S
H2245 C2233 0.929 . S
H2246 C2234 0.960 1_554 S
H2247 C2234 0.962 . S
H2248 C2234 0.960 . S
H2249 C2235 0.961 . S
H2250 C2235 0.961 . S
H2251 C2235 0.961 . S
H2252 C2236 0.931 . S
H2253 C2241 0.930 . S
H2254 C2242 0.956 . S
H2255 C2242 0.961 . S
H2256 C2242 0.961 . S
H2257 C2243 0.958 . S
H2258 C2243 0.961 . S
H2259 C2243 0.960 . S
C2260 C2261 1.391 . S
C2260 C2262 1.394 . S
C2260 H2276 0.931 . S
C2261 C2260 1.391 . S
C2261 C2265 1.376 1_554 S
C2262 C2260 1.394 . S
C2262 C2263 1.369 . S
C2262 C2266 1.531 . S
C2263 C2262 1.369 . S
C2263 C2264 1.410 1_554 S
C2263 C2271 1.503 . S
C2264 C2263 1.410 1_556 S
C2264 C2265 1.392 . S
C2264 C2267 1.511 . S
C2265 C2261 1.376 1_556 S
C2265 C2264 1.392 . S
C2265 H2277 0.929 . S
C2266 C2262 1.531 . S
C2266 H2278 0.960 . S
C2266 H2279 0.962 . S
C2266 H2280 0.960 . S
C2267 C2264 1.511 . S
C2267 H2281 0.961 . S
C2267 H2282 0.961 . S
C2267 H2283 0.961 . S
C2268 C2269 1.370 . S
C2268 C2270 1.363 . S
C2268 H2284 0.931 . S
C2269 C2268 1.370 . S
C2269 C2273 1.408 . S
C2270 C2268 1.363 . S
C2270 C2271 1.370 . S
C2270 C2274 1.524 . S
C2271 C2263 1.503 . S
C2271 C2270 1.370 . S
C2271 C2272 1.403 . S
C2272 C2271 1.403 . S
C2272 C2273 1.404 . S
C2272 C2275 1.539 . S
C2273 C2269 1.408 . S
C2273 C2272 1.404 . S
C2273 H2285 0.930 . S
C2274 C2270 1.524 . S
C2274 H2286 0.956 . S
C2274 H2287 0.961 1_554 S
C2274 H2288 0.961 . S
C2275 C2272 1.539 . S
C2275 H2289 0.958 . S
C2275 H2290 0.961 . S
C2275 H2291 0.960 . S
H2276 C2260 0.931 . S
H2277 C2265 0.929 . S
H2278 C2266 0.960 . S
H2279 C2266 0.962 . S
H2280 C2266 0.960 . S
H2281 C2267 0.961 . S
H2282 C2267 0.961 . S
H2283 C2267 0.961 . S
H2284 C2268 0.931 . S
H2285 C2273 0.930 . S
H2286 C2274 0.956 . S
H2287 C2274 0.961 1_556 S
H2288 C2274 0.961 . S
H2289 C2275 0.958 . S
H2290 C2275 0.961 . S
H2291 C2275 0.960 . S
C2292 C2293 1.391 . S
C2292 C2294 1.394 . S
C2292 H2308 0.931 . S
C2293 C2292 1.391 . S
C2293 C2297 1.376 . S
C2294 C2292 1.394 . S
C2294 C2295 1.369 . S
C2294 C2298 1.531 . S
C2295 C2294 1.369 . S
C2295 C2296 1.410 . S
C2295 C2303 1.503 . S
C2296 C2295 1.410 . S
C2296 C2297 1.392 . S
C2296 C2299 1.511 . S
C2297 C2293 1.376 . S
C2297 C2296 1.392 . S
C2297 H2309 0.929 . S
C2298 C2294 1.531 . S
C2298 H2310 0.960 . S
C2298 H2311 0.962 . S
C2298 H2312 0.960 . S
C2299 C2296 1.511 . S
C2299 H2313 0.961 . S
C2299 H2314 0.961 . S
C2299 H2315 0.961 . S
C2300 C2301 1.370 . S
C2300 C2302 1.363 . S
C2300 H2316 0.931 . S
C2301 C2300 1.370 . S
C2301 C2305 1.408 . S
C2302 C2300 1.363 . S
C2302 C2303 1.370 . S
C2302 C2306 1.524 . S
C2303 C2295 1.503 . S
C2303 C2302 1.370 . S
C2303 C2304 1.403 . S
C2304 C2303 1.403 . S
C2304 C2305 1.404 . S
C2304 C2307 1.539 . S
C2305 C2301 1.408 . S
C2305 C2304 1.404 . S
C2305 H2317 0.930 . S
C2306 C2302 1.524 . S
C2306 H2318 0.956 . S
C2306 H2319 0.961 . S
C2306 H2320 0.961 . S
C2307 C2304 1.539 . S
C2307 H2321 0.958 . S
C2307 H2322 0.961 . S
C2307 H2323 0.960 . S
H2308 C2292 0.931 . S
H2309 C2297 0.929 . S
H2310 C2298 0.960 . S
H2311 C2298 0.962 . S
H2312 C2298 0.960 . S
H2313 C2299 0.961 . S
H2314 C2299 0.961 . S
H2315 C2299 0.961 . S
H2316 C2300 0.931 . S
H2317 C2305 0.930 . S
H2318 C2306 0.956 . S
H2319 C2306 0.961 . S
H2320 C2306 0.961 . S
H2321 C2307 0.958 . S
H2322 C2307 0.961 . S
H2323 C2307 0.960 . S
C2324 C2325 1.391 . S
C2324 C2326 1.394 . S
C2324 H2340 0.931 . S
C2325 C2324 1.391 . S
C2325 C2329 1.376 . S
C2326 C2324 1.394 . S
C2326 C2327 1.369 . S
C2326 C2330 1.531 . S
C2327 C2326 1.369 . S
C2327 C2328 1.410 . S
C2327 C2335 1.503 . S
C2328 C2327 1.410 . S
C2328 C2329 1.392 . S
C2328 C2331 1.511 . S
C2329 C2325 1.376 . S
C2329 C2328 1.392 . S
C2329 H2341 0.929 . S
C2330 C2326 1.531 . S
C2330 H2342 0.960 . S
C2330 H2343 0.962 . S
C2330 H2344 0.960 . S
C2331 C2328 1.511 . S
C2331 H2345 0.961 . S
C2331 H2346 0.961 . S
C2331 H2347 0.961 . S
C2332 C2333 1.370 . S
C2332 C2334 1.363 . S
C2332 H2348 0.931 . S
C2333 C2332 1.370 . S
C2333 C2337 1.408 . S
C2334 C2332 1.363 . S
C2334 C2335 1.370 . S
C2334 C2338 1.524 . S
C2335 C2327 1.503 . S
C2335 C2334 1.370 . S
C2335 C2336 1.403 . S
C2336 C2335 1.403 . S
C2336 C2337 1.404 . S
C2336 C2339 1.539 . S
C2337 C2333 1.408 . S
C2337 C2336 1.404 . S
C2337 H2349 0.930 . S
C2338 C2334 1.524 . S
C2338 H2350 0.956 . S
C2338 H2351 0.961 . S
C2338 H2352 0.961 . S
C2339 C2336 1.539 . S
C2339 H2353 0.958 . S
C2339 H2354 0.961 . S
C2339 H2355 0.960 . S
H2340 C2324 0.931 . S
H2341 C2329 0.929 . S
H2342 C2330 0.960 . S
H2343 C2330 0.962 . S
H2344 C2330 0.960 . S
H2345 C2331 0.961 . S
H2346 C2331 0.961 . S
H2347 C2331 0.961 . S
H2348 C2332 0.931 . S
H2349 C2337 0.930 . S
H2350 C2338 0.956 . S
H2351 C2338 0.961 . S
H2352 C2338 0.961 . S
H2353 C2339 0.958 . S
H2354 C2339 0.961 . S
H2355 C2339 0.960 . S
C2356 C2357 1.391 . S
C2356 C2358 1.394 . S
C2356 H2372 0.931 . S
C2357 C2356 1.391 . S
C2357 C2361 1.376 . S
C2358 C2356 1.394 . S
C2358 C2359 1.369 . S
C2358 C2362 1.531 . S
C2359 C2358 1.369 . S
C2359 C2360 1.410 . S
C2359 C2367 1.503 . S
C2360 C2359 1.410 . S
C2360 C2361 1.392 . S
C2360 C2363 1.511 . S
C2361 C2357 1.376 . S
C2361 C2360 1.392 . S
C2361 H2373 0.929 . S
C2362 C2358 1.531 . S
C2362 H2374 0.960 . S
C2362 H2375 0.962 . S
C2362 H2376 0.960 . S
C2363 C2360 1.511 . S
C2363 H2377 0.961 . S
C2363 H2378 0.961 . S
C2363 H2379 0.961 . S
C2364 C2365 1.370 . S
C2364 C2366 1.363 . S
C2364 H2380 0.931 . S
C2365 C2364 1.370 . S
C2365 C2369 1.408 . S
C2366 C2364 1.363 . S
C2366 C2367 1.370 . S
C2366 C2370 1.524 . S
C2367 C2359 1.503 . S
C2367 C2366 1.370 . S
C2367 C2368 1.403 . S
C2368 C2367 1.403 . S
C2368 C2369 1.404 . S
C2368 C2371 1.539 . S
C2369 C2365 1.408 . S
C2369 C2368 1.404 . S
C2369 H2381 0.930 . S
C2370 C2366 1.524 . S
C2370 H2382 0.956 . S
C2370 H2383 0.961 . S
C2370 H2384 0.961 . S
C2371 C2368 1.539 . S
C2371 H2385 0.958 . S
C2371 H2386 0.961 . S
C2371 H2387 0.960 . S
H2372 C2356 0.931 . S
H2373 C2361 0.929 . S
H2374 C2362 0.960 . S
H2375 C2362 0.962 . S
H2376 C2362 0.960 . S
H2377 C2363 0.961 . S
H2378 C2363 0.961 . S
H2379 C2363 0.961 . S
H2380 C2364 0.931 . S
H2381 C2369 0.930 . S
H2382 C2370 0.956 . S
H2383 C2370 0.961 . S
H2384 C2370 0.961 . S
H2385 C2371 0.958 . S
H2386 C2371 0.961 . S
H2387 C2371 0.960 . S
C2388 C2389 1.391 . S
C2388 C2390 1.394 . S
C2388 H2404 0.931 . S
C2389 C2388 1.391 . S
C2389 C2393 1.376 . S
C2390 C2388 1.394 . S
C2390 C2391 1.369 . S
C2390 C2394 1.531 . S
C2391 C2390 1.369 . S
C2391 C2392 1.410 . S
C2391 C2399 1.503 . S
C2392 C2391 1.410 . S
C2392 C2393 1.392 . S
C2392 C2395 1.511 . S
C2393 C2389 1.376 . S
C2393 C2392 1.392 . S
C2393 H2405 0.929 . S
C2394 C2390 1.531 . S
C2394 H2406 0.960 . S
C2394 H2407 0.962 . S
C2394 H2408 0.960 . S
C2395 C2392 1.511 . S
C2395 H2409 0.961 . S
C2395 H2410 0.961 . S
C2395 H2411 0.961 . S
C2396 C2397 1.370 . S
C2396 C2398 1.363 . S
C2396 H2412 0.931 . S
C2397 C2396 1.370 . S
C2397 C2401 1.408 . S
C2398 C2396 1.363 . S
C2398 C2399 1.370 . S
C2398 C2402 1.524 . S
C2399 C2391 1.503 . S
C2399 C2398 1.370 . S
C2399 C2400 1.403 . S
C2400 C2399 1.403 . S
C2400 C2401 1.404 . S
C2400 C2403 1.539 . S
C2401 C2397 1.408 . S
C2401 C2400 1.404 . S
C2401 H2413 0.930 . S
C2402 C2398 1.524 . S
C2402 H2414 0.956 . S
C2402 H2415 0.961 . S
C2402 H2416 0.961 . S
C2403 C2400 1.539 . S
C2403 H2417 0.958 . S
C2403 H2418 0.961 . S
C2403 H2419 0.960 . S
H2404 C2388 0.931 . S
H2405 C2393 0.929 . S
H2406 C2394 0.960 . S
H2407 C2394 0.962 . S
H2408 C2394 0.960 . S
H2409 C2395 0.961 . S
H2410 C2395 0.961 . S
H2411 C2395 0.961 . S
H2412 C2396 0.931 . S
H2413 C2401 0.930 . S
H2414 C2402 0.956 . S
H2415 C2402 0.961 . S
H2416 C2402 0.961 . S
H2417 C2403 0.958 . S
H2418 C2403 0.961 . S
H2419 C2403 0.960 . S
C2420 C2421 1.391 . S
C2420 C2422 1.394 . S
C2420 H2436 0.931 . S
C2421 C2420 1.391 . S
C2421 C2425 1.376 . S
C2422 C2420 1.394 . S
C2422 C2423 1.369 . S
C2422 C2426 1.531 . S
C2423 C2422 1.369 . S
C2423 C2424 1.410 . S
C2423 C2431 1.503 . S
C2424 C2423 1.410 . S
C2424 C2425 1.392 . S
C2424 C2427 1.511 . S
C2425 C2421 1.376 . S
C2425 C2424 1.392 . S
C2425 H2437 0.929 . S
C2426 C2422 1.531 . S
C2426 H2438 0.960 . S
C2426 H2439 0.962 . S
C2426 H2440 0.960 . S
C2427 C2424 1.511 . S
C2427 H2441 0.961 . S
C2427 H2442 0.961 . S
C2427 H2443 0.961 . S
C2428 C2429 1.370 . S
C2428 C2430 1.363 . S
C2428 H2444 0.931 . S
C2429 C2428 1.370 . S
C2429 C2433 1.408 . S
C2430 C2428 1.363 . S
C2430 C2431 1.370 . S
C2430 C2434 1.524 . S
C2431 C2423 1.503 . S
C2431 C2430 1.370 . S
C2431 C2432 1.403 . S
C2432 C2431 1.403 . S
C2432 C2433 1.404 . S
C2432 C2435 1.539 . S
C2433 C2429 1.408 . S
C2433 C2432 1.404 . S
C2433 H2445 0.930 . S
C2434 C2430 1.524 . S
C2434 H2446 0.956 . S
C2434 H2447 0.961 . S
C2434 H2448 0.961 . S
C2435 C2432 1.539 . S
C2435 H2449 0.958 . S
C2435 H2450 0.961 . S
C2435 H2451 0.960 . S
H2436 C2420 0.931 . S
H2437 C2425 0.929 . S
H2438 C2426 0.960 . S
H2439 C2426 0.962 . S
H2440 C2426 0.960 . S
H2441 C2427 0.961 . S
H2442 C2427 0.961 . S
H2443 C2427 0.961 . S
H2444 C2428 0.931 . S
H2445 C2433 0.930 . S
H2446 C2434 0.956 . S
H2447 C2434 0.961 . S
H2448 C2434 0.961 . S
H2449 C2435 0.958 . S
H2450 C2435 0.961 . S
H2451 C2435 0.960 . S
C2452 C2453 1.391 . S
C2452 C2454 1.394 . S
C2452 H2468 0.931 . S
C2453 C2452 1.391 . S
C2453 C2457 1.376 . S
C2454 C2452 1.394 . S
C2454 C2455 1.369 . S
C2454 C2458 1.531 . S
C2455 C2454 1.369 . S
C2455 C2456 1.410 . S
C2455 C2463 1.503 . S
C2456 C2455 1.410 . S
C2456 C2457 1.392 . S
C2456 C2459 1.511 . S
C2457 C2453 1.376 . S
C2457 C2456 1.392 . S
C2457 H2469 0.929 . S
C2458 C2454 1.531 . S
C2458 H2470 0.960 . S
C2458 H2471 0.962 . S
C2458 H2472 0.960 . S
C2459 C2456 1.511 . S
C2459 H2473 0.961 . S
C2459 H2474 0.961 . S
C2459 H2475 0.961 . S
C2460 C2461 1.370 . S
C2460 C2462 1.363 . S
C2460 H2476 0.931 . S
C2461 C2460 1.370 . S
C2461 C2465 1.408 . S
C2462 C2460 1.363 . S
C2462 C2463 1.370 . S
C2462 C2466 1.524 . S
C2463 C2455 1.503 . S
C2463 C2462 1.370 . S
C2463 C2464 1.403 . S
C2464 C2463 1.403 . S
C2464 C2465 1.404 . S
C2464 C2467 1.539 . S
C2465 C2461 1.408 . S
C2465 C2464 1.404 . S
C2465 H2477 0.930 . S
C2466 C2462 1.524 . S
C2466 H2478 0.956 . S
C2466 H2479 0.961 . S
C2466 H2480 0.961 . S
C2467 C2464 1.539 . S
C2467 H2481 0.958 . S
C2467 H2482 0.961 . S
C2467 H2483 0.960 . S
H2468 C2452 0.931 . S
H2469 C2457 0.929 . S
H2470 C2458 0.960 . S
H2471 C2458 0.962 . S
H2472 C2458 0.960 . S
H2473 C2459 0.961 . S
H2474 C2459 0.961 . S
H2475 C2459 0.961 . S
H2476 C2460 0.931 . S
H2477 C2465 0.930 . S
H2478 C2466 0.956 . S
H2479 C2466 0.961 . S
H2480 C2466 0.961 . S
H2481 C2467 0.958 . S
H2482 C2467 0.961 . S
H2483 C2467 0.960 . S
C2484 C2485 1.391 . S
C2484 C2486 1.394 . S
C2484 H2500 0.931 . S
C2485 C2484 1.391 . S
C2485 C2489 1.376 . S
C2486 C2484 1.394 . S
C2486 C2487 1.369 . S
C2486 C2490 1.531 . S
C2487 C2486 1.369 . S
C2487 C2488 1.410 . S
C2487 C2495 1.503 . S
C2488 C2487 1.410 . S
C2488 C2489 1.392 . S
C2488 C2491 1.511 . S
C2489 C2485 1.376 . S
C2489 C2488 1.392 . S
C2489 H2501 0.929 . S
C2490 C2486 1.531 . S
C2490 H2502 0.960 . S
C2490 H2503 0.962 . S
C2490 H2504 0.960 . S
C2491 C2488 1.511 . S
C2491 H2505 0.961 . S
C2491 H2506 0.961 . S
C2491 H2507 0.961 . S
C2492 C2493 1.370 . S
C2492 C2494 1.363 . S
C2492 H2508 0.931 . S
C2493 C2492 1.370 . S
C2493 C2497 1.408 . S
C2494 C2492 1.363 . S
C2494 C2495 1.370 . S
C2494 C2498 1.524 . S
C2495 C2487 1.503 . S
C2495 C2494 1.370 . S
C2495 C2496 1.403 . S
C2496 C2495 1.403 . S
C2496 C2497 1.404 . S
C2496 C2499 1.539 . S
C2497 C2493 1.408 . S
C2497 C2496 1.404 . S
C2497 H2509 0.930 . S
C2498 C2494 1.524 . S
C2498 H2510 0.956 . S
C2498 H2511 0.961 . S
C2498 H2512 0.961 . S
C2499 C2496 1.539 . S
C2499 H2513 0.958 . S
C2499 H2514 0.961 . S
C2499 H2515 0.960 . S
H2500 C2484 0.931 . S
H2501 C2489 0.929 . S
H2502 C2490 0.960 . S
H2503 C2490 0.962 . S
H2504 C2490 0.960 . S
H2505 C2491 0.961 . S
H2506 C2491 0.961 . S
H2507 C2491 0.961 . S
H2508 C2492 0.931 . S
H2509 C2497 0.930 . S
H2510 C2498 0.956 . S
H2511 C2498 0.961 . S
H2512 C2498 0.961 . S
H2513 C2499 0.958 . S
H2514 C2499 0.961 . S
H2515 C2499 0.960 . S
C2516 C2517 1.391 . S
C2516 C2518 1.394 . S
C2516 H2532 0.931 . S
C2517 C2516 1.391 . S
C2517 C2521 1.376 . S
C2518 C2516 1.394 . S
C2518 C2519 1.369 . S
C2518 C2522 1.531 . S
C2519 C2518 1.369 . S
C2519 C2520 1.410 . S
C2519 C2527 1.503 . S
C2520 C2519 1.410 . S
C2520 C2521 1.392 . S
C2520 C2523 1.511 . S
C2521 C2517 1.376 . S
C2521 C2520 1.392 . S
C2521 H2533 0.929 . S
C2522 C2518 1.531 . S
C2522 H2534 0.960 . S
C2522 H2535 0.962 . S
C2522 H2536 0.960 . S
C2523 C2520 1.511 . S
C2523 H2537 0.961 . S
C2523 H2538 0.961 . S
C2523 H2539 0.961 . S
C2524 C2525 1.370 . S
C2524 C2526 1.363 . S
C2524 H2540 0.931 . S
C2525 C2524 1.370 . S
C2525 C2529 1.408 . S
C2526 C2524 1.363 . S
C2526 C2527 1.370 . S
C2526 C2530 1.524 . S
C2527 C2519 1.503 . S
C2527 C2526 1.370 . S
C2527 C2528 1.403 . S
C2528 C2527 1.403 . S
C2528 C2529 1.404 . S
C2528 C2531 1.539 . S
C2529 C2525 1.408 . S
C2529 C2528 1.404 . S
C2529 H2541 0.930 . S
C2530 C2526 1.524 . S
C2530 H2542 0.956 . S
C2530 H2543 0.961 . S
C2530 H2544 0.961 . S
C2531 C2528 1.539 . S
C2531 H2545 0.958 . S
C2531 H2546 0.961 . S
C2531 H2547 0.960 . S
H2532 C2516 0.931 . S
H2533 C2521 0.929 . S
H2534 C2522 0.960 . S
H2535 C2522 0.962 . S
H2536 C2522 0.960 . S
H2537 C2523 0.961 . S
H2538 C2523 0.961 . S
H2539 C2523 0.961 . S
H2540 C2524 0.931 . S
H2541 C2529 0.930 . S
H2542 C2530 0.956 . S
H2543 C2530 0.961 . S
H2544 C2530 0.961 . S
H2545 C2531 0.958 . S
H2546 C2531 0.961 . S
H2547 C2531 0.960 . S
C2548 C2549 1.391 . S
C2548 C2550 1.394 . S
C2548 H2564 0.931 . S
C2549 C2548 1.391 . S
C2549 C2553 1.376 . S
C2550 C2548 1.394 . S
C2550 C2551 1.369 . S
C2550 C2554 1.531 . S
C2551 C2550 1.369 . S
C2551 C2552 1.410 . S
C2551 C2559 1.503 . S
C2552 C2551 1.410 . S
C2552 C2553 1.392 . S
C2552 C2555 1.511 . S
C2553 C2549 1.376 . S
C2553 C2552 1.392 . S
C2553 H2565 0.929 . S
C2554 C2550 1.531 . S
C2554 H2566 0.960 . S
C2554 H2567 0.962 . S
C2554 H2568 0.960 . S
C2555 C2552 1.511 . S
C2555 H2569 0.961 . S
C2555 H2570 0.961 . S
C2555 H2571 0.961 . S
C2556 C2557 1.370 . S
C2556 C2558 1.363 . S
C2556 H2572 0.931 . S
C2557 C2556 1.370 . S
C2557 C2561 1.408 . S
C2558 C2556 1.363 . S
C2558 C2559 1.370 . S
C2558 C2562 1.524 . S
C2559 C2551 1.503 . S
C2559 C2558 1.370 . S
C2559 C2560 1.403 . S
C2560 C2559 1.403 . S
C2560 C2561 1.404 . S
C2560 C2563 1.539 . S
C2561 C2557 1.408 . S
C2561 C2560 1.404 . S
C2561 H2573 0.930 . S
C2562 C2558 1.524 . S
C2562 H2574 0.956 . S
C2562 H2575 0.961 . S
C2562 H2576 0.961 . S
C2563 C2560 1.539 . S
C2563 H2577 0.958 . S
C2563 H2578 0.961 . S
C2563 H2579 0.960 . S
H2564 C2548 0.931 . S
H2565 C2553 0.929 . S
H2566 C2554 0.960 . S
H2567 C2554 0.962 . S
H2568 C2554 0.960 . S
H2569 C2555 0.961 . S
H2570 C2555 0.961 . S
H2571 C2555 0.961 . S
H2572 C2556 0.931 . S
H2573 C2561 0.930 . S
H2574 C2562 0.956 . S
H2575 C2562 0.961 . S
H2576 C2562 0.961 . S
H2577 C2563 0.958 . S
H2578 C2563 0.961 . S
H2579 C2563 0.960 . S
C2580 C2581 1.391 . S
C2580 C2582 1.394 . S
C2580 H2596 0.931 . S
C2581 C2580 1.391 . S
C2581 C2585 1.376 . S
C2582 C2580 1.394 . S
C2582 C2583 1.369 . S
C2582 C2586 1.531 . S
C2583 C2582 1.369 . S
C2583 C2584 1.410 . S
C2583 C2591 1.503 . S
C2584 C2583 1.410 . S
C2584 C2585 1.392 . S
C2584 C2587 1.511 . S
C2585 C2581 1.376 . S
C2585 C2584 1.392 . S
C2585 H2597 0.929 . S
C2586 C2582 1.531 . S
C2586 H2598 0.960 . S
C2586 H2599 0.962 . S
C2586 H2600 0.960 . S
C2587 C2584 1.511 . S
C2587 H2601 0.961 . S
C2587 H2602 0.961 . S
C2587 H2603 0.961 . S
C2588 C2589 1.370 . S
C2588 C2590 1.363 . S
C2588 H2604 0.931 . S
C2589 C2588 1.370 . S
C2589 C2593 1.408 . S
C2590 C2588 1.363 . S
C2590 C2591 1.370 . S
C2590 C2594 1.524 . S
C2591 C2583 1.503 . S
C2591 C2590 1.370 . S
C2591 C2592 1.403 . S
C2592 C2591 1.403 . S
C2592 C2593 1.404 . S
C2592 C2595 1.539 . S
C2593 C2589 1.408 . S
C2593 C2592 1.404 . S
C2593 H2605 0.930 . S
C2594 C2590 1.524 . S
C2594 H2606 0.956 . S
C2594 H2607 0.961 . S
C2594 H2608 0.961 . S
C2595 C2592 1.539 . S
C2595 H2609 0.958 . S
C2595 H2610 0.961 . S
C2595 H2611 0.960 . S
H2596 C2580 0.931 . S
H2597 C2585 0.929 . S
H2598 C2586 0.960 . S
H2599 C2586 0.962 . S
H2600 C2586 0.960 . S
H2601 C2587 0.961 . S
H2602 C2587 0.961 . S
H2603 C2587 0.961 . S
H2604 C2588 0.931 . S
H2605 C2593 0.930 . S
H2606 C2594 0.956 . S
H2607 C2594 0.961 . S
H2608 C2594 0.961 . S
H2609 C2595 0.958 . S
H2610 C2595 0.961 . S
H2611 C2595 0.960 . S
C2612 C2613 1.391 . S
C2612 C2614 1.394 . S
C2612 H2628 0.931 . S
C2613 C2612 1.391 . S
C2613 C2617 1.376 . S
C2614 C2612 1.394 . S
C2614 C2615 1.369 . S
C2614 C2618 1.531 . S
C2615 C2614 1.369 . S
C2615 C2616 1.410 . S
C2615 C2623 1.503 . S
C2616 C2615 1.410 . S
C2616 C2617 1.392 . S
C2616 C2619 1.511 . S
C2617 C2613 1.376 . S
C2617 C2616 1.392 . S
C2617 H2629 0.929 . S
C2618 C2614 1.531 . S
C2618 H2630 0.960 . S
C2618 H2631 0.962 . S
C2618 H2632 0.960 . S
C2619 C2616 1.511 . S
C2619 H2633 0.961 . S
C2619 H2634 0.961 . S
C2619 H2635 0.961 . S
C2620 C2621 1.370 . S
C2620 C2622 1.363 . S
C2620 H2636 0.931 . S
C2621 C2620 1.370 . S
C2621 C2625 1.408 . S
C2622 C2620 1.363 . S
C2622 C2623 1.370 . S
C2622 C2626 1.524 . S
C2623 C2615 1.503 . S
C2623 C2622 1.370 . S
C2623 C2624 1.403 . S
C2624 C2623 1.403 . S
C2624 C2625 1.404 . S
C2624 C2627 1.539 . S
C2625 C2621 1.408 . S
C2625 C2624 1.404 . S
C2625 H2637 0.930 . S
C2626 C2622 1.524 . S
C2626 H2638 0.956 . S
C2626 H2639 0.961 . S
C2626 H2640 0.961 . S
C2627 C2624 1.539 . S
C2627 H2641 0.958 . S
C2627 H2642 0.961 . S
C2627 H2643 0.960 . S
H2628 C2612 0.931 . S
H2629 C2617 0.929 . S
H2630 C2618 0.960 . S
H2631 C2618 0.962 . S
H2632 C2618 0.960 . S
H2633 C2619 0.961 . S
H2634 C2619 0.961 . S
H2635 C2619 0.961 . S
H2636 C2620 0.931 . S
H2637 C2625 0.930 . S
H2638 C2626 0.956 . S
H2639 C2626 0.961 . S
H2640 C2626 0.961 . S
H2641 C2627 0.958 . S
H2642 C2627 0.961 . S
H2643 C2627 0.960 . S
C2644 C2645 1.391 . S
C2644 C2646 1.394 . S
C2644 H2660 0.931 . S
C2645 C2644 1.391 . S
C2645 C2649 1.376 . S
C2646 C2644 1.394 . S
C2646 C2647 1.369 . S
C2646 C2650 1.531 . S
C2647 C2646 1.369 . S
C2647 C2648 1.410 . S
C2647 C2655 1.503 . S
C2648 C2647 1.410 . S
C2648 C2649 1.392 . S
C2648 C2651 1.511 . S
C2649 C2645 1.376 . S
C2649 C2648 1.392 . S
C2649 H2661 0.929 . S
C2650 C2646 1.531 . S
C2650 H2662 0.960 . S
C2650 H2663 0.962 . S
C2650 H2664 0.960 . S
C2651 C2648 1.511 . S
C2651 H2665 0.961 . S
C2651 H2666 0.961 . S
C2651 H2667 0.961 . S
C2652 C2653 1.370 . S
C2652 C2654 1.363 . S
C2652 H2668 0.931 . S
C2653 C2652 1.370 . S
C2653 C2657 1.408 . S
C2654 C2652 1.363 . S
C2654 C2655 1.370 . S
C2654 C2658 1.524 . S
C2655 C2647 1.503 . S
C2655 C2654 1.370 . S
C2655 C2656 1.403 . S
C2656 C2655 1.403 . S
C2656 C2657 1.404 . S
C2656 C2659 1.539 . S
C2657 C2653 1.408 . S
C2657 C2656 1.404 . S
C2657 H2669 0.930 . S
C2658 C2654 1.524 . S
C2658 H2670 0.956 . S
C2658 H2671 0.961 . S
C2658 H2672 0.961 . S
C2659 C2656 1.539 . S
C2659 H2673 0.958 . S
C2659 H2674 0.961 . S
C2659 H2675 0.960 . S
H2660 C2644 0.931 . S
H2661 C2649 0.929 . S
H2662 C2650 0.960 . S
H2663 C2650 0.962 . S
H2664 C2650 0.960 . S
H2665 C2651 0.961 . S
H2666 C2651 0.961 . S
H2667 C2651 0.961 . S
H2668 C2652 0.931 . S
H2669 C2657 0.930 . S
H2670 C2658 0.956 . S
H2671 C2658 0.961 . S
H2672 C2658 0.961 . S
H2673 C2659 0.958 . S
H2674 C2659 0.961 . S
H2675 C2659 0.960 . S
C2676 C2677 1.391 . S
C2676 C2678 1.394 . S
C2676 H2692 0.931 . S
C2677 C2676 1.391 . S
C2677 C2681 1.376 . S
C2678 C2676 1.394 . S
C2678 C2679 1.369 . S
C2678 C2682 1.531 . S
C2679 C2678 1.369 . S
C2679 C2680 1.410 . S
C2679 C2687 1.503 . S
C2680 C2679 1.410 . S
C2680 C2681 1.392 . S
C2680 C2683 1.511 . S
C2681 C2677 1.376 . S
C2681 C2680 1.392 . S
C2681 H2693 0.929 . S
C2682 C2678 1.531 . S
C2682 H2694 0.960 . S
C2682 H2695 0.962 . S
C2682 H2696 0.960 . S
C2683 C2680 1.511 . S
C2683 H2697 0.961 . S
C2683 H2698 0.961 . S
C2683 H2699 0.961 . S
C2684 C2685 1.370 . S
C2684 C2686 1.363 . S
C2684 H2700 0.931 . S
C2685 C2684 1.370 . S
C2685 C2689 1.408 . S
C2686 C2684 1.363 . S
C2686 C2687 1.370 . S
C2686 C2690 1.524 . S
C2687 C2679 1.503 . S
C2687 C2686 1.370 . S
C2687 C2688 1.403 . S
C2688 C2687 1.403 . S
C2688 C2689 1.404 . S
C2688 C2691 1.539 . S
C2689 C2685 1.408 . S
C2689 C2688 1.404 . S
C2689 H2701 0.930 . S
C2690 C2686 1.524 . S
C2690 H2702 0.956 . S
C2690 H2703 0.961 . S
C2690 H2704 0.961 . S
C2691 C2688 1.539 . S
C2691 H2705 0.958 . S
C2691 H2706 0.961 . S
C2691 H2707 0.960 . S
H2692 C2676 0.931 . S
H2693 C2681 0.929 . S
H2694 C2682 0.960 . S
H2695 C2682 0.962 . S
H2696 C2682 0.960 . S
H2697 C2683 0.961 . S
H2698 C2683 0.961 . S
H2699 C2683 0.961 . S
H2700 C2684 0.931 . S
H2701 C2689 0.930 . S
H2702 C2690 0.956 . S
H2703 C2690 0.961 . S
H2704 C2690 0.961 . S
H2705 C2691 0.958 . S
H2706 C2691 0.961 . S
H2707 C2691 0.960 . S
C2708 C2709 1.391 . S
C2708 C2710 1.394 . S
C2708 H2724 0.931 . S
C2709 C2708 1.391 . S
C2709 C2713 1.376 . S
C2710 C2708 1.394 . S
C2710 C2711 1.369 . S
C2710 C2714 1.531 . S
C2711 C2710 1.369 . S
C2711 C2712 1.410 . S
C2711 C2719 1.503 . S
C2712 C2711 1.410 . S
C2712 C2713 1.392 . S
C2712 C2715 1.511 . S
C2713 C2709 1.376 . S
C2713 C2712 1.392 . S
C2713 H2725 0.929 . S
C2714 C2710 1.531 . S
C2714 H2726 0.960 . S
C2714 H2727 0.962 . S
C2714 H2728 0.960 . S
C2715 C2712 1.511 . S
C2715 H2729 0.961 . S
C2715 H2730 0.961 . S
C2715 H2731 0.961 . S
C2716 C2717 1.370 . S
C2716 C2718 1.363 . S
C2716 H2732 0.931 . S
C2717 C2716 1.370 . S
C2717 C2721 1.408 . S
C2718 C2716 1.363 . S
C2718 C2719 1.370 . S
C2718 C2722 1.524 . S
C2719 C2711 1.503 . S
C2719 C2718 1.370 . S
C2719 C2720 1.403 . S
C2720 C2719 1.403 . S
C2720 C2721 1.404 . S
C2720 C2723 1.539 . S
C2721 C2717 1.408 . S
C2721 C2720 1.404 . S
C2721 H2733 0.930 . S
C2722 C2718 1.524 . S
C2722 H2734 0.956 . S
C2722 H2735 0.961 . S
C2722 H2736 0.961 . S
C2723 C2720 1.539 . S
C2723 H2737 0.958 . S
C2723 H2738 0.961 . S
C2723 H2739 0.960 . S
H2724 C2708 0.931 . S
H2725 C2713 0.929 . S
H2726 C2714 0.960 . S
H2727 C2714 0.962 . S
H2728 C2714 0.960 . S
H2729 C2715 0.961 . S
H2730 C2715 0.961 . S
H2731 C2715 0.961 . S
H2732 C2716 0.931 . S
H2733 C2721 0.930 . S
H2734 C2722 0.956 . S
H2735 C2722 0.961 . S
H2736 C2722 0.961 . S
H2737 C2723 0.958 . S
H2738 C2723 0.961 . S
H2739 C2723 0.960 . S
C2740 C2741 1.391 . S
C2740 C2742 1.394 . S
C2740 H2756 0.931 . S
C2741 C2740 1.391 . S
C2741 C2745 1.376 . S
C2742 C2740 1.394 . S
C2742 C2743 1.369 . S
C2742 C2746 1.531 . S
C2743 C2742 1.369 . S
C2743 C2744 1.410 . S
C2743 C2751 1.503 . S
C2744 C2743 1.410 . S
C2744 C2745 1.392 . S
C2744 C2747 1.511 . S
C2745 C2741 1.376 . S
C2745 C2744 1.392 . S
C2745 H2757 0.929 . S
C2746 C2742 1.531 . S
C2746 H2758 0.960 . S
C2746 H2759 0.962 . S
C2746 H2760 0.960 . S
C2747 C2744 1.511 . S
C2747 H2761 0.961 . S
C2747 H2762 0.961 . S
C2747 H2763 0.961 . S
C2748 C2749 1.370 . S
C2748 C2750 1.363 . S
C2748 H2764 0.931 . S
C2749 C2748 1.370 . S
C2749 C2753 1.408 . S
C2750 C2748 1.363 . S
C2750 C2751 1.370 . S
C2750 C2754 1.524 . S
C2751 C2743 1.503 . S
C2751 C2750 1.370 . S
C2751 C2752 1.403 . S
C2752 C2751 1.403 . S
C2752 C2753 1.404 . S
C2752 C2755 1.539 . S
C2753 C2749 1.408 . S
C2753 C2752 1.404 . S
C2753 H2765 0.930 . S
C2754 C2750 1.524 . S
C2754 H2766 0.956 . S
C2754 H2767 0.961 . S
C2754 H2768 0.961 . S
C2755 C2752 1.539 . S
C2755 H2769 0.958 . S
C2755 H2770 0.961 . S
C2755 H2771 0.960 . S
H2756 C2740 0.931 . S
H2757 C2745 0.929 . S
H2758 C2746 0.960 . S
H2759 C2746 0.962 . S
H2760 C2746 0.960 . S
H2761 C2747 0.961 . S
H2762 C2747 0.961 . S
H2763 C2747 0.961 . S
H2764 C2748 0.931 . S
H2765 C2753 0.930 . S
H2766 C2754 0.956 . S
H2767 C2754 0.961 . S
H2768 C2754 0.961 . S
H2769 C2755 0.958 . S
H2770 C2755 0.961 . S
H2771 C2755 0.960 . S
C2772 C2773 1.391 . S
C2772 C2774 1.394 . S
C2772 H2788 0.931 . S
C2773 C2772 1.391 . S
C2773 C2777 1.376 . S
C2774 C2772 1.394 . S
C2774 C2775 1.369 . S
C2774 C2778 1.531 . S
C2775 C2774 1.369 . S
C2775 C2776 1.410 . S
C2775 C2783 1.503 . S
C2776 C2775 1.410 . S
C2776 C2777 1.392 . S
C2776 C2779 1.511 . S
C2777 C2773 1.376 . S
C2777 C2776 1.392 . S
C2777 H2789 0.929 . S
C2778 C2774 1.531 . S
C2778 H2790 0.960 . S
C2778 H2791 0.962 . S
C2778 H2792 0.960 . S
C2779 C2776 1.511 . S
C2779 H2793 0.961 . S
C2779 H2794 0.961 . S
C2779 H2795 0.961 . S
C2780 C2781 1.370 . S
C2780 C2782 1.363 . S
C2780 H2796 0.931 . S
C2781 C2780 1.370 . S
C2781 C2785 1.408 . S
C2782 C2780 1.363 . S
C2782 C2783 1.370 . S
C2782 C2786 1.524 . S
C2783 C2775 1.503 . S
C2783 C2782 1.370 . S
C2783 C2784 1.403 . S
C2784 C2783 1.403 . S
C2784 C2785 1.404 . S
C2784 C2787 1.539 . S
C2785 C2781 1.408 . S
C2785 C2784 1.404 . S
C2785 H2797 0.930 . S
C2786 C2782 1.524 . S
C2786 H2798 0.956 . S
C2786 H2799 0.961 . S
C2786 H2800 0.961 . S
C2787 C2784 1.539 . S
C2787 H2801 0.958 . S
C2787 H2802 0.961 . S
C2787 H2803 0.960 . S
H2788 C2772 0.931 . S
H2789 C2777 0.929 . S
H2790 C2778 0.960 . S
H2791 C2778 0.962 . S
H2792 C2778 0.960 . S
H2793 C2779 0.961 . S
H2794 C2779 0.961 . S
H2795 C2779 0.961 . S
H2796 C2780 0.931 . S
H2797 C2785 0.930 . S
H2798 C2786 0.956 . S
H2799 C2786 0.961 . S
H2800 C2786 0.961 . S
H2801 C2787 0.958 . S
H2802 C2787 0.961 . S
H2803 C2787 0.960 . S
C2804 C2805 1.391 . S
C2804 C2806 1.394 . S
C2804 H2820 0.931 . S
C2805 C2804 1.391 . S
C2805 C2809 1.376 . S
C2806 C2804 1.394 . S
C2806 C2807 1.369 . S
C2806 C2810 1.531 . S
C2807 C2806 1.369 . S
C2807 C2808 1.410 . S
C2807 C2815 1.503 . S
C2808 C2807 1.410 . S
C2808 C2809 1.392 . S
C2808 C2811 1.511 . S
C2809 C2805 1.376 . S
C2809 C2808 1.392 . S
C2809 H2821 0.929 . S
C2810 C2806 1.531 . S
C2810 H2822 0.960 . S
C2810 H2823 0.962 . S
C2810 H2824 0.960 . S
C2811 C2808 1.511 . S
C2811 H2825 0.961 . S
C2811 H2826 0.961 . S
C2811 H2827 0.961 . S
C2812 C2813 1.370 . S
C2812 C2814 1.363 . S
C2812 H2828 0.931 . S
C2813 C2812 1.370 . S
C2813 C2817 1.408 . S
C2814 C2812 1.363 . S
C2814 C2815 1.370 . S
C2814 C2818 1.524 . S
C2815 C2807 1.503 . S
C2815 C2814 1.370 . S
C2815 C2816 1.403 . S
C2816 C2815 1.403 . S
C2816 C2817 1.404 . S
C2816 C2819 1.539 . S
C2817 C2813 1.408 . S
C2817 C2816 1.404 . S
C2817 H2829 0.930 . S
C2818 C2814 1.524 . S
C2818 H2830 0.956 . S
C2818 H2831 0.961 . S
C2818 H2832 0.961 . S
C2819 C2816 1.539 . S
C2819 H2833 0.958 . S
C2819 H2834 0.961 . S
C2819 H2835 0.960 . S
H2820 C2804 0.931 . S
H2821 C2809 0.929 . S
H2822 C2810 0.960 . S
H2823 C2810 0.962 . S
H2824 C2810 0.960 . S
H2825 C2811 0.961 . S
H2826 C2811 0.961 . S
H2827 C2811 0.961 . S
H2828 C2812 0.931 . S
H2829 C2817 0.930 . S
H2830 C2818 0.956 . S
H2831 C2818 0.961 . S
H2832 C2818 0.961 . S
H2833 C2819 0.958 . S
H2834 C2819 0.961 . S
H2835 C2819 0.960 . S
C2836 C2837 1.391 . S
C2836 C2838 1.394 . S
C2836 H2852 0.931 . S
C2837 C2836 1.391 . S
C2837 C2841 1.376 . S
C2838 C2836 1.394 . S
C2838 C2839 1.369 . S
C2838 C2842 1.531 . S
C2839 C2838 1.369 . S
C2839 C2840 1.410 . S
C2839 C2847 1.503 . S
C2840 C2839 1.410 . S
C2840 C2841 1.392 . S
C2840 C2843 1.511 . S
C2841 C2837 1.376 . S
C2841 C2840 1.392 . S
C2841 H2853 0.929 . S
C2842 C2838 1.531 . S
C2842 H2854 0.960 . S
C2842 H2855 0.962 . S
C2842 H2856 0.960 . S
C2843 C2840 1.511 . S
C2843 H2857 0.961 . S
C2843 H2858 0.961 . S
C2843 H2859 0.961 . S
C2844 C2845 1.370 . S
C2844 C2846 1.363 . S
C2844 H2860 0.931 . S
C2845 C2844 1.370 . S
C2845 C2849 1.408 . S
C2846 C2844 1.363 . S
C2846 C2847 1.370 . S
C2846 C2850 1.524 . S
C2847 C2839 1.503 . S
C2847 C2846 1.370 . S
C2847 C2848 1.403 . S
C2848 C2847 1.403 . S
C2848 C2849 1.404 . S
C2848 C2851 1.539 . S
C2849 C2845 1.408 . S
C2849 C2848 1.404 . S
C2849 H2861 0.930 . S
C2850 C2846 1.524 . S
C2850 H2862 0.956 . S
C2850 H2863 0.961 . S
C2850 H2864 0.961 . S
C2851 C2848 1.539 . S
C2851 H2865 0.958 . S
C2851 H2866 0.961 . S
C2851 H2867 0.960 . S
H2852 C2836 0.931 . S
H2853 C2841 0.929 . S
H2854 C2842 0.960 . S
H2855 C2842 0.962 . S
H2856 C2842 0.960 . S
H2857 C2843 0.961 . S
H2858 C2843 0.961 . S
H2859 C2843 0.961 . S
H2860 C2844 0.931 . S
H2861 C2849 0.930 . S
H2862 C2850 0.956 . S
H2863 C2850 0.961 . S
H2864 C2850 0.961 . S
H2865 C2851 0.958 . S
H2866 C2851 0.961 . S
H2867 C2851 0.960 . S
C2868 C2869 1.391 . S
C2868 C2870 1.394 . S
C2868 H2884 0.931 . S
C2869 C2868 1.391 . S
C2869 C2873 1.376 . S
C2870 C2868 1.394 . S
C2870 C2871 1.369 . S
C2870 C2874 1.531 . S
C2871 C2870 1.369 . S
C2871 C2872 1.410 . S
C2871 C2879 1.503 . S
C2872 C2871 1.410 . S
C2872 C2873 1.392 . S
C2872 C2875 1.511 . S
C2873 C2869 1.376 . S
C2873 C2872 1.392 . S
C2873 H2885 0.929 . S
C2874 C2870 1.531 . S
C2874 H2886 0.960 . S
C2874 H2887 0.962 . S
C2874 H2888 0.960 . S
C2875 C2872 1.511 . S
C2875 H2889 0.961 . S
C2875 H2890 0.961 . S
C2875 H2891 0.961 . S
C2876 C2877 1.370 . S
C2876 C2878 1.363 . S
C2876 H2892 0.931 . S
C2877 C2876 1.370 . S
C2877 C2881 1.408 . S
C2878 C2876 1.363 . S
C2878 C2879 1.370 . S
C2878 C2882 1.524 . S
C2879 C2871 1.503 . S
C2879 C2878 1.370 . S
C2879 C2880 1.403 . S
C2880 C2879 1.403 . S
C2880 C2881 1.404 . S
C2880 C2883 1.539 . S
C2881 C2877 1.408 . S
C2881 C2880 1.404 . S
C2881 H2893 0.930 . S
C2882 C2878 1.524 . S
C2882 H2894 0.956 . S
C2882 H2895 0.961 . S
C2882 H2896 0.961 . S
C2883 C2880 1.539 . S
C2883 H2897 0.958 . S
C2883 H2898 0.961 . S
C2883 H2899 0.960 . S
H2884 C2868 0.931 . S
H2885 C2873 0.929 . S
H2886 C2874 0.960 . S
H2887 C2874 0.962 . S
H2888 C2874 0.960 . S
H2889 C2875 0.961 . S
H2890 C2875 0.961 . S
H2891 C2875 0.961 . S
H2892 C2876 0.931 . S
H2893 C2881 0.930 . S
H2894 C2882 0.956 . S
H2895 C2882 0.961 . S
H2896 C2882 0.961 . S
H2897 C2883 0.958 . S
H2898 C2883 0.961 . S
H2899 C2883 0.960 . S
C2900 C2901 1.391 . S
C2900 C2902 1.394 . S
C2900 H2916 0.931 . S
C2901 C2900 1.391 . S
C2901 C2905 1.376 . S
C2902 C2900 1.394 . S
C2902 C2903 1.369 . S
C2902 C2906 1.531 . S
C2903 C2902 1.369 . S
C2903 C2904 1.410 . S
C2903 C2911 1.503 . S
C2904 C2903 1.410 . S
C2904 C2905 1.392 . S
C2904 C2907 1.511 . S
C2905 C2901 1.376 . S
C2905 C2904 1.392 . S
C2905 H2917 0.929 . S
C2906 C2902 1.531 . S
C2906 H2918 0.960 . S
C2906 H2919 0.962 . S
C2906 H2920 0.960 . S
C2907 C2904 1.511 . S
C2907 H2921 0.961 . S
C2907 H2922 0.961 . S
C2907 H2923 0.961 . S
C2908 C2909 1.370 . S
C2908 C2910 1.363 . S
C2908 H2924 0.931 . S
C2909 C2908 1.370 . S
C2909 C2913 1.408 . S
C2910 C2908 1.363 . S
C2910 C2911 1.370 . S
C2910 C2914 1.524 . S
C2911 C2903 1.503 . S
C2911 C2910 1.370 . S
C2911 C2912 1.403 . S
C2912 C2911 1.403 . S
C2912 C2913 1.404 . S
C2912 C2915 1.539 . S
C2913 C2909 1.408 . S
C2913 C2912 1.404 . S
C2913 H2925 0.930 . S
C2914 C2910 1.524 . S
C2914 H2926 0.956 . S
C2914 H2927 0.961 . S
C2914 H2928 0.961 . S
C2915 C2912 1.539 . S
C2915 H2929 0.958 . S
C2915 H2930 0.961 . S
C2915 H2931 0.960 . S
H2916 C2900 0.931 . S
H2917 C2905 0.929 . S
H2918 C2906 0.960 . S
H2919 C2906 0.962 . S
H2920 C2906 0.960 . S
H2921 C2907 0.961 . S
H2922 C2907 0.961 . S
H2923 C2907 0.961 . S
H2924 C2908 0.931 . S
H2925 C2913 0.930 . S
H2926 C2914 0.956 . S
H2927 C2914 0.961 . S
H2928 C2914 0.961 . S
H2929 C2915 0.958 . S
H2930 C2915 0.961 . S
H2931 C2915 0.960 . S
C2932 C2933 1.391 . S
C2932 C2934 1.394 . S
C2932 H2948 0.931 . S
C2933 C2932 1.391 . S
C2933 C2937 1.376 . S
C2934 C2932 1.394 . S
C2934 C2935 1.369 . S
C2934 C2938 1.531 . S
C2935 C2934 1.369 . S
C2935 C2936 1.410 . S
C2935 C2943 1.503 . S
C2936 C2935 1.410 . S
C2936 C2937 1.392 . S
C2936 C2939 1.511 . S
C2937 C2933 1.376 . S
C2937 C2936 1.392 . S
C2937 H2949 0.929 . S
C2938 C2934 1.531 . S
C2938 H2950 0.960 . S
C2938 H2951 0.962 . S
C2938 H2952 0.960 . S
C2939 C2936 1.511 . S
C2939 H2953 0.961 . S
C2939 H2954 0.961 . S
C2939 H2955 0.961 . S
C2940 C2941 1.370 . S
C2940 C2942 1.363 . S
C2940 H2956 0.931 . S
C2941 C2940 1.370 . S
C2941 C2945 1.408 . S
C2942 C2940 1.363 . S
C2942 C2943 1.370 . S
C2942 C2946 1.524 . S
C2943 C2935 1.503 . S
C2943 C2942 1.370 . S
C2943 C2944 1.403 . S
C2944 C2943 1.403 . S
C2944 C2945 1.404 . S
C2944 C2947 1.539 . S
C2945 C2941 1.408 . S
C2945 C2944 1.404 . S
C2945 H2957 0.930 . S
C2946 C2942 1.524 . S
C2946 H2958 0.956 . S
C2946 H2959 0.961 . S
C2946 H2960 0.961 . S
C2947 C2944 1.539 . S
C2947 H2961 0.958 . S
C2947 H2962 0.961 . S
C2947 H2963 0.960 . S
H2948 C2932 0.931 . S
H2949 C2937 0.929 . S
H2950 C2938 0.960 . S
H2951 C2938 0.962 . S
H2952 C2938 0.960 . S
H2953 C2939 0.961 . S
H2954 C2939 0.961 . S
H2955 C2939 0.961 . S
H2956 C2940 0.931 . S
H2957 C2945 0.930 . S
H2958 C2946 0.956 . S
H2959 C2946 0.961 . S
H2960 C2946 0.961 . S
H2961 C2947 0.958 . S
H2962 C2947 0.961 . S
H2963 C2947 0.960 . S
C2964 C2965 1.391 . S
C2964 C2966 1.394 . S
C2964 H2980 0.931 . S
C2965 C2964 1.391 . S
C2965 C2969 1.376 . S
C2966 C2964 1.394 . S
C2966 C2967 1.369 . S
C2966 C2970 1.531 . S
C2967 C2966 1.369 . S
C2967 C2968 1.410 . S
C2967 C2975 1.503 . S
C2968 C2967 1.410 . S
C2968 C2969 1.392 . S
C2968 C2971 1.511 . S
C2969 C2965 1.376 . S
C2969 C2968 1.392 . S
C2969 H2981 0.929 . S
C2970 C2966 1.531 . S
C2970 H2982 0.960 . S
C2970 H2983 0.962 . S
C2970 H2984 0.960 . S
C2971 C2968 1.511 . S
C2971 H2985 0.961 . S
C2971 H2986 0.961 . S
C2971 H2987 0.961 . S
C2972 C2973 1.370 . S
C2972 C2974 1.363 . S
C2972 H2988 0.931 . S
C2973 C2972 1.370 . S
C2973 C2977 1.408 . S
C2974 C2972 1.363 . S
C2974 C2975 1.370 . S
C2974 C2978 1.524 . S
C2975 C2967 1.503 . S
C2975 C2974 1.370 . S
C2975 C2976 1.403 . S
C2976 C2975 1.403 . S
C2976 C2977 1.404 . S
C2976 C2979 1.539 . S
C2977 C2973 1.408 . S
C2977 C2976 1.404 . S
C2977 H2989 0.930 . S
C2978 C2974 1.524 . S
C2978 H2990 0.956 . S
C2978 H2991 0.961 . S
C2978 H2992 0.961 . S
C2979 C2976 1.539 . S
C2979 H2993 0.958 . S
C2979 H2994 0.961 . S
C2979 H2995 0.960 . S
H2980 C2964 0.931 . S
H2981 C2969 0.929 . S
H2982 C2970 0.960 . S
H2983 C2970 0.962 . S
H2984 C2970 0.960 . S
H2985 C2971 0.961 . S
H2986 C2971 0.961 . S
H2987 C2971 0.961 . S
H2988 C2972 0.931 . S
H2989 C2977 0.930 . S
H2990 C2978 0.956 . S
H2991 C2978 0.961 . S
H2992 C2978 0.961 . S
H2993 C2979 0.958 . S
H2994 C2979 0.961 . S
H2995 C2979 0.960 . S
C2996 C2997 1.391 . S
C2996 C2998 1.394 . S
C2996 H3012 0.931 . S
C2997 C2996 1.391 . S
C2997 C3001 1.376 . S
C2998 C2996 1.394 . S
C2998 C2999 1.369 . S
C2998 C3002 1.531 . S
C2999 C2998 1.369 . S
C2999 C3000 1.410 . S
C2999 C3007 1.503 . S
C3000 C2999 1.410 . S
C3000 C3001 1.392 . S
C3000 C3003 1.511 . S
C3001 C2997 1.376 . S
C3001 C3000 1.392 . S
C3001 H3013 0.929 . S
C3002 C2998 1.531 . S
C3002 H3014 0.960 . S
C3002 H3015 0.962 . S
C3002 H3016 0.960 . S
C3003 C3000 1.511 . S
C3003 H3017 0.961 . S
C3003 H3018 0.961 . S
C3003 H3019 0.961 . S
C3004 C3005 1.370 . S
C3004 C3006 1.363 . S
C3004 H3020 0.931 . S
C3005 C3004 1.370 . S
C3005 C3009 1.408 . S
C3006 C3004 1.363 . S
C3006 C3007 1.370 . S
C3006 C3010 1.524 . S
C3007 C2999 1.503 . S
C3007 C3006 1.370 . S
C3007 C3008 1.403 . S
C3008 C3007 1.403 . S
C3008 C3009 1.404 . S
C3008 C3011 1.539 . S
C3009 C3005 1.408 . S
C3009 C3008 1.404 . S
C3009 H3021 0.930 . S
C3010 C3006 1.524 . S
C3010 H3022 0.956 . S
C3010 H3023 0.961 . S
C3010 H3024 0.961 . S
C3011 C3008 1.539 . S
C3011 H3025 0.958 . S
C3011 H3026 0.961 . S
C3011 H3027 0.960 . S
H3012 C2996 0.931 . S
H3013 C3001 0.929 . S
H3014 C3002 0.960 . S
H3015 C3002 0.962 . S
H3016 C3002 0.960 . S
H3017 C3003 0.961 . S
H3018 C3003 0.961 . S
H3019 C3003 0.961 . S
H3020 C3004 0.931 . S
H3021 C3009 0.930 . S
H3022 C3010 0.956 . S
H3023 C3010 0.961 . S
H3024 C3010 0.961 . S
H3025 C3011 0.958 . S
H3026 C3011 0.961 . S
H3027 C3011 0.960 . S
C3028 C3029 1.391 . S
C3028 C3030 1.394 . S
C3028 H3044 0.931 . S
C3029 C3028 1.391 . S
C3029 C3033 1.376 . S
C3030 C3028 1.394 . S
C3030 C3031 1.369 . S
C3030 C3034 1.531 . S
C3031 C3030 1.369 . S
C3031 C3032 1.410 . S
C3031 C3039 1.503 . S
C3032 C3031 1.410 . S
C3032 C3033 1.392 . S
C3032 C3035 1.511 . S
C3033 C3029 1.376 . S
C3033 C3032 1.392 . S
C3033 H3045 0.929 . S
C3034 C3030 1.531 . S
C3034 H3046 0.960 . S
C3034 H3047 0.962 . S
C3034 H3048 0.960 . S
C3035 C3032 1.511 . S
C3035 H3049 0.961 . S
C3035 H3050 0.961 . S
C3035 H3051 0.961 . S
C3036 C3037 1.370 . S
C3036 C3038 1.363 . S
C3036 H3052 0.931 . S
C3037 C3036 1.370 . S
C3037 C3041 1.408 . S
C3038 C3036 1.363 . S
C3038 C3039 1.370 . S
C3038 C3042 1.524 . S
C3039 C3031 1.503 . S
C3039 C3038 1.370 . S
C3039 C3040 1.403 . S
C3040 C3039 1.403 . S
C3040 C3041 1.404 . S
C3040 C3043 1.539 . S
C3041 C3037 1.408 . S
C3041 C3040 1.404 . S
C3041 H3053 0.930 . S
C3042 C3038 1.524 . S
C3042 H3054 0.956 . S
C3042 H3055 0.961 . S
C3042 H3056 0.961 . S
C3043 C3040 1.539 . S
C3043 H3057 0.958 . S
C3043 H3058 0.961 . S
C3043 H3059 0.960 . S
H3044 C3028 0.931 . S
H3045 C3033 0.929 . S
H3046 C3034 0.960 . S
H3047 C3034 0.962 . S
H3048 C3034 0.960 . S
H3049 C3035 0.961 . S
H3050 C3035 0.961 . S
H3051 C3035 0.961 . S
H3052 C3036 0.931 . S
H3053 C3041 0.930 . S
H3054 C3042 0.956 . S
H3055 C3042 0.961 . S
H3056 C3042 0.961 . S
H3057 C3043 0.958 . S
H3058 C3043 0.961 . S
H3059 C3043 0.960 . S
C765 C462 1.659 . S
C757 C439 1.655 . S
C789 C401 1.791 . S
C797 C460 1.795 . S
C829 C461 1.794 . S
C821 C382 1.784 . S
C853 C420 1.651 . S
C861 C463 1.658 . S
C893 C507 1.614 . S
C885 C306 1.613 . S
C925 C567 1.709 . S
C917 C325 1.707 . S
C949 C344 1.591 . S
C957 C506 1.595 . S
C989 C566 1.851 . S
C981 C363 1.849 . S
C1013 C230 1.739 . S
C1021 C508 1.742 . S
C1053 C564 1.692 . S
C1045 C249 1.679 . S
C1077 C268 1.741 . S
C1085 C509 1.744 . S
C1109 C287 1.550 . S
C1117 C565 1.552 . S
C1149 C615 1.660 . S
C1141 C211 1.657 . S
C1173 C173 1.784 . S
C1181 C614 1.793 . S
C1205 C154 1.790 . S
C1213 C616 1.795 . S
C1245 C617 1.660 . S
C1237 C192 1.656 . S
C1269 C78 1.613 . S
C1277 C658 1.612 . S
C1301 C97 1.709 . S
C1309 C717 1.711 . S
C1333 C116 1.587 . S
C1341 C656 1.594 . S
C1365 C135 1.846 1_565 S
C1373 C716 1.849 1_565 S
C1405 C657 1.741 . S
C1397 C2 1.736 . S
C1437 C714 1.693 . S
C1429 C21 1.691 1_565 S
C1461 C40 1.746 . S
C1469 C659 1.748 . S
C1501 C715 1.550 . S
C1493 C59 1.541 1_545 S
C1533 C459 1.665 . S
C1525 C6 1.634 . S
C1557 C30 1.365 1_565 S
C1565 C465 1.392 . S
C1589 C49 1.208 . S
C1597 C457 1.273 . S
C1621 C68 1.150 . S
C1629 C464 1.216 1_565 S
C1653 C82 1.600 . S
C1661 C456 1.641 . S
C1693 C466 1.282 . S
C1685 C106 1.265 1_565 S
C1717 C125 1.249 . S
C1725 C458 1.253 . S
C1757 C467 1.891 1_565 S
C1749 C139 1.868 1_565 S
C1789 C513 1.596 . S
C1781 C63 1.539 1_545 S
C1813 C11 1.252 . S
C1821 C556 1.290 . S
C1853 C511 1.565 . S
C1845 C25 1.542 . S
C1885 C558 1.690 . S
C1877 C44 1.649 . S
C1909 C101 1.703 . S
C1917 C512 1.720 . S
C1949 C557 1.516 . S
C1941 C120 1.507 . S
C1981 C510 1.300 . S
C1973 C144 1.249 . S
C2013 C559 1.170 . S
C2005 C87 1.133 . S
C2045 C563 1.401 . S
C2037 C163 1.390 . S
C2069 C182 1.377 1_554 S
C2077 C562 1.399 . S
C2109 C514 1.795 . S
C2101 C158 1.770 . S
C2141 C561 1.744 . S
C2133 C196 1.730 . S
C2165 C220 1.225 . S
C2173 C517 1.286 . S
C2197 C215 1.699 . S
C2205 C560 1.741 . S
C2237 C516 1.796 . S
C2229 C177 1.774 . S
C2269 C515 1.294 . S
C2261 C201 1.251 . S
C2301 C609 1.667 . S
C2293 C234 1.653 . S
C2333 C612 1.392 . S
C2325 C258 1.355 . S
C2357 C277 1.259 . S
C2365 C608 1.277 . S
C2397 C610 1.213 . S
C2389 C296 1.216 . S
C2429 C606 1.641 . S
C2421 C310 1.606 . S
C2453 C334 1.273 . S
C2461 C611 1.282 . S
C2485 C353 1.206 . S
C2493 C607 1.260 . S
C2525 C613 1.894 . S
C2517 C367 1.883 . S
C2557 C667 1.595 . S
C2549 C291 1.582 . S
C2581 C239 1.271 . S
C2589 C706 1.297 . S
C2621 C666 1.565 . S
C2613 C253 1.527 . S
C2653 C708 1.692 . S
C2645 C272 1.681 . S
C2685 C665 1.719 . S
C2677 C329 1.704 . S
C2709 C348 1.503 . S
C2717 C707 1.516 . S
C2749 C664 1.299 . S
C2741 C372 1.235 . S
C2781 C709 1.170 . S
C2773 C315 1.136 . S
C2813 C713 1.401 . S
C2805 C391 1.332 . S
C2837 C410 1.377 . S
C2845 C712 1.399 . S
C2877 C660 1.795 . S
C2869 C386 1.778 . S
C2901 C424 1.698 . S
C2909 C711 1.743 . S
C2941 C663 1.290 . S
C2933 C448 1.283 . S
C2973 C710 1.741 . S
C2965 C443 1.700 . S
C3005 C661 1.795 . S
C2997 C405 1.752 . S
C3029 C429 1.257 . S
C3037 C662 1.293 . S
