# Generated by pormake.
# Topology ptr, (4,4)-cn, num edge types: 1
# Building blocks:
#     Node 0, Type 0, BuildingBlock: KUFVIS_clean_sbu_0, # of connection points: 4
#     Node 1, Type 0, BuildingBlock: KUFVIS_clean_sbu_0, # of connection points: 4
#     Node 2, Type 0, BuildingBlock: KUFVIS_clean_sbu_0, # of connection points: 4
#     Node 3, Type 0, BuildingBlock: KUFVIS_clean_sbu_0, # of connection points: 4
#     Node 4, Type 0, BuildingBlock: KUFVIS_clean_sbu_0, # of connection points: 4
#     Node 5, Type 0, BuildingBlock: KUFVIS_clean_sbu_0, # of connection points: 4
#     Node 6, Type 0, BuildingBlock: KUFVIS_clean_sbu_0, # of connection points: 4
#     Node 7, Type 0, BuildingBlock: KUFVIS_clean_sbu_0, # of connection points: 4
#     Node 8, Type 0, BuildingBlock: KUFVIS_clean_sbu_0, # of connection points: 4
#     Node 9, Type 0, BuildingBlock: KUFVIS_clean_sbu_0, # of connection points: 4
#     Node 10, Type 0, BuildingBlock: KUFVIS_clean_sbu_0, # of connection points: 4
#     Node 11, Type 0, BuildingBlock: KUFVIS_clean_sbu_0, # of connection points: 4
#     Node 12, Type 0, BuildingBlock: KUFVIS_clean_sbu_0, # of connection points: 4
#     Node 13, Type 0, BuildingBlock: KUFVIS_clean_sbu_0, # of connection points: 4
#     Node 14, Type 0, BuildingBlock: KUFVIS_clean_sbu_0, # of connection points: 4
#     Node 15, Type 0, BuildingBlock: KUFVIS_clean_sbu_0, # of connection points: 4
#     Node 16, Type 0, BuildingBlock: KUFVIS_clean_sbu_0, # of connection points: 4
#     Node 17, Type 0, BuildingBlock: KUFVIS_clean_sbu_0, # of connection points: 4
#     Node 18, Type 1, BuildingBlock: NAWXER_clean_linker_0, # of connection points: 4
#     Node 19, Type 1, BuildingBlock: NAWXER_clean_linker_0, # of connection points: 4
#     Node 20, Type 1, BuildingBlock: NAWXER_clean_linker_0, # of connection points: 4
#     Node 21, Type 1, BuildingBlock: NAWXER_clean_linker_0, # of connection points: 4
#     Node 22, Type 1, BuildingBlock: NAWXER_clean_linker_0, # of connection points: 4
#     Node 23, Type 1, BuildingBlock: NAWXER_clean_linker_0, # of connection points: 4
#     Node 24, Type 1, BuildingBlock: NAWXER_clean_linker_0, # of connection points: 4
#     Node 25, Type 1, BuildingBlock: NAWXER_clean_linker_0, # of connection points: 4
#     Node 26, Type 1, BuildingBlock: NAWXER_clean_linker_0, # of connection points: 4
#     Node 27, Type 1, BuildingBlock: NAWXER_clean_linker_0, # of connection points: 4
#     Node 28, Type 1, BuildingBlock: NAWXER_clean_linker_0, # of connection points: 4
#     Node 29, Type 1, BuildingBlock: NAWXER_clean_linker_0, # of connection points: 4
#     Node 30, Type 1, BuildingBlock: NAWXER_clean_linker_0, # of connection points: 4
#     Node 31, Type 1, BuildingBlock: NAWXER_clean_linker_0, # of connection points: 4
#     Node 32, Type 1, BuildingBlock: NAWXER_clean_linker_0, # of connection points: 4
#     Node 33, Type 1, BuildingBlock: NAWXER_clean_linker_0, # of connection points: 4
#     Node 34, Type 1, BuildingBlock: NAWXER_clean_linker_0, # of connection points: 4
#     Node 35, Type 1, BuildingBlock: NAWXER_clean_linker_0, # of connection points: 4
#     Edge 36, Type (0, 1), BuildingBlock: KIFKEQ_clean_linker_1, # of connection points: 2
#     Edge 37, Type (0, 1), BuildingBlock: KIFKEQ_clean_linker_1, # of connection points: 2
#     Edge 38, Type (0, 1), BuildingBlock: KIFKEQ_clean_linker_1, # of connection points: 2
#     Edge 39, Type (0, 1), BuildingBlock: KIFKEQ_clean_linker_1, # of connection points: 2
#     Edge 40, Type (0, 1), BuildingBlock: KIFKEQ_clean_linker_1, # of connection points: 2
#     Edge 41, Type (0, 1), BuildingBlock: KIFKEQ_clean_linker_1, # of connection points: 2
#     Edge 42, Type (0, 1), BuildingBlock: KIFKEQ_clean_linker_1, # of connection points: 2
#     Edge 43, Type (0, 1), BuildingBlock: KIFKEQ_clean_linker_1, # of connection points: 2
#     Edge 44, Type (0, 1), BuildingBlock: KIFKEQ_clean_linker_1, # of connection points: 2
#     Edge 45, Type (0, 1), BuildingBlock: KIFKEQ_clean_linker_1, # of connection points: 2
#     Edge 46, Type (0, 1), BuildingBlock: KIFKEQ_clean_linker_1, # of connection points: 2
#     Edge 47, Type (0, 1), BuildingBlock: KIFKEQ_clean_linker_1, # of connection points: 2
#     Edge 48, Type (0, 1), BuildingBlock: KIFKEQ_clean_linker_1, # of connection points: 2
#     Edge 49, Type (0, 1), BuildingBlock: KIFKEQ_clean_linker_1, # of connection points: 2
#     Edge 50, Type (0, 1), BuildingBlock: KIFKEQ_clean_linker_1, # of connection points: 2
#     Edge 51, Type (0, 1), BuildingBlock: KIFKEQ_clean_linker_1, # of connection points: 2
#     Edge 52, Type (0, 1), BuildingBlock: KIFKEQ_clean_linker_1, # of connection points: 2
#     Edge 53, Type (0, 1), BuildingBlock: KIFKEQ_clean_linker_1, # of connection points: 2
#     Edge 54, Type (0, 1), BuildingBlock: KIFKEQ_clean_linker_1, # of connection points: 2
#     Edge 55, Type (0, 1), BuildingBlock: KIFKEQ_clean_linker_1, # of connection points: 2
#     Edge 56, Type (0, 1), BuildingBlock: KIFKEQ_clean_linker_1, # of connection points: 2
#     Edge 57, Type (0, 1), BuildingBlock: KIFKEQ_clean_linker_1, # of connection points: 2
#     Edge 58, Type (0, 1), BuildingBlock: KIFKEQ_clean_linker_1, # of connection points: 2
#     Edge 59, Type (0, 1), BuildingBlock: KIFKEQ_clean_linker_1, # of connection points: 2
#     Edge 60, Type (0, 1), BuildingBlock: KIFKEQ_clean_linker_1, # of connection points: 2
#     Edge 61, Type (0, 1), BuildingBlock: KIFKEQ_clean_linker_1, # of connection points: 2
#     Edge 62, Type (0, 1), BuildingBlock: KIFKEQ_clean_linker_1, # of connection points: 2
#     Edge 63, Type (0, 1), BuildingBlock: KIFKEQ_clean_linker_1, # of connection points: 2
#     Edge 64, Type (0, 1), BuildingBlock: KIFKEQ_clean_linker_1, # of connection points: 2
#     Edge 65, Type (0, 1), BuildingBlock: KIFKEQ_clean_linker_1, # of connection points: 2
#     Edge 66, Type (0, 1), BuildingBlock: KIFKEQ_clean_linker_1, # of connection points: 2
#     Edge 67, Type (0, 1), BuildingBlock: KIFKEQ_clean_linker_1, # of connection points: 2
#     Edge 68, Type (0, 1), BuildingBlock: KIFKEQ_clean_linker_1, # of connection points: 2
#     Edge 69, Type (0, 1), BuildingBlock: KIFKEQ_clean_linker_1, # of connection points: 2
#     Edge 70, Type (0, 1), BuildingBlock: KIFKEQ_clean_linker_1, # of connection points: 2
#     Edge 71, Type (0, 1), BuildingBlock: KIFKEQ_clean_linker_1, # of connection points: 2
#     Edge 72, Type (0, 1), BuildingBlock: KIFKEQ_clean_linker_1, # of connection points: 2
#     Edge 73, Type (0, 1), BuildingBlock: KIFKEQ_clean_linker_1, # of connection points: 2
#     Edge 74, Type (0, 1), BuildingBlock: KIFKEQ_clean_linker_1, # of connection points: 2
#     Edge 75, Type (0, 1), BuildingBlock: KIFKEQ_clean_linker_1, # of connection points: 2
#     Edge 76, Type (0, 1), BuildingBlock: KIFKEQ_clean_linker_1, # of connection points: 2
#     Edge 77, Type (0, 1), BuildingBlock: KIFKEQ_clean_linker_1, # of connection points: 2
#     Edge 78, Type (0, 1), BuildingBlock: KIFKEQ_clean_linker_1, # of connection points: 2
#     Edge 79, Type (0, 1), BuildingBlock: KIFKEQ_clean_linker_1, # of connection points: 2
#     Edge 80, Type (0, 1), BuildingBlock: KIFKEQ_clean_linker_1, # of connection points: 2
#     Edge 81, Type (0, 1), BuildingBlock: KIFKEQ_clean_linker_1, # of connection points: 2
#     Edge 82, Type (0, 1), BuildingBlock: KIFKEQ_clean_linker_1, # of connection points: 2
#     Edge 83, Type (0, 1), BuildingBlock: KIFKEQ_clean_linker_1, # of connection points: 2
#     Edge 84, Type (0, 1), BuildingBlock: KIFKEQ_clean_linker_1, # of connection points: 2
#     Edge 85, Type (0, 1), BuildingBlock: KIFKEQ_clean_linker_1, # of connection points: 2
#     Edge 86, Type (0, 1), BuildingBlock: KIFKEQ_clean_linker_1, # of connection points: 2
#     Edge 87, Type (0, 1), BuildingBlock: KIFKEQ_clean_linker_1, # of connection points: 2
#     Edge 88, Type (0, 1), BuildingBlock: KIFKEQ_clean_linker_1, # of connection points: 2
#     Edge 89, Type (0, 1), BuildingBlock: KIFKEQ_clean_linker_1, # of connection points: 2
#     Edge 90, Type (0, 1), BuildingBlock: KIFKEQ_clean_linker_1, # of connection points: 2
#     Edge 91, Type (0, 1), BuildingBlock: KIFKEQ_clean_linker_1, # of connection points: 2
#     Edge 92, Type (0, 1), BuildingBlock: KIFKEQ_clean_linker_1, # of connection points: 2
#     Edge 93, Type (0, 1), BuildingBlock: KIFKEQ_clean_linker_1, # of connection points: 2
#     Edge 94, Type (0, 1), BuildingBlock: KIFKEQ_clean_linker_1, # of connection points: 2
#     Edge 95, Type (0, 1), BuildingBlock: KIFKEQ_clean_linker_1, # of connection points: 2
#     Edge 96, Type (0, 1), BuildingBlock: KIFKEQ_clean_linker_1, # of connection points: 2
#     Edge 97, Type (0, 1), BuildingBlock: KIFKEQ_clean_linker_1, # of connection points: 2
#     Edge 98, Type (0, 1), BuildingBlock: KIFKEQ_clean_linker_1, # of connection points: 2
#     Edge 99, Type (0, 1), BuildingBlock: KIFKEQ_clean_linker_1, # of connection points: 2
#     Edge 100, Type (0, 1), BuildingBlock: KIFKEQ_clean_linker_1, # of connection points: 2
#     Edge 101, Type (0, 1), BuildingBlock: KIFKEQ_clean_linker_1, # of connection points: 2
#     Edge 102, Type (0, 1), BuildingBlock: KIFKEQ_clean_linker_1, # of connection points: 2
#     Edge 103, Type (0, 1), BuildingBlock: KIFKEQ_clean_linker_1, # of connection points: 2
#     Edge 104, Type (0, 1), BuildingBlock: KIFKEQ_clean_linker_1, # of connection points: 2
#     Edge 105, Type (0, 1), BuildingBlock: KIFKEQ_clean_linker_1, # of connection points: 2
#     Edge 106, Type (0, 1), BuildingBlock: KIFKEQ_clean_linker_1, # of connection points: 2
#     Edge 107, Type (0, 1), BuildingBlock: KIFKEQ_clean_linker_1, # of connection points: 2
# Relax obj value: 0.038
# Max RMSD: 0.167
# Mean RMSD: 0.064
data_MOF--net-ptr--node1-KUFVIS_clean_sbu_0--node2-NAWXER_clean_linker_0--edge1-KIFKEQ_clean_linker_1
_symmetry_space_group_name_H-M    P1
_symmetry_Int_Tables_number       1
_symmetry_cell_setting            triclinic
loop_
_symmetry_equiv_pos_as_xyz
'x, y, z'
_cell_length_a     88.104886
_cell_length_b     87.686925
_cell_length_c     65.056313
_cell_angle_alpha  89.830896
_cell_angle_beta   90.491251
_cell_angle_gamma 119.49093
loop_
_atom_site_label
_atom_site_type_symbol
_atom_site_fract_x
_atom_site_fract_y
_atom_site_fract_z
_atom_type_partial_charge
Mn0 Mn 0.99979 0.34737 0.003 0.0
Mn1 Mn 0.03562 0.38741 0.00581 0.0
C2 C 0.00227 0.36944 0.98155 0.0
C3 C 0.98529 0.31912 0.98945 0.0
C4 C 0.0063 0.37418 0.03674 0.0
O5 O 0.01705 0.34271 0.01901 0.0
O6 O 0.0407 0.36966 0.01818 0.0
C7 C 0.05806 0.38137 0.97717 0.0
N8 N 0.05017 0.39073 0.9827 0.0
C9 C 0.06247 0.41013 0.95385 0.0
C10 C 0.07083 0.40077 0.94792 0.0
C11 C 0.06858 0.3863 0.9596 0.0
C12 C 0.05219 0.40462 0.97153 0.0
H13 H 0.05631 0.37022 0.98609 0.0
C14 C 0.03303 0.35341 0.02311 0.0
O15 O 0.98075 0.32274 0.00693 0.0
O16 O 0.99865 0.33171 0.98039 0.0
N17 N 0.03268 0.40593 0.99437 0.0
C18 C 0.02312 0.41308 0.00169 0.0
C19 C 0.02365 0.42748 0.99151 0.0
C20 C 0.03411 0.43447 0.97405 0.0
C21 C 0.044 0.42703 0.96696 0.0
C22 C 0.04306 0.41278 0.97783 0.0
H23 H 0.01509 0.40779 0.01513 0.0
O24 O 0.9871 0.35605 0.98523 0.0
O25 O 0.01558 0.36945 0.99037 0.0
O26 O 0.99639 0.35946 0.02813 0.0
O27 O 0.02128 0.38532 0.02992 0.0
C28 C 0.05451 0.43298 0.94932 0.0
C29 C 0.0637 0.42451 0.94274 0.0
H30 H 0.0789 0.40449 0.93433 0.0
H31 H 0.07492 0.37897 0.95506 0.0
H32 H 0.01598 0.43315 0.99707 0.0
H33 H 0.03438 0.44549 0.96614 0.0
H34 H 0.05541 0.44391 0.94053 0.0
H35 H 0.07155 0.42906 0.929 0.0
Mn36 Mn 0.65098 0.6529 0.01557 0.0
Mn37 Mn 0.65121 0.61452 0.0149 0.0
C38 C 0.63347 0.63094 0.03805 0.0
C39 C 0.66282 0.68165 0.02728 0.0
C40 C 0.63238 0.62461 0.98295 0.0
O41 O 0.67269 0.65857 0.99914 0.0
O42 O 0.67316 0.63323 0.00271 0.0
C43 C 0.68008 0.62328 0.04446 0.0
N44 N 0.66316 0.61275 0.03864 0.0
C45 C 0.65781 0.59411 0.06804 0.0
C46 C 0.67521 0.60468 0.07427 0.0
C47 C 0.68638 0.61935 0.06246 0.0
C48 C 0.65229 0.59865 0.04993 0.0
H49 H 0.68868 0.63459 0.03544 0.0
C50 C 0.67986 0.64913 0.99653 0.0
O51 O 0.65394 0.6766 0.01022 0.0
O52 O 0.66526 0.67014 0.03714 0.0
N53 N 0.63083 0.59519 0.02632 0.0
C54 C 0.61424 0.58679 0.01866 0.0
C55 C 0.60134 0.57204 0.02894 0.0
C56 C 0.60566 0.56598 0.04685 0.0
C57 C 0.62288 0.57468 0.05427 0.0
C58 C 0.63521 0.58924 0.04329 0.0
H59 H 0.61084 0.59136 0.00488 0.0
O60 O 0.63026 0.64354 0.03382 0.0
O61 O 0.64711 0.63177 0.02936 0.0
O62 O 0.63544 0.63904 0.99122 0.0
O63 O 0.63824 0.6149 0.99011 0.0
C64 C 0.62822 0.56969 0.07234 0.0
C65 C 0.64566 0.57942 0.07925 0.0
H66 H 0.68011 0.60173 0.08819 0.0
H67 H 0.6998 0.62761 0.06722 0.0
H68 H 0.58808 0.56539 0.02312 0.0
H69 H 0.59564 0.5547 0.05484 0.0
H70 H 0.61895 0.55855 0.08121 0.0
H71 H 0.64955 0.5756 0.09331 0.0
Mn72 Mn 0.34518 0.996 0.0178 0.0
Mn73 Mn 0.38373 0.03379 0.01775 0.0
C74 C 0.36723 0.99936 0.04004 0.0
C75 C 0.31663 0.97956 0.02971 0.0
C76 C 0.37345 0.00553 0.98538 0.0
O77 O 0.33952 0.01276 0.00192 0.0
O78 O 0.36544 0.03756 0.00464 0.0
C79 C 0.3744 0.05361 0.04692 0.0
N80 N 0.38505 0.04717 0.04148 0.0
C81 C 0.40306 0.0597 0.07153 0.0
C82 C 0.39235 0.06657 0.0774 0.0
C83 C 0.37793 0.06347 0.06507 0.0
C84 C 0.39887 0.04996 0.05331 0.0
H85 H 0.36329 0.05121 0.03749 0.0
C86 C 0.34952 0.02907 0.99859 0.0
O87 O 0.32136 0.97581 0.01244 0.0
O88 O 0.32832 0.99314 0.03963 0.0
N89 N 0.40288 0.03235 0.02977 0.0
C90 C 0.41175 0.02458 0.02208 0.0
C91 C 0.42655 0.02641 0.03258 0.0
C92 C 0.4322 0.03638 0.05073 0.0
C93 C 0.42302 0.04447 0.05818 0.0
C94 C 0.40847 0.04232 0.04695 0.0
H95 H 0.40753 0.01701 0.00805 0.0
O96 O 0.35454 0.98388 0.03555 0.0
O97 O 0.36644 0.0125 0.03177 0.0
O98 O 0.3588 0.99444 0.99306 0.0
O99 O 0.38351 0.02061 0.99315 0.0
C100 C 0.42763 0.05443 0.07643 0.0
C101 C 0.41761 0.06197 0.08315 0.0
H102 H 0.39501 0.07416 0.0914 0.0
H103 H 0.36956 0.06866 0.06955 0.0
H104 H 0.43359 0.02016 0.02671 0.0
H105 H 0.44359 0.03773 0.05882 0.0
H106 H 0.43874 0.05621 0.08552 0.0
H107 H 0.42117 0.06944 0.09732 0.0
Mn108 Mn 0.00204 0.65594 1.00102 0.0
Mn109 Mn 0.04081 0.65696 1.00145 0.0
C110 C 0.0065 0.63821 0.97862 0.0
C111 C 0.98495 0.66774 0.98933 0.0
C112 C 0.01298 0.63847 0.0339 0.0
O113 O 0.01789 0.67791 0.01749 0.0
O114 O 0.04388 0.67936 0.01283 0.0
C115 C 0.05945 0.68493 0.97078 0.0
N116 N 0.05361 0.66818 0.97725 0.0
C117 C 0.06615 0.6619 0.94799 0.0
C118 C 0.07242 0.67912 0.94109 0.0
C119 C 0.06902 0.69067 0.95251 0.0
C120 C 0.05675 0.65694 0.96634 0.0
H121 H 0.0568 0.69381 0.97949 0.0
C122 C 0.03446 0.68568 0.01947 0.0
O123 O 0.98134 0.65884 0.00632 0.0
O124 O 0.99869 0.67012 0.9795 0.0
N125 N 0.03988 0.63618 0.99081 0.0
C126 C 0.03223 0.61979 0.99908 0.0
C127 C 0.03402 0.60654 0.98924 0.0
C128 C 0.0438 0.61031 0.97113 0.0
C129 C 0.05176 0.62733 0.96308 0.0
C130 C 0.04961 0.64003 0.97363 0.0
H131 H 0.02473 0.61681 0.01301 0.0
O132 O 0.99083 0.63496 0.98278 0.0
O133 O 0.01916 0.65209 0.98723 0.0
O134 O 0.00106 0.6406 0.02535 0.0
O135 O 0.0284 0.64479 0.02678 0.0
C136 C 0.06144 0.63211 0.94476 0.0
C137 C 0.0686 0.64937 0.9372 0.0
H138 H 0.07974 0.68358 0.92696 0.0
H139 H 0.07374 0.70395 0.94722 0.0
H140 H 0.02784 0.59343 0.99555 0.0
H141 H 0.04501 0.60001 0.96347 0.0
H142 H 0.06324 0.62254 0.93621 0.0
H143 H 0.07581 0.65282 0.92296 0.0
Mn144 Mn 0.34695 0.35268 0.01569 0.0
Mn145 Mn 0.38537 0.35284 0.01549 0.0
C146 C 0.36869 0.37028 0.03868 0.0
C147 C 0.31829 0.34042 0.02734 0.0
C148 C 0.37532 0.37182 0.98366 0.0
O149 O 0.34154 0.33094 0.99884 0.0
O150 O 0.36693 0.33086 0.00272 0.0
C151 C 0.37666 0.32365 0.04447 0.0
N152 N 0.38708 0.3407 0.03904 0.0
C153 C 0.40558 0.34593 0.06864 0.0
C154 C 0.39511 0.32839 0.07448 0.0
C155 C 0.38056 0.31722 0.06237 0.0
C156 C 0.40107 0.35158 0.05062 0.0
H157 H 0.36545 0.31504 0.03521 0.0
C158 C 0.35114 0.32396 0.99623 0.0
O159 O 0.32315 0.34942 0.01042 0.0
O160 O 0.3299 0.33806 0.037 0.0
N161 N 0.40447 0.37328 0.02744 0.0
C162 C 0.41282 0.39 0.02011 0.0
C163 C 0.42747 0.40291 0.03069 0.0
C164 C 0.43351 0.39847 0.04854 0.0
C165 C 0.42486 0.38113 0.05561 0.0
C166 C 0.41039 0.3688 0.04436 0.0
H167 H 0.40829 0.39348 0.00636 0.0
O168 O 0.35608 0.37338 0.03438 0.0
O169 O 0.36803 0.3567 0.02975 0.0
O170 O 0.36082 0.36857 0.99161 0.0
O171 O 0.385 0.36599 0.99095 0.0
C172 C 0.42982 0.37566 0.07361 0.0
C173 C 0.42016 0.35809 0.08015 0.0
H174 H 0.39804 0.32339 0.08832 0.0
H175 H 0.37237 0.30369 0.06683 0.0
H176 H 0.43409 0.41626 0.02512 0.0
H177 H 0.44473 0.40849 0.05675 0.0
H178 H 0.44089 0.38493 0.08269 0.0
H179 H 0.42397 0.35409 0.09415 0.0
Mn180 Mn 0.65472 0.00462 0.00728 0.0
Mn181 Mn 0.61711 0.96607 0.00704 0.0
C182 C 0.63287 1.00024 0.98425 0.0
C183 C 0.6833 0.02168 0.99607 0.0
C184 C 0.62628 0.99437 0.03931 0.0
O185 O 0.66074 0.98853 0.02385 0.0
O186 O 0.63602 0.96276 0.01934 0.0
C187 C 0.62646 0.94652 0.97745 0.0
N188 N 0.61571 0.95276 0.9832 0.0
C189 C 0.59713 0.93962 0.95371 0.0
C190 C 0.60792 0.93293 0.94756 0.0
C191 C 0.62269 0.93646 0.95944 0.0
C192 C 0.60153 0.94955 0.97181 0.0
H193 H 0.63784 0.94923 0.98652 0.0
C194 C 0.65174 0.97193 0.02592 0.0
O195 O 0.67804 0.02533 0.01301 0.0
O196 O 0.67214 0.00783 0.9861 0.0
N197 N 0.59773 0.9673 0.99535 0.0
C198 C 0.58927 0.97558 0.00275 0.0
C199 C 0.57454 0.97392 0.99222 0.0
C200 C 0.56855 0.96359 0.97436 0.0
C201 C 0.57735 0.95502 0.96719 0.0
C202 C 0.59194 0.95716 0.97832 0.0
H203 H 0.59376 0.98348 0.01651 0.0
O204 O 0.64507 0.01597 0.98876 0.0
O205 O 0.63403 0.98749 0.99301 0.0
O206 O 0.6405 0.00593 0.03128 0.0
O207 O 0.61706 0.97893 0.03198 0.0
C208 C 0.57238 0.94467 0.94925 0.0
C209 C 0.58231 0.93705 0.94245 0.0
H210 H 0.60508 0.92521 0.93365 0.0
H211 H 0.63114 0.93142 0.95473 0.0
H212 H 0.56782 0.98058 0.99785 0.0
H213 H 0.55726 0.96243 0.96621 0.0
H214 H 0.56108 0.94268 0.9404 0.0
H215 H 0.57853 0.92938 0.92843 0.0
Mn216 Mn 0.66251 0.68069 0.34166 0.0
Mn217 Mn 0.69993 0.71946 0.34232 0.0
C218 C 0.66612 0.70232 0.31873 0.0
C219 C 0.64653 0.65187 0.33006 0.0
C220 C 0.67129 0.70907 0.37392 0.0
O221 O 0.67907 0.67551 0.35844 0.0
O222 O 0.70406 0.70109 0.35473 0.0
C223 C 0.72053 0.71122 0.31322 0.0
N224 N 0.71361 0.72146 0.31879 0.0
C225 C 0.72613 0.74013 0.28941 0.0
C226 C 0.7335 0.72986 0.28343 0.0
C227 C 0.73065 0.71531 0.29537 0.0
C228 C 0.71622 0.73544 0.30738 0.0
H229 H 0.71833 0.7 0.32233 0.0
C230 C 0.6955 0.68519 0.36097 0.0
O231 O 0.64251 0.65685 0.34696 0.0
O232 O 0.66016 0.66347 0.32035 0.0
N233 N 0.69789 0.73843 0.33059 0.0
C234 C 0.68917 0.74648 0.33792 0.0
C235 C 0.69031 0.76103 0.32745 0.0
C236 C 0.70053 0.76727 0.3097 0.0
C237 C 0.70954 0.7589 0.30258 0.0
C238 C 0.70801 0.74452 0.31373 0.0
H239 H 0.68134 0.74179 0.35159 0.0
O240 O 0.65064 0.68965 0.32292 0.0
O241 O 0.67906 0.7018 0.32781 0.0
O242 O 0.66034 0.69453 0.36568 0.0
O243 O 0.68661 0.7189 0.36692 0.0
C244 C 0.71972 0.76405 0.28465 0.0
C245 C 0.72797 0.75465 0.27804 0.0
H246 H 0.74125 0.73292 0.26962 0.0
H247 H 0.73621 0.70727 0.2908 0.0
H248 H 0.68331 0.76742 0.33304 0.0
H249 H 0.70127 0.77841 0.30158 0.0
H250 H 0.72106 0.77506 0.27565 0.0
H251 H 0.73556 0.75858 0.26407 0.0
Mn252 Mn 0.31733 0.98578 0.35127 0.0
Mn253 Mn 0.31297 0.94526 0.34955 0.0
C254 C 0.29854 0.96436 0.37355 0.0
C255 C 0.33122 0.01448 0.36365 0.0
C256 C 0.29592 0.95811 0.31865 0.0
O257 O 0.33855 0.98969 0.33481 0.0
O258 O 0.33484 0.96235 0.33573 0.0
C259 C 0.34259 0.95193 0.37696 0.0
N260 N 0.32528 0.94253 0.37229 0.0
C261 C 0.31983 0.92399 0.4018 0.0
C262 C 0.33763 0.9334 0.40686 0.0
C263 C 0.34905 0.94746 0.39441 0.0
C264 C 0.31417 0.92904 0.38421 0.0
H265 H 0.35138 0.96277 0.36744 0.0
C266 C 0.34327 0.97848 0.33035 0.0
O267 O 0.3225 0.01033 0.34646 0.0
O268 O 0.33245 0.0021 0.37316 0.0
N269 N 0.29239 0.92722 0.36219 0.0
C270 C 0.27552 0.91987 0.35555 0.0
C271 C 0.26239 0.9058 0.3665 0.0
C272 C 0.26676 0.89929 0.384 0.0
C273 C 0.28424 0.90687 0.39033 0.0
C274 C 0.29677 0.92079 0.37872 0.0
H275 H 0.27211 0.92479 0.34207 0.0
O276 O 0.29674 0.97787 0.3695 0.0
O277 O 0.31147 0.96384 0.36466 0.0
O278 O 0.30124 0.97321 0.32664 0.0
O279 O 0.29967 0.9468 0.32588 0.0
C280 C 0.28968 0.90138 0.40791 0.0
C281 C 0.30746 0.90997 0.41368 0.0
H282 H 0.34266 0.93003 0.42034 0.0
H283 H 0.36278 0.95484 0.39826 0.0
H284 H 0.24893 0.90001 0.36151 0.0
H285 H 0.25657 0.88853 0.39251 0.0
H286 H 0.28027 0.89072 0.41726 0.0
H287 H 0.31145 0.90577 0.42737 0.0
Mn288 Mn 0.01228 0.33104 0.34841 0.0
Mn289 Mn 0.05137 0.36802 0.34872 0.0
C290 C 0.03382 0.33351 0.37094 0.0
C291 C 0.98363 0.31576 0.36031 0.0
C292 C 0.03981 0.33998 0.31561 0.0
O293 O 0.00775 0.3485 0.33237 0.0
O294 O 0.03337 0.37324 0.33757 0.0
C295 C 0.04462 0.38845 0.37986 0.0
N296 N 0.05427 0.38121 0.37319 0.0
C297 C 0.07359 0.39255 0.40241 0.0
C298 C 0.06393 0.40023 0.40954 0.0
C299 C 0.04936 0.39813 0.39823 0.0
C300 C 0.06828 0.38309 0.38397 0.0
H301 H 0.0334 0.38682 0.37122 0.0
C302 C 0.01763 0.36507 0.33079 0.0
O303 O 0.988 0.31156 0.34309 0.0
O304 O 0.99573 0.32913 0.37012 0.0
N305 N 0.07004 0.36492 0.35923 0.0
C306 C 0.07742 0.35594 0.35079 0.0
C307 C 0.09191 0.35633 0.36049 0.0
C308 C 0.09876 0.36607 0.37863 0.0
C309 C 0.09106 0.37536 0.38691 0.0
C310 C 0.07672 0.37458 0.37649 0.0
H311 H 0.07226 0.34848 0.33681 0.0
O312 O 0.02077 0.31825 0.36643 0.0
O313 O 0.03367 0.34689 0.36248 0.0
O314 O 0.02554 0.32872 0.32388 0.0
O315 O 0.0498 0.35519 0.32313 0.0
C316 C 0.09685 0.38508 0.4053 0.0
C317 C 0.08809 0.39363 0.41307 0.0
H318 H 0.06749 0.40764 0.42375 0.0
H319 H 0.04178 0.40394 0.40369 0.0
H320 H 0.09776 0.34911 0.35402 0.0
H321 H 0.10985 0.36622 0.38615 0.0
H322 H 0.10784 0.38583 0.41375 0.0
H323 H 0.0925 0.40085 0.42738 0.0
Mn324 Mn 0.66815 0.98592 0.34001 0.0
Mn325 Mn 0.70513 0.98328 0.34155 0.0
C326 C 0.67162 0.96744 0.31776 0.0
C327 C 0.65194 0.99836 0.32709 0.0
C328 C 0.67578 0.96449 0.37185 0.0
O329 O 0.68463 0.00782 0.35612 0.0
O330 O 0.70835 0.00443 0.35654 0.0
C331 C 0.72659 0.01447 0.31594 0.0
N332 N 0.71982 0.99702 0.3196 0.0
C333 C 0.73408 0.99372 0.28992 0.0
C334 C 0.7413 0.01168 0.28591 0.0
C335 C 0.73749 0.02208 0.29895 0.0
C336 C 0.72331 0.98687 0.30708 0.0
H337 H 0.72368 0.02251 0.32589 0.0
C338 C 0.70037 0.01279 0.36135 0.0
O339 O 0.64808 0.99011 0.34455 0.0
O340 O 0.66566 1.0001 0.3178 0.0
N341 N 0.70433 0.96365 0.32771 0.0
C342 C 0.69586 0.94645 0.3333 0.0
C343 C 0.69813 0.93424 0.3217 0.0
C344 C 0.7092 0.93986 0.30462 0.0
C345 C 0.71797 0.95765 0.29933 0.0
C346 C 0.7153 0.96924 0.31155 0.0
H347 H 0.6873 0.94204 0.34637 0.0
O348 O 0.65619 0.96483 0.32208 0.0
O349 O 0.6847 0.98091 0.32645 0.0
O350 O 0.66604 0.97039 0.36491 0.0
O351 O 0.69055 0.96842 0.36413 0.0
C352 C 0.72897 0.9643 0.28216 0.0
C353 C 0.73698 0.98231 0.27743 0.0
H354 H 0.74969 0.0176 0.27281 0.0
H355 H 0.74295 0.03594 0.2959 0.0
H356 H 0.69129 0.92052 0.32586 0.0
H357 H 0.71079 0.93038 0.2956 0.0
H358 H 0.73119 0.95564 0.27236 0.0
H359 H 0.74525 0.98724 0.26405 0.0
Mn360 Mn 0.0164 0.68256 0.3507 0.0
Mn361 Mn 0.05589 0.685 0.35246 0.0
C362 C 0.03709 0.70071 0.3744 0.0
C363 C 0.98739 0.6695 0.3613 0.0
C364 C 0.04618 0.70413 0.32065 0.0
O365 O 0.01217 0.66106 0.33426 0.0
O366 O 0.03896 0.66393 0.33674 0.0
C367 C 0.04594 0.65373 0.37837 0.0
N368 N 0.05636 0.6712 0.37496 0.0
C369 C 0.07311 0.67434 0.40563 0.0
C370 C 0.06263 0.65637 0.40942 0.0
C371 C 0.04894 0.64603 0.39576 0.0
C372 C 0.06946 0.68129 0.38808 0.0
H373 H 0.03543 0.64575 0.36789 0.0
C374 C 0.02311 0.65593 0.33037 0.0
O375 O 0.99242 0.67847 0.34436 0.0
O376 O 0.99904 0.66761 0.37154 0.0
N377 N 0.07382 0.70459 0.36706 0.0
C378 C 0.08238 0.7218 0.36151 0.0
C379 C 0.09622 0.73398 0.3738 0.0
C380 C 0.10132 0.72829 0.39143 0.0
C381 C 0.09256 0.71046 0.39658 0.0
C382 C 0.07884 0.69894 0.38376 0.0
H383 H 0.0786 0.72622 0.34789 0.0
O384 O 0.02427 0.70322 0.36913 0.0
O385 O 0.03732 0.68737 0.36595 0.0
O386 O 0.03056 0.69867 0.32673 0.0
O387 O 0.05659 0.69981 0.3293 0.0
C388 C 0.09673 0.70369 0.41406 0.0
C389 C 0.08695 0.68566 0.41865 0.0
H390 H 0.06491 0.65038 0.42281 0.0
H391 H 0.04076 0.63216 0.39862 0.0
H392 H 0.10296 0.74771 0.36969 0.0
H393 H 0.11193 0.73774 0.40094 0.0
H394 H 0.10735 0.71225 0.42418 0.0
H395 H 0.09014 0.68066 0.43228 0.0
Mn396 Mn 0.32281 0.33876 0.33893 0.0
Mn397 Mn 0.28586 0.29963 0.33638 0.0
C398 C 0.30124 0.33472 0.31562 0.0
C399 C 0.3515 0.35653 0.32843 0.0
C400 C 0.29341 0.32653 0.37009 0.0
O401 O 0.3291 0.32255 0.35469 0.0
O402 O 0.3049 0.29663 0.34883 0.0
C403 C 0.29701 0.28212 0.30602 0.0
N404 N 0.28557 0.28744 0.31196 0.0
C405 C 0.26783 0.27483 0.28174 0.0
C406 C 0.27935 0.26908 0.27537 0.0
C407 C 0.29403 0.2728 0.28754 0.0
C408 C 0.27147 0.28405 0.30031 0.0
H409 H 0.30832 0.28499 0.31532 0.0
C410 C 0.32042 0.30589 0.35596 0.0
O411 O 0.34592 0.35959 0.34551 0.0
O412 O 0.34057 0.34296 0.31789 0.0
N413 N 0.26624 0.30035 0.32455 0.0
C414 C 0.25686 0.30751 0.33239 0.0
C415 C 0.24193 0.30529 0.32185 0.0
C416 C 0.23668 0.29558 0.30351 0.0
C417 C 0.24642 0.28817 0.29586 0.0
C418 C 0.26112 0.29071 0.3071 0.0
H419 H 0.26077 0.31492 0.34652 0.0
O420 O 0.31306 0.35039 0.32097 0.0
O421 O 0.30259 0.32186 0.32371 0.0
O422 O 0.30786 0.33864 0.36309 0.0
O423 O 0.28475 0.31144 0.36166 0.0
C424 C 0.24232 0.27863 0.27731 0.0
C425 C 0.25305 0.27202 0.27023 0.0
H426 H 0.27713 0.26194 0.26109 0.0
H427 H 0.30303 0.26849 0.28267 0.0
H428 H 0.23448 0.31106 0.32785 0.0
H429 H 0.22522 0.29398 0.29536 0.0
H430 H 0.23109 0.27655 0.26823 0.0
H431 H 0.2499 0.26493 0.2558 0.0
Mn432 Mn 0.32998 0.01517 0.67489 0.0
Mn433 Mn 0.36717 0.05411 0.67323 0.0
C434 C 0.33245 0.03615 0.6516 0.0
C435 C 0.31381 0.98609 0.66417 0.0
C436 C 0.33987 0.04421 0.7065 0.0
O437 O 0.34735 0.01064 0.69096 0.0
O438 O 0.37204 0.03615 0.68537 0.0
C439 C 0.38668 0.04553 0.64287 0.0
N440 N 0.37989 0.05578 0.64891 0.0
C441 C 0.39124 0.07408 0.61902 0.0
C442 C 0.39846 0.06379 0.61255 0.0
C443 C 0.39612 0.04943 0.6245 0.0
C444 C 0.382 0.06958 0.63749 0.0
H445 H 0.38487 0.03446 0.652 0.0
C446 C 0.36387 0.02048 0.69237 0.0
O447 O 0.31034 0.99133 0.68126 0.0
O448 O 0.32706 0.99756 0.65383 0.0
N449 N 0.36442 0.07272 0.66169 0.0
C450 C 0.35587 0.08075 0.66954 0.0
C451 C 0.35654 0.09514 0.65915 0.0
C452 C 0.36613 0.10121 0.64094 0.0
C453 C 0.37497 0.09284 0.63326 0.0
C454 C 0.37392 0.07865 0.64435 0.0
H455 H 0.34854 0.0762 0.68358 0.0
O456 O 0.31721 0.02348 0.65666 0.0
O457 O 0.3458 0.036 0.66004 0.0
O458 O 0.32857 0.02951 0.6989 0.0
O459 O 0.35486 0.05389 0.69861 0.0
C460 C 0.3845 0.09782 0.61483 0.0
C461 C 0.39259 0.08842 0.60769 0.0
H462 H 0.4057 0.06671 0.59835 0.0
H463 H 0.40157 0.04138 0.61955 0.0
H464 H 0.34967 0.10151 0.66517 0.0
H465 H 0.36653 0.11224 0.6329 0.0
H466 H 0.38545 0.10868 0.60587 0.0
H467 H 0.39966 0.0922 0.59335 0.0
Mn468 Mn 0.9861 0.31751 0.68434 0.0
Mn469 Mn 0.985 0.27842 0.68476 0.0
C470 C 0.96756 0.29562 0.70644 0.0
C471 C 0.99785 0.34623 0.69639 0.0
C472 C 0.96697 0.28867 0.65204 0.0
O473 O 0.00836 0.32292 0.66914 0.0
O474 O 0.00662 0.29647 0.67136 0.0
C475 C 0.01453 0.28805 0.71356 0.0
N476 N 0.99749 0.27738 0.70837 0.0
C477 C 0.99278 0.2597 0.73854 0.0
C478 C 0.01031 0.27043 0.74415 0.0
C479 C 0.02122 0.2847 0.73164 0.0
C480 C 0.98685 0.2637 0.72037 0.0
H481 H 0.02294 0.29904 0.70399 0.0
C482 C 0.0143 0.31252 0.66564 0.0
O483 O 0.98968 0.34149 0.67884 0.0
O484 O 0.99972 0.33447 0.70645 0.0
N485 N 0.9649 0.25949 0.69713 0.0
C486 C 0.94826 0.25058 0.68968 0.0
C487 C 0.93567 0.23593 0.70041 0.0
C488 C 0.94037 0.23047 0.71852 0.0
C489 C 0.95764 0.23967 0.7257 0.0
C490 C 0.96965 0.25408 0.71426 0.0
H491 H 0.9446 0.25464 0.67568 0.0
O492 O 0.9647 0.30833 0.70155 0.0
O493 O 0.98135 0.29619 0.69855 0.0
O494 O 0.97132 0.30386 0.6592 0.0
O495 O 0.97152 0.27831 0.66038 0.0
C496 C 0.96337 0.23524 0.74389 0.0
C497 C 0.98091 0.2453 0.75035 0.0
H498 H 0.01552 0.2679 0.75809 0.0
H499 H 0.03475 0.29309 0.73592 0.0
H500 H 0.92238 0.22887 0.69474 0.0
H501 H 0.93062 0.21921 0.7268 0.0
H502 H 0.95435 0.22425 0.75314 0.0
H503 H 0.98511 0.24188 0.76447 0.0
Mn504 Mn 0.6812 0.66205 0.67901 0.0
Mn505 Mn 0.71893 0.70065 0.67774 0.0
C506 C 0.70354 0.66717 0.70172 0.0
C507 C 0.65281 0.64499 0.69121 0.0
C508 C 0.70977 0.6715 0.64688 0.0
O509 O 0.6746 0.67765 0.66212 0.0
O510 O 0.70012 0.70303 0.66373 0.0
C511 C 0.70845 0.72072 0.70508 0.0
N512 N 0.71961 0.71468 0.70052 0.0
C513 C 0.73735 0.72884 0.7303 0.0
C514 C 0.72611 0.73532 0.73525 0.0
C515 C 0.71157 0.73119 0.72261 0.0
C516 C 0.73356 0.71846 0.71265 0.0
H517 H 0.69725 0.71754 0.69541 0.0
C518 C 0.68417 0.69389 0.65798 0.0
O519 O 0.6578 0.64102 0.67428 0.0
O520 O 0.66411 0.65914 0.70058 0.0
N521 N 0.73847 0.70052 0.6906 0.0
C522 C 0.74783 0.69295 0.68388 0.0
C523 C 0.76279 0.69574 0.69484 0.0
C524 C 0.76808 0.70644 0.71243 0.0
C525 C 0.75838 0.71427 0.71889 0.0
C526 C 0.74369 0.71115 0.70724 0.0
H527 H 0.74389 0.68482 0.67028 0.0
O528 O 0.69139 0.6513 0.69773 0.0
O529 O 0.70213 0.67963 0.69257 0.0
O530 O 0.69518 0.66037 0.65469 0.0
O531 O 0.71941 0.68688 0.65413 0.0
C532 C 0.7626 0.7249 0.73655 0.0
C533 C 0.75205 0.73212 0.74231 0.0
H534 H 0.72846 0.74338 0.74878 0.0
H535 H 0.7028 0.73608 0.72638 0.0
H536 H 0.77023 0.68967 0.68973 0.0
H537 H 0.7796 0.70853 0.72086 0.0
H538 H 0.77381 0.72744 0.74595 0.0
H539 H 0.75531 0.7401 0.75605 0.0
Mn540 Mn 0.33225 0.31848 0.67211 0.0
Mn541 Mn 0.36982 0.3169 0.67323 0.0
C542 C 0.33659 0.30133 0.64871 0.0
C543 C 0.31565 0.33102 0.66081 0.0
C544 C 0.34011 0.29608 0.70233 0.0
O545 O 0.34806 0.33976 0.68941 0.0
O546 O 0.37209 0.33691 0.69003 0.0
C547 C 0.39114 0.34976 0.6502 0.0
N548 N 0.38479 0.33221 0.65241 0.0
C549 C 0.40032 0.3313 0.62261 0.0
C550 C 0.40712 0.3494 0.6201 0.0
C551 C 0.40246 0.35865 0.63392 0.0
C552 C 0.38907 0.32315 0.6391 0.0
H553 H 0.3876 0.35693 0.66078 0.0
C554 C 0.36365 0.34472 0.69519 0.0
O555 O 0.31176 0.32171 0.6775 0.0
O556 O 0.3295 0.33351 0.65115 0.0
N557 N 0.37004 0.29847 0.65777 0.0
C558 C 0.36189 0.28098 0.66192 0.0
C559 C 0.36492 0.2698 0.64929 0.0
C560 C 0.37648 0.27675 0.63274 0.0
C561 C 0.38496 0.29482 0.62898 0.0
C562 C 0.38145 0.30533 0.64211 0.0
H563 H 0.35299 0.27558 0.67461 0.0
O564 O 0.32098 0.29822 0.65301 0.0
O565 O 0.34942 0.31465 0.65801 0.0
O566 O 0.33029 0.30207 0.69597 0.0
O567 O 0.35501 0.30052 0.69465 0.0
C568 C 0.39652 0.30281 0.61254 0.0
C569 C 0.40413 0.32102 0.60929 0.0
H570 H 0.41586 0.3563 0.60756 0.0
H571 H 0.4076 0.3726 0.63204 0.0
H572 H 0.35832 0.25586 0.65228 0.0
H573 H 0.37868 0.26806 0.62294 0.0
H574 H 0.39953 0.29504 0.60216 0.0
H575 H 0.41283 0.32696 0.59645 0.0
Mn576 Mn 0.6811 0.01836 0.68319 0.0
Mn577 Mn 0.71858 0.01668 0.68533 0.0
C578 C 0.70257 0.03544 0.70681 0.0
C579 C 0.65232 0.00747 0.69381 0.0
C580 C 0.7112 0.03724 0.6529 0.0
O581 O 0.675 0.99625 0.66682 0.0
O582 O 0.70013 0.99575 0.67083 0.0
C583 C 0.70658 0.98599 0.71283 0.0
N584 N 0.71809 0.00306 0.70855 0.0
C585 C 0.73495 0.00578 0.73899 0.0
C586 C 0.72333 0.9882 0.74367 0.0
C587 C 0.70905 0.97829 0.73057 0.0
C588 C 0.73177 0.01277 0.72114 0.0
H589 H 0.69561 0.97832 0.70277 0.0
C590 C 0.68445 0.98913 0.66409 0.0
O591 O 0.65789 0.01631 0.67684 0.0
O592 O 0.66326 0.00451 0.70408 0.0
N593 N 0.73775 0.03591 0.69898 0.0
C594 C 0.74743 0.05283 0.69261 0.0
C595 C 0.76202 0.06459 0.70425 0.0
C596 C 0.76669 0.05877 0.7221 0.0
C597 C 0.75673 0.04122 0.72813 0.0
C598 C 0.74231 0.03011 0.71595 0.0
H599 H 0.74398 0.05735 0.67883 0.0
O600 O 0.69062 0.03928 0.70156 0.0
O601 O 0.70141 0.02143 0.69847 0.0
O602 O 0.6961 0.03368 0.65924 0.0
O603 O 0.72036 0.03129 0.6614 0.0
C604 C 0.76044 0.03435 0.74587 0.0
C605 C 0.74949 0.01668 0.75138 0.0
H606 H 0.72521 0.9822 0.75733 0.0
H607 H 0.69999 0.96473 0.73412 0.0
H608 H 0.76966 0.07811 0.69946 0.0
H609 H 0.7779 0.06791 0.73109 0.0
H610 H 0.7716 0.04258 0.7555 0.0
H611 H 0.75234 0.01162 0.76521 0.0
Mn612 Mn 0.98567 0.67237 0.67249 0.0
Mn613 Mn 0.94699 0.63478 0.67105 0.0
C614 C 0.96445 0.66926 0.6491 0.0
C615 C 0.01455 0.68892 0.66196 0.0
C616 C 0.95653 0.66277 0.70364 0.0
O617 O 0.9907 0.65534 0.68869 0.0
O618 O 0.96484 0.63066 0.6847 0.0
C619 C 0.95665 0.61491 0.64234 0.0
N620 N 0.94604 0.6215 0.64738 0.0
C621 C 0.92847 0.6091 0.61699 0.0
C622 C 0.93915 0.60208 0.61152 0.0
C623 C 0.95333 0.60505 0.62423 0.0
C624 C 0.93245 0.61884 0.63519 0.0
H625 H 0.96757 0.61719 0.65207 0.0
C626 C 0.98058 0.63895 0.69139 0.0
O627 O 0.00925 0.69241 0.67896 0.0
O628 O 0.00323 0.67547 0.65152 0.0
N629 N 0.92832 0.63665 0.65831 0.0
C630 C 0.91958 0.64471 0.66552 0.0
C631 C 0.90503 0.64306 0.65459 0.0
C632 C 0.89951 0.63299 0.63651 0.0
C633 C 0.90862 0.6247 0.62948 0.0
C634 C 0.92292 0.62667 0.64113 0.0
H635 H 0.92366 0.65233 0.67951 0.0
O636 O 0.97693 0.68471 0.6541 0.0
O637 O 0.96489 0.65606 0.65765 0.0
O638 O 0.9714 0.67381 0.69646 0.0
O639 O 0.94667 0.64775 0.69562 0.0
C640 C 0.9042 0.61471 0.61127 0.0
C641 C 0.91417 0.60698 0.60498 0.0
H642 H 0.93664 0.59449 0.59756 0.0
H643 H 0.96168 0.59974 0.62007 0.0
H644 H 0.89805 0.64949 0.66011 0.0
H645 H 0.88827 0.63172 0.62814 0.0
H646 H 0.89329 0.61307 0.60186 0.0
H647 H 0.91077 0.59951 0.59082 0.0
C648 C 0.21434 0.32878 0.12232 0.0
C649 C 0.21138 0.31606 0.10735 0.0
C650 C 0.20086 0.3269 0.13511 0.0
C651 C 0.18414 0.3122 0.13328 0.0
C652 C 0.19464 0.30134 0.10554 0.0
C653 C 0.1811 0.29953 0.11826 0.0
C654 C 0.16958 0.31074 0.14593 0.0
C655 C 0.20665 0.30611 0.1912 0.0
C656 C 0.21226 0.31835 0.20736 0.0
C657 C 0.19331 0.30432 0.17783 0.0
C658 C 0.18568 0.31502 0.18021 0.0
C659 C 0.20478 0.32915 0.20948 0.0
C660 C 0.19166 0.3275 0.19607 0.0
C661 C 0.17064 0.31271 0.16753 0.0
C662 C 0.10068 0.30656 0.18945 0.0
C663 C 0.10686 0.31858 0.20591 0.0
C664 C 0.11234 0.30438 0.17689 0.0
C665 C 0.13044 0.3144 0.18029 0.0
C666 C 0.12495 0.32822 0.20951 0.0
C667 C 0.13654 0.3262 0.19686 0.0
C668 C 0.14331 0.31232 0.16763 0.0
C669 C 0.11773 0.33083 0.12138 0.0
C670 C 0.10675 0.31773 0.10748 0.0
C671 C 0.1289 0.32818 0.13434 0.0
C672 C 0.12937 0.31244 0.13351 0.0
C673 C 0.10695 0.30182 0.1069 0.0
C674 C 0.1184 0.29929 0.11965 0.0
C675 C 0.14229 0.31043 0.14602 0.0
H676 H 0.22711 0.34021 0.12419 0.0
H677 H 0.20343 0.33709 0.14621 0.0
H678 H 0.19191 0.29142 0.09401 0.0
H679 H 0.16824 0.28823 0.11637 0.0
H680 H 0.21215 0.29754 0.18938 0.0
H681 H 0.18866 0.29428 0.16608 0.0
H682 H 0.20902 0.33885 0.22164 0.0
H683 H 0.18603 0.33593 0.19825 0.0
H684 H 0.08685 0.29889 0.18617 0.0
H685 H 0.10714 0.29469 0.16474 0.0
H686 H 0.13026 0.33724 0.22233 0.0
H687 H 0.15039 0.33397 0.20009 0.0
H688 H 0.11775 0.34318 0.12209 0.0
H689 H 0.13749 0.3386 0.14469 0.0
H690 H 0.09865 0.29161 0.09618 0.0
H691 H 0.11876 0.28714 0.11867 0.0
N692 N 0.15538 0.30959 0.13603 0.0
N693 N 0.15746 0.31336 0.1774 0.0
C694 C 0.67443 0.88962 0.1254 0.0
C695 C 0.68652 0.89797 0.10962 0.0
C696 C 0.6749 0.87653 0.13714 0.0
C697 C 0.68781 0.87183 0.13376 0.0
C698 C 0.69919 0.89301 0.10588 0.0
C699 C 0.69982 0.88005 0.11787 0.0
C700 C 0.68804 0.85759 0.14581 0.0
C701 C 0.69619 0.89903 0.19312 0.0
C702 C 0.68373 0.89299 0.20886 0.0
C703 C 0.69688 0.88718 0.17928 0.0
C704 C 0.68485 0.86917 0.18073 0.0
C705 C 0.67169 0.87502 0.21014 0.0
C706 C 0.67226 0.86327 0.19625 0.0
C707 C 0.68582 0.85603 0.16735 0.0
C708 C 0.69159 0.79274 0.19066 0.0
C709 C 0.67912 0.78693 0.20638 0.0
C710 C 0.69307 0.80573 0.17691 0.0
C711 C 0.68188 0.81283 0.17851 0.0
C712 C 0.66762 0.79365 0.20747 0.0
C713 C 0.669 0.80646 0.19372 0.0
C714 C 0.68444 0.82817 0.16627 0.0
C715 C 0.67026 0.78533 0.11996 0.0
C716 C 0.68349 0.78869 0.10577 0.0
C717 C 0.67147 0.79862 0.13281 0.0
C718 C 0.68598 0.81552 0.1318 0.0
C719 C 0.69799 0.80564 0.10474 0.0
C720 C 0.69913 0.81899 0.11752 0.0
C721 C 0.68696 0.82979 0.1448 0.0
H722 H 0.66424 0.89285 0.12826 0.0
H723 H 0.66496 0.86986 0.14863 0.0
H724 H 0.70861 0.89919 0.09372 0.0
H725 H 0.7097 0.87645 0.11473 0.0
H726 H 0.70571 0.91282 0.19194 0.0
H727 H 0.70702 0.89204 0.1678 0.0
H728 H 0.66182 0.87003 0.22195 0.0
H729 H 0.66286 0.84946 0.19774 0.0
H730 H 0.70068 0.78781 0.1896 0.0
H731 H 0.70338 0.8107 0.16564 0.0
H732 H 0.65772 0.78921 0.21923 0.0
H733 H 0.6602 0.8117 0.19528 0.0
H734 H 0.65898 0.77238 0.12121 0.0
H735 H 0.66095 0.79573 0.14336 0.0
H736 H 0.70829 0.80866 0.0938 0.0
H737 H 0.71032 0.832 0.11631 0.0
N738 N 0.68872 0.84447 0.1354 0.0
N739 N 0.68405 0.84137 0.17657 0.0
C740 C 0.11066 0.78807 0.1255 0.0
C741 C 0.10292 0.79168 0.10858 0.0
C742 C 0.1226 0.80162 0.13809 0.0
C743 C 0.1267 0.81904 0.13439 0.0
C744 C 0.10719 0.80911 0.10468 0.0
C745 C 0.11897 0.82266 0.11748 0.0
C746 C 0.14014 0.83365 0.14689 0.0
C747 C 0.0986 0.79899 0.19292 0.0
C748 C 0.10485 0.79095 0.20675 0.0
C749 C 0.1102 0.81267 0.18019 0.0
C750 C 0.1282 0.81859 0.18134 0.0
C751 C 0.12285 0.79701 0.20785 0.0
C752 C 0.13439 0.81076 0.19543 0.0
C753 C 0.14095 0.83325 0.16857 0.0
C754 C 0.20276 0.9044 0.18985 0.0
C755 C 0.20776 0.89899 0.20774 0.0
C756 C 0.1898 0.89201 0.17687 0.0
C757 C 0.18213 0.87398 0.18124 0.0
C758 C 0.19995 0.88109 0.21229 0.0
C759 C 0.18736 0.86873 0.19914 0.0
C760 C 0.16782 0.86039 0.16842 0.0
C761 C 0.21227 0.88744 0.12406 0.0
C762 C 0.20929 0.8968 0.10844 0.0
C763 C 0.19866 0.87592 0.1367 0.0
C764 C 0.18179 0.87353 0.134 0.0
C765 C 0.19238 0.89438 0.10575 0.0
C766 C 0.17872 0.8827 0.11828 0.0
C767 C 0.16718 0.86067 0.14669 0.0
H768 H 0.10794 0.77482 0.12857 0.0
H769 H 0.12898 0.79848 0.15035 0.0
H770 H 0.10143 0.81226 0.09172 0.0
H771 H 0.12214 0.836 0.11409 0.0
H772 H 0.08477 0.79458 0.19183 0.0
H773 H 0.10516 0.8187 0.16963 0.0
H774 H 0.12807 0.79126 0.21859 0.0
H775 H 0.14822 0.8152 0.19669 0.0
H776 H 0.20855 0.91821 0.18622 0.0
H777 H 0.18559 0.89659 0.16372 0.0
H778 H 0.2037 0.87666 0.226 0.0
H779 H 0.18164 0.85498 0.20305 0.0
H780 H 0.22516 0.8891 0.12659 0.0
H781 H 0.20127 0.8687 0.14843 0.0
H782 H 0.18966 0.90127 0.09371 0.0
H783 H 0.16575 0.88086 0.11576 0.0
N784 N 0.15327 0.8474 0.13683 0.0
N785 N 0.15471 0.84662 0.17837 0.0
C786 C 0.32463 0.1159 0.83369 0.0
C787 C 0.31212 0.10566 0.81878 0.0
C788 C 0.32162 0.12661 0.84698 0.0
C789 C 0.30606 0.1273 0.84555 0.0
C790 C 0.29638 0.10606 0.81768 0.0
C791 C 0.29348 0.11697 0.8308 0.0
C792 C 0.30375 0.14011 0.85797 0.0
C793 C 0.30214 0.09909 0.90076 0.0
C794 C 0.31392 0.10541 0.91748 0.0
C795 C 0.29901 0.11054 0.88872 0.0
C796 C 0.30802 0.12868 0.89265 0.0
C797 C 0.32206 0.12342 0.92209 0.0
C798 C 0.31925 0.13487 0.90978 0.0
C799 C 0.30569 0.14139 0.87961 0.0
C800 C 0.29929 0.20582 0.89932 0.0
C801 C 0.31385 0.21416 0.91254 0.0
C802 C 0.29608 0.19073 0.88841 0.0
C803 C 0.3074 0.18379 0.89056 0.0
C804 C 0.32475 0.2068 0.91511 0.0
C805 C 0.32151 0.19177 0.90434 0.0
C806 C 0.30498 0.16835 0.87866 0.0
C807 C 0.31742 0.21077 0.83122 0.0
C808 C 0.30561 0.20593 0.81465 0.0
C809 C 0.31624 0.19824 0.84543 0.0
C810 C 0.30291 0.18069 0.84369 0.0
C811 C 0.2922 0.18844 0.81301 0.0
C812 C 0.29088 0.17596 0.82738 0.0
C813 C 0.30269 0.16684 0.85707 0.0
H814 H 0.33686 0.11581 0.83488 0.0
H815 H 0.33167 0.13474 0.85796 0.0
H816 H 0.28661 0.09844 0.80617 0.0
H817 H 0.2815 0.11752 0.82927 0.0
H818 H 0.29556 0.08535 0.89665 0.0
H819 H 0.28958 0.10513 0.8763 0.0
H820 H 0.33073 0.1288 0.93522 0.0
H821 H 0.32613 0.1487 0.91356 0.0
H822 H 0.29064 0.21117 0.89708 0.0
H823 H 0.28489 0.1846 0.87818 0.0
H824 H 0.33586 0.21271 0.92549 0.0
H825 H 0.33033 0.18658 0.90643 0.0
H826 H 0.32811 0.22408 0.83262 0.0
H827 H 0.3262 0.20218 0.85725 0.0
H828 H 0.28292 0.18434 0.80038 0.0
H829 H 0.28065 0.16248 0.8255 0.0
N830 N 0.3021 0.15273 0.84766 0.0
N831 N 0.30633 0.15556 0.88897 0.0
C832 C 0.90203 0.20181 0.90029 0.0
C833 C 0.89819 0.21262 0.9125 0.0
C834 C 0.88886 0.18822 0.88876 0.0
C835 C 0.87165 0.18515 0.88961 0.0
C836 C 0.88097 0.20946 0.9134 0.0
C837 C 0.86775 0.19566 0.90226 0.0
C838 C 0.85757 0.17085 0.87763 0.0
C839 C 0.88861 0.21333 0.83163 0.0
C840 C 0.8951 0.20818 0.81496 0.0
C841 C 0.87693 0.20087 0.84537 0.0
C842 C 0.87176 0.18303 0.84297 0.0
C843 C 0.89004 0.19036 0.81266 0.0
C844 C 0.87846 0.17793 0.8265 0.0
C845 C 0.85801 0.16947 0.85606 0.0
C846 C 0.78536 0.11583 0.83347 0.0
C847 C 0.78863 0.10669 0.81799 0.0
C848 C 0.79879 0.12735 0.84655 0.0
C849 C 0.81573 0.12987 0.84445 0.0
C850 C 0.80556 0.10909 0.81611 0.0
C851 C 0.81899 0.12067 0.82911 0.0
C852 C 0.8304 0.14322 0.85684 0.0
C853 C 0.79515 0.10155 0.90112 0.0
C854 C 0.78894 0.10746 0.9174 0.0
C855 C 0.8085 0.11349 0.88846 0.0
C856 C 0.81566 0.13161 0.89149 0.0
C857 C 0.79651 0.12561 0.92073 0.0
C858 C 0.80969 0.13752 0.90792 0.0
C859 C 0.83 0.14457 0.87847 0.0
H860 H 0.91526 0.20409 0.89938 0.0
H861 H 0.89206 0.18009 0.87926 0.0
H862 H 0.87776 0.21765 0.92279 0.0
H863 H 0.85453 0.19341 0.90318 0.0
H864 H 0.89199 0.22691 0.83358 0.0
H865 H 0.87143 0.20516 0.85736 0.0
H866 H 0.89491 0.18601 0.80004 0.0
H867 H 0.87453 0.16424 0.82416 0.0
H868 H 0.77244 0.11421 0.83534 0.0
H869 H 0.79603 0.13461 0.85795 0.0
H870 H 0.80856 0.10245 0.80414 0.0
H871 H 0.83201 0.12261 0.82703 0.0
H872 H 0.78961 0.08769 0.89798 0.0
H873 H 0.81327 0.10849 0.87641 0.0
H874 H 0.79238 0.13068 0.93337 0.0
H875 H 0.81519 0.15141 0.91085 0.0
N876 N 0.84358 0.15841 0.88796 0.0
N877 N 0.84444 0.15565 0.84655 0.0
C878 C 0.79573 0.70069 0.89898 0.0
C879 C 0.78892 0.68753 0.91411 0.0
C880 C 0.80969 0.70289 0.88675 0.0
C881 C 0.81689 0.69182 0.88927 0.0
C882 C 0.79629 0.67661 0.91664 0.0
C883 C 0.81015 0.6788 0.90444 0.0
C884 C 0.8318 0.69387 0.87685 0.0
C885 C 0.78801 0.67867 0.83043 0.0
C886 C 0.79205 0.69005 0.81357 0.0
C887 C 0.80102 0.68073 0.84445 0.0
C888 C 0.81823 0.69447 0.84214 0.0
C889 C 0.8092 0.70391 0.81145 0.0
C890 C 0.82215 0.70607 0.82557 0.0
C891 C 0.83261 0.69561 0.85521 0.0
C892 C 0.88629 0.67754 0.83154 0.0
C893 C 0.89531 0.68987 0.81607 0.0
C894 C 0.87534 0.67995 0.84492 0.0
C895 C 0.87315 0.69471 0.84303 0.0
C896 C 0.89349 0.70488 0.81455 0.0
C897 C 0.88232 0.70717 0.82777 0.0
C898 C 0.86002 0.69618 0.85555 0.0
C899 C 0.90367 0.70425 0.89785 0.0
C900 C 0.89889 0.69218 0.91408 0.0
C901 C 0.89093 0.70533 0.886 0.0
C902 C 0.87313 0.69407 0.88984 0.0
C903 C 0.88112 0.68136 0.91838 0.0
C904 C 0.86838 0.68231 0.90638 0.0
C905 C 0.85935 0.69471 0.87719 0.0
H906 H 0.79047 0.70944 0.89682 0.0
H907 H 0.81494 0.71333 0.8755 0.0
H908 H 0.79118 0.66616 0.92788 0.0
H909 H 0.81549 0.67011 0.90671 0.0
H910 H 0.77497 0.6677 0.83225 0.0
H911 H 0.79773 0.67116 0.85658 0.0
H912 H 0.81266 0.71294 0.79868 0.0
H913 H 0.83535 0.71664 0.8233 0.0
H914 H 0.88749 0.66586 0.83304 0.0
H915 H 0.86812 0.66998 0.85631 0.0
H916 H 0.90016 0.71447 0.80261 0.0
H917 H 0.88063 0.71852 0.82591 0.0
H918 H 0.91729 0.71297 0.89443 0.0
H919 H 0.89502 0.71504 0.8739 0.0
H920 H 0.87705 0.67187 0.93072 0.0
H921 H 0.85476 0.67359 0.90982 0.0
N922 N 0.84521 0.6935 0.88692 0.0
N923 N 0.84674 0.69675 0.84548 0.0
C924 C 0.7656 0.63396 0.45234 0.0
C925 C 0.77095 0.64711 0.43727 0.0
C926 C 0.77795 0.63207 0.46408 0.0
C927 C 0.79586 0.64344 0.46113 0.0
C928 C 0.78889 0.65821 0.43412 0.0
C929 C 0.80119 0.65633 0.44585 0.0
C930 C 0.80924 0.642 0.47359 0.0
C931 C 0.78171 0.65844 0.51963 0.0
C932 C 0.77277 0.64592 0.53497 0.0
C933 C 0.79286 0.65638 0.50618 0.0
C934 C 0.7953 0.64175 0.50782 0.0
C935 C 0.77488 0.63107 0.53626 0.0
C936 C 0.78621 0.62911 0.52294 0.0
C937 C 0.80858 0.64055 0.49522 0.0
C938 C 0.88086 0.65876 0.51928 0.0
C939 C 0.87713 0.6481 0.53677 0.0
C940 C 0.8676 0.6561 0.50535 0.0
C941 C 0.85045 0.64247 0.50843 0.0
C942 C 0.86004 0.63433 0.53965 0.0
C943 C 0.84684 0.63157 0.52564 0.0
C944 C 0.83585 0.64085 0.49542 0.0
C945 C 0.87155 0.63285 0.4534 0.0
C946 C 0.8782 0.64471 0.43691 0.0
C947 C 0.85784 0.63171 0.46523 0.0
C948 C 0.85075 0.6427 0.46114 0.0
C949 C 0.87071 0.65527 0.43242 0.0
C950 C 0.85714 0.65427 0.44439 0.0
C951 C 0.83639 0.64199 0.4737 0.0
H952 H 0.75188 0.62504 0.45492 0.0
H953 H 0.7735 0.62169 0.47538 0.0
H954 H 0.79347 0.66864 0.42287 0.0
H955 H 0.81492 0.66522 0.44325 0.0
H956 H 0.7803 0.67 0.51826 0.0
H957 H 0.80001 0.6665 0.49494 0.0
H958 H 0.7683 0.62132 0.54807 0.0
H959 H 0.78808 0.61785 0.52463 0.0
H960 H 0.89387 0.66963 0.51685 0.0
H961 H 0.87065 0.66514 0.49265 0.0
H962 H 0.85683 0.62584 0.55293 0.0
H963 H 0.83369 0.62111 0.52847 0.0
H964 H 0.87686 0.62433 0.45701 0.0
H965 H 0.85276 0.62219 0.47754 0.0
H966 H 0.87561 0.66462 0.41991 0.0
H967 H 0.85183 0.66278 0.44075 0.0
N968 N 0.8231 0.64266 0.46371 0.0
N969 N 0.82188 0.63999 0.50523 0.0
C970 C 0.34103 0.22295 0.45574 0.0
C971 C 0.35367 0.23148 0.44056 0.0
C972 C 0.3412 0.20986 0.46778 0.0
C973 C 0.35434 0.20536 0.4653 0.0
C974 C 0.36653 0.22664 0.43763 0.0
C975 C 0.36685 0.21368 0.44993 0.0
C976 C 0.35443 0.19134 0.47793 0.0
C977 C 0.36107 0.23359 0.52304 0.0
C978 C 0.34783 0.22789 0.53787 0.0
C979 C 0.36248 0.22148 0.51033 0.0
C980 C 0.35054 0.20348 0.51206 0.0
C981 C 0.33607 0.20985 0.53964 0.0
C982 C 0.33742 0.19783 0.52692 0.0
C983 C 0.35193 0.19018 0.49943 0.0
C984 C 0.35774 0.12719 0.52493 0.0
C985 C 0.34491 0.12126 0.54022 0.0
C986 C 0.35957 0.14032 0.5112 0.0
C987 C 0.34834 0.1474 0.51235 0.0
C988 C 0.33353 0.12814 0.54105 0.0
C989 C 0.33524 0.14107 0.52728 0.0
C990 C 0.35084 0.16244 0.49955 0.0
C991 C 0.33846 0.11844 0.45592 0.0
C992 C 0.35181 0.12173 0.44192 0.0
C993 C 0.33895 0.13202 0.46756 0.0
C994 C 0.35293 0.14918 0.46569 0.0
C995 C 0.36554 0.13902 0.43963 0.0
C996 C 0.36605 0.15263 0.45136 0.0
C997 C 0.35353 0.16362 0.47808 0.0
H998 H 0.33069 0.22609 0.45795 0.0
H999 H 0.33092 0.20312 0.47887 0.0
H1000 H 0.37636 0.23295 0.42593 0.0
H1001 H 0.37692 0.21021 0.4475 0.0
H1002 H 0.37033 0.24739 0.52124 0.0
H1003 H 0.373 0.22616 0.49936 0.0
H1004 H 0.32598 0.20492 0.55118 0.0
H1005 H 0.32817 0.18401 0.52874 0.0
H1006 H 0.36676 0.12217 0.52411 0.0
H1007 H 0.37007 0.14529 0.50018 0.0
H1008 H 0.3234 0.12365 0.55254 0.0
H1009 H 0.32643 0.14632 0.52851 0.0
H1010 H 0.32748 0.10536 0.45769 0.0
H1011 H 0.32832 0.12912 0.47794 0.0
H1012 H 0.37604 0.14198 0.42902 0.0
H1013 H 0.37683 0.16581 0.44947 0.0
N1014 N 0.35532 0.17809 0.46812 0.0
N1015 N 0.35017 0.17575 0.50925 0.0
C1016 C 0.78506 0.12122 0.45818 0.0
C1017 C 0.77385 0.12273 0.44389 0.0
C1018 C 0.7964 0.13552 0.47023 0.0
C1019 C 0.79681 0.15165 0.46818 0.0
C1020 C 0.77399 0.13878 0.44207 0.0
C1021 C 0.78559 0.15323 0.45396 0.0
C1022 C 0.8099 0.16702 0.47983 0.0
C1023 C 0.76999 0.13301 0.5275 0.0
C1024 C 0.77672 0.12664 0.54293 0.0
C1025 C 0.78118 0.14569 0.5135 0.0
C1026 C 0.79928 0.15215 0.51466 0.0
C1027 C 0.79479 0.13282 0.54356 0.0
C1028 C 0.80591 0.14549 0.52972 0.0
C1029 C 0.81167 0.16668 0.5014 0.0
C1030 C 0.87311 0.23682 0.52308 0.0
C1031 C 0.88207 0.23095 0.53598 0.0
C1032 C 0.85908 0.22486 0.51089 0.0
C1033 C 0.85371 0.20689 0.51173 0.0
C1034 C 0.87672 0.21299 0.53655 0.0
C1035 C 0.8626 0.20109 0.52471 0.0
C1036 C 0.8384 0.19377 0.49998 0.0
C1037 C 0.8811 0.22288 0.45501 0.0
C1038 C 0.87746 0.23224 0.44002 0.0
C1039 C 0.86786 0.21053 0.46736 0.0
C1040 C 0.85068 0.20741 0.46528 0.0
C1041 C 0.86015 0.2287 0.43745 0.0
C1042 C 0.84687 0.21635 0.44994 0.0
C1043 C 0.83665 0.19422 0.47841 0.0
H1044 H 0.78515 0.10897 0.4599 0.0
H1045 H 0.80518 0.13409 0.4808 0.0
H1046 H 0.76553 0.14027 0.43104 0.0
H1047 H 0.78586 0.16564 0.452 0.0
H1048 H 0.75616 0.12863 0.52667 0.0
H1049 H 0.77576 0.15084 0.50224 0.0
H1050 H 0.80041 0.12792 0.55487 0.0
H1051 H 0.81979 0.15019 0.53087 0.0
H1052 H 0.87697 0.2506 0.52242 0.0
H1053 H 0.85224 0.22958 0.50115 0.0
H1054 H 0.88322 0.20808 0.54658 0.0
H1055 H 0.85861 0.18728 0.52566 0.0
H1056 H 0.89419 0.22494 0.45702 0.0
H1057 H 0.87105 0.20327 0.47843 0.0
H1058 H 0.85692 0.23569 0.42603 0.0
H1059 H 0.83366 0.21394 0.44781 0.0
N1060 N 0.8224 0.18084 0.46914 0.0
N1061 N 0.82588 0.18003 0.51055 0.0
C1062 C 0.97888 0.5447 0.16139 0.0
C1063 C 0.99019 0.5494 0.14449 0.0
C1064 C 0.97596 0.53049 0.17392 0.0
C1065 C 0.98456 0.52089 0.17002 0.0
C1066 C 0.99839 0.53945 0.14041 0.0
C1067 C 0.99566 0.52546 0.15301 0.0
C1068 C 0.98178 0.5056 0.18268 0.0
C1069 C 0.00367 0.55061 0.22801 0.0
C1070 C 0.99107 0.54938 0.24202 0.0
C1071 C 1.00043 0.53638 0.21549 0.0
C1072 C 0.98457 0.52063 0.21688 0.0
C1073 C 0.97512 0.53366 0.24324 0.0
C1074 C 0.97199 0.51931 0.23094 0.0
C1075 C 0.98152 0.50534 0.20438 0.0
C1076 C 0.9974 0.44838 0.22437 0.0
C1077 C 0.98698 0.44073 0.24176 0.0
C1078 C 0.99491 0.46003 0.21204 0.0
C1079 C 0.98171 0.46405 0.21654 0.0
C1080 C 0.97378 0.4448 0.24628 0.0
C1081 C 0.97125 0.45644 0.23385 0.0
C1082 C 0.97975 0.47722 0.20419 0.0
C1083 C 0.96831 0.43216 0.16163 0.0
C1084 C 0.97808 0.43686 0.14348 0.0
C1085 C 0.96837 0.44511 0.17428 0.0
C1086 C 0.97876 0.46298 0.16937 0.0
C1087 C 0.98798 0.4546 0.13824 0.0
C1088 C 0.98839 0.46751 0.15107 0.0
C1089 C 0.9794 0.4772 0.18242 0.0
H1090 H 0.97232 0.55204 0.16502 0.0
H1091 H 0.96684 0.52693 0.18646 0.0
H1092 H 0.0068 0.54228 0.12724 0.0
H1093 H 0.00231 0.5182 0.14943 0.0
H1094 H 0.01605 0.5626 0.22673 0.0
H1095 H 0.01039 0.53758 0.20491 0.0
H1096 H 0.96526 0.53235 0.25405 0.0
H1097 H 0.95975 0.50719 0.23235 0.0
H1098 H 0.00758 0.44545 0.22032 0.0
H1099 H 0.0035 0.46611 0.19913 0.0
H1100 H 0.96572 0.43937 0.25973 0.0
H1101 H 0.9612 0.45959 0.23783 0.0
H1102 H 0.96045 0.4185 0.16582 0.0
H1103 H 0.96022 0.4411 0.18779 0.0
H1104 H 0.99566 0.4585 0.12433 0.0
H1105 H 0.99643 0.48111 0.14673 0.0
N1106 N 0.98056 0.49146 0.17269 0.0
N1107 N 0.98052 0.49118 0.21428 0.0
C1108 C 0.46101 0.43742 0.16473 0.0
C1109 C 0.45505 0.44378 0.14849 0.0
C1110 C 0.47383 0.44909 0.17842 0.0
C1111 C 0.48063 0.46727 0.17629 0.0
C1112 C 0.46161 0.46191 0.1467 0.0
C1113 C 0.47424 0.47349 0.16041 0.0
C1114 C 0.49553 0.48015 0.1889 0.0
C1115 C 0.45296 0.45124 0.23497 0.0
C1116 C 0.45687 0.44215 0.25007 0.0
C1117 C 0.46591 0.46296 0.22178 0.0
C1118 C 0.48299 0.46574 0.22332 0.0
C1119 C 0.47398 0.44495 0.25157 0.0
C1120 C 0.48695 0.45675 0.23843 0.0
C1121 C 0.49704 0.47905 0.21043 0.0
C1122 C 0.55338 0.55037 0.23355 0.0
C1123 C 0.56261 0.54651 0.2485 0.0
C1124 C 0.54124 0.53721 0.22069 0.0
C1125 C 0.53815 0.51995 0.22247 0.0
C1126 C 0.5596 0.52926 0.25015 0.0
C1127 C 0.54734 0.51606 0.23737 0.0
C1128 C 0.52433 0.50575 0.21002 0.0
C1129 C 0.5657 0.53966 0.16382 0.0
C1130 C 0.55962 0.54564 0.14732 0.0
C1131 C 0.55391 0.52732 0.17766 0.0
C1132 C 0.5359 0.52109 0.17547 0.0
C1133 C 0.54167 0.53958 0.14536 0.0
C1134 C 0.52997 0.52746 0.15926 0.0
C1135 C 0.52285 0.5068 0.18849 0.0
H1136 H 0.45625 0.4235 0.16634 0.0
H1137 H 0.47885 0.44392 0.19014 0.0
H1138 H 0.45709 0.46717 0.13451 0.0
H1139 H 0.47925 0.48743 0.15838 0.0
H1140 H 0.43988 0.44927 0.23333 0.0
H1141 H 0.46262 0.4701 0.21063 0.0
H1142 H 0.47743 0.43828 0.2632 0.0
H1143 H 0.50011 0.45891 0.24009 0.0
H1144 H 0.5555 0.56357 0.23185 0.0
H1145 H 0.534 0.54046 0.20966 0.0
H1146 H 0.56641 0.52589 0.26166 0.0
H1147 H 0.54496 0.50277 0.23918 0.0
H1148 H 0.57948 0.54403 0.16554 0.0
H1149 H 0.55885 0.52226 0.1896 0.0
H1150 H 0.53665 0.54413 0.13294 0.0
H1151 H 0.51617 0.52288 0.15716 0.0
N1152 N 0.50851 0.49396 0.17892 0.0
N1153 N 0.51143 0.49185 0.22011 0.0
C1154 C 0.45719 0.02038 0.23135 0.0
C1155 C 0.45099 0.00792 0.24732 0.0
C1156 C 0.47163 0.02312 0.21972 0.0
C1157 C 0.47984 0.01307 0.22332 0.0
C1158 C 0.45986 0.99858 0.25152 0.0
C1159 C 0.47399 0.00104 0.23962 0.0
C1160 C 0.49496 0.01531 0.21103 0.0
C1161 C 0.45195 0.00122 0.16389 0.0
C1162 C 0.45605 0.01335 0.14783 0.0
C1163 C 0.46489 0.00272 0.17769 0.0
C1164 C 0.48208 0.01665 0.17602 0.0
C1165 C 0.47324 0.02723 0.14613 0.0
C1166 C 0.48611 0.02884 0.16006 0.0
C1167 C 0.49628 0.01774 0.18942 0.0
C1168 C 0.55365 0.00482 0.16566 0.0
C1169 C 0.56311 0.0185 0.15166 0.0
C1170 C 0.54152 0.00546 0.17882 0.0
C1171 C 0.53846 0.01972 0.17821 0.0
C1172 C 0.56032 0.03301 0.15157 0.0
C1173 C 0.54797 0.03349 0.16453 0.0
C1174 C 0.52418 0.01938 0.19032 0.0
C1175 C 0.56626 0.02916 0.23689 0.0
C1176 C 0.56204 0.01417 0.24869 0.0
C1177 C 0.55354 0.02996 0.22464 0.0
C1178 C 0.53637 0.0159 0.22431 0.0
C1179 C 0.54487 1.00012 0.24831 0.0
C1180 C 0.53208 0.00109 0.23643 0.0
C1181 C 0.52275 0.0167 0.21173 0.0
H1182 H 0.45077 0.02785 0.22757 0.0
H1183 H 0.47629 0.03307 0.20788 0.0
H1184 H 0.45595 0.98932 0.26408 0.0
H1185 H 0.48027 0.99337 0.2431 0.0
H1186 H 0.43888 0.99023 0.16535 0.0
H1187 H 0.46153 0.99274 0.18934 0.0
H1188 H 0.47676 0.03681 0.13395 0.0
H1189 H 0.4993 0.03956 0.15827 0.0
H1190 H 0.55506 0.99324 0.16596 0.0
H1191 H 0.53401 0.99445 0.18889 0.0
H1192 H 0.56753 0.04395 0.14131 0.0
H1193 H 0.54572 0.04457 0.16375 0.0
H1194 H 0.57945 0.04011 0.23691 0.0
H1195 H 0.55706 0.04159 0.21556 0.0
H1196 H 0.54133 0.98846 0.25734 0.0
H1197 H 0.51888 0.99015 0.23644 0.0
N1198 N 0.50824 0.01477 0.22124 0.0
N1199 N 0.51093 0.01984 0.18002 0.0
C1200 C 0.54979 0.00073 0.78728 0.0
C1201 C 0.54627 0.98802 0.77207 0.0
C1202 C 0.53663 0.99915 0.80046 0.0
C1203 C 0.5197 0.98477 0.79878 0.0
C1204 C 0.52926 0.97372 0.7703 0.0
C1205 C 0.51607 0.97221 0.78342 0.0
C1206 C 0.50556 0.98332 0.8122 0.0
C1207 C 0.54368 0.97782 0.85496 0.0
C1208 C 0.55007 0.99017 0.87108 0.0
C1209 C 0.52989 0.97607 0.84244 0.0
C1210 C 0.52239 0.98677 0.84571 0.0
C1211 C 0.54251 0.00083 0.87418 0.0
C1212 C 0.52887 0.99915 0.86166 0.0
C1213 C 0.50702 0.98458 0.83385 0.0
C1214 C 0.43642 0.97486 0.85939 0.0
C1215 C 0.44239 0.98653 0.87618 0.0
C1216 C 0.44827 0.97357 0.84626 0.0
C1217 C 0.46634 0.98418 0.84941 0.0
C1218 C 0.46047 0.99657 0.87969 0.0
C1219 C 0.47225 0.99545 0.86647 0.0
C1220 C 0.4794 0.98347 0.83568 0.0
C1221 C 0.4494 0.00071 0.795 0.0
C1222 C 0.44066 0.9896 0.77829 0.0
C1223 C 0.4614 0.99833 0.80673 0.0
C1224 C 0.46462 0.98452 0.80235 0.0
C1225 C 0.44391 0.97577 0.7739 0.0
C1226 C 0.45587 0.97333 0.78577 0.0
C1227 C 0.47814 0.98268 0.81397 0.0
H1228 H 0.56277 0.01184 0.78914 0.0
H1229 H 0.53967 0.00926 0.81185 0.0
H1230 H 0.52608 0.96384 0.75858 0.0
H1231 H 0.50304 0.96115 0.78165 0.0
H1232 H 0.54924 0.96944 0.85211 0.0
H1233 H 0.52486 0.96612 0.83057 0.0
H1234 H 0.54677 0.01019 0.88669 0.0
H1235 H 0.52322 0.00745 0.86463 0.0
H1236 H 0.4226 0.9669 0.8562 0.0
H1237 H 0.44328 0.96429 0.83366 0.0
H1238 H 0.46562 0.00531 0.89278 0.0
H1239 H 0.48608 0.0036 0.86952 0.0
H1240 H 0.44711 0.0114 0.79894 0.0
H1241 H 0.46838 0.00751 0.81901 0.0
H1242 H 0.43761 0.96715 0.76095 0.0
H1243 H 0.4584 0.96278 0.78189 0.0
N1244 N 0.49114 0.98237 0.80313 0.0
N1245 N 0.49385 0.98451 0.84462 0.0
C1246 C 1.00013 0.55018 0.78574 0.0
C1247 C 0.0133 0.56107 0.77207 0.0
C1248 C 0.00217 0.53827 0.79806 0.0
C1249 C 0.01735 0.53692 0.7968 0.0
C1250 C 0.02863 0.55994 0.771 0.0
C1251 C 0.03054 0.54774 0.78311 0.0
C1252 C 0.01891 0.52362 0.80914 0.0
C1253 C 0.02706 0.56644 0.85426 0.0
C1254 C 0.01578 0.56077 0.87119 0.0
C1255 C 0.02737 0.55423 0.84066 0.0
C1256 C 0.01613 0.53618 0.84354 0.0
C1257 C 0.0044 0.54277 0.87383 0.0
C1258 C 0.00457 0.53064 0.86017 0.0
C1259 C 0.0172 0.52275 0.83073 0.0
C1260 C 0.02501 0.4608 0.85563 0.0
C1261 C 0.01264 0.45487 0.87148 0.0
C1262 C 0.02614 0.47361 0.84182 0.0
C1263 C 0.01471 0.48042 0.84349 0.0
C1264 C 0.00103 0.46144 0.87277 0.0
C1265 C 0.00208 0.47409 0.85898 0.0
C1266 C 0.01657 0.49521 0.83067 0.0
C1267 C 0.00262 0.45054 0.78755 0.0
C1268 C 0.01536 0.45364 0.77274 0.0
C1269 C 0.00353 0.4643 0.79924 0.0
C1270 C 0.01733 0.48146 0.79661 0.0
C1271 C 0.02888 0.47092 0.76967 0.0
C1272 C 0.02981 0.48471 0.78145 0.0
C1273 C 0.01838 0.49608 0.80907 0.0
H1274 H 0.98821 0.55086 0.78682 0.0
H1275 H 0.99174 0.52986 0.80832 0.0
H1276 H 0.03889 0.56815 0.76045 0.0
H1277 H 0.04228 0.54676 0.78185 0.0
H1278 H 0.03607 0.58025 0.852 0.0
H1279 H 0.03682 0.55891 0.8284 0.0
H1280 H 0.99542 0.53804 0.88659 0.0
H1281 H 0.99577 0.51682 0.86281 0.0
H1282 H 0.0342 0.45603 0.8544 0.0
H1283 H 0.03627 0.47858 0.83033 0.0
H1284 H 0.99119 0.45691 0.88463 0.0
H1285 H 0.99311 0.47912 0.86059 0.0
H1286 H 0.99179 0.43747 0.78995 0.0
H1287 H 0.99336 0.46152 0.81027 0.0
H1288 H 0.03893 0.47375 0.75844 0.0
H1289 H 0.04044 0.49788 0.77895 0.0
N1290 N 0.01955 0.51032 0.79912 0.0
N1291 N 0.01609 0.50857 0.84052 0.0
C1292 C 0.53946 0.56775 0.78651 0.0
C1293 C 0.54587 0.56145 0.77083 0.0
C1294 C 0.52571 0.55615 0.79899 0.0
C1295 C 0.51829 0.53794 0.79644 0.0
C1296 C 0.53802 0.54322 0.76793 0.0
C1297 C 0.52444 0.53164 0.78057 0.0
C1298 C 0.5037 0.52527 0.80952 0.0
C1299 C 0.54732 0.55393 0.8561 0.0
C1300 C 0.54424 0.56449 0.86983 0.0
C1301 C 0.53413 0.54226 0.84289 0.0
C1302 C 0.51756 0.54082 0.84318 0.0
C1303 C 0.52771 0.56333 0.86958 0.0
C1304 C 0.51445 0.55144 0.85659 0.0
C1305 C 0.50305 0.5271 0.83103 0.0
C1306 C 0.44918 0.45671 0.85917 0.0
C1307 C 0.43931 0.46059 0.87299 0.0
C1308 C 0.46085 0.46946 0.84568 0.0
C1309 C 0.46297 0.48641 0.84571 0.0
C1310 C 0.44143 0.4776 0.87282 0.0
C1311 C 0.45328 0.49041 0.85948 0.0
C1312 C 0.47605 0.50021 0.8323 0.0
C1313 C 0.43271 0.46129 0.79223 0.0
C1314 C 0.43792 0.45416 0.7763 0.0
C1315 C 0.4451 0.47591 0.80317 0.0
C1316 C 0.46299 0.48322 0.79893 0.0
C1317 C 0.45566 0.4619 0.77141 0.0
C1318 C 0.46807 0.47623 0.78267 0.0
C1319 C 0.47655 0.49837 0.81075 0.0
H1320 H 0.54517 0.58167 0.78933 0.0
H1321 H 0.52085 0.56149 0.81053 0.0
H1322 H 0.54226 0.53782 0.75575 0.0
H1323 H 0.5188 0.51768 0.77799 0.0
H1324 H 0.5597 0.55413 0.85606 0.0
H1325 H 0.53669 0.53389 0.83296 0.0
H1326 H 0.52489 0.57144 0.8796 0.0
H1327 H 0.50171 0.55045 0.8571 0.0
H1328 H 0.4483 0.44395 0.85911 0.0
H1329 H 0.46849 0.4662 0.83549 0.0
H1330 H 0.43393 0.48107 0.88298 0.0
H1331 H 0.4548 0.50345 0.85983 0.0
H1332 H 0.41905 0.45565 0.79602 0.0
H1333 H 0.44063 0.48148 0.81487 0.0
H1334 H 0.45995 0.45658 0.75919 0.0
H1335 H 0.48172 0.48169 0.77885 0.0
N1336 N 0.49041 0.51096 0.8003 0.0
N1337 N 0.48923 0.51457 0.84152 0.0
C1338 C 0.65437 0.78034 0.49821 0.0
C1339 C 0.64106 0.76969 0.48421 0.0
C1340 C 0.65228 0.79168 0.51145 0.0
C1341 C 0.63688 0.79268 0.51098 0.0
C1342 C 0.62552 0.77058 0.48406 0.0
C1343 C 0.62355 0.78212 0.49713 0.0
C1344 C 0.63527 0.80571 0.52377 0.0
C1345 C 0.63374 0.764 0.56512 0.0
C1346 C 0.64631 0.77008 0.58103 0.0
C1347 C 0.63041 0.77569 0.55387 0.0
C1348 C 0.63994 0.79381 0.55781 0.0
C1349 C 0.655 0.78809 0.58574 0.0
C1350 C 0.65194 0.79978 0.57423 0.0
C1351 C 0.63752 0.80675 0.54536 0.0
C1352 C 0.63167 0.87118 0.56686 0.0
C1353 C 0.64628 0.87938 0.58001 0.0
C1354 C 0.62835 0.85616 0.55576 0.0
C1355 C 0.63961 0.84913 0.55763 0.0
C1356 C 0.6571 0.8719 0.58237 0.0
C1357 C 0.65375 0.85692 0.57139 0.0
C1358 C 0.63715 0.83388 0.54531 0.0
C1359 C 0.65016 0.87728 0.49924 0.0
C1360 C 0.63842 0.87295 0.48267 0.0
C1361 C 0.64875 0.86436 0.51297 0.0
C1362 C 0.63525 0.84693 0.51079 0.0
C1363 C 0.62485 0.85557 0.48055 0.0
C1364 C 0.62329 0.84271 0.49448 0.0
C1365 C 0.63474 0.83271 0.52372 0.0
H1366 H 0.66668 0.78039 0.49853 0.0
H1367 H 0.6629 0.80002 0.52171 0.0
H1368 H 0.61486 0.76243 0.47377 0.0
H1369 H 0.61161 0.78281 0.49645 0.0
H1370 H 0.62672 0.75026 0.56099 0.0
H1371 H 0.62044 0.7705 0.542 0.0
H1372 H 0.66433 0.79328 0.5983 0.0
H1373 H 0.65924 0.8136 0.57798 0.0
H1374 H 0.62308 0.87663 0.56478 0.0
H1375 H 0.61714 0.85016 0.54555 0.0
H1376 H 0.66825 0.87769 0.5927 0.0
H1377 H 0.66253 0.85166 0.57327 0.0
H1378 H 0.66097 0.89049 0.50097 0.0
H1379 H 0.65867 0.86792 0.52478 0.0
H1380 H 0.61565 0.85188 0.46788 0.0
H1381 H 0.61293 0.82933 0.49225 0.0
N1382 N 0.63379 0.8186 0.51388 0.0
N1383 N 0.63846 0.82087 0.55518 0.0
C1384 C 0.1249 0.77127 0.50263 0.0
C1385 C 0.11798 0.77701 0.48674 0.0
C1386 C 0.13815 0.78335 0.51553 0.0
C1387 C 0.14457 0.80142 0.513 0.0
C1388 C 0.12444 0.79511 0.48432 0.0
C1389 C 0.13756 0.80714 0.49727 0.0
C1390 C 0.15947 0.81463 0.52536 0.0
C1391 C 0.11707 0.78556 0.57128 0.0
C1392 C 0.12078 0.77581 0.58565 0.0
C1393 C 0.13012 0.79768 0.55851 0.0
C1394 C 0.14714 0.80025 0.55978 0.0
C1395 C 0.13785 0.77844 0.58695 0.0
C1396 C 0.15095 0.79069 0.57426 0.0
C1397 C 0.16114 0.81361 0.54686 0.0
C1398 C 0.21803 0.88492 0.56966 0.0
C1399 C 0.22742 0.88093 0.58425 0.0
C1400 C 0.20561 0.87184 0.55694 0.0
C1401 C 0.20238 0.85452 0.55851 0.0
C1402 C 0.22426 0.86361 0.5857 0.0
C1403 C 0.21172 0.85049 0.57308 0.0
C1404 C 0.18834 0.84038 0.5462 0.0
C1405 C 0.22913 0.87428 0.4994 0.0
C1406 C 0.22292 0.88059 0.48338 0.0
C1407 C 0.2175 0.86186 0.5133 0.0
C1408 C 0.19949 0.85581 0.51161 0.0
C1409 C 0.20496 0.87472 0.48196 0.0
C1410 C 0.19341 0.86246 0.49588 0.0
C1411 C 0.18661 0.84145 0.5247 0.0
H1412 H 0.12019 0.75743 0.50501 0.0
H1413 H 0.14365 0.77856 0.52712 0.0
H1414 H 0.11974 0.80008 0.47202 0.0
H1415 H 0.1424 0.821 0.49481 0.0
H1416 H 0.10402 0.78374 0.56983 0.0
H1417 H 0.12695 0.80519 0.5478 0.0
H1418 H 0.14113 0.77125 0.59802 0.0
H1419 H 0.16406 0.79266 0.57567 0.0
H1420 H 0.22026 0.89816 0.56809 0.0
H1421 H 0.19828 0.87519 0.54617 0.0
H1422 H 0.23117 0.86013 0.59695 0.0
H1423 H 0.20925 0.83717 0.57474 0.0
H1424 H 0.2429 0.87845 0.50072 0.0
H1425 H 0.22254 0.85659 0.52487 0.0
H1426 H 0.19981 0.87952 0.46996 0.0
H1427 H 0.1796 0.85801 0.49419 0.0
N1428 N 0.17224 0.82852 0.51524 0.0
N1429 N 0.17557 0.82645 0.55642 0.0
C1430 C 0.23235 0.36112 0.49504 0.0
C1431 C 0.22626 0.34719 0.48087 0.0
C1432 C 0.22077 0.36241 0.50869 0.0
C1433 C 0.20298 0.34976 0.50837 0.0
C1434 C 0.20857 0.33423 0.48129 0.0
C1435 C 0.19708 0.3356 0.49473 0.0
C1436 C 0.18999 0.35171 0.52071 0.0
C1437 C 0.2205 0.33918 0.56665 0.0
C1438 C 0.22993 0.35247 0.58113 0.0
C1439 C 0.20826 0.3401 0.5537 0.0
C1440 C 0.20525 0.35438 0.55485 0.0
C1441 C 0.22698 0.36682 0.58221 0.0
C1442 C 0.2146 0.36767 0.56932 0.0
C1443 C 0.19138 0.35466 0.54213 0.0
C1444 C 0.11937 0.33352 0.56642 0.0
C1445 C 0.1213 0.34687 0.57987 0.0
C1446 C 0.13301 0.33596 0.55363 0.0
C1447 C 0.14892 0.35174 0.55417 0.0
C1448 C 0.13709 0.36281 0.58014 0.0
C1449 C 0.15091 0.36513 0.56757 0.0
C1450 C 0.16372 0.35359 0.54178 0.0
C1451 C 0.12649 0.35705 0.49586 0.0
C1452 C 0.12089 0.34467 0.47984 0.0
C1453 C 0.13969 0.35886 0.50948 0.0
C1454 C 0.14728 0.34809 0.50752 0.0
C1455 C 0.12828 0.33373 0.47818 0.0
C1456 C 0.14132 0.33544 0.49183 0.0
C1457 C 0.16241 0.35072 0.52033 0.0
H1458 H 0.24587 0.37136 0.49506 0.0
H1459 H 0.22559 0.3736 0.5189 0.0
H1460 H 0.20351 0.32307 0.47101 0.0
H1461 H 0.18343 0.32562 0.49428 0.0
H1462 H 0.22256 0.32802 0.56535 0.0
H1463 H 0.20088 0.32943 0.54307 0.0
H1464 H 0.23394 0.37717 0.59335 0.0
H1465 H 0.21229 0.37866 0.57067 0.0
H1466 H 0.10731 0.32113 0.56593 0.0
H1467 H 0.1313 0.32533 0.54367 0.0
H1468 H 0.13889 0.37323 0.59051 0.0
H1469 H 0.16315 0.37733 0.56834 0.0
H1470 H 0.12114 0.36577 0.49736 0.0
H1471 H 0.14435 0.36908 0.52103 0.0
H1472 H 0.12407 0.32391 0.46618 0.0
H1473 H 0.14692 0.32696 0.48994 0.0
N1474 N 0.1756 0.34988 0.51074 0.0
N1475 N 0.17819 0.35555 0.55186 0.0
H1476 H 0.02564 0.39452 0.06875 0.0
H1477 H 0.97277 0.3657 0.04565 0.0
H1478 H 0.01593 0.40608 0.09675 0.0
H1479 H 0.96313 0.37766 0.07353 0.0
H1480 H 0.96763 0.43014 0.1036 0.0
H1481 H 0.97202 0.41115 0.07969 0.0
H1482 H 0.99459 0.39542 0.12879 0.0
H1483 H 0.98978 0.41416 0.15285 0.0
C1484 C 0.0119 0.39048 0.06984 0.0
C1485 C 0.99996 0.37926 0.05501 0.0
C1486 C 0.00634 0.397 0.08592 0.0
C1487 C 0.9888 0.39274 0.08725 0.0
C1488 C 0.97673 0.38111 0.07281 0.0
C1489 C 0.98223 0.37424 0.05695 0.0
C1490 C 0.97313 0.42227 0.10932 0.0
C1491 C 0.97836 0.42351 0.12997 0.0
C1492 C 0.97557 0.41139 0.09571 0.0
C1493 C 0.98363 0.40185 0.10244 0.0
C1494 C 0.98833 0.40264 0.12328 0.0
C1495 C 0.98554 0.41326 0.137 0.0
H1496 H 0.64581 0.62352 0.07287 0.0
H1497 H 0.59844 0.61111 0.03999 0.0
H1498 H 0.62882 0.60256 0.09979 0.0
H1499 H 0.5813 0.59062 0.06704 0.0
H1500 H 0.55626 0.54209 0.10581 0.0
H1501 H 0.57488 0.56255 0.07972 0.0
H1502 H 0.60877 0.59713 0.12735 0.0
H1503 H 0.59025 0.57625 0.15349 0.0
C1504 C 0.63174 0.61613 0.0714 0.0
C1505 C 0.62337 0.61821 0.05405 0.0
C1506 C 0.62199 0.60435 0.08691 0.0
C1507 C 0.60369 0.59466 0.08542 0.0
C1508 C 0.59538 0.59745 0.0684 0.0
C1509 C 0.60514 0.60922 0.05296 0.0
C1510 C 0.56771 0.55406 0.11068 0.0
C1511 C 0.57172 0.5577 0.13166 0.0
C1512 C 0.57835 0.56583 0.09575 0.0
C1513 C 0.59317 0.58164 0.10142 0.0
C1514 C 0.5975 0.58503 0.12243 0.0
C1515 C 0.58691 0.57312 0.13741 0.0
H1516 H 0.37421 0.01752 0.07582 0.0
H1517 H 0.38777 0.98442 0.04068 0.0
H1518 H 0.39523 0.02046 0.10262 0.0
H1519 H 0.40877 0.98724 0.06739 0.0
H1520 H 0.45916 0.01505 0.10613 0.0
H1521 H 0.43715 0.01117 0.08051 0.0
H1522 H 0.40056 0.00266 0.1289 0.0
H1523 H 0.42268 0.00657 0.15462 0.0
C1524 C 0.38183 0.011 0.07385 0.0
C1525 C 0.37999 0.00133 0.05596 0.0
C1526 C 0.39367 0.01248 0.08924 0.0
C1527 C 0.40381 0.00425 0.08698 0.0
C1528 C 0.4014 0.99401 0.06937 0.0
C1529 C 0.3894 0.99237 0.05413 0.0
C1530 C 0.44645 0.01247 0.1113 0.0
C1531 C 0.44264 0.01117 0.13237 0.0
C1532 C 0.43381 0.01011 0.09663 0.0
C1533 C 0.41713 0.00662 0.10269 0.0
C1534 C 0.41334 0.00546 0.12377 0.0
C1535 C 0.42594 0.00758 0.13847 0.0
H1536 H 0.37268 0.97468 0.97661 0.0
H1537 H 0.38856 0.02615 0.95239 0.0
H1538 H 0.38764 0.96924 0.94846 0.0
H1539 H 0.40249 0.02048 0.92359 0.0
H1540 H 0.4465 0.01653 0.89402 0.0
H1541 H 0.42797 0.01971 0.91873 0.0
H1542 H 0.39074 0.96444 0.91347 0.0
H1543 H 0.41017 0.96101 0.88976 0.0
C1544 C 0.37895 0.9846 0.96489 0.0
C1545 C 0.37966 0.00088 0.96671 0.0
C1546 C 0.3875 0.98151 0.9487 0.0
C1547 C 0.39663 0.99454 0.93385 0.0
C1548 C 0.39616 0.01034 0.93505 0.0
C1549 C 0.38802 0.01356 0.95143 0.0
C1550 C 0.43448 0.00496 0.89826 0.0
C1551 C 0.43003 0.98846 0.89004 0.0
C1552 C 0.4236 0.00685 0.91222 0.0
C1553 C 0.40769 0.99236 0.91814 0.0
C1554 C 0.40295 0.97588 0.9095 0.0
C1555 C 0.41401 0.97395 0.89566 0.0
H1556 H 0.02257 0.37778 0.94776 0.0
H1557 H 0.98473 0.38741 0.9779 0.0
H1558 H 0.02561 0.39837 0.9205 0.0
H1559 H 0.98725 0.40762 0.95045 0.0
H1560 H 0.01079 0.45737 0.9129 0.0
H1561 H 0.00839 0.4364 0.93899 0.0
H1562 H 0.01078 0.40306 0.89181 0.0
H1563 H 0.01349 0.42435 0.86563 0.0
C1564 C 0.01501 0.38446 0.94853 0.0
C1565 C 0.00402 0.38175 0.96523 0.0
C1566 C 0.01653 0.39601 0.93281 0.0
C1567 C 0.00689 0.40487 0.93346 0.0
C1568 C 0.99523 0.40139 0.94977 0.0
C1569 C 0.9937 0.38981 0.96542 0.0
C1570 C 0.01075 0.44554 0.9081 0.0
C1571 C 0.01213 0.44239 0.88723 0.0
C1572 C 0.00932 0.43349 0.92304 0.0
C1573 C 0.00914 0.41793 0.91747 0.0
C1574 C 0.01098 0.41497 0.89662 0.0
C1575 C 0.01251 0.42713 0.88163 0.0
H1576 H 0.63089 0.60159 0.95381 0.0
H1577 H 0.60761 0.63306 0.97081 0.0
H1578 H 0.61034 0.58925 0.92512 0.0
H1579 H 0.58688 0.62048 0.94216 0.0
H1580 H 0.5396 0.57173 0.90961 0.0
H1581 H 0.56183 0.58866 0.93525 0.0
H1582 H 0.60208 0.59922 0.89111 0.0
H1583 H 0.57989 0.58297 0.86497 0.0
C1584 C 0.62148 0.60598 0.95133 0.0
C1585 C 0.62085 0.61827 0.96461 0.0
C1586 C 0.60979 0.59899 0.93483 0.0
C1587 C 0.59703 0.60391 0.93147 0.0
C1588 C 0.59657 0.61643 0.94449 0.0
C1589 C 0.60848 0.62367 0.9608 0.0
C1590 C 0.55314 0.57802 0.90508 0.0
C1591 C 0.55786 0.57587 0.8851 0.0
C1592 C 0.56588 0.58767 0.91986 0.0
C1593 C 0.58365 0.59519 0.91516 0.0
C1594 C 0.58845 0.5934 0.89517 0.0
C1595 C 0.57571 0.58398 0.88025 0.0
H1596 H 0.02511 0.6496 0.94334 0.0
H1597 H 0.99221 0.60303 0.97798 0.0
H1598 H 0.0286 0.63175 0.91689 0.0
H1599 H 0.99508 0.58503 0.95144 0.0
H1600 H 0.01745 0.55873 0.91277 0.0
H1601 H 0.0163 0.57826 0.93845 0.0
H1602 H 0.01337 0.61066 0.89011 0.0
H1603 H 0.01504 0.59125 0.86436 0.0
C1604 C 0.0188 0.63553 0.94531 0.0
C1605 C 0.00906 0.62765 0.963 0.0
C1606 C 0.02056 0.62528 0.93007 0.0
C1607 C 0.01236 0.60695 0.93218 0.0
C1608 C 0.00201 0.59912 0.94959 0.0
C1609 C 1.00027 0.60937 0.96474 0.0
C1610 C 0.01658 0.57005 0.90765 0.0
C1611 C 0.01613 0.57338 0.88659 0.0
C1612 C 0.01585 0.58121 0.92235 0.0
C1613 C 0.01445 0.59589 0.91637 0.0
C1614 C 0.01455 0.59954 0.89527 0.0
C1615 C 0.01546 0.58842 0.88051 0.0
H1616 H 0.36868 0.39818 0.97252 0.0
H1617 H 0.39718 0.37215 0.95414 0.0
H1618 H 0.38224 0.41938 0.94456 0.0
H1619 H 0.41045 0.3931 0.9262 0.0
H1620 H 0.41914 0.42496 0.86732 0.0
H1621 H 0.40177 0.40284 0.89278 0.0
H1622 H 0.41439 0.44338 0.93789 0.0
H1623 H 0.43241 0.46554 0.91286 0.0
C1624 C 0.37758 0.39681 0.96232 0.0
C1625 C 0.38189 0.38353 0.96556 0.0
C1626 C 0.38541 0.40899 0.94643 0.0
C1627 C 0.39739 0.40787 0.93324 0.0
C1628 C 0.40116 0.3942 0.93602 0.0
C1629 C 0.39362 0.38226 0.95209 0.0
C1630 C 0.41836 0.42923 0.88268 0.0
C1631 C 0.4274 0.44713 0.88798 0.0
C1632 C 0.40828 0.41652 0.89721 0.0
C1633 C 0.40674 0.4214 0.9173 0.0
C1634 C 0.41518 0.43927 0.92244 0.0
C1635 C 0.42548 0.45197 0.90801 0.0
H1636 H 0.62667 0.98056 0.94979 0.0
H1637 H 0.61275 0.01542 0.98038 0.0
H1638 H 0.6075 0.97785 0.92078 0.0
H1639 H 0.5937 0.01289 0.95148 0.0
H1640 H 0.57704 0.01987 0.8878 0.0
H1641 H 0.59737 0.02189 0.91465 0.0
H1642 H 0.57542 0.96572 0.9132 0.0
H1643 H 0.55457 0.96354 0.88684 0.0
C1644 C 0.61921 0.98736 0.9504 0.0
C1645 C 0.62057 0.99767 0.9675 0.0
C1646 C 0.60838 0.98592 0.93381 0.0
C1647 C 0.59911 0.99515 0.93388 0.0
C1648 C 0.60079 0.00574 0.95091 0.0
C1649 C 0.61155 0.0071 0.96749 0.0
C1650 C 0.57645 0.00791 0.89326 0.0
C1651 C 0.56395 0.99151 0.88538 0.0
C1652 C 0.58812 0.00909 0.90862 0.0
C1653 C 0.58774 0.99393 0.91631 0.0
C1654 C 0.57594 0.97761 0.90766 0.0
C1655 C 0.56409 0.9764 0.89243 0.0
H1656 H 0.63273 0.02701 0.05098 0.0
H1657 H 0.60435 0.97249 0.06862 0.0
H1658 H 0.61938 0.03439 0.07936 0.0
H1659 H 0.59129 0.97995 0.09709 0.0
H1660 H 0.58397 0.00348 0.15693 0.0
H1661 H 0.60092 0.99858 0.13093 0.0
H1662 H 0.58683 0.02591 0.08617 0.0
H1663 H 0.56916 0.03011 0.11166 0.0
C1664 C 0.62387 0.01666 0.06109 0.0
C1665 C 0.61955 0.99916 0.05753 0.0
C1666 C 0.61618 0.02088 0.07724 0.0
C1667 C 0.60433 0.00773 0.09038 0.0
C1668 C 0.6005 0.99035 0.08727 0.0
C1669 C 0.6079 0.98609 0.07091 0.0
C1670 C 0.58434 0.00837 0.14154 0.0
C1671 C 0.57499 0.01709 0.13647 0.0
C1672 C 0.59417 0.00565 0.12671 0.0
C1673 C 0.59516 0.01187 0.10658 0.0
C1674 C 0.58644 0.02117 0.10165 0.0
C1675 C 0.57637 0.02363 0.11636 0.0
H1676 H 0.98174 0.61021 0.04417 0.0
H1677 H 0.03476 0.64191 0.06559 0.0
H1678 H 0.97595 0.58999 0.07267 0.0
H1679 H 0.02882 0.62242 0.09476 0.0
H1680 H 0.02075 0.57282 0.12613 0.0
H1681 H 0.02542 0.59504 0.10101 0.0
H1682 H 0.97198 0.5834 0.10779 0.0
H1683 H 0.96691 0.56002 0.13182 0.0
C1684 C 0.99203 0.61306 0.05528 0.0
C1685 C 0.00875 0.6275 0.05256 0.0
C1686 C 0.98871 0.60152 0.07172 0.0
C1687 C 0.00197 0.60436 0.086 0.0
C1688 C 0.01841 0.61944 0.0838 0.0
C1689 C 0.02181 0.63072 0.06716 0.0
C1690 C 0.0099 0.57483 0.12216 0.0
C1691 C 0.99336 0.56436 0.13082 0.0
C1692 C 0.01267 0.58788 0.10795 0.0
C1693 C 0.99909 0.59114 0.10224 0.0
C1694 C 0.9827 0.58113 0.11151 0.0
C1695 C 0.97985 0.56785 0.12556 0.0
H1696 H 0.37607 0.35779 0.0734 0.0
H1697 H 0.38826 0.40549 0.04135 0.0
H1698 H 0.39702 0.37476 0.10057 0.0
H1699 H 0.40876 0.42262 0.06864 0.0
H1700 H 0.45779 0.44726 0.10698 0.0
H1701 H 0.43681 0.42885 0.08094 0.0
H1702 H 0.40298 0.39493 0.12852 0.0
H1703 H 0.42435 0.41328 0.15463 0.0
C1704 C 0.38339 0.37193 0.07218 0.0
C1705 C 0.38128 0.38039 0.05496 0.0
C1706 C 0.39517 0.38167 0.08784 0.0
C1707 C 0.40484 0.40006 0.08663 0.0
C1708 C 0.40195 0.40847 0.06979 0.0
C1709 C 0.39018 0.39872 0.0542 0.0
C1710 C 0.44585 0.43587 0.11187 0.0
C1711 C 0.44258 0.43181 0.13283 0.0
C1712 C 0.43379 0.42534 0.09696 0.0
C1713 C 0.41805 0.41055 0.10262 0.0
C1714 C 0.415 0.40617 0.1236 0.0
C1715 C 0.4272 0.41667 0.13856 0.0
H1716 H 0.69217 0.73241 0.40316 0.0
H1717 H 0.63814 0.7005 0.38513 0.0
H1718 H 0.6835 0.74497 0.43107 0.0
H1719 H 0.62954 0.71332 0.41299 0.0
H1720 H 0.62948 0.76212 0.44418 0.0
H1721 H 0.63539 0.74513 0.41919 0.0
H1722 H 0.66542 0.73527 0.46468 0.0
H1723 H 0.65889 0.75157 0.49013 0.0
C1724 C 0.67844 0.72797 0.40526 0.0
C1725 C 0.66585 0.71548 0.39191 0.0
C1726 C 0.67348 0.7351 0.42131 0.0
C1727 C 0.65586 0.73013 0.42414 0.0
C1728 C 0.64322 0.71742 0.41106 0.0
C1729 C 0.64815 0.71003 0.39521 0.0
C1730 C 0.63696 0.75599 0.44912 0.0
C1731 C 0.64375 0.75835 0.46927 0.0
C1732 C 0.6404 0.7463 0.43472 0.0
C1733 C 0.6509 0.73895 0.44 0.0
C1734 C 0.65742 0.74096 0.46017 0.0
C1735 C 0.65376 0.75041 0.47469 0.0
H1736 H 0.31006 0.9552 0.40776 0.0
H1737 H 0.26342 0.94751 0.3767 0.0
H1738 H 0.29239 0.93497 0.4349 0.0
H1739 H 0.24564 0.92771 0.40397 0.0
H1740 H 0.21831 0.87836 0.44185 0.0
H1741 H 0.23708 0.89876 0.41583 0.0
H1742 H 0.27333 0.93093 0.46323 0.0
H1743 H 0.25458 0.91019 0.48932 0.0
C1744 C 0.29598 0.94902 0.40674 0.0
C1745 C 0.28796 0.95216 0.3898 0.0
C1746 C 0.28587 0.93766 0.42239 0.0
C1747 C 0.26755 0.92945 0.42146 0.0
C1748 C 0.25967 0.93339 0.4049 0.0
C1749 C 0.2698 0.94476 0.38933 0.0
C1750 C 0.23026 0.88982 0.44672 0.0
C1751 C 0.23489 0.89278 0.46764 0.0
C1752 C 0.24101 0.90156 0.43181 0.0
C1753 C 0.25661 0.91664 0.43743 0.0
C1754 C 0.26146 0.91939 0.45834 0.0
C1755 C 0.25073 0.90755 0.47329 0.0
H1756 H 0.05269 0.3168 0.37305 0.0
H1757 H 0.04142 0.35252 0.4061 0.0
H1758 H 0.07304 0.31906 0.40021 0.0
H1759 H 0.06218 0.35538 0.43309 0.0
H1760 H 0.08988 0.34406 0.48636 0.0
H1761 H 0.06809 0.34084 0.46062 0.0
H1762 H 0.10125 0.33997 0.41257 0.0
H1763 H 0.1227 0.3428 0.43826 0.0
C1764 C 0.05476 0.32527 0.38612 0.0
C1765 C 0.04618 0.33509 0.3872 0.0
C1766 C 0.06644 0.32665 0.40162 0.0
C1767 C 0.06955 0.33769 0.41868 0.0
C1768 C 0.06015 0.34677 0.42021 0.0
C1769 C 0.04848 0.34538 0.40465 0.0
C1770 C 0.09249 0.34326 0.47027 0.0
C1771 C 0.10789 0.34349 0.46433 0.0
C1772 C 0.08004 0.34145 0.45551 0.0
C1773 C 0.08281 0.33995 0.4345 0.0
C1774 C 0.09845 0.34063 0.42862 0.0
C1775 C 0.11079 0.3423 0.44334 0.0
H1776 H 0.03812 0.30879 0.30637 0.0
H1777 H 0.05542 0.36072 0.28273 0.0
H1778 H 0.05259 0.30295 0.27804 0.0
H1779 H 0.06888 0.35467 0.25372 0.0
H1780 H 0.11173 0.34909 0.22322 0.0
H1781 H 0.0937 0.35302 0.248 0.0
H1782 H 0.05539 0.29803 0.24323 0.0
H1783 H 0.07432 0.29382 0.21954 0.0
C1784 C 0.0446 0.31875 0.29475 0.0
C1785 C 0.04582 0.33525 0.2968 0.0
C1786 C 0.05287 0.31542 0.27844 0.0
C1787 C 0.06225 0.32844 0.26364 0.0
C1788 C 0.06234 0.34451 0.2651 0.0
C1789 C 0.05447 0.34795 0.28162 0.0
C1790 C 0.09957 0.33774 0.22757 0.0
C1791 C 0.09469 0.32108 0.21953 0.0
C1792 C 0.08898 0.34007 0.24158 0.0
C1793 C 0.07294 0.32587 0.24772 0.0
C1794 C 0.06773 0.30926 0.23915 0.0
C1795 C 0.0785 0.30688 0.22529 0.0
H1796 H 0.65029 0.72187 0.31461 0.0
H1797 H 0.6858 0.7088 0.28459 0.0
H1798 H 0.65358 0.74187 0.2866 0.0
H1799 H 0.68968 0.72923 0.25674 0.0
H1800 H 0.6788 0.75575 0.20123 0.0
H1801 H 0.67556 0.73464 0.22797 0.0
H1802 H 0.67541 0.76979 0.27431 0.0
H1803 H 0.67821 0.7905 0.24767 0.0
C1804 C 0.65894 0.72348 0.30204 0.0
C1805 C 0.66839 0.71451 0.30203 0.0
C1806 C 0.66092 0.73495 0.28606 0.0
C1807 C 0.67219 0.73744 0.26961 0.0
C1808 C 0.68093 0.72767 0.26916 0.0
C1809 C 0.67894 0.7162 0.2852 0.0
C1810 C 0.67819 0.75893 0.21717 0.0
C1811 C 0.67849 0.7746 0.22239 0.0
C1812 C 0.67637 0.74689 0.23248 0.0
C1813 C 0.67496 0.75041 0.25327 0.0
C1814 C 0.67596 0.76643 0.25844 0.0
C1815 C 0.67763 0.77834 0.24319 0.0
H1816 H 0.29443 0.9369 0.28747 0.0
H1817 H 0.27156 0.9677 0.3085 0.0
H1818 H 0.27388 0.92616 0.25864 0.0
H1819 H 0.25063 0.95655 0.27974 0.0
H1820 H 0.20307 0.90564 0.24714 0.0
H1821 H 0.22566 0.92358 0.27237 0.0
H1822 H 0.265 0.93814 0.22578 0.0
H1823 H 0.24226 0.92046 0.2004 0.0
C1824 C 0.2851 0.94149 0.2858 0.0
C1825 C 0.28453 0.95307 0.30025 0.0
C1826 C 0.27344 0.93544 0.26923 0.0
C1827 C 0.26073 0.94057 0.26699 0.0
C1828 C 0.26036 0.95245 0.28115 0.0
C1829 C 0.27232 0.95884 0.29753 0.0
C1830 C 0.21652 0.91305 0.24225 0.0
C1831 C 0.22103 0.91178 0.22195 0.0
C1832 C 0.22939 0.92333 0.25661 0.0
C1833 C 0.24703 0.9322 0.25097 0.0
C1834 C 0.25148 0.93141 0.23045 0.0
C1835 C 0.23853 0.9214 0.21598 0.0
H1836 H 0.69185 0.9797 0.28382 0.0
H1837 H 0.6547 0.93219 0.31404 0.0
H1838 H 0.6955 0.96245 0.25674 0.0
H1839 H 0.65779 0.91483 0.2868 0.0
H1840 H 0.68211 0.88901 0.25033 0.0
H1841 H 0.67944 0.90764 0.27602 0.0
H1842 H 0.6815 0.94287 0.22812 0.0
H1843 H 0.6846 0.92428 0.20239 0.0
C1844 C 0.68457 0.96553 0.28464 0.0
C1845 C 0.67364 0.95715 0.30136 0.0
C1846 C 0.68643 0.95566 0.26903 0.0
C1847 C 0.6772 0.93724 0.26981 0.0
C1848 C 0.6655 0.92897 0.28605 0.0
C1849 C 0.66364 0.93885 0.30158 0.0
C1850 C 0.682 0.90075 0.24531 0.0
C1851 C 0.68337 0.90512 0.22437 0.0
C1852 C 0.68039 0.91138 0.26 0.0
C1853 C 0.67994 0.92659 0.2541 0.0
C1854 C 0.68187 0.93128 0.23319 0.0
C1855 C 0.68363 0.92066 0.21845 0.0
H1856 H 0.07879 0.7188 0.30447 0.0
H1857 H 0.02917 0.717 0.29621 0.0
H1858 H 0.09045 0.7384 0.27554 0.0
H1859 H 0.04101 0.73671 0.26662 0.0
H1860 H 0.07926 0.78953 0.23174 0.0
H1861 H 0.0631 0.76752 0.25813 0.0
H1862 H 0.08744 0.73767 0.23858 0.0
H1863 H 0.10373 0.75974 0.21268 0.0
C1864 C 0.07026 0.72246 0.29641 0.0
C1865 C 0.05295 0.71616 0.30272 0.0
C1866 C 0.07697 0.73366 0.27963 0.0
C1867 C 0.06661 0.73895 0.26853 0.0
C1868 C 0.04933 0.73288 0.27487 0.0
C1869 C 0.04254 0.72155 0.29178 0.0
C1870 C 0.08086 0.77807 0.2329 0.0
C1871 C 0.09293 0.77645 0.22041 0.0
C1872 C 0.0716 0.76547 0.24797 0.0
C1873 C 0.07423 0.75101 0.25072 0.0
C1874 C 0.08545 0.74888 0.23724 0.0
C1875 C 0.09474 0.76148 0.22236 0.0
H1876 H 0.29576 0.31677 0.27991 0.0
H1877 H 0.28007 0.34883 0.3137 0.0
H1878 H 0.2745 0.31235 0.25285 0.0
H1879 H 0.25927 0.3451 0.28648 0.0
H1880 H 0.20991 0.31838 0.24889 0.0
H1881 H 0.23197 0.32241 0.2743 0.0
H1882 H 0.26656 0.32561 0.22565 0.0
H1883 H 0.2441 0.3211 0.20017 0.0
C1884 C 0.28764 0.32278 0.28149 0.0
C1885 C 0.2888 0.3324 0.29918 0.0
C1886 C 0.27568 0.32051 0.2659 0.0
C1887 C 0.26488 0.32806 0.26768 0.0
C1888 C 0.26695 0.33861 0.28491 0.0
C1889 C 0.27889 0.34085 0.30044 0.0
C1890 C 0.22224 0.31993 0.24365 0.0
C1891 C 0.2254 0.31961 0.22259 0.0
C1892 C 0.23493 0.32233 0.25819 0.0
C1893 C 0.25118 0.32464 0.25203 0.0
C1894 C 0.25416 0.3238 0.23094 0.0
C1895 C 0.24134 0.32124 0.21634 0.0
H1896 H 0.26159 0.30501 0.38684 0.0
H1897 H 0.30697 0.3563 0.39427 0.0
H1898 H 0.24708 0.3115 0.41412 0.0
H1899 H 0.29216 0.36269 0.42198 0.0
H1900 H 0.26049 0.35472 0.48503 0.0
H1901 H 0.27845 0.35092 0.45906 0.0
H1902 H 0.23616 0.33376 0.41519 0.0
H1903 H 0.21849 0.33792 0.44062 0.0
C1904 C 0.26859 0.31764 0.39437 0.0
C1905 C 0.28545 0.3302 0.38813 0.0
C1906 C 0.26019 0.32136 0.41 0.0
C1907 C 0.26842 0.33766 0.41998 0.0
C1908 C 0.28555 0.35001 0.4145 0.0
C1909 C 0.29397 0.34636 0.39861 0.0
C1910 C 0.25515 0.35039 0.46974 0.0
C1911 C 0.23791 0.34627 0.46505 0.0
C1912 C 0.26542 0.34821 0.45493 0.0
C1913 C 0.25856 0.34177 0.43527 0.0
C1914 C 0.24164 0.33838 0.43037 0.0
C1915 C 0.23149 0.34069 0.44501 0.0
H1916 H 0.68871 0.94338 0.38434 0.0
H1917 H 0.64858 0.95649 0.39835 0.0
H1918 H 0.67774 0.9212 0.41104 0.0
H1919 H 0.63789 0.93431 0.42571 0.0
H1920 H 0.64463 0.90658 0.48787 0.0
H1921 H 0.6523 0.92909 0.46124 0.0
H1922 H 0.64708 0.89168 0.41489 0.0
H1923 H 0.63925 0.86921 0.4413 0.0
C1924 C 0.67759 0.94164 0.39315 0.0
C1925 C 0.66946 0.9517 0.38903 0.0
C1926 C 0.6713 0.92885 0.40842 0.0
C1927 C 0.65692 0.92599 0.42027 0.0
C1928 C 0.64901 0.9363 0.4167 0.0
C1929 C 0.65511 0.94893 0.40105 0.0
C1930 C 0.64491 0.90316 0.47195 0.0
C1931 C 0.64135 0.88617 0.46663 0.0
C1932 C 0.64919 0.91597 0.45676 0.0
C1933 C 0.65031 0.91207 0.4361 0.0
C1934 C 0.64633 0.89499 0.43075 0.0
C1935 C 0.64176 0.88213 0.44583 0.0
H1936 H 0.05422 0.73597 0.37802 0.0
H1937 H 0.04493 0.68879 0.40934 0.0
H1938 H 0.07275 0.75359 0.40657 0.0
H1939 H 0.06356 0.70636 0.43801 0.0
H1940 H 0.1158 0.74718 0.47028 0.0
H1941 H 0.09531 0.72789 0.44426 0.0
H1942 H 0.06986 0.75919 0.44342 0.0
H1943 H 0.08996 0.77822 0.46988 0.0
C1944 C 0.05628 0.72943 0.39103 0.0
C1945 C 0.0488 0.71115 0.39125 0.0
C1946 C 0.06674 0.73946 0.40741 0.0
C1947 C 0.06968 0.73135 0.42449 0.0
C1948 C 0.06175 0.71297 0.42492 0.0
C1949 C 0.05122 0.70294 0.40852 0.0
C1950 C 0.10563 0.74977 0.46489 0.0
C1951 C 0.10465 0.76438 0.4721 0.0
C1952 C 0.09394 0.73874 0.44989 0.0
C1953 C 0.08114 0.74216 0.44161 0.0
C1954 C 0.07982 0.75642 0.44923 0.0
C1955 C 0.09137 0.76734 0.46437 0.0
H1956 H 0.36196 0.06639 0.73567 0.0
H1957 H 0.3075 0.03762 0.71857 0.0
H1958 H 0.35505 0.07969 0.76418 0.0
H1959 H 0.30058 0.05164 0.74646 0.0
H1960 H 0.29155 0.07138 0.80728 0.0
H1961 H 0.29802 0.05495 0.78183 0.0
H1962 H 0.34753 0.10122 0.76977 0.0
H1963 H 0.3413 0.11716 0.79576 0.0
C1964 C 0.34848 0.06293 0.73802 0.0
C1965 C 0.33529 0.05102 0.72483 0.0
C1966 C 0.34451 0.07068 0.75428 0.0
C1967 C 0.32726 0.06703 0.75754 0.0
C1968 C 0.31398 0.05468 0.74466 0.0
C1969 C 0.31794 0.04666 0.72858 0.0
C1970 C 0.30383 0.07792 0.7992 0.0
C1971 C 0.31599 0.09548 0.80358 0.0
C1972 C 0.30754 0.06856 0.78454 0.0
C1973 C 0.32337 0.07666 0.7737 0.0
C1974 C 0.33542 0.09431 0.7781 0.0
C1975 C 0.33183 0.10354 0.79294 0.0
H1976 H 0.93238 0.27559 0.70773 0.0
H1977 H 0.97933 0.28894 0.74211 0.0
H1978 H 0.91495 0.2549 0.73463 0.0
H1979 H 0.96204 0.26815 0.76902 0.0
H1980 H 0.9228 0.24104 0.82154 0.0
H1981 H 0.94034 0.26288 0.79575 0.0
H1982 H 0.91022 0.22651 0.74749 0.0
H1983 H 0.89256 0.20485 0.77319 0.0
C1984 C 0.93891 0.27398 0.72106 0.0
C1985 C 0.95714 0.28322 0.72261 0.0
C1986 C 0.92899 0.26214 0.7364 0.0
C1987 C 0.93714 0.25968 0.75382 0.0
C1988 C 0.95537 0.26972 0.75582 0.0
C1989 C 0.96528 0.28143 0.74035 0.0
C1990 C 0.91994 0.23775 0.80541 0.0
C1991 C 0.90632 0.22122 0.7994 0.0
C1992 C 0.93006 0.2502 0.79065 0.0
C1993 C 0.92664 0.24644 0.76958 0.0
C1994 C 0.91308 0.22987 0.7636 0.0
C1995 C 0.90309 0.21739 0.77832 0.0
H1996 H 0.70907 0.68664 0.73613 0.0
H1997 H 0.72524 0.65364 0.70527 0.0
H1998 H 0.73002 0.69187 0.76394 0.0
H1999 H 0.74616 0.6587 0.73305 0.0
H2000 H 0.75827 0.68259 0.81893 0.0
H2001 H 0.73617 0.67643 0.79228 0.0
H2002 H 0.77373 0.68394 0.74553 0.0
H2003 H 0.79569 0.68998 0.77205 0.0
C2004 C 0.71723 0.68062 0.73532 0.0
C2005 C 0.71616 0.67033 0.71832 0.0
C2006 C 0.72904 0.68341 0.75131 0.0
C2007 C 0.73989 0.67588 0.75055 0.0
C2008 C 0.73822 0.66497 0.73386 0.0
C2009 C 0.72627 0.66204 0.71802 0.0
C2010 C 0.76175 0.68291 0.80294 0.0
C2011 C 0.77871 0.68683 0.79755 0.0
C2012 C 0.74916 0.6795 0.7877 0.0
C2013 C 0.75322 0.67969 0.76681 0.0
C2014 C 0.77017 0.68359 0.76148 0.0
C2015 C 0.78279 0.68721 0.77666 0.0
H2016 H 0.72909 0.69272 0.6159 0.0
H2017 H 0.70557 0.63923 0.63698 0.0
H2018 H 0.7426 0.68587 0.5877 0.0
H2019 H 0.7199 0.63243 0.60927 0.0
H2020 H 0.73969 0.62306 0.5482 0.0
H2021 H 0.72267 0.62845 0.57381 0.0
H2022 H 0.76584 0.68087 0.58292 0.0
H2023 H 0.78231 0.67563 0.55688 0.0
C2024 C 0.72683 0.67946 0.61448 0.0
C2025 C 0.71638 0.66654 0.62872 0.0
C2026 C 0.73472 0.67553 0.59839 0.0
C2027 C 0.73271 0.65866 0.59634 0.0
C2028 C 0.72169 0.64554 0.6102 0.0
C2029 C 0.71349 0.64941 0.62614 0.0
C2030 C 0.74542 0.63573 0.55568 0.0
C2031 C 0.76224 0.64899 0.5504 0.0
C2032 C 0.73572 0.63882 0.57043 0.0
C2033 C 0.74274 0.65517 0.58041 0.0
C2034 C 0.75971 0.66829 0.57522 0.0
C2035 C 0.76924 0.66528 0.56033 0.0
H2036 H 0.35095 0.04214 0.61658 0.0
H2037 H 0.31612 0.05529 0.64812 0.0
H2038 H 0.35412 0.06235 0.58882 0.0
H2039 H 0.3186 0.07501 0.62013 0.0
H2040 H 0.34315 0.12403 0.58153 0.0
H2041 H 0.33985 0.10281 0.60773 0.0
H2042 H 0.34031 0.06831 0.56068 0.0
H2043 H 0.34411 0.08995 0.53444 0.0
C2044 C 0.34404 0.04948 0.61751 0.0
C2045 C 0.33398 0.04794 0.63476 0.0
C2046 C 0.34561 0.06081 0.60151 0.0
C2047 C 0.33689 0.07059 0.60242 0.0
C2048 C 0.32594 0.06813 0.61923 0.0
C2049 C 0.32442 0.0568 0.63519 0.0
C2050 C 0.34251 0.11188 0.57681 0.0
C2051 C 0.34371 0.10852 0.55598 0.0
C2052 C 0.34054 0.09968 0.5918 0.0
C2053 C 0.33955 0.08371 0.58631 0.0
C2054 C 0.34113 0.08051 0.56546 0.0
C2055 C 0.34328 0.09286 0.55043 0.0
H2056 H 0.95322 0.30551 0.62891 0.0
H2057 H 0.95521 0.25727 0.63265 0.0
H2058 H 0.93436 0.29426 0.59846 0.0
H2059 H 0.93633 0.24611 0.60284 0.0
H2060 H 0.91409 0.23381 0.54022 0.0
H2061 H 0.93617 0.25021 0.56633 0.0
H2062 H 0.90452 0.27151 0.58914 0.0
H2063 H 0.88259 0.25533 0.56255 0.0
C2064 C 0.94971 0.29258 0.62326 0.0
C2065 C 0.95581 0.28235 0.63328 0.0
C2066 C 0.93885 0.28611 0.60586 0.0
C2067 C 0.93396 0.26935 0.59808 0.0
C2068 C 0.94013 0.25923 0.60809 0.0
C2069 C 0.9509 0.26562 0.62538 0.0
C2070 C 0.912 0.24222 0.55063 0.0
C2071 C 0.89657 0.24316 0.54956 0.0
C2072 C 0.92459 0.25155 0.56564 0.0
C2073 C 0.92195 0.2619 0.58011 0.0
C2074 C 0.90699 0.26371 0.57821 0.0
C2075 C 0.89442 0.25445 0.56301 0.0
H2076 H 0.35766 0.31445 0.6154 0.0
H2077 H 0.31962 0.26623 0.64359 0.0
H2078 H 0.36061 0.29782 0.58689 0.0
H2079 H 0.32234 0.24958 0.61514 0.0
H2080 H 0.31814 0.22726 0.55117 0.0
H2081 H 0.31561 0.24581 0.57716 0.0
H2082 H 0.37168 0.27589 0.5822 0.0
H2083 H 0.37432 0.25702 0.5566 0.0
C2084 C 0.35016 0.30028 0.61558 0.0
C2085 C 0.33895 0.2915 0.63196 0.0
C2086 C 0.35173 0.29079 0.59926 0.0
C2087 C 0.34176 0.27241 0.59887 0.0
C2088 C 0.33013 0.26374 0.615 0.0
C2089 C 0.32865 0.27321 0.63131 0.0
C2090 C 0.32996 0.23778 0.55786 0.0
C2091 C 0.34644 0.24047 0.55198 0.0
C2092 C 0.32849 0.24842 0.5727 0.0
C2093 C 0.34345 0.26216 0.58186 0.0
C2094 C 0.35995 0.26543 0.57534 0.0
C2095 C 0.36143 0.25464 0.56061 0.0
H2096 H 0.74447 0.0511 0.6389 0.0
H2097 H 0.69625 0.05154 0.6273 0.0
H2098 H 0.75857 0.07266 0.61209 0.0
H2099 H 0.71067 0.07331 0.60003 0.0
H2100 H 0.74377 0.09813 0.53809 0.0
H2101 H 0.7263 0.07633 0.56415 0.0
H2102 H 0.76641 0.10486 0.60951 0.0
H2103 H 0.78358 0.12673 0.58391 0.0
C2104 C 0.73678 0.05568 0.63058 0.0
C2105 C 0.71919 0.0496 0.63546 0.0
C2106 C 0.74495 0.06814 0.61523 0.0
C2107 C 0.73577 0.07479 0.60414 0.0
C2108 C 0.71803 0.06837 0.60839 0.0
C2109 C 0.70983 0.05597 0.62403 0.0
C2110 C 0.74871 0.09989 0.5537 0.0
C2111 C 0.76525 0.11401 0.55879 0.0
C2112 C 0.73871 0.08741 0.56858 0.0
C2113 C 0.74514 0.08879 0.58874 0.0
C2114 C 0.76129 0.10328 0.59398 0.0
C2115 C 0.77117 0.11576 0.57926 0.0
H2116 H 0.95929 0.65076 0.61402 0.0
H2117 H 0.94418 0.68443 0.64529 0.0
H2118 H 0.93907 0.64677 0.58584 0.0
H2119 H 0.92408 0.68074 0.61704 0.0
H2120 H 0.91072 0.65507 0.53117 0.0
H2121 H 0.93309 0.66177 0.5576 0.0
H2122 H 0.89644 0.65674 0.60444 0.0
H2123 H 0.87424 0.65016 0.57813 0.0
C2124 C 0.95155 0.65726 0.61479 0.0
C2125 C 0.95262 0.66729 0.63204 0.0
C2126 C 0.94019 0.6552 0.59858 0.0
C2127 C 0.9298 0.66325 0.59935 0.0
C2128 C 0.93163 0.67406 0.61622 0.0
C2129 C 0.94312 0.67622 0.63232 0.0
C2130 C 0.90752 0.65544 0.54713 0.0
C2131 C 0.89073 0.65197 0.55263 0.0
C2132 C 0.92026 0.65917 0.56226 0.0
C2133 C 0.91652 0.65973 0.58312 0.0
C2134 C 0.89977 0.65647 0.58852 0.0
C2135 C 0.887 0.65254 0.57347 0.0
H2136 H 0.9358 0.64102 0.73351 0.0
H2137 H 0.96214 0.69523 0.71478 0.0
H2138 H 0.92268 0.64804 0.76203 0.0
H2139 H 0.9482 0.70223 0.74267 0.0
H2140 H 0.92882 0.71168 0.80361 0.0
H2141 H 0.94535 0.70561 0.77799 0.0
H2142 H 0.90053 0.65444 0.76743 0.0
H2143 H 0.88458 0.66029 0.79361 0.0
C2144 C 0.93873 0.65447 0.7355 0.0
C2145 C 0.94989 0.66756 0.72187 0.0
C2146 C 0.93109 0.6585 0.75176 0.0
C2147 C 0.93405 0.67567 0.75453 0.0
C2148 C 0.94569 0.6889 0.74121 0.0
C2149 C 0.95366 0.6849 0.72515 0.0
C2150 C 0.92264 0.69912 0.79582 0.0
C2151 C 0.90552 0.68638 0.80069 0.0
C2152 C 0.93204 0.69565 0.78106 0.0
C2153 C 0.92438 0.67946 0.77064 0.0
C2154 C 0.90712 0.66686 0.77546 0.0
C2155 C 0.89789 0.67022 0.79041 0.0
H2156 H 0.31386 0.28836 0.73009 0.0
H2157 H 0.35237 0.27393 0.71265 0.0
H2158 H 0.3039 0.26632 0.75754 0.0
H2159 H 0.34218 0.25191 0.73958 0.0
H2160 H 0.30589 0.20128 0.77336 0.0
H2161 H 0.31287 0.22302 0.74625 0.0
H2162 H 0.3185 0.26136 0.79153 0.0
H2163 H 0.31161 0.23957 0.81884 0.0
C2164 C 0.32014 0.28048 0.73201 0.0
C2165 C 0.33388 0.2829 0.71909 0.0
C2166 C 0.31447 0.26794 0.74775 0.0
C2167 C 0.3222 0.25736 0.75053 0.0
C2168 C 0.33587 0.25976 0.73761 0.0
C2169 C 0.34174 0.27245 0.72222 0.0
C2170 C 0.30833 0.21426 0.77751 0.0
C2171 C 0.30823 0.21875 0.7982 0.0
C2172 C 0.31243 0.22671 0.76202 0.0
C2173 C 0.31627 0.24385 0.76684 0.0
C2174 C 0.3155 0.2482 0.78743 0.0
C2175 C 0.31168 0.23579 0.80301 0.0
H2176 H 0.70844 0.0226 0.74222 0.0
H2177 H 0.72319 0.07058 0.70936 0.0
H2178 H 0.72819 0.03929 0.77048 0.0
H2179 H 0.74316 0.08737 0.73728 0.0
H2180 H 0.76517 0.11367 0.79843 0.0
H2181 H 0.74343 0.09591 0.77259 0.0
H2182 H 0.75923 0.05658 0.77779 0.0
H2183 H 0.78076 0.07421 0.80391 0.0
C2184 C 0.71616 0.03672 0.74099 0.0
C2185 C 0.71488 0.04535 0.72343 0.0
C2186 C 0.72739 0.04629 0.75714 0.0
C2187 C 0.73735 0.06467 0.7561 0.0
C2188 C 0.73559 0.07325 0.73869 0.0
C2189 C 0.7243 0.06368 0.72262 0.0
C2190 C 0.76384 0.10112 0.79424 0.0
C2191 C 0.77472 0.09537 0.80316 0.0
C2192 C 0.75152 0.09103 0.77926 0.0
C2193 C 0.74974 0.07491 0.7729 0.0
C2194 C 0.76027 0.06893 0.78228 0.0
C2195 C 0.77269 0.07908 0.79716 0.0
H2196 H 0.06343 0.37306 0.04392 0.0
H2197 H 0.02609 0.31944 0.02853 0.0
H2198 H 0.08062 0.36323 0.06313 0.0
H2199 H 0.04384 0.30952 0.04725 0.0
H2200 H 0.07141 0.29868 0.10226 0.0
H2201 H 0.0531 0.30636 0.08094 0.0
H2202 H 0.0994 0.35179 0.05848 0.0
H2203 H 0.11738 0.3445 0.08049 0.0
C2204 C 0.05899 0.35914 0.04441 0.0
C2205 C 0.04341 0.34704 0.03458 0.0
C2206 C 0.06895 0.35349 0.05535 0.0
C2207 C 0.06379 0.33558 0.05655 0.0
C2208 C 0.04815 0.3234 0.04678 0.0
C2209 C 0.03801 0.32908 0.03598 0.0
C2210 C 0.07755 0.31021 0.09259 0.0
C2211 C 0.09571 0.32116 0.09313 0.0
C2212 C 0.06712 0.31459 0.08032 0.0
C2213 C 0.07474 0.32986 0.0682 0.0
C2214 C 0.09302 0.34024 0.06806 0.0
C2215 C 0.10336 0.33602 0.08054 0.0
H2216 H 0.68324 0.6962 0.06127 0.0
H2217 H 0.65529 0.70667 0.01345 0.0
H2218 H 0.68974 0.72349 0.07835 0.0
H2219 H 0.66192 0.73408 0.0305 0.0
H2220 H 0.65493 0.76516 0.08397 0.0
H2221 H 0.65187 0.74078 0.06301 0.0
H2222 H 0.70574 0.75595 0.07527 0.0
H2223 H 0.7087 0.78022 0.09661 0.0
C2224 C 0.67871 0.70446 0.05423 0.0
C2225 C 0.66864 0.69922 0.03609 0.0
C2226 C 0.68252 0.72015 0.06397 0.0
C2227 C 0.67624 0.73088 0.05584 0.0
C2228 C 0.66675 0.72597 0.03726 0.0
C2229 C 0.66304 0.71033 0.02744 0.0
C2230 C 0.66612 0.76329 0.08219 0.0
C2231 C 0.68202 0.77452 0.09205 0.0
C2232 C 0.66443 0.74945 0.06999 0.0
C2233 C 0.67857 0.74645 0.06747 0.0
C2234 C 0.69458 0.75787 0.07704 0.0
C2235 C 0.69631 0.77182 0.08912 0.0
H2236 H 0.30205 0.98649 0.06267 0.0
H2237 H 0.29202 0.94668 0.0173 0.0
H2238 H 0.27494 0.96652 0.07995 0.0
H2239 H 0.26483 0.92667 0.03465 0.0
H2240 H 0.23347 0.89086 0.08956 0.0
H2241 H 0.25808 0.91114 0.06861 0.0
H2242 H 0.24243 0.95039 0.07563 0.0
H2243 H 0.21786 0.93011 0.09681 0.0
C2244 C 0.29394 0.97355 0.05622 0.0
C2245 C 0.29922 0.96814 0.03866 0.0
C2246 C 0.27836 0.96214 0.06608 0.0
C2247 C 0.2678 0.94499 0.05873 0.0
C2248 C 0.2728 0.93975 0.04079 0.0
C2249 C 0.28831 0.95125 0.03079 0.0
C2250 C 0.23528 0.90382 0.08662 0.0
C2251 C 0.22379 0.90892 0.09493 0.0
C2252 C 0.24927 0.91537 0.07445 0.0
C2253 C 0.25219 0.93236 0.07045 0.0
C2254 C 0.24057 0.93741 0.07854 0.0
C2255 C 0.22645 0.92577 0.09055 0.0
H2256 H 0.36799 0.05491 0.97151 0.0
H2257 H 0.31655 0.02519 0.99728 0.0
H2258 H 0.35856 0.07207 0.95148 0.0
H2259 H 0.30716 0.04323 0.97803 0.0
H2260 H 0.29248 0.07051 0.92739 0.0
H2261 H 0.30026 0.05114 0.94599 0.0
H2262 H 0.3524 0.09445 0.95543 0.0
H2263 H 0.34521 0.11318 0.93533 0.0
C2264 C 0.35465 0.0522 0.97306 0.0
C2265 C 0.34306 0.03886 0.98615 0.0
C2266 C 0.34924 0.06216 0.96166 0.0
C2267 C 0.33216 0.0594 0.96339 0.0
C2268 C 0.32038 0.04572 0.97617 0.0
C2269 C 0.32575 0.03543 0.9873 0.0
C2270 C 0.3057 0.07583 0.93313 0.0
C2271 C 0.31819 0.09351 0.9297 0.0
C2272 C 0.31009 0.06475 0.94412 0.0
C2273 C 0.32703 0.0711 0.95216 0.0
C2274 C 0.33934 0.08886 0.94912 0.0
C2275 C 0.33507 0.0998 0.93786 0.0
H2276 H 0.95973 0.2885 0.00606 0.0
H2277 H 0.9865 0.3114 0.94928 0.0
H2278 H 0.93971 0.26159 0.98746 0.0
H2279 H 0.96627 0.28476 0.93082 0.0
H2280 H 0.90825 0.24697 0.90775 0.0
H2281 H 0.93101 0.27189 0.92688 0.0
H2282 H 0.9418 0.23666 0.96248 0.0
H2283 H 0.91927 0.21167 0.94284 0.0
C2284 C 0.96149 0.2877 0.98972 0.0
C2285 C 0.97463 0.30207 0.97911 0.0
C2286 C 0.95008 0.27233 0.97913 0.0
C2287 C 0.95146 0.27126 0.95776 0.0
C2288 C 0.96495 0.28536 0.9473 0.0
C2289 C 0.97653 0.30055 0.9579 0.0
C2290 C 0.91558 0.24461 0.91959 0.0
C2291 C 0.91213 0.22753 0.92389 0.0
C2292 C 0.92858 0.2588 0.93044 0.0
C2293 C 0.93809 0.2561 0.94606 0.0
C2294 C 0.93458 0.23899 0.95049 0.0
C2295 C 0.92181 0.22479 0.93928 0.0
H2296 H 0.69545 0.67901 0.97302 0.0
H2297 H 0.70244 0.63629 0.99511 0.0
H2298 H 0.7227 0.69049 0.95386 0.0
H2299 H 0.7294 0.64767 0.97596 0.0
H2300 H 0.78484 0.68065 0.95529 0.0
H2301 H 0.75924 0.6732 0.97604 0.0
H2302 H 0.73372 0.68113 0.92343 0.0
H2303 H 0.75934 0.68844 0.90251 0.0
C2304 C 0.70282 0.67213 0.9739 0.0
C2305 C 0.69672 0.6567 0.98557 0.0
C2306 C 0.71836 0.67865 0.96284 0.0
C2307 C 0.7282 0.67 0.96345 0.0
C2308 C 0.72223 0.65476 0.97538 0.0
C2309 C 0.70668 0.64817 0.98625 0.0
C2310 C 0.77378 0.68081 0.94812 0.0
C2311 C 0.77404 0.68489 0.92716 0.0
C2312 C 0.75913 0.67658 0.96003 0.0
C2313 C 0.7444 0.67639 0.95131 0.0
C2314 C 0.74493 0.68127 0.93061 0.0
C2315 C 0.7596 0.68547 0.91863 0.0
H2316 H 0.95145 0.65773 1.00027 0.0
H2317 H 0.99214 0.69133 0.95848 0.0
H2318 H 0.93121 0.665 0.9829 0.0
H2319 H 0.9722 0.69921 0.94164 0.0
H2320 H 0.92681 0.69029 0.89952 0.0
H2321 H 0.94811 0.68601 0.91898 0.0
H2322 H 0.92289 0.68639 0.97557 0.0
H2323 H 0.90125 0.69016 0.95587 0.0
C2324 C 0.95616 0.66696 0.98764 0.0
C2325 C 0.97333 0.67384 0.98062 0.0
C2326 C 0.94458 0.6712 0.9777 0.0
C2327 C 0.94998 0.68257 0.96068 0.0
C2328 C 0.96743 0.69008 0.95435 0.0
C2329 C 0.97893 0.68567 0.96411 0.0
C2330 C 0.92594 0.68964 0.91613 0.0
C2331 C 0.91236 0.69053 0.92617 0.0
C2332 C 0.9382 0.68725 0.92734 0.0
C2333 C 0.9373 0.68588 0.94892 0.0
C2334 C 0.92385 0.6871 0.95897 0.0
C2335 C 0.91148 0.68932 0.94771 0.0
H2336 H 0.32076 0.30709 0.97337 0.0
H2337 H 0.36551 0.30276 0.99293 0.0
H2338 H 0.31074 0.28065 0.95238 0.0
H2339 H 0.3554 0.27646 0.97242 0.0
H2340 H 0.34555 0.2435 0.91607 0.0
H2341 H 0.35335 0.26973 0.93611 0.0
H2342 H 0.29955 0.24854 0.95391 0.0
H2343 H 0.2917 0.22216 0.93352 0.0
C2344 C 0.32837 0.30045 0.97337 0.0
C2345 C 0.34406 0.30721 0.98467 0.0
C2346 C 0.3226 0.28528 0.96138 0.0
C2347 C 0.33242 0.2766 0.96047 0.0
C2348 C 0.34775 0.28306 0.97234 0.0
C2349 C 0.3535 0.29814 0.98422 0.0
C2350 C 0.33537 0.24441 0.92427 0.0
C2351 C 0.31805 0.23065 0.92346 0.0
C2352 C 0.33984 0.25944 0.9358 0.0
C2353 C 0.32713 0.26111 0.94693 0.0
C2354 C 0.30965 0.24767 0.94548 0.0
C2355 C 0.30515 0.23258 0.93383 0.0
H2356 H 0.69927 0.01508 0.96435 0.0
H2357 H 0.70637 0.0552 0.00792 0.0
H2358 H 0.72608 0.03583 0.94707 0.0
H2359 H 0.73321 0.07599 0.99054 0.0
H2360 H 0.76219 0.11082 0.93385 0.0
H2361 H 0.73846 0.09005 0.95529 0.0
H2362 H 0.7588 0.05429 0.95223 0.0
H2363 H 0.78298 0.07532 0.93127 0.0
C2364 C 0.7067 0.02826 0.97042 0.0
C2365 C 0.70067 0.03355 0.98742 0.0
C2366 C 0.72208 0.04012 0.96057 0.0
C2367 C 0.73165 0.05755 0.96738 0.0
C2368 C 0.72598 0.06267 0.98485 0.0
C2369 C 0.71069 0.05074 0.99486 0.0
C2370 C 0.76186 0.09871 0.93804 0.0
C2371 C 0.77457 0.0948 0.93078 0.0
C2372 C 0.74822 0.08679 0.95032 0.0
C2373 C 0.74682 0.07058 0.95547 0.0
C2374 C 0.75951 0.06665 0.94835 0.0
C2375 C 0.77329 0.07866 0.93624 0.0
H2376 H 0.642 0.93733 0.0229 0.0
H2377 H 0.67921 0.98529 0.05322 0.0
H2378 H 0.65344 0.92128 0.04209 0.0
H2379 H 0.6906 0.96904 0.0726 0.0
H2380 H 0.68299 0.92575 0.12199 0.0
H2381 H 0.67725 0.94527 0.10041 0.0
H2382 H 0.68108 0.91918 0.04614 0.0
H2383 H 0.68677 0.89961 0.06774 0.0
C2384 C 0.6527 0.94448 0.03357 0.0
C2385 C 0.65962 0.96258 0.03663 0.0
C2386 C 0.65934 0.93529 0.04443 0.0
C2387 C 0.67291 0.94392 0.0588 0.0
C2388 C 0.68009 0.96207 0.06165 0.0
C2389 C 0.67361 0.97136 0.05051 0.0
C2390 C 0.6828 0.92435 0.10544 0.0
C2391 C 0.6852 0.91112 0.09652 0.0
C2392 C 0.67967 0.93559 0.0931 0.0
C2393 C 0.67865 0.93367 0.07163 0.0
C2394 C 0.6817 0.92086 0.06267 0.0
C2395 C 0.68505 0.90976 0.075 0.0
H2396 H 0.02021 0.69907 0.04635 0.0
H2397 H 0.06891 0.71049 0.01809 0.0
H2398 H 0.03554 0.7258 0.06696 0.0
H2399 H 0.08411 0.73713 0.03862 0.0
H2400 H 0.1037 0.79121 0.06666 0.0
H2401 H 0.08592 0.76662 0.04369 0.0
H2402 H 0.05801 0.73508 0.09595 0.0
H2403 H 0.07573 0.75969 0.11889 0.0
C2404 C 0.03412 0.70737 0.04434 0.0
C2405 C 0.04335 0.70259 0.03066 0.0
C2406 C 0.04289 0.72261 0.05622 0.0
C2407 C 0.06101 0.7335 0.05442 0.0
C2408 C 0.07012 0.72906 0.04021 0.0
C2409 C 0.06141 0.71373 0.02856 0.0
C2410 C 0.09357 0.77911 0.07318 0.0
C2411 C 0.09112 0.77732 0.09455 0.0
C2412 C 0.0835 0.76502 0.06007 0.0
C2413 C 0.07063 0.74894 0.06805 0.0
C2414 C 0.06774 0.74737 0.08935 0.0
C2415 C 0.07796 0.76138 0.10248 0.0
H2416 H 0.29337 0.34864 0.01507 0.0
H2417 H 0.30393 0.31877 0.06021 0.0
H2418 H 0.26618 0.3414 0.03259 0.0
H2419 H 0.27689 0.31165 0.07772 0.0
H2420 H 0.22036 0.29146 0.09612 0.0
H2421 H 0.24466 0.29559 0.07446 0.0
H2422 H 0.25922 0.34996 0.06605 0.0
H2423 H 0.2348 0.34576 0.08735 0.0
C2424 C 0.28978 0.34034 0.02855 0.0
C2425 C 0.30084 0.33435 0.03631 0.0
C2426 C 0.27427 0.33629 0.03866 0.0
C2427 C 0.26943 0.32604 0.05663 0.0
C2428 C 0.28015 0.31945 0.06384 0.0
C2429 C 0.2957 0.3236 0.05384 0.0
C2430 C 0.22863 0.30423 0.08943 0.0
C2431 C 0.22572 0.31831 0.09354 0.0
C2432 C 0.24261 0.30662 0.07715 0.0
C2433 C 0.25388 0.3231 0.06854 0.0
C2434 C 0.25069 0.33706 0.07227 0.0
C2435 C 0.23682 0.3347 0.08467 0.0
H2436 H 0.73075 0.69864 0.36162 0.0
H2437 H 0.68289 0.65507 0.38401 0.0
H2438 H 0.74744 0.68724 0.37925 0.0
H2439 H 0.69982 0.6436 0.4017 0.0
H2440 H 0.74089 0.6457 0.45079 0.0
H2441 H 0.72134 0.6529 0.43147 0.0
H2442 H 0.75235 0.66168 0.37711 0.0
H2443 H 0.77174 0.6543 0.39626 0.0
C2444 C 0.72375 0.68659 0.37027 0.0
C2445 C 0.70545 0.67781 0.37144 0.0
C2446 C 0.73335 0.67999 0.38024 0.0
C2447 C 0.72493 0.66448 0.39176 0.0
C2448 C 0.70664 0.65562 0.39298 0.0
C2449 C 0.69697 0.66216 0.38278 0.0
C2450 C 0.74332 0.64882 0.43461 0.0
C2451 C 0.758 0.64965 0.42513 0.0
C2452 C 0.73213 0.65294 0.42357 0.0
C2453 C 0.73544 0.65804 0.40286 0.0
C2454 C 0.74966 0.65811 0.39316 0.0
C2455 C 0.76078 0.65393 0.40415 0.0
H2456 H 0.34997 0.02659 0.39927 0.0
H2457 H 0.32723 0.04179 0.34975 0.0
H2458 H 0.35741 0.0537 0.41738 0.0
H2459 H 0.33435 0.06877 0.36808 0.0
H2460 H 0.3593 0.12145 0.4011 0.0
H2461 H 0.35727 0.09694 0.3811 0.0
H2462 H 0.34052 0.06436 0.43534 0.0
H2463 H 0.34312 0.08893 0.45537 0.0
C2464 C 0.34673 0.03581 0.39213 0.0
C2465 C 0.33788 0.03198 0.37314 0.0
C2466 C 0.35089 0.0513 0.40259 0.0
C2467 C 0.34627 0.06331 0.39432 0.0
C2468 C 0.3382 0.05987 0.37483 0.0
C2469 C 0.33406 0.04437 0.36435 0.0
C2470 C 0.35543 0.10912 0.40879 0.0
C2471 C 0.35128 0.10712 0.42981 0.0
C2472 C 0.35412 0.09503 0.39729 0.0
C2473 C 0.34873 0.07867 0.4066 0.0
C2474 C 0.34493 0.07682 0.42771 0.0
C2475 C 0.34619 0.09085 0.43916 0.0
H2476 H 0.97073 0.32329 0.39432 0.0
H2477 H 0.95719 0.28383 0.34737 0.0
H2478 H 0.94384 0.30418 0.41233 0.0
H2479 H 0.93033 0.26448 0.36569 0.0
H2480 H 0.87746 0.23799 0.39845 0.0
H2481 H 0.9017 0.25935 0.37762 0.0
H2482 H 0.93417 0.27765 0.4321 0.0
H2483 H 0.90996 0.2568 0.45284 0.0
C2484 C 0.96193 0.31058 0.38772 0.0
C2485 C 0.96618 0.30501 0.36951 0.0
C2486 C 0.94655 0.29958 0.39813 0.0
C2487 C 0.93505 0.28268 0.39064 0.0
C2488 C 0.93885 0.27744 0.37184 0.0
C2489 C 0.95427 0.28851 0.36137 0.0
C2490 C 0.88972 0.24676 0.40597 0.0
C2491 C 0.89181 0.24565 0.42729 0.0
C2492 C 0.90364 0.25887 0.39402 0.0
C2493 C 0.91988 0.27023 0.40318 0.0
C2494 C 0.92181 0.26928 0.42455 0.0
C2495 C 0.90797 0.25717 0.43643 0.0
H2496 H 0.98933 0.35358 0.30472 0.0
H2497 H 0.03122 0.4005 0.33203 0.0
H2498 H 0.98097 0.37157 0.28388 0.0
H2499 H 0.02265 0.4183 0.31168 0.0
H2500 H 0.01859 0.44504 0.25396 0.0
H2501 H 0.02455 0.42625 0.2761 0.0
H2502 H 0.96925 0.39179 0.28395 0.0
H2503 H 0.96324 0.41032 0.26091 0.0
C2504 C 0.99657 0.36769 0.30653 0.0
C2505 C 0.01109 0.37559 0.31985 0.0
C2506 C 0.99175 0.378 0.29462 0.0
C2507 C 0.00131 0.3964 0.29587 0.0
C2508 C 0.01528 0.4042 0.30993 0.0
C2509 C 0.02013 0.39395 0.3217 0.0
C2510 C 0.00766 0.43336 0.26017 0.0
C2511 C 0.99043 0.42917 0.25555 0.0
C2512 C 0.01109 0.42269 0.27314 0.0
C2513 C 0.99738 0.40756 0.28197 0.0
C2514 C 0.98011 0.40329 0.27732 0.0
C2515 C 0.97667 0.41401 0.26429 0.0
H2516 H 0.61415 0.627 0.34272 0.0
H2517 H 0.65321 0.63723 0.29687 0.0
H2518 H 0.59396 0.59989 0.32494 0.0
H2519 H 0.63302 0.61021 0.2791 0.0
H2520 H 0.59557 0.5538 0.25953 0.0
H2521 H 0.61633 0.57753 0.2818 0.0
H2522 H 0.57836 0.59436 0.29128 0.0
H2523 H 0.55761 0.57059 0.26933 0.0
C2524 C 0.61853 0.62333 0.32905 0.0
C2525 C 0.63522 0.63431 0.3211 0.0
C2526 C 0.60693 0.60786 0.31881 0.0
C2527 C 0.61186 0.603 0.30054 0.0
C2528 C 0.62888 0.61353 0.29321 0.0
C2529 C 0.64041 0.62906 0.30335 0.0
C2530 C 0.59163 0.56247 0.26658 0.0
C2531 C 0.57503 0.56043 0.26259 0.0
C2532 C 0.60353 0.57609 0.27921 0.0
C2533 C 0.59896 0.58779 0.2883 0.0
C2534 C 0.5822 0.58545 0.28469 0.0
C2535 C 0.57039 0.57197 0.27193 0.0
H2536 H 0.37351 0.01024 0.32972 0.0
H2537 H 0.34802 0.95891 0.30183 0.0
H2538 H 0.39974 0.01797 0.30972 0.0
H2539 H 0.37349 0.96681 0.28101 0.0
H2540 H 0.42614 0.97657 0.26318 0.0
H2541 H 0.40111 0.97063 0.28357 0.0
H2542 H 0.41352 0.02467 0.2776 0.0
H2543 H 0.43975 0.03105 0.25875 0.0
C2544 C 0.37347 0.00072 0.31911 0.0
C2545 C 0.35887 0.9839 0.31754 0.0
C2546 C 0.38844 0.00515 0.30754 0.0
C2547 C 0.38894 0.99294 0.29387 0.0
C2548 C 0.37394 0.97639 0.29181 0.0
C2549 C 0.35923 0.97187 0.30367 0.0
C2550 C 0.42385 0.98735 0.26652 0.0
C2551 C 0.4352 0.00436 0.25934 0.0
C2552 C 0.40916 0.98383 0.27794 0.0
C2553 C 0.40502 0.99709 0.28213 0.0
C2554 C 0.4163 0.01412 0.27489 0.0
C2555 C 0.43125 0.01773 0.26375 0.0
H2556 H 0.62498 0.00124 0.34394 0.0
H2557 H 0.65206 0.0069 0.2869 0.0
H2558 H 0.60355 0.00655 0.32549 0.0
H2559 H 0.63045 0.01166 0.26863 0.0
H2560 H 0.57172 0.98927 0.24606 0.0
H2561 H 0.59448 0.98735 0.26595 0.0
H2562 H 0.60528 0.03412 0.29931 0.0
H2563 H 0.58278 0.03635 0.27893 0.0
C2564 C 0.62648 0.00383 0.32758 0.0
C2565 C 0.64019 0.00364 0.31687 0.0
C2566 C 0.61426 0.00687 0.31708 0.0
C2567 C 0.61539 0.00938 0.29569 0.0
C2568 C 0.62933 0.00968 0.28512 0.0
C2569 C 0.64171 0.00703 0.29563 0.0
C2570 C 0.57896 0.99912 0.25765 0.0
C2571 C 0.57559 0.01297 0.261 0.0
C2572 C 0.59196 0.99805 0.26895 0.0
C2573 C 0.60154 0.01059 0.28409 0.0
C2574 C 0.59799 0.0243 0.28773 0.0
C2575 C 0.58524 0.0256 0.27607 0.0
H2576 H 0.04385 0.64773 0.3077 0.0
H2577 H 0.98997 0.62849 0.32366 0.0
H2578 H 0.03547 0.62207 0.28657 0.0
H2579 H 0.98153 0.60214 0.30316 0.0
H2580 H 0.97112 0.5649 0.24836 0.0
H2581 H 0.97824 0.59054 0.26967 0.0
H2582 H 0.02631 0.5924 0.28862 0.0
H2583 H 0.01948 0.56743 0.26659 0.0
C2584 C 0.03019 0.63787 0.30689 0.0
C2585 C 0.01759 0.64012 0.31747 0.0
C2586 C 0.02537 0.62304 0.29483 0.0
C2587 C 0.00782 0.60979 0.29329 0.0
C2588 C 0.99515 0.6121 0.30378 0.0
C2589 C 0.99998 0.62716 0.31562 0.0
C2590 C 0.98317 0.57085 0.25716 0.0
C2591 C 0.99485 0.56435 0.25569 0.0
C2592 C 0.98723 0.58548 0.26947 0.0
C2593 C 0.00296 0.59375 0.28079 0.0
C2594 C 0.01432 0.58677 0.27972 0.0
C2595 C 0.01039 0.57238 0.26719 0.0
H2596 H 0.36756 0.35067 0.29635 0.0
H2597 H 0.37486 0.38962 0.34176 0.0
H2598 H 0.39457 0.37156 0.2798 0.0
H2599 H 0.40211 0.41059 0.32518 0.0
H2600 H 0.43258 0.44717 0.27021 0.0
H2601 H 0.40882 0.42635 0.29176 0.0
H2602 H 0.42655 0.38876 0.28395 0.0
H2603 H 0.45011 0.40946 0.26198 0.0
C2604 C 0.37509 0.36363 0.303 0.0
C2605 C 0.36903 0.36855 0.32028 0.0
C2606 C 0.39063 0.37557 0.29357 0.0
C2607 C 0.40043 0.39276 0.30111 0.0
C2608 C 0.39473 0.39749 0.31889 0.0
C2609 C 0.3792 0.38546 0.32845 0.0
C2610 C 0.4314 0.43445 0.2731 0.0
C2611 C 0.44311 0.42989 0.26424 0.0
C2612 C 0.41793 0.42262 0.28566 0.0
C2613 C 0.41581 0.40591 0.28955 0.0
C2614 C 0.42778 0.4015 0.28111 0.0
C2615 C 0.44133 0.41338 0.26864 0.0
H2616 H 0.34732 0.31912 0.38398 0.0
H2617 H 0.31145 0.27154 0.35197 0.0
H2618 H 0.35862 0.30286 0.40348 0.0
H2619 H 0.32278 0.25546 0.37133 0.0
H2620 H 0.35532 0.23363 0.39872 0.0
H2621 H 0.35028 0.25343 0.37673 0.0
H2622 H 0.34468 0.27883 0.4306 0.0
H2623 H 0.34979 0.25911 0.45255 0.0
C2624 C 0.34202 0.30528 0.38091 0.0
C2625 C 0.3284 0.29659 0.36656 0.0
C2626 C 0.34844 0.29599 0.39211 0.0
C2627 C 0.34157 0.27792 0.38889 0.0
C2628 C 0.32844 0.26941 0.37398 0.0
C2629 C 0.32186 0.27861 0.36302 0.0
C2630 C 0.35337 0.24368 0.40581 0.0
C2631 C 0.35282 0.24479 0.4273 0.0
C2632 C 0.35038 0.25492 0.39326 0.0
C2633 C 0.34702 0.26759 0.40199 0.0
C2634 C 0.34737 0.26927 0.42347 0.0
C2635 C 0.35014 0.25791 0.43601 0.0
H2636 H 0.6939 0.04031 0.36532 0.0
H2637 H 0.72905 0.02199 0.38524 0.0
H2638 H 0.71139 0.06767 0.38421 0.0
H2639 H 0.74596 0.04874 0.40465 0.0
H2640 H 0.78401 0.10425 0.4199 0.0
H2641 H 0.76584 0.0784 0.39925 0.0
H2642 H 0.72004 0.08094 0.41749 0.0
H2643 H 0.73857 0.10744 0.43752 0.0
C2644 C 0.70524 0.04204 0.37389 0.0
C2645 C 0.71018 0.02905 0.37359 0.0
C2646 C 0.71524 0.05769 0.38479 0.0
C2647 C 0.73027 0.06057 0.39577 0.0
C2648 C 0.73481 0.04728 0.39591 0.0
C2649 C 0.72501 0.03183 0.38486 0.0
C2650 C 0.77006 0.0993 0.41939 0.0
C2651 C 0.76265 0.10769 0.43042 0.0
C2652 C 0.7596 0.08441 0.40768 0.0
C2653 C 0.74138 0.07732 0.40697 0.0
C2654 C 0.73401 0.08606 0.41756 0.0
C2655 C 0.74458 0.10118 0.42908 0.0
H2656 H 0.97186 0.64583 0.39209 0.0
H2657 H 0.96318 0.67896 0.34997 0.0
H2658 H 0.94443 0.6379 0.40901 0.0
H2659 H 0.93604 0.67164 0.36741 0.0
H2660 H 0.8819 0.64666 0.39506 0.0
H2661 H 0.90693 0.65046 0.37521 0.0
H2662 H 0.93351 0.65102 0.43163 0.0
H2663 H 0.90833 0.64674 0.45126 0.0
C2664 C 0.96402 0.65135 0.38637 0.0
C2665 C 0.96973 0.66308 0.36975 0.0
C2666 C 0.94835 0.64693 0.3962 0.0
C2667 C 0.93807 0.65432 0.38985 0.0
C2668 C 0.94347 0.66554 0.37267 0.0
C2669 C 0.95908 0.6698 0.36267 0.0
C2670 C 0.89311 0.64756 0.40317 0.0
C2671 C 0.89314 0.64638 0.42472 0.0
C2672 C 0.90748 0.64979 0.3918 0.0
C2673 C 0.92232 0.65105 0.40174 0.0
C2674 C 0.92223 0.64973 0.42333 0.0
C2675 C 0.9078 0.64734 0.43465 0.0
H2676 H 0.35279 0.99303 0.71952 0.0
H2677 H 0.39881 0.033 0.68935 0.0
H2678 H 0.37099 0.98449 0.73965 0.0
H2679 H 0.41679 0.02421 0.7089 0.0
H2680 H 0.44551 0.02125 0.7652 0.0
H2681 H 0.4263 0.02722 0.74394 0.0
H2682 H 0.39021 0.9717 0.73886 0.0
H2683 H 0.40918 0.96572 0.76114 0.0
C2684 C 0.36673 0.9998 0.71695 0.0
C2685 C 0.37438 0.01386 0.70306 0.0
C2686 C 0.37715 0.99488 0.72844 0.0
C2687 C 0.39538 0.00386 0.72612 0.0
C2688 C 0.40285 0.01732 0.71148 0.0
C2689 C 0.39251 0.02231 0.70018 0.0
C2690 C 0.43338 0.01029 0.75981 0.0
C2691 C 0.42885 0.993 0.765 0.0
C2692 C 0.42247 0.0137 0.74733 0.0
C2693 C 0.40677 0.99993 0.73953 0.0
C2694 C 0.40216 0.98261 0.74471 0.0
C2695 C 0.41311 0.97918 0.7573 0.0
H2696 H 0.99153 0.37202 0.68199 0.0
H2697 H 0.01639 0.35969 0.73181 0.0
H2698 H 0.99726 0.39888 0.69974 0.0
H2699 H 0.02241 0.38662 0.74929 0.0
H2700 H 0.00739 0.42117 0.78675 0.0
H2701 H 0.00485 0.39644 0.76714 0.0
H2702 H 0.01946 0.42785 0.71195 0.0
H2703 H 0.02141 0.45253 0.73155 0.0
C2704 C 0.9985 0.3752 0.69653 0.0
C2705 C 0.00337 0.36364 0.70557 0.0
C2706 C 0.00183 0.39062 0.70669 0.0
C2707 C 0.0101 0.3948 0.72608 0.0
C2708 C 0.01569 0.38362 0.7346 0.0
C2709 C 0.01234 0.36823 0.72449 0.0
C2710 C 0.00996 0.4228 0.77041 0.0
C2711 C 0.01451 0.43881 0.76071 0.0
C2712 C 0.00872 0.40867 0.75919 0.0
C2713 C 0.01203 0.41016 0.73796 0.0
C2714 C 0.01672 0.42622 0.72825 0.0
C2715 C 0.018 0.44041 0.73951 0.0
H2716 H 0.63727 0.65234 0.72281 0.0
H2717 H 0.62962 0.61104 0.68081 0.0
H2718 H 0.61051 0.63216 0.74062 0.0
H2719 H 0.60283 0.59082 0.69874 0.0
H2720 H 0.57244 0.55711 0.75545 0.0
H2721 H 0.59676 0.57723 0.73422 0.0
H2722 H 0.57784 0.6142 0.73554 0.0
H2723 H 0.5531 0.59386 0.75624 0.0
C2724 C 0.62975 0.63901 0.71722 0.0
C2725 C 0.63559 0.63327 0.70043 0.0
C2726 C 0.61439 0.62747 0.72739 0.0
C2727 C 0.60462 0.60988 0.72116 0.0
C2728 C 0.61019 0.60426 0.70402 0.0
C2729 C 0.62545 0.61587 0.69367 0.0
C2730 C 0.57321 0.56936 0.75094 0.0
C2731 C 0.5607 0.57377 0.75764 0.0
C2732 C 0.58721 0.58092 0.73878 0.0
C2733 C 0.5892 0.59728 0.73317 0.0
C2734 C 0.57673 0.60174 0.73977 0.0
C2735 C 0.5626 0.59009 0.75175 0.0
H2736 H 0.70102 0.71783 0.62841 0.0
H2737 H 0.65137 0.69031 0.65886 0.0
H2738 H 0.69088 0.73473 0.60891 0.0
H2739 H 0.64135 0.70808 0.64014 0.0
H2740 H 0.62475 0.7354 0.59168 0.0
H2741 H 0.63285 0.71561 0.60873 0.0
H2742 H 0.68599 0.75793 0.61422 0.0
H2743 H 0.67831 0.77707 0.59573 0.0
C2744 C 0.68791 0.7155 0.63099 0.0
C2745 C 0.67704 0.70292 0.64529 0.0
C2746 C 0.68211 0.7253 0.61994 0.0
C2747 C 0.66541 0.72316 0.62324 0.0
C2748 C 0.65426 0.71009 0.63709 0.0
C2749 C 0.65999 0.69994 0.64788 0.0
C2750 C 0.63822 0.74041 0.59622 0.0
C2751 C 0.65084 0.75793 0.59222 0.0
C2752 C 0.64282 0.72908 0.6063 0.0
C2753 C 0.66013 0.73504 0.61278 0.0
C2754 C 0.67261 0.75264 0.60909 0.0
C2755 C 0.6681 0.76382 0.59878 0.0
H2756 H 0.31963 0.97089 0.6309 0.0
H2757 H 0.28158 0.9616 0.67776 0.0
H2758 H 0.29883 0.94389 0.61358 0.0
H2759 H 0.26077 0.93448 0.66042 0.0
H2760 H 0.26039 0.88773 0.59442 0.0
H2761 H 0.28174 0.9113 0.6164 0.0
H2762 H 0.24459 0.92899 0.62718 0.0
H2763 H 0.22325 0.90536 0.60553 0.0
C2764 C 0.30693 0.96291 0.63771 0.0
C2765 C 0.3022 0.96844 0.65562 0.0
C2766 C 0.29504 0.9474 0.62782 0.0
C2767 C 0.27812 0.93714 0.63554 0.0
C2768 C 0.27366 0.94224 0.65398 0.0
C2769 C 0.28561 0.9577 0.66398 0.0
C2770 C 0.25675 0.89655 0.6017 0.0
C2771 C 0.2402 0.89478 0.59816 0.0
C2772 C 0.26899 0.91008 0.61417 0.0
C2773 C 0.26483 0.92198 0.62353 0.0
C2774 C 0.24812 0.91992 0.62038 0.0
C2775 C 0.23597 0.90652 0.60778 0.0
H2776 H 0.02508 0.29267 0.64517 0.0
H2777 H 0.04028 0.34654 0.65882 0.0
H2778 H 0.0513 0.30217 0.62541 0.0
H2779 H 0.06725 0.35617 0.63953 0.0
H2780 H 0.10471 0.36607 0.58459 0.0
H2781 H 0.07927 0.35882 0.606 0.0
H2782 H 0.08124 0.31359 0.6294 0.0
H2783 H 0.10592 0.32044 0.60731 0.0
C2784 C 0.03417 0.30659 0.6442 0.0
C2785 C 0.03061 0.31883 0.65375 0.0
C2786 C 0.04934 0.31207 0.63292 0.0
C2787 C 0.06164 0.32996 0.63108 0.0
C2788 C 0.05805 0.34229 0.64049 0.0
C2789 C 0.04264 0.33678 0.65163 0.0
C2790 C 0.09967 0.35466 0.59445 0.0
C2791 C 0.10704 0.34365 0.59415 0.0
C2792 C 0.08517 0.35053 0.60679 0.0
C2793 C 0.07796 0.33543 0.61924 0.0
C2794 C 0.08603 0.325 0.61958 0.0
C2795 C 0.10025 0.32896 0.60704 0.0
H2796 H 0.28335 0.32352 0.67416 0.0
H2797 H 0.32156 0.35216 0.6275 0.0
H2798 H 0.26276 0.33053 0.65704 0.0
H2799 H 0.30096 0.35904 0.61034 0.0
H2800 H 0.26306 0.37795 0.59137 0.0
H2801 H 0.28425 0.37497 0.61318 0.0
H2802 H 0.24639 0.32073 0.62418 0.0
H2803 H 0.22523 0.3238 0.60275 0.0
C2804 C 0.28745 0.33152 0.66043 0.0
C2805 C 0.30404 0.33718 0.6521 0.0
C2806 C 0.27562 0.33545 0.65056 0.0
C2807 C 0.28018 0.34521 0.63224 0.0
C2808 C 0.29708 0.3516 0.6245 0.0
C2809 C 0.30886 0.34758 0.63429 0.0
C2810 C 0.25923 0.36548 0.59869 0.0
C2811 C 0.24254 0.35108 0.59524 0.0
C2812 C 0.27138 0.36374 0.61105 0.0
C2813 C 0.267 0.34761 0.62039 0.0
C2814 C 0.25013 0.33338 0.61739 0.0
C2815 C 0.23806 0.33508 0.60492 0.0
H2816 H 0.6986 0.96778 0.66046 0.0
H2817 H 0.65414 0.97268 0.64101 0.0
H2818 H 0.6883 0.94155 0.6398 0.0
H2819 H 0.64392 0.94628 0.61987 0.0
H2820 H 0.62436 0.8876 0.60116 0.0
H2821 H 0.63247 0.91407 0.62148 0.0
H2822 H 0.68616 0.93486 0.60346 0.0
H2823 H 0.67812 0.90855 0.58348 0.0
C2824 C 0.68663 0.96331 0.65173 0.0
C2825 C 0.67732 0.97252 0.65226 0.0
C2826 C 0.68076 0.94826 0.63977 0.0
C2827 C 0.66544 0.94197 0.6279 0.0
C2828 C 0.65577 0.95079 0.62887 0.0
C2829 C 0.66165 0.96594 0.64093 0.0
C2830 C 0.63785 0.89795 0.60141 0.0
C2831 C 0.65066 0.89589 0.591 0.0
C2832 C 0.64249 0.91309 0.61302 0.0
C2833 C 0.66001 0.92645 0.61437 0.0
C2834 C 0.67262 0.92464 0.60321 0.0
C2835 C 0.66802 0.90956 0.59173 0.0
H2836 H 0.02973 0.68347 0.62849 0.0
H2837 H 0.03902 0.72103 0.67657 0.0
H2838 H 0.05693 0.70437 0.61212 0.0
H2839 H 0.06633 0.74193 0.66021 0.0
H2840 H 0.09687 0.78044 0.60709 0.0
H2841 H 0.07282 0.75896 0.62775 0.0
H2842 H 0.08926 0.72085 0.61591 0.0
H2843 H 0.11322 0.74233 0.5949 0.0
C2844 C 0.03772 0.69608 0.63575 0.0
C2845 C 0.03216 0.70064 0.65374 0.0
C2846 C 0.05336 0.70803 0.62642 0.0
C2847 C 0.06371 0.72484 0.63479 0.0
C2848 C 0.05851 0.72914 0.65327 0.0
C2849 C 0.04293 0.71713 0.6627 0.0
C2850 C 0.09535 0.76748 0.60892 0.0
C2851 C 0.10685 0.76302 0.59925 0.0
C2852 C 0.0817 0.75524 0.62094 0.0
C2853 C 0.07915 0.73821 0.62347 0.0
C2854 C 0.09084 0.73384 0.61414 0.0
C2855 C 0.10461 0.74616 0.60224 0.0
H2856 H 0.01432 0.64556 0.69721 0.0
H2857 H 0.96085 0.60916 0.71272 0.0
H2858 H 0.02371 0.62706 0.71545 0.0
H2859 H 0.97013 0.59127 0.73142 0.0
H2860 H 0.98672 0.55224 0.74518 0.0
H2861 H 0.98034 0.57167 0.72466 0.0
H2862 H 0.02683 0.61643 0.74862 0.0
H2863 H 0.03356 0.59664 0.76847 0.0
C2864 C 0.00463 0.63373 0.70466 0.0
C2865 C 0.98684 0.62868 0.70327 0.0
C2866 C 0.00999 0.62315 0.71515 0.0
C2867 C 0.99765 0.60747 0.72461 0.0
C2868 C 0.97996 0.6029 0.72377 0.0
C2869 C 0.97463 0.61325 0.71313 0.0
C2870 C 0.99563 0.56623 0.74587 0.0
C2871 C 0.01051 0.57301 0.75848 0.0
C2872 C 0.99194 0.5774 0.73426 0.0
C2873 C 0.00286 0.59569 0.7353 0.0
C2874 C 0.01816 0.60244 0.74737 0.0
C2875 C 0.022 0.59115 0.75879 0.0
H2876 H 0.38855 0.35145 0.72426 0.0
H2877 H 0.35943 0.3736 0.69548 0.0
H2878 H 0.40472 0.37806 0.74485 0.0
H2879 H 0.37606 0.40049 0.71577 0.0
H2880 H 0.43173 0.45059 0.73504 0.0
H2881 H 0.41175 0.42383 0.71616 0.0
H2882 H 0.39572 0.39541 0.77336 0.0
H2883 H 0.41534 0.4223 0.79228 0.0
C2884 C 0.38559 0.36199 0.72238 0.0
C2885 C 0.37275 0.36048 0.70827 0.0
C2886 C 0.39477 0.37714 0.73423 0.0
C2887 C 0.39158 0.39122 0.73185 0.0
C2888 C 0.37871 0.38975 0.71783 0.0
C2889 C 0.36919 0.37439 0.70633 0.0
C2890 C 0.42374 0.43866 0.74353 0.0
C2891 C 0.42499 0.43841 0.76505 0.0
C2892 C 0.41231 0.42343 0.73279 0.0
C2893 C 0.40227 0.40765 0.74337 0.0
C2894 C 0.40335 0.40746 0.76491 0.0
C2895 C 0.41448 0.42278 0.77569 0.0
H2896 H 0.62906 0.01786 0.68104 0.0
H2897 H 0.6363 0.98558 0.72595 0.0
H2898 H 0.60197 0.01196 0.69791 0.0
H2899 H 0.60942 0.9798 0.74279 0.0
H2900 H 0.55353 0.96238 0.76022 0.0
H2901 H 0.57745 0.96543 0.73868 0.0
H2902 H 0.59496 0.02058 0.73137 0.0
H2903 H 0.57085 0.01746 0.75253 0.0
C2904 C 0.62475 0.00931 0.6943 0.0
C2905 C 0.63486 0.00225 0.70221 0.0
C2906 C 0.60931 0.00604 0.70405 0.0
C2907 C 0.60359 0.99549 0.72176 0.0
C2908 C 0.61335 0.98785 0.72909 0.0
C2909 C 0.62882 0.99123 0.71948 0.0
C2910 C 0.56234 0.9751 0.75378 0.0
C2911 C 0.56034 0.98969 0.75818 0.0
C2912 C 0.57612 0.97687 0.74156 0.0
C2913 C 0.58813 0.99325 0.73334 0.0
C2914 C 0.58585 0.00775 0.73729 0.0
C2915 C 0.57215 0.006 0.74962 0.0
loop_
_geom_bond_atom_site_label_1
_geom_bond_atom_site_label_2
_geom_bond_distance
_geom_bond_site_symmetry_2
_ccdc_geom_bond_type
Mn0 O5 2.095 1_655 S
Mn0 O15 2.162 . S
Mn0 O16 2.297 1_554 S
Mn0 O24 2.385 1_554 S
Mn0 O25 2.209 1_654 S
Mn0 O26 2.094 . S
Mn1 O6 2.121 . S
Mn1 N8 2.257 1_554 S
Mn1 N17 2.282 . S
Mn1 O25 2.215 1_554 S
Mn1 O27 2.117 . S
C2 O24 1.234 1_455 S
C2 O25 1.283 . S
C3 O15 1.281 1_556 S
C3 O16 1.236 . S
C4 O26 1.262 . S
C4 O27 1.210 1_655 S
O5 Mn0 2.095 1_455 S
O5 C14 1.250 . S
O6 Mn1 2.121 . S
O6 C14 1.258 . S
C7 N8 1.326 . S
C7 C11 1.460 . S
C7 H13 0.929 . S
N8 Mn1 2.257 1_556 S
N8 C7 1.326 . S
N8 C12 1.362 . S
C9 C10 1.258 . S
C9 C12 1.431 . S
C9 C29 1.449 . S
C10 C9 1.258 . S
C10 C11 1.477 . S
C10 H30 0.931 . S
C11 C7 1.460 . S
C11 C10 1.477 . S
C11 H31 0.930 . S
C12 N8 1.362 . S
C12 C9 1.431 . S
C12 C22 1.476 . S
H13 C7 0.929 . S
C14 O5 1.250 . S
C14 O6 1.258 . S
O15 Mn0 2.162 . S
O15 C3 1.281 1_554 S
O16 Mn0 2.297 1_556 S
O16 C3 1.236 . S
N17 Mn1 2.282 . S
N17 C18 1.328 . S
N17 C22 1.318 1_554 S
C18 N17 1.328 . S
C18 C19 1.457 1_554 S
C18 H23 0.929 . S
C19 C18 1.457 1_556 S
C19 C20 1.291 . S
C19 H32 0.930 . S
C20 C19 1.291 . S
C20 C21 1.373 . S
C20 H33 0.929 . S
C21 C20 1.373 . S
C21 C22 1.396 . S
C21 C28 1.403 . S
C22 C12 1.476 . S
C22 N17 1.318 1_556 S
C22 C21 1.396 . S
H23 C18 0.929 . S
O24 Mn0 2.385 1_556 S
O24 C2 1.234 1_655 S
O25 Mn0 2.209 1_456 S
O25 Mn1 2.215 1_556 S
O25 C2 1.283 . S
O26 Mn0 2.094 . S
O26 C4 1.262 . S
O27 Mn1 2.117 . S
O27 C4 1.210 1_455 S
C28 C21 1.403 . S
C28 C29 1.399 . S
C28 H34 0.929 . S
C29 C9 1.449 . S
C29 C28 1.399 . S
C29 H35 0.930 . S
H30 C10 0.931 . S
H31 C11 0.930 . S
H32 C19 0.930 . S
H33 C20 0.929 . S
H34 C28 0.929 . S
H35 C29 0.930 . S
Mn36 O41 2.095 1_554 S
Mn36 O51 2.162 . S
Mn36 O52 2.297 . S
Mn36 O60 2.385 . S
Mn36 O61 2.209 . S
Mn36 O62 2.094 1_554 S
Mn37 O42 2.121 . S
Mn37 N44 2.257 1_556 S
Mn37 N53 2.282 1_556 S
Mn37 O61 2.215 1_556 S
Mn37 O63 2.117 . S
C38 O60 1.234 . S
C38 O61 1.283 . S
C39 O51 1.281 . S
C39 O52 1.236 . S
C40 O62 1.240 . S
C40 O63 1.264 . S
O41 Mn36 2.095 1_556 S
O41 C50 1.250 . S
O42 Mn37 2.121 . S
O42 C50 1.258 . S
C43 N44 1.326 . S
C43 C47 1.460 . S
C43 H49 0.929 . S
N44 Mn37 2.257 1_554 S
N44 C43 1.326 . S
N44 C48 1.362 . S
C45 C46 1.258 . S
C45 C48 1.431 . S
C45 C65 1.449 . S
C46 C45 1.258 . S
C46 C47 1.477 . S
C46 H66 0.931 . S
C47 C43 1.460 . S
C47 C46 1.477 . S
C47 H67 0.930 . S
C48 N44 1.362 . S
C48 C45 1.431 . S
C48 C58 1.476 . S
H49 C43 0.929 . S
C50 O41 1.250 . S
C50 O42 1.258 . S
O51 Mn36 2.162 . S
O51 C39 1.281 . S
O52 Mn36 2.297 . S
O52 C39 1.236 . S
N53 Mn37 2.282 1_554 S
N53 C54 1.328 . S
N53 C58 1.318 . S
C54 N53 1.328 . S
C54 C55 1.457 . S
C54 H59 0.905 1_554 S
C55 C54 1.457 . S
C55 C56 1.291 . S
C55 H68 0.931 . S
C56 C55 1.291 . S
C56 C57 1.373 . S
C56 H69 0.929 . S
C57 C56 1.373 . S
C57 C58 1.396 . S
C57 C64 1.403 . S
C58 C48 1.476 . S
C58 N53 1.318 . S
C58 C57 1.396 . S
H59 C54 0.905 1_556 S
O60 Mn36 2.385 . S
O60 C38 1.234 . S
O61 Mn36 2.209 . S
O61 Mn37 2.215 1_554 S
O61 C38 1.283 . S
O62 Mn36 2.094 1_556 S
O62 C40 1.240 . S
O63 Mn37 2.117 . S
O63 C40 1.264 . S
C64 C57 1.403 . S
C64 C65 1.399 . S
C64 H70 0.929 . S
C65 C45 1.449 . S
C65 C64 1.399 . S
C65 H71 0.930 . S
H66 C46 0.931 . S
H67 C47 0.930 . S
H68 C55 0.931 . S
H69 C56 0.929 . S
H70 C64 0.929 . S
H71 C65 0.930 . S
Mn72 O77 2.095 1_564 S
Mn72 O87 2.162 . S
Mn72 O88 2.297 . S
Mn72 O96 2.385 . S
Mn72 O97 2.209 1_565 S
Mn72 O98 2.094 1_554 S
Mn73 O78 2.121 1_554 S
Mn73 N80 2.257 . S
Mn73 N89 2.282 . S
Mn73 O97 2.215 . S
Mn73 O99 2.117 1_554 S
C74 O96 1.234 1_545 S
C74 O97 1.283 . S
C75 O87 1.281 . S
C75 O88 1.236 . S
C76 O98 1.240 . S
C76 O99 1.264 1_565 S
O77 Mn72 2.095 1_546 S
O77 C86 1.250 . S
O78 Mn73 2.121 1_556 S
O78 C86 1.258 . S
C79 N80 1.326 . S
C79 C83 1.460 . S
C79 H85 0.929 . S
N80 Mn73 2.257 . S
N80 C79 1.326 . S
N80 C84 1.362 . S
C81 C82 1.258 . S
C81 C84 1.431 . S
C81 C101 1.449 . S
C82 C81 1.258 . S
C82 C83 1.477 . S
C82 H102 0.931 . S
C83 C79 1.460 . S
C83 C82 1.477 . S
C83 H103 0.930 . S
C84 N80 1.362 . S
C84 C81 1.431 . S
C84 C94 1.476 . S
H85 C79 0.929 . S
C86 O77 1.250 . S
C86 O78 1.258 . S
O87 Mn72 2.162 . S
O87 C75 1.281 . S
O88 Mn72 2.297 . S
O88 C75 1.236 . S
N89 Mn73 2.282 . S
N89 C90 1.328 . S
N89 C94 1.318 . S
C90 N89 1.328 . S
C90 C91 1.457 . S
C90 H95 0.929 . S
C91 C90 1.457 . S
C91 C92 1.291 . S
C91 H104 0.931 . S
C92 C91 1.291 . S
C92 C93 1.373 . S
C92 H105 0.929 . S
C93 C92 1.373 . S
C93 C94 1.396 . S
C93 C100 1.403 . S
C94 C84 1.476 . S
C94 N89 1.318 . S
C94 C93 1.396 . S
H95 C90 0.929 . S
O96 Mn72 2.385 . S
O96 C74 1.234 1_565 S
O97 Mn72 2.209 1_545 S
O97 Mn73 2.215 . S
O97 C74 1.283 . S
O98 Mn72 2.094 1_556 S
O98 C76 1.240 . S
O99 Mn73 2.117 1_556 S
O99 C76 1.264 1_545 S
C100 C93 1.403 . S
C100 C101 1.399 . S
C100 H106 0.929 . S
C101 C81 1.449 . S
C101 C100 1.399 . S
C101 H107 0.930 . S
H102 C82 0.931 . S
H103 C83 0.930 . S
H104 C91 0.931 . S
H105 C92 0.929 . S
H106 C100 0.929 . S
H107 C101 0.930 . S
Mn108 O113 2.095 1_655 S
Mn108 O123 2.162 . S
Mn108 O124 2.297 1_554 S
Mn108 O132 2.385 1_554 S
Mn108 O133 2.209 1_654 S
Mn108 O134 2.094 . S
Mn109 O114 2.121 . S
Mn109 N116 2.257 1_554 S
Mn109 N125 2.282 . S
Mn109 O133 2.215 1_554 S
Mn109 O135 2.117 . S
C110 O132 1.234 1_455 S
C110 O133 1.283 . S
C111 O123 1.281 1_556 S
C111 O124 1.236 . S
C112 O134 1.240 . S
C112 O135 1.264 1_655 S
O113 Mn108 2.095 1_455 S
O113 C122 1.250 . S
O114 Mn109 2.121 . S
O114 C122 1.258 . S
C115 N116 1.326 . S
C115 C119 1.460 . S
C115 H121 0.929 . S
N116 Mn109 2.257 1_556 S
N116 C115 1.326 . S
N116 C120 1.362 . S
C117 C118 1.258 . S
C117 C120 1.431 . S
C117 C137 1.449 . S
C118 C117 1.258 . S
C118 C119 1.477 . S
C118 H138 0.931 . S
C119 C115 1.460 . S
C119 C118 1.477 . S
C119 H139 0.930 . S
C120 N116 1.362 . S
C120 C117 1.431 . S
C120 C130 1.476 . S
H121 C115 0.929 . S
C122 O113 1.250 . S
C122 O114 1.258 . S
O123 Mn108 2.162 . S
O123 C111 1.281 1_554 S
O124 Mn108 2.297 1_556 S
O124 C111 1.236 . S
N125 Mn109 2.282 . S
N125 C126 1.328 . S
N125 C130 1.318 1_554 S
C126 N125 1.328 . S
C126 C127 1.457 1_554 S
C126 H131 0.929 . S
C127 C126 1.457 1_556 S
C127 C128 1.291 . S
C127 H140 0.931 1_556 S
C128 C127 1.291 . S
C128 C129 1.373 . S
C128 H141 0.929 . S
C129 C128 1.373 . S
C129 C130 1.396 . S
C129 C136 1.403 . S
C130 C120 1.476 . S
C130 N125 1.318 1_556 S
C130 C129 1.396 . S
H131 C126 0.929 . S
O132 Mn108 2.385 1_556 S
O132 C110 1.234 1_655 S
O133 Mn108 2.209 1_456 S
O133 Mn109 2.215 1_556 S
O133 C110 1.283 . S
O134 Mn108 2.094 . S
O134 C112 1.240 . S
O135 Mn109 2.117 . S
O135 C112 1.264 1_455 S
C136 C129 1.403 . S
C136 C137 1.399 . S
C136 H142 0.929 . S
C137 C117 1.449 . S
C137 C136 1.399 . S
C137 H143 0.930 . S
H138 C118 0.931 . S
H139 C119 0.930 . S
H140 C127 0.931 1_554 S
H141 C128 0.929 . S
H142 C136 0.929 . S
H143 C137 0.930 . S
Mn144 O149 2.095 1_554 S
Mn144 O159 2.162 . S
Mn144 O160 2.297 . S
Mn144 O168 2.385 . S
Mn144 O169 2.209 . S
Mn144 O170 2.094 1_554 S
Mn145 O150 2.121 . S
Mn145 N152 2.257 1_556 S
Mn145 N161 2.282 1_556 S
Mn145 O169 2.215 1_556 S
Mn145 O171 2.117 . S
C146 O168 1.234 . S
C146 O169 1.283 . S
C147 O159 1.281 . S
C147 O160 1.236 . S
C148 O170 1.240 . S
C148 O171 1.264 . S
O149 Mn144 2.095 1_556 S
O149 C158 1.250 . S
O150 Mn145 2.121 . S
O150 C158 1.258 . S
C151 N152 1.326 . S
C151 C155 1.460 . S
C151 H157 0.929 . S
N152 Mn145 2.257 1_554 S
N152 C151 1.326 . S
N152 C156 1.362 . S
C153 C154 1.258 . S
C153 C156 1.431 . S
C153 C173 1.449 . S
C154 C153 1.258 . S
C154 C155 1.477 . S
C154 H174 0.931 . S
C155 C151 1.460 . S
C155 C154 1.477 . S
C155 H175 0.930 . S
C156 N152 1.362 . S
C156 C153 1.431 . S
C156 C166 1.476 . S
H157 C151 0.929 . S
C158 O149 1.250 . S
C158 O150 1.258 . S
O159 Mn144 2.162 . S
O159 C147 1.281 . S
O160 Mn144 2.297 . S
O160 C147 1.236 . S
N161 Mn145 2.282 1_554 S
N161 C162 1.328 . S
N161 C166 1.318 . S
C162 N161 1.328 . S
C162 C163 1.457 . S
C162 H167 0.938 . S
C163 C162 1.457 . S
C163 C164 1.291 . S
C163 H176 0.931 . S
C164 C163 1.291 . S
C164 C165 1.373 . S
C164 H177 0.929 . S
C165 C164 1.373 . S
C165 C166 1.396 . S
C165 C172 1.403 . S
C166 C156 1.476 . S
C166 N161 1.318 . S
C166 C165 1.396 . S
H167 C162 0.938 . S
O168 Mn144 2.385 . S
O168 C146 1.234 . S
O169 Mn144 2.209 . S
O169 Mn145 2.215 1_554 S
O169 C146 1.283 . S
O170 Mn144 2.094 1_556 S
O170 C148 1.240 . S
O171 Mn145 2.117 . S
O171 C148 1.264 . S
C172 C165 1.403 . S
C172 C173 1.399 . S
C172 H178 0.929 . S
C173 C153 1.449 . S
C173 C172 1.399 . S
C173 H179 0.930 . S
H174 C154 0.931 . S
H175 C155 0.930 . S
H176 C163 0.931 . S
H177 C164 0.929 . S
H178 C172 0.929 . S
H179 C173 0.930 . S
Mn180 O185 2.095 1_545 S
Mn180 O195 2.162 . S
Mn180 O196 2.297 1_554 S
Mn180 O204 2.385 1_554 S
Mn180 O205 2.209 1_544 S
Mn180 O206 2.094 . S
Mn181 O186 2.121 . S
Mn181 N188 2.257 1_554 S
Mn181 N197 2.282 . S
Mn181 O205 2.215 1_554 S
Mn181 O207 2.117 . S
C182 O204 1.234 1_565 S
C182 O205 1.283 . S
C183 O195 1.281 1_556 S
C183 O196 1.236 . S
C184 O206 1.240 . S
C184 O207 1.264 1_545 S
O185 Mn180 2.095 1_565 S
O185 C194 1.250 . S
O186 Mn181 2.121 . S
O186 C194 1.258 . S
C187 N188 1.326 . S
C187 C191 1.460 . S
C187 H193 0.929 . S
N188 Mn181 2.257 1_556 S
N188 C187 1.326 . S
N188 C192 1.362 . S
C189 C190 1.258 . S
C189 C192 1.431 . S
C189 C209 1.449 . S
C190 C189 1.258 . S
C190 C191 1.477 . S
C190 H210 0.931 . S
C191 C187 1.460 . S
C191 C190 1.477 . S
C191 H211 0.930 . S
C192 N188 1.362 . S
C192 C189 1.431 . S
C192 C202 1.476 . S
H193 C187 0.929 . S
C194 O185 1.250 . S
C194 O186 1.258 . S
O195 Mn180 2.162 . S
O195 C183 1.281 1_554 S
O196 Mn180 2.297 1_556 S
O196 C183 1.236 . S
N197 Mn181 2.282 . S
N197 C198 1.328 . S
N197 C202 1.318 1_554 S
C198 N197 1.328 . S
C198 C199 1.457 1_554 S
C198 H203 0.929 . S
C199 C198 1.457 1_556 S
C199 C200 1.291 . S
C199 H212 0.931 . S
C200 C199 1.291 . S
C200 C201 1.373 . S
C200 H213 0.929 . S
C201 C200 1.373 . S
C201 C202 1.396 . S
C201 C208 1.403 . S
C202 C192 1.476 . S
C202 N197 1.318 1_556 S
C202 C201 1.396 . S
H203 C198 0.929 . S
O204 Mn180 2.385 1_556 S
O204 C182 1.234 1_545 S
O205 Mn180 2.209 1_566 S
O205 Mn181 2.215 1_556 S
O205 C182 1.283 . S
O206 Mn180 2.094 . S
O206 C184 1.240 . S
O207 Mn181 2.117 . S
O207 C184 1.264 1_565 S
C208 C201 1.403 . S
C208 C209 1.399 . S
C208 H214 0.929 . S
C209 C189 1.449 . S
C209 C208 1.399 . S
C209 H215 0.930 . S
H210 C190 0.931 . S
H211 C191 0.930 . S
H212 C199 0.931 . S
H213 C200 0.929 . S
H214 C208 0.929 . S
H215 C209 0.930 . S
Mn216 O221 2.095 . S
Mn216 O231 2.162 . S
Mn216 O232 2.297 . S
Mn216 O240 2.385 . S
Mn216 O241 2.209 . S
Mn216 O242 2.094 . S
Mn217 O222 2.121 . S
Mn217 N224 2.257 . S
Mn217 N233 2.282 . S
Mn217 O241 2.215 . S
Mn217 O243 2.117 . S
C218 O240 1.234 . S
C218 O241 1.283 . S
C219 O231 1.281 . S
C219 O232 1.236 . S
C220 O242 1.240 . S
C220 O243 1.264 . S
O221 Mn216 2.095 . S
O221 C230 1.250 . S
O222 Mn217 2.121 . S
O222 C230 1.258 . S
C223 N224 1.326 . S
C223 C227 1.460 . S
C223 H229 0.929 . S
N224 Mn217 2.257 . S
N224 C223 1.326 . S
N224 C228 1.362 . S
C225 C226 1.258 . S
C225 C228 1.431 . S
C225 C245 1.449 . S
C226 C225 1.258 . S
C226 C227 1.477 . S
C226 H246 0.931 . S
C227 C223 1.460 . S
C227 C226 1.477 . S
C227 H247 0.930 . S
C228 N224 1.362 . S
C228 C225 1.431 . S
C228 C238 1.476 . S
H229 C223 0.929 . S
C230 O221 1.250 . S
C230 O222 1.258 . S
O231 Mn216 2.162 . S
O231 C219 1.281 . S
O232 Mn216 2.297 . S
O232 C219 1.236 . S
N233 Mn217 2.282 . S
N233 C234 1.328 . S
N233 C238 1.318 . S
C234 N233 1.328 . S
C234 C235 1.457 . S
C234 H239 0.929 . S
C235 C234 1.457 . S
C235 C236 1.291 . S
C235 H248 0.931 . S
C236 C235 1.291 . S
C236 C237 1.373 . S
C236 H249 0.929 . S
C237 C236 1.373 . S
C237 C238 1.396 . S
C237 C244 1.403 . S
C238 C228 1.476 . S
C238 N233 1.318 . S
C238 C237 1.396 . S
H239 C234 0.929 . S
O240 Mn216 2.385 . S
O240 C218 1.234 . S
O241 Mn216 2.209 . S
O241 Mn217 2.215 . S
O241 C218 1.283 . S
O242 Mn216 2.094 . S
O242 C220 1.240 . S
O243 Mn217 2.117 . S
O243 C220 1.264 . S
C244 C237 1.403 . S
C244 C245 1.399 . S
C244 H250 0.929 . S
C245 C225 1.449 . S
C245 C244 1.399 . S
C245 H251 0.930 . S
H246 C226 0.931 . S
H247 C227 0.930 . S
H248 C235 0.931 . S
H249 C236 0.929 . S
H250 C244 0.929 . S
H251 C245 0.930 . S
Mn252 O257 2.095 . S
Mn252 O267 2.162 1_565 S
Mn252 O268 2.297 1_565 S
Mn252 O276 2.385 . S
Mn252 O277 2.209 . S
Mn252 O278 2.094 . S
Mn253 O258 2.121 . S
Mn253 N260 2.257 . S
Mn253 N269 2.282 . S
Mn253 O277 2.215 . S
Mn253 O279 2.117 . S
C254 O276 1.234 . S
C254 O277 1.283 . S
C255 O267 1.281 . S
C255 O268 1.236 . S
C256 O278 1.240 . S
C256 O279 1.264 . S
O257 Mn252 2.095 . S
O257 C266 1.250 . S
O258 Mn253 2.121 . S
O258 C266 1.258 . S
C259 N260 1.326 . S
C259 C263 1.460 . S
C259 H265 0.929 . S
N260 Mn253 2.257 . S
N260 C259 1.326 . S
N260 C264 1.362 . S
C261 C262 1.258 . S
C261 C264 1.431 . S
C261 C281 1.449 . S
C262 C261 1.258 . S
C262 C263 1.477 . S
C262 H282 0.931 . S
C263 C259 1.460 . S
C263 C262 1.477 . S
C263 H283 0.930 . S
C264 N260 1.362 . S
C264 C261 1.431 . S
C264 C274 1.476 . S
H265 C259 0.929 . S
C266 O257 1.250 . S
C266 O258 1.258 . S
O267 Mn252 2.162 1_545 S
O267 C255 1.281 . S
O268 Mn252 2.297 1_545 S
O268 C255 1.236 . S
N269 Mn253 2.282 . S
N269 C270 1.328 . S
N269 C274 1.318 . S
C270 N269 1.328 . S
C270 C271 1.457 . S
C270 H275 0.929 . S
C271 C270 1.457 . S
C271 C272 1.291 . S
C271 H284 0.931 . S
C272 C271 1.291 . S
C272 C273 1.373 . S
C272 H285 0.929 . S
C273 C272 1.373 . S
C273 C274 1.396 . S
C273 C280 1.403 . S
C274 C264 1.476 . S
C274 N269 1.318 . S
C274 C273 1.396 . S
H275 C270 0.929 . S
O276 Mn252 2.385 . S
O276 C254 1.234 . S
O277 Mn252 2.209 . S
O277 Mn253 2.215 . S
O277 C254 1.283 . S
O278 Mn252 2.094 . S
O278 C256 1.240 . S
O279 Mn253 2.117 . S
O279 C256 1.264 . S
C280 C273 1.403 . S
C280 C281 1.399 . S
C280 H286 0.929 . S
C281 C261 1.449 . S
C281 C280 1.399 . S
C281 H287 0.930 . S
H282 C262 0.931 . S
H283 C263 0.930 . S
H284 C271 0.931 . S
H285 C272 0.929 . S
H286 C280 0.929 . S
H287 C281 0.930 . S
Mn288 O293 2.095 . S
Mn288 O303 2.162 1_455 S
Mn288 O304 2.297 1_455 S
Mn288 O312 2.385 . S
Mn288 O313 2.209 . S
Mn288 O314 2.094 . S
Mn289 O294 2.121 . S
Mn289 N296 2.257 . S
Mn289 N305 2.282 . S
Mn289 O313 2.215 . S
Mn289 O315 2.117 . S
C290 O312 1.234 . S
C290 O313 1.283 . S
C291 O303 1.281 . S
C291 O304 1.236 . S
C292 O314 1.240 . S
C292 O315 1.264 . S
O293 Mn288 2.095 . S
O293 C302 1.250 . S
O294 Mn289 2.121 . S
O294 C302 1.258 . S
C295 N296 1.326 . S
C295 C299 1.460 . S
C295 H301 0.929 . S
N296 Mn289 2.257 . S
N296 C295 1.326 . S
N296 C300 1.362 . S
C297 C298 1.258 . S
C297 C300 1.431 . S
C297 C317 1.449 . S
C298 C297 1.258 . S
C298 C299 1.477 . S
C298 H318 0.931 . S
C299 C295 1.460 . S
C299 C298 1.477 . S
C299 H319 0.930 . S
C300 N296 1.362 . S
C300 C297 1.431 . S
C300 C310 1.476 . S
H301 C295 0.929 . S
C302 O293 1.250 . S
C302 O294 1.258 . S
O303 Mn288 2.162 1_655 S
O303 C291 1.281 . S
O304 Mn288 2.297 1_655 S
O304 C291 1.236 . S
N305 Mn289 2.282 . S
N305 C306 1.328 . S
N305 C310 1.318 . S
C306 N305 1.328 . S
C306 C307 1.457 . S
C306 H311 0.929 . S
C307 C306 1.457 . S
C307 C308 1.291 . S
C307 H320 0.931 . S
C308 C307 1.291 . S
C308 C309 1.373 . S
C308 H321 0.929 . S
C309 C308 1.373 . S
C309 C310 1.396 . S
C309 C316 1.403 . S
C310 C300 1.476 . S
C310 N305 1.318 . S
C310 C309 1.396 . S
H311 C306 0.929 . S
O312 Mn288 2.385 . S
O312 C290 1.234 . S
O313 Mn288 2.209 . S
O313 Mn289 2.215 . S
O313 C290 1.283 . S
O314 Mn288 2.094 . S
O314 C292 1.240 . S
O315 Mn289 2.117 . S
O315 C292 1.264 . S
C316 C309 1.403 . S
C316 C317 1.399 . S
C316 H322 0.929 . S
C317 C297 1.449 . S
C317 C316 1.399 . S
C317 H323 0.930 . S
H318 C298 0.931 . S
H319 C299 0.930 . S
H320 C307 0.931 . S
H321 C308 0.929 . S
H322 C316 0.929 . S
H323 C317 0.930 . S
Mn324 O329 2.105 . S
Mn324 O339 2.162 . S
Mn324 O340 2.297 . S
Mn324 O348 2.385 . S
Mn324 O349 2.209 . S
Mn324 O350 2.094 . S
Mn325 O330 2.121 1_565 S
Mn325 N332 2.257 . S
Mn325 N341 2.282 . S
Mn325 O349 2.215 . S
Mn325 O351 2.117 . S
C326 O348 1.234 . S
C326 O349 1.283 . S
C327 O339 1.281 . S
C327 O340 1.236 . S
C328 O350 1.240 . S
C328 O351 1.264 . S
O329 Mn324 2.105 . S
O329 C338 1.246 1_565 S
O330 Mn325 2.121 1_545 S
O330 C338 1.258 . S
C331 N332 1.326 1_545 S
C331 C335 1.460 . S
C331 H337 0.929 . S
N332 Mn325 2.257 . S
N332 C331 1.326 1_565 S
N332 C336 1.362 . S
C333 C334 1.258 1_565 S
C333 C336 1.431 . S
C333 C353 1.449 . S
C334 C333 1.258 1_545 S
C334 C335 1.477 . S
C334 H354 0.931 . S
C335 C331 1.460 . S
C335 C334 1.477 . S
C335 H355 0.930 . S
C336 N332 1.362 . S
C336 C333 1.431 . S
C336 C346 1.476 . S
H337 C331 0.929 . S
C338 O329 1.246 1_545 S
C338 O330 1.258 . S
O339 Mn324 2.162 . S
O339 C327 1.281 . S
O340 Mn324 2.297 . S
O340 C327 1.236 . S
N341 Mn325 2.282 . S
N341 C342 1.328 . S
N341 C346 1.318 . S
C342 N341 1.328 . S
C342 C343 1.457 . S
C342 H347 0.929 . S
C343 C342 1.457 . S
C343 C344 1.291 . S
C343 H356 0.931 . S
C344 C343 1.291 . S
C344 C345 1.373 . S
C344 H357 0.929 . S
C345 C344 1.373 . S
C345 C346 1.396 . S
C345 C352 1.403 . S
C346 C336 1.476 . S
C346 N341 1.318 . S
C346 C345 1.396 . S
H347 C342 0.929 . S
O348 Mn324 2.385 . S
O348 C326 1.234 . S
O349 Mn324 2.209 . S
O349 Mn325 2.215 . S
O349 C326 1.283 . S
O350 Mn324 2.094 . S
O350 C328 1.240 . S
O351 Mn325 2.117 . S
O351 C328 1.264 . S
C352 C345 1.403 . S
C352 C353 1.399 . S
C352 H358 0.929 . S
C353 C333 1.449 . S
C353 C352 1.399 . S
C353 H359 0.930 . S
H354 C334 0.931 . S
H355 C335 0.930 . S
H356 C343 0.931 . S
H357 C344 0.929 . S
H358 C352 0.929 . S
H359 C353 0.930 . S
Mn360 O365 2.095 . S
Mn360 O375 2.162 1_455 S
Mn360 O376 2.297 1_455 S
Mn360 O384 2.385 . S
Mn360 O385 2.209 . S
Mn360 O386 2.094 . S
Mn361 O366 2.121 . S
Mn361 N368 2.257 . S
Mn361 N377 2.282 . S
Mn361 O385 2.215 . S
Mn361 O387 2.117 . S
C362 O384 1.234 . S
C362 O385 1.283 . S
C363 O375 1.281 . S
C363 O376 1.236 . S
C364 O386 1.240 . S
C364 O387 1.264 . S
O365 Mn360 2.095 . S
O365 C374 1.250 . S
O366 Mn361 2.121 . S
O366 C374 1.258 . S
C367 N368 1.326 . S
C367 C371 1.460 . S
C367 H373 0.929 . S
N368 Mn361 2.257 . S
N368 C367 1.326 . S
N368 C372 1.362 . S
C369 C370 1.258 . S
C369 C372 1.431 . S
C369 C389 1.449 . S
C370 C369 1.258 . S
C370 C371 1.477 . S
C370 H390 0.931 . S
C371 C367 1.460 . S
C371 C370 1.477 . S
C371 H391 0.930 . S
C372 N368 1.362 . S
C372 C369 1.431 . S
C372 C382 1.476 . S
H373 C367 0.929 . S
C374 O365 1.250 . S
C374 O366 1.258 . S
O375 Mn360 2.162 1_655 S
O375 C363 1.281 . S
O376 Mn360 2.297 1_655 S
O376 C363 1.236 . S
N377 Mn361 2.282 . S
N377 C378 1.328 . S
N377 C382 1.318 . S
C378 N377 1.328 . S
C378 C379 1.457 . S
C378 H383 0.929 . S
C379 C378 1.457 . S
C379 C380 1.291 . S
C379 H392 0.931 . S
C380 C379 1.291 . S
C380 C381 1.373 . S
C380 H393 0.929 . S
C381 C380 1.373 . S
C381 C382 1.396 . S
C381 C388 1.403 . S
C382 C372 1.476 . S
C382 N377 1.318 . S
C382 C381 1.396 . S
H383 C378 0.929 . S
O384 Mn360 2.385 . S
O384 C362 1.234 . S
O385 Mn360 2.209 . S
O385 Mn361 2.215 . S
O385 C362 1.283 . S
O386 Mn360 2.094 . S
O386 C364 1.240 . S
O387 Mn361 2.117 . S
O387 C364 1.264 . S
C388 C381 1.403 . S
C388 C389 1.399 . S
C388 H394 0.929 . S
C389 C369 1.449 . S
C389 C388 1.399 . S
C389 H395 0.930 . S
H390 C370 0.931 . S
H391 C371 0.930 . S
H392 C379 0.931 . S
H393 C380 0.929 . S
H394 C388 0.929 . S
H395 C389 0.930 . S
Mn396 O401 2.095 . S
Mn396 O411 2.162 . S
Mn396 O412 2.297 . S
Mn396 O420 2.385 . S
Mn396 O421 2.209 . S
Mn396 O422 2.094 . S
Mn397 O402 2.121 . S
Mn397 N404 2.257 . S
Mn397 N413 2.282 . S
Mn397 O421 2.215 . S
Mn397 O423 2.117 . S
C398 O420 1.234 . S
C398 O421 1.283 . S
C399 O411 1.281 . S
C399 O412 1.236 . S
C400 O422 1.240 . S
C400 O423 1.264 . S
O401 Mn396 2.095 . S
O401 C410 1.250 . S
O402 Mn397 2.121 . S
O402 C410 1.258 . S
C403 N404 1.326 . S
C403 C407 1.460 . S
C403 H409 0.929 . S
N404 Mn397 2.257 . S
N404 C403 1.326 . S
N404 C408 1.362 . S
C405 C406 1.258 . S
C405 C408 1.431 . S
C405 C425 1.449 . S
C406 C405 1.258 . S
C406 C407 1.477 . S
C406 H426 0.931 . S
C407 C403 1.460 . S
C407 C406 1.477 . S
C407 H427 0.930 . S
C408 N404 1.362 . S
C408 C405 1.431 . S
C408 C418 1.476 . S
H409 C403 0.929 . S
C410 O401 1.250 . S
C410 O402 1.258 . S
O411 Mn396 2.162 . S
O411 C399 1.281 . S
O412 Mn396 2.297 . S
O412 C399 1.236 . S
N413 Mn397 2.282 . S
N413 C414 1.328 . S
N413 C418 1.318 . S
C414 N413 1.328 . S
C414 C415 1.457 . S
C414 H419 0.929 . S
C415 C414 1.457 . S
C415 C416 1.291 . S
C415 H428 0.931 . S
C416 C415 1.291 . S
C416 C417 1.373 . S
C416 H429 0.929 . S
C417 C416 1.373 . S
C417 C418 1.396 . S
C417 C424 1.403 . S
C418 C408 1.476 . S
C418 N413 1.318 . S
C418 C417 1.396 . S
H419 C414 0.929 . S
O420 Mn396 2.385 . S
O420 C398 1.234 . S
O421 Mn396 2.209 . S
O421 Mn397 2.215 . S
O421 C398 1.283 . S
O422 Mn396 2.094 . S
O422 C400 1.240 . S
O423 Mn397 2.117 . S
O423 C400 1.264 . S
C424 C417 1.403 . S
C424 C425 1.399 . S
C424 H430 0.929 . S
C425 C405 1.449 . S
C425 C424 1.399 . S
C425 H431 0.930 . S
H426 C406 0.931 . S
H427 C407 0.930 . S
H428 C415 0.931 . S
H429 C416 0.929 . S
H430 C424 0.929 . S
H431 C425 0.930 . S
Mn432 O437 2.095 . S
Mn432 O447 2.162 1_545 S
Mn432 O448 2.297 1_545 S
Mn432 O456 2.385 . S
Mn432 O457 2.209 . S
Mn432 O458 2.094 . S
Mn433 O438 2.121 . S
Mn433 N440 2.257 . S
Mn433 N449 2.282 . S
Mn433 O457 2.215 . S
Mn433 O459 2.117 . S
C434 O456 1.234 . S
C434 O457 1.283 . S
C435 O447 1.281 . S
C435 O448 1.236 . S
C436 O458 1.240 . S
C436 O459 1.264 . S
O437 Mn432 2.095 . S
O437 C446 1.250 . S
O438 Mn433 2.121 . S
O438 C446 1.258 . S
C439 N440 1.326 . S
C439 C443 1.460 . S
C439 H445 0.929 . S
N440 Mn433 2.257 . S
N440 C439 1.326 . S
N440 C444 1.362 . S
C441 C442 1.258 . S
C441 C444 1.431 . S
C441 C461 1.449 . S
C442 C441 1.258 . S
C442 C443 1.477 . S
C442 H462 0.931 . S
C443 C439 1.460 . S
C443 C442 1.477 . S
C443 H463 0.930 . S
C444 N440 1.362 . S
C444 C441 1.431 . S
C444 C454 1.476 . S
H445 C439 0.929 . S
C446 O437 1.250 . S
C446 O438 1.258 . S
O447 Mn432 2.162 1_565 S
O447 C435 1.281 . S
O448 Mn432 2.297 1_565 S
O448 C435 1.236 . S
N449 Mn433 2.282 . S
N449 C450 1.328 . S
N449 C454 1.318 . S
C450 N449 1.328 . S
C450 C451 1.457 . S
C450 H455 0.929 . S
C451 C450 1.457 . S
C451 C452 1.291 . S
C451 H464 0.931 . S
C452 C451 1.291 . S
C452 C453 1.373 . S
C452 H465 0.929 . S
C453 C452 1.373 . S
C453 C454 1.396 . S
C453 C460 1.403 . S
C454 C444 1.476 . S
C454 N449 1.318 . S
C454 C453 1.396 . S
H455 C450 0.929 . S
O456 Mn432 2.385 . S
O456 C434 1.234 . S
O457 Mn432 2.209 . S
O457 Mn433 2.215 . S
O457 C434 1.283 . S
O458 Mn432 2.094 . S
O458 C436 1.240 . S
O459 Mn433 2.117 . S
O459 C436 1.264 . S
C460 C453 1.403 . S
C460 C461 1.399 . S
C460 H466 0.929 . S
C461 C441 1.449 . S
C461 C460 1.399 . S
C461 H467 0.930 . S
H462 C442 0.931 . S
H463 C443 0.930 . S
H464 C451 0.931 . S
H465 C452 0.929 . S
H466 C460 0.929 . S
H467 C461 0.930 . S
Mn468 O473 2.095 . S
Mn468 O483 2.162 . S
Mn468 O484 2.297 . S
Mn468 O492 2.385 . S
Mn468 O493 2.209 . S
Mn468 O494 2.094 . S
Mn469 O474 2.121 1_655 S
Mn469 N476 2.257 . S
Mn469 N485 2.282 . S
Mn469 O493 2.215 . S
Mn469 O495 2.117 . S
C470 O492 1.234 . S
C470 O493 1.283 . S
C471 O483 1.281 . S
C471 O484 1.236 . S
C472 O494 1.240 . S
C472 O495 1.264 . S
O473 Mn468 2.095 . S
O473 C482 1.250 1_655 S
O474 Mn469 2.121 1_455 S
O474 C482 1.258 . S
C475 N476 1.326 1_455 S
C475 C479 1.460 . S
C475 H481 0.929 . S
N476 Mn469 2.257 . S
N476 C475 1.326 1_655 S
N476 C480 1.362 . S
C477 C478 1.190 1_655 S
C477 C480 1.431 . S
C477 C497 1.449 . S
C478 C477 1.190 1_455 S
C478 C479 1.501 . S
C478 H498 0.977 . S
C479 C475 1.460 . S
C479 C478 1.501 . S
C479 H499 0.930 . S
C480 N476 1.362 . S
C480 C477 1.431 . S
C480 C490 1.476 . S
H481 C475 0.929 . S
C482 O473 1.250 1_455 S
C482 O474 1.258 . S
O483 Mn468 2.162 . S
O483 C471 1.281 . S
O484 Mn468 2.297 . S
O484 C471 1.236 . S
N485 Mn469 2.282 . S
N485 C486 1.328 . S
N485 C490 1.318 . S
C486 N485 1.328 . S
C486 C487 1.457 . S
C486 H491 0.929 . S
C487 C486 1.457 . S
C487 C488 1.291 . S
C487 H500 0.931 . S
C488 C487 1.291 . S
C488 C489 1.373 . S
C488 H501 0.929 . S
C489 C488 1.373 . S
C489 C490 1.396 . S
C489 C496 1.403 . S
C490 C480 1.476 . S
C490 N485 1.318 . S
C490 C489 1.396 . S
H491 C486 0.929 . S
O492 Mn468 2.385 . S
O492 C470 1.234 . S
O493 Mn468 2.209 . S
O493 Mn469 2.215 . S
O493 C470 1.283 . S
O494 Mn468 2.094 . S
O494 C472 1.240 . S
O495 Mn469 2.117 . S
O495 C472 1.264 . S
C496 C489 1.403 . S
C496 C497 1.399 . S
C496 H502 0.929 . S
C497 C477 1.449 . S
C497 C496 1.399 . S
C497 H503 0.930 . S
H498 C478 0.977 . S
H499 C479 0.930 . S
H500 C487 0.931 . S
H501 C488 0.929 . S
H502 C496 0.929 . S
H503 C497 0.930 . S
Mn504 O509 2.095 . S
Mn504 O519 2.162 . S
Mn504 O520 2.297 . S
Mn504 O528 2.385 . S
Mn504 O529 2.209 . S
Mn504 O530 2.094 . S
Mn505 O510 2.121 . S
Mn505 N512 2.257 . S
Mn505 N521 2.282 . S
Mn505 O529 2.215 . S
Mn505 O531 2.117 . S
C506 O528 1.234 . S
C506 O529 1.283 . S
C507 O519 1.281 . S
C507 O520 1.236 . S
C508 O530 1.240 . S
C508 O531 1.264 . S
O509 Mn504 2.095 . S
O509 C518 1.250 . S
O510 Mn505 2.121 . S
O510 C518 1.258 . S
C511 N512 1.326 . S
C511 C515 1.460 . S
C511 H517 0.929 . S
N512 Mn505 2.257 . S
N512 C511 1.326 . S
N512 C516 1.362 . S
C513 C514 1.258 . S
C513 C516 1.431 . S
C513 C533 1.449 . S
C514 C513 1.258 . S
C514 C515 1.477 . S
C514 H534 0.931 . S
C515 C511 1.460 . S
C515 C514 1.477 . S
C515 H535 0.930 . S
C516 N512 1.362 . S
C516 C513 1.431 . S
C516 C526 1.476 . S
H517 C511 0.929 . S
C518 O509 1.250 . S
C518 O510 1.258 . S
O519 Mn504 2.162 . S
O519 C507 1.281 . S
O520 Mn504 2.297 . S
O520 C507 1.236 . S
N521 Mn505 2.282 . S
N521 C522 1.328 . S
N521 C526 1.318 . S
C522 N521 1.328 . S
C522 C523 1.457 . S
C522 H527 0.929 . S
C523 C522 1.457 . S
C523 C524 1.291 . S
C523 H536 0.931 . S
C524 C523 1.291 . S
C524 C525 1.373 . S
C524 H537 0.929 . S
C525 C524 1.373 . S
C525 C526 1.396 . S
C525 C532 1.403 . S
C526 C516 1.476 . S
C526 N521 1.318 . S
C526 C525 1.396 . S
H527 C522 0.929 . S
O528 Mn504 2.385 . S
O528 C506 1.234 . S
O529 Mn504 2.209 . S
O529 Mn505 2.215 . S
O529 C506 1.283 . S
O530 Mn504 2.094 . S
O530 C508 1.240 . S
O531 Mn505 2.117 . S
O531 C508 1.264 . S
C532 C525 1.403 . S
C532 C533 1.399 . S
C532 H538 0.929 . S
C533 C513 1.449 . S
C533 C532 1.399 . S
C533 H539 0.930 . S
H534 C514 0.931 . S
H535 C515 0.930 . S
H536 C523 0.931 . S
H537 C524 0.929 . S
H538 C532 0.929 . S
H539 C533 0.930 . S
Mn540 O545 2.095 . S
Mn540 O555 2.162 . S
Mn540 O556 2.297 . S
Mn540 O564 2.385 . S
Mn540 O565 2.209 . S
Mn540 O566 2.094 . S
Mn541 O546 2.121 . S
Mn541 N548 2.257 . S
Mn541 N557 2.282 . S
Mn541 O565 2.215 . S
Mn541 O567 2.117 . S
C542 O564 1.234 . S
C542 O565 1.283 . S
C543 O555 1.281 . S
C543 O556 1.236 . S
C544 O566 1.240 . S
C544 O567 1.264 . S
O545 Mn540 2.095 . S
O545 C554 1.250 . S
O546 Mn541 2.121 . S
O546 C554 1.258 . S
C547 N548 1.326 . S
C547 C551 1.460 . S
C547 H553 0.929 . S
N548 Mn541 2.257 . S
N548 C547 1.326 . S
N548 C552 1.362 . S
C549 C550 1.258 . S
C549 C552 1.431 . S
C549 C569 1.449 . S
C550 C549 1.258 . S
C550 C551 1.477 . S
C550 H570 0.931 . S
C551 C547 1.460 . S
C551 C550 1.477 . S
C551 H571 0.930 . S
C552 N548 1.362 . S
C552 C549 1.431 . S
C552 C562 1.476 . S
H553 C547 0.929 . S
C554 O545 1.250 . S
C554 O546 1.258 . S
O555 Mn540 2.162 . S
O555 C543 1.281 . S
O556 Mn540 2.297 . S
O556 C543 1.236 . S
N557 Mn541 2.282 . S
N557 C558 1.328 . S
N557 C562 1.318 . S
C558 N557 1.328 . S
C558 C559 1.457 . S
C558 H563 0.929 . S
C559 C558 1.457 . S
C559 C560 1.291 . S
C559 H572 0.931 . S
C560 C559 1.291 . S
C560 C561 1.373 . S
C560 H573 0.929 . S
C561 C560 1.373 . S
C561 C562 1.396 . S
C561 C568 1.403 . S
C562 C552 1.476 . S
C562 N557 1.318 . S
C562 C561 1.396 . S
H563 C558 0.929 . S
O564 Mn540 2.385 . S
O564 C542 1.234 . S
O565 Mn540 2.209 . S
O565 Mn541 2.215 . S
O565 C542 1.283 . S
O566 Mn540 2.094 . S
O566 C544 1.240 . S
O567 Mn541 2.117 . S
O567 C544 1.264 . S
C568 C561 1.403 . S
C568 C569 1.399 . S
C568 H574 0.929 . S
C569 C549 1.449 . S
C569 C568 1.399 . S
C569 H575 0.930 . S
H570 C550 0.931 . S
H571 C551 0.930 . S
H572 C559 0.931 . S
H573 C560 0.929 . S
H574 C568 0.929 . S
H575 C569 0.930 . S
Mn576 O581 2.040 1_545 S
Mn576 O591 2.162 . S
Mn576 O592 2.297 . S
Mn576 O600 2.385 . S
Mn576 O601 2.209 . S
Mn576 O602 2.094 . S
Mn577 O582 2.121 1_545 S
Mn577 N584 2.257 . S
Mn577 N593 2.282 . S
Mn577 O601 2.215 . S
Mn577 O603 2.117 . S
C578 O600 1.234 . S
C578 O601 1.283 . S
C579 O591 1.281 . S
C579 O592 1.236 . S
C580 O602 1.240 . S
C580 O603 1.264 . S
O581 Mn576 2.040 1_565 S
O581 C590 1.318 . S
O582 Mn577 2.121 1_565 S
O582 C590 1.258 . S
C583 N584 1.326 1_565 S
C583 C587 1.460 . S
C583 H589 0.929 . S
N584 Mn577 2.257 . S
N584 C583 1.326 1_545 S
N584 C588 1.362 . S
C585 C586 1.258 1_545 S
C585 C588 1.431 . S
C585 C605 1.449 . S
C586 C585 1.258 1_565 S
C586 C587 1.477 . S
C586 H606 0.931 . S
C587 C583 1.460 . S
C587 C586 1.477 . S
C587 H607 0.930 . S
C588 N584 1.362 . S
C588 C585 1.431 . S
C588 C598 1.476 . S
H589 C583 0.929 . S
C590 O581 1.318 . S
C590 O582 1.258 . S
O591 Mn576 2.162 . S
O591 C579 1.281 . S
O592 Mn576 2.297 . S
O592 C579 1.236 . S
N593 Mn577 2.282 . S
N593 C594 1.328 . S
N593 C598 1.318 . S
C594 N593 1.328 . S
C594 C595 1.457 . S
C594 H599 0.929 . S
C595 C594 1.457 . S
C595 C596 1.291 . S
C595 H608 0.931 . S
C596 C595 1.291 . S
C596 C597 1.373 . S
C596 H609 0.929 . S
C597 C596 1.373 . S
C597 C598 1.396 . S
C597 C604 1.403 . S
C598 C588 1.476 . S
C598 N593 1.318 . S
C598 C597 1.396 . S
H599 C594 0.929 . S
O600 Mn576 2.385 . S
O600 C578 1.234 . S
O601 Mn576 2.209 . S
O601 Mn577 2.215 . S
O601 C578 1.283 . S
O602 Mn576 2.094 . S
O602 C580 1.240 . S
O603 Mn577 2.117 . S
O603 C580 1.264 . S
C604 C597 1.403 . S
C604 C605 1.399 . S
C604 H610 0.929 . S
C605 C585 1.449 . S
C605 C604 1.399 . S
C605 H611 0.930 . S
H606 C586 0.931 . S
H607 C587 0.930 . S
H608 C595 0.931 . S
H609 C596 0.929 . S
H610 C604 0.929 . S
H611 C605 0.930 . S
Mn612 O617 2.095 . S
Mn612 O627 2.162 1_655 S
Mn612 O628 2.297 1_655 S
Mn612 O636 2.385 . S
Mn612 O637 2.209 . S
Mn612 O638 2.094 . S
Mn613 O618 2.121 . S
Mn613 N620 2.257 . S
Mn613 N629 2.282 . S
Mn613 O637 2.215 . S
Mn613 O639 2.117 . S
C614 O636 1.234 . S
C614 O637 1.283 . S
C615 O627 1.281 . S
C615 O628 1.236 . S
C616 O638 1.240 . S
C616 O639 1.264 . S
O617 Mn612 2.095 . S
O617 C626 1.250 . S
O618 Mn613 2.121 . S
O618 C626 1.258 . S
C619 N620 1.326 . S
C619 C623 1.460 . S
C619 H625 0.929 . S
N620 Mn613 2.257 . S
N620 C619 1.326 . S
N620 C624 1.362 . S
C621 C622 1.258 . S
C621 C624 1.431 . S
C621 C641 1.449 . S
C622 C621 1.258 . S
C622 C623 1.477 . S
C622 H642 0.931 . S
C623 C619 1.460 . S
C623 C622 1.477 . S
C623 H643 0.930 . S
C624 N620 1.362 . S
C624 C621 1.431 . S
C624 C634 1.476 . S
H625 C619 0.929 . S
C626 O617 1.250 . S
C626 O618 1.258 . S
O627 Mn612 2.162 1_455 S
O627 C615 1.281 . S
O628 Mn612 2.297 1_455 S
O628 C615 1.236 . S
N629 Mn613 2.282 . S
N629 C630 1.328 . S
N629 C634 1.318 . S
C630 N629 1.328 . S
C630 C631 1.457 . S
C630 H635 0.929 . S
C631 C630 1.457 . S
C631 C632 1.291 . S
C631 H644 0.931 . S
C632 C631 1.291 . S
C632 C633 1.373 . S
C632 H645 0.929 . S
C633 C632 1.373 . S
C633 C634 1.396 . S
C633 C640 1.403 . S
C634 C624 1.476 . S
C634 N629 1.318 . S
C634 C633 1.396 . S
H635 C630 0.929 . S
O636 Mn612 2.385 . S
O636 C614 1.234 . S
O637 Mn612 2.209 . S
O637 Mn613 2.215 . S
O637 C614 1.283 . S
O638 Mn612 2.094 . S
O638 C616 1.240 . S
O639 Mn613 2.117 . S
O639 C616 1.264 . S
C640 C633 1.403 . S
C640 C641 1.399 . S
C640 H646 0.929 . S
C641 C621 1.449 . S
C641 C640 1.399 . S
C641 H647 0.930 . S
H642 C622 0.931 . S
H643 C623 0.930 . S
H644 C631 0.931 . S
H645 C632 0.929 . S
H646 C640 0.929 . S
H647 C641 0.930 . S
C648 C649 1.384 . S
C648 C650 1.384 . S
C648 H676 0.931 . S
C649 C648 1.384 . S
C649 C652 1.382 . S
C650 C648 1.384 . S
C650 C651 1.381 . S
C650 H677 0.930 . S
C651 C650 1.381 . S
C651 C653 1.381 . S
C651 C654 1.487 . S
C652 C649 1.382 . S
C652 C653 1.387 . S
C652 H678 0.930 . S
C653 C651 1.381 . S
C653 C652 1.387 . S
C653 H679 0.931 . S
C654 C651 1.487 . S
C654 C661 1.399 . S
C654 N692 1.343 . S
C655 C656 1.384 . S
C655 C657 1.384 . S
C655 H680 0.931 . S
C656 C655 1.384 . S
C656 C659 1.382 . S
C657 C655 1.384 . S
C657 C658 1.381 . S
C657 H681 0.930 . S
C658 C657 1.381 . S
C658 C660 1.381 . S
C658 C661 1.487 . S
C659 C656 1.382 . S
C659 C660 1.387 . S
C659 H682 0.930 . S
C660 C658 1.381 . S
C660 C659 1.387 . S
C660 H683 0.931 . S
C661 C654 1.399 . S
C661 C658 1.487 . S
C661 N693 1.343 . S
C662 C663 1.384 . S
C662 C664 1.384 . S
C662 H684 0.931 . S
C663 C662 1.384 . S
C663 C666 1.382 . S
C664 C662 1.384 . S
C664 C665 1.381 . S
C664 H685 0.930 . S
C665 C664 1.381 . S
C665 C667 1.381 . S
C665 C668 1.487 . S
C666 C663 1.382 . S
C666 C667 1.387 . S
C666 H686 0.930 . S
C667 C665 1.381 . S
C667 C666 1.387 . S
C667 H687 0.931 . S
C668 C665 1.487 . S
C668 C675 1.399 . S
C668 N693 1.343 . S
C669 C670 1.384 . S
C669 C671 1.384 . S
C669 H688 0.931 . S
C670 C669 1.384 . S
C670 C673 1.382 . S
C671 C669 1.384 . S
C671 C672 1.381 . S
C671 H689 0.930 . S
C672 C671 1.381 . S
C672 C674 1.381 . S
C672 C675 1.487 . S
C673 C670 1.382 . S
C673 C674 1.387 . S
C673 H690 0.930 . S
C674 C672 1.381 . S
C674 C673 1.387 . S
C674 H691 0.931 . S
C675 C668 1.399 . S
C675 C672 1.487 . S
C675 N692 1.343 . S
H676 C648 0.931 . S
H677 C650 0.930 . S
H678 C652 0.930 . S
H679 C653 0.931 . S
H680 C655 0.931 . S
H681 C657 0.930 . S
H682 C659 0.930 . S
H683 C660 0.931 . S
H684 C662 0.931 . S
H685 C664 0.930 . S
H686 C666 0.930 . S
H687 C667 0.931 . S
H688 C669 0.931 . S
H689 C671 0.930 . S
H690 C673 0.930 . S
H691 C674 0.931 . S
N692 C654 1.343 . S
N692 C675 1.343 . S
N693 C661 1.343 . S
N693 C668 1.343 . S
C694 C695 1.384 . S
C694 C696 1.384 . S
C694 H722 0.931 . S
C695 C694 1.384 . S
C695 C698 1.382 . S
C696 C694 1.384 . S
C696 C697 1.381 . S
C696 H723 0.930 . S
C697 C696 1.381 . S
C697 C699 1.381 . S
C697 C700 1.487 . S
C698 C695 1.382 . S
C698 C699 1.387 . S
C698 H724 0.930 . S
C699 C697 1.381 . S
C699 C698 1.387 . S
C699 H725 0.931 . S
C700 C697 1.487 . S
C700 C707 1.399 . S
C700 N738 1.343 . S
C701 C702 1.384 . S
C701 C703 1.384 . S
C701 H726 0.931 . S
C702 C701 1.384 . S
C702 C705 1.382 . S
C703 C701 1.384 . S
C703 C704 1.381 . S
C703 H727 0.930 . S
C704 C703 1.381 . S
C704 C706 1.381 . S
C704 C707 1.487 . S
C705 C702 1.382 . S
C705 C706 1.387 . S
C705 H728 0.930 . S
C706 C704 1.381 . S
C706 C705 1.387 . S
C706 H729 0.931 . S
C707 C700 1.399 . S
C707 C704 1.487 . S
C707 N739 1.343 . S
C708 C709 1.384 . S
C708 C710 1.384 . S
C708 H730 0.931 . S
C709 C708 1.384 . S
C709 C712 1.382 . S
C710 C708 1.384 . S
C710 C711 1.381 . S
C710 H731 0.930 . S
C711 C710 1.381 . S
C711 C713 1.381 . S
C711 C714 1.487 . S
C712 C709 1.382 . S
C712 C713 1.387 . S
C712 H732 0.930 . S
C713 C711 1.381 . S
C713 C712 1.387 . S
C713 H733 0.931 . S
C714 C711 1.487 . S
C714 C721 1.399 . S
C714 N739 1.343 . S
C715 C716 1.384 . S
C715 C717 1.384 . S
C715 H734 0.931 . S
C716 C715 1.384 . S
C716 C719 1.382 . S
C717 C715 1.384 . S
C717 C718 1.381 . S
C717 H735 0.930 . S
C718 C717 1.381 . S
C718 C720 1.381 . S
C718 C721 1.487 . S
C719 C716 1.382 . S
C719 C720 1.387 . S
C719 H736 0.930 . S
C720 C718 1.381 . S
C720 C719 1.387 . S
C720 H737 0.931 . S
C721 C714 1.399 . S
C721 C718 1.487 . S
C721 N738 1.343 . S
H722 C694 0.931 . S
H723 C696 0.930 . S
H724 C698 0.930 . S
H725 C699 0.931 . S
H726 C701 0.931 . S
H727 C703 0.930 . S
H728 C705 0.930 . S
H729 C706 0.931 . S
H730 C708 0.931 . S
H731 C710 0.930 . S
H732 C712 0.930 . S
H733 C713 0.931 . S
H734 C715 0.931 . S
H735 C717 0.930 . S
H736 C719 0.930 . S
H737 C720 0.931 . S
N738 C700 1.343 . S
N738 C721 1.343 . S
N739 C707 1.343 . S
N739 C714 1.343 . S
C740 C741 1.384 . S
C740 C742 1.384 . S
C740 H768 0.931 . S
C741 C740 1.384 . S
C741 C744 1.382 . S
C742 C740 1.384 . S
C742 C743 1.381 . S
C742 H769 0.930 . S
C743 C742 1.381 . S
C743 C745 1.381 . S
C743 C746 1.487 . S
C744 C741 1.382 . S
C744 C745 1.387 . S
C744 H770 0.930 . S
C745 C743 1.381 . S
C745 C744 1.387 . S
C745 H771 0.931 . S
C746 C743 1.487 . S
C746 C753 1.399 . S
C746 N784 1.343 . S
C747 C748 1.384 . S
C747 C749 1.384 . S
C747 H772 0.931 . S
C748 C747 1.384 . S
C748 C751 1.382 . S
C749 C747 1.384 . S
C749 C750 1.381 . S
C749 H773 0.930 . S
C750 C749 1.381 . S
C750 C752 1.381 . S
C750 C753 1.487 . S
C751 C748 1.382 . S
C751 C752 1.387 . S
C751 H774 0.930 . S
C752 C750 1.381 . S
C752 C751 1.387 . S
C752 H775 0.931 . S
C753 C746 1.399 . S
C753 C750 1.487 . S
C753 N785 1.343 . S
C754 C755 1.384 . S
C754 C756 1.384 . S
C754 H776 0.931 . S
C755 C754 1.384 . S
C755 C758 1.382 . S
C756 C754 1.384 . S
C756 C757 1.381 . S
C756 H777 0.930 . S
C757 C756 1.381 . S
C757 C759 1.381 . S
C757 C760 1.487 . S
C758 C755 1.382 . S
C758 C759 1.387 . S
C758 H778 0.930 . S
C759 C757 1.381 . S
C759 C758 1.387 . S
C759 H779 0.931 . S
C760 C757 1.487 . S
C760 C767 1.399 . S
C760 N785 1.343 . S
C761 C762 1.384 . S
C761 C763 1.384 . S
C761 H780 0.931 . S
C762 C761 1.384 . S
C762 C765 1.382 . S
C763 C761 1.384 . S
C763 C764 1.381 . S
C763 H781 0.930 . S
C764 C763 1.381 . S
C764 C766 1.381 . S
C764 C767 1.487 . S
C765 C762 1.382 . S
C765 C766 1.387 . S
C765 H782 0.930 . S
C766 C764 1.381 . S
C766 C765 1.387 . S
C766 H783 0.931 . S
C767 C760 1.399 . S
C767 C764 1.487 . S
C767 N784 1.343 . S
H768 C740 0.931 . S
H769 C742 0.930 . S
H770 C744 0.930 . S
H771 C745 0.931 . S
H772 C747 0.931 . S
H773 C749 0.930 . S
H774 C751 0.930 . S
H775 C752 0.931 . S
H776 C754 0.931 . S
H777 C756 0.930 . S
H778 C758 0.930 . S
H779 C759 0.931 . S
H780 C761 0.931 . S
H781 C763 0.930 . S
H782 C765 0.930 . S
H783 C766 0.931 . S
N784 C746 1.343 . S
N784 C767 1.343 . S
N785 C753 1.343 . S
N785 C760 1.343 . S
C786 C787 1.384 . S
C786 C788 1.384 . S
C786 H814 0.931 . S
C787 C786 1.384 . S
C787 C790 1.382 . S
C788 C786 1.384 . S
C788 C789 1.381 . S
C788 H815 0.930 . S
C789 C788 1.381 . S
C789 C791 1.381 . S
C789 C792 1.487 . S
C790 C787 1.382 . S
C790 C791 1.387 . S
C790 H816 0.930 . S
C791 C789 1.381 . S
C791 C790 1.387 . S
C791 H817 0.931 . S
C792 C789 1.487 . S
C792 C799 1.399 . S
C792 N830 1.343 . S
C793 C794 1.384 . S
C793 C795 1.384 . S
C793 H818 0.931 . S
C794 C793 1.384 . S
C794 C797 1.382 . S
C795 C793 1.384 . S
C795 C796 1.381 . S
C795 H819 0.930 . S
C796 C795 1.381 . S
C796 C798 1.381 . S
C796 C799 1.487 . S
C797 C794 1.382 . S
C797 C798 1.387 . S
C797 H820 0.930 . S
C798 C796 1.381 . S
C798 C797 1.387 . S
C798 H821 0.931 . S
C799 C792 1.399 . S
C799 C796 1.487 . S
C799 N831 1.343 . S
C800 C801 1.384 . S
C800 C802 1.384 . S
C800 H822 0.931 . S
C801 C800 1.384 . S
C801 C804 1.382 . S
C802 C800 1.384 . S
C802 C803 1.381 . S
C802 H823 0.930 . S
C803 C802 1.381 . S
C803 C805 1.381 . S
C803 C806 1.487 . S
C804 C801 1.382 . S
C804 C805 1.387 . S
C804 H824 0.930 . S
C805 C803 1.381 . S
C805 C804 1.387 . S
C805 H825 0.931 . S
C806 C803 1.487 . S
C806 C813 1.399 . S
C806 N831 1.343 . S
C807 C808 1.384 . S
C807 C809 1.384 . S
C807 H826 0.931 . S
C808 C807 1.384 . S
C808 C811 1.382 . S
C809 C807 1.384 . S
C809 C810 1.381 . S
C809 H827 0.930 . S
C810 C809 1.381 . S
C810 C812 1.381 . S
C810 C813 1.487 . S
C811 C808 1.382 . S
C811 C812 1.387 . S
C811 H828 0.930 . S
C812 C810 1.381 . S
C812 C811 1.387 . S
C812 H829 0.931 . S
C813 C806 1.399 . S
C813 C810 1.487 . S
C813 N830 1.343 . S
H814 C786 0.931 . S
H815 C788 0.930 . S
H816 C790 0.930 . S
H817 C791 0.931 . S
H818 C793 0.931 . S
H819 C795 0.930 . S
H820 C797 0.930 . S
H821 C798 0.931 . S
H822 C800 0.931 . S
H823 C802 0.930 . S
H824 C804 0.930 . S
H825 C805 0.931 . S
H826 C807 0.931 . S
H827 C809 0.930 . S
H828 C811 0.930 . S
H829 C812 0.931 . S
N830 C792 1.343 . S
N830 C813 1.343 . S
N831 C799 1.343 . S
N831 C806 1.343 . S
C832 C833 1.384 . S
C832 C834 1.384 . S
C832 H860 0.931 . S
C833 C832 1.384 . S
C833 C836 1.382 . S
C834 C832 1.384 . S
C834 C835 1.381 . S
C834 H861 0.930 . S
C835 C834 1.381 . S
C835 C837 1.381 . S
C835 C838 1.487 . S
C836 C833 1.382 . S
C836 C837 1.387 . S
C836 H862 0.930 . S
C837 C835 1.381 . S
C837 C836 1.387 . S
C837 H863 0.931 . S
C838 C835 1.487 . S
C838 C845 1.399 . S
C838 N876 1.343 . S
C839 C840 1.384 . S
C839 C841 1.384 . S
C839 H864 0.931 . S
C840 C839 1.384 . S
C840 C843 1.382 . S
C841 C839 1.384 . S
C841 C842 1.381 . S
C841 H865 0.930 . S
C842 C841 1.381 . S
C842 C844 1.381 . S
C842 C845 1.487 . S
C843 C840 1.382 . S
C843 C844 1.387 . S
C843 H866 0.930 . S
C844 C842 1.381 . S
C844 C843 1.387 . S
C844 H867 0.931 . S
C845 C838 1.399 . S
C845 C842 1.487 . S
C845 N877 1.343 . S
C846 C847 1.384 . S
C846 C848 1.384 . S
C846 H868 0.931 . S
C847 C846 1.384 . S
C847 C850 1.382 . S
C848 C846 1.384 . S
C848 C849 1.381 . S
C848 H869 0.930 . S
C849 C848 1.381 . S
C849 C851 1.381 . S
C849 C852 1.487 . S
C850 C847 1.382 . S
C850 C851 1.387 . S
C850 H870 0.930 . S
C851 C849 1.381 . S
C851 C850 1.387 . S
C851 H871 0.931 . S
C852 C849 1.487 . S
C852 C859 1.399 . S
C852 N877 1.343 . S
C853 C854 1.384 . S
C853 C855 1.384 . S
C853 H872 0.931 . S
C854 C853 1.384 . S
C854 C857 1.382 . S
C855 C853 1.384 . S
C855 C856 1.381 . S
C855 H873 0.930 . S
C856 C855 1.381 . S
C856 C858 1.381 . S
C856 C859 1.487 . S
C857 C854 1.382 . S
C857 C858 1.387 . S
C857 H874 0.930 . S
C858 C856 1.381 . S
C858 C857 1.387 . S
C858 H875 0.931 . S
C859 C852 1.399 . S
C859 C856 1.487 . S
C859 N876 1.343 . S
H860 C832 0.931 . S
H861 C834 0.930 . S
H862 C836 0.930 . S
H863 C837 0.931 . S
H864 C839 0.931 . S
H865 C841 0.930 . S
H866 C843 0.930 . S
H867 C844 0.931 . S
H868 C846 0.931 . S
H869 C848 0.930 . S
H870 C850 0.930 . S
H871 C851 0.931 . S
H872 C853 0.931 . S
H873 C855 0.930 . S
H874 C857 0.930 . S
H875 C858 0.931 . S
N876 C838 1.343 . S
N876 C859 1.343 . S
N877 C845 1.343 . S
N877 C852 1.343 . S
C878 C879 1.384 . S
C878 C880 1.384 . S
C878 H906 0.931 . S
C879 C878 1.384 . S
C879 C882 1.382 . S
C880 C878 1.384 . S
C880 C881 1.381 . S
C880 H907 0.930 . S
C881 C880 1.381 . S
C881 C883 1.381 . S
C881 C884 1.487 . S
C882 C879 1.382 . S
C882 C883 1.387 . S
C882 H908 0.930 . S
C883 C881 1.381 . S
C883 C882 1.387 . S
C883 H909 0.931 . S
C884 C881 1.487 . S
C884 C891 1.399 . S
C884 N922 1.343 . S
C885 C886 1.384 . S
C885 C887 1.384 . S
C885 H910 0.931 . S
C886 C885 1.384 . S
C886 C889 1.382 . S
C887 C885 1.384 . S
C887 C888 1.381 . S
C887 H911 0.930 . S
C888 C887 1.381 . S
C888 C890 1.381 . S
C888 C891 1.487 . S
C889 C886 1.382 . S
C889 C890 1.387 . S
C889 H912 0.930 . S
C890 C888 1.381 . S
C890 C889 1.387 . S
C890 H913 0.931 . S
C891 C884 1.399 . S
C891 C888 1.487 . S
C891 N923 1.343 . S
C892 C893 1.384 . S
C892 C894 1.384 . S
C892 H914 0.931 . S
C893 C892 1.384 . S
C893 C896 1.382 . S
C894 C892 1.384 . S
C894 C895 1.381 . S
C894 H915 0.930 . S
C895 C894 1.381 . S
C895 C897 1.381 . S
C895 C898 1.487 . S
C896 C893 1.382 . S
C896 C897 1.387 . S
C896 H916 0.930 . S
C897 C895 1.381 . S
C897 C896 1.387 . S
C897 H917 0.931 . S
C898 C895 1.487 . S
C898 C905 1.399 . S
C898 N923 1.343 . S
C899 C900 1.384 . S
C899 C901 1.384 . S
C899 H918 0.931 . S
C900 C899 1.384 . S
C900 C903 1.382 . S
C901 C899 1.384 . S
C901 C902 1.381 . S
C901 H919 0.930 . S
C902 C901 1.381 . S
C902 C904 1.381 . S
C902 C905 1.487 . S
C903 C900 1.382 . S
C903 C904 1.387 . S
C903 H920 0.930 . S
C904 C902 1.381 . S
C904 C903 1.387 . S
C904 H921 0.931 . S
C905 C898 1.399 . S
C905 C902 1.487 . S
C905 N922 1.343 . S
H906 C878 0.931 . S
H907 C880 0.930 . S
H908 C882 0.930 . S
H909 C883 0.931 . S
H910 C885 0.931 . S
H911 C887 0.930 . S
H912 C889 0.930 . S
H913 C890 0.931 . S
H914 C892 0.931 . S
H915 C894 0.930 . S
H916 C896 0.930 . S
H917 C897 0.931 . S
H918 C899 0.931 . S
H919 C901 0.930 . S
H920 C903 0.930 . S
H921 C904 0.931 . S
N922 C884 1.343 . S
N922 C905 1.343 . S
N923 C891 1.343 . S
N923 C898 1.343 . S
C924 C925 1.384 . S
C924 C926 1.384 . S
C924 H952 0.931 . S
C925 C924 1.384 . S
C925 C928 1.382 . S
C926 C924 1.384 . S
C926 C927 1.381 . S
C926 H953 0.930 . S
C927 C926 1.381 . S
C927 C929 1.381 . S
C927 C930 1.487 . S
C928 C925 1.382 . S
C928 C929 1.387 . S
C928 H954 0.930 . S
C929 C927 1.381 . S
C929 C928 1.387 . S
C929 H955 0.931 . S
C930 C927 1.487 . S
C930 C937 1.399 . S
C930 N968 1.343 . S
C931 C932 1.384 . S
C931 C933 1.384 . S
C931 H956 0.931 . S
C932 C931 1.384 . S
C932 C935 1.382 . S
C933 C931 1.384 . S
C933 C934 1.381 . S
C933 H957 0.930 . S
C934 C933 1.381 . S
C934 C936 1.381 . S
C934 C937 1.487 . S
C935 C932 1.382 . S
C935 C936 1.387 . S
C935 H958 0.930 . S
C936 C934 1.381 . S
C936 C935 1.387 . S
C936 H959 0.931 . S
C937 C930 1.399 . S
C937 C934 1.487 . S
C937 N969 1.343 . S
C938 C939 1.384 . S
C938 C940 1.384 . S
C938 H960 0.931 . S
C939 C938 1.384 . S
C939 C942 1.382 . S
C940 C938 1.384 . S
C940 C941 1.381 . S
C940 H961 0.930 . S
C941 C940 1.381 . S
C941 C943 1.381 . S
C941 C944 1.487 . S
C942 C939 1.382 . S
C942 C943 1.387 . S
C942 H962 0.930 . S
C943 C941 1.381 . S
C943 C942 1.387 . S
C943 H963 0.931 . S
C944 C941 1.487 . S
C944 C951 1.399 . S
C944 N969 1.343 . S
C945 C946 1.384 . S
C945 C947 1.384 . S
C945 H964 0.931 . S
C946 C945 1.384 . S
C946 C949 1.382 . S
C947 C945 1.384 . S
C947 C948 1.381 . S
C947 H965 0.930 . S
C948 C947 1.381 . S
C948 C950 1.381 . S
C948 C951 1.487 . S
C949 C946 1.382 . S
C949 C950 1.387 . S
C949 H966 0.930 . S
C950 C948 1.381 . S
C950 C949 1.387 . S
C950 H967 0.931 . S
C951 C944 1.399 . S
C951 C948 1.487 . S
C951 N968 1.343 . S
H952 C924 0.931 . S
H953 C926 0.930 . S
H954 C928 0.930 . S
H955 C929 0.931 . S
H956 C931 0.931 . S
H957 C933 0.930 . S
H958 C935 0.930 . S
H959 C936 0.931 . S
H960 C938 0.931 . S
H961 C940 0.930 . S
H962 C942 0.930 . S
H963 C943 0.931 . S
H964 C945 0.931 . S
H965 C947 0.930 . S
H966 C949 0.930 . S
H967 C950 0.931 . S
N968 C930 1.343 . S
N968 C951 1.343 . S
N969 C937 1.343 . S
N969 C944 1.343 . S
C970 C971 1.384 . S
C970 C972 1.384 . S
C970 H998 0.931 . S
C971 C970 1.384 . S
C971 C974 1.382 . S
C972 C970 1.384 . S
C972 C973 1.381 . S
C972 H999 0.930 . S
C973 C972 1.381 . S
C973 C975 1.381 . S
C973 C976 1.487 . S
C974 C971 1.382 . S
C974 C975 1.387 . S
C974 H1000 0.930 . S
C975 C973 1.381 . S
C975 C974 1.387 . S
C975 H1001 0.931 . S
C976 C973 1.487 . S
C976 C983 1.399 . S
C976 N1014 1.343 . S
C977 C978 1.384 . S
C977 C979 1.384 . S
C977 H1002 0.931 . S
C978 C977 1.384 . S
C978 C981 1.382 . S
C979 C977 1.384 . S
C979 C980 1.381 . S
C979 H1003 0.930 . S
C980 C979 1.381 . S
C980 C982 1.381 . S
C980 C983 1.487 . S
C981 C978 1.382 . S
C981 C982 1.387 . S
C981 H1004 0.930 . S
C982 C980 1.381 . S
C982 C981 1.387 . S
C982 H1005 0.931 . S
C983 C976 1.399 . S
C983 C980 1.487 . S
C983 N1015 1.343 . S
C984 C985 1.384 . S
C984 C986 1.384 . S
C984 H1006 0.931 . S
C985 C984 1.384 . S
C985 C988 1.382 . S
C986 C984 1.384 . S
C986 C987 1.381 . S
C986 H1007 0.930 . S
C987 C986 1.381 . S
C987 C989 1.381 . S
C987 C990 1.487 . S
C988 C985 1.382 . S
C988 C989 1.387 . S
C988 H1008 0.930 . S
C989 C987 1.381 . S
C989 C988 1.387 . S
C989 H1009 0.931 . S
C990 C987 1.487 . S
C990 C997 1.399 . S
C990 N1015 1.343 . S
C991 C992 1.384 . S
C991 C993 1.384 . S
C991 H1010 0.931 . S
C992 C991 1.384 . S
C992 C995 1.382 . S
C993 C991 1.384 . S
C993 C994 1.381 . S
C993 H1011 0.930 . S
C994 C993 1.381 . S
C994 C996 1.381 . S
C994 C997 1.487 . S
C995 C992 1.382 . S
C995 C996 1.387 . S
C995 H1012 0.930 . S
C996 C994 1.381 . S
C996 C995 1.387 . S
C996 H1013 0.931 . S
C997 C990 1.399 . S
C997 C994 1.487 . S
C997 N1014 1.343 . S
H998 C970 0.931 . S
H999 C972 0.930 . S
H1000 C974 0.930 . S
H1001 C975 0.931 . S
H1002 C977 0.931 . S
H1003 C979 0.930 . S
H1004 C981 0.930 . S
H1005 C982 0.931 . S
H1006 C984 0.931 . S
H1007 C986 0.930 . S
H1008 C988 0.930 . S
H1009 C989 0.931 . S
H1010 C991 0.931 . S
H1011 C993 0.930 . S
H1012 C995 0.930 . S
H1013 C996 0.931 . S
N1014 C976 1.343 . S
N1014 C997 1.343 . S
N1015 C983 1.343 . S
N1015 C990 1.343 . S
C1016 C1017 1.384 . S
C1016 C1018 1.384 . S
C1016 H1044 0.931 . S
C1017 C1016 1.384 . S
C1017 C1020 1.382 . S
C1018 C1016 1.384 . S
C1018 C1019 1.381 . S
C1018 H1045 0.930 . S
C1019 C1018 1.381 . S
C1019 C1021 1.381 . S
C1019 C1022 1.487 . S
C1020 C1017 1.382 . S
C1020 C1021 1.387 . S
C1020 H1046 0.930 . S
C1021 C1019 1.381 . S
C1021 C1020 1.387 . S
C1021 H1047 0.931 . S
C1022 C1019 1.487 . S
C1022 C1029 1.399 . S
C1022 N1060 1.343 . S
C1023 C1024 1.384 . S
C1023 C1025 1.384 . S
C1023 H1048 0.931 . S
C1024 C1023 1.384 . S
C1024 C1027 1.382 . S
C1025 C1023 1.384 . S
C1025 C1026 1.381 . S
C1025 H1049 0.930 . S
C1026 C1025 1.381 . S
C1026 C1028 1.381 . S
C1026 C1029 1.487 . S
C1027 C1024 1.382 . S
C1027 C1028 1.387 . S
C1027 H1050 0.930 . S
C1028 C1026 1.381 . S
C1028 C1027 1.387 . S
C1028 H1051 0.931 . S
C1029 C1022 1.399 . S
C1029 C1026 1.487 . S
C1029 N1061 1.343 . S
C1030 C1031 1.384 . S
C1030 C1032 1.384 . S
C1030 H1052 0.931 . S
C1031 C1030 1.384 . S
C1031 C1034 1.382 . S
C1032 C1030 1.384 . S
C1032 C1033 1.381 . S
C1032 H1053 0.930 . S
C1033 C1032 1.381 . S
C1033 C1035 1.381 . S
C1033 C1036 1.487 . S
C1034 C1031 1.382 . S
C1034 C1035 1.387 . S
C1034 H1054 0.930 . S
C1035 C1033 1.381 . S
C1035 C1034 1.387 . S
C1035 H1055 0.931 . S
C1036 C1033 1.487 . S
C1036 C1043 1.399 . S
C1036 N1061 1.343 . S
C1037 C1038 1.384 . S
C1037 C1039 1.384 . S
C1037 H1056 0.931 . S
C1038 C1037 1.384 . S
C1038 C1041 1.382 . S
C1039 C1037 1.384 . S
C1039 C1040 1.381 . S
C1039 H1057 0.930 . S
C1040 C1039 1.381 . S
C1040 C1042 1.381 . S
C1040 C1043 1.487 . S
C1041 C1038 1.382 . S
C1041 C1042 1.387 . S
C1041 H1058 0.930 . S
C1042 C1040 1.381 . S
C1042 C1041 1.387 . S
C1042 H1059 0.931 . S
C1043 C1036 1.399 . S
C1043 C1040 1.487 . S
C1043 N1060 1.343 . S
H1044 C1016 0.931 . S
H1045 C1018 0.930 . S
H1046 C1020 0.930 . S
H1047 C1021 0.931 . S
H1048 C1023 0.931 . S
H1049 C1025 0.930 . S
H1050 C1027 0.930 . S
H1051 C1028 0.931 . S
H1052 C1030 0.931 . S
H1053 C1032 0.930 . S
H1054 C1034 0.930 . S
H1055 C1035 0.931 . S
H1056 C1037 0.931 . S
H1057 C1039 0.930 . S
H1058 C1041 0.930 . S
H1059 C1042 0.931 . S
N1060 C1022 1.343 . S
N1060 C1043 1.343 . S
N1061 C1029 1.343 . S
N1061 C1036 1.343 . S
C1062 C1063 1.384 . S
C1062 C1064 1.384 . S
C1062 H1090 0.931 . S
C1063 C1062 1.384 . S
C1063 C1066 1.382 1_655 S
C1064 C1062 1.384 . S
C1064 C1065 1.387 1_655 S
C1064 H1091 0.930 . S
C1065 C1064 1.387 1_455 S
C1065 C1067 1.378 . S
C1065 C1068 1.475 . S
C1066 C1063 1.382 1_455 S
C1066 C1067 1.387 . S
C1066 H1092 0.930 . S
C1067 C1065 1.378 . S
C1067 C1066 1.387 . S
C1067 H1093 0.931 . S
C1068 C1065 1.475 . S
C1068 C1075 1.398 1_455 S
C1068 N1106 1.354 . S
C1069 C1070 1.384 . S
C1069 C1071 1.384 . S
C1069 H1094 0.931 . S
C1070 C1069 1.384 . S
C1070 C1073 1.382 1_455 S
C1071 C1069 1.384 . S
C1071 C1072 1.384 . S
C1071 H1095 0.930 . S
C1072 C1071 1.384 . S
C1072 C1074 1.375 1_455 S
C1072 C1075 1.493 1_455 S
C1073 C1070 1.382 1_655 S
C1073 C1074 1.387 . S
C1073 H1096 0.930 . S
C1074 C1072 1.375 1_655 S
C1074 C1073 1.387 . S
C1074 H1097 0.931 . S
C1075 C1068 1.398 1_655 S
C1075 C1072 1.493 1_655 S
C1075 N1107 1.367 . S
C1076 C1077 1.384 . S
C1076 C1078 1.384 . S
C1076 H1098 0.931 . S
C1077 C1076 1.384 . S
C1077 C1080 1.382 1_455 S
C1078 C1076 1.384 . S
C1078 C1079 1.387 . S
C1078 H1099 0.930 . S
C1079 C1078 1.387 . S
C1079 C1081 1.378 1_455 S
C1079 C1082 1.482 1_455 S
C1080 C1077 1.382 1_655 S
C1080 C1081 1.387 . S
C1080 H1100 0.930 . S
C1081 C1079 1.378 1_655 S
C1081 C1080 1.387 . S
C1081 H1101 0.931 . S
C1082 C1079 1.482 1_655 S
C1082 C1089 1.398 1_655 S
C1082 N1107 1.318 . S
C1083 C1084 1.384 . S
C1083 C1085 1.384 . S
C1083 H1102 0.931 . S
C1084 C1083 1.384 . S
C1084 C1087 1.382 1_655 S
C1085 C1083 1.384 . S
C1085 C1086 1.380 . S
C1085 H1103 0.930 . S
C1086 C1085 1.380 . S
C1086 C1088 1.385 1_655 S
C1086 C1089 1.493 1_655 S
C1087 C1084 1.382 1_455 S
C1087 C1088 1.387 . S
C1087 H1104 0.930 . S
C1088 C1086 1.385 1_455 S
C1088 C1087 1.387 . S
C1088 H1105 0.931 . S
C1089 C1082 1.398 1_455 S
C1089 C1086 1.493 1_455 S
C1089 N1106 1.335 . S
H1090 C1062 0.931 . S
H1091 C1064 0.930 . S
H1092 C1066 0.930 . S
H1093 C1067 0.931 . S
H1094 C1069 0.931 . S
H1095 C1071 0.930 . S
H1096 C1073 0.930 . S
H1097 C1074 0.931 . S
H1098 C1076 0.931 . S
H1099 C1078 0.930 . S
H1100 C1080 0.930 . S
H1101 C1081 0.931 . S
H1102 C1083 0.931 . S
H1103 C1085 0.930 . S
H1104 C1087 0.930 . S
H1105 C1088 0.931 . S
N1106 C1068 1.354 . S
N1106 C1089 1.335 . S
N1107 C1075 1.367 . S
N1107 C1082 1.318 . S
C1108 C1109 1.384 . S
C1108 C1110 1.384 . S
C1108 H1136 0.931 . S
C1109 C1108 1.384 . S
C1109 C1112 1.382 . S
C1110 C1108 1.384 . S
C1110 C1111 1.381 . S
C1110 H1137 0.930 . S
C1111 C1110 1.381 . S
C1111 C1113 1.381 . S
C1111 C1114 1.487 . S
C1112 C1109 1.382 . S
C1112 C1113 1.387 . S
C1112 H1138 0.930 . S
C1113 C1111 1.381 . S
C1113 C1112 1.387 . S
C1113 H1139 0.931 . S
C1114 C1111 1.487 . S
C1114 C1121 1.399 . S
C1114 N1152 1.343 . S
C1115 C1116 1.384 . S
C1115 C1117 1.384 . S
C1115 H1140 0.931 . S
C1116 C1115 1.384 . S
C1116 C1119 1.382 . S
C1117 C1115 1.384 . S
C1117 C1118 1.381 . S
C1117 H1141 0.930 . S
C1118 C1117 1.381 . S
C1118 C1120 1.381 . S
C1118 C1121 1.487 . S
C1119 C1116 1.382 . S
C1119 C1120 1.387 . S
C1119 H1142 0.930 . S
C1120 C1118 1.381 . S
C1120 C1119 1.387 . S
C1120 H1143 0.931 . S
C1121 C1114 1.399 . S
C1121 C1118 1.487 . S
C1121 N1153 1.343 . S
C1122 C1123 1.384 . S
C1122 C1124 1.384 . S
C1122 H1144 0.931 . S
C1123 C1122 1.384 . S
C1123 C1126 1.382 . S
C1124 C1122 1.384 . S
C1124 C1125 1.381 . S
C1124 H1145 0.930 . S
C1125 C1124 1.381 . S
C1125 C1127 1.381 . S
C1125 C1128 1.487 . S
C1126 C1123 1.382 . S
C1126 C1127 1.387 . S
C1126 H1146 0.930 . S
C1127 C1125 1.381 . S
C1127 C1126 1.387 . S
C1127 H1147 0.931 . S
C1128 C1125 1.487 . S
C1128 C1135 1.399 . S
C1128 N1153 1.343 . S
C1129 C1130 1.384 . S
C1129 C1131 1.384 . S
C1129 H1148 0.931 . S
C1130 C1129 1.384 . S
C1130 C1133 1.382 . S
C1131 C1129 1.384 . S
C1131 C1132 1.381 . S
C1131 H1149 0.930 . S
C1132 C1131 1.381 . S
C1132 C1134 1.381 . S
C1132 C1135 1.487 . S
C1133 C1130 1.382 . S
C1133 C1134 1.387 . S
C1133 H1150 0.930 . S
C1134 C1132 1.381 . S
C1134 C1133 1.387 . S
C1134 H1151 0.931 . S
C1135 C1128 1.399 . S
C1135 C1132 1.487 . S
C1135 N1152 1.343 . S
H1136 C1108 0.931 . S
H1137 C1110 0.930 . S
H1138 C1112 0.930 . S
H1139 C1113 0.931 . S
H1140 C1115 0.931 . S
H1141 C1117 0.930 . S
H1142 C1119 0.930 . S
H1143 C1120 0.931 . S
H1144 C1122 0.931 . S
H1145 C1124 0.930 . S
H1146 C1126 0.930 . S
H1147 C1127 0.931 . S
H1148 C1129 0.931 . S
H1149 C1131 0.930 . S
H1150 C1133 0.930 . S
H1151 C1134 0.931 . S
N1152 C1114 1.343 . S
N1152 C1135 1.343 . S
N1153 C1121 1.343 . S
N1153 C1128 1.343 . S
C1154 C1155 1.384 1_545 S
C1154 C1156 1.384 . S
C1154 H1182 0.931 . S
C1155 C1154 1.384 1_565 S
C1155 C1158 1.382 . S
C1156 C1154 1.384 . S
C1156 C1157 1.381 1_545 S
C1156 H1183 0.930 . S
C1157 C1156 1.381 1_565 S
C1157 C1159 1.381 . S
C1157 C1160 1.487 . S
C1158 C1155 1.382 . S
C1158 C1159 1.387 . S
C1158 H1184 0.930 . S
C1159 C1157 1.381 . S
C1159 C1158 1.387 . S
C1159 H1185 0.931 . S
C1160 C1157 1.487 . S
C1160 C1167 1.399 1_565 S
C1160 N1198 1.343 . S
C1161 C1162 1.384 1_565 S
C1161 C1163 1.384 . S
C1161 H1186 0.931 . S
C1162 C1161 1.384 1_545 S
C1162 C1165 1.382 . S
C1163 C1161 1.384 . S
C1163 C1164 1.381 1_565 S
C1163 H1187 0.930 . S
C1164 C1163 1.381 1_545 S
C1164 C1166 1.381 . S
C1164 C1167 1.487 . S
C1165 C1162 1.382 . S
C1165 C1166 1.387 . S
C1165 H1188 0.930 . S
C1166 C1164 1.381 . S
C1166 C1165 1.387 . S
C1166 H1189 0.931 . S
C1167 C1160 1.399 1_545 S
C1167 C1164 1.487 . S
C1167 N1199 1.343 . S
C1168 C1169 1.384 1_565 S
C1168 C1170 1.384 . S
C1168 H1190 0.931 . S
C1169 C1168 1.384 1_545 S
C1169 C1172 1.382 . S
C1170 C1168 1.384 . S
C1170 C1171 1.381 1_565 S
C1170 H1191 0.930 . S
C1171 C1170 1.381 1_545 S
C1171 C1173 1.381 . S
C1171 C1174 1.487 . S
C1172 C1169 1.382 . S
C1172 C1173 1.387 . S
C1172 H1192 0.930 . S
C1173 C1171 1.381 . S
C1173 C1172 1.387 . S
C1173 H1193 0.931 . S
C1174 C1171 1.487 . S
C1174 C1181 1.399 1_545 S
C1174 N1199 1.343 . S
C1175 C1176 1.384 1_545 S
C1175 C1177 1.384 . S
C1175 H1194 0.931 . S
C1176 C1175 1.384 1_565 S
C1176 C1179 1.382 . S
C1177 C1175 1.384 . S
C1177 C1178 1.381 1_545 S
C1177 H1195 0.930 . S
C1178 C1177 1.381 1_565 S
C1178 C1180 1.381 . S
C1178 C1181 1.487 . S
C1179 C1176 1.382 . S
C1179 C1180 1.387 . S
C1179 H1196 0.930 . S
C1180 C1178 1.381 . S
C1180 C1179 1.387 . S
C1180 H1197 0.931 . S
C1181 C1174 1.399 1_565 S
C1181 C1178 1.487 . S
C1181 N1198 1.343 . S
H1182 C1154 0.931 . S
H1183 C1156 0.930 . S
H1184 C1158 0.930 . S
H1185 C1159 0.931 . S
H1186 C1161 0.931 . S
H1187 C1163 0.930 . S
H1188 C1165 0.930 . S
H1189 C1166 0.931 . S
H1190 C1168 0.931 . S
H1191 C1170 0.930 . S
H1192 C1172 0.930 . S
H1193 C1173 0.931 . S
H1194 C1175 0.931 . S
H1195 C1177 0.930 . S
H1196 C1179 0.930 . S
H1197 C1180 0.931 . S
N1198 C1160 1.343 . S
N1198 C1181 1.343 . S
N1199 C1167 1.343 . S
N1199 C1174 1.343 . S
C1200 C1201 1.384 . S
C1200 C1202 1.384 . S
C1200 H1228 0.931 . S
C1201 C1200 1.384 . S
C1201 C1204 1.382 1_545 S
C1202 C1200 1.384 . S
C1202 C1203 1.386 . S
C1202 H1229 0.930 . S
C1203 C1202 1.386 . S
C1203 C1205 1.371 1_545 S
C1203 C1206 1.495 1_545 S
C1204 C1201 1.382 1_565 S
C1204 C1205 1.387 . S
C1204 H1230 0.930 . S
C1205 C1203 1.371 1_565 S
C1205 C1204 1.387 . S
C1205 H1231 0.931 . S
C1206 C1203 1.495 1_565 S
C1206 C1213 1.399 1_565 S
C1206 N1244 1.365 . S
C1207 C1208 1.384 . S
C1207 C1209 1.384 . S
C1207 H1232 0.931 . S
C1208 C1207 1.384 . S
C1208 C1211 1.382 1_565 S
C1209 C1207 1.384 . S
C1209 C1210 1.380 . S
C1209 H1233 0.930 . S
C1210 C1209 1.380 . S
C1210 C1212 1.382 1_565 S
C1210 C1213 1.479 1_565 S
C1211 C1208 1.382 1_545 S
C1211 C1212 1.387 . S
C1211 H1234 0.930 . S
C1212 C1210 1.382 1_545 S
C1212 C1211 1.387 . S
C1212 H1235 0.931 . S
C1213 C1206 1.399 1_545 S
C1213 C1210 1.479 1_545 S
C1213 N1245 1.320 . S
C1214 C1215 1.384 . S
C1214 C1216 1.384 . S
C1214 H1236 0.931 . S
C1215 C1214 1.384 . S
C1215 C1218 1.382 1_565 S
C1216 C1214 1.384 . S
C1216 C1217 1.382 . S
C1216 H1237 0.930 . S
C1217 C1216 1.382 . S
C1217 C1219 1.380 1_565 S
C1217 C1220 1.495 1_565 S
C1218 C1215 1.382 1_545 S
C1218 C1219 1.387 . S
C1218 H1238 0.930 . S
C1219 C1217 1.380 1_545 S
C1219 C1218 1.387 . S
C1219 H1239 0.931 . S
C1220 C1217 1.495 1_545 S
C1220 C1227 1.399 1_545 S
C1220 N1245 1.365 . S
C1221 C1222 1.384 . S
C1221 C1223 1.384 . S
C1221 H1240 0.931 . S
C1222 C1221 1.384 . S
C1222 C1225 1.382 1_545 S
C1223 C1221 1.384 . S
C1223 C1224 1.397 . S
C1223 H1241 0.930 . S
C1224 C1223 1.397 . S
C1224 C1226 1.373 1_545 S
C1224 C1227 1.479 1_545 S
C1225 C1222 1.382 1_565 S
C1225 C1226 1.387 . S
C1225 H1242 0.930 . S
C1226 C1224 1.373 1_565 S
C1226 C1225 1.387 . S
C1226 H1243 0.931 . S
C1227 C1220 1.399 1_565 S
C1227 C1224 1.479 1_565 S
C1227 N1244 1.320 . S
H1228 C1200 0.931 . S
H1229 C1202 0.930 . S
H1230 C1204 0.930 . S
H1231 C1205 0.931 . S
H1232 C1207 0.931 . S
H1233 C1209 0.930 . S
H1234 C1211 0.930 . S
H1235 C1212 0.931 . S
H1236 C1214 0.931 . S
H1237 C1216 0.930 . S
H1238 C1218 0.930 . S
H1239 C1219 0.931 . S
H1240 C1221 0.931 . S
H1241 C1223 0.930 . S
H1242 C1225 0.930 . S
H1243 C1226 0.931 . S
N1244 C1206 1.365 . S
N1244 C1227 1.320 . S
N1245 C1213 1.320 . S
N1245 C1220 1.365 . S
C1246 C1247 1.384 . S
C1246 C1248 1.384 . S
C1246 H1274 0.931 . S
C1247 C1246 1.384 . S
C1247 C1250 1.382 1_655 S
C1248 C1246 1.384 . S
C1248 C1249 1.408 . S
C1248 H1275 0.930 . S
C1249 C1248 1.408 . S
C1249 C1251 1.367 1_655 S
C1249 C1252 1.476 1_655 S
C1250 C1247 1.382 1_455 S
C1250 C1251 1.387 . S
C1250 H1276 0.930 . S
C1251 C1249 1.367 1_455 S
C1251 C1250 1.387 . S
C1251 H1277 0.931 . S
C1252 C1249 1.476 1_455 S
C1252 C1259 1.399 1_455 S
C1252 N1290 1.324 . S
C1253 C1254 1.384 . S
C1253 C1255 1.384 . S
C1253 H1278 0.931 . S
C1254 C1253 1.384 . S
C1254 C1257 1.382 1_455 S
C1255 C1253 1.384 . S
C1255 C1256 1.386 . S
C1255 H1279 0.930 . S
C1256 C1255 1.386 . S
C1256 C1258 1.370 1_455 S
C1256 C1259 1.499 1_455 S
C1257 C1254 1.382 1_655 S
C1257 C1258 1.387 . S
C1257 H1280 0.930 . S
C1258 C1256 1.370 1_655 S
C1258 C1257 1.387 . S
C1258 H1281 0.931 . S
C1259 C1252 1.399 1_655 S
C1259 C1256 1.499 1_655 S
C1259 N1291 1.363 . S
C1260 C1261 1.384 . S
C1260 C1262 1.384 . S
C1260 H1282 0.931 . S
C1261 C1260 1.384 . S
C1261 C1264 1.382 1_455 S
C1262 C1260 1.384 . S
C1262 C1263 1.392 . S
C1262 H1283 0.930 . S
C1263 C1262 1.392 . S
C1263 C1265 1.376 1_455 S
C1263 C1266 1.476 1_455 S
C1264 C1261 1.382 1_655 S
C1264 C1265 1.387 . S
C1264 H1284 0.930 . S
C1265 C1263 1.376 1_655 S
C1265 C1264 1.387 . S
C1265 H1285 0.931 . S
C1266 C1263 1.476 1_655 S
C1266 C1273 1.399 1_655 S
C1266 N1291 1.324 . S
C1267 C1268 1.384 . S
C1267 C1269 1.384 . S
C1267 H1286 0.931 . S
C1268 C1267 1.384 . S
C1268 C1271 1.382 1_655 S
C1269 C1267 1.384 . S
C1269 C1270 1.390 . S
C1269 H1287 0.930 . S
C1270 C1269 1.390 . S
C1270 C1272 1.360 1_655 S
C1270 C1273 1.499 1_655 S
C1271 C1268 1.382 1_455 S
C1271 C1272 1.387 . S
C1271 H1288 0.930 . S
C1272 C1270 1.360 1_455 S
C1272 C1271 1.387 . S
C1272 H1289 0.931 . S
C1273 C1266 1.399 1_455 S
C1273 C1270 1.499 1_455 S
C1273 N1290 1.363 . S
H1274 C1246 0.931 . S
H1275 C1248 0.930 . S
H1276 C1250 0.930 . S
H1277 C1251 0.931 . S
H1278 C1253 0.931 . S
H1279 C1255 0.930 . S
H1280 C1257 0.930 . S
H1281 C1258 0.931 . S
H1282 C1260 0.931 . S
H1283 C1262 0.930 . S
H1284 C1264 0.930 . S
H1285 C1265 0.931 . S
H1286 C1267 0.931 . S
H1287 C1269 0.930 . S
H1288 C1271 0.930 . S
H1289 C1272 0.931 . S
N1290 C1252 1.324 . S
N1290 C1273 1.363 . S
N1291 C1259 1.363 . S
N1291 C1266 1.324 . S
C1292 C1293 1.384 . S
C1292 C1294 1.384 . S
C1292 H1320 0.931 . S
C1293 C1292 1.384 . S
C1293 C1296 1.382 . S
C1294 C1292 1.384 . S
C1294 C1295 1.381 . S
C1294 H1321 0.930 . S
C1295 C1294 1.381 . S
C1295 C1297 1.381 . S
C1295 C1298 1.487 . S
C1296 C1293 1.382 . S
C1296 C1297 1.387 . S
C1296 H1322 0.930 . S
C1297 C1295 1.381 . S
C1297 C1296 1.387 . S
C1297 H1323 0.931 . S
C1298 C1295 1.487 . S
C1298 C1305 1.399 . S
C1298 N1336 1.343 . S
C1299 C1300 1.384 . S
C1299 C1301 1.384 . S
C1299 H1324 0.931 . S
C1300 C1299 1.384 . S
C1300 C1303 1.382 . S
C1301 C1299 1.384 . S
C1301 C1302 1.381 . S
C1301 H1325 0.930 . S
C1302 C1301 1.381 . S
C1302 C1304 1.381 . S
C1302 C1305 1.487 . S
C1303 C1300 1.382 . S
C1303 C1304 1.387 . S
C1303 H1326 0.930 . S
C1304 C1302 1.381 . S
C1304 C1303 1.387 . S
C1304 H1327 0.931 . S
C1305 C1298 1.399 . S
C1305 C1302 1.487 . S
C1305 N1337 1.343 . S
C1306 C1307 1.384 . S
C1306 C1308 1.384 . S
C1306 H1328 0.931 . S
C1307 C1306 1.384 . S
C1307 C1310 1.382 . S
C1308 C1306 1.384 . S
C1308 C1309 1.381 . S
C1308 H1329 0.930 . S
C1309 C1308 1.381 . S
C1309 C1311 1.381 . S
C1309 C1312 1.487 . S
C1310 C1307 1.382 . S
C1310 C1311 1.387 . S
C1310 H1330 0.930 . S
C1311 C1309 1.381 . S
C1311 C1310 1.387 . S
C1311 H1331 0.931 . S
C1312 C1309 1.487 . S
C1312 C1319 1.399 . S
C1312 N1337 1.343 . S
C1313 C1314 1.384 . S
C1313 C1315 1.384 . S
C1313 H1332 0.931 . S
C1314 C1313 1.384 . S
C1314 C1317 1.382 . S
C1315 C1313 1.384 . S
C1315 C1316 1.381 . S
C1315 H1333 0.930 . S
C1316 C1315 1.381 . S
C1316 C1318 1.381 . S
C1316 C1319 1.487 . S
C1317 C1314 1.382 . S
C1317 C1318 1.387 . S
C1317 H1334 0.930 . S
C1318 C1316 1.381 . S
C1318 C1317 1.387 . S
C1318 H1335 0.931 . S
C1319 C1312 1.399 . S
C1319 C1316 1.487 . S
C1319 N1336 1.343 . S
H1320 C1292 0.931 . S
H1321 C1294 0.930 . S
H1322 C1296 0.930 . S
H1323 C1297 0.931 . S
H1324 C1299 0.931 . S
H1325 C1301 0.930 . S
H1326 C1303 0.930 . S
H1327 C1304 0.931 . S
H1328 C1306 0.931 . S
H1329 C1308 0.930 . S
H1330 C1310 0.930 . S
H1331 C1311 0.931 . S
H1332 C1313 0.931 . S
H1333 C1315 0.930 . S
H1334 C1317 0.930 . S
H1335 C1318 0.931 . S
N1336 C1298 1.343 . S
N1336 C1319 1.343 . S
N1337 C1305 1.343 . S
N1337 C1312 1.343 . S
C1338 C1339 1.384 . S
C1338 C1340 1.384 . S
C1338 H1366 0.931 . S
C1339 C1338 1.384 . S
C1339 C1342 1.382 . S
C1340 C1338 1.384 . S
C1340 C1341 1.381 . S
C1340 H1367 0.930 . S
C1341 C1340 1.381 . S
C1341 C1343 1.381 . S
C1341 C1344 1.487 . S
C1342 C1339 1.382 . S
C1342 C1343 1.387 . S
C1342 H1368 0.930 . S
C1343 C1341 1.381 . S
C1343 C1342 1.387 . S
C1343 H1369 0.931 . S
C1344 C1341 1.487 . S
C1344 C1351 1.399 . S
C1344 N1382 1.343 . S
C1345 C1346 1.384 . S
C1345 C1347 1.384 . S
C1345 H1370 0.931 . S
C1346 C1345 1.384 . S
C1346 C1349 1.382 . S
C1347 C1345 1.384 . S
C1347 C1348 1.381 . S
C1347 H1371 0.930 . S
C1348 C1347 1.381 . S
C1348 C1350 1.381 . S
C1348 C1351 1.487 . S
C1349 C1346 1.382 . S
C1349 C1350 1.387 . S
C1349 H1372 0.930 . S
C1350 C1348 1.381 . S
C1350 C1349 1.387 . S
C1350 H1373 0.931 . S
C1351 C1344 1.399 . S
C1351 C1348 1.487 . S
C1351 N1383 1.343 . S
C1352 C1353 1.384 . S
C1352 C1354 1.384 . S
C1352 H1374 0.931 . S
C1353 C1352 1.384 . S
C1353 C1356 1.382 . S
C1354 C1352 1.384 . S
C1354 C1355 1.381 . S
C1354 H1375 0.930 . S
C1355 C1354 1.381 . S
C1355 C1357 1.381 . S
C1355 C1358 1.487 . S
C1356 C1353 1.382 . S
C1356 C1357 1.387 . S
C1356 H1376 0.930 . S
C1357 C1355 1.381 . S
C1357 C1356 1.387 . S
C1357 H1377 0.931 . S
C1358 C1355 1.487 . S
C1358 C1365 1.399 . S
C1358 N1383 1.343 . S
C1359 C1360 1.384 . S
C1359 C1361 1.384 . S
C1359 H1378 0.931 . S
C1360 C1359 1.384 . S
C1360 C1363 1.382 . S
C1361 C1359 1.384 . S
C1361 C1362 1.381 . S
C1361 H1379 0.930 . S
C1362 C1361 1.381 . S
C1362 C1364 1.381 . S
C1362 C1365 1.487 . S
C1363 C1360 1.382 . S
C1363 C1364 1.387 . S
C1363 H1380 0.930 . S
C1364 C1362 1.381 . S
C1364 C1363 1.387 . S
C1364 H1381 0.931 . S
C1365 C1358 1.399 . S
C1365 C1362 1.487 . S
C1365 N1382 1.343 . S
H1366 C1338 0.931 . S
H1367 C1340 0.930 . S
H1368 C1342 0.930 . S
H1369 C1343 0.931 . S
H1370 C1345 0.931 . S
H1371 C1347 0.930 . S
H1372 C1349 0.930 . S
H1373 C1350 0.931 . S
H1374 C1352 0.931 . S
H1375 C1354 0.930 . S
H1376 C1356 0.930 . S
H1377 C1357 0.931 . S
H1378 C1359 0.931 . S
H1379 C1361 0.930 . S
H1380 C1363 0.930 . S
H1381 C1364 0.931 . S
N1382 C1344 1.343 . S
N1382 C1365 1.343 . S
N1383 C1351 1.343 . S
N1383 C1358 1.343 . S
C1384 C1385 1.384 . S
C1384 C1386 1.384 . S
C1384 H1412 0.931 . S
C1385 C1384 1.384 . S
C1385 C1388 1.382 . S
C1386 C1384 1.384 . S
C1386 C1387 1.381 . S
C1386 H1413 0.930 . S
C1387 C1386 1.381 . S
C1387 C1389 1.381 . S
C1387 C1390 1.487 . S
C1388 C1385 1.382 . S
C1388 C1389 1.387 . S
C1388 H1414 0.930 . S
C1389 C1387 1.381 . S
C1389 C1388 1.387 . S
C1389 H1415 0.931 . S
C1390 C1387 1.487 . S
C1390 C1397 1.399 . S
C1390 N1428 1.343 . S
C1391 C1392 1.384 . S
C1391 C1393 1.384 . S
C1391 H1416 0.931 . S
C1392 C1391 1.384 . S
C1392 C1395 1.382 . S
C1393 C1391 1.384 . S
C1393 C1394 1.381 . S
C1393 H1417 0.930 . S
C1394 C1393 1.381 . S
C1394 C1396 1.381 . S
C1394 C1397 1.487 . S
C1395 C1392 1.382 . S
C1395 C1396 1.387 . S
C1395 H1418 0.930 . S
C1396 C1394 1.381 . S
C1396 C1395 1.387 . S
C1396 H1419 0.931 . S
C1397 C1390 1.399 . S
C1397 C1394 1.487 . S
C1397 N1429 1.343 . S
C1398 C1399 1.384 . S
C1398 C1400 1.384 . S
C1398 H1420 0.931 . S
C1399 C1398 1.384 . S
C1399 C1402 1.382 . S
C1400 C1398 1.384 . S
C1400 C1401 1.381 . S
C1400 H1421 0.930 . S
C1401 C1400 1.381 . S
C1401 C1403 1.381 . S
C1401 C1404 1.487 . S
C1402 C1399 1.382 . S
C1402 C1403 1.387 . S
C1402 H1422 0.930 . S
C1403 C1401 1.381 . S
C1403 C1402 1.387 . S
C1403 H1423 0.931 . S
C1404 C1401 1.487 . S
C1404 C1411 1.399 . S
C1404 N1429 1.343 . S
C1405 C1406 1.384 . S
C1405 C1407 1.384 . S
C1405 H1424 0.931 . S
C1406 C1405 1.384 . S
C1406 C1409 1.382 . S
C1407 C1405 1.384 . S
C1407 C1408 1.381 . S
C1407 H1425 0.930 . S
C1408 C1407 1.381 . S
C1408 C1410 1.381 . S
C1408 C1411 1.487 . S
C1409 C1406 1.382 . S
C1409 C1410 1.387 . S
C1409 H1426 0.930 . S
C1410 C1408 1.381 . S
C1410 C1409 1.387 . S
C1410 H1427 0.931 . S
C1411 C1404 1.399 . S
C1411 C1408 1.487 . S
C1411 N1428 1.343 . S
H1412 C1384 0.931 . S
H1413 C1386 0.930 . S
H1414 C1388 0.930 . S
H1415 C1389 0.931 . S
H1416 C1391 0.931 . S
H1417 C1393 0.930 . S
H1418 C1395 0.930 . S
H1419 C1396 0.931 . S
H1420 C1398 0.931 . S
H1421 C1400 0.930 . S
H1422 C1402 0.930 . S
H1423 C1403 0.931 . S
H1424 C1405 0.931 . S
H1425 C1407 0.930 . S
H1426 C1409 0.930 . S
H1427 C1410 0.931 . S
N1428 C1390 1.343 . S
N1428 C1411 1.343 . S
N1429 C1397 1.343 . S
N1429 C1404 1.343 . S
C1430 C1431 1.384 . S
C1430 C1432 1.384 . S
C1430 H1458 0.931 . S
C1431 C1430 1.384 . S
C1431 C1434 1.382 . S
C1432 C1430 1.384 . S
C1432 C1433 1.381 . S
C1432 H1459 0.930 . S
C1433 C1432 1.381 . S
C1433 C1435 1.381 . S
C1433 C1436 1.487 . S
C1434 C1431 1.382 . S
C1434 C1435 1.387 . S
C1434 H1460 0.930 . S
C1435 C1433 1.381 . S
C1435 C1434 1.387 . S
C1435 H1461 0.931 . S
C1436 C1433 1.487 . S
C1436 C1443 1.399 . S
C1436 N1474 1.343 . S
C1437 C1438 1.384 . S
C1437 C1439 1.384 . S
C1437 H1462 0.931 . S
C1438 C1437 1.384 . S
C1438 C1441 1.382 . S
C1439 C1437 1.384 . S
C1439 C1440 1.381 . S
C1439 H1463 0.930 . S
C1440 C1439 1.381 . S
C1440 C1442 1.381 . S
C1440 C1443 1.487 . S
C1441 C1438 1.382 . S
C1441 C1442 1.387 . S
C1441 H1464 0.930 . S
C1442 C1440 1.381 . S
C1442 C1441 1.387 . S
C1442 H1465 0.931 . S
C1443 C1436 1.399 . S
C1443 C1440 1.487 . S
C1443 N1475 1.343 . S
C1444 C1445 1.384 . S
C1444 C1446 1.384 . S
C1444 H1466 0.931 . S
C1445 C1444 1.384 . S
C1445 C1448 1.382 . S
C1446 C1444 1.384 . S
C1446 C1447 1.381 . S
C1446 H1467 0.930 . S
C1447 C1446 1.381 . S
C1447 C1449 1.381 . S
C1447 C1450 1.487 . S
C1448 C1445 1.382 . S
C1448 C1449 1.387 . S
C1448 H1468 0.930 . S
C1449 C1447 1.381 . S
C1449 C1448 1.387 . S
C1449 H1469 0.931 . S
C1450 C1447 1.487 . S
C1450 C1457 1.399 . S
C1450 N1475 1.343 . S
C1451 C1452 1.384 . S
C1451 C1453 1.384 . S
C1451 H1470 0.931 . S
C1452 C1451 1.384 . S
C1452 C1455 1.382 . S
C1453 C1451 1.384 . S
C1453 C1454 1.381 . S
C1453 H1471 0.930 . S
C1454 C1453 1.381 . S
C1454 C1456 1.381 . S
C1454 C1457 1.487 . S
C1455 C1452 1.382 . S
C1455 C1456 1.387 . S
C1455 H1472 0.930 . S
C1456 C1454 1.381 . S
C1456 C1455 1.387 . S
C1456 H1473 0.931 . S
C1457 C1450 1.399 . S
C1457 C1454 1.487 . S
C1457 N1474 1.343 . S
H1458 C1430 0.931 . S
H1459 C1432 0.930 . S
H1460 C1434 0.930 . S
H1461 C1435 0.931 . S
H1462 C1437 0.931 . S
H1463 C1439 0.930 . S
H1464 C1441 0.930 . S
H1465 C1442 0.931 . S
H1466 C1444 0.931 . S
H1467 C1446 0.930 . S
H1468 C1448 0.930 . S
H1469 C1449 0.931 . S
H1470 C1451 0.931 . S
H1471 C1453 0.930 . S
H1472 C1455 0.930 . S
H1473 C1456 0.931 . S
N1474 C1436 1.343 . S
N1474 C1457 1.343 . S
N1475 C1443 1.343 . S
N1475 C1450 1.343 . S
H1476 C1484 0.950 . S
H1477 C1489 0.959 . S
H1478 C1486 0.950 . S
H1479 C1488 0.950 . S
H1480 C1490 0.949 . S
H1481 C1492 0.950 . S
H1482 C1494 0.950 . S
H1483 C1495 0.950 . S
C1484 H1476 0.950 . S
C1484 C1485 1.386 . S
C1484 C1486 1.391 . S
C1485 C1484 1.386 . S
C1485 C1489 1.416 1_655 S
C1486 H1478 0.950 . S
C1486 C1484 1.391 . S
C1486 C1487 1.400 . S
C1487 C1486 1.400 . S
C1487 C1488 1.398 1_655 S
C1487 C1493 1.491 . S
C1488 H1479 0.950 . S
C1488 C1487 1.398 1_455 S
C1488 C1489 1.365 . S
C1489 H1477 0.959 . S
C1489 C1485 1.416 1_455 S
C1489 C1488 1.365 . S
C1490 H1480 0.949 . S
C1490 C1491 1.385 1_455 S
C1490 C1492 1.389 . S
C1491 C1490 1.385 1_655 S
C1491 C1495 1.393 . S
C1492 H1481 0.950 . S
C1492 C1490 1.389 . S
C1492 C1493 1.403 1_455 S
C1493 C1487 1.491 . S
C1493 C1492 1.403 1_655 S
C1493 C1494 1.398 . S
C1494 H1482 0.950 . S
C1494 C1493 1.398 . S
C1494 C1495 1.391 . S
C1495 H1483 0.950 . S
C1495 C1491 1.393 . S
C1495 C1494 1.391 . S
H1496 C1504 0.950 . S
H1497 C1509 0.950 . S
H1498 C1506 0.950 . S
H1499 C1508 0.950 . S
H1500 C1510 0.950 . S
H1501 C1512 0.950 . S
H1502 C1514 0.950 . S
H1503 C1515 0.950 . S
C1504 H1496 0.950 . S
C1504 C1505 1.386 . S
C1504 C1506 1.391 . S
C1505 C1504 1.386 . S
C1505 C1509 1.393 . S
C1506 H1498 0.950 . S
C1506 C1504 1.391 . S
C1506 C1507 1.400 . S
C1507 C1506 1.400 . S
C1507 C1508 1.398 . S
C1507 C1513 1.491 . S
C1508 H1499 0.950 . S
C1508 C1507 1.398 . S
C1508 C1509 1.391 . S
C1509 H1497 0.950 . S
C1509 C1505 1.393 . S
C1509 C1508 1.391 . S
C1510 H1500 0.950 . S
C1510 C1511 1.386 . S
C1510 C1512 1.391 . S
C1511 C1510 1.386 . S
C1511 C1515 1.393 . S
C1512 H1501 0.950 . S
C1512 C1510 1.391 . S
C1512 C1513 1.400 . S
C1513 C1507 1.491 . S
C1513 C1512 1.400 . S
C1513 C1514 1.398 . S
C1514 H1502 0.950 . S
C1514 C1513 1.398 . S
C1514 C1515 1.391 . S
C1515 H1503 0.950 . S
C1515 C1511 1.393 . S
C1515 C1514 1.391 . S
H1516 C1524 0.950 . S
H1517 C1529 0.950 . S
H1518 C1526 0.950 . S
H1519 C1528 0.950 . S
H1520 C1530 0.950 . S
H1521 C1532 0.950 . S
H1522 C1534 0.950 . S
H1523 C1535 0.950 . S
C1524 H1516 0.950 . S
C1524 C1525 1.386 . S
C1524 C1526 1.391 . S
C1525 C1524 1.386 . S
C1525 C1529 1.393 1_545 S
C1526 H1518 0.950 . S
C1526 C1524 1.391 . S
C1526 C1527 1.400 . S
C1527 C1526 1.400 . S
C1527 C1528 1.398 1_545 S
C1527 C1533 1.491 . S
C1528 H1519 0.950 . S
C1528 C1527 1.398 1_565 S
C1528 C1529 1.391 . S
C1529 H1517 0.950 . S
C1529 C1525 1.393 1_565 S
C1529 C1528 1.391 . S
C1530 H1520 0.950 . S
C1530 C1531 1.386 1_565 S
C1530 C1532 1.391 . S
C1531 C1530 1.386 1_545 S
C1531 C1535 1.393 . S
C1532 H1521 0.950 . S
C1532 C1530 1.391 . S
C1532 C1533 1.400 1_565 S
C1533 C1527 1.491 . S
C1533 C1532 1.400 1_545 S
C1533 C1534 1.398 . S
C1534 H1522 0.950 . S
C1534 C1533 1.398 . S
C1534 C1535 1.391 . S
C1535 H1523 0.950 . S
C1535 C1531 1.393 . S
C1535 C1534 1.391 . S
H1536 C1544 0.950 . S
H1537 C1549 0.950 . S
H1538 C1546 0.950 . S
H1539 C1548 0.950 . S
H1540 C1550 0.950 . S
H1541 C1552 0.950 . S
H1542 C1554 0.950 . S
H1543 C1555 0.950 . S
C1544 H1536 0.950 . S
C1544 C1545 1.386 . S
C1544 C1546 1.391 . S
C1545 C1544 1.386 . S
C1545 C1549 1.393 1_565 S
C1546 H1538 0.950 . S
C1546 C1544 1.391 . S
C1546 C1547 1.400 . S
C1547 C1546 1.400 . S
C1547 C1548 1.398 1_565 S
C1547 C1553 1.491 . S
C1548 H1539 0.950 . S
C1548 C1547 1.398 1_545 S
C1548 C1549 1.391 . S
C1549 H1537 0.950 . S
C1549 C1545 1.393 1_545 S
C1549 C1548 1.391 . S
C1550 H1540 0.950 . S
C1550 C1551 1.386 1_545 S
C1550 C1552 1.391 . S
C1551 C1550 1.386 1_565 S
C1551 C1555 1.393 . S
C1552 H1541 0.950 . S
C1552 C1550 1.391 . S
C1552 C1553 1.400 1_545 S
C1553 C1547 1.491 . S
C1553 C1552 1.400 1_565 S
C1553 C1554 1.398 . S
C1554 H1542 0.950 . S
C1554 C1553 1.398 . S
C1554 C1555 1.391 . S
C1555 H1543 0.950 . S
C1555 C1551 1.393 . S
C1555 C1554 1.391 . S
H1556 C1564 0.950 . S
H1557 C1569 0.945 1_655 S
H1558 C1566 0.950 . S
H1559 C1568 0.950 1_655 S
H1560 C1570 0.931 1_655 S
H1561 C1572 0.950 1_655 S
H1562 C1574 0.950 . S
H1563 C1575 0.950 . S
C1564 H1556 0.950 . S
C1564 C1565 1.386 . S
C1564 C1566 1.391 . S
C1565 C1564 1.386 . S
C1565 C1569 1.393 . S
C1566 H1558 0.950 . S
C1566 C1564 1.391 . S
C1566 C1567 1.400 . S
C1567 C1566 1.400 . S
C1567 C1568 1.398 . S
C1567 C1573 1.491 . S
C1568 H1559 0.950 1_455 S
C1568 C1567 1.398 . S
C1568 C1569 1.391 . S
C1569 H1557 0.945 1_455 S
C1569 C1565 1.393 . S
C1569 C1568 1.391 . S
C1570 H1560 0.931 1_455 S
C1570 C1571 1.394 . S
C1570 C1572 1.402 . S
C1571 C1570 1.394 . S
C1571 C1575 1.393 . S
C1572 H1561 0.950 1_455 S
C1572 C1570 1.402 . S
C1572 C1573 1.400 . S
C1573 C1567 1.491 . S
C1573 C1572 1.400 . S
C1573 C1574 1.398 . S
C1574 H1562 0.950 . S
C1574 C1573 1.398 . S
C1574 C1575 1.391 . S
C1575 H1563 0.950 . S
C1575 C1571 1.393 . S
C1575 C1574 1.391 . S
H1576 C1584 0.950 . S
H1577 C1589 0.950 . S
H1578 C1586 0.950 . S
H1579 C1588 0.950 . S
H1580 C1590 0.950 . S
H1581 C1592 0.950 . S
H1582 C1594 0.950 . S
H1583 C1595 0.950 . S
C1584 H1576 0.950 . S
C1584 C1585 1.386 . S
C1584 C1586 1.391 . S
C1585 C1584 1.386 . S
C1585 C1589 1.393 . S
C1586 H1578 0.950 . S
C1586 C1584 1.391 . S
C1586 C1587 1.400 . S
C1587 C1586 1.400 . S
C1587 C1588 1.398 . S
C1587 C1593 1.491 . S
C1588 H1579 0.950 . S
C1588 C1587 1.398 . S
C1588 C1589 1.391 . S
C1589 H1577 0.950 . S
C1589 C1585 1.393 . S
C1589 C1588 1.391 . S
C1590 H1580 0.950 . S
C1590 C1591 1.386 . S
C1590 C1592 1.391 . S
C1591 C1590 1.386 . S
C1591 C1595 1.393 . S
C1592 H1581 0.950 . S
C1592 C1590 1.391 . S
C1592 C1593 1.400 . S
C1593 C1587 1.491 . S
C1593 C1592 1.400 . S
C1593 C1594 1.398 . S
C1594 H1582 0.950 . S
C1594 C1593 1.398 . S
C1594 C1595 1.391 . S
C1595 H1583 0.950 . S
C1595 C1591 1.393 . S
C1595 C1594 1.391 . S
H1596 C1604 0.950 . S
H1597 C1609 0.950 . S
H1598 C1606 0.950 . S
H1599 C1608 0.950 . S
H1600 C1610 0.950 . S
H1601 C1612 0.950 . S
H1602 C1614 0.950 . S
H1603 C1615 0.950 . S
C1604 H1596 0.950 . S
C1604 C1605 1.386 . S
C1604 C1606 1.391 . S
C1605 C1604 1.386 . S
C1605 C1609 1.393 1_455 S
C1606 H1598 0.950 . S
C1606 C1604 1.391 . S
C1606 C1607 1.400 . S
C1607 C1606 1.400 . S
C1607 C1608 1.398 1_455 S
C1607 C1613 1.491 . S
C1608 H1599 0.950 . S
C1608 C1607 1.398 1_655 S
C1608 C1609 1.391 . S
C1609 H1597 0.950 . S
C1609 C1605 1.393 1_655 S
C1609 C1608 1.391 . S
C1610 H1600 0.950 . S
C1610 C1611 1.386 1_655 S
C1610 C1612 1.391 . S
C1611 C1610 1.386 1_455 S
C1611 C1615 1.393 . S
C1612 H1601 0.950 . S
C1612 C1610 1.391 . S
C1612 C1613 1.400 1_655 S
C1613 C1607 1.491 . S
C1613 C1612 1.400 1_455 S
C1613 C1614 1.398 . S
C1614 H1602 0.950 . S
C1614 C1613 1.398 . S
C1614 C1615 1.391 . S
C1615 H1603 0.950 . S
C1615 C1611 1.393 . S
C1615 C1614 1.391 . S
H1616 C1624 0.950 . S
H1617 C1629 0.950 . S
H1618 C1626 0.950 . S
H1619 C1628 0.950 . S
H1620 C1630 0.950 . S
H1621 C1632 0.950 . S
H1622 C1634 0.950 . S
H1623 C1635 0.950 . S
C1624 H1616 0.950 . S
C1624 C1625 1.386 . S
C1624 C1626 1.391 . S
C1625 C1624 1.386 . S
C1625 C1629 1.393 . S
C1626 H1618 0.950 . S
C1626 C1624 1.391 . S
C1626 C1627 1.400 . S
C1627 C1626 1.400 . S
C1627 C1628 1.398 . S
C1627 C1633 1.491 . S
C1628 H1619 0.950 . S
C1628 C1627 1.398 . S
C1628 C1629 1.391 . S
C1629 H1617 0.950 . S
C1629 C1625 1.393 . S
C1629 C1628 1.391 . S
C1630 H1620 0.950 . S
C1630 C1631 1.386 . S
C1630 C1632 1.391 . S
C1631 C1630 1.386 . S
C1631 C1635 1.393 . S
C1632 H1621 0.950 . S
C1632 C1630 1.391 . S
C1632 C1633 1.400 . S
C1633 C1627 1.491 . S
C1633 C1632 1.400 . S
C1633 C1634 1.398 . S
C1634 H1622 0.950 . S
C1634 C1633 1.398 . S
C1634 C1635 1.391 . S
C1635 H1623 0.950 . S
C1635 C1631 1.393 . S
C1635 C1634 1.391 . S
H1636 C1644 0.950 . S
H1637 C1649 0.950 . S
H1638 C1646 0.950 . S
H1639 C1648 0.950 . S
H1640 C1650 0.950 . S
H1641 C1652 0.950 . S
H1642 C1654 0.950 . S
H1643 C1655 0.950 . S
C1644 H1636 0.950 . S
C1644 C1645 1.386 . S
C1644 C1646 1.391 . S
C1645 C1644 1.386 . S
C1645 C1649 1.393 1_565 S
C1646 H1638 0.950 . S
C1646 C1644 1.391 . S
C1646 C1647 1.400 . S
C1647 C1646 1.400 . S
C1647 C1648 1.398 1_565 S
C1647 C1653 1.491 . S
C1648 H1639 0.950 . S
C1648 C1647 1.398 1_545 S
C1648 C1649 1.391 . S
C1649 H1637 0.950 . S
C1649 C1645 1.393 1_545 S
C1649 C1648 1.391 . S
C1650 H1640 0.950 . S
C1650 C1651 1.386 1_545 S
C1650 C1652 1.391 . S
C1651 C1650 1.386 1_565 S
C1651 C1655 1.393 . S
C1652 H1641 0.950 . S
C1652 C1650 1.391 . S
C1652 C1653 1.400 1_545 S
C1653 C1647 1.491 . S
C1653 C1652 1.400 1_565 S
C1653 C1654 1.398 . S
C1654 H1642 0.950 . S
C1654 C1653 1.398 . S
C1654 C1655 1.391 . S
C1655 H1643 0.950 . S
C1655 C1651 1.393 . S
C1655 C1654 1.391 . S
H1656 C1664 0.950 . S
H1657 C1669 0.950 1_565 S
H1658 C1666 0.950 . S
H1659 C1668 0.943 1_565 S
H1660 C1670 0.970 . S
H1661 C1672 0.950 . S
H1662 C1674 0.950 . S
H1663 C1675 0.950 . S
C1664 H1656 0.950 . S
C1664 C1665 1.386 . S
C1664 C1666 1.391 . S
C1665 C1664 1.386 . S
C1665 C1669 1.393 . S
C1666 H1658 0.950 . S
C1666 C1664 1.391 . S
C1666 C1667 1.400 . S
C1667 C1666 1.400 . S
C1667 C1668 1.412 . S
C1667 C1673 1.491 . S
C1668 H1659 0.943 1_545 S
C1668 C1667 1.412 . S
C1668 C1669 1.384 . S
C1669 H1657 0.950 1_545 S
C1669 C1665 1.393 . S
C1669 C1668 1.384 . S
C1670 H1660 0.970 . S
C1670 C1671 1.348 1_565 S
C1670 C1672 1.411 . S
C1671 C1670 1.348 1_545 S
C1671 C1675 1.393 . S
C1672 H1661 0.950 . S
C1672 C1670 1.411 . S
C1672 C1673 1.400 1_565 S
C1673 C1667 1.491 . S
C1673 C1672 1.400 1_545 S
C1673 C1674 1.398 . S
C1674 H1662 0.950 . S
C1674 C1673 1.398 . S
C1674 C1675 1.391 . S
C1675 H1663 0.950 . S
C1675 C1671 1.393 . S
C1675 C1674 1.391 . S
H1676 C1684 0.950 . S
H1677 C1689 0.950 . S
H1678 C1686 0.950 . S
H1679 C1688 0.950 . S
H1680 C1690 0.950 . S
H1681 C1692 0.950 . S
H1682 C1694 0.950 . S
H1683 C1695 0.950 . S
C1684 H1676 0.950 . S
C1684 C1685 1.386 . S
C1684 C1686 1.391 . S
C1685 C1684 1.386 . S
C1685 C1689 1.393 1_655 S
C1686 H1678 0.950 . S
C1686 C1684 1.391 . S
C1686 C1687 1.400 . S
C1687 C1686 1.400 . S
C1687 C1688 1.398 1_655 S
C1687 C1693 1.491 . S
C1688 H1679 0.950 . S
C1688 C1687 1.398 1_455 S
C1688 C1689 1.391 . S
C1689 H1677 0.950 . S
C1689 C1685 1.393 1_455 S
C1689 C1688 1.391 . S
C1690 H1680 0.950 . S
C1690 C1691 1.386 1_455 S
C1690 C1692 1.391 . S
C1691 C1690 1.386 1_655 S
C1691 C1695 1.393 . S
C1692 H1681 0.950 . S
C1692 C1690 1.391 . S
C1692 C1693 1.400 1_455 S
C1693 C1687 1.491 . S
C1693 C1692 1.400 1_655 S
C1693 C1694 1.398 . S
C1694 H1682 0.950 . S
C1694 C1693 1.398 . S
C1694 C1695 1.391 . S
C1695 H1683 0.950 . S
C1695 C1691 1.393 . S
C1695 C1694 1.391 . S
H1696 C1704 0.950 . S
H1697 C1709 0.950 . S
H1698 C1706 0.950 . S
H1699 C1708 0.950 . S
H1700 C1710 0.950 . S
H1701 C1712 0.950 . S
H1702 C1714 0.950 . S
H1703 C1715 0.950 . S
C1704 H1696 0.950 . S
C1704 C1705 1.386 . S
C1704 C1706 1.391 . S
C1705 C1704 1.386 . S
C1705 C1709 1.393 . S
C1706 H1698 0.950 . S
C1706 C1704 1.391 . S
C1706 C1707 1.400 . S
C1707 C1706 1.400 . S
C1707 C1708 1.398 . S
C1707 C1713 1.491 . S
C1708 H1699 0.950 . S
C1708 C1707 1.398 . S
C1708 C1709 1.391 . S
C1709 H1697 0.950 . S
C1709 C1705 1.393 . S
C1709 C1708 1.391 . S
C1710 H1700 0.950 . S
C1710 C1711 1.386 . S
C1710 C1712 1.391 . S
C1711 C1710 1.386 . S
C1711 C1715 1.393 . S
C1712 H1701 0.950 . S
C1712 C1710 1.391 . S
C1712 C1713 1.400 . S
C1713 C1707 1.491 . S
C1713 C1712 1.400 . S
C1713 C1714 1.398 . S
C1714 H1702 0.950 . S
C1714 C1713 1.398 . S
C1714 C1715 1.391 . S
C1715 H1703 0.950 . S
C1715 C1711 1.393 . S
C1715 C1714 1.391 . S
H1716 C1724 0.950 . S
H1717 C1729 0.950 . S
H1718 C1726 0.950 . S
H1719 C1728 0.950 . S
H1720 C1730 0.950 . S
H1721 C1732 0.950 . S
H1722 C1734 0.950 . S
H1723 C1735 0.950 . S
C1724 H1716 0.950 . S
C1724 C1725 1.386 . S
C1724 C1726 1.391 . S
C1725 C1724 1.386 . S
C1725 C1729 1.393 . S
C1726 H1718 0.950 . S
C1726 C1724 1.391 . S
C1726 C1727 1.400 . S
C1727 C1726 1.400 . S
C1727 C1728 1.398 . S
C1727 C1733 1.491 . S
C1728 H1719 0.950 . S
C1728 C1727 1.398 . S
C1728 C1729 1.391 . S
C1729 H1717 0.950 . S
C1729 C1725 1.393 . S
C1729 C1728 1.391 . S
C1730 H1720 0.950 . S
C1730 C1731 1.386 . S
C1730 C1732 1.391 . S
C1731 C1730 1.386 . S
C1731 C1735 1.393 . S
C1732 H1721 0.950 . S
C1732 C1730 1.391 . S
C1732 C1733 1.400 . S
C1733 C1727 1.491 . S
C1733 C1732 1.400 . S
C1733 C1734 1.398 . S
C1734 H1722 0.950 . S
C1734 C1733 1.398 . S
C1734 C1735 1.391 . S
C1735 H1723 0.950 . S
C1735 C1731 1.393 . S
C1735 C1734 1.391 . S
H1736 C1744 0.950 . S
H1737 C1749 0.950 . S
H1738 C1746 0.950 . S
H1739 C1748 0.950 . S
H1740 C1750 0.950 . S
H1741 C1752 0.950 . S
H1742 C1754 0.950 . S
H1743 C1755 0.950 . S
C1744 H1736 0.950 . S
C1744 C1745 1.386 . S
C1744 C1746 1.391 . S
C1745 C1744 1.386 . S
C1745 C1749 1.393 . S
C1746 H1738 0.950 . S
C1746 C1744 1.391 . S
C1746 C1747 1.400 . S
C1747 C1746 1.400 . S
C1747 C1748 1.398 . S
C1747 C1753 1.491 . S
C1748 H1739 0.950 . S
C1748 C1747 1.398 . S
C1748 C1749 1.391 . S
C1749 H1737 0.950 . S
C1749 C1745 1.393 . S
C1749 C1748 1.391 . S
C1750 H1740 0.950 . S
C1750 C1751 1.386 . S
C1750 C1752 1.391 . S
C1751 C1750 1.386 . S
C1751 C1755 1.393 . S
C1752 H1741 0.950 . S
C1752 C1750 1.391 . S
C1752 C1753 1.400 . S
C1753 C1747 1.491 . S
C1753 C1752 1.400 . S
C1753 C1754 1.398 . S
C1754 H1742 0.950 . S
C1754 C1753 1.398 . S
C1754 C1755 1.391 . S
C1755 H1743 0.950 . S
C1755 C1751 1.393 . S
C1755 C1754 1.391 . S
H1756 C1764 0.950 . S
H1757 C1769 0.950 . S
H1758 C1766 0.950 . S
H1759 C1768 0.950 . S
H1760 C1770 0.950 . S
H1761 C1772 0.950 . S
H1762 C1774 0.950 . S
H1763 C1775 0.950 . S
C1764 H1756 0.950 . S
C1764 C1765 1.386 . S
C1764 C1766 1.391 . S
C1765 C1764 1.386 . S
C1765 C1769 1.393 . S
C1766 H1758 0.950 . S
C1766 C1764 1.391 . S
C1766 C1767 1.400 . S
C1767 C1766 1.400 . S
C1767 C1768 1.398 . S
C1767 C1773 1.491 . S
C1768 H1759 0.950 . S
C1768 C1767 1.398 . S
C1768 C1769 1.391 . S
C1769 H1757 0.950 . S
C1769 C1765 1.393 . S
C1769 C1768 1.391 . S
C1770 H1760 0.950 . S
C1770 C1771 1.386 . S
C1770 C1772 1.391 . S
C1771 C1770 1.386 . S
C1771 C1775 1.393 . S
C1772 H1761 0.950 . S
C1772 C1770 1.391 . S
C1772 C1773 1.400 . S
C1773 C1767 1.491 . S
C1773 C1772 1.400 . S
C1773 C1774 1.398 . S
C1774 H1762 0.950 . S
C1774 C1773 1.398 . S
C1774 C1775 1.391 . S
C1775 H1763 0.950 . S
C1775 C1771 1.393 . S
C1775 C1774 1.391 . S
H1776 C1784 0.950 . S
H1777 C1789 0.950 . S
H1778 C1786 0.950 . S
H1779 C1788 0.950 . S
H1780 C1790 0.950 . S
H1781 C1792 0.950 . S
H1782 C1794 0.950 . S
H1783 C1795 0.950 . S
C1784 H1776 0.950 . S
C1784 C1785 1.386 . S
C1784 C1786 1.391 . S
C1785 C1784 1.386 . S
C1785 C1789 1.393 . S
C1786 H1778 0.950 . S
C1786 C1784 1.391 . S
C1786 C1787 1.400 . S
C1787 C1786 1.400 . S
C1787 C1788 1.398 . S
C1787 C1793 1.491 . S
C1788 H1779 0.950 . S
C1788 C1787 1.398 . S
C1788 C1789 1.391 . S
C1789 H1777 0.950 . S
C1789 C1785 1.393 . S
C1789 C1788 1.391 . S
C1790 H1780 0.950 . S
C1790 C1791 1.386 . S
C1790 C1792 1.391 . S
C1791 C1790 1.386 . S
C1791 C1795 1.393 . S
C1792 H1781 0.950 . S
C1792 C1790 1.391 . S
C1792 C1793 1.400 . S
C1793 C1787 1.491 . S
C1793 C1792 1.400 . S
C1793 C1794 1.398 . S
C1794 H1782 0.950 . S
C1794 C1793 1.398 . S
C1794 C1795 1.391 . S
C1795 H1783 0.950 . S
C1795 C1791 1.393 . S
C1795 C1794 1.391 . S
H1796 C1804 0.950 . S
H1797 C1809 0.950 . S
H1798 C1806 0.950 . S
H1799 C1808 0.950 . S
H1800 C1810 0.950 . S
H1801 C1812 0.950 . S
H1802 C1814 0.950 . S
H1803 C1815 0.950 . S
C1804 H1796 0.950 . S
C1804 C1805 1.386 . S
C1804 C1806 1.391 . S
C1805 C1804 1.386 . S
C1805 C1809 1.393 . S
C1806 H1798 0.950 . S
C1806 C1804 1.391 . S
C1806 C1807 1.400 . S
C1807 C1806 1.400 . S
C1807 C1808 1.398 . S
C1807 C1813 1.491 . S
C1808 H1799 0.950 . S
C1808 C1807 1.398 . S
C1808 C1809 1.391 . S
C1809 H1797 0.950 . S
C1809 C1805 1.393 . S
C1809 C1808 1.391 . S
C1810 H1800 0.950 . S
C1810 C1811 1.386 . S
C1810 C1812 1.391 . S
C1811 C1810 1.386 . S
C1811 C1815 1.393 . S
C1812 H1801 0.950 . S
C1812 C1810 1.391 . S
C1812 C1813 1.400 . S
C1813 C1807 1.491 . S
C1813 C1812 1.400 . S
C1813 C1814 1.398 . S
C1814 H1802 0.950 . S
C1814 C1813 1.398 . S
C1814 C1815 1.391 . S
C1815 H1803 0.950 . S
C1815 C1811 1.393 . S
C1815 C1814 1.391 . S
H1816 C1824 0.950 . S
H1817 C1829 0.950 . S
H1818 C1826 0.950 . S
H1819 C1828 0.950 . S
H1820 C1830 0.950 . S
H1821 C1832 0.950 . S
H1822 C1834 0.950 . S
H1823 C1835 0.950 . S
C1824 H1816 0.950 . S
C1824 C1825 1.386 . S
C1824 C1826 1.391 . S
C1825 C1824 1.386 . S
C1825 C1829 1.393 . S
C1826 H1818 0.950 . S
C1826 C1824 1.391 . S
C1826 C1827 1.400 . S
C1827 C1826 1.400 . S
C1827 C1828 1.398 . S
C1827 C1833 1.491 . S
C1828 H1819 0.950 . S
C1828 C1827 1.398 . S
C1828 C1829 1.391 . S
C1829 H1817 0.950 . S
C1829 C1825 1.393 . S
C1829 C1828 1.391 . S
C1830 H1820 0.950 . S
C1830 C1831 1.386 . S
C1830 C1832 1.391 . S
C1831 C1830 1.386 . S
C1831 C1835 1.393 . S
C1832 H1821 0.950 . S
C1832 C1830 1.391 . S
C1832 C1833 1.400 . S
C1833 C1827 1.491 . S
C1833 C1832 1.400 . S
C1833 C1834 1.398 . S
C1834 H1822 0.950 . S
C1834 C1833 1.398 . S
C1834 C1835 1.391 . S
C1835 H1823 0.950 . S
C1835 C1831 1.393 . S
C1835 C1834 1.391 . S
H1836 C1844 0.950 . S
H1837 C1849 0.950 . S
H1838 C1846 0.950 . S
H1839 C1848 0.950 . S
H1840 C1850 0.950 . S
H1841 C1852 0.950 . S
H1842 C1854 0.950 . S
H1843 C1855 0.950 . S
C1844 H1836 0.950 . S
C1844 C1845 1.386 . S
C1844 C1846 1.391 . S
C1845 C1844 1.386 . S
C1845 C1849 1.393 . S
C1846 H1838 0.950 . S
C1846 C1844 1.391 . S
C1846 C1847 1.400 . S
C1847 C1846 1.400 . S
C1847 C1848 1.398 . S
C1847 C1853 1.491 . S
C1848 H1839 0.950 . S
C1848 C1847 1.398 . S
C1848 C1849 1.391 . S
C1849 H1837 0.950 . S
C1849 C1845 1.393 . S
C1849 C1848 1.391 . S
C1850 H1840 0.950 . S
C1850 C1851 1.386 . S
C1850 C1852 1.391 . S
C1851 C1850 1.386 . S
C1851 C1855 1.393 . S
C1852 H1841 0.950 . S
C1852 C1850 1.391 . S
C1852 C1853 1.400 . S
C1853 C1847 1.491 . S
C1853 C1852 1.400 . S
C1853 C1854 1.398 . S
C1854 H1842 0.950 . S
C1854 C1853 1.398 . S
C1854 C1855 1.391 . S
C1855 H1843 0.950 . S
C1855 C1851 1.393 . S
C1855 C1854 1.391 . S
H1856 C1864 0.950 . S
H1857 C1869 0.950 . S
H1858 C1866 0.950 . S
H1859 C1868 0.950 . S
H1860 C1870 0.950 . S
H1861 C1872 0.950 . S
H1862 C1874 0.950 . S
H1863 C1875 0.950 . S
C1864 H1856 0.950 . S
C1864 C1865 1.386 . S
C1864 C1866 1.391 . S
C1865 C1864 1.386 . S
C1865 C1869 1.393 . S
C1866 H1858 0.950 . S
C1866 C1864 1.391 . S
C1866 C1867 1.400 . S
C1867 C1866 1.400 . S
C1867 C1868 1.398 . S
C1867 C1873 1.491 . S
C1868 H1859 0.950 . S
C1868 C1867 1.398 . S
C1868 C1869 1.391 . S
C1869 H1857 0.950 . S
C1869 C1865 1.393 . S
C1869 C1868 1.391 . S
C1870 H1860 0.950 . S
C1870 C1871 1.386 . S
C1870 C1872 1.391 . S
C1871 C1870 1.386 . S
C1871 C1875 1.393 . S
C1872 H1861 0.950 . S
C1872 C1870 1.391 . S
C1872 C1873 1.400 . S
C1873 C1867 1.491 . S
C1873 C1872 1.400 . S
C1873 C1874 1.398 . S
C1874 H1862 0.950 . S
C1874 C1873 1.398 . S
C1874 C1875 1.391 . S
C1875 H1863 0.950 . S
C1875 C1871 1.393 . S
C1875 C1874 1.391 . S
H1876 C1884 0.950 . S
H1877 C1889 0.950 . S
H1878 C1886 0.950 . S
H1879 C1888 0.950 . S
H1880 C1890 0.950 . S
H1881 C1892 0.950 . S
H1882 C1894 0.950 . S
H1883 C1895 0.950 . S
C1884 H1876 0.950 . S
C1884 C1885 1.386 . S
C1884 C1886 1.391 . S
C1885 C1884 1.386 . S
C1885 C1889 1.393 . S
C1886 H1878 0.950 . S
C1886 C1884 1.391 . S
C1886 C1887 1.400 . S
C1887 C1886 1.400 . S
C1887 C1888 1.398 . S
C1887 C1893 1.491 . S
C1888 H1879 0.950 . S
C1888 C1887 1.398 . S
C1888 C1889 1.391 . S
C1889 H1877 0.950 . S
C1889 C1885 1.393 . S
C1889 C1888 1.391 . S
C1890 H1880 0.950 . S
C1890 C1891 1.386 . S
C1890 C1892 1.391 . S
C1891 C1890 1.386 . S
C1891 C1895 1.393 . S
C1892 H1881 0.950 . S
C1892 C1890 1.391 . S
C1892 C1893 1.400 . S
C1893 C1887 1.491 . S
C1893 C1892 1.400 . S
C1893 C1894 1.398 . S
C1894 H1882 0.950 . S
C1894 C1893 1.398 . S
C1894 C1895 1.391 . S
C1895 H1883 0.950 . S
C1895 C1891 1.393 . S
C1895 C1894 1.391 . S
H1896 C1904 0.950 . S
H1897 C1909 0.950 . S
H1898 C1906 0.950 . S
H1899 C1908 0.950 . S
H1900 C1910 0.950 . S
H1901 C1912 0.950 . S
H1902 C1914 0.950 . S
H1903 C1915 0.950 . S
C1904 H1896 0.950 . S
C1904 C1905 1.386 . S
C1904 C1906 1.391 . S
C1905 C1904 1.386 . S
C1905 C1909 1.393 . S
C1906 H1898 0.950 . S
C1906 C1904 1.391 . S
C1906 C1907 1.400 . S
C1907 C1906 1.400 . S
C1907 C1908 1.398 . S
C1907 C1913 1.491 . S
C1908 H1899 0.950 . S
C1908 C1907 1.398 . S
C1908 C1909 1.391 . S
C1909 H1897 0.950 . S
C1909 C1905 1.393 . S
C1909 C1908 1.391 . S
C1910 H1900 0.950 . S
C1910 C1911 1.386 . S
C1910 C1912 1.391 . S
C1911 C1910 1.386 . S
C1911 C1915 1.393 . S
C1912 H1901 0.950 . S
C1912 C1910 1.391 . S
C1912 C1913 1.400 . S
C1913 C1907 1.491 . S
C1913 C1912 1.400 . S
C1913 C1914 1.398 . S
C1914 H1902 0.950 . S
C1914 C1913 1.398 . S
C1914 C1915 1.391 . S
C1915 H1903 0.950 . S
C1915 C1911 1.393 . S
C1915 C1914 1.391 . S
H1916 C1924 0.950 . S
H1917 C1929 0.950 . S
H1918 C1926 0.950 . S
H1919 C1928 0.950 . S
H1920 C1930 0.950 . S
H1921 C1932 0.950 . S
H1922 C1934 0.950 . S
H1923 C1935 0.950 . S
C1924 H1916 0.950 . S
C1924 C1925 1.386 . S
C1924 C1926 1.391 . S
C1925 C1924 1.386 . S
C1925 C1929 1.393 . S
C1926 H1918 0.950 . S
C1926 C1924 1.391 . S
C1926 C1927 1.400 . S
C1927 C1926 1.400 . S
C1927 C1928 1.398 . S
C1927 C1933 1.491 . S
C1928 H1919 0.950 . S
C1928 C1927 1.398 . S
C1928 C1929 1.391 . S
C1929 H1917 0.950 . S
C1929 C1925 1.393 . S
C1929 C1928 1.391 . S
C1930 H1920 0.950 . S
C1930 C1931 1.386 . S
C1930 C1932 1.391 . S
C1931 C1930 1.386 . S
C1931 C1935 1.393 . S
C1932 H1921 0.950 . S
C1932 C1930 1.391 . S
C1932 C1933 1.400 . S
C1933 C1927 1.491 . S
C1933 C1932 1.400 . S
C1933 C1934 1.398 . S
C1934 H1922 0.950 . S
C1934 C1933 1.398 . S
C1934 C1935 1.391 . S
C1935 H1923 0.950 . S
C1935 C1931 1.393 . S
C1935 C1934 1.391 . S
H1936 C1944 0.950 . S
H1937 C1949 0.950 . S
H1938 C1946 0.950 . S
H1939 C1948 0.950 . S
H1940 C1950 0.950 . S
H1941 C1952 0.950 . S
H1942 C1954 0.950 . S
H1943 C1955 0.950 . S
C1944 H1936 0.950 . S
C1944 C1945 1.386 . S
C1944 C1946 1.391 . S
C1945 C1944 1.386 . S
C1945 C1949 1.393 . S
C1946 H1938 0.950 . S
C1946 C1944 1.391 . S
C1946 C1947 1.400 . S
C1947 C1946 1.400 . S
C1947 C1948 1.398 . S
C1947 C1953 1.491 . S
C1948 H1939 0.950 . S
C1948 C1947 1.398 . S
C1948 C1949 1.391 . S
C1949 H1937 0.950 . S
C1949 C1945 1.393 . S
C1949 C1948 1.391 . S
C1950 H1940 0.950 . S
C1950 C1951 1.386 . S
C1950 C1952 1.391 . S
C1951 C1950 1.386 . S
C1951 C1955 1.393 . S
C1952 H1941 0.950 . S
C1952 C1950 1.391 . S
C1952 C1953 1.400 . S
C1953 C1947 1.491 . S
C1953 C1952 1.400 . S
C1953 C1954 1.398 . S
C1954 H1942 0.950 . S
C1954 C1953 1.398 . S
C1954 C1955 1.391 . S
C1955 H1943 0.950 . S
C1955 C1951 1.393 . S
C1955 C1954 1.391 . S
H1956 C1964 0.950 . S
H1957 C1969 0.950 . S
H1958 C1966 0.950 . S
H1959 C1968 0.950 . S
H1960 C1970 0.950 . S
H1961 C1972 0.950 . S
H1962 C1974 0.950 . S
H1963 C1975 0.950 . S
C1964 H1956 0.950 . S
C1964 C1965 1.386 . S
C1964 C1966 1.391 . S
C1965 C1964 1.386 . S
C1965 C1969 1.393 . S
C1966 H1958 0.950 . S
C1966 C1964 1.391 . S
C1966 C1967 1.400 . S
C1967 C1966 1.400 . S
C1967 C1968 1.398 . S
C1967 C1973 1.491 . S
C1968 H1959 0.950 . S
C1968 C1967 1.398 . S
C1968 C1969 1.391 . S
C1969 H1957 0.950 . S
C1969 C1965 1.393 . S
C1969 C1968 1.391 . S
C1970 H1960 0.950 . S
C1970 C1971 1.386 . S
C1970 C1972 1.391 . S
C1971 C1970 1.386 . S
C1971 C1975 1.393 . S
C1972 H1961 0.950 . S
C1972 C1970 1.391 . S
C1972 C1973 1.400 . S
C1973 C1967 1.491 . S
C1973 C1972 1.400 . S
C1973 C1974 1.398 . S
C1974 H1962 0.950 . S
C1974 C1973 1.398 . S
C1974 C1975 1.391 . S
C1975 H1963 0.950 . S
C1975 C1971 1.393 . S
C1975 C1974 1.391 . S
H1976 C1984 0.950 . S
H1977 C1989 0.950 . S
H1978 C1986 0.950 . S
H1979 C1988 0.950 . S
H1980 C1990 0.950 . S
H1981 C1992 0.950 . S
H1982 C1994 0.950 . S
H1983 C1995 0.950 . S
C1984 H1976 0.950 . S
C1984 C1985 1.386 . S
C1984 C1986 1.391 . S
C1985 C1984 1.386 . S
C1985 C1989 1.393 . S
C1986 H1978 0.950 . S
C1986 C1984 1.391 . S
C1986 C1987 1.400 . S
C1987 C1986 1.400 . S
C1987 C1988 1.398 . S
C1987 C1993 1.491 . S
C1988 H1979 0.950 . S
C1988 C1987 1.398 . S
C1988 C1989 1.391 . S
C1989 H1977 0.950 . S
C1989 C1985 1.393 . S
C1989 C1988 1.391 . S
C1990 H1980 0.950 . S
C1990 C1991 1.386 . S
C1990 C1992 1.391 . S
C1991 C1990 1.386 . S
C1991 C1995 1.393 . S
C1992 H1981 0.950 . S
C1992 C1990 1.391 . S
C1992 C1993 1.400 . S
C1993 C1987 1.491 . S
C1993 C1992 1.400 . S
C1993 C1994 1.398 . S
C1994 H1982 0.950 . S
C1994 C1993 1.398 . S
C1994 C1995 1.391 . S
C1995 H1983 0.950 . S
C1995 C1991 1.393 . S
C1995 C1994 1.391 . S
H1996 C2004 0.950 . S
H1997 C2009 0.950 . S
H1998 C2006 0.950 . S
H1999 C2008 0.950 . S
H2000 C2010 0.950 . S
H2001 C2012 0.950 . S
H2002 C2014 0.950 . S
H2003 C2015 0.950 . S
C2004 H1996 0.950 . S
C2004 C2005 1.386 . S
C2004 C2006 1.391 . S
C2005 C2004 1.386 . S
C2005 C2009 1.393 . S
C2006 H1998 0.950 . S
C2006 C2004 1.391 . S
C2006 C2007 1.400 . S
C2007 C2006 1.400 . S
C2007 C2008 1.398 . S
C2007 C2013 1.491 . S
C2008 H1999 0.950 . S
C2008 C2007 1.398 . S
C2008 C2009 1.391 . S
C2009 H1997 0.950 . S
C2009 C2005 1.393 . S
C2009 C2008 1.391 . S
C2010 H2000 0.950 . S
C2010 C2011 1.386 . S
C2010 C2012 1.391 . S
C2011 C2010 1.386 . S
C2011 C2015 1.393 . S
C2012 H2001 0.950 . S
C2012 C2010 1.391 . S
C2012 C2013 1.400 . S
C2013 C2007 1.491 . S
C2013 C2012 1.400 . S
C2013 C2014 1.398 . S
C2014 H2002 0.950 . S
C2014 C2013 1.398 . S
C2014 C2015 1.391 . S
C2015 H2003 0.950 . S
C2015 C2011 1.393 . S
C2015 C2014 1.391 . S
H2016 C2024 0.950 . S
H2017 C2029 0.950 . S
H2018 C2026 0.950 . S
H2019 C2028 0.950 . S
H2020 C2030 0.950 . S
H2021 C2032 0.950 . S
H2022 C2034 0.950 . S
H2023 C2035 0.950 . S
C2024 H2016 0.950 . S
C2024 C2025 1.386 . S
C2024 C2026 1.391 . S
C2025 C2024 1.386 . S
C2025 C2029 1.393 . S
C2026 H2018 0.950 . S
C2026 C2024 1.391 . S
C2026 C2027 1.400 . S
C2027 C2026 1.400 . S
C2027 C2028 1.398 . S
C2027 C2033 1.491 . S
C2028 H2019 0.950 . S
C2028 C2027 1.398 . S
C2028 C2029 1.391 . S
C2029 H2017 0.950 . S
C2029 C2025 1.393 . S
C2029 C2028 1.391 . S
C2030 H2020 0.950 . S
C2030 C2031 1.386 . S
C2030 C2032 1.391 . S
C2031 C2030 1.386 . S
C2031 C2035 1.393 . S
C2032 H2021 0.950 . S
C2032 C2030 1.391 . S
C2032 C2033 1.400 . S
C2033 C2027 1.491 . S
C2033 C2032 1.400 . S
C2033 C2034 1.398 . S
C2034 H2022 0.950 . S
C2034 C2033 1.398 . S
C2034 C2035 1.391 . S
C2035 H2023 0.950 . S
C2035 C2031 1.393 . S
C2035 C2034 1.391 . S
H2036 C2044 0.950 . S
H2037 C2049 0.950 . S
H2038 C2046 0.950 . S
H2039 C2048 0.950 . S
H2040 C2050 0.950 . S
H2041 C2052 0.950 . S
H2042 C2054 0.950 . S
H2043 C2055 0.950 . S
C2044 H2036 0.950 . S
C2044 C2045 1.386 . S
C2044 C2046 1.391 . S
C2045 C2044 1.386 . S
C2045 C2049 1.393 . S
C2046 H2038 0.950 . S
C2046 C2044 1.391 . S
C2046 C2047 1.400 . S
C2047 C2046 1.400 . S
C2047 C2048 1.398 . S
C2047 C2053 1.491 . S
C2048 H2039 0.950 . S
C2048 C2047 1.398 . S
C2048 C2049 1.391 . S
C2049 H2037 0.950 . S
C2049 C2045 1.393 . S
C2049 C2048 1.391 . S
C2050 H2040 0.950 . S
C2050 C2051 1.386 . S
C2050 C2052 1.391 . S
C2051 C2050 1.386 . S
C2051 C2055 1.393 . S
C2052 H2041 0.950 . S
C2052 C2050 1.391 . S
C2052 C2053 1.400 . S
C2053 C2047 1.491 . S
C2053 C2052 1.400 . S
C2053 C2054 1.398 . S
C2054 H2042 0.950 . S
C2054 C2053 1.398 . S
C2054 C2055 1.391 . S
C2055 H2043 0.950 . S
C2055 C2051 1.393 . S
C2055 C2054 1.391 . S
H2056 C2064 0.950 . S
H2057 C2069 0.950 . S
H2058 C2066 0.950 . S
H2059 C2068 0.950 . S
H2060 C2070 0.950 . S
H2061 C2072 0.950 . S
H2062 C2074 0.950 . S
H2063 C2075 0.950 . S
C2064 H2056 0.950 . S
C2064 C2065 1.386 . S
C2064 C2066 1.391 . S
C2065 C2064 1.386 . S
C2065 C2069 1.393 . S
C2066 H2058 0.950 . S
C2066 C2064 1.391 . S
C2066 C2067 1.400 . S
C2067 C2066 1.400 . S
C2067 C2068 1.398 . S
C2067 C2073 1.491 . S
C2068 H2059 0.950 . S
C2068 C2067 1.398 . S
C2068 C2069 1.391 . S
C2069 H2057 0.950 . S
C2069 C2065 1.393 . S
C2069 C2068 1.391 . S
C2070 H2060 0.950 . S
C2070 C2071 1.386 . S
C2070 C2072 1.391 . S
C2071 C2070 1.386 . S
C2071 C2075 1.393 . S
C2072 H2061 0.950 . S
C2072 C2070 1.391 . S
C2072 C2073 1.400 . S
C2073 C2067 1.491 . S
C2073 C2072 1.400 . S
C2073 C2074 1.398 . S
C2074 H2062 0.950 . S
C2074 C2073 1.398 . S
C2074 C2075 1.391 . S
C2075 H2063 0.950 . S
C2075 C2071 1.393 . S
C2075 C2074 1.391 . S
H2076 C2084 0.950 . S
H2077 C2089 0.950 . S
H2078 C2086 0.950 . S
H2079 C2088 0.950 . S
H2080 C2090 0.950 . S
H2081 C2092 0.950 . S
H2082 C2094 0.950 . S
H2083 C2095 0.950 . S
C2084 H2076 0.950 . S
C2084 C2085 1.386 . S
C2084 C2086 1.391 . S
C2085 C2084 1.386 . S
C2085 C2089 1.393 . S
C2086 H2078 0.950 . S
C2086 C2084 1.391 . S
C2086 C2087 1.400 . S
C2087 C2086 1.400 . S
C2087 C2088 1.398 . S
C2087 C2093 1.491 . S
C2088 H2079 0.950 . S
C2088 C2087 1.398 . S
C2088 C2089 1.391 . S
C2089 H2077 0.950 . S
C2089 C2085 1.393 . S
C2089 C2088 1.391 . S
C2090 H2080 0.950 . S
C2090 C2091 1.386 . S
C2090 C2092 1.391 . S
C2091 C2090 1.386 . S
C2091 C2095 1.393 . S
C2092 H2081 0.950 . S
C2092 C2090 1.391 . S
C2092 C2093 1.400 . S
C2093 C2087 1.491 . S
C2093 C2092 1.400 . S
C2093 C2094 1.398 . S
C2094 H2082 0.950 . S
C2094 C2093 1.398 . S
C2094 C2095 1.391 . S
C2095 H2083 0.950 . S
C2095 C2091 1.393 . S
C2095 C2094 1.391 . S
H2096 C2104 0.950 . S
H2097 C2109 0.950 . S
H2098 C2106 0.950 . S
H2099 C2108 0.950 . S
H2100 C2110 0.950 . S
H2101 C2112 0.950 . S
H2102 C2114 0.950 . S
H2103 C2115 0.950 . S
C2104 H2096 0.950 . S
C2104 C2105 1.386 . S
C2104 C2106 1.391 . S
C2105 C2104 1.386 . S
C2105 C2109 1.393 . S
C2106 H2098 0.950 . S
C2106 C2104 1.391 . S
C2106 C2107 1.400 . S
C2107 C2106 1.400 . S
C2107 C2108 1.398 . S
C2107 C2113 1.491 . S
C2108 H2099 0.950 . S
C2108 C2107 1.398 . S
C2108 C2109 1.391 . S
C2109 H2097 0.950 . S
C2109 C2105 1.393 . S
C2109 C2108 1.391 . S
C2110 H2100 0.950 . S
C2110 C2111 1.386 . S
C2110 C2112 1.391 . S
C2111 C2110 1.386 . S
C2111 C2115 1.393 . S
C2112 H2101 0.950 . S
C2112 C2110 1.391 . S
C2112 C2113 1.400 . S
C2113 C2107 1.491 . S
C2113 C2112 1.400 . S
C2113 C2114 1.398 . S
C2114 H2102 0.950 . S
C2114 C2113 1.398 . S
C2114 C2115 1.391 . S
C2115 H2103 0.950 . S
C2115 C2111 1.393 . S
C2115 C2114 1.391 . S
H2116 C2124 0.950 . S
H2117 C2129 0.950 . S
H2118 C2126 0.950 . S
H2119 C2128 0.950 . S
H2120 C2130 0.950 . S
H2121 C2132 0.950 . S
H2122 C2134 0.950 . S
H2123 C2135 0.950 . S
C2124 H2116 0.950 . S
C2124 C2125 1.386 . S
C2124 C2126 1.391 . S
C2125 C2124 1.386 . S
C2125 C2129 1.393 . S
C2126 H2118 0.950 . S
C2126 C2124 1.391 . S
C2126 C2127 1.400 . S
C2127 C2126 1.400 . S
C2127 C2128 1.398 . S
C2127 C2133 1.491 . S
C2128 H2119 0.950 . S
C2128 C2127 1.398 . S
C2128 C2129 1.391 . S
C2129 H2117 0.950 . S
C2129 C2125 1.393 . S
C2129 C2128 1.391 . S
C2130 H2120 0.950 . S
C2130 C2131 1.386 . S
C2130 C2132 1.391 . S
C2131 C2130 1.386 . S
C2131 C2135 1.393 . S
C2132 H2121 0.950 . S
C2132 C2130 1.391 . S
C2132 C2133 1.400 . S
C2133 C2127 1.491 . S
C2133 C2132 1.400 . S
C2133 C2134 1.398 . S
C2134 H2122 0.950 . S
C2134 C2133 1.398 . S
C2134 C2135 1.391 . S
C2135 H2123 0.950 . S
C2135 C2131 1.393 . S
C2135 C2134 1.391 . S
H2136 C2144 0.950 . S
H2137 C2149 0.950 . S
H2138 C2146 0.950 . S
H2139 C2148 0.950 . S
H2140 C2150 0.950 . S
H2141 C2152 0.950 . S
H2142 C2154 0.950 . S
H2143 C2155 0.950 . S
C2144 H2136 0.950 . S
C2144 C2145 1.386 . S
C2144 C2146 1.391 . S
C2145 C2144 1.386 . S
C2145 C2149 1.393 . S
C2146 H2138 0.950 . S
C2146 C2144 1.391 . S
C2146 C2147 1.400 . S
C2147 C2146 1.400 . S
C2147 C2148 1.398 . S
C2147 C2153 1.491 . S
C2148 H2139 0.950 . S
C2148 C2147 1.398 . S
C2148 C2149 1.391 . S
C2149 H2137 0.950 . S
C2149 C2145 1.393 . S
C2149 C2148 1.391 . S
C2150 H2140 0.950 . S
C2150 C2151 1.386 . S
C2150 C2152 1.391 . S
C2151 C2150 1.386 . S
C2151 C2155 1.393 . S
C2152 H2141 0.950 . S
C2152 C2150 1.391 . S
C2152 C2153 1.400 . S
C2153 C2147 1.491 . S
C2153 C2152 1.400 . S
C2153 C2154 1.398 . S
C2154 H2142 0.950 . S
C2154 C2153 1.398 . S
C2154 C2155 1.391 . S
C2155 H2143 0.950 . S
C2155 C2151 1.393 . S
C2155 C2154 1.391 . S
H2156 C2164 0.950 . S
H2157 C2169 0.950 . S
H2158 C2166 0.950 . S
H2159 C2168 0.950 . S
H2160 C2170 0.950 . S
H2161 C2172 0.950 . S
H2162 C2174 0.950 . S
H2163 C2175 0.950 . S
C2164 H2156 0.950 . S
C2164 C2165 1.386 . S
C2164 C2166 1.391 . S
C2165 C2164 1.386 . S
C2165 C2169 1.393 . S
C2166 H2158 0.950 . S
C2166 C2164 1.391 . S
C2166 C2167 1.400 . S
C2167 C2166 1.400 . S
C2167 C2168 1.398 . S
C2167 C2173 1.491 . S
C2168 H2159 0.950 . S
C2168 C2167 1.398 . S
C2168 C2169 1.391 . S
C2169 H2157 0.950 . S
C2169 C2165 1.393 . S
C2169 C2168 1.391 . S
C2170 H2160 0.950 . S
C2170 C2171 1.386 . S
C2170 C2172 1.391 . S
C2171 C2170 1.386 . S
C2171 C2175 1.393 . S
C2172 H2161 0.950 . S
C2172 C2170 1.391 . S
C2172 C2173 1.400 . S
C2173 C2167 1.491 . S
C2173 C2172 1.400 . S
C2173 C2174 1.398 . S
C2174 H2162 0.950 . S
C2174 C2173 1.398 . S
C2174 C2175 1.391 . S
C2175 H2163 0.950 . S
C2175 C2171 1.393 . S
C2175 C2174 1.391 . S
H2176 C2184 0.950 . S
H2177 C2189 0.950 . S
H2178 C2186 0.950 . S
H2179 C2188 0.950 . S
H2180 C2190 0.950 . S
H2181 C2192 0.950 . S
H2182 C2194 0.950 . S
H2183 C2195 0.950 . S
C2184 H2176 0.950 . S
C2184 C2185 1.386 . S
C2184 C2186 1.391 . S
C2185 C2184 1.386 . S
C2185 C2189 1.393 . S
C2186 H2178 0.950 . S
C2186 C2184 1.391 . S
C2186 C2187 1.400 . S
C2187 C2186 1.400 . S
C2187 C2188 1.398 . S
C2187 C2193 1.491 . S
C2188 H2179 0.950 . S
C2188 C2187 1.398 . S
C2188 C2189 1.391 . S
C2189 H2177 0.950 . S
C2189 C2185 1.393 . S
C2189 C2188 1.391 . S
C2190 H2180 0.950 . S
C2190 C2191 1.386 . S
C2190 C2192 1.391 . S
C2191 C2190 1.386 . S
C2191 C2195 1.393 . S
C2192 H2181 0.950 . S
C2192 C2190 1.391 . S
C2192 C2193 1.400 . S
C2193 C2187 1.491 . S
C2193 C2192 1.400 . S
C2193 C2194 1.398 . S
C2194 H2182 0.950 . S
C2194 C2193 1.398 . S
C2194 C2195 1.391 . S
C2195 H2183 0.950 . S
C2195 C2191 1.393 . S
C2195 C2194 1.391 . S
H2196 C2204 0.950 . S
H2197 C2209 0.950 . S
H2198 C2206 0.950 . S
H2199 C2208 0.950 . S
H2200 C2210 0.950 . S
H2201 C2212 0.950 . S
H2202 C2214 0.950 . S
H2203 C2215 0.950 . S
C2204 H2196 0.950 . S
C2204 C2205 1.386 . S
C2204 C2206 1.391 . S
C2205 C2204 1.386 . S
C2205 C2209 1.393 . S
C2206 H2198 0.950 . S
C2206 C2204 1.391 . S
C2206 C2207 1.400 . S
C2207 C2206 1.400 . S
C2207 C2208 1.398 . S
C2207 C2213 1.491 . S
C2208 H2199 0.950 . S
C2208 C2207 1.398 . S
C2208 C2209 1.391 . S
C2209 H2197 0.950 . S
C2209 C2205 1.393 . S
C2209 C2208 1.391 . S
C2210 H2200 0.950 . S
C2210 C2211 1.386 . S
C2210 C2212 1.391 . S
C2211 C2210 1.386 . S
C2211 C2215 1.393 . S
C2212 H2201 0.950 . S
C2212 C2210 1.391 . S
C2212 C2213 1.400 . S
C2213 C2207 1.491 . S
C2213 C2212 1.400 . S
C2213 C2214 1.398 . S
C2214 H2202 0.950 . S
C2214 C2213 1.398 . S
C2214 C2215 1.391 . S
C2215 H2203 0.950 . S
C2215 C2211 1.393 . S
C2215 C2214 1.391 . S
H2216 C2224 0.950 . S
H2217 C2229 0.950 . S
H2218 C2226 0.950 . S
H2219 C2228 0.950 . S
H2220 C2230 0.950 . S
H2221 C2232 0.950 . S
H2222 C2234 0.950 . S
H2223 C2235 0.950 . S
C2224 H2216 0.950 . S
C2224 C2225 1.386 . S
C2224 C2226 1.391 . S
C2225 C2224 1.386 . S
C2225 C2229 1.393 . S
C2226 H2218 0.950 . S
C2226 C2224 1.391 . S
C2226 C2227 1.400 . S
C2227 C2226 1.400 . S
C2227 C2228 1.398 . S
C2227 C2233 1.491 . S
C2228 H2219 0.950 . S
C2228 C2227 1.398 . S
C2228 C2229 1.391 . S
C2229 H2217 0.950 . S
C2229 C2225 1.393 . S
C2229 C2228 1.391 . S
C2230 H2220 0.950 . S
C2230 C2231 1.386 . S
C2230 C2232 1.391 . S
C2231 C2230 1.386 . S
C2231 C2235 1.393 . S
C2232 H2221 0.950 . S
C2232 C2230 1.391 . S
C2232 C2233 1.400 . S
C2233 C2227 1.491 . S
C2233 C2232 1.400 . S
C2233 C2234 1.398 . S
C2234 H2222 0.950 . S
C2234 C2233 1.398 . S
C2234 C2235 1.391 . S
C2235 H2223 0.950 . S
C2235 C2231 1.393 . S
C2235 C2234 1.391 . S
H2236 C2244 0.950 . S
H2237 C2249 0.950 . S
H2238 C2246 0.950 . S
H2239 C2248 0.950 . S
H2240 C2250 0.950 . S
H2241 C2252 0.950 . S
H2242 C2254 0.950 . S
H2243 C2255 0.950 . S
C2244 H2236 0.950 . S
C2244 C2245 1.386 . S
C2244 C2246 1.391 . S
C2245 C2244 1.386 . S
C2245 C2249 1.393 . S
C2246 H2238 0.950 . S
C2246 C2244 1.391 . S
C2246 C2247 1.400 . S
C2247 C2246 1.400 . S
C2247 C2248 1.398 . S
C2247 C2253 1.491 . S
C2248 H2239 0.950 . S
C2248 C2247 1.398 . S
C2248 C2249 1.391 . S
C2249 H2237 0.950 . S
C2249 C2245 1.393 . S
C2249 C2248 1.391 . S
C2250 H2240 0.950 . S
C2250 C2251 1.386 . S
C2250 C2252 1.391 . S
C2251 C2250 1.386 . S
C2251 C2255 1.393 . S
C2252 H2241 0.950 . S
C2252 C2250 1.391 . S
C2252 C2253 1.400 . S
C2253 C2247 1.491 . S
C2253 C2252 1.400 . S
C2253 C2254 1.398 . S
C2254 H2242 0.950 . S
C2254 C2253 1.398 . S
C2254 C2255 1.391 . S
C2255 H2243 0.950 . S
C2255 C2251 1.393 . S
C2255 C2254 1.391 . S
H2256 C2264 0.950 . S
H2257 C2269 0.950 . S
H2258 C2266 0.950 . S
H2259 C2268 0.950 . S
H2260 C2270 0.950 . S
H2261 C2272 0.950 . S
H2262 C2274 0.950 . S
H2263 C2275 0.950 . S
C2264 H2256 0.950 . S
C2264 C2265 1.386 . S
C2264 C2266 1.391 . S
C2265 C2264 1.386 . S
C2265 C2269 1.393 . S
C2266 H2258 0.950 . S
C2266 C2264 1.391 . S
C2266 C2267 1.400 . S
C2267 C2266 1.400 . S
C2267 C2268 1.398 . S
C2267 C2273 1.491 . S
C2268 H2259 0.950 . S
C2268 C2267 1.398 . S
C2268 C2269 1.391 . S
C2269 H2257 0.950 . S
C2269 C2265 1.393 . S
C2269 C2268 1.391 . S
C2270 H2260 0.950 . S
C2270 C2271 1.386 . S
C2270 C2272 1.391 . S
C2271 C2270 1.386 . S
C2271 C2275 1.393 . S
C2272 H2261 0.950 . S
C2272 C2270 1.391 . S
C2272 C2273 1.400 . S
C2273 C2267 1.491 . S
C2273 C2272 1.400 . S
C2273 C2274 1.398 . S
C2274 H2262 0.950 . S
C2274 C2273 1.398 . S
C2274 C2275 1.391 . S
C2275 H2263 0.950 . S
C2275 C2271 1.393 . S
C2275 C2274 1.391 . S
H2276 C2284 0.950 . S
H2277 C2289 0.950 . S
H2278 C2286 0.950 . S
H2279 C2288 0.950 . S
H2280 C2290 0.950 . S
H2281 C2292 0.950 . S
H2282 C2294 0.950 . S
H2283 C2295 0.950 . S
C2284 H2276 0.950 . S
C2284 C2285 1.386 . S
C2284 C2286 1.391 . S
C2285 C2284 1.386 . S
C2285 C2289 1.393 . S
C2286 H2278 0.950 . S
C2286 C2284 1.391 . S
C2286 C2287 1.400 . S
C2287 C2286 1.400 . S
C2287 C2288 1.398 . S
C2287 C2293 1.491 . S
C2288 H2279 0.950 . S
C2288 C2287 1.398 . S
C2288 C2289 1.391 . S
C2289 H2277 0.950 . S
C2289 C2285 1.393 . S
C2289 C2288 1.391 . S
C2290 H2280 0.950 . S
C2290 C2291 1.386 . S
C2290 C2292 1.391 . S
C2291 C2290 1.386 . S
C2291 C2295 1.393 . S
C2292 H2281 0.950 . S
C2292 C2290 1.391 . S
C2292 C2293 1.400 . S
C2293 C2287 1.491 . S
C2293 C2292 1.400 . S
C2293 C2294 1.398 . S
C2294 H2282 0.950 . S
C2294 C2293 1.398 . S
C2294 C2295 1.391 . S
C2295 H2283 0.950 . S
C2295 C2291 1.393 . S
C2295 C2294 1.391 . S
H2296 C2304 0.950 . S
H2297 C2309 0.950 . S
H2298 C2306 0.950 . S
H2299 C2308 0.950 . S
H2300 C2310 0.950 . S
H2301 C2312 0.950 . S
H2302 C2314 0.950 . S
H2303 C2315 0.950 . S
C2304 H2296 0.950 . S
C2304 C2305 1.386 . S
C2304 C2306 1.391 . S
C2305 C2304 1.386 . S
C2305 C2309 1.393 . S
C2306 H2298 0.950 . S
C2306 C2304 1.391 . S
C2306 C2307 1.400 . S
C2307 C2306 1.400 . S
C2307 C2308 1.398 . S
C2307 C2313 1.491 . S
C2308 H2299 0.950 . S
C2308 C2307 1.398 . S
C2308 C2309 1.391 . S
C2309 H2297 0.950 . S
C2309 C2305 1.393 . S
C2309 C2308 1.391 . S
C2310 H2300 0.950 . S
C2310 C2311 1.386 . S
C2310 C2312 1.391 . S
C2311 C2310 1.386 . S
C2311 C2315 1.393 . S
C2312 H2301 0.950 . S
C2312 C2310 1.391 . S
C2312 C2313 1.400 . S
C2313 C2307 1.491 . S
C2313 C2312 1.400 . S
C2313 C2314 1.398 . S
C2314 H2302 0.950 . S
C2314 C2313 1.398 . S
C2314 C2315 1.391 . S
C2315 H2303 0.950 . S
C2315 C2311 1.393 . S
C2315 C2314 1.391 . S
H2316 C2324 0.950 1_554 S
H2317 C2329 0.950 . S
H2318 C2326 0.950 . S
H2319 C2328 0.950 . S
H2320 C2330 0.950 . S
H2321 C2332 0.950 . S
H2322 C2334 0.950 . S
H2323 C2335 0.950 . S
C2324 H2316 0.950 1_556 S
C2324 C2325 1.386 . S
C2324 C2326 1.391 . S
C2325 C2324 1.386 . S
C2325 C2329 1.393 . S
C2326 H2318 0.950 . S
C2326 C2324 1.391 . S
C2326 C2327 1.400 . S
C2327 C2326 1.400 . S
C2327 C2328 1.398 . S
C2327 C2333 1.491 . S
C2328 H2319 0.950 . S
C2328 C2327 1.398 . S
C2328 C2329 1.391 . S
C2329 H2317 0.950 . S
C2329 C2325 1.393 . S
C2329 C2328 1.391 . S
C2330 H2320 0.950 . S
C2330 C2331 1.386 . S
C2330 C2332 1.391 . S
C2331 C2330 1.386 . S
C2331 C2335 1.393 . S
C2332 H2321 0.950 . S
C2332 C2330 1.391 . S
C2332 C2333 1.400 . S
C2333 C2327 1.491 . S
C2333 C2332 1.400 . S
C2333 C2334 1.398 . S
C2334 H2322 0.950 . S
C2334 C2333 1.398 . S
C2334 C2335 1.391 . S
C2335 H2323 0.950 . S
C2335 C2331 1.393 . S
C2335 C2334 1.391 . S
H2336 C2344 0.950 . S
H2337 C2349 0.950 . S
H2338 C2346 0.950 . S
H2339 C2348 0.950 . S
H2340 C2350 0.950 . S
H2341 C2352 0.950 . S
H2342 C2354 0.950 . S
H2343 C2355 0.950 . S
C2344 H2336 0.950 . S
C2344 C2345 1.386 . S
C2344 C2346 1.391 . S
C2345 C2344 1.386 . S
C2345 C2349 1.393 . S
C2346 H2338 0.950 . S
C2346 C2344 1.391 . S
C2346 C2347 1.400 . S
C2347 C2346 1.400 . S
C2347 C2348 1.398 . S
C2347 C2353 1.491 . S
C2348 H2339 0.950 . S
C2348 C2347 1.398 . S
C2348 C2349 1.391 . S
C2349 H2337 0.950 . S
C2349 C2345 1.393 . S
C2349 C2348 1.391 . S
C2350 H2340 0.950 . S
C2350 C2351 1.386 . S
C2350 C2352 1.391 . S
C2351 C2350 1.386 . S
C2351 C2355 1.393 . S
C2352 H2341 0.950 . S
C2352 C2350 1.391 . S
C2352 C2353 1.400 . S
C2353 C2347 1.491 . S
C2353 C2352 1.400 . S
C2353 C2354 1.398 . S
C2354 H2342 0.950 . S
C2354 C2353 1.398 . S
C2354 C2355 1.391 . S
C2355 H2343 0.950 . S
C2355 C2351 1.393 . S
C2355 C2354 1.391 . S
H2356 C2364 0.950 . S
H2357 C2369 0.950 . S
H2358 C2366 0.950 . S
H2359 C2368 0.950 . S
H2360 C2370 0.950 . S
H2361 C2372 0.950 . S
H2362 C2374 0.950 . S
H2363 C2375 0.950 . S
C2364 H2356 0.950 . S
C2364 C2365 1.386 . S
C2364 C2366 1.391 . S
C2365 C2364 1.386 . S
C2365 C2369 1.393 . S
C2366 H2358 0.950 . S
C2366 C2364 1.391 . S
C2366 C2367 1.400 . S
C2367 C2366 1.400 . S
C2367 C2368 1.398 . S
C2367 C2373 1.491 . S
C2368 H2359 0.950 . S
C2368 C2367 1.398 . S
C2368 C2369 1.391 . S
C2369 H2357 0.950 . S
C2369 C2365 1.393 . S
C2369 C2368 1.391 . S
C2370 H2360 0.950 . S
C2370 C2371 1.386 . S
C2370 C2372 1.391 . S
C2371 C2370 1.386 . S
C2371 C2375 1.393 . S
C2372 H2361 0.950 . S
C2372 C2370 1.391 . S
C2372 C2373 1.400 . S
C2373 C2367 1.491 . S
C2373 C2372 1.400 . S
C2373 C2374 1.398 . S
C2374 H2362 0.950 . S
C2374 C2373 1.398 . S
C2374 C2375 1.391 . S
C2375 H2363 0.950 . S
C2375 C2371 1.393 . S
C2375 C2374 1.391 . S
H2376 C2384 0.950 . S
H2377 C2389 0.950 . S
H2378 C2386 0.950 . S
H2379 C2388 0.950 . S
H2380 C2390 0.950 . S
H2381 C2392 0.950 . S
H2382 C2394 0.950 . S
H2383 C2395 0.950 . S
C2384 H2376 0.950 . S
C2384 C2385 1.386 . S
C2384 C2386 1.391 . S
C2385 C2384 1.386 . S
C2385 C2389 1.393 . S
C2386 H2378 0.950 . S
C2386 C2384 1.391 . S
C2386 C2387 1.400 . S
C2387 C2386 1.400 . S
C2387 C2388 1.398 . S
C2387 C2393 1.491 . S
C2388 H2379 0.950 . S
C2388 C2387 1.398 . S
C2388 C2389 1.391 . S
C2389 H2377 0.950 . S
C2389 C2385 1.393 . S
C2389 C2388 1.391 . S
C2390 H2380 0.950 . S
C2390 C2391 1.386 . S
C2390 C2392 1.391 . S
C2391 C2390 1.386 . S
C2391 C2395 1.393 . S
C2392 H2381 0.950 . S
C2392 C2390 1.391 . S
C2392 C2393 1.400 . S
C2393 C2387 1.491 . S
C2393 C2392 1.400 . S
C2393 C2394 1.398 . S
C2394 H2382 0.950 . S
C2394 C2393 1.398 . S
C2394 C2395 1.391 . S
C2395 H2383 0.950 . S
C2395 C2391 1.393 . S
C2395 C2394 1.391 . S
H2396 C2404 0.950 . S
H2397 C2409 0.950 . S
H2398 C2406 0.950 . S
H2399 C2408 0.950 . S
H2400 C2410 0.950 . S
H2401 C2412 0.950 . S
H2402 C2414 0.950 . S
H2403 C2415 0.950 . S
C2404 H2396 0.950 . S
C2404 C2405 1.386 . S
C2404 C2406 1.391 . S
C2405 C2404 1.386 . S
C2405 C2409 1.393 . S
C2406 H2398 0.950 . S
C2406 C2404 1.391 . S
C2406 C2407 1.400 . S
C2407 C2406 1.400 . S
C2407 C2408 1.398 . S
C2407 C2413 1.491 . S
C2408 H2399 0.950 . S
C2408 C2407 1.398 . S
C2408 C2409 1.391 . S
C2409 H2397 0.950 . S
C2409 C2405 1.393 . S
C2409 C2408 1.391 . S
C2410 H2400 0.950 . S
C2410 C2411 1.386 . S
C2410 C2412 1.391 . S
C2411 C2410 1.386 . S
C2411 C2415 1.393 . S
C2412 H2401 0.950 . S
C2412 C2410 1.391 . S
C2412 C2413 1.400 . S
C2413 C2407 1.491 . S
C2413 C2412 1.400 . S
C2413 C2414 1.398 . S
C2414 H2402 0.950 . S
C2414 C2413 1.398 . S
C2414 C2415 1.391 . S
C2415 H2403 0.950 . S
C2415 C2411 1.393 . S
C2415 C2414 1.391 . S
H2416 C2424 0.950 . S
H2417 C2429 0.950 . S
H2418 C2426 0.950 . S
H2419 C2428 0.950 . S
H2420 C2430 0.950 . S
H2421 C2432 0.950 . S
H2422 C2434 0.950 . S
H2423 C2435 0.950 . S
C2424 H2416 0.950 . S
C2424 C2425 1.386 . S
C2424 C2426 1.391 . S
C2425 C2424 1.386 . S
C2425 C2429 1.393 . S
C2426 H2418 0.950 . S
C2426 C2424 1.391 . S
C2426 C2427 1.400 . S
C2427 C2426 1.400 . S
C2427 C2428 1.398 . S
C2427 C2433 1.491 . S
C2428 H2419 0.950 . S
C2428 C2427 1.398 . S
C2428 C2429 1.391 . S
C2429 H2417 0.950 . S
C2429 C2425 1.393 . S
C2429 C2428 1.391 . S
C2430 H2420 0.950 . S
C2430 C2431 1.386 . S
C2430 C2432 1.391 . S
C2431 C2430 1.386 . S
C2431 C2435 1.393 . S
C2432 H2421 0.950 . S
C2432 C2430 1.391 . S
C2432 C2433 1.400 . S
C2433 C2427 1.491 . S
C2433 C2432 1.400 . S
C2433 C2434 1.398 . S
C2434 H2422 0.950 . S
C2434 C2433 1.398 . S
C2434 C2435 1.391 . S
C2435 H2423 0.950 . S
C2435 C2431 1.393 . S
C2435 C2434 1.391 . S
H2436 C2444 0.950 . S
H2437 C2449 0.950 . S
H2438 C2446 0.950 . S
H2439 C2448 0.950 . S
H2440 C2450 0.950 . S
H2441 C2452 0.950 . S
H2442 C2454 0.950 . S
H2443 C2455 0.950 . S
C2444 H2436 0.950 . S
C2444 C2445 1.386 . S
C2444 C2446 1.391 . S
C2445 C2444 1.386 . S
C2445 C2449 1.393 . S
C2446 H2438 0.950 . S
C2446 C2444 1.391 . S
C2446 C2447 1.400 . S
C2447 C2446 1.400 . S
C2447 C2448 1.398 . S
C2447 C2453 1.491 . S
C2448 H2439 0.950 . S
C2448 C2447 1.398 . S
C2448 C2449 1.391 . S
C2449 H2437 0.950 . S
C2449 C2445 1.393 . S
C2449 C2448 1.391 . S
C2450 H2440 0.950 . S
C2450 C2451 1.386 . S
C2450 C2452 1.391 . S
C2451 C2450 1.386 . S
C2451 C2455 1.393 . S
C2452 H2441 0.950 . S
C2452 C2450 1.391 . S
C2452 C2453 1.400 . S
C2453 C2447 1.491 . S
C2453 C2452 1.400 . S
C2453 C2454 1.398 . S
C2454 H2442 0.950 . S
C2454 C2453 1.398 . S
C2454 C2455 1.391 . S
C2455 H2443 0.950 . S
C2455 C2451 1.393 . S
C2455 C2454 1.391 . S
H2456 C2464 0.950 . S
H2457 C2469 0.950 . S
H2458 C2466 0.950 . S
H2459 C2468 0.950 . S
H2460 C2470 0.950 . S
H2461 C2472 0.950 . S
H2462 C2474 0.950 . S
H2463 C2475 0.950 . S
C2464 H2456 0.950 . S
C2464 C2465 1.386 . S
C2464 C2466 1.391 . S
C2465 C2464 1.386 . S
C2465 C2469 1.393 . S
C2466 H2458 0.950 . S
C2466 C2464 1.391 . S
C2466 C2467 1.400 . S
C2467 C2466 1.400 . S
C2467 C2468 1.398 . S
C2467 C2473 1.491 . S
C2468 H2459 0.950 . S
C2468 C2467 1.398 . S
C2468 C2469 1.391 . S
C2469 H2457 0.950 . S
C2469 C2465 1.393 . S
C2469 C2468 1.391 . S
C2470 H2460 0.950 . S
C2470 C2471 1.386 . S
C2470 C2472 1.391 . S
C2471 C2470 1.386 . S
C2471 C2475 1.393 . S
C2472 H2461 0.950 . S
C2472 C2470 1.391 . S
C2472 C2473 1.400 . S
C2473 C2467 1.491 . S
C2473 C2472 1.400 . S
C2473 C2474 1.398 . S
C2474 H2462 0.950 . S
C2474 C2473 1.398 . S
C2474 C2475 1.391 . S
C2475 H2463 0.950 . S
C2475 C2471 1.393 . S
C2475 C2474 1.391 . S
H2476 C2484 0.950 . S
H2477 C2489 0.950 . S
H2478 C2486 0.950 . S
H2479 C2488 0.950 . S
H2480 C2490 0.950 . S
H2481 C2492 0.950 . S
H2482 C2494 0.950 . S
H2483 C2495 0.950 . S
C2484 H2476 0.950 . S
C2484 C2485 1.386 . S
C2484 C2486 1.391 . S
C2485 C2484 1.386 . S
C2485 C2489 1.393 . S
C2486 H2478 0.950 . S
C2486 C2484 1.391 . S
C2486 C2487 1.400 . S
C2487 C2486 1.400 . S
C2487 C2488 1.398 . S
C2487 C2493 1.491 . S
C2488 H2479 0.950 . S
C2488 C2487 1.398 . S
C2488 C2489 1.391 . S
C2489 H2477 0.950 . S
C2489 C2485 1.393 . S
C2489 C2488 1.391 . S
C2490 H2480 0.950 . S
C2490 C2491 1.386 . S
C2490 C2492 1.391 . S
C2491 C2490 1.386 . S
C2491 C2495 1.393 . S
C2492 H2481 0.950 . S
C2492 C2490 1.391 . S
C2492 C2493 1.400 . S
C2493 C2487 1.491 . S
C2493 C2492 1.400 . S
C2493 C2494 1.398 . S
C2494 H2482 0.950 . S
C2494 C2493 1.398 . S
C2494 C2495 1.391 . S
C2495 H2483 0.950 . S
C2495 C2491 1.393 . S
C2495 C2494 1.391 . S
H2496 C2504 0.950 . S
H2497 C2509 0.950 . S
H2498 C2506 0.950 . S
H2499 C2508 0.950 . S
H2500 C2510 0.950 . S
H2501 C2512 0.950 . S
H2502 C2514 0.950 . S
H2503 C2515 0.950 . S
C2504 H2496 0.950 . S
C2504 C2505 1.386 1_655 S
C2504 C2506 1.391 . S
C2505 C2504 1.386 1_455 S
C2505 C2509 1.393 . S
C2506 H2498 0.950 . S
C2506 C2504 1.391 . S
C2506 C2507 1.400 1_655 S
C2507 C2506 1.400 1_455 S
C2507 C2508 1.398 . S
C2507 C2513 1.491 . S
C2508 H2499 0.950 . S
C2508 C2507 1.398 . S
C2508 C2509 1.391 . S
C2509 H2497 0.950 . S
C2509 C2505 1.393 . S
C2509 C2508 1.391 . S
C2510 H2500 0.950 . S
C2510 C2511 1.386 . S
C2510 C2512 1.391 . S
C2511 C2510 1.386 . S
C2511 C2515 1.393 1_455 S
C2512 H2501 0.950 . S
C2512 C2510 1.391 . S
C2512 C2513 1.400 . S
C2513 C2507 1.491 . S
C2513 C2512 1.400 . S
C2513 C2514 1.398 1_455 S
C2514 H2502 0.950 . S
C2514 C2513 1.398 1_655 S
C2514 C2515 1.391 . S
C2515 H2503 0.950 . S
C2515 C2511 1.393 1_655 S
C2515 C2514 1.391 . S
H2516 C2524 0.950 . S
H2517 C2529 0.950 . S
H2518 C2526 0.950 . S
H2519 C2528 0.950 . S
H2520 C2530 0.950 . S
H2521 C2532 0.950 . S
H2522 C2534 0.950 . S
H2523 C2535 0.950 . S
C2524 H2516 0.950 . S
C2524 C2525 1.386 . S
C2524 C2526 1.391 . S
C2525 C2524 1.386 . S
C2525 C2529 1.393 . S
C2526 H2518 0.950 . S
C2526 C2524 1.391 . S
C2526 C2527 1.400 . S
C2527 C2526 1.400 . S
C2527 C2528 1.398 . S
C2527 C2533 1.491 . S
C2528 H2519 0.950 . S
C2528 C2527 1.398 . S
C2528 C2529 1.391 . S
C2529 H2517 0.950 . S
C2529 C2525 1.393 . S
C2529 C2528 1.391 . S
C2530 H2520 0.950 . S
C2530 C2531 1.386 . S
C2530 C2532 1.391 . S
C2531 C2530 1.386 . S
C2531 C2535 1.393 . S
C2532 H2521 0.950 . S
C2532 C2530 1.391 . S
C2532 C2533 1.400 . S
C2533 C2527 1.491 . S
C2533 C2532 1.400 . S
C2533 C2534 1.398 . S
C2534 H2522 0.950 . S
C2534 C2533 1.398 . S
C2534 C2535 1.391 . S
C2535 H2523 0.950 . S
C2535 C2531 1.393 . S
C2535 C2534 1.391 . S
H2536 C2544 0.940 1_545 S
H2537 C2549 0.950 . S
H2538 C2546 0.958 . S
H2539 C2548 0.950 . S
H2540 C2550 0.950 . S
H2541 C2552 0.950 . S
H2542 C2554 0.950 . S
H2543 C2555 0.950 . S
C2544 H2536 0.940 1_565 S
C2544 C2545 1.387 . S
C2544 C2546 1.428 1_565 S
C2545 C2544 1.387 . S
C2545 C2549 1.393 . S
C2546 H2538 0.958 . S
C2546 C2544 1.428 1_545 S
C2546 C2547 1.371 1_545 S
C2547 C2546 1.371 1_565 S
C2547 C2548 1.398 . S
C2547 C2553 1.491 . S
C2548 H2539 0.950 . S
C2548 C2547 1.398 . S
C2548 C2549 1.391 . S
C2549 H2537 0.950 . S
C2549 C2545 1.393 . S
C2549 C2548 1.391 . S
C2550 H2540 0.950 . S
C2550 C2551 1.386 . S
C2550 C2552 1.391 . S
C2551 C2550 1.386 . S
C2551 C2555 1.393 1_565 S
C2552 H2541 0.950 . S
C2552 C2550 1.391 . S
C2552 C2553 1.400 . S
C2553 C2547 1.491 . S
C2553 C2552 1.400 . S
C2553 C2554 1.398 1_565 S
C2554 H2542 0.950 . S
C2554 C2553 1.398 1_545 S
C2554 C2555 1.391 . S
C2555 H2543 0.950 . S
C2555 C2551 1.393 1_545 S
C2555 C2554 1.391 . S
H2556 C2564 0.950 . S
H2557 C2569 0.950 . S
H2558 C2566 0.950 . S
H2559 C2568 0.950 . S
H2560 C2570 0.950 . S
H2561 C2572 0.950 . S
H2562 C2574 0.950 . S
H2563 C2575 0.950 . S
C2564 H2556 0.950 . S
C2564 C2565 1.386 1_545 S
C2564 C2566 1.391 . S
C2565 C2564 1.386 1_565 S
C2565 C2569 1.393 . S
C2566 H2558 0.950 . S
C2566 C2564 1.391 . S
C2566 C2567 1.400 1_545 S
C2567 C2566 1.400 1_565 S
C2567 C2568 1.398 . S
C2567 C2573 1.491 . S
C2568 H2559 0.950 . S
C2568 C2567 1.398 . S
C2568 C2569 1.391 . S
C2569 H2557 0.950 . S
C2569 C2565 1.393 . S
C2569 C2568 1.391 . S
C2570 H2560 0.950 . S
C2570 C2571 1.386 . S
C2570 C2572 1.391 . S
C2571 C2570 1.386 . S
C2571 C2575 1.393 1_565 S
C2572 H2561 0.950 . S
C2572 C2570 1.391 . S
C2572 C2573 1.400 . S
C2573 C2567 1.491 . S
C2573 C2572 1.400 . S
C2573 C2574 1.398 1_565 S
C2574 H2562 0.950 . S
C2574 C2573 1.398 1_545 S
C2574 C2575 1.391 . S
C2575 H2563 0.950 . S
C2575 C2571 1.393 1_545 S
C2575 C2574 1.391 . S
H2576 C2584 0.950 . S
H2577 C2589 0.950 . S
H2578 C2586 0.950 . S
H2579 C2588 0.950 . S
H2580 C2590 0.950 . S
H2581 C2592 0.950 . S
H2582 C2594 0.950 . S
H2583 C2595 0.950 . S
C2584 H2576 0.950 . S
C2584 C2585 1.386 . S
C2584 C2586 1.391 . S
C2585 C2584 1.386 . S
C2585 C2589 1.393 1_455 S
C2586 H2578 0.950 . S
C2586 C2584 1.391 . S
C2586 C2587 1.400 . S
C2587 C2586 1.400 . S
C2587 C2588 1.398 1_455 S
C2587 C2593 1.491 . S
C2588 H2579 0.950 . S
C2588 C2587 1.398 1_655 S
C2588 C2589 1.391 . S
C2589 H2577 0.950 . S
C2589 C2585 1.393 1_655 S
C2589 C2588 1.391 . S
C2590 H2580 0.950 . S
C2590 C2591 1.386 1_655 S
C2590 C2592 1.391 . S
C2591 C2590 1.386 1_455 S
C2591 C2595 1.393 . S
C2592 H2581 0.950 . S
C2592 C2590 1.391 . S
C2592 C2593 1.400 1_655 S
C2593 C2587 1.491 . S
C2593 C2592 1.400 1_455 S
C2593 C2594 1.398 . S
C2594 H2582 0.950 . S
C2594 C2593 1.398 . S
C2594 C2595 1.391 . S
C2595 H2583 0.950 . S
C2595 C2591 1.393 . S
C2595 C2594 1.391 . S
H2596 C2604 0.950 . S
H2597 C2609 0.950 . S
H2598 C2606 0.950 . S
H2599 C2608 0.950 . S
H2600 C2610 0.950 . S
H2601 C2612 0.950 . S
H2602 C2614 0.950 . S
H2603 C2615 0.950 . S
C2604 H2596 0.950 . S
C2604 C2605 1.386 . S
C2604 C2606 1.391 . S
C2605 C2604 1.386 . S
C2605 C2609 1.393 . S
C2606 H2598 0.950 . S
C2606 C2604 1.391 . S
C2606 C2607 1.400 . S
C2607 C2606 1.400 . S
C2607 C2608 1.398 . S
C2607 C2613 1.491 . S
C2608 H2599 0.950 . S
C2608 C2607 1.398 . S
C2608 C2609 1.391 . S
C2609 H2597 0.950 . S
C2609 C2605 1.393 . S
C2609 C2608 1.391 . S
C2610 H2600 0.950 . S
C2610 C2611 1.386 . S
C2610 C2612 1.391 . S
C2611 C2610 1.386 . S
C2611 C2615 1.393 . S
C2612 H2601 0.950 . S
C2612 C2610 1.391 . S
C2612 C2613 1.400 . S
C2613 C2607 1.491 . S
C2613 C2612 1.400 . S
C2613 C2614 1.398 . S
C2614 H2602 0.950 . S
C2614 C2613 1.398 . S
C2614 C2615 1.391 . S
C2615 H2603 0.950 . S
C2615 C2611 1.393 . S
C2615 C2614 1.391 . S
H2616 C2624 0.950 . S
H2617 C2629 0.950 . S
H2618 C2626 0.950 . S
H2619 C2628 0.950 . S
H2620 C2630 0.950 . S
H2621 C2632 0.950 . S
H2622 C2634 0.950 . S
H2623 C2635 0.950 . S
C2624 H2616 0.950 . S
C2624 C2625 1.386 . S
C2624 C2626 1.391 . S
C2625 C2624 1.386 . S
C2625 C2629 1.393 . S
C2626 H2618 0.950 . S
C2626 C2624 1.391 . S
C2626 C2627 1.400 . S
C2627 C2626 1.400 . S
C2627 C2628 1.398 . S
C2627 C2633 1.491 . S
C2628 H2619 0.950 . S
C2628 C2627 1.398 . S
C2628 C2629 1.391 . S
C2629 H2617 0.950 . S
C2629 C2625 1.393 . S
C2629 C2628 1.391 . S
C2630 H2620 0.950 . S
C2630 C2631 1.386 . S
C2630 C2632 1.391 . S
C2631 C2630 1.386 . S
C2631 C2635 1.393 . S
C2632 H2621 0.950 . S
C2632 C2630 1.391 . S
C2632 C2633 1.400 . S
C2633 C2627 1.491 . S
C2633 C2632 1.400 . S
C2633 C2634 1.398 . S
C2634 H2622 0.950 . S
C2634 C2633 1.398 . S
C2634 C2635 1.391 . S
C2635 H2623 0.950 . S
C2635 C2631 1.393 . S
C2635 C2634 1.391 . S
H2636 C2644 0.950 . S
H2637 C2649 0.950 . S
H2638 C2646 0.950 . S
H2639 C2648 0.950 . S
H2640 C2650 0.950 . S
H2641 C2652 0.950 . S
H2642 C2654 0.950 . S
H2643 C2655 0.950 . S
C2644 H2636 0.950 . S
C2644 C2645 1.386 . S
C2644 C2646 1.391 . S
C2645 C2644 1.386 . S
C2645 C2649 1.393 . S
C2646 H2638 0.950 . S
C2646 C2644 1.391 . S
C2646 C2647 1.400 . S
C2647 C2646 1.400 . S
C2647 C2648 1.398 . S
C2647 C2653 1.491 . S
C2648 H2639 0.950 . S
C2648 C2647 1.398 . S
C2648 C2649 1.391 . S
C2649 H2637 0.950 . S
C2649 C2645 1.393 . S
C2649 C2648 1.391 . S
C2650 H2640 0.950 . S
C2650 C2651 1.386 . S
C2650 C2652 1.391 . S
C2651 C2650 1.386 . S
C2651 C2655 1.393 . S
C2652 H2641 0.950 . S
C2652 C2650 1.391 . S
C2652 C2653 1.400 . S
C2653 C2647 1.491 . S
C2653 C2652 1.400 . S
C2653 C2654 1.398 . S
C2654 H2642 0.950 . S
C2654 C2653 1.398 . S
C2654 C2655 1.391 . S
C2655 H2643 0.950 . S
C2655 C2651 1.393 . S
C2655 C2654 1.391 . S
H2656 C2664 0.950 . S
H2657 C2669 0.950 . S
H2658 C2666 0.950 . S
H2659 C2668 0.950 . S
H2660 C2670 0.950 . S
H2661 C2672 0.950 . S
H2662 C2674 0.950 . S
H2663 C2675 0.950 . S
C2664 H2656 0.950 . S
C2664 C2665 1.386 . S
C2664 C2666 1.391 . S
C2665 C2664 1.386 . S
C2665 C2669 1.393 . S
C2666 H2658 0.950 . S
C2666 C2664 1.391 . S
C2666 C2667 1.400 . S
C2667 C2666 1.400 . S
C2667 C2668 1.398 . S
C2667 C2673 1.491 . S
C2668 H2659 0.950 . S
C2668 C2667 1.398 . S
C2668 C2669 1.391 . S
C2669 H2657 0.950 . S
C2669 C2665 1.393 . S
C2669 C2668 1.391 . S
C2670 H2660 0.950 . S
C2670 C2671 1.386 . S
C2670 C2672 1.391 . S
C2671 C2670 1.386 . S
C2671 C2675 1.393 . S
C2672 H2661 0.950 . S
C2672 C2670 1.391 . S
C2672 C2673 1.400 . S
C2673 C2667 1.491 . S
C2673 C2672 1.400 . S
C2673 C2674 1.398 . S
C2674 H2662 0.950 . S
C2674 C2673 1.398 . S
C2674 C2675 1.391 . S
C2675 H2663 0.950 . S
C2675 C2671 1.393 . S
C2675 C2674 1.391 . S
H2676 C2684 0.949 1_565 S
H2677 C2689 0.950 . S
H2678 C2686 0.974 . S
H2679 C2688 0.950 . S
H2680 C2690 0.950 . S
H2681 C2692 0.950 . S
H2682 C2694 0.950 . S
H2683 C2695 0.950 . S
C2684 H2676 0.949 1_545 S
C2684 C2685 1.415 . S
C2684 C2686 1.345 1_545 S
C2685 C2684 1.415 . S
C2685 C2689 1.393 . S
C2686 H2678 0.974 . S
C2686 C2684 1.345 1_565 S
C2686 C2687 1.400 1_565 S
C2687 C2686 1.400 1_545 S
C2687 C2688 1.398 . S
C2687 C2693 1.491 . S
C2688 H2679 0.950 . S
C2688 C2687 1.398 . S
C2688 C2689 1.391 . S
C2689 H2677 0.950 . S
C2689 C2685 1.393 . S
C2689 C2688 1.391 . S
C2690 H2680 0.950 . S
C2690 C2691 1.386 . S
C2690 C2692 1.391 . S
C2691 C2690 1.386 . S
C2691 C2695 1.393 1_545 S
C2692 H2681 0.950 . S
C2692 C2690 1.391 . S
C2692 C2693 1.400 . S
C2693 C2687 1.491 . S
C2693 C2692 1.400 . S
C2693 C2694 1.398 1_545 S
C2694 H2682 0.950 . S
C2694 C2693 1.398 1_565 S
C2694 C2695 1.391 . S
C2695 H2683 0.950 . S
C2695 C2691 1.393 1_565 S
C2695 C2694 1.391 . S
H2696 C2704 0.950 . S
H2697 C2709 0.950 . S
H2698 C2706 0.950 . S
H2699 C2708 0.950 . S
H2700 C2710 0.950 . S
H2701 C2712 0.950 . S
H2702 C2714 0.949 1_455 S
H2703 C2715 0.965 1_455 S
C2704 H2696 0.950 . S
C2704 C2705 1.386 . S
C2704 C2706 1.391 . S
C2705 C2704 1.386 . S
C2705 C2709 1.393 . S
C2706 H2698 0.950 . S
C2706 C2704 1.391 . S
C2706 C2707 1.400 . S
C2707 C2706 1.400 . S
C2707 C2708 1.398 . S
C2707 C2713 1.491 . S
C2708 H2699 0.950 . S
C2708 C2707 1.398 . S
C2708 C2709 1.391 . S
C2709 H2697 0.950 . S
C2709 C2705 1.393 . S
C2709 C2708 1.391 . S
C2710 H2700 0.950 . S
C2710 C2711 1.386 . S
C2710 C2712 1.391 . S
C2711 C2710 1.386 . S
C2711 C2715 1.402 . S
C2712 H2701 0.950 . S
C2712 C2710 1.391 . S
C2712 C2713 1.400 . S
C2713 C2707 1.491 . S
C2713 C2712 1.400 . S
C2713 C2714 1.398 . S
C2714 H2702 0.949 1_655 S
C2714 C2713 1.398 . S
C2714 C2715 1.370 . S
C2715 H2703 0.965 1_655 S
C2715 C2711 1.402 . S
C2715 C2714 1.370 . S
H2716 C2724 0.950 . S
H2717 C2729 0.950 . S
H2718 C2726 0.950 . S
H2719 C2728 0.950 . S
H2720 C2730 0.950 . S
H2721 C2732 0.950 . S
H2722 C2734 0.950 . S
H2723 C2735 0.950 . S
C2724 H2716 0.950 . S
C2724 C2725 1.386 . S
C2724 C2726 1.391 . S
C2725 C2724 1.386 . S
C2725 C2729 1.393 . S
C2726 H2718 0.950 . S
C2726 C2724 1.391 . S
C2726 C2727 1.400 . S
C2727 C2726 1.400 . S
C2727 C2728 1.398 . S
C2727 C2733 1.491 . S
C2728 H2719 0.950 . S
C2728 C2727 1.398 . S
C2728 C2729 1.391 . S
C2729 H2717 0.950 . S
C2729 C2725 1.393 . S
C2729 C2728 1.391 . S
C2730 H2720 0.950 . S
C2730 C2731 1.386 . S
C2730 C2732 1.391 . S
C2731 C2730 1.386 . S
C2731 C2735 1.393 . S
C2732 H2721 0.950 . S
C2732 C2730 1.391 . S
C2732 C2733 1.400 . S
C2733 C2727 1.491 . S
C2733 C2732 1.400 . S
C2733 C2734 1.398 . S
C2734 H2722 0.950 . S
C2734 C2733 1.398 . S
C2734 C2735 1.391 . S
C2735 H2723 0.950 . S
C2735 C2731 1.393 . S
C2735 C2734 1.391 . S
H2736 C2744 0.950 . S
H2737 C2749 0.950 . S
H2738 C2746 0.950 . S
H2739 C2748 0.950 . S
H2740 C2750 0.950 . S
H2741 C2752 0.950 . S
H2742 C2754 0.950 . S
H2743 C2755 0.950 . S
C2744 H2736 0.950 . S
C2744 C2745 1.386 . S
C2744 C2746 1.391 . S
C2745 C2744 1.386 . S
C2745 C2749 1.393 . S
C2746 H2738 0.950 . S
C2746 C2744 1.391 . S
C2746 C2747 1.400 . S
C2747 C2746 1.400 . S
C2747 C2748 1.398 . S
C2747 C2753 1.491 . S
C2748 H2739 0.950 . S
C2748 C2747 1.398 . S
C2748 C2749 1.391 . S
C2749 H2737 0.950 . S
C2749 C2745 1.393 . S
C2749 C2748 1.391 . S
C2750 H2740 0.950 . S
C2750 C2751 1.386 . S
C2750 C2752 1.391 . S
C2751 C2750 1.386 . S
C2751 C2755 1.393 . S
C2752 H2741 0.950 . S
C2752 C2750 1.391 . S
C2752 C2753 1.400 . S
C2753 C2747 1.491 . S
C2753 C2752 1.400 . S
C2753 C2754 1.398 . S
C2754 H2742 0.950 . S
C2754 C2753 1.398 . S
C2754 C2755 1.391 . S
C2755 H2743 0.950 . S
C2755 C2751 1.393 . S
C2755 C2754 1.391 . S
H2756 C2764 0.950 . S
H2757 C2769 0.950 . S
H2758 C2766 0.950 . S
H2759 C2768 0.950 . S
H2760 C2770 0.950 . S
H2761 C2772 0.950 . S
H2762 C2774 0.950 . S
H2763 C2775 0.950 . S
C2764 H2756 0.950 . S
C2764 C2765 1.386 . S
C2764 C2766 1.391 . S
C2765 C2764 1.386 . S
C2765 C2769 1.393 . S
C2766 H2758 0.950 . S
C2766 C2764 1.391 . S
C2766 C2767 1.400 . S
C2767 C2766 1.400 . S
C2767 C2768 1.398 . S
C2767 C2773 1.491 . S
C2768 H2759 0.950 . S
C2768 C2767 1.398 . S
C2768 C2769 1.391 . S
C2769 H2757 0.950 . S
C2769 C2765 1.393 . S
C2769 C2768 1.391 . S
C2770 H2760 0.950 . S
C2770 C2771 1.386 . S
C2770 C2772 1.391 . S
C2771 C2770 1.386 . S
C2771 C2775 1.393 . S
C2772 H2761 0.950 . S
C2772 C2770 1.391 . S
C2772 C2773 1.400 . S
C2773 C2767 1.491 . S
C2773 C2772 1.400 . S
C2773 C2774 1.398 . S
C2774 H2762 0.950 . S
C2774 C2773 1.398 . S
C2774 C2775 1.391 . S
C2775 H2763 0.950 . S
C2775 C2771 1.393 . S
C2775 C2774 1.391 . S
H2776 C2784 0.950 . S
H2777 C2789 0.950 . S
H2778 C2786 0.950 . S
H2779 C2788 0.950 . S
H2780 C2790 0.950 . S
H2781 C2792 0.950 . S
H2782 C2794 0.950 . S
H2783 C2795 0.950 . S
C2784 H2776 0.950 . S
C2784 C2785 1.386 . S
C2784 C2786 1.391 . S
C2785 C2784 1.386 . S
C2785 C2789 1.393 . S
C2786 H2778 0.950 . S
C2786 C2784 1.391 . S
C2786 C2787 1.400 . S
C2787 C2786 1.400 . S
C2787 C2788 1.398 . S
C2787 C2793 1.491 . S
C2788 H2779 0.950 . S
C2788 C2787 1.398 . S
C2788 C2789 1.391 . S
C2789 H2777 0.950 . S
C2789 C2785 1.393 . S
C2789 C2788 1.391 . S
C2790 H2780 0.950 . S
C2790 C2791 1.386 . S
C2790 C2792 1.391 . S
C2791 C2790 1.386 . S
C2791 C2795 1.393 . S
C2792 H2781 0.950 . S
C2792 C2790 1.391 . S
C2792 C2793 1.400 . S
C2793 C2787 1.491 . S
C2793 C2792 1.400 . S
C2793 C2794 1.398 . S
C2794 H2782 0.950 . S
C2794 C2793 1.398 . S
C2794 C2795 1.391 . S
C2795 H2783 0.950 . S
C2795 C2791 1.393 . S
C2795 C2794 1.391 . S
H2796 C2804 0.950 . S
H2797 C2809 0.950 . S
H2798 C2806 0.950 . S
H2799 C2808 0.950 . S
H2800 C2810 0.950 . S
H2801 C2812 0.950 . S
H2802 C2814 0.950 . S
H2803 C2815 0.950 . S
C2804 H2796 0.950 . S
C2804 C2805 1.386 . S
C2804 C2806 1.391 . S
C2805 C2804 1.386 . S
C2805 C2809 1.393 . S
C2806 H2798 0.950 . S
C2806 C2804 1.391 . S
C2806 C2807 1.400 . S
C2807 C2806 1.400 . S
C2807 C2808 1.398 . S
C2807 C2813 1.491 . S
C2808 H2799 0.950 . S
C2808 C2807 1.398 . S
C2808 C2809 1.391 . S
C2809 H2797 0.950 . S
C2809 C2805 1.393 . S
C2809 C2808 1.391 . S
C2810 H2800 0.950 . S
C2810 C2811 1.386 . S
C2810 C2812 1.391 . S
C2811 C2810 1.386 . S
C2811 C2815 1.393 . S
C2812 H2801 0.950 . S
C2812 C2810 1.391 . S
C2812 C2813 1.400 . S
C2813 C2807 1.491 . S
C2813 C2812 1.400 . S
C2813 C2814 1.398 . S
C2814 H2802 0.950 . S
C2814 C2813 1.398 . S
C2814 C2815 1.391 . S
C2815 H2803 0.950 . S
C2815 C2811 1.393 . S
C2815 C2814 1.391 . S
H2816 C2824 0.950 . S
H2817 C2829 0.950 . S
H2818 C2826 0.950 . S
H2819 C2828 0.950 . S
H2820 C2830 0.950 . S
H2821 C2832 0.950 . S
H2822 C2834 0.950 . S
H2823 C2835 0.950 . S
C2824 H2816 0.950 . S
C2824 C2825 1.386 . S
C2824 C2826 1.391 . S
C2825 C2824 1.386 . S
C2825 C2829 1.393 . S
C2826 H2818 0.950 . S
C2826 C2824 1.391 . S
C2826 C2827 1.400 . S
C2827 C2826 1.400 . S
C2827 C2828 1.398 . S
C2827 C2833 1.491 . S
C2828 H2819 0.950 . S
C2828 C2827 1.398 . S
C2828 C2829 1.391 . S
C2829 H2817 0.950 . S
C2829 C2825 1.393 . S
C2829 C2828 1.391 . S
C2830 H2820 0.950 . S
C2830 C2831 1.386 . S
C2830 C2832 1.391 . S
C2831 C2830 1.386 . S
C2831 C2835 1.393 . S
C2832 H2821 0.950 . S
C2832 C2830 1.391 . S
C2832 C2833 1.400 . S
C2833 C2827 1.491 . S
C2833 C2832 1.400 . S
C2833 C2834 1.398 . S
C2834 H2822 0.950 . S
C2834 C2833 1.398 . S
C2834 C2835 1.391 . S
C2835 H2823 0.950 . S
C2835 C2831 1.393 . S
C2835 C2834 1.391 . S
H2836 C2844 0.950 . S
H2837 C2849 0.950 . S
H2838 C2846 0.950 . S
H2839 C2848 0.950 . S
H2840 C2850 0.950 . S
H2841 C2852 0.950 . S
H2842 C2854 0.950 . S
H2843 C2855 0.950 . S
C2844 H2836 0.950 . S
C2844 C2845 1.386 . S
C2844 C2846 1.391 . S
C2845 C2844 1.386 . S
C2845 C2849 1.393 . S
C2846 H2838 0.950 . S
C2846 C2844 1.391 . S
C2846 C2847 1.400 . S
C2847 C2846 1.400 . S
C2847 C2848 1.398 . S
C2847 C2853 1.491 . S
C2848 H2839 0.950 . S
C2848 C2847 1.398 . S
C2848 C2849 1.391 . S
C2849 H2837 0.950 . S
C2849 C2845 1.393 . S
C2849 C2848 1.391 . S
C2850 H2840 0.950 . S
C2850 C2851 1.386 . S
C2850 C2852 1.391 . S
C2851 C2850 1.386 . S
C2851 C2855 1.393 . S
C2852 H2841 0.950 . S
C2852 C2850 1.391 . S
C2852 C2853 1.400 . S
C2853 C2847 1.491 . S
C2853 C2852 1.400 . S
C2853 C2854 1.398 . S
C2854 H2842 0.950 . S
C2854 C2853 1.398 . S
C2854 C2855 1.391 . S
C2855 H2843 0.950 . S
C2855 C2851 1.393 . S
C2855 C2854 1.391 . S
H2856 C2864 0.950 . S
H2857 C2869 0.950 . S
H2858 C2866 0.950 . S
H2859 C2868 0.950 . S
H2860 C2870 0.950 . S
H2861 C2872 0.950 . S
H2862 C2874 0.950 . S
H2863 C2875 0.950 . S
C2864 H2856 0.950 . S
C2864 C2865 1.386 1_455 S
C2864 C2866 1.391 . S
C2865 C2864 1.386 1_655 S
C2865 C2869 1.393 . S
C2866 H2858 0.950 . S
C2866 C2864 1.391 . S
C2866 C2867 1.400 1_455 S
C2867 C2866 1.400 1_655 S
C2867 C2868 1.398 . S
C2867 C2873 1.491 . S
C2868 H2859 0.950 . S
C2868 C2867 1.398 . S
C2868 C2869 1.391 . S
C2869 H2857 0.950 . S
C2869 C2865 1.393 . S
C2869 C2868 1.391 . S
C2870 H2860 0.950 . S
C2870 C2871 1.386 . S
C2870 C2872 1.391 . S
C2871 C2870 1.386 . S
C2871 C2875 1.393 1_655 S
C2872 H2861 0.950 . S
C2872 C2870 1.391 . S
C2872 C2873 1.400 . S
C2873 C2867 1.491 . S
C2873 C2872 1.400 . S
C2873 C2874 1.398 1_655 S
C2874 H2862 0.950 . S
C2874 C2873 1.398 1_455 S
C2874 C2875 1.391 . S
C2875 H2863 0.950 . S
C2875 C2871 1.393 1_455 S
C2875 C2874 1.391 . S
H2876 C2884 0.950 . S
H2877 C2889 0.950 . S
H2878 C2886 0.950 . S
H2879 C2888 0.950 . S
H2880 C2890 0.950 . S
H2881 C2892 0.950 . S
H2882 C2894 0.950 . S
H2883 C2895 0.950 . S
C2884 H2876 0.950 . S
C2884 C2885 1.386 . S
C2884 C2886 1.391 . S
C2885 C2884 1.386 . S
C2885 C2889 1.393 . S
C2886 H2878 0.950 . S
C2886 C2884 1.391 . S
C2886 C2887 1.400 . S
C2887 C2886 1.400 . S
C2887 C2888 1.398 . S
C2887 C2893 1.491 . S
C2888 H2879 0.950 . S
C2888 C2887 1.398 . S
C2888 C2889 1.391 . S
C2889 H2877 0.950 . S
C2889 C2885 1.393 . S
C2889 C2888 1.391 . S
C2890 H2880 0.950 . S
C2890 C2891 1.386 . S
C2890 C2892 1.391 . S
C2891 C2890 1.386 . S
C2891 C2895 1.393 . S
C2892 H2881 0.950 . S
C2892 C2890 1.391 . S
C2892 C2893 1.400 . S
C2893 C2887 1.491 . S
C2893 C2892 1.400 . S
C2893 C2894 1.398 . S
C2894 H2882 0.950 . S
C2894 C2893 1.398 . S
C2894 C2895 1.391 . S
C2895 H2883 0.950 . S
C2895 C2891 1.393 . S
C2895 C2894 1.391 . S
H2896 C2904 0.950 . S
H2897 C2909 0.950 . S
H2898 C2906 0.950 . S
H2899 C2908 0.950 . S
H2900 C2910 0.950 . S
H2901 C2912 0.950 . S
H2902 C2914 0.950 . S
H2903 C2915 0.950 . S
C2904 H2896 0.950 . S
C2904 C2905 1.386 . S
C2904 C2906 1.391 . S
C2905 C2904 1.386 . S
C2905 C2909 1.393 1_545 S
C2906 H2898 0.950 . S
C2906 C2904 1.391 . S
C2906 C2907 1.400 . S
C2907 C2906 1.400 . S
C2907 C2908 1.398 1_545 S
C2907 C2913 1.491 . S
C2908 H2899 0.950 . S
C2908 C2907 1.398 1_565 S
C2908 C2909 1.391 . S
C2909 H2897 0.950 . S
C2909 C2905 1.393 1_565 S
C2909 C2908 1.391 . S
C2910 H2900 0.950 . S
C2910 C2911 1.386 1_565 S
C2910 C2912 1.391 . S
C2911 C2910 1.386 1_545 S
C2911 C2915 1.393 . S
C2912 H2901 0.950 . S
C2912 C2910 1.391 . S
C2912 C2913 1.400 1_565 S
C2913 C2907 1.491 . S
C2913 C2912 1.400 1_545 S
C2913 C2914 1.398 . S
C2914 H2902 0.950 . S
C2914 C2913 1.398 . S
C2914 C2915 1.391 . S
C2915 H2903 0.950 . S
C2915 C2911 1.393 . S
C2915 C2914 1.391 . S
C1485 C4 1.435 . S
C1491 C1084 1.433 . S
C1505 C38 1.701 . S
C1511 C1130 1.697 . S
C1531 C1162 1.444 . S
C1525 C74 1.406 . S
C1545 C76 1.401 . S
C1551 C1215 1.418 . S
C1565 C2 1.495 . S
C1571 C1261 1.553 . S
C1585 C40 1.533 . S
C1591 C1300 1.541 . S
C1605 C110 1.469 . S
C1611 C1254 1.501 . S
C1631 C1307 1.546 . S
C1625 C148 1.543 . S
C1651 C1208 1.512 . S
C1645 C182 1.465 . S
C1665 C184 1.434 . S
C1671 C1169 1.473 . S
C1691 C1063 1.422 . S
C1685 C112 1.388 . S
C1705 C146 1.643 . S
C1711 C1109 1.622 . S
C1725 C220 1.649 . S
C1731 C1339 1.650 . S
C1745 C254 1.783 . S
C1751 C1406 1.768 . S
C1771 C1452 1.616 . S
C1765 C290 1.653 . S
C1785 C292 1.539 . S
C1791 C663 1.522 . S
C1805 C218 1.704 . S
C1811 C709 1.682 . S
C1825 C256 1.571 . S
C1831 C755 1.562 . S
C1845 C326 1.669 . S
C1851 C702 1.648 . S
C1865 C364 1.611 . S
C1871 C748 1.584 . S
C1891 C656 1.678 . S
C1885 C398 1.700 . S
C1911 C1431 1.669 . S
C1905 C400 1.677 . S
C1931 C1360 1.521 . S
C1925 C328 1.529 . S
C1951 C1385 1.701 . S
C1945 C362 1.727 . S
C1965 C436 1.558 . S
C1971 C787 1.549 . S
C1985 C470 1.761 . S
C1991 C840 1.743 . S
C2005 C506 1.657 . S
C2011 C886 1.640 . S
C2025 C508 1.624 . S
C2031 C932 1.627 . S
C2051 C985 1.678 . S
C2045 C434 1.689 . S
C2071 C1031 1.582 . S
C2065 C472 1.607 . S
C2091 C978 1.750 . S
C2085 C542 1.769 . S
C2111 C1024 1.610 . S
C2105 C580 1.631 . S
C2125 C614 1.677 . S
C2131 C939 1.677 . S
C2151 C893 1.572 . S
C2145 C616 1.579 . S
C2165 C544 1.544 . S
C2171 C808 1.536 . S
C2191 C847 1.681 . S
C2185 C578 1.677 . S
C2211 C670 1.651 . S
C2205 C14 1.635 . S
C2225 C39 1.558 . S
C2231 C716 1.538 . S
C2251 C762 1.558 . S
C2245 C75 1.579 . S
C2271 C794 1.493 . S
C2265 C86 1.472 . S
C2291 C833 1.603 . S
C2285 C3 1.633 . S
C2311 C879 1.529 . S
C2305 C50 1.551 . S
C2325 C111 1.609 . S
C2331 C900 1.584 . S
C2345 C158 1.492 . S
C2351 C801 1.480 . S
C2365 C183 1.709 . S
C2371 C854 1.684 . S
C2385 C194 1.630 . S
C2391 C695 1.634 . S
C2411 C741 1.552 . S
C2405 C122 1.531 . S
C2425 C147 1.470 . S
C2431 C649 1.452 . S
C2451 C925 1.589 . S
C2445 C230 1.583 . S
C2465 C255 1.686 . S
C2471 C992 1.663 . S
C2485 C291 1.610 . S
C2491 C1038 1.583 . S
C2511 C1077 1.308 . S
C2505 C302 1.265 . S
C2525 C219 1.590 . S
C2531 C1123 1.577 . S
C2545 C266 1.340 . S
C2551 C1155 1.416 . S
C2565 C327 1.331 . S
C2571 C1176 1.324 . S
C2585 C374 1.308 . S
C2591 C1070 1.360 . S
C2611 C1116 1.645 . S
C2605 C399 1.660 . S
C2625 C410 1.571 . S
C2631 C971 1.600 . S
C2645 C338 1.585 . S
C2651 C1017 1.607 . S
C2671 C946 1.580 . S
C2665 C363 1.605 . S
C2691 C1222 1.405 . S
C2685 C446 1.359 . S
C2705 C471 1.391 . S
C2711 C1268 1.394 . S
C2725 C507 1.528 . S
C2731 C1293 1.495 . S
C2751 C1346 1.453 . S
C2745 C518 1.455 . S
C2771 C1399 1.659 . S
C2765 C435 1.678 . S
C2785 C482 1.643 . S
C2791 C1445 1.675 . S
C2805 C543 1.538 . S
C2811 C1438 1.516 . S
C2825 C590 1.602 . S
C2831 C1353 1.605 . S
C2851 C1392 1.712 . S
C2845 C615 1.732 . S
C2871 C1247 1.418 . S
C2865 C626 1.350 . S
C2891 C1314 1.534 . S
C2885 C554 1.522 . S
C2905 C579 1.339 . S
C2911 C1201 1.337 . S
