# Generated by pormake.
# Topology eea, (3,6)-cn, num edge types: 1
# Building blocks:
#     Node 0, Type 0, BuildingBlock: ESEHIV_clean_linker_0, # of connection points: 3
#     Node 1, Type 0, BuildingBlock: ESEHIV_clean_linker_0, # of connection points: 3
#     Node 2, Type 0, BuildingBlock: ESEHIV_clean_linker_0, # of connection points: 3
#     Node 3, Type 0, BuildingBlock: ESEHIV_clean_linker_0, # of connection points: 3
#     Node 4, Type 0, BuildingBlock: ESEHIV_clean_linker_0, # of connection points: 3
#     Node 5, Type 0, BuildingBlock: ESEHIV_clean_linker_0, # of connection points: 3
#     Node 6, Type 0, BuildingBlock: ESEHIV_clean_linker_0, # of connection points: 3
#     Node 7, Type 0, BuildingBlock: ESEHIV_clean_linker_0, # of connection points: 3
#     Node 8, Type 0, BuildingBlock: ESEHIV_clean_linker_0, # of connection points: 3
#     Node 9, Type 0, BuildingBlock: ESEHIV_clean_linker_0, # of connection points: 3
#     Node 10, Type 0, BuildingBlock: ESEHIV_clean_linker_0, # of connection points: 3
#     Node 11, Type 0, BuildingBlock: ESEHIV_clean_linker_0, # of connection points: 3
#     Node 12, Type 0, BuildingBlock: ESEHIV_clean_linker_0, # of connection points: 3
#     Node 13, Type 0, BuildingBlock: ESEHIV_clean_linker_0, # of connection points: 3
#     Node 14, Type 0, BuildingBlock: ESEHIV_clean_linker_0, # of connection points: 3
#     Node 15, Type 0, BuildingBlock: ESEHIV_clean_linker_0, # of connection points: 3
#     Node 16, Type 0, BuildingBlock: ESEHIV_clean_linker_0, # of connection points: 3
#     Node 17, Type 0, BuildingBlock: ESEHIV_clean_linker_0, # of connection points: 3
#     Node 18, Type 1, BuildingBlock: CIFDUS_clean_sbu_1, # of connection points: 6
#     Node 19, Type 1, BuildingBlock: CIFDUS_clean_sbu_1, # of connection points: 6
#     Node 20, Type 1, BuildingBlock: CIFDUS_clean_sbu_1, # of connection points: 6
#     Node 21, Type 1, BuildingBlock: CIFDUS_clean_sbu_1, # of connection points: 6
#     Node 22, Type 1, BuildingBlock: CIFDUS_clean_sbu_1, # of connection points: 6
#     Node 23, Type 1, BuildingBlock: CIFDUS_clean_sbu_1, # of connection points: 6
#     Node 24, Type 1, BuildingBlock: CIFDUS_clean_sbu_1, # of connection points: 6
#     Node 25, Type 1, BuildingBlock: CIFDUS_clean_sbu_1, # of connection points: 6
#     Node 26, Type 1, BuildingBlock: CIFDUS_clean_sbu_1, # of connection points: 6
#     Edge 27, Type (0, 1), BuildingBlock: UVAHIK_clean_linker_0, # of connection points: 2
#     Edge 28, Type (0, 1), BuildingBlock: UVAHIK_clean_linker_0, # of connection points: 2
#     Edge 29, Type (0, 1), BuildingBlock: UVAHIK_clean_linker_0, # of connection points: 2
#     Edge 30, Type (0, 1), BuildingBlock: UVAHIK_clean_linker_0, # of connection points: 2
#     Edge 31, Type (0, 1), BuildingBlock: UVAHIK_clean_linker_0, # of connection points: 2
#     Edge 32, Type (0, 1), BuildingBlock: UVAHIK_clean_linker_0, # of connection points: 2
#     Edge 33, Type (0, 1), BuildingBlock: UVAHIK_clean_linker_0, # of connection points: 2
#     Edge 34, Type (0, 1), BuildingBlock: UVAHIK_clean_linker_0, # of connection points: 2
#     Edge 35, Type (0, 1), BuildingBlock: UVAHIK_clean_linker_0, # of connection points: 2
#     Edge 36, Type (0, 1), BuildingBlock: UVAHIK_clean_linker_0, # of connection points: 2
#     Edge 37, Type (0, 1), BuildingBlock: UVAHIK_clean_linker_0, # of connection points: 2
#     Edge 38, Type (0, 1), BuildingBlock: UVAHIK_clean_linker_0, # of connection points: 2
#     Edge 39, Type (0, 1), BuildingBlock: UVAHIK_clean_linker_0, # of connection points: 2
#     Edge 40, Type (0, 1), BuildingBlock: UVAHIK_clean_linker_0, # of connection points: 2
#     Edge 41, Type (0, 1), BuildingBlock: UVAHIK_clean_linker_0, # of connection points: 2
#     Edge 42, Type (0, 1), BuildingBlock: UVAHIK_clean_linker_0, # of connection points: 2
#     Edge 43, Type (0, 1), BuildingBlock: UVAHIK_clean_linker_0, # of connection points: 2
#     Edge 44, Type (0, 1), BuildingBlock: UVAHIK_clean_linker_0, # of connection points: 2
#     Edge 45, Type (0, 1), BuildingBlock: UVAHIK_clean_linker_0, # of connection points: 2
#     Edge 46, Type (0, 1), BuildingBlock: UVAHIK_clean_linker_0, # of connection points: 2
#     Edge 47, Type (0, 1), BuildingBlock: UVAHIK_clean_linker_0, # of connection points: 2
#     Edge 48, Type (0, 1), BuildingBlock: UVAHIK_clean_linker_0, # of connection points: 2
#     Edge 49, Type (0, 1), BuildingBlock: UVAHIK_clean_linker_0, # of connection points: 2
#     Edge 50, Type (0, 1), BuildingBlock: UVAHIK_clean_linker_0, # of connection points: 2
#     Edge 51, Type (0, 1), BuildingBlock: UVAHIK_clean_linker_0, # of connection points: 2
#     Edge 52, Type (0, 1), BuildingBlock: UVAHIK_clean_linker_0, # of connection points: 2
#     Edge 53, Type (0, 1), BuildingBlock: UVAHIK_clean_linker_0, # of connection points: 2
#     Edge 54, Type (0, 1), BuildingBlock: UVAHIK_clean_linker_0, # of connection points: 2
#     Edge 55, Type (0, 1), BuildingBlock: UVAHIK_clean_linker_0, # of connection points: 2
#     Edge 56, Type (0, 1), BuildingBlock: UVAHIK_clean_linker_0, # of connection points: 2
#     Edge 57, Type (0, 1), BuildingBlock: UVAHIK_clean_linker_0, # of connection points: 2
#     Edge 58, Type (0, 1), BuildingBlock: UVAHIK_clean_linker_0, # of connection points: 2
#     Edge 59, Type (0, 1), BuildingBlock: UVAHIK_clean_linker_0, # of connection points: 2
#     Edge 60, Type (0, 1), BuildingBlock: UVAHIK_clean_linker_0, # of connection points: 2
#     Edge 61, Type (0, 1), BuildingBlock: UVAHIK_clean_linker_0, # of connection points: 2
#     Edge 62, Type (0, 1), BuildingBlock: UVAHIK_clean_linker_0, # of connection points: 2
#     Edge 63, Type (0, 1), BuildingBlock: UVAHIK_clean_linker_0, # of connection points: 2
#     Edge 64, Type (0, 1), BuildingBlock: UVAHIK_clean_linker_0, # of connection points: 2
#     Edge 65, Type (0, 1), BuildingBlock: UVAHIK_clean_linker_0, # of connection points: 2
#     Edge 66, Type (0, 1), BuildingBlock: UVAHIK_clean_linker_0, # of connection points: 2
#     Edge 67, Type (0, 1), BuildingBlock: UVAHIK_clean_linker_0, # of connection points: 2
#     Edge 68, Type (0, 1), BuildingBlock: UVAHIK_clean_linker_0, # of connection points: 2
#     Edge 69, Type (0, 1), BuildingBlock: UVAHIK_clean_linker_0, # of connection points: 2
#     Edge 70, Type (0, 1), BuildingBlock: UVAHIK_clean_linker_0, # of connection points: 2
#     Edge 71, Type (0, 1), BuildingBlock: UVAHIK_clean_linker_0, # of connection points: 2
#     Edge 72, Type (0, 1), BuildingBlock: UVAHIK_clean_linker_0, # of connection points: 2
#     Edge 73, Type (0, 1), BuildingBlock: UVAHIK_clean_linker_0, # of connection points: 2
#     Edge 74, Type (0, 1), BuildingBlock: UVAHIK_clean_linker_0, # of connection points: 2
#     Edge 75, Type (0, 1), BuildingBlock: UVAHIK_clean_linker_0, # of connection points: 2
#     Edge 76, Type (0, 1), BuildingBlock: UVAHIK_clean_linker_0, # of connection points: 2
#     Edge 77, Type (0, 1), BuildingBlock: UVAHIK_clean_linker_0, # of connection points: 2
#     Edge 78, Type (0, 1), BuildingBlock: UVAHIK_clean_linker_0, # of connection points: 2
#     Edge 79, Type (0, 1), BuildingBlock: UVAHIK_clean_linker_0, # of connection points: 2
#     Edge 80, Type (0, 1), BuildingBlock: UVAHIK_clean_linker_0, # of connection points: 2
# Relax obj value: 0.100
# Max RMSD: 0.184
# Mean RMSD: 0.093
data_MOF--net-eea--node1-CIFDUS_clean_sbu_1--node2-ESEHIV_clean_linker_0--edge1-UVAHIK_clean_linker_0
_symmetry_space_group_name_H-M    P1
_symmetry_Int_Tables_number       1
_symmetry_cell_setting            triclinic
loop_
_symmetry_equiv_pos_as_xyz
'x, y, z'
_cell_length_a     66.915678
_cell_length_b     66.016752
_cell_length_c     68.128799
_cell_angle_alpha  90.158805
_cell_angle_beta   90.094563
_cell_angle_gamma 120.07987
loop_
_atom_site_label
_atom_site_type_symbol
_atom_site_fract_x
_atom_site_fract_y
_atom_site_fract_z
_atom_type_partial_charge
H0 H 0.19491 0.13125 0.45802 0.0
H1 H 0.18949 0.06356 0.45804 0.0
H2 H 0.15515 0.08074 0.41331 0.0
C3 C 0.18783 0.11381 0.45191 0.0
C4 C 0.17375 0.10771 0.43508 0.0
C5 C 0.1937 0.09806 0.46032 0.0
C6 C 0.18513 0.07587 0.4517 0.0
C7 C 0.17152 0.06958 0.43461 0.0
C8 C 0.16586 0.0856 0.42637 0.0
H9 H 0.86398 0.0522 0.4447 0.0
H10 H 0.91767 0.12418 0.44719 0.0
H11 H 0.91245 0.08129 0.39731 0.0
C12 C 0.87909 0.06684 0.43822 0.0
C13 C 0.8873 0.06399 0.42011 0.0
C14 C 0.88983 0.08847 0.44795 0.0
C15 C 0.90929 0.10752 0.43952 0.0
C16 C 0.91764 0.10525 0.42113 0.0
C17 C 0.90646 0.08332 0.41154 0.0
H18 H 0.83063 0.74354 0.42002 0.0
H19 H 0.89995 0.75944 0.43228 0.0
H20 H 0.88132 0.77002 0.37413 0.0
C21 C 0.84808 0.74945 0.41505 0.0
C22 C 0.85396 0.75629 0.39547 0.0
C23 C 0.8646 0.7508 0.42846 0.0
C24 C 0.88733 0.7591 0.42208 0.0
C25 C 0.89354 0.76588 0.40243 0.0
C26 C 0.87674 0.76464 0.38925 0.0
H27 H 0.09971 0.24698 0.56722 0.0
H28 H 0.16065 0.24516 0.58375 0.0
H29 H 0.10497 0.22309 0.62488 0.0
C30 C 0.10905 0.24297 0.57809 0.0
C31 C 0.09951 0.23484 0.5968 0.0
C32 C 0.13097 0.24657 0.57338 0.0
C33 C 0.14372 0.24242 0.58747 0.0
C34 C 0.13432 0.23388 0.60607 0.0
C35 C 0.1122 0.22993 0.61056 0.0
H36 H 0.81843 0.94257 0.55366 0.0
H37 H 0.81941 0.87832 0.54839 0.0
H38 H 0.84674 0.92095 0.60047 0.0
C39 C 0.82274 0.93009 0.5598 0.0
C40 C 0.83316 0.93426 0.57837 0.0
C41 C 0.81762 0.90999 0.54899 0.0
C42 C 0.82384 0.89417 0.55654 0.0
C43 C 0.83432 0.89791 0.57516 0.0
C44 C 0.839 0.91809 0.58601 0.0
H45 H 0.0946 0.86978 0.56303 0.0
H46 H 0.14184 0.944 0.56123 0.0
H47 H 0.09686 0.91384 0.61065 0.0
C48 C 0.10163 0.88701 0.56955 0.0
C49 C 0.0931 0.88944 0.58775 0.0
C50 C 0.11934 0.90656 0.55986 0.0
C51 C 0.1282 0.92877 0.5685 0.0
C52 C 0.12033 0.9315 0.58684 0.0
C53 C 0.10272 0.91179 0.59636 0.0
H54 H 0.84464 0.44904 0.7895 0.0
H55 H 0.84717 0.38578 0.78316 0.0
H56 H 0.82323 0.41019 0.73504 0.0
C57 C 0.84165 0.43412 0.78062 0.0
C58 C 0.83311 0.4317 0.76132 0.0
C59 C 0.84705 0.4178 0.78839 0.0
C60 C 0.84332 0.39856 0.77697 0.0
C61 C 0.83463 0.39553 0.75778 0.0
C62 C 0.82931 0.41207 0.75005 0.0
H63 H 0.52298 0.40667 0.77442 0.0
H64 H 0.5766 0.47765 0.76576 0.0
H65 H 0.57337 0.42285 0.72904 0.0
C66 C 0.53813 0.41935 0.76651 0.0
C67 C 0.54665 0.41187 0.75094 0.0
C68 C 0.54873 0.44299 0.77192 0.0
C69 C 0.56838 0.45933 0.76167 0.0
C70 C 0.57763 0.45229 0.74632 0.0
C71 C 0.56657 0.42846 0.74097 0.0
H72 H 0.51311 0.10129 0.7629 0.0
H73 H 0.56463 0.08136 0.77017 0.0
H74 H 0.55857 0.11006 0.71513 0.0
C75 C 0.52764 0.1002 0.75713 0.0
C76 C 0.535 0.10721 0.73781 0.0
C77 C 0.53792 0.09032 0.76859 0.0
C78 C 0.55638 0.08843 0.76097 0.0
C79 C 0.56441 0.09597 0.74179 0.0
C80 C 0.55324 0.10494 0.73018 0.0
H81 H 0.75434 0.56227 0.9007 0.0
H82 H 0.82407 0.57725 0.91031 0.0
H83 H 0.776 0.55326 0.95808 0.0
C84 C 0.76756 0.563 0.91038 0.0
C85 C 0.7625 0.55695 0.9303 0.0
C86 C 0.78997 0.57094 0.9032 0.0
C87 C 0.80691 0.57175 0.91585 0.0
C88 C 0.80191 0.56536 0.93557 0.0
C89 C 0.77987 0.5584 0.94282 0.0
H90 H 0.49095 0.28326 0.89505 0.0
H91 H 0.48386 0.21514 0.89269 0.0
H92 H 0.52946 0.26539 0.93533 0.0
C93 C 0.49626 0.27117 0.90024 0.0
C94 C 0.51198 0.27755 0.91597 0.0
C95 C 0.48618 0.24883 0.89177 0.0
C96 C 0.4919 0.23255 0.89906 0.0
C97 C 0.50744 0.23833 0.91481 0.0
C98 C 0.51741 0.26087 0.92324 0.0
H99 H 0.75277 0.20613 0.89067 0.0
H100 H 0.8062 0.27842 0.89229 0.0
H101 H 0.75783 0.24943 0.93996 0.0
C102 C 0.76112 0.22305 0.89796 0.0
C103 C 0.75298 0.22561 0.91628 0.0
C104 C 0.78023 0.24213 0.88921 0.0
C105 C 0.79115 0.26382 0.89889 0.0
C106 C 0.78322 0.26671 0.91716 0.0
C107 C 0.76398 0.2475 0.92576 0.0
H108 H 0.50229 0.78167 0.12153 0.0
H109 H 0.5018 0.71666 0.11812 0.0
H110 H 0.46725 0.73375 0.0735 0.0
C111 C 0.49639 0.76498 0.11428 0.0
C112 C 0.48341 0.75958 0.09676 0.0
C113 C 0.50319 0.74964 0.12189 0.0
C114 C 0.49668 0.72859 0.11211 0.0
C115 C 0.48391 0.72278 0.09462 0.0
C116 C 0.47701 0.73817 0.08708 0.0
H117 H 0.18847 0.72756 0.11234 0.0
H118 H 0.23986 0.79992 0.10823 0.0
H119 H 0.23605 0.75114 0.06396 0.0
C120 C 0.20297 0.74147 0.10458 0.0
C121 C 0.21042 0.7367 0.08682 0.0
C122 C 0.21347 0.76417 0.11222 0.0
C123 C 0.23221 0.78231 0.10236 0.0
C124 C 0.24109 0.77782 0.08518 0.0
C125 C 0.22986 0.75486 0.07739 0.0
H126 H 0.1771 0.43115 0.0977 0.0
H127 H 0.2465 0.44366 0.10328 0.0
H128 H 0.2233 0.45788 0.04869 0.0
C129 C 0.194 0.43694 0.09142 0.0
C130 C 0.19835 0.4448 0.07201 0.0
C131 C 0.21115 0.43623 0.10275 0.0
C132 C 0.23317 0.44422 0.09464 0.0
C133 C 0.23752 0.45172 0.075 0.0
C134 C 0.21996 0.45179 0.06375 0.0
H135 H 0.43745 0.91953 0.23528 0.0
H136 H 0.50547 0.93152 0.24726 0.0
H137 H 0.45717 0.91454 0.29454 0.0
C138 C 0.45009 0.92034 0.24569 0.0
C139 C 0.44456 0.91631 0.26576 0.0
C140 C 0.47222 0.92629 0.23909 0.0
C141 C 0.4887 0.92776 0.25258 0.0
C142 C 0.48345 0.92346 0.27262 0.0
C143 C 0.46136 0.91788 0.2791 0.0
H144 H 0.1583 0.61391 0.22061 0.0
H145 H 0.15929 0.54962 0.21693 0.0
H146 H 0.19046 0.59584 0.26667 0.0
C147 C 0.16324 0.60193 0.22684 0.0
C148 C 0.17485 0.60728 0.2449 0.0
C149 C 0.15757 0.58127 0.21674 0.0
C150 C 0.16435 0.56597 0.2245 0.0
C151 C 0.17623 0.57095 0.24258 0.0
C152 C 0.18159 0.59185 0.25265 0.0
H153 H 0.43085 0.53265 0.23495 0.0
H154 H 0.48069 0.60518 0.22678 0.0
H155 H 0.43448 0.58396 0.27619 0.0
C156 C 0.43875 0.55063 0.24 0.0
C157 C 0.43046 0.55607 0.257 0.0
C158 C 0.45662 0.56831 0.22899 0.0
C159 C 0.46645 0.59167 0.23508 0.0
C160 C 0.45876 0.59753 0.2522 0.0
C161 C 0.4406 0.57961 0.26301 0.0
O162 O 0.46532 0.97577 0.00893 0.0
Mn163 Mn 0.49962 0.99767 0.0008 0.0
O164 O 0.45795 0.99497 0.03273 0.0
Mn165 Mn 0.48737 0.02134 0.03454 0.0
O166 O 0.53393 0.01967 0.99264 0.0
O167 O 0.50103 0.96991 0.99122 0.0
Mn168 Mn 0.51254 0.97376 0.96754 0.0
O169 O 0.48905 0.00275 0.97314 0.0
O170 O 0.5418 1.00034 0.96933 0.0
O171 O 0.51004 0.99223 0.02832 0.0
O172 O 0.50794 0.01705 0.04972 0.0
O173 O 0.50683 0.94458 0.97627 0.0
O174 O 0.49187 0.97776 0.95228 0.0
C175 C 0.49941 0.0455 0.01029 0.0
C176 C 0.45176 0.97714 0.02157 0.0
C177 C 0.54766 0.01836 0.98015 0.0
C178 C 0.49983 0.94992 0.99208 0.0
C179 C 0.48576 0.99279 0.95623 0.0
C180 C 0.51347 0.0017 0.04542 0.0
O181 O 0.49834 0.02551 0.01057 0.0
O182 O 0.49298 0.05063 0.02653 0.0
O183 O 0.01292 0.4837 0.00496 0.0
Mn184 Mn 0.99795 0.50439 0.00447 0.0
O185 O -0.00069 0.46125 0.03209 0.0
Mn186 Mn 0.97947 0.4716 0.04114 0.0
O187 O 0.98304 0.52525 0.00409 0.0
O188 O 0.02454 0.52846 0.9891 0.0
Mn189 Mn 0.01618 0.53753 0.96799 0.0
O190 O 0.98009 0.48808 0.97864 0.0
O191 O 0.99776 0.54912 0.9779 0.0
O192 O 0.01574 0.52057 0.03045 0.0
O193 O 0.99398 0.49895 0.05576 0.0
O194 O 0.04831 0.55542 0.9698 0.0
O195 O 0.00034 0.51046 0.95307 0.0
C196 C 0.9507 0.4632 0.02164 0.0
C197 C 0.0121 0.46817 0.01676 0.0
C198 C 0.98465 0.54172 0.99302 0.0
C199 C 0.04559 0.54426 0.98603 0.0
C200 C 0.98375 0.49167 0.96011 0.0
C201 C 0.01124 0.51736 0.04892 0.0
O202 O 0.97139 0.48027 0.01971 0.0
O203 O 0.94762 0.4522 0.03801 0.0
O204 O 0.52965 0.50555 -0.00159 0.0
Mn205 Mn 0.49722 0.50299 0.9979 0.0
O206 O 0.55615 0.54312 0.99221 0.0
Mn207 Mn 0.53536 0.55083 0.98144 0.0
O208 O 0.46479 0.50052 0.99731 0.0
O209 O 0.48308 0.46828 -0.00118 0.0
Mn210 Mn 0.45811 0.45511 0.01332 0.0
O211 O 0.49689 0.50419 0.02841 0.0
O212 O 0.43804 0.46256 0.00083 0.0
O213 O 0.49722 0.50165 0.96733 0.0
O214 O 0.52363 0.53772 0.95695 0.0
O215 O 0.46363 0.43143 0.00523 0.0
O216 O 0.46796 0.46888 0.03801 0.0
C217 C 0.51328 0.55791 -0.00029 0.0
C218 C 0.55069 0.52228 0.99695 0.0
C219 C 0.44369 0.48373 0.99727 0.0
C220 C 0.48161 0.44822 0.99685 0.0
C221 C 0.48424 0.48971 0.04178 0.0
C222 C 0.50793 0.51656 0.95362 0.0
O223 O 0.51142 0.53774 0.99715 0.0
O224 O 0.53079 0.57463 0.99076 0.0
O225 O 0.13498 0.31254 0.34282 0.0
Mn226 Mn 0.16992 0.33591 0.33765 0.0
O227 O 0.12269 0.33024 0.36406 0.0
Mn228 Mn 0.15129 0.3569 0.36889 0.0
O229 O 0.20488 0.35918 0.33257 0.0
O230 O 0.17354 0.3091 0.32874 0.0
Mn231 Mn 0.18826 0.31469 0.30636 0.0
O232 O 0.16277 0.34198 0.30905 0.0
O233 O 0.21691 0.34103 0.3115 0.0
O234 O 0.17724 0.33005 0.36626 0.0
O235 O 0.16968 0.35228 0.38665 0.0
O236 O 0.18194 0.28517 0.31442 0.0
O237 O 0.17003 0.31955 0.28864 0.0
C238 C 0.16706 0.3825 0.34581 0.0
C239 C 0.11912 0.31276 0.35334 0.0
C240 C 0.22068 0.35847 0.32233 0.0
C241 C 0.17295 0.28936 0.32956 0.0
C242 C 0.16267 0.33372 0.29191 0.0
C243 C 0.17736 0.33837 0.38339 0.0
O244 O 0.16614 0.36261 0.34651 0.0
O245 O 0.1578 0.38655 0.36084 0.0
O246 O 0.68168 0.81614 0.33256 0.0
Mn247 Mn 0.6673 0.83751 0.33173 0.0
O248 O 0.66486 0.79154 0.3581 0.0
Mn249 Mn 0.64607 0.80307 0.36721 0.0
O250 O 0.65293 0.85885 0.33109 0.0
O251 O 0.69483 0.86183 0.31747 0.0
Mn252 Mn 0.68767 0.8719 0.29626 0.0
O253 O 0.6506 0.82228 0.30522 0.0
O254 O 0.66921 0.88369 0.3057 0.0
O255 O 0.68385 0.8526 0.35836 0.0
O256 O 0.6611 0.82968 0.38275 0.0
O257 O 0.7197 0.88928 0.29913 0.0
O258 O 0.67225 0.84548 0.28054 0.0
C259 C 0.61847 0.79728 0.34719 0.0
C260 C 0.67893 0.7992 0.34362 0.0
C261 C 0.65533 0.87585 0.3203 0.0
C262 C 0.71608 0.8775 0.31513 0.0
C263 C 0.65518 0.82654 0.28687 0.0
C264 C 0.67863 0.84841 0.37664 0.0
O265 O 0.63968 0.81334 0.34583 0.0
O266 O 0.61416 0.78538 0.3632 0.0
O267 O 0.20307 0.85202 0.32836 0.0
Mn268 Mn 0.16835 0.83739 0.33561 0.0
O269 O 0.21038 0.87965 0.30557 0.0
Mn270 Mn 0.18055 0.87483 0.30306 0.0
O271 O 0.13359 0.82295 0.34272 0.0
O272 O 0.16805 0.8084 0.34475 0.0
Mn273 Mn 0.15507 0.79965 0.36793 0.0
O274 O 0.17729 0.85234 0.36375 0.0
O275 O 0.12514 0.79422 0.36458 0.0
O276 O 0.15922 0.82243 0.30744 0.0
O277 O 0.16111 0.85007 0.28702 0.0
O278 O 0.1631 0.77771 0.36037 0.0
O279 O 0.17335 0.82421 0.38463 0.0
C280 C 0.1672 0.88497 0.32757 0.0
C281 C 0.21679 0.86823 0.31656 0.0
C282 C 0.11931 0.80635 0.35392 0.0
C283 C 0.17051 0.79025 0.34467 0.0
C284 C 0.17935 0.84542 0.3809 0.0
C285 C 0.15591 0.82904 0.29056 0.0
O286 O 0.16871 0.86633 0.32658 0.0
O287 O 0.17372 0.89736 0.31174 0.0
O288 O 0.80251 0.64564 0.67253 0.0
Mn289 Mn 0.83767 0.66639 0.66734 0.0
O290 O 0.79369 0.66447 0.69564 0.0
Mn291 Mn 0.82343 0.6896 0.70008 0.0
O292 O 0.87287 0.68736 0.66216 0.0
O293 O 0.83859 0.63822 0.65762 0.0
Mn294 Mn 0.85276 0.64353 0.63492 0.0
O295 O 0.83094 0.67409 0.63914 0.0
O296 O 0.88248 0.66845 0.63978 0.0
O297 O 0.84404 0.65838 0.69558 0.0
O298 O 0.84112 0.68285 0.71684 0.0
O299 O 0.84424 0.61309 0.6419 0.0
O300 O 0.8352 0.65026 0.61798 0.0
C301 C 0.83898 0.71505 0.67694 0.0
C302 C 0.78802 0.64718 0.68393 0.0
C303 C 0.88771 0.68584 0.65122 0.0
C304 C 0.83623 0.61763 0.65751 0.0
C305 C 0.82929 0.66542 0.62189 0.0
C306 C 0.84581 0.6668 0.71295 0.0
O307 O 0.83686 0.69457 0.67708 0.0
O308 O 0.83163 0.71992 0.6928 0.0
O309 O 0.3572 0.1643 0.67861 0.0
Mn310 Mn 0.33266 0.17466 0.68065 0.0
O311 O 0.34329 0.13027 0.69514 0.0
Mn312 Mn 0.31779 0.13017 0.70619 0.0
O313 O 0.30813 0.1852 0.68279 0.0
O314 O 0.35695 0.20692 0.67323 0.0
Mn315 Mn 0.34767 0.21943 0.65535 0.0
O316 O 0.32378 0.16608 0.65101 0.0
O317 O 0.32263 0.21964 0.66688 0.0
O318 O 0.34145 0.18335 0.71037 0.0
O319 O 0.32409 0.14976 0.7276 0.0
O320 O 0.37785 0.2418 0.66176 0.0
O321 O 0.34055 0.19978 0.63382 0.0
C322 C 0.28953 0.12253 0.68672 0.0
C323 C 0.35854 0.14655 0.68446 0.0
C324 C 0.30706 0.20325 0.67728 0.0
C325 C 0.37648 0.226 0.67374 0.0
C326 C 0.32885 0.17749 0.63473 0.0
C327 C 0.33596 0.17204 0.72673 0.0
O328 O 0.30845 0.14223 0.68792 0.0
O329 O 0.28811 0.10721 0.69927 0.0
O330 O 0.86318 0.18165 0.65843 0.0
Mn331 Mn 0.8291 0.16187 0.66729 0.0
O332 O 0.86173 0.19823 0.6298 0.0
Mn333 Mn 0.83001 0.18752 0.62873 0.0
O334 O 0.79491 0.14215 0.67575 0.0
O335 O 0.83623 0.13954 0.68111 0.0
Mn336 Mn 0.82588 0.13403 0.70531 0.0
O337 O 0.83576 0.18209 0.6928 0.0
O338 O 0.794 0.1217 0.70258 0.0
O339 O 0.82258 0.14149 0.64188 0.0
O340 O 0.81279 0.15796 0.61782 0.0
O341 O 0.83912 0.11551 0.70061 0.0
O342 O 0.84131 0.16297 0.7176 0.0
C343 C 0.81668 0.20033 0.65148 0.0
C344 C 0.87281 0.19411 0.64311 0.0
C345 C 0.78399 0.12754 0.68958 0.0
C346 C 0.84247 0.12415 0.68313 0.0
C347 C 0.84138 0.18091 0.71065 0.0
C348 C 0.81508 0.14123 0.62445 0.0
O349 O 0.82193 0.18419 0.65352 0.0
O350 O 0.81864 0.20765 0.63363 0.0
C351 C 0.27955 0.81502 0.08707 0.0
C352 C 0.26198 0.79722 0.07557 0.0
C353 C 0.2986 0.83387 0.0783 0.0
C354 C 0.33763 0.85311 0.03854 0.0
H355 H 0.34616 0.91486 0.04824 0.0
C356 C 0.41906 0.93745 0.01138 0.0
C357 C 0.42824 0.9567 0.02433 0.0
C358 C 0.39733 0.91778 0.01489 0.0
C359 C 0.34424 0.89781 0.04553 0.0
H360 H 0.25128 0.78533 0.04558 0.0
H361 H 0.28537 0.81791 0.03037 0.0
H362 H 0.31138 0.88036 0.05991 0.0
H363 H 0.42169 0.97015 0.05121 0.0
H364 H 0.38464 0.93598 0.05759 0.0
H365 H 0.37108 0.87043 0.02527 0.0
C366 C 0.2839 0.81717 0.04622 0.0
C367 C 0.3242 0.87808 0.05207 0.0
C368 C 0.2645 0.79847 0.05498 0.0
C369 C 0.41513 0.95584 0.04074 0.0
C370 C 0.39366 0.93617 0.04435 0.0
C371 C 0.35797 0.87291 0.0323 0.0
C372 C 0.30089 0.83515 0.05784 0.0
C373 C 0.3209 0.85562 0.04891 0.0
C374 C 0.3844 0.91682 0.03152 0.0
C375 C 0.36177 0.89558 0.03609 0.0
H376 H 0.27871 0.81445 0.10294 0.0
H377 H 0.31168 0.84745 0.08754 0.0
H378 H 0.33543 0.83589 0.03606 0.0
H379 H 0.42868 0.93751 -0.00141 0.0
H380 H 0.3907 0.90335 0.00455 0.0
C381 C 0.17262 0.43431 0.04254 0.0
C382 C 0.18037 0.44614 0.06056 0.0
C383 C 0.1549 0.43501 0.03221 0.0
C384 C 0.12709 0.46981 0.02565 0.0
H385 H 0.06987 0.41153 0.01659 0.0
C386 C 0.02799 0.44214 0.02557 0.0
C387 C 0.02862 0.45977 0.01361 0.0
C388 C 0.04613 0.43744 0.02523 0.0
C389 C 0.08586 0.42789 0.01876 0.0
H390 H 0.17644 0.4684 0.08174 0.0
H391 H 0.14585 0.47009 0.06347 0.0
H392 H 0.10422 0.41066 0.02802 0.0
H393 H 0.04784 0.48483 0.99064 0.0
H394 H 0.07951 0.47667 0.99025 0.0
H395 H 0.1087 0.48715 0.01732 0.0
C396 C 0.15329 0.46017 0.05741 0.0
C397 C 0.10546 0.4274 0.02519 0.0
C398 C 0.17061 0.45909 0.06789 0.0
C399 C 0.04685 0.47125 0.00018 0.0
C400 C 0.06505 0.46665 -5e-05 0.0
C401 C 0.10765 0.47032 0.019 0.0
C402 C 0.14518 0.44801 0.03958 0.0
C403 C 0.12595 0.44837 0.02932 0.0
C404 C 0.06527 0.45036 0.01301 0.0
C405 C 0.08664 0.44939 0.01613 0.0
H406 H 0.17993 0.42416 0.03671 0.0
H407 H 0.14883 0.42549 0.01848 0.0
H408 H 0.14278 0.48619 0.0287 0.0
H409 H 0.01411 0.43282 0.03595 0.0
H410 H 0.04592 0.42487 0.03554 0.0
C411 C 0.457 0.68419 0.07806 0.0
C412 C 0.47936 0.70115 0.08408 0.0
C413 C 0.45283 0.6626 0.07046 0.0
C414 C 0.4788 0.62437 0.07027 0.0
H415 H 0.44476 0.59854 0.02192 0.0
C416 C 0.49019 0.57748 0.00068 0.0
C417 C 0.49635 0.56232 0.00969 0.0
C418 C 0.47887 0.58681 0.01122 0.0
C419 C 0.45412 0.60537 0.03557 0.0
H420 H 0.51505 0.70951 0.08566 0.0
H421 H 0.50793 0.67233 0.07233 0.0
H422 H 0.44451 0.63181 0.03749 0.0
H423 H 0.49409 0.54354 0.0363 0.0
H424 H 0.47417 0.55998 0.05506 0.0
H425 H 0.48989 0.59929 0.06772 0.0
C426 C 0.49343 0.67519 0.07402 0.0
C427 C 0.45384 0.62435 0.04454 0.0
C428 C 0.49756 0.69658 0.08151 0.0
C429 C 0.48939 0.55512 0.02905 0.0
C430 C 0.47816 0.56469 0.03977 0.0
C431 C 0.47916 0.60552 0.0613 0.0
C432 C 0.47097 0.65769 0.06883 0.0
C433 C 0.46712 0.63476 0.06147 0.0
C434 C 0.47369 0.58146 0.03117 0.0
C435 C 0.46775 0.59651 0.04332 0.0
H436 H 0.44267 0.68728 0.07993 0.0
H437 H 0.43537 0.64952 0.06643 0.0
H438 H 0.48874 0.63164 0.08361 0.0
H439 H 0.4954 0.58324 0.98572 0.0
H440 H 0.47601 0.59979 0.00409 0.0
C441 C 0.80438 0.31063 0.91754 0.0
C442 C 0.79633 0.2894 0.92766 0.0
C443 C 0.81967 0.33193 0.92657 0.0
C444 C 0.86469 0.35445 0.96395 0.0
H445 H 0.863 0.41222 0.96023 0.0
C446 C 0.91203 0.44704 0.00614 0.0
C447 C 0.93484 0.45158 0.00522 0.0
C448 C 0.8951 0.43021 0.99375 0.0
C449 C 0.86366 0.3962 0.9613 0.0
H450 H 0.7971 0.27393 0.95546 0.0
H451 H 0.82369 0.31114 0.97129 0.0
H452 H 0.83158 0.37603 0.94582 0.0
H453 H 0.95812 0.44256 0.99077 0.0
H454 H 0.92869 0.41333 0.96903 0.0
H455 H 0.89651 0.37429 0.97948 0.0
C456 C 0.81831 0.31127 0.95631 0.0
C457 C 0.84577 0.37556 0.95305 0.0
C458 C 0.80291 0.28999 0.94733 0.0
C459 C 0.94075 0.43984 0.99128 0.0
C460 C 0.92385 0.42288 0.97908 0.0
C461 C 0.88259 0.37502 0.97197 0.0
C462 C 0.82732 0.33238 0.94585 0.0
C463 C 0.84602 0.35443 0.9545 0.0
C464 C 0.90071 0.4173 0.98069 0.0
C465 C 0.88225 0.39608 0.97084 0.0
H466 H 0.7994 0.31068 0.90241 0.0
H467 H 0.82636 0.34791 0.91815 0.0
H468 H 0.86556 0.33854 0.96502 0.0
H469 H 0.90705 0.45545 0.01722 0.0
H470 H 0.87736 0.42607 0.99546 0.0
C471 C 0.73672 0.55913 0.9556 0.0
C472 C 0.7392 0.54904 0.9383 0.0
C473 C 0.71498 0.55098 0.96391 0.0
C474 C 0.65244 0.51702 0.95226 0.0
H475 H 0.64732 0.52049 0.00874 0.0
C476 C 0.56686 0.49672 0.98805 0.0
C477 C 0.56951 0.51685 0.99757 0.0
C478 C 0.58623 0.49474 0.98366 0.0
C479 C 0.64847 0.51917 0.99298 0.0
H480 H 0.72102 0.52246 0.91611 0.0
H481 H 0.68291 0.50771 0.93084 0.0
H482 H 0.68401 0.52865 0.99441 0.0
H483 H 0.59396 0.54955 0.01156 0.0
H484 H 0.62767 0.54575 0.00448 0.0
H485 H 0.61686 0.50771 0.95093 0.0
C486 C 0.6977 0.52227 0.93782 0.0
C487 C 0.66952 0.5241 0.98471 0.0
C488 C 0.71949 0.53069 0.92935 0.0
C489 C 0.59149 0.53386 0.00424 0.0
C490 C 0.61075 0.53164 0.00022 0.0
C491 C 0.6313 0.51174 0.96057 0.0
C492 C 0.69517 0.53227 0.95527 0.0
C493 C 0.67201 0.5239 0.96419 0.0
C494 C 0.60842 0.51262 0.98911 0.0
C495 C 0.62932 0.51348 0.98095 0.0
H496 H 0.75165 0.57346 0.96268 0.0
H497 H 0.71373 0.55961 0.977 0.0
H498 H 0.65366 0.51687 0.93642 0.0
H499 H 0.55013 0.48351 0.98254 0.0
H500 H 0.58401 0.47987 0.97513 0.0
C501 C 0.51653 0.20599 0.91041 0.0
C502 C 0.51195 0.22013 0.92297 0.0
C503 C 0.51796 0.187 0.91781 0.0
C504 C 0.49503 0.14482 0.95768 0.0
H505 H 0.54184 0.1291 0.94368 0.0
C506 C 0.5258 0.08032 0.99057 0.0
C507 C 0.50407 0.06022 0.99289 0.0
C508 C 0.52833 0.09857 0.97844 0.0
C509 C 0.52862 0.13325 0.94762 0.0
H510 H 0.50598 0.22586 0.95319 0.0
H511 H 0.50832 0.19257 0.96612 0.0
H512 H 0.54431 0.16505 0.93086 0.0
H513 H 0.46827 0.04269 0.98384 0.0
H514 H 0.47264 0.07434 0.96244 0.0
H515 H 0.47932 0.11327 0.97444 0.0
C516 C 0.5108 0.19621 0.95054 0.0
C517 C 0.53 0.15376 0.94028 0.0
C518 C 0.50967 0.21538 0.94318 0.0
C519 C 0.48527 0.05789 0.98196 0.0
C520 C 0.48774 0.07611 0.96993 0.0
C521 C 0.49347 0.12425 0.96476 0.0
C522 C 0.51453 0.18156 0.93788 0.0
C523 C 0.51333 0.15986 0.94543 0.0
C524 C 0.50904 0.09709 0.96877 0.0
C525 C 0.51027 0.11825 0.95991 0.0
H526 H 0.51849 0.20933 0.89478 0.0
H527 H 0.52077 0.17598 0.9077 0.0
H528 H 0.48177 0.14888 0.96171 0.0
H529 H 0.54039 0.08265 -0.00074 0.0
H530 H 0.54492 0.11456 0.97793 0.0
C531 C 0.71276 0.20486 0.92959 0.0
C532 C 0.73347 0.20515 0.92576 0.0
C533 C 0.69399 0.18502 0.93777 0.0
C534 C 0.67203 0.12126 0.94586 0.0
H535 H 0.62588 0.12606 0.97656 0.0
C536 C 0.58308 0.04076 0.95971 0.0
C537 C 0.57078 0.03923 0.97688 0.0
C538 C 0.60389 0.06098 0.95547 0.0
C539 C 0.63874 0.12431 0.96831 0.0
H540 H 0.7514 0.18564 0.92814 0.0
H541 H 0.71926 0.15151 0.94337 0.0
H542 H 0.66057 0.16144 0.96647 0.0
H543 H 0.57114 0.05776 0.00332 0.0
H544 H 0.60812 0.09279 0.99637 0.0
H545 H 0.65086 0.08423 0.94849 0.0
C546 C 0.71689 0.16601 0.93936 0.0
C547 C 0.65855 0.14472 0.96216 0.0
C548 C 0.73543 0.18563 0.93077 0.0
C549 C 0.58016 0.05834 0.98996 0.0
C550 C 0.6013 0.07853 0.98586 0.0
C551 C 0.6525 0.10092 0.95232 0.0
C552 C 0.6957 0.1652 0.94269 0.0
C553 C 0.67531 0.14352 0.95051 0.0
C554 C 0.61336 0.08023 0.96842 0.0
C555 C 0.63527 0.10208 0.96326 0.0
H556 H 0.7109 0.21975 0.92576 0.0
H557 H 0.67797 0.18508 0.93971 0.0
H558 H 0.68422 0.11936 0.93674 0.0
H559 H 0.57628 0.02658 0.94911 0.0
H560 H 0.61217 0.06166 0.94165 0.0
C561 C 0.82712 0.57814 0.96553 0.0
C562 C 0.81946 0.56474 0.94822 0.0
C563 C 0.84445 0.57798 0.97695 0.0
C564 C 0.8936 0.58518 0.98563 0.0
H565 H 0.88922 0.52565 0.99748 0.0
C566 C 0.96944 0.56847 0.98476 0.0
C567 C 0.96889 0.55094 0.9968 0.0
C568 C 0.95183 0.57392 0.98576 0.0
C569 C 0.89063 0.54248 0.99477 0.0
H570 H 0.82308 0.54027 0.92946 0.0
H571 H 0.85294 0.53955 0.94959 0.0
H572 H 0.85525 0.52649 0.98581 0.0
H573 H 0.95065 0.52713 0.02076 0.0
H574 H 0.91992 0.53665 0.02239 0.0
H575 H 0.92942 0.60106 0.99342 0.0
C576 C 0.84575 0.55026 0.95429 0.0
C577 C 0.87121 0.54291 0.98794 0.0
C578 C 0.82885 0.55079 0.94272 0.0
C579 C 0.95147 0.5405 0.01106 0.0
C580 C 0.93383 0.54592 0.01201 0.0
C581 C 0.91317 0.58475 0.99229 0.0
C582 C 0.85381 0.56396 0.9714 0.0
C583 C 0.87276 0.56415 0.98263 0.0
C584 C 0.93332 0.56195 -0.0012 0.0
C585 C 0.91204 0.5633 0.99623 0.0
H586 H 0.82005 0.58905 0.96994 0.0
H587 H 0.85052 0.58872 0.99007 0.0
H588 H 0.89517 0.60176 0.98155 0.0
H589 H 0.98273 0.57707 0.97375 0.0
H590 H 0.95186 0.58626 0.97529 0.0
C591 C 0.52385 0.30397 0.94577 0.0
C592 C 0.52124 0.30111 0.92529 0.0
C593 C 0.52894 0.32522 0.9546 0.0
C594 C 0.54284 0.38706 0.94338 0.0
H595 H 0.50777 0.37821 0.99094 0.0
C596 C 0.50021 0.44046 0.96853 0.0
C597 C 0.49961 0.44416 0.98873 0.0
C598 C 0.51152 0.42894 0.96143 0.0
C599 C 0.51806 0.38115 0.97786 0.0
H600 H 0.52436 0.31936 0.89799 0.0
H601 H 0.53149 0.35546 0.91327 0.0
H602 H 0.51097 0.34592 0.97775 0.0
H603 H 0.51125 0.44011 0.0173 0.0
H604 H 0.53101 0.41995 0.00498 0.0
H605 H 0.54813 0.42198 0.94293 0.0
C606 C 0.53005 0.34162 0.92268 0.0
C607 C 0.52003 0.36257 0.97028 0.0
C608 C 0.52548 0.32059 0.91385 0.0
C609 C 0.51184 0.43775 0.00161 0.0
C610 C 0.52299 0.4261 0.99458 0.0
C611 C 0.54044 0.40555 0.9508 0.0
C612 C 0.53111 0.34405 0.94324 0.0
C613 C 0.53203 0.36502 0.95268 0.0
C614 C 0.52196 0.42056 0.97454 0.0
C615 C 0.52769 0.40262 0.96795 0.0
H616 H 0.52082 0.28948 0.95512 0.0
H617 H 0.53036 0.32654 0.97044 0.0
H618 H 0.55271 0.38993 0.93007 0.0
H619 H 0.49016 0.44446 0.95848 0.0
H620 H 0.5102 0.42465 0.94595 0.0
C621 C 0.17267 0.70088 0.07913 0.0
C622 C 0.19692 0.71291 0.07798 0.0
C623 C 0.15958 0.67825 0.07175 0.0
C624 C 0.15831 0.63878 0.03463 0.0
H625 H 0.10571 0.5932 0.06459 0.0
C626 C 0.08547 0.55671 0.9973 0.0
C627 C 0.0636 0.55377 0.00117 0.0
C628 C 0.10429 0.57113 0.00939 0.0
C629 C 0.12041 0.60561 0.05608 0.0
H630 H 0.22636 0.71063 0.06759 0.0
H631 H 0.20313 0.67097 0.05392 0.0
H632 H 0.13498 0.6291 0.08046 0.0
H633 H 0.04414 0.56379 0.02017 0.0
H634 H 0.07664 0.58876 0.04127 0.0
H635 H 0.14303 0.61605 0.00992 0.0
C636 C 0.19449 0.67918 0.06098 0.0
C637 C 0.13716 0.62615 0.06516 0.0
C638 C 0.20773 0.70189 0.06866 0.0
C639 C 0.0606 0.56487 0.0175 0.0
C640 C 0.07934 0.57936 0.02948 0.0
C641 C 0.14147 0.61824 0.0255 0.0
C642 C 0.1703 0.66708 0.06271 0.0
C643 C 0.15573 0.64336 0.05431 0.0
C644 C 0.10154 0.58315 0.02529 0.0
C645 C 0.12183 0.6019 0.03594 0.0
H646 H 0.16366 0.70904 0.08561 0.0
H647 H 0.14094 0.66963 0.07277 0.0
H648 H 0.17241 0.65181 0.02592 0.0
H649 H 0.0882 0.54876 0.98442 0.0
H650 H 0.12115 0.57367 0.00578 0.0
C651 C 0.28059 0.47713 0.07403 0.0
C652 C 0.26011 0.45911 0.06579 0.0
C653 C 0.30167 0.48516 0.06436 0.0
C654 C 0.32604 0.48259 0.01553 0.0
H655 H 0.38096 0.49887 0.04617 0.0
C656 C 0.40257 0.47219 0.99131 0.0
C657 C 0.42492 0.48932 0.99711 0.0
C658 C 0.38358 0.4745 0.99627 0.0
C659 C 0.36587 0.49485 0.03741 0.0
H660 H 0.24549 0.43482 0.04147 0.0
H661 H 0.28219 0.44786 0.02508 0.0
H662 H 0.3454 0.49007 0.06285 0.0
H663 H 0.44514 0.52318 0.01118 0.0
H664 H 0.41181 0.52691 0.0203 0.0
H665 H 0.34638 0.48578 0.99017 0.0
C666 C 0.28211 0.4566 0.03852 0.0
C667 C 0.34544 0.48979 0.04696 0.0
C668 C 0.26107 0.44889 0.04801 0.0
C669 C 0.42813 0.50976 0.00645 0.0
C670 C 0.40907 0.51183 0.0118 0.0
C671 C 0.34639 0.48725 0.00601 0.0
C672 C 0.30269 0.47504 0.04642 0.0
C673 C 0.32508 0.48301 0.03618 0.0
C674 C 0.38659 0.49376 0.00742 0.0
C675 C 0.36634 0.49296 0.0169 0.0
H676 H 0.28018 0.48543 0.08765 0.0
H677 H 0.31706 0.49954 0.07081 0.0
H678 H 0.31093 0.47811 0.00667 0.0
H679 H 0.39963 0.45629 0.98407 0.0
H680 H 0.36641 0.46027 0.99279 0.0
C681 C 0.47328 0.79145 0.10011 0.0
C682 C 0.47834 0.77727 0.08801 0.0
C683 C 0.47135 0.80995 0.09222 0.0
C684 C 0.46288 0.834 0.04596 0.0
H685 H 0.49902 0.89431 0.07164 0.0
C686 C 0.4704 0.91738 0.01231 0.0
C687 C 0.49342 0.93494 0.00951 0.0
C688 C 0.4651 0.89887 0.02522 0.0
C689 C 0.48868 0.87755 0.0644 0.0
H690 H 0.48457 0.77118 0.0579 0.0
H691 H 0.4807 0.80308 0.04414 0.0
H692 H 0.4957 0.85921 0.08679 0.0
H693 H 0.52882 0.94775 0.0183 0.0
H694 H 0.51964 0.91587 0.04123 0.0
H695 H 0.4565 0.85242 0.02325 0.0
C696 C 0.47819 0.79982 0.05976 0.0
C697 C 0.48667 0.85743 0.07312 0.0
C698 C 0.48034 0.78144 0.06767 0.0
C699 C 0.5109 0.93458 0.02058 0.0
C700 C 0.50561 0.9163 0.03366 0.0
C701 C 0.4647 0.85407 0.03735 0.0
C702 C 0.47415 0.81459 0.072 0.0
C703 C 0.47417 0.83549 0.06378 0.0
C704 C 0.48277 0.89774 0.03553 0.0
C705 C 0.47804 0.87616 0.04624 0.0
H706 H 0.47117 0.7885 0.11579 0.0
H707 H 0.46788 0.82078 0.102 0.0
H708 H 0.45296 0.81734 0.03849 0.0
H709 H 0.45673 0.91713 0.00357 0.0
H710 H 0.44733 0.8849 0.02646 0.0
C711 C 0.95438 0.12337 0.40131 0.0
C712 C 0.9376 0.12586 0.41174 0.0
C713 C 0.97302 0.14272 0.39246 0.0
C714 C 0.99301 0.20383 0.3762 0.0
H715 H 0.05373 0.21008 0.37897 0.0
C716 C 0.07784 0.29133 0.36451 0.0
C717 C 0.09625 0.29102 0.35483 0.0
C718 C 0.05744 0.27048 0.3686 0.0
C719 C 0.03684 0.20844 0.37778 0.0
H720 H 0.9272 0.15081 0.42065 0.0
H721 H 0.96 0.18456 0.40587 0.0
H722 H 0.02051 0.17519 0.39212 0.0
H723 H 0.10705 0.26845 0.34103 0.0
H724 H 0.07146 0.23202 0.34828 0.0
H725 H 0.00957 0.23745 0.36235 0.0
C726 C 0.95861 0.16758 0.40424 0.0
C727 C 0.01774 0.1884 0.38533 0.0
C728 C 0.93994 0.14823 0.41301 0.0
C729 C 0.09329 0.26936 0.34855 0.0
C730 C 0.07295 0.24846 0.35283 0.0
C731 C 0.01214 0.22392 0.36876 0.0
C732 C 0.97544 0.16512 0.39385 0.0
C733 C 0.99559 0.18592 0.38485 0.0
C734 C 0.05497 0.24876 0.36325 0.0
C735 C 0.03432 0.22659 0.36964 0.0
H736 H 0.95329 0.10648 0.40016 0.0
H737 H 0.98547 0.14007 0.38442 0.0
H738 H 0.97619 0.20236 0.37518 0.0
H739 H 0.07943 0.30766 0.36953 0.0
H740 H 0.04401 0.27135 0.37676 0.0
C741 C 0.81405 0.73516 0.38154 0.0
C742 C 0.83613 0.75516 0.38191 0.0
C743 C 0.79598 0.73539 0.37153 0.0
C744 C 0.78033 0.76876 0.33713 0.0
H745 H 0.72858 0.74914 0.37251 0.0
C746 C 0.71645 0.80314 0.3331 0.0
C747 C 0.69406 0.7892 0.34057 0.0
C748 C 0.73218 0.79509 0.33339 0.0
C749 C 0.7425 0.75417 0.36212 0.0
H750 H 0.85713 0.79045 0.37095 0.0
H751 H 0.8254 0.79099 0.35356 0.0
H752 H 0.75945 0.74183 0.38109 0.0
H753 H 0.66984 0.75515 0.35243 0.0
H754 H 0.69694 0.7407 0.35221 0.0
H755 H 0.76346 0.78163 0.31836 0.0
C756 C 0.82211 0.77506 0.36087 0.0
C757 C 0.76031 0.75001 0.3671 0.0
C758 C 0.84025 0.7748 0.37085 0.0
C759 C 0.68713 0.76641 0.34689 0.0
C760 C 0.7027 0.7582 0.34685 0.0
C761 C 0.76233 0.77278 0.33203 0.0
C762 C 0.79961 0.75566 0.36175 0.0
C763 C 0.77962 0.75763 0.35488 0.0
C764 C 0.72571 0.7728 0.3409 0.0
C765 C 0.74342 0.76594 0.34468 0.0
H766 H 0.81055 0.71964 0.38967 0.0
H767 H 0.77891 0.72003 0.37215 0.0
H768 H 0.79495 0.77467 0.32736 0.0
H769 H 0.72228 0.82083 0.32818 0.0
H770 H 0.74977 0.80692 0.32885 0.0
C771 C 0.15715 0.02637 0.43592 0.0
C772 C 0.16482 0.04689 0.42482 0.0
C773 C 0.15425 0.00586 0.42718 0.0
C774 C 0.17742 0.9882 0.38622 0.0
H775 H 0.12785 0.92516 0.39706 0.0
C776 C 0.1421 0.89334 0.34881 0.0
C777 C 0.16341 0.89468 0.34558 0.0
C778 C 0.14052 0.9089 0.36189 0.0
C779 C 0.14181 0.94267 0.39396 0.0
H780 H 0.17433 0.06162 0.39565 0.0
H781 H 0.16901 0.02577 0.38032 0.0
H782 H 0.12704 0.95877 0.41168 0.0
H783 H 0.19949 0.9123 0.3538 0.0
H784 H 0.19673 0.93905 0.37701 0.0
H785 H 0.19209 0.97244 0.36834 0.0
C786 C 0.16551 0.02564 0.39586 0.0
C787 C 0.14139 0.96188 0.40235 0.0
C788 C 0.16831 0.0461 0.40458 0.0
C789 C 0.18279 0.91072 0.35639 0.0
C790 C 0.18124 0.92619 0.36946 0.0
C791 C 0.17793 0.96911 0.378 0.0
C792 C 0.15907 0.00549 0.40716 0.0
C793 C 0.1591 0.98487 0.39839 0.0
C794 C 0.16035 0.92621 0.37163 0.0
C795 C 0.16013 0.94612 0.38169 0.0
H796 H 0.15407 0.02638 0.45153 0.0
H797 H 0.1493 0.99065 0.43628 0.0
H798 H 0.19152 0.00564 0.38313 0.0
H799 H 0.12711 0.8815 0.34016 0.0
H800 H 0.12423 0.90858 0.36312 0.0
C801 C 0.47786 0.64085 0.24591 0.0
C802 C 0.47061 0.62221 0.25923 0.0
C803 C 0.49102 0.66405 0.25234 0.0
C804 C 0.50963 0.70131 0.29718 0.0
H805 H 0.56551 0.74026 0.26773 0.0
C806 C 0.58086 0.78593 0.33132 0.0
C807 C 0.6026 0.78771 0.33048 0.0
C808 C 0.56322 0.7708 0.31854 0.0
C809 C 0.54988 0.72972 0.27604 0.0
H810 H 0.4711 0.61345 0.28981 0.0
H811 H 0.49387 0.65376 0.30101 0.0
H812 H 0.53616 0.70283 0.25407 0.0
H813 H 0.62332 0.77563 0.31576 0.0
H814 H 0.59269 0.74901 0.29372 0.0
H815 H 0.5239 0.72733 0.31969 0.0
C816 C 0.48915 0.65051 0.28563 0.0
C817 C 0.53296 0.70833 0.26814 0.0
C818 C 0.47608 0.62735 0.27921 0.0
C819 C 0.60686 0.77506 0.31619 0.0
C820 C 0.58921 0.75973 0.30361 0.0
C821 C 0.52652 0.72266 0.30506 0.0
C822 C 0.4971 0.66913 0.27224 0.0
C823 C 0.51303 0.6935 0.27896 0.0
C824 C 0.56693 0.75677 0.3051 0.0
C825 C 0.54721 0.73676 0.29489 0.0
H826 H 0.47362 0.63748 0.23046 0.0
H827 H 0.49665 0.67801 0.2417 0.0
H828 H 0.49429 0.69047 0.30573 0.0
H829 H 0.57714 0.79519 0.34257 0.0
H830 H 0.54634 0.76913 0.31993 0.0
C831 C 0.4191 0.92095 0.2902 0.0
C832 C 0.42136 0.91064 0.27288 0.0
C833 C 0.39733 0.91573 0.29691 0.0
C834 C 0.33506 0.87235 0.29245 0.0
H835 H 0.32728 0.92363 0.31079 0.0
C836 C 0.25723 0.89355 0.30467 0.0
C837 C 0.241 0.87351 0.31485 0.0
C838 C 0.27964 0.89788 0.3017 0.0
C839 C 0.32917 0.90912 0.30571 0.0
H840 H 0.40247 0.88649 0.2492 0.0
H841 H 0.36444 0.87771 0.26073 0.0
H842 H 0.36538 0.93124 0.30084 0.0
H843 H 0.23584 0.84251 0.33024 0.0
H844 H 0.27518 0.85017 0.32504 0.0
H845 H 0.29865 0.85036 0.29676 0.0
C846 C 0.37953 0.88964 0.26923 0.0
C847 C 0.35104 0.91344 0.30018 0.0
C848 C 0.40132 0.89489 0.26248 0.0
C849 C 0.24791 0.85814 0.32237 0.0
C850 C 0.27039 0.86242 0.31927 0.0
C851 C 0.31316 0.86801 0.29804 0.0
C852 C 0.37729 0.90007 0.28648 0.0
C853 C 0.3542 0.89516 0.29327 0.0
C854 C 0.28643 0.88226 0.30877 0.0
C855 C 0.30993 0.88642 0.30447 0.0
H856 H 0.43421 0.93333 0.29844 0.0
H857 H 0.39619 0.92391 0.31034 0.0
H858 H 0.33698 0.85784 0.28741 0.0
H859 H 0.25256 0.9058 0.2987 0.0
H860 H 0.29148 0.91316 0.29333 0.0
C861 C 0.18877 0.54082 0.23976 0.0
C862 C 0.18132 0.55337 0.25147 0.0
C863 C 0.19162 0.52292 0.24781 0.0
C864 C 0.19733 0.49863 0.29541 0.0
H865 H 0.17415 0.44074 0.26595 0.0
C866 C 0.19653 0.41984 0.33094 0.0
C867 C 0.17555 0.39876 0.32917 0.0
C868 C 0.20159 0.43856 0.31841 0.0
C869 C 0.18074 0.45679 0.27438 0.0
H870 H 0.17119 0.55689 0.28093 0.0
H871 H 0.17614 0.52582 0.29493 0.0
H872 H 0.17417 0.4743 0.25096 0.0
H873 H 0.1437 0.38018 0.31271 0.0
H874 H 0.15227 0.4128 0.29087 0.0
H875 H 0.20281 0.48092 0.31916 0.0
C876 C 0.18017 0.53002 0.27957 0.0
C877 C 0.18096 0.47614 0.2657 0.0
C878 C 0.17734 0.54792 0.27153 0.0
C879 C 0.16024 0.39616 0.31402 0.0
C880 C 0.16518 0.41492 0.30155 0.0
C881 C 0.19706 0.47932 0.30408 0.0
C882 C 0.18712 0.51711 0.26779 0.0
C883 C 0.18884 0.49718 0.27626 0.0
C884 C 0.18549 0.43672 0.30414 0.0
C885 C 0.18838 0.45798 0.29383 0.0
H886 H 0.19227 0.54475 0.2243 0.0
H887 H 0.19734 0.51362 0.23835 0.0
H888 H 0.20387 0.51462 0.30389 0.0
H889 H 0.20837 0.42234 0.34281 0.0
H890 H 0.2176 0.45489 0.3206 0.0
C891 C 0.39284 0.54001 0.27522 0.0
C892 C 0.41099 0.5371 0.26814 0.0
C893 C 0.37362 0.52141 0.28422 0.0
C894 C 0.34152 0.45728 0.2844 0.0
H895 H 0.31054 0.46374 0.33003 0.0
C896 C 0.26306 0.37694 0.31641 0.0
C897 C 0.24407 0.37935 0.32169 0.0
C898 C 0.28455 0.39663 0.31283 0.0
C899 C 0.31889 0.46169 0.31718 0.0
H900 H 0.42377 0.51278 0.26608 0.0
H901 H 0.39024 0.48038 0.28159 0.0
H902 H 0.34608 0.4976 0.31815 0.0
H903 H 0.23298 0.40434 0.32822 0.0
H904 H 0.27045 0.43884 0.32148 0.0
H905 H 0.31426 0.42176 0.28292 0.0
C906 C 0.39067 0.4969 0.27988 0.0
C907 C 0.33926 0.48108 0.31041 0.0
C908 C 0.40987 0.51546 0.27096 0.0
C909 C 0.24734 0.40195 0.32428 0.0
C910 C 0.26884 0.42172 0.32043 0.0
C911 C 0.32117 0.43803 0.29106 0.0
C912 C 0.37213 0.49951 0.28628 0.0
C913 C 0.3508 0.47904 0.29395 0.0
C914 C 0.28755 0.41926 0.31412 0.0
C915 C 0.30959 0.43991 0.30756 0.0
H916 H 0.39306 0.55638 0.27314 0.0
H917 H 0.35953 0.52392 0.28885 0.0
H918 H 0.34969 0.45524 0.27143 0.0
H919 H 0.26117 0.35976 0.31455 0.0
H920 H 0.29871 0.39406 0.30857 0.0
C921 C 0.52436 0.94005 0.28416 0.0
C922 C 0.50078 0.92361 0.28638 0.0
C923 C 0.54101 0.93792 0.29483 0.0
C924 C 0.5477 0.89143 0.31771 0.0
H925 H 0.6094 0.94283 0.32858 0.0
C926 C 0.62102 0.87404 0.33674 0.0
C927 C 0.64002 0.88561 0.32405 0.0
C928 C 0.60467 0.8812 0.33816 0.0
C929 C 0.59219 0.92833 0.32575 0.0
H930 H 0.47614 0.89315 0.3028 0.0
H931 H 0.50515 0.89002 0.32202 0.0
H932 H 0.57844 0.95102 0.32099 0.0
H933 H 0.65759 0.91485 0.30404 0.0
H934 H 0.62901 0.92728 0.30653 0.0
H935 H 0.56154 0.8688 0.32197 0.0
C936 C 0.51082 0.90415 0.31155 0.0
C937 C 0.57447 0.93298 0.32133 0.0
C938 C 0.49415 0.90611 0.30069 0.0
C939 C 0.64308 0.90543 0.31382 0.0
C940 C 0.6268 0.91269 0.31538 0.0
C941 C 0.56531 0.88679 0.32233 0.0
C942 C 0.53448 0.91946 0.30819 0.0
C943 C 0.55219 0.91462 0.31658 0.0
C944 C 0.60708 0.9002 0.32708 0.0
C945 C 0.58789 0.90521 0.32576 0.0
H946 H 0.53003 0.95407 0.27358 0.0
H947 H 0.55903 0.94999 0.2917 0.0
H948 H 0.53092 0.87682 0.31384 0.0
H949 H 0.61815 0.85876 0.34492 0.0
H950 H 0.58972 0.8714 0.34743 0.0
C951 C 0.16043 0.63343 0.25672 0.0
C952 C 0.17858 0.62855 0.25562 0.0
C953 C 0.16416 0.65469 0.26422 0.0
C954 C 0.2011 0.70429 0.29588 0.0
H955 H 0.17294 0.73416 0.26691 0.0
C956 C 0.20009 0.78456 0.3277 0.0
C957 C 0.17793 0.78187 0.32782 0.0
C958 C 0.20492 0.77038 0.31559 0.0
C959 C 0.18095 0.7261 0.27516 0.0
H960 H 0.21462 0.64168 0.26257 0.0
H961 H 0.22112 0.67908 0.2762 0.0
H962 H 0.17202 0.69945 0.2534 0.0
H963 H 0.14359 0.76283 0.31543 0.0
H964 H 0.15192 0.73835 0.29406 0.0
H965 H 0.20915 0.73032 0.31806 0.0
C966 C 0.20405 0.66637 0.27094 0.0
C967 C 0.1804 0.7062 0.26744 0.0
C968 C 0.20033 0.64497 0.26326 0.0
C969 C 0.16101 0.76567 0.31508 0.0
C970 C 0.16582 0.75161 0.30289 0.0
C971 C 0.20157 0.72419 0.30367 0.0
C972 C 0.18611 0.67165 0.271 0.0
C973 C 0.1898 0.69464 0.278 0.0
C974 C 0.18756 0.75314 0.30356 0.0
C975 C 0.19087 0.73489 0.29367 0.0
H976 H 0.14334 0.6209 0.25135 0.0
H977 H 0.14981 0.65793 0.26461 0.0
H978 H 0.20843 0.69573 0.30436 0.0
H979 H 0.21316 0.79648 0.33791 0.0
H980 H 0.22188 0.77211 0.31635 0.0
C981 C 0.86869 0.03959 0.39008 0.0
C982 C 0.87486 0.04098 0.40995 0.0
C983 C 0.8543 0.01785 0.38127 0.0
C984 C 0.80908 0.95827 0.39435 0.0
H985 H 0.81321 0.94639 0.33919 0.0
C986 C 0.73068 0.8975 0.34694 0.0
C987 C 0.73354 0.88612 0.33073 0.0
C988 C 0.74945 0.9118 0.35902 0.0
C989 C 0.81197 0.94911 0.35472 0.0
H990 H 0.87209 0.02067 0.43581 0.0
H991 H 0.84713 0.98272 0.42039 0.0
H992 H 0.84469 0.9808 0.35483 0.0
H993 H 0.7578 0.88005 0.31453 0.0
H994 H 0.79064 0.90439 0.33608 0.0
H995 H 0.77616 0.92676 0.39413 0.0
C996 C 0.85298 0.99841 0.41173 0.0
C997 C 0.82991 0.96906 0.36361 0.0
C998 C 0.86731 0.02014 0.42054 0.0
C999 C 0.75516 0.88828 0.32727 0.0
C1000 C 0.77395 0.90242 0.33945 0.0
C1001 C 0.79114 0.93829 0.38545 0.0
C1002 C 0.84586 0.99703 0.39211 0.0
C1003 C 0.82839 0.97424 0.38338 0.0
C1004 C 0.77149 0.91505 0.35503 0.0
C1005 C 0.79208 0.93382 0.36539 0.0
H1006 H 0.87402 0.05533 0.38161 0.0
H1007 H 0.84893 0.01747 0.3662 0.0
H1008 H 0.80726 0.96175 0.40959 0.0
H1009 H 0.71437 0.89685 0.34939 0.0
H1010 H 0.74696 0.92154 0.37064 0.0
C1011 C 0.92083 0.7652 0.37753 0.0
C1012 C 0.9173 0.7733 0.39558 0.0
C1013 C 0.94303 0.7708 0.3717 0.0
C1014 C -0.0005 0.78672 0.39277 0.0
H1015 H 0.02067 0.80044 0.33889 0.0
C1016 C 0.08898 0.81739 0.34735 0.0
C1017 C 0.09539 0.80201 0.35574 0.0
C1018 C 0.06713 0.81457 0.35095 0.0
C1019 C 0.01504 0.79678 0.35401 0.0
H1020 H 0.93446 0.79456 0.42121 0.0
H1021 H 0.9732 0.80426 0.41107 0.0
H1022 H 0.98316 0.79582 0.34772 0.0
H1023 H 0.08337 0.77094 0.37373 0.0
H1024 H 0.04543 0.76601 0.37981 0.0
H1025 H 0.03126 0.78771 0.39912 0.0
C1026 C 0.95874 0.79327 0.40157 0.0
C1027 C 0.99351 0.79395 0.35904 0.0
C1028 C 0.93655 0.7877 0.40739 0.0
C1029 C 0.07916 0.78327 0.36717 0.0
C1030 C 0.05742 0.78049 0.37077 0.0
C1031 C 0.02089 0.78942 0.38773 0.0
C1032 C 0.96219 0.78459 0.38381 0.0
C1033 C 0.98547 0.78876 0.37847 0.0
C1034 C 0.05131 0.79636 0.36305 0.0
C1035 C 0.02882 0.79426 0.36828 0.0
H1036 H 0.90635 0.75382 0.3682 0.0
H1037 H 0.94508 0.7636 0.35805 0.0
H1038 H 0.99371 0.78248 0.40781 0.0
H1039 H 0.10105 0.83206 0.33851 0.0
H1040 H 0.06293 0.82712 0.34485 0.0
C1041 C 0.16935 0.12858 0.40599 0.0
C1042 C 0.16811 0.12492 0.42637 0.0
C1043 C 0.16555 0.14586 0.39798 0.0
C1044 C 0.16718 0.20104 0.41118 0.0
H1045 H 0.13823 0.1924 0.36017 0.0
C1046 C 0.18354 0.27704 0.36009 0.0
C1047 C 0.1663 0.27415 0.3468 0.0
C1048 C 0.1797 0.25913 0.37311 0.0
C1049 C 0.14597 0.19506 0.3746 0.0
H1050 H 0.16097 0.13594 0.45422 0.0
H1051 H 0.1542 0.16598 0.44025 0.0
H1052 H 0.13874 0.15963 0.37584 0.0
H1053 H 0.1315 0.25072 0.33669 0.0
H1054 H 0.1243 0.21958 0.35995 0.0
H1055 H 0.17448 0.23654 0.40987 0.0
C1056 C 0.15855 0.15581 0.43048 0.0
C1057 C 0.14659 0.1763 0.38346 0.0
C1058 C 0.1624 0.13856 0.43849 0.0
C1059 C 0.14476 0.25357 0.34728 0.0
C1060 C 0.14084 0.23564 0.36036 0.0
C1061 C 0.16652 0.21981 0.40233 0.0
C1062 C 0.16032 0.15986 0.41014 0.0
C1063 C 0.15766 0.17918 0.40165 0.0
C1064 C 0.1586 0.23782 0.37288 0.0
C1065 C 0.15636 0.2172 0.38372 0.0
H1066 H 0.17401 0.11861 0.39627 0.0
H1067 H 0.16743 0.14872 0.38229 0.0
H1068 H 0.17596 0.20395 0.42516 0.0
H1069 H 0.2005 0.29258 0.35956 0.0
H1070 H 0.19388 0.2614 0.38233 0.0
C1071 C 0.61652 0.48878 0.74658 0.0
C1072 C 0.59873 0.4701 0.73596 0.0
C1073 C 0.63542 0.5067 0.7369 0.0
C1074 C 0.67523 0.52385 0.69939 0.0
H1075 H 0.67845 0.58419 0.69966 0.0
C1076 C 0.75668 0.60747 0.6726 0.0
C1077 C 0.76396 0.62729 0.68469 0.0
C1078 C 0.73471 0.5878 0.6749 0.0
C1079 C 0.67791 0.56752 0.69951 0.0
H1080 H 0.58747 0.4553 0.7068 0.0
H1081 H 0.62129 0.48651 0.68995 0.0
H1082 H 0.64381 0.54965 0.71167 0.0
H1083 H 0.75345 0.6421 0.70828 0.0
H1084 H 0.71575 0.6079 0.71258 0.0
H1085 H 0.70986 0.54178 0.68855 0.0
C1086 C 0.62011 0.48715 0.70578 0.0
C1087 C 0.658 0.54777 0.70621 0.0
C1088 C 0.60091 0.4693 0.71545 0.0
C1089 C 0.74848 0.62724 0.69864 0.0
C1090 C 0.72667 0.60758 0.70101 0.0
C1091 C 0.69534 0.54369 0.69293 0.0
C1092 C 0.63722 0.50614 0.71646 0.0
C1093 C 0.65674 0.52594 0.70656 0.0
C1094 C 0.71959 0.58747 0.68938 0.0
C1095 C 0.69715 0.5659 0.69341 0.0
H1096 H 0.61577 0.4897 0.76241 0.0
H1097 H 0.64864 0.52114 0.74538 0.0
H1098 H 0.67457 0.50712 0.69973 0.0
H1099 H 0.76812 0.60691 0.66165 0.0
H1100 H 0.72972 0.57274 0.6655 0.0
C1101 C 0.51238 0.10372 0.7076 0.0
C1102 C 0.5225 0.1154 0.72527 0.0
C1103 C 0.49796 0.10936 0.69699 0.0
C1104 C 0.48029 0.15282 0.689 0.0
H1105 H 0.41781 0.10007 0.68795 0.0
C1106 C 0.40102 0.16451 0.68665 0.0
C1107 C 0.37972 0.14591 0.68044 0.0
C1108 C 0.4207 0.16229 0.68641 0.0
C1109 C 0.43516 0.11495 0.68744 0.0
H1110 H 0.52678 0.14291 0.74519 0.0
H1111 H 0.5019 0.15318 0.72635 0.0
H1112 H 0.44935 0.09413 0.69754 0.0
H1113 H 0.3622 0.11119 0.66772 0.0
H1114 H 0.3968 0.10776 0.66592 0.0
H1115 H 0.46627 0.17373 0.67883 0.0
C1116 C 0.50504 0.13963 0.72079 0.0
C1117 C 0.45324 0.11148 0.6931 0.0
C1118 C 0.51908 0.13367 0.73161 0.0
C1119 C 0.37855 0.12569 0.67268 0.0
C1120 C 0.39834 0.1237 0.67188 0.0
C1121 C 0.46225 0.15624 0.68285 0.0
C1122 C 0.49388 0.12708 0.70371 0.0
C1123 C 0.47581 0.13047 0.6945 0.0
C1124 C 0.41949 0.14153 0.67957 0.0
C1125 C 0.43929 0.13747 0.68265 0.0
H1126 H 0.51469 0.08946 0.70252 0.0
H1127 H 0.48942 0.09941 0.68388 0.0
H1128 H 0.49766 0.16769 0.68988 0.0
H1129 H 0.40213 0.18009 0.69302 0.0
H1130 H 0.43642 0.17632 0.69276 0.0
C1131 C 0.8118 0.36094 0.7353 0.0
C1132 C 0.83209 0.37539 0.74595 0.0
C1133 C 0.80886 0.34068 0.72589 0.0
C1134 C 0.84178 0.31269 0.70805 0.0
H1135 H 0.78282 0.25508 0.71114 0.0
C1136 C 0.83275 0.22656 0.68039 0.0
C1137 C 0.8141 0.2136 0.66765 0.0
C1138 C 0.83341 0.24432 0.69209 0.0
C1139 C 0.79936 0.27106 0.71012 0.0
H1140 H 0.86563 0.38053 0.75429 0.0
H1141 H 0.86042 0.34531 0.73828 0.0
H1142 H 0.78722 0.291 0.72579 0.0
H1143 H 0.78141 0.20865 0.65722 0.0
H1144 H 0.78228 0.23947 0.67788 0.0
H1145 H 0.85395 0.29292 0.69239 0.0
C1146 C 0.84675 0.34949 0.73705 0.0
C1147 C 0.80186 0.29168 0.71839 0.0
C1148 C 0.84966 0.36961 0.7464 0.0
C1149 C 0.79566 0.21801 0.66738 0.0
C1150 C 0.79622 0.23569 0.67916 0.0
C1151 C 0.83932 0.29214 0.69988 0.0
C1152 C 0.82624 0.3346 0.72683 0.0
C1153 C 0.82313 0.31275 0.71749 0.0
C1154 C 0.81551 0.24962 0.69112 0.0
C1155 C 0.81811 0.27105 0.70082 0.0
H1156 H 0.79795 0.36491 0.73475 0.0
H1157 H 0.79297 0.32977 0.71792 0.0
H1158 H 0.85829 0.32865 0.70673 0.0
H1159 H 0.84761 0.22415 0.68027 0.0
H1160 H 0.84841 0.25457 0.7013 0.0
C1161 C 0.13828 0.97523 0.58634 0.0
C1162 C 0.13241 0.95462 0.59675 0.0
C1163 C 0.15332 0.99715 0.59459 0.0
C1164 C 0.20254 0.02223 0.62681 0.0
H1165 H 0.19707 0.07798 0.6294 0.0
C1166 C 0.25074 0.11025 0.67323 0.0
C1167 C 0.27345 0.11517 0.67021 0.0
C1168 C 0.23311 0.09512 0.66045 0.0
C1169 C 0.19882 0.06255 0.62858 0.0
H1170 H 0.13657 0.94078 0.62431 0.0
H1171 H 0.16284 0.97903 0.63866 0.0
H1172 H 0.16486 0.04125 0.61627 0.0
H1173 H 0.29604 0.10941 0.65128 0.0
H1174 H 0.26542 0.08338 0.6287 0.0
H1175 H 0.23613 0.04299 0.63918 0.0
C1176 C 0.15582 0.9782 0.62414 0.0
C1177 C 0.18047 0.04164 0.62112 0.0
C1178 C 0.14066 0.95635 0.616 0.0
C1179 C 0.27867 0.10621 0.65359 0.0
C1180 C 0.26113 0.09116 0.64082 0.0
C1181 C 0.22086 0.04305 0.63394 0.0
C1182 C 0.16288 0.99873 0.61326 0.0
C1183 C 0.1821 0.02123 0.62053 0.0
C1184 C 0.23802 0.08445 0.64476 0.0
C1185 C 0.21917 0.06338 0.63509 0.0
H1186 H 0.13198 0.97435 0.57153 0.0
H1187 H 0.15854 0.01274 0.58592 0.0
H1188 H 0.20435 0.00682 0.62624 0.0
H1189 H 0.24634 0.11647 0.68635 0.0
H1190 H 0.21543 0.09008 0.66395 0.0
C1191 C 0.05873 0.22388 0.58799 0.0
C1192 C 0.07651 0.23167 0.60205 0.0
C1193 C 0.03726 0.22111 0.59291 0.0
C1194 C 0.00755 0.23689 0.6313 0.0
H1195 H 0.95268 0.18702 0.60637 0.0
C1196 C 0.91197 0.20302 0.65497 0.0
C1197 C 0.89751 0.20229 0.63964 0.0
C1198 C 0.93461 0.20832 0.65106 0.0
C1199 C 0.96791 0.20105 0.61338 0.0
H1200 H 0.0855 0.24296 0.63236 0.0
H1201 H 0.04775 0.2367 0.64122 0.0
H1202 H 0.99033 0.19199 0.59842 0.0
H1203 H 0.89564 0.20699 0.60827 0.0
H1204 H 0.9349 0.21569 0.60152 0.0
H1205 H 0.98462 0.24517 0.6468 0.0
C1206 C 0.05055 0.23333 0.62621 0.0
C1207 C 0.98953 0.20406 0.60873 0.0
C1208 C 0.07216 0.23651 0.62119 0.0
C1209 C 0.90634 0.20754 0.62045 0.0
C1210 C 0.92874 0.21238 0.61652 0.0
C1211 C 0.98583 0.23355 0.63622 0.0
C1212 C 0.03279 0.22563 0.61213 0.0
C1213 C 0.0097 0.22217 0.61747 0.0
C1214 C 0.94293 0.2125 0.63173 0.0
C1215 C 0.9659 0.21576 0.62714 0.0
H1216 H 0.06127 0.21967 0.57316 0.0
H1217 H 0.02422 0.21556 0.58154 0.0
H1218 H 0.02265 0.25126 0.63811 0.0
H1219 H 0.90567 0.19906 0.6699 0.0
H1220 H 0.94532 0.20829 0.66299 0.0
C1221 C 0.83052 0.87092 0.60258 0.0
C1222 C 0.83864 0.87974 0.58373 0.0
C1223 C 0.8326 0.8523 0.60998 0.0
C1224 C 0.8653 0.82169 0.60649 0.0
H1225 H 0.8102 0.76934 0.62843 0.0
C1226 C 0.82965 0.72424 0.64411 0.0
C1227 C 0.84526 0.73052 0.65981 0.0
C1228 C 0.83105 0.74133 0.63113 0.0
C1229 C 0.82568 0.78367 0.62212 0.0
H1230 H 0.85597 0.8765 0.55809 0.0
H1231 H 0.86014 0.84425 0.57128 0.0
H1232 H 0.80816 0.80214 0.61414 0.0
H1233 H 0.87514 0.7591 0.67383 0.0
H1234 H 0.87814 0.78888 0.65081 0.0
H1235 H 0.88298 0.80349 0.61518 0.0
C1236 C 0.85197 0.85164 0.58021 0.0
C1237 C 0.82456 0.80256 0.61415 0.0
C1238 C 0.84952 0.87001 0.57266 0.0
C1239 C 0.86326 0.75379 0.66153 0.0
C1240 C 0.86489 0.77082 0.6484 0.0
C1241 C 0.86652 0.80292 0.61481 0.0
C1242 C 0.84317 0.84234 0.59882 0.0
C1243 C 0.84439 0.82189 0.60644 0.0
C1244 C 0.84817 0.76496 0.63362 0.0
C1245 C 0.84673 0.78377 0.62284 0.0
H1246 H 0.82186 0.87791 0.61137 0.0
H1247 H 0.82583 0.84561 0.62444 0.0
H1248 H 0.88086 0.83638 0.60067 0.0
H1249 H 0.81525 0.70652 0.64282 0.0
H1250 H 0.81801 0.73628 0.6198 0.0
C1251 C 0.05634 0.86985 0.60731 0.0
C1252 C 0.07435 0.86859 0.59782 0.0
C1253 C 0.03817 0.84999 0.61598 0.0
C1254 C 0.00727 0.78613 0.61201 0.0
H1255 H 0.98053 0.78791 0.66199 0.0
C1256 C 0.92944 0.70334 0.64242 0.0
C1257 C 0.91153 0.70603 0.65034 0.0
C1258 C 0.95112 0.72285 0.63889 0.0
C1259 C 0.98769 0.78715 0.64794 0.0
H1260 H 0.08784 0.84561 0.59087 0.0
H1261 H 0.05592 0.81091 0.60569 0.0
H1262 H 0.01496 0.82289 0.65015 0.0
H1263 H 0.90265 0.73129 0.66156 0.0
H1264 H 0.94024 0.76536 0.65496 0.0
H1265 H 0.97975 0.75082 0.60932 0.0
C1266 C 0.05577 0.82723 0.60621 0.0
C1267 C 0.00743 0.80718 0.64119 0.0
C1268 C 0.074 0.84711 0.59764 0.0
C1269 C 0.91612 0.72859 0.65554 0.0
C1270 C 0.93774 0.74815 0.65179 0.0
C1271 C 0.98748 0.7662 0.61866 0.0
C1272 C 0.03753 0.82839 0.61528 0.0
C1273 C 0.01733 0.80691 0.62308 0.0
C1274 C 0.95533 0.74557 0.64294 0.0
C1275 C 0.97731 0.76647 0.63665 0.0
H1276 H 0.05593 0.88604 0.60755 0.0
H1277 H 0.02422 0.85137 0.62267 0.0
H1278 H 0.01427 0.78547 0.59785 0.0
H1279 H 0.92655 0.68616 0.63845 0.0
H1280 H 0.96442 0.72013 0.63253 0.0
C1281 C 0.17059 0.24576 0.62493 0.0
C1282 C 0.14759 0.22892 0.62075 0.0
C1283 C 0.18348 0.24083 0.63818 0.0
C1284 C 0.18926 0.19253 0.65548 0.0
H1285 H 0.23307 0.23885 0.69187 0.0
C1286 C 0.26475 0.18394 0.68482 0.0
C1287 C 0.28599 0.2044 0.68144 0.0
C1288 C 0.24419 0.18466 0.68462 0.0
C1289 C 0.22085 0.22565 0.68187 0.0
H1290 H 0.11982 0.19391 0.62727 0.0
H1291 H 0.14264 0.18506 0.65025 0.0
H1292 H 0.2032 0.24474 0.67687 0.0
H1293 H 0.30259 0.24194 0.67716 0.0
H1294 H 0.26707 0.24318 0.67657 0.0
H1295 H 0.20781 0.17426 0.65923 0.0
C1296 C 0.15055 0.20213 0.6434 0.0
C1297 C 0.20376 0.22903 0.67332 0.0
C1298 C 0.13753 0.2072 0.63033 0.0
C1299 C 0.28647 0.22582 0.67957 0.0
C1300 C 0.26604 0.22655 0.67945 0.0
C1301 C 0.20649 0.18925 0.66387 0.0
C1302 C 0.17369 0.21886 0.64733 0.0
C1303 C 0.18843 0.21296 0.65946 0.0
C1304 C 0.24458 0.20587 0.68118 0.0
C1305 C 0.22311 0.20631 0.67648 0.0
H1306 H 0.17865 0.26269 0.61783 0.0
H1307 H 0.20139 0.25393 0.64072 0.0
H1308 H 0.17771 0.17991 0.64476 0.0
H1309 H 0.26383 0.16717 0.68637 0.0
H1310 H 0.22794 0.16847 0.68626 0.0
C1311 C 0.85828 0.97016 0.59887 0.0
C1312 C 0.83705 0.9553 0.5896 0.0
C1313 C 0.86244 0.9913 0.60743 0.0
C1314 C 0.84225 0.0342 0.60506 0.0
H1315 H 0.86924 0.05319 0.65693 0.0
C1316 C 0.83044 0.0988 0.65364 0.0
C1317 C 0.84791 0.11304 0.66694 0.0
C1318 C 0.83288 0.08296 0.64165 0.0
C1319 C 0.86214 0.04846 0.64224 0.0
H1320 H 0.80305 0.95021 0.5832 0.0
H1321 H 0.81029 0.98682 0.59801 0.0
H1322 H 0.86611 0.0182 0.6418 0.0
H1323 H 0.88168 0.12231 0.67816 0.0
H1324 H 0.88647 0.09522 0.6567 0.0
H1325 H 0.83782 0.06416 0.60563 0.0
C1326 C 0.82396 0.98257 0.59824 0.0
C1327 C 0.86028 0.02833 0.63361 0.0
C1328 C 0.81979 0.96153 0.58982 0.0
C1329 C 0.86825 0.11187 0.66761 0.0
C1330 C 0.87081 0.09615 0.65553 0.0
C1331 C 0.84417 0.05436 0.61365 0.0
C1332 C 0.84546 0.99793 0.60682 0.0
C1333 C 0.84978 0.02064 0.61514 0.0
C1334 C 0.85282 0.08095 0.64286 0.0
C1335 C 0.85365 0.06145 0.63255 0.0
H1336 H 0.87192 0.96588 0.59886 0.0
H1337 H 0.87916 0.00276 0.614 0.0
H1338 H 0.83451 0.029 0.59061 0.0
H1339 H 0.81421 0.09873 0.65346 0.0
H1340 H 0.81851 0.0713 0.63234 0.0
C1341 C 0.50989 0.37406 0.74568 0.0
C1342 C 0.53416 0.38673 0.74515 0.0
C1343 C 0.49782 0.35019 0.74171 0.0
C1344 C 0.49572 0.30582 0.71237 0.0
H1345 H 0.44703 0.26596 0.74848 0.0
C1346 C 0.41302 0.22755 0.68347 0.0
C1347 C 0.39478 0.23143 0.68802 0.0
C1348 C 0.43357 0.23874 0.69439 0.0
C1349 C 0.46082 0.27659 0.73836 0.0
H1350 H 0.5647 0.38418 0.7392 0.0
H1351 H 0.54313 0.34216 0.73112 0.0
H1352 H 0.47905 0.30326 0.75997 0.0
H1353 H 0.38308 0.24934 0.70731 0.0
H1354 H 0.41834 0.26829 0.7267 0.0
H1355 H 0.47625 0.28043 0.69023 0.0
C1356 C 0.53377 0.35095 0.73529 0.0
C1357 C 0.47912 0.29787 0.74494 0.0
C1358 C 0.54602 0.37497 0.7397 0.0
C1359 C 0.39676 0.24561 0.70401 0.0
C1360 C 0.41696 0.25638 0.71511 0.0
C1361 C 0.47729 0.28455 0.70573 0.0
C1362 C 0.5096 0.33837 0.73666 0.0
C1363 C 0.49587 0.31326 0.73169 0.0
C1364 C 0.43595 0.25387 0.70995 0.0
C1365 C 0.45887 0.27057 0.71837 0.0
H1366 H 0.5001 0.3826 0.74914 0.0
H1367 H 0.47912 0.34096 0.74225 0.0
H1368 H 0.50844 0.31748 0.70191 0.0
H1369 H 0.41198 0.21721 0.67073 0.0
H1370 H 0.44799 0.23667 0.69 0.0
C1371 C 0.58802 0.076 0.73888 0.0
C1372 C 0.58454 0.09472 0.73396 0.0
C1373 C 0.60754 0.07553 0.73224 0.0
C1374 C 0.65275 0.09888 0.69463 0.0
H1375 H 0.69087 0.09215 0.73404 0.0
C1376 C 0.74863 0.12983 0.68182 0.0
C1377 C 0.75887 0.11846 0.69139 0.0
C1378 C 0.72559 0.12313 0.68525 0.0
C1379 C 0.68025 0.09353 0.72271 0.0
H1380 H 0.59896 0.12753 0.71805 0.0
H1381 H 0.63257 0.12627 0.70607 0.0
H1382 H 0.65352 0.08717 0.74323 0.0
H1383 H 0.7525 0.09023 0.71125 0.0
H1384 H 0.71204 0.07803 0.71677 0.0
H1385 H 0.67937 0.10526 0.67407 0.0
C1386 C 0.6201 0.11196 0.71501 0.0
C1387 C 0.65887 0.09076 0.72804 0.0
C1388 C 0.60079 0.11262 0.72185 0.0
C1389 C 0.74521 0.0995 0.70379 0.0
C1390 C 0.72203 0.09261 0.70704 0.0
C1391 C 0.674 0.10135 0.68923 0.0
C1392 C 0.62379 0.09356 0.72031 0.0
C1393 C 0.64517 0.09392 0.71414 0.0
C1394 C 0.71207 0.10469 0.69816 0.0
C1395 C 0.68828 0.09927 0.7033 0.0
H1396 H 0.57566 0.06167 0.74784 0.0
H1397 H 0.60992 0.06105 0.73639 0.0
H1398 H 0.64235 0.1011 0.68359 0.0
H1399 H 0.75869 0.14463 0.67227 0.0
H1400 H 0.7187 0.13313 0.67838 0.0
C1401 C 0.84543 0.47413 0.7565 0.0
C1402 C 0.82945 0.45039 0.75277 0.0
C1403 C 0.84223 0.49183 0.74861 0.0
C1404 C 0.81292 0.50363 0.7081 0.0
H1405 H 0.83016 0.56041 0.73767 0.0
C1406 C 0.80827 0.57935 0.67189 0.0
C1407 C 0.82825 0.60128 0.67408 0.0
C1408 C 0.80425 0.56084 0.68431 0.0
C1409 C 0.8253 0.54468 0.7292 0.0
H1410 H 0.79742 0.42675 0.73783 0.0
H1411 H 0.79183 0.4577 0.72396 0.0
H1412 H 0.83138 0.52786 0.75346 0.0
H1413 H 0.85945 0.62146 0.69107 0.0
H1414 H 0.85256 0.58927 0.71288 0.0
H1415 H 0.80743 0.52056 0.68371 0.0
C1416 C 0.80697 0.46259 0.73293 0.0
C1417 C 0.82605 0.52603 0.73823 0.0
C1418 C 0.81018 0.44483 0.74085 0.0
C1419 C 0.84359 0.60483 0.68949 0.0
C1420 C 0.83965 0.58632 0.7019 0.0
C1421 C 0.81217 0.52225 0.69908 0.0
C1422 C 0.82298 0.48633 0.7367 0.0
C1423 C 0.82024 0.5054 0.72769 0.0
C1424 C 0.8204 0.56382 0.69894 0.0
C1425 C 0.8187 0.54318 0.7094 0.0
H1426 H 0.86075 0.47912 0.76525 0.0
H1427 H 0.8552 0.50988 0.75149 0.0
H1428 H 0.80864 0.48819 0.69942 0.0
H1429 H 0.79649 0.57612 0.65979 0.0
H1430 H 0.78907 0.54389 0.6818 0.0
C1431 C 0.49845 0.95182 0.21266 0.0
C1432 C 0.47846 0.93111 0.21812 0.0
C1433 C 0.50496 0.95624 0.19299 0.0
C1434 C 0.48165 0.93801 0.1425 0.0
H1435 H 0.54634 0.97613 0.12876 0.0
C1436 C 0.50792 0.96654 0.06334 0.0
C1437 C 0.51905 0.99105 0.06197 0.0
C1438 C 0.50687 0.95589 0.08131 0.0
C1439 C 0.52824 0.96526 0.13239 0.0
H1440 H 0.44976 0.89856 0.20749 0.0
H1441 H 0.46144 0.9058 0.17308 0.0
H1442 H 0.53563 0.9633 0.16263 0.0
H1443 H 0.53954 0.02364 0.07772 0.0
H1444 H 0.53821 0.00507 0.10903 0.0
H1445 H 0.47436 0.94009 0.11223 0.0
C1446 C 0.47182 0.91901 0.18388 0.0
C1447 C 0.52203 0.9581 0.15182 0.0
C1448 C 0.4651 0.9148 0.20357 0.0
C1449 C 0.531 0.00472 0.07838 0.0
C1450 C 0.53024 0.99408 0.09627 0.0
C1451 C 0.48789 0.94482 0.12305 0.0
C1452 C 0.49184 0.93984 0.1783 0.0
C1453 C 0.49861 0.94499 0.15726 0.0
C1454 C 0.51716 0.96961 0.09812 0.0
C1455 C 0.5112 0.95903 0.11791 0.0
H1456 H 0.50893 0.96475 0.22364 0.0
H1457 H 0.5201 0.97274 0.18932 0.0
H1458 H 0.46345 0.92823 0.14605 0.0
H1459 H 0.49808 0.9556 0.05108 0.0
H1460 H 0.49674 0.93699 0.08235 0.0
C1461 C 0.12302 0.57704 0.19909 0.0
C1462 C 0.1431 0.57529 0.19882 0.0
C1463 C 0.10986 0.57291 0.18213 0.0
C1464 C 0.11271 0.57292 0.12848 0.0
H1465 H 0.04612 0.53448 0.13213 0.0
C1466 C 0.05155 0.5367 0.06122 0.0
C1467 C 0.02896 0.53264 0.06318 0.0
C1468 C 0.06704 0.54563 0.07697 0.0
C1469 C 0.06464 0.54568 0.13087 0.0
H1470 H 0.16504 0.56758 0.18072 0.0
H1471 H 0.14182 0.56026 0.15077 0.0
H1472 H 0.06975 0.54103 0.16114 0.0
H1473 H 0.00509 0.53579 0.08255 0.0
H1474 H 0.03238 0.55236 0.10986 0.0
H1475 H 0.10756 0.57758 0.09815 0.0
C1476 C 0.13645 0.56501 0.16417 0.0
C1477 C 0.0782 0.54926 0.14751 0.0
C1478 C 0.14958 0.56895 0.18129 0.0
C1479 C 0.02251 0.539 0.08068 0.0
C1480 C 0.03807 0.54819 0.09635 0.0
C1481 C 0.0991 0.56945 0.11179 0.0
C1482 C 0.11649 0.56701 0.16445 0.0
C1483 C 0.10235 0.56289 0.14651 0.0
C1484 C 0.06017 0.55063 0.09498 0.0
C1485 C 0.07487 0.55577 0.1128 0.0
H1486 H 0.11756 0.58174 0.21247 0.0
H1487 H 0.09466 0.57474 0.18278 0.0
H1488 H 0.1313 0.58373 0.12736 0.0
H1489 H 0.05667 0.53125 0.04806 0.0
H1490 H 0.08379 0.54705 0.0754 0.0
C1491 C 0.47198 0.54563 0.21151 0.0
C1492 C 0.46489 0.56233 0.21098 0.0
C1493 C 0.47905 0.53942 0.19436 0.0
C1494 C 0.49439 0.55657 0.14168 0.0
H1495 H 0.47569 0.49103 0.13588 0.0
C1496 C 0.50598 0.51963 0.06819 0.0
C1497 C 0.48728 0.49787 0.06244 0.0
C1498 C 0.50734 0.52802 0.08734 0.0
C1499 C 0.48094 0.50938 0.13717 0.0
H1500 H 0.45969 0.58579 0.19234 0.0
H1501 H 0.47089 0.57421 0.1622 0.0
H1502 H 0.46976 0.50513 0.16691 0.0
H1503 H 0.4556 0.46769 0.07253 0.0
H1504 H 0.45755 0.48241 0.10535 0.0
H1505 H 0.50391 0.56036 0.11141 0.0
C1506 C 0.47187 0.56642 0.17586 0.0
C1507 C 0.47788 0.51761 0.15516 0.0
C1508 C 0.46525 0.57295 0.19309 0.0
C1509 C 0.47035 0.48443 0.07641 0.0
C1510 C 0.47158 0.49288 0.09539 0.0
C1511 C 0.49706 0.54824 0.12355 0.0
C1512 C 0.47871 0.54941 0.1762 0.0
C1513 C 0.48414 0.54124 0.15759 0.0
C1514 C 0.48992 0.51488 0.1011 0.0
C1515 C 0.48988 0.52441 0.12094 0.0
H1516 H 0.47209 0.53743 0.22523 0.0
H1517 H 0.48468 0.52667 0.19536 0.0
H1518 H 0.49995 0.575 0.14306 0.0
H1519 H 0.51941 0.5304 0.05781 0.0
H1520 H 0.52189 0.54488 0.09128 0.0
C1521 C 0.84821 0.42593 0.82454 0.0
C1522 C 0.85784 0.42132 0.80804 0.0
C1523 C 0.85844 0.42885 0.84305 0.0
C1524 C 0.90206 0.41976 0.8701 0.0
H1525 H 0.90529 0.46841 0.90423 0.0
C1526 C 0.97274 0.47006 0.92826 0.0
C1527 C 0.96615 0.47534 0.94622 0.0
C1528 C 0.95631 0.45821 0.91357 0.0
C1529 C 0.90418 0.45447 0.89502 0.0
H1530 H 0.8859 0.41667 0.79775 0.0
H1531 H 0.90421 0.42258 0.82973 0.0
H1532 H 0.88281 0.45869 0.87404 0.0
H1533 H 0.93738 0.47234 0.96309 0.0
H1534 H 0.90858 0.45155 0.93739 0.0
H1535 H 0.92464 0.41666 0.89071 0.0
C1536 C 0.88832 0.4231 0.8287 0.0
C1537 C 0.89126 0.44885 0.8777 0.0
C1538 C 0.87795 0.41989 0.81031 0.0
C1539 C 0.94277 0.46793 0.94952 0.0
C1540 C 0.92637 0.4563 0.93477 0.0
C1541 C 0.91526 0.42564 0.88729 0.0
C1542 C 0.8787 0.42755 0.84536 0.0
C1543 C 0.89041 0.43176 0.86479 0.0
C1544 C 0.93311 0.45189 0.91648 0.0
C1545 C 0.91676 0.44333 0.89972 0.0
H1546 H 0.83259 0.42692 0.82317 0.0
H1547 H 0.85037 0.43197 0.85556 0.0
H1548 H 0.90135 0.4061 0.8608 0.0
H1549 H 0.99073 0.4759 0.92533 0.0
H1550 H 0.962 0.45525 0.89953 0.0
C1551 C 0.53893 0.47157 0.78743 0.0
C1552 C 0.53933 0.45048 0.7884 0.0
C1553 C 0.53075 0.47886 0.80323 0.0
C1554 C 0.49528 0.45866 0.84779 0.0
H1555 H 0.53826 0.52021 0.86851 0.0
C1556 C 0.49373 0.48494 0.92809 0.0
C1557 C 0.50338 0.50871 0.93291 0.0
C1558 C 0.49344 0.47804 0.90864 0.0
C1559 C 0.52567 0.50321 0.86274 0.0
H1560 H 0.53125 0.42051 0.80678 0.0
H1561 H 0.51648 0.43301 0.83404 0.0
H1562 H 0.54645 0.50778 0.83748 0.0
H1563 H 0.5178 0.54367 0.9209 0.0
H1564 H 0.51624 0.53158 0.88694 0.0
H1565 H 0.47451 0.45397 0.87308 0.0
C1566 C 0.52237 0.44376 0.82099 0.0
C1567 C 0.53049 0.49608 0.84496 0.0
C1568 C 0.53083 0.43663 0.80535 0.0
C1569 C 0.51075 0.52523 0.91771 0.0
C1570 C 0.51 0.51831 0.89823 0.0
C1571 C 0.49026 0.46592 0.86547 0.0
C1572 C 0.5225 0.46506 0.82017 0.0
C1573 C 0.51565 0.47355 0.83757 0.0
C1574 C 0.5023 0.49476 0.89352 0.0
C1575 C 0.50571 0.48808 0.87344 0.0
H1576 H 0.54492 0.48245 0.77447 0.0
H1577 H 0.53092 0.49532 0.80223 0.0
H1578 H 0.48345 0.44126 0.84225 0.0
H1579 H 0.4876 0.4718 0.93944 0.0
H1580 H 0.48745 0.45975 0.90568 0.0
C1581 C 0.51984 0.05665 0.79152 0.0
C1582 C 0.52833 0.08048 0.78804 0.0
C1583 C 0.5105 0.04696 0.80973 0.0
C1584 C 0.48979 0.05859 0.85719 0.0
H1585 H 0.50161 0.00991 0.87521 0.0
C1586 C 0.4874 0.026 0.93745 0.0
C1587 C 0.47872 0.00181 0.93938 0.0
C1588 C 0.48775 0.03556 0.91904 0.0
C1589 C 0.49787 0.02326 0.87027 0.0
H1590 H 0.53362 0.11297 0.80052 0.0
H1591 H 0.51845 0.0964 0.83289 0.0
H1592 H 0.51528 0.02715 0.84325 0.0
H1593 H 0.46108 0.96839 0.92427 0.0
H1594 H 0.46161 0.98504 0.89223 0.0
H1595 H 0.47349 0.05528 0.88514 0.0
C1596 C 0.51829 0.08494 0.82142 0.0
C1597 C 0.50564 0.03313 0.85186 0.0
C1598 C 0.52718 0.09452 0.80299 0.0
C1599 C 0.46802 0.98712 0.92315 0.0
C1600 C 0.46838 0.99663 0.90483 0.0
C1601 C 0.48235 0.04892 0.8759 0.0
C1602 C 0.50998 0.06103 0.82509 0.0
C1603 C 0.50158 0.0508 0.84492 0.0
C1604 C 0.47946 0.021 0.9024 0.0
C1605 C 0.48616 0.031 0.88248 0.0
H1606 H 0.52017 0.04543 0.78004 0.0
H1607 H 0.50367 0.02837 0.8117 0.0
H1608 H 0.48615 0.072 0.85232 0.0
H1609 H 0.49613 0.03776 0.94962 0.0
H1610 H 0.49645 0.05442 0.91752 0.0
C1611 C 0.13085 0.23852 0.53768 0.0
C1612 C 0.14029 0.25414 0.55349 0.0
C1613 C 0.13912 0.24575 0.51868 0.0
C1614 C 0.18681 0.29456 0.49023 0.0
H1615 H 0.1405 0.27139 0.44901 0.0
C1616 C 0.19212 0.34212 0.41766 0.0
C1617 C 0.1826 0.32846 0.40069 0.0
C1618 C 0.19181 0.33156 0.4355 0.0
C1619 C 0.15376 0.27771 0.46026 0.0
H1620 H 0.16575 0.28929 0.56226 0.0
H1621 H 0.17956 0.30249 0.52893 0.0
H1622 H 0.12969 0.25589 0.48191 0.0
H1623 H 0.16591 0.29324 0.38892 0.0
H1624 H 0.16567 0.27476 0.41997 0.0
H1625 H 0.21047 0.31749 0.46848 0.0
C1626 C 0.16632 0.28442 0.5311 0.0
C1627 C 0.14758 0.26878 0.4792 0.0
C1628 C 0.15831 0.27701 0.55017 0.0
C1629 C 0.17407 0.30425 0.4016 0.0
C1630 C 0.17357 0.29364 0.41945 0.0
C1631 C 0.1929 0.30376 0.47127 0.0
C1632 C 0.15667 0.26894 0.51504 0.0
C1633 C 0.16392 0.27727 0.49454 0.0
C1634 C 0.18163 0.3071 0.43671 0.0
C1635 C 0.17635 0.29559 0.45617 0.0
H1636 H 0.11707 0.22071 0.54006 0.0
H1637 H 0.1316 0.23314 0.50684 0.0
H1638 H 0.2 0.30122 0.50153 0.0
H1639 H 0.19861 0.36081 0.41736 0.0
H1640 H 0.19797 0.34234 0.44859 0.0
C1641 C 0.7843 0.90702 0.53011 0.0
C1642 C 0.80427 0.90509 0.53049 0.0
C1643 C 0.77191 0.90336 0.51273 0.0
C1644 C 0.77668 0.90427 0.45924 0.0
H1645 H 0.71012 0.86443 0.46107 0.0
C1646 C 0.71842 0.86827 0.39024 0.0
C1647 C 0.69551 0.86338 0.39158 0.0
C1648 C 0.73323 0.87722 0.40643 0.0
C1649 C 0.72863 0.87603 0.46031 0.0
H1650 H 0.82693 0.8977 0.51306 0.0
H1651 H 0.80512 0.89129 0.48238 0.0
H1652 H 0.73277 0.87112 0.49073 0.0
H1653 H 0.67032 0.86508 0.41029 0.0
H1654 H 0.69637 0.88163 0.43839 0.0
H1655 H 0.77249 0.90927 0.42877 0.0
C1656 C 0.79922 0.89578 0.49561 0.0
C1657 C 0.74162 0.87969 0.47732 0.0
C1658 C 0.81153 0.89921 0.51313 0.0
C1659 C 0.688 0.86889 0.40892 0.0
C1660 C 0.70286 0.87808 0.42504 0.0
C1661 C 0.76362 0.90077 0.44217 0.0
C1662 C 0.77926 0.8978 0.49529 0.0
C1663 C 0.76576 0.89379 0.47698 0.0
C1664 C 0.72533 0.88137 0.42428 0.0
C1665 C 0.73941 0.88656 0.4425 0.0
H1666 H 0.77822 0.91134 0.54332 0.0
H1667 H 0.75669 0.90517 0.5129 0.0
H1668 H 0.79526 0.91544 0.45863 0.0
H1669 H 0.72437 0.86348 0.3772 0.0
H1670 H 0.75031 0.87931 0.40531 0.0
C1671 C 0.15308 0.91765 0.53734 0.0
C1672 C 0.12925 0.90377 0.54115 0.0
C1673 C 0.16249 0.9149 0.51994 0.0
C1674 C 0.15461 0.87174 0.48373 0.0
H1675 H 0.18915 0.92301 0.44762 0.0
C1676 C 0.17608 0.87663 0.3987 0.0
C1677 C 0.18472 0.86115 0.39795 0.0
C1678 C 0.1751 0.8866 0.41654 0.0
C1679 C 0.17975 0.90865 0.4577 0.0
H1680 H 0.09668 0.87629 0.52927 0.0
H1681 H 0.11341 0.87082 0.49931 0.0
H1682 H 0.17447 0.93012 0.47841 0.0
H1683 H 0.20064 0.84527 0.41494 0.0
H1684 H 0.19862 0.86243 0.44618 0.0
H1685 H 0.15964 0.85019 0.46318 0.0
C1686 C 0.12464 0.88395 0.50986 0.0
C1687 C 0.1714 0.91269 0.47523 0.0
C1688 C 0.11513 0.887 0.52708 0.0
C1689 C 0.19395 0.85721 0.41509 0.0
C1690 C 0.19273 0.86694 0.43295 0.0
C1691 C 0.16332 0.8678 0.46647 0.0
C1692 C 0.14837 0.89788 0.50616 0.0
C1693 C 0.15842 0.89415 0.48818 0.0
C1694 C 0.18237 0.88088 0.43395 0.0
C1695 C 0.17571 0.88613 0.45317 0.0
H1696 H 0.16465 0.93037 0.54798 0.0
H1697 H 0.18089 0.92565 0.51746 0.0
H1698 H 0.14476 0.85723 0.49358 0.0
H1699 H 0.16795 0.87914 0.38597 0.0
H1700 H 0.16676 0.89705 0.41694 0.0
C1701 C 0.51277 0.76335 0.15686 0.0
C1702 C 0.51834 0.75599 0.13939 0.0
C1703 C 0.52674 0.76827 0.17353 0.0
C1704 C 0.55258 0.7628 0.20882 0.0
H1705 H 0.61856 0.80384 0.20277 0.0
C1706 C 0.64509 0.80546 0.25479 0.0
C1707 C 0.63802 0.81113 0.27229 0.0
C1708 C 0.62944 0.79486 0.23934 0.0
C1709 C 0.60026 0.79191 0.20473 0.0
H1710 H 0.54305 0.74855 0.12541 0.0
H1711 H 0.56757 0.75742 0.15439 0.0
H1712 H 0.5934 0.79376 0.17431 0.0
H1713 H 0.60923 0.81015 0.28759 0.0
H1714 H 0.58198 0.79207 0.26063 0.0
H1715 H 0.55937 0.7608 0.23923 0.0
C1716 C 0.55237 0.75921 0.15529 0.0
C1717 C 0.58583 0.78631 0.18839 0.0
C1718 C 0.53829 0.75403 0.13876 0.0
C1719 C 0.6149 0.80532 0.27439 0.0
C1720 C 0.59931 0.79501 0.25887 0.0
C1721 C 0.56706 0.76819 0.22519 0.0
C1722 C 0.54669 0.76626 0.17286 0.0
C1723 C 0.56185 0.77185 0.19029 0.0
C1724 C 0.60657 0.79034 0.2409 0.0
C1725 C 0.59111 0.78296 0.22338 0.0
H1726 H 0.49742 0.7649 0.1577 0.0
H1727 H 0.52212 0.77389 0.18687 0.0
H1728 H 0.53415 0.75137 0.21062 0.0
H1729 H 0.66291 0.80995 0.25284 0.0
H1730 H 0.63553 0.79098 0.22592 0.0
C1731 C 0.20191 0.756 0.14741 0.0
C1732 C 0.20422 0.76876 0.1303 0.0
C1733 C 0.1922 0.75951 0.16428 0.0
C1734 C 0.17815 0.80209 0.18701 0.0
H1735 H 0.14361 0.75106 0.2233 0.0
C1736 C 0.14082 0.81769 0.25642 0.0
C1737 C 0.14995 0.81328 0.27341 0.0
C1738 C 0.14153 0.80789 0.23845 0.0
C1739 C 0.15309 0.76539 0.2132 0.0
H1740 H 0.19789 0.79479 0.11711 0.0
H1741 H 0.18016 0.80046 0.14631 0.0
H1742 H 0.15728 0.74349 0.1924 0.0
H1743 H 0.16552 0.79399 0.28507 0.0
H1744 H 0.16604 0.77616 0.25385 0.0
H1745 H 0.17383 0.8239 0.20778 0.0
C1746 C 0.18647 0.78825 0.14703 0.0
C1747 C 0.16114 0.76116 0.19559 0.0
C1748 C 0.19658 0.78502 0.13027 0.0
C1749 C 0.15774 0.79712 0.27242 0.0
C1750 C 0.15827 0.78713 0.25445 0.0
C1751 C 0.16978 0.80619 0.2044 0.0
C1752 C 0.1842 0.77559 0.16431 0.0
C1753 C 0.17414 0.77957 0.18241 0.0
C1754 C 0.15126 0.7934 0.23716 0.0
C1755 C 0.15747 0.78798 0.21779 0.0
H1756 H 0.20777 0.74339 0.14774 0.0
H1757 H 0.19127 0.74982 0.17737 0.0
H1758 H 0.18846 0.81682 0.17753 0.0
H1759 H 0.13462 0.83003 0.25675 0.0
H1760 H 0.13577 0.81277 0.22534 0.0
C1761 C 0.21798 0.43867 0.13917 0.0
C1762 C 0.20527 0.426 0.12263 0.0
C1763 C 0.21105 0.42928 0.158 0.0
C1764 C 0.17971 0.37374 0.18378 0.0
H1765 H 0.17118 0.40887 0.2254 0.0
C1766 C 0.1472 0.33064 0.25813 0.0
C1767 C 0.15862 0.34443 0.27458 0.0
C1768 C 0.14906 0.34107 0.2399 0.0
C1769 C 0.17365 0.39887 0.21401 0.0
H1770 H 0.17588 0.39352 0.11259 0.0
H1771 H 0.16415 0.37689 0.14537 0.0
H1772 H 0.18433 0.42665 0.19307 0.0
H1773 H 0.18017 0.37987 0.28519 0.0
H1774 H 0.18391 0.39815 0.25345 0.0
H1775 H 0.17013 0.34636 0.20454 0.0
C1776 C 0.17924 0.39413 0.14386 0.0
C1777 C 0.18119 0.40909 0.19552 0.0
C1778 C 0.18591 0.40364 0.12515 0.0
C1779 C 0.17064 0.3689 0.27282 0.0
C1780 C 0.17291 0.37935 0.25451 0.0
C1781 C 0.17254 0.36367 0.20226 0.0
C1782 C 0.19161 0.4069 0.16048 0.0
C1783 C 0.18423 0.39656 0.18025 0.0
C1784 C 0.16301 0.36548 0.23764 0.0
C1785 C 0.16931 0.37602 0.21766 0.0
H1786 H 0.23288 0.45601 0.13754 0.0
H1787 H 0.22096 0.43937 0.1706 0.0
H1788 H 0.18217 0.3638 0.17231 0.0
H1789 H 0.13788 0.31171 0.25915 0.0
H1790 H 0.14052 0.32985 0.22739 0.0
C1791 C 0.78333 0.56451 0.86686 0.0
C1792 C 0.79623 0.57881 0.88265 0.0
C1793 C 0.79055 0.57144 0.84752 0.0
C1794 C 0.84225 0.61365 0.81863 0.0
H1795 H 0.79693 0.60125 0.77796 0.0
C1796 C 0.8595 0.6663 0.74694 0.0
C1797 C 0.84796 0.65412 0.72984 0.0
C1798 C 0.85617 0.65434 0.76463 0.0
C1799 C 0.8098 0.60449 0.78908 0.0
H1800 H 0.8262 0.61186 0.89073 0.0
H1801 H 0.83832 0.6244 0.85717 0.0
H1802 H 0.78404 0.58613 0.81085 0.0
H1803 H 0.82426 0.61994 0.71772 0.0
H1804 H 0.81885 0.59896 0.74846 0.0
H1805 H 0.86796 0.63307 0.7969 0.0
C1806 C 0.82315 0.60745 0.85954 0.0
C1807 C 0.80242 0.5958 0.80797 0.0
C1808 C 0.81609 0.60039 0.87879 0.0
C1809 C 0.83411 0.62963 0.73047 0.0
C1810 C 0.83063 0.61769 0.74817 0.0
C1811 C 0.84962 0.62259 0.79978 0.0
C1812 C 0.81068 0.59296 0.84362 0.0
C1813 C 0.81853 0.6006 0.82311 0.0
C1814 C 0.84092 0.63005 0.76556 0.0
C1815 C 0.83346 0.61835 0.78489 0.0
H1816 H 0.76806 0.54769 0.86949 0.0
H1817 H 0.78061 0.55971 0.83568 0.0
H1818 H 0.85519 0.61723 0.82976 0.0
H1819 H 0.86995 0.68523 0.74688 0.0
H1820 H 0.86418 0.66434 0.77784 0.0
C1821 C 0.47336 0.25723 0.85975 0.0
C1822 C 0.46891 0.2423 0.87582 0.0
C1823 C 0.45696 0.2512 0.84482 0.0
C1824 C 0.40544 0.19983 0.82357 0.0
H1825 H 0.39776 0.24705 0.79635 0.0
C1826 C 0.3375 0.17318 0.76341 0.0
C1827 C 0.34617 0.1846 0.7454 0.0
C1828 C 0.35006 0.18234 0.78072 0.0
C1829 C 0.39974 0.23371 0.80385 0.0
H1830 H 0.44361 0.20973 0.88923 0.0
H1831 H 0.41475 0.19936 0.86344 0.0
H1832 H 0.42469 0.25845 0.82399 0.0
H1833 H 0.37376 0.21537 0.73183 0.0
H1834 H 0.39583 0.2316 0.76203 0.0
H1835 H 0.3806 0.17514 0.80346 0.0
C1836 C 0.43113 0.21544 0.86202 0.0
C1837 C 0.41524 0.24021 0.8196 0.0
C1838 C 0.44764 0.22136 0.87682 0.0
C1839 C 0.36665 0.20636 0.74541 0.0
C1840 C 0.37928 0.21557 0.76275 0.0
C1841 C 0.38984 0.19333 0.808 0.0
C1842 C 0.43563 0.23021 0.84575 0.0
C1843 C 0.41843 0.22336 0.82955 0.0
C1844 C 0.37155 0.20311 0.78043 0.0
C1845 C 0.38692 0.21019 0.79787 0.0
H1846 H 0.4897 0.27343 0.85858 0.0
H1847 H 0.46121 0.26281 0.83237 0.0
H1848 H 0.40775 0.18643 0.83055 0.0
H1849 H 0.32159 0.15649 0.764 0.0
H1850 H 0.34345 0.1726 0.79422 0.0
C1851 C 0.81289 0.24671 0.86829 0.0
C1852 C 0.78935 0.23952 0.87018 0.0
C1853 C 0.82175 0.24489 0.85024 0.0
C1854 C 0.81236 0.24252 0.79731 0.0
H1855 H 0.84553 0.20844 0.79549 0.0
C1856 C 0.82505 0.20339 0.72612 0.0
C1857 C 0.84305 0.19838 0.72501 0.0
C1858 C 0.82241 0.21411 0.74284 0.0
C1859 C 0.8369 0.21859 0.79567 0.0
H1860 H 0.75666 0.22503 0.85481 0.0
H1861 H 0.77229 0.22215 0.82302 0.0
H1862 H 0.83275 0.21531 0.82687 0.0
H1863 H 0.8734 0.20207 0.73965 0.0
H1864 H 0.86968 0.222 0.76845 0.0
H1865 H 0.81663 0.24606 0.76616 0.0
C1866 C 0.7838 0.22913 0.83555 0.0
C1867 C 0.82939 0.22231 0.81371 0.0
C1868 C 0.77483 0.23056 0.8537 0.0
C1869 C 0.85944 0.2059 0.74017 0.0
C1870 C 0.85706 0.217 0.75677 0.0
C1871 C 0.82024 0.23918 0.77925 0.0
C1872 C 0.80733 0.23623 0.83368 0.0
C1873 C 0.81666 0.23388 0.81466 0.0
C1874 C 0.83782 0.22012 0.75878 0.0
C1875 C 0.83221 0.22671 0.77812 0.0
H1876 H 0.82439 0.2536 0.88082 0.0
H1877 H 0.83995 0.25048 0.84917 0.0
H1878 H 0.80282 0.25179 0.79773 0.0
H1879 H 0.8118 0.19715 0.71486 0.0
H1880 H 0.80724 0.21594 0.74379 0.0
C1881 C 0.22551 0.09739 0.47967 0.0
C1882 C 0.20933 0.105 0.47773 0.0
C1883 C 0.24007 0.10378 0.49603 0.0
C1884 C 0.26849 0.14915 0.53263 0.0
H1885 H 0.26895 0.10179 0.56597 0.0
C1886 C 0.29571 0.14629 0.61591 0.0
C1887 C 0.31859 0.16486 0.61623 0.0
C1888 C 0.28449 0.13679 0.5981 0.0
C1889 C 0.2691 0.11514 0.55666 0.0
H1890 H 0.1959 0.1253 0.49175 0.0
H1891 H 0.22209 0.13724 0.51984 0.0
H1892 H 0.24481 0.08998 0.53625 0.0
H1893 H 0.34784 0.18809 0.59823 0.0
H1894 H 0.328 0.17189 0.56697 0.0
H1895 H 0.29266 0.17432 0.55297 0.0
C1896 C 0.22324 0.12617 0.50866 0.0
C1897 C 0.25539 0.10842 0.53972 0.0
C1898 C 0.20835 0.11941 0.49251 0.0
C1899 C 0.33026 0.17355 0.59839 0.0
C1900 C 0.31894 0.16435 0.58055 0.0
C1901 C 0.28252 0.15588 0.54932 0.0
C1902 C 0.23913 0.11832 0.51058 0.0
C1903 C 0.2547 0.12538 0.52777 0.0
C1904 C 0.29581 0.14621 0.58027 0.0
C1905 C 0.2827 0.13893 0.56162 0.0
H1906 H 0.22722 0.08675 0.46842 0.0
H1907 H 0.25237 0.09772 0.49715 0.0
H1908 H 0.26829 0.1625 0.52356 0.0
H1909 H 0.28593 0.1404 0.62933 0.0
H1910 H 0.26649 0.12316 0.59826 0.0
C1911 C 0.85633 0.08354 0.4678 0.0
C1912 C 0.87999 0.09101 0.46663 0.0
C1913 C 0.84662 0.08494 0.48551 0.0
C1914 C 0.85414 0.08676 0.53877 0.0
H1915 H 0.8174 0.11716 0.53922 0.0
C1916 C 0.83502 0.1222 0.60909 0.0
C1917 C 0.81559 0.12502 0.60982 0.0
C1918 C 0.83939 0.11261 0.5925 0.0
C1919 C 0.82707 0.10804 0.53939 0.0
H1920 H 0.91206 0.10572 0.48298 0.0
H1921 H 0.89497 0.10797 0.51419 0.0
H1922 H 0.8326 0.11216 0.50836 0.0
H1923 H 0.7848 0.11888 0.59433 0.0
H1924 H 0.79181 0.10113 0.56555 0.0
H1925 H 0.84855 0.08246 0.56976 0.0
C1926 C 0.884 0.10104 0.50134 0.0
C1927 C 0.83597 0.1054 0.52166 0.0
C1928 C 0.89381 0.09998 0.48351 0.0
C1929 C 0.79978 0.11666 0.59418 0.0
C1930 C 0.80401 0.1068 0.57762 0.0
C1931 C 0.84495 0.08908 0.5565 0.0
C1932 C 0.8603 0.09353 0.50249 0.0
C1933 C 0.84992 0.09512 0.52122 0.0
C1934 C 0.82444 0.10567 0.57619 0.0
C1935 C 0.83164 0.10017 0.55712 0.0
H1936 H 0.84534 0.07665 0.45496 0.0
H1937 H 0.82831 0.07899 0.486 0.0
H1938 H 0.86458 0.07844 0.53876 0.0
H1939 H 0.84795 0.1293 0.62061 0.0
H1940 H 0.85545 0.11237 0.59196 0.0
C1941 C 0.83735 0.72182 0.45278 0.0
C1942 C 0.85776 0.74299 0.44898 0.0
C1943 C 0.8307 0.71434 0.47203 0.0
C1944 C 0.83833 0.73399 0.52343 0.0
H1945 H 0.82229 0.6701 0.53474 0.0
C1946 C 0.83776 0.69986 0.60152 0.0
C1947 C 0.824 0.6758 0.60507 0.0
C1948 C 0.83758 0.70897 0.58306 0.0
C1949 C 0.8261 0.68781 0.53187 0.0
H1950 H 0.88701 0.77312 0.46233 0.0
H1951 H 0.87537 0.75992 0.49615 0.0
H1952 H 0.831 0.68431 0.50132 0.0
H1953 H 0.79797 0.64262 0.59296 0.0
H1954 H 0.79659 0.65859 0.56104 0.0
H1955 H 0.83348 0.7375 0.55407 0.0
C1956 C 0.86451 0.74923 0.48417 0.0
C1957 C 0.83128 0.69599 0.51266 0.0
C1958 C 0.8713 0.75664 0.46486 0.0
C1959 C 0.80867 0.66127 0.5905 0.0
C1960 C 0.80816 0.67041 0.57217 0.0
C1961 C 0.83287 0.72571 0.5427 0.0
C1962 C 0.84423 0.72791 0.48791 0.0
C1963 C 0.8377 0.71921 0.50826 0.0
C1964 C 0.82351 0.69413 0.56787 0.0
C1965 C 0.82694 0.70255 0.54721 0.0
H1966 H 0.82666 0.71087 0.44083 0.0
H1967 H 0.81494 0.69789 0.47449 0.0
H1968 H 0.84301 0.75192 0.52038 0.0
H1969 H 0.85016 0.71126 0.6124 0.0
H1970 H 0.84977 0.72726 0.58033 0.0
loop_
_geom_bond_atom_site_label_1
_geom_bond_atom_site_label_2
_geom_bond_distance
_geom_bond_site_symmetry_2
_ccdc_geom_bond_type
H0 C3 0.931 . S
H1 C6 0.928 . S
H2 C8 0.930 . S
C3 H0 0.931 . S
C3 C4 1.413 . S
C3 C5 1.360 . S
C4 C3 1.413 . S
C4 C8 1.429 . S
C5 C3 1.360 . S
C5 C6 1.372 . S
C6 H1 0.928 . S
C6 C5 1.372 . S
C6 C7 1.404 . S
C7 C6 1.404 . S
C7 C8 1.391 . S
C8 H2 0.930 . S
C8 C4 1.429 . S
C8 C7 1.391 . S
H9 C12 0.931 . S
H10 C15 0.928 . S
H11 C17 0.930 . S
C12 H9 0.931 . S
C12 C13 1.413 . S
C12 C14 1.360 . S
C13 C12 1.413 . S
C13 C17 1.429 . S
C14 C12 1.360 . S
C14 C15 1.372 . S
C15 H10 0.928 . S
C15 C14 1.372 . S
C15 C16 1.404 . S
C16 C15 1.404 . S
C16 C17 1.391 . S
C17 H11 0.930 . S
C17 C13 1.429 . S
C17 C16 1.391 . S
H18 C21 0.931 . S
H19 C24 0.928 . S
H20 C26 0.930 . S
C21 H18 0.931 . S
C21 C22 1.413 . S
C21 C23 1.360 . S
C22 C21 1.413 . S
C22 C26 1.429 . S
C23 C21 1.360 . S
C23 C24 1.372 . S
C24 H19 0.928 . S
C24 C23 1.372 . S
C24 C25 1.404 . S
C25 C24 1.404 . S
C25 C26 1.391 . S
C26 H20 0.930 . S
C26 C22 1.429 . S
C26 C25 1.391 . S
H27 C30 0.931 . S
H28 C33 0.928 . S
H29 C35 0.930 . S
C30 H27 0.931 . S
C30 C31 1.413 . S
C30 C32 1.360 . S
C31 C30 1.413 . S
C31 C35 1.429 . S
C32 C30 1.360 . S
C32 C33 1.372 . S
C33 H28 0.928 . S
C33 C32 1.372 . S
C33 C34 1.404 . S
C34 C33 1.404 . S
C34 C35 1.391 . S
C35 H29 0.930 . S
C35 C31 1.429 . S
C35 C34 1.391 . S
H36 C39 0.931 . S
H37 C42 0.928 . S
H38 C44 0.930 . S
C39 H36 0.931 . S
C39 C40 1.413 . S
C39 C41 1.360 . S
C40 C39 1.413 . S
C40 C44 1.429 . S
C41 C39 1.360 . S
C41 C42 1.372 . S
C42 H37 0.928 . S
C42 C41 1.372 . S
C42 C43 1.404 . S
C43 C42 1.404 . S
C43 C44 1.391 . S
C44 H38 0.930 . S
C44 C40 1.429 . S
C44 C43 1.391 . S
H45 C48 0.931 . S
H46 C51 0.928 . S
H47 C53 0.930 . S
C48 H45 0.931 . S
C48 C49 1.413 . S
C48 C50 1.360 . S
C49 C48 1.413 . S
C49 C53 1.429 . S
C50 C48 1.360 . S
C50 C51 1.372 . S
C51 H46 0.928 . S
C51 C50 1.372 . S
C51 C52 1.404 . S
C52 C51 1.404 . S
C52 C53 1.391 . S
C53 H47 0.930 . S
C53 C49 1.429 . S
C53 C52 1.391 . S
H54 C57 0.931 . S
H55 C60 0.928 . S
H56 C62 0.930 . S
C57 H54 0.931 . S
C57 C58 1.413 . S
C57 C59 1.360 . S
C58 C57 1.413 . S
C58 C62 1.429 . S
C59 C57 1.360 . S
C59 C60 1.372 . S
C60 H55 0.928 . S
C60 C59 1.372 . S
C60 C61 1.404 . S
C61 C60 1.404 . S
C61 C62 1.391 . S
C62 H56 0.930 . S
C62 C58 1.429 . S
C62 C61 1.391 . S
H63 C66 0.931 . S
H64 C69 0.928 . S
H65 C71 0.930 . S
C66 H63 0.931 . S
C66 C67 1.413 . S
C66 C68 1.360 . S
C67 C66 1.413 . S
C67 C71 1.429 . S
C68 C66 1.360 . S
C68 C69 1.372 . S
C69 H64 0.928 . S
C69 C68 1.372 . S
C69 C70 1.404 . S
C70 C69 1.404 . S
C70 C71 1.391 . S
C71 H65 0.930 . S
C71 C67 1.429 . S
C71 C70 1.391 . S
H72 C75 0.931 . S
H73 C78 0.928 . S
H74 C80 0.930 . S
C75 H72 0.931 . S
C75 C76 1.413 . S
C75 C77 1.360 . S
C76 C75 1.413 . S
C76 C80 1.429 . S
C77 C75 1.360 . S
C77 C78 1.372 . S
C78 H73 0.928 . S
C78 C77 1.372 . S
C78 C79 1.404 . S
C79 C78 1.404 . S
C79 C80 1.391 . S
C80 H74 0.930 . S
C80 C76 1.429 . S
C80 C79 1.391 . S
H81 C84 0.931 . S
H82 C87 0.928 . S
H83 C89 0.930 . S
C84 H81 0.931 . S
C84 C85 1.413 . S
C84 C86 1.360 . S
C85 C84 1.413 . S
C85 C89 1.429 . S
C86 C84 1.360 . S
C86 C87 1.372 . S
C87 H82 0.928 . S
C87 C86 1.372 . S
C87 C88 1.404 . S
C88 C87 1.404 . S
C88 C89 1.391 . S
C89 H83 0.930 . S
C89 C85 1.429 . S
C89 C88 1.391 . S
H90 C93 0.931 . S
H91 C96 0.928 . S
H92 C98 0.930 . S
C93 H90 0.931 . S
C93 C94 1.413 . S
C93 C95 1.360 . S
C94 C93 1.413 . S
C94 C98 1.429 . S
C95 C93 1.360 . S
C95 C96 1.372 . S
C96 H91 0.928 . S
C96 C95 1.372 . S
C96 C97 1.404 . S
C97 C96 1.404 . S
C97 C98 1.391 . S
C98 H92 0.930 . S
C98 C94 1.429 . S
C98 C97 1.391 . S
H99 C102 0.931 . S
H100 C105 0.928 . S
H101 C107 0.930 . S
C102 H99 0.931 . S
C102 C103 1.413 . S
C102 C104 1.360 . S
C103 C102 1.413 . S
C103 C107 1.429 . S
C104 C102 1.360 . S
C104 C105 1.372 . S
C105 H100 0.928 . S
C105 C104 1.372 . S
C105 C106 1.404 . S
C106 C105 1.404 . S
C106 C107 1.391 . S
C107 H101 0.930 . S
C107 C103 1.429 . S
C107 C106 1.391 . S
H108 C111 0.931 . S
H109 C114 0.928 . S
H110 C116 0.930 . S
C111 H108 0.931 . S
C111 C112 1.413 . S
C111 C113 1.360 . S
C112 C111 1.413 . S
C112 C116 1.429 . S
C113 C111 1.360 . S
C113 C114 1.372 . S
C114 H109 0.928 . S
C114 C113 1.372 . S
C114 C115 1.404 . S
C115 C114 1.404 . S
C115 C116 1.391 . S
C116 H110 0.930 . S
C116 C112 1.429 . S
C116 C115 1.391 . S
H117 C120 0.931 . S
H118 C123 0.928 . S
H119 C125 0.930 . S
C120 H117 0.931 . S
C120 C121 1.413 . S
C120 C122 1.360 . S
C121 C120 1.413 . S
C121 C125 1.429 . S
C122 C120 1.360 . S
C122 C123 1.372 . S
C123 H118 0.928 . S
C123 C122 1.372 . S
C123 C124 1.404 . S
C124 C123 1.404 . S
C124 C125 1.391 . S
C125 H119 0.930 . S
C125 C121 1.429 . S
C125 C124 1.391 . S
H126 C129 0.931 . S
H127 C132 0.928 . S
H128 C134 0.930 . S
C129 H126 0.931 . S
C129 C130 1.413 . S
C129 C131 1.360 . S
C130 C129 1.413 . S
C130 C134 1.429 . S
C131 C129 1.360 . S
C131 C132 1.372 . S
C132 H127 0.928 . S
C132 C131 1.372 . S
C132 C133 1.404 . S
C133 C132 1.404 . S
C133 C134 1.391 . S
C134 H128 0.930 . S
C134 C130 1.429 . S
C134 C133 1.391 . S
H135 C138 0.931 . S
H136 C141 0.928 . S
H137 C143 0.930 . S
C138 H135 0.931 . S
C138 C139 1.413 . S
C138 C140 1.360 . S
C139 C138 1.413 . S
C139 C143 1.429 . S
C140 C138 1.360 . S
C140 C141 1.372 . S
C141 H136 0.928 . S
C141 C140 1.372 . S
C141 C142 1.404 . S
C142 C141 1.404 . S
C142 C143 1.391 . S
C143 H137 0.930 . S
C143 C139 1.429 . S
C143 C142 1.391 . S
H144 C147 0.931 . S
H145 C150 0.928 . S
H146 C152 0.930 . S
C147 H144 0.931 . S
C147 C148 1.413 . S
C147 C149 1.360 . S
C148 C147 1.413 . S
C148 C152 1.429 . S
C149 C147 1.360 . S
C149 C150 1.372 . S
C150 H145 0.928 . S
C150 C149 1.372 . S
C150 C151 1.404 . S
C151 C150 1.404 . S
C151 C152 1.391 . S
C152 H146 0.930 . S
C152 C148 1.429 . S
C152 C151 1.391 . S
H153 C156 0.931 . S
H154 C159 0.928 . S
H155 C161 0.930 . S
C156 H153 0.931 . S
C156 C157 1.413 . S
C156 C158 1.360 . S
C157 C156 1.413 . S
C157 C161 1.429 . S
C158 C156 1.360 . S
C158 C159 1.372 . S
C159 H154 0.928 . S
C159 C158 1.372 . S
C159 C160 1.404 . S
C160 C159 1.404 . S
C160 C161 1.391 . S
C161 H155 0.930 . S
C161 C157 1.429 . S
C161 C160 1.391 . S
O162 Mn163 2.163 1_565 S
O162 C176 1.244 . S
Mn163 O162 2.163 1_545 S
Mn163 O166 2.160 . S
Mn163 O167 2.221 1_545 S
Mn163 O169 2.163 1_554 S
Mn163 O171 2.160 . S
Mn163 O181 2.221 . S
O164 Mn165 2.087 1_565 S
O164 C176 1.256 . S
Mn165 O164 2.087 1_545 S
Mn165 O172 2.089 . S
Mn165 O181 2.290 . S
Mn165 O182 2.251 . S
O166 Mn163 2.160 . S
O166 C177 1.239 1_554 S
O167 Mn163 2.221 1_565 S
O167 Mn168 2.290 1_554 S
O167 C178 1.278 . S
Mn168 O167 2.290 1_556 S
Mn168 O170 2.089 1_565 S
Mn168 O173 2.251 . S
Mn168 O174 2.087 . S
O169 Mn163 2.163 1_556 S
O169 C179 1.244 . S
O170 Mn168 2.089 1_545 S
O170 C177 1.256 . S
O171 Mn163 2.160 . S
O171 C180 1.239 . S
O172 Mn165 2.089 . S
O172 C180 1.256 . S
O173 Mn168 2.251 . S
O173 C178 1.241 1_556 S
O174 Mn168 2.087 . S
O174 C179 1.256 1_565 S
C175 O181 1.278 . S
C175 O182 1.241 . S
C176 O162 1.244 . S
C176 O164 1.256 . S
C177 O166 1.239 1_556 S
C177 O170 1.256 . S
C178 O167 1.278 . S
C178 O173 1.241 1_554 S
C179 O169 1.244 . S
C179 O174 1.256 1_545 S
C180 O171 1.239 . S
C180 O172 1.256 . S
O181 Mn163 2.221 . S
O181 Mn165 2.290 . S
O181 C175 1.278 . S
O182 Mn165 2.251 . S
O182 C175 1.241 . S
O183 Mn184 2.163 1_455 S
O183 C197 1.244 . S
Mn184 O183 2.163 1_655 S
Mn184 O187 2.160 . S
Mn184 O188 2.221 1_655 S
Mn184 O190 2.163 1_554 S
Mn184 O192 2.160 . S
Mn184 O202 2.221 . S
O185 Mn186 2.087 1_455 S
O185 C197 1.256 . S
Mn186 O185 2.087 1_655 S
Mn186 O193 2.089 1_655 S
Mn186 O202 2.290 . S
Mn186 O203 2.251 . S
O187 Mn184 2.160 . S
O187 C198 1.239 1_554 S
O188 Mn184 2.221 1_455 S
O188 Mn189 2.290 1_554 S
O188 C199 1.278 . S
Mn189 O188 2.290 1_556 S
Mn189 O191 2.089 1_455 S
Mn189 O194 2.251 . S
Mn189 O195 2.087 . S
O190 Mn184 2.163 1_556 S
O190 C200 1.244 1_655 S
O191 Mn189 2.089 1_655 S
O191 C198 1.256 . S
O192 Mn184 2.160 . S
O192 C201 1.231 1_655 S
O193 Mn186 2.089 1_455 S
O193 C201 1.266 . S
O194 Mn189 2.251 . S
O194 C199 1.241 1_556 S
O195 Mn189 2.087 . S
O195 C200 1.256 . S
C196 O202 1.278 . S
C196 O203 1.241 . S
C197 O183 1.244 . S
C197 O185 1.256 . S
C198 O187 1.239 1_556 S
C198 O191 1.256 . S
C199 O188 1.278 . S
C199 O194 1.241 1_554 S
C200 O190 1.244 1_455 S
C200 O195 1.256 . S
C201 O192 1.231 1_455 S
C201 O193 1.266 . S
O202 Mn184 2.221 . S
O202 Mn186 2.290 . S
O202 C196 1.278 . S
O203 Mn186 2.251 . S
O203 C196 1.241 . S
O204 Mn205 2.161 1_556 S
O204 C218 1.244 . S
Mn205 O204 2.161 1_554 S
Mn205 O208 2.161 . S
Mn205 O209 2.224 . S
Mn205 O211 2.195 . S
Mn205 O213 2.127 1_554 S
Mn205 O223 2.217 1_554 S
O206 Mn207 2.087 . S
O206 C218 1.256 . S
Mn207 O206 2.087 . S
Mn207 O214 2.089 . S
Mn207 O223 2.290 . S
Mn207 O224 2.251 1_556 S
O208 Mn205 2.161 . S
O208 C219 1.239 . S
O209 Mn205 2.224 . S
O209 Mn210 2.290 . S
O209 C220 1.278 . S
Mn210 O209 2.290 . S
Mn210 O212 2.089 . S
Mn210 O215 2.251 . S
Mn210 O216 2.087 . S
O211 Mn205 2.195 . S
O211 C221 1.244 . S
O212 Mn210 2.089 . S
O212 C219 1.256 . S
O213 Mn205 2.127 1_556 S
O213 C222 1.239 . S
O214 Mn207 2.089 . S
O214 C222 1.256 . S
O215 Mn210 2.251 . S
O215 C220 1.241 . S
O216 Mn210 2.087 . S
O216 C221 1.256 . S
C217 O223 1.278 1_554 S
C217 O224 1.241 . S
C218 O204 1.244 . S
C218 O206 1.256 . S
C219 O208 1.239 . S
C219 O212 1.256 . S
C220 O209 1.278 . S
C220 O215 1.241 . S
C221 O211 1.244 . S
C221 O216 1.256 . S
C222 O213 1.239 . S
C222 O214 1.256 . S
O223 Mn205 2.217 1_556 S
O223 Mn207 2.290 . S
O223 C217 1.278 1_556 S
O224 Mn207 2.251 1_554 S
O224 C217 1.241 . S
O225 Mn226 2.163 . S
O225 C239 1.244 . S
Mn226 O225 2.163 . S
Mn226 O229 2.160 . S
Mn226 O230 2.221 . S
Mn226 O232 2.163 . S
Mn226 O234 2.160 . S
Mn226 O244 2.221 . S
O227 Mn228 2.087 . S
O227 C239 1.256 . S
Mn228 O227 2.087 . S
Mn228 O235 2.089 . S
Mn228 O244 2.290 . S
Mn228 O245 2.251 . S
O229 Mn226 2.160 . S
O229 C240 1.239 . S
O230 Mn226 2.221 . S
O230 Mn231 2.290 . S
O230 C241 1.278 . S
Mn231 O230 2.290 . S
Mn231 O233 2.089 . S
Mn231 O236 2.251 . S
Mn231 O237 2.087 . S
O232 Mn226 2.163 . S
O232 C242 1.244 . S
O233 Mn231 2.089 . S
O233 C240 1.256 . S
O234 Mn226 2.160 . S
O234 C243 1.239 . S
O235 Mn228 2.089 . S
O235 C243 1.256 . S
O236 Mn231 2.251 . S
O236 C241 1.241 . S
O237 Mn231 2.087 . S
O237 C242 1.256 . S
C238 O244 1.278 . S
C238 O245 1.241 . S
C239 O225 1.244 . S
C239 O227 1.256 . S
C240 O229 1.239 . S
C240 O233 1.256 . S
C241 O230 1.278 . S
C241 O236 1.241 . S
C242 O232 1.244 . S
C242 O237 1.256 . S
C243 O234 1.239 . S
C243 O235 1.256 . S
O244 Mn226 2.221 . S
O244 Mn228 2.290 . S
O244 C238 1.278 . S
O245 Mn228 2.251 . S
O245 C238 1.241 . S
O246 Mn247 2.163 . S
O246 C260 1.244 . S
Mn247 O246 2.163 . S
Mn247 O250 2.160 . S
Mn247 O251 2.221 . S
Mn247 O253 2.163 . S
Mn247 O255 2.160 . S
Mn247 O265 2.221 . S
O248 Mn249 2.087 . S
O248 C260 1.256 . S
Mn249 O248 2.087 . S
Mn249 O256 2.089 . S
Mn249 O265 2.290 . S
Mn249 O266 2.251 . S
O250 Mn247 2.160 . S
O250 C261 1.239 . S
O251 Mn247 2.221 . S
O251 Mn252 2.290 . S
O251 C262 1.278 . S
Mn252 O251 2.290 . S
Mn252 O254 2.089 . S
Mn252 O257 2.251 . S
Mn252 O258 2.087 . S
O253 Mn247 2.163 . S
O253 C263 1.244 . S
O254 Mn252 2.089 . S
O254 C261 1.256 . S
O255 Mn247 2.160 . S
O255 C264 1.239 . S
O256 Mn249 2.089 . S
O256 C264 1.256 . S
O257 Mn252 2.251 . S
O257 C262 1.241 . S
O258 Mn252 2.087 . S
O258 C263 1.256 . S
C259 O265 1.278 . S
C259 O266 1.241 . S
C260 O246 1.244 . S
C260 O248 1.256 . S
C261 O250 1.239 . S
C261 O254 1.256 . S
C262 O251 1.278 . S
C262 O257 1.241 . S
C263 O253 1.244 . S
C263 O258 1.256 . S
C264 O255 1.239 . S
C264 O256 1.256 . S
O265 Mn247 2.221 . S
O265 Mn249 2.290 . S
O265 C259 1.278 . S
O266 Mn249 2.251 . S
O266 C259 1.241 . S
O267 Mn268 2.163 . S
O267 C281 1.244 . S
Mn268 O267 2.163 . S
Mn268 O271 2.160 . S
Mn268 O272 2.221 . S
Mn268 O274 2.163 . S
Mn268 O276 2.160 . S
Mn268 O286 2.221 . S
O269 Mn270 2.087 . S
O269 C281 1.256 . S
Mn270 O269 2.087 . S
Mn270 O277 2.089 . S
Mn270 O286 2.290 . S
Mn270 O287 2.251 . S
O271 Mn268 2.160 . S
O271 C282 1.239 . S
O272 Mn268 2.221 . S
O272 Mn273 2.290 . S
O272 C283 1.278 . S
Mn273 O272 2.290 . S
Mn273 O275 2.089 . S
Mn273 O278 2.251 . S
Mn273 O279 2.087 . S
O274 Mn268 2.163 . S
O274 C284 1.244 . S
O275 Mn273 2.089 . S
O275 C282 1.256 . S
O276 Mn268 2.160 . S
O276 C285 1.239 . S
O277 Mn270 2.089 . S
O277 C285 1.256 . S
O278 Mn273 2.251 . S
O278 C283 1.241 . S
O279 Mn273 2.087 . S
O279 C284 1.256 . S
C280 O286 1.278 . S
C280 O287 1.241 . S
C281 O267 1.244 . S
C281 O269 1.256 . S
C282 O271 1.239 . S
C282 O275 1.256 . S
C283 O272 1.278 . S
C283 O278 1.241 . S
C284 O274 1.244 . S
C284 O279 1.256 . S
C285 O276 1.239 . S
C285 O277 1.256 . S
O286 Mn268 2.221 . S
O286 Mn270 2.290 . S
O286 C280 1.278 . S
O287 Mn270 2.251 . S
O287 C280 1.241 . S
O288 Mn289 2.163 . S
O288 C302 1.244 . S
Mn289 O288 2.163 . S
Mn289 O292 2.160 . S
Mn289 O293 2.221 . S
Mn289 O295 2.163 . S
Mn289 O297 2.160 . S
Mn289 O307 2.221 . S
O290 Mn291 2.087 . S
O290 C302 1.256 . S
Mn291 O290 2.087 . S
Mn291 O298 2.089 . S
Mn291 O307 2.290 . S
Mn291 O308 2.251 . S
O292 Mn289 2.160 . S
O292 C303 1.239 . S
O293 Mn289 2.221 . S
O293 Mn294 2.290 . S
O293 C304 1.278 . S
Mn294 O293 2.290 . S
Mn294 O296 2.089 . S
Mn294 O299 2.251 . S
Mn294 O300 2.087 . S
O295 Mn289 2.163 . S
O295 C305 1.244 . S
O296 Mn294 2.089 . S
O296 C303 1.256 . S
O297 Mn289 2.160 . S
O297 C306 1.239 . S
O298 Mn291 2.089 . S
O298 C306 1.256 . S
O299 Mn294 2.251 . S
O299 C304 1.241 . S
O300 Mn294 2.087 . S
O300 C305 1.256 . S
C301 O307 1.278 . S
C301 O308 1.241 . S
C302 O288 1.244 . S
C302 O290 1.256 . S
C303 O292 1.239 . S
C303 O296 1.256 . S
C304 O293 1.278 . S
C304 O299 1.241 . S
C305 O295 1.244 . S
C305 O300 1.256 . S
C306 O297 1.239 . S
C306 O298 1.256 . S
O307 Mn289 2.221 . S
O307 Mn291 2.290 . S
O307 C301 1.278 . S
O308 Mn291 2.251 . S
O308 C301 1.241 . S
O309 Mn310 2.163 . S
O309 C323 1.244 . S
Mn310 O309 2.163 . S
Mn310 O313 2.160 . S
Mn310 O314 2.221 . S
Mn310 O316 2.163 . S
Mn310 O318 2.160 . S
Mn310 O328 2.221 . S
O311 Mn312 2.087 . S
O311 C323 1.256 . S
Mn312 O311 2.087 . S
Mn312 O319 2.089 . S
Mn312 O328 2.290 . S
Mn312 O329 2.251 . S
O313 Mn310 2.160 . S
O313 C324 1.239 . S
O314 Mn310 2.221 . S
O314 Mn315 2.290 . S
O314 C325 1.278 . S
Mn315 O314 2.290 . S
Mn315 O317 2.089 . S
Mn315 O320 2.251 . S
Mn315 O321 2.087 . S
O316 Mn310 2.163 . S
O316 C326 1.244 . S
O317 Mn315 2.089 . S
O317 C324 1.256 . S
O318 Mn310 2.160 . S
O318 C327 1.239 . S
O319 Mn312 2.089 . S
O319 C327 1.256 . S
O320 Mn315 2.251 . S
O320 C325 1.241 . S
O321 Mn315 2.087 . S
O321 C326 1.256 . S
C322 O328 1.278 . S
C322 O329 1.241 . S
C323 O309 1.244 . S
C323 O311 1.256 . S
C324 O313 1.239 . S
C324 O317 1.256 . S
C325 O314 1.278 . S
C325 O320 1.241 . S
C326 O316 1.244 . S
C326 O321 1.256 . S
C327 O318 1.239 . S
C327 O319 1.256 . S
O328 Mn310 2.221 . S
O328 Mn312 2.290 . S
O328 C322 1.278 . S
O329 Mn312 2.251 . S
O329 C322 1.241 . S
O330 Mn331 2.163 . S
O330 C344 1.244 . S
Mn331 O330 2.163 . S
Mn331 O334 2.160 . S
Mn331 O335 2.221 . S
Mn331 O337 2.163 . S
Mn331 O339 2.160 . S
Mn331 O349 2.221 . S
O332 Mn333 2.087 . S
O332 C344 1.256 . S
Mn333 O332 2.087 . S
Mn333 O340 2.089 . S
Mn333 O349 2.290 . S
Mn333 O350 2.251 . S
O334 Mn331 2.160 . S
O334 C345 1.239 . S
O335 Mn331 2.221 . S
O335 Mn336 2.290 . S
O335 C346 1.278 . S
Mn336 O335 2.290 . S
Mn336 O338 2.089 . S
Mn336 O341 2.251 . S
Mn336 O342 2.087 . S
O337 Mn331 2.163 . S
O337 C347 1.244 . S
O338 Mn336 2.089 . S
O338 C345 1.256 . S
O339 Mn331 2.160 . S
O339 C348 1.239 . S
O340 Mn333 2.089 . S
O340 C348 1.256 . S
O341 Mn336 2.251 . S
O341 C346 1.241 . S
O342 Mn336 2.087 . S
O342 C347 1.256 . S
C343 O349 1.278 . S
C343 O350 1.241 . S
C344 O330 1.244 . S
C344 O332 1.256 . S
C345 O334 1.239 . S
C345 O338 1.256 . S
C346 O335 1.278 . S
C346 O341 1.241 . S
C347 O337 1.244 . S
C347 O342 1.256 . S
C348 O339 1.239 . S
C348 O340 1.256 . S
O349 Mn331 2.221 . S
O349 Mn333 2.290 . S
O349 C343 1.278 . S
O350 Mn333 2.251 . S
O350 C343 1.241 . S
C351 C352 1.349 . S
C351 C353 1.327 . S
C351 H376 0.950 . S
C352 C351 1.349 . S
C352 C368 1.349 . S
C353 C351 1.327 . S
C353 C372 1.429 . S
C353 H377 0.950 . S
C354 C371 1.574 . S
C354 C373 1.368 . S
C354 H378 0.949 . S
H355 C359 0.949 . S
C356 C357 1.349 . S
C356 C358 1.327 . S
C356 H379 0.950 1_554 S
C357 C356 1.349 . S
C357 C369 1.349 . S
C358 C356 1.327 . S
C358 C374 1.429 . S
C358 H380 0.950 1_554 S
C359 H355 0.949 . S
C359 C367 1.574 . S
C359 C375 1.368 . S
H360 C368 0.950 . S
H361 C366 0.950 . S
H362 C367 0.949 . S
H363 C369 0.950 . S
H364 C370 0.950 . S
H365 C371 0.949 . S
C366 H361 0.950 . S
C366 C368 1.327 . S
C366 C372 1.429 . S
C367 C359 1.574 . S
C367 H362 0.949 . S
C367 C373 1.368 . S
C368 C352 1.349 . S
C368 H360 0.950 . S
C368 C366 1.327 . S
C369 C357 1.349 . S
C369 H363 0.950 . S
C369 C370 1.327 . S
C370 H364 0.950 . S
C370 C369 1.327 . S
C370 C374 1.429 . S
C371 C354 1.574 . S
C371 H365 0.949 . S
C371 C375 1.368 . S
C372 C353 1.429 . S
C372 C366 1.429 . S
C372 C373 1.523 . S
C373 C354 1.368 . S
C373 C367 1.368 . S
C373 C372 1.523 . S
C374 C358 1.429 . S
C374 C370 1.429 . S
C374 C375 1.523 . S
C375 C359 1.368 . S
C375 C371 1.368 . S
C375 C374 1.523 . S
H376 C351 0.950 . S
H377 C353 0.950 . S
H378 C354 0.949 . S
H379 C356 0.950 1_556 S
H380 C358 0.950 1_556 S
C381 C382 1.349 . S
C381 C383 1.327 . S
C381 H406 0.950 . S
C382 C381 1.349 . S
C382 C398 1.349 . S
C383 C381 1.327 . S
C383 C402 1.429 . S
C383 H407 0.950 . S
C384 C401 1.574 . S
C384 C403 1.368 . S
C384 H408 0.949 . S
H385 C389 0.949 . S
C386 C387 1.349 . S
C386 C388 1.327 . S
C386 H409 0.950 . S
C387 C386 1.349 . S
C387 C399 1.349 . S
C388 C386 1.327 . S
C388 C404 1.429 . S
C388 H410 0.950 . S
C389 H385 0.949 . S
C389 C397 1.574 . S
C389 C405 1.368 . S
H390 C398 0.950 . S
H391 C396 0.950 . S
H392 C397 0.949 . S
H393 C399 0.950 . S
H394 C400 0.950 . S
H395 C401 0.949 . S
C396 H391 0.950 . S
C396 C398 1.327 . S
C396 C402 1.429 . S
C397 C389 1.574 . S
C397 H392 0.949 . S
C397 C403 1.368 . S
C398 C382 1.349 . S
C398 H390 0.950 . S
C398 C396 1.327 . S
C399 C387 1.349 . S
C399 H393 0.950 . S
C399 C400 1.327 . S
C400 H394 0.950 . S
C400 C399 1.327 . S
C400 C404 1.429 . S
C401 C384 1.574 . S
C401 H395 0.949 . S
C401 C405 1.368 . S
C402 C383 1.429 . S
C402 C396 1.429 . S
C402 C403 1.523 . S
C403 C384 1.368 . S
C403 C397 1.368 . S
C403 C402 1.523 . S
C404 C388 1.429 . S
C404 C400 1.429 . S
C404 C405 1.523 . S
C405 C389 1.368 . S
C405 C401 1.368 . S
C405 C404 1.523 . S
H406 C381 0.950 . S
H407 C383 0.950 . S
H408 C384 0.949 . S
H409 C386 0.950 . S
H410 C388 0.950 . S
C411 C412 1.349 . S
C411 C413 1.327 . S
C411 H436 0.950 . S
C412 C411 1.349 . S
C412 C428 1.349 . S
C413 C411 1.327 . S
C413 C432 1.429 . S
C413 H437 0.950 . S
C414 C431 1.574 . S
C414 C433 1.368 . S
C414 H438 0.949 . S
H415 C419 0.949 . S
C416 C417 1.349 . S
C416 C418 1.327 . S
C416 H439 0.950 1_554 S
C417 C416 1.349 . S
C417 C429 1.349 . S
C418 C416 1.327 . S
C418 C434 1.429 . S
C418 H440 0.950 . S
C419 H415 0.949 . S
C419 C427 1.574 . S
C419 C435 1.368 . S
H420 C428 0.950 . S
H421 C426 0.950 . S
H422 C427 0.949 . S
H423 C429 0.950 . S
H424 C430 0.950 . S
H425 C431 0.949 . S
C426 H421 0.950 . S
C426 C428 1.327 . S
C426 C432 1.429 . S
C427 C419 1.574 . S
C427 H422 0.949 . S
C427 C433 1.368 . S
C428 C412 1.349 . S
C428 H420 0.950 . S
C428 C426 1.327 . S
C429 C417 1.349 . S
C429 H423 0.950 . S
C429 C430 1.327 . S
C430 H424 0.950 . S
C430 C429 1.327 . S
C430 C434 1.429 . S
C431 C414 1.574 . S
C431 H425 0.949 . S
C431 C435 1.368 . S
C432 C413 1.429 . S
C432 C426 1.429 . S
C432 C433 1.523 . S
C433 C414 1.368 . S
C433 C427 1.368 . S
C433 C432 1.523 . S
C434 C418 1.429 . S
C434 C430 1.429 . S
C434 C435 1.523 . S
C435 C419 1.368 . S
C435 C431 1.368 . S
C435 C434 1.523 . S
H436 C411 0.950 . S
H437 C413 0.950 . S
H438 C414 0.949 . S
H439 C416 0.950 1_556 S
H440 C418 0.950 . S
C441 C442 1.349 . S
C441 C443 1.327 . S
C441 H466 0.950 . S
C442 C441 1.349 . S
C442 C458 1.349 . S
C443 C441 1.327 . S
C443 C462 1.429 . S
C443 H467 0.950 . S
C444 C461 1.574 . S
C444 C463 1.368 . S
C444 H468 0.949 . S
H445 C449 0.949 . S
C446 C447 1.349 1_554 S
C446 C448 1.325 1_554 S
C446 H469 0.950 . S
C447 C446 1.349 1_556 S
C447 C459 1.349 . S
C448 C446 1.325 1_556 S
C448 C464 1.437 . S
C448 H470 0.944 1_556 S
C449 H445 0.949 . S
C449 C457 1.574 . S
C449 C465 1.368 . S
H450 C458 0.950 . S
H451 C456 0.950 . S
H452 C457 0.949 . S
H453 C459 0.950 . S
H454 C460 0.950 . S
H455 C461 0.949 1_554 S
C456 H451 0.950 . S
C456 C458 1.327 . S
C456 C462 1.429 . S
C457 C449 1.574 . S
C457 H452 0.949 . S
C457 C463 1.368 . S
C458 C442 1.349 . S
C458 H450 0.950 . S
C458 C456 1.327 . S
C459 C447 1.349 . S
C459 H453 0.950 . S
C459 C460 1.327 . S
C460 H454 0.950 . S
C460 C459 1.327 . S
C460 C464 1.429 . S
C461 C444 1.574 . S
C461 H455 0.949 1_556 S
C461 C465 1.368 . S
C462 C443 1.429 . S
C462 C456 1.429 . S
C462 C463 1.523 . S
C463 C444 1.368 . S
C463 C457 1.368 . S
C463 C462 1.523 . S
C464 C448 1.437 . S
C464 C460 1.429 . S
C464 C465 1.523 . S
C465 C449 1.368 . S
C465 C461 1.368 . S
C465 C464 1.523 . S
H466 C441 0.950 . S
H467 C443 0.950 . S
H468 C444 0.949 . S
H469 C446 0.950 . S
H470 C448 0.944 1_554 S
C471 C472 1.349 . S
C471 C473 1.327 . S
C471 H496 0.950 . S
C472 C471 1.349 . S
C472 C488 1.349 . S
C473 C471 1.327 . S
C473 C492 1.429 . S
C473 H497 0.950 . S
C474 C491 1.574 . S
C474 C493 1.368 . S
C474 H498 0.949 . S
H475 C479 0.949 1_554 S
C476 C477 1.349 . S
C476 C478 1.327 . S
C476 H499 0.950 . S
C477 C476 1.349 . S
C477 C489 1.349 1_556 S
C478 C476 1.327 . S
C478 C494 1.429 . S
C478 H500 0.950 . S
C479 H475 0.949 1_556 S
C479 C487 1.574 . S
C479 C495 1.368 . S
H480 C488 0.950 . S
H481 C486 0.950 . S
H482 C487 0.949 . S
H483 C489 0.950 . S
H484 C490 0.989 . S
H485 C491 0.949 . S
C486 H481 0.950 . S
C486 C488 1.327 . S
C486 C492 1.429 . S
C487 C479 1.574 . S
C487 H482 0.949 . S
C487 C493 1.368 . S
C488 C472 1.349 . S
C488 H480 0.950 . S
C488 C486 1.327 . S
C489 C477 1.349 1_554 S
C489 H483 0.950 . S
C489 C490 1.340 . S
C490 H484 0.989 . S
C490 C489 1.340 . S
C490 C494 1.380 1_554 S
C491 C474 1.574 . S
C491 H485 0.949 . S
C491 C495 1.368 . S
C492 C473 1.429 . S
C492 C486 1.429 . S
C492 C493 1.523 . S
C493 C474 1.368 . S
C493 C487 1.368 . S
C493 C492 1.523 . S
C494 C478 1.429 . S
C494 C490 1.380 1_556 S
C494 C495 1.523 . S
C495 C479 1.368 . S
C495 C491 1.368 . S
C495 C494 1.523 . S
H496 C471 0.950 . S
H497 C473 0.950 . S
H498 C474 0.949 . S
H499 C476 0.950 . S
H500 C478 0.950 . S
C501 C502 1.349 . S
C501 C503 1.327 . S
C501 H526 0.950 . S
C502 C501 1.349 . S
C502 C518 1.349 . S
C503 C501 1.327 . S
C503 C522 1.429 . S
C503 H527 0.950 . S
C504 C521 1.574 . S
C504 C523 1.368 . S
C504 H528 0.949 . S
H505 C509 0.949 . S
C506 C507 1.349 1_554 S
C506 C508 1.323 1_554 S
C506 H529 0.950 . S
C507 C506 1.349 1_556 S
C507 C519 1.349 . S
C508 C506 1.323 1_556 S
C508 C524 1.443 . S
C508 H530 0.939 1_556 S
C509 H505 0.949 . S
C509 C517 1.574 . S
C509 C525 1.368 . S
H510 C518 0.950 . S
H511 C516 0.950 . S
H512 C517 0.949 . S
H513 C519 0.950 . S
H514 C520 0.950 . S
H515 C521 0.949 1_554 S
C516 H511 0.950 . S
C516 C518 1.327 . S
C516 C522 1.429 . S
C517 C509 1.574 . S
C517 H512 0.949 . S
C517 C523 1.368 . S
C518 C502 1.349 . S
C518 H510 0.950 . S
C518 C516 1.327 . S
C519 C507 1.349 . S
C519 H513 0.950 . S
C519 C520 1.327 . S
C520 H514 0.950 . S
C520 C519 1.327 . S
C520 C524 1.429 . S
C521 C504 1.574 . S
C521 H515 0.949 1_556 S
C521 C525 1.368 . S
C522 C503 1.429 . S
C522 C516 1.429 . S
C522 C523 1.523 . S
C523 C504 1.368 . S
C523 C517 1.368 . S
C523 C522 1.523 . S
C524 C508 1.443 . S
C524 C520 1.429 . S
C524 C525 1.523 . S
C525 C509 1.368 . S
C525 C521 1.368 . S
C525 C524 1.523 . S
H526 C501 0.950 . S
H527 C503 0.950 . S
H528 C504 0.949 . S
H529 C506 0.950 . S
H530 C508 0.939 1_554 S
C531 C532 1.349 . S
C531 C533 1.327 . S
C531 H556 0.950 . S
C532 C531 1.349 . S
C532 C548 1.349 . S
C533 C531 1.327 . S
C533 C552 1.429 . S
C533 H557 0.950 . S
C534 C551 1.574 . S
C534 C553 1.368 . S
C534 H558 0.949 . S
H535 C539 0.949 . S
C536 C537 1.349 . S
C536 C538 1.327 . S
C536 H559 0.950 . S
C537 C536 1.349 . S
C537 C549 1.349 1_556 S
C538 C536 1.327 . S
C538 C554 1.429 . S
C538 H560 0.950 . S
C539 H535 0.949 . S
C539 C547 1.574 . S
C539 C555 1.368 . S
H540 C548 0.950 . S
H541 C546 0.950 . S
H542 C547 0.949 . S
H543 C549 0.950 . S
H544 C550 0.950 1_554 S
H545 C551 0.949 . S
C546 H541 0.950 . S
C546 C548 1.327 . S
C546 C552 1.429 . S
C547 C539 1.574 . S
C547 H542 0.949 . S
C547 C553 1.368 . S
C548 C532 1.349 . S
C548 H540 0.950 . S
C548 C546 1.327 . S
C549 C537 1.349 1_554 S
C549 H543 0.950 . S
C549 C550 1.327 1_554 S
C550 H544 0.950 1_556 S
C550 C549 1.327 1_556 S
C550 C554 1.429 . S
C551 C534 1.574 . S
C551 H545 0.949 . S
C551 C555 1.368 . S
C552 C533 1.429 . S
C552 C546 1.429 . S
C552 C553 1.523 . S
C553 C534 1.368 . S
C553 C547 1.368 . S
C553 C552 1.523 . S
C554 C538 1.429 . S
C554 C550 1.429 . S
C554 C555 1.523 . S
C555 C539 1.368 . S
C555 C551 1.368 . S
C555 C554 1.523 . S
H556 C531 0.950 . S
H557 C533 0.950 . S
H558 C534 0.949 . S
H559 C536 0.950 . S
H560 C538 0.950 . S
C561 C562 1.349 . S
C561 C563 1.327 . S
C561 H586 0.950 . S
C562 C561 1.349 . S
C562 C578 1.349 . S
C563 C561 1.327 . S
C563 C582 1.429 . S
C563 H587 0.950 . S
C564 C581 1.574 . S
C564 C583 1.368 . S
C564 H588 0.949 . S
H565 C569 0.949 1_554 S
C566 C567 1.349 . S
C566 C568 1.327 . S
C566 H589 0.950 . S
C567 C566 1.349 . S
C567 C579 1.349 1_556 S
C568 C566 1.327 . S
C568 C584 1.429 . S
C568 H590 0.950 . S
C569 H565 0.949 1_556 S
C569 C577 1.574 . S
C569 C585 1.368 . S
H570 C578 0.950 . S
H571 C576 0.950 . S
H572 C577 0.949 . S
H573 C579 0.950 . S
H574 C580 0.950 . S
H575 C581 0.949 . S
C576 H571 0.950 . S
C576 C578 1.327 . S
C576 C582 1.429 . S
C577 C569 1.574 . S
C577 H572 0.949 . S
C577 C583 1.368 . S
C578 C562 1.349 . S
C578 H570 0.950 . S
C578 C576 1.327 . S
C579 C567 1.349 1_554 S
C579 H573 0.950 . S
C579 C580 1.327 . S
C580 H574 0.950 . S
C580 C579 1.327 . S
C580 C584 1.429 1_554 S
C581 C564 1.574 . S
C581 H575 0.949 . S
C581 C585 1.368 . S
C582 C563 1.429 . S
C582 C576 1.429 . S
C582 C583 1.523 . S
C583 C564 1.368 . S
C583 C577 1.368 . S
C583 C582 1.523 . S
C584 C568 1.429 . S
C584 C580 1.429 1_556 S
C584 C585 1.523 . S
C585 C569 1.368 . S
C585 C581 1.368 . S
C585 C584 1.523 . S
H586 C561 0.950 . S
H587 C563 0.950 . S
H588 C564 0.949 . S
H589 C566 0.950 . S
H590 C568 0.950 . S
C591 C592 1.349 . S
C591 C593 1.327 . S
C591 H616 0.950 . S
C592 C591 1.349 . S
C592 C608 1.349 . S
C593 C591 1.327 . S
C593 C612 1.429 . S
C593 H617 0.950 . S
C594 C611 1.574 . S
C594 C613 1.368 . S
C594 H618 0.949 . S
H595 C599 0.949 1_554 S
C596 C597 1.349 . S
C596 C598 1.327 . S
C596 H619 0.950 . S
C597 C596 1.349 . S
C597 C609 1.349 1_556 S
C598 C596 1.327 . S
C598 C614 1.429 . S
C598 H620 0.950 . S
C599 H595 0.949 1_556 S
C599 C607 1.574 . S
C599 C615 1.368 . S
H600 C608 0.950 . S
H601 C606 0.950 . S
H602 C607 0.965 . S
H603 C609 0.950 . S
H604 C610 0.950 . S
H605 C611 0.949 . S
C606 H601 0.950 . S
C606 C608 1.327 . S
C606 C612 1.429 . S
C607 C599 1.574 . S
C607 H602 0.965 . S
C607 C613 1.368 . S
C608 C592 1.349 . S
C608 H600 0.950 . S
C608 C606 1.327 . S
C609 C597 1.349 1_554 S
C609 H603 0.950 . S
C609 C610 1.327 . S
C610 H604 0.950 . S
C610 C609 1.327 . S
C610 C614 1.429 1_554 S
C611 C594 1.574 . S
C611 H605 0.949 . S
C611 C615 1.368 . S
C612 C593 1.429 . S
C612 C606 1.429 . S
C612 C613 1.523 . S
C613 C594 1.368 . S
C613 C607 1.368 . S
C613 C612 1.523 . S
C614 C598 1.429 . S
C614 C610 1.429 1_556 S
C614 C615 1.523 . S
C615 C599 1.368 . S
C615 C611 1.368 . S
C615 C614 1.523 . S
H616 C591 0.950 . S
H617 C593 0.950 . S
H618 C594 0.949 . S
H619 C596 0.950 . S
H620 C598 0.950 . S
C621 C622 1.349 . S
C621 C623 1.327 . S
C621 H646 0.950 . S
C622 C621 1.349 . S
C622 C638 1.349 . S
C623 C621 1.327 . S
C623 C642 1.429 . S
C623 H647 0.950 . S
C624 C641 1.574 . S
C624 C643 1.368 . S
C624 H648 0.949 . S
H625 C629 0.949 . S
C626 C627 1.349 . S
C626 C628 1.327 . S
C626 H649 0.950 1_554 S
C627 C626 1.349 . S
C627 C639 1.349 . S
C628 C626 1.327 . S
C628 C644 1.429 . S
C628 H650 0.950 . S
C629 H625 0.949 . S
C629 C637 1.574 . S
C629 C645 1.368 . S
H630 C638 0.950 . S
H631 C636 0.950 . S
H632 C637 0.949 . S
H633 C639 0.950 . S
H634 C640 0.950 . S
H635 C641 0.949 . S
C636 H631 0.950 . S
C636 C638 1.327 . S
C636 C642 1.429 . S
C637 C629 1.574 . S
C637 H632 0.949 . S
C637 C643 1.368 . S
C638 C622 1.349 . S
C638 H630 0.950 . S
C638 C636 1.327 . S
C639 C627 1.349 . S
C639 H633 0.950 . S
C639 C640 1.327 . S
C640 H634 0.950 . S
C640 C639 1.327 . S
C640 C644 1.429 . S
C641 C624 1.574 . S
C641 H635 0.949 . S
C641 C645 1.368 . S
C642 C623 1.429 . S
C642 C636 1.429 . S
C642 C643 1.523 . S
C643 C624 1.368 . S
C643 C637 1.368 . S
C643 C642 1.523 . S
C644 C628 1.429 . S
C644 C640 1.429 . S
C644 C645 1.523 . S
C645 C629 1.368 . S
C645 C641 1.368 . S
C645 C644 1.523 . S
H646 C621 0.950 . S
H647 C623 0.950 . S
H648 C624 0.949 . S
H649 C626 0.950 1_556 S
H650 C628 0.950 . S
C651 C652 1.349 . S
C651 C653 1.327 . S
C651 H676 0.950 . S
C652 C651 1.349 . S
C652 C668 1.349 . S
C653 C651 1.327 . S
C653 C672 1.429 . S
C653 H677 0.950 . S
C654 C671 1.574 . S
C654 C673 1.368 . S
C654 H678 0.949 . S
H655 C659 0.949 . S
C656 C657 1.349 1_556 S
C656 C658 1.327 1_556 S
C656 H679 0.950 . S
C657 C656 1.349 1_554 S
C657 C669 1.349 . S
C658 C656 1.327 1_554 S
C658 C674 1.429 . S
C658 H680 0.950 1_554 S
C659 H655 0.949 . S
C659 C667 1.574 . S
C659 C675 1.368 . S
H660 C668 0.950 . S
H661 C666 0.950 . S
H662 C667 0.949 . S
H663 C669 0.950 . S
H664 C670 0.950 . S
H665 C671 0.994 . S
C666 H661 0.950 . S
C666 C668 1.327 . S
C666 C672 1.429 . S
C667 C659 1.574 . S
C667 H662 0.949 . S
C667 C673 1.368 . S
C668 C652 1.349 . S
C668 H660 0.950 . S
C668 C666 1.327 . S
C669 C657 1.349 . S
C669 H663 0.950 . S
C669 C670 1.327 . S
C670 H664 0.950 . S
C670 C669 1.327 . S
C670 C674 1.429 . S
C671 C654 1.574 . S
C671 H665 0.994 . S
C671 C675 1.368 . S
C672 C653 1.429 . S
C672 C666 1.429 . S
C672 C673 1.523 . S
C673 C654 1.368 . S
C673 C667 1.368 . S
C673 C672 1.523 . S
C674 C658 1.429 . S
C674 C670 1.429 . S
C674 C675 1.523 . S
C675 C659 1.368 . S
C675 C671 1.368 . S
C675 C674 1.523 . S
H676 C651 0.950 . S
H677 C653 0.950 . S
H678 C654 0.949 . S
H679 C656 0.950 . S
H680 C658 0.950 1_556 S
C681 C682 1.349 . S
C681 C683 1.327 . S
C681 H706 0.950 . S
C682 C681 1.349 . S
C682 C698 1.349 . S
C683 C681 1.327 . S
C683 C702 1.429 . S
C683 H707 0.950 . S
C684 C701 1.574 . S
C684 C703 1.368 . S
C684 H708 0.949 . S
H685 C689 0.949 . S
C686 C687 1.349 1_556 S
C686 C688 1.327 1_556 S
C686 H709 0.950 . S
C687 C686 1.349 1_554 S
C687 C699 1.349 . S
C688 C686 1.327 1_554 S
C688 C704 1.429 . S
C688 H710 0.950 1_554 S
C689 H685 0.949 . S
C689 C697 1.574 . S
C689 C705 1.368 . S
H690 C698 0.950 . S
H691 C696 0.950 . S
H692 C697 0.949 . S
H693 C699 0.950 . S
H694 C700 0.950 . S
H695 C701 0.944 . S
C696 H691 0.950 . S
C696 C698 1.327 . S
C696 C702 1.429 . S
C697 C689 1.574 . S
C697 H692 0.949 . S
C697 C703 1.368 . S
C698 C682 1.349 . S
C698 H690 0.950 . S
C698 C696 1.327 . S
C699 C687 1.349 . S
C699 H693 0.950 . S
C699 C700 1.327 . S
C700 H694 0.950 . S
C700 C699 1.327 . S
C700 C704 1.429 . S
C701 C684 1.574 . S
C701 H695 0.944 . S
C701 C705 1.368 . S
C702 C683 1.429 . S
C702 C696 1.429 . S
C702 C703 1.523 . S
C703 C684 1.368 . S
C703 C697 1.368 . S
C703 C702 1.523 . S
C704 C688 1.429 . S
C704 C700 1.429 . S
C704 C705 1.523 . S
C705 C689 1.368 . S
C705 C701 1.368 . S
C705 C704 1.523 . S
H706 C681 0.950 . S
H707 C683 0.950 . S
H708 C684 0.949 . S
H709 C686 0.950 . S
H710 C688 0.950 1_556 S
C711 C712 1.349 . S
C711 C713 1.327 . S
C711 H736 0.950 . S
C712 C711 1.349 . S
C712 C728 1.349 . S
C713 C711 1.327 . S
C713 C732 1.429 . S
C713 H737 0.950 . S
C714 C731 1.574 1_655 S
C714 C733 1.368 . S
C714 H738 0.949 . S
H715 C719 0.949 . S
C716 C717 1.349 . S
C716 C718 1.327 . S
C716 H739 0.950 . S
C717 C716 1.349 . S
C717 C729 1.349 . S
C718 C716 1.327 . S
C718 C734 1.429 . S
C718 H740 0.950 . S
C719 H715 0.949 . S
C719 C727 1.597 . S
C719 C735 1.368 . S
H720 C728 0.950 . S
H721 C726 0.950 . S
H722 C727 0.948 1_655 S
H723 C729 0.950 . S
H724 C730 0.950 . S
H725 C731 0.949 . S
C726 H721 0.950 . S
C726 C728 1.327 . S
C726 C732 1.429 . S
C727 C719 1.597 . S
C727 H722 0.948 1_455 S
C727 C733 1.347 1_455 S
C728 C712 1.349 . S
C728 H720 0.950 . S
C728 C726 1.327 . S
C729 C717 1.349 . S
C729 H723 0.950 . S
C729 C730 1.327 . S
C730 H724 0.950 . S
C730 C729 1.327 . S
C730 C734 1.429 . S
C731 C714 1.574 1_455 S
C731 H725 0.949 . S
C731 C735 1.368 . S
C732 C713 1.429 . S
C732 C726 1.429 . S
C732 C733 1.523 . S
C733 C714 1.368 . S
C733 C727 1.347 1_655 S
C733 C732 1.523 . S
C734 C718 1.429 . S
C734 C730 1.429 . S
C734 C735 1.523 . S
C735 C719 1.368 . S
C735 C731 1.368 . S
C735 C734 1.523 . S
H736 C711 0.950 . S
H737 C713 0.950 . S
H738 C714 0.949 . S
H739 C716 0.950 . S
H740 C718 0.950 . S
C741 C742 1.349 . S
C741 C743 1.327 . S
C741 H766 0.950 . S
C742 C741 1.349 . S
C742 C758 1.349 . S
C743 C741 1.327 . S
C743 C762 1.429 . S
C743 H767 0.950 . S
C744 C761 1.574 . S
C744 C763 1.368 . S
C744 H768 0.949 . S
H745 C749 0.949 . S
C746 C747 1.349 . S
C746 C748 1.327 . S
C746 H769 0.950 . S
C747 C746 1.349 . S
C747 C759 1.349 . S
C748 C746 1.327 . S
C748 C764 1.429 . S
C748 H770 0.950 . S
C749 H745 0.949 . S
C749 C757 1.574 . S
C749 C765 1.368 . S
H750 C758 0.950 . S
H751 C756 0.950 . S
H752 C757 0.949 . S
H753 C759 0.950 . S
H754 C760 0.950 . S
H755 C761 0.949 . S
C756 H751 0.950 . S
C756 C758 1.327 . S
C756 C762 1.429 . S
C757 C749 1.574 . S
C757 H752 0.949 . S
C757 C763 1.368 . S
C758 C742 1.349 . S
C758 H750 0.950 . S
C758 C756 1.327 . S
C759 C747 1.349 . S
C759 H753 0.950 . S
C759 C760 1.327 . S
C760 H754 0.950 . S
C760 C759 1.327 . S
C760 C764 1.429 . S
C761 C744 1.574 . S
C761 H755 0.949 . S
C761 C765 1.368 . S
C762 C743 1.429 . S
C762 C756 1.429 . S
C762 C763 1.523 . S
C763 C744 1.368 . S
C763 C757 1.368 . S
C763 C762 1.523 . S
C764 C748 1.429 . S
C764 C760 1.429 . S
C764 C765 1.523 . S
C765 C749 1.368 . S
C765 C761 1.368 . S
C765 C764 1.523 . S
H766 C741 0.950 . S
H767 C743 0.950 . S
H768 C744 0.949 . S
H769 C746 0.950 . S
H770 C748 0.950 . S
C771 C772 1.349 . S
C771 C773 1.327 . S
C771 H796 0.950 . S
C772 C771 1.349 . S
C772 C788 1.349 . S
C773 C771 1.327 . S
C773 C792 1.429 . S
C773 H797 0.950 . S
C774 C791 1.574 1_545 S
C774 C793 1.368 . S
C774 H798 0.949 . S
H775 C779 0.949 . S
C776 C777 1.349 . S
C776 C778 1.327 . S
C776 H799 0.950 . S
C777 C776 1.349 . S
C777 C789 1.349 . S
C778 C776 1.327 . S
C778 C794 1.429 . S
C778 H800 0.950 . S
C779 H775 0.949 . S
C779 C787 1.574 1_565 S
C779 C795 1.368 . S
H780 C788 0.950 . S
H781 C786 0.950 . S
H782 C787 0.949 . S
H783 C789 0.950 . S
H784 C790 0.950 . S
H785 C791 0.949 . S
C786 H781 0.950 . S
C786 C788 1.327 . S
C786 C792 1.429 . S
C787 C779 1.574 1_545 S
C787 H782 0.949 . S
C787 C793 1.368 . S
C788 C772 1.349 . S
C788 H780 0.950 . S
C788 C786 1.327 . S
C789 C777 1.349 . S
C789 H783 0.950 . S
C789 C790 1.327 . S
C790 H784 0.950 . S
C790 C789 1.327 . S
C790 C794 1.429 . S
C791 C774 1.574 1_565 S
C791 H785 0.949 . S
C791 C795 1.368 . S
C792 C773 1.429 . S
C792 C786 1.429 . S
C792 C793 1.523 . S
C793 C774 1.368 . S
C793 C787 1.368 . S
C793 C792 1.523 . S
C794 C778 1.429 . S
C794 C790 1.429 . S
C794 C795 1.523 . S
C795 C779 1.368 . S
C795 C791 1.368 . S
C795 C794 1.523 . S
H796 C771 0.950 . S
H797 C773 0.950 . S
H798 C774 0.949 . S
H799 C776 0.950 . S
H800 C778 0.950 . S
C801 C802 1.349 . S
C801 C803 1.327 . S
C801 H826 0.950 . S
C802 C801 1.349 . S
C802 C818 1.349 . S
C803 C801 1.327 . S
C803 C822 1.429 . S
C803 H827 0.950 . S
C804 C821 1.574 . S
C804 C823 1.368 . S
C804 H828 0.949 . S
H805 C809 0.949 . S
C806 C807 1.349 . S
C806 C808 1.327 . S
C806 H829 0.950 . S
C807 C806 1.349 . S
C807 C819 1.349 . S
C808 C806 1.327 . S
C808 C824 1.429 . S
C808 H830 0.950 . S
C809 H805 0.949 . S
C809 C817 1.574 . S
C809 C825 1.368 . S
H810 C818 0.950 . S
H811 C816 0.950 . S
H812 C817 0.949 . S
H813 C819 0.950 . S
H814 C820 0.950 . S
H815 C821 0.949 . S
C816 H811 0.950 . S
C816 C818 1.327 . S
C816 C822 1.429 . S
C817 C809 1.574 . S
C817 H812 0.949 . S
C817 C823 1.368 . S
C818 C802 1.349 . S
C818 H810 0.950 . S
C818 C816 1.327 . S
C819 C807 1.349 . S
C819 H813 0.950 . S
C819 C820 1.327 . S
C820 H814 0.950 . S
C820 C819 1.327 . S
C820 C824 1.429 . S
C821 C804 1.574 . S
C821 H815 0.949 . S
C821 C825 1.368 . S
C822 C803 1.429 . S
C822 C816 1.429 . S
C822 C823 1.523 . S
C823 C804 1.368 . S
C823 C817 1.368 . S
C823 C822 1.523 . S
C824 C808 1.429 . S
C824 C820 1.429 . S
C824 C825 1.523 . S
C825 C809 1.368 . S
C825 C821 1.368 . S
C825 C824 1.523 . S
H826 C801 0.950 . S
H827 C803 0.950 . S
H828 C804 0.949 . S
H829 C806 0.950 . S
H830 C808 0.950 . S
C831 C832 1.349 . S
C831 C833 1.327 . S
C831 H856 0.950 . S
C832 C831 1.349 . S
C832 C848 1.349 . S
C833 C831 1.327 . S
C833 C852 1.429 . S
C833 H857 0.950 . S
C834 C851 1.574 . S
C834 C853 1.368 . S
C834 H858 0.949 . S
H835 C839 0.949 . S
C836 C837 1.349 . S
C836 C838 1.327 . S
C836 H859 0.950 . S
C837 C836 1.349 . S
C837 C849 1.349 . S
C838 C836 1.327 . S
C838 C854 1.429 . S
C838 H860 0.950 . S
C839 H835 0.949 . S
C839 C847 1.574 . S
C839 C855 1.368 . S
H840 C848 0.950 . S
H841 C846 0.950 . S
H842 C847 0.949 . S
H843 C849 0.950 . S
H844 C850 0.950 . S
H845 C851 0.949 . S
C846 H841 0.950 . S
C846 C848 1.327 . S
C846 C852 1.429 . S
C847 C839 1.574 . S
C847 H842 0.949 . S
C847 C853 1.368 . S
C848 C832 1.349 . S
C848 H840 0.950 . S
C848 C846 1.327 . S
C849 C837 1.349 . S
C849 H843 0.950 . S
C849 C850 1.327 . S
C850 H844 0.950 . S
C850 C849 1.327 . S
C850 C854 1.429 . S
C851 C834 1.574 . S
C851 H845 0.949 . S
C851 C855 1.368 . S
C852 C833 1.429 . S
C852 C846 1.429 . S
C852 C853 1.523 . S
C853 C834 1.368 . S
C853 C847 1.368 . S
C853 C852 1.523 . S
C854 C838 1.429 . S
C854 C850 1.429 . S
C854 C855 1.523 . S
C855 C839 1.368 . S
C855 C851 1.368 . S
C855 C854 1.523 . S
H856 C831 0.950 . S
H857 C833 0.950 . S
H858 C834 0.949 . S
H859 C836 0.950 . S
H860 C838 0.950 . S
C861 C862 1.349 . S
C861 C863 1.327 . S
C861 H886 0.950 . S
C862 C861 1.349 . S
C862 C878 1.349 . S
C863 C861 1.327 . S
C863 C882 1.429 . S
C863 H887 0.950 . S
C864 C881 1.574 . S
C864 C883 1.368 . S
C864 H888 0.949 . S
H865 C869 0.949 . S
C866 C867 1.349 . S
C866 C868 1.327 . S
C866 H889 0.950 . S
C867 C866 1.349 . S
C867 C879 1.349 . S
C868 C866 1.327 . S
C868 C884 1.429 . S
C868 H890 0.950 . S
C869 H865 0.949 . S
C869 C877 1.574 . S
C869 C885 1.368 . S
H870 C878 0.950 . S
H871 C876 0.950 . S
H872 C877 0.949 . S
H873 C879 0.950 . S
H874 C880 0.950 . S
H875 C881 0.949 . S
C876 H871 0.950 . S
C876 C878 1.327 . S
C876 C882 1.429 . S
C877 C869 1.574 . S
C877 H872 0.949 . S
C877 C883 1.368 . S
C878 C862 1.349 . S
C878 H870 0.950 . S
C878 C876 1.327 . S
C879 C867 1.349 . S
C879 H873 0.950 . S
C879 C880 1.327 . S
C880 H874 0.950 . S
C880 C879 1.327 . S
C880 C884 1.429 . S
C881 C864 1.574 . S
C881 H875 0.949 . S
C881 C885 1.368 . S
C882 C863 1.429 . S
C882 C876 1.429 . S
C882 C883 1.523 . S
C883 C864 1.368 . S
C883 C877 1.368 . S
C883 C882 1.523 . S
C884 C868 1.429 . S
C884 C880 1.429 . S
C884 C885 1.523 . S
C885 C869 1.368 . S
C885 C881 1.368 . S
C885 C884 1.523 . S
H886 C861 0.950 . S
H887 C863 0.950 . S
H888 C864 0.949 . S
H889 C866 0.950 . S
H890 C868 0.950 . S
C891 C892 1.349 . S
C891 C893 1.327 . S
C891 H916 0.950 . S
C892 C891 1.349 . S
C892 C908 1.349 . S
C893 C891 1.327 . S
C893 C912 1.429 . S
C893 H917 0.950 . S
C894 C911 1.574 . S
C894 C913 1.368 . S
C894 H918 0.949 . S
H895 C899 0.949 . S
C896 C897 1.349 . S
C896 C898 1.327 . S
C896 H919 0.950 . S
C897 C896 1.349 . S
C897 C909 1.349 . S
C898 C896 1.327 . S
C898 C914 1.429 . S
C898 H920 0.950 . S
C899 H895 0.949 . S
C899 C907 1.574 . S
C899 C915 1.368 . S
H900 C908 0.950 . S
H901 C906 0.950 . S
H902 C907 0.949 . S
H903 C909 0.950 . S
H904 C910 0.950 . S
H905 C911 0.949 . S
C906 H901 0.950 . S
C906 C908 1.327 . S
C906 C912 1.429 . S
C907 C899 1.574 . S
C907 H902 0.949 . S
C907 C913 1.368 . S
C908 C892 1.349 . S
C908 H900 0.950 . S
C908 C906 1.327 . S
C909 C897 1.349 . S
C909 H903 0.950 . S
C909 C910 1.327 . S
C910 H904 0.950 . S
C910 C909 1.327 . S
C910 C914 1.429 . S
C911 C894 1.574 . S
C911 H905 0.949 . S
C911 C915 1.368 . S
C912 C893 1.429 . S
C912 C906 1.429 . S
C912 C913 1.523 . S
C913 C894 1.368 . S
C913 C907 1.368 . S
C913 C912 1.523 . S
C914 C898 1.429 . S
C914 C910 1.429 . S
C914 C915 1.523 . S
C915 C899 1.368 . S
C915 C911 1.368 . S
C915 C914 1.523 . S
H916 C891 0.950 . S
H917 C893 0.950 . S
H918 C894 0.949 . S
H919 C896 0.950 . S
H920 C898 0.950 . S
C921 C922 1.349 . S
C921 C923 1.327 . S
C921 H946 0.950 . S
C922 C921 1.349 . S
C922 C938 1.349 . S
C923 C921 1.327 . S
C923 C942 1.429 . S
C923 H947 0.950 . S
C924 C941 1.574 . S
C924 C943 1.368 . S
C924 H948 0.949 . S
H925 C929 0.949 . S
C926 C927 1.349 . S
C926 C928 1.327 . S
C926 H949 0.950 . S
C927 C926 1.349 . S
C927 C939 1.349 . S
C928 C926 1.327 . S
C928 C944 1.429 . S
C928 H950 0.950 . S
C929 H925 0.949 . S
C929 C937 1.574 . S
C929 C945 1.368 . S
H930 C938 0.950 . S
H931 C936 0.950 . S
H932 C937 0.949 . S
H933 C939 0.950 . S
H934 C940 0.950 . S
H935 C941 0.949 . S
C936 H931 0.950 . S
C936 C938 1.327 . S
C936 C942 1.429 . S
C937 C929 1.574 . S
C937 H932 0.949 . S
C937 C943 1.368 . S
C938 C922 1.349 . S
C938 H930 0.950 . S
C938 C936 1.327 . S
C939 C927 1.349 . S
C939 H933 0.950 . S
C939 C940 1.327 . S
C940 H934 0.950 . S
C940 C939 1.327 . S
C940 C944 1.429 . S
C941 C924 1.574 . S
C941 H935 0.949 . S
C941 C945 1.368 . S
C942 C923 1.429 . S
C942 C936 1.429 . S
C942 C943 1.523 . S
C943 C924 1.368 . S
C943 C937 1.368 . S
C943 C942 1.523 . S
C944 C928 1.429 . S
C944 C940 1.429 . S
C944 C945 1.523 . S
C945 C929 1.368 . S
C945 C941 1.368 . S
C945 C944 1.523 . S
H946 C921 0.950 . S
H947 C923 0.950 . S
H948 C924 0.949 . S
H949 C926 0.950 . S
H950 C928 0.950 . S
C951 C952 1.349 . S
C951 C953 1.327 . S
C951 H976 0.950 . S
C952 C951 1.349 . S
C952 C968 1.349 . S
C953 C951 1.327 . S
C953 C972 1.429 . S
C953 H977 0.950 . S
C954 C971 1.574 . S
C954 C973 1.368 . S
C954 H978 0.949 . S
H955 C959 0.949 . S
C956 C957 1.349 . S
C956 C958 1.327 . S
C956 H979 0.950 . S
C957 C956 1.349 . S
C957 C969 1.349 . S
C958 C956 1.327 . S
C958 C974 1.429 . S
C958 H980 0.950 . S
C959 H955 0.949 . S
C959 C967 1.574 . S
C959 C975 1.368 . S
H960 C968 0.950 . S
H961 C966 0.950 . S
H962 C967 0.949 . S
H963 C969 0.950 . S
H964 C970 0.950 . S
H965 C971 0.949 . S
C966 H961 0.950 . S
C966 C968 1.327 . S
C966 C972 1.429 . S
C967 C959 1.574 . S
C967 H962 0.949 . S
C967 C973 1.368 . S
C968 C952 1.349 . S
C968 H960 0.950 . S
C968 C966 1.327 . S
C969 C957 1.349 . S
C969 H963 0.950 . S
C969 C970 1.327 . S
C970 H964 0.950 . S
C970 C969 1.327 . S
C970 C974 1.429 . S
C971 C954 1.574 . S
C971 H965 0.949 . S
C971 C975 1.368 . S
C972 C953 1.429 . S
C972 C966 1.429 . S
C972 C973 1.523 . S
C973 C954 1.368 . S
C973 C967 1.368 . S
C973 C972 1.523 . S
C974 C958 1.429 . S
C974 C970 1.429 . S
C974 C975 1.523 . S
C975 C959 1.368 . S
C975 C971 1.368 . S
C975 C974 1.523 . S
H976 C951 0.950 . S
H977 C953 0.950 . S
H978 C954 0.949 . S
H979 C956 0.950 . S
H980 C958 0.950 . S
C981 C982 1.349 . S
C981 C983 1.327 . S
C981 H1006 0.950 . S
C982 C981 1.349 . S
C982 C998 1.349 . S
C983 C981 1.327 . S
C983 C1002 1.429 . S
C983 H1007 0.950 . S
C984 C1001 1.574 1_545 S
C984 C1003 1.368 . S
C984 H1008 0.949 . S
H985 C989 0.949 . S
C986 C987 1.349 . S
C986 C988 1.327 . S
C986 H1009 0.950 . S
C987 C986 1.349 . S
C987 C999 1.349 . S
C988 C986 1.327 . S
C988 C1004 1.429 . S
C988 H1010 0.950 . S
C989 H985 0.949 . S
C989 C997 1.574 1_565 S
C989 C1005 1.368 . S
H990 C998 0.950 . S
H991 C996 0.950 . S
H992 C997 0.949 . S
H993 C999 0.950 . S
H994 C1000 0.950 . S
H995 C1001 0.949 . S
C996 H991 0.950 . S
C996 C998 1.327 . S
C996 C1002 1.429 . S
C997 C989 1.574 1_545 S
C997 H992 0.949 . S
C997 C1003 1.368 . S
C998 C982 1.349 . S
C998 H990 0.950 . S
C998 C996 1.327 . S
C999 C987 1.349 . S
C999 H993 0.950 . S
C999 C1000 1.327 . S
C1000 H994 0.950 . S
C1000 C999 1.327 . S
C1000 C1004 1.429 . S
C1001 C984 1.574 1_565 S
C1001 H995 0.949 . S
C1001 C1005 1.368 . S
C1002 C983 1.429 . S
C1002 C996 1.429 . S
C1002 C1003 1.523 . S
C1003 C984 1.368 . S
C1003 C997 1.368 . S
C1003 C1002 1.523 . S
C1004 C988 1.429 . S
C1004 C1000 1.429 . S
C1004 C1005 1.523 . S
C1005 C989 1.368 . S
C1005 C1001 1.368 . S
C1005 C1004 1.523 . S
H1006 C981 0.950 . S
H1007 C983 0.950 . S
H1008 C984 0.949 . S
H1009 C986 0.950 . S
H1010 C988 0.950 . S
C1011 C1012 1.349 . S
C1011 C1013 1.327 . S
C1011 H1036 0.950 . S
C1012 C1011 1.349 . S
C1012 C1028 1.349 . S
C1013 C1011 1.327 . S
C1013 C1032 1.429 . S
C1013 H1037 0.950 . S
C1014 C1031 1.574 1_655 S
C1014 C1033 1.368 . S
C1014 H1038 0.949 . S
H1015 C1019 0.949 . S
C1016 C1017 1.349 . S
C1016 C1018 1.327 . S
C1016 H1039 0.950 . S
C1017 C1016 1.349 . S
C1017 C1029 1.349 . S
C1018 C1016 1.327 . S
C1018 C1034 1.429 . S
C1018 H1040 0.950 . S
C1019 H1015 0.949 . S
C1019 C1027 1.574 1_455 S
C1019 C1035 1.368 . S
H1020 C1028 0.950 . S
H1021 C1026 0.950 . S
H1022 C1027 0.949 . S
H1023 C1029 0.950 . S
H1024 C1030 0.950 . S
H1025 C1031 0.949 . S
C1026 H1021 0.950 . S
C1026 C1028 1.327 . S
C1026 C1032 1.429 . S
C1027 C1019 1.574 1_655 S
C1027 H1022 0.949 . S
C1027 C1033 1.368 . S
C1028 C1012 1.349 . S
C1028 H1020 0.950 . S
C1028 C1026 1.327 . S
C1029 C1017 1.349 . S
C1029 H1023 0.950 . S
C1029 C1030 1.327 . S
C1030 H1024 0.950 . S
C1030 C1029 1.327 . S
C1030 C1034 1.429 . S
C1031 C1014 1.574 1_455 S
C1031 H1025 0.949 . S
C1031 C1035 1.368 . S
C1032 C1013 1.429 . S
C1032 C1026 1.429 . S
C1032 C1033 1.523 . S
C1033 C1014 1.368 . S
C1033 C1027 1.368 . S
C1033 C1032 1.523 . S
C1034 C1018 1.429 . S
C1034 C1030 1.429 . S
C1034 C1035 1.523 . S
C1035 C1019 1.368 . S
C1035 C1031 1.368 . S
C1035 C1034 1.523 . S
H1036 C1011 0.950 . S
H1037 C1013 0.950 . S
H1038 C1014 0.949 . S
H1039 C1016 0.950 . S
H1040 C1018 0.950 . S
C1041 C1042 1.349 . S
C1041 C1043 1.327 . S
C1041 H1066 0.950 . S
C1042 C1041 1.349 . S
C1042 C1058 1.349 . S
C1043 C1041 1.327 . S
C1043 C1062 1.429 . S
C1043 H1067 0.950 . S
C1044 C1061 1.574 . S
C1044 C1063 1.368 . S
C1044 H1068 0.949 . S
H1045 C1049 0.949 . S
C1046 C1047 1.349 . S
C1046 C1048 1.327 . S
C1046 H1069 0.950 . S
C1047 C1046 1.349 . S
C1047 C1059 1.349 . S
C1048 C1046 1.327 . S
C1048 C1064 1.429 . S
C1048 H1070 0.950 . S
C1049 H1045 0.949 . S
C1049 C1057 1.574 . S
C1049 C1065 1.368 . S
H1050 C1058 0.950 . S
H1051 C1056 0.950 . S
H1052 C1057 0.949 . S
H1053 C1059 0.950 . S
H1054 C1060 0.950 . S
H1055 C1061 0.949 . S
C1056 H1051 0.950 . S
C1056 C1058 1.327 . S
C1056 C1062 1.429 . S
C1057 C1049 1.574 . S
C1057 H1052 0.949 . S
C1057 C1063 1.368 . S
C1058 C1042 1.349 . S
C1058 H1050 0.950 . S
C1058 C1056 1.327 . S
C1059 C1047 1.349 . S
C1059 H1053 0.950 . S
C1059 C1060 1.327 . S
C1060 H1054 0.950 . S
C1060 C1059 1.327 . S
C1060 C1064 1.429 . S
C1061 C1044 1.574 . S
C1061 H1055 0.949 . S
C1061 C1065 1.368 . S
C1062 C1043 1.429 . S
C1062 C1056 1.429 . S
C1062 C1063 1.523 . S
C1063 C1044 1.368 . S
C1063 C1057 1.368 . S
C1063 C1062 1.523 . S
C1064 C1048 1.429 . S
C1064 C1060 1.429 . S
C1064 C1065 1.523 . S
C1065 C1049 1.368 . S
C1065 C1061 1.368 . S
C1065 C1064 1.523 . S
H1066 C1041 0.950 . S
H1067 C1043 0.950 . S
H1068 C1044 0.949 . S
H1069 C1046 0.950 . S
H1070 C1048 0.950 . S
C1071 C1072 1.349 . S
C1071 C1073 1.327 . S
C1071 H1096 0.950 . S
C1072 C1071 1.349 . S
C1072 C1088 1.349 . S
C1073 C1071 1.327 . S
C1073 C1092 1.429 . S
C1073 H1097 0.950 . S
C1074 C1091 1.574 . S
C1074 C1093 1.368 . S
C1074 H1098 0.949 . S
H1075 C1079 0.949 . S
C1076 C1077 1.349 . S
C1076 C1078 1.327 . S
C1076 H1099 0.950 . S
C1077 C1076 1.349 . S
C1077 C1089 1.349 . S
C1078 C1076 1.327 . S
C1078 C1094 1.429 . S
C1078 H1100 0.950 . S
C1079 H1075 0.949 . S
C1079 C1087 1.574 . S
C1079 C1095 1.368 . S
H1080 C1088 0.950 . S
H1081 C1086 0.950 . S
H1082 C1087 0.949 . S
H1083 C1089 0.950 . S
H1084 C1090 0.950 . S
H1085 C1091 0.949 . S
C1086 H1081 0.950 . S
C1086 C1088 1.327 . S
C1086 C1092 1.429 . S
C1087 C1079 1.574 . S
C1087 H1082 0.949 . S
C1087 C1093 1.368 . S
C1088 C1072 1.349 . S
C1088 H1080 0.950 . S
C1088 C1086 1.327 . S
C1089 C1077 1.349 . S
C1089 H1083 0.950 . S
C1089 C1090 1.327 . S
C1090 H1084 0.950 . S
C1090 C1089 1.327 . S
C1090 C1094 1.429 . S
C1091 C1074 1.574 . S
C1091 H1085 0.949 . S
C1091 C1095 1.368 . S
C1092 C1073 1.429 . S
C1092 C1086 1.429 . S
C1092 C1093 1.523 . S
C1093 C1074 1.368 . S
C1093 C1087 1.368 . S
C1093 C1092 1.523 . S
C1094 C1078 1.429 . S
C1094 C1090 1.429 . S
C1094 C1095 1.523 . S
C1095 C1079 1.368 . S
C1095 C1091 1.368 . S
C1095 C1094 1.523 . S
H1096 C1071 0.950 . S
H1097 C1073 0.950 . S
H1098 C1074 0.949 . S
H1099 C1076 0.950 . S
H1100 C1078 0.950 . S
C1101 C1102 1.349 . S
C1101 C1103 1.327 . S
C1101 H1126 0.950 . S
C1102 C1101 1.349 . S
C1102 C1118 1.349 . S
C1103 C1101 1.327 . S
C1103 C1122 1.429 . S
C1103 H1127 0.950 . S
C1104 C1121 1.574 . S
C1104 C1123 1.368 . S
C1104 H1128 0.949 . S
H1105 C1109 0.949 . S
C1106 C1107 1.349 . S
C1106 C1108 1.327 . S
C1106 H1129 0.950 . S
C1107 C1106 1.349 . S
C1107 C1119 1.349 . S
C1108 C1106 1.327 . S
C1108 C1124 1.429 . S
C1108 H1130 0.950 . S
C1109 H1105 0.949 . S
C1109 C1117 1.574 . S
C1109 C1125 1.368 . S
H1110 C1118 0.950 . S
H1111 C1116 0.950 . S
H1112 C1117 0.949 . S
H1113 C1119 0.950 . S
H1114 C1120 0.950 . S
H1115 C1121 0.949 . S
C1116 H1111 0.950 . S
C1116 C1118 1.327 . S
C1116 C1122 1.429 . S
C1117 C1109 1.574 . S
C1117 H1112 0.949 . S
C1117 C1123 1.368 . S
C1118 C1102 1.349 . S
C1118 H1110 0.950 . S
C1118 C1116 1.327 . S
C1119 C1107 1.349 . S
C1119 H1113 0.950 . S
C1119 C1120 1.327 . S
C1120 H1114 0.950 . S
C1120 C1119 1.327 . S
C1120 C1124 1.429 . S
C1121 C1104 1.574 . S
C1121 H1115 0.949 . S
C1121 C1125 1.368 . S
C1122 C1103 1.429 . S
C1122 C1116 1.429 . S
C1122 C1123 1.523 . S
C1123 C1104 1.368 . S
C1123 C1117 1.368 . S
C1123 C1122 1.523 . S
C1124 C1108 1.429 . S
C1124 C1120 1.429 . S
C1124 C1125 1.523 . S
C1125 C1109 1.368 . S
C1125 C1121 1.368 . S
C1125 C1124 1.523 . S
H1126 C1101 0.950 . S
H1127 C1103 0.950 . S
H1128 C1104 0.949 . S
H1129 C1106 0.950 . S
H1130 C1108 0.950 . S
C1131 C1132 1.349 . S
C1131 C1133 1.327 . S
C1131 H1156 0.950 . S
C1132 C1131 1.349 . S
C1132 C1148 1.349 . S
C1133 C1131 1.327 . S
C1133 C1152 1.429 . S
C1133 H1157 0.950 . S
C1134 C1151 1.574 . S
C1134 C1153 1.368 . S
C1134 H1158 0.949 . S
H1135 C1139 0.949 . S
C1136 C1137 1.349 . S
C1136 C1138 1.327 . S
C1136 H1159 0.950 . S
C1137 C1136 1.349 . S
C1137 C1149 1.349 . S
C1138 C1136 1.327 . S
C1138 C1154 1.429 . S
C1138 H1160 0.950 . S
C1139 H1135 0.949 . S
C1139 C1147 1.574 . S
C1139 C1155 1.368 . S
H1140 C1148 0.950 . S
H1141 C1146 0.950 . S
H1142 C1147 0.949 . S
H1143 C1149 0.950 . S
H1144 C1150 0.950 . S
H1145 C1151 0.949 . S
C1146 H1141 0.950 . S
C1146 C1148 1.327 . S
C1146 C1152 1.429 . S
C1147 C1139 1.574 . S
C1147 H1142 0.949 . S
C1147 C1153 1.368 . S
C1148 C1132 1.349 . S
C1148 H1140 0.950 . S
C1148 C1146 1.327 . S
C1149 C1137 1.349 . S
C1149 H1143 0.950 . S
C1149 C1150 1.327 . S
C1150 H1144 0.950 . S
C1150 C1149 1.327 . S
C1150 C1154 1.429 . S
C1151 C1134 1.574 . S
C1151 H1145 0.949 . S
C1151 C1155 1.368 . S
C1152 C1133 1.429 . S
C1152 C1146 1.429 . S
C1152 C1153 1.523 . S
C1153 C1134 1.368 . S
C1153 C1147 1.368 . S
C1153 C1152 1.523 . S
C1154 C1138 1.429 . S
C1154 C1150 1.429 . S
C1154 C1155 1.523 . S
C1155 C1139 1.368 . S
C1155 C1151 1.368 . S
C1155 C1154 1.523 . S
H1156 C1131 0.950 . S
H1157 C1133 0.950 . S
H1158 C1134 0.949 . S
H1159 C1136 0.950 . S
H1160 C1138 0.950 . S
C1161 C1162 1.349 . S
C1161 C1163 1.327 . S
C1161 H1186 0.950 . S
C1162 C1161 1.349 . S
C1162 C1178 1.349 . S
C1163 C1161 1.327 . S
C1163 C1182 1.429 . S
C1163 H1187 0.950 . S
C1164 C1181 1.574 1_565 S
C1164 C1183 1.368 . S
C1164 H1188 0.949 . S
H1165 C1169 0.949 . S
C1166 C1167 1.349 . S
C1166 C1168 1.327 . S
C1166 H1189 0.950 . S
C1167 C1166 1.349 . S
C1167 C1179 1.349 . S
C1168 C1166 1.327 . S
C1168 C1184 1.429 . S
C1168 H1190 0.950 . S
C1169 H1165 0.949 . S
C1169 C1177 1.574 1_545 S
C1169 C1185 1.368 . S
H1170 C1178 0.950 . S
H1171 C1176 0.950 . S
H1172 C1177 0.949 . S
H1173 C1179 0.950 . S
H1174 C1180 0.950 . S
H1175 C1181 0.949 . S
C1176 H1171 0.950 . S
C1176 C1178 1.327 . S
C1176 C1182 1.429 . S
C1177 C1169 1.574 1_565 S
C1177 H1172 0.949 . S
C1177 C1183 1.368 . S
C1178 C1162 1.349 . S
C1178 H1170 0.950 . S
C1178 C1176 1.327 . S
C1179 C1167 1.349 . S
C1179 H1173 0.950 . S
C1179 C1180 1.327 . S
C1180 H1174 0.950 . S
C1180 C1179 1.327 . S
C1180 C1184 1.429 . S
C1181 C1164 1.574 1_545 S
C1181 H1175 0.949 . S
C1181 C1185 1.368 . S
C1182 C1163 1.429 . S
C1182 C1176 1.429 . S
C1182 C1183 1.523 . S
C1183 C1164 1.368 . S
C1183 C1177 1.368 . S
C1183 C1182 1.523 . S
C1184 C1168 1.429 . S
C1184 C1180 1.429 . S
C1184 C1185 1.523 . S
C1185 C1169 1.368 . S
C1185 C1181 1.368 . S
C1185 C1184 1.523 . S
H1186 C1161 0.950 . S
H1187 C1163 0.950 . S
H1188 C1164 0.949 . S
H1189 C1166 0.950 . S
H1190 C1168 0.950 . S
C1191 C1192 1.349 . S
C1191 C1193 1.327 . S
C1191 H1216 0.950 . S
C1192 C1191 1.349 . S
C1192 C1208 1.349 . S
C1193 C1191 1.327 . S
C1193 C1212 1.429 . S
C1193 H1217 0.950 . S
C1194 C1211 1.574 1_455 S
C1194 C1213 1.368 . S
C1194 H1218 0.949 . S
H1195 C1199 0.949 . S
C1196 C1197 1.349 . S
C1196 C1198 1.327 . S
C1196 H1219 0.950 . S
C1197 C1196 1.349 . S
C1197 C1209 1.349 . S
C1198 C1196 1.327 . S
C1198 C1214 1.429 . S
C1198 H1220 0.950 . S
C1199 H1195 0.949 . S
C1199 C1207 1.574 1_655 S
C1199 C1215 1.368 . S
H1200 C1208 0.950 . S
H1201 C1206 0.950 . S
H1202 C1207 0.949 . S
H1203 C1209 0.950 . S
H1204 C1210 0.950 . S
H1205 C1211 0.949 . S
C1206 H1201 0.950 . S
C1206 C1208 1.327 . S
C1206 C1212 1.429 . S
C1207 C1199 1.574 1_455 S
C1207 H1202 0.949 . S
C1207 C1213 1.368 . S
C1208 C1192 1.349 . S
C1208 H1200 0.950 . S
C1208 C1206 1.327 . S
C1209 C1197 1.349 . S
C1209 H1203 0.950 . S
C1209 C1210 1.327 . S
C1210 H1204 0.950 . S
C1210 C1209 1.327 . S
C1210 C1214 1.429 . S
C1211 C1194 1.574 1_655 S
C1211 H1205 0.949 . S
C1211 C1215 1.368 . S
C1212 C1193 1.429 . S
C1212 C1206 1.429 . S
C1212 C1213 1.523 . S
C1213 C1194 1.368 . S
C1213 C1207 1.368 . S
C1213 C1212 1.523 . S
C1214 C1198 1.429 . S
C1214 C1210 1.429 . S
C1214 C1215 1.523 . S
C1215 C1199 1.368 . S
C1215 C1211 1.368 . S
C1215 C1214 1.523 . S
H1216 C1191 0.950 . S
H1217 C1193 0.950 . S
H1218 C1194 0.949 . S
H1219 C1196 0.950 . S
H1220 C1198 0.950 . S
C1221 C1222 1.349 . S
C1221 C1223 1.327 . S
C1221 H1246 0.950 . S
C1222 C1221 1.349 . S
C1222 C1238 1.349 . S
C1223 C1221 1.327 . S
C1223 C1242 1.429 . S
C1223 H1247 0.950 . S
C1224 C1241 1.574 . S
C1224 C1243 1.368 . S
C1224 H1248 0.949 . S
H1225 C1229 0.949 . S
C1226 C1227 1.349 . S
C1226 C1228 1.327 . S
C1226 H1249 0.950 . S
C1227 C1226 1.349 . S
C1227 C1239 1.349 . S
C1228 C1226 1.327 . S
C1228 C1244 1.429 . S
C1228 H1250 0.950 . S
C1229 H1225 0.949 . S
C1229 C1237 1.574 . S
C1229 C1245 1.368 . S
H1230 C1238 0.950 . S
H1231 C1236 0.950 . S
H1232 C1237 0.949 . S
H1233 C1239 0.950 . S
H1234 C1240 0.950 . S
H1235 C1241 0.949 . S
C1236 H1231 0.950 . S
C1236 C1238 1.327 . S
C1236 C1242 1.429 . S
C1237 C1229 1.574 . S
C1237 H1232 0.949 . S
C1237 C1243 1.368 . S
C1238 C1222 1.349 . S
C1238 H1230 0.950 . S
C1238 C1236 1.327 . S
C1239 C1227 1.349 . S
C1239 H1233 0.950 . S
C1239 C1240 1.327 . S
C1240 H1234 0.950 . S
C1240 C1239 1.327 . S
C1240 C1244 1.429 . S
C1241 C1224 1.574 . S
C1241 H1235 0.949 . S
C1241 C1245 1.368 . S
C1242 C1223 1.429 . S
C1242 C1236 1.429 . S
C1242 C1243 1.523 . S
C1243 C1224 1.368 . S
C1243 C1237 1.368 . S
C1243 C1242 1.523 . S
C1244 C1228 1.429 . S
C1244 C1240 1.429 . S
C1244 C1245 1.523 . S
C1245 C1229 1.368 . S
C1245 C1241 1.368 . S
C1245 C1244 1.523 . S
H1246 C1221 0.950 . S
H1247 C1223 0.950 . S
H1248 C1224 0.949 . S
H1249 C1226 0.950 . S
H1250 C1228 0.950 . S
C1251 C1252 1.349 . S
C1251 C1253 1.327 . S
C1251 H1276 0.950 . S
C1252 C1251 1.349 . S
C1252 C1268 1.349 . S
C1253 C1251 1.327 . S
C1253 C1272 1.429 . S
C1253 H1277 0.950 . S
C1254 C1271 1.574 1_455 S
C1254 C1273 1.368 . S
C1254 H1278 0.949 . S
H1255 C1259 0.949 . S
C1256 C1257 1.349 . S
C1256 C1258 1.327 . S
C1256 H1279 0.950 . S
C1257 C1256 1.349 . S
C1257 C1269 1.349 . S
C1258 C1256 1.327 . S
C1258 C1274 1.429 . S
C1258 H1280 0.950 . S
C1259 H1255 0.949 . S
C1259 C1267 1.574 1_655 S
C1259 C1275 1.368 . S
H1260 C1268 0.950 . S
H1261 C1266 0.950 . S
H1262 C1267 0.949 . S
H1263 C1269 0.950 . S
H1264 C1270 0.950 . S
H1265 C1271 0.949 . S
C1266 H1261 0.950 . S
C1266 C1268 1.327 . S
C1266 C1272 1.429 . S
C1267 C1259 1.574 1_455 S
C1267 H1262 0.949 . S
C1267 C1273 1.368 . S
C1268 C1252 1.349 . S
C1268 H1260 0.950 . S
C1268 C1266 1.327 . S
C1269 C1257 1.349 . S
C1269 H1263 0.950 . S
C1269 C1270 1.327 . S
C1270 H1264 0.950 . S
C1270 C1269 1.327 . S
C1270 C1274 1.429 . S
C1271 C1254 1.574 1_655 S
C1271 H1265 0.949 . S
C1271 C1275 1.368 . S
C1272 C1253 1.429 . S
C1272 C1266 1.429 . S
C1272 C1273 1.523 . S
C1273 C1254 1.368 . S
C1273 C1267 1.368 . S
C1273 C1272 1.523 . S
C1274 C1258 1.429 . S
C1274 C1270 1.429 . S
C1274 C1275 1.523 . S
C1275 C1259 1.368 . S
C1275 C1271 1.368 . S
C1275 C1274 1.523 . S
H1276 C1251 0.950 . S
H1277 C1253 0.950 . S
H1278 C1254 0.949 . S
H1279 C1256 0.950 . S
H1280 C1258 0.950 . S
C1281 C1282 1.349 . S
C1281 C1283 1.327 . S
C1281 H1306 0.950 . S
C1282 C1281 1.349 . S
C1282 C1298 1.349 . S
C1283 C1281 1.327 . S
C1283 C1302 1.429 . S
C1283 H1307 0.950 . S
C1284 C1301 1.574 . S
C1284 C1303 1.368 . S
C1284 H1308 0.949 . S
H1285 C1289 0.949 . S
C1286 C1287 1.349 . S
C1286 C1288 1.327 . S
C1286 H1309 0.950 . S
C1287 C1286 1.349 . S
C1287 C1299 1.349 . S
C1288 C1286 1.327 . S
C1288 C1304 1.429 . S
C1288 H1310 0.950 . S
C1289 H1285 0.949 . S
C1289 C1297 1.574 . S
C1289 C1305 1.368 . S
H1290 C1298 0.950 . S
H1291 C1296 0.950 . S
H1292 C1297 0.949 . S
H1293 C1299 0.950 . S
H1294 C1300 0.950 . S
H1295 C1301 0.949 . S
C1296 H1291 0.950 . S
C1296 C1298 1.327 . S
C1296 C1302 1.429 . S
C1297 C1289 1.574 . S
C1297 H1292 0.949 . S
C1297 C1303 1.368 . S
C1298 C1282 1.349 . S
C1298 H1290 0.950 . S
C1298 C1296 1.327 . S
C1299 C1287 1.349 . S
C1299 H1293 0.950 . S
C1299 C1300 1.327 . S
C1300 H1294 0.950 . S
C1300 C1299 1.327 . S
C1300 C1304 1.429 . S
C1301 C1284 1.574 . S
C1301 H1295 0.949 . S
C1301 C1305 1.368 . S
C1302 C1283 1.429 . S
C1302 C1296 1.429 . S
C1302 C1303 1.523 . S
C1303 C1284 1.368 . S
C1303 C1297 1.368 . S
C1303 C1302 1.523 . S
C1304 C1288 1.429 . S
C1304 C1300 1.429 . S
C1304 C1305 1.523 . S
C1305 C1289 1.368 . S
C1305 C1301 1.368 . S
C1305 C1304 1.523 . S
H1306 C1281 0.950 . S
H1307 C1283 0.950 . S
H1308 C1284 0.949 . S
H1309 C1286 0.950 . S
H1310 C1288 0.950 . S
C1311 C1312 1.349 . S
C1311 C1313 1.327 . S
C1311 H1336 0.950 . S
C1312 C1311 1.349 . S
C1312 C1328 1.349 . S
C1313 C1311 1.327 . S
C1313 C1332 1.429 . S
C1313 H1337 0.950 . S
C1314 C1331 1.574 1_565 S
C1314 C1333 1.368 . S
C1314 H1338 0.949 . S
H1315 C1319 0.949 . S
C1316 C1317 1.349 . S
C1316 C1318 1.327 . S
C1316 H1339 0.950 . S
C1317 C1316 1.349 . S
C1317 C1329 1.349 . S
C1318 C1316 1.327 . S
C1318 C1334 1.429 . S
C1318 H1340 0.950 . S
C1319 H1315 0.949 . S
C1319 C1327 1.574 1_545 S
C1319 C1335 1.368 . S
H1320 C1328 0.950 . S
H1321 C1326 0.950 . S
H1322 C1327 0.949 . S
H1323 C1329 0.950 . S
H1324 C1330 0.950 . S
H1325 C1331 0.949 . S
C1326 H1321 0.950 . S
C1326 C1328 1.327 . S
C1326 C1332 1.429 . S
C1327 C1319 1.574 1_565 S
C1327 H1322 0.949 . S
C1327 C1333 1.368 . S
C1328 C1312 1.349 . S
C1328 H1320 0.950 . S
C1328 C1326 1.327 . S
C1329 C1317 1.349 . S
C1329 H1323 0.950 . S
C1329 C1330 1.327 . S
C1330 H1324 0.950 . S
C1330 C1329 1.327 . S
C1330 C1334 1.429 . S
C1331 C1314 1.574 1_545 S
C1331 H1325 0.949 . S
C1331 C1335 1.368 . S
C1332 C1313 1.429 . S
C1332 C1326 1.429 . S
C1332 C1333 1.523 . S
C1333 C1314 1.368 . S
C1333 C1327 1.368 . S
C1333 C1332 1.523 . S
C1334 C1318 1.429 . S
C1334 C1330 1.429 . S
C1334 C1335 1.523 . S
C1335 C1319 1.368 . S
C1335 C1331 1.368 . S
C1335 C1334 1.523 . S
H1336 C1311 0.950 . S
H1337 C1313 0.950 . S
H1338 C1314 0.949 . S
H1339 C1316 0.950 . S
H1340 C1318 0.950 . S
C1341 C1342 1.349 . S
C1341 C1343 1.327 . S
C1341 H1366 0.950 . S
C1342 C1341 1.349 . S
C1342 C1358 1.349 . S
C1343 C1341 1.327 . S
C1343 C1362 1.429 . S
C1343 H1367 0.950 . S
C1344 C1361 1.574 . S
C1344 C1363 1.368 . S
C1344 H1368 0.949 . S
H1345 C1349 0.949 . S
C1346 C1347 1.349 . S
C1346 C1348 1.327 . S
C1346 H1369 0.950 . S
C1347 C1346 1.349 . S
C1347 C1359 1.349 . S
C1348 C1346 1.327 . S
C1348 C1364 1.429 . S
C1348 H1370 0.950 . S
C1349 H1345 0.949 . S
C1349 C1357 1.574 . S
C1349 C1365 1.368 . S
H1350 C1358 0.950 . S
H1351 C1356 0.950 . S
H1352 C1357 0.949 . S
H1353 C1359 0.950 . S
H1354 C1360 0.950 . S
H1355 C1361 0.949 . S
C1356 H1351 0.950 . S
C1356 C1358 1.327 . S
C1356 C1362 1.429 . S
C1357 C1349 1.574 . S
C1357 H1352 0.949 . S
C1357 C1363 1.368 . S
C1358 C1342 1.349 . S
C1358 H1350 0.950 . S
C1358 C1356 1.327 . S
C1359 C1347 1.349 . S
C1359 H1353 0.950 . S
C1359 C1360 1.327 . S
C1360 H1354 0.950 . S
C1360 C1359 1.327 . S
C1360 C1364 1.429 . S
C1361 C1344 1.574 . S
C1361 H1355 0.949 . S
C1361 C1365 1.368 . S
C1362 C1343 1.429 . S
C1362 C1356 1.429 . S
C1362 C1363 1.523 . S
C1363 C1344 1.368 . S
C1363 C1357 1.368 . S
C1363 C1362 1.523 . S
C1364 C1348 1.429 . S
C1364 C1360 1.429 . S
C1364 C1365 1.523 . S
C1365 C1349 1.368 . S
C1365 C1361 1.368 . S
C1365 C1364 1.523 . S
H1366 C1341 0.950 . S
H1367 C1343 0.950 . S
H1368 C1344 0.949 . S
H1369 C1346 0.950 . S
H1370 C1348 0.950 . S
C1371 C1372 1.349 . S
C1371 C1373 1.327 . S
C1371 H1396 0.950 . S
C1372 C1371 1.349 . S
C1372 C1388 1.349 . S
C1373 C1371 1.327 . S
C1373 C1392 1.429 . S
C1373 H1397 0.950 . S
C1374 C1391 1.574 . S
C1374 C1393 1.368 . S
C1374 H1398 0.949 . S
H1375 C1379 0.949 . S
C1376 C1377 1.349 . S
C1376 C1378 1.327 . S
C1376 H1399 0.950 . S
C1377 C1376 1.349 . S
C1377 C1389 1.349 . S
C1378 C1376 1.327 . S
C1378 C1394 1.429 . S
C1378 H1400 0.950 . S
C1379 H1375 0.949 . S
C1379 C1387 1.574 . S
C1379 C1395 1.368 . S
H1380 C1388 0.950 . S
H1381 C1386 0.950 . S
H1382 C1387 0.949 . S
H1383 C1389 0.950 . S
H1384 C1390 0.950 . S
H1385 C1391 0.949 . S
C1386 H1381 0.950 . S
C1386 C1388 1.327 . S
C1386 C1392 1.429 . S
C1387 C1379 1.574 . S
C1387 H1382 0.949 . S
C1387 C1393 1.368 . S
C1388 C1372 1.349 . S
C1388 H1380 0.950 . S
C1388 C1386 1.327 . S
C1389 C1377 1.349 . S
C1389 H1383 0.950 . S
C1389 C1390 1.327 . S
C1390 H1384 0.950 . S
C1390 C1389 1.327 . S
C1390 C1394 1.429 . S
C1391 C1374 1.574 . S
C1391 H1385 0.949 . S
C1391 C1395 1.368 . S
C1392 C1373 1.429 . S
C1392 C1386 1.429 . S
C1392 C1393 1.523 . S
C1393 C1374 1.368 . S
C1393 C1387 1.368 . S
C1393 C1392 1.523 . S
C1394 C1378 1.429 . S
C1394 C1390 1.429 . S
C1394 C1395 1.523 . S
C1395 C1379 1.368 . S
C1395 C1391 1.368 . S
C1395 C1394 1.523 . S
H1396 C1371 0.950 . S
H1397 C1373 0.950 . S
H1398 C1374 0.949 . S
H1399 C1376 0.950 . S
H1400 C1378 0.950 . S
C1401 C1402 1.349 . S
C1401 C1403 1.327 . S
C1401 H1426 0.950 . S
C1402 C1401 1.349 . S
C1402 C1418 1.349 . S
C1403 C1401 1.327 . S
C1403 C1422 1.429 . S
C1403 H1427 0.950 . S
C1404 C1421 1.574 . S
C1404 C1423 1.368 . S
C1404 H1428 0.949 . S
H1405 C1409 0.949 . S
C1406 C1407 1.349 . S
C1406 C1408 1.327 . S
C1406 H1429 0.950 . S
C1407 C1406 1.349 . S
C1407 C1419 1.349 . S
C1408 C1406 1.327 . S
C1408 C1424 1.429 . S
C1408 H1430 0.950 . S
C1409 H1405 0.949 . S
C1409 C1417 1.574 . S
C1409 C1425 1.368 . S
H1410 C1418 0.950 . S
H1411 C1416 0.950 . S
H1412 C1417 0.949 . S
H1413 C1419 0.950 . S
H1414 C1420 0.950 . S
H1415 C1421 0.949 . S
C1416 H1411 0.950 . S
C1416 C1418 1.327 . S
C1416 C1422 1.429 . S
C1417 C1409 1.574 . S
C1417 H1412 0.949 . S
C1417 C1423 1.368 . S
C1418 C1402 1.349 . S
C1418 H1410 0.950 . S
C1418 C1416 1.327 . S
C1419 C1407 1.349 . S
C1419 H1413 0.950 . S
C1419 C1420 1.327 . S
C1420 H1414 0.950 . S
C1420 C1419 1.327 . S
C1420 C1424 1.429 . S
C1421 C1404 1.574 . S
C1421 H1415 0.949 . S
C1421 C1425 1.368 . S
C1422 C1403 1.429 . S
C1422 C1416 1.429 . S
C1422 C1423 1.523 . S
C1423 C1404 1.368 . S
C1423 C1417 1.368 . S
C1423 C1422 1.523 . S
C1424 C1408 1.429 . S
C1424 C1420 1.429 . S
C1424 C1425 1.523 . S
C1425 C1409 1.368 . S
C1425 C1421 1.368 . S
C1425 C1424 1.523 . S
H1426 C1401 0.950 . S
H1427 C1403 0.950 . S
H1428 C1404 0.949 . S
H1429 C1406 0.950 . S
H1430 C1408 0.950 . S
C1431 C1432 1.349 . S
C1431 C1433 1.327 . S
C1431 H1456 0.950 . S
C1432 C1431 1.349 . S
C1432 C1448 1.349 . S
C1433 C1431 1.327 . S
C1433 C1452 1.429 . S
C1433 H1457 0.950 . S
C1434 C1451 1.574 . S
C1434 C1453 1.368 . S
C1434 H1458 0.949 . S
H1435 C1439 0.949 1_545 S
C1436 C1437 1.349 . S
C1436 C1438 1.327 . S
C1436 H1459 0.950 . S
C1437 C1436 1.349 . S
C1437 C1449 1.349 1_565 S
C1438 C1436 1.327 . S
C1438 C1454 1.429 . S
C1438 H1460 0.950 . S
C1439 H1435 0.949 1_565 S
C1439 C1447 1.574 . S
C1439 C1455 1.368 . S
H1440 C1448 0.950 . S
H1441 C1446 0.950 . S
H1442 C1447 0.949 . S
H1443 C1449 0.950 . S
H1444 C1450 0.950 . S
H1445 C1451 0.949 . S
C1446 H1441 0.950 . S
C1446 C1448 1.327 . S
C1446 C1452 1.429 . S
C1447 C1439 1.574 . S
C1447 H1442 0.949 . S
C1447 C1453 1.368 . S
C1448 C1432 1.349 . S
C1448 H1440 0.950 . S
C1448 C1446 1.327 . S
C1449 C1437 1.349 1_545 S
C1449 H1443 0.950 . S
C1449 C1450 1.327 . S
C1450 H1444 0.950 . S
C1450 C1449 1.327 . S
C1450 C1454 1.429 1_545 S
C1451 C1434 1.574 . S
C1451 H1445 0.949 . S
C1451 C1455 1.368 . S
C1452 C1433 1.429 . S
C1452 C1446 1.429 . S
C1452 C1453 1.523 . S
C1453 C1434 1.368 . S
C1453 C1447 1.368 . S
C1453 C1452 1.523 . S
C1454 C1438 1.429 . S
C1454 C1450 1.429 1_565 S
C1454 C1455 1.523 . S
C1455 C1439 1.368 . S
C1455 C1451 1.368 . S
C1455 C1454 1.523 . S
H1456 C1431 0.950 . S
H1457 C1433 0.950 . S
H1458 C1434 0.949 . S
H1459 C1436 0.950 . S
H1460 C1438 0.950 . S
C1461 C1462 1.349 . S
C1461 C1463 1.327 . S
C1461 H1486 0.950 . S
C1462 C1461 1.349 . S
C1462 C1478 1.349 . S
C1463 C1461 1.327 . S
C1463 C1482 1.429 . S
C1463 H1487 0.950 . S
C1464 C1481 1.574 . S
C1464 C1483 1.368 . S
C1464 H1488 0.949 . S
H1465 C1469 0.949 1_655 S
C1466 C1467 1.349 . S
C1466 C1468 1.327 . S
C1466 H1489 0.950 . S
C1467 C1466 1.349 . S
C1467 C1479 1.349 1_455 S
C1468 C1466 1.327 . S
C1468 C1484 1.429 . S
C1468 H1490 0.950 . S
C1469 H1465 0.949 1_455 S
C1469 C1477 1.574 . S
C1469 C1485 1.368 . S
H1470 C1478 0.950 . S
H1471 C1476 0.950 . S
H1472 C1477 0.949 . S
H1473 C1479 0.950 . S
H1474 C1480 0.950 . S
H1475 C1481 0.949 . S
C1476 H1471 0.950 . S
C1476 C1478 1.327 . S
C1476 C1482 1.429 . S
C1477 C1469 1.574 . S
C1477 H1472 0.949 . S
C1477 C1483 1.368 . S
C1478 C1462 1.349 . S
C1478 H1470 0.950 . S
C1478 C1476 1.327 . S
C1479 C1467 1.349 1_655 S
C1479 H1473 0.950 . S
C1479 C1480 1.327 . S
C1480 H1474 0.950 . S
C1480 C1479 1.327 . S
C1480 C1484 1.429 1_655 S
C1481 C1464 1.574 . S
C1481 H1475 0.949 . S
C1481 C1485 1.368 . S
C1482 C1463 1.429 . S
C1482 C1476 1.429 . S
C1482 C1483 1.523 . S
C1483 C1464 1.368 . S
C1483 C1477 1.368 . S
C1483 C1482 1.523 . S
C1484 C1468 1.429 . S
C1484 C1480 1.429 1_455 S
C1484 C1485 1.523 . S
C1485 C1469 1.368 . S
C1485 C1481 1.368 . S
C1485 C1484 1.523 . S
H1486 C1461 0.950 . S
H1487 C1463 0.950 . S
H1488 C1464 0.949 . S
H1489 C1466 0.950 . S
H1490 C1468 0.950 . S
C1491 C1492 1.349 . S
C1491 C1493 1.327 . S
C1491 H1516 0.950 . S
C1492 C1491 1.349 . S
C1492 C1508 1.349 . S
C1493 C1491 1.327 . S
C1493 C1512 1.429 . S
C1493 H1517 0.950 . S
C1494 C1511 1.574 . S
C1494 C1513 1.368 . S
C1494 H1518 0.949 . S
H1495 C1499 0.949 . S
C1496 C1497 1.349 . S
C1496 C1498 1.327 . S
C1496 H1519 0.950 . S
C1497 C1496 1.349 . S
C1497 C1509 1.349 . S
C1498 C1496 1.327 . S
C1498 C1514 1.429 . S
C1498 H1520 0.950 . S
C1499 H1495 0.949 . S
C1499 C1507 1.574 . S
C1499 C1515 1.368 . S
H1500 C1508 0.950 . S
H1501 C1506 0.950 . S
H1502 C1507 0.949 . S
H1503 C1509 0.950 . S
H1504 C1510 0.950 . S
H1505 C1511 0.949 . S
C1506 H1501 0.950 . S
C1506 C1508 1.327 . S
C1506 C1512 1.429 . S
C1507 C1499 1.574 . S
C1507 H1502 0.949 . S
C1507 C1513 1.368 . S
C1508 C1492 1.349 . S
C1508 H1500 0.950 . S
C1508 C1506 1.327 . S
C1509 C1497 1.349 . S
C1509 H1503 0.950 . S
C1509 C1510 1.327 . S
C1510 H1504 0.950 . S
C1510 C1509 1.327 . S
C1510 C1514 1.429 . S
C1511 C1494 1.574 . S
C1511 H1505 0.949 . S
C1511 C1515 1.368 . S
C1512 C1493 1.429 . S
C1512 C1506 1.429 . S
C1512 C1513 1.523 . S
C1513 C1494 1.368 . S
C1513 C1507 1.368 . S
C1513 C1512 1.523 . S
C1514 C1498 1.429 . S
C1514 C1510 1.429 . S
C1514 C1515 1.523 . S
C1515 C1499 1.368 . S
C1515 C1511 1.368 . S
C1515 C1514 1.523 . S
H1516 C1491 0.950 . S
H1517 C1493 0.950 . S
H1518 C1494 0.949 . S
H1519 C1496 0.950 . S
H1520 C1498 0.950 . S
C1521 C1522 1.349 . S
C1521 C1523 1.327 . S
C1521 H1546 0.950 . S
C1522 C1521 1.349 . S
C1522 C1538 1.349 . S
C1523 C1521 1.327 . S
C1523 C1542 1.429 . S
C1523 H1547 0.950 . S
C1524 C1541 1.574 . S
C1524 C1543 1.368 . S
C1524 H1548 0.949 . S
H1525 C1529 0.949 . S
C1526 C1527 1.349 . S
C1526 C1528 1.327 . S
C1526 H1549 0.950 . S
C1527 C1526 1.349 . S
C1527 C1539 1.349 . S
C1528 C1526 1.327 . S
C1528 C1544 1.429 . S
C1528 H1550 0.950 . S
C1529 H1525 0.949 . S
C1529 C1537 1.574 . S
C1529 C1545 1.368 . S
H1530 C1538 0.950 . S
H1531 C1536 0.950 . S
H1532 C1537 0.949 . S
H1533 C1539 0.950 . S
H1534 C1540 0.950 . S
H1535 C1541 0.949 . S
C1536 H1531 0.950 . S
C1536 C1538 1.327 . S
C1536 C1542 1.429 . S
C1537 C1529 1.574 . S
C1537 H1532 0.949 . S
C1537 C1543 1.368 . S
C1538 C1522 1.349 . S
C1538 H1530 0.950 . S
C1538 C1536 1.327 . S
C1539 C1527 1.349 . S
C1539 H1533 0.950 . S
C1539 C1540 1.327 . S
C1540 H1534 0.950 . S
C1540 C1539 1.327 . S
C1540 C1544 1.429 . S
C1541 C1524 1.574 . S
C1541 H1535 0.949 . S
C1541 C1545 1.368 . S
C1542 C1523 1.429 . S
C1542 C1536 1.429 . S
C1542 C1543 1.523 . S
C1543 C1524 1.368 . S
C1543 C1537 1.368 . S
C1543 C1542 1.523 . S
C1544 C1528 1.429 . S
C1544 C1540 1.429 . S
C1544 C1545 1.523 . S
C1545 C1529 1.368 . S
C1545 C1541 1.368 . S
C1545 C1544 1.523 . S
H1546 C1521 0.950 . S
H1547 C1523 0.950 . S
H1548 C1524 0.949 . S
H1549 C1526 0.950 . S
H1550 C1528 0.950 . S
C1551 C1552 1.349 . S
C1551 C1553 1.327 . S
C1551 H1576 0.950 . S
C1552 C1551 1.349 . S
C1552 C1568 1.349 . S
C1553 C1551 1.327 . S
C1553 C1572 1.429 . S
C1553 H1577 0.950 . S
C1554 C1571 1.574 . S
C1554 C1573 1.368 . S
C1554 H1578 0.949 . S
H1555 C1559 0.949 . S
C1556 C1557 1.349 . S
C1556 C1558 1.327 . S
C1556 H1579 0.950 . S
C1557 C1556 1.349 . S
C1557 C1569 1.349 . S
C1558 C1556 1.327 . S
C1558 C1574 1.429 . S
C1558 H1580 0.950 . S
C1559 H1555 0.949 . S
C1559 C1567 1.574 . S
C1559 C1575 1.368 . S
H1560 C1568 0.950 . S
H1561 C1566 0.950 . S
H1562 C1567 0.949 . S
H1563 C1569 0.950 . S
H1564 C1570 0.950 . S
H1565 C1571 0.949 . S
C1566 H1561 0.950 . S
C1566 C1568 1.327 . S
C1566 C1572 1.429 . S
C1567 C1559 1.574 . S
C1567 H1562 0.949 . S
C1567 C1573 1.368 . S
C1568 C1552 1.349 . S
C1568 H1560 0.950 . S
C1568 C1566 1.327 . S
C1569 C1557 1.349 . S
C1569 H1563 0.950 . S
C1569 C1570 1.327 . S
C1570 H1564 0.950 . S
C1570 C1569 1.327 . S
C1570 C1574 1.429 . S
C1571 C1554 1.574 . S
C1571 H1565 0.949 . S
C1571 C1575 1.368 . S
C1572 C1553 1.429 . S
C1572 C1566 1.429 . S
C1572 C1573 1.523 . S
C1573 C1554 1.368 . S
C1573 C1567 1.368 . S
C1573 C1572 1.523 . S
C1574 C1558 1.429 . S
C1574 C1570 1.429 . S
C1574 C1575 1.523 . S
C1575 C1559 1.368 . S
C1575 C1571 1.368 . S
C1575 C1574 1.523 . S
H1576 C1551 0.950 . S
H1577 C1553 0.950 . S
H1578 C1554 0.949 . S
H1579 C1556 0.950 . S
H1580 C1558 0.950 . S
C1581 C1582 1.349 . S
C1581 C1583 1.327 . S
C1581 H1606 0.950 . S
C1582 C1581 1.349 . S
C1582 C1598 1.349 . S
C1583 C1581 1.327 . S
C1583 C1602 1.429 . S
C1583 H1607 0.950 . S
C1584 C1601 1.574 . S
C1584 C1603 1.368 . S
C1584 H1608 0.949 . S
H1585 C1589 0.949 1_565 S
C1586 C1587 1.349 . S
C1586 C1588 1.327 . S
C1586 H1609 0.950 . S
C1587 C1586 1.349 . S
C1587 C1599 1.349 1_545 S
C1588 C1586 1.327 . S
C1588 C1604 1.429 . S
C1588 H1610 0.950 . S
C1589 H1585 0.949 1_545 S
C1589 C1597 1.574 . S
C1589 C1605 1.368 . S
H1590 C1598 0.950 . S
H1591 C1596 0.950 . S
H1592 C1597 0.949 . S
H1593 C1599 0.950 . S
H1594 C1600 0.956 . S
H1595 C1601 0.949 . S
C1596 H1591 0.950 . S
C1596 C1598 1.327 . S
C1596 C1602 1.429 . S
C1597 C1589 1.574 . S
C1597 H1592 0.949 . S
C1597 C1603 1.368 . S
C1598 C1582 1.349 . S
C1598 H1590 0.950 . S
C1598 C1596 1.327 . S
C1599 C1587 1.349 1_565 S
C1599 H1593 0.950 . S
C1599 C1600 1.329 . S
C1600 H1594 0.956 . S
C1600 C1599 1.329 . S
C1600 C1604 1.421 1_565 S
C1601 C1584 1.574 . S
C1601 H1595 0.949 . S
C1601 C1605 1.368 . S
C1602 C1583 1.429 . S
C1602 C1596 1.429 . S
C1602 C1603 1.523 . S
C1603 C1584 1.368 . S
C1603 C1597 1.368 . S
C1603 C1602 1.523 . S
C1604 C1588 1.429 . S
C1604 C1600 1.421 1_545 S
C1604 C1605 1.523 . S
C1605 C1589 1.368 . S
C1605 C1601 1.368 . S
C1605 C1604 1.523 . S
H1606 C1581 0.950 . S
H1607 C1583 0.950 . S
H1608 C1584 0.949 . S
H1609 C1586 0.950 . S
H1610 C1588 0.950 . S
C1611 C1612 1.349 . S
C1611 C1613 1.327 . S
C1611 H1636 0.950 . S
C1612 C1611 1.349 . S
C1612 C1628 1.349 . S
C1613 C1611 1.327 . S
C1613 C1632 1.429 . S
C1613 H1637 0.950 . S
C1614 C1631 1.574 . S
C1614 C1633 1.368 . S
C1614 H1638 0.949 . S
H1615 C1619 0.949 . S
C1616 C1617 1.349 . S
C1616 C1618 1.327 . S
C1616 H1639 0.950 . S
C1617 C1616 1.349 . S
C1617 C1629 1.349 . S
C1618 C1616 1.327 . S
C1618 C1634 1.429 . S
C1618 H1640 0.950 . S
C1619 H1615 0.949 . S
C1619 C1627 1.574 . S
C1619 C1635 1.368 . S
H1620 C1628 0.950 . S
H1621 C1626 0.950 . S
H1622 C1627 0.949 . S
H1623 C1629 0.950 . S
H1624 C1630 0.950 . S
H1625 C1631 0.949 . S
C1626 H1621 0.950 . S
C1626 C1628 1.327 . S
C1626 C1632 1.429 . S
C1627 C1619 1.574 . S
C1627 H1622 0.949 . S
C1627 C1633 1.368 . S
C1628 C1612 1.349 . S
C1628 H1620 0.950 . S
C1628 C1626 1.327 . S
C1629 C1617 1.349 . S
C1629 H1623 0.950 . S
C1629 C1630 1.327 . S
C1630 H1624 0.950 . S
C1630 C1629 1.327 . S
C1630 C1634 1.429 . S
C1631 C1614 1.574 . S
C1631 H1625 0.949 . S
C1631 C1635 1.368 . S
C1632 C1613 1.429 . S
C1632 C1626 1.429 . S
C1632 C1633 1.523 . S
C1633 C1614 1.368 . S
C1633 C1627 1.368 . S
C1633 C1632 1.523 . S
C1634 C1618 1.429 . S
C1634 C1630 1.429 . S
C1634 C1635 1.523 . S
C1635 C1619 1.368 . S
C1635 C1631 1.368 . S
C1635 C1634 1.523 . S
H1636 C1611 0.950 . S
H1637 C1613 0.950 . S
H1638 C1614 0.949 . S
H1639 C1616 0.950 . S
H1640 C1618 0.950 . S
C1641 C1642 1.349 . S
C1641 C1643 1.327 . S
C1641 H1666 0.950 . S
C1642 C1641 1.349 . S
C1642 C1658 1.349 . S
C1643 C1641 1.327 . S
C1643 C1662 1.429 . S
C1643 H1667 0.950 . S
C1644 C1661 1.574 . S
C1644 C1663 1.368 . S
C1644 H1668 0.949 . S
H1645 C1649 0.949 . S
C1646 C1647 1.349 . S
C1646 C1648 1.327 . S
C1646 H1669 0.950 . S
C1647 C1646 1.349 . S
C1647 C1659 1.349 . S
C1648 C1646 1.327 . S
C1648 C1664 1.429 . S
C1648 H1670 0.950 . S
C1649 H1645 0.949 . S
C1649 C1657 1.574 . S
C1649 C1665 1.368 . S
H1650 C1658 0.950 . S
H1651 C1656 0.950 . S
H1652 C1657 0.949 . S
H1653 C1659 0.950 . S
H1654 C1660 0.950 . S
H1655 C1661 0.949 . S
C1656 H1651 0.950 . S
C1656 C1658 1.327 . S
C1656 C1662 1.429 . S
C1657 C1649 1.574 . S
C1657 H1652 0.949 . S
C1657 C1663 1.368 . S
C1658 C1642 1.349 . S
C1658 H1650 0.950 . S
C1658 C1656 1.327 . S
C1659 C1647 1.349 . S
C1659 H1653 0.950 . S
C1659 C1660 1.327 . S
C1660 H1654 0.950 . S
C1660 C1659 1.327 . S
C1660 C1664 1.429 . S
C1661 C1644 1.574 . S
C1661 H1655 0.949 . S
C1661 C1665 1.368 . S
C1662 C1643 1.429 . S
C1662 C1656 1.429 . S
C1662 C1663 1.523 . S
C1663 C1644 1.368 . S
C1663 C1657 1.368 . S
C1663 C1662 1.523 . S
C1664 C1648 1.429 . S
C1664 C1660 1.429 . S
C1664 C1665 1.523 . S
C1665 C1649 1.368 . S
C1665 C1661 1.368 . S
C1665 C1664 1.523 . S
H1666 C1641 0.950 . S
H1667 C1643 0.950 . S
H1668 C1644 0.949 . S
H1669 C1646 0.950 . S
H1670 C1648 0.950 . S
C1671 C1672 1.349 . S
C1671 C1673 1.327 . S
C1671 H1696 0.950 . S
C1672 C1671 1.349 . S
C1672 C1688 1.349 . S
C1673 C1671 1.327 . S
C1673 C1692 1.429 . S
C1673 H1697 0.950 . S
C1674 C1691 1.574 . S
C1674 C1693 1.368 . S
C1674 H1698 0.949 . S
H1675 C1679 0.949 . S
C1676 C1677 1.349 . S
C1676 C1678 1.327 . S
C1676 H1699 0.950 . S
C1677 C1676 1.349 . S
C1677 C1689 1.349 . S
C1678 C1676 1.327 . S
C1678 C1694 1.429 . S
C1678 H1700 0.950 . S
C1679 H1675 0.949 . S
C1679 C1687 1.574 . S
C1679 C1695 1.368 . S
H1680 C1688 0.950 . S
H1681 C1686 0.950 . S
H1682 C1687 0.949 . S
H1683 C1689 0.950 . S
H1684 C1690 0.950 . S
H1685 C1691 0.949 . S
C1686 H1681 0.950 . S
C1686 C1688 1.327 . S
C1686 C1692 1.429 . S
C1687 C1679 1.574 . S
C1687 H1682 0.949 . S
C1687 C1693 1.368 . S
C1688 C1672 1.349 . S
C1688 H1680 0.950 . S
C1688 C1686 1.327 . S
C1689 C1677 1.349 . S
C1689 H1683 0.950 . S
C1689 C1690 1.327 . S
C1690 H1684 0.950 . S
C1690 C1689 1.327 . S
C1690 C1694 1.429 . S
C1691 C1674 1.574 . S
C1691 H1685 0.949 . S
C1691 C1695 1.368 . S
C1692 C1673 1.429 . S
C1692 C1686 1.429 . S
C1692 C1693 1.523 . S
C1693 C1674 1.368 . S
C1693 C1687 1.368 . S
C1693 C1692 1.523 . S
C1694 C1678 1.429 . S
C1694 C1690 1.429 . S
C1694 C1695 1.523 . S
C1695 C1679 1.368 . S
C1695 C1691 1.368 . S
C1695 C1694 1.523 . S
H1696 C1671 0.950 . S
H1697 C1673 0.950 . S
H1698 C1674 0.949 . S
H1699 C1676 0.950 . S
H1700 C1678 0.950 . S
C1701 C1702 1.349 . S
C1701 C1703 1.327 . S
C1701 H1726 0.950 . S
C1702 C1701 1.349 . S
C1702 C1718 1.349 . S
C1703 C1701 1.327 . S
C1703 C1722 1.429 . S
C1703 H1727 0.950 . S
C1704 C1721 1.574 . S
C1704 C1723 1.368 . S
C1704 H1728 0.949 . S
H1705 C1709 0.949 . S
C1706 C1707 1.349 . S
C1706 C1708 1.327 . S
C1706 H1729 0.950 . S
C1707 C1706 1.349 . S
C1707 C1719 1.349 . S
C1708 C1706 1.327 . S
C1708 C1724 1.429 . S
C1708 H1730 0.950 . S
C1709 H1705 0.949 . S
C1709 C1717 1.574 . S
C1709 C1725 1.368 . S
H1710 C1718 0.950 . S
H1711 C1716 0.950 . S
H1712 C1717 0.949 . S
H1713 C1719 0.950 . S
H1714 C1720 0.950 . S
H1715 C1721 0.949 . S
C1716 H1711 0.950 . S
C1716 C1718 1.327 . S
C1716 C1722 1.429 . S
C1717 C1709 1.574 . S
C1717 H1712 0.949 . S
C1717 C1723 1.368 . S
C1718 C1702 1.349 . S
C1718 H1710 0.950 . S
C1718 C1716 1.327 . S
C1719 C1707 1.349 . S
C1719 H1713 0.950 . S
C1719 C1720 1.327 . S
C1720 H1714 0.950 . S
C1720 C1719 1.327 . S
C1720 C1724 1.429 . S
C1721 C1704 1.574 . S
C1721 H1715 0.949 . S
C1721 C1725 1.368 . S
C1722 C1703 1.429 . S
C1722 C1716 1.429 . S
C1722 C1723 1.523 . S
C1723 C1704 1.368 . S
C1723 C1717 1.368 . S
C1723 C1722 1.523 . S
C1724 C1708 1.429 . S
C1724 C1720 1.429 . S
C1724 C1725 1.523 . S
C1725 C1709 1.368 . S
C1725 C1721 1.368 . S
C1725 C1724 1.523 . S
H1726 C1701 0.950 . S
H1727 C1703 0.950 . S
H1728 C1704 0.949 . S
H1729 C1706 0.950 . S
H1730 C1708 0.950 . S
C1731 C1732 1.349 . S
C1731 C1733 1.327 . S
C1731 H1756 0.950 . S
C1732 C1731 1.349 . S
C1732 C1748 1.349 . S
C1733 C1731 1.327 . S
C1733 C1752 1.429 . S
C1733 H1757 0.950 . S
C1734 C1751 1.574 . S
C1734 C1753 1.368 . S
C1734 H1758 0.949 . S
H1735 C1739 0.949 . S
C1736 C1737 1.349 . S
C1736 C1738 1.327 . S
C1736 H1759 0.950 . S
C1737 C1736 1.349 . S
C1737 C1749 1.349 . S
C1738 C1736 1.327 . S
C1738 C1754 1.429 . S
C1738 H1760 0.950 . S
C1739 H1735 0.949 . S
C1739 C1747 1.574 . S
C1739 C1755 1.368 . S
H1740 C1748 0.950 . S
H1741 C1746 0.950 . S
H1742 C1747 0.949 . S
H1743 C1749 0.950 . S
H1744 C1750 0.950 . S
H1745 C1751 0.949 . S
C1746 H1741 0.950 . S
C1746 C1748 1.327 . S
C1746 C1752 1.429 . S
C1747 C1739 1.574 . S
C1747 H1742 0.949 . S
C1747 C1753 1.368 . S
C1748 C1732 1.349 . S
C1748 H1740 0.950 . S
C1748 C1746 1.327 . S
C1749 C1737 1.349 . S
C1749 H1743 0.950 . S
C1749 C1750 1.327 . S
C1750 H1744 0.950 . S
C1750 C1749 1.327 . S
C1750 C1754 1.429 . S
C1751 C1734 1.574 . S
C1751 H1745 0.949 . S
C1751 C1755 1.368 . S
C1752 C1733 1.429 . S
C1752 C1746 1.429 . S
C1752 C1753 1.523 . S
C1753 C1734 1.368 . S
C1753 C1747 1.368 . S
C1753 C1752 1.523 . S
C1754 C1738 1.429 . S
C1754 C1750 1.429 . S
C1754 C1755 1.523 . S
C1755 C1739 1.368 . S
C1755 C1751 1.368 . S
C1755 C1754 1.523 . S
H1756 C1731 0.950 . S
H1757 C1733 0.950 . S
H1758 C1734 0.949 . S
H1759 C1736 0.950 . S
H1760 C1738 0.950 . S
C1761 C1762 1.349 . S
C1761 C1763 1.327 . S
C1761 H1786 0.950 . S
C1762 C1761 1.349 . S
C1762 C1778 1.349 . S
C1763 C1761 1.327 . S
C1763 C1782 1.429 . S
C1763 H1787 0.950 . S
C1764 C1781 1.574 . S
C1764 C1783 1.368 . S
C1764 H1788 0.949 . S
H1765 C1769 0.949 . S
C1766 C1767 1.349 . S
C1766 C1768 1.327 . S
C1766 H1789 0.950 . S
C1767 C1766 1.349 . S
C1767 C1779 1.349 . S
C1768 C1766 1.327 . S
C1768 C1784 1.429 . S
C1768 H1790 0.950 . S
C1769 H1765 0.949 . S
C1769 C1777 1.574 . S
C1769 C1785 1.368 . S
H1770 C1778 0.950 . S
H1771 C1776 0.950 . S
H1772 C1777 0.949 . S
H1773 C1779 0.950 . S
H1774 C1780 0.950 . S
H1775 C1781 0.949 . S
C1776 H1771 0.950 . S
C1776 C1778 1.327 . S
C1776 C1782 1.429 . S
C1777 C1769 1.574 . S
C1777 H1772 0.949 . S
C1777 C1783 1.368 . S
C1778 C1762 1.349 . S
C1778 H1770 0.950 . S
C1778 C1776 1.327 . S
C1779 C1767 1.349 . S
C1779 H1773 0.950 . S
C1779 C1780 1.327 . S
C1780 H1774 0.950 . S
C1780 C1779 1.327 . S
C1780 C1784 1.429 . S
C1781 C1764 1.574 . S
C1781 H1775 0.949 . S
C1781 C1785 1.368 . S
C1782 C1763 1.429 . S
C1782 C1776 1.429 . S
C1782 C1783 1.523 . S
C1783 C1764 1.368 . S
C1783 C1777 1.368 . S
C1783 C1782 1.523 . S
C1784 C1768 1.429 . S
C1784 C1780 1.429 . S
C1784 C1785 1.523 . S
C1785 C1769 1.368 . S
C1785 C1781 1.368 . S
C1785 C1784 1.523 . S
H1786 C1761 0.950 . S
H1787 C1763 0.950 . S
H1788 C1764 0.949 . S
H1789 C1766 0.950 . S
H1790 C1768 0.950 . S
C1791 C1792 1.349 . S
C1791 C1793 1.327 . S
C1791 H1816 0.950 . S
C1792 C1791 1.349 . S
C1792 C1808 1.349 . S
C1793 C1791 1.327 . S
C1793 C1812 1.429 . S
C1793 H1817 0.950 . S
C1794 C1811 1.574 . S
C1794 C1813 1.368 . S
C1794 H1818 0.949 . S
H1795 C1799 0.949 . S
C1796 C1797 1.349 . S
C1796 C1798 1.327 . S
C1796 H1819 0.950 . S
C1797 C1796 1.349 . S
C1797 C1809 1.349 . S
C1798 C1796 1.327 . S
C1798 C1814 1.429 . S
C1798 H1820 0.950 . S
C1799 H1795 0.949 . S
C1799 C1807 1.574 . S
C1799 C1815 1.368 . S
H1800 C1808 0.950 . S
H1801 C1806 0.950 . S
H1802 C1807 0.949 . S
H1803 C1809 0.950 . S
H1804 C1810 0.950 . S
H1805 C1811 0.949 . S
C1806 H1801 0.950 . S
C1806 C1808 1.327 . S
C1806 C1812 1.429 . S
C1807 C1799 1.574 . S
C1807 H1802 0.949 . S
C1807 C1813 1.368 . S
C1808 C1792 1.349 . S
C1808 H1800 0.950 . S
C1808 C1806 1.327 . S
C1809 C1797 1.349 . S
C1809 H1803 0.950 . S
C1809 C1810 1.327 . S
C1810 H1804 0.950 . S
C1810 C1809 1.327 . S
C1810 C1814 1.429 . S
C1811 C1794 1.574 . S
C1811 H1805 0.949 . S
C1811 C1815 1.368 . S
C1812 C1793 1.429 . S
C1812 C1806 1.429 . S
C1812 C1813 1.523 . S
C1813 C1794 1.368 . S
C1813 C1807 1.368 . S
C1813 C1812 1.523 . S
C1814 C1798 1.429 . S
C1814 C1810 1.429 . S
C1814 C1815 1.523 . S
C1815 C1799 1.368 . S
C1815 C1811 1.368 . S
C1815 C1814 1.523 . S
H1816 C1791 0.950 . S
H1817 C1793 0.950 . S
H1818 C1794 0.949 . S
H1819 C1796 0.950 . S
H1820 C1798 0.950 . S
C1821 C1822 1.349 . S
C1821 C1823 1.327 . S
C1821 H1846 0.950 . S
C1822 C1821 1.349 . S
C1822 C1838 1.349 . S
C1823 C1821 1.327 . S
C1823 C1842 1.429 . S
C1823 H1847 0.950 . S
C1824 C1841 1.574 . S
C1824 C1843 1.368 . S
C1824 H1848 0.949 . S
H1825 C1829 0.949 . S
C1826 C1827 1.349 . S
C1826 C1828 1.327 . S
C1826 H1849 0.950 . S
C1827 C1826 1.349 . S
C1827 C1839 1.349 . S
C1828 C1826 1.327 . S
C1828 C1844 1.429 . S
C1828 H1850 0.950 . S
C1829 H1825 0.949 . S
C1829 C1837 1.574 . S
C1829 C1845 1.368 . S
H1830 C1838 0.950 . S
H1831 C1836 0.950 . S
H1832 C1837 0.949 . S
H1833 C1839 0.950 . S
H1834 C1840 0.950 . S
H1835 C1841 0.949 . S
C1836 H1831 0.950 . S
C1836 C1838 1.327 . S
C1836 C1842 1.429 . S
C1837 C1829 1.574 . S
C1837 H1832 0.949 . S
C1837 C1843 1.368 . S
C1838 C1822 1.349 . S
C1838 H1830 0.950 . S
C1838 C1836 1.327 . S
C1839 C1827 1.349 . S
C1839 H1833 0.950 . S
C1839 C1840 1.327 . S
C1840 H1834 0.950 . S
C1840 C1839 1.327 . S
C1840 C1844 1.429 . S
C1841 C1824 1.574 . S
C1841 H1835 0.949 . S
C1841 C1845 1.368 . S
C1842 C1823 1.429 . S
C1842 C1836 1.429 . S
C1842 C1843 1.523 . S
C1843 C1824 1.368 . S
C1843 C1837 1.368 . S
C1843 C1842 1.523 . S
C1844 C1828 1.429 . S
C1844 C1840 1.429 . S
C1844 C1845 1.523 . S
C1845 C1829 1.368 . S
C1845 C1841 1.368 . S
C1845 C1844 1.523 . S
H1846 C1821 0.950 . S
H1847 C1823 0.950 . S
H1848 C1824 0.949 . S
H1849 C1826 0.950 . S
H1850 C1828 0.950 . S
C1851 C1852 1.349 . S
C1851 C1853 1.327 . S
C1851 H1876 0.950 . S
C1852 C1851 1.349 . S
C1852 C1868 1.349 . S
C1853 C1851 1.327 . S
C1853 C1872 1.429 . S
C1853 H1877 0.950 . S
C1854 C1871 1.574 . S
C1854 C1873 1.368 . S
C1854 H1878 0.949 . S
H1855 C1859 0.949 . S
C1856 C1857 1.349 . S
C1856 C1858 1.327 . S
C1856 H1879 0.950 . S
C1857 C1856 1.349 . S
C1857 C1869 1.349 . S
C1858 C1856 1.327 . S
C1858 C1874 1.429 . S
C1858 H1880 0.950 . S
C1859 H1855 0.949 . S
C1859 C1867 1.574 . S
C1859 C1875 1.368 . S
H1860 C1868 0.950 . S
H1861 C1866 0.950 . S
H1862 C1867 0.949 . S
H1863 C1869 0.950 . S
H1864 C1870 0.950 . S
H1865 C1871 0.949 . S
C1866 H1861 0.950 . S
C1866 C1868 1.327 . S
C1866 C1872 1.429 . S
C1867 C1859 1.574 . S
C1867 H1862 0.949 . S
C1867 C1873 1.368 . S
C1868 C1852 1.349 . S
C1868 H1860 0.950 . S
C1868 C1866 1.327 . S
C1869 C1857 1.349 . S
C1869 H1863 0.950 . S
C1869 C1870 1.327 . S
C1870 H1864 0.950 . S
C1870 C1869 1.327 . S
C1870 C1874 1.429 . S
C1871 C1854 1.574 . S
C1871 H1865 0.949 . S
C1871 C1875 1.368 . S
C1872 C1853 1.429 . S
C1872 C1866 1.429 . S
C1872 C1873 1.523 . S
C1873 C1854 1.368 . S
C1873 C1867 1.368 . S
C1873 C1872 1.523 . S
C1874 C1858 1.429 . S
C1874 C1870 1.429 . S
C1874 C1875 1.523 . S
C1875 C1859 1.368 . S
C1875 C1871 1.368 . S
C1875 C1874 1.523 . S
H1876 C1851 0.950 . S
H1877 C1853 0.950 . S
H1878 C1854 0.949 . S
H1879 C1856 0.950 . S
H1880 C1858 0.950 . S
C1881 C1882 1.349 . S
C1881 C1883 1.327 . S
C1881 H1906 0.950 . S
C1882 C1881 1.349 . S
C1882 C1898 1.349 . S
C1883 C1881 1.327 . S
C1883 C1902 1.429 . S
C1883 H1907 0.950 . S
C1884 C1901 1.574 . S
C1884 C1903 1.368 . S
C1884 H1908 0.949 . S
H1885 C1889 0.949 . S
C1886 C1887 1.349 . S
C1886 C1888 1.327 . S
C1886 H1909 0.950 . S
C1887 C1886 1.349 . S
C1887 C1899 1.349 . S
C1888 C1886 1.327 . S
C1888 C1904 1.429 . S
C1888 H1910 0.950 . S
C1889 H1885 0.949 . S
C1889 C1897 1.574 . S
C1889 C1905 1.368 . S
H1890 C1898 0.950 . S
H1891 C1896 0.950 . S
H1892 C1897 0.949 . S
H1893 C1899 0.950 . S
H1894 C1900 0.950 . S
H1895 C1901 0.949 . S
C1896 H1891 0.950 . S
C1896 C1898 1.327 . S
C1896 C1902 1.429 . S
C1897 C1889 1.574 . S
C1897 H1892 0.949 . S
C1897 C1903 1.368 . S
C1898 C1882 1.349 . S
C1898 H1890 0.950 . S
C1898 C1896 1.327 . S
C1899 C1887 1.349 . S
C1899 H1893 0.950 . S
C1899 C1900 1.327 . S
C1900 H1894 0.950 . S
C1900 C1899 1.327 . S
C1900 C1904 1.429 . S
C1901 C1884 1.574 . S
C1901 H1895 0.949 . S
C1901 C1905 1.368 . S
C1902 C1883 1.429 . S
C1902 C1896 1.429 . S
C1902 C1903 1.523 . S
C1903 C1884 1.368 . S
C1903 C1897 1.368 . S
C1903 C1902 1.523 . S
C1904 C1888 1.429 . S
C1904 C1900 1.429 . S
C1904 C1905 1.523 . S
C1905 C1889 1.368 . S
C1905 C1901 1.368 . S
C1905 C1904 1.523 . S
H1906 C1881 0.950 . S
H1907 C1883 0.950 . S
H1908 C1884 0.949 . S
H1909 C1886 0.950 . S
H1910 C1888 0.950 . S
C1911 C1912 1.349 . S
C1911 C1913 1.327 . S
C1911 H1936 0.950 . S
C1912 C1911 1.349 . S
C1912 C1928 1.349 . S
C1913 C1911 1.327 . S
C1913 C1932 1.429 . S
C1913 H1937 0.950 . S
C1914 C1931 1.574 . S
C1914 C1933 1.368 . S
C1914 H1938 0.949 . S
H1915 C1919 0.949 . S
C1916 C1917 1.349 . S
C1916 C1918 1.327 . S
C1916 H1939 0.950 . S
C1917 C1916 1.349 . S
C1917 C1929 1.349 . S
C1918 C1916 1.327 . S
C1918 C1934 1.429 . S
C1918 H1940 0.950 . S
C1919 H1915 0.949 . S
C1919 C1927 1.574 . S
C1919 C1935 1.368 . S
H1920 C1928 0.950 . S
H1921 C1926 0.950 . S
H1922 C1927 0.949 . S
H1923 C1929 0.950 . S
H1924 C1930 0.950 . S
H1925 C1931 0.949 . S
C1926 H1921 0.950 . S
C1926 C1928 1.327 . S
C1926 C1932 1.429 . S
C1927 C1919 1.574 . S
C1927 H1922 0.949 . S
C1927 C1933 1.368 . S
C1928 C1912 1.349 . S
C1928 H1920 0.950 . S
C1928 C1926 1.327 . S
C1929 C1917 1.349 . S
C1929 H1923 0.950 . S
C1929 C1930 1.327 . S
C1930 H1924 0.950 . S
C1930 C1929 1.327 . S
C1930 C1934 1.429 . S
C1931 C1914 1.574 . S
C1931 H1925 0.949 . S
C1931 C1935 1.368 . S
C1932 C1913 1.429 . S
C1932 C1926 1.429 . S
C1932 C1933 1.523 . S
C1933 C1914 1.368 . S
C1933 C1927 1.368 . S
C1933 C1932 1.523 . S
C1934 C1918 1.429 . S
C1934 C1930 1.429 . S
C1934 C1935 1.523 . S
C1935 C1919 1.368 . S
C1935 C1931 1.368 . S
C1935 C1934 1.523 . S
H1936 C1911 0.950 . S
H1937 C1913 0.950 . S
H1938 C1914 0.949 . S
H1939 C1916 0.950 . S
H1940 C1918 0.950 . S
C1941 C1942 1.349 . S
C1941 C1943 1.327 . S
C1941 H1966 0.950 . S
C1942 C1941 1.349 . S
C1942 C1958 1.349 . S
C1943 C1941 1.327 . S
C1943 C1962 1.429 . S
C1943 H1967 0.950 . S
C1944 C1961 1.574 . S
C1944 C1963 1.368 . S
C1944 H1968 0.949 . S
H1945 C1949 0.949 . S
C1946 C1947 1.349 . S
C1946 C1948 1.327 . S
C1946 H1969 0.950 . S
C1947 C1946 1.349 . S
C1947 C1959 1.349 . S
C1948 C1946 1.327 . S
C1948 C1964 1.429 . S
C1948 H1970 0.950 . S
C1949 H1945 0.949 . S
C1949 C1957 1.574 . S
C1949 C1965 1.368 . S
H1950 C1958 0.950 . S
H1951 C1956 0.950 . S
H1952 C1957 0.949 . S
H1953 C1959 0.950 . S
H1954 C1960 0.950 . S
H1955 C1961 0.949 . S
C1956 H1951 0.950 . S
C1956 C1958 1.327 . S
C1956 C1962 1.429 . S
C1957 C1949 1.574 . S
C1957 H1952 0.949 . S
C1957 C1963 1.368 . S
C1958 C1942 1.349 . S
C1958 H1950 0.950 . S
C1958 C1956 1.327 . S
C1959 C1947 1.349 . S
C1959 H1953 0.950 . S
C1959 C1960 1.327 . S
C1960 H1954 0.950 . S
C1960 C1959 1.327 . S
C1960 C1964 1.429 . S
C1961 C1944 1.574 . S
C1961 H1955 0.949 . S
C1961 C1965 1.368 . S
C1962 C1943 1.429 . S
C1962 C1956 1.429 . S
C1962 C1963 1.523 . S
C1963 C1944 1.368 . S
C1963 C1957 1.368 . S
C1963 C1962 1.523 . S
C1964 C1948 1.429 . S
C1964 C1960 1.429 . S
C1964 C1965 1.523 . S
C1965 C1949 1.368 . S
C1965 C1961 1.368 . S
C1965 C1964 1.523 . S
H1966 C1941 0.950 . S
H1967 C1943 0.950 . S
H1968 C1944 0.949 . S
H1969 C1946 0.950 . S
H1970 C1948 0.950 . S
C352 C124 1.333 . S
C357 C176 1.267 . S
C382 C130 1.356 . S
C387 C197 1.287 . S
C412 C115 1.279 . S
C417 C217 1.117 . S
C442 C106 1.299 . S
C447 C196 1.128 1_556 S
C477 C218 1.303 . S
C472 C85 1.376 . S
C502 C97 1.290 . S
C507 C175 1.120 1_556 S
C537 C177 1.241 . S
C532 C103 1.319 . S
C567 C198 1.205 . S
C562 C88 1.270 . S
C592 C94 1.340 . S
C597 C220 1.155 1_556 S
C622 C121 1.299 . S
C627 C199 1.129 . S
C652 C133 1.255 . S
C657 C219 1.189 . S
C687 C178 1.163 . S
C682 C112 1.340 . S
C717 C239 1.268 . S
C712 C16 1.333 . S
C742 C22 1.356 . S
C747 C260 1.287 . S
C772 C7 1.280 . S
C777 C280 1.117 . S
C802 C160 1.299 . S
C807 C259 1.128 . S
C832 C139 1.376 . S
C837 C281 1.303 . S
C862 C151 1.290 . S
C867 C238 1.120 . S
C892 C157 1.319 . S
C897 C240 1.241 . S
C922 C142 1.270 . S
C927 C261 1.205 . S
C957 C283 1.155 . S
C952 C148 1.340 . S
C982 C13 1.299 . S
C987 C262 1.129 . S
C1017 C282 1.189 . S
C1012 C25 1.255 . S
C1042 C4 1.340 . S
C1047 C241 1.163 . S
C1077 C302 1.267 . S
C1072 C70 1.333 . S
C1102 C76 1.356 . S
C1107 C323 1.287 . S
C1137 C343 1.117 . S
C1132 C61 1.280 . S
C1167 C322 1.128 . S
C1162 C52 1.300 . S
C1197 C344 1.303 . S
C1192 C31 1.376 . S
C1222 C43 1.290 . S
C1227 C301 1.120 . S
C1252 C49 1.319 . S
C1257 C303 1.241 . S
C1282 C34 1.270 . S
C1287 C324 1.205 . S
C1317 C346 1.155 . S
C1312 C40 1.340 . S
C1342 C67 1.299 . S
C1347 C325 1.129 . S
C1372 C79 1.255 . S
C1377 C345 1.189 . S
C1402 C58 1.340 . S
C1407 C304 1.162 . S
C1432 C140 1.384 . S
C1437 C180 1.344 1_565 S
C1467 C201 1.367 . S
C1462 C149 1.409 . S
C1492 C158 1.475 . S
C1497 C221 1.445 . S
C1522 C59 1.529 . S
C1527 C200 1.497 1_655 S
C1552 C68 1.434 . S
C1557 C222 1.388 . S
C1587 C179 1.454 . S
C1582 C77 1.480 . S
C1612 C32 1.384 . S
C1617 C243 1.344 . S
C1642 C41 1.409 . S
C1647 C264 1.367 . S
C1672 C50 1.475 . S
C1677 C284 1.445 . S
C1702 C113 1.529 . S
C1707 C263 1.497 . S
C1737 C285 1.388 . S
C1732 C122 1.434 . S
C1762 C131 1.480 . S
C1767 C242 1.454 . S
C1792 C86 1.384 . S
C1797 C306 1.344 . S
C1822 C95 1.409 . S
C1827 C327 1.367 . S
C1857 C347 1.445 . S
C1852 C104 1.475 . S
C1882 C5 1.529 . S
C1887 C326 1.497 . S
C1912 C14 1.434 . S
C1917 C348 1.388 . S
C1942 C23 1.480 . S
C1947 C305 1.454 . S
