# Generated by pormake.
# Topology nom, (4,4)-cn, num edge types: 1
# Building blocks:
#     Node 0, Type 0, BuildingBlock: NAHDIM_clean_linker_0, # of connection points: 4
#     Node 1, Type 0, BuildingBlock: NAHDIM_clean_linker_0, # of connection points: 4
#     Node 2, Type 0, BuildingBlock: NAHDIM_clean_linker_0, # of connection points: 4
#     Node 3, Type 0, BuildingBlock: NAHDIM_clean_linker_0, # of connection points: 4
#     Node 4, Type 0, BuildingBlock: NAHDIM_clean_linker_0, # of connection points: 4
#     Node 5, Type 0, BuildingBlock: NAHDIM_clean_linker_0, # of connection points: 4
#     Node 6, Type 1, BuildingBlock: GALJAG_clean_sbu_0, # of connection points: 4
#     Node 7, Type 1, BuildingBlock: GALJAG_clean_sbu_0, # of connection points: 4
#     Node 8, Type 1, BuildingBlock: GALJAG_clean_sbu_0, # of connection points: 4
#     Node 9, Type 1, BuildingBlock: GALJAG_clean_sbu_0, # of connection points: 4
#     Node 10, Type 1, BuildingBlock: GALJAG_clean_sbu_0, # of connection points: 4
#     Node 11, Type 1, BuildingBlock: GALJAG_clean_sbu_0, # of connection points: 4
#     Edge 12, Type (0, 1), BuildingBlock: XUDNAN_clean_linker_2, # of connection points: 2
#     Edge 13, Type (0, 1), BuildingBlock: XUDNAN_clean_linker_2, # of connection points: 2
#     Edge 14, Type (0, 1), BuildingBlock: XUDNAN_clean_linker_2, # of connection points: 2
#     Edge 15, Type (0, 1), BuildingBlock: XUDNAN_clean_linker_2, # of connection points: 2
#     Edge 16, Type (0, 1), BuildingBlock: XUDNAN_clean_linker_2, # of connection points: 2
#     Edge 17, Type (0, 1), BuildingBlock: XUDNAN_clean_linker_2, # of connection points: 2
#     Edge 18, Type (0, 1), BuildingBlock: XUDNAN_clean_linker_2, # of connection points: 2
#     Edge 19, Type (0, 1), BuildingBlock: XUDNAN_clean_linker_2, # of connection points: 2
#     Edge 20, Type (0, 1), BuildingBlock: XUDNAN_clean_linker_2, # of connection points: 2
#     Edge 21, Type (0, 1), BuildingBlock: XUDNAN_clean_linker_2, # of connection points: 2
#     Edge 22, Type (0, 1), BuildingBlock: XUDNAN_clean_linker_2, # of connection points: 2
#     Edge 23, Type (0, 1), BuildingBlock: XUDNAN_clean_linker_2, # of connection points: 2
#     Edge 24, Type (0, 1), BuildingBlock: XUDNAN_clean_linker_2, # of connection points: 2
#     Edge 25, Type (0, 1), BuildingBlock: XUDNAN_clean_linker_2, # of connection points: 2
#     Edge 26, Type (0, 1), BuildingBlock: XUDNAN_clean_linker_2, # of connection points: 2
#     Edge 27, Type (0, 1), BuildingBlock: XUDNAN_clean_linker_2, # of connection points: 2
#     Edge 28, Type (0, 1), BuildingBlock: XUDNAN_clean_linker_2, # of connection points: 2
#     Edge 29, Type (0, 1), BuildingBlock: XUDNAN_clean_linker_2, # of connection points: 2
#     Edge 30, Type (0, 1), BuildingBlock: XUDNAN_clean_linker_2, # of connection points: 2
#     Edge 31, Type (0, 1), BuildingBlock: XUDNAN_clean_linker_2, # of connection points: 2
#     Edge 32, Type (0, 1), BuildingBlock: XUDNAN_clean_linker_2, # of connection points: 2
#     Edge 33, Type (0, 1), BuildingBlock: XUDNAN_clean_linker_2, # of connection points: 2
#     Edge 34, Type (0, 1), BuildingBlock: XUDNAN_clean_linker_2, # of connection points: 2
#     Edge 35, Type (0, 1), BuildingBlock: XUDNAN_clean_linker_2, # of connection points: 2
# Relax obj value: 0.026
# Max RMSD: 0.127
# Mean RMSD: 0.098
data_MOF--net-nom--node1-GALJAG_clean_sbu_0--node2-NAHDIM_clean_linker_0--edge1-XUDNAN_clean_linker_2
_symmetry_space_group_name_H-M    P1
_symmetry_Int_Tables_number       1
_symmetry_cell_setting            triclinic
loop_
_symmetry_equiv_pos_as_xyz
'x, y, z'
_cell_length_a     57.604618
_cell_length_b     57.52106
_cell_length_c     72.064889
_cell_angle_alpha  90.17634
_cell_angle_beta   90.090708
_cell_angle_gamma 120.0478
loop_
_atom_site_label
_atom_site_type_symbol
_atom_site_fract_x
_atom_site_fract_y
_atom_site_fract_z
_atom_type_partial_charge
C0 C 0.17064 0.69541 0.25387 0.0
C1 C 0.18101 0.6763 0.25876 0.0
C2 C 0.1541 0.65059 0.28448 0.0
C3 C 0.14818 0.62389 0.28391 0.0
C4 C 0.12301 0.60306 0.28962 0.0
C5 C 0.1033 0.60921 0.29569 0.0
C6 C 0.10967 0.6364 0.29678 0.0
C7 C 0.13526 0.65682 0.29145 0.0
C8 C 0.11722 0.57444 0.28856 0.0
C9 C 0.08914 0.64388 0.30277 0.0
C10 C 0.94803 0.49107 0.19223 0.0
C11 C 0.96392 0.5117 0.20649 0.0
C12 C 0.99077 0.51705 0.23421 0.0
C13 C 0.99136 0.54047 0.24061 0.0
C14 C 0.00469 0.553 0.25718 0.0
C15 C 0.0176 0.54186 0.26755 0.0
C16 C 0.01693 0.51824 0.26118 0.0
C17 C 0.0035 0.50616 0.24458 0.0
C18 C 0.00509 0.57818 0.26362 0.0
C19 C 0.03055 0.50588 0.27189 0.0
C20 C 0.89885 0.48472 0.36333 0.0
C21 C 0.91141 0.512 0.35862 0.0
C22 C 0.93929 0.52704 0.35617 0.0
C23 C 0.9549 0.51449 0.35844 0.0
C24 C 0.94233 0.48715 0.36363 0.0
C25 C 0.91444 0.47269 0.36622 0.0
C26 C 0.95211 0.55641 0.35128 0.0
C27 C 0.95836 0.47319 0.3663 0.0
C28 C 0.05657 0.59795 0.46194 0.0
C29 C 0.08343 0.60967 0.45174 0.0
C30 C 0.0705 0.58451 0.42224 0.0
C31 C 0.05824 0.59804 0.41428 0.0
C32 C 0.04512 0.58999 0.39706 0.0
C33 C 0.04391 0.56781 0.38766 0.0
C34 C 0.05643 0.55432 0.39549 0.0
C35 C 0.06974 0.56302 0.41261 0.0
C36 C 0.03218 0.60497 0.389 0.0
C37 C 0.05525 0.53037 0.38593 0.0
C38 C 0.07529 0.58729 0.29886 0.0
C39 C 0.05953 0.57476 0.28319 0.0
C40 C 0.03249 0.55524 0.2848 0.0
C41 C 0.02037 0.54856 0.30248 0.0
C42 C 0.99283 0.5302 0.30452 0.0
C43 C 0.98098 0.52422 0.32197 0.0
C44 C 0.99634 0.5359 0.33807 0.0
C45 C 0.98443 0.53028 0.35585 0.0
C46 C 0.00054 0.54088 0.37162 0.0
C47 C 0.02828 0.55777 0.37017 0.0
C48 C 0.04036 0.56498 0.35247 0.0
C49 C 0.06795 0.58319 0.35043 0.0
C50 C 0.07949 0.59051 0.33289 0.0
C51 C 0.06394 0.57964 0.31676 0.0
C52 C 0.03624 0.56062 0.31853 0.0
C53 C 0.02432 0.55376 0.33637 0.0
C54 C 0.84601 0.44737 0.33904 0.0
C55 C 0.85278 0.46935 0.35368 0.0
O56 O 0.17754 0.67031 0.27752 0.0
O57 O 0.0829 0.59115 0.43912 0.0
O58 O 0.87188 0.46968 0.36562 0.0
O59 O 0.97824 0.50436 0.2182 0.0
H60 H 0.1693 0.65746 0.2505 0.0
H61 H 0.14868 0.6854 0.25624 0.0
H62 H 0.18071 0.71388 0.26256 0.0
H63 H 0.17437 0.70112 0.239 0.0
H64 H 0.1631 0.6194 0.2786 0.0
H65 H 0.14027 0.67766 0.29193 0.0
H66 H 0.10416 0.56435 0.27637 0.0
H67 H 0.13585 0.57337 0.28707 0.0
H68 H 0.10637 0.56318 0.30115 0.0
H69 H 0.09649 0.66566 0.30109 0.0
H70 H 0.0704 0.63237 0.29456 0.0
H71 H 0.08407 0.63864 0.31758 0.0
H72 H 0.97586 0.5327 0.20129 0.0
H73 H 0.95704 0.501 0.17858 0.0
H74 H 0.95633 0.47701 0.19156 0.0
H75 H 0.90739 0.47794 0.19948 0.0
H76 H 0.98157 0.54914 0.23274 0.0
H77 H 0.0029 0.48808 0.23956 0.0
H78 H 0.02613 0.59497 0.26448 0.0
H79 H 0.99367 0.58409 0.25418 0.0
H80 H 0.9964 0.57511 0.27775 0.0
H81 H 0.02797 0.48732 0.26516 0.0
H82 H 0.05232 0.52057 0.27315 0.0
H83 H 0.02226 0.50092 0.28615 0.0
H84 H 0.86069 0.48869 0.34619 0.0
H85 H 0.89958 0.52174 0.35722 0.0
H86 H 0.90457 0.45171 0.37015 0.0
H87 H 0.96094 0.55971 0.33719 0.0
H88 H 0.93751 0.56368 0.3515 0.0
H89 H 0.96865 0.56868 0.36115 0.0
H90 H 0.94536 0.45135 0.3689 0.0
H91 H 0.97077 0.47596 0.35383 0.0
H92 H 0.97222 0.48235 0.37827 0.0
H93 H 0.08728 0.62818 0.44433 0.0
H94 H 0.0572 0.61265 0.47226 0.0
H95 H 0.04006 0.59333 0.452 0.0
H96 H 0.05198 0.57912 0.46922 0.0
H97 H 0.05852 0.61474 0.42139 0.0
H98 H 0.07924 0.5527 0.41878 0.0
H99 H 0.03871 0.61068 0.37442 0.0
H100 H 0.01006 0.59166 0.38887 0.0
H101 H 0.03714 0.62339 0.39705 0.0
H102 H 0.06541 0.52163 0.39407 0.0
H103 H 0.03401 0.51462 0.38363 0.0
H104 H 0.06493 0.5364 0.37212 0.0
H105 H 0.06842 0.58036 0.2695 0.0
H106 H 0.98006 0.52056 0.29261 0.0
H107 H 0.95964 0.51019 0.32271 0.0
H108 H 0.99131 0.53618 0.38524 0.0
H109 H 0.08085 0.59221 0.36238 0.0
H110 H 0.10078 0.60474 0.33211 0.0
H111 H 0.83463 0.42711 0.34536 0.0
H112 H 0.83432 0.44913 0.32742 0.0
H113 H 0.86479 0.44966 0.33302 0.0
C114 C 0.35536 0.8775 0.56991 0.0
C115 C 0.37776 0.87141 0.56539 0.0
C116 C 0.4018 0.89986 0.53975 0.0
C117 C 0.42895 0.90767 0.53884 0.0
C118 C 0.44784 0.93331 0.53245 0.0
C119 C 0.43921 0.95146 0.52712 0.0
C120 C 0.41157 0.94327 0.5277 0.0
C121 C 0.39311 0.9173 0.53374 0.0
C122 C 0.47704 0.94117 0.53172 0.0
C123 C 0.40161 0.96213 0.52236 0.0
C124 C 0.5665 0.14361 0.60507 0.0
C125 C 0.54888 0.1263 0.5899 0.0
C126 C 0.52978 0.08117 0.57747 0.0
C127 C 0.50845 0.08075 0.56771 0.0
C128 C 0.49473 0.06155 0.55379 0.0
C129 C 0.50325 0.0431 0.54902 0.0
C130 C 0.52424 0.04299 0.55921 0.0
C131 C 0.53689 0.06177 0.57357 0.0
C132 C 0.47143 0.06137 0.54403 0.0
C133 C 0.5337 0.02346 0.55471 0.0
C134 C 0.55728 0.14719 0.4535 0.0
C135 C 0.52952 0.13518 0.45625 0.0
C136 C 0.51332 0.10715 0.45691 0.0
C137 C 0.52516 0.09089 0.45469 0.0
C138 C 0.55278 0.10292 0.45054 0.0
C139 C 0.5685 0.13104 0.44985 0.0
C140 C 0.48376 0.09496 0.46083 0.0
C141 C 0.5659 0.08612 0.44783 0.0
C142 C 0.38238 0.89508 0.3933 0.0
C143 C 0.41286 0.91343 0.39353 0.0
C144 C 0.43495 0.95966 0.4044 0.0
C145 C 0.42725 0.97798 0.4102 0.0
C146 C 0.44173 0.99708 0.42403 0.0
C147 C 0.46493 0.99829 0.43176 0.0
C148 C 0.47388 0.98103 0.42492 0.0
C149 C 0.45863 0.96169 0.41141 0.0
C150 C 0.43174 0.01535 0.4308 0.0
C151 C 0.49916 0.98252 0.43224 0.0
C152 C 0.45919 0.97947 0.52206 0.0
C153 C 0.47229 0.9977 0.53653 0.0
C154 C 0.49083 0.02461 0.53297 0.0
C155 C 0.49654 0.03375 0.51443 0.0
C156 C 0.51527 0.06064 0.51032 0.0
C157 C 0.51959 0.06981 0.49214 0.0
C158 C 0.50576 0.05233 0.47729 0.0
C159 C 0.50923 0.06176 0.45883 0.0
C160 C 0.49607 0.04372 0.44429 0.0
C161 C 0.47883 0.01639 0.44774 0.0
C162 C 0.47427 0.00678 0.46622 0.0
C163 C 0.45626 0.97963 0.4703 0.0
C164 C 0.45161 0.97053 0.48854 0.0
C165 C 0.4645 0.98826 0.50343 0.0
C166 C 0.48305 0.01558 0.49964 0.0
C167 C 0.48784 0.02486 0.48102 0.0
C168 C 0.59607 0.20332 0.48024 0.0
C169 C 0.57133 0.19079 0.4676 0.0
O170 O 0.38398 0.87555 0.54668 0.0
O171 O 0.41889 0.93993 0.39232 0.0
O172 O 0.57374 0.1742 0.45469 0.0
O173 O 0.54403 0.10016 0.5905 0.0
H174 H 0.39581 0.88507 0.57382 0.0
H175 H 0.36245 0.89911 0.56766 0.0
H176 H 0.33755 0.86534 0.56095 0.0
H177 H 0.34936 0.87297 0.5847 0.0
H178 H 0.4353 0.89376 0.54338 0.0
H179 H 0.37191 0.91074 0.53424 0.0
H180 H 0.48824 0.9564 0.54265 0.0
H181 H 0.48001 0.92373 0.53395 0.0
H182 H 0.48575 0.95039 0.51811 0.0
H183 H 0.37983 0.95339 0.52505 0.0
H184 H 0.41279 0.98129 0.53022 0.0
H185 H 0.40529 0.96694 0.50738 0.0
H186 H 0.55403 0.13521 0.57572 0.0
H187 H 0.54118 0.15355 0.62068 0.0
H188 H 0.57648 0.13282 0.61127 0.0
H189 H 0.5852 0.15925 0.59792 0.0
H190 H 0.50236 0.09529 0.57097 0.0
H191 H 0.55315 0.06207 0.58136 0.0
H192 H 0.45479 0.04048 0.54179 0.0
H193 H 0.46366 0.07261 0.55198 0.0
H194 H 0.47802 0.07097 0.53024 0.0
H195 H 0.55218 0.028 0.56249 0.0
H196 H 0.51772 0.00282 0.55828 0.0
H197 H 0.5377 0.02377 0.53961 0.0
H198 H 0.55395 0.17909 0.47697 0.0
H199 H 0.52057 0.14768 0.45819 0.0
H200 H 0.58987 0.14056 0.44735 0.0
H201 H 0.47939 0.08612 0.47495 0.0
H202 H 0.4771 0.11002 0.46006 0.0
H203 H 0.47184 0.07851 0.4508 0.0
H204 H 0.58727 0.09841 0.44369 0.0
H205 H 0.56482 0.07554 0.46095 0.0
H206 H 0.55494 0.07058 0.43702 0.0
H207 H 0.41985 0.90977 0.40707 0.0
H208 H 0.37708 0.87368 0.394 0.0
H209 H 0.37352 0.89957 0.40551 0.0
H210 H 0.37343 0.89818 0.38054 0.0
H211 H 0.40915 0.97646 0.40443 0.0
H212 H 0.46507 0.94804 0.40642 0.0
H213 H 0.4292 0.01377 0.4461 0.0
H214 H 0.44679 0.0365 0.42755 0.0
H215 H 0.41234 0.01057 0.42429 0.0
H216 H 0.50561 0.97082 0.42352 0.0
H217 H 0.51568 0.00373 0.4329 0.0
H218 H 0.49562 0.97437 0.44654 0.0
H219 H 0.46773 0.99091 0.55079 0.0
H220 H 0.52657 0.07503 0.52114 0.0
H221 H 0.53392 0.09083 0.48991 0.0
H222 H 0.4989 0.0511 0.43016 0.0
H223 H 0.44539 0.96511 0.45946 0.0
H224 H 0.43754 0.94944 0.49083 0.0
H225 H 0.59492 0.21736 0.49033 0.0
H226 H 0.59702 0.18726 0.48814 0.0
H227 H 0.61481 0.21435 0.47206 0.0
C228 C 0.49005 0.32446 0.69042 0.0
C229 C 0.50323 0.33926 0.70858 0.0
C230 C 0.51635 0.38621 0.70168 0.0
C231 C 0.53803 0.41181 0.69817 0.0
C232 C 0.53411 0.4335 0.69421 0.0
C233 C 0.50777 0.42937 0.69369 0.0
C234 C 0.48571 0.40357 0.69732 0.0
C235 C 0.49019 0.38229 0.70136 0.0
C236 C 0.55805 0.46077 0.6904 0.0
C237 C 0.45732 0.39843 0.69679 0.0
C238 C 0.47066 0.54933 0.79278 0.0
C239 C 0.46904 0.52948 0.77885 0.0
C240 C 0.48914 0.52724 0.74957 0.0
C241 C 0.4681 0.50158 0.74462 0.0
C242 C 0.46953 0.48862 0.72851 0.0
C243 C 0.49269 0.50129 0.71725 0.0
C244 C 0.51394 0.52711 0.72218 0.0
C245 C 0.51171 0.53986 0.73818 0.0
C246 C 0.4464 0.46114 0.72373 0.0
C247 C 0.53914 0.54104 0.7107 0.0
C248 C 0.44214 0.55897 0.61528 0.0
C249 C 0.42467 0.53313 0.62203 0.0
C250 C 0.43404 0.51536 0.62601 0.0
C251 C 0.4615 0.52379 0.62336 0.0
C252 C 0.47902 0.5497 0.61626 0.0
C253 C 0.46897 0.56683 0.61206 0.0
C254 C 0.41456 0.48752 0.63291 0.0
C255 C 0.50836 0.55933 0.61319 0.0
C256 C 0.49555 0.37523 0.55174 0.0
C257 C 0.50971 0.4059 0.55301 0.0
C258 C 0.48916 0.42814 0.56966 0.0
C259 C 0.46402 0.4217 0.57656 0.0
C260 C 0.46157 0.43586 0.59159 0.0
C261 C 0.48491 0.45757 0.59949 0.0
C262 C 0.51039 0.46503 0.59193 0.0
C263 C 0.51227 0.45006 0.57716 0.0
C264 C 0.43406 0.42734 0.59919 0.0
C265 C 0.53562 0.48872 0.59951 0.0
C266 C 0.50307 0.45185 0.68918 0.0
C267 C 0.50175 0.46709 0.70384 0.0
C268 C 0.49502 0.487 0.70078 0.0
C269 C 0.48949 0.49197 0.68253 0.0
C270 C 0.48176 0.51118 0.67897 0.0
C271 C 0.4761 0.51571 0.66099 0.0
C272 C 0.47786 0.50114 0.64587 0.0
C273 C 0.47171 0.50523 0.62758 0.0
C274 C 0.47453 0.49102 0.61282 0.0
C275 C 0.48266 0.47215 0.61581 0.0
C276 C 0.48789 0.46702 0.63409 0.0
C277 C 0.49484 0.44726 0.63771 0.0
C278 C 0.49987 0.44229 0.65572 0.0
C279 C 0.4983 0.45699 0.67081 0.0
C280 C 0.49138 0.47706 0.66749 0.0
C281 C 0.48582 0.48183 0.64913 0.0
C282 C 0.43229 0.60975 0.62999 0.0
C283 C 0.4165 0.58124 0.62211 0.0
O284 O 0.52161 0.36602 0.70511 0.0
O285 O 0.49028 0.41313 0.55551 0.0
O286 O 0.43358 0.57648 0.61126 0.0
O287 O 0.48844 0.54034 0.76514 0.0
H288 H 0.48747 0.33785 0.71817 0.0
H289 H 0.47874 0.33316 0.6838 0.0
H290 H 0.50545 0.32597 0.68045 0.0
H291 H 0.47575 0.30291 0.69322 0.0
H292 H 0.55812 0.41472 0.69846 0.0
H293 H 0.47309 0.36273 0.70409 0.0
H294 H 0.55836 0.47573 0.70033 0.0
H295 H 0.57729 0.4608 0.69156 0.0
H296 H 0.55639 0.46731 0.67622 0.0
H297 H 0.44228 0.37718 0.69982 0.0
H298 H 0.45503 0.4115 0.7071 0.0
H299 H 0.45293 0.40361 0.68289 0.0
H300 H 0.46644 0.51035 0.78464 0.0
H301 H 0.43449 0.55036 0.7885 0.0
H302 H 0.47551 0.5428 0.80627 0.0
H303 H 0.49118 0.56766 0.79135 0.0
H304 H 0.45045 0.49148 0.75325 0.0
H305 H 0.52783 0.55965 0.74206 0.0
H306 H 0.45225 0.44586 0.72675 0.0
H307 H 0.42815 0.45615 0.7319 0.0
H308 H 0.44141 0.45977 0.70873 0.0
H309 H 0.55466 0.56009 0.71721 0.0
H310 H 0.54761 0.52761 0.7087 0.0
H311 H 0.53426 0.54563 0.69677 0.0
H312 H 0.40895 0.56729 0.63415 0.0
H313 H 0.40363 0.52666 0.62385 0.0
H314 H 0.48217 0.58671 0.60658 0.0
H315 H 0.4198 0.48532 0.64737 0.0
H316 H 0.3935 0.48325 0.63265 0.0
H317 H 0.41599 0.47225 0.62428 0.0
H318 H 0.51978 0.58083 0.60914 0.0
H319 H 0.51739 0.55655 0.62602 0.0
H320 H 0.51048 0.54716 0.60205 0.0
H321 H 0.52355 0.41208 0.56516 0.0
H322 H 0.51035 0.36828 0.55068 0.0
H323 H 0.4834 0.36627 0.56442 0.0
H324 H 0.482 0.36786 0.53947 0.0
H325 H 0.4463 0.40499 0.57042 0.0
H326 H 0.53171 0.45571 0.57134 0.0
H327 H 0.43374 0.42427 0.61442 0.0
H328 H 0.42919 0.44348 0.59673 0.0
H329 H 0.41821 0.40854 0.59262 0.0
H330 H 0.5533 0.49405 0.5906 0.0
H331 H 0.53296 0.50649 0.60081 0.0
H332 H 0.5398 0.4839 0.61359 0.0
H333 H 0.50538 0.46295 0.7179 0.0
H334 H 0.47991 0.52287 0.69007 0.0
H335 H 0.47029 0.53077 0.65908 0.0
H336 H 0.47003 0.49446 0.59881 0.0
H337 H 0.49632 0.43526 0.62667 0.0
H338 H 0.50508 0.4268 0.65766 0.0
H339 H 0.41936 0.61403 0.63915 0.0
H340 H 0.4495 0.61195 0.63835 0.0
H341 H 0.44013 0.62473 0.6186 0.0
C342 C 0.1627 0.47582 0.90002 0.0
C343 C 0.17015 0.50513 0.89716 0.0
C344 C 0.14189 0.50485 0.87252 0.0
C345 C 0.1355 0.52525 0.87353 0.0
C346 C 0.1102 0.52057 0.86779 0.0
C347 C 0.09094 0.49478 0.86114 0.0
C348 C 0.09764 0.47425 0.85986 0.0
C349 C 0.1233 0.47973 0.8653 0.0
C350 C 0.10388 0.54299 0.86915 0.0
C351 C 0.07753 0.44635 0.8532 0.0
C352 C 0.93148 0.44906 0.95972 0.0
C353 C 0.94541 0.46282 0.94239 0.0
C354 C 0.9667 0.45442 0.91573 0.0
C355 C 0.96934 0.43485 0.90601 0.0
C356 C 0.98627 0.44154 0.89057 0.0
C357 C 0.00087 0.46858 0.8847 0.0
C358 C 0.9983 0.48856 0.89444 0.0
C359 C 0.9812 0.4813 0.90987 0.0
C360 C 0.98855 0.41971 0.88053 0.0
C361 C 0.01361 0.51756 0.88849 0.0
C362 C 0.89595 0.43524 0.79038 0.0
C363 C 0.90589 0.41743 0.79134 0.0
C364 C 0.93357 0.42706 0.79154 0.0
C365 C 0.95161 0.45506 0.79075 0.0
C366 C 0.94163 0.47288 0.78835 0.0
C367 C 0.9138 0.46265 0.78803 0.0
C368 C 0.94353 0.40741 0.79349 0.0
C369 C 0.96036 0.50279 0.78713 0.0
C370 C 0.14147 0.50194 0.72696 0.0
C371 C 0.12371 0.51465 0.72524 0.0
C372 C 0.07853 0.49122 0.73776 0.0
C373 C 0.06054 0.46529 0.74382 0.0
C374 C 0.04257 0.46096 0.7583 0.0
C375 C 0.04225 0.48318 0.76653 0.0
C376 C 0.05927 0.50935 0.75962 0.0
C377 C 0.07734 0.51311 0.74533 0.0
C378 C 0.02444 0.43274 0.76514 0.0
C379 C 0.05876 0.53335 0.76762 0.0
C380 C 0.0633 0.48876 0.85666 0.0
C381 C 0.04558 0.48312 0.87144 0.0
C382 C 0.01884 0.47584 0.86837 0.0
C383 C 0.00935 0.4742 0.85004 0.0
C384 C 0.98253 0.4668 0.84647 0.0
C385 C 0.97312 0.46433 0.82839 0.0
C386 C 0.99017 0.46915 0.81314 0.0
C387 C 0.98048 0.46568 0.79469 0.0
C388 C 0.99795 0.47086 0.77983 0.0
C389 C 0.02499 0.47914 0.78289 0.0
C390 C 0.03499 0.4824 0.80126 0.0
C391 C 0.06198 0.49031 0.80487 0.0
C392 C 0.07143 0.49288 0.82299 0.0
C393 C 0.0542 0.4873 0.8382 0.0
C394 C 0.02706 0.47978 0.8349 0.0
C395 C 0.01745 0.4773 0.81642 0.0
C396 C 0.83862 0.41752 0.81696 0.0
C397 C 0.85226 0.40658 0.80425 0.0
O398 O 0.1659 0.50926 0.87883 0.0
O399 O 0.09703 0.49455 0.72481 0.0
O400 O 0.86943 0.42667 0.79227 0.0
O401 O 0.9501 0.44648 0.93064 0.0
H402 H 0.15724 0.50951 0.90639 0.0
H403 H 0.1409 0.46232 0.89761 0.0
H404 H 0.17403 0.4702 0.89029 0.0
H405 H 0.16721 0.4727 0.9145 0.0
H406 H 0.15025 0.54469 0.87903 0.0
H407 H 0.12871 0.46423 0.8644 0.0
H408 H 0.08888 0.53834 0.88026 0.0
H409 H 0.12197 0.56263 0.87237 0.0
H410 H 0.09495 0.54474 0.85592 0.0
H411 H 0.08508 0.43207 0.85472 0.0
H412 H 0.05854 0.43856 0.86108 0.0
H413 H 0.07284 0.44705 0.83834 0.0
H414 H 0.93724 0.47431 0.93516 0.0
H415 H 0.96044 0.47004 0.98105 0.0
H416 H 0.9116 0.44839 0.95906 0.0
H417 H 0.92246 0.42681 0.9572 0.0
H418 H 0.95808 0.41419 0.91064 0.0
H419 H 0.97929 0.49667 0.91726 0.0
H420 H 0.98188 0.41843 0.86591 0.0
H421 H 0.00983 0.42469 0.88029 0.0
H422 H 0.97631 0.39974 0.8871 0.0
H423 H 0.00912 0.53068 0.89731 0.0
H424 H 0.03548 0.52497 0.88915 0.0
H425 H 0.00858 0.51925 0.87386 0.0
H426 H 0.86371 0.40071 0.81378 0.0
H427 H 0.89207 0.39606 0.79234 0.0
H428 H 0.90588 0.47617 0.78691 0.0
H429 H 0.95256 0.40962 0.80746 0.0
H430 H 0.92717 0.38626 0.79171 0.0
H431 H 0.95938 0.41177 0.78308 0.0
H432 H 0.94954 0.51383 0.78417 0.0
H433 H 0.97143 0.5103 0.80045 0.0
H434 H 0.97542 0.50729 0.77607 0.0
H435 H 0.12813 0.52744 0.73788 0.0
H436 H 0.163 0.51767 0.72641 0.0
H437 H 0.13765 0.4914 0.74046 0.0
H438 H 0.13711 0.48702 0.71573 0.0
H439 H 0.06135 0.44851 0.73764 0.0
H440 H 0.09058 0.53313 0.74012 0.0
H441 H 0.02752 0.43166 0.78026 0.0
H442 H 0.00319 0.4272 0.76301 0.0
H443 H 0.02803 0.41779 0.75784 0.0
H444 H 0.07119 0.55189 0.75948 0.0
H445 H 0.03783 0.52944 0.76808 0.0
H446 H 0.06646 0.53685 0.78209 0.0
H447 H 0.05258 0.48387 0.88554 0.0
H448 H 0.96843 0.46265 0.85763 0.0
H449 H 0.95222 0.45842 0.82654 0.0
H450 H 0.9903 0.46792 0.76574 0.0
H451 H 0.0761 0.4945 0.79373 0.0
H452 H 0.09238 0.49904 0.82493 0.0
H453 H 0.82367 0.4013 0.82598 0.0
H454 H 0.8539 0.43361 0.826 0.0
H455 H 0.82848 0.42627 0.80882 0.0
C456 C 0.55345 0.87833 0.90915 0.0
C457 C 0.5326 0.87138 0.92447 0.0
C458 C 0.54782 0.90952 0.94566 0.0
C459 C 0.52548 0.9131 0.94622 0.0
C460 C 0.52821 0.93772 0.95193 0.0
C461 C 0.55383 0.95915 0.95702 0.0
C462 C 0.57628 0.95533 0.95675 0.0
C463 C 0.57282 0.93032 0.95141 0.0
C464 C 0.50375 0.94089 0.95244 0.0
C465 C 0.60401 0.9778 0.96175 0.0
C466 C 0.52082 0.05531 0.86554 0.0
C467 C 0.55072 0.0652 0.86828 0.0
C468 C 0.56112 0.06913 0.90082 0.0
C469 C 0.58476 0.06968 0.90599 0.0
C470 C 0.58592 0.05708 0.92234 0.0
C471 C 0.56279 0.04356 0.93357 0.0
C472 C 0.53902 0.04357 0.92852 0.0
C473 C 0.53859 0.05668 0.91225 0.0
C474 C 0.61166 0.05775 0.92743 0.0
C475 C 0.51392 0.02921 0.94007 0.0
C476 C 0.59176 0.14818 0.03393 0.0
C477 C 0.61286 0.14439 0.02806 0.0
C478 C 0.60872 0.11841 0.02518 0.0
C479 C 0.58279 0.09589 0.02779 0.0
C480 C 0.5617 0.09974 0.03413 0.0
C481 C 0.56664 0.12588 0.03742 0.0
C482 C 0.63199 0.11506 0.01924 0.0
C483 C 0.53383 0.07631 0.03718 0.0
C484 C 0.54518 0.91473 0.09289 0.0
C485 C 0.53509 0.93317 0.1 0.0
C486 C 0.55779 0.97527 0.08267 0.0
C487 C 0.58358 0.99237 0.07595 0.0
C488 C 0.58772 0.00872 0.06045 0.0
C489 C 0.56547 0.00825 0.05174 0.0
C490 C 0.53938 0.99163 0.05887 0.0
C491 C 0.5358 0.97535 0.0743 0.0
C492 C 0.61581 0.02633 0.05328 0.0
C493 C 0.51528 0.99119 0.05021 0.0
C494 C 0.55746 0.98596 0.96163 0.0
C495 C 0.55867 0.00226 0.9469 0.0
C496 C 0.56291 0.02809 0.94998 0.0
C497 C 0.5666 0.03833 0.96827 0.0
C498 C 0.57159 0.06448 0.97182 0.0
C499 C 0.57504 0.07432 0.98988 0.0
C500 C 0.57384 0.05847 0.00509 0.0
C501 C 0.5775 0.06836 0.0235 0.0
C502 C 0.57525 0.05171 0.03831 0.0
C503 C 0.56941 0.0253 0.03528 0.0
C504 C 0.56643 0.0153 0.01695 0.0
C505 C 0.56117 0.98903 0.01339 0.0
C506 C 0.55815 0.97933 0.9953 0.0
C507 C 0.56025 0.99551 0.98008 0.0
C508 C 0.56517 0.02193 0.98338 0.0
C509 C 0.56858 0.03194 0.00182 0.0
C510 C 0.59693 0.21107 0.02263 0.0
C511 C 0.61187 0.1959 0.02668 0.0
O512 O 0.54577 0.88597 0.94023 0.0
O513 O 0.55498 0.95973 0.0976 0.0
O514 O 0.59493 0.17297 0.03658 0.0
O515 O 0.55989 0.08008 0.88452 0.0
H516 H 0.51763 0.87678 0.91945 0.0
H517 H 0.56446 0.90036 0.90677 0.0
H518 H 0.56813 0.87206 0.9132 0.0
H519 H 0.5437 0.86833 0.89587 0.0
H520 H 0.50589 0.89659 0.94247 0.0
H521 H 0.58983 0.92712 0.95117 0.0
H522 H 0.50523 0.95488 0.94131 0.0
H523 H 0.48488 0.92146 0.95037 0.0
H524 H 0.50272 0.94975 0.96591 0.0
H525 H 0.61967 0.97231 0.95911 0.0
H526 H 0.60889 0.99608 0.95365 0.0
H527 H 0.60467 0.98291 0.97667 0.0
H528 H 0.55321 0.04719 0.86912 0.0
H529 H 0.51381 0.04486 0.85196 0.0
H530 H 0.50894 0.0408 0.87658 0.0
H531 H 0.51695 0.07239 0.86605 0.0
H532 H 0.6021 0.07959 0.89702 0.0
H533 H 0.52054 0.05682 0.90822 0.0
H534 H 0.6171 0.06437 0.94207 0.0
H535 H 0.60876 0.03721 0.92622 0.0
H536 H 0.62857 0.07139 0.91833 0.0
H537 H 0.49674 0.03003 0.93374 0.0
H538 H 0.50828 0.00783 0.94181 0.0
H539 H 0.51774 0.03843 0.9541 0.0
H540 H 0.61686 0.19038 0.01302 0.0
H541 H 0.63259 0.16165 0.02591 0.0
H542 H 0.55063 0.12908 0.04221 0.0
H543 H 0.62931 0.10858 0.0045 0.0
H544 H 0.65149 0.13403 0.02065 0.0
H545 H 0.63269 0.09926 0.02763 0.0
H546 H 0.51904 0.08287 0.04008 0.0
H547 H 0.52704 0.06294 0.0248 0.0
H548 H 0.53411 0.06434 0.04914 0.0
H549 H 0.51679 0.92843 0.09191 0.0
H550 H 0.52953 0.89333 0.0947 0.0
H551 H 0.54994 0.91836 0.07788 0.0
H552 H 0.56362 0.91863 0.10047 0.0
H553 H 0.60046 0.99251 0.08272 0.0
H554 H 0.51591 0.96321 0.07998 0.0
H555 H 0.6168 0.02159 0.03845 0.0
H556 H 0.62114 0.04772 0.05411 0.0
H557 H 0.6309 0.02375 0.06124 0.0
H558 H 0.49644 0.9779 0.05779 0.0
H559 H 0.51831 0.01183 0.04996 0.0
H560 H 0.51297 0.9841 0.03562 0.0
H561 H 0.55623 0.99469 0.93279 0.0
H562 H 0.57288 0.07764 0.96066 0.0
H563 H 0.57865 0.09455 0.99175 0.0
H564 H 0.57762 0.05926 0.05241 0.0
H565 H 0.5594 0.97569 0.02455 0.0
H566 H 0.55409 0.95895 0.99338 0.0
H567 H 0.60939 0.22906 0.01399 0.0
H568 H 0.57812 0.19782 0.01489 0.0
H569 H 0.59171 0.21752 0.03578 0.0
C570 C 0.70908 0.55174 0.09381 0.0
C571 C 0.68861 0.52374 0.10092 0.0
C572 C 0.65828 0.53138 0.11962 0.0
C573 C 0.63168 0.51061 0.11809 0.0
C574 C 0.61044 0.51546 0.1214 0.0
C575 C 0.61617 0.54174 0.12612 0.0
C576 C 0.64317 0.56285 0.12727 0.0
C577 C 0.66393 0.55724 0.12434 0.0
C578 C 0.58194 0.49248 0.12024 0.0
C579 C 0.65012 0.59125 0.13182 0.0
C580 C 0.50422 0.58391 0.02466 0.0
C581 C 0.52128 0.5898 0.04142 0.0
C582 C 0.52285 0.56805 0.07012 0.0
C583 C 0.5484 0.58863 0.07568 0.0
C584 C 0.56092 0.58578 0.09153 0.0
C585 C 0.54785 0.5617 0.10185 0.0
C586 C 0.52225 0.54085 0.09619 0.0
C587 C 0.50996 0.54448 0.08051 0.0
C588 C 0.58813 0.6085 0.09727 0.0
C589 C 0.50797 0.51467 0.10662 0.0
C590 C 0.47978 0.60003 0.20154 0.0
C591 C 0.50682 0.61889 0.19823 0.0
C592 C 0.52569 0.61057 0.19549 0.0
C593 C 0.51727 0.58285 0.19604 0.0
C594 C 0.49022 0.56394 0.20007 0.0
C595 C 0.47187 0.57286 0.20298 0.0
C596 C 0.55457 0.63133 0.19182 0.0
C597 C 0.48061 0.53427 0.20092 0.0
C598 C 0.65419 0.52373 0.25508 0.0
C599 C 0.62434 0.51359 0.25816 0.0
C600 C 0.60582 0.5411 0.24762 0.0
C601 C 0.6157 0.56777 0.24238 0.0
C602 C 0.60278 0.57439 0.22858 0.0
C603 C 0.57915 0.55377 0.22018 0.0
C604 C 0.56801 0.52699 0.22643 0.0
C605 C 0.58148 0.52093 0.24011 0.0
C606 C 0.61495 0.60319 0.22242 0.0
C607 C 0.54235 0.50468 0.2182 0.0
C608 C 0.5941 0.5472 0.13029 0.0
C609 C 0.58078 0.55099 0.11542 0.0
C610 C 0.56118 0.55814 0.11837 0.0
C611 C 0.55485 0.56203 0.13666 0.0
C612 C 0.53604 0.5703 0.14012 0.0
C613 C 0.52998 0.57406 0.15818 0.0
C614 C 0.54251 0.56972 0.17349 0.0
C615 C 0.53658 0.57358 0.19192 0.0
C616 C 0.54892 0.56845 0.20682 0.0
C617 C 0.56734 0.55976 0.20384 0.0
C618 C 0.57402 0.55643 0.18552 0.0
C619 C 0.59296 0.54832 0.18204 0.0
C620 C 0.59946 0.54515 0.164 0.0
C621 C 0.58725 0.5499 0.1487 0.0
C622 C 0.5678 0.55767 0.15188 0.0
C623 C 0.56143 0.56127 0.17031 0.0
C624 C 0.43352 0.61496 0.1828 0.0
C625 C 0.4596 0.62748 0.19401 0.0
O626 O 0.67865 0.52627 0.11781 0.0
O627 O 0.62037 0.53539 0.25968 0.0
O628 O 0.46088 0.60732 0.20366 0.0
O629 O 0.51004 0.57007 0.05488 0.0
H630 H 0.67196 0.51385 0.09063 0.0
H631 H 0.69933 0.56404 0.09196 0.0
H632 H 0.72589 0.56209 0.10387 0.0
H633 H 0.71727 0.55041 0.08016 0.0
H634 H 0.62766 0.49055 0.11469 0.0
H635 H 0.68468 0.57303 0.12567 0.0
H636 H 0.57118 0.49629 0.10893 0.0
H637 H 0.58089 0.47295 0.11753 0.0
H638 H 0.5713 0.49103 0.1334 0.0
H639 H 0.67176 0.60583 0.12973 0.0
H640 H 0.63815 0.59728 0.12305 0.0
H641 H 0.6451 0.59241 0.14653 0.0
H642 H 0.52992 0.61062 0.04699 0.0
H643 H 0.52649 0.57815 0.00326 0.0
H644 H 0.48333 0.5679 0.02869 0.0
H645 H 0.49908 0.6004 0.02423 0.0
H646 H 0.55865 0.60703 0.06779 0.0
H647 H 0.49031 0.52871 0.07609 0.0
H648 H 0.6033 0.60214 0.09559 0.0
H649 H 0.59443 0.62687 0.08888 0.0
H650 H 0.58794 0.6135 0.11214 0.0
H651 H 0.48929 0.49962 0.09948 0.0
H652 H 0.5214 0.50614 0.10828 0.0
H653 H 0.50271 0.51833 0.12072 0.0
H654 H 0.47629 0.63723 0.18385 0.0
H655 H 0.51325 0.64009 0.19793 0.0
H656 H 0.45103 0.55855 0.20587 0.0
H657 H 0.55999 0.62873 0.1775 0.0
H658 H 0.55834 0.65216 0.19337 0.0
H659 H 0.56795 0.62847 0.2015 0.0
H660 H 0.45871 0.52207 0.20353 0.0
H661 H 0.48522 0.52755 0.18768 0.0
H662 H 0.49141 0.53039 0.21217 0.0
H663 H 0.61385 0.50116 0.24572 0.0
H664 H 0.65789 0.50656 0.25427 0.0
H665 H 0.66067 0.53495 0.24181 0.0
H666 H 0.66655 0.53743 0.26647 0.0
H667 H 0.63423 0.58325 0.24855 0.0
H668 H 0.57319 0.5004 0.24478 0.0
H669 H 0.62063 0.60479 0.20756 0.0
H670 H 0.59994 0.60983 0.22371 0.0
H671 H 0.63303 0.61697 0.23066 0.0
H672 H 0.53485 0.48551 0.22586 0.0
H673 H 0.52659 0.51042 0.21826 0.0
H674 H 0.54584 0.50133 0.20354 0.0
H675 H 0.58599 0.54868 0.10134 0.0
H676 H 0.52585 0.57404 0.1289 0.0
H677 H 0.51532 0.5804 0.15998 0.0
H678 H 0.54404 0.57114 0.22091 0.0
H679 H 0.60311 0.54444 0.19323 0.0
H680 H 0.61417 0.53886 0.16219 0.0
H681 H 0.43209 0.63063 0.17472 0.0
H682 H 0.43306 0.59989 0.1729 0.0
H683 H 0.41587 0.60478 0.19211 0.0
In684 In 0.62503 0.41331 0.40935 0.0
O685 O 0.66969 0.43957 0.41719 0.0
O686 O 0.65941 0.41625 0.39245 0.0
C687 C 0.6105 0.43142 0.43936 0.0
C688 C 0.61088 0.42791 0.37769 0.0
C689 C 0.60095 0.35982 0.41564 0.0
O690 O 0.62522 0.42102 0.44063 0.0
O691 O 0.60421 0.4337 0.423 0.0
O692 O 0.62583 0.37448 0.41335 0.0
O693 O 0.58789 0.37198 0.41443 0.0
C694 C 0.67778 0.43253 0.4031 0.0
O695 O 0.6008 0.40365 0.38247 0.0
O696 O 0.62768 0.4447 0.38902 0.0
In697 In 0.23707 0.62568 0.58104 0.0
O698 O 0.25967 0.60734 0.56629 0.0
O699 O 0.25788 0.60621 0.59567 0.0
C700 C 0.20564 0.62568 0.55319 0.0
C701 C 0.20167 0.60693 0.60924 0.0
C702 C 0.27802 0.67678 0.5826 0.0
O703 O 0.20916 0.6059 0.55573 0.0
O704 O 0.21723 0.64443 0.56482 0.0
O705 O 0.26603 0.66382 0.59695 0.0
O706 O 0.26974 0.66379 0.56761 0.0
C707 C 0.26661 0.60097 0.58119 0.0
O708 O 0.21832 0.63153 0.60701 0.0
O709 O 0.20234 0.5916 0.59692 0.0
In710 In 0.63829 0.22861 0.73771 0.0
O711 O 0.68225 0.23921 0.7401 0.0
O712 O 0.67259 0.26907 0.74742 0.0
C713 C 0.62504 0.20824 0.70297 0.0
C714 C 0.62583 0.19114 0.76411 0.0
C715 C 0.60745 0.25171 0.73888 0.0
O716 O 0.64564 0.23053 0.70646 0.0
O717 O 0.61167 0.19578 0.71702 0.0
O718 O 0.60278 0.23181 0.74883 0.0
O719 O 0.62771 0.26 0.72858 0.0
C720 C 0.69049 0.26275 0.74591 0.0
O721 O 0.6247 0.21225 0.76688 0.0
O722 O 0.63329 0.189 0.74803 0.0
In723 In 0.41992 0.6214 0.91171 0.0
O724 O 0.38072 0.60705 0.92763 0.0
O725 O 0.37862 0.60572 0.8983 0.0
C726 C 0.44356 0.60349 0.93553 0.0
C727 C 0.43428 0.6081 0.87945 0.0
C728 C 0.43953 0.67388 0.91985 0.0
O729 O 0.41899 0.58976 0.93136 0.0
O730 O 0.45614 0.62582 0.92743 0.0
O731 O 0.43326 0.66489 0.90349 0.0
O732 O 0.43549 0.65642 0.93188 0.0
C733 C 0.36615 0.60129 0.91338 0.0
O734 O 0.44191 0.63214 0.88386 0.0
O735 O 0.41964 0.59097 0.89133 0.0
In736 In 0.81618 0.40185 0.07943 0.0
O737 O 0.83629 0.39465 0.10443 0.0
O738 O 0.84774 0.43493 0.09758 0.0
C739 C 0.77676 0.35092 0.07268 0.0
C740 C 0.78569 0.42402 0.08755 0.0
C741 C 0.85171 0.4145 0.05154 0.0
O742 O 0.78928 0.358 0.08791 0.0
O743 O 0.78436 0.36938 0.06083 0.0
O744 O 0.84001 0.4277 0.05475 0.0
O745 O 0.84542 0.39504 0.06235 0.0
C746 C 0.85038 0.41929 0.10849 0.0
O747 O 0.79625 0.42665 0.07177 0.0
O748 O 0.79027 0.41012 0.09883 0.0
In749 In 0.43082 0.8147 0.24645 0.0
O750 O 0.43046 0.77743 0.25803 0.0
O751 O 0.4533 0.79521 0.23385 0.0
C752 C 0.44275 0.8434 0.27819 0.0
C753 C 0.45734 0.85199 0.22004 0.0
C754 C 0.37679 0.78533 0.24248 0.0
O755 O 0.45004 0.82635 0.27519 0.0
O756 O 0.42999 0.84635 0.26501 0.0
O757 O 0.39273 0.78637 0.23012 0.0
O758 O 0.38805 0.79963 0.25656 0.0
C759 C 0.44522 0.7765 0.2455 0.0
O760 O 0.43247 0.83555 0.21907 0.0
O761 O 0.46859 0.85003 0.2345 0.0
H762 H 0.22545 0.71445 0.27818 0.0
H763 H 0.20228 0.66788 0.22718 0.0
H764 H 0.24968 0.69094 0.21725 0.0
H765 H 0.27572 0.77588 0.25847 0.0
H766 H 0.29827 0.7852 0.27801 0.0
H767 H 0.26267 0.76444 0.28143 0.0
H768 H 0.26995 0.7281 0.29712 0.0
H769 H 0.3056 0.74887 0.29391 0.0
H770 H 0.28832 0.71498 0.285 0.0
H771 H 0.29942 0.71976 0.21258 0.0
H772 H 0.34831 0.75129 0.21401 0.0
H773 H 0.339 0.77902 0.26808 0.0
C774 C 0.23046 0.70883 0.26507 0.0
C775 C 0.21031 0.68897 0.25361 0.0
C776 C 0.21751 0.68266 0.23631 0.0
C777 C 0.24433 0.69573 0.23053 0.0
C778 C 0.26369 0.71518 0.24215 0.0
C779 C 0.25714 0.72164 0.2591 0.0
C780 C 0.28176 0.74349 0.26888 0.0
C781 C 0.27945 0.76875 0.27186 0.0
C782 C 0.2867 0.73324 0.28732 0.0
C783 C 0.30316 0.74838 0.25475 0.0
C784 C 0.29232 0.73189 0.23942 0.0
C785 C 0.30815 0.73276 0.22453 0.0
C786 C 0.33587 0.75076 0.22544 0.0
C787 C 0.34741 0.76761 0.24113 0.0
C788 C 0.33074 0.76645 0.25588 0.0
H789 H 0.60585 0.22902 0.44291 0.0
H790 H 0.52968 0.20107 0.47059 0.0
H791 H 0.52623 0.23862 0.45694 0.0
H792 H 0.63072 0.29666 0.45187 0.0
H793 H 0.64808 0.30849 0.43012 0.0
H794 H 0.6424 0.27717 0.43954 0.0
H795 H 0.61849 0.25271 0.40909 0.0
H796 H 0.62412 0.28405 0.39956 0.0
H797 H 0.5906 0.25558 0.40056 0.0
H798 H 0.53318 0.28155 0.44263 0.0
H799 H 0.55107 0.32746 0.43024 0.0
H800 H 0.62366 0.32821 0.41329 0.0
C801 C 0.58826 0.23058 0.44584 0.0
C802 C 0.56805 0.21221 0.45782 0.0
C803 C 0.54536 0.21494 0.46142 0.0
C804 C 0.54319 0.23613 0.45368 0.0
C805 C 0.56386 0.25436 0.44234 0.0
C806 C 0.58596 0.25178 0.43843 0.0
C807 C 0.60662 0.27541 0.42737 0.0
C808 C 0.63353 0.29031 0.43786 0.0
C809 C 0.61016 0.26639 0.40799 0.0
C810 C 0.59313 0.29216 0.42622 0.0
C811 C 0.56822 0.27943 0.43456 0.0
C812 C 0.55253 0.29158 0.43589 0.0
C813 C 0.56282 0.31761 0.4288 0.0
C814 C 0.58869 0.33129 0.42082 0.0
C815 C 0.60376 0.31816 0.41926 0.0
H816 H 0.36773 0.57046 0.63519 0.0
H817 H 0.41286 0.5874 0.58408 0.0
H818 H 0.37569 0.58752 0.56703 0.0
H819 H 0.29926 0.52897 0.61487 0.0
H820 H 0.28532 0.54352 0.63027 0.0
H821 H 0.31328 0.54001 0.63775 0.0
H822 H 0.34045 0.59096 0.64519 0.0
H823 H 0.31266 0.59461 0.63775 0.0
H824 H 0.34514 0.61477 0.62731 0.0
H825 H 0.33557 0.59054 0.55619 0.0
H826 H 0.29783 0.59932 0.55308 0.0
H827 H 0.28003 0.58209 0.61154 0.0
C828 C 0.36935 0.5733 0.62029 0.0
C829 C 0.3928 0.57806 0.61089 0.0
C830 C 0.39478 0.58292 0.59152 0.0
C831 C 0.37375 0.58304 0.58171 0.0
C832 C 0.35099 0.57851 0.59148 0.0
C833 C 0.34873 0.57379 0.61037 0.0
C834 C 0.32377 0.5727 0.61806 0.0
C835 C 0.30425 0.54462 0.62568 0.0
C836 C 0.33095 0.59457 0.63294 0.0
C837 C 0.31277 0.57841 0.60067 0.0
C838 C 0.32839 0.58115 0.58538 0.0
C839 C 0.32299 0.58807 0.56801 0.0
C840 C 0.3015 0.59297 0.56636 0.0
C841 C 0.28599 0.59129 0.58205 0.0
C842 C 0.29139 0.58329 0.59927 0.0
H843 H 0.81121 0.40158 0.78144 0.0
H844 H 0.84774 0.35674 0.80244 0.0
H845 H 0.81319 0.31606 0.78629 0.0
H846 H 0.74541 0.35123 0.78961 0.0
H847 H 0.73136 0.35803 0.76938 0.0
H848 H 0.76139 0.38451 0.77986 0.0
H849 H 0.78614 0.39328 0.74841 0.0
H850 H 0.75612 0.36673 0.73781 0.0
H851 H 0.78701 0.36603 0.73664 0.0
H852 H 0.77273 0.27948 0.76981 0.0
H853 H 0.72775 0.24923 0.7565 0.0
H854 H 0.71585 0.31729 0.74876 0.0
C855 C 0.81207 0.38327 0.78253 0.0
C856 C 0.83204 0.38226 0.79333 0.0
C857 C 0.83259 0.35794 0.79426 0.0
C858 C 0.81311 0.33477 0.78509 0.0
C859 C 0.7932 0.33624 0.77506 0.0
C860 C 0.79247 0.35985 0.77381 0.0
C861 C 0.76745 0.35549 0.76385 0.0
C862 C 0.7504 0.36273 0.77643 0.0
C863 C 0.77462 0.37132 0.74559 0.0
C864 C 0.75378 0.32558 0.76022 0.0
C865 C 0.76928 0.31495 0.76633 0.0
C866 C 0.7605 0.2876 0.76487 0.0
C867 C 0.73499 0.2706 0.75728 0.0
C868 C 0.71844 0.281 0.75169 0.0
C869 C 0.72816 0.30886 0.75295 0.0
H870 H 0.49934 0.83038 0.90098 0.0
H871 H 0.53279 0.84441 0.95671 0.0
H872 H 0.50994 0.7957 0.96191 0.0
H873 H 0.43517 0.77071 0.91096 0.0
H874 H 0.43465 0.75419 0.88954 0.0
H875 H 0.45155 0.79033 0.89067 0.0
H876 H 0.49532 0.79297 0.87896 0.0
H877 H 0.47857 0.75688 0.87779 0.0
H878 H 0.50887 0.77517 0.89128 0.0
H879 H 0.48483 0.74558 0.9609 0.0
H880 H 0.46128 0.69733 0.95308 0.0
H881 H 0.44636 0.71542 0.89738 0.0
C882 C 0.50174 0.82321 0.91432 0.0
C883 C 0.51788 0.84141 0.92838 0.0
C884 C 0.52054 0.83113 0.94565 0.0
C885 C 0.50758 0.80339 0.94879 0.0
C886 C 0.49221 0.78612 0.93452 0.0
C887 C 0.48937 0.79558 0.91758 0.0
C888 C 0.47321 0.7727 0.90414 0.0
C889 C 0.44709 0.77195 0.8985 0.0
C890 C 0.49 0.77454 0.88704 0.0
C891 C 0.46762 0.74889 0.91615 0.0
C892 C 0.47846 0.75711 0.9337 0.0
C893 C 0.47621 0.73889 0.94723 0.0
C894 C 0.46278 0.71153 0.94265 0.0
C895 C 0.45203 0.70267 0.92463 0.0
C896 C 0.45435 0.72163 0.91127 0.0
H897 H 0.70624 0.50367 0.07314 0.0
H898 H 0.70131 0.50558 0.13324 0.0
H899 H 0.72362 0.47883 0.13582 0.0
H900 H 0.69689 0.43671 0.06859 0.0
H901 H 0.72125 0.44592 0.05033 0.0
H902 H 0.70305 0.46365 0.053 0.0
H903 H 0.7479 0.50875 0.05531 0.0
H904 H 0.76623 0.49116 0.05265 0.0
H905 H 0.77238 0.51265 0.07251 0.0
H906 H 0.74659 0.45218 0.13214 0.0
H907 H 0.77147 0.42967 0.12246 0.0
H908 H 0.76474 0.44752 0.06487 0.0
C909 C 0.70971 0.49829 0.08683 0.0
C910 C 0.70164 0.50653 0.10291 0.0
C911 C 0.70687 0.49936 0.12063 0.0
C912 C 0.71961 0.48414 0.12227 0.0
C913 C 0.72739 0.47655 0.10615 0.0
C914 C 0.72289 0.48356 0.08876 0.0
C915 C 0.7347 0.47414 0.07371 0.0
C916 C 0.71265 0.4539 0.06064 0.0
C917 C 0.75661 0.4981 0.06291 0.0
C918 C 0.74651 0.4607 0.08539 0.0
C919 C 0.74177 0.46211 0.10404 0.0
C920 C 0.75048 0.45099 0.11758 0.0
C921 C 0.76455 0.43822 0.11193 0.0
C922 C 0.77007 0.43692 0.09293 0.0
C923 C 0.76088 0.44831 0.0795 0.0
H924 H 0.35072 0.82535 0.54381 0.0
H925 H 0.38321 0.85276 0.59903 0.0
H926 H 0.36451 0.80561 0.60899 0.0
H927 H 0.29028 0.7707 0.55713 0.0
H928 H 0.28848 0.74873 0.5386 0.0
H929 H 0.30669 0.78452 0.53534 0.0
H930 H 0.34935 0.78256 0.52672 0.0
H931 H 0.3312 0.74667 0.52987 0.0
H932 H 0.36193 0.76715 0.54249 0.0
H933 H 0.33793 0.75568 0.61376 0.0
H934 H 0.3069 0.70655 0.61259 0.0
H935 H 0.29398 0.71198 0.55383 0.0
C936 C 0.35458 0.82147 0.55784 0.0
C937 C 0.36897 0.84271 0.57056 0.0
C938 C 0.37273 0.83674 0.589 0.0
C939 C 0.36218 0.81008 0.59476 0.0
C940 C 0.34805 0.78962 0.58189 0.0
C941 C 0.34449 0.79501 0.56375 0.0
C942 C 0.32734 0.76939 0.55291 0.0
C943 C 0.30168 0.76828 0.54557 0.0
C944 C 0.34342 0.76627 0.53706 0.0
C945 C 0.32111 0.74878 0.56792 0.0
C946 C 0.33329 0.76081 0.58454 0.0
C947 C 0.32871 0.74598 0.60075 0.0
C948 C 0.31105 0.71815 0.59998 0.0
C949 C 0.29839 0.70553 0.58309 0.0
C950 C 0.30386 0.72105 0.56685 0.0
H951 H 0.55082 0.34227 0.69843 0.0
H952 H 0.48658 0.30542 0.73865 0.0
H953 H 0.50766 0.28094 0.75211 0.0
H954 H 0.55598 0.28474 0.68989 0.0
H955 H 0.59193 0.30268 0.68733 0.0
H956 H 0.57307 0.31903 0.68195 0.0
H957 H 0.60213 0.35734 0.70512 0.0
H958 H 0.62116 0.34114 0.71052 0.0
H959 H 0.60509 0.34924 0.72884 0.0
H960 H 0.53425 0.25832 0.75983 0.0
H961 H 0.56443 0.23936 0.76124 0.0
H962 H 0.61111 0.29105 0.71589 0.0
C963 C 0.54151 0.32944 0.7103 0.0
C964 C 0.51734 0.32609 0.71774 0.0
C965 C 0.50533 0.30859 0.73296 0.0
C966 C 0.51713 0.2946 0.74066 0.0
C967 C 0.54088 0.29825 0.73293 0.0
C968 C 0.55297 0.3153 0.71811 0.0
C969 C 0.57763 0.3146 0.71174 0.0
C970 C 0.57445 0.30466 0.69153 0.0
C971 C 0.603 0.34222 0.71421 0.0
C972 C 0.57736 0.29426 0.72514 0.0
C973 C 0.55608 0.28514 0.73731 0.0
C974 C 0.55112 0.2655 0.75048 0.0
C975 C 0.56832 0.25482 0.75116 0.0
C976 C 0.59013 0.26382 0.73874 0.0
C977 C 0.59474 0.28394 0.72569 0.0
H978 H 0.21564 0.52145 0.87576 0.0
H979 H 0.18997 0.52863 0.93097 0.0
H980 H 0.23736 0.55541 0.94093 0.0
H981 H 0.27009 0.51371 0.88958 0.0
H982 H 0.29179 0.5331 0.87084 0.0
H983 H 0.25596 0.51585 0.86775 0.0
H984 H 0.25847 0.56057 0.85856 0.0
H985 H 0.29436 0.57796 0.8615 0.0
H986 H 0.27458 0.58909 0.87399 0.0
H987 H 0.28729 0.5788 0.94537 0.0
H988 H 0.33651 0.59877 0.94365 0.0
H989 H 0.32964 0.57762 0.88525 0.0
C990 C 0.22003 0.52917 0.88982 0.0
C991 C 0.19918 0.52354 0.90251 0.0
C992 C 0.2057 0.53324 0.92097 0.0
C993 C 0.2325 0.54837 0.92675 0.0
C994 C 0.25256 0.55361 0.91389 0.0
C995 C 0.24667 0.54449 0.89578 0.0
C996 C 0.27197 0.55228 0.88486 0.0
C997 C 0.27247 0.52724 0.87785 0.0
C998 C 0.27502 0.5711 0.86878 0.0
C999 C 0.29298 0.56691 0.89974 0.0
C1000 C 0.28137 0.56741 0.91639 0.0
C1001 C 0.29664 0.5788 0.93236 0.0
C1002 C 0.32454 0.59001 0.93126 0.0
C1003 C 0.33683 0.58988 0.9143 0.0
C1004 C 0.32079 0.57828 0.89835 0.0
H1005 H 0.65832 0.2369 0.0128 0.0
H1006 H 0.62259 0.1967 0.06457 0.0
H1007 H 0.66336 0.22942 0.08147 0.0
H1008 H 0.7289 0.25814 0.02422 0.0
H1009 H 0.74132 0.29011 0.01293 0.0
H1010 H 0.71111 0.26115 0.00462 0.0
H1011 H 0.68537 0.28713 0.0083 0.0
H1012 H 0.7154 0.31607 0.01666 0.0
H1013 H 0.68537 0.30167 0.0305 0.0
H1014 H 0.7069 0.26845 0.093 0.0
H1015 H 0.74798 0.31226 0.09842 0.0
H1016 H 0.75366 0.32843 0.03935 0.0
C1017 C 0.65941 0.23463 0.02764 0.0
C1018 C 0.63755 0.21388 0.03726 0.0
C1019 C 0.63927 0.21203 0.05679 0.0
C1020 C 0.66237 0.23055 0.06652 0.0
C1021 C 0.68342 0.25096 0.05659 0.0
C1022 C 0.68207 0.25317 0.03758 0.0
C1023 C 0.70614 0.27844 0.03039 0.0
C1024 C 0.72286 0.27154 0.01726 0.0
C1025 C 0.69754 0.29691 0.02092 0.0
C1026 C 0.72094 0.29048 0.04839 0.0
C1027 C 0.70784 0.27408 0.0633 0.0
C1028 C 0.71741 0.28136 0.08141 0.0
C1029 C 0.74075 0.30624 0.08435 0.0
C1030 C 0.75391 0.32367 0.0693 0.0
C1031 C 0.744 0.31547 0.05111 0.0
H1032 H 0.48067 0.6812 0.18762 0.0
H1033 H 0.43847 0.62037 0.2294 0.0
H1034 H 0.43528 0.65389 0.24909 0.0
H1035 H 0.51735 0.73935 0.21989 0.0
H1036 H 0.51313 0.76168 0.20457 0.0
H1037 H 0.51573 0.73401 0.19515 0.0
H1038 H 0.47054 0.71701 0.17786 0.0
H1039 H 0.46776 0.7445 0.18726 0.0
H1040 H 0.44116 0.71046 0.19086 0.0
H1041 H 0.43227 0.69263 0.26258 0.0
H1042 H 0.42865 0.73309 0.26834 0.0
H1043 H 0.47241 0.76844 0.21756 0.0
C1044 C 0.47154 0.67522 0.20119 0.0
C1045 C 0.46055 0.64843 0.20724 0.0
C1046 C 0.44771 0.64097 0.22473 0.0
C1047 C 0.44577 0.65987 0.23599 0.0
C1048 C 0.45665 0.68609 0.22952 0.0
C1049 C 0.46935 0.69378 0.21253 0.0
C1050 C 0.477 0.72241 0.20796 0.0
C1051 C 0.50763 0.74043 0.20683 0.0
C1052 C 0.46329 0.72365 0.18993 0.0
C1053 C 0.46587 0.72935 0.22474 0.0
C1054 C 0.45455 0.7083 0.23716 0.0
C1055 C 0.44144 0.70941 0.2531 0.0
C1056 C 0.43946 0.73244 0.25626 0.0
C1057 C 0.45038 0.75393 0.24346 0.0
C1058 C 0.46418 0.75248 0.22772 0.0
H1059 H 0.79796 0.44171 0.34397 0.0
H1060 H 0.85268 0.49062 0.38787 0.0
H1061 H 0.81435 0.48714 0.40554 0.0
H1062 H 0.75525 0.46947 0.3462 0.0
H1063 H 0.72518 0.43797 0.34152 0.0
H1064 H 0.75688 0.44398 0.33258 0.0
H1065 H 0.75027 0.40084 0.34869 0.0
H1066 H 0.71847 0.39459 0.35758 0.0
H1067 H 0.74386 0.39673 0.37329 0.0
H1068 H 0.76927 0.47821 0.41838 0.0
H1069 H 0.7218 0.4643 0.42501 0.0
H1070 H 0.69811 0.42151 0.37246 0.0
C1071 C 0.80222 0.4514 0.35739 0.0
C1072 C 0.82859 0.46563 0.36475 0.0
C1073 C 0.83267 0.47881 0.38215 0.0
C1074 C 0.81103 0.4771 0.39227 0.0
C1075 C 0.78535 0.46243 0.38471 0.0
C1076 C 0.78094 0.44984 0.36766 0.0
C1077 C 0.75157 0.43555 0.3624 0.0
C1078 C 0.74696 0.44746 0.34463 0.0
C1079 C 0.74039 0.40512 0.36038 0.0
C1080 C 0.74006 0.44196 0.37918 0.0
C1081 C 0.75977 0.45757 0.39192 0.0
C1082 C 0.75369 0.46597 0.40849 0.0
C1083 C 0.72673 0.45803 0.41213 0.0
C1084 C 0.70631 0.44183 0.39927 0.0
C1085 C 0.71324 0.43387 0.3826 0.0
H1086 H 0.09734 0.57647 0.47075 0.0
H1087 H 0.11906 0.65999 0.46471 0.0
H1088 H 0.15358 0.67285 0.48904 0.0
H1089 H 0.10404 0.57791 0.51977 0.0
H1090 H 0.11778 0.55584 0.52056 0.0
H1091 H 0.09586 0.55311 0.50179 0.0
H1092 H 0.13219 0.55953 0.47795 0.0
H1093 H 0.1542 0.56214 0.49664 0.0
H1094 H 0.16528 0.58858 0.47972 0.0
H1095 H 0.18341 0.67655 0.51494 0.0
H1096 H 0.20838 0.6713 0.54074 0.0
H1097 H 0.16857 0.58543 0.53024 0.0
C1098 C 0.10974 0.5975 0.47435 0.0
C1099 C 0.1059 0.61734 0.46561 0.0
C1100 C 0.12198 0.64457 0.47101 0.0
C1101 C 0.14158 0.65204 0.48483 0.0
C1102 C 0.14479 0.63204 0.49319 0.0
C1103 C 0.12947 0.60534 0.48816 0.0
C1104 C 0.13648 0.58784 0.49991 0.0
C1105 C 0.11209 0.56747 0.51117 0.0
C1106 C 0.14771 0.57369 0.48783 0.0
C1107 C 0.15799 0.6089 0.51242 0.0
C1108 C 0.16234 0.63422 0.50825 0.0
C1109 C 0.18036 0.65688 0.51825 0.0
C1110 C 0.19436 0.65364 0.53293 0.0
C1111 C 0.19044 0.62797 0.53746 0.0
C1112 C 0.17212 0.60531 0.52697 0.0
H1113 H 0.51762 0.09446 0.6259 0.0
H1114 H 0.54401 0.17534 0.58258 0.0
H1115 H 0.58374 0.2088 0.61017 0.0
H1116 H 0.53039 0.1387 0.66973 0.0
H1117 H 0.54331 0.12242 0.68438 0.0
H1118 H 0.52218 0.10463 0.6649 0.0
H1119 H 0.55926 0.09562 0.65254 0.0
H1120 H 0.5805 0.11391 0.67192 0.0
H1121 H 0.59247 0.12358 0.64855 0.0
H1122 H 0.61688 0.22505 0.64098 0.0
H1123 H 0.63769 0.23895 0.67196 0.0
H1124 H 0.5903 0.15714 0.69139 0.0
C1125 C 0.52971 0.11566 0.6229 0.0
C1126 C 0.5301 0.13014 0.5996 0.0
C1127 C 0.5459 0.16713 0.59561 0.0
C1128 C 0.57167 0.18735 0.61216 0.0
C1129 C 0.57662 0.17217 0.63227 0.0
C1130 C 0.55622 0.13839 0.63796 0.0
C1131 C 0.56317 0.13502 0.65739 0.0
C1132 C 0.5383 0.12459 0.66983 0.0
C1133 C 0.57452 0.1159 0.65761 0.0
C1134 C 0.58487 0.16391 0.66271 0.0
C1135 C 0.59232 0.18352 0.64879 0.0
C1136 C 0.61151 0.21029 0.65185 0.0
C1137 C 0.6233 0.21796 0.66943 0.0
C1138 C 0.61545 0.19902 0.68391 0.0
C1139 C 0.59645 0.17183 0.6804 0.0
H1140 H 0.41714 0.49369 0.79929 0.0
H1141 H 0.46686 0.57317 0.75406 0.0
H1142 H 0.47398 0.60887 0.78499 0.0
H1143 H 0.3855 0.52949 0.82681 0.0
H1144 H 0.38771 0.51741 0.84941 0.0
H1145 H 0.38717 0.49912 0.82896 0.0
H1146 H 0.4318 0.50234 0.83958 0.0
H1147 H 0.43235 0.52098 0.85989 0.0
H1148 H 0.46053 0.53488 0.84432 0.0
H1149 H 0.47255 0.62773 0.8204 0.0
H1150 H 0.46365 0.64111 0.85098 0.0
H1151 H 0.41959 0.55766 0.86756 0.0
C1152 C 0.42692 0.51494 0.79629 0.0
C1153 C 0.44551 0.52954 0.77424 0.0
C1154 C 0.45848 0.56544 0.76759 0.0
C1155 C 0.46424 0.58741 0.78705 0.0
C1156 C 0.45292 0.57368 0.80968 0.0
C1157 C 0.43435 0.53933 0.81415 0.0
C1158 C 0.4254 0.53609 0.83386 0.0
C1159 C 0.39463 0.51957 0.83481 0.0
C1160 C 0.43828 0.52279 0.84507 0.0
C1161 C 0.43625 0.56544 0.84008 0.0
C1162 C 0.4513 0.58548 0.82694 0.0
C1163 C 0.4613 0.61262 0.83074 0.0
C1164 C 0.45614 0.62003 0.84812 0.0
C1165 C 0.44097 0.60036 0.86153 0.0
C1166 C 0.43131 0.57301 0.85746 0.0
H1167 H 0.94901 0.51047 0.96336 0.0
H1168 H 0.9829 0.44271 0.95788 0.0
H1169 H 0.9481 0.4139 0.98879 0.0
H1170 H 0.94058 0.50179 0.01899 0.0
H1171 H 0.91057 0.50414 0.01992 0.0
H1172 H 0.93398 0.51972 0.00119 0.0
H1173 H 0.89572 0.49291 0.97739 0.0
H1174 H 0.87248 0.47751 0.99624 0.0
H1175 H 0.87631 0.45682 0.97909 0.0
H1176 H 0.9088 0.39726 0.01577 0.0
H1177 H 0.87586 0.38631 0.0408 0.0
H1178 H 0.87174 0.4578 0.02833 0.0
C1179 C 0.95022 0.49349 0.96857 0.0
C1180 C 0.96616 0.47731 0.95509 0.0
C1181 C 0.97156 0.45032 0.96504 0.0
C1182 C 0.94888 0.43184 0.98351 0.0
C1183 C 0.92767 0.44312 0.99318 0.0
C1184 C 0.92875 0.47281 0.98676 0.0
C1185 C 0.90952 0.47593 0.999 0.0
C1186 C 0.92456 0.50193 0.01045 0.0
C1187 C 0.88719 0.47578 0.98723 0.0
C1188 C 0.89851 0.4508 0.01145 0.0
C1189 C 0.90867 0.4334 0.00811 0.0
C1190 C 0.9007 0.41033 0.01852 0.0
C1191 C 0.882 0.40429 0.03271 0.0
C1192 C 0.87132 0.42122 0.03639 0.0
C1193 C 0.87965 0.44455 0.02564 0.0
H1194 H 0.4855 0.89959 0.11488 0.0
H1195 H 0.56844 0.95277 0.13067 0.0
H1196 H 0.55664 0.94071 0.16359 0.0
H1197 H 0.45452 0.91122 0.15586 0.0
H1198 H 0.42824 0.87657 0.15696 0.0
H1199 H 0.44277 0.89137 0.13492 0.0
H1200 H 0.45421 0.85376 0.12899 0.0
H1201 H 0.43975 0.83888 0.15098 0.0
H1202 H 0.47388 0.84798 0.14587 0.0
H1203 H 0.53645 0.9203 0.19439 0.0
H1204 H 0.5096 0.89241 0.2207 0.0
H1205 H 0.43974 0.85259 0.18482 0.0
C1206 C 0.50103 0.90915 0.12534 0.0
C1207 C 0.52773 0.92767 0.1203 0.0
C1208 C 0.54773 0.93906 0.13429 0.0
C1209 C 0.54122 0.9323 0.153 0.0
C1210 C 0.51467 0.91401 0.15748 0.0
C1211 C 0.49488 0.90259 0.14405 0.0
C1212 C 0.46827 0.88214 0.15236 0.0
C1213 C 0.44721 0.89086 0.14988 0.0
C1214 C 0.45847 0.85403 0.14406 0.0
C1215 C 0.47625 0.88349 0.17253 0.0
C1216 C 0.50306 0.90212 0.17521 0.0
C1217 C 0.51537 0.90589 0.19249 0.0
C1218 C 0.49997 0.88995 0.20734 0.0
C1219 C 0.47257 0.8705 0.20481 0.0
C1220 C 0.46054 0.86758 0.18723 0.0
H1221 H 0.63939 0.52894 0.29454 0.0
H1222 H 0.58752 0.45968 0.26054 0.0
H1223 H 0.57454 0.43074 0.2883 0.0
H1224 H 0.66495 0.49676 0.32146 0.0
H1225 H 0.66683 0.51414 0.34276 0.0
H1226 H 0.66899 0.52993 0.32083 0.0
H1227 H 0.62908 0.53637 0.33004 0.0
H1228 H 0.62684 0.52063 0.35207 0.0
H1229 H 0.59786 0.50771 0.3371 0.0
H1230 H 0.57074 0.40876 0.31907 0.0
H1231 H 0.57699 0.39532 0.3504 0.0
H1232 H 0.63219 0.47884 0.3641 0.0
C1233 C 0.62494 0.50776 0.29303 0.0
C1234 C 0.61441 0.49651 0.27543 0.0
C1235 C 0.59574 0.46868 0.27393 0.0
C1236 C 0.58821 0.45213 0.28961 0.0
C1237 C 0.59951 0.46373 0.30669 0.0
C1238 C 0.61742 0.49094 0.3085 0.0
C1239 C 0.62842 0.49805 0.32807 0.0
C1240 C 0.65911 0.51044 0.32828 0.0
C1241 C 0.62004 0.5168 0.33736 0.0
C1242 C 0.61447 0.47049 0.33685 0.0
C1243 C 0.59758 0.45101 0.32438 0.0
C1244 C 0.58364 0.42387 0.32904 0.0
C1245 C 0.58734 0.41642 0.34684 0.0
C1246 C 0.60499 0.43604 0.35967 0.0
C1247 C 0.61836 0.46342 0.35465 0.0
H1248 H 0.40818 0.91922 0.35592 0.0
H1249 H 0.44529 0.89119 0.39557 0.0
H1250 H 0.46197 0.87513 0.36981 0.0
H1251 H 0.38383 0.86411 0.3267 0.0
H1252 H 0.38928 0.88239 0.30536 0.0
H1253 H 0.38405 0.89556 0.32661 0.0
H1254 H 0.429 0.9399 0.32191 0.0
H1255 H 0.43434 0.92685 0.30056 0.0
H1256 H 0.45944 0.93878 0.31862 0.0
H1257 H 0.47007 0.85756 0.34017 0.0
H1258 H 0.4683 0.83906 0.30888 0.0
H1259 H 0.42516 0.87775 0.28852 0.0
C1260 C 0.42035 0.91025 0.35911 0.0
C1261 C 0.42562 0.90657 0.3777 0.0
C1262 C 0.44122 0.89435 0.38141 0.0
C1263 C 0.45081 0.88524 0.36688 0.0
C1264 C 0.44468 0.88855 0.34871 0.0
C1265 C 0.42989 0.90085 0.34477 0.0
C1266 C 0.4239 0.89965 0.32421 0.0
C1267 C 0.39347 0.88452 0.32051 0.0
C1268 C 0.43749 0.92798 0.31583 0.0
C1269 C 0.4368 0.88391 0.3173 0.0
C1270 C 0.44908 0.8781 0.33159 0.0
C1271 C 0.46089 0.86233 0.32881 0.0
C1272 C 0.45975 0.85188 0.311 0.0
C1273 C 0.44671 0.85707 0.29628 0.0
C1274 C 0.43555 0.8737 0.29945 0.0
H1275 H 0.55566 0.40683 0.54239 0.0
H1276 H 0.49966 0.4316 0.52378 0.0
H1277 H 0.52426 0.44715 0.49433 0.0
H1278 H 0.61648 0.45958 0.51853 0.0
H1279 H 0.62756 0.43624 0.51255 0.0
H1280 H 0.60857 0.43149 0.53346 0.0
H1281 H 0.5737 0.38334 0.52268 0.0
H1282 H 0.59255 0.38794 0.5018 0.0
H1283 H 0.55768 0.37856 0.50036 0.0
H1284 H 0.55173 0.45551 0.46568 0.0
H1285 H 0.57794 0.45322 0.43941 0.0
H1286 H 0.61485 0.42105 0.47593 0.0
C1287 C 0.54901 0.41616 0.53228 0.0
C1288 C 0.526 0.41836 0.53559 0.0
C1289 C 0.51744 0.43002 0.52181 0.0
C1290 C 0.53134 0.43899 0.50499 0.0
C1291 C 0.55362 0.43599 0.50207 0.0
C1292 C 0.56234 0.42475 0.51531 0.0
C1293 C 0.58473 0.42077 0.50791 0.0
C1294 C 0.61089 0.43806 0.51876 0.0
C1295 C 0.57667 0.39089 0.5082 0.0
C1296 C 0.58676 0.43086 0.48827 0.0
C1297 C 0.569 0.44004 0.48529 0.0
C1298 C 0.56596 0.44872 0.4679 0.0
C1299 C 0.58094 0.44734 0.45306 0.0
C1300 C 0.59852 0.43709 0.45566 0.0
C1301 C 0.60189 0.42937 0.4736 0.0
H1302 H 0.12448 0.50052 0.68849 0.0
H1303 H 0.13815 0.56785 0.72337 0.0
H1304 H 0.15352 0.59759 0.69606 0.0
H1305 H 0.1828 0.53521 0.66309 0.0
H1306 H 0.16886 0.51853 0.64128 0.0
H1307 H 0.15438 0.50158 0.66272 0.0
H1308 H 0.10798 0.49396 0.6523 0.0
H1309 H 0.12237 0.51092 0.63077 0.0
H1310 H 0.10469 0.52229 0.64544 0.0
H1311 H 0.1727 0.621 0.66623 0.0
H1312 H 0.19542 0.63676 0.63611 0.0
H1313 H 0.17083 0.55466 0.62056 0.0
C1314 C 0.13035 0.52144 0.69032 0.0
C1315 C 0.13042 0.53197 0.70809 0.0
C1316 C 0.13809 0.55942 0.7099 0.0
C1317 C 0.14673 0.57642 0.69446 0.0
C1318 C 0.14743 0.56564 0.67727 0.0
C1319 C 0.13938 0.53877 0.67508 0.0
C1320 C 0.14474 0.53285 0.65554 0.0
C1321 C 0.16384 0.52138 0.65568 0.0
C1322 C 0.11837 0.51388 0.64542 0.0
C1323 C 0.15803 0.56079 0.64731 0.0
C1324 C 0.15887 0.5793 0.65998 0.0
C1325 C 0.17179 0.60666 0.65609 0.0
C1326 C 0.18469 0.61542 0.63895 0.0
C1327 C 0.18476 0.59691 0.62598 0.0
C1328 C 0.17074 0.5692 0.63009 0.0
H1329 H 0.56341 0.11703 0.85983 0.0
H1330 H 0.57223 0.05085 0.8395 0.0
H1331 H 0.59477 0.0769 0.8114 0.0
H1332 H 0.54763 0.1344 0.8168 0.0
H1333 H 0.5657 0.17012 0.82095 0.0
H1334 H 0.55243 0.14729 0.84018 0.0
H1335 H 0.59976 0.16915 0.85509 0.0
H1336 H 0.61318 0.19217 0.83592 0.0
H1337 H 0.62736 0.17144 0.84185 0.0
H1338 H 0.61373 0.10894 0.78473 0.0
H1339 H 0.62789 0.14481 0.76134 0.0
H1340 H 0.60656 0.1901 0.79902 0.0
C1341 C 0.57058 0.10829 0.84961 0.0
C1342 C 0.56652 0.08213 0.85194 0.0
C1343 C 0.57554 0.07102 0.83808 0.0
C1344 C 0.58832 0.08565 0.82209 0.0
C1345 C 0.59186 0.11132 0.82016 0.0
C1346 C 0.58334 0.1226 0.83357 0.0
C1347 C 0.58839 0.15 0.8277 0.0
C1348 C 0.56196 0.15046 0.82632 0.0
C1349 C 0.60836 0.17199 0.84093 0.0
C1350 C 0.60062 0.15216 0.80875 0.0
C1351 C 0.60262 0.12972 0.80472 0.0
C1352 C 0.61248 0.12672 0.78779 0.0
C1353 C 0.62042 0.14716 0.77458 0.0
C1354 C 0.61838 0.17024 0.77839 0.0
C1355 C 0.60851 0.17276 0.79576 0.0
H1356 H 0.56077 0.63486 0.01688 0.0
H1357 H 0.51052 0.53278 0.02984 0.0
H1358 H 0.4742 0.52666 0.99972 0.0
H1359 H 0.49668 0.63709 0.00265 0.0
H1360 H 0.51162 0.66045 0.98383 0.0
H1361 H 0.53244 0.65965 0.00219 0.0
H1362 H 0.56109 0.65211 0.97767 0.0
H1363 H 0.53995 0.65272 0.95946 0.0
H1364 H 0.5448 0.62425 0.96169 0.0
H1365 H 0.44651 0.53904 0.97309 0.0
H1366 H 0.42547 0.55282 0.94883 0.0
H1367 H 0.49009 0.63512 0.95397 0.0
C1368 C 0.5459 0.61451 0.01314 0.0
C1369 C 0.53702 0.58536 0.02874 0.0
C1370 C 0.51377 0.5497 0.02144 0.0
C1371 C 0.49059 0.54631 0.00341 0.0
C1372 C 0.49454 0.57543 0.9917 0.0
C1373 C 0.52123 0.60778 0.99566 0.0
C1374 C 0.51808 0.62606 0.98254 0.0
C1375 C 0.51449 0.64704 0.99345 0.0
C1376 C 0.54242 0.63957 0.96958 0.0
C1377 C 0.49231 0.60647 0.97188 0.0
C1378 C 0.47979 0.57923 0.97704 0.0
C1379 C 0.45596 0.55983 0.96884 0.0
C1380 C 0.44415 0.56781 0.95512 0.0
C1381 C 0.45639 0.59492 0.94955 0.0
C1382 C 0.48066 0.61419 0.95793 0.0
H1383 H 0.9322 0.53659 0.19095 0.0
H1384 H 0.92953 0.4605 0.2306 0.0
H1385 H 0.9051 0.42492 0.1989 0.0
H1386 H 0.8644 0.48708 0.16546 0.0
H1387 H 0.87391 0.5032 0.14316 0.0
H1388 H 0.88988 0.52201 0.1639 0.0
H1389 H 0.9363 0.53467 0.14999 0.0
H1390 H 0.92007 0.51544 0.1294 0.0
H1391 H 0.94249 0.50834 0.14246 0.0
H1392 H 0.88456 0.4058 0.16361 0.0
H1393 H 0.86061 0.38999 0.13368 0.0
H1394 H 0.87634 0.47038 0.12187 0.0
C1395 C 0.9264 0.51572 0.19286 0.0
C1396 C 0.93819 0.50388 0.21297 0.0
C1397 C 0.92466 0.46737 0.21801 0.0
C1398 C 0.91106 0.44593 0.19797 0.0
C1399 C 0.90662 0.45916 0.17668 0.0
C1400 C 0.91287 0.49195 0.17422 0.0
C1401 C 0.90325 0.49401 0.15539 0.0
C1402 C 0.88158 0.50204 0.15708 0.0
C1403 C 0.92693 0.51432 0.14362 0.0
C1404 C 0.89164 0.46518 0.14779 0.0
C1405 C 0.89377 0.44666 0.15941 0.0
C1406 C 0.883 0.4198 0.15441 0.0
C1407 C 0.86947 0.41101 0.1374 0.0
C1408 C 0.86682 0.42906 0.12554 0.0
C1409 C 0.87839 0.45632 0.13072 0.0
loop_
_geom_bond_atom_site_label_1
_geom_bond_atom_site_label_2
_geom_bond_distance
_geom_bond_site_symmetry_2
_ccdc_geom_bond_type
C0 C1 1.560 . S
C0 H61 0.959 . S
C0 H62 0.959 . S
C0 H63 0.960 . S
C1 C0 1.560 . S
C1 O56 1.426 . S
C1 H60 0.980 . S
C2 C3 1.407 . S
C2 C7 1.418 . S
C2 O56 1.334 . S
C3 C2 1.407 . S
C3 C4 1.360 . S
C3 H64 0.929 . S
C4 C3 1.360 . S
C4 C5 1.401 . S
C4 C8 1.527 . S
C5 C4 1.401 . S
C5 C6 1.405 . S
C5 C38 1.587 . S
C6 C5 1.405 . S
C6 C7 1.332 . S
C6 C9 1.496 . S
C7 C2 1.418 . S
C7 C6 1.332 . S
C7 H65 0.929 . S
C8 C4 1.527 . S
C8 H66 0.959 . S
C8 H67 0.961 . S
C8 H68 0.961 . S
C9 C6 1.496 . S
C9 H69 0.960 . S
C9 H70 0.960 . S
C9 H71 0.961 . S
C10 C11 1.517 . S
C10 H73 0.961 . S
C10 H74 0.960 . S
C10 H75 0.959 . S
C11 C10 1.517 . S
C11 O59 1.468 . S
C11 H72 0.980 . S
C12 C13 1.349 . S
C12 C17 1.367 . S
C12 O59 1.408 . S
C13 C12 1.349 . S
C13 C14 1.407 1_655 S
C13 H76 0.930 . S
C14 C13 1.407 1_455 S
C14 C15 1.449 . S
C14 C18 1.535 . S
C15 C14 1.449 . S
C15 C16 1.384 . S
C15 C40 1.553 . S
C16 C15 1.384 . S
C16 C17 1.365 1_455 S
C16 C19 1.449 . S
C17 C12 1.367 . S
C17 C16 1.365 1_655 S
C17 H77 0.931 . S
C18 C14 1.535 . S
C18 H78 0.959 . S
C18 H79 0.961 . S
C18 H80 0.959 1_455 S
C19 C16 1.449 . S
C19 H81 0.960 . S
C19 H82 0.960 . S
C19 H83 0.962 1_455 S
C20 C21 1.309 . S
C20 C25 1.304 . S
C20 O58 1.435 . S
C21 C20 1.309 . S
C21 C22 1.476 . S
C21 H85 0.930 . S
C22 C21 1.476 . S
C22 C23 1.400 . S
C22 C26 1.567 . S
C23 C22 1.400 . S
C23 C24 1.373 . S
C23 C45 1.432 . S
C24 C23 1.373 . S
C24 C25 1.339 . S
C24 C27 1.530 . S
C25 C20 1.304 . S
C25 C24 1.339 . S
C25 H86 0.930 . S
C26 C22 1.567 . S
C26 H87 0.961 . S
C26 H88 0.960 . S
C26 H89 0.958 . S
C27 C24 1.530 . S
C27 H90 0.961 . S
C27 H91 0.960 . S
C27 H92 0.960 . S
C28 C29 1.530 . S
C28 H94 0.961 . S
C28 H95 0.961 . S
C28 H96 0.959 . S
C29 C28 1.530 . S
C29 O57 1.412 . S
C29 H93 0.980 . S
C30 C31 1.288 . S
C30 C35 1.377 . S
C30 O57 1.393 . S
C31 C30 1.288 . S
C31 C32 1.369 . S
C31 H97 0.932 . S
C32 C31 1.369 . S
C32 C33 1.398 . S
C32 C36 1.527 . S
C33 C32 1.398 . S
C33 C34 1.380 . S
C33 C47 1.497 . S
C34 C33 1.380 . S
C34 C35 1.383 . S
C34 C37 1.603 . S
C35 C30 1.377 . S
C35 C34 1.383 . S
C35 H98 0.929 . S
C36 C32 1.527 . S
C36 H99 0.961 . S
C36 H100 0.959 . S
C36 H101 0.959 . S
C37 C34 1.603 . S
C37 H102 0.960 . S
C37 H103 0.962 . S
C37 H104 0.961 . S
C38 C5 1.587 . S
C38 C39 1.360 . S
C38 C51 1.412 . S
C39 C38 1.360 . S
C39 C40 1.365 . S
C39 H105 0.929 . S
C40 C15 1.553 . S
C40 C39 1.365 . S
C40 C41 1.404 . S
C41 C40 1.404 . S
C41 C42 1.395 1_455 S
C41 C52 1.451 . S
C42 C41 1.395 1_655 S
C42 C43 1.322 . S
C42 H106 0.930 . S
C43 C42 1.322 . S
C43 C44 1.459 . S
C43 H107 0.929 . S
C44 C43 1.459 . S
C44 C45 1.445 . S
C44 C53 1.395 1_655 S
C45 C23 1.432 . S
C45 C44 1.445 . S
C45 C46 1.370 . S
C46 C45 1.370 . S
C46 C47 1.438 1_655 S
C46 H108 0.930 . S
C47 C33 1.497 . S
C47 C46 1.438 1_455 S
C47 C48 1.360 . S
C48 C47 1.360 . S
C48 C49 1.401 . S
C48 C53 1.446 . S
C49 C48 1.401 . S
C49 C50 1.347 . S
C49 H109 0.929 . S
C50 C49 1.347 . S
C50 C51 1.455 . S
C50 H110 0.930 . S
C51 C38 1.412 . S
C51 C50 1.455 . S
C51 C52 1.331 . S
C52 C41 1.451 . S
C52 C51 1.331 . S
C52 C53 1.497 . S
C53 C44 1.395 1_455 S
C53 C48 1.446 . S
C53 C52 1.497 . S
C54 C55 1.582 . S
C54 H111 0.962 . S
C54 H112 0.959 . S
C54 H113 0.958 . S
C55 C54 1.582 . S
C55 O58 1.458 . S
C55 H84 0.980 . S
O56 C1 1.426 . S
O56 C2 1.334 . S
O57 C29 1.412 . S
O57 C30 1.393 . S
O58 C20 1.435 . S
O58 C55 1.458 . S
O59 C11 1.468 . S
O59 C12 1.408 . S
H60 C1 0.980 . S
H61 C0 0.959 . S
H62 C0 0.959 . S
H63 C0 0.960 . S
H64 C3 0.929 . S
H65 C7 0.929 . S
H66 C8 0.959 . S
H67 C8 0.961 . S
H68 C8 0.961 . S
H69 C9 0.960 . S
H70 C9 0.960 . S
H71 C9 0.961 . S
H72 C11 0.980 . S
H73 C10 0.961 . S
H74 C10 0.960 . S
H75 C10 0.959 . S
H76 C13 0.930 . S
H77 C17 0.931 . S
H78 C18 0.959 . S
H79 C18 0.961 . S
H80 C18 0.959 1_655 S
H81 C19 0.960 . S
H82 C19 0.960 . S
H83 C19 0.962 1_655 S
H84 C55 0.980 . S
H85 C21 0.930 . S
H86 C25 0.930 . S
H87 C26 0.961 . S
H88 C26 0.960 . S
H89 C26 0.958 . S
H90 C27 0.961 . S
H91 C27 0.960 . S
H92 C27 0.960 . S
H93 C29 0.980 . S
H94 C28 0.961 . S
H95 C28 0.961 . S
H96 C28 0.959 . S
H97 C31 0.932 . S
H98 C35 0.929 . S
H99 C36 0.961 . S
H100 C36 0.959 . S
H101 C36 0.959 . S
H102 C37 0.960 . S
H103 C37 0.962 . S
H104 C37 0.961 . S
H105 C39 0.929 . S
H106 C42 0.930 . S
H107 C43 0.929 . S
H108 C46 0.930 . S
H109 C49 0.929 . S
H110 C50 0.930 . S
H111 C54 0.962 . S
H112 C54 0.959 . S
H113 C54 0.958 . S
C114 C115 1.560 . S
C114 H175 0.959 . S
C114 H176 0.959 . S
C114 H177 0.960 . S
C115 C114 1.560 . S
C115 O170 1.426 . S
C115 H174 0.980 . S
C116 C117 1.407 . S
C116 C121 1.418 . S
C116 O170 1.334 . S
C117 C116 1.407 . S
C117 C118 1.360 . S
C117 H178 0.929 . S
C118 C117 1.360 . S
C118 C119 1.401 . S
C118 C122 1.527 . S
C119 C118 1.401 . S
C119 C120 1.405 . S
C119 C152 1.587 . S
C120 C119 1.405 . S
C120 C121 1.332 . S
C120 C123 1.496 . S
C121 C116 1.418 . S
C121 C120 1.332 . S
C121 H179 0.929 . S
C122 C118 1.527 . S
C122 H180 0.959 . S
C122 H181 0.961 . S
C122 H182 0.961 . S
C123 C120 1.496 . S
C123 H183 0.960 . S
C123 H184 0.960 . S
C123 H185 0.961 . S
C124 C125 1.517 . S
C124 H187 0.961 . S
C124 H188 0.960 . S
C124 H189 0.959 . S
C125 C124 1.517 . S
C125 O173 1.468 . S
C125 H186 0.980 . S
C126 C127 1.349 . S
C126 C131 1.367 . S
C126 O173 1.408 . S
C127 C126 1.349 . S
C127 C128 1.407 . S
C127 H190 0.930 . S
C128 C127 1.407 . S
C128 C129 1.449 . S
C128 C132 1.535 . S
C129 C128 1.449 . S
C129 C130 1.384 . S
C129 C154 1.553 . S
C130 C129 1.384 . S
C130 C131 1.364 . S
C130 C133 1.450 . S
C131 C126 1.367 . S
C131 C130 1.364 . S
C131 H191 0.931 . S
C132 C128 1.535 . S
C132 H192 0.959 . S
C132 H193 0.961 . S
C132 H194 0.959 . S
C133 C130 1.450 . S
C133 H195 0.960 . S
C133 H196 0.960 . S
C133 H197 0.960 . S
C134 C135 1.309 . S
C134 C139 1.304 . S
C134 O172 1.435 . S
C135 C134 1.309 . S
C135 C136 1.476 . S
C135 H199 0.930 . S
C136 C135 1.476 . S
C136 C137 1.400 . S
C136 C140 1.567 . S
C137 C136 1.400 . S
C137 C138 1.373 . S
C137 C159 1.432 . S
C138 C137 1.373 . S
C138 C139 1.339 . S
C138 C141 1.530 . S
C139 C134 1.304 . S
C139 C138 1.339 . S
C139 H200 0.930 . S
C140 C136 1.567 . S
C140 H201 0.961 . S
C140 H202 0.960 . S
C140 H203 0.958 . S
C141 C138 1.530 . S
C141 H204 0.961 . S
C141 H205 0.960 . S
C141 H206 0.960 . S
C142 C143 1.530 . S
C142 H208 0.961 . S
C142 H209 0.961 . S
C142 H210 0.959 . S
C143 C142 1.530 . S
C143 O171 1.412 . S
C143 H207 0.980 . S
C144 C145 1.288 . S
C144 C149 1.377 . S
C144 O171 1.393 . S
C145 C144 1.288 . S
C145 C146 1.383 . S
C145 H211 0.932 . S
C146 C145 1.383 . S
C146 C147 1.416 1_565 S
C146 C150 1.495 1_565 S
C147 C146 1.416 1_545 S
C147 C148 1.380 1_545 S
C147 C161 1.497 . S
C148 C147 1.380 1_565 S
C148 C149 1.383 . S
C148 C151 1.603 . S
C149 C144 1.377 . S
C149 C148 1.383 . S
C149 H212 0.929 . S
C150 C146 1.495 1_545 S
C150 H213 0.961 . S
C150 H214 0.959 . S
C150 H215 0.959 . S
C151 C148 1.603 . S
C151 H216 0.960 . S
C151 H217 0.962 1_565 S
C151 H218 0.961 . S
C152 C119 1.587 . S
C152 C153 1.360 . S
C152 C165 1.412 . S
C153 C152 1.360 . S
C153 C154 1.365 1_565 S
C153 H219 0.929 . S
C154 C129 1.553 . S
C154 C153 1.365 1_545 S
C154 C155 1.404 . S
C155 C154 1.404 . S
C155 C156 1.395 . S
C155 C166 1.451 . S
C156 C155 1.395 . S
C156 C157 1.322 . S
C156 H220 0.930 . S
C157 C156 1.322 . S
C157 C158 1.459 . S
C157 H221 0.929 . S
C158 C157 1.459 . S
C158 C159 1.445 . S
C158 C167 1.395 . S
C159 C137 1.432 . S
C159 C158 1.445 . S
C159 C160 1.370 . S
C160 C159 1.370 . S
C160 C161 1.438 . S
C160 H222 0.930 . S
C161 C147 1.497 . S
C161 C160 1.438 . S
C161 C162 1.360 . S
C162 C161 1.360 . S
C162 C163 1.401 1_545 S
C162 C167 1.446 . S
C163 C162 1.401 1_565 S
C163 C164 1.347 . S
C163 H223 0.929 . S
C164 C163 1.347 . S
C164 C165 1.455 . S
C164 H224 0.930 . S
C165 C152 1.412 . S
C165 C164 1.455 . S
C165 C166 1.331 1_565 S
C166 C155 1.451 . S
C166 C165 1.331 1_545 S
C166 C167 1.497 . S
C167 C158 1.395 . S
C167 C162 1.446 . S
C167 C166 1.497 . S
C168 C169 1.582 . S
C168 H225 0.962 . S
C168 H226 0.959 . S
C168 H227 0.958 . S
C169 C168 1.582 . S
C169 O172 1.458 . S
C169 H198 0.980 . S
O170 C115 1.426 . S
O170 C116 1.334 . S
O171 C143 1.412 . S
O171 C144 1.393 . S
O172 C134 1.435 . S
O172 C169 1.458 . S
O173 C125 1.468 . S
O173 C126 1.408 . S
H174 C115 0.980 . S
H175 C114 0.959 . S
H176 C114 0.959 . S
H177 C114 0.960 . S
H178 C117 0.929 . S
H179 C121 0.929 . S
H180 C122 0.959 . S
H181 C122 0.961 . S
H182 C122 0.961 . S
H183 C123 0.960 . S
H184 C123 0.960 . S
H185 C123 0.961 . S
H186 C125 0.980 . S
H187 C124 0.961 . S
H188 C124 0.960 . S
H189 C124 0.959 . S
H190 C127 0.930 . S
H191 C131 0.931 . S
H192 C132 0.959 . S
H193 C132 0.961 . S
H194 C132 0.959 . S
H195 C133 0.960 . S
H196 C133 0.960 . S
H197 C133 0.960 . S
H198 C169 0.980 . S
H199 C135 0.930 . S
H200 C139 0.930 . S
H201 C140 0.961 . S
H202 C140 0.960 . S
H203 C140 0.958 . S
H204 C141 0.961 . S
H205 C141 0.960 . S
H206 C141 0.960 . S
H207 C143 0.980 . S
H208 C142 0.961 . S
H209 C142 0.961 . S
H210 C142 0.959 . S
H211 C145 0.932 . S
H212 C149 0.929 . S
H213 C150 0.961 . S
H214 C150 0.959 . S
H215 C150 0.959 . S
H216 C151 0.960 . S
H217 C151 0.962 1_545 S
H218 C151 0.961 . S
H219 C153 0.929 . S
H220 C156 0.930 . S
H221 C157 0.929 . S
H222 C160 0.930 . S
H223 C163 0.929 . S
H224 C164 0.930 . S
H225 C168 0.962 . S
H226 C168 0.959 . S
H227 C168 0.958 . S
C228 C229 1.560 . S
C228 H289 0.959 . S
C228 H290 0.959 . S
C228 H291 0.960 . S
C229 C228 1.560 . S
C229 O284 1.426 . S
C229 H288 0.980 . S
C230 C231 1.407 . S
C230 C235 1.418 . S
C230 O284 1.334 . S
C231 C230 1.407 . S
C231 C232 1.360 . S
C231 H292 0.929 . S
C232 C231 1.360 . S
C232 C233 1.401 . S
C232 C236 1.527 . S
C233 C232 1.401 . S
C233 C234 1.405 . S
C233 C266 1.587 . S
C234 C233 1.405 . S
C234 C235 1.332 . S
C234 C237 1.496 . S
C235 C230 1.418 . S
C235 C234 1.332 . S
C235 H293 0.929 . S
C236 C232 1.527 . S
C236 H294 0.959 . S
C236 H295 0.961 . S
C236 H296 0.961 . S
C237 C234 1.496 . S
C237 H297 0.960 . S
C237 H298 0.960 . S
C237 H299 0.961 . S
C238 C239 1.517 . S
C238 H301 0.961 . S
C238 H302 0.960 . S
C238 H303 0.959 . S
C239 C238 1.517 . S
C239 O287 1.468 . S
C239 H300 0.980 . S
C240 C241 1.349 . S
C240 C245 1.367 . S
C240 O287 1.408 . S
C241 C240 1.349 . S
C241 C242 1.407 . S
C241 H304 0.930 . S
C242 C241 1.407 . S
C242 C243 1.449 . S
C242 C246 1.535 . S
C243 C242 1.449 . S
C243 C244 1.384 . S
C243 C268 1.553 . S
C244 C243 1.384 . S
C244 C245 1.364 . S
C244 C247 1.450 . S
C245 C240 1.367 . S
C245 C244 1.364 . S
C245 H305 0.931 . S
C246 C242 1.535 . S
C246 H306 0.959 . S
C246 H307 0.961 . S
C246 H308 0.959 . S
C247 C244 1.450 . S
C247 H309 0.960 . S
C247 H310 0.960 . S
C247 H311 0.960 . S
C248 C249 1.309 . S
C248 C253 1.304 . S
C248 O286 1.435 . S
C249 C248 1.309 . S
C249 C250 1.476 . S
C249 H313 0.930 . S
C250 C249 1.476 . S
C250 C251 1.400 . S
C250 C254 1.567 . S
C251 C250 1.400 . S
C251 C252 1.373 . S
C251 C273 1.432 . S
C252 C251 1.373 . S
C252 C253 1.339 . S
C252 C255 1.530 . S
C253 C248 1.304 . S
C253 C252 1.339 . S
C253 H314 0.930 . S
C254 C250 1.567 . S
C254 H315 0.961 . S
C254 H316 0.960 . S
C254 H317 0.958 . S
C255 C252 1.530 . S
C255 H318 0.961 . S
C255 H319 0.960 . S
C255 H320 0.960 . S
C256 C257 1.530 . S
C256 H322 0.961 . S
C256 H323 0.961 . S
C256 H324 0.959 . S
C257 C256 1.530 . S
C257 O285 1.412 . S
C257 H321 0.980 . S
C258 C259 1.288 . S
C258 C263 1.377 . S
C258 O285 1.393 . S
C259 C258 1.288 . S
C259 C260 1.369 . S
C259 H325 0.932 . S
C260 C259 1.369 . S
C260 C261 1.398 . S
C260 C264 1.527 . S
C261 C260 1.398 . S
C261 C262 1.380 . S
C261 C275 1.497 . S
C262 C261 1.380 . S
C262 C263 1.383 . S
C262 C265 1.603 . S
C263 C258 1.377 . S
C263 C262 1.383 . S
C263 H326 0.929 . S
C264 C260 1.527 . S
C264 H327 0.961 . S
C264 H328 0.959 . S
C264 H329 0.959 . S
C265 C262 1.603 . S
C265 H330 0.960 . S
C265 H331 0.962 . S
C265 H332 0.961 . S
C266 C233 1.587 . S
C266 C267 1.360 . S
C266 C279 1.412 . S
C267 C266 1.360 . S
C267 C268 1.365 . S
C267 H333 0.929 . S
C268 C243 1.553 . S
C268 C267 1.365 . S
C268 C269 1.404 . S
C269 C268 1.404 . S
C269 C270 1.395 . S
C269 C280 1.451 . S
C270 C269 1.395 . S
C270 C271 1.322 . S
C270 H334 0.930 . S
C271 C270 1.322 . S
C271 C272 1.459 . S
C271 H335 0.929 . S
C272 C271 1.459 . S
C272 C273 1.445 . S
C272 C281 1.395 . S
C273 C251 1.432 . S
C273 C272 1.445 . S
C273 C274 1.370 . S
C274 C273 1.370 . S
C274 C275 1.438 . S
C274 H336 0.930 . S
C275 C261 1.497 . S
C275 C274 1.438 . S
C275 C276 1.360 . S
C276 C275 1.360 . S
C276 C277 1.401 . S
C276 C281 1.446 . S
C277 C276 1.401 . S
C277 C278 1.347 . S
C277 H337 0.929 . S
C278 C277 1.347 . S
C278 C279 1.455 . S
C278 H338 0.930 . S
C279 C266 1.412 . S
C279 C278 1.455 . S
C279 C280 1.331 . S
C280 C269 1.451 . S
C280 C279 1.331 . S
C280 C281 1.497 . S
C281 C272 1.395 . S
C281 C276 1.446 . S
C281 C280 1.497 . S
C282 C283 1.582 . S
C282 H339 0.962 . S
C282 H340 0.959 . S
C282 H341 0.958 . S
C283 C282 1.582 . S
C283 O286 1.458 . S
C283 H312 0.980 . S
O284 C229 1.426 . S
O284 C230 1.334 . S
O285 C257 1.412 . S
O285 C258 1.393 . S
O286 C248 1.435 . S
O286 C283 1.458 . S
O287 C239 1.468 . S
O287 C240 1.408 . S
H288 C229 0.980 . S
H289 C228 0.959 . S
H290 C228 0.959 . S
H291 C228 0.960 . S
H292 C231 0.929 . S
H293 C235 0.929 . S
H294 C236 0.959 . S
H295 C236 0.961 . S
H296 C236 0.961 . S
H297 C237 0.960 . S
H298 C237 0.960 . S
H299 C237 0.961 . S
H300 C239 0.980 . S
H301 C238 0.961 . S
H302 C238 0.960 . S
H303 C238 0.959 . S
H304 C241 0.930 . S
H305 C245 0.931 . S
H306 C246 0.959 . S
H307 C246 0.961 . S
H308 C246 0.959 . S
H309 C247 0.960 . S
H310 C247 0.960 . S
H311 C247 0.960 . S
H312 C283 0.980 . S
H313 C249 0.930 . S
H314 C253 0.930 . S
H315 C254 0.961 . S
H316 C254 0.960 . S
H317 C254 0.958 . S
H318 C255 0.961 . S
H319 C255 0.960 . S
H320 C255 0.960 . S
H321 C257 0.980 . S
H322 C256 0.961 . S
H323 C256 0.961 . S
H324 C256 0.959 . S
H325 C259 0.932 . S
H326 C263 0.929 . S
H327 C264 0.961 . S
H328 C264 0.959 . S
H329 C264 0.959 . S
H330 C265 0.960 . S
H331 C265 0.962 . S
H332 C265 0.961 . S
H333 C267 0.929 . S
H334 C270 0.930 . S
H335 C271 0.929 . S
H336 C274 0.930 . S
H337 C277 0.929 . S
H338 C278 0.930 . S
H339 C282 0.962 . S
H340 C282 0.959 . S
H341 C282 0.958 . S
C342 C343 1.560 . S
C342 H403 0.959 . S
C342 H404 0.959 . S
C342 H405 0.960 . S
C343 C342 1.560 . S
C343 O398 1.426 . S
C343 H402 0.980 . S
C344 C345 1.407 . S
C344 C349 1.418 . S
C344 O398 1.334 . S
C345 C344 1.407 . S
C345 C346 1.360 . S
C345 H406 0.929 . S
C346 C345 1.360 . S
C346 C347 1.401 . S
C346 C350 1.527 . S
C347 C346 1.401 . S
C347 C348 1.405 . S
C347 C380 1.587 . S
C348 C347 1.405 . S
C348 C349 1.332 . S
C348 C351 1.496 . S
C349 C344 1.418 . S
C349 C348 1.332 . S
C349 H407 0.929 . S
C350 C346 1.527 . S
C350 H408 0.959 . S
C350 H409 0.961 . S
C350 H410 0.961 . S
C351 C348 1.496 . S
C351 H411 0.960 . S
C351 H412 0.960 . S
C351 H413 0.961 . S
C352 C353 1.517 . S
C352 H415 0.961 . S
C352 H416 0.960 . S
C352 H417 0.959 . S
C353 C352 1.517 . S
C353 O401 1.468 . S
C353 H414 0.980 . S
C354 C355 1.349 . S
C354 C359 1.367 . S
C354 O401 1.408 . S
C355 C354 1.349 . S
C355 C356 1.407 1_655 S
C355 H418 0.930 . S
C356 C355 1.407 1_455 S
C356 C357 1.449 . S
C356 C360 1.535 . S
C357 C356 1.449 . S
C357 C358 1.381 1_455 S
C357 C382 1.553 . S
C358 C357 1.381 1_655 S
C358 C359 1.366 . S
C358 C361 1.450 1_655 S
C359 C354 1.367 . S
C359 C358 1.366 . S
C359 H419 0.931 . S
C360 C356 1.535 . S
C360 H420 0.959 . S
C360 H421 0.961 . S
C360 H422 0.959 1_455 S
C361 C358 1.450 1_455 S
C361 H423 0.960 . S
C361 H424 0.960 . S
C361 H425 0.957 1_455 S
C362 C363 1.309 . S
C362 C367 1.304 . S
C362 O400 1.435 . S
C363 C362 1.309 . S
C363 C364 1.476 . S
C363 H427 0.930 . S
C364 C363 1.476 . S
C364 C365 1.400 . S
C364 C368 1.567 . S
C365 C364 1.400 . S
C365 C366 1.373 . S
C365 C387 1.432 . S
C366 C365 1.373 . S
C366 C367 1.339 . S
C366 C369 1.530 . S
C367 C362 1.304 . S
C367 C366 1.339 . S
C367 H428 0.930 . S
C368 C364 1.567 . S
C368 H429 0.961 . S
C368 H430 0.960 . S
C368 H431 0.958 . S
C369 C366 1.530 . S
C369 H432 0.961 . S
C369 H433 0.960 . S
C369 H434 0.960 . S
C370 C371 1.530 . S
C370 H436 0.961 . S
C370 H437 0.961 . S
C370 H438 0.959 . S
C371 C370 1.530 . S
C371 O399 1.412 . S
C371 H435 0.980 . S
C372 C373 1.288 . S
C372 C377 1.377 . S
C372 O399 1.393 . S
C373 C372 1.288 . S
C373 C374 1.369 . S
C373 H439 0.932 . S
C374 C373 1.369 . S
C374 C375 1.398 . S
C374 C378 1.527 . S
C375 C374 1.398 . S
C375 C376 1.380 . S
C375 C389 1.497 . S
C376 C375 1.380 . S
C376 C377 1.383 . S
C376 C379 1.603 . S
C377 C372 1.377 . S
C377 C376 1.383 . S
C377 H440 0.929 . S
C378 C374 1.527 . S
C378 H441 0.961 . S
C378 H442 0.959 . S
C378 H443 0.959 . S
C379 C376 1.603 . S
C379 H444 0.960 . S
C379 H445 0.962 . S
C379 H446 0.961 . S
C380 C347 1.587 . S
C380 C381 1.360 . S
C380 C393 1.412 . S
C381 C380 1.360 . S
C381 C382 1.365 . S
C381 H447 0.929 . S
C382 C357 1.553 . S
C382 C381 1.365 . S
C382 C383 1.404 . S
C383 C382 1.404 . S
C383 C384 1.395 1_455 S
C383 C394 1.451 . S
C384 C383 1.395 1_655 S
C384 C385 1.322 . S
C384 H448 0.930 . S
C385 C384 1.322 . S
C385 C386 1.459 . S
C385 H449 0.929 . S
C386 C385 1.459 . S
C386 C387 1.445 . S
C386 C395 1.395 1_655 S
C387 C365 1.432 . S
C387 C386 1.445 . S
C387 C388 1.370 . S
C388 C387 1.370 . S
C388 C389 1.438 1_655 S
C388 H450 0.930 . S
C389 C375 1.497 . S
C389 C388 1.438 1_455 S
C389 C390 1.360 . S
C390 C389 1.360 . S
C390 C391 1.401 . S
C390 C395 1.446 . S
C391 C390 1.401 . S
C391 C392 1.347 . S
C391 H451 0.929 . S
C392 C391 1.347 . S
C392 C393 1.455 . S
C392 H452 0.930 . S
C393 C380 1.412 . S
C393 C392 1.455 . S
C393 C394 1.331 . S
C394 C383 1.451 . S
C394 C393 1.331 . S
C394 C395 1.497 . S
C395 C386 1.395 1_455 S
C395 C390 1.446 . S
C395 C394 1.497 . S
C396 C397 1.582 . S
C396 H453 0.962 . S
C396 H454 0.959 . S
C396 H455 0.958 . S
C397 C396 1.582 . S
C397 O400 1.458 . S
C397 H426 0.980 . S
O398 C343 1.426 . S
O398 C344 1.334 . S
O399 C371 1.412 . S
O399 C372 1.393 . S
O400 C362 1.435 . S
O400 C397 1.458 . S
O401 C353 1.468 . S
O401 C354 1.408 . S
H402 C343 0.980 . S
H403 C342 0.959 . S
H404 C342 0.959 . S
H405 C342 0.960 . S
H406 C345 0.929 . S
H407 C349 0.929 . S
H408 C350 0.959 . S
H409 C350 0.961 . S
H410 C350 0.961 . S
H411 C351 0.960 . S
H412 C351 0.960 . S
H413 C351 0.961 . S
H414 C353 0.980 . S
H415 C352 0.961 . S
H416 C352 0.960 . S
H417 C352 0.959 . S
H418 C355 0.930 . S
H419 C359 0.931 . S
H420 C360 0.959 . S
H421 C360 0.961 . S
H422 C360 0.959 1_655 S
H423 C361 0.960 . S
H424 C361 0.960 . S
H425 C361 0.957 1_655 S
H426 C397 0.980 . S
H427 C363 0.930 . S
H428 C367 0.930 . S
H429 C368 0.961 . S
H430 C368 0.960 . S
H431 C368 0.958 . S
H432 C369 0.961 . S
H433 C369 0.960 . S
H434 C369 0.960 . S
H435 C371 0.980 . S
H436 C370 0.961 . S
H437 C370 0.961 . S
H438 C370 0.959 . S
H439 C373 0.932 . S
H440 C377 0.929 . S
H441 C378 0.961 . S
H442 C378 0.959 . S
H443 C378 0.959 . S
H444 C379 0.960 . S
H445 C379 0.962 . S
H446 C379 0.961 . S
H447 C381 0.929 . S
H448 C384 0.930 . S
H449 C385 0.929 . S
H450 C388 0.930 . S
H451 C391 0.929 . S
H452 C392 0.930 . S
H453 C396 0.962 . S
H454 C396 0.959 . S
H455 C396 0.958 . S
C456 C457 1.560 . S
C456 H517 0.959 . S
C456 H518 0.959 . S
C456 H519 0.960 . S
C457 C456 1.560 . S
C457 O512 1.426 . S
C457 H516 0.980 . S
C458 C459 1.407 . S
C458 C463 1.418 . S
C458 O512 1.334 . S
C459 C458 1.407 . S
C459 C460 1.360 . S
C459 H520 0.929 . S
C460 C459 1.360 . S
C460 C461 1.401 . S
C460 C464 1.527 . S
C461 C460 1.401 . S
C461 C462 1.405 . S
C461 C494 1.587 . S
C462 C461 1.405 . S
C462 C463 1.332 . S
C462 C465 1.496 . S
C463 C458 1.418 . S
C463 C462 1.332 . S
C463 H521 0.929 . S
C464 C460 1.527 . S
C464 H522 0.959 . S
C464 H523 0.961 . S
C464 H524 0.961 . S
C465 C462 1.496 . S
C465 H525 0.960 . S
C465 H526 0.960 . S
C465 H527 0.961 . S
C466 C467 1.517 . S
C466 H529 0.961 . S
C466 H530 0.960 . S
C466 H531 0.959 . S
C467 C466 1.517 . S
C467 O515 1.468 . S
C467 H528 0.980 . S
C468 C469 1.349 . S
C468 C473 1.367 . S
C468 O515 1.408 . S
C469 C468 1.349 . S
C469 C470 1.407 . S
C469 H532 0.930 . S
C470 C469 1.407 . S
C470 C471 1.449 . S
C470 C474 1.535 . S
C471 C470 1.449 . S
C471 C472 1.384 . S
C471 C496 1.553 . S
C472 C471 1.384 . S
C472 C473 1.364 . S
C472 C475 1.450 . S
C473 C468 1.367 . S
C473 C472 1.364 . S
C473 H533 0.931 . S
C474 C470 1.535 . S
C474 H534 0.959 . S
C474 H535 0.961 . S
C474 H536 0.959 . S
C475 C472 1.450 . S
C475 H537 0.960 . S
C475 H538 0.960 . S
C475 H539 0.960 . S
C476 C477 1.309 . S
C476 C481 1.304 . S
C476 O514 1.435 . S
C477 C476 1.309 . S
C477 C478 1.476 . S
C477 H541 0.930 . S
C478 C477 1.476 . S
C478 C479 1.400 . S
C478 C482 1.567 . S
C479 C478 1.400 . S
C479 C480 1.373 . S
C479 C501 1.432 . S
C480 C479 1.373 . S
C480 C481 1.339 . S
C480 C483 1.530 . S
C481 C476 1.304 . S
C481 C480 1.339 . S
C481 H542 0.930 . S
C482 C478 1.567 . S
C482 H543 0.961 . S
C482 H544 0.960 . S
C482 H545 0.958 . S
C483 C480 1.530 . S
C483 H546 0.961 . S
C483 H547 0.960 . S
C483 H548 0.960 . S
C484 C485 1.530 . S
C484 H550 0.961 . S
C484 H551 0.961 . S
C484 H552 0.959 . S
C485 C484 1.530 . S
C485 O513 1.412 . S
C485 H549 0.980 . S
C486 C487 1.288 . S
C486 C491 1.377 . S
C486 O513 1.393 . S
C487 C486 1.288 . S
C487 C488 1.379 . S
C487 H553 0.932 . S
C488 C487 1.379 . S
C488 C489 1.388 1_565 S
C488 C492 1.526 1_565 S
C489 C488 1.388 1_545 S
C489 C490 1.380 1_545 S
C489 C503 1.497 . S
C490 C489 1.380 1_565 S
C490 C491 1.383 . S
C490 C493 1.603 . S
C491 C486 1.377 . S
C491 C490 1.383 . S
C491 H554 0.929 . S
C492 C488 1.526 1_545 S
C492 H555 0.961 . S
C492 H556 0.959 . S
C492 H557 0.959 . S
C493 C490 1.603 . S
C493 H558 0.960 . S
C493 H559 0.962 1_565 S
C493 H560 0.961 . S
C494 C461 1.587 . S
C494 C495 1.360 . S
C494 C507 1.412 . S
C495 C494 1.360 . S
C495 C496 1.365 1_565 S
C495 H561 0.929 . S
C496 C471 1.553 . S
C496 C495 1.365 1_545 S
C496 C497 1.404 . S
C497 C496 1.404 . S
C497 C498 1.395 . S
C497 C508 1.451 . S
C498 C497 1.395 . S
C498 C499 1.322 . S
C498 H562 0.930 . S
C499 C498 1.322 . S
C499 C500 1.451 1_556 S
C499 H563 0.929 . S
C500 C499 1.451 1_554 S
C500 C501 1.453 . S
C500 C509 1.394 1_554 S
C501 C479 1.432 . S
C501 C500 1.453 . S
C501 C502 1.370 . S
C502 C501 1.370 . S
C502 C503 1.438 . S
C502 H564 0.930 . S
C503 C489 1.497 . S
C503 C502 1.438 . S
C503 C504 1.360 . S
C504 C503 1.360 . S
C504 C505 1.401 1_545 S
C504 C509 1.446 1_554 S
C505 C504 1.401 1_565 S
C505 C506 1.347 1_554 S
C505 H565 0.929 . S
C506 C505 1.347 1_556 S
C506 C507 1.455 . S
C506 H566 0.930 . S
C507 C494 1.412 . S
C507 C506 1.455 . S
C507 C508 1.331 1_565 S
C508 C497 1.451 . S
C508 C507 1.331 1_545 S
C508 C509 1.497 . S
C509 C500 1.394 1_556 S
C509 C504 1.446 1_556 S
C509 C508 1.497 . S
C510 C511 1.582 . S
C510 H567 0.962 . S
C510 H568 0.959 . S
C510 H569 0.958 . S
C511 C510 1.582 . S
C511 O514 1.458 . S
C511 H540 0.980 . S
O512 C457 1.426 . S
O512 C458 1.334 . S
O513 C485 1.412 . S
O513 C486 1.393 . S
O514 C476 1.435 . S
O514 C511 1.458 . S
O515 C467 1.468 . S
O515 C468 1.408 . S
H516 C457 0.980 . S
H517 C456 0.959 . S
H518 C456 0.959 . S
H519 C456 0.960 . S
H520 C459 0.929 . S
H521 C463 0.929 . S
H522 C464 0.959 . S
H523 C464 0.961 . S
H524 C464 0.961 . S
H525 C465 0.960 . S
H526 C465 0.960 . S
H527 C465 0.961 . S
H528 C467 0.980 . S
H529 C466 0.961 . S
H530 C466 0.960 . S
H531 C466 0.959 . S
H532 C469 0.930 . S
H533 C473 0.931 . S
H534 C474 0.959 . S
H535 C474 0.961 . S
H536 C474 0.959 . S
H537 C475 0.960 . S
H538 C475 0.960 . S
H539 C475 0.960 . S
H540 C511 0.980 . S
H541 C477 0.930 . S
H542 C481 0.930 . S
H543 C482 0.961 . S
H544 C482 0.960 . S
H545 C482 0.958 . S
H546 C483 0.961 . S
H547 C483 0.960 . S
H548 C483 0.960 . S
H549 C485 0.980 . S
H550 C484 0.961 . S
H551 C484 0.961 . S
H552 C484 0.959 . S
H553 C487 0.932 . S
H554 C491 0.929 . S
H555 C492 0.961 . S
H556 C492 0.959 . S
H557 C492 0.959 . S
H558 C493 0.960 . S
H559 C493 0.962 1_545 S
H560 C493 0.961 . S
H561 C495 0.929 . S
H562 C498 0.930 . S
H563 C499 0.929 . S
H564 C502 0.930 . S
H565 C505 0.929 . S
H566 C506 0.930 . S
H567 C510 0.962 . S
H568 C510 0.959 . S
H569 C510 0.958 . S
C570 C571 1.560 . S
C570 H631 0.959 . S
C570 H632 0.959 . S
C570 H633 0.960 . S
C571 C570 1.560 . S
C571 O626 1.426 . S
C571 H630 0.980 . S
C572 C573 1.407 . S
C572 C577 1.418 . S
C572 O626 1.334 . S
C573 C572 1.407 . S
C573 C574 1.360 . S
C573 H634 0.929 . S
C574 C573 1.360 . S
C574 C575 1.401 . S
C574 C578 1.527 . S
C575 C574 1.401 . S
C575 C576 1.405 . S
C575 C608 1.587 . S
C576 C575 1.405 . S
C576 C577 1.332 . S
C576 C579 1.496 . S
C577 C572 1.418 . S
C577 C576 1.332 . S
C577 H635 0.929 . S
C578 C574 1.527 . S
C578 H636 0.959 . S
C578 H637 0.961 . S
C578 H638 0.961 . S
C579 C576 1.496 . S
C579 H639 0.960 . S
C579 H640 0.960 . S
C579 H641 0.961 . S
C580 C581 1.517 . S
C580 H643 0.961 . S
C580 H644 0.960 . S
C580 H645 0.959 . S
C581 C580 1.517 . S
C581 O629 1.468 . S
C581 H642 0.980 . S
C582 C583 1.349 . S
C582 C587 1.367 . S
C582 O629 1.408 . S
C583 C582 1.349 . S
C583 C584 1.407 . S
C583 H646 0.930 . S
C584 C583 1.407 . S
C584 C585 1.449 . S
C584 C588 1.535 . S
C585 C584 1.449 . S
C585 C586 1.384 . S
C585 C610 1.553 . S
C586 C585 1.384 . S
C586 C587 1.364 . S
C586 C589 1.450 . S
C587 C582 1.367 . S
C587 C586 1.364 . S
C587 H647 0.931 . S
C588 C584 1.535 . S
C588 H648 0.959 . S
C588 H649 0.961 . S
C588 H650 0.959 . S
C589 C586 1.450 . S
C589 H651 0.960 . S
C589 H652 0.960 . S
C589 H653 0.960 . S
C590 C591 1.309 . S
C590 C595 1.304 . S
C590 O628 1.435 . S
C591 C590 1.309 . S
C591 C592 1.476 . S
C591 H655 0.930 . S
C592 C591 1.476 . S
C592 C593 1.400 . S
C592 C596 1.567 . S
C593 C592 1.400 . S
C593 C594 1.373 . S
C593 C615 1.432 . S
C594 C593 1.373 . S
C594 C595 1.339 . S
C594 C597 1.530 . S
C595 C590 1.304 . S
C595 C594 1.339 . S
C595 H656 0.930 . S
C596 C592 1.567 . S
C596 H657 0.961 . S
C596 H658 0.960 . S
C596 H659 0.958 . S
C597 C594 1.530 . S
C597 H660 0.961 . S
C597 H661 0.960 . S
C597 H662 0.960 . S
C598 C599 1.530 . S
C598 H664 0.961 . S
C598 H665 0.961 . S
C598 H666 0.959 . S
C599 C598 1.530 . S
C599 O627 1.412 . S
C599 H663 0.980 . S
C600 C601 1.288 . S
C600 C605 1.377 . S
C600 O627 1.393 . S
C601 C600 1.288 . S
C601 C602 1.369 . S
C601 H667 0.932 . S
C602 C601 1.369 . S
C602 C603 1.398 . S
C602 C606 1.527 . S
C603 C602 1.398 . S
C603 C604 1.380 . S
C603 C617 1.497 . S
C604 C603 1.380 . S
C604 C605 1.383 . S
C604 C607 1.603 . S
C605 C600 1.377 . S
C605 C604 1.383 . S
C605 H668 0.929 . S
C606 C602 1.527 . S
C606 H669 0.961 . S
C606 H670 0.959 . S
C606 H671 0.959 . S
C607 C604 1.603 . S
C607 H672 0.960 . S
C607 H673 0.962 . S
C607 H674 0.961 . S
C608 C575 1.587 . S
C608 C609 1.360 . S
C608 C621 1.412 . S
C609 C608 1.360 . S
C609 C610 1.365 . S
C609 H675 0.929 . S
C610 C585 1.553 . S
C610 C609 1.365 . S
C610 C611 1.404 . S
C611 C610 1.404 . S
C611 C612 1.395 . S
C611 C622 1.451 . S
C612 C611 1.395 . S
C612 C613 1.322 . S
C612 H676 0.930 . S
C613 C612 1.322 . S
C613 C614 1.459 . S
C613 H677 0.929 . S
C614 C613 1.459 . S
C614 C615 1.445 . S
C614 C623 1.395 . S
C615 C593 1.432 . S
C615 C614 1.445 . S
C615 C616 1.370 . S
C616 C615 1.370 . S
C616 C617 1.438 . S
C616 H678 0.930 . S
C617 C603 1.497 . S
C617 C616 1.438 . S
C617 C618 1.360 . S
C618 C617 1.360 . S
C618 C619 1.401 . S
C618 C623 1.446 . S
C619 C618 1.401 . S
C619 C620 1.347 . S
C619 H679 0.929 . S
C620 C619 1.347 . S
C620 C621 1.455 . S
C620 H680 0.930 . S
C621 C608 1.412 . S
C621 C620 1.455 . S
C621 C622 1.331 . S
C622 C611 1.451 . S
C622 C621 1.331 . S
C622 C623 1.497 . S
C623 C614 1.395 . S
C623 C618 1.446 . S
C623 C622 1.497 . S
C624 C625 1.582 . S
C624 H681 0.962 . S
C624 H682 0.959 . S
C624 H683 0.958 . S
C625 C624 1.582 . S
C625 O628 1.458 . S
C625 H654 0.980 . S
O626 C571 1.426 . S
O626 C572 1.334 . S
O627 C599 1.412 . S
O627 C600 1.393 . S
O628 C590 1.435 . S
O628 C625 1.458 . S
O629 C581 1.468 . S
O629 C582 1.408 . S
H630 C571 0.980 . S
H631 C570 0.959 . S
H632 C570 0.959 . S
H633 C570 0.960 . S
H634 C573 0.929 . S
H635 C577 0.929 . S
H636 C578 0.959 . S
H637 C578 0.961 . S
H638 C578 0.961 . S
H639 C579 0.960 . S
H640 C579 0.960 . S
H641 C579 0.961 . S
H642 C581 0.980 . S
H643 C580 0.961 . S
H644 C580 0.960 . S
H645 C580 0.959 . S
H646 C583 0.930 . S
H647 C587 0.931 . S
H648 C588 0.959 . S
H649 C588 0.961 . S
H650 C588 0.959 . S
H651 C589 0.960 . S
H652 C589 0.960 . S
H653 C589 0.960 . S
H654 C625 0.980 . S
H655 C591 0.930 . S
H656 C595 0.930 . S
H657 C596 0.961 . S
H658 C596 0.960 . S
H659 C596 0.958 . S
H660 C597 0.961 . S
H661 C597 0.960 . S
H662 C597 0.960 . S
H663 C599 0.980 . S
H664 C598 0.961 . S
H665 C598 0.961 . S
H666 C598 0.959 . S
H667 C601 0.932 . S
H668 C605 0.929 . S
H669 C606 0.961 . S
H670 C606 0.959 . S
H671 C606 0.959 . S
H672 C607 0.960 . S
H673 C607 0.962 . S
H674 C607 0.961 . S
H675 C609 0.929 . S
H676 C612 0.930 . S
H677 C613 0.929 . S
H678 C616 0.930 . S
H679 C619 0.929 . S
H680 C620 0.930 . S
H681 C624 0.962 . S
H682 C624 0.959 . S
H683 C624 0.958 . S
In684 O685 2.294 . S
In684 O686 2.326 . S
In684 O690 2.266 . S
In684 O691 2.326 . S
In684 O692 2.266 . S
In684 O693 2.326 . S
In684 O695 2.294 . S
In684 O696 2.326 . S
O685 In684 2.294 . S
O685 C694 1.240 . S
O686 In684 2.326 . S
O686 C694 1.252 . S
C687 O690 1.252 . S
C687 O691 1.260 . S
C688 O695 1.240 . S
C688 O696 1.252 . S
C689 O692 1.252 . S
C689 O693 1.260 . S
O690 In684 2.266 . S
O690 C687 1.252 . S
O691 In684 2.326 . S
O691 C687 1.260 . S
O692 In684 2.266 . S
O692 C689 1.252 . S
O693 In684 2.326 . S
O693 C689 1.260 . S
C694 O685 1.240 . S
C694 O686 1.252 . S
O695 In684 2.294 . S
O695 C688 1.240 . S
O696 In684 2.326 . S
O696 C688 1.252 . S
In697 O698 2.294 . S
In697 O699 2.326 . S
In697 O703 2.266 . S
In697 O704 2.326 . S
In697 O705 2.266 . S
In697 O706 2.326 . S
In697 O708 2.294 . S
In697 O709 2.326 . S
O698 In697 2.294 . S
O698 C707 1.240 . S
O699 In697 2.326 . S
O699 C707 1.252 . S
C700 O703 1.252 . S
C700 O704 1.260 . S
C701 O708 1.240 . S
C701 O709 1.252 . S
C702 O705 1.252 . S
C702 O706 1.260 . S
O703 In697 2.266 . S
O703 C700 1.252 . S
O704 In697 2.326 . S
O704 C700 1.260 . S
O705 In697 2.266 . S
O705 C702 1.252 . S
O706 In697 2.326 . S
O706 C702 1.260 . S
C707 O698 1.240 . S
C707 O699 1.252 . S
O708 In697 2.294 . S
O708 C701 1.240 . S
O709 In697 2.326 . S
O709 C701 1.252 . S
In710 O711 2.294 . S
In710 O712 2.326 . S
In710 O716 2.266 . S
In710 O717 2.326 . S
In710 O718 2.266 . S
In710 O719 2.326 . S
In710 O721 2.294 . S
In710 O722 2.326 . S
O711 In710 2.294 . S
O711 C720 1.240 . S
O712 In710 2.326 . S
O712 C720 1.252 . S
C713 O716 1.252 . S
C713 O717 1.260 . S
C714 O721 1.240 . S
C714 O722 1.252 . S
C715 O718 1.252 . S
C715 O719 1.260 . S
O716 In710 2.266 . S
O716 C713 1.252 . S
O717 In710 2.326 . S
O717 C713 1.260 . S
O718 In710 2.266 . S
O718 C715 1.252 . S
O719 In710 2.326 . S
O719 C715 1.260 . S
C720 O711 1.240 . S
C720 O712 1.252 . S
O721 In710 2.294 . S
O721 C714 1.240 . S
O722 In710 2.326 . S
O722 C714 1.252 . S
In723 O724 2.294 . S
In723 O725 2.326 . S
In723 O729 2.266 . S
In723 O730 2.326 . S
In723 O731 2.266 . S
In723 O732 2.326 . S
In723 O734 2.294 . S
In723 O735 2.326 . S
O724 In723 2.294 . S
O724 C733 1.240 . S
O725 In723 2.326 . S
O725 C733 1.252 . S
C726 O729 1.252 . S
C726 O730 1.260 . S
C727 O734 1.240 . S
C727 O735 1.252 . S
C728 O731 1.252 . S
C728 O732 1.260 . S
O729 In723 2.266 . S
O729 C726 1.252 . S
O730 In723 2.326 . S
O730 C726 1.260 . S
O731 In723 2.266 . S
O731 C728 1.252 . S
O732 In723 2.326 . S
O732 C728 1.260 . S
C733 O724 1.240 . S
C733 O725 1.252 . S
O734 In723 2.294 . S
O734 C727 1.240 . S
O735 In723 2.326 . S
O735 C727 1.252 . S
In736 O737 2.294 . S
In736 O738 2.326 . S
In736 O742 2.266 . S
In736 O743 2.326 . S
In736 O744 2.266 . S
In736 O745 2.326 . S
In736 O747 2.294 . S
In736 O748 2.326 . S
O737 In736 2.294 . S
O737 C746 1.240 . S
O738 In736 2.326 . S
O738 C746 1.252 . S
C739 O742 1.252 . S
C739 O743 1.260 . S
C740 O747 1.240 . S
C740 O748 1.252 . S
C741 O744 1.252 . S
C741 O745 1.260 . S
O742 In736 2.266 . S
O742 C739 1.252 . S
O743 In736 2.326 . S
O743 C739 1.260 . S
O744 In736 2.266 . S
O744 C741 1.252 . S
O745 In736 2.326 . S
O745 C741 1.260 . S
C746 O737 1.240 . S
C746 O738 1.252 . S
O747 In736 2.294 . S
O747 C740 1.240 . S
O748 In736 2.326 . S
O748 C740 1.252 . S
In749 O750 2.294 . S
In749 O751 2.326 . S
In749 O755 2.266 . S
In749 O756 2.326 . S
In749 O757 2.266 . S
In749 O758 2.326 . S
In749 O760 2.294 . S
In749 O761 2.326 . S
O750 In749 2.294 . S
O750 C759 1.240 . S
O751 In749 2.326 . S
O751 C759 1.252 . S
C752 O755 1.252 . S
C752 O756 1.260 . S
C753 O760 1.240 . S
C753 O761 1.252 . S
C754 O757 1.252 . S
C754 O758 1.260 . S
O755 In749 2.266 . S
O755 C752 1.252 . S
O756 In749 2.326 . S
O756 C752 1.260 . S
O757 In749 2.266 . S
O757 C754 1.252 . S
O758 In749 2.326 . S
O758 C754 1.260 . S
C759 O750 1.240 . S
C759 O751 1.252 . S
O760 In749 2.294 . S
O760 C753 1.240 . S
O761 In749 2.326 . S
O761 C753 1.252 . S
H762 C774 0.930 . S
H763 C776 0.930 . S
H764 C777 0.930 . S
H765 C781 0.959 . S
H766 C781 0.959 . S
H767 C781 0.961 . S
H768 C782 0.960 . S
H769 C782 0.961 . S
H770 C782 0.959 . S
H771 C785 0.929 . S
H772 C786 0.931 . S
H773 C788 0.930 . S
C774 H762 0.930 . S
C774 C775 1.399 . S
C774 C779 1.399 . S
C775 C774 1.399 . S
C775 C776 1.376 . S
C776 H763 0.930 . S
C776 C775 1.376 . S
C776 C777 1.388 . S
C777 H764 0.930 . S
C777 C776 1.388 . S
C777 C778 1.390 . S
C778 C777 1.390 . S
C778 C779 1.394 . S
C778 C784 1.465 . S
C779 C774 1.399 . S
C779 C778 1.394 . S
C779 C780 1.516 . S
C780 C779 1.516 . S
C780 C781 1.502 . S
C780 C782 1.561 . S
C780 C783 1.526 . S
C781 H765 0.959 . S
C781 H766 0.959 . S
C781 H767 0.961 . S
C781 C780 1.502 . S
C782 H768 0.960 . S
C782 H769 0.961 . S
C782 H770 0.959 . S
C782 C780 1.561 . S
C783 C780 1.526 . S
C783 C784 1.396 . S
C783 C788 1.390 . S
C784 C778 1.465 . S
C784 C783 1.396 . S
C784 C785 1.399 . S
C785 H771 0.929 . S
C785 C784 1.399 . S
C785 C786 1.385 . S
C786 H772 0.931 . S
C786 C785 1.385 . S
C786 C787 1.389 . S
C787 C786 1.389 . S
C787 C788 1.387 . S
C788 H773 0.930 . S
C788 C783 1.390 . S
C788 C787 1.387 . S
H789 C801 0.930 . S
H790 C803 0.930 . S
H791 C804 0.930 . S
H792 C808 0.959 . S
H793 C808 0.959 . S
H794 C808 0.961 . S
H795 C809 0.960 . S
H796 C809 0.961 . S
H797 C809 0.959 . S
H798 C812 0.929 . S
H799 C813 0.931 . S
H800 C815 0.930 . S
C801 H789 0.930 . S
C801 C802 1.399 . S
C801 C806 1.399 . S
C802 C801 1.399 . S
C802 C803 1.376 . S
C803 H790 0.930 . S
C803 C802 1.376 . S
C803 C804 1.388 . S
C804 H791 0.930 . S
C804 C803 1.388 . S
C804 C805 1.390 . S
C805 C804 1.390 . S
C805 C806 1.394 . S
C805 C811 1.465 . S
C806 C801 1.399 . S
C806 C805 1.394 . S
C806 C807 1.516 . S
C807 C806 1.516 . S
C807 C808 1.502 . S
C807 C809 1.561 . S
C807 C810 1.526 . S
C808 H792 0.959 . S
C808 H793 0.959 . S
C808 H794 0.961 . S
C808 C807 1.502 . S
C809 H795 0.960 . S
C809 H796 0.961 . S
C809 H797 0.959 . S
C809 C807 1.561 . S
C810 C807 1.526 . S
C810 C811 1.396 . S
C810 C815 1.390 . S
C811 C805 1.465 . S
C811 C810 1.396 . S
C811 C812 1.399 . S
C812 H798 0.929 . S
C812 C811 1.399 . S
C812 C813 1.385 . S
C813 H799 0.931 . S
C813 C812 1.385 . S
C813 C814 1.389 . S
C814 C813 1.389 . S
C814 C815 1.387 . S
C815 H800 0.930 . S
C815 C810 1.390 . S
C815 C814 1.387 . S
H816 C828 0.930 . S
H817 C830 0.930 . S
H818 C831 0.930 . S
H819 C835 0.959 . S
H820 C835 0.959 . S
H821 C835 0.961 . S
H822 C836 0.960 . S
H823 C836 0.961 . S
H824 C836 0.959 . S
H825 C839 0.929 . S
H826 C840 0.931 . S
H827 C842 0.930 . S
C828 H816 0.930 . S
C828 C829 1.399 . S
C828 C833 1.399 . S
C829 C828 1.399 . S
C829 C830 1.376 . S
C830 H817 0.930 . S
C830 C829 1.376 . S
C830 C831 1.388 . S
C831 H818 0.930 . S
C831 C830 1.388 . S
C831 C832 1.390 . S
C832 C831 1.390 . S
C832 C833 1.394 . S
C832 C838 1.465 . S
C833 C828 1.399 . S
C833 C832 1.394 . S
C833 C834 1.516 . S
C834 C833 1.516 . S
C834 C835 1.502 . S
C834 C836 1.561 . S
C834 C837 1.526 . S
C835 H819 0.959 . S
C835 H820 0.959 . S
C835 H821 0.961 . S
C835 C834 1.502 . S
C836 H822 0.960 . S
C836 H823 0.961 . S
C836 H824 0.959 . S
C836 C834 1.561 . S
C837 C834 1.526 . S
C837 C838 1.396 . S
C837 C842 1.390 . S
C838 C832 1.465 . S
C838 C837 1.396 . S
C838 C839 1.399 . S
C839 H825 0.929 . S
C839 C838 1.399 . S
C839 C840 1.385 . S
C840 H826 0.931 . S
C840 C839 1.385 . S
C840 C841 1.389 . S
C841 C840 1.389 . S
C841 C842 1.387 . S
C842 H827 0.930 . S
C842 C837 1.390 . S
C842 C841 1.387 . S
H843 C855 0.930 . S
H844 C857 0.930 . S
H845 C858 0.930 . S
H846 C862 0.959 . S
H847 C862 0.959 . S
H848 C862 0.961 . S
H849 C863 0.960 . S
H850 C863 0.961 . S
H851 C863 0.959 . S
H852 C866 0.929 . S
H853 C867 0.931 . S
H854 C869 0.930 . S
C855 H843 0.930 . S
C855 C856 1.399 . S
C855 C860 1.399 . S
C856 C855 1.399 . S
C856 C857 1.376 . S
C857 H844 0.930 . S
C857 C856 1.376 . S
C857 C858 1.388 . S
C858 H845 0.930 . S
C858 C857 1.388 . S
C858 C859 1.390 . S
C859 C858 1.390 . S
C859 C860 1.394 . S
C859 C865 1.465 . S
C860 C855 1.399 . S
C860 C859 1.394 . S
C860 C861 1.516 . S
C861 C860 1.516 . S
C861 C862 1.502 . S
C861 C863 1.561 . S
C861 C864 1.526 . S
C862 H846 0.959 . S
C862 H847 0.959 . S
C862 H848 0.961 . S
C862 C861 1.502 . S
C863 H849 0.960 . S
C863 H850 0.961 . S
C863 H851 0.959 . S
C863 C861 1.561 . S
C864 C861 1.526 . S
C864 C865 1.396 . S
C864 C869 1.390 . S
C865 C859 1.465 . S
C865 C864 1.396 . S
C865 C866 1.399 . S
C866 H852 0.929 . S
C866 C865 1.399 . S
C866 C867 1.385 . S
C867 H853 0.931 . S
C867 C866 1.385 . S
C867 C868 1.389 . S
C868 C867 1.389 . S
C868 C869 1.387 . S
C869 H854 0.930 . S
C869 C864 1.390 . S
C869 C868 1.387 . S
H870 C882 0.930 . S
H871 C884 0.930 . S
H872 C885 0.930 . S
H873 C889 0.959 . S
H874 C889 0.959 . S
H875 C889 0.961 . S
H876 C890 0.960 . S
H877 C890 0.961 . S
H878 C890 0.959 . S
H879 C893 0.929 . S
H880 C894 0.931 . S
H881 C896 0.930 . S
C882 H870 0.930 . S
C882 C883 1.399 . S
C882 C887 1.399 . S
C883 C882 1.399 . S
C883 C884 1.376 . S
C884 H871 0.930 . S
C884 C883 1.376 . S
C884 C885 1.388 . S
C885 H872 0.930 . S
C885 C884 1.388 . S
C885 C886 1.390 . S
C886 C885 1.390 . S
C886 C887 1.394 . S
C886 C892 1.465 . S
C887 C882 1.399 . S
C887 C886 1.394 . S
C887 C888 1.516 . S
C888 C887 1.516 . S
C888 C889 1.502 . S
C888 C890 1.561 . S
C888 C891 1.526 . S
C889 H873 0.959 . S
C889 H874 0.959 . S
C889 H875 0.961 . S
C889 C888 1.502 . S
C890 H876 0.960 . S
C890 H877 0.961 . S
C890 H878 0.959 . S
C890 C888 1.561 . S
C891 C888 1.526 . S
C891 C892 1.396 . S
C891 C896 1.390 . S
C892 C886 1.465 . S
C892 C891 1.396 . S
C892 C893 1.399 . S
C893 H879 0.929 . S
C893 C892 1.399 . S
C893 C894 1.385 . S
C894 H880 0.931 . S
C894 C893 1.385 . S
C894 C895 1.389 . S
C895 C894 1.389 . S
C895 C896 1.387 . S
C896 H881 0.930 . S
C896 C891 1.390 . S
C896 C895 1.387 . S
H897 C909 0.930 . S
H898 C911 0.930 . S
H899 C912 0.930 . S
H900 C916 0.959 . S
H901 C916 0.959 . S
H902 C916 0.961 . S
H903 C917 0.960 . S
H904 C917 0.961 . S
H905 C917 0.959 . S
H906 C920 0.929 . S
H907 C921 0.931 . S
H908 C923 0.930 . S
C909 H897 0.930 . S
C909 C910 1.399 . S
C909 C914 1.399 . S
C910 C909 1.399 . S
C910 C911 1.376 . S
C911 H898 0.930 . S
C911 C910 1.376 . S
C911 C912 1.388 . S
C912 H899 0.930 . S
C912 C911 1.388 . S
C912 C913 1.390 . S
C913 C912 1.390 . S
C913 C914 1.394 . S
C913 C919 1.465 . S
C914 C909 1.399 . S
C914 C913 1.394 . S
C914 C915 1.516 . S
C915 C914 1.516 . S
C915 C916 1.502 . S
C915 C917 1.561 . S
C915 C918 1.526 . S
C916 H900 0.959 . S
C916 H901 0.959 . S
C916 H902 0.961 . S
C916 C915 1.502 . S
C917 H903 0.960 . S
C917 H904 0.961 . S
C917 H905 0.959 . S
C917 C915 1.561 . S
C918 C915 1.526 . S
C918 C919 1.396 . S
C918 C923 1.390 . S
C919 C913 1.465 . S
C919 C918 1.396 . S
C919 C920 1.399 . S
C920 H906 0.929 . S
C920 C919 1.399 . S
C920 C921 1.385 . S
C921 H907 0.931 . S
C921 C920 1.385 . S
C921 C922 1.389 . S
C922 C921 1.389 . S
C922 C923 1.387 . S
C923 H908 0.930 . S
C923 C918 1.390 . S
C923 C922 1.387 . S
H924 C936 0.930 . S
H925 C938 0.930 . S
H926 C939 0.930 . S
H927 C943 0.959 . S
H928 C943 0.959 . S
H929 C943 0.961 . S
H930 C944 0.960 . S
H931 C944 0.961 . S
H932 C944 0.959 . S
H933 C947 0.929 . S
H934 C948 0.931 . S
H935 C950 0.930 . S
C936 H924 0.930 . S
C936 C937 1.399 . S
C936 C941 1.399 . S
C937 C936 1.399 . S
C937 C938 1.376 . S
C938 H925 0.930 . S
C938 C937 1.376 . S
C938 C939 1.388 . S
C939 H926 0.930 . S
C939 C938 1.388 . S
C939 C940 1.390 . S
C940 C939 1.390 . S
C940 C941 1.394 . S
C940 C946 1.465 . S
C941 C936 1.399 . S
C941 C940 1.394 . S
C941 C942 1.516 . S
C942 C941 1.516 . S
C942 C943 1.502 . S
C942 C944 1.561 . S
C942 C945 1.526 . S
C943 H927 0.959 . S
C943 H928 0.959 . S
C943 H929 0.961 . S
C943 C942 1.502 . S
C944 H930 0.960 . S
C944 H931 0.961 . S
C944 H932 0.959 . S
C944 C942 1.561 . S
C945 C942 1.526 . S
C945 C946 1.396 . S
C945 C950 1.390 . S
C946 C940 1.465 . S
C946 C945 1.396 . S
C946 C947 1.399 . S
C947 H933 0.929 . S
C947 C946 1.399 . S
C947 C948 1.385 . S
C948 H934 0.931 . S
C948 C947 1.385 . S
C948 C949 1.389 . S
C949 C948 1.389 . S
C949 C950 1.387 . S
C950 H935 0.930 . S
C950 C945 1.390 . S
C950 C949 1.387 . S
H951 C963 0.930 . S
H952 C965 0.930 . S
H953 C966 0.930 . S
H954 C970 0.959 . S
H955 C970 0.959 . S
H956 C970 0.961 . S
H957 C971 0.960 . S
H958 C971 0.961 . S
H959 C971 0.959 . S
H960 C974 0.929 . S
H961 C975 0.931 . S
H962 C977 0.930 . S
C963 H951 0.930 . S
C963 C964 1.399 . S
C963 C968 1.399 . S
C964 C963 1.399 . S
C964 C965 1.376 . S
C965 H952 0.930 . S
C965 C964 1.376 . S
C965 C966 1.388 . S
C966 H953 0.930 . S
C966 C965 1.388 . S
C966 C967 1.390 . S
C967 C966 1.390 . S
C967 C968 1.394 . S
C967 C973 1.465 . S
C968 C963 1.399 . S
C968 C967 1.394 . S
C968 C969 1.516 . S
C969 C968 1.516 . S
C969 C970 1.502 . S
C969 C971 1.561 . S
C969 C972 1.526 . S
C970 H954 0.959 . S
C970 H955 0.959 . S
C970 H956 0.961 . S
C970 C969 1.502 . S
C971 H957 0.960 . S
C971 H958 0.961 . S
C971 H959 0.959 . S
C971 C969 1.561 . S
C972 C969 1.526 . S
C972 C973 1.396 . S
C972 C977 1.390 . S
C973 C967 1.465 . S
C973 C972 1.396 . S
C973 C974 1.399 . S
C974 H960 0.929 . S
C974 C973 1.399 . S
C974 C975 1.385 . S
C975 H961 0.931 . S
C975 C974 1.385 . S
C975 C976 1.389 . S
C976 C975 1.389 . S
C976 C977 1.387 . S
C977 H962 0.930 . S
C977 C972 1.390 . S
C977 C976 1.387 . S
H978 C990 0.930 . S
H979 C992 0.930 . S
H980 C993 0.930 . S
H981 C997 0.959 . S
H982 C997 0.959 . S
H983 C997 0.961 . S
H984 C998 0.960 . S
H985 C998 0.961 . S
H986 C998 0.959 . S
H987 C1001 0.929 . S
H988 C1002 0.931 . S
H989 C1004 0.930 . S
C990 H978 0.930 . S
C990 C991 1.399 . S
C990 C995 1.399 . S
C991 C990 1.399 . S
C991 C992 1.376 . S
C992 H979 0.930 . S
C992 C991 1.376 . S
C992 C993 1.388 . S
C993 H980 0.930 . S
C993 C992 1.388 . S
C993 C994 1.390 . S
C994 C993 1.390 . S
C994 C995 1.394 . S
C994 C1000 1.465 . S
C995 C990 1.399 . S
C995 C994 1.394 . S
C995 C996 1.516 . S
C996 C995 1.516 . S
C996 C997 1.502 . S
C996 C998 1.561 . S
C996 C999 1.526 . S
C997 H981 0.959 . S
C997 H982 0.959 . S
C997 H983 0.961 . S
C997 C996 1.502 . S
C998 H984 0.960 . S
C998 H985 0.961 . S
C998 H986 0.959 . S
C998 C996 1.561 . S
C999 C996 1.526 . S
C999 C1000 1.396 . S
C999 C1004 1.390 . S
C1000 C994 1.465 . S
C1000 C999 1.396 . S
C1000 C1001 1.399 . S
C1001 H987 0.929 . S
C1001 C1000 1.399 . S
C1001 C1002 1.385 . S
C1002 H988 0.931 . S
C1002 C1001 1.385 . S
C1002 C1003 1.389 . S
C1003 C1002 1.389 . S
C1003 C1004 1.387 . S
C1004 H989 0.930 . S
C1004 C999 1.390 . S
C1004 C1003 1.387 . S
H1005 C1017 0.930 . S
H1006 C1019 0.930 . S
H1007 C1020 0.930 . S
H1008 C1024 0.959 . S
H1009 C1024 0.959 . S
H1010 C1024 0.961 . S
H1011 C1025 0.954 1_556 S
H1012 C1025 0.961 . S
H1013 C1025 0.959 . S
H1014 C1028 0.929 . S
H1015 C1029 0.931 . S
H1016 C1031 0.930 . S
C1017 H1005 0.930 . S
C1017 C1018 1.399 . S
C1017 C1022 1.399 . S
C1018 C1017 1.399 . S
C1018 C1019 1.376 . S
C1019 H1006 0.930 . S
C1019 C1018 1.376 . S
C1019 C1020 1.388 . S
C1020 H1007 0.930 . S
C1020 C1019 1.388 . S
C1020 C1021 1.390 . S
C1021 C1020 1.390 . S
C1021 C1022 1.394 . S
C1021 C1027 1.465 . S
C1022 C1017 1.399 . S
C1022 C1021 1.394 . S
C1022 C1023 1.516 . S
C1023 C1022 1.516 . S
C1023 C1024 1.502 . S
C1023 C1025 1.561 . S
C1023 C1026 1.526 . S
C1024 H1008 0.959 . S
C1024 H1009 0.959 . S
C1024 H1010 0.961 . S
C1024 C1023 1.502 . S
C1025 H1011 0.954 1_554 S
C1025 H1012 0.961 . S
C1025 H1013 0.959 . S
C1025 C1023 1.561 . S
C1026 C1023 1.526 . S
C1026 C1027 1.396 . S
C1026 C1031 1.390 . S
C1027 C1021 1.465 . S
C1027 C1026 1.396 . S
C1027 C1028 1.399 . S
C1028 H1014 0.929 . S
C1028 C1027 1.399 . S
C1028 C1029 1.385 . S
C1029 H1015 0.931 . S
C1029 C1028 1.385 . S
C1029 C1030 1.389 . S
C1030 C1029 1.389 . S
C1030 C1031 1.387 . S
C1031 H1016 0.930 . S
C1031 C1026 1.390 . S
C1031 C1030 1.387 . S
H1032 C1044 0.930 . S
H1033 C1046 0.930 . S
H1034 C1047 0.930 . S
H1035 C1051 0.959 . S
H1036 C1051 0.959 . S
H1037 C1051 0.961 . S
H1038 C1052 0.960 . S
H1039 C1052 0.961 . S
H1040 C1052 0.959 . S
H1041 C1055 0.929 . S
H1042 C1056 0.931 . S
H1043 C1058 0.930 . S
C1044 H1032 0.930 . S
C1044 C1045 1.399 . S
C1044 C1049 1.399 . S
C1045 C1044 1.399 . S
C1045 C1046 1.376 . S
C1046 H1033 0.930 . S
C1046 C1045 1.376 . S
C1046 C1047 1.388 . S
C1047 H1034 0.930 . S
C1047 C1046 1.388 . S
C1047 C1048 1.390 . S
C1048 C1047 1.390 . S
C1048 C1049 1.394 . S
C1048 C1054 1.465 . S
C1049 C1044 1.399 . S
C1049 C1048 1.394 . S
C1049 C1050 1.516 . S
C1050 C1049 1.516 . S
C1050 C1051 1.502 . S
C1050 C1052 1.561 . S
C1050 C1053 1.526 . S
C1051 H1035 0.959 . S
C1051 H1036 0.959 . S
C1051 H1037 0.961 . S
C1051 C1050 1.502 . S
C1052 H1038 0.960 . S
C1052 H1039 0.961 . S
C1052 H1040 0.959 . S
C1052 C1050 1.561 . S
C1053 C1050 1.526 . S
C1053 C1054 1.396 . S
C1053 C1058 1.390 . S
C1054 C1048 1.465 . S
C1054 C1053 1.396 . S
C1054 C1055 1.399 . S
C1055 H1041 0.929 . S
C1055 C1054 1.399 . S
C1055 C1056 1.385 . S
C1056 H1042 0.931 . S
C1056 C1055 1.385 . S
C1056 C1057 1.389 . S
C1057 C1056 1.389 . S
C1057 C1058 1.387 . S
C1058 H1043 0.930 . S
C1058 C1053 1.390 . S
C1058 C1057 1.387 . S
H1059 C1071 0.930 . S
H1060 C1073 0.930 . S
H1061 C1074 0.930 . S
H1062 C1078 0.959 . S
H1063 C1078 0.959 . S
H1064 C1078 0.961 . S
H1065 C1079 0.960 . S
H1066 C1079 0.961 . S
H1067 C1079 0.959 . S
H1068 C1082 0.929 . S
H1069 C1083 0.931 . S
H1070 C1085 0.930 . S
C1071 H1059 0.930 . S
C1071 C1072 1.399 . S
C1071 C1076 1.399 . S
C1072 C1071 1.399 . S
C1072 C1073 1.376 . S
C1073 H1060 0.930 . S
C1073 C1072 1.376 . S
C1073 C1074 1.388 . S
C1074 H1061 0.930 . S
C1074 C1073 1.388 . S
C1074 C1075 1.390 . S
C1075 C1074 1.390 . S
C1075 C1076 1.394 . S
C1075 C1081 1.465 . S
C1076 C1071 1.399 . S
C1076 C1075 1.394 . S
C1076 C1077 1.516 . S
C1077 C1076 1.516 . S
C1077 C1078 1.502 . S
C1077 C1079 1.561 . S
C1077 C1080 1.526 . S
C1078 H1062 0.959 . S
C1078 H1063 0.959 . S
C1078 H1064 0.961 . S
C1078 C1077 1.502 . S
C1079 H1065 0.960 . S
C1079 H1066 0.961 . S
C1079 H1067 0.959 . S
C1079 C1077 1.561 . S
C1080 C1077 1.526 . S
C1080 C1081 1.396 . S
C1080 C1085 1.390 . S
C1081 C1075 1.465 . S
C1081 C1080 1.396 . S
C1081 C1082 1.399 . S
C1082 H1068 0.929 . S
C1082 C1081 1.399 . S
C1082 C1083 1.385 . S
C1083 H1069 0.931 . S
C1083 C1082 1.385 . S
C1083 C1084 1.389 . S
C1084 C1083 1.389 . S
C1084 C1085 1.387 . S
C1085 H1070 0.930 . S
C1085 C1080 1.390 . S
C1085 C1084 1.387 . S
H1086 C1098 0.930 . S
H1087 C1100 0.930 . S
H1088 C1101 0.930 . S
H1089 C1105 0.959 . S
H1090 C1105 0.959 . S
H1091 C1105 0.961 . S
H1092 C1106 0.960 . S
H1093 C1106 0.961 . S
H1094 C1106 0.959 . S
H1095 C1109 0.929 . S
H1096 C1110 0.931 . S
H1097 C1112 0.930 . S
C1098 H1086 0.930 . S
C1098 C1099 1.399 . S
C1098 C1103 1.399 . S
C1099 C1098 1.399 . S
C1099 C1100 1.376 . S
C1100 H1087 0.930 . S
C1100 C1099 1.376 . S
C1100 C1101 1.388 . S
C1101 H1088 0.930 . S
C1101 C1100 1.388 . S
C1101 C1102 1.390 . S
C1102 C1101 1.390 . S
C1102 C1103 1.394 . S
C1102 C1108 1.465 . S
C1103 C1098 1.399 . S
C1103 C1102 1.394 . S
C1103 C1104 1.516 . S
C1104 C1103 1.516 . S
C1104 C1105 1.502 . S
C1104 C1106 1.561 . S
C1104 C1107 1.526 . S
C1105 H1089 0.959 . S
C1105 H1090 0.959 . S
C1105 H1091 0.961 . S
C1105 C1104 1.502 . S
C1106 H1092 0.960 . S
C1106 H1093 0.961 . S
C1106 H1094 0.959 . S
C1106 C1104 1.561 . S
C1107 C1104 1.526 . S
C1107 C1108 1.396 . S
C1107 C1112 1.390 . S
C1108 C1102 1.465 . S
C1108 C1107 1.396 . S
C1108 C1109 1.399 . S
C1109 H1095 0.929 . S
C1109 C1108 1.399 . S
C1109 C1110 1.385 . S
C1110 H1096 0.931 . S
C1110 C1109 1.385 . S
C1110 C1111 1.389 . S
C1111 C1110 1.389 . S
C1111 C1112 1.387 . S
C1112 H1097 0.930 . S
C1112 C1107 1.390 . S
C1112 C1111 1.387 . S
H1113 C1125 0.930 . S
H1114 C1127 0.930 . S
H1115 C1128 0.930 . S
H1116 C1132 0.959 . S
H1117 C1132 0.959 . S
H1118 C1132 0.961 . S
H1119 C1133 0.960 . S
H1120 C1133 0.961 . S
H1121 C1133 0.959 . S
H1122 C1136 0.929 . S
H1123 C1137 0.931 . S
H1124 C1139 0.930 . S
C1125 H1113 0.930 . S
C1125 C1126 1.399 . S
C1125 C1130 1.399 . S
C1126 C1125 1.399 . S
C1126 C1127 1.376 . S
C1127 H1114 0.930 . S
C1127 C1126 1.376 . S
C1127 C1128 1.388 . S
C1128 H1115 0.930 . S
C1128 C1127 1.388 . S
C1128 C1129 1.390 . S
C1129 C1128 1.390 . S
C1129 C1130 1.394 . S
C1129 C1135 1.465 . S
C1130 C1125 1.399 . S
C1130 C1129 1.394 . S
C1130 C1131 1.516 . S
C1131 C1130 1.516 . S
C1131 C1132 1.502 . S
C1131 C1133 1.561 . S
C1131 C1134 1.526 . S
C1132 H1116 0.959 . S
C1132 H1117 0.959 . S
C1132 H1118 0.961 . S
C1132 C1131 1.502 . S
C1133 H1119 0.960 . S
C1133 H1120 0.961 . S
C1133 H1121 0.959 . S
C1133 C1131 1.561 . S
C1134 C1131 1.526 . S
C1134 C1135 1.396 . S
C1134 C1139 1.390 . S
C1135 C1129 1.465 . S
C1135 C1134 1.396 . S
C1135 C1136 1.399 . S
C1136 H1122 0.929 . S
C1136 C1135 1.399 . S
C1136 C1137 1.385 . S
C1137 H1123 0.931 . S
C1137 C1136 1.385 . S
C1137 C1138 1.389 . S
C1138 C1137 1.389 . S
C1138 C1139 1.387 . S
C1139 H1124 0.930 . S
C1139 C1134 1.390 . S
C1139 C1138 1.387 . S
H1140 C1152 0.930 . S
H1141 C1154 0.930 . S
H1142 C1155 0.930 . S
H1143 C1159 0.959 . S
H1144 C1159 0.959 . S
H1145 C1159 0.961 . S
H1146 C1160 0.960 . S
H1147 C1160 0.961 . S
H1148 C1160 0.959 . S
H1149 C1163 0.929 . S
H1150 C1164 0.931 . S
H1151 C1166 0.930 . S
C1152 H1140 0.930 . S
C1152 C1153 1.399 . S
C1152 C1157 1.399 . S
C1153 C1152 1.399 . S
C1153 C1154 1.376 . S
C1154 H1141 0.930 . S
C1154 C1153 1.376 . S
C1154 C1155 1.388 . S
C1155 H1142 0.930 . S
C1155 C1154 1.388 . S
C1155 C1156 1.390 . S
C1156 C1155 1.390 . S
C1156 C1157 1.394 . S
C1156 C1162 1.465 . S
C1157 C1152 1.399 . S
C1157 C1156 1.394 . S
C1157 C1158 1.516 . S
C1158 C1157 1.516 . S
C1158 C1159 1.502 . S
C1158 C1160 1.561 . S
C1158 C1161 1.526 . S
C1159 H1143 0.959 . S
C1159 H1144 0.959 . S
C1159 H1145 0.961 . S
C1159 C1158 1.502 . S
C1160 H1146 0.960 . S
C1160 H1147 0.961 . S
C1160 H1148 0.959 . S
C1160 C1158 1.561 . S
C1161 C1158 1.526 . S
C1161 C1162 1.396 . S
C1161 C1166 1.390 . S
C1162 C1156 1.465 . S
C1162 C1161 1.396 . S
C1162 C1163 1.399 . S
C1163 H1149 0.929 . S
C1163 C1162 1.399 . S
C1163 C1164 1.385 . S
C1164 H1150 0.931 . S
C1164 C1163 1.385 . S
C1164 C1165 1.389 . S
C1165 C1164 1.389 . S
C1165 C1166 1.387 . S
C1166 H1151 0.930 . S
C1166 C1161 1.390 . S
C1166 C1165 1.387 . S
H1167 C1179 0.930 . S
H1168 C1181 0.930 . S
H1169 C1182 0.930 . S
H1170 C1186 0.946 1_554 S
H1171 C1186 0.934 1_554 S
H1172 C1186 0.984 . S
H1173 C1187 0.960 . S
H1174 C1187 0.961 . S
H1175 C1187 0.959 . S
H1176 C1190 0.929 1_556 S
H1177 C1191 0.931 . S
H1178 C1193 0.930 . S
C1179 H1167 0.930 . S
C1179 C1180 1.399 . S
C1179 C1184 1.399 . S
C1180 C1179 1.399 . S
C1180 C1181 1.376 . S
C1181 H1168 0.930 . S
C1181 C1180 1.376 . S
C1181 C1182 1.388 . S
C1182 H1169 0.930 . S
C1182 C1181 1.388 . S
C1182 C1183 1.390 . S
C1183 C1182 1.390 . S
C1183 C1184 1.394 . S
C1183 C1189 1.465 . S
C1184 C1179 1.399 . S
C1184 C1183 1.394 . S
C1184 C1185 1.516 . S
C1185 C1184 1.516 . S
C1185 C1186 1.519 . S
C1185 C1187 1.561 . S
C1185 C1188 1.526 1_556 S
C1186 H1170 0.946 1_556 S
C1186 H1171 0.934 1_556 S
C1186 H1172 0.984 . S
C1186 C1185 1.519 . S
C1187 H1173 0.960 . S
C1187 H1174 0.961 . S
C1187 H1175 0.959 . S
C1187 C1185 1.561 . S
C1188 C1185 1.526 1_554 S
C1188 C1189 1.396 1_554 S
C1188 C1193 1.390 . S
C1189 C1183 1.465 . S
C1189 C1188 1.396 1_556 S
C1189 C1190 1.399 1_556 S
C1190 H1176 0.929 1_554 S
C1190 C1189 1.399 1_554 S
C1190 C1191 1.385 . S
C1191 H1177 0.931 . S
C1191 C1190 1.385 . S
C1191 C1192 1.389 . S
C1192 C1191 1.389 . S
C1192 C1193 1.387 . S
C1193 H1178 0.930 . S
C1193 C1188 1.390 . S
C1193 C1192 1.387 . S
H1194 C1206 0.930 . S
H1195 C1208 0.930 . S
H1196 C1209 0.930 . S
H1197 C1213 0.959 . S
H1198 C1213 0.959 . S
H1199 C1213 0.961 . S
H1200 C1214 0.960 . S
H1201 C1214 0.961 . S
H1202 C1214 0.959 . S
H1203 C1217 0.929 . S
H1204 C1218 0.931 . S
H1205 C1220 0.930 . S
C1206 H1194 0.930 . S
C1206 C1207 1.399 . S
C1206 C1211 1.399 . S
C1207 C1206 1.399 . S
C1207 C1208 1.376 . S
C1208 H1195 0.930 . S
C1208 C1207 1.376 . S
C1208 C1209 1.388 . S
C1209 H1196 0.930 . S
C1209 C1208 1.388 . S
C1209 C1210 1.390 . S
C1210 C1209 1.390 . S
C1210 C1211 1.394 . S
C1210 C1216 1.465 . S
C1211 C1206 1.399 . S
C1211 C1210 1.394 . S
C1211 C1212 1.516 . S
C1212 C1211 1.516 . S
C1212 C1213 1.502 . S
C1212 C1214 1.561 . S
C1212 C1215 1.526 . S
C1213 H1197 0.959 . S
C1213 H1198 0.959 . S
C1213 H1199 0.961 . S
C1213 C1212 1.502 . S
C1214 H1200 0.960 . S
C1214 H1201 0.961 . S
C1214 H1202 0.959 . S
C1214 C1212 1.561 . S
C1215 C1212 1.526 . S
C1215 C1216 1.396 . S
C1215 C1220 1.390 . S
C1216 C1210 1.465 . S
C1216 C1215 1.396 . S
C1216 C1217 1.399 . S
C1217 H1203 0.929 . S
C1217 C1216 1.399 . S
C1217 C1218 1.385 . S
C1218 H1204 0.931 . S
C1218 C1217 1.385 . S
C1218 C1219 1.389 . S
C1219 C1218 1.389 . S
C1219 C1220 1.387 . S
C1220 H1205 0.930 . S
C1220 C1215 1.390 . S
C1220 C1219 1.387 . S
H1221 C1233 0.930 . S
H1222 C1235 0.930 . S
H1223 C1236 0.930 . S
H1224 C1240 0.959 . S
H1225 C1240 0.959 . S
H1226 C1240 0.961 . S
H1227 C1241 0.960 . S
H1228 C1241 0.961 . S
H1229 C1241 0.959 . S
H1230 C1244 0.929 . S
H1231 C1245 0.931 . S
H1232 C1247 0.930 . S
C1233 H1221 0.930 . S
C1233 C1234 1.399 . S
C1233 C1238 1.399 . S
C1234 C1233 1.399 . S
C1234 C1235 1.376 . S
C1235 H1222 0.930 . S
C1235 C1234 1.376 . S
C1235 C1236 1.388 . S
C1236 H1223 0.930 . S
C1236 C1235 1.388 . S
C1236 C1237 1.390 . S
C1237 C1236 1.390 . S
C1237 C1238 1.394 . S
C1237 C1243 1.465 . S
C1238 C1233 1.399 . S
C1238 C1237 1.394 . S
C1238 C1239 1.516 . S
C1239 C1238 1.516 . S
C1239 C1240 1.502 . S
C1239 C1241 1.561 . S
C1239 C1242 1.526 . S
C1240 H1224 0.959 . S
C1240 H1225 0.959 . S
C1240 H1226 0.961 . S
C1240 C1239 1.502 . S
C1241 H1227 0.960 . S
C1241 H1228 0.961 . S
C1241 H1229 0.959 . S
C1241 C1239 1.561 . S
C1242 C1239 1.526 . S
C1242 C1243 1.396 . S
C1242 C1247 1.390 . S
C1243 C1237 1.465 . S
C1243 C1242 1.396 . S
C1243 C1244 1.399 . S
C1244 H1230 0.929 . S
C1244 C1243 1.399 . S
C1244 C1245 1.385 . S
C1245 H1231 0.931 . S
C1245 C1244 1.385 . S
C1245 C1246 1.389 . S
C1246 C1245 1.389 . S
C1246 C1247 1.387 . S
C1247 H1232 0.930 . S
C1247 C1242 1.390 . S
C1247 C1246 1.387 . S
H1248 C1260 0.930 . S
H1249 C1262 0.930 . S
H1250 C1263 0.930 . S
H1251 C1267 0.959 . S
H1252 C1267 0.959 . S
H1253 C1267 0.961 . S
H1254 C1268 0.960 . S
H1255 C1268 0.961 . S
H1256 C1268 0.959 . S
H1257 C1271 0.929 . S
H1258 C1272 0.931 . S
H1259 C1274 0.930 . S
C1260 H1248 0.930 . S
C1260 C1261 1.399 . S
C1260 C1265 1.399 . S
C1261 C1260 1.399 . S
C1261 C1262 1.376 . S
C1262 H1249 0.930 . S
C1262 C1261 1.376 . S
C1262 C1263 1.388 . S
C1263 H1250 0.930 . S
C1263 C1262 1.388 . S
C1263 C1264 1.390 . S
C1264 C1263 1.390 . S
C1264 C1265 1.394 . S
C1264 C1270 1.465 . S
C1265 C1260 1.399 . S
C1265 C1264 1.394 . S
C1265 C1266 1.516 . S
C1266 C1265 1.516 . S
C1266 C1267 1.502 . S
C1266 C1268 1.561 . S
C1266 C1269 1.526 . S
C1267 H1251 0.959 . S
C1267 H1252 0.959 . S
C1267 H1253 0.961 . S
C1267 C1266 1.502 . S
C1268 H1254 0.960 . S
C1268 H1255 0.961 . S
C1268 H1256 0.959 . S
C1268 C1266 1.561 . S
C1269 C1266 1.526 . S
C1269 C1270 1.396 . S
C1269 C1274 1.390 . S
C1270 C1264 1.465 . S
C1270 C1269 1.396 . S
C1270 C1271 1.399 . S
C1271 H1257 0.929 . S
C1271 C1270 1.399 . S
C1271 C1272 1.385 . S
C1272 H1258 0.931 . S
C1272 C1271 1.385 . S
C1272 C1273 1.389 . S
C1273 C1272 1.389 . S
C1273 C1274 1.387 . S
C1274 H1259 0.930 . S
C1274 C1269 1.390 . S
C1274 C1273 1.387 . S
H1275 C1287 0.930 . S
H1276 C1289 0.930 . S
H1277 C1290 0.930 . S
H1278 C1294 0.959 . S
H1279 C1294 0.959 . S
H1280 C1294 0.961 . S
H1281 C1295 0.960 . S
H1282 C1295 0.961 . S
H1283 C1295 0.959 . S
H1284 C1298 0.929 . S
H1285 C1299 0.931 . S
H1286 C1301 0.930 . S
C1287 H1275 0.930 . S
C1287 C1288 1.399 . S
C1287 C1292 1.399 . S
C1288 C1287 1.399 . S
C1288 C1289 1.376 . S
C1289 H1276 0.930 . S
C1289 C1288 1.376 . S
C1289 C1290 1.388 . S
C1290 H1277 0.930 . S
C1290 C1289 1.388 . S
C1290 C1291 1.390 . S
C1291 C1290 1.390 . S
C1291 C1292 1.394 . S
C1291 C1297 1.465 . S
C1292 C1287 1.399 . S
C1292 C1291 1.394 . S
C1292 C1293 1.516 . S
C1293 C1292 1.516 . S
C1293 C1294 1.502 . S
C1293 C1295 1.561 . S
C1293 C1296 1.526 . S
C1294 H1278 0.959 . S
C1294 H1279 0.959 . S
C1294 H1280 0.961 . S
C1294 C1293 1.502 . S
C1295 H1281 0.960 . S
C1295 H1282 0.961 . S
C1295 H1283 0.959 . S
C1295 C1293 1.561 . S
C1296 C1293 1.526 . S
C1296 C1297 1.396 . S
C1296 C1301 1.390 . S
C1297 C1291 1.465 . S
C1297 C1296 1.396 . S
C1297 C1298 1.399 . S
C1298 H1284 0.929 . S
C1298 C1297 1.399 . S
C1298 C1299 1.385 . S
C1299 H1285 0.931 . S
C1299 C1298 1.385 . S
C1299 C1300 1.389 . S
C1300 C1299 1.389 . S
C1300 C1301 1.387 . S
C1301 H1286 0.930 . S
C1301 C1296 1.390 . S
C1301 C1300 1.387 . S
H1302 C1314 0.930 . S
H1303 C1316 0.930 . S
H1304 C1317 0.930 . S
H1305 C1321 0.959 . S
H1306 C1321 0.959 . S
H1307 C1321 0.961 . S
H1308 C1322 0.960 . S
H1309 C1322 0.961 . S
H1310 C1322 0.959 . S
H1311 C1325 0.929 . S
H1312 C1326 0.931 . S
H1313 C1328 0.930 . S
C1314 H1302 0.930 . S
C1314 C1315 1.399 . S
C1314 C1319 1.399 . S
C1315 C1314 1.399 . S
C1315 C1316 1.376 . S
C1316 H1303 0.930 . S
C1316 C1315 1.376 . S
C1316 C1317 1.388 . S
C1317 H1304 0.930 . S
C1317 C1316 1.388 . S
C1317 C1318 1.390 . S
C1318 C1317 1.390 . S
C1318 C1319 1.394 . S
C1318 C1324 1.465 . S
C1319 C1314 1.399 . S
C1319 C1318 1.394 . S
C1319 C1320 1.516 . S
C1320 C1319 1.516 . S
C1320 C1321 1.502 . S
C1320 C1322 1.561 . S
C1320 C1323 1.526 . S
C1321 H1305 0.959 . S
C1321 H1306 0.959 . S
C1321 H1307 0.961 . S
C1321 C1320 1.502 . S
C1322 H1308 0.960 . S
C1322 H1309 0.961 . S
C1322 H1310 0.959 . S
C1322 C1320 1.561 . S
C1323 C1320 1.526 . S
C1323 C1324 1.396 . S
C1323 C1328 1.390 . S
C1324 C1318 1.465 . S
C1324 C1323 1.396 . S
C1324 C1325 1.399 . S
C1325 H1311 0.929 . S
C1325 C1324 1.399 . S
C1325 C1326 1.385 . S
C1326 H1312 0.931 . S
C1326 C1325 1.385 . S
C1326 C1327 1.389 . S
C1327 C1326 1.389 . S
C1327 C1328 1.387 . S
C1328 H1313 0.930 . S
C1328 C1323 1.390 . S
C1328 C1327 1.387 . S
H1329 C1341 0.930 . S
H1330 C1343 0.930 . S
H1331 C1344 0.930 . S
H1332 C1348 0.959 . S
H1333 C1348 0.959 . S
H1334 C1348 0.961 . S
H1335 C1349 0.960 . S
H1336 C1349 0.961 . S
H1337 C1349 0.959 . S
H1338 C1352 0.929 . S
H1339 C1353 0.931 . S
H1340 C1355 0.930 . S
C1341 H1329 0.930 . S
C1341 C1342 1.399 . S
C1341 C1346 1.399 . S
C1342 C1341 1.399 . S
C1342 C1343 1.376 . S
C1343 H1330 0.930 . S
C1343 C1342 1.376 . S
C1343 C1344 1.388 . S
C1344 H1331 0.930 . S
C1344 C1343 1.388 . S
C1344 C1345 1.390 . S
C1345 C1344 1.390 . S
C1345 C1346 1.394 . S
C1345 C1351 1.465 . S
C1346 C1341 1.399 . S
C1346 C1345 1.394 . S
C1346 C1347 1.516 . S
C1347 C1346 1.516 . S
C1347 C1348 1.502 . S
C1347 C1349 1.561 . S
C1347 C1350 1.526 . S
C1348 H1332 0.959 . S
C1348 H1333 0.959 . S
C1348 H1334 0.961 . S
C1348 C1347 1.502 . S
C1349 H1335 0.960 . S
C1349 H1336 0.961 . S
C1349 H1337 0.959 . S
C1349 C1347 1.561 . S
C1350 C1347 1.526 . S
C1350 C1351 1.396 . S
C1350 C1355 1.390 . S
C1351 C1345 1.465 . S
C1351 C1350 1.396 . S
C1351 C1352 1.399 . S
C1352 H1338 0.929 . S
C1352 C1351 1.399 . S
C1352 C1353 1.385 . S
C1353 H1339 0.931 . S
C1353 C1352 1.385 . S
C1353 C1354 1.389 . S
C1354 C1353 1.389 . S
C1354 C1355 1.387 . S
C1355 H1340 0.930 . S
C1355 C1350 1.390 . S
C1355 C1354 1.387 . S
H1356 C1368 0.930 . S
H1357 C1370 0.930 . S
H1358 C1371 0.930 . S
H1359 C1375 0.959 . S
H1360 C1375 0.959 . S
H1361 C1375 0.961 . S
H1362 C1376 0.960 . S
H1363 C1376 0.961 1_556 S
H1364 C1376 0.959 1_556 S
H1365 C1379 0.929 . S
H1366 C1380 0.931 . S
H1367 C1382 0.930 . S
C1368 H1356 0.930 . S
C1368 C1369 1.399 . S
C1368 C1373 1.399 . S
C1369 C1368 1.399 . S
C1369 C1370 1.376 . S
C1370 H1357 0.930 . S
C1370 C1369 1.376 . S
C1370 C1371 1.388 . S
C1371 H1358 0.930 . S
C1371 C1370 1.388 . S
C1371 C1372 1.390 . S
C1372 C1371 1.390 . S
C1372 C1373 1.394 . S
C1372 C1378 1.465 1_554 S
C1373 C1368 1.399 . S
C1373 C1372 1.394 . S
C1373 C1374 1.516 . S
C1374 C1373 1.516 . S
C1374 C1375 1.502 . S
C1374 C1376 1.561 . S
C1374 C1377 1.526 1_554 S
C1375 H1359 0.959 . S
C1375 H1360 0.959 . S
C1375 H1361 0.961 . S
C1375 C1374 1.502 . S
C1376 H1362 0.960 . S
C1376 H1363 0.961 1_554 S
C1376 H1364 0.959 1_554 S
C1376 C1374 1.561 . S
C1377 C1374 1.526 1_556 S
C1377 C1378 1.396 . S
C1377 C1382 1.390 . S
C1378 C1372 1.465 1_556 S
C1378 C1377 1.396 . S
C1378 C1379 1.399 . S
C1379 H1365 0.929 . S
C1379 C1378 1.399 . S
C1379 C1380 1.385 . S
C1380 H1366 0.931 . S
C1380 C1379 1.385 . S
C1380 C1381 1.389 . S
C1381 C1380 1.389 . S
C1381 C1382 1.387 . S
C1382 H1367 0.930 . S
C1382 C1377 1.390 . S
C1382 C1381 1.387 . S
H1383 C1395 0.930 . S
H1384 C1397 0.930 . S
H1385 C1398 0.930 . S
H1386 C1402 0.959 . S
H1387 C1402 0.959 . S
H1388 C1402 0.961 . S
H1389 C1403 0.960 . S
H1390 C1403 0.961 . S
H1391 C1403 0.959 . S
H1392 C1406 0.929 . S
H1393 C1407 0.931 . S
H1394 C1409 0.930 . S
C1395 H1383 0.930 . S
C1395 C1396 1.399 . S
C1395 C1400 1.399 . S
C1396 C1395 1.399 . S
C1396 C1397 1.376 . S
C1397 H1384 0.930 . S
C1397 C1396 1.376 . S
C1397 C1398 1.388 . S
C1398 H1385 0.930 . S
C1398 C1397 1.388 . S
C1398 C1399 1.390 . S
C1399 C1398 1.390 . S
C1399 C1400 1.394 . S
C1399 C1405 1.465 . S
C1400 C1395 1.399 . S
C1400 C1399 1.394 . S
C1400 C1401 1.516 . S
C1401 C1400 1.516 . S
C1401 C1402 1.502 . S
C1401 C1403 1.561 . S
C1401 C1404 1.526 . S
C1402 H1386 0.959 . S
C1402 H1387 0.959 . S
C1402 H1388 0.961 . S
C1402 C1401 1.502 . S
C1403 H1389 0.960 . S
C1403 H1390 0.961 . S
C1403 H1391 0.959 . S
C1403 C1401 1.561 . S
C1404 C1401 1.526 . S
C1404 C1405 1.396 . S
C1404 C1409 1.390 . S
C1405 C1399 1.465 . S
C1405 C1404 1.396 . S
C1405 C1406 1.399 . S
C1406 H1392 0.929 . S
C1406 C1405 1.399 . S
C1406 C1407 1.385 . S
C1407 H1393 0.931 . S
C1407 C1406 1.385 . S
C1407 C1408 1.389 . S
C1408 C1407 1.389 . S
C1408 C1409 1.387 . S
C1409 H1394 0.930 . S
C1409 C1404 1.390 . S
C1409 C1408 1.387 . S
C787 C754 1.577 . S
C775 C1 1.184 . S
C802 C169 1.381 . S
C814 C689 1.719 . S
C829 C283 1.332 . S
C841 C707 1.684 . S
C856 C397 1.264 . S
C868 C720 1.543 . S
C895 C728 1.441 . S
C883 C457 1.121 . S
C910 C571 1.190 . S
C922 C740 1.450 . S
C937 C115 1.209 . S
C949 C702 1.569 . S
C964 C229 1.045 . S
C976 C715 1.445 . S
C991 C343 1.100 . S
C1003 C733 1.410 . S
C1030 C739 1.545 . S
C1018 C511 1.188 . S
C1057 C759 1.668 . S
C1045 C625 1.274 . S
C1084 C694 1.722 . S
C1072 C55 1.439 . S
C1099 C29 1.222 . S
C1111 C700 1.521 . S
C1126 C125 1.014 . S
C1138 C713 1.632 . S
C1165 C727 1.552 . S
C1153 C239 0.970 . S
C1180 C353 1.004 . S
C1192 C741 1.559 . S
C1219 C753 1.461 . S
C1207 C485 1.237 . S
C1246 C688 1.544 . S
C1234 C599 1.368 . S
C1273 C752 1.539 . S
C1261 C143 1.303 . S
C1288 C257 1.357 . S
C1300 C687 1.539 . S
C1327 C701 1.474 . S
C1315 C371 1.308 . S
C1342 C467 0.860 . S
C1354 C714 1.562 . S
C1369 C581 0.792 . S
C1381 C726 1.594 . S
C1396 C11 0.832 . S
C1408 C746 1.641 . S
