# Generated by pormake.
# Topology zzz, (3,6)-cn, num edge types: 1
# Building blocks:
#     Node 0, Type 0, BuildingBlock: MIDCAF_clean_linker_0, # of connection points: 3
#     Node 1, Type 0, BuildingBlock: MIDCAF_clean_linker_0, # of connection points: 3
#     Node 2, Type 0, BuildingBlock: MIDCAF_clean_linker_0, # of connection points: 3
#     Node 3, Type 0, BuildingBlock: MIDCAF_clean_linker_0, # of connection points: 3
#     Node 4, Type 0, BuildingBlock: MIDCAF_clean_linker_0, # of connection points: 3
#     Node 5, Type 0, BuildingBlock: MIDCAF_clean_linker_0, # of connection points: 3
#     Node 6, Type 0, BuildingBlock: MIDCAF_clean_linker_0, # of connection points: 3
#     Node 7, Type 0, BuildingBlock: MIDCAF_clean_linker_0, # of connection points: 3
#     Node 8, Type 1, BuildingBlock: PAMTUU_clean_sbu_0, # of connection points: 6
#     Node 9, Type 1, BuildingBlock: PAMTUU_clean_sbu_0, # of connection points: 6
#     Node 10, Type 1, BuildingBlock: PAMTUU_clean_sbu_0, # of connection points: 6
#     Node 11, Type 1, BuildingBlock: PAMTUU_clean_sbu_0, # of connection points: 6
#     Edge 12, Type (0, 1), BuildingBlock: TEMPAE_clean_linker_10, # of connection points: 2
#     Edge 13, Type (0, 1), BuildingBlock: TEMPAE_clean_linker_10, # of connection points: 2
#     Edge 14, Type (0, 1), BuildingBlock: TEMPAE_clean_linker_10, # of connection points: 2
#     Edge 15, Type (0, 1), BuildingBlock: TEMPAE_clean_linker_10, # of connection points: 2
#     Edge 16, Type (0, 1), BuildingBlock: TEMPAE_clean_linker_10, # of connection points: 2
#     Edge 17, Type (0, 1), BuildingBlock: TEMPAE_clean_linker_10, # of connection points: 2
#     Edge 18, Type (0, 1), BuildingBlock: TEMPAE_clean_linker_10, # of connection points: 2
#     Edge 19, Type (0, 1), BuildingBlock: TEMPAE_clean_linker_10, # of connection points: 2
#     Edge 20, Type (0, 1), BuildingBlock: TEMPAE_clean_linker_10, # of connection points: 2
#     Edge 21, Type (0, 1), BuildingBlock: TEMPAE_clean_linker_10, # of connection points: 2
#     Edge 22, Type (0, 1), BuildingBlock: TEMPAE_clean_linker_10, # of connection points: 2
#     Edge 23, Type (0, 1), BuildingBlock: TEMPAE_clean_linker_10, # of connection points: 2
#     Edge 24, Type (0, 1), BuildingBlock: TEMPAE_clean_linker_10, # of connection points: 2
#     Edge 25, Type (0, 1), BuildingBlock: TEMPAE_clean_linker_10, # of connection points: 2
#     Edge 26, Type (0, 1), BuildingBlock: TEMPAE_clean_linker_10, # of connection points: 2
#     Edge 27, Type (0, 1), BuildingBlock: TEMPAE_clean_linker_10, # of connection points: 2
#     Edge 28, Type (0, 1), BuildingBlock: TEMPAE_clean_linker_10, # of connection points: 2
#     Edge 29, Type (0, 1), BuildingBlock: TEMPAE_clean_linker_10, # of connection points: 2
#     Edge 30, Type (0, 1), BuildingBlock: TEMPAE_clean_linker_10, # of connection points: 2
#     Edge 31, Type (0, 1), BuildingBlock: TEMPAE_clean_linker_10, # of connection points: 2
#     Edge 32, Type (0, 1), BuildingBlock: TEMPAE_clean_linker_10, # of connection points: 2
#     Edge 33, Type (0, 1), BuildingBlock: TEMPAE_clean_linker_10, # of connection points: 2
#     Edge 34, Type (0, 1), BuildingBlock: TEMPAE_clean_linker_10, # of connection points: 2
#     Edge 35, Type (0, 1), BuildingBlock: TEMPAE_clean_linker_10, # of connection points: 2
# Relax obj value: 0.384
# Max RMSD: 0.265
# Mean RMSD: 0.222
data_MOF--net-zzz--node1-PAMTUU_clean_sbu_0--node2-MIDCAF_clean_linker_0--edge1-TEMPAE_clean_linker_10
_symmetry_space_group_name_H-M    P1
_symmetry_Int_Tables_number       1
_symmetry_cell_setting            triclinic
loop_
_symmetry_equiv_pos_as_xyz
'x, y, z'
_cell_length_a     58.623398
_cell_length_b     61.621207
_cell_length_c     20.913903
_cell_angle_alpha  98.524228
_cell_angle_beta   90.127142
_cell_angle_gamma 89.735952
loop_
_atom_site_label
_atom_site_type_symbol
_atom_site_fract_x
_atom_site_fract_y
_atom_site_fract_z
_atom_type_partial_charge
C0 C 0.81356 0.53152 0.51518 0.0
C1 C 0.82538 0.51133 0.50648 0.0
C2 C 0.81642 0.49405 0.46185 0.0
C3 C 0.79712 0.49729 0.42426 0.0
H4 H 0.71809 0.48421 0.28227 0.0
H5 H 0.68246 0.47736 0.2209 0.0
H6 H 0.66864 0.54702 0.24817 0.0
H7 H 0.70395 0.55359 0.3095 0.0
H8 H 0.75585 0.54367 0.15776 0.0
H9 H 0.77814 0.53994 0.05868 0.0
H10 H 0.84008 0.53921 0.17095 0.0
H11 H 0.81807 0.54361 0.26932 0.0
H12 H 0.78688 0.55102 0.48138 0.0
H13 H 0.81999 0.54532 0.54833 0.0
H14 H 0.82486 0.47821 0.45415 0.0
H15 H 0.79171 0.48416 0.3871 0.0
N16 N 0.74931 0.51884 0.36897 0.0
N17 N 0.74948 0.53349 0.27106 0.0
N18 N 0.78317 0.53265 0.33004 0.0
C19 C 0.7379 0.52435 0.31625 0.0
C20 C 0.77207 0.53759 0.27718 0.0
C21 C 0.77212 0.52355 0.37628 0.0
C22 C 0.71353 0.51939 0.30215 0.0
C23 C 0.70682 0.49789 0.2778 0.0
C24 C 0.68662 0.49405 0.24143 0.0
C25 C 0.67266 0.51165 0.22864 0.0
C26 C 0.67867 0.53299 0.25728 0.0
C27 C 0.69888 0.53679 0.29305 0.0
C28 C 0.78516 0.54301 0.22131 0.0
C29 C 0.77428 0.54351 0.16148 0.0
C30 C 0.78703 0.5413 0.10455 0.0
C31 C 0.81081 0.53853 0.10664 0.0
C32 C 0.82179 0.5412 0.16718 0.0
C33 C 0.80908 0.54353 0.22398 0.0
C34 C 0.78621 0.51784 0.43043 0.0
C35 C 0.79439 0.53477 0.47722 0.0
C36 C 0.00837 0.78284 0.51165 0.0
C37 C 0.9905 0.78957 0.55504 0.0
C38 C 0.97078 0.7764 0.55236 0.0
C39 C 0.96814 0.75833 0.50343 0.0
H40 H 0.93402 0.68879 0.26099 0.0
H41 H 0.93244 0.65113 0.20543 0.0
H42 H 0.9994 0.63885 0.27988 0.0
H43 H 1.00017 0.67627 0.33825 0.0
H44 H 0.98679 0.72821 0.15516 0.0
H45 H 0.99689 0.75092 0.07269 0.0
H46 H 0.98012 0.80921 0.20615 0.0
H47 H 0.96993 0.78676 0.28753 0.0
H48 H 0.01899 0.76136 0.4271 0.0
H49 H 0.0237 0.79254 0.51117 0.0
H50 H 0.95682 0.78079 0.58564 0.0
H51 H 0.952 0.74975 0.49869 0.0
N52 N 0.97525 0.71901 0.38175 0.0
N53 N 0.97108 0.72106 0.27045 0.0
N54 N 0.97978 0.75256 0.34253 0.0
C55 C 0.97074 0.70911 0.32012 0.0
C56 C 0.97552 0.74283 0.2815 0.0
C57 C 0.97963 0.74099 0.39268 0.0
C58 C 0.96714 0.68528 0.30405 0.0
C59 C 0.94794 0.67768 0.2675 0.0
C60 C 0.94722 0.6562 0.23495 0.0
C61 C 0.96604 0.64201 0.23662 0.0
C62 C 0.98451 0.64917 0.2776 0.0
C63 C 0.98499 0.67062 0.31128 0.0
C64 C 0.97779 0.75575 0.22791 0.0
C65 C 0.98474 0.74585 0.1661 0.0
C66 C 0.99066 0.75881 0.11914 0.0
C67 C 0.98937 0.78181 0.1331 0.0
C68 C 0.98107 0.79153 0.19361 0.0
C69 C 0.9754 0.77866 0.24048 0.0
C70 C 0.98524 0.75307 0.45685 0.0
C71 C 1.00574 0.76485 0.46326 0.0
C72 C 0.71347 0.97865 0.42159 0.0
C73 C 0.71054 0.98882 0.48606 0.0
C74 C 0.72829 0.00217 0.51506 0.0
C75 C 0.74759 0.00645 0.47933 0.0
H76 H 0.83964 0.02792 0.32512 0.0
H77 H 0.87335 0.02046 0.25732 0.0
H78 H 0.84022 0.96363 0.15191 0.0
H79 H 0.80653 0.97098 0.22174 0.0
H80 H 0.77961 0.05013 0.19874 0.0
H81 H 0.75615 0.07482 0.14645 0.0
H82 H 0.71971 0.0943 0.32549 0.0
H83 H 0.74245 0.06845 0.37674 0.0
H84 H 0.73388 0.97596 0.33535 0.0
H85 H 0.70029 0.96813 0.39773 0.0
H86 H 0.72661 0.01051 0.56418 0.0
H87 H 0.76002 0.01819 0.50153 0.0
N88 N 0.78539 0.9979 0.34702 0.0
N89 N 0.79144 0.02815 0.29211 0.0
N90 N 0.75902 0.02719 0.35621 0.0
C91 C 0.79858 0.0086 0.30756 0.0
C92 C 0.77173 0.03751 0.31605 0.0
C93 C 0.76557 0.00755 0.37212 0.0
C94 C 0.82058 0.99986 0.2794 0.0
C95 C 0.83989 0.01337 0.28898 0.0
C96 C 0.85909 0.00927 0.2493 0.0
C97 C 0.85944 0.99171 0.19792 0.0
C98 C 0.84066 0.97727 0.19101 0.0
C99 C 0.82139 0.98134 0.23132 0.0
C100 C 0.76238 0.05692 0.29124 0.0
C101 C 0.76705 0.06015 0.22752 0.0
C102 C 0.75364 0.07451 0.19758 0.0
C103 C 0.73555 0.08616 0.23123 0.0
C104 C 0.73299 0.08503 0.29757 0.0
C105 C 0.74605 0.07029 0.32705 0.0
C106 C 0.74992 0.99716 0.41413 0.0
C107 C 0.73292 0.98278 0.38609 0.0
C108 C 0.52469 0.71568 0.03089 0.0
C109 C 0.53035 0.69488 0.04625 0.0
C110 C 0.54149 0.69332 0.10481 0.0
C111 C 0.54657 0.71213 0.14785 0.0
H112 H 0.56637 0.79744 0.08728 0.0
H113 H 0.5689 0.83207 0.04596 0.0
H114 H 0.55277 0.86694 0.23517 0.0
H115 H 0.55005 0.83185 0.27709 0.0
H116 H 0.58914 0.77017 0.36785 0.0
H117 H 0.59422 0.74922 0.45788 0.0
H118 H 0.52266 0.73242 0.44689 0.0
H119 H 0.51779 0.75362 0.35886 0.0
H120 H 0.52554 0.75055 0.06121 0.0
H121 H 0.51611 0.71722 0.98585 0.0
H122 H 0.54584 0.67746 0.11801 0.0
H123 H 0.55497 0.71029 0.19294 0.0
N124 N 0.54917 0.7725 0.16288 0.0
N125 N 0.55546 0.78789 0.27165 0.0
N126 N 0.54681 0.75048 0.24423 0.0
C127 C 0.55414 0.79027 0.20769 0.0
C128 C 0.55162 0.76784 0.28969 0.0
C129 C 0.54561 0.75257 0.18094 0.0
C130 C 0.55783 0.81181 0.18551 0.0
C131 C 0.56353 0.81244 0.12052 0.0
C132 C 0.56521 0.83237 0.09682 0.0
C133 C 0.5611 0.85231 0.13723 0.0
C134 C 0.55594 0.85183 0.20275 0.0
C135 C 0.55451 0.83176 0.22682 0.0
C136 C 0.55303 0.76366 0.35709 0.0
C137 C 0.57435 0.76297 0.38733 0.0
C138 C 0.57728 0.75062 0.43806 0.0
C139 C 0.55894 0.73873 0.45907 0.0
C140 C 0.53717 0.74141 0.43279 0.0
C141 C 0.5343 0.75366 0.38229 0.0
C142 C 0.5409 0.73299 0.13301 0.0
C143 C 0.53018 0.73467 0.07371 0.0
C144 C 0.23201 0.49338 0.07773 0.0
C145 C 0.21893 0.47654 0.04184 0.0
C146 C 0.22524 0.45467 0.04527 0.0
C147 C 0.24301 0.44977 0.08558 0.0
H148 H 0.32168 0.5016 0.26655 0.0
H149 H 0.35659 0.51124 0.32972 0.0
H150 H 0.36716 0.44261 0.34421 0.0
H151 H 0.33365 0.43333 0.27922 0.0
H152 H 0.2833 0.42853 0.38246 0.0
H153 H 0.25902 0.42455 0.47416 0.0
H154 H 0.19949 0.42569 0.35236 0.0
H155 H 0.22355 0.42898 0.26098 0.0
H156 H 0.25868 0.50165 0.14844 0.0
H157 H 0.22794 0.51044 0.07599 0.0
H158 H 0.21559 0.44113 0.01977 0.0
H159 H 0.24633 0.43271 0.08963 0.0
N160 N 0.29036 0.46763 0.19504 0.0
N161 N 0.29009 0.44738 0.28229 0.0
N162 N 0.25802 0.44724 0.21656 0.0
C163 C 0.30129 0.46055 0.24644 0.0
C164 C 0.26851 0.44075 0.26819 0.0
C165 C 0.26859 0.46044 0.17946 0.0
C166 C 0.32498 0.46668 0.26735 0.0
C167 C 0.33213 0.48862 0.28103 0.0
C168 C 0.35193 0.49412 0.31851 0.0
C169 C 0.36491 0.4778 0.34331 0.0
C170 C 0.35823 0.4558 0.32579 0.0
C171 C 0.33878 0.45039 0.28832 0.0
C172 C 0.25526 0.43021 0.3152 0.0
C173 C 0.26506 0.42707 0.37464 0.0
C174 C 0.25116 0.42476 0.42733 0.0
C175 C 0.22731 0.42573 0.42131 0.0
C176 C 0.21778 0.42512 0.35925 0.0
C177 C 0.23165 0.42728 0.30659 0.0
C178 C 0.2552 0.46648 0.12406 0.0
C179 C 0.24997 0.4884 0.11839 0.0
C180 C 0.03554 0.207 1.00256 0.0
C181 C 0.05438 0.19269 0.99905 0.0
C182 C 0.07379 0.1991 0.0366 0.0
C183 C 0.0735 0.21835 0.0814 0.0
H184 H 0.03431 0.31208 0.18259 0.0
H185 H 0.03661 0.35054 0.23467 0.0
H186 H 0.08352 0.33139 0.37593 0.0
H187 H 0.08092 0.29331 0.32467 0.0
H188 H 0.02389 0.25873 0.38428 0.0
H189 H 0.01088 0.23688 0.46609 0.0
H190 H 0.02593 0.17745 0.33579 0.0
H191 H 0.03888 0.19889 0.25478 0.0
H192 H 0.01952 0.23564 0.05501 0.0
H193 H 0.02029 0.20235 0.9746 0.0
H194 H 0.08854 0.18837 0.03475 0.0
H195 H 0.08782 0.22176 0.11417 0.0
N196 N 0.05462 0.26621 0.168 0.0
N197 N 0.04483 0.26495 0.2768 0.0
N198 N 0.04266 0.23322 0.20097 0.0
C199 C 0.05207 0.2765 0.23015 0.0
C200 C 0.03998 0.24332 0.26244 0.0
C201 C 0.04984 0.24437 0.15373 0.0
C202 C 0.05754 0.29987 0.24958 0.0
C203 C 0.04567 0.31633 0.22341 0.0
C204 C 0.04684 0.33824 0.25353 0.0
C205 C 0.06021 0.34398 0.30951 0.0
C206 C 0.07329 0.3276 0.33254 0.0
C207 C 0.07178 0.30579 0.30328 0.0
C208 C 0.03241 0.23056 0.31298 0.0
C209 C 0.02452 0.24099 0.37335 0.0
C210 C 0.017 0.22856 0.42003 0.0
C211 C 0.01761 0.20554 0.40732 0.0
C212 C 0.02562 0.19518 0.34722 0.0
C213 C 0.03286 0.20752 0.30058 0.0
C214 C 0.0538 0.23147 0.08972 0.0
C215 C 0.03517 0.22617 0.04808 0.0
C216 C 0.30546 0.9985 0.07248 0.0
C217 C 0.31957 0.01518 0.05469 0.0
C218 C 0.31437 0.03705 0.08045 0.0
C219 C 0.29663 0.04202 0.12484 0.0
H220 H 0.20003 0.0565 0.29552 0.0
H221 H 0.16558 0.04878 0.35309 0.0
H222 H 0.18592 0.98084 0.33925 0.0
H223 H 0.2205 0.98872 0.28052 0.0
H224 H 0.25391 0.05948 0.43783 0.0
H225 H 0.27853 0.06375 0.53266 0.0
H226 H 0.33717 0.06758 0.40989 0.0
H227 H 0.3127 0.06424 0.31629 0.0
H228 H 0.27786 0.99034 0.13279 0.0
H229 H 0.30869 0.98147 0.05328 0.0
H230 H 0.32484 0.05042 0.06932 0.0
H231 H 0.29409 0.05899 0.1461 0.0
N232 N 0.24774 0.02344 0.21239 0.0
N233 N 0.24702 0.04294 0.31844 0.0
N234 N 0.27945 0.04412 0.255 0.0
C235 C 0.23638 0.02991 0.26948 0.0
C236 C 0.26856 0.05002 0.31189 0.0
C237 C 0.26942 0.03106 0.20499 0.0
C238 C 0.21277 0.02315 0.28238 0.0
C239 C 0.19667 0.03972 0.30236 0.0
C240 C 0.1771 0.03535 0.33641 0.0
C241 C 0.17312 0.01427 0.35216 0.0
C242 C 0.18837 0.99725 0.32789 0.0
C243 C 0.20808 0.00168 0.29357 0.0
C244 C 0.2815 0.06041 0.36914 0.0
C245 C 0.27196 0.0621 0.43135 0.0
C246 C 0.28608 0.06453 0.48584 0.0
C247 C 0.30992 0.06505 0.47876 0.0
C248 C 0.31894 0.06698 0.41757 0.0
C249 C 0.30484 0.06477 0.36331 0.0
C250 C 0.28334 0.02539 0.14526 0.0
C251 C 0.28749 0.00356 0.1172 0.0
C252 C 0.50185 0.30915 0.46822 0.0
C253 C 0.51249 0.30805 0.52776 0.0
C254 C 0.51691 0.28739 0.54611 0.0
C255 C 0.51042 0.26816 0.5057 0.0
H256 H 0.50821 0.20034 0.48538 0.0
H257 H 0.50822 0.16547 0.52578 0.0
H258 H 0.46786 0.13689 0.36211 0.0
H259 H 0.46763 0.17223 0.32119 0.0
H260 H 0.50718 0.22978 0.19309 0.0
H261 H 0.50387 0.25302 0.10825 0.0
H262 H 0.43665 0.27339 0.17763 0.0
H263 H 0.44007 0.25005 0.26165 0.0
H264 H 0.4873 0.29181 0.38256 0.0
H265 H 0.49854 0.32483 0.45233 0.0
H266 H 0.52505 0.28613 0.59196 0.0
H267 H 0.51394 0.25243 0.52095 0.0
N268 N 0.49359 0.22918 0.41963 0.0
N269 N 0.48056 0.21341 0.31634 0.0
N270 N 0.4861 0.25143 0.341 0.0
C271 C 0.48733 0.21108 0.37765 0.0
C272 C 0.47996 0.23378 0.29836 0.0
C273 C 0.49297 0.24942 0.40152 0.0
C274 C 0.4879 0.18921 0.39985 0.0
C275 C 0.49934 0.18671 0.45756 0.0
C276 C 0.4995 0.1666 0.48067 0.0
C277 C 0.48815 0.14835 0.44703 0.0
C278 C 0.47668 0.1507 0.38925 0.0
C279 C 0.47668 0.1709 0.36563 0.0
C280 C 0.47372 0.23787 0.23312 0.0
C281 C 0.49118 0.23817 0.18748 0.0
C282 C 0.48943 0.25182 0.13973 0.0
C283 C 0.47019 0.26542 0.137 0.0
C284 C 0.45166 0.26309 0.17803 0.0
C285 C 0.45349 0.24953 0.22588 0.0
C286 C 0.49966 0.26936 0.44609 0.0
C287 C 0.49552 0.29012 0.428 0.0
Tb288 Tb 0.99803 0.99919 0.72521 0.0
Tb289 Tb 0.03732 0.98472 0.82019 0.0
C290 C 0.98538 0.98797 0.86112 0.0
C291 C 0.96822 0.03714 0.64018 0.0
C292 C 0.96779 0.08065 0.61447 0.0
C293 C 0.94936 0.06658 0.59523 0.0
C294 C 0.94953 0.04493 0.60833 0.0
C295 C 0.98653 0.05117 0.65957 0.0
C296 C 0.98632 0.0727 0.64695 0.0
C297 C 0.96867 0.01488 0.6567 0.0
O298 O 1.00701 0.02792 0.79464 0.0
O299 O 0.04378 0.01932 0.81818 0.0
O300 O 0.05305 0.98264 0.72484 0.0
O301 O 0.03031 0.00715 0.68234 0.0
O302 O 0.05196 0.98601 0.91268 0.0
O303 O 0.06603 0.9651 0.8304 0.0
O304 O 0.017 0.9557 0.7889 0.0
O305 O 1.0034 0.9642 0.6929 0.0
O306 O 0.97973 0.98515 0.79966 0.0
O307 O 1.00659 0.99241 0.87916 0.0
C308 C 0.02754 0.03387 0.8153 0.0
O309 O 0.98573 0.00265 0.63272 0.0
O310 O 0.96603 0.01403 0.71805 0.0
C311 C 0.04926 0.99563 0.68145 0.0
C312 C 0.06156 0.94968 0.92382 0.0
C313 C 0.05412 0.90781 0.95687 0.0
C314 C 0.07626 0.91652 0.95918 0.0
C315 C 0.08001 0.93733 0.94186 0.0
C316 C 0.03935 0.94133 0.9249 0.0
C317 C 0.03569 0.9205 0.94074 0.0
C318 C 0.06523 0.96927 0.89319 0.0
C319 C 0.00833 0.94973 0.73121 0.0
H320 H 0.93486 0.07232 0.57011 0.0
H321 H 0.93518 0.03433 0.59368 0.0
H322 H 1.0011 0.04543 0.68434 0.0
H323 H 1.00099 0.08294 0.66114 0.0
H324 H 0.09064 0.90692 0.97197 0.0
H325 H 0.09728 0.94342 0.94029 0.0
H326 H 0.02488 0.95055 0.91087 0.0
H327 H 0.01846 0.91415 0.93957 0.0
Tb328 Tb 0.50832 0.97409 0.72469 0.0
Tb329 Tb 0.52416 0.01615 0.82731 0.0
C330 C 0.53193 0.96828 0.85717 0.0
C331 C 0.46877 0.94553 0.61405 0.0
C332 C 0.4274 0.9655 0.58767 0.0
C333 C 0.42856 0.95241 0.63697 0.0
C334 C 0.44905 0.94229 0.64973 0.0
C335 C 0.46657 0.95586 0.55871 0.0
C336 C 0.44603 0.9659 0.5458 0.0
C337 C 0.49146 0.94415 0.64431 0.0
O338 O 0.47687 0.98847 0.76947 0.0
O339 O 0.49172 0.00604 0.86461 0.0
O340 O 0.49968 0.02788 0.76219 0.0
O341 O 0.50759 0.00266 0.67451 0.0
O342 O 0.53292 0.03186 0.9204 0.0
O343 O 0.53172 0.04966 0.83907 0.0
O344 O 0.55112 0.01011 0.75418 0.0
O345 O 0.54544 0.97355 0.71811 0.0
O346 O 0.51676 0.96121 0.81278 0.0
O347 O 0.54029 0.98825 0.86273 0.0
C348 C 0.47423 0.99755 0.83012 0.0
O349 O 0.50669 0.95786 0.62894 0.0
O350 O 0.4913 0.94389 0.70651 0.0
C351 C 0.50019 0.02217 0.69944 0.0
C352 C 0.55927 0.06046 0.91838 0.0
C353 C 0.60161 0.07935 0.95731 0.0
C354 C 0.59977 0.06444 0.89969 0.0
C355 C 0.57877 0.05499 0.88052 0.0
C356 C 0.56085 0.07577 0.9747 0.0
C357 C 0.58185 0.08513 0.99412 0.0
C358 C 0.53722 0.05035 0.89966 0.0
C359 C 0.55834 0.99113 0.72319 0.0
H360 H 0.41415 0.95139 0.66867 0.0
H361 H 0.44997 0.93397 0.69181 0.0
H362 H 0.48133 0.9583 0.52954 0.0
H363 H 0.44546 0.97572 0.50694 0.0
H364 H 0.61463 0.05977 0.87005 0.0
H365 H 0.57781 0.04325 0.83661 0.0
H366 H 0.54591 0.08018 0.00431 0.0
H367 H 0.58274 0.09623 0.03935 0.0
Tb368 Tb 0.49857 0.49178 0.84063 0.0
Tb369 Tb 0.53549 0.51009 0.74172 0.0
C370 C 0.48515 0.49829 0.6991 0.0
C371 C 0.47146 0.45381 0.93693 0.0
C372 C 0.47044 0.41144 0.97314 0.0
C373 C 0.45171 0.42582 0.98583 0.0
C374 C 0.45219 0.44679 0.96756 0.0
C375 C 0.49033 0.43969 0.92522 0.0
C376 C 0.4898 0.41868 0.94289 0.0
C377 C 0.4714 0.47522 0.91359 0.0
O378 O 0.5121 0.46304 0.78048 0.0
O379 O 0.54447 0.47553 0.73428 0.0
O380 O 0.5498 0.51524 0.83975 0.0
O381 O 0.53241 0.487 0.87952 0.0
O382 O 0.54327 0.51857 0.65041 0.0
O383 O 0.56723 0.52466 0.72879 0.0
O384 O 0.51216 0.53669 0.77409 0.0
O385 O 0.50111 0.52707 0.87104 0.0
O386 O 0.47882 0.50122 0.76015 0.0
O387 O 0.50679 0.49646 0.68282 0.0
C388 C 0.53142 0.45963 0.74872 0.0
O389 O 0.46853 0.47428 0.85148 0.0
O390 O 0.48781 0.48863 0.93476 0.0
C391 C 0.54901 0.50131 0.88169 0.0
C392 C 0.56426 0.55124 0.65803 0.0
C393 C 0.56556 0.59457 0.62874 0.0
C394 C 0.57085 0.57656 0.58134 0.0
C395 C 0.57023 0.55514 0.59591 0.0
C396 C 0.55922 0.56916 0.70585 0.0
C397 C 0.56005 0.59063 0.69145 0.0
C398 C 0.56203 0.52842 0.67087 0.0
C399 C 0.50432 0.54194 0.83294 0.0
H400 H 0.4365 0.42067 0.00866 0.0
H401 H 0.4374 0.4574 0.97656 0.0
H402 H 0.50539 0.44491 0.90191 0.0
H403 H 0.50462 0.40814 0.93333 0.0
H404 H 0.57544 0.57904 0.53282 0.0
H405 H 0.57408 0.54156 0.55829 0.0
H406 H 0.5543 0.56655 0.75403 0.0
H407 H 0.55579 0.60411 0.7289 0.0
Tb408 Tb 0.03142 0.51677 0.74001 0.0
Tb409 Tb 0.01457 0.47467 0.8039 0.0
C410 C 1.00719 0.5222 0.87543 0.0
C411 C 0.07154 0.54677 0.65978 0.0
C412 C 0.11372 0.52821 0.61844 0.0
C413 C 0.11179 0.541 0.6795 0.0
C414 C 0.09088 0.5504 0.6999 0.0
C415 C 0.07447 0.5369 0.59524 0.0
C416 C 0.09542 0.52757 0.57479 0.0
C417 C 0.0486 0.54738 0.68929 0.0
O418 O 0.06258 0.50169 0.77164 0.0
O419 O 0.04728 0.48395 0.8503 0.0
O420 O 0.03814 0.46199 0.72765 0.0
O421 O 0.03261 0.48848 0.66386 0.0
O422 O 0.00761 0.45912 0.88448 0.0
O423 O 1.00323 0.44207 0.78759 0.0
O424 O 0.98775 0.48138 0.73623 0.0
O425 O 0.99433 0.51775 0.73121 0.0
O426 O 0.02362 0.52872 0.84045 0.0
O427 O 0.99778 0.50285 0.86003 0.0
C428 C 0.06495 0.49235 0.824 0.0
O429 O 0.03386 0.53357 0.65978 0.0
O430 O 0.04828 0.54709 0.75145 0.0
C431 C 0.03868 0.46845 0.6708 0.0
C432 C 0.97431 0.4381 0.86327 0.0
C433 C 0.92748 0.444 0.88939 0.0
C434 C 0.93493 0.43641 0.82622 0.0
C435 C 0.95817 0.43353 0.81319 0.0
C436 C 0.96665 0.44285 0.9273 0.0
C437 C 0.94346 0.44593 0.94025 0.0
C438 C 0.99836 0.44231 0.8485 0.0
C439 C 0.98098 0.50045 0.72147 0.0
H440 H 0.12592 0.54221 0.71326 0.0
H441 H 0.08937 0.55841 0.74944 0.0
H442 H 0.06001 0.53422 0.5627 0.0
H443 H 0.09656 0.51796 0.52712 0.0
H444 H 0.92297 0.4342 0.78628 0.0
H445 H 0.96346 0.4294 0.76327 0.0
H446 H 0.97869 0.44618 0.96688 0.0
H447 H 0.9384 0.4518 0.98957 0.0
C448 C 0.1507 0.02623 0.45403 0.0
C449 C 0.15436 0.01079 0.39835 0.0
C450 C 0.13349 0.02339 0.49887 0.0
C451 C 0.11927 0.00467 0.48812 0.0
C452 C 0.1228 0.989 0.43201 0.0
C453 C 0.14036 0.99215 0.38814 0.0
C454 C 0.13069 0.04039 0.55825 0.0
C455 C 0.10795 0.96891 0.41819 0.0
C456 C 0.08871 0.98812 0.63508 0.0
C457 C 0.06696 0.99753 0.63104 0.0
C458 C 0.10571 0.99007 0.58867 0.0
C459 C 0.10093 0.00153 0.53613 0.0
C460 C 0.0789 0.01078 0.53121 0.0
C461 C 0.06229 0.00878 0.57871 0.0
C462 C 0.12896 0.98018 0.59657 0.0
C463 C 0.07293 0.02298 0.47594 0.0
H464 H 0.16166 0.04047 0.46331 0.0
H465 H 0.14294 0.98015 0.34532 0.0
H466 H 0.11321 0.04741 0.55974 0.0
H467 H 0.13293 0.03262 0.60244 0.0
H468 H 0.14313 0.05401 0.55972 0.0
H469 H 0.11259 0.95843 0.37214 0.0
H470 H 0.10944 0.95899 0.45814 0.0
H471 H 0.0898 0.9739 0.4156 0.0
H472 H 0.09263 0.97943 0.67518 0.0
H473 H 0.04557 0.01605 0.57467 0.0
H474 H 0.14205 0.99328 0.60227 0.0
H475 H 0.13343 0.96854 0.55266 0.0
H476 H 0.12986 0.97135 0.63913 0.0
H477 H 0.08389 0.03768 0.47771 0.0
H478 H 0.05479 0.02833 0.47719 0.0
H479 H 0.07625 0.01242 0.42912 0.0
C480 C 0.46808 0.1153 0.47773 0.0
C481 C 0.48827 0.12718 0.47353 0.0
C482 C 0.46775 0.09662 0.50925 0.0
C483 C 0.48809 0.08966 0.53703 0.0
C484 C 0.50868 0.10105 0.53034 0.0
C485 C 0.50851 0.1196 0.49873 0.0
C486 C 0.44547 0.08489 0.51516 0.0
C487 C 0.5308 0.09413 0.55873 0.0
C488 C 0.48778 0.05998 0.6837 0.0
C489 C 0.49414 0.03859 0.65674 0.0
C490 C 0.48462 0.07647 0.64479 0.0
C491 C 0.48784 0.07152 0.57709 0.0
C492 C 0.49302 0.04969 0.54914 0.0
C493 C 0.49614 0.03349 0.58928 0.0
C494 C 0.47896 0.09948 0.67664 0.0
C495 C 0.49637 0.04367 0.47715 0.0
H496 H 0.45236 0.12112 0.45866 0.0
H497 H 0.52424 0.12847 0.49467 0.0
H498 H 0.44765 0.06695 0.50048 0.0
H499 H 0.43986 0.0875 0.56636 0.0
H500 H 0.43176 0.09083 0.48521 0.0
H501 H 0.54553 0.10397 0.54623 0.0
H502 H 0.52938 0.09603 0.61218 0.0
H503 H 0.53433 0.07656 0.54123 0.0
H504 H 0.486 0.0641 0.73566 0.0
H505 H 0.50085 0.01699 0.56783 0.0
H506 H 0.46409 0.10599 0.65251 0.0
H507 H 0.49361 0.11043 0.67155 0.0
H508 H 0.47508 0.10025 0.7289 0.0
H509 H 0.48212 0.05017 0.45045 0.0
H510 H 0.49754 0.02563 0.46219 0.0
H511 H 0.51231 0.05123 0.46259 0.0
C512 C 0.40241 0.46849 0.3938 0.0
C513 C 0.38419 0.48331 0.39087 0.0
C514 C 0.41884 0.47171 0.44351 0.0
C515 C 0.4178 0.4907 0.49078 0.0
C516 C 0.40032 0.50639 0.48622 0.0
C517 C 0.38363 0.5024 0.43709 0.0
C518 C 0.43692 0.45435 0.44658 0.0
C519 C 0.39891 0.5272 0.53422 0.0
C520 C 0.44594 0.48829 0.65516 0.0
C521 C 0.46757 0.49712 0.64701 0.0
C522 C 0.42961 0.48617 0.60495 0.0
C523 C 0.43468 0.49372 0.54568 0.0
C524 C 0.45627 0.50333 0.53813 0.0
C525 C 0.47253 0.50455 0.58829 0.0
C526 C 0.40715 0.47527 0.61474 0.0
C527 C 0.46222 0.51228 0.4769 0.0
H528 H 0.40371 0.45401 0.35769 0.0
H529 H 0.36971 0.51398 0.43643 0.0
H530 H 0.45414 0.46156 0.44435 0.0
H531 H 0.43571 0.44792 0.49329 0.0
H532 H 0.43531 0.4404 0.40662 0.0
H533 H 0.38581 0.53876 0.52046 0.0
H534 H 0.39461 0.52318 0.58271 0.0
H535 H 0.41568 0.53559 0.53835 0.0
H536 H 0.44202 0.48239 0.70019 0.0
H537 H 0.48912 0.51162 0.58183 0.0
H538 H 0.4051 0.46051 0.57774 0.0
H539 H 0.39282 0.48657 0.60834 0.0
H540 H 0.40579 0.47024 0.66345 0.0
H541 H 0.46278 0.49874 0.43559 0.0
H542 H 0.47898 0.52072 0.4804 0.0
H543 H 0.44889 0.52403 0.46592 0.0
C544 C 0.03711 0.37529 0.36613 0.0
C545 C 0.05857 0.36612 0.34896 0.0
C546 C 0.03494 0.39392 0.41342 0.0
C547 C 0.05473 0.40375 0.44392 0.0
C548 C 0.07652 0.39551 0.42333 0.0
C549 C 0.07817 0.37671 0.37645 0.0
C550 C 0.01138 0.40212 0.43395 0.0
C551 C 0.09806 0.40571 0.45353 0.0
C552 C 0.04693 0.45887 0.55187 0.0
C553 C 0.04474 0.45235 0.61313 0.0
C554 C 0.05089 0.44336 0.49642 0.0
C555 C 0.05246 0.42079 0.50226 0.0
C556 C 0.0509 0.41422 0.5642 0.0
C557 C 0.04717 0.43004 0.61873 0.0
C558 C 0.05286 0.45106 0.43145 0.0
C559 C 0.05249 0.39034 0.57274 0.0
H560 H 0.02188 0.36708 0.34561 0.0
H561 H 0.09482 0.3698 0.3629 0.0
H562 H 0.00792 0.39864 0.48358 0.0
H563 H 0.01022 0.42015 0.43521 0.0
H564 H 0.9979 0.39421 0.40117 0.0
H565 H 0.11342 0.39983 0.42497 0.0
H566 H 0.09723 0.42387 0.45805 0.0
H567 H 0.10004 0.40144 0.50295 0.0
H568 H 0.04525 0.47608 0.54704 0.0
H569 H 0.04553 0.42478 0.66571 0.0
H570 H 0.03821 0.44485 0.40049 0.0
H571 H 0.06861 0.44435 0.40643 0.0
H572 H 0.05316 0.46925 0.43567 0.0
H573 H 0.03843 0.38102 0.54588 0.0
H574 H 0.05149 0.38799 0.6243 0.0
H575 H 0.06878 0.38317 0.55239 0.0
C576 C 0.88768 0.96929 0.12292 0.0
C577 C 0.87846 0.98976 0.14928 0.0
C578 C 0.90543 0.96763 0.07677 0.0
C579 C 0.91413 0.98685 0.05584 0.0
C580 C 0.90484 0.0075 0.08214 0.0
C581 C 0.88723 0.00869 0.12818 0.0
C582 C 0.91485 0.94528 0.0503 0.0
C583 C 0.91334 0.02844 0.0611 0.0
C584 C 0.97292 0.98791 0.97673 0.0
C585 C 0.96734 0.98653 0.91087 0.0
C586 C 0.95591 0.98738 0.02411 0.0
C587 C 0.93262 0.98553 0.00561 0.0
C588 C 0.92692 0.98371 0.93912 0.0
C589 C 0.94427 0.98418 0.89277 0.0
C590 C 0.96284 0.98926 0.09425 0.0
C591 C 0.90239 0.9818 0.91694 0.0
H592 H 0.8812 0.95456 0.13891 0.0
H593 H 0.87999 0.02457 0.14684 0.0
H594 H 0.91242 0.94205 0.99713 0.0
H595 H 0.93348 0.94477 0.05961 0.0
H596 H 0.90655 0.93195 0.07205 0.0
H597 H 0.90458 0.04323 0.08674 0.0
H598 H 0.93194 0.03014 0.0702 0.0
H599 H 0.91064 0.02786 0.00835 0.0
H600 H 0.99064 0.9896 0.9915 0.0
H601 H 0.93963 0.98306 0.8422 0.0
H602 H 0.9556 0.97547 0.11613 0.0
H603 H 0.95586 0.00468 0.12145 0.0
H604 H 0.98166 0.98924 0.10054 0.0
H605 H 0.89411 0.96778 0.9352 0.0
H606 H 0.90081 0.97948 0.86342 0.0
H607 H 0.89286 0.99684 0.93716 0.0
C608 C 0.5425 0.88802 0.12215 0.0
C609 C 0.56068 0.87315 0.10898 0.0
C610 C 0.53974 0.9057 0.08724 0.0
C611 C 0.55555 0.9086 0.03804 0.0
C612 C 0.57481 0.89457 0.02783 0.0
C613 C 0.57713 0.87704 0.06334 0.0
C614 C 0.519 0.92029 0.09988 0.0
C615 C 0.59217 0.89714 0.97632 0.0
C616 C 0.53181 0.93121 0.89214 0.0
C617 C 0.53907 0.95314 0.90279 0.0
C618 C 0.53722 0.91668 0.93557 0.0
C619 C 0.55025 0.92413 0.99151 0.0
C620 C 0.55795 0.94614 1.00239 0.0
C621 C 0.55229 0.9604 0.95783 0.0
C622 C 0.52875 0.89331 0.92171 0.0
C623 C 0.57189 0.95468 0.06144 0.0
H624 H 0.52965 0.8851 0.15704 0.0
H625 H 0.59144 0.86584 0.05368 0.0
H626 H 0.52382 0.93781 0.10316 0.0
H627 H 0.50684 0.91661 0.05901 0.0
H628 H 0.51012 0.91786 0.14514 0.0
H629 H 0.60765 0.88695 0.98036 0.0
H630 H 0.58447 0.89213 0.92789 0.0
H631 H 0.59736 0.91455 0.97922 0.0
H632 H 0.52169 0.9253 0.84974 0.0
H633 H 0.55795 0.97731 0.96667 0.0
H634 H 0.51763 0.88976 0.9617 0.0
H635 H 0.54338 0.88172 0.91879 0.0
H636 H 0.51896 0.89006 0.87576 0.0
H637 H 0.56185 0.95355 0.10574 0.0
H638 H 0.57714 0.972 0.062 0.0
H639 H 0.5874 0.94442 0.06354 0.0
C640 C 0.65559 0.49368 0.12289 0.0
C641 C 0.65326 0.50821 0.18107 0.0
C642 C 0.63849 0.49182 0.07485 0.0
C643 C 0.61838 0.50476 0.08478 0.0
C644 C 0.61565 0.51904 0.14402 0.0
C645 C 0.63305 0.52061 0.19118 0.0
C646 C 0.64224 0.47641 0.01259 0.0
C647 C 0.59448 0.53302 0.15713 0.0
C648 C 0.58489 0.51715 0.93678 0.0
C649 C 0.56683 0.5021 0.93343 0.0
C650 C 0.60169 0.51816 0.98552 0.0
C651 C 0.60055 0.50381 0.03255 0.0
C652 C 0.58238 0.48858 0.02946 0.0
C653 C 0.56583 0.48789 0.98012 0.0
C654 C 0.62072 0.53463 0.98664 0.0
C655 C 0.58039 0.47299 0.07843 0.0
H656 H 0.67121 0.48427 0.11374 0.0
H657 H 0.63086 0.53172 0.23604 0.0
H658 H 0.62774 0.46485 0.00336 0.0
H659 H 0.64296 0.48591 0.97154 0.0
H660 H 0.65828 0.46677 0.01328 0.0
H661 H 0.59451 0.54267 0.20641 0.0
H662 H 0.59313 0.54455 0.12128 0.0
H663 H 0.57906 0.52253 0.15165 0.0
H664 H 0.58594 0.52823 0.90121 0.0
H665 H 0.55202 0.47619 0.97835 0.0
H666 H 0.63745 0.52604 0.98286 0.0
H667 H 0.6206 0.54587 0.03328 0.0
H668 H 0.6193 0.54458 0.94664 0.0
H669 H 0.59591 0.46257 0.07711 0.0
H670 H 0.56525 0.46217 0.06965 0.0
H671 H 0.57916 0.48239 0.12784 0.0
C672 C 0.97882 0.6026 0.20588 0.0
C673 C 0.96769 0.62127 0.1896 0.0
C674 C 0.98322 0.58423 0.15886 0.0
C675 C 0.9763 0.5845 0.09401 0.0
C676 C 0.96387 0.60271 0.07816 0.0
C677 C 0.95985 0.62085 0.12585 0.0
C678 C 0.99641 0.56508 0.17783 0.0
C679 C 0.95612 0.60372 0.00972 0.0
C680 C 0.01256 0.55578 0.95672 0.0
C681 C 0.99946 0.53726 0.93354 0.0
C682 C 1.00549 0.57079 0.01005 0.0
C683 C 0.98466 0.56738 0.04115 0.0
C684 C 0.97151 0.5485 0.01898 0.0
C685 C 0.97911 0.53359 0.96552 0.0
C686 C 0.02014 0.59062 0.03213 0.0
C687 C 0.94913 0.54437 0.05052 0.0
H688 H 0.98464 0.60255 0.25507 0.0
H689 H 0.9516 0.63522 0.112 0.0
H690 H 0.98811 0.54937 0.15803 0.0
H691 H 0.01383 0.5648 0.15702 0.0
H692 H 0.99794 0.56605 0.23113 0.0
H693 H 0.94425 0.61765 0.00687 0.0
H694 H 0.97117 0.60564 0.97902 0.0
H695 H 0.9475 0.58825 0.98913 0.0
H696 H 0.02842 0.55869 0.93291 0.0
H697 H 0.96888 0.51933 0.94799 0.0
H698 H 0.02421 0.59157 0.08429 0.0
H699 H 0.01066 0.6058 0.0259 0.0
H700 H 0.03638 0.59031 0.00476 0.0
H701 H 0.95132 0.54556 0.10363 0.0
H702 H 0.94199 0.52799 0.03155 0.0
H703 H 0.93654 0.5571 0.04178 0.0
C704 C 0.02245 0.17383 0.46711 0.0
C705 C 0.00947 0.19193 0.45513 0.0
C706 C 0.01351 0.15841 0.50289 0.0
C707 C 0.99104 0.16123 0.52746 0.0
C708 C 0.97848 0.18036 0.51978 0.0
C709 C 0.98787 0.19554 0.48345 0.0
C710 C 0.0276 0.13836 0.51066 0.0
C711 C 0.95465 0.18408 0.54635 0.0
C712 C 0.96408 0.10613 0.53288 0.0
C713 C 0.96894 0.10297 0.59643 0.0
C714 C 0.96956 0.12589 0.51112 0.0
C715 C 0.98011 0.14285 0.55409 0.0
C716 C 0.98322 0.14046 0.61977 0.0
C717 C 0.97763 0.12048 0.64018 0.0
C718 C 0.9659 0.12783 0.44068 0.0
C719 C 0.99409 0.15825 0.66734 0.0
H720 H 0.03933 0.17128 0.44616 0.0
H721 H 0.97782 0.20957 0.4742 0.0
H722 H 0.02823 0.136 0.56218 0.0
H723 H 0.01956 0.12356 0.48316 0.0
H724 H 0.04535 0.13951 0.49298 0.0
H725 H 0.94879 0.20124 0.54598 0.0
H726 H 0.94268 0.1729 0.51654 0.0
H727 H 0.95375 0.18032 0.59654 0.0
H728 H 0.95748 0.09263 0.49883 0.0
H729 H 0.98103 0.11821 0.68975 0.0
H730 H 0.98265 0.12729 0.41581 0.0
H731 H 0.95771 0.14375 0.43564 0.0
H732 H 0.95514 0.11436 0.41568 0.0
H733 H 0.01283 0.15789 0.65992 0.0
H734 H 0.9907 0.15595 0.71815 0.0
H735 H 0.98783 0.17471 0.65989 0.0
C736 C 0.31875 0.03954 0.55738 0.0
C737 C 0.32522 0.0577 0.52822 0.0
C738 C 0.33513 0.02664 0.58301 0.0
C739 C 0.35842 0.032 0.57891 0.0
C740 C 0.36471 0.05208 0.55887 0.0
C741 C 0.34794 0.06484 0.53402 0.0
C742 C 0.32772 0.00581 0.60677 0.0
C743 C 0.38939 0.05882 0.55678 0.0
C744 C 0.40267 0.99548 0.64275 0.0
C745 C 0.40851 0.98134 0.58618 0.0
C746 C 0.38663 0.01233 0.64145 0.0
C747 C 0.3759 0.01475 0.58233 0.0
C748 C 0.38154 1.00029 0.5252 0.0
C749 C 0.39792 0.98383 0.5278 0.0
C750 C 0.38131 0.02735 0.70342 0.0
C751 C 0.37039 0.0023 0.4611 0.0
H752 H 0.30127 0.03385 0.55393 0.0
H753 H 0.35295 0.07929 0.51368 0.0
H754 H 0.33162 0.99156 0.56932 0.0
H755 H 0.33717 0.00349 0.65127 0.0
H756 H 0.30913 0.00585 0.61704 0.0
H757 H 0.39111 0.07643 0.55167 0.0
H758 H 0.39851 0.05576 0.60115 0.0
H759 H 0.39789 0.04887 0.51487 0.0
H760 H 0.41125 0.99385 0.68775 0.0
H761 H 0.40255 0.97294 0.48413 0.0
H762 H 0.36626 0.02094 0.72658 0.0
H763 H 0.37725 0.04427 0.69472 0.0
H764 H 0.39582 0.02806 0.73792 0.0
H765 H 0.35163 0.00054 0.46492 0.0
H766 H 0.3767 0.98972 0.4214 0.0
H767 H 0.37373 0.01878 0.44795 0.0
C768 C 0.50283 0.34601 0.57908 0.0
C769 C 0.51863 0.32871 0.56986 0.0
C770 C 0.50878 0.36654 0.61258 0.0
C771 C 0.5311 0.36987 0.63804 0.0
C772 C 0.54692 0.35224 0.6312 0.0
C773 C 0.54048 0.33178 0.59703 0.0
C774 C 0.49126 0.38482 0.61953 0.0
C775 C 0.57072 0.35515 0.65865 0.0
C776 C 0.54524 0.4303 0.66219 0.0
C777 C 0.53734 0.43659 0.7253 0.0
C778 C 0.54526 0.40809 0.6344 0.0
C779 C 0.53748 0.39201 0.67117 0.0
C780 C 0.53184 0.39818 0.73709 0.0
C781 C 0.53167 0.42045 0.76317 0.0
C782 C 0.55141 0.40214 0.56394 0.0
C783 C 0.52381 0.38162 0.7785 0.0
H784 H 0.48579 0.34354 0.55911 0.0
H785 H 0.55274 0.31843 0.58972 0.0
H786 H 0.48829 0.39097 0.67143 0.0
H787 H 0.49766 0.39877 0.59677 0.0
H788 H 0.47467 0.37947 0.59685 0.0
H789 H 0.58043 0.33946 0.65309 0.0
H790 H 0.58016 0.36702 0.63379 0.0
H791 H 0.57001 0.36204 0.71073 0.0
H792 H 0.5496 0.4428 0.63291 0.0
H793 H 0.52594 0.42532 0.81242 0.0
H794 H 0.5356 0.39847 0.53516 0.0
H795 H 0.56229 0.38722 0.55629 0.0
H796 H 0.56048 0.41569 0.54523 0.0
H797 H 0.50558 0.37784 0.76791 0.0
H798 H 0.52539 0.388 0.83086 0.0
H799 H 0.53359 0.36606 0.768 0.0
C800 C 0.22053 0.4512 0.5234 0.0
C801 C 0.21289 0.43346 0.47849 0.0
C802 C 0.205 0.46481 0.56125 0.0
C803 C 0.18143 0.46059 0.55347 0.0
C804 C 0.17398 0.44081 0.51639 0.0
C805 C 0.18989 0.42734 0.47932 0.0
C806 C 0.21361 0.48516 0.60328 0.0
C807 C 0.14901 0.43514 0.50984 0.0
C808 C 0.13834 0.4984 0.64889 0.0
C809 C 0.13285 0.51259 0.60445 0.0
C810 C 0.1541 0.48129 0.63336 0.0
C811 C 0.16488 0.47862 0.57235 0.0
C812 C 0.15978 0.49326 0.52784 0.0
C813 C 0.1437 0.51002 0.54437 0.0
C814 C 0.15885 0.46614 0.6823 0.0
C815 C 0.17094 0.49093 0.4621 0.0
H816 H 0.23828 0.45604 0.524 0.0
H817 H 0.18399 0.41323 0.44636 0.0
H818 H 0.21037 0.49966 0.57872 0.0
H819 H 0.20441 0.48782 0.65012 0.0
H820 H 0.2322 0.48417 0.61284 0.0
H821 H 0.14655 0.41739 0.49234 0.0
H822 H 0.14003 0.43946 0.55667 0.0
H823 H 0.14101 0.44464 0.47454 0.0
H824 H 0.12956 0.50007 0.69489 0.0
H825 H 0.13934 0.52094 0.51001 0.0
H826 H 0.17341 0.47269 0.71315 0.0
H827 H 0.16334 0.44929 0.65918 0.0
H828 H 0.14384 0.46519 0.71408 0.0
H829 H 0.18975 0.49195 0.46759 0.0
H830 H 0.16521 0.50379 0.43353 0.0
H831 H 0.16693 0.47461 0.43433 0.0
C832 C 0.02046 0.79179 0.06127 0.0
C833 C 0.99871 0.796 0.08827 0.0
C834 C 0.03148 0.80741 0.02991 0.0
C835 C 0.02052 0.82768 0.02616 0.0
C836 C 0.9979 0.83128 0.04893 0.0
C837 C 0.98723 0.81534 0.07951 0.0
C838 C 0.0553 0.80276 0.00406 0.0
C839 C 0.98547 0.85254 0.0446 0.0
C840 C 0.05327 0.88066 0.03343 0.0
C841 C 0.04973 0.88554 0.97104 0.0
C842 C 0.04496 0.86109 0.05103 0.0
C843 C 0.03323 0.84605 0.00461 0.0
C844 C 0.03135 0.85016 0.94002 0.0
C845 C 0.03936 0.87008 0.9242 0.0
C846 C 0.04726 0.85732 0.12048 0.0
C847 C 0.01957 0.83438 0.88846 0.0
H848 H 0.02943 0.77687 0.06802 0.0
H849 H 0.97024 0.81843 0.09925 0.0
H850 H 0.05671 0.80699 0.95445 0.0
H851 H 0.06766 0.81312 0.03497 0.0
H852 H 0.06022 0.78528 0.00301 0.0
H853 H 0.96753 0.85226 0.06148 0.0
H854 H 0.99442 0.86631 0.07453 0.0
H855 H 0.98545 0.85595 0.994 0.0
H856 H 0.06122 0.89277 0.06943 0.0
H857 H 0.0368 0.87394 0.87573 0.0
H858 H 0.05421 0.84069 0.12283 0.0
H859 H 0.03016 0.85829 0.14348 0.0
H860 H 0.05852 0.86961 0.14902 0.0
H861 H 0.02139 0.81712 0.89707 0.0
H862 H 0.02648 0.83574 0.83979 0.0
H863 H 1.00111 0.83844 0.88832 0.0
C864 C 0.69422 0.09126 0.20955 0.0
C865 C 0.71698 0.09533 0.19451 0.0
C866 C 0.67652 0.0942 0.16678 0.0
C867 C 0.68165 0.1013 0.10715 0.0
C868 C 0.70416 0.10765 0.09451 0.0
C869 C 0.72163 0.10458 0.13846 0.0
C870 C 0.65267 0.08744 0.18263 0.0
C871 C 0.71019 0.11588 0.03228 0.0
C872 C 0.64228 0.07185 0.98169 0.0
C873 C 0.62427 0.08694 0.98307 0.0
C874 C 0.66226 0.07721 0.01713 0.0
C875 C 0.66423 0.09815 0.05506 0.0
C876 C 0.64713 0.11419 0.05146 0.0
C877 C 0.62724 0.10836 0.01562 0.0
C878 C 0.68023 0.05965 0.01898 0.0
C879 C 0.64892 0.13689 0.08965 0.0
H880 H 0.6903 0.08392 0.25218 0.0
H881 H 0.73908 0.10826 0.12707 0.0
H882 H 0.64008 0.10014 0.17371 0.0
H883 H 0.64812 0.072 0.15086 0.0
H884 H 0.65108 0.08467 0.23373 0.0
H885 H 0.72629 0.12543 0.03711 0.0
H886 H 0.7126 0.10167 0.99358 0.0
H887 H 0.69635 0.12628 0.01671 0.0
H888 H 0.64014 0.05525 0.95687 0.0
H889 H 0.61358 0.12027 0.01553 0.0
H890 H 0.67981 0.05385 0.06676 0.0
H891 H 0.69748 0.06632 0.0128 0.0
H892 H 0.6775 0.04531 0.98083 0.0
H893 H 0.64388 0.13635 0.14048 0.0
H894 H 0.63751 0.14873 0.06984 0.0
H895 H 0.6667 0.14301 0.09007 0.0
C896 C 0.50162 0.67047 0.98342 0.0
C897 C 0.52427 0.67453 0.00302 0.0
C898 C 0.49514 0.64983 0.95074 0.0
C899 C 0.5118 0.63307 0.93728 0.0
C900 C 0.5349 0.63755 0.95394 0.0
C901 C 0.54083 0.65821 0.98686 0.0
C902 C 0.47037 0.64565 0.93369 0.0
C903 C 0.55326 0.62023 0.9393 0.0
C904 C 0.4988 0.57249 0.92475 0.0
C905 C 0.50168 0.56555 0.85836 0.0
C906 C 0.50055 0.59477 0.95071 0.0
C907 C 0.50522 0.6104 0.90922 0.0
C908 C 0.50646 0.60369 0.84169 0.0
C909 C 0.50464 0.58134 0.81703 0.0
C910 C 0.499 0.60134 0.02306 0.0
C911 C 0.51107 0.61994 0.7959 0.0
H912 H 0.4888 0.68309 0.9964 0.0
H913 H 0.55838 0.66147 1.00157 0.0
H914 H 0.46861 0.63734 0.88313 0.0
H915 H 0.46307 0.63457 0.96552 0.0
H916 H 0.46017 0.66106 0.9396 0.0
H917 H 0.57056 0.62675 0.9524 0.0
H918 H 0.54988 0.60645 0.96655 0.0
H919 H 0.55312 0.61346 0.8871 0.0
H920 H 0.4964 0.56045 0.95698 0.0
H921 H 0.50658 0.57618 0.76548 0.0
H922 H 0.48751 0.61571 0.03505 0.0
H923 H 0.51614 0.60622 0.04265 0.0
H924 H 0.49268 0.58777 0.04771 0.0
H925 H 0.51027 0.61227 0.74441 0.0
H926 H 0.52825 0.6272 0.80563 0.0
H927 H 0.49854 0.63361 0.80379 0.0
C928 C 0.84661 0.53317 0.04135 0.0
C929 C 0.82353 0.52826 0.04861 0.0
C930 C 0.86083 0.51873 1.0014 0.0
C931 C 0.8515 0.49928 0.96681 0.0
C932 C 0.82771 0.49585 0.96682 0.0
C933 C 0.81397 0.51029 0.00832 0.0
C934 C 0.88614 0.52322 1.00138 0.0
C935 C 0.81704 0.47588 0.92781 0.0
C936 C 0.89532 0.46726 0.85926 0.0
C937 C 0.90436 0.45359 0.90126 0.0
C938 C 0.87652 0.48088 0.8774 0.0
C939 C 0.86706 0.48128 0.93955 0.0
C940 C 0.87474 0.46612 0.97968 0.0
C941 C 0.89312 0.45222 0.95956 0.0
C942 C 0.86821 0.49613 0.83216 0.0
C943 C 0.86489 0.46587 0.04625 0.0
H944 H 0.85394 0.54739 0.07088 0.0
H945 H 0.79613 0.50631 0.01315 0.0
H946 H 0.89529 0.51098 0.02607 0.0
H947 H 0.89266 0.52154 0.95115 0.0
H948 H 0.89037 0.53989 0.02648 0.0
H949 H 0.79838 0.47808 0.92176 0.0
H950 H 0.82503 0.47222 0.87932 0.0
H951 H 0.8198 0.46144 0.95291 0.0
H952 H 0.90389 0.46863 0.8142 0.0
H953 H 0.89966 0.44127 0.99142 0.0
H954 H 0.84976 0.49989 0.83854 0.0
H955 H 0.87125 0.48893 0.78106 0.0
H956 H 0.87774 0.51178 0.84202 0.0
H957 H 0.86906 0.48149 0.07768 0.0
H958 H 0.87165 0.45205 0.06939 0.0
H959 H 0.84604 0.46459 0.04368 0.0
C960 C 0.04558 0.16497 0.90088 0.0
C961 C 0.05232 0.16973 0.96579 0.0
C962 C 0.04238 0.14311 0.87126 0.0
C963 C 0.0453 0.12573 0.90814 0.0
C964 C 0.05206 0.13055 0.97374 0.0
C965 C 0.05573 0.15242 1.00142 0.0
C966 C 0.03569 0.13863 0.8008 0.0
C967 C 0.05471 0.11267 0.01546 0.0
C968 C 0.01418 0.0717 0.85977 0.0
C969 C 0.03208 0.05748 0.8369 0.0
C970 C 0.01817 0.09401 0.88197 0.0
C971 C 0.04051 0.10251 0.87952 0.0
C972 C 0.05851 0.08838 0.85416 0.0
C973 C 0.05415 0.06597 0.83408 0.0
C974 C 0.99859 0.10831 0.91015 0.0
C975 C 0.08242 0.09691 0.84892 0.0
H976 H 0.04286 0.17835 0.87336 0.0
H977 H 0.06052 0.15608 0.05198 0.0
H978 H 0.04739 0.12627 0.77414 0.0
H979 H 0.01825 0.13169 0.79594 0.0
H980 H 0.03603 0.15371 0.77754 0.0
H981 H 0.05996 0.11919 0.0657 0.0
H982 H 0.03834 0.10382 0.01725 0.0
H983 H 0.06763 0.1005 0.99431 0.0
H984 H 0.99708 0.06523 0.86205 0.0
H985 H 0.06798 0.05512 0.81546 0.0
H986 H 0.99662 0.12265 0.88425 0.0
H987 H 1.00222 0.11473 0.96157 0.0
H988 H 0.98217 0.09928 0.90749 0.0
H989 H 0.08221 0.1115 0.82353 0.0
H990 H 0.09401 0.08434 0.8226 0.0
H991 H 0.08952 0.10218 0.89794 0.0
C992 C 0.34763 0.02447 0.97089 0.0
C993 C 0.34056 0.01015 0.01349 0.0
C994 C 0.36869 0.02169 0.93823 0.0
C995 C 0.38321 0.00393 0.94722 0.0
C996 C 0.37577 0.98881 0.98769 0.0
C997 C 0.35469 0.99213 0.0204 0.0
C998 C 0.37578 0.03834 0.8961 0.0
C999 C 0.39047 0.96947 0.99816 0.0
C1000 C 0.43203 0.98881 0.82642 0.0
C1001 C 0.45091 0.99896 0.85988 0.0
C1002 C 0.41002 0.99008 0.85425 0.0
C1003 C 0.4066 0.0019 0.91709 0.0
C1004 C 0.42558 0.01217 0.951 0.0
C1005 C 0.44738 0.01052 0.92225 0.0
C1006 C 0.39037 0.97892 0.81612 0.0
C1007 C 0.42284 0.0251 0.01775 0.0
H1008 H 0.33682 0.03823 0.96378 0.0
H1009 H 0.34973 0.98101 0.05342 0.0
H1010 H 0.39 0.04834 0.9197 0.0
H1011 H 0.3821 0.03002 0.84888 0.0
H1012 H 0.36156 0.04954 0.88743 0.0
H1013 H 0.38161 0.95827 0.02689 0.0
H1014 H 0.39557 0.96002 0.95099 0.0
H1015 H 0.40633 0.97539 0.02393 0.0
H1016 H 0.43442 0.97977 0.77837 0.0
H1017 H 0.4617 0.01849 0.94879 0.0
H1018 H 0.37812 0.99146 0.8039 0.0
H1019 H 0.38106 0.96827 0.84552 0.0
H1020 H 0.39605 0.96879 0.77057 0.0
H1021 H 0.41055 0.03876 0.01615 0.0
H1022 H 0.43924 0.03206 0.03795 0.0
H1023 H 0.41577 0.01444 0.05114 0.0
C1024 C 0.49029 0.29783 0.10456 0.0
C1025 C 0.4709 0.28439 0.10028 0.0
C1026 C 0.49032 0.31768 0.07911 0.0
C1027 C 0.47051 0.32429 0.04813 0.0
C1028 C 0.45123 0.31034 0.04097 0.0
C1029 C 0.4516 0.29063 0.06748 0.0
C1030 C 0.51118 0.3321 0.08838 0.0
C1031 C 0.4299 0.31663 0.00745 0.0
C1032 C 0.46185 0.38575 0.05245 0.0
C1033 C 0.46983 0.38899 0.99143 0.0
C1034 C 0.46172 0.36476 0.07108 0.0
C1035 C 0.46955 0.34645 0.02739 0.0
C1036 C 0.47726 0.34955 0.96526 0.0
C1037 C 0.47743 0.37078 0.94816 0.0
C1038 C 0.45365 0.36225 0.1381 0.0
C1039 C 0.4855 0.33047 0.91703 0.0
H1040 H 0.50514 0.29341 0.13087 0.0
H1041 H 0.43659 0.2803 0.06374 0.0
H1042 H 0.51669 0.3367 0.04151 0.0
H1043 H 0.50699 0.34752 0.12085 0.0
H1044 H 0.5257 0.32397 0.10969 0.0
H1045 H 0.41722 0.30314 1.0005 0.0
H1046 H 0.42189 0.33119 0.03653 0.0
H1047 H 0.43419 0.32122 0.95958 0.0
H1048 H 0.45619 0.39977 0.08633 0.0
H1049 H 0.48336 0.37314 0.90061 0.0
H1050 H 0.46772 0.35572 0.16539 0.0
H1051 H 0.43947 0.35028 0.13507 0.0
H1052 H 0.4477 0.37804 0.16581 0.0
H1053 H 0.50065 0.3228 0.93655 0.0
H1054 H 0.49013 0.3355 0.86989 0.0
H1055 H 0.47207 0.31772 0.90871 0.0
C1056 C 0.19159 0.46743 0.94767 0.0
C1057 C 0.19785 0.48129 0.00463 0.0
C1058 C 0.17058 0.46987 0.91655 0.0
C1059 C 0.15525 0.48681 0.94202 0.0
C1060 C 0.16182 0.50148 0.99778 0.0
C1061 C 0.18288 0.49851 0.02845 0.0
C1062 C 0.16445 0.45354 0.85805 0.0
C1063 C 0.14625 0.51995 0.02633 0.0
C1064 C 0.10687 0.50216 0.83269 0.0
C1065 C 0.08812 0.49099 0.85389 0.0
C1066 C 0.12866 0.50116 0.86119 0.0
C1067 C 0.13202 0.48856 0.91203 0.0
C1068 C 0.11318 0.47721 0.93343 0.0
C1069 C 0.09157 0.47863 0.90448 0.0
C1070 C 0.1482 0.5134 0.83642 0.0
C1071 C 0.11589 0.46336 0.98677 0.0
H1072 H 0.203 0.4543 0.92764 0.0
H1073 H 0.18718 0.50923 0.07262 0.0
H1074 H 0.15269 0.44114 0.8729 0.0
H1075 H 0.15552 0.46165 0.8213 0.0
H1076 H 0.17973 0.44484 0.83548 0.0
H1077 H 0.15439 0.53086 0.06698 0.0
H1078 H 0.14114 0.52995 0.98864 0.0
H1079 H 0.13044 0.5131 0.04433 0.0
H1080 H 0.10453 0.51185 0.79396 0.0
H1081 H 0.07735 0.46986 0.9214 0.0
H1082 H 0.16102 0.50149 0.8131 0.0
H1083 H 0.15684 0.52381 0.8771 0.0
H1084 H 0.14254 0.52397 0.80075 0.0
H1085 H 0.12859 0.45014 0.97229 0.0
H1086 H 0.09959 0.45573 0.99853 0.0
H1087 H 0.12244 0.47354 0.03116 0.0
C1088 C 0.01233 0.82032 0.62087 0.0
C1089 C 0.99145 0.81167 0.59587 0.0
C1090 C 0.01436 0.84252 0.64783 0.0
C1091 C 0.99493 0.85639 0.65148 0.0
C1092 C 0.97348 0.84741 0.63116 0.0
C1093 C 0.97202 0.82527 0.60301 0.0
C1094 C 0.03755 0.85137 0.66944 0.0
C1095 C 0.9522 0.86145 0.63623 0.0
C1096 C 0.99984 0.91221 0.75668 0.0
C1097 C 1.00373 0.92611 0.71037 0.0
C1098 C 0.99643 0.88959 0.73831 0.0
C1099 C 0.99742 0.88053 0.67207 0.0
C1100 C 1.00131 0.89452 0.62512 0.0
C1101 C 1.0041 0.91719 0.64479 0.0
C1102 C 0.99151 0.87547 0.78977 0.0
C1103 C 1.00307 0.88547 0.55415 0.0
H1104 H 0.02735 0.8099 0.61728 0.0
H1105 H 0.95581 0.819 0.58358 0.0
H1106 H 0.04277 0.86395 0.63955 0.0
H1107 H 0.03686 0.85951 0.7204 0.0
H1108 H 0.05083 0.83832 0.66532 0.0
H1109 H 0.9365 0.85149 0.62615 0.0
H1110 H 0.95083 0.87113 0.68523 0.0
H1111 H 0.95312 0.87326 0.60113 0.0
H1112 H 0.9993 0.91906 0.8075 0.0
H1113 H 1.0073 0.92783 0.60893 0.0
H1114 H 1.00267 0.86076 0.78372 0.0
H1115 H 0.97364 0.86962 0.78475 0.0
H1116 H 0.99388 0.8845 0.83939 0.0
H1117 H 0.01704 0.87314 0.54647 0.0
H1118 H 1.00645 0.89847 0.52387 0.0
H1119 H 0.98704 0.87699 0.53724 0.0
C1120 C 0.68805 0.98491 0.5871 0.0
C1121 C 0.6884 0.9871 0.52114 0.0
C1122 C 0.66733 0.98468 0.62129 0.0
C1123 C 0.64628 0.98695 0.58925 0.0
C1124 C 0.64652 0.98892 0.52255 0.0
C1125 C 0.66745 0.98888 0.48942 0.0
C1126 C 0.66798 0.98226 0.69203 0.0
C1127 C 0.62462 0.9916 0.48636 0.0
C1128 C 0.59016 0.96971 0.6608 0.0
C1129 C 0.58124 0.98986 0.69097 0.0
C1130 C 0.61137 0.96847 0.62855 0.0
C1131 C 0.62407 0.98784 0.62566 0.0
C1132 C 0.61525 0.00819 0.65651 0.0
C1133 C 0.5941 0.00895 0.68882 0.0
C1134 C 0.62012 0.94639 0.59704 0.0
C1135 C 0.62801 0.02931 0.65455 0.0
H1136 H 0.70405 0.98336 0.61211 0.0
H1137 H 0.66742 0.99095 0.43886 0.0
H1138 H 0.66066 0.99714 0.72131 0.0
H1139 H 0.65736 0.96813 0.70075 0.0
H1140 H 0.68559 0.97978 0.70937 0.0
H1141 H 0.62759 0.99242 0.43433 0.0
H1142 H 0.61299 0.97772 0.49035 0.0
H1143 H 0.61575 0.00685 0.50823 0.0
H1144 H 0.58053 0.95482 0.6621 0.0
H1145 H 0.5875 0.02464 0.71169 0.0
H1146 H 0.63735 0.94329 0.61586 0.0
H1147 H 0.62177 0.94624 0.54414 0.0
H1148 H 0.6087 0.93276 0.60553 0.0
H1149 H 0.64536 0.02818 0.67508 0.0
H1150 H 0.61913 0.04374 0.68186 0.0
H1151 H 0.63007 0.03209 0.60366 0.0
C1152 C 0.58168 0.70696 0.48837 0.0
C1153 C 0.56278 0.72109 0.49997 0.0
C1154 C 0.58336 0.68772 0.51672 0.0
C1155 C 0.56563 0.68226 0.55729 0.0
C1156 C 0.54726 0.69711 0.5726 0.0
C1157 C 0.54612 0.71638 0.54406 0.0
C1158 C 0.60339 0.67248 0.49963 0.0
C1159 C 0.52803 0.692 0.61578 0.0
C1160 C 0.55502 0.62128 0.55403 0.0
C1161 C 0.56517 0.61725 0.61194 0.0
C1162 C 0.55479 0.64239 0.53642 0.0
C1163 C 0.56507 0.66001 0.57751 0.0
C1164 C 0.57511 0.65615 0.63649 0.0
C1165 C 0.57496 0.63482 0.65315 0.0
C1166 C 0.54364 0.6458 0.47346 0.0
C1167 C 0.58637 0.67443 0.68136 0.0
H1168 H 0.59455 0.71018 0.45391 0.0
H1169 H 0.53164 0.72733 0.55431 0.0
H1170 H 0.61067 0.66709 0.54373 0.0
H1171 H 0.59758 0.65758 0.46744 0.0
H1172 H 0.61709 0.68031 0.47449 0.0
H1173 H 0.51646 0.70628 0.62908 0.0
H1174 H 0.51787 0.67816 0.59045 0.0
H1175 H 0.53483 0.68679 0.66069 0.0
H1176 H 0.54705 0.60788 0.52252 0.0
H1177 H 0.58295 0.63181 0.6978 0.0
H1178 H 0.55644 0.6517 0.44112 0.0
H1179 H 0.53016 0.65858 0.48257 0.0
H1180 H 0.53586 0.63052 0.44784 0.0
H1181 H 0.60103 0.68088 0.65655 0.0
H1182 H 0.59262 0.66895 0.72656 0.0
H1183 H 0.57422 0.68823 0.69423 0.0
C1184 C 0.86636 0.49825 0.50603 0.0
C1185 C 0.84781 0.50894 0.53998 0.0
C1186 C 0.88793 0.49698 0.53536 0.0
C1187 C 0.89122 0.50633 0.60088 0.0
C1188 C 0.87252 0.51703 0.63558 0.0
C1189 C 0.85122 0.51831 0.60473 0.0
C1190 C 0.90744 0.48621 0.49544 0.0
C1191 C 0.87489 0.5279 0.70481 0.0
C1192 C 0.94192 0.48515 0.6905 0.0
C1193 C 0.95784 0.50222 0.69186 0.0
C1194 C 0.92023 0.48637 0.66179 0.0
C1195 C 0.9142 0.50497 0.63263 0.0
C1196 C 0.93016 0.52227 0.63402 0.0
C1197 C 0.95163 0.52076 0.66384 0.0
C1198 C 0.90382 0.46759 0.66222 0.0
C1199 C 0.92461 0.54238 0.60354 0.0
H1200 H 0.86421 0.49141 0.45559 0.0
H1201 H 0.83715 0.52667 0.63167 0.0
H1202 H 0.92156 0.4981 0.49464 0.0
H1203 H 0.91424 0.47222 0.51752 0.0
H1204 H 0.90229 0.4801 0.44484 0.0
H1205 H 0.85861 0.52714 0.73147 0.0
H1206 H 0.88862 0.52043 0.73099 0.0
H1207 H 0.87902 0.54548 0.70535 0.0
H1208 H 0.94634 0.47076 0.71215 0.0
H1209 H 0.9637 0.53406 0.66434 0.0
H1210 H 0.90213 0.45848 0.61259 0.0
H1211 H 0.88663 0.47382 0.67772 0.0
H1212 H 0.90963 0.45589 0.69452 0.0
H1213 H 0.91933 0.5375 0.55245 0.0
H1214 H 0.9393 0.55377 0.60495 0.0
H1215 H 0.91007 0.5513 0.62933 0.0
loop_
_geom_bond_atom_site_label_1
_geom_bond_atom_site_label_2
_geom_bond_distance
_geom_bond_site_symmetry_2
_ccdc_geom_bond_type
C0 C1 1.384 . S
C0 H13 0.947 . S
C0 C35 1.382 . S
C1 C0 1.384 . S
C1 C2 1.378 . S
C2 C1 1.378 . S
C2 C3 1.378 . S
C2 H14 0.952 . S
C3 C2 1.378 . S
C3 H15 0.950 . S
C3 C34 1.383 . S
H4 C23 0.947 . S
H5 C24 0.946 . S
H6 C26 0.953 . S
H7 C27 0.945 . S
H8 C29 0.952 . S
H9 C30 0.949 . S
H10 C32 0.950 . S
H11 C33 0.948 . S
H12 C35 0.951 . S
H13 C0 0.947 . S
H14 C2 0.952 . S
H15 C3 0.950 . S
N16 C19 1.382 . S
N16 C21 1.363 . S
N17 C19 1.371 . S
N17 C20 1.372 . S
N18 C20 1.361 . S
N18 C21 1.377 . S
C19 N16 1.382 . S
C19 N17 1.371 . S
C19 C22 1.480 . S
C20 N17 1.372 . S
C20 N18 1.361 . S
C20 C28 1.457 . S
C21 N16 1.363 . S
C21 N18 1.377 . S
C21 C34 1.479 . S
C22 C19 1.480 . S
C22 C23 1.383 . S
C22 C27 1.385 . S
C23 H4 0.947 . S
C23 C22 1.383 . S
C23 C24 1.388 . S
C24 H5 0.946 . S
C24 C23 1.388 . S
C24 C25 1.384 . S
C25 C24 1.384 . S
C25 C26 1.377 . S
C26 H6 0.953 . S
C26 C25 1.377 . S
C26 C27 1.369 . S
C27 H7 0.945 . S
C27 C22 1.385 . S
C27 C26 1.369 . S
C28 C20 1.457 . S
C28 C29 1.372 . S
C28 C33 1.364 . S
C29 H8 0.952 . S
C29 C28 1.372 . S
C29 C30 1.389 . S
C30 H9 0.949 . S
C30 C29 1.389 . S
C30 C31 1.387 . S
C31 C30 1.387 . S
C31 C32 1.372 . S
C32 H10 0.950 . S
C32 C31 1.372 . S
C32 C33 1.379 . S
C33 H11 0.948 . S
C33 C28 1.364 . S
C33 C32 1.379 . S
C34 C3 1.383 . S
C34 C21 1.479 . S
C34 C35 1.398 . S
C35 C0 1.382 . S
C35 H12 0.951 . S
C35 C34 1.398 . S
C36 C37 1.384 . S
C36 H49 0.947 . S
C36 C71 1.382 . S
C37 C36 1.384 . S
C37 C38 1.378 . S
C38 C37 1.378 . S
C38 C39 1.378 . S
C38 H50 0.952 . S
C39 C38 1.378 . S
C39 H51 0.950 . S
C39 C70 1.383 . S
H40 C59 0.947 . S
H41 C60 0.946 . S
H42 C62 0.953 . S
H43 C63 0.945 . S
H44 C65 0.952 . S
H45 C66 0.949 . S
H46 C68 0.950 . S
H47 C69 0.948 . S
H48 C71 0.951 . S
H49 C36 0.947 . S
H50 C38 0.952 . S
H51 C39 0.950 . S
N52 C55 1.382 . S
N52 C57 1.363 . S
N53 C55 1.371 . S
N53 C56 1.372 . S
N54 C56 1.361 . S
N54 C57 1.377 . S
C55 N52 1.382 . S
C55 N53 1.371 . S
C55 C58 1.480 . S
C56 N53 1.372 . S
C56 N54 1.361 . S
C56 C64 1.457 . S
C57 N52 1.363 . S
C57 N54 1.377 . S
C57 C70 1.479 . S
C58 C55 1.480 . S
C58 C59 1.383 . S
C58 C63 1.385 . S
C59 H40 0.947 . S
C59 C58 1.383 . S
C59 C60 1.388 . S
C60 H41 0.946 . S
C60 C59 1.388 . S
C60 C61 1.384 . S
C61 C60 1.384 . S
C61 C62 1.377 . S
C62 H42 0.953 . S
C62 C61 1.377 . S
C62 C63 1.369 . S
C63 H43 0.945 . S
C63 C58 1.385 . S
C63 C62 1.369 . S
C64 C56 1.457 . S
C64 C65 1.372 . S
C64 C69 1.364 . S
C65 H44 0.952 . S
C65 C64 1.372 . S
C65 C66 1.389 . S
C66 H45 0.949 . S
C66 C65 1.389 . S
C66 C67 1.387 . S
C67 C66 1.387 . S
C67 C68 1.372 . S
C68 H46 0.950 . S
C68 C67 1.372 . S
C68 C69 1.379 . S
C69 H47 0.948 . S
C69 C64 1.364 . S
C69 C68 1.379 . S
C70 C39 1.383 . S
C70 C57 1.479 . S
C70 C71 1.398 . S
C71 C36 1.382 . S
C71 H48 0.951 . S
C71 C70 1.398 . S
C72 C73 1.384 1_565 S
C72 H85 0.948 . S
C72 C107 1.381 1_565 S
C73 C72 1.384 1_545 S
C73 C74 1.378 . S
C74 C73 1.378 . S
C74 C75 1.378 . S
C74 H86 0.952 . S
C75 C74 1.378 . S
C75 H87 0.950 . S
C75 C106 1.383 . S
H76 C95 0.947 . S
H77 C96 0.955 . S
H78 C98 0.953 . S
H79 C99 0.945 . S
H80 C101 0.950 1_565 S
H81 C102 0.950 . S
H82 C104 0.950 . S
H83 C105 0.948 . S
H84 C107 0.951 1_565 S
H85 C72 0.948 . S
H86 C74 0.952 . S
H87 C75 0.950 . S
N88 C91 1.382 . S
N88 C93 1.363 . S
N89 C91 1.371 . S
N89 C92 1.372 . S
N90 C92 1.361 . S
N90 C93 1.377 . S
C91 N88 1.382 . S
C91 N89 1.371 . S
C91 C94 1.480 . S
C92 N89 1.372 . S
C92 N90 1.361 . S
C92 C100 1.457 . S
C93 N88 1.363 . S
C93 N90 1.377 . S
C93 C106 1.479 . S
C94 C91 1.480 . S
C94 C95 1.383 . S
C94 C99 1.385 . S
C95 H76 0.947 . S
C95 C94 1.383 . S
C95 C96 1.387 1_545 S
C96 H77 0.955 . S
C96 C95 1.387 1_565 S
C96 C97 1.377 1_565 S
C97 C96 1.377 1_545 S
C97 C98 1.377 . S
C98 H78 0.953 . S
C98 C97 1.377 . S
C98 C99 1.369 . S
C99 H79 0.945 . S
C99 C94 1.385 . S
C99 C98 1.369 . S
C100 C92 1.457 . S
C100 C101 1.373 . S
C100 C105 1.364 . S
C101 H80 0.950 1_545 S
C101 C100 1.373 . S
C101 C102 1.393 1_545 S
C102 H81 0.950 . S
C102 C101 1.393 1_565 S
C102 C103 1.385 1_565 S
C103 C102 1.385 1_545 S
C103 C104 1.372 . S
C104 H82 0.950 . S
C104 C103 1.372 . S
C104 C105 1.379 . S
C105 H83 0.948 . S
C105 C100 1.364 . S
C105 C104 1.379 . S
C106 C75 1.383 . S
C106 C93 1.479 . S
C106 C107 1.398 . S
C107 C72 1.381 1_545 S
C107 H84 0.951 1_545 S
C107 C106 1.398 . S
C108 C109 1.384 . S
C108 H121 0.947 . S
C108 C143 1.382 . S
C109 C108 1.384 . S
C109 C110 1.378 . S
C110 C109 1.378 . S
C110 C111 1.378 . S
C110 H122 0.952 . S
C111 C110 1.378 . S
C111 H123 0.950 . S
C111 C142 1.383 . S
H112 C131 0.947 . S
H113 C132 0.946 . S
H114 C134 0.953 . S
H115 C135 0.945 . S
H116 C137 0.952 . S
H117 C138 0.949 . S
H118 C140 0.950 . S
H119 C141 0.948 . S
H120 C143 0.951 . S
H121 C108 0.947 . S
H122 C110 0.952 . S
H123 C111 0.950 . S
N124 C127 1.382 . S
N124 C129 1.363 . S
N125 C127 1.371 1_554 S
N125 C128 1.372 . S
N126 C128 1.361 . S
N126 C129 1.377 1_554 S
C127 N124 1.382 . S
C127 N125 1.371 1_556 S
C127 C130 1.480 . S
C128 N125 1.372 . S
C128 N126 1.361 . S
C128 C136 1.457 . S
C129 N124 1.363 . S
C129 N126 1.377 1_556 S
C129 C142 1.479 . S
C130 C127 1.480 . S
C130 C131 1.383 . S
C130 C135 1.385 1_556 S
C131 H112 0.947 . S
C131 C130 1.383 . S
C131 C132 1.388 . S
C132 H113 0.946 . S
C132 C131 1.388 . S
C132 C133 1.384 . S
C133 C132 1.384 . S
C133 C134 1.377 1_556 S
C134 H114 0.953 . S
C134 C133 1.377 1_554 S
C134 C135 1.369 . S
C135 H115 0.945 . S
C135 C130 1.385 1_554 S
C135 C134 1.369 . S
C136 C128 1.457 . S
C136 C137 1.372 . S
C136 C141 1.364 . S
C137 H116 0.952 . S
C137 C136 1.372 . S
C137 C138 1.389 . S
C138 H117 0.949 . S
C138 C137 1.389 . S
C138 C139 1.387 . S
C139 C138 1.387 . S
C139 C140 1.372 . S
C140 H118 0.950 . S
C140 C139 1.372 . S
C140 C141 1.379 . S
C141 H119 0.948 . S
C141 C136 1.364 . S
C141 C140 1.379 . S
C142 C111 1.383 . S
C142 C129 1.479 . S
C142 C143 1.398 . S
C143 C108 1.382 . S
C143 H120 0.951 . S
C143 C142 1.398 . S
C144 C145 1.384 . S
C144 H157 0.947 . S
C144 C179 1.382 1_556 S
C145 C144 1.384 . S
C145 C146 1.378 . S
C146 C145 1.378 . S
C146 C147 1.378 . S
C146 H158 0.952 . S
C147 C146 1.378 . S
C147 H159 0.950 1_556 S
C147 C178 1.383 1_556 S
H148 C167 0.947 . S
H149 C168 0.946 . S
H150 C170 0.953 . S
H151 C171 0.945 . S
H152 C173 0.952 . S
H153 C174 0.949 . S
H154 C176 0.950 . S
H155 C177 0.948 . S
H156 C179 0.951 . S
H157 C144 0.947 . S
H158 C146 0.952 . S
H159 C147 0.950 1_554 S
N160 C163 1.382 . S
N160 C165 1.363 . S
N161 C163 1.371 . S
N161 C164 1.372 . S
N162 C164 1.361 . S
N162 C165 1.377 . S
C163 N160 1.382 . S
C163 N161 1.371 . S
C163 C166 1.480 . S
C164 N161 1.372 . S
C164 N162 1.361 . S
C164 C172 1.457 . S
C165 N160 1.363 . S
C165 N162 1.377 . S
C165 C178 1.479 . S
C166 C163 1.480 . S
C166 C167 1.383 . S
C166 C171 1.385 . S
C167 H148 0.947 . S
C167 C166 1.383 . S
C167 C168 1.388 . S
C168 H149 0.946 . S
C168 C167 1.388 . S
C168 C169 1.384 . S
C169 C168 1.384 . S
C169 C170 1.377 . S
C170 H150 0.953 . S
C170 C169 1.377 . S
C170 C171 1.369 . S
C171 H151 0.945 . S
C171 C166 1.385 . S
C171 C170 1.369 . S
C172 C164 1.457 . S
C172 C173 1.372 . S
C172 C177 1.364 . S
C173 H152 0.952 . S
C173 C172 1.372 . S
C173 C174 1.389 . S
C174 H153 0.949 . S
C174 C173 1.389 . S
C174 C175 1.387 . S
C175 C174 1.387 . S
C175 C176 1.372 . S
C176 H154 0.950 . S
C176 C175 1.372 . S
C176 C177 1.379 . S
C177 H155 0.948 . S
C177 C172 1.364 . S
C177 C176 1.379 . S
C178 C147 1.383 1_554 S
C178 C165 1.479 . S
C178 C179 1.398 . S
C179 C144 1.382 1_554 S
C179 H156 0.951 . S
C179 C178 1.398 . S
C180 C181 1.384 1_554 S
C180 H193 0.947 1_554 S
C180 C215 1.382 . S
C181 C180 1.384 1_556 S
C181 C182 1.378 . S
C182 C181 1.378 . S
C182 C183 1.378 1_556 S
C182 H194 0.952 . S
C183 C182 1.378 1_554 S
C183 H195 0.950 . S
C183 C214 1.383 . S
H184 C203 0.947 . S
H185 C204 0.946 . S
H186 C206 0.953 . S
H187 C207 0.945 . S
H188 C209 0.952 . S
H189 C210 0.949 . S
H190 C212 0.950 . S
H191 C213 0.948 . S
H192 C215 0.951 . S
H193 C180 0.947 1_556 S
H194 C182 0.952 . S
H195 C183 0.950 . S
N196 C199 1.382 . S
N196 C201 1.363 . S
N197 C199 1.371 . S
N197 C200 1.372 . S
N198 C200 1.361 . S
N198 C201 1.377 . S
C199 N196 1.382 . S
C199 N197 1.371 . S
C199 C202 1.480 . S
C200 N197 1.372 . S
C200 N198 1.361 . S
C200 C208 1.457 . S
C201 N196 1.363 . S
C201 N198 1.377 . S
C201 C214 1.479 . S
C202 C199 1.480 . S
C202 C203 1.383 . S
C202 C207 1.385 . S
C203 H184 0.947 . S
C203 C202 1.383 . S
C203 C204 1.388 . S
C204 H185 0.946 . S
C204 C203 1.388 . S
C204 C205 1.384 . S
C205 C204 1.384 . S
C205 C206 1.377 . S
C206 H186 0.953 . S
C206 C205 1.377 . S
C206 C207 1.369 . S
C207 H187 0.945 . S
C207 C202 1.385 . S
C207 C206 1.369 . S
C208 C200 1.457 . S
C208 C209 1.372 . S
C208 C213 1.364 . S
C209 H188 0.952 . S
C209 C208 1.372 . S
C209 C210 1.389 . S
C210 H189 0.949 . S
C210 C209 1.389 . S
C210 C211 1.387 . S
C211 C210 1.387 . S
C211 C212 1.372 . S
C212 H190 0.950 . S
C212 C211 1.372 . S
C212 C213 1.379 . S
C213 H191 0.948 . S
C213 C208 1.364 . S
C213 C212 1.379 . S
C214 C183 1.383 . S
C214 C201 1.479 . S
C214 C215 1.398 . S
C215 C180 1.382 . S
C215 H192 0.951 . S
C215 C214 1.398 . S
C216 C217 1.383 . S
C216 H229 0.947 1_545 S
C216 C251 1.384 1_556 S
C217 C216 1.383 . S
C217 C218 1.378 . S
C218 C217 1.378 . S
C218 C219 1.378 1_556 S
C218 H230 0.952 . S
C219 C218 1.378 1_554 S
C219 H231 0.950 . S
C219 C250 1.383 . S
H220 C239 0.947 . S
H221 C240 0.947 . S
H222 C242 0.953 . S
H223 C243 0.945 . S
H224 C245 0.946 1_565 S
H225 C246 0.958 . S
H226 C248 0.950 . S
H227 C249 0.948 . S
H228 C251 0.949 1_565 S
H229 C216 0.947 1_565 S
H230 C218 0.952 . S
H231 C219 0.950 . S
N232 C235 1.382 . S
N232 C237 1.363 . S
N233 C235 1.371 . S
N233 C236 1.372 . S
N234 C236 1.361 . S
N234 C237 1.377 . S
C235 N232 1.382 . S
C235 N233 1.371 . S
C235 C238 1.480 . S
C236 N233 1.372 . S
C236 N234 1.361 . S
C236 C244 1.457 . S
C237 N232 1.363 . S
C237 N234 1.377 . S
C237 C250 1.479 . S
C238 C235 1.480 . S
C238 C239 1.383 . S
C238 C243 1.385 . S
C239 H220 0.947 . S
C239 C238 1.383 . S
C239 C240 1.386 1_545 S
C240 H221 0.947 . S
C240 C239 1.386 1_565 S
C240 C241 1.385 1_565 S
C241 C240 1.385 1_545 S
C241 C242 1.377 . S
C242 H222 0.953 . S
C242 C241 1.377 . S
C242 C243 1.369 . S
C243 H223 0.945 . S
C243 C238 1.385 . S
C243 C242 1.369 . S
C244 C236 1.457 . S
C244 C245 1.383 . S
C244 C249 1.364 . S
C245 H224 0.946 1_545 S
C245 C244 1.383 . S
C245 C246 1.380 1_545 S
C246 H225 0.958 . S
C246 C245 1.380 1_565 S
C246 C247 1.382 1_565 S
C247 C246 1.382 1_545 S
C247 C248 1.372 . S
C248 H226 0.950 . S
C248 C247 1.372 . S
C248 C249 1.379 . S
C249 H227 0.948 . S
C249 C244 1.364 . S
C249 C248 1.379 . S
C250 C219 1.383 . S
C250 C237 1.479 . S
C250 C251 1.399 . S
C251 C216 1.384 1_554 S
C251 H228 0.949 1_545 S
C251 C250 1.399 . S
C252 C253 1.384 . S
C252 H265 0.947 . S
C252 C287 1.382 . S
C253 C252 1.384 . S
C253 C254 1.378 . S
C254 C253 1.378 . S
C254 C255 1.378 . S
C254 H266 0.952 . S
C255 C254 1.378 . S
C255 H267 0.950 . S
C255 C286 1.383 . S
H256 C275 0.947 . S
H257 C276 0.946 . S
H258 C278 0.953 . S
H259 C279 0.945 . S
H260 C281 0.952 . S
H261 C282 0.949 . S
H262 C284 0.950 . S
H263 C285 0.948 . S
H264 C287 0.951 . S
H265 C252 0.947 . S
H266 C254 0.952 . S
H267 C255 0.950 . S
N268 C271 1.382 . S
N268 C273 1.363 . S
N269 C271 1.371 . S
N269 C272 1.372 . S
N270 C272 1.361 . S
N270 C273 1.377 . S
C271 N268 1.382 . S
C271 N269 1.371 . S
C271 C274 1.480 . S
C272 N269 1.372 . S
C272 N270 1.361 . S
C272 C280 1.457 . S
C273 N268 1.363 . S
C273 N270 1.377 . S
C273 C286 1.479 . S
C274 C271 1.480 . S
C274 C275 1.383 . S
C274 C279 1.385 . S
C275 H256 0.947 . S
C275 C274 1.383 . S
C275 C276 1.388 . S
C276 H257 0.946 . S
C276 C275 1.388 . S
C276 C277 1.384 . S
C277 C276 1.384 . S
C277 C278 1.377 . S
C278 H258 0.953 . S
C278 C277 1.377 . S
C278 C279 1.369 . S
C279 H259 0.945 . S
C279 C274 1.385 . S
C279 C278 1.369 . S
C280 C272 1.457 . S
C280 C281 1.372 . S
C280 C285 1.364 . S
C281 H260 0.952 . S
C281 C280 1.372 . S
C281 C282 1.389 . S
C282 H261 0.949 . S
C282 C281 1.389 . S
C282 C283 1.387 . S
C283 C282 1.387 . S
C283 C284 1.372 . S
C284 H262 0.950 . S
C284 C283 1.372 . S
C284 C285 1.379 . S
C285 H263 0.948 . S
C285 C280 1.364 . S
C285 C284 1.379 . S
C286 C255 1.383 . S
C286 C273 1.479 . S
C286 C287 1.398 . S
C287 C252 1.382 . S
C287 H264 0.951 . S
C287 C286 1.398 . S
Tb288 C297 2.764 . S
Tb288 O298 2.325 1_655 S
Tb288 O301 2.303 1_655 S
Tb288 O305 2.322 1_545 S
Tb288 O306 2.349 . S
Tb288 O309 2.415 1_655 S
Tb288 O310 2.399 . S
Tb289 O299 2.322 1_565 S
Tb289 O300 2.349 . S
Tb289 O302 2.415 . S
Tb289 O303 2.399 . S
Tb289 O304 2.325 . S
Tb289 O307 2.303 1_455 S
Tb289 C318 2.764 . S
C290 O306 1.261 . S
C290 O307 1.257 1_545 S
C291 C294 1.358 . S
C291 C295 1.332 1_655 S
C291 C297 1.504 . S
C292 C293 1.373 . S
C292 C296 1.308 1_655 S
C293 C292 1.373 . S
C293 C294 1.429 . S
C293 H320 0.932 . S
C294 C291 1.358 . S
C294 C293 1.429 . S
C294 H321 0.930 . S
C295 C291 1.332 1_455 S
C295 C296 1.394 . S
C295 H322 0.932 . S
C296 C292 1.308 1_455 S
C296 C295 1.394 . S
C296 H323 0.929 . S
C297 Tb288 2.764 . S
C297 C291 1.504 . S
C297 O309 1.239 1_655 S
C297 O310 1.263 . S
O298 Tb288 2.325 1_455 S
O298 C308 1.236 . S
O299 Tb289 2.322 1_545 S
O299 C308 1.257 . S
O300 Tb289 2.349 . S
O300 C311 1.261 . S
O301 Tb288 2.303 1_455 S
O301 C311 1.257 1_545 S
O302 Tb289 2.415 . S
O302 C318 1.239 . S
O303 Tb289 2.399 . S
O303 C318 1.263 . S
O304 Tb289 2.325 . S
O304 C319 1.236 1_455 S
O305 Tb288 2.322 1_565 S
O305 C319 1.257 . S
O306 Tb288 2.349 . S
O306 C290 1.261 . S
O307 Tb289 2.303 1_655 S
O307 C290 1.257 1_565 S
C308 O298 1.236 . S
C308 O299 1.257 . S
O309 Tb288 2.415 1_455 S
O309 C297 1.239 1_455 S
O310 Tb288 2.399 . S
O310 C297 1.263 . S
C311 O300 1.261 . S
C311 O301 1.257 1_565 S
C312 C315 1.358 . S
C312 C316 1.332 . S
C312 C318 1.504 . S
C313 C314 1.373 . S
C313 C317 1.308 . S
C314 C313 1.373 . S
C314 C315 1.429 . S
C314 H324 0.932 . S
C315 C312 1.358 . S
C315 C314 1.429 . S
C315 H325 0.930 . S
C316 C312 1.332 . S
C316 C317 1.394 . S
C316 H326 0.932 1_455 S
C317 C313 1.308 . S
C317 C316 1.394 . S
C317 H327 0.963 . S
C318 Tb289 2.764 . S
C318 O302 1.239 . S
C318 O303 1.263 . S
C318 C312 1.504 . S
C319 O304 1.236 1_655 S
C319 O305 1.257 . S
H320 C293 0.932 . S
H321 C294 0.930 . S
H322 C295 0.932 . S
H323 C296 0.929 . S
H324 C314 0.932 . S
H325 C315 0.930 . S
H326 C316 0.932 1_655 S
H327 C317 0.963 . S
Tb328 C337 2.764 . S
Tb328 O338 2.325 . S
Tb328 O341 2.303 1_565 S
Tb328 O345 2.322 . S
Tb328 O346 2.349 . S
Tb328 O349 2.415 1_565 S
Tb328 O350 2.399 . S
Tb329 O339 2.322 . S
Tb329 O340 2.349 . S
Tb329 O342 2.415 1_545 S
Tb329 O343 2.399 . S
Tb329 O344 2.325 . S
Tb329 O347 2.303 1_545 S
Tb329 C358 2.764 . S
C330 O346 1.261 . S
C330 O347 1.257 . S
C331 C334 1.358 . S
C331 C335 1.328 . S
C331 C337 1.504 . S
C332 C333 1.373 . S
C332 C336 1.308 . S
C333 C332 1.373 . S
C333 C334 1.429 . S
C333 H360 0.932 . S
C334 C331 1.358 . S
C334 C333 1.429 . S
C334 H361 0.930 . S
C335 C331 1.328 . S
C335 C336 1.394 . S
C335 H362 0.936 1_565 S
C336 C332 1.308 . S
C336 C335 1.394 . S
C336 H363 0.929 1_565 S
C337 Tb328 2.764 . S
C337 C331 1.504 . S
C337 O349 1.239 1_565 S
C337 O350 1.263 . S
O338 Tb328 2.325 . S
O338 C348 1.236 1_565 S
O339 Tb329 2.322 . S
O339 C348 1.257 . S
O340 Tb329 2.349 . S
O340 C351 1.261 . S
O341 Tb328 2.303 1_545 S
O341 C351 1.257 . S
O342 Tb329 2.415 1_565 S
O342 C358 1.239 1_565 S
O343 Tb329 2.399 . S
O343 C358 1.263 . S
O344 Tb329 2.325 . S
O344 C359 1.236 1_545 S
O345 Tb328 2.322 . S
O345 C359 1.257 . S
O346 Tb328 2.349 . S
O346 C330 1.261 . S
O347 Tb329 2.303 1_565 S
O347 C330 1.257 . S
C348 O338 1.236 1_545 S
C348 O339 1.257 . S
O349 Tb328 2.415 1_545 S
O349 C337 1.239 1_545 S
O350 Tb328 2.399 . S
O350 C337 1.263 . S
C351 O340 1.261 . S
C351 O341 1.257 . S
C352 C355 1.358 . S
C352 C356 1.338 . S
C352 C358 1.504 . S
C353 C354 1.373 . S
C353 C357 1.308 1_554 S
C354 C353 1.373 . S
C354 C355 1.429 1_554 S
C354 H364 0.932 . S
C355 C352 1.358 . S
C355 C354 1.429 1_556 S
C355 H365 0.930 . S
C356 C352 1.338 . S
C356 C357 1.394 . S
C356 H366 0.926 1_545 S
C357 C353 1.308 1_556 S
C357 C356 1.394 . S
C357 H367 0.929 1_545 S
C358 Tb329 2.764 . S
C358 O342 1.239 1_545 S
C358 O343 1.263 . S
C358 C352 1.504 . S
C359 O344 1.236 1_565 S
C359 O345 1.257 . S
H360 C333 0.932 . S
H361 C334 0.930 . S
H362 C335 0.936 1_545 S
H363 C336 0.929 1_545 S
H364 C354 0.932 . S
H365 C355 0.930 . S
H366 C356 0.926 1_565 S
H367 C357 0.929 1_565 S
Tb368 C377 2.764 . S
Tb368 O378 2.325 . S
Tb368 O381 2.303 . S
Tb368 O385 2.322 . S
Tb368 O386 2.349 . S
Tb368 O389 2.415 . S
Tb368 O390 2.399 . S
Tb369 O379 2.322 . S
Tb369 O380 2.349 . S
Tb369 O382 2.415 . S
Tb369 O383 2.399 . S
Tb369 O384 2.325 . S
Tb369 O387 2.303 . S
Tb369 C398 2.764 . S
C370 O386 1.261 . S
C370 O387 1.257 . S
C371 C374 1.358 . S
C371 C375 1.332 . S
C371 C377 1.504 . S
C372 C373 1.373 . S
C372 C376 1.308 . S
C373 C372 1.373 . S
C373 C374 1.429 1_554 S
C373 H400 0.932 . S
C374 C371 1.358 . S
C374 C373 1.429 1_556 S
C374 H401 0.930 . S
C375 C371 1.332 . S
C375 C376 1.394 1_556 S
C375 H402 0.932 . S
C376 C372 1.308 . S
C376 C375 1.394 1_554 S
C376 H403 0.929 . S
C377 Tb368 2.764 . S
C377 C371 1.504 . S
C377 O389 1.239 . S
C377 O390 1.263 . S
O378 Tb368 2.325 . S
O378 C388 1.236 . S
O379 Tb369 2.322 . S
O379 C388 1.257 . S
O380 Tb369 2.349 . S
O380 C391 1.261 . S
O381 Tb368 2.303 . S
O381 C391 1.257 . S
O382 Tb369 2.415 . S
O382 C398 1.239 . S
O383 Tb369 2.399 . S
O383 C398 1.263 . S
O384 Tb369 2.325 . S
O384 C399 1.236 . S
O385 Tb368 2.322 . S
O385 C399 1.257 . S
O386 Tb368 2.349 . S
O386 C370 1.261 . S
O387 Tb369 2.303 . S
O387 C370 1.257 . S
C388 O378 1.236 . S
C388 O379 1.257 . S
O389 Tb368 2.415 . S
O389 C377 1.239 . S
O390 Tb368 2.399 . S
O390 C377 1.263 . S
C391 O380 1.261 . S
C391 O381 1.257 . S
C392 C395 1.358 . S
C392 C396 1.332 . S
C392 C398 1.504 . S
C393 C394 1.373 . S
C393 C397 1.308 . S
C394 C393 1.373 . S
C394 C395 1.429 . S
C394 H404 0.932 . S
C395 C392 1.358 . S
C395 C394 1.429 . S
C395 H405 0.930 . S
C396 C392 1.332 . S
C396 C397 1.394 . S
C396 H406 0.932 . S
C397 C393 1.308 . S
C397 C396 1.394 . S
C397 H407 0.929 . S
C398 Tb369 2.764 . S
C398 O382 1.239 . S
C398 O383 1.263 . S
C398 C392 1.504 . S
C399 O384 1.236 . S
C399 O385 1.257 . S
H400 C373 0.932 . S
H401 C374 0.930 . S
H402 C375 0.932 . S
H403 C376 0.929 . S
H404 C394 0.932 . S
H405 C395 0.930 . S
H406 C396 0.932 . S
H407 C397 0.929 . S
Tb408 C417 2.764 . S
Tb408 O418 2.325 . S
Tb408 O421 2.303 . S
Tb408 O425 2.322 1_455 S
Tb408 O426 2.349 . S
Tb408 O429 2.415 . S
Tb408 O430 2.399 . S
Tb409 O419 2.322 1_655 S
Tb409 O420 2.349 1_655 S
Tb409 O422 2.415 . S
Tb409 O423 2.399 . S
Tb409 O424 2.325 . S
Tb409 O427 2.303 1_655 S
Tb409 C438 2.764 . S
C410 O426 1.261 . S
C410 O427 1.257 . S
C411 C414 1.358 . S
C411 C415 1.332 . S
C411 C417 1.504 . S
C412 C413 1.373 . S
C412 C416 1.308 . S
C413 C412 1.373 . S
C413 C414 1.429 . S
C413 H440 0.932 . S
C414 C411 1.358 . S
C414 C413 1.429 . S
C414 H441 0.930 . S
C415 C411 1.332 . S
C415 C416 1.394 . S
C415 H442 0.932 . S
C416 C412 1.308 . S
C416 C415 1.394 . S
C416 H443 0.929 . S
C417 Tb408 2.764 . S
C417 C411 1.504 . S
C417 O429 1.239 . S
C417 O430 1.263 . S
O418 Tb408 2.325 . S
O418 C428 1.236 . S
O419 Tb409 2.322 1_455 S
O419 C428 1.257 . S
O420 Tb409 2.349 1_455 S
O420 C431 1.261 . S
O421 Tb408 2.303 . S
O421 C431 1.257 . S
O422 Tb409 2.415 . S
O422 C438 1.239 . S
O423 Tb409 2.399 . S
O423 C438 1.263 . S
O424 Tb409 2.325 . S
O424 C439 1.236 . S
O425 Tb408 2.322 1_655 S
O425 C439 1.257 . S
O426 Tb408 2.349 . S
O426 C410 1.261 . S
O427 Tb409 2.303 1_455 S
O427 C410 1.257 . S
C428 O418 1.236 . S
C428 O419 1.257 . S
O429 Tb408 2.415 . S
O429 C417 1.239 . S
O430 Tb408 2.399 . S
O430 C417 1.263 . S
C431 O420 1.261 . S
C431 O421 1.257 . S
C432 C435 1.358 . S
C432 C436 1.332 . S
C432 C438 1.504 . S
C433 C434 1.373 1_554 S
C433 C437 1.308 1_554 S
C434 C433 1.373 1_556 S
C434 C435 1.429 . S
C434 H444 0.932 . S
C435 C432 1.358 . S
C435 C434 1.429 . S
C435 H445 0.930 . S
C436 C432 1.332 . S
C436 C437 1.394 . S
C436 H446 0.932 . S
C437 C433 1.308 1_556 S
C437 C436 1.394 . S
C437 H447 0.929 1_556 S
C438 Tb409 2.764 . S
C438 O422 1.239 . S
C438 O423 1.263 . S
C438 C432 1.504 . S
C439 O424 1.236 . S
C439 O425 1.257 . S
H440 C413 0.932 . S
H441 C414 0.930 . S
H442 C415 0.932 . S
H443 C416 0.929 . S
H444 C434 0.932 . S
H445 C435 0.930 . S
H446 C436 0.932 . S
H447 C437 0.929 1_554 S
C448 C449 1.391 . S
C448 C450 1.394 . S
C448 H464 0.931 . S
C449 C448 1.391 . S
C449 C453 1.376 1_545 S
C450 C448 1.394 . S
C450 C451 1.369 . S
C450 C454 1.531 . S
C451 C450 1.369 . S
C451 C452 1.410 1_545 S
C451 C459 1.503 . S
C452 C451 1.410 1_565 S
C452 C453 1.392 . S
C452 C455 1.511 . S
C453 C449 1.376 1_565 S
C453 C452 1.392 . S
C453 H465 0.929 . S
C454 C450 1.531 . S
C454 H466 0.960 . S
C454 H467 0.962 . S
C454 H468 0.960 . S
C455 C452 1.511 . S
C455 H469 0.961 . S
C455 H470 0.961 . S
C455 H471 0.961 . S
C456 C457 1.350 1_565 S
C456 C458 1.363 . S
C456 H472 0.931 . S
C457 C456 1.350 1_545 S
C457 C461 1.438 . S
C458 C456 1.363 . S
C458 C459 1.370 1_565 S
C458 C462 1.524 . S
C459 C451 1.503 . S
C459 C458 1.370 1_545 S
C459 C460 1.403 . S
C460 C459 1.403 . S
C460 C461 1.404 . S
C460 C463 1.539 . S
C461 C457 1.438 . S
C461 C460 1.404 . S
C461 H473 0.930 . S
C462 C458 1.524 . S
C462 H474 0.956 . S
C462 H475 0.961 . S
C462 H476 0.961 . S
C463 C460 1.539 . S
C463 H477 0.958 . S
C463 H478 0.961 . S
C463 H479 0.960 . S
H464 C448 0.931 . S
H465 C453 0.929 . S
H466 C454 0.960 . S
H467 C454 0.962 . S
H468 C454 0.960 . S
H469 C455 0.961 . S
H470 C455 0.961 . S
H471 C455 0.961 . S
H472 C456 0.931 . S
H473 C461 0.930 . S
H474 C462 0.956 . S
H475 C462 0.961 . S
H476 C462 0.961 . S
H477 C463 0.958 . S
H478 C463 0.961 . S
H479 C463 0.960 . S
C480 C481 1.391 . S
C480 C482 1.394 . S
C480 H496 0.931 . S
C481 C480 1.391 . S
C481 C485 1.376 . S
C482 C480 1.394 . S
C482 C483 1.369 . S
C482 C486 1.531 . S
C483 C482 1.369 . S
C483 C484 1.410 . S
C483 C491 1.503 . S
C484 C483 1.410 . S
C484 C485 1.392 . S
C484 C487 1.511 . S
C485 C481 1.376 . S
C485 C484 1.392 . S
C485 H497 0.929 . S
C486 C482 1.531 . S
C486 H498 0.960 . S
C486 H499 0.962 . S
C486 H500 0.960 . S
C487 C484 1.511 . S
C487 H501 0.961 . S
C487 H502 0.961 . S
C487 H503 0.961 . S
C488 C489 1.370 . S
C488 C490 1.363 . S
C488 H504 0.931 . S
C489 C488 1.370 . S
C489 C493 1.408 . S
C490 C488 1.363 . S
C490 C491 1.370 . S
C490 C494 1.524 . S
C491 C483 1.503 . S
C491 C490 1.370 . S
C491 C492 1.403 . S
C492 C491 1.403 . S
C492 C493 1.404 . S
C492 C495 1.539 . S
C493 C489 1.408 . S
C493 C492 1.404 . S
C493 H505 0.930 . S
C494 C490 1.524 . S
C494 H506 0.956 . S
C494 H507 0.961 . S
C494 H508 0.961 . S
C495 C492 1.539 . S
C495 H509 0.958 . S
C495 H510 0.961 . S
C495 H511 0.960 . S
H496 C480 0.931 . S
H497 C485 0.929 . S
H498 C486 0.960 . S
H499 C486 0.962 . S
H500 C486 0.960 . S
H501 C487 0.961 . S
H502 C487 0.961 . S
H503 C487 0.961 . S
H504 C488 0.931 . S
H505 C493 0.930 . S
H506 C494 0.956 . S
H507 C494 0.961 . S
H508 C494 0.961 . S
H509 C495 0.958 . S
H510 C495 0.961 . S
H511 C495 0.960 . S
C512 C513 1.391 . S
C512 C514 1.394 . S
C512 H528 0.931 . S
C513 C512 1.391 . S
C513 C517 1.376 . S
C514 C512 1.394 . S
C514 C515 1.369 . S
C514 C518 1.531 . S
C515 C514 1.369 . S
C515 C516 1.410 . S
C515 C523 1.503 . S
C516 C515 1.410 . S
C516 C517 1.392 . S
C516 C519 1.511 . S
C517 C513 1.376 . S
C517 C516 1.392 . S
C517 H529 0.929 . S
C518 C514 1.531 . S
C518 H530 0.960 . S
C518 H531 0.962 . S
C518 H532 0.960 . S
C519 C516 1.511 . S
C519 H533 0.961 . S
C519 H534 0.961 . S
C519 H535 0.961 . S
C520 C521 1.370 . S
C520 C522 1.363 . S
C520 H536 0.931 . S
C521 C520 1.370 . S
C521 C525 1.408 . S
C522 C520 1.363 . S
C522 C523 1.370 . S
C522 C526 1.524 . S
C523 C515 1.503 . S
C523 C522 1.370 . S
C523 C524 1.403 . S
C524 C523 1.403 . S
C524 C525 1.404 . S
C524 C527 1.539 . S
C525 C521 1.408 . S
C525 C524 1.404 . S
C525 H537 0.930 . S
C526 C522 1.524 . S
C526 H538 0.956 . S
C526 H539 0.961 . S
C526 H540 0.961 . S
C527 C524 1.539 . S
C527 H541 0.958 . S
C527 H542 0.961 . S
C527 H543 0.960 . S
H528 C512 0.931 . S
H529 C517 0.929 . S
H530 C518 0.960 . S
H531 C518 0.962 . S
H532 C518 0.960 . S
H533 C519 0.961 . S
H534 C519 0.961 . S
H535 C519 0.961 . S
H536 C520 0.931 . S
H537 C525 0.930 . S
H538 C526 0.956 . S
H539 C526 0.961 . S
H540 C526 0.961 . S
H541 C527 0.958 . S
H542 C527 0.961 . S
H543 C527 0.960 . S
C544 C545 1.391 . S
C544 C546 1.394 . S
C544 H560 0.931 . S
C545 C544 1.391 . S
C545 C549 1.376 . S
C546 C544 1.394 . S
C546 C547 1.369 . S
C546 C550 1.531 . S
C547 C546 1.369 . S
C547 C548 1.410 . S
C547 C555 1.503 . S
C548 C547 1.410 . S
C548 C549 1.392 . S
C548 C551 1.511 . S
C549 C545 1.376 . S
C549 C548 1.392 . S
C549 H561 0.929 . S
C550 C546 1.531 . S
C550 H562 0.960 . S
C550 H563 0.962 . S
C550 H564 0.960 . S
C551 C548 1.511 . S
C551 H565 0.961 . S
C551 H566 0.961 . S
C551 H567 0.961 . S
C552 C553 1.370 . S
C552 C554 1.363 . S
C552 H568 0.931 1_455 S
C553 C552 1.370 . S
C553 C557 1.408 . S
C554 C552 1.363 . S
C554 C555 1.370 . S
C554 C558 1.524 1_455 S
C555 C547 1.503 . S
C555 C554 1.370 . S
C555 C556 1.403 . S
C556 C555 1.403 . S
C556 C557 1.404 . S
C556 C559 1.539 . S
C557 C553 1.408 . S
C557 C556 1.404 . S
C557 H569 0.930 . S
C558 C554 1.524 1_655 S
C558 H570 0.956 . S
C558 H571 0.961 . S
C558 H572 0.961 . S
C559 C556 1.539 . S
C559 H573 0.958 . S
C559 H574 0.961 . S
C559 H575 0.960 . S
H560 C544 0.931 . S
H561 C549 0.929 . S
H562 C550 0.960 . S
H563 C550 0.962 . S
H564 C550 0.960 . S
H565 C551 0.961 . S
H566 C551 0.961 . S
H567 C551 0.961 . S
H568 C552 0.931 1_655 S
H569 C557 0.930 . S
H570 C558 0.956 . S
H571 C558 0.961 . S
H572 C558 0.961 . S
H573 C559 0.958 . S
H574 C559 0.961 . S
H575 C559 0.960 . S
C576 C577 1.412 . S
C576 C578 1.394 . S
C576 H592 0.931 . S
C577 C576 1.412 . S
C577 C581 1.352 1_565 S
C578 C576 1.394 . S
C578 C579 1.369 . S
C578 C582 1.531 . S
C579 C578 1.369 . S
C579 C580 1.410 1_565 S
C579 C587 1.503 . S
C580 C579 1.410 1_545 S
C580 C581 1.392 . S
C580 C583 1.511 . S
C581 C577 1.352 1_545 S
C581 C580 1.392 . S
C581 H593 0.929 . S
C582 C578 1.531 . S
C582 H594 0.960 . S
C582 H595 0.962 . S
C582 H596 0.960 . S
C583 C580 1.511 . S
C583 H597 0.961 . S
C583 H598 0.961 . S
C583 H599 0.961 . S
C584 C585 1.370 1_545 S
C584 C586 1.363 1_556 S
C584 H600 0.931 . S
C585 C584 1.370 1_565 S
C585 C589 1.410 . S
C586 C584 1.363 1_554 S
C586 C587 1.370 1_545 S
C586 C590 1.524 . S
C587 C579 1.503 . S
C587 C586 1.370 1_565 S
C587 C588 1.403 1_554 S
C588 C587 1.403 1_556 S
C588 C589 1.404 . S
C588 C591 1.539 . S
C589 C585 1.410 . S
C589 C588 1.404 . S
C589 H601 0.930 . S
C590 C586 1.524 . S
C590 H602 0.943 1_545 S
C590 H603 0.961 . S
C590 H604 0.961 . S
C591 C588 1.539 . S
C591 H605 0.958 . S
C591 H606 0.961 . S
C591 H607 0.960 1_556 S
H592 C576 0.931 . S
H593 C581 0.929 . S
H594 C582 0.960 . S
H595 C582 0.962 . S
H596 C582 0.960 . S
H597 C583 0.961 . S
H598 C583 0.961 . S
H599 C583 0.961 . S
H600 C584 0.931 . S
H601 C589 0.930 . S
H602 C590 0.943 1_565 S
H603 C590 0.961 . S
H604 C590 0.961 . S
H605 C591 0.958 . S
H606 C591 0.961 . S
H607 C591 0.960 1_554 S
C608 C609 1.391 . S
C608 C610 1.394 . S
C608 H624 0.931 . S
C609 C608 1.391 . S
C609 C613 1.376 . S
C610 C608 1.394 . S
C610 C611 1.369 . S
C610 C614 1.531 . S
C611 C610 1.369 . S
C611 C612 1.410 . S
C611 C619 1.503 . S
C612 C611 1.410 . S
C612 C613 1.392 . S
C612 C615 1.511 1_556 S
C613 C609 1.376 . S
C613 C612 1.392 . S
C613 H625 0.929 1_556 S
C614 C610 1.531 . S
C614 H626 0.960 . S
C614 H627 0.962 . S
C614 H628 0.960 . S
C615 C612 1.511 1_554 S
C615 H629 0.961 . S
C615 H630 0.961 1_554 S
C615 H631 0.961 . S
C616 C617 1.370 . S
C616 C618 1.363 . S
C616 H632 0.931 . S
C617 C616 1.370 . S
C617 C621 1.408 . S
C618 C616 1.363 . S
C618 C619 1.370 . S
C618 C622 1.524 . S
C619 C611 1.503 . S
C619 C618 1.370 . S
C619 C620 1.403 . S
C620 C619 1.403 . S
C620 C621 1.404 . S
C620 C623 1.539 . S
C621 C617 1.408 . S
C621 C620 1.404 . S
C621 H633 0.930 . S
C622 C618 1.524 . S
C622 H634 0.956 . S
C622 H635 0.961 . S
C622 H636 0.961 . S
C623 C620 1.539 . S
C623 H637 0.958 . S
C623 H638 0.961 . S
C623 H639 0.960 . S
H624 C608 0.931 . S
H625 C613 0.929 1_554 S
H626 C614 0.960 . S
H627 C614 0.962 . S
H628 C614 0.960 . S
H629 C615 0.961 . S
H630 C615 0.961 1_556 S
H631 C615 0.961 . S
H632 C616 0.931 . S
H633 C621 0.930 . S
H634 C622 0.956 . S
H635 C622 0.961 . S
H636 C622 0.961 . S
H637 C623 0.958 . S
H638 C623 0.961 . S
H639 C623 0.960 . S
C640 C641 1.391 . S
C640 C642 1.394 . S
C640 H656 0.931 . S
C641 C640 1.391 . S
C641 C645 1.376 . S
C642 C640 1.394 . S
C642 C643 1.369 . S
C642 C646 1.531 . S
C643 C642 1.369 . S
C643 C644 1.410 . S
C643 C651 1.503 . S
C644 C643 1.410 . S
C644 C645 1.392 . S
C644 C647 1.511 . S
C645 C641 1.376 . S
C645 C644 1.392 . S
C645 H657 0.929 . S
C646 C642 1.531 . S
C646 H658 0.960 . S
C646 H659 0.962 . S
C646 H660 0.960 . S
C647 C644 1.511 . S
C647 H661 0.961 . S
C647 H662 0.961 . S
C647 H663 0.961 . S
C648 C649 1.370 . S
C648 C650 1.363 1_556 S
C648 H664 0.931 . S
C649 C648 1.370 . S
C649 C653 1.408 . S
C650 C648 1.363 1_554 S
C650 C651 1.370 . S
C650 C654 1.524 . S
C651 C643 1.503 . S
C651 C650 1.370 . S
C651 C652 1.403 . S
C652 C651 1.403 . S
C652 C653 1.404 1_554 S
C652 C655 1.539 . S
C653 C649 1.408 . S
C653 C652 1.404 1_556 S
C653 H665 0.930 . S
C654 C650 1.524 . S
C654 H666 0.956 . S
C654 H667 0.961 . S
C654 H668 0.961 . S
C655 C652 1.539 . S
C655 H669 0.958 . S
C655 H670 0.961 . S
C655 H671 0.960 . S
H656 C640 0.931 . S
H657 C645 0.929 . S
H658 C646 0.960 . S
H659 C646 0.962 . S
H660 C646 0.960 . S
H661 C647 0.961 . S
H662 C647 0.961 . S
H663 C647 0.961 . S
H664 C648 0.931 . S
H665 C653 0.930 . S
H666 C654 0.956 . S
H667 C654 0.961 . S
H668 C654 0.961 . S
H669 C655 0.958 . S
H670 C655 0.961 . S
H671 C655 0.960 . S
C672 C673 1.370 1_455 S
C672 C674 1.397 . S
C672 H688 0.949 . S
C673 C672 1.370 1_655 S
C673 C677 1.376 . S
C674 C672 1.397 . S
C674 C675 1.369 1_455 S
C674 C678 1.531 . S
C675 C674 1.369 1_655 S
C675 C676 1.410 . S
C675 C683 1.503 . S
C676 C675 1.410 . S
C676 C677 1.392 . S
C676 C679 1.511 . S
C677 C673 1.376 . S
C677 C676 1.392 . S
C677 H689 0.929 . S
C678 C674 1.531 . S
C678 H690 0.960 . S
C678 H691 0.962 . S
C678 H692 0.960 . S
C679 C676 1.511 . S
C679 H693 0.961 . S
C679 H694 0.961 . S
C679 H695 0.961 . S
C680 C681 1.369 1_455 S
C680 C682 1.363 . S
C680 H696 0.931 . S
C681 C680 1.369 1_655 S
C681 C685 1.409 . S
C682 C680 1.363 . S
C682 C683 1.370 1_456 S
C682 C686 1.525 . S
C683 C675 1.503 . S
C683 C682 1.370 1_654 S
C683 C684 1.403 . S
C684 C683 1.403 . S
C684 C685 1.404 1_554 S
C684 C687 1.539 . S
C685 C681 1.409 . S
C685 C684 1.404 1_556 S
C685 H697 0.930 . S
C686 C682 1.525 . S
C686 H698 0.951 1_556 S
C686 H699 0.959 1_456 S
C686 H700 0.967 . S
C687 C684 1.539 . S
C687 H701 0.958 . S
C687 H702 0.961 . S
C687 H703 0.960 . S
H688 C672 0.949 . S
H689 C677 0.929 . S
H690 C678 0.960 . S
H691 C678 0.962 . S
H692 C678 0.960 . S
H693 C679 0.961 . S
H694 C679 0.961 . S
H695 C679 0.961 . S
H696 C680 0.931 . S
H697 C685 0.930 . S
H698 C686 0.951 1_554 S
H699 C686 0.959 1_654 S
H700 C686 0.967 . S
H701 C687 0.958 . S
H702 C687 0.961 . S
H703 C687 0.960 . S
C704 C705 1.391 . S
C704 C706 1.394 . S
C704 H720 0.931 . S
C705 C704 1.391 . S
C705 C709 1.376 . S
C706 C704 1.394 . S
C706 C707 1.369 . S
C706 C710 1.531 . S
C707 C706 1.369 . S
C707 C708 1.410 . S
C707 C715 1.503 . S
C708 C707 1.410 . S
C708 C709 1.392 . S
C708 C711 1.511 1_455 S
C709 C705 1.376 . S
C709 C708 1.392 . S
C709 H721 0.929 . S
C710 C706 1.531 . S
C710 H722 0.960 . S
C710 H723 0.962 . S
C710 H724 0.960 . S
C711 C708 1.511 1_655 S
C711 H725 0.961 . S
C711 H726 0.961 . S
C711 H727 0.961 . S
C712 C713 1.370 . S
C712 C714 1.363 . S
C712 H728 0.931 . S
C713 C712 1.370 . S
C713 C717 1.408 . S
C714 C712 1.363 . S
C714 C715 1.370 1_655 S
C714 C718 1.524 . S
C715 C707 1.503 . S
C715 C714 1.370 1_455 S
C715 C716 1.403 . S
C716 C715 1.403 . S
C716 C717 1.404 1_455 S
C716 C719 1.539 . S
C717 C713 1.408 . S
C717 C716 1.404 1_655 S
C717 H729 0.930 . S
C718 C714 1.524 . S
C718 H730 0.956 1_655 S
C718 H731 0.961 . S
C718 H732 0.961 . S
C719 C716 1.539 . S
C719 H733 0.958 . S
C719 H734 0.961 . S
C719 H735 0.960 . S
H720 C704 0.931 . S
H721 C709 0.929 . S
H722 C710 0.960 . S
H723 C710 0.962 . S
H724 C710 0.960 . S
H725 C711 0.961 . S
H726 C711 0.961 . S
H727 C711 0.961 . S
H728 C712 0.931 . S
H729 C717 0.930 . S
H730 C718 0.956 1_455 S
H731 C718 0.961 . S
H732 C718 0.961 . S
H733 C719 0.958 . S
H734 C719 0.961 . S
H735 C719 0.960 . S
C736 C737 1.391 1_565 S
C736 C738 1.394 . S
C736 H752 0.931 . S
C737 C736 1.391 1_545 S
C737 C741 1.376 . S
C738 C736 1.394 . S
C738 C739 1.369 . S
C738 C742 1.531 . S
C739 C738 1.369 . S
C739 C740 1.410 1_565 S
C739 C747 1.503 . S
C740 C739 1.410 1_545 S
C740 C741 1.392 . S
C740 C743 1.511 . S
C741 C737 1.376 . S
C741 C740 1.392 . S
C741 H753 0.929 . S
C742 C738 1.531 . S
C742 H754 0.960 . S
C742 H755 0.962 . S
C742 H756 0.960 . S
C743 C740 1.511 . S
C743 H757 0.961 . S
C743 H758 0.961 . S
C743 H759 0.961 . S
C744 C745 1.370 . S
C744 C746 1.363 . S
C744 H760 0.931 . S
C745 C744 1.370 . S
C745 C749 1.408 . S
C746 C744 1.363 . S
C746 C747 1.370 . S
C746 C750 1.524 1_565 S
C747 C739 1.503 . S
C747 C746 1.370 . S
C747 C748 1.403 . S
C748 C747 1.403 . S
C748 C749 1.404 . S
C748 C751 1.539 . S
C749 C745 1.408 . S
C749 C748 1.404 . S
C749 H761 0.930 . S
C750 C746 1.524 1_545 S
C750 H762 0.956 . S
C750 H763 0.961 . S
C750 H764 0.961 . S
C751 C748 1.539 . S
C751 H765 0.958 . S
C751 H766 0.961 . S
C751 H767 0.960 . S
H752 C736 0.931 . S
H753 C741 0.929 . S
H754 C742 0.960 . S
H755 C742 0.962 . S
H756 C742 0.960 . S
H757 C743 0.961 . S
H758 C743 0.961 . S
H759 C743 0.961 . S
H760 C744 0.931 . S
H761 C749 0.930 . S
H762 C750 0.956 . S
H763 C750 0.961 . S
H764 C750 0.961 . S
H765 C751 0.958 . S
H766 C751 0.961 . S
H767 C751 0.960 . S
C768 C769 1.391 . S
C768 C770 1.394 . S
C768 H784 0.931 . S
C769 C768 1.391 . S
C769 C773 1.376 . S
C770 C768 1.394 . S
C770 C771 1.369 . S
C770 C774 1.531 . S
C771 C770 1.369 . S
C771 C772 1.410 . S
C771 C779 1.503 . S
C772 C771 1.410 . S
C772 C773 1.392 . S
C772 C775 1.511 . S
C773 C769 1.376 . S
C773 C772 1.392 . S
C773 H785 0.929 . S
C774 C770 1.531 . S
C774 H786 0.960 . S
C774 H787 0.962 . S
C774 H788 0.960 . S
C775 C772 1.511 . S
C775 H789 0.961 . S
C775 H790 0.961 . S
C775 H791 0.961 . S
C776 C777 1.370 . S
C776 C778 1.363 . S
C776 H792 0.931 . S
C777 C776 1.370 . S
C777 C781 1.408 . S
C778 C776 1.363 . S
C778 C779 1.370 . S
C778 C782 1.524 . S
C779 C771 1.503 . S
C779 C778 1.370 . S
C779 C780 1.403 . S
C780 C779 1.403 . S
C780 C781 1.404 . S
C780 C783 1.539 . S
C781 C777 1.408 . S
C781 C780 1.404 . S
C781 H793 0.930 . S
C782 C778 1.524 . S
C782 H794 0.956 . S
C782 H795 0.961 . S
C782 H796 0.961 . S
C783 C780 1.539 . S
C783 H797 0.958 . S
C783 H798 0.961 . S
C783 H799 0.960 . S
H784 C768 0.931 . S
H785 C773 0.929 . S
H786 C774 0.960 . S
H787 C774 0.962 . S
H788 C774 0.960 . S
H789 C775 0.961 . S
H790 C775 0.961 . S
H791 C775 0.961 . S
H792 C776 0.931 . S
H793 C781 0.930 . S
H794 C782 0.956 . S
H795 C782 0.961 . S
H796 C782 0.961 . S
H797 C783 0.958 . S
H798 C783 0.961 . S
H799 C783 0.960 . S
C800 C801 1.391 . S
C800 C802 1.394 . S
C800 H816 0.931 . S
C801 C800 1.391 . S
C801 C805 1.376 . S
C802 C800 1.394 . S
C802 C803 1.369 . S
C802 C806 1.531 . S
C803 C802 1.369 . S
C803 C804 1.410 . S
C803 C811 1.503 . S
C804 C803 1.410 . S
C804 C805 1.392 . S
C804 C807 1.511 . S
C805 C801 1.376 . S
C805 C804 1.392 . S
C805 H817 0.929 . S
C806 C802 1.531 . S
C806 H818 0.960 . S
C806 H819 0.962 . S
C806 H820 0.960 . S
C807 C804 1.511 . S
C807 H821 0.961 . S
C807 H822 0.961 . S
C807 H823 0.961 . S
C808 C809 1.370 . S
C808 C810 1.363 . S
C808 H824 0.931 . S
C809 C808 1.370 . S
C809 C813 1.408 . S
C810 C808 1.363 . S
C810 C811 1.370 . S
C810 C814 1.524 . S
C811 C803 1.503 . S
C811 C810 1.370 . S
C811 C812 1.403 . S
C812 C811 1.403 . S
C812 C813 1.404 . S
C812 C815 1.539 . S
C813 C809 1.408 . S
C813 C812 1.404 . S
C813 H825 0.930 . S
C814 C810 1.524 . S
C814 H826 0.956 . S
C814 H827 0.961 . S
C814 H828 0.961 . S
C815 C812 1.539 . S
C815 H829 0.958 . S
C815 H830 0.961 . S
C815 H831 0.960 . S
H816 C800 0.931 . S
H817 C805 0.929 . S
H818 C806 0.960 . S
H819 C806 0.962 . S
H820 C806 0.960 . S
H821 C807 0.961 . S
H822 C807 0.961 . S
H823 C807 0.961 . S
H824 C808 0.931 . S
H825 C813 0.930 . S
H826 C814 0.956 . S
H827 C814 0.961 . S
H828 C814 0.961 . S
H829 C815 0.958 . S
H830 C815 0.961 . S
H831 C815 0.960 . S
C832 C833 1.428 . S
C832 C834 1.375 1_655 S
C832 H848 0.914 1_655 S
C833 C832 1.428 . S
C833 C837 1.376 . S
C834 C832 1.375 1_455 S
C834 C835 1.366 1_455 S
C834 C838 1.531 . S
C835 C834 1.366 1_655 S
C835 C836 1.415 . S
C835 C843 1.500 1_655 S
C836 C835 1.415 . S
C836 C837 1.392 . S
C836 C839 1.511 . S
C837 C833 1.376 . S
C837 C836 1.392 . S
C837 H849 0.929 . S
C838 C834 1.531 . S
C838 H850 0.960 1_554 S
C838 H851 0.962 . S
C838 H852 0.960 . S
C839 C836 1.511 . S
C839 H853 0.961 . S
C839 H854 0.961 . S
C839 H855 0.961 . S
C840 C841 1.370 1_554 S
C840 C842 1.363 . S
C840 H856 0.931 . S
C841 C840 1.370 1_556 S
C841 C845 1.408 . S
C842 C840 1.363 . S
C842 C843 1.370 . S
C842 C846 1.524 . S
C843 C835 1.500 1_455 S
C843 C842 1.370 . S
C843 C844 1.403 1_554 S
C844 C843 1.403 1_556 S
C844 C845 1.404 . S
C844 C847 1.539 1_455 S
C845 C841 1.408 . S
C845 C844 1.404 . S
C845 H857 0.930 . S
C846 C842 1.524 . S
C846 H858 0.956 . S
C846 H859 0.961 . S
C846 H860 0.961 . S
C847 C844 1.539 1_655 S
C847 H861 0.958 1_655 S
C847 H862 0.961 . S
C847 H863 0.960 . S
H848 C832 0.914 1_455 S
H849 C837 0.929 . S
H850 C838 0.960 1_556 S
H851 C838 0.962 . S
H852 C838 0.960 . S
H853 C839 0.961 . S
H854 C839 0.961 . S
H855 C839 0.961 . S
H856 C840 0.931 . S
H857 C845 0.930 . S
H858 C846 0.956 . S
H859 C846 0.961 . S
H860 C846 0.961 . S
H861 C847 0.958 1_455 S
H862 C847 0.961 . S
H863 C847 0.960 . S
C864 C865 1.391 . S
C864 C866 1.394 . S
C864 H880 0.931 . S
C865 C864 1.391 . S
C865 C869 1.376 1_565 S
C866 C864 1.394 . S
C866 C867 1.369 1_565 S
C866 C870 1.531 . S
C867 C866 1.369 1_545 S
C867 C868 1.410 . S
C867 C875 1.503 . S
C868 C867 1.410 . S
C868 C869 1.392 . S
C868 C871 1.511 . S
C869 C865 1.376 1_545 S
C869 C868 1.392 . S
C869 H881 0.929 . S
C870 C866 1.531 . S
C870 H882 0.960 . S
C870 H883 0.962 . S
C870 H884 0.960 . S
C871 C868 1.511 . S
C871 H885 0.961 . S
C871 H886 0.961 . S
C871 H887 0.961 . S
C872 C873 1.370 . S
C872 C874 1.363 . S
C872 H888 0.931 1_554 S
C873 C872 1.370 . S
C873 C877 1.408 . S
C874 C872 1.363 . S
C874 C875 1.370 . S
C874 C878 1.524 . S
C875 C867 1.503 . S
C875 C874 1.370 . S
C875 C876 1.403 . S
C876 C875 1.403 . S
C876 C877 1.404 . S
C876 C879 1.547 . S
C877 C873 1.408 . S
C877 C876 1.404 . S
C877 H889 0.930 . S
C878 C874 1.524 . S
C878 H890 0.956 1_554 S
C878 H891 0.961 . S
C878 H892 0.961 1_554 S
C879 C876 1.547 . S
C879 H893 0.943 1_545 S
C879 H894 0.967 . S
C879 H895 0.962 . S
H880 C864 0.931 . S
H881 C869 0.929 . S
H882 C870 0.960 . S
H883 C870 0.962 . S
H884 C870 0.960 . S
H885 C871 0.961 . S
H886 C871 0.961 . S
H887 C871 0.961 . S
H888 C872 0.931 1_556 S
H889 C877 0.930 . S
H890 C878 0.956 1_556 S
H891 C878 0.961 . S
H892 C878 0.961 1_556 S
H893 C879 0.943 1_565 S
H894 C879 0.967 . S
H895 C879 0.962 . S
C896 C897 1.391 . S
C896 C898 1.394 . S
C896 H912 0.931 . S
C897 C896 1.391 . S
C897 C901 1.376 . S
C898 C896 1.394 . S
C898 C899 1.369 . S
C898 C902 1.531 . S
C899 C898 1.369 . S
C899 C900 1.410 . S
C899 C907 1.503 . S
C900 C899 1.410 . S
C900 C901 1.392 . S
C900 C903 1.511 . S
C901 C897 1.376 . S
C901 C900 1.392 . S
C901 H913 0.929 . S
C902 C898 1.531 . S
C902 H914 0.960 . S
C902 H915 0.962 . S
C902 H916 0.960 . S
C903 C900 1.511 . S
C903 H917 0.961 . S
C903 H918 0.961 . S
C903 H919 0.961 . S
C904 C905 1.370 . S
C904 C906 1.363 . S
C904 H920 0.931 . S
C905 C904 1.370 . S
C905 C909 1.408 . S
C906 C904 1.363 . S
C906 C907 1.370 . S
C906 C910 1.524 . S
C907 C899 1.503 . S
C907 C906 1.370 . S
C907 C908 1.403 . S
C908 C907 1.403 . S
C908 C909 1.404 . S
C908 C911 1.539 . S
C909 C905 1.408 . S
C909 C908 1.404 . S
C909 H921 0.930 . S
C910 C906 1.524 . S
C910 H922 0.956 . S
C910 H923 0.961 . S
C910 H924 0.961 . S
C911 C908 1.539 . S
C911 H925 0.958 . S
C911 H926 0.961 . S
C911 H927 0.960 . S
H912 C896 0.931 . S
H913 C901 0.929 . S
H914 C902 0.960 . S
H915 C902 0.962 . S
H916 C902 0.960 . S
H917 C903 0.961 . S
H918 C903 0.961 . S
H919 C903 0.961 . S
H920 C904 0.931 . S
H921 C909 0.930 . S
H922 C910 0.956 . S
H923 C910 0.961 . S
H924 C910 0.961 . S
H925 C911 0.958 . S
H926 C911 0.961 . S
H927 C911 0.960 . S
C928 C929 1.391 . S
C928 C930 1.394 . S
C928 H944 0.931 . S
C929 C928 1.391 . S
C929 C933 1.376 . S
C930 C928 1.394 . S
C930 C931 1.369 . S
C930 C934 1.531 . S
C931 C930 1.369 . S
C931 C932 1.410 . S
C931 C939 1.503 . S
C932 C931 1.410 . S
C932 C933 1.392 . S
C932 C935 1.511 . S
C933 C929 1.376 . S
C933 C932 1.392 . S
C933 H945 0.929 . S
C934 C930 1.531 . S
C934 H946 0.960 . S
C934 H947 0.962 . S
C934 H948 0.960 . S
C935 C932 1.511 . S
C935 H949 0.961 . S
C935 H950 0.961 . S
C935 H951 0.961 . S
C936 C937 1.370 1_556 S
C936 C938 1.363 1_556 S
C936 H952 0.931 . S
C937 C936 1.370 1_554 S
C937 C941 1.408 . S
C938 C936 1.363 1_554 S
C938 C939 1.370 . S
C938 C942 1.524 1_554 S
C939 C931 1.503 . S
C939 C938 1.370 . S
C939 C940 1.403 . S
C940 C939 1.403 . S
C940 C941 1.404 . S
C940 C943 1.539 . S
C941 C937 1.408 . S
C941 C940 1.404 . S
C941 H953 0.930 . S
C942 C938 1.524 1_556 S
C942 H954 0.956 1_556 S
C942 H955 0.962 . S
C942 H956 0.961 . S
C943 C940 1.539 . S
C943 H957 0.958 . S
C943 H958 0.961 . S
C943 H959 0.960 . S
H944 C928 0.931 . S
H945 C933 0.929 . S
H946 C934 0.960 . S
H947 C934 0.962 . S
H948 C934 0.960 . S
H949 C935 0.961 . S
H950 C935 0.961 . S
H951 C935 0.961 . S
H952 C936 0.931 . S
H953 C941 0.930 . S
H954 C942 0.956 1_554 S
H955 C942 0.962 . S
H956 C942 0.961 . S
H957 C943 0.958 . S
H958 C943 0.961 . S
H959 C943 0.960 . S
C960 C961 1.391 . S
C960 C962 1.394 . S
C960 H976 0.931 . S
C961 C960 1.391 . S
C961 C965 1.376 . S
C962 C960 1.394 . S
C962 C963 1.369 . S
C962 C966 1.533 1_455 S
C963 C962 1.369 . S
C963 C964 1.410 . S
C963 C971 1.503 . S
C964 C963 1.410 . S
C964 C965 1.392 . S
C964 C967 1.511 . S
C965 C961 1.376 . S
C965 C964 1.392 . S
C965 H977 0.929 . S
C966 C962 1.533 1_655 S
C966 H978 0.961 1_655 S
C966 H979 0.960 . S
C966 H980 0.959 . S
C967 C964 1.511 . S
C967 H981 0.961 . S
C967 H982 0.961 . S
C967 H983 0.961 . S
C968 C969 1.370 . S
C968 C970 1.363 . S
C968 H984 0.931 . S
C969 C968 1.370 . S
C969 C973 1.408 . S
C970 C968 1.363 . S
C970 C971 1.370 . S
C970 C974 1.524 . S
C971 C963 1.503 . S
C971 C970 1.370 . S
C971 C972 1.403 . S
C972 C971 1.403 . S
C972 C973 1.404 . S
C972 C975 1.539 . S
C973 C969 1.408 . S
C973 C972 1.404 . S
C973 H985 0.930 . S
C974 C970 1.524 . S
C974 H986 0.956 . S
C974 H987 0.959 1_556 S
C974 H988 0.961 1_556 S
C975 C972 1.539 . S
C975 H989 0.958 . S
C975 H990 0.961 . S
C975 H991 0.960 . S
H976 C960 0.931 . S
H977 C965 0.929 . S
H978 C966 0.961 1_455 S
H979 C966 0.960 . S
H980 C966 0.959 . S
H981 C967 0.961 . S
H982 C967 0.961 . S
H983 C967 0.961 . S
H984 C968 0.931 . S
H985 C973 0.930 . S
H986 C974 0.956 . S
H987 C974 0.959 1_554 S
H988 C974 0.961 1_554 S
H989 C975 0.958 . S
H990 C975 0.961 . S
H991 C975 0.960 . S
C992 C993 1.391 . S
C992 C994 1.394 . S
C992 H1008 0.931 . S
C993 C992 1.391 . S
C993 C997 1.376 . S
C994 C992 1.394 . S
C994 C995 1.369 . S
C994 C998 1.531 . S
C995 C994 1.369 . S
C995 C996 1.410 . S
C995 C1003 1.503 . S
C996 C995 1.410 . S
C996 C997 1.392 . S
C996 C999 1.511 . S
C997 C993 1.376 . S
C997 C996 1.392 . S
C997 H1009 0.929 . S
C998 C994 1.531 . S
C998 H1010 0.960 . S
C998 H1011 0.962 1_545 S
C998 H1012 0.960 . S
C999 C996 1.511 . S
C999 H1013 0.961 1_546 S
C999 H1014 0.961 1_545 S
C999 H1015 0.961 1_556 S
C1000 C1001 1.370 1_565 S
C1000 C1002 1.363 . S
C1000 H1016 0.931 . S
C1001 C1000 1.370 1_545 S
C1001 C1005 1.408 . S
C1002 C1000 1.363 . S
C1002 C1003 1.370 1_565 S
C1002 C1006 1.524 . S
C1003 C995 1.503 . S
C1003 C1002 1.370 1_545 S
C1003 C1004 1.403 . S
C1004 C1003 1.403 . S
C1004 C1005 1.404 . S
C1004 C1007 1.539 . S
C1005 C1001 1.408 . S
C1005 C1004 1.404 . S
C1005 H1017 0.930 . S
C1006 C1002 1.524 . S
C1006 H1018 0.956 . S
C1006 H1019 0.961 . S
C1006 H1020 0.961 . S
C1007 C1004 1.539 . S
C1007 H1021 0.958 . S
C1007 H1022 0.961 . S
C1007 H1023 0.960 . S
H1008 C992 0.931 . S
H1009 C997 0.929 . S
H1010 C998 0.960 . S
H1011 C998 0.962 1_565 S
H1012 C998 0.960 . S
H1013 C999 0.961 1_564 S
H1014 C999 0.961 1_565 S
H1015 C999 0.961 1_554 S
H1016 C1000 0.931 . S
H1017 C1005 0.930 . S
H1018 C1006 0.956 . S
H1019 C1006 0.961 . S
H1020 C1006 0.961 . S
H1021 C1007 0.958 . S
H1022 C1007 0.961 . S
H1023 C1007 0.960 . S
C1024 C1025 1.391 . S
C1024 C1026 1.394 . S
C1024 H1040 0.931 . S
C1025 C1024 1.391 . S
C1025 C1029 1.376 . S
C1026 C1024 1.394 . S
C1026 C1027 1.369 . S
C1026 C1030 1.531 . S
C1027 C1026 1.369 . S
C1027 C1028 1.410 . S
C1027 C1035 1.503 . S
C1028 C1027 1.410 . S
C1028 C1029 1.392 . S
C1028 C1031 1.511 . S
C1029 C1025 1.376 . S
C1029 C1028 1.392 . S
C1029 H1041 0.929 . S
C1030 C1026 1.531 . S
C1030 H1042 0.960 . S
C1030 H1043 0.962 . S
C1030 H1044 0.960 . S
C1031 C1028 1.511 . S
C1031 H1045 0.961 . S
C1031 H1046 0.961 . S
C1031 H1047 0.961 . S
C1032 C1033 1.370 . S
C1032 C1034 1.363 . S
C1032 H1048 0.931 . S
C1033 C1032 1.370 . S
C1033 C1037 1.408 . S
C1034 C1032 1.363 . S
C1034 C1035 1.370 . S
C1034 C1038 1.524 . S
C1035 C1027 1.503 . S
C1035 C1034 1.370 . S
C1035 C1036 1.403 . S
C1036 C1035 1.403 . S
C1036 C1037 1.404 . S
C1036 C1039 1.539 . S
C1037 C1033 1.408 . S
C1037 C1036 1.404 . S
C1037 H1049 0.930 . S
C1038 C1034 1.524 . S
C1038 H1050 0.956 . S
C1038 H1051 0.961 . S
C1038 H1052 0.961 . S
C1039 C1036 1.539 . S
C1039 H1053 0.958 . S
C1039 H1054 0.961 . S
C1039 H1055 0.960 . S
H1040 C1024 0.931 . S
H1041 C1029 0.929 . S
H1042 C1030 0.960 . S
H1043 C1030 0.962 . S
H1044 C1030 0.960 . S
H1045 C1031 0.961 . S
H1046 C1031 0.961 . S
H1047 C1031 0.961 . S
H1048 C1032 0.931 . S
H1049 C1037 0.930 . S
H1050 C1038 0.956 . S
H1051 C1038 0.961 . S
H1052 C1038 0.961 . S
H1053 C1039 0.958 . S
H1054 C1039 0.961 . S
H1055 C1039 0.960 . S
C1056 C1057 1.391 . S
C1056 C1058 1.394 . S
C1056 H1072 0.931 . S
C1057 C1056 1.391 . S
C1057 C1061 1.376 . S
C1058 C1056 1.394 . S
C1058 C1059 1.369 . S
C1058 C1062 1.531 . S
C1059 C1058 1.369 . S
C1059 C1060 1.410 . S
C1059 C1067 1.503 . S
C1060 C1059 1.410 . S
C1060 C1061 1.392 . S
C1060 C1063 1.511 . S
C1061 C1057 1.376 . S
C1061 C1060 1.392 . S
C1061 H1073 0.929 . S
C1062 C1058 1.531 . S
C1062 H1074 0.960 . S
C1062 H1075 0.962 . S
C1062 H1076 0.960 . S
C1063 C1060 1.511 . S
C1063 H1077 0.961 . S
C1063 H1078 0.961 . S
C1063 H1079 0.961 1_556 S
C1064 C1065 1.370 . S
C1064 C1066 1.363 . S
C1064 H1080 0.931 . S
C1065 C1064 1.370 . S
C1065 C1069 1.408 . S
C1066 C1064 1.363 . S
C1066 C1067 1.370 . S
C1066 C1070 1.524 . S
C1067 C1059 1.503 . S
C1067 C1066 1.370 . S
C1067 C1068 1.403 . S
C1068 C1067 1.403 . S
C1068 C1069 1.404 . S
C1068 C1071 1.539 . S
C1069 C1065 1.408 . S
C1069 C1068 1.404 . S
C1069 H1081 0.930 . S
C1070 C1066 1.524 . S
C1070 H1082 0.956 . S
C1070 H1083 0.961 . S
C1070 H1084 0.961 . S
C1071 C1068 1.539 . S
C1071 H1085 0.958 . S
C1071 H1086 0.961 . S
C1071 H1087 0.960 . S
H1072 C1056 0.931 . S
H1073 C1061 0.929 . S
H1074 C1062 0.960 . S
H1075 C1062 0.962 . S
H1076 C1062 0.960 . S
H1077 C1063 0.961 . S
H1078 C1063 0.961 . S
H1079 C1063 0.961 1_554 S
H1080 C1064 0.931 . S
H1081 C1069 0.930 . S
H1082 C1070 0.956 . S
H1083 C1070 0.961 . S
H1084 C1070 0.961 . S
H1085 C1071 0.958 . S
H1086 C1071 0.961 . S
H1087 C1071 0.960 . S
C1088 C1089 1.378 1_455 S
C1088 C1090 1.396 . S
C1088 H1104 0.942 . S
C1089 C1088 1.378 1_655 S
C1089 C1093 1.376 . S
C1090 C1088 1.396 . S
C1090 C1091 1.369 1_455 S
C1090 C1094 1.531 . S
C1091 C1090 1.369 1_655 S
C1091 C1092 1.410 . S
C1091 C1099 1.503 . S
C1092 C1091 1.410 . S
C1092 C1093 1.392 . S
C1092 C1095 1.511 . S
C1093 C1089 1.376 . S
C1093 C1092 1.392 . S
C1093 H1105 0.929 . S
C1094 C1090 1.531 . S
C1094 H1106 0.960 . S
C1094 H1107 0.962 . S
C1094 H1108 0.960 . S
C1095 C1092 1.511 . S
C1095 H1109 0.961 . S
C1095 H1110 0.961 . S
C1095 H1111 0.961 . S
C1096 C1097 1.370 . S
C1096 C1098 1.363 . S
C1096 H1112 0.931 . S
C1097 C1096 1.370 . S
C1097 C1101 1.408 1_655 S
C1098 C1096 1.363 . S
C1098 C1099 1.370 . S
C1098 C1102 1.524 . S
C1099 C1091 1.503 . S
C1099 C1098 1.370 . S
C1099 C1100 1.403 1_655 S
C1100 C1099 1.403 1_455 S
C1100 C1101 1.404 . S
C1100 C1103 1.539 . S
C1101 C1097 1.408 1_455 S
C1101 C1100 1.404 . S
C1101 H1113 0.930 . S
C1102 C1098 1.524 . S
C1102 H1114 0.956 . S
C1102 H1115 0.961 . S
C1102 H1116 0.961 . S
C1103 C1100 1.539 . S
C1103 H1117 0.958 . S
C1103 H1118 0.961 . S
C1103 H1119 0.960 . S
H1104 C1088 0.942 . S
H1105 C1093 0.929 . S
H1106 C1094 0.960 . S
H1107 C1094 0.962 . S
H1108 C1094 0.960 . S
H1109 C1095 0.961 . S
H1110 C1095 0.961 . S
H1111 C1095 0.961 . S
H1112 C1096 0.931 . S
H1113 C1101 0.930 . S
H1114 C1102 0.956 . S
H1115 C1102 0.961 . S
H1116 C1102 0.961 . S
H1117 C1103 0.958 . S
H1118 C1103 0.961 . S
H1119 C1103 0.960 . S
C1120 C1121 1.393 . S
C1120 C1122 1.394 . S
C1120 H1136 0.931 . S
C1121 C1120 1.393 . S
C1121 C1125 1.383 1_545 S
C1122 C1120 1.394 . S
C1122 C1123 1.369 . S
C1122 C1126 1.531 . S
C1123 C1122 1.369 . S
C1123 C1124 1.409 . S
C1123 C1131 1.510 . S
C1124 C1123 1.409 . S
C1124 C1125 1.392 1_545 S
C1124 C1127 1.511 1_545 S
C1125 C1121 1.383 1_565 S
C1125 C1124 1.392 1_565 S
C1125 H1137 0.930 . S
C1126 C1122 1.531 . S
C1126 H1138 0.960 . S
C1126 H1139 0.962 1_545 S
C1126 H1140 0.960 . S
C1127 C1124 1.511 1_565 S
C1127 H1141 0.961 . S
C1127 H1142 0.961 . S
C1127 H1143 0.961 1_565 S
C1128 C1129 1.370 . S
C1128 C1130 1.363 . S
C1128 H1144 0.931 . S
C1129 C1128 1.370 . S
C1129 C1133 1.408 1_565 S
C1130 C1128 1.363 . S
C1130 C1131 1.323 1_565 S
C1130 C1134 1.524 . S
C1131 C1123 1.510 . S
C1131 C1130 1.323 1_545 S
C1131 C1132 1.445 . S
C1132 C1131 1.445 . S
C1132 C1133 1.404 . S
C1132 C1135 1.539 . S
C1133 C1129 1.408 1_545 S
C1133 C1132 1.404 . S
C1133 H1145 0.930 . S
C1134 C1130 1.524 . S
C1134 H1146 0.956 . S
C1134 H1147 0.961 . S
C1134 H1148 0.961 . S
C1135 C1132 1.539 . S
C1135 H1149 0.958 . S
C1135 H1150 0.961 . S
C1135 H1151 0.960 . S
H1136 C1120 0.931 . S
H1137 C1125 0.930 . S
H1138 C1126 0.960 . S
H1139 C1126 0.962 1_565 S
H1140 C1126 0.960 . S
H1141 C1127 0.961 . S
H1142 C1127 0.961 . S
H1143 C1127 0.961 1_545 S
H1144 C1128 0.931 . S
H1145 C1133 0.930 . S
H1146 C1134 0.956 . S
H1147 C1134 0.961 . S
H1148 C1134 0.961 . S
H1149 C1135 0.958 . S
H1150 C1135 0.961 . S
H1151 C1135 0.960 . S
C1152 C1153 1.391 . S
C1152 C1154 1.394 . S
C1152 H1168 0.931 . S
C1153 C1152 1.391 . S
C1153 C1157 1.376 . S
C1154 C1152 1.394 . S
C1154 C1155 1.369 . S
C1154 C1158 1.531 . S
C1155 C1154 1.369 . S
C1155 C1156 1.410 . S
C1155 C1163 1.503 . S
C1156 C1155 1.410 . S
C1156 C1157 1.392 . S
C1156 C1159 1.511 . S
C1157 C1153 1.376 . S
C1157 C1156 1.392 . S
C1157 H1169 0.929 . S
C1158 C1154 1.531 . S
C1158 H1170 0.960 . S
C1158 H1171 0.962 . S
C1158 H1172 0.960 . S
C1159 C1156 1.511 . S
C1159 H1173 0.961 . S
C1159 H1174 0.961 . S
C1159 H1175 0.961 . S
C1160 C1161 1.370 . S
C1160 C1162 1.363 . S
C1160 H1176 0.931 . S
C1161 C1160 1.370 . S
C1161 C1165 1.408 . S
C1162 C1160 1.363 . S
C1162 C1163 1.370 . S
C1162 C1166 1.524 . S
C1163 C1155 1.503 . S
C1163 C1162 1.370 . S
C1163 C1164 1.403 . S
C1164 C1163 1.403 . S
C1164 C1165 1.404 . S
C1164 C1167 1.539 . S
C1165 C1161 1.408 . S
C1165 C1164 1.404 . S
C1165 H1177 0.930 . S
C1166 C1162 1.524 . S
C1166 H1178 0.956 . S
C1166 H1179 0.961 . S
C1166 H1180 0.961 . S
C1167 C1164 1.539 . S
C1167 H1181 0.958 . S
C1167 H1182 0.961 . S
C1167 H1183 0.960 . S
H1168 C1152 0.931 . S
H1169 C1157 0.929 . S
H1170 C1158 0.960 . S
H1171 C1158 0.962 . S
H1172 C1158 0.960 . S
H1173 C1159 0.961 . S
H1174 C1159 0.961 . S
H1175 C1159 0.961 . S
H1176 C1160 0.931 . S
H1177 C1165 0.930 . S
H1178 C1166 0.956 . S
H1179 C1166 0.961 . S
H1180 C1166 0.961 . S
H1181 C1167 0.958 . S
H1182 C1167 0.961 . S
H1183 C1167 0.960 . S
C1184 C1185 1.391 . S
C1184 C1186 1.394 . S
C1184 H1200 0.931 . S
C1185 C1184 1.391 . S
C1185 C1189 1.376 . S
C1186 C1184 1.394 . S
C1186 C1187 1.369 . S
C1186 C1190 1.531 . S
C1187 C1186 1.369 . S
C1187 C1188 1.410 . S
C1187 C1195 1.503 . S
C1188 C1187 1.410 . S
C1188 C1189 1.392 . S
C1188 C1191 1.511 . S
C1189 C1185 1.376 . S
C1189 C1188 1.392 . S
C1189 H1201 0.929 . S
C1190 C1186 1.531 . S
C1190 H1202 0.960 . S
C1190 H1203 0.962 . S
C1190 H1204 0.960 . S
C1191 C1188 1.511 . S
C1191 H1205 0.961 . S
C1191 H1206 0.961 . S
C1191 H1207 0.961 . S
C1192 C1193 1.370 . S
C1192 C1194 1.363 . S
C1192 H1208 0.931 . S
C1193 C1192 1.370 . S
C1193 C1197 1.408 . S
C1194 C1192 1.363 . S
C1194 C1195 1.370 . S
C1194 C1198 1.524 . S
C1195 C1187 1.503 . S
C1195 C1194 1.370 . S
C1195 C1196 1.403 . S
C1196 C1195 1.403 . S
C1196 C1197 1.404 . S
C1196 C1199 1.539 . S
C1197 C1193 1.408 . S
C1197 C1196 1.404 . S
C1197 H1209 0.930 . S
C1198 C1194 1.524 . S
C1198 H1210 0.956 . S
C1198 H1211 0.961 . S
C1198 H1212 0.961 . S
C1199 C1196 1.539 . S
C1199 H1213 0.958 . S
C1199 H1214 0.961 . S
C1199 H1215 0.960 . S
H1200 C1184 0.931 . S
H1201 C1189 0.929 . S
H1202 C1190 0.960 . S
H1203 C1190 0.962 . S
H1204 C1190 0.960 . S
H1205 C1191 0.961 . S
H1206 C1191 0.961 . S
H1207 C1191 0.961 . S
H1208 C1192 0.931 . S
H1209 C1197 0.930 . S
H1210 C1198 0.956 . S
H1211 C1198 0.961 . S
H1212 C1198 0.961 . S
H1213 C1199 0.958 . S
H1214 C1199 0.961 . S
H1215 C1199 0.960 . S
C449 C241 2.142 . S
C457 C311 2.334 1_545 S
C489 C351 1.620 . S
C481 C277 1.536 . S
C521 C370 2.410 . S
C513 C169 2.189 . S
C553 C431 1.795 . S
C545 C205 1.629 . S
C585 C290 2.348 1_565 S
C577 C97 2.092 1_565 S
C609 C133 1.596 . S
C617 C330 1.625 . S
C641 C25 2.195 . S
C649 C391 2.405 . S
C673 C61 1.654 . S
C681 C410 1.791 1_655 S
C713 C292 0.730 . S
C705 C211 0.779 . S
C745 C332 0.367 . S
C737 C247 0.178 . S
C777 C388 0.948 . S
C769 C253 0.960 . S
C801 C175 0.219 . S
C809 C412 0.427 . S
C833 C67 0.803 . S
C841 C313 0.720 . S
C873 C353 0.339 . S
C865 C103 0.335 1_565 S
C905 C399 0.976 . S
C897 C109 0.858 . S
C929 C31 0.307 . S
C937 C433 0.430 . S
C961 C181 2.292 . S
C969 C308 2.523 . S
C993 C217 2.827 . S
C1001 C348 3.145 . S
C1033 C372 1.931 . S
C1025 C283 1.862 . S
C1065 C428 3.134 . S
C1057 C145 2.801 . S
C1089 C37 2.224 . S
C1097 C319 2.535 . S
C1129 C359 3.140 . S
C1121 C73 2.832 . S
C1161 C393 1.932 . S
C1153 C139 1.881 . S
C1185 C1 2.808 . S
C1193 C439 3.134 . S
