# Generated by pormake.
# Topology ptr, (4,4)-cn, num edge types: 1
# Building blocks:
#     Node 0, Type 0, BuildingBlock: KUFVIS_clean_sbu_0, # of connection points: 4
#     Node 1, Type 0, BuildingBlock: KUFVIS_clean_sbu_0, # of connection points: 4
#     Node 2, Type 0, BuildingBlock: KUFVIS_clean_sbu_0, # of connection points: 4
#     Node 3, Type 0, BuildingBlock: KUFVIS_clean_sbu_0, # of connection points: 4
#     Node 4, Type 0, BuildingBlock: KUFVIS_clean_sbu_0, # of connection points: 4
#     Node 5, Type 0, BuildingBlock: KUFVIS_clean_sbu_0, # of connection points: 4
#     Node 6, Type 0, BuildingBlock: KUFVIS_clean_sbu_0, # of connection points: 4
#     Node 7, Type 0, BuildingBlock: KUFVIS_clean_sbu_0, # of connection points: 4
#     Node 8, Type 0, BuildingBlock: KUFVIS_clean_sbu_0, # of connection points: 4
#     Node 9, Type 0, BuildingBlock: KUFVIS_clean_sbu_0, # of connection points: 4
#     Node 10, Type 0, BuildingBlock: KUFVIS_clean_sbu_0, # of connection points: 4
#     Node 11, Type 0, BuildingBlock: KUFVIS_clean_sbu_0, # of connection points: 4
#     Node 12, Type 0, BuildingBlock: KUFVIS_clean_sbu_0, # of connection points: 4
#     Node 13, Type 0, BuildingBlock: KUFVIS_clean_sbu_0, # of connection points: 4
#     Node 14, Type 0, BuildingBlock: KUFVIS_clean_sbu_0, # of connection points: 4
#     Node 15, Type 0, BuildingBlock: KUFVIS_clean_sbu_0, # of connection points: 4
#     Node 16, Type 0, BuildingBlock: KUFVIS_clean_sbu_0, # of connection points: 4
#     Node 17, Type 0, BuildingBlock: KUFVIS_clean_sbu_0, # of connection points: 4
#     Node 18, Type 1, BuildingBlock: NAWXER_clean_linker_0, # of connection points: 4
#     Node 19, Type 1, BuildingBlock: NAWXER_clean_linker_0, # of connection points: 4
#     Node 20, Type 1, BuildingBlock: NAWXER_clean_linker_0, # of connection points: 4
#     Node 21, Type 1, BuildingBlock: NAWXER_clean_linker_0, # of connection points: 4
#     Node 22, Type 1, BuildingBlock: NAWXER_clean_linker_0, # of connection points: 4
#     Node 23, Type 1, BuildingBlock: NAWXER_clean_linker_0, # of connection points: 4
#     Node 24, Type 1, BuildingBlock: NAWXER_clean_linker_0, # of connection points: 4
#     Node 25, Type 1, BuildingBlock: NAWXER_clean_linker_0, # of connection points: 4
#     Node 26, Type 1, BuildingBlock: NAWXER_clean_linker_0, # of connection points: 4
#     Node 27, Type 1, BuildingBlock: NAWXER_clean_linker_0, # of connection points: 4
#     Node 28, Type 1, BuildingBlock: NAWXER_clean_linker_0, # of connection points: 4
#     Node 29, Type 1, BuildingBlock: NAWXER_clean_linker_0, # of connection points: 4
#     Node 30, Type 1, BuildingBlock: NAWXER_clean_linker_0, # of connection points: 4
#     Node 31, Type 1, BuildingBlock: NAWXER_clean_linker_0, # of connection points: 4
#     Node 32, Type 1, BuildingBlock: NAWXER_clean_linker_0, # of connection points: 4
#     Node 33, Type 1, BuildingBlock: NAWXER_clean_linker_0, # of connection points: 4
#     Node 34, Type 1, BuildingBlock: NAWXER_clean_linker_0, # of connection points: 4
#     Node 35, Type 1, BuildingBlock: NAWXER_clean_linker_0, # of connection points: 4
#     Edge 36, Type (0, 1), BuildingBlock: MIFKUJ_clean_linker_0, # of connection points: 2
#     Edge 37, Type (0, 1), BuildingBlock: MIFKUJ_clean_linker_0, # of connection points: 2
#     Edge 38, Type (0, 1), BuildingBlock: MIFKUJ_clean_linker_0, # of connection points: 2
#     Edge 39, Type (0, 1), BuildingBlock: MIFKUJ_clean_linker_0, # of connection points: 2
#     Edge 40, Type (0, 1), BuildingBlock: MIFKUJ_clean_linker_0, # of connection points: 2
#     Edge 41, Type (0, 1), BuildingBlock: MIFKUJ_clean_linker_0, # of connection points: 2
#     Edge 42, Type (0, 1), BuildingBlock: MIFKUJ_clean_linker_0, # of connection points: 2
#     Edge 43, Type (0, 1), BuildingBlock: MIFKUJ_clean_linker_0, # of connection points: 2
#     Edge 44, Type (0, 1), BuildingBlock: MIFKUJ_clean_linker_0, # of connection points: 2
#     Edge 45, Type (0, 1), BuildingBlock: MIFKUJ_clean_linker_0, # of connection points: 2
#     Edge 46, Type (0, 1), BuildingBlock: MIFKUJ_clean_linker_0, # of connection points: 2
#     Edge 47, Type (0, 1), BuildingBlock: MIFKUJ_clean_linker_0, # of connection points: 2
#     Edge 48, Type (0, 1), BuildingBlock: MIFKUJ_clean_linker_0, # of connection points: 2
#     Edge 49, Type (0, 1), BuildingBlock: MIFKUJ_clean_linker_0, # of connection points: 2
#     Edge 50, Type (0, 1), BuildingBlock: MIFKUJ_clean_linker_0, # of connection points: 2
#     Edge 51, Type (0, 1), BuildingBlock: MIFKUJ_clean_linker_0, # of connection points: 2
#     Edge 52, Type (0, 1), BuildingBlock: MIFKUJ_clean_linker_0, # of connection points: 2
#     Edge 53, Type (0, 1), BuildingBlock: MIFKUJ_clean_linker_0, # of connection points: 2
#     Edge 54, Type (0, 1), BuildingBlock: MIFKUJ_clean_linker_0, # of connection points: 2
#     Edge 55, Type (0, 1), BuildingBlock: MIFKUJ_clean_linker_0, # of connection points: 2
#     Edge 56, Type (0, 1), BuildingBlock: MIFKUJ_clean_linker_0, # of connection points: 2
#     Edge 57, Type (0, 1), BuildingBlock: MIFKUJ_clean_linker_0, # of connection points: 2
#     Edge 58, Type (0, 1), BuildingBlock: MIFKUJ_clean_linker_0, # of connection points: 2
#     Edge 59, Type (0, 1), BuildingBlock: MIFKUJ_clean_linker_0, # of connection points: 2
#     Edge 60, Type (0, 1), BuildingBlock: MIFKUJ_clean_linker_0, # of connection points: 2
#     Edge 61, Type (0, 1), BuildingBlock: MIFKUJ_clean_linker_0, # of connection points: 2
#     Edge 62, Type (0, 1), BuildingBlock: MIFKUJ_clean_linker_0, # of connection points: 2
#     Edge 63, Type (0, 1), BuildingBlock: MIFKUJ_clean_linker_0, # of connection points: 2
#     Edge 64, Type (0, 1), BuildingBlock: MIFKUJ_clean_linker_0, # of connection points: 2
#     Edge 65, Type (0, 1), BuildingBlock: MIFKUJ_clean_linker_0, # of connection points: 2
#     Edge 66, Type (0, 1), BuildingBlock: MIFKUJ_clean_linker_0, # of connection points: 2
#     Edge 67, Type (0, 1), BuildingBlock: MIFKUJ_clean_linker_0, # of connection points: 2
#     Edge 68, Type (0, 1), BuildingBlock: MIFKUJ_clean_linker_0, # of connection points: 2
#     Edge 69, Type (0, 1), BuildingBlock: MIFKUJ_clean_linker_0, # of connection points: 2
#     Edge 70, Type (0, 1), BuildingBlock: MIFKUJ_clean_linker_0, # of connection points: 2
#     Edge 71, Type (0, 1), BuildingBlock: MIFKUJ_clean_linker_0, # of connection points: 2
#     Edge 72, Type (0, 1), BuildingBlock: MIFKUJ_clean_linker_0, # of connection points: 2
#     Edge 73, Type (0, 1), BuildingBlock: MIFKUJ_clean_linker_0, # of connection points: 2
#     Edge 74, Type (0, 1), BuildingBlock: MIFKUJ_clean_linker_0, # of connection points: 2
#     Edge 75, Type (0, 1), BuildingBlock: MIFKUJ_clean_linker_0, # of connection points: 2
#     Edge 76, Type (0, 1), BuildingBlock: MIFKUJ_clean_linker_0, # of connection points: 2
#     Edge 77, Type (0, 1), BuildingBlock: MIFKUJ_clean_linker_0, # of connection points: 2
#     Edge 78, Type (0, 1), BuildingBlock: MIFKUJ_clean_linker_0, # of connection points: 2
#     Edge 79, Type (0, 1), BuildingBlock: MIFKUJ_clean_linker_0, # of connection points: 2
#     Edge 80, Type (0, 1), BuildingBlock: MIFKUJ_clean_linker_0, # of connection points: 2
#     Edge 81, Type (0, 1), BuildingBlock: MIFKUJ_clean_linker_0, # of connection points: 2
#     Edge 82, Type (0, 1), BuildingBlock: MIFKUJ_clean_linker_0, # of connection points: 2
#     Edge 83, Type (0, 1), BuildingBlock: MIFKUJ_clean_linker_0, # of connection points: 2
#     Edge 84, Type (0, 1), BuildingBlock: MIFKUJ_clean_linker_0, # of connection points: 2
#     Edge 85, Type (0, 1), BuildingBlock: MIFKUJ_clean_linker_0, # of connection points: 2
#     Edge 86, Type (0, 1), BuildingBlock: MIFKUJ_clean_linker_0, # of connection points: 2
#     Edge 87, Type (0, 1), BuildingBlock: MIFKUJ_clean_linker_0, # of connection points: 2
#     Edge 88, Type (0, 1), BuildingBlock: MIFKUJ_clean_linker_0, # of connection points: 2
#     Edge 89, Type (0, 1), BuildingBlock: MIFKUJ_clean_linker_0, # of connection points: 2
#     Edge 90, Type (0, 1), BuildingBlock: MIFKUJ_clean_linker_0, # of connection points: 2
#     Edge 91, Type (0, 1), BuildingBlock: MIFKUJ_clean_linker_0, # of connection points: 2
#     Edge 92, Type (0, 1), BuildingBlock: MIFKUJ_clean_linker_0, # of connection points: 2
#     Edge 93, Type (0, 1), BuildingBlock: MIFKUJ_clean_linker_0, # of connection points: 2
#     Edge 94, Type (0, 1), BuildingBlock: MIFKUJ_clean_linker_0, # of connection points: 2
#     Edge 95, Type (0, 1), BuildingBlock: MIFKUJ_clean_linker_0, # of connection points: 2
#     Edge 96, Type (0, 1), BuildingBlock: MIFKUJ_clean_linker_0, # of connection points: 2
#     Edge 97, Type (0, 1), BuildingBlock: MIFKUJ_clean_linker_0, # of connection points: 2
#     Edge 98, Type (0, 1), BuildingBlock: MIFKUJ_clean_linker_0, # of connection points: 2
#     Edge 99, Type (0, 1), BuildingBlock: MIFKUJ_clean_linker_0, # of connection points: 2
#     Edge 100, Type (0, 1), BuildingBlock: MIFKUJ_clean_linker_0, # of connection points: 2
#     Edge 101, Type (0, 1), BuildingBlock: MIFKUJ_clean_linker_0, # of connection points: 2
#     Edge 102, Type (0, 1), BuildingBlock: MIFKUJ_clean_linker_0, # of connection points: 2
#     Edge 103, Type (0, 1), BuildingBlock: MIFKUJ_clean_linker_0, # of connection points: 2
#     Edge 104, Type (0, 1), BuildingBlock: MIFKUJ_clean_linker_0, # of connection points: 2
#     Edge 105, Type (0, 1), BuildingBlock: MIFKUJ_clean_linker_0, # of connection points: 2
#     Edge 106, Type (0, 1), BuildingBlock: MIFKUJ_clean_linker_0, # of connection points: 2
#     Edge 107, Type (0, 1), BuildingBlock: MIFKUJ_clean_linker_0, # of connection points: 2
# Relax obj value: 0.037
# Max RMSD: 0.166
# Mean RMSD: 0.064
data_MOF--net-ptr--node1-KUFVIS_clean_sbu_0--node2-NAWXER_clean_linker_0--edge1-MIFKUJ_clean_linker_0
_symmetry_space_group_name_H-M    P1
_symmetry_Int_Tables_number       1
_symmetry_cell_setting            triclinic
loop_
_symmetry_equiv_pos_as_xyz
'x, y, z'
_cell_length_a     108.35263
_cell_length_b     107.8648
_cell_length_c     80.153443
_cell_angle_alpha  89.850541
_cell_angle_beta   90.456408
_cell_angle_gamma 119.49924
loop_
_atom_site_label
_atom_site_type_symbol
_atom_site_fract_x
_atom_site_fract_y
_atom_site_fract_z
_atom_type_partial_charge
Mn0 Mn 0.00162 0.34514 0.00616 0.0
Mn1 Mn 0.03212 0.37659 0.00703 0.0
C2 C 0.00406 0.36355 0.98927 0.0
C3 C 0.98836 0.3221 0.99561 0.0
C4 C 0.00958 0.36738 0.03372 0.0
O5 O 0.01537 0.34031 0.01805 0.0
O6 O 0.03554 0.36133 0.01597 0.0
C7 C 0.04802 0.37016 0.98185 0.0
N8 N 0.04264 0.37848 0.98726 0.0
C9 C 0.05224 0.39409 0.96364 0.0
C10 C 0.05795 0.38573 0.95786 0.0
C11 C 0.05579 0.37369 0.96698 0.0
C12 C 0.04454 0.39002 0.97851 0.0
H13 H 0.04639 0.3609 0.98884 0.0
C14 C 0.02871 0.34819 0.02023 0.0
O15 O 0.98549 0.32556 0.01 0.0
O16 O 0.99913 0.33192 0.98765 0.0
N17 N 0.0305 0.39237 0.99867 0.0
C18 C 0.02401 0.39912 0.00575 0.0
C19 C 0.02497 0.41127 0.99804 0.0
C20 C 0.03277 0.41648 0.98328 0.0
C21 C 0.03958 0.40952 0.97641 0.0
C22 C 0.03824 0.39746 0.98464 0.0
H23 H 0.01808 0.39523 0.01715 0.0
O24 O 0.99157 0.3531 0.99272 0.0
O25 O 0.01477 0.36275 0.99547 0.0
O26 O 0.00059 0.35563 0.02693 0.0
O27 O 0.02178 0.3757 0.02759 0.0
C28 C 0.04758 0.41403 0.96166 0.0
C29 C 0.05381 0.40626 0.9552 0.0
H30 H 0.06396 0.38843 0.9464 0.0
H31 H 0.06012 0.36716 0.96257 0.0
H32 H 0.01973 0.41661 0.00345 0.0
H33 H 0.03344 0.42581 0.97732 0.0
H34 H 0.04891 0.4234 0.95509 0.0
H35 H 0.05975 0.40971 0.94371 0.0
Mn36 Mn 0.64928 0.64803 0.01207 0.0
Mn37 Mn 0.65377 0.61961 0.00641 0.0
C38 C 0.63626 0.62783 0.02795 0.0
C39 C 0.65698 0.67023 0.02428 0.0
C40 C 0.63695 0.6278 0.98271 0.0
O41 O 0.66726 0.65573 0.99821 0.0
O42 O 0.67116 0.63706 0.99919 0.0
C43 C 0.67653 0.62613 0.03126 0.0
N44 N 0.66333 0.61711 0.02514 0.0
C45 C 0.65954 0.59956 0.04605 0.0
C46 C 0.67315 0.6086 0.05248 0.0
C47 C 0.68166 0.62196 0.04509 0.0
C48 C 0.65502 0.60428 0.03222 0.0
H49 H 0.68307 0.63643 0.02566 0.0
C50 C 0.67488 0.64997 0.99542 0.0
O51 O 0.64955 0.66658 0.01057 0.0
O52 O 0.66004 0.66104 0.03079 0.0
N53 N 0.63782 0.60201 0.01298 0.0
C54 C 0.62467 0.59493 0.00586 0.0
C55 C 0.61476 0.58149 0.01198 0.0
C56 C 0.61853 0.57546 0.02521 0.0
C57 C 0.63207 0.58295 0.03242 0.0
C58 C 0.64155 0.59623 0.02569 0.0
H59 H 0.62175 0.59945 0.99557 0.0
O60 O 0.63244 0.63746 0.02667 0.0
O61 O 0.648 0.63066 0.02051 0.0
O62 O 0.6373 0.63774 0.99161 0.0
O63 O 0.64351 0.62105 0.98656 0.0
C64 C 0.63648 0.57782 0.0461 0.0
C65 C 0.65018 0.58615 0.05296 0.0
H66 H 0.67712 0.60545 0.06318 0.0
H67 H 0.69214 0.62904 0.05005 0.0
H68 H 0.60427 0.57575 0.00647 0.0
H69 H 0.61098 0.56504 0.02966 0.0
H70 H 0.62935 0.56757 0.05157 0.0
H71 H 0.65338 0.5822 0.06364 0.0
Mn72 Mn 0.34537 0.99826 0.01199 0.0
Mn73 Mn 0.37578 0.02978 0.01291 0.0
C74 C 0.36368 0.0012 0.02942 0.0
C75 C 0.32238 0.98406 0.0219 0.0
C76 C 0.36825 0.00794 0.98528 0.0
O77 O 0.33996 0.01169 1.00025 0.0
O78 O 0.36024 0.03248 0.00353 0.0
C79 C 0.36759 0.04414 0.03838 0.0
N80 N 0.37659 0.03958 0.03305 0.0
C81 C 0.39133 0.04913 0.05749 0.0
C82 C 0.38227 0.05401 0.0632 0.0
C83 C 0.37032 0.05146 0.05362 0.0
C84 C 0.38802 0.04185 0.04225 0.0
H85 H 0.3584 0.04219 0.03105 0.0
C86 C 0.34733 0.02517 0.99856 0.0
O87 O 0.32615 0.98155 0.0075 0.0
O88 O 0.33182 0.99497 0.03017 0.0
N89 N 0.39183 0.02893 0.0217 0.0
C90 C 0.39935 0.02329 0.01457 0.0
C91 C 0.41155 0.02477 0.02268 0.0
C92 C 0.41599 0.03219 0.03788 0.0
C93 C 0.40824 0.03815 0.04479 0.0
C94 C 0.39619 0.03635 0.03614 0.0
H95 H 0.39605 0.01766 0.00284 0.0
O96 O 0.35371 0.98854 0.0254 0.0
O97 O 0.36243 0.01176 0.02348 0.0
O98 O 0.35661 0.99825 0.99142 0.0
O99 O 0.3759 0.02015 0.99205 0.0
C100 C 0.41197 0.04576 0.05995 0.0
C101 C 0.40345 0.05114 0.06638 0.0
H102 H 0.38434 0.05967 0.07494 0.0
H103 H 0.36325 0.05514 0.05797 0.0
H104 H 0.41751 0.02019 0.01723 0.0
H105 H 0.42536 0.03325 0.04414 0.0
H106 H 0.4213 0.04742 0.06685 0.0
H107 H 0.40632 0.05678 0.07817 0.0
Mn108 Mn 1.0003 0.65844 0.00206 0.0
Mn109 Mn 0.03037 0.65632 0.00131 0.0
C110 C 0.002 0.64279 0.98394 0.0
C111 C 0.98748 0.66934 0.99301 0.0
C112 C 0.00815 0.64293 0.02834 0.0
O113 O 0.01453 0.67625 0.0145 0.0
O114 O 0.03444 0.67488 0.01116 0.0
C115 C 0.04641 0.67897 0.97662 0.0
N116 N 0.04086 0.66519 0.98162 0.0
C117 C 0.05018 0.65941 0.95754 0.0
C118 C 0.05608 0.67357 0.95218 0.0
C119 C 0.05415 0.68338 0.96174 0.0
C120 C 0.0426 0.65565 0.97249 0.0
H121 H 0.04492 0.68653 0.98393 0.0
C122 C 0.02786 0.68126 0.01632 0.0
O123 O 0.98465 0.66249 0.00707 0.0
O124 O 0.99795 0.67011 0.98446 0.0
N125 N 0.02818 0.63897 0.99215 0.0
C126 C 0.02123 0.62557 0.99865 0.0
C127 C 0.02187 0.61442 0.99041 0.0
C128 C 0.02976 0.61719 0.97571 0.0
C129 C 0.03693 0.63108 0.96935 0.0
C130 C 0.03601 0.64179 0.97816 0.0
H131 H 0.01522 0.62338 0.01001 0.0
O132 O 0.98969 0.64111 0.98794 0.0
O133 O 0.013 0.6538 0.99036 0.0
O134 O 0.99916 0.64609 0.02213 0.0
O135 O 0.02018 0.64664 0.02179 0.0
C136 C 0.04474 0.63469 0.95444 0.0
C137 C 0.05132 0.64883 0.94851 0.0
H138 H 0.06201 0.67701 0.94068 0.0
H139 H 0.05861 0.69431 0.95763 0.0
H140 H 0.0163 0.60372 0.99537 0.0
H141 H 0.03018 0.60856 0.96936 0.0
H142 H 0.04557 0.62661 0.9473 0.0
H143 H 0.05712 0.65142 0.9369 0.0
Mn144 Mn 0.3525 0.35179 0.01103 0.0
Mn145 Mn 0.38126 0.34761 0.00769 0.0
C146 C 0.37247 0.3658 0.02712 0.0
C147 C 0.33034 0.34457 0.02271 0.0
C148 C 0.37385 0.36418 0.98263 0.0
O149 O 0.34491 0.33313 0.99823 0.0
O150 O 0.36421 0.33043 0.9991 0.0
C151 C 0.37286 0.32433 0.03228 0.0
N152 N 0.38246 0.33753 0.0267 0.0
C153 C 0.39884 0.34042 0.04878 0.0
C154 C 0.3892 0.32679 0.05466 0.0
C155 C 0.37612 0.31874 0.04642 0.0
C156 C 0.39498 0.34542 0.03465 0.0
H157 H 0.36278 0.31814 0.02602 0.0
C158 C 0.35119 0.32601 0.99538 0.0
O159 O 0.33394 0.35133 0.00859 0.0
O160 O 0.33952 0.34185 0.02987 0.0
N161 N 0.39868 0.36319 0.01553 0.0
C162 C 0.40653 0.37635 0.00866 0.0
C163 C 0.41989 0.38575 0.01545 0.0
C164 C 0.42506 0.38145 0.02909 0.0
C165 C 0.4168 0.36792 0.03601 0.0
C166 C 0.40365 0.35893 0.02858 0.0
H167 H 0.40265 0.37964 0.99804 0.0
O168 O 0.3628 0.3694 0.02478 0.0
O169 O 0.36987 0.35368 0.0206 0.0
O170 O 0.36293 0.36291 0.99013 0.0
O171 O 0.38106 0.35845 0.98784 0.0
C172 C 0.42106 0.36302 0.05004 0.0
C173 C 0.41204 0.3493 0.05649 0.0
H174 H 0.39167 0.32245 0.06557 0.0
H175 H 0.36858 0.30825 0.05095 0.0
H176 H 0.42625 0.39623 0.01009 0.0
H177 H 0.43545 0.38852 0.03405 0.0
H178 H 0.43117 0.36979 0.05609 0.0
H179 H 0.41534 0.34572 0.06741 0.0
Mn180 Mn 0.65198 0.99794 0.0068 0.0
Mn181 Mn 0.62306 0.96545 0.01046 0.0
C182 C 0.63185 0.99252 0.99132 0.0
C183 C 0.67401 0.01265 0.99487 0.0
C184 C 0.63127 0.98909 0.03581 0.0
O185 O 0.65957 0.98641 0.01895 0.0
O186 O 0.64006 0.9648 0.01845 0.0
C187 C 0.6306 0.95033 0.98526 0.0
N188 N 0.62136 0.95437 0.99114 0.0
C189 C 0.60473 0.94192 0.96897 0.0
C190 C 0.61404 0.93755 0.96271 0.0
C191 C 0.62705 0.94181 0.97087 0.0
C192 C 0.60887 0.95042 0.98333 0.0
H193 H 0.64062 0.9536 0.99149 0.0
C194 C 0.65317 0.97307 0.02189 0.0
O195 O 0.67067 0.0156 0.00928 0.0
O196 O 0.66464 0.00104 0.98757 0.0
N197 N 0.6057 0.96428 0.00321 0.0
C198 C 0.59816 0.96978 0.01058 0.0
C199 C 0.58487 0.96652 0.00398 0.0
C200 C 0.57947 0.95754 0.99002 0.0
C201 C 0.58742 0.95205 0.98261 0.0
C202 C 0.60051 0.95552 0.98986 0.0
H203 H 0.60222 0.97656 0.02143 0.0
O204 O 0.64161 0.00566 0.99364 0.0
O205 O 0.63444 0.98286 0.99754 0.0
O206 O 0.64193 0.99868 0.02801 0.0
O207 O 0.62384 0.97625 0.03072 0.0
C208 C 0.5829 0.94332 0.9683 0.0
C209 C 0.59159 0.93832 0.96142 0.0
H210 H 0.61134 0.931 0.9516 0.0
H211 H 0.63431 0.93853 0.96608 0.0
H212 H 0.57875 0.9708 0.0097 0.0
H213 H 0.56917 0.95481 0.98518 0.0
H214 H 0.57283 0.94051 0.96238 0.0
H215 H 0.58809 0.93175 0.9503 0.0
Mn216 Mn 0.66762 0.68377 0.34286 0.0
Mn217 Mn 0.70076 0.71091 0.34914 0.0
C218 C 0.67589 0.70409 0.32665 0.0
C219 C 0.65244 0.66186 0.3306 0.0
C220 C 0.676 0.70468 0.37178 0.0
O221 O 0.67688 0.67496 0.3572 0.0
O222 O 0.69944 0.69297 0.35754 0.0
C223 C 0.71615 0.70206 0.32594 0.0
N224 N 0.71274 0.712 0.33118 0.0
C225 C 0.72754 0.72862 0.31028 0.0
C226 C 0.73134 0.71863 0.30477 0.0
C227 C 0.72557 0.70527 0.3126 0.0
C228 C 0.71812 0.72482 0.32364 0.0
H229 H 0.71167 0.69176 0.33187 0.0
C230 C 0.68998 0.68016 0.36088 0.0
O231 O 0.64896 0.66601 0.3441 0.0
O232 O 0.66478 0.67039 0.32433 0.0
N233 N 0.70367 0.72893 0.3415 0.0
C234 C 0.69831 0.73702 0.34773 0.0
C235 C 0.70285 0.75063 0.34114 0.0
C236 C 0.71291 0.75577 0.32834 0.0
C237 C 0.7182 0.74723 0.32202 0.0
C238 C 0.71341 0.73383 0.32922 0.0
H239 H 0.69067 0.73317 0.35769 0.0
O240 O 0.6624 0.69525 0.32776 0.0
O241 O 0.68418 0.70049 0.33457 0.0
O242 O 0.66644 0.6946 0.36308 0.0
O243 O 0.68917 0.71094 0.36809 0.0
C244 C 0.72795 0.75145 0.30882 0.0
C245 C 0.73256 0.74211 0.30289 0.0
H246 H 0.73857 0.72105 0.29446 0.0
H247 H 0.72836 0.69747 0.30835 0.0
H248 H 0.69871 0.7572 0.346 0.0
H249 H 0.71658 0.76633 0.32356 0.0
H250 H 0.73186 0.76178 0.30302 0.0
H251 H 0.73989 0.74538 0.29256 0.0
Mn252 Mn 0.31839 0.98501 0.35096 0.0
Mn253 Mn 0.31684 0.95303 0.34974 0.0
C254 C 0.30312 0.96705 0.36848 0.0
C255 C 0.32908 0.00824 0.36118 0.0
C256 C 0.3035 0.9632 0.32341 0.0
O257 O 0.33604 0.98888 0.33807 0.0
O258 O 0.33555 0.96785 0.34115 0.0
C259 C 0.33876 0.95793 0.37514 0.0
N260 N 0.32516 0.95022 0.36947 0.0
C261 C 0.31871 0.93418 0.39281 0.0
C262 C 0.33268 0.94189 0.39884 0.0
C263 C 0.34273 0.95383 0.38998 0.0
C264 C 0.31538 0.93876 0.37793 0.0
H265 H 0.3465 0.96714 0.3684 0.0
C266 C 0.34149 0.98084 0.33625 0.0
O267 O 0.32217 0.00484 0.34709 0.0
O268 O 0.33006 0.99823 0.36904 0.0
N269 N 0.29934 0.93772 0.35775 0.0
C270 C 0.28619 0.93182 0.35063 0.0
C271 C 0.27486 0.91987 0.35806 0.0
C272 C 0.27719 0.91406 0.37265 0.0
C273 C 0.29082 0.92026 0.37971 0.0
C274 C 0.30174 0.93206 0.37164 0.0
H275 H 0.28434 0.93619 0.33936 0.0
O276 O 0.30122 0.97779 0.36532 0.0
O277 O 0.31408 0.96733 0.36159 0.0
O278 O 0.30605 0.97473 0.33068 0.0
O279 O 0.30766 0.95477 0.32909 0.0
C280 C 0.29398 0.91532 0.39454 0.0
C281 C 0.3079 0.9223 0.40112 0.0
H282 H 0.33577 0.9388 0.41031 0.0
H283 H 0.35351 0.95987 0.39461 0.0
H284 H 0.26436 0.91516 0.35254 0.0
H285 H 0.26841 0.90485 0.37834 0.0
H286 H 0.28574 0.90627 0.40111 0.0
H287 H 0.31016 0.91853 0.41266 0.0
Mn288 Mn 0.01545 0.33315 0.34202 0.0
Mn289 Mn 0.04517 0.36508 0.33885 0.0
C290 C 0.0339 0.3396 0.361 0.0
C291 C 0.99245 0.31901 0.35191 0.0
C292 C 0.03893 0.33993 0.31661 0.0
O293 O 0.00924 0.34408 0.32636 0.0
O294 O 0.02939 0.3652 0.32644 0.0
C295 C 0.03558 0.3823 0.35772 0.0
N296 N 0.04498 0.3775 0.35565 0.0
C297 C 0.05964 0.39216 0.37815 0.0
C298 C 0.05014 0.39729 0.38054 0.0
C299 C 0.038 0.39226 0.37035 0.0
C300 C 0.05649 0.38199 0.36564 0.0
H301 H 0.02636 0.37862 0.34973 0.0
C302 C 0.0165 0.3571 0.32194 0.0
O303 O 0.997 0.31524 0.33901 0.0
O304 O 0.00112 0.33114 0.35877 0.0
N305 N 0.06144 0.36669 0.35029 0.0
C306 C 0.06986 0.36114 0.3459 0.0
C307 C 0.08241 0.36505 0.35493 0.0
C308 C 0.0864 0.37496 0.36801 0.0
C309 C 0.0778 0.38088 0.37191 0.0
C310 C 0.06527 0.37636 0.36272 0.0
H311 H 0.06701 0.35376 0.33562 0.0
O312 O 0.02447 0.32633 0.35886 0.0
O313 O 0.0321 0.34876 0.35227 0.0
O314 O 0.02717 0.33109 0.32329 0.0
O315 O 0.04634 0.35287 0.32137 0.0
C316 C 0.0814 0.39143 0.3842 0.0
C317 C 0.07228 0.39699 0.38741 0.0
H318 H 0.0521 0.40514 0.39011 0.0
H319 H 0.03063 0.39618 0.37208 0.0
H320 H 0.08907 0.36055 0.3517 0.0
H321 H 0.09617 0.37808 0.37482 0.0
H322 H 0.09129 0.39548 0.39105 0.0
H323 H 0.07519 0.40516 0.39683 0.0
Mn324 Mn 0.6682 0.98316 0.33804 0.0
Mn325 Mn 0.69997 0.9844 0.33966 0.0
C326 C 0.67293 0.96946 0.31989 0.0
C327 C 0.65352 0.9917 0.32815 0.0
C328 C 0.67636 0.96752 0.36411 0.0
O329 O 0.68025 0.00114 0.35157 0.0
O330 O 0.701 0.00114 0.3513 0.0
C331 C 0.71594 0.00989 0.31851 0.0
N332 N 0.7115 0.99593 0.32179 0.0
C333 C 0.72464 0.99437 0.2986 0.0
C334 C 0.72941 0.00875 0.29502 0.0
C335 C 0.72499 0.01653 0.30498 0.0
C336 C 0.71558 0.98832 0.3122 0.0
H337 H 0.7126 0.01591 0.32617 0.0
C338 C 0.69335 0.00665 0.35542 0.0
O339 O 0.65082 0.98459 0.342 0.0
O340 O 0.66498 0.99424 0.32037 0.0
N341 N 0.70082 0.96904 0.32888 0.0
C342 C 0.69474 0.95511 0.33355 0.0
C343 C 0.69778 0.94577 0.32459 0.0
C344 C 0.70723 0.9509 0.31114 0.0
C345 C 0.71352 0.96532 0.30672 0.0
C346 C 0.71004 0.97411 0.31607 0.0
H347 H 0.68758 0.95114 0.34399 0.0
O348 O 0.65997 0.96619 0.32313 0.0
O349 O 0.68286 0.98085 0.32715 0.0
O350 O 0.66744 0.97078 0.35792 0.0
O351 O 0.68878 0.97208 0.35826 0.0
C352 C 0.72297 0.9713 0.29329 0.0
C353 C 0.72843 0.98578 0.28915 0.0
H354 H 0.73642 0.01392 0.28461 0.0
H355 H 0.72859 0.02762 0.30226 0.0
H356 H 0.69289 0.93466 0.32808 0.0
H357 H 0.70954 0.94366 0.30425 0.0
H358 H 0.726 0.96482 0.28594 0.0
H359 H 0.73551 0.99019 0.27864 0.0
Mn360 Mn 0.01458 0.68263 0.34767 0.0
Mn361 Mn 0.04606 0.68333 0.34931 0.0
C362 C 0.03148 0.69704 0.367 0.0
C363 C 0.99097 0.67221 0.35604 0.0
C364 C 0.03831 0.69853 0.32264 0.0
O365 O 0.01101 0.6652 0.33412 0.0
O366 O 0.03159 0.66523 0.3387 0.0
C367 C 0.03876 0.6598 0.37321 0.0
N368 N 0.0472 0.67366 0.36875 0.0
C369 C 0.06178 0.67824 0.39328 0.0
C370 C 0.05333 0.66398 0.39805 0.0
C371 C 0.04175 0.65474 0.388 0.0
C372 C 0.05833 0.68266 0.37837 0.0
H373 H 0.02981 0.65269 0.36555 0.0
C374 C 0.01896 0.65962 0.33274 0.0
O375 O 0.99521 0.67955 0.34234 0.0
O376 O 0.00031 0.67054 0.36445 0.0
N377 N 0.06108 0.70016 0.35934 0.0
C378 C 0.06762 0.71379 0.35351 0.0
C379 C 0.07918 0.72447 0.36239 0.0
C380 C 0.08398 0.72101 0.37707 0.0
C381 C 0.07716 0.7069 0.38276 0.0
C382 C 0.06576 0.69668 0.37331 0.0
H383 H 0.06403 0.71651 0.3422 0.0
O384 O 0.02122 0.69938 0.36286 0.0
O385 O 0.03139 0.68613 0.35997 0.0
O386 O 0.02627 0.69568 0.3285 0.0
O387 O 0.0461 0.69391 0.32911 0.0
C388 C 0.08102 0.70262 0.39762 0.0
C389 C 0.07331 0.68831 0.4029 0.0
H390 H 0.05555 0.66005 0.4095 0.0
H391 H 0.03512 0.64374 0.39166 0.0
H392 H 0.08438 0.73534 0.35794 0.0
H393 H 0.09286 0.72929 0.38393 0.0
H394 H 0.08973 0.7103 0.40523 0.0
H395 H 0.07623 0.6852 0.41448 0.0
Mn396 Mn 0.32135 0.33824 0.34394 0.0
Mn397 Mn 0.2946 0.30577 0.35433 0.0
C398 C 0.3003 0.32834 0.32895 0.0
C399 C 0.3424 0.35273 0.33001 0.0
C400 C 0.30094 0.33253 0.37302 0.0
O401 O 0.33124 0.33043 0.35873 0.0
O402 O 0.31257 0.30909 0.36491 0.0
C403 C 0.30492 0.28877 0.33629 0.0
N404 N 0.29453 0.29212 0.33917 0.0
C405 C 0.27847 0.27375 0.3205 0.0
C406 C 0.28896 0.27005 0.31734 0.0
C407 C 0.30228 0.27767 0.32518 0.0
C408 C 0.28181 0.2851 0.33141 0.0
H409 H 0.31511 0.29448 0.34247 0.0
C410 C 0.32569 0.31844 0.3661 0.0
O411 O 0.33891 0.35709 0.34331 0.0
O412 O 0.3337 0.33992 0.32484 0.0
N413 N 0.27641 0.30079 0.34519 0.0
C414 C 0.2675 0.30577 0.34948 0.0
C415 C 0.2538 0.29943 0.34252 0.0
C416 C 0.24928 0.28778 0.33165 0.0
C417 C 0.25856 0.28267 0.32771 0.0
C418 C 0.27216 0.28958 0.33475 0.0
H419 H 0.27082 0.31453 0.35813 0.0
O420 O 0.30895 0.34198 0.32873 0.0
O421 O 0.30439 0.32074 0.33758 0.0
O422 O 0.31158 0.34107 0.3643 0.0
O423 O 0.29378 0.31916 0.37028 0.0
C424 C 0.25477 0.27082 0.31733 0.0
C425 C 0.26476 0.2665 0.31346 0.0
H426 H 0.2869 0.26138 0.30894 0.0
H427 H 0.31045 0.2749 0.32279 0.0
H428 H 0.24668 0.3034 0.34569 0.0
H429 H 0.23864 0.28279 0.32648 0.0
H430 H 0.24411 0.26479 0.31256 0.0
H431 H 0.26172 0.25747 0.30526 0.0
Mn432 Mn 0.3308 0.01564 0.67216 0.0
Mn433 Mn 0.36036 0.04789 0.67203 0.0
C434 C 0.33256 0.03302 0.65389 0.0
C435 C 0.31839 0.99211 0.663 0.0
C436 C 0.33759 0.03856 0.69846 0.0
O437 O 0.34512 0.01219 0.68499 0.0
O438 O 0.36473 0.03358 0.6819 0.0
C439 C 0.37728 0.042 0.64776 0.0
N440 N 0.37121 0.04986 0.65254 0.0
C441 C 0.38073 0.06528 0.62876 0.0
C442 C 0.38714 0.05739 0.62361 0.0
C443 C 0.38535 0.04566 0.63312 0.0
C444 C 0.3727 0.06105 0.64338 0.0
H445 H 0.37598 0.03301 0.65508 0.0
C446 C 0.3584 0.02062 0.6869 0.0
O447 O 0.31532 0.99597 0.677 0.0
O448 O 0.32889 0.00184 0.65459 0.0
N449 N 0.35775 0.06281 0.66273 0.0
C450 C 0.35055 0.06908 0.66918 0.0
C451 C 0.35105 0.08085 0.66099 0.0
C452 C 0.35912 0.08619 0.64645 0.0
C453 C 0.36663 0.07973 0.64023 0.0
C454 C 0.36568 0.06799 0.64886 0.0
H455 H 0.34446 0.06514 0.68046 0.0
O456 O 0.32023 0.02239 0.65759 0.0
O457 O 0.34346 0.03301 0.66074 0.0
O458 O 0.32903 0.02649 0.69204 0.0
O459 O 0.34972 0.04705 0.6923 0.0
C460 C 0.37502 0.08446 0.62578 0.0
C461 C 0.38195 0.07716 0.61995 0.0
H462 H 0.39342 0.06022 0.61236 0.0
H463 H 0.39024 0.03949 0.6292 0.0
H464 H 0.34526 0.08581 0.66592 0.0
H465 H 0.35946 0.09526 0.64016 0.0
H466 H 0.37606 0.09359 0.61893 0.0
H467 H 0.38815 0.08074 0.60865 0.0
Mn468 Mn 0.98247 0.31648 0.68221 0.0
Mn469 Mn 0.98487 0.2865 0.68121 0.0
C470 C 0.96769 0.29734 0.69865 0.0
C471 C 0.99037 0.33916 0.69318 0.0
C472 C 0.97069 0.29485 0.65392 0.0
O473 O 0.00124 0.32266 0.67058 0.0
O474 O 0.00308 0.30284 0.67362 0.0
C475 C 0.00634 0.29357 0.70793 0.0
N476 N 0.9932 0.28471 0.70153 0.0
C477 C 0.98747 0.2687 0.7248 0.0
C478 C 0.00099 0.27759 0.73157 0.0
C479 C 0.01044 0.29011 0.72312 0.0
C480 C 0.98397 0.27271 0.70963 0.0
H481 H 0.01361 0.30322 0.7015 0.0
C482 C 0.00801 0.31584 0.66914 0.0
O483 O 0.98423 0.33561 0.67863 0.0
O484 O 0.99221 0.32968 0.70106 0.0
N485 N 0.96804 0.26983 0.68834 0.0
C486 C 0.95527 0.26258 0.68035 0.0
C487 C 0.94454 0.2499 0.6873 0.0
C488 C 0.94709 0.24472 0.70227 0.0
C489 C 0.96039 0.25222 0.71011 0.0
C490 C 0.97069 0.26476 0.70256 0.0
H491 H 0.95325 0.26645 0.66878 0.0
O492 O 0.96453 0.30722 0.69531 0.0
O493 O 0.97956 0.29917 0.69262 0.0
O494 O 0.97177 0.30587 0.66115 0.0
O495 O 0.97577 0.2873 0.66001 0.0
C496 C 0.96379 0.2478 0.72517 0.0
C497 C 0.97728 0.25608 0.73258 0.0
H498 H 0.00418 0.27497 0.74329 0.0
H499 H 0.02086 0.29707 0.72831 0.0
H500 H 0.93432 0.24413 0.68116 0.0
H501 H 0.93876 0.23499 0.70765 0.0
H502 H 0.95604 0.23813 0.73128 0.0
H503 H 0.97969 0.25268 0.7443 0.0
Mn504 Mn 0.68122 0.66322 0.67573 0.0
Mn505 Mn 0.71163 0.69455 0.67193 0.0
C506 C 0.70018 0.66837 0.69326 0.0
C507 C 0.65859 0.64983 0.68696 0.0
C508 C 0.7034 0.66946 0.64869 0.0
O509 O 0.67512 0.67502 0.66168 0.0
O510 O 0.69573 0.69569 0.66086 0.0
C511 C 0.70387 0.71221 0.69284 0.0
N512 N 0.71288 0.70716 0.68936 0.0
C513 C 0.72874 0.72105 0.71154 0.0
C514 C 0.71968 0.72647 0.7153 0.0
C515 C 0.70716 0.72198 0.70595 0.0
C516 C 0.72488 0.71131 0.69836 0.0
H517 H 0.69427 0.70882 0.68564 0.0
C518 C 0.68252 0.68802 0.6573 0.0
O519 O 0.6621 0.64599 0.67325 0.0
O520 O 0.66809 0.6616 0.69382 0.0
N521 N 0.72802 0.69526 0.68208 0.0
C522 C 0.7352 0.68844 0.67743 0.0
C523 C 0.74777 0.69141 0.68588 0.0
C524 C 0.75295 0.70153 0.6988 0.0
C525 C 0.74546 0.70855 0.70323 0.0
C526 C 0.73298 0.70511 0.6944 0.0
H527 H 0.73134 0.68074 0.66741 0.0
O528 O 0.69025 0.65531 0.69093 0.0
O529 O 0.69863 0.67813 0.68548 0.0
O530 O 0.69166 0.66094 0.65566 0.0
O531 O 0.71149 0.68222 0.65372 0.0
C532 C 0.74978 0.71866 0.71621 0.0
C533 C 0.74137 0.72483 0.72044 0.0
H534 H 0.72218 0.73401 0.72541 0.0
H535 H 0.70009 0.72607 0.70882 0.0
H536 H 0.75349 0.68595 0.6824 0.0
H537 H 0.76264 0.70378 0.7053 0.0
H538 H 0.75947 0.72168 0.72314 0.0
H539 H 0.74469 0.73241 0.73062 0.0
Mn540 Mn 0.33113 0.31851 0.67081 0.0
Mn541 Mn 0.3621 0.31845 0.67578 0.0
C542 C 0.33569 0.30362 0.65441 0.0
C543 C 0.31788 0.32805 0.65908 0.0
C544 C 0.33713 0.30291 0.69896 0.0
O545 O 0.34315 0.33662 0.68409 0.0
O546 O 0.36354 0.33597 0.68566 0.0
C547 C 0.37993 0.34282 0.65383 0.0
N548 N 0.37478 0.32894 0.6582 0.0
C549 C 0.38897 0.32584 0.63745 0.0
C550 C 0.39446 0.34013 0.63275 0.0
C551 C 0.38988 0.34863 0.64094 0.0
C552 C 0.37905 0.32064 0.65035 0.0
H553 H 0.37648 0.3494 0.66016 0.0
C554 C 0.35606 0.34191 0.68861 0.0
O555 O 0.31426 0.32109 0.67306 0.0
O556 O 0.32934 0.32967 0.65206 0.0
N557 N 0.36267 0.3023 0.66702 0.0
C558 C 0.35596 0.28863 0.67271 0.0
C559 C 0.35947 0.27878 0.66602 0.0
C560 C 0.36983 0.28307 0.65357 0.0
C561 C 0.37648 0.29714 0.64779 0.0
C562 C 0.37276 0.30657 0.65518 0.0
H563 H 0.34816 0.28533 0.68247 0.0
O564 O 0.32284 0.30123 0.65653 0.0
O565 O 0.34574 0.31502 0.66162 0.0
O566 O 0.32875 0.30624 0.69145 0.0
O567 O 0.34982 0.30717 0.69426 0.0
C568 C 0.38666 0.30221 0.63501 0.0
C569 C 0.39283 0.31652 0.62976 0.0
H570 H 0.40215 0.34465 0.62282 0.0
H571 H 0.39406 0.35966 0.63736 0.0
H572 H 0.35434 0.26798 0.67066 0.0
H573 H 0.37271 0.27551 0.64865 0.0
H574 H 0.38972 0.29515 0.62902 0.0
H575 H 0.40051 0.32025 0.61978 0.0
Mn576 Mn 0.68442 0.01847 0.67673 0.0
Mn577 Mn 0.71316 0.01425 0.67336 0.0
C578 C 0.70457 0.0327 0.69232 0.0
C579 C 0.66258 0.01233 0.68868 0.0
C580 C 0.70662 0.03154 0.64884 0.0
O581 O 0.67624 0.99933 0.665 0.0
O582 O 0.69635 0.9984 0.66231 0.0
C583 C 0.70215 0.98875 0.695 0.0
N584 N 0.71251 0.00221 0.69126 0.0
C585 C 0.7271 0.00221 0.71403 0.0
C586 C 0.71664 0.98831 0.71808 0.0
C587 C 0.70408 0.98158 0.70856 0.0
C588 C 0.72454 0.00884 0.70045 0.0
H589 H 0.6925 0.98351 0.68771 0.0
C590 C 0.68305 0.9933 0.65979 0.0
O591 O 0.66599 0.01827 0.67407 0.0
O592 O 0.67171 0.00967 0.69609 0.0
N593 N 0.73047 0.02841 0.6833 0.0
C594 C 0.73945 0.04186 0.67785 0.0
C595 C 0.75259 0.04997 0.68588 0.0
C596 C 0.7564 0.04409 0.69927 0.0
C597 C 0.74702 0.03026 0.70466 0.0
C598 C 0.73415 0.02262 0.69605 0.0
H599 H 0.73663 0.04634 0.66742 0.0
O600 O 0.6951 0.03649 0.68946 0.0
O601 O 0.70177 0.02029 0.68647 0.0
O602 O 0.69473 0.02874 0.6552 0.0
O603 O 0.7146 0.02697 0.65488 0.0
C604 C 0.74994 0.02374 0.71822 0.0
C605 C 0.73995 0.00975 0.72297 0.0
H606 H 0.7181 0.98274 0.7285 0.0
H607 H 0.69593 0.97088 0.71163 0.0
H608 H 0.75982 0.06064 0.68162 0.0
H609 H 0.76662 0.05015 0.70523 0.0
H610 H 0.75981 0.02944 0.72515 0.0
H611 H 0.74225 0.00489 0.73351 0.0
Mn612 Mn 0.98347 0.67031 0.67398 0.0
Mn613 Mn 0.95213 0.63961 0.67518 0.0
C614 C 0.96548 0.66712 0.6557 0.0
C615 C 0.00663 0.68365 0.66432 0.0
C616 C 0.96023 0.66378 0.6997 0.0
O617 O 0.98839 0.65731 0.6875 0.0
O618 O 0.96711 0.63749 0.68701 0.0
C619 C 0.96034 0.62235 0.65417 0.0
N620 N 0.9513 0.62738 0.65751 0.0
C621 C 0.9358 0.6138 0.63493 0.0
C622 C 0.94489 0.6084 0.63129 0.0
C623 C 0.95725 0.61274 0.64091 0.0
C624 C 0.93945 0.62336 0.64826 0.0
H625 H 0.96982 0.62563 0.66158 0.0
C626 C 0.98019 0.64432 0.69131 0.0
O627 O 0.00271 0.68686 0.67816 0.0
O628 O 0.99722 0.67244 0.65641 0.0
N629 N 0.93631 0.6395 0.66437 0.0
C630 C 0.92898 0.64615 0.66911 0.0
C631 C 0.91629 0.64292 0.66083 0.0
C632 C 0.91126 0.63291 0.64778 0.0
C633 C 0.91898 0.62622 0.64311 0.0
C634 C 0.93139 0.62963 0.65206 0.0
H635 H 0.93269 0.65369 0.67931 0.0
O636 O 0.9758 0.67973 0.65922 0.0
O637 O 0.96607 0.65647 0.6627 0.0
O638 O 0.97252 0.67208 0.69381 0.0
O639 O 0.95184 0.65148 0.69364 0.0
C640 C 0.9149 0.61637 0.62987 0.0
C641 C 0.92335 0.61023 0.62571 0.0
H642 H 0.94255 0.60099 0.62107 0.0
H643 H 0.96435 0.60866 0.63815 0.0
H644 H 0.9103 0.64798 0.66467 0.0
H645 H 0.90142 0.63038 0.64146 0.0
H646 H 0.90537 0.61357 0.62268 0.0
H647 H 0.92022 0.60283 0.61536 0.0
C648 C 0.20929 0.32872 0.12872 0.0
C649 C 0.20775 0.31796 0.11766 0.0
C650 C 0.19797 0.32682 0.1387 0.0
C651 C 0.18488 0.31418 0.13765 0.0
C652 C 0.19468 0.30526 0.11673 0.0
C653 C 0.18327 0.30347 0.1265 0.0
C654 C 0.17269 0.31248 0.14753 0.0
C655 C 0.20216 0.30814 0.18443 0.0
C656 C 0.20586 0.31704 0.19849 0.0
C657 C 0.19176 0.30724 0.17325 0.0
C658 C 0.18518 0.31554 0.17572 0.0
C659 C 0.19942 0.32544 0.20084 0.0
C660 C 0.18923 0.32472 0.18956 0.0
C661 C 0.17317 0.31388 0.16509 0.0
C662 C 0.1142 0.30318 0.18163 0.0
C663 C 0.11801 0.31354 0.19421 0.0
C664 C 0.12463 0.30269 0.17188 0.0
C665 C 0.13904 0.31263 0.17444 0.0
C666 C 0.13245 0.32329 0.19689 0.0
C667 C 0.14283 0.32281 0.18716 0.0
C668 C 0.15037 0.31228 0.16453 0.0
C669 C 0.12589 0.32326 0.12765 0.0
C670 C 0.11868 0.31279 0.11539 0.0
C671 C 0.13587 0.32251 0.13809 0.0
C672 C 0.13878 0.31125 0.13655 0.0
C673 C 0.12153 0.30146 0.11392 0.0
C674 C 0.13163 0.30078 0.12431 0.0
C675 C 0.14993 0.31093 0.14698 0.0
H676 H 0.21927 0.33858 0.12968 0.0
H677 H 0.19936 0.3353 0.14705 0.0
H678 H 0.19322 0.29686 0.1082 0.0
H679 H 0.1732 0.29371 0.12541 0.0
H680 H 0.20685 0.30141 0.18252 0.0
H681 H 0.18851 0.29964 0.16311 0.0
H682 H 0.20214 0.33241 0.21158 0.0
H683 H 0.18431 0.3312 0.19183 0.0
H684 H 0.10317 0.29552 0.17924 0.0
H685 H 0.12142 0.29447 0.16247 0.0
H686 H 0.13579 0.33121 0.2067 0.0
H687 H 0.15387 0.33048 0.18954 0.0
H688 H 0.12384 0.33206 0.12913 0.0
H689 H 0.1415 0.33089 0.14719 0.0
H690 H 0.11623 0.29334 0.10446 0.0
H691 H 0.13386 0.29211 0.1228 0.0
N692 N 0.16106 0.31099 0.13916 0.0
N693 N 0.16198 0.31373 0.17282 0.0
C694 C 0.68082 0.87934 0.13164 0.0
C695 C 0.69107 0.8872 0.11955 0.0
C696 C 0.68148 0.86859 0.1406 0.0
C697 C 0.69252 0.86559 0.13783 0.0
C698 C 0.70208 0.88413 0.11671 0.0
C699 C 0.70272 0.87332 0.1257 0.0
C700 C 0.69306 0.854 0.14709 0.0
C701 C 0.70058 0.88833 0.18414 0.0
C702 C 0.69117 0.8838 0.19763 0.0
C703 C 0.70111 0.87835 0.17349 0.0
C704 C 0.69189 0.86368 0.17583 0.0
C705 C 0.68229 0.86917 0.20028 0.0
C706 C 0.68261 0.85922 0.18946 0.0
C707 C 0.69207 0.85279 0.16468 0.0
C708 C 0.69858 0.80161 0.17926 0.0
C709 C 0.6885 0.79554 0.19202 0.0
C710 C 0.69918 0.81262 0.16945 0.0
C711 C 0.68966 0.81771 0.17218 0.0
C712 C 0.67882 0.80047 0.19448 0.0
C713 C 0.67946 0.8115 0.18472 0.0
C714 C 0.69088 0.83015 0.16295 0.0
C715 C 0.67614 0.79523 0.12499 0.0
C716 C 0.68707 0.79699 0.11426 0.0
C717 C 0.67779 0.80643 0.13518 0.0
C718 C 0.69034 0.81962 0.13467 0.0
C719 C 0.69962 0.81021 0.11373 0.0
C720 C 0.70116 0.82152 0.12373 0.0
C721 C 0.69198 0.83141 0.14544 0.0
H722 H 0.67227 0.88152 0.13419 0.0
H723 H 0.67331 0.86254 0.14964 0.0
H724 H 0.71001 0.88987 0.10731 0.0
H725 H 0.71122 0.87103 0.12323 0.0
H726 H 0.70769 0.89957 0.18202 0.0
H727 H 0.7088 0.88212 0.16354 0.0
H728 H 0.67492 0.86543 0.21058 0.0
H729 H 0.67548 0.84799 0.19168 0.0
H730 H 0.70616 0.79801 0.17706 0.0
H731 H 0.70737 0.81746 0.16011 0.0
H732 H 0.67109 0.7962 0.20439 0.0
H733 H 0.67208 0.81533 0.18713 0.0
H734 H 0.6664 0.78512 0.12567 0.0
H735 H 0.66925 0.80482 0.14342 0.0
H736 H 0.70814 0.81183 0.10547 0.0
H737 H 0.71088 0.83166 0.12312 0.0
N738 N 0.69307 0.8433 0.13814 0.0
N739 N 0.69095 0.84087 0.17186 0.0
C740 C 0.12196 0.8005 0.13211 0.0
C741 C 0.11439 0.80273 0.11923 0.0
C742 C 0.13156 0.81183 0.14202 0.0
C743 C 0.13367 0.82561 0.13938 0.0
C744 C 0.11649 0.81653 0.11663 0.0
C745 C 0.12614 0.8279 0.12654 0.0
C746 C 0.14447 0.83778 0.14915 0.0
C747 C 0.11043 0.8094 0.18529 0.0
C748 C 0.11529 0.80402 0.19824 0.0
C749 C 0.12007 0.82038 0.17501 0.0
C750 C 0.13476 0.8261 0.1774 0.0
C751 C 0.12999 0.81003 0.20081 0.0
C752 C 0.13958 0.82094 0.19054 0.0
C753 C 0.14529 0.83774 0.16676 0.0
C754 C 0.19521 0.89558 0.183 0.0
C755 C 0.20169 0.89134 0.19531 0.0
C756 C 0.18397 0.88539 0.17334 0.0
C757 C 0.17907 0.8708 0.17584 0.0
C758 C 0.19659 0.87673 0.1979 0.0
C759 C 0.18537 0.86658 0.18833 0.0
C760 C 0.16715 0.85972 0.16597 0.0
C761 C 0.20295 0.88314 0.1302 0.0
C762 C 0.19985 0.8892 0.11639 0.0
C763 C 0.19214 0.87363 0.14061 0.0
C764 C 0.17801 0.87025 0.13772 0.0
C765 C 0.18568 0.88555 0.11321 0.0
C766 C 0.17486 0.87616 0.12378 0.0
C767 C 0.16638 0.85975 0.14835 0.0
H768 H 0.12051 0.78997 0.13449 0.0
H769 H 0.13752 0.80986 0.15155 0.0
H770 H 0.11095 0.81861 0.10665 0.0
H771 H 0.12778 0.83849 0.12414 0.0
H772 H 0.09918 0.80502 0.18297 0.0
H773 H 0.11604 0.82444 0.16527 0.0
H774 H 0.13413 0.80642 0.2109 0.0
H775 H 0.15084 0.82527 0.1928 0.0
H776 H 0.19891 0.90677 0.18074 0.0
H777 H 0.17908 0.88889 0.164 0.0
H778 H 0.20116 0.87311 0.2075 0.0
H779 H 0.18167 0.85539 0.1906 0.0
H780 H 0.21373 0.88551 0.13274 0.0
H781 H 0.19483 0.86872 0.15076 0.0
H782 H 0.18299 0.89006 0.10264 0.0
H783 H 0.16403 0.87353 0.12109 0.0
N784 N 0.15499 0.84882 0.14066 0.0
N785 N 0.15663 0.8487 0.17441 0.0
C786 C 0.31034 0.11689 0.83464 0.0
C787 C 0.2997 0.10901 0.82276 0.0
C788 C 0.30898 0.12627 0.84546 0.0
C789 C 0.29693 0.12793 0.84468 0.0
C790 C 0.28756 0.11059 0.82218 0.0
C791 C 0.28626 0.12006 0.83293 0.0
C792 C 0.29606 0.13879 0.85503 0.0
C793 C 0.29366 0.1049 0.88977 0.0
C794 C 0.30439 0.10981 0.90207 0.0
C795 C 0.29145 0.11453 0.88024 0.0
C796 C 0.30009 0.12929 0.88258 0.0
C797 C 0.31269 0.12458 0.90473 0.0
C798 C 0.31056 0.13418 0.89511 0.0
C799 C 0.29819 0.13981 0.87251 0.0
C800 C 0.29124 0.19039 0.89091 0.0
C801 C 0.30297 0.19745 0.90175 0.0
C802 C 0.28947 0.17878 0.88133 0.0
C803 C 0.29939 0.17401 0.88244 0.0
C804 C 0.31284 0.19255 0.90278 0.0
C805 C 0.31098 0.18089 0.89337 0.0
C806 C 0.29782 0.16178 0.87247 0.0
C807 C 0.30925 0.19702 0.8352 0.0
C808 C 0.29934 0.194 0.82225 0.0
C809 C 0.30783 0.18635 0.8462 0.0
C810 C 0.29634 0.17245 0.84466 0.0
C811 C 0.28771 0.18014 0.82089 0.0
C812 C 0.28629 0.16944 0.83192 0.0
C813 C 0.29571 0.16075 0.85501 0.0
H814 H 0.31998 0.1162 0.83523 0.0
H815 H 0.31755 0.13254 0.85411 0.0
H816 H 0.27908 0.10457 0.81334 0.0
H817 H 0.27694 0.12129 0.83204 0.0
H818 H 0.28707 0.09361 0.88735 0.0
H819 H 0.28296 0.11042 0.87107 0.0
H820 H 0.3208 0.12877 0.91436 0.0
H821 H 0.31725 0.14548 0.89737 0.0
H822 H 0.28331 0.19371 0.88997 0.0
H823 H 0.28031 0.17347 0.87317 0.0
H824 H 0.32217 0.19786 0.91066 0.0
H825 H 0.31879 0.17741 0.89439 0.0
H826 H 0.31828 0.20761 0.83667 0.0
H827 H 0.31601 0.18888 0.85554 0.0
H828 H 0.28 0.17742 0.81091 0.0
H829 H 0.27747 0.15875 0.83032 0.0
N830 N 0.29481 0.14924 0.847 0.0
N831 N 0.29903 0.15131 0.8805 0.0
C832 C 0.89023 0.19054 0.89434 0.0
C833 C 0.88691 0.19795 0.90631 0.0
C834 C 0.87957 0.17999 0.88443 0.0
C835 C 0.8654 0.17672 0.88621 0.0
C836 C 0.87265 0.1944 0.90828 0.0
C837 C 0.86201 0.18383 0.89841 0.0
C838 C 0.85398 0.1657 0.87574 0.0
C839 C 0.88114 0.20099 0.83962 0.0
C840 C 0.88554 0.19663 0.82544 0.0
C841 C 0.87142 0.19088 0.85064 0.0
C842 C 0.86628 0.17625 0.84794 0.0
C843 C 0.88054 0.18206 0.82283 0.0
C844 C 0.87105 0.17199 0.83399 0.0
C845 C 0.85472 0.16521 0.85817 0.0
C846 C 0.79601 0.12089 0.83732 0.0
C847 C 0.79988 0.11609 0.82311 0.0
C848 C 0.80636 0.12963 0.84895 0.0
C849 C 0.82065 0.13333 0.84673 0.0
C850 C 0.81406 0.11964 0.82094 0.0
C851 C 0.82433 0.12812 0.83268 0.0
C852 C 0.83212 0.14397 0.85758 0.0
C853 C 0.80376 0.10871 0.89235 0.0
C854 C 0.7973 0.11289 0.90459 0.0
C855 C 0.81483 0.11891 0.88272 0.0
C856 C 0.81957 0.13348 0.88504 0.0
C857 C 0.80222 0.1275 0.90701 0.0
C858 C 0.81329 0.13768 0.89741 0.0
C859 C 0.8314 0.14444 0.87515 0.0
H860 H 0.90106 0.19281 0.8927 0.0
H861 H 0.88239 0.17436 0.87541 0.0
H862 H 0.86972 0.2 0.91721 0.0
H863 H 0.85113 0.18142 0.90007 0.0
H864 H 0.8847 0.21217 0.84173 0.0
H865 H 0.86753 0.1945 0.86086 0.0
H866 H 0.88382 0.17846 0.81199 0.0
H867 H 0.86716 0.1608 0.83149 0.0
H868 H 0.78512 0.1184 0.83903 0.0
H869 H 0.80324 0.13392 0.85925 0.0
H870 H 0.81722 0.11606 0.80999 0.0
H871 H 0.83526 0.13093 0.83054 0.0
H872 H 0.80042 0.09757 0.89038 0.0
H873 H 0.81978 0.11542 0.87357 0.0
H874 H 0.79738 0.1311 0.91617 0.0
H875 H 0.81684 0.14886 0.89949 0.0
N876 N 0.84231 0.15535 0.8835 0.0
N877 N 0.84378 0.15434 0.8499 0.0
C878 C 0.80644 0.70646 0.88838 0.0
C879 C 0.79996 0.69566 0.90042 0.0
C880 C 0.81807 0.70791 0.87933 0.0
C881 C 0.82342 0.69857 0.88213 0.0
C882 C 0.80539 0.68634 0.90314 0.0
C883 C 0.81705 0.68787 0.89419 0.0
C884 C 0.83591 0.70013 0.87298 0.0
C885 C 0.80136 0.68472 0.83385 0.0
C886 C 0.80354 0.695 0.82172 0.0
C887 C 0.81213 0.687 0.84519 0.0
C888 C 0.8253 0.69957 0.84451 0.0
C889 C 0.81663 0.70769 0.82124 0.0
C890 C 0.82749 0.70987 0.83243 0.0
C891 C 0.8371 0.70139 0.85547 0.0
C892 C 0.8844 0.69028 0.84042 0.0
C893 C 0.89073 0.69962 0.82694 0.0
C894 C 0.87467 0.69156 0.85058 0.0
C895 C 0.87122 0.70235 0.84764 0.0
C896 C 0.88747 0.71058 0.82422 0.0
C897 C 0.87774 0.71186 0.83441 0.0
C898 C 0.85974 0.70276 0.85709 0.0
C899 C 0.89426 0.71132 0.89425 0.0
C900 C 0.89031 0.70081 0.90665 0.0
C901 C 0.88401 0.71171 0.88389 0.0
C902 C 0.86963 0.70151 0.88562 0.0
C903 C 0.87585 0.69081 0.90856 0.0
C904 C 0.86563 0.69122 0.89822 0.0
C905 C 0.85859 0.70157 0.87466 0.0
H906 H 0.80271 0.71397 0.88615 0.0
H907 H 0.82302 0.71648 0.87036 0.0
H908 H 0.80054 0.67775 0.91208 0.0
H909 H 0.82101 0.68055 0.89656 0.0
H910 H 0.79135 0.67487 0.83448 0.0
H911 H 0.81031 0.67879 0.85421 0.0
H912 H 0.8186 0.71571 0.81188 0.0
H913 H 0.83764 0.71955 0.83159 0.0
H914 H 0.88673 0.68178 0.84291 0.0
H915 H 0.86949 0.6838 0.86037 0.0
H916 H 0.89199 0.71781 0.81379 0.0
H917 H 0.87508 0.72013 0.83175 0.0
H918 H 0.90527 0.71933 0.89264 0.0
H919 H 0.88733 0.72002 0.87456 0.0
H920 H 0.87244 0.68246 0.91783 0.0
H921 H 0.85459 0.68328 0.89985 0.0
N922 N 0.84668 0.70022 0.88189 0.0
N923 N 0.84897 0.70272 0.8482 0.0
C924 C 0.76941 0.62149 0.45857 0.0
C925 C 0.77172 0.63253 0.44744 0.0
C926 C 0.78072 0.62187 0.46752 0.0
C927 C 0.79453 0.63331 0.46551 0.0
C928 C 0.78565 0.6438 0.44528 0.0
C929 C 0.79694 0.64411 0.4541 0.0
C930 C 0.80654 0.63424 0.47535 0.0
C931 C 0.77914 0.64163 0.5113 0.0
C932 C 0.77436 0.63246 0.52511 0.0
C933 C 0.7894 0.64178 0.50072 0.0
C934 C 0.7948 0.63246 0.50344 0.0
C935 C 0.77985 0.62323 0.52795 0.0
C936 C 0.78997 0.62323 0.51721 0.0
C937 C 0.80636 0.63315 0.49294 0.0
C938 C 0.86619 0.65331 0.51206 0.0
C939 C 0.86458 0.6433 0.52437 0.0
C940 C 0.855 0.65068 0.5012 0.0
C941 C 0.84199 0.63801 0.50246 0.0
C942 C 0.85165 0.63041 0.52517 0.0
C943 C 0.84043 0.62788 0.51445 0.0
C944 C 0.82961 0.63591 0.49247 0.0
C945 C 0.85923 0.63206 0.45662 0.0
C946 C 0.86482 0.64284 0.44443 0.0
C947 C 0.84794 0.63024 0.46662 0.0
C948 C 0.84202 0.63918 0.46468 0.0
C949 C 0.85877 0.65169 0.44247 0.0
C950 C 0.84742 0.6498 0.4524 0.0
C951 C 0.82985 0.63718 0.47493 0.0
H952 H 0.75888 0.61253 0.46034 0.0
H953 H 0.77869 0.61328 0.47606 0.0
H954 H 0.78783 0.65263 0.43707 0.0
H955 H 0.80752 0.65302 0.45238 0.0
H956 H 0.77535 0.6491 0.50904 0.0
H957 H 0.79338 0.6495 0.49071 0.0
H958 H 0.77637 0.61607 0.53854 0.0
H959 H 0.79411 0.61609 0.51974 0.0
H960 H 0.87588 0.66345 0.51123 0.0
H961 H 0.85633 0.65879 0.49227 0.0
H962 H 0.85011 0.62232 0.53424 0.0
H963 H 0.83044 0.61805 0.51564 0.0
H964 H 0.8634 0.62484 0.45825 0.0
H965 H 0.8437 0.6217 0.47569 0.0
H966 H 0.86289 0.66022 0.43338 0.0
H967 H 0.84298 0.65678 0.45063 0.0
N968 N 0.81831 0.63634 0.46704 0.0
N969 N 0.81788 0.6339 0.50078 0.0
C970 C 0.34748 0.21653 0.45675 0.0
C971 C 0.3604 0.22669 0.44965 0.0
C972 C 0.34647 0.20475 0.46517 0.0
C973 C 0.3583 0.2028 0.46656 0.0
C974 C 0.3721 0.2244 0.45056 0.0
C975 C 0.37101 0.21246 0.45883 0.0
C976 C 0.35747 0.19098 0.47665 0.0
C977 C 0.35952 0.22428 0.51246 0.0
C978 C 0.34836 0.21931 0.524 0.0
C979 C 0.36142 0.21472 0.50251 0.0
C980 C 0.35195 0.2 0.50353 0.0
C981 C 0.339 0.20455 0.52507 0.0
C982 C 0.34076 0.19505 0.51493 0.0
C983 C 0.35402 0.18949 0.49377 0.0
C984 C 0.36004 0.13968 0.51613 0.0
C985 C 0.34789 0.1328 0.52618 0.0
C986 C 0.36188 0.1507 0.50539 0.0
C987 C 0.35159 0.155 0.50452 0.0
C988 C 0.33753 0.13701 0.52497 0.0
C989 C 0.33943 0.14808 0.51438 0.0
C990 C 0.35367 0.16722 0.49418 0.0
C991 C 0.34676 0.13207 0.45958 0.0
C992 C 0.35745 0.1354 0.44781 0.0
C993 C 0.34645 0.14283 0.46888 0.0
C994 C 0.35715 0.15709 0.46706 0.0
C995 C 0.36781 0.14968 0.4454 0.0
C996 C 0.36769 0.16045 0.45501 0.0
C997 C 0.35692 0.16858 0.47698 0.0
H998 H 0.33812 0.21769 0.45587 0.0
H999 H 0.33649 0.19724 0.47083 0.0
H1000 H 0.38223 0.23202 0.44533 0.0
H1001 H 0.38024 0.21107 0.45976 0.0
H1002 H 0.3669 0.23556 0.5112 0.0
H1003 H 0.37047 0.21886 0.49432 0.0
H1004 H 0.3305 0.20023 0.53406 0.0
H1005 H 0.33342 0.18375 0.51616 0.0
H1006 H 0.36832 0.13684 0.51691 0.0
H1007 H 0.37146 0.15608 0.49808 0.0
H1008 H 0.32791 0.13178 0.53225 0.0
H1009 H 0.33136 0.15123 0.51387 0.0
H1010 H 0.33846 0.12115 0.46134 0.0
H1011 H 0.33773 0.13994 0.47734 0.0
H1012 H 0.37608 0.15247 0.43627 0.0
H1013 H 0.37589 0.17139 0.45311 0.0
N1014 N 0.35883 0.18052 0.4689 0.0
N1015 N 0.35226 0.17766 0.5018 0.0
C1016 C 0.78909 0.13157 0.45968 0.0
C1017 C 0.78111 0.13373 0.44726 0.0
C1018 C 0.79947 0.14303 0.46872 0.0
C1019 C 0.80197 0.15691 0.46583 0.0
C1020 C 0.78367 0.14766 0.44426 0.0
C1021 C 0.7941 0.15917 0.45339 0.0
C1022 C 0.81328 0.16902 0.47526 0.0
C1023 C 0.77982 0.14389 0.51411 0.0
C1024 C 0.78406 0.13646 0.52515 0.0
C1025 C 0.7896 0.15421 0.50328 0.0
C1026 C 0.80381 0.15739 0.50342 0.0
C1027 C 0.79828 0.13952 0.52485 0.0
C1028 C 0.80806 0.15 0.5143 0.0
C1029 C 0.8145 0.16877 0.49278 0.0
C1030 C 0.86635 0.2251 0.5095 0.0
C1031 C 0.87074 0.22015 0.52328 0.0
C1032 C 0.85553 0.21545 0.49891 0.0
C1033 C 0.84927 0.20068 0.50169 0.0
C1034 C 0.8646 0.20544 0.52594 0.0
C1035 C 0.85403 0.19583 0.51524 0.0
C1036 C 0.83689 0.19012 0.49181 0.0
C1037 C 0.87142 0.2117 0.4538 0.0
C1038 C 0.86911 0.22074 0.44316 0.0
C1039 C 0.86056 0.20195 0.46402 0.0
C1040 C 0.84716 0.20099 0.46367 0.0
C1041 C 0.85567 0.21975 0.4428 0.0
C1042 C 0.84473 0.20981 0.45282 0.0
C1043 C 0.83561 0.19052 0.47427 0.0
H1044 H 0.78732 0.12099 0.46244 0.0
H1045 H 0.80569 0.14102 0.47787 0.0
H1046 H 0.77781 0.14968 0.43464 0.0
H1047 H 0.796 0.16983 0.45079 0.0
H1048 H 0.76905 0.14202 0.51409 0.0
H1049 H 0.78614 0.15993 0.49509 0.0
H1050 H 0.80193 0.1338 0.53275 0.0
H1051 H 0.81898 0.15225 0.51452 0.0
H1052 H 0.87086 0.23643 0.50735 0.0
H1053 H 0.85177 0.21958 0.48898 0.0
H1054 H 0.86789 0.20138 0.53644 0.0
H1055 H 0.84939 0.18454 0.51775 0.0
H1056 H 0.88169 0.2123 0.45436 0.0
H1057 H 0.86259 0.1951 0.47213 0.0
H1058 H 0.8536 0.22652 0.43461 0.0
H1059 H 0.83442 0.20913 0.45228 0.0
N1060 N 0.82383 0.17996 0.46665 0.0
N1061 N 0.82626 0.17924 0.50031 0.0
C1062 C 0.97355 0.53164 0.16405 0.0
C1063 C 0.98377 0.53742 0.15139 0.0
C1064 C 0.97251 0.52049 0.17404 0.0
C1065 C 0.98179 0.51505 0.17165 0.0
C1066 C 0.99279 0.53168 0.14882 0.0
C1067 C 0.99177 0.52062 0.15881 0.0
C1068 C 0.98099 0.50327 0.18197 0.0
C1069 C 0.99337 0.54025 0.2166 0.0
C1070 C 0.98476 0.53747 0.23066 0.0
C1071 C 0.992 0.52908 0.20654 0.0
C1072 C 0.98161 0.51494 0.20995 0.0
C1073 C 0.97467 0.52334 0.23441 0.0
C1074 C 0.97308 0.51218 0.22411 0.0
C1075 C 0.98028 0.5029 0.19962 0.0
C1076 C 0.99196 0.45579 0.21707 0.0
C1077 C 0.98136 0.44786 0.22877 0.0
C1078 C 0.99135 0.46633 0.20756 0.0
C1079 C 0.98007 0.4691 0.20947 0.0
C1080 C 0.9701 0.45071 0.23073 0.0
C1081 C 0.96954 0.46134 0.22126 0.0
C1082 C 0.97952 0.48038 0.1995 0.0
C1083 C 0.97181 0.44488 0.16412 0.0
C1084 C 0.98277 0.4488 0.1525 0.0
C1085 C 0.97096 0.45525 0.17372 0.0
C1086 C 0.98107 0.46972 0.17185 0.0
C1087 C 0.99273 0.46331 0.15051 0.0
C1088 C 0.99182 0.47366 0.16 0.0
C1089 C 0.98048 0.48089 0.18195 0.0
H1090 H 0.96645 0.53581 0.16635 0.0
H1091 H 0.96447 0.51614 0.1836 0.0
H1092 H 0.00056 0.53563 0.13894 0.0
H1093 H 0.99892 0.51648 0.15657 0.0
H1094 H 0.00143 0.55104 0.21368 0.0
H1095 H 0.99926 0.53153 0.19626 0.0
H1096 H 0.96797 0.52094 0.24525 0.0
H1097 H 0.96517 0.50137 0.22722 0.0
H1098 H 0.00072 0.45379 0.2152 0.0
H1099 H 0.99975 0.47238 0.19877 0.0
H1100 H 0.96188 0.44489 0.2398 0.0
H1101 H 0.96083 0.46344 0.22304 0.0
H1102 H 0.964 0.43379 0.16593 0.0
H1103 H 0.96241 0.45198 0.18255 0.0
H1104 H 0.00116 0.46668 0.14147 0.0
H1105 H 0.99965 0.48476 0.15825 0.0
N1106 N 0.9812 0.49231 0.1739 0.0
N1107 N 0.97941 0.49136 0.20767 0.0
C1108 C 0.47111 0.45272 0.16717 0.0
C1109 C 0.46421 0.4573 0.15579 0.0
C1110 C 0.48102 0.46227 0.17863 0.0
C1111 C 0.48421 0.47655 0.17891 0.0
C1112 C 0.46718 0.47155 0.15652 0.0
C1113 C 0.47719 0.48109 0.16782 0.0
C1114 C 0.49558 0.4871 0.18979 0.0
C1115 C 0.45962 0.45864 0.22299 0.0
C1116 C 0.46301 0.45183 0.23571 0.0
C1117 C 0.47032 0.46961 0.21376 0.0
C1118 C 0.48464 0.47371 0.21674 0.0
C1119 C 0.47732 0.45616 0.239 0.0
C1120 C 0.48803 0.46699 0.22958 0.0
C1121 C 0.49614 0.48552 0.20725 0.0
C1122 C 0.54181 0.54297 0.22874 0.0
C1123 C 0.55024 0.53976 0.23934 0.0
C1124 C 0.53146 0.53243 0.21859 0.0
C1125 C 0.52925 0.51847 0.219 0.0
C1126 C 0.54805 0.5258 0.23973 0.0
C1127 C 0.53748 0.51517 0.22978 0.0
C1128 C 0.51815 0.50732 0.20841 0.0
C1129 C 0.55389 0.53352 0.17305 0.0
C1130 C 0.55048 0.54023 0.16018 0.0
C1131 C 0.54332 0.52367 0.1835 0.0
C1132 C 0.52915 0.52042 0.18136 0.0
C1133 C 0.53635 0.5372 0.15832 0.0
C1134 C 0.52579 0.52733 0.16874 0.0
C1135 C 0.51762 0.5088 0.19097 0.0
H1136 H 0.46926 0.44191 0.16683 0.0
H1137 H 0.48651 0.45861 0.18691 0.0
H1138 H 0.46188 0.4754 0.14822 0.0
H1139 H 0.47951 0.49208 0.16785 0.0
H1140 H 0.44868 0.45574 0.22047 0.0
H1141 H 0.46737 0.47503 0.20451 0.0
H1142 H 0.48021 0.45109 0.24878 0.0
H1143 H 0.49899 0.47009 0.23229 0.0
H1144 H 0.54335 0.55367 0.22819 0.0
H1145 H 0.52508 0.53514 0.2105 0.0
H1146 H 0.55438 0.52308 0.24789 0.0
H1147 H 0.53586 0.50443 0.23032 0.0
H1148 H 0.56469 0.53567 0.17483 0.0
H1149 H 0.54616 0.51822 0.19283 0.0
H1150 H 0.53334 0.54202 0.14838 0.0
H1151 H 0.51492 0.52486 0.16673 0.0
N1152 N 0.50631 0.49868 0.18237 0.0
N1153 N 0.50745 0.4957 0.2159 0.0
C1154 C 0.4682 0.01969 0.22438 0.0
C1155 C 0.46041 0.00807 0.23509 0.0
C1156 C 0.47903 0.02021 0.21449 0.0
C1157 C 0.48232 0.00916 0.21517 0.0
C1158 C 0.46372 0.99697 0.23556 0.0
C1159 C 0.47465 0.9976 0.22586 0.0
C1160 C 0.4941 0.00979 0.20537 0.0
C1161 C 0.45969 0.00232 0.16819 0.0
C1162 C 0.46389 0.01167 0.15455 0.0
C1163 C 0.46981 0.00245 0.17921 0.0
C1164 C 0.48431 0.01229 0.17714 0.0
C1165 C 0.47833 0.0214 0.15235 0.0
C1166 C 0.48843 0.02174 0.16357 0.0
C1167 C 0.49537 0.01194 0.1879 0.0
C1168 C 0.54165 0.99995 0.16976 0.0
C1169 C 0.55031 0.01158 0.15945 0.0
C1170 C 0.53113 1.00017 0.17952 0.0
C1171 C 0.52895 0.01194 0.17907 0.0
C1172 C 0.54815 0.02344 0.15923 0.0
C1173 C 0.53745 0.02352 0.16879 0.0
C1174 C 0.51737 0.01187 0.18874 0.0
C1175 C 0.55161 0.01885 0.22543 0.0
C1176 C 0.54778 0.00764 0.23686 0.0
C1177 C 0.54134 0.01951 0.21541 0.0
C1178 C 0.52704 0.00894 0.21652 0.0
C1179 C 0.5334 0.99717 0.23809 0.0
C1180 C 0.52313 0.99787 0.22809 0.0
C1181 C 0.51606 0.00967 0.20613 0.0
H1182 H 0.46616 0.02855 0.22387 0.0
H1183 H 0.48501 0.02936 0.20654 0.0
H1184 H 0.4578 0.98771 0.24335 0.0
H1185 H 0.47703 0.98897 0.22656 0.0
H1186 H 0.44861 0.99454 0.16994 0.0
H1187 H 0.46629 0.99452 0.18898 0.0
H1188 H 0.48181 0.0287 0.14189 0.0
H1189 H 0.49953 0.02931 0.16151 0.0
H1190 H 0.5427 0.99048 0.17001 0.0
H1191 H 0.52448 0.99099 0.18715 0.0
H1192 H 0.55472 0.03269 0.1517 0.0
H1193 H 0.53589 0.0327 0.16827 0.0
H1194 H 0.56252 0.02726 0.22441 0.0
H1195 H 0.54457 0.02841 0.20695 0.0
H1196 H 0.53009 0.98831 0.24662 0.0
H1197 H 0.51214 0.98965 0.22923 0.0
N1198 N 0.50445 0.00864 0.21377 0.0
N1199 N 0.50703 0.01298 0.18031 0.0
C1200 C 0.54608 0.00667 0.79501 0.0
C1201 C 0.54299 0.997 0.78182 0.0
C1202 C 0.53523 0.00599 0.80494 0.0
C1203 C 0.52107 0.99539 0.80218 0.0
C1204 C 0.5288 0.98667 0.77873 0.0
C1205 C 0.51795 0.98587 0.78881 0.0
C1206 C 0.50941 0.99456 0.81258 0.0
C1207 C 0.53651 0.98699 0.85053 0.0
C1208 C 0.54299 0.998 0.86241 0.0
C1209 C 0.52625 0.98657 0.83949 0.0
C1210 C 0.52229 0.99714 0.84017 0.0
C1211 C 0.53938 0.00887 0.86249 0.0
C1212 C 0.52901 0.00834 0.85163 0.0
C1213 C 0.51029 0.99595 0.83013 0.0
C1214 C 0.45115 0.98269 0.84942 0.0
C1215 C 0.45484 0.99221 0.86289 0.0
C1216 C 0.46165 0.98318 0.83891 0.0
C1217 C 0.47597 0.99348 0.8414 0.0
C1218 C 0.46917 0.00231 0.86554 0.0
C1219 C 0.47961 0.00294 0.85491 0.0
C1220 C 0.48741 0.99407 0.83074 0.0
C1221 C 0.45905 0.00182 0.79672 0.0
C1222 C 0.45227 0.9914 0.78429 0.0
C1223 C 0.47025 0.00237 0.80601 0.0
C1224 C 0.47473 0.99235 0.80328 0.0
C1225 C 0.45701 0.9816 0.78127 0.0
C1226 C 0.46817 0.9821 0.79067 0.0
C1227 C 0.48655 0.99284 0.81314 0.0
H1228 H 0.55689 0.01494 0.79745 0.0
H1229 H 0.53792 0.01392 0.81462 0.0
H1230 H 0.52612 0.97907 0.76866 0.0
H1231 H 0.50712 0.97772 0.78626 0.0
H1232 H 0.53887 0.97834 0.85025 0.0
H1233 H 0.52101 0.97772 0.83089 0.0
H1234 H 0.54436 0.01767 0.8712 0.0
H1235 H 0.5261 0.0166 0.85231 0.0
H1236 H 0.4402 0.97468 0.84725 0.0
H1237 H 0.45856 0.97539 0.829 0.0
H1238 H 0.4723 0.00984 0.87576 0.0
H1239 H 0.49056 0.0109 0.85722 0.0
H1240 H 0.45587 0.00974 0.79903 0.0
H1241 H 0.47546 0.01069 0.81527 0.0
H1242 H 0.45199 0.97346 0.77177 0.0
H1243 H 0.47159 0.97438 0.78823 0.0
N1244 N 0.49752 0.993 0.80478 0.0
N1245 N 0.4993 0.99569 0.83846 0.0
C1246 C 0.00072 0.54242 0.79741 0.0
C1247 C 0.01111 0.55023 0.78543 0.0
C1248 C 0.00148 0.53195 0.80688 0.0
C1249 C 0.01275 0.52919 0.80475 0.0
C1250 C 0.02224 0.54726 0.78309 0.0
C1251 C 0.02299 0.53674 0.79259 0.0
C1252 C 0.01366 0.51825 0.81499 0.0
C1253 C 0.02051 0.55391 0.84967 0.0
C1254 C 0.011 0.54986 0.86308 0.0
C1255 C 0.02118 0.54361 0.83975 0.0
C1256 C 0.01208 0.52904 0.84274 0.0
C1257 C 0.00217 0.53525 0.86628 0.0
C1258 C 0.0027 0.52499 0.85621 0.0
C1259 C 0.01264 0.51785 0.83258 0.0
C1260 C 0.02193 0.46974 0.85359 0.0
C1261 C 0.01093 0.46316 0.86529 0.0
C1262 C 0.02237 0.4801 0.84267 0.0
C1263 C 0.01182 0.48405 0.84328 0.0
C1264 C 1.00025 0.46698 0.86553 0.0
C1265 C 0.00079 0.47741 0.85478 0.0
C1266 C 0.01257 0.49569 0.83283 0.0
C1267 C 0.0025 0.45918 0.79848 0.0
C1268 C 0.01187 0.46227 0.78511 0.0
C1269 C 0.00306 0.47012 0.80829 0.0
C1270 C 0.01328 0.48438 0.80523 0.0
C1271 C 0.02183 0.47654 0.78174 0.0
C1272 C 0.02253 0.48749 0.79172 0.0
C1273 C 0.01373 0.49613 0.81526 0.0
H1274 H 0.99207 0.54452 0.79962 0.0
H1275 H 0.99327 0.52604 0.81594 0.0
H1276 H 0.03029 0.55296 0.77379 0.0
H1277 H 0.03167 0.53464 0.79062 0.0
H1278 H 0.02744 0.56503 0.84676 0.0
H1279 H 0.02891 0.54708 0.82984 0.0
H1280 H 0.99498 0.53168 0.87674 0.0
H1281 H 0.99572 0.51384 0.85898 0.0
H1282 H 0.03043 0.46721 0.85319 0.0
H1283 H 0.03111 0.48527 0.83405 0.0
H1284 H 0.99144 0.46193 0.87407 0.0
H1285 H 0.99254 0.4803 0.85543 0.0
H1286 H 0.9945 0.44829 0.80111 0.0
H1287 H 0.9953 0.46741 0.81805 0.0
H1288 H 0.02915 0.47921 0.77148 0.0
H1289 H 0.03034 0.49841 0.78893 0.0
N1290 N 0.0143 0.50746 0.80703 0.0
N1291 N 0.01205 0.50653 0.84074 0.0
C1292 C 0.52648 0.55951 0.78944 0.0
C1293 C 0.53295 0.55476 0.77785 0.0
C1294 C 0.51508 0.54977 0.79906 0.0
C1295 C 0.50991 0.53508 0.79729 0.0
C1296 C 0.52761 0.54001 0.77603 0.0
C1297 C 0.51615 0.53029 0.78555 0.0
C1298 C 0.49782 0.5246 0.80731 0.0
C1299 C 0.53351 0.54604 0.84513 0.0
C1300 C 0.53151 0.55507 0.85611 0.0
C1301 C 0.52255 0.5367 0.83457 0.0
C1302 C 0.50932 0.53608 0.83487 0.0
C1303 C 0.51828 0.55462 0.85601 0.0
C1304 C 0.50725 0.54507 0.84566 0.0
C1305 C 0.49737 0.52535 0.82483 0.0
C1306 C 0.45045 0.46743 0.84328 0.0
C1307 C 0.44527 0.47102 0.85741 0.0
C1308 C 0.45994 0.47805 0.83257 0.0
C1309 C 0.46412 0.49244 0.83551 0.0
C1310 C 0.44951 0.4854 0.86041 0.0
C1311 C 0.45884 0.496 0.84957 0.0
C1312 C 0.47499 0.50393 0.82502 0.0
C1313 C 0.43853 0.47668 0.79095 0.0
C1314 C 0.442 0.47094 0.77724 0.0
C1315 C 0.44923 0.48744 0.80062 0.0
C1316 C 0.46359 0.49226 0.7971 0.0
C1317 C 0.45632 0.47616 0.77333 0.0
C1318 C 0.467 0.48668 0.78318 0.0
C1319 C 0.4752 0.50341 0.80736 0.0
H1320 H 0.53009 0.57076 0.79095 0.0
H1321 H 0.5102 0.55372 0.80773 0.0
H1322 H 0.53243 0.53594 0.76744 0.0
H1323 H 0.51231 0.51899 0.78396 0.0
H1324 H 0.54338 0.5458 0.84504 0.0
H1325 H 0.52426 0.52964 0.82652 0.0
H1326 H 0.51638 0.56158 0.86398 0.0
H1327 H 0.49708 0.54471 0.84607 0.0
H1328 H 0.44757 0.45645 0.84085 0.0
H1329 H 0.46427 0.47501 0.82224 0.0
H1330 H 0.44567 0.48846 0.87121 0.0
H1331 H 0.46205 0.50702 0.85225 0.0
H1332 H 0.42754 0.47294 0.79406 0.0
H1333 H 0.44625 0.49194 0.81084 0.0
H1334 H 0.45926 0.47185 0.76286 0.0
H1335 H 0.47797 0.49031 0.78004 0.0
N1336 N 0.48671 0.51369 0.79926 0.0
N1337 N 0.48602 0.51501 0.833 0.0
C1338 C 0.64769 0.78319 0.50896 0.0
C1339 C 0.63925 0.77709 0.49466 0.0
C1340 C 0.64546 0.79239 0.51913 0.0
C1341 C 0.63455 0.79545 0.51544 0.0
C1342 C 0.62835 0.7802 0.49097 0.0
C1343 C 0.62607 0.78934 0.50122 0.0
C1344 C 0.63273 0.80593 0.52552 0.0
C1345 C 0.62431 0.76925 0.55847 0.0
C1346 C 0.63463 0.77276 0.57106 0.0
C1347 C 0.62331 0.77995 0.54971 0.0
C1348 C 0.63271 0.79437 0.55324 0.0
C1349 C 0.64363 0.7872 0.57501 0.0
C1350 C 0.64261 0.79789 0.56625 0.0
C1351 C 0.6326 0.80586 0.54317 0.0
C1352 C 0.62553 0.85708 0.55865 0.0
C1353 C 0.63613 0.86362 0.57095 0.0
C1354 C 0.62414 0.84529 0.54979 0.0
C1355 C 0.63336 0.83988 0.55306 0.0
C1356 C 0.64494 0.8578 0.57464 0.0
C1357 C 0.6435 0.846 0.56585 0.0
C1358 C 0.63276 0.82807 0.54308 0.0
C1359 C 0.64816 0.86519 0.50745 0.0
C1360 C 0.63919 0.86286 0.49364 0.0
C1361 C 0.64584 0.85398 0.5181 0.0
C1362 C 0.63441 0.84024 0.51525 0.0
C1363 C 0.62763 0.84913 0.49096 0.0
C1364 C 0.62534 0.83791 0.50159 0.0
C1365 C 0.63273 0.82804 0.52544 0.0
H1366 H 0.6561 0.78095 0.51226 0.0
H1367 H 0.65249 0.79733 0.52969 0.0
H1368 H 0.62182 0.7759 0.47989 0.0
H1369 H 0.61775 0.79175 0.49797 0.0
H1370 H 0.61703 0.75823 0.55534 0.0
H1371 H 0.61533 0.77697 0.54 0.0
H1372 H 0.65179 0.79031 0.5845 0.0
H1373 H 0.64994 0.80893 0.56924 0.0
H1374 H 0.61859 0.86133 0.55553 0.0
H1375 H 0.61601 0.84054 0.54022 0.0
H1376 H 0.65304 0.86246 0.58425 0.0
H1377 H 0.65063 0.84192 0.56871 0.0
H1378 H 0.65712 0.87566 0.50988 0.0
H1379 H 0.65323 0.85599 0.52827 0.0
H1380 H 0.62065 0.84695 0.4803 0.0
H1381 H 0.61659 0.82734 0.49902 0.0
N1382 N 0.63265 0.81694 0.51737 0.0
N1383 N 0.63276 0.817 0.55126 0.0
C1384 C 0.13444 0.77889 0.50848 0.0
C1385 C 0.12966 0.78338 0.49455 0.0
C1386 C 0.14531 0.78883 0.51874 0.0
C1387 C 0.15138 0.8035 0.51557 0.0
C1388 C 0.13601 0.79807 0.49124 0.0
C1389 C 0.14668 0.80797 0.50164 0.0
C1390 C 0.16321 0.81433 0.52588 0.0
C1391 C 0.12691 0.79146 0.56121 0.0
C1392 C 0.12947 0.78424 0.57426 0.0
C1393 C 0.13801 0.80112 0.55121 0.0
C1394 C 0.15187 0.8036 0.55384 0.0
C1395 C 0.14342 0.78695 0.57705 0.0
C1396 C 0.15452 0.79659 0.56699 0.0
C1397 C 0.16375 0.81403 0.54351 0.0
C1398 C 0.21295 0.87181 0.5603 0.0
C1399 C 0.21853 0.86822 0.57424 0.0
C1400 C 0.20252 0.86122 0.55025 0.0
C1401 C 0.19775 0.84676 0.5535 0.0
C1402 C 0.21352 0.85371 0.57767 0.0
C1403 C 0.20326 0.84312 0.56741 0.0
C1404 C 0.18629 0.83536 0.54334 0.0
C1405 C 0.22118 0.8612 0.50637 0.0
C1406 C 0.21713 0.8682 0.49453 0.0
C1407 C 0.21103 0.85069 0.51671 0.0
C1408 C 0.19669 0.84701 0.51531 0.0
C1409 C 0.20275 0.86439 0.49313 0.0
C1410 C 0.19264 0.85384 0.50333 0.0
C1411 C 0.18565 0.83571 0.52573 0.0
H1412 H 0.12979 0.76769 0.51149 0.0
H1413 H 0.14905 0.785 0.52902 0.0
H1414 H 0.13296 0.80197 0.48041 0.0
H1415 H 0.15132 0.81919 0.49872 0.0
H1416 H 0.1163 0.78957 0.55863 0.0
H1417 H 0.13574 0.8067 0.54146 0.0
H1418 H 0.14581 0.78177 0.58716 0.0
H1419 H 0.16517 0.79853 0.56943 0.0
H1420 H 0.2166 0.88282 0.55709 0.0
H1421 H 0.19804 0.8644 0.5401 0.0
H1422 H 0.21728 0.85047 0.58848 0.0
H1423 H 0.19956 0.83204 0.57041 0.0
H1424 H 0.23218 0.86392 0.50771 0.0
H1425 H 0.21436 0.84537 0.52568 0.0
H1426 H 0.19928 0.86941 0.48393 0.0
H1427 H 0.18162 0.85107 0.50192 0.0
N1428 N 0.17415 0.82522 0.51777 0.0
N1429 N 0.17533 0.82447 0.5515 0.0
C1430 C 0.22263 0.36936 0.50266 0.0
C1431 C 0.21896 0.3606 0.48847 0.0
C1432 C 0.2121 0.36826 0.51357 0.0
C1433 C 0.1978 0.35808 0.51071 0.0
C1434 C 0.20466 0.35058 0.48553 0.0
C1435 C 0.19421 0.34934 0.49652 0.0
C1436 C 0.18629 0.35696 0.5216 0.0
C1437 C 0.21412 0.3473 0.55446 0.0
C1438 C 0.21999 0.35631 0.56836 0.0
C1439 C 0.20337 0.34758 0.54501 0.0
C1440 C 0.19853 0.35713 0.54899 0.0
C1441 C 0.21491 0.36561 0.57259 0.0
C1442 C 0.20427 0.36601 0.563 0.0
C1443 C 0.18693 0.35731 0.53924 0.0
C1444 C 0.12727 0.34298 0.55763 0.0
C1445 C 0.13038 0.35223 0.57123 0.0
C1446 C 0.13815 0.34379 0.54766 0.0
C1447 C 0.15231 0.35427 0.55071 0.0
C1448 C 0.14455 0.3623 0.57477 0.0
C1449 C 0.15542 0.36335 0.56454 0.0
C1450 C 0.16402 0.35549 0.5401 0.0
C1451 C 0.13428 0.36087 0.50416 0.0
C1452 C 0.1284 0.35005 0.49198 0.0
C1453 C 0.14552 0.3624 0.51431 0.0
C1454 C 0.15098 0.35306 0.51254 0.0
C1455 C 0.13384 0.34067 0.49042 0.0
C1456 C 0.14507 0.34224 0.5005 0.0
C1457 C 0.16327 0.35477 0.52248 0.0
H1458 H 0.23357 0.37727 0.5051 0.0
H1459 H 0.21514 0.37549 0.52408 0.0
H1460 H 0.20157 0.3436 0.47477 0.0
H1461 H 0.18327 0.34148 0.49394 0.0
H1462 H 0.2176 0.33979 0.55114 0.0
H1463 H 0.19873 0.34017 0.53472 0.0
H1464 H 0.21924 0.37266 0.58325 0.0
H1465 H 0.20057 0.37332 0.56647 0.0
H1466 H 0.11642 0.33492 0.55492 0.0
H1467 H 0.13546 0.33614 0.53767 0.0
H1468 H 0.14717 0.36947 0.58529 0.0
H1469 H 0.16626 0.37135 0.56735 0.0
H1470 H 0.13046 0.36838 0.50552 0.0
H1471 H 0.15011 0.371 0.52332 0.0
H1472 H 0.12943 0.33209 0.48138 0.0
H1473 H 0.14913 0.33493 0.49892 0.0
N1474 N 0.17442 0.35555 0.51402 0.0
N1475 N 0.17585 0.35676 0.54776 0.0
H1476 H 0.98276 0.35889 0.04492 0.0
H1477 H 0.97605 0.36943 0.0677 0.0
H1478 H 0.02019 0.39746 0.07936 0.0
H1479 H 0.02701 0.38711 0.05656 0.0
H1480 H 0.00232 0.38611 0.10809 0.0
H1481 H 0.00515 0.40976 0.05567 0.0
H1482 H 0.99905 0.41017 0.02605 0.0
H1483 H 0.95513 0.3924 0.03874 0.0
H1484 H 0.96095 0.39162 0.06843 0.0
H1485 H 0.00654 0.44699 0.14616 0.0
H1486 H 0.00867 0.42982 0.12832 0.0
H1487 H 0.9637 0.40871 0.11818 0.0
H1488 H 0.96152 0.42604 0.1359 0.0
H1489 H 0.97914 0.41374 0.08974 0.0
H1490 H 0.97647 0.3926 0.14257 0.0
H1491 H 0.98229 0.3917 0.17216 0.0
H1492 H 0.02522 0.4042 0.15915 0.0
H1493 H 0.0197 0.40537 0.12946 0.0
C1494 C 0.99104 0.3671 0.05253 0.0
C1495 C 0.00542 0.37225 0.04884 0.0
C1496 C 0.98718 0.37313 0.06551 0.0
C1497 C 0.99764 0.38427 0.07511 0.0
C1498 C 0.01197 0.38885 0.07209 0.0
C1499 C 0.01584 0.38297 0.059 0.0
C1500 C 0.99376 0.39209 0.08723 0.0
C1501 C 0.99731 0.3922 0.10411 0.0
C1502 C 0.98693 0.39976 0.08203 0.0
C1503 C 0.98345 0.40047 0.06424 0.0
C1504 C 0.99417 0.40583 0.05213 0.0
C1505 C 0.99078 0.40614 0.03533 0.0
C1506 C 0.97671 0.40128 0.03051 0.0
C1507 C 0.96602 0.39614 0.04249 0.0
C1508 C 0.96936 0.39576 0.05931 0.0
C1509 C 0.9971 0.43869 0.14014 0.0
C1510 C 0.98387 0.43788 0.14239 0.0
C1511 C 0.99831 0.42881 0.13007 0.0
C1512 C 0.98632 0.41791 0.12203 0.0
C1513 C 0.97307 0.417 0.12433 0.0
C1514 C 0.97183 0.42684 0.13452 0.0
C1515 C 0.98785 0.40793 0.11066 0.0
C1516 C 0.98393 0.40746 0.09384 0.0
C1517 C 0.9943 0.39991 0.11595 0.0
C1518 C 0.99769 0.39918 0.13379 0.0
C1519 C 0.98718 0.39527 0.14602 0.0
C1520 C 0.99042 0.39469 0.16282 0.0
C1521 C 0.00412 0.39792 0.16755 0.0
C1522 C 0.01461 0.40171 0.15547 0.0
C1523 C 0.01143 0.40231 0.13865 0.0
H1524 H 0.00661 0.39747 0.18057 0.0
H1525 H 0.97409 0.40153 0.01749 0.0
H1526 H 0.64699 0.61996 0.05411 0.0
H1527 H 0.63356 0.60231 0.07566 0.0
H1528 H 0.59453 0.59292 0.05066 0.0
H1529 H 0.60797 0.6098 0.0286 0.0
H1530 H 0.61447 0.60647 0.09478 0.0
H1531 H 0.5777 0.56903 0.05239 0.0
H1532 H 0.57134 0.5516 0.02957 0.0
H1533 H 0.5987 0.53729 0.0507 0.0
H1534 H 0.6058 0.55525 0.07311 0.0
H1535 H 0.55484 0.56559 0.14715 0.0
H1536 H 0.57121 0.57955 0.12492 0.0
H1537 H 0.58704 0.54988 0.12335 0.0
H1538 H 0.57051 0.53572 0.14527 0.0
H1539 H 0.58007 0.55472 0.09281 0.0
H1540 H 0.60741 0.5829 0.13917 0.0
H1541 H 0.61194 0.59683 0.16506 0.0
H1542 H 0.60293 0.62653 0.13947 0.0
H1543 H 0.59814 0.61266 0.11346 0.0
C1544 C 0.63558 0.61354 0.0528 0.0
C1545 C 0.62851 0.61575 0.03938 0.0
C1546 C 0.6279 0.60355 0.06515 0.0
C1547 C 0.61301 0.59585 0.0645 0.0
C1548 C 0.60597 0.59806 0.05102 0.0
C1549 C 0.61366 0.6079 0.03856 0.0
C1550 C 0.60491 0.58767 0.07929 0.0
C1551 C 0.60692 0.59514 0.09433 0.0
C1552 C 0.59519 0.57288 0.07885 0.0
C1553 C 0.59277 0.56391 0.06396 0.0
C1554 C 0.58283 0.56262 0.05174 0.0
C1555 C 0.57897 0.55253 0.03899 0.0
C1556 C 0.58464 0.54336 0.03865 0.0
C1557 C 0.59434 0.54442 0.05094 0.0
C1558 C 0.59847 0.55471 0.0635 0.0
C1559 C 0.56187 0.56209 0.14213 0.0
C1560 C 0.56137 0.54954 0.14795 0.0
C1561 C 0.5713 0.57014 0.12953 0.0
C1562 C 0.58039 0.56578 0.12254 0.0
C1563 C 0.58013 0.55344 0.1286 0.0
C1564 C 0.57076 0.54543 0.14122 0.0
C1565 C 0.58949 0.57355 0.10818 0.0
C1566 C 0.58767 0.56604 0.09328 0.0
C1567 C 0.59939 0.58828 0.10879 0.0
C1568 C 0.60229 0.59666 0.1244 0.0
C1569 C 0.60628 0.59233 0.13909 0.0
C1570 C 0.60892 0.60023 0.15378 0.0
C1571 C 0.60769 0.61254 0.15392 0.0
C1572 C 0.60386 0.61699 0.13935 0.0
C1573 C 0.6012 0.60912 0.12462 0.0
H1574 H 0.60975 0.61864 0.16531 0.0
H1575 H 0.58151 0.53544 0.02888 0.0
H1576 H 0.38224 0.99125 0.02875 0.0
H1577 H 0.3988 0.99309 0.05082 0.0
H1578 H 0.38352 0.01519 0.08205 0.0
H1579 H 0.3676 0.01407 0.05948 0.0
H1580 H 0.40974 0.02712 0.08628 0.0
H1581 H 0.37421 0.97863 0.08758 0.0
H1582 H 0.35789 0.95457 0.07678 0.0
H1583 H 0.39331 0.94989 0.06169 0.0
H1584 H 0.40985 0.97401 0.0722 0.0
H1585 H 0.43991 0.01328 0.16026 0.0
H1586 H 0.42232 0.01167 0.13952 0.0
H1587 H 0.44622 0.00597 0.10047 0.0
H1588 H 0.464 0.00794 0.12105 0.0
H1589 H 0.41455 0.98526 0.10231 0.0
H1590 H 0.44982 0.03556 0.10111 0.0
H1591 H 0.4647 0.05921 0.11381 0.0
H1592 H 0.42744 0.05951 0.13111 0.0
H1593 H 0.41234 0.03574 0.11875 0.0
C1594 C 0.38258 0.99661 0.0403 0.0
C1595 C 0.37403 0.00287 0.04237 0.0
C1596 C 0.39189 0.99751 0.05299 0.0
C1597 C 0.39227 0.00405 0.0683 0.0
C1598 C 0.38349 0.01012 0.0704 0.0
C1599 C 0.37443 0.00952 0.05753 0.0
C1600 C 0.40199 0.00476 0.08197 0.0
C1601 C 0.41066 0.01791 0.08981 0.0
C1602 C 0.40317 0.99273 0.08684 0.0
C1603 C 0.39327 0.97819 0.08055 0.0
C1604 C 0.37852 0.97251 0.08185 0.0
C1605 C 0.36923 0.95886 0.0758 0.0
C1606 C 0.37456 0.95072 0.06852 0.0
C1607 C 0.38919 0.95621 0.06732 0.0
C1608 C 0.39854 0.96987 0.07334 0.0
C1609 C 0.44138 0.01172 0.14723 0.0
C1610 C 0.45329 0.0108 0.14218 0.0
C1611 C 0.43138 0.01082 0.13545 0.0
C1612 C 0.43303 0.00872 0.11852 0.0
C1613 C 0.44481 0.0076 0.11349 0.0
C1614 C 0.45495 0.0088 0.12521 0.0
C1615 C 0.42247 0.00767 0.106 0.0
C1616 C 0.41359 0.99443 0.09856 0.0
C1617 C 0.42089 0.01953 0.10174 0.0
C1618 C 0.42997 0.03378 0.10923 0.0
C1619 C 0.44481 0.04059 0.10781 0.0
C1620 C 0.45328 0.05403 0.1149 0.0
C1621 C 0.44703 0.06083 0.12332 0.0
C1622 C 0.43228 0.05422 0.12462 0.0
C1623 C 0.42376 0.04076 0.11758 0.0
H1624 H 0.4536 0.07125 0.12879 0.0
H1625 H 0.36735 0.94015 0.06383 0.0
H1626 H 0.3842 0.02676 0.96133 0.0
H1627 H 0.39609 0.02269 0.938 0.0
H1628 H 0.37766 0.97844 0.95198 0.0
H1629 H 0.36521 0.98239 0.97496 0.0
H1630 H 0.41573 0.0167 0.93946 0.0
H1631 H 0.37731 0.95828 0.91918 0.0
H1632 H 0.35158 0.94184 0.91653 0.0
H1633 H 0.34429 0.97736 0.91133 0.0
H1634 H 0.36998 0.994 0.91372 0.0
H1635 H 0.45518 0.99194 0.89686 0.0
H1636 H 0.4381 0.99287 0.91581 0.0
H1637 H 0.41282 0.99247 0.87372 0.0
H1638 H 0.42977 0.99115 0.85469 0.0
H1639 H 0.39595 0.97717 0.89834 0.0
H1640 H 0.43594 0.02377 0.89326 0.0
H1641 H 0.46127 0.04198 0.89354 0.0
H1642 H 0.46435 0.03349 0.94532 0.0
H1643 H 0.43907 0.01507 0.94529 0.0
C1644 C 0.38247 0.0161 0.95922 0.0
C1645 C 0.3738 0.0049 0.96996 0.0
C1646 C 0.3893 0.01378 0.94591 0.0
C1647 C 0.38783 0.00026 0.94317 0.0
C1648 C 0.3788 0.98892 0.95359 0.0
C1649 C 0.37171 0.99119 0.96676 0.0
C1650 C 0.39669 0.99844 0.93034 0.0
C1651 C 0.41134 0.00806 0.93045 0.0
C1652 C 0.39103 0.98731 0.91839 0.0
C1653 C 0.37557 0.97738 0.9168 0.0
C1654 C 0.37022 0.96258 0.91741 0.0
C1655 C 0.35564 0.95323 0.91596 0.0
C1656 C 0.3463 0.95855 0.91382 0.0
C1657 C 0.35153 0.97325 0.91306 0.0
C1658 C 0.3661 0.98264 0.91448 0.0
C1659 C 0.44594 0.99197 0.89167 0.0
C1660 C 0.44387 0.99165 0.87431 0.0
C1661 C 0.43618 0.99251 0.90249 0.0
C1662 C 0.42432 0.99304 0.89619 0.0
C1663 C 0.42191 0.99211 0.87887 0.0
C1664 C 0.4316 0.99138 0.86802 0.0
C1665 C 0.41491 0.99533 0.90767 0.0
C1666 C 0.40024 0.98581 0.90734 0.0
C1667 C 0.42045 0.00683 0.91912 0.0
C1668 C 0.43564 0.01796 0.91923 0.0
C1669 C 0.44204 0.02572 0.90468 0.0
C1670 C 0.45638 0.03609 0.90479 0.0
C1671 C 0.46442 0.03887 0.91943 0.0
C1672 C 0.45811 0.03131 0.93399 0.0
C1673 C 0.44378 0.02092 0.93394 0.0
H1674 H 0.47552 0.0469 0.9195 0.0
H1675 H 0.33502 0.95129 0.91271 0.0
H1676 H 0.99271 0.38099 0.98955 0.0
H1677 H 0.99426 0.39756 0.96765 0.0
H1678 H 0.01892 0.38465 0.93759 0.0
H1679 H 0.01798 0.36868 0.95997 0.0
H1680 H 0.02959 0.41125 0.93446 0.0
H1681 H 0.98231 0.37299 0.93013 0.0
H1682 H 0.95844 0.35535 0.93975 0.0
H1683 H 0.95054 0.38908 0.95435 0.0
H1684 H 0.97444 0.40693 0.94502 0.0
H1685 H 0.0185 0.44253 0.86043 0.0
H1686 H 0.01791 0.42528 0.8808 0.0
H1687 H 0.00192 0.44244 0.918 0.0
H1688 H 0.00297 0.46002 0.89805 0.0
H1689 H 0.98655 0.41244 0.91538 0.0
H1690 H 0.03497 0.45067 0.92007 0.0
H1691 H 0.05879 0.46757 0.90964 0.0
H1692 H 0.06426 0.43271 0.89327 0.0
H1693 H 0.04036 0.4156 0.90337 0.0
C1694 C 0.99855 0.38185 0.97829 0.0
C1695 C 0.00554 0.37394 0.9765 0.0
C1696 C 0.99931 0.39117 0.96571 0.0
C1697 C 0.00649 0.39219 0.95077 0.0
C1698 C 0.01334 0.38409 0.94896 0.0
C1699 C 0.01284 0.37501 0.96172 0.0
C1700 C 0.00696 0.40181 0.93716 0.0
C1701 C 0.02015 0.41139 0.93023 0.0
C1702 C 0.99464 0.402 0.93147 0.0
C1703 C 0.98022 0.3913 0.937 0.0
C1704 C 0.97552 0.37665 0.93549 0.0
C1705 C 0.96198 0.36661 0.94088 0.0
C1706 C 0.95299 0.37109 0.94769 0.0
C1707 C 0.95752 0.38562 0.94908 0.0
C1708 C 0.97105 0.39571 0.94373 0.0
C1709 C 0.01503 0.44277 0.873 0.0
C1710 C 0.01071 0.45264 0.87754 0.0
C1711 C 0.01463 0.43285 0.88459 0.0
C1712 C 0.00985 0.4326 0.90087 0.0
C1713 C 0.00554 0.44241 0.90544 0.0
C1714 C 0.00607 0.45239 0.89396 0.0
C1715 C 0.00921 0.42208 0.91322 0.0
C1716 C 0.99597 0.41227 0.91976 0.0
C1717 C 0.02145 0.42158 0.91842 0.0
C1718 C 0.03579 0.43186 0.91225 0.0
C1719 C 0.04118 0.44661 0.91407 0.0
C1720 C 0.05472 0.45623 0.90826 0.0
C1721 C 0.06301 0.45122 0.90074 0.0
C1722 C 0.05781 0.43658 0.89905 0.0
C1723 C 0.04427 0.42692 0.90482 0.0
H1724 H 0.0735 0.45868 0.89626 0.0
H1725 H 0.94251 0.3633 0.95185 0.0
H1726 H 0.61291 0.62941 0.97727 0.0
H1727 H 0.59598 0.61888 0.95414 0.0
H1728 H 0.62301 0.60504 0.93128 0.0
H1729 H 0.63986 0.61518 0.95463 0.0
H1730 H 0.60774 0.61972 0.90983 0.0
H1731 H 0.60166 0.58064 0.94678 0.0
H1732 H 0.59883 0.5701 0.97478 0.0
H1733 H 0.56168 0.57392 0.98257 0.0
H1734 H 0.56444 0.58469 0.95465 0.0
H1735 H 0.56044 0.56895 0.85151 0.0
H1736 H 0.57897 0.58267 0.87189 0.0
H1737 H 0.54723 0.57715 0.90785 0.0
H1738 H 0.52863 0.56236 0.8881 0.0
H1739 H 0.56551 0.5732 0.92282 0.0
H1740 H 0.5692 0.60984 0.88614 0.0
H1741 H 0.57163 0.62199 0.85927 0.0
H1742 H 0.61217 0.62489 0.85179 0.0
H1743 H 0.6099 0.6126 0.87854 0.0
C1744 C 0.61538 0.62434 0.96718 0.0
C1745 C 0.62768 0.62306 0.96777 0.0
C1746 C 0.6057 0.61834 0.95401 0.0
C1747 C 0.60831 0.61124 0.94108 0.0
C1748 C 0.6209 0.61056 0.94116 0.0
C1749 C 0.63044 0.61628 0.95452 0.0
C1750 C 0.59728 0.60343 0.92832 0.0
C1751 C 0.59856 0.60947 0.9125 0.0
C1752 C 0.58517 0.59032 0.93211 0.0
C1753 C 0.58335 0.5836 0.94873 0.0
C1754 C 0.59297 0.57934 0.95453 0.0
C1755 C 0.59136 0.57331 0.97037 0.0
C1756 C 0.58011 0.57139 0.98049 0.0
C1757 C 0.57041 0.57544 0.97474 0.0
C1758 C 0.57198 0.5815 0.9589 0.0
C1759 C 0.55734 0.5705 0.8638 0.0
C1760 C 0.54294 0.56445 0.86807 0.0
C1761 C 0.56801 0.57858 0.87539 0.0
C1762 C 0.56456 0.58117 0.89138 0.0
C1763 C 0.55021 0.57536 0.8956 0.0
C1764 C 0.53954 0.56703 0.88414 0.0
C1765 C 0.57583 0.58939 0.90399 0.0
C1766 C 0.57462 0.58344 0.91993 0.0
C1767 C 0.58788 0.60272 0.90033 0.0
C1768 C 0.58931 0.61018 0.88427 0.0
C1769 C 0.57859 0.61298 0.87871 0.0
C1770 C 0.57994 0.61991 0.86351 0.0
C1771 C 0.59203 0.62418 0.85381 0.0
C1772 C 0.60281 0.62157 0.85931 0.0
C1773 C 0.6015 0.61463 0.8745 0.0
H1774 H 0.59306 0.62953 0.84204 0.0
H1775 H 0.57888 0.56672 0.99275 0.0
H1776 H 0.01737 0.65168 0.95556 0.0
H1777 H 0.01927 0.63685 0.93379 0.0
H1778 H 0.98902 0.59907 0.95999 0.0
H1779 H 0.98785 0.614 0.98222 0.0
H1780 H 0.00878 0.59487 0.95062 0.0
H1781 H 0.9813 0.6123 0.92248 0.0
H1782 H 0.97545 0.63032 0.912 0.0
H1783 H 0.01314 0.64903 0.88228 0.0
H1784 H 0.01931 0.63122 0.89275 0.0
H1785 H 0.98762 0.54871 0.87767 0.0
H1786 H 0.98695 0.56566 0.89727 0.0
H1787 H 0.03201 0.59299 0.89215 0.0
H1788 H 0.03304 0.57574 0.87327 0.0
H1789 H 0.00547 0.60261 0.89007 0.0
H1790 H 0.0333 0.58517 0.9226 0.0
H1791 H 0.03668 0.56541 0.93274 0.0
H1792 H 0.9949 0.54502 0.95367 0.0
H1793 H 0.99122 0.56458 0.9434 0.0
C1794 C 0.01134 0.64019 0.95671 0.0
C1795 C 0.00297 0.63389 0.97079 0.0
C1796 C 0.01219 0.63172 0.94414 0.0
C1797 C 0.00425 0.61679 0.94517 0.0
C1798 C 0.99538 0.61054 0.95898 0.0
C1799 C 0.99468 0.61903 0.97163 0.0
C1800 C 0.00551 0.60765 0.93221 0.0
C1801 C 0.00801 0.59663 0.93742 0.0
C1802 C 0.00455 0.60983 0.91489 0.0
C1803 C 0.00083 0.62051 0.90851 0.0
C1804 C 0.98839 0.62032 0.91379 0.0
C1805 C 0.98501 0.63048 0.90785 0.0
C1806 C 0.99394 0.64083 0.89651 0.0
C1807 C 0.00624 0.64101 0.89107 0.0
C1808 C 0.00968 0.63088 0.89699 0.0
C1809 C 0.99745 0.55823 0.8808 0.0
C1810 C 0.01042 0.56073 0.87398 0.0
C1811 C 0.99699 0.56796 0.89187 0.0
C1812 C 0.00943 0.58047 0.89613 0.0
C1813 C 0.02231 0.58334 0.88895 0.0
C1814 C 0.02284 0.5735 0.87807 0.0
C1815 C 0.00895 0.59021 0.90865 0.0
C1816 C 0.00645 0.60116 0.90333 0.0
C1817 C 0.0097 0.58789 0.92585 0.0
C1818 C 0.01192 0.5762 0.93205 0.0
C1819 C 0.02479 0.57638 0.9292 0.0
C1820 C 0.02677 0.56525 0.93501 0.0
C1821 C 0.01599 0.55394 0.94379 0.0
C1822 C 0.00322 0.55377 0.94683 0.0
C1823 C 0.00119 0.56487 0.94102 0.0
H1824 H 0.01755 0.54534 0.94828 0.0
H1825 H 0.9913 0.6487 0.89192 0.0
H1826 H 0.39808 0.37169 0.96506 0.0
H1827 H 0.40803 0.38893 0.94254 0.0
H1828 H 0.3716 0.39507 0.94348 0.0
H1829 H 0.36165 0.37803 0.96642 0.0
H1830 H 0.40085 0.39118 0.91198 0.0
H1831 H 0.38238 0.43002 0.93536 0.0
H1832 H 0.37578 0.4369 0.96175 0.0
H1833 H 0.40184 0.42411 0.9892 0.0
H1834 H 0.40874 0.41735 0.96297 0.0
H1835 H 0.42168 0.44537 0.85079 0.0
H1836 H 0.40729 0.42657 0.87073 0.0
H1837 H 0.43421 0.45256 0.91102 0.0
H1838 H 0.44828 0.47149 0.89121 0.0
H1839 H 0.40847 0.43993 0.92121 0.0
H1840 H 0.43751 0.42466 0.89263 0.0
H1841 H 0.44718 0.41862 0.86815 0.0
H1842 H 0.40536 0.38572 0.85444 0.0
H1843 H 0.39541 0.3917 0.87874 0.0
C1844 C 0.39207 0.37659 0.96044 0.0
C1845 C 0.37909 0.37353 0.96773 0.0
C1846 C 0.39779 0.38643 0.94748 0.0
C1847 C 0.39067 0.39345 0.94144 0.0
C1848 C 0.3774 0.38997 0.94813 0.0
C1849 C 0.37171 0.38017 0.96122 0.0
C1850 C 0.39753 0.40484 0.92871 0.0
C1851 C 0.40242 0.40181 0.91395 0.0
C1852 C 0.39985 0.41881 0.93139 0.0
C1853 C 0.39592 0.42302 0.94722 0.0
C1854 C 0.38672 0.42872 0.94703 0.0
C1855 C 0.38293 0.4326 0.96196 0.0
C1856 C 0.38834 0.43089 0.97715 0.0
C1857 C 0.39761 0.42537 0.97743 0.0
C1858 C 0.40146 0.42151 0.96254 0.0
C1859 C 0.42446 0.44706 0.86392 0.0
C1860 C 0.43611 0.45986 0.86946 0.0
C1861 C 0.41626 0.43631 0.87531 0.0
C1862 C 0.41978 0.43804 0.89239 0.0
C1863 C 0.43124 0.45096 0.89794 0.0
C1864 C 0.43928 0.46178 0.88661 0.0
C1865 C 0.41185 0.42629 0.90447 0.0
C1866 C 0.40674 0.42925 0.91912 0.0
C1867 C 0.40975 0.41238 0.90195 0.0
C1868 C 0.41571 0.40873 0.88739 0.0
C1869 C 0.43037 0.41621 0.88432 0.0
C1870 C 0.4359 0.41279 0.8705 0.0
C1871 C 0.42689 0.40182 0.85972 0.0
C1872 C 0.41232 0.39423 0.86278 0.0
C1873 C 0.40674 0.39762 0.87658 0.0
H1874 H 0.43119 0.39919 0.84902 0.0
H1875 H 0.38538 0.43388 0.98869 0.0
H1876 H 0.61443 0.00372 0.99317 0.0
H1877 H 0.59737 0.00234 0.97207 0.0
H1878 H 0.60562 0.97376 0.94284 0.0
H1879 H 0.62336 0.97581 0.96356 0.0
H1880 H 0.61058 0.00095 0.92786 0.0
H1881 H 0.55869 0.95477 0.94292 0.0
H1882 H 0.5404 0.94125 0.96397 0.0
H1883 H 0.55521 0.97912 0.99363 0.0
H1884 H 0.57306 0.99293 0.97235 0.0
H1885 H 0.56307 0.98953 0.85934 0.0
H1886 H 0.57735 0.98717 0.88162 0.0
H1887 H 0.5593 0.00363 0.91713 0.0
H1888 H 0.54448 0.00524 0.89529 0.0
H1889 H 0.55847 0.98095 0.92902 0.0
H1890 H 0.59399 0.02351 0.90271 0.0
H1891 H 0.60855 0.03837 0.87943 0.0
H1892 H 0.62534 0.0101 0.87213 0.0
H1893 H 0.61072 0.99496 0.89524 0.0
C1894 C 0.61224 0.99679 0.98249 0.0
C1895 C 0.61977 0.98944 0.98024 0.0
C1896 C 0.60231 0.99581 0.97057 0.0
C1897 C 0.59971 0.98743 0.95623 0.0
C1898 C 0.60713 0.97992 0.95408 0.0
C1899 C 0.61719 0.98104 0.96592 0.0
C1900 C 0.59155 0.98879 0.94212 0.0
C1901 C 0.59915 0.99644 0.92803 0.0
C1902 C 0.57671 0.9832 0.94246 0.0
C1903 C 0.56766 0.97473 0.95644 0.0
C1904 C 0.55821 0.96012 0.95411 0.0
C1905 C 0.54772 0.95247 0.9659 0.0
C1906 C 0.54668 0.95931 0.98018 0.0
C1907 C 0.55611 0.97381 0.98265 0.0
C1908 C 0.56645 0.98155 0.97074 0.0
C1909 C 0.56212 0.99261 0.8719 0.0
C1910 C 0.55262 0.9976 0.87548 0.0
C1911 C 0.57041 0.99141 0.88459 0.0
C1912 C 0.56948 0.99533 0.90104 0.0
C1913 C 0.56022 0.00056 0.90454 0.0
C1914 C 0.55185 0.00163 0.89195 0.0
C1915 C 0.5775 0.9933 0.91486 0.0
C1916 C 0.5699 0.98543 0.92879 0.0
C1917 C 0.59236 0.99895 0.91449 0.0
C1918 C 0.60114 0.00802 0.90058 0.0
C1919 C 0.60069 0.02039 0.89604 0.0
C1920 C 0.60898 0.02888 0.8829 0.0
C1921 C 0.61783 0.02516 0.87427 0.0
C1922 C 0.61845 0.01295 0.87881 0.0
C1923 C 0.61018 0.00442 0.89193 0.0
H1924 H 0.62424 0.03174 0.86411 0.0
H1925 H 0.53859 0.95337 0.98933 0.0
H1926 H 0.62882 0.01269 0.04027 0.0
H1927 H 0.61759 0.01779 0.06353 0.0
H1928 H 0.61206 0.97998 0.08883 0.0
H1929 H 0.62234 0.97435 0.0649 0.0
H1930 H 0.58943 0.97999 0.09133 0.0
H1931 H 0.63676 0.01669 0.10177 0.0
H1932 H 0.66026 0.03713 0.09554 0.0
H1933 H 0.64097 0.06241 0.08264 0.0
H1934 H 0.61732 0.04206 0.08858 0.0
H1935 H 0.56682 0.99921 0.16604 0.0
H1936 H 0.58297 0.99662 0.1471 0.0
H1937 H 0.57525 0.02074 0.1096 0.0
H1938 H 0.55846 0.02272 0.12796 0.0
H1939 H 0.60578 0.02782 0.11585 0.0
H1940 H 0.55805 0.98871 0.10396 0.0
H1941 H 0.53537 0.968 0.11225 0.0
H1942 H 0.55756 0.94702 0.13098 0.0
H1943 H 0.58041 0.96772 0.12301 0.0
C1944 C 0.62542 0.00563 0.05096 0.0
C1945 C 0.62647 0.99318 0.0509 0.0
C1946 C 0.61907 0.00859 0.06433 0.0
C1947 C 0.61414 0.99942 0.07819 0.0
C1948 C 0.61572 0.98723 0.07833 0.0
C1949 C 0.62165 0.98404 0.06472 0.0
C1950 C 0.6063 0.00189 0.09182 0.0
C1951 C 0.59325 0.99043 0.09688 0.0
C1952 C 0.61104 0.01551 0.09904 0.0
C1953 C 0.62525 0.02781 0.09551 0.0
C1954 C 0.63751 0.02658 0.0975 0.0
C1955 C 0.65087 0.03815 0.09404 0.0
C1956 C 0.6521 0.05105 0.08866 0.0
C1957 C 0.63999 0.05241 0.08679 0.0
C1958 C 0.62661 0.04087 0.09023 0.0
C1959 C 0.56843 0.00389 0.15373 0.0
C1960 C 0.56116 0.01107 0.14855 0.0
C1961 C 0.57779 0.00252 0.143 0.0
C1962 C 0.58027 0.0085 0.127 0.0
C1963 C 0.57354 0.01615 0.12198 0.0
C1964 C 0.56397 0.01732 0.13257 0.0
C1965 C 0.58914 0.00598 0.11507 0.0
C1966 C 0.60225 0.01741 0.11035 0.0
C1967 C 0.58467 0.99229 0.10844 0.0
C1968 C 0.57093 0.97982 0.11308 0.0
C1969 C 0.5581 0.97973 0.10999 0.0
C1970 C 0.54522 0.96799 0.1146 0.0
C1971 C 0.54503 0.95622 0.12218 0.0
C1972 C 0.55773 0.95615 0.12513 0.0
C1973 C 0.57064 0.96788 0.12056 0.0
H1974 H 0.53504 0.94714 0.12574 0.0
H1975 H 0.66245 0.06 0.08598 0.0
H1976 H 0.02609 0.63961 0.04949 0.0
H1977 H 0.01991 0.62244 0.07203 0.0
H1978 H 0.97552 0.60818 0.06385 0.0
H1979 H 0.98164 0.62562 0.04127 0.0
H1980 H 0.98246 0.60867 0.09777 0.0
H1981 H 0.98848 0.58973 0.04671 0.0
H1982 H 0.00069 0.5903 0.02067 0.0
H1983 H 0.03638 0.59442 0.04889 0.0
H1984 H 0.02446 0.5941 0.07512 0.0
H1985 H 0.96242 0.54108 0.13779 0.0
H1986 H 0.96481 0.55981 0.11851 0.0
H1987 H 0.01035 0.57903 0.12127 0.0
H1988 H 0.00808 0.5606 0.14071 0.0
H1989 H 1.00027 0.5747 0.08903 0.0
H1990 H 0.99395 0.59439 0.14026 0.0
H1991 H 0.98138 0.59402 0.16593 0.0
H1992 H 0.94529 0.58771 0.13683 0.0
H1993 H 0.95758 0.58784 0.11098 0.0
C1994 C 0.015 0.63297 0.05257 0.0
C1995 C 0.00434 0.63384 0.0434 0.0
C1996 C 0.01149 0.62316 0.06548 0.0
C1997 C 0.99725 0.61386 0.06937 0.0
C1998 C 0.98658 0.61524 0.06097 0.0
C1999 C 0.99009 0.62518 0.04807 0.0
C2000 C 0.99367 0.60202 0.08123 0.0
C2001 C 0.98614 0.60109 0.09577 0.0
C2002 C 0.99854 0.59218 0.07861 0.0
C2003 C 0.00561 0.59199 0.06288 0.0
C2004 C 0.99897 0.59083 0.04737 0.0
C2005 C 0.00584 0.59111 0.03257 0.0
C2006 C 0.01932 0.59244 0.03312 0.0
C2007 C 0.02594 0.59341 0.04848 0.0
C2008 C 0.01912 0.59316 0.06333 0.0
C2009 C 0.97294 0.54944 0.13452 0.0
C2010 C 0.98506 0.54927 0.14068 0.0
C2011 C 0.97429 0.5601 0.12348 0.0
C2012 C 0.98776 0.57078 0.11845 0.0
C2013 C 0.99985 0.57083 0.1249 0.0
C2014 C 0.99853 0.56024 0.13595 0.0
C2015 C 0.98938 0.58155 0.10584 0.0
C2016 C 0.99649 0.58221 0.09103 0.0
C2017 C 0.98399 0.59099 0.10818 0.0
C2018 C 0.97662 0.59096 0.1237 0.0
C2019 C 0.98328 0.59279 0.13935 0.0
C2020 C 0.97622 0.59266 0.15392 0.0
C2021 C 0.96253 0.5908 0.15301 0.0
C2022 C 0.95588 0.58912 0.13751 0.0
C2023 C 0.9629 0.58923 0.1229 0.0
H2024 H 0.95708 0.5907 0.16432 0.0
H2025 H 0.02464 0.59268 0.02165 0.0
H2026 H 0.38926 0.39434 0.02591 0.0
H2027 H 0.40648 0.40965 0.04688 0.0
H2028 H 0.39992 0.37264 0.07462 0.0
H2029 H 0.3817 0.3573 0.05429 0.0
H2030 H 0.39539 0.39413 0.09141 0.0
H2031 H 0.44784 0.40202 0.07263 0.0
H2032 H 0.46503 0.40705 0.05005 0.0
H2033 H 0.44672 0.42805 0.02203 0.0
H2034 H 0.43016 0.42401 0.04492 0.0
H2035 H 0.44505 0.42862 0.15814 0.0
H2036 H 0.4304 0.4126 0.13579 0.0
H2037 H 0.44654 0.44796 0.10151 0.0
H2038 H 0.46176 0.46382 0.12338 0.0
H2039 H 0.4472 0.42676 0.08765 0.0
H2040 H 0.41223 0.43224 0.11823 0.0
H2041 H 0.39861 0.43151 0.14307 0.0
H2042 H 0.38326 0.38663 0.14807 0.0
H2043 H 0.39695 0.38713 0.12337 0.0
C2044 C 0.39184 0.38948 0.03623 0.0
C2045 C 0.38464 0.37462 0.03813 0.0
C2046 C 0.40191 0.39824 0.04804 0.0
C2047 C 0.40516 0.39232 0.06185 0.0
C2048 C 0.39799 0.37743 0.06373 0.0
C2049 C 0.38767 0.36867 0.05208 0.0
C2050 C 0.41381 0.40161 0.07582 0.0
C2051 C 0.40676 0.40118 0.09064 0.0
C2052 C 0.42859 0.41102 0.07476 0.0
C2053 C 0.43717 0.41195 0.06007 0.0
C2054 C 0.44733 0.40748 0.06151 0.0
C2055 C 0.45719 0.41045 0.04882 0.0
C2056 C 0.45685 0.4177 0.0345 0.0
C2057 C 0.44681 0.42221 0.03299 0.0
C2058 C 0.43716 0.41956 0.04583 0.0
C2059 C 0.44554 0.43298 0.14582 0.0
C2060 C 0.45459 0.44755 0.14261 0.0
C2061 C 0.43702 0.42382 0.1331 0.0
C2062 C 0.43725 0.42909 0.11699 0.0
C2063 C 0.44614 0.44364 0.11383 0.0
C2064 C 0.45474 0.45275 0.12645 0.0
C2065 C 0.42877 0.41946 0.10313 0.0
C2066 C 0.43583 0.41971 0.08845 0.0
C2067 C 0.41399 0.41008 0.10423 0.0
C2068 C 0.40574 0.40976 0.11906 0.0
C2069 C 0.40604 0.42224 0.1247 0.0
C2070 C 0.39829 0.42186 0.13874 0.0
C2071 C 0.39011 0.40904 0.14717 0.0
C2072 C 0.38963 0.39656 0.14155 0.0
C2073 C 0.39737 0.39688 0.12752 0.0
H2074 H 0.38411 0.40877 0.15804 0.0
H2075 H 0.46441 0.4199 0.02464 0.0
H2076 H 0.64899 0.69569 0.38282 0.0
H2077 H 0.64174 0.7059 0.4053 0.0
H2078 H 0.68556 0.73598 0.41608 0.0
H2079 H 0.69297 0.72581 0.39373 0.0
H2080 H 0.67008 0.72533 0.44461 0.0
H2081 H 0.66641 0.74596 0.39283 0.0
H2082 H 0.65834 0.74542 0.36385 0.0
H2083 H 0.61498 0.72343 0.37982 0.0
H2084 H 0.6228 0.72364 0.40888 0.0
H2085 H 0.6651 0.7809 0.48517 0.0
H2086 H 0.67 0.76628 0.46613 0.0
H2087 H 0.62513 0.73832 0.45885 0.0
H2088 H 0.62009 0.75276 0.4782 0.0
H2089 H 0.63959 0.74609 0.42936 0.0
H2090 H 0.64372 0.72729 0.48187 0.0
H2091 H 0.65223 0.72833 0.51073 0.0
H2092 H 0.69514 0.74742 0.49342 0.0
H2093 H 0.6869 0.7467 0.46447 0.0
C2094 C 0.65712 0.70438 0.39006 0.0
C2095 C 0.67158 0.70998 0.38634 0.0
C2096 C 0.65294 0.71023 0.40288 0.0
C2097 C 0.66311 0.72181 0.41221 0.0
C2098 C 0.67755 0.72705 0.40901 0.0
C2099 C 0.68175 0.72124 0.39618 0.0
C2100 C 0.65872 0.72892 0.42475 0.0
C2101 C 0.66351 0.72997 0.44127 0.0
C2102 C 0.6499 0.73471 0.42043 0.0
C2103 C 0.64518 0.73467 0.40299 0.0
C2104 C 0.65515 0.74091 0.39014 0.0
C2105 C 0.65062 0.74067 0.3737 0.0
C2106 C 0.63616 0.73436 0.36999 0.0
C2107 C 0.62619 0.72829 0.38271 0.0
C2108 C 0.63066 0.72847 0.39917 0.0
C2109 C 0.65624 0.77151 0.47977 0.0
C2110 C 0.64219 0.76797 0.4833 0.0
C2111 C 0.65908 0.76318 0.46884 0.0
C2112 C 0.64793 0.75114 0.46121 0.0
C2113 C 0.63388 0.74758 0.46463 0.0
C2114 C 0.63103 0.75588 0.47563 0.0
C2115 C 0.65102 0.74259 0.44923 0.0
C2116 C 0.64602 0.74131 0.43278 0.0
C2117 C 0.6597 0.73665 0.45361 0.0
C2118 C 0.66469 0.73705 0.47101 0.0
C2119 C 0.65498 0.73182 0.48423 0.0
C2120 C 0.65975 0.73233 0.5006 0.0
C2121 C 0.67422 0.73797 0.50391 0.0
C2122 C 0.68394 0.74307 0.49084 0.0
C2123 C 0.67922 0.74259 0.47445 0.0
H2124 H 0.67789 0.73835 0.5166 0.0
H2125 H 0.63267 0.73419 0.35726 0.0
H2126 H 0.27451 0.95083 0.37026 0.0
H2127 H 0.26074 0.9345 0.39283 0.0
H2128 H 0.29956 0.94507 0.41926 0.0
H2129 H 0.31327 0.96145 0.39677 0.0
H2130 H 0.2607 0.91085 0.40445 0.0
H2131 H 0.29307 0.94403 0.46122 0.0
H2132 H 0.30829 0.96924 0.46914 0.0
H2133 H 0.28635 0.98165 0.43388 0.0
H2134 H 0.27089 0.95652 0.42592 0.0
H2135 H 0.23817 0.8672 0.47693 0.0
H2136 H 0.25415 0.88458 0.45654 0.0
H2137 H 0.23566 0.91125 0.46622 0.0
H2138 H 0.21982 0.89404 0.48673 0.0
H2139 H 0.26454 0.92689 0.46315 0.0
H2140 H 0.2247 0.88937 0.43362 0.0
H2141 H 0.20848 0.86455 0.4251 0.0
H2142 H 0.24344 0.86148 0.4048 0.0
H2143 H 0.25991 0.88623 0.41344 0.0
C2144 C 0.28003 0.94956 0.3809 0.0
C2145 C 0.29488 0.95695 0.38166 0.0
C2146 C 0.27221 0.94027 0.39372 0.0
C2147 C 0.27913 0.93856 0.4077 0.0
C2148 C 0.294 0.94627 0.40864 0.0
C2149 C 0.30181 0.95549 0.39575 0.0
C2150 C 0.27078 0.92868 0.42127 0.0
C2151 C 0.26161 0.91434 0.41729 0.0
C2152 C 0.27185 0.93328 0.438 0.0
C2153 C 0.28093 0.94841 0.44287 0.0
C2154 C 0.29147 0.95214 0.45521 0.0
C2155 C 0.30014 0.96641 0.4597 0.0
C2156 C 0.29832 0.97704 0.45198 0.0
C2157 C 0.28778 0.97342 0.4398 0.0
C2158 C 0.27908 0.95916 0.43529 0.0
C2159 C 0.23769 0.87688 0.4749 0.0
C2160 C 0.22768 0.87922 0.48331 0.0
C2161 C 0.24675 0.88675 0.46319 0.0
C2162 C 0.24598 0.89912 0.45976 0.0
C2163 C 0.23641 0.90176 0.46866 0.0
C2164 C 0.22731 0.89188 0.48027 0.0
C2165 C 0.25459 0.90902 0.44633 0.0
C2166 C 0.26379 0.92337 0.45033 0.0
C2167 C 0.25346 0.90446 0.42957 0.0
C2168 C 0.24356 0.88958 0.42438 0.0
C2169 C 0.22895 0.88336 0.42749 0.0
C2170 C 0.2197 0.86931 0.42261 0.0
C2171 C 0.22493 0.86143 0.41447 0.0
C2172 C 0.23941 0.86759 0.41115 0.0
C2173 C 0.2487 0.88162 0.41603 0.0
H2174 H 0.21775 0.85055 0.41069 0.0
H2175 H 0.30505 0.98809 0.45546 0.0
H2176 H 0.03417 0.3532 0.38947 0.0
H2177 H 0.04728 0.35497 0.41498 0.0
H2178 H 0.07021 0.3376 0.38908 0.0
H2179 H 0.05539 0.33379 0.36446 0.0
H2180 H 0.06278 0.32474 0.41502 0.0
H2181 H 0.09358 0.38301 0.41836 0.0
H2182 H 0.09411 0.4061 0.42085 0.0
H2183 H 0.05418 0.38564 0.44619 0.0
H2184 H 0.05388 0.36263 0.44463 0.0
H2185 H 0.12589 0.34446 0.45856 0.0
H2186 H 0.10726 0.34224 0.43956 0.0
H2187 H 0.0866 0.35093 0.48002 0.0
H2188 H 0.10522 0.35299 0.4993 0.0
H2189 H 0.08817 0.36616 0.45278 0.0
H2190 H 0.07193 0.31767 0.46464 0.0
H2191 H 0.07346 0.29578 0.46851 0.0
H2192 H 0.08436 0.29677 0.41695 0.0
H2193 H 0.08311 0.31879 0.41282 0.0
C2194 C 0.04224 0.35003 0.38926 0.0
C2195 C 0.04403 0.34362 0.37498 0.0
C2196 C 0.04999 0.3513 0.40386 0.0
C2197 C 0.06017 0.34679 0.40421 0.0
C2198 C 0.0624 0.34109 0.38944 0.0
C2199 C 0.05406 0.33904 0.37524 0.0
C2200 C 0.06749 0.34633 0.41999 0.0
C2201 C 0.06848 0.33397 0.42303 0.0
C2202 C 0.07412 0.35778 0.43154 0.0
C2203 C 0.07331 0.37101 0.43051 0.0
C2204 C 0.08479 0.38342 0.42413 0.0
C2205 C 0.08518 0.39653 0.42568 0.0
C2206 C 0.07405 0.39729 0.43338 0.0
C2207 C 0.06268 0.38501 0.43996 0.0
C2208 C 0.06245 0.37197 0.43887 0.0
C2209 C 0.11728 0.34568 0.46352 0.0
C2210 C 0.11698 0.34878 0.4805 0.0
C2211 C 0.10663 0.34442 0.45262 0.0
C2212 C 0.09541 0.34619 0.45842 0.0
C2213 C 0.09513 0.34945 0.47531 0.0
C2214 C 0.1058 0.35069 0.48628 0.0
C2215 C 0.0844 0.34522 0.44653 0.0
C2216 C 0.08252 0.35707 0.44454 0.0
C2217 C 0.07683 0.33326 0.43607 0.0
C2218 C 0.0775 0.31994 0.43845 0.0
C2219 C 0.07475 0.31328 0.45415 0.0
C2220 C 0.07555 0.30084 0.45639 0.0
C2221 C 0.07902 0.2949 0.44299 0.0
C2222 C 0.08167 0.30138 0.42732 0.0
C2223 C 0.0809 0.31383 0.42502 0.0
H2224 H 0.07964 0.28527 0.44475 0.0
H2225 H 0.07431 0.40742 0.4344 0.0
H2226 H 0.06112 0.3564 0.2962 0.0
H2227 H 0.07071 0.34871 0.27366 0.0
H2228 H 0.03925 0.30496 0.28264 0.0
H2229 H 0.02947 0.31256 0.30543 0.0
H2230 H 0.0666 0.30897 0.27917 0.0
H2231 H 0.03553 0.32042 0.24903 0.0
H2232 H 0.02465 0.33497 0.24093 0.0
H2233 H 0.065 0.36822 0.22403 0.0
H2234 H 0.07617 0.35397 0.23226 0.0
H2235 H 0.09406 0.29134 0.20776 0.0
H2236 H 0.07699 0.29277 0.22639 0.0
H2237 H 0.10048 0.33864 0.22345 0.0
H2238 H 0.11719 0.33728 0.20437 0.0
H2239 H 0.07288 0.32953 0.22236 0.0
H2240 H 0.10437 0.31994 0.25653 0.0
H2241 H 0.11582 0.30608 0.26541 0.0
H2242 H 0.07503 0.26986 0.27516 0.0
H2243 H 0.06333 0.28347 0.26614 0.0
C2244 C 0.05615 0.34512 0.29342 0.0
C2245 C 0.04448 0.3351 0.30266 0.0
C2246 C 0.06163 0.34076 0.28044 0.0
C2247 C 0.05559 0.32628 0.27635 0.0
C2248 C 0.04401 0.31619 0.28556 0.0
C2249 C 0.03842 0.32057 0.29854 0.0
C2250 C 0.0618 0.32187 0.26272 0.0
C2251 C 0.06769 0.31319 0.26663 0.0
C2252 C 0.0634 0.32756 0.24645 0.0
C2253 C 0.05671 0.33615 0.24136 0.0
C2254 C 0.04211 0.33088 0.24369 0.0
C2255 C 0.03588 0.33907 0.23906 0.0
C2256 C 0.04413 0.35252 0.23199 0.0
C2257 C 0.05862 0.3578 0.22951 0.0
C2258 C 0.0649 0.34966 0.23413 0.0
C2259 C 0.09545 0.30172 0.21086 0.0
C2260 C 0.10708 0.31421 0.2047 0.0
C2261 C 0.08575 0.30252 0.22164 0.0
C2262 C 0.08756 0.31582 0.22652 0.0
C2263 C 0.09888 0.32826 0.21992 0.0
C2264 C 0.10852 0.32746 0.20914 0.0
C2265 C 0.07807 0.31699 0.23894 0.0
C2266 C 0.07155 0.32507 0.2348 0.0
C2267 C 0.07595 0.31081 0.25502 0.0
C2268 C 0.08298 0.30265 0.26047 0.0
C2269 C 0.09784 0.30898 0.26045 0.0
C2270 C 0.10437 0.30118 0.26552 0.0
C2271 C 0.09615 0.28708 0.27079 0.0
C2272 C 0.08138 0.28077 0.27104 0.0
C2273 C 0.07479 0.28852 0.26595 0.0
H2274 H 0.10123 0.28106 0.27472 0.0
H2275 H 0.03929 0.35885 0.22841 0.0
H2276 H 0.69458 0.71003 0.30143 0.0
H2277 H 0.70035 0.72762 0.27913 0.0
H2278 H 0.67221 0.74052 0.30099 0.0
H2279 H 0.66718 0.72362 0.32382 0.0
H2280 H 0.67745 0.72507 0.25857 0.0
H2281 H 0.68211 0.76496 0.29897 0.0
H2282 H 0.69384 0.78294 0.32107 0.0
H2283 H 0.73459 0.79358 0.30126 0.0
H2284 H 0.72303 0.77511 0.27954 0.0
H2285 H 0.6659 0.77125 0.20413 0.0
H2286 H 0.66626 0.75575 0.22626 0.0
H2287 H 0.71192 0.78036 0.22833 0.0
H2288 H 0.71163 0.79608 0.20652 0.0
H2289 H 0.70022 0.77775 0.25849 0.0
H2290 H 0.69573 0.74676 0.21353 0.0
H2291 H 0.68516 0.73284 0.18787 0.0
H2292 H 0.64586 0.70741 0.21336 0.0
H2293 H 0.65612 0.72134 0.2391 0.0
C2294 C 0.69023 0.71717 0.30189 0.0
C2295 C 0.68093 0.71595 0.31467 0.0
C2296 C 0.69344 0.72714 0.28912 0.0
C2297 C 0.68714 0.73582 0.2887 0.0
C2298 C 0.67782 0.73456 0.30149 0.0
C2299 C 0.67476 0.72473 0.31438 0.0
C2300 C 0.68828 0.74415 0.27348 0.0
C2301 C 0.68241 0.7366 0.25856 0.0
C2302 C 0.69489 0.75918 0.27335 0.0
C2303 C 0.70172 0.76819 0.28814 0.0
C2304 C 0.69356 0.77064 0.29981 0.0
C2305 C 0.70018 0.78108 0.31213 0.0
C2306 C 0.71495 0.78939 0.31261 0.0
C2307 C 0.72315 0.78712 0.30092 0.0
C2308 C 0.71657 0.77652 0.28877 0.0
C2309 C 0.67602 0.77326 0.20919 0.0
C2310 C 0.68874 0.78493 0.20365 0.0
C2311 C 0.67622 0.76432 0.22172 0.0
C2312 C 0.68912 0.76689 0.2289 0.0
C2313 C 0.70185 0.77819 0.22293 0.0
C2314 C 0.70167 0.78709 0.21038 0.0
C2315 C 0.68927 0.75869 0.24368 0.0
C2316 C 0.69535 0.76622 0.25846 0.0
C2317 C 0.68283 0.74368 0.24365 0.0
C2318 C 0.67667 0.73518 0.22822 0.0
C2319 C 0.6848 0.73828 0.21363 0.0
C2320 C 0.67887 0.73037 0.19908 0.0
C2321 C 0.66484 0.71927 0.19898 0.0
C2322 C 0.65673 0.71603 0.21345 0.0
C2323 C 0.6626 0.72391 0.22803 0.0
H2324 H 0.66027 0.71317 0.18769 0.0
H2325 H 0.72005 0.79757 0.32203 0.0
H2326 H 0.28699 0.97391 0.31104 0.0
H2327 H 0.27108 0.9654 0.28678 0.0
H2328 H 0.28429 0.93445 0.27663 0.0
H2329 H 0.30017 0.94282 0.30082 0.0
H2330 H 0.28172 0.94788 0.24775 0.0
H2331 H 0.25509 0.92431 0.29724 0.0
H2332 H 0.24618 0.92375 0.3256 0.0
H2333 H 0.22542 0.94664 0.30847 0.0
H2334 H 0.23443 0.94755 0.28005 0.0
H2335 H 0.22611 0.89137 0.2039 0.0
H2336 H 0.24462 0.90742 0.22315 0.0
H2337 H 0.2229 0.93155 0.2294 0.0
H2338 H 0.20406 0.91521 0.21039 0.0
H2339 H 0.23013 0.92519 0.25894 0.0
H2340 H 0.25407 0.94577 0.20833 0.0
H2341 H 0.26303 0.94625 0.18003 0.0
H2342 H 0.28881 0.92919 0.19884 0.0
H2343 H 0.27984 0.9284 0.22723 0.0
C2344 C 0.28665 0.96541 0.30354 0.0
C2345 C 0.29478 0.95897 0.30796 0.0
C2346 C 0.27753 0.96055 0.2897 0.0
C2347 C 0.27646 0.94924 0.28001 0.0
C2348 C 0.28499 0.9432 0.28396 0.0
C2349 C 0.29399 0.94795 0.29785 0.0
C2350 C 0.2658 0.94301 0.26641 0.0
C2351 C 0.27043 0.94287 0.25015 0.0
C2352 C 0.25111 0.93683 0.26954 0.0
C2353 C 0.24558 0.93616 0.28657 0.0
C2354 C 0.24872 0.92933 0.29956 0.0
C2355 C 0.24364 0.92893 0.31564 0.0
C2356 C 0.23527 0.93519 0.31885 0.0
C2357 C 0.23193 0.94182 0.30597 0.0
C2358 C 0.23702 0.94229 0.28988 0.0
C2359 C 0.22529 0.90012 0.20932 0.0
C2360 C 0.21358 0.90198 0.20571 0.0
C2361 C 0.23596 0.90939 0.22019 0.0
C2362 C 0.23522 0.92078 0.2276 0.0
C2363 C 0.22371 0.92286 0.22376 0.0
C2364 C 0.21301 0.91359 0.21282 0.0
C2365 C 0.246 0.92981 0.24023 0.0
C2366 C 0.24141 0.93044 0.25637 0.0
C2367 C 0.26072 0.93645 0.23697 0.0
C2368 C 0.2662 0.93694 0.21991 0.0
C2369 C 0.26157 0.94202 0.20642 0.0
C2370 C 0.26667 0.94236 0.19036 0.0
C2371 C 0.27647 0.93773 0.18764 0.0
C2372 C 0.28121 0.93277 0.20097 0.0
C2373 C 0.27614 0.9324 0.21706 0.0
H2374 H 0.2804 0.938 0.17519 0.0
H2375 H 0.23134 0.93486 0.33131 0.0
H2376 H 0.69029 0.98093 0.29328 0.0
H2377 H 0.69423 0.9681 0.2705 0.0
H2378 H 0.66433 0.92807 0.2928 0.0
H2379 H 0.6607 0.94091 0.3158 0.0
H2380 H 0.70375 0.94758 0.27312 0.0
H2381 H 0.64537 0.90613 0.25923 0.0
H2382 H 0.62171 0.9041 0.26075 0.0
H2383 H 0.64039 0.94937 0.25484 0.0
H2384 H 0.66412 0.95165 0.25302 0.0
H2385 H 0.69321 0.88461 0.23151 0.0
H2386 H 0.69127 0.90135 0.2505 0.0
H2387 H 0.68543 0.92299 0.20842 0.0
H2388 H 0.68762 0.90639 0.18933 0.0
H2389 H 0.66477 0.91515 0.23526 0.0
H2390 H 0.71496 0.93924 0.22575 0.0
H2391 H 0.73877 0.94167 0.22449 0.0
H2392 H 0.73708 0.93236 0.27682 0.0
H2393 H 0.71313 0.92962 0.27832 0.0
C2394 C 0.68482 0.9694 0.29344 0.0
C2395 C 0.67566 0.96184 0.30654 0.0
C2396 C 0.68696 0.96211 0.28039 0.0
C2397 C 0.67959 0.94717 0.28003 0.0
C2398 C 0.6701 0.93961 0.29288 0.0
C2399 C 0.66808 0.94691 0.30599 0.0
C2400 C 0.68189 0.93941 0.26631 0.0
C2401 C 0.69527 0.94054 0.26481 0.0
C2402 C 0.67079 0.93034 0.25538 0.0
C2403 C 0.65654 0.92906 0.25614 0.0
C2404 C 0.64442 0.91564 0.25817 0.0
C2405 C 0.63099 0.91445 0.2591 0.0
C2406 C 0.62955 0.9266 0.25794 0.0
C2407 C 0.64152 0.93997 0.25579 0.0
C2408 C 0.65497 0.94122 0.25484 0.0
C2409 C 0.69158 0.89299 0.22634 0.0
C2410 C 0.69057 0.89426 0.20901 0.0
C2411 C 0.69051 0.90254 0.23716 0.0
C2412 C 0.68823 0.91338 0.23081 0.0
C2413 C 0.6872 0.91468 0.21351 0.0
C2414 C 0.68853 0.90527 0.20266 0.0
C2415 C 0.68661 0.92313 0.24237 0.0
C2416 C 0.67331 0.9223 0.24351 0.0
C2417 C 0.6978 0.9325 0.253 0.0
C2418 C 0.71217 0.93405 0.2521 0.0
C2419 C 0.71959 0.93754 0.23694 0.0
C2420 C 0.73313 0.93901 0.2362 0.0
C2421 C 0.73942 0.93712 0.25055 0.0
C2422 C 0.73218 0.93379 0.2657 0.0
C2423 C 0.71863 0.93228 0.2665 0.0
H2424 H 0.74991 0.93828 0.24995 0.0
H2425 H 0.61915 0.92566 0.25868 0.0
H2426 H 0.02783 0.7145 0.30768 0.0
H2427 H 0.0388 0.73209 0.28539 0.0
H2428 H 0.07274 0.72219 0.2825 0.0
H2429 H 0.06206 0.70485 0.30479 0.0
H2430 H 0.08302 0.75006 0.28437 0.0
H2431 H 0.04657 0.71141 0.2523 0.0
H2432 H 0.02203 0.69322 0.24526 0.0
H2433 H 0.01063 0.72586 0.23907 0.0
H2434 H 0.03507 0.74424 0.2463 0.0
H2435 H 0.1175 0.78137 0.20994 0.0
H2436 H 0.10231 0.7634 0.23006 0.0
H2437 H 0.07485 0.78176 0.23138 0.0
H2438 H 0.09023 0.80007 0.21143 0.0
H2439 H 0.06011 0.75122 0.23098 0.0
H2440 H 0.09699 0.78989 0.26167 0.0
H2441 H 0.12166 0.80798 0.26827 0.0
H2442 H 0.13223 0.775 0.27701 0.0
H2443 H 0.10766 0.75671 0.2702 0.0
C2444 C 0.03754 0.71595 0.30217 0.0
C2445 C 0.04407 0.70827 0.30812 0.0
C2446 C 0.04379 0.726 0.28939 0.0
C2447 C 0.0566 0.72845 0.28224 0.0
C2448 C 0.06291 0.72054 0.28788 0.0
C2449 C 0.05673 0.71058 0.30063 0.0
C2450 C 0.06393 0.73971 0.26948 0.0
C2451 C 0.07803 0.7502 0.27263 0.0
C2452 C 0.05729 0.74021 0.25439 0.0
C2453 C 0.0426 0.72918 0.25003 0.0
C2454 C 0.0388 0.7147 0.24958 0.0
C2455 C 0.02492 0.70436 0.24553 0.0
C2456 C 0.01477 0.70838 0.24177 0.0
C2457 C 0.01849 0.72276 0.24201 0.0
C2458 C 0.03236 0.73314 0.24608 0.0
C2459 C 0.10826 0.78165 0.21452 0.0
C2460 C 0.10522 0.79231 0.20925 0.0
C2461 C 0.09954 0.77131 0.22594 0.0
C2462 C 0.08756 0.77137 0.23235 0.0
C2463 C 0.08406 0.78155 0.22657 0.0
C2464 C 0.09285 0.79198 0.21515 0.0
C2465 C 0.07926 0.76123 0.24576 0.0
C2466 C 0.06502 0.75107 0.24277 0.0
C2467 C 0.08574 0.76098 0.26104 0.0
C2468 C 0.10051 0.77194 0.26528 0.0
C2469 C 0.1046 0.7865 0.26487 0.0
C2470 C 0.11856 0.79679 0.26867 0.0
C2471 C 0.12851 0.79264 0.27302 0.0
C2472 C 0.12451 0.7782 0.27362 0.0
C2473 C 0.11056 0.76786 0.26981 0.0
H2474 H 0.13932 0.80062 0.27596 0.0
H2475 H 0.00402 0.70036 0.23863 0.0
H2476 H 0.28033 0.33629 0.32688 0.0
H2477 H 0.26272 0.33043 0.30466 0.0
H2478 H 0.2755 0.30214 0.28253 0.0
H2479 H 0.29298 0.3078 0.30509 0.0
H2480 H 0.27279 0.33782 0.2726 0.0
H2481 H 0.25648 0.28391 0.26306 0.0
H2482 H 0.24445 0.25835 0.27021 0.0
H2483 H 0.21478 0.2636 0.30043 0.0
H2484 H 0.22681 0.28924 0.29359 0.0
H2485 H 0.23278 0.32144 0.19437 0.0
H2486 H 0.24885 0.32132 0.21622 0.0
H2487 H 0.21665 0.31172 0.25316 0.0
H2488 H 0.20076 0.31213 0.23154 0.0
H2489 H 0.23026 0.29382 0.25322 0.0
H2490 H 0.24069 0.34319 0.25266 0.0
H2491 H 0.24821 0.36634 0.23908 0.0
H2492 H 0.288 0.36935 0.22621 0.0
H2493 H 0.28061 0.3461 0.23953 0.0
C2494 C 0.27902 0.32845 0.31757 0.0
C2495 C 0.28781 0.32232 0.31779 0.0
C2496 C 0.26896 0.32508 0.3049 0.0
C2497 C 0.26769 0.31576 0.29195 0.0
C2498 C 0.27602 0.30908 0.29255 0.0
C2499 C 0.28603 0.31235 0.30541 0.0
C2500 C 0.25956 0.31523 0.2767 0.0
C2501 C 0.26356 0.32813 0.26831 0.0
C2502 C 0.24762 0.30267 0.27084 0.0
C2503 C 0.24277 0.2885 0.27822 0.0
C2504 C 0.24769 0.27968 0.27168 0.0
C2505 C 0.24073 0.26515 0.27544 0.0
C2506 C 0.22873 0.25931 0.28555 0.0
C2507 C 0.224 0.2681 0.29247 0.0
C2508 C 0.23097 0.28266 0.2888 0.0
C2509 C 0.2292 0.31932 0.20717 0.0
C2510 C 0.21562 0.31687 0.21136 0.0
C2511 C 0.23835 0.31928 0.21959 0.0
C2512 C 0.23389 0.31653 0.23624 0.0
C2513 C 0.22025 0.31387 0.24036 0.0
C2514 C 0.21124 0.31417 0.22805 0.0
C2515 C 0.24333 0.31636 0.24955 0.0
C2516 C 0.2396 0.30343 0.25747 0.0
C2517 C 0.25558 0.32885 0.25483 0.0
C2518 C 0.26003 0.34283 0.24689 0.0
C2519 C 0.25098 0.34872 0.24679 0.0
C2520 C 0.25524 0.36188 0.23917 0.0
C2521 C 0.26856 0.36929 0.23173 0.0
C2522 C 0.27767 0.36359 0.23195 0.0
C2523 C 0.27346 0.35042 0.23953 0.0
H2524 H 0.27183 0.37948 0.22585 0.0
H2525 H 0.22325 0.24802 0.28829 0.0
H2526 H 0.28456 0.31815 0.39952 0.0
H2527 H 0.27362 0.32662 0.41961 0.0
H2528 H 0.29477 0.3683 0.39708 0.0
H2529 H 0.30607 0.35996 0.37701 0.0
H2530 H 0.29268 0.36971 0.43143 0.0
H2531 H 0.26231 0.34604 0.38501 0.0
H2532 H 0.2503 0.32651 0.36465 0.0
H2533 H 0.22737 0.29754 0.40425 0.0
H2534 H 0.23947 0.31685 0.4249 0.0
H2535 H 0.21862 0.36269 0.45465 0.0
H2536 H 0.23535 0.36211 0.43483 0.0
H2537 H 0.26039 0.35995 0.47573 0.0
H2538 H 0.24381 0.36089 0.49561 0.0
H2539 H 0.24012 0.34149 0.4296 0.0
H2540 H 0.29457 0.3725 0.46401 0.0
H2541 H 0.30712 0.39337 0.4825 0.0
H2542 H 0.28174 0.41078 0.46341 0.0
H2543 H 0.26917 0.39013 0.44464 0.0
C2544 C 0.28707 0.32918 0.39895 0.0
C2545 C 0.29601 0.33833 0.38651 0.0
C2546 C 0.28082 0.33401 0.41047 0.0
C2547 C 0.28317 0.34799 0.4096 0.0
C2548 C 0.29279 0.35745 0.3979 0.0
C2549 C 0.2992 0.35265 0.38643 0.0
C2550 C 0.27449 0.35217 0.41986 0.0
C2551 C 0.28119 0.3636 0.43106 0.0
C2552 C 0.25951 0.34443 0.41895 0.0
C2553 C 0.25187 0.33288 0.40652 0.0
C2554 C 0.25475 0.33549 0.38939 0.0
C2555 C 0.24794 0.32446 0.37779 0.0
C2556 C 0.2381 0.31079 0.38315 0.0
C2557 C 0.23501 0.30814 0.40012 0.0
C2558 C 0.24183 0.31913 0.41177 0.0
C2559 C 0.2278 0.36226 0.45939 0.0
C2560 C 0.2299 0.36175 0.47663 0.0
C2561 C 0.23735 0.36195 0.44807 0.0
C2562 C 0.24916 0.36101 0.45375 0.0
C2563 C 0.25151 0.36093 0.47102 0.0
C2564 C 0.24202 0.36142 0.48237 0.0
C2565 C 0.25825 0.35888 0.44162 0.0
C2566 C 0.2516 0.34775 0.42999 0.0
C2567 C 0.27324 0.36715 0.44188 0.0
C2568 C 0.28084 0.37969 0.45302 0.0
C2569 C 0.2917 0.38081 0.4637 0.0
C2570 C 0.29881 0.3926 0.47425 0.0
C2571 C 0.2952 0.40337 0.47417 0.0
C2572 C 0.28449 0.40241 0.46351 0.0
C2573 C 0.27736 0.39065 0.45293 0.0
H2574 H 0.30071 0.41249 0.48235 0.0
H2575 H 0.23284 0.30225 0.37417 0.0
H2576 H 0.65031 0.95347 0.37927 0.0
H2577 H 0.64314 0.9362 0.40202 0.0
H2578 H 0.68539 0.94183 0.40435 0.0
H2579 H 0.6926 0.95887 0.38152 0.0
H2580 H 0.66627 0.91443 0.4044 0.0
H2581 H 0.67319 0.95607 0.434 0.0
H2582 H 0.66963 0.97652 0.43987 0.0
H2583 H 0.62519 0.94813 0.44736 0.0
H2584 H 0.62846 0.92751 0.44131 0.0
H2585 H 0.66496 0.8818 0.48083 0.0
H2586 H 0.67017 0.90002 0.45967 0.0
H2587 H 0.62595 0.88824 0.45741 0.0
H2588 H 0.62065 0.87004 0.47885 0.0
H2589 H 0.64444 0.918 0.45706 0.0
H2590 H 0.63805 0.87631 0.42819 0.0
H2591 H 0.64209 0.85611 0.42274 0.0
H2592 H 0.68622 0.88511 0.41414 0.0
H2593 H 0.68248 0.90549 0.41979 0.0
C2594 C 0.65811 0.95112 0.38468 0.0
C2595 C 0.67204 0.95759 0.3785 0.0
C2596 C 0.654 0.94126 0.39774 0.0
C2597 C 0.66375 0.93778 0.40497 0.0
C2598 C 0.67767 0.94433 0.39895 0.0
C2599 C 0.68178 0.95412 0.38589 0.0
C2600 C 0.65942 0.92695 0.4184 0.0
C2601 C 0.66165 0.91532 0.41598 0.0
C2602 C 0.65303 0.92788 0.43334 0.0
C2603 C 0.65104 0.94026 0.43702 0.0
C2604 C 0.66264 0.95419 0.43676 0.0
C2605 C 0.66068 0.96581 0.44015 0.0
C2606 C 0.64718 0.96362 0.44393 0.0
C2607 C 0.63563 0.94981 0.44439 0.0
C2608 C 0.63753 0.93815 0.441 0.0
C2609 C 0.65636 0.88322 0.47604 0.0
C2610 C 0.64238 0.87446 0.4815 0.0
C2611 C 0.65934 0.89357 0.46386 0.0
C2612 C 0.64842 0.89538 0.45687 0.0
C2613 C 0.63451 0.88698 0.46263 0.0
C2614 C 0.6315 0.87654 0.47477 0.0
C2615 C 0.65153 0.90568 0.4431 0.0
C2616 C 0.64902 0.91714 0.44543 0.0
C2617 C 0.65774 0.90465 0.42808 0.0
C2618 C 0.66001 0.89242 0.42457 0.0
C2619 C 0.64864 0.87837 0.42527 0.0
C2620 C 0.65087 0.86689 0.42212 0.0
C2621 C 0.66441 0.86932 0.41813 0.0
C2622 C 0.67574 0.88324 0.41725 0.0
C2623 C 0.67357 0.89476 0.42041 0.0
H2624 H 0.66612 0.86041 0.4157 0.0
H2625 H 0.64569 0.97263 0.44655 0.0
H2626 H 0.03696 0.68634 0.39499 0.0
H2627 H 0.05308 0.69971 0.41792 0.0
H2628 H 0.06176 0.73915 0.39413 0.0
H2629 H 0.04631 0.72568 0.37072 0.0
H2630 H 0.08506 0.74217 0.4043 0.0
H2631 H 0.03985 0.72429 0.43046 0.0
H2632 H 0.01596 0.70609 0.43936 0.0
H2633 H 0.03396 0.68523 0.46823 0.0
H2634 H 0.05796 0.70322 0.45933 0.0
H2635 H 0.1088 0.7861 0.47809 0.0
H2636 H 0.09183 0.76996 0.45747 0.0
H2637 H 0.10719 0.74036 0.46521 0.0
H2638 H 0.12487 0.7568 0.48515 0.0
H2639 H 0.07247 0.73176 0.46404 0.0
H2640 H 0.11827 0.75062 0.43514 0.0
H2641 H 0.14145 0.77055 0.42671 0.0
H2642 H 0.12067 0.79132 0.40346 0.0
H2643 H 0.09738 0.77159 0.412 0.0
C2644 C 0.04255 0.69787 0.39461 0.0
C2645 C 0.041 0.70506 0.38086 0.0
C2646 C 0.05153 0.70552 0.40785 0.0
C2647 C 0.05866 0.72049 0.40785 0.0
C2648 C 0.05655 0.72763 0.39437 0.0
C2649 C 0.04772 0.71997 0.38103 0.0
C2650 C 0.06866 0.72878 0.42157 0.0
C2651 C 0.08219 0.73986 0.41732 0.0
C2652 C 0.06509 0.7258 0.43867 0.0
C2653 C 0.05068 0.71502 0.4441 0.0
C2654 C 0.0387 0.71576 0.43862 0.0
C2655 C 0.02514 0.7055 0.44368 0.0
C2656 C 0.02344 0.69449 0.45432 0.0
C2657 C 0.03529 0.69375 0.45997 0.0
C2658 C 0.04888 0.70399 0.45494 0.0
C2659 C 0.10873 0.77625 0.47534 0.0
C2660 C 0.1184 0.7729 0.48319 0.0
C2661 C 0.0989 0.76697 0.46368 0.0
C2662 C 0.09835 0.75406 0.45985 0.0
C2663 C 0.10749 0.75032 0.46809 0.0
C2664 C 0.11753 0.75971 0.47956 0.0
C2665 C 0.08865 0.74488 0.44659 0.0
C2666 C 0.07523 0.73379 0.45096 0.0
C2667 C 0.09218 0.74795 0.42961 0.0
C2668 C 0.10614 0.75974 0.42439 0.0
C2669 C 0.11867 0.75952 0.4284 0.0
C2670 C 0.13182 0.77075 0.42356 0.0
C2671 C 0.13254 0.78222 0.41461 0.0
C2672 C 0.1201 0.78245 0.41042 0.0
C2673 C 0.10693 0.77124 0.41525 0.0
H2674 H 0.14272 0.79091 0.41087 0.0
H2675 H 0.01293 0.68655 0.45822 0.0
H2676 H 0.31085 0.02699 0.71157 0.0
H2677 H 0.30285 0.03706 0.73351 0.0
H2678 H 0.34575 0.07119 0.74063 0.0
H2679 H 0.35381 0.06143 0.71855 0.0
H2680 H 0.30843 0.04364 0.76614 0.0
H2681 H 0.34558 0.10204 0.74559 0.0
H2682 H 0.35767 0.115 0.72004 0.0
H2683 H 0.3257 0.08159 0.68991 0.0
H2684 H 0.31328 0.06857 0.71525 0.0
H2685 H 0.3116 0.09195 0.82807 0.0
H2686 H 0.31638 0.07829 0.80744 0.0
H2687 H 0.29646 0.09086 0.76926 0.0
H2688 H 0.29237 0.1052 0.7896 0.0
H2689 H 0.31991 0.09381 0.75791 0.0
H2690 H 0.28033 0.05643 0.78569 0.0
H2691 H 0.2662 0.04225 0.80959 0.0
H2692 H 0.29858 0.03186 0.82241 0.0
H2693 H 0.31301 0.04614 0.79871 0.0
C2694 C 0.31863 0.03654 0.71794 0.0
C2695 C 0.33295 0.04351 0.71313 0.0
C2696 C 0.31403 0.04226 0.73051 0.0
C2697 C 0.32366 0.05501 0.73848 0.0
C2698 C 0.33809 0.06149 0.73441 0.0
C2699 C 0.34267 0.05587 0.72178 0.0
C2700 C 0.31858 0.06206 0.75027 0.0
C2701 C 0.31093 0.05461 0.76438 0.0
C2702 C 0.32148 0.07623 0.74767 0.0
C2703 C 0.32858 0.08427 0.73234 0.0
C2704 C 0.34107 0.09751 0.73351 0.0
C2705 C 0.34799 0.10487 0.71906 0.0
C2706 C 0.34248 0.0991 0.70336 0.0
C2707 C 0.32998 0.08603 0.70207 0.0
C2708 C 0.323 0.07866 0.71648 0.0
C2709 C 0.30828 0.09188 0.81527 0.0
C2710 C 0.30161 0.09973 0.81053 0.0
C2711 C 0.31087 0.0839 0.80352 0.0
C2712 C 0.30666 0.08341 0.7868 0.0
C2713 C 0.29979 0.09104 0.78208 0.0
C2714 C 0.29731 0.09912 0.79379 0.0
C2715 C 0.31001 0.07552 0.77409 0.0
C2716 C 0.31735 0.08283 0.75973 0.0
C2717 C 0.30646 0.0611 0.77625 0.0
C2718 C 0.2978 0.05246 0.7905 0.0
C2719 C 0.28449 0.05121 0.79368 0.0
C2720 C 0.27642 0.04314 0.80718 0.0
C2721 C 0.2815 0.03618 0.81753 0.0
C2722 C 0.29466 0.03726 0.81438 0.0
C2723 C 0.30278 0.04533 0.80091 0.0
H2724 H 0.27524 0.02994 0.82798 0.0
H2725 H 0.34788 0.10478 0.69219 0.0
H2726 H 0.93975 0.27756 0.69799 0.0
H2727 H 0.92625 0.26044 0.71992 0.0
H2728 H 0.964 0.27741 0.75073 0.0
H2729 H 0.97761 0.29384 0.7283 0.0
H2730 H 0.95117 0.25106 0.75478 0.0
H2731 H 0.93566 0.28527 0.75655 0.0
H2732 H 0.92631 0.30048 0.74579 0.0
H2733 H 0.88746 0.26335 0.73138 0.0
H2734 H 0.89665 0.2479 0.74186 0.0
H2735 H 0.91105 0.22084 0.83013 0.0
H2736 H 0.92573 0.23821 0.8088 0.0
H2737 H 0.89465 0.21357 0.77112 0.0
H2738 H 0.88013 0.19608 0.79225 0.0
H2739 H 0.90453 0.24452 0.77219 0.0
H2740 H 0.92154 0.2106 0.77086 0.0
H2741 H 0.93167 0.19656 0.78311 0.0
H2742 H 0.96875 0.23505 0.79859 0.0
H2743 H 0.95872 0.24932 0.78666 0.0
C2744 C 0.94511 0.27746 0.70942 0.0
C2745 C 0.95969 0.28667 0.71143 0.0
C2746 C 0.9374 0.26783 0.72202 0.0
C2747 C 0.94401 0.26778 0.73719 0.0
C2748 C 0.95862 0.27718 0.73919 0.0
C2749 C 0.9664 0.28654 0.7264 0.0
C2750 C 0.93573 0.25791 0.75091 0.0
C2751 C 0.94104 0.24976 0.75861 0.0
C2752 C 0.9225 0.25619 0.75612 0.0
C2753 C 0.9169 0.26543 0.74986 0.0
C2754 C 0.92516 0.28035 0.75099 0.0
C2755 C 0.91988 0.28901 0.74495 0.0
C2756 C 0.90631 0.28289 0.73787 0.0
C2757 C 0.89798 0.26808 0.73685 0.0
C2758 C 0.90321 0.25936 0.74285 0.0
C2759 C 0.90741 0.21916 0.81728 0.0
C2760 C 0.89454 0.20713 0.81276 0.0
C2761 C 0.91579 0.22903 0.80515 0.0
C2762 C 0.91124 0.22711 0.78843 0.0
C2763 C 0.89831 0.2152 0.78396 0.0
C2764 C 0.89009 0.20521 0.796 0.0
C2765 C 0.91989 0.23757 0.77555 0.0
C2766 C 0.91465 0.24585 0.76816 0.0
C2767 C 0.93329 0.2396 0.77082 0.0
C2768 C 0.93928 0.23102 0.77809 0.0
C2769 C 0.93177 0.21606 0.77706 0.0
C2770 C 0.93752 0.20806 0.7839 0.0
C2771 C 0.95082 0.2149 0.79168 0.0
C2772 C 0.95842 0.22977 0.7926 0.0
C2773 C 0.95271 0.23781 0.7858 0.0
H2774 H 0.95526 0.20869 0.79696 0.0
H2775 H 0.90225 0.28962 0.73321 0.0
H2776 H 0.71602 0.65552 0.69812 0.0
H2777 H 0.73299 0.65986 0.72092 0.0
H2778 H 0.7247 0.69206 0.74109 0.0
H2779 H 0.70734 0.68732 0.71867 0.0
H2780 H 0.75506 0.69972 0.73666 0.0
H2781 H 0.71091 0.66404 0.76063 0.0
H2782 H 0.68882 0.6409 0.76092 0.0
H2783 H 0.7129 0.6191 0.75817 0.0
H2784 H 0.73514 0.64214 0.7576 0.0
H2785 H 0.79277 0.71228 0.81286 0.0
H2786 H 0.77461 0.70772 0.79166 0.0
H2787 H 0.77155 0.66714 0.78057 0.0
H2788 H 0.78926 0.67145 0.80222 0.0
H2789 H 0.74653 0.66374 0.78023 0.0
H2790 H 0.79031 0.69807 0.75575 0.0
H2791 H 0.81294 0.72055 0.75333 0.0
H2792 H 0.79066 0.74424 0.75436 0.0
H2793 H 0.76791 0.7219 0.75705 0.0
C2794 C 0.71791 0.66356 0.70741 0.0
C2795 C 0.7109 0.67154 0.70636 0.0
C2796 C 0.72754 0.666 0.72039 0.0
C2797 C 0.73013 0.67634 0.73256 0.0
C2798 C 0.72292 0.68413 0.7317 0.0
C2799 C 0.71316 0.68155 0.71884 0.0
C2800 C 0.74041 0.67904 0.7462 0.0
C2801 C 0.75315 0.692 0.74636 0.0
C2802 C 0.73804 0.66868 0.75845 0.0
C2803 C 0.72468 0.65482 0.7589 0.0
C2804 C 0.71149 0.65432 0.75993 0.0
C2805 C 0.69895 0.64122 0.76018 0.0
C2806 C 0.69946 0.62853 0.75952 0.0
C2807 C 0.71252 0.62893 0.75866 0.0
C2808 C 0.7251 0.64201 0.75838 0.0
C2809 C 0.78818 0.70239 0.80588 0.0
C2810 C 0.7924 0.69222 0.80912 0.0
C2811 C 0.77786 0.69981 0.79373 0.0
C2812 C 0.77186 0.68718 0.78427 0.0
C2813 C 0.77598 0.67695 0.78768 0.0
C2814 C 0.78611 0.67942 0.80003 0.0
C2815 C 0.76132 0.68459 0.77082 0.0
C2816 C 0.7485 0.67159 0.77062 0.0
C2817 C 0.76374 0.69486 0.75832 0.0
C2818 C 0.77742 0.70832 0.75683 0.0
C2819 C 0.79025 0.70808 0.75563 0.0
C2820 C 0.80309 0.7208 0.75418 0.0
C2821 C 0.80324 0.73382 0.75375 0.0
C2822 C 0.79054 0.73415 0.75474 0.0
C2823 C 0.77766 0.72146 0.75623 0.0
H2824 H 0.8132 0.74366 0.75261 0.0
H2825 H 0.68973 0.6184 0.75972 0.0
H2826 H 0.69012 0.64299 0.63374 0.0
H2827 H 0.69918 0.63452 0.61113 0.0
H2828 H 0.73696 0.67567 0.60897 0.0
H2829 H 0.72799 0.68428 0.63121 0.0
H2830 H 0.7282 0.66591 0.5784 0.0
H2831 H 0.73638 0.64758 0.62993 0.0
H2832 H 0.72924 0.63406 0.65627 0.0
H2833 H 0.702 0.59574 0.62917 0.0
H2834 H 0.70885 0.60909 0.60267 0.0
H2835 H 0.7767 0.63432 0.55901 0.0
H2836 H 0.76168 0.63814 0.57854 0.0
H2837 H 0.73431 0.63586 0.53784 0.0
H2838 H 0.74962 0.6325 0.51818 0.0
H2839 H 0.73548 0.62456 0.58858 0.0
H2840 H 0.72172 0.65823 0.54479 0.0
H2841 H 0.73102 0.67298 0.51948 0.0
H2842 H 0.77338 0.6833 0.53339 0.0
H2843 H 0.76434 0.66872 0.55883 0.0
C2844 C 0.7003 0.65028 0.62837 0.0
C2845 C 0.70833 0.66431 0.6344 0.0
C2846 C 0.70548 0.6454 0.61547 0.0
C2847 C 0.71881 0.65442 0.60844 0.0
C2848 C 0.72664 0.66851 0.61415 0.0
C2849 C 0.72148 0.6734 0.62696 0.0
C2850 C 0.72499 0.64921 0.59559 0.0
C2851 C 0.72967 0.65679 0.58057 0.0
C2852 C 0.72706 0.6374 0.59845 0.0
C2853 C 0.72299 0.62936 0.61435 0.0
C2854 C 0.72878 0.63629 0.6296 0.0
C2855 C 0.7248 0.62866 0.64456 0.0
C2856 C 0.71514 0.61406 0.6444 0.0
C2857 C 0.70947 0.60705 0.62928 0.0
C2858 C 0.71339 0.61465 0.61429 0.0
C2859 C 0.76737 0.63445 0.55426 0.0
C2860 C 0.76438 0.63323 0.53707 0.0
C2861 C 0.75878 0.63662 0.56544 0.0
C2862 C 0.74697 0.63752 0.55967 0.0
C2863 C 0.74354 0.63553 0.54257 0.0
C2864 C 0.75226 0.63359 0.53135 0.0
C2865 C 0.73885 0.64136 0.57146 0.0
C2866 C 0.73379 0.63353 0.58627 0.0
C2867 C 0.73672 0.65314 0.56858 0.0
C2868 C 0.74233 0.66228 0.5536 0.0
C2869 C 0.73302 0.66371 0.54247 0.0
C2870 C 0.73824 0.67202 0.5281 0.0
C2871 C 0.75277 0.67903 0.5248 0.0
C2872 C 0.76212 0.67782 0.53593 0.0
C2873 C 0.75696 0.66953 0.55032 0.0
H2874 H 0.75679 0.68542 0.51365 0.0
H2875 H 0.71207 0.60816 0.65599 0.0
H2876 H 0.32055 0.04985 0.65106 0.0
H2877 H 0.32272 0.06545 0.62768 0.0
H2878 H 0.34843 0.05152 0.6014 0.0
H2879 H 0.34698 0.0367 0.62531 0.0
H2880 H 0.35947 0.07745 0.59682 0.0
H2881 H 0.31202 0.04057 0.59091 0.0
H2882 H 0.28751 0.02358 0.59917 0.0
H2883 H 0.28024 0.0583 0.61073 0.0
H2884 H 0.30478 0.07551 0.60276 0.0
H2885 H 0.35473 0.1116 0.52215 0.0
H2886 H 0.35185 0.09332 0.54239 0.0
H2887 H 0.33402 0.11021 0.5776 0.0
H2888 H 0.33723 0.12871 0.55776 0.0
H2889 H 0.31836 0.08064 0.57448 0.0
H2890 H 0.36705 0.11752 0.58236 0.0
H2891 H 0.39162 0.1339 0.57374 0.0
H2892 H 0.39636 0.09839 0.55832 0.0
H2893 H 0.37172 0.08179 0.5666 0.0
C2894 C 0.32669 0.05023 0.64027 0.0
C2895 C 0.33388 0.04244 0.64 0.0
C2896 C 0.3278 0.05898 0.62683 0.0
C2897 C 0.33552 0.05949 0.61255 0.0
C2898 C 0.34242 0.05137 0.61222 0.0
C2899 C 0.34163 0.04293 0.62585 0.0
C2900 C 0.33687 0.06894 0.5983 0.0
C2901 C 0.35044 0.07805 0.59196 0.0
C2902 C 0.32509 0.06964 0.5916 0.0
C2903 C 0.31029 0.05933 0.59635 0.0
C2904 C 0.30523 0.04459 0.59532 0.0
C2905 C 0.29132 0.03492 0.59994 0.0
C2906 C 0.28233 0.03986 0.6055 0.0
C2907 C 0.28722 0.05449 0.60642 0.0
C2908 C 0.30112 0.06421 0.60184 0.0
C2909 C 0.35033 0.11151 0.53426 0.0
C2910 C 0.34616 0.1216 0.53829 0.0
C2911 C 0.34863 0.10102 0.54576 0.0
C2912 C 0.34272 0.10044 0.56146 0.0
C2913 C 0.33849 0.11042 0.56549 0.0
C2914 C 0.34028 0.12095 0.55408 0.0
C2915 C 0.34102 0.08953 0.57386 0.0
C2916 C 0.32735 0.08005 0.57962 0.0
C2917 C 0.3527 0.08845 0.58001 0.0
C2918 C 0.36747 0.09843 0.57485 0.0
C2919 C 0.37327 0.11321 0.57694 0.0
C2920 C 0.38723 0.12253 0.57216 0.0
C2921 C 0.39553 0.1172 0.56542 0.0
C2922 C 0.3899 0.10251 0.56349 0.0
C2923 C 0.37594 0.09314 0.56822 0.0
H2924 H 0.40634 0.12443 0.56175 0.0
H2925 H 0.27157 0.03236 0.60907 0.0
H2926 H 0.95261 0.30324 0.6405 0.0
H2927 H 0.93669 0.2928 0.61653 0.0
H2928 H 0.95426 0.26522 0.60754 0.0
H2929 H 0.96996 0.27533 0.63165 0.0
H2930 H 0.93833 0.28926 0.58348 0.0
H2931 H 0.92806 0.23245 0.59896 0.0
H2932 H 0.9289 0.21902 0.62352 0.0
H2933 H 0.92106 0.2461 0.65573 0.0
H2934 H 0.91999 0.25954 0.63139 0.0
H2935 H 0.89782 0.24144 0.51748 0.0
H2936 H 0.91568 0.2563 0.53839 0.0
H2937 H 0.88467 0.23632 0.57729 0.0
H2938 H 0.86713 0.22111 0.55652 0.0
H2939 H 0.90714 0.23688 0.58677 0.0
H2940 H 0.89719 0.27183 0.56336 0.0
H2941 H 0.89443 0.28614 0.54112 0.0
H2942 H 0.93832 0.30376 0.52835 0.0
H2943 H 0.94129 0.28941 0.55039 0.0
C2944 C 0.95324 0.29509 0.63329 0.0
C2945 C 0.96241 0.28996 0.63817 0.0
C2946 C 0.94416 0.28918 0.61954 0.0
C2947 C 0.94412 0.27808 0.61043 0.0
C2948 C 0.95393 0.27361 0.6146 0.0
C2949 C 0.9629 0.2794 0.6284 0.0
C2950 C 0.93304 0.27029 0.59756 0.0
C2951 C 0.93151 0.27781 0.58412 0.0
C2952 C 0.92388 0.2554 0.59869 0.0
C2953 C 0.9241 0.24708 0.61336 0.0
C2954 C 0.92645 0.23548 0.61128 0.0
C2955 C 0.92698 0.22788 0.62517 0.0
C2956 C 0.9251 0.23174 0.64119 0.0
C2957 C 0.92259 0.24315 0.64334 0.0
C2958 C 0.92202 0.25077 0.62951 0.0
C2959 C 0.89486 0.24039 0.53049 0.0
C2960 C 0.88119 0.23013 0.53547 0.0
C2961 C 0.90502 0.2489 0.54243 0.0
C2962 C 0.90153 0.2475 0.55947 0.0
C2963 C 0.88769 0.23754 0.56428 0.0
C2964 C 0.87766 0.22889 0.55243 0.0
C2965 C 0.91239 0.25579 0.57245 0.0
C2966 C 0.91392 0.24833 0.58598 0.0
C2967 C 0.92117 0.27078 0.57166 0.0
C2968 C 0.91942 0.27944 0.55842 0.0
C2969 C 0.90622 0.27867 0.55573 0.0
C2970 C 0.90463 0.28681 0.54317 0.0
C2971 C 0.91618 0.29583 0.5333 0.0
C2972 C 0.92937 0.29676 0.53599 0.0
C2973 C 0.93102 0.28863 0.54852 0.0
H2974 H 0.91492 0.30212 0.52359 0.0
H2975 H 0.92556 0.22587 0.65192 0.0
H2976 H 0.31931 0.27535 0.64898 0.0
H2977 H 0.3207 0.26146 0.62603 0.0
H2978 H 0.35932 0.29816 0.60946 0.0
H2979 H 0.35612 0.31258 0.63055 0.0
H2980 H 0.34768 0.28747 0.5845 0.0
H2981 H 0.35634 0.26052 0.62858 0.0
H2982 H 0.35174 0.24735 0.65523 0.0
H2983 H 0.30842 0.22012 0.64037 0.0
H2984 H 0.31295 0.23297 0.61356 0.0
H2985 H 0.36942 0.24368 0.5387 0.0
H2986 H 0.36678 0.25878 0.55939 0.0
H2987 H 0.32136 0.23232 0.55702 0.0
H2988 H 0.32375 0.21759 0.53562 0.0
H2989 H 0.33568 0.23701 0.59035 0.0
H2990 H 0.33203 0.2619 0.54202 0.0
H2991 H 0.34028 0.27447 0.5152 0.0
H2992 H 0.37855 0.30625 0.5388 0.0
H2993 H 0.37063 0.29374 0.56573 0.0
C2994 C 0.3282 0.28037 0.64053 0.0
C2995 C 0.33816 0.29488 0.64217 0.0
C2996 C 0.32917 0.27231 0.62752 0.0
C2997 C 0.34052 0.27839 0.61621 0.0
C2998 C 0.35051 0.29297 0.61796 0.0
C2999 C 0.349 0.3012 0.6304 0.0
C3000 C 0.34133 0.26996 0.60182 0.0
C3001 C 0.34534 0.27654 0.58605 0.0
C3002 C 0.33782 0.25546 0.60325 0.0
C3003 C 0.3349 0.24795 0.61942 0.0
C3004 C 0.34581 0.25188 0.63123 0.0
C3005 C 0.34324 0.24442 0.64625 0.0
C3006 C 0.32974 0.23307 0.64962 0.0
C3007 C 0.31885 0.22899 0.63782 0.0
C3008 C 0.32144 0.23629 0.62267 0.0
C3009 C 0.35883 0.24125 0.54217 0.0
C3010 C 0.3468 0.22929 0.53551 0.0
C3011 C 0.35737 0.24987 0.5541 0.0
C3012 C 0.34389 0.2466 0.55971 0.0
C3013 C 0.33185 0.23494 0.55286 0.0
C3014 C 0.33328 0.22647 0.54072 0.0
C3015 C 0.34241 0.25474 0.57362 0.0
C3016 C 0.33814 0.24802 0.58911 0.0
C3017 C 0.34611 0.26918 0.57202 0.0
C3018 C 0.35079 0.2768 0.55587 0.0
C3019 C 0.34226 0.27149 0.54147 0.0
C3020 C 0.34687 0.27863 0.52625 0.0
C3021 C 0.35995 0.29113 0.52529 0.0
C3022 C 0.36843 0.29655 0.53956 0.0
C3023 C 0.36388 0.28945 0.55481 0.0
H3024 H 0.3635 0.29663 0.51351 0.0
H3025 H 0.32775 0.22735 0.66129 0.0
H3026 H 0.73337 0.04443 0.63605 0.0
H3027 H 0.74284 0.06182 0.61359 0.0
H3028 H 0.70173 0.05799 0.60563 0.0
H3029 H 0.69206 0.04068 0.62853 0.0
H3030 H 0.72234 0.05784 0.57496 0.0
H3031 H 0.71692 0.08415 0.62145 0.0
H3032 H 0.7193 0.09045 0.65132 0.0
H3033 H 0.76411 0.10577 0.6492 0.0
H3034 H 0.76194 0.09937 0.61936 0.0
H3035 H 0.75537 0.11795 0.52092 0.0
H3036 H 0.73903 0.10046 0.54074 0.0
H3037 H 0.77347 0.11249 0.57589 0.0
H3038 H 0.78949 0.1308 0.55692 0.0
H3039 H 0.75223 0.10825 0.59235 0.0
H3040 H 0.75926 0.08148 0.54896 0.0
H3041 H 0.75901 0.07342 0.52012 0.0
H3042 H 0.71411 0.05746 0.51682 0.0
H3043 H 0.71412 0.06559 0.54559 0.0
C3044 C 0.72624 0.04714 0.62952 0.0
C3045 C 0.71194 0.0412 0.63423 0.0
C3046 C 0.7317 0.05708 0.61665 0.0
C3047 C 0.72297 0.06115 0.60804 0.0
C3048 C 0.70859 0.05491 0.61218 0.0
C3049 C 0.70312 0.04508 0.62529 0.0
C3050 C 0.72934 0.0726 0.59548 0.0
C3051 C 0.7286 0.06893 0.5786 0.0
C3052 C 0.73786 0.08693 0.60044 0.0
C3053 C 0.73925 0.0912 0.61822 0.0
C3054 C 0.72726 0.08879 0.62739 0.0
C3055 C 0.72858 0.09238 0.6443 0.0
C3056 C 0.74184 0.09848 0.65217 0.0
C3057 C 0.75384 0.10105 0.6431 0.0
C3058 C 0.75258 0.09746 0.62618 0.0
C3059 C 0.75944 0.11708 0.53298 0.0
C3060 C 0.77387 0.12576 0.53715 0.0
C3061 C 0.75009 0.10689 0.54424 0.0
C3062 C 0.75502 0.1049 0.55974 0.0
C3063 C 0.76934 0.11372 0.56402 0.0
C3064 C 0.7786 0.12409 0.55297 0.0
C3065 C 0.74548 0.0936 0.57157 0.0
C3066 C 0.7457 0.09726 0.58843 0.0
C3067 C 0.73675 0.0792 0.5666 0.0
C3068 C 0.73672 0.0743 0.54933 0.0
C3069 C 0.74935 0.07635 0.54203 0.0
C3070 C 0.74925 0.07175 0.52571 0.0
C3071 C 0.73656 0.06498 0.51662 0.0
C3072 C 0.72393 0.06274 0.52386 0.0
C3073 C 0.72398 0.06733 0.54017 0.0
H3074 H 0.7365 0.06143 0.50399 0.0
H3075 H 0.74284 0.10123 0.66527 0.0
H3076 H 0.95561 0.68525 0.64842 0.0
H3077 H 0.94138 0.68455 0.62452 0.0
H3078 H 0.93779 0.64442 0.60939 0.0
H3079 H 0.95484 0.64722 0.63101 0.0
H3080 H 0.93767 0.65451 0.58432 0.0
H3081 H 0.90592 0.65321 0.6319 0.0
H3082 H 0.90128 0.66366 0.65693 0.0
H3083 H 0.91721 0.7037 0.6316 0.0
H3084 H 0.92182 0.69339 0.60652 0.0
H3085 H 0.86151 0.63665 0.55759 0.0
H3086 H 0.87997 0.64226 0.57838 0.0
H3087 H 0.91201 0.66417 0.54109 0.0
H3088 H 0.89352 0.65778 0.51987 0.0
H3089 H 0.89925 0.66645 0.59026 0.0
H3090 H 0.94201 0.66305 0.55184 0.0
H3091 H 0.94406 0.65069 0.52704 0.0
H3092 H 0.90213 0.61581 0.53538 0.0
H3093 H 0.89991 0.6279 0.56033 0.0
C3094 C 0.95166 0.67624 0.63998 0.0
C3095 C 0.95538 0.6656 0.64232 0.0
C3096 C 0.94318 0.67565 0.62642 0.0
C3097 C 0.93752 0.66397 0.61538 0.0
C3098 C 0.94165 0.65354 0.61762 0.0
C3099 C 0.95099 0.65475 0.63044 0.0
C3100 C 0.92784 0.66268 0.60116 0.0
C3101 C 0.92919 0.65698 0.5859 0.0
C3102 C 0.91697 0.66639 0.60247 0.0
C3103 C 0.91454 0.67263 0.61763 0.0
C3104 C 0.90863 0.66428 0.63187 0.0
C3105 C 0.90594 0.67015 0.64598 0.0
C3106 C 0.90912 0.68438 0.64592 0.0
C3107 C 0.91484 0.69271 0.63169 0.0
C3108 C 0.91744 0.68685 0.61751 0.0
C3109 C 0.87246 0.64238 0.55365 0.0
C3110 C 0.87598 0.64662 0.53696 0.0
C3111 C 0.88303 0.64576 0.56565 0.0
C3112 C 0.8974 0.65357 0.56132 0.0
C3113 C 0.901 0.65796 0.54471 0.0
C3114 C 0.8904 0.65443 0.53261 0.0
C3115 C 0.90845 0.65716 0.57438 0.0
C3116 C 0.90759 0.6637 0.58907 0.0
C3117 C 0.91949 0.65387 0.57272 0.0
C3118 C 0.92074 0.64646 0.55782 0.0
C3119 C 0.93325 0.65273 0.54839 0.0
C3120 C 0.93443 0.64578 0.53431 0.0
C3121 C 0.92321 0.6325 0.5296 0.0
C3122 C 0.91079 0.62613 0.539 0.0
C3123 C 0.90956 0.63303 0.5531 0.0
H3124 H 0.92414 0.62713 0.51869 0.0
H3125 H 0.90704 0.6889 0.65686 0.0
H3126 H 0.97187 0.69071 0.71318 0.0
H3127 H 0.96202 0.69875 0.73538 0.0
H3128 H 0.92715 0.65593 0.74066 0.0
H3129 H 0.93669 0.6479 0.71844 0.0
H3130 H 0.9177 0.67419 0.73871 0.0
H3131 H 0.95476 0.67135 0.76947 0.0
H3132 H 0.97938 0.67703 0.77533 0.0
H3133 H 0.99205 0.7214 0.77967 0.0
H3134 H 0.96753 0.716 0.77361 0.0
H3135 H 0.8863 0.67429 0.81429 0.0
H3136 H 0.90024 0.67033 0.7934 0.0
H3137 H 0.92934 0.71551 0.79115 0.0
H3138 H 0.91556 0.71958 0.81246 0.0
H3139 H 0.94298 0.69904 0.79058 0.0
H3140 H 0.90543 0.70147 0.76167 0.0
H3141 H 0.8807 0.69555 0.75624 0.0
H3142 H 0.86892 0.65171 0.74845 0.0
H3143 H 0.89355 0.65732 0.75409 0.0
C3144 C 0.96218 0.68299 0.71918 0.0
C3145 C 0.95506 0.66866 0.71396 0.0
C3146 C 0.95658 0.68759 0.7319 0.0
C3147 C 0.94386 0.67793 0.73972 0.0
C3148 C 0.93693 0.6636 0.73475 0.0
C3149 C 0.94244 0.65902 0.72204 0.0
C3150 C 0.9373 0.68267 0.75261 0.0
C3151 C 0.92321 0.6795 0.75011 0.0
C3152 C 0.94462 0.69004 0.76724 0.0
C3153 C 0.95935 0.69329 0.7709 0.0
C3154 C 0.96282 0.68233 0.77153 0.0
C3155 C 0.97675 0.6855 0.77492 0.0
C3156 C 0.98728 0.69958 0.77782 0.0
C3157 C 0.98389 0.71051 0.77739 0.0
C3158 C 0.96998 0.7074 0.77399 0.0
C3159 C 0.89581 0.68339 0.80961 0.0
C3160 C 0.89982 0.69726 0.81503 0.0
C3161 C 0.90369 0.68111 0.79756 0.0
C3162 C 0.91572 0.69264 0.79059 0.0
C3163 C 0.92006 0.70648 0.79634 0.0
C3164 C 0.91213 0.70878 0.8084 0.0
C3165 C 0.9233 0.69015 0.77683 0.0
C3166 C 0.93755 0.69382 0.77911 0.0
C3167 C 0.91614 0.6832 0.76196 0.0
C3168 C 0.90132 0.6798 0.75843 0.0
C3169 C 0.89755 0.69054 0.75892 0.0
C3170 C 0.88355 0.68725 0.75579 0.0
C3171 C 0.87324 0.67326 0.75203 0.0
C3172 C 0.87691 0.66254 0.75137 0.0
C3173 C 0.8909 0.66578 0.75451 0.0
H3174 H 0.8624 0.67073 0.74961 0.0
H3175 H 0.99806 0.70201 0.78044 0.0
H3176 H 0.35233 0.29501 0.71938 0.0
H3177 H 0.34331 0.27622 0.74021 0.0
H3178 H 0.30082 0.2686 0.7315 0.0
H3179 H 0.30976 0.28758 0.7105 0.0
H3180 H 0.3071 0.26725 0.76554 0.0
H3181 H 0.30978 0.24736 0.71346 0.0
H3182 H 0.32115 0.24637 0.68734 0.0
H3183 H 0.35337 0.24319 0.71543 0.0
H3184 H 0.34236 0.24443 0.74173 0.0
H3185 H 0.27969 0.20017 0.80846 0.0
H3186 H 0.28372 0.21818 0.78724 0.0
H3187 H 0.32818 0.23079 0.78652 0.0
H3188 H 0.32419 0.21267 0.80731 0.0
H3189 H 0.31753 0.22797 0.75536 0.0
H3190 H 0.31636 0.25046 0.80703 0.0
H3191 H 0.30564 0.25231 0.83327 0.0
H3192 H 0.27068 0.2507 0.80584 0.0
H3193 H 0.28111 0.24866 0.77943 0.0
C3194 C 0.34107 0.28949 0.72195 0.0
C3195 C 0.33175 0.29274 0.71308 0.0
C3196 C 0.33594 0.27871 0.73387 0.0
C3197 C 0.32138 0.27086 0.73715 0.0
C3198 C 0.31209 0.27451 0.72904 0.0
C3199 C 0.31723 0.28535 0.71705 0.0
C3200 C 0.31598 0.25842 0.74847 0.0
C3201 C 0.30911 0.2585 0.76319 0.0
C3202 C 0.31876 0.24711 0.74542 0.0
C3203 C 0.32528 0.24608 0.7296 0.0
C3204 C 0.31934 0.24654 0.71408 0.0
C3205 C 0.32572 0.24593 0.69924 0.0
C3206 C 0.33798 0.24473 0.69973 0.0
C3207 C 0.34387 0.24412 0.71507 0.0
C3208 C 0.33756 0.24476 0.72995 0.0
C3209 C 0.29031 0.20675 0.80371 0.0
C3210 C 0.30164 0.20506 0.80966 0.0
C3211 C 0.29261 0.21709 0.79168 0.0
C3212 C 0.30627 0.2259 0.78539 0.0
C3213 C 0.31755 0.22413 0.79121 0.0
C3214 C 0.31528 0.21386 0.80323 0.0
C3215 C 0.30897 0.23697 0.77268 0.0
C3216 C 0.31531 0.2366 0.75763 0.0
C3217 C 0.30568 0.24798 0.77543 0.0
C3218 C 0.29943 0.24923 0.79128 0.0
C3219 C 0.30633 0.25038 0.80661 0.0
C3220 C 0.30032 0.25149 0.82151 0.0
C3221 C 0.28747 0.25158 0.82123 0.0
C3222 C 0.28062 0.2506 0.80604 0.0
C3223 C 0.28658 0.24948 0.7911 0.0
H3224 H 0.28283 0.25244 0.83278 0.0
H3225 H 0.3429 0.24425 0.68824 0.0
H3226 H 0.72072 0.06135 0.69157 0.0
H3227 H 0.73778 0.07671 0.71263 0.0
H3228 H 0.73242 0.03975 0.73952 0.0
H3229 H 0.71421 0.02433 0.71925 0.0
H3230 H 0.72784 0.06149 0.75697 0.0
H3231 H 0.77994 0.06874 0.73488 0.0
H3232 H 0.79544 0.07352 0.71051 0.0
H3233 H 0.77626 0.0955 0.68643 0.0
H3234 H 0.76132 0.09158 0.71103 0.0
H3235 H 0.77788 0.08883 0.82392 0.0
H3236 H 0.76197 0.07539 0.80073 0.0
H3237 H 0.78246 0.11277 0.76951 0.0
H3238 H 0.79875 0.12586 0.79243 0.0
H3239 H 0.77997 0.092 0.75286 0.0
H3240 H 0.74761 0.09905 0.78584 0.0
H3241 H 0.73452 0.09859 0.81107 0.0
H3242 H 0.71517 0.05302 0.81302 0.0
H3243 H 0.7283 0.05321 0.78792 0.0
C3244 C 0.72349 0.05651 0.70174 0.0
C3245 C 0.71664 0.04164 0.70341 0.0
C3246 C 0.73348 0.06532 0.7136 0.0
C3247 C 0.73706 0.05943 0.72715 0.0
C3248 C 0.73022 0.04453 0.72882 0.0
C3249 C 0.71992 0.03572 0.71719 0.0
C3250 C 0.74598 0.06864 0.74102 0.0
C3251 C 0.73927 0.06813 0.75612 0.0
C3252 C 0.76082 0.07766 0.73975 0.0
C3253 C 0.76886 0.07908 0.72437 0.0
C3254 C 0.7789 0.07441 0.72427 0.0
C3255 C 0.78777 0.07719 0.71053 0.0
C3256 C 0.78667 0.08459 0.6968 0.0
C3257 C 0.7769 0.0895 0.69693 0.0
C3258 C 0.76818 0.08695 0.71075 0.0
C3259 C 0.77882 0.09412 0.81211 0.0
C3260 C 0.78944 0.10829 0.80982 0.0
C3261 C 0.7697 0.08651 0.79891 0.0
C3262 C 0.77088 0.09309 0.78336 0.0
C3263 C 0.78133 0.10742 0.78132 0.0
C3264 C 0.79059 0.11491 0.79439 0.0
C3265 C 0.76186 0.0849 0.7689 0.0
C3266 C 0.76854 0.08547 0.75376 0.0
C3267 C 0.74695 0.07633 0.76998 0.0
C3268 C 0.73905 0.07616 0.78509 0.0
C3269 C 0.74065 0.08893 0.79173 0.0
C3270 C 0.73321 0.08872 0.80599 0.0
C3271 C 0.72404 0.07579 0.81367 0.0
C3272 C 0.72228 0.06303 0.80707 0.0
C3273 C 0.72971 0.06318 0.79282 0.0
H3274 H 0.71829 0.07564 0.8247 0.0
H3275 H 0.79348 0.08666 0.68614 0.0
H3276 H 0.05708 0.36165 0.02732 0.0
H3277 H 0.07047 0.35197 0.04123 0.0
H3278 H 0.03256 0.31107 0.04522 0.0
H3279 H 0.01886 0.32078 0.03148 0.0
H3280 H 0.0471 0.31832 0.07408 0.0
H3281 H 0.05823 0.31587 0.0175 0.0
H3282 H 0.06543 0.32434 0.98873 0.0
H3283 H 0.10606 0.35679 0.0066 0.0
H3284 H 0.09903 0.34866 0.03552 0.0
H3285 H 0.09208 0.29193 0.10608 0.0
H3286 H 0.07517 0.29443 0.08773 0.0
H3287 H 0.10555 0.33886 0.0806 0.0
H3288 H 0.12246 0.33641 0.09872 0.0
H3289 H 0.09244 0.32518 0.05114 0.0
H3290 H 0.07941 0.32941 0.10787 0.0
H3291 H 0.072 0.32091 0.1366 0.0
H3292 H 0.03457 0.28439 0.11779 0.0
H3293 H 0.04186 0.29259 0.08892 0.0
C3294 C 0.05152 0.35057 0.03105 0.0
C3295 C 0.03685 0.342 0.02824 0.0
C3296 C 0.05925 0.34502 0.03893 0.0
C3297 C 0.05257 0.33074 0.04404 0.0
C3298 C 0.03794 0.32211 0.0413 0.0
C3299 C 0.03014 0.32768 0.03342 0.0
C3300 C 0.06093 0.32514 0.0528 0.0
C3301 C 0.05684 0.31951 0.0689 0.0
C3302 C 0.07372 0.32681 0.04611 0.0
C3303 C 0.07806 0.33169 0.02871 0.0
C3304 C 0.06867 0.32487 0.01531 0.0
C3305 C 0.07272 0.3296 0.99897 0.0
C3306 C 0.08619 0.34111 0.99584 0.0
C3307 C 0.09563 0.34788 0.00905 0.0
C3308 C 0.09163 0.3432 0.02542 0.0
C3309 C 0.09516 0.30219 0.10046 0.0
C3310 C 0.10853 0.31401 0.10391 0.0
C3311 C 0.08549 0.30361 0.09007 0.0
C3312 C 0.0891 0.31685 0.0829 0.0
C3313 C 0.10257 0.32855 0.08601 0.0
C3314 C 0.11216 0.32717 0.09647 0.0
C3315 C 0.0788 0.3188 0.07253 0.0
C3316 C 0.08254 0.32373 0.05614 0.0
C3317 C 0.06567 0.31641 0.0789 0.0
C3318 C 0.06127 0.31152 0.09624 0.0
C3319 C 0.06966 0.31951 0.10986 0.0
C3320 C 0.06547 0.31475 0.12617 0.0
C3321 C 0.05285 0.30209 0.12902 0.0
C3322 C 0.04436 0.29418 0.11556 0.0
C3323 C 0.04851 0.29887 0.09923 0.0
H3324 H 0.04962 0.29843 0.14165 0.0
H3325 H 0.0893 0.34476 0.98318 0.0
H3326 H 0.64648 0.68828 0.01893 0.0
H3327 H 0.65306 0.71061 0.0334 0.0
H3328 H 0.68453 0.70608 0.06203 0.0
H3329 H 0.67748 0.68338 0.04811 0.0
H3330 H 0.67148 0.714 0.08178 0.0
H3331 H 0.69303 0.73094 0.02884 0.0
H3332 H 0.69449 0.73276 0.99817 0.0
H3333 H 0.66347 0.74656 0.99735 0.0
H3334 H 0.66169 0.74464 0.02801 0.0
H3335 H 0.70494 0.78607 0.11179 0.0
H3336 H 0.70124 0.76521 0.09555 0.0
H3337 H 0.66161 0.76016 0.07675 0.0
H3338 H 0.66515 0.78084 0.09317 0.0
H3339 H 0.68046 0.75802 0.052 0.0
H3340 H 0.65895 0.73975 0.10586 0.0
H3341 H 0.65909 0.73871 0.1366 0.0
H3342 H 0.69263 0.7284 0.1353 0.0
H3343 H 0.69283 0.7296 0.10454 0.0
C3344 C 0.65486 0.6921 0.02823 0.0
C3345 C 0.66149 0.68411 0.03238 0.0
C3346 C 0.65869 0.70492 0.03644 0.0
C3347 C 0.66947 0.7102 0.04865 0.0
C3348 C 0.67618 0.70226 0.05267 0.0
C3349 C 0.67218 0.68931 0.04468 0.0
C3350 C 0.67337 0.7237 0.05766 0.0
C3351 C 0.67369 0.72367 0.0752 0.0
C3352 C 0.67608 0.73634 0.04917 0.0
C3353 C 0.67714 0.73753 0.03072 0.0
C3354 C 0.68644 0.73427 0.02212 0.0
C3355 C 0.68734 0.73533 0.00473 0.0
C3356 C 0.67905 0.73974 0.99582 0.0
C3357 C 0.66987 0.74313 0.00427 0.0
C3358 C 0.66893 0.74207 0.02166 0.0
C3359 C 0.69552 0.78056 0.10407 0.0
C3360 C 0.6853 0.78498 0.10373 0.0
C3361 C 0.6934 0.76866 0.09487 0.0
C3362 C 0.68114 0.76117 0.08502 0.0
C3363 C 0.67114 0.76583 0.08428 0.0
C3364 C 0.67313 0.77756 0.09369 0.0
C3365 C 0.67847 0.74817 0.07592 0.0
C3366 C 0.67837 0.74833 0.05844 0.0
C3367 C 0.6762 0.73574 0.08443 0.0
C3368 C 0.67602 0.73493 0.10291 0.0
C3369 C 0.66645 0.7374 0.11214 0.0
C3370 C 0.66645 0.73675 0.12956 0.0
C3371 C 0.67589 0.73353 0.1379 0.0
C3372 C 0.68533 0.73092 0.12883 0.0
C3373 C 0.68539 0.73157 0.1114 0.0
H3374 H 0.67587 0.73303 0.1514 0.0
H3375 H 0.67976 0.74056 0.98236 0.0
H3376 H 0.31358 0.98564 0.05307 0.0
H3377 H 0.2915 0.96884 0.06657 0.0
H3378 H 0.27724 0.944 0.02135 0.0
H3379 H 0.29955 0.96081 0.00765 0.0
H3380 H 0.25589 0.94868 0.03944 0.0
H3381 H 0.28887 0.93152 0.04813 0.0
H3382 H 0.31203 0.93397 0.05591 0.0
H3383 H 0.30809 0.94668 0.10541 0.0
H3384 H 0.28499 0.94453 0.09784 0.0
H3385 H 0.20045 0.88896 0.08226 0.0
H3386 H 0.2201 0.90458 0.06407 0.0
H3387 H 0.24483 0.92752 0.10722 0.0
H3388 H 0.22537 0.91172 0.1254 0.0
H3389 H 0.2605 0.92226 0.08766 0.0
H3390 H 0.22885 0.94108 0.07951 0.0
H3391 H 0.20624 0.94016 0.07234 0.0
H3392 H 0.20789 0.92578 0.02293 0.0
H3393 H 0.23043 0.92644 0.02988 0.0
C3394 C 0.30572 0.9767 0.04588 0.0
C3395 C 0.30836 0.97451 0.0293 0.0
C3396 C 0.29311 0.9671 0.05364 0.0
C3397 C 0.28282 0.95514 0.04499 0.0
C3398 C 0.28509 0.95319 0.02822 0.0
C3399 C 0.29783 0.96276 0.02044 0.0
C3400 C 0.27013 0.94439 0.05397 0.0
C3401 C 0.25679 0.94268 0.0498 0.0
C3402 C 0.27145 0.93686 0.06771 0.0
C3403 C 0.28525 0.93798 0.07237 0.0
C3404 C 0.29299 0.93495 0.06064 0.0
C3405 C 0.3061 0.93626 0.06502 0.0
C3406 C 0.31154 0.94051 0.08114 0.0
C3407 C 0.30386 0.9434 0.09293 0.0
C3408 C 0.29076 0.94212 0.0886 0.0
C3409 C 0.21004 0.89744 0.08782 0.0
C3410 C 0.2114 0.89912 0.10524 0.0
C3411 C 0.22126 0.90638 0.07742 0.0
C3412 C 0.23395 0.91733 0.08424 0.0
C3413 C 0.2352 0.91912 0.10164 0.0
C3414 C 0.22408 0.91009 0.11203 0.0
C3415 C 0.24614 0.92666 0.07341 0.0
C3416 C 0.25946 0.92811 0.07722 0.0
C3417 C 0.24479 0.93405 0.05947 0.0
C3418 C 0.23124 0.93365 0.05527 0.0
C3419 C 0.22433 0.93761 0.06716 0.0
C3420 C 0.21154 0.93716 0.06313 0.0
C3421 C 0.20561 0.93287 0.04721 0.0
C3422 C 0.21248 0.92907 0.03527 0.0
C3423 C 0.22527 0.92949 0.03924 0.0
H3424 H 0.19571 0.93253 0.04411 0.0
H3425 H 0.3217 0.94153 0.0845 0.0
H3426 H 0.31952 0.01492 0.98889 0.0
H3427 H 0.30952 0.02775 0.9738 0.0
H3428 H 0.35076 0.06548 0.97323 0.0
H3429 H 0.3607 0.05297 0.9886 0.0
H3430 H 0.33172 0.07263 0.98011 0.0
H3431 H 0.33618 0.04253 0.93878 0.0
H3432 H 0.33185 0.01969 0.92675 0.0
H3433 H 0.28703 0.00456 0.92609 0.0
H3434 H 0.2911 0.02725 0.93832 0.0
H3435 H 0.32996 0.11294 0.91217 0.0
H3436 H 0.33436 0.09707 0.92983 0.0
H3437 H 0.28947 0.06758 0.93191 0.0
H3438 H 0.28486 0.08366 0.91462 0.0
H3439 H 0.30675 0.05466 0.92593 0.0
H3440 H 0.30338 0.08669 0.96449 0.0
H3441 H 0.30872 0.11019 0.97538 0.0
H3442 H 0.35273 0.12229 0.98022 0.0
H3443 H 0.34769 0.09894 0.96912 0.0
C3444 C 0.32644 0.02597 0.98561 0.0
C3445 C 0.34094 0.03287 0.98994 0.0
C3446 C 0.32072 0.03327 0.97692 0.0
C3447 C 0.32942 0.04755 0.97219 0.0
C3448 C 0.34381 0.05449 0.97675 0.0
C3449 C 0.34949 0.04727 0.98554 0.0
C3450 C 0.32376 0.05538 0.96235 0.0
C3451 C 0.32633 0.0687 0.96822 0.0
C3452 C 0.31638 0.05014 0.94703 0.0
C3453 C 0.31393 0.03651 0.93965 0.0
C3454 C 0.3254 0.03428 0.93619 0.0
C3455 C 0.32299 0.02138 0.92931 0.0
C3456 C 0.30917 0.01066 0.92571 0.0
C3457 C 0.29773 0.01285 0.92892 0.0
C3458 C 0.30007 0.02574 0.93582 0.0
C3459 C 0.32097 0.10317 0.9165 0.0
C3460 C 0.30703 0.09969 0.91211 0.0
C3461 C 0.32353 0.09407 0.92652 0.0
C3462 C 0.31223 0.08124 0.9323 0.0
C3463 C 0.29832 0.07745 0.92756 0.0
C3464 C 0.29573 0.08664 0.91762 0.0
C3465 C 0.31509 0.072 0.94353 0.0
C3466 C 0.31196 0.05844 0.93793 0.0
C3467 C 0.3221 0.07707 0.95903 0.0
C3468 C 0.32516 0.09109 0.96586 0.0
C3469 C 0.31421 0.0944 0.96776 0.0
C3470 C 0.31719 0.10769 0.97399 0.0
C3471 C 0.33106 0.11774 0.97846 0.0
C3472 C 0.34199 0.1145 0.97675 0.0
C3473 C 0.33908 0.10123 0.97051 0.0
H3474 H 0.33335 0.12802 0.98328 0.0
H3475 H 0.30732 0.00068 0.92038 0.0
H3476 H 0.96423 0.29971 0.00829 0.0
H3477 H 0.94799 0.27737 0.99412 0.0
H3478 H 0.97558 0.29032 0.95145 0.0
H3479 H 0.99177 0.31265 0.96544 0.0
H3480 H 0.94854 0.28177 0.94255 0.0
H3481 H 0.97284 0.26395 0.97692 0.0
H3482 H 0.98199 0.25963 0.00327 0.0
H3483 H 0.9396 0.23618 0.02218 0.0
H3484 H 0.93021 0.24053 0.99601 0.0
H3485 H 0.91331 0.21829 0.89614 0.0
H3486 H 0.93147 0.23805 0.9124 0.0
H3487 H 0.90426 0.22413 0.95541 0.0
H3488 H 0.88626 0.20394 0.93943 0.0
H3489 H 0.93121 0.23293 0.96444 0.0
H3490 H 0.9069 0.25125 0.93099 0.0
H3491 H 0.89737 0.25565 0.90498 0.0
H3492 H 0.93939 0.27845 0.8849 0.0
H3493 H 0.94915 0.27401 0.91071 0.0
C3494 C 0.96693 0.2977 0.99599 0.0
C3495 C 0.97925 0.30797 0.98796 0.0
C3496 C 0.95766 0.28492 0.98792 0.0
C3497 C 0.9606 0.28217 0.97174 0.0
C3498 C 0.97309 0.29224 0.96392 0.0
C3499 C 0.98235 0.30498 0.97196 0.0
C3500 C 0.95025 0.26925 0.96249 0.0
C3501 C 0.94492 0.27108 0.94722 0.0
C3502 C 0.94521 0.25533 0.96883 0.0
C3503 C 0.95083 0.25269 0.98456 0.0
C3504 C 0.96548 0.25797 0.98675 0.0
C3505 C 0.97071 0.2555 0.00164 0.0
C3506 C 0.96139 0.24767 0.01441 0.0
C3507 C 0.94681 0.24226 0.01229 0.0
C3508 C 0.94153 0.24472 0.99742 0.0
C3509 C 0.91126 0.21926 0.90913 0.0
C3510 C 0.89827 0.20957 0.91643 0.0
C3511 C 0.92161 0.23066 0.91838 0.0
C3512 C 0.91913 0.23271 0.93504 0.0
C3513 C 0.90637 0.2228 0.94254 0.0
C3514 C 0.89604 0.21135 0.93333 0.0
C3515 C 0.92961 0.24547 0.94445 0.0
C3516 C 0.93489 0.24362 0.95976 0.0
C3517 C 0.93457 0.25941 0.93822 0.0
C3518 C 0.92874 0.26217 0.92272 0.0
C3519 C 0.91409 0.25711 0.92098 0.0
C3520 C 0.90865 0.25962 0.90628 0.0
C3521 C 0.91777 0.26729 0.89327 0.0
C3522 C 0.93235 0.27249 0.89497 0.0
C3523 C 0.93784 0.26999 0.90964 0.0
H3524 H 0.91353 0.26923 0.8819 0.0
H3525 H 0.96546 0.24576 0.02593 0.0
H3526 H 0.68175 0.67053 0.97167 0.0
H3527 H 0.70366 0.68226 0.9553 0.0
H3528 H 0.72075 0.66014 0.98378 0.0
H3529 H 0.6988 0.64807 0.99977 0.0
H3530 H 0.74013 0.69187 0.97652 0.0
H3531 H 0.70791 0.64545 0.95126 0.0
H3532 H 0.68486 0.628 0.93902 0.0
H3533 H 0.68907 0.65832 0.90153 0.0
H3534 H 0.71206 0.67604 0.91374 0.0
H3535 H 0.79436 0.68875 0.93344 0.0
H3536 H 0.77358 0.68477 0.94909 0.0
H3537 H 0.75719 0.69581 0.90571 0.0
H3538 H 0.77763 0.699 0.88962 0.0
H3539 H 0.73693 0.67331 0.91911 0.0
H3540 H 0.77059 0.71837 0.94039 0.0
H3541 H 0.79326 0.73693 0.95226 0.0
H3542 H 0.78638 0.71174 0.99636 0.0
H3543 H 0.76376 0.69291 0.98466 0.0
C3544 C 0.69028 0.66835 0.97458 0.0
C3545 C 0.68858 0.65835 0.98692 0.0
C3546 C 0.70274 0.67503 0.96523 0.0
C3547 C 0.71376 0.67203 0.96838 0.0
C3548 C 0.71236 0.66261 0.98124 0.0
C3549 C 0.69981 0.65569 0.9903 0.0
C3550 C 0.72631 0.67774 0.95749 0.0
C3551 C 0.73952 0.68784 0.96398 0.0
C3552 C 0.72531 0.6728 0.94097 0.0
C3553 C 0.71159 0.66211 0.93354 0.0
C3554 C 0.70385 0.64844 0.94051 0.0
C3555 C 0.69081 0.63849 0.93356 0.0
C3556 C 0.68548 0.64207 0.91954 0.0
C3557 C 0.6932 0.65558 0.91241 0.0
C3558 C 0.70623 0.66557 0.91934 0.0
C3559 C 0.78631 0.69024 0.92715 0.0
C3560 C 0.78766 0.69411 0.91021 0.0
C3561 C 0.77451 0.68818 0.93621 0.0
C3562 C 0.7639 0.69022 0.92868 0.0
C3563 C 0.76528 0.69426 0.91183 0.0
C3564 C 0.77704 0.69619 0.90268 0.0
C3565 C 0.75103 0.68729 0.93822 0.0
C3566 C 0.73767 0.67765 0.93151 0.0
C3567 C 0.7519 0.69288 0.95445 0.0
C3568 C 0.7655 0.70417 0.96158 0.0
C3569 C 0.77395 0.71673 0.95257 0.0
C3570 C 0.78679 0.72731 0.95928 0.0
C3571 C 0.79126 0.7255 0.97504 0.0
C3572 C 0.7829 0.71312 0.98415 0.0
C3573 C 0.77005 0.70249 0.97749 0.0
H3574 H 0.80121 0.73371 0.98021 0.0
H3575 H 0.67538 0.63436 0.91418 0.0
H3576 H 0.96497 0.66959 0.00798 0.0
H3577 H 0.94921 0.67749 0.9958 0.0
H3578 H 0.97409 0.68991 0.95085 0.0
H3579 H 0.99003 0.68236 0.96305 0.0
H3580 H 0.96608 0.70892 0.95838 0.0
H3581 H 0.94338 0.65777 0.95383 0.0
H3582 H 0.9338 0.63327 0.96442 0.0
H3583 H 0.90474 0.63875 0.9955 0.0
H3584 H 0.91429 0.66336 0.98524 0.0
H3585 H 0.9162 0.7046 0.89732 0.0
H3586 H 0.93344 0.70191 0.91453 0.0
H3587 H 0.90619 0.69216 0.9572 0.0
H3588 H 0.88896 0.69503 0.94012 0.0
H3589 H 0.91509 0.67294 0.95318 0.0
H3590 H 0.93655 0.7237 0.955 0.0
H3591 H 0.94606 0.74787 0.94339 0.0
H3592 H 0.97741 0.74288 0.91638 0.0
H3593 H 0.96795 0.7186 0.92765 0.0
C3594 C 0.96717 0.67416 0.99558 0.0
C3595 C 0.97867 0.67525 0.98642 0.0
C3596 C 0.95813 0.67862 0.98861 0.0
C3597 C 0.96034 0.68408 0.97231 0.0
C3598 C 0.97216 0.68571 0.96343 0.0
C3599 C 0.98123 0.68134 0.97041 0.0
C3600 C 0.95002 0.68745 0.9641 0.0
C3601 C 0.95495 0.70103 0.95714 0.0
C3602 C 0.93543 0.67725 0.96277 0.0
C3603 C 0.92966 0.66245 0.96892 0.0
C3604 C 0.93502 0.65378 0.96302 0.0
C3605 C 0.92959 0.63987 0.96894 0.0
C3606 C 0.9187 0.63447 0.98067 0.0
C3607 C 0.91319 0.64296 0.98645 0.0
C3608 C 0.91861 0.65688 0.98058 0.0
C3609 C 0.91398 0.70215 0.91043 0.0
C3610 C 0.90118 0.70001 0.91733 0.0
C3611 C 0.92384 0.7006 0.92026 0.0
C3612 C 0.92114 0.69693 0.93718 0.0
C3613 C 0.90847 0.69497 0.94416 0.0
C3614 C 0.89861 0.69656 0.93436 0.0
C3615 C 0.93117 0.69437 0.94732 0.0
C3616 C 0.92619 0.68091 0.9546 0.0
C3617 C 0.94571 0.70465 0.94882 0.0
C3618 C 0.95146 0.71928 0.94207 0.0
C3619 C 0.9454 0.72771 0.94649 0.0
C3620 C 0.95079 0.74144 0.93998 0.0
C3621 C 0.96231 0.74689 0.92913 0.0
C3622 C 0.96848 0.73864 0.92478 0.0
C3623 C 0.96312 0.7249 0.93124 0.0
H3624 H 0.96647 0.75752 0.92411 0.0
H3625 H 0.9145 0.6237 0.98524 0.0
H3626 H 0.35529 0.30329 0.99922 0.0
H3627 H 0.34438 0.28114 0.98338 0.0
H3628 H 0.31903 0.29515 0.95598 0.0
H3629 H 0.32952 0.31721 0.97249 0.0
H3630 H 0.30407 0.26742 0.96084 0.0
H3631 H 0.34991 0.29845 0.93948 0.0
H3632 H 0.3757 0.31491 0.94038 0.0
H3633 H 0.38246 0.28161 0.95995 0.0
H3634 H 0.35667 0.265 0.95941 0.0
H3635 H 0.29729 0.21884 0.89289 0.0
H3636 H 0.30254 0.2402 0.90896 0.0
H3637 H 0.31938 0.22615 0.94907 0.0
H3638 H 0.31356 0.20448 0.9336 0.0
H3639 H 0.33799 0.25495 0.93492 0.0
H3640 H 0.29066 0.22435 0.95655 0.0
H3641 H 0.26483 0.20868 0.95365 0.0
H3642 H 0.26111 0.24251 0.93011 0.0
H3643 H 0.28698 0.25833 0.93265 0.0
C3644 C 0.34727 0.3016 0.98996 0.0
C3645 C 0.34337 0.31205 0.98695 0.0
C3646 C 0.34109 0.28895 0.98085 0.0
C3647 C 0.3312 0.28665 0.96812 0.0
C3648 C 0.32673 0.29674 0.96563 0.0
C3649 C 0.33272 0.30933 0.97505 0.0
C3650 C 0.32613 0.274 0.95706 0.0
C3651 C 0.31149 0.26482 0.95497 0.0
C3652 C 0.3358 0.27059 0.9493 0.0
C3653 C 0.35134 0.28051 0.94951 0.0
C3654 C 0.35689 0.29466 0.94407 0.0
C3655 C 0.37151 0.30402 0.94451 0.0
C3656 C 0.38071 0.29932 0.95025 0.0
C3657 C 0.37531 0.28524 0.95552 0.0
C3658 C 0.3607 0.27584 0.95513 0.0
C3659 C 0.3018 0.2201 0.90529 0.0
C3660 C 0.30514 0.20996 0.91184 0.0
C3661 C 0.30485 0.23236 0.9144 0.0
C3662 C 0.31139 0.23472 0.93013 0.0
C3663 C 0.31441 0.22451 0.93688 0.0
C3664 C 0.31118 0.21219 0.92793 0.0
C3665 C 0.31601 0.24825 0.93918 0.0
C3666 C 0.3306 0.25765 0.94073 0.0
C3667 C 0.30631 0.25196 0.94608 0.0
C3668 C 0.29077 0.24246 0.9446 0.0
C3669 C 0.28436 0.2284 0.95059 0.0
C3670 C 0.2697 0.2195 0.94905 0.0
C3671 C 0.26134 0.22458 0.94165 0.0
C3672 C 0.26761 0.23859 0.93581 0.0
C3673 C 0.28226 0.24752 0.93731 0.0
H3674 H 0.24999 0.21768 0.94047 0.0
H3675 H 0.39203 0.30658 0.95058 0.0
H3676 H 0.69631 0.03687 0.00775 0.0
H3677 H 0.7183 0.05348 0.99366 0.0
H3678 H 0.70434 0.02711 0.94953 0.0
H3679 H 0.68253 0.01032 0.96366 0.0
H3680 H 0.73166 0.03647 0.95496 0.0
H3681 H 0.70155 0.05753 0.95286 0.0
H3682 H 0.68647 0.06657 0.96447 0.0
H3683 H 0.72159 0.09732 0.99369 0.0
H3684 H 0.73683 0.08833 0.98242 0.0
H3685 H 0.77512 0.08732 0.8943 0.0
H3686 H 0.75535 0.06988 0.91096 0.0
H3687 H 0.77263 0.09662 0.95445 0.0
H3688 H 0.79257 0.11401 0.93796 0.0
H3689 H 0.74444 0.08729 0.95043 0.0
H3690 H 0.7749 0.06676 0.95088 0.0
H3691 H 0.78973 0.05777 0.93845 0.0
H3692 H 0.75365 0.02603 0.91137 0.0
H3693 H 0.73864 0.03496 0.92346 0.0
C3694 C 0.69797 0.03457 0.99508 0.0
C3695 C 0.68765 0.02233 0.98678 0.0
C3696 C 0.71051 0.0441 0.98702 0.0
C3697 C 0.71287 0.04166 0.97044 0.0
C3698 C 0.70275 0.02923 0.96231 0.0
C3699 C 0.69026 0.01966 0.97039 0.0
C3700 C 0.72571 0.05218 0.96138 0.0
C3701 C 0.73438 0.04755 0.95383 0.0
C3702 C 0.72942 0.06671 0.96017 0.0
C3703 C 0.72028 0.07215 0.96694 0.0
C3704 C 0.70602 0.06614 0.96186 0.0
C3705 C 0.69745 0.07127 0.96836 0.0
C3706 C 0.70306 0.08248 0.97985 0.0
C3707 C 0.71726 0.08862 0.98482 0.0
C3708 C 0.72587 0.08352 0.97837 0.0
C3709 C 0.77484 0.0894 0.90747 0.0
C3710 C 0.78544 0.10208 0.91478 0.0
C3711 C 0.76351 0.07944 0.91696 0.0
C3712 C 0.76258 0.08191 0.93397 0.0
C3713 C 0.77314 0.09452 0.94133 0.0
C3714 C 0.78449 0.10447 0.93186 0.0
C3715 C 0.75034 0.07155 0.94396 0.0
C3716 C 0.74177 0.07622 0.95166 0.0
C3717 C 0.74668 0.05705 0.9452 0.0
C3718 C 0.75567 0.05162 0.93797 0.0
C3719 C 0.77015 0.05794 0.94217 0.0
C3720 C 0.77859 0.05284 0.93521 0.0
C3721 C 0.77264 0.04136 0.9241 0.0
C3722 C 0.75824 0.03493 0.91996 0.0
C3723 C 0.74976 0.03999 0.92688 0.0
H3724 H 0.77919 0.03743 0.91872 0.0
H3725 H 0.69641 0.08644 0.98486 0.0
H3726 H 0.64311 0.94504 0.02915 0.0
H3727 H 0.65424 0.93464 0.04625 0.0
H3728 H 0.69171 0.97574 0.05155 0.0
H3729 H 0.68054 0.98651 0.03442 0.0
H3730 H 0.69502 0.94904 0.04519 0.0
H3731 H 0.67476 0.96884 0.08234 0.0
H3732 H 0.65614 0.974 0.09168 0.0
H3733 H 0.62698 0.92923 0.09644 0.0
H3734 H 0.64536 0.92378 0.08683 0.0
H3735 H 0.71233 0.91391 0.11112 0.0
H3736 H 0.7101 0.93215 0.09513 0.0
H3737 H 0.66513 0.90357 0.08964 0.0
H3738 H 0.66728 0.88541 0.10551 0.0
H3739 H 0.67031 0.92946 0.09877 0.0
H3740 H 0.68867 0.90958 0.0579 0.0
H3741 H 0.70622 0.9035 0.04688 0.0
H3742 H 0.73826 0.94762 0.04832 0.0
H3743 H 0.72092 0.95394 0.05956 0.0
C3744 C 0.65377 0.95195 0.03375 0.0
C3745 C 0.66084 0.96669 0.03057 0.0
C3746 C 0.66012 0.94594 0.04351 0.0
C3747 C 0.6737 0.95446 0.05024 0.0
C3748 C 0.68119 0.96903 0.04642 0.0
C3749 C 0.67477 0.97514 0.03669 0.0
C3750 C 0.6793 0.94801 0.06224 0.0
C3751 C 0.68994 0.94507 0.05713 0.0
C3752 C 0.67246 0.94269 0.07765 0.0
C3753 C 0.66143 0.94591 0.08377 0.0
C3754 C 0.66435 0.96009 0.08527 0.0
C3755 C 0.65384 0.96307 0.09062 0.0
C3756 C 0.64038 0.95195 0.09463 0.0
C3757 C 0.63741 0.93783 0.09333 0.0
C3758 C 0.64789 0.93479 0.08795 0.0
C3759 C 0.702 0.91152 0.10638 0.0
C3760 C 0.68996 0.89826 0.10964 0.0
C3761 C 0.70074 0.92194 0.09729 0.0
C3762 C 0.68744 0.91921 0.09119 0.0
C3763 C 0.67547 0.90595 0.09436 0.0
C3764 C 0.67671 0.89559 0.10346 0.0
C3765 C 0.68574 0.93003 0.08153 0.0
C3766 C 0.67576 0.93377 0.08709 0.0
C3767 C 0.69317 0.93601 0.06654 0.0
C3768 C 0.70356 0.93221 0.05977 0.0
C3769 C 0.69949 0.91797 0.056 0.0
C3770 C 0.70938 0.91448 0.04969 0.0
C3771 C 0.72335 0.92516 0.04696 0.0
C3772 C 0.72744 0.93936 0.05048 0.0
C3773 C 0.71758 0.9429 0.05682 0.0
H3774 H 0.731 0.92244 0.04206 0.0
H3775 H 0.63225 0.95428 0.09876 0.0
H3776 H 0.05587 0.69415 0.02528 0.0
H3777 H 0.06908 0.71538 0.04237 0.0
H3778 H 0.03218 0.72056 0.04553 0.0
H3779 H 0.01872 0.69921 0.02835 0.0
H3780 H 0.05798 0.74646 0.04019 0.0
H3781 H 0.03893 0.70652 0.07727 0.0
H3782 H 0.03378 0.68277 0.08706 0.0
H3783 H 0.07838 0.69731 0.09133 0.0
H3784 H 0.08379 0.72109 0.0813 0.0
H3785 H 0.08781 0.79601 0.10815 0.0
H3786 H 0.07187 0.77599 0.09027 0.0
H3787 H 0.10328 0.76253 0.08755 0.0
H3788 H 0.11917 0.78242 0.10541 0.0
H3789 H 0.07795 0.7405 0.09361 0.0
H3790 H 0.09715 0.7798 0.05497 0.0
H3791 H 0.10263 0.80347 0.04447 0.0
H3792 H 0.05823 0.79025 0.04277 0.0
H3793 H 0.05249 0.76655 0.05348 0.0
C3794 C 0.05052 0.69981 0.02945 0.0
C3795 C 0.03615 0.69485 0.02554 0.0
C3796 C 0.05812 0.71195 0.03927 0.0
C3797 C 0.05154 0.7194 0.04537 0.0
C3798 C 0.0374 0.71489 0.04096 0.0
C3799 C 0.02973 0.70266 0.03119 0.0
C3800 C 0.05938 0.73154 0.05692 0.0
C3801 C 0.06216 0.74516 0.05201 0.0
C3802 C 0.06498 0.72982 0.07219 0.0
C3803 C 0.06176 0.71556 0.0784 0.0
C3804 C 0.04764 0.70462 0.08018 0.0
C3805 C 0.04467 0.69116 0.08579 0.0
C3806 C 0.05574 0.68852 0.08978 0.0
C3807 C 0.06981 0.69936 0.08821 0.0
C3808 C 0.07283 0.71284 0.08258 0.0
C3809 C 0.09133 0.78883 0.10362 0.0
C3810 C 0.10471 0.79075 0.10823 0.0
C3811 C 0.08223 0.7774 0.09341 0.0
C3812 C 0.08642 0.76781 0.08748 0.0
C3813 C 0.09979 0.76975 0.09204 0.0
C3814 C 0.10885 0.7811 0.10229 0.0
C3815 C 0.07687 0.75555 0.07677 0.0
C3816 C 0.0737 0.74184 0.08187 0.0
C3817 C 0.07098 0.75723 0.06166 0.0
C3818 C 0.07441 0.77146 0.05521 0.0
C3819 C 0.08856 0.78198 0.05249 0.0
C3820 C 0.09171 0.79539 0.04647 0.0
C3821 C 0.08079 0.79838 0.043 0.0
C3822 C 0.06668 0.78794 0.04549 0.0
C3823 C 0.06347 0.77451 0.05153 0.0
H3824 H 0.08325 0.80876 0.03834 0.0
H3825 H 0.05343 0.67809 0.09412 0.0
H3826 H 0.31274 0.3555 0.01654 0.0
H3827 H 0.29105 0.35024 0.03154 0.0
H3828 H 0.29529 0.31941 0.06177 0.0
H3829 H 0.31714 0.32483 0.04711 0.0
H3830 H 0.26644 0.3107 0.0483 0.0
H3831 H 0.30563 0.34847 0.07905 0.0
H3832 H 0.32712 0.37199 0.08168 0.0
H3833 H 0.30385 0.39228 0.06433 0.0
H3834 H 0.28226 0.36883 0.06136 0.0
H3835 H 0.21912 0.30049 0.11419 0.0
H3836 H 0.23926 0.30438 0.09693 0.0
H3837 H 0.24299 0.34391 0.07915 0.0
H3838 H 0.2233 0.34032 0.09704 0.0
H3839 H 0.26773 0.34822 0.08513 0.0
H3840 H 0.2285 0.31179 0.05494 0.0
H3841 H 0.2067 0.28877 0.05063 0.0
H3842 H 0.22897 0.26653 0.06437 0.0
H3843 H 0.25087 0.28943 0.06898 0.0
C3844 C 0.30897 0.3475 0.02627 0.0
C3845 C 0.31665 0.34061 0.03072 0.0
C3846 C 0.29661 0.34454 0.03483 0.0
C3847 C 0.29163 0.33448 0.04776 0.0
C3848 C 0.29898 0.3272 0.0518 0.0
C3849 C 0.31147 0.33034 0.04347 0.0
C3850 C 0.27914 0.33203 0.05764 0.0
C3851 C 0.2667 0.31882 0.05649 0.0
C3852 C 0.27944 0.3428 0.06792 0.0
C3853 C 0.29239 0.35689 0.0698 0.0
C3854 C 0.30513 0.35793 0.07564 0.0
C3855 C 0.31732 0.37125 0.07723 0.0
C3856 C 0.31686 0.38362 0.07313 0.0
C3857 C 0.3042 0.38269 0.06748 0.0
C3858 C 0.29198 0.36939 0.06585 0.0
C3859 C 0.22424 0.30996 0.10652 0.0
C3860 C 0.21969 0.3201 0.1069 0.0
C3861 C 0.23569 0.31216 0.09658 0.0
C3862 C 0.24255 0.32434 0.08645 0.0
C3863 C 0.23793 0.33444 0.08682 0.0
C3864 C 0.22667 0.33238 0.09702 0.0
C3865 C 0.2548 0.3268 0.07588 0.0
C3866 C 0.2673 0.34005 0.0769 0.0
C3867 C 0.25444 0.31612 0.06525 0.0
C3868 C 0.2413 0.30233 0.06245 0.0
C3869 C 0.22872 0.30199 0.05716 0.0
C3870 C 0.21635 0.28896 0.05464 0.0
C3871 C 0.21644 0.27619 0.05727 0.0
C3872 C 0.22892 0.27643 0.06237 0.0
C3873 C 0.24132 0.28943 0.06491 0.0
H3874 H 0.20685 0.26612 0.05531 0.0
H3875 H 0.32631 0.39392 0.07437 0.0
H3876 H 0.71594 0.68223 0.35924 0.0
H3877 H 0.72443 0.6682 0.37436 0.0
H3878 H 0.68359 0.64387 0.39752 0.0
H3879 H 0.67479 0.65771 0.38198 0.0
H3880 H 0.71022 0.65769 0.41956 0.0
H3881 H 0.68891 0.62571 0.37368 0.0
H3882 H 0.68346 0.61924 0.344 0.0
H3883 H 0.72768 0.63548 0.33416 0.0
H3884 H 0.73344 0.64227 0.36374 0.0
H3885 H 0.74485 0.62397 0.4589 0.0
H3886 H 0.7259 0.62599 0.44464 0.0
H3887 H 0.75277 0.64406 0.40176 0.0
H3888 H 0.7713 0.64115 0.41539 0.0
H3889 H 0.72713 0.62793 0.39149 0.0
H3890 H 0.7491 0.66468 0.43403 0.0
H3891 H 0.75625 0.6735 0.46283 0.0
H3892 H 0.71273 0.65073 0.47811 0.0
H3893 H 0.70535 0.64164 0.44942 0.0
C3894 C 0.7087 0.67382 0.36743 0.0
C3895 C 0.6947 0.67107 0.36945 0.0
C3896 C 0.71356 0.6658 0.37601 0.0
C3897 C 0.70461 0.65501 0.38697 0.0
C3898 C 0.6906 0.65214 0.38903 0.0
C3899 C 0.6856 0.66 0.38013 0.0
C3900 C 0.71039 0.64736 0.3967 0.0
C3901 C 0.71358 0.65083 0.41361 0.0
C3902 C 0.71502 0.63873 0.38873 0.0
C3903 C 0.71161 0.63457 0.37093 0.0
C3904 C 0.69749 0.628 0.36517 0.0
C3905 C 0.69434 0.62426 0.34836 0.0
C3906 C 0.70522 0.62696 0.3372 0.0
C3907 C 0.71927 0.63339 0.34282 0.0
C3908 C 0.72247 0.63717 0.35962 0.0
C3909 C 0.74661 0.62805 0.44628 0.0
C3910 C 0.75971 0.63259 0.43839 0.0
C3911 C 0.7358 0.62935 0.43821 0.0
C3912 C 0.738 0.63546 0.42226 0.0
C3913 C 0.75082 0.63938 0.4141 0.0
C3914 C 0.76151 0.63789 0.42202 0.0
C3915 C 0.72746 0.63865 0.41429 0.0
C3916 C 0.72341 0.6344 0.39767 0.0
C3917 C 0.72228 0.6468 0.42245 0.0
C3918 C 0.7267 0.65234 0.43965 0.0
C3919 C 0.74107 0.66148 0.44357 0.0
C3920 C 0.74516 0.66654 0.45986 0.0
C3921 C 0.73495 0.66263 0.47231 0.0
C3922 C 0.72063 0.65371 0.46847 0.0
C3923 C 0.71648 0.64861 0.4522 0.0
H3924 H 0.73814 0.66655 0.48491 0.0
H3925 H 0.70276 0.62405 0.32419 0.0
H3926 H 0.33047 0.03203 0.34696 0.0
H3927 H 0.33783 0.05503 0.36048 0.0
H3928 H 0.34749 0.03967 0.4057 0.0
H3929 H 0.34029 0.01677 0.39231 0.0
H3930 H 0.32937 0.051 0.41017 0.0
H3931 H 0.37379 0.06355 0.38352 0.0
H3932 H 0.38907 0.06624 0.35959 0.0
H3933 H 0.37736 0.09484 0.33615 0.0
H3934 H 0.36185 0.09216 0.35986 0.0
H3935 H 0.358 0.1121 0.45966 0.0
H3936 H 0.35575 0.09178 0.44369 0.0
H3937 H 0.35395 0.11206 0.39793 0.0
H3938 H 0.35688 0.13273 0.41394 0.0
H3939 H 0.36793 0.09845 0.39264 0.0
H3940 H 0.32346 0.08613 0.41762 0.0
H3941 H 0.30718 0.08343 0.44042 0.0
H3942 H 0.31722 0.05416 0.4653 0.0
H3943 H 0.33372 0.05685 0.44275 0.0
C3944 C 0.33434 0.03363 0.35971 0.0
C3945 C 0.33475 0.02258 0.36859 0.0
C3946 C 0.33857 0.04678 0.36739 0.0
C3947 C 0.34321 0.04903 0.38407 0.0
C3948 C 0.34394 0.03813 0.39281 0.0
C3949 C 0.33985 0.02506 0.38512 0.0
C3950 C 0.34638 0.06235 0.39285 0.0
C3951 C 0.33793 0.06136 0.4065 0.0
C3952 C 0.35719 0.07588 0.38762 0.0
C3953 C 0.36654 0.07753 0.37339 0.0
C3954 C 0.37437 0.07031 0.3732 0.0
C3955 C 0.3831 0.07186 0.35969 0.0
C3956 C 0.38416 0.08068 0.34634 0.0
C3957 C 0.37652 0.088 0.34649 0.0
C3958 C 0.36777 0.08648 0.35997 0.0
C3959 C 0.35729 0.11225 0.44617 0.0
C3960 C 0.35748 0.12385 0.43798 0.0
C3961 C 0.35594 0.10064 0.43706 0.0
C3962 C 0.35429 0.10021 0.41962 0.0
C3963 C 0.35512 0.1121 0.41137 0.0
C3964 C 0.35677 0.12388 0.42049 0.0
C3965 C 0.35105 0.08709 0.41018 0.0
C3966 C 0.35939 0.0881 0.39635 0.0
C3967 C 0.33995 0.07354 0.41505 0.0
C3968 C 0.32992 0.07179 0.42856 0.0
C3969 C 0.32226 0.07919 0.428 0.0
C3970 C 0.31299 0.07765 0.44088 0.0
C3971 C 0.31119 0.06866 0.45432 0.0
C3972 C 0.31863 0.06114 0.45489 0.0
C3973 C 0.32794 0.06266 0.44206 0.0
H3974 H 0.30401 0.06749 0.46428 0.0
H3975 H 0.39092 0.08186 0.33589 0.0
H3976 H 0.9777 0.32612 0.3737 0.0
H3977 H 0.95544 0.31009 0.3876 0.0
H3978 H 0.95357 0.27435 0.36125 0.0
H3979 H 0.97549 0.29045 0.34673 0.0
H3980 H 0.92822 0.27032 0.36346 0.0
H3981 H 0.96608 0.28336 0.40294 0.0
H3982 H 0.98719 0.29969 0.41945 0.0
H3983 H 0.9636 0.31717 0.44282 0.0
H3984 H 0.94239 0.30106 0.42627 0.0
H3985 H 0.88599 0.2158 0.4223 0.0
H3986 H 0.90565 0.23319 0.40527 0.0
H3987 H 0.89828 0.26662 0.42322 0.0
H3988 H 0.87845 0.24921 0.44011 0.0
H3989 H 0.92745 0.27225 0.42526 0.0
H3990 H 0.88882 0.25688 0.38597 0.0
H3991 H 0.86814 0.2391 0.36996 0.0
H3992 H 0.89405 0.22416 0.34693 0.0
H3993 H 0.91485 0.24172 0.363 0.0
C3994 C 0.97246 0.31486 0.37074 0.0
C3995 C 0.97838 0.30952 0.35922 0.0
C3996 C 0.95977 0.30568 0.37878 0.0
C3997 C 0.95296 0.29093 0.37582 0.0
C3998 C 0.95862 0.28566 0.36383 0.0
C3999 C 0.97117 0.29488 0.35554 0.0
C4000 C 0.94024 0.28094 0.38556 0.0
C4001 C 0.92814 0.27068 0.37698 0.0
C4002 C 0.93997 0.28145 0.40323 0.0
C4003 C 0.95269 0.29111 0.41324 0.0
C4004 C 0.96542 0.29076 0.41151 0.0
C4005 C 0.9774 0.29996 0.42089 0.0
C4006 C 0.97675 0.30949 0.43214 0.0
C4007 C 0.9641 0.3098 0.43407 0.0
C4008 C 0.95209 0.30063 0.42471 0.0
C4009 C 0.88855 0.22686 0.42256 0.0
C4010 C 0.88072 0.23119 0.4325 0.0
C4011 C 0.89972 0.23675 0.41279 0.0
C4012 C 0.90336 0.25116 0.41296 0.0
C4013 C 0.89559 0.25553 0.42291 0.0
C4014 C 0.88425 0.2456 0.43246 0.0
C4015 C 0.91558 0.26172 0.40314 0.0
C4016 C 0.92757 0.27201 0.41173 0.0
C4017 C 0.91584 0.26106 0.38554 0.0
C4018 C 0.90336 0.25053 0.37581 0.0
C4019 C 0.89008 0.24972 0.37761 0.0
C4020 C 0.87834 0.2397 0.36849 0.0
C4021 C 0.87977 0.23048 0.35746 0.0
C4022 C 0.89295 0.2313 0.35549 0.0
C4023 C 0.90472 0.24129 0.36459 0.0
H4024 H 0.87067 0.22273 0.35042 0.0
H4025 H 0.98603 0.31661 0.43939 0.0
H4026 H 0.02995 0.38287 0.30658 0.0
H4027 H 0.01955 0.39496 0.29139 0.0
H4028 H 0.97786 0.35875 0.29782 0.0
H4029 H 0.98826 0.3463 0.3133 0.0
H4030 H 0.98443 0.37273 0.26422 0.0
H4031 H 0.98463 0.38381 0.32213 0.0
H4032 H 0.99544 0.39047 0.35017 0.0
H4033 H 0.02815 0.43037 0.33116 0.0
H4034 H 0.01768 0.42385 0.30293 0.0
H4035 H 0.9602 0.42083 0.23603 0.0
H4036 H 0.96215 0.4027 0.25263 0.0
H4037 H 0.00657 0.43208 0.26118 0.0
H4038 H 0.00465 0.45021 0.24488 0.0
H4039 H 0.99334 0.41838 0.2896 0.0
H4040 H 0.99645 0.40643 0.23231 0.0
H4041 H 0.98806 0.40007 0.20327 0.0
H4042 H 0.95099 0.36248 0.22024 0.0
H4043 H 0.95909 0.36874 0.24944 0.0
C4044 C 0.01856 0.37733 0.30477 0.0
C4045 C 0.00992 0.36364 0.3114 0.0
C4046 C 0.01265 0.3843 0.29602 0.0
C4047 C 0.99795 0.37783 0.29371 0.0
C4048 C 0.98924 0.36391 0.29956 0.0
C4049 C 0.9952 0.35685 0.30841 0.0
C4050 C 0.99198 0.38621 0.28594 0.0
C4051 C 0.98597 0.38251 0.26992 0.0
C4052 C 0.99432 0.39911 0.2933 0.0
C4053 C 0.00038 0.40331 0.31039 0.0
C4054 C 0.99415 0.39399 0.32391 0.0
C4055 C 1.00023 0.39773 0.33984 0.0
C4056 C 0.01248 0.41083 0.34244 0.0
C4057 C 0.01865 0.42023 0.32913 0.0
C4058 C 0.01263 0.41652 0.31316 0.0
C4059 C 0.97034 0.42343 0.24159 0.0
C4060 C 0.98229 0.43691 0.2391 0.0
C4061 C 0.97146 0.41305 0.25096 0.0
C4062 C 0.98453 0.41602 0.25805 0.0
C4063 C 0.99638 0.42956 0.25582 0.0
C4064 C 0.9953 0.43987 0.24639 0.0
C4065 C 0.98608 0.4051 0.26767 0.0
C4066 C 0.99134 0.40838 0.28407 0.0
C4067 C 0.98316 0.39191 0.26058 0.0
C4068 C 0.97827 0.38815 0.24306 0.0
C4069 C 0.98644 0.39688 0.22986 0.0
C4070 C 0.98175 0.39328 0.21337 0.0
C4071 C 0.96897 0.3809 0.20991 0.0
C4072 C 0.96087 0.37208 0.22294 0.0
C4073 C 0.9655 0.37565 0.23946 0.0
H4074 H 0.96535 0.37812 0.19713 0.0
H4075 H 0.01719 0.41369 0.35478 0.0
H4076 H 0.65873 0.64752 0.30723 0.0
H4077 H 0.6423 0.62543 0.29288 0.0
H4078 H 0.60749 0.62365 0.32066 0.0
H4079 H 0.62399 0.64539 0.33557 0.0
H4080 H 0.60367 0.59825 0.31817 0.0
H4081 H 0.6153 0.63611 0.27907 0.0
H4082 H 0.631 0.65717 0.26227 0.0
H4083 H 0.64738 0.63319 0.23736 0.0
H4084 H 0.6319 0.61202 0.25418 0.0
H4085 H 0.54697 0.55731 0.26094 0.0
H4086 H 0.56539 0.57667 0.2777 0.0
H4087 H 0.59677 0.56722 0.258 0.0
H4088 H 0.57829 0.54763 0.24143 0.0
H4089 H 0.60318 0.59718 0.25627 0.0
H4090 H 0.58903 0.55847 0.29501 0.0
H4091 H 0.57183 0.53783 0.31133 0.0
H4092 H 0.55839 0.56425 0.33637 0.0
H4093 H 0.57536 0.58502 0.32 0.0
C4094 C 0.64758 0.64237 0.31033 0.0
C4095 C 0.64262 0.64821 0.32243 0.0
C4096 C 0.63818 0.62978 0.30206 0.0
C4097 C 0.62358 0.623 0.30542 0.0
C4098 C 0.61868 0.62867 0.31781 0.0
C4099 C 0.62812 0.64112 0.3263 0.0
C4100 C 0.61337 0.61019 0.29584 0.0
C4101 C 0.60351 0.59809 0.30464 0.0
C4102 C 0.61325 0.60983 0.27815 0.0
C4103 C 0.62256 0.62254 0.26801 0.0
C4104 C 0.62233 0.63536 0.2701 0.0
C4105 C 0.63117 0.64731 0.26056 0.0
C4106 C 0.64021 0.64653 0.24879 0.0
C4107 C 0.64039 0.63378 0.2465 0.0
C4108 C 0.63158 0.62181 0.25602 0.0
C4109 C 0.55779 0.55934 0.26029 0.0
C4110 C 0.56126 0.55103 0.24994 0.0
C4111 C 0.56826 0.57033 0.26988 0.0
C4112 C 0.58239 0.5733 0.26909 0.0
C4113 C 0.58589 0.56503 0.25878 0.0
C4114 C 0.57537 0.55384 0.24941 0.0
C4115 C 0.59352 0.58542 0.27863 0.0
C4116 C 0.60349 0.59736 0.26981 0.0
C4117 C 0.59356 0.58573 0.29625 0.0
C4118 C 0.58338 0.57327 0.30616 0.0
C4119 C 0.58231 0.55985 0.30388 0.0
C4120 C 0.57263 0.54813 0.31316 0.0
C4121 C 0.564 0.54972 0.32485 0.0
C4122 C 0.56507 0.56303 0.3273 0.0
C4123 C 0.57473 0.57479 0.31803 0.0
H4124 H 0.5565 0.54063 0.33203 0.0
H4125 H 0.64705 0.65579 0.24141 0.0
H4126 H 0.35259 0.00233 0.31326 0.0
H4127 H 0.37396 0.00991 0.29649 0.0
H4128 H 0.38252 0.97984 0.32239 0.0
H4129 H 0.36108 0.972 0.33897 0.0
H4130 H 0.40707 0.00848 0.31702 0.0
H4131 H 0.36728 0.9696 0.28781 0.0
H4132 H 0.34344 0.95812 0.27497 0.0
H4133 H 0.35656 0.99339 0.24134 0.0
H4134 H 0.38043 0.00519 0.25419 0.0
H4135 H 0.4535 0.99758 0.26691 0.0
H4136 H 0.43425 0.99565 0.28407 0.0
H4137 H 0.42275 0.0163 0.24568 0.0
H4138 H 0.44139 0.01731 0.22784 0.0
H4139 H 0.40001 0.99538 0.25701 0.0
H4140 H 0.44011 0.03354 0.28323 0.0
H4141 H 0.46396 0.04636 0.29597 0.0
H4142 H 0.45085 0.01504 0.33486 0.0
H4143 H 0.42697 0.00191 0.32222 0.0
C4144 C 0.35913 0.99747 0.31554 0.0
C4145 C 0.35512 0.98651 0.32736 0.0
C4146 C 0.37129 0.00179 0.30593 0.0
C4147 C 0.37973 0.99538 0.3082 0.0
C4148 C 0.37612 0.98491 0.3205 0.0
C4149 C 0.36384 0.98041 0.32989 0.0
C4150 C 0.39186 0.9989 0.2971 0.0
C4151 C 0.40558 0.00557 0.30392 0.0
C4152 C 0.38988 0.99551 0.27992 0.0
C4153 C 0.37558 0.98835 0.27209 0.0
C4154 C 0.36504 0.97496 0.27778 0.0
C4155 C 0.35153 0.96839 0.27049 0.0
C4156 C 0.34847 0.97504 0.25738 0.0
C4157 C 0.35893 0.98826 0.25152 0.0
C4158 C 0.37246 0.99489 0.2588 0.0
C4159 C 0.4468 0.00157 0.26196 0.0
C4160 C 0.44902 0.00754 0.24589 0.0
C4161 C 0.43591 0.00068 0.27196 0.0
C4162 C 0.42718 0.00608 0.26635 0.0
C4163 C 0.42939 0.01214 0.25036 0.0
C4164 C 0.44017 0.01284 0.24022 0.0
C4165 C 0.41539 0.00482 0.27693 0.0
C4166 C 0.40166 0.99853 0.27004 0.0
C4167 C 0.41742 0.0088 0.294 0.0
C4168 C 0.43177 0.01668 0.3017 0.0
C4169 C 0.44233 0.02933 0.29443 0.0
C4170 C 0.45586 0.03666 0.30164 0.0
C4171 C 0.45892 0.03151 0.31619 0.0
C4172 C 0.44846 0.01902 0.32358 0.0
C4173 C 0.43492 0.01164 0.31641 0.0
H4174 H 0.4694 0.0372 0.32176 0.0
H4175 H 0.338 0.96994 0.25175 0.0
H4176 H 0.62853 0.98757 0.34128 0.0
H4177 H 0.61073 0.99191 0.32766 0.0
H4178 H 0.63763 0.00879 0.28462 0.0
H4179 H 0.65557 0.00474 0.29827 0.0
H4180 H 0.62497 0.02407 0.29117 0.0
H4181 H 0.61046 0.97434 0.28545 0.0
H4182 H 0.60429 0.95033 0.29541 0.0
H4183 H 0.57021 0.94858 0.32421 0.0
H4184 H 0.57631 0.97267 0.31458 0.0
H4185 H 0.57455 0.01374 0.22798 0.0
H4186 H 0.59258 0.01267 0.24543 0.0
H4187 H 0.56386 0.99852 0.28704 0.0
H4188 H 0.54583 0.99982 0.26976 0.0
H4189 H 0.57691 0.98248 0.28291 0.0
H4190 H 0.59072 0.03198 0.28638 0.0
H4191 H 0.59694 0.05569 0.27535 0.0
H4192 H 0.63244 0.0576 0.24961 0.0
H4193 H 0.62631 0.0338 0.2603 0.0
C4194 C 0.63073 0.99237 0.329 0.0
C4195 C 0.64341 0.99571 0.3208 0.0
C4196 C 0.62052 0.99479 0.3212 0.0
C4197 C 0.62274 0.00045 0.305 0.0
C4198 C 0.63567 0.00437 0.2971 0.0
C4199 C 0.6459 0.00202 0.30492 0.0
C4200 C 0.6114 0.00169 0.29593 0.0
C4201 C 0.6145 0.01495 0.28925 0.0
C4202 C 0.59765 0.98986 0.29367 0.0
C4203 C 0.59394 0.97536 0.29945 0.0
C4204 C 0.60172 0.96888 0.29401 0.0
C4205 C 0.59822 0.95525 0.29958 0.0
C4206 C 0.58689 0.94795 0.31047 0.0
C4207 C 0.57901 0.95425 0.31579 0.0
C4208 C 0.58247 0.96789 0.31028 0.0
C4209 C 0.57211 0.01058 0.2409 0.0
C4210 C 0.55874 0.00692 0.24747 0.0
C4211 C 0.58242 0.00994 0.25085 0.0
C4212 C 0.5796 0.00565 0.26758 0.0
C4213 C 0.56625 0.00186 0.27416 0.0
C4214 C 0.55593 0.00254 0.26423 0.0
C4215 C 0.59051 0.00482 0.27807 0.0
C4216 C 0.58734 0.99163 0.28497 0.0
C4217 C 0.60421 0.01669 0.28041 0.0
C4218 C 0.60798 0.03105 0.27404 0.0
C4219 C 0.59979 0.03741 0.27827 0.0
C4220 C 0.60331 0.05087 0.27209 0.0
C4221 C 0.61506 0.05814 0.26175 0.0
C4222 C 0.62333 0.05196 0.25761 0.0
C4223 C 0.61985 0.03849 0.26374 0.0
H4224 H 0.61777 0.06856 0.25698 0.0
H4225 H 0.58419 0.9374 0.31477 0.0
H4226 H 0.02576 0.6387 0.33767 0.0
H4227 H 0.01831 0.61722 0.32108 0.0
H4228 H 0.9933 0.62892 0.28938 0.0
H4229 H 1.00012 0.65008 0.30661 0.0
H4230 H 0.97971 0.60194 0.29263 0.0
H4231 H 0.0275 0.63471 0.27839 0.0
H4232 H 0.0529 0.6515 0.28315 0.0
H4233 H 0.05823 0.61799 0.30487 0.0
H4234 H 0.0328 0.60103 0.30046 0.0
H4235 H 0.98401 0.56153 0.2219 0.0
H4236 H 0.98814 0.58158 0.24004 0.0
H4237 H 0.99457 0.56033 0.28208 0.0
H4238 H 0.99004 0.54008 0.2641 0.0
H4239 H 0.01722 0.592 0.27264 0.0
H4240 H 0.96763 0.55947 0.28573 0.0
H4241 H 0.94255 0.54386 0.27795 0.0
H4242 H 0.9415 0.57904 0.25414 0.0
H4243 H 0.96666 0.59481 0.26156 0.0
C4244 C 0.01857 0.63663 0.32725 0.0
C4245 C 0.01361 0.64613 0.32335 0.0
C4246 C 0.01439 0.62439 0.31768 0.0
C4247 C 0.00555 0.6216 0.30365 0.0
C4248 C 1.00019 0.63084 0.30007 0.0
C4249 C 0.0041 0.64294 0.30991 0.0
C4250 C 0.00218 0.60925 0.29256 0.0
C4251 C 0.98797 0.5999 0.28815 0.0
C4252 C 0.01289 0.60648 0.28662 0.0
C4253 C 0.02821 0.61663 0.28924 0.0
C4254 C 0.03407 0.63094 0.28429 0.0
C4255 C 0.04847 0.64048 0.28691 0.0
C4256 C 0.05717 0.63582 0.29434 0.0
C4257 C 0.05148 0.62159 0.29913 0.0
C4258 C 0.03707 0.612 0.29656 0.0
C4259 C 0.98619 0.56113 0.23504 0.0
C4260 C 0.98668 0.5493 0.24166 0.0
C4261 C 0.98851 0.57253 0.24536 0.0
C4262 C 0.99161 0.57236 0.26235 0.0
C4263 C 0.99213 0.56058 0.26898 0.0
C4264 C 0.9895 0.54904 0.25876 0.0
C4265 C 0.99485 0.58474 0.27307 0.0
C4266 C 0.00904 0.59411 0.27725 0.0
C4267 C 0.98419 0.58772 0.2784 0.0
C4268 C 0.96907 0.57827 0.27402 0.0
C4269 C 0.96209 0.56384 0.27868 0.0
C4270 C 0.94786 0.55497 0.27437 0.0
C4271 C 0.94045 0.56044 0.26551 0.0
C4272 C 0.94726 0.57481 0.26098 0.0
C4273 C 0.9615 0.58372 0.26524 0.0
H4274 H 0.92942 0.55356 0.26218 0.0
H4275 H 0.06832 0.64323 0.29636 0.0
H4276 H 0.34918 0.34978 0.2981 0.0
H4277 H 0.37058 0.36591 0.28281 0.0
H4278 H 0.3871 0.39263 0.3265 0.0
H4279 H 0.36541 0.37686 0.34157 0.0
H4280 H 0.39151 0.40862 0.30135 0.0
H4281 H 0.39989 0.36985 0.31204 0.0
H4282 H 0.39463 0.34486 0.3125 0.0
H4283 H 0.39144 0.34306 0.25904 0.0
H4284 H 0.39648 0.36799 0.25826 0.0
H4285 H 0.46152 0.44967 0.26964 0.0
H4286 H 0.44188 0.4319 0.28636 0.0
H4287 H 0.41922 0.41089 0.24136 0.0
H4288 H 0.43878 0.4287 0.22456 0.0
H4289 H 0.41896 0.3921 0.26781 0.0
H4290 H 0.40996 0.43137 0.25845 0.0
H4291 H 0.41631 0.45669 0.2591 0.0
H4292 H 0.42213 0.4576 0.31223 0.0
H4293 H 0.41601 0.43233 0.31185 0.0
C4294 C 0.35742 0.35906 0.30446 0.0
C4295 C 0.35564 0.36208 0.32102 0.0
C4296 C 0.36971 0.36823 0.29575 0.0
C4297 C 0.38061 0.38041 0.30356 0.0
C4298 C 0.37887 0.38332 0.32018 0.0
C4299 C 0.36648 0.37429 0.3288 0.0
C4300 C 0.39353 0.39043 0.2942 0.0
C4301 C 0.39761 0.40498 0.29427 0.0
C4302 C 0.40144 0.38574 0.2847 0.0
C4303 C 0.39844 0.37075 0.2851 0.0
C4304 C 0.39796 0.36409 0.30038 0.0
C4305 C 0.39504 0.34994 0.3007 0.0
C4306 C 0.39267 0.34236 0.28581 0.0
C4307 C 0.39326 0.34894 0.27056 0.0
C4308 C 0.39617 0.36308 0.27018 0.0
C4309 C 0.45242 0.44116 0.26334 0.0
C4310 C 0.45161 0.44056 0.24583 0.0
C4311 C 0.44122 0.43106 0.27288 0.0
C4312 C 0.42911 0.42015 0.26506 0.0
C4313 C 0.42849 0.41924 0.24759 0.0
C4314 C 0.4396 0.42944 0.23804 0.0
C4315 C 0.41679 0.41011 0.27507 0.0
C4316 C 0.41284 0.39563 0.27505 0.0
C4317 C 0.40912 0.41486 0.28484 0.0
C4318 C 0.41268 0.43001 0.28509 0.0
C4319 C 0.41271 0.43701 0.27025 0.0
C4320 C 0.41624 0.45134 0.27058 0.0
C4321 C 0.41966 0.45876 0.2857 0.0
C4322 C 0.4195 0.45185 0.30053 0.0
C4323 C 0.416 0.43752 0.30027 0.0
H4324 H 0.42239 0.46986 0.28592 0.0
H4325 H 0.3904 0.33141 0.28609 0.0
H4326 H 0.35225 0.32297 0.3591 0.0
H4327 H 0.36499 0.31262 0.37399 0.0
H4328 H 0.33196 0.29514 0.41089 0.0
H4329 H 0.31909 0.30506 0.3959 0.0
H4330 H 0.361 0.30625 0.42384 0.0
H4331 H 0.32757 0.27461 0.38128 0.0
H4332 H 0.31848 0.26947 0.35237 0.0
H4333 H 0.35926 0.27764 0.33521 0.0
H4334 H 0.36862 0.283 0.36407 0.0
H4335 H 0.34817 0.24235 0.45965 0.0
H4336 H 0.34852 0.26248 0.44562 0.0
H4337 H 0.37652 0.26158 0.40823 0.0
H4338 H 0.37536 0.24062 0.4216 0.0
H4339 H 0.35675 0.26418 0.39368 0.0
H4340 H 0.38788 0.28918 0.43864 0.0
H4341 H 0.39622 0.29402 0.46785 0.0
H4342 H 0.36046 0.29883 0.48094 0.0
H4343 H 0.35179 0.29384 0.45188 0.0
C4344 C 0.34794 0.31722 0.37062 0.0
C4345 C 0.33468 0.31468 0.37635 0.0
C4346 C 0.3552 0.31134 0.37908 0.0
C4347 C 0.34937 0.30314 0.3935 0.0
C4348 C 0.33665 0.30152 0.39985 0.0
C4349 C 0.32927 0.3071 0.39123 0.0
C4350 C 0.35525 0.29454 0.40078 0.0
C4351 C 0.36022 0.2971 0.4173 0.0
C4352 C 0.35449 0.28283 0.39201 0.0
C4353 C 0.34883 0.27936 0.37475 0.0
C4354 C 0.33461 0.2754 0.37132 0.0
C4355 C 0.32941 0.27244 0.35495 0.0
C4356 C 0.3383 0.27329 0.34194 0.0
C4357 C 0.35239 0.27703 0.3453 0.0
C4358 C 0.35765 0.28002 0.36165 0.0
C4359 C 0.35433 0.24632 0.44836 0.0
C4360 C 0.3616 0.23971 0.44167 0.0
C4361 C 0.35476 0.25806 0.44052 0.0
C4362 C 0.36279 0.26378 0.42603 0.0
C4363 C 0.37034 0.25744 0.41948 0.0
C4364 C 0.36974 0.24551 0.42721 0.0
C4365 C 0.36224 0.27559 0.41708 0.0
C4366 C 0.35814 0.27359 0.4002 0.0
C4367 C 0.36387 0.28784 0.42556 0.0
C4368 C 0.36917 0.29109 0.44305 0.0
C4369 C 0.38176 0.29121 0.44776 0.0
C4370 C 0.38655 0.29399 0.4643 0.0
C4371 C 0.37887 0.29672 0.47625 0.0
C4372 C 0.36641 0.29673 0.47168 0.0
C4373 C 0.36157 0.29396 0.45515 0.0
H4374 H 0.38259 0.29884 0.48906 0.0
H4375 H 0.33425 0.271 0.32928 0.0
H4376 H 0.72016 0.02001 0.36843 0.0
H4377 H 0.73162 0.04176 0.38484 0.0
H4378 H 0.69402 0.04577 0.3813 0.0
H4379 H 0.68229 0.0238 0.36466 0.0
H4380 H 0.71944 0.07162 0.37575 0.0
H4381 H 0.70006 0.03535 0.41685 0.0
H4382 H 0.69439 0.0126 0.43034 0.0
H4383 H 0.73876 0.02717 0.4375 0.0
H4384 H 0.74472 0.04992 0.42381 0.0
H4385 H 0.75435 0.12786 0.43758 0.0
H4386 H 0.73647 0.10673 0.42254 0.0
H4387 H 0.76586 0.09072 0.41977 0.0
H4388 H 0.78373 0.11174 0.43448 0.0
H4389 H 0.73994 0.07061 0.43098 0.0
H4390 H 0.7589 0.10535 0.38614 0.0
H4391 H 0.76449 0.12792 0.37222 0.0
H4392 H 0.72042 0.11611 0.37243 0.0
H4393 H 0.71459 0.09353 0.38656 0.0
C4394 C 0.71424 0.02544 0.37107 0.0
C4395 C 0.70023 0.02006 0.36526 0.0
C4396 C 0.72083 0.03789 0.38053 0.0
C4397 C 0.71361 0.04527 0.38446 0.0
C4398 C 0.69974 0.04017 0.37845 0.0
C4399 C 0.69305 0.0276 0.369 0.0
C4400 C 0.72079 0.05829 0.3949 0.0
C4401 C 0.72366 0.0714 0.388 0.0
C4402 C 0.72635 0.05797 0.41082 0.0
C4403 C 0.72284 0.04433 0.41921 0.0
C4404 C 0.70862 0.03367 0.42119 0.0
C4405 C 0.70535 0.02078 0.42889 0.0
C4406 C 0.7162 0.01844 0.43475 0.0
C4407 C 0.73036 0.029 0.43295 0.0
C4408 C 0.73369 0.04191 0.42524 0.0
C4409 C 0.75704 0.11991 0.43357 0.0
C4410 C 0.77042 0.12142 0.43736 0.0
C4411 C 0.7468 0.10783 0.42503 0.0
C4412 C 0.74983 0.09713 0.42011 0.0
C4413 C 0.76325 0.09877 0.42361 0.0
C4414 C 0.77344 0.11079 0.43207 0.0
C4415 C 0.73907 0.084 0.41156 0.0
C4416 C 0.73549 0.07083 0.41888 0.0
C4417 C 0.73283 0.0843 0.39609 0.0
C4418 C 0.73634 0.09785 0.38759 0.0
C4419 C 0.75042 0.10763 0.38335 0.0
C4420 C 0.75363 0.1204 0.3754 0.0
C4421 C 0.74282 0.12347 0.37149 0.0
C4422 C 0.72878 0.11374 0.37549 0.0
C4423 C 0.72552 0.10095 0.38347 0.0
H4424 H 0.74533 0.13336 0.36533 0.0
H4425 H 0.71365 0.00844 0.4407 0.0
H4426 H 0.96888 0.67415 0.34172 0.0
H4427 H 0.94587 0.66744 0.35424 0.0
H4428 H 0.95768 0.65222 0.39802 0.0
H4429 H 0.98042 0.65851 0.38546 0.0
H4430 H 0.93092 0.63491 0.39089 0.0
H4431 H 0.96052 0.68576 0.3963 0.0
H4432 H 0.97567 0.71028 0.38618 0.0
H4433 H 0.94124 0.70713 0.35615 0.0
H4434 H 0.92593 0.6825 0.36593 0.0
H4435 H 0.88803 0.64045 0.45357 0.0
H4436 H 0.90776 0.64368 0.43612 0.0
H4437 H 0.88907 0.65337 0.39393 0.0
H4438 H 0.86905 0.64979 0.41116 0.0
H4439 H 0.91773 0.67258 0.39788 0.0
H4440 H 0.88751 0.62197 0.39537 0.0
H4441 H 0.87278 0.59788 0.40691 0.0
H4442 H 0.90898 0.60108 0.43306 0.0
H4443 H 0.92389 0.62528 0.42186 0.0
C4444 C 0.96648 0.6692 0.35392 0.0
C4445 C 0.97651 0.66694 0.36264 0.0
C4446 C 0.95336 0.66545 0.36111 0.0
C4447 C 0.95012 0.65954 0.37721 0.0
C4448 C 0.95992 0.65677 0.38561 0.0
C4449 C 0.97296 0.66042 0.37841 0.0
C4450 C 0.93683 0.65674 0.3857 0.0
C4451 C 0.9281 0.64318 0.3925 0.0
C4452 C 0.93296 0.66744 0.38757 0.0
C4453 C 0.94214 0.68224 0.38169 0.0
C4454 C 0.95621 0.69026 0.38744 0.0
C4455 C 0.96482 0.70418 0.38178 0.0
C4456 C 0.95943 0.71024 0.37049 0.0
C4457 C 0.94541 0.70241 0.36487 0.0
C4458 C 0.93676 0.68847 0.37047 0.0
C4459 C 0.88797 0.64306 0.44053 0.0
C4460 C 0.87689 0.64481 0.4338 0.0
C4461 C 0.8993 0.64496 0.43058 0.0
C4462 C 0.89982 0.64865 0.4137 0.0
C4463 C 0.88888 0.65053 0.40694 0.0
C4464 C 0.87748 0.64855 0.41685 0.0
C4465 C 0.91196 0.65083 0.40322 0.0
C4466 C 0.92048 0.66428 0.39608 0.0
C4467 C 0.91571 0.64008 0.4012 0.0
C4468 C 0.90679 0.62549 0.40788 0.0
C4469 C 0.89231 0.61758 0.40368 0.0
C4470 C 0.88393 0.6039 0.41014 0.0
C4471 C 0.88994 0.59797 0.42074 0.0
C4472 C 0.90434 0.6057 0.42486 0.0
C4473 C 0.91276 0.61939 0.41844 0.0
H4474 H 0.88343 0.58737 0.42573 0.0
H4475 H 0.96611 0.72103 0.36613 0.0
H4476 H 0.38724 0.03382 0.68916 0.0
H4477 H 0.40165 0.02627 0.70496 0.0
H4478 H 0.3639 0.98836 0.72061 0.0
H4479 H 0.34929 0.99575 0.70457 0.0
H4480 H 0.40206 0.02292 0.73755 0.0
H4481 H 0.37296 0.96199 0.72748 0.0
H4482 H 0.35808 0.94434 0.70618 0.0
H4483 H 0.3775 0.97582 0.66779 0.0
H4484 H 0.39263 0.99359 0.68883 0.0
H4485 H 0.42989 0.994 0.79536 0.0
H4486 H 0.41208 0.99608 0.77851 0.0
H4487 H 0.4305 0.99035 0.7337 0.0
H4488 H 0.44833 0.98822 0.7505 0.0
H4489 H 0.40154 0.97689 0.73142 0.0
H4490 H 0.43989 0.02323 0.74666 0.0
H4491 H 0.45621 0.04171 0.76632 0.0
H4492 H 0.42088 0.04116 0.7909 0.0
H4493 H 0.40433 0.02251 0.77152 0.0
C4494 C 0.38194 0.02382 0.69587 0.0
C4495 C 0.36707 0.01544 0.69568 0.0
C4496 C 0.39022 0.01954 0.70492 0.0
C4497 C 0.38386 0.00678 0.71397 0.0
C4498 C 0.36904 0.99819 0.71357 0.0
C4499 C 0.3607 0.00245 0.70443 0.0
C4500 C 0.39283 0.00291 0.72436 0.0
C4501 C 0.40189 0.01282 0.73624 0.0
C4502 C 0.3927 0.98979 0.72256 0.0
C4503 C 0.3838 0.97915 0.70976 0.0
C4504 C 0.37408 0.96513 0.71449 0.0
C4505 C 0.3656 0.95511 0.70246 0.0
C4506 C 0.36681 0.95897 0.68565 0.0
C4507 C 0.37654 0.97286 0.68082 0.0
C4508 C 0.38505 0.98291 0.6928 0.0
C4509 C 0.43008 0.9931 0.78192 0.0
C4510 C 0.4406 0.99113 0.77422 0.0
C4511 C 0.41987 0.99422 0.77233 0.0
C4512 C 0.4201 0.99356 0.75486 0.0
C4513 C 0.43014 0.99087 0.74717 0.0
C4514 C 0.44032 0.98966 0.75678 0.0
C4515 C 0.4107 0.9969 0.74457 0.0
C4516 C 0.40158 0.98691 0.73279 0.0
C4517 C 0.41094 0.01008 0.7462 0.0
C4518 C 0.42087 0.02139 0.75775 0.0
C4519 C 0.4356 0.02699 0.75633 0.0
C4520 C 0.44489 0.03749 0.76741 0.0
C4521 C 0.43958 0.04258 0.77987 0.0
C4522 C 0.42497 0.03719 0.78125 0.0
C4523 C 0.41563 0.02666 0.77022 0.0
H4524 H 0.44679 0.05071 0.78844 0.0
H4525 H 0.36022 0.95121 0.67636 0.0
H4526 H 0.9902 0.36232 0.67916 0.0
H4527 H 0.99504 0.38447 0.69327 0.0
H4528 H 0.0038 0.36915 0.73911 0.0
H4529 H 0.99917 0.34717 0.72517 0.0
H4530 H 0.98394 0.37881 0.7421 0.0
H4531 H 0.03035 0.39405 0.71897 0.0
H4532 H 0.04711 0.39822 0.69618 0.0
H4533 H 0.03494 0.42627 0.67222 0.0
H4534 H 0.01796 0.42211 0.69477 0.0
H4535 H 0.0108 0.43772 0.7955 0.0
H4536 H 0.00815 0.41785 0.77832 0.0
H4537 H 0.00791 0.44041 0.73387 0.0
H4538 H 0.011 0.46053 0.75106 0.0
H4539 H 0.02249 0.42739 0.72833 0.0
H4540 H 0.97684 0.4133 0.75064 0.0
H4541 H 0.95923 0.40914 0.77236 0.0
H4542 H 0.96833 0.37882 0.79621 0.0
H4543 H 0.98615 0.38294 0.77476 0.0
C4544 C 0.99331 0.36376 0.6922 0.0
C4545 C 0.99428 0.353 0.70107 0.0
C4546 C 0.99609 0.3764 0.70021 0.0
C4547 C 0.99976 0.3784 0.71722 0.0
C4548 C 0.00095 0.36778 0.72599 0.0
C4549 C 0.99834 0.35525 0.71797 0.0
C4550 C 0.00176 0.39124 0.7262 0.0
C4551 C 0.99245 0.38943 0.73922 0.0
C4552 C 0.01254 0.40511 0.72199 0.0
C4553 C 0.02277 0.40764 0.70846 0.0
C4554 C 0.03115 0.401 0.70877 0.0
C4555 C 0.04071 0.40339 0.69591 0.0
C4556 C 0.04206 0.41247 0.68273 0.0
C4557 C 0.03387 0.41922 0.68242 0.0
C4558 C 0.02428 0.41686 0.69524 0.0
C4559 C 0.01021 0.43843 0.78206 0.0
C4560 C 0.01099 0.45059 0.7746 0.0
C4561 C 0.00865 0.42707 0.77225 0.0
C4562 C 0.00751 0.42749 0.75481 0.0
C4563 C 0.00871 0.43981 0.7473 0.0
C4564 C 0.01048 0.45129 0.75711 0.0
C4565 C 0.00483 0.41495 0.74452 0.0
C4566 C 0.01393 0.4168 0.73119 0.0
C4567 C 0.99369 0.4011 0.74827 0.0
C4568 C 0.98293 0.39852 0.76116 0.0
C4569 C 0.97516 0.40581 0.76058 0.0
C4570 C 0.96513 0.40345 0.77283 0.0
C4571 C 0.96269 0.39374 0.78567 0.0
C4572 C 0.97025 0.38635 0.78626 0.0
C4573 C 0.98031 0.38868 0.77405 0.0
H4574 H 0.95492 0.39193 0.79515 0.0
H4575 H 0.04947 0.41431 0.67279 0.0
H4576 H 0.63635 0.6247 0.67566 0.0
H4577 H 0.61423 0.60913 0.69028 0.0
H4578 H 0.6275 0.63902 0.73114 0.0
H4579 H 0.64958 0.65458 0.71669 0.0
H4580 H 0.61836 0.61195 0.74183 0.0
H4581 H 0.60177 0.63578 0.70471 0.0
H4582 H 0.59792 0.64399 0.67743 0.0
H4583 H 0.57366 0.60067 0.66066 0.0
H4584 H 0.57753 0.5922 0.68778 0.0
H4585 H 0.55494 0.58069 0.7877 0.0
H4586 H 0.57532 0.59738 0.77138 0.0
H4587 H 0.55979 0.56878 0.72924 0.0
H4588 H 0.53892 0.5524 0.74515 0.0
H4589 H 0.57003 0.59514 0.71885 0.0
H4590 H 0.58679 0.57111 0.75519 0.0
H4591 H 0.59069 0.56246 0.78214 0.0
H4592 H 0.61483 0.60551 0.7999 0.0
H4593 H 0.61092 0.61441 0.77311 0.0
C4594 C 0.63448 0.62802 0.68768 0.0
C4595 C 0.64472 0.64086 0.69502 0.0
C4596 C 0.62183 0.61913 0.696 0.0
C4597 C 0.6192 0.62294 0.71178 0.0
C4598 C 0.62932 0.63586 0.71899 0.0
C4599 C 0.64192 0.64476 0.71067 0.0
C4600 C 0.60621 0.61321 0.72116 0.0
C4601 C 0.60778 0.60843 0.73691 0.0
C4602 C 0.59243 0.60829 0.71452 0.0
C4603 C 0.59007 0.61336 0.69822 0.0
C4604 C 0.59572 0.62801 0.69516 0.0
C4605 C 0.59351 0.63271 0.67973 0.0
C4606 C 0.58558 0.62286 0.6673 0.0
C4607 C 0.57981 0.60828 0.67029 0.0
C4608 C 0.582 0.60353 0.68569 0.0
C4609 C 0.5557 0.57802 0.77488 0.0
C4610 C 0.54528 0.56511 0.7678 0.0
C4611 C 0.56749 0.58752 0.76561 0.0
C4612 C 0.56925 0.58423 0.74916 0.0
C4613 C 0.55872 0.57152 0.74193 0.0
C4614 C 0.54686 0.56208 0.75113 0.0
C4615 C 0.58217 0.59392 0.73959 0.0
C4616 C 0.5806 0.59867 0.72379 0.0
C4617 C 0.59598 0.59874 0.74612 0.0
C4618 C 0.59845 0.59342 0.7622 0.0
C4619 C 0.59285 0.57873 0.76488 0.0
C4620 C 0.59508 0.57378 0.78012 0.0
C4621 C 0.60298 0.58343 0.79274 0.0
C4622 C 0.6087 0.59805 0.79012 0.0
C4623 C 0.6065 0.60305 0.7749 0.0
H4624 H 0.60468 0.57957 0.80454 0.0
H4625 H 0.58388 0.62652 0.65537 0.0
H4626 H 0.65458 0.67618 0.64743 0.0
H4627 H 0.64357 0.68759 0.63137 0.0
H4628 H 0.68372 0.72651 0.62966 0.0
H4629 H 0.69482 0.71529 0.64546 0.0
H4630 H 0.64055 0.71064 0.63787 0.0
H4631 H 0.68743 0.74241 0.59248 0.0
H4632 H 0.7062 0.73967 0.57864 0.0
H4633 H 0.68087 0.69417 0.58219 0.0
H4634 H 0.66187 0.69663 0.59582 0.0
H4635 H 0.64029 0.77112 0.60415 0.0
H4636 H 0.64535 0.75372 0.61751 0.0
H4637 H 0.63784 0.73127 0.57079 0.0
H4638 H 0.63335 0.74897 0.55717 0.0
H4639 H 0.66129 0.73477 0.58425 0.0
H4640 H 0.61424 0.7172 0.60341 0.0
H4641 H 0.59412 0.71826 0.61609 0.0
H4642 H 0.61697 0.73202 0.66251 0.0
H4643 H 0.63731 0.73124 0.65004 0.0
C4644 C 0.66108 0.68716 0.6436 0.0
C4645 C 0.67563 0.69476 0.64767 0.0
C4646 C 0.65475 0.69366 0.63446 0.0
C4647 C 0.66286 0.70783 0.62914 0.0
C4648 C 0.67731 0.71549 0.63339 0.0
C4649 C 0.68363 0.70904 0.64249 0.0
C4650 C 0.65635 0.71481 0.61926 0.0
C4651 C 0.64502 0.71586 0.6261 0.0
C4652 C 0.66196 0.72131 0.6037 0.0
C4653 C 0.67327 0.71972 0.5953 0.0
C4654 C 0.68583 0.73182 0.59023 0.0
C4655 C 0.69652 0.73031 0.58244 0.0
C4656 C 0.69474 0.71675 0.57958 0.0
C4657 C 0.68226 0.70467 0.58446 0.0
C4658 C 0.67153 0.70612 0.59224 0.0
C4659 C 0.63971 0.76248 0.59671 0.0
C4660 C 0.63645 0.76148 0.57957 0.0
C4661 C 0.64244 0.75243 0.60442 0.0
C4662 C 0.64183 0.74108 0.5952 0.0
C4663 C 0.63832 0.73989 0.57817 0.0
C4664 C 0.63563 0.74997 0.57043 0.0
C4665 C 0.64578 0.73104 0.60312 0.0
C4666 C 0.65668 0.72943 0.59592 0.0
C4667 C 0.63957 0.7238 0.61816 0.0
C4668 C 0.62735 0.72425 0.62574 0.0
C4669 C 0.61502 0.72055 0.61629 0.0
C4670 C 0.60356 0.72109 0.62344 0.0
C4671 C 0.60428 0.72523 0.64008 0.0
C4672 C 0.61643 0.72882 0.64962 0.0
C4673 C 0.62792 0.72831 0.64252 0.0
H4674 H 0.5954 0.72564 0.6456 0.0
H4675 H 0.70303 0.71561 0.57355 0.0
H4676 H 0.29931 0.9682 0.67966 0.0
H4677 H 0.28363 0.94459 0.66782 0.0
H4678 H 0.30151 0.96 0.61915 0.0
H4679 H 0.31758 0.98328 0.63106 0.0
H4680 H 0.2634 0.93642 0.64748 0.0
H4681 H 0.29892 0.93476 0.59381 0.0
H4682 H 0.32405 0.94196 0.58927 0.0
H4683 H 0.33033 0.9406 0.64206 0.0
H4684 H 0.3052 0.93319 0.6469 0.0
H4685 H 0.22052 0.89379 0.58279 0.0
H4686 H 0.23832 0.91253 0.60022 0.0
H4687 H 0.25807 0.88686 0.60965 0.0
H4688 H 0.24096 0.86847 0.591 0.0
H4689 H 0.27765 0.91221 0.60554 0.0
H4690 H 0.23707 0.89188 0.63968 0.0
H4691 H 0.21205 0.88252 0.64739 0.0
H4692 H 0.21623 0.92381 0.63963 0.0
H4693 H 0.24123 0.93338 0.63164 0.0
C4694 C 0.30004 0.96644 0.66649 0.0
C4695 C 0.30969 0.97756 0.65629 0.0
C4696 C 0.29105 0.95297 0.65972 0.0
C4697 C 0.29145 0.9504 0.64259 0.0
C4698 C 0.30121 0.96152 0.63246 0.0
C4699 C 0.31036 0.97489 0.63928 0.0
C4700 C 0.281 0.93652 0.63502 0.0
C4701 C 0.26655 0.93108 0.63843 0.0
C4702 C 0.28506 0.92922 0.62356 0.0
C4703 C 0.30017 0.93351 0.62072 0.0
C4704 C 0.30563 0.93591 0.60444 0.0
C4705 C 0.31989 0.94005 0.60182 0.0
C4706 C 0.32879 0.94177 0.61537 0.0
C4707 C 0.32344 0.93931 0.63158 0.0
C4708 C 0.30919 0.93516 0.63427 0.0
C4709 C 0.22876 0.89215 0.5883 0.0
C4710 C 0.22925 0.87954 0.58536 0.0
C4711 C 0.23882 0.90283 0.59857 0.0
C4712 C 0.2494 0.90103 0.60659 0.0
C4713 C 0.24997 0.88849 0.6037 0.0
C4714 C 0.24004 0.87789 0.59316 0.0
C4715 C 0.26006 0.91246 0.61758 0.0
C4716 C 0.27453 0.91744 0.6148 0.0
C4717 C 0.25605 0.919 0.63011 0.0
C4718 C 0.24101 0.91333 0.63496 0.0
C4719 C 0.23263 0.89895 0.63952 0.0
C4720 C 0.21846 0.89361 0.64395 0.0
C4721 C 0.21255 0.90256 0.64397 0.0
C4722 C 0.22082 0.91689 0.6396 0.0
C4723 C 0.235 0.92228 0.63514 0.0
H4724 H 0.20157 0.89841 0.64741 0.0
H4725 H 0.33982 0.94498 0.61331 0.0
H4726 H 0.01736 0.33639 0.64509 0.0
H4727 H 0.03941 0.34577 0.62918 0.0
H4728 H 0.05234 0.32081 0.65908 0.0
H4729 H 0.03017 0.31107 0.67472 0.0
H4730 H 0.07452 0.35222 0.6505 0.0
H4731 H 0.03916 0.30595 0.62734 0.0
H4732 H 0.01538 0.28962 0.61589 0.0
H4733 H 0.02164 0.31962 0.57706 0.0
H4734 H 0.04538 0.33624 0.58847 0.0
H4735 H 0.12715 0.34712 0.60458 0.0
H4736 H 0.10725 0.34384 0.62185 0.0
H4737 H 0.08805 0.3523 0.57906 0.0
H4738 H 0.10759 0.35472 0.56163 0.0
H4739 H 0.06879 0.33146 0.59389 0.0
H4740 H 0.10442 0.37669 0.61339 0.0
H4741 H 0.12774 0.39479 0.62432 0.0
H4742 H 0.12112 0.37008 0.6688 0.0
H4743 H 0.09784 0.35172 0.65803 0.0
C4744 C 0.02502 0.3331 0.64846 0.0
C4745 C 0.02203 0.32295 0.66107 0.0
C4746 C 0.03757 0.33845 0.63937 0.0
C4747 C 0.04743 0.33395 0.64301 0.0
C4748 C 0.04485 0.32443 0.65618 0.0
C4749 C 0.03217 0.31883 0.66502 0.0
C4750 C 0.05979 0.33808 0.63213 0.0
C4751 C 0.07337 0.34767 0.63815 0.0
C4752 C 0.05812 0.33247 0.61586 0.0
C4753 C 0.04395 0.32239 0.60887 0.0
C4754 C 0.03541 0.30912 0.61646 0.0
C4755 C 0.02195 0.2998 0.60996 0.0
C4756 C 0.01699 0.3036 0.59579 0.0
C4757 C 0.02549 0.31671 0.58805 0.0
C4758 C 0.03895 0.32607 0.59453 0.0
C4759 C 0.11871 0.34837 0.59896 0.0
C4760 C 0.11883 0.35117 0.58185 0.0
C4761 C 0.10738 0.34661 0.60884 0.0
C4762 C 0.0962 0.34807 0.60188 0.0
C4763 C 0.0965 0.35111 0.58477 0.0
C4764 C 0.10766 0.35253 0.57482 0.0
C4765 C 0.08384 0.34562 0.61221 0.0
C4766 C 0.07013 0.33626 0.60612 0.0
C4767 C 0.08543 0.35174 0.62828 0.0
C4768 C 0.09943 0.36276 0.63483 0.0
C4769 C 0.10798 0.37506 0.62545 0.0
C4770 C 0.12118 0.38538 0.63163 0.0
C4771 C 0.12592 0.38357 0.64723 0.0
C4772 C 0.11744 0.37146 0.65671 0.0
C4773 C 0.10423 0.3611 0.65058 0.0
H4774 H 0.13615 0.39157 0.65199 0.0
H4775 H 0.00656 0.29638 0.59078 0.0
H4776 H 0.3204 0.33898 0.62774 0.0
H4777 H 0.30463 0.34596 0.61387 0.0
H4778 H 0.27961 0.33626 0.65858 0.0
H4779 H 0.29513 0.32883 0.67236 0.0
H4780 H 0.26289 0.3252 0.63309 0.0
H4781 H 0.30182 0.37124 0.64506 0.0
H4782 H 0.32676 0.39041 0.6458 0.0
H4783 H 0.32792 0.3908 0.59226 0.0
H4784 H 0.30303 0.37148 0.5912 0.0
H4785 H 0.22124 0.35485 0.60231 0.0
H4786 H 0.23885 0.35226 0.61908 0.0
H4787 H 0.26132 0.35359 0.57434 0.0
H4788 H 0.24376 0.3562 0.5575 0.0
H4789 H 0.27925 0.37005 0.60124 0.0
H4790 H 0.2404 0.3227 0.59016 0.0
H4791 H 0.21528 0.3039 0.59006 0.0
H4792 H 0.21404 0.30684 0.64338 0.0
H4793 H 0.23911 0.32581 0.64376 0.0
C4794 C 0.31163 0.33846 0.63468 0.0
C4795 C 0.309 0.33334 0.65114 0.0
C4796 C 0.30265 0.34254 0.62675 0.0
C4797 C 0.291 0.3418 0.63522 0.0
C4798 C 0.28852 0.33693 0.65178 0.0
C4799 C 0.29742 0.33271 0.65966 0.0
C4800 C 0.28096 0.34533 0.6265 0.0
C4801 C 0.26647 0.33514 0.62641 0.0
C4802 C 0.28561 0.35818 0.61748 0.0
C4803 C 0.30059 0.36982 0.61806 0.0
C4804 C 0.30742 0.37534 0.63345 0.0
C4805 C 0.32155 0.38625 0.63393 0.0
C4806 C 0.32893 0.3918 0.61909 0.0
C4807 C 0.32219 0.38648 0.60375 0.0
C4808 C 0.30807 0.37556 0.6032 0.0
C4809 C 0.23004 0.35477 0.59608 0.0
C4810 C 0.23111 0.35565 0.57861 0.0
C4811 C 0.24004 0.35324 0.60566 0.0
C4812 C 0.25132 0.35265 0.59792 0.0
C4813 C 0.25269 0.35402 0.58053 0.0
C4814 C 0.24261 0.3554 0.57094 0.0
C4815 C 0.26131 0.34991 0.60787 0.0
C4816 C 0.27574 0.36021 0.60811 0.0
C4817 C 0.25661 0.33724 0.61717 0.0
C4818 C 0.24157 0.32578 0.61696 0.0
C4819 C 0.23473 0.31942 0.60184 0.0
C4820 C 0.22051 0.30872 0.60174 0.0
C4821 C 0.21306 0.30421 0.6167 0.0
C4822 C 0.21982 0.31036 0.6318 0.0
C4823 C 0.23403 0.32108 0.63197 0.0
H4824 H 0.20205 0.29592 0.6166 0.0
H4825 H 0.33987 0.40025 0.61949 0.0
H4826 H 0.6948 0.98026 0.64209 0.0
H4827 H 0.6828 0.95834 0.62604 0.0
H4828 H 0.64222 0.9536 0.63935 0.0
H4829 H 0.65422 0.9758 0.65561 0.0
H4830 H 0.64408 0.92818 0.64264 0.0
H4831 H 0.65205 0.96303 0.6015 0.0
H4832 H 0.66559 0.98552 0.58607 0.0
H4833 H 0.69495 0.97219 0.56998 0.0
H4834 H 0.68172 0.9497 0.58553 0.0
H4835 H 0.61622 0.86947 0.58412 0.0
H4836 H 0.62043 0.89143 0.5982 0.0
H4837 H 0.66544 0.90936 0.59098 0.0
H4838 H 0.66131 0.88765 0.57677 0.0
H4839 H 0.65633 0.92822 0.5831 0.0
H4840 H 0.6507 0.89562 0.62809 0.0
H4841 H 0.63775 0.87336 0.64413 0.0
H4842 H 0.60411 0.88264 0.65304 0.0
H4843 H 0.6168 0.90489 0.63685 0.0
C4844 C 0.68332 0.97463 0.64168 0.0
C4845 C 0.67548 0.97985 0.65014 0.0
C4846 C 0.67647 0.9621 0.63241 0.0
C4847 C 0.66164 0.95445 0.63136 0.0
C4848 C 0.65369 0.95942 0.63996 0.0
C4849 C 0.66057 0.97211 0.64918 0.0
C4850 C 0.6547 0.94118 0.62133 0.0
C4851 C 0.64643 0.92817 0.62951 0.0
C4852 C 0.65794 0.94121 0.60426 0.0
C4853 C 0.66591 0.95469 0.59477 0.0
C4854 C 0.66145 0.96493 0.59477 0.0
C4855 C 0.66906 0.97768 0.58599 0.0
C4856 C 0.68113 0.98029 0.57707 0.0
C4857 C 0.6856 0.97015 0.57689 0.0
C4858 C 0.67803 0.95739 0.58567 0.0
C4859 C 0.62699 0.87814 0.58547 0.0
C4860 C 0.63845 0.87681 0.57946 0.0
C4861 C 0.62938 0.89063 0.59357 0.0
C4862 C 0.64326 0.90199 0.5957 0.0
C4863 C 0.65466 0.90073 0.58947 0.0
C4864 C 0.65229 0.88826 0.58149 0.0
C4865 C 0.64614 0.91521 0.60455 0.0
C4866 C 0.65366 0.92822 0.59612 0.0
C4867 C 0.64221 0.91516 0.62136 0.0
C4868 C 0.6346 0.9018 0.63108 0.0
C4869 C 0.64048 0.89284 0.63334 0.0
C4870 C 0.63321 0.88024 0.64248 0.0
C4871 C 0.62009 0.87656 0.64955 0.0
C4872 C 0.61425 0.88549 0.64752 0.0
C4873 C 0.62148 0.89809 0.63837 0.0
H4874 H 0.61448 0.8668 0.65663 0.0
H4875 H 0.68702 0.99017 0.57028 0.0
H4876 H 0.02817 0.70843 0.67724 0.0
H4877 H 0.05022 0.72532 0.6634 0.0
H4878 H 0.03904 0.69695 0.62123 0.0
H4879 H 0.01699 0.68008 0.63489 0.0
H4880 H 0.07347 0.72447 0.65056 0.0
H4881 H 0.04674 0.71715 0.58601 0.0
H4882 H 0.02302 0.70968 0.57409 0.0
H4883 H 0.01141 0.72337 0.61865 0.0
H4884 H 0.03512 0.7311 0.63071 0.0
H4885 H 0.12474 0.75841 0.58617 0.0
H4886 H 0.10496 0.74144 0.60325 0.0
H4887 H 0.08757 0.76983 0.60339 0.0
H4888 H 0.10738 0.78692 0.58654 0.0
H4889 H 0.06756 0.74307 0.59614 0.0
H4890 H 0.10377 0.76632 0.63779 0.0
H4891 H 0.12735 0.77502 0.65069 0.0
H4892 H 0.12 0.73216 0.65377 0.0
H4893 H 0.09644 0.72322 0.64066 0.0
C4894 C 0.03051 0.7057 0.66513 0.0
C4895 C 0.02077 0.69299 0.65708 0.0
C4896 C 0.04312 0.71534 0.65726 0.0
C4897 C 0.04615 0.71247 0.64121 0.0
C4898 C 0.03681 0.69945 0.63354 0.0
C4899 C 0.02422 0.68981 0.64138 0.0
C4900 C 0.05854 0.72347 0.63198 0.0
C4901 C 0.07221 0.72852 0.63864 0.0
C4902 C 0.05685 0.72893 0.61657 0.0
C4903 C 0.04265 0.72456 0.60932 0.0
C4904 C 0.03914 0.71861 0.59323 0.0
C4905 C 0.0257 0.71433 0.58645 0.0
C4906 C 0.0157 0.716 0.59563 0.0
C4907 C 0.01915 0.72203 0.61157 0.0
C4908 C 0.03258 0.72635 0.61839 0.0
C4909 C 0.11681 0.76113 0.59002 0.0
C4910 C 0.11764 0.77402 0.58495 0.0
C4911 C 0.10549 0.7514 0.59975 0.0
C4912 C 0.09483 0.7544 0.60466 0.0
C4913 C 0.09566 0.76727 0.59969 0.0
C4914 C 0.10696 0.777 0.58999 0.0
C4915 C 0.08256 0.74397 0.61456 0.0
C4916 C 0.06888 0.739 0.60802 0.0
C4917 C 0.08425 0.73877 0.63017 0.0
C4918 C 0.09839 0.74411 0.6381 0.0
C4919 C 0.10722 0.75876 0.64109 0.0
C4920 C 0.12058 0.76373 0.64846 0.0
C4921 C 0.12518 0.75415 0.65301 0.0
C4922 C 0.11642 0.73957 0.65022 0.0
C4923 C 0.10306 0.73454 0.64284 0.0
H4924 H 0.13553 0.75802 0.65871 0.0
H4925 H 0.00529 0.71266 0.59037 0.0
H4926 H 0.00766 0.65358 0.70199 0.0
H4927 H 0.01622 0.64032 0.71897 0.0
H4928 H 0.97386 0.60434 0.72019 0.0
H4929 H 0.96525 0.61732 0.70347 0.0
H4930 H 0.9863 0.61087 0.75104 0.0
H4931 H 0.9984 0.60463 0.6945 0.0
H4932 H 0.0105 0.61324 0.66754 0.0
H4933 H 0.05088 0.63364 0.69266 0.0
H4934 H 0.03899 0.62529 0.7198 0.0
H4935 H 0.98754 0.54879 0.77103 0.0
H4936 H 0.98564 0.56754 0.75616 0.0
H4937 H 0.03064 0.59562 0.7621 0.0
H4938 H 0.03263 0.57685 0.77719 0.0
H4939 H 0.021 0.59717 0.73047 0.0
H4940 H 0.00907 0.6005 0.78663 0.0
H4941 H 0.99702 0.59167 0.81355 0.0
H4942 H 0.95662 0.57717 0.78959 0.0
H4943 H 0.96841 0.58571 0.76247 0.0
C4944 C 1.00018 0.64284 0.70588 0.0
C4945 C 0.98575 0.63655 0.70135 0.0
C4946 C 0.0051 0.63528 0.71554 0.0
C4947 C 0.99566 0.62135 0.72082 0.0
C4948 C 0.98131 0.6151 0.71632 0.0
C4949 C 0.97642 0.62256 0.70667 0.0
C4950 C 0.00044 0.61305 0.73111 0.0
C4951 C 0.99387 0.60785 0.74654 0.0
C4952 C 0.01068 0.60953 0.72548 0.0
C4953 C 0.0178 0.6145 0.70918 0.0
C4954 C 0.00985 0.61106 0.69428 0.0
C4955 C 0.01667 0.61587 0.67897 0.0
C4956 C 0.03144 0.62402 0.67839 0.0
C4957 C 0.03943 0.62735 0.69313 0.0
C4958 C 0.03266 0.62258 0.70848 0.0
C4959 C 0.99703 0.55897 0.76927 0.0
C4960 C 0.0102 0.56139 0.77547 0.0
C4961 C 0.99594 0.56967 0.76073 0.0
C4962 C 0.00796 0.58305 0.75829 0.0
C4963 C 0.02123 0.58538 0.76392 0.0
C4964 C 0.02234 0.57464 0.77249 0.0
C4965 C 0.00643 0.59455 0.75008 0.0
C4966 C 0.01364 0.6004 0.73513 0.0
C4967 C 0.9968 0.59873 0.75616 0.0
C4968 C 0.98964 0.59368 0.77249 0.0
C4969 C 0.99761 0.59534 0.78708 0.0
C4970 C 0.99082 0.5904 0.80238 0.0
C4971 C 0.97606 0.58384 0.80328 0.0
C4972 C 0.96805 0.58225 0.78887 0.0
C4973 C 0.97479 0.58716 0.77354 0.0
H4974 H 0.97082 0.58002 0.81513 0.0
H4975 H 0.0367 0.62773 0.66653 0.0
H4976 H 0.34757 0.36205 0.69034 0.0
H4977 H 0.36021 0.38551 0.70379 0.0
H4978 H 0.39253 0.37609 0.72099 0.0
H4979 H 0.38028 0.35297 0.70728 0.0
H4980 H 0.36801 0.39496 0.73479 0.0
H4981 H 0.42446 0.40448 0.71912 0.0
H4982 H 0.436 0.39806 0.69698 0.0
H4983 H 0.40355 0.39304 0.66212 0.0
H4984 H 0.39195 0.39967 0.68396 0.0
H4985 H 0.42041 0.44582 0.78853 0.0
H4986 H 0.40357 0.42541 0.77186 0.0
H4987 H 0.42139 0.44946 0.72676 0.0
H4988 H 0.43863 0.46965 0.74346 0.0
H4989 H 0.41924 0.42539 0.72294 0.0
H4990 H 0.38683 0.43989 0.7412 0.0
H4991 H 0.37447 0.44737 0.76104 0.0
H4992 H 0.35763 0.40718 0.78627 0.0
H4993 H 0.37005 0.39952 0.76672 0.0
C4994 C 0.35735 0.36498 0.69704 0.0
C4995 C 0.36301 0.35572 0.69755 0.0
C4996 C 0.36454 0.37837 0.70474 0.0
C4997 C 0.37746 0.38266 0.71311 0.0
C4998 C 0.38277 0.37316 0.71424 0.0
C4999 C 0.37572 0.35992 0.70641 0.0
C5000 C 0.38567 0.39714 0.72043 0.0
C5001 C 0.37919 0.40168 0.73217 0.0
C5002 C 0.40015 0.40611 0.71658 0.0
C5003 C 0.40728 0.40248 0.70323 0.0
C5004 C 0.41984 0.40211 0.7067 0.0
C5005 C 0.42638 0.39842 0.69421 0.0
C5006 C 0.42049 0.39511 0.67817 0.0
C5007 C 0.40808 0.39556 0.67456 0.0
C5008 C 0.40152 0.39928 0.687 0.0
C5009 C 0.42055 0.44678 0.77506 0.0
C5010 C 0.4308 0.45925 0.76724 0.0
C5011 C 0.41088 0.43515 0.76553 0.0
C5012 C 0.41107 0.4359 0.748 0.0
C5013 C 0.42103 0.44858 0.74023 0.0
C5014 C 0.43086 0.4601 0.74976 0.0
C5015 C 0.40173 0.4231 0.73781 0.0
C5016 C 0.40802 0.41884 0.72548 0.0
C5017 C 0.38699 0.41464 0.74077 0.0
C5018 C 0.37946 0.41917 0.75255 0.0
C5019 C 0.38057 0.43268 0.75105 0.0
C5020 C 0.37354 0.43695 0.76223 0.0
C5021 C 0.36529 0.42777 0.77492 0.0
C5022 C 0.36402 0.41428 0.77643 0.0
C5023 C 0.37104 0.40996 0.76529 0.0
H5024 H 0.35985 0.43109 0.78357 0.0
H5025 H 0.42555 0.39222 0.66853 0.0
H5026 H 0.63947 0.01262 0.67498 0.0
H5027 H 0.61797 0.00871 0.68932 0.0
H5028 H 0.63451 0.00214 0.73565 0.0
H5029 H 0.65567 0.00544 0.72127 0.0
H5030 H 0.608 0.98399 0.73403 0.0
H5031 H 0.63532 0.03447 0.72513 0.0
H5032 H 0.6484 0.05652 0.70875 0.0
H5033 H 0.61074 0.04602 0.68033 0.0
H5034 H 0.59747 0.0238 0.69641 0.0
H5035 H 0.56814 0.99944 0.79219 0.0
H5036 H 0.58734 0.00089 0.77487 0.0
H5037 H 0.56324 0.99784 0.73048 0.0
H5038 H 0.54396 0.99636 0.74776 0.0
H5039 H 0.59218 0.01993 0.72972 0.0
H5040 H 0.56478 0.96977 0.7414 0.0
H5041 H 0.55251 0.94877 0.75962 0.0
H5042 H 0.59171 0.96016 0.78505 0.0
H5043 H 0.60418 0.98135 0.76712 0.0
C5044 C 0.63846 0.01025 0.6882 0.0
C5045 C 0.64927 0.00938 0.697 0.0
C5046 C 0.62621 0.0081 0.69642 0.0
C5047 C 0.62469 0.00536 0.71366 0.0
C5048 C 0.63539 0.00422 0.72236 0.0
C5049 C 0.64752 0.00615 0.71411 0.0
C5050 C 0.6121 0.00384 0.72279 0.0
C5051 C 0.60465 0.99194 0.73317 0.0
C5052 C 0.60751 0.01405 0.72152 0.0
C5053 C 0.61545 0.0274 0.71184 0.0
C5054 C 0.62986 0.03681 0.7153 0.0
C5055 C 0.6373 0.04935 0.70609 0.0
C5056 C 0.63042 0.05265 0.69347 0.0
C5057 C 0.61606 0.04344 0.69008 0.0
C5058 C 0.60857 0.03088 0.69925 0.0
C5059 C 0.56696 0.99912 0.77874 0.0
C5060 C 0.55456 0.99777 0.77131 0.0
C5061 C 0.57789 0.99987 0.76888 0.0
C5062 C 0.57666 0.99939 0.75141 0.0
C5063 C 0.56436 0.99819 0.74394 0.0
C5064 C 0.55334 0.99726 0.75381 0.0
C5065 C 0.58829 0.00022 0.741 0.0
C5066 C 0.59552 0.01197 0.73041 0.0
C5067 C 0.59284 0.99002 0.74231 0.0
C5068 C 0.58539 0.97721 0.753 0.0
C5069 C 0.57076 0.96786 0.75096 0.0
C5070 C 0.56378 0.95591 0.76122 0.0
C5071 C 0.57132 0.95315 0.77351 0.0
C5072 C 0.58588 0.96232 0.77553 0.0
C5073 C 0.59291 0.97429 0.76531 0.0
H5074 H 0.5659 0.94389 0.78144 0.0
H5075 H 0.6362 0.06236 0.68636 0.0
loop_
_geom_bond_atom_site_label_1
_geom_bond_atom_site_label_2
_geom_bond_distance
_geom_bond_site_symmetry_2
_ccdc_geom_bond_type
Mn0 O5 2.095 1_655 S
Mn0 O15 2.162 . S
Mn0 O16 2.297 1_554 S
Mn0 O24 2.385 1_554 S
Mn0 O25 2.209 1_654 S
Mn0 O26 2.094 . S
Mn1 O6 2.121 . S
Mn1 N8 2.257 1_554 S
Mn1 N17 2.282 . S
Mn1 O25 2.215 1_554 S
Mn1 O27 2.117 . S
C2 O24 1.234 1_455 S
C2 O25 1.283 . S
C3 O15 1.281 1_556 S
C3 O16 1.236 . S
C4 O26 1.257 . S
C4 O27 1.223 1_655 S
O5 Mn0 2.095 1_455 S
O5 C14 1.250 . S
O6 Mn1 2.121 . S
O6 C14 1.258 . S
C7 N8 1.326 . S
C7 C11 1.460 . S
C7 H13 0.929 . S
N8 Mn1 2.257 1_556 S
N8 C7 1.326 . S
N8 C12 1.362 . S
C9 C10 1.258 . S
C9 C12 1.431 . S
C9 C29 1.449 . S
C10 C9 1.258 . S
C10 C11 1.477 . S
C10 H30 0.931 . S
C11 C7 1.460 . S
C11 C10 1.477 . S
C11 H31 0.930 . S
C12 N8 1.362 . S
C12 C9 1.431 . S
C12 C22 1.476 . S
H13 C7 0.929 . S
C14 O5 1.250 . S
C14 O6 1.258 . S
O15 Mn0 2.162 . S
O15 C3 1.281 1_554 S
O16 Mn0 2.297 1_556 S
O16 C3 1.236 . S
N17 Mn1 2.282 . S
N17 C18 1.328 . S
N17 C22 1.318 1_554 S
C18 N17 1.328 . S
C18 C19 1.434 1_554 S
C18 H23 0.929 . S
C19 C18 1.434 1_556 S
C19 C20 1.325 . S
C19 H32 0.922 1_556 S
C20 C19 1.325 . S
C20 C21 1.373 . S
C20 H33 0.929 . S
C21 C20 1.373 . S
C21 C22 1.396 . S
C21 C28 1.403 . S
C22 C12 1.476 . S
C22 N17 1.318 1_556 S
C22 C21 1.396 . S
H23 C18 0.929 . S
O24 Mn0 2.385 1_556 S
O24 C2 1.234 1_655 S
O25 Mn0 2.209 1_456 S
O25 Mn1 2.215 1_556 S
O25 C2 1.283 . S
O26 Mn0 2.094 . S
O26 C4 1.257 . S
O27 Mn1 2.117 . S
O27 C4 1.223 1_455 S
C28 C21 1.403 . S
C28 C29 1.399 . S
C28 H34 0.929 . S
C29 C9 1.449 . S
C29 C28 1.399 . S
C29 H35 0.930 . S
H30 C10 0.931 . S
H31 C11 0.930 . S
H32 C19 0.922 1_554 S
H33 C20 0.929 . S
H34 C28 0.929 . S
H35 C29 0.930 . S
Mn36 O41 2.095 1_554 S
Mn36 O51 2.162 . S
Mn36 O52 2.297 . S
Mn36 O60 2.385 . S
Mn36 O61 2.209 . S
Mn36 O62 2.094 1_554 S
Mn37 O42 2.121 . S
Mn37 N44 2.257 1_556 S
Mn37 N53 2.282 1_556 S
Mn37 O61 2.215 1_556 S
Mn37 O63 2.117 . S
C38 O60 1.234 . S
C38 O61 1.283 . S
C39 O51 1.281 . S
C39 O52 1.236 . S
C40 O62 1.240 . S
C40 O63 1.264 . S
O41 Mn36 2.095 1_556 S
O41 C50 1.250 . S
O42 Mn37 2.121 . S
O42 C50 1.258 . S
C43 N44 1.326 . S
C43 C47 1.460 . S
C43 H49 0.929 . S
N44 Mn37 2.257 1_554 S
N44 C43 1.326 . S
N44 C48 1.362 . S
C45 C46 1.258 . S
C45 C48 1.431 . S
C45 C65 1.449 . S
C46 C45 1.258 . S
C46 C47 1.477 . S
C46 H66 0.931 . S
C47 C43 1.460 . S
C47 C46 1.477 . S
C47 H67 0.930 . S
C48 N44 1.362 . S
C48 C45 1.431 . S
C48 C58 1.476 . S
H49 C43 0.929 . S
C50 O41 1.250 . S
C50 O42 1.258 . S
O51 Mn36 2.162 . S
O51 C39 1.281 . S
O52 Mn36 2.297 . S
O52 C39 1.236 . S
N53 Mn37 2.282 1_554 S
N53 C54 1.328 . S
N53 C58 1.318 . S
C54 N53 1.328 . S
C54 C55 1.457 . S
C54 H59 0.931 . S
C55 C54 1.457 . S
C55 C56 1.291 . S
C55 H68 0.931 . S
C56 C55 1.291 . S
C56 C57 1.373 . S
C56 H69 0.929 . S
C57 C56 1.373 . S
C57 C58 1.396 . S
C57 C64 1.403 . S
C58 C48 1.476 . S
C58 N53 1.318 . S
C58 C57 1.396 . S
H59 C54 0.931 . S
O60 Mn36 2.385 . S
O60 C38 1.234 . S
O61 Mn36 2.209 . S
O61 Mn37 2.215 1_554 S
O61 C38 1.283 . S
O62 Mn36 2.094 1_556 S
O62 C40 1.240 . S
O63 Mn37 2.117 . S
O63 C40 1.264 . S
C64 C57 1.403 . S
C64 C65 1.399 . S
C64 H70 0.929 . S
C65 C45 1.449 . S
C65 C64 1.399 . S
C65 H71 0.930 . S
H66 C46 0.931 . S
H67 C47 0.930 . S
H68 C55 0.931 . S
H69 C56 0.929 . S
H70 C64 0.929 . S
H71 C65 0.930 . S
Mn72 O77 2.095 1_564 S
Mn72 O87 2.162 . S
Mn72 O88 2.297 . S
Mn72 O96 2.385 . S
Mn72 O97 2.209 1_565 S
Mn72 O98 2.094 1_554 S
Mn73 O78 2.121 1_554 S
Mn73 N80 2.257 . S
Mn73 N89 2.282 . S
Mn73 O97 2.215 . S
Mn73 O99 2.117 1_554 S
C74 O96 1.234 1_545 S
C74 O97 1.283 . S
C75 O87 1.281 . S
C75 O88 1.236 . S
C76 O98 1.240 . S
C76 O99 1.264 1_565 S
O77 Mn72 2.095 1_546 S
O77 C86 1.250 . S
O78 Mn73 2.121 1_556 S
O78 C86 1.258 . S
C79 N80 1.326 . S
C79 C83 1.460 . S
C79 H85 0.929 . S
N80 Mn73 2.257 . S
N80 C79 1.326 . S
N80 C84 1.362 . S
C81 C82 1.258 . S
C81 C84 1.431 . S
C81 C101 1.449 . S
C82 C81 1.258 . S
C82 C83 1.477 . S
C82 H102 0.931 . S
C83 C79 1.460 . S
C83 C82 1.477 . S
C83 H103 0.930 . S
C84 N80 1.362 . S
C84 C81 1.431 . S
C84 C94 1.476 . S
H85 C79 0.929 . S
C86 O77 1.250 . S
C86 O78 1.258 . S
O87 Mn72 2.162 . S
O87 C75 1.281 . S
O88 Mn72 2.297 . S
O88 C75 1.236 . S
N89 Mn73 2.282 . S
N89 C90 1.328 . S
N89 C94 1.318 . S
C90 N89 1.328 . S
C90 C91 1.457 . S
C90 H95 0.929 . S
C91 C90 1.457 . S
C91 C92 1.291 . S
C91 H104 0.931 . S
C92 C91 1.291 . S
C92 C93 1.373 . S
C92 H105 0.929 . S
C93 C92 1.373 . S
C93 C94 1.396 . S
C93 C100 1.403 . S
C94 C84 1.476 . S
C94 N89 1.318 . S
C94 C93 1.396 . S
H95 C90 0.929 . S
O96 Mn72 2.385 . S
O96 C74 1.234 1_565 S
O97 Mn72 2.209 1_545 S
O97 Mn73 2.215 . S
O97 C74 1.283 . S
O98 Mn72 2.094 1_556 S
O98 C76 1.240 . S
O99 Mn73 2.117 1_556 S
O99 C76 1.264 1_545 S
C100 C93 1.403 . S
C100 C101 1.399 . S
C100 H106 0.929 . S
C101 C81 1.449 . S
C101 C100 1.399 . S
C101 H107 0.930 . S
H102 C82 0.931 . S
H103 C83 0.930 . S
H104 C91 0.931 . S
H105 C92 0.929 . S
H106 C100 0.929 . S
H107 C101 0.930 . S
Mn108 O113 2.095 1_655 S
Mn108 O123 2.162 . S
Mn108 O124 2.297 1_554 S
Mn108 O132 2.385 1_554 S
Mn108 O133 2.209 1_654 S
Mn108 O134 2.094 . S
Mn109 O114 2.121 . S
Mn109 N116 2.257 1_554 S
Mn109 N125 2.282 . S
Mn109 O133 2.215 1_554 S
Mn109 O135 2.117 . S
C110 O132 1.234 1_455 S
C110 O133 1.283 . S
C111 O123 1.281 1_556 S
C111 O124 1.236 . S
C112 O134 1.240 . S
C112 O135 1.264 1_655 S
O113 Mn108 2.095 1_455 S
O113 C122 1.250 . S
O114 Mn109 2.121 . S
O114 C122 1.258 . S
C115 N116 1.326 . S
C115 C119 1.460 . S
C115 H121 0.929 . S
N116 Mn109 2.257 1_556 S
N116 C115 1.326 . S
N116 C120 1.362 . S
C117 C118 1.258 . S
C117 C120 1.431 . S
C117 C137 1.449 . S
C118 C117 1.258 . S
C118 C119 1.477 . S
C118 H138 0.931 . S
C119 C115 1.460 . S
C119 C118 1.477 . S
C119 H139 0.930 . S
C120 N116 1.362 . S
C120 C117 1.431 . S
C120 C130 1.476 . S
H121 C115 0.929 . S
C122 O113 1.250 . S
C122 O114 1.258 . S
O123 Mn108 2.162 . S
O123 C111 1.281 1_554 S
O124 Mn108 2.297 1_556 S
O124 C111 1.236 . S
N125 Mn109 2.282 . S
N125 C126 1.328 . S
N125 C130 1.318 1_554 S
C126 N125 1.328 . S
C126 C127 1.438 1_554 S
C126 H131 0.929 . S
C127 C126 1.438 1_556 S
C127 C128 1.318 . S
C127 H140 0.924 1_556 S
C128 C127 1.318 . S
C128 C129 1.373 . S
C128 H141 0.929 . S
C129 C128 1.373 . S
C129 C130 1.396 . S
C129 C136 1.403 . S
C130 C120 1.476 . S
C130 N125 1.318 1_556 S
C130 C129 1.396 . S
H131 C126 0.929 . S
O132 Mn108 2.385 1_556 S
O132 C110 1.234 1_655 S
O133 Mn108 2.209 1_456 S
O133 Mn109 2.215 1_556 S
O133 C110 1.283 . S
O134 Mn108 2.094 . S
O134 C112 1.240 . S
O135 Mn109 2.117 . S
O135 C112 1.264 1_455 S
C136 C129 1.403 . S
C136 C137 1.399 . S
C136 H142 0.929 . S
C137 C117 1.449 . S
C137 C136 1.399 . S
C137 H143 0.930 . S
H138 C118 0.931 . S
H139 C119 0.930 . S
H140 C127 0.924 1_554 S
H141 C128 0.929 . S
H142 C136 0.929 . S
H143 C137 0.930 . S
Mn144 O149 2.095 1_554 S
Mn144 O159 2.162 . S
Mn144 O160 2.297 . S
Mn144 O168 2.385 . S
Mn144 O169 2.209 . S
Mn144 O170 2.094 1_554 S
Mn145 O150 2.126 . S
Mn145 N152 2.242 1_556 S
Mn145 N161 2.272 1_556 S
Mn145 O169 2.193 1_556 S
Mn145 O171 2.132 . S
C146 O168 1.234 . S
C146 O169 1.283 . S
C147 O159 1.281 . S
C147 O160 1.236 . S
C148 O170 1.240 . S
C148 O171 1.264 . S
O149 Mn144 2.095 1_556 S
O149 C158 1.250 . S
O150 Mn145 2.126 . S
O150 C158 1.258 . S
C151 N152 1.326 . S
C151 C155 1.460 . S
C151 H157 0.929 . S
N152 Mn145 2.242 1_554 S
N152 C151 1.326 . S
N152 C156 1.362 . S
C153 C154 1.258 . S
C153 C156 1.431 . S
C153 C173 1.449 . S
C154 C153 1.258 . S
C154 C155 1.477 . S
C154 H174 0.931 . S
C155 C151 1.460 . S
C155 C154 1.477 . S
C155 H175 0.930 . S
C156 N152 1.362 . S
C156 C153 1.431 . S
C156 C166 1.476 . S
H157 C151 0.929 . S
C158 O149 1.250 . S
C158 O150 1.258 . S
O159 Mn144 2.162 . S
O159 C147 1.281 . S
O160 Mn144 2.297 . S
O160 C147 1.236 . S
N161 Mn145 2.272 1_554 S
N161 C162 1.328 . S
N161 C166 1.318 . S
C162 N161 1.328 . S
C162 C163 1.457 . S
C162 H167 0.929 . S
C163 C162 1.457 . S
C163 C164 1.291 . S
C163 H176 0.931 . S
C164 C163 1.291 . S
C164 C165 1.373 . S
C164 H177 0.929 . S
C165 C164 1.373 . S
C165 C166 1.396 . S
C165 C172 1.403 . S
C166 C156 1.476 . S
C166 N161 1.318 . S
C166 C165 1.396 . S
H167 C162 0.929 . S
O168 Mn144 2.385 . S
O168 C146 1.234 . S
O169 Mn144 2.209 . S
O169 Mn145 2.193 1_554 S
O169 C146 1.283 . S
O170 Mn144 2.094 1_556 S
O170 C148 1.240 . S
O171 Mn145 2.132 . S
O171 C148 1.264 . S
C172 C165 1.403 . S
C172 C173 1.399 . S
C172 H178 0.929 . S
C173 C153 1.449 . S
C173 C172 1.399 . S
C173 H179 0.930 . S
H174 C154 0.931 . S
H175 C155 0.930 . S
H176 C163 0.931 . S
H177 C164 0.929 . S
H178 C172 0.929 . S
H179 C173 0.930 . S
Mn180 O185 2.095 1_545 S
Mn180 O195 2.162 . S
Mn180 O196 2.297 1_554 S
Mn180 O204 2.385 1_554 S
Mn180 O205 2.209 1_544 S
Mn180 O206 2.094 . S
Mn181 O186 2.121 . S
Mn181 N188 2.257 1_554 S
Mn181 N197 2.282 . S
Mn181 O205 2.215 1_554 S
Mn181 O207 2.117 . S
C182 O204 1.194 1_565 S
C182 O205 1.322 . S
C183 O195 1.281 1_556 S
C183 O196 1.236 . S
C184 O206 1.240 . S
C184 O207 1.264 1_545 S
O185 Mn180 2.095 1_565 S
O185 C194 1.250 . S
O186 Mn181 2.121 . S
O186 C194 1.258 . S
C187 N188 1.326 . S
C187 C191 1.460 . S
C187 H193 0.931 1_556 S
N188 Mn181 2.257 1_556 S
N188 C187 1.326 . S
N188 C192 1.362 . S
C189 C190 1.258 . S
C189 C192 1.431 . S
C189 C209 1.449 . S
C190 C189 1.258 . S
C190 C191 1.477 . S
C190 H210 0.931 . S
C191 C187 1.460 . S
C191 C190 1.477 . S
C191 H211 0.930 . S
C192 N188 1.362 . S
C192 C189 1.431 . S
C192 C202 1.476 . S
H193 C187 0.931 1_554 S
C194 O185 1.250 . S
C194 O186 1.258 . S
O195 Mn180 2.162 . S
O195 C183 1.281 1_554 S
O196 Mn180 2.297 1_556 S
O196 C183 1.236 . S
N197 Mn181 2.282 . S
N197 C198 1.328 . S
N197 C202 1.318 1_554 S
C198 N197 1.328 . S
C198 C199 1.458 1_554 S
C198 H203 0.929 . S
C199 C198 1.458 1_556 S
C199 C200 1.290 . S
C199 H212 0.931 1_556 S
C200 C199 1.290 . S
C200 C201 1.373 . S
C200 H213 0.929 . S
C201 C200 1.373 . S
C201 C202 1.396 . S
C201 C208 1.403 . S
C202 C192 1.476 . S
C202 N197 1.318 1_556 S
C202 C201 1.396 . S
H203 C198 0.929 . S
O204 Mn180 2.385 1_556 S
O204 C182 1.194 1_545 S
O205 Mn180 2.209 1_566 S
O205 Mn181 2.215 1_556 S
O205 C182 1.322 . S
O206 Mn180 2.094 . S
O206 C184 1.240 . S
O207 Mn181 2.117 . S
O207 C184 1.264 1_565 S
C208 C201 1.403 . S
C208 C209 1.399 . S
C208 H214 0.929 . S
C209 C189 1.449 . S
C209 C208 1.399 . S
C209 H215 0.930 . S
H210 C190 0.931 . S
H211 C191 0.930 . S
H212 C199 0.931 1_554 S
H213 C200 0.929 . S
H214 C208 0.929 . S
H215 C209 0.930 . S
Mn216 O221 2.095 . S
Mn216 O231 2.162 . S
Mn216 O232 2.297 . S
Mn216 O240 2.385 . S
Mn216 O241 2.209 . S
Mn216 O242 2.094 . S
Mn217 O222 2.121 . S
Mn217 N224 2.257 . S
Mn217 N233 2.282 . S
Mn217 O241 2.215 . S
Mn217 O243 2.117 . S
C218 O240 1.234 . S
C218 O241 1.283 . S
C219 O231 1.281 . S
C219 O232 1.236 . S
C220 O242 1.240 . S
C220 O243 1.264 . S
O221 Mn216 2.095 . S
O221 C230 1.250 . S
O222 Mn217 2.121 . S
O222 C230 1.258 . S
C223 N224 1.326 . S
C223 C227 1.460 . S
C223 H229 0.929 . S
N224 Mn217 2.257 . S
N224 C223 1.326 . S
N224 C228 1.362 . S
C225 C226 1.258 . S
C225 C228 1.431 . S
C225 C245 1.449 . S
C226 C225 1.258 . S
C226 C227 1.477 . S
C226 H246 0.931 . S
C227 C223 1.460 . S
C227 C226 1.477 . S
C227 H247 0.930 . S
C228 N224 1.362 . S
C228 C225 1.431 . S
C228 C238 1.476 . S
H229 C223 0.929 . S
C230 O221 1.250 . S
C230 O222 1.258 . S
O231 Mn216 2.162 . S
O231 C219 1.281 . S
O232 Mn216 2.297 . S
O232 C219 1.236 . S
N233 Mn217 2.282 . S
N233 C234 1.328 . S
N233 C238 1.318 . S
C234 N233 1.328 . S
C234 C235 1.457 . S
C234 H239 0.929 . S
C235 C234 1.457 . S
C235 C236 1.291 . S
C235 H248 0.931 . S
C236 C235 1.291 . S
C236 C237 1.373 . S
C236 H249 0.929 . S
C237 C236 1.373 . S
C237 C238 1.396 . S
C237 C244 1.403 . S
C238 C228 1.476 . S
C238 N233 1.318 . S
C238 C237 1.396 . S
H239 C234 0.929 . S
O240 Mn216 2.385 . S
O240 C218 1.234 . S
O241 Mn216 2.209 . S
O241 Mn217 2.215 . S
O241 C218 1.283 . S
O242 Mn216 2.094 . S
O242 C220 1.240 . S
O243 Mn217 2.117 . S
O243 C220 1.264 . S
C244 C237 1.403 . S
C244 C245 1.399 . S
C244 H250 0.929 . S
C245 C225 1.449 . S
C245 C244 1.399 . S
C245 H251 0.930 . S
H246 C226 0.931 . S
H247 C227 0.930 . S
H248 C235 0.931 . S
H249 C236 0.929 . S
H250 C244 0.929 . S
H251 C245 0.930 . S
Mn252 O257 2.095 . S
Mn252 O267 2.162 1_565 S
Mn252 O268 2.297 1_565 S
Mn252 O276 2.385 . S
Mn252 O277 2.209 . S
Mn252 O278 2.094 . S
Mn253 O258 2.121 . S
Mn253 N260 2.257 . S
Mn253 N269 2.282 . S
Mn253 O277 2.215 . S
Mn253 O279 2.117 . S
C254 O276 1.234 . S
C254 O277 1.283 . S
C255 O267 1.281 . S
C255 O268 1.236 . S
C256 O278 1.240 . S
C256 O279 1.264 . S
O257 Mn252 2.095 . S
O257 C266 1.250 . S
O258 Mn253 2.121 . S
O258 C266 1.258 . S
C259 N260 1.326 . S
C259 C263 1.460 . S
C259 H265 0.929 . S
N260 Mn253 2.257 . S
N260 C259 1.326 . S
N260 C264 1.362 . S
C261 C262 1.258 . S
C261 C264 1.431 . S
C261 C281 1.449 . S
C262 C261 1.258 . S
C262 C263 1.477 . S
C262 H282 0.931 . S
C263 C259 1.460 . S
C263 C262 1.477 . S
C263 H283 0.930 . S
C264 N260 1.362 . S
C264 C261 1.431 . S
C264 C274 1.476 . S
H265 C259 0.929 . S
C266 O257 1.250 . S
C266 O258 1.258 . S
O267 Mn252 2.162 1_545 S
O267 C255 1.281 . S
O268 Mn252 2.297 1_545 S
O268 C255 1.236 . S
N269 Mn253 2.282 . S
N269 C270 1.328 . S
N269 C274 1.318 . S
C270 N269 1.328 . S
C270 C271 1.457 . S
C270 H275 0.929 . S
C271 C270 1.457 . S
C271 C272 1.291 . S
C271 H284 0.931 . S
C272 C271 1.291 . S
C272 C273 1.373 . S
C272 H285 0.929 . S
C273 C272 1.373 . S
C273 C274 1.396 . S
C273 C280 1.403 . S
C274 C264 1.476 . S
C274 N269 1.318 . S
C274 C273 1.396 . S
H275 C270 0.929 . S
O276 Mn252 2.385 . S
O276 C254 1.234 . S
O277 Mn252 2.209 . S
O277 Mn253 2.215 . S
O277 C254 1.283 . S
O278 Mn252 2.094 . S
O278 C256 1.240 . S
O279 Mn253 2.117 . S
O279 C256 1.264 . S
C280 C273 1.403 . S
C280 C281 1.399 . S
C280 H286 0.929 . S
C281 C261 1.449 . S
C281 C280 1.399 . S
C281 H287 0.930 . S
H282 C262 0.931 . S
H283 C263 0.930 . S
H284 C271 0.931 . S
H285 C272 0.929 . S
H286 C280 0.929 . S
H287 C281 0.930 . S
Mn288 O293 2.095 . S
Mn288 O303 2.162 1_455 S
Mn288 O304 2.297 1_455 S
Mn288 O312 2.385 . S
Mn288 O313 2.209 . S
Mn288 O314 2.094 . S
Mn289 O294 2.121 . S
Mn289 N296 2.257 . S
Mn289 N305 2.282 . S
Mn289 O313 2.215 . S
Mn289 O315 2.117 . S
C290 O312 1.234 . S
C290 O313 1.283 . S
C291 O303 1.281 . S
C291 O304 1.236 . S
C292 O314 1.240 . S
C292 O315 1.264 . S
O293 Mn288 2.095 . S
O293 C302 1.250 . S
O294 Mn289 2.121 . S
O294 C302 1.258 . S
C295 N296 1.326 . S
C295 C299 1.460 . S
C295 H301 0.929 . S
N296 Mn289 2.257 . S
N296 C295 1.326 . S
N296 C300 1.362 . S
C297 C298 1.258 . S
C297 C300 1.431 . S
C297 C317 1.449 . S
C298 C297 1.258 . S
C298 C299 1.477 . S
C298 H318 0.931 . S
C299 C295 1.460 . S
C299 C298 1.477 . S
C299 H319 0.930 . S
C300 N296 1.362 . S
C300 C297 1.431 . S
C300 C310 1.476 . S
H301 C295 0.929 . S
C302 O293 1.250 . S
C302 O294 1.258 . S
O303 Mn288 2.162 1_655 S
O303 C291 1.281 . S
O304 Mn288 2.297 1_655 S
O304 C291 1.236 . S
N305 Mn289 2.282 . S
N305 C306 1.328 . S
N305 C310 1.318 . S
C306 N305 1.328 . S
C306 C307 1.457 . S
C306 H311 0.929 . S
C307 C306 1.457 . S
C307 C308 1.291 . S
C307 H320 0.931 . S
C308 C307 1.291 . S
C308 C309 1.373 . S
C308 H321 0.929 . S
C309 C308 1.373 . S
C309 C310 1.396 . S
C309 C316 1.403 . S
C310 C300 1.476 . S
C310 N305 1.318 . S
C310 C309 1.396 . S
H311 C306 0.929 . S
O312 Mn288 2.385 . S
O312 C290 1.234 . S
O313 Mn288 2.209 . S
O313 Mn289 2.215 . S
O313 C290 1.283 . S
O314 Mn288 2.094 . S
O314 C292 1.240 . S
O315 Mn289 2.117 . S
O315 C292 1.264 . S
C316 C309 1.403 . S
C316 C317 1.399 . S
C316 H322 0.929 . S
C317 C297 1.449 . S
C317 C316 1.399 . S
C317 H323 0.930 . S
H318 C298 0.931 . S
H319 C299 0.930 . S
H320 C307 0.931 . S
H321 C308 0.929 . S
H322 C316 0.929 . S
H323 C317 0.930 . S
Mn324 O329 2.095 . S
Mn324 O339 2.162 . S
Mn324 O340 2.297 . S
Mn324 O348 2.385 . S
Mn324 O349 2.209 . S
Mn324 O350 2.094 . S
Mn325 O330 2.121 1_565 S
Mn325 N332 2.257 . S
Mn325 N341 2.282 . S
Mn325 O349 2.215 . S
Mn325 O351 2.117 . S
C326 O348 1.234 . S
C326 O349 1.283 . S
C327 O339 1.281 . S
C327 O340 1.236 . S
C328 O350 1.240 . S
C328 O351 1.264 . S
O329 Mn324 2.095 . S
O329 C338 1.250 1_565 S
O330 Mn325 2.121 1_545 S
O330 C338 1.258 . S
C331 N332 1.326 1_545 S
C331 C335 1.460 . S
C331 H337 0.929 . S
N332 Mn325 2.257 . S
N332 C331 1.326 1_565 S
N332 C336 1.362 . S
C333 C334 1.258 . S
C333 C336 1.431 . S
C333 C353 1.449 . S
C334 C333 1.258 . S
C334 C335 1.477 1_565 S
C334 H354 0.927 . S
C335 C331 1.460 . S
C335 C334 1.477 1_545 S
C335 H355 0.930 . S
C336 N332 1.362 . S
C336 C333 1.431 . S
C336 C346 1.476 . S
H337 C331 0.929 . S
C338 O329 1.250 1_545 S
C338 O330 1.258 . S
O339 Mn324 2.162 . S
O339 C327 1.281 . S
O340 Mn324 2.297 . S
O340 C327 1.236 . S
N341 Mn325 2.282 . S
N341 C342 1.328 . S
N341 C346 1.318 . S
C342 N341 1.328 . S
C342 C343 1.457 . S
C342 H347 0.929 . S
C343 C342 1.457 . S
C343 C344 1.291 . S
C343 H356 0.931 . S
C344 C343 1.291 . S
C344 C345 1.373 . S
C344 H357 0.929 . S
C345 C344 1.373 . S
C345 C346 1.396 . S
C345 C352 1.403 . S
C346 C336 1.476 . S
C346 N341 1.318 . S
C346 C345 1.396 . S
H347 C342 0.929 . S
O348 Mn324 2.385 . S
O348 C326 1.234 . S
O349 Mn324 2.209 . S
O349 Mn325 2.215 . S
O349 C326 1.283 . S
O350 Mn324 2.094 . S
O350 C328 1.240 . S
O351 Mn325 2.117 . S
O351 C328 1.264 . S
C352 C345 1.403 . S
C352 C353 1.399 . S
C352 H358 0.929 . S
C353 C333 1.449 . S
C353 C352 1.399 . S
C353 H359 0.930 . S
H354 C334 0.927 . S
H355 C335 0.930 . S
H356 C343 0.931 . S
H357 C344 0.929 . S
H358 C352 0.929 . S
H359 C353 0.930 . S
Mn360 O365 2.095 . S
Mn360 O375 2.162 1_455 S
Mn360 O376 2.299 . S
Mn360 O384 2.385 . S
Mn360 O385 2.209 . S
Mn360 O386 2.094 . S
Mn361 O366 2.121 . S
Mn361 N368 2.257 . S
Mn361 N377 2.282 . S
Mn361 O385 2.215 . S
Mn361 O387 2.117 . S
C362 O384 1.234 . S
C362 O385 1.283 . S
C363 O375 1.281 . S
C363 O376 1.230 1_655 S
C364 O386 1.240 . S
C364 O387 1.264 . S
O365 Mn360 2.095 . S
O365 C374 1.250 . S
O366 Mn361 2.121 . S
O366 C374 1.258 . S
C367 N368 1.326 . S
C367 C371 1.460 . S
C367 H373 0.929 . S
N368 Mn361 2.257 . S
N368 C367 1.326 . S
N368 C372 1.362 . S
C369 C370 1.258 . S
C369 C372 1.431 . S
C369 C389 1.449 . S
C370 C369 1.258 . S
C370 C371 1.477 . S
C370 H390 0.931 . S
C371 C367 1.460 . S
C371 C370 1.477 . S
C371 H391 0.930 . S
C372 N368 1.362 . S
C372 C369 1.431 . S
C372 C382 1.476 . S
H373 C367 0.929 . S
C374 O365 1.250 . S
C374 O366 1.258 . S
O375 Mn360 2.162 1_655 S
O375 C363 1.281 . S
O376 Mn360 2.299 . S
O376 C363 1.230 1_455 S
N377 Mn361 2.282 . S
N377 C378 1.328 . S
N377 C382 1.318 . S
C378 N377 1.328 . S
C378 C379 1.457 . S
C378 H383 0.929 . S
C379 C378 1.457 . S
C379 C380 1.291 . S
C379 H392 0.931 . S
C380 C379 1.291 . S
C380 C381 1.373 . S
C380 H393 0.929 . S
C381 C380 1.373 . S
C381 C382 1.396 . S
C381 C388 1.403 . S
C382 C372 1.476 . S
C382 N377 1.318 . S
C382 C381 1.396 . S
H383 C378 0.929 . S
O384 Mn360 2.385 . S
O384 C362 1.234 . S
O385 Mn360 2.209 . S
O385 Mn361 2.215 . S
O385 C362 1.283 . S
O386 Mn360 2.094 . S
O386 C364 1.240 . S
O387 Mn361 2.117 . S
O387 C364 1.264 . S
C388 C381 1.403 . S
C388 C389 1.399 . S
C388 H394 0.929 . S
C389 C369 1.449 . S
C389 C388 1.399 . S
C389 H395 0.930 . S
H390 C370 0.931 . S
H391 C371 0.930 . S
H392 C379 0.931 . S
H393 C380 0.929 . S
H394 C388 0.929 . S
H395 C389 0.930 . S
Mn396 O401 2.095 . S
Mn396 O411 2.162 . S
Mn396 O412 2.297 . S
Mn396 O420 2.385 . S
Mn396 O421 2.209 . S
Mn396 O422 2.094 . S
Mn397 O402 2.121 . S
Mn397 N404 2.257 . S
Mn397 N413 2.282 . S
Mn397 O421 2.215 . S
Mn397 O423 2.117 . S
C398 O420 1.234 . S
C398 O421 1.283 . S
C399 O411 1.281 . S
C399 O412 1.236 . S
C400 O422 1.240 . S
C400 O423 1.264 . S
O401 Mn396 2.095 . S
O401 C410 1.250 . S
O402 Mn397 2.121 . S
O402 C410 1.258 . S
C403 N404 1.326 . S
C403 C407 1.460 . S
C403 H409 0.929 . S
N404 Mn397 2.257 . S
N404 C403 1.326 . S
N404 C408 1.362 . S
C405 C406 1.258 . S
C405 C408 1.431 . S
C405 C425 1.449 . S
C406 C405 1.258 . S
C406 C407 1.477 . S
C406 H426 0.931 . S
C407 C403 1.460 . S
C407 C406 1.477 . S
C407 H427 0.930 . S
C408 N404 1.362 . S
C408 C405 1.431 . S
C408 C418 1.476 . S
H409 C403 0.929 . S
C410 O401 1.250 . S
C410 O402 1.258 . S
O411 Mn396 2.162 . S
O411 C399 1.281 . S
O412 Mn396 2.297 . S
O412 C399 1.236 . S
N413 Mn397 2.282 . S
N413 C414 1.328 . S
N413 C418 1.318 . S
C414 N413 1.328 . S
C414 C415 1.457 . S
C414 H419 0.929 . S
C415 C414 1.457 . S
C415 C416 1.291 . S
C415 H428 0.931 . S
C416 C415 1.291 . S
C416 C417 1.373 . S
C416 H429 0.929 . S
C417 C416 1.373 . S
C417 C418 1.396 . S
C417 C424 1.403 . S
C418 C408 1.476 . S
C418 N413 1.318 . S
C418 C417 1.396 . S
H419 C414 0.929 . S
O420 Mn396 2.385 . S
O420 C398 1.234 . S
O421 Mn396 2.209 . S
O421 Mn397 2.215 . S
O421 C398 1.283 . S
O422 Mn396 2.094 . S
O422 C400 1.240 . S
O423 Mn397 2.117 . S
O423 C400 1.264 . S
C424 C417 1.403 . S
C424 C425 1.399 . S
C424 H430 0.929 . S
C425 C405 1.449 . S
C425 C424 1.399 . S
C425 H431 0.930 . S
H426 C406 0.931 . S
H427 C407 0.930 . S
H428 C415 0.931 . S
H429 C416 0.929 . S
H430 C424 0.929 . S
H431 C425 0.930 . S
Mn432 O437 2.095 . S
Mn432 O447 2.162 1_545 S
Mn432 O448 2.293 . S
Mn432 O456 2.385 . S
Mn432 O457 2.209 . S
Mn432 O458 2.094 . S
Mn433 O438 2.121 . S
Mn433 N440 2.257 . S
Mn433 N449 2.282 . S
Mn433 O457 2.215 . S
Mn433 O459 2.117 . S
C434 O456 1.234 . S
C434 O457 1.283 . S
C435 O447 1.281 . S
C435 O448 1.237 1_565 S
C436 O458 1.240 . S
C436 O459 1.264 . S
O437 Mn432 2.095 . S
O437 C446 1.250 . S
O438 Mn433 2.121 . S
O438 C446 1.258 . S
C439 N440 1.326 . S
C439 C443 1.460 . S
C439 H445 0.929 . S
N440 Mn433 2.257 . S
N440 C439 1.326 . S
N440 C444 1.362 . S
C441 C442 1.258 . S
C441 C444 1.431 . S
C441 C461 1.449 . S
C442 C441 1.258 . S
C442 C443 1.477 . S
C442 H462 0.931 . S
C443 C439 1.460 . S
C443 C442 1.477 . S
C443 H463 0.930 . S
C444 N440 1.362 . S
C444 C441 1.431 . S
C444 C454 1.476 . S
H445 C439 0.929 . S
C446 O437 1.250 . S
C446 O438 1.258 . S
O447 Mn432 2.162 1_565 S
O447 C435 1.281 . S
O448 Mn432 2.293 . S
O448 C435 1.237 1_545 S
N449 Mn433 2.282 . S
N449 C450 1.328 . S
N449 C454 1.318 . S
C450 N449 1.328 . S
C450 C451 1.457 . S
C450 H455 0.929 . S
C451 C450 1.457 . S
C451 C452 1.291 . S
C451 H464 0.931 . S
C452 C451 1.291 . S
C452 C453 1.373 . S
C452 H465 0.929 . S
C453 C452 1.373 . S
C453 C454 1.396 . S
C453 C460 1.403 . S
C454 C444 1.476 . S
C454 N449 1.318 . S
C454 C453 1.396 . S
H455 C450 0.929 . S
O456 Mn432 2.385 . S
O456 C434 1.234 . S
O457 Mn432 2.209 . S
O457 Mn433 2.215 . S
O457 C434 1.283 . S
O458 Mn432 2.094 . S
O458 C436 1.240 . S
O459 Mn433 2.117 . S
O459 C436 1.264 . S
C460 C453 1.403 . S
C460 C461 1.399 . S
C460 H466 0.929 . S
C461 C441 1.449 . S
C461 C460 1.399 . S
C461 H467 0.930 . S
H462 C442 0.931 . S
H463 C443 0.930 . S
H464 C451 0.931 . S
H465 C452 0.929 . S
H466 C460 0.929 . S
H467 C461 0.930 . S
Mn468 O473 2.095 . S
Mn468 O483 2.162 . S
Mn468 O484 2.297 . S
Mn468 O492 2.385 . S
Mn468 O493 2.209 . S
Mn468 O494 2.094 . S
Mn469 O474 2.087 1_655 S
Mn469 N476 2.257 . S
Mn469 N485 2.282 . S
Mn469 O493 2.215 . S
Mn469 O495 2.117 . S
C470 O492 1.234 . S
C470 O493 1.283 . S
C471 O483 1.281 . S
C471 O484 1.236 . S
C472 O494 1.240 . S
C472 O495 1.264 . S
O473 Mn468 2.095 . S
O473 C482 1.250 1_655 S
O474 Mn469 2.087 1_455 S
O474 C482 1.242 . S
C475 N476 1.326 1_455 S
C475 C479 1.460 . S
C475 H481 0.929 . S
N476 Mn469 2.257 . S
N476 C475 1.326 1_655 S
N476 C480 1.362 . S
C477 C478 1.258 . S
C477 C480 1.431 . S
C477 C497 1.449 . S
C478 C477 1.258 . S
C478 C479 1.477 1_655 S
C478 H498 0.941 . S
C479 C475 1.460 . S
C479 C478 1.477 1_455 S
C479 H499 0.930 . S
C480 N476 1.362 . S
C480 C477 1.431 . S
C480 C490 1.476 . S
H481 C475 0.929 . S
C482 O473 1.250 1_455 S
C482 O474 1.242 . S
O483 Mn468 2.162 . S
O483 C471 1.281 . S
O484 Mn468 2.297 . S
O484 C471 1.236 . S
N485 Mn469 2.282 . S
N485 C486 1.328 . S
N485 C490 1.318 . S
C486 N485 1.328 . S
C486 C487 1.457 . S
C486 H491 0.929 . S
C487 C486 1.457 . S
C487 C488 1.291 . S
C487 H500 0.931 . S
C488 C487 1.291 . S
C488 C489 1.373 . S
C488 H501 0.929 . S
C489 C488 1.373 . S
C489 C490 1.396 . S
C489 C496 1.403 . S
C490 C480 1.476 . S
C490 N485 1.318 . S
C490 C489 1.396 . S
H491 C486 0.929 . S
O492 Mn468 2.385 . S
O492 C470 1.234 . S
O493 Mn468 2.209 . S
O493 Mn469 2.215 . S
O493 C470 1.283 . S
O494 Mn468 2.094 . S
O494 C472 1.240 . S
O495 Mn469 2.117 . S
O495 C472 1.264 . S
C496 C489 1.403 . S
C496 C497 1.399 . S
C496 H502 0.929 . S
C497 C477 1.449 . S
C497 C496 1.399 . S
C497 H503 0.930 . S
H498 C478 0.941 . S
H499 C479 0.930 . S
H500 C487 0.931 . S
H501 C488 0.929 . S
H502 C496 0.929 . S
H503 C497 0.930 . S
Mn504 O509 2.095 . S
Mn504 O519 2.162 . S
Mn504 O520 2.297 . S
Mn504 O528 2.385 . S
Mn504 O529 2.209 . S
Mn504 O530 2.094 . S
Mn505 O510 2.121 . S
Mn505 N512 2.257 . S
Mn505 N521 2.282 . S
Mn505 O529 2.215 . S
Mn505 O531 2.117 . S
C506 O528 1.234 . S
C506 O529 1.283 . S
C507 O519 1.281 . S
C507 O520 1.236 . S
C508 O530 1.240 . S
C508 O531 1.264 . S
O509 Mn504 2.095 . S
O509 C518 1.250 . S
O510 Mn505 2.121 . S
O510 C518 1.258 . S
C511 N512 1.326 . S
C511 C515 1.460 . S
C511 H517 0.929 . S
N512 Mn505 2.257 . S
N512 C511 1.326 . S
N512 C516 1.362 . S
C513 C514 1.258 . S
C513 C516 1.431 . S
C513 C533 1.449 . S
C514 C513 1.258 . S
C514 C515 1.477 . S
C514 H534 0.931 . S
C515 C511 1.460 . S
C515 C514 1.477 . S
C515 H535 0.930 . S
C516 N512 1.362 . S
C516 C513 1.431 . S
C516 C526 1.476 . S
H517 C511 0.929 . S
C518 O509 1.250 . S
C518 O510 1.258 . S
O519 Mn504 2.162 . S
O519 C507 1.281 . S
O520 Mn504 2.297 . S
O520 C507 1.236 . S
N521 Mn505 2.282 . S
N521 C522 1.328 . S
N521 C526 1.318 . S
C522 N521 1.328 . S
C522 C523 1.457 . S
C522 H527 0.929 . S
C523 C522 1.457 . S
C523 C524 1.291 . S
C523 H536 0.931 . S
C524 C523 1.291 . S
C524 C525 1.373 . S
C524 H537 0.929 . S
C525 C524 1.373 . S
C525 C526 1.396 . S
C525 C532 1.403 . S
C526 C516 1.476 . S
C526 N521 1.318 . S
C526 C525 1.396 . S
H527 C522 0.929 . S
O528 Mn504 2.385 . S
O528 C506 1.234 . S
O529 Mn504 2.209 . S
O529 Mn505 2.215 . S
O529 C506 1.283 . S
O530 Mn504 2.094 . S
O530 C508 1.240 . S
O531 Mn505 2.117 . S
O531 C508 1.264 . S
C532 C525 1.403 . S
C532 C533 1.399 . S
C532 H538 0.929 . S
C533 C513 1.449 . S
C533 C532 1.399 . S
C533 H539 0.930 . S
H534 C514 0.931 . S
H535 C515 0.930 . S
H536 C523 0.931 . S
H537 C524 0.929 . S
H538 C532 0.929 . S
H539 C533 0.930 . S
Mn540 O545 2.095 . S
Mn540 O555 2.162 . S
Mn540 O556 2.297 . S
Mn540 O564 2.385 . S
Mn540 O565 2.209 . S
Mn540 O566 2.094 . S
Mn541 O546 2.121 . S
Mn541 N548 2.257 . S
Mn541 N557 2.282 . S
Mn541 O565 2.215 . S
Mn541 O567 2.117 . S
C542 O564 1.234 . S
C542 O565 1.283 . S
C543 O555 1.281 . S
C543 O556 1.236 . S
C544 O566 1.240 . S
C544 O567 1.264 . S
O545 Mn540 2.095 . S
O545 C554 1.250 . S
O546 Mn541 2.121 . S
O546 C554 1.258 . S
C547 N548 1.326 . S
C547 C551 1.460 . S
C547 H553 0.929 . S
N548 Mn541 2.257 . S
N548 C547 1.326 . S
N548 C552 1.362 . S
C549 C550 1.258 . S
C549 C552 1.431 . S
C549 C569 1.449 . S
C550 C549 1.258 . S
C550 C551 1.477 . S
C550 H570 0.931 . S
C551 C547 1.460 . S
C551 C550 1.477 . S
C551 H571 0.930 . S
C552 N548 1.362 . S
C552 C549 1.431 . S
C552 C562 1.476 . S
H553 C547 0.929 . S
C554 O545 1.250 . S
C554 O546 1.258 . S
O555 Mn540 2.162 . S
O555 C543 1.281 . S
O556 Mn540 2.297 . S
O556 C543 1.236 . S
N557 Mn541 2.282 . S
N557 C558 1.328 . S
N557 C562 1.318 . S
C558 N557 1.328 . S
C558 C559 1.457 . S
C558 H563 0.929 . S
C559 C558 1.457 . S
C559 C560 1.291 . S
C559 H572 0.931 . S
C560 C559 1.291 . S
C560 C561 1.373 . S
C560 H573 0.929 . S
C561 C560 1.373 . S
C561 C562 1.396 . S
C561 C568 1.403 . S
C562 C552 1.476 . S
C562 N557 1.318 . S
C562 C561 1.396 . S
H563 C558 0.929 . S
O564 Mn540 2.385 . S
O564 C542 1.234 . S
O565 Mn540 2.209 . S
O565 Mn541 2.215 . S
O565 C542 1.283 . S
O566 Mn540 2.094 . S
O566 C544 1.240 . S
O567 Mn541 2.117 . S
O567 C544 1.264 . S
C568 C561 1.403 . S
C568 C569 1.399 . S
C568 H574 0.929 . S
C569 C549 1.449 . S
C569 C568 1.399 . S
C569 H575 0.930 . S
H570 C550 0.931 . S
H571 C551 0.930 . S
H572 C559 0.931 . S
H573 C560 0.929 . S
H574 C568 0.929 . S
H575 C569 0.930 . S
Mn576 O581 2.095 . S
Mn576 O591 2.162 . S
Mn576 O592 2.297 . S
Mn576 O600 2.385 . S
Mn576 O601 2.209 . S
Mn576 O602 2.094 . S
Mn577 O582 2.121 1_545 S
Mn577 N584 2.257 . S
Mn577 N593 2.282 . S
Mn577 O601 2.215 . S
Mn577 O603 2.117 . S
C578 O600 1.234 . S
C578 O601 1.283 . S
C579 O591 1.281 . S
C579 O592 1.236 . S
C580 O602 1.240 . S
C580 O603 1.264 . S
O581 Mn576 2.095 . S
O581 C590 1.250 1_545 S
O582 Mn577 2.121 1_565 S
O582 C590 1.258 . S
C583 N584 1.326 1_565 S
C583 C587 1.460 . S
C583 H589 0.929 . S
N584 Mn577 2.257 . S
N584 C583 1.326 1_545 S
N584 C588 1.362 . S
C585 C586 1.258 . S
C585 C588 1.431 . S
C585 C605 1.449 . S
C586 C585 1.258 . S
C586 C587 1.477 1_545 S
C586 H606 0.931 1_545 S
C587 C583 1.460 . S
C587 C586 1.477 1_565 S
C587 H607 0.930 . S
C588 N584 1.362 . S
C588 C585 1.431 . S
C588 C598 1.476 . S
H589 C583 0.929 . S
C590 O581 1.250 1_565 S
C590 O582 1.258 . S
O591 Mn576 2.162 . S
O591 C579 1.281 . S
O592 Mn576 2.297 . S
O592 C579 1.236 . S
N593 Mn577 2.282 . S
N593 C594 1.328 . S
N593 C598 1.318 . S
C594 N593 1.328 . S
C594 C595 1.457 . S
C594 H599 0.929 . S
C595 C594 1.457 . S
C595 C596 1.291 . S
C595 H608 0.931 . S
C596 C595 1.291 . S
C596 C597 1.373 . S
C596 H609 0.929 . S
C597 C596 1.373 . S
C597 C598 1.396 . S
C597 C604 1.403 . S
C598 C588 1.476 . S
C598 N593 1.318 . S
C598 C597 1.396 . S
H599 C594 0.929 . S
O600 Mn576 2.385 . S
O600 C578 1.234 . S
O601 Mn576 2.209 . S
O601 Mn577 2.215 . S
O601 C578 1.283 . S
O602 Mn576 2.094 . S
O602 C580 1.240 . S
O603 Mn577 2.117 . S
O603 C580 1.264 . S
C604 C597 1.403 . S
C604 C605 1.399 . S
C604 H610 0.929 . S
C605 C585 1.449 . S
C605 C604 1.399 . S
C605 H611 0.930 . S
H606 C586 0.931 1_565 S
H607 C587 0.930 . S
H608 C595 0.931 . S
H609 C596 0.929 . S
H610 C604 0.929 . S
H611 C605 0.930 . S
Mn612 O617 2.095 . S
Mn612 O627 2.162 1_655 S
Mn612 O628 2.297 1_655 S
Mn612 O636 2.385 . S
Mn612 O637 2.209 . S
Mn612 O638 2.094 . S
Mn613 O618 2.121 . S
Mn613 N620 2.257 . S
Mn613 N629 2.282 . S
Mn613 O637 2.215 . S
Mn613 O639 2.117 . S
C614 O636 1.234 . S
C614 O637 1.283 . S
C615 O627 1.281 . S
C615 O628 1.236 . S
C616 O638 1.240 . S
C616 O639 1.264 . S
O617 Mn612 2.095 . S
O617 C626 1.250 . S
O618 Mn613 2.121 . S
O618 C626 1.258 . S
C619 N620 1.326 . S
C619 C623 1.460 . S
C619 H625 0.929 . S
N620 Mn613 2.257 . S
N620 C619 1.326 . S
N620 C624 1.362 . S
C621 C622 1.258 . S
C621 C624 1.431 . S
C621 C641 1.449 . S
C622 C621 1.258 . S
C622 C623 1.477 . S
C622 H642 0.931 . S
C623 C619 1.460 . S
C623 C622 1.477 . S
C623 H643 0.930 . S
C624 N620 1.362 . S
C624 C621 1.431 . S
C624 C634 1.476 . S
H625 C619 0.929 . S
C626 O617 1.250 . S
C626 O618 1.258 . S
O627 Mn612 2.162 1_455 S
O627 C615 1.281 . S
O628 Mn612 2.297 1_455 S
O628 C615 1.236 . S
N629 Mn613 2.282 . S
N629 C630 1.328 . S
N629 C634 1.318 . S
C630 N629 1.328 . S
C630 C631 1.457 . S
C630 H635 0.929 . S
C631 C630 1.457 . S
C631 C632 1.291 . S
C631 H644 0.931 . S
C632 C631 1.291 . S
C632 C633 1.373 . S
C632 H645 0.929 . S
C633 C632 1.373 . S
C633 C634 1.396 . S
C633 C640 1.403 . S
C634 C624 1.476 . S
C634 N629 1.318 . S
C634 C633 1.396 . S
H635 C630 0.929 . S
O636 Mn612 2.385 . S
O636 C614 1.234 . S
O637 Mn612 2.209 . S
O637 Mn613 2.215 . S
O637 C614 1.283 . S
O638 Mn612 2.094 . S
O638 C616 1.240 . S
O639 Mn613 2.117 . S
O639 C616 1.264 . S
C640 C633 1.403 . S
C640 C641 1.399 . S
C640 H646 0.929 . S
C641 C621 1.449 . S
C641 C640 1.399 . S
C641 H647 0.930 . S
H642 C622 0.931 . S
H643 C623 0.930 . S
H644 C631 0.931 . S
H645 C632 0.929 . S
H646 C640 0.929 . S
H647 C641 0.930 . S
C648 C649 1.384 . S
C648 C650 1.384 . S
C648 H676 0.931 . S
C649 C648 1.384 . S
C649 C652 1.382 . S
C650 C648 1.384 . S
C650 C651 1.381 . S
C650 H677 0.930 . S
C651 C650 1.381 . S
C651 C653 1.381 . S
C651 C654 1.487 . S
C652 C649 1.382 . S
C652 C653 1.387 . S
C652 H678 0.930 . S
C653 C651 1.381 . S
C653 C652 1.387 . S
C653 H679 0.931 . S
C654 C651 1.487 . S
C654 C661 1.399 . S
C654 N692 1.343 . S
C655 C656 1.384 . S
C655 C657 1.384 . S
C655 H680 0.931 . S
C656 C655 1.384 . S
C656 C659 1.382 . S
C657 C655 1.384 . S
C657 C658 1.381 . S
C657 H681 0.930 . S
C658 C657 1.381 . S
C658 C660 1.381 . S
C658 C661 1.487 . S
C659 C656 1.382 . S
C659 C660 1.387 . S
C659 H682 0.930 . S
C660 C658 1.381 . S
C660 C659 1.387 . S
C660 H683 0.931 . S
C661 C654 1.399 . S
C661 C658 1.487 . S
C661 N693 1.343 . S
C662 C663 1.384 . S
C662 C664 1.384 . S
C662 H684 0.931 . S
C663 C662 1.384 . S
C663 C666 1.382 . S
C664 C662 1.384 . S
C664 C665 1.381 . S
C664 H685 0.930 . S
C665 C664 1.381 . S
C665 C667 1.381 . S
C665 C668 1.487 . S
C666 C663 1.382 . S
C666 C667 1.387 . S
C666 H686 0.930 . S
C667 C665 1.381 . S
C667 C666 1.387 . S
C667 H687 0.931 . S
C668 C665 1.487 . S
C668 C675 1.399 . S
C668 N693 1.343 . S
C669 C670 1.384 . S
C669 C671 1.384 . S
C669 H688 0.931 . S
C670 C669 1.384 . S
C670 C673 1.382 . S
C671 C669 1.384 . S
C671 C672 1.381 . S
C671 H689 0.930 . S
C672 C671 1.381 . S
C672 C674 1.381 . S
C672 C675 1.487 . S
C673 C670 1.382 . S
C673 C674 1.387 . S
C673 H690 0.930 . S
C674 C672 1.381 . S
C674 C673 1.387 . S
C674 H691 0.931 . S
C675 C668 1.399 . S
C675 C672 1.487 . S
C675 N692 1.343 . S
H676 C648 0.931 . S
H677 C650 0.930 . S
H678 C652 0.930 . S
H679 C653 0.931 . S
H680 C655 0.931 . S
H681 C657 0.930 . S
H682 C659 0.930 . S
H683 C660 0.931 . S
H684 C662 0.931 . S
H685 C664 0.930 . S
H686 C666 0.930 . S
H687 C667 0.931 . S
H688 C669 0.931 . S
H689 C671 0.930 . S
H690 C673 0.930 . S
H691 C674 0.931 . S
N692 C654 1.343 . S
N692 C675 1.343 . S
N693 C661 1.343 . S
N693 C668 1.343 . S
C694 C695 1.384 . S
C694 C696 1.384 . S
C694 H722 0.931 . S
C695 C694 1.384 . S
C695 C698 1.382 . S
C696 C694 1.384 . S
C696 C697 1.381 . S
C696 H723 0.930 . S
C697 C696 1.381 . S
C697 C699 1.381 . S
C697 C700 1.487 . S
C698 C695 1.382 . S
C698 C699 1.387 . S
C698 H724 0.930 . S
C699 C697 1.381 . S
C699 C698 1.387 . S
C699 H725 0.931 . S
C700 C697 1.487 . S
C700 C707 1.399 . S
C700 N738 1.343 . S
C701 C702 1.384 . S
C701 C703 1.384 . S
C701 H726 0.931 . S
C702 C701 1.384 . S
C702 C705 1.382 . S
C703 C701 1.384 . S
C703 C704 1.381 . S
C703 H727 0.930 . S
C704 C703 1.381 . S
C704 C706 1.381 . S
C704 C707 1.487 . S
C705 C702 1.382 . S
C705 C706 1.387 . S
C705 H728 0.930 . S
C706 C704 1.381 . S
C706 C705 1.387 . S
C706 H729 0.931 . S
C707 C700 1.399 . S
C707 C704 1.487 . S
C707 N739 1.343 . S
C708 C709 1.384 . S
C708 C710 1.384 . S
C708 H730 0.931 . S
C709 C708 1.384 . S
C709 C712 1.382 . S
C710 C708 1.384 . S
C710 C711 1.381 . S
C710 H731 0.930 . S
C711 C710 1.381 . S
C711 C713 1.381 . S
C711 C714 1.487 . S
C712 C709 1.382 . S
C712 C713 1.387 . S
C712 H732 0.930 . S
C713 C711 1.381 . S
C713 C712 1.387 . S
C713 H733 0.931 . S
C714 C711 1.487 . S
C714 C721 1.399 . S
C714 N739 1.343 . S
C715 C716 1.384 . S
C715 C717 1.384 . S
C715 H734 0.931 . S
C716 C715 1.384 . S
C716 C719 1.382 . S
C717 C715 1.384 . S
C717 C718 1.381 . S
C717 H735 0.930 . S
C718 C717 1.381 . S
C718 C720 1.381 . S
C718 C721 1.487 . S
C719 C716 1.382 . S
C719 C720 1.387 . S
C719 H736 0.930 . S
C720 C718 1.381 . S
C720 C719 1.387 . S
C720 H737 0.931 . S
C721 C714 1.399 . S
C721 C718 1.487 . S
C721 N738 1.343 . S
H722 C694 0.931 . S
H723 C696 0.930 . S
H724 C698 0.930 . S
H725 C699 0.931 . S
H726 C701 0.931 . S
H727 C703 0.930 . S
H728 C705 0.930 . S
H729 C706 0.931 . S
H730 C708 0.931 . S
H731 C710 0.930 . S
H732 C712 0.930 . S
H733 C713 0.931 . S
H734 C715 0.931 . S
H735 C717 0.930 . S
H736 C719 0.930 . S
H737 C720 0.931 . S
N738 C700 1.343 . S
N738 C721 1.343 . S
N739 C707 1.343 . S
N739 C714 1.343 . S
C740 C741 1.384 . S
C740 C742 1.384 . S
C740 H768 0.931 . S
C741 C740 1.384 . S
C741 C744 1.382 . S
C742 C740 1.384 . S
C742 C743 1.381 . S
C742 H769 0.930 . S
C743 C742 1.381 . S
C743 C745 1.381 . S
C743 C746 1.487 . S
C744 C741 1.382 . S
C744 C745 1.387 . S
C744 H770 0.930 . S
C745 C743 1.381 . S
C745 C744 1.387 . S
C745 H771 0.931 . S
C746 C743 1.487 . S
C746 C753 1.399 . S
C746 N784 1.343 . S
C747 C748 1.384 . S
C747 C749 1.384 . S
C747 H772 0.931 . S
C748 C747 1.384 . S
C748 C751 1.382 . S
C749 C747 1.384 . S
C749 C750 1.381 . S
C749 H773 0.930 . S
C750 C749 1.381 . S
C750 C752 1.381 . S
C750 C753 1.487 . S
C751 C748 1.382 . S
C751 C752 1.387 . S
C751 H774 0.930 . S
C752 C750 1.381 . S
C752 C751 1.387 . S
C752 H775 0.931 . S
C753 C746 1.399 . S
C753 C750 1.487 . S
C753 N785 1.343 . S
C754 C755 1.384 . S
C754 C756 1.384 . S
C754 H776 0.931 . S
C755 C754 1.384 . S
C755 C758 1.382 . S
C756 C754 1.384 . S
C756 C757 1.381 . S
C756 H777 0.930 . S
C757 C756 1.381 . S
C757 C759 1.381 . S
C757 C760 1.487 . S
C758 C755 1.382 . S
C758 C759 1.387 . S
C758 H778 0.930 . S
C759 C757 1.381 . S
C759 C758 1.387 . S
C759 H779 0.931 . S
C760 C757 1.487 . S
C760 C767 1.399 . S
C760 N785 1.343 . S
C761 C762 1.384 . S
C761 C763 1.384 . S
C761 H780 0.931 . S
C762 C761 1.384 . S
C762 C765 1.382 . S
C763 C761 1.384 . S
C763 C764 1.381 . S
C763 H781 0.930 . S
C764 C763 1.381 . S
C764 C766 1.381 . S
C764 C767 1.487 . S
C765 C762 1.382 . S
C765 C766 1.387 . S
C765 H782 0.930 . S
C766 C764 1.381 . S
C766 C765 1.387 . S
C766 H783 0.931 . S
C767 C760 1.399 . S
C767 C764 1.487 . S
C767 N784 1.343 . S
H768 C740 0.931 . S
H769 C742 0.930 . S
H770 C744 0.930 . S
H771 C745 0.931 . S
H772 C747 0.931 . S
H773 C749 0.930 . S
H774 C751 0.930 . S
H775 C752 0.931 . S
H776 C754 0.931 . S
H777 C756 0.930 . S
H778 C758 0.930 . S
H779 C759 0.931 . S
H780 C761 0.931 . S
H781 C763 0.930 . S
H782 C765 0.930 . S
H783 C766 0.931 . S
N784 C746 1.343 . S
N784 C767 1.343 . S
N785 C753 1.343 . S
N785 C760 1.343 . S
C786 C787 1.384 . S
C786 C788 1.384 . S
C786 H814 0.931 . S
C787 C786 1.384 . S
C787 C790 1.382 . S
C788 C786 1.384 . S
C788 C789 1.381 . S
C788 H815 0.930 . S
C789 C788 1.381 . S
C789 C791 1.381 . S
C789 C792 1.487 . S
C790 C787 1.382 . S
C790 C791 1.387 . S
C790 H816 0.930 . S
C791 C789 1.381 . S
C791 C790 1.387 . S
C791 H817 0.931 . S
C792 C789 1.487 . S
C792 C799 1.399 . S
C792 N830 1.343 . S
C793 C794 1.384 . S
C793 C795 1.384 . S
C793 H818 0.931 . S
C794 C793 1.384 . S
C794 C797 1.382 . S
C795 C793 1.384 . S
C795 C796 1.381 . S
C795 H819 0.930 . S
C796 C795 1.381 . S
C796 C798 1.381 . S
C796 C799 1.487 . S
C797 C794 1.382 . S
C797 C798 1.387 . S
C797 H820 0.930 . S
C798 C796 1.381 . S
C798 C797 1.387 . S
C798 H821 0.931 . S
C799 C792 1.399 . S
C799 C796 1.487 . S
C799 N831 1.343 . S
C800 C801 1.384 . S
C800 C802 1.384 . S
C800 H822 0.931 . S
C801 C800 1.384 . S
C801 C804 1.382 . S
C802 C800 1.384 . S
C802 C803 1.381 . S
C802 H823 0.930 . S
C803 C802 1.381 . S
C803 C805 1.381 . S
C803 C806 1.487 . S
C804 C801 1.382 . S
C804 C805 1.387 . S
C804 H824 0.930 . S
C805 C803 1.381 . S
C805 C804 1.387 . S
C805 H825 0.931 . S
C806 C803 1.487 . S
C806 C813 1.399 . S
C806 N831 1.343 . S
C807 C808 1.384 . S
C807 C809 1.384 . S
C807 H826 0.931 . S
C808 C807 1.384 . S
C808 C811 1.382 . S
C809 C807 1.384 . S
C809 C810 1.381 . S
C809 H827 0.930 . S
C810 C809 1.381 . S
C810 C812 1.381 . S
C810 C813 1.487 . S
C811 C808 1.382 . S
C811 C812 1.387 . S
C811 H828 0.930 . S
C812 C810 1.381 . S
C812 C811 1.387 . S
C812 H829 0.931 . S
C813 C806 1.399 . S
C813 C810 1.487 . S
C813 N830 1.343 . S
H814 C786 0.931 . S
H815 C788 0.930 . S
H816 C790 0.930 . S
H817 C791 0.931 . S
H818 C793 0.931 . S
H819 C795 0.930 . S
H820 C797 0.930 . S
H821 C798 0.931 . S
H822 C800 0.931 . S
H823 C802 0.930 . S
H824 C804 0.930 . S
H825 C805 0.931 . S
H826 C807 0.931 . S
H827 C809 0.930 . S
H828 C811 0.930 . S
H829 C812 0.931 . S
N830 C792 1.343 . S
N830 C813 1.343 . S
N831 C799 1.343 . S
N831 C806 1.343 . S
C832 C833 1.384 . S
C832 C834 1.384 . S
C832 H860 0.931 . S
C833 C832 1.384 . S
C833 C836 1.382 . S
C834 C832 1.384 . S
C834 C835 1.381 . S
C834 H861 0.930 . S
C835 C834 1.381 . S
C835 C837 1.381 . S
C835 C838 1.487 . S
C836 C833 1.382 . S
C836 C837 1.387 . S
C836 H862 0.930 . S
C837 C835 1.381 . S
C837 C836 1.387 . S
C837 H863 0.931 . S
C838 C835 1.487 . S
C838 C845 1.399 . S
C838 N876 1.343 . S
C839 C840 1.384 . S
C839 C841 1.384 . S
C839 H864 0.931 . S
C840 C839 1.384 . S
C840 C843 1.382 . S
C841 C839 1.384 . S
C841 C842 1.381 . S
C841 H865 0.930 . S
C842 C841 1.381 . S
C842 C844 1.381 . S
C842 C845 1.487 . S
C843 C840 1.382 . S
C843 C844 1.387 . S
C843 H866 0.930 . S
C844 C842 1.381 . S
C844 C843 1.387 . S
C844 H867 0.931 . S
C845 C838 1.399 . S
C845 C842 1.487 . S
C845 N877 1.343 . S
C846 C847 1.384 . S
C846 C848 1.384 . S
C846 H868 0.931 . S
C847 C846 1.384 . S
C847 C850 1.382 . S
C848 C846 1.384 . S
C848 C849 1.381 . S
C848 H869 0.930 . S
C849 C848 1.381 . S
C849 C851 1.381 . S
C849 C852 1.487 . S
C850 C847 1.382 . S
C850 C851 1.387 . S
C850 H870 0.930 . S
C851 C849 1.381 . S
C851 C850 1.387 . S
C851 H871 0.931 . S
C852 C849 1.487 . S
C852 C859 1.399 . S
C852 N877 1.343 . S
C853 C854 1.384 . S
C853 C855 1.384 . S
C853 H872 0.931 . S
C854 C853 1.384 . S
C854 C857 1.382 . S
C855 C853 1.384 . S
C855 C856 1.381 . S
C855 H873 0.930 . S
C856 C855 1.381 . S
C856 C858 1.381 . S
C856 C859 1.487 . S
C857 C854 1.382 . S
C857 C858 1.387 . S
C857 H874 0.930 . S
C858 C856 1.381 . S
C858 C857 1.387 . S
C858 H875 0.931 . S
C859 C852 1.399 . S
C859 C856 1.487 . S
C859 N876 1.343 . S
H860 C832 0.931 . S
H861 C834 0.930 . S
H862 C836 0.930 . S
H863 C837 0.931 . S
H864 C839 0.931 . S
H865 C841 0.930 . S
H866 C843 0.930 . S
H867 C844 0.931 . S
H868 C846 0.931 . S
H869 C848 0.930 . S
H870 C850 0.930 . S
H871 C851 0.931 . S
H872 C853 0.931 . S
H873 C855 0.930 . S
H874 C857 0.930 . S
H875 C858 0.931 . S
N876 C838 1.343 . S
N876 C859 1.343 . S
N877 C845 1.343 . S
N877 C852 1.343 . S
C878 C879 1.384 . S
C878 C880 1.384 . S
C878 H906 0.931 . S
C879 C878 1.384 . S
C879 C882 1.382 . S
C880 C878 1.384 . S
C880 C881 1.381 . S
C880 H907 0.930 . S
C881 C880 1.381 . S
C881 C883 1.381 . S
C881 C884 1.487 . S
C882 C879 1.382 . S
C882 C883 1.387 . S
C882 H908 0.930 . S
C883 C881 1.381 . S
C883 C882 1.387 . S
C883 H909 0.931 . S
C884 C881 1.487 . S
C884 C891 1.399 . S
C884 N922 1.343 . S
C885 C886 1.384 . S
C885 C887 1.384 . S
C885 H910 0.931 . S
C886 C885 1.384 . S
C886 C889 1.382 . S
C887 C885 1.384 . S
C887 C888 1.381 . S
C887 H911 0.930 . S
C888 C887 1.381 . S
C888 C890 1.381 . S
C888 C891 1.487 . S
C889 C886 1.382 . S
C889 C890 1.387 . S
C889 H912 0.930 . S
C890 C888 1.381 . S
C890 C889 1.387 . S
C890 H913 0.931 . S
C891 C884 1.399 . S
C891 C888 1.487 . S
C891 N923 1.343 . S
C892 C893 1.384 . S
C892 C894 1.384 . S
C892 H914 0.931 . S
C893 C892 1.384 . S
C893 C896 1.382 . S
C894 C892 1.384 . S
C894 C895 1.381 . S
C894 H915 0.930 . S
C895 C894 1.381 . S
C895 C897 1.381 . S
C895 C898 1.487 . S
C896 C893 1.382 . S
C896 C897 1.387 . S
C896 H916 0.930 . S
C897 C895 1.381 . S
C897 C896 1.387 . S
C897 H917 0.931 . S
C898 C895 1.487 . S
C898 C905 1.399 . S
C898 N923 1.343 . S
C899 C900 1.384 . S
C899 C901 1.384 . S
C899 H918 0.931 . S
C900 C899 1.384 . S
C900 C903 1.382 . S
C901 C899 1.384 . S
C901 C902 1.381 . S
C901 H919 0.930 . S
C902 C901 1.381 . S
C902 C904 1.381 . S
C902 C905 1.487 . S
C903 C900 1.382 . S
C903 C904 1.387 . S
C903 H920 0.930 . S
C904 C902 1.381 . S
C904 C903 1.387 . S
C904 H921 0.931 . S
C905 C898 1.399 . S
C905 C902 1.487 . S
C905 N922 1.343 . S
H906 C878 0.931 . S
H907 C880 0.930 . S
H908 C882 0.930 . S
H909 C883 0.931 . S
H910 C885 0.931 . S
H911 C887 0.930 . S
H912 C889 0.930 . S
H913 C890 0.931 . S
H914 C892 0.931 . S
H915 C894 0.930 . S
H916 C896 0.930 . S
H917 C897 0.931 . S
H918 C899 0.931 . S
H919 C901 0.930 . S
H920 C903 0.930 . S
H921 C904 0.931 . S
N922 C884 1.343 . S
N922 C905 1.343 . S
N923 C891 1.343 . S
N923 C898 1.343 . S
C924 C925 1.384 . S
C924 C926 1.384 . S
C924 H952 0.931 . S
C925 C924 1.384 . S
C925 C928 1.382 . S
C926 C924 1.384 . S
C926 C927 1.381 . S
C926 H953 0.930 . S
C927 C926 1.381 . S
C927 C929 1.381 . S
C927 C930 1.487 . S
C928 C925 1.382 . S
C928 C929 1.387 . S
C928 H954 0.930 . S
C929 C927 1.381 . S
C929 C928 1.387 . S
C929 H955 0.931 . S
C930 C927 1.487 . S
C930 C937 1.399 . S
C930 N968 1.343 . S
C931 C932 1.384 . S
C931 C933 1.384 . S
C931 H956 0.931 . S
C932 C931 1.384 . S
C932 C935 1.382 . S
C933 C931 1.384 . S
C933 C934 1.381 . S
C933 H957 0.930 . S
C934 C933 1.381 . S
C934 C936 1.381 . S
C934 C937 1.487 . S
C935 C932 1.382 . S
C935 C936 1.387 . S
C935 H958 0.930 . S
C936 C934 1.381 . S
C936 C935 1.387 . S
C936 H959 0.931 . S
C937 C930 1.399 . S
C937 C934 1.487 . S
C937 N969 1.343 . S
C938 C939 1.384 . S
C938 C940 1.384 . S
C938 H960 0.931 . S
C939 C938 1.384 . S
C939 C942 1.382 . S
C940 C938 1.384 . S
C940 C941 1.381 . S
C940 H961 0.930 . S
C941 C940 1.381 . S
C941 C943 1.381 . S
C941 C944 1.487 . S
C942 C939 1.382 . S
C942 C943 1.387 . S
C942 H962 0.930 . S
C943 C941 1.381 . S
C943 C942 1.387 . S
C943 H963 0.931 . S
C944 C941 1.487 . S
C944 C951 1.399 . S
C944 N969 1.343 . S
C945 C946 1.384 . S
C945 C947 1.384 . S
C945 H964 0.931 . S
C946 C945 1.384 . S
C946 C949 1.382 . S
C947 C945 1.384 . S
C947 C948 1.381 . S
C947 H965 0.930 . S
C948 C947 1.381 . S
C948 C950 1.381 . S
C948 C951 1.487 . S
C949 C946 1.382 . S
C949 C950 1.387 . S
C949 H966 0.930 . S
C950 C948 1.381 . S
C950 C949 1.387 . S
C950 H967 0.931 . S
C951 C944 1.399 . S
C951 C948 1.487 . S
C951 N968 1.343 . S
H952 C924 0.931 . S
H953 C926 0.930 . S
H954 C928 0.930 . S
H955 C929 0.931 . S
H956 C931 0.931 . S
H957 C933 0.930 . S
H958 C935 0.930 . S
H959 C936 0.931 . S
H960 C938 0.931 . S
H961 C940 0.930 . S
H962 C942 0.930 . S
H963 C943 0.931 . S
H964 C945 0.931 . S
H965 C947 0.930 . S
H966 C949 0.930 . S
H967 C950 0.931 . S
N968 C930 1.343 . S
N968 C951 1.343 . S
N969 C937 1.343 . S
N969 C944 1.343 . S
C970 C971 1.384 . S
C970 C972 1.384 . S
C970 H998 0.931 . S
C971 C970 1.384 . S
C971 C974 1.382 . S
C972 C970 1.384 . S
C972 C973 1.381 . S
C972 H999 0.930 . S
C973 C972 1.381 . S
C973 C975 1.381 . S
C973 C976 1.487 . S
C974 C971 1.382 . S
C974 C975 1.387 . S
C974 H1000 0.930 . S
C975 C973 1.381 . S
C975 C974 1.387 . S
C975 H1001 0.931 . S
C976 C973 1.487 . S
C976 C983 1.399 . S
C976 N1014 1.343 . S
C977 C978 1.384 . S
C977 C979 1.384 . S
C977 H1002 0.931 . S
C978 C977 1.384 . S
C978 C981 1.382 . S
C979 C977 1.384 . S
C979 C980 1.381 . S
C979 H1003 0.930 . S
C980 C979 1.381 . S
C980 C982 1.381 . S
C980 C983 1.487 . S
C981 C978 1.382 . S
C981 C982 1.387 . S
C981 H1004 0.930 . S
C982 C980 1.381 . S
C982 C981 1.387 . S
C982 H1005 0.931 . S
C983 C976 1.399 . S
C983 C980 1.487 . S
C983 N1015 1.343 . S
C984 C985 1.384 . S
C984 C986 1.384 . S
C984 H1006 0.931 . S
C985 C984 1.384 . S
C985 C988 1.382 . S
C986 C984 1.384 . S
C986 C987 1.381 . S
C986 H1007 0.930 . S
C987 C986 1.381 . S
C987 C989 1.381 . S
C987 C990 1.487 . S
C988 C985 1.382 . S
C988 C989 1.387 . S
C988 H1008 0.930 . S
C989 C987 1.381 . S
C989 C988 1.387 . S
C989 H1009 0.931 . S
C990 C987 1.487 . S
C990 C997 1.399 . S
C990 N1015 1.343 . S
C991 C992 1.384 . S
C991 C993 1.384 . S
C991 H1010 0.931 . S
C992 C991 1.384 . S
C992 C995 1.382 . S
C993 C991 1.384 . S
C993 C994 1.381 . S
C993 H1011 0.930 . S
C994 C993 1.381 . S
C994 C996 1.381 . S
C994 C997 1.487 . S
C995 C992 1.382 . S
C995 C996 1.387 . S
C995 H1012 0.930 . S
C996 C994 1.381 . S
C996 C995 1.387 . S
C996 H1013 0.931 . S
C997 C990 1.399 . S
C997 C994 1.487 . S
C997 N1014 1.343 . S
H998 C970 0.931 . S
H999 C972 0.930 . S
H1000 C974 0.930 . S
H1001 C975 0.931 . S
H1002 C977 0.931 . S
H1003 C979 0.930 . S
H1004 C981 0.930 . S
H1005 C982 0.931 . S
H1006 C984 0.931 . S
H1007 C986 0.930 . S
H1008 C988 0.930 . S
H1009 C989 0.931 . S
H1010 C991 0.931 . S
H1011 C993 0.930 . S
H1012 C995 0.930 . S
H1013 C996 0.931 . S
N1014 C976 1.343 . S
N1014 C997 1.343 . S
N1015 C983 1.343 . S
N1015 C990 1.343 . S
C1016 C1017 1.384 . S
C1016 C1018 1.384 . S
C1016 H1044 0.931 . S
C1017 C1016 1.384 . S
C1017 C1020 1.382 . S
C1018 C1016 1.384 . S
C1018 C1019 1.381 . S
C1018 H1045 0.930 . S
C1019 C1018 1.381 . S
C1019 C1021 1.381 . S
C1019 C1022 1.487 . S
C1020 C1017 1.382 . S
C1020 C1021 1.387 . S
C1020 H1046 0.930 . S
C1021 C1019 1.381 . S
C1021 C1020 1.387 . S
C1021 H1047 0.931 . S
C1022 C1019 1.487 . S
C1022 C1029 1.399 . S
C1022 N1060 1.343 . S
C1023 C1024 1.384 . S
C1023 C1025 1.384 . S
C1023 H1048 0.931 . S
C1024 C1023 1.384 . S
C1024 C1027 1.382 . S
C1025 C1023 1.384 . S
C1025 C1026 1.381 . S
C1025 H1049 0.930 . S
C1026 C1025 1.381 . S
C1026 C1028 1.381 . S
C1026 C1029 1.487 . S
C1027 C1024 1.382 . S
C1027 C1028 1.387 . S
C1027 H1050 0.930 . S
C1028 C1026 1.381 . S
C1028 C1027 1.387 . S
C1028 H1051 0.931 . S
C1029 C1022 1.399 . S
C1029 C1026 1.487 . S
C1029 N1061 1.343 . S
C1030 C1031 1.384 . S
C1030 C1032 1.384 . S
C1030 H1052 0.931 . S
C1031 C1030 1.384 . S
C1031 C1034 1.382 . S
C1032 C1030 1.384 . S
C1032 C1033 1.381 . S
C1032 H1053 0.930 . S
C1033 C1032 1.381 . S
C1033 C1035 1.381 . S
C1033 C1036 1.487 . S
C1034 C1031 1.382 . S
C1034 C1035 1.387 . S
C1034 H1054 0.930 . S
C1035 C1033 1.381 . S
C1035 C1034 1.387 . S
C1035 H1055 0.931 . S
C1036 C1033 1.487 . S
C1036 C1043 1.399 . S
C1036 N1061 1.343 . S
C1037 C1038 1.384 . S
C1037 C1039 1.384 . S
C1037 H1056 0.931 . S
C1038 C1037 1.384 . S
C1038 C1041 1.382 . S
C1039 C1037 1.384 . S
C1039 C1040 1.381 . S
C1039 H1057 0.930 . S
C1040 C1039 1.381 . S
C1040 C1042 1.381 . S
C1040 C1043 1.487 . S
C1041 C1038 1.382 . S
C1041 C1042 1.387 . S
C1041 H1058 0.930 . S
C1042 C1040 1.381 . S
C1042 C1041 1.387 . S
C1042 H1059 0.931 . S
C1043 C1036 1.399 . S
C1043 C1040 1.487 . S
C1043 N1060 1.343 . S
H1044 C1016 0.931 . S
H1045 C1018 0.930 . S
H1046 C1020 0.930 . S
H1047 C1021 0.931 . S
H1048 C1023 0.931 . S
H1049 C1025 0.930 . S
H1050 C1027 0.930 . S
H1051 C1028 0.931 . S
H1052 C1030 0.931 . S
H1053 C1032 0.930 . S
H1054 C1034 0.930 . S
H1055 C1035 0.931 . S
H1056 C1037 0.931 . S
H1057 C1039 0.930 . S
H1058 C1041 0.930 . S
H1059 C1042 0.931 . S
N1060 C1022 1.343 . S
N1060 C1043 1.343 . S
N1061 C1029 1.343 . S
N1061 C1036 1.343 . S
C1062 C1063 1.384 . S
C1062 C1064 1.384 . S
C1062 H1090 0.931 . S
C1063 C1062 1.384 . S
C1063 C1066 1.382 1_655 S
C1064 C1062 1.384 . S
C1064 C1065 1.388 1_655 S
C1064 H1091 0.930 . S
C1065 C1064 1.388 1_455 S
C1065 C1067 1.378 . S
C1065 C1068 1.474 . S
C1066 C1063 1.382 1_455 S
C1066 C1067 1.387 . S
C1066 H1092 0.930 . S
C1067 C1065 1.378 . S
C1067 C1066 1.387 . S
C1067 H1093 0.931 . S
C1068 C1065 1.474 . S
C1068 C1075 1.398 1_455 S
C1068 N1106 1.319 . S
C1069 C1070 1.384 . S
C1069 C1071 1.384 . S
C1069 H1094 0.931 . S
C1070 C1069 1.384 . S
C1070 C1073 1.382 1_455 S
C1071 C1069 1.384 . S
C1071 C1072 1.384 . S
C1071 H1095 0.930 . S
C1072 C1071 1.384 . S
C1072 C1074 1.374 1_455 S
C1072 C1075 1.492 1_455 S
C1073 C1070 1.382 1_655 S
C1073 C1074 1.387 . S
C1073 H1096 0.930 . S
C1074 C1072 1.374 1_655 S
C1074 C1073 1.387 . S
C1074 H1097 0.931 . S
C1075 C1068 1.398 1_655 S
C1075 C1072 1.492 1_655 S
C1075 N1107 1.367 . S
C1076 C1077 1.384 . S
C1076 C1078 1.384 . S
C1076 H1098 0.931 . S
C1077 C1076 1.384 . S
C1077 C1080 1.382 1_455 S
C1078 C1076 1.384 . S
C1078 C1079 1.388 . S
C1078 H1099 0.930 . S
C1079 C1078 1.388 . S
C1079 C1081 1.378 1_455 S
C1079 C1082 1.483 1_455 S
C1080 C1077 1.382 1_655 S
C1080 C1081 1.387 . S
C1080 H1100 0.930 . S
C1081 C1079 1.378 1_655 S
C1081 C1080 1.387 . S
C1081 H1101 0.931 . S
C1082 C1079 1.483 1_655 S
C1082 C1089 1.398 1_655 S
C1082 N1107 1.319 . S
C1083 C1084 1.384 . S
C1083 C1085 1.384 . S
C1083 H1102 0.931 . S
C1084 C1083 1.384 . S
C1084 C1087 1.382 1_655 S
C1085 C1083 1.384 . S
C1085 C1086 1.380 . S
C1085 H1103 0.930 . S
C1086 C1085 1.380 . S
C1086 C1088 1.386 1_655 S
C1086 C1089 1.492 1_655 S
C1087 C1084 1.382 1_455 S
C1087 C1088 1.387 . S
C1087 H1104 0.930 . S
C1088 C1086 1.386 1_455 S
C1088 C1087 1.387 . S
C1088 H1105 0.931 . S
C1089 C1082 1.398 1_455 S
C1089 C1086 1.492 1_455 S
C1089 N1106 1.367 . S
H1090 C1062 0.931 . S
H1091 C1064 0.930 . S
H1092 C1066 0.930 . S
H1093 C1067 0.931 . S
H1094 C1069 0.931 . S
H1095 C1071 0.930 . S
H1096 C1073 0.930 . S
H1097 C1074 0.931 . S
H1098 C1076 0.931 . S
H1099 C1078 0.930 . S
H1100 C1080 0.930 . S
H1101 C1081 0.931 . S
H1102 C1083 0.931 . S
H1103 C1085 0.930 . S
H1104 C1087 0.930 . S
H1105 C1088 0.931 . S
N1106 C1068 1.319 . S
N1106 C1089 1.367 . S
N1107 C1075 1.367 . S
N1107 C1082 1.319 . S
C1108 C1109 1.384 . S
C1108 C1110 1.384 . S
C1108 H1136 0.931 . S
C1109 C1108 1.384 . S
C1109 C1112 1.382 . S
C1110 C1108 1.384 . S
C1110 C1111 1.381 . S
C1110 H1137 0.930 . S
C1111 C1110 1.381 . S
C1111 C1113 1.381 . S
C1111 C1114 1.487 . S
C1112 C1109 1.382 . S
C1112 C1113 1.387 . S
C1112 H1138 0.930 . S
C1113 C1111 1.381 . S
C1113 C1112 1.387 . S
C1113 H1139 0.931 . S
C1114 C1111 1.487 . S
C1114 C1121 1.399 . S
C1114 N1152 1.343 . S
C1115 C1116 1.384 . S
C1115 C1117 1.384 . S
C1115 H1140 0.931 . S
C1116 C1115 1.384 . S
C1116 C1119 1.382 . S
C1117 C1115 1.384 . S
C1117 C1118 1.381 . S
C1117 H1141 0.930 . S
C1118 C1117 1.381 . S
C1118 C1120 1.381 . S
C1118 C1121 1.487 . S
C1119 C1116 1.382 . S
C1119 C1120 1.387 . S
C1119 H1142 0.930 . S
C1120 C1118 1.381 . S
C1120 C1119 1.387 . S
C1120 H1143 0.931 . S
C1121 C1114 1.399 . S
C1121 C1118 1.487 . S
C1121 N1153 1.343 . S
C1122 C1123 1.384 . S
C1122 C1124 1.384 . S
C1122 H1144 0.931 . S
C1123 C1122 1.384 . S
C1123 C1126 1.382 . S
C1124 C1122 1.384 . S
C1124 C1125 1.381 . S
C1124 H1145 0.930 . S
C1125 C1124 1.381 . S
C1125 C1127 1.381 . S
C1125 C1128 1.487 . S
C1126 C1123 1.382 . S
C1126 C1127 1.387 . S
C1126 H1146 0.930 . S
C1127 C1125 1.381 . S
C1127 C1126 1.387 . S
C1127 H1147 0.931 . S
C1128 C1125 1.487 . S
C1128 C1135 1.399 . S
C1128 N1153 1.343 . S
C1129 C1130 1.384 . S
C1129 C1131 1.384 . S
C1129 H1148 0.931 . S
C1130 C1129 1.384 . S
C1130 C1133 1.382 . S
C1131 C1129 1.384 . S
C1131 C1132 1.381 . S
C1131 H1149 0.930 . S
C1132 C1131 1.381 . S
C1132 C1134 1.381 . S
C1132 C1135 1.487 . S
C1133 C1130 1.382 . S
C1133 C1134 1.387 . S
C1133 H1150 0.930 . S
C1134 C1132 1.381 . S
C1134 C1133 1.387 . S
C1134 H1151 0.931 . S
C1135 C1128 1.399 . S
C1135 C1132 1.487 . S
C1135 N1152 1.343 . S
H1136 C1108 0.931 . S
H1137 C1110 0.930 . S
H1138 C1112 0.930 . S
H1139 C1113 0.931 . S
H1140 C1115 0.931 . S
H1141 C1117 0.930 . S
H1142 C1119 0.930 . S
H1143 C1120 0.931 . S
H1144 C1122 0.931 . S
H1145 C1124 0.930 . S
H1146 C1126 0.930 . S
H1147 C1127 0.931 . S
H1148 C1129 0.931 . S
H1149 C1131 0.930 . S
H1150 C1133 0.930 . S
H1151 C1134 0.931 . S
N1152 C1114 1.343 . S
N1152 C1135 1.343 . S
N1153 C1121 1.343 . S
N1153 C1128 1.343 . S
C1154 C1155 1.384 1_545 S
C1154 C1156 1.384 . S
C1154 H1182 0.931 . S
C1155 C1154 1.384 1_565 S
C1155 C1158 1.382 . S
C1156 C1154 1.384 . S
C1156 C1157 1.381 1_545 S
C1156 H1183 0.930 . S
C1157 C1156 1.381 1_565 S
C1157 C1159 1.381 . S
C1157 C1160 1.487 . S
C1158 C1155 1.382 . S
C1158 C1159 1.387 . S
C1158 H1184 0.930 . S
C1159 C1157 1.381 . S
C1159 C1158 1.387 . S
C1159 H1185 0.931 . S
C1160 C1157 1.487 . S
C1160 C1167 1.399 1_565 S
C1160 N1198 1.343 . S
C1161 C1162 1.384 1_565 S
C1161 C1163 1.384 . S
C1161 H1186 0.931 . S
C1162 C1161 1.384 1_545 S
C1162 C1165 1.382 . S
C1163 C1161 1.384 . S
C1163 C1164 1.381 1_565 S
C1163 H1187 0.930 . S
C1164 C1163 1.381 1_545 S
C1164 C1166 1.381 . S
C1164 C1167 1.487 . S
C1165 C1162 1.382 . S
C1165 C1166 1.387 . S
C1165 H1188 0.930 . S
C1166 C1164 1.381 . S
C1166 C1165 1.387 . S
C1166 H1189 0.931 . S
C1167 C1160 1.399 1_545 S
C1167 C1164 1.487 . S
C1167 N1199 1.343 . S
C1168 C1169 1.384 1_565 S
C1168 C1170 1.384 . S
C1168 H1190 0.931 . S
C1169 C1168 1.384 1_545 S
C1169 C1172 1.382 . S
C1170 C1168 1.384 . S
C1170 C1171 1.381 1_565 S
C1170 H1191 0.930 . S
C1171 C1170 1.381 1_545 S
C1171 C1173 1.381 . S
C1171 C1174 1.455 . S
C1172 C1169 1.382 . S
C1172 C1173 1.387 . S
C1172 H1192 0.930 . S
C1173 C1171 1.381 . S
C1173 C1172 1.387 . S
C1173 H1193 0.931 . S
C1174 C1171 1.455 . S
C1174 C1181 1.390 1_545 S
C1174 N1199 1.393 . S
C1175 C1176 1.384 1_545 S
C1175 C1177 1.384 . S
C1175 H1194 0.931 . S
C1176 C1175 1.384 1_565 S
C1176 C1179 1.382 . S
C1177 C1175 1.384 . S
C1177 C1178 1.381 1_545 S
C1177 H1195 0.930 . S
C1178 C1177 1.381 1_565 S
C1178 C1180 1.381 . S
C1178 C1181 1.487 . S
C1179 C1176 1.382 . S
C1179 C1180 1.387 . S
C1179 H1196 0.930 . S
C1180 C1178 1.381 . S
C1180 C1179 1.387 . S
C1180 H1197 0.931 . S
C1181 C1174 1.390 1_565 S
C1181 C1178 1.487 . S
C1181 N1198 1.343 . S
H1182 C1154 0.931 . S
H1183 C1156 0.930 . S
H1184 C1158 0.930 . S
H1185 C1159 0.931 . S
H1186 C1161 0.931 . S
H1187 C1163 0.930 . S
H1188 C1165 0.930 . S
H1189 C1166 0.931 . S
H1190 C1168 0.931 . S
H1191 C1170 0.930 . S
H1192 C1172 0.930 . S
H1193 C1173 0.931 . S
H1194 C1175 0.931 . S
H1195 C1177 0.930 . S
H1196 C1179 0.930 . S
H1197 C1180 0.931 . S
N1198 C1160 1.343 . S
N1198 C1181 1.343 . S
N1199 C1167 1.343 . S
N1199 C1174 1.393 . S
C1200 C1201 1.384 . S
C1200 C1202 1.384 . S
C1200 H1228 0.931 . S
C1201 C1200 1.384 . S
C1201 C1204 1.382 1_545 S
C1202 C1200 1.384 . S
C1202 C1203 1.386 . S
C1202 H1229 0.930 . S
C1203 C1202 1.386 . S
C1203 C1205 1.370 1_545 S
C1203 C1206 1.494 1_545 S
C1204 C1201 1.382 1_565 S
C1204 C1205 1.387 . S
C1204 H1230 0.930 . S
C1205 C1203 1.370 1_565 S
C1205 C1204 1.387 . S
C1205 H1231 0.931 . S
C1206 C1203 1.494 1_565 S
C1206 C1213 1.399 1_565 S
C1206 N1244 1.366 . S
C1207 C1208 1.384 . S
C1207 C1209 1.384 . S
C1207 H1232 0.931 . S
C1208 C1207 1.384 . S
C1208 C1211 1.382 1_565 S
C1209 C1207 1.384 . S
C1209 C1210 1.374 . S
C1209 H1233 0.930 . S
C1210 C1209 1.374 . S
C1210 C1212 1.385 1_565 S
C1210 C1213 1.482 1_565 S
C1211 C1208 1.382 1_545 S
C1211 C1212 1.387 . S
C1211 H1234 0.930 . S
C1212 C1210 1.385 1_545 S
C1212 C1211 1.387 . S
C1212 H1235 0.931 . S
C1213 C1206 1.399 1_545 S
C1213 C1210 1.482 1_545 S
C1213 N1245 1.320 . S
C1214 C1215 1.384 . S
C1214 C1216 1.384 . S
C1214 H1236 0.931 . S
C1215 C1214 1.384 . S
C1215 C1218 1.382 1_565 S
C1216 C1214 1.384 . S
C1216 C1217 1.381 . S
C1216 H1237 0.930 . S
C1217 C1216 1.381 . S
C1217 C1219 1.382 1_565 S
C1217 C1220 1.494 1_565 S
C1218 C1215 1.382 1_545 S
C1218 C1219 1.387 . S
C1218 H1238 0.930 . S
C1219 C1217 1.382 1_545 S
C1219 C1218 1.387 . S
C1219 H1239 0.931 . S
C1220 C1217 1.494 1_545 S
C1220 C1227 1.399 1_545 S
C1220 N1245 1.366 . S
C1221 C1222 1.384 . S
C1221 C1223 1.384 . S
C1221 H1240 0.931 . S
C1222 C1221 1.384 . S
C1222 C1225 1.382 1_545 S
C1223 C1221 1.384 . S
C1223 C1224 1.394 . S
C1223 H1241 0.930 . S
C1224 C1223 1.394 . S
C1224 C1226 1.375 1_545 S
C1224 C1227 1.482 1_545 S
C1225 C1222 1.382 1_565 S
C1225 C1226 1.387 . S
C1225 H1242 0.930 . S
C1226 C1224 1.375 1_565 S
C1226 C1225 1.387 . S
C1226 H1243 0.931 . S
C1227 C1220 1.399 1_565 S
C1227 C1224 1.482 1_565 S
C1227 N1244 1.320 . S
H1228 C1200 0.931 . S
H1229 C1202 0.930 . S
H1230 C1204 0.930 . S
H1231 C1205 0.931 . S
H1232 C1207 0.931 . S
H1233 C1209 0.930 . S
H1234 C1211 0.930 . S
H1235 C1212 0.931 . S
H1236 C1214 0.931 . S
H1237 C1216 0.930 . S
H1238 C1218 0.930 . S
H1239 C1219 0.931 . S
H1240 C1221 0.931 . S
H1241 C1223 0.930 . S
H1242 C1225 0.930 . S
H1243 C1226 0.931 . S
N1244 C1206 1.366 . S
N1244 C1227 1.320 . S
N1245 C1213 1.320 . S
N1245 C1220 1.366 . S
C1246 C1247 1.384 . S
C1246 C1248 1.384 . S
C1246 H1274 0.931 . S
C1247 C1246 1.384 . S
C1247 C1250 1.382 1_655 S
C1248 C1246 1.384 . S
C1248 C1249 1.404 . S
C1248 H1275 0.930 . S
C1249 C1248 1.404 . S
C1249 C1251 1.369 1_655 S
C1249 C1252 1.479 1_655 S
C1250 C1247 1.382 1_455 S
C1250 C1251 1.387 . S
C1250 H1276 0.930 . S
C1251 C1249 1.369 1_455 S
C1251 C1250 1.387 . S
C1251 H1277 0.931 . S
C1252 C1249 1.479 1_455 S
C1252 C1259 1.399 1_455 S
C1252 N1290 1.323 . S
C1253 C1254 1.384 . S
C1253 C1255 1.384 . S
C1253 H1278 0.931 . S
C1254 C1253 1.384 . S
C1254 C1257 1.382 1_455 S
C1255 C1253 1.384 . S
C1255 C1256 1.385 . S
C1255 H1279 0.930 . S
C1256 C1255 1.385 . S
C1256 C1258 1.373 1_455 S
C1256 C1259 1.497 1_455 S
C1257 C1254 1.382 1_655 S
C1257 C1258 1.387 . S
C1257 H1280 0.930 . S
C1258 C1256 1.373 1_655 S
C1258 C1257 1.387 . S
C1258 H1281 0.931 . S
C1259 C1252 1.399 1_655 S
C1259 C1256 1.497 1_655 S
C1259 N1291 1.364 . S
C1260 C1261 1.384 . S
C1260 C1262 1.384 . S
C1260 H1282 0.931 . S
C1261 C1260 1.384 . S
C1261 C1264 1.382 1_455 S
C1262 C1260 1.384 . S
C1262 C1263 1.384 . S
C1262 H1283 0.930 . S
C1263 C1262 1.384 . S
C1263 C1265 1.380 1_455 S
C1263 C1266 1.479 1_455 S
C1264 C1261 1.382 1_655 S
C1264 C1265 1.387 . S
C1264 H1284 0.930 . S
C1265 C1263 1.380 1_655 S
C1265 C1264 1.387 . S
C1265 H1285 0.931 . S
C1266 C1263 1.479 1_655 S
C1266 C1273 1.399 . S
C1266 N1291 1.323 . S
C1267 C1268 1.384 . S
C1267 C1269 1.384 . S
C1267 H1286 0.931 . S
C1268 C1267 1.384 . S
C1268 C1271 1.382 1_655 S
C1269 C1267 1.384 . S
C1269 C1270 1.390 . S
C1269 H1287 0.930 . S
C1270 C1269 1.390 . S
C1270 C1272 1.361 1_655 S
C1270 C1273 1.506 . S
C1271 C1268 1.382 1_455 S
C1271 C1272 1.387 . S
C1271 H1288 0.930 . S
C1272 C1270 1.361 1_455 S
C1272 C1271 1.387 . S
C1272 H1289 0.931 . S
C1273 C1266 1.399 . S
C1273 C1270 1.506 . S
C1273 N1290 1.355 1_655 S
H1274 C1246 0.931 . S
H1275 C1248 0.930 . S
H1276 C1250 0.930 . S
H1277 C1251 0.931 . S
H1278 C1253 0.931 . S
H1279 C1255 0.930 . S
H1280 C1257 0.930 . S
H1281 C1258 0.931 . S
H1282 C1260 0.931 . S
H1283 C1262 0.930 . S
H1284 C1264 0.930 . S
H1285 C1265 0.931 . S
H1286 C1267 0.931 . S
H1287 C1269 0.930 . S
H1288 C1271 0.930 . S
H1289 C1272 0.931 . S
N1290 C1252 1.323 . S
N1290 C1273 1.355 1_455 S
N1291 C1259 1.364 . S
N1291 C1266 1.323 . S
C1292 C1293 1.384 . S
C1292 C1294 1.384 . S
C1292 H1320 0.931 . S
C1293 C1292 1.384 . S
C1293 C1296 1.382 . S
C1294 C1292 1.384 . S
C1294 C1295 1.381 . S
C1294 H1321 0.930 . S
C1295 C1294 1.381 . S
C1295 C1297 1.381 . S
C1295 C1298 1.487 . S
C1296 C1293 1.382 . S
C1296 C1297 1.387 . S
C1296 H1322 0.930 . S
C1297 C1295 1.381 . S
C1297 C1296 1.387 . S
C1297 H1323 0.931 . S
C1298 C1295 1.487 . S
C1298 C1305 1.399 . S
C1298 N1336 1.343 . S
C1299 C1300 1.384 . S
C1299 C1301 1.384 . S
C1299 H1324 0.931 . S
C1300 C1299 1.384 . S
C1300 C1303 1.382 . S
C1301 C1299 1.384 . S
C1301 C1302 1.381 . S
C1301 H1325 0.930 . S
C1302 C1301 1.381 . S
C1302 C1304 1.381 . S
C1302 C1305 1.487 . S
C1303 C1300 1.382 . S
C1303 C1304 1.387 . S
C1303 H1326 0.930 . S
C1304 C1302 1.381 . S
C1304 C1303 1.387 . S
C1304 H1327 0.931 . S
C1305 C1298 1.399 . S
C1305 C1302 1.487 . S
C1305 N1337 1.343 . S
C1306 C1307 1.384 . S
C1306 C1308 1.384 . S
C1306 H1328 0.931 . S
C1307 C1306 1.384 . S
C1307 C1310 1.382 . S
C1308 C1306 1.384 . S
C1308 C1309 1.381 . S
C1308 H1329 0.930 . S
C1309 C1308 1.381 . S
C1309 C1311 1.381 . S
C1309 C1312 1.487 . S
C1310 C1307 1.382 . S
C1310 C1311 1.387 . S
C1310 H1330 0.930 . S
C1311 C1309 1.381 . S
C1311 C1310 1.387 . S
C1311 H1331 0.931 . S
C1312 C1309 1.487 . S
C1312 C1319 1.399 . S
C1312 N1337 1.343 . S
C1313 C1314 1.384 . S
C1313 C1315 1.384 . S
C1313 H1332 0.931 . S
C1314 C1313 1.384 . S
C1314 C1317 1.382 . S
C1315 C1313 1.384 . S
C1315 C1316 1.381 . S
C1315 H1333 0.930 . S
C1316 C1315 1.381 . S
C1316 C1318 1.381 . S
C1316 C1319 1.487 . S
C1317 C1314 1.382 . S
C1317 C1318 1.387 . S
C1317 H1334 0.930 . S
C1318 C1316 1.381 . S
C1318 C1317 1.387 . S
C1318 H1335 0.931 . S
C1319 C1312 1.399 . S
C1319 C1316 1.487 . S
C1319 N1336 1.343 . S
H1320 C1292 0.931 . S
H1321 C1294 0.930 . S
H1322 C1296 0.930 . S
H1323 C1297 0.931 . S
H1324 C1299 0.931 . S
H1325 C1301 0.930 . S
H1326 C1303 0.930 . S
H1327 C1304 0.931 . S
H1328 C1306 0.931 . S
H1329 C1308 0.930 . S
H1330 C1310 0.930 . S
H1331 C1311 0.931 . S
H1332 C1313 0.931 . S
H1333 C1315 0.930 . S
H1334 C1317 0.930 . S
H1335 C1318 0.931 . S
N1336 C1298 1.343 . S
N1336 C1319 1.343 . S
N1337 C1305 1.343 . S
N1337 C1312 1.343 . S
C1338 C1339 1.384 . S
C1338 C1340 1.384 . S
C1338 H1366 0.931 . S
C1339 C1338 1.384 . S
C1339 C1342 1.382 . S
C1340 C1338 1.384 . S
C1340 C1341 1.381 . S
C1340 H1367 0.930 . S
C1341 C1340 1.381 . S
C1341 C1343 1.381 . S
C1341 C1344 1.487 . S
C1342 C1339 1.382 . S
C1342 C1343 1.387 . S
C1342 H1368 0.930 . S
C1343 C1341 1.381 . S
C1343 C1342 1.387 . S
C1343 H1369 0.931 . S
C1344 C1341 1.487 . S
C1344 C1351 1.399 . S
C1344 N1382 1.343 . S
C1345 C1346 1.384 . S
C1345 C1347 1.384 . S
C1345 H1370 0.931 . S
C1346 C1345 1.384 . S
C1346 C1349 1.382 . S
C1347 C1345 1.384 . S
C1347 C1348 1.381 . S
C1347 H1371 0.930 . S
C1348 C1347 1.381 . S
C1348 C1350 1.381 . S
C1348 C1351 1.487 . S
C1349 C1346 1.382 . S
C1349 C1350 1.387 . S
C1349 H1372 0.930 . S
C1350 C1348 1.381 . S
C1350 C1349 1.387 . S
C1350 H1373 0.931 . S
C1351 C1344 1.399 . S
C1351 C1348 1.487 . S
C1351 N1383 1.343 . S
C1352 C1353 1.384 . S
C1352 C1354 1.384 . S
C1352 H1374 0.931 . S
C1353 C1352 1.384 . S
C1353 C1356 1.382 . S
C1354 C1352 1.384 . S
C1354 C1355 1.381 . S
C1354 H1375 0.930 . S
C1355 C1354 1.381 . S
C1355 C1357 1.381 . S
C1355 C1358 1.487 . S
C1356 C1353 1.382 . S
C1356 C1357 1.387 . S
C1356 H1376 0.930 . S
C1357 C1355 1.381 . S
C1357 C1356 1.387 . S
C1357 H1377 0.931 . S
C1358 C1355 1.487 . S
C1358 C1365 1.399 . S
C1358 N1383 1.343 . S
C1359 C1360 1.384 . S
C1359 C1361 1.384 . S
C1359 H1378 0.931 . S
C1360 C1359 1.384 . S
C1360 C1363 1.382 . S
C1361 C1359 1.384 . S
C1361 C1362 1.381 . S
C1361 H1379 0.930 . S
C1362 C1361 1.381 . S
C1362 C1364 1.381 . S
C1362 C1365 1.487 . S
C1363 C1360 1.382 . S
C1363 C1364 1.387 . S
C1363 H1380 0.930 . S
C1364 C1362 1.381 . S
C1364 C1363 1.387 . S
C1364 H1381 0.931 . S
C1365 C1358 1.399 . S
C1365 C1362 1.487 . S
C1365 N1382 1.343 . S
H1366 C1338 0.931 . S
H1367 C1340 0.930 . S
H1368 C1342 0.930 . S
H1369 C1343 0.931 . S
H1370 C1345 0.931 . S
H1371 C1347 0.930 . S
H1372 C1349 0.930 . S
H1373 C1350 0.931 . S
H1374 C1352 0.931 . S
H1375 C1354 0.930 . S
H1376 C1356 0.930 . S
H1377 C1357 0.931 . S
H1378 C1359 0.931 . S
H1379 C1361 0.930 . S
H1380 C1363 0.930 . S
H1381 C1364 0.931 . S
N1382 C1344 1.343 . S
N1382 C1365 1.343 . S
N1383 C1351 1.343 . S
N1383 C1358 1.343 . S
C1384 C1385 1.384 . S
C1384 C1386 1.384 . S
C1384 H1412 0.931 . S
C1385 C1384 1.384 . S
C1385 C1388 1.382 . S
C1386 C1384 1.384 . S
C1386 C1387 1.381 . S
C1386 H1413 0.930 . S
C1387 C1386 1.381 . S
C1387 C1389 1.381 . S
C1387 C1390 1.487 . S
C1388 C1385 1.382 . S
C1388 C1389 1.387 . S
C1388 H1414 0.930 . S
C1389 C1387 1.381 . S
C1389 C1388 1.387 . S
C1389 H1415 0.931 . S
C1390 C1387 1.487 . S
C1390 C1397 1.399 . S
C1390 N1428 1.343 . S
C1391 C1392 1.384 . S
C1391 C1393 1.384 . S
C1391 H1416 0.931 . S
C1392 C1391 1.384 . S
C1392 C1395 1.382 . S
C1393 C1391 1.384 . S
C1393 C1394 1.381 . S
C1393 H1417 0.930 . S
C1394 C1393 1.381 . S
C1394 C1396 1.381 . S
C1394 C1397 1.487 . S
C1395 C1392 1.382 . S
C1395 C1396 1.387 . S
C1395 H1418 0.930 . S
C1396 C1394 1.381 . S
C1396 C1395 1.387 . S
C1396 H1419 0.931 . S
C1397 C1390 1.399 . S
C1397 C1394 1.487 . S
C1397 N1429 1.343 . S
C1398 C1399 1.384 . S
C1398 C1400 1.384 . S
C1398 H1420 0.931 . S
C1399 C1398 1.384 . S
C1399 C1402 1.382 . S
C1400 C1398 1.384 . S
C1400 C1401 1.381 . S
C1400 H1421 0.930 . S
C1401 C1400 1.381 . S
C1401 C1403 1.381 . S
C1401 C1404 1.487 . S
C1402 C1399 1.382 . S
C1402 C1403 1.387 . S
C1402 H1422 0.930 . S
C1403 C1401 1.381 . S
C1403 C1402 1.387 . S
C1403 H1423 0.931 . S
C1404 C1401 1.487 . S
C1404 C1411 1.399 . S
C1404 N1429 1.343 . S
C1405 C1406 1.384 . S
C1405 C1407 1.384 . S
C1405 H1424 0.931 . S
C1406 C1405 1.384 . S
C1406 C1409 1.382 . S
C1407 C1405 1.384 . S
C1407 C1408 1.381 . S
C1407 H1425 0.930 . S
C1408 C1407 1.381 . S
C1408 C1410 1.381 . S
C1408 C1411 1.487 . S
C1409 C1406 1.382 . S
C1409 C1410 1.387 . S
C1409 H1426 0.930 . S
C1410 C1408 1.381 . S
C1410 C1409 1.387 . S
C1410 H1427 0.931 . S
C1411 C1404 1.399 . S
C1411 C1408 1.487 . S
C1411 N1428 1.343 . S
H1412 C1384 0.931 . S
H1413 C1386 0.930 . S
H1414 C1388 0.930 . S
H1415 C1389 0.931 . S
H1416 C1391 0.931 . S
H1417 C1393 0.930 . S
H1418 C1395 0.930 . S
H1419 C1396 0.931 . S
H1420 C1398 0.931 . S
H1421 C1400 0.930 . S
H1422 C1402 0.930 . S
H1423 C1403 0.931 . S
H1424 C1405 0.931 . S
H1425 C1407 0.930 . S
H1426 C1409 0.930 . S
H1427 C1410 0.931 . S
N1428 C1390 1.343 . S
N1428 C1411 1.343 . S
N1429 C1397 1.343 . S
N1429 C1404 1.343 . S
C1430 C1431 1.384 . S
C1430 C1432 1.384 . S
C1430 H1458 0.931 . S
C1431 C1430 1.384 . S
C1431 C1434 1.382 . S
C1432 C1430 1.384 . S
C1432 C1433 1.381 . S
C1432 H1459 0.930 . S
C1433 C1432 1.381 . S
C1433 C1435 1.381 . S
C1433 C1436 1.487 . S
C1434 C1431 1.382 . S
C1434 C1435 1.387 . S
C1434 H1460 0.930 . S
C1435 C1433 1.381 . S
C1435 C1434 1.387 . S
C1435 H1461 0.931 . S
C1436 C1433 1.487 . S
C1436 C1443 1.399 . S
C1436 N1474 1.343 . S
C1437 C1438 1.384 . S
C1437 C1439 1.384 . S
C1437 H1462 0.931 . S
C1438 C1437 1.384 . S
C1438 C1441 1.382 . S
C1439 C1437 1.384 . S
C1439 C1440 1.381 . S
C1439 H1463 0.930 . S
C1440 C1439 1.381 . S
C1440 C1442 1.381 . S
C1440 C1443 1.487 . S
C1441 C1438 1.382 . S
C1441 C1442 1.387 . S
C1441 H1464 0.930 . S
C1442 C1440 1.381 . S
C1442 C1441 1.387 . S
C1442 H1465 0.931 . S
C1443 C1436 1.399 . S
C1443 C1440 1.487 . S
C1443 N1475 1.343 . S
C1444 C1445 1.384 . S
C1444 C1446 1.384 . S
C1444 H1466 0.931 . S
C1445 C1444 1.384 . S
C1445 C1448 1.382 . S
C1446 C1444 1.384 . S
C1446 C1447 1.381 . S
C1446 H1467 0.930 . S
C1447 C1446 1.381 . S
C1447 C1449 1.381 . S
C1447 C1450 1.487 . S
C1448 C1445 1.382 . S
C1448 C1449 1.387 . S
C1448 H1468 0.930 . S
C1449 C1447 1.381 . S
C1449 C1448 1.387 . S
C1449 H1469 0.931 . S
C1450 C1447 1.487 . S
C1450 C1457 1.399 . S
C1450 N1475 1.343 . S
C1451 C1452 1.384 . S
C1451 C1453 1.384 . S
C1451 H1470 0.931 . S
C1452 C1451 1.384 . S
C1452 C1455 1.382 . S
C1453 C1451 1.384 . S
C1453 C1454 1.381 . S
C1453 H1471 0.930 . S
C1454 C1453 1.381 . S
C1454 C1456 1.381 . S
C1454 C1457 1.487 . S
C1455 C1452 1.382 . S
C1455 C1456 1.387 . S
C1455 H1472 0.930 . S
C1456 C1454 1.381 . S
C1456 C1455 1.387 . S
C1456 H1473 0.931 . S
C1457 C1450 1.399 . S
C1457 C1454 1.487 . S
C1457 N1474 1.343 . S
H1458 C1430 0.931 . S
H1459 C1432 0.930 . S
H1460 C1434 0.930 . S
H1461 C1435 0.931 . S
H1462 C1437 0.931 . S
H1463 C1439 0.930 . S
H1464 C1441 0.930 . S
H1465 C1442 0.931 . S
H1466 C1444 0.931 . S
H1467 C1446 0.930 . S
H1468 C1448 0.930 . S
H1469 C1449 0.931 . S
H1470 C1451 0.931 . S
H1471 C1453 0.930 . S
H1472 C1455 0.930 . S
H1473 C1456 0.931 . S
N1474 C1436 1.343 . S
N1474 C1457 1.343 . S
N1475 C1443 1.343 . S
N1475 C1450 1.343 . S
H1476 C1494 0.951 . S
H1477 C1496 0.951 . S
H1478 C1498 0.950 . S
H1479 C1499 0.950 . S
H1480 C1501 0.950 . S
H1481 C1504 0.950 1_455 S
H1482 C1505 0.950 . S
H1483 C1507 0.950 . S
H1484 C1508 0.950 . S
H1485 C1509 0.951 . S
H1486 C1511 0.951 . S
H1487 C1513 0.950 . S
H1488 C1514 0.950 . S
H1489 C1516 0.950 . S
H1490 C1519 0.950 1_655 S
H1491 C1520 0.954 . S
H1492 C1522 0.950 . S
H1493 C1523 0.950 . S
C1494 H1476 0.951 . S
C1494 C1495 1.366 . S
C1494 C1496 1.388 . S
C1495 C1494 1.366 . S
C1495 C1499 1.385 1_655 S
C1496 H1477 0.951 . S
C1496 C1494 1.388 . S
C1496 C1497 1.366 . S
C1497 C1496 1.366 . S
C1497 C1498 1.414 1_655 S
C1497 C1500 1.499 . S
C1498 H1478 0.950 . S
C1498 C1497 1.414 1_455 S
C1498 C1499 1.374 . S
C1499 H1479 0.950 . S
C1499 C1495 1.385 1_455 S
C1499 C1498 1.374 . S
C1500 C1497 1.499 . S
C1500 C1501 1.373 1_655 S
C1500 C1502 1.389 . S
C1501 H1480 0.950 . S
C1501 C1500 1.373 1_455 S
C1501 C1517 1.377 . S
C1502 C1500 1.389 . S
C1502 C1503 1.524 . S
C1502 C1516 1.377 . S
C1503 C1502 1.524 . S
C1503 C1504 1.397 . S
C1503 C1508 1.363 . S
C1504 H1481 0.950 1_655 S
C1504 C1503 1.397 . S
C1504 C1505 1.334 . S
C1505 H1482 0.950 . S
C1505 C1504 1.334 . S
C1505 C1506 1.287 . S
C1506 C1505 1.287 . S
C1506 C1507 1.524 . S
C1506 H1525 0.913 . S
C1507 H1483 0.950 . S
C1507 C1506 1.524 . S
C1507 C1508 1.415 . S
C1508 H1484 0.950 . S
C1508 C1503 1.363 . S
C1508 C1507 1.415 . S
C1509 H1485 0.951 . S
C1509 C1510 1.366 1_455 S
C1509 C1511 1.388 . S
C1510 C1509 1.366 1_655 S
C1510 C1514 1.385 . S
C1511 H1486 0.951 . S
C1511 C1509 1.388 . S
C1511 C1512 1.366 1_455 S
C1512 C1511 1.366 1_655 S
C1512 C1513 1.414 . S
C1512 C1515 1.499 . S
C1513 H1487 0.950 . S
C1513 C1512 1.414 . S
C1513 C1514 1.374 . S
C1514 H1488 0.950 . S
C1514 C1510 1.385 . S
C1514 C1513 1.374 . S
C1515 C1512 1.499 . S
C1515 C1516 1.373 . S
C1515 C1517 1.389 1_655 S
C1516 H1489 0.950 . S
C1516 C1502 1.377 . S
C1516 C1515 1.373 . S
C1517 C1501 1.377 . S
C1517 C1515 1.389 1_455 S
C1517 C1518 1.524 . S
C1518 C1517 1.524 . S
C1518 C1519 1.397 . S
C1518 C1523 1.363 . S
C1519 H1490 0.950 1_455 S
C1519 C1518 1.397 . S
C1519 C1520 1.334 . S
C1520 H1491 0.954 . S
C1520 C1519 1.334 . S
C1520 C1521 1.287 . S
C1521 C1520 1.287 . S
C1521 C1522 1.524 . S
C1521 H1524 0.999 . S
C1522 H1492 0.950 . S
C1522 C1521 1.524 . S
C1522 C1523 1.415 . S
C1523 H1493 0.950 . S
C1523 C1518 1.363 . S
C1523 C1522 1.415 . S
H1524 C1521 0.999 . S
H1525 C1506 0.913 . S
H1526 C1544 0.951 . S
H1527 C1546 0.951 . S
H1528 C1548 0.950 . S
H1529 C1549 0.950 . S
H1530 C1551 0.950 . S
H1531 C1554 0.950 . S
H1532 C1555 0.950 . S
H1533 C1557 0.950 . S
H1534 C1558 0.950 . S
H1535 C1559 0.951 . S
H1536 C1561 0.951 . S
H1537 C1563 0.950 . S
H1538 C1564 0.950 . S
H1539 C1566 0.950 . S
H1540 C1569 0.950 . S
H1541 C1570 0.950 . S
H1542 C1572 0.950 . S
H1543 C1573 0.950 . S
C1544 H1526 0.951 . S
C1544 C1545 1.366 . S
C1544 C1546 1.388 . S
C1545 C1544 1.366 . S
C1545 C1549 1.385 . S
C1546 H1527 0.951 . S
C1546 C1544 1.388 . S
C1546 C1547 1.366 . S
C1547 C1546 1.366 . S
C1547 C1548 1.414 . S
C1547 C1550 1.499 . S
C1548 H1528 0.950 . S
C1548 C1547 1.414 . S
C1548 C1549 1.374 . S
C1549 H1529 0.950 . S
C1549 C1545 1.385 . S
C1549 C1548 1.374 . S
C1550 C1547 1.499 . S
C1550 C1551 1.373 . S
C1550 C1552 1.389 . S
C1551 H1530 0.950 . S
C1551 C1550 1.373 . S
C1551 C1567 1.377 . S
C1552 C1550 1.389 . S
C1552 C1553 1.524 . S
C1552 C1566 1.377 . S
C1553 C1552 1.524 . S
C1553 C1554 1.397 . S
C1553 C1558 1.363 . S
C1554 H1531 0.950 . S
C1554 C1553 1.397 . S
C1554 C1555 1.334 . S
C1555 H1532 0.950 . S
C1555 C1554 1.334 . S
C1555 C1556 1.287 . S
C1556 C1555 1.287 . S
C1556 C1557 1.524 . S
C1556 H1575 0.913 . S
C1557 H1533 0.950 . S
C1557 C1556 1.524 . S
C1557 C1558 1.415 . S
C1558 H1534 0.950 . S
C1558 C1553 1.363 . S
C1558 C1557 1.415 . S
C1559 H1535 0.951 . S
C1559 C1560 1.366 . S
C1559 C1561 1.388 . S
C1560 C1559 1.366 . S
C1560 C1564 1.385 . S
C1561 H1536 0.951 . S
C1561 C1559 1.388 . S
C1561 C1562 1.366 . S
C1562 C1561 1.366 . S
C1562 C1563 1.414 . S
C1562 C1565 1.499 . S
C1563 H1537 0.950 . S
C1563 C1562 1.414 . S
C1563 C1564 1.374 . S
C1564 H1538 0.950 . S
C1564 C1560 1.385 . S
C1564 C1563 1.374 . S
C1565 C1562 1.499 . S
C1565 C1566 1.373 . S
C1565 C1567 1.389 . S
C1566 H1539 0.950 . S
C1566 C1552 1.377 . S
C1566 C1565 1.373 . S
C1567 C1551 1.377 . S
C1567 C1565 1.389 . S
C1567 C1568 1.524 . S
C1568 C1567 1.524 . S
C1568 C1569 1.397 . S
C1568 C1573 1.363 . S
C1569 H1540 0.950 . S
C1569 C1568 1.397 . S
C1569 C1570 1.334 . S
C1570 H1541 0.950 . S
C1570 C1569 1.334 . S
C1570 C1571 1.287 . S
C1571 C1570 1.287 . S
C1571 C1572 1.524 . S
C1571 H1574 0.999 . S
C1572 H1542 0.950 . S
C1572 C1571 1.524 . S
C1572 C1573 1.415 . S
C1573 H1543 0.950 . S
C1573 C1568 1.363 . S
C1573 C1572 1.415 . S
H1574 C1571 0.999 . S
H1575 C1556 0.913 . S
H1576 C1594 0.951 . S
H1577 C1596 0.951 . S
H1578 C1598 0.949 1_565 S
H1579 C1599 0.959 1_565 S
H1580 C1601 0.950 . S
H1581 C1604 0.950 . S
H1582 C1605 0.950 . S
H1583 C1607 0.950 . S
H1584 C1608 0.950 . S
H1585 C1609 0.950 . S
H1586 C1611 0.967 1_565 S
H1587 C1613 0.950 . S
H1588 C1614 0.950 . S
H1589 C1616 0.950 . S
H1590 C1619 0.950 . S
H1591 C1620 0.950 . S
H1592 C1622 0.950 . S
H1593 C1623 0.950 . S
C1594 H1576 0.951 . S
C1594 C1595 1.366 . S
C1594 C1596 1.388 . S
C1595 C1594 1.366 . S
C1595 C1599 1.385 . S
C1596 H1577 0.951 . S
C1596 C1594 1.388 . S
C1596 C1597 1.366 . S
C1597 C1596 1.366 . S
C1597 C1598 1.414 . S
C1597 C1600 1.499 . S
C1598 H1578 0.949 1_545 S
C1598 C1597 1.414 . S
C1598 C1599 1.374 . S
C1599 H1579 0.959 1_545 S
C1599 C1595 1.385 . S
C1599 C1598 1.374 . S
C1600 C1597 1.499 . S
C1600 C1601 1.373 . S
C1600 C1602 1.389 1_545 S
C1601 H1580 0.950 . S
C1601 C1600 1.373 . S
C1601 C1617 1.377 . S
C1602 C1600 1.389 1_565 S
C1602 C1603 1.524 . S
C1602 C1616 1.377 . S
C1603 C1602 1.524 . S
C1603 C1604 1.397 . S
C1603 C1608 1.363 . S
C1604 H1581 0.950 . S
C1604 C1603 1.397 . S
C1604 C1605 1.334 . S
C1605 H1582 0.950 . S
C1605 C1604 1.334 . S
C1605 C1606 1.287 . S
C1606 C1605 1.287 . S
C1606 C1607 1.524 . S
C1606 H1625 0.913 . S
C1607 H1583 0.950 . S
C1607 C1606 1.524 . S
C1607 C1608 1.415 . S
C1608 H1584 0.950 . S
C1608 C1603 1.363 . S
C1608 C1607 1.415 . S
C1609 H1585 0.950 . S
C1609 C1610 1.363 1_565 S
C1609 C1611 1.371 1_565 S
C1610 C1609 1.363 1_545 S
C1610 C1614 1.385 . S
C1611 H1586 0.967 1_545 S
C1611 C1609 1.371 1_545 S
C1611 C1612 1.372 . S
C1612 C1611 1.372 . S
C1612 C1613 1.414 . S
C1612 C1615 1.499 . S
C1613 H1587 0.950 . S
C1613 C1612 1.414 . S
C1613 C1614 1.374 . S
C1614 H1588 0.950 . S
C1614 C1610 1.385 . S
C1614 C1613 1.374 . S
C1615 C1612 1.499 . S
C1615 C1616 1.373 1_545 S
C1615 C1617 1.389 . S
C1616 H1589 0.950 . S
C1616 C1602 1.377 . S
C1616 C1615 1.373 1_565 S
C1617 C1601 1.377 . S
C1617 C1615 1.389 . S
C1617 C1618 1.524 . S
C1618 C1617 1.524 . S
C1618 C1619 1.397 . S
C1618 C1623 1.363 . S
C1619 H1590 0.950 . S
C1619 C1618 1.397 . S
C1619 C1620 1.334 . S
C1620 H1591 0.950 . S
C1620 C1619 1.334 . S
C1620 C1621 1.287 . S
C1621 C1620 1.287 . S
C1621 C1622 1.524 . S
C1621 H1624 0.999 . S
C1622 H1592 0.950 . S
C1622 C1621 1.524 . S
C1622 C1623 1.415 . S
C1623 H1593 0.950 . S
C1623 C1618 1.363 . S
C1623 C1622 1.415 . S
H1624 C1621 0.999 . S
H1625 C1606 0.913 . S
H1626 C1644 0.951 . S
H1627 C1646 0.951 . S
H1628 C1648 0.950 . S
H1629 C1649 0.950 . S
H1630 C1651 0.950 . S
H1631 C1654 0.950 . S
H1632 C1655 0.950 . S
H1633 C1657 0.950 . S
H1634 C1658 0.950 . S
H1635 C1659 0.951 . S
H1636 C1661 0.951 . S
H1637 C1663 0.898 1_545 S
H1638 C1664 0.932 1_545 S
H1639 C1666 0.950 . S
H1640 C1669 0.950 . S
H1641 C1670 0.950 . S
H1642 C1672 0.950 . S
H1643 C1673 0.950 . S
C1644 H1626 0.951 . S
C1644 C1645 1.366 . S
C1644 C1646 1.388 . S
C1645 C1644 1.366 . S
C1645 C1649 1.385 . S
C1646 H1627 0.951 . S
C1646 C1644 1.388 . S
C1646 C1647 1.366 . S
C1647 C1646 1.366 . S
C1647 C1648 1.414 . S
C1647 C1650 1.499 . S
C1648 H1628 0.950 . S
C1648 C1647 1.414 . S
C1648 C1649 1.374 . S
C1649 H1629 0.950 . S
C1649 C1645 1.385 . S
C1649 C1648 1.374 . S
C1650 C1647 1.499 . S
C1650 C1651 1.373 1_565 S
C1650 C1652 1.389 . S
C1651 H1630 0.950 . S
C1651 C1650 1.373 1_545 S
C1651 C1667 1.377 . S
C1652 C1650 1.389 . S
C1652 C1653 1.524 . S
C1652 C1666 1.377 . S
C1653 C1652 1.524 . S
C1653 C1654 1.397 . S
C1653 C1658 1.363 . S
C1654 H1631 0.950 . S
C1654 C1653 1.397 . S
C1654 C1655 1.334 . S
C1655 H1632 0.950 . S
C1655 C1654 1.334 . S
C1655 C1656 1.287 . S
C1656 C1655 1.287 . S
C1656 C1657 1.524 . S
C1656 H1675 0.913 . S
C1657 H1633 0.950 . S
C1657 C1656 1.524 . S
C1657 C1658 1.415 . S
C1658 H1634 0.950 . S
C1658 C1653 1.363 . S
C1658 C1657 1.415 . S
C1659 H1635 0.951 . S
C1659 C1660 1.366 . S
C1659 C1661 1.388 . S
C1660 C1659 1.366 . S
C1660 C1664 1.409 . S
C1661 H1636 0.951 . S
C1661 C1659 1.388 . S
C1661 C1662 1.366 . S
C1662 C1661 1.366 . S
C1662 C1663 1.422 . S
C1662 C1665 1.499 . S
C1663 H1637 0.898 1_565 S
C1663 C1662 1.422 . S
C1663 C1664 1.375 . S
C1664 H1638 0.932 1_565 S
C1664 C1660 1.409 . S
C1664 C1663 1.375 . S
C1665 C1662 1.499 . S
C1665 C1666 1.373 . S
C1665 C1667 1.389 1_565 S
C1666 H1639 0.950 . S
C1666 C1652 1.377 . S
C1666 C1665 1.373 . S
C1667 C1651 1.377 . S
C1667 C1665 1.389 1_545 S
C1667 C1668 1.524 . S
C1668 C1667 1.524 . S
C1668 C1669 1.397 . S
C1668 C1673 1.363 . S
C1669 H1640 0.950 . S
C1669 C1668 1.397 . S
C1669 C1670 1.334 . S
C1670 H1641 0.950 . S
C1670 C1669 1.334 . S
C1670 C1671 1.287 . S
C1671 C1670 1.287 . S
C1671 C1672 1.524 . S
C1671 H1674 0.999 . S
C1672 H1642 0.950 . S
C1672 C1671 1.524 . S
C1672 C1673 1.415 . S
C1673 H1643 0.950 . S
C1673 C1668 1.363 . S
C1673 C1672 1.415 . S
H1674 C1671 0.999 . S
H1675 C1656 0.913 . S
H1676 C1694 0.951 . S
H1677 C1696 0.951 . S
H1678 C1698 0.987 . S
H1679 C1699 0.949 . S
H1680 C1701 0.950 . S
H1681 C1704 0.950 . S
H1682 C1705 0.950 . S
H1683 C1707 0.949 . S
H1684 C1708 0.950 . S
H1685 C1709 0.951 . S
H1686 C1711 0.951 . S
H1687 C1713 0.950 . S
H1688 C1714 0.950 . S
H1689 C1716 0.909 1_655 S
H1690 C1719 0.950 . S
H1691 C1720 0.950 . S
H1692 C1722 0.950 . S
H1693 C1723 0.950 . S
C1694 H1676 0.951 . S
C1694 C1695 1.366 . S
C1694 C1696 1.388 . S
C1695 C1694 1.366 . S
C1695 C1699 1.380 1_455 S
C1696 H1677 0.951 . S
C1696 C1694 1.388 . S
C1696 C1697 1.366 . S
C1697 C1696 1.366 . S
C1697 C1698 1.424 1_455 S
C1697 C1700 1.499 . S
C1698 H1678 0.987 . S
C1698 C1697 1.424 1_655 S
C1698 C1699 1.342 . S
C1699 H1679 0.949 . S
C1699 C1695 1.380 1_655 S
C1699 C1698 1.342 . S
C1700 C1697 1.499 . S
C1700 C1701 1.373 . S
C1700 C1702 1.389 . S
C1701 H1680 0.950 . S
C1701 C1700 1.373 . S
C1701 C1717 1.377 . S
C1702 C1700 1.389 . S
C1702 C1703 1.524 1_455 S
C1702 C1716 1.377 . S
C1703 C1702 1.524 1_655 S
C1703 C1704 1.397 . S
C1703 C1708 1.363 1_655 S
C1704 H1681 0.950 . S
C1704 C1703 1.397 . S
C1704 C1705 1.334 . S
C1705 H1682 0.950 . S
C1705 C1704 1.334 . S
C1705 C1706 1.287 . S
C1706 C1705 1.287 . S
C1706 C1707 1.524 . S
C1706 H1725 0.913 . S
C1707 H1683 0.949 . S
C1707 C1706 1.524 . S
C1707 C1708 1.415 1_655 S
C1708 H1684 0.950 . S
C1708 C1703 1.363 1_455 S
C1708 C1707 1.415 1_455 S
C1709 H1685 0.951 . S
C1709 C1710 1.366 1_655 S
C1709 C1711 1.388 . S
C1710 C1709 1.366 1_455 S
C1710 C1714 1.385 . S
C1711 H1686 0.951 . S
C1711 C1709 1.388 . S
C1711 C1712 1.366 1_655 S
C1712 C1711 1.366 1_455 S
C1712 C1713 1.414 . S
C1712 C1715 1.499 . S
C1713 H1687 0.950 . S
C1713 C1712 1.414 . S
C1713 C1714 1.374 . S
C1714 H1688 0.950 . S
C1714 C1710 1.385 . S
C1714 C1713 1.374 . S
C1715 C1712 1.499 . S
C1715 C1716 1.373 . S
C1715 C1717 1.389 . S
C1716 H1689 0.909 1_455 S
C1716 C1702 1.377 . S
C1716 C1715 1.373 . S
C1717 C1701 1.377 . S
C1717 C1715 1.389 . S
C1717 C1718 1.524 . S
C1718 C1717 1.524 . S
C1718 C1719 1.397 . S
C1718 C1723 1.363 . S
C1719 H1690 0.950 . S
C1719 C1718 1.397 . S
C1719 C1720 1.334 . S
C1720 H1691 0.950 . S
C1720 C1719 1.334 . S
C1720 C1721 1.287 . S
C1721 C1720 1.287 . S
C1721 C1722 1.524 . S
C1721 H1724 0.999 . S
C1722 H1692 0.950 . S
C1722 C1721 1.524 . S
C1722 C1723 1.415 . S
C1723 H1693 0.950 . S
C1723 C1718 1.363 . S
C1723 C1722 1.415 . S
H1724 C1721 0.999 . S
H1725 C1706 0.913 . S
H1726 C1744 0.951 . S
H1727 C1746 0.951 . S
H1728 C1748 0.950 . S
H1729 C1749 0.950 . S
H1730 C1751 0.950 . S
H1731 C1754 0.950 . S
H1732 C1755 0.950 . S
H1733 C1757 0.950 . S
H1734 C1758 0.950 . S
H1735 C1759 0.951 . S
H1736 C1761 0.951 . S
H1737 C1763 0.950 . S
H1738 C1764 0.950 . S
H1739 C1766 0.950 . S
H1740 C1769 0.950 . S
H1741 C1770 0.950 . S
H1742 C1772 0.950 . S
H1743 C1773 0.950 . S
C1744 H1726 0.951 . S
C1744 C1745 1.366 . S
C1744 C1746 1.388 . S
C1745 C1744 1.366 . S
C1745 C1749 1.385 . S
C1746 H1727 0.951 . S
C1746 C1744 1.388 . S
C1746 C1747 1.366 . S
C1747 C1746 1.366 . S
C1747 C1748 1.414 . S
C1747 C1750 1.499 . S
C1748 H1728 0.950 . S
C1748 C1747 1.414 . S
C1748 C1749 1.374 . S
C1749 H1729 0.950 . S
C1749 C1745 1.385 . S
C1749 C1748 1.374 . S
C1750 C1747 1.499 . S
C1750 C1751 1.373 . S
C1750 C1752 1.389 . S
C1751 H1730 0.950 . S
C1751 C1750 1.373 . S
C1751 C1767 1.377 . S
C1752 C1750 1.389 . S
C1752 C1753 1.524 . S
C1752 C1766 1.377 . S
C1753 C1752 1.524 . S
C1753 C1754 1.397 . S
C1753 C1758 1.363 . S
C1754 H1731 0.950 . S
C1754 C1753 1.397 . S
C1754 C1755 1.334 . S
C1755 H1732 0.950 . S
C1755 C1754 1.334 . S
C1755 C1756 1.287 . S
C1756 C1755 1.287 . S
C1756 C1757 1.524 . S
C1756 H1775 0.913 . S
C1757 H1733 0.950 . S
C1757 C1756 1.524 . S
C1757 C1758 1.415 . S
C1758 H1734 0.950 . S
C1758 C1753 1.363 . S
C1758 C1757 1.415 . S
C1759 H1735 0.951 . S
C1759 C1760 1.366 . S
C1759 C1761 1.388 . S
C1760 C1759 1.366 . S
C1760 C1764 1.385 . S
C1761 H1736 0.951 . S
C1761 C1759 1.388 . S
C1761 C1762 1.366 . S
C1762 C1761 1.366 . S
C1762 C1763 1.414 . S
C1762 C1765 1.499 . S
C1763 H1737 0.950 . S
C1763 C1762 1.414 . S
C1763 C1764 1.374 . S
C1764 H1738 0.950 . S
C1764 C1760 1.385 . S
C1764 C1763 1.374 . S
C1765 C1762 1.499 . S
C1765 C1766 1.373 . S
C1765 C1767 1.389 . S
C1766 H1739 0.950 . S
C1766 C1752 1.377 . S
C1766 C1765 1.373 . S
C1767 C1751 1.377 . S
C1767 C1765 1.389 . S
C1767 C1768 1.524 . S
C1768 C1767 1.524 . S
C1768 C1769 1.397 . S
C1768 C1773 1.363 . S
C1769 H1740 0.950 . S
C1769 C1768 1.397 . S
C1769 C1770 1.334 . S
C1770 H1741 0.950 . S
C1770 C1769 1.334 . S
C1770 C1771 1.287 . S
C1771 C1770 1.287 . S
C1771 C1772 1.524 . S
C1771 H1774 0.999 . S
C1772 H1742 0.950 . S
C1772 C1771 1.524 . S
C1772 C1773 1.415 . S
C1773 H1743 0.950 . S
C1773 C1768 1.363 . S
C1773 C1772 1.415 . S
H1774 C1771 0.999 . S
H1775 C1756 0.913 . S
H1776 C1794 0.951 . S
H1777 C1796 0.951 . S
H1778 C1798 0.950 . S
H1779 C1799 0.950 . S
H1780 C1801 0.950 . S
H1781 C1804 0.950 . S
H1782 C1805 0.950 . S
H1783 C1807 0.950 . S
H1784 C1808 0.950 . S
H1785 C1809 0.951 . S
H1786 C1811 0.951 . S
H1787 C1813 0.950 . S
H1788 C1814 0.950 . S
H1789 C1816 0.950 . S
H1790 C1819 0.950 . S
H1791 C1820 0.950 . S
H1792 C1822 0.950 . S
H1793 C1823 0.950 . S
C1794 H1776 0.951 . S
C1794 C1795 1.366 . S
C1794 C1796 1.388 . S
C1795 C1794 1.366 . S
C1795 C1799 1.385 1_455 S
C1796 H1777 0.951 . S
C1796 C1794 1.388 . S
C1796 C1797 1.366 . S
C1797 C1796 1.366 . S
C1797 C1798 1.414 1_455 S
C1797 C1800 1.499 . S
C1798 H1778 0.950 . S
C1798 C1797 1.414 1_655 S
C1798 C1799 1.374 . S
C1799 H1779 0.950 . S
C1799 C1795 1.385 1_655 S
C1799 C1798 1.374 . S
C1800 C1797 1.499 . S
C1800 C1801 1.373 1_455 S
C1800 C1802 1.389 . S
C1801 H1780 0.950 . S
C1801 C1800 1.373 1_655 S
C1801 C1817 1.377 . S
C1802 C1800 1.389 . S
C1802 C1803 1.524 . S
C1802 C1816 1.377 . S
C1803 C1802 1.524 . S
C1803 C1804 1.397 . S
C1803 C1808 1.363 . S
C1804 H1781 0.950 . S
C1804 C1803 1.397 . S
C1804 C1805 1.334 . S
C1805 H1782 0.950 . S
C1805 C1804 1.334 . S
C1805 C1806 1.287 . S
C1806 C1805 1.287 . S
C1806 C1807 1.524 . S
C1806 H1825 0.913 . S
C1807 H1783 0.950 . S
C1807 C1806 1.524 . S
C1807 C1808 1.415 . S
C1808 H1784 0.950 . S
C1808 C1803 1.363 . S
C1808 C1807 1.415 . S
C1809 H1785 0.951 . S
C1809 C1810 1.366 1_655 S
C1809 C1811 1.388 . S
C1810 C1809 1.366 1_455 S
C1810 C1814 1.385 . S
C1811 H1786 0.951 . S
C1811 C1809 1.388 . S
C1811 C1812 1.366 1_655 S
C1812 C1811 1.366 1_455 S
C1812 C1813 1.414 . S
C1812 C1815 1.499 . S
C1813 H1787 0.950 . S
C1813 C1812 1.414 . S
C1813 C1814 1.374 . S
C1814 H1788 0.950 . S
C1814 C1810 1.385 . S
C1814 C1813 1.374 . S
C1815 C1812 1.499 . S
C1815 C1816 1.373 . S
C1815 C1817 1.389 1_455 S
C1816 H1789 0.950 . S
C1816 C1802 1.377 . S
C1816 C1815 1.373 . S
C1817 C1801 1.377 . S
C1817 C1815 1.389 1_655 S
C1817 C1818 1.524 . S
C1818 C1817 1.524 . S
C1818 C1819 1.397 . S
C1818 C1823 1.363 . S
C1819 H1790 0.950 . S
C1819 C1818 1.397 . S
C1819 C1820 1.334 . S
C1820 H1791 0.950 . S
C1820 C1819 1.334 . S
C1820 C1821 1.287 . S
C1821 C1820 1.287 . S
C1821 C1822 1.524 . S
C1821 H1824 0.999 . S
C1822 H1792 0.950 . S
C1822 C1821 1.524 . S
C1822 C1823 1.415 . S
C1823 H1793 0.950 . S
C1823 C1818 1.363 . S
C1823 C1822 1.415 . S
H1824 C1821 0.999 . S
H1825 C1806 0.913 . S
H1826 C1844 0.951 . S
H1827 C1846 0.951 . S
H1828 C1848 0.950 . S
H1829 C1849 0.950 . S
H1830 C1851 0.950 . S
H1831 C1854 0.950 . S
H1832 C1855 0.950 . S
H1833 C1857 0.950 . S
H1834 C1858 0.950 . S
H1835 C1859 0.951 . S
H1836 C1861 0.951 . S
H1837 C1863 0.950 . S
H1838 C1864 0.950 . S
H1839 C1866 0.950 . S
H1840 C1869 0.950 . S
H1841 C1870 0.950 . S
H1842 C1872 0.950 . S
H1843 C1873 0.950 . S
C1844 H1826 0.951 . S
C1844 C1845 1.366 . S
C1844 C1846 1.388 . S
C1845 C1844 1.366 . S
C1845 C1849 1.385 . S
C1846 H1827 0.951 . S
C1846 C1844 1.388 . S
C1846 C1847 1.366 . S
C1847 C1846 1.366 . S
C1847 C1848 1.414 . S
C1847 C1850 1.499 . S
C1848 H1828 0.950 . S
C1848 C1847 1.414 . S
C1848 C1849 1.374 . S
C1849 H1829 0.950 . S
C1849 C1845 1.385 . S
C1849 C1848 1.374 . S
C1850 C1847 1.499 . S
C1850 C1851 1.373 . S
C1850 C1852 1.389 . S
C1851 H1830 0.950 . S
C1851 C1850 1.373 . S
C1851 C1867 1.377 . S
C1852 C1850 1.389 . S
C1852 C1853 1.524 . S
C1852 C1866 1.377 . S
C1853 C1852 1.524 . S
C1853 C1854 1.397 . S
C1853 C1858 1.363 . S
C1854 H1831 0.950 . S
C1854 C1853 1.397 . S
C1854 C1855 1.334 . S
C1855 H1832 0.950 . S
C1855 C1854 1.334 . S
C1855 C1856 1.287 . S
C1856 C1855 1.287 . S
C1856 C1857 1.524 . S
C1856 H1875 0.913 . S
C1857 H1833 0.950 . S
C1857 C1856 1.524 . S
C1857 C1858 1.415 . S
C1858 H1834 0.950 . S
C1858 C1853 1.363 . S
C1858 C1857 1.415 . S
C1859 H1835 0.951 . S
C1859 C1860 1.366 . S
C1859 C1861 1.388 . S
C1860 C1859 1.366 . S
C1860 C1864 1.385 . S
C1861 H1836 0.951 . S
C1861 C1859 1.388 . S
C1861 C1862 1.366 . S
C1862 C1861 1.366 . S
C1862 C1863 1.414 . S
C1862 C1865 1.499 . S
C1863 H1837 0.950 . S
C1863 C1862 1.414 . S
C1863 C1864 1.374 . S
C1864 H1838 0.950 . S
C1864 C1860 1.385 . S
C1864 C1863 1.374 . S
C1865 C1862 1.499 . S
C1865 C1866 1.373 . S
C1865 C1867 1.389 . S
C1866 H1839 0.950 . S
C1866 C1852 1.377 . S
C1866 C1865 1.373 . S
C1867 C1851 1.377 . S
C1867 C1865 1.389 . S
C1867 C1868 1.524 . S
C1868 C1867 1.524 . S
C1868 C1869 1.397 . S
C1868 C1873 1.363 . S
C1869 H1840 0.950 . S
C1869 C1868 1.397 . S
C1869 C1870 1.334 . S
C1870 H1841 0.950 . S
C1870 C1869 1.334 . S
C1870 C1871 1.287 . S
C1871 C1870 1.287 . S
C1871 C1872 1.524 . S
C1871 H1874 0.999 . S
C1872 H1842 0.950 . S
C1872 C1871 1.524 . S
C1872 C1873 1.415 . S
C1873 H1843 0.950 . S
C1873 C1868 1.363 . S
C1873 C1872 1.415 . S
H1874 C1871 0.999 . S
H1875 C1856 0.913 . S
H1876 C1894 0.951 . S
H1877 C1896 0.951 . S
H1878 C1898 0.950 . S
H1879 C1899 0.950 . S
H1880 C1901 0.950 . S
H1881 C1904 0.950 . S
H1882 C1905 0.950 . S
H1883 C1907 0.950 . S
H1884 C1908 0.950 . S
H1885 C1909 0.948 . S
H1886 C1911 0.927 . S
H1887 C1913 0.950 . S
H1888 C1914 0.950 . S
H1889 C1916 0.950 . S
H1890 C1919 0.950 . S
H1891 C1920 0.950 . S
H1892 C1922 0.950 . S
H1893 C1923 0.950 . S
C1894 H1876 0.951 . S
C1894 C1895 1.366 . S
C1894 C1896 1.388 . S
C1895 C1894 1.366 . S
C1895 C1899 1.385 . S
C1896 H1877 0.951 . S
C1896 C1894 1.388 . S
C1896 C1897 1.366 . S
C1897 C1896 1.366 . S
C1897 C1898 1.414 . S
C1897 C1900 1.499 . S
C1898 H1878 0.950 . S
C1898 C1897 1.414 . S
C1898 C1899 1.374 . S
C1899 H1879 0.950 . S
C1899 C1895 1.385 . S
C1899 C1898 1.374 . S
C1900 C1897 1.499 . S
C1900 C1901 1.373 1_565 S
C1900 C1902 1.389 . S
C1901 H1880 0.950 . S
C1901 C1900 1.373 1_545 S
C1901 C1917 1.377 . S
C1902 C1900 1.389 . S
C1902 C1903 1.524 . S
C1902 C1916 1.377 . S
C1903 C1902 1.524 . S
C1903 C1904 1.397 . S
C1903 C1908 1.363 . S
C1904 H1881 0.950 . S
C1904 C1903 1.397 . S
C1904 C1905 1.334 . S
C1905 H1882 0.950 . S
C1905 C1904 1.334 . S
C1905 C1906 1.287 . S
C1906 C1905 1.287 . S
C1906 C1907 1.524 . S
C1906 H1925 0.913 . S
C1907 H1883 0.950 . S
C1907 C1906 1.524 . S
C1907 C1908 1.415 . S
C1908 H1884 0.950 . S
C1908 C1903 1.363 . S
C1908 C1907 1.415 . S
C1909 H1885 0.948 . S
C1909 C1910 1.366 . S
C1909 C1911 1.388 . S
C1910 C1909 1.366 . S
C1910 C1914 1.385 . S
C1911 H1886 0.927 . S
C1911 C1909 1.388 . S
C1911 C1912 1.366 . S
C1912 C1911 1.366 . S
C1912 C1913 1.414 . S
C1912 C1915 1.499 . S
C1913 H1887 0.950 . S
C1913 C1912 1.414 . S
C1913 C1914 1.374 . S
C1914 H1888 0.950 . S
C1914 C1910 1.385 . S
C1914 C1913 1.374 . S
C1915 C1912 1.499 . S
C1915 C1916 1.373 . S
C1915 C1917 1.389 1_565 S
C1916 H1889 0.950 . S
C1916 C1902 1.377 . S
C1916 C1915 1.373 . S
C1917 C1901 1.377 . S
C1917 C1915 1.389 1_545 S
C1917 C1918 1.524 . S
C1918 C1917 1.524 . S
C1918 C1919 1.397 . S
C1918 C1923 1.363 . S
C1919 H1890 0.950 . S
C1919 C1918 1.397 . S
C1919 C1920 1.334 . S
C1920 H1891 0.950 . S
C1920 C1919 1.334 . S
C1920 C1921 1.287 . S
C1921 C1920 1.287 . S
C1921 C1922 1.524 . S
C1921 H1924 0.999 . S
C1922 H1892 0.950 . S
C1922 C1921 1.524 . S
C1922 C1923 1.415 . S
C1923 H1893 0.950 . S
C1923 C1918 1.363 . S
C1923 C1922 1.415 . S
H1924 C1921 0.999 . S
H1925 C1906 0.913 . S
H1926 C1944 0.951 . S
H1927 C1946 0.951 . S
H1928 C1948 0.950 . S
H1929 C1949 0.950 . S
H1930 C1951 0.950 . S
H1931 C1954 0.950 . S
H1932 C1955 0.950 . S
H1933 C1957 0.950 . S
H1934 C1958 0.950 . S
H1935 C1959 0.951 . S
H1936 C1961 0.951 . S
H1937 C1963 0.950 . S
H1938 C1964 0.950 . S
H1939 C1966 0.950 . S
H1940 C1969 0.950 . S
H1941 C1970 0.950 . S
H1942 C1972 0.950 . S
H1943 C1973 0.950 . S
C1944 H1926 0.951 . S
C1944 C1945 1.366 . S
C1944 C1946 1.388 . S
C1945 C1944 1.366 . S
C1945 C1949 1.385 . S
C1946 H1927 0.951 . S
C1946 C1944 1.388 . S
C1946 C1947 1.366 . S
C1947 C1946 1.366 . S
C1947 C1948 1.414 . S
C1947 C1950 1.499 . S
C1948 H1928 0.950 . S
C1948 C1947 1.414 . S
C1948 C1949 1.374 . S
C1949 H1929 0.950 . S
C1949 C1945 1.385 . S
C1949 C1948 1.374 . S
C1950 C1947 1.499 . S
C1950 C1951 1.373 1_545 S
C1950 C1952 1.389 . S
C1951 H1930 0.950 . S
C1951 C1950 1.373 1_565 S
C1951 C1967 1.377 . S
C1952 C1950 1.389 . S
C1952 C1953 1.524 . S
C1952 C1966 1.377 . S
C1953 C1952 1.524 . S
C1953 C1954 1.397 . S
C1953 C1958 1.363 . S
C1954 H1931 0.950 . S
C1954 C1953 1.397 . S
C1954 C1955 1.334 . S
C1955 H1932 0.950 . S
C1955 C1954 1.334 . S
C1955 C1956 1.287 . S
C1956 C1955 1.287 . S
C1956 C1957 1.524 . S
C1956 H1975 0.913 . S
C1957 H1933 0.950 . S
C1957 C1956 1.524 . S
C1957 C1958 1.415 . S
C1958 H1934 0.950 . S
C1958 C1953 1.363 . S
C1958 C1957 1.415 . S
C1959 H1935 0.951 . S
C1959 C1960 1.366 . S
C1959 C1961 1.388 . S
C1960 C1959 1.366 . S
C1960 C1964 1.385 . S
C1961 H1936 0.951 . S
C1961 C1959 1.388 . S
C1961 C1962 1.366 . S
C1962 C1961 1.366 . S
C1962 C1963 1.414 . S
C1962 C1965 1.499 . S
C1963 H1937 0.950 . S
C1963 C1962 1.414 . S
C1963 C1964 1.374 . S
C1964 H1938 0.950 . S
C1964 C1960 1.385 . S
C1964 C1963 1.374 . S
C1965 C1962 1.499 . S
C1965 C1966 1.373 . S
C1965 C1967 1.389 1_545 S
C1966 H1939 0.950 . S
C1966 C1952 1.377 . S
C1966 C1965 1.373 . S
C1967 C1951 1.377 . S
C1967 C1965 1.389 1_565 S
C1967 C1968 1.524 . S
C1968 C1967 1.524 . S
C1968 C1969 1.397 . S
C1968 C1973 1.363 . S
C1969 H1940 0.950 . S
C1969 C1968 1.397 . S
C1969 C1970 1.334 . S
C1970 H1941 0.950 . S
C1970 C1969 1.334 . S
C1970 C1971 1.287 . S
C1971 C1970 1.287 . S
C1971 C1972 1.524 . S
C1971 H1974 0.999 . S
C1972 H1942 0.950 . S
C1972 C1971 1.524 . S
C1972 C1973 1.415 . S
C1973 H1943 0.950 . S
C1973 C1968 1.363 . S
C1973 C1972 1.415 . S
H1974 C1971 0.999 . S
H1975 C1956 0.913 . S
H1976 C1994 0.951 . S
H1977 C1996 0.951 . S
H1978 C1998 0.950 . S
H1979 C1999 0.950 . S
H1980 C2001 0.950 . S
H1981 C2004 0.950 . S
H1982 C2005 0.950 . S
H1983 C2007 0.950 . S
H1984 C2008 0.950 . S
H1985 C2009 0.951 . S
H1986 C2011 0.951 . S
H1987 C2013 0.950 . S
H1988 C2014 0.950 . S
H1989 C2016 0.950 . S
H1990 C2019 0.950 . S
H1991 C2020 0.950 . S
H1992 C2022 0.950 . S
H1993 C2023 0.950 . S
C1994 H1976 0.951 . S
C1994 C1995 1.366 1_455 S
C1994 C1996 1.388 . S
C1995 C1994 1.366 1_655 S
C1995 C1999 1.385 . S
C1996 H1977 0.951 . S
C1996 C1994 1.388 . S
C1996 C1997 1.366 1_455 S
C1997 C1996 1.366 1_655 S
C1997 C1998 1.414 . S
C1997 C2000 1.499 . S
C1998 H1978 0.950 . S
C1998 C1997 1.414 . S
C1998 C1999 1.374 . S
C1999 H1979 0.950 . S
C1999 C1995 1.385 . S
C1999 C1998 1.374 . S
C2000 C1997 1.499 . S
C2000 C2001 1.373 . S
C2000 C2002 1.389 1_655 S
C2001 H1980 0.950 . S
C2001 C2000 1.373 . S
C2001 C2017 1.377 . S
C2002 C2000 1.389 1_455 S
C2002 C2003 1.524 . S
C2002 C2016 1.377 . S
C2003 C2002 1.524 . S
C2003 C2004 1.397 . S
C2003 C2008 1.363 . S
C2004 H1981 0.950 . S
C2004 C2003 1.397 . S
C2004 C2005 1.334 . S
C2005 H1982 0.950 . S
C2005 C2004 1.334 . S
C2005 C2006 1.287 . S
C2006 C2005 1.287 . S
C2006 C2007 1.524 . S
C2006 H2025 0.913 . S
C2007 H1983 0.950 . S
C2007 C2006 1.524 . S
C2007 C2008 1.415 . S
C2008 H1984 0.950 . S
C2008 C2003 1.363 . S
C2008 C2007 1.415 . S
C2009 H1985 0.951 . S
C2009 C2010 1.366 . S
C2009 C2011 1.388 . S
C2010 C2009 1.366 . S
C2010 C2014 1.385 1_655 S
C2011 H1986 0.951 . S
C2011 C2009 1.388 . S
C2011 C2012 1.366 . S
C2012 C2011 1.366 . S
C2012 C2013 1.414 1_655 S
C2012 C2015 1.499 . S
C2013 H1987 0.950 . S
C2013 C2012 1.414 1_455 S
C2013 C2014 1.374 . S
C2014 H1988 0.950 . S
C2014 C2010 1.385 1_455 S
C2014 C2013 1.374 . S
C2015 C2012 1.499 . S
C2015 C2016 1.373 1_655 S
C2015 C2017 1.389 . S
C2016 H1989 0.950 . S
C2016 C2002 1.377 . S
C2016 C2015 1.373 1_455 S
C2017 C2001 1.377 . S
C2017 C2015 1.389 . S
C2017 C2018 1.524 . S
C2018 C2017 1.524 . S
C2018 C2019 1.397 . S
C2018 C2023 1.363 . S
C2019 H1990 0.950 . S
C2019 C2018 1.397 . S
C2019 C2020 1.334 . S
C2020 H1991 0.950 . S
C2020 C2019 1.334 . S
C2020 C2021 1.287 . S
C2021 C2020 1.287 . S
C2021 C2022 1.524 . S
C2021 H2024 0.999 . S
C2022 H1992 0.950 . S
C2022 C2021 1.524 . S
C2022 C2023 1.415 . S
C2023 H1993 0.950 . S
C2023 C2018 1.363 . S
C2023 C2022 1.415 . S
H2024 C2021 0.999 . S
H2025 C2006 0.913 . S
H2026 C2044 0.951 . S
H2027 C2046 0.951 . S
H2028 C2048 0.950 . S
H2029 C2049 0.950 . S
H2030 C2051 0.950 . S
H2031 C2054 0.950 . S
H2032 C2055 0.950 . S
H2033 C2057 0.950 . S
H2034 C2058 0.950 . S
H2035 C2059 0.951 . S
H2036 C2061 0.951 . S
H2037 C2063 0.950 . S
H2038 C2064 0.950 . S
H2039 C2066 0.950 . S
H2040 C2069 0.950 . S
H2041 C2070 0.950 . S
H2042 C2072 0.950 . S
H2043 C2073 0.950 . S
C2044 H2026 0.951 . S
C2044 C2045 1.366 . S
C2044 C2046 1.388 . S
C2045 C2044 1.366 . S
C2045 C2049 1.385 . S
C2046 H2027 0.951 . S
C2046 C2044 1.388 . S
C2046 C2047 1.366 . S
C2047 C2046 1.366 . S
C2047 C2048 1.414 . S
C2047 C2050 1.499 . S
C2048 H2028 0.950 . S
C2048 C2047 1.414 . S
C2048 C2049 1.374 . S
C2049 H2029 0.950 . S
C2049 C2045 1.385 . S
C2049 C2048 1.374 . S
C2050 C2047 1.499 . S
C2050 C2051 1.373 . S
C2050 C2052 1.389 . S
C2051 H2030 0.950 . S
C2051 C2050 1.373 . S
C2051 C2067 1.377 . S
C2052 C2050 1.389 . S
C2052 C2053 1.524 . S
C2052 C2066 1.377 . S
C2053 C2052 1.524 . S
C2053 C2054 1.397 . S
C2053 C2058 1.363 . S
C2054 H2031 0.950 . S
C2054 C2053 1.397 . S
C2054 C2055 1.334 . S
C2055 H2032 0.950 . S
C2055 C2054 1.334 . S
C2055 C2056 1.287 . S
C2056 C2055 1.287 . S
C2056 C2057 1.524 . S
C2056 H2075 0.913 . S
C2057 H2033 0.950 . S
C2057 C2056 1.524 . S
C2057 C2058 1.415 . S
C2058 H2034 0.950 . S
C2058 C2053 1.363 . S
C2058 C2057 1.415 . S
C2059 H2035 0.951 . S
C2059 C2060 1.366 . S
C2059 C2061 1.388 . S
C2060 C2059 1.366 . S
C2060 C2064 1.385 . S
C2061 H2036 0.951 . S
C2061 C2059 1.388 . S
C2061 C2062 1.366 . S
C2062 C2061 1.366 . S
C2062 C2063 1.414 . S
C2062 C2065 1.499 . S
C2063 H2037 0.950 . S
C2063 C2062 1.414 . S
C2063 C2064 1.374 . S
C2064 H2038 0.950 . S
C2064 C2060 1.385 . S
C2064 C2063 1.374 . S
C2065 C2062 1.499 . S
C2065 C2066 1.373 . S
C2065 C2067 1.389 . S
C2066 H2039 0.950 . S
C2066 C2052 1.377 . S
C2066 C2065 1.373 . S
C2067 C2051 1.377 . S
C2067 C2065 1.389 . S
C2067 C2068 1.524 . S
C2068 C2067 1.524 . S
C2068 C2069 1.397 . S
C2068 C2073 1.363 . S
C2069 H2040 0.950 . S
C2069 C2068 1.397 . S
C2069 C2070 1.334 . S
C2070 H2041 0.950 . S
C2070 C2069 1.334 . S
C2070 C2071 1.287 . S
C2071 C2070 1.287 . S
C2071 C2072 1.524 . S
C2071 H2074 0.999 . S
C2072 H2042 0.950 . S
C2072 C2071 1.524 . S
C2072 C2073 1.415 . S
C2073 H2043 0.950 . S
C2073 C2068 1.363 . S
C2073 C2072 1.415 . S
H2074 C2071 0.999 . S
H2075 C2056 0.913 . S
H2076 C2094 0.951 . S
H2077 C2096 0.951 . S
H2078 C2098 0.950 . S
H2079 C2099 0.950 . S
H2080 C2101 0.950 . S
H2081 C2104 0.950 . S
H2082 C2105 0.950 . S
H2083 C2107 0.950 . S
H2084 C2108 0.950 . S
H2085 C2109 0.951 . S
H2086 C2111 0.951 . S
H2087 C2113 0.950 . S
H2088 C2114 0.950 . S
H2089 C2116 0.950 . S
H2090 C2119 0.950 . S
H2091 C2120 0.950 . S
H2092 C2122 0.950 . S
H2093 C2123 0.950 . S
C2094 H2076 0.951 . S
C2094 C2095 1.366 . S
C2094 C2096 1.388 . S
C2095 C2094 1.366 . S
C2095 C2099 1.385 . S
C2096 H2077 0.951 . S
C2096 C2094 1.388 . S
C2096 C2097 1.366 . S
C2097 C2096 1.366 . S
C2097 C2098 1.414 . S
C2097 C2100 1.499 . S
C2098 H2078 0.950 . S
C2098 C2097 1.414 . S
C2098 C2099 1.374 . S
C2099 H2079 0.950 . S
C2099 C2095 1.385 . S
C2099 C2098 1.374 . S
C2100 C2097 1.499 . S
C2100 C2101 1.373 . S
C2100 C2102 1.389 . S
C2101 H2080 0.950 . S
C2101 C2100 1.373 . S
C2101 C2117 1.377 . S
C2102 C2100 1.389 . S
C2102 C2103 1.524 . S
C2102 C2116 1.377 . S
C2103 C2102 1.524 . S
C2103 C2104 1.397 . S
C2103 C2108 1.363 . S
C2104 H2081 0.950 . S
C2104 C2103 1.397 . S
C2104 C2105 1.334 . S
C2105 H2082 0.950 . S
C2105 C2104 1.334 . S
C2105 C2106 1.287 . S
C2106 C2105 1.287 . S
C2106 C2107 1.524 . S
C2106 H2125 0.913 . S
C2107 H2083 0.950 . S
C2107 C2106 1.524 . S
C2107 C2108 1.415 . S
C2108 H2084 0.950 . S
C2108 C2103 1.363 . S
C2108 C2107 1.415 . S
C2109 H2085 0.951 . S
C2109 C2110 1.366 . S
C2109 C2111 1.388 . S
C2110 C2109 1.366 . S
C2110 C2114 1.385 . S
C2111 H2086 0.951 . S
C2111 C2109 1.388 . S
C2111 C2112 1.366 . S
C2112 C2111 1.366 . S
C2112 C2113 1.414 . S
C2112 C2115 1.499 . S
C2113 H2087 0.950 . S
C2113 C2112 1.414 . S
C2113 C2114 1.374 . S
C2114 H2088 0.950 . S
C2114 C2110 1.385 . S
C2114 C2113 1.374 . S
C2115 C2112 1.499 . S
C2115 C2116 1.373 . S
C2115 C2117 1.389 . S
C2116 H2089 0.950 . S
C2116 C2102 1.377 . S
C2116 C2115 1.373 . S
C2117 C2101 1.377 . S
C2117 C2115 1.389 . S
C2117 C2118 1.524 . S
C2118 C2117 1.524 . S
C2118 C2119 1.397 . S
C2118 C2123 1.363 . S
C2119 H2090 0.950 . S
C2119 C2118 1.397 . S
C2119 C2120 1.334 . S
C2120 H2091 0.950 . S
C2120 C2119 1.334 . S
C2120 C2121 1.287 . S
C2121 C2120 1.287 . S
C2121 C2122 1.524 . S
C2121 H2124 0.999 . S
C2122 H2092 0.950 . S
C2122 C2121 1.524 . S
C2122 C2123 1.415 . S
C2123 H2093 0.950 . S
C2123 C2118 1.363 . S
C2123 C2122 1.415 . S
H2124 C2121 0.999 . S
H2125 C2106 0.913 . S
H2126 C2144 0.951 . S
H2127 C2146 0.951 . S
H2128 C2148 0.950 . S
H2129 C2149 0.950 . S
H2130 C2151 0.950 . S
H2131 C2154 0.950 . S
H2132 C2155 0.950 . S
H2133 C2157 0.950 . S
H2134 C2158 0.950 . S
H2135 C2159 0.951 . S
H2136 C2161 0.951 . S
H2137 C2163 0.950 . S
H2138 C2164 0.950 . S
H2139 C2166 0.950 . S
H2140 C2169 0.950 . S
H2141 C2170 0.950 . S
H2142 C2172 0.950 . S
H2143 C2173 0.950 . S
C2144 H2126 0.951 . S
C2144 C2145 1.366 . S
C2144 C2146 1.388 . S
C2145 C2144 1.366 . S
C2145 C2149 1.385 . S
C2146 H2127 0.951 . S
C2146 C2144 1.388 . S
C2146 C2147 1.366 . S
C2147 C2146 1.366 . S
C2147 C2148 1.414 . S
C2147 C2150 1.499 . S
C2148 H2128 0.950 . S
C2148 C2147 1.414 . S
C2148 C2149 1.374 . S
C2149 H2129 0.950 . S
C2149 C2145 1.385 . S
C2149 C2148 1.374 . S
C2150 C2147 1.499 . S
C2150 C2151 1.373 . S
C2150 C2152 1.389 . S
C2151 H2130 0.950 . S
C2151 C2150 1.373 . S
C2151 C2167 1.377 . S
C2152 C2150 1.389 . S
C2152 C2153 1.524 . S
C2152 C2166 1.377 . S
C2153 C2152 1.524 . S
C2153 C2154 1.397 . S
C2153 C2158 1.363 . S
C2154 H2131 0.950 . S
C2154 C2153 1.397 . S
C2154 C2155 1.334 . S
C2155 H2132 0.950 . S
C2155 C2154 1.334 . S
C2155 C2156 1.287 . S
C2156 C2155 1.287 . S
C2156 C2157 1.524 . S
C2156 H2175 0.913 . S
C2157 H2133 0.950 . S
C2157 C2156 1.524 . S
C2157 C2158 1.415 . S
C2158 H2134 0.950 . S
C2158 C2153 1.363 . S
C2158 C2157 1.415 . S
C2159 H2135 0.951 . S
C2159 C2160 1.366 . S
C2159 C2161 1.388 . S
C2160 C2159 1.366 . S
C2160 C2164 1.385 . S
C2161 H2136 0.951 . S
C2161 C2159 1.388 . S
C2161 C2162 1.366 . S
C2162 C2161 1.366 . S
C2162 C2163 1.414 . S
C2162 C2165 1.499 . S
C2163 H2137 0.950 . S
C2163 C2162 1.414 . S
C2163 C2164 1.374 . S
C2164 H2138 0.950 . S
C2164 C2160 1.385 . S
C2164 C2163 1.374 . S
C2165 C2162 1.499 . S
C2165 C2166 1.373 . S
C2165 C2167 1.389 . S
C2166 H2139 0.950 . S
C2166 C2152 1.377 . S
C2166 C2165 1.373 . S
C2167 C2151 1.377 . S
C2167 C2165 1.389 . S
C2167 C2168 1.524 . S
C2168 C2167 1.524 . S
C2168 C2169 1.397 . S
C2168 C2173 1.363 . S
C2169 H2140 0.950 . S
C2169 C2168 1.397 . S
C2169 C2170 1.334 . S
C2170 H2141 0.950 . S
C2170 C2169 1.334 . S
C2170 C2171 1.287 . S
C2171 C2170 1.287 . S
C2171 C2172 1.524 . S
C2171 H2174 0.999 . S
C2172 H2142 0.950 . S
C2172 C2171 1.524 . S
C2172 C2173 1.415 . S
C2173 H2143 0.950 . S
C2173 C2168 1.363 . S
C2173 C2172 1.415 . S
H2174 C2171 0.999 . S
H2175 C2156 0.913 . S
H2176 C2194 0.951 . S
H2177 C2196 0.951 . S
H2178 C2198 0.950 . S
H2179 C2199 0.950 . S
H2180 C2201 0.950 . S
H2181 C2204 0.950 . S
H2182 C2205 0.950 . S
H2183 C2207 0.950 . S
H2184 C2208 0.950 . S
H2185 C2209 0.951 . S
H2186 C2211 0.951 . S
H2187 C2213 0.950 . S
H2188 C2214 0.950 . S
H2189 C2216 0.950 . S
H2190 C2219 0.950 . S
H2191 C2220 0.950 . S
H2192 C2222 0.950 . S
H2193 C2223 0.950 . S
C2194 H2176 0.951 . S
C2194 C2195 1.366 . S
C2194 C2196 1.388 . S
C2195 C2194 1.366 . S
C2195 C2199 1.385 . S
C2196 H2177 0.951 . S
C2196 C2194 1.388 . S
C2196 C2197 1.366 . S
C2197 C2196 1.366 . S
C2197 C2198 1.414 . S
C2197 C2200 1.499 . S
C2198 H2178 0.950 . S
C2198 C2197 1.414 . S
C2198 C2199 1.374 . S
C2199 H2179 0.950 . S
C2199 C2195 1.385 . S
C2199 C2198 1.374 . S
C2200 C2197 1.499 . S
C2200 C2201 1.373 . S
C2200 C2202 1.389 . S
C2201 H2180 0.950 . S
C2201 C2200 1.373 . S
C2201 C2217 1.377 . S
C2202 C2200 1.389 . S
C2202 C2203 1.524 . S
C2202 C2216 1.377 . S
C2203 C2202 1.524 . S
C2203 C2204 1.397 . S
C2203 C2208 1.363 . S
C2204 H2181 0.950 . S
C2204 C2203 1.397 . S
C2204 C2205 1.334 . S
C2205 H2182 0.950 . S
C2205 C2204 1.334 . S
C2205 C2206 1.287 . S
C2206 C2205 1.287 . S
C2206 C2207 1.524 . S
C2206 H2225 0.913 . S
C2207 H2183 0.950 . S
C2207 C2206 1.524 . S
C2207 C2208 1.415 . S
C2208 H2184 0.950 . S
C2208 C2203 1.363 . S
C2208 C2207 1.415 . S
C2209 H2185 0.951 . S
C2209 C2210 1.366 . S
C2209 C2211 1.388 . S
C2210 C2209 1.366 . S
C2210 C2214 1.385 . S
C2211 H2186 0.951 . S
C2211 C2209 1.388 . S
C2211 C2212 1.366 . S
C2212 C2211 1.366 . S
C2212 C2213 1.414 . S
C2212 C2215 1.499 . S
C2213 H2187 0.950 . S
C2213 C2212 1.414 . S
C2213 C2214 1.374 . S
C2214 H2188 0.950 . S
C2214 C2210 1.385 . S
C2214 C2213 1.374 . S
C2215 C2212 1.499 . S
C2215 C2216 1.373 . S
C2215 C2217 1.389 . S
C2216 H2189 0.950 . S
C2216 C2202 1.377 . S
C2216 C2215 1.373 . S
C2217 C2201 1.377 . S
C2217 C2215 1.389 . S
C2217 C2218 1.524 . S
C2218 C2217 1.524 . S
C2218 C2219 1.397 . S
C2218 C2223 1.363 . S
C2219 H2190 0.950 . S
C2219 C2218 1.397 . S
C2219 C2220 1.334 . S
C2220 H2191 0.950 . S
C2220 C2219 1.334 . S
C2220 C2221 1.287 . S
C2221 C2220 1.287 . S
C2221 C2222 1.524 . S
C2221 H2224 0.999 . S
C2222 H2192 0.950 . S
C2222 C2221 1.524 . S
C2222 C2223 1.415 . S
C2223 H2193 0.950 . S
C2223 C2218 1.363 . S
C2223 C2222 1.415 . S
H2224 C2221 0.999 . S
H2225 C2206 0.913 . S
H2226 C2244 0.951 . S
H2227 C2246 0.951 . S
H2228 C2248 0.950 . S
H2229 C2249 0.950 . S
H2230 C2251 0.950 . S
H2231 C2254 0.950 . S
H2232 C2255 0.950 . S
H2233 C2257 0.950 . S
H2234 C2258 0.950 . S
H2235 C2259 0.951 . S
H2236 C2261 0.951 . S
H2237 C2263 0.950 . S
H2238 C2264 0.950 . S
H2239 C2266 0.950 . S
H2240 C2269 0.950 . S
H2241 C2270 0.950 . S
H2242 C2272 0.950 . S
H2243 C2273 0.950 . S
C2244 H2226 0.951 . S
C2244 C2245 1.366 . S
C2244 C2246 1.388 . S
C2245 C2244 1.366 . S
C2245 C2249 1.385 . S
C2246 H2227 0.951 . S
C2246 C2244 1.388 . S
C2246 C2247 1.366 . S
C2247 C2246 1.366 . S
C2247 C2248 1.414 . S
C2247 C2250 1.499 . S
C2248 H2228 0.950 . S
C2248 C2247 1.414 . S
C2248 C2249 1.374 . S
C2249 H2229 0.950 . S
C2249 C2245 1.385 . S
C2249 C2248 1.374 . S
C2250 C2247 1.499 . S
C2250 C2251 1.373 . S
C2250 C2252 1.389 . S
C2251 H2230 0.950 . S
C2251 C2250 1.373 . S
C2251 C2267 1.377 . S
C2252 C2250 1.389 . S
C2252 C2253 1.524 . S
C2252 C2266 1.377 . S
C2253 C2252 1.524 . S
C2253 C2254 1.397 . S
C2253 C2258 1.363 . S
C2254 H2231 0.950 . S
C2254 C2253 1.397 . S
C2254 C2255 1.334 . S
C2255 H2232 0.950 . S
C2255 C2254 1.334 . S
C2255 C2256 1.287 . S
C2256 C2255 1.287 . S
C2256 C2257 1.524 . S
C2256 H2275 0.913 . S
C2257 H2233 0.950 . S
C2257 C2256 1.524 . S
C2257 C2258 1.415 . S
C2258 H2234 0.950 . S
C2258 C2253 1.363 . S
C2258 C2257 1.415 . S
C2259 H2235 0.951 . S
C2259 C2260 1.366 . S
C2259 C2261 1.388 . S
C2260 C2259 1.366 . S
C2260 C2264 1.385 . S
C2261 H2236 0.951 . S
C2261 C2259 1.388 . S
C2261 C2262 1.366 . S
C2262 C2261 1.366 . S
C2262 C2263 1.414 . S
C2262 C2265 1.499 . S
C2263 H2237 0.950 . S
C2263 C2262 1.414 . S
C2263 C2264 1.374 . S
C2264 H2238 0.950 . S
C2264 C2260 1.385 . S
C2264 C2263 1.374 . S
C2265 C2262 1.499 . S
C2265 C2266 1.373 . S
C2265 C2267 1.389 . S
C2266 H2239 0.950 . S
C2266 C2252 1.377 . S
C2266 C2265 1.373 . S
C2267 C2251 1.377 . S
C2267 C2265 1.389 . S
C2267 C2268 1.524 . S
C2268 C2267 1.524 . S
C2268 C2269 1.397 . S
C2268 C2273 1.363 . S
C2269 H2240 0.950 . S
C2269 C2268 1.397 . S
C2269 C2270 1.334 . S
C2270 H2241 0.950 . S
C2270 C2269 1.334 . S
C2270 C2271 1.287 . S
C2271 C2270 1.287 . S
C2271 C2272 1.524 . S
C2271 H2274 0.999 . S
C2272 H2242 0.950 . S
C2272 C2271 1.524 . S
C2272 C2273 1.415 . S
C2273 H2243 0.950 . S
C2273 C2268 1.363 . S
C2273 C2272 1.415 . S
H2274 C2271 0.999 . S
H2275 C2256 0.913 . S
H2276 C2294 0.951 . S
H2277 C2296 0.951 . S
H2278 C2298 0.950 . S
H2279 C2299 0.950 . S
H2280 C2301 0.950 . S
H2281 C2304 0.950 . S
H2282 C2305 0.950 . S
H2283 C2307 0.950 . S
H2284 C2308 0.950 . S
H2285 C2309 0.951 . S
H2286 C2311 0.951 . S
H2287 C2313 0.950 . S
H2288 C2314 0.950 . S
H2289 C2316 0.950 . S
H2290 C2319 0.950 . S
H2291 C2320 0.950 . S
H2292 C2322 0.950 . S
H2293 C2323 0.950 . S
C2294 H2276 0.951 . S
C2294 C2295 1.366 . S
C2294 C2296 1.388 . S
C2295 C2294 1.366 . S
C2295 C2299 1.385 . S
C2296 H2277 0.951 . S
C2296 C2294 1.388 . S
C2296 C2297 1.366 . S
C2297 C2296 1.366 . S
C2297 C2298 1.414 . S
C2297 C2300 1.499 . S
C2298 H2278 0.950 . S
C2298 C2297 1.414 . S
C2298 C2299 1.374 . S
C2299 H2279 0.950 . S
C2299 C2295 1.385 . S
C2299 C2298 1.374 . S
C2300 C2297 1.499 . S
C2300 C2301 1.373 . S
C2300 C2302 1.389 . S
C2301 H2280 0.950 . S
C2301 C2300 1.373 . S
C2301 C2317 1.377 . S
C2302 C2300 1.389 . S
C2302 C2303 1.524 . S
C2302 C2316 1.377 . S
C2303 C2302 1.524 . S
C2303 C2304 1.397 . S
C2303 C2308 1.363 . S
C2304 H2281 0.950 . S
C2304 C2303 1.397 . S
C2304 C2305 1.334 . S
C2305 H2282 0.950 . S
C2305 C2304 1.334 . S
C2305 C2306 1.287 . S
C2306 C2305 1.287 . S
C2306 C2307 1.524 . S
C2306 H2325 0.913 . S
C2307 H2283 0.950 . S
C2307 C2306 1.524 . S
C2307 C2308 1.415 . S
C2308 H2284 0.950 . S
C2308 C2303 1.363 . S
C2308 C2307 1.415 . S
C2309 H2285 0.951 . S
C2309 C2310 1.366 . S
C2309 C2311 1.388 . S
C2310 C2309 1.366 . S
C2310 C2314 1.385 . S
C2311 H2286 0.951 . S
C2311 C2309 1.388 . S
C2311 C2312 1.366 . S
C2312 C2311 1.366 . S
C2312 C2313 1.414 . S
C2312 C2315 1.499 . S
C2313 H2287 0.950 . S
C2313 C2312 1.414 . S
C2313 C2314 1.374 . S
C2314 H2288 0.950 . S
C2314 C2310 1.385 . S
C2314 C2313 1.374 . S
C2315 C2312 1.499 . S
C2315 C2316 1.373 . S
C2315 C2317 1.389 . S
C2316 H2289 0.950 . S
C2316 C2302 1.377 . S
C2316 C2315 1.373 . S
C2317 C2301 1.377 . S
C2317 C2315 1.389 . S
C2317 C2318 1.524 . S
C2318 C2317 1.524 . S
C2318 C2319 1.397 . S
C2318 C2323 1.363 . S
C2319 H2290 0.950 . S
C2319 C2318 1.397 . S
C2319 C2320 1.334 . S
C2320 H2291 0.950 . S
C2320 C2319 1.334 . S
C2320 C2321 1.287 . S
C2321 C2320 1.287 . S
C2321 C2322 1.524 . S
C2321 H2324 0.999 . S
C2322 H2292 0.950 . S
C2322 C2321 1.524 . S
C2322 C2323 1.415 . S
C2323 H2293 0.950 . S
C2323 C2318 1.363 . S
C2323 C2322 1.415 . S
H2324 C2321 0.999 . S
H2325 C2306 0.913 . S
H2326 C2344 0.951 . S
H2327 C2346 0.951 . S
H2328 C2348 0.950 . S
H2329 C2349 0.950 . S
H2330 C2351 0.950 . S
H2331 C2354 0.950 . S
H2332 C2355 0.950 . S
H2333 C2357 0.950 . S
H2334 C2358 0.950 . S
H2335 C2359 0.951 . S
H2336 C2361 0.951 . S
H2337 C2363 0.950 . S
H2338 C2364 0.950 . S
H2339 C2366 0.950 . S
H2340 C2369 0.950 . S
H2341 C2370 0.950 . S
H2342 C2372 0.950 . S
H2343 C2373 0.950 . S
C2344 H2326 0.951 . S
C2344 C2345 1.366 . S
C2344 C2346 1.388 . S
C2345 C2344 1.366 . S
C2345 C2349 1.385 . S
C2346 H2327 0.951 . S
C2346 C2344 1.388 . S
C2346 C2347 1.366 . S
C2347 C2346 1.366 . S
C2347 C2348 1.414 . S
C2347 C2350 1.499 . S
C2348 H2328 0.950 . S
C2348 C2347 1.414 . S
C2348 C2349 1.374 . S
C2349 H2329 0.950 . S
C2349 C2345 1.385 . S
C2349 C2348 1.374 . S
C2350 C2347 1.499 . S
C2350 C2351 1.373 . S
C2350 C2352 1.389 . S
C2351 H2330 0.950 . S
C2351 C2350 1.373 . S
C2351 C2367 1.377 . S
C2352 C2350 1.389 . S
C2352 C2353 1.524 . S
C2352 C2366 1.377 . S
C2353 C2352 1.524 . S
C2353 C2354 1.397 . S
C2353 C2358 1.363 . S
C2354 H2331 0.950 . S
C2354 C2353 1.397 . S
C2354 C2355 1.334 . S
C2355 H2332 0.950 . S
C2355 C2354 1.334 . S
C2355 C2356 1.287 . S
C2356 C2355 1.287 . S
C2356 C2357 1.524 . S
C2356 H2375 0.913 . S
C2357 H2333 0.950 . S
C2357 C2356 1.524 . S
C2357 C2358 1.415 . S
C2358 H2334 0.950 . S
C2358 C2353 1.363 . S
C2358 C2357 1.415 . S
C2359 H2335 0.951 . S
C2359 C2360 1.366 . S
C2359 C2361 1.388 . S
C2360 C2359 1.366 . S
C2360 C2364 1.385 . S
C2361 H2336 0.951 . S
C2361 C2359 1.388 . S
C2361 C2362 1.366 . S
C2362 C2361 1.366 . S
C2362 C2363 1.414 . S
C2362 C2365 1.499 . S
C2363 H2337 0.950 . S
C2363 C2362 1.414 . S
C2363 C2364 1.374 . S
C2364 H2338 0.950 . S
C2364 C2360 1.385 . S
C2364 C2363 1.374 . S
C2365 C2362 1.499 . S
C2365 C2366 1.373 . S
C2365 C2367 1.389 . S
C2366 H2339 0.950 . S
C2366 C2352 1.377 . S
C2366 C2365 1.373 . S
C2367 C2351 1.377 . S
C2367 C2365 1.389 . S
C2367 C2368 1.524 . S
C2368 C2367 1.524 . S
C2368 C2369 1.397 . S
C2368 C2373 1.363 . S
C2369 H2340 0.950 . S
C2369 C2368 1.397 . S
C2369 C2370 1.334 . S
C2370 H2341 0.950 . S
C2370 C2369 1.334 . S
C2370 C2371 1.287 . S
C2371 C2370 1.287 . S
C2371 C2372 1.524 . S
C2371 H2374 0.999 . S
C2372 H2342 0.950 . S
C2372 C2371 1.524 . S
C2372 C2373 1.415 . S
C2373 H2343 0.950 . S
C2373 C2368 1.363 . S
C2373 C2372 1.415 . S
H2374 C2371 0.999 . S
H2375 C2356 0.913 . S
H2376 C2394 0.951 . S
H2377 C2396 0.951 . S
H2378 C2398 0.950 . S
H2379 C2399 0.950 . S
H2380 C2401 0.950 . S
H2381 C2404 0.950 . S
H2382 C2405 0.950 . S
H2383 C2407 0.950 . S
H2384 C2408 0.950 . S
H2385 C2409 0.951 . S
H2386 C2411 0.951 . S
H2387 C2413 0.950 . S
H2388 C2414 0.950 . S
H2389 C2416 0.950 . S
H2390 C2419 0.950 . S
H2391 C2420 0.950 . S
H2392 C2422 0.950 . S
H2393 C2423 0.950 . S
C2394 H2376 0.951 . S
C2394 C2395 1.366 . S
C2394 C2396 1.388 . S
C2395 C2394 1.366 . S
C2395 C2399 1.385 . S
C2396 H2377 0.951 . S
C2396 C2394 1.388 . S
C2396 C2397 1.366 . S
C2397 C2396 1.366 . S
C2397 C2398 1.414 . S
C2397 C2400 1.499 . S
C2398 H2378 0.950 . S
C2398 C2397 1.414 . S
C2398 C2399 1.374 . S
C2399 H2379 0.950 . S
C2399 C2395 1.385 . S
C2399 C2398 1.374 . S
C2400 C2397 1.499 . S
C2400 C2401 1.373 . S
C2400 C2402 1.389 . S
C2401 H2380 0.950 . S
C2401 C2400 1.373 . S
C2401 C2417 1.377 . S
C2402 C2400 1.389 . S
C2402 C2403 1.524 . S
C2402 C2416 1.377 . S
C2403 C2402 1.524 . S
C2403 C2404 1.397 . S
C2403 C2408 1.363 . S
C2404 H2381 0.950 . S
C2404 C2403 1.397 . S
C2404 C2405 1.334 . S
C2405 H2382 0.950 . S
C2405 C2404 1.334 . S
C2405 C2406 1.287 . S
C2406 C2405 1.287 . S
C2406 C2407 1.524 . S
C2406 H2425 0.913 . S
C2407 H2383 0.950 . S
C2407 C2406 1.524 . S
C2407 C2408 1.415 . S
C2408 H2384 0.950 . S
C2408 C2403 1.363 . S
C2408 C2407 1.415 . S
C2409 H2385 0.951 . S
C2409 C2410 1.366 . S
C2409 C2411 1.388 . S
C2410 C2409 1.366 . S
C2410 C2414 1.385 . S
C2411 H2386 0.951 . S
C2411 C2409 1.388 . S
C2411 C2412 1.366 . S
C2412 C2411 1.366 . S
C2412 C2413 1.414 . S
C2412 C2415 1.499 . S
C2413 H2387 0.950 . S
C2413 C2412 1.414 . S
C2413 C2414 1.374 . S
C2414 H2388 0.950 . S
C2414 C2410 1.385 . S
C2414 C2413 1.374 . S
C2415 C2412 1.499 . S
C2415 C2416 1.373 . S
C2415 C2417 1.389 . S
C2416 H2389 0.950 . S
C2416 C2402 1.377 . S
C2416 C2415 1.373 . S
C2417 C2401 1.377 . S
C2417 C2415 1.389 . S
C2417 C2418 1.524 . S
C2418 C2417 1.524 . S
C2418 C2419 1.397 . S
C2418 C2423 1.363 . S
C2419 H2390 0.950 . S
C2419 C2418 1.397 . S
C2419 C2420 1.334 . S
C2420 H2391 0.950 . S
C2420 C2419 1.334 . S
C2420 C2421 1.287 . S
C2421 C2420 1.287 . S
C2421 C2422 1.524 . S
C2421 H2424 0.999 . S
C2422 H2392 0.950 . S
C2422 C2421 1.524 . S
C2422 C2423 1.415 . S
C2423 H2393 0.950 . S
C2423 C2418 1.363 . S
C2423 C2422 1.415 . S
H2424 C2421 0.999 . S
H2425 C2406 0.913 . S
H2426 C2444 0.951 . S
H2427 C2446 0.951 . S
H2428 C2448 0.950 . S
H2429 C2449 0.950 . S
H2430 C2451 0.950 . S
H2431 C2454 0.950 . S
H2432 C2455 0.950 . S
H2433 C2457 0.950 . S
H2434 C2458 0.950 . S
H2435 C2459 0.951 . S
H2436 C2461 0.951 . S
H2437 C2463 0.950 . S
H2438 C2464 0.950 . S
H2439 C2466 0.950 . S
H2440 C2469 0.950 . S
H2441 C2470 0.950 . S
H2442 C2472 0.950 . S
H2443 C2473 0.950 . S
C2444 H2426 0.951 . S
C2444 C2445 1.366 . S
C2444 C2446 1.388 . S
C2445 C2444 1.366 . S
C2445 C2449 1.385 . S
C2446 H2427 0.951 . S
C2446 C2444 1.388 . S
C2446 C2447 1.366 . S
C2447 C2446 1.366 . S
C2447 C2448 1.414 . S
C2447 C2450 1.499 . S
C2448 H2428 0.950 . S
C2448 C2447 1.414 . S
C2448 C2449 1.374 . S
C2449 H2429 0.950 . S
C2449 C2445 1.385 . S
C2449 C2448 1.374 . S
C2450 C2447 1.499 . S
C2450 C2451 1.373 . S
C2450 C2452 1.389 . S
C2451 H2430 0.950 . S
C2451 C2450 1.373 . S
C2451 C2467 1.377 . S
C2452 C2450 1.389 . S
C2452 C2453 1.524 . S
C2452 C2466 1.377 . S
C2453 C2452 1.524 . S
C2453 C2454 1.397 . S
C2453 C2458 1.363 . S
C2454 H2431 0.950 . S
C2454 C2453 1.397 . S
C2454 C2455 1.334 . S
C2455 H2432 0.950 . S
C2455 C2454 1.334 . S
C2455 C2456 1.287 . S
C2456 C2455 1.287 . S
C2456 C2457 1.524 . S
C2456 H2475 0.913 . S
C2457 H2433 0.950 . S
C2457 C2456 1.524 . S
C2457 C2458 1.415 . S
C2458 H2434 0.950 . S
C2458 C2453 1.363 . S
C2458 C2457 1.415 . S
C2459 H2435 0.951 . S
C2459 C2460 1.366 . S
C2459 C2461 1.388 . S
C2460 C2459 1.366 . S
C2460 C2464 1.385 . S
C2461 H2436 0.951 . S
C2461 C2459 1.388 . S
C2461 C2462 1.366 . S
C2462 C2461 1.366 . S
C2462 C2463 1.414 . S
C2462 C2465 1.499 . S
C2463 H2437 0.950 . S
C2463 C2462 1.414 . S
C2463 C2464 1.374 . S
C2464 H2438 0.950 . S
C2464 C2460 1.385 . S
C2464 C2463 1.374 . S
C2465 C2462 1.499 . S
C2465 C2466 1.373 . S
C2465 C2467 1.389 . S
C2466 H2439 0.950 . S
C2466 C2452 1.377 . S
C2466 C2465 1.373 . S
C2467 C2451 1.377 . S
C2467 C2465 1.389 . S
C2467 C2468 1.524 . S
C2468 C2467 1.524 . S
C2468 C2469 1.397 . S
C2468 C2473 1.363 . S
C2469 H2440 0.950 . S
C2469 C2468 1.397 . S
C2469 C2470 1.334 . S
C2470 H2441 0.950 . S
C2470 C2469 1.334 . S
C2470 C2471 1.287 . S
C2471 C2470 1.287 . S
C2471 C2472 1.524 . S
C2471 H2474 0.999 . S
C2472 H2442 0.950 . S
C2472 C2471 1.524 . S
C2472 C2473 1.415 . S
C2473 H2443 0.950 . S
C2473 C2468 1.363 . S
C2473 C2472 1.415 . S
H2474 C2471 0.999 . S
H2475 C2456 0.913 . S
H2476 C2494 0.951 . S
H2477 C2496 0.951 . S
H2478 C2498 0.950 . S
H2479 C2499 0.950 . S
H2480 C2501 0.950 . S
H2481 C2504 0.950 . S
H2482 C2505 0.950 . S
H2483 C2507 0.950 . S
H2484 C2508 0.950 . S
H2485 C2509 0.951 . S
H2486 C2511 0.951 . S
H2487 C2513 0.950 . S
H2488 C2514 0.950 . S
H2489 C2516 0.950 . S
H2490 C2519 0.950 . S
H2491 C2520 0.950 . S
H2492 C2522 0.950 . S
H2493 C2523 0.950 . S
C2494 H2476 0.951 . S
C2494 C2495 1.366 . S
C2494 C2496 1.388 . S
C2495 C2494 1.366 . S
C2495 C2499 1.385 . S
C2496 H2477 0.951 . S
C2496 C2494 1.388 . S
C2496 C2497 1.366 . S
C2497 C2496 1.366 . S
C2497 C2498 1.414 . S
C2497 C2500 1.499 . S
C2498 H2478 0.950 . S
C2498 C2497 1.414 . S
C2498 C2499 1.374 . S
C2499 H2479 0.950 . S
C2499 C2495 1.385 . S
C2499 C2498 1.374 . S
C2500 C2497 1.499 . S
C2500 C2501 1.373 . S
C2500 C2502 1.389 . S
C2501 H2480 0.950 . S
C2501 C2500 1.373 . S
C2501 C2517 1.377 . S
C2502 C2500 1.389 . S
C2502 C2503 1.524 . S
C2502 C2516 1.377 . S
C2503 C2502 1.524 . S
C2503 C2504 1.397 . S
C2503 C2508 1.363 . S
C2504 H2481 0.950 . S
C2504 C2503 1.397 . S
C2504 C2505 1.334 . S
C2505 H2482 0.950 . S
C2505 C2504 1.334 . S
C2505 C2506 1.287 . S
C2506 C2505 1.287 . S
C2506 C2507 1.524 . S
C2506 H2525 0.913 . S
C2507 H2483 0.950 . S
C2507 C2506 1.524 . S
C2507 C2508 1.415 . S
C2508 H2484 0.950 . S
C2508 C2503 1.363 . S
C2508 C2507 1.415 . S
C2509 H2485 0.951 . S
C2509 C2510 1.366 . S
C2509 C2511 1.388 . S
C2510 C2509 1.366 . S
C2510 C2514 1.385 . S
C2511 H2486 0.951 . S
C2511 C2509 1.388 . S
C2511 C2512 1.366 . S
C2512 C2511 1.366 . S
C2512 C2513 1.414 . S
C2512 C2515 1.499 . S
C2513 H2487 0.950 . S
C2513 C2512 1.414 . S
C2513 C2514 1.374 . S
C2514 H2488 0.950 . S
C2514 C2510 1.385 . S
C2514 C2513 1.374 . S
C2515 C2512 1.499 . S
C2515 C2516 1.373 . S
C2515 C2517 1.389 . S
C2516 H2489 0.950 . S
C2516 C2502 1.377 . S
C2516 C2515 1.373 . S
C2517 C2501 1.377 . S
C2517 C2515 1.389 . S
C2517 C2518 1.524 . S
C2518 C2517 1.524 . S
C2518 C2519 1.397 . S
C2518 C2523 1.363 . S
C2519 H2490 0.950 . S
C2519 C2518 1.397 . S
C2519 C2520 1.334 . S
C2520 H2491 0.950 . S
C2520 C2519 1.334 . S
C2520 C2521 1.287 . S
C2521 C2520 1.287 . S
C2521 C2522 1.524 . S
C2521 H2524 0.999 . S
C2522 H2492 0.950 . S
C2522 C2521 1.524 . S
C2522 C2523 1.415 . S
C2523 H2493 0.950 . S
C2523 C2518 1.363 . S
C2523 C2522 1.415 . S
H2524 C2521 0.999 . S
H2525 C2506 0.913 . S
H2526 C2544 0.951 . S
H2527 C2546 0.951 . S
H2528 C2548 0.950 . S
H2529 C2549 0.950 . S
H2530 C2551 0.950 . S
H2531 C2554 0.950 . S
H2532 C2555 0.950 . S
H2533 C2557 0.950 . S
H2534 C2558 0.950 . S
H2535 C2559 0.951 . S
H2536 C2561 0.951 . S
H2537 C2563 0.950 . S
H2538 C2564 0.950 . S
H2539 C2566 0.950 . S
H2540 C2569 0.950 . S
H2541 C2570 0.950 . S
H2542 C2572 0.950 . S
H2543 C2573 0.950 . S
C2544 H2526 0.951 . S
C2544 C2545 1.366 . S
C2544 C2546 1.388 . S
C2545 C2544 1.366 . S
C2545 C2549 1.385 . S
C2546 H2527 0.951 . S
C2546 C2544 1.388 . S
C2546 C2547 1.366 . S
C2547 C2546 1.366 . S
C2547 C2548 1.414 . S
C2547 C2550 1.499 . S
C2548 H2528 0.950 . S
C2548 C2547 1.414 . S
C2548 C2549 1.374 . S
C2549 H2529 0.950 . S
C2549 C2545 1.385 . S
C2549 C2548 1.374 . S
C2550 C2547 1.499 . S
C2550 C2551 1.373 . S
C2550 C2552 1.389 . S
C2551 H2530 0.950 . S
C2551 C2550 1.373 . S
C2551 C2567 1.377 . S
C2552 C2550 1.389 . S
C2552 C2553 1.524 . S
C2552 C2566 1.377 . S
C2553 C2552 1.524 . S
C2553 C2554 1.397 . S
C2553 C2558 1.363 . S
C2554 H2531 0.950 . S
C2554 C2553 1.397 . S
C2554 C2555 1.334 . S
C2555 H2532 0.950 . S
C2555 C2554 1.334 . S
C2555 C2556 1.287 . S
C2556 C2555 1.287 . S
C2556 C2557 1.524 . S
C2556 H2575 0.913 . S
C2557 H2533 0.950 . S
C2557 C2556 1.524 . S
C2557 C2558 1.415 . S
C2558 H2534 0.950 . S
C2558 C2553 1.363 . S
C2558 C2557 1.415 . S
C2559 H2535 0.951 . S
C2559 C2560 1.366 . S
C2559 C2561 1.388 . S
C2560 C2559 1.366 . S
C2560 C2564 1.385 . S
C2561 H2536 0.951 . S
C2561 C2559 1.388 . S
C2561 C2562 1.366 . S
C2562 C2561 1.366 . S
C2562 C2563 1.414 . S
C2562 C2565 1.499 . S
C2563 H2537 0.950 . S
C2563 C2562 1.414 . S
C2563 C2564 1.374 . S
C2564 H2538 0.950 . S
C2564 C2560 1.385 . S
C2564 C2563 1.374 . S
C2565 C2562 1.499 . S
C2565 C2566 1.373 . S
C2565 C2567 1.389 . S
C2566 H2539 0.950 . S
C2566 C2552 1.377 . S
C2566 C2565 1.373 . S
C2567 C2551 1.377 . S
C2567 C2565 1.389 . S
C2567 C2568 1.524 . S
C2568 C2567 1.524 . S
C2568 C2569 1.397 . S
C2568 C2573 1.363 . S
C2569 H2540 0.950 . S
C2569 C2568 1.397 . S
C2569 C2570 1.334 . S
C2570 H2541 0.950 . S
C2570 C2569 1.334 . S
C2570 C2571 1.287 . S
C2571 C2570 1.287 . S
C2571 C2572 1.524 . S
C2571 H2574 0.999 . S
C2572 H2542 0.950 . S
C2572 C2571 1.524 . S
C2572 C2573 1.415 . S
C2573 H2543 0.950 . S
C2573 C2568 1.363 . S
C2573 C2572 1.415 . S
H2574 C2571 0.999 . S
H2575 C2556 0.913 . S
H2576 C2594 0.951 . S
H2577 C2596 0.951 . S
H2578 C2598 0.950 . S
H2579 C2599 0.950 . S
H2580 C2601 0.950 . S
H2581 C2604 0.950 . S
H2582 C2605 0.950 . S
H2583 C2607 0.950 . S
H2584 C2608 0.950 . S
H2585 C2609 0.951 . S
H2586 C2611 0.951 . S
H2587 C2613 0.950 . S
H2588 C2614 0.950 . S
H2589 C2616 0.950 . S
H2590 C2619 0.950 . S
H2591 C2620 0.950 . S
H2592 C2622 0.950 . S
H2593 C2623 0.950 . S
C2594 H2576 0.951 . S
C2594 C2595 1.366 . S
C2594 C2596 1.388 . S
C2595 C2594 1.366 . S
C2595 C2599 1.385 . S
C2596 H2577 0.951 . S
C2596 C2594 1.388 . S
C2596 C2597 1.366 . S
C2597 C2596 1.366 . S
C2597 C2598 1.414 . S
C2597 C2600 1.499 . S
C2598 H2578 0.950 . S
C2598 C2597 1.414 . S
C2598 C2599 1.374 . S
C2599 H2579 0.950 . S
C2599 C2595 1.385 . S
C2599 C2598 1.374 . S
C2600 C2597 1.499 . S
C2600 C2601 1.373 . S
C2600 C2602 1.389 . S
C2601 H2580 0.950 . S
C2601 C2600 1.373 . S
C2601 C2617 1.377 . S
C2602 C2600 1.389 . S
C2602 C2603 1.524 . S
C2602 C2616 1.377 . S
C2603 C2602 1.524 . S
C2603 C2604 1.397 . S
C2603 C2608 1.363 . S
C2604 H2581 0.950 . S
C2604 C2603 1.397 . S
C2604 C2605 1.334 . S
C2605 H2582 0.950 . S
C2605 C2604 1.334 . S
C2605 C2606 1.287 . S
C2606 C2605 1.287 . S
C2606 C2607 1.524 . S
C2606 H2625 0.913 . S
C2607 H2583 0.950 . S
C2607 C2606 1.524 . S
C2607 C2608 1.415 . S
C2608 H2584 0.950 . S
C2608 C2603 1.363 . S
C2608 C2607 1.415 . S
C2609 H2585 0.951 . S
C2609 C2610 1.366 . S
C2609 C2611 1.388 . S
C2610 C2609 1.366 . S
C2610 C2614 1.385 . S
C2611 H2586 0.951 . S
C2611 C2609 1.388 . S
C2611 C2612 1.366 . S
C2612 C2611 1.366 . S
C2612 C2613 1.414 . S
C2612 C2615 1.499 . S
C2613 H2587 0.950 . S
C2613 C2612 1.414 . S
C2613 C2614 1.374 . S
C2614 H2588 0.950 . S
C2614 C2610 1.385 . S
C2614 C2613 1.374 . S
C2615 C2612 1.499 . S
C2615 C2616 1.373 . S
C2615 C2617 1.389 . S
C2616 H2589 0.950 . S
C2616 C2602 1.377 . S
C2616 C2615 1.373 . S
C2617 C2601 1.377 . S
C2617 C2615 1.389 . S
C2617 C2618 1.524 . S
C2618 C2617 1.524 . S
C2618 C2619 1.397 . S
C2618 C2623 1.363 . S
C2619 H2590 0.950 . S
C2619 C2618 1.397 . S
C2619 C2620 1.334 . S
C2620 H2591 0.950 . S
C2620 C2619 1.334 . S
C2620 C2621 1.287 . S
C2621 C2620 1.287 . S
C2621 C2622 1.524 . S
C2621 H2624 0.999 . S
C2622 H2592 0.950 . S
C2622 C2621 1.524 . S
C2622 C2623 1.415 . S
C2623 H2593 0.950 . S
C2623 C2618 1.363 . S
C2623 C2622 1.415 . S
H2624 C2621 0.999 . S
H2625 C2606 0.913 . S
H2626 C2644 0.951 . S
H2627 C2646 0.951 . S
H2628 C2648 0.950 . S
H2629 C2649 0.950 . S
H2630 C2651 0.950 . S
H2631 C2654 0.950 . S
H2632 C2655 0.950 . S
H2633 C2657 0.950 . S
H2634 C2658 0.950 . S
H2635 C2659 0.951 . S
H2636 C2661 0.951 . S
H2637 C2663 0.950 . S
H2638 C2664 0.950 . S
H2639 C2666 0.950 . S
H2640 C2669 0.950 . S
H2641 C2670 0.950 . S
H2642 C2672 0.950 . S
H2643 C2673 0.950 . S
C2644 H2626 0.951 . S
C2644 C2645 1.366 . S
C2644 C2646 1.388 . S
C2645 C2644 1.366 . S
C2645 C2649 1.385 . S
C2646 H2627 0.951 . S
C2646 C2644 1.388 . S
C2646 C2647 1.366 . S
C2647 C2646 1.366 . S
C2647 C2648 1.414 . S
C2647 C2650 1.499 . S
C2648 H2628 0.950 . S
C2648 C2647 1.414 . S
C2648 C2649 1.374 . S
C2649 H2629 0.950 . S
C2649 C2645 1.385 . S
C2649 C2648 1.374 . S
C2650 C2647 1.499 . S
C2650 C2651 1.373 . S
C2650 C2652 1.389 . S
C2651 H2630 0.950 . S
C2651 C2650 1.373 . S
C2651 C2667 1.377 . S
C2652 C2650 1.389 . S
C2652 C2653 1.524 . S
C2652 C2666 1.377 . S
C2653 C2652 1.524 . S
C2653 C2654 1.397 . S
C2653 C2658 1.363 . S
C2654 H2631 0.950 . S
C2654 C2653 1.397 . S
C2654 C2655 1.334 . S
C2655 H2632 0.950 . S
C2655 C2654 1.334 . S
C2655 C2656 1.287 . S
C2656 C2655 1.287 . S
C2656 C2657 1.524 . S
C2656 H2675 0.913 . S
C2657 H2633 0.950 . S
C2657 C2656 1.524 . S
C2657 C2658 1.415 . S
C2658 H2634 0.950 . S
C2658 C2653 1.363 . S
C2658 C2657 1.415 . S
C2659 H2635 0.951 . S
C2659 C2660 1.366 . S
C2659 C2661 1.388 . S
C2660 C2659 1.366 . S
C2660 C2664 1.385 . S
C2661 H2636 0.951 . S
C2661 C2659 1.388 . S
C2661 C2662 1.366 . S
C2662 C2661 1.366 . S
C2662 C2663 1.414 . S
C2662 C2665 1.499 . S
C2663 H2637 0.950 . S
C2663 C2662 1.414 . S
C2663 C2664 1.374 . S
C2664 H2638 0.950 . S
C2664 C2660 1.385 . S
C2664 C2663 1.374 . S
C2665 C2662 1.499 . S
C2665 C2666 1.373 . S
C2665 C2667 1.389 . S
C2666 H2639 0.950 . S
C2666 C2652 1.377 . S
C2666 C2665 1.373 . S
C2667 C2651 1.377 . S
C2667 C2665 1.389 . S
C2667 C2668 1.524 . S
C2668 C2667 1.524 . S
C2668 C2669 1.397 . S
C2668 C2673 1.363 . S
C2669 H2640 0.950 . S
C2669 C2668 1.397 . S
C2669 C2670 1.334 . S
C2670 H2641 0.950 . S
C2670 C2669 1.334 . S
C2670 C2671 1.287 . S
C2671 C2670 1.287 . S
C2671 C2672 1.524 . S
C2671 H2674 0.999 . S
C2672 H2642 0.950 . S
C2672 C2671 1.524 . S
C2672 C2673 1.415 . S
C2673 H2643 0.950 . S
C2673 C2668 1.363 . S
C2673 C2672 1.415 . S
H2674 C2671 0.999 . S
H2675 C2656 0.913 . S
H2676 C2694 0.951 . S
H2677 C2696 0.951 . S
H2678 C2698 0.950 . S
H2679 C2699 0.950 . S
H2680 C2701 0.950 . S
H2681 C2704 0.950 . S
H2682 C2705 0.950 . S
H2683 C2707 0.950 . S
H2684 C2708 0.950 . S
H2685 C2709 0.951 . S
H2686 C2711 0.951 . S
H2687 C2713 0.950 . S
H2688 C2714 0.950 . S
H2689 C2716 0.950 . S
H2690 C2719 0.950 . S
H2691 C2720 0.950 . S
H2692 C2722 0.950 . S
H2693 C2723 0.950 . S
C2694 H2676 0.951 . S
C2694 C2695 1.366 . S
C2694 C2696 1.388 . S
C2695 C2694 1.366 . S
C2695 C2699 1.385 . S
C2696 H2677 0.951 . S
C2696 C2694 1.388 . S
C2696 C2697 1.366 . S
C2697 C2696 1.366 . S
C2697 C2698 1.414 . S
C2697 C2700 1.499 . S
C2698 H2678 0.950 . S
C2698 C2697 1.414 . S
C2698 C2699 1.374 . S
C2699 H2679 0.950 . S
C2699 C2695 1.385 . S
C2699 C2698 1.374 . S
C2700 C2697 1.499 . S
C2700 C2701 1.373 . S
C2700 C2702 1.389 . S
C2701 H2680 0.950 . S
C2701 C2700 1.373 . S
C2701 C2717 1.377 . S
C2702 C2700 1.389 . S
C2702 C2703 1.524 . S
C2702 C2716 1.377 . S
C2703 C2702 1.524 . S
C2703 C2704 1.397 . S
C2703 C2708 1.363 . S
C2704 H2681 0.950 . S
C2704 C2703 1.397 . S
C2704 C2705 1.334 . S
C2705 H2682 0.950 . S
C2705 C2704 1.334 . S
C2705 C2706 1.287 . S
C2706 C2705 1.287 . S
C2706 C2707 1.524 . S
C2706 H2725 0.913 . S
C2707 H2683 0.950 . S
C2707 C2706 1.524 . S
C2707 C2708 1.415 . S
C2708 H2684 0.950 . S
C2708 C2703 1.363 . S
C2708 C2707 1.415 . S
C2709 H2685 0.951 . S
C2709 C2710 1.366 . S
C2709 C2711 1.388 . S
C2710 C2709 1.366 . S
C2710 C2714 1.385 . S
C2711 H2686 0.951 . S
C2711 C2709 1.388 . S
C2711 C2712 1.366 . S
C2712 C2711 1.366 . S
C2712 C2713 1.414 . S
C2712 C2715 1.499 . S
C2713 H2687 0.950 . S
C2713 C2712 1.414 . S
C2713 C2714 1.374 . S
C2714 H2688 0.950 . S
C2714 C2710 1.385 . S
C2714 C2713 1.374 . S
C2715 C2712 1.499 . S
C2715 C2716 1.373 . S
C2715 C2717 1.389 . S
C2716 H2689 0.950 . S
C2716 C2702 1.377 . S
C2716 C2715 1.373 . S
C2717 C2701 1.377 . S
C2717 C2715 1.389 . S
C2717 C2718 1.524 . S
C2718 C2717 1.524 . S
C2718 C2719 1.397 . S
C2718 C2723 1.363 . S
C2719 H2690 0.950 . S
C2719 C2718 1.397 . S
C2719 C2720 1.334 . S
C2720 H2691 0.950 . S
C2720 C2719 1.334 . S
C2720 C2721 1.287 . S
C2721 C2720 1.287 . S
C2721 C2722 1.524 . S
C2721 H2724 0.999 . S
C2722 H2692 0.950 . S
C2722 C2721 1.524 . S
C2722 C2723 1.415 . S
C2723 H2693 0.950 . S
C2723 C2718 1.363 . S
C2723 C2722 1.415 . S
H2724 C2721 0.999 . S
H2725 C2706 0.913 . S
H2726 C2744 0.951 . S
H2727 C2746 0.951 . S
H2728 C2748 0.950 . S
H2729 C2749 0.950 . S
H2730 C2751 0.950 . S
H2731 C2754 0.950 . S
H2732 C2755 0.950 . S
H2733 C2757 0.950 . S
H2734 C2758 0.950 . S
H2735 C2759 0.951 . S
H2736 C2761 0.951 . S
H2737 C2763 0.950 . S
H2738 C2764 0.950 . S
H2739 C2766 0.950 . S
H2740 C2769 0.950 . S
H2741 C2770 0.950 . S
H2742 C2772 0.950 . S
H2743 C2773 0.950 . S
C2744 H2726 0.951 . S
C2744 C2745 1.366 . S
C2744 C2746 1.388 . S
C2745 C2744 1.366 . S
C2745 C2749 1.385 . S
C2746 H2727 0.951 . S
C2746 C2744 1.388 . S
C2746 C2747 1.366 . S
C2747 C2746 1.366 . S
C2747 C2748 1.414 . S
C2747 C2750 1.499 . S
C2748 H2728 0.950 . S
C2748 C2747 1.414 . S
C2748 C2749 1.374 . S
C2749 H2729 0.950 . S
C2749 C2745 1.385 . S
C2749 C2748 1.374 . S
C2750 C2747 1.499 . S
C2750 C2751 1.373 . S
C2750 C2752 1.389 . S
C2751 H2730 0.950 . S
C2751 C2750 1.373 . S
C2751 C2767 1.377 . S
C2752 C2750 1.389 . S
C2752 C2753 1.524 . S
C2752 C2766 1.377 . S
C2753 C2752 1.524 . S
C2753 C2754 1.397 . S
C2753 C2758 1.363 . S
C2754 H2731 0.950 . S
C2754 C2753 1.397 . S
C2754 C2755 1.334 . S
C2755 H2732 0.950 . S
C2755 C2754 1.334 . S
C2755 C2756 1.287 . S
C2756 C2755 1.287 . S
C2756 C2757 1.524 . S
C2756 H2775 0.913 . S
C2757 H2733 0.950 . S
C2757 C2756 1.524 . S
C2757 C2758 1.415 . S
C2758 H2734 0.950 . S
C2758 C2753 1.363 . S
C2758 C2757 1.415 . S
C2759 H2735 0.951 . S
C2759 C2760 1.366 . S
C2759 C2761 1.388 . S
C2760 C2759 1.366 . S
C2760 C2764 1.385 . S
C2761 H2736 0.951 . S
C2761 C2759 1.388 . S
C2761 C2762 1.366 . S
C2762 C2761 1.366 . S
C2762 C2763 1.414 . S
C2762 C2765 1.499 . S
C2763 H2737 0.950 . S
C2763 C2762 1.414 . S
C2763 C2764 1.374 . S
C2764 H2738 0.950 . S
C2764 C2760 1.385 . S
C2764 C2763 1.374 . S
C2765 C2762 1.499 . S
C2765 C2766 1.373 . S
C2765 C2767 1.389 . S
C2766 H2739 0.950 . S
C2766 C2752 1.377 . S
C2766 C2765 1.373 . S
C2767 C2751 1.377 . S
C2767 C2765 1.389 . S
C2767 C2768 1.524 . S
C2768 C2767 1.524 . S
C2768 C2769 1.397 . S
C2768 C2773 1.363 . S
C2769 H2740 0.950 . S
C2769 C2768 1.397 . S
C2769 C2770 1.334 . S
C2770 H2741 0.950 . S
C2770 C2769 1.334 . S
C2770 C2771 1.287 . S
C2771 C2770 1.287 . S
C2771 C2772 1.524 . S
C2771 H2774 0.999 . S
C2772 H2742 0.950 . S
C2772 C2771 1.524 . S
C2772 C2773 1.415 . S
C2773 H2743 0.950 . S
C2773 C2768 1.363 . S
C2773 C2772 1.415 . S
H2774 C2771 0.999 . S
H2775 C2756 0.913 . S
H2776 C2794 0.951 . S
H2777 C2796 0.951 . S
H2778 C2798 0.950 . S
H2779 C2799 0.950 . S
H2780 C2801 0.950 . S
H2781 C2804 0.950 . S
H2782 C2805 0.950 . S
H2783 C2807 0.950 . S
H2784 C2808 0.950 . S
H2785 C2809 0.951 . S
H2786 C2811 0.951 . S
H2787 C2813 0.950 . S
H2788 C2814 0.950 . S
H2789 C2816 0.950 . S
H2790 C2819 0.950 . S
H2791 C2820 0.950 . S
H2792 C2822 0.950 . S
H2793 C2823 0.950 . S
C2794 H2776 0.951 . S
C2794 C2795 1.366 . S
C2794 C2796 1.388 . S
C2795 C2794 1.366 . S
C2795 C2799 1.385 . S
C2796 H2777 0.951 . S
C2796 C2794 1.388 . S
C2796 C2797 1.366 . S
C2797 C2796 1.366 . S
C2797 C2798 1.414 . S
C2797 C2800 1.499 . S
C2798 H2778 0.950 . S
C2798 C2797 1.414 . S
C2798 C2799 1.374 . S
C2799 H2779 0.950 . S
C2799 C2795 1.385 . S
C2799 C2798 1.374 . S
C2800 C2797 1.499 . S
C2800 C2801 1.373 . S
C2800 C2802 1.389 . S
C2801 H2780 0.950 . S
C2801 C2800 1.373 . S
C2801 C2817 1.377 . S
C2802 C2800 1.389 . S
C2802 C2803 1.524 . S
C2802 C2816 1.377 . S
C2803 C2802 1.524 . S
C2803 C2804 1.397 . S
C2803 C2808 1.363 . S
C2804 H2781 0.950 . S
C2804 C2803 1.397 . S
C2804 C2805 1.334 . S
C2805 H2782 0.950 . S
C2805 C2804 1.334 . S
C2805 C2806 1.287 . S
C2806 C2805 1.287 . S
C2806 C2807 1.524 . S
C2806 H2825 0.913 . S
C2807 H2783 0.950 . S
C2807 C2806 1.524 . S
C2807 C2808 1.415 . S
C2808 H2784 0.950 . S
C2808 C2803 1.363 . S
C2808 C2807 1.415 . S
C2809 H2785 0.951 . S
C2809 C2810 1.366 . S
C2809 C2811 1.388 . S
C2810 C2809 1.366 . S
C2810 C2814 1.385 . S
C2811 H2786 0.951 . S
C2811 C2809 1.388 . S
C2811 C2812 1.366 . S
C2812 C2811 1.366 . S
C2812 C2813 1.414 . S
C2812 C2815 1.499 . S
C2813 H2787 0.950 . S
C2813 C2812 1.414 . S
C2813 C2814 1.374 . S
C2814 H2788 0.950 . S
C2814 C2810 1.385 . S
C2814 C2813 1.374 . S
C2815 C2812 1.499 . S
C2815 C2816 1.373 . S
C2815 C2817 1.389 . S
C2816 H2789 0.950 . S
C2816 C2802 1.377 . S
C2816 C2815 1.373 . S
C2817 C2801 1.377 . S
C2817 C2815 1.389 . S
C2817 C2818 1.524 . S
C2818 C2817 1.524 . S
C2818 C2819 1.397 . S
C2818 C2823 1.363 . S
C2819 H2790 0.950 . S
C2819 C2818 1.397 . S
C2819 C2820 1.334 . S
C2820 H2791 0.950 . S
C2820 C2819 1.334 . S
C2820 C2821 1.287 . S
C2821 C2820 1.287 . S
C2821 C2822 1.524 . S
C2821 H2824 0.999 . S
C2822 H2792 0.950 . S
C2822 C2821 1.524 . S
C2822 C2823 1.415 . S
C2823 H2793 0.950 . S
C2823 C2818 1.363 . S
C2823 C2822 1.415 . S
H2824 C2821 0.999 . S
H2825 C2806 0.913 . S
H2826 C2844 0.951 . S
H2827 C2846 0.951 . S
H2828 C2848 0.950 . S
H2829 C2849 0.950 . S
H2830 C2851 0.950 . S
H2831 C2854 0.950 . S
H2832 C2855 0.950 . S
H2833 C2857 0.950 . S
H2834 C2858 0.950 . S
H2835 C2859 0.951 . S
H2836 C2861 0.951 . S
H2837 C2863 0.950 . S
H2838 C2864 0.950 . S
H2839 C2866 0.950 . S
H2840 C2869 0.950 . S
H2841 C2870 0.950 . S
H2842 C2872 0.950 . S
H2843 C2873 0.950 . S
C2844 H2826 0.951 . S
C2844 C2845 1.366 . S
C2844 C2846 1.388 . S
C2845 C2844 1.366 . S
C2845 C2849 1.385 . S
C2846 H2827 0.951 . S
C2846 C2844 1.388 . S
C2846 C2847 1.366 . S
C2847 C2846 1.366 . S
C2847 C2848 1.414 . S
C2847 C2850 1.499 . S
C2848 H2828 0.950 . S
C2848 C2847 1.414 . S
C2848 C2849 1.374 . S
C2849 H2829 0.950 . S
C2849 C2845 1.385 . S
C2849 C2848 1.374 . S
C2850 C2847 1.499 . S
C2850 C2851 1.373 . S
C2850 C2852 1.389 . S
C2851 H2830 0.950 . S
C2851 C2850 1.373 . S
C2851 C2867 1.377 . S
C2852 C2850 1.389 . S
C2852 C2853 1.524 . S
C2852 C2866 1.377 . S
C2853 C2852 1.524 . S
C2853 C2854 1.397 . S
C2853 C2858 1.363 . S
C2854 H2831 0.950 . S
C2854 C2853 1.397 . S
C2854 C2855 1.334 . S
C2855 H2832 0.950 . S
C2855 C2854 1.334 . S
C2855 C2856 1.287 . S
C2856 C2855 1.287 . S
C2856 C2857 1.524 . S
C2856 H2875 0.913 . S
C2857 H2833 0.950 . S
C2857 C2856 1.524 . S
C2857 C2858 1.415 . S
C2858 H2834 0.950 . S
C2858 C2853 1.363 . S
C2858 C2857 1.415 . S
C2859 H2835 0.951 . S
C2859 C2860 1.366 . S
C2859 C2861 1.388 . S
C2860 C2859 1.366 . S
C2860 C2864 1.385 . S
C2861 H2836 0.951 . S
C2861 C2859 1.388 . S
C2861 C2862 1.366 . S
C2862 C2861 1.366 . S
C2862 C2863 1.414 . S
C2862 C2865 1.499 . S
C2863 H2837 0.950 . S
C2863 C2862 1.414 . S
C2863 C2864 1.374 . S
C2864 H2838 0.950 . S
C2864 C2860 1.385 . S
C2864 C2863 1.374 . S
C2865 C2862 1.499 . S
C2865 C2866 1.373 . S
C2865 C2867 1.389 . S
C2866 H2839 0.950 . S
C2866 C2852 1.377 . S
C2866 C2865 1.373 . S
C2867 C2851 1.377 . S
C2867 C2865 1.389 . S
C2867 C2868 1.524 . S
C2868 C2867 1.524 . S
C2868 C2869 1.397 . S
C2868 C2873 1.363 . S
C2869 H2840 0.950 . S
C2869 C2868 1.397 . S
C2869 C2870 1.334 . S
C2870 H2841 0.950 . S
C2870 C2869 1.334 . S
C2870 C2871 1.287 . S
C2871 C2870 1.287 . S
C2871 C2872 1.524 . S
C2871 H2874 0.999 . S
C2872 H2842 0.950 . S
C2872 C2871 1.524 . S
C2872 C2873 1.415 . S
C2873 H2843 0.950 . S
C2873 C2868 1.363 . S
C2873 C2872 1.415 . S
H2874 C2871 0.999 . S
H2875 C2856 0.913 . S
H2876 C2894 0.951 . S
H2877 C2896 0.951 . S
H2878 C2898 0.950 . S
H2879 C2899 0.950 . S
H2880 C2901 0.950 . S
H2881 C2904 0.950 . S
H2882 C2905 0.950 . S
H2883 C2907 0.950 . S
H2884 C2908 0.950 . S
H2885 C2909 0.951 . S
H2886 C2911 0.951 . S
H2887 C2913 0.950 . S
H2888 C2914 0.950 . S
H2889 C2916 0.950 . S
H2890 C2919 0.950 . S
H2891 C2920 0.950 . S
H2892 C2922 0.950 . S
H2893 C2923 0.950 . S
C2894 H2876 0.951 . S
C2894 C2895 1.366 . S
C2894 C2896 1.388 . S
C2895 C2894 1.366 . S
C2895 C2899 1.385 . S
C2896 H2877 0.951 . S
C2896 C2894 1.388 . S
C2896 C2897 1.366 . S
C2897 C2896 1.366 . S
C2897 C2898 1.414 . S
C2897 C2900 1.499 . S
C2898 H2878 0.950 . S
C2898 C2897 1.414 . S
C2898 C2899 1.374 . S
C2899 H2879 0.950 . S
C2899 C2895 1.385 . S
C2899 C2898 1.374 . S
C2900 C2897 1.499 . S
C2900 C2901 1.373 . S
C2900 C2902 1.389 . S
C2901 H2880 0.950 . S
C2901 C2900 1.373 . S
C2901 C2917 1.377 . S
C2902 C2900 1.389 . S
C2902 C2903 1.524 . S
C2902 C2916 1.377 . S
C2903 C2902 1.524 . S
C2903 C2904 1.397 . S
C2903 C2908 1.363 . S
C2904 H2881 0.950 . S
C2904 C2903 1.397 . S
C2904 C2905 1.334 . S
C2905 H2882 0.950 . S
C2905 C2904 1.334 . S
C2905 C2906 1.287 . S
C2906 C2905 1.287 . S
C2906 C2907 1.524 . S
C2906 H2925 0.913 . S
C2907 H2883 0.950 . S
C2907 C2906 1.524 . S
C2907 C2908 1.415 . S
C2908 H2884 0.950 . S
C2908 C2903 1.363 . S
C2908 C2907 1.415 . S
C2909 H2885 0.951 . S
C2909 C2910 1.366 . S
C2909 C2911 1.388 . S
C2910 C2909 1.366 . S
C2910 C2914 1.385 . S
C2911 H2886 0.951 . S
C2911 C2909 1.388 . S
C2911 C2912 1.366 . S
C2912 C2911 1.366 . S
C2912 C2913 1.414 . S
C2912 C2915 1.499 . S
C2913 H2887 0.950 . S
C2913 C2912 1.414 . S
C2913 C2914 1.374 . S
C2914 H2888 0.950 . S
C2914 C2910 1.385 . S
C2914 C2913 1.374 . S
C2915 C2912 1.499 . S
C2915 C2916 1.373 . S
C2915 C2917 1.389 . S
C2916 H2889 0.950 . S
C2916 C2902 1.377 . S
C2916 C2915 1.373 . S
C2917 C2901 1.377 . S
C2917 C2915 1.389 . S
C2917 C2918 1.524 . S
C2918 C2917 1.524 . S
C2918 C2919 1.397 . S
C2918 C2923 1.363 . S
C2919 H2890 0.950 . S
C2919 C2918 1.397 . S
C2919 C2920 1.334 . S
C2920 H2891 0.950 . S
C2920 C2919 1.334 . S
C2920 C2921 1.287 . S
C2921 C2920 1.287 . S
C2921 C2922 1.524 . S
C2921 H2924 0.999 . S
C2922 H2892 0.950 . S
C2922 C2921 1.524 . S
C2922 C2923 1.415 . S
C2923 H2893 0.950 . S
C2923 C2918 1.363 . S
C2923 C2922 1.415 . S
H2924 C2921 0.999 . S
H2925 C2906 0.913 . S
H2926 C2944 0.951 . S
H2927 C2946 0.951 . S
H2928 C2948 0.950 . S
H2929 C2949 0.950 . S
H2930 C2951 0.950 . S
H2931 C2954 0.950 . S
H2932 C2955 0.950 . S
H2933 C2957 0.950 . S
H2934 C2958 0.950 . S
H2935 C2959 0.951 . S
H2936 C2961 0.951 . S
H2937 C2963 0.950 . S
H2938 C2964 0.950 . S
H2939 C2966 0.950 . S
H2940 C2969 0.950 . S
H2941 C2970 0.950 . S
H2942 C2972 0.950 . S
H2943 C2973 0.950 . S
C2944 H2926 0.951 . S
C2944 C2945 1.366 . S
C2944 C2946 1.388 . S
C2945 C2944 1.366 . S
C2945 C2949 1.385 . S
C2946 H2927 0.951 . S
C2946 C2944 1.388 . S
C2946 C2947 1.366 . S
C2947 C2946 1.366 . S
C2947 C2948 1.414 . S
C2947 C2950 1.499 . S
C2948 H2928 0.950 . S
C2948 C2947 1.414 . S
C2948 C2949 1.374 . S
C2949 H2929 0.950 . S
C2949 C2945 1.385 . S
C2949 C2948 1.374 . S
C2950 C2947 1.499 . S
C2950 C2951 1.373 . S
C2950 C2952 1.389 . S
C2951 H2930 0.950 . S
C2951 C2950 1.373 . S
C2951 C2967 1.377 . S
C2952 C2950 1.389 . S
C2952 C2953 1.524 . S
C2952 C2966 1.377 . S
C2953 C2952 1.524 . S
C2953 C2954 1.397 . S
C2953 C2958 1.363 . S
C2954 H2931 0.950 . S
C2954 C2953 1.397 . S
C2954 C2955 1.334 . S
C2955 H2932 0.950 . S
C2955 C2954 1.334 . S
C2955 C2956 1.287 . S
C2956 C2955 1.287 . S
C2956 C2957 1.524 . S
C2956 H2975 0.913 . S
C2957 H2933 0.950 . S
C2957 C2956 1.524 . S
C2957 C2958 1.415 . S
C2958 H2934 0.950 . S
C2958 C2953 1.363 . S
C2958 C2957 1.415 . S
C2959 H2935 0.951 . S
C2959 C2960 1.366 . S
C2959 C2961 1.388 . S
C2960 C2959 1.366 . S
C2960 C2964 1.385 . S
C2961 H2936 0.951 . S
C2961 C2959 1.388 . S
C2961 C2962 1.366 . S
C2962 C2961 1.366 . S
C2962 C2963 1.414 . S
C2962 C2965 1.499 . S
C2963 H2937 0.950 . S
C2963 C2962 1.414 . S
C2963 C2964 1.374 . S
C2964 H2938 0.950 . S
C2964 C2960 1.385 . S
C2964 C2963 1.374 . S
C2965 C2962 1.499 . S
C2965 C2966 1.373 . S
C2965 C2967 1.389 . S
C2966 H2939 0.950 . S
C2966 C2952 1.377 . S
C2966 C2965 1.373 . S
C2967 C2951 1.377 . S
C2967 C2965 1.389 . S
C2967 C2968 1.524 . S
C2968 C2967 1.524 . S
C2968 C2969 1.397 . S
C2968 C2973 1.363 . S
C2969 H2940 0.950 . S
C2969 C2968 1.397 . S
C2969 C2970 1.334 . S
C2970 H2941 0.950 . S
C2970 C2969 1.334 . S
C2970 C2971 1.287 . S
C2971 C2970 1.287 . S
C2971 C2972 1.524 . S
C2971 H2974 0.999 . S
C2972 H2942 0.950 . S
C2972 C2971 1.524 . S
C2972 C2973 1.415 . S
C2973 H2943 0.950 . S
C2973 C2968 1.363 . S
C2973 C2972 1.415 . S
H2974 C2971 0.999 . S
H2975 C2956 0.913 . S
H2976 C2994 0.951 . S
H2977 C2996 0.951 . S
H2978 C2998 0.950 . S
H2979 C2999 0.950 . S
H2980 C3001 0.950 . S
H2981 C3004 0.950 . S
H2982 C3005 0.950 . S
H2983 C3007 0.950 . S
H2984 C3008 0.950 . S
H2985 C3009 0.951 . S
H2986 C3011 0.951 . S
H2987 C3013 0.950 . S
H2988 C3014 0.950 . S
H2989 C3016 0.950 . S
H2990 C3019 0.950 . S
H2991 C3020 0.950 . S
H2992 C3022 0.950 . S
H2993 C3023 0.950 . S
C2994 H2976 0.951 . S
C2994 C2995 1.366 . S
C2994 C2996 1.388 . S
C2995 C2994 1.366 . S
C2995 C2999 1.385 . S
C2996 H2977 0.951 . S
C2996 C2994 1.388 . S
C2996 C2997 1.366 . S
C2997 C2996 1.366 . S
C2997 C2998 1.414 . S
C2997 C3000 1.499 . S
C2998 H2978 0.950 . S
C2998 C2997 1.414 . S
C2998 C2999 1.374 . S
C2999 H2979 0.950 . S
C2999 C2995 1.385 . S
C2999 C2998 1.374 . S
C3000 C2997 1.499 . S
C3000 C3001 1.373 . S
C3000 C3002 1.389 . S
C3001 H2980 0.950 . S
C3001 C3000 1.373 . S
C3001 C3017 1.377 . S
C3002 C3000 1.389 . S
C3002 C3003 1.524 . S
C3002 C3016 1.377 . S
C3003 C3002 1.524 . S
C3003 C3004 1.397 . S
C3003 C3008 1.363 . S
C3004 H2981 0.950 . S
C3004 C3003 1.397 . S
C3004 C3005 1.334 . S
C3005 H2982 0.950 . S
C3005 C3004 1.334 . S
C3005 C3006 1.287 . S
C3006 C3005 1.287 . S
C3006 C3007 1.524 . S
C3006 H3025 0.913 . S
C3007 H2983 0.950 . S
C3007 C3006 1.524 . S
C3007 C3008 1.415 . S
C3008 H2984 0.950 . S
C3008 C3003 1.363 . S
C3008 C3007 1.415 . S
C3009 H2985 0.951 . S
C3009 C3010 1.366 . S
C3009 C3011 1.388 . S
C3010 C3009 1.366 . S
C3010 C3014 1.385 . S
C3011 H2986 0.951 . S
C3011 C3009 1.388 . S
C3011 C3012 1.366 . S
C3012 C3011 1.366 . S
C3012 C3013 1.414 . S
C3012 C3015 1.499 . S
C3013 H2987 0.950 . S
C3013 C3012 1.414 . S
C3013 C3014 1.374 . S
C3014 H2988 0.950 . S
C3014 C3010 1.385 . S
C3014 C3013 1.374 . S
C3015 C3012 1.499 . S
C3015 C3016 1.373 . S
C3015 C3017 1.389 . S
C3016 H2989 0.950 . S
C3016 C3002 1.377 . S
C3016 C3015 1.373 . S
C3017 C3001 1.377 . S
C3017 C3015 1.389 . S
C3017 C3018 1.524 . S
C3018 C3017 1.524 . S
C3018 C3019 1.397 . S
C3018 C3023 1.363 . S
C3019 H2990 0.950 . S
C3019 C3018 1.397 . S
C3019 C3020 1.334 . S
C3020 H2991 0.950 . S
C3020 C3019 1.334 . S
C3020 C3021 1.287 . S
C3021 C3020 1.287 . S
C3021 C3022 1.524 . S
C3021 H3024 0.999 . S
C3022 H2992 0.950 . S
C3022 C3021 1.524 . S
C3022 C3023 1.415 . S
C3023 H2993 0.950 . S
C3023 C3018 1.363 . S
C3023 C3022 1.415 . S
H3024 C3021 0.999 . S
H3025 C3006 0.913 . S
H3026 C3044 0.951 . S
H3027 C3046 0.951 . S
H3028 C3048 0.950 . S
H3029 C3049 0.950 . S
H3030 C3051 0.950 . S
H3031 C3054 0.950 . S
H3032 C3055 0.950 . S
H3033 C3057 0.950 . S
H3034 C3058 0.950 . S
H3035 C3059 0.951 . S
H3036 C3061 0.951 . S
H3037 C3063 0.950 . S
H3038 C3064 0.950 . S
H3039 C3066 0.950 . S
H3040 C3069 0.950 . S
H3041 C3070 0.950 . S
H3042 C3072 0.950 . S
H3043 C3073 0.950 . S
C3044 H3026 0.951 . S
C3044 C3045 1.366 . S
C3044 C3046 1.388 . S
C3045 C3044 1.366 . S
C3045 C3049 1.385 . S
C3046 H3027 0.951 . S
C3046 C3044 1.388 . S
C3046 C3047 1.366 . S
C3047 C3046 1.366 . S
C3047 C3048 1.414 . S
C3047 C3050 1.499 . S
C3048 H3028 0.950 . S
C3048 C3047 1.414 . S
C3048 C3049 1.374 . S
C3049 H3029 0.950 . S
C3049 C3045 1.385 . S
C3049 C3048 1.374 . S
C3050 C3047 1.499 . S
C3050 C3051 1.373 . S
C3050 C3052 1.389 . S
C3051 H3030 0.950 . S
C3051 C3050 1.373 . S
C3051 C3067 1.377 . S
C3052 C3050 1.389 . S
C3052 C3053 1.524 . S
C3052 C3066 1.377 . S
C3053 C3052 1.524 . S
C3053 C3054 1.397 . S
C3053 C3058 1.363 . S
C3054 H3031 0.950 . S
C3054 C3053 1.397 . S
C3054 C3055 1.334 . S
C3055 H3032 0.950 . S
C3055 C3054 1.334 . S
C3055 C3056 1.287 . S
C3056 C3055 1.287 . S
C3056 C3057 1.524 . S
C3056 H3075 0.913 . S
C3057 H3033 0.950 . S
C3057 C3056 1.524 . S
C3057 C3058 1.415 . S
C3058 H3034 0.950 . S
C3058 C3053 1.363 . S
C3058 C3057 1.415 . S
C3059 H3035 0.951 . S
C3059 C3060 1.366 . S
C3059 C3061 1.388 . S
C3060 C3059 1.366 . S
C3060 C3064 1.385 . S
C3061 H3036 0.951 . S
C3061 C3059 1.388 . S
C3061 C3062 1.366 . S
C3062 C3061 1.366 . S
C3062 C3063 1.414 . S
C3062 C3065 1.499 . S
C3063 H3037 0.950 . S
C3063 C3062 1.414 . S
C3063 C3064 1.374 . S
C3064 H3038 0.950 . S
C3064 C3060 1.385 . S
C3064 C3063 1.374 . S
C3065 C3062 1.499 . S
C3065 C3066 1.373 . S
C3065 C3067 1.389 . S
C3066 H3039 0.950 . S
C3066 C3052 1.377 . S
C3066 C3065 1.373 . S
C3067 C3051 1.377 . S
C3067 C3065 1.389 . S
C3067 C3068 1.524 . S
C3068 C3067 1.524 . S
C3068 C3069 1.397 . S
C3068 C3073 1.363 . S
C3069 H3040 0.950 . S
C3069 C3068 1.397 . S
C3069 C3070 1.334 . S
C3070 H3041 0.950 . S
C3070 C3069 1.334 . S
C3070 C3071 1.287 . S
C3071 C3070 1.287 . S
C3071 C3072 1.524 . S
C3071 H3074 0.999 . S
C3072 H3042 0.950 . S
C3072 C3071 1.524 . S
C3072 C3073 1.415 . S
C3073 H3043 0.950 . S
C3073 C3068 1.363 . S
C3073 C3072 1.415 . S
H3074 C3071 0.999 . S
H3075 C3056 0.913 . S
H3076 C3094 0.951 . S
H3077 C3096 0.951 . S
H3078 C3098 0.950 . S
H3079 C3099 0.950 . S
H3080 C3101 0.950 . S
H3081 C3104 0.950 . S
H3082 C3105 0.950 . S
H3083 C3107 0.950 . S
H3084 C3108 0.950 . S
H3085 C3109 0.951 . S
H3086 C3111 0.951 . S
H3087 C3113 0.950 . S
H3088 C3114 0.950 . S
H3089 C3116 0.950 . S
H3090 C3119 0.950 . S
H3091 C3120 0.950 . S
H3092 C3122 0.950 . S
H3093 C3123 0.950 . S
C3094 H3076 0.951 . S
C3094 C3095 1.366 . S
C3094 C3096 1.388 . S
C3095 C3094 1.366 . S
C3095 C3099 1.385 . S
C3096 H3077 0.951 . S
C3096 C3094 1.388 . S
C3096 C3097 1.366 . S
C3097 C3096 1.366 . S
C3097 C3098 1.414 . S
C3097 C3100 1.499 . S
C3098 H3078 0.950 . S
C3098 C3097 1.414 . S
C3098 C3099 1.374 . S
C3099 H3079 0.950 . S
C3099 C3095 1.385 . S
C3099 C3098 1.374 . S
C3100 C3097 1.499 . S
C3100 C3101 1.373 . S
C3100 C3102 1.389 . S
C3101 H3080 0.950 . S
C3101 C3100 1.373 . S
C3101 C3117 1.377 . S
C3102 C3100 1.389 . S
C3102 C3103 1.524 . S
C3102 C3116 1.377 . S
C3103 C3102 1.524 . S
C3103 C3104 1.397 . S
C3103 C3108 1.363 . S
C3104 H3081 0.950 . S
C3104 C3103 1.397 . S
C3104 C3105 1.334 . S
C3105 H3082 0.950 . S
C3105 C3104 1.334 . S
C3105 C3106 1.287 . S
C3106 C3105 1.287 . S
C3106 C3107 1.524 . S
C3106 H3125 0.913 . S
C3107 H3083 0.950 . S
C3107 C3106 1.524 . S
C3107 C3108 1.415 . S
C3108 H3084 0.950 . S
C3108 C3103 1.363 . S
C3108 C3107 1.415 . S
C3109 H3085 0.951 . S
C3109 C3110 1.366 . S
C3109 C3111 1.388 . S
C3110 C3109 1.366 . S
C3110 C3114 1.385 . S
C3111 H3086 0.951 . S
C3111 C3109 1.388 . S
C3111 C3112 1.366 . S
C3112 C3111 1.366 . S
C3112 C3113 1.414 . S
C3112 C3115 1.499 . S
C3113 H3087 0.950 . S
C3113 C3112 1.414 . S
C3113 C3114 1.374 . S
C3114 H3088 0.950 . S
C3114 C3110 1.385 . S
C3114 C3113 1.374 . S
C3115 C3112 1.499 . S
C3115 C3116 1.373 . S
C3115 C3117 1.389 . S
C3116 H3089 0.950 . S
C3116 C3102 1.377 . S
C3116 C3115 1.373 . S
C3117 C3101 1.377 . S
C3117 C3115 1.389 . S
C3117 C3118 1.524 . S
C3118 C3117 1.524 . S
C3118 C3119 1.397 . S
C3118 C3123 1.363 . S
C3119 H3090 0.950 . S
C3119 C3118 1.397 . S
C3119 C3120 1.334 . S
C3120 H3091 0.950 . S
C3120 C3119 1.334 . S
C3120 C3121 1.287 . S
C3121 C3120 1.287 . S
C3121 C3122 1.524 . S
C3121 H3124 0.999 . S
C3122 H3092 0.950 . S
C3122 C3121 1.524 . S
C3122 C3123 1.415 . S
C3123 H3093 0.950 . S
C3123 C3118 1.363 . S
C3123 C3122 1.415 . S
H3124 C3121 0.999 . S
H3125 C3106 0.913 . S
H3126 C3144 0.951 . S
H3127 C3146 0.951 . S
H3128 C3148 0.950 . S
H3129 C3149 0.950 . S
H3130 C3151 0.950 . S
H3131 C3154 0.950 . S
H3132 C3155 0.950 . S
H3133 C3157 0.950 . S
H3134 C3158 0.950 . S
H3135 C3159 0.951 . S
H3136 C3161 0.951 . S
H3137 C3163 0.950 . S
H3138 C3164 0.950 . S
H3139 C3166 0.950 . S
H3140 C3169 0.950 . S
H3141 C3170 0.950 . S
H3142 C3172 0.950 . S
H3143 C3173 0.950 . S
C3144 H3126 0.951 . S
C3144 C3145 1.366 . S
C3144 C3146 1.388 . S
C3145 C3144 1.366 . S
C3145 C3149 1.385 . S
C3146 H3127 0.951 . S
C3146 C3144 1.388 . S
C3146 C3147 1.366 . S
C3147 C3146 1.366 . S
C3147 C3148 1.414 . S
C3147 C3150 1.499 . S
C3148 H3128 0.950 . S
C3148 C3147 1.414 . S
C3148 C3149 1.374 . S
C3149 H3129 0.950 . S
C3149 C3145 1.385 . S
C3149 C3148 1.374 . S
C3150 C3147 1.499 . S
C3150 C3151 1.373 . S
C3150 C3152 1.389 . S
C3151 H3130 0.950 . S
C3151 C3150 1.373 . S
C3151 C3167 1.377 . S
C3152 C3150 1.389 . S
C3152 C3153 1.524 . S
C3152 C3166 1.377 . S
C3153 C3152 1.524 . S
C3153 C3154 1.397 . S
C3153 C3158 1.363 . S
C3154 H3131 0.950 . S
C3154 C3153 1.397 . S
C3154 C3155 1.334 . S
C3155 H3132 0.950 . S
C3155 C3154 1.334 . S
C3155 C3156 1.287 . S
C3156 C3155 1.287 . S
C3156 C3157 1.524 . S
C3156 H3175 0.913 . S
C3157 H3133 0.950 . S
C3157 C3156 1.524 . S
C3157 C3158 1.415 . S
C3158 H3134 0.950 . S
C3158 C3153 1.363 . S
C3158 C3157 1.415 . S
C3159 H3135 0.951 . S
C3159 C3160 1.366 . S
C3159 C3161 1.388 . S
C3160 C3159 1.366 . S
C3160 C3164 1.385 . S
C3161 H3136 0.951 . S
C3161 C3159 1.388 . S
C3161 C3162 1.366 . S
C3162 C3161 1.366 . S
C3162 C3163 1.414 . S
C3162 C3165 1.499 . S
C3163 H3137 0.950 . S
C3163 C3162 1.414 . S
C3163 C3164 1.374 . S
C3164 H3138 0.950 . S
C3164 C3160 1.385 . S
C3164 C3163 1.374 . S
C3165 C3162 1.499 . S
C3165 C3166 1.373 . S
C3165 C3167 1.389 . S
C3166 H3139 0.950 . S
C3166 C3152 1.377 . S
C3166 C3165 1.373 . S
C3167 C3151 1.377 . S
C3167 C3165 1.389 . S
C3167 C3168 1.524 . S
C3168 C3167 1.524 . S
C3168 C3169 1.397 . S
C3168 C3173 1.363 . S
C3169 H3140 0.950 . S
C3169 C3168 1.397 . S
C3169 C3170 1.334 . S
C3170 H3141 0.950 . S
C3170 C3169 1.334 . S
C3170 C3171 1.287 . S
C3171 C3170 1.287 . S
C3171 C3172 1.524 . S
C3171 H3174 0.999 . S
C3172 H3142 0.950 . S
C3172 C3171 1.524 . S
C3172 C3173 1.415 . S
C3173 H3143 0.950 . S
C3173 C3168 1.363 . S
C3173 C3172 1.415 . S
H3174 C3171 0.999 . S
H3175 C3156 0.913 . S
H3176 C3194 0.951 . S
H3177 C3196 0.951 . S
H3178 C3198 0.950 . S
H3179 C3199 0.950 . S
H3180 C3201 0.950 . S
H3181 C3204 0.950 . S
H3182 C3205 0.950 . S
H3183 C3207 0.950 . S
H3184 C3208 0.950 . S
H3185 C3209 0.951 . S
H3186 C3211 0.951 . S
H3187 C3213 0.950 . S
H3188 C3214 0.950 . S
H3189 C3216 0.950 . S
H3190 C3219 0.950 . S
H3191 C3220 0.950 . S
H3192 C3222 0.950 . S
H3193 C3223 0.950 . S
C3194 H3176 0.951 . S
C3194 C3195 1.366 . S
C3194 C3196 1.388 . S
C3195 C3194 1.366 . S
C3195 C3199 1.385 . S
C3196 H3177 0.951 . S
C3196 C3194 1.388 . S
C3196 C3197 1.366 . S
C3197 C3196 1.366 . S
C3197 C3198 1.414 . S
C3197 C3200 1.499 . S
C3198 H3178 0.950 . S
C3198 C3197 1.414 . S
C3198 C3199 1.374 . S
C3199 H3179 0.950 . S
C3199 C3195 1.385 . S
C3199 C3198 1.374 . S
C3200 C3197 1.499 . S
C3200 C3201 1.373 . S
C3200 C3202 1.389 . S
C3201 H3180 0.950 . S
C3201 C3200 1.373 . S
C3201 C3217 1.377 . S
C3202 C3200 1.389 . S
C3202 C3203 1.524 . S
C3202 C3216 1.377 . S
C3203 C3202 1.524 . S
C3203 C3204 1.397 . S
C3203 C3208 1.363 . S
C3204 H3181 0.950 . S
C3204 C3203 1.397 . S
C3204 C3205 1.334 . S
C3205 H3182 0.950 . S
C3205 C3204 1.334 . S
C3205 C3206 1.287 . S
C3206 C3205 1.287 . S
C3206 C3207 1.524 . S
C3206 H3225 0.913 . S
C3207 H3183 0.950 . S
C3207 C3206 1.524 . S
C3207 C3208 1.415 . S
C3208 H3184 0.950 . S
C3208 C3203 1.363 . S
C3208 C3207 1.415 . S
C3209 H3185 0.951 . S
C3209 C3210 1.366 . S
C3209 C3211 1.388 . S
C3210 C3209 1.366 . S
C3210 C3214 1.385 . S
C3211 H3186 0.951 . S
C3211 C3209 1.388 . S
C3211 C3212 1.366 . S
C3212 C3211 1.366 . S
C3212 C3213 1.414 . S
C3212 C3215 1.499 . S
C3213 H3187 0.950 . S
C3213 C3212 1.414 . S
C3213 C3214 1.374 . S
C3214 H3188 0.950 . S
C3214 C3210 1.385 . S
C3214 C3213 1.374 . S
C3215 C3212 1.499 . S
C3215 C3216 1.373 . S
C3215 C3217 1.389 . S
C3216 H3189 0.950 . S
C3216 C3202 1.377 . S
C3216 C3215 1.373 . S
C3217 C3201 1.377 . S
C3217 C3215 1.389 . S
C3217 C3218 1.524 . S
C3218 C3217 1.524 . S
C3218 C3219 1.397 . S
C3218 C3223 1.363 . S
C3219 H3190 0.950 . S
C3219 C3218 1.397 . S
C3219 C3220 1.334 . S
C3220 H3191 0.950 . S
C3220 C3219 1.334 . S
C3220 C3221 1.287 . S
C3221 C3220 1.287 . S
C3221 C3222 1.524 . S
C3221 H3224 0.999 . S
C3222 H3192 0.950 . S
C3222 C3221 1.524 . S
C3222 C3223 1.415 . S
C3223 H3193 0.950 . S
C3223 C3218 1.363 . S
C3223 C3222 1.415 . S
H3224 C3221 0.999 . S
H3225 C3206 0.913 . S
H3226 C3244 0.951 . S
H3227 C3246 0.951 . S
H3228 C3248 0.950 . S
H3229 C3249 0.950 . S
H3230 C3251 0.950 . S
H3231 C3254 0.950 . S
H3232 C3255 0.950 . S
H3233 C3257 0.950 . S
H3234 C3258 0.950 . S
H3235 C3259 0.951 . S
H3236 C3261 0.951 . S
H3237 C3263 0.950 . S
H3238 C3264 0.950 . S
H3239 C3266 0.950 . S
H3240 C3269 0.950 . S
H3241 C3270 0.950 . S
H3242 C3272 0.950 . S
H3243 C3273 0.950 . S
C3244 H3226 0.951 . S
C3244 C3245 1.366 . S
C3244 C3246 1.388 . S
C3245 C3244 1.366 . S
C3245 C3249 1.385 . S
C3246 H3227 0.951 . S
C3246 C3244 1.388 . S
C3246 C3247 1.366 . S
C3247 C3246 1.366 . S
C3247 C3248 1.414 . S
C3247 C3250 1.499 . S
C3248 H3228 0.950 . S
C3248 C3247 1.414 . S
C3248 C3249 1.374 . S
C3249 H3229 0.950 . S
C3249 C3245 1.385 . S
C3249 C3248 1.374 . S
C3250 C3247 1.499 . S
C3250 C3251 1.373 . S
C3250 C3252 1.389 . S
C3251 H3230 0.950 . S
C3251 C3250 1.373 . S
C3251 C3267 1.377 . S
C3252 C3250 1.389 . S
C3252 C3253 1.524 . S
C3252 C3266 1.377 . S
C3253 C3252 1.524 . S
C3253 C3254 1.397 . S
C3253 C3258 1.363 . S
C3254 H3231 0.950 . S
C3254 C3253 1.397 . S
C3254 C3255 1.334 . S
C3255 H3232 0.950 . S
C3255 C3254 1.334 . S
C3255 C3256 1.287 . S
C3256 C3255 1.287 . S
C3256 C3257 1.524 . S
C3256 H3275 0.913 . S
C3257 H3233 0.950 . S
C3257 C3256 1.524 . S
C3257 C3258 1.415 . S
C3258 H3234 0.950 . S
C3258 C3253 1.363 . S
C3258 C3257 1.415 . S
C3259 H3235 0.951 . S
C3259 C3260 1.366 . S
C3259 C3261 1.388 . S
C3260 C3259 1.366 . S
C3260 C3264 1.385 . S
C3261 H3236 0.951 . S
C3261 C3259 1.388 . S
C3261 C3262 1.366 . S
C3262 C3261 1.366 . S
C3262 C3263 1.414 . S
C3262 C3265 1.499 . S
C3263 H3237 0.950 . S
C3263 C3262 1.414 . S
C3263 C3264 1.374 . S
C3264 H3238 0.950 . S
C3264 C3260 1.385 . S
C3264 C3263 1.374 . S
C3265 C3262 1.499 . S
C3265 C3266 1.373 . S
C3265 C3267 1.389 . S
C3266 H3239 0.950 . S
C3266 C3252 1.377 . S
C3266 C3265 1.373 . S
C3267 C3251 1.377 . S
C3267 C3265 1.389 . S
C3267 C3268 1.524 . S
C3268 C3267 1.524 . S
C3268 C3269 1.397 . S
C3268 C3273 1.363 . S
C3269 H3240 0.950 . S
C3269 C3268 1.397 . S
C3269 C3270 1.334 . S
C3270 H3241 0.950 . S
C3270 C3269 1.334 . S
C3270 C3271 1.287 . S
C3271 C3270 1.287 . S
C3271 C3272 1.524 . S
C3271 H3274 0.999 . S
C3272 H3242 0.950 . S
C3272 C3271 1.524 . S
C3272 C3273 1.415 . S
C3273 H3243 0.950 . S
C3273 C3268 1.363 . S
C3273 C3272 1.415 . S
H3274 C3271 0.999 . S
H3275 C3256 0.913 . S
H3276 C3294 0.951 . S
H3277 C3296 0.951 . S
H3278 C3298 0.950 . S
H3279 C3299 0.950 . S
H3280 C3301 0.950 . S
H3281 C3304 0.950 . S
H3282 C3305 0.950 1_556 S
H3283 C3307 0.950 . S
H3284 C3308 0.950 . S
H3285 C3309 0.951 . S
H3286 C3311 0.951 . S
H3287 C3313 0.950 . S
H3288 C3314 0.950 . S
H3289 C3316 0.950 . S
H3290 C3319 0.950 . S
H3291 C3320 0.950 . S
H3292 C3322 0.950 . S
H3293 C3323 0.950 . S
C3294 H3276 0.951 . S
C3294 C3295 1.366 . S
C3294 C3296 1.388 . S
C3295 C3294 1.366 . S
C3295 C3299 1.385 . S
C3296 H3277 0.951 . S
C3296 C3294 1.388 . S
C3296 C3297 1.366 . S
C3297 C3296 1.366 . S
C3297 C3298 1.414 . S
C3297 C3300 1.499 . S
C3298 H3278 0.950 . S
C3298 C3297 1.414 . S
C3298 C3299 1.374 . S
C3299 H3279 0.950 . S
C3299 C3295 1.385 . S
C3299 C3298 1.374 . S
C3300 C3297 1.499 . S
C3300 C3301 1.373 . S
C3300 C3302 1.389 . S
C3301 H3280 0.950 . S
C3301 C3300 1.373 . S
C3301 C3317 1.377 . S
C3302 C3300 1.389 . S
C3302 C3303 1.524 . S
C3302 C3316 1.377 . S
C3303 C3302 1.524 . S
C3303 C3304 1.397 . S
C3303 C3308 1.363 . S
C3304 H3281 0.950 . S
C3304 C3303 1.397 . S
C3304 C3305 1.334 . S
C3305 H3282 0.950 1_554 S
C3305 C3304 1.334 . S
C3305 C3306 1.295 . S
C3306 C3305 1.295 . S
C3306 C3307 1.552 . S
C3306 H3325 0.875 1_554 S
C3307 H3283 0.950 . S
C3307 C3306 1.552 . S
C3307 C3308 1.415 . S
C3308 H3284 0.950 . S
C3308 C3303 1.363 . S
C3308 C3307 1.415 . S
C3309 H3285 0.951 . S
C3309 C3310 1.366 . S
C3309 C3311 1.388 . S
C3310 C3309 1.366 . S
C3310 C3314 1.385 . S
C3311 H3286 0.951 . S
C3311 C3309 1.388 . S
C3311 C3312 1.366 . S
C3312 C3311 1.366 . S
C3312 C3313 1.414 . S
C3312 C3315 1.499 . S
C3313 H3287 0.950 . S
C3313 C3312 1.414 . S
C3313 C3314 1.374 . S
C3314 H3288 0.950 . S
C3314 C3310 1.385 . S
C3314 C3313 1.374 . S
C3315 C3312 1.499 . S
C3315 C3316 1.373 . S
C3315 C3317 1.389 . S
C3316 H3289 0.950 . S
C3316 C3302 1.377 . S
C3316 C3315 1.373 . S
C3317 C3301 1.377 . S
C3317 C3315 1.389 . S
C3317 C3318 1.524 . S
C3318 C3317 1.524 . S
C3318 C3319 1.397 . S
C3318 C3323 1.363 . S
C3319 H3290 0.950 . S
C3319 C3318 1.397 . S
C3319 C3320 1.334 . S
C3320 H3291 0.950 . S
C3320 C3319 1.334 . S
C3320 C3321 1.287 . S
C3321 C3320 1.287 . S
C3321 C3322 1.524 . S
C3321 H3324 0.999 . S
C3322 H3292 0.950 . S
C3322 C3321 1.524 . S
C3322 C3323 1.415 . S
C3323 H3293 0.950 . S
C3323 C3318 1.363 . S
C3323 C3322 1.415 . S
H3324 C3321 0.999 . S
H3325 C3306 0.875 1_556 S
H3326 C3344 0.951 . S
H3327 C3346 0.951 . S
H3328 C3348 0.950 . S
H3329 C3349 0.950 . S
H3330 C3351 0.950 . S
H3331 C3354 0.950 . S
H3332 C3355 0.902 1_556 S
H3333 C3357 0.950 . S
H3334 C3358 0.950 . S
H3335 C3359 0.951 . S
H3336 C3361 0.951 . S
H3337 C3363 0.950 . S
H3338 C3364 0.950 . S
H3339 C3366 0.950 . S
H3340 C3369 0.950 . S
H3341 C3370 0.950 . S
H3342 C3372 0.950 . S
H3343 C3373 0.950 . S
C3344 H3326 0.951 . S
C3344 C3345 1.366 . S
C3344 C3346 1.388 . S
C3345 C3344 1.366 . S
C3345 C3349 1.385 . S
C3346 H3327 0.951 . S
C3346 C3344 1.388 . S
C3346 C3347 1.366 . S
C3347 C3346 1.366 . S
C3347 C3348 1.414 . S
C3347 C3350 1.499 . S
C3348 H3328 0.950 . S
C3348 C3347 1.414 . S
C3348 C3349 1.374 . S
C3349 H3329 0.950 . S
C3349 C3345 1.385 . S
C3349 C3348 1.374 . S
C3350 C3347 1.499 . S
C3350 C3351 1.373 . S
C3350 C3352 1.389 . S
C3351 H3330 0.950 . S
C3351 C3350 1.373 . S
C3351 C3367 1.377 . S
C3352 C3350 1.389 . S
C3352 C3353 1.524 . S
C3352 C3366 1.377 . S
C3353 C3352 1.524 . S
C3353 C3354 1.397 . S
C3353 C3358 1.363 . S
C3354 H3331 0.950 . S
C3354 C3353 1.397 . S
C3354 C3355 1.334 . S
C3355 H3332 0.902 1_554 S
C3355 C3354 1.334 . S
C3355 C3356 1.287 . S
C3356 C3355 1.287 . S
C3356 C3357 1.524 . S
C3356 H3375 0.913 1_554 S
C3357 H3333 0.950 . S
C3357 C3356 1.524 . S
C3357 C3358 1.415 . S
C3358 H3334 0.950 . S
C3358 C3353 1.363 . S
C3358 C3357 1.415 . S
C3359 H3335 0.951 . S
C3359 C3360 1.366 . S
C3359 C3361 1.388 . S
C3360 C3359 1.366 . S
C3360 C3364 1.385 . S
C3361 H3336 0.951 . S
C3361 C3359 1.388 . S
C3361 C3362 1.366 . S
C3362 C3361 1.366 . S
C3362 C3363 1.414 . S
C3362 C3365 1.499 . S
C3363 H3337 0.950 . S
C3363 C3362 1.414 . S
C3363 C3364 1.374 . S
C3364 H3338 0.950 . S
C3364 C3360 1.385 . S
C3364 C3363 1.374 . S
C3365 C3362 1.499 . S
C3365 C3366 1.373 . S
C3365 C3367 1.389 . S
C3366 H3339 0.950 . S
C3366 C3352 1.377 . S
C3366 C3365 1.373 . S
C3367 C3351 1.377 . S
C3367 C3365 1.389 . S
C3367 C3368 1.524 . S
C3368 C3367 1.524 . S
C3368 C3369 1.397 . S
C3368 C3373 1.363 . S
C3369 H3340 0.950 . S
C3369 C3368 1.397 . S
C3369 C3370 1.334 . S
C3370 H3341 0.950 . S
C3370 C3369 1.334 . S
C3370 C3371 1.287 . S
C3371 C3370 1.287 . S
C3371 C3372 1.524 . S
C3371 H3374 0.999 . S
C3372 H3342 0.950 . S
C3372 C3371 1.524 . S
C3372 C3373 1.415 . S
C3373 H3343 0.950 . S
C3373 C3368 1.363 . S
C3373 C3372 1.415 . S
H3374 C3371 0.999 . S
H3375 C3356 0.913 1_556 S
H3376 C3394 0.951 . S
H3377 C3396 0.951 . S
H3378 C3398 0.950 . S
H3379 C3399 0.950 . S
H3380 C3401 0.950 . S
H3381 C3404 0.950 . S
H3382 C3405 0.950 . S
H3383 C3407 0.950 . S
H3384 C3408 0.950 . S
H3385 C3409 0.951 . S
H3386 C3411 0.951 . S
H3387 C3413 0.950 . S
H3388 C3414 0.950 . S
H3389 C3416 0.950 . S
H3390 C3419 0.950 . S
H3391 C3420 0.950 . S
H3392 C3422 0.950 . S
H3393 C3423 0.950 . S
C3394 H3376 0.951 . S
C3394 C3395 1.366 . S
C3394 C3396 1.388 . S
C3395 C3394 1.366 . S
C3395 C3399 1.385 . S
C3396 H3377 0.951 . S
C3396 C3394 1.388 . S
C3396 C3397 1.366 . S
C3397 C3396 1.366 . S
C3397 C3398 1.414 . S
C3397 C3400 1.499 . S
C3398 H3378 0.950 . S
C3398 C3397 1.414 . S
C3398 C3399 1.374 . S
C3399 H3379 0.950 . S
C3399 C3395 1.385 . S
C3399 C3398 1.374 . S
C3400 C3397 1.499 . S
C3400 C3401 1.373 . S
C3400 C3402 1.389 . S
C3401 H3380 0.950 . S
C3401 C3400 1.373 . S
C3401 C3417 1.377 . S
C3402 C3400 1.389 . S
C3402 C3403 1.524 . S
C3402 C3416 1.377 . S
C3403 C3402 1.524 . S
C3403 C3404 1.397 . S
C3403 C3408 1.363 . S
C3404 H3381 0.950 . S
C3404 C3403 1.397 . S
C3404 C3405 1.334 . S
C3405 H3382 0.950 . S
C3405 C3404 1.334 . S
C3405 C3406 1.287 . S
C3406 C3405 1.287 . S
C3406 C3407 1.524 . S
C3406 H3425 0.913 . S
C3407 H3383 0.950 . S
C3407 C3406 1.524 . S
C3407 C3408 1.415 . S
C3408 H3384 0.950 . S
C3408 C3403 1.363 . S
C3408 C3407 1.415 . S
C3409 H3385 0.951 . S
C3409 C3410 1.366 . S
C3409 C3411 1.388 . S
C3410 C3409 1.366 . S
C3410 C3414 1.385 . S
C3411 H3386 0.951 . S
C3411 C3409 1.388 . S
C3411 C3412 1.366 . S
C3412 C3411 1.366 . S
C3412 C3413 1.414 . S
C3412 C3415 1.499 . S
C3413 H3387 0.950 . S
C3413 C3412 1.414 . S
C3413 C3414 1.374 . S
C3414 H3388 0.950 . S
C3414 C3410 1.385 . S
C3414 C3413 1.374 . S
C3415 C3412 1.499 . S
C3415 C3416 1.373 . S
C3415 C3417 1.389 . S
C3416 H3389 0.950 . S
C3416 C3402 1.377 . S
C3416 C3415 1.373 . S
C3417 C3401 1.377 . S
C3417 C3415 1.389 . S
C3417 C3418 1.524 . S
C3418 C3417 1.524 . S
C3418 C3419 1.397 . S
C3418 C3423 1.363 . S
C3419 H3390 0.950 . S
C3419 C3418 1.397 . S
C3419 C3420 1.334 . S
C3420 H3391 0.950 . S
C3420 C3419 1.334 . S
C3420 C3421 1.287 . S
C3421 C3420 1.287 . S
C3421 C3422 1.524 . S
C3421 H3424 0.999 . S
C3422 H3392 0.950 . S
C3422 C3421 1.524 . S
C3422 C3423 1.415 . S
C3423 H3393 0.950 . S
C3423 C3418 1.363 . S
C3423 C3422 1.415 . S
H3424 C3421 0.999 . S
H3425 C3406 0.913 . S
H3426 C3444 0.951 1_554 S
H3427 C3446 0.951 . S
H3428 C3448 0.950 . S
H3429 C3449 0.950 . S
H3430 C3451 0.950 . S
H3431 C3454 0.950 . S
H3432 C3455 0.950 . S
H3433 C3457 0.950 . S
H3434 C3458 0.950 . S
H3435 C3459 0.951 . S
H3436 C3461 0.951 . S
H3437 C3463 0.950 . S
H3438 C3464 0.950 . S
H3439 C3466 0.950 . S
H3440 C3469 0.950 . S
H3441 C3470 0.950 . S
H3442 C3472 0.950 . S
H3443 C3473 0.950 . S
C3444 H3426 0.951 1_556 S
C3444 C3445 1.366 . S
C3444 C3446 1.388 . S
C3445 C3444 1.366 . S
C3445 C3449 1.385 . S
C3446 H3427 0.951 . S
C3446 C3444 1.388 . S
C3446 C3447 1.366 . S
C3447 C3446 1.366 . S
C3447 C3448 1.414 . S
C3447 C3450 1.499 . S
C3448 H3428 0.950 . S
C3448 C3447 1.414 . S
C3448 C3449 1.374 . S
C3449 H3429 0.950 . S
C3449 C3445 1.385 . S
C3449 C3448 1.374 . S
C3450 C3447 1.499 . S
C3450 C3451 1.373 . S
C3450 C3452 1.389 . S
C3451 H3430 0.950 . S
C3451 C3450 1.373 . S
C3451 C3467 1.377 . S
C3452 C3450 1.389 . S
C3452 C3453 1.524 . S
C3452 C3466 1.377 . S
C3453 C3452 1.524 . S
C3453 C3454 1.397 . S
C3453 C3458 1.363 . S
C3454 H3431 0.950 . S
C3454 C3453 1.397 . S
C3454 C3455 1.334 . S
C3455 H3432 0.950 . S
C3455 C3454 1.334 . S
C3455 C3456 1.287 . S
C3456 C3455 1.287 . S
C3456 C3457 1.524 . S
C3456 H3475 0.913 1_545 S
C3457 H3433 0.950 . S
C3457 C3456 1.524 . S
C3457 C3458 1.415 . S
C3458 H3434 0.950 . S
C3458 C3453 1.363 . S
C3458 C3457 1.415 . S
C3459 H3435 0.951 . S
C3459 C3460 1.366 . S
C3459 C3461 1.388 . S
C3460 C3459 1.366 . S
C3460 C3464 1.385 . S
C3461 H3436 0.951 . S
C3461 C3459 1.388 . S
C3461 C3462 1.366 . S
C3462 C3461 1.366 . S
C3462 C3463 1.414 . S
C3462 C3465 1.499 . S
C3463 H3437 0.950 . S
C3463 C3462 1.414 . S
C3463 C3464 1.374 . S
C3464 H3438 0.950 . S
C3464 C3460 1.385 . S
C3464 C3463 1.374 . S
C3465 C3462 1.499 . S
C3465 C3466 1.373 . S
C3465 C3467 1.389 . S
C3466 H3439 0.950 . S
C3466 C3452 1.377 . S
C3466 C3465 1.373 . S
C3467 C3451 1.377 . S
C3467 C3465 1.389 . S
C3467 C3468 1.524 . S
C3468 C3467 1.524 . S
C3468 C3469 1.397 . S
C3468 C3473 1.363 . S
C3469 H3440 0.950 . S
C3469 C3468 1.397 . S
C3469 C3470 1.334 . S
C3470 H3441 0.950 . S
C3470 C3469 1.334 . S
C3470 C3471 1.287 . S
C3471 C3470 1.287 . S
C3471 C3472 1.524 . S
C3471 H3474 0.999 . S
C3472 H3442 0.950 . S
C3472 C3471 1.524 . S
C3472 C3473 1.415 . S
C3473 H3443 0.950 . S
C3473 C3468 1.363 . S
C3473 C3472 1.415 . S
H3474 C3471 0.999 . S
H3475 C3456 0.913 1_565 S
H3476 C3494 0.951 1_554 S
H3477 C3496 0.951 . S
H3478 C3498 0.950 . S
H3479 C3499 0.950 . S
H3480 C3501 0.950 . S
H3481 C3504 0.950 . S
H3482 C3505 0.950 . S
H3483 C3507 0.937 1_554 S
H3484 C3508 0.950 . S
H3485 C3509 0.951 . S
H3486 C3511 0.951 . S
H3487 C3513 0.950 . S
H3488 C3514 0.950 . S
H3489 C3516 0.950 . S
H3490 C3519 0.950 . S
H3491 C3520 0.950 . S
H3492 C3522 0.950 . S
H3493 C3523 0.950 . S
C3494 H3476 0.951 1_556 S
C3494 C3495 1.366 . S
C3494 C3496 1.388 . S
C3495 C3494 1.366 . S
C3495 C3499 1.385 . S
C3496 H3477 0.951 . S
C3496 C3494 1.388 . S
C3496 C3497 1.366 . S
C3497 C3496 1.366 . S
C3497 C3498 1.414 . S
C3497 C3500 1.499 . S
C3498 H3478 0.950 . S
C3498 C3497 1.414 . S
C3498 C3499 1.374 . S
C3499 H3479 0.950 . S
C3499 C3495 1.385 . S
C3499 C3498 1.374 . S
C3500 C3497 1.499 . S
C3500 C3501 1.373 . S
C3500 C3502 1.389 . S
C3501 H3480 0.950 . S
C3501 C3500 1.373 . S
C3501 C3517 1.377 . S
C3502 C3500 1.389 . S
C3502 C3503 1.524 . S
C3502 C3516 1.377 . S
C3503 C3502 1.524 . S
C3503 C3504 1.397 . S
C3503 C3508 1.363 . S
C3504 H3481 0.950 . S
C3504 C3503 1.397 . S
C3504 C3505 1.334 . S
C3505 H3482 0.950 . S
C3505 C3504 1.334 . S
C3505 C3506 1.287 . S
C3506 C3505 1.287 . S
C3506 C3507 1.527 . S
C3506 H3525 0.913 1_556 S
C3507 H3483 0.937 1_556 S
C3507 C3506 1.527 . S
C3507 C3508 1.426 . S
C3508 H3484 0.950 . S
C3508 C3503 1.363 . S
C3508 C3507 1.426 . S
C3509 H3485 0.951 . S
C3509 C3510 1.366 . S
C3509 C3511 1.388 . S
C3510 C3509 1.366 . S
C3510 C3514 1.385 . S
C3511 H3486 0.951 . S
C3511 C3509 1.388 . S
C3511 C3512 1.366 . S
C3512 C3511 1.366 . S
C3512 C3513 1.414 . S
C3512 C3515 1.499 . S
C3513 H3487 0.950 . S
C3513 C3512 1.414 . S
C3513 C3514 1.374 . S
C3514 H3488 0.950 . S
C3514 C3510 1.385 . S
C3514 C3513 1.374 . S
C3515 C3512 1.499 . S
C3515 C3516 1.373 . S
C3515 C3517 1.389 . S
C3516 H3489 0.950 . S
C3516 C3502 1.377 . S
C3516 C3515 1.373 . S
C3517 C3501 1.377 . S
C3517 C3515 1.389 . S
C3517 C3518 1.524 . S
C3518 C3517 1.524 . S
C3518 C3519 1.397 . S
C3518 C3523 1.363 . S
C3519 H3490 0.950 . S
C3519 C3518 1.397 . S
C3519 C3520 1.334 . S
C3520 H3491 0.950 . S
C3520 C3519 1.334 . S
C3520 C3521 1.287 . S
C3521 C3520 1.287 . S
C3521 C3522 1.524 . S
C3521 H3524 0.999 . S
C3522 H3492 0.950 . S
C3522 C3521 1.524 . S
C3522 C3523 1.415 . S
C3523 H3493 0.950 . S
C3523 C3518 1.363 . S
C3523 C3522 1.415 . S
H3524 C3521 0.999 . S
H3525 C3506 0.913 1_554 S
H3526 C3544 0.951 . S
H3527 C3546 0.951 . S
H3528 C3548 0.950 . S
H3529 C3549 0.950 1_554 S
H3530 C3551 0.950 . S
H3531 C3554 0.950 . S
H3532 C3555 0.950 . S
H3533 C3557 0.950 . S
H3534 C3558 0.950 . S
H3535 C3559 0.951 . S
H3536 C3561 0.951 . S
H3537 C3563 0.950 . S
H3538 C3564 0.950 . S
H3539 C3566 0.950 . S
H3540 C3569 0.950 . S
H3541 C3570 0.950 . S
H3542 C3572 0.950 . S
H3543 C3573 0.950 . S
C3544 H3526 0.951 . S
C3544 C3545 1.366 . S
C3544 C3546 1.388 . S
C3545 C3544 1.366 . S
C3545 C3549 1.385 . S
C3546 H3527 0.951 . S
C3546 C3544 1.388 . S
C3546 C3547 1.366 . S
C3547 C3546 1.366 . S
C3547 C3548 1.414 . S
C3547 C3550 1.499 . S
C3548 H3528 0.950 . S
C3548 C3547 1.414 . S
C3548 C3549 1.374 . S
C3549 H3529 0.950 1_556 S
C3549 C3545 1.385 . S
C3549 C3548 1.374 . S
C3550 C3547 1.499 . S
C3550 C3551 1.373 . S
C3550 C3552 1.389 . S
C3551 H3530 0.950 . S
C3551 C3550 1.373 . S
C3551 C3567 1.377 . S
C3552 C3550 1.389 . S
C3552 C3553 1.524 . S
C3552 C3566 1.377 . S
C3553 C3552 1.524 . S
C3553 C3554 1.397 . S
C3553 C3558 1.363 . S
C3554 H3531 0.950 . S
C3554 C3553 1.397 . S
C3554 C3555 1.334 . S
C3555 H3532 0.950 . S
C3555 C3554 1.334 . S
C3555 C3556 1.287 . S
C3556 C3555 1.287 . S
C3556 C3557 1.524 . S
C3556 H3575 0.913 . S
C3557 H3533 0.950 . S
C3557 C3556 1.524 . S
C3557 C3558 1.415 . S
C3558 H3534 0.950 . S
C3558 C3553 1.363 . S
C3558 C3557 1.415 . S
C3559 H3535 0.951 . S
C3559 C3560 1.366 . S
C3559 C3561 1.388 . S
C3560 C3559 1.366 . S
C3560 C3564 1.385 . S
C3561 H3536 0.951 . S
C3561 C3559 1.388 . S
C3561 C3562 1.366 . S
C3562 C3561 1.366 . S
C3562 C3563 1.414 . S
C3562 C3565 1.499 . S
C3563 H3537 0.950 . S
C3563 C3562 1.414 . S
C3563 C3564 1.374 . S
C3564 H3538 0.950 . S
C3564 C3560 1.385 . S
C3564 C3563 1.374 . S
C3565 C3562 1.499 . S
C3565 C3566 1.373 . S
C3565 C3567 1.389 . S
C3566 H3539 0.950 . S
C3566 C3552 1.377 . S
C3566 C3565 1.373 . S
C3567 C3551 1.377 . S
C3567 C3565 1.389 . S
C3567 C3568 1.524 . S
C3568 C3567 1.524 . S
C3568 C3569 1.397 . S
C3568 C3573 1.363 . S
C3569 H3540 0.950 . S
C3569 C3568 1.397 . S
C3569 C3570 1.334 . S
C3570 H3541 0.950 . S
C3570 C3569 1.334 . S
C3570 C3571 1.287 . S
C3571 C3570 1.287 . S
C3571 C3572 1.524 . S
C3571 H3574 0.999 . S
C3572 H3542 0.950 . S
C3572 C3571 1.524 . S
C3572 C3573 1.415 . S
C3573 H3543 0.950 . S
C3573 C3568 1.363 . S
C3573 C3572 1.415 . S
H3574 C3571 0.999 . S
H3575 C3556 0.913 . S
H3576 C3594 0.951 1_554 S
H3577 C3596 0.951 . S
H3578 C3598 0.950 . S
H3579 C3599 0.950 . S
H3580 C3601 0.950 . S
H3581 C3604 0.950 . S
H3582 C3605 0.950 . S
H3583 C3607 0.950 . S
H3584 C3608 0.950 . S
H3585 C3609 0.951 . S
H3586 C3611 0.951 . S
H3587 C3613 0.950 . S
H3588 C3614 0.950 . S
H3589 C3616 0.950 . S
H3590 C3619 0.950 . S
H3591 C3620 0.950 . S
H3592 C3622 0.950 . S
H3593 C3623 0.950 . S
C3594 H3576 0.951 1_556 S
C3594 C3595 1.366 . S
C3594 C3596 1.388 . S
C3595 C3594 1.366 . S
C3595 C3599 1.385 . S
C3596 H3577 0.951 . S
C3596 C3594 1.388 . S
C3596 C3597 1.366 . S
C3597 C3596 1.366 . S
C3597 C3598 1.414 . S
C3597 C3600 1.499 . S
C3598 H3578 0.950 . S
C3598 C3597 1.414 . S
C3598 C3599 1.374 . S
C3599 H3579 0.950 . S
C3599 C3595 1.385 . S
C3599 C3598 1.374 . S
C3600 C3597 1.499 . S
C3600 C3601 1.373 . S
C3600 C3602 1.389 . S
C3601 H3580 0.950 . S
C3601 C3600 1.373 . S
C3601 C3617 1.377 . S
C3602 C3600 1.389 . S
C3602 C3603 1.524 . S
C3602 C3616 1.377 . S
C3603 C3602 1.524 . S
C3603 C3604 1.397 . S
C3603 C3608 1.363 . S
C3604 H3581 0.950 . S
C3604 C3603 1.397 . S
C3604 C3605 1.334 . S
C3605 H3582 0.950 . S
C3605 C3604 1.334 . S
C3605 C3606 1.287 . S
C3606 C3605 1.287 . S
C3606 C3607 1.524 . S
C3606 H3625 0.913 . S
C3607 H3583 0.950 . S
C3607 C3606 1.524 . S
C3607 C3608 1.415 . S
C3608 H3584 0.950 . S
C3608 C3603 1.363 . S
C3608 C3607 1.415 . S
C3609 H3585 0.951 . S
C3609 C3610 1.366 . S
C3609 C3611 1.388 . S
C3610 C3609 1.366 . S
C3610 C3614 1.385 . S
C3611 H3586 0.951 . S
C3611 C3609 1.388 . S
C3611 C3612 1.366 . S
C3612 C3611 1.366 . S
C3612 C3613 1.414 . S
C3612 C3615 1.499 . S
C3613 H3587 0.950 . S
C3613 C3612 1.414 . S
C3613 C3614 1.374 . S
C3614 H3588 0.950 . S
C3614 C3610 1.385 . S
C3614 C3613 1.374 . S
C3615 C3612 1.499 . S
C3615 C3616 1.373 . S
C3615 C3617 1.389 . S
C3616 H3589 0.950 . S
C3616 C3602 1.377 . S
C3616 C3615 1.373 . S
C3617 C3601 1.377 . S
C3617 C3615 1.389 . S
C3617 C3618 1.524 . S
C3618 C3617 1.524 . S
C3618 C3619 1.397 . S
C3618 C3623 1.363 . S
C3619 H3590 0.950 . S
C3619 C3618 1.397 . S
C3619 C3620 1.334 . S
C3620 H3591 0.950 . S
C3620 C3619 1.334 . S
C3620 C3621 1.287 . S
C3621 C3620 1.287 . S
C3621 C3622 1.524 . S
C3621 H3624 0.999 . S
C3622 H3592 0.950 . S
C3622 C3621 1.524 . S
C3622 C3623 1.415 . S
C3623 H3593 0.950 . S
C3623 C3618 1.363 . S
C3623 C3622 1.415 . S
H3624 C3621 0.999 . S
H3625 C3606 0.913 . S
H3626 C3644 0.951 1_554 S
H3627 C3646 0.951 . S
H3628 C3648 0.950 . S
H3629 C3649 0.950 . S
H3630 C3651 0.950 . S
H3631 C3654 0.950 . S
H3632 C3655 0.950 . S
H3633 C3657 0.950 . S
H3634 C3658 0.950 . S
H3635 C3659 0.951 . S
H3636 C3661 0.951 . S
H3637 C3663 0.950 . S
H3638 C3664 0.950 . S
H3639 C3666 0.950 . S
H3640 C3669 0.950 . S
H3641 C3670 0.950 . S
H3642 C3672 0.950 . S
H3643 C3673 0.950 . S
C3644 H3626 0.951 1_556 S
C3644 C3645 1.366 . S
C3644 C3646 1.388 . S
C3645 C3644 1.366 . S
C3645 C3649 1.385 . S
C3646 H3627 0.951 . S
C3646 C3644 1.388 . S
C3646 C3647 1.366 . S
C3647 C3646 1.366 . S
C3647 C3648 1.414 . S
C3647 C3650 1.499 . S
C3648 H3628 0.950 . S
C3648 C3647 1.414 . S
C3648 C3649 1.374 . S
C3649 H3629 0.950 . S
C3649 C3645 1.385 . S
C3649 C3648 1.374 . S
C3650 C3647 1.499 . S
C3650 C3651 1.373 . S
C3650 C3652 1.389 . S
C3651 H3630 0.950 . S
C3651 C3650 1.373 . S
C3651 C3667 1.377 . S
C3652 C3650 1.389 . S
C3652 C3653 1.524 . S
C3652 C3666 1.377 . S
C3653 C3652 1.524 . S
C3653 C3654 1.397 . S
C3653 C3658 1.363 . S
C3654 H3631 0.950 . S
C3654 C3653 1.397 . S
C3654 C3655 1.334 . S
C3655 H3632 0.950 . S
C3655 C3654 1.334 . S
C3655 C3656 1.287 . S
C3656 C3655 1.287 . S
C3656 C3657 1.524 . S
C3656 H3675 0.913 . S
C3657 H3633 0.950 . S
C3657 C3656 1.524 . S
C3657 C3658 1.415 . S
C3658 H3634 0.950 . S
C3658 C3653 1.363 . S
C3658 C3657 1.415 . S
C3659 H3635 0.951 . S
C3659 C3660 1.366 . S
C3659 C3661 1.388 . S
C3660 C3659 1.366 . S
C3660 C3664 1.385 . S
C3661 H3636 0.951 . S
C3661 C3659 1.388 . S
C3661 C3662 1.366 . S
C3662 C3661 1.366 . S
C3662 C3663 1.414 . S
C3662 C3665 1.499 . S
C3663 H3637 0.950 . S
C3663 C3662 1.414 . S
C3663 C3664 1.374 . S
C3664 H3638 0.950 . S
C3664 C3660 1.385 . S
C3664 C3663 1.374 . S
C3665 C3662 1.499 . S
C3665 C3666 1.373 . S
C3665 C3667 1.389 . S
C3666 H3639 0.950 . S
C3666 C3652 1.377 . S
C3666 C3665 1.373 . S
C3667 C3651 1.377 . S
C3667 C3665 1.389 . S
C3667 C3668 1.524 . S
C3668 C3667 1.524 . S
C3668 C3669 1.397 . S
C3668 C3673 1.363 . S
C3669 H3640 0.950 . S
C3669 C3668 1.397 . S
C3669 C3670 1.334 . S
C3670 H3641 0.950 . S
C3670 C3669 1.334 . S
C3670 C3671 1.287 . S
C3671 C3670 1.287 . S
C3671 C3672 1.524 . S
C3671 H3674 0.999 . S
C3672 H3642 0.950 . S
C3672 C3671 1.524 . S
C3672 C3673 1.415 . S
C3673 H3643 0.950 . S
C3673 C3668 1.363 . S
C3673 C3672 1.415 . S
H3674 C3671 0.999 . S
H3675 C3656 0.913 . S
H3676 C3694 0.951 1_554 S
H3677 C3696 0.951 . S
H3678 C3698 0.950 . S
H3679 C3699 0.950 . S
H3680 C3701 0.950 . S
H3681 C3704 0.950 . S
H3682 C3705 0.944 1_554 S
H3683 C3707 0.950 . S
H3684 C3708 0.950 . S
H3685 C3709 0.951 . S
H3686 C3711 0.951 . S
H3687 C3713 0.950 . S
H3688 C3714 0.950 . S
H3689 C3716 0.950 . S
H3690 C3719 0.950 . S
H3691 C3720 0.950 . S
H3692 C3722 0.950 . S
H3693 C3723 0.950 . S
C3694 H3676 0.951 1_556 S
C3694 C3695 1.366 . S
C3694 C3696 1.388 . S
C3695 C3694 1.366 . S
C3695 C3699 1.385 . S
C3696 H3677 0.951 . S
C3696 C3694 1.388 . S
C3696 C3697 1.366 . S
C3697 C3696 1.366 . S
C3697 C3698 1.414 . S
C3697 C3700 1.499 . S
C3698 H3678 0.950 . S
C3698 C3697 1.414 . S
C3698 C3699 1.374 . S
C3699 H3679 0.950 . S
C3699 C3695 1.385 . S
C3699 C3698 1.374 . S
C3700 C3697 1.499 . S
C3700 C3701 1.373 . S
C3700 C3702 1.389 . S
C3701 H3680 0.950 . S
C3701 C3700 1.373 . S
C3701 C3717 1.377 . S
C3702 C3700 1.389 . S
C3702 C3703 1.524 . S
C3702 C3716 1.377 . S
C3703 C3702 1.524 . S
C3703 C3704 1.397 . S
C3703 C3708 1.363 . S
C3704 H3681 0.950 . S
C3704 C3703 1.397 . S
C3704 C3705 1.370 . S
C3705 H3682 0.944 1_556 S
C3705 C3704 1.370 . S
C3705 C3706 1.259 1_556 S
C3706 C3705 1.259 1_554 S
C3706 C3707 1.524 . S
C3706 H3725 0.913 . S
C3707 H3683 0.950 . S
C3707 C3706 1.524 . S
C3707 C3708 1.415 1_554 S
C3708 H3684 0.950 . S
C3708 C3703 1.363 . S
C3708 C3707 1.415 1_556 S
C3709 H3685 0.951 . S
C3709 C3710 1.366 . S
C3709 C3711 1.388 . S
C3710 C3709 1.366 . S
C3710 C3714 1.385 . S
C3711 H3686 0.951 . S
C3711 C3709 1.388 . S
C3711 C3712 1.366 . S
C3712 C3711 1.366 . S
C3712 C3713 1.414 . S
C3712 C3715 1.499 . S
C3713 H3687 0.950 . S
C3713 C3712 1.414 . S
C3713 C3714 1.374 . S
C3714 H3688 0.950 . S
C3714 C3710 1.385 . S
C3714 C3713 1.374 . S
C3715 C3712 1.499 . S
C3715 C3716 1.373 . S
C3715 C3717 1.389 . S
C3716 H3689 0.950 . S
C3716 C3702 1.377 . S
C3716 C3715 1.373 . S
C3717 C3701 1.377 . S
C3717 C3715 1.389 . S
C3717 C3718 1.524 . S
C3718 C3717 1.524 . S
C3718 C3719 1.397 . S
C3718 C3723 1.363 . S
C3719 H3690 0.950 . S
C3719 C3718 1.397 . S
C3719 C3720 1.334 . S
C3720 H3691 0.950 . S
C3720 C3719 1.334 . S
C3720 C3721 1.287 . S
C3721 C3720 1.287 . S
C3721 C3722 1.524 . S
C3721 H3724 0.999 . S
C3722 H3692 0.950 . S
C3722 C3721 1.524 . S
C3722 C3723 1.415 . S
C3723 H3693 0.950 . S
C3723 C3718 1.363 . S
C3723 C3722 1.415 . S
H3724 C3721 0.999 . S
H3725 C3706 0.913 . S
H3726 C3744 0.951 . S
H3727 C3746 0.951 . S
H3728 C3748 0.950 . S
H3729 C3749 0.950 . S
H3730 C3751 0.950 . S
H3731 C3754 0.950 . S
H3732 C3755 0.950 . S
H3733 C3757 0.950 . S
H3734 C3758 0.950 . S
H3735 C3759 0.951 . S
H3736 C3761 0.951 . S
H3737 C3763 0.950 . S
H3738 C3764 0.950 . S
H3739 C3766 0.950 . S
H3740 C3769 0.950 . S
H3741 C3770 0.950 . S
H3742 C3772 0.950 . S
H3743 C3773 0.950 . S
C3744 H3726 0.951 . S
C3744 C3745 1.366 . S
C3744 C3746 1.388 . S
C3745 C3744 1.366 . S
C3745 C3749 1.385 . S
C3746 H3727 0.951 . S
C3746 C3744 1.388 . S
C3746 C3747 1.366 . S
C3747 C3746 1.366 . S
C3747 C3748 1.414 . S
C3747 C3750 1.499 . S
C3748 H3728 0.950 . S
C3748 C3747 1.414 . S
C3748 C3749 1.374 . S
C3749 H3729 0.950 . S
C3749 C3745 1.385 . S
C3749 C3748 1.374 . S
C3750 C3747 1.499 . S
C3750 C3751 1.373 . S
C3750 C3752 1.389 . S
C3751 H3730 0.950 . S
C3751 C3750 1.373 . S
C3751 C3767 1.377 . S
C3752 C3750 1.389 . S
C3752 C3753 1.524 . S
C3752 C3766 1.377 . S
C3753 C3752 1.524 . S
C3753 C3754 1.397 . S
C3753 C3758 1.363 . S
C3754 H3731 0.950 . S
C3754 C3753 1.397 . S
C3754 C3755 1.334 . S
C3755 H3732 0.950 . S
C3755 C3754 1.334 . S
C3755 C3756 1.287 . S
C3756 C3755 1.287 . S
C3756 C3757 1.524 . S
C3756 H3775 0.913 . S
C3757 H3733 0.950 . S
C3757 C3756 1.524 . S
C3757 C3758 1.415 . S
C3758 H3734 0.950 . S
C3758 C3753 1.363 . S
C3758 C3757 1.415 . S
C3759 H3735 0.951 . S
C3759 C3760 1.366 . S
C3759 C3761 1.388 . S
C3760 C3759 1.366 . S
C3760 C3764 1.385 . S
C3761 H3736 0.951 . S
C3761 C3759 1.388 . S
C3761 C3762 1.366 . S
C3762 C3761 1.366 . S
C3762 C3763 1.414 . S
C3762 C3765 1.499 . S
C3763 H3737 0.950 . S
C3763 C3762 1.414 . S
C3763 C3764 1.374 . S
C3764 H3738 0.950 . S
C3764 C3760 1.385 . S
C3764 C3763 1.374 . S
C3765 C3762 1.499 . S
C3765 C3766 1.373 . S
C3765 C3767 1.389 . S
C3766 H3739 0.950 . S
C3766 C3752 1.377 . S
C3766 C3765 1.373 . S
C3767 C3751 1.377 . S
C3767 C3765 1.389 . S
C3767 C3768 1.524 . S
C3768 C3767 1.524 . S
C3768 C3769 1.397 . S
C3768 C3773 1.363 . S
C3769 H3740 0.950 . S
C3769 C3768 1.397 . S
C3769 C3770 1.334 . S
C3770 H3741 0.950 . S
C3770 C3769 1.334 . S
C3770 C3771 1.287 . S
C3771 C3770 1.287 . S
C3771 C3772 1.524 . S
C3771 H3774 0.999 . S
C3772 H3742 0.950 . S
C3772 C3771 1.524 . S
C3772 C3773 1.415 . S
C3773 H3743 0.950 . S
C3773 C3768 1.363 . S
C3773 C3772 1.415 . S
H3774 C3771 0.999 . S
H3775 C3756 0.913 . S
H3776 C3794 0.951 . S
H3777 C3796 0.951 . S
H3778 C3798 0.950 . S
H3779 C3799 0.950 . S
H3780 C3801 0.950 . S
H3781 C3804 0.950 . S
H3782 C3805 0.950 . S
H3783 C3807 0.950 . S
H3784 C3808 0.950 . S
H3785 C3809 0.951 . S
H3786 C3811 0.951 . S
H3787 C3813 0.950 . S
H3788 C3814 0.950 . S
H3789 C3816 0.950 . S
H3790 C3819 0.950 . S
H3791 C3820 0.950 . S
H3792 C3822 0.950 . S
H3793 C3823 0.950 . S
C3794 H3776 0.951 . S
C3794 C3795 1.366 . S
C3794 C3796 1.388 . S
C3795 C3794 1.366 . S
C3795 C3799 1.385 . S
C3796 H3777 0.951 . S
C3796 C3794 1.388 . S
C3796 C3797 1.366 . S
C3797 C3796 1.366 . S
C3797 C3798 1.414 . S
C3797 C3800 1.499 . S
C3798 H3778 0.950 . S
C3798 C3797 1.414 . S
C3798 C3799 1.374 . S
C3799 H3779 0.950 . S
C3799 C3795 1.385 . S
C3799 C3798 1.374 . S
C3800 C3797 1.499 . S
C3800 C3801 1.373 . S
C3800 C3802 1.389 . S
C3801 H3780 0.950 . S
C3801 C3800 1.373 . S
C3801 C3817 1.377 . S
C3802 C3800 1.389 . S
C3802 C3803 1.524 . S
C3802 C3816 1.377 . S
C3803 C3802 1.524 . S
C3803 C3804 1.397 . S
C3803 C3808 1.363 . S
C3804 H3781 0.950 . S
C3804 C3803 1.397 . S
C3804 C3805 1.334 . S
C3805 H3782 0.950 . S
C3805 C3804 1.334 . S
C3805 C3806 1.287 . S
C3806 C3805 1.287 . S
C3806 C3807 1.524 . S
C3806 H3825 0.913 . S
C3807 H3783 0.950 . S
C3807 C3806 1.524 . S
C3807 C3808 1.415 . S
C3808 H3784 0.950 . S
C3808 C3803 1.363 . S
C3808 C3807 1.415 . S
C3809 H3785 0.951 . S
C3809 C3810 1.366 . S
C3809 C3811 1.388 . S
C3810 C3809 1.366 . S
C3810 C3814 1.385 . S
C3811 H3786 0.951 . S
C3811 C3809 1.388 . S
C3811 C3812 1.366 . S
C3812 C3811 1.366 . S
C3812 C3813 1.414 . S
C3812 C3815 1.499 . S
C3813 H3787 0.950 . S
C3813 C3812 1.414 . S
C3813 C3814 1.374 . S
C3814 H3788 0.950 . S
C3814 C3810 1.385 . S
C3814 C3813 1.374 . S
C3815 C3812 1.499 . S
C3815 C3816 1.373 . S
C3815 C3817 1.389 . S
C3816 H3789 0.950 . S
C3816 C3802 1.377 . S
C3816 C3815 1.373 . S
C3817 C3801 1.377 . S
C3817 C3815 1.389 . S
C3817 C3818 1.524 . S
C3818 C3817 1.524 . S
C3818 C3819 1.397 . S
C3818 C3823 1.363 . S
C3819 H3790 0.950 . S
C3819 C3818 1.397 . S
C3819 C3820 1.334 . S
C3820 H3791 0.950 . S
C3820 C3819 1.334 . S
C3820 C3821 1.287 . S
C3821 C3820 1.287 . S
C3821 C3822 1.524 . S
C3821 H3824 0.999 . S
C3822 H3792 0.950 . S
C3822 C3821 1.524 . S
C3822 C3823 1.415 . S
C3823 H3793 0.950 . S
C3823 C3818 1.363 . S
C3823 C3822 1.415 . S
H3824 C3821 0.999 . S
H3825 C3806 0.913 . S
H3826 C3844 0.951 . S
H3827 C3846 0.951 . S
H3828 C3848 0.950 . S
H3829 C3849 0.950 . S
H3830 C3851 0.950 . S
H3831 C3854 0.950 . S
H3832 C3855 0.950 . S
H3833 C3857 0.950 . S
H3834 C3858 0.950 . S
H3835 C3859 0.951 . S
H3836 C3861 0.951 . S
H3837 C3863 0.950 . S
H3838 C3864 0.950 . S
H3839 C3866 0.950 . S
H3840 C3869 0.950 . S
H3841 C3870 0.950 . S
H3842 C3872 0.950 . S
H3843 C3873 0.950 . S
C3844 H3826 0.951 . S
C3844 C3845 1.366 . S
C3844 C3846 1.388 . S
C3845 C3844 1.366 . S
C3845 C3849 1.385 . S
C3846 H3827 0.951 . S
C3846 C3844 1.388 . S
C3846 C3847 1.366 . S
C3847 C3846 1.366 . S
C3847 C3848 1.414 . S
C3847 C3850 1.499 . S
C3848 H3828 0.950 . S
C3848 C3847 1.414 . S
C3848 C3849 1.374 . S
C3849 H3829 0.950 . S
C3849 C3845 1.385 . S
C3849 C3848 1.374 . S
C3850 C3847 1.499 . S
C3850 C3851 1.373 . S
C3850 C3852 1.389 . S
C3851 H3830 0.950 . S
C3851 C3850 1.373 . S
C3851 C3867 1.377 . S
C3852 C3850 1.389 . S
C3852 C3853 1.524 . S
C3852 C3866 1.377 . S
C3853 C3852 1.524 . S
C3853 C3854 1.397 . S
C3853 C3858 1.363 . S
C3854 H3831 0.950 . S
C3854 C3853 1.397 . S
C3854 C3855 1.334 . S
C3855 H3832 0.950 . S
C3855 C3854 1.334 . S
C3855 C3856 1.287 . S
C3856 C3855 1.287 . S
C3856 C3857 1.524 . S
C3856 H3875 0.913 . S
C3857 H3833 0.950 . S
C3857 C3856 1.524 . S
C3857 C3858 1.415 . S
C3858 H3834 0.950 . S
C3858 C3853 1.363 . S
C3858 C3857 1.415 . S
C3859 H3835 0.951 . S
C3859 C3860 1.366 . S
C3859 C3861 1.388 . S
C3860 C3859 1.366 . S
C3860 C3864 1.385 . S
C3861 H3836 0.951 . S
C3861 C3859 1.388 . S
C3861 C3862 1.366 . S
C3862 C3861 1.366 . S
C3862 C3863 1.414 . S
C3862 C3865 1.499 . S
C3863 H3837 0.950 . S
C3863 C3862 1.414 . S
C3863 C3864 1.374 . S
C3864 H3838 0.950 . S
C3864 C3860 1.385 . S
C3864 C3863 1.374 . S
C3865 C3862 1.499 . S
C3865 C3866 1.373 . S
C3865 C3867 1.389 . S
C3866 H3839 0.950 . S
C3866 C3852 1.377 . S
C3866 C3865 1.373 . S
C3867 C3851 1.377 . S
C3867 C3865 1.389 . S
C3867 C3868 1.524 . S
C3868 C3867 1.524 . S
C3868 C3869 1.397 . S
C3868 C3873 1.363 . S
C3869 H3840 0.950 . S
C3869 C3868 1.397 . S
C3869 C3870 1.334 . S
C3870 H3841 0.950 . S
C3870 C3869 1.334 . S
C3870 C3871 1.287 . S
C3871 C3870 1.287 . S
C3871 C3872 1.524 . S
C3871 H3874 0.999 . S
C3872 H3842 0.950 . S
C3872 C3871 1.524 . S
C3872 C3873 1.415 . S
C3873 H3843 0.950 . S
C3873 C3868 1.363 . S
C3873 C3872 1.415 . S
H3874 C3871 0.999 . S
H3875 C3856 0.913 . S
H3876 C3894 0.951 . S
H3877 C3896 0.951 . S
H3878 C3898 0.950 . S
H3879 C3899 0.950 . S
H3880 C3901 0.950 . S
H3881 C3904 0.950 . S
H3882 C3905 0.950 . S
H3883 C3907 0.950 . S
H3884 C3908 0.950 . S
H3885 C3909 0.951 . S
H3886 C3911 0.951 . S
H3887 C3913 0.950 . S
H3888 C3914 0.950 . S
H3889 C3916 0.950 . S
H3890 C3919 0.950 . S
H3891 C3920 0.950 . S
H3892 C3922 0.950 . S
H3893 C3923 0.950 . S
C3894 H3876 0.951 . S
C3894 C3895 1.366 . S
C3894 C3896 1.388 . S
C3895 C3894 1.366 . S
C3895 C3899 1.385 . S
C3896 H3877 0.951 . S
C3896 C3894 1.388 . S
C3896 C3897 1.366 . S
C3897 C3896 1.366 . S
C3897 C3898 1.414 . S
C3897 C3900 1.499 . S
C3898 H3878 0.950 . S
C3898 C3897 1.414 . S
C3898 C3899 1.374 . S
C3899 H3879 0.950 . S
C3899 C3895 1.385 . S
C3899 C3898 1.374 . S
C3900 C3897 1.499 . S
C3900 C3901 1.373 . S
C3900 C3902 1.389 . S
C3901 H3880 0.950 . S
C3901 C3900 1.373 . S
C3901 C3917 1.377 . S
C3902 C3900 1.389 . S
C3902 C3903 1.524 . S
C3902 C3916 1.377 . S
C3903 C3902 1.524 . S
C3903 C3904 1.397 . S
C3903 C3908 1.363 . S
C3904 H3881 0.950 . S
C3904 C3903 1.397 . S
C3904 C3905 1.334 . S
C3905 H3882 0.950 . S
C3905 C3904 1.334 . S
C3905 C3906 1.287 . S
C3906 C3905 1.287 . S
C3906 C3907 1.524 . S
C3906 H3925 0.913 . S
C3907 H3883 0.950 . S
C3907 C3906 1.524 . S
C3907 C3908 1.415 . S
C3908 H3884 0.950 . S
C3908 C3903 1.363 . S
C3908 C3907 1.415 . S
C3909 H3885 0.951 . S
C3909 C3910 1.366 . S
C3909 C3911 1.388 . S
C3910 C3909 1.366 . S
C3910 C3914 1.385 . S
C3911 H3886 0.951 . S
C3911 C3909 1.388 . S
C3911 C3912 1.366 . S
C3912 C3911 1.366 . S
C3912 C3913 1.414 . S
C3912 C3915 1.499 . S
C3913 H3887 0.950 . S
C3913 C3912 1.414 . S
C3913 C3914 1.374 . S
C3914 H3888 0.950 . S
C3914 C3910 1.385 . S
C3914 C3913 1.374 . S
C3915 C3912 1.499 . S
C3915 C3916 1.373 . S
C3915 C3917 1.389 . S
C3916 H3889 0.950 . S
C3916 C3902 1.377 . S
C3916 C3915 1.373 . S
C3917 C3901 1.377 . S
C3917 C3915 1.389 . S
C3917 C3918 1.524 . S
C3918 C3917 1.524 . S
C3918 C3919 1.397 . S
C3918 C3923 1.363 . S
C3919 H3890 0.950 . S
C3919 C3918 1.397 . S
C3919 C3920 1.334 . S
C3920 H3891 0.950 . S
C3920 C3919 1.334 . S
C3920 C3921 1.287 . S
C3921 C3920 1.287 . S
C3921 C3922 1.524 . S
C3921 H3924 0.999 . S
C3922 H3892 0.950 . S
C3922 C3921 1.524 . S
C3922 C3923 1.415 . S
C3923 H3893 0.950 . S
C3923 C3918 1.363 . S
C3923 C3922 1.415 . S
H3924 C3921 0.999 . S
H3925 C3906 0.913 . S
H3926 C3944 0.951 . S
H3927 C3946 0.951 . S
H3928 C3948 0.950 . S
H3929 C3949 0.950 . S
H3930 C3951 0.950 . S
H3931 C3954 0.950 . S
H3932 C3955 0.950 . S
H3933 C3957 0.950 . S
H3934 C3958 0.950 . S
H3935 C3959 0.951 . S
H3936 C3961 0.951 . S
H3937 C3963 0.950 . S
H3938 C3964 0.950 . S
H3939 C3966 0.950 . S
H3940 C3969 0.950 . S
H3941 C3970 0.950 . S
H3942 C3972 0.950 . S
H3943 C3973 0.950 . S
C3944 H3926 0.951 . S
C3944 C3945 1.366 . S
C3944 C3946 1.388 . S
C3945 C3944 1.366 . S
C3945 C3949 1.385 . S
C3946 H3927 0.951 . S
C3946 C3944 1.388 . S
C3946 C3947 1.366 . S
C3947 C3946 1.366 . S
C3947 C3948 1.414 . S
C3947 C3950 1.499 . S
C3948 H3928 0.950 . S
C3948 C3947 1.414 . S
C3948 C3949 1.374 . S
C3949 H3929 0.950 . S
C3949 C3945 1.385 . S
C3949 C3948 1.374 . S
C3950 C3947 1.499 . S
C3950 C3951 1.373 . S
C3950 C3952 1.389 . S
C3951 H3930 0.950 . S
C3951 C3950 1.373 . S
C3951 C3967 1.377 . S
C3952 C3950 1.389 . S
C3952 C3953 1.524 . S
C3952 C3966 1.377 . S
C3953 C3952 1.524 . S
C3953 C3954 1.397 . S
C3953 C3958 1.363 . S
C3954 H3931 0.950 . S
C3954 C3953 1.397 . S
C3954 C3955 1.334 . S
C3955 H3932 0.950 . S
C3955 C3954 1.334 . S
C3955 C3956 1.287 . S
C3956 C3955 1.287 . S
C3956 C3957 1.524 . S
C3956 H3975 0.913 . S
C3957 H3933 0.950 . S
C3957 C3956 1.524 . S
C3957 C3958 1.415 . S
C3958 H3934 0.950 . S
C3958 C3953 1.363 . S
C3958 C3957 1.415 . S
C3959 H3935 0.951 . S
C3959 C3960 1.366 . S
C3959 C3961 1.388 . S
C3960 C3959 1.366 . S
C3960 C3964 1.385 . S
C3961 H3936 0.951 . S
C3961 C3959 1.388 . S
C3961 C3962 1.366 . S
C3962 C3961 1.366 . S
C3962 C3963 1.414 . S
C3962 C3965 1.499 . S
C3963 H3937 0.950 . S
C3963 C3962 1.414 . S
C3963 C3964 1.374 . S
C3964 H3938 0.950 . S
C3964 C3960 1.385 . S
C3964 C3963 1.374 . S
C3965 C3962 1.499 . S
C3965 C3966 1.373 . S
C3965 C3967 1.389 . S
C3966 H3939 0.950 . S
C3966 C3952 1.377 . S
C3966 C3965 1.373 . S
C3967 C3951 1.377 . S
C3967 C3965 1.389 . S
C3967 C3968 1.524 . S
C3968 C3967 1.524 . S
C3968 C3969 1.397 . S
C3968 C3973 1.363 . S
C3969 H3940 0.950 . S
C3969 C3968 1.397 . S
C3969 C3970 1.334 . S
C3970 H3941 0.950 . S
C3970 C3969 1.334 . S
C3970 C3971 1.287 . S
C3971 C3970 1.287 . S
C3971 C3972 1.524 . S
C3971 H3974 0.999 . S
C3972 H3942 0.950 . S
C3972 C3971 1.524 . S
C3972 C3973 1.415 . S
C3973 H3943 0.950 . S
C3973 C3968 1.363 . S
C3973 C3972 1.415 . S
H3974 C3971 0.999 . S
H3975 C3956 0.913 . S
H3976 C3994 0.951 . S
H3977 C3996 0.951 . S
H3978 C3998 0.950 . S
H3979 C3999 0.950 . S
H3980 C4001 0.950 . S
H3981 C4004 0.950 . S
H3982 C4005 0.950 . S
H3983 C4007 0.950 . S
H3984 C4008 0.950 . S
H3985 C4009 0.951 . S
H3986 C4011 0.951 . S
H3987 C4013 0.950 . S
H3988 C4014 0.950 . S
H3989 C4016 0.950 . S
H3990 C4019 0.950 . S
H3991 C4020 0.950 . S
H3992 C4022 0.950 . S
H3993 C4023 0.950 . S
C3994 H3976 0.951 . S
C3994 C3995 1.366 . S
C3994 C3996 1.388 . S
C3995 C3994 1.366 . S
C3995 C3999 1.385 . S
C3996 H3977 0.951 . S
C3996 C3994 1.388 . S
C3996 C3997 1.366 . S
C3997 C3996 1.366 . S
C3997 C3998 1.414 . S
C3997 C4000 1.499 . S
C3998 H3978 0.950 . S
C3998 C3997 1.414 . S
C3998 C3999 1.374 . S
C3999 H3979 0.950 . S
C3999 C3995 1.385 . S
C3999 C3998 1.374 . S
C4000 C3997 1.499 . S
C4000 C4001 1.373 . S
C4000 C4002 1.389 . S
C4001 H3980 0.950 . S
C4001 C4000 1.373 . S
C4001 C4017 1.377 . S
C4002 C4000 1.389 . S
C4002 C4003 1.524 . S
C4002 C4016 1.377 . S
C4003 C4002 1.524 . S
C4003 C4004 1.397 . S
C4003 C4008 1.363 . S
C4004 H3981 0.950 . S
C4004 C4003 1.397 . S
C4004 C4005 1.334 . S
C4005 H3982 0.950 . S
C4005 C4004 1.334 . S
C4005 C4006 1.287 . S
C4006 C4005 1.287 . S
C4006 C4007 1.524 . S
C4006 H4025 0.913 . S
C4007 H3983 0.950 . S
C4007 C4006 1.524 . S
C4007 C4008 1.415 . S
C4008 H3984 0.950 . S
C4008 C4003 1.363 . S
C4008 C4007 1.415 . S
C4009 H3985 0.951 . S
C4009 C4010 1.366 . S
C4009 C4011 1.388 . S
C4010 C4009 1.366 . S
C4010 C4014 1.385 . S
C4011 H3986 0.951 . S
C4011 C4009 1.388 . S
C4011 C4012 1.366 . S
C4012 C4011 1.366 . S
C4012 C4013 1.414 . S
C4012 C4015 1.499 . S
C4013 H3987 0.950 . S
C4013 C4012 1.414 . S
C4013 C4014 1.374 . S
C4014 H3988 0.950 . S
C4014 C4010 1.385 . S
C4014 C4013 1.374 . S
C4015 C4012 1.499 . S
C4015 C4016 1.373 . S
C4015 C4017 1.389 . S
C4016 H3989 0.950 . S
C4016 C4002 1.377 . S
C4016 C4015 1.373 . S
C4017 C4001 1.377 . S
C4017 C4015 1.389 . S
C4017 C4018 1.524 . S
C4018 C4017 1.524 . S
C4018 C4019 1.397 . S
C4018 C4023 1.363 . S
C4019 H3990 0.950 . S
C4019 C4018 1.397 . S
C4019 C4020 1.334 . S
C4020 H3991 0.950 . S
C4020 C4019 1.334 . S
C4020 C4021 1.287 . S
C4021 C4020 1.287 . S
C4021 C4022 1.524 . S
C4021 H4024 0.999 . S
C4022 H3992 0.950 . S
C4022 C4021 1.524 . S
C4022 C4023 1.415 . S
C4023 H3993 0.950 . S
C4023 C4018 1.363 . S
C4023 C4022 1.415 . S
H4024 C4021 0.999 . S
H4025 C4006 0.913 . S
H4026 C4044 0.951 . S
H4027 C4046 0.951 . S
H4028 C4048 0.950 . S
H4029 C4049 0.950 . S
H4030 C4051 0.950 . S
H4031 C4054 0.950 . S
H4032 C4055 0.950 . S
H4033 C4057 0.950 . S
H4034 C4058 0.950 . S
H4035 C4059 0.951 . S
H4036 C4061 0.951 . S
H4037 C4063 0.950 . S
H4038 C4064 0.950 . S
H4039 C4066 0.950 . S
H4040 C4069 0.950 1_455 S
H4041 C4070 0.950 . S
H4042 C4072 0.950 . S
H4043 C4073 0.950 . S
C4044 H4026 0.951 . S
C4044 C4045 1.366 . S
C4044 C4046 1.388 . S
C4045 C4044 1.366 . S
C4045 C4049 1.385 1_455 S
C4046 H4027 0.951 . S
C4046 C4044 1.388 . S
C4046 C4047 1.366 . S
C4047 C4046 1.366 . S
C4047 C4048 1.414 1_455 S
C4047 C4050 1.499 . S
C4048 H4028 0.950 . S
C4048 C4047 1.414 1_655 S
C4048 C4049 1.374 . S
C4049 H4029 0.950 . S
C4049 C4045 1.385 1_655 S
C4049 C4048 1.374 . S
C4050 C4047 1.499 . S
C4050 C4051 1.373 1_455 S
C4050 C4052 1.389 . S
C4051 H4030 0.950 . S
C4051 C4050 1.373 1_655 S
C4051 C4067 1.377 . S
C4052 C4050 1.389 . S
C4052 C4053 1.524 . S
C4052 C4066 1.377 . S
C4053 C4052 1.524 . S
C4053 C4054 1.397 . S
C4053 C4058 1.363 . S
C4054 H4031 0.950 . S
C4054 C4053 1.397 . S
C4054 C4055 1.334 . S
C4055 H4032 0.950 . S
C4055 C4054 1.334 . S
C4055 C4056 1.287 . S
C4056 C4055 1.287 . S
C4056 C4057 1.524 . S
C4056 H4075 0.913 . S
C4057 H4033 0.950 . S
C4057 C4056 1.524 . S
C4057 C4058 1.415 . S
C4058 H4034 0.950 . S
C4058 C4053 1.363 . S
C4058 C4057 1.415 . S
C4059 H4035 0.951 . S
C4059 C4060 1.366 1_655 S
C4059 C4061 1.388 . S
C4060 C4059 1.366 1_455 S
C4060 C4064 1.385 . S
C4061 H4036 0.951 . S
C4061 C4059 1.388 . S
C4061 C4062 1.366 1_655 S
C4062 C4061 1.366 1_455 S
C4062 C4063 1.414 . S
C4062 C4065 1.499 . S
C4063 H4037 0.950 . S
C4063 C4062 1.414 . S
C4063 C4064 1.374 . S
C4064 H4038 0.950 . S
C4064 C4060 1.385 . S
C4064 C4063 1.374 . S
C4065 C4062 1.499 . S
C4065 C4066 1.373 . S
C4065 C4067 1.389 1_455 S
C4066 H4039 0.950 . S
C4066 C4052 1.377 . S
C4066 C4065 1.373 . S
C4067 C4051 1.377 . S
C4067 C4065 1.389 1_655 S
C4067 C4068 1.524 . S
C4068 C4067 1.524 . S
C4068 C4069 1.397 . S
C4068 C4073 1.363 . S
C4069 H4040 0.950 1_655 S
C4069 C4068 1.397 . S
C4069 C4070 1.334 . S
C4070 H4041 0.950 . S
C4070 C4069 1.334 . S
C4070 C4071 1.287 . S
C4071 C4070 1.287 . S
C4071 C4072 1.524 . S
C4071 H4074 0.999 . S
C4072 H4042 0.950 . S
C4072 C4071 1.524 . S
C4072 C4073 1.415 . S
C4073 H4043 0.950 . S
C4073 C4068 1.363 . S
C4073 C4072 1.415 . S
H4074 C4071 0.999 . S
H4075 C4056 0.913 . S
H4076 C4094 0.951 . S
H4077 C4096 0.951 . S
H4078 C4098 0.950 . S
H4079 C4099 0.950 . S
H4080 C4101 0.950 . S
H4081 C4104 0.950 . S
H4082 C4105 0.950 . S
H4083 C4107 0.950 . S
H4084 C4108 0.950 . S
H4085 C4109 0.951 . S
H4086 C4111 0.951 . S
H4087 C4113 0.950 . S
H4088 C4114 0.950 . S
H4089 C4116 0.950 . S
H4090 C4119 0.950 . S
H4091 C4120 0.950 . S
H4092 C4122 0.950 . S
H4093 C4123 0.950 . S
C4094 H4076 0.951 . S
C4094 C4095 1.366 . S
C4094 C4096 1.388 . S
C4095 C4094 1.366 . S
C4095 C4099 1.385 . S
C4096 H4077 0.951 . S
C4096 C4094 1.388 . S
C4096 C4097 1.366 . S
C4097 C4096 1.366 . S
C4097 C4098 1.414 . S
C4097 C4100 1.499 . S
C4098 H4078 0.950 . S
C4098 C4097 1.414 . S
C4098 C4099 1.374 . S
C4099 H4079 0.950 . S
C4099 C4095 1.385 . S
C4099 C4098 1.374 . S
C4100 C4097 1.499 . S
C4100 C4101 1.373 . S
C4100 C4102 1.389 . S
C4101 H4080 0.950 . S
C4101 C4100 1.373 . S
C4101 C4117 1.377 . S
C4102 C4100 1.389 . S
C4102 C4103 1.524 . S
C4102 C4116 1.377 . S
C4103 C4102 1.524 . S
C4103 C4104 1.397 . S
C4103 C4108 1.363 . S
C4104 H4081 0.950 . S
C4104 C4103 1.397 . S
C4104 C4105 1.334 . S
C4105 H4082 0.950 . S
C4105 C4104 1.334 . S
C4105 C4106 1.287 . S
C4106 C4105 1.287 . S
C4106 C4107 1.524 . S
C4106 H4125 0.913 . S
C4107 H4083 0.950 . S
C4107 C4106 1.524 . S
C4107 C4108 1.415 . S
C4108 H4084 0.950 . S
C4108 C4103 1.363 . S
C4108 C4107 1.415 . S
C4109 H4085 0.951 . S
C4109 C4110 1.366 . S
C4109 C4111 1.388 . S
C4110 C4109 1.366 . S
C4110 C4114 1.385 . S
C4111 H4086 0.951 . S
C4111 C4109 1.388 . S
C4111 C4112 1.366 . S
C4112 C4111 1.366 . S
C4112 C4113 1.414 . S
C4112 C4115 1.499 . S
C4113 H4087 0.950 . S
C4113 C4112 1.414 . S
C4113 C4114 1.374 . S
C4114 H4088 0.950 . S
C4114 C4110 1.385 . S
C4114 C4113 1.374 . S
C4115 C4112 1.499 . S
C4115 C4116 1.373 . S
C4115 C4117 1.389 . S
C4116 H4089 0.950 . S
C4116 C4102 1.377 . S
C4116 C4115 1.373 . S
C4117 C4101 1.377 . S
C4117 C4115 1.389 . S
C4117 C4118 1.524 . S
C4118 C4117 1.524 . S
C4118 C4119 1.397 . S
C4118 C4123 1.363 . S
C4119 H4090 0.950 . S
C4119 C4118 1.397 . S
C4119 C4120 1.334 . S
C4120 H4091 0.950 . S
C4120 C4119 1.334 . S
C4120 C4121 1.287 . S
C4121 C4120 1.287 . S
C4121 C4122 1.524 . S
C4121 H4124 0.999 . S
C4122 H4092 0.950 . S
C4122 C4121 1.524 . S
C4122 C4123 1.415 . S
C4123 H4093 0.950 . S
C4123 C4118 1.363 . S
C4123 C4122 1.415 . S
H4124 C4121 0.999 . S
H4125 C4106 0.913 . S
H4126 C4144 0.951 1_545 S
H4127 C4146 0.951 1_545 S
H4128 C4148 0.950 . S
H4129 C4149 0.950 . S
H4130 C4151 0.950 . S
H4131 C4154 0.950 . S
H4132 C4155 0.950 . S
H4133 C4157 0.950 . S
H4134 C4158 0.950 . S
H4135 C4159 0.951 . S
H4136 C4161 0.951 . S
H4137 C4163 0.950 . S
H4138 C4164 0.950 . S
H4139 C4166 0.950 . S
H4140 C4169 0.950 . S
H4141 C4170 0.950 . S
H4142 C4172 0.950 1_565 S
H4143 C4173 0.950 . S
C4144 H4126 0.951 1_565 S
C4144 C4145 1.366 . S
C4144 C4146 1.388 . S
C4145 C4144 1.366 . S
C4145 C4149 1.385 . S
C4146 H4127 0.951 1_565 S
C4146 C4144 1.388 . S
C4146 C4147 1.366 . S
C4147 C4146 1.366 . S
C4147 C4148 1.414 . S
C4147 C4150 1.499 . S
C4148 H4128 0.950 . S
C4148 C4147 1.414 . S
C4148 C4149 1.374 . S
C4149 H4129 0.950 . S
C4149 C4145 1.385 . S
C4149 C4148 1.374 . S
C4150 C4147 1.499 . S
C4150 C4151 1.373 . S
C4150 C4152 1.389 . S
C4151 H4130 0.950 . S
C4151 C4150 1.373 . S
C4151 C4167 1.377 . S
C4152 C4150 1.389 . S
C4152 C4153 1.524 . S
C4152 C4166 1.377 . S
C4153 C4152 1.524 . S
C4153 C4154 1.397 . S
C4153 C4158 1.363 . S
C4154 H4131 0.950 . S
C4154 C4153 1.397 . S
C4154 C4155 1.334 . S
C4155 H4132 0.950 . S
C4155 C4154 1.334 . S
C4155 C4156 1.287 . S
C4156 C4155 1.287 . S
C4156 C4157 1.524 . S
C4156 H4175 0.913 . S
C4157 H4133 0.950 . S
C4157 C4156 1.524 . S
C4157 C4158 1.415 . S
C4158 H4134 0.950 . S
C4158 C4153 1.363 . S
C4158 C4157 1.415 . S
C4159 H4135 0.951 . S
C4159 C4160 1.366 . S
C4159 C4161 1.388 . S
C4160 C4159 1.366 . S
C4160 C4164 1.385 1_565 S
C4161 H4136 0.951 . S
C4161 C4159 1.388 . S
C4161 C4162 1.366 . S
C4162 C4161 1.366 . S
C4162 C4163 1.414 1_565 S
C4162 C4165 1.499 . S
C4163 H4137 0.950 . S
C4163 C4162 1.414 1_545 S
C4163 C4164 1.374 . S
C4164 H4138 0.950 . S
C4164 C4160 1.385 1_545 S
C4164 C4163 1.374 . S
C4165 C4162 1.499 . S
C4165 C4166 1.373 . S
C4165 C4167 1.389 . S
C4166 H4139 0.950 . S
C4166 C4152 1.377 . S
C4166 C4165 1.373 . S
C4167 C4151 1.377 . S
C4167 C4165 1.389 . S
C4167 C4168 1.524 1_565 S
C4168 C4167 1.524 1_545 S
C4168 C4169 1.397 . S
C4168 C4173 1.363 1_545 S
C4169 H4140 0.950 . S
C4169 C4168 1.397 . S
C4169 C4170 1.334 . S
C4170 H4141 0.950 . S
C4170 C4169 1.334 . S
C4170 C4171 1.287 . S
C4171 C4170 1.287 . S
C4171 C4172 1.524 . S
C4171 H4174 0.999 . S
C4172 H4142 0.950 1_545 S
C4172 C4171 1.524 . S
C4172 C4173 1.415 1_545 S
C4173 H4143 0.950 . S
C4173 C4168 1.363 1_565 S
C4173 C4172 1.415 1_565 S
H4174 C4171 0.999 . S
H4175 C4156 0.913 . S
H4176 C4194 0.951 . S
H4177 C4196 0.951 . S
H4178 C4198 0.950 . S
H4179 C4199 0.950 . S
H4180 C4201 0.950 . S
H4181 C4204 0.950 . S
H4182 C4205 0.950 . S
H4183 C4207 0.950 . S
H4184 C4208 0.950 . S
H4185 C4209 0.941 1_545 S
H4186 C4211 0.949 . S
H4187 C4213 0.950 . S
H4188 C4214 0.950 . S
H4189 C4216 0.950 . S
H4190 C4219 0.950 . S
H4191 C4220 0.950 . S
H4192 C4222 0.950 . S
H4193 C4223 0.950 . S
C4194 H4176 0.951 . S
C4194 C4195 1.366 . S
C4194 C4196 1.388 . S
C4195 C4194 1.366 . S
C4195 C4199 1.385 . S
C4196 H4177 0.951 . S
C4196 C4194 1.388 . S
C4196 C4197 1.366 . S
C4197 C4196 1.366 . S
C4197 C4198 1.414 . S
C4197 C4200 1.499 . S
C4198 H4178 0.950 . S
C4198 C4197 1.414 . S
C4198 C4199 1.374 . S
C4199 H4179 0.950 . S
C4199 C4195 1.385 . S
C4199 C4198 1.374 . S
C4200 C4197 1.499 . S
C4200 C4201 1.373 1_565 S
C4200 C4202 1.389 . S
C4201 H4180 0.950 . S
C4201 C4200 1.373 1_545 S
C4201 C4217 1.377 . S
C4202 C4200 1.389 . S
C4202 C4203 1.524 . S
C4202 C4216 1.377 . S
C4203 C4202 1.524 . S
C4203 C4204 1.397 . S
C4203 C4208 1.363 . S
C4204 H4181 0.950 . S
C4204 C4203 1.397 . S
C4204 C4205 1.334 . S
C4205 H4182 0.950 . S
C4205 C4204 1.334 . S
C4205 C4206 1.287 . S
C4206 C4205 1.287 . S
C4206 C4207 1.524 . S
C4206 H4225 0.913 . S
C4207 H4183 0.950 . S
C4207 C4206 1.524 . S
C4207 C4208 1.415 . S
C4208 H4184 0.950 . S
C4208 C4203 1.363 . S
C4208 C4207 1.415 . S
C4209 H4185 0.941 1_565 S
C4209 C4210 1.342 . S
C4209 C4211 1.431 . S
C4210 C4209 1.342 . S
C4210 C4214 1.385 . S
C4211 H4186 0.949 . S
C4211 C4209 1.431 . S
C4211 C4212 1.366 . S
C4212 C4211 1.366 . S
C4212 C4213 1.414 . S
C4212 C4215 1.499 . S
C4213 H4187 0.950 . S
C4213 C4212 1.414 . S
C4213 C4214 1.374 . S
C4214 H4188 0.950 . S
C4214 C4210 1.385 . S
C4214 C4213 1.374 . S
C4215 C4212 1.499 . S
C4215 C4216 1.373 . S
C4215 C4217 1.389 1_565 S
C4216 H4189 0.950 . S
C4216 C4202 1.377 . S
C4216 C4215 1.373 . S
C4217 C4201 1.377 . S
C4217 C4215 1.389 1_545 S
C4217 C4218 1.524 . S
C4218 C4217 1.524 . S
C4218 C4219 1.397 . S
C4218 C4223 1.363 . S
C4219 H4190 0.950 . S
C4219 C4218 1.397 . S
C4219 C4220 1.334 . S
C4220 H4191 0.950 . S
C4220 C4219 1.334 . S
C4220 C4221 1.287 . S
C4221 C4220 1.287 . S
C4221 C4222 1.524 . S
C4221 H4224 0.999 . S
C4222 H4192 0.950 . S
C4222 C4221 1.524 . S
C4222 C4223 1.415 . S
C4223 H4193 0.950 . S
C4223 C4218 1.363 . S
C4223 C4222 1.415 . S
H4224 C4221 0.999 . S
H4225 C4206 0.913 . S
H4226 C4244 0.951 . S
H4227 C4246 0.951 . S
H4228 C4248 0.966 . S
H4229 C4249 0.950 . S
H4230 C4251 0.950 . S
H4231 C4254 0.950 . S
H4232 C4255 0.950 . S
H4233 C4257 0.950 . S
H4234 C4258 0.950 . S
H4235 C4259 0.951 . S
H4236 C4261 0.951 . S
H4237 C4263 0.950 . S
H4238 C4264 0.950 . S
H4239 C4266 0.950 . S
H4240 C4269 0.950 . S
H4241 C4270 0.950 . S
H4242 C4272 0.950 . S
H4243 C4273 0.950 . S
C4244 H4226 0.951 . S
C4244 C4245 1.366 . S
C4244 C4246 1.388 . S
C4245 C4244 1.366 . S
C4245 C4249 1.385 . S
C4246 H4227 0.951 . S
C4246 C4244 1.388 . S
C4246 C4247 1.366 . S
C4247 C4246 1.366 . S
C4247 C4248 1.414 . S
C4247 C4250 1.499 . S
C4248 H4228 0.966 . S
C4248 C4247 1.414 . S
C4248 C4249 1.374 . S
C4249 H4229 0.950 . S
C4249 C4245 1.385 . S
C4249 C4248 1.374 . S
C4250 C4247 1.499 . S
C4250 C4251 1.373 1_455 S
C4250 C4252 1.389 . S
C4251 H4230 0.950 . S
C4251 C4250 1.373 1_655 S
C4251 C4267 1.377 . S
C4252 C4250 1.389 . S
C4252 C4253 1.524 . S
C4252 C4266 1.377 . S
C4253 C4252 1.524 . S
C4253 C4254 1.397 . S
C4253 C4258 1.363 . S
C4254 H4231 0.950 . S
C4254 C4253 1.397 . S
C4254 C4255 1.334 . S
C4255 H4232 0.950 . S
C4255 C4254 1.334 . S
C4255 C4256 1.287 . S
C4256 C4255 1.287 . S
C4256 C4257 1.524 . S
C4256 H4275 0.913 . S
C4257 H4233 0.950 . S
C4257 C4256 1.524 . S
C4257 C4258 1.415 . S
C4258 H4234 0.950 . S
C4258 C4253 1.363 . S
C4258 C4257 1.415 . S
C4259 H4235 0.951 . S
C4259 C4260 1.366 1_655 S
C4259 C4261 1.388 . S
C4260 C4259 1.366 1_455 S
C4260 C4264 1.385 . S
C4261 H4236 0.951 . S
C4261 C4259 1.388 . S
C4261 C4262 1.366 1_655 S
C4262 C4261 1.366 1_455 S
C4262 C4263 1.414 . S
C4262 C4265 1.499 . S
C4263 H4237 0.950 . S
C4263 C4262 1.414 . S
C4263 C4264 1.374 . S
C4264 H4238 0.950 . S
C4264 C4260 1.385 . S
C4264 C4263 1.374 . S
C4265 C4262 1.499 . S
C4265 C4266 1.373 . S
C4265 C4267 1.389 1_455 S
C4266 H4239 0.950 . S
C4266 C4252 1.377 . S
C4266 C4265 1.373 . S
C4267 C4251 1.377 . S
C4267 C4265 1.389 1_655 S
C4267 C4268 1.524 . S
C4268 C4267 1.524 . S
C4268 C4269 1.397 . S
C4268 C4273 1.363 . S
C4269 H4240 0.950 . S
C4269 C4268 1.397 . S
C4269 C4270 1.334 . S
C4270 H4241 0.950 . S
C4270 C4269 1.334 . S
C4270 C4271 1.287 . S
C4271 C4270 1.287 . S
C4271 C4272 1.524 . S
C4271 H4274 0.999 . S
C4272 H4242 0.950 . S
C4272 C4271 1.524 . S
C4272 C4273 1.415 . S
C4273 H4243 0.950 . S
C4273 C4268 1.363 . S
C4273 C4272 1.415 . S
H4274 C4271 0.999 . S
H4275 C4256 0.913 . S
H4276 C4294 0.951 . S
H4277 C4296 0.951 . S
H4278 C4298 0.950 . S
H4279 C4299 0.950 . S
H4280 C4301 0.950 . S
H4281 C4304 0.950 . S
H4282 C4305 0.950 . S
H4283 C4307 0.950 . S
H4284 C4308 0.950 . S
H4285 C4309 0.951 . S
H4286 C4311 0.951 . S
H4287 C4313 0.950 . S
H4288 C4314 0.950 . S
H4289 C4316 0.950 . S
H4290 C4319 0.950 . S
H4291 C4320 0.950 . S
H4292 C4322 0.950 . S
H4293 C4323 0.950 . S
C4294 H4276 0.951 . S
C4294 C4295 1.366 . S
C4294 C4296 1.388 . S
C4295 C4294 1.366 . S
C4295 C4299 1.385 . S
C4296 H4277 0.951 . S
C4296 C4294 1.388 . S
C4296 C4297 1.366 . S
C4297 C4296 1.366 . S
C4297 C4298 1.414 . S
C4297 C4300 1.499 . S
C4298 H4278 0.950 . S
C4298 C4297 1.414 . S
C4298 C4299 1.374 . S
C4299 H4279 0.950 . S
C4299 C4295 1.385 . S
C4299 C4298 1.374 . S
C4300 C4297 1.499 . S
C4300 C4301 1.373 . S
C4300 C4302 1.389 . S
C4301 H4280 0.950 . S
C4301 C4300 1.373 . S
C4301 C4317 1.377 . S
C4302 C4300 1.389 . S
C4302 C4303 1.524 . S
C4302 C4316 1.377 . S
C4303 C4302 1.524 . S
C4303 C4304 1.397 . S
C4303 C4308 1.363 . S
C4304 H4281 0.950 . S
C4304 C4303 1.397 . S
C4304 C4305 1.334 . S
C4305 H4282 0.950 . S
C4305 C4304 1.334 . S
C4305 C4306 1.287 . S
C4306 C4305 1.287 . S
C4306 C4307 1.524 . S
C4306 H4325 0.913 . S
C4307 H4283 0.950 . S
C4307 C4306 1.524 . S
C4307 C4308 1.415 . S
C4308 H4284 0.950 . S
C4308 C4303 1.363 . S
C4308 C4307 1.415 . S
C4309 H4285 0.951 . S
C4309 C4310 1.366 . S
C4309 C4311 1.388 . S
C4310 C4309 1.366 . S
C4310 C4314 1.385 . S
C4311 H4286 0.951 . S
C4311 C4309 1.388 . S
C4311 C4312 1.366 . S
C4312 C4311 1.366 . S
C4312 C4313 1.414 . S
C4312 C4315 1.499 . S
C4313 H4287 0.950 . S
C4313 C4312 1.414 . S
C4313 C4314 1.374 . S
C4314 H4288 0.950 . S
C4314 C4310 1.385 . S
C4314 C4313 1.374 . S
C4315 C4312 1.499 . S
C4315 C4316 1.373 . S
C4315 C4317 1.389 . S
C4316 H4289 0.950 . S
C4316 C4302 1.377 . S
C4316 C4315 1.373 . S
C4317 C4301 1.377 . S
C4317 C4315 1.389 . S
C4317 C4318 1.524 . S
C4318 C4317 1.524 . S
C4318 C4319 1.397 . S
C4318 C4323 1.363 . S
C4319 H4290 0.950 . S
C4319 C4318 1.397 . S
C4319 C4320 1.334 . S
C4320 H4291 0.950 . S
C4320 C4319 1.334 . S
C4320 C4321 1.287 . S
C4321 C4320 1.287 . S
C4321 C4322 1.524 . S
C4321 H4324 0.999 . S
C4322 H4292 0.950 . S
C4322 C4321 1.524 . S
C4322 C4323 1.415 . S
C4323 H4293 0.950 . S
C4323 C4318 1.363 . S
C4323 C4322 1.415 . S
H4324 C4321 0.999 . S
H4325 C4306 0.913 . S
H4326 C4344 0.951 . S
H4327 C4346 0.951 . S
H4328 C4348 0.950 . S
H4329 C4349 0.950 . S
H4330 C4351 0.950 . S
H4331 C4354 0.950 . S
H4332 C4355 0.950 . S
H4333 C4357 0.950 . S
H4334 C4358 0.950 . S
H4335 C4359 0.951 . S
H4336 C4361 0.951 . S
H4337 C4363 0.950 . S
H4338 C4364 0.950 . S
H4339 C4366 0.950 . S
H4340 C4369 0.950 . S
H4341 C4370 0.950 . S
H4342 C4372 0.950 . S
H4343 C4373 0.950 . S
C4344 H4326 0.951 . S
C4344 C4345 1.366 . S
C4344 C4346 1.388 . S
C4345 C4344 1.366 . S
C4345 C4349 1.385 . S
C4346 H4327 0.951 . S
C4346 C4344 1.388 . S
C4346 C4347 1.366 . S
C4347 C4346 1.366 . S
C4347 C4348 1.414 . S
C4347 C4350 1.499 . S
C4348 H4328 0.950 . S
C4348 C4347 1.414 . S
C4348 C4349 1.374 . S
C4349 H4329 0.950 . S
C4349 C4345 1.385 . S
C4349 C4348 1.374 . S
C4350 C4347 1.499 . S
C4350 C4351 1.373 . S
C4350 C4352 1.389 . S
C4351 H4330 0.950 . S
C4351 C4350 1.373 . S
C4351 C4367 1.377 . S
C4352 C4350 1.389 . S
C4352 C4353 1.524 . S
C4352 C4366 1.377 . S
C4353 C4352 1.524 . S
C4353 C4354 1.397 . S
C4353 C4358 1.363 . S
C4354 H4331 0.950 . S
C4354 C4353 1.397 . S
C4354 C4355 1.334 . S
C4355 H4332 0.950 . S
C4355 C4354 1.334 . S
C4355 C4356 1.287 . S
C4356 C4355 1.287 . S
C4356 C4357 1.524 . S
C4356 H4375 0.913 . S
C4357 H4333 0.950 . S
C4357 C4356 1.524 . S
C4357 C4358 1.415 . S
C4358 H4334 0.950 . S
C4358 C4353 1.363 . S
C4358 C4357 1.415 . S
C4359 H4335 0.951 . S
C4359 C4360 1.366 . S
C4359 C4361 1.388 . S
C4360 C4359 1.366 . S
C4360 C4364 1.385 . S
C4361 H4336 0.951 . S
C4361 C4359 1.388 . S
C4361 C4362 1.366 . S
C4362 C4361 1.366 . S
C4362 C4363 1.414 . S
C4362 C4365 1.499 . S
C4363 H4337 0.950 . S
C4363 C4362 1.414 . S
C4363 C4364 1.374 . S
C4364 H4338 0.950 . S
C4364 C4360 1.385 . S
C4364 C4363 1.374 . S
C4365 C4362 1.499 . S
C4365 C4366 1.373 . S
C4365 C4367 1.389 . S
C4366 H4339 0.950 . S
C4366 C4352 1.377 . S
C4366 C4365 1.373 . S
C4367 C4351 1.377 . S
C4367 C4365 1.389 . S
C4367 C4368 1.524 . S
C4368 C4367 1.524 . S
C4368 C4369 1.397 . S
C4368 C4373 1.363 . S
C4369 H4340 0.950 . S
C4369 C4368 1.397 . S
C4369 C4370 1.334 . S
C4370 H4341 0.950 . S
C4370 C4369 1.334 . S
C4370 C4371 1.287 . S
C4371 C4370 1.287 . S
C4371 C4372 1.524 . S
C4371 H4374 0.999 . S
C4372 H4342 0.950 . S
C4372 C4371 1.524 . S
C4372 C4373 1.415 . S
C4373 H4343 0.950 . S
C4373 C4368 1.363 . S
C4373 C4372 1.415 . S
H4374 C4371 0.999 . S
H4375 C4356 0.913 . S
H4376 C4394 0.951 . S
H4377 C4396 0.951 . S
H4378 C4398 0.950 . S
H4379 C4399 0.950 . S
H4380 C4401 0.950 . S
H4381 C4404 0.950 . S
H4382 C4405 0.950 . S
H4383 C4407 0.950 . S
H4384 C4408 0.950 . S
H4385 C4409 0.951 . S
H4386 C4411 0.951 . S
H4387 C4413 0.950 . S
H4388 C4414 0.950 . S
H4389 C4416 0.950 . S
H4390 C4419 0.950 . S
H4391 C4420 0.950 . S
H4392 C4422 0.950 . S
H4393 C4423 0.950 . S
C4394 H4376 0.951 . S
C4394 C4395 1.366 . S
C4394 C4396 1.388 . S
C4395 C4394 1.366 . S
C4395 C4399 1.385 . S
C4396 H4377 0.951 . S
C4396 C4394 1.388 . S
C4396 C4397 1.366 . S
C4397 C4396 1.366 . S
C4397 C4398 1.414 . S
C4397 C4400 1.499 . S
C4398 H4378 0.950 . S
C4398 C4397 1.414 . S
C4398 C4399 1.374 . S
C4399 H4379 0.950 . S
C4399 C4395 1.385 . S
C4399 C4398 1.374 . S
C4400 C4397 1.499 . S
C4400 C4401 1.373 . S
C4400 C4402 1.389 . S
C4401 H4380 0.950 . S
C4401 C4400 1.373 . S
C4401 C4417 1.377 . S
C4402 C4400 1.389 . S
C4402 C4403 1.524 . S
C4402 C4416 1.377 . S
C4403 C4402 1.524 . S
C4403 C4404 1.397 . S
C4403 C4408 1.363 . S
C4404 H4381 0.950 . S
C4404 C4403 1.397 . S
C4404 C4405 1.334 . S
C4405 H4382 0.950 . S
C4405 C4404 1.334 . S
C4405 C4406 1.287 . S
C4406 C4405 1.287 . S
C4406 C4407 1.524 . S
C4406 H4425 0.913 . S
C4407 H4383 0.950 . S
C4407 C4406 1.524 . S
C4407 C4408 1.415 . S
C4408 H4384 0.950 . S
C4408 C4403 1.363 . S
C4408 C4407 1.415 . S
C4409 H4385 0.951 . S
C4409 C4410 1.366 . S
C4409 C4411 1.388 . S
C4410 C4409 1.366 . S
C4410 C4414 1.385 . S
C4411 H4386 0.951 . S
C4411 C4409 1.388 . S
C4411 C4412 1.366 . S
C4412 C4411 1.366 . S
C4412 C4413 1.414 . S
C4412 C4415 1.499 . S
C4413 H4387 0.950 . S
C4413 C4412 1.414 . S
C4413 C4414 1.374 . S
C4414 H4388 0.950 . S
C4414 C4410 1.385 . S
C4414 C4413 1.374 . S
C4415 C4412 1.499 . S
C4415 C4416 1.373 . S
C4415 C4417 1.389 . S
C4416 H4389 0.950 . S
C4416 C4402 1.377 . S
C4416 C4415 1.373 . S
C4417 C4401 1.377 . S
C4417 C4415 1.389 . S
C4417 C4418 1.524 . S
C4418 C4417 1.524 . S
C4418 C4419 1.397 . S
C4418 C4423 1.363 . S
C4419 H4390 0.950 . S
C4419 C4418 1.397 . S
C4419 C4420 1.334 . S
C4420 H4391 0.950 . S
C4420 C4419 1.334 . S
C4420 C4421 1.287 . S
C4421 C4420 1.287 . S
C4421 C4422 1.524 . S
C4421 H4424 0.999 . S
C4422 H4392 0.950 . S
C4422 C4421 1.524 . S
C4422 C4423 1.415 . S
C4423 H4393 0.950 . S
C4423 C4418 1.363 . S
C4423 C4422 1.415 . S
H4424 C4421 0.999 . S
H4425 C4406 0.913 . S
H4426 C4444 0.951 . S
H4427 C4446 0.951 . S
H4428 C4448 0.950 . S
H4429 C4449 0.950 . S
H4430 C4451 0.950 . S
H4431 C4454 0.950 . S
H4432 C4455 0.950 . S
H4433 C4457 0.950 . S
H4434 C4458 0.950 . S
H4435 C4459 0.951 . S
H4436 C4461 0.951 . S
H4437 C4463 0.950 . S
H4438 C4464 0.950 . S
H4439 C4466 0.950 . S
H4440 C4469 0.950 . S
H4441 C4470 0.950 . S
H4442 C4472 0.950 . S
H4443 C4473 0.950 . S
C4444 H4426 0.951 . S
C4444 C4445 1.366 . S
C4444 C4446 1.388 . S
C4445 C4444 1.366 . S
C4445 C4449 1.385 . S
C4446 H4427 0.951 . S
C4446 C4444 1.388 . S
C4446 C4447 1.366 . S
C4447 C4446 1.366 . S
C4447 C4448 1.414 . S
C4447 C4450 1.499 . S
C4448 H4428 0.950 . S
C4448 C4447 1.414 . S
C4448 C4449 1.374 . S
C4449 H4429 0.950 . S
C4449 C4445 1.385 . S
C4449 C4448 1.374 . S
C4450 C4447 1.499 . S
C4450 C4451 1.373 . S
C4450 C4452 1.389 . S
C4451 H4430 0.950 . S
C4451 C4450 1.373 . S
C4451 C4467 1.377 . S
C4452 C4450 1.389 . S
C4452 C4453 1.524 . S
C4452 C4466 1.377 . S
C4453 C4452 1.524 . S
C4453 C4454 1.397 . S
C4453 C4458 1.363 . S
C4454 H4431 0.950 . S
C4454 C4453 1.397 . S
C4454 C4455 1.334 . S
C4455 H4432 0.950 . S
C4455 C4454 1.334 . S
C4455 C4456 1.287 . S
C4456 C4455 1.287 . S
C4456 C4457 1.524 . S
C4456 H4475 0.913 . S
C4457 H4433 0.950 . S
C4457 C4456 1.524 . S
C4457 C4458 1.415 . S
C4458 H4434 0.950 . S
C4458 C4453 1.363 . S
C4458 C4457 1.415 . S
C4459 H4435 0.951 . S
C4459 C4460 1.366 . S
C4459 C4461 1.388 . S
C4460 C4459 1.366 . S
C4460 C4464 1.385 . S
C4461 H4436 0.951 . S
C4461 C4459 1.388 . S
C4461 C4462 1.366 . S
C4462 C4461 1.366 . S
C4462 C4463 1.414 . S
C4462 C4465 1.499 . S
C4463 H4437 0.950 . S
C4463 C4462 1.414 . S
C4463 C4464 1.374 . S
C4464 H4438 0.950 . S
C4464 C4460 1.385 . S
C4464 C4463 1.374 . S
C4465 C4462 1.499 . S
C4465 C4466 1.373 . S
C4465 C4467 1.389 . S
C4466 H4439 0.950 . S
C4466 C4452 1.377 . S
C4466 C4465 1.373 . S
C4467 C4451 1.377 . S
C4467 C4465 1.389 . S
C4467 C4468 1.524 . S
C4468 C4467 1.524 . S
C4468 C4469 1.397 . S
C4468 C4473 1.363 . S
C4469 H4440 0.950 . S
C4469 C4468 1.397 . S
C4469 C4470 1.334 . S
C4470 H4441 0.950 . S
C4470 C4469 1.334 . S
C4470 C4471 1.287 . S
C4471 C4470 1.287 . S
C4471 C4472 1.524 . S
C4471 H4474 0.999 . S
C4472 H4442 0.950 . S
C4472 C4471 1.524 . S
C4472 C4473 1.415 . S
C4473 H4443 0.950 . S
C4473 C4468 1.363 . S
C4473 C4472 1.415 . S
H4474 C4471 0.999 . S
H4475 C4456 0.913 . S
H4476 C4494 0.951 . S
H4477 C4496 0.951 . S
H4478 C4498 0.950 . S
H4479 C4499 0.950 . S
H4480 C4501 0.950 . S
H4481 C4504 0.950 . S
H4482 C4505 0.950 . S
H4483 C4507 0.950 . S
H4484 C4508 0.950 . S
H4485 C4509 0.951 . S
H4486 C4511 0.951 . S
H4487 C4513 0.942 1_565 S
H4488 C4514 1.010 . S
H4489 C4516 0.950 . S
H4490 C4519 0.950 . S
H4491 C4520 0.950 . S
H4492 C4522 0.950 . S
H4493 C4523 0.950 . S
C4494 H4476 0.951 . S
C4494 C4495 1.366 . S
C4494 C4496 1.388 . S
C4495 C4494 1.366 . S
C4495 C4499 1.385 . S
C4496 H4477 0.951 . S
C4496 C4494 1.388 . S
C4496 C4497 1.366 . S
C4497 C4496 1.366 . S
C4497 C4498 1.414 . S
C4497 C4500 1.499 . S
C4498 H4478 0.950 . S
C4498 C4497 1.414 . S
C4498 C4499 1.374 . S
C4499 H4479 0.950 . S
C4499 C4495 1.385 . S
C4499 C4498 1.374 . S
C4500 C4497 1.499 . S
C4500 C4501 1.373 . S
C4500 C4502 1.389 1_545 S
C4501 H4480 0.950 . S
C4501 C4500 1.373 . S
C4501 C4517 1.377 . S
C4502 C4500 1.389 1_565 S
C4502 C4503 1.524 . S
C4502 C4516 1.377 . S
C4503 C4502 1.524 . S
C4503 C4504 1.397 . S
C4503 C4508 1.363 . S
C4504 H4481 0.950 . S
C4504 C4503 1.397 . S
C4504 C4505 1.334 . S
C4505 H4482 0.950 . S
C4505 C4504 1.334 . S
C4505 C4506 1.287 . S
C4506 C4505 1.287 . S
C4506 C4507 1.524 . S
C4506 H4525 0.913 . S
C4507 H4483 0.950 . S
C4507 C4506 1.524 . S
C4507 C4508 1.415 . S
C4508 H4484 0.950 . S
C4508 C4503 1.363 . S
C4508 C4507 1.415 . S
C4509 H4485 0.951 . S
C4509 C4510 1.366 . S
C4509 C4511 1.388 . S
C4510 C4509 1.366 . S
C4510 C4514 1.370 1_545 S
C4511 H4486 0.951 . S
C4511 C4509 1.388 . S
C4511 C4512 1.366 . S
C4512 C4511 1.366 . S
C4512 C4513 1.442 . S
C4512 C4515 1.499 . S
C4513 H4487 0.942 1_545 S
C4513 C4512 1.442 . S
C4513 C4514 1.318 1_545 S
C4514 H4488 1.010 . S
C4514 C4510 1.370 1_565 S
C4514 C4513 1.318 1_565 S
C4515 C4512 1.499 . S
C4515 C4516 1.373 1_545 S
C4515 C4517 1.389 . S
C4516 H4489 0.950 . S
C4516 C4502 1.377 . S
C4516 C4515 1.373 1_565 S
C4517 C4501 1.377 . S
C4517 C4515 1.389 . S
C4517 C4518 1.524 . S
C4518 C4517 1.524 . S
C4518 C4519 1.397 . S
C4518 C4523 1.363 . S
C4519 H4490 0.950 . S
C4519 C4518 1.397 . S
C4519 C4520 1.334 . S
C4520 H4491 0.950 . S
C4520 C4519 1.334 . S
C4520 C4521 1.287 . S
C4521 C4520 1.287 . S
C4521 C4522 1.524 . S
C4521 H4524 0.999 . S
C4522 H4492 0.950 . S
C4522 C4521 1.524 . S
C4522 C4523 1.415 . S
C4523 H4493 0.950 . S
C4523 C4518 1.363 . S
C4523 C4522 1.415 . S
H4524 C4521 0.999 . S
H4525 C4506 0.913 . S
H4526 C4544 0.951 . S
H4527 C4546 0.951 . S
H4528 C4548 0.950 . S
H4529 C4549 0.950 . S
H4530 C4551 0.950 . S
H4531 C4554 0.950 . S
H4532 C4555 0.950 . S
H4533 C4557 0.950 . S
H4534 C4558 0.950 . S
H4535 C4559 0.951 . S
H4536 C4561 0.951 . S
H4537 C4563 0.950 . S
H4538 C4564 0.950 . S
H4539 C4566 0.950 . S
H4540 C4569 0.950 . S
H4541 C4570 0.950 . S
H4542 C4572 0.950 . S
H4543 C4573 0.950 . S
C4544 H4526 0.951 . S
C4544 C4545 1.366 . S
C4544 C4546 1.388 . S
C4545 C4544 1.366 . S
C4545 C4549 1.385 . S
C4546 H4527 0.951 . S
C4546 C4544 1.388 . S
C4546 C4547 1.366 . S
C4547 C4546 1.366 . S
C4547 C4548 1.414 . S
C4547 C4550 1.499 . S
C4548 H4528 0.950 . S
C4548 C4547 1.414 . S
C4548 C4549 1.374 . S
C4549 H4529 0.950 . S
C4549 C4545 1.385 . S
C4549 C4548 1.374 . S
C4550 C4547 1.499 . S
C4550 C4551 1.373 . S
C4550 C4552 1.389 1_655 S
C4551 H4530 0.950 . S
C4551 C4550 1.373 . S
C4551 C4567 1.377 . S
C4552 C4550 1.389 1_455 S
C4552 C4553 1.524 . S
C4552 C4566 1.377 . S
C4553 C4552 1.524 . S
C4553 C4554 1.397 . S
C4553 C4558 1.363 . S
C4554 H4531 0.950 . S
C4554 C4553 1.397 . S
C4554 C4555 1.334 . S
C4555 H4532 0.950 . S
C4555 C4554 1.334 . S
C4555 C4556 1.287 . S
C4556 C4555 1.287 . S
C4556 C4557 1.524 . S
C4556 H4575 0.913 . S
C4557 H4533 0.950 . S
C4557 C4556 1.524 . S
C4557 C4558 1.415 . S
C4558 H4534 0.950 . S
C4558 C4553 1.363 . S
C4558 C4557 1.415 . S
C4559 H4535 0.951 . S
C4559 C4560 1.366 . S
C4559 C4561 1.388 . S
C4560 C4559 1.366 . S
C4560 C4564 1.385 . S
C4561 H4536 0.951 . S
C4561 C4559 1.388 . S
C4561 C4562 1.366 . S
C4562 C4561 1.366 . S
C4562 C4563 1.414 . S
C4562 C4565 1.499 . S
C4563 H4537 0.950 . S
C4563 C4562 1.414 . S
C4563 C4564 1.374 . S
C4564 H4538 0.950 . S
C4564 C4560 1.385 . S
C4564 C4563 1.374 . S
C4565 C4562 1.499 . S
C4565 C4566 1.373 1_655 S
C4565 C4567 1.389 . S
C4566 H4539 0.950 . S
C4566 C4552 1.377 . S
C4566 C4565 1.373 1_455 S
C4567 C4551 1.377 . S
C4567 C4565 1.389 . S
C4567 C4568 1.524 . S
C4568 C4567 1.524 . S
C4568 C4569 1.397 . S
C4568 C4573 1.363 . S
C4569 H4540 0.950 . S
C4569 C4568 1.397 . S
C4569 C4570 1.334 . S
C4570 H4541 0.950 . S
C4570 C4569 1.334 . S
C4570 C4571 1.287 . S
C4571 C4570 1.287 . S
C4571 C4572 1.524 . S
C4571 H4574 0.999 . S
C4572 H4542 0.950 . S
C4572 C4571 1.524 . S
C4572 C4573 1.415 . S
C4573 H4543 0.950 . S
C4573 C4568 1.363 . S
C4573 C4572 1.415 . S
H4574 C4571 0.999 . S
H4575 C4556 0.913 . S
H4576 C4594 0.951 . S
H4577 C4596 0.951 . S
H4578 C4598 0.950 . S
H4579 C4599 0.950 . S
H4580 C4601 0.950 . S
H4581 C4604 0.950 . S
H4582 C4605 0.950 . S
H4583 C4607 0.950 . S
H4584 C4608 0.950 . S
H4585 C4609 0.951 . S
H4586 C4611 0.951 . S
H4587 C4613 0.950 . S
H4588 C4614 0.950 . S
H4589 C4616 0.950 . S
H4590 C4619 0.950 . S
H4591 C4620 0.950 . S
H4592 C4622 0.950 . S
H4593 C4623 0.950 . S
C4594 H4576 0.951 . S
C4594 C4595 1.366 . S
C4594 C4596 1.388 . S
C4595 C4594 1.366 . S
C4595 C4599 1.385 . S
C4596 H4577 0.951 . S
C4596 C4594 1.388 . S
C4596 C4597 1.366 . S
C4597 C4596 1.366 . S
C4597 C4598 1.414 . S
C4597 C4600 1.499 . S
C4598 H4578 0.950 . S
C4598 C4597 1.414 . S
C4598 C4599 1.374 . S
C4599 H4579 0.950 . S
C4599 C4595 1.385 . S
C4599 C4598 1.374 . S
C4600 C4597 1.499 . S
C4600 C4601 1.373 . S
C4600 C4602 1.389 . S
C4601 H4580 0.950 . S
C4601 C4600 1.373 . S
C4601 C4617 1.377 . S
C4602 C4600 1.389 . S
C4602 C4603 1.524 . S
C4602 C4616 1.377 . S
C4603 C4602 1.524 . S
C4603 C4604 1.397 . S
C4603 C4608 1.363 . S
C4604 H4581 0.950 . S
C4604 C4603 1.397 . S
C4604 C4605 1.334 . S
C4605 H4582 0.950 . S
C4605 C4604 1.334 . S
C4605 C4606 1.287 . S
C4606 C4605 1.287 . S
C4606 C4607 1.524 . S
C4606 H4625 0.913 . S
C4607 H4583 0.950 . S
C4607 C4606 1.524 . S
C4607 C4608 1.415 . S
C4608 H4584 0.950 . S
C4608 C4603 1.363 . S
C4608 C4607 1.415 . S
C4609 H4585 0.951 . S
C4609 C4610 1.366 . S
C4609 C4611 1.388 . S
C4610 C4609 1.366 . S
C4610 C4614 1.385 . S
C4611 H4586 0.951 . S
C4611 C4609 1.388 . S
C4611 C4612 1.366 . S
C4612 C4611 1.366 . S
C4612 C4613 1.414 . S
C4612 C4615 1.499 . S
C4613 H4587 0.950 . S
C4613 C4612 1.414 . S
C4613 C4614 1.374 . S
C4614 H4588 0.950 . S
C4614 C4610 1.385 . S
C4614 C4613 1.374 . S
C4615 C4612 1.499 . S
C4615 C4616 1.373 . S
C4615 C4617 1.389 . S
C4616 H4589 0.950 . S
C4616 C4602 1.377 . S
C4616 C4615 1.373 . S
C4617 C4601 1.377 . S
C4617 C4615 1.389 . S
C4617 C4618 1.524 . S
C4618 C4617 1.524 . S
C4618 C4619 1.397 . S
C4618 C4623 1.363 . S
C4619 H4590 0.950 . S
C4619 C4618 1.397 . S
C4619 C4620 1.334 . S
C4620 H4591 0.950 . S
C4620 C4619 1.334 . S
C4620 C4621 1.287 . S
C4621 C4620 1.287 . S
C4621 C4622 1.524 . S
C4621 H4624 0.999 . S
C4622 H4592 0.950 . S
C4622 C4621 1.524 . S
C4622 C4623 1.415 . S
C4623 H4593 0.950 . S
C4623 C4618 1.363 . S
C4623 C4622 1.415 . S
H4624 C4621 0.999 . S
H4625 C4606 0.913 . S
H4626 C4644 0.951 . S
H4627 C4646 0.951 . S
H4628 C4648 0.950 . S
H4629 C4649 0.950 . S
H4630 C4651 0.950 . S
H4631 C4654 0.950 . S
H4632 C4655 0.950 . S
H4633 C4657 0.950 . S
H4634 C4658 0.950 . S
H4635 C4659 0.951 . S
H4636 C4661 0.951 . S
H4637 C4663 0.950 . S
H4638 C4664 0.950 . S
H4639 C4666 0.950 . S
H4640 C4669 0.950 . S
H4641 C4670 0.950 . S
H4642 C4672 0.950 . S
H4643 C4673 0.950 . S
C4644 H4626 0.951 . S
C4644 C4645 1.366 . S
C4644 C4646 1.388 . S
C4645 C4644 1.366 . S
C4645 C4649 1.385 . S
C4646 H4627 0.951 . S
C4646 C4644 1.388 . S
C4646 C4647 1.366 . S
C4647 C4646 1.366 . S
C4647 C4648 1.414 . S
C4647 C4650 1.499 . S
C4648 H4628 0.950 . S
C4648 C4647 1.414 . S
C4648 C4649 1.374 . S
C4649 H4629 0.950 . S
C4649 C4645 1.385 . S
C4649 C4648 1.374 . S
C4650 C4647 1.499 . S
C4650 C4651 1.373 . S
C4650 C4652 1.389 . S
C4651 H4630 0.950 . S
C4651 C4650 1.373 . S
C4651 C4667 1.377 . S
C4652 C4650 1.389 . S
C4652 C4653 1.524 . S
C4652 C4666 1.377 . S
C4653 C4652 1.524 . S
C4653 C4654 1.397 . S
C4653 C4658 1.363 . S
C4654 H4631 0.950 . S
C4654 C4653 1.397 . S
C4654 C4655 1.334 . S
C4655 H4632 0.950 . S
C4655 C4654 1.334 . S
C4655 C4656 1.287 . S
C4656 C4655 1.287 . S
C4656 C4657 1.524 . S
C4656 H4675 0.913 . S
C4657 H4633 0.950 . S
C4657 C4656 1.524 . S
C4657 C4658 1.415 . S
C4658 H4634 0.950 . S
C4658 C4653 1.363 . S
C4658 C4657 1.415 . S
C4659 H4635 0.951 . S
C4659 C4660 1.366 . S
C4659 C4661 1.388 . S
C4660 C4659 1.366 . S
C4660 C4664 1.385 . S
C4661 H4636 0.951 . S
C4661 C4659 1.388 . S
C4661 C4662 1.366 . S
C4662 C4661 1.366 . S
C4662 C4663 1.414 . S
C4662 C4665 1.499 . S
C4663 H4637 0.950 . S
C4663 C4662 1.414 . S
C4663 C4664 1.374 . S
C4664 H4638 0.950 . S
C4664 C4660 1.385 . S
C4664 C4663 1.374 . S
C4665 C4662 1.499 . S
C4665 C4666 1.373 . S
C4665 C4667 1.389 . S
C4666 H4639 0.950 . S
C4666 C4652 1.377 . S
C4666 C4665 1.373 . S
C4667 C4651 1.377 . S
C4667 C4665 1.389 . S
C4667 C4668 1.524 . S
C4668 C4667 1.524 . S
C4668 C4669 1.397 . S
C4668 C4673 1.363 . S
C4669 H4640 0.950 . S
C4669 C4668 1.397 . S
C4669 C4670 1.334 . S
C4670 H4641 0.950 . S
C4670 C4669 1.334 . S
C4670 C4671 1.287 . S
C4671 C4670 1.287 . S
C4671 C4672 1.524 . S
C4671 H4674 0.999 . S
C4672 H4642 0.950 . S
C4672 C4671 1.524 . S
C4672 C4673 1.415 . S
C4673 H4643 0.950 . S
C4673 C4668 1.363 . S
C4673 C4672 1.415 . S
H4674 C4671 0.999 . S
H4675 C4656 0.913 . S
H4676 C4694 0.951 . S
H4677 C4696 0.951 . S
H4678 C4698 0.950 . S
H4679 C4699 0.950 . S
H4680 C4701 0.950 . S
H4681 C4704 0.950 . S
H4682 C4705 0.950 . S
H4683 C4707 0.950 . S
H4684 C4708 0.950 . S
H4685 C4709 0.951 . S
H4686 C4711 0.951 . S
H4687 C4713 0.950 . S
H4688 C4714 0.950 . S
H4689 C4716 0.950 . S
H4690 C4719 0.950 . S
H4691 C4720 0.950 . S
H4692 C4722 0.950 . S
H4693 C4723 0.950 . S
C4694 H4676 0.951 . S
C4694 C4695 1.366 . S
C4694 C4696 1.388 . S
C4695 C4694 1.366 . S
C4695 C4699 1.385 . S
C4696 H4677 0.951 . S
C4696 C4694 1.388 . S
C4696 C4697 1.366 . S
C4697 C4696 1.366 . S
C4697 C4698 1.414 . S
C4697 C4700 1.499 . S
C4698 H4678 0.950 . S
C4698 C4697 1.414 . S
C4698 C4699 1.374 . S
C4699 H4679 0.950 . S
C4699 C4695 1.385 . S
C4699 C4698 1.374 . S
C4700 C4697 1.499 . S
C4700 C4701 1.373 . S
C4700 C4702 1.389 . S
C4701 H4680 0.950 . S
C4701 C4700 1.373 . S
C4701 C4717 1.377 . S
C4702 C4700 1.389 . S
C4702 C4703 1.524 . S
C4702 C4716 1.377 . S
C4703 C4702 1.524 . S
C4703 C4704 1.397 . S
C4703 C4708 1.363 . S
C4704 H4681 0.950 . S
C4704 C4703 1.397 . S
C4704 C4705 1.334 . S
C4705 H4682 0.950 . S
C4705 C4704 1.334 . S
C4705 C4706 1.287 . S
C4706 C4705 1.287 . S
C4706 C4707 1.524 . S
C4706 H4725 0.913 . S
C4707 H4683 0.950 . S
C4707 C4706 1.524 . S
C4707 C4708 1.415 . S
C4708 H4684 0.950 . S
C4708 C4703 1.363 . S
C4708 C4707 1.415 . S
C4709 H4685 0.951 . S
C4709 C4710 1.366 . S
C4709 C4711 1.388 . S
C4710 C4709 1.366 . S
C4710 C4714 1.385 . S
C4711 H4686 0.951 . S
C4711 C4709 1.388 . S
C4711 C4712 1.366 . S
C4712 C4711 1.366 . S
C4712 C4713 1.414 . S
C4712 C4715 1.499 . S
C4713 H4687 0.950 . S
C4713 C4712 1.414 . S
C4713 C4714 1.374 . S
C4714 H4688 0.950 . S
C4714 C4710 1.385 . S
C4714 C4713 1.374 . S
C4715 C4712 1.499 . S
C4715 C4716 1.373 . S
C4715 C4717 1.389 . S
C4716 H4689 0.950 . S
C4716 C4702 1.377 . S
C4716 C4715 1.373 . S
C4717 C4701 1.377 . S
C4717 C4715 1.389 . S
C4717 C4718 1.524 . S
C4718 C4717 1.524 . S
C4718 C4719 1.397 . S
C4718 C4723 1.363 . S
C4719 H4690 0.950 . S
C4719 C4718 1.397 . S
C4719 C4720 1.334 . S
C4720 H4691 0.950 . S
C4720 C4719 1.334 . S
C4720 C4721 1.287 . S
C4721 C4720 1.287 . S
C4721 C4722 1.524 . S
C4721 H4724 0.999 . S
C4722 H4692 0.950 . S
C4722 C4721 1.524 . S
C4722 C4723 1.415 . S
C4723 H4693 0.950 . S
C4723 C4718 1.363 . S
C4723 C4722 1.415 . S
H4724 C4721 0.999 . S
H4725 C4706 0.913 . S
H4726 C4744 0.951 . S
H4727 C4746 0.951 . S
H4728 C4748 0.950 . S
H4729 C4749 0.950 . S
H4730 C4751 0.950 . S
H4731 C4754 0.950 . S
H4732 C4755 0.950 . S
H4733 C4757 0.950 . S
H4734 C4758 0.950 . S
H4735 C4759 0.951 . S
H4736 C4761 0.951 . S
H4737 C4763 0.950 . S
H4738 C4764 0.950 . S
H4739 C4766 0.950 . S
H4740 C4769 0.950 . S
H4741 C4770 0.950 . S
H4742 C4772 0.950 . S
H4743 C4773 0.950 . S
C4744 H4726 0.951 . S
C4744 C4745 1.366 . S
C4744 C4746 1.388 . S
C4745 C4744 1.366 . S
C4745 C4749 1.385 . S
C4746 H4727 0.951 . S
C4746 C4744 1.388 . S
C4746 C4747 1.366 . S
C4747 C4746 1.366 . S
C4747 C4748 1.414 . S
C4747 C4750 1.499 . S
C4748 H4728 0.950 . S
C4748 C4747 1.414 . S
C4748 C4749 1.374 . S
C4749 H4729 0.950 . S
C4749 C4745 1.385 . S
C4749 C4748 1.374 . S
C4750 C4747 1.499 . S
C4750 C4751 1.373 . S
C4750 C4752 1.389 . S
C4751 H4730 0.950 . S
C4751 C4750 1.373 . S
C4751 C4767 1.377 . S
C4752 C4750 1.389 . S
C4752 C4753 1.524 . S
C4752 C4766 1.377 . S
C4753 C4752 1.524 . S
C4753 C4754 1.397 . S
C4753 C4758 1.363 . S
C4754 H4731 0.950 . S
C4754 C4753 1.397 . S
C4754 C4755 1.334 . S
C4755 H4732 0.950 . S
C4755 C4754 1.334 . S
C4755 C4756 1.287 . S
C4756 C4755 1.287 . S
C4756 C4757 1.524 . S
C4756 H4775 0.913 . S
C4757 H4733 0.950 . S
C4757 C4756 1.524 . S
C4757 C4758 1.415 . S
C4758 H4734 0.950 . S
C4758 C4753 1.363 . S
C4758 C4757 1.415 . S
C4759 H4735 0.951 . S
C4759 C4760 1.366 . S
C4759 C4761 1.388 . S
C4760 C4759 1.366 . S
C4760 C4764 1.385 . S
C4761 H4736 0.951 . S
C4761 C4759 1.388 . S
C4761 C4762 1.366 . S
C4762 C4761 1.366 . S
C4762 C4763 1.414 . S
C4762 C4765 1.499 . S
C4763 H4737 0.950 . S
C4763 C4762 1.414 . S
C4763 C4764 1.374 . S
C4764 H4738 0.950 . S
C4764 C4760 1.385 . S
C4764 C4763 1.374 . S
C4765 C4762 1.499 . S
C4765 C4766 1.373 . S
C4765 C4767 1.389 . S
C4766 H4739 0.950 . S
C4766 C4752 1.377 . S
C4766 C4765 1.373 . S
C4767 C4751 1.377 . S
C4767 C4765 1.389 . S
C4767 C4768 1.524 . S
C4768 C4767 1.524 . S
C4768 C4769 1.397 . S
C4768 C4773 1.363 . S
C4769 H4740 0.950 . S
C4769 C4768 1.397 . S
C4769 C4770 1.334 . S
C4770 H4741 0.950 . S
C4770 C4769 1.334 . S
C4770 C4771 1.287 . S
C4771 C4770 1.287 . S
C4771 C4772 1.524 . S
C4771 H4774 0.999 . S
C4772 H4742 0.950 . S
C4772 C4771 1.524 . S
C4772 C4773 1.415 . S
C4773 H4743 0.950 . S
C4773 C4768 1.363 . S
C4773 C4772 1.415 . S
H4774 C4771 0.999 . S
H4775 C4756 0.913 . S
H4776 C4794 0.951 . S
H4777 C4796 0.951 . S
H4778 C4798 0.950 . S
H4779 C4799 0.950 . S
H4780 C4801 0.950 . S
H4781 C4804 0.950 . S
H4782 C4805 0.950 . S
H4783 C4807 0.950 . S
H4784 C4808 0.950 . S
H4785 C4809 0.951 . S
H4786 C4811 0.951 . S
H4787 C4813 0.950 . S
H4788 C4814 0.950 . S
H4789 C4816 0.950 . S
H4790 C4819 0.950 . S
H4791 C4820 0.950 . S
H4792 C4822 0.950 . S
H4793 C4823 0.950 . S
C4794 H4776 0.951 . S
C4794 C4795 1.366 . S
C4794 C4796 1.388 . S
C4795 C4794 1.366 . S
C4795 C4799 1.385 . S
C4796 H4777 0.951 . S
C4796 C4794 1.388 . S
C4796 C4797 1.366 . S
C4797 C4796 1.366 . S
C4797 C4798 1.414 . S
C4797 C4800 1.499 . S
C4798 H4778 0.950 . S
C4798 C4797 1.414 . S
C4798 C4799 1.374 . S
C4799 H4779 0.950 . S
C4799 C4795 1.385 . S
C4799 C4798 1.374 . S
C4800 C4797 1.499 . S
C4800 C4801 1.373 . S
C4800 C4802 1.389 . S
C4801 H4780 0.950 . S
C4801 C4800 1.373 . S
C4801 C4817 1.377 . S
C4802 C4800 1.389 . S
C4802 C4803 1.524 . S
C4802 C4816 1.377 . S
C4803 C4802 1.524 . S
C4803 C4804 1.397 . S
C4803 C4808 1.363 . S
C4804 H4781 0.950 . S
C4804 C4803 1.397 . S
C4804 C4805 1.334 . S
C4805 H4782 0.950 . S
C4805 C4804 1.334 . S
C4805 C4806 1.287 . S
C4806 C4805 1.287 . S
C4806 C4807 1.524 . S
C4806 H4825 0.913 . S
C4807 H4783 0.950 . S
C4807 C4806 1.524 . S
C4807 C4808 1.415 . S
C4808 H4784 0.950 . S
C4808 C4803 1.363 . S
C4808 C4807 1.415 . S
C4809 H4785 0.951 . S
C4809 C4810 1.366 . S
C4809 C4811 1.388 . S
C4810 C4809 1.366 . S
C4810 C4814 1.385 . S
C4811 H4786 0.951 . S
C4811 C4809 1.388 . S
C4811 C4812 1.366 . S
C4812 C4811 1.366 . S
C4812 C4813 1.414 . S
C4812 C4815 1.499 . S
C4813 H4787 0.950 . S
C4813 C4812 1.414 . S
C4813 C4814 1.374 . S
C4814 H4788 0.950 . S
C4814 C4810 1.385 . S
C4814 C4813 1.374 . S
C4815 C4812 1.499 . S
C4815 C4816 1.373 . S
C4815 C4817 1.389 . S
C4816 H4789 0.950 . S
C4816 C4802 1.377 . S
C4816 C4815 1.373 . S
C4817 C4801 1.377 . S
C4817 C4815 1.389 . S
C4817 C4818 1.524 . S
C4818 C4817 1.524 . S
C4818 C4819 1.397 . S
C4818 C4823 1.363 . S
C4819 H4790 0.950 . S
C4819 C4818 1.397 . S
C4819 C4820 1.334 . S
C4820 H4791 0.950 . S
C4820 C4819 1.334 . S
C4820 C4821 1.287 . S
C4821 C4820 1.287 . S
C4821 C4822 1.524 . S
C4821 H4824 0.999 . S
C4822 H4792 0.950 . S
C4822 C4821 1.524 . S
C4822 C4823 1.415 . S
C4823 H4793 0.950 . S
C4823 C4818 1.363 . S
C4823 C4822 1.415 . S
H4824 C4821 0.999 . S
H4825 C4806 0.913 . S
H4826 C4844 0.951 . S
H4827 C4846 0.951 . S
H4828 C4848 0.950 . S
H4829 C4849 0.950 . S
H4830 C4851 0.950 . S
H4831 C4854 0.950 . S
H4832 C4855 0.950 . S
H4833 C4857 0.950 . S
H4834 C4858 0.950 . S
H4835 C4859 0.951 . S
H4836 C4861 0.951 . S
H4837 C4863 0.950 . S
H4838 C4864 0.950 . S
H4839 C4866 0.950 . S
H4840 C4869 0.950 . S
H4841 C4870 0.950 . S
H4842 C4872 0.950 . S
H4843 C4873 0.950 . S
C4844 H4826 0.951 . S
C4844 C4845 1.366 . S
C4844 C4846 1.388 . S
C4845 C4844 1.366 . S
C4845 C4849 1.385 . S
C4846 H4827 0.951 . S
C4846 C4844 1.388 . S
C4846 C4847 1.366 . S
C4847 C4846 1.366 . S
C4847 C4848 1.414 . S
C4847 C4850 1.499 . S
C4848 H4828 0.950 . S
C4848 C4847 1.414 . S
C4848 C4849 1.374 . S
C4849 H4829 0.950 . S
C4849 C4845 1.385 . S
C4849 C4848 1.374 . S
C4850 C4847 1.499 . S
C4850 C4851 1.373 . S
C4850 C4852 1.389 . S
C4851 H4830 0.950 . S
C4851 C4850 1.373 . S
C4851 C4867 1.377 . S
C4852 C4850 1.389 . S
C4852 C4853 1.524 . S
C4852 C4866 1.377 . S
C4853 C4852 1.524 . S
C4853 C4854 1.397 . S
C4853 C4858 1.363 . S
C4854 H4831 0.950 . S
C4854 C4853 1.397 . S
C4854 C4855 1.334 . S
C4855 H4832 0.950 . S
C4855 C4854 1.334 . S
C4855 C4856 1.287 . S
C4856 C4855 1.287 . S
C4856 C4857 1.524 . S
C4856 H4875 0.913 . S
C4857 H4833 0.950 . S
C4857 C4856 1.524 . S
C4857 C4858 1.415 . S
C4858 H4834 0.950 . S
C4858 C4853 1.363 . S
C4858 C4857 1.415 . S
C4859 H4835 0.951 . S
C4859 C4860 1.366 . S
C4859 C4861 1.388 . S
C4860 C4859 1.366 . S
C4860 C4864 1.385 . S
C4861 H4836 0.951 . S
C4861 C4859 1.388 . S
C4861 C4862 1.366 . S
C4862 C4861 1.366 . S
C4862 C4863 1.414 . S
C4862 C4865 1.499 . S
C4863 H4837 0.950 . S
C4863 C4862 1.414 . S
C4863 C4864 1.374 . S
C4864 H4838 0.950 . S
C4864 C4860 1.385 . S
C4864 C4863 1.374 . S
C4865 C4862 1.499 . S
C4865 C4866 1.373 . S
C4865 C4867 1.389 . S
C4866 H4839 0.950 . S
C4866 C4852 1.377 . S
C4866 C4865 1.373 . S
C4867 C4851 1.377 . S
C4867 C4865 1.389 . S
C4867 C4868 1.524 . S
C4868 C4867 1.524 . S
C4868 C4869 1.397 . S
C4868 C4873 1.363 . S
C4869 H4840 0.950 . S
C4869 C4868 1.397 . S
C4869 C4870 1.334 . S
C4870 H4841 0.950 . S
C4870 C4869 1.334 . S
C4870 C4871 1.287 . S
C4871 C4870 1.287 . S
C4871 C4872 1.524 . S
C4871 H4874 0.999 . S
C4872 H4842 0.950 . S
C4872 C4871 1.524 . S
C4872 C4873 1.415 . S
C4873 H4843 0.950 . S
C4873 C4868 1.363 . S
C4873 C4872 1.415 . S
H4874 C4871 0.999 . S
H4875 C4856 0.913 . S
H4876 C4894 0.951 . S
H4877 C4896 0.951 . S
H4878 C4898 0.950 . S
H4879 C4899 0.950 . S
H4880 C4901 0.950 . S
H4881 C4904 0.950 . S
H4882 C4905 0.950 . S
H4883 C4907 0.950 . S
H4884 C4908 0.950 . S
H4885 C4909 0.951 . S
H4886 C4911 0.951 . S
H4887 C4913 0.950 . S
H4888 C4914 0.950 . S
H4889 C4916 0.950 . S
H4890 C4919 0.950 . S
H4891 C4920 0.950 . S
H4892 C4922 0.950 . S
H4893 C4923 0.950 . S
C4894 H4876 0.951 . S
C4894 C4895 1.366 . S
C4894 C4896 1.388 . S
C4895 C4894 1.366 . S
C4895 C4899 1.385 . S
C4896 H4877 0.951 . S
C4896 C4894 1.388 . S
C4896 C4897 1.366 . S
C4897 C4896 1.366 . S
C4897 C4898 1.414 . S
C4897 C4900 1.499 . S
C4898 H4878 0.950 . S
C4898 C4897 1.414 . S
C4898 C4899 1.374 . S
C4899 H4879 0.950 . S
C4899 C4895 1.385 . S
C4899 C4898 1.374 . S
C4900 C4897 1.499 . S
C4900 C4901 1.373 . S
C4900 C4902 1.389 . S
C4901 H4880 0.950 . S
C4901 C4900 1.373 . S
C4901 C4917 1.377 . S
C4902 C4900 1.389 . S
C4902 C4903 1.524 . S
C4902 C4916 1.377 . S
C4903 C4902 1.524 . S
C4903 C4904 1.397 . S
C4903 C4908 1.363 . S
C4904 H4881 0.950 . S
C4904 C4903 1.397 . S
C4904 C4905 1.334 . S
C4905 H4882 0.950 . S
C4905 C4904 1.334 . S
C4905 C4906 1.287 . S
C4906 C4905 1.287 . S
C4906 C4907 1.524 . S
C4906 H4925 0.913 . S
C4907 H4883 0.950 . S
C4907 C4906 1.524 . S
C4907 C4908 1.415 . S
C4908 H4884 0.950 . S
C4908 C4903 1.363 . S
C4908 C4907 1.415 . S
C4909 H4885 0.951 . S
C4909 C4910 1.366 . S
C4909 C4911 1.388 . S
C4910 C4909 1.366 . S
C4910 C4914 1.385 . S
C4911 H4886 0.951 . S
C4911 C4909 1.388 . S
C4911 C4912 1.366 . S
C4912 C4911 1.366 . S
C4912 C4913 1.414 . S
C4912 C4915 1.499 . S
C4913 H4887 0.950 . S
C4913 C4912 1.414 . S
C4913 C4914 1.374 . S
C4914 H4888 0.950 . S
C4914 C4910 1.385 . S
C4914 C4913 1.374 . S
C4915 C4912 1.499 . S
C4915 C4916 1.373 . S
C4915 C4917 1.389 . S
C4916 H4889 0.950 . S
C4916 C4902 1.377 . S
C4916 C4915 1.373 . S
C4917 C4901 1.377 . S
C4917 C4915 1.389 . S
C4917 C4918 1.524 . S
C4918 C4917 1.524 . S
C4918 C4919 1.397 . S
C4918 C4923 1.363 . S
C4919 H4890 0.950 . S
C4919 C4918 1.397 . S
C4919 C4920 1.334 . S
C4920 H4891 0.950 . S
C4920 C4919 1.334 . S
C4920 C4921 1.287 . S
C4921 C4920 1.287 . S
C4921 C4922 1.524 . S
C4921 H4924 0.999 . S
C4922 H4892 0.950 . S
C4922 C4921 1.524 . S
C4922 C4923 1.415 . S
C4923 H4893 0.950 . S
C4923 C4918 1.363 . S
C4923 C4922 1.415 . S
H4924 C4921 0.999 . S
H4925 C4906 0.913 . S
H4926 C4944 0.971 . S
H4927 C4946 0.951 . S
H4928 C4948 0.950 . S
H4929 C4949 0.950 . S
H4930 C4951 0.950 . S
H4931 C4954 0.950 . S
H4932 C4955 0.950 . S
H4933 C4957 0.950 . S
H4934 C4958 0.950 . S
H4935 C4959 0.951 . S
H4936 C4961 0.951 . S
H4937 C4963 0.950 . S
H4938 C4964 0.950 . S
H4939 C4966 0.950 . S
H4940 C4969 0.950 . S
H4941 C4970 0.950 . S
H4942 C4972 0.950 . S
H4943 C4973 0.950 . S
C4944 H4926 0.971 . S
C4944 C4945 1.316 1_455 S
C4944 C4946 1.422 . S
C4945 C4944 1.316 1_655 S
C4945 C4949 1.385 . S
C4946 H4927 0.951 . S
C4946 C4944 1.422 . S
C4946 C4947 1.366 1_455 S
C4947 C4946 1.366 1_655 S
C4947 C4948 1.414 . S
C4947 C4950 1.499 . S
C4948 H4928 0.950 . S
C4948 C4947 1.414 . S
C4948 C4949 1.374 . S
C4949 H4929 0.950 . S
C4949 C4945 1.385 . S
C4949 C4948 1.374 . S
C4950 C4947 1.499 . S
C4950 C4951 1.373 . S
C4950 C4952 1.389 1_655 S
C4951 H4930 0.950 . S
C4951 C4950 1.373 . S
C4951 C4967 1.377 . S
C4952 C4950 1.389 1_455 S
C4952 C4953 1.524 . S
C4952 C4966 1.377 . S
C4953 C4952 1.524 . S
C4953 C4954 1.397 . S
C4953 C4958 1.363 . S
C4954 H4931 0.950 . S
C4954 C4953 1.397 . S
C4954 C4955 1.334 . S
C4955 H4932 0.950 . S
C4955 C4954 1.334 . S
C4955 C4956 1.287 . S
C4956 C4955 1.287 . S
C4956 C4957 1.524 . S
C4956 H4975 0.913 . S
C4957 H4933 0.950 . S
C4957 C4956 1.524 . S
C4957 C4958 1.415 . S
C4958 H4934 0.950 . S
C4958 C4953 1.363 . S
C4958 C4957 1.415 . S
C4959 H4935 0.951 . S
C4959 C4960 1.366 . S
C4959 C4961 1.388 . S
C4960 C4959 1.366 . S
C4960 C4964 1.385 1_655 S
C4961 H4936 0.951 . S
C4961 C4959 1.388 . S
C4961 C4962 1.366 . S
C4962 C4961 1.366 . S
C4962 C4963 1.414 1_655 S
C4962 C4965 1.499 . S
C4963 H4937 0.950 . S
C4963 C4962 1.414 1_455 S
C4963 C4964 1.374 . S
C4964 H4938 0.950 . S
C4964 C4960 1.385 1_455 S
C4964 C4963 1.374 . S
C4965 C4962 1.499 . S
C4965 C4966 1.373 1_655 S
C4965 C4967 1.389 . S
C4966 H4939 0.950 . S
C4966 C4952 1.377 . S
C4966 C4965 1.373 1_455 S
C4967 C4951 1.377 . S
C4967 C4965 1.389 . S
C4967 C4968 1.524 . S
C4968 C4967 1.524 . S
C4968 C4969 1.397 . S
C4968 C4973 1.363 . S
C4969 H4940 0.950 . S
C4969 C4968 1.397 . S
C4969 C4970 1.334 . S
C4970 H4941 0.950 . S
C4970 C4969 1.334 . S
C4970 C4971 1.287 . S
C4971 C4970 1.287 . S
C4971 C4972 1.524 . S
C4971 H4974 0.999 . S
C4972 H4942 0.950 . S
C4972 C4971 1.524 . S
C4972 C4973 1.415 . S
C4973 H4943 0.950 . S
C4973 C4968 1.363 . S
C4973 C4972 1.415 . S
H4974 C4971 0.999 . S
H4975 C4956 0.913 . S
H4976 C4994 0.951 . S
H4977 C4996 0.951 . S
H4978 C4998 0.950 . S
H4979 C4999 0.950 . S
H4980 C5001 0.950 . S
H4981 C5004 0.950 . S
H4982 C5005 0.950 . S
H4983 C5007 0.950 . S
H4984 C5008 0.950 . S
H4985 C5009 0.951 . S
H4986 C5011 0.951 . S
H4987 C5013 0.950 . S
H4988 C5014 0.950 . S
H4989 C5016 0.950 . S
H4990 C5019 0.950 . S
H4991 C5020 0.950 . S
H4992 C5022 0.950 . S
H4993 C5023 0.950 . S
C4994 H4976 0.951 . S
C4994 C4995 1.366 . S
C4994 C4996 1.388 . S
C4995 C4994 1.366 . S
C4995 C4999 1.385 . S
C4996 H4977 0.951 . S
C4996 C4994 1.388 . S
C4996 C4997 1.366 . S
C4997 C4996 1.366 . S
C4997 C4998 1.414 . S
C4997 C5000 1.499 . S
C4998 H4978 0.950 . S
C4998 C4997 1.414 . S
C4998 C4999 1.374 . S
C4999 H4979 0.950 . S
C4999 C4995 1.385 . S
C4999 C4998 1.374 . S
C5000 C4997 1.499 . S
C5000 C5001 1.373 . S
C5000 C5002 1.389 . S
C5001 H4980 0.950 . S
C5001 C5000 1.373 . S
C5001 C5017 1.377 . S
C5002 C5000 1.389 . S
C5002 C5003 1.524 . S
C5002 C5016 1.377 . S
C5003 C5002 1.524 . S
C5003 C5004 1.397 . S
C5003 C5008 1.363 . S
C5004 H4981 0.950 . S
C5004 C5003 1.397 . S
C5004 C5005 1.334 . S
C5005 H4982 0.950 . S
C5005 C5004 1.334 . S
C5005 C5006 1.287 . S
C5006 C5005 1.287 . S
C5006 C5007 1.524 . S
C5006 H5025 0.913 . S
C5007 H4983 0.950 . S
C5007 C5006 1.524 . S
C5007 C5008 1.415 . S
C5008 H4984 0.950 . S
C5008 C5003 1.363 . S
C5008 C5007 1.415 . S
C5009 H4985 0.951 . S
C5009 C5010 1.366 . S
C5009 C5011 1.388 . S
C5010 C5009 1.366 . S
C5010 C5014 1.385 . S
C5011 H4986 0.951 . S
C5011 C5009 1.388 . S
C5011 C5012 1.366 . S
C5012 C5011 1.366 . S
C5012 C5013 1.414 . S
C5012 C5015 1.499 . S
C5013 H4987 0.950 . S
C5013 C5012 1.414 . S
C5013 C5014 1.374 . S
C5014 H4988 0.950 . S
C5014 C5010 1.385 . S
C5014 C5013 1.374 . S
C5015 C5012 1.499 . S
C5015 C5016 1.373 . S
C5015 C5017 1.389 . S
C5016 H4989 0.950 . S
C5016 C5002 1.377 . S
C5016 C5015 1.373 . S
C5017 C5001 1.377 . S
C5017 C5015 1.389 . S
C5017 C5018 1.524 . S
C5018 C5017 1.524 . S
C5018 C5019 1.397 . S
C5018 C5023 1.363 . S
C5019 H4990 0.950 . S
C5019 C5018 1.397 . S
C5019 C5020 1.334 . S
C5020 H4991 0.950 . S
C5020 C5019 1.334 . S
C5020 C5021 1.287 . S
C5021 C5020 1.287 . S
C5021 C5022 1.524 . S
C5021 H5024 0.999 . S
C5022 H4992 0.950 . S
C5022 C5021 1.524 . S
C5022 C5023 1.415 . S
C5023 H4993 0.950 . S
C5023 C5018 1.363 . S
C5023 C5022 1.415 . S
H5024 C5021 0.999 . S
H5025 C5006 0.913 . S
H5026 C5044 0.951 1_565 S
H5027 C5046 0.951 1_565 S
H5028 C5048 0.950 . S
H5029 C5049 0.950 . S
H5030 C5051 0.950 . S
H5031 C5054 0.950 . S
H5032 C5055 0.950 . S
H5033 C5057 0.950 . S
H5034 C5058 0.977 . S
H5035 C5059 0.951 . S
H5036 C5061 0.951 . S
H5037 C5063 0.950 . S
H5038 C5064 0.950 . S
H5039 C5066 0.950 . S
H5040 C5069 0.950 . S
H5041 C5070 0.950 . S
H5042 C5072 0.945 1_545 S
H5043 C5073 0.950 . S
C5044 H5026 0.951 1_545 S
C5044 C5045 1.366 . S
C5044 C5046 1.388 . S
C5045 C5044 1.366 . S
C5045 C5049 1.385 . S
C5046 H5027 0.951 1_545 S
C5046 C5044 1.388 . S
C5046 C5047 1.366 . S
C5047 C5046 1.366 . S
C5047 C5048 1.414 . S
C5047 C5050 1.499 . S
C5048 H5028 0.950 . S
C5048 C5047 1.414 . S
C5048 C5049 1.374 . S
C5049 H5029 0.950 . S
C5049 C5045 1.385 . S
C5049 C5048 1.374 . S
C5050 C5047 1.499 . S
C5050 C5051 1.373 . S
C5050 C5052 1.389 . S
C5051 H5030 0.950 . S
C5051 C5050 1.373 . S
C5051 C5067 1.377 . S
C5052 C5050 1.389 . S
C5052 C5053 1.524 . S
C5052 C5066 1.377 . S
C5053 C5052 1.524 . S
C5053 C5054 1.397 . S
C5053 C5058 1.363 . S
C5054 H5031 0.950 . S
C5054 C5053 1.397 . S
C5054 C5055 1.334 . S
C5055 H5032 0.950 . S
C5055 C5054 1.334 . S
C5055 C5056 1.287 . S
C5056 C5055 1.287 . S
C5056 C5057 1.524 . S
C5056 H5075 0.913 . S
C5057 H5033 0.950 . S
C5057 C5056 1.524 . S
C5057 C5058 1.415 . S
C5058 H5034 0.977 . S
C5058 C5053 1.363 . S
C5058 C5057 1.415 . S
C5059 H5035 0.951 . S
C5059 C5060 1.366 . S
C5059 C5061 1.388 . S
C5060 C5059 1.366 . S
C5060 C5064 1.385 1_545 S
C5061 H5036 0.951 . S
C5061 C5059 1.388 . S
C5061 C5062 1.366 . S
C5062 C5061 1.366 . S
C5062 C5063 1.414 1_545 S
C5062 C5065 1.499 . S
C5063 H5037 0.950 . S
C5063 C5062 1.414 1_565 S
C5063 C5064 1.374 . S
C5064 H5038 0.950 . S
C5064 C5060 1.385 1_565 S
C5064 C5063 1.374 . S
C5065 C5062 1.499 . S
C5065 C5066 1.373 . S
C5065 C5067 1.389 . S
C5066 H5039 0.950 . S
C5066 C5052 1.377 . S
C5066 C5065 1.373 . S
C5067 C5051 1.377 . S
C5067 C5065 1.389 . S
C5067 C5068 1.524 1_545 S
C5068 C5067 1.524 1_565 S
C5068 C5069 1.397 . S
C5068 C5073 1.363 1_565 S
C5069 H5040 0.950 . S
C5069 C5068 1.397 . S
C5069 C5070 1.334 . S
C5070 H5041 0.950 . S
C5070 C5069 1.334 . S
C5070 C5071 1.287 . S
C5071 C5070 1.287 . S
C5071 C5072 1.562 . S
C5071 H5074 0.999 . S
C5072 H5042 0.945 1_565 S
C5072 C5071 1.562 . S
C5072 C5073 1.389 1_565 S
C5073 H5043 0.950 . S
C5073 C5068 1.363 1_545 S
C5073 C5072 1.389 1_545 S
H5074 C5071 0.999 . S
H5075 C5056 0.913 . S
C1495 C4 1.417 . S
C1510 C1084 1.411 . S
C1545 C38 1.699 . S
C1560 C1130 1.695 . S
C1610 C1162 1.418 . S
C1595 C74 1.388 . S
C1645 C76 1.369 . S
C1660 C1215 1.396 . S
C1695 C2 1.489 . S
C1710 C1261 1.534 . S
C1745 C40 1.526 . S
C1760 C1300 1.529 . S
C1795 C110 1.441 . S
C1810 C1254 1.474 . S
C1860 C1307 1.530 . S
C1845 C148 1.529 . S
C1910 C1208 1.493 . S
C1895 C182 1.451 . S
C1945 C184 1.427 . S
C1960 C1169 1.456 . S
C2010 C1063 1.402 . S
C1995 C112 1.380 . S
C2045 C146 1.629 . S
C2060 C1109 1.626 . S
C2095 C220 1.655 . S
C2110 C1339 1.655 . S
C2145 C254 1.791 . S
C2160 C1406 1.775 . S
C2210 C1452 1.622 . S
C2195 C290 1.636 . S
C2245 C292 1.514 . S
C2260 C663 1.507 . S
C2295 C218 1.697 . S
C2310 C709 1.695 . S
C2345 C256 1.561 . S
C2360 C755 1.549 . S
C2395 C326 1.653 . S
C2410 C702 1.645 . S
C2445 C364 1.599 . S
C2460 C748 1.582 . S
C2510 C656 1.691 . S
C2495 C398 1.698 . S
C2560 C1431 1.679 . S
C2545 C400 1.685 . S
C2610 C1360 1.507 . S
C2595 C328 1.507 . S
C2660 C1385 1.710 . S
C2645 C362 1.723 . S
C2695 C436 1.541 . S
C2710 C787 1.540 . S
C2745 C470 1.756 . S
C2760 C840 1.757 . S
C2795 C506 1.645 . S
C2810 C886 1.646 . S
C2845 C508 1.628 . S
C2860 C932 1.630 . S
C2910 C985 1.676 . S
C2895 C434 1.684 . S
C2960 C1031 1.581 . S
C2945 C472 1.596 . S
C3010 C978 1.769 . S
C2995 C542 1.778 . S
C3060 C1024 1.605 . S
C3045 C580 1.623 . S
C3095 C614 1.673 . S
C3110 C939 1.670 . S
C3160 C893 1.563 . S
C3145 C616 1.558 . S
C3195 C544 1.532 . S
C3210 C808 1.534 . S
C3260 C847 1.676 . S
C3245 C578 1.673 . S
C3310 C670 1.637 . S
C3295 C14 1.614 . S
C3345 C39 1.534 . S
C3360 C716 1.520 . S
C3410 C762 1.548 . S
C3395 C75 1.565 . S
C3460 C794 1.459 . S
C3445 C86 1.439 . S
C3510 C833 1.597 . S
C3495 C3 1.622 . S
C3560 C879 1.510 . S
C3545 C50 1.502 . S
C3595 C111 1.607 . S
C3610 C900 1.590 . S
C3645 C158 1.442 . S
C3660 C801 1.444 . S
C3695 C183 1.703 . S
C3710 C854 1.675 . S
C3745 C194 1.602 . S
C3760 C695 1.628 . S
C3810 C741 1.512 . S
C3795 C122 1.496 . S
C3845 C147 1.438 . S
C3860 C649 1.427 . S
C3910 C925 1.566 . S
C3895 C230 1.558 . S
C3945 C255 1.695 . S
C3960 C992 1.680 . S
C3995 C291 1.608 . S
C4010 C1038 1.590 . S
C4060 C1077 1.272 . S
C4045 C302 1.214 . S
C4095 C219 1.577 . S
C4110 C1123 1.566 . S
C4145 C266 1.322 . S
C4160 C1155 1.386 . S
C4195 C327 1.289 . S
C4210 C1176 1.280 . S
C4245 C374 1.274 . S
C4260 C1070 1.328 . S
C4310 C1116 1.639 . S
C4295 C399 1.653 . S
C4345 C410 1.557 . S
C4360 C971 1.580 . S
C4395 C338 1.571 . S
C4410 C1017 1.597 . S
C4460 C946 1.581 . S
C4445 C363 1.604 . S
C4510 C1222 1.378 . S
C4495 C446 1.313 . S
C4545 C471 1.363 . S
C4560 C1268 1.365 . S
C4595 C507 1.508 . S
C4610 C1293 1.484 . S
C4660 C1346 1.423 . S
C4645 C518 1.414 . S
C4710 C1399 1.671 . S
C4695 C435 1.687 . S
C4745 C482 1.642 . S
C4760 C1445 1.675 . S
C4795 C543 1.521 . S
C4810 C1438 1.506 . S
C4845 C590 1.588 . S
C4860 C1353 1.605 . S
C4910 C1392 1.725 . S
C4895 C615 1.742 . S
C4960 C1247 1.384 . S
C4945 C626 1.314 . S
C5010 C1314 1.510 . S
C4995 C554 1.498 . S
C5045 C579 1.302 . S
C5060 C1201 1.304 . S
