# Generated by pormake.
# Topology anh, (6,3)-cn, num edge types: 1
# Building blocks:
#     Node 0, Type 0, BuildingBlock: BETDEL_clean_sbu_0, # of connection points: 6
#     Node 1, Type 0, BuildingBlock: BETDEL_clean_sbu_0, # of connection points: 6
#     Node 2, Type 0, BuildingBlock: BETDEL_clean_sbu_0, # of connection points: 6
#     Node 3, Type 1, BuildingBlock: MIDCAF_clean_linker_0, # of connection points: 3
#     Node 4, Type 1, BuildingBlock: MIDCAF_clean_linker_0, # of connection points: 3
#     Node 5, Type 1, BuildingBlock: MIDCAF_clean_linker_0, # of connection points: 3
#     Node 6, Type 1, BuildingBlock: MIDCAF_clean_linker_0, # of connection points: 3
#     Node 7, Type 1, BuildingBlock: MIDCAF_clean_linker_0, # of connection points: 3
#     Node 8, Type 1, BuildingBlock: MIDCAF_clean_linker_0, # of connection points: 3
#     Edge 9, Type (0, 1), BuildingBlock: TEMPAE_clean_linker_10, # of connection points: 2
#     Edge 10, Type (0, 1), BuildingBlock: TEMPAE_clean_linker_10, # of connection points: 2
#     Edge 11, Type (0, 1), BuildingBlock: TEMPAE_clean_linker_10, # of connection points: 2
#     Edge 12, Type (0, 1), BuildingBlock: TEMPAE_clean_linker_10, # of connection points: 2
#     Edge 13, Type (0, 1), BuildingBlock: TEMPAE_clean_linker_10, # of connection points: 2
#     Edge 14, Type (0, 1), BuildingBlock: TEMPAE_clean_linker_10, # of connection points: 2
#     Edge 15, Type (0, 1), BuildingBlock: TEMPAE_clean_linker_10, # of connection points: 2
#     Edge 16, Type (0, 1), BuildingBlock: TEMPAE_clean_linker_10, # of connection points: 2
#     Edge 17, Type (0, 1), BuildingBlock: TEMPAE_clean_linker_10, # of connection points: 2
#     Edge 18, Type (0, 1), BuildingBlock: TEMPAE_clean_linker_10, # of connection points: 2
#     Edge 19, Type (0, 1), BuildingBlock: TEMPAE_clean_linker_10, # of connection points: 2
#     Edge 20, Type (0, 1), BuildingBlock: TEMPAE_clean_linker_10, # of connection points: 2
#     Edge 21, Type (0, 1), BuildingBlock: TEMPAE_clean_linker_10, # of connection points: 2
#     Edge 22, Type (0, 1), BuildingBlock: TEMPAE_clean_linker_10, # of connection points: 2
#     Edge 23, Type (0, 1), BuildingBlock: TEMPAE_clean_linker_10, # of connection points: 2
#     Edge 24, Type (0, 1), BuildingBlock: TEMPAE_clean_linker_10, # of connection points: 2
#     Edge 25, Type (0, 1), BuildingBlock: TEMPAE_clean_linker_10, # of connection points: 2
#     Edge 26, Type (0, 1), BuildingBlock: TEMPAE_clean_linker_10, # of connection points: 2
# Relax obj value: 0.141
# Max RMSD: 0.166
# Mean RMSD: 0.133
data_MOF--net-anh--node1-BETDEL_clean_sbu_0--node2-MIDCAF_clean_linker_0--edge1-TEMPAE_clean_linker_10
_symmetry_space_group_name_H-M    P1
_symmetry_Int_Tables_number       1
_symmetry_cell_setting            triclinic
loop_
_symmetry_equiv_pos_as_xyz
'x, y, z'
_cell_length_a     36.26459
_cell_length_b     36.327071
_cell_length_c     65.619344
_cell_angle_alpha  89.989692
_cell_angle_beta   90.230934
_cell_angle_gamma 119.99093
loop_
_atom_site_label
_atom_site_type_symbol
_atom_site_fract_x
_atom_site_fract_y
_atom_site_fract_z
_atom_type_partial_charge
Dy0 Dy 0.04514 0.48925 0.16059 0.0
C1 C 0.93693 0.55891 0.17171 0.0
C2 C 0.10124 0.46139 0.15387 0.0
Dy3 Dy 0.99517 0.53511 0.16187 0.0
O4 O 0.09479 0.4741 0.17124 0.0
O5 O 0.07678 0.46364 0.13999 0.0
O6 O 0.01981 0.46194 0.19143 0.0
O7 O 0.0321 0.52342 0.18407 0.0
C8 C 0.01711 0.49462 0.19734 0.0
C9 C 0.02226 0.53038 0.12463 0.0
O10 O 0.05938 0.59071 0.16936 0.0
O11 O 0.0965 0.55859 0.15741 0.0
O12 O 0.95742 0.56716 0.1546 0.0
O13 O 0.94921 0.53859 0.18364 0.0
O14 O 0.01806 0.56196 0.13094 0.0
O15 O 0.0083 0.5012 0.13786 0.0
O16 O 0.9806 0.4315 0.15619 0.0
O17 O 0.94289 0.46609 0.16312 0.0
C18 C 0.09562 0.59293 0.1638 0.0
C19 C 0.94415 0.43067 0.1597 0.0
Dy20 Dy 0.49045 0.03704 0.49156 0.0
C21 C 0.66788 0.14345 0.50629 0.0
C22 C 0.40738 0.9825 0.48163 0.0
Dy23 Dy 0.58619 0.08593 0.49515 0.0
O24 O 0.421 1.00034 0.49926 0.0
O25 O 0.43918 0.99485 0.46918 0.0
O26 O 0.48545 0.0593 0.52275 0.0
O27 O 0.53546 0.04785 0.51604 0.0
C28 C 0.52047 0.06182 0.52924 0.0
C29 C 0.55715 0.0617 0.45714 0.0
O30 O 0.57685 0.02139 0.50245 0.0
O31 O 0.50701 0.98427 0.49088 0.0
O32 O 0.65653 0.12246 0.48924 0.0
O33 O 0.63451 0.13201 0.51751 0.0
O34 O 0.592 0.06449 0.46412 0.0
O35 O 0.54131 0.0753 0.47022 0.0
O36 O 0.49928 0.1021 0.48602 0.0
O37 O 0.56967 0.13836 0.49671 0.0
C38 C 0.54241 0.98511 0.49718 0.0
C39 C 0.53404 0.13793 0.49144 0.0
Dy40 Dy 0.58127 0.57957 0.82593 0.0
C41 C 0.50979 0.40195 0.83822 0.0
C42 C 0.60969 0.66336 0.81863 0.0
Dy43 Dy 0.53405 0.48384 0.82796 0.0
O44 O 0.60024 0.64537 0.83636 0.0
O45 O 0.60394 0.63556 0.80467 0.0
O46 O 0.61 0.58215 0.85657 0.0
O47 O 0.54768 0.53339 0.84983 0.0
C48 C 0.57723 0.54728 0.86285 0.0
C49 C 0.53795 0.51478 0.79054 0.0
O50 O 0.47924 0.49339 0.83572 0.0
O51 O 0.51191 0.56253 0.82365 0.0
O52 O 0.50164 0.41399 0.82098 0.0
O53 O 0.53025 0.43469 0.85006 0.0
O54 O 0.50599 0.47965 0.79717 0.0
O55 O 0.56769 0.52985 0.80359 0.0
O56 O 0.63816 0.57164 0.82101 0.0
O57 O 0.603 0.49992 0.82909 0.0
C58 C 0.47747 0.52769 0.83026 0.0
C59 C 0.6386 0.53604 0.82505 0.0
C60 C 0.36814 0.89696 0.20436 0.0
C61 C 0.36916 0.87509 0.18694 0.0
C62 C 0.4068 0.89352 0.17524 0.0
C63 C 0.44322 0.93161 0.18159 0.0
H64 H 0.56222 0.094 0.17324 0.0
H65 H 0.62839 0.15627 0.16153 0.0
H66 H 0.69876 0.13231 0.20784 0.0
H67 H 0.63305 0.07178 0.21975 0.0
H68 H 0.58286 0.07533 0.26488 0.0
H69 H 0.58207 0.081 0.30179 0.0
H70 H 0.4476 0.98888 0.30221 0.0
H71 H 0.44853 0.98228 0.26532 0.0
H72 H 0.40171 0.94962 0.22444 0.0
H73 H 0.33954 0.88451 0.21347 0.0
H74 H 0.40867 0.8776 0.16166 0.0
H75 H 0.47225 0.94391 0.17283 0.0
N76 N 0.5173 0.01547 0.1981 0.0
N77 N 0.55148 0.05032 0.22865 0.0
N78 N 0.48201 0.99322 0.2296 0.0
C79 C 0.55241 0.0468 0.20805 0.0
C80 C 0.51645 0.02393 0.23953 0.0
C81 C 0.48176 0.98828 0.20905 0.0
C82 C 0.59231 0.07793 0.19745 0.0
C83 C 0.59205 0.10156 0.18052 0.0
C84 C 0.63008 0.13743 0.17389 0.0
C85 C 0.66918 0.15028 0.184 0.0
C86 C 0.6694 0.12459 0.20001 0.0
C87 C 0.63165 0.08936 0.20671 0.0
C88 C 0.5158 0.02824 0.26204 0.0
C89 C 0.55305 0.05632 0.27278 0.0
C90 C 0.55254 0.0598 0.294 0.0
C91 C 0.51473 0.03547 0.30502 0.0
C92 C 0.4774 0.00768 0.29426 0.0
C93 C 0.47793 0.00405 0.27305 0.0
C94 C 0.44258 0.95207 0.19971 0.0
C95 C 0.40403 0.93465 0.2106 0.0
C96 C 0.49932 0.41085 0.53183 0.0
C97 C 0.52676 0.41184 0.51644 0.0
C98 C 0.55389 0.4514 0.50709 0.0
C99 C 0.55529 0.48901 0.51385 0.0
H100 H 0.51646 0.60857 0.50589 0.0
H101 H 0.51428 0.67244 0.49492 0.0
H102 H 0.58661 0.73934 0.5483 0.0
H103 H 0.58889 0.67683 0.55908 0.0
H104 H 0.57278 0.62843 0.5995 0.0
H105 H 0.57813 0.62781 0.63648 0.0
H106 H 0.53513 0.49343 0.63473 0.0
H107 H 0.53089 0.49419 0.59774 0.0
H108 H 0.48086 0.44614 0.55125 0.0
H109 H 0.477 0.38117 0.53904 0.0
H110 H 0.57562 0.45372 0.49523 0.0
H111 H 0.57818 0.51915 0.50719 0.0
N112 N 0.54166 0.56265 0.53139 0.0
N113 N 0.55215 0.59642 0.56326 0.0
N114 N 0.54037 0.52725 0.56177 0.0
C115 C 0.54893 0.59758 0.54264 0.0
C116 C 0.54796 0.56167 0.57296 0.0
C117 C 0.53743 0.52723 0.54111 0.0
C118 C 0.55233 0.63706 0.53354 0.0
C119 C 0.53248 0.63718 0.51505 0.0
C120 C 0.53113 0.67378 0.50881 0.0
C121 C 0.54945 0.7109 0.52097 0.0
C122 C 0.57111 0.71117 0.53881 0.0
C123 C 0.57256 0.67508 0.54494 0.0
C124 C 0.55138 0.56134 0.59555 0.0
C125 C 0.56452 0.59871 0.60696 0.0
C126 C 0.56743 0.59835 0.62822 0.0
C127 C 0.5571 0.5606 0.63865 0.0
C128 C 0.54405 0.52327 0.62722 0.0
C129 C 0.54135 0.52365 0.60596 0.0
C130 C 0.52976 0.48792 0.53019 0.0
C131 C 0.50109 0.44819 0.53868 0.0
C132 C 0.90839 0.50552 0.87012 0.0
C133 C 0.91098 0.52788 0.85222 0.0
C134 C 0.94913 0.54531 0.84091 0.0
C135 C 0.9844 0.54231 0.84803 0.0
H136 H 0.17015 0.58623 0.88681 0.0
H137 H 0.23486 0.58802 0.87571 0.0
H138 H 0.16151 0.48671 0.83288 0.0
H139 H 0.09654 0.48651 0.84361 0.0
H140 H 0.10554 0.50732 0.93265 0.0
H141 H 0.10222 0.5003 0.96967 0.0
H142 H 0.99483 0.52109 0.97039 0.0
H143 H 0.99712 0.52647 0.93352 0.0
H144 H 0.93969 0.48573 0.89129 0.0
H145 H 0.87934 0.49058 0.87895 0.0
H146 H 0.95227 0.56266 0.827 0.0
H147 H 0.01381 0.55757 0.83949 0.0
N148 N 0.05507 0.52844 0.86591 0.0
N149 N 0.08741 0.52675 0.89693 0.0
N150 N 0.01982 0.51956 0.89713 0.0
C151 C 0.08893 0.53028 0.87628 0.0
C152 C 0.05299 0.52125 0.90747 0.0
C153 C 0.02014 0.52308 0.87649 0.0
C154 C 0.1282 0.53637 0.86605 0.0
C155 C 0.16795 0.56501 0.87467 0.0
C156 C 0.2051 0.56554 0.86847 0.0
C157 C 0.20374 0.53675 0.85371 0.0
C158 C 0.16413 0.50949 0.84425 0.0
C159 C 0.12678 0.50942 0.85031 0.0
C160 C 0.05153 0.51736 0.93004 0.0
C161 C 0.08115 0.51029 0.94071 0.0
C162 C 0.07935 0.50643 0.96198 0.0
C163 C 0.04812 0.50989 0.97311 0.0
C164 C 0.01873 0.51723 0.96238 0.0
C165 C 0.02025 0.52066 0.94116 0.0
C166 C 0.98217 0.52176 0.86658 0.0
C167 C 0.94321 0.50255 0.87715 0.0
C168 C 0.09924 0.72856 0.436 0.0
C169 C 0.11646 0.73188 0.45555 0.0
C170 C 0.09628 0.69716 0.46894 0.0
C171 C 0.06033 0.6594 0.46263 0.0
H172 H 0.96444 0.53459 0.4809 0.0
H173 H 0.92035 0.47231 0.50217 0.0
H174 H 0.83775 0.41047 0.45062 0.0
H175 H 0.88069 0.47194 0.42967 0.0
H176 H 0.91587 0.50001 0.38541 0.0
H177 H 0.91593 0.48646 0.34896 0.0
H178 H 0.02308 0.61279 0.34085 0.0
H179 H 0.02344 0.62655 0.37711 0.0
H180 H 0.05194 0.68933 0.4143 0.0
H181 H 0.11428 0.75453 0.42525 0.0
H182 H 0.10869 0.699 0.48418 0.0
H183 H 0.04611 0.63282 0.47307 0.0
N184 N 0.98439 0.58216 0.44772 0.0
N185 N 0.94832 0.53918 0.41949 0.0
N186 N 1.00362 0.60869 0.4145 0.0
C187 C 0.95344 0.54437 0.44002 0.0
C188 C 0.97331 0.57113 0.40662 0.0
C189 C 0.00936 0.61465 0.43493 0.0
C190 C 0.92618 0.50828 0.45355 0.0
C191 C 0.93656 0.50784 0.47422 0.0
C192 C 0.91152 0.47218 0.48637 0.0
C193 C 0.87543 0.43669 0.47811 0.0
C194 C 0.86487 0.4376 0.45757 0.0
C195 C 0.88984 0.47283 0.44548 0.0
C196 C 0.96998 0.56421 0.38429 0.0
C197 C 0.93918 0.52511 0.37585 0.0
C198 C 0.93903 0.51735 0.35497 0.0
C199 C 0.9698 0.54843 0.34218 0.0
C200 C 0.9994 0.58806 0.35045 0.0
C201 C 0.99944 0.59593 0.37124 0.0
C202 C 0.04423 0.65562 0.44274 0.0
C203 C 0.06363 0.69094 0.42967 0.0
C204 C 0.61507 0.20946 0.79241 0.0
C205 C 0.6008 0.1975 0.8125 0.0
C206 C 0.59753 0.15998 0.82035 0.0
C207 C 0.60739 0.13447 0.80813 0.0
H208 H 0.65911 0.04316 0.80501 0.0
H209 H 0.66007 0.97906 0.81629 0.0
H210 H 0.6021 0.91725 0.75939 0.0
H211 H 0.60164 0.98072 0.748 0.0
H212 H 0.63413 0.0461 0.71032 0.0
H213 H 0.62235 0.04838 0.67402 0.0
H214 H 0.60489 0.1564 0.68303 0.0
H215 H 0.61707 0.15462 0.71958 0.0
H216 H 0.63463 0.19396 0.76469 0.0
H217 H 0.61726 0.23777 0.78575 0.0
H218 H 0.58681 0.1501 0.83581 0.0
H219 H 0.60358 0.10521 0.81442 0.0
N220 N 0.62806 0.08302 0.78126 0.0
N221 N 0.63065 0.06166 0.74782 0.0
N222 N 0.6263 0.12285 0.75342 0.0
C223 C 0.63048 0.05529 0.76818 0.0
C224 C 0.62878 0.09538 0.74028 0.0
C225 C 0.62602 0.11702 0.77391 0.0
C226 C 0.63045 0.01696 0.77562 0.0
C227 C 0.64652 0.01579 0.79499 0.0
C228 C 0.64728 0.97938 0.80139 0.0
C229 C 0.63107 0.94348 0.78867 0.0
C230 C 0.61454 0.94453 0.76948 0.0
C231 C 0.61452 0.98096 0.76296 0.0
C232 C 0.62603 0.09987 0.71797 0.0
C233 C 0.62816 0.07066 0.70466 0.0
C234 C 0.62127 0.07181 0.68383 0.0
C235 C 0.61217 0.1022 0.67578 0.0
C236 C 0.61197 0.1327 0.68886 0.0
C237 C 0.61878 0.13152 0.70979 0.0
C238 C 0.62021 0.14584 0.78779 0.0
C239 C 0.62468 0.18404 0.78024 0.0
C240 C 0.63821 0.45071 0.12418 0.0
C241 C 0.64055 0.46502 0.14429 0.0
C242 C 0.60584 0.46733 0.15225 0.0
C243 C 0.56992 0.45642 0.14012 0.0
H244 H 0.42947 0.40778 0.13855 0.0
H245 H 0.36559 0.40846 0.15043 0.0
H246 H 0.35267 0.45387 0.09157 0.0
H247 H 0.41539 0.45276 0.07959 0.0
H248 H 0.45154 0.42646 0.04278 0.0
H249 H 0.46503 0.43903 0.00653 0.0
H250 H 0.59067 0.4559 0.01495 0.0
H251 H 0.57737 0.44309 0.05147 0.0
H252 H 0.60253 0.43005 0.09653 0.0
H253 H 0.66466 0.44923 0.11744 0.0
H254 H 0.6067 0.47805 0.16773 0.0
H255 H 0.54407 0.45945 0.14651 0.0
N256 N 0.49673 0.43384 0.11349 0.0
N257 N 0.47123 0.42936 0.08017 0.0
N258 N 0.53773 0.43539 0.08551 0.0
C259 C 0.4657 0.4302 0.10054 0.0
C260 C 0.50695 0.43175 0.07248 0.0
C261 C 0.53287 0.43633 0.10602 0.0
C262 C 0.4274 0.43013 0.10814 0.0
C263 C 0.41289 0.41784 0.12819 0.0
C264 C 0.3764 0.41803 0.13495 0.0
C265 C 0.3546 0.43138 0.12188 0.0
C266 C 0.36919 0.44373 0.10194 0.0
C267 C 0.40498 0.44284 0.09509 0.0
C268 C 0.5136 0.43433 0.05015 0.0
C269 C 0.48196 0.4324 0.037 0.0
C270 C 0.48966 0.43973 0.0162 0.0
C271 C 0.52907 0.44899 0.00803 0.0
C272 C 0.55998 0.44875 0.0209 0.0
C273 C 0.55236 0.44157 0.04181 0.0
C274 C 0.56834 0.44345 0.11976 0.0
C275 C 0.60261 0.44004 0.11209 0.0
C276 C 0.16245 0.45473 0.16616 0.0
C277 C 0.13443 0.45015 0.15032 0.0
C278 C 0.19696 0.44837 0.16272 0.0
C279 C 0.20323 0.43678 0.14301 0.0
C280 C 0.17384 0.43018 0.12718 0.0
C281 C 0.13979 0.4372 0.13101 0.0
C282 C 0.22783 0.4561 0.17992 0.0
C283 C 0.17931 0.41736 0.10602 0.0
C284 C 0.31566 0.47081 0.12657 0.0
C285 C 0.31685 0.4331 0.1288 0.0
C286 C 0.27904 0.47252 0.13149 0.0
C287 C 0.24256 0.43537 0.13851 0.0
C288 C 0.24378 0.39728 0.14108 0.0
C289 C 0.2812 0.39669 0.13633 0.0
C290 C 0.27925 0.51396 0.12892 0.0
C291 C 0.2053 0.35701 0.14833 0.0
H292 H 0.15826 0.4647 0.18113 0.0
H293 H 0.11797 0.4335 0.11879 0.0
H294 H 0.23302 0.42864 0.1816 0.0
H295 H 0.25912 0.48433 0.1764 0.0
H296 H 0.21656 0.46165 0.1947 0.0
H297 H 0.15155 0.40954 0.09601 0.0
H298 H 0.20821 0.4437 0.09895 0.0
H299 H 0.1839 0.38939 0.10675 0.0
H300 H 0.34347 0.49898 0.12084 0.0
H301 H 0.28219 0.36747 0.13784 0.0
H302 H 0.2707 0.52321 0.1435 0.0
H303 H 0.255 0.51008 0.11745 0.0
H304 H 0.31074 0.54024 0.12397 0.0
H305 H 0.1945 0.36256 0.16322 0.0
H306 H 0.21183 0.33036 0.14999 0.0
H307 H 0.17866 0.34741 0.13736 0.0
C308 C 0.73856 0.19798 0.49352 0.0
C309 C 0.70888 0.18285 0.50936 0.0
C310 C 0.77134 0.24045 0.49315 0.0
C311 C 0.77476 0.26811 0.50919 0.0
C312 C 0.74815 0.25152 0.52645 0.0
C313 C 0.7151 0.20897 0.52626 0.0
C314 C 0.79919 0.25667 0.47448 0.0
C315 C 0.75188 0.27951 0.54423 0.0
C316 C 0.86856 0.37913 0.5017 0.0
C317 C 0.84934 0.39761 0.49019 0.0
C318 C 0.84414 0.33793 0.50969 0.0
C319 C 0.7998 0.31475 0.50575 0.0
C320 C 0.77992 0.33477 0.49566 0.0
C321 C 0.80492 0.37606 0.48818 0.0
C322 C 0.86628 0.3183 0.52104 0.0
C323 C 0.73264 0.31143 0.49126 0.0
H324 H 0.73409 0.17765 0.48055 0.0
H325 H 0.69246 0.19713 0.53868 0.0
H326 H 0.79037 0.27705 0.46551 0.0
H327 H 0.83313 0.27641 0.47891 0.0
H328 H 0.79574 0.23039 0.46452 0.0
H329 H 0.73733 0.26049 0.55819 0.0
H330 H 0.78568 0.30323 0.54745 0.0
H331 H 0.73503 0.29711 0.54053 0.0
H332 H 0.9029 0.39574 0.5034 0.0
H333 H 0.78986 0.39073 0.47977 0.0
H334 H 0.87239 0.29819 0.51043 0.0
H335 H 0.8462 0.29772 0.53362 0.0
H336 H 0.89733 0.34299 0.52741 0.0
H337 H 0.72478 0.2852 0.48031 0.0
H338 H 0.72175 0.33258 0.48466 0.0
H339 H 0.71442 0.29705 0.50538 0.0
C340 C 0.62886 0.72446 0.79525 0.0
C341 C 0.62046 0.70758 0.81496 0.0
C342 C 0.63481 0.76512 0.7915 0.0
C343 C 0.63176 0.78894 0.80784 0.0
C344 C 0.62492 0.77259 0.82788 0.0
C345 C 0.61955 0.73212 0.83121 0.0
C346 C 0.64259 0.78182 0.76995 0.0
C347 C 0.62106 0.79685 0.84566 0.0
C348 C 0.66932 0.90619 0.80049 0.0
C349 C 0.63118 0.90463 0.79509 0.0
C350 C 0.67016 0.86871 0.80467 0.0
C351 C 0.63181 0.82912 0.80373 0.0
C352 C 0.59304 0.82768 0.79885 0.0
C353 C 0.59328 0.86548 0.79442 0.0
C354 C 0.71209 0.87132 0.80961 0.0
C355 C 0.55135 0.78615 0.79809 0.0
H356 H 0.62972 0.70549 0.7827 0.0
H357 H 0.61311 0.71908 0.84649 0.0
H358 H 0.61454 0.78349 0.76437 0.0
H359 H 0.67038 0.81452 0.76947 0.0
H360 H 0.64837 0.76138 0.75937 0.0
H361 H 0.61911 0.7812 0.86048 0.0
H362 H 0.64864 0.82966 0.84614 0.0
H363 H 0.59199 0.7994 0.84377 0.0
H364 H 0.69864 0.93657 0.80077 0.0
H365 H 0.56381 0.86451 0.79031 0.0
H366 H 0.71918 0.85358 0.79797 0.0
H367 H 0.71022 0.85617 0.82454 0.0
H368 H 0.73889 0.90463 0.8101 0.0
H369 H 0.55278 0.76514 0.78623 0.0
H370 H 0.5239 0.79076 0.79467 0.0
H371 H 0.54558 0.76939 0.81289 0.0
C372 C 0.88093 0.57225 0.15803 0.0
C373 C 0.89722 0.56003 0.1744 0.0
C374 C 0.83814 0.56168 0.15762 0.0
C375 C 0.81137 0.53892 0.17415 0.0
C376 C 0.82911 0.53135 0.19181 0.0
C377 C 0.87196 0.54173 0.19167 0.0
C378 C 0.82065 0.5707 0.13852 0.0
C379 C 0.80205 0.50873 0.21006 0.0
C380 C 0.69916 0.51885 0.16659 0.0
C381 C 0.68053 0.47992 0.15611 0.0
C382 C 0.7409 0.53716 0.17427 0.0
C383 C 0.76451 0.51629 0.17103 0.0
C384 C 0.74452 0.47538 0.16198 0.0
C385 C 0.70266 0.45757 0.15482 0.0
C386 C 0.76056 0.58008 0.1845 0.0
C387 C 0.76838 0.45179 0.15834 0.0
H388 H 0.90061 0.58688 0.14476 0.0
H389 H 0.88472 0.53275 0.2045 0.0
H390 H 0.8003 0.54045 0.13025 0.0
H391 H 0.80051 0.58469 0.14238 0.0
H392 H 0.84632 0.59273 0.1281 0.0
H393 H 0.8218 0.51487 0.224 0.0
H394 H 0.77813 0.51867 0.21288 0.0
H395 H 0.78462 0.47397 0.20718 0.0
H396 H 0.68219 0.53628 0.16771 0.0
H397 H 0.68793 0.42694 0.14722 0.0
H398 H 0.77994 0.60516 0.17328 0.0
H399 H 0.78193 0.58237 0.1972 0.0
H400 H 0.73583 0.58666 0.19052 0.0
H401 H 0.79403 0.46933 0.14706 0.0
H402 H 0.74732 0.41905 0.15249 0.0
H403 H 0.78367 0.44978 0.17264 0.0
C404 C 0.33206 0.93813 0.49247 0.0
C405 C 0.36305 0.94957 0.47734 0.0
C406 C 0.29055 0.90425 0.48949 0.0
C407 C 0.27993 0.88129 0.47094 0.0
C408 C 0.31081 0.89356 0.45536 0.0
C409 C 0.35211 0.92768 0.45875 0.0
C410 C 0.25844 0.89224 0.50641 0.0
C411 C 0.30058 0.86984 0.43535 0.0
C412 C 0.18985 0.76679 0.47045 0.0
C413 C 0.15694 0.77053 0.46124 0.0
C414 C 0.22987 0.80271 0.47397 0.0
C415 C 0.23707 0.84332 0.46816 0.0
C416 C 0.20363 0.84746 0.4594 0.0
C417 C 0.16393 0.81099 0.45604 0.0
C418 C 0.26479 0.79707 0.4834 0.0
C419 C 0.21005 0.89029 0.45316 0.0
H420 H 0.3405 0.95511 0.50687 0.0
H421 H 0.37611 0.93652 0.44705 0.0
H422 H 0.22913 0.89113 0.5006 0.0
H423 H 0.24917 0.85999 0.51209 0.0
H424 H 0.27106 0.91486 0.51942 0.0
H425 H 0.32752 0.88465 0.42446 0.0
H426 H 0.29266 0.83654 0.43809 0.0
H427 H 0.27225 0.86869 0.4282 0.0
H428 H 0.1848 0.73556 0.47424 0.0
H429 H 0.1384 0.81405 0.44911 0.0
H430 H 0.27759 0.81722 0.49721 0.0
H431 H 0.29149 0.80753 0.47249 0.0
H432 H 0.25359 0.76353 0.48768 0.0
H433 H 0.22163 0.91245 0.46633 0.0
H434 H 0.18034 0.88823 0.44724 0.0
H435 H 0.23476 0.90425 0.44117 0.0
C436 C 0.52656 0.35432 0.85868 0.0
C437 C 0.50847 0.36115 0.8412 0.0
C438 C 0.53669 0.32172 0.85916 0.0
C439 C 0.52913 0.2962 0.84162 0.0
C440 C 0.50666 0.30018 0.82484 0.0
C441 C 0.49629 0.33248 0.82492 0.0
C442 C 0.559 0.31735 0.87767 0.0
C443 C 0.49768 0.27346 0.80585 0.0
C444 C 0.60971 0.26745 0.82309 0.0
C445 C 0.58667 0.22301 0.82434 0.0
C446 C 0.59244 0.29197 0.83009 0.0
C447 C 0.55138 0.27156 0.83894 0.0
C448 C 0.5299 0.22713 0.84222 0.0
C449 C 0.54767 0.20322 0.8347 0.0
C450 C 0.61669 0.33936 0.8264 0.0
C451 C 0.48684 0.20442 0.85228 0.0
H452 H 0.53553 0.37619 0.87143 0.0
H453 H 0.48185 0.33746 0.81148 0.0
H454 H 0.54891 0.28353 0.88061 0.0
H455 H 0.59386 0.3346 0.87503 0.0
H456 H 0.55267 0.33104 0.89146 0.0
H457 H 0.47604 0.27731 0.79514 0.0
H458 H 0.52806 0.2829 0.79787 0.0
H459 H 0.48316 0.23937 0.80983 0.0
H460 H 0.64041 0.28295 0.8156 0.0
H461 H 0.52971 0.16886 0.83581 0.0
H462 H 0.61842 0.35679 0.84057 0.0
H463 H 0.59974 0.34764 0.81477 0.0
H464 H 0.64962 0.35067 0.82097 0.0
H465 H 0.48482 0.22372 0.86487 0.0
H466 H 0.47977 0.17304 0.8584 0.0
H467 H 0.46187 0.19898 0.84092 0.0
C468 C 0.50557 0.90481 0.49572 0.0
C469 C 0.54278 0.9441 0.49909 0.0
C470 C 0.50519 0.86596 0.49803 0.0
C471 C 0.54297 0.86599 0.50374 0.0
C472 C 0.5808 0.90554 0.50679 0.0
C473 C 0.58023 0.9439 0.5045 0.0
C474 C 0.46402 0.82478 0.49474 0.0
C475 C 0.62189 0.90735 0.5128 0.0
C476 C 0.53574 0.76981 0.53135 0.0
C477 C 0.54523 0.74903 0.51589 0.0
C478 C 0.5342 0.80717 0.5275 0.0
C479 C 0.54249 0.82483 0.50765 0.0
C480 C 0.55117 0.80357 0.49183 0.0
C481 C 0.55221 0.7659 0.4961 0.0
C482 C 0.52423 0.8281 0.54483 0.0
C483 C 0.56035 0.82118 0.47047 0.0
H484 H 0.47637 0.90427 0.49153 0.0
H485 H 0.60928 0.97383 0.50707 0.0
H486 H 0.46853 0.80493 0.4833 0.0
H487 H 0.45423 0.80646 0.50917 0.0
H488 H 0.43782 0.83 0.48951 0.0
H489 H 0.64905 0.94045 0.51359 0.0
H490 H 0.61825 0.89227 0.52793 0.0
H491 H 0.62965 0.88919 0.50172 0.0
H492 H 0.52951 0.75677 0.54662 0.0
H493 H 0.55975 0.75035 0.48406 0.0
H494 H 0.49648 0.83172 0.54081 0.0
H495 H 0.55164 0.86042 0.54756 0.0
H496 H 0.51713 0.8097 0.55922 0.0
H497 H 0.53379 0.82533 0.4648 0.0
H498 H 0.56504 0.8003 0.4597 0.0
H499 H 0.58945 0.85302 0.47051 0.0
C500 C 0.68083 0.49885 0.83051 0.0
C501 C 0.68012 0.53637 0.82604 0.0
C502 C 0.71943 0.49884 0.8331 0.0
C503 C 0.75878 0.53724 0.83115 0.0
C504 C 0.75838 0.57502 0.82605 0.0
C505 C 0.71922 0.57416 0.82358 0.0
C506 C 0.71802 0.45775 0.8385 0.0
C507 C 0.7994 0.61669 0.8238 0.0
C508 C 0.85206 0.54271 0.86105 0.0
C509 C 0.8741 0.53357 0.84613 0.0
C510 C 0.8154 0.54504 0.85626 0.0
C511 C 0.79991 0.53817 0.83595 0.0
C512 C 0.8227 0.53028 0.82064 0.0
C513 C 0.85951 0.52821 0.82588 0.0
C514 C 0.7926 0.55382 0.87312 0.0
C515 C 0.80749 0.52283 0.7988 0.0
H516 H 0.65106 0.46933 0.8324 0.0
H517 H 0.71933 0.60339 0.82014 0.0
H518 H 0.73627 0.45066 0.82718 0.0
H519 H 0.73323 0.46084 0.85359 0.0
H520 H 0.68499 0.43047 0.83906 0.0
H521 H 0.79398 0.6425 0.81825 0.0
H522 H 0.81604 0.62636 0.83873 0.0
H523 H 0.82094 0.61312 0.81305 0.0
H524 H 0.86339 0.54782 0.87667 0.0
H525 H 0.87606 0.52101 0.81423 0.0
H526 H 0.76012 0.52612 0.87498 0.0
H527 H 0.78901 0.58155 0.86914 0.0
H528 H 0.80964 0.56026 0.88794 0.0
H529 H 0.7762 0.49317 0.79773 0.0
H530 H 0.83015 0.52004 0.78846 0.0
H531 H 0.80285 0.5492 0.79343 0.0
C532 C 0.13653 0.67215 0.17031 0.0
C533 C 0.13652 0.63451 0.16532 0.0
C534 C 0.17486 0.71123 0.17243 0.0
C535 C 0.21454 0.71307 0.16968 0.0
C536 C 0.21474 0.67533 0.16436 0.0
C537 C 0.17593 0.63673 0.16218 0.0
C538 C 0.17288 0.75052 0.178 0.0
C539 C 0.25608 0.67549 0.16143 0.0
C540 C 0.31464 0.82227 0.16198 0.0
C541 C 0.33126 0.83259 0.18186 0.0
C542 C 0.27703 0.78344 0.1577 0.0
C543 C 0.25565 0.75384 0.1736 0.0
C544 C 0.27311 0.76364 0.19354 0.0
C545 C 0.31037 0.80267 0.1974 0.0
C546 C 0.25959 0.77452 0.13625 0.0
C547 C 0.25205 0.73308 0.21096 0.0
H548 H 0.10648 0.67112 0.1727 0.0
H549 H 0.17659 0.60806 0.15834 0.0
H550 H 0.18774 0.76226 0.19318 0.0
H551 H 0.19122 0.77622 0.16686 0.0
H552 H 0.13969 0.74448 0.17845 0.0
H553 H 0.25097 0.64408 0.15639 0.0
H554 H 0.27605 0.69973 0.14999 0.0
H555 H 0.27429 0.68422 0.17596 0.0
H556 H 0.33032 0.84512 0.14988 0.0
H557 H 0.32325 0.80989 0.21275 0.0
H558 H 0.22768 0.77171 0.13598 0.0
H559 H 0.25552 0.74377 0.13084 0.0
H560 H 0.28059 0.79988 0.12544 0.0
H561 H 0.21964 0.72815 0.21344 0.0
H562 H 0.27038 0.74466 0.22541 0.0
H563 H 0.24846 0.70168 0.20719 0.0
C564 C 0.49499 0.1795 0.49033 0.0
C565 C 0.53326 0.17884 0.49239 0.0
C566 C 0.49369 0.21749 0.49283 0.0
C567 C 0.53157 0.25613 0.4974 0.0
C568 C 0.57046 0.25587 0.49888 0.0
C569 C 0.57082 0.21746 0.49642 0.0
C570 C 0.45145 0.216 0.49119 0.0
C571 C 0.61172 0.29608 0.50358 0.0
C572 C 0.53444 0.36287 0.49112 0.0
C573 C 0.52822 0.37211 0.51121 0.0
C574 C 0.53548 0.3254 0.48635 0.0
C575 C 0.53017 0.29612 0.50198 0.0
C576 C 0.5241 0.30537 0.52226 0.0
C577 C 0.52343 0.34303 0.5266 0.0
C578 C 0.54224 0.31708 0.46454 0.0
C579 C 0.51848 0.27547 0.5395 0.0
H580 H 0.46572 0.15006 0.48727 0.0
H581 H 0.60071 0.21771 0.49798 0.0
H582 H 0.44307 0.22389 0.50618 0.0
H583 H 0.45362 0.2401 0.48014 0.0
H584 H 0.42535 0.18425 0.48634 0.0
H585 H 0.63955 0.29112 0.50321 0.0
H586 H 0.61699 0.32123 0.49246 0.0
H587 H 0.61004 0.30798 0.51892 0.0
H588 H 0.53793 0.38465 0.47901 0.0
H589 H 0.51969 0.34993 0.54227 0.0
H590 H 0.51483 0.28664 0.45924 0.0
H591 H 0.57103 0.31388 0.46347 0.0
H592 H 0.54603 0.34285 0.45413 0.0
H593 H 0.49099 0.24344 0.53628 0.0
H594 H 0.51316 0.28667 0.55436 0.0
H595 H 0.54712 0.27204 0.54084 0.0
C596 C 0.43494 0.56548 0.82933 0.0
C597 C 0.43634 0.52783 0.83218 0.0
C598 C 0.39685 0.56654 0.83184 0.0
C599 C 0.35876 0.52898 0.83719 0.0
C600 C 0.35975 0.49068 0.83966 0.0
C601 C 0.39837 0.4906 0.83723 0.0
C602 C 0.39762 0.60821 0.82923 0.0
C603 C 0.32002 0.44979 0.84518 0.0
C604 C 0.2722 0.54007 0.8649 0.0
C605 C 0.24312 0.53411 0.8492 0.0
C606 C 0.30965 0.53859 0.86117 0.0
C607 C 0.31856 0.53028 0.84124 0.0
C608 C 0.28917 0.52353 0.82533 0.0
C609 C 0.25201 0.52562 0.82946 0.0
C610 C 0.33985 0.54606 0.87864 0.0
C611 C 0.29711 0.5143 0.80388 0.0
H612 H 0.46388 0.59453 0.82546 0.0
H613 H 0.39878 0.46123 0.83939 0.0
H614 H 0.37349 0.60472 0.81778 0.0
H615 H 0.38922 0.61752 0.84383 0.0
H616 H 0.4293 0.63425 0.82433 0.0
H617 H 0.32539 0.42224 0.84547 0.0
H618 H 0.30876 0.45295 0.86042 0.0
H619 H 0.29418 0.44306 0.83411 0.0
H620 H 0.26552 0.54552 0.88033 0.0
H621 H 0.23023 0.5212 0.81712 0.0
H622 H 0.37179 0.57337 0.87516 0.0
H623 H 0.34362 0.51782 0.88076 0.0
H624 H 0.32869 0.55265 0.89321 0.0
H625 H 0.32715 0.54136 0.79808 0.0
H626 H 0.2708 0.50868 0.7933 0.0
H627 H 0.30101 0.48589 0.80376 0.0
C628 C 0.86426 0.3877 0.16349 0.0
C629 C 0.9033 0.38891 0.16066 0.0
C630 C 0.82581 0.34895 0.16587 0.0
C631 C 0.82591 0.30997 0.16548 0.0
C632 C 0.86498 0.31085 0.16213 0.0
C633 C 0.90304 0.35012 0.15974 0.0
C634 C 0.78512 0.34983 0.1693 0.0
C635 C 0.86682 0.27027 0.16167 0.0
C636 C 0.73734 0.21629 0.1945 0.0
C637 C 0.70921 0.19122 0.17889 0.0
C638 C 0.77525 0.25444 0.1903 0.0
C639 C 0.78572 0.26873 0.16993 0.0
C640 C 0.75743 0.24395 0.15406 0.0
C641 C 0.71966 0.20564 0.1587 0.0
C642 C 0.80406 0.27967 0.20779 0.0
C643 C 0.7671 0.25791 0.13214 0.0
H644 H 0.8637 0.41722 0.16417 0.0
H645 H 0.93278 0.35038 0.1576 0.0
H646 H 0.76095 0.32988 0.15772 0.0
H647 H 0.77186 0.33628 0.18447 0.0
H648 H 0.79007 0.38252 0.16855 0.0
H649 H 0.89899 0.27592 0.15768 0.0
H650 H 0.85801 0.25476 0.17683 0.0
H651 H 0.84347 0.24769 0.15047 0.0
H652 H 0.72947 0.20641 0.21022 0.0
H653 H 0.69859 0.1867 0.14644 0.0
H654 H 0.8073 0.31168 0.20836 0.0
H655 H 0.83637 0.28425 0.20546 0.0
H656 H 0.79195 0.2639 0.22273 0.0
H657 H 0.77015 0.28967 0.13028 0.0
H658 H 0.74205 0.23528 0.12153 0.0
H659 H 0.79802 0.26098 0.12772 0.0
C660 C 0.03117 0.48896 0.09629 0.0
C661 C 0.03048 0.52521 0.10305 0.0
C662 C 0.03675 0.48347 0.0755 0.0
C663 C 0.04092 0.51459 0.06121 0.0
C664 C 0.04107 0.55159 0.06811 0.0
C665 C 0.03623 0.55657 0.08893 0.0
C666 C 0.03733 0.44403 0.06879 0.0
C667 C 0.04502 0.58541 0.05342 0.0
C668 C 0.08406 0.52526 0.00752 0.0
C669 C 0.04648 0.50689 -0.00417 0.0
C670 C 0.08274 0.52574 0.02893 0.0
C671 C 0.04295 0.50803 0.03891 0.0
C672 C 1.00492 0.48791 0.02726 0.0
C673 C 0.00715 0.48726 0.00593 0.0
C674 C 0.12401 0.54693 0.04081 0.0
C675 C 0.96181 0.46885 0.03727 0.0
H676 H 0.02685 0.46471 0.10718 0.0
H677 H 0.03588 0.58475 0.09408 0.0
H678 H 0.00855 0.42372 0.05951 0.0
H679 H 0.06543 0.4527 0.05904 0.0
H680 H 0.0381 0.42513 0.08193 0.0
H681 H 0.04547 0.61269 0.06131 0.0
H682 H 0.07462 0.5975 0.0444 0.0
H683 H 0.01789 0.57156 0.04253 0.0
H684 H 0.11466 0.54076 -4e-05 0.0
H685 H 0.9779 0.47198 -0.00288 0.0
H686 H 0.12273 0.52653 0.05369 0.0
H687 H 0.12904 0.57725 0.04738 0.0
H688 H 0.1518 0.55395 0.03111 0.0
H689 H 0.95892 0.4463 0.0494 0.0
H690 H 0.93528 0.45185 0.02621 0.0
H691 H 0.95824 0.4944 0.04462 0.0
C692 C 0.56946 0.04545 0.42189 0.0
C693 C 0.54504 0.05437 0.43536 0.0
C694 C 0.56089 0.04112 0.40091 0.0
C695 C 0.52676 0.04545 0.39318 0.0
C696 C 0.50108 0.05316 0.40679 0.0
C697 C 0.51063 0.05768 0.42777 0.0
C698 C 0.58911 0.03295 0.38697 0.0
C699 C 0.46413 0.05745 0.39913 0.0
C700 C 0.53855 0.07784 0.33751 0.0
C701 C 0.51463 0.03846 0.32769 0.0
C702 C 0.54132 0.08077 0.35886 0.0
C703 C 0.51941 0.04344 0.37074 0.0
C704 C 0.49377 0.00382 0.36098 0.0
C705 C 0.49183 1.00177 0.33959 0.0
C706 C 0.56905 0.12364 0.36867 0.0
C707 C 0.46978 0.96332 0.3731 0.0
H708 H 0.59597 0.04264 0.42769 0.0
H709 H 0.49159 0.0644 0.43818 0.0
H710 H 0.56962 0.00375 0.37785 0.0
H711 H 0.60549 0.05971 0.37611 0.0
H712 H 0.6136 0.02924 0.39548 0.0
H713 H 0.44562 0.06064 0.41177 0.0
H714 H 0.47604 0.08583 0.3892 0.0
H715 H 0.44246 0.0294 0.38975 0.0
H716 H 0.55557 0.10647 0.32849 0.0
H717 H 0.47356 0.97112 0.33219 0.0
H718 H 0.5964 0.12394 0.37647 0.0
H719 H 0.55086 0.1298 0.38041 0.0
H720 H 0.58159 0.14994 0.3574 0.0
H721 H 0.4927 0.95563 0.38046 0.0
H722 H 0.44768 0.93595 0.36342 0.0
H723 H 0.45125 0.9674 0.38542 0.0
C724 C 0.50921 0.50366 0.75521 0.0
C725 C 0.54267 0.52746 0.76886 0.0
C726 C 0.51356 0.51256 0.73429 0.0
C727 C 0.55226 0.54641 0.72679 0.0
C728 C 0.58572 0.57156 0.74059 0.0
C729 C 0.58059 0.56167 0.76151 0.0
C730 C 0.47709 0.48489 0.72014 0.0
C731 C 0.62723 0.60824 0.73321 0.0
C732 C 0.57383 0.53525 0.67119 0.0
C733 C 0.55912 0.55982 0.66135 0.0
C734 C 0.57325 0.53191 0.69252 0.0
C735 C 0.55789 0.55391 0.70439 0.0
C736 C 0.54455 0.58009 0.69464 0.0
C737 C 0.54514 0.58258 0.67326 0.0
C738 C 0.5877 0.50359 0.70231 0.0
C739 C 0.52815 0.60422 0.70676 0.0
H740 H 0.47972 0.47731 0.76083 0.0
H741 H 0.60647 0.58022 0.77204 0.0
H742 H 0.46785 0.50475 0.71103 0.0
H743 H 0.48721 0.46826 0.70929 0.0
H744 H 0.44865 0.4607 0.72849 0.0
H745 H 0.64881 0.62661 0.74599 0.0
H746 H 0.64371 0.59613 0.7234 0.0
H747 H 0.62118 0.63004 0.72377 0.0
H748 H 0.58552 0.51825 0.66218 0.0
H749 H 0.53332 0.60134 0.66586 0.0
H750 H 0.56035 0.47655 0.70997 0.0
H751 H 0.61213 0.52142 0.71416 0.0
H752 H 0.60115 0.49069 0.69105 0.0
H753 H 0.4974 0.58148 0.71394 0.0
H754 H 0.52315 0.6265 0.69711 0.0
H755 H 0.55073 0.6225 0.71921 0.0
C756 C 0.51626 0.08561 0.56428 0.0
C757 C 0.53731 0.07392 0.55009 0.0
C758 C 0.53027 0.09439 0.58457 0.0
C759 C 0.56624 0.09154 0.59068 0.0
C760 C 0.58866 0.0815 0.57617 0.0
C761 C 0.57376 0.0726 0.55602 0.0
C762 C 0.50551 0.10491 0.59964 0.0
C763 C 0.62733 0.07846 0.58208 0.0
C764 C 0.61815 0.13696 0.64197 0.0
C765 C 0.60049 0.10022 0.65401 0.0
C766 C 0.60734 0.13478 0.62125 0.0
C767 C 0.57796 0.095 0.61256 0.0
C768 C 0.55969 0.05796 0.62474 0.0
C769 C 0.57122 0.06103 0.64531 0.0
C770 C 0.62757 0.17483 0.60862 0.0
C771 C 0.52794 0.015 0.61606 0.0
H772 H 0.48819 0.08689 0.55965 0.0
H773 H 0.59015 0.06368 0.54502 0.0
H774 H 0.48999 0.07882 0.61091 0.0
H775 H 0.52724 0.13425 0.60821 0.0
H776 H 0.48054 0.1094 0.59212 0.0
H777 H 0.64353 0.0745 0.56862 0.0
H778 H 0.65047 0.10735 0.59055 0.0
H779 H 0.61768 0.0509 0.59236 0.0
H780 H 0.64093 0.16724 0.64868 0.0
H781 H 0.55695 0.0327 0.65469 0.0
H782 H 0.60258 0.18007 0.60175 0.0
H783 H 0.64575 0.17149 0.5959 0.0
H784 H 0.64944 0.20332 0.61775 0.0
H785 H 0.50016 0.01606 0.60961 0.0
H786 H 0.51634 0.98942 0.62769 0.0
H787 H 0.54269 0.00661 0.60345 0.0
C788 C 0.53505 0.49325 0.88916 0.0
C789 C 0.57308 0.52931 0.88336 0.0
C790 C 0.52965 0.47731 0.90904 0.0
C791 C 0.56292 0.49837 0.92345 0.0
C792 C 0.60195 0.53394 0.91745 0.0
C793 C 0.60662 0.54893 0.8974 0.0
C794 C 0.4877 0.43907 0.91483 0.0
C795 C 0.63806 0.5573 0.93243 0.0
C796 C 0.52932 0.49188 0.97842 0.0
C797 C 0.53855 0.4616 0.9864 0.0
C798 C 0.53754 0.50434 0.95801 0.0
C799 C 0.55525 0.48589 0.94522 0.0
C800 C 0.56498 0.45548 0.95318 0.0
C801 C 0.55672 0.44383 0.97379 0.0
C802 C 0.52713 0.5372 0.95013 0.0
C803 C 0.58358 0.43497 0.93989 0.0
H804 H 0.50909 0.47801 0.87829 0.0
H805 H 0.63615 0.5767 0.89287 0.0
H806 H 0.4931 0.41522 0.92278 0.0
H807 H 0.47058 0.4489 0.92553 0.0
H808 H 0.46693 0.42373 0.90135 0.0
H809 H 0.66755 0.58194 0.92492 0.0
H810 H 0.62859 0.57298 0.94415 0.0
H811 H 0.64521 0.53471 0.94046 0.0
H812 H 0.51596 0.50619 0.98826 0.0
H813 H 0.56372 0.42031 0.97997 0.0
H814 H 0.50333 0.52344 0.93762 0.0
H815 H 0.55611 0.56467 0.94374 0.0
H816 H 0.51422 0.54901 0.9622 0.0
H817 H 0.56138 0.41761 0.92715 0.0
H818 H 0.58992 0.41236 0.9485 0.0
H819 H 0.61381 0.45969 0.93302 0.0
C820 C 0.99125 0.46733 0.23226 0.0
C821 C 1.00394 0.49979 0.21782 0.0
C822 C 0.98162 0.47309 0.25227 0.0
C823 C 0.98455 0.51213 0.25783 0.0
C824 C 0.99556 0.54428 0.24303 0.0
C825 C 1.00539 0.5378 0.2232 0.0
C826 C 0.97011 0.43813 0.26766 0.0
C827 C 0.99865 0.58619 0.24833 0.0
C828 C 0.93672 0.5197 0.30799 0.0
C829 C 0.97293 0.53888 0.32055 0.0
C830 C 0.93989 0.51079 0.28745 0.0
C831 C 0.9801 0.5209 0.27948 0.0
C832 C 0.01661 0.53984 0.29219 0.0
C833 C 0.01257 0.54871 0.31255 0.0
C834 C 0.90041 0.49092 0.27424 0.0
C835 C 0.05998 0.5507 0.28431 0.0
H836 H 0.98991 0.43782 0.22807 0.0
H837 H 0.01514 0.56292 0.21202 0.0
H838 H 0.99566 0.44883 0.27934 0.0
H839 H 0.94035 0.43084 0.27568 0.0
H840 H 0.96579 0.40849 0.26052 0.0
H841 H 1.00334 0.60603 0.23464 0.0
H842 H 0.96941 0.58079 0.25627 0.0
H843 H 0.02583 0.60422 0.2589 0.0
H844 H 0.90609 0.51226 0.31417 0.0
H845 H 0.04047 0.56289 0.32234 0.0
H846 H 0.89517 0.46043 0.26781 0.0
H847 H 0.90461 0.51211 0.2612 0.0
H848 H 0.87152 0.48482 0.2828 0.0
H849 H 0.05903 0.52169 0.27829 0.0
H850 H 0.08503 0.56481 0.29628 0.0
H851 H 0.06914 0.57358 0.27153 0.0
loop_
_geom_bond_atom_site_label_1
_geom_bond_atom_site_label_2
_geom_bond_distance
_geom_bond_site_symmetry_2
_ccdc_geom_bond_type
Dy0 O4 2.398 . S
Dy0 O5 2.491 . S
Dy0 O6 2.403 . S
Dy0 O7 2.664 . S
Dy0 O11 2.326 . S
Dy0 O15 2.310 . S
Dy0 O16 2.351 1_455 S
C1 O12 1.185 . S
C1 O13 1.355 . S
C2 O4 1.185 . S
C2 O5 1.355 . S
Dy3 O7 2.308 1_655 S
Dy3 O10 2.349 1_655 S
Dy3 O12 2.401 . S
Dy3 O13 2.494 . S
Dy3 O14 2.403 1_655 S
Dy3 O15 2.661 1_655 S
Dy3 O17 2.326 . S
O4 Dy0 2.398 . S
O4 C2 1.185 . S
O5 Dy0 2.491 . S
O5 C2 1.355 . S
O6 Dy0 2.403 . S
O6 C8 1.254 . S
O7 Dy0 2.664 . S
O7 Dy3 2.308 1_455 S
O7 C8 1.268 . S
C8 O6 1.254 . S
C8 O7 1.268 . S
C9 O14 1.254 . S
C9 O15 1.268 . S
O10 Dy3 2.349 1_455 S
O10 C18 1.249 . S
O11 Dy0 2.326 . S
O11 C18 1.267 . S
O12 C1 1.185 . S
O12 Dy3 2.401 . S
O13 C1 1.355 . S
O13 Dy3 2.494 . S
O14 Dy3 2.403 1_455 S
O14 C9 1.254 . S
O15 Dy0 2.310 . S
O15 Dy3 2.661 1_455 S
O15 C9 1.268 . S
O16 Dy0 2.351 1_655 S
O16 C19 1.249 . S
O17 Dy3 2.326 . S
O17 C19 1.267 . S
C18 O10 1.249 . S
C18 O11 1.267 . S
C19 O16 1.249 . S
C19 O17 1.267 . S
Dy20 O24 2.398 1_545 S
Dy20 O25 2.491 1_545 S
Dy20 O26 2.403 . S
Dy20 O27 2.664 . S
Dy20 O31 2.326 1_545 S
Dy20 O35 2.310 . S
Dy20 O36 2.351 . S
C21 O32 1.185 . S
C21 O33 1.355 . S
C22 O24 1.185 . S
C22 O25 1.355 . S
Dy23 O27 2.310 . S
Dy23 O30 2.351 1_545 S
Dy23 O32 2.398 . S
Dy23 O33 2.491 . S
Dy23 O34 2.403 . S
Dy23 O35 2.664 . S
Dy23 O37 2.326 . S
O24 Dy20 2.398 1_565 S
O24 C22 1.185 . S
O25 Dy20 2.491 1_565 S
O25 C22 1.355 . S
O26 Dy20 2.403 . S
O26 C28 1.254 . S
O27 Dy20 2.664 . S
O27 Dy23 2.310 . S
O27 C28 1.268 . S
C28 O26 1.254 . S
C28 O27 1.268 . S
C29 O34 1.254 . S
C29 O35 1.268 . S
O30 Dy23 2.351 1_565 S
O30 C38 1.249 . S
O31 Dy20 2.326 1_565 S
O31 C38 1.267 . S
O32 C21 1.185 . S
O32 Dy23 2.398 . S
O33 C21 1.355 . S
O33 Dy23 2.491 . S
O34 Dy23 2.403 . S
O34 C29 1.254 . S
O35 Dy20 2.310 . S
O35 Dy23 2.664 . S
O35 C29 1.268 . S
O36 Dy20 2.351 . S
O36 C39 1.249 . S
O37 Dy23 2.326 . S
O37 C39 1.267 . S
C38 O30 1.249 . S
C38 O31 1.267 . S
C39 O36 1.249 . S
C39 O37 1.267 . S
Dy40 O44 2.398 . S
Dy40 O45 2.491 . S
Dy40 O46 2.403 . S
Dy40 O47 2.664 . S
Dy40 O51 2.326 . S
Dy40 O55 2.310 . S
Dy40 O56 2.351 . S
C41 O52 1.185 . S
C41 O53 1.355 . S
C42 O44 1.185 . S
C42 O45 1.355 . S
Dy43 O47 2.310 . S
Dy43 O50 2.351 . S
Dy43 O52 2.398 . S
Dy43 O53 2.491 . S
Dy43 O54 2.403 . S
Dy43 O55 2.664 . S
Dy43 O57 2.326 . S
O44 Dy40 2.398 . S
O44 C42 1.185 . S
O45 Dy40 2.491 . S
O45 C42 1.355 . S
O46 Dy40 2.403 . S
O46 C48 1.254 . S
O47 Dy40 2.664 . S
O47 Dy43 2.310 . S
O47 C48 1.268 . S
C48 O46 1.254 . S
C48 O47 1.268 . S
C49 O54 1.254 . S
C49 O55 1.268 . S
O50 Dy43 2.351 . S
O50 C58 1.249 . S
O51 Dy40 2.326 . S
O51 C58 1.267 . S
O52 C41 1.185 . S
O52 Dy43 2.398 . S
O53 C41 1.355 . S
O53 Dy43 2.491 . S
O54 Dy43 2.403 . S
O54 C49 1.254 . S
O55 Dy40 2.310 . S
O55 Dy43 2.664 . S
O55 C49 1.268 . S
O56 Dy40 2.351 . S
O56 C59 1.249 . S
O57 Dy43 2.326 . S
O57 C59 1.267 . S
C58 O50 1.249 . S
C58 O51 1.267 . S
C59 O56 1.249 . S
C59 O57 1.267 . S
C60 C61 1.384 . S
C60 H73 0.947 . S
C60 C95 1.382 . S
C61 C60 1.384 . S
C61 C62 1.378 . S
C62 C61 1.378 . S
C62 C63 1.378 . S
C62 H74 0.952 . S
C63 C62 1.378 . S
C63 H75 0.950 . S
C63 C94 1.383 . S
H64 C83 0.947 . S
H65 C84 0.946 . S
H66 C86 0.953 . S
H67 C87 0.945 . S
H68 C89 0.952 . S
H69 C90 0.949 . S
H70 C92 0.950 . S
H71 C93 0.948 . S
H72 C95 0.951 . S
H73 C60 0.947 . S
H74 C62 0.952 . S
H75 C63 0.950 . S
N76 C79 1.382 . S
N76 C81 1.363 1_545 S
N77 C79 1.371 . S
N77 C80 1.372 . S
N78 C80 1.361 1_565 S
N78 C81 1.377 . S
C79 N76 1.382 . S
C79 N77 1.371 . S
C79 C82 1.480 . S
C80 N77 1.372 . S
C80 N78 1.361 1_545 S
C80 C88 1.457 . S
C81 N76 1.363 1_565 S
C81 N78 1.377 . S
C81 C94 1.479 . S
C82 C79 1.480 . S
C82 C83 1.383 . S
C82 C87 1.385 . S
C83 H64 0.947 . S
C83 C82 1.383 . S
C83 C84 1.388 . S
C84 H65 0.946 . S
C84 C83 1.388 . S
C84 C85 1.384 . S
C85 C84 1.384 . S
C85 C86 1.377 . S
C86 H66 0.953 . S
C86 C85 1.377 . S
C86 C87 1.369 . S
C87 H67 0.945 . S
C87 C82 1.385 . S
C87 C86 1.369 . S
C88 C80 1.457 . S
C88 C89 1.372 . S
C88 C93 1.364 1_545 S
C89 H68 0.952 . S
C89 C88 1.372 . S
C89 C90 1.389 . S
C90 H69 0.949 . S
C90 C89 1.389 . S
C90 C91 1.387 . S
C91 C90 1.387 . S
C91 C92 1.372 1_545 S
C92 H70 0.950 . S
C92 C91 1.372 1_565 S
C92 C93 1.379 . S
C93 H71 0.948 . S
C93 C88 1.364 1_565 S
C93 C92 1.379 . S
C94 C63 1.383 . S
C94 C81 1.479 . S
C94 C95 1.398 . S
C95 C60 1.382 . S
C95 H72 0.951 . S
C95 C94 1.398 . S
C96 C97 1.384 . S
C96 H109 0.947 . S
C96 C131 1.382 . S
C97 C96 1.384 . S
C97 C98 1.378 . S
C98 C97 1.378 . S
C98 C99 1.378 . S
C98 H110 0.952 . S
C99 C98 1.378 . S
C99 H111 0.950 . S
C99 C130 1.383 . S
H100 C119 0.947 . S
H101 C120 0.946 . S
H102 C122 0.953 . S
H103 C123 0.945 . S
H104 C125 0.952 . S
H105 C126 0.949 . S
H106 C128 0.950 . S
H107 C129 0.948 . S
H108 C131 0.951 . S
H109 C96 0.947 . S
H110 C98 0.952 . S
H111 C99 0.950 . S
N112 C115 1.382 . S
N112 C117 1.363 . S
N113 C115 1.371 . S
N113 C116 1.372 . S
N114 C116 1.361 . S
N114 C117 1.377 . S
C115 N112 1.382 . S
C115 N113 1.371 . S
C115 C118 1.480 . S
C116 N113 1.372 . S
C116 N114 1.361 . S
C116 C124 1.457 . S
C117 N112 1.363 . S
C117 N114 1.377 . S
C117 C130 1.479 . S
C118 C115 1.480 . S
C118 C119 1.383 . S
C118 C123 1.385 . S
C119 H100 0.947 . S
C119 C118 1.383 . S
C119 C120 1.388 . S
C120 H101 0.946 . S
C120 C119 1.388 . S
C120 C121 1.384 . S
C121 C120 1.384 . S
C121 C122 1.377 . S
C122 H102 0.953 . S
C122 C121 1.377 . S
C122 C123 1.369 . S
C123 H103 0.945 . S
C123 C118 1.385 . S
C123 C122 1.369 . S
C124 C116 1.457 . S
C124 C125 1.372 . S
C124 C129 1.364 . S
C125 H104 0.952 . S
C125 C124 1.372 . S
C125 C126 1.389 . S
C126 H105 0.949 . S
C126 C125 1.389 . S
C126 C127 1.387 . S
C127 C126 1.387 . S
C127 C128 1.372 . S
C128 H106 0.950 . S
C128 C127 1.372 . S
C128 C129 1.379 . S
C129 H107 0.948 . S
C129 C124 1.364 . S
C129 C128 1.379 . S
C130 C99 1.383 . S
C130 C117 1.479 . S
C130 C131 1.398 . S
C131 C96 1.382 . S
C131 H108 0.951 . S
C131 C130 1.398 . S
C132 C133 1.384 . S
C132 H145 0.947 . S
C132 C167 1.382 . S
C133 C132 1.384 . S
C133 C134 1.378 . S
C134 C133 1.378 . S
C134 C135 1.378 . S
C134 H146 0.952 . S
C135 C134 1.378 . S
C135 H147 0.950 1_655 S
C135 C166 1.383 . S
H136 C155 0.947 . S
H137 C156 0.946 . S
H138 C158 0.953 . S
H139 C159 0.945 . S
H140 C161 0.952 . S
H141 C162 0.949 . S
H142 C164 0.950 1_655 S
H143 C165 0.948 1_655 S
H144 C167 0.951 . S
H145 C132 0.947 . S
H146 C134 0.952 . S
H147 C135 0.950 1_455 S
N148 C151 1.382 . S
N148 C153 1.363 . S
N149 C151 1.371 . S
N149 C152 1.372 . S
N150 C152 1.361 . S
N150 C153 1.377 . S
C151 N148 1.382 . S
C151 N149 1.371 . S
C151 C154 1.480 . S
C152 N149 1.372 . S
C152 N150 1.361 . S
C152 C160 1.457 . S
C153 N148 1.363 . S
C153 N150 1.377 . S
C153 C166 1.479 1_455 S
C154 C151 1.480 . S
C154 C155 1.383 . S
C154 C159 1.385 . S
C155 H136 0.947 . S
C155 C154 1.383 . S
C155 C156 1.388 . S
C156 H137 0.946 . S
C156 C155 1.388 . S
C156 C157 1.384 . S
C157 C156 1.384 . S
C157 C158 1.377 . S
C158 H138 0.953 . S
C158 C157 1.377 . S
C158 C159 1.369 . S
C159 H139 0.945 . S
C159 C154 1.385 . S
C159 C158 1.369 . S
C160 C152 1.457 . S
C160 C161 1.372 . S
C160 C165 1.364 . S
C161 H140 0.952 . S
C161 C160 1.372 . S
C161 C162 1.389 . S
C162 H141 0.949 . S
C162 C161 1.389 . S
C162 C163 1.387 . S
C163 C162 1.387 . S
C163 C164 1.372 . S
C164 H142 0.950 1_455 S
C164 C163 1.372 . S
C164 C165 1.379 . S
C165 H143 0.948 1_455 S
C165 C160 1.364 . S
C165 C164 1.379 . S
C166 C135 1.383 . S
C166 C153 1.479 1_655 S
C166 C167 1.398 . S
C167 C132 1.382 . S
C167 H144 0.951 . S
C167 C166 1.398 . S
C168 C169 1.384 . S
C168 H181 0.947 . S
C168 C203 1.382 . S
C169 C168 1.384 . S
C169 C170 1.378 . S
C170 C169 1.378 . S
C170 C171 1.378 . S
C170 H182 0.952 . S
C171 C170 1.378 . S
C171 H183 0.950 . S
C171 C202 1.383 . S
H172 C191 0.947 . S
H173 C192 0.946 . S
H174 C194 0.953 . S
H175 C195 0.945 . S
H176 C197 0.952 . S
H177 C198 0.949 . S
H178 C200 0.950 . S
H179 C201 0.948 . S
H180 C203 0.951 . S
H181 C168 0.947 . S
H182 C170 0.952 . S
H183 C171 0.950 . S
N184 C187 1.382 1_455 S
N184 C189 1.363 . S
N185 C187 1.371 . S
N185 C188 1.372 1_655 S
N186 C188 1.361 . S
N186 C189 1.377 . S
C187 N184 1.382 1_655 S
C187 N185 1.371 . S
C187 C190 1.480 . S
C188 N185 1.372 1_455 S
C188 N186 1.361 . S
C188 C196 1.457 . S
C189 N184 1.363 . S
C189 N186 1.377 . S
C189 C202 1.479 . S
C190 C187 1.480 . S
C190 C191 1.383 . S
C190 C195 1.385 . S
C191 H172 0.947 . S
C191 C190 1.383 . S
C191 C192 1.388 . S
C192 H173 0.946 . S
C192 C191 1.388 . S
C192 C193 1.384 . S
C193 C192 1.384 . S
C193 C194 1.377 . S
C194 H174 0.953 . S
C194 C193 1.377 . S
C194 C195 1.369 . S
C195 H175 0.945 . S
C195 C190 1.385 . S
C195 C194 1.369 . S
C196 C188 1.457 . S
C196 C197 1.372 1_455 S
C196 C201 1.364 . S
C197 H176 0.952 . S
C197 C196 1.372 1_655 S
C197 C198 1.389 . S
C198 H177 0.949 . S
C198 C197 1.389 . S
C198 C199 1.387 1_655 S
C199 C198 1.387 1_455 S
C199 C200 1.372 . S
C200 H178 0.950 . S
C200 C199 1.372 . S
C200 C201 1.379 . S
C201 H179 0.948 . S
C201 C196 1.364 . S
C201 C200 1.379 . S
C202 C171 1.383 . S
C202 C189 1.479 . S
C202 C203 1.398 . S
C203 C168 1.382 . S
C203 H180 0.951 . S
C203 C202 1.398 . S
C204 C205 1.384 . S
C204 H217 0.947 . S
C204 C239 1.382 . S
C205 C204 1.384 . S
C205 C206 1.378 . S
C206 C205 1.378 . S
C206 C207 1.378 . S
C206 H218 0.952 . S
C207 C206 1.378 . S
C207 H219 0.950 . S
C207 C238 1.383 . S
H208 C227 0.947 1_545 S
H209 C228 0.946 . S
H210 C230 0.953 . S
H211 C231 0.945 . S
H212 C233 0.950 . S
H213 C234 0.949 1_565 S
H214 C236 0.950 . S
H215 C237 0.948 . S
H216 C239 0.951 . S
H217 C204 0.947 . S
H218 C206 0.952 . S
H219 C207 0.950 . S
N220 C223 1.382 . S
N220 C225 1.363 . S
N221 C223 1.371 . S
N221 C224 1.372 . S
N222 C224 1.361 . S
N222 C225 1.377 . S
C223 N220 1.382 . S
C223 N221 1.371 . S
C223 C226 1.480 1_545 S
C224 N221 1.372 . S
C224 N222 1.361 . S
C224 C232 1.457 . S
C225 N220 1.363 . S
C225 N222 1.377 . S
C225 C238 1.479 . S
C226 C223 1.480 1_565 S
C226 C227 1.383 . S
C226 C231 1.385 . S
C227 H208 0.947 1_565 S
C227 C226 1.383 . S
C227 C228 1.388 . S
C228 H209 0.946 . S
C228 C227 1.388 . S
C228 C229 1.384 . S
C229 C228 1.384 . S
C229 C230 1.377 . S
C230 H210 0.953 . S
C230 C229 1.377 . S
C230 C231 1.369 . S
C231 H211 0.945 . S
C231 C226 1.385 . S
C231 C230 1.369 . S
C232 C224 1.457 . S
C232 C233 1.372 . S
C232 C237 1.364 . S
C233 H212 0.950 . S
C233 C232 1.372 . S
C233 C234 1.389 . S
C234 H213 0.949 1_545 S
C234 C233 1.389 . S
C234 C235 1.387 . S
C235 C234 1.387 . S
C235 C236 1.372 . S
C236 H214 0.950 . S
C236 C235 1.372 . S
C236 C237 1.379 . S
C237 H215 0.948 . S
C237 C232 1.364 . S
C237 C236 1.379 . S
C238 C207 1.383 . S
C238 C225 1.479 . S
C238 C239 1.398 . S
C239 C204 1.382 . S
C239 H216 0.951 . S
C239 C238 1.398 . S
C240 C241 1.384 . S
C240 H253 0.947 . S
C240 C275 1.382 . S
C241 C240 1.384 . S
C241 C242 1.378 . S
C242 C241 1.378 . S
C242 C243 1.378 . S
C242 H254 0.952 . S
C243 C242 1.378 . S
C243 H255 0.950 . S
C243 C274 1.383 . S
H244 C263 0.947 . S
H245 C264 0.946 . S
H246 C266 0.953 . S
H247 C267 0.945 . S
H248 C269 0.952 . S
H249 C270 0.949 . S
H250 C272 0.950 . S
H251 C273 0.948 . S
H252 C275 0.951 . S
H253 C240 0.947 . S
H254 C242 0.952 . S
H255 C243 0.950 . S
N256 C259 1.382 . S
N256 C261 1.363 . S
N257 C259 1.371 . S
N257 C260 1.372 . S
N258 C260 1.361 . S
N258 C261 1.377 . S
C259 N256 1.382 . S
C259 N257 1.371 . S
C259 C262 1.480 . S
C260 N257 1.372 . S
C260 N258 1.361 . S
C260 C268 1.457 . S
C261 N256 1.363 . S
C261 N258 1.377 . S
C261 C274 1.479 . S
C262 C259 1.480 . S
C262 C263 1.383 . S
C262 C267 1.385 . S
C263 H244 0.947 . S
C263 C262 1.383 . S
C263 C264 1.388 . S
C264 H245 0.946 . S
C264 C263 1.388 . S
C264 C265 1.384 . S
C265 C264 1.384 . S
C265 C266 1.377 . S
C266 H246 0.953 . S
C266 C265 1.377 . S
C266 C267 1.369 . S
C267 H247 0.945 . S
C267 C262 1.385 . S
C267 C266 1.369 . S
C268 C260 1.457 . S
C268 C269 1.372 . S
C268 C273 1.364 . S
C269 H248 0.952 . S
C269 C268 1.372 . S
C269 C270 1.389 . S
C270 H249 0.949 . S
C270 C269 1.389 . S
C270 C271 1.387 . S
C271 C270 1.387 . S
C271 C272 1.372 . S
C272 H250 0.950 . S
C272 C271 1.372 . S
C272 C273 1.379 . S
C273 H251 0.948 . S
C273 C268 1.364 . S
C273 C272 1.379 . S
C274 C243 1.383 . S
C274 C261 1.479 . S
C274 C275 1.398 . S
C275 C240 1.382 . S
C275 H252 0.951 . S
C275 C274 1.398 . S
C276 C277 1.391 . S
C276 C278 1.394 . S
C276 H292 0.931 . S
C277 C276 1.391 . S
C277 C281 1.376 . S
C278 C276 1.394 . S
C278 C279 1.369 . S
C278 C282 1.531 . S
C279 C278 1.369 . S
C279 C280 1.410 . S
C279 C287 1.503 . S
C280 C279 1.410 . S
C280 C281 1.392 . S
C280 C283 1.511 . S
C281 C277 1.376 . S
C281 C280 1.392 . S
C281 H293 0.929 . S
C282 C278 1.531 . S
C282 H294 0.960 . S
C282 H295 0.962 . S
C282 H296 0.960 . S
C283 C280 1.511 . S
C283 H297 0.961 . S
C283 H298 0.961 . S
C283 H299 0.961 . S
C284 C285 1.370 . S
C284 C286 1.363 . S
C284 H300 0.931 . S
C285 C284 1.370 . S
C285 C289 1.408 . S
C286 C284 1.363 . S
C286 C287 1.370 . S
C286 C290 1.524 . S
C287 C279 1.503 . S
C287 C286 1.370 . S
C287 C288 1.403 . S
C288 C287 1.403 . S
C288 C289 1.404 . S
C288 C291 1.539 . S
C289 C285 1.408 . S
C289 C288 1.404 . S
C289 H301 0.930 . S
C290 C286 1.524 . S
C290 H302 0.956 . S
C290 H303 0.961 . S
C290 H304 0.961 . S
C291 C288 1.539 . S
C291 H305 0.958 . S
C291 H306 0.961 . S
C291 H307 0.960 . S
H292 C276 0.931 . S
H293 C281 0.929 . S
H294 C282 0.960 . S
H295 C282 0.962 . S
H296 C282 0.960 . S
H297 C283 0.961 . S
H298 C283 0.961 . S
H299 C283 0.961 . S
H300 C284 0.931 . S
H301 C289 0.930 . S
H302 C290 0.956 . S
H303 C290 0.961 . S
H304 C290 0.961 . S
H305 C291 0.958 . S
H306 C291 0.961 . S
H307 C291 0.960 . S
C308 C309 1.391 . S
C308 C310 1.394 . S
C308 H324 0.931 . S
C309 C308 1.391 . S
C309 C313 1.376 . S
C310 C308 1.394 . S
C310 C311 1.369 . S
C310 C314 1.531 . S
C311 C310 1.369 . S
C311 C312 1.410 . S
C311 C319 1.503 . S
C312 C311 1.410 . S
C312 C313 1.392 . S
C312 C315 1.511 . S
C313 C309 1.376 . S
C313 C312 1.392 . S
C313 H325 0.929 . S
C314 C310 1.531 . S
C314 H326 0.960 . S
C314 H327 0.962 . S
C314 H328 0.960 . S
C315 C312 1.511 . S
C315 H329 0.961 . S
C315 H330 0.961 . S
C315 H331 0.961 . S
C316 C317 1.370 . S
C316 C318 1.363 . S
C316 H332 0.931 . S
C317 C316 1.370 . S
C317 C321 1.408 . S
C318 C316 1.363 . S
C318 C319 1.370 . S
C318 C322 1.524 . S
C319 C311 1.503 . S
C319 C318 1.370 . S
C319 C320 1.403 . S
C320 C319 1.403 . S
C320 C321 1.404 . S
C320 C323 1.539 . S
C321 C317 1.408 . S
C321 C320 1.404 . S
C321 H333 0.930 . S
C322 C318 1.524 . S
C322 H334 0.956 . S
C322 H335 0.961 . S
C322 H336 0.961 . S
C323 C320 1.539 . S
C323 H337 0.958 . S
C323 H338 0.961 . S
C323 H339 0.960 . S
H324 C308 0.931 . S
H325 C313 0.929 . S
H326 C314 0.960 . S
H327 C314 0.962 . S
H328 C314 0.960 . S
H329 C315 0.961 . S
H330 C315 0.961 . S
H331 C315 0.961 . S
H332 C316 0.931 . S
H333 C321 0.930 . S
H334 C322 0.956 . S
H335 C322 0.961 . S
H336 C322 0.961 . S
H337 C323 0.958 . S
H338 C323 0.961 . S
H339 C323 0.960 . S
C340 C341 1.391 . S
C340 C342 1.394 . S
C340 H356 0.931 . S
C341 C340 1.391 . S
C341 C345 1.376 . S
C342 C340 1.394 . S
C342 C343 1.369 . S
C342 C346 1.531 . S
C343 C342 1.369 . S
C343 C344 1.410 . S
C343 C351 1.503 . S
C344 C343 1.410 . S
C344 C345 1.392 . S
C344 C347 1.511 . S
C345 C341 1.376 . S
C345 C344 1.392 . S
C345 H357 0.929 . S
C346 C342 1.531 . S
C346 H358 0.960 . S
C346 H359 0.962 . S
C346 H360 0.960 . S
C347 C344 1.511 . S
C347 H361 0.961 . S
C347 H362 0.961 . S
C347 H363 0.961 . S
C348 C349 1.370 . S
C348 C350 1.363 . S
C348 H364 0.931 . S
C349 C348 1.370 . S
C349 C353 1.408 . S
C350 C348 1.363 . S
C350 C351 1.370 . S
C350 C354 1.524 . S
C351 C343 1.503 . S
C351 C350 1.370 . S
C351 C352 1.403 . S
C352 C351 1.403 . S
C352 C353 1.404 . S
C352 C355 1.539 . S
C353 C349 1.408 . S
C353 C352 1.404 . S
C353 H365 0.930 . S
C354 C350 1.524 . S
C354 H366 0.956 . S
C354 H367 0.961 . S
C354 H368 0.961 . S
C355 C352 1.539 . S
C355 H369 0.958 . S
C355 H370 0.961 . S
C355 H371 0.960 . S
H356 C340 0.931 . S
H357 C345 0.929 . S
H358 C346 0.960 . S
H359 C346 0.962 . S
H360 C346 0.960 . S
H361 C347 0.961 . S
H362 C347 0.961 . S
H363 C347 0.961 . S
H364 C348 0.931 . S
H365 C353 0.930 . S
H366 C354 0.956 . S
H367 C354 0.961 . S
H368 C354 0.961 . S
H369 C355 0.958 . S
H370 C355 0.961 . S
H371 C355 0.960 . S
C372 C373 1.391 . S
C372 C374 1.394 . S
C372 H388 0.931 . S
C373 C372 1.391 . S
C373 C377 1.376 . S
C374 C372 1.394 . S
C374 C375 1.369 . S
C374 C378 1.531 . S
C375 C374 1.369 . S
C375 C376 1.410 . S
C375 C383 1.503 . S
C376 C375 1.410 . S
C376 C377 1.392 . S
C376 C379 1.511 . S
C377 C373 1.376 . S
C377 C376 1.392 . S
C377 H389 0.929 . S
C378 C374 1.531 . S
C378 H390 0.960 . S
C378 H391 0.962 . S
C378 H392 0.960 . S
C379 C376 1.511 . S
C379 H393 0.961 . S
C379 H394 0.961 . S
C379 H395 0.961 . S
C380 C381 1.370 . S
C380 C382 1.363 . S
C380 H396 0.931 . S
C381 C380 1.370 . S
C381 C385 1.408 . S
C382 C380 1.363 . S
C382 C383 1.370 . S
C382 C386 1.524 . S
C383 C375 1.503 . S
C383 C382 1.370 . S
C383 C384 1.403 . S
C384 C383 1.403 . S
C384 C385 1.404 . S
C384 C387 1.539 . S
C385 C381 1.408 . S
C385 C384 1.404 . S
C385 H397 0.930 . S
C386 C382 1.524 . S
C386 H398 0.956 . S
C386 H399 0.961 . S
C386 H400 0.961 . S
C387 C384 1.539 . S
C387 H401 0.958 . S
C387 H402 0.961 . S
C387 H403 0.960 . S
H388 C372 0.931 . S
H389 C377 0.929 . S
H390 C378 0.960 . S
H391 C378 0.962 . S
H392 C378 0.960 . S
H393 C379 0.961 . S
H394 C379 0.961 . S
H395 C379 0.961 . S
H396 C380 0.931 . S
H397 C385 0.930 . S
H398 C386 0.956 . S
H399 C386 0.961 . S
H400 C386 0.961 . S
H401 C387 0.958 . S
H402 C387 0.961 . S
H403 C387 0.960 . S
C404 C405 1.391 . S
C404 C406 1.394 . S
C404 H420 0.931 . S
C405 C404 1.391 . S
C405 C409 1.376 . S
C406 C404 1.394 . S
C406 C407 1.369 . S
C406 C410 1.531 . S
C407 C406 1.369 . S
C407 C408 1.410 . S
C407 C415 1.503 . S
C408 C407 1.410 . S
C408 C409 1.392 . S
C408 C411 1.511 . S
C409 C405 1.376 . S
C409 C408 1.392 . S
C409 H421 0.929 . S
C410 C406 1.531 . S
C410 H422 0.960 . S
C410 H423 0.962 . S
C410 H424 0.960 . S
C411 C408 1.511 . S
C411 H425 0.961 . S
C411 H426 0.961 . S
C411 H427 0.961 . S
C412 C413 1.370 . S
C412 C414 1.363 . S
C412 H428 0.931 . S
C413 C412 1.370 . S
C413 C417 1.408 . S
C414 C412 1.363 . S
C414 C415 1.370 . S
C414 C418 1.524 . S
C415 C407 1.503 . S
C415 C414 1.370 . S
C415 C416 1.403 . S
C416 C415 1.403 . S
C416 C417 1.404 . S
C416 C419 1.539 . S
C417 C413 1.408 . S
C417 C416 1.404 . S
C417 H429 0.930 . S
C418 C414 1.524 . S
C418 H430 0.956 . S
C418 H431 0.961 . S
C418 H432 0.961 . S
C419 C416 1.539 . S
C419 H433 0.958 . S
C419 H434 0.961 . S
C419 H435 0.960 . S
H420 C404 0.931 . S
H421 C409 0.929 . S
H422 C410 0.960 . S
H423 C410 0.962 . S
H424 C410 0.960 . S
H425 C411 0.961 . S
H426 C411 0.961 . S
H427 C411 0.961 . S
H428 C412 0.931 . S
H429 C417 0.930 . S
H430 C418 0.956 . S
H431 C418 0.961 . S
H432 C418 0.961 . S
H433 C419 0.958 . S
H434 C419 0.961 . S
H435 C419 0.960 . S
C436 C437 1.391 . S
C436 C438 1.394 . S
C436 H452 0.931 . S
C437 C436 1.391 . S
C437 C441 1.376 . S
C438 C436 1.394 . S
C438 C439 1.369 . S
C438 C442 1.531 . S
C439 C438 1.369 . S
C439 C440 1.410 . S
C439 C447 1.503 . S
C440 C439 1.410 . S
C440 C441 1.392 . S
C440 C443 1.511 . S
C441 C437 1.376 . S
C441 C440 1.392 . S
C441 H453 0.929 . S
C442 C438 1.531 . S
C442 H454 0.960 . S
C442 H455 0.962 . S
C442 H456 0.960 . S
C443 C440 1.511 . S
C443 H457 0.961 . S
C443 H458 0.961 . S
C443 H459 0.961 . S
C444 C445 1.370 . S
C444 C446 1.363 . S
C444 H460 0.931 . S
C445 C444 1.370 . S
C445 C449 1.408 . S
C446 C444 1.363 . S
C446 C447 1.370 . S
C446 C450 1.524 . S
C447 C439 1.503 . S
C447 C446 1.370 . S
C447 C448 1.403 . S
C448 C447 1.403 . S
C448 C449 1.404 . S
C448 C451 1.539 . S
C449 C445 1.408 . S
C449 C448 1.404 . S
C449 H461 0.930 . S
C450 C446 1.524 . S
C450 H462 0.956 . S
C450 H463 0.961 . S
C450 H464 0.961 . S
C451 C448 1.539 . S
C451 H465 0.958 . S
C451 H466 0.961 . S
C451 H467 0.960 . S
H452 C436 0.931 . S
H453 C441 0.929 . S
H454 C442 0.960 . S
H455 C442 0.962 . S
H456 C442 0.960 . S
H457 C443 0.961 . S
H458 C443 0.961 . S
H459 C443 0.961 . S
H460 C444 0.931 . S
H461 C449 0.930 . S
H462 C450 0.956 . S
H463 C450 0.961 . S
H464 C450 0.961 . S
H465 C451 0.958 . S
H466 C451 0.961 . S
H467 C451 0.960 . S
C468 C469 1.391 . S
C468 C470 1.394 . S
C468 H484 0.931 . S
C469 C468 1.391 . S
C469 C473 1.376 . S
C470 C468 1.394 . S
C470 C471 1.369 . S
C470 C474 1.531 . S
C471 C470 1.369 . S
C471 C472 1.410 . S
C471 C479 1.503 . S
C472 C471 1.410 . S
C472 C473 1.392 . S
C472 C475 1.511 . S
C473 C469 1.376 . S
C473 C472 1.392 . S
C473 H485 0.929 . S
C474 C470 1.531 . S
C474 H486 0.960 . S
C474 H487 0.962 . S
C474 H488 0.960 . S
C475 C472 1.511 . S
C475 H489 0.961 . S
C475 H490 0.961 . S
C475 H491 0.961 . S
C476 C477 1.370 . S
C476 C478 1.363 . S
C476 H492 0.931 . S
C477 C476 1.370 . S
C477 C481 1.408 . S
C478 C476 1.363 . S
C478 C479 1.370 . S
C478 C482 1.524 . S
C479 C471 1.503 . S
C479 C478 1.370 . S
C479 C480 1.403 . S
C480 C479 1.403 . S
C480 C481 1.404 . S
C480 C483 1.539 . S
C481 C477 1.408 . S
C481 C480 1.404 . S
C481 H493 0.930 . S
C482 C478 1.524 . S
C482 H494 0.956 . S
C482 H495 0.961 . S
C482 H496 0.961 . S
C483 C480 1.539 . S
C483 H497 0.958 . S
C483 H498 0.961 . S
C483 H499 0.960 . S
H484 C468 0.931 . S
H485 C473 0.929 . S
H486 C474 0.960 . S
H487 C474 0.962 . S
H488 C474 0.960 . S
H489 C475 0.961 . S
H490 C475 0.961 . S
H491 C475 0.961 . S
H492 C476 0.931 . S
H493 C481 0.930 . S
H494 C482 0.956 . S
H495 C482 0.961 . S
H496 C482 0.961 . S
H497 C483 0.958 . S
H498 C483 0.961 . S
H499 C483 0.960 . S
C500 C501 1.391 . S
C500 C502 1.394 . S
C500 H516 0.931 . S
C501 C500 1.391 . S
C501 C505 1.376 . S
C502 C500 1.394 . S
C502 C503 1.369 . S
C502 C506 1.531 . S
C503 C502 1.369 . S
C503 C504 1.410 . S
C503 C511 1.503 . S
C504 C503 1.410 . S
C504 C505 1.392 . S
C504 C507 1.511 . S
C505 C501 1.376 . S
C505 C504 1.392 . S
C505 H517 0.929 . S
C506 C502 1.531 . S
C506 H518 0.960 . S
C506 H519 0.962 . S
C506 H520 0.960 . S
C507 C504 1.511 . S
C507 H521 0.961 . S
C507 H522 0.961 . S
C507 H523 0.961 . S
C508 C509 1.370 . S
C508 C510 1.363 . S
C508 H524 0.931 . S
C509 C508 1.370 . S
C509 C513 1.408 . S
C510 C508 1.363 . S
C510 C511 1.370 . S
C510 C514 1.524 . S
C511 C503 1.503 . S
C511 C510 1.370 . S
C511 C512 1.403 . S
C512 C511 1.403 . S
C512 C513 1.404 . S
C512 C515 1.539 . S
C513 C509 1.408 . S
C513 C512 1.404 . S
C513 H525 0.930 . S
C514 C510 1.524 . S
C514 H526 0.956 . S
C514 H527 0.961 . S
C514 H528 0.961 . S
C515 C512 1.539 . S
C515 H529 0.958 . S
C515 H530 0.961 . S
C515 H531 0.960 . S
H516 C500 0.931 . S
H517 C505 0.929 . S
H518 C506 0.960 . S
H519 C506 0.962 . S
H520 C506 0.960 . S
H521 C507 0.961 . S
H522 C507 0.961 . S
H523 C507 0.961 . S
H524 C508 0.931 . S
H525 C513 0.930 . S
H526 C514 0.956 . S
H527 C514 0.961 . S
H528 C514 0.961 . S
H529 C515 0.958 . S
H530 C515 0.961 . S
H531 C515 0.960 . S
C532 C533 1.391 . S
C532 C534 1.394 . S
C532 H548 0.931 . S
C533 C532 1.391 . S
C533 C537 1.376 . S
C534 C532 1.394 . S
C534 C535 1.369 . S
C534 C538 1.531 . S
C535 C534 1.369 . S
C535 C536 1.410 . S
C535 C543 1.503 . S
C536 C535 1.410 . S
C536 C537 1.392 . S
C536 C539 1.511 . S
C537 C533 1.376 . S
C537 C536 1.392 . S
C537 H549 0.929 . S
C538 C534 1.531 . S
C538 H550 0.960 . S
C538 H551 0.962 . S
C538 H552 0.960 . S
C539 C536 1.511 . S
C539 H553 0.961 . S
C539 H554 0.961 . S
C539 H555 0.961 . S
C540 C541 1.370 . S
C540 C542 1.363 . S
C540 H556 0.931 . S
C541 C540 1.370 . S
C541 C545 1.408 . S
C542 C540 1.363 . S
C542 C543 1.370 . S
C542 C546 1.524 . S
C543 C535 1.503 . S
C543 C542 1.370 . S
C543 C544 1.403 . S
C544 C543 1.403 . S
C544 C545 1.404 . S
C544 C547 1.539 . S
C545 C541 1.408 . S
C545 C544 1.404 . S
C545 H557 0.930 . S
C546 C542 1.524 . S
C546 H558 0.956 . S
C546 H559 0.961 . S
C546 H560 0.961 . S
C547 C544 1.539 . S
C547 H561 0.958 . S
C547 H562 0.961 . S
C547 H563 0.960 . S
H548 C532 0.931 . S
H549 C537 0.929 . S
H550 C538 0.960 . S
H551 C538 0.962 . S
H552 C538 0.960 . S
H553 C539 0.961 . S
H554 C539 0.961 . S
H555 C539 0.961 . S
H556 C540 0.931 . S
H557 C545 0.930 . S
H558 C546 0.956 . S
H559 C546 0.961 . S
H560 C546 0.961 . S
H561 C547 0.958 . S
H562 C547 0.961 . S
H563 C547 0.960 . S
C564 C565 1.391 . S
C564 C566 1.394 . S
C564 H580 0.931 . S
C565 C564 1.391 . S
C565 C569 1.376 . S
C566 C564 1.394 . S
C566 C567 1.369 . S
C566 C570 1.531 . S
C567 C566 1.369 . S
C567 C568 1.410 . S
C567 C575 1.503 . S
C568 C567 1.410 . S
C568 C569 1.392 . S
C568 C571 1.511 . S
C569 C565 1.376 . S
C569 C568 1.392 . S
C569 H581 0.929 . S
C570 C566 1.531 . S
C570 H582 0.960 . S
C570 H583 0.962 . S
C570 H584 0.960 . S
C571 C568 1.511 . S
C571 H585 0.961 . S
C571 H586 0.961 . S
C571 H587 0.961 . S
C572 C573 1.370 . S
C572 C574 1.363 . S
C572 H588 0.931 . S
C573 C572 1.370 . S
C573 C577 1.408 . S
C574 C572 1.363 . S
C574 C575 1.370 . S
C574 C578 1.524 . S
C575 C567 1.503 . S
C575 C574 1.370 . S
C575 C576 1.403 . S
C576 C575 1.403 . S
C576 C577 1.404 . S
C576 C579 1.539 . S
C577 C573 1.408 . S
C577 C576 1.404 . S
C577 H589 0.930 . S
C578 C574 1.524 . S
C578 H590 0.956 . S
C578 H591 0.961 . S
C578 H592 0.961 . S
C579 C576 1.539 . S
C579 H593 0.958 . S
C579 H594 0.961 . S
C579 H595 0.960 . S
H580 C564 0.931 . S
H581 C569 0.929 . S
H582 C570 0.960 . S
H583 C570 0.962 . S
H584 C570 0.960 . S
H585 C571 0.961 . S
H586 C571 0.961 . S
H587 C571 0.961 . S
H588 C572 0.931 . S
H589 C577 0.930 . S
H590 C578 0.956 . S
H591 C578 0.961 . S
H592 C578 0.961 . S
H593 C579 0.958 . S
H594 C579 0.961 . S
H595 C579 0.960 . S
C596 C597 1.391 . S
C596 C598 1.394 . S
C596 H612 0.931 . S
C597 C596 1.391 . S
C597 C601 1.376 . S
C598 C596 1.394 . S
C598 C599 1.369 . S
C598 C602 1.531 . S
C599 C598 1.369 . S
C599 C600 1.410 . S
C599 C607 1.503 . S
C600 C599 1.410 . S
C600 C601 1.392 . S
C600 C603 1.511 . S
C601 C597 1.376 . S
C601 C600 1.392 . S
C601 H613 0.929 . S
C602 C598 1.531 . S
C602 H614 0.960 . S
C602 H615 0.962 . S
C602 H616 0.960 . S
C603 C600 1.511 . S
C603 H617 0.961 . S
C603 H618 0.961 . S
C603 H619 0.961 . S
C604 C605 1.370 . S
C604 C606 1.363 . S
C604 H620 0.931 . S
C605 C604 1.370 . S
C605 C609 1.408 . S
C606 C604 1.363 . S
C606 C607 1.370 . S
C606 C610 1.524 . S
C607 C599 1.503 . S
C607 C606 1.370 . S
C607 C608 1.403 . S
C608 C607 1.403 . S
C608 C609 1.404 . S
C608 C611 1.539 . S
C609 C605 1.408 . S
C609 C608 1.404 . S
C609 H621 0.930 . S
C610 C606 1.524 . S
C610 H622 0.956 . S
C610 H623 0.961 . S
C610 H624 0.961 . S
C611 C608 1.539 . S
C611 H625 0.958 . S
C611 H626 0.961 . S
C611 H627 0.960 . S
H612 C596 0.931 . S
H613 C601 0.929 . S
H614 C602 0.960 . S
H615 C602 0.962 . S
H616 C602 0.960 . S
H617 C603 0.961 . S
H618 C603 0.961 . S
H619 C603 0.961 . S
H620 C604 0.931 . S
H621 C609 0.930 . S
H622 C610 0.956 . S
H623 C610 0.961 . S
H624 C610 0.961 . S
H625 C611 0.958 . S
H626 C611 0.961 . S
H627 C611 0.960 . S
C628 C629 1.391 . S
C628 C630 1.394 . S
C628 H644 0.931 . S
C629 C628 1.391 . S
C629 C633 1.376 . S
C630 C628 1.394 . S
C630 C631 1.369 . S
C630 C634 1.531 . S
C631 C630 1.369 . S
C631 C632 1.410 . S
C631 C639 1.503 . S
C632 C631 1.410 . S
C632 C633 1.392 . S
C632 C635 1.511 . S
C633 C629 1.376 . S
C633 C632 1.392 . S
C633 H645 0.929 . S
C634 C630 1.531 . S
C634 H646 0.960 . S
C634 H647 0.962 . S
C634 H648 0.960 . S
C635 C632 1.511 . S
C635 H649 0.961 . S
C635 H650 0.961 . S
C635 H651 0.961 . S
C636 C637 1.370 . S
C636 C638 1.363 . S
C636 H652 0.931 . S
C637 C636 1.370 . S
C637 C641 1.408 . S
C638 C636 1.363 . S
C638 C639 1.370 . S
C638 C642 1.524 . S
C639 C631 1.503 . S
C639 C638 1.370 . S
C639 C640 1.403 . S
C640 C639 1.403 . S
C640 C641 1.404 . S
C640 C643 1.539 . S
C641 C637 1.408 . S
C641 C640 1.404 . S
C641 H653 0.930 . S
C642 C638 1.524 . S
C642 H654 0.956 . S
C642 H655 0.961 . S
C642 H656 0.961 . S
C643 C640 1.539 . S
C643 H657 0.958 . S
C643 H658 0.961 . S
C643 H659 0.960 . S
H644 C628 0.931 . S
H645 C633 0.929 . S
H646 C634 0.960 . S
H647 C634 0.962 . S
H648 C634 0.960 . S
H649 C635 0.961 . S
H650 C635 0.961 . S
H651 C635 0.961 . S
H652 C636 0.931 . S
H653 C641 0.930 . S
H654 C642 0.956 . S
H655 C642 0.961 . S
H656 C642 0.961 . S
H657 C643 0.958 . S
H658 C643 0.961 . S
H659 C643 0.960 . S
C660 C661 1.391 . S
C660 C662 1.394 . S
C660 H676 0.931 . S
C661 C660 1.391 . S
C661 C665 1.376 . S
C662 C660 1.394 . S
C662 C663 1.369 . S
C662 C666 1.531 . S
C663 C662 1.369 . S
C663 C664 1.410 . S
C663 C671 1.503 . S
C664 C663 1.410 . S
C664 C665 1.392 . S
C664 C667 1.511 1_455 S
C665 C661 1.376 . S
C665 C664 1.392 . S
C665 H677 0.933 . S
C666 C662 1.531 . S
C666 H678 0.960 . S
C666 H679 0.962 . S
C666 H680 0.960 . S
C667 C664 1.511 1_655 S
C667 H681 0.961 . S
C667 H682 0.961 1_655 S
C667 H683 0.961 . S
C668 C669 1.336 1_554 S
C668 C670 1.363 . S
C668 H684 0.931 . S
C669 C668 1.336 1_556 S
C669 C673 1.390 1_556 S
C670 C668 1.363 . S
C670 C671 1.370 . S
C670 C674 1.524 . S
C671 C663 1.503 . S
C671 C670 1.370 . S
C671 C672 1.403 . S
C672 C671 1.403 . S
C672 C673 1.404 . S
C672 C675 1.539 1_455 S
C673 C669 1.390 1_554 S
C673 C672 1.404 . S
C673 H685 0.930 1_454 S
C674 C670 1.524 . S
C674 H686 0.956 . S
C674 H687 0.961 . S
C674 H688 0.961 . S
C675 C672 1.539 1_655 S
C675 H689 0.958 . S
C675 H690 0.961 . S
C675 H691 0.960 . S
H676 C660 0.931 . S
H677 C665 0.933 . S
H678 C666 0.960 . S
H679 C666 0.962 . S
H680 C666 0.960 . S
H681 C667 0.961 . S
H682 C667 0.961 1_455 S
H683 C667 0.961 . S
H684 C668 0.931 . S
H685 C673 0.930 1_656 S
H686 C674 0.956 . S
H687 C674 0.961 . S
H688 C674 0.961 . S
H689 C675 0.958 . S
H690 C675 0.961 . S
H691 C675 0.960 . S
C692 C693 1.391 . S
C692 C694 1.394 . S
C692 H708 0.931 . S
C693 C692 1.391 . S
C693 C697 1.376 . S
C694 C692 1.394 . S
C694 C695 1.369 . S
C694 C698 1.531 1_545 S
C695 C694 1.369 . S
C695 C696 1.410 . S
C695 C703 1.503 . S
C696 C695 1.410 . S
C696 C697 1.392 . S
C696 C699 1.511 . S
C697 C693 1.376 . S
C697 C696 1.392 . S
C697 H709 0.929 . S
C698 C694 1.531 1_565 S
C698 H710 0.960 . S
C698 H711 0.962 1_565 S
C698 H712 0.960 . S
C699 C696 1.511 . S
C699 H713 0.961 . S
C699 H714 0.961 . S
C699 H715 0.961 . S
C700 C701 1.370 . S
C700 C702 1.363 . S
C700 H716 0.931 . S
C701 C700 1.370 . S
C701 C705 1.408 1_545 S
C702 C700 1.363 . S
C702 C703 1.370 . S
C702 C706 1.524 . S
C703 C695 1.503 . S
C703 C702 1.370 . S
C703 C704 1.403 1_545 S
C704 C703 1.403 1_565 S
C704 C705 1.404 . S
C704 C707 1.539 . S
C705 C701 1.408 1_565 S
C705 C704 1.404 . S
C705 H717 0.930 . S
C706 C702 1.524 . S
C706 H718 0.956 . S
C706 H719 0.961 . S
C706 H720 0.961 . S
C707 C704 1.539 . S
C707 H721 0.958 . S
C707 H722 0.961 . S
C707 H723 0.960 . S
H708 C692 0.931 . S
H709 C697 0.929 . S
H710 C698 0.960 . S
H711 C698 0.962 1_545 S
H712 C698 0.960 . S
H713 C699 0.961 . S
H714 C699 0.961 . S
H715 C699 0.961 . S
H716 C700 0.931 . S
H717 C705 0.930 . S
H718 C706 0.956 . S
H719 C706 0.961 . S
H720 C706 0.961 . S
H721 C707 0.958 . S
H722 C707 0.961 . S
H723 C707 0.960 . S
C724 C725 1.391 . S
C724 C726 1.394 . S
C724 H740 0.931 . S
C725 C724 1.391 . S
C725 C729 1.376 . S
C726 C724 1.394 . S
C726 C727 1.369 . S
C726 C730 1.531 . S
C727 C726 1.369 . S
C727 C728 1.410 . S
C727 C735 1.503 . S
C728 C727 1.410 . S
C728 C729 1.392 . S
C728 C731 1.511 . S
C729 C725 1.376 . S
C729 C728 1.392 . S
C729 H741 0.929 . S
C730 C726 1.531 . S
C730 H742 0.960 . S
C730 H743 0.962 . S
C730 H744 0.960 . S
C731 C728 1.511 . S
C731 H745 0.961 . S
C731 H746 0.961 . S
C731 H747 0.961 . S
C732 C733 1.370 . S
C732 C734 1.363 . S
C732 H748 0.931 . S
C733 C732 1.370 . S
C733 C737 1.408 . S
C734 C732 1.363 . S
C734 C735 1.370 . S
C734 C738 1.524 . S
C735 C727 1.503 . S
C735 C734 1.370 . S
C735 C736 1.403 . S
C736 C735 1.403 . S
C736 C737 1.404 . S
C736 C739 1.539 . S
C737 C733 1.408 . S
C737 C736 1.404 . S
C737 H749 0.930 . S
C738 C734 1.524 . S
C738 H750 0.956 . S
C738 H751 0.961 . S
C738 H752 0.961 . S
C739 C736 1.539 . S
C739 H753 0.958 . S
C739 H754 0.961 . S
C739 H755 0.960 . S
H740 C724 0.931 . S
H741 C729 0.929 . S
H742 C730 0.960 . S
H743 C730 0.962 . S
H744 C730 0.960 . S
H745 C731 0.961 . S
H746 C731 0.961 . S
H747 C731 0.961 . S
H748 C732 0.931 . S
H749 C737 0.930 . S
H750 C738 0.956 . S
H751 C738 0.961 . S
H752 C738 0.961 . S
H753 C739 0.958 . S
H754 C739 0.961 . S
H755 C739 0.960 . S
C756 C757 1.391 . S
C756 C758 1.394 . S
C756 H772 0.931 . S
C757 C756 1.391 . S
C757 C761 1.376 . S
C758 C756 1.394 . S
C758 C759 1.369 . S
C758 C762 1.531 . S
C759 C758 1.369 . S
C759 C760 1.410 . S
C759 C767 1.503 . S
C760 C759 1.410 . S
C760 C761 1.392 . S
C760 C763 1.511 . S
C761 C757 1.376 . S
C761 C760 1.392 . S
C761 H773 0.929 . S
C762 C758 1.531 . S
C762 H774 0.960 . S
C762 H775 0.962 . S
C762 H776 0.960 . S
C763 C760 1.511 . S
C763 H777 0.961 . S
C763 H778 0.961 . S
C763 H779 0.961 1_545 S
C764 C765 1.370 . S
C764 C766 1.363 . S
C764 H780 0.931 . S
C765 C764 1.370 . S
C765 C769 1.408 . S
C766 C764 1.363 . S
C766 C767 1.370 . S
C766 C770 1.524 . S
C767 C759 1.503 . S
C767 C766 1.370 . S
C767 C768 1.403 . S
C768 C767 1.403 . S
C768 C769 1.404 . S
C768 C771 1.539 1_545 S
C769 C765 1.408 . S
C769 C768 1.404 . S
C769 H781 0.930 1_545 S
C770 C766 1.524 . S
C770 H782 0.956 . S
C770 H783 0.961 . S
C770 H784 0.961 . S
C771 C768 1.539 1_565 S
C771 H785 0.958 . S
C771 H786 0.961 . S
C771 H787 0.960 . S
H772 C756 0.931 . S
H773 C761 0.929 . S
H774 C762 0.960 . S
H775 C762 0.962 . S
H776 C762 0.960 . S
H777 C763 0.961 . S
H778 C763 0.961 . S
H779 C763 0.961 1_565 S
H780 C764 0.931 . S
H781 C769 0.930 1_565 S
H782 C770 0.956 . S
H783 C770 0.961 . S
H784 C770 0.961 . S
H785 C771 0.958 . S
H786 C771 0.961 . S
H787 C771 0.960 . S
C788 C789 1.391 . S
C788 C790 1.394 . S
C788 H804 0.931 . S
C789 C788 1.391 . S
C789 C793 1.376 . S
C790 C788 1.394 . S
C790 C791 1.369 . S
C790 C794 1.531 . S
C791 C790 1.369 . S
C791 C792 1.410 . S
C791 C799 1.503 . S
C792 C791 1.410 . S
C792 C793 1.392 . S
C792 C795 1.511 . S
C793 C789 1.376 . S
C793 C792 1.392 . S
C793 H805 0.929 . S
C794 C790 1.531 . S
C794 H806 0.960 . S
C794 H807 0.962 . S
C794 H808 0.960 . S
C795 C792 1.511 . S
C795 H809 0.961 . S
C795 H810 0.961 . S
C795 H811 0.961 . S
C796 C797 1.370 1_556 S
C796 C798 1.363 . S
C796 H812 0.939 . S
C797 C796 1.370 1_554 S
C797 C801 1.408 1_554 S
C798 C796 1.363 . S
C798 C799 1.370 . S
C798 C802 1.524 . S
C799 C791 1.503 . S
C799 C798 1.370 . S
C799 C800 1.403 . S
C800 C799 1.403 . S
C800 C801 1.404 . S
C800 C803 1.539 . S
C801 C797 1.408 1_556 S
C801 C800 1.404 . S
C801 H813 0.930 . S
C802 C798 1.524 . S
C802 H814 0.956 . S
C802 H815 0.961 . S
C802 H816 0.961 . S
C803 C800 1.539 . S
C803 H817 0.958 . S
C803 H818 0.961 . S
C803 H819 0.960 . S
H804 C788 0.931 . S
H805 C793 0.929 . S
H806 C794 0.960 . S
H807 C794 0.962 . S
H808 C794 0.960 . S
H809 C795 0.961 . S
H810 C795 0.961 . S
H811 C795 0.961 . S
H812 C796 0.939 . S
H813 C801 0.930 . S
H814 C802 0.956 . S
H815 C802 0.961 . S
H816 C802 0.961 . S
H817 C803 0.958 . S
H818 C803 0.961 . S
H819 C803 0.960 . S
C820 C821 1.391 1_655 S
C820 C822 1.394 . S
C820 H836 0.931 . S
C821 C820 1.391 1_455 S
C821 C825 1.376 . S
C822 C820 1.394 . S
C822 C823 1.369 1_655 S
C822 C826 1.531 . S
C823 C822 1.369 1_455 S
C823 C824 1.410 . S
C823 C831 1.503 . S
C824 C823 1.410 . S
C824 C825 1.392 . S
C824 C827 1.511 . S
C825 C821 1.376 . S
C825 C824 1.392 . S
C825 H837 0.929 . S
C826 C822 1.531 . S
C826 H838 0.960 . S
C826 H839 0.962 . S
C826 H840 0.960 . S
C827 C824 1.511 . S
C827 H841 0.961 . S
C827 H842 0.961 . S
C827 H843 0.961 . S
C828 C829 1.370 . S
C828 C830 1.363 . S
C828 H844 0.931 . S
C829 C828 1.370 . S
C829 C833 1.408 . S
C830 C828 1.363 . S
C830 C831 1.370 . S
C830 C834 1.524 . S
C831 C823 1.503 . S
C831 C830 1.370 . S
C831 C832 1.403 . S
C832 C831 1.403 . S
C832 C833 1.404 . S
C832 C835 1.539 . S
C833 C829 1.408 . S
C833 C832 1.404 . S
C833 H845 0.930 . S
C834 C830 1.524 . S
C834 H846 0.956 1_455 S
C834 H847 0.961 . S
C834 H848 0.961 . S
C835 C832 1.539 . S
C835 H849 0.958 1_455 S
C835 H850 0.961 . S
C835 H851 0.960 . S
H836 C820 0.931 . S
H837 C825 0.929 . S
H838 C826 0.960 . S
H839 C826 0.962 . S
H840 C826 0.960 . S
H841 C827 0.961 . S
H842 C827 0.961 . S
H843 C827 0.961 . S
H844 C828 0.931 . S
H845 C833 0.930 . S
H846 C834 0.956 1_655 S
H847 C834 0.961 . S
H848 C834 0.961 . S
H849 C835 0.958 1_655 S
H850 C835 0.961 . S
H851 C835 0.960 . S
C277 C2 1.072 . S
C285 C265 1.080 . S
C309 C21 1.041 . S
C317 C193 1.017 . S
C341 C42 1.111 . S
C349 C229 1.081 . S
C373 C1 1.034 . S
C381 C241 1.019 . S
C413 C169 1.069 . S
C405 C22 1.083 . S
C445 C205 1.026 . S
C437 C41 0.998 . S
C469 C38 1.909 . S
C477 C121 1.856 . S
C501 C59 1.961 . S
C509 C133 1.936 . S
C533 C18 1.887 . S
C541 C61 1.870 . S
C573 C97 1.925 . S
C565 C39 1.970 . S
C605 C157 1.843 . S
C597 C58 1.894 . S
C629 C19 1.957 . S
C637 C85 1.908 . S
C669 C163 1.617 . S
C661 C9 1.507 . S
C693 C29 1.524 . S
C701 C91 1.566 . S
C725 C49 1.495 . S
C733 C127 1.569 . S
C765 C235 1.388 . S
C757 C28 1.339 . S
C797 C271 1.382 . S
C789 C48 1.381 . S
C821 C8 1.333 . S
C829 C199 1.378 . S
