# Generated by pormake.
# Topology ctn, (3,4)-cn, num edge types: 1
# Building blocks:
#     Node 0, Type 0, BuildingBlock: QEWDON_clean_linker_0, # of connection points: 3
#     Node 1, Type 0, BuildingBlock: QEWDON_clean_linker_0, # of connection points: 3
#     Node 2, Type 0, BuildingBlock: QEWDON_clean_linker_0, # of connection points: 3
#     Node 3, Type 0, BuildingBlock: QEWDON_clean_linker_0, # of connection points: 3
#     Node 4, Type 0, BuildingBlock: QEWDON_clean_linker_0, # of connection points: 3
#     Node 5, Type 0, BuildingBlock: QEWDON_clean_linker_0, # of connection points: 3
#     Node 6, Type 0, BuildingBlock: QEWDON_clean_linker_0, # of connection points: 3
#     Node 7, Type 0, BuildingBlock: QEWDON_clean_linker_0, # of connection points: 3
#     Node 8, Type 0, BuildingBlock: QEWDON_clean_linker_0, # of connection points: 3
#     Node 9, Type 0, BuildingBlock: QEWDON_clean_linker_0, # of connection points: 3
#     Node 10, Type 0, BuildingBlock: QEWDON_clean_linker_0, # of connection points: 3
#     Node 11, Type 0, BuildingBlock: QEWDON_clean_linker_0, # of connection points: 3
#     Node 12, Type 0, BuildingBlock: QEWDON_clean_linker_0, # of connection points: 3
#     Node 13, Type 0, BuildingBlock: QEWDON_clean_linker_0, # of connection points: 3
#     Node 14, Type 0, BuildingBlock: QEWDON_clean_linker_0, # of connection points: 3
#     Node 15, Type 0, BuildingBlock: QEWDON_clean_linker_0, # of connection points: 3
#     Node 16, Type 1, BuildingBlock: NAHDIM_clean_sbu_0, # of connection points: 4
#     Node 17, Type 1, BuildingBlock: NAHDIM_clean_sbu_0, # of connection points: 4
#     Node 18, Type 1, BuildingBlock: NAHDIM_clean_sbu_0, # of connection points: 4
#     Node 19, Type 1, BuildingBlock: NAHDIM_clean_sbu_0, # of connection points: 4
#     Node 20, Type 1, BuildingBlock: NAHDIM_clean_sbu_0, # of connection points: 4
#     Node 21, Type 1, BuildingBlock: NAHDIM_clean_sbu_0, # of connection points: 4
#     Node 22, Type 1, BuildingBlock: NAHDIM_clean_sbu_0, # of connection points: 4
#     Node 23, Type 1, BuildingBlock: NAHDIM_clean_sbu_0, # of connection points: 4
#     Node 24, Type 1, BuildingBlock: NAHDIM_clean_sbu_0, # of connection points: 4
#     Node 25, Type 1, BuildingBlock: NAHDIM_clean_sbu_0, # of connection points: 4
#     Node 26, Type 1, BuildingBlock: NAHDIM_clean_sbu_0, # of connection points: 4
#     Node 27, Type 1, BuildingBlock: NAHDIM_clean_sbu_0, # of connection points: 4
#     Edge 28, Type (0, 1), BuildingBlock: CIFDUS_clean_linker_0, # of connection points: 2
#     Edge 29, Type (0, 1), BuildingBlock: CIFDUS_clean_linker_0, # of connection points: 2
#     Edge 30, Type (0, 1), BuildingBlock: CIFDUS_clean_linker_0, # of connection points: 2
#     Edge 31, Type (0, 1), BuildingBlock: CIFDUS_clean_linker_0, # of connection points: 2
#     Edge 32, Type (0, 1), BuildingBlock: CIFDUS_clean_linker_0, # of connection points: 2
#     Edge 33, Type (0, 1), BuildingBlock: CIFDUS_clean_linker_0, # of connection points: 2
#     Edge 34, Type (0, 1), BuildingBlock: CIFDUS_clean_linker_0, # of connection points: 2
#     Edge 35, Type (0, 1), BuildingBlock: CIFDUS_clean_linker_0, # of connection points: 2
#     Edge 36, Type (0, 1), BuildingBlock: CIFDUS_clean_linker_0, # of connection points: 2
#     Edge 37, Type (0, 1), BuildingBlock: CIFDUS_clean_linker_0, # of connection points: 2
#     Edge 38, Type (0, 1), BuildingBlock: CIFDUS_clean_linker_0, # of connection points: 2
#     Edge 39, Type (0, 1), BuildingBlock: CIFDUS_clean_linker_0, # of connection points: 2
#     Edge 40, Type (0, 1), BuildingBlock: CIFDUS_clean_linker_0, # of connection points: 2
#     Edge 41, Type (0, 1), BuildingBlock: CIFDUS_clean_linker_0, # of connection points: 2
#     Edge 42, Type (0, 1), BuildingBlock: CIFDUS_clean_linker_0, # of connection points: 2
#     Edge 43, Type (0, 1), BuildingBlock: CIFDUS_clean_linker_0, # of connection points: 2
#     Edge 44, Type (0, 1), BuildingBlock: CIFDUS_clean_linker_0, # of connection points: 2
#     Edge 45, Type (0, 1), BuildingBlock: CIFDUS_clean_linker_0, # of connection points: 2
#     Edge 46, Type (0, 1), BuildingBlock: CIFDUS_clean_linker_0, # of connection points: 2
#     Edge 47, Type (0, 1), BuildingBlock: CIFDUS_clean_linker_0, # of connection points: 2
#     Edge 48, Type (0, 1), BuildingBlock: CIFDUS_clean_linker_0, # of connection points: 2
#     Edge 49, Type (0, 1), BuildingBlock: CIFDUS_clean_linker_0, # of connection points: 2
#     Edge 50, Type (0, 1), BuildingBlock: CIFDUS_clean_linker_0, # of connection points: 2
#     Edge 51, Type (0, 1), BuildingBlock: CIFDUS_clean_linker_0, # of connection points: 2
#     Edge 52, Type (0, 1), BuildingBlock: CIFDUS_clean_linker_0, # of connection points: 2
#     Edge 53, Type (0, 1), BuildingBlock: CIFDUS_clean_linker_0, # of connection points: 2
#     Edge 54, Type (0, 1), BuildingBlock: CIFDUS_clean_linker_0, # of connection points: 2
#     Edge 55, Type (0, 1), BuildingBlock: CIFDUS_clean_linker_0, # of connection points: 2
#     Edge 56, Type (0, 1), BuildingBlock: CIFDUS_clean_linker_0, # of connection points: 2
#     Edge 57, Type (0, 1), BuildingBlock: CIFDUS_clean_linker_0, # of connection points: 2
#     Edge 58, Type (0, 1), BuildingBlock: CIFDUS_clean_linker_0, # of connection points: 2
#     Edge 59, Type (0, 1), BuildingBlock: CIFDUS_clean_linker_0, # of connection points: 2
#     Edge 60, Type (0, 1), BuildingBlock: CIFDUS_clean_linker_0, # of connection points: 2
#     Edge 61, Type (0, 1), BuildingBlock: CIFDUS_clean_linker_0, # of connection points: 2
#     Edge 62, Type (0, 1), BuildingBlock: CIFDUS_clean_linker_0, # of connection points: 2
#     Edge 63, Type (0, 1), BuildingBlock: CIFDUS_clean_linker_0, # of connection points: 2
#     Edge 64, Type (0, 1), BuildingBlock: CIFDUS_clean_linker_0, # of connection points: 2
#     Edge 65, Type (0, 1), BuildingBlock: CIFDUS_clean_linker_0, # of connection points: 2
#     Edge 66, Type (0, 1), BuildingBlock: CIFDUS_clean_linker_0, # of connection points: 2
#     Edge 67, Type (0, 1), BuildingBlock: CIFDUS_clean_linker_0, # of connection points: 2
#     Edge 68, Type (0, 1), BuildingBlock: CIFDUS_clean_linker_0, # of connection points: 2
#     Edge 69, Type (0, 1), BuildingBlock: CIFDUS_clean_linker_0, # of connection points: 2
#     Edge 70, Type (0, 1), BuildingBlock: CIFDUS_clean_linker_0, # of connection points: 2
#     Edge 71, Type (0, 1), BuildingBlock: CIFDUS_clean_linker_0, # of connection points: 2
#     Edge 72, Type (0, 1), BuildingBlock: CIFDUS_clean_linker_0, # of connection points: 2
#     Edge 73, Type (0, 1), BuildingBlock: CIFDUS_clean_linker_0, # of connection points: 2
#     Edge 74, Type (0, 1), BuildingBlock: CIFDUS_clean_linker_0, # of connection points: 2
#     Edge 75, Type (0, 1), BuildingBlock: CIFDUS_clean_linker_0, # of connection points: 2
# Relax obj value: 0.117
# Max RMSD: 0.274
# Mean RMSD: 0.156
data_MOF--net-ctn--node1-NAHDIM_clean_sbu_0--node2-QEWDON_clean_linker_0--edge1-CIFDUS_clean_linker_0
_symmetry_space_group_name_H-M    P1
_symmetry_Int_Tables_number       1
_symmetry_cell_setting            triclinic
loop_
_symmetry_equiv_pos_as_xyz
'x, y, z'
_cell_length_a     45.841785
_cell_length_b     48.33522
_cell_length_c     51.111675
_cell_angle_alpha  99.74667
_cell_angle_beta   92.061537
_cell_angle_gamma 97.890141
loop_
_atom_site_label
_atom_site_type_symbol
_atom_site_fract_x
_atom_site_fract_y
_atom_site_fract_z
_atom_type_partial_charge
H0 H 0.11076 0.05421 0.07011 0.0
C1 C 0.0962 0.04756 0.08485 0.0
C2 C 0.09867 0.02211 0.09428 0.0
C3 C 0.07627 0.06536 0.09553 0.0
H4 H 0.08251 0.99534 0.12216 0.0
C5 C 0.08007 0.01427 0.11405 0.0
C6 C 0.06006 0.03208 0.1249 0.0
C7 C 0.05806 0.05721 0.11513 0.0
C8 C 0.07679 0.09421 0.08918 0.0
H9 H 0.04272 0.07108 0.1234 0.0
C10 C 0.0719 0.09875 0.06295 0.0
C11 C 0.07087 0.12648 0.05788 0.0
C12 C 0.08133 0.11755 0.11014 0.0
H13 H 0.08535 0.11457 0.13043 0.0
C14 C 0.08057 0.14489 0.10524 0.0
H15 H 0.06852 0.0808 0.04674 0.0
C16 C 0.07515 0.14935 0.07942 0.0
H17 H 0.07376 0.1708 0.07646 0.0
H18 H 0.08382 0.16268 0.12158 0.0
H19 H 0.36417 0.76274 0.27795 0.0
C20 C 0.34695 0.74453 0.27492 0.0
C21 C 0.35144 0.72027 0.28533 0.0
C22 C 0.32012 0.74584 0.26129 0.0
H23 H 0.33205 0.67835 0.29004 0.0
C24 C 0.32869 0.69717 0.28208 0.0
C25 C 0.3019 0.69789 0.26812 0.0
C26 C 0.29789 0.72218 0.25743 0.0
C27 C 0.31471 0.77286 0.25321 0.0
H28 H 0.27698 0.72319 0.24727 0.0
C29 C 0.30429 0.77382 0.22713 0.0
C30 C 0.30002 0.79994 0.21979 0.0
C31 C 0.32021 0.79809 0.27198 0.0
H32 H 0.32791 0.79786 0.29223 0.0
C33 C 0.31544 0.8238 0.265 0.0
H34 H 0.30045 0.75448 0.21247 0.0
C35 C 0.30544 0.82479 0.23915 0.0
H36 H 0.30169 0.84507 0.2344 0.0
H37 H 0.3195 0.84307 0.27969 0.0
H38 H 0.07678 0.50169 0.04237 0.0
C39 C 0.05906 0.51301 0.03753 0.0
C40 C 0.04358 0.52703 0.05783 0.0
C41 C 0.05301 0.51473 0.01084 0.0
H42 H 0.00854 0.55273 0.06576 0.0
C43 C 0.02111 0.54211 0.05062 0.0
C44 C 0.01535 0.54439 0.0239 0.0
C45 C 0.03153 0.53071 1.00418 0.0
C46 C 0.06967 0.50039 0.98979 0.0
H47 H 0.02715 0.53219 0.9835 0.0
C48 C 0.0658 0.47066 0.98351 0.0
C49 C 0.0808 0.45688 0.96275 0.0
C50 C 0.08884 0.51645 0.97542 0.0
H51 H 0.09193 0.53942 0.97996 0.0
C52 C 0.10425 0.50292 0.95518 0.0
H53 H 0.05085 0.45832 0.99459 0.0
C54 C 0.10028 0.47333 0.94881 0.0
H55 H 0.11193 0.46334 0.93258 0.0
H56 H 0.11907 0.5154 0.94418 0.0
H57 H 0.77455 0.79553 0.23895 0.0
C58 C 0.77293 0.78554 0.21819 0.0
C59 C 0.78164 0.80163 0.1985 0.0
C60 C 0.76307 0.75632 0.21133 0.0
H61 H 0.78672 0.8 0.15633 0.0
C62 C 0.7796 0.78809 0.1717 0.0
C63 C 0.76899 0.759 0.16462 0.0
C64 C 0.76087 0.74328 0.18454 0.0
C65 C 0.7572 0.73883 0.23215 0.0
H66 H 0.75349 0.72063 0.17926 0.0
C67 C 0.73533 0.74395 0.25022 0.0
C68 C 0.72963 0.72672 0.26964 0.0
C69 C 0.77354 0.71658 0.23374 0.0
H70 H 0.79052 0.71235 0.22001 0.0
C71 C 0.7683 0.69977 0.25319 0.0
H72 H 0.72265 0.76107 0.24896 0.0
C73 C 0.74649 0.70473 0.27103 0.0
H74 H 0.74238 0.69095 0.28555 0.0
H75 H 0.78102 0.68268 0.25431 0.0
H76 H 0.1173 0.95278 0.48842 0.0
C77 C 0.10142 0.95882 0.47502 0.0
C78 C 0.10866 0.98313 0.46337 0.0
C79 C 0.07448 0.941 0.46818 0.0
H80 H 0.09309 0.00788 0.43565 0.0
C81 C 0.08756 0.99003 0.44571 0.0
C82 C 0.06021 0.97258 0.43905 0.0
C83 C 0.05392 0.94806 0.45041 0.0
C84 C 0.07073 0.91222 0.47485 0.0
H85 H 0.03347 0.93377 0.44466 0.0
C86 C 0.06045 0.90667 0.49937 0.0
C87 C 0.05861 0.879 0.50525 0.0
C88 C 0.07864 0.89007 0.45625 0.0
H89 H 0.08659 0.89403 0.43732 0.0
C90 C 0.07671 0.86274 0.46199 0.0
H91 H 0.05433 0.92371 0.51381 0.0
C92 C 0.06689 0.85722 0.48633 0.0
H93 H 0.0654 0.83576 0.49028 0.0
H94 H 0.08291 0.84578 0.44755 0.0
H95 H 0.2717 0.66717 0.80092 0.0
C96 C 0.26751 0.67957 0.81979 0.0
C97 C 0.2774 0.67213 0.84364 0.0
C98 C 0.25221 0.70281 0.8199 0.0
H99 H 0.27908 0.6828 0.88647 0.0
C100 C 0.27131 0.68819 0.86797 0.0
C101 C 0.25591 0.71162 0.86851 0.0
C102 C 0.24622 0.71853 0.84428 0.0
C103 C 0.24444 0.71173 0.79445 0.0
H104 H 0.23535 0.73709 0.84431 0.0
C105 C 0.21593 0.71777 0.78866 0.0
C106 C 0.20877 0.72545 0.76405 0.0
C107 C 0.26588 0.7141 0.77566 0.0
H108 H 0.28807 0.70995 0.77976 0.0
C109 C 0.25907 0.72223 0.75155 0.0
H110 H 0.19915 0.71558 0.80288 0.0
C111 C 0.23077 0.72782 0.74571 0.0
H112 H 0.22613 0.73422 0.72686 0.0
H113 H 0.27581 0.72418 0.73729 0.0
H114 H 0.97639 0.5912 0.46636 0.0
C115 C 0.96163 0.5737 0.47153 0.0
C116 C 0.9536 0.57438 0.49795 0.0
C117 C 0.94965 0.55099 0.45151 0.0
H118 H 0.92654 0.55277 0.52413 0.0
C119 C 0.93381 0.55174 0.50409 0.0
C120 C 0.92174 0.5288 0.48423 0.0
C121 C 0.93004 0.5286 0.458 0.0
C122 C 0.95448 0.552 0.42323 0.0
H123 H 0.92087 0.51119 0.44235 0.0
C124 C 0.98223 0.54974 0.41277 0.0
C125 C 0.98559 0.54883 0.3853 0.0
C126 C 0.93041 0.55413 0.40631 0.0
H127 H 0.90891 0.55589 0.41405 0.0
C128 C 0.93382 0.55402 0.37933 0.0
H129 H 1.00073 0.54761 0.42573 0.0
C130 C 0.96114 0.55131 0.36884 0.0
H131 H 0.96317 0.55125 0.34778 0.0
H132 H 0.91517 0.55584 0.36645 0.0
H133 H 0.83783 0.82353 0.78742 0.0
C134 C 0.8322 0.80642 0.79839 0.0
C135 C 0.8455 0.78157 0.79297 0.0
C136 C 0.81257 0.80981 0.81876 0.0
H137 H 0.84873 0.74088 0.80445 0.0
C138 C 0.83829 0.75986 0.80799 0.0
C139 C 0.8181 0.76276 0.82799 0.0
C140 C 0.80539 0.78778 0.83313 0.0
C141 C 0.80235 0.8375 0.82765 0.0
H142 H 0.79063 0.79066 0.84917 0.0
C143 C 0.78653 0.85072 0.8103 0.0
C144 C 0.77688 0.87692 0.81981 0.0
C145 C 0.80847 0.8507 0.85433 0.0
H146 H 0.82074 0.84102 0.86796 0.0
C147 C 0.79903 0.87651 0.86372 0.0
H148 H 0.78168 0.84068 0.7897 0.0
C149 C 0.78331 0.88951 0.84668 0.0
H150 H 0.7758 0.90935 0.85469 0.0
H151 H 0.8038 0.88643 0.88434 0.0
H152 H 0.36044 0.32583 0.28638 0.0
C153 C 0.35559 0.30938 0.29826 0.0
C154 C 0.36981 0.28506 0.29396 0.0
C155 C 0.33677 0.31365 0.31915 0.0
H156 H 0.37442 0.24556 0.30717 0.0
C157 C 0.36411 0.26463 0.31057 0.0
C158 C 0.34507 0.26854 0.33147 0.0
C159 C 0.33162 0.29323 0.33559 0.0
C160 C 0.32535 0.34099 0.32609 0.0
H161 H 0.31781 0.29712 0.35221 0.0
C162 C 0.30519 0.34976 0.30882 0.0
C163 C 0.29444 0.37583 0.31621 0.0
C164 C 0.33472 0.35839 0.35062 0.0
H165 H 0.35021 0.35199 0.36414 0.0
C166 C 0.3244 0.38423 0.35787 0.0
H167 H 0.29781 0.33632 0.28991 0.0
C168 C 0.30441 0.39291 0.34087 0.0
H169 H 0.29626 0.41282 0.34729 0.0
H170 H 0.33175 0.3975 0.37684 0.0
H171 H 0.55561 0.98873 0.53401 0.0
C172 C 0.53662 0.99981 0.53379 0.0
C173 C 0.52401 0.00963 0.55771 0.0
C174 C 0.52603 1.00573 0.50958 0.0
H175 H 0.48932 0.03169 0.57483 0.0
C176 C 0.49979 0.02471 0.5567 0.0
C177 C 0.48895 0.03077 0.53245 0.0
C178 C 0.5025 0.0213 0.50905 0.0
C179 C 0.54043 0.99697 0.48478 0.0
H180 H 0.49515 0.02646 0.4903 0.0
C181 C 0.5392 0.9681 0.47389 0.0
C182 C 0.55108 0.95989 0.44921 0.0
C183 C 0.55418 0.01765 0.47124 0.0
H184 H 0.55523 0.04 0.47935 0.0
C185 C 0.56667 0.00962 0.44714 0.0
H186 H 0.52793 0.95219 0.48407 0.0
C187 C 0.56506 0.98096 0.4361 0.0
H188 H 0.57477 0.97526 0.41729 0.0
H189 H 0.57739 0.02567 0.43686 0.0
H190 H 0.27487 0.30333 0.73773 0.0
C191 C 0.2753 0.29607 0.71651 0.0
C192 C 0.28952 0.31408 0.70039 0.0
C193 C 0.26344 0.26794 0.70559 0.0
H194 H 0.3015 0.31741 0.66033 0.0
C195 C 0.29064 0.30382 0.67298 0.0
C196 C 0.279 0.27572 0.66195 0.0
C197 C 0.26528 0.25806 0.67838 0.0
C198 C 0.25072 0.2479 0.72252 0.0
H199 H 0.25606 0.23635 0.66996 0.0
C200 C 0.22736 0.25397 0.73863 0.0
C201 C 0.21357 0.23352 0.75269 0.0
C202 C 0.26097 0.22165 0.72126 0.0
H203 H 0.27904 0.2166 0.70909 0.0
C204 C 0.24785 0.20158 0.73545 0.0
H205 H 0.21964 0.27431 0.7397 0.0
C206 C 0.22416 0.20727 0.75081 0.0
H207 H 0.21376 0.19074 0.76072 0.0
H208 H 0.25572 0.18131 0.73415 0.0
H209 H 0.86113 0.26395 0.77162 0.0
C210 C 0.84265 0.24691 0.76767 0.0
C211 C 0.84364 0.22228 0.7786 0.0
C212 C 0.81806 0.24976 0.75171 0.0
H213 H 0.81987 0.1819 0.78299 0.0
C214 C 0.81956 0.2004 0.77366 0.0
C215 C 0.79435 0.20319 0.75827 0.0
C216 C 0.79409 0.22775 0.74692 0.0
C217 C 0.81655 0.27674 0.74192 0.0
H218 H 0.77484 0.23019 0.73504 0.0
C219 C 0.80961 0.27704 0.71488 0.0
C220 C 0.80803 0.30293 0.70606 0.0
C221 C 0.82189 0.3025 0.75998 0.0
H222 H 0.82707 0.30278 0.78088 0.0
C223 C 0.82015 0.32811 0.75135 0.0
H224 H 0.80555 0.25726 0.70081 0.0
C225 C 0.81326 0.32838 0.72462 0.0
H226 H 0.81253 0.34861 0.71835 0.0
H227 H 0.82425 0.34784 0.76543 0.0
H228 H 0.60759 0.54471 0.56399 0.0
C229 C 0.59655 0.53998 0.58143 0.0
C230 C 0.59789 0.51381 0.58982 0.0
C231 C 0.58206 0.56071 0.59611 0.0
H232 H 0.58434 0.48847 0.61955 0.0
C233 C 0.58331 0.50832 0.61266 0.0
C234 C 0.56797 0.52857 0.62714 0.0
C235 C 0.56765 0.55469 0.61869 0.0
C236 C 0.58403 0.58964 0.58951 0.0
H237 H 0.55678 0.57085 0.63016 0.0
C238 C 0.57759 0.59402 0.56345 0.0
C239 C 0.5793 0.6218 0.55787 0.0
C240 C 0.5925 0.61327 0.60978 0.0
H241 H 0.59796 0.61051 0.62989 0.0
C242 C 0.59426 0.64069 0.60434 0.0
H243 H 0.57114 0.57592 0.5477 0.0
C244 C 0.58762 0.64499 0.57867 0.0
H245 H 0.58858 0.66658 0.5752 0.0
H246 H 0.60066 0.65871 0.62014 0.0
H247 H 0.6338 0.4645 0.97899 0.0
C248 C 0.61444 0.46961 0.96909 0.0
C249 C 0.61579 0.49531 0.95942 0.0
C250 C 0.58885 0.44946 0.96441 0.0
H251 H 0.59202 0.52009 0.93712 0.0
C252 C 0.59093 0.50063 0.94513 0.0
C253 C 0.56531 0.48043 0.93982 0.0
C254 C 0.56436 0.45501 0.94996 0.0
C255 C 0.58972 0.42057 0.96996 0.0
H256 H 0.54506 0.43892 0.94563 0.0
C257 C 0.57773 0.41171 0.9927 0.0
C258 C 0.57774 0.38346 0.99647 0.0
C259 C 0.60207 0.40133 0.95143 0.0
H260 H 0.61135 0.40785 0.93384 0.0
C261 C 0.60221 0.37347 0.95521 0.0
H262 H 0.5681 0.42646 0.00705 0.0
C263 C 0.59001 0.36451 0.97749 0.0
H264 H 0.59036 0.34276 0.98005 0.0
H265 H 0.61169 0.35872 0.94077 0.0
H266 H 0.79431 0.17808 0.28768 0.0
C267 C 0.78648 0.18739 0.30645 0.0
C268 C 0.79553 0.17886 0.33007 0.0
C269 C 0.76818 0.20853 0.30684 0.0
H270 H 0.79336 0.18604 0.37274 0.0
C271 C 0.78601 0.19201 0.35438 0.0
C272 C 0.76774 0.21332 0.35525 0.0
C273 C 0.75853 0.22099 0.33123 0.0
C274 C 0.76133 0.21938 0.28211 0.0
H275 H 0.74457 0.23738 0.33153 0.0
C276 C 0.73253 0.22412 0.27532 0.0
C277 C 0.72659 0.23542 0.25225 0.0
C278 C 0.78414 0.22605 0.26559 0.0
H279 H 0.80655 0.22306 0.2705 0.0
C280 C 0.77852 0.23744 0.24296 0.0
H281 H 0.71478 0.21849 0.28773 0.0
C282 C 0.7501 0.24225 0.23638 0.0
H283 H 0.74669 0.25172 0.21898 0.0
H284 H 0.79636 0.24286 0.23059 0.0
H285 H 0.47819 0.08968 0.97435 0.0
C286 C 0.46632 0.07135 0.9809 0.0
C287 C 0.4616 0.07202 0.00807 0.0
C288 C 0.45382 0.04786 0.96184 0.0
H289 H 0.44169 0.04844 0.03679 0.0
C290 C 0.44531 0.04826 0.01593 0.0
C291 C 0.43255 0.02472 0.99708 0.0
C292 C 0.43678 0.02478 0.97002 0.0
C293 C 0.45552 0.04865 0.93314 0.0
H294 H 0.42666 0.00691 0.95523 0.0
C295 C 0.48239 0.04801 0.92066 0.0
C296 C 0.48316 0.04757 0.89299 0.0
C297 C 0.42961 0.04944 0.91801 0.0
H298 H 0.40877 0.04996 0.92731 0.0
C299 C 0.43038 0.04979 0.89085 0.0
H300 H 0.5023 0.04688 0.93228 0.0
C301 C 0.45687 0.04886 0.87839 0.0
H302 H 0.45678 0.04925 0.85727 0.0
H303 H 0.41032 0.05067 0.87937 0.0
C304 C 0.21554 0.91586 0.05238 0.0
O305 O 0.24243 0.92963 0.05773 0.0
O306 O 0.24446 0.83659 0.00736 0.0
Zn307 Zn 0.25 0.87198 0.0359 0.0
O308 O 0.28022 0.90062 0.02293 0.0
C309 C 0.25608 0.84056 0.07959 0.0
O310 O 0.23485 0.82214 0.06601 0.0
O311 O 0.21227 0.88956 0.04234 0.0
C312 C 0.30666 0.90752 0.03271 0.0
O313 O 0.31537 0.89584 0.05249 0.0
C314 C 0.26698 0.8239 1.00409 0.0
O315 O 0.29072 0.83364 0.01991 0.0
O316 O 0.26559 0.86289 0.07059 0.0
C317 C 0.17859 0.45768 0.2515 0.0
O318 O 0.1529 0.44185 0.24473 0.0
O319 O 0.1181 0.50753 0.26963 0.0
Zn320 Zn 0.15051 0.50887 0.24381 0.0
O321 O 0.1727 0.5488 0.24808 0.0
C322 C 0.11346 0.51465 0.20056 0.0
O323 O 0.10915 0.53618 0.21874 0.0
O324 O 0.18109 0.48426 0.25166 0.0
C325 C 0.18393 0.558 0.22823 0.0
O326 O 0.18011 0.54166 0.20471 0.0
C327 C 0.11936 0.52264 0.2927 0.0
O328 O 0.14365 0.54001 0.30148 0.0
O329 O 0.13103 0.49808 0.20645 0.0
C330 C 0.87786 0.61969 0.98813 0.0
O331 O 0.886 0.64219 0.97743 0.0
O332 O 0.82774 0.65293 0.94945 0.0
Zn333 Zn 0.81864 0.63485 0.98192 0.0
O334 O 0.77982 0.60825 0.97621 0.0
C335 C 0.79243 0.67324 0.02151 0.0
O336 O 0.76756 0.66113 0.00833 0.0
O337 O 0.85064 0.61252 0.99124 0.0
C338 C 0.77148 0.59541 0.99503 0.0
O339 O 0.78841 0.59979 0.01707 0.0
C340 C 0.80732 0.66128 0.93661 0.0
O341 O 0.78021 0.65709 0.94417 0.0
O342 O 0.81662 0.66582 0.01353 0.0
C343 C 0.89443 0.05307 0.30375 0.0
O344 O 0.91558 0.05567 0.32242 0.0
O345 O 0.94358 1.0 0.31256 0.0
Zn346 Zn 0.91789 1.00084 0.27945 0.0
O347 O 0.89133 0.96308 0.2711 0.0
C348 C 0.94946 0.98387 0.23185 0.0
O349 O 0.93645 0.95835 0.23358 0.0
O350 O 0.89199 0.03221 0.28451 0.0
C351 C 0.87134 0.95606 0.25234 0.0
O352 O 0.86642 0.97452 0.23715 0.0
C353 C 0.95384 0.97679 0.31243 0.0
O354 O 0.94741 0.95654 0.29158 0.0
O355 O 0.9446 1.00498 0.2489 0.0
C356 C 0.35799 0.11629 0.50019 0.0
O357 O 0.35732 0.13837 0.51895 0.0
O358 O 0.31548 0.16093 0.44877 0.0
Zn359 Zn 0.30761 0.13722 0.4779 0.0
O360 O 0.26705 0.11347 0.47114 0.0
C361 C 0.29973 0.18691 0.51877 0.0
O362 O 0.29169 0.19912 0.49914 0.0
O363 O 0.33933 0.11172 0.48028 0.0
C364 C 0.26184 0.08849 0.47631 0.0
O365 O 0.28366 0.07697 0.48524 0.0
C366 C 0.29405 0.16929 0.43729 0.0
O367 O 0.26723 0.16236 0.44461 0.0
O368 O 0.30713 0.16225 0.51371 0.0
C369 C 0.37733 0.54792 0.81345 0.0
O370 O 0.37222 0.52863 0.82864 0.0
O371 O 0.44328 0.50581 0.81767 0.0
Zn372 Zn 0.41862 0.51173 0.78553 0.0
O373 O 0.39081 0.47534 0.76975 0.0
C374 C 0.47132 0.51655 0.75347 0.0
O375 O 0.48358 0.50361 0.77066 0.0
O376 O 0.39538 0.54452 0.79522 0.0
C377 C 0.39969 0.45847 0.75077 0.0
O378 O 0.42604 0.46511 0.74241 0.0
C379 C 0.44878 0.48109 0.81957 0.0
O380 O 0.43796 0.45968 0.80083 0.0
O381 O 0.44525 0.5223 0.75662 0.0
C382 C 0.72049 0.42503 0.52467 0.0
O383 O 0.7447 0.43451 0.51404 0.0
O384 O 0.74522 0.3475 0.49068 0.0
Zn385 Zn 0.75094 0.37618 0.52511 0.0
O386 O 0.78827 0.40256 0.52156 0.0
C387 C 0.77291 0.34329 0.56429 0.0
O388 O 0.79254 0.33606 0.5473 0.0
O389 O 0.71738 0.39997 0.52986 0.0
C390 C 0.80886 0.41347 0.53911 0.0
O391 O 0.80761 0.40712 0.56307 0.0
C392 C 0.74245 0.32055 0.48748 0.0
O393 O 0.74082 0.30805 0.5084 0.0
O394 O 0.75428 0.35878 0.55829 0.0
C395 C 0.68464 0.98551 0.76598 0.0
O396 O 0.68655 0.0117 0.77882 0.0
O397 O 0.60973 0.01181 0.7696 0.0
Zn398 Zn 0.64014 0.008 0.74167 0.0
O399 O 0.67021 0.04346 0.74369 0.0
C400 C 0.60023 0.01937 0.70347 0.0
O401 O 0.59749 0.03827 0.72461 0.0
O402 O 0.66423 0.97665 0.74769 0.0
C403 C 0.66784 0.06961 0.75 0.0
O404 O 0.64227 0.07712 0.75665 0.0
C405 C 0.61221 0.02617 0.79308 0.0
O406 O 0.63763 0.04134 0.80225 0.0
O407 O 0.61789 1.00149 0.70527 0.0
C408 C 0.04009 0.19116 0.9273 0.0
O409 O 0.02366 0.17362 0.90826 0.0
O410 O 1.00185 0.22612 0.87419 0.0
Zn411 Zn 0.04278 0.23578 0.89287 0.0
O412 O 0.05077 0.27796 0.90645 0.0
C413 C 0.07951 0.24005 0.84857 0.0
O414 O 0.06289 0.25908 0.84419 0.0
O415 O 0.04857 0.21658 0.92439 0.0
C416 C 0.07692 0.29042 0.91299 0.0
O417 O 0.09886 0.27548 0.91074 0.0
C418 C 0.98259 0.24161 0.88243 0.0
O419 O 0.98932 0.2612 0.90376 0.0
O420 O 0.07407 0.22656 0.86756 0.0
C421 C 0.54889 0.6871 0.42786 0.0
O422 O 0.52638 0.67316 0.41222 0.0
O423 O 0.51287 0.72115 0.37492 0.0
Zn424 Zn 0.55226 0.734 0.39544 0.0
O425 O 0.55304 0.77441 0.41384 0.0
C426 C 0.58132 0.73632 0.34599 0.0
O427 O 0.55502 0.73935 0.33682 0.0
O428 O 0.56105 0.7111 0.42367 0.0
C429 C 0.54476 0.79279 0.40126 0.0
O430 O 0.53535 0.785 0.37616 0.0
C431 C 0.4884 0.71855 0.38583 0.0
O432 O 0.48833 0.72215 0.41189 0.0
O433 O 0.58503 0.73336 0.37009 0.0
C434 C 0.01094 0.79914 0.62388 0.0
O435 O 0.98221 0.7964 0.62572 0.0
O436 O 0.97832 0.75934 0.67889 0.0
Zn437 Zn 0.01107 0.75098 0.65379 0.0
O438 O 0.99744 0.71669 0.62489 0.0
C439 C 0.0557 0.74968 0.69775 0.0
O440 O 0.04077 0.76584 0.71386 0.0
O441 O 0.0258 0.7834 0.63491 0.0
C442 C 1.00264 0.69211 0.6277 0.0
O443 O 0.01564 0.68892 0.6501 0.0
C444 C 0.9592 0.73882 0.68256 0.0
O445 O 0.96107 0.71319 0.66988 0.0
O446 O 0.0467 0.74198 0.67344 0.0
C447 C 0.51421 0.2886 0.10029 0.0
O448 O 0.49369 0.26626 0.09558 0.0
O449 O 0.49687 0.27075 0.17439 0.0
Zn450 Zn 0.52595 0.2628 0.14562 0.0
O451 O 0.51221 0.22479 0.12178 0.0
C452 C 0.57291 0.2603 0.18639 0.0
O453 O 0.55305 0.26486 0.20391 0.0
O454 O 0.53062 0.29284 0.12165 0.0
C455 C 0.4883 0.20874 0.1238 0.0
O456 O 0.47097 0.21645 0.14278 0.0
C457 C 0.4731 0.28059 0.17013 0.0
O458 O 0.46743 0.28682 0.14661 0.0
O459 O 0.56611 0.25952 0.16188 0.0
H460 H 0.2955 0.72972 0.91106 0.0
H461 H 0.20699 0.73587 0.88337 0.0
H462 H 0.20195 0.77024 0.92332 0.0
H463 H 0.22373 0.80054 0.96512 0.0
H464 H 0.31223 0.79371 0.99252 0.0
H465 H 0.3159 0.75733 0.95403 0.0
C466 C 0.27486 0.7381 0.91397 0.0
C467 C 0.25173 0.73025 0.89411 0.0
C468 C 0.27212 0.7579 0.93696 0.0
C469 C 0.22534 0.74179 0.89813 0.0
C470 C 0.22239 0.76141 0.92103 0.0
C471 C 0.24371 0.79091 0.9628 0.0
C472 C 0.26772 0.80008 0.98167 0.0
C473 C 0.24581 0.76998 0.94041 0.0
C474 C 0.29342 0.78726 0.97831 0.0
C475 C 0.29559 0.76641 0.95624 0.0
H476 H 0.9941 0.513 0.34035 0.0
H477 H 0.0411 0.57563 0.40336 0.0
H478 H 0.08722 0.57196 0.38104 0.0
H479 H 0.11338 0.55317 0.34195 0.0
H480 H 0.06538 0.49095 0.27891 0.0
H481 H 0.0205 0.4924 0.30285 0.0
C482 C 0.01445 0.52587 0.34921 0.0
C483 C 0.01412 0.54482 0.37331 0.0
C484 C 0.04068 0.52385 0.33616 0.0
C485 C 0.04078 0.56085 0.38485 0.0
C486 C 0.0671 0.55888 0.372 0.0
C487 C 0.09316 0.53978 0.33353 0.0
C488 C 0.0928 0.52215 0.30851 0.0
C489 C 0.06721 0.54078 0.3474 0.0
C490 C 0.06638 0.50483 0.29802 0.0
C491 C 0.04062 0.50564 0.3117 0.0
H492 H 0.85664 0.73569 0.85274 0.0
H493 H 0.76395 0.74062 0.84132 0.0
H494 H 0.75235 0.70858 0.87287 0.0
H495 H 0.76867 0.6816 0.90572 0.0
H496 H 0.86139 0.677 0.918 0.0
H497 H 0.87278 0.70615 0.88397 0.0
C498 C 0.83388 0.72932 0.85682 0.0
C499 C 0.8112 0.74063 0.84477 0.0
C500 C 0.82738 0.71111 0.8753 0.0
C501 C 0.78183 0.73244 0.85052 0.0
C502 C 0.77518 0.71411 0.86855 0.0
C503 C 0.79138 0.68678 0.90087 0.0
C504 C 0.81413 0.67723 0.91459 0.0
C505 C 0.7978 0.70374 0.88144 0.0
C506 C 0.84341 0.6841 0.90787 0.0
C507 C 0.84997 0.70082 0.8884 0.0
H508 H 0.03274 0.93496 0.39715 0.0
H509 H 0.04218 0.02321 0.43346 0.0
H510 H 0.0096 0.03256 0.39787 0.0
H511 H 0.97883 0.01546 0.35583 0.0
H512 H 0.97089 0.92699 0.3199 0.0
H513 H 1.00211 0.91796 0.35603 0.0
C514 C 0.02734 0.95618 0.39752 0.0
C515 C 0.03964 0.9783 0.41806 0.0
C516 C 0.00886 0.96139 0.37696 0.0
C517 C 0.03301 1.00582 0.41783 0.0
C518 C 0.01434 0.01115 0.39752 0.0
C519 C 0.98386 0.99422 0.356 0.0
C520 C 0.97249 0.97198 0.33509 0.0
C521 C 1.00221 0.98909 0.37688 0.0
C522 C 0.97936 0.94458 0.33559 0.0
C523 C 0.99723 0.93932 0.3563 0.0
H524 H 0.29805 0.22619 0.6427 0.0
H525 H 0.26866 0.29924 0.61791 0.0
H526 H 0.27333 0.27871 0.57125 0.0
H527 H 0.2842 0.239 0.53752 0.0
H528 H 0.31352 0.16617 0.56325 0.0
H529 H 0.31025 0.18757 0.60948 0.0
C530 C 0.29248 0.23754 0.62706 0.0
C531 C 0.28269 0.26401 0.63368 0.0
C532 C 0.29516 0.22562 0.60045 0.0
C533 C 0.27626 0.27882 0.61328 0.0
C534 C 0.27882 0.26703 0.58663 0.0
C535 C 0.28998 0.22787 0.55324 0.0
C536 C 0.29892 0.20092 0.54682 0.0
C537 C 0.28804 0.24031 0.57996 0.0
C538 C 0.30645 0.18687 0.56751 0.0
C539 C 0.30459 0.19907 0.59402 0.0
H540 H 0.51498 0.54249 0.64313 0.0
H541 H 0.58816 0.50295 0.66686 0.0
H542 H 0.56497 0.49597 0.70799 0.0
H543 H 0.52421 0.50177 0.73763 0.0
H544 H 0.4518 0.54251 0.71411 0.0
H545 H 0.47482 0.54896 0.67289 0.0
C546 C 0.52603 0.53255 0.65737 0.0
C547 C 0.55331 0.52326 0.65179 0.0
C548 C 0.51283 0.52904 0.6812 0.0
C549 C 0.56696 0.50994 0.67034 0.0
C550 C 0.55383 0.50617 0.69403 0.0
C551 C 0.51351 0.5122 0.72357 0.0
C552 C 0.48629 0.52167 0.72908 0.0
C553 C 0.52682 0.51575 0.69973 0.0
C554 C 0.47275 0.53503 0.7105 0.0
C555 C 0.48586 0.53867 0.68683 0.0
H556 H 0.76897 0.33188 0.68531 0.0
H557 H 0.83345 0.27654 0.66293 0.0
H558 H 0.82738 0.28295 0.61659 0.0
H559 H 0.8062 0.30717 0.58311 0.0
H560 H 0.7415 0.36233 0.60619 0.0
H561 H 0.74528 0.35316 0.65148 0.0
C562 C 0.78157 0.32111 0.67023 0.0
C563 C 0.80181 0.30397 0.67754 0.0
C564 C 0.7781 0.32504 0.64377 0.0
C565 C 0.81763 0.28975 0.65776 0.0
C566 C 0.81432 0.29358 0.63132 0.0
C567 C 0.7928 0.31703 0.598 0.0
C568 C 0.77381 0.33564 0.59121 0.0
C569 C 0.79501 0.31162 0.62418 0.0
C570 C 0.75639 0.348 0.61077 0.0
C571 C 0.75855 0.34282 0.63675 0.0
H572 H 0.53103 0.04715 0.6045 0.0
H573 H 0.54771 0.96348 0.56956 0.0
H574 H 0.57316 0.95902 0.61115 0.0
H575 H 0.59165 0.97943 0.65757 0.0
H576 H 0.57231 0.06227 0.69225 0.0
H577 H 0.54659 0.06612 0.65092 0.0
C578 C 0.53965 0.02764 0.60602 0.0
C579 C 0.53741 1.00576 0.58372 0.0
C580 C 0.55395 0.02505 0.63007 0.0
C581 C 0.54942 0.98093 0.58617 0.0
C582 C 0.5639 0.97828 0.61003 0.0
C583 C 0.58176 0.99826 0.65605 0.0
C584 C 0.58408 0.02054 0.67804 0.0
C585 C 0.56657 1.00033 0.63209 0.0
C586 C 0.57091 0.04473 0.67575 0.0
C587 C 0.55617 0.04703 0.65205 0.0
H588 H 0.86577 0.25961 0.82252 0.0
H589 H 0.87846 0.18035 0.7746 0.0
H590 H 0.92233 0.17859 0.80293 0.0
H591 H 0.95822 0.20089 0.84045 0.0
H592 H 0.94355 0.2794 0.88905 0.0
H593 H 0.89934 0.28006 0.86149 0.0
C594 C 0.87819 0.24197 0.81834 0.0
C595 C 0.86923 0.22031 0.79642 0.0
C596 C 0.90302 0.24097 0.83485 0.0
C597 C 0.88508 0.19727 0.7914 0.0
C598 C 0.91015 0.19632 0.80754 0.0
C599 C 0.94522 0.21802 0.8451 0.0
C600 C 0.95439 0.24015 0.86672 0.0
C601 C 0.91951 0.21821 0.8292 0.0
C602 C 0.93712 0.26208 0.87257 0.0
C603 C 0.91182 0.26256 0.85675 0.0
H604 H 0.56009 0.91484 0.47261 0.0
H605 H 0.53496 0.93685 0.39745 0.0
H606 H 0.53042 0.88719 0.37615 0.0
H607 H 0.53397 0.83763 0.37868 0.0
H608 H 0.55943 0.81529 0.45365 0.0
H609 H 0.56314 0.86487 0.47523 0.0
C610 C 0.55341 0.90869 0.45162 0.0
C611 C 0.54803 0.92953 0.43662 0.0
C612 C 0.55087 0.88005 0.43945 0.0
C613 C 0.53967 0.92129 0.40936 0.0
C614 C 0.53691 0.89288 0.39719 0.0
C615 C 0.54025 0.84355 0.39976 0.0
C616 C 0.54642 0.82275 0.41449 0.0
C617 C 0.54256 0.8721 0.412 0.0
C618 C 0.5546 0.83087 0.4418 0.0
C619 C 0.55673 0.85923 0.45417 0.0
H620 H 0.19965 0.21635 0.79945 0.0
H621 H 0.16837 0.2624 0.74129 0.0
H622 H 0.12459 0.26897 0.76602 0.0
H623 H 0.09426 0.26029 0.80343 0.0
H624 H 0.12429 0.21128 0.85956 0.0
H625 H 0.16894 0.20644 0.83576 0.0
C626 C 0.18315 0.22754 0.79191 0.0
C627 C 0.18748 0.2388 0.76843 0.0
C628 C 0.15754 0.23044 0.80571 0.0
C629 C 0.16605 0.25388 0.75949 0.0
C630 C 0.14076 0.25739 0.77348 0.0
C631 C 0.11054 0.24849 0.81041 0.0
C632 C 0.10587 0.23614 0.83323 0.0
C633 C 0.13616 0.24557 0.7965 0.0
C634 C 0.12718 0.22087 0.84197 0.0
C635 C 0.15283 0.21818 0.82844 0.0
H636 H 0.60867 0.66056 0.53198 0.0
H637 H 0.53297 0.59528 0.52293 0.0
H638 H 0.51772 0.60837 0.4808 0.0
H639 H 0.52388 0.64113 0.44838 0.0
H640 H 0.59889 0.70754 0.45936 0.0
H641 H 0.61609 0.69147 0.49898 0.0
C642 C 0.58881 0.64917 0.52081 0.0
C643 C 0.57182 0.6272 0.53077 0.0
C644 C 0.57984 0.65723 0.49703 0.0
C645 C 0.54655 0.6122 0.51568 0.0
C646 C 0.53768 0.61984 0.49169 0.0
C647 C 0.5441 0.65194 0.45933 0.0
C648 C 0.55987 0.6757 0.45095 0.0
C649 C 0.55383 0.64274 0.48244 0.0
C650 C 0.58609 0.68939 0.4654 0.0
C651 C 0.59603 0.68019 0.48809 0.0
H652 H 0.85209 0.73462 0.75698 0.0
H653 H 0.8897 0.82226 0.78321 0.0
H654 H 0.92742 0.81731 0.75087 0.0
H655 H 0.95093 0.78754 0.71598 0.0
H656 H 0.91368 0.69953 0.69103 0.0
H657 H 0.87509 0.70518 0.72214 0.0
C658 C 0.86863 0.75262 0.75576 0.0
C659 C 0.86794 0.77876 0.77258 0.0
C660 C 0.89053 0.74955 0.73736 0.0
C661 C 0.88934 0.80196 0.77032 0.0
C662 C 0.91111 0.7991 0.75193 0.0
C663 C 0.9343 0.76964 0.71728 0.0
C664 C 0.93537 0.74314 0.70115 0.0
C665 C 0.91206 0.77294 0.73543 0.0
C666 C 0.91359 0.72018 0.70318 0.0
C667 C 0.89142 0.72335 0.72101 0.0
H668 H 0.08637 0.85376 0.54012 0.0
H669 H 1.00617 0.88776 0.52671 0.0
H670 H 0.98469 0.86789 0.56404 0.0
H671 H 0.98708 0.83627 0.59724 0.0
H672 H 0.06806 0.80282 0.61017 0.0
H673 H 0.09085 0.82715 0.57648 0.0
C674 C 0.06436 0.85719 0.54571 0.0
C675 C 0.04774 0.87195 0.53065 0.0
C676 C 0.05218 0.84551 0.56692 0.0
C677 C 0.01938 0.87654 0.53813 0.0
C678 C 1.00704 0.86497 0.55931 0.0
C679 C 0.00983 0.8346 0.59293 0.0
C680 C 0.02561 0.81732 0.60602 0.0
C681 C 0.02295 0.8487 0.57336 0.0
C682 C 0.05521 0.81572 0.60034 0.0
C683 C 0.06832 0.8296 0.58099 0.0
H684 H 0.17709 0.7066 0.71714 0.0
H685 H 0.17236 0.75586 0.79512 0.0
H686 H 0.1239 0.76687 0.782 0.0
H687 H 0.084 0.76441 0.74738 0.0
H688 H 0.09011 0.71543 0.66932 0.0
H689 H 0.13696 0.70272 0.68343 0.0
C690 C 0.16552 0.71985 0.73126 0.0
C691 C 0.17847 0.73064 0.75697 0.0
C692 C 0.13795 0.7263 0.72351 0.0
C693 C 0.16285 0.7472 0.77523 0.0
C694 C 0.13522 0.75364 0.76767 0.0
C695 C 0.09551 0.75085 0.73351 0.0
C696 C 0.08353 0.74111 0.70725 0.0
C697 C 0.1227 0.7436 0.74173 0.0
C698 C 0.09877 0.72344 0.68959 0.0
C699 C 0.12563 0.7161 0.69762 0.0
H700 H 0.97313 0.57492 0.54895 0.0
H701 H 0.95673 0.63045 0.49401 0.0
H702 H 0.97035 0.67177 0.52918 0.0
H703 H 0.98553 0.69211 0.57598 0.0
H704 H 1.00195 0.63631 0.63074 0.0
H705 H 0.98929 0.59521 0.59535 0.0
C706 C 0.97251 0.59608 0.54469 0.0
C707 C 0.96392 0.59955 0.51889 0.0
C708 C 0.98013 0.61972 0.56505 0.0
C709 C 0.96362 0.62715 0.5136 0.0
C710 C 0.97116 0.6508 0.53377 0.0
C711 C 0.98625 0.67096 0.58018 0.0
C712 C 0.99453 0.66734 0.60604 0.0
C713 C 0.97921 0.64734 0.55964 0.0
C714 C 0.99564 0.63976 0.61105 0.0
C715 C 0.98842 0.6162 0.59081 0.0
H716 H 0.82066 0.82611 0.24001 0.0
H717 H 0.77144 0.84566 0.17362 0.0
H718 H 0.79427 0.89528 0.18469 0.0
H719 H 0.82916 0.9329 0.21267 0.0
H720 H 0.87789 0.91293 0.27923 0.0
H721 H 0.85385 0.86387 0.2689 0.0
C722 C 0.81453 0.84129 0.22819 0.0
C723 C 0.79434 0.83212 0.20601 0.0
C724 C 0.82767 0.86976 0.2347 0.0
C725 C 0.78716 0.85204 0.19062 0.0
C726 C 0.8001 0.88046 0.19701 0.0
C727 C 0.8344 0.91787 0.22501 0.0
C728 C 0.85539 0.92666 0.24666 0.0
C729 C 0.82057 0.88952 0.21889 0.0
C730 C 0.86188 0.90683 0.26243 0.0
C731 C 0.84816 0.8787 0.25652 0.0
H732 H 0.79484 0.1301 0.29382 0.0
H733 H 0.84283 0.17908 0.36461 0.0
H734 H 0.87706 0.14447 0.36303 0.0
H735 H 0.89416 0.10073 0.34109 0.0
H736 H 0.84699 0.05254 0.26954 0.0
H737 H 0.81213 0.08662 0.27169 0.0
C738 C 0.8129 0.13336 0.30882 0.0
C739 C 0.81605 0.15724 0.32935 0.0
C740 C 0.83285 0.11354 0.3076 0.0
C741 C 0.83942 0.16074 0.34881 0.0
C742 C 0.85922 0.14104 0.34781 0.0
C743 C 0.87626 0.09764 0.32595 0.0
C744 C 0.87332 0.07402 0.30517 0.0
C745 C 0.85623 0.1174 0.32725 0.0
C746 C 0.84992 0.07047 0.28576 0.0
C747 C 0.8299 0.08997 0.28697 0.0
H748 H 0.378 0.99982 0.97616 0.0
H749 H 0.44375 0.9969 0.03774 0.0
H750 H 0.41088 0.96001 0.0539 0.0
H751 H 0.36296 0.92956 0.05127 0.0
H752 H 0.29679 0.9332 0.99015 0.0
H753 H 0.33038 0.96866 0.973 0.0
C754 C 0.38526 0.99081 0.99289 0.0
C755 C 0.41329 1.00102 0.00571 0.0
C756 C 0.36612 0.96984 1.00224 0.0
C757 C 0.42221 0.9895 0.02765 0.0
C758 C 0.40344 0.96839 0.03686 0.0
C759 C 0.35588 0.93802 0.03414 0.0
C760 C 0.32733 0.92871 0.02208 0.0
C761 C 0.37524 0.95859 0.02447 0.0
C762 C 0.31858 0.94 0.99991 0.0
C763 C 0.33779 0.96028 0.99005 0.0
H764 H 0.29473 0.42811 0.3035 0.0
H765 H 0.24368 0.34466 0.29095 0.0
H766 H 0.20374 0.36208 0.26825 0.0
H767 H 0.18172 0.40219 0.25539 0.0
H768 H 0.23337 0.48563 0.26893 0.0
H769 H 0.27443 0.46707 0.28791 0.0
C770 C 0.27492 0.41368 0.29566 0.0
C771 C 0.27207 0.3852 0.29914 0.0
C772 C 0.25197 0.42393 0.28303 0.0
C773 C 0.2465 0.36665 0.28842 0.0
C774 C 0.22355 0.37668 0.27565 0.0
C775 C 0.20204 0.41627 0.26229 0.0
C776 C 0.2042 0.44537 0.26093 0.0
C777 C 0.22577 0.40545 0.27335 0.0
C778 C 0.23085 0.4632 0.26984 0.0
C779 C 0.25445 0.45262 0.28073 0.0
H780 H 0.12567 0.04035 0.46566 0.0
H781 H 0.16098 0.96253 0.46924 0.0
H782 H 0.21075 0.98828 0.47447 0.0
H783 H 0.24477 0.03248 0.4767 0.0
H784 H 0.21024 0.10972 0.46958 0.0
H785 H 0.1599 0.08441 0.46626 0.0
C786 C 0.14418 0.02889 0.46736 0.0
C787 C 0.13917 0.99944 0.46739 0.0
C788 C 0.17309 0.04369 0.46942 0.0
C789 C 0.16373 0.98524 0.46993 0.0
C790 C 0.19241 0.99991 0.47258 0.0
C791 C 0.22625 0.04381 0.47442 0.0
C792 C 0.23132 0.07297 0.47343 0.0
C793 C 0.19737 0.02908 0.47223 0.0
C794 C 0.20702 0.08725 0.47029 0.0
C795 C 0.17819 0.0728 0.46849 0.0
H796 H 0.7914 0.14559 0.74884 0.0
H797 H 0.73702 0.21213 0.76263 0.0
H798 H 0.69312 0.17688 0.76088 0.0
H799 H 0.67021 0.12713 0.75678 0.0
H800 H 0.7248 0.06065 0.74337 0.0
H801 H 0.76842 0.09585 0.74395 0.0
C802 C 0.76994 0.15237 0.75152 0.0
C803 C 0.76756 0.18147 0.7558 0.0
C804 C 0.74477 0.13198 0.75073 0.0
C805 C 0.7395 0.18987 0.75891 0.0
C806 C 0.71437 0.16972 0.75813 0.0
C807 C 0.69164 0.12034 0.75399 0.0
C808 C 0.69414 0.09126 0.75012 0.0
C809 C 0.71675 0.14072 0.75424 0.0
C810 C 0.72213 0.08287 0.74638 0.0
C811 C 0.74716 0.10299 0.74672 0.0
H812 H 0.44358 0.02357 0.49455 0.0
H813 H 0.47958 0.07753 0.5679 0.0
H814 H 0.44187 0.10805 0.5647 0.0
H815 H 0.40013 0.12071 0.54015 0.0
H816 H 0.36512 0.06784 0.46596 0.0
H817 H 0.40142 0.03599 0.47018 0.0
C818 C 0.44332 0.04209 0.5098 0.0
C819 C 0.46456 0.04819 0.53142 0.0
C820 C 0.42192 0.05994 0.50755 0.0
C821 C 0.46337 0.072 0.55123 0.0
C822 C 0.44195 0.08966 0.54928 0.0
C823 C 0.40037 0.10223 0.52486 0.0
C824 C 0.37995 0.09681 0.50268 0.0
C825 C 0.42134 0.08402 0.52738 0.0
C826 C 0.38062 0.07265 0.48317 0.0
C827 C 0.40135 0.05437 0.4856 0.0
H828 H 0.65045 0.52513 0.56737 0.0
H829 H 0.58653 0.45539 0.58091 0.0
H830 H 0.61836 0.42174 0.56165 0.0
H831 H 0.66539 0.41213 0.54237 0.0
H832 H 0.72749 0.48219 0.52672 0.0
H833 H 0.69485 0.51546 0.54463 0.0
C834 C 0.643 0.50259 0.56562 0.0
C835 C 0.61605 0.49302 0.57588 0.0
C836 C 0.66114 0.48327 0.55406 0.0
C837 C 0.60736 0.46358 0.57377 0.0
C838 C 0.62549 0.44423 0.56256 0.0
C839 C 0.67166 0.43466 0.54269 0.0
C840 C 0.699 0.44458 0.53335 0.0
C841 C 0.65263 0.45384 0.55294 0.0
C842 C 0.70663 0.47386 0.53375 0.0
C843 C 0.688 0.49299 0.54409 0.0
H844 H 0.76495 0.2699 0.36913 0.0
H845 H 0.75302 0.19174 0.40028 0.0
H846 H 0.7432 0.21772 0.44361 0.0
H847 H 0.7396 0.26299 0.47314 0.0
H848 H 0.75022 0.34064 0.44105 0.0
H849 H 0.75809 0.3143 0.39751 0.0
C850 C 0.75962 0.25834 0.38517 0.0
C851 C 0.75984 0.22881 0.38129 0.0
C852 C 0.75368 0.27335 0.40996 0.0
C853 C 0.7535 0.21449 0.40268 0.0
C854 C 0.74768 0.22933 0.42747 0.0
C855 C 0.74337 0.27413 0.45658 0.0
C856 C 0.74445 0.30384 0.46053 0.0
C857 C 0.74801 0.25883 0.43144 0.0
C858 C 0.74931 0.31784 0.43874 0.0
C859 C 0.75391 0.30279 0.41376 0.0
H860 H 0.4895 0.01488 0.84543 0.0
H861 H 0.53923 0.07486 0.90893 0.0
H862 H 0.58389 0.07288 0.88415 0.0
H863 H 0.60824 0.05562 0.84334 0.0
H864 H 0.55725 0.99648 0.77977 0.0
H865 H 0.51367 0.99701 0.80555 0.0
C866 C 0.51005 0.0277 0.85383 0.0
C867 C 0.51088 0.04523 0.87891 0.0
C868 C 0.53544 0.02674 0.83936 0.0
C869 C 0.53794 0.06109 0.88974 0.0
C870 C 0.56345 0.0601 0.87548 0.0
C871 C 0.58762 0.04278 0.83516 0.0
C872 C 0.58612 0.02613 0.80953 0.0
C873 C 0.56239 0.04323 0.85011 0.0
C874 C 0.55917 0.00958 0.79934 0.0
C875 C 0.53415 0.00984 0.81409 0.0
H876 H 0.29327 0.24887 0.35108 0.0
H877 H 0.38602 0.24157 0.3536 0.0
H878 H 0.37853 0.20979 0.38602 0.0
H879 H 0.34583 0.18544 0.41507 0.0
H880 H 0.25315 0.19346 0.41247 0.0
H881 H 0.26055 0.22375 0.37904 0.0
C882 C 0.31189 0.24039 0.35877 0.0
C883 C 0.34018 0.24772 0.34993 0.0
C884 C 0.30748 0.22235 0.37759 0.0
C885 C 0.36394 0.2361 0.3598 0.0
C886 C 0.35971 0.21808 0.37852 0.0
C887 C 0.32724 0.19378 0.40716 0.0
C888 C 0.29898 0.1872 0.41645 0.0
C889 C 0.33161 0.21125 0.38776 0.0
C890 C 0.27516 0.19812 0.40581 0.0
C891 C 0.27935 0.2155 0.38664 0.0
H892 H 0.53529 0.44151 0.89983 0.0
H893 H 0.54137 0.52914 0.93763 0.0
H894 H 0.50547 0.53714 0.90415 0.0
H895 H 0.47386 0.51961 0.86286 0.0
H896 H 0.4678 0.4316 0.82596 0.0
H897 H 0.50174 0.42341 0.86058 0.0
C898 C 0.52833 0.46224 0.90116 0.0
C899 C 0.54109 0.48467 0.92128 0.0
C900 C 0.50773 0.4667 0.88185 0.0
C901 C 0.53217 0.51153 0.92222 0.0
C902 C 0.51158 0.51612 0.9031 0.0
C903 C 0.47985 0.49862 0.86248 0.0
C904 C 0.46835 0.47634 0.84167 0.0
C905 C 0.49952 0.49395 0.88257 0.0
C906 C 0.4763 0.44922 0.84161 0.0
C907 C 0.49577 0.44446 0.86144 0.0
H908 H 0.81356 0.75802 0.13119 0.0
H909 H 0.72157 0.72675 0.1359 0.0
H910 H 0.72011 0.69903 0.09099 0.0
H911 H 0.74578 0.68144 0.05165 0.0
H912 H 0.83868 0.71024 0.04804 0.0
H913 H 0.83902 0.7413 0.09113 0.0
C914 C 0.79315 0.74544 0.12213 0.0
C915 C 0.76767 0.74441 0.13663 0.0
C916 C 0.79271 0.729 0.09662 0.0
C917 C 0.74142 0.72774 0.125 0.0
C918 C 0.7406 0.71191 0.09939 0.0
C919 C 0.76604 0.69474 0.06014 0.0
C920 C 0.79216 0.69351 0.04666 0.0
C921 C 0.76623 0.71203 0.08519 0.0
C922 C 0.81829 0.7107 0.05807 0.0
C923 C 0.81851 0.72847 0.0827 0.0
H924 H 0.02682 0.98239 0.13141 0.0
H925 H 0.05466 0.06892 0.17028 0.0
H926 H 0.02308 0.06177 0.20661 0.0
H927 H 0.98621 0.03165 0.22673 0.0
H928 H 0.95845 0.9448 0.18865 0.0
H929 H 0.99126 0.95132 0.15287 0.0
C930 C 0.02617 0.99951 0.148 0.0
C931 C 0.04275 0.02623 0.14793 0.0
C932 C 0.0078 0.99529 0.16894 0.0
C933 C 0.04168 0.04828 0.16959 0.0
C934 C 0.02368 0.04422 0.19043 0.0
C935 C 0.9873 0.01413 0.21061 0.0
C936 C 0.96971 0.98786 0.21034 0.0
C937 C 1.00632 0.01796 0.19014 0.0
C938 C 0.97168 0.96531 0.18938 0.0
C939 C 0.99046 0.969 0.16887 0.0
H940 H 0.32018 0.84005 0.19083 0.0
H941 H 0.2576 0.76387 0.18646 0.0
H942 H 0.23923 0.76903 0.14224 0.0
H943 H 0.23931 0.79665 0.10578 0.0
H944 H 0.3012 0.87362 0.11136 0.0
H945 H 0.32109 0.86687 0.15431 0.0
C946 C 0.30238 0.82463 0.18031 0.0
C947 C 0.29011 0.80176 0.19212 0.0
C948 C 0.29164 0.82799 0.15515 0.0
C949 C 0.26759 0.7816 0.17783 0.0
C950 C 0.25692 0.78466 0.15261 0.0
C951 C 0.25721 0.81191 0.11634 0.0
C952 C 0.26858 0.83571 0.10535 0.0
C953 C 0.26853 0.80799 0.14121 0.0
C954 C 0.29187 0.85519 0.11933 0.0
C955 C 0.30331 0.85135 0.14393 0.0
H956 H 0.06379 0.48496 0.08052 0.0
H957 H 0.04415 0.57077 0.09986 0.0
H958 H 0.06191 0.57341 0.1457 0.0
H959 H 0.086 0.55291 0.17975 0.0
H960 H 0.10985 0.46888 0.16006 0.0
H961 H 0.08818 0.46439 0.11477 0.0
C962 C 0.06355 0.50438 0.09463 0.0
C963 C 0.05247 0.5276 0.08641 0.0
C964 C 0.07491 0.50624 0.12092 0.0
C965 C 0.05186 0.55226 0.10541 0.0
C966 C 0.0624 0.55397 0.13169 0.0
C967 C 0.08633 0.5335 0.16564 0.0
C968 C 0.09955 0.51126 0.17332 0.0
C969 C 0.07434 0.53128 0.13957 0.0
C970 C 0.09991 0.48637 0.15467 0.0
C971 C 0.08749 0.48378 0.12877 0.0
H972 H 0.35897 0.70501 0.33368 0.0
H973 H 0.40716 0.73386 0.2701 0.0
H974 H 0.45386 0.73407 0.29487 0.0
H975 H 0.48089 0.72776 0.33523 0.0
H976 H 0.4328 0.70124 0.39993 0.0
H977 H 0.38618 0.69807 0.374 0.0
C978 C 0.37974 0.71106 0.32519 0.0
C979 C 0.37967 0.71941 0.30012 0.0
C980 C 0.40648 0.71154 0.33974 0.0
C981 C 0.40669 0.72757 0.28946 0.0
C982 C 0.43337 0.7276 0.30357 0.0
C983 C 0.46024 0.72098 0.34357 0.0
C984 C 0.46033 0.71465 0.36946 0.0
C985 C 0.43352 0.71986 0.32881 0.0
C986 C 0.43334 0.70626 0.38006 0.0
C987 C 0.40667 0.70447 0.36526 0.0
H988 H 0.12138 0.42112 0.95142 0.0
H989 H 0.02779 0.42234 0.95631 0.0
H990 H 0.01833 0.37096 0.94167 0.0
H991 H 0.03652 0.32588 0.92638 0.0
H992 H 0.13018 0.32457 0.92169 0.0
H993 H 0.13968 0.3758 0.93711 0.0
C994 C 0.09892 0.41012 0.94919 0.0
C995 C 0.07533 0.42552 0.95491 0.0
C996 C 0.09363 0.38059 0.94069 0.0
C997 C 0.04636 0.41094 0.95231 0.0
C998 C 0.04092 0.38159 0.94377 0.0
C999 C 0.05902 0.33678 0.92872 0.0
C1000 C 0.08259 0.3214 0.92277 0.0
C1001 C 0.06436 0.36623 0.93775 0.0
C1002 C 0.11162 0.33587 0.92612 0.0
C1003 C 0.11709 0.36518 0.93492 0.0
H1004 H 0.67367 0.73492 0.25706 0.0
H1005 H 0.7314 0.72711 0.32312 0.0
H1006 H 0.69073 0.72975 0.35262 0.0
H1007 H 0.63849 0.73265 0.35932 0.0
H1008 H 0.58053 0.74027 0.29325 0.0
H1009 H 0.62162 0.73953 0.26416 0.0
C1010 C 0.67742 0.73423 0.27799 0.0
C1011 C 0.70547 0.73075 0.28787 0.0
C1012 C 0.65387 0.73554 0.29481 0.0
C1013 C 0.70992 0.72948 0.31498 0.0
C1014 C 0.6867 0.73104 0.33186 0.0
C1015 C 0.63481 0.7342 0.33857 0.0
C1016 C 0.6064 0.73637 0.32849 0.0
C1017 C 0.65851 0.73371 0.32192 0.0
C1018 C 0.60213 0.73849 0.30156 0.0
C1019 C 0.62562 0.73809 0.28488 0.0
H1020 H 0.09564 0.17058 0.03565 0.0
H1021 H 0.03118 0.09498 0.01869 0.0
H1022 H 0.01687 0.10742 0.97605 0.0
H1023 H 0.02032 0.14178 0.94498 0.0
H1024 H 0.08281 0.21878 0.96446 0.0
H1025 H 0.09958 0.2041 1.00494 0.0
C1026 C 0.07831 0.15684 0.02275 0.0
C1027 C 0.06432 0.13204 0.03061 0.0
C1028 C 0.06952 0.16459 0.99878 0.0
C1029 C 0.04253 0.1141 0.01316 0.0
C1030 C 0.03411 0.12137 0.98886 0.0
C1031 C 0.03765 0.15528 0.95806 0.0
C1032 C 0.05009 0.18146 0.95169 0.0
C1033 C 0.04707 0.14686 0.98168 0.0
C1034 C 0.07258 0.19867 0.96889 0.0
C1035 C 0.08232 0.19026 0.99206 0.0
H1036 H 0.36685 0.29809 0.24396 0.0
H1037 H 0.42273 0.26511 0.29733 0.0
H1038 H 0.45936 0.26074 0.264 0.0
H1039 H 0.47605 0.26685 0.21982 0.0
H1040 H 0.42059 0.30086 0.1669 0.0
H1041 H 0.38376 0.30473 0.20007 0.0
C1042 C 0.38712 0.29013 0.24842 0.0
C1043 C 0.39181 0.28183 0.27318 0.0
C1044 C 0.40838 0.28801 0.22925 0.0
C1045 C 0.41813 0.27119 0.27834 0.0
C1046 C 0.43929 0.26891 0.25934 0.0
C1047 C 0.45595 0.27519 0.21555 0.0
C1048 C 0.45122 0.28358 0.19084 0.0
C1049 C 0.4347 0.27732 0.23474 0.0
C1050 C 0.42495 0.29426 0.18571 0.0
C1051 C 0.40377 0.29645 0.20468 0.0
H1052 H 0.53348 0.3405 0.99604 0.0
H1053 H 0.59444 0.40247 0.04904 0.0
H1054 H 0.57918 0.37954 0.08674 0.0
H1055 H 0.55145 0.33899 0.10362 0.0
H1056 H 0.4898 0.27801 0.04975 0.0
H1057 H 0.50221 0.30344 0.01357 0.0
C1058 C 0.54302 0.34921 0.01596 0.0
C1059 C 0.56508 0.37298 0.01986 0.0
C1060 C 0.53422 0.33589 0.03734 0.0
C1061 C 0.57728 0.38425 0.04568 0.0
C1062 C 0.56871 0.371 0.06715 0.0
C1063 C 0.54053 0.33146 0.08403 0.0
C1064 C 0.51997 0.30636 0.07944 0.0
C1065 C 0.54768 0.34636 0.0631 0.0
C1066 C 0.50582 0.29711 0.05395 0.0
C1067 C 0.51292 0.31163 0.03314 0.0
H1068 H 0.7004 0.22809 0.20229 0.0
H1069 H 0.68405 0.25386 0.2849 0.0
H1070 H 0.63502 0.26324 0.27196 0.0
H1071 H 0.59716 0.26538 0.23701 0.0
H1072 H 0.61536 0.24206 0.1545 0.0
H1073 H 0.66356 0.23131 0.16767 0.0
C1074 C 0.68637 0.23612 0.21756 0.0
C1075 C 0.69619 0.24033 0.24458 0.0
C1076 C 0.65851 0.24217 0.20998 0.0
C1077 C 0.67712 0.25002 0.26397 0.0
C1078 C 0.64911 0.25566 0.25657 0.0
C1079 C 0.61168 0.25798 0.22191 0.0
C1080 C 0.60254 0.25458 0.19478 0.0
C1081 C 0.63962 0.25197 0.22961 0.0
C1082 C 0.62175 0.24502 0.17551 0.0
C1083 C 0.64934 0.23875 0.18302 0.0
H1084 H 0.4313 0.0953 0.0489 0.0
H1085 H 0.51411 0.10797 0.01193 0.0
H1086 H 0.52968 0.1514 0.04436 0.0
H1087 H 0.51967 0.18572 0.0833 0.0
H1088 H 0.43711 0.17183 0.12057 0.0
H1089 H 0.42187 0.12858 0.0882 0.0
C1090 C 0.45299 0.10724 0.04814 0.0
C1091 C 0.47158 0.09818 0.02806 0.0
C1092 C 0.46187 0.13198 0.06694 0.0
C1093 C 0.49926 0.11449 0.02702 0.0
C1094 C 0.50823 0.13927 0.04565 0.0
C1095 C 0.49836 0.17321 0.08439 0.0
C1096 C 0.47957 0.1821 0.10439 0.0
C1097 C 0.48969 0.14823 0.06569 0.0
C1098 C 0.45206 0.16556 0.10547 0.0
C1099 C 0.44328 0.1408 0.08692 0.0
H1100 H 0.34345 0.33793 0.68898 0.0
H1101 H 0.27194 0.35409 0.73931 0.0
H1102 H 0.29949 0.40033 0.75955 0.0
H1103 H 0.34436 0.43619 0.7629 0.0
H1104 H 0.41475 0.41899 0.71127 0.0
H1105 H 0.38687 0.37347 0.69134 0.0
C1106 C 0.33356 0.35171 0.70404 0.0
C1107 C 0.30552 0.34261 0.71239 0.0
C1108 C 0.34937 0.37818 0.71541 0.0
C1109 C 0.29355 0.3605 0.73255 0.0
C1110 C 0.30925 0.38699 0.74407 0.0
C1111 C 0.35351 0.4225 0.74725 0.0
C1112 C 0.38168 0.43111 0.73869 0.0
C1113 C 0.33726 0.39606 0.73568 0.0
C1114 C 0.39319 0.41304 0.71835 0.0
C1115 C 0.37727 0.38691 0.70688 0.0
H1116 H 0.3213 0.6599 0.81115 0.0
H1117 H 0.27279 0.63039 0.87431 0.0
H1118 H 0.29994 0.58982 0.87121 0.0
H1119 H 0.33627 0.56173 0.84926 0.0
H1120 H 0.38368 0.59144 0.78546 0.0
H1121 H 0.35784 0.63261 0.78991 0.0
C1122 C 0.31646 0.6445 0.82413 0.0
C1123 C 0.2948 0.6481 0.84278 0.0
C1124 C 0.33189 0.62112 0.82203 0.0
C1125 C 0.28943 0.62827 0.85988 0.0
C1126 C 0.30483 0.60495 0.85799 0.0
C1127 C 0.34101 0.57724 0.83637 0.0
C1128 C 0.36188 0.5733 0.81696 0.0
C1129 C 0.32594 0.60101 0.83897 0.0
C1130 C 0.36773 0.59374 0.80051 0.0
C1131 C 0.35295 0.61737 0.80303 0.0
H1132 H 0.91989 0.50347 0.52834 0.0
H1133 H 0.87156 0.50359 0.45424 0.0
H1134 H 0.83348 0.46726 0.46422 0.0
H1135 H 0.81298 0.43647 0.49429 0.0
H1136 H 0.85948 0.43741 0.56945 0.0
H1137 H 0.89892 0.47259 0.55887 0.0
C1138 C 0.90095 0.49567 0.51444 0.0
C1139 C 0.89886 0.50619 0.49044 0.0
C1140 C 0.87869 0.47505 0.52052 0.0
C1141 C 0.87422 0.49555 0.47257 0.0
C1142 C 0.85222 0.4749 0.47836 0.0
C1143 C 0.83178 0.44422 0.50836 0.0
C1144 C 0.83325 0.43425 0.53263 0.0
C1145 C 0.85417 0.46459 0.50229 0.0
C1146 C 0.85774 0.44473 0.55064 0.0
C1147 C 0.88032 0.46485 0.5446 0.0
H1148 H 0.78641 0.93218 0.81539 0.0
H1149 H 0.72822 0.85442 0.78595 0.0
H1150 H 0.69519 0.88073 0.76417 0.0
H1151 H 0.6803 0.92707 0.75787 0.0
H1152 H 0.73868 1.00426 0.79004 0.0
H1153 H 0.7739 0.97708 0.80641 0.0
C1154 C 0.76662 0.92094 0.80399 0.0
C1155 C 0.75958 0.89149 0.80256 0.0
C1156 C 0.74749 0.93623 0.79228 0.0
C1157 C 0.73416 0.87711 0.78731 0.0
C1158 C 0.71514 0.89221 0.77507 0.0
C1159 C 0.70091 0.93782 0.76816 0.0
C1160 C 0.70661 0.96771 0.77301 0.0
C1161 C 0.72115 0.92195 0.77806 0.0
C1162 C 0.73345 0.98134 0.78637 0.0
C1163 C 0.75372 0.96581 0.79571 0.0
H1164 H 0.65466 0.51156 1.00287 0.0
H1165 H 0.64048 0.52405 0.92199 0.0
H1166 H 0.68674 0.55643 0.92601 0.0
H1167 H 0.73186 0.58062 0.95211 0.0
H1168 H 0.74681 0.56711 0.03257 0.0
H1169 H 0.69997 0.53554 0.0289 0.0
C1170 C 0.66176 0.52125 0.98607 0.0
C1171 C 0.64389 0.51547 0.96226 0.0
C1172 C 0.68868 0.53962 0.98836 0.0
C1173 C 0.65338 0.52848 0.94078 0.0
C1174 C 0.68002 0.54686 0.94296 0.0
C1175 C 0.72489 0.57078 0.96885 0.0
C1176 C 0.74293 0.57625 0.99255 0.0
C1177 C 0.6979 0.55254 0.96662 0.0
C1178 C 0.73347 0.56329 0.01404 0.0
C1179 C 0.70663 0.54521 0.01199 0.0
H1180 H 0.2703 0.67032 0.22296 0.0
H1181 H 0.28029 0.67046 0.30718 0.0
H1182 H 0.24311 0.62826 0.30262 0.0
H1183 H 0.20962 0.58994 0.27437 0.0
H1184 H 0.20135 0.58839 0.18975 0.0
H1185 H 0.23567 0.63257 0.19479 0.0
C1186 C 0.26403 0.66124 0.24031 0.0
C1187 C 0.27803 0.67336 0.26533 0.0
C1188 C 0.24301 0.63668 0.23746 0.0
C1189 C 0.26999 0.66128 0.28766 0.0
C1190 C 0.2487 0.63722 0.28508 0.0
C1191 C 0.21508 0.59943 0.25707 0.0
C1192 C 0.20297 0.58586 0.23173 0.0
C1193 C 0.23534 0.62452 0.26003 0.0
C1194 C 0.21047 0.59832 0.20948 0.0
C1195 C 0.23011 0.6236 0.21233 0.0
H1196 H 0.95773 0.54108 0.036 0.0
H1197 H 0.02345 0.58632 0.9945 0.0
H1198 H 0.98693 0.61384 0.98002 0.0
H1199 H 0.93616 0.62449 0.97845 0.0
H1200 H 0.8697 0.57807 0.01848 0.0
H1201 H 0.90652 0.5516 0.03414 0.0
C1202 C 0.964 0.55714 0.02398 0.0
C1203 C 0.99318 0.56174 0.01634 0.0
C1204 C 0.94272 0.57256 0.01532 0.0
C1205 C 1.00104 0.58235 1.00049 0.0
C1206 C 0.9802 0.59809 0.99223 0.0
C1207 C 0.9297 0.60861 0.99062 0.0
C1208 C 0.90019 0.60333 0.99726 0.0
C1209 C 0.95093 0.59326 0.99937 0.0
C1210 C 0.89223 0.58254 0.01296 0.0
C1211 C 0.9133 0.56741 0.02201 0.0
H1212 H 0.0962 0.96443 0.0796 0.0
H1213 H 0.15613 0.04311 0.09047 0.0
H1214 H 0.19698 0.01728 0.07802 0.0
H1215 H 0.21615 0.97263 0.06504 0.0
H1216 H 0.15715 0.89339 0.05331 0.0
H1217 H 0.11558 0.91908 0.06508 0.0
C1218 C 0.11822 0.97585 0.07921 0.0
C1219 C 0.123 1.00571 0.08579 0.0
C1220 C 0.14181 0.96078 0.07194 0.0
C1221 C 0.15166 0.02021 0.08507 0.0
C1222 C 0.17513 1.00544 0.07812 0.0
C1223 C 0.19422 0.96089 0.06501 0.0
C1224 C 0.18986 0.93108 0.05843 0.0
C1225 C 0.1705 0.97576 0.07162 0.0
C1226 C 0.16117 0.91633 0.05828 0.0
C1227 C 0.13739 0.93102 0.06508 0.0
loop_
_geom_bond_atom_site_label_1
_geom_bond_atom_site_label_2
_geom_bond_distance
_geom_bond_site_symmetry_2
_ccdc_geom_bond_type
H0 C1 0.949 . S
C1 H0 0.949 . S
C1 C2 1.395 . S
C1 C3 1.391 . S
C2 C1 1.395 . S
C2 C5 1.390 . S
C3 C1 1.391 . S
C3 C7 1.387 . S
C3 C8 1.491 . S
H4 C5 0.950 1_565 S
C5 C2 1.390 . S
C5 H4 0.950 1_545 S
C5 C6 1.378 . S
C6 C5 1.378 . S
C6 C7 1.409 . S
C7 C3 1.387 . S
C7 C6 1.409 . S
C7 H9 0.951 . S
C8 C3 1.491 . S
C8 C10 1.382 . S
C8 C12 1.404 . S
H9 C7 0.951 . S
C10 C8 1.382 . S
C10 C11 1.411 . S
C10 H15 0.949 . S
C11 C10 1.411 . S
C11 C16 1.413 . S
C12 C8 1.404 . S
C12 H13 0.950 . S
C12 C14 1.375 . S
H13 C12 0.950 . S
C14 C12 1.375 . S
C14 C16 1.382 . S
C14 H18 0.950 . S
H15 C10 0.949 . S
C16 C11 1.413 . S
C16 C14 1.382 . S
C16 H17 0.952 . S
H17 C16 0.952 . S
H18 C14 0.950 . S
H19 C20 0.949 . S
C20 H19 0.949 . S
C20 C21 1.395 . S
C20 C22 1.391 . S
C21 C20 1.395 . S
C21 C24 1.390 . S
C22 C20 1.391 . S
C22 C26 1.387 . S
C22 C27 1.491 . S
H23 C24 0.950 . S
C24 C21 1.390 . S
C24 H23 0.950 . S
C24 C25 1.378 . S
C25 C24 1.378 . S
C25 C26 1.409 . S
C26 C22 1.387 . S
C26 C25 1.409 . S
C26 H28 0.951 . S
C27 C22 1.491 . S
C27 C29 1.382 . S
C27 C31 1.404 . S
H28 C26 0.951 . S
C29 C27 1.382 . S
C29 C30 1.390 . S
C29 H34 0.949 . S
C30 C29 1.390 . S
C30 C35 1.399 . S
C31 C27 1.404 . S
C31 H32 0.950 . S
C31 C33 1.375 . S
H32 C31 0.950 . S
C33 C31 1.375 . S
C33 C35 1.382 . S
C33 H37 0.950 . S
H34 C29 0.949 . S
C35 C30 1.399 . S
C35 C33 1.382 . S
C35 H36 0.952 . S
H36 C35 0.952 . S
H37 C33 0.950 . S
H38 C39 0.949 . S
C39 H38 0.949 . S
C39 C40 1.395 . S
C39 C41 1.391 1_455 S
C40 C39 1.395 . S
C40 C43 1.390 1_455 S
C41 C39 1.391 1_655 S
C41 C45 1.387 . S
C41 C46 1.487 1_654 S
H42 C43 0.950 . S
C43 C40 1.390 1_655 S
C43 H42 0.950 . S
C43 C44 1.378 . S
C44 C43 1.378 . S
C44 C45 1.409 . S
C45 C41 1.387 . S
C45 C44 1.409 . S
C45 H47 0.951 1_554 S
C46 C41 1.487 1_456 S
C46 C48 1.386 . S
C46 C50 1.404 . S
H47 C45 0.951 1_556 S
C48 C46 1.386 . S
C48 C49 1.390 . S
C48 H53 0.949 1_556 S
C49 C48 1.390 . S
C49 C54 1.399 . S
C50 C46 1.404 . S
C50 H51 0.949 . S
C50 C52 1.375 . S
H51 C50 0.949 . S
C52 C50 1.375 . S
C52 C54 1.382 . S
C52 H56 0.950 . S
H53 C48 0.949 1_554 S
C54 C49 1.399 . S
C54 C52 1.382 . S
C54 H55 0.952 . S
H55 C54 0.952 . S
H56 C52 0.950 . S
H57 C58 0.949 . S
C58 H57 0.949 . S
C58 C59 1.395 . S
C58 C60 1.391 . S
C59 C58 1.395 . S
C59 C62 1.390 . S
C60 C58 1.391 . S
C60 C64 1.387 . S
C60 C65 1.491 . S
H61 C62 0.950 . S
C62 C59 1.390 . S
C62 H61 0.950 . S
C62 C63 1.378 . S
C63 C62 1.378 . S
C63 C64 1.409 . S
C64 C60 1.387 . S
C64 C63 1.409 . S
C64 H66 0.951 . S
C65 C60 1.491 . S
C65 C67 1.382 . S
C65 C69 1.404 . S
H66 C64 0.951 . S
C67 C65 1.382 . S
C67 C68 1.390 . S
C67 H72 0.949 . S
C68 C67 1.390 . S
C68 C73 1.399 . S
C69 C65 1.404 . S
C69 H70 0.950 . S
C69 C71 1.375 . S
H70 C69 0.950 . S
C71 C69 1.375 . S
C71 C73 1.382 . S
C71 H75 0.950 . S
H72 C67 0.949 . S
C73 C68 1.399 . S
C73 C71 1.382 . S
C73 H74 0.952 . S
H74 C73 0.952 . S
H75 C71 0.950 . S
H76 C77 0.949 . S
C77 H76 0.949 . S
C77 C78 1.395 . S
C77 C79 1.391 . S
C78 C77 1.395 . S
C78 C81 1.390 1_565 S
C79 C77 1.391 . S
C79 C83 1.387 . S
C79 C84 1.491 . S
H80 C81 0.950 . S
C81 C78 1.390 1_545 S
C81 H80 0.950 . S
C81 C82 1.378 1_545 S
C82 C81 1.378 1_565 S
C82 C83 1.409 . S
C83 C79 1.387 . S
C83 C82 1.409 . S
C83 H85 0.951 . S
C84 C79 1.491 . S
C84 C86 1.382 . S
C84 C88 1.404 . S
H85 C83 0.951 . S
C86 C84 1.382 . S
C86 C87 1.390 . S
C86 H91 0.949 . S
C87 C86 1.390 . S
C87 C92 1.399 . S
C88 C84 1.404 . S
C88 H89 0.950 . S
C88 C90 1.375 . S
H89 C88 0.950 . S
C90 C88 1.375 . S
C90 C92 1.382 . S
C90 H94 0.950 . S
H91 C86 0.949 . S
C92 C87 1.399 . S
C92 C90 1.382 . S
C92 H93 0.952 . S
H93 C92 0.952 . S
H94 C90 0.950 . S
H95 C96 0.949 . S
C96 H95 0.949 . S
C96 C97 1.395 . S
C96 C98 1.391 . S
C97 C96 1.395 . S
C97 C100 1.390 . S
C98 C96 1.391 . S
C98 C102 1.387 . S
C98 C103 1.491 . S
H99 C100 0.950 . S
C100 C97 1.390 . S
C100 H99 0.950 . S
C100 C101 1.378 . S
C101 C100 1.378 . S
C101 C102 1.409 . S
C102 C98 1.387 . S
C102 C101 1.409 . S
C102 H104 0.951 . S
C103 C98 1.491 . S
C103 C105 1.382 . S
C103 C107 1.404 . S
H104 C102 0.951 . S
C105 C103 1.382 . S
C105 C106 1.390 . S
C105 H110 0.949 . S
C106 C105 1.390 . S
C106 C111 1.399 . S
C107 C103 1.404 . S
C107 H108 0.950 . S
C107 C109 1.375 . S
H108 C107 0.950 . S
C109 C107 1.375 . S
C109 C111 1.382 . S
C109 H113 0.950 . S
H110 C105 0.949 . S
C111 C106 1.399 . S
C111 C109 1.382 . S
C111 H112 0.952 . S
H112 C111 0.952 . S
H113 C109 0.950 . S
H114 C115 0.949 . S
C115 H114 0.949 . S
C115 C116 1.395 . S
C115 C117 1.391 . S
C116 C115 1.395 . S
C116 C119 1.390 . S
C117 C115 1.391 . S
C117 C121 1.387 . S
C117 C122 1.491 . S
H118 C119 0.950 . S
C119 C116 1.390 . S
C119 H118 0.950 . S
C119 C120 1.378 . S
C120 C119 1.378 . S
C120 C121 1.409 . S
C121 C117 1.387 . S
C121 C120 1.409 . S
C121 H123 0.951 . S
C122 C117 1.491 . S
C122 C124 1.382 1_655 S
C122 C126 1.404 . S
H123 C121 0.951 . S
C124 C122 1.382 1_455 S
C124 C125 1.390 . S
C124 H129 0.949 . S
C125 C124 1.390 . S
C125 C130 1.399 1_455 S
C126 C122 1.404 . S
C126 H127 0.950 . S
C126 C128 1.375 . S
H127 C126 0.950 . S
C128 C126 1.375 . S
C128 C130 1.382 . S
C128 H132 0.950 . S
H129 C124 0.949 . S
C130 C125 1.399 1_655 S
C130 C128 1.382 . S
C130 H131 0.952 . S
H131 C130 0.952 . S
H132 C128 0.950 . S
H133 C134 0.949 . S
C134 H133 0.949 . S
C134 C135 1.395 . S
C134 C136 1.391 . S
C135 C134 1.395 . S
C135 C138 1.390 . S
C136 C134 1.391 . S
C136 C140 1.387 . S
C136 C141 1.491 . S
H137 C138 0.950 . S
C138 C135 1.390 . S
C138 H137 0.950 . S
C138 C139 1.378 . S
C139 C138 1.378 . S
C139 C140 1.409 . S
C140 C136 1.387 . S
C140 C139 1.409 . S
C140 H142 0.951 . S
C141 C136 1.491 . S
C141 C143 1.382 . S
C141 C145 1.404 . S
H142 C140 0.951 . S
C143 C141 1.382 . S
C143 C144 1.390 . S
C143 H148 0.949 . S
C144 C143 1.390 . S
C144 C149 1.399 . S
C145 C141 1.404 . S
C145 H146 0.950 . S
C145 C147 1.375 . S
H146 C145 0.950 . S
C147 C145 1.375 . S
C147 C149 1.382 . S
C147 H151 0.950 . S
H148 C143 0.949 . S
C149 C144 1.399 . S
C149 C147 1.382 . S
C149 H150 0.952 . S
H150 C149 0.952 . S
H151 C147 0.950 . S
H152 C153 0.949 . S
C153 H152 0.949 . S
C153 C154 1.395 . S
C153 C155 1.391 . S
C154 C153 1.395 . S
C154 C157 1.390 . S
C155 C153 1.391 . S
C155 C159 1.387 . S
C155 C160 1.491 . S
H156 C157 0.950 . S
C157 C154 1.390 . S
C157 H156 0.950 . S
C157 C158 1.378 . S
C158 C157 1.378 . S
C158 C159 1.409 . S
C159 C155 1.387 . S
C159 C158 1.409 . S
C159 H161 0.951 . S
C160 C155 1.491 . S
C160 C162 1.382 . S
C160 C164 1.404 . S
H161 C159 0.951 . S
C162 C160 1.382 . S
C162 C163 1.390 . S
C162 H167 0.949 . S
C163 C162 1.390 . S
C163 C168 1.399 . S
C164 C160 1.404 . S
C164 H165 0.950 . S
C164 C166 1.375 . S
H165 C164 0.950 . S
C166 C164 1.375 . S
C166 C168 1.382 . S
C166 H170 0.950 . S
H167 C162 0.949 . S
C168 C163 1.399 . S
C168 C166 1.382 . S
C168 H169 0.952 . S
H169 C168 0.952 . S
H170 C166 0.950 . S
H171 C172 0.949 . S
C172 H171 0.949 . S
C172 C173 1.395 . S
C172 C174 1.391 . S
C173 C172 1.395 . S
C173 C176 1.390 1_565 S
C174 C172 1.391 . S
C174 C178 1.387 . S
C174 C179 1.491 . S
H175 C176 0.950 . S
C176 C173 1.390 1_545 S
C176 H175 0.950 . S
C176 C177 1.378 . S
C177 C176 1.378 . S
C177 C178 1.409 1_545 S
C178 C174 1.387 . S
C178 C177 1.409 1_565 S
C178 H180 0.951 . S
C179 C174 1.491 . S
C179 C181 1.382 . S
C179 C183 1.404 . S
H180 C178 0.951 . S
C181 C179 1.382 . S
C181 C182 1.390 . S
C181 H186 0.949 . S
C182 C181 1.390 . S
C182 C187 1.399 . S
C183 C179 1.404 . S
C183 H184 0.950 . S
C183 C185 1.375 . S
H184 C183 0.950 . S
C185 C183 1.375 . S
C185 C187 1.382 . S
C185 H189 0.950 . S
H186 C181 0.949 . S
C187 C182 1.399 . S
C187 C185 1.382 . S
C187 H188 0.952 . S
H188 C187 0.952 . S
H189 C185 0.950 . S
H190 C191 0.949 . S
C191 H190 0.949 . S
C191 C192 1.395 . S
C191 C193 1.391 . S
C192 C191 1.395 . S
C192 C195 1.390 . S
C193 C191 1.391 . S
C193 C197 1.387 . S
C193 C198 1.491 . S
H194 C195 0.950 . S
C195 C192 1.390 . S
C195 H194 0.950 . S
C195 C196 1.378 . S
C196 C195 1.378 . S
C196 C197 1.409 . S
C197 C193 1.387 . S
C197 C196 1.409 . S
C197 H199 0.951 . S
C198 C193 1.491 . S
C198 C200 1.382 . S
C198 C202 1.404 . S
H199 C197 0.951 . S
C200 C198 1.382 . S
C200 C201 1.390 . S
C200 H205 0.949 . S
C201 C200 1.390 . S
C201 C206 1.399 . S
C202 C198 1.404 . S
C202 H203 0.950 . S
C202 C204 1.375 . S
H203 C202 0.950 . S
C204 C202 1.375 . S
C204 C206 1.382 . S
C204 H208 0.950 . S
H205 C200 0.949 . S
C206 C201 1.399 . S
C206 C204 1.382 . S
C206 H207 0.952 . S
H207 C206 0.952 . S
H208 C204 0.950 . S
H209 C210 0.949 . S
C210 H209 0.949 . S
C210 C211 1.395 . S
C210 C212 1.391 . S
C211 C210 1.395 . S
C211 C214 1.390 . S
C212 C210 1.391 . S
C212 C216 1.387 . S
C212 C217 1.491 . S
H213 C214 0.950 . S
C214 C211 1.390 . S
C214 H213 0.950 . S
C214 C215 1.378 . S
C215 C214 1.378 . S
C215 C216 1.409 . S
C216 C212 1.387 . S
C216 C215 1.409 . S
C216 H218 0.951 . S
C217 C212 1.491 . S
C217 C219 1.382 . S
C217 C221 1.404 . S
H218 C216 0.951 . S
C219 C217 1.382 . S
C219 C220 1.390 . S
C219 H224 0.949 . S
C220 C219 1.390 . S
C220 C225 1.399 . S
C221 C217 1.404 . S
C221 H222 0.950 . S
C221 C223 1.375 . S
H222 C221 0.950 . S
C223 C221 1.375 . S
C223 C225 1.382 . S
C223 H227 0.950 . S
H224 C219 0.949 . S
C225 C220 1.399 . S
C225 C223 1.382 . S
C225 H226 0.952 . S
H226 C225 0.952 . S
H227 C223 0.950 . S
H228 C229 0.949 . S
C229 H228 0.949 . S
C229 C230 1.395 . S
C229 C231 1.391 . S
C230 C229 1.395 . S
C230 C233 1.390 . S
C231 C229 1.391 . S
C231 C235 1.387 . S
C231 C236 1.491 . S
H232 C233 0.950 . S
C233 C230 1.390 . S
C233 H232 0.950 . S
C233 C234 1.378 . S
C234 C233 1.378 . S
C234 C235 1.409 . S
C235 C231 1.387 . S
C235 C234 1.409 . S
C235 H237 0.951 . S
C236 C231 1.491 . S
C236 C238 1.382 . S
C236 C240 1.404 . S
H237 C235 0.951 . S
C238 C236 1.382 . S
C238 C239 1.390 . S
C238 H243 0.949 . S
C239 C238 1.390 . S
C239 C244 1.399 . S
C240 C236 1.404 . S
C240 H241 0.950 . S
C240 C242 1.375 . S
H241 C240 0.950 . S
C242 C240 1.375 . S
C242 C244 1.382 . S
C242 H246 0.950 . S
H243 C238 0.949 . S
C244 C239 1.399 . S
C244 C242 1.382 . S
C244 H245 0.952 . S
H245 C244 0.952 . S
H246 C242 0.950 . S
H247 C248 0.949 1_554 S
C248 H247 0.949 1_556 S
C248 C249 1.395 . S
C248 C250 1.391 . S
C249 C248 1.395 . S
C249 C252 1.390 . S
C250 C248 1.391 . S
C250 C254 1.387 . S
C250 C255 1.491 . S
H251 C252 0.950 . S
C252 C249 1.390 . S
C252 H251 0.950 . S
C252 C253 1.378 . S
C253 C252 1.378 . S
C253 C254 1.409 . S
C254 C250 1.387 . S
C254 C253 1.409 . S
C254 H256 0.951 . S
C255 C250 1.491 . S
C255 C257 1.382 1_556 S
C255 C259 1.404 . S
H256 C254 0.951 . S
C257 C255 1.382 1_554 S
C257 C258 1.390 . S
C257 H262 0.949 . S
C258 C257 1.390 . S
C258 C263 1.399 . S
C259 C255 1.404 . S
C259 H260 0.950 . S
C259 C261 1.375 . S
H260 C259 0.950 . S
C261 C259 1.375 . S
C261 C263 1.382 1_556 S
C261 H265 0.950 . S
H262 C257 0.949 . S
C263 C258 1.399 . S
C263 C261 1.382 1_554 S
C263 H264 0.952 . S
H264 C263 0.952 . S
H265 C261 0.950 . S
H266 C267 0.949 . S
C267 H266 0.949 . S
C267 C268 1.395 . S
C267 C269 1.391 . S
C268 C267 1.395 . S
C268 C271 1.390 . S
C269 C267 1.391 . S
C269 C273 1.387 . S
C269 C274 1.491 . S
H270 C271 0.950 . S
C271 C268 1.390 . S
C271 H270 0.950 . S
C271 C272 1.378 . S
C272 C271 1.378 . S
C272 C273 1.409 . S
C273 C269 1.387 . S
C273 C272 1.409 . S
C273 H275 0.951 . S
C274 C269 1.491 . S
C274 C276 1.382 . S
C274 C278 1.404 . S
H275 C273 0.951 . S
C276 C274 1.382 . S
C276 C277 1.390 . S
C276 H281 0.949 . S
C277 C276 1.390 . S
C277 C282 1.399 . S
C278 C274 1.404 . S
C278 H279 0.950 . S
C278 C280 1.375 . S
H279 C278 0.950 . S
C280 C278 1.375 . S
C280 C282 1.382 . S
C280 H284 0.950 . S
H281 C276 0.949 . S
C282 C277 1.399 . S
C282 C280 1.382 . S
C282 H283 0.952 . S
H283 C282 0.952 . S
H284 C280 0.950 . S
H285 C286 0.949 . S
C286 H285 0.949 . S
C286 C287 1.395 . S
C286 C288 1.391 . S
C287 C286 1.395 . S
C287 C290 1.403 . S
C288 C286 1.391 . S
C288 C292 1.387 . S
C288 C293 1.491 . S
H289 C290 0.925 1_554 S
C290 C287 1.403 . S
C290 H289 0.925 1_556 S
C290 C291 1.391 . S
C291 C290 1.391 . S
C291 C292 1.409 . S
C292 C288 1.387 . S
C292 C291 1.409 . S
C292 H294 0.951 . S
C293 C288 1.491 . S
C293 C295 1.382 . S
C293 C297 1.404 . S
H294 C292 0.951 . S
C295 C293 1.382 . S
C295 C296 1.390 . S
C295 H300 0.949 . S
C296 C295 1.390 . S
C296 C301 1.399 . S
C297 C293 1.404 . S
C297 H298 0.950 . S
C297 C299 1.375 . S
H298 C297 0.950 . S
C299 C297 1.375 . S
C299 C301 1.382 . S
C299 H303 0.950 . S
H300 C295 0.949 . S
C301 C296 1.399 . S
C301 C299 1.382 . S
C301 H302 0.952 . S
H302 C301 0.952 . S
H303 C299 0.950 . S
C304 O305 1.160 . S
C304 O311 1.185 . S
O305 C304 1.160 . S
O306 Zn307 1.899 . S
O306 C314 1.284 . S
Zn307 O306 1.899 . S
Zn307 O308 2.032 . S
Zn307 O311 2.086 . S
Zn307 O316 1.977 . S
O308 Zn307 2.032 . S
O308 C312 1.278 . S
C309 O310 1.203 . S
C309 O316 1.267 . S
O310 C309 1.203 . S
O311 C304 1.185 . S
O311 Zn307 2.086 . S
C312 O308 1.278 . S
C312 O313 1.211 . S
O313 C312 1.211 . S
C314 O306 1.284 . S
C314 O315 1.273 . S
O315 C314 1.273 . S
O316 Zn307 1.977 . S
O316 C309 1.267 . S
C317 O318 1.160 . S
C317 O324 1.185 . S
O318 C317 1.160 . S
O319 Zn320 1.899 . S
O319 C327 1.284 . S
Zn320 O319 1.899 . S
Zn320 O321 2.032 . S
Zn320 O324 2.086 . S
Zn320 O329 1.977 . S
O321 Zn320 2.032 . S
O321 C325 1.278 . S
C322 O323 1.203 . S
C322 O329 1.267 . S
O323 C322 1.203 . S
O324 C317 1.185 . S
O324 Zn320 2.086 . S
C325 O321 1.278 . S
C325 O326 1.211 . S
O326 C325 1.211 . S
C327 O319 1.284 . S
C327 O328 1.273 . S
O328 C327 1.273 . S
O329 Zn320 1.977 . S
O329 C322 1.267 . S
C330 O331 1.160 . S
C330 O337 1.185 1_556 S
O331 C330 1.160 . S
O332 Zn333 1.899 1_556 S
O332 C340 1.284 . S
Zn333 O332 1.899 1_554 S
Zn333 O334 2.032 1_554 S
Zn333 O337 2.086 . S
Zn333 O342 1.977 . S
O334 Zn333 2.032 1_556 S
O334 C338 1.278 . S
C335 O336 1.203 . S
C335 O342 1.267 . S
O336 C335 1.203 . S
O337 C330 1.185 1_554 S
O337 Zn333 2.086 . S
C338 O334 1.278 . S
C338 O339 1.211 1_556 S
O339 C338 1.211 1_554 S
C340 O332 1.284 . S
C340 O341 1.273 . S
O341 C340 1.273 . S
O342 Zn333 1.977 . S
O342 C335 1.267 . S
C343 O344 1.160 . S
C343 O350 1.185 . S
O344 C343 1.160 . S
O345 Zn346 1.899 . S
O345 C353 1.284 . S
Zn346 O345 1.899 . S
Zn346 O347 2.032 . S
Zn346 O350 2.086 . S
Zn346 O355 1.977 . S
O347 Zn346 2.032 . S
O347 C351 1.278 1_545 S
C348 O349 1.203 . S
C348 O355 1.267 . S
O349 C348 1.203 . S
O350 C343 1.185 . S
O350 Zn346 2.086 . S
C351 O347 1.278 1_565 S
C351 O352 1.211 . S
O352 C351 1.211 . S
C353 O345 1.284 . S
C353 O354 1.273 1_545 S
O354 C353 1.273 1_565 S
O355 Zn346 1.977 . S
O355 C348 1.267 . S
C356 O357 1.160 . S
C356 O363 1.185 . S
O357 C356 1.160 . S
O358 Zn359 1.899 . S
O358 C366 1.284 . S
Zn359 O358 1.899 . S
Zn359 O360 2.032 . S
Zn359 O363 2.086 . S
Zn359 O368 1.977 . S
O360 Zn359 2.032 . S
O360 C364 1.278 . S
C361 O362 1.203 . S
C361 O368 1.267 . S
O362 C361 1.203 . S
O363 C356 1.185 . S
O363 Zn359 2.086 . S
C364 O360 1.278 . S
C364 O365 1.211 . S
O365 C364 1.211 . S
C366 O358 1.284 . S
C366 O367 1.273 . S
O367 C366 1.273 . S
O368 Zn359 1.977 . S
O368 C361 1.267 . S
C369 O370 1.160 . S
C369 O376 1.185 . S
O370 C369 1.160 . S
O371 Zn372 1.899 . S
O371 C379 1.284 . S
Zn372 O371 1.899 . S
Zn372 O373 2.032 . S
Zn372 O376 2.086 . S
Zn372 O381 1.977 . S
O373 Zn372 2.032 . S
O373 C377 1.278 . S
C374 O375 1.203 . S
C374 O381 1.267 . S
O375 C374 1.203 . S
O376 C369 1.185 . S
O376 Zn372 2.086 . S
C377 O373 1.278 . S
C377 O378 1.211 . S
O378 C377 1.211 . S
C379 O371 1.284 . S
C379 O380 1.273 . S
O380 C379 1.273 . S
O381 Zn372 1.977 . S
O381 C374 1.267 . S
C382 O383 1.160 . S
C382 O389 1.185 . S
O383 C382 1.160 . S
O384 Zn385 1.899 . S
O384 C392 1.284 . S
Zn385 O384 1.899 . S
Zn385 O386 2.032 . S
Zn385 O389 2.086 . S
Zn385 O394 1.977 . S
O386 Zn385 2.032 . S
O386 C390 1.278 . S
C387 O388 1.203 . S
C387 O394 1.267 . S
O388 C387 1.203 . S
O389 C382 1.185 . S
O389 Zn385 2.086 . S
C390 O386 1.278 . S
C390 O391 1.211 . S
O391 C390 1.211 . S
C392 O384 1.284 . S
C392 O393 1.273 . S
O393 C392 1.273 . S
O394 Zn385 1.977 . S
O394 C387 1.267 . S
C395 O396 1.160 . S
C395 O402 1.185 . S
O396 C395 1.160 . S
O397 Zn398 1.899 . S
O397 C405 1.284 . S
Zn398 O397 1.899 . S
Zn398 O399 2.032 . S
Zn398 O402 2.086 1_545 S
Zn398 O407 1.977 1_545 S
O399 Zn398 2.032 . S
O399 C403 1.278 . S
C400 O401 1.203 . S
C400 O407 1.267 1_545 S
O401 C400 1.203 . S
O402 C395 1.185 . S
O402 Zn398 2.086 1_565 S
C403 O399 1.278 . S
C403 O404 1.211 . S
O404 C403 1.211 . S
C405 O397 1.284 . S
C405 O406 1.273 . S
O406 C405 1.273 . S
O407 Zn398 1.977 1_565 S
O407 C400 1.267 1_565 S
C408 O409 1.160 1_455 S
C408 O415 1.185 . S
O409 C408 1.160 1_655 S
O410 Zn411 1.899 1_655 S
O410 C418 1.284 . S
Zn411 O410 1.899 1_455 S
Zn411 O412 2.032 . S
Zn411 O415 2.086 . S
Zn411 O420 1.977 . S
O412 Zn411 2.032 . S
O412 C416 1.278 . S
C413 O414 1.203 . S
C413 O420 1.267 . S
O414 C413 1.203 . S
O415 C408 1.185 . S
O415 Zn411 2.086 . S
C416 O412 1.278 . S
C416 O417 1.211 . S
O417 C416 1.211 . S
C418 O410 1.284 . S
C418 O419 1.273 . S
O419 C418 1.273 . S
O420 Zn411 1.977 . S
O420 C413 1.267 . S
C421 O422 1.160 . S
C421 O428 1.185 . S
O422 C421 1.160 . S
O423 Zn424 1.899 . S
O423 C431 1.284 . S
Zn424 O423 1.899 . S
Zn424 O425 2.032 . S
Zn424 O428 2.086 . S
Zn424 O433 1.977 . S
O425 Zn424 2.032 . S
O425 C429 1.278 . S
C426 O427 1.203 . S
C426 O433 1.267 . S
O427 C426 1.203 . S
O428 C421 1.185 . S
O428 Zn424 2.086 . S
C429 O425 1.278 . S
C429 O430 1.211 . S
O430 C429 1.211 . S
C431 O423 1.284 . S
C431 O432 1.273 . S
O432 C431 1.273 . S
O433 Zn424 1.977 . S
O433 C426 1.267 . S
C434 O435 1.160 1_455 S
C434 O441 1.185 . S
O435 C434 1.160 1_655 S
O436 Zn437 1.899 1_655 S
O436 C444 1.284 . S
Zn437 O436 1.899 1_455 S
Zn437 O438 2.032 1_455 S
Zn437 O441 2.086 . S
Zn437 O446 1.977 . S
O438 Zn437 2.032 1_655 S
O438 C442 1.278 . S
C439 O440 1.203 . S
C439 O446 1.267 . S
O440 C439 1.203 . S
O441 C434 1.185 . S
O441 Zn437 2.086 . S
C442 O438 1.278 . S
C442 O443 1.211 1_655 S
O443 C442 1.211 1_455 S
C444 O436 1.284 . S
C444 O445 1.273 . S
O445 C444 1.273 . S
O446 Zn437 1.977 . S
O446 C439 1.267 . S
C447 O448 1.160 . S
C447 O454 1.185 . S
O448 C447 1.160 . S
O449 Zn450 1.899 . S
O449 C457 1.284 . S
Zn450 O449 1.899 . S
Zn450 O451 2.032 . S
Zn450 O454 2.086 . S
Zn450 O459 1.977 . S
O451 Zn450 2.032 . S
O451 C455 1.278 . S
C452 O453 1.203 . S
C452 O459 1.267 . S
O453 C452 1.203 . S
O454 C447 1.185 . S
O454 Zn450 2.086 . S
C455 O451 1.278 . S
C455 O456 1.211 . S
O456 C455 1.211 . S
C457 O449 1.284 . S
C457 O458 1.273 . S
O458 C457 1.273 . S
O459 Zn450 1.977 . S
O459 C452 1.267 . S
H460 C466 0.930 . S
H461 C469 0.930 . S
H462 C470 0.930 . S
H463 C471 0.930 . S
H464 C474 0.930 . S
H465 C475 0.930 . S
C466 H460 0.930 . S
C466 C467 1.355 . S
C466 C468 1.415 . S
C467 C466 1.355 . S
C467 C469 1.419 . S
C468 C466 1.415 . S
C468 C473 1.425 . S
C468 C475 1.409 . S
C469 H461 0.930 . S
C469 C467 1.419 . S
C469 C470 1.362 . S
C470 H462 0.930 . S
C470 C469 1.362 . S
C470 C473 1.409 . S
C471 H463 0.930 . S
C471 C472 1.355 . S
C471 C473 1.415 . S
C472 C471 1.355 . S
C472 C474 1.419 . S
C473 C468 1.425 . S
C473 C470 1.409 . S
C473 C471 1.415 . S
C474 H464 0.930 . S
C474 C472 1.419 . S
C474 C475 1.362 . S
C475 H465 0.930 . S
C475 C468 1.409 . S
C475 C474 1.362 . S
H476 C482 0.930 . S
H477 C485 0.930 . S
H478 C486 0.930 . S
H479 C487 0.930 . S
H480 C490 0.930 . S
H481 C491 0.930 . S
C482 H476 0.930 . S
C482 C483 1.355 . S
C482 C484 1.415 . S
C483 C482 1.355 . S
C483 C485 1.419 . S
C484 C482 1.415 . S
C484 C489 1.425 . S
C484 C491 1.409 . S
C485 H477 0.930 . S
C485 C483 1.419 . S
C485 C486 1.362 . S
C486 H478 0.930 . S
C486 C485 1.362 . S
C486 C489 1.409 . S
C487 H479 0.930 . S
C487 C488 1.355 . S
C487 C489 1.415 . S
C488 C487 1.355 . S
C488 C490 1.419 . S
C489 C484 1.425 . S
C489 C486 1.409 . S
C489 C487 1.415 . S
C490 H480 0.930 . S
C490 C488 1.419 . S
C490 C491 1.362 . S
C491 H481 0.930 . S
C491 C484 1.409 . S
C491 C490 1.362 . S
H492 C498 0.930 . S
H493 C501 0.930 . S
H494 C502 0.930 . S
H495 C503 0.930 . S
H496 C506 0.930 . S
H497 C507 0.930 . S
C498 H492 0.930 . S
C498 C499 1.355 . S
C498 C500 1.415 . S
C499 C498 1.355 . S
C499 C501 1.419 . S
C500 C498 1.415 . S
C500 C505 1.425 . S
C500 C507 1.409 . S
C501 H493 0.930 . S
C501 C499 1.419 . S
C501 C502 1.362 . S
C502 H494 0.930 . S
C502 C501 1.362 . S
C502 C505 1.409 . S
C503 H495 0.930 . S
C503 C504 1.355 . S
C503 C505 1.415 . S
C504 C503 1.355 . S
C504 C506 1.419 . S
C505 C500 1.425 . S
C505 C502 1.409 . S
C505 C503 1.415 . S
C506 H496 0.930 . S
C506 C504 1.419 . S
C506 C507 1.362 . S
C507 H497 0.930 . S
C507 C500 1.409 . S
C507 C506 1.362 . S
H508 C514 0.930 . S
H509 C517 0.930 . S
H510 C518 0.930 . S
H511 C519 0.930 . S
H512 C522 0.930 1_655 S
H513 C523 0.930 . S
C514 H508 0.930 . S
C514 C515 1.355 . S
C514 C516 1.415 . S
C515 C514 1.355 . S
C515 C517 1.419 1_565 S
C516 C514 1.415 . S
C516 C521 1.425 1_565 S
C516 C523 1.409 . S
C517 H509 0.930 . S
C517 C515 1.419 1_545 S
C517 C518 1.362 . S
C518 H510 0.930 . S
C518 C517 1.362 . S
C518 C521 1.409 . S
C519 H511 0.930 . S
C519 C520 1.355 1_455 S
C519 C521 1.415 . S
C520 C519 1.355 1_655 S
C520 C522 1.419 1_645 S
C521 C516 1.425 1_545 S
C521 C518 1.409 . S
C521 C519 1.415 . S
C522 H512 0.930 1_455 S
C522 C520 1.419 1_465 S
C522 C523 1.362 . S
C523 H513 0.930 . S
C523 C516 1.409 . S
C523 C522 1.362 . S
H524 C530 0.930 . S
H525 C533 0.930 . S
H526 C534 0.930 . S
H527 C535 0.930 . S
H528 C538 0.930 . S
H529 C539 0.930 . S
C530 H524 0.930 . S
C530 C531 1.355 . S
C530 C532 1.415 . S
C531 C530 1.355 . S
C531 C533 1.419 . S
C532 C530 1.415 . S
C532 C537 1.425 . S
C532 C539 1.409 . S
C533 H525 0.930 . S
C533 C531 1.419 . S
C533 C534 1.362 . S
C534 H526 0.930 . S
C534 C533 1.362 . S
C534 C537 1.409 . S
C535 H527 0.930 . S
C535 C536 1.355 . S
C535 C537 1.415 . S
C536 C535 1.355 . S
C536 C538 1.419 . S
C537 C532 1.425 . S
C537 C534 1.409 . S
C537 C535 1.415 . S
C538 H528 0.930 . S
C538 C536 1.419 . S
C538 C539 1.362 . S
C539 H529 0.930 . S
C539 C532 1.409 . S
C539 C538 1.362 . S
H540 C546 0.930 . S
H541 C549 0.930 . S
H542 C550 0.930 . S
H543 C551 0.930 . S
H544 C554 0.930 . S
H545 C555 0.930 . S
C546 H540 0.930 . S
C546 C547 1.355 . S
C546 C548 1.415 . S
C547 C546 1.355 . S
C547 C549 1.419 . S
C548 C546 1.415 . S
C548 C553 1.425 . S
C548 C555 1.409 . S
C549 H541 0.930 . S
C549 C547 1.419 . S
C549 C550 1.362 . S
C550 H542 0.930 . S
C550 C549 1.362 . S
C550 C553 1.409 . S
C551 H543 0.930 . S
C551 C552 1.355 . S
C551 C553 1.415 . S
C552 C551 1.355 . S
C552 C554 1.419 . S
C553 C548 1.425 . S
C553 C550 1.409 . S
C553 C551 1.415 . S
C554 H544 0.930 . S
C554 C552 1.419 . S
C554 C555 1.362 . S
C555 H545 0.930 . S
C555 C548 1.409 . S
C555 C554 1.362 . S
H556 C562 0.930 . S
H557 C565 0.930 . S
H558 C566 0.930 . S
H559 C567 0.930 . S
H560 C570 0.930 . S
H561 C571 0.930 . S
C562 H556 0.930 . S
C562 C563 1.355 . S
C562 C564 1.415 . S
C563 C562 1.355 . S
C563 C565 1.419 . S
C564 C562 1.415 . S
C564 C569 1.425 . S
C564 C571 1.409 . S
C565 H557 0.930 . S
C565 C563 1.419 . S
C565 C566 1.362 . S
C566 H558 0.930 . S
C566 C565 1.362 . S
C566 C569 1.409 . S
C567 H559 0.930 . S
C567 C568 1.355 . S
C567 C569 1.415 . S
C568 C567 1.355 . S
C568 C570 1.419 . S
C569 C564 1.425 . S
C569 C566 1.409 . S
C569 C567 1.415 . S
C570 H560 0.930 . S
C570 C568 1.419 . S
C570 C571 1.362 . S
C571 H561 0.930 . S
C571 C564 1.409 . S
C571 C570 1.362 . S
H572 C578 0.930 . S
H573 C581 0.930 . S
H574 C582 0.930 . S
H575 C583 0.930 . S
H576 C586 0.930 . S
H577 C587 0.930 . S
C578 H572 0.930 . S
C578 C579 1.355 1_545 S
C578 C580 1.415 . S
C579 C578 1.355 1_565 S
C579 C581 1.419 . S
C580 C578 1.415 . S
C580 C585 1.425 1_545 S
C580 C587 1.409 . S
C581 H573 0.930 . S
C581 C579 1.419 . S
C581 C582 1.362 . S
C582 H574 0.930 . S
C582 C581 1.362 . S
C582 C585 1.409 . S
C583 H575 0.930 . S
C583 C584 1.371 . S
C583 C585 1.415 . S
C584 C583 1.371 . S
C584 C586 1.396 1_565 S
C585 C580 1.425 1_565 S
C585 C582 1.409 . S
C585 C583 1.415 . S
C586 H576 0.930 . S
C586 C584 1.396 1_545 S
C586 C587 1.362 . S
C587 H577 0.930 . S
C587 C580 1.409 . S
C587 C586 1.362 . S
H588 C594 0.930 . S
H589 C597 0.930 . S
H590 C598 0.930 . S
H591 C599 0.930 . S
H592 C602 0.930 . S
H593 C603 0.930 . S
C594 H588 0.930 . S
C594 C595 1.355 . S
C594 C596 1.415 . S
C595 C594 1.355 . S
C595 C597 1.419 . S
C596 C594 1.415 . S
C596 C601 1.425 . S
C596 C603 1.409 . S
C597 H589 0.930 . S
C597 C595 1.419 . S
C597 C598 1.362 . S
C598 H590 0.930 . S
C598 C597 1.362 . S
C598 C601 1.409 . S
C599 H591 0.930 . S
C599 C600 1.355 . S
C599 C601 1.415 . S
C600 C599 1.355 . S
C600 C602 1.419 . S
C601 C596 1.425 . S
C601 C598 1.409 . S
C601 C599 1.415 . S
C602 H592 0.930 . S
C602 C600 1.419 . S
C602 C603 1.362 . S
C603 H593 0.930 . S
C603 C596 1.409 . S
C603 C602 1.362 . S
H604 C610 0.930 . S
H605 C613 0.930 . S
H606 C614 0.930 . S
H607 C615 0.930 . S
H608 C618 0.930 . S
H609 C619 0.930 . S
C610 H604 0.930 . S
C610 C611 1.355 . S
C610 C612 1.415 . S
C611 C610 1.355 . S
C611 C613 1.419 . S
C612 C610 1.415 . S
C612 C617 1.425 . S
C612 C619 1.409 . S
C613 H605 0.930 . S
C613 C611 1.419 . S
C613 C614 1.362 . S
C614 H606 0.930 . S
C614 C613 1.362 . S
C614 C617 1.409 . S
C615 H607 0.930 . S
C615 C616 1.355 . S
C615 C617 1.415 . S
C616 C615 1.355 . S
C616 C618 1.419 . S
C617 C612 1.425 . S
C617 C614 1.409 . S
C617 C615 1.415 . S
C618 H608 0.930 . S
C618 C616 1.419 . S
C618 C619 1.362 . S
C619 H609 0.930 . S
C619 C612 1.409 . S
C619 C618 1.362 . S
H620 C626 0.930 . S
H621 C629 0.930 . S
H622 C630 0.930 . S
H623 C631 0.930 . S
H624 C634 0.930 . S
H625 C635 0.930 . S
C626 H620 0.930 . S
C626 C627 1.355 . S
C626 C628 1.415 . S
C627 C626 1.355 . S
C627 C629 1.419 . S
C628 C626 1.415 . S
C628 C633 1.425 . S
C628 C635 1.409 . S
C629 H621 0.930 . S
C629 C627 1.419 . S
C629 C630 1.362 . S
C630 H622 0.930 . S
C630 C629 1.362 . S
C630 C633 1.409 . S
C631 H623 0.930 . S
C631 C632 1.355 . S
C631 C633 1.415 . S
C632 C631 1.355 . S
C632 C634 1.419 . S
C633 C628 1.425 . S
C633 C630 1.409 . S
C633 C631 1.415 . S
C634 H624 0.930 . S
C634 C632 1.419 . S
C634 C635 1.362 . S
C635 H625 0.930 . S
C635 C628 1.409 . S
C635 C634 1.362 . S
H636 C642 0.930 . S
H637 C645 0.930 . S
H638 C646 0.930 . S
H639 C647 0.930 . S
H640 C650 0.930 . S
H641 C651 0.930 . S
C642 H636 0.930 . S
C642 C643 1.355 . S
C642 C644 1.415 . S
C643 C642 1.355 . S
C643 C645 1.419 . S
C644 C642 1.415 . S
C644 C649 1.425 . S
C644 C651 1.409 . S
C645 H637 0.930 . S
C645 C643 1.419 . S
C645 C646 1.362 . S
C646 H638 0.930 . S
C646 C645 1.362 . S
C646 C649 1.409 . S
C647 H639 0.930 . S
C647 C648 1.355 . S
C647 C649 1.415 . S
C648 C647 1.355 . S
C648 C650 1.419 . S
C649 C644 1.425 . S
C649 C646 1.409 . S
C649 C647 1.415 . S
C650 H640 0.930 . S
C650 C648 1.419 . S
C650 C651 1.362 . S
C651 H641 0.930 . S
C651 C644 1.409 . S
C651 C650 1.362 . S
H652 C658 0.930 . S
H653 C661 0.930 . S
H654 C662 0.930 . S
H655 C663 0.930 . S
H656 C666 0.930 . S
H657 C667 0.930 . S
C658 H652 0.930 . S
C658 C659 1.355 . S
C658 C660 1.415 . S
C659 C658 1.355 . S
C659 C661 1.419 . S
C660 C658 1.415 . S
C660 C665 1.425 . S
C660 C667 1.409 . S
C661 H653 0.930 . S
C661 C659 1.419 . S
C661 C662 1.362 . S
C662 H654 0.930 . S
C662 C661 1.362 . S
C662 C665 1.409 . S
C663 H655 0.930 . S
C663 C664 1.355 . S
C663 C665 1.415 . S
C664 C663 1.355 . S
C664 C666 1.419 . S
C665 C660 1.425 . S
C665 C662 1.409 . S
C665 C663 1.415 . S
C666 H656 0.930 . S
C666 C664 1.419 . S
C666 C667 1.362 . S
C667 H657 0.930 . S
C667 C660 1.409 . S
C667 C666 1.362 . S
H668 C674 0.930 . S
H669 C677 0.930 . S
H670 C678 0.930 . S
H671 C679 0.930 . S
H672 C682 0.930 . S
H673 C683 0.930 . S
C674 H668 0.930 . S
C674 C675 1.355 . S
C674 C676 1.415 . S
C675 C674 1.355 . S
C675 C677 1.419 . S
C676 C674 1.415 . S
C676 C681 1.425 . S
C676 C683 1.409 . S
C677 H669 0.930 . S
C677 C675 1.419 . S
C677 C678 1.362 . S
C678 H670 0.930 . S
C678 C677 1.362 . S
C678 C681 1.409 . S
C679 H671 0.930 . S
C679 C680 1.355 . S
C679 C681 1.415 . S
C680 C679 1.355 . S
C680 C682 1.419 . S
C681 C676 1.425 . S
C681 C678 1.409 . S
C681 C679 1.415 . S
C682 H672 0.930 . S
C682 C680 1.419 . S
C682 C683 1.362 . S
C683 H673 0.930 . S
C683 C676 1.409 . S
C683 C682 1.362 . S
H684 C690 0.930 . S
H685 C693 0.930 . S
H686 C694 0.930 . S
H687 C695 0.930 . S
H688 C698 0.930 . S
H689 C699 0.930 . S
C690 H684 0.930 . S
C690 C691 1.355 . S
C690 C692 1.415 . S
C691 C690 1.355 . S
C691 C693 1.419 . S
C692 C690 1.415 . S
C692 C697 1.425 . S
C692 C699 1.409 . S
C693 H685 0.930 . S
C693 C691 1.419 . S
C693 C694 1.362 . S
C694 H686 0.930 . S
C694 C693 1.362 . S
C694 C697 1.409 . S
C695 H687 0.930 . S
C695 C696 1.355 . S
C695 C697 1.415 . S
C696 C695 1.355 . S
C696 C698 1.419 . S
C697 C692 1.425 . S
C697 C694 1.409 . S
C697 C695 1.415 . S
C698 H688 0.930 . S
C698 C696 1.419 . S
C698 C699 1.362 . S
C699 H689 0.930 . S
C699 C692 1.409 . S
C699 C698 1.362 . S
H700 C706 0.930 . S
H701 C709 0.930 . S
H702 C710 0.930 1_455 S
H703 C711 0.930 1_455 S
H704 C714 0.930 . S
H705 C715 0.930 . S
C706 H700 0.930 . S
C706 C707 1.355 . S
C706 C708 1.415 . S
C707 C706 1.355 . S
C707 C709 1.419 . S
C708 C706 1.415 . S
C708 C713 1.425 . S
C708 C715 1.409 . S
C709 H701 0.930 . S
C709 C707 1.419 . S
C709 C710 1.362 . S
C710 H702 0.930 1_655 S
C710 C709 1.362 . S
C710 C713 1.409 . S
C711 H703 0.930 1_655 S
C711 C712 1.355 . S
C711 C713 1.415 . S
C712 C711 1.355 . S
C712 C714 1.419 . S
C713 C708 1.425 . S
C713 C710 1.409 . S
C713 C711 1.415 . S
C714 H704 0.930 . S
C714 C712 1.419 . S
C714 C715 1.362 . S
C715 H705 0.930 . S
C715 C708 1.409 . S
C715 C714 1.362 . S
H716 C722 0.930 . S
H717 C725 0.930 . S
H718 C726 0.930 . S
H719 C727 0.930 . S
H720 C730 0.930 . S
H721 C731 0.930 . S
C722 H716 0.930 . S
C722 C723 1.355 . S
C722 C724 1.415 . S
C723 C722 1.355 . S
C723 C725 1.419 . S
C724 C722 1.415 . S
C724 C729 1.425 . S
C724 C731 1.409 . S
C725 H717 0.930 . S
C725 C723 1.419 . S
C725 C726 1.362 . S
C726 H718 0.930 . S
C726 C725 1.362 . S
C726 C729 1.409 . S
C727 H719 0.930 . S
C727 C728 1.355 . S
C727 C729 1.415 . S
C728 C727 1.355 . S
C728 C730 1.419 . S
C729 C724 1.425 . S
C729 C726 1.409 . S
C729 C727 1.415 . S
C730 H720 0.930 . S
C730 C728 1.419 . S
C730 C731 1.362 . S
C731 H721 0.930 . S
C731 C724 1.409 . S
C731 C730 1.362 . S
H732 C738 0.930 . S
H733 C741 0.930 . S
H734 C742 0.930 . S
H735 C743 0.930 . S
H736 C746 0.930 . S
H737 C747 0.930 . S
C738 H732 0.930 . S
C738 C739 1.355 . S
C738 C740 1.415 . S
C739 C738 1.355 . S
C739 C741 1.419 . S
C740 C738 1.415 . S
C740 C745 1.425 . S
C740 C747 1.409 . S
C741 H733 0.930 . S
C741 C739 1.419 . S
C741 C742 1.362 . S
C742 H734 0.930 . S
C742 C741 1.362 . S
C742 C745 1.409 . S
C743 H735 0.930 . S
C743 C744 1.355 . S
C743 C745 1.415 . S
C744 C743 1.355 . S
C744 C746 1.419 . S
C745 C740 1.425 . S
C745 C742 1.409 . S
C745 C743 1.415 . S
C746 H736 0.930 . S
C746 C744 1.419 . S
C746 C747 1.362 . S
C747 H737 0.930 . S
C747 C740 1.409 . S
C747 C746 1.362 . S
H748 C754 0.930 . S
H749 C757 0.930 . S
H750 C758 0.930 . S
H751 C759 0.930 . S
H752 C762 0.930 1_556 S
H753 C763 0.930 . S
C754 H748 0.930 . S
C754 C755 1.355 1_565 S
C754 C756 1.415 . S
C755 C754 1.355 1_545 S
C755 C757 1.419 1_556 S
C756 C754 1.415 . S
C756 C761 1.425 1_556 S
C756 C763 1.409 . S
C757 H749 0.930 . S
C757 C755 1.419 1_554 S
C757 C758 1.362 1_545 S
C758 H750 0.930 . S
C758 C757 1.362 1_565 S
C758 C761 1.409 . S
C759 H751 0.930 . S
C759 C760 1.355 . S
C759 C761 1.415 . S
C760 C759 1.355 . S
C760 C762 1.419 . S
C761 C756 1.425 1_554 S
C761 C758 1.409 . S
C761 C759 1.415 . S
C762 H752 0.930 1_554 S
C762 C760 1.419 . S
C762 C763 1.362 1_554 S
C763 H753 0.930 . S
C763 C756 1.409 . S
C763 C762 1.362 1_556 S
H764 C770 0.930 . S
H765 C773 0.930 . S
H766 C774 0.930 . S
H767 C775 0.930 . S
H768 C778 0.930 . S
H769 C779 0.930 . S
C770 H764 0.930 . S
C770 C771 1.355 . S
C770 C772 1.415 . S
C771 C770 1.355 . S
C771 C773 1.419 . S
C772 C770 1.415 . S
C772 C777 1.425 . S
C772 C779 1.409 . S
C773 H765 0.930 . S
C773 C771 1.419 . S
C773 C774 1.362 . S
C774 H766 0.930 . S
C774 C773 1.362 . S
C774 C777 1.409 . S
C775 H767 0.930 . S
C775 C776 1.355 . S
C775 C777 1.415 . S
C776 C775 1.355 . S
C776 C778 1.419 . S
C777 C772 1.425 . S
C777 C774 1.409 . S
C777 C775 1.415 . S
C778 H768 0.930 . S
C778 C776 1.419 . S
C778 C779 1.362 . S
C779 H769 0.930 . S
C779 C772 1.409 . S
C779 C778 1.362 . S
H780 C786 0.930 . S
H781 C789 0.930 1_565 S
H782 C790 0.930 . S
H783 C791 0.930 . S
H784 C794 0.930 . S
H785 C795 0.930 . S
C786 H780 0.930 . S
C786 C787 1.355 . S
C786 C788 1.415 . S
C787 C786 1.355 . S
C787 C789 1.419 . S
C788 C786 1.415 . S
C788 C793 1.425 . S
C788 C795 1.409 . S
C789 H781 0.930 1_545 S
C789 C787 1.419 . S
C789 C790 1.362 . S
C790 H782 0.930 . S
C790 C789 1.362 . S
C790 C793 1.409 . S
C791 H783 0.930 . S
C791 C792 1.355 . S
C791 C793 1.415 . S
C792 C791 1.355 . S
C792 C794 1.419 . S
C793 C788 1.425 . S
C793 C790 1.409 . S
C793 C791 1.415 . S
C794 H784 0.930 . S
C794 C792 1.419 . S
C794 C795 1.362 . S
C795 H785 0.930 . S
C795 C788 1.409 . S
C795 C794 1.362 . S
H796 C802 0.930 . S
H797 C805 0.930 . S
H798 C806 0.930 . S
H799 C807 0.930 . S
H800 C810 0.930 . S
H801 C811 0.930 . S
C802 H796 0.930 . S
C802 C803 1.355 . S
C802 C804 1.415 . S
C803 C802 1.355 . S
C803 C805 1.419 . S
C804 C802 1.415 . S
C804 C809 1.425 . S
C804 C811 1.409 . S
C805 H797 0.930 . S
C805 C803 1.419 . S
C805 C806 1.362 . S
C806 H798 0.930 . S
C806 C805 1.362 . S
C806 C809 1.409 . S
C807 H799 0.930 . S
C807 C808 1.355 . S
C807 C809 1.415 . S
C808 C807 1.355 . S
C808 C810 1.419 . S
C809 C804 1.425 . S
C809 C806 1.409 . S
C809 C807 1.415 . S
C810 H800 0.930 . S
C810 C808 1.419 . S
C810 C811 1.362 . S
C811 H801 0.930 . S
C811 C804 1.409 . S
C811 C810 1.362 . S
H812 C818 0.930 . S
H813 C821 0.930 . S
H814 C822 0.930 . S
H815 C823 0.930 . S
H816 C826 0.930 . S
H817 C827 0.930 . S
C818 H812 0.930 . S
C818 C819 1.355 . S
C818 C820 1.415 . S
C819 C818 1.355 . S
C819 C821 1.419 . S
C820 C818 1.415 . S
C820 C825 1.425 . S
C820 C827 1.409 . S
C821 H813 0.930 . S
C821 C819 1.419 . S
C821 C822 1.362 . S
C822 H814 0.930 . S
C822 C821 1.362 . S
C822 C825 1.409 . S
C823 H815 0.930 . S
C823 C824 1.355 . S
C823 C825 1.415 . S
C824 C823 1.355 . S
C824 C826 1.419 . S
C825 C820 1.425 . S
C825 C822 1.409 . S
C825 C823 1.415 . S
C826 H816 0.930 . S
C826 C824 1.419 . S
C826 C827 1.362 . S
C827 H817 0.930 . S
C827 C820 1.409 . S
C827 C826 1.362 . S
H828 C834 0.930 . S
H829 C837 0.930 . S
H830 C838 0.930 . S
H831 C839 0.930 . S
H832 C842 0.930 . S
H833 C843 0.930 . S
C834 H828 0.930 . S
C834 C835 1.355 . S
C834 C836 1.415 . S
C835 C834 1.355 . S
C835 C837 1.419 . S
C836 C834 1.415 . S
C836 C841 1.425 . S
C836 C843 1.409 . S
C837 H829 0.930 . S
C837 C835 1.419 . S
C837 C838 1.362 . S
C838 H830 0.930 . S
C838 C837 1.362 . S
C838 C841 1.409 . S
C839 H831 0.930 . S
C839 C840 1.355 . S
C839 C841 1.415 . S
C840 C839 1.355 . S
C840 C842 1.419 . S
C841 C836 1.425 . S
C841 C838 1.409 . S
C841 C839 1.415 . S
C842 H832 0.930 . S
C842 C840 1.419 . S
C842 C843 1.362 . S
C843 H833 0.930 . S
C843 C836 1.409 . S
C843 C842 1.362 . S
H844 C850 0.930 . S
H845 C853 0.930 . S
H846 C854 0.930 . S
H847 C855 0.930 . S
H848 C858 0.930 . S
H849 C859 0.930 . S
C850 H844 0.930 . S
C850 C851 1.355 . S
C850 C852 1.415 . S
C851 C850 1.355 . S
C851 C853 1.419 . S
C852 C850 1.415 . S
C852 C857 1.425 . S
C852 C859 1.409 . S
C853 H845 0.930 . S
C853 C851 1.419 . S
C853 C854 1.362 . S
C854 H846 0.930 . S
C854 C853 1.362 . S
C854 C857 1.409 . S
C855 H847 0.930 . S
C855 C856 1.355 . S
C855 C857 1.415 . S
C856 C855 1.355 . S
C856 C858 1.419 . S
C857 C852 1.425 . S
C857 C854 1.409 . S
C857 C855 1.415 . S
C858 H848 0.930 . S
C858 C856 1.419 . S
C858 C859 1.362 . S
C859 H849 0.930 . S
C859 C852 1.409 . S
C859 C858 1.362 . S
H860 C866 0.930 . S
H861 C869 0.930 . S
H862 C870 0.930 . S
H863 C871 0.930 . S
H864 C874 0.930 1_565 S
H865 C875 0.930 1_565 S
C866 H860 0.930 . S
C866 C867 1.355 . S
C866 C868 1.415 . S
C867 C866 1.355 . S
C867 C869 1.419 . S
C868 C866 1.415 . S
C868 C873 1.425 . S
C868 C875 1.409 . S
C869 H861 0.930 . S
C869 C867 1.419 . S
C869 C870 1.362 . S
C870 H862 0.930 . S
C870 C869 1.362 . S
C870 C873 1.409 . S
C871 H863 0.930 . S
C871 C872 1.355 . S
C871 C873 1.415 . S
C872 C871 1.355 . S
C872 C874 1.419 . S
C873 C868 1.425 . S
C873 C870 1.409 . S
C873 C871 1.415 . S
C874 H864 0.930 1_545 S
C874 C872 1.419 . S
C874 C875 1.362 . S
C875 H865 0.930 1_545 S
C875 C868 1.409 . S
C875 C874 1.362 . S
H876 C882 0.930 . S
H877 C885 0.930 . S
H878 C886 0.930 . S
H879 C887 0.930 . S
H880 C890 0.930 . S
H881 C891 0.930 . S
C882 H876 0.930 . S
C882 C883 1.355 . S
C882 C884 1.415 . S
C883 C882 1.355 . S
C883 C885 1.419 . S
C884 C882 1.415 . S
C884 C889 1.425 . S
C884 C891 1.409 . S
C885 H877 0.930 . S
C885 C883 1.419 . S
C885 C886 1.362 . S
C886 H878 0.930 . S
C886 C885 1.362 . S
C886 C889 1.409 . S
C887 H879 0.930 . S
C887 C888 1.355 . S
C887 C889 1.415 . S
C888 C887 1.355 . S
C888 C890 1.419 . S
C889 C884 1.425 . S
C889 C886 1.409 . S
C889 C887 1.415 . S
C890 H880 0.930 . S
C890 C888 1.419 . S
C890 C891 1.362 . S
C891 H881 0.930 . S
C891 C884 1.409 . S
C891 C890 1.362 . S
H892 C898 0.930 . S
H893 C901 0.930 . S
H894 C902 0.930 . S
H895 C903 0.930 . S
H896 C906 0.930 . S
H897 C907 0.930 . S
C898 H892 0.930 . S
C898 C899 1.355 . S
C898 C900 1.415 . S
C899 C898 1.355 . S
C899 C901 1.419 . S
C900 C898 1.415 . S
C900 C905 1.425 . S
C900 C907 1.409 . S
C901 H893 0.930 . S
C901 C899 1.419 . S
C901 C902 1.362 . S
C902 H894 0.930 . S
C902 C901 1.362 . S
C902 C905 1.409 . S
C903 H895 0.930 . S
C903 C904 1.355 . S
C903 C905 1.415 . S
C904 C903 1.355 . S
C904 C906 1.419 . S
C905 C900 1.425 . S
C905 C902 1.409 . S
C905 C903 1.415 . S
C906 H896 0.930 . S
C906 C904 1.419 . S
C906 C907 1.362 . S
C907 H897 0.930 . S
C907 C900 1.409 . S
C907 C906 1.362 . S
H908 C914 0.930 . S
H909 C917 0.930 . S
H910 C918 0.930 . S
H911 C919 0.930 . S
H912 C922 0.930 . S
H913 C923 0.930 . S
C914 H908 0.930 . S
C914 C915 1.355 . S
C914 C916 1.415 . S
C915 C914 1.355 . S
C915 C917 1.419 . S
C916 C914 1.415 . S
C916 C921 1.425 . S
C916 C923 1.409 . S
C917 H909 0.930 . S
C917 C915 1.419 . S
C917 C918 1.362 . S
C918 H910 0.930 . S
C918 C917 1.362 . S
C918 C921 1.409 . S
C919 H911 0.930 . S
C919 C920 1.355 . S
C919 C921 1.415 . S
C920 C919 1.355 . S
C920 C922 1.419 . S
C921 C916 1.425 . S
C921 C918 1.409 . S
C921 C919 1.415 . S
C922 H912 0.930 . S
C922 C920 1.419 . S
C922 C923 1.362 . S
C923 H913 0.930 . S
C923 C916 1.409 . S
C923 C922 1.362 . S
H924 C930 0.930 1_565 S
H925 C933 0.930 . S
H926 C934 0.930 . S
H927 C935 0.933 . S
H928 C938 0.928 1_665 S
H929 C939 0.930 . S
C930 H924 0.930 1_545 S
C930 C931 1.355 . S
C930 C932 1.415 . S
C931 C930 1.355 . S
C931 C933 1.419 . S
C932 C930 1.415 . S
C932 C937 1.425 . S
C932 C939 1.409 1_545 S
C933 H925 0.930 . S
C933 C931 1.419 . S
C933 C934 1.362 . S
C934 H926 0.930 . S
C934 C933 1.362 . S
C934 C937 1.409 . S
C935 H927 0.933 . S
C935 C936 1.356 . S
C935 C937 1.411 1_655 S
C936 C935 1.356 . S
C936 C938 1.409 1_655 S
C937 C932 1.425 . S
C937 C934 1.409 . S
C937 C935 1.411 1_455 S
C938 H928 0.928 1_445 S
C938 C936 1.409 1_455 S
C938 C939 1.376 1_545 S
C939 H929 0.930 . S
C939 C932 1.409 1_565 S
C939 C938 1.376 1_565 S
H940 C946 0.930 . S
H941 C949 0.930 . S
H942 C950 0.930 . S
H943 C951 0.930 . S
H944 C954 0.930 . S
H945 C955 0.930 . S
C946 H940 0.930 . S
C946 C947 1.355 . S
C946 C948 1.415 . S
C947 C946 1.355 . S
C947 C949 1.419 . S
C948 C946 1.415 . S
C948 C953 1.425 . S
C948 C955 1.409 . S
C949 H941 0.930 . S
C949 C947 1.419 . S
C949 C950 1.362 . S
C950 H942 0.930 . S
C950 C949 1.362 . S
C950 C953 1.409 . S
C951 H943 0.930 . S
C951 C952 1.355 . S
C951 C953 1.415 . S
C952 C951 1.355 . S
C952 C954 1.419 . S
C953 C948 1.425 . S
C953 C950 1.409 . S
C953 C951 1.415 . S
C954 H944 0.930 . S
C954 C952 1.419 . S
C954 C955 1.362 . S
C955 H945 0.930 . S
C955 C948 1.409 . S
C955 C954 1.362 . S
H956 C962 0.930 . S
H957 C965 0.930 . S
H958 C966 0.930 . S
H959 C967 0.930 . S
H960 C970 0.930 . S
H961 C971 0.930 . S
C962 H956 0.930 . S
C962 C963 1.355 . S
C962 C964 1.415 . S
C963 C962 1.355 . S
C963 C965 1.419 . S
C964 C962 1.415 . S
C964 C969 1.425 . S
C964 C971 1.409 . S
C965 H957 0.930 . S
C965 C963 1.419 . S
C965 C966 1.362 . S
C966 H958 0.930 . S
C966 C965 1.362 . S
C966 C969 1.409 . S
C967 H959 0.930 . S
C967 C968 1.355 . S
C967 C969 1.415 . S
C968 C967 1.355 . S
C968 C970 1.419 . S
C969 C964 1.425 . S
C969 C966 1.409 . S
C969 C967 1.415 . S
C970 H960 0.930 . S
C970 C968 1.419 . S
C970 C971 1.362 . S
C971 H961 0.930 . S
C971 C964 1.409 . S
C971 C970 1.362 . S
H972 C978 0.930 . S
H973 C981 0.930 . S
H974 C982 0.930 . S
H975 C983 0.930 . S
H976 C986 0.930 . S
H977 C987 0.930 . S
C978 H972 0.930 . S
C978 C979 1.355 . S
C978 C980 1.415 . S
C979 C978 1.355 . S
C979 C981 1.419 . S
C980 C978 1.415 . S
C980 C985 1.425 . S
C980 C987 1.409 . S
C981 H973 0.930 . S
C981 C979 1.419 . S
C981 C982 1.362 . S
C982 H974 0.930 . S
C982 C981 1.362 . S
C982 C985 1.409 . S
C983 H975 0.930 . S
C983 C984 1.355 . S
C983 C985 1.415 . S
C984 C983 1.355 . S
C984 C986 1.419 . S
C985 C980 1.425 . S
C985 C982 1.409 . S
C985 C983 1.415 . S
C986 H976 0.930 . S
C986 C984 1.419 . S
C986 C987 1.362 . S
C987 H977 0.930 . S
C987 C980 1.409 . S
C987 C986 1.362 . S
H988 C994 0.930 . S
H989 C997 0.930 . S
H990 C998 0.930 . S
H991 C999 0.930 . S
H992 C1002 0.930 . S
H993 C1003 0.930 . S
C994 H988 0.930 . S
C994 C995 1.355 . S
C994 C996 1.415 . S
C995 C994 1.355 . S
C995 C997 1.419 1_455 S
C996 C994 1.415 . S
C996 C1001 1.425 1_455 S
C996 C1003 1.409 . S
C997 H989 0.930 . S
C997 C995 1.419 1_655 S
C997 C998 1.362 . S
C998 H990 0.930 . S
C998 C997 1.362 . S
C998 C1001 1.409 . S
C999 H991 0.930 . S
C999 C1000 1.355 1_655 S
C999 C1001 1.415 . S
C1000 C999 1.355 1_455 S
C1000 C1002 1.419 . S
C1001 C996 1.425 1_655 S
C1001 C998 1.409 . S
C1001 C999 1.415 . S
C1002 H992 0.930 . S
C1002 C1000 1.419 . S
C1002 C1003 1.362 . S
C1003 H993 0.930 . S
C1003 C996 1.409 . S
C1003 C1002 1.362 . S
H1004 C1010 0.930 . S
H1005 C1013 0.930 . S
H1006 C1014 0.930 . S
H1007 C1015 0.930 . S
H1008 C1018 0.930 . S
H1009 C1019 0.930 . S
C1010 H1004 0.930 . S
C1010 C1011 1.355 . S
C1010 C1012 1.415 . S
C1011 C1010 1.355 . S
C1011 C1013 1.419 . S
C1012 C1010 1.415 . S
C1012 C1017 1.425 . S
C1012 C1019 1.409 . S
C1013 H1005 0.930 . S
C1013 C1011 1.419 . S
C1013 C1014 1.362 . S
C1014 H1006 0.930 . S
C1014 C1013 1.362 . S
C1014 C1017 1.409 . S
C1015 H1007 0.930 . S
C1015 C1016 1.355 . S
C1015 C1017 1.415 . S
C1016 C1015 1.355 . S
C1016 C1018 1.419 . S
C1017 C1012 1.425 . S
C1017 C1014 1.409 . S
C1017 C1015 1.415 . S
C1018 H1008 0.930 . S
C1018 C1016 1.419 . S
C1018 C1019 1.362 . S
C1019 H1009 0.930 . S
C1019 C1012 1.409 . S
C1019 C1018 1.362 . S
H1020 C1026 0.930 . S
H1021 C1029 0.930 1_554 S
H1022 C1030 0.930 1_655 S
H1023 C1031 0.930 1_655 S
H1024 C1034 0.930 . S
H1025 C1035 0.930 . S
C1026 H1020 0.930 . S
C1026 C1027 1.355 . S
C1026 C1028 1.415 . S
C1027 C1026 1.355 . S
C1027 C1029 1.419 . S
C1028 C1026 1.415 . S
C1028 C1033 1.425 . S
C1028 C1035 1.409 . S
C1029 H1021 0.930 1_556 S
C1029 C1027 1.419 . S
C1029 C1030 1.362 . S
C1030 H1022 0.930 1_455 S
C1030 C1029 1.362 . S
C1030 C1033 1.409 . S
C1031 H1023 0.930 1_455 S
C1031 C1032 1.355 . S
C1031 C1033 1.415 . S
C1032 C1031 1.355 . S
C1032 C1034 1.419 . S
C1033 C1028 1.425 . S
C1033 C1030 1.409 . S
C1033 C1031 1.415 . S
C1034 H1024 0.930 . S
C1034 C1032 1.419 . S
C1034 C1035 1.362 . S
C1035 H1025 0.930 . S
C1035 C1028 1.409 . S
C1035 C1034 1.362 . S
H1036 C1042 0.930 . S
H1037 C1045 0.930 . S
H1038 C1046 0.930 . S
H1039 C1047 0.930 . S
H1040 C1050 0.930 . S
H1041 C1051 0.930 . S
C1042 H1036 0.930 . S
C1042 C1043 1.355 . S
C1042 C1044 1.415 . S
C1043 C1042 1.355 . S
C1043 C1045 1.419 . S
C1044 C1042 1.415 . S
C1044 C1049 1.425 . S
C1044 C1051 1.409 . S
C1045 H1037 0.930 . S
C1045 C1043 1.419 . S
C1045 C1046 1.362 . S
C1046 H1038 0.930 . S
C1046 C1045 1.362 . S
C1046 C1049 1.409 . S
C1047 H1039 0.930 . S
C1047 C1048 1.355 . S
C1047 C1049 1.415 . S
C1048 C1047 1.355 . S
C1048 C1050 1.419 . S
C1049 C1044 1.425 . S
C1049 C1046 1.409 . S
C1049 C1047 1.415 . S
C1050 H1040 0.930 . S
C1050 C1048 1.419 . S
C1050 C1051 1.362 . S
C1051 H1041 0.930 . S
C1051 C1044 1.409 . S
C1051 C1050 1.362 . S
H1052 C1058 0.930 . S
H1053 C1061 0.930 . S
H1054 C1062 0.930 . S
H1055 C1063 0.930 . S
H1056 C1066 0.930 . S
H1057 C1067 0.930 . S
C1058 H1052 0.930 . S
C1058 C1059 1.355 . S
C1058 C1060 1.415 . S
C1059 C1058 1.355 . S
C1059 C1061 1.419 . S
C1060 C1058 1.415 . S
C1060 C1065 1.425 . S
C1060 C1067 1.409 . S
C1061 H1053 0.930 . S
C1061 C1059 1.419 . S
C1061 C1062 1.362 . S
C1062 H1054 0.930 . S
C1062 C1061 1.362 . S
C1062 C1065 1.409 . S
C1063 H1055 0.930 . S
C1063 C1064 1.355 . S
C1063 C1065 1.415 . S
C1064 C1063 1.355 . S
C1064 C1066 1.419 . S
C1065 C1060 1.425 . S
C1065 C1062 1.409 . S
C1065 C1063 1.415 . S
C1066 H1056 0.930 . S
C1066 C1064 1.419 . S
C1066 C1067 1.362 . S
C1067 H1057 0.930 . S
C1067 C1060 1.409 . S
C1067 C1066 1.362 . S
H1068 C1074 0.930 . S
H1069 C1077 0.930 . S
H1070 C1078 0.930 . S
H1071 C1079 0.930 . S
H1072 C1082 0.930 . S
H1073 C1083 0.930 . S
C1074 H1068 0.930 . S
C1074 C1075 1.355 . S
C1074 C1076 1.415 . S
C1075 C1074 1.355 . S
C1075 C1077 1.419 . S
C1076 C1074 1.415 . S
C1076 C1081 1.425 . S
C1076 C1083 1.409 . S
C1077 H1069 0.930 . S
C1077 C1075 1.419 . S
C1077 C1078 1.362 . S
C1078 H1070 0.930 . S
C1078 C1077 1.362 . S
C1078 C1081 1.409 . S
C1079 H1071 0.930 . S
C1079 C1080 1.355 . S
C1079 C1081 1.415 . S
C1080 C1079 1.355 . S
C1080 C1082 1.419 . S
C1081 C1076 1.425 . S
C1081 C1078 1.409 . S
C1081 C1079 1.415 . S
C1082 H1072 0.930 . S
C1082 C1080 1.419 . S
C1082 C1083 1.362 . S
C1083 H1073 0.930 . S
C1083 C1076 1.409 . S
C1083 C1082 1.362 . S
H1084 C1090 0.930 . S
H1085 C1093 0.930 1_556 S
H1086 C1094 0.930 . S
H1087 C1095 0.930 . S
H1088 C1098 0.930 . S
H1089 C1099 0.930 . S
C1090 H1084 0.930 . S
C1090 C1091 1.355 . S
C1090 C1092 1.415 . S
C1091 C1090 1.355 . S
C1091 C1093 1.419 . S
C1092 C1090 1.415 . S
C1092 C1097 1.425 . S
C1092 C1099 1.409 . S
C1093 H1085 0.930 1_554 S
C1093 C1091 1.419 . S
C1093 C1094 1.362 . S
C1094 H1086 0.930 . S
C1094 C1093 1.362 . S
C1094 C1097 1.409 . S
C1095 H1087 0.930 . S
C1095 C1096 1.355 . S
C1095 C1097 1.415 . S
C1096 C1095 1.355 . S
C1096 C1098 1.419 . S
C1097 C1092 1.425 . S
C1097 C1094 1.409 . S
C1097 C1095 1.415 . S
C1098 H1088 0.930 . S
C1098 C1096 1.419 . S
C1098 C1099 1.362 . S
C1099 H1089 0.930 . S
C1099 C1092 1.409 . S
C1099 C1098 1.362 . S
H1100 C1106 0.930 . S
H1101 C1109 0.930 . S
H1102 C1110 0.930 . S
H1103 C1111 0.930 . S
H1104 C1114 0.930 . S
H1105 C1115 0.930 . S
C1106 H1100 0.930 . S
C1106 C1107 1.355 . S
C1106 C1108 1.415 . S
C1107 C1106 1.355 . S
C1107 C1109 1.419 . S
C1108 C1106 1.415 . S
C1108 C1113 1.425 . S
C1108 C1115 1.409 . S
C1109 H1101 0.930 . S
C1109 C1107 1.419 . S
C1109 C1110 1.362 . S
C1110 H1102 0.930 . S
C1110 C1109 1.362 . S
C1110 C1113 1.409 . S
C1111 H1103 0.930 . S
C1111 C1112 1.355 . S
C1111 C1113 1.415 . S
C1112 C1111 1.355 . S
C1112 C1114 1.419 . S
C1113 C1108 1.425 . S
C1113 C1110 1.409 . S
C1113 C1111 1.415 . S
C1114 H1104 0.930 . S
C1114 C1112 1.419 . S
C1114 C1115 1.362 . S
C1115 H1105 0.930 . S
C1115 C1108 1.409 . S
C1115 C1114 1.362 . S
H1116 C1122 0.930 . S
H1117 C1125 0.930 . S
H1118 C1126 0.930 . S
H1119 C1127 0.930 . S
H1120 C1130 0.930 . S
H1121 C1131 0.930 . S
C1122 H1116 0.930 . S
C1122 C1123 1.355 . S
C1122 C1124 1.415 . S
C1123 C1122 1.355 . S
C1123 C1125 1.419 . S
C1124 C1122 1.415 . S
C1124 C1129 1.425 . S
C1124 C1131 1.409 . S
C1125 H1117 0.930 . S
C1125 C1123 1.419 . S
C1125 C1126 1.362 . S
C1126 H1118 0.930 . S
C1126 C1125 1.362 . S
C1126 C1129 1.409 . S
C1127 H1119 0.930 . S
C1127 C1128 1.355 . S
C1127 C1129 1.415 . S
C1128 C1127 1.355 . S
C1128 C1130 1.419 . S
C1129 C1124 1.425 . S
C1129 C1126 1.409 . S
C1129 C1127 1.415 . S
C1130 H1120 0.930 . S
C1130 C1128 1.419 . S
C1130 C1131 1.362 . S
C1131 H1121 0.930 . S
C1131 C1124 1.409 . S
C1131 C1130 1.362 . S
H1132 C1138 0.930 . S
H1133 C1141 0.930 . S
H1134 C1142 0.930 . S
H1135 C1143 0.930 . S
H1136 C1146 0.930 . S
H1137 C1147 0.930 . S
C1138 H1132 0.930 . S
C1138 C1139 1.355 . S
C1138 C1140 1.415 . S
C1139 C1138 1.355 . S
C1139 C1141 1.419 . S
C1140 C1138 1.415 . S
C1140 C1145 1.425 . S
C1140 C1147 1.409 . S
C1141 H1133 0.930 . S
C1141 C1139 1.419 . S
C1141 C1142 1.362 . S
C1142 H1134 0.930 . S
C1142 C1141 1.362 . S
C1142 C1145 1.409 . S
C1143 H1135 0.930 . S
C1143 C1144 1.355 . S
C1143 C1145 1.415 . S
C1144 C1143 1.355 . S
C1144 C1146 1.419 . S
C1145 C1140 1.425 . S
C1145 C1142 1.409 . S
C1145 C1143 1.415 . S
C1146 H1136 0.930 . S
C1146 C1144 1.419 . S
C1146 C1147 1.362 . S
C1147 H1137 0.930 . S
C1147 C1140 1.409 . S
C1147 C1146 1.362 . S
H1148 C1154 0.930 . S
H1149 C1157 0.930 . S
H1150 C1158 0.930 . S
H1151 C1159 0.930 . S
H1152 C1162 0.930 . S
H1153 C1163 0.930 . S
C1154 H1148 0.930 . S
C1154 C1155 1.355 . S
C1154 C1156 1.415 . S
C1155 C1154 1.355 . S
C1155 C1157 1.419 . S
C1156 C1154 1.415 . S
C1156 C1161 1.425 . S
C1156 C1163 1.409 . S
C1157 H1149 0.930 . S
C1157 C1155 1.419 . S
C1157 C1158 1.362 . S
C1158 H1150 0.930 . S
C1158 C1157 1.362 . S
C1158 C1161 1.409 . S
C1159 H1151 0.930 . S
C1159 C1160 1.355 . S
C1159 C1161 1.415 . S
C1160 C1159 1.355 . S
C1160 C1162 1.419 . S
C1161 C1156 1.425 . S
C1161 C1158 1.409 . S
C1161 C1159 1.415 . S
C1162 H1152 0.930 . S
C1162 C1160 1.419 . S
C1162 C1163 1.362 . S
C1163 H1153 0.930 . S
C1163 C1156 1.409 . S
C1163 C1162 1.362 . S
H1164 C1170 0.936 . S
H1165 C1173 0.930 . S
H1166 C1174 0.930 . S
H1167 C1175 0.930 . S
H1168 C1178 0.930 . S
H1169 C1179 0.930 . S
C1170 H1164 0.936 . S
C1170 C1171 1.351 1_554 S
C1170 C1172 1.413 1_554 S
C1171 C1170 1.351 1_556 S
C1171 C1173 1.419 . S
C1172 C1170 1.413 1_556 S
C1172 C1177 1.425 . S
C1172 C1179 1.409 1_556 S
C1173 H1165 0.930 . S
C1173 C1171 1.419 . S
C1173 C1174 1.362 . S
C1174 H1166 0.930 . S
C1174 C1173 1.362 . S
C1174 C1177 1.409 . S
C1175 H1167 0.930 . S
C1175 C1176 1.355 . S
C1175 C1177 1.415 . S
C1176 C1175 1.355 . S
C1176 C1178 1.419 1_556 S
C1177 C1172 1.425 . S
C1177 C1174 1.409 . S
C1177 C1175 1.415 . S
C1178 H1168 0.930 . S
C1178 C1176 1.419 1_554 S
C1178 C1179 1.362 . S
C1179 H1169 0.930 . S
C1179 C1172 1.409 1_554 S
C1179 C1178 1.362 . S
H1180 C1186 0.930 . S
H1181 C1189 0.930 . S
H1182 C1190 0.930 . S
H1183 C1191 0.930 . S
H1184 C1194 0.930 . S
H1185 C1195 0.930 . S
C1186 H1180 0.930 . S
C1186 C1187 1.355 . S
C1186 C1188 1.415 . S
C1187 C1186 1.355 . S
C1187 C1189 1.419 . S
C1188 C1186 1.415 . S
C1188 C1193 1.425 . S
C1188 C1195 1.409 . S
C1189 H1181 0.930 . S
C1189 C1187 1.419 . S
C1189 C1190 1.362 . S
C1190 H1182 0.930 . S
C1190 C1189 1.362 . S
C1190 C1193 1.409 . S
C1191 H1183 0.930 . S
C1191 C1192 1.355 . S
C1191 C1193 1.415 . S
C1192 C1191 1.355 . S
C1192 C1194 1.419 . S
C1193 C1188 1.425 . S
C1193 C1190 1.409 . S
C1193 C1191 1.415 . S
C1194 H1184 0.930 . S
C1194 C1192 1.419 . S
C1194 C1195 1.362 . S
C1195 H1185 0.930 . S
C1195 C1188 1.409 . S
C1195 C1194 1.362 . S
H1196 C1202 0.930 . S
H1197 C1205 0.930 . S
H1198 C1206 0.930 . S
H1199 C1207 0.930 . S
H1200 C1210 0.930 . S
H1201 C1211 0.930 . S
C1202 H1196 0.930 . S
C1202 C1203 1.355 . S
C1202 C1204 1.415 . S
C1203 C1202 1.355 . S
C1203 C1205 1.419 1_554 S
C1204 C1202 1.415 . S
C1204 C1209 1.425 . S
C1204 C1211 1.409 . S
C1205 H1197 0.930 . S
C1205 C1203 1.419 1_556 S
C1205 C1206 1.362 . S
C1206 H1198 0.930 . S
C1206 C1205 1.362 . S
C1206 C1209 1.409 1_556 S
C1207 H1199 0.930 . S
C1207 C1208 1.355 1_556 S
C1207 C1209 1.415 1_556 S
C1208 C1207 1.355 1_554 S
C1208 C1210 1.419 . S
C1209 C1204 1.425 . S
C1209 C1206 1.409 1_554 S
C1209 C1207 1.415 1_554 S
C1210 H1200 0.930 . S
C1210 C1208 1.419 . S
C1210 C1211 1.362 . S
C1211 H1201 0.930 . S
C1211 C1204 1.409 . S
C1211 C1210 1.362 . S
H1212 C1218 0.930 . S
H1213 C1221 0.930 . S
H1214 C1222 0.930 . S
H1215 C1223 0.930 . S
H1216 C1226 0.930 . S
H1217 C1227 0.930 . S
C1218 H1212 0.930 . S
C1218 C1219 1.355 . S
C1218 C1220 1.415 . S
C1219 C1218 1.355 . S
C1219 C1221 1.419 1_565 S
C1220 C1218 1.415 . S
C1220 C1225 1.425 . S
C1220 C1227 1.409 . S
C1221 H1213 0.930 . S
C1221 C1219 1.419 1_545 S
C1221 C1222 1.362 . S
C1222 H1214 0.930 . S
C1222 C1221 1.362 . S
C1222 C1225 1.409 1_545 S
C1223 H1215 0.930 . S
C1223 C1224 1.355 . S
C1223 C1225 1.415 . S
C1224 C1223 1.355 . S
C1224 C1226 1.419 . S
C1225 C1220 1.425 . S
C1225 C1222 1.409 1_565 S
C1225 C1223 1.415 . S
C1226 H1216 0.930 . S
C1226 C1224 1.419 . S
C1226 C1227 1.362 . S
C1227 H1217 0.930 . S
C1227 C1220 1.409 . S
C1227 C1226 1.362 . S
C472 C314 1.792 1_556 S
C467 C101 1.807 . S
C488 C327 1.229 . S
C483 C125 1.136 . S
C499 C139 1.937 . S
C504 C340 1.910 . S
C520 C353 1.704 . S
C515 C82 1.777 . S
C536 C361 1.540 . S
C531 C196 1.562 . S
C552 C374 1.720 . S
C547 C234 1.746 . S
C563 C220 1.015 . S
C568 C387 0.981 . S
C584 C400 1.633 1_565 S
C579 C173 1.672 . S
C595 C211 1.122 . S
C600 C418 1.059 . S
C616 C429 1.137 . S
C611 C182 1.035 . S
C627 C201 1.181 . S
C632 C413 1.341 . S
C648 C421 1.374 . S
C643 C239 1.227 . S
C659 C135 1.654 . S
C664 C444 1.644 . S
C675 C87 1.719 . S
C680 C434 1.860 . S
C691 C106 1.209 . S
C696 C439 1.367 . S
C707 C116 1.320 . S
C712 C442 1.290 . S
C723 C59 1.801 . S
C728 C351 1.794 . S
C739 C268 2.075 . S
C744 C343 2.099 . S
C760 C312 1.309 . S
C755 C291 1.305 . S
C776 C317 1.454 . S
C771 C163 1.303 . S
C787 C78 2.019 1_545 S
C792 C364 1.970 . S
C808 C403 1.235 . S
C803 C215 1.244 . S
C824 C356 1.630 . S
C819 C177 1.611 . S
C840 C382 1.736 . S
C835 C230 1.759 . S
C856 C392 1.828 . S
C851 C272 1.832 . S
C867 C296 1.211 . S
C872 C405 1.246 . S
C883 C158 1.931 . S
C888 C366 1.871 . S
C904 C379 1.718 . S
C899 C253 1.778 . S
C915 C63 1.555 . S
C920 C335 1.552 . S
C936 C348 1.713 . S
C931 C6 1.751 . S
C952 C309 0.998 . S
C947 C30 0.877 . S
C968 C322 1.667 . S
C963 C40 1.664 . S
C979 C21 1.102 . S
C984 C431 1.045 . S
C995 C49 1.119 . S
C1000 C416 1.075 . S
C1011 C68 1.220 . S
C1016 C426 1.340 . S
C1027 C11 1.185 1_556 S
C1032 C408 1.371 . S
C1048 C457 1.655 . S
C1043 C154 1.643 . S
C1064 C447 1.840 . S
C1059 C258 1.746 . S
C1080 C452 1.368 . S
C1075 C277 1.223 . S
C1091 C287 1.323 1_554 S
C1096 C455 1.308 . S
C1107 C192 1.815 . S
C1112 C377 1.757 . S
C1128 C369 2.101 . S
C1123 C97 2.080 . S
C1144 C390 1.325 . S
C1139 C120 1.317 . S
C1160 C395 1.462 . S
C1155 C144 1.349 . S
C1171 C249 1.998 . S
C1176 C338 1.991 . S
C1192 C325 1.207 . S
C1187 C25 1.260 . S
C1203 C44 1.611 . S
C1208 C330 1.627 1_554 S
C1224 C304 1.679 . S
C1219 C2 1.742 1_565 S
