# Generated by pormake.
# Topology ctn, (3,4)-cn, num edge types: 1
# Building blocks:
#     Node 0, Type 0, BuildingBlock: BELTOD_clean_linker_0, # of connection points: 3
#     Node 1, Type 0, BuildingBlock: BELTOD_clean_linker_0, # of connection points: 3
#     Node 2, Type 0, BuildingBlock: BELTOD_clean_linker_0, # of connection points: 3
#     Node 3, Type 0, BuildingBlock: BELTOD_clean_linker_0, # of connection points: 3
#     Node 4, Type 0, BuildingBlock: BELTOD_clean_linker_0, # of connection points: 3
#     Node 5, Type 0, BuildingBlock: BELTOD_clean_linker_0, # of connection points: 3
#     Node 6, Type 0, BuildingBlock: BELTOD_clean_linker_0, # of connection points: 3
#     Node 7, Type 0, BuildingBlock: BELTOD_clean_linker_0, # of connection points: 3
#     Node 8, Type 0, BuildingBlock: BELTOD_clean_linker_0, # of connection points: 3
#     Node 9, Type 0, BuildingBlock: BELTOD_clean_linker_0, # of connection points: 3
#     Node 10, Type 0, BuildingBlock: BELTOD_clean_linker_0, # of connection points: 3
#     Node 11, Type 0, BuildingBlock: BELTOD_clean_linker_0, # of connection points: 3
#     Node 12, Type 0, BuildingBlock: BELTOD_clean_linker_0, # of connection points: 3
#     Node 13, Type 0, BuildingBlock: BELTOD_clean_linker_0, # of connection points: 3
#     Node 14, Type 0, BuildingBlock: BELTOD_clean_linker_0, # of connection points: 3
#     Node 15, Type 0, BuildingBlock: BELTOD_clean_linker_0, # of connection points: 3
#     Node 16, Type 1, BuildingBlock: TATPOV_clean_sbu_0, # of connection points: 4
#     Node 17, Type 1, BuildingBlock: TATPOV_clean_sbu_0, # of connection points: 4
#     Node 18, Type 1, BuildingBlock: TATPOV_clean_sbu_0, # of connection points: 4
#     Node 19, Type 1, BuildingBlock: TATPOV_clean_sbu_0, # of connection points: 4
#     Node 20, Type 1, BuildingBlock: TATPOV_clean_sbu_0, # of connection points: 4
#     Node 21, Type 1, BuildingBlock: TATPOV_clean_sbu_0, # of connection points: 4
#     Node 22, Type 1, BuildingBlock: TATPOV_clean_sbu_0, # of connection points: 4
#     Node 23, Type 1, BuildingBlock: TATPOV_clean_sbu_0, # of connection points: 4
#     Node 24, Type 1, BuildingBlock: TATPOV_clean_sbu_0, # of connection points: 4
#     Node 25, Type 1, BuildingBlock: TATPOV_clean_sbu_0, # of connection points: 4
#     Node 26, Type 1, BuildingBlock: TATPOV_clean_sbu_0, # of connection points: 4
#     Node 27, Type 1, BuildingBlock: TATPOV_clean_sbu_0, # of connection points: 4
#     Edge 28, Type (0, 1), BuildingBlock: KIFKEQ_clean_linker_1, # of connection points: 2
#     Edge 29, Type (0, 1), BuildingBlock: KIFKEQ_clean_linker_1, # of connection points: 2
#     Edge 30, Type (0, 1), BuildingBlock: KIFKEQ_clean_linker_1, # of connection points: 2
#     Edge 31, Type (0, 1), BuildingBlock: KIFKEQ_clean_linker_1, # of connection points: 2
#     Edge 32, Type (0, 1), BuildingBlock: KIFKEQ_clean_linker_1, # of connection points: 2
#     Edge 33, Type (0, 1), BuildingBlock: KIFKEQ_clean_linker_1, # of connection points: 2
#     Edge 34, Type (0, 1), BuildingBlock: KIFKEQ_clean_linker_1, # of connection points: 2
#     Edge 35, Type (0, 1), BuildingBlock: KIFKEQ_clean_linker_1, # of connection points: 2
#     Edge 36, Type (0, 1), BuildingBlock: KIFKEQ_clean_linker_1, # of connection points: 2
#     Edge 37, Type (0, 1), BuildingBlock: KIFKEQ_clean_linker_1, # of connection points: 2
#     Edge 38, Type (0, 1), BuildingBlock: KIFKEQ_clean_linker_1, # of connection points: 2
#     Edge 39, Type (0, 1), BuildingBlock: KIFKEQ_clean_linker_1, # of connection points: 2
#     Edge 40, Type (0, 1), BuildingBlock: KIFKEQ_clean_linker_1, # of connection points: 2
#     Edge 41, Type (0, 1), BuildingBlock: KIFKEQ_clean_linker_1, # of connection points: 2
#     Edge 42, Type (0, 1), BuildingBlock: KIFKEQ_clean_linker_1, # of connection points: 2
#     Edge 43, Type (0, 1), BuildingBlock: KIFKEQ_clean_linker_1, # of connection points: 2
#     Edge 44, Type (0, 1), BuildingBlock: KIFKEQ_clean_linker_1, # of connection points: 2
#     Edge 45, Type (0, 1), BuildingBlock: KIFKEQ_clean_linker_1, # of connection points: 2
#     Edge 46, Type (0, 1), BuildingBlock: KIFKEQ_clean_linker_1, # of connection points: 2
#     Edge 47, Type (0, 1), BuildingBlock: KIFKEQ_clean_linker_1, # of connection points: 2
#     Edge 48, Type (0, 1), BuildingBlock: KIFKEQ_clean_linker_1, # of connection points: 2
#     Edge 49, Type (0, 1), BuildingBlock: KIFKEQ_clean_linker_1, # of connection points: 2
#     Edge 50, Type (0, 1), BuildingBlock: KIFKEQ_clean_linker_1, # of connection points: 2
#     Edge 51, Type (0, 1), BuildingBlock: KIFKEQ_clean_linker_1, # of connection points: 2
#     Edge 52, Type (0, 1), BuildingBlock: KIFKEQ_clean_linker_1, # of connection points: 2
#     Edge 53, Type (0, 1), BuildingBlock: KIFKEQ_clean_linker_1, # of connection points: 2
#     Edge 54, Type (0, 1), BuildingBlock: KIFKEQ_clean_linker_1, # of connection points: 2
#     Edge 55, Type (0, 1), BuildingBlock: KIFKEQ_clean_linker_1, # of connection points: 2
#     Edge 56, Type (0, 1), BuildingBlock: KIFKEQ_clean_linker_1, # of connection points: 2
#     Edge 57, Type (0, 1), BuildingBlock: KIFKEQ_clean_linker_1, # of connection points: 2
#     Edge 58, Type (0, 1), BuildingBlock: KIFKEQ_clean_linker_1, # of connection points: 2
#     Edge 59, Type (0, 1), BuildingBlock: KIFKEQ_clean_linker_1, # of connection points: 2
#     Edge 60, Type (0, 1), BuildingBlock: KIFKEQ_clean_linker_1, # of connection points: 2
#     Edge 61, Type (0, 1), BuildingBlock: KIFKEQ_clean_linker_1, # of connection points: 2
#     Edge 62, Type (0, 1), BuildingBlock: KIFKEQ_clean_linker_1, # of connection points: 2
#     Edge 63, Type (0, 1), BuildingBlock: KIFKEQ_clean_linker_1, # of connection points: 2
#     Edge 64, Type (0, 1), BuildingBlock: KIFKEQ_clean_linker_1, # of connection points: 2
#     Edge 65, Type (0, 1), BuildingBlock: KIFKEQ_clean_linker_1, # of connection points: 2
#     Edge 66, Type (0, 1), BuildingBlock: KIFKEQ_clean_linker_1, # of connection points: 2
#     Edge 67, Type (0, 1), BuildingBlock: KIFKEQ_clean_linker_1, # of connection points: 2
#     Edge 68, Type (0, 1), BuildingBlock: KIFKEQ_clean_linker_1, # of connection points: 2
#     Edge 69, Type (0, 1), BuildingBlock: KIFKEQ_clean_linker_1, # of connection points: 2
#     Edge 70, Type (0, 1), BuildingBlock: KIFKEQ_clean_linker_1, # of connection points: 2
#     Edge 71, Type (0, 1), BuildingBlock: KIFKEQ_clean_linker_1, # of connection points: 2
#     Edge 72, Type (0, 1), BuildingBlock: KIFKEQ_clean_linker_1, # of connection points: 2
#     Edge 73, Type (0, 1), BuildingBlock: KIFKEQ_clean_linker_1, # of connection points: 2
#     Edge 74, Type (0, 1), BuildingBlock: KIFKEQ_clean_linker_1, # of connection points: 2
#     Edge 75, Type (0, 1), BuildingBlock: KIFKEQ_clean_linker_1, # of connection points: 2
# Relax obj value: 0.003
# Max RMSD: 0.051
# Mean RMSD: 0.025
data_MOF--net-ctn--node1-TATPOV_clean_sbu_0--node2-BELTOD_clean_linker_0--edge1-KIFKEQ_clean_linker_1
_symmetry_space_group_name_H-M    P1
_symmetry_Int_Tables_number       1
_symmetry_cell_setting            triclinic
loop_
_symmetry_equiv_pos_as_xyz
'x, y, z'
_cell_length_a     62.872524
_cell_length_b     63.350027
_cell_length_c     62.778606
_cell_angle_alpha  90.338748
_cell_angle_beta   91.150804
_cell_angle_gamma 91.735698
loop_
_atom_site_label
_atom_site_type_symbol
_atom_site_fract_x
_atom_site_fract_y
_atom_site_fract_z
_atom_type_partial_charge
P0 P 0.04914 0.05161 0.05203 0.0
H1 H 0.04605 0.03854 0.09618 0.0
H2 H 0.01604 0.03136 0.11937 0.0
H3 H 0.97247 0.04163 0.06658 0.0
H4 H 0.00274 0.04909 0.04348 0.0
H5 H 0.08343 0.04743 0.02202 0.0
H6 H 0.10554 0.01794 0.01232 0.0
H7 H 0.06767 0.97651 0.05192 0.0
H8 H 0.04533 0.00594 0.06107 0.0
H9 H 0.04266 0.09678 0.05223 0.0
H10 H 0.03828 0.04597 0.00625 0.0
O11 O 0.06685 0.0646 0.06778 0.0
H12 H 0.03379 0.12201 0.02447 0.0
H13 H 0.0298 0.07126 0.97811 0.0
C14 C 0.02663 0.04466 0.06822 0.0
C15 C 0.03004 0.03917 0.08957 0.0
C16 C 0.01283 0.03492 0.10279 0.0
C17 C 0.99179 0.03599 0.09489 0.0
C18 C 0.98845 0.04096 0.07326 0.0
C19 C 0.00574 0.04515 0.06 0.0
C20 C 0.06254 0.02889 0.04204 0.0
C21 C 0.07959 0.03188 0.02821 0.0
C22 C 0.09238 0.01504 0.02288 0.0
C23 C 0.08853 0.99483 0.03147 0.0
C24 C 0.07098 0.99176 0.04481 0.0
C25 C 0.05817 0.00865 0.05011 0.0
C26 C 0.04164 0.0696 0.0312 0.0
C27 C 0.03991 0.09108 0.03609 0.0
C28 C 0.03492 0.10551 0.02015 0.0
C29 C 0.03141 0.09874 0.99894 0.0
C30 C 0.03239 0.07702 0.99425 0.0
C31 C 0.0374 0.06256 0.01028 0.0
P32 P 0.27262 0.68814 0.21087 0.0
H33 H 0.2945 0.72699 0.1983 0.0
H34 H 0.28375 0.75647 0.17625 0.0
H35 H 0.21933 0.73056 0.17336 0.0
H36 H 0.23042 0.70077 0.19504 0.0
H37 H 0.31372 0.67021 0.22148 0.0
H38 H 0.34148 0.67961 0.24763 0.0
H39 H 0.30181 0.72795 0.27313 0.0
H40 H 0.27458 0.71915 0.24589 0.0
H41 H 0.24789 0.65302 0.19195 0.0
H42 H 0.24948 0.68773 0.25129 0.0
O43 O 0.28448 0.67464 0.19177 0.0
H44 H 0.21955 0.62984 0.2052 0.0
H45 H 0.22077 0.66477 0.26459 0.0
C46 C 0.26324 0.71184 0.19862 0.0
C47 C 0.27794 0.72793 0.19338 0.0
C48 C 0.27171 0.74485 0.18079 0.0
C49 C 0.25062 0.74598 0.173 0.0
C50 C 0.23573 0.73013 0.17891 0.0
C51 C 0.24203 0.71315 0.19149 0.0
C52 C 0.29222 0.69418 0.23155 0.0
C53 C 0.31098 0.68284 0.23269 0.0
C54 C 0.32681 0.6881 0.24791 0.0
C55 C 0.32405 0.70463 0.2626 0.0
C56 C 0.30476 0.71542 0.26187 0.0
C57 C 0.28906 0.71031 0.24641 0.0
C58 C 0.25115 0.67178 0.22081 0.0
C59 C 0.24212 0.65567 0.20785 0.0
C60 C 0.22574 0.64255 0.21538 0.0
C61 C 0.21792 0.64539 0.236 0.0
C62 C 0.22665 0.66196 0.24876 0.0
C63 C 0.24306 0.67512 0.24116 0.0
P64 P 0.0041 0.48009 0.03206 0.0
H65 H 0.98283 0.46561 0.99259 0.0
H66 H 0.98209 0.4319 0.97328 0.0
H67 H 0.02277 0.40558 0.02183 0.0
H68 H 0.02287 0.43904 0.04154 0.0
H69 H 0.99404 0.52397 0.03902 0.0
H70 H 0.96082 0.54284 0.03873 0.0
H71 H 0.92614 0.48425 0.02429 0.0
H72 H 0.95923 0.46543 0.02646 0.0
H73 H 0.04684 0.47962 0.05091 0.0
H74 H 0.98227 0.47497 0.07266 0.0
O75 O 0.02155 0.49508 0.01878 0.0
H76 H 0.06009 0.47671 0.08757 0.0
H77 H 0.99529 0.47295 0.10946 0.0
C78 C 0.0023 0.45469 0.01888 0.0
C79 C 0.99112 0.45244 0.9994 0.0
C80 C 0.99075 0.43322 0.98835 0.0
C81 C 0.0022 0.41614 0.99622 0.0
C82 C 0.01371 0.4185 0.01553 0.0
C83 C 0.01369 0.43761 0.02682 0.0
C84 C 0.9792 0.49346 0.03193 0.0
C85 C 0.97923 0.51524 0.03583 0.0
C86 C 0.96017 0.52603 0.03552 0.0
C87 C 0.94064 0.51525 0.03107 0.0
C88 C 0.94071 0.4932 0.02791 0.0
C89 C 0.95976 0.48238 0.02871 0.0
C90 C 0.0136 0.47789 0.05914 0.0
C91 C 0.03552 0.47821 0.06364 0.0
C92 C 0.04306 0.47666 0.08464 0.0
C93 C 0.02878 0.47481 0.10156 0.0
C94 C 0.00677 0.47417 0.09686 0.0
C95 C 0.99927 0.47553 0.07582 0.0
P96 P 0.69888 0.7949 0.18728 0.0
H97 H 0.72116 0.82727 0.16295 0.0
H98 H 0.74612 0.85621 0.17313 0.0
H99 H 0.74634 0.83423 0.23812 0.0
H100 H 0.72163 0.80521 0.22781 0.0
H101 H 0.67816 0.76419 0.15874 0.0
H102 H 0.69151 0.73775 0.13439 0.0
H103 H 0.756 0.75485 0.15436 0.0
H104 H 0.74238 0.78075 0.1793 0.0
H105 H 0.67747 0.81506 0.22212 0.0
H106 H 0.68968 0.75134 0.20225 0.0
O107 O 0.68064 0.80727 0.17274 0.0
H108 H 0.655 0.80147 0.25054 0.0
H109 H 0.667 0.73765 0.23053 0.0
C110 C 0.71916 0.81443 0.19471 0.0
C111 C 0.72676 0.82859 0.17935 0.0
C112 C 0.74109 0.84504 0.18515 0.0
C113 C 0.74796 0.84763 0.20647 0.0
C114 C 0.74102 0.83282 0.22164 0.0
C115 C 0.72688 0.81624 0.21577 0.0
C116 C 0.70927 0.77461 0.17057 0.0
C117 C 0.69517 0.76215 0.15794 0.0
C118 C 0.70286 0.74713 0.14392 0.0
C119 C 0.72488 0.74435 0.14215 0.0
C120 C 0.73896 0.75647 0.15538 0.0
C121 C 0.7312 0.77142 0.16954 0.0
C122 C 0.68531 0.78428 0.21008 0.0
C123 C 0.67565 0.79814 0.22414 0.0
C124 C 0.66287 0.79033 0.24044 0.0
C125 C 0.65923 0.76847 0.24279 0.0
C126 C 0.66943 0.75458 0.22903 0.0
C127 C 0.68244 0.76242 0.21286 0.0
P128 P 0.06785 0.94639 0.42048 0.0
H129 H 0.10574 0.94241 0.44697 0.0
H130 H 0.134 0.96755 0.45845 0.0
H131 H 0.10038 0.018 0.42796 0.0
H132 H 0.07203 0.99281 0.41675 0.0
H133 H 0.05258 0.90259 0.42155 0.0
H134 H 0.03788 0.88048 0.44972 0.0
H135 H 0.04365 0.9333 0.49359 0.0
H136 H 0.05882 0.95519 0.46534 0.0
H137 H 0.06176 0.95538 0.37526 0.0
H138 H 0.02734 0.96393 0.43324 0.0
O139 O 0.08085 0.93072 0.40407 0.0
H140 H 0.03213 0.96961 0.35468 0.0
H141 H 0.99774 0.97849 0.41282 0.0
C142 C 0.08685 0.96573 0.43101 0.0
C143 C 0.10431 0.95894 0.44304 0.0
C144 C 0.12048 0.9733 0.44951 0.0
C145 C 0.11948 0.99473 0.44399 0.0
C146 C 0.1015 0.00163 0.43263 0.0
C147 C 0.08533 0.98721 0.4261 0.0
C148 C 0.05718 0.93035 0.44151 0.0
C149 C 0.05082 0.90935 0.43728 0.0
C150 C 0.04224 0.89679 0.45336 0.0
C151 C 0.03963 0.9051 0.47395 0.0
C152 C 0.04578 0.92631 0.47802 0.0
C153 C 0.0544 0.93886 0.46189 0.0
C154 C 0.0465 0.95812 0.40569 0.0
C155 C 0.04783 0.96039 0.38357 0.0
C156 C 0.03095 0.9687 0.37184 0.0
C157 C 0.01248 0.97501 0.38209 0.0
C158 C 0.01157 0.9734 0.40441 0.0
C159 C 0.02849 0.96511 0.41611 0.0
P160 P 0.23012 0.74034 0.75453 0.0
H161 H 0.24601 0.77889 0.77619 0.0
H162 H 0.24213 0.7925 0.81222 0.0
H163 H 0.20322 0.73746 0.82769 0.0
H164 H 0.20796 0.72357 0.7917 0.0
H165 H 0.22337 0.70437 0.72523 0.0
H166 H 0.23963 0.66987 0.72305 0.0
H167 H 0.27706 0.6846 0.77995 0.0
H168 H 0.26065 0.71908 0.78208 0.0
H169 H 0.21255 0.77034 0.72425 0.0
H170 H 0.19118 0.71374 0.7562 0.0
O171 O 0.24758 0.75578 0.74176 0.0
H172 H 0.17772 0.7729 0.70679 0.0
H173 H 0.156 0.71647 0.7392 0.0
C174 C 0.22744 0.75012 0.78133 0.0
C175 C 0.23674 0.76968 0.78735 0.0
C176 C 0.23428 0.77758 0.80795 0.0
C177 C 0.22226 0.76616 0.82294 0.0
C178 C 0.21279 0.74659 0.8167 0.0
C179 C 0.21539 0.73865 0.79609 0.0
C180 C 0.24029 0.71404 0.75422 0.0
C181 C 0.23472 0.70002 0.73751 0.0
C182 C 0.2441 0.68032 0.73622 0.0
C183 C 0.2596 0.67448 0.75135 0.0
C184 C 0.26527 0.68868 0.76797 0.0
C185 C 0.25573 0.7083 0.76935 0.0
C186 C 0.20455 0.74165 0.74124 0.0
C187 C 0.20037 0.7584 0.72746 0.0
C188 C 0.18035 0.75996 0.71763 0.0
C189 C 0.16403 0.74488 0.72157 0.0
C190 C 0.16828 0.72817 0.73556 0.0
C191 C 0.18835 0.72664 0.74537 0.0
P192 P 0.97755 0.51482 0.52978 0.0
H193 H 0.01369 0.53558 0.50914 0.0
H194 H 0.02942 0.53116 0.47401 0.0
H195 H 0.98022 0.48455 0.45742 0.0
H196 H 0.96465 0.48897 0.49228 0.0
H197 H 0.97482 0.53435 0.57153 0.0
H198 H 0.97166 0.57088 0.58337 0.0
H199 H 0.97048 0.59112 0.51768 0.0
H200 H 0.97262 0.55443 0.50605 0.0
H201 H 0.96691 0.47181 0.5427 0.0
H202 H 0.93349 0.52572 0.51938 0.0
O203 O 0.99512 0.50404 0.54641 0.0
H204 H 0.93381 0.4507 0.54155 0.0
H205 H 0.90015 0.50452 0.51796 0.0
C206 C 0.98785 0.51284 0.50328 0.0
C207 C 0.00615 0.52463 0.4978 0.0
C208 C 0.01508 0.52214 0.47774 0.0
C209 C 0.00605 0.50749 0.463 0.0
C210 C 0.98763 0.49583 0.46852 0.0
C211 C 0.97863 0.49846 0.48847 0.0
C212 C 0.97451 0.54179 0.53797 0.0
C213 C 0.97386 0.54669 0.55971 0.0
C214 C 0.97219 0.56762 0.56644 0.0
C215 C 0.97114 0.58405 0.55151 0.0
C216 C 0.97115 0.57891 0.52965 0.0
C217 C 0.97262 0.55793 0.52295 0.0
C218 C 0.95256 0.50041 0.53149 0.0
C219 C 0.95236 0.4792 0.53766 0.0
C220 C 0.93346 0.46709 0.53679 0.0
C221 C 0.91439 0.47592 0.52956 0.0
C222 C 0.91454 0.49735 0.52381 0.0
C223 C 0.93355 0.50946 0.52461 0.0
P224 P 0.84353 0.84809 0.84504 0.0
H225 H 0.88374 0.86399 0.82712 0.0
H226 H 0.90383 0.85344 0.79613 0.0
H227 H 0.85417 0.80707 0.77964 0.0
H228 H 0.83506 0.81678 0.81136 0.0
H229 H 0.81953 0.879 0.86849 0.0
H230 H 0.78609 0.89644 0.86091 0.0
H231 H 0.78269 0.86667 0.79875 0.0
H232 H 0.81549 0.84891 0.80667 0.0
H233 H 0.86281 0.80665 0.8481 0.0
H234 H 0.80882 0.8375 0.87434 0.0
O235 O 0.85934 0.86296 0.8611 0.0
H236 H 0.85242 0.7741 0.86628 0.0
H237 H 0.79879 0.80502 0.89306 0.0
C238 C 0.85791 0.84118 0.82153 0.0
C239 C 0.87726 0.85151 0.81685 0.0
C240 C 0.88866 0.84553 0.79899 0.0
C241 C 0.88074 0.8293 0.7853 0.0
C242 C 0.8611 0.81928 0.78998 0.0
C243 C 0.84995 0.82502 0.80799 0.0
C244 C 0.82018 0.86269 0.83817 0.0
C245 C 0.81168 0.87642 0.85315 0.0
C246 C 0.79258 0.88644 0.84875 0.0
C247 C 0.78161 0.88291 0.82923 0.0
C248 C 0.79048 0.86948 0.81409 0.0
C249 C 0.80946 0.85938 0.81858 0.0
C250 C 0.83614 0.82435 0.85915 0.0
C251 C 0.84861 0.80643 0.85758 0.0
C252 C 0.84274 0.78784 0.86804 0.0
C253 C 0.82467 0.78703 0.88082 0.0
C254 C 0.81274 0.80525 0.8832 0.0
C255 C 0.81842 0.82377 0.8724 0.0
P256 P 0.3441 0.35346 0.35627 0.0
H257 H 0.36978 0.37847 0.32705 0.0
H258 H 0.38844 0.36954 0.29446 0.0
H259 H 0.36871 0.30409 0.30173 0.0
H260 H 0.35024 0.31307 0.33417 0.0
H261 H 0.31578 0.38104 0.3788 0.0
H262 H 0.28186 0.39657 0.36887 0.0
H263 H 0.28557 0.36889 0.30599 0.0
H264 H 0.31902 0.35295 0.31626 0.0
H265 H 0.36925 0.32853 0.3857 0.0
H266 H 0.30526 0.32674 0.35953 0.0
O267 O 0.35894 0.37019 0.37136 0.0
H268 H 0.36182 0.29532 0.40432 0.0
H269 H 0.29778 0.29363 0.37792 0.0
C270 C 0.35899 0.34641 0.33324 0.0
C271 C 0.36972 0.36217 0.32173 0.0
C272 C 0.38023 0.35707 0.30306 0.0
C273 C 0.38014 0.33609 0.2956 0.0
C274 C 0.3694 0.32033 0.30727 0.0
C275 C 0.35879 0.32547 0.32584 0.0
C276 C 0.32011 0.36623 0.34815 0.0
C277 C 0.30936 0.37854 0.36281 0.0
C278 C 0.29001 0.38744 0.35708 0.0
C279 C 0.28102 0.38405 0.33659 0.0
C280 C 0.29193 0.37166 0.32195 0.0
C281 C 0.31122 0.36272 0.32774 0.0
C282 C 0.33771 0.3303 0.37159 0.0
C283 C 0.35352 0.32115 0.38423 0.0
C284 C 0.3493 0.30212 0.39471 0.0
C285 C 0.32918 0.29191 0.39264 0.0
C286 C 0.31331 0.30129 0.38013 0.0
C287 C 0.31759 0.32025 0.36957 0.0
P288 P 0.51044 0.97212 0.53384 0.0
H289 H 0.47765 0.95166 0.50574 0.0
H290 H 0.47672 0.91846 0.4858 0.0
H291 H 0.53801 0.90341 0.51298 0.0
H292 H 0.53876 0.93666 0.53318 0.0
H293 H 0.49912 0.01334 0.51698 0.0
H294 H 0.46566 0.03179 0.5149 0.0
H295 H 0.43411 0.97999 0.54725 0.0
H296 H 0.46782 0.96149 0.5492 0.0
H297 H 0.53609 0.00053 0.56111 0.0
H298 H 0.50251 0.94058 0.56705 0.0
O299 O 0.52888 0.98599 0.52067 0.0
H300 H 0.54704 0.99923 0.59859 0.0
H301 H 0.5138 0.93887 0.60455 0.0
C302 C 0.5081 0.94646 0.52132 0.0
C303 C 0.49064 0.94103 0.50791 0.0
C304 C 0.49012 0.92201 0.49648 0.0
C305 C 0.50726 0.9083 0.49789 0.0
C306 C 0.5246 0.91368 0.51155 0.0
C307 C 0.52499 0.9326 0.52317 0.0
C308 C 0.48585 0.98592 0.53297 0.0
C309 C 0.48505 0.00595 0.5237 0.0
C310 C 0.46593 0.01658 0.52269 0.0
C311 C 0.44724 0.00735 0.53093 0.0
C312 C 0.44821 0.98742 0.54061 0.0
C313 C 0.46742 0.97686 0.54175 0.0
C314 C 0.51897 0.97041 0.56123 0.0
C315 C 0.53133 0.98693 0.57044 0.0
C316 C 0.53761 0.98614 0.59187 0.0
C317 C 0.53149 0.96884 0.60454 0.0
C318 C 0.51872 0.95246 0.59528 0.0
C319 C 0.51242 0.95331 0.57381 0.0
P320 P 0.19313 0.28128 0.68131 0.0
H321 H 0.21466 0.31469 0.65759 0.0
H322 H 0.24128 0.34209 0.66782 0.0
H323 H 0.24583 0.31531 0.73081 0.0
H324 H 0.21935 0.28783 0.72039 0.0
H325 H 0.1751 0.25736 0.64521 0.0
H326 H 0.18816 0.22857 0.62367 0.0
H327 H 0.24524 0.2276 0.66318 0.0
H328 H 0.23212 0.25689 0.68447 0.0
H329 H 0.17781 0.30358 0.71841 0.0
H330 H 0.175 0.23981 0.69384 0.0
O331 O 0.17601 0.29418 0.66587 0.0
H332 H 0.15409 0.2931 0.74706 0.0
H333 H 0.1512 0.22923 0.72247 0.0
C334 C 0.21458 0.29965 0.68843 0.0
C335 C 0.22153 0.31462 0.67355 0.0
C336 C 0.23683 0.33019 0.67936 0.0
C337 C 0.24541 0.33102 0.70021 0.0
C338 C 0.23919 0.31529 0.71475 0.0
C339 C 0.22405 0.29959 0.70883 0.0
C340 C 0.20286 0.25954 0.66612 0.0
C341 C 0.19045 0.25101 0.64921 0.0
C342 C 0.19786 0.23436 0.63704 0.0
C343 C 0.21779 0.22576 0.64165 0.0
C344 C 0.22997 0.23405 0.659 0.0
C345 C 0.22249 0.25076 0.67121 0.0
C346 C 0.17855 0.27242 0.70422 0.0
C347 C 0.17254 0.28719 0.7195 0.0
C348 C 0.15899 0.28116 0.73591 0.0
C349 C 0.15084 0.2603 0.7371 0.0
C350 C 0.15719 0.24543 0.72195 0.0
C351 C 0.17091 0.25145 0.70563 0.0
P352 P 0.77674 0.18882 0.71083 0.0
H353 H 0.79582 0.22561 0.69047 0.0
H354 H 0.78146 0.25235 0.66681 0.0
H355 H 0.71797 0.2265 0.67619 0.0
H356 H 0.73248 0.19968 0.69969 0.0
H357 H 0.80825 0.16634 0.73538 0.0
H358 H 0.83448 0.17744 0.7628 0.0
H359 H 0.8093 0.24015 0.76224 0.0
H360 H 0.78314 0.22892 0.73475 0.0
H361 H 0.7552 0.15303 0.68974 0.0
H362 H 0.75361 0.18415 0.75091 0.0
O363 O 0.79172 0.17642 0.69335 0.0
H364 H 0.72862 0.12698 0.70129 0.0
H365 H 0.72653 0.15827 0.76258 0.0
C366 C 0.76528 0.21068 0.6969 0.0
C367 C 0.77876 0.226 0.68781 0.0
C368 C 0.77049 0.24134 0.67434 0.0
C369 C 0.74853 0.24156 0.66955 0.0
C370 C 0.73496 0.22665 0.67939 0.0
C371 C 0.74327 0.21134 0.69294 0.0
C372 C 0.7941 0.19692 0.73273 0.0
C373 C 0.80828 0.18243 0.74132 0.0
C374 C 0.82316 0.18876 0.75709 0.0
C375 C 0.82412 0.20974 0.76456 0.0
C376 C 0.8092 0.22398 0.75655 0.0
C377 C 0.79422 0.21758 0.74084 0.0
C378 C 0.75667 0.1702 0.71964 0.0
C379 C 0.74908 0.15425 0.70569 0.0
C380 C 0.7337 0.13948 0.71226 0.0
C381 C 0.72543 0.14051 0.73289 0.0
C382 C 0.73278 0.15687 0.7467 0.0
C383 C 0.74821 0.17168 0.74006 0.0
P384 P 0.54969 0.55091 0.55119 0.0
H385 H 0.54719 0.52706 0.59042 0.0
H386 H 0.51787 0.51765 0.61384 0.0
H387 H 0.47365 0.54574 0.56953 0.0
H388 H 0.50301 0.55453 0.54592 0.0
H389 H 0.59254 0.55074 0.53492 0.0
H390 H 0.61637 0.52252 0.52561 0.0
H391 H 0.56645 0.47618 0.53836 0.0
H392 H 0.54254 0.50462 0.54717 0.0
H393 H 0.53458 0.5937 0.55124 0.0
H394 H 0.54718 0.54603 0.50426 0.0
O395 O 0.56508 0.56552 0.56789 0.0
H396 H 0.52576 0.61846 0.52299 0.0
H397 H 0.53884 0.57092 0.47576 0.0
C398 C 0.52734 0.54156 0.56648 0.0
C399 C 0.53113 0.5309 0.58561 0.0
C400 C 0.51435 0.52571 0.59908 0.0
C401 C 0.49338 0.53118 0.59374 0.0
C402 C 0.48955 0.54117 0.57411 0.0
C403 C 0.50639 0.54631 0.5606 0.0
C404 C 0.5659 0.52978 0.54204 0.0
C405 C 0.58667 0.53451 0.53552 0.0
C406 C 0.60033 0.51833 0.53035 0.0
C407 C 0.59346 0.49702 0.53155 0.0
C408 C 0.57227 0.49239 0.53721 0.0
C409 C 0.55859 0.50865 0.54238 0.0
C410 C 0.54184 0.56817 0.52985 0.0
C411 C 0.53547 0.58859 0.5348 0.0
C412 C 0.53055 0.60277 0.51861 0.0
C413 C 0.53187 0.59681 0.49705 0.0
C414 C 0.53758 0.57602 0.49216 0.0
C415 C 0.54249 0.5618 0.50845 0.0
P416 P 0.56619 0.44272 0.92418 0.0
H417 H 0.59039 0.45133 0.96406 0.0
H418 H 0.61438 0.48026 0.97536 0.0
H419 H 0.60471 0.51026 0.9143 0.0
H420 H 0.57945 0.48205 0.9039 0.0
H421 H 0.55896 0.39739 0.92943 0.0
H422 H 0.54388 0.37609 0.95804 0.0
H423 H 0.53335 0.43285 0.99434 0.0
H424 H 0.54861 0.45409 0.96565 0.0
H425 H 0.55922 0.44281 0.8779 0.0
H426 H 0.52608 0.46284 0.93365 0.0
O427 O 0.58164 0.42735 0.90983 0.0
H428 H 0.52956 0.45394 0.85524 0.0
H429 H 0.49641 0.47403 0.91111 0.0
C430 C 0.58249 0.46489 0.93342 0.0
C431 C 0.59286 0.46448 0.95338 0.0
C432 C 0.60694 0.48094 0.95969 0.0
C433 C 0.6116 0.49777 0.94581 0.0
C434 C 0.6012 0.49797 0.92572 0.0
C435 C 0.58678 0.48172 0.91964 0.0
C436 C 0.55536 0.42728 0.94563 0.0
C437 C 0.55357 0.40526 0.94361 0.0
C438 C 0.54479 0.3931 0.9599 0.0
C439 C 0.53754 0.40279 0.9785 0.0
C440 C 0.53913 0.42491 0.98036 0.0
C441 C 0.54779 0.43706 0.96397 0.0
C442 C 0.54464 0.45155 0.90749 0.0
C443 C 0.54556 0.44958 0.88528 0.0
C444 C 0.52867 0.4561 0.87233 0.0
C445 C 0.51057 0.4647 0.88141 0.0
C446 C 0.50998 0.46712 0.90367 0.0
C447 C 0.52694 0.46073 0.91658 0.0
P448 P 0.73309 0.25974 0.24568 0.0
H449 H 0.76495 0.26509 0.27943 0.0
H450 H 0.76448 0.28073 0.31503 0.0
H451 H 0.69787 0.29393 0.30604 0.0
H452 H 0.69838 0.27786 0.27054 0.0
H453 H 0.76013 0.23768 0.21605 0.0
H454 H 0.77677 0.20331 0.21721 0.0
H455 H 0.74603 0.18996 0.27684 0.0
H456 H 0.72986 0.22457 0.27574 0.0
H457 H 0.71167 0.29079 0.21965 0.0
H458 H 0.69779 0.22819 0.24321 0.0
O459 O 0.74954 0.27572 0.23226 0.0
H460 H 0.67673 0.29108 0.20203 0.0
H461 H 0.66255 0.22846 0.22588 0.0
C462 C 0.73174 0.27022 0.27236 0.0
C463 C 0.75021 0.27123 0.28518 0.0
C464 C 0.74994 0.28035 0.30547 0.0
C465 C 0.73117 0.2888 0.31333 0.0
C466 C 0.71255 0.28747 0.30052 0.0
C467 C 0.71285 0.27832 0.28016 0.0
C468 C 0.74415 0.23383 0.24604 0.0
C469 C 0.75701 0.22735 0.22938 0.0
C470 C 0.76639 0.20761 0.22999 0.0
C471 C 0.76294 0.19392 0.24724 0.0
C472 C 0.74942 0.20028 0.26356 0.0
C473 C 0.74008 0.22002 0.26292 0.0
C474 C 0.70748 0.2593 0.23233 0.0
C475 C 0.70112 0.27704 0.22092 0.0
C476 C 0.68104 0.27726 0.21103 0.0
C477 C 0.66684 0.25977 0.21251 0.0
C478 C 0.67323 0.24205 0.22415 0.0
C479 C 0.69336 0.24188 0.2341 0.0
P480 P 0.46418 0.02287 0.02582 0.0
H481 H 0.47383 0.98572 0.0014 0.0
H482 H 0.49392 0.98011 0.96914 0.0
H483 H 0.5079 0.04722 0.96556 0.0
H484 H 0.4872 0.05275 0.99765 0.0
H485 H 0.49463 0.04892 0.05052 0.0
H486 H 0.49396 0.08514 0.06412 0.0
H487 H 0.4326 0.09275 0.03331 0.0
H488 H 0.43328 0.05646 0.02002 0.0
H489 H 0.43502 0.02305 0.98882 0.0
H490 H 0.43472 0.99967 0.05316 0.0
O491 O 0.47588 0.00882 0.0449 0.0
H492 H 0.39995 0.00631 0.98197 0.0
H493 H 0.39999 0.98245 0.04636 0.0
C494 C 0.47911 0.01958 0.00195 0.0
C495 C 0.48123 0.99922 0.99366 0.0
C496 C 0.49285 0.99604 0.97529 0.0
C497 C 0.50272 0.0132 0.96486 0.0
C498 C 0.50039 0.03369 0.97313 0.0
C499 C 0.48866 0.03686 0.99155 0.0
C500 C 0.46383 0.04989 0.03466 0.0
C501 C 0.48104 0.05841 0.04672 0.0
C502 C 0.4807 0.07915 0.05435 0.0
C503 C 0.46313 0.09176 0.04995 0.0
C504 C 0.44617 0.0833 0.03732 0.0
C505 C 0.44657 0.06257 0.02964 0.0
C506 C 0.43761 0.01217 0.02134 0.0
C507 C 0.42737 0.01432 0.00147 0.0
C508 C 0.40735 0.00471 0.99758 0.0
C509 C 0.39721 0.99285 0.01354 0.0
C510 C 0.40719 0.9916 0.03375 0.0
C511 C 0.42718 0.00127 0.03762 0.0
Zn512 Zn 0.26996 0.83846 0.00371 0.0
Zn513 Zn 0.2362 0.86185 0.00517 0.0
O514 O 0.23511 0.84566 0.03405 0.0
O515 O 0.26544 0.82914 0.03372 0.0
O516 O 0.21133 0.88163 0.00588 0.0
O517 O 0.28933 0.86338 0.99841 0.0
O518 O 0.26177 0.88334 0.00308 0.0
C519 C 0.24867 0.83394 0.04319 0.0
C520 C 0.24046 0.82781 0.97009 0.0
O521 O 0.23057 0.84333 0.97786 0.0
O522 O 0.25747 0.8219 0.97901 0.0
C523 C 0.1939 0.8781 0.01539 0.0
O524 O 0.19091 0.86008 0.02532 0.0
C525 C 0.28161 0.88153 0.99985 0.0
Zn526 Zn 0.09211 0.44381 0.29372 0.0
Zn527 Zn 0.11099 0.48281 0.29097 0.0
O528 O 0.09145 0.48651 0.31644 0.0
O529 O 0.07485 0.45542 0.31791 0.0
O530 O 0.12643 0.51093 0.28794 0.0
O531 O 0.12097 0.43144 0.30006 0.0
O532 O 0.1357 0.46318 0.29683 0.0
C533 C 0.07782 0.47408 0.325 0.0
C534 C 0.08501 0.46335 0.2531 0.0
O535 O 0.0957 0.47854 0.26193 0.0
O536 O 0.08152 0.44638 0.26319 0.0
C537 C 0.11809 0.52699 0.27956 0.0
O538 O 0.09807 0.52575 0.27311 0.0
C539 C 0.13742 0.44351 0.30027 0.0
Zn540 Zn 0.78237 0.60285 0.95255 0.0
Zn541 Zn 0.77318 0.62184 0.98927 0.0
O542 O 0.79891 0.60425 0.9981 0.0
O543 O 0.80366 0.58554 0.96895 0.0
O544 O 0.76487 0.63696 0.01607 0.0
O545 O 0.79143 0.631 0.94018 0.0
O546 O 0.78043 0.64656 0.96923 0.0
C547 C 0.80856 0.58989 0.98819 0.0
C548 C 0.73965 0.59407 0.9648 0.0
O549 O 0.74599 0.60418 0.98147 0.0
O550 O 0.75191 0.59221 0.94919 0.0
C551 C 0.77814 0.64778 0.0275 0.0
O552 O 0.79825 0.64866 0.02218 0.0
C553 C 0.7881 0.6477 0.95062 0.0
Zn554 Zn 0.83943 0.01344 0.28415 0.0
Zn555 Zn 0.86196 0.01719 0.24872 0.0
O556 O 0.84519 0.04503 0.24902 0.0
O557 O 0.82597 0.04116 0.27774 0.0
O558 O 0.88148 0.01983 0.22349 0.0
O559 O 0.86574 0.01269 0.30276 0.0
O560 O 0.88411 0.01394 0.27333 0.0
C561 C 0.83135 0.05196 0.26171 0.0
C562 C 0.83059 0.97956 0.25407 0.0
O563 O 0.84349 0.99008 0.24245 0.0
O564 O 0.82652 0.9861 0.2726 0.0
C565 C 0.87589 0.02261 0.20414 0.0
O566 O 0.85559 0.02413 0.1992 0.0
C567 C 0.88347 0.01261 0.29358 0.0
Zn568 Zn 0.29286 0.10126 0.44849 0.0
Zn569 Zn 0.28269 0.11706 0.48657 0.0
O570 O 0.30794 0.0983 0.49448 0.0
O571 O 0.31554 0.08457 0.46331 0.0
O572 O 0.27548 0.13171 0.51401 0.0
O573 O 0.29981 0.13026 0.43701 0.0
O574 O 0.2904 0.14282 0.46803 0.0
C575 C 0.31903 0.08613 0.48322 0.0
C576 C 0.25006 0.08989 0.46062 0.0
O577 O 0.25525 0.10016 0.47759 0.0
O578 O 0.26318 0.08861 0.44565 0.0
C579 C 0.26459 0.12397 0.52908 0.0
O580 O 0.25728 0.10436 0.52764 0.0
C581 C 0.29701 0.14586 0.44921 0.0
Zn582 Zn 0.33796 0.49478 0.77909 0.0
Zn583 Zn 0.36088 0.49936 0.74405 0.0
O584 O 0.34362 0.52689 0.74453 0.0
O585 O 0.32296 0.52158 0.77204 0.0
O586 O 0.38066 0.50256 0.71904 0.0
O587 O 0.36413 0.49559 0.79807 0.0
O588 O 0.38281 0.49639 0.76883 0.0
C589 C 0.32877 0.53292 0.75654 0.0
C590 C 0.33065 0.46074 0.74899 0.0
O591 O 0.34294 0.47195 0.73736 0.0
O592 O 0.3266 0.46678 0.7677 0.0
C593 C 0.37616 0.51019 0.70085 0.0
O594 O 0.35683 0.51668 0.69695 0.0
C595 C 0.38197 0.49553 0.78909 0.0
Zn596 Zn 0.76958 0.33425 0.50577 0.0
Zn597 Zn 0.74036 0.36241 0.5071 0.0
O598 O 0.73343 0.34229 0.53255 0.0
O599 O 0.75555 0.31646 0.52782 0.0
O600 O 0.71772 0.38459 0.50856 0.0
O601 O 0.79226 0.35576 0.5143 0.0
O602 O 0.76834 0.3803 0.51181 0.0
C603 C 0.74052 0.32437 0.53796 0.0
C604 C 0.74805 0.33692 0.46587 0.0
O605 O 0.73676 0.34977 0.47621 0.0
O606 O 0.7637 0.32845 0.475 0.0
C607 C 0.69808 0.38013 0.5112 0.0
O608 O 0.69183 0.36023 0.5128 0.0
C609 C 0.78757 0.37503 0.51503 0.0
Zn610 Zn 0.59127 0.94434 0.79877 0.0
Zn611 Zn 0.60965 0.98344 0.79447 0.0
O612 O 0.59091 0.98767 0.82057 0.0
O613 O 0.57578 0.95608 0.82404 0.0
O614 O 0.62419 0.01178 0.78949 0.0
O615 O 0.62062 0.93247 0.80338 0.0
O616 O 0.63497 0.96436 0.7999 0.0
C617 C 0.57837 0.97504 0.83036 0.0
C618 C 0.58202 0.96269 0.75817 0.0
O619 O 0.59337 0.97785 0.76619 0.0
O620 O 0.57851 0.94612 0.7689 0.0
C621 C 0.6345 0.01365 0.77234 0.0
O622 O 0.63493 0.99741 0.75925 0.0
C623 C 0.63696 0.94467 0.80314 0.0
Zn624 Zn 0.99247 0.28552 0.84681 0.0
Zn625 Zn 0.99776 0.25274 0.87158 0.0
O626 O 0.02283 0.25068 0.85052 0.0
O627 O 0.01511 0.27548 0.82742 0.0
O628 O 0.00216 0.22853 0.89207 0.0
O629 O 1.00009 0.30596 0.8705 0.0
O630 O 0.99948 0.27869 0.89207 0.0
C631 C 0.02669 0.26048 0.83324 0.0
C632 C 0.95558 0.25816 0.84685 0.0
O633 O 0.96786 0.24649 0.85775 0.0
O634 O 0.96196 0.2764 0.84127 0.0
C635 C 0.00206 0.20914 0.88666 0.0
O636 O 0.99883 0.20396 0.86653 0.0
C637 C 0.00116 0.29858 0.88915 0.0
Zn638 Zn 0.49605 0.78182 0.34164 0.0
Zn639 Zn 0.49949 0.7493 0.36746 0.0
O640 O 0.52593 0.74694 0.34806 0.0
O641 O 0.52066 0.77224 0.32477 0.0
O642 O 0.50239 0.72511 0.38828 0.0
O643 O 0.50072 0.80239 0.36594 0.0
O644 O 0.50066 0.77533 0.38774 0.0
C645 C 0.53144 0.75697 0.33137 0.0
C646 C 0.45925 0.75436 0.33902 0.0
O647 O 0.47007 0.74343 0.35215 0.0
O648 O 0.46668 0.77196 0.33269 0.0
C649 C 0.50616 0.70622 0.38287 0.0
O650 O 0.50806 0.70161 0.36258 0.0
C651 C 0.50162 0.79523 0.3847 0.0
Zn652 Zn 0.94837 0.7778 0.60327 0.0
Zn653 Zn 0.9877 0.77526 0.62171 0.0
O654 O 0.99243 0.7977 0.59875 0.0
O655 O 0.96057 0.80066 0.58402 0.0
O656 O 0.01665 0.7728 0.63582 0.0
O657 O 0.93668 0.78524 0.63206 0.0
O658 O 0.96891 0.78438 0.6464 0.0
C659 C 0.98012 0.80619 0.58512 0.0
C660 C 0.9658 0.73656 0.59945 0.0
O661 O 0.98137 0.74538 0.60974 0.0
O662 O 0.94957 0.74703 0.5946 0.0
C663 C 0.01983 0.75822 0.64924 0.0
O664 O 0.00407 0.74497 0.65367 0.0
C665 C 0.94907 0.78737 0.64814 0.0
Zn666 Zn 0.4414 0.28278 0.11068 0.0
Zn667 Zn 0.48044 0.27895 0.1294 0.0
O668 O 0.48606 0.30101 0.10617 0.0
O669 O 0.45457 0.30434 0.09076 0.0
O670 O 0.50897 0.27624 0.14424 0.0
O671 O 0.42979 0.29214 0.139 0.0
O672 O 0.46153 0.28854 0.15372 0.0
C673 C 0.47421 0.30939 0.09205 0.0
C674 C 0.45775 0.24079 0.10741 0.0
O675 O 0.47359 0.24918 0.11761 0.0
O676 O 0.44177 0.2517 0.10272 0.0
C677 C 0.52425 0.26674 0.13581 0.0
O678 O 0.52152 0.25847 0.11667 0.0
C679 C 0.44205 0.29322 0.15526 0.0
H680 H 0.21754 0.80722 0.836 0.0
H681 H 0.22243 0.74381 0.86023 0.0
H682 H 0.2184 0.82102 0.8723 0.0
H683 H 0.22204 0.7575 0.89649 0.0
H684 H 0.20952 0.83995 0.94128 0.0
H685 H 0.20106 0.82407 0.90631 0.0
H686 H 0.24749 0.77642 0.91833 0.0
H687 H 0.25543 0.79177 0.95305 0.0
C688 C 0.21859 0.79618 0.84905 0.0
C689 C 0.22026 0.7744 0.8451 0.0
C690 C 0.21875 0.80409 0.86992 0.0
C691 C 0.22048 0.79041 0.88738 0.0
C692 C 0.22106 0.76855 0.88343 0.0
C693 C 0.22103 0.76065 0.86258 0.0
C694 C 0.21761 0.82588 0.93654 0.0
C695 C 0.23324 0.81724 0.94993 0.0
C696 C 0.21289 0.81686 0.91645 0.0
C697 C 0.22363 0.79898 0.90943 0.0
C698 C 0.23864 0.78997 0.92323 0.0
C699 C 0.24335 0.79893 0.94317 0.0
H700 H 0.01404 0.46957 0.4448 0.0
H701 H 0.02126 0.53671 0.43461 0.0
H702 H 0.03071 0.4628 0.41094 0.0
H703 H 0.03757 0.53 0.40026 0.0
H704 H 0.0867 0.50806 0.3513 0.0
H705 H 0.06904 0.517 0.38431 0.0
H706 H 0.0241 0.4648 0.37379 0.0
H707 H 0.04219 0.45546 0.34138 0.0
C708 C 0.01896 0.48289 0.43514 0.0
C709 C 0.01622 0.50366 0.44228 0.0
C710 C 0.02846 0.47903 0.41567 0.0
C711 C 0.03531 0.49585 0.4027 0.0
C712 C 0.03268 0.51667 0.40992 0.0
C713 C 0.02331 0.52053 0.42955 0.0
C714 C 0.07295 0.49862 0.35599 0.0
C715 C 0.06599 0.48092 0.34386 0.0
C716 C 0.06276 0.50378 0.37487 0.0
C717 C 0.04529 0.49147 0.38189 0.0
C718 C 0.03784 0.47432 0.3692 0.0
C719 C 0.04813 0.46903 0.35051 0.0
H720 H 0.81876 0.74842 0.86235 0.0
H721 H 0.816 0.78079 0.92282 0.0
H722 H 0.80893 0.71521 0.87936 0.0
H723 H 0.80716 0.74736 0.94027 0.0
H724 H 0.77347 0.68641 0.96197 0.0
H725 H 0.78119 0.72034 0.94511 0.0
H726 H 0.8231 0.68972 0.90157 0.0
H727 H 0.81451 0.65589 0.91769 0.0
C728 C 0.81621 0.74831 0.87937 0.0
C729 C 0.81823 0.76707 0.89132 0.0
C730 C 0.81071 0.72927 0.88919 0.0
C731 C 0.80748 0.72844 0.9113 0.0
C732 C 0.80926 0.74736 0.9232 0.0
C733 C 0.81442 0.76651 0.91326 0.0
C734 C 0.7843 0.687 0.94877 0.0
C735 C 0.79325 0.66847 0.94105 0.0
C736 C 0.78884 0.70647 0.93916 0.0
C737 C 0.80268 0.70785 0.92182 0.0
C738 C 0.81194 0.68929 0.91448 0.0
C739 C 0.80714 0.66985 0.92384 0.0
H740 H 0.97049 0.96482 0.38766 0.0
H741 H 0.01249 0.00167 0.34777 0.0
H742 H 0.94005 0.97568 0.36635 0.0
H743 H 0.98191 0.01267 0.32639 0.0
H744 H 0.92376 0.00571 0.27954 0.0
H745 H 0.95532 0.99806 0.30112 0.0
H746 H 0.91935 0.00611 0.35836 0.0
H747 H 0.8878 0.01323 0.33691 0.0
C748 C 0.9732 0.97552 0.37453 0.0
C749 C 0.99392 0.98243 0.36947 0.0
C750 C 0.95573 0.98175 0.36229 0.0
C751 C 0.95851 0.99512 0.34469 0.0
C752 C 0.97923 0.00216 0.33968 0.0
C753 C 0.99674 0.99588 0.35194 0.0
C754 C 0.92265 0.00602 0.29673 0.0
C755 C 0.9032 0.00989 0.30647 0.0
C756 C 0.94077 0.00172 0.30911 0.0
C757 C 0.93981 0.00126 0.33148 0.0
C758 C 0.92054 0.0059 0.34118 0.0
C759 C 0.90246 0.01011 0.32885 0.0
H760 H 0.19576 0.19157 0.62438 0.0
H761 H 0.2584 0.22153 0.62751 0.0
H762 H 0.20824 0.16601 0.59872 0.0
H763 H 0.27114 0.19537 0.60256 0.0
H764 H 0.27654 0.16527 0.53607 0.0
H765 H 0.26635 0.18823 0.56502 0.0
H766 H 0.23092 0.13634 0.59316 0.0
H767 H 0.24076 0.11337 0.56379 0.0
C768 C 0.21225 0.19259 0.61974 0.0
C769 C 0.22601 0.20876 0.62785 0.0
C770 C 0.21948 0.17776 0.60521 0.0
C771 C 0.24068 0.17869 0.59845 0.0
C772 C 0.25464 0.19438 0.60718 0.0
C773 C 0.24739 0.20923 0.6217 0.0
C774 C 0.26668 0.15867 0.54848 0.0
C775 C 0.25938 0.13747 0.54753 0.0
C776 C 0.26096 0.17183 0.5652 0.0
C777 C 0.24781 0.16416 0.58146 0.0
C778 C 0.24085 0.14284 0.58076 0.0
C779 C 0.24658 0.12963 0.56398 0.0
H780 H 0.45205 0.51762 0.58521 0.0
H781 H 0.49489 0.53641 0.63703 0.0
H782 H 0.42345 0.51192 0.61053 0.0
H783 H 0.46645 0.53069 0.66221 0.0
H784 H 0.41756 0.49831 0.70404 0.0
H785 H 0.44531 0.50249 0.6778 0.0
H786 H 0.40067 0.53127 0.63449 0.0
H787 H 0.3727 0.52674 0.66066 0.0
C788 C 0.45536 0.52062 0.60197 0.0
C789 C 0.47585 0.52734 0.60905 0.0
C790 C 0.43895 0.51737 0.61649 0.0
C791 C 0.44264 0.52074 0.63845 0.0
C792 C 0.46311 0.52752 0.64548 0.0
C793 C 0.47947 0.53078 0.63101 0.0
C794 C 0.41359 0.50547 0.6889 0.0
C795 C 0.39287 0.51226 0.68452 0.0
C796 C 0.42957 0.50798 0.67388 0.0
C797 C 0.4253 0.51734 0.65405 0.0
C798 C 0.40449 0.52382 0.64951 0.0
C799 C 0.38847 0.52132 0.66457 0.0
H800 H 0.75938 0.28331 0.66308 0.0
H801 H 0.7194 0.23208 0.63776 0.0
H802 H 0.75077 0.30454 0.63193 0.0
H803 H 0.71036 0.25352 0.60696 0.0
H804 H 0.7378 0.28215 0.54388 0.0
H805 H 0.73371 0.26363 0.57739 0.0
H806 H 0.72337 0.32283 0.60949 0.0
H807 H 0.72743 0.34149 0.57555 0.0
C808 C 0.74842 0.27674 0.65108 0.0
C809 C 0.74031 0.25589 0.65279 0.0
C810 C 0.74328 0.289 0.63335 0.0
C811 C 0.73001 0.28064 0.61689 0.0
C812 C 0.72079 0.26033 0.61929 0.0
C813 C 0.72585 0.2481 0.63704 0.0
C814 C 0.73406 0.29116 0.55797 0.0
C815 C 0.73303 0.31325 0.55716 0.0
C816 C 0.73161 0.28054 0.57719 0.0
C817 C 0.72835 0.29177 0.59615 0.0
C818 C 0.72602 0.31378 0.59515 0.0
C819 C 0.72815 0.32443 0.57573 0.0
H820 H 0.50817 0.95584 0.63877 0.0
H821 H 0.57057 0.97987 0.62179 0.0
H822 H 0.51964 0.95478 0.67612 0.0
H823 H 0.58197 0.9789 0.65907 0.0
H824 H 0.58842 0.99479 0.72981 0.0
H825 H 0.57554 0.99656 0.693 0.0
H826 H 0.54393 0.93551 0.69947 0.0
H827 H 0.55649 0.93384 0.73638 0.0
C828 C 0.52438 0.96073 0.64297 0.0
C829 C 0.53844 0.96797 0.62729 0.0
C830 C 0.53094 0.96016 0.66438 0.0
C831 C 0.55169 0.96683 0.67057 0.0
C832 C 0.56575 0.97401 0.65488 0.0
C833 C 0.55922 0.97455 0.6335 0.0
C834 C 0.57862 0.98179 0.72344 0.0
C835 C 0.57352 0.96415 0.73606 0.0
C836 C 0.57135 0.98275 0.70229 0.0
C837 C 0.55879 0.96613 0.69328 0.0
C838 C 0.5534 0.94866 0.70599 0.0
C839 C 0.5607 0.94767 0.72713 0.0
H840 H 0.8397 0.18971 0.80006 0.0
H841 H 0.84826 0.24605 0.76242 0.0
H842 H 0.86983 0.20104 0.82307 0.0
H843 H 0.87838 0.25716 0.78497 0.0
H844 H 0.92174 0.28176 0.83613 0.0
H845 H 0.88832 0.27 0.81926 0.0
H846 H 0.90804 0.20531 0.82265 0.0
H847 H 0.94132 0.21716 0.84043 0.0
C848 C 0.848 0.20452 0.79673 0.0
C849 C 0.84151 0.21705 0.77949 0.0
C850 C 0.86529 0.21098 0.80987 0.0
C851 C 0.87654 0.23007 0.80598 0.0
C852 C 0.86985 0.24262 0.78882 0.0
C853 C 0.85254 0.23624 0.77582 0.0
C854 C 0.91883 0.26498 0.83355 0.0
C855 C 0.93426 0.25039 0.83938 0.0
C856 C 0.89971 0.25824 0.82372 0.0
C857 C 0.89561 0.23674 0.81914 0.0
C858 C 0.91059 0.22199 0.826 0.0
C859 C 0.92969 0.22876 0.83614 0.0
H860 H 0.47546 0.87852 0.49023 0.0
H861 H 0.54001 0.89562 0.47362 0.0
H862 H 0.47531 0.84938 0.46435 0.0
H863 H 0.53983 0.86657 0.44786 0.0
H864 H 0.51594 0.83611 0.38367 0.0
H865 H 0.51845 0.86156 0.41289 0.0
H866 H 0.49444 0.81414 0.45605 0.0
H867 H 0.49213 0.78834 0.42668 0.0
C868 C 0.48966 0.8759 0.48121 0.0
C869 C 0.50773 0.88936 0.4839 0.0
C870 C 0.48962 0.85916 0.46655 0.0
C871 C 0.50753 0.8558 0.45407 0.0
C872 C 0.52578 0.86889 0.4572 0.0
C873 C 0.52592 0.88541 0.47204 0.0
C874 C 0.51128 0.83102 0.39939 0.0
C875 C 0.50379 0.81021 0.40286 0.0
C876 C 0.51285 0.84558 0.41615 0.0
C877 C 0.50669 0.83979 0.43673 0.0
C878 C 0.49924 0.81899 0.4403 0.0
C879 C 0.49801 0.80425 0.42354 0.0
H880 H 0.11377 0.23756 0.73016 0.0
H881 H 0.15023 0.27085 0.77953 0.0
H882 H 0.08423 0.23273 0.75446 0.0
H883 H 0.12048 0.2662 0.8038 0.0
H884 H 0.06479 0.24364 0.84559 0.0
H885 H 0.09614 0.23916 0.82337 0.0
H886 H 0.06058 0.26092 0.76863 0.0
H887 H 0.02968 0.2656 0.79064 0.0
C888 C 0.11568 0.24341 0.74635 0.0
C889 C 0.13429 0.25472 0.75288 0.0
C890 C 0.09871 0.24076 0.76021 0.0
C891 C 0.10001 0.24921 0.78096 0.0
C892 C 0.11908 0.2594 0.78794 0.0
C893 C 0.13601 0.26223 0.77399 0.0
C894 C 0.06365 0.2471 0.82874 0.0
C895 C 0.04486 0.25507 0.81985 0.0
C896 C 0.08158 0.24465 0.81608 0.0
C897 C 0.08077 0.24967 0.79427 0.0
C898 C 0.06164 0.25671 0.78531 0.0
C899 C 0.04397 0.25952 0.79796 0.0
H900 H 0.54452 0.63848 0.4963 0.0
H901 H 0.5103 0.59065 0.45885 0.0
H902 H 0.53775 0.66437 0.46873 0.0
H903 H 0.50349 0.61667 0.43113 0.0
H904 H 0.51547 0.6646 0.37703 0.0
H905 H 0.52142 0.63796 0.40427 0.0
H906 H 0.50888 0.68383 0.45327 0.0
H907 H 0.50334 0.71052 0.42613 0.0
C908 C 0.53535 0.63352 0.48227 0.0
C909 C 0.52783 0.61247 0.4799 0.0
C910 C 0.53145 0.6484 0.46643 0.0
C911 C 0.51995 0.64269 0.44773 0.0
C912 C 0.5126 0.62159 0.44522 0.0
C913 C 0.5165 0.60666 0.46111 0.0
C914 C 0.51393 0.66899 0.39362 0.0
C915 C 0.50901 0.68976 0.39937 0.0
C916 C 0.51723 0.65367 0.40924 0.0
C917 C 0.51573 0.65874 0.431 0.0
C918 C 0.51052 0.67944 0.4367 0.0
C919 C 0.50721 0.69474 0.4211 0.0
H920 H 0.90516 0.85429 0.75891 0.0
H921 H 0.88372 0.7895 0.76824 0.0
H922 H 0.92344 0.84362 0.7268 0.0
H923 H 0.90103 0.77931 0.73553 0.0
H924 H 0.90829 0.78141 0.66102 0.0
H925 H 0.89334 0.79115 0.69517 0.0
H926 H 0.95465 0.81661 0.71633 0.0
H927 H 0.96989 0.80641 0.68221 0.0
C928 C 0.90448 0.83778 0.75433 0.0
C929 C 0.89273 0.82282 0.76618 0.0
C930 C 0.91489 0.83173 0.73588 0.0
C931 C 0.91348 0.81071 0.72872 0.0
C932 C 0.90213 0.79568 0.74066 0.0
C933 C 0.89207 0.80161 0.75929 0.0
C934 C 0.91862 0.78904 0.67295 0.0
C935 C 0.94026 0.79317 0.66895 0.0
C936 C 0.91008 0.79451 0.6925 0.0
C937 C 0.92289 0.80458 0.70829 0.0
C938 C 0.94449 0.80888 0.70432 0.0
C939 C 0.95318 0.80299 0.68489 0.0
H940 H 0.0063 0.87643 0.47056 0.0
H941 H 0.05223 0.90328 0.51596 0.0
H942 H 0.99218 0.85332 0.49803 0.0
H943 H 0.03744 0.88077 0.54375 0.0
H944 H 0.02168 0.81919 0.58007 0.0
H945 H 0.03579 0.84384 0.55382 0.0
H946 H 0.97196 0.85417 0.53015 0.0
H947 H 0.95791 0.82919 0.55598 0.0
C948 C 0.01338 0.87742 0.48642 0.0
C949 C 0.03047 0.89164 0.49102 0.0
C950 C 0.00509 0.86436 0.50226 0.0
C951 C 0.01364 0.86521 0.52313 0.0
C952 C 0.03062 0.87956 0.52779 0.0
C953 C 0.03893 0.89264 0.51192 0.0
C954 C 0.01065 0.82679 0.56933 0.0
C955 C 0.98868 0.82209 0.57006 0.0
C956 C 0.01873 0.84102 0.55435 0.0
C957 C 0.00502 0.8509 0.53979 0.0
C958 C 0.98301 0.84655 0.54086 0.0
C959 C 0.97494 0.8323 0.55578 0.0
H960 H 0.13819 0.71321 0.70453 0.0
H961 H 0.14149 0.78069 0.71511 0.0
H962 H 0.1034 0.71633 0.68711 0.0
H963 H 0.10679 0.7838 0.69761 0.0
H964 H 0.05543 0.78365 0.64475 0.0
H965 H 0.09017 0.7802 0.66216 0.0
H966 H 0.06672 0.72491 0.69527 0.0
H967 H 0.03208 0.72814 0.67764 0.0
C968 C 0.13143 0.72868 0.70332 0.0
C969 C 0.14268 0.7467 0.71118 0.0
C970 C 0.11149 0.73047 0.69331 0.0
C971 C 0.10234 0.75033 0.69091 0.0
C972 C 0.11354 0.76832 0.69887 0.0
C973 C 0.13345 0.76653 0.7089 0.0
C974 C 0.05768 0.77074 0.65573 0.0
C975 C 0.04096 0.75617 0.6598 0.0
C976 C 0.07756 0.76883 0.6658 0.0
C977 C 0.08121 0.75229 0.68013 0.0
C978 C 0.06451 0.73769 0.68413 0.0
C979 C 0.04461 0.73962 0.67411 0.0
H980 H 0.94829 0.61599 0.53378 0.0
H981 H 0.99219 0.60293 0.58557 0.0
H982 H 0.94767 0.65273 0.54513 0.0
H983 H 0.99047 0.63933 0.59773 0.0
H984 H 1.00015 0.71099 0.60075 0.0
H985 H 0.00158 0.67434 0.58896 0.0
H986 H 0.93451 0.67452 0.57239 0.0
H987 H 0.9333 0.7113 0.5834 0.0
C988 C 0.9578 0.62092 0.5476 0.0
C989 C 0.9703 0.60643 0.55873 0.0
C990 C 0.95721 0.64196 0.55431 0.0
C991 C 0.96896 0.64904 0.57242 0.0
C992 C 0.98141 0.63454 0.58358 0.0
C993 C 0.98214 0.61354 0.57677 0.0
C994 C 0.98572 0.70318 0.59459 0.0
C995 C 0.96663 0.7141 0.59294 0.0
C996 C 0.9865 0.68212 0.58794 0.0
C997 C 0.96817 0.67143 0.57965 0.0
C998 C 0.94904 0.68233 0.57828 0.0
C999 C 0.94831 0.70342 0.58474 0.0
H1000 H 0.74181 0.87373 0.24013 0.0
H1001 H 0.78366 0.8642 0.18751 0.0
H1002 H 0.76241 0.90524 0.25072 0.0
H1003 H 0.80494 0.89553 0.1985 0.0
H1004 H 0.82461 0.96542 0.21277 0.0
H1005 H 0.80528 0.93324 0.20077 0.0
H1006 H 0.79505 0.91596 0.26638 0.0
H1007 H 0.81337 0.94828 0.27815 0.0
C1008 C 0.75568 0.87821 0.23104 0.0
C1009 C 0.76123 0.8664 0.21312 0.0
C1010 C 0.76757 0.89628 0.23712 0.0
C1011 C 0.78554 0.90291 0.22562 0.0
C1012 C 0.79109 0.89107 0.20762 0.0
C1013 C 0.77898 0.87307 0.20137 0.0
C1014 C 0.81824 0.95466 0.22455 0.0
C1015 C 0.82027 0.95953 0.24638 0.0
C1016 C 0.80725 0.93616 0.21771 0.0
C1017 C 0.7983 0.92206 0.23259 0.0
C1018 C 0.80113 0.92667 0.25441 0.0
C1019 C 0.81178 0.9452 0.26119 0.0
H1020 H 0.76975 0.16553 0.21492 0.0
H1021 H 0.78092 0.1758 0.28237 0.0
H1022 H 0.78702 0.13153 0.21744 0.0
H1023 H 0.79797 0.14192 0.28487 0.0
H1024 H 0.80243 0.07071 0.28674 0.0
H1025 H 0.78658 0.10484 0.28232 0.0
H1026 H 0.82202 0.11501 0.22487 0.0
H1027 H 0.8379 0.08036 0.22914 0.0
C1028 C 0.77603 0.16064 0.23024 0.0
C1029 C 0.77374 0.17333 0.24849 0.0
C1030 C 0.78595 0.14117 0.23167 0.0
C1031 C 0.79372 0.13394 0.25138 0.0
C1032 C 0.79178 0.14682 0.26951 0.0
C1033 C 0.78194 0.16624 0.26809 0.0
C1034 C 0.80691 0.08012 0.2731 0.0
C1035 C 0.82156 0.07276 0.25833 0.0
C1036 C 0.79788 0.09981 0.27066 0.0
C1037 C 0.80318 0.11276 0.25337 0.0
C1038 C 0.81755 0.10535 0.23832 0.0
C1039 C 0.82671 0.08555 0.24082 0.0
H1040 H 0.36257 0.98678 0.03906 0.0
H1041 H 0.38664 0.97051 0.97728 0.0
H1042 H 0.33243 0.96208 0.03316 0.0
H1043 H 0.35614 0.94658 0.97108 0.0
H1044 H 0.32221 0.88289 0.9858 0.0
H1045 H 0.34758 0.91246 0.98682 0.0
H1046 H 0.29963 0.95256 0.01205 0.0
H1047 H 0.274 0.92259 0.01126 0.0
C1048 C 0.36127 0.97818 0.0241 0.0
C1049 C 0.37719 0.98044 0.00877 0.0
C1050 C 0.34386 0.96423 0.02062 0.0
C1051 C 0.34201 0.95221 0.00174 0.0
C1052 C 0.35727 0.95539 0.98592 0.0
C1053 C 0.37466 0.96931 0.9894 0.0
C1054 C 0.31693 0.89803 0.99138 0.0
C1055 C 0.2961 0.90033 0.99859 0.0
C1056 C 0.33147 0.91507 0.99179 0.0
C1057 C 0.32563 0.93489 0.99948 0.0
C1058 C 0.30462 0.93743 0.00617 0.0
C1059 C 0.28994 0.92032 0.00561 0.0
H1060 H 0.26641 0.42318 0.34642 0.0
H1061 H 0.24832 0.36516 0.31336 0.0
H1062 H 0.23178 0.4374 0.33754 0.0
H1063 H 0.21413 0.37975 0.30361 0.0
H1064 H 0.14662 0.40306 0.31136 0.0
H1065 H 0.18133 0.38897 0.3199 0.0
H1066 H 0.21103 0.45 0.30771 0.0
H1067 H 0.17623 0.46426 0.29969 0.0
C1068 C 0.25506 0.41347 0.33724 0.0
C1069 C 0.26015 0.39301 0.33064 0.0
C1070 C 0.2353 0.42172 0.33191 0.0
C1071 C 0.22016 0.40973 0.31984 0.0
C1072 C 0.22531 0.38933 0.31313 0.0
C1073 C 0.24504 0.38106 0.31849 0.0
C1074 C 0.16054 0.41348 0.31046 0.0
C1075 C 0.15862 0.4348 0.30488 0.0
C1076 C 0.18048 0.40536 0.31524 0.0
C1077 C 0.19899 0.41835 0.31449 0.0
C1078 C 0.19708 0.43964 0.30875 0.0
C1079 C 0.17712 0.44778 0.30402 0.0
H1080 H 0.16129 0.98711 0.4383 0.0
H1081 H 0.11938 0.03549 0.45935 0.0
H1082 H 0.19173 0.01136 0.44338 0.0
H1083 H 0.15011 0.06003 0.46419 0.0
H1084 H 0.23526 0.06644 0.42673 0.0
H1085 H 0.20302 0.04449 0.42403 0.0
H1086 H 0.18529 0.0645 0.48689 0.0
H1087 H 0.21789 0.08675 0.48976 0.0
C1088 C 0.15861 0.00286 0.44429 0.0
C1089 C 0.13793 0.00937 0.44845 0.0
C1090 C 0.17602 0.01681 0.44699 0.0
C1091 C 0.17324 0.03762 0.454 0.0
C1092 C 0.15268 0.04405 0.4588 0.0
C1093 C 0.13513 0.03008 0.4559 0.0
C1094 C 0.22451 0.06636 0.44 0.0
C1095 C 0.22931 0.07823 0.45857 0.0
C1096 C 0.20606 0.05367 0.43845 0.0
C1097 C 0.19183 0.05257 0.45536 0.0
C1098 C 0.19603 0.06509 0.47362 0.0
C1099 C 0.21469 0.07776 0.47526 0.0
H1100 H 0.72367 0.12076 0.7716 0.0
H1101 H 0.69162 0.12311 0.71017 0.0
H1102 H 0.69996 0.09146 0.78183 0.0
H1103 H 0.66813 0.09372 0.72032 0.0
H1104 H 0.65355 0.02371 0.73504 0.0
H1105 H 0.67371 0.05579 0.72647 0.0
H1106 H 0.66208 0.08094 0.78911 0.0
H1107 H 0.64188 0.04858 0.79784 0.0
C1108 C 0.71134 0.11529 0.76042 0.0
C1109 C 0.7097 0.12413 0.73997 0.0
C1110 C 0.69777 0.09848 0.76628 0.0
C1111 C 0.68234 0.09014 0.75179 0.0
C1112 C 0.68015 0.09954 0.73168 0.0
C1113 C 0.69363 0.11636 0.72586 0.0
C1114 C 0.65519 0.03608 0.747 0.0
C1115 C 0.64614 0.03356 0.76714 0.0
C1116 C 0.66664 0.05454 0.74202 0.0
C1117 C 0.66942 0.07094 0.75708 0.0
C1118 C 0.6603 0.06851 0.77723 0.0
C1119 C 0.64867 0.05004 0.78218 0.0
H1120 H 0.43926 0.04913 0.5374 0.0
H1121 H 0.40886 0.9898 0.51817 0.0
H1122 H 0.40657 0.06741 0.52859 0.0
H1123 H 0.3761 0.00801 0.50977 0.0
H1124 H 0.33866 0.05275 0.4657 0.0
H1125 H 0.36794 0.03304 0.48049 0.0
H1126 H 0.36773 0.07121 0.53769 0.0
H1127 H 0.33814 0.09118 0.5228 0.0
C1128 C 0.42551 0.03998 0.53155 0.0
C1129 C 0.42668 0.01807 0.52828 0.0
C1130 C 0.40674 0.05041 0.52671 0.0
C1131 C 0.38885 0.03915 0.51835 0.0
C1132 C 0.38973 0.01711 0.516 0.0
C1133 C 0.40843 0.00667 0.52097 0.0
C1134 C 0.34472 0.05693 0.4815 0.0
C1135 C 0.33613 0.07363 0.49303 0.0
C1136 C 0.3614 0.04548 0.49004 0.0
C1137 C 0.37007 0.05052 0.51028 0.0
C1138 C 0.36138 0.06705 0.52201 0.0
C1139 C 0.34442 0.07841 0.51353 0.0
H1140 H 0.5862 0.45949 0.50996 0.0
H1141 H 0.63511 0.49544 0.54472 0.0
H1142 H 0.61121 0.43134 0.50416 0.0
H1143 H 0.65999 0.4674 0.53901 0.0
H1144 H 0.70546 0.42282 0.50787 0.0
H1145 H 0.68008 0.45085 0.5117 0.0
H1146 H 0.63009 0.40423 0.52306 0.0
H1147 H 0.65538 0.37617 0.51874 0.0
C1148 C 0.60224 0.46135 0.51646 0.0
C1149 C 0.60864 0.47981 0.52771 0.0
C1150 C 0.61659 0.4452 0.51315 0.0
C1151 C 0.63769 0.44709 0.52104 0.0
C1152 C 0.64403 0.46554 0.53232 0.0
C1153 C 0.62973 0.48166 0.5356 0.0
C1154 C 0.68904 0.41852 0.51111 0.0
C1155 C 0.6825 0.39721 0.51305 0.0
C1156 C 0.67449 0.43462 0.51343 0.0
C1157 C 0.65301 0.42986 0.51779 0.0
C1158 C 0.64642 0.40851 0.51946 0.0
C1159 C 0.66098 0.3924 0.51711 0.0
H1160 H 0.70082 0.28556 0.34424 0.0
H1161 H 0.76172 0.31545 0.33084 0.0
H1162 H 0.70305 0.29985 0.38061 0.0
H1163 H 0.76399 0.32942 0.36705 0.0
H1164 H 0.77494 0.31892 0.43846 0.0
H1165 H 0.76892 0.30986 0.40129 0.0
H1166 H 0.70568 0.33436 0.40364 0.0
H1167 H 0.71174 0.34367 0.44148 0.0
C1168 C 0.71449 0.29544 0.34891 0.0
C1169 C 0.73129 0.29903 0.33475 0.0
C1170 C 0.71573 0.30365 0.36972 0.0
C1171 C 0.7338 0.31553 0.37672 0.0
C1172 C 0.75003 0.32 0.3622 0.0
C1173 C 0.74878 0.31189 0.34149 0.0
C1174 C 0.7597 0.32247 0.43119 0.0
C1175 C 0.74379 0.33202 0.44301 0.0
C1176 C 0.75633 0.31739 0.40977 0.0
C1177 C 0.73691 0.32155 0.39949 0.0
C1178 C 0.72082 0.33098 0.41121 0.0
C1179 C 0.72431 0.33637 0.43278 0.0
H1180 H 0.50401 0.0366 0.92813 0.0
H1181 H 0.53019 0.98146 0.95777 0.0
H1182 H 0.52296 0.02873 0.89548 0.0
H1183 H 0.54875 0.97352 0.92518 0.0
H1184 H 0.55388 0.9509 0.85663 0.0
H1185 H 0.53657 0.96158 0.88901 0.0
H1186 H 0.56017 0.02564 0.8806 0.0
H1187 H 0.57761 0.01497 0.84784 0.0
C1188 C 0.51399 0.02298 0.92779 0.0
C1189 C 0.51535 0.0095 0.94548 0.0
C1190 C 0.52482 0.01847 0.90909 0.0
C1191 C 0.53711 0.00037 0.9077 0.0
C1192 C 0.53904 0.98735 0.92563 0.0
C1193 C 0.52835 0.99188 0.94428 0.0
C1194 C 0.55539 0.9673 0.86156 0.0
C1195 C 0.56723 0.98206 0.84964 0.0
C1196 C 0.54555 0.97338 0.88023 0.0
C1197 C 0.54719 0.99439 0.88745 0.0
C1198 C 0.55861 0.00933 0.87536 0.0
C1199 C 0.56864 0.0032 0.85666 0.0
H1200 H 0.29379 0.27851 0.41404 0.0
H1201 H 0.35508 0.25811 0.39354 0.0
H1202 H 0.2861 0.24336 0.42838 0.0
H1203 H 0.34761 0.22319 0.40828 0.0
H1204 H 0.31492 0.15759 0.41165 0.0
H1205 H 0.32294 0.19318 0.39913 0.0
H1206 H 0.29805 0.219 0.45703 0.0
H1207 H 0.28981 0.1833 0.46959 0.0
C1208 C 0.30564 0.26655 0.4127 0.0
C1209 C 0.32501 0.27105 0.40262 0.0
C1210 C 0.30132 0.2465 0.42106 0.0
C1211 C 0.31622 0.2305 0.41937 0.0
C1212 C 0.33573 0.23513 0.40962 0.0
C1213 C 0.3401 0.25519 0.40138 0.0
C1214 C 0.31112 0.17082 0.42174 0.0
C1215 C 0.30172 0.16757 0.44164 0.0
C1216 C 0.31586 0.19122 0.41461 0.0
C1217 C 0.31122 0.20888 0.42714 0.0
C1218 C 0.30168 0.20569 0.44697 0.0
C1219 C 0.29705 0.18524 0.45419 0.0
H1220 H 0.51097 0.48627 0.84369 0.0
H1221 H 0.46852 0.4562 0.88827 0.0
H1222 H 0.48049 0.4955 0.82123 0.0
H1223 H 0.43816 0.465 0.86578 0.0
H1224 H 0.38639 0.4998 0.83222 0.0
H1225 H 0.41786 0.49404 0.85429 0.0
H1226 H 0.4534 0.47998 0.79798 0.0
H1227 H 0.42198 0.48646 0.77579 0.0
C1228 C 0.49513 0.48154 0.84861 0.0
C1229 C 0.49213 0.4706 0.86779 0.0
C1230 C 0.47766 0.48679 0.83574 0.0
C1231 C 0.45682 0.48109 0.84171 0.0
C1232 C 0.45391 0.47007 0.86088 0.0
C1233 C 0.47133 0.46496 0.87378 0.0
C1234 C 0.40095 0.49563 0.82451 0.0
C1235 C 0.40163 0.49346 0.80224 0.0
C1236 C 0.41899 0.49218 0.83719 0.0
C1237 C 0.43813 0.48627 0.82797 0.0
C1238 C 0.43899 0.48468 0.80563 0.0
C1239 C 0.42094 0.48831 0.7929 0.0
H1240 H 0.70978 0.73717 0.10152 0.0
H1241 H 0.75856 0.7178 0.14615 0.0
H1242 H 0.72274 0.71277 0.07508 0.0
H1243 H 0.77176 0.69352 0.11939 0.0
H1244 H 0.80212 0.67215 0.0557 0.0
H1245 H 0.78947 0.69471 0.08418 0.0
H1246 H 0.72471 0.67438 0.06905 0.0
H1247 H 0.73726 0.65202 0.04051 0.0
C1248 C 0.72312 0.72754 0.10581 0.0
C1249 C 0.73301 0.72937 0.12607 0.0
C1250 C 0.73058 0.71356 0.09061 0.0
C1251 C 0.7482 0.70112 0.09518 0.0
C1252 C 0.75825 0.70303 0.11534 0.0
C1253 C 0.7507 0.71697 0.13064 0.0
C1254 C 0.7852 0.67239 0.05854 0.0
C1255 C 0.7707 0.66037 0.04573 0.0
C1256 C 0.77796 0.68524 0.07493 0.0
C1257 C 0.75608 0.68644 0.07877 0.0
C1258 C 0.74165 0.67404 0.06628 0.0
C1259 C 0.74887 0.66113 0.04999 0.0
H1260 H 0.98729 0.00623 0.1261 0.0
H1261 H 0.95504 0.05816 0.09675 0.0
H1262 H 0.9588 0.00236 0.15167 0.0
H1263 H 0.9265 0.05428 0.12235 0.0
H1264 H 0.87 0.02913 0.16125 0.0
H1265 H 0.89711 0.03124 0.13393 0.0
H1266 H 0.94594 0.02171 0.18199 0.0
H1267 H 0.91895 0.01925 0.20915 0.0
C1268 C 0.97413 0.01685 0.12512 0.0
C1269 C 0.97356 0.0326 0.10943 0.0
C1270 C 0.95779 0.01465 0.1398 0.0
C1271 C 0.94042 0.02812 0.13921 0.0
C1272 C 0.93952 0.04349 0.12315 0.0
C1273 C 0.95589 0.0457 0.10844 0.0
C1274 C 0.88652 0.02744 0.16598 0.0
C1275 C 0.89226 0.02399 0.18742 0.0
C1276 C 0.90207 0.02876 0.15032 0.0
C1277 C 0.92372 0.02657 0.15572 0.0
C1278 C 0.92941 0.02312 0.17717 0.0
C1279 C 0.91391 0.02186 0.1928 0.0
H1280 H 0.26371 0.78772 0.17267 0.0
H1281 H 0.22479 0.74167 0.13738 0.0
H1282 H 0.25973 0.81272 0.14353 0.0
H1283 H 0.22047 0.76688 0.10856 0.0
H1284 H 0.21119 0.82174 0.06214 0.0
H1285 H 0.2075 0.80342 0.09643 0.0
H1286 H 0.2755 0.80941 0.10698 0.0
H1287 H 0.27915 0.82719 0.07301 0.0
C1288 C 0.25405 0.78302 0.15888 0.0
C1289 C 0.24489 0.76251 0.15726 0.0
C1290 C 0.25167 0.79739 0.14225 0.0
C1291 C 0.23994 0.79168 0.12371 0.0
C1292 C 0.22944 0.7718 0.12274 0.0
C1293 C 0.23194 0.75734 0.13931 0.0
C1294 C 0.22521 0.81944 0.07205 0.0
C1295 C 0.24546 0.82571 0.0649 0.0
C1296 C 0.22314 0.80891 0.09156 0.0
C1297 C 0.24122 0.80503 0.10438 0.0
C1298 C 0.26125 0.81237 0.09763 0.0
C1299 C 0.26335 0.82242 0.07807 0.0
H1300 H 0.06303 0.49617 0.12008 0.0
H1301 H 0.01274 0.45056 0.13391 0.0
H1302 H 0.07677 0.4933 0.15641 0.0
H1303 H 0.02567 0.44873 0.17058 0.0
H1304 H 0.06759 0.43222 0.22741 0.0
H1305 H 0.05425 0.43524 0.19099 0.0
H1306 H 0.06961 0.50222 0.19243 0.0
H1307 H 0.0837 0.49902 0.2287 0.0
C1308 C 0.05488 0.48553 0.13085 0.0
C1309 C 0.03682 0.47352 0.12397 0.0
C1310 C 0.06259 0.48413 0.15182 0.0
C1311 C 0.05235 0.47078 0.16649 0.0
C1312 C 0.03416 0.45895 0.15966 0.0
C1313 C 0.02654 0.46023 0.13867 0.0
C1314 C 0.06813 0.4476 0.21998 0.0
C1315 C 0.07672 0.46538 0.23098 0.0
C1316 C 0.06033 0.44937 0.1991 0.0
C1317 C 0.06074 0.46899 0.18874 0.0
C1318 C 0.0693 0.4868 0.19978 0.0
C1319 C 0.07728 0.485 0.22063 0.0
H1320 H 0.35336 0.67986 0.28308 0.0
H1321 H 0.33516 0.74478 0.27623 0.0
H1322 H 0.385 0.69156 0.30339 0.0
H1323 H 0.36574 0.75622 0.29785 0.0
H1324 H 0.43582 0.77204 0.3074 0.0
H1325 H 0.40235 0.75963 0.29176 0.0
H1326 H 0.40084 0.70695 0.33521 0.0
H1327 H 0.43524 0.71915 0.35059 0.0
C1328 C 0.35592 0.6966 0.28607 0.0
C1329 C 0.34176 0.71136 0.27761 0.0
C1330 C 0.37395 0.70328 0.29803 0.0
C1331 C 0.37817 0.72488 0.30203 0.0
C1332 C 0.36333 0.73949 0.29467 0.0
C1333 C 0.3455 0.73286 0.2825 0.0
C1334 C 0.42841 0.75785 0.3138 0.0
C1335 C 0.43828 0.74662 0.33033 0.0
C1336 C 0.40899 0.7508 0.30489 0.0
C1337 C 0.39864 0.73239 0.31234 0.0
C1338 C 0.40841 0.72113 0.32898 0.0
C1339 C 0.42808 0.72815 0.33786 0.0
H1340 H 0.03739 0.39622 0.98304 0.0
H1341 H 0.96875 0.39181 0.98082 0.0
H1342 H 0.03873 0.36549 0.9592 0.0
H1343 H 0.97011 0.36077 0.95737 0.0
H1344 H 0.98545 0.29421 0.92932 0.0
H1345 H 0.98649 0.32095 0.9579 0.0
H1346 H 0.02376 0.36287 0.91844 0.0
H1347 H 0.02223 0.33659 0.88977 0.0
C1348 C 0.02263 0.38839 0.97778 0.0
C1349 C 0.00296 0.39634 0.98366 0.0
C1350 C 0.0234 0.37091 0.96415 0.0
C1351 C 0.00452 0.3608 0.95658 0.0
C1352 C 0.98487 0.3682 0.96318 0.0
C1353 C 0.98409 0.38597 0.97644 0.0
C1354 C 0.99408 0.30904 0.92692 0.0
C1355 C 0.0037 0.3134 0.90735 0.0
C1356 C 0.99459 0.32431 0.94318 0.0
C1357 C 0.00523 0.34388 0.9403 0.0
C1358 C 0.01559 0.34783 0.92108 0.0
C1359 C 0.01463 0.33284 0.90468 0.0
H1360 H 0.65448 0.78062 0.28436 0.0
H1361 H 0.62758 0.73869 0.23576 0.0
H1362 H 0.62449 0.77198 0.30732 0.0
H1363 H 0.59775 0.72998 0.25876 0.0
H1364 H 0.53606 0.75778 0.28876 0.0
H1365 H 0.56879 0.75506 0.26901 0.0
H1366 H 0.60336 0.74257 0.32749 0.0
H1367 H 0.57016 0.74493 0.34737 0.0
C1368 C 0.64238 0.76924 0.27877 0.0
C1369 C 0.64328 0.7605 0.25818 0.0
C1370 C 0.62534 0.76415 0.29199 0.0
C1371 C 0.60874 0.7504 0.28477 0.0
C1372 C 0.61029 0.7407 0.26469 0.0
C1373 C 0.62743 0.74561 0.25157 0.0
C1374 C 0.55055 0.75396 0.29735 0.0
C1375 C 0.55063 0.75162 0.31957 0.0
C1376 C 0.56928 0.75229 0.28603 0.0
C1377 C 0.58863 0.74863 0.29671 0.0
C1378 C 0.58864 0.74543 0.31888 0.0
C1379 C 0.56968 0.74665 0.33022 0.0
H1380 H 0.00269 0.09541 0.96537 0.0
H1381 H 0.0506 0.13764 0.99379 0.0
H1382 H 0.9953 0.12171 0.93808 0.0
H1383 H 0.04327 0.16381 0.96663 0.0
H1384 H 0.0091 0.21457 0.92953 0.0
H1385 H 0.01575 0.18766 0.95616 0.0
H1386 H 0.01069 0.13935 0.90732 0.0
H1387 H 0.00361 0.16629 0.88065 0.0
C1388 C 0.01177 0.11021 0.9657 0.0
C1389 C 0.02713 0.11445 0.98189 0.0
C1390 C 0.00754 0.1253 0.95005 0.0
C1391 C 0.01857 0.14497 0.95022 0.0
C1392 C 0.03413 0.14904 0.96625 0.0
C1393 C 0.03835 0.134 0.98185 0.0
C1394 C 0.00936 0.19821 0.92443 0.0
C1395 C 0.00586 0.19263 0.90291 0.0
C1396 C 0.01331 0.18277 0.93971 0.0
C1397 C 0.01387 0.16131 0.9339 0.0
C1398 C 0.01016 0.15569 0.9124 0.0
C1399 C 0.00622 0.17117 0.89709 0.0
H1400 H 0.37846 0.3573 0.25789 0.0
H1401 H 0.40525 0.30255 0.28761 0.0
H1402 H 0.39438 0.34762 0.22419 0.0
H1403 H 0.42079 0.29261 0.25378 0.0
H1404 H 0.46246 0.29369 0.19425 0.0
H1405 H 0.44843 0.30482 0.2284 0.0
H1406 H 0.38867 0.31903 0.19739 0.0
H1407 H 0.40264 0.3081 0.16328 0.0
C1408 C 0.3879 0.3433 0.25726 0.0
C1409 C 0.39059 0.33067 0.27538 0.0
C1410 C 0.39683 0.33764 0.23792 0.0
C1411 C 0.40875 0.3193 0.23632 0.0
C1412 C 0.41181 0.30691 0.25455 0.0
C1413 C 0.40276 0.31249 0.27386 0.0
C1414 C 0.44634 0.29923 0.19471 0.0
C1415 C 0.43368 0.3 0.17602 0.0
C1416 C 0.43829 0.30551 0.21428 0.0
C1417 C 0.41747 0.31284 0.21556 0.0
C1418 C 0.40487 0.31371 0.19687 0.0
C1419 C 0.41285 0.30731 0.17734 0.0
H1420 H 0.54487 0.4066 0.02151 0.0
H1421 H 0.50896 0.36966 0.97438 0.0
H1422 H 0.5294 0.38499 0.04978 0.0
H1423 H 0.49391 0.34784 0.00251 0.0
H1424 H 0.45378 0.32819 0.05876 0.0
H1425 H 0.469 0.35153 0.03206 0.0
H1426 H 0.53071 0.34795 0.06308 0.0
H1427 H 0.51545 0.32465 0.09005 0.0
C1428 C 0.53363 0.39392 0.01721 0.0
C1429 C 0.52813 0.38982 0.99573 0.0
C1430 C 0.52493 0.38144 0.03337 0.0
C1431 C 0.51042 0.36475 0.02836 0.0
C1432 C 0.50488 0.36073 0.00689 0.0
C1433 C 0.51366 0.37309 0.99076 0.0
C1434 C 0.47058 0.33243 0.06001 0.0
C1435 C 0.48341 0.32446 0.07652 0.0
C1436 C 0.47931 0.34573 0.04462 0.0
C1437 C 0.50107 0.35145 0.04538 0.0
C1438 C 0.51385 0.34392 0.06216 0.0
C1439 C 0.50512 0.3305 0.07754 0.0
H1440 H 0.64584 0.22795 0.19011 0.0
H1441 H 0.63946 0.29249 0.21105 0.0
H1442 H 0.61102 0.22894 0.17226 0.0
H1443 H 0.60508 0.29373 0.19261 0.0
H1444 H 0.53498 0.28196 0.17557 0.0
H1445 H 0.56892 0.27946 0.19465 0.0
H1446 H 0.59429 0.24554 0.14142 0.0
H1447 H 0.56019 0.24769 0.12246 0.0
C1448 C 0.63697 0.24231 0.19098 0.0
C1449 C 0.64545 0.26015 0.20197 0.0
C1450 C 0.61713 0.24296 0.18055 0.0
C1451 C 0.60528 0.26143 0.18095 0.0
C1452 C 0.61368 0.27918 0.19214 0.0
C1453 C 0.63351 0.27855 0.20252 0.0
C1454 C 0.54777 0.27393 0.16793 0.0
C1455 C 0.54487 0.26507 0.14745 0.0
C1456 C 0.56727 0.27259 0.17884 0.0
C1457 C 0.58435 0.26234 0.16955 0.0
C1458 C 0.58139 0.25332 0.14914 0.0
C1459 C 0.56187 0.25468 0.13821 0.0
H1460 H 0.49523 0.12193 0.05228 0.0
H1461 H 0.42928 0.11063 0.0679 0.0
H1462 H 0.49387 0.15755 0.06707 0.0
H1463 H 0.42793 0.14616 0.0828 0.0
H1464 H 0.42717 0.21842 0.08453 0.0
H1465 H 0.42863 0.18244 0.07107 0.0
H1466 H 0.49076 0.17643 0.10069 0.0
H1467 H 0.48954 0.21269 0.11381 0.0
C1468 C 0.48049 0.127 0.05903 0.0
C1469 C 0.46234 0.11349 0.05884 0.0
C1470 C 0.47972 0.14739 0.06756 0.0
C1471 C 0.46079 0.15471 0.07612 0.0
C1472 C 0.44267 0.14114 0.07602 0.0
C1473 C 0.44343 0.12078 0.06746 0.0
C1474 C 0.44112 0.20943 0.08828 0.0
C1475 C 0.45825 0.21848 0.10024 0.0
C1476 C 0.44191 0.18873 0.08064 0.0
C1477 C 0.45982 0.17655 0.08478 0.0
C1478 C 0.47685 0.18549 0.09697 0.0
C1479 C 0.47608 0.20623 0.10462 0.0
H1480 H 0.27975 0.34842 0.67954 0.0
H1481 H 0.2428 0.35459 0.73631 0.0
H1482 H 0.30223 0.37883 0.69081 0.0
H1483 H 0.26458 0.38519 0.74725 0.0
H1484 H 0.31669 0.42764 0.77264 0.0
H1485 H 0.29826 0.39545 0.7606 0.0
H1486 H 0.30284 0.41626 0.69533 0.0
H1487 H 0.32235 0.44827 0.70752 0.0
C1488 C 0.27643 0.35632 0.6944 0.0
C1489 C 0.25966 0.349 0.70716 0.0
C1490 C 0.28923 0.37381 0.70082 0.0
C1491 C 0.28538 0.38448 0.72003 0.0
C1492 C 0.26846 0.37713 0.73264 0.0
C1493 C 0.25589 0.35956 0.72636 0.0
C1494 C 0.31389 0.42531 0.75569 0.0
C1495 C 0.32078 0.4406 0.74104 0.0
C1496 C 0.30316 0.40687 0.74876 0.0
C1497 C 0.29863 0.40333 0.72699 0.0
C1498 C 0.30614 0.41834 0.71222 0.0
C1499 C 0.31724 0.43674 0.71917 0.0
H1500 H 0.30191 0.66612 0.75604 0.0
H1501 H 0.24052 0.63589 0.743 0.0
H1502 H 0.31856 0.63173 0.75484 0.0
H1503 H 0.25718 0.60159 0.74154 0.0
H1504 H 0.29108 0.54509 0.77235 0.0
H1505 H 0.27457 0.57913 0.76897 0.0
H1506 H 0.32604 0.60134 0.72963 0.0
H1507 H 0.34275 0.56696 0.73298 0.0
C1508 C 0.29199 0.65214 0.75288 0.0
C1509 C 0.26988 0.6537 0.74977 0.0
C1510 C 0.30156 0.63249 0.75195 0.0
C1511 C 0.28918 0.61396 0.74812 0.0
C1512 C 0.26712 0.61558 0.74466 0.0
C1513 C 0.25759 0.63522 0.74538 0.0
C1514 C 0.29888 0.55714 0.76284 0.0
C1515 C 0.3183 0.55332 0.753 0.0
C1516 C 0.2893 0.57662 0.7608 0.0
C1517 C 0.29899 0.59292 0.74904 0.0
C1518 C 0.31829 0.58909 0.73892 0.0
C1519 C 0.32778 0.5694 0.74073 0.0
H1520 H 0.87364 0.48492 0.54099 0.0
H1521 H 0.91079 0.4365 0.51229 0.0
H1522 H 0.84188 0.46154 0.53831 0.0
H1523 H 0.87931 0.4134 0.50941 0.0
H1524 H 0.82774 0.36831 0.52961 0.0
H1525 H 0.85722 0.39365 0.53358 0.0
H1526 H 0.81653 0.44364 0.51291 0.0
H1527 H 0.78656 0.4181 0.50937 0.0
C1528 C 0.87497 0.46937 0.53395 0.0
C1529 C 0.89476 0.46241 0.52716 0.0
C1530 C 0.8568 0.45601 0.53239 0.0
C1531 C 0.85813 0.43549 0.52395 0.0
C1532 C 0.87782 0.42888 0.51653 0.0
C1533 C 0.89589 0.44213 0.51817 0.0
C1534 C 0.82496 0.38471 0.52598 0.0
C1535 C 0.80482 0.39113 0.51894 0.0
C1536 C 0.84194 0.39924 0.52815 0.0
C1537 C 0.83935 0.42062 0.52318 0.0
C1538 C 0.81903 0.42728 0.51689 0.0
C1539 C 0.80189 0.41266 0.51481 0.0
H1540 H 0.76911 0.92282 0.83953 0.0
H1541 H 0.74654 0.86467 0.80931 0.0
H1542 H 0.73428 0.9379 0.83346 0.0
H1543 H 0.71222 0.88008 0.80225 0.0
H1544 H 0.64653 0.90453 0.81475 0.0
H1545 H 0.6815 0.8902 0.82111 0.0
H1546 H 0.7109 0.95059 0.8057 0.0
H1547 H 0.67578 0.96515 0.7999 0.0
C1548 C 0.75676 0.91327 0.83155 0.0
C1549 C 0.76066 0.89251 0.82493 0.0
C1550 C 0.73686 0.922 0.82784 0.0
C1551 C 0.72041 0.9102 0.8174 0.0
C1552 C 0.72441 0.88954 0.8106 0.0
C1553 C 0.74423 0.88079 0.81438 0.0
C1554 C 0.66043 0.91478 0.81269 0.0
C1555 C 0.65834 0.93599 0.80679 0.0
C1556 C 0.68052 0.90652 0.81623 0.0
C1557 C 0.69905 0.9192 0.81383 0.0
C1558 C 0.69697 0.94044 0.80795 0.0
C1559 C 0.67683 0.94876 0.8045 0.0
H1560 H 0.61275 0.53992 0.9351 0.0
H1561 H 0.64839 0.49321 0.96956 0.0
H1562 H 0.64195 0.56568 0.94121 0.0
H1563 H 0.67675 0.51941 0.97661 0.0
H1564 H 0.71625 0.57889 0.99792 0.0
H1565 H 0.68308 0.5575 0.9956 0.0
H1566 H 0.68204 0.56416 0.92722 0.0
H1567 H 0.71535 0.58501 0.92941 0.0
C1568 C 0.62664 0.53512 0.94409 0.0
C1569 C 0.62817 0.5143 0.95162 0.0
C1570 C 0.64324 0.54997 0.94774 0.0
C1571 C 0.66149 0.54448 0.95941 0.0
C1572 C 0.66268 0.52408 0.9678 0.0
C1573 C 0.64631 0.5091 0.9638 0.0
C1574 C 0.70874 0.57604 0.98245 0.0
C1575 C 0.7184 0.58348 0.96383 0.0
C1576 C 0.68986 0.56378 0.98113 0.0
C1577 C 0.68009 0.55926 0.96124 0.0
C1578 C 0.6892 0.56758 0.94275 0.0
C1579 C 0.70829 0.57939 0.94401 0.0
H1580 H 0.21577 0.62804 0.27577 0.0
H1581 H 0.18251 0.62911 0.21492 0.0
H1582 H 0.1901 0.60156 0.28838 0.0
H1583 H 0.15739 0.60203 0.2272 0.0
H1584 H 0.10615 0.5635 0.2601 0.0
H1585 H 0.12873 0.59418 0.25152 0.0
H1586 H 0.18265 0.56446 0.28113 0.0
H1587 H 0.16008 0.53409 0.29007 0.0
C1588 C 0.20284 0.62282 0.26516 0.0
C1589 C 0.20128 0.6306 0.24428 0.0
C1590 C 0.18827 0.60746 0.27231 0.0
C1591 C 0.17178 0.59953 0.25875 0.0
C1592 C 0.16978 0.60788 0.23813 0.0
C1593 C 0.18434 0.62323 0.23099 0.0
C1594 C 0.12277 0.56362 0.26497 0.0
C1595 C 0.13132 0.54629 0.27568 0.0
C1596 C 0.13574 0.58116 0.25995 0.0
C1597 C 0.15753 0.58176 0.26556 0.0
C1598 C 0.1659 0.56467 0.2768 0.0
C1599 C 0.15296 0.54716 0.28181 0.0
H1600 H 0.8999 0.50198 0.04128 0.0
H1601 H 0.93535 0.55533 0.01559 0.0
H1602 H 0.86677 0.51994 0.03392 0.0
H1603 H 0.90227 0.57357 0.00967 0.0
H1604 H 0.83677 0.6048 0.01884 0.0
H1605 H 0.86837 0.58709 0.03271 0.0
H1606 H 0.85111 0.53182 0.99498 0.0
H1607 H 0.82002 0.54961 0.98066 0.0
C1608 C 0.90076 0.51752 0.03423 0.0
C1609 C 0.92048 0.52701 0.02886 0.0
C1610 C 0.88175 0.52786 0.03025 0.0
C1611 C 0.88207 0.54811 0.02134 0.0
C1612 C 0.90168 0.55805 0.01684 0.0
C1613 C 0.92065 0.54756 0.02035 0.0
C1614 C 0.83961 0.58877 0.01378 0.0
C1615 C 0.82607 0.57859 0.99861 0.0
C1616 C 0.85766 0.57871 0.02164 0.0
C1617 C 0.86204 0.55814 0.01489 0.0
C1618 C 0.84795 0.54763 0.00052 0.0
C1619 C 0.83026 0.55784 0.99227 0.0
H1620 H 0.07899 0.95271 0.02409 0.0
H1621 H 0.13202 0.99743 0.03029 0.0
H1622 H 0.10374 0.9242 0.01899 0.0
H1623 H 0.15666 0.96906 0.02524 0.0
H1624 H 0.19508 0.91701 0.99659 0.0
H1625 H 0.16911 0.94465 0.99901 0.0
H1626 H 0.13005 0.9045 0.03874 0.0
H1627 H 0.15583 0.87666 0.03595 0.0
C1628 C 0.09591 0.95647 0.02441 0.0
C1629 C 0.10346 0.97742 0.02752 0.0
C1630 C 0.11011 0.94011 0.02151 0.0
C1631 C 0.13223 0.94429 0.02165 0.0
C1632 C 0.13974 0.96527 0.02462 0.0
C1633 C 0.12557 0.98158 0.02751 0.0
C1634 C 0.1809 0.914 0.00575 0.0
C1635 C 0.17761 0.8946 0.01614 0.0
C1636 C 0.16605 0.92993 0.00724 0.0
C1637 C 0.1475 0.9269 0.01918 0.0
C1638 C 0.14402 0.90733 0.02922 0.0
C1639 C 0.15889 0.89139 0.02772 0.0
loop_
_geom_bond_atom_site_label_1
_geom_bond_atom_site_label_2
_geom_bond_distance
_geom_bond_site_symmetry_2
_ccdc_geom_bond_type
P0 O11 1.490 . S
P0 C14 1.812 . S
P0 C20 1.803 . S
P0 C26 1.819 . S
H1 C15 0.941 . S
H2 C16 0.939 . S
H3 C18 0.940 1_655 S
H4 C19 0.940 . S
H5 C21 0.939 . S
H6 C22 0.942 . S
H7 C24 0.929 1_565 S
H8 C25 0.939 . S
H9 C27 0.941 . S
H10 C31 0.939 . S
O11 P0 1.490 . S
H12 C28 0.939 . S
H13 C30 0.940 1_556 S
C14 P0 1.812 . S
C14 C15 1.389 . S
C14 C19 1.391 . S
C15 H1 0.941 . S
C15 C14 1.389 . S
C15 C16 1.397 . S
C16 H2 0.939 . S
C16 C15 1.397 . S
C16 C17 1.378 . S
C17 C16 1.378 . S
C17 C18 1.378 . S
C18 H3 0.940 1_455 S
C18 C17 1.378 . S
C18 C19 1.396 . S
C19 H4 0.940 . S
C19 C14 1.391 . S
C19 C18 1.396 . S
C20 P0 1.803 . S
C20 C21 1.378 . S
C20 C25 1.400 . S
C21 H5 0.939 . S
C21 C20 1.378 . S
C21 C22 1.361 . S
C22 H6 0.942 . S
C22 C21 1.361 . S
C22 C23 1.369 . S
C23 C22 1.369 . S
C23 C24 1.405 . S
C24 H7 0.929 1_545 S
C24 C23 1.405 . S
C24 C25 1.399 . S
C25 H8 0.939 . S
C25 C20 1.400 . S
C25 C24 1.399 . S
C26 P0 1.819 . S
C26 C27 1.391 . S
C26 C31 1.391 . S
C27 H9 0.941 . S
C27 C26 1.391 . S
C27 C28 1.396 . S
C28 H12 0.939 . S
C28 C27 1.396 . S
C28 C29 1.397 . S
C29 C28 1.397 . S
C29 C30 1.385 . S
C30 H13 0.940 1_554 S
C30 C29 1.385 . S
C30 C31 1.388 . S
C31 H10 0.939 . S
C31 C26 1.391 . S
C31 C30 1.388 . S
P32 O43 1.490 . S
P32 C46 1.812 . S
P32 C52 1.803 . S
P32 C58 1.819 . S
H33 C47 0.941 . S
H34 C48 0.939 . S
H35 C50 0.940 . S
H36 C51 0.940 . S
H37 C53 0.939 . S
H38 C54 0.942 . S
H39 C56 0.940 . S
H40 C57 0.939 . S
H41 C59 0.941 . S
H42 C63 0.939 . S
O43 P32 1.490 . S
H44 C60 0.939 . S
H45 C62 0.940 . S
C46 P32 1.812 . S
C46 C47 1.389 . S
C46 C51 1.391 . S
C47 H33 0.941 . S
C47 C46 1.389 . S
C47 C48 1.397 . S
C48 H34 0.939 . S
C48 C47 1.397 . S
C48 C49 1.378 . S
C49 C48 1.378 . S
C49 C50 1.378 . S
C50 H35 0.940 . S
C50 C49 1.378 . S
C50 C51 1.396 . S
C51 H36 0.940 . S
C51 C46 1.391 . S
C51 C50 1.396 . S
C52 P32 1.803 . S
C52 C53 1.378 . S
C52 C57 1.400 . S
C53 H37 0.939 . S
C53 C52 1.378 . S
C53 C54 1.361 . S
C54 H38 0.942 . S
C54 C53 1.361 . S
C54 C55 1.369 . S
C55 C54 1.369 . S
C55 C56 1.404 . S
C56 H39 0.940 . S
C56 C55 1.404 . S
C56 C57 1.389 . S
C57 H40 0.939 . S
C57 C52 1.400 . S
C57 C56 1.389 . S
C58 P32 1.819 . S
C58 C59 1.391 . S
C58 C63 1.391 . S
C59 H41 0.941 . S
C59 C58 1.391 . S
C59 C60 1.396 . S
C60 H44 0.939 . S
C60 C59 1.396 . S
C60 C61 1.397 . S
C61 C60 1.397 . S
C61 C62 1.385 . S
C62 H45 0.940 . S
C62 C61 1.385 . S
C62 C63 1.388 . S
C63 H42 0.939 . S
C63 C58 1.391 . S
C63 C62 1.388 . S
P64 O75 1.490 . S
P64 C78 1.812 . S
P64 C84 1.803 . S
P64 C90 1.819 . S
H65 C79 0.941 1_556 S
H66 C80 0.939 . S
H67 C82 0.940 . S
H68 C83 0.940 . S
H69 C85 0.939 . S
H70 C86 0.942 . S
H71 C88 0.940 . S
H72 C89 0.939 . S
H73 C91 0.941 1_455 S
H74 C95 0.939 . S
O75 P64 1.490 . S
H76 C92 0.939 . S
H77 C94 0.940 . S
C78 P64 1.812 . S
C78 C79 1.389 . S
C78 C83 1.391 . S
C79 H65 0.941 1_554 S
C79 C78 1.389 . S
C79 C80 1.397 1_554 S
C80 H66 0.939 . S
C80 C79 1.397 1_556 S
C80 C81 1.378 1_556 S
C81 C80 1.378 1_554 S
C81 C82 1.378 . S
C82 H67 0.940 . S
C82 C81 1.378 . S
C82 C83 1.396 . S
C83 H68 0.940 . S
C83 C78 1.391 . S
C83 C82 1.396 . S
C84 P64 1.803 . S
C84 C85 1.378 . S
C84 C89 1.400 . S
C85 H69 0.939 . S
C85 C84 1.378 . S
C85 C86 1.361 . S
C86 H70 0.942 . S
C86 C85 1.361 . S
C86 C87 1.369 . S
C87 C86 1.369 . S
C87 C88 1.404 . S
C88 H71 0.940 . S
C88 C87 1.404 . S
C88 C89 1.389 . S
C89 H72 0.939 . S
C89 C84 1.400 . S
C89 C88 1.389 . S
C90 P64 1.819 . S
C90 C91 1.391 . S
C90 C95 1.391 . S
C91 H73 0.941 1_655 S
C91 C90 1.391 . S
C91 C92 1.396 1_655 S
C92 H76 0.939 . S
C92 C91 1.396 1_455 S
C92 C93 1.397 1_455 S
C93 C92 1.397 1_655 S
C93 C94 1.385 . S
C94 H77 0.940 . S
C94 C93 1.385 . S
C94 C95 1.388 . S
C95 H74 0.939 . S
C95 C90 1.391 . S
C95 C94 1.388 . S
P96 O107 1.490 . S
P96 C110 1.812 . S
P96 C116 1.803 . S
P96 C122 1.819 . S
H97 C111 0.941 . S
H98 C112 0.939 . S
H99 C114 0.940 . S
H100 C115 0.940 . S
H101 C117 0.939 . S
H102 C118 0.942 . S
H103 C120 0.940 . S
H104 C121 0.939 . S
H105 C123 0.941 . S
H106 C127 0.939 . S
O107 P96 1.490 . S
H108 C124 0.939 . S
H109 C126 0.940 . S
C110 P96 1.812 . S
C110 C111 1.389 . S
C110 C115 1.391 . S
C111 H97 0.941 . S
C111 C110 1.389 . S
C111 C112 1.397 . S
C112 H98 0.939 . S
C112 C111 1.397 . S
C112 C113 1.378 . S
C113 C112 1.378 . S
C113 C114 1.378 . S
C114 H99 0.940 . S
C114 C113 1.378 . S
C114 C115 1.396 . S
C115 H100 0.940 . S
C115 C110 1.391 . S
C115 C114 1.396 . S
C116 P96 1.803 . S
C116 C117 1.378 . S
C116 C121 1.400 . S
C117 H101 0.939 . S
C117 C116 1.378 . S
C117 C118 1.361 . S
C118 H102 0.942 . S
C118 C117 1.361 . S
C118 C119 1.369 . S
C119 C118 1.369 . S
C119 C120 1.404 . S
C120 H103 0.940 . S
C120 C119 1.404 . S
C120 C121 1.389 . S
C121 H104 0.939 . S
C121 C116 1.400 . S
C121 C120 1.389 . S
C122 P96 1.819 . S
C122 C123 1.391 . S
C122 C127 1.391 . S
C123 H105 0.941 . S
C123 C122 1.391 . S
C123 C124 1.396 . S
C124 H108 0.939 . S
C124 C123 1.396 . S
C124 C125 1.397 . S
C125 C124 1.397 . S
C125 C126 1.385 . S
C126 H109 0.940 . S
C126 C125 1.385 . S
C126 C127 1.388 . S
C127 H106 0.939 . S
C127 C122 1.391 . S
C127 C126 1.388 . S
P128 O139 1.490 . S
P128 C142 1.812 . S
P128 C148 1.803 . S
P128 C154 1.819 . S
H129 C143 0.941 . S
H130 C144 0.939 . S
H131 C146 0.940 1_545 S
H132 C147 0.940 . S
H133 C149 0.939 . S
H134 C150 0.942 . S
H135 C152 0.940 . S
H136 C153 0.939 . S
H137 C155 0.941 . S
H138 C159 0.939 . S
O139 P128 1.490 . S
H140 C156 0.939 . S
H141 C158 0.940 1_655 S
C142 P128 1.812 . S
C142 C143 1.389 . S
C142 C147 1.391 . S
C143 H129 0.941 . S
C143 C142 1.389 . S
C143 C144 1.397 . S
C144 H130 0.939 . S
C144 C143 1.397 . S
C144 C145 1.378 . S
C145 C144 1.378 . S
C145 C146 1.378 . S
C146 H131 0.940 1_565 S
C146 C145 1.378 . S
C146 C147 1.396 . S
C147 H132 0.940 . S
C147 C142 1.391 . S
C147 C146 1.396 . S
C148 P128 1.803 . S
C148 C149 1.378 . S
C148 C153 1.400 . S
C149 H133 0.939 . S
C149 C148 1.378 . S
C149 C150 1.361 . S
C150 H134 0.942 . S
C150 C149 1.361 . S
C150 C151 1.369 . S
C151 C150 1.369 . S
C151 C152 1.404 . S
C152 H135 0.940 . S
C152 C151 1.404 . S
C152 C153 1.389 . S
C153 H136 0.939 . S
C153 C148 1.400 . S
C153 C152 1.389 . S
C154 P128 1.819 . S
C154 C155 1.391 . S
C154 C159 1.391 . S
C155 H137 0.941 . S
C155 C154 1.391 . S
C155 C156 1.396 . S
C156 H140 0.939 . S
C156 C155 1.396 . S
C156 C157 1.397 . S
C157 C156 1.397 . S
C157 C158 1.385 . S
C158 H141 0.940 1_455 S
C158 C157 1.385 . S
C158 C159 1.388 . S
C159 H138 0.939 . S
C159 C154 1.391 . S
C159 C158 1.388 . S
P160 O171 1.490 . S
P160 C174 1.812 . S
P160 C180 1.803 . S
P160 C186 1.819 . S
H161 C175 0.941 . S
H162 C176 0.939 . S
H163 C178 0.940 . S
H164 C179 0.940 . S
H165 C181 0.939 . S
H166 C182 0.942 . S
H167 C184 0.940 . S
H168 C185 0.939 . S
H169 C187 0.941 . S
H170 C191 0.939 . S
O171 P160 1.490 . S
H172 C188 0.939 . S
H173 C190 0.940 . S
C174 P160 1.812 . S
C174 C175 1.389 . S
C174 C179 1.391 . S
C175 H161 0.941 . S
C175 C174 1.389 . S
C175 C176 1.397 . S
C176 H162 0.939 . S
C176 C175 1.397 . S
C176 C177 1.378 . S
C177 C176 1.378 . S
C177 C178 1.378 . S
C178 H163 0.940 . S
C178 C177 1.378 . S
C178 C179 1.396 . S
C179 H164 0.940 . S
C179 C174 1.391 . S
C179 C178 1.396 . S
C180 P160 1.803 . S
C180 C181 1.378 . S
C180 C185 1.400 . S
C181 H165 0.939 . S
C181 C180 1.378 . S
C181 C182 1.361 . S
C182 H166 0.942 . S
C182 C181 1.361 . S
C182 C183 1.369 . S
C183 C182 1.369 . S
C183 C184 1.404 . S
C184 H167 0.940 . S
C184 C183 1.404 . S
C184 C185 1.389 . S
C185 H168 0.939 . S
C185 C180 1.400 . S
C185 C184 1.389 . S
C186 P160 1.819 . S
C186 C187 1.391 . S
C186 C191 1.391 . S
C187 H169 0.941 . S
C187 C186 1.391 . S
C187 C188 1.396 . S
C188 H172 0.939 . S
C188 C187 1.396 . S
C188 C189 1.397 . S
C189 C188 1.397 . S
C189 C190 1.385 . S
C190 H173 0.940 . S
C190 C189 1.385 . S
C190 C191 1.388 . S
C191 H170 0.939 . S
C191 C186 1.391 . S
C191 C190 1.388 . S
P192 O203 1.490 . S
P192 C206 1.812 . S
P192 C212 1.803 . S
P192 C218 1.819 . S
H193 C207 0.941 . S
H194 C208 0.939 . S
H195 C210 0.940 . S
H196 C211 0.940 . S
H197 C213 0.939 . S
H198 C214 0.942 . S
H199 C216 0.940 . S
H200 C217 0.939 . S
H201 C219 0.941 . S
H202 C223 0.939 . S
O203 P192 1.490 . S
H204 C220 0.939 . S
H205 C222 0.940 . S
C206 P192 1.812 . S
C206 C207 1.389 1_655 S
C206 C211 1.391 . S
C207 H193 0.941 . S
C207 C206 1.389 1_455 S
C207 C208 1.397 . S
C208 H194 0.939 . S
C208 C207 1.397 . S
C208 C209 1.378 1_455 S
C209 C208 1.378 1_655 S
C209 C210 1.378 . S
C210 H195 0.940 . S
C210 C209 1.378 . S
C210 C211 1.396 . S
C211 H196 0.940 . S
C211 C206 1.391 . S
C211 C210 1.396 . S
C212 P192 1.803 . S
C212 C213 1.378 . S
C212 C217 1.400 . S
C213 H197 0.939 . S
C213 C212 1.378 . S
C213 C214 1.361 . S
C214 H198 0.942 . S
C214 C213 1.361 . S
C214 C215 1.369 . S
C215 C214 1.369 . S
C215 C216 1.404 . S
C216 H199 0.940 . S
C216 C215 1.404 . S
C216 C217 1.389 . S
C217 H200 0.939 . S
C217 C212 1.400 . S
C217 C216 1.389 . S
C218 P192 1.819 . S
C218 C219 1.391 . S
C218 C223 1.391 . S
C219 H201 0.941 . S
C219 C218 1.391 . S
C219 C220 1.396 . S
C220 H204 0.939 . S
C220 C219 1.396 . S
C220 C221 1.397 . S
C221 C220 1.397 . S
C221 C222 1.385 . S
C222 H205 0.940 . S
C222 C221 1.385 . S
C222 C223 1.388 . S
C223 H202 0.939 . S
C223 C218 1.391 . S
C223 C222 1.388 . S
P224 O235 1.490 . S
P224 C238 1.812 . S
P224 C244 1.803 . S
P224 C250 1.819 . S
H225 C239 0.941 . S
H226 C240 0.939 . S
H227 C242 0.940 . S
H228 C243 0.940 . S
H229 C245 0.939 . S
H230 C246 0.942 . S
H231 C248 0.940 . S
H232 C249 0.939 . S
H233 C251 0.941 . S
H234 C255 0.939 . S
O235 P224 1.490 . S
H236 C252 0.939 . S
H237 C254 0.940 . S
C238 P224 1.812 . S
C238 C239 1.389 . S
C238 C243 1.391 . S
C239 H225 0.941 . S
C239 C238 1.389 . S
C239 C240 1.397 . S
C240 H226 0.939 . S
C240 C239 1.397 . S
C240 C241 1.378 . S
C241 C240 1.378 . S
C241 C242 1.378 . S
C242 H227 0.940 . S
C242 C241 1.378 . S
C242 C243 1.396 . S
C243 H228 0.940 . S
C243 C238 1.391 . S
C243 C242 1.396 . S
C244 P224 1.803 . S
C244 C245 1.378 . S
C244 C249 1.400 . S
C245 H229 0.939 . S
C245 C244 1.378 . S
C245 C246 1.361 . S
C246 H230 0.942 . S
C246 C245 1.361 . S
C246 C247 1.369 . S
C247 C246 1.369 . S
C247 C248 1.404 . S
C248 H231 0.940 . S
C248 C247 1.404 . S
C248 C249 1.389 . S
C249 H232 0.939 . S
C249 C244 1.400 . S
C249 C248 1.389 . S
C250 P224 1.819 . S
C250 C251 1.391 . S
C250 C255 1.391 . S
C251 H233 0.941 . S
C251 C250 1.391 . S
C251 C252 1.396 . S
C252 H236 0.939 . S
C252 C251 1.396 . S
C252 C253 1.397 . S
C253 C252 1.397 . S
C253 C254 1.385 . S
C254 H237 0.940 . S
C254 C253 1.385 . S
C254 C255 1.388 . S
C255 H234 0.939 . S
C255 C250 1.391 . S
C255 C254 1.388 . S
P256 O267 1.490 . S
P256 C270 1.812 . S
P256 C276 1.803 . S
P256 C282 1.819 . S
H257 C271 0.941 . S
H258 C272 0.939 . S
H259 C274 0.940 . S
H260 C275 0.940 . S
H261 C277 0.939 . S
H262 C278 0.942 . S
H263 C280 0.940 . S
H264 C281 0.939 . S
H265 C283 0.941 . S
H266 C287 0.939 . S
O267 P256 1.490 . S
H268 C284 0.939 . S
H269 C286 0.940 . S
C270 P256 1.812 . S
C270 C271 1.389 . S
C270 C275 1.391 . S
C271 H257 0.941 . S
C271 C270 1.389 . S
C271 C272 1.397 . S
C272 H258 0.939 . S
C272 C271 1.397 . S
C272 C273 1.378 . S
C273 C272 1.378 . S
C273 C274 1.378 . S
C274 H259 0.940 . S
C274 C273 1.378 . S
C274 C275 1.396 . S
C275 H260 0.940 . S
C275 C270 1.391 . S
C275 C274 1.396 . S
C276 P256 1.803 . S
C276 C277 1.378 . S
C276 C281 1.400 . S
C277 H261 0.939 . S
C277 C276 1.378 . S
C277 C278 1.361 . S
C278 H262 0.942 . S
C278 C277 1.361 . S
C278 C279 1.369 . S
C279 C278 1.369 . S
C279 C280 1.404 . S
C280 H263 0.940 . S
C280 C279 1.404 . S
C280 C281 1.389 . S
C281 H264 0.939 . S
C281 C276 1.400 . S
C281 C280 1.389 . S
C282 P256 1.819 . S
C282 C283 1.391 . S
C282 C287 1.391 . S
C283 H265 0.941 . S
C283 C282 1.391 . S
C283 C284 1.396 . S
C284 H268 0.939 . S
C284 C283 1.396 . S
C284 C285 1.397 . S
C285 C284 1.397 . S
C285 C286 1.385 . S
C286 H269 0.940 . S
C286 C285 1.385 . S
C286 C287 1.388 . S
C287 H266 0.939 . S
C287 C282 1.391 . S
C287 C286 1.388 . S
P288 O299 1.490 . S
P288 C302 1.812 . S
P288 C308 1.803 . S
P288 C314 1.819 . S
H289 C303 0.941 . S
H290 C304 0.939 . S
H291 C306 0.940 . S
H292 C307 0.940 . S
H293 C309 0.939 . S
H294 C310 0.942 . S
H295 C312 0.940 . S
H296 C313 0.939 . S
H297 C315 0.941 . S
H298 C319 0.939 . S
O299 P288 1.490 . S
H300 C316 0.939 . S
H301 C318 0.940 . S
C302 P288 1.812 . S
C302 C303 1.389 . S
C302 C307 1.391 . S
C303 H289 0.941 . S
C303 C302 1.389 . S
C303 C304 1.397 . S
C304 H290 0.939 . S
C304 C303 1.397 . S
C304 C305 1.378 . S
C305 C304 1.378 . S
C305 C306 1.378 . S
C306 H291 0.940 . S
C306 C305 1.378 . S
C306 C307 1.396 . S
C307 H292 0.940 . S
C307 C302 1.391 . S
C307 C306 1.396 . S
C308 P288 1.803 . S
C308 C309 1.378 1_565 S
C308 C313 1.400 . S
C309 H293 0.939 . S
C309 C308 1.378 1_545 S
C309 C310 1.361 . S
C310 H294 0.942 . S
C310 C309 1.361 . S
C310 C311 1.369 . S
C311 C310 1.369 . S
C311 C312 1.404 1_545 S
C312 H295 0.940 . S
C312 C311 1.404 1_565 S
C312 C313 1.389 . S
C313 H296 0.939 . S
C313 C308 1.400 . S
C313 C312 1.389 . S
C314 P288 1.819 . S
C314 C315 1.391 . S
C314 C319 1.391 . S
C315 H297 0.941 . S
C315 C314 1.391 . S
C315 C316 1.396 . S
C316 H300 0.939 . S
C316 C315 1.396 . S
C316 C317 1.397 . S
C317 C316 1.397 . S
C317 C318 1.385 . S
C318 H301 0.940 . S
C318 C317 1.385 . S
C318 C319 1.388 . S
C319 H298 0.939 . S
C319 C314 1.391 . S
C319 C318 1.388 . S
P320 O331 1.490 . S
P320 C334 1.812 . S
P320 C340 1.803 . S
P320 C346 1.819 . S
H321 C335 0.941 . S
H322 C336 0.939 . S
H323 C338 0.940 . S
H324 C339 0.940 . S
H325 C341 0.939 . S
H326 C342 0.942 . S
H327 C344 0.940 . S
H328 C345 0.939 . S
H329 C347 0.941 . S
H330 C351 0.939 . S
O331 P320 1.490 . S
H332 C348 0.939 . S
H333 C350 0.940 . S
C334 P320 1.812 . S
C334 C335 1.389 . S
C334 C339 1.391 . S
C335 H321 0.941 . S
C335 C334 1.389 . S
C335 C336 1.397 . S
C336 H322 0.939 . S
C336 C335 1.397 . S
C336 C337 1.378 . S
C337 C336 1.378 . S
C337 C338 1.378 . S
C338 H323 0.940 . S
C338 C337 1.378 . S
C338 C339 1.396 . S
C339 H324 0.940 . S
C339 C334 1.391 . S
C339 C338 1.396 . S
C340 P320 1.803 . S
C340 C341 1.378 . S
C340 C345 1.400 . S
C341 H325 0.939 . S
C341 C340 1.378 . S
C341 C342 1.361 . S
C342 H326 0.942 . S
C342 C341 1.361 . S
C342 C343 1.369 . S
C343 C342 1.369 . S
C343 C344 1.404 . S
C344 H327 0.940 . S
C344 C343 1.404 . S
C344 C345 1.389 . S
C345 H328 0.939 . S
C345 C340 1.400 . S
C345 C344 1.389 . S
C346 P320 1.819 . S
C346 C347 1.391 . S
C346 C351 1.391 . S
C347 H329 0.941 . S
C347 C346 1.391 . S
C347 C348 1.396 . S
C348 H332 0.939 . S
C348 C347 1.396 . S
C348 C349 1.397 . S
C349 C348 1.397 . S
C349 C350 1.385 . S
C350 H333 0.940 . S
C350 C349 1.385 . S
C350 C351 1.388 . S
C351 H330 0.939 . S
C351 C346 1.391 . S
C351 C350 1.388 . S
P352 O363 1.490 . S
P352 C366 1.812 . S
P352 C372 1.803 . S
P352 C378 1.819 . S
H353 C367 0.941 . S
H354 C368 0.939 . S
H355 C370 0.940 . S
H356 C371 0.940 . S
H357 C373 0.939 . S
H358 C374 0.942 . S
H359 C376 0.940 . S
H360 C377 0.939 . S
H361 C379 0.941 . S
H362 C383 0.939 . S
O363 P352 1.490 . S
H364 C380 0.939 . S
H365 C382 0.940 . S
C366 P352 1.812 . S
C366 C367 1.389 . S
C366 C371 1.391 . S
C367 H353 0.941 . S
C367 C366 1.389 . S
C367 C368 1.397 . S
C368 H354 0.939 . S
C368 C367 1.397 . S
C368 C369 1.378 . S
C369 C368 1.378 . S
C369 C370 1.378 . S
C370 H355 0.940 . S
C370 C369 1.378 . S
C370 C371 1.396 . S
C371 H356 0.940 . S
C371 C366 1.391 . S
C371 C370 1.396 . S
C372 P352 1.803 . S
C372 C373 1.378 . S
C372 C377 1.400 . S
C373 H357 0.939 . S
C373 C372 1.378 . S
C373 C374 1.361 . S
C374 H358 0.942 . S
C374 C373 1.361 . S
C374 C375 1.369 . S
C375 C374 1.369 . S
C375 C376 1.404 . S
C376 H359 0.940 . S
C376 C375 1.404 . S
C376 C377 1.389 . S
C377 H360 0.939 . S
C377 C372 1.400 . S
C377 C376 1.389 . S
C378 P352 1.819 . S
C378 C379 1.391 . S
C378 C383 1.391 . S
C379 H361 0.941 . S
C379 C378 1.391 . S
C379 C380 1.396 . S
C380 H364 0.939 . S
C380 C379 1.396 . S
C380 C381 1.397 . S
C381 C380 1.397 . S
C381 C382 1.385 . S
C382 H365 0.940 . S
C382 C381 1.385 . S
C382 C383 1.388 . S
C383 H362 0.939 . S
C383 C378 1.391 . S
C383 C382 1.388 . S
P384 O395 1.490 . S
P384 C398 1.812 . S
P384 C404 1.803 . S
P384 C410 1.819 . S
H385 C399 0.941 . S
H386 C400 0.939 . S
H387 C402 0.940 . S
H388 C403 0.940 . S
H389 C405 0.939 . S
H390 C406 0.942 . S
H391 C408 0.940 . S
H392 C409 0.939 . S
H393 C411 0.941 . S
H394 C415 0.939 . S
O395 P384 1.490 . S
H396 C412 0.939 . S
H397 C414 0.940 . S
C398 P384 1.812 . S
C398 C399 1.389 . S
C398 C403 1.391 . S
C399 H385 0.941 . S
C399 C398 1.389 . S
C399 C400 1.397 . S
C400 H386 0.939 . S
C400 C399 1.397 . S
C400 C401 1.378 . S
C401 C400 1.378 . S
C401 C402 1.378 . S
C402 H387 0.940 . S
C402 C401 1.378 . S
C402 C403 1.396 . S
C403 H388 0.940 . S
C403 C398 1.391 . S
C403 C402 1.396 . S
C404 P384 1.803 . S
C404 C405 1.378 . S
C404 C409 1.400 . S
C405 H389 0.939 . S
C405 C404 1.378 . S
C405 C406 1.361 . S
C406 H390 0.942 . S
C406 C405 1.361 . S
C406 C407 1.369 . S
C407 C406 1.369 . S
C407 C408 1.404 . S
C408 H391 0.940 . S
C408 C407 1.404 . S
C408 C409 1.389 . S
C409 H392 0.939 . S
C409 C404 1.400 . S
C409 C408 1.389 . S
C410 P384 1.819 . S
C410 C411 1.391 . S
C410 C415 1.391 . S
C411 H393 0.941 . S
C411 C410 1.391 . S
C411 C412 1.396 . S
C412 H396 0.939 . S
C412 C411 1.396 . S
C412 C413 1.397 . S
C413 C412 1.397 . S
C413 C414 1.385 . S
C414 H397 0.940 . S
C414 C413 1.385 . S
C414 C415 1.388 . S
C415 H394 0.939 . S
C415 C410 1.391 . S
C415 C414 1.388 . S
P416 O427 1.490 . S
P416 C430 1.812 . S
P416 C436 1.803 . S
P416 C442 1.819 . S
H417 C431 0.941 . S
H418 C432 0.939 . S
H419 C434 0.940 . S
H420 C435 0.940 . S
H421 C437 0.939 . S
H422 C438 0.942 . S
H423 C440 0.940 . S
H424 C441 0.939 . S
H425 C443 0.941 . S
H426 C447 0.939 . S
O427 P416 1.490 . S
H428 C444 0.939 . S
H429 C446 0.940 . S
C430 P416 1.812 . S
C430 C431 1.389 . S
C430 C435 1.391 . S
C431 H417 0.941 . S
C431 C430 1.389 . S
C431 C432 1.397 . S
C432 H418 0.939 . S
C432 C431 1.397 . S
C432 C433 1.378 . S
C433 C432 1.378 . S
C433 C434 1.378 . S
C434 H419 0.940 . S
C434 C433 1.378 . S
C434 C435 1.396 . S
C435 H420 0.940 . S
C435 C430 1.391 . S
C435 C434 1.396 . S
C436 P416 1.803 . S
C436 C437 1.378 . S
C436 C441 1.400 . S
C437 H421 0.939 . S
C437 C436 1.378 . S
C437 C438 1.361 . S
C438 H422 0.942 . S
C438 C437 1.361 . S
C438 C439 1.369 1_556 S
C439 C438 1.369 1_554 S
C439 C440 1.404 . S
C440 H423 0.940 . S
C440 C439 1.404 . S
C440 C441 1.389 1_554 S
C441 H424 0.939 . S
C441 C436 1.400 . S
C441 C440 1.389 1_556 S
C442 P416 1.819 . S
C442 C443 1.391 . S
C442 C447 1.391 . S
C443 H425 0.941 . S
C443 C442 1.391 . S
C443 C444 1.396 . S
C444 H428 0.939 . S
C444 C443 1.396 . S
C444 C445 1.397 . S
C445 C444 1.397 . S
C445 C446 1.385 . S
C446 H429 0.940 . S
C446 C445 1.385 . S
C446 C447 1.388 . S
C447 H426 0.939 . S
C447 C442 1.391 . S
C447 C446 1.388 . S
P448 O459 1.490 . S
P448 C462 1.812 . S
P448 C468 1.803 . S
P448 C474 1.819 . S
H449 C463 0.941 . S
H450 C464 0.939 . S
H451 C466 0.940 . S
H452 C467 0.940 . S
H453 C469 0.939 . S
H454 C470 0.942 . S
H455 C472 0.940 . S
H456 C473 0.939 . S
H457 C475 0.941 . S
H458 C479 0.939 . S
O459 P448 1.490 . S
H460 C476 0.939 . S
H461 C478 0.940 . S
C462 P448 1.812 . S
C462 C463 1.389 . S
C462 C467 1.391 . S
C463 H449 0.941 . S
C463 C462 1.389 . S
C463 C464 1.397 . S
C464 H450 0.939 . S
C464 C463 1.397 . S
C464 C465 1.378 . S
C465 C464 1.378 . S
C465 C466 1.378 . S
C466 H451 0.940 . S
C466 C465 1.378 . S
C466 C467 1.396 . S
C467 H452 0.940 . S
C467 C462 1.391 . S
C467 C466 1.396 . S
C468 P448 1.803 . S
C468 C469 1.378 . S
C468 C473 1.400 . S
C469 H453 0.939 . S
C469 C468 1.378 . S
C469 C470 1.361 . S
C470 H454 0.942 . S
C470 C469 1.361 . S
C470 C471 1.369 . S
C471 C470 1.369 . S
C471 C472 1.404 . S
C472 H455 0.940 . S
C472 C471 1.404 . S
C472 C473 1.389 . S
C473 H456 0.939 . S
C473 C468 1.400 . S
C473 C472 1.389 . S
C474 P448 1.819 . S
C474 C475 1.391 . S
C474 C479 1.391 . S
C475 H457 0.941 . S
C475 C474 1.391 . S
C475 C476 1.396 . S
C476 H460 0.939 . S
C476 C475 1.396 . S
C476 C477 1.397 . S
C477 C476 1.397 . S
C477 C478 1.385 . S
C478 H461 0.940 . S
C478 C477 1.385 . S
C478 C479 1.388 . S
C479 H458 0.939 . S
C479 C474 1.391 . S
C479 C478 1.388 . S
P480 O491 1.490 . S
P480 C494 1.812 . S
P480 C500 1.803 . S
P480 C506 1.819 . S
H481 C495 0.941 . S
H482 C496 0.939 . S
H483 C498 0.940 . S
H484 C499 0.940 . S
H485 C501 0.939 . S
H486 C502 0.942 . S
H487 C504 0.940 . S
H488 C505 0.939 . S
H489 C507 0.941 1_565 S
H490 C511 0.939 . S
O491 P480 1.490 . S
H492 C508 0.939 . S
H493 C510 0.940 . S
C494 P480 1.812 . S
C494 C495 1.389 . S
C494 C499 1.391 . S
C495 H481 0.941 . S
C495 C494 1.389 . S
C495 C496 1.397 . S
C496 H482 0.939 . S
C496 C495 1.397 . S
C496 C497 1.378 . S
C497 C496 1.378 . S
C497 C498 1.378 . S
C498 H483 0.940 . S
C498 C497 1.378 . S
C498 C499 1.396 . S
C499 H484 0.940 . S
C499 C494 1.391 . S
C499 C498 1.396 . S
C500 P480 1.803 . S
C500 C501 1.378 1_556 S
C500 C505 1.400 . S
C501 H485 0.939 . S
C501 C500 1.378 1_554 S
C501 C502 1.361 . S
C502 H486 0.942 . S
C502 C501 1.361 . S
C502 C503 1.369 1_554 S
C503 C502 1.369 1_556 S
C503 C504 1.404 . S
C504 H487 0.940 . S
C504 C503 1.404 . S
C504 C505 1.389 . S
C505 H488 0.939 . S
C505 C500 1.400 . S
C505 C504 1.389 . S
C506 P480 1.819 . S
C506 C507 1.391 . S
C506 C511 1.391 . S
C507 H489 0.941 1_545 S
C507 C506 1.391 . S
C507 C508 1.396 1_545 S
C508 H492 0.939 . S
C508 C507 1.396 1_565 S
C508 C509 1.397 1_565 S
C509 C508 1.397 1_545 S
C509 C510 1.385 . S
C510 H493 0.940 . S
C510 C509 1.385 . S
C510 C511 1.388 . S
C511 H490 0.939 . S
C511 C506 1.391 . S
C511 C510 1.388 . S
Zn512 O515 2.040 . S
Zn512 O517 2.043 1_554 S
Zn512 O522 2.056 1_554 S
Zn513 O514 1.962 . S
Zn513 O516 1.986 . S
Zn513 O518 1.996 . S
Zn513 O521 1.943 1_554 S
O514 Zn513 1.962 . S
O514 C519 1.254 . S
O515 Zn512 2.040 . S
O515 C519 1.269 . S
O516 Zn513 1.986 . S
O516 C523 1.262 . S
O517 Zn512 2.043 1_556 S
O517 C525 1.260 . S
O518 Zn513 1.996 . S
O518 C525 1.257 1_554 S
C519 O514 1.254 . S
C519 O515 1.269 . S
C520 O521 1.249 . S
C520 O522 1.270 . S
O521 Zn513 1.943 1_556 S
O521 C520 1.249 . S
O522 Zn512 2.056 1_556 S
O522 C520 1.270 . S
C523 O516 1.262 . S
C523 O524 1.232 . S
O524 C523 1.232 . S
C525 O517 1.260 . S
C525 O518 1.257 1_556 S
Zn526 O529 2.031 . S
Zn526 O531 2.049 . S
Zn526 O536 2.067 . S
Zn527 O528 1.962 . S
Zn527 O530 1.986 . S
Zn527 O532 1.996 . S
Zn527 O535 1.943 . S
O528 Zn527 1.962 . S
O528 C533 1.254 . S
O529 Zn526 2.031 . S
O529 C533 1.269 . S
O530 Zn527 1.986 . S
O530 C537 1.262 . S
O531 Zn526 2.049 . S
O531 C539 1.260 . S
O532 Zn527 1.996 . S
O532 C539 1.257 . S
C533 O528 1.254 . S
C533 O529 1.269 . S
C534 O535 1.249 . S
C534 O536 1.270 . S
O535 Zn527 1.943 . S
O535 C534 1.249 . S
O536 Zn526 2.067 . S
O536 C534 1.270 . S
C537 O530 1.262 . S
C537 O538 1.232 . S
O538 C537 1.232 . S
C539 O531 1.260 . S
C539 O532 1.257 . S
Zn540 O543 2.031 . S
Zn540 O545 2.049 . S
Zn540 O550 2.067 . S
Zn541 O542 1.962 . S
Zn541 O544 1.986 . S
Zn541 O546 1.996 1_554 S
Zn541 O549 1.943 . S
O542 Zn541 1.962 . S
O542 C547 1.254 . S
O543 Zn540 2.031 . S
O543 C547 1.269 1_556 S
O544 Zn541 1.986 . S
O544 C551 1.262 . S
O545 Zn540 2.049 . S
O545 C553 1.260 . S
O546 Zn541 1.996 1_556 S
O546 C553 1.257 . S
C547 O542 1.254 . S
C547 O543 1.269 1_554 S
C548 O549 1.249 1_556 S
C548 O550 1.270 . S
O549 Zn541 1.943 . S
O549 C548 1.249 1_554 S
O550 Zn540 2.067 . S
O550 C548 1.270 . S
C551 O544 1.262 . S
C551 O552 1.232 . S
O552 C551 1.232 . S
C553 O545 1.260 . S
C553 O546 1.257 . S
Zn554 O557 2.044 . S
Zn554 O559 2.040 1_545 S
Zn554 O564 2.049 1_545 S
Zn555 O556 1.962 . S
Zn555 O558 1.986 . S
Zn555 O560 1.996 . S
Zn555 O563 1.943 1_545 S
O556 Zn555 1.962 . S
O556 C561 1.254 . S
O557 Zn554 2.044 . S
O557 C561 1.269 . S
O558 Zn555 1.986 . S
O558 C565 1.262 . S
O559 Zn554 2.040 1_565 S
O559 C567 1.260 . S
O560 Zn555 1.996 . S
O560 C567 1.257 1_545 S
C561 O556 1.254 . S
C561 O557 1.269 . S
C562 O563 1.249 . S
C562 O564 1.270 . S
O563 Zn555 1.943 1_565 S
O563 C562 1.249 . S
O564 Zn554 2.049 1_565 S
O564 C562 1.270 . S
C565 O558 1.262 . S
C565 O566 1.232 . S
O566 C565 1.232 . S
C567 O559 1.260 . S
C567 O560 1.257 1_565 S
Zn568 O571 2.031 . S
Zn568 O573 2.049 . S
Zn568 O578 2.067 . S
Zn569 O570 1.962 . S
Zn569 O572 1.986 . S
Zn569 O574 1.996 . S
Zn569 O577 1.943 . S
O570 Zn569 1.962 . S
O570 C575 1.254 . S
O571 Zn568 2.031 . S
O571 C575 1.269 . S
O572 Zn569 1.986 . S
O572 C579 1.262 . S
O573 Zn568 2.049 . S
O573 C581 1.260 . S
O574 Zn569 1.996 . S
O574 C581 1.257 . S
C575 O570 1.254 . S
C575 O571 1.269 . S
C576 O577 1.249 . S
C576 O578 1.270 . S
O577 Zn569 1.943 . S
O577 C576 1.249 . S
O578 Zn568 2.067 . S
O578 C576 1.270 . S
C579 O572 1.262 . S
C579 O580 1.232 . S
O580 C579 1.232 . S
C581 O573 1.260 . S
C581 O574 1.257 . S
Zn582 O585 2.031 . S
Zn582 O587 2.049 . S
Zn582 O592 2.067 . S
Zn583 O584 1.962 . S
Zn583 O586 1.986 . S
Zn583 O588 1.996 . S
Zn583 O591 1.943 . S
O584 Zn583 1.962 . S
O584 C589 1.254 . S
O585 Zn582 2.031 . S
O585 C589 1.269 . S
O586 Zn583 1.986 . S
O586 C593 1.262 . S
O587 Zn582 2.049 . S
O587 C595 1.260 . S
O588 Zn583 1.996 . S
O588 C595 1.257 . S
C589 O584 1.254 . S
C589 O585 1.269 . S
C590 O591 1.249 . S
C590 O592 1.270 . S
O591 Zn583 1.943 . S
O591 C590 1.249 . S
O592 Zn582 2.067 . S
O592 C590 1.270 . S
C593 O586 1.262 . S
C593 O594 1.232 . S
O594 C593 1.232 . S
C595 O587 1.260 . S
C595 O588 1.257 . S
Zn596 O599 2.031 . S
Zn596 O601 2.049 . S
Zn596 O606 2.067 . S
Zn597 O598 1.962 . S
Zn597 O600 1.986 . S
Zn597 O602 1.996 . S
Zn597 O605 1.943 . S
O598 Zn597 1.962 . S
O598 C603 1.254 . S
O599 Zn596 2.031 . S
O599 C603 1.269 . S
O600 Zn597 1.986 . S
O600 C607 1.262 . S
O601 Zn596 2.049 . S
O601 C609 1.260 . S
O602 Zn597 1.996 . S
O602 C609 1.257 . S
C603 O598 1.254 . S
C603 O599 1.269 . S
C604 O605 1.249 . S
C604 O606 1.270 . S
O605 Zn597 1.943 . S
O605 C604 1.249 . S
O606 Zn596 2.067 . S
O606 C604 1.270 . S
C607 O600 1.262 . S
C607 O608 1.232 . S
O608 C607 1.232 . S
C609 O601 1.260 . S
C609 O602 1.257 . S
Zn610 O613 2.031 . S
Zn610 O615 2.049 . S
Zn610 O620 2.067 . S
Zn611 O612 1.962 . S
Zn611 O614 1.986 . S
Zn611 O616 1.996 1_545 S
Zn611 O619 1.943 . S
O612 Zn611 1.962 . S
O612 C617 1.254 . S
O613 Zn610 2.031 . S
O613 C617 1.269 1_565 S
O614 Zn611 1.986 . S
O614 C621 1.262 . S
O615 Zn610 2.049 . S
O615 C623 1.260 . S
O616 Zn611 1.996 1_565 S
O616 C623 1.257 . S
C617 O612 1.254 . S
C617 O613 1.269 1_545 S
C618 O619 1.249 1_565 S
C618 O620 1.270 . S
O619 Zn611 1.943 . S
O619 C618 1.249 1_545 S
O620 Zn610 2.067 . S
O620 C618 1.270 . S
C621 O614 1.262 . S
C621 O622 1.232 . S
O622 C621 1.232 . S
C623 O615 1.260 . S
C623 O616 1.257 . S
Zn624 O627 2.031 . S
Zn624 O629 2.049 1_455 S
Zn624 O634 2.067 1_455 S
Zn625 O626 1.962 . S
Zn625 O628 1.986 . S
Zn625 O630 1.996 . S
Zn625 O633 1.943 1_455 S
O626 Zn625 1.962 . S
O626 C631 1.254 . S
O627 Zn624 2.031 . S
O627 C631 1.269 . S
O628 Zn625 1.986 . S
O628 C635 1.262 . S
O629 Zn624 2.049 1_655 S
O629 C637 1.260 . S
O630 Zn625 1.996 . S
O630 C637 1.257 1_455 S
C631 O626 1.254 . S
C631 O627 1.269 . S
C632 O633 1.249 . S
C632 O634 1.270 . S
O633 Zn625 1.943 1_655 S
O633 C632 1.249 . S
O634 Zn624 2.067 1_655 S
O634 C632 1.270 . S
C635 O628 1.262 . S
C635 O636 1.232 . S
O636 C635 1.232 . S
C637 O629 1.260 . S
C637 O630 1.257 1_655 S
Zn638 O641 2.031 . S
Zn638 O643 2.049 . S
Zn638 O648 2.067 . S
Zn639 O640 1.962 . S
Zn639 O642 1.986 . S
Zn639 O644 1.996 . S
Zn639 O647 1.943 . S
O640 Zn639 1.962 . S
O640 C645 1.254 . S
O641 Zn638 2.031 . S
O641 C645 1.269 . S
O642 Zn639 1.986 . S
O642 C649 1.262 . S
O643 Zn638 2.049 . S
O643 C651 1.260 . S
O644 Zn639 1.996 . S
O644 C651 1.257 . S
C645 O640 1.254 . S
C645 O641 1.269 . S
C646 O647 1.249 . S
C646 O648 1.270 . S
O647 Zn639 1.943 . S
O647 C646 1.249 . S
O648 Zn638 2.067 . S
O648 C646 1.270 . S
C649 O642 1.262 . S
C649 O650 1.232 . S
O650 C649 1.232 . S
C651 O643 1.260 . S
C651 O644 1.257 . S
Zn652 O655 2.031 . S
Zn652 O657 2.049 . S
Zn652 O662 2.067 . S
Zn653 O654 1.962 . S
Zn653 O656 1.986 . S
Zn653 O658 1.996 1_455 S
Zn653 O661 1.943 . S
O654 Zn653 1.962 . S
O654 C659 1.254 . S
O655 Zn652 2.031 . S
O655 C659 1.269 1_655 S
O656 Zn653 1.986 . S
O656 C663 1.262 . S
O657 Zn652 2.049 . S
O657 C665 1.260 . S
O658 Zn653 1.996 1_655 S
O658 C665 1.257 . S
C659 O654 1.254 . S
C659 O655 1.269 1_455 S
C660 O661 1.249 1_655 S
C660 O662 1.270 . S
O661 Zn653 1.943 . S
O661 C660 1.249 1_455 S
O662 Zn652 2.067 . S
O662 C660 1.270 . S
C663 O656 1.262 . S
C663 O664 1.232 . S
O664 C663 1.232 . S
C665 O657 1.260 . S
C665 O658 1.257 . S
Zn666 O669 2.031 . S
Zn666 O671 2.049 . S
Zn666 O676 2.067 . S
Zn667 O668 1.962 . S
Zn667 O670 1.986 . S
Zn667 O672 1.996 . S
Zn667 O675 1.943 . S
O668 Zn667 1.962 . S
O668 C673 1.254 . S
O669 Zn666 2.031 . S
O669 C673 1.269 . S
O670 Zn667 1.986 . S
O670 C677 1.262 . S
O671 Zn666 2.049 . S
O671 C679 1.260 . S
O672 Zn667 1.996 . S
O672 C679 1.257 . S
C673 O668 1.254 . S
C673 O669 1.269 . S
C674 O675 1.249 . S
C674 O676 1.270 . S
O675 Zn667 1.943 . S
O675 C674 1.249 . S
O676 Zn666 2.067 . S
O676 C674 1.270 . S
C677 O670 1.262 . S
C677 O678 1.232 . S
O678 C677 1.232 . S
C679 O671 1.260 . S
C679 O672 1.257 . S
H680 C688 0.950 . S
H681 C693 0.950 . S
H682 C690 0.950 . S
H683 C692 0.950 . S
H684 C694 0.950 . S
H685 C696 0.950 . S
H686 C698 0.950 . S
H687 C699 0.950 . S
C688 H680 0.950 . S
C688 C689 1.386 . S
C688 C690 1.391 . S
C689 C688 1.386 . S
C689 C693 1.393 . S
C690 H682 0.950 . S
C690 C688 1.391 . S
C690 C691 1.400 . S
C691 C690 1.400 . S
C691 C692 1.398 . S
C691 C697 1.491 . S
C692 H683 0.950 . S
C692 C691 1.398 . S
C692 C693 1.391 . S
C693 H681 0.950 . S
C693 C689 1.393 . S
C693 C692 1.391 . S
C694 H684 0.950 . S
C694 C695 1.386 . S
C694 C696 1.391 . S
C695 C694 1.386 . S
C695 C699 1.393 . S
C696 H685 0.950 . S
C696 C694 1.391 . S
C696 C697 1.400 . S
C697 C691 1.491 . S
C697 C696 1.400 . S
C697 C698 1.398 . S
C698 H686 0.950 . S
C698 C697 1.398 . S
C698 C699 1.391 . S
C699 H687 0.950 . S
C699 C695 1.393 . S
C699 C698 1.391 . S
H700 C708 0.950 1_655 S
H701 C713 0.950 . S
H702 C710 0.950 . S
H703 C712 0.950 . S
H704 C714 0.950 . S
H705 C716 0.950 . S
H706 C718 0.950 . S
H707 C719 0.950 . S
C708 H700 0.950 1_455 S
C708 C709 1.386 . S
C708 C710 1.391 . S
C709 C708 1.386 . S
C709 C713 1.393 . S
C710 H702 0.950 . S
C710 C708 1.391 . S
C710 C711 1.400 . S
C711 C710 1.400 . S
C711 C712 1.398 . S
C711 C717 1.491 . S
C712 H703 0.950 . S
C712 C711 1.398 . S
C712 C713 1.391 . S
C713 H701 0.950 . S
C713 C709 1.393 . S
C713 C712 1.391 . S
C714 H704 0.950 . S
C714 C715 1.386 . S
C714 C716 1.391 . S
C715 C714 1.386 . S
C715 C719 1.393 . S
C716 H705 0.950 . S
C716 C714 1.391 . S
C716 C717 1.400 . S
C717 C711 1.491 . S
C717 C716 1.400 . S
C717 C718 1.398 . S
C718 H706 0.950 . S
C718 C717 1.398 . S
C718 C719 1.391 . S
C719 H707 0.950 . S
C719 C715 1.393 . S
C719 C718 1.391 . S
H720 C728 0.950 . S
H721 C733 0.950 . S
H722 C730 0.950 . S
H723 C732 0.950 . S
H724 C734 0.950 . S
H725 C736 0.950 . S
H726 C738 0.950 . S
H727 C739 0.950 . S
C728 H720 0.950 . S
C728 C729 1.386 . S
C728 C730 1.391 . S
C729 C728 1.386 . S
C729 C733 1.393 . S
C730 H722 0.950 . S
C730 C728 1.391 . S
C730 C731 1.400 . S
C731 C730 1.400 . S
C731 C732 1.398 . S
C731 C737 1.491 . S
C732 H723 0.950 . S
C732 C731 1.398 . S
C732 C733 1.391 . S
C733 H721 0.950 . S
C733 C729 1.393 . S
C733 C732 1.391 . S
C734 H724 0.950 . S
C734 C735 1.386 . S
C734 C736 1.391 . S
C735 C734 1.386 . S
C735 C739 1.393 . S
C736 H725 0.950 . S
C736 C734 1.391 . S
C736 C737 1.400 . S
C737 C731 1.491 . S
C737 C736 1.400 . S
C737 C738 1.398 . S
C738 H726 0.950 . S
C738 C737 1.398 . S
C738 C739 1.391 . S
C739 H727 0.950 . S
C739 C735 1.393 . S
C739 C738 1.391 . S
H740 C748 0.950 . S
H741 C753 0.950 . S
H742 C750 0.950 . S
H743 C752 0.950 . S
H744 C754 0.950 1_545 S
H745 C756 0.950 1_545 S
H746 C758 0.950 . S
H747 C759 0.950 . S
C748 H740 0.950 . S
C748 C749 1.386 . S
C748 C750 1.391 . S
C749 C748 1.386 . S
C749 C753 1.393 1_655 S
C750 H742 0.950 . S
C750 C748 1.391 . S
C750 C751 1.400 . S
C751 C750 1.400 . S
C751 C752 1.398 . S
C751 C757 1.491 . S
C752 H743 0.950 . S
C752 C751 1.398 . S
C752 C753 1.391 1_655 S
C753 H741 0.950 . S
C753 C749 1.393 1_455 S
C753 C752 1.391 1_455 S
C754 H744 0.950 1_565 S
C754 C755 1.386 . S
C754 C756 1.391 . S
C755 C754 1.386 . S
C755 C759 1.393 . S
C756 H745 0.950 1_565 S
C756 C754 1.391 . S
C756 C757 1.400 . S
C757 C751 1.491 . S
C757 C756 1.400 . S
C757 C758 1.398 . S
C758 H746 0.950 . S
C758 C757 1.398 . S
C758 C759 1.391 . S
C759 H747 0.950 . S
C759 C755 1.393 . S
C759 C758 1.391 . S
H760 C768 0.950 . S
H761 C773 0.950 . S
H762 C770 0.950 . S
H763 C772 0.950 . S
H764 C774 0.950 . S
H765 C776 0.950 . S
H766 C778 0.950 . S
H767 C779 0.950 . S
C768 H760 0.950 . S
C768 C769 1.386 . S
C768 C770 1.391 . S
C769 C768 1.386 . S
C769 C773 1.393 . S
C770 H762 0.950 . S
C770 C768 1.391 . S
C770 C771 1.400 . S
C771 C770 1.400 . S
C771 C772 1.398 . S
C771 C777 1.491 . S
C772 H763 0.950 . S
C772 C771 1.398 . S
C772 C773 1.391 . S
C773 H761 0.950 . S
C773 C769 1.393 . S
C773 C772 1.391 . S
C774 H764 0.950 . S
C774 C775 1.386 . S
C774 C776 1.391 . S
C775 C774 1.386 . S
C775 C779 1.393 . S
C776 H765 0.950 . S
C776 C774 1.391 . S
C776 C777 1.400 . S
C777 C771 1.491 . S
C777 C776 1.400 . S
C777 C778 1.398 . S
C778 H766 0.950 . S
C778 C777 1.398 . S
C778 C779 1.391 . S
C779 H767 0.950 . S
C779 C775 1.393 . S
C779 C778 1.391 . S
H780 C788 0.950 . S
H781 C793 0.950 . S
H782 C790 0.950 . S
H783 C792 0.950 . S
H784 C794 0.950 . S
H785 C796 0.950 . S
H786 C798 0.950 . S
H787 C799 0.950 . S
C788 H780 0.950 . S
C788 C789 1.386 . S
C788 C790 1.391 . S
C789 C788 1.386 . S
C789 C793 1.393 . S
C790 H782 0.950 . S
C790 C788 1.391 . S
C790 C791 1.400 . S
C791 C790 1.400 . S
C791 C792 1.398 . S
C791 C797 1.491 . S
C792 H783 0.950 . S
C792 C791 1.398 . S
C792 C793 1.391 . S
C793 H781 0.950 . S
C793 C789 1.393 . S
C793 C792 1.391 . S
C794 H784 0.950 . S
C794 C795 1.386 . S
C794 C796 1.391 . S
C795 C794 1.386 . S
C795 C799 1.393 . S
C796 H785 0.950 . S
C796 C794 1.391 . S
C796 C797 1.400 . S
C797 C791 1.491 . S
C797 C796 1.400 . S
C797 C798 1.398 . S
C798 H786 0.950 . S
C798 C797 1.398 . S
C798 C799 1.391 . S
C799 H787 0.950 . S
C799 C795 1.393 . S
C799 C798 1.391 . S
H800 C808 0.950 . S
H801 C813 0.950 . S
H802 C810 0.950 . S
H803 C812 0.950 . S
H804 C814 0.950 . S
H805 C816 0.950 . S
H806 C818 0.950 . S
H807 C819 0.950 . S
C808 H800 0.950 . S
C808 C809 1.386 . S
C808 C810 1.391 . S
C809 C808 1.386 . S
C809 C813 1.393 . S
C810 H802 0.950 . S
C810 C808 1.391 . S
C810 C811 1.400 . S
C811 C810 1.400 . S
C811 C812 1.398 . S
C811 C817 1.491 . S
C812 H803 0.950 . S
C812 C811 1.398 . S
C812 C813 1.391 . S
C813 H801 0.950 . S
C813 C809 1.393 . S
C813 C812 1.391 . S
C814 H804 0.950 . S
C814 C815 1.386 . S
C814 C816 1.391 . S
C815 C814 1.386 . S
C815 C819 1.393 . S
C816 H805 0.950 . S
C816 C814 1.391 . S
C816 C817 1.400 . S
C817 C811 1.491 . S
C817 C816 1.400 . S
C817 C818 1.398 . S
C818 H806 0.950 . S
C818 C817 1.398 . S
C818 C819 1.391 . S
C819 H807 0.950 . S
C819 C815 1.393 . S
C819 C818 1.391 . S
H820 C828 0.950 . S
H821 C833 0.950 . S
H822 C830 0.950 . S
H823 C832 0.950 . S
H824 C834 0.950 . S
H825 C836 0.950 . S
H826 C838 0.950 . S
H827 C839 0.953 . S
C828 H820 0.950 . S
C828 C829 1.386 . S
C828 C830 1.391 . S
C829 C828 1.386 . S
C829 C833 1.393 . S
C830 H822 0.950 . S
C830 C828 1.391 . S
C830 C831 1.400 . S
C831 C830 1.400 . S
C831 C832 1.398 . S
C831 C837 1.491 . S
C832 H823 0.950 . S
C832 C831 1.398 . S
C832 C833 1.391 . S
C833 H821 0.950 . S
C833 C829 1.393 . S
C833 C832 1.391 . S
C834 H824 0.950 . S
C834 C835 1.386 . S
C834 C836 1.391 . S
C835 C834 1.386 . S
C835 C839 1.393 . S
C836 H825 0.950 . S
C836 C834 1.391 . S
C836 C837 1.400 . S
C837 C831 1.491 . S
C837 C836 1.400 . S
C837 C838 1.398 . S
C838 H826 0.950 . S
C838 C837 1.398 . S
C838 C839 1.391 . S
C839 H827 0.953 . S
C839 C835 1.393 . S
C839 C838 1.391 . S
H840 C848 0.950 . S
H841 C853 0.950 . S
H842 C850 0.950 . S
H843 C852 0.950 . S
H844 C854 0.950 . S
H845 C856 0.950 . S
H846 C858 0.950 . S
H847 C859 0.950 . S
C848 H840 0.950 . S
C848 C849 1.386 . S
C848 C850 1.391 . S
C849 C848 1.386 . S
C849 C853 1.393 . S
C850 H842 0.950 . S
C850 C848 1.391 . S
C850 C851 1.400 . S
C851 C850 1.400 . S
C851 C852 1.398 . S
C851 C857 1.491 . S
C852 H843 0.950 . S
C852 C851 1.398 . S
C852 C853 1.391 . S
C853 H841 0.950 . S
C853 C849 1.393 . S
C853 C852 1.391 . S
C854 H844 0.950 . S
C854 C855 1.386 . S
C854 C856 1.391 . S
C855 C854 1.386 . S
C855 C859 1.393 . S
C856 H845 0.950 . S
C856 C854 1.391 . S
C856 C857 1.400 . S
C857 C851 1.491 . S
C857 C856 1.400 . S
C857 C858 1.398 . S
C858 H846 0.950 . S
C858 C857 1.398 . S
C858 C859 1.391 . S
C859 H847 0.950 . S
C859 C855 1.393 . S
C859 C858 1.391 . S
H860 C868 0.950 . S
H861 C873 0.950 . S
H862 C870 0.950 . S
H863 C872 0.950 . S
H864 C874 0.950 . S
H865 C876 0.950 . S
H866 C878 0.950 . S
H867 C879 0.950 . S
C868 H860 0.950 . S
C868 C869 1.386 . S
C868 C870 1.391 . S
C869 C868 1.386 . S
C869 C873 1.393 . S
C870 H862 0.950 . S
C870 C868 1.391 . S
C870 C871 1.400 . S
C871 C870 1.400 . S
C871 C872 1.398 . S
C871 C877 1.491 . S
C872 H863 0.950 . S
C872 C871 1.398 . S
C872 C873 1.391 . S
C873 H861 0.950 . S
C873 C869 1.393 . S
C873 C872 1.391 . S
C874 H864 0.950 . S
C874 C875 1.386 . S
C874 C876 1.391 . S
C875 C874 1.386 . S
C875 C879 1.393 . S
C876 H865 0.950 . S
C876 C874 1.391 . S
C876 C877 1.400 . S
C877 C871 1.491 . S
C877 C876 1.400 . S
C877 C878 1.398 . S
C878 H866 0.950 . S
C878 C877 1.398 . S
C878 C879 1.391 . S
C879 H867 0.950 . S
C879 C875 1.393 . S
C879 C878 1.391 . S
H880 C888 0.950 . S
H881 C893 0.950 . S
H882 C890 0.950 . S
H883 C892 0.950 . S
H884 C894 0.950 . S
H885 C896 0.950 . S
H886 C898 0.950 . S
H887 C899 0.950 . S
C888 H880 0.950 . S
C888 C889 1.386 . S
C888 C890 1.391 . S
C889 C888 1.386 . S
C889 C893 1.393 . S
C890 H882 0.950 . S
C890 C888 1.391 . S
C890 C891 1.400 . S
C891 C890 1.400 . S
C891 C892 1.398 . S
C891 C897 1.491 . S
C892 H883 0.950 . S
C892 C891 1.398 . S
C892 C893 1.391 . S
C893 H881 0.950 . S
C893 C889 1.393 . S
C893 C892 1.391 . S
C894 H884 0.950 . S
C894 C895 1.386 . S
C894 C896 1.391 . S
C895 C894 1.386 . S
C895 C899 1.393 . S
C896 H885 0.950 . S
C896 C894 1.391 . S
C896 C897 1.400 . S
C897 C891 1.491 . S
C897 C896 1.400 . S
C897 C898 1.398 . S
C898 H886 0.950 . S
C898 C897 1.398 . S
C898 C899 1.391 . S
C899 H887 0.950 . S
C899 C895 1.393 . S
C899 C898 1.391 . S
H900 C908 0.950 . S
H901 C913 0.950 . S
H902 C910 0.950 . S
H903 C912 0.950 . S
H904 C914 0.950 . S
H905 C916 0.950 . S
H906 C918 0.950 . S
H907 C919 0.950 . S
C908 H900 0.950 . S
C908 C909 1.386 . S
C908 C910 1.391 . S
C909 C908 1.386 . S
C909 C913 1.393 . S
C910 H902 0.950 . S
C910 C908 1.391 . S
C910 C911 1.400 . S
C911 C910 1.400 . S
C911 C912 1.398 . S
C911 C917 1.491 . S
C912 H903 0.950 . S
C912 C911 1.398 . S
C912 C913 1.391 . S
C913 H901 0.950 . S
C913 C909 1.393 . S
C913 C912 1.391 . S
C914 H904 0.950 . S
C914 C915 1.386 . S
C914 C916 1.391 . S
C915 C914 1.386 . S
C915 C919 1.393 . S
C916 H905 0.950 . S
C916 C914 1.391 . S
C916 C917 1.400 . S
C917 C911 1.491 . S
C917 C916 1.400 . S
C917 C918 1.398 . S
C918 H906 0.950 . S
C918 C917 1.398 . S
C918 C919 1.391 . S
C919 H907 0.950 . S
C919 C915 1.393 . S
C919 C918 1.391 . S
H920 C928 0.950 . S
H921 C933 0.950 . S
H922 C930 0.950 . S
H923 C932 0.950 . S
H924 C934 0.950 . S
H925 C936 0.950 . S
H926 C938 0.950 . S
H927 C939 0.950 . S
C928 H920 0.950 . S
C928 C929 1.386 . S
C928 C930 1.391 . S
C929 C928 1.386 . S
C929 C933 1.393 . S
C930 H922 0.950 . S
C930 C928 1.391 . S
C930 C931 1.400 . S
C931 C930 1.400 . S
C931 C932 1.398 . S
C931 C937 1.491 . S
C932 H923 0.950 . S
C932 C931 1.398 . S
C932 C933 1.391 . S
C933 H921 0.950 . S
C933 C929 1.393 . S
C933 C932 1.391 . S
C934 H924 0.950 . S
C934 C935 1.386 . S
C934 C936 1.391 . S
C935 C934 1.386 . S
C935 C939 1.393 . S
C936 H925 0.950 . S
C936 C934 1.391 . S
C936 C937 1.400 . S
C937 C931 1.491 . S
C937 C936 1.400 . S
C937 C938 1.398 . S
C938 H926 0.950 . S
C938 C937 1.398 . S
C938 C939 1.391 . S
C939 H927 0.950 . S
C939 C935 1.393 . S
C939 C938 1.391 . S
H940 C948 0.950 . S
H941 C953 0.950 . S
H942 C950 0.975 . S
H943 C952 0.950 . S
H944 C954 0.950 . S
H945 C956 0.950 . S
H946 C958 0.950 1_655 S
H947 C959 0.976 . S
C948 H940 0.950 . S
C948 C949 1.386 . S
C948 C950 1.391 . S
C949 C948 1.386 . S
C949 C953 1.393 . S
C950 H942 0.975 . S
C950 C948 1.391 . S
C950 C951 1.400 . S
C951 C950 1.400 . S
C951 C952 1.398 . S
C951 C957 1.491 . S
C952 H943 0.950 . S
C952 C951 1.398 . S
C952 C953 1.391 . S
C953 H941 0.950 . S
C953 C949 1.393 . S
C953 C952 1.391 . S
C954 H944 0.950 . S
C954 C955 1.386 . S
C954 C956 1.391 . S
C955 C954 1.386 . S
C955 C959 1.372 1_455 S
C956 H945 0.950 . S
C956 C954 1.391 . S
C956 C957 1.400 . S
C957 C951 1.491 . S
C957 C956 1.400 . S
C957 C958 1.398 . S
C958 H946 0.950 1_455 S
C958 C957 1.398 . S
C958 C959 1.385 1_455 S
C959 H947 0.976 . S
C959 C955 1.372 1_655 S
C959 C958 1.385 1_655 S
H960 C968 0.950 . S
H961 C973 0.950 . S
H962 C970 0.950 . S
H963 C972 0.950 . S
H964 C974 0.950 . S
H965 C976 0.950 . S
H966 C978 0.950 . S
H967 C979 0.950 . S
C968 H960 0.950 . S
C968 C969 1.386 . S
C968 C970 1.391 . S
C969 C968 1.386 . S
C969 C973 1.393 . S
C970 H962 0.950 . S
C970 C968 1.391 . S
C970 C971 1.400 . S
C971 C970 1.400 . S
C971 C972 1.398 . S
C971 C977 1.491 . S
C972 H963 0.950 . S
C972 C971 1.398 . S
C972 C973 1.391 . S
C973 H961 0.950 . S
C973 C969 1.393 . S
C973 C972 1.391 . S
C974 H964 0.950 . S
C974 C975 1.386 . S
C974 C976 1.391 . S
C975 C974 1.386 . S
C975 C979 1.393 . S
C976 H965 0.950 . S
C976 C974 1.391 . S
C976 C977 1.400 . S
C977 C971 1.491 . S
C977 C976 1.400 . S
C977 C978 1.398 . S
C978 H966 0.950 . S
C978 C977 1.398 . S
C978 C979 1.391 . S
C979 H967 0.950 . S
C979 C975 1.393 . S
C979 C978 1.391 . S
H980 C988 0.950 . S
H981 C993 0.950 1_455 S
H982 C990 0.950 . S
H983 C992 0.950 1_455 S
H984 C994 0.950 . S
H985 C996 0.950 . S
H986 C998 0.950 . S
H987 C999 0.950 . S
C988 H980 0.950 . S
C988 C989 1.386 . S
C988 C990 1.391 . S
C989 C988 1.386 . S
C989 C993 1.393 . S
C990 H982 0.950 . S
C990 C988 1.391 . S
C990 C991 1.400 . S
C991 C990 1.400 . S
C991 C992 1.398 . S
C991 C997 1.491 . S
C992 H983 0.950 1_655 S
C992 C991 1.398 . S
C992 C993 1.391 . S
C993 H981 0.950 1_655 S
C993 C989 1.393 . S
C993 C992 1.391 . S
C994 H984 0.950 . S
C994 C995 1.386 1_455 S
C994 C996 1.391 . S
C995 C994 1.386 1_655 S
C995 C999 1.393 . S
C996 H985 0.950 . S
C996 C994 1.391 . S
C996 C997 1.400 1_455 S
C997 C991 1.491 . S
C997 C996 1.400 1_655 S
C997 C998 1.398 . S
C998 H986 0.950 . S
C998 C997 1.398 . S
C998 C999 1.391 . S
C999 H987 0.950 . S
C999 C995 1.393 . S
C999 C998 1.391 . S
H1000 C1008 0.950 . S
H1001 C1013 0.950 . S
H1002 C1010 0.950 . S
H1003 C1012 0.950 . S
H1004 C1014 0.950 . S
H1005 C1016 0.950 . S
H1006 C1018 0.950 . S
H1007 C1019 0.950 . S
C1008 H1000 0.950 . S
C1008 C1009 1.386 . S
C1008 C1010 1.391 . S
C1009 C1008 1.386 . S
C1009 C1013 1.393 . S
C1010 H1002 0.950 . S
C1010 C1008 1.391 . S
C1010 C1011 1.400 . S
C1011 C1010 1.400 . S
C1011 C1012 1.398 . S
C1011 C1017 1.491 . S
C1012 H1003 0.950 . S
C1012 C1011 1.398 . S
C1012 C1013 1.391 . S
C1013 H1001 0.950 . S
C1013 C1009 1.393 . S
C1013 C1012 1.391 . S
C1014 H1004 0.950 . S
C1014 C1015 1.386 . S
C1014 C1016 1.391 . S
C1015 C1014 1.386 . S
C1015 C1019 1.393 . S
C1016 H1005 0.950 . S
C1016 C1014 1.391 . S
C1016 C1017 1.400 . S
C1017 C1011 1.491 . S
C1017 C1016 1.400 . S
C1017 C1018 1.398 . S
C1018 H1006 0.950 . S
C1018 C1017 1.398 . S
C1018 C1019 1.391 . S
C1019 H1007 0.950 . S
C1019 C1015 1.393 . S
C1019 C1018 1.391 . S
H1020 C1028 0.950 . S
H1021 C1033 0.950 . S
H1022 C1030 0.950 . S
H1023 C1032 0.950 . S
H1024 C1034 0.950 . S
H1025 C1036 0.950 . S
H1026 C1038 0.950 . S
H1027 C1039 0.950 . S
C1028 H1020 0.950 . S
C1028 C1029 1.386 . S
C1028 C1030 1.391 . S
C1029 C1028 1.386 . S
C1029 C1033 1.393 . S
C1030 H1022 0.950 . S
C1030 C1028 1.391 . S
C1030 C1031 1.400 . S
C1031 C1030 1.400 . S
C1031 C1032 1.398 . S
C1031 C1037 1.491 . S
C1032 H1023 0.950 . S
C1032 C1031 1.398 . S
C1032 C1033 1.391 . S
C1033 H1021 0.950 . S
C1033 C1029 1.393 . S
C1033 C1032 1.391 . S
C1034 H1024 0.950 . S
C1034 C1035 1.386 . S
C1034 C1036 1.391 . S
C1035 C1034 1.386 . S
C1035 C1039 1.393 . S
C1036 H1025 0.950 . S
C1036 C1034 1.391 . S
C1036 C1037 1.400 . S
C1037 C1031 1.491 . S
C1037 C1036 1.400 . S
C1037 C1038 1.398 . S
C1038 H1026 0.950 . S
C1038 C1037 1.398 . S
C1038 C1039 1.391 . S
C1039 H1027 0.950 . S
C1039 C1035 1.393 . S
C1039 C1038 1.391 . S
H1040 C1048 0.935 1_545 S
H1041 C1053 0.950 . S
H1042 C1050 0.950 . S
H1043 C1052 0.950 . S
H1044 C1054 0.950 1_554 S
H1045 C1056 0.950 . S
H1046 C1058 0.950 . S
H1047 C1059 0.950 . S
C1048 H1040 0.935 1_565 S
C1048 C1049 1.389 . S
C1048 C1050 1.403 . S
C1049 C1048 1.389 . S
C1049 C1053 1.393 . S
C1050 H1042 0.950 . S
C1050 C1048 1.403 . S
C1050 C1051 1.400 . S
C1051 C1050 1.400 . S
C1051 C1052 1.398 . S
C1051 C1057 1.491 . S
C1052 H1043 0.950 . S
C1052 C1051 1.398 . S
C1052 C1053 1.391 . S
C1053 H1041 0.950 . S
C1053 C1049 1.393 . S
C1053 C1052 1.391 . S
C1054 H1044 0.950 1_556 S
C1054 C1055 1.386 . S
C1054 C1056 1.391 . S
C1055 C1054 1.386 . S
C1055 C1059 1.393 . S
C1056 H1045 0.950 . S
C1056 C1054 1.391 . S
C1056 C1057 1.400 . S
C1057 C1051 1.491 . S
C1057 C1056 1.400 . S
C1057 C1058 1.398 . S
C1058 H1046 0.950 . S
C1058 C1057 1.398 . S
C1058 C1059 1.391 . S
C1059 H1047 0.950 . S
C1059 C1055 1.393 . S
C1059 C1058 1.391 . S
H1060 C1068 0.950 . S
H1061 C1073 0.950 . S
H1062 C1070 0.950 . S
H1063 C1072 0.950 . S
H1064 C1074 0.950 . S
H1065 C1076 0.950 . S
H1066 C1078 0.950 . S
H1067 C1079 0.950 . S
C1068 H1060 0.950 . S
C1068 C1069 1.386 . S
C1068 C1070 1.391 . S
C1069 C1068 1.386 . S
C1069 C1073 1.393 . S
C1070 H1062 0.950 . S
C1070 C1068 1.391 . S
C1070 C1071 1.400 . S
C1071 C1070 1.400 . S
C1071 C1072 1.398 . S
C1071 C1077 1.491 . S
C1072 H1063 0.950 . S
C1072 C1071 1.398 . S
C1072 C1073 1.391 . S
C1073 H1061 0.950 . S
C1073 C1069 1.393 . S
C1073 C1072 1.391 . S
C1074 H1064 0.950 . S
C1074 C1075 1.386 . S
C1074 C1076 1.391 . S
C1075 C1074 1.386 . S
C1075 C1079 1.393 . S
C1076 H1065 0.950 . S
C1076 C1074 1.391 . S
C1076 C1077 1.400 . S
C1077 C1071 1.491 . S
C1077 C1076 1.400 . S
C1077 C1078 1.398 . S
C1078 H1066 0.950 . S
C1078 C1077 1.398 . S
C1078 C1079 1.391 . S
C1079 H1067 0.950 . S
C1079 C1075 1.393 . S
C1079 C1078 1.391 . S
H1080 C1088 0.950 1_565 S
H1081 C1093 0.950 . S
H1082 C1090 0.950 . S
H1083 C1092 0.950 . S
H1084 C1094 0.950 . S
H1085 C1096 0.950 . S
H1086 C1098 0.950 . S
H1087 C1099 0.950 . S
C1088 H1080 0.950 1_545 S
C1088 C1089 1.386 . S
C1088 C1090 1.391 . S
C1089 C1088 1.386 . S
C1089 C1093 1.393 . S
C1090 H1082 0.950 . S
C1090 C1088 1.391 . S
C1090 C1091 1.400 . S
C1091 C1090 1.400 . S
C1091 C1092 1.398 . S
C1091 C1097 1.491 . S
C1092 H1083 0.950 . S
C1092 C1091 1.398 . S
C1092 C1093 1.391 . S
C1093 H1081 0.950 . S
C1093 C1089 1.393 . S
C1093 C1092 1.391 . S
C1094 H1084 0.950 . S
C1094 C1095 1.386 . S
C1094 C1096 1.391 . S
C1095 C1094 1.386 . S
C1095 C1099 1.393 . S
C1096 H1085 0.950 . S
C1096 C1094 1.391 . S
C1096 C1097 1.400 . S
C1097 C1091 1.491 . S
C1097 C1096 1.400 . S
C1097 C1098 1.398 . S
C1098 H1086 0.950 . S
C1098 C1097 1.398 . S
C1098 C1099 1.391 . S
C1099 H1087 0.950 . S
C1099 C1095 1.393 . S
C1099 C1098 1.391 . S
H1100 C1108 0.950 . S
H1101 C1113 0.950 . S
H1102 C1110 0.950 . S
H1103 C1112 0.950 . S
H1104 C1114 0.950 . S
H1105 C1116 0.950 . S
H1106 C1118 0.950 . S
H1107 C1119 0.950 . S
C1108 H1100 0.950 . S
C1108 C1109 1.386 . S
C1108 C1110 1.391 . S
C1109 C1108 1.386 . S
C1109 C1113 1.393 . S
C1110 H1102 0.950 . S
C1110 C1108 1.391 . S
C1110 C1111 1.400 . S
C1111 C1110 1.400 . S
C1111 C1112 1.398 . S
C1111 C1117 1.491 . S
C1112 H1103 0.950 . S
C1112 C1111 1.398 . S
C1112 C1113 1.391 . S
C1113 H1101 0.950 . S
C1113 C1109 1.393 . S
C1113 C1112 1.391 . S
C1114 H1104 0.950 . S
C1114 C1115 1.386 . S
C1114 C1116 1.391 . S
C1115 C1114 1.386 . S
C1115 C1119 1.393 . S
C1116 H1105 0.950 . S
C1116 C1114 1.391 . S
C1116 C1117 1.400 . S
C1117 C1111 1.491 . S
C1117 C1116 1.400 . S
C1117 C1118 1.398 . S
C1118 H1106 0.950 . S
C1118 C1117 1.398 . S
C1118 C1119 1.391 . S
C1119 H1107 0.950 . S
C1119 C1115 1.393 . S
C1119 C1118 1.391 . S
H1120 C1128 0.950 . S
H1121 C1133 0.950 . S
H1122 C1130 0.950 . S
H1123 C1132 0.950 . S
H1124 C1134 0.950 . S
H1125 C1136 0.950 . S
H1126 C1138 0.950 . S
H1127 C1139 0.950 . S
C1128 H1120 0.950 . S
C1128 C1129 1.386 . S
C1128 C1130 1.391 . S
C1129 C1128 1.386 . S
C1129 C1133 1.393 . S
C1130 H1122 0.950 . S
C1130 C1128 1.391 . S
C1130 C1131 1.400 . S
C1131 C1130 1.400 . S
C1131 C1132 1.398 . S
C1131 C1137 1.491 . S
C1132 H1123 0.950 . S
C1132 C1131 1.398 . S
C1132 C1133 1.391 . S
C1133 H1121 0.950 . S
C1133 C1129 1.393 . S
C1133 C1132 1.391 . S
C1134 H1124 0.950 . S
C1134 C1135 1.386 . S
C1134 C1136 1.391 . S
C1135 C1134 1.386 . S
C1135 C1139 1.393 . S
C1136 H1125 0.950 . S
C1136 C1134 1.391 . S
C1136 C1137 1.400 . S
C1137 C1131 1.491 . S
C1137 C1136 1.400 . S
C1137 C1138 1.398 . S
C1138 H1126 0.950 . S
C1138 C1137 1.398 . S
C1138 C1139 1.391 . S
C1139 H1127 0.950 . S
C1139 C1135 1.393 . S
C1139 C1138 1.391 . S
H1140 C1148 0.950 . S
H1141 C1153 0.950 . S
H1142 C1150 0.950 . S
H1143 C1152 0.950 . S
H1144 C1154 0.950 . S
H1145 C1156 0.950 . S
H1146 C1158 0.950 . S
H1147 C1159 0.950 . S
C1148 H1140 0.950 . S
C1148 C1149 1.386 . S
C1148 C1150 1.391 . S
C1149 C1148 1.386 . S
C1149 C1153 1.393 . S
C1150 H1142 0.950 . S
C1150 C1148 1.391 . S
C1150 C1151 1.400 . S
C1151 C1150 1.400 . S
C1151 C1152 1.398 . S
C1151 C1157 1.491 . S
C1152 H1143 0.950 . S
C1152 C1151 1.398 . S
C1152 C1153 1.391 . S
C1153 H1141 0.950 . S
C1153 C1149 1.393 . S
C1153 C1152 1.391 . S
C1154 H1144 0.950 . S
C1154 C1155 1.386 . S
C1154 C1156 1.391 . S
C1155 C1154 1.386 . S
C1155 C1159 1.393 . S
C1156 H1145 0.950 . S
C1156 C1154 1.391 . S
C1156 C1157 1.400 . S
C1157 C1151 1.491 . S
C1157 C1156 1.400 . S
C1157 C1158 1.398 . S
C1158 H1146 0.950 . S
C1158 C1157 1.398 . S
C1158 C1159 1.391 . S
C1159 H1147 0.950 . S
C1159 C1155 1.393 . S
C1159 C1158 1.391 . S
H1160 C1168 0.950 . S
H1161 C1173 0.950 . S
H1162 C1170 0.950 . S
H1163 C1172 0.950 . S
H1164 C1174 0.950 . S
H1165 C1176 0.950 . S
H1166 C1178 0.950 . S
H1167 C1179 0.950 . S
C1168 H1160 0.950 . S
C1168 C1169 1.386 . S
C1168 C1170 1.391 . S
C1169 C1168 1.386 . S
C1169 C1173 1.393 . S
C1170 H1162 0.950 . S
C1170 C1168 1.391 . S
C1170 C1171 1.400 . S
C1171 C1170 1.400 . S
C1171 C1172 1.398 . S
C1171 C1177 1.491 . S
C1172 H1163 0.950 . S
C1172 C1171 1.398 . S
C1172 C1173 1.391 . S
C1173 H1161 0.950 . S
C1173 C1169 1.393 . S
C1173 C1172 1.391 . S
C1174 H1164 0.950 . S
C1174 C1175 1.386 . S
C1174 C1176 1.391 . S
C1175 C1174 1.386 . S
C1175 C1179 1.393 . S
C1176 H1165 0.950 . S
C1176 C1174 1.391 . S
C1176 C1177 1.400 . S
C1177 C1171 1.491 . S
C1177 C1176 1.400 . S
C1177 C1178 1.398 . S
C1178 H1166 0.950 . S
C1178 C1177 1.398 . S
C1178 C1179 1.391 . S
C1179 H1167 0.950 . S
C1179 C1175 1.393 . S
C1179 C1178 1.391 . S
H1180 C1188 0.950 . S
H1181 C1193 0.950 . S
H1182 C1190 0.950 . S
H1183 C1192 0.950 . S
H1184 C1194 0.950 . S
H1185 C1196 0.950 . S
H1186 C1198 0.950 . S
H1187 C1199 0.950 1_565 S
C1188 H1180 0.950 . S
C1188 C1189 1.386 . S
C1188 C1190 1.391 . S
C1189 C1188 1.386 . S
C1189 C1193 1.393 . S
C1190 H1182 0.950 . S
C1190 C1188 1.391 . S
C1190 C1191 1.400 . S
C1191 C1190 1.400 . S
C1191 C1192 1.398 . S
C1191 C1197 1.491 . S
C1192 H1183 0.950 . S
C1192 C1191 1.398 . S
C1192 C1193 1.391 . S
C1193 H1181 0.950 . S
C1193 C1189 1.393 . S
C1193 C1192 1.391 . S
C1194 H1184 0.950 . S
C1194 C1195 1.386 . S
C1194 C1196 1.391 . S
C1195 C1194 1.386 . S
C1195 C1199 1.393 . S
C1196 H1185 0.950 . S
C1196 C1194 1.391 . S
C1196 C1197 1.400 . S
C1197 C1191 1.491 . S
C1197 C1196 1.400 . S
C1197 C1198 1.398 . S
C1198 H1186 0.950 . S
C1198 C1197 1.398 . S
C1198 C1199 1.391 . S
C1199 H1187 0.950 1_545 S
C1199 C1195 1.393 . S
C1199 C1198 1.391 . S
H1200 C1208 0.950 . S
H1201 C1213 0.950 . S
H1202 C1210 0.950 . S
H1203 C1212 0.950 . S
H1204 C1214 0.950 . S
H1205 C1216 0.950 . S
H1206 C1218 0.950 . S
H1207 C1219 0.950 . S
C1208 H1200 0.950 . S
C1208 C1209 1.386 . S
C1208 C1210 1.391 . S
C1209 C1208 1.386 . S
C1209 C1213 1.393 . S
C1210 H1202 0.950 . S
C1210 C1208 1.391 . S
C1210 C1211 1.400 . S
C1211 C1210 1.400 . S
C1211 C1212 1.398 . S
C1211 C1217 1.491 . S
C1212 H1203 0.950 . S
C1212 C1211 1.398 . S
C1212 C1213 1.391 . S
C1213 H1201 0.950 . S
C1213 C1209 1.393 . S
C1213 C1212 1.391 . S
C1214 H1204 0.950 . S
C1214 C1215 1.386 . S
C1214 C1216 1.391 . S
C1215 C1214 1.386 . S
C1215 C1219 1.393 . S
C1216 H1205 0.950 . S
C1216 C1214 1.391 . S
C1216 C1217 1.400 . S
C1217 C1211 1.491 . S
C1217 C1216 1.400 . S
C1217 C1218 1.398 . S
C1218 H1206 0.950 . S
C1218 C1217 1.398 . S
C1218 C1219 1.391 . S
C1219 H1207 0.950 . S
C1219 C1215 1.393 . S
C1219 C1218 1.391 . S
H1220 C1228 0.950 . S
H1221 C1233 0.950 . S
H1222 C1230 0.950 . S
H1223 C1232 0.950 . S
H1224 C1234 0.950 . S
H1225 C1236 0.950 . S
H1226 C1238 0.950 . S
H1227 C1239 0.950 . S
C1228 H1220 0.950 . S
C1228 C1229 1.386 . S
C1228 C1230 1.391 . S
C1229 C1228 1.386 . S
C1229 C1233 1.393 . S
C1230 H1222 0.950 . S
C1230 C1228 1.391 . S
C1230 C1231 1.400 . S
C1231 C1230 1.400 . S
C1231 C1232 1.398 . S
C1231 C1237 1.491 . S
C1232 H1223 0.950 . S
C1232 C1231 1.398 . S
C1232 C1233 1.391 . S
C1233 H1221 0.950 . S
C1233 C1229 1.393 . S
C1233 C1232 1.391 . S
C1234 H1224 0.950 . S
C1234 C1235 1.386 . S
C1234 C1236 1.391 . S
C1235 C1234 1.386 . S
C1235 C1239 1.393 . S
C1236 H1225 0.950 . S
C1236 C1234 1.391 . S
C1236 C1237 1.400 . S
C1237 C1231 1.491 . S
C1237 C1236 1.400 . S
C1237 C1238 1.398 . S
C1238 H1226 0.950 . S
C1238 C1237 1.398 . S
C1238 C1239 1.391 . S
C1239 H1227 0.950 . S
C1239 C1235 1.393 . S
C1239 C1238 1.391 . S
H1240 C1248 0.950 . S
H1241 C1253 0.950 . S
H1242 C1250 0.950 . S
H1243 C1252 0.950 . S
H1244 C1254 0.950 . S
H1245 C1256 0.950 . S
H1246 C1258 0.950 . S
H1247 C1259 0.950 . S
C1248 H1240 0.950 . S
C1248 C1249 1.386 . S
C1248 C1250 1.391 . S
C1249 C1248 1.386 . S
C1249 C1253 1.393 . S
C1250 H1242 0.950 . S
C1250 C1248 1.391 . S
C1250 C1251 1.400 . S
C1251 C1250 1.400 . S
C1251 C1252 1.398 . S
C1251 C1257 1.491 . S
C1252 H1243 0.950 . S
C1252 C1251 1.398 . S
C1252 C1253 1.391 . S
C1253 H1241 0.950 . S
C1253 C1249 1.393 . S
C1253 C1252 1.391 . S
C1254 H1244 0.950 . S
C1254 C1255 1.386 . S
C1254 C1256 1.391 . S
C1255 C1254 1.386 . S
C1255 C1259 1.393 . S
C1256 H1245 0.950 . S
C1256 C1254 1.391 . S
C1256 C1257 1.400 . S
C1257 C1251 1.491 . S
C1257 C1256 1.400 . S
C1257 C1258 1.398 . S
C1258 H1246 0.950 . S
C1258 C1257 1.398 . S
C1258 C1259 1.391 . S
C1259 H1247 0.950 . S
C1259 C1255 1.393 . S
C1259 C1258 1.391 . S
H1260 C1268 0.950 1_455 S
H1261 C1273 0.950 . S
H1262 C1270 0.950 . S
H1263 C1272 0.950 . S
H1264 C1274 0.950 . S
H1265 C1276 0.950 . S
H1266 C1278 0.950 . S
H1267 C1279 0.950 . S
C1268 H1260 0.950 1_655 S
C1268 C1269 1.386 . S
C1268 C1270 1.391 . S
C1269 C1268 1.386 . S
C1269 C1273 1.393 . S
C1270 H1262 0.950 . S
C1270 C1268 1.391 . S
C1270 C1271 1.400 . S
C1271 C1270 1.400 . S
C1271 C1272 1.398 . S
C1271 C1277 1.491 . S
C1272 H1263 0.950 . S
C1272 C1271 1.398 . S
C1272 C1273 1.391 . S
C1273 H1261 0.950 . S
C1273 C1269 1.393 . S
C1273 C1272 1.391 . S
C1274 H1264 0.950 . S
C1274 C1275 1.386 . S
C1274 C1276 1.391 . S
C1275 C1274 1.386 . S
C1275 C1279 1.393 . S
C1276 H1265 0.950 . S
C1276 C1274 1.391 . S
C1276 C1277 1.400 . S
C1277 C1271 1.491 . S
C1277 C1276 1.400 . S
C1277 C1278 1.398 . S
C1278 H1266 0.950 . S
C1278 C1277 1.398 . S
C1278 C1279 1.391 . S
C1279 H1267 0.950 . S
C1279 C1275 1.393 . S
C1279 C1278 1.391 . S
H1280 C1288 0.950 . S
H1281 C1293 0.950 . S
H1282 C1290 0.950 . S
H1283 C1292 0.950 . S
H1284 C1294 0.950 . S
H1285 C1296 0.950 . S
H1286 C1298 0.950 . S
H1287 C1299 0.950 . S
C1288 H1280 0.950 . S
C1288 C1289 1.386 . S
C1288 C1290 1.391 . S
C1289 C1288 1.386 . S
C1289 C1293 1.393 . S
C1290 H1282 0.950 . S
C1290 C1288 1.391 . S
C1290 C1291 1.400 . S
C1291 C1290 1.400 . S
C1291 C1292 1.398 . S
C1291 C1297 1.491 . S
C1292 H1283 0.950 . S
C1292 C1291 1.398 . S
C1292 C1293 1.391 . S
C1293 H1281 0.950 . S
C1293 C1289 1.393 . S
C1293 C1292 1.391 . S
C1294 H1284 0.950 . S
C1294 C1295 1.386 . S
C1294 C1296 1.391 . S
C1295 C1294 1.386 . S
C1295 C1299 1.393 . S
C1296 H1285 0.950 . S
C1296 C1294 1.391 . S
C1296 C1297 1.400 . S
C1297 C1291 1.491 . S
C1297 C1296 1.400 . S
C1297 C1298 1.398 . S
C1298 H1286 0.950 . S
C1298 C1297 1.398 . S
C1298 C1299 1.391 . S
C1299 H1287 0.950 . S
C1299 C1295 1.393 . S
C1299 C1298 1.391 . S
H1300 C1308 0.978 . S
H1301 C1313 0.950 . S
H1302 C1310 0.950 . S
H1303 C1312 0.950 . S
H1304 C1314 0.950 . S
H1305 C1316 0.950 . S
H1306 C1318 0.950 . S
H1307 C1319 0.950 . S
C1308 H1300 0.978 . S
C1308 C1309 1.386 . S
C1308 C1310 1.391 . S
C1309 C1308 1.386 . S
C1309 C1313 1.393 . S
C1310 H1302 0.950 . S
C1310 C1308 1.391 . S
C1310 C1311 1.400 . S
C1311 C1310 1.400 . S
C1311 C1312 1.398 . S
C1311 C1317 1.491 . S
C1312 H1303 0.950 . S
C1312 C1311 1.398 . S
C1312 C1313 1.391 . S
C1313 H1301 0.950 . S
C1313 C1309 1.393 . S
C1313 C1312 1.391 . S
C1314 H1304 0.950 . S
C1314 C1315 1.386 . S
C1314 C1316 1.391 . S
C1315 C1314 1.386 . S
C1315 C1319 1.393 . S
C1316 H1305 0.950 . S
C1316 C1314 1.391 . S
C1316 C1317 1.400 . S
C1317 C1311 1.491 . S
C1317 C1316 1.400 . S
C1317 C1318 1.398 . S
C1318 H1306 0.950 . S
C1318 C1317 1.398 . S
C1318 C1319 1.391 . S
C1319 H1307 0.950 . S
C1319 C1315 1.393 . S
C1319 C1318 1.391 . S
H1320 C1328 0.950 . S
H1321 C1333 0.950 . S
H1322 C1330 0.950 . S
H1323 C1332 0.950 . S
H1324 C1334 0.950 . S
H1325 C1336 0.950 . S
H1326 C1338 0.950 . S
H1327 C1339 0.950 . S
C1328 H1320 0.950 . S
C1328 C1329 1.386 . S
C1328 C1330 1.391 . S
C1329 C1328 1.386 . S
C1329 C1333 1.393 . S
C1330 H1322 0.950 . S
C1330 C1328 1.391 . S
C1330 C1331 1.400 . S
C1331 C1330 1.400 . S
C1331 C1332 1.398 . S
C1331 C1337 1.491 . S
C1332 H1323 0.950 . S
C1332 C1331 1.398 . S
C1332 C1333 1.391 . S
C1333 H1321 0.950 . S
C1333 C1329 1.393 . S
C1333 C1332 1.391 . S
C1334 H1324 0.950 . S
C1334 C1335 1.386 . S
C1334 C1336 1.391 . S
C1335 C1334 1.386 . S
C1335 C1339 1.393 . S
C1336 H1325 0.950 . S
C1336 C1334 1.391 . S
C1336 C1337 1.400 . S
C1337 C1331 1.491 . S
C1337 C1336 1.400 . S
C1337 C1338 1.398 . S
C1338 H1326 0.950 . S
C1338 C1337 1.398 . S
C1338 C1339 1.391 . S
C1339 H1327 0.950 . S
C1339 C1335 1.393 . S
C1339 C1338 1.391 . S
H1340 C1348 0.950 . S
H1341 C1353 0.950 . S
H1342 C1350 0.950 . S
H1343 C1352 0.950 . S
H1344 C1354 0.950 . S
H1345 C1356 0.950 . S
H1346 C1358 0.950 . S
H1347 C1359 0.950 . S
C1348 H1340 0.950 . S
C1348 C1349 1.368 1_556 S
C1348 C1350 1.391 . S
C1349 C1348 1.368 1_554 S
C1349 C1353 1.399 . S
C1350 H1342 0.950 . S
C1350 C1348 1.391 . S
C1350 C1351 1.400 . S
C1351 C1350 1.400 . S
C1351 C1352 1.398 . S
C1351 C1357 1.491 . S
C1352 H1343 0.950 . S
C1352 C1351 1.398 . S
C1352 C1353 1.391 1_556 S
C1353 H1341 0.950 . S
C1353 C1349 1.399 . S
C1353 C1352 1.391 1_554 S
C1354 H1344 0.950 . S
C1354 C1355 1.386 . S
C1354 C1356 1.391 . S
C1355 C1354 1.386 . S
C1355 C1359 1.393 . S
C1356 H1345 0.950 . S
C1356 C1354 1.391 . S
C1356 C1357 1.400 . S
C1357 C1351 1.491 . S
C1357 C1356 1.400 . S
C1357 C1358 1.398 . S
C1358 H1346 0.950 . S
C1358 C1357 1.398 . S
C1358 C1359 1.391 . S
C1359 H1347 0.950 . S
C1359 C1355 1.393 . S
C1359 C1358 1.391 . S
H1360 C1368 0.950 . S
H1361 C1373 0.950 . S
H1362 C1370 0.950 . S
H1363 C1372 0.950 . S
H1364 C1374 0.950 . S
H1365 C1376 0.950 . S
H1366 C1378 0.950 . S
H1367 C1379 0.950 . S
C1368 H1360 0.950 . S
C1368 C1369 1.386 . S
C1368 C1370 1.391 . S
C1369 C1368 1.386 . S
C1369 C1373 1.393 . S
C1370 H1362 0.950 . S
C1370 C1368 1.391 . S
C1370 C1371 1.400 . S
C1371 C1370 1.400 . S
C1371 C1372 1.398 . S
C1371 C1377 1.491 . S
C1372 H1363 0.950 . S
C1372 C1371 1.398 . S
C1372 C1373 1.391 . S
C1373 H1361 0.950 . S
C1373 C1369 1.393 . S
C1373 C1372 1.391 . S
C1374 H1364 0.950 . S
C1374 C1375 1.386 . S
C1374 C1376 1.391 . S
C1375 C1374 1.386 . S
C1375 C1379 1.393 . S
C1376 H1365 0.950 . S
C1376 C1374 1.391 . S
C1376 C1377 1.400 . S
C1377 C1371 1.491 . S
C1377 C1376 1.400 . S
C1377 C1378 1.398 . S
C1378 H1366 0.950 . S
C1378 C1377 1.398 . S
C1378 C1379 1.391 . S
C1379 H1367 0.950 . S
C1379 C1375 1.393 . S
C1379 C1378 1.391 . S
H1380 C1388 0.950 . S
H1381 C1393 0.950 . S
H1382 C1390 0.950 . S
H1383 C1392 0.950 . S
H1384 C1394 0.950 . S
H1385 C1396 0.950 . S
H1386 C1398 0.950 . S
H1387 C1399 0.950 . S
C1388 H1380 0.950 . S
C1388 C1389 1.386 . S
C1388 C1390 1.391 . S
C1389 C1388 1.386 . S
C1389 C1393 1.393 1_556 S
C1390 H1382 0.950 . S
C1390 C1388 1.391 . S
C1390 C1391 1.400 . S
C1391 C1390 1.400 . S
C1391 C1392 1.398 . S
C1391 C1397 1.491 . S
C1392 H1383 0.950 . S
C1392 C1391 1.398 . S
C1392 C1393 1.391 1_556 S
C1393 H1381 0.950 . S
C1393 C1389 1.393 1_554 S
C1393 C1392 1.391 1_554 S
C1394 H1384 0.950 . S
C1394 C1395 1.386 . S
C1394 C1396 1.391 . S
C1395 C1394 1.386 . S
C1395 C1399 1.393 . S
C1396 H1385 0.950 . S
C1396 C1394 1.391 . S
C1396 C1397 1.400 . S
C1397 C1391 1.491 . S
C1397 C1396 1.400 . S
C1397 C1398 1.398 . S
C1398 H1386 0.950 . S
C1398 C1397 1.398 . S
C1398 C1399 1.391 . S
C1399 H1387 0.950 . S
C1399 C1395 1.393 . S
C1399 C1398 1.391 . S
H1400 C1408 0.950 . S
H1401 C1413 0.950 . S
H1402 C1410 0.950 . S
H1403 C1412 0.950 . S
H1404 C1414 0.950 . S
H1405 C1416 0.950 . S
H1406 C1418 0.950 . S
H1407 C1419 0.950 . S
C1408 H1400 0.950 . S
C1408 C1409 1.386 . S
C1408 C1410 1.391 . S
C1409 C1408 1.386 . S
C1409 C1413 1.393 . S
C1410 H1402 0.950 . S
C1410 C1408 1.391 . S
C1410 C1411 1.400 . S
C1411 C1410 1.400 . S
C1411 C1412 1.398 . S
C1411 C1417 1.491 . S
C1412 H1403 0.950 . S
C1412 C1411 1.398 . S
C1412 C1413 1.391 . S
C1413 H1401 0.950 . S
C1413 C1409 1.393 . S
C1413 C1412 1.391 . S
C1414 H1404 0.950 . S
C1414 C1415 1.386 . S
C1414 C1416 1.391 . S
C1415 C1414 1.386 . S
C1415 C1419 1.393 . S
C1416 H1405 0.950 . S
C1416 C1414 1.391 . S
C1416 C1417 1.400 . S
C1417 C1411 1.491 . S
C1417 C1416 1.400 . S
C1417 C1418 1.398 . S
C1418 H1406 0.950 . S
C1418 C1417 1.398 . S
C1418 C1419 1.391 . S
C1419 H1407 0.950 . S
C1419 C1415 1.393 . S
C1419 C1418 1.391 . S
H1420 C1428 0.950 . S
H1421 C1433 0.950 . S
H1422 C1430 0.950 . S
H1423 C1432 0.950 . S
H1424 C1434 0.950 . S
H1425 C1436 0.950 . S
H1426 C1438 0.950 . S
H1427 C1439 0.950 . S
C1428 H1420 0.950 . S
C1428 C1429 1.386 . S
C1428 C1430 1.391 . S
C1429 C1428 1.386 . S
C1429 C1433 1.393 . S
C1430 H1422 0.950 . S
C1430 C1428 1.391 . S
C1430 C1431 1.400 . S
C1431 C1430 1.400 . S
C1431 C1432 1.398 . S
C1431 C1437 1.491 . S
C1432 H1423 0.950 . S
C1432 C1431 1.398 . S
C1432 C1433 1.391 . S
C1433 H1421 0.950 . S
C1433 C1429 1.393 . S
C1433 C1432 1.391 . S
C1434 H1424 0.950 . S
C1434 C1435 1.386 . S
C1434 C1436 1.391 . S
C1435 C1434 1.386 . S
C1435 C1439 1.393 . S
C1436 H1425 0.950 . S
C1436 C1434 1.391 . S
C1436 C1437 1.400 . S
C1437 C1431 1.491 . S
C1437 C1436 1.400 . S
C1437 C1438 1.398 . S
C1438 H1426 0.950 . S
C1438 C1437 1.398 . S
C1438 C1439 1.391 . S
C1439 H1427 0.950 . S
C1439 C1435 1.393 . S
C1439 C1438 1.391 . S
H1440 C1448 0.950 . S
H1441 C1453 0.950 . S
H1442 C1450 0.950 . S
H1443 C1452 0.950 . S
H1444 C1454 0.950 . S
H1445 C1456 0.950 . S
H1446 C1458 0.950 . S
H1447 C1459 0.950 . S
C1448 H1440 0.950 . S
C1448 C1449 1.386 . S
C1448 C1450 1.391 . S
C1449 C1448 1.386 . S
C1449 C1453 1.393 . S
C1450 H1442 0.950 . S
C1450 C1448 1.391 . S
C1450 C1451 1.400 . S
C1451 C1450 1.400 . S
C1451 C1452 1.398 . S
C1451 C1457 1.491 . S
C1452 H1443 0.950 . S
C1452 C1451 1.398 . S
C1452 C1453 1.391 . S
C1453 H1441 0.950 . S
C1453 C1449 1.393 . S
C1453 C1452 1.391 . S
C1454 H1444 0.950 . S
C1454 C1455 1.386 . S
C1454 C1456 1.391 . S
C1455 C1454 1.386 . S
C1455 C1459 1.393 . S
C1456 H1445 0.950 . S
C1456 C1454 1.391 . S
C1456 C1457 1.400 . S
C1457 C1451 1.491 . S
C1457 C1456 1.400 . S
C1457 C1458 1.398 . S
C1458 H1446 0.950 . S
C1458 C1457 1.398 . S
C1458 C1459 1.391 . S
C1459 H1447 0.950 . S
C1459 C1455 1.393 . S
C1459 C1458 1.391 . S
H1460 C1468 0.950 . S
H1461 C1473 0.950 1_556 S
H1462 C1470 0.950 . S
H1463 C1472 0.950 . S
H1464 C1474 0.950 . S
H1465 C1476 0.950 . S
H1466 C1478 0.950 . S
H1467 C1479 0.950 . S
C1468 H1460 0.950 . S
C1468 C1469 1.386 . S
C1468 C1470 1.391 . S
C1469 C1468 1.386 . S
C1469 C1473 1.393 . S
C1470 H1462 0.950 . S
C1470 C1468 1.391 . S
C1470 C1471 1.400 . S
C1471 C1470 1.400 . S
C1471 C1472 1.398 . S
C1471 C1477 1.491 . S
C1472 H1463 0.950 . S
C1472 C1471 1.398 . S
C1472 C1473 1.391 . S
C1473 H1461 0.950 1_554 S
C1473 C1469 1.393 . S
C1473 C1472 1.391 . S
C1474 H1464 0.950 . S
C1474 C1475 1.386 . S
C1474 C1476 1.391 . S
C1475 C1474 1.386 . S
C1475 C1479 1.393 . S
C1476 H1465 0.950 . S
C1476 C1474 1.391 . S
C1476 C1477 1.400 . S
C1477 C1471 1.491 . S
C1477 C1476 1.400 . S
C1477 C1478 1.398 . S
C1478 H1466 0.950 . S
C1478 C1477 1.398 . S
C1478 C1479 1.391 . S
C1479 H1467 0.950 . S
C1479 C1475 1.393 . S
C1479 C1478 1.391 . S
H1480 C1488 0.950 . S
H1481 C1493 0.950 . S
H1482 C1490 0.950 . S
H1483 C1492 0.950 . S
H1484 C1494 0.950 . S
H1485 C1496 0.950 . S
H1486 C1498 0.950 . S
H1487 C1499 0.950 . S
C1488 H1480 0.950 . S
C1488 C1489 1.386 . S
C1488 C1490 1.391 . S
C1489 C1488 1.386 . S
C1489 C1493 1.393 . S
C1490 H1482 0.950 . S
C1490 C1488 1.391 . S
C1490 C1491 1.400 . S
C1491 C1490 1.400 . S
C1491 C1492 1.398 . S
C1491 C1497 1.491 . S
C1492 H1483 0.950 . S
C1492 C1491 1.398 . S
C1492 C1493 1.391 . S
C1493 H1481 0.950 . S
C1493 C1489 1.393 . S
C1493 C1492 1.391 . S
C1494 H1484 0.950 . S
C1494 C1495 1.386 . S
C1494 C1496 1.391 . S
C1495 C1494 1.386 . S
C1495 C1499 1.393 . S
C1496 H1485 0.950 . S
C1496 C1494 1.391 . S
C1496 C1497 1.400 . S
C1497 C1491 1.491 . S
C1497 C1496 1.400 . S
C1497 C1498 1.398 . S
C1498 H1486 0.950 . S
C1498 C1497 1.398 . S
C1498 C1499 1.391 . S
C1499 H1487 0.950 . S
C1499 C1495 1.393 . S
C1499 C1498 1.391 . S
H1500 C1508 0.950 . S
H1501 C1513 0.950 . S
H1502 C1510 0.950 . S
H1503 C1512 0.950 . S
H1504 C1514 0.950 . S
H1505 C1516 0.950 . S
H1506 C1518 0.950 . S
H1507 C1519 0.950 . S
C1508 H1500 0.950 . S
C1508 C1509 1.386 . S
C1508 C1510 1.391 . S
C1509 C1508 1.386 . S
C1509 C1513 1.393 . S
C1510 H1502 0.950 . S
C1510 C1508 1.391 . S
C1510 C1511 1.400 . S
C1511 C1510 1.400 . S
C1511 C1512 1.398 . S
C1511 C1517 1.491 . S
C1512 H1503 0.950 . S
C1512 C1511 1.398 . S
C1512 C1513 1.391 . S
C1513 H1501 0.950 . S
C1513 C1509 1.393 . S
C1513 C1512 1.391 . S
C1514 H1504 0.950 . S
C1514 C1515 1.386 . S
C1514 C1516 1.391 . S
C1515 C1514 1.386 . S
C1515 C1519 1.393 . S
C1516 H1505 0.950 . S
C1516 C1514 1.391 . S
C1516 C1517 1.400 . S
C1517 C1511 1.491 . S
C1517 C1516 1.400 . S
C1517 C1518 1.398 . S
C1518 H1506 0.950 . S
C1518 C1517 1.398 . S
C1518 C1519 1.391 . S
C1519 H1507 0.950 . S
C1519 C1515 1.393 . S
C1519 C1518 1.391 . S
H1520 C1528 0.950 . S
H1521 C1533 0.950 . S
H1522 C1530 0.950 . S
H1523 C1532 0.950 . S
H1524 C1534 0.950 . S
H1525 C1536 0.950 . S
H1526 C1538 0.950 . S
H1527 C1539 0.950 . S
C1528 H1520 0.950 . S
C1528 C1529 1.386 . S
C1528 C1530 1.391 . S
C1529 C1528 1.386 . S
C1529 C1533 1.393 . S
C1530 H1522 0.950 . S
C1530 C1528 1.391 . S
C1530 C1531 1.400 . S
C1531 C1530 1.400 . S
C1531 C1532 1.398 . S
C1531 C1537 1.491 . S
C1532 H1523 0.950 . S
C1532 C1531 1.398 . S
C1532 C1533 1.391 . S
C1533 H1521 0.950 . S
C1533 C1529 1.393 . S
C1533 C1532 1.391 . S
C1534 H1524 0.950 . S
C1534 C1535 1.386 . S
C1534 C1536 1.391 . S
C1535 C1534 1.386 . S
C1535 C1539 1.393 . S
C1536 H1525 0.950 . S
C1536 C1534 1.391 . S
C1536 C1537 1.400 . S
C1537 C1531 1.491 . S
C1537 C1536 1.400 . S
C1537 C1538 1.398 . S
C1538 H1526 0.950 . S
C1538 C1537 1.398 . S
C1538 C1539 1.391 . S
C1539 H1527 0.950 . S
C1539 C1535 1.393 . S
C1539 C1538 1.391 . S
H1540 C1548 0.950 . S
H1541 C1553 0.950 . S
H1542 C1550 0.950 . S
H1543 C1552 0.950 . S
H1544 C1554 0.950 . S
H1545 C1556 0.950 . S
H1546 C1558 0.950 . S
H1547 C1559 0.950 . S
C1548 H1540 0.950 . S
C1548 C1549 1.386 . S
C1548 C1550 1.391 . S
C1549 C1548 1.386 . S
C1549 C1553 1.393 . S
C1550 H1542 0.950 . S
C1550 C1548 1.391 . S
C1550 C1551 1.400 . S
C1551 C1550 1.400 . S
C1551 C1552 1.398 . S
C1551 C1557 1.491 . S
C1552 H1543 0.950 . S
C1552 C1551 1.398 . S
C1552 C1553 1.391 . S
C1553 H1541 0.950 . S
C1553 C1549 1.393 . S
C1553 C1552 1.391 . S
C1554 H1544 0.950 . S
C1554 C1555 1.386 . S
C1554 C1556 1.391 . S
C1555 C1554 1.386 . S
C1555 C1559 1.393 . S
C1556 H1545 0.950 . S
C1556 C1554 1.391 . S
C1556 C1557 1.400 . S
C1557 C1551 1.491 . S
C1557 C1556 1.400 . S
C1557 C1558 1.398 . S
C1558 H1546 0.950 . S
C1558 C1557 1.398 . S
C1558 C1559 1.391 . S
C1559 H1547 0.950 . S
C1559 C1555 1.393 . S
C1559 C1558 1.391 . S
H1560 C1568 0.950 . S
H1561 C1573 0.950 . S
H1562 C1570 0.950 . S
H1563 C1572 0.950 . S
H1564 C1574 0.950 . S
H1565 C1576 0.950 . S
H1566 C1578 0.950 . S
H1567 C1579 0.962 . S
C1568 H1560 0.950 . S
C1568 C1569 1.386 . S
C1568 C1570 1.391 . S
C1569 C1568 1.386 . S
C1569 C1573 1.393 . S
C1570 H1562 0.950 . S
C1570 C1568 1.391 . S
C1570 C1571 1.400 . S
C1571 C1570 1.400 . S
C1571 C1572 1.398 . S
C1571 C1577 1.491 . S
C1572 H1563 0.950 . S
C1572 C1571 1.398 . S
C1572 C1573 1.391 . S
C1573 H1561 0.950 . S
C1573 C1569 1.393 . S
C1573 C1572 1.391 . S
C1574 H1564 0.950 . S
C1574 C1575 1.386 . S
C1574 C1576 1.391 . S
C1575 C1574 1.386 . S
C1575 C1579 1.393 . S
C1576 H1565 0.950 . S
C1576 C1574 1.391 . S
C1576 C1577 1.400 . S
C1577 C1571 1.491 . S
C1577 C1576 1.400 . S
C1577 C1578 1.398 . S
C1578 H1566 0.950 . S
C1578 C1577 1.398 . S
C1578 C1579 1.391 . S
C1579 H1567 0.962 . S
C1579 C1575 1.393 . S
C1579 C1578 1.391 . S
H1580 C1588 0.950 . S
H1581 C1593 0.950 . S
H1582 C1590 0.950 . S
H1583 C1592 0.950 . S
H1584 C1594 0.950 . S
H1585 C1596 0.950 . S
H1586 C1598 0.950 . S
H1587 C1599 0.950 . S
C1588 H1580 0.950 . S
C1588 C1589 1.386 . S
C1588 C1590 1.391 . S
C1589 C1588 1.386 . S
C1589 C1593 1.393 . S
C1590 H1582 0.950 . S
C1590 C1588 1.391 . S
C1590 C1591 1.400 . S
C1591 C1590 1.400 . S
C1591 C1592 1.398 . S
C1591 C1597 1.491 . S
C1592 H1583 0.950 . S
C1592 C1591 1.398 . S
C1592 C1593 1.391 . S
C1593 H1581 0.950 . S
C1593 C1589 1.393 . S
C1593 C1592 1.391 . S
C1594 H1584 0.950 . S
C1594 C1595 1.386 . S
C1594 C1596 1.391 . S
C1595 C1594 1.386 . S
C1595 C1599 1.393 . S
C1596 H1585 0.950 . S
C1596 C1594 1.391 . S
C1596 C1597 1.400 . S
C1597 C1591 1.491 . S
C1597 C1596 1.400 . S
C1597 C1598 1.398 . S
C1598 H1586 0.950 . S
C1598 C1597 1.398 . S
C1598 C1599 1.391 . S
C1599 H1587 0.950 . S
C1599 C1595 1.393 . S
C1599 C1598 1.391 . S
H1600 C1608 0.950 . S
H1601 C1613 0.950 . S
H1602 C1610 0.950 . S
H1603 C1612 0.950 . S
H1604 C1614 0.950 . S
H1605 C1616 0.950 . S
H1606 C1618 0.950 . S
H1607 C1619 0.950 . S
C1608 H1600 0.950 . S
C1608 C1609 1.386 . S
C1608 C1610 1.391 . S
C1609 C1608 1.386 . S
C1609 C1613 1.393 . S
C1610 H1602 0.950 . S
C1610 C1608 1.391 . S
C1610 C1611 1.400 . S
C1611 C1610 1.400 . S
C1611 C1612 1.398 . S
C1611 C1617 1.491 . S
C1612 H1603 0.950 . S
C1612 C1611 1.398 . S
C1612 C1613 1.391 . S
C1613 H1601 0.950 . S
C1613 C1609 1.393 . S
C1613 C1612 1.391 . S
C1614 H1604 0.950 . S
C1614 C1615 1.386 . S
C1614 C1616 1.391 . S
C1615 C1614 1.386 . S
C1615 C1619 1.393 . S
C1616 H1605 0.950 . S
C1616 C1614 1.391 . S
C1616 C1617 1.400 . S
C1617 C1611 1.491 . S
C1617 C1616 1.400 . S
C1617 C1618 1.398 . S
C1618 H1606 0.950 . S
C1618 C1617 1.398 . S
C1618 C1619 1.391 . S
C1619 H1607 0.950 . S
C1619 C1615 1.393 . S
C1619 C1618 1.391 . S
H1620 C1628 0.950 . S
H1621 C1633 0.950 1_545 S
H1622 C1630 0.950 . S
H1623 C1632 0.950 . S
H1624 C1634 0.950 . S
H1625 C1636 0.950 . S
H1626 C1638 0.950 . S
H1627 C1639 0.950 . S
C1628 H1620 0.950 . S
C1628 C1629 1.386 . S
C1628 C1630 1.391 . S
C1629 C1628 1.386 . S
C1629 C1633 1.393 . S
C1630 H1622 0.950 . S
C1630 C1628 1.391 . S
C1630 C1631 1.400 . S
C1631 C1630 1.400 . S
C1631 C1632 1.398 . S
C1631 C1637 1.491 . S
C1632 H1623 0.950 . S
C1632 C1631 1.398 . S
C1632 C1633 1.391 . S
C1633 H1621 0.950 1_565 S
C1633 C1629 1.393 . S
C1633 C1632 1.391 . S
C1634 H1624 0.950 . S
C1634 C1635 1.386 . S
C1634 C1636 1.391 . S
C1635 C1634 1.386 . S
C1635 C1639 1.393 . S
C1636 H1625 0.950 . S
C1636 C1634 1.391 . S
C1636 C1637 1.400 . S
C1637 C1631 1.491 . S
C1637 C1636 1.400 . S
C1637 C1638 1.398 . S
C1638 H1626 0.950 . S
C1638 C1637 1.398 . S
C1638 C1639 1.391 . S
C1639 H1627 0.950 . S
C1639 C1635 1.393 . S
C1639 C1638 1.391 . S
C695 C520 1.452 . S
C689 C177 1.455 . S
C715 C533 1.496 . S
C709 C209 1.479 1_455 S
C729 C253 1.534 . S
C735 C553 1.483 . S
C755 C567 1.395 . S
C749 C157 1.448 1_655 S
C775 C579 1.520 . S
C769 C343 1.494 . S
C795 C593 1.414 . S
C789 C401 1.385 . S
C809 C369 1.483 . S
C815 C603 1.507 . S
C835 C618 1.508 . S
C829 C317 1.497 . S
C849 C375 1.499 . S
C855 C632 1.496 . S
C875 C651 1.406 . S
C869 C305 1.441 . S
C889 C349 1.492 . S
C895 C631 1.503 . S
C915 C649 1.435 . S
C909 C413 1.397 . S
C929 C241 1.566 . S
C935 C665 1.494 . S
C949 C151 1.437 . S
C955 C659 1.449 . S
C969 C189 1.497 . S
C975 C663 1.513 . S
C989 C215 1.493 . S
C995 C660 1.507 . S
C1009 C113 1.492 . S
C1015 C562 1.486 . S
C1029 C471 1.437 . S
C1035 C561 1.465 . S
C1055 C525 1.385 . S
C1049 C509 1.407 1_565 S
C1075 C539 1.528 . S
C1069 C279 1.592 . S
C1089 C145 1.489 1_545 S
C1095 C576 1.473 . S
C1115 C621 1.557 . S
C1109 C381 1.537 . S
C1135 C575 1.489 . S
C1129 C311 1.458 . S
C1155 C607 1.411 . S
C1149 C407 1.387 . S
C1175 C604 1.464 . S
C1169 C465 1.449 . S
C1189 C497 1.479 . S
C1195 C617 1.496 . S
C1209 C285 1.543 . S
C1215 C581 1.485 . S
C1235 C595 1.376 . S
C1229 C445 1.432 . S
C1249 C119 1.504 . S
C1255 C551 1.525 . S
C1275 C565 1.420 . S
C1269 C17 1.388 1_655 S
C1295 C519 1.503 . S
C1289 C49 1.487 . S
C1315 C534 1.501 . S
C1309 C93 1.500 1_455 S
C1329 C55 1.499 . S
C1335 C646 1.492 . S
C1349 C81 1.451 . S
C1355 C637 1.395 . S
C1369 C125 1.478 . S
C1375 C645 1.513 . S
C1389 C29 1.401 1_556 S
C1395 C635 1.428 . S
C1415 C679 1.512 . S
C1409 C273 1.564 . S
C1435 C673 1.449 . S
C1429 C439 1.447 . S
C1455 C677 1.515 . S
C1449 C477 1.490 . S
C1469 C503 1.503 1_554 S
C1475 C674 1.502 . S
C1489 C337 1.480 . S
C1495 C590 1.476 . S
C1515 C589 1.467 . S
C1509 C183 1.455 . S
C1535 C609 1.371 . S
C1529 C221 1.416 . S
C1555 C623 1.534 . S
C1549 C247 1.594 . S
C1569 C433 1.487 . S
C1575 C548 1.456 . S
C1595 C537 1.557 . S
C1589 C61 1.536 . S
C1609 C87 1.466 . S
C1615 C547 1.487 . S
C1635 C523 1.411 . S
C1629 C23 1.390 1_565 S
