# Generated by pormake.
# Topology wbl, (4,4)-cn, num edge types: 1
# Building blocks:
#     Node 0, Type 0, BuildingBlock: MIFKUJ_clean_linker_1, # of connection points: 4
#     Node 1, Type 0, BuildingBlock: MIFKUJ_clean_linker_1, # of connection points: 4
#     Node 2, Type 0, BuildingBlock: MIFKUJ_clean_linker_1, # of connection points: 4
#     Node 3, Type 0, BuildingBlock: MIFKUJ_clean_linker_1, # of connection points: 4
#     Node 4, Type 0, BuildingBlock: MIFKUJ_clean_linker_1, # of connection points: 4
#     Node 5, Type 0, BuildingBlock: MIFKUJ_clean_linker_1, # of connection points: 4
#     Node 6, Type 0, BuildingBlock: MIFKUJ_clean_linker_1, # of connection points: 4
#     Node 7, Type 0, BuildingBlock: MIFKUJ_clean_linker_1, # of connection points: 4
#     Node 8, Type 1, BuildingBlock: KUFVIS_clean_sbu_0, # of connection points: 4
#     Node 9, Type 1, BuildingBlock: KUFVIS_clean_sbu_0, # of connection points: 4
#     Node 10, Type 1, BuildingBlock: KUFVIS_clean_sbu_0, # of connection points: 4
#     Node 11, Type 1, BuildingBlock: KUFVIS_clean_sbu_0, # of connection points: 4
#     Node 12, Type 1, BuildingBlock: KUFVIS_clean_sbu_0, # of connection points: 4
#     Node 13, Type 1, BuildingBlock: KUFVIS_clean_sbu_0, # of connection points: 4
#     Node 14, Type 1, BuildingBlock: KUFVIS_clean_sbu_0, # of connection points: 4
#     Node 15, Type 1, BuildingBlock: KUFVIS_clean_sbu_0, # of connection points: 4
#     Edge 16, Type (0, 1), BuildingBlock: OJICUG_clean_linker_0, # of connection points: 2
#     Edge 17, Type (0, 1), BuildingBlock: OJICUG_clean_linker_0, # of connection points: 2
#     Edge 18, Type (0, 1), BuildingBlock: OJICUG_clean_linker_0, # of connection points: 2
#     Edge 19, Type (0, 1), BuildingBlock: OJICUG_clean_linker_0, # of connection points: 2
#     Edge 20, Type (0, 1), BuildingBlock: OJICUG_clean_linker_0, # of connection points: 2
#     Edge 21, Type (0, 1), BuildingBlock: OJICUG_clean_linker_0, # of connection points: 2
#     Edge 22, Type (0, 1), BuildingBlock: OJICUG_clean_linker_0, # of connection points: 2
#     Edge 23, Type (0, 1), BuildingBlock: OJICUG_clean_linker_0, # of connection points: 2
#     Edge 24, Type (0, 1), BuildingBlock: OJICUG_clean_linker_0, # of connection points: 2
#     Edge 25, Type (0, 1), BuildingBlock: OJICUG_clean_linker_0, # of connection points: 2
#     Edge 26, Type (0, 1), BuildingBlock: OJICUG_clean_linker_0, # of connection points: 2
#     Edge 27, Type (0, 1), BuildingBlock: OJICUG_clean_linker_0, # of connection points: 2
#     Edge 28, Type (0, 1), BuildingBlock: OJICUG_clean_linker_0, # of connection points: 2
#     Edge 29, Type (0, 1), BuildingBlock: OJICUG_clean_linker_0, # of connection points: 2
#     Edge 30, Type (0, 1), BuildingBlock: OJICUG_clean_linker_0, # of connection points: 2
#     Edge 31, Type (0, 1), BuildingBlock: OJICUG_clean_linker_0, # of connection points: 2
#     Edge 32, Type (0, 1), BuildingBlock: OJICUG_clean_linker_0, # of connection points: 2
#     Edge 33, Type (0, 1), BuildingBlock: OJICUG_clean_linker_0, # of connection points: 2
#     Edge 34, Type (0, 1), BuildingBlock: OJICUG_clean_linker_0, # of connection points: 2
#     Edge 35, Type (0, 1), BuildingBlock: OJICUG_clean_linker_0, # of connection points: 2
#     Edge 36, Type (0, 1), BuildingBlock: OJICUG_clean_linker_0, # of connection points: 2
#     Edge 37, Type (0, 1), BuildingBlock: OJICUG_clean_linker_0, # of connection points: 2
#     Edge 38, Type (0, 1), BuildingBlock: OJICUG_clean_linker_0, # of connection points: 2
#     Edge 39, Type (0, 1), BuildingBlock: OJICUG_clean_linker_0, # of connection points: 2
#     Edge 40, Type (0, 1), BuildingBlock: OJICUG_clean_linker_0, # of connection points: 2
#     Edge 41, Type (0, 1), BuildingBlock: OJICUG_clean_linker_0, # of connection points: 2
#     Edge 42, Type (0, 1), BuildingBlock: OJICUG_clean_linker_0, # of connection points: 2
#     Edge 43, Type (0, 1), BuildingBlock: OJICUG_clean_linker_0, # of connection points: 2
#     Edge 44, Type (0, 1), BuildingBlock: OJICUG_clean_linker_0, # of connection points: 2
#     Edge 45, Type (0, 1), BuildingBlock: OJICUG_clean_linker_0, # of connection points: 2
#     Edge 46, Type (0, 1), BuildingBlock: OJICUG_clean_linker_0, # of connection points: 2
#     Edge 47, Type (0, 1), BuildingBlock: OJICUG_clean_linker_0, # of connection points: 2
# Relax obj value: 0.147
# Max RMSD: 0.143
# Mean RMSD: 0.132
data_MOF--net-wbl--node1-KUFVIS_clean_sbu_0--node2-MIFKUJ_clean_linker_1--edge1-OJICUG_clean_linker_0
_symmetry_space_group_name_H-M    P1
_symmetry_Int_Tables_number       1
_symmetry_cell_setting            triclinic
loop_
_symmetry_equiv_pos_as_xyz
'x, y, z'
_cell_length_a     35.712821
_cell_length_b     35.708405
_cell_length_c     57.590802
_cell_angle_alpha  90.045423
_cell_angle_beta   90.519872
_cell_angle_gamma 89.938294
loop_
_atom_site_label
_atom_site_type_symbol
_atom_site_fract_x
_atom_site_fract_y
_atom_site_fract_z
_atom_type_partial_charge
H0 H 0.96083 0.09193 0.33334 0.0
H1 H 0.9214 0.12112 0.36289 0.0
H2 H 0.90381 0.01239 0.39401 0.0
H3 H 0.94124 0.9836 0.36396 0.0
H4 H 0.01195 0.99418 0.35992 0.0
H5 H 0.97394 0.08664 0.28109 0.0
H6 H 0.91585 0.11295 0.26418 0.0
H7 H 0.85428 0.0177 0.28974 0.0
H8 H 0.91171 0.99199 0.30651 0.0
H9 H 0.05523 0.90974 0.29829 0.0
H10 H 0.11064 0.88311 0.28033 0.0
H11 H 0.14154 0.99314 0.2557 0.0
H12 H 0.08734 0.01985 0.27537 0.0
H13 H 0.0083 0.00826 0.27423 0.0
H14 H 0.03062 0.90648 0.33918 0.0
H15 H 0.06666 0.87213 0.36842 0.0
H16 H 0.14044 0.96707 0.37664 0.0
H17 H 0.10466 1.00097 0.34675 0.0
C18 C 0.95402 0.03554 0.34642 0.0
C19 C 0.94746 0.07434 0.34613 0.0
C20 C 0.92528 0.09105 0.36323 0.0
C21 C 0.90946 0.06925 0.38099 0.0
C22 C 0.91484 0.03019 0.38049 0.0
C23 C 0.93666 0.01359 0.36338 0.0
C24 C 0.98218 0.0182 0.33089 0.0
C25 C 0.01092 0.99717 0.34116 0.0
C26 C 0.98081 0.02177 0.30646 0.0
C27 C 0.94701 0.03734 0.29494 0.0
C28 C 0.94789 0.07143 0.28281 0.0
C29 C 0.91477 0.08652 0.27336 0.0
C30 C 0.88064 0.06724 0.27554 0.0
C31 C 0.8802 0.03296 0.28751 0.0
C32 C 0.91296 0.01826 0.29714 0.0
C33 C 0.06784 0.96699 0.28895 0.0
C34 C 0.07409 0.92817 0.28918 0.0
C35 C 0.10558 0.91285 0.27846 0.0
C36 C 0.13121 0.93595 0.26679 0.0
C37 C 0.12312 0.97452 0.26504 0.0
C38 C 0.09187 0.98987 0.27608 0.0
C39 C 0.03806 0.98401 0.30343 0.0
C40 C 0.00939 0.00559 0.29298 0.0
C41 C 0.03814 0.97939 0.32781 0.0
C42 C 0.06549 0.95591 0.34051 0.0
C43 C 0.05556 0.91922 0.34654 0.0
C44 C 0.07605 0.89972 0.36337 0.0
C45 C 0.10607 0.91709 0.37504 0.0
C46 C 0.11724 0.95311 0.36804 0.0
C47 C 0.09709 0.97237 0.35086 0.0
H48 H 0.01361 0.39638 0.55365 0.0
H49 H 0.98371 0.34147 0.53699 0.0
H50 H 0.89755 0.41177 0.50665 0.0
H51 H 0.9272 0.46692 0.52459 0.0
H52 H 0.00421 0.49735 0.52168 0.0
H53 H 0.01751 0.40383 0.5967 0.0
H54 H 0.98903 0.36835 0.62814 0.0
H55 H 0.8922 0.44108 0.62517 0.0
H56 H 0.9201 0.47484 0.59273 0.0
H57 H 0.00542 0.58832 0.59587 0.0
H58 H 0.03822 0.62657 0.62492 0.0
H59 H 0.13703 0.55792 0.61682 0.0
H60 H 0.10403 0.52013 0.58779 0.0
H61 H 0.01414 0.49587 0.60772 0.0
H62 H 0.98897 0.58414 0.5343 0.0
H63 H 0.01475 0.64163 0.5183 0.0
H64 H 0.12647 0.59559 0.5248 0.0
H65 H 0.10011 0.53847 0.54165 0.0
C66 C 0.97228 0.4356 0.5407 0.0
C67 C 0.98823 0.4 0.54345 0.0
C68 C 0.9713 0.3686 0.53357 0.0
C69 C 0.93816 0.372 0.52031 0.0
C70 C 0.92281 0.40801 0.51692 0.0
C71 C 0.93983 0.43959 0.527 0.0
C72 C 0.98929 0.46785 0.55306 0.0
C73 C 0.00629 0.49701 0.54047 0.0
C74 C 0.9913 0.4683 0.57756 0.0
C75 C 0.97069 0.4416 0.59226 0.0
C76 C 0.98948 0.41103 0.60218 0.0
C77 C 0.97332 0.39116 0.6204 0.0
C78 C 0.93861 0.40233 0.62959 0.0
C79 C 0.91877 0.43144 0.6185 0.0
C80 C 0.93471 0.45087 0.59996 0.0
C81 C 0.05245 0.55163 0.58974 0.0
C82 C 0.03449 0.58231 0.59993 0.0
C83 C 0.05319 0.60389 0.61662 0.0
C84 C 0.09006 0.5949 0.62347 0.0
C85 C 0.10875 0.56571 0.61194 0.0
C86 C 0.08996 0.54406 0.59534 0.0
C87 C 0.03047 0.52393 0.57641 0.0
C88 C 0.01224 0.49595 0.58889 0.0
C89 C 0.02684 0.5252 0.55204 0.0
C90 C 0.0426 0.55705 0.53896 0.0
C91 C 0.01893 0.58618 0.53181 0.0
C92 C 0.03385 0.61906 0.5226 0.0
C93 C 0.07285 0.62344 0.52014 0.0
C94 C 0.09641 0.59351 0.52667 0.0
C95 C 0.0814 0.56067 0.53607 0.0
H96 H 0.46041 0.59085 0.83198 0.0
H97 H 0.42152 0.62034 0.86168 0.0
H98 H 0.40286 0.51167 0.89263 0.0
H99 H 0.4398 0.48261 0.86244 0.0
H100 H 0.51081 0.49315 0.85866 0.0
H101 H 0.47294 0.5856 0.77997 0.0
H102 H 0.41478 0.61199 0.76321 0.0
H103 H 0.35352 0.51609 0.78814 0.0
H104 H 0.41103 0.49031 0.80475 0.0
H105 H 0.55543 0.40874 0.79734 0.0
H106 H 0.61142 0.38257 0.7798 0.0
H107 H 0.64164 0.49278 0.75515 0.0
H108 H 0.58681 0.51904 0.77438 0.0
H109 H 0.50781 0.50692 0.77294 0.0
H110 H 0.53019 0.40544 0.83819 0.0
H111 H 0.56611 0.37159 0.86772 0.0
H112 H 0.63919 0.46707 0.87593 0.0
H113 H 0.60351 0.50048 0.84579 0.0
C114 C 0.45304 0.53448 0.84496 0.0
C115 C 0.44689 0.57334 0.84475 0.0
C116 C 0.42503 0.59022 0.86195 0.0
C117 C 0.40911 0.56853 0.87973 0.0
C118 C 0.41399 0.52941 0.87911 0.0
C119 C 0.43551 0.51264 0.86191 0.0
C120 C 0.48122 0.51698 0.82951 0.0
C121 C 0.50991 0.49605 0.83989 0.0
C122 C 0.47999 0.52045 0.80507 0.0
C123 C 0.4462 0.53595 0.79348 0.0
C124 C 0.44695 0.57025 0.78156 0.0
C125 C 0.41377 0.58538 0.77219 0.0
C126 C 0.37968 0.56598 0.77426 0.0
C127 C 0.37939 0.53147 0.78598 0.0
C128 C 0.41221 0.51671 0.79552 0.0
C129 C 0.56758 0.46607 0.78794 0.0
C130 C 0.57424 0.42731 0.7883 0.0
C131 C 0.60609 0.41225 0.77782 0.0
C132 C 0.63171 0.43554 0.76629 0.0
C133 C 0.62324 0.47402 0.7644 0.0
C134 C 0.59162 0.4891 0.77519 0.0
C135 C 0.53746 0.48289 0.80227 0.0
C136 C 0.50874 0.5043 0.79169 0.0
C137 C 0.53733 0.47834 0.82666 0.0
C138 C 0.56472 0.45511 0.83951 0.0
C139 C 0.55496 0.41841 0.84562 0.0
C140 C 0.57538 0.3992 0.86261 0.0
C141 C 0.60516 0.41685 0.87435 0.0
C142 C 0.61617 0.4529 0.86729 0.0
C143 C 0.59609 0.47187 0.84995 0.0
H144 H 0.51508 0.8928 0.05959 0.0
H145 H 0.48497 0.8381 0.04274 0.0
H146 H 0.40836 0.90981 0.00484 0.0
H147 H 0.43813 0.96494 0.02266 0.0
H148 H 0.50774 0.99519 0.02256 0.0
H149 H 0.53222 0.92563 0.11349 0.0
H150 H 0.50122 0.89152 0.14416 0.0
H151 H 0.3941 0.91142 0.11068 0.0
H152 H 0.42555 0.94761 0.0805 0.0
H153 H 0.51236 0.08896 0.0938 0.0
H154 H 0.54439 0.12822 0.12266 0.0
H155 H 0.64338 0.0593 0.11653 0.0
H156 H 0.61109 0.02035 0.08779 0.0
H157 H 0.52433 0.99594 0.10819 0.0
H158 H 0.49243 0.08185 0.03415 0.0
H159 H 0.51676 0.13976 0.01783 0.0
H160 H 0.6294 0.09564 0.02315 0.0
H161 H 0.60453 0.03818 0.04036 0.0
C162 C 0.47856 0.93301 0.04268 0.0
C163 C 0.49176 0.89686 0.04769 0.0
C164 C 0.47474 0.86552 0.03775 0.0
C165 C 0.44427 0.86943 0.02228 0.0
C166 C 0.43156 0.90576 0.01682 0.0
C167 C 0.44871 0.9373 0.02685 0.0
C168 C 0.49586 0.96578 0.05454 0.0
C169 C 0.51117 0.99521 0.04128 0.0
C170 C 0.49991 0.9666 0.07905 0.0
C171 C 0.48129 0.93941 0.09472 0.0
C172 C 0.5021 0.92219 0.11252 0.0
C173 C 0.48421 0.90228 0.13001 0.0
C174 C 0.44494 0.89869 0.13008 0.0
C175 C 0.42428 0.91406 0.11142 0.0
C176 C 0.44229 0.93435 0.09395 0.0
C177 C 0.55949 0.05194 0.08876 0.0
C178 C 0.54135 0.08314 0.0982 0.0
C179 C 0.5596 0.1053 0.11478 0.0
C180 C 0.59619 0.09641 0.12222 0.0
C181 C 0.61525 0.06692 0.11123 0.0
C182 C 0.59688 0.04463 0.09478 0.0
C183 C 0.53758 0.02326 0.07622 0.0
C184 C 0.5211 0.99513 0.08943 0.0
C185 C 0.53204 0.024 0.052 0.0
C186 C 0.54663 0.0557 0.03825 0.0
C187 C 0.52226 0.08437 0.03128 0.0
C188 C 0.53635 0.11751 0.0219 0.0
C189 C 0.57521 0.12261 0.0191 0.0
C190 C 0.59943 0.09304 0.02532 0.0
C191 C 0.58526 0.05998 0.0349 0.0
H192 H 0.00416 0.60017 0.90094 0.0
H193 H 0.04266 0.62608 0.87008 0.0
H194 H 0.13222 0.55032 0.88912 0.0
H195 H 0.09307 0.52391 0.91969 0.0
H196 H 0.9868 0.52354 0.89674 0.0
H197 H 0.04375 0.60662 0.9567 0.0
H198 H 0.10153 0.63116 0.97405 0.0
H199 H 0.13713 0.51788 0.98938 0.0
H200 H 0.07873 0.4941 0.97308 0.0
H201 H 0.97051 0.43424 0.98116 0.0
H202 H 0.91758 0.4021 0.99966 0.0
H203 H 0.84166 0.48305 0.96917 0.0
H204 H 0.89412 0.51506 0.95156 0.0
H205 H 1.00024 0.50843 0.98206 0.0
H206 H 0.96136 0.42291 0.92328 0.0
H207 H 0.92705 0.38684 0.89406 0.0
H208 H 0.87141 0.48809 0.87109 0.0
H209 H 0.90741 0.5241 0.89961 0.0
C210 C 0.04572 0.56012 0.9126 0.0
C211 C 0.03251 0.58992 0.8989 0.0
C212 C 0.05466 0.60484 0.88132 0.0
C213 C 0.09039 0.59001 0.87697 0.0
C214 C 0.10462 0.56204 0.89187 0.0
C215 C 0.08243 0.54715 0.9095 0.0
C216 C 0.01903 0.53874 0.92704 0.0
C217 C 0.98927 0.52108 0.91548 0.0
C218 C 0.02392 0.53313 0.9512 0.0
C219 C 0.05698 0.54855 0.96365 0.0
C220 C 0.06385 0.58724 0.96418 0.0
C221 C 0.0971 0.60117 0.97394 0.0
C222 C 0.12434 0.57662 0.98314 0.0
C223 C 0.11672 0.53788 0.98299 0.0
C224 C 0.08331 0.52409 0.97355 0.0
C225 C 0.93622 0.47693 0.9649 0.0
C226 C 0.94246 0.44529 0.97888 0.0
C227 C 0.91218 0.42682 0.98927 0.0
C228 C 0.87529 0.44003 0.98602 0.0
C229 C 0.86959 0.47237 0.9725 0.0
C230 C 0.89961 0.4906 0.96219 0.0
C231 C 0.96686 0.49497 0.95173 0.0
C232 C 0.99744 0.51159 0.9634 0.0
C233 C 0.96391 0.49851 0.92738 0.0
C234 C 0.93706 0.47614 0.91344 0.0
C235 C 0.94107 0.43711 0.91229 0.0
C236 C 0.92125 0.41649 0.89561 0.0
C237 C 0.89686 0.43459 0.87989 0.0
C238 C 0.8907 0.47335 0.88247 0.0
C239 C 0.91097 0.49398 0.89888 0.0
H240 H 0.52062 0.58687 0.22374 0.0
H241 H 0.49278 0.64277 0.2407 0.0
H242 H 0.38224 0.59754 0.22773 0.0
H243 H 0.41071 0.54177 0.2103 0.0
H244 H 0.5073 0.50209 0.23357 0.0
H245 H 0.50808 0.59082 0.15693 0.0
H246 H 0.47473 0.62688 0.12703 0.0
H247 H 0.37612 0.55927 0.13771 0.0
H248 H 0.40977 0.52329 0.1674 0.0
H249 H 0.49547 0.41701 0.15328 0.0
H250 H 0.5246 0.38277 0.1218 0.0
H251 H 0.63068 0.4356 0.13833 0.0
H252 H 0.59987 0.47267 0.16804 0.0
H253 H 0.50287 0.50074 0.14744 0.0
H254 H 0.49183 0.42103 0.22839 0.0
H255 H 0.51948 0.36539 0.24617 0.0
H256 H 0.62885 0.40043 0.22297 0.0
H257 H 0.60118 0.45755 0.20713 0.0
C258 C 0.46776 0.56028 0.21573 0.0
C259 C 0.49041 0.58873 0.22493 0.0
C260 C 0.47433 0.62067 0.23471 0.0
C261 C 0.43512 0.62481 0.23566 0.0
C262 C 0.41247 0.59558 0.22704 0.0
C263 C 0.42867 0.5636 0.21718 0.0
C264 C 0.48531 0.5291 0.2028 0.0
C265 C 0.50643 0.50176 0.21475 0.0
C266 C 0.48356 0.52802 0.17835 0.0
C267 C 0.46118 0.55477 0.16447 0.0
C268 C 0.47894 0.58457 0.15325 0.0
C269 C 0.45995 0.6049 0.13609 0.0
C270 C 0.42293 0.5956 0.12982 0.0
C271 C 0.4045 0.56725 0.1422 0.0
C272 C 0.42364 0.54674 0.15922 0.0
C273 C 0.5457 0.44659 0.1635 0.0
C274 C 0.52523 0.4204 0.15046 0.0
C275 C 0.54219 0.40064 0.13242 0.0
C276 C 0.58029 0.40625 0.12715 0.0
C277 C 0.6012 0.43087 0.14135 0.0
C278 C 0.58386 0.45145 0.15892 0.0
C279 C 0.52552 0.47412 0.17801 0.0
C280 C 0.50393 0.50096 0.1663 0.0
C281 C 0.52627 0.47385 0.20259 0.0
C282 C 0.54425 0.44276 0.21566 0.0
C283 C 0.52187 0.41701 0.22753 0.0
C284 C 0.53776 0.38495 0.23749 0.0
C285 C 0.57639 0.37762 0.2355 0.0
C286 C 0.59904 0.40483 0.22487 0.0
C287 C 0.58314 0.43726 0.2153 0.0
H288 H 0.46255 0.92073 0.42164 0.0
H289 H 0.42922 0.88499 0.39181 0.0
H290 H 0.37427 0.98647 0.36862 0.0
H291 H 0.40924 0.02215 0.3978 0.0
H292 H 0.48808 0.02214 0.39581 0.0
H293 H 0.47126 0.93196 0.48029 0.0
H294 H 0.41839 0.90015 0.49907 0.0
H295 H 0.3422 0.97971 0.46747 0.0
H296 H 0.39457 0.0114 0.44952 0.0
H297 H 0.5434 0.10389 0.45732 0.0
H298 H 0.60073 0.12835 0.47527 0.0
H299 H 0.63785 0.01485 0.48848 0.0
H300 H 0.5798 0.99111 0.47165 0.0
H301 H 0.50061 0.00504 0.48102 0.0
H302 H 0.50521 0.09903 0.40106 0.0
H303 H 0.54355 0.12527 0.37023 0.0
H304 H 0.63279 0.04857 0.38832 0.0
H305 H 0.59382 0.02186 0.41889 0.0
C306 C 0.43844 0.97405 0.4118 0.0
C307 C 0.4426 0.93504 0.41048 0.0
C308 C 0.42339 0.91463 0.39342 0.0
C309 C 0.39945 0.9329 0.37753 0.0
C310 C 0.3932 0.97162 0.38018 0.0
C311 C 0.41286 0.99205 0.39697 0.0
C312 C 0.46491 0.99628 0.42611 0.0
C313 C 0.49031 0.01924 0.41454 0.0
C314 C 0.46758 0.99218 0.45044 0.0
C315 C 0.43682 0.9739 0.46338 0.0
C316 C 0.44315 0.94272 0.47776 0.0
C317 C 0.41292 0.92446 0.48833 0.0
C318 C 0.37601 0.93746 0.48491 0.0
C319 C 0.37018 0.96924 0.47092 0.0
C320 C 0.40014 0.98725 0.4604 0.0
C321 C 0.55739 0.0457 0.46322 0.0
C322 C 0.56374 0.08443 0.46447 0.0
C323 C 0.59673 0.09832 0.47457 0.0
C324 C 0.62428 0.0737 0.48334 0.0
C325 C 0.61719 0.03488 0.48244 0.0
C326 C 0.584 0.02112 0.47269 0.0
C327 C 0.52454 0.0305 0.45049 0.0
C328 C 0.498 0.0086 0.46238 0.0
C329 C 0.51987 0.03672 0.42639 0.0
C330 C 0.54665 0.05851 0.41226 0.0
C331 C 0.53349 0.08868 0.39886 0.0
C332 C 0.55553 0.10377 0.38128 0.0
C333 C 0.59108 0.08873 0.37664 0.0
C334 C 0.60532 0.06044 0.3913 0.0
C335 C 0.58325 0.04539 0.40893 0.0
H336 H 0.02343 0.08936 0.72305 0.0
H337 H 0.99628 0.1456 0.74003 0.0
H338 H 0.88529 0.10012 0.72913 0.0
H339 H 0.91304 0.04409 0.71159 0.0
H340 H 0.00946 0.00403 0.73383 0.0
H341 H 0.00925 0.09262 0.65693 0.0
H342 H 0.97532 0.12856 0.62723 0.0
H343 H 0.87697 0.06092 0.63875 0.0
H344 H 0.91115 0.02521 0.66831 0.0
H345 H 0.99603 0.9191 0.65328 0.0
H346 H 0.02495 0.88446 0.62188 0.0
H347 H 0.13158 0.93593 0.6387 0.0
H348 H 0.10104 0.9734 0.66833 0.0
H349 H 0.00377 1.00236 0.64772 0.0
H350 H 0.9928 0.92246 0.72817 0.0
H351 H 0.01997 0.86632 0.74563 0.0
H352 H 0.12973 0.90111 0.72298 0.0
H353 H 0.10252 0.95869 0.70747 0.0
C354 C 0.97028 0.06263 0.71608 0.0
C355 C 0.99328 0.09126 0.7247 0.0
C356 C 0.9776 0.1234 0.73449 0.0
C357 C 0.93844 0.12756 0.73605 0.0
C358 C 0.91547 0.09818 0.72797 0.0
C359 C 0.93127 0.06602 0.71807 0.0
C360 C 0.98731 0.03116 0.70313 0.0
C361 C 0.00834 0.00364 0.71501 0.0
C362 C 0.98513 0.02994 0.67869 0.0
C363 C 0.96252 0.05663 0.6649 0.0
C364 C 0.98005 0.08636 0.65348 0.0
C365 C 0.96071 0.1066 0.63641 0.0
C366 C 0.92358 0.09726 0.63042 0.0
C367 C 0.90542 0.06897 0.64301 0.0
C368 C 0.92487 0.04859 0.65996 0.0
C369 C 0.04656 0.94803 0.66364 0.0
C370 C 0.02585 0.92212 0.65054 0.0
C371 C 0.04269 0.90212 0.63256 0.0
C372 C 0.0809 0.90722 0.62741 0.0
C373 C 0.10202 0.9316 0.64164 0.0
C374 C 0.08482 0.9524 0.65916 0.0
C375 C 0.02667 0.97571 0.6782 0.0
C376 C 0.00512 1.00267 0.66657 0.0
C377 C 0.02772 0.97548 0.70279 0.0
C378 C 0.04544 0.94413 0.71577 0.0
C379 C 0.02282 0.91828 0.72738 0.0
C380 C 0.03844 0.88592 0.73714 0.0
C381 C 0.07705 0.87837 0.73521 0.0
C382 C 0.09994 0.90565 0.72483 0.0
C383 C 0.0843 0.93837 0.71547 0.0
Mn384 Mn 0.34349 0.6709 0.00805 0.0
Mn385 Mn 0.34984 0.57725 0.01515 0.0
C386 C 0.3536 0.64539 0.04453 0.0
C387 C 0.37186 0.72909 0.00228 0.0
C388 C 0.27604 0.61729 0.00811 0.0
O389 O 0.35395 0.65315 0.9751 0.0
O390 O 0.35566 0.59087 0.98187 0.0
C391 C 0.42977 0.56882 0.0028 0.0
N392 N 0.4016 0.56421 0.01833 0.0
C393 C 0.44348 0.535 0.04586 0.0
C394 C 0.47289 0.53927 0.03011 0.0
C395 C 0.466 0.55629 0.0085 0.0
C396 C 0.40794 0.5479 0.03918 0.0
H397 H 0.42463 0.58192 0.98619 0.0
C398 C 0.35714 0.61926 0.96828 0.0
O399 O 0.33637 0.72425 0.99805 0.0
O400 O 0.3908 0.69994 0.00879 0.0
N401 N 0.34511 0.56011 0.04647 0.0
C402 C 0.31394 0.55895 0.05991 0.0
C403 C 0.3161 0.54286 0.08213 0.0
C404 C 0.35021 0.52799 0.09024 0.0
C405 C 0.3819 0.52941 0.07608 0.0
C406 C 0.37795 0.54543 0.054 0.0
H407 H 0.2877 0.57041 0.05379 0.0
O408 O 0.33873 0.67835 0.0424 0.0
O409 O 0.36144 0.62816 0.02531 0.0
O410 O 0.28969 0.65012 0.00551 0.0
O411 O 0.29591 0.58835 0.01254 0.0
C412 C 0.41733 0.51593 0.08309 0.0
C413 C 0.44812 0.5188 0.06802 0.0
H414 H 0.50089 0.52972 0.03445 0.0
H415 H 0.48856 0.55974 0.99627 0.0
H416 H 0.29155 0.54197 0.09299 0.0
H417 H 0.35177 0.51564 0.10739 0.0
H418 H 0.42129 0.50364 0.10013 0.0
H419 H 0.47529 0.50864 0.07368 0.0
Mn420 Mn 0.33434 0.84169 0.25717 0.0
Mn421 Mn 0.42735 0.8478 0.26723 0.0
C422 C 0.35739 0.8532 0.29418 0.0
C423 C 0.27654 0.8706 0.24974 0.0
C424 C 0.38768 0.77397 0.26 0.0
O425 O 0.35433 0.85125 0.22468 0.0
O426 O 0.41618 0.85249 0.2334 0.0
C427 C 0.43758 0.92712 0.25369 0.0
N428 N 0.44059 0.89952 0.26991 0.0
C429 C 0.46757 0.94222 0.29776 0.0
C430 C 0.46492 0.97105 0.2813 0.0
C431 C 0.44983 0.96346 0.25918 0.0
C432 C 0.45518 0.9065 0.29123 0.0
H433 H 0.42592 0.92146 0.23668 0.0
C434 C 0.38871 0.85381 0.2189 0.0
O435 O 0.28141 0.83508 0.24576 0.0
O436 O 0.30565 0.88925 0.2566 0.0
N437 N 0.44178 0.8441 0.29925 0.0
C438 C 0.44076 0.81365 0.31347 0.0
C439 C 0.45406 0.81676 0.33641 0.0
C440 C 0.46838 0.85106 0.34447 0.0
C441 C 0.46933 0.88196 0.32948 0.0
C442 C 0.45597 0.87711 0.30674 0.0
H443 H 0.42955 0.78731 0.30741 0.0
O444 O 0.32474 0.83797 0.29135 0.0
O445 O 0.37588 0.86002 0.27536 0.0
O446 O 0.35508 0.78759 0.25599 0.0
O447 O 0.41617 0.79396 0.26521 0.0
C448 C 0.48234 0.91756 0.33635 0.0
C449 C 0.48145 0.94767 0.3205 0.0
H450 H 0.47415 0.99916 0.2855 0.0
H451 H 0.44762 0.98558 0.24641 0.0
H452 H 0.45309 0.79282 0.34791 0.0
H453 H 0.47829 0.85344 0.36224 0.0
H454 H 0.49262 0.92221 0.35387 0.0
H455 H 0.49114 0.97501 0.32607 0.0
Mn456 Mn 0.17765 0.83818 0.49779 0.0
Mn457 Mn 0.08441 0.84936 0.49039 0.0
C458 C 0.15263 0.84907 0.46121 0.0
C459 C 0.23682 0.86447 0.50417 0.0
C460 C 0.12073 0.77353 0.49743 0.0
O461 O 0.16048 0.84968 0.53064 0.0
O462 O 0.09835 0.85556 0.52376 0.0
C463 C 0.08011 0.93001 0.50219 0.0
N464 N 0.07399 0.9016 0.48682 0.0
C465 C 0.04672 0.944 0.45892 0.0
C466 C 0.05254 0.97366 0.4745 0.0
C467 C 0.06936 0.96663 0.49622 0.0
C468 C 0.05789 0.90808 0.46587 0.0
H469 H 0.09306 0.92476 0.51889 0.0
C470 C 0.12699 0.85537 0.53735 0.0
O471 O 0.23083 0.82912 0.50806 0.0
O472 O 0.20838 0.88433 0.49749 0.0
N473 N 0.06694 0.84449 0.45901 0.0
C474 C 0.06421 0.813 0.44573 0.0
C475 C 0.04803 0.81523 0.42346 0.0
C476 C 0.03472 0.84974 0.41511 0.0
C477 C 0.03786 0.88179 0.42907 0.0
C478 C 0.05385 0.87777 0.45122 0.0
H479 H 0.07449 0.78644 0.45203 0.0
O480 O 0.18492 0.83284 0.46352 0.0
O481 O 0.13579 0.85796 0.48035 0.0
O482 O 0.15439 0.7853 0.4999 0.0
O483 O 0.09284 0.79505 0.49335 0.0
C484 C 0.02609 0.91762 0.42178 0.0
C485 C 0.0306 0.94871 0.43667 0.0
H486 H 0.04436 1.00196 0.46995 0.0
H487 H 0.07401 0.98939 0.50832 0.0
H488 H 0.04585 0.7904 0.41275 0.0
H489 H 0.0222 0.85132 0.39795 0.0
H490 H 0.01386 0.92163 0.40468 0.0
H491 H 0.02174 0.97617 0.4308 0.0
Mn492 Mn 0.16703 0.67138 0.74565 0.0
Mn493 Mn 0.15488 0.57823 0.7391 0.0
C494 C 0.15705 0.64585 0.70912 0.0
C495 C 0.14042 0.73084 0.75065 0.0
C496 C 0.23096 0.61385 0.74762 0.0
O497 O 0.15466 0.65466 0.7786 0.0
O498 O 0.14603 0.593 0.77189 0.0
C499 C 0.07339 0.5746 0.74789 0.0
N500 N 0.10299 0.56802 0.7337 0.0
C501 C 0.06294 0.53987 0.70474 0.0
C502 C 0.03205 0.5462 0.71909 0.0
C503 C 0.03731 0.56369 0.74074 0.0
C504 C 0.09824 0.55125 0.71283 0.0
H505 H 0.07731 0.58802 0.76454 0.0
C506 C 0.14687 0.62153 0.78542 0.0
O507 O 0.17553 0.72477 0.75559 0.0
O508 O 0.12095 0.70219 0.74401 0.0
N509 N 0.16227 0.56015 0.70818 0.0
C510 C 0.19479 0.55715 0.69612 0.0
C511 C 0.19434 0.54055 0.67401 0.0
C512 C 0.16054 0.52701 0.6646 0.0
C513 C 0.12745 0.53031 0.67735 0.0
C514 C 0.12968 0.54683 0.69938 0.0
H515 H 0.22085 0.56745 0.70329 0.0
O516 O 0.17331 0.6781 0.71132 0.0
O517 O 0.1476 0.62947 0.7283 0.0
O518 O 0.21984 0.64791 0.74883 0.0
O519 O 0.20886 0.58629 0.744 0.0
C520 C 0.09228 0.51823 0.66897 0.0
C521 C 0.06004 0.52311 0.68263 0.0
H522 H 0.00416 0.53791 0.71363 0.0
H523 H 0.0136 0.56872 0.7519 0.0
H524 H 0.21997 0.53819 0.66424 0.0
H525 H 0.16033 0.51423 0.64754 0.0
H526 H 0.08965 0.50554 0.65194 0.0
H527 H 0.0331 0.51407 0.6759 0.0
Mn528 Mn 0.84132 0.17115 0.50891 0.0
Mn529 Mn 0.84992 0.07768 0.51618 0.0
C530 C 0.85255 0.14611 0.54541 0.0
C531 C 0.86786 0.22997 0.50259 0.0
C532 C 0.77519 0.11599 0.50918 0.0
O533 O 0.85176 0.15338 0.47595 0.0
O534 O 0.8555 0.09121 0.48288 0.0
C535 C 0.93003 0.07093 0.50393 0.0
N536 N 0.90193 0.06576 0.51943 0.0
C537 C 0.94433 0.03747 0.54703 0.0
C538 C 0.97368 0.04231 0.5313 0.0
C539 C 0.9665 0.05916 0.50968 0.0
C540 C 0.90855 0.04962 0.5403 0.0
H541 H 0.92466 0.0839 0.4873 0.0
C542 C 0.85602 0.11956 0.46923 0.0
O543 O 0.83246 0.22406 0.49871 0.0
O544 O 0.88782 0.20152 0.50919 0.0
N545 N 0.84549 0.06065 0.54754 0.0
C546 C 0.81433 0.05895 0.56097 0.0
C547 C 0.81678 0.043 0.58322 0.0
C548 C 0.85115 0.02882 0.59137 0.0
C549 C 0.88282 0.03077 0.57721 0.0
C550 C 0.87859 0.04662 0.55511 0.0
H551 H 0.78787 0.06984 0.5548 0.0
O552 O 0.83692 0.17872 0.54327 0.0
O553 O 0.86049 0.12894 0.52618 0.0
O554 O 0.78808 0.14913 0.5067 0.0
O555 O 0.79573 0.08748 0.51348 0.0
C556 C 0.91849 0.01799 0.58426 0.0
C557 C 0.94925 0.02142 0.5692 0.0
H558 H 1.00187 0.03335 0.53568 0.0
H559 H 0.98902 0.06306 0.49747 0.0
H560 H 0.79224 0.04169 0.59407 0.0
H561 H 0.85293 0.01658 0.60854 0.0
H562 H 0.92267 0.00584 0.60132 0.0
H563 H 0.9766 0.01182 0.5749 0.0
Mn564 Mn 0.83585 0.34307 0.75884 0.0
Mn565 Mn 0.92817 0.35078 0.77091 0.0
C566 C 0.8568 0.35435 0.79646 0.0
C567 C 0.77812 0.3716 0.75048 0.0
C568 C 0.89015 0.27634 0.76156 0.0
O569 O 0.85767 0.35322 0.72676 0.0
O570 O 0.91855 0.35811 0.73719 0.0
C571 C 0.93791 0.43119 0.75994 0.0
N572 N 0.94047 0.40241 0.77539 0.0
C573 C 0.96599 0.44312 0.80485 0.0
C574 C 0.96376 0.47316 0.78922 0.0
C575 C 0.94962 0.46715 0.76668 0.0
C576 C 0.95412 0.40786 0.7971 0.0
H577 H 0.92705 0.42672 0.7426 0.0
C578 C 0.89217 0.35854 0.72191 0.0
O579 O 0.78353 0.33619 0.74636 0.0
O580 O 0.80674 0.39039 0.75793 0.0
N581 N 0.94088 0.34481 0.80307 0.0
C582 C 0.93939 0.31334 0.81638 0.0
C583 C 0.95169 0.3148 0.8396 0.0
C584 C 0.96552 0.34853 0.84884 0.0
C585 C 0.96689 0.38053 0.83479 0.0
C586 C 0.95446 0.37733 0.81174 0.0
H587 H 0.92863 0.28741 0.80938 0.0
O588 O 0.82445 0.33888 0.79288 0.0
O589 O 0.87611 0.36153 0.77806 0.0
O590 O 0.85721 0.28929 0.75781 0.0
O591 O 0.91815 0.29687 0.76704 0.0
C592 C 0.97949 0.41563 0.84286 0.0
C593 C 0.97899 0.44691 0.82791 0.0
H594 H 0.9726 0.50098 0.79438 0.0
H595 H 0.94776 0.49021 0.75453 0.0
H596 H 0.95039 0.29002 0.85036 0.0
H597 H 0.97473 0.3496 0.8668 0.0
H598 H 0.98915 0.41899 0.86062 0.0
H599 H 0.98829 0.47385 0.83441 0.0
Mn600 Mn 0.67724 0.33884 0.99728 0.0
Mn601 Mn 0.58389 0.34927 0.98993 0.0
C602 C 0.65213 0.34966 0.96072 0.0
C603 C 0.7362 0.36557 0.00381 0.0
C604 C 0.62084 0.2737 0.9968 0.0
O605 O 0.65997 0.35001 0.03015 0.0
O606 O 0.5978 0.35542 0.0233 0.0
C607 C 0.57886 0.42981 0.00189 0.0
N608 N 0.57303 0.40144 0.98646 0.0
C609 C 0.54537 0.44374 0.95864 0.0
C610 C 0.5509 0.47337 0.9743 0.0
C611 C 0.56776 0.46636 0.996 0.0
C612 C 0.55688 0.40789 0.96551 0.0
H613 H 0.59184 0.42458 0.01859 0.0
C614 C 0.62644 0.35539 0.03688 0.0
O615 O 0.73047 0.33015 0.00758 0.0
O616 O 0.70764 0.38524 0.99711 0.0
N617 N 0.56644 0.34441 0.95854 0.0
C618 C 0.56391 0.31295 0.94521 0.0
C619 C 0.54772 0.31516 0.92295 0.0
C620 C 0.53416 0.34962 0.91465 0.0
C621 C 0.53705 0.38162 0.92866 0.0
C622 C 0.55308 0.37762 0.95081 0.0
H623 H 0.57436 0.28643 0.95148 0.0
O624 O 0.68458 0.33374 0.96301 0.0
O625 O 0.63521 0.35836 0.97987 0.0
O626 O 0.6544 0.28576 0.99926 0.0
O627 O 0.59276 0.29501 0.99278 0.0
C628 C 0.52498 0.41738 0.92145 0.0
C629 C 0.52922 0.44844 0.93641 0.0
H630 H 0.54243 0.50161 0.96981 0.0
H631 H 0.57217 0.48909 0.00816 0.0
H632 H 0.54572 0.29036 0.91219 0.0
H633 H 0.52165 0.35119 0.89748 0.0
H634 H 0.51272 0.42138 0.90435 0.0
H635 H 0.52011 0.47584 0.93059 0.0
Mn636 Mn 0.66812 0.17168 0.2458 0.0
Mn637 Mn 0.65652 0.07861 0.23859 0.0
C638 C 0.65936 0.14674 0.20903 0.0
C639 C 0.64096 0.23078 0.25098 0.0
C640 C 0.73222 0.11446 0.24804 0.0
O641 O 0.65513 0.15436 0.27851 0.0
O642 O 0.64668 0.09282 0.27136 0.0
C643 C 0.57477 0.07463 0.24641 0.0
N644 N 0.60481 0.06832 0.23254 0.0
C645 C 0.56572 0.04042 0.20299 0.0
C646 C 0.53438 0.04647 0.21702 0.0
C647 C 0.53894 0.0637 0.2388 0.0
C648 C 0.60073 0.05183 0.21153 0.0
H649 H 0.57816 0.08784 0.26317 0.0
C650 C 0.64721 0.12113 0.28508 0.0
O651 O 0.67601 0.22494 0.25617 0.0
O652 O 0.62187 0.20212 0.24396 0.0
N653 N 0.66488 0.06098 0.20767 0.0
C654 C 0.69779 0.05809 0.19601 0.0
C655 C 0.69808 0.04162 0.17386 0.0
C656 C 0.66461 0.02807 0.16401 0.0
C657 C 0.6311 0.03128 0.17634 0.0
C658 C 0.63259 0.04766 0.19844 0.0
H659 H 0.72361 0.06835 0.20353 0.0
O660 O 0.67527 0.17909 0.21162 0.0
O661 O 0.6494 0.12998 0.22798 0.0
O662 O 0.72096 0.14847 0.24929 0.0
O663 O 0.71031 0.08684 0.24412 0.0
C664 C 0.59622 0.01918 0.16751 0.0
C665 C 0.56354 0.02386 0.18079 0.0
H666 H 0.50669 0.03813 0.2112 0.0
H667 H 0.51488 0.0685 0.24971 0.0
H668 H 0.72404 0.03933 0.16442 0.0
H669 H 0.66498 0.01532 0.14695 0.0
H670 H 0.59416 0.0066 0.15042 0.0
H671 H 0.53684 0.01479 0.17371 0.0
C672 C 0.17096 0.8834 0.25044 0.0
C673 C 0.16778 0.92051 0.25861 0.0
H674 H 0.2078 0.83841 0.24096 0.0
C675 C 0.20065 0.94191 0.26097 0.0
H676 H 0.14629 0.86621 0.24794 0.0
C677 C 0.23567 0.92619 0.25654 0.0
C678 C 0.239 0.88847 0.24985 0.0
H679 H 0.19972 0.97032 0.26751 0.0
H680 H 0.26032 0.94323 0.25955 0.0
C681 C 0.20621 0.86751 0.24619 0.0
C682 C 0.06895 0.68128 0.49534 0.0
C683 C 0.08852 0.65984 0.51195 0.0
H684 H 0.06375 0.7337 0.4778 0.0
C685 C 0.12156 0.67481 0.5218 0.0
H686 H 0.04404 0.67044 0.48687 0.0
C687 C 0.13351 0.71103 0.51606 0.0
C688 C 0.11238 0.7332 0.50063 0.0
H689 H 0.13727 0.65934 0.53479 0.0
H690 H 0.15808 0.72239 0.52469 0.0
C691 C 0.08049 0.71755 0.48995 0.0
C692 C 0.3201 0.55701 0.75204 0.0
C693 C 0.34407 0.58098 0.76447 0.0
H694 H 0.26626 0.5487 0.73673 0.0
C695 C 0.33215 0.61779 0.7691 0.0
H696 H 0.32876 0.52873 0.74783 0.0
C697 C 0.29591 0.6295 0.76269 0.0
C698 C 0.27111 0.60453 0.75153 0.0
H699 H 0.35009 0.63685 0.7787 0.0
H700 H 0.28678 0.65739 0.76743 0.0
C701 C 0.2842 0.56858 0.74566 0.0
C702 C 0.38595 0.83314 0.01154 0.0
C703 C 0.42528 0.83535 0.0129 0.0
H704 H 0.33797 0.79765 0.00672 0.0
C705 C 0.44641 0.80338 0.00729 0.0
H706 H 0.36877 0.85713 0.01582 0.0
C707 C 0.4288 0.76936 0.00239 0.0
C708 C 0.38959 0.76653 0.00261 0.0
H709 H 0.47672 0.80425 0.00752 0.0
H710 H 0.44599 0.74487 0.99932 0.0
C711 C 0.36826 0.79904 0.00633 0.0
C712 C 0.18041 0.57223 0.0099 0.0
C713 C 0.16134 0.59078 0.99176 0.0
H714 H 0.23145 0.56601 0.0292 0.0
C715 C 0.17917 0.62126 0.98093 0.0
H716 H 0.16738 0.54942 0.01918 0.0
C717 C 0.21571 0.63158 0.98728 0.0
C718 C 0.23545 0.61123 0.00429 0.0
H719 H 0.16572 0.63608 0.96674 0.0
H720 H 0.22925 0.65403 0.97792 0.0
C721 C 0.21711 0.58201 0.01586 0.0
C722 C 0.38719 0.67688 0.23339 0.0
C723 C 0.41846 0.66041 0.24448 0.0
H724 H 0.35241 0.72571 0.22986 0.0
C725 C 0.43575 0.67987 0.2629 0.0
H726 H 0.37327 0.66288 0.21905 0.0
C727 C 0.42413 0.71594 0.26882 0.0
C728 C 0.39448 0.73335 0.25677 0.0
H729 H 0.45919 0.66773 0.27229 0.0
H730 H 0.43934 0.73075 0.28234 0.0
C731 C 0.37519 0.71294 0.23957 0.0
C732 C 0.31204 0.93805 0.50255 0.0
C733 C 0.34305 0.91748 0.49468 0.0
H734 H 0.25423 0.93722 0.51189 0.0
C735 C 0.34037 0.87815 0.49379 0.0
H736 H 0.31338 0.96826 0.50407 0.0
C737 C 0.30642 0.86019 0.4988 0.0
C738 C 0.27462 0.88134 0.50456 0.0
H739 H 0.36366 0.86144 0.48775 0.0
H740 H 0.30438 0.83015 0.49651 0.0
C741 C 0.27818 0.92025 0.50722 0.0
C742 C 0.07106 0.80849 0.73854 0.0
C743 C 0.09261 0.841 0.74205 0.0
H744 H 0.06892 0.74883 0.73892 0.0
C745 C 0.12959 0.83689 0.7505 0.0
H746 H 0.04281 0.8101 0.73164 0.0
C747 C 0.14497 0.80117 0.75435 0.0
C748 C 0.12362 0.76886 0.74995 0.0
H749 H 0.14692 0.86121 0.75378 0.0
H750 H 0.17385 0.79888 0.76009 0.0
C751 C 0.08624 0.77306 0.74256 0.0
C752 C 0.70121 0.44218 0.76092 0.0
C753 C 0.66861 0.42042 0.7584 0.0
H754 H 0.7609 0.44414 0.75991 0.0
C755 C 0.67235 0.38329 0.75033 0.0
H756 H 0.69987 0.47062 0.76737 0.0
C757 C 0.70786 0.36777 0.74634 0.0
C758 C 0.74037 0.3891 0.75018 0.0
H759 H 0.64792 0.36582 0.74772 0.0
H760 H 0.70986 0.33865 0.74121 0.0
C761 C 0.73649 0.42681 0.75676 0.0
C762 C 0.62323 0.17464 0.02064 0.0
C763 C 0.59012 0.15942 0.01102 0.0
H764 H 0.6593 0.22256 0.02345 0.0
C765 C 0.56984 0.18094 0.99478 0.0
H766 H 0.63946 0.15916 0.03337 0.0
C767 C 0.58083 0.21743 0.9895 0.0
C768 C 0.61286 0.23327 0.99993 0.0
H769 H 0.54482 0.16995 0.9865 0.0
H770 H 0.56361 0.23359 0.97761 0.0
C771 C 0.63462 0.21109 0.01501 0.0
C772 C 0.82144 0.05794 0.25305 0.0
C773 C 0.84515 0.08207 0.26555 0.0
H774 H 0.76785 0.04936 0.23749 0.0
C775 C 0.83305 0.11886 0.27007 0.0
H776 H 0.83027 0.02967 0.24896 0.0
C777 C 0.79686 0.13039 0.26346 0.0
C778 C 0.77231 0.10528 0.25222 0.0
H779 H 0.85081 0.13802 0.27971 0.0
H780 H 0.78757 0.15828 0.26809 0.0
C781 C 0.7856 0.06935 0.24648 0.0
C782 C 0.94036 0.30653 0.50424 0.0
C783 C 0.9191 0.33762 0.51139 0.0
H784 H 0.94072 0.24813 0.49581 0.0
C785 C 0.87984 0.33406 0.51213 0.0
H786 H 0.9705 0.30842 0.50275 0.0
C787 C 0.86265 0.29953 0.50748 0.0
C788 C 0.88443 0.26787 0.50233 0.0
H789 H 0.86252 0.35725 0.51766 0.0
H790 H 0.83262 0.29708 0.50949 0.0
C791 C 0.92328 0.272 0.50003 0.0
C792 C 0.68052 0.06877 0.50996 0.0
C793 C 0.66107 0.08796 0.49223 0.0
H794 H 0.73171 0.06252 0.52915 0.0
C795 C 0.67832 0.11932 0.48202 0.0
H796 H 0.66793 0.04523 0.51876 0.0
C797 C 0.71464 0.12998 0.48859 0.0
C798 C 0.73478 0.10914 0.50518 0.0
H799 H 0.66461 0.13464 0.46814 0.0
H800 H 0.72772 0.1532 0.4797 0.0
C801 C 0.71704 0.07893 0.51613 0.0
C802 C 0.89005 0.17935 0.7346 0.0
C803 C 0.92211 0.16326 0.74502 0.0
H804 H 0.85435 0.22764 0.73189 0.0
C805 C 0.94025 0.18306 0.76299 0.0
H806 H 0.87545 0.16512 0.7206 0.0
C807 C 0.92849 0.21899 0.76916 0.0
C808 C 0.89784 0.23595 0.75784 0.0
H809 H 0.96433 0.17124 0.7719 0.0
H810 H 0.94422 0.23398 0.78237 0.0
C811 C 0.87792 0.21525 0.74104 0.0
C812 C 0.81093 0.43977 0.0032 0.0
C813 C 0.84223 0.41961 0.99535 0.0
H814 H 0.75295 0.43831 0.01215 0.0
C815 C 0.8398 0.38028 0.99406 0.0
H816 H 0.81205 0.46994 0.00505 0.0
C817 C 0.80589 0.36198 0.99869 0.0
C818 C 0.77385 0.38276 0.00444 0.0
H819 H 0.86328 0.36385 0.98801 0.0
H820 H 0.80411 0.33198 0.99613 0.0
C821 C 0.7771 0.42163 0.00746 0.0
C822 C 0.57087 0.30779 0.23911 0.0
C823 C 0.59221 0.34045 0.24249 0.0
H824 H 0.56921 0.24813 0.23957 0.0
C825 C 0.62925 0.33669 0.2509 0.0
H826 H 0.54258 0.30915 0.23226 0.0
C827 C 0.64493 0.30112 0.25476 0.0
C828 C 0.62382 0.26863 0.25042 0.0
H829 H 0.64641 0.36116 0.25408 0.0
H830 H 0.67387 0.29907 0.26042 0.0
C831 C 0.58635 0.27251 0.24314 0.0
C832 C 0.12985 0.86121 0.39741 0.0
C833 C 0.12194 0.8998 0.39638 0.0
H834 H 0.14614 0.81473 0.41901 0.0
C835 C 0.12585 0.92146 0.41664 0.0
H836 H 0.12728 0.8439 0.38203 0.0
C837 C 0.13596 0.90471 0.43764 0.0
C838 C 0.14219 0.866 0.43884 0.0
H839 H 0.11951 0.95113 0.41651 0.0
H840 H 0.13828 0.92195 0.45308 0.0
C841 C 0.14049 0.84453 0.41847 0.0
C842 C 0.14564 0.62053 0.64567 0.0
C843 C 0.1071 0.61232 0.64448 0.0
H844 H 0.19189 0.63789 0.66733 0.0
C845 C 0.08523 0.61753 0.6644 0.0
H846 H 0.16315 0.61722 0.63055 0.0
C847 C 0.1017 0.62896 0.68524 0.0
C848 C 0.14039 0.63508 0.6867 0.0
H849 H 0.05561 0.61105 0.66426 0.0
H850 H 0.0843 0.6321 0.70044 0.0
C851 C 0.16209 0.63231 0.66661 0.0
C852 C 0.36107 0.56772 0.91136 0.0
C853 C 0.39051 0.58624 0.90007 0.0
H854 H 0.32761 0.56374 0.9419 0.0
C855 C 0.40482 0.61941 0.91005 0.0
H856 H 0.34855 0.54279 0.90393 0.0
C857 C 0.3919 0.63204 0.93159 0.0
C858 C 0.36493 0.6114 0.94366 0.0
H859 H 0.42766 0.63433 0.90201 0.0
H860 H 0.40488 0.65635 0.93952 0.0
C861 C 0.34882 0.57985 0.93303 0.0
C862 C 0.44342 0.85315 0.16335 0.0
C863 C 0.42604 0.88211 0.15066 0.0
H864 H 0.4452 0.82175 0.19499 0.0
C865 C 0.39277 0.89786 0.15938 0.0
H866 H 0.46838 0.83951 0.15695 0.0
C867 C 0.37883 0.88673 0.18097 0.0
C868 C 0.39827 0.86016 0.19437 0.0
H869 H 0.37869 0.92042 0.15027 0.0
H870 H 0.35438 0.90071 0.18785 0.0
C871 C 0.43001 0.84271 0.18508 0.0
C872 C 0.11027 0.63662 0.8465 0.0
C873 C 0.11001 0.59972 0.8551 0.0
H874 H 0.12258 0.67274 0.81777 0.0
C875 C 0.12503 0.57099 0.84135 0.0
H876 H 0.09907 0.6594 0.85675 0.0
C877 C 0.13821 0.57854 0.81913 0.0
C878 C 0.13695 0.61508 0.81005 0.0
H879 H 0.12482 0.54219 0.84723 0.0
H880 H 0.14845 0.55539 0.80879 0.0
C881 C 0.12384 0.64428 0.82423 0.0
C882 C 0.36714 0.62183 0.10811 0.0
C883 C 0.40532 0.61195 0.10869 0.0
H884 H 0.32065 0.6406 0.0871 0.0
C885 C 0.42628 0.61497 0.08823 0.0
H886 H 0.35038 0.62008 0.12364 0.0
C887 C 0.40923 0.62616 0.06752 0.0
C888 C 0.37086 0.63434 0.06675 0.0
H889 H 0.45559 0.60715 0.08797 0.0
H890 H 0.42593 0.62772 0.05193 0.0
C891 C 0.35015 0.6335 0.08731 0.0
C892 C 0.38425 0.93084 0.33505 0.0
C893 C 0.38477 0.91274 0.35673 0.0
H894 H 0.37497 0.92594 0.29846 0.0
C895 C 0.374 0.87481 0.35781 0.0
H896 H 0.39283 0.95977 0.33336 0.0
C897 C 0.36437 0.85521 0.33752 0.0
C898 C 0.3661 0.87309 0.3159 0.0
H899 H 0.3735 0.86016 0.37426 0.0
H900 H 0.35677 0.82592 0.33862 0.0
C901 C 0.37471 0.91131 0.31494 0.0
C902 C 0.12517 0.90951 0.59339 0.0
C903 C 0.09732 0.89036 0.60594 0.0
H904 H 0.15704 0.91269 0.56202 0.0
C905 C 0.08294 0.85681 0.59652 0.0
H906 H 0.13664 0.93575 0.59956 0.0
C907 C 0.0938 0.84453 0.57453 0.0
C908 C 0.12036 0.86463 0.56184 0.0
H909 H 0.06238 0.84049 0.60577 0.0
H910 H 0.08081 0.81975 0.56717 0.0
C911 C 0.13687 0.89649 0.57171 0.0
C912 C 0.62927 0.36129 0.8969 0.0
C913 C 0.621 0.3998 0.89577 0.0
H914 H 0.64598 0.31508 0.91859 0.0
C915 C 0.62461 0.42159 0.916 0.0
H916 H 0.62693 0.34389 0.88154 0.0
C917 C 0.63483 0.40504 0.93705 0.0
C918 C 0.64147 0.3664 0.93833 0.0
H919 H 0.618 0.4512 0.91581 0.0
H920 H 0.63695 0.42237 0.95246 0.0
C921 C 0.64001 0.34482 0.91799 0.0
C922 C 0.58954 0.11878 0.16306 0.0
C923 C 0.61227 0.11387 0.14348 0.0
H924 H 0.58704 0.13284 0.19914 0.0
C925 C 0.65073 0.12214 0.14534 0.0
H926 H 0.55995 0.11221 0.1624 0.0
C927 C 0.66626 0.13369 0.16659 0.0
C928 C 0.64369 0.13614 0.18632 0.0
H929 H 0.66889 0.11897 0.1305 0.0
H930 H 0.696 0.13933 0.16782 0.0
C931 C 0.6051 0.12995 0.18421 0.0
C932 C 0.90412 0.12023 0.41117 0.0
C933 C 0.89037 0.08682 0.40121 0.0
H934 H 0.90338 0.15729 0.44058 0.0
C935 C 0.86106 0.06796 0.4124 0.0
H936 H 0.92684 0.13543 0.4032 0.0
C937 C 0.84843 0.08 0.43401 0.0
C938 C 0.86401 0.11181 0.44463 0.0
H939 H 0.84895 0.04282 0.40497 0.0
H940 H 0.82737 0.06363 0.44284 0.0
C941 C 0.8908 0.13278 0.43263 0.0
C942 C 0.88775 0.38231 0.65739 0.0
C943 C 0.92596 0.38744 0.65238 0.0
H944 H 0.84685 0.36894 0.68322 0.0
C945 C 0.95247 0.3812 0.67013 0.0
H946 H 0.86657 0.38668 0.64409 0.0
C947 C 0.94129 0.37093 0.69231 0.0
C948 C 0.90315 0.36677 0.69761 0.0
H949 H 0.98205 0.38569 0.66723 0.0
H950 H 0.96283 0.36713 0.70546 0.0
C951 C 0.87645 0.37201 0.67978 0.0
C952 C 0.61095 0.13557 0.34631 0.0
C953 C 0.6104 0.09854 0.3547 0.0
H954 H 0.62344 0.17201 0.31778 0.0
C955 C 0.62485 0.06985 0.34068 0.0
H956 H 0.60016 0.15831 0.35677 0.0
C957 C 0.63787 0.0776 0.31845 0.0
C958 C 0.63702 0.1143 0.30962 0.0
H959 H 0.62437 0.04096 0.34639 0.0
H960 H 0.64774 0.0545 0.30793 0.0
C961 C 0.62437 0.14342 0.32403 0.0
C962 C 0.8672 0.12283 0.60895 0.0
C963 C 0.90553 0.11353 0.60938 0.0
H964 H 0.82018 0.14083 0.58813 0.0
C965 C 0.92623 0.117 0.58884 0.0
H966 H 0.85061 0.12079 0.62454 0.0
C967 C 0.90878 0.12798 0.5682 0.0
C968 C 0.87026 0.13548 0.56758 0.0
H969 H 0.95564 0.10965 0.58843 0.0
H970 H 0.92529 0.12986 0.55255 0.0
C971 C 0.84979 0.13425 0.58822 0.0
C972 C 0.87189 0.37618 0.86023 0.0
C973 C 0.88196 0.41432 0.85919 0.0
H974 H 0.85587 0.32693 0.84095 0.0
C975 C 0.88097 0.43248 0.83753 0.0
H976 H 0.87176 0.36145 0.87665 0.0
C977 C 0.87189 0.4128 0.8174 0.0
C978 C 0.8642 0.37439 0.81831 0.0
H979 H 0.88904 0.46155 0.83582 0.0
H980 H 0.87202 0.42747 0.80093 0.0
C981 C 0.86272 0.35642 0.8399 0.0
C982 C 0.58269 0.35604 0.09616 0.0
C983 C 0.59675 0.38971 0.1056 0.0
H984 H 0.5808 0.31911 0.06673 0.0
C985 C 0.62428 0.40926 0.09302 0.0
H986 H 0.56239 0.33942 0.10542 0.0
C987 C 0.63598 0.39648 0.07129 0.0
C988 C 0.61978 0.36448 0.0614 0.0
H989 H 0.63548 0.4356 0.09921 0.0
H990 H 0.6559 0.41297 0.06157 0.0
C991 C 0.59354 0.34401 0.0741 0.0
loop_
_geom_bond_atom_site_label_1
_geom_bond_atom_site_label_2
_geom_bond_distance
_geom_bond_site_symmetry_2
_ccdc_geom_bond_type
H0 C19 0.949 . S
H1 C20 0.950 . S
H2 C22 0.950 . S
H3 C23 0.950 . S
H4 C25 0.950 . S
H5 C28 0.950 . S
H6 C29 0.950 . S
H7 C31 0.951 . S
H8 C32 0.949 1_565 S
H9 C34 0.949 . S
H10 C35 0.950 . S
H11 C37 0.950 . S
H12 C38 0.950 . S
H13 C40 0.951 . S
H14 C43 0.950 . S
H15 C44 0.950 . S
H16 C46 0.951 . S
H17 C47 0.949 1_545 S
C18 C19 1.376 . S
C18 C23 1.386 . S
C18 C24 1.483 . S
C19 H0 0.949 . S
C19 C18 1.376 . S
C19 C20 1.397 . S
C20 H1 0.950 . S
C20 C19 1.397 . S
C20 C21 1.391 . S
C21 C20 1.391 . S
C21 C22 1.405 . S
C22 H2 0.950 . S
C22 C21 1.405 . S
C22 C23 1.367 . S
C23 H3 0.950 . S
C23 C18 1.386 . S
C23 C22 1.367 . S
C24 C18 1.483 . S
C24 C25 1.382 1_655 S
C24 C26 1.403 . S
C25 H4 0.950 . S
C25 C24 1.382 1_455 S
C25 C41 1.411 1_545 S
C26 C24 1.403 . S
C26 C27 1.489 . S
C26 C40 1.421 1_545 S
C27 C26 1.489 . S
C27 C28 1.383 . S
C27 C32 1.382 . S
C28 H5 0.950 . S
C28 C27 1.383 . S
C28 C29 1.395 . S
C29 H6 0.950 . S
C29 C28 1.395 . S
C29 C30 1.288 . S
C30 C29 1.288 . S
C30 C31 1.392 . S
C31 H7 0.951 . S
C31 C30 1.392 . S
C31 C32 1.392 . S
C32 H8 0.949 1_545 S
C32 C27 1.382 . S
C32 C31 1.392 . S
C33 C34 1.376 . S
C33 C38 1.386 . S
C33 C39 1.483 . S
C34 H9 0.949 . S
C34 C33 1.376 . S
C34 C35 1.397 . S
C35 H10 0.950 . S
C35 C34 1.397 . S
C35 C36 1.391 . S
C36 C35 1.391 . S
C36 C37 1.405 . S
C37 H11 0.950 . S
C37 C36 1.405 . S
C37 C38 1.367 . S
C38 H12 0.950 . S
C38 C33 1.386 . S
C38 C37 1.367 . S
C39 C33 1.483 . S
C39 C40 1.370 1_455 S
C39 C41 1.403 . S
C40 H13 0.951 . S
C40 C26 1.421 1_565 S
C40 C39 1.370 1_655 S
C41 C25 1.411 1_565 S
C41 C39 1.403 . S
C41 C42 1.489 . S
C42 C41 1.489 . S
C42 C43 1.383 . S
C42 C47 1.382 . S
C43 H14 0.950 . S
C43 C42 1.383 . S
C43 C44 1.395 . S
C44 H15 0.950 . S
C44 C43 1.395 . S
C44 C45 1.288 . S
C45 C44 1.288 . S
C45 C46 1.392 . S
C46 H16 0.951 . S
C46 C45 1.392 . S
C46 C47 1.392 . S
C47 H17 0.949 1_565 S
C47 C42 1.382 . S
C47 C46 1.392 . S
H48 C67 0.949 1_455 S
H49 C68 0.950 . S
H50 C70 0.950 . S
H51 C71 0.950 . S
H52 C73 0.950 . S
H53 C76 0.950 . S
H54 C77 0.950 . S
H55 C79 0.951 . S
H56 C80 0.949 . S
H57 C82 0.949 1_655 S
H58 C83 0.950 . S
H59 C85 0.950 . S
H60 C86 0.950 . S
H61 C88 0.950 . S
H62 C91 0.950 . S
H63 C92 0.950 . S
H64 C94 0.951 . S
H65 C95 0.949 . S
C66 C67 1.376 . S
C66 C71 1.386 . S
C66 C72 1.483 . S
C67 H48 0.949 1_655 S
C67 C66 1.376 . S
C67 C68 1.397 . S
C68 H49 0.950 . S
C68 C67 1.397 . S
C68 C69 1.391 . S
C69 C68 1.391 . S
C69 C70 1.405 . S
C70 H50 0.950 . S
C70 C69 1.405 . S
C70 C71 1.367 . S
C71 H51 0.950 . S
C71 C66 1.386 . S
C71 C70 1.367 . S
C72 C66 1.483 . S
C72 C73 1.382 1_655 S
C72 C74 1.403 . S
C73 H52 0.950 . S
C73 C72 1.382 1_455 S
C73 C89 1.411 . S
C74 C72 1.403 . S
C74 C75 1.489 . S
C74 C88 1.411 . S
C75 C74 1.489 . S
C75 C76 1.383 . S
C75 C80 1.382 . S
C76 H53 0.950 . S
C76 C75 1.383 . S
C76 C77 1.395 . S
C77 H54 0.950 . S
C77 C76 1.395 . S
C77 C78 1.288 . S
C78 C77 1.288 . S
C78 C79 1.392 . S
C79 H55 0.951 . S
C79 C78 1.392 . S
C79 C80 1.392 . S
C80 H56 0.949 . S
C80 C75 1.382 . S
C80 C79 1.392 . S
C81 C82 1.376 . S
C81 C86 1.386 . S
C81 C87 1.483 . S
C82 H57 0.949 1_455 S
C82 C81 1.376 . S
C82 C83 1.397 . S
C83 H58 0.950 . S
C83 C82 1.397 . S
C83 C84 1.391 . S
C84 C83 1.391 . S
C84 C85 1.405 . S
C85 H59 0.950 . S
C85 C84 1.405 . S
C85 C86 1.367 . S
C86 H60 0.950 . S
C86 C81 1.386 . S
C86 C85 1.367 . S
C87 C81 1.483 . S
C87 C88 1.382 1_455 S
C87 C89 1.403 . S
C88 H61 0.950 . S
C88 C74 1.411 . S
C88 C87 1.382 1_655 S
C89 C73 1.411 . S
C89 C87 1.403 . S
C89 C90 1.489 . S
C90 C89 1.489 . S
C90 C91 1.383 . S
C90 C95 1.382 . S
C91 H62 0.950 . S
C91 C90 1.383 . S
C91 C92 1.395 . S
C92 H63 0.950 . S
C92 C91 1.395 . S
C92 C93 1.288 . S
C93 C92 1.288 . S
C93 C94 1.392 . S
C94 H64 0.951 . S
C94 C93 1.392 . S
C94 C95 1.392 . S
C95 H65 0.949 . S
C95 C90 1.382 . S
C95 C94 1.392 . S
H96 C115 0.949 . S
H97 C116 0.950 . S
H98 C118 0.950 . S
H99 C119 0.950 . S
H100 C121 0.950 . S
H101 C124 0.950 . S
H102 C125 0.950 . S
H103 C127 0.951 . S
H104 C128 0.949 . S
H105 C130 0.949 . S
H106 C131 0.950 . S
H107 C133 0.950 . S
H108 C134 0.950 . S
H109 C136 0.950 . S
H110 C139 0.950 . S
H111 C140 0.950 . S
H112 C142 0.951 . S
H113 C143 0.949 . S
C114 C115 1.376 . S
C114 C119 1.386 . S
C114 C120 1.483 . S
C115 H96 0.949 . S
C115 C114 1.376 . S
C115 C116 1.397 . S
C116 H97 0.950 . S
C116 C115 1.397 . S
C116 C117 1.391 . S
C117 C116 1.391 . S
C117 C118 1.405 . S
C118 H98 0.950 . S
C118 C117 1.405 . S
C118 C119 1.367 . S
C119 H99 0.950 . S
C119 C114 1.386 . S
C119 C118 1.367 . S
C120 C114 1.483 . S
C120 C121 1.382 . S
C120 C122 1.403 . S
C121 H100 0.950 . S
C121 C120 1.382 . S
C121 C137 1.411 . S
C122 C120 1.403 . S
C122 C123 1.489 . S
C122 C136 1.411 . S
C123 C122 1.489 . S
C123 C124 1.383 . S
C123 C128 1.382 . S
C124 H101 0.950 . S
C124 C123 1.383 . S
C124 C125 1.395 . S
C125 H102 0.950 . S
C125 C124 1.395 . S
C125 C126 1.288 . S
C126 C125 1.288 . S
C126 C127 1.392 . S
C127 H103 0.951 . S
C127 C126 1.392 . S
C127 C128 1.392 . S
C128 H104 0.949 . S
C128 C123 1.382 . S
C128 C127 1.392 . S
C129 C130 1.376 . S
C129 C134 1.386 . S
C129 C135 1.483 . S
C130 H105 0.949 . S
C130 C129 1.376 . S
C130 C131 1.397 . S
C131 H106 0.950 . S
C131 C130 1.397 . S
C131 C132 1.391 . S
C132 C131 1.391 . S
C132 C133 1.405 . S
C133 H107 0.950 . S
C133 C132 1.405 . S
C133 C134 1.367 . S
C134 H108 0.950 . S
C134 C129 1.386 . S
C134 C133 1.367 . S
C135 C129 1.483 . S
C135 C136 1.382 . S
C135 C137 1.403 . S
C136 H109 0.950 . S
C136 C122 1.411 . S
C136 C135 1.382 . S
C137 C121 1.411 . S
C137 C135 1.403 . S
C137 C138 1.489 . S
C138 C137 1.489 . S
C138 C139 1.383 . S
C138 C143 1.382 . S
C139 H110 0.950 . S
C139 C138 1.383 . S
C139 C140 1.395 . S
C140 H111 0.950 . S
C140 C139 1.395 . S
C140 C141 1.288 . S
C141 C140 1.288 . S
C141 C142 1.392 . S
C142 H112 0.951 . S
C142 C141 1.392 . S
C142 C143 1.392 . S
C143 H113 0.949 . S
C143 C138 1.382 . S
C143 C142 1.392 . S
H144 C163 0.949 . S
H145 C164 0.950 . S
H146 C166 0.950 . S
H147 C167 0.950 . S
H148 C169 0.950 1_565 S
H149 C172 0.950 . S
H150 C173 0.950 . S
H151 C175 0.951 . S
H152 C176 0.949 . S
H153 C178 0.949 . S
H154 C179 0.950 . S
H155 C181 0.950 . S
H156 C182 0.950 . S
H157 C184 0.950 . S
H158 C187 0.950 . S
H159 C188 0.950 . S
H160 C190 0.951 . S
H161 C191 0.949 . S
C162 C163 1.376 . S
C162 C167 1.386 . S
C162 C168 1.483 . S
C163 H144 0.949 . S
C163 C162 1.376 . S
C163 C164 1.397 . S
C164 H145 0.950 . S
C164 C163 1.397 . S
C164 C165 1.391 . S
C165 C164 1.391 . S
C165 C166 1.405 . S
C166 H146 0.950 . S
C166 C165 1.405 . S
C166 C167 1.367 . S
C167 H147 0.950 . S
C167 C162 1.386 . S
C167 C166 1.367 . S
C168 C162 1.483 . S
C168 C169 1.382 1_565 S
C168 C170 1.403 . S
C169 H148 0.950 1_545 S
C169 C168 1.382 1_545 S
C169 C185 1.411 . S
C170 C168 1.403 . S
C170 C171 1.489 . S
C170 C184 1.411 1_565 S
C171 C170 1.489 . S
C171 C172 1.383 . S
C171 C176 1.382 . S
C172 H149 0.950 . S
C172 C171 1.383 . S
C172 C173 1.395 . S
C173 H150 0.950 . S
C173 C172 1.395 . S
C173 C174 1.288 . S
C174 C173 1.288 . S
C174 C175 1.392 . S
C175 H151 0.951 . S
C175 C174 1.392 . S
C175 C176 1.392 . S
C176 H152 0.949 . S
C176 C171 1.382 . S
C176 C175 1.392 . S
C177 C178 1.376 . S
C177 C182 1.386 . S
C177 C183 1.483 . S
C178 H153 0.949 . S
C178 C177 1.376 . S
C178 C179 1.397 . S
C179 H154 0.950 . S
C179 C178 1.397 . S
C179 C180 1.391 . S
C180 C179 1.391 . S
C180 C181 1.405 . S
C181 H155 0.950 . S
C181 C180 1.405 . S
C181 C182 1.367 . S
C182 H156 0.950 . S
C182 C177 1.386 . S
C182 C181 1.367 . S
C183 C177 1.483 . S
C183 C184 1.382 . S
C183 C185 1.403 . S
C184 H157 0.950 . S
C184 C170 1.411 1_545 S
C184 C183 1.382 . S
C185 C169 1.411 . S
C185 C183 1.403 . S
C185 C186 1.489 . S
C186 C185 1.489 . S
C186 C187 1.383 . S
C186 C191 1.382 . S
C187 H158 0.950 . S
C187 C186 1.383 . S
C187 C188 1.395 . S
C188 H159 0.950 . S
C188 C187 1.395 . S
C188 C189 1.288 . S
C189 C188 1.288 . S
C189 C190 1.392 . S
C190 H160 0.951 . S
C190 C189 1.392 . S
C190 C191 1.392 . S
C191 H161 0.949 . S
C191 C186 1.382 . S
C191 C190 1.392 . S
H192 C211 0.949 . S
H193 C212 0.950 . S
H194 C214 0.950 . S
H195 C215 0.950 . S
H196 C217 0.950 . S
H197 C220 0.950 . S
H198 C221 0.950 . S
H199 C223 0.951 . S
H200 C224 0.949 . S
H201 C226 0.949 . S
H202 C227 0.950 . S
H203 C229 0.950 . S
H204 C230 0.950 . S
H205 C232 0.950 . S
H206 C235 0.950 . S
H207 C236 0.950 . S
H208 C238 0.951 . S
H209 C239 0.949 . S
C210 C211 1.376 . S
C210 C215 1.386 . S
C210 C216 1.483 . S
C211 H192 0.949 . S
C211 C210 1.376 . S
C211 C212 1.397 . S
C212 H193 0.950 . S
C212 C211 1.397 . S
C212 C213 1.391 . S
C213 C212 1.391 . S
C213 C214 1.405 . S
C214 H194 0.950 . S
C214 C213 1.405 . S
C214 C215 1.367 . S
C215 H195 0.950 . S
C215 C210 1.386 . S
C215 C214 1.367 . S
C216 C210 1.483 . S
C216 C217 1.382 1_455 S
C216 C218 1.403 . S
C217 H196 0.950 . S
C217 C216 1.382 1_655 S
C217 C233 1.411 . S
C218 C216 1.403 . S
C218 C219 1.489 . S
C218 C232 1.411 . S
C219 C218 1.489 . S
C219 C220 1.383 . S
C219 C224 1.382 . S
C220 H197 0.950 . S
C220 C219 1.383 . S
C220 C221 1.395 . S
C221 H198 0.950 . S
C221 C220 1.395 . S
C221 C222 1.288 . S
C222 C221 1.288 . S
C222 C223 1.392 . S
C223 H199 0.951 . S
C223 C222 1.392 . S
C223 C224 1.392 . S
C224 H200 0.949 . S
C224 C219 1.382 . S
C224 C223 1.392 . S
C225 C226 1.376 . S
C225 C230 1.386 . S
C225 C231 1.483 . S
C226 H201 0.949 . S
C226 C225 1.376 . S
C226 C227 1.397 . S
C227 H202 0.950 . S
C227 C226 1.397 . S
C227 C228 1.391 . S
C228 C227 1.391 . S
C228 C229 1.405 . S
C229 H203 0.950 . S
C229 C228 1.405 . S
C229 C230 1.367 . S
C230 H204 0.950 . S
C230 C225 1.386 . S
C230 C229 1.367 . S
C231 C225 1.483 . S
C231 C232 1.382 1_655 S
C231 C233 1.403 . S
C232 H205 0.950 . S
C232 C218 1.411 . S
C232 C231 1.382 1_455 S
C233 C217 1.411 . S
C233 C231 1.403 . S
C233 C234 1.489 . S
C234 C233 1.489 . S
C234 C235 1.383 . S
C234 C239 1.382 . S
C235 H206 0.950 . S
C235 C234 1.383 . S
C235 C236 1.395 . S
C236 H207 0.950 . S
C236 C235 1.395 . S
C236 C237 1.288 . S
C237 C236 1.288 . S
C237 C238 1.392 . S
C238 H208 0.951 . S
C238 C237 1.392 . S
C238 C239 1.392 . S
C239 H209 0.949 . S
C239 C234 1.382 . S
C239 C238 1.392 . S
H240 C259 0.949 . S
H241 C260 0.950 . S
H242 C262 0.950 . S
H243 C263 0.950 . S
H244 C265 0.950 . S
H245 C268 0.950 . S
H246 C269 0.950 . S
H247 C271 0.951 . S
H248 C272 0.949 . S
H249 C274 0.949 . S
H250 C275 0.950 . S
H251 C277 0.950 . S
H252 C278 0.950 . S
H253 C280 0.950 . S
H254 C283 0.950 . S
H255 C284 0.950 . S
H256 C286 0.951 . S
H257 C287 0.949 . S
C258 C259 1.376 . S
C258 C263 1.386 . S
C258 C264 1.483 . S
C259 H240 0.949 . S
C259 C258 1.376 . S
C259 C260 1.397 . S
C260 H241 0.950 . S
C260 C259 1.397 . S
C260 C261 1.391 . S
C261 C260 1.391 . S
C261 C262 1.405 . S
C262 H242 0.950 . S
C262 C261 1.405 . S
C262 C263 1.367 . S
C263 H243 0.950 . S
C263 C258 1.386 . S
C263 C262 1.367 . S
C264 C258 1.483 . S
C264 C265 1.382 . S
C264 C266 1.403 . S
C265 H244 0.950 . S
C265 C264 1.382 . S
C265 C281 1.411 . S
C266 C264 1.403 . S
C266 C267 1.489 . S
C266 C280 1.411 . S
C267 C266 1.489 . S
C267 C268 1.383 . S
C267 C272 1.382 . S
C268 H245 0.950 . S
C268 C267 1.383 . S
C268 C269 1.395 . S
C269 H246 0.950 . S
C269 C268 1.395 . S
C269 C270 1.288 . S
C270 C269 1.288 . S
C270 C271 1.392 . S
C271 H247 0.951 . S
C271 C270 1.392 . S
C271 C272 1.392 . S
C272 H248 0.949 . S
C272 C267 1.382 . S
C272 C271 1.392 . S
C273 C274 1.376 . S
C273 C278 1.386 . S
C273 C279 1.483 . S
C274 H249 0.949 . S
C274 C273 1.376 . S
C274 C275 1.397 . S
C275 H250 0.950 . S
C275 C274 1.397 . S
C275 C276 1.391 . S
C276 C275 1.391 . S
C276 C277 1.405 . S
C277 H251 0.950 . S
C277 C276 1.405 . S
C277 C278 1.367 . S
C278 H252 0.950 . S
C278 C273 1.386 . S
C278 C277 1.367 . S
C279 C273 1.483 . S
C279 C280 1.382 . S
C279 C281 1.403 . S
C280 H253 0.950 . S
C280 C266 1.411 . S
C280 C279 1.382 . S
C281 C265 1.411 . S
C281 C279 1.403 . S
C281 C282 1.489 . S
C282 C281 1.489 . S
C282 C283 1.383 . S
C282 C287 1.382 . S
C283 H254 0.950 . S
C283 C282 1.383 . S
C283 C284 1.395 . S
C284 H255 0.950 . S
C284 C283 1.395 . S
C284 C285 1.288 . S
C285 C284 1.288 . S
C285 C286 1.392 . S
C286 H256 0.951 . S
C286 C285 1.392 . S
C286 C287 1.392 . S
C287 H257 0.949 . S
C287 C282 1.382 . S
C287 C286 1.392 . S
H288 C307 0.949 . S
H289 C308 0.950 . S
H290 C310 0.950 . S
H291 C311 0.950 . S
H292 C313 0.950 . S
H293 C316 0.950 . S
H294 C317 0.950 . S
H295 C319 0.951 . S
H296 C320 0.949 1_545 S
H297 C322 0.949 . S
H298 C323 0.950 . S
H299 C325 0.950 . S
H300 C326 0.950 . S
H301 C328 0.950 . S
H302 C331 0.950 . S
H303 C332 0.950 . S
H304 C334 0.951 . S
H305 C335 0.949 1_565 S
C306 C307 1.376 . S
C306 C311 1.386 . S
C306 C312 1.483 . S
C307 H288 0.949 . S
C307 C306 1.376 . S
C307 C308 1.397 . S
C308 H289 0.950 . S
C308 C307 1.397 . S
C308 C309 1.391 . S
C309 C308 1.391 . S
C309 C310 1.405 . S
C310 H290 0.950 . S
C310 C309 1.405 . S
C310 C311 1.367 . S
C311 H291 0.950 . S
C311 C306 1.386 . S
C311 C310 1.367 . S
C312 C306 1.483 . S
C312 C313 1.382 . S
C312 C314 1.403 . S
C313 H292 0.950 . S
C313 C312 1.382 . S
C313 C329 1.411 1_565 S
C314 C312 1.403 . S
C314 C315 1.489 . S
C314 C328 1.411 1_565 S
C315 C314 1.489 . S
C315 C316 1.383 . S
C315 C320 1.382 . S
C316 H293 0.950 . S
C316 C315 1.383 . S
C316 C317 1.395 . S
C317 H294 0.950 . S
C317 C316 1.395 . S
C317 C318 1.288 . S
C318 C317 1.288 . S
C318 C319 1.392 . S
C319 H295 0.951 . S
C319 C318 1.392 . S
C319 C320 1.392 . S
C320 H296 0.949 1_565 S
C320 C315 1.382 . S
C320 C319 1.392 . S
C321 C322 1.376 . S
C321 C326 1.386 . S
C321 C327 1.483 . S
C322 H297 0.949 . S
C322 C321 1.376 . S
C322 C323 1.397 . S
C323 H298 0.950 . S
C323 C322 1.397 . S
C323 C324 1.391 . S
C324 C323 1.391 . S
C324 C325 1.405 . S
C325 H299 0.950 . S
C325 C324 1.405 . S
C325 C326 1.367 . S
C326 H300 0.950 . S
C326 C321 1.386 . S
C326 C325 1.367 . S
C327 C321 1.483 . S
C327 C328 1.382 . S
C327 C329 1.403 . S
C328 H301 0.950 . S
C328 C314 1.411 1_545 S
C328 C327 1.382 . S
C329 C313 1.411 1_545 S
C329 C327 1.403 . S
C329 C330 1.489 . S
C330 C329 1.489 . S
C330 C331 1.383 . S
C330 C335 1.382 . S
C331 H302 0.950 . S
C331 C330 1.383 . S
C331 C332 1.395 . S
C332 H303 0.950 . S
C332 C331 1.395 . S
C332 C333 1.288 . S
C333 C332 1.288 . S
C333 C334 1.392 . S
C334 H304 0.951 . S
C334 C333 1.392 . S
C334 C335 1.392 . S
C335 H305 0.949 1_545 S
C335 C330 1.382 . S
C335 C334 1.392 . S
H336 C355 0.949 1_455 S
H337 C356 0.950 . S
H338 C358 0.950 . S
H339 C359 0.950 . S
H340 C361 0.950 . S
H341 C364 0.950 . S
H342 C365 0.950 . S
H343 C367 0.951 . S
H344 C368 0.949 . S
H345 C370 0.939 1_655 S
H346 C371 0.950 . S
H347 C373 0.950 . S
H348 C374 0.950 . S
H349 C376 0.947 1_565 S
H350 C379 0.950 . S
H351 C380 0.950 . S
H352 C382 0.951 . S
H353 C383 0.949 . S
C354 C355 1.376 . S
C354 C359 1.386 . S
C354 C360 1.483 . S
C355 H336 0.949 1_655 S
C355 C354 1.376 . S
C355 C356 1.397 . S
C356 H337 0.950 . S
C356 C355 1.397 . S
C356 C357 1.391 . S
C357 C356 1.391 . S
C357 C358 1.405 . S
C358 H338 0.950 . S
C358 C357 1.405 . S
C358 C359 1.367 . S
C359 H339 0.950 . S
C359 C354 1.386 . S
C359 C358 1.367 . S
C360 C354 1.483 . S
C360 C361 1.382 1_655 S
C360 C362 1.403 . S
C361 H340 0.950 . S
C361 C360 1.382 1_455 S
C361 C377 1.411 1_545 S
C362 C360 1.403 . S
C362 C363 1.489 . S
C362 C376 1.434 . S
C363 C362 1.489 . S
C363 C364 1.383 . S
C363 C368 1.382 . S
C364 H341 0.950 . S
C364 C363 1.383 . S
C364 C365 1.395 . S
C365 H342 0.950 . S
C365 C364 1.395 . S
C365 C366 1.288 . S
C366 C365 1.288 . S
C366 C367 1.392 . S
C367 H343 0.951 . S
C367 C366 1.392 . S
C367 C368 1.392 . S
C368 H344 0.949 . S
C368 C363 1.382 . S
C368 C367 1.392 . S
C369 C370 1.376 . S
C369 C374 1.386 . S
C369 C375 1.483 . S
C370 H345 0.939 1_455 S
C370 C369 1.376 . S
C370 C371 1.397 . S
C371 H346 0.950 . S
C371 C370 1.397 . S
C371 C372 1.391 . S
C372 C371 1.391 . S
C372 C373 1.405 . S
C373 H347 0.950 . S
C373 C372 1.405 . S
C373 C374 1.367 . S
C374 H348 0.950 . S
C374 C369 1.386 . S
C374 C373 1.367 . S
C375 C369 1.483 . S
C375 C376 1.363 1_465 S
C375 C377 1.403 . S
C376 H349 0.947 1_545 S
C376 C362 1.434 . S
C376 C375 1.363 1_645 S
C377 C361 1.411 1_565 S
C377 C375 1.403 . S
C377 C378 1.489 . S
C378 C377 1.489 . S
C378 C379 1.383 . S
C378 C383 1.382 . S
C379 H350 0.950 . S
C379 C378 1.383 . S
C379 C380 1.395 . S
C380 H351 0.950 . S
C380 C379 1.395 . S
C380 C381 1.288 . S
C381 C380 1.288 . S
C381 C382 1.392 . S
C382 H352 0.951 . S
C382 C381 1.392 . S
C382 C383 1.392 . S
C383 H353 0.949 . S
C383 C378 1.382 . S
C383 C382 1.392 . S
Mn384 O389 2.095 1_554 S
Mn384 O399 2.162 . S
Mn384 O400 2.297 . S
Mn384 O408 2.385 . S
Mn384 O409 2.209 . S
Mn384 O410 2.094 1_554 S
Mn385 O390 2.121 . S
Mn385 N392 2.257 1_556 S
Mn385 N401 2.282 1_556 S
Mn385 O409 2.215 1_556 S
Mn385 O411 2.117 . S
C386 O408 1.234 . S
C386 O409 1.283 . S
C387 O399 1.281 . S
C387 O400 1.236 . S
C388 O410 1.240 . S
C388 O411 1.264 . S
O389 Mn384 2.095 1_556 S
O389 C398 1.250 . S
O390 Mn385 2.121 . S
O390 C398 1.258 . S
C391 N392 1.326 1_556 S
C391 C395 1.460 1_556 S
C391 H397 0.929 . S
N392 Mn385 2.257 1_554 S
N392 C391 1.326 1_554 S
N392 C396 1.362 . S
C393 C394 1.258 . S
C393 C396 1.431 . S
C393 C413 1.449 . S
C394 C393 1.258 . S
C394 C395 1.477 . S
C394 H414 0.931 . S
C395 C391 1.460 1_554 S
C395 C394 1.477 . S
C395 H415 0.930 1_554 S
C396 N392 1.362 . S
C396 C393 1.431 . S
C396 C406 1.476 . S
H397 C391 0.929 . S
C398 O389 1.250 . S
C398 O390 1.258 . S
O399 Mn384 2.162 . S
O399 C387 1.281 . S
O400 Mn384 2.297 . S
O400 C387 1.236 . S
N401 Mn385 2.282 1_554 S
N401 C402 1.328 . S
N401 C406 1.318 . S
C402 N401 1.328 . S
C402 C403 1.457 . S
C402 H407 0.929 . S
C403 C402 1.457 . S
C403 C404 1.291 . S
C403 H416 0.931 . S
C404 C403 1.291 . S
C404 C405 1.373 . S
C404 H417 0.929 . S
C405 C404 1.373 . S
C405 C406 1.396 . S
C405 C412 1.403 . S
C406 C396 1.476 . S
C406 N401 1.318 . S
C406 C405 1.396 . S
H407 C402 0.929 . S
O408 Mn384 2.385 . S
O408 C386 1.234 . S
O409 Mn384 2.209 . S
O409 Mn385 2.215 1_554 S
O409 C386 1.283 . S
O410 Mn384 2.094 1_556 S
O410 C388 1.240 . S
O411 Mn385 2.117 . S
O411 C388 1.264 . S
C412 C405 1.403 . S
C412 C413 1.399 . S
C412 H418 0.929 . S
C413 C393 1.449 . S
C413 C412 1.399 . S
C413 H419 0.930 . S
H414 C394 0.931 . S
H415 C395 0.930 1_556 S
H416 C403 0.931 . S
H417 C404 0.929 . S
H418 C412 0.929 . S
H419 C413 0.930 . S
Mn420 O425 2.095 . S
Mn420 O435 2.162 . S
Mn420 O436 2.297 . S
Mn420 O444 2.385 . S
Mn420 O445 2.209 . S
Mn420 O446 2.094 . S
Mn421 O426 2.121 . S
Mn421 N428 2.257 . S
Mn421 N437 2.282 . S
Mn421 O445 2.215 . S
Mn421 O447 2.117 . S
C422 O444 1.234 . S
C422 O445 1.283 . S
C423 O435 1.281 . S
C423 O436 1.236 . S
C424 O446 1.240 . S
C424 O447 1.264 . S
O425 Mn420 2.095 . S
O425 C434 1.250 . S
O426 Mn421 2.121 . S
O426 C434 1.258 . S
C427 N428 1.326 . S
C427 C431 1.460 . S
C427 H433 0.929 . S
N428 Mn421 2.257 . S
N428 C427 1.326 . S
N428 C432 1.362 . S
C429 C430 1.258 . S
C429 C432 1.431 . S
C429 C449 1.449 . S
C430 C429 1.258 . S
C430 C431 1.477 . S
C430 H450 0.931 . S
C431 C427 1.460 . S
C431 C430 1.477 . S
C431 H451 0.930 . S
C432 N428 1.362 . S
C432 C429 1.431 . S
C432 C442 1.476 . S
H433 C427 0.929 . S
C434 O425 1.250 . S
C434 O426 1.258 . S
O435 Mn420 2.162 . S
O435 C423 1.281 . S
O436 Mn420 2.297 . S
O436 C423 1.236 . S
N437 Mn421 2.282 . S
N437 C438 1.328 . S
N437 C442 1.318 . S
C438 N437 1.328 . S
C438 C439 1.457 . S
C438 H443 0.929 . S
C439 C438 1.457 . S
C439 C440 1.291 . S
C439 H452 0.931 . S
C440 C439 1.291 . S
C440 C441 1.373 . S
C440 H453 0.929 . S
C441 C440 1.373 . S
C441 C442 1.396 . S
C441 C448 1.403 . S
C442 C432 1.476 . S
C442 N437 1.318 . S
C442 C441 1.396 . S
H443 C438 0.929 . S
O444 Mn420 2.385 . S
O444 C422 1.234 . S
O445 Mn420 2.209 . S
O445 Mn421 2.215 . S
O445 C422 1.283 . S
O446 Mn420 2.094 . S
O446 C424 1.240 . S
O447 Mn421 2.117 . S
O447 C424 1.264 . S
C448 C441 1.403 . S
C448 C449 1.399 . S
C448 H454 0.929 . S
C449 C429 1.449 . S
C449 C448 1.399 . S
C449 H455 0.930 . S
H450 C430 0.931 . S
H451 C431 0.930 . S
H452 C439 0.931 . S
H453 C440 0.929 . S
H454 C448 0.929 . S
H455 C449 0.930 . S
Mn456 O461 2.095 . S
Mn456 O471 2.162 . S
Mn456 O472 2.297 . S
Mn456 O480 2.385 . S
Mn456 O481 2.209 . S
Mn456 O482 2.094 . S
Mn457 O462 2.121 . S
Mn457 N464 2.257 . S
Mn457 N473 2.282 . S
Mn457 O481 2.215 . S
Mn457 O483 2.117 . S
C458 O480 1.234 . S
C458 O481 1.283 . S
C459 O471 1.281 . S
C459 O472 1.236 . S
C460 O482 1.240 . S
C460 O483 1.264 . S
O461 Mn456 2.095 . S
O461 C470 1.250 . S
O462 Mn457 2.121 . S
O462 C470 1.258 . S
C463 N464 1.326 . S
C463 C467 1.460 . S
C463 H469 0.929 . S
N464 Mn457 2.257 . S
N464 C463 1.326 . S
N464 C468 1.362 . S
C465 C466 1.258 . S
C465 C468 1.431 . S
C465 C485 1.456 . S
C466 C465 1.258 . S
C466 C467 1.477 . S
C466 H486 0.931 1_455 S
C467 C463 1.460 . S
C467 C466 1.477 . S
C467 H487 0.930 . S
C468 N464 1.362 . S
C468 C465 1.431 . S
C468 C478 1.476 . S
H469 C463 0.929 . S
C470 O461 1.250 . S
C470 O462 1.258 . S
O471 Mn456 2.162 . S
O471 C459 1.281 . S
O472 Mn456 2.297 . S
O472 C459 1.236 . S
N473 Mn457 2.282 . S
N473 C474 1.328 . S
N473 C478 1.318 . S
C474 N473 1.328 . S
C474 C475 1.457 . S
C474 H479 0.929 . S
C475 C474 1.457 . S
C475 C476 1.291 . S
C475 H488 0.931 . S
C476 C475 1.291 . S
C476 C477 1.373 . S
C476 H489 0.929 . S
C477 C476 1.373 . S
C477 C478 1.396 . S
C477 C484 1.403 . S
C478 C468 1.476 . S
C478 N473 1.318 . S
C478 C477 1.396 . S
H479 C474 0.929 . S
O480 Mn456 2.385 . S
O480 C458 1.234 . S
O481 Mn456 2.209 . S
O481 Mn457 2.215 . S
O481 C458 1.283 . S
O482 Mn456 2.094 . S
O482 C460 1.240 . S
O483 Mn457 2.117 . S
O483 C460 1.264 . S
C484 C477 1.403 . S
C484 C485 1.402 . S
C484 H490 0.929 1_455 S
C485 C465 1.456 . S
C485 C484 1.402 . S
C485 H491 0.921 1_455 S
H486 C466 0.931 1_655 S
H487 C467 0.930 . S
H488 C475 0.931 . S
H489 C476 0.929 . S
H490 C484 0.929 1_655 S
H491 C485 0.921 1_655 S
Mn492 O497 2.095 . S
Mn492 O507 2.162 . S
Mn492 O508 2.297 . S
Mn492 O516 2.385 . S
Mn492 O517 2.209 . S
Mn492 O518 2.094 . S
Mn493 O498 2.121 . S
Mn493 N500 2.257 . S
Mn493 N509 2.282 . S
Mn493 O517 2.215 . S
Mn493 O519 2.117 . S
C494 O516 1.234 . S
C494 O517 1.283 . S
C495 O507 1.281 . S
C495 O508 1.236 . S
C496 O518 1.240 . S
C496 O519 1.264 . S
O497 Mn492 2.095 . S
O497 C506 1.250 . S
O498 Mn493 2.121 . S
O498 C506 1.258 . S
C499 N500 1.326 . S
C499 C503 1.460 . S
C499 H505 0.929 . S
N500 Mn493 2.257 . S
N500 C499 1.326 . S
N500 C504 1.362 . S
C501 C502 1.258 . S
C501 C504 1.431 . S
C501 C521 1.449 . S
C502 C501 1.258 . S
C502 C503 1.477 . S
C502 H522 0.931 . S
C503 C499 1.460 . S
C503 C502 1.477 . S
C503 H523 0.930 . S
C504 N500 1.362 . S
C504 C501 1.431 . S
C504 C514 1.476 . S
H505 C499 0.929 . S
C506 O497 1.250 . S
C506 O498 1.258 . S
O507 Mn492 2.162 . S
O507 C495 1.281 . S
O508 Mn492 2.297 . S
O508 C495 1.236 . S
N509 Mn493 2.282 . S
N509 C510 1.328 . S
N509 C514 1.318 . S
C510 N509 1.328 . S
C510 C511 1.457 . S
C510 H515 0.929 . S
C511 C510 1.457 . S
C511 C512 1.291 . S
C511 H524 0.931 . S
C512 C511 1.291 . S
C512 C513 1.373 . S
C512 H525 0.929 . S
C513 C512 1.373 . S
C513 C514 1.396 . S
C513 C520 1.403 . S
C514 C504 1.476 . S
C514 N509 1.318 . S
C514 C513 1.396 . S
H515 C510 0.929 . S
O516 Mn492 2.385 . S
O516 C494 1.234 . S
O517 Mn492 2.209 . S
O517 Mn493 2.215 . S
O517 C494 1.283 . S
O518 Mn492 2.094 . S
O518 C496 1.240 . S
O519 Mn493 2.117 . S
O519 C496 1.264 . S
C520 C513 1.403 . S
C520 C521 1.399 . S
C520 H526 0.929 . S
C521 C501 1.449 . S
C521 C520 1.399 . S
C521 H527 0.930 . S
H522 C502 0.931 . S
H523 C503 0.930 . S
H524 C511 0.931 . S
H525 C512 0.929 . S
H526 C520 0.929 . S
H527 C521 0.930 . S
Mn528 O533 2.095 . S
Mn528 O543 2.162 . S
Mn528 O544 2.297 . S
Mn528 O552 2.385 . S
Mn528 O553 2.209 . S
Mn528 O554 2.094 . S
Mn529 O534 2.121 . S
Mn529 N536 2.257 . S
Mn529 N545 2.282 . S
Mn529 O553 2.215 . S
Mn529 O555 2.117 . S
C530 O552 1.234 . S
C530 O553 1.283 . S
C531 O543 1.281 . S
C531 O544 1.236 . S
C532 O554 1.240 . S
C532 O555 1.264 . S
O533 Mn528 2.095 . S
O533 C542 1.250 . S
O534 Mn529 2.121 . S
O534 C542 1.258 . S
C535 N536 1.326 . S
C535 C539 1.460 . S
C535 H541 0.929 . S
N536 Mn529 2.257 . S
N536 C535 1.326 . S
N536 C540 1.362 . S
C537 C538 1.258 . S
C537 C540 1.431 . S
C537 C557 1.449 . S
C538 C537 1.258 . S
C538 C539 1.477 . S
C538 H558 0.931 1_545 S
C539 C535 1.460 . S
C539 C538 1.477 . S
C539 H559 0.930 . S
C540 N536 1.362 . S
C540 C537 1.431 . S
C540 C550 1.476 . S
H541 C535 0.929 . S
C542 O533 1.250 . S
C542 O534 1.258 . S
O543 Mn528 2.162 . S
O543 C531 1.281 . S
O544 Mn528 2.297 . S
O544 C531 1.236 . S
N545 Mn529 2.282 . S
N545 C546 1.328 . S
N545 C550 1.318 . S
C546 N545 1.328 . S
C546 C547 1.457 . S
C546 H551 0.929 . S
C547 C546 1.457 . S
C547 C548 1.291 . S
C547 H560 0.931 . S
C548 C547 1.291 . S
C548 C549 1.373 . S
C548 H561 0.929 . S
C549 C548 1.373 . S
C549 C550 1.396 . S
C549 C556 1.403 . S
C550 C540 1.476 . S
C550 N545 1.318 . S
C550 C549 1.396 . S
H551 C546 0.929 . S
O552 Mn528 2.385 . S
O552 C530 1.234 . S
O553 Mn528 2.209 . S
O553 Mn529 2.215 . S
O553 C530 1.283 . S
O554 Mn528 2.094 . S
O554 C532 1.240 . S
O555 Mn529 2.117 . S
O555 C532 1.264 . S
C556 C549 1.403 . S
C556 C557 1.399 . S
C556 H562 0.929 1_545 S
C557 C537 1.449 . S
C557 C556 1.399 . S
C557 H563 0.930 1_545 S
H558 C538 0.931 1_565 S
H559 C539 0.930 . S
H560 C547 0.931 . S
H561 C548 0.929 . S
H562 C556 0.929 1_565 S
H563 C557 0.930 1_565 S
Mn564 O569 2.095 . S
Mn564 O579 2.162 . S
Mn564 O580 2.297 . S
Mn564 O588 2.385 . S
Mn564 O589 2.209 . S
Mn564 O590 2.094 . S
Mn565 O570 2.121 . S
Mn565 N572 2.257 . S
Mn565 N581 2.282 . S
Mn565 O589 2.215 . S
Mn565 O591 2.117 . S
C566 O588 1.234 . S
C566 O589 1.283 . S
C567 O579 1.281 . S
C567 O580 1.236 . S
C568 O590 1.240 . S
C568 O591 1.264 . S
O569 Mn564 2.095 . S
O569 C578 1.250 . S
O570 Mn565 2.121 . S
O570 C578 1.258 . S
C571 N572 1.326 . S
C571 C575 1.460 . S
C571 H577 0.929 . S
N572 Mn565 2.257 . S
N572 C571 1.326 . S
N572 C576 1.362 . S
C573 C574 1.258 . S
C573 C576 1.431 . S
C573 C593 1.449 1_655 S
C574 C573 1.258 . S
C574 C575 1.477 . S
C574 H594 0.931 1_655 S
C575 C571 1.460 . S
C575 C574 1.477 . S
C575 H595 0.930 . S
C576 N572 1.362 . S
C576 C573 1.431 . S
C576 C586 1.476 . S
H577 C571 0.929 . S
C578 O569 1.250 . S
C578 O570 1.258 . S
O579 Mn564 2.162 . S
O579 C567 1.281 . S
O580 Mn564 2.297 . S
O580 C567 1.236 . S
N581 Mn565 2.282 . S
N581 C582 1.328 . S
N581 C586 1.318 . S
C582 N581 1.328 . S
C582 C583 1.457 . S
C582 H587 0.929 . S
C583 C582 1.457 . S
C583 C584 1.291 . S
C583 H596 0.931 . S
C584 C583 1.291 . S
C584 C585 1.373 . S
C584 H597 0.929 . S
C585 C584 1.373 . S
C585 C586 1.396 . S
C585 C592 1.403 . S
C586 C576 1.476 . S
C586 N581 1.318 . S
C586 C585 1.396 . S
H587 C582 0.929 . S
O588 Mn564 2.385 . S
O588 C566 1.234 . S
O589 Mn564 2.209 . S
O589 Mn565 2.215 . S
O589 C566 1.283 . S
O590 Mn564 2.094 . S
O590 C568 1.240 . S
O591 Mn565 2.117 . S
O591 C568 1.264 . S
C592 C585 1.403 . S
C592 C593 1.399 1_655 S
C592 H598 0.929 1_655 S
C593 C573 1.449 1_455 S
C593 C592 1.399 1_455 S
C593 H599 0.930 . S
H594 C574 0.931 1_455 S
H595 C575 0.930 . S
H596 C583 0.931 . S
H597 C584 0.929 . S
H598 C592 0.929 1_455 S
H599 C593 0.930 . S
Mn600 O605 2.095 . S
Mn600 O615 2.161 1_554 S
Mn600 O616 2.297 1_554 S
Mn600 O624 2.385 1_554 S
Mn600 O625 2.209 1_554 S
Mn600 O626 2.094 . S
Mn601 O606 2.121 . S
Mn601 N608 2.257 1_554 S
Mn601 N617 2.282 1_554 S
Mn601 O625 2.215 1_554 S
Mn601 O627 2.117 . S
C602 O624 1.234 . S
C602 O625 1.283 . S
C603 O615 1.281 . S
C603 O616 1.236 . S
C604 O626 1.240 . S
C604 O627 1.264 . S
O605 Mn600 2.095 . S
O605 C614 1.250 . S
O606 Mn601 2.121 . S
O606 C614 1.258 . S
C607 N608 1.326 1_554 S
C607 C611 1.466 . S
C607 H613 0.929 . S
N608 Mn601 2.257 1_556 S
N608 C607 1.326 1_556 S
N608 C612 1.362 . S
C609 C610 1.258 . S
C609 C612 1.431 . S
C609 C629 1.449 . S
C610 C609 1.258 . S
C610 C611 1.461 1_556 S
C610 H630 0.931 . S
C611 C607 1.466 . S
C611 C610 1.461 1_554 S
C611 H631 0.940 . S
C612 N608 1.362 . S
C612 C609 1.431 . S
C612 C622 1.476 . S
H613 C607 0.929 . S
C614 O605 1.250 . S
C614 O606 1.258 . S
O615 Mn600 2.161 1_556 S
O615 C603 1.281 . S
O616 Mn600 2.297 1_556 S
O616 C603 1.236 . S
N617 Mn601 2.282 1_556 S
N617 C618 1.328 . S
N617 C622 1.318 . S
C618 N617 1.328 . S
C618 C619 1.457 . S
C618 H623 0.929 . S
C619 C618 1.457 . S
C619 C620 1.291 . S
C619 H632 0.931 . S
C620 C619 1.291 . S
C620 C621 1.373 . S
C620 H633 0.929 . S
C621 C620 1.373 . S
C621 C622 1.396 . S
C621 C628 1.403 . S
C622 C612 1.476 . S
C622 N617 1.318 . S
C622 C621 1.396 . S
H623 C618 0.929 . S
O624 Mn600 2.385 1_556 S
O624 C602 1.234 . S
O625 Mn600 2.209 1_556 S
O625 Mn601 2.215 1_556 S
O625 C602 1.283 . S
O626 Mn600 2.094 . S
O626 C604 1.240 . S
O627 Mn601 2.117 . S
O627 C604 1.264 . S
C628 C621 1.403 . S
C628 C629 1.399 . S
C628 H634 0.929 . S
C629 C609 1.449 . S
C629 C628 1.399 . S
C629 H635 0.930 . S
H630 C610 0.931 . S
H631 C611 0.940 . S
H632 C619 0.931 . S
H633 C620 0.929 . S
H634 C628 0.929 . S
H635 C629 0.930 . S
Mn636 O641 2.095 . S
Mn636 O651 2.162 . S
Mn636 O652 2.297 . S
Mn636 O660 2.385 . S
Mn636 O661 2.209 . S
Mn636 O662 2.094 . S
Mn637 O642 2.121 . S
Mn637 N644 2.257 . S
Mn637 N653 2.282 . S
Mn637 O661 2.215 . S
Mn637 O663 2.117 . S
C638 O660 1.234 . S
C638 O661 1.283 . S
C639 O651 1.281 . S
C639 O652 1.236 . S
C640 O662 1.240 . S
C640 O663 1.264 . S
O641 Mn636 2.095 . S
O641 C650 1.250 . S
O642 Mn637 2.121 . S
O642 C650 1.258 . S
C643 N644 1.326 . S
C643 C647 1.460 . S
C643 H649 0.929 . S
N644 Mn637 2.257 . S
N644 C643 1.326 . S
N644 C648 1.362 . S
C645 C646 1.258 . S
C645 C648 1.431 . S
C645 C665 1.449 . S
C646 C645 1.258 . S
C646 C647 1.477 . S
C646 H666 0.918 1_545 S
C647 C643 1.460 . S
C647 C646 1.477 . S
C647 H667 0.930 . S
C648 N644 1.362 . S
C648 C645 1.431 . S
C648 C658 1.476 . S
H649 C643 0.929 . S
C650 O641 1.250 . S
C650 O642 1.258 . S
O651 Mn636 2.162 . S
O651 C639 1.281 . S
O652 Mn636 2.297 . S
O652 C639 1.236 . S
N653 Mn637 2.282 . S
N653 C654 1.328 . S
N653 C658 1.318 . S
C654 N653 1.328 . S
C654 C655 1.457 . S
C654 H659 0.929 . S
C655 C654 1.457 . S
C655 C656 1.291 . S
C655 H668 0.931 . S
C656 C655 1.291 . S
C656 C657 1.373 . S
C656 H669 0.929 . S
C657 C656 1.373 . S
C657 C658 1.396 . S
C657 C664 1.403 . S
C658 C648 1.476 . S
C658 N653 1.318 . S
C658 C657 1.396 . S
H659 C654 0.929 . S
O660 Mn636 2.385 . S
O660 C638 1.234 . S
O661 Mn636 2.209 . S
O661 Mn637 2.215 . S
O661 C638 1.283 . S
O662 Mn636 2.094 . S
O662 C640 1.240 . S
O663 Mn637 2.117 . S
O663 C640 1.264 . S
C664 C657 1.403 . S
C664 C665 1.399 . S
C664 H670 0.929 1_545 S
C665 C645 1.449 . S
C665 C664 1.399 . S
C665 H671 0.930 1_545 S
H666 C646 0.918 1_565 S
H667 C647 0.930 . S
H668 C655 0.931 . S
H669 C656 0.929 . S
H670 C664 0.929 1_565 S
H671 C665 0.930 1_565 S
C672 C673 1.387 . S
C672 H676 0.950 . S
C672 C681 1.390 . S
C673 C672 1.387 . S
C673 C675 1.387 . S
H674 C681 0.950 . S
C675 C673 1.387 . S
C675 C677 1.390 . S
C675 H679 0.950 . S
H676 C672 0.950 . S
C677 C675 1.390 . S
C677 C678 1.387 . S
C677 H680 0.950 . S
C678 C677 1.387 . S
C678 C681 1.387 . S
H679 C675 0.950 . S
H680 C677 0.950 . S
C681 C672 1.390 . S
C681 H674 0.950 . S
C681 C678 1.387 . S
C682 C683 1.387 . S
C682 H686 0.950 . S
C682 C691 1.390 . S
C683 C682 1.387 . S
C683 C685 1.387 . S
H684 C691 0.950 . S
C685 C683 1.387 . S
C685 C687 1.390 . S
C685 H689 0.950 . S
H686 C682 0.950 . S
C687 C685 1.390 . S
C687 C688 1.387 . S
C687 H690 0.950 . S
C688 C687 1.387 . S
C688 C691 1.387 . S
H689 C685 0.950 . S
H690 C687 0.950 . S
C691 C682 1.390 . S
C691 H684 0.950 . S
C691 C688 1.387 . S
C692 C693 1.387 . S
C692 H696 0.950 . S
C692 C701 1.390 . S
C693 C692 1.387 . S
C693 C695 1.387 . S
H694 C701 0.950 . S
C695 C693 1.387 . S
C695 C697 1.390 . S
C695 H699 0.950 . S
H696 C692 0.950 . S
C697 C695 1.390 . S
C697 C698 1.387 . S
C697 H700 0.950 . S
C698 C697 1.387 . S
C698 C701 1.387 . S
H699 C695 0.950 . S
H700 C697 0.950 . S
C701 C692 1.390 . S
C701 H694 0.950 . S
C701 C698 1.387 . S
C702 C703 1.387 . S
C702 H706 0.950 . S
C702 C711 1.390 . S
C703 C702 1.387 . S
C703 C705 1.387 1_554 S
H704 C711 0.950 . S
C705 C703 1.387 1_556 S
C705 C707 1.390 . S
C705 H709 0.950 . S
H706 C702 0.950 . S
C707 C705 1.390 . S
C707 C708 1.387 1_556 S
C707 H710 0.950 . S
C708 C707 1.387 1_554 S
C708 C711 1.387 . S
H709 C705 0.950 . S
H710 C707 0.950 . S
C711 C702 1.390 . S
C711 H704 0.950 . S
C711 C708 1.387 . S
C712 C713 1.387 1_554 S
C712 H716 0.950 . S
C712 C721 1.390 . S
C713 C712 1.387 1_556 S
C713 C715 1.387 . S
H714 C721 0.950 . S
C715 C713 1.387 . S
C715 C717 1.390 . S
C715 H719 0.950 . S
H716 C712 0.950 . S
C717 C715 1.390 . S
C717 C718 1.387 . S
C717 H720 0.950 . S
C718 C717 1.387 . S
C718 C721 1.387 1_556 S
H719 C715 0.950 . S
H720 C717 0.950 . S
C721 C712 1.390 . S
C721 H714 0.950 . S
C721 C718 1.387 1_554 S
C722 C723 1.387 . S
C722 H726 0.950 . S
C722 C731 1.390 . S
C723 C722 1.387 . S
C723 C725 1.387 . S
H724 C731 0.950 . S
C725 C723 1.387 . S
C725 C727 1.390 . S
C725 H729 0.950 . S
H726 C722 0.950 . S
C727 C725 1.390 . S
C727 C728 1.387 . S
C727 H730 0.950 . S
C728 C727 1.387 . S
C728 C731 1.387 . S
H729 C725 0.950 . S
H730 C727 0.950 . S
C731 C722 1.390 . S
C731 H724 0.950 . S
C731 C728 1.387 . S
C732 C733 1.387 . S
C732 H736 0.950 . S
C732 C741 1.390 . S
C733 C732 1.387 . S
C733 C735 1.387 . S
H734 C741 0.950 . S
C735 C733 1.387 . S
C735 C737 1.390 . S
C735 H739 0.950 . S
H736 C732 0.950 . S
C737 C735 1.390 . S
C737 C738 1.387 . S
C737 H740 0.950 . S
C738 C737 1.387 . S
C738 C741 1.387 . S
H739 C735 0.950 . S
H740 C737 0.950 . S
C741 C732 1.390 . S
C741 H734 0.950 . S
C741 C738 1.387 . S
C742 C743 1.387 . S
C742 H746 0.950 . S
C742 C751 1.390 . S
C743 C742 1.387 . S
C743 C745 1.387 . S
H744 C751 0.950 . S
C745 C743 1.387 . S
C745 C747 1.390 . S
C745 H749 0.950 . S
H746 C742 0.950 . S
C747 C745 1.390 . S
C747 C748 1.387 . S
C747 H750 0.950 . S
C748 C747 1.387 . S
C748 C751 1.387 . S
H749 C745 0.950 . S
H750 C747 0.950 . S
C751 C742 1.390 . S
C751 H744 0.950 . S
C751 C748 1.387 . S
C752 C753 1.387 . S
C752 H756 0.950 . S
C752 C761 1.390 . S
C753 C752 1.387 . S
C753 C755 1.387 . S
H754 C761 0.950 . S
C755 C753 1.387 . S
C755 C757 1.390 . S
C755 H759 0.950 . S
H756 C752 0.950 . S
C757 C755 1.390 . S
C757 C758 1.387 . S
C757 H760 0.950 . S
C758 C757 1.387 . S
C758 C761 1.387 . S
H759 C755 0.950 . S
H760 C757 0.950 . S
C761 C752 1.390 . S
C761 H754 0.950 . S
C761 C758 1.387 . S
C762 C763 1.387 . S
C762 H766 0.950 . S
C762 C771 1.390 . S
C763 C762 1.387 . S
C763 C765 1.387 1_554 S
H764 C771 0.950 . S
C765 C763 1.387 1_556 S
C765 C767 1.390 . S
C765 H769 0.950 . S
H766 C762 0.950 . S
C767 C765 1.390 . S
C767 C768 1.387 1_556 S
C767 H770 0.950 . S
C768 C767 1.387 1_554 S
C768 C771 1.387 . S
H769 C765 0.950 . S
H770 C767 0.950 . S
C771 C762 1.390 . S
C771 H764 0.950 . S
C771 C768 1.387 . S
C772 C773 1.387 . S
C772 H776 0.950 . S
C772 C781 1.390 . S
C773 C772 1.387 . S
C773 C775 1.387 . S
H774 C781 0.950 . S
C775 C773 1.387 . S
C775 C777 1.390 . S
C775 H779 0.950 . S
H776 C772 0.950 . S
C777 C775 1.390 . S
C777 C778 1.387 . S
C777 H780 0.950 . S
C778 C777 1.387 . S
C778 C781 1.387 . S
H779 C775 0.950 . S
H780 C777 0.950 . S
C781 C772 1.390 . S
C781 H774 0.950 . S
C781 C778 1.387 . S
C782 C783 1.387 . S
C782 H786 0.950 . S
C782 C791 1.390 . S
C783 C782 1.387 . S
C783 C785 1.387 . S
H784 C791 0.950 . S
C785 C783 1.387 . S
C785 C787 1.390 . S
C785 H789 0.950 . S
H786 C782 0.950 . S
C787 C785 1.390 . S
C787 C788 1.387 . S
C787 H790 0.950 . S
C788 C787 1.387 . S
C788 C791 1.387 . S
H789 C785 0.950 . S
H790 C787 0.950 . S
C791 C782 1.390 . S
C791 H784 0.950 . S
C791 C788 1.387 . S
C792 C793 1.387 . S
C792 H796 0.950 . S
C792 C801 1.390 . S
C793 C792 1.387 . S
C793 C795 1.387 . S
H794 C801 0.950 . S
C795 C793 1.387 . S
C795 C797 1.390 . S
C795 H799 0.950 . S
H796 C792 0.950 . S
C797 C795 1.390 . S
C797 C798 1.387 . S
C797 H800 0.950 . S
C798 C797 1.387 . S
C798 C801 1.387 . S
H799 C795 0.950 . S
H800 C797 0.950 . S
C801 C792 1.390 . S
C801 H794 0.950 . S
C801 C798 1.387 . S
C802 C803 1.387 . S
C802 H806 0.950 . S
C802 C811 1.390 . S
C803 C802 1.387 . S
C803 C805 1.387 . S
H804 C811 0.950 . S
C805 C803 1.387 . S
C805 C807 1.390 . S
C805 H809 0.950 . S
H806 C802 0.950 . S
C807 C805 1.390 . S
C807 C808 1.387 . S
C807 H810 0.950 . S
C808 C807 1.387 . S
C808 C811 1.387 . S
H809 C805 0.950 . S
H810 C807 0.950 . S
C811 C802 1.390 . S
C811 H804 0.950 . S
C811 C808 1.387 . S
C812 C813 1.387 1_554 S
C812 H816 0.950 . S
C812 C821 1.390 . S
C813 C812 1.387 1_556 S
C813 C815 1.387 . S
H814 C821 0.950 . S
C815 C813 1.387 . S
C815 C817 1.390 . S
C815 H819 0.950 . S
H816 C812 0.950 . S
C817 C815 1.390 . S
C817 C818 1.387 . S
C817 H820 0.950 . S
C818 C817 1.387 . S
C818 C821 1.387 1_556 S
H819 C815 0.950 . S
H820 C817 0.950 . S
C821 C812 1.390 . S
C821 H814 0.950 . S
C821 C818 1.387 1_554 S
C822 C823 1.387 . S
C822 H826 0.950 . S
C822 C831 1.390 . S
C823 C822 1.387 . S
C823 C825 1.387 . S
H824 C831 0.950 . S
C825 C823 1.387 . S
C825 C827 1.390 . S
C825 H829 0.950 . S
H826 C822 0.950 . S
C827 C825 1.390 . S
C827 C828 1.387 . S
C827 H830 0.950 . S
C828 C827 1.387 . S
C828 C831 1.387 . S
H829 C825 0.950 . S
H830 C827 0.950 . S
C831 C822 1.390 . S
C831 H824 0.950 . S
C831 C828 1.387 . S
C832 C833 1.387 . S
C832 H836 0.950 . S
C832 C841 1.390 . S
C833 C832 1.387 . S
C833 C835 1.387 . S
H834 C841 0.950 . S
C835 C833 1.387 . S
C835 C837 1.390 . S
C835 H839 0.950 . S
H836 C832 0.950 . S
C837 C835 1.390 . S
C837 C838 1.387 . S
C837 H840 0.950 . S
C838 C837 1.387 . S
C838 C841 1.387 . S
H839 C835 0.950 . S
H840 C837 0.950 . S
C841 C832 1.390 . S
C841 H834 0.950 . S
C841 C838 1.387 . S
C842 C843 1.387 . S
C842 H846 0.950 . S
C842 C851 1.390 . S
C843 C842 1.387 . S
C843 C845 1.387 . S
H844 C851 0.950 . S
C845 C843 1.387 . S
C845 C847 1.390 . S
C845 H849 0.950 . S
H846 C842 0.950 . S
C847 C845 1.390 . S
C847 C848 1.387 . S
C847 H850 0.950 . S
C848 C847 1.387 . S
C848 C851 1.387 . S
H849 C845 0.950 . S
H850 C847 0.950 . S
C851 C842 1.390 . S
C851 H844 0.950 . S
C851 C848 1.387 . S
C852 C853 1.387 . S
C852 H856 0.950 . S
C852 C861 1.390 . S
C853 C852 1.387 . S
C853 C855 1.387 . S
H854 C861 0.950 . S
C855 C853 1.387 . S
C855 C857 1.390 . S
C855 H859 0.950 . S
H856 C852 0.950 . S
C857 C855 1.390 . S
C857 C858 1.387 . S
C857 H860 0.950 . S
C858 C857 1.387 . S
C858 C861 1.387 . S
H859 C855 0.950 . S
H860 C857 0.950 . S
C861 C852 1.390 . S
C861 H854 0.950 . S
C861 C858 1.387 . S
C862 C863 1.387 . S
C862 H866 0.950 . S
C862 C871 1.390 . S
C863 C862 1.387 . S
C863 C865 1.387 . S
H864 C871 0.950 . S
C865 C863 1.387 . S
C865 C867 1.390 . S
C865 H869 0.950 . S
H866 C862 0.950 . S
C867 C865 1.390 . S
C867 C868 1.387 . S
C867 H870 0.950 . S
C868 C867 1.387 . S
C868 C871 1.387 . S
H869 C865 0.950 . S
H870 C867 0.950 . S
C871 C862 1.390 . S
C871 H864 0.950 . S
C871 C868 1.387 . S
C872 C873 1.387 . S
C872 H876 0.950 . S
C872 C881 1.390 . S
C873 C872 1.387 . S
C873 C875 1.387 . S
H874 C881 0.950 . S
C875 C873 1.387 . S
C875 C877 1.390 . S
C875 H879 0.950 . S
H876 C872 0.950 . S
C877 C875 1.390 . S
C877 C878 1.387 . S
C877 H880 0.950 . S
C878 C877 1.387 . S
C878 C881 1.387 . S
H879 C875 0.950 . S
H880 C877 0.950 . S
C881 C872 1.390 . S
C881 H874 0.950 . S
C881 C878 1.387 . S
C882 C883 1.387 . S
C882 H886 0.950 . S
C882 C891 1.390 . S
C883 C882 1.387 . S
C883 C885 1.387 . S
H884 C891 0.950 . S
C885 C883 1.387 . S
C885 C887 1.390 . S
C885 H889 0.950 . S
H886 C882 0.950 . S
C887 C885 1.390 . S
C887 C888 1.387 . S
C887 H890 0.950 . S
C888 C887 1.387 . S
C888 C891 1.387 . S
H889 C885 0.950 . S
H890 C887 0.950 . S
C891 C882 1.390 . S
C891 H884 0.950 . S
C891 C888 1.387 . S
C892 C893 1.387 . S
C892 H896 0.950 . S
C892 C901 1.390 . S
C893 C892 1.387 . S
C893 C895 1.387 . S
H894 C901 0.950 . S
C895 C893 1.387 . S
C895 C897 1.390 . S
C895 H899 0.950 . S
H896 C892 0.950 . S
C897 C895 1.390 . S
C897 C898 1.387 . S
C897 H900 0.950 . S
C898 C897 1.387 . S
C898 C901 1.387 . S
H899 C895 0.950 . S
H900 C897 0.950 . S
C901 C892 1.390 . S
C901 H894 0.950 . S
C901 C898 1.387 . S
C902 C903 1.387 . S
C902 H906 0.950 . S
C902 C911 1.390 . S
C903 C902 1.387 . S
C903 C905 1.387 . S
H904 C911 0.950 . S
C905 C903 1.387 . S
C905 C907 1.390 . S
C905 H909 0.950 . S
H906 C902 0.950 . S
C907 C905 1.390 . S
C907 C908 1.387 . S
C907 H910 0.950 . S
C908 C907 1.387 . S
C908 C911 1.387 . S
H909 C905 0.950 . S
H910 C907 0.950 . S
C911 C902 1.390 . S
C911 H904 0.950 . S
C911 C908 1.387 . S
C912 C913 1.387 . S
C912 H916 0.950 . S
C912 C921 1.390 . S
C913 C912 1.387 . S
C913 C915 1.387 . S
H914 C921 0.950 . S
C915 C913 1.387 . S
C915 C917 1.390 . S
C915 H919 0.950 . S
H916 C912 0.950 . S
C917 C915 1.390 . S
C917 C918 1.387 . S
C917 H920 0.950 . S
C918 C917 1.387 . S
C918 C921 1.387 . S
H919 C915 0.950 . S
H920 C917 0.950 . S
C921 C912 1.390 . S
C921 H914 0.950 . S
C921 C918 1.387 . S
C922 C923 1.387 . S
C922 H926 0.950 . S
C922 C931 1.390 . S
C923 C922 1.387 . S
C923 C925 1.387 . S
H924 C931 0.950 . S
C925 C923 1.387 . S
C925 C927 1.390 . S
C925 H929 0.950 . S
H926 C922 0.950 . S
C927 C925 1.390 . S
C927 C928 1.387 . S
C927 H930 0.950 . S
C928 C927 1.387 . S
C928 C931 1.387 . S
H929 C925 0.950 . S
H930 C927 0.950 . S
C931 C922 1.390 . S
C931 H924 0.950 . S
C931 C928 1.387 . S
C932 C933 1.387 . S
C932 H936 0.950 . S
C932 C941 1.390 . S
C933 C932 1.387 . S
C933 C935 1.387 . S
H934 C941 0.950 . S
C935 C933 1.387 . S
C935 C937 1.390 . S
C935 H939 0.950 . S
H936 C932 0.950 . S
C937 C935 1.390 . S
C937 C938 1.387 . S
C937 H940 0.950 . S
C938 C937 1.387 . S
C938 C941 1.387 . S
H939 C935 0.950 . S
H940 C937 0.950 . S
C941 C932 1.390 . S
C941 H934 0.950 . S
C941 C938 1.387 . S
C942 C943 1.387 . S
C942 H946 0.950 . S
C942 C951 1.390 . S
C943 C942 1.387 . S
C943 C945 1.387 . S
H944 C951 0.950 . S
C945 C943 1.387 . S
C945 C947 1.390 . S
C945 H949 0.950 . S
H946 C942 0.950 . S
C947 C945 1.390 . S
C947 C948 1.387 . S
C947 H950 0.950 . S
C948 C947 1.387 . S
C948 C951 1.387 . S
H949 C945 0.950 . S
H950 C947 0.950 . S
C951 C942 1.390 . S
C951 H944 0.950 . S
C951 C948 1.387 . S
C952 C953 1.387 . S
C952 H956 0.950 . S
C952 C961 1.390 . S
C953 C952 1.387 . S
C953 C955 1.387 . S
H954 C961 0.950 . S
C955 C953 1.387 . S
C955 C957 1.390 . S
C955 H959 0.950 . S
H956 C952 0.950 . S
C957 C955 1.390 . S
C957 C958 1.387 . S
C957 H960 0.950 . S
C958 C957 1.387 . S
C958 C961 1.387 . S
H959 C955 0.950 . S
H960 C957 0.950 . S
C961 C952 1.390 . S
C961 H954 0.950 . S
C961 C958 1.387 . S
C962 C963 1.387 . S
C962 H966 0.950 . S
C962 C971 1.390 . S
C963 C962 1.387 . S
C963 C965 1.387 . S
H964 C971 0.950 . S
C965 C963 1.387 . S
C965 C967 1.390 . S
C965 H969 0.950 . S
H966 C962 0.950 . S
C967 C965 1.390 . S
C967 C968 1.387 . S
C967 H970 0.950 . S
C968 C967 1.387 . S
C968 C971 1.387 . S
H969 C965 0.950 . S
H970 C967 0.950 . S
C971 C962 1.390 . S
C971 H964 0.950 . S
C971 C968 1.387 . S
C972 C973 1.387 . S
C972 H976 0.950 . S
C972 C981 1.390 . S
C973 C972 1.387 . S
C973 C975 1.387 . S
H974 C981 0.950 . S
C975 C973 1.387 . S
C975 C977 1.390 . S
C975 H979 0.950 . S
H976 C972 0.950 . S
C977 C975 1.390 . S
C977 C978 1.387 . S
C977 H980 0.950 . S
C978 C977 1.387 . S
C978 C981 1.387 . S
H979 C975 0.950 . S
H980 C977 0.950 . S
C981 C972 1.390 . S
C981 H974 0.950 . S
C981 C978 1.387 . S
C982 C983 1.387 . S
C982 H986 0.950 . S
C982 C991 1.390 . S
C983 C982 1.387 . S
C983 C985 1.387 . S
H984 C991 0.950 . S
C985 C983 1.387 . S
C985 C987 1.390 . S
C985 H989 0.950 . S
H986 C982 0.950 . S
C987 C985 1.390 . S
C987 C988 1.387 . S
C987 H990 0.950 . S
C988 C987 1.387 . S
C988 C991 1.387 . S
H989 C985 0.950 . S
H990 C987 0.950 . S
C991 C982 1.390 . S
C991 H984 0.950 . S
C991 C988 1.387 . S
C678 C423 1.460 . S
C673 C36 1.407 . S
C688 C460 1.434 . S
C683 C93 1.428 . S
C698 C496 1.456 . S
C693 C126 1.434 . S
C703 C165 1.414 . S
C708 C387 1.480 . S
C713 C222 1.435 . S
C718 C388 1.456 . S
C723 C261 1.406 . S
C728 C424 1.435 . S
C738 C459 1.459 . S
C733 C318 1.417 . S
C748 C495 1.482 . S
C743 C381 1.443 . S
C753 C132 1.406 . S
C758 C567 1.460 . S
C768 C604 1.437 . S
C763 C189 1.429 . S
C773 C30 1.434 . S
C778 C640 1.454 . S
C788 C531 1.480 . S
C783 C69 1.415 . S
C793 C324 1.422 . S
C798 C532 1.455 . S
C803 C357 1.405 . S
C808 C568 1.435 . S
C818 C603 1.459 . S
C813 C228 1.407 . S
C823 C285 1.443 . S
C828 C639 1.482 . S
C838 C458 1.731 . S
C833 C45 1.720 . S
C848 C494 1.723 . S
C843 C84 1.719 . S
C853 C117 1.664 . S
C858 C398 1.529 . S
C863 C174 1.643 . S
C868 C434 1.541 . S
C873 C213 1.665 . S
C878 C506 1.534 . S
C888 C386 1.724 . S
C883 C270 1.669 . S
C898 C422 1.735 . S
C893 C309 1.715 . S
C908 C470 1.546 . S
C903 C372 1.691 . S
C918 C602 1.733 . S
C913 C141 1.723 . S
C928 C638 1.725 . S
C923 C180 1.719 . S
C933 C21 1.667 . S
C938 C542 1.535 . S
C948 C578 1.545 . S
C943 C78 1.644 . S
C958 C650 1.530 . S
C953 C333 1.675 . S
C963 C366 1.668 . S
C968 C530 1.722 . S
C978 C566 1.732 . S
C973 C237 1.721 . S
C988 C614 1.541 . S
C983 C276 1.690 . S
