# Generated by pormake.
# Topology rtl, (3,6)-cn, num edge types: 1
# Building blocks:
#     Node 0, Type 0, BuildingBlock: KAKCAD_clean_linker_0, # of connection points: 3
#     Node 1, Type 0, BuildingBlock: KAKCAD_clean_linker_0, # of connection points: 3
#     Node 2, Type 0, BuildingBlock: KAKCAD_clean_linker_0, # of connection points: 3
#     Node 3, Type 0, BuildingBlock: KAKCAD_clean_linker_0, # of connection points: 3
#     Node 4, Type 1, BuildingBlock: VOLQOD_clean_sbu_1, # of connection points: 6
#     Node 5, Type 1, BuildingBlock: VOLQOD_clean_sbu_1, # of connection points: 6
#     Edge 6, Type (0, 1), BuildingBlock: FUNLAD_clean_linker_0, # of connection points: 2
#     Edge 7, Type (0, 1), BuildingBlock: FUNLAD_clean_linker_0, # of connection points: 2
#     Edge 8, Type (0, 1), BuildingBlock: FUNLAD_clean_linker_0, # of connection points: 2
#     Edge 9, Type (0, 1), BuildingBlock: FUNLAD_clean_linker_0, # of connection points: 2
#     Edge 10, Type (0, 1), BuildingBlock: FUNLAD_clean_linker_0, # of connection points: 2
#     Edge 11, Type (0, 1), BuildingBlock: FUNLAD_clean_linker_0, # of connection points: 2
#     Edge 12, Type (0, 1), BuildingBlock: FUNLAD_clean_linker_0, # of connection points: 2
#     Edge 13, Type (0, 1), BuildingBlock: FUNLAD_clean_linker_0, # of connection points: 2
#     Edge 14, Type (0, 1), BuildingBlock: FUNLAD_clean_linker_0, # of connection points: 2
#     Edge 15, Type (0, 1), BuildingBlock: FUNLAD_clean_linker_0, # of connection points: 2
#     Edge 16, Type (0, 1), BuildingBlock: FUNLAD_clean_linker_0, # of connection points: 2
#     Edge 17, Type (0, 1), BuildingBlock: FUNLAD_clean_linker_0, # of connection points: 2
# Relax obj value: 0.079
# Max RMSD: 0.156
# Mean RMSD: 0.088
data_MOF--net-rtl--node1-VOLQOD_clean_sbu_1--node2-KAKCAD_clean_linker_0--edge1-FUNLAD_clean_linker_0
_symmetry_space_group_name_H-M    P1
_symmetry_Int_Tables_number       1
_symmetry_cell_setting            triclinic
loop_
_symmetry_equiv_pos_as_xyz
'x, y, z'
_cell_length_a     50.758088
_cell_length_b     43.911326
_cell_length_c     33.008197
_cell_angle_alpha  89.744267
_cell_angle_beta   90.070525
_cell_angle_gamma 90.051467
loop_
_atom_site_label
_atom_site_type_symbol
_atom_site_fract_x
_atom_site_fract_y
_atom_site_fract_z
_atom_type_partial_charge
C0 C 0.08713 0.755 0.8748 0.0
C1 C 0.08708 0.78695 0.87824 0.0
C2 C 0.09466 0.73669 0.90771 0.0
C3 C 0.10211 0.75005 0.94457 0.0
C4 C 0.10293 0.78193 0.94744 0.0
C5 C 0.09557 0.80014 0.91469 0.0
C6 C 0.1082 0.73122 0.98075 0.0
C7 C 0.12629 0.70708 0.97885 0.0
C8 C 0.13399 0.6915 0.01437 0.0
C9 C 0.12259 0.69974 0.05164 0.0
C10 C 0.10477 0.72402 0.05383 0.0
C11 C 0.09738 0.73925 0.01825 0.0
C12 C 0.09629 0.73608 0.09349 0.0
C13 C 0.08558 0.717 0.12355 0.0
C14 C 0.0994 0.76724 0.1015 0.0
C15 C 0.09198 0.77918 0.13875 0.0
C16 C 0.08111 0.7603 0.16881 0.0
C17 C 0.15598 0.66916 0.01332 0.0
C18 C 0.15856 0.64839 0.98124 0.0
C19 C 0.17546 0.66964 0.04365 0.0
C20 C 0.19709 0.65016 0.04178 0.0
C21 C 0.19994 0.62977 0.00943 0.0
C22 C 0.18035 0.62893 0.97928 0.0
C23 C 0.07777 0.7291 0.16087 0.0
H24 H 0.08063 0.74416 0.84713 0.0
H25 H 0.09387 0.71214 0.90477 0.0
H26 H 0.10919 0.79285 0.97521 0.0
H27 H 0.09649 0.82465 0.91802 0.0
H28 H 0.13558 0.70181 0.95018 0.0
H29 H 0.08355 0.75802 0.01996 0.0
H30 H 0.12855 0.68828 0.07931 0.0
H31 H 0.08302 0.69288 0.11799 0.0
H32 H 0.10789 0.78238 0.07902 0.0
H33 H 0.0945 0.80337 0.14391 0.0
H34 H 0.14379 0.64728 0.95758 0.0
H35 H 0.17452 0.68583 0.06826 0.0
H36 H 0.06945 0.71411 0.18365 0.0
H37 H 0.1819 0.61326 0.95414 0.0
H38 H 0.21208 0.65184 0.06505 0.0
C39 C 0.57664 0.78029 0.64192 0.0
C40 C 0.56438 0.75158 0.64267 0.0
C41 C 0.58754 0.79164 0.60588 0.0
C42 C 0.58665 0.77428 0.57013 0.0
C43 C 0.57456 0.74543 0.57137 0.0
C44 C 0.56341 0.73437 0.60702 0.0
C45 C 0.59903 0.78519 0.5318 0.0
C46 C 0.62335 0.80053 0.5321 0.0
C47 C 0.63665 0.80697 0.49567 0.0
C48 C 0.6255 0.79754 0.45874 0.0
C49 C 0.60123 0.78218 0.45787 0.0
C50 C 0.58769 0.77743 0.4944 0.0
C51 C 0.59135 0.76808 0.41979 0.0
C52 C 0.59471 0.78236 0.38189 0.0
C53 C 0.57966 0.73903 0.42111 0.0
C54 C 0.57183 0.72451 0.38567 0.0
C55 C 0.57591 0.73827 0.34769 0.0
C56 C 0.6631 0.82149 0.49638 0.0
C57 C 0.66827 0.84644 0.52174 0.0
C58 C 0.68351 0.81018 0.47197 0.0
C59 C 0.70849 0.82346 0.47287 0.0
C60 C 0.71373 0.84836 0.49827 0.0
C61 C 0.6933 0.8598 0.52259 0.0
C62 C 0.58711 0.76758 0.3462 0.0
H63 H 0.57762 0.79398 0.66909 0.0
H64 H 0.59657 0.81399 0.60601 0.0
H65 H 0.57422 0.73088 0.54498 0.0
H66 H 0.55463 0.71187 0.60696 0.0
H67 H 0.6327 0.80594 0.56071 0.0
H68 H 0.5685 0.76662 0.49381 0.0
H69 H 0.6362 0.80131 0.43079 0.0
H70 H 0.60341 0.80483 0.37973 0.0
H71 H 0.57715 0.72695 0.44951 0.0
H72 H 0.56277 0.70224 0.38812 0.0
H73 H 0.6529 0.85575 0.54075 0.0
H74 H 0.68031 0.79072 0.45252 0.0
H75 H 0.59066 0.7788 0.31744 0.0
H76 H 0.69677 0.87879 0.54274 0.0
H77 H 0.72369 0.81432 0.45342 0.0
C78 C 0.89388 0.24712 0.14722 0.0
C79 C 0.92072 0.2407 0.15298 0.0
C80 C 0.8852 0.26116 0.11164 0.0
C81 C 0.90319 0.26939 0.08106 0.0
C82 C 0.93017 0.26385 0.08745 0.0
C83 C 0.93883 0.24954 0.12297 0.0
C84 C 0.8935 0.28189 0.04181 0.0
C85 C 0.87186 0.30176 0.04076 0.0
C86 C 0.86032 0.31054 0.00383 0.0
C87 C 0.87157 0.30046 0.96739 0.0
C88 C 0.89354 0.28093 0.9677 0.0
C89 C 0.90432 0.2718 0.00509 0.0
C90 C 0.90384 0.26771 0.92943 0.0
C91 C 0.88644 0.25759 0.89917 0.0
C92 C 0.93105 0.26326 0.924 0.0
C93 C 0.94054 0.24804 0.88989 0.0
C94 C 0.92304 0.23699 0.86032 0.0
C95 C 0.83506 0.32765 0.00366 0.0
C96 C 0.81508 0.31965 0.03117 0.0
C97 C 0.83019 0.35097 0.97529 0.0
C98 C 0.80572 0.36567 0.97421 0.0
C99 C 0.78562 0.35716 0.00129 0.0
C100 C 0.79072 0.33426 0.03007 0.0
C101 C 0.89593 0.24251 0.865 0.0
H102 H 0.87942 0.24014 0.16952 0.0
H103 H 0.86423 0.26448 0.1075 0.0
H104 H 0.94458 0.27028 0.0648 0.0
H105 H 0.95968 0.24515 0.12684 0.0
H106 H 0.86357 0.30996 0.06892 0.0
H107 H 0.92021 0.25535 0.00563 0.0
H108 H 0.86264 0.30693 0.93879 0.0
H109 H 0.86535 0.26032 0.9025 0.0
H110 H 0.94501 0.27108 0.94651 0.0
H111 H 0.96152 0.24403 0.88745 0.0
H112 H 0.81798 0.30149 0.05304 0.0
H113 H 0.84525 0.35777 0.95385 0.0
H114 H 0.88193 0.23475 0.84251 0.0
H115 H 0.7758 0.32746 0.05173 0.0
H116 H 0.80232 0.38315 0.95155 0.0
C117 C 0.3962 0.27109 0.3543 0.0
C118 C 0.42301 0.27812 0.3492 0.0
C119 C 0.3877 0.2547 0.38828 0.0
C120 C 0.40586 0.24489 0.41778 0.0
C121 C 0.43282 0.25068 0.41158 0.0
C122 C 0.44128 0.26719 0.37775 0.0
C123 C 0.39659 0.23092 0.45634 0.0
C124 C 0.37551 0.21014 0.45681 0.0
C125 C 0.36543 0.19894 0.49367 0.0
C126 C 0.377 0.20837 0.53023 0.0
C127 C 0.398 0.2292 0.53036 0.0
C128 C 0.4077 0.24021 0.49328 0.0
C129 C 0.4085 0.24144 0.56907 0.0
C130 C 0.39126 0.24953 0.60055 0.0
C131 C 0.43562 0.24693 0.57387 0.0
C132 C 0.44515 0.26123 0.60867 0.0
C133 C 0.42778 0.27018 0.63951 0.0
C134 C 0.34162 0.17922 0.49438 0.0
C135 C 0.32001 0.18594 0.46923 0.0
C136 C 0.3396 0.15481 0.52194 0.0
C137 C 0.31624 0.1381 0.5251 0.0
C138 C 0.2944 0.14537 0.50069 0.0
C139 C 0.29669 0.1692 0.47233 0.0
C140 C 0.40081 0.26367 0.63542 0.0
H141 H 0.38162 0.27946 0.33301 0.0
H142 H 0.36677 0.25097 0.39234 0.0
H143 H 0.44736 0.24296 0.43336 0.0
H144 H 0.46212 0.27183 0.37425 0.0
H145 H 0.36686 0.20277 0.42847 0.0
H146 H 0.42304 0.25739 0.49326 0.0
H147 H 0.3691 0.20022 0.55878 0.0
H148 H 0.37021 0.24609 0.59759 0.0
H149 H 0.44946 0.24054 0.55046 0.0
H150 H 0.46609 0.26557 0.61128 0.0
H151 H 0.32074 0.2049 0.44816 0.0
H152 H 0.35603 0.1488 0.54135 0.0
H153 H 0.3869 0.27065 0.65843 0.0
H154 H 0.28011 0.17567 0.45348 0.0
H155 H 0.31522 0.11956 0.54681 0.0
O156 O 0.93699 0.00318 0.50302 0.0
Zn157 Zn 0.97005 0.02888 0.50301 0.0
O158 O 0.00174 0.00347 0.50587 0.0
Zn159 Zn 0.02261 0.01391 0.55406 0.0
Zn160 Zn 0.99154 0.96049 0.50794 0.0
Zn161 Zn 0.02293 0.01047 0.45758 0.0
O162 O 0.05925 0.02848 0.5389 0.0
O163 O 0.05935 0.02412 0.47198 0.0
O164 O 0.96817 0.0564 0.55149 0.0
O165 O 0.00463 0.04684 0.5866 0.0
O166 O 0.02723 0.977 0.59016 0.0
O167 O 0.00616 0.9401 0.55766 0.0
O168 O 0.00518 0.93723 0.45979 0.0
O169 O 0.96996 0.05561 0.45287 0.0
O170 O 0.02651 0.97252 0.42449 0.0
O171 O 0.00724 0.04295 0.42228 0.0
C172 C 0.93299 0.97461 0.50613 0.0
C173 C 0.07102 0.0307 0.50493 0.0
C174 C 0.01986 0.94932 0.58753 0.0
C175 C 0.98306 0.0613 0.58187 0.0
C176 C 0.01873 0.94517 0.42908 0.0
C177 C 0.98629 0.05878 0.42386 0.0
O178 O 0.95211 0.95593 0.50879 0.0
O179 O 0.56228 0.51167 0.99206 0.0
Zn180 Zn 0.52869 0.53634 0.9927 0.0
O181 O 0.49748 0.51022 0.98865 0.0
Zn182 Zn 0.47806 0.52055 0.93918 0.0
Zn183 Zn 0.50834 0.46754 0.98669 0.0
Zn184 Zn 0.47488 0.51629 0.03593 0.0
O185 O 0.44062 0.53202 0.95201 0.0
O186 O 0.43836 0.52946 0.0191 0.0
O187 O 0.53027 0.56638 0.94659 0.0
O188 O 0.49466 0.55616 0.91002 0.0
O189 O 0.47679 0.48494 0.90081 0.0
O190 O 0.49615 0.44765 0.93529 0.0
O191 O 0.49376 0.44333 0.03366 0.0
O192 O 0.52785 0.56103 0.04384 0.0
O193 O 0.4711 0.47759 0.06841 0.0
O194 O 0.49008 0.54807 0.07317 0.0
C195 C 0.56667 0.48316 0.98999 0.0
C196 C 0.42765 0.53462 0.98482 0.0
C197 C 0.48435 0.45736 0.90374 0.0
C198 C 0.51536 0.57187 0.9164 0.0
C199 C 0.47944 0.45048 0.0638 0.0
C200 C 0.51127 0.56363 0.07254 0.0
O201 O 0.54781 0.46407 0.98801 0.0
C202 C 0.25369 0.12116 0.47194 0.0
C203 C 0.26896 0.12908 0.50583 0.0
C204 C 0.229 0.10755 0.47683 0.0
C205 C 0.21906 0.10134 0.51584 0.0
C206 C 0.23442 0.10908 0.54966 0.0
C207 C 0.25915 0.12264 0.54476 0.0
C208 C 0.19222 0.08863 0.52242 0.0
C209 C 0.17944 0.07175 0.49461 0.0
C210 C 0.15179 0.06095 0.499 0.0
C211 C 0.13813 0.05243 0.46385 0.0
C212 C 0.112 0.04269 0.46588 0.0
C213 C 0.09884 0.04097 0.50328 0.0
H214 H 0.14873 0.06428 0.56465 0.0
C215 C 0.11258 0.04898 0.53868 0.0
C216 C 0.1388 0.05881 0.53663 0.0
H217 H 0.10312 0.04764 0.56803 0.0
H218 H 0.26072 0.12574 0.44155 0.0
H219 H 0.21755 0.10289 0.44991 0.0
H220 H 0.22716 0.10488 0.58003 0.0
H221 H 0.27024 0.1289 0.57151 0.0
H222 H 0.18281 0.09386 0.55103 0.0
H223 H 0.18926 0.0663 0.46637 0.0
H224 H 0.14762 0.05364 0.43449 0.0
H225 H 0.10214 0.03655 0.43796 0.0
C226 C 0.23746 0.608 0.96948 0.0
C227 C 0.22402 0.61075 0.00648 0.0
C228 C 0.26169 0.59294 0.96768 0.0
C229 C 0.27304 0.58042 0.00297 0.0
C230 C 0.25888 0.58175 0.03941 0.0
C231 C 0.23472 0.59685 0.04123 0.0
C232 C 0.29974 0.56649 0.00348 0.0
C233 C 0.31873 0.57364 0.97654 0.0
C234 C 0.34623 0.5622 0.97943 0.0
C235 C 0.36164 0.56138 0.94419 0.0
C236 C 0.38796 0.55215 0.94585 0.0
C237 C 0.39959 0.54387 0.98298 0.0
H238 H 0.34695 0.55518 0.04472 0.0
C239 C 0.3842 0.54481 0.01834 0.0
C240 C 0.35783 0.5539 0.01664 0.0
H241 H 0.39255 0.53876 0.04749 0.0
H242 H 0.22973 0.61842 0.94215 0.0
H243 H 0.27145 0.59144 0.93865 0.0
H244 H 0.26693 0.57192 0.06693 0.0
H245 H 0.22459 0.59809 0.07004 0.0
H246 H 0.30421 0.55109 0.02837 0.0
H247 H 0.31437 0.58891 0.9515 0.0
H248 H 0.3533 0.56796 0.91521 0.0
H249 H 0.39923 0.55182 0.91801 0.0
C250 C 0.74387 0.89383 0.50031 0.0
C251 C 0.74049 0.86206 0.49947 0.0
C252 C 0.76914 0.90662 0.50035 0.0
C253 C 0.79162 0.88781 0.49983 0.0
C254 C 0.78813 0.8561 0.49908 0.0
C255 C 0.76293 0.84336 0.49903 0.0
C256 C 0.81901 0.89996 0.49884 0.0
C257 C 0.82582 0.92861 0.50906 0.0
C258 C 0.85351 0.93981 0.50824 0.0
C259 C 0.85822 0.97116 0.50385 0.0
C260 C 0.88398 0.98254 0.50303 0.0
C261 C 0.90562 0.96276 0.50691 0.0
H262 H 0.8725 0.89593 0.51785 0.0
C263 C 0.90088 0.93142 0.51196 0.0
C264 C 0.87517 0.92008 0.51282 0.0
H265 H 0.91704 0.91554 0.51556 0.0
H266 H 0.72696 0.90886 0.49999 0.0
H267 H 0.77076 0.93116 0.49982 0.0
H268 H 0.80502 0.84101 0.49864 0.0
H269 H 0.76104 0.81879 0.49891 0.0
H270 H 0.83423 0.88417 0.48942 0.0
H271 H 0.8108 0.94481 0.51786 0.0
H272 H 0.84193 0.98692 0.50071 0.0
H273 H 0.88688 0.00683 0.49932 0.0
C274 C 0.75613 0.40294 0.99392 0.0
C275 C 0.7591 0.37135 -0.00085 0.0
C276 C 0.73102 0.41614 0.99339 0.0
C277 C 0.70833 0.39787 -0.00218 0.0
C278 C 0.71145 0.3663 0.00262 0.0
C279 C 0.73645 0.35319 0.00316 0.0
C280 C 0.68106 0.41033 -0.00138 0.0
C281 C 0.67423 0.43879 0.98729 0.0
C282 C 0.64649 0.44971 0.98796 0.0
C283 C 0.64148 0.48098 0.99221 0.0
C284 C 0.61561 0.49194 0.99305 0.0
C285 C 0.59417 0.47182 0.98933 0.0
H286 H 0.62795 0.4056 0.9784 0.0
C287 C 0.59922 0.4406 0.98435 0.0
C288 C 0.62503 0.42969 0.98343 0.0
H289 H 0.58324 0.42447 0.98079 0.0
H290 H 0.77324 0.41756 0.99121 0.0
H291 H 0.72973 0.4406 0.99036 0.0
H292 H 0.69443 0.3516 0.00598 0.0
H293 H 0.73802 0.32871 0.00658 0.0
H294 H 0.6658 0.39487 0.00915 0.0
H295 H 0.68917 0.45497 0.97784 0.0
H296 H 0.65763 0.49695 0.99528 0.0
H297 H 0.61244 0.51617 -0.00332 0.0
C298 C 0.09025 0.79379 0.22795 0.0
C299 C 0.07312 0.77378 0.2079 0.0
C300 C 0.08168 0.81015 0.26151 0.0
C301 C 0.05561 0.80716 0.2754 0.0
C302 C 0.03907 0.78552 0.25716 0.0
C303 C 0.04773 0.76896 0.22356 0.0
C304 C 0.04505 0.8272 0.30765 0.0
C305 C 0.0534 0.85619 0.31178 0.0
C306 C 0.04304 0.87821 0.34183 0.0
C307 C 0.04882 0.90919 0.33608 0.0
C308 C 0.04056 0.93088 0.36402 0.0
C309 C 0.02634 0.92211 0.39865 0.0
H310 H 0.0242 0.84567 0.38246 0.0
C311 C 0.02028 0.89112 0.40437 0.0
C312 C 0.02861 0.86934 0.37634 0.0
H313 H 0.0095 0.88357 0.43087 0.0
H314 H 0.11015 0.79734 0.21702 0.0
H315 H 0.0954 0.82555 0.276 0.0
H316 H 0.01903 0.78245 0.26771 0.0
H317 H 0.03417 0.75358 0.20865 0.0
H318 H 0.02883 0.81866 0.32581 0.0
H319 H 0.06796 0.86496 0.29061 0.0
H320 H 0.05996 0.91671 0.30988 0.0
H321 H 0.04559 0.95452 0.35856 0.0
C322 C 0.56872 0.73753 0.71606 0.0
C323 C 0.55348 0.73853 0.68055 0.0
C324 C 0.55997 0.72107 0.74986 0.0
C325 C 0.53574 0.70543 0.74867 0.0
C326 C 0.51978 0.70827 0.71414 0.0
C327 C 0.52863 0.72444 0.6803 0.0
C328 C 0.52686 0.68488 0.7818 0.0
C329 C 0.5437 0.66932 0.80574 0.0
C330 C 0.53525 0.64524 0.83475 0.0
C331 C 0.55203 0.63755 0.86702 0.0
C332 C 0.54551 0.61391 0.89369 0.0
C333 C 0.52214 0.59716 0.88839 0.0
H334 H 0.49879 0.63286 0.80414 0.0
C335 C 0.50537 0.60477 0.85598 0.0
C336 C 0.51185 0.62846 0.8294 0.0
H337 H 0.48728 0.59224 0.85084 0.0
H338 H 0.58793 0.74828 0.71706 0.0
H339 H 0.5724 0.72028 0.7765 0.0
H340 H 0.50089 0.69682 0.71262 0.0
H341 H 0.51633 0.72523 0.65346 0.0
H342 H 0.50584 0.68073 0.78422 0.0
H343 H 0.56473 0.67351 0.80333 0.0
H344 H 0.57032 0.64982 0.87158 0.0
H345 H 0.55895 0.60865 0.91825 0.0
C346 C 0.94656 0.19827 0.18452 0.0
C347 C 0.92942 0.22309 0.18902 0.0
C348 C 0.95304 0.17991 0.21771 0.0
C349 C 0.94279 0.18625 0.25645 0.0
C350 C 0.926 0.21143 0.26094 0.0
C351 C 0.91936 0.22964 0.22763 0.0
C352 C 0.9478 0.16632 0.29229 0.0
C353 C 0.96732 0.14554 0.29414 0.0
C354 C 0.9716 0.12427 0.32878 0.0
C355 C 0.99567 0.10864 0.33105 0.0
C356 C 0.00041 0.08752 0.3619 0.0
C357 C 0.98112 0.08142 0.39139 0.0
H358 H 0.93306 0.12883 0.35716 0.0
C359 C 0.957 0.09703 0.38929 0.0
C360 C 0.95219 0.11809 0.35822 0.0
H361 H 0.94164 0.0927 0.41134 0.0
H362 H 0.95417 0.1923 0.15496 0.0
H363 H 0.96533 0.16029 0.21223 0.0
H364 H 0.91769 0.21684 0.29026 0.0
H365 H 0.90617 0.24873 0.23202 0.0
H366 H 0.935 0.16942 0.31823 0.0
H367 H 0.98141 0.1442 0.26955 0.0
H368 H 0.01093 0.11269 0.30872 0.0
H369 H 0.01925 0.07596 0.36255 0.0
C370 C 0.45499 0.3123 0.66876 0.0
C371 C 0.43742 0.28794 0.67466 0.0
C372 C 0.46254 0.33064 0.70123 0.0
C373 C 0.4526 0.32501 0.74032 0.0
C374 C 0.4359 0.29993 0.74651 0.0
C375 C 0.4282 0.2817 0.71396 0.0
C376 C 0.45925 0.34486 0.77513 0.0
C377 C 0.46417 0.37486 0.77084 0.0
C378 C 0.46948 0.39542 0.8055 0.0
C379 C 0.4637 0.42653 0.80137 0.0
C380 C 0.4684 0.44664 0.83326 0.0
C381 C 0.47932 0.4361 0.86987 0.0
H382 H 0.48617 0.36123 0.84585 0.0
C383 C 0.48552 0.405 0.87377 0.0
C384 C 0.48069 0.38487 0.84194 0.0
H385 H 0.49414 0.39613 0.90142 0.0
H386 H 0.46237 0.31774 0.63881 0.0
H387 H 0.47612 0.34918 0.69555 0.0
H388 H 0.42826 0.29486 0.77643 0.0
H389 H 0.41491 0.26282 0.71949 0.0
H390 H 0.4581 0.33488 0.80524 0.0
H391 H 0.46263 0.38531 0.74104 0.0
H392 H 0.45528 0.43529 0.77349 0.0
H393 H 0.46353 0.47047 0.8291 0.0
C394 C 0.57337 0.68985 0.30794 0.0
C395 C 0.56909 0.72146 0.31007 0.0
C396 C 0.56599 0.67351 0.27366 0.0
C397 C 0.55432 0.68838 0.24044 0.0
C398 C 0.55098 0.72008 0.24169 0.0
C399 C 0.55809 0.73648 0.27632 0.0
C400 C 0.54614 0.67116 0.20401 0.0
C401 C 0.53616 0.6428 0.20669 0.0
C402 C 0.52898 0.62419 0.171 0.0
C403 C 0.50937 0.60186 0.17512 0.0
C404 C 0.5032 0.58261 0.14289 0.0
C405 C 0.51696 0.5849 0.10608 0.0
H406 H 0.55821 0.64328 0.13012 0.0
C407 C 0.53661 0.6073 0.10193 0.0
C408 C 0.54251 0.62683 0.134 0.0
H409 H 0.54758 0.60964 0.07396 0.0
H410 H 0.58261 0.67765 0.33274 0.0
H411 H 0.56977 0.64924 0.27304 0.0
H412 H 0.5423 0.73207 0.21621 0.0
H413 H 0.55445 0.76076 0.27693 0.0
H414 H 0.54742 0.68249 0.17475 0.0
H415 H 0.53242 0.63295 0.23642 0.0
H416 H 0.49884 0.5992 0.20347 0.0
H417 H 0.48805 0.56551 0.14714 0.0
C418 C 0.91875 0.19265 0.81309 0.0
C419 C 0.93285 0.21847 0.82584 0.0
C420 C 0.92816 0.17456 0.7816 0.0
C421 C 0.95192 0.1819 0.76194 0.0
C422 C 0.96617 0.20749 0.77488 0.0
C423 C 0.95668 0.2257 0.80633 0.0
C424 C 0.96282 0.16253 0.72916 0.0
C425 C 0.94746 0.14577 0.70449 0.0
C426 C 0.95783 0.12535 0.67249 0.0
C427 C 0.9413 0.1177 0.63999 0.0
C428 C 0.94967 0.09735 0.61029 0.0
C429 C 0.97472 0.08381 0.61266 0.0
H430 H 0.99607 0.11669 0.69996 0.0
C431 C 0.99135 0.09149 0.64518 0.0
C432 C 0.98301 0.11204 0.6748 0.0
H433 H 0.01073 0.08139 0.64805 0.0
H434 H 0.90071 0.18589 0.82815 0.0
H435 H 0.91709 0.15439 0.77359 0.0
H436 H 0.98463 0.21352 0.76047 0.0
H437 H 0.96798 0.24552 0.81521 0.0
H438 H 0.98399 0.16305 0.72445 0.0
H439 H 0.92618 0.14773 0.7068 0.0
H440 H 0.92173 0.12742 0.63762 0.0
H441 H 0.93628 0.09192 0.58579 0.0
C442 C 0.42158 0.2952 0.27639 0.0
C443 C 0.43165 0.29855 0.31581 0.0
C444 C 0.42873 0.31565 0.24566 0.0
C445 C 0.44604 0.33994 0.25388 0.0
C446 C 0.4561 0.34316 0.29323 0.0
C447 C 0.44914 0.32261 0.32379 0.0
C448 C 0.45282 0.36336 0.22301 0.0
C449 C 0.45274 0.35815 0.18284 0.0
C450 C 0.45945 0.38215 0.15271 0.0
C451 C 0.47119 0.37382 0.11593 0.0
C452 C 0.47783 0.39597 0.0871 0.0
C453 C 0.47242 0.4269 0.09421 0.0
H454 H 0.44394 0.4202 0.1871 0.0
C455 C 0.46014 0.43513 0.13071 0.0
C456 C 0.45373 0.41303 0.15964 0.0
H457 H 0.45551 0.45871 0.13709 0.0
H458 H 0.40804 0.27688 0.26938 0.0
H459 H 0.42005 0.31285 0.21596 0.0
H460 H 0.46925 0.36181 0.30048 0.0
H461 H 0.45688 0.32611 0.35401 0.0
H462 H 0.45918 0.38544 0.2341 0.0
H463 H 0.449 0.33533 0.17163 0.0
H464 H 0.47554 0.35015 0.10968 0.0
H465 H 0.48708 0.3888 0.05919 0.0
C466 C 0.08467 0.80065 0.80415 0.0
C467 C 0.07775 0.80674 0.84453 0.0
C468 C 0.07676 0.8203 0.77292 0.0
C469 C 0.06161 0.84634 0.78152 0.0
C470 C 0.05452 0.85216 0.82178 0.0
C471 C 0.06232 0.83253 0.85287 0.0
C472 C 0.05388 0.86879 0.74991 0.0
C473 C 0.0514 0.86199 0.71036 0.0
C474 C 0.04334 0.88489 0.6795 0.0
C475 C 0.03004 0.8751 0.64464 0.0
C476 C 0.02217 0.89603 0.615 0.0
C477 C 0.02778 0.92723 0.61934 0.0
H478 H 0.06019 0.92436 0.70953 0.0
C479 C 0.04147 0.93697 0.65399 0.0
C480 C 0.04921 0.91606 0.68371 0.0
H481 H 0.04635 0.96079 0.65815 0.0
H482 H 0.09685 0.7812 0.79682 0.0
H483 H 0.08322 0.81545 0.74241 0.0
H484 H 0.04288 0.87203 0.82929 0.0
H485 H 0.05624 0.83762 0.88354 0.0
H486 H 0.04883 0.89153 0.76014 0.0
H487 H 0.05388 0.83863 0.70041 0.0
H488 H 0.0255 0.8512 0.64046 0.0
H489 H 0.01184 0.88767 0.58857 0.0
loop_
_geom_bond_atom_site_label_1
_geom_bond_atom_site_label_2
_geom_bond_distance
_geom_bond_site_symmetry_2
_ccdc_geom_bond_type
C0 C1 1.386 . S
C0 C2 1.397 . S
C0 H24 0.931 . S
C1 C0 1.386 . S
C1 C5 1.397 . S
C2 C0 1.397 . S
C2 C3 1.384 . S
C2 H25 0.930 . S
C3 C2 1.384 . S
C3 C4 1.377 . S
C3 C6 1.481 . S
C4 C3 1.377 . S
C4 C5 1.389 . S
C4 H26 0.929 . S
C5 C1 1.397 . S
C5 C4 1.389 . S
C5 H27 0.931 . S
C6 C3 1.481 . S
C6 C7 1.387 . S
C6 C11 1.390 1_556 S
C7 C6 1.387 . S
C7 C8 1.401 1_556 S
C7 H28 0.930 . S
C8 C7 1.401 1_554 S
C8 C9 1.376 . S
C8 C17 1.511 . S
C9 C8 1.376 . S
C9 C10 1.392 . S
C9 H30 0.931 . S
C10 C9 1.392 . S
C10 C11 1.361 . S
C10 C12 1.500 . S
C11 C6 1.390 1_554 S
C11 C10 1.361 . S
C11 H29 0.931 . S
C12 C10 1.500 . S
C12 C13 1.371 . S
C12 C14 1.365 . S
C13 C12 1.371 . S
C13 C23 1.386 . S
C13 H31 0.931 . S
C14 C12 1.365 . S
C14 C15 1.409 . S
C14 H32 0.929 . S
C15 C14 1.409 . S
C15 C16 1.380 . S
C15 H33 0.930 . S
C16 C15 1.380 . S
C16 C23 1.357 . S
C17 C8 1.511 . S
C17 C18 1.341 1_554 S
C17 C19 1.371 . S
C18 C17 1.341 1_556 S
C18 C22 1.394 . S
C18 H34 0.930 . S
C19 C17 1.371 . S
C19 C20 1.392 . S
C19 H35 0.931 . S
C20 C19 1.392 . S
C20 C21 1.331 . S
C20 H38 0.932 . S
C21 C20 1.331 . S
C21 C22 1.336 1_554 S
C22 C18 1.394 . S
C22 C21 1.336 1_556 S
C22 H37 0.929 . S
C23 C13 1.386 . S
C23 C16 1.357 . S
C23 H36 0.928 . S
H24 C0 0.931 . S
H25 C2 0.930 . S
H26 C4 0.929 . S
H27 C5 0.931 . S
H28 C7 0.930 . S
H29 C11 0.931 . S
H30 C9 0.931 . S
H31 C13 0.931 . S
H32 C14 0.929 . S
H33 C15 0.930 . S
H34 C18 0.930 . S
H35 C19 0.931 . S
H36 C23 0.928 . S
H37 C22 0.929 . S
H38 C20 0.932 . S
C39 C40 1.386 . S
C39 C41 1.397 . S
C39 H63 0.931 . S
C40 C39 1.386 . S
C40 C44 1.397 . S
C41 C39 1.397 . S
C41 C42 1.384 . S
C41 H64 0.930 . S
C42 C41 1.384 . S
C42 C43 1.377 . S
C42 C45 1.481 . S
C43 C42 1.377 . S
C43 C44 1.389 . S
C43 H65 0.929 . S
C44 C40 1.397 . S
C44 C43 1.389 . S
C44 H66 0.931 . S
C45 C42 1.481 . S
C45 C46 1.387 . S
C45 C50 1.390 . S
C46 C45 1.387 . S
C46 C47 1.401 . S
C46 H67 0.930 . S
C47 C46 1.401 . S
C47 C48 1.376 . S
C47 C56 1.511 . S
C48 C47 1.376 . S
C48 C49 1.392 . S
C48 H69 0.931 . S
C49 C48 1.392 . S
C49 C50 1.361 . S
C49 C51 1.500 . S
C50 C45 1.390 . S
C50 C49 1.361 . S
C50 H68 0.931 . S
C51 C49 1.500 . S
C51 C52 1.371 . S
C51 C53 1.365 . S
C52 C51 1.371 . S
C52 C62 1.386 . S
C52 H70 0.931 . S
C53 C51 1.365 . S
C53 C54 1.409 . S
C53 H71 0.929 . S
C54 C53 1.409 . S
C54 C55 1.380 . S
C54 H72 0.930 . S
C55 C54 1.380 . S
C55 C62 1.357 . S
C56 C47 1.511 . S
C56 C57 1.341 . S
C56 C58 1.371 . S
C57 C56 1.341 . S
C57 C61 1.394 . S
C57 H73 0.930 . S
C58 C56 1.371 . S
C58 C59 1.392 . S
C58 H74 0.931 . S
C59 C58 1.392 . S
C59 C60 1.331 . S
C59 H77 0.932 . S
C60 C59 1.331 . S
C60 C61 1.336 . S
C61 C57 1.394 . S
C61 C60 1.336 . S
C61 H76 0.929 . S
C62 C52 1.386 . S
C62 C55 1.357 . S
C62 H75 0.928 . S
H63 C39 0.931 . S
H64 C41 0.930 . S
H65 C43 0.929 . S
H66 C44 0.931 . S
H67 C46 0.930 . S
H68 C50 0.931 . S
H69 C48 0.931 . S
H70 C52 0.931 . S
H71 C53 0.929 . S
H72 C54 0.930 . S
H73 C57 0.930 . S
H74 C58 0.931 . S
H75 C62 0.928 . S
H76 C61 0.929 . S
H77 C59 0.932 . S
C78 C79 1.386 . S
C78 C80 1.397 . S
C78 H102 0.931 . S
C79 C78 1.386 . S
C79 C83 1.397 . S
C80 C78 1.397 . S
C80 C81 1.384 . S
C80 H103 0.930 . S
C81 C80 1.384 . S
C81 C82 1.377 . S
C81 C84 1.481 . S
C82 C81 1.377 . S
C82 C83 1.389 . S
C82 H104 0.929 . S
C83 C79 1.397 . S
C83 C82 1.389 . S
C83 H105 0.931 . S
C84 C81 1.481 . S
C84 C85 1.387 . S
C84 C89 1.390 . S
C85 C84 1.387 . S
C85 C86 1.401 . S
C85 H106 0.930 . S
C86 C85 1.401 . S
C86 C87 1.376 1_554 S
C86 C95 1.511 . S
C87 C86 1.376 1_556 S
C87 C88 1.392 . S
C87 H108 0.931 . S
C88 C87 1.392 . S
C88 C89 1.361 1_556 S
C88 C90 1.500 . S
C89 C84 1.390 . S
C89 C88 1.361 1_554 S
C89 H107 0.931 . S
C90 C88 1.500 . S
C90 C91 1.371 . S
C90 C92 1.365 . S
C91 C90 1.371 . S
C91 C101 1.386 . S
C91 H109 0.931 . S
C92 C90 1.365 . S
C92 C93 1.409 . S
C92 H110 0.929 . S
C93 C92 1.409 . S
C93 C94 1.380 . S
C93 H111 0.930 . S
C94 C93 1.380 . S
C94 C101 1.357 . S
C95 C86 1.511 . S
C95 C96 1.341 . S
C95 C97 1.371 1_554 S
C96 C95 1.341 . S
C96 C100 1.394 . S
C96 H112 0.930 . S
C97 C95 1.371 1_556 S
C97 C98 1.392 . S
C97 H113 0.931 . S
C98 C97 1.392 . S
C98 C99 1.331 1_556 S
C98 H116 0.932 . S
C99 C98 1.331 1_554 S
C99 C100 1.336 . S
C100 C96 1.394 . S
C100 C99 1.336 . S
C100 H115 0.929 . S
C101 C91 1.386 . S
C101 C94 1.357 . S
C101 H114 0.928 . S
H102 C78 0.931 . S
H103 C80 0.930 . S
H104 C82 0.929 . S
H105 C83 0.931 . S
H106 C85 0.930 . S
H107 C89 0.931 . S
H108 C87 0.931 . S
H109 C91 0.931 . S
H110 C92 0.929 . S
H111 C93 0.930 . S
H112 C96 0.930 . S
H113 C97 0.931 . S
H114 C101 0.928 . S
H115 C100 0.929 . S
H116 C98 0.932 . S
C117 C118 1.386 . S
C117 C119 1.397 . S
C117 H141 0.931 . S
C118 C117 1.386 . S
C118 C122 1.397 . S
C119 C117 1.397 . S
C119 C120 1.384 . S
C119 H142 0.930 . S
C120 C119 1.384 . S
C120 C121 1.377 . S
C120 C123 1.481 . S
C121 C120 1.377 . S
C121 C122 1.389 . S
C121 H143 0.929 . S
C122 C118 1.397 . S
C122 C121 1.389 . S
C122 H144 0.931 . S
C123 C120 1.481 . S
C123 C124 1.387 . S
C123 C128 1.390 . S
C124 C123 1.387 . S
C124 C125 1.401 . S
C124 H145 0.930 . S
C125 C124 1.401 . S
C125 C126 1.376 . S
C125 C134 1.511 . S
C126 C125 1.376 . S
C126 C127 1.392 . S
C126 H147 0.931 . S
C127 C126 1.392 . S
C127 C128 1.361 . S
C127 C129 1.500 . S
C128 C123 1.390 . S
C128 C127 1.361 . S
C128 H146 0.931 . S
C129 C127 1.500 . S
C129 C130 1.371 . S
C129 C131 1.365 . S
C130 C129 1.371 . S
C130 C140 1.386 . S
C130 H148 0.931 . S
C131 C129 1.365 . S
C131 C132 1.409 . S
C131 H149 0.929 . S
C132 C131 1.409 . S
C132 C133 1.380 . S
C132 H150 0.930 . S
C133 C132 1.380 . S
C133 C140 1.357 . S
C134 C125 1.511 . S
C134 C135 1.341 . S
C134 C136 1.371 . S
C135 C134 1.341 . S
C135 C139 1.394 . S
C135 H151 0.930 . S
C136 C134 1.371 . S
C136 C137 1.392 . S
C136 H152 0.931 . S
C137 C136 1.392 . S
C137 C138 1.331 . S
C137 H155 0.932 . S
C138 C137 1.331 . S
C138 C139 1.336 . S
C139 C135 1.394 . S
C139 C138 1.336 . S
C139 H154 0.929 . S
C140 C130 1.386 . S
C140 C133 1.357 . S
C140 H153 0.928 . S
H141 C117 0.931 . S
H142 C119 0.930 . S
H143 C121 0.929 . S
H144 C122 0.931 . S
H145 C124 0.930 . S
H146 C128 0.931 . S
H147 C126 0.931 . S
H148 C130 0.931 . S
H149 C131 0.929 . S
H150 C132 0.930 . S
H151 C135 0.930 . S
H152 C136 0.931 . S
H153 C140 0.928 . S
H154 C139 0.929 . S
H155 C137 0.932 . S
O156 Zn157 1.953 1_565 S
O156 C172 1.225 . S
Zn157 O156 1.953 1_545 S
Zn157 O158 1.949 1_655 S
Zn157 O164 1.919 . S
Zn157 O169 1.924 . S
O158 Zn157 1.949 1_455 S
O158 Zn159 1.923 . S
O158 Zn160 1.950 1_445 S
O158 Zn161 1.945 . S
Zn159 O158 1.923 . S
Zn159 O162 1.933 . S
Zn159 O165 1.941 . S
Zn159 O166 1.965 1_545 S
Zn160 O158 1.950 1_665 S
Zn160 O167 1.938 1_655 S
Zn160 O168 1.906 1_655 S
Zn160 O178 1.953 . S
Zn161 O158 1.945 . S
Zn161 O163 1.932 . S
Zn161 O170 1.977 1_545 S
Zn161 O171 1.910 1_455 S
O162 Zn159 1.933 . S
O162 C173 1.226 . S
O163 Zn161 1.932 . S
O163 C173 1.307 . S
O164 Zn157 1.919 . S
O164 C175 1.253 . S
O165 Zn159 1.941 . S
O165 C175 1.283 1_455 S
O166 Zn159 1.965 1_565 S
O166 C174 1.303 . S
O167 Zn160 1.938 1_455 S
O167 C174 1.247 . S
O168 Zn160 1.906 1_455 S
O168 C176 1.304 . S
O169 Zn157 1.924 . S
O169 C177 1.311 . S
O170 Zn161 1.977 1_565 S
O170 C176 1.272 . S
O171 Zn161 1.910 1_655 S
O171 C177 1.231 . S
C172 O156 1.225 . S
C172 O178 1.298 . S
C173 O162 1.226 . S
C173 O163 1.307 . S
C174 O166 1.303 . S
C174 O167 1.247 . S
C175 O164 1.253 . S
C175 O165 1.283 1_655 S
C176 O168 1.304 . S
C176 O170 1.272 . S
C177 O169 1.311 . S
C177 O171 1.231 . S
O178 Zn160 1.953 . S
O178 C172 1.298 . S
O179 Zn180 1.953 . S
O179 C195 1.225 1_556 S
Zn180 O179 1.953 . S
Zn180 O181 1.949 1_556 S
Zn180 O187 1.919 . S
Zn180 O192 1.924 1_556 S
O181 Zn180 1.949 1_554 S
O181 Zn182 1.923 1_554 S
O181 Zn183 1.950 . S
O181 Zn184 1.945 . S
Zn182 O181 1.923 1_556 S
Zn182 O185 1.933 . S
Zn182 O188 1.941 . S
Zn182 O189 1.965 . S
Zn183 O181 1.950 . S
Zn183 O190 1.938 1_554 S
Zn183 O191 1.906 . S
Zn183 O201 1.953 . S
Zn184 O181 1.945 . S
Zn184 O186 1.932 . S
Zn184 O193 1.977 . S
Zn184 O194 1.910 . S
O185 Zn182 1.933 . S
O185 C196 1.226 1_556 S
O186 Zn184 1.932 . S
O186 C196 1.307 . S
O187 Zn180 1.919 . S
O187 C198 1.253 . S
O188 Zn182 1.941 . S
O188 C198 1.283 . S
O189 Zn182 1.965 . S
O189 C197 1.303 . S
O190 Zn183 1.938 1_556 S
O190 C197 1.247 . S
O191 Zn183 1.906 . S
O191 C199 1.304 . S
O192 Zn180 1.924 1_554 S
O192 C200 1.311 . S
O193 Zn184 1.977 . S
O193 C199 1.272 . S
O194 Zn184 1.910 . S
O194 C200 1.231 . S
C195 O179 1.225 1_554 S
C195 O201 1.298 . S
C196 O185 1.226 1_554 S
C196 O186 1.307 . S
C197 O189 1.303 . S
C197 O190 1.247 . S
C198 O187 1.253 . S
C198 O188 1.283 . S
C199 O191 1.304 . S
C199 O193 1.272 . S
C200 O192 1.311 . S
C200 O194 1.231 . S
O201 Zn183 1.953 . S
O201 C195 1.298 . S
C202 C203 1.386 . S
C202 C204 1.383 . S
C202 H218 0.951 . S
C203 C202 1.386 . S
C203 C207 1.383 . S
C204 C202 1.383 . S
C204 C205 1.402 . S
C204 H219 0.951 . S
C205 C204 1.402 . S
C205 C206 1.375 . S
C205 C208 1.481 . S
C206 C205 1.375 . S
C206 C207 1.367 . S
C206 H220 0.951 . S
C207 C203 1.383 . S
C207 C206 1.367 . S
C207 H221 0.950 . S
C208 C205 1.481 . S
C208 C209 1.297 . S
C208 H222 0.950 . S
C209 C208 1.297 . S
C209 C210 1.479 . S
C209 H223 0.950 . S
C210 C209 1.479 . S
C210 C211 1.375 . S
C210 C216 1.404 . S
C211 C210 1.375 . S
C211 C212 1.369 . S
C211 H224 0.950 . S
C212 C211 1.369 . S
C212 C213 1.392 . S
C212 H225 0.951 . S
C213 C212 1.392 . S
C213 C215 1.384 . S
H214 C216 0.949 . S
C215 C213 1.384 . S
C215 C216 1.385 . S
C215 H217 0.950 . S
C216 C210 1.404 . S
C216 H214 0.949 . S
C216 C215 1.385 . S
H217 C215 0.950 . S
H218 C202 0.951 . S
H219 C204 0.951 . S
H220 C206 0.951 . S
H221 C207 0.950 . S
H222 C208 0.950 . S
H223 C209 0.950 . S
H224 C211 0.950 . S
H225 C212 0.951 . S
C226 C227 1.386 1_556 S
C226 C228 1.383 . S
C226 H242 0.951 . S
C227 C226 1.386 1_554 S
C227 C231 1.383 . S
C228 C226 1.383 . S
C228 C229 1.402 1_556 S
C228 H243 0.951 . S
C229 C228 1.402 1_554 S
C229 C230 1.375 . S
C229 C232 1.481 . S
C230 C229 1.375 . S
C230 C231 1.367 . S
C230 H244 0.951 . S
C231 C227 1.383 . S
C231 C230 1.367 . S
C231 H245 0.950 . S
C232 C229 1.481 . S
C232 C233 1.297 1_554 S
C232 H246 0.950 . S
C233 C232 1.297 1_556 S
C233 C234 1.479 . S
C233 H247 0.950 . S
C234 C233 1.479 . S
C234 C235 1.375 . S
C234 C240 1.404 1_556 S
C235 C234 1.375 . S
C235 C236 1.369 . S
C235 H248 0.950 . S
C236 C235 1.369 . S
C236 C237 1.392 1_556 S
C236 H249 0.951 . S
C237 C236 1.392 1_554 S
C237 C239 1.384 . S
H238 C240 0.949 . S
C239 C237 1.384 . S
C239 C240 1.385 . S
C239 H241 0.950 . S
C240 C234 1.404 1_554 S
C240 H238 0.949 . S
C240 C239 1.385 . S
H241 C239 0.950 . S
H242 C226 0.951 . S
H243 C228 0.951 . S
H244 C230 0.951 . S
H245 C231 0.950 . S
H246 C232 0.950 . S
H247 C233 0.950 . S
H248 C235 0.950 . S
H249 C236 0.951 . S
C250 C251 1.386 . S
C250 C252 1.383 . S
C250 H266 0.951 . S
C251 C250 1.386 . S
C251 C255 1.383 . S
C252 C250 1.383 . S
C252 C253 1.402 . S
C252 H267 0.951 . S
C253 C252 1.402 . S
C253 C254 1.375 . S
C253 C256 1.481 . S
C254 C253 1.375 . S
C254 C255 1.367 . S
C254 H268 0.951 . S
C255 C251 1.383 . S
C255 C254 1.367 . S
C255 H269 0.950 . S
C256 C253 1.481 . S
C256 C257 1.297 . S
C256 H270 0.950 . S
C257 C256 1.297 . S
C257 C258 1.479 . S
C257 H271 0.950 . S
C258 C257 1.479 . S
C258 C259 1.375 . S
C258 C264 1.404 . S
C259 C258 1.375 . S
C259 C260 1.369 . S
C259 H272 0.950 . S
C260 C259 1.369 . S
C260 C261 1.392 . S
C260 H273 0.951 . S
C261 C260 1.392 . S
C261 C263 1.384 . S
H262 C264 0.949 . S
C263 C261 1.384 . S
C263 C264 1.385 . S
C263 H265 0.950 . S
C264 C258 1.404 . S
C264 H262 0.949 . S
C264 C263 1.385 . S
H265 C263 0.950 . S
H266 C250 0.951 . S
H267 C252 0.951 . S
H268 C254 0.951 . S
H269 C255 0.950 . S
H270 C256 0.950 . S
H271 C257 0.950 . S
H272 C259 0.950 . S
H273 C260 0.951 . S
C274 C275 1.386 1_556 S
C274 C276 1.383 . S
C274 H290 0.951 . S
C275 C274 1.386 1_554 S
C275 C279 1.383 . S
C276 C274 1.383 . S
C276 C277 1.402 1_556 S
C276 H291 0.951 . S
C277 C276 1.402 1_554 S
C277 C278 1.375 . S
C277 C280 1.481 . S
C278 C277 1.375 . S
C278 C279 1.367 . S
C278 H292 0.951 . S
C279 C275 1.383 . S
C279 C278 1.367 . S
C279 H293 0.950 . S
C280 C277 1.481 . S
C280 C281 1.297 1_554 S
C280 H294 0.950 . S
C281 C280 1.297 1_556 S
C281 C282 1.479 . S
C281 H295 0.950 . S
C282 C281 1.479 . S
C282 C283 1.375 . S
C282 C288 1.404 1_556 S
C283 C282 1.375 . S
C283 C284 1.369 . S
C283 H296 0.950 . S
C284 C283 1.369 . S
C284 C285 1.377 1_556 S
C284 H297 0.951 . S
C285 C284 1.377 1_554 S
C285 C287 1.396 . S
H286 C288 0.949 . S
C287 C285 1.396 . S
C287 C288 1.385 . S
C287 H289 0.950 . S
C288 C282 1.404 1_554 S
C288 H286 0.949 . S
C288 C287 1.385 . S
H289 C287 0.950 . S
H290 C274 0.951 . S
H291 C276 0.951 . S
H292 C278 0.951 . S
H293 C279 0.950 . S
H294 C280 0.950 . S
H295 C281 0.950 . S
H296 C283 0.950 . S
H297 C284 0.951 . S
C298 C299 1.386 . S
C298 C300 1.383 . S
C298 H314 0.951 . S
C299 C298 1.386 . S
C299 C303 1.383 . S
C300 C298 1.383 . S
C300 C301 1.402 . S
C300 H315 0.951 . S
C301 C300 1.402 . S
C301 C302 1.375 . S
C301 C304 1.481 . S
C302 C301 1.375 . S
C302 C303 1.367 . S
C302 H316 0.951 . S
C303 C299 1.383 . S
C303 C302 1.367 . S
C303 H317 0.950 . S
C304 C301 1.481 . S
C304 C305 1.297 . S
C304 H318 0.950 . S
C305 C304 1.297 . S
C305 C306 1.479 . S
C305 H319 0.950 . S
C306 C305 1.479 . S
C306 C307 1.375 . S
C306 C312 1.404 . S
C307 C306 1.375 . S
C307 C308 1.369 . S
C307 H320 0.950 . S
C308 C307 1.369 . S
C308 C309 1.392 . S
C308 H321 0.951 . S
C309 C308 1.392 . S
C309 C311 1.384 . S
H310 C312 0.949 . S
C311 C309 1.384 . S
C311 C312 1.385 . S
C311 H313 0.950 . S
C312 C306 1.404 . S
C312 H310 0.949 . S
C312 C311 1.385 . S
H313 C311 0.950 . S
H314 C298 0.951 . S
H315 C300 0.951 . S
H316 C302 0.951 . S
H317 C303 0.950 . S
H318 C304 0.950 . S
H319 C305 0.950 . S
H320 C307 0.950 . S
H321 C308 0.951 . S
C322 C323 1.386 . S
C322 C324 1.383 . S
C322 H338 0.951 . S
C323 C322 1.386 . S
C323 C327 1.383 . S
C324 C322 1.383 . S
C324 C325 1.402 . S
C324 H339 0.951 . S
C325 C324 1.402 . S
C325 C326 1.375 . S
C325 C328 1.481 . S
C326 C325 1.375 . S
C326 C327 1.367 . S
C326 H340 0.951 . S
C327 C323 1.383 . S
C327 C326 1.367 . S
C327 H341 0.950 . S
C328 C325 1.481 . S
C328 C329 1.297 . S
C328 H342 0.950 . S
C329 C328 1.297 . S
C329 C330 1.479 . S
C329 H343 0.950 . S
C330 C329 1.479 . S
C330 C331 1.375 . S
C330 C336 1.404 . S
C331 C330 1.375 . S
C331 C332 1.369 . S
C331 H344 0.950 . S
C332 C331 1.369 . S
C332 C333 1.392 . S
C332 H345 0.951 . S
C333 C332 1.392 . S
C333 C335 1.384 . S
H334 C336 0.949 . S
C335 C333 1.384 . S
C335 C336 1.385 . S
C335 H337 0.950 . S
C336 C330 1.404 . S
C336 H334 0.949 . S
C336 C335 1.385 . S
H337 C335 0.950 . S
H338 C322 0.951 . S
H339 C324 0.951 . S
H340 C326 0.951 . S
H341 C327 0.950 . S
H342 C328 0.950 . S
H343 C329 0.950 . S
H344 C331 0.950 . S
H345 C332 0.951 . S
C346 C347 1.386 . S
C346 C348 1.383 . S
C346 H362 0.951 . S
C347 C346 1.386 . S
C347 C351 1.383 . S
C348 C346 1.383 . S
C348 C349 1.402 . S
C348 H363 0.951 . S
C349 C348 1.402 . S
C349 C350 1.375 . S
C349 C352 1.481 . S
C350 C349 1.375 . S
C350 C351 1.367 . S
C350 H364 0.951 . S
C351 C347 1.383 . S
C351 C350 1.367 . S
C351 H365 0.950 . S
C352 C349 1.481 . S
C352 C353 1.297 . S
C352 H366 0.950 . S
C353 C352 1.297 . S
C353 C354 1.479 . S
C353 H367 0.950 . S
C354 C353 1.479 . S
C354 C355 1.375 . S
C354 C360 1.404 . S
C355 C354 1.375 . S
C355 C356 1.369 . S
C355 H368 0.950 . S
C356 C355 1.369 . S
C356 C357 1.392 . S
C356 H369 0.951 . S
C357 C356 1.392 . S
C357 C359 1.384 . S
H358 C360 0.949 . S
C359 C357 1.384 . S
C359 C360 1.385 . S
C359 H361 0.950 . S
C360 C354 1.404 . S
C360 H358 0.949 . S
C360 C359 1.385 . S
H361 C359 0.950 . S
H362 C346 0.951 . S
H363 C348 0.951 . S
H364 C350 0.951 . S
H365 C351 0.950 . S
H366 C352 0.950 . S
H367 C353 0.950 . S
H368 C355 0.950 . S
H369 C356 0.951 . S
C370 C371 1.386 . S
C370 C372 1.383 . S
C370 H386 0.951 . S
C371 C370 1.386 . S
C371 C375 1.383 . S
C372 C370 1.383 . S
C372 C373 1.402 . S
C372 H387 0.951 . S
C373 C372 1.402 . S
C373 C374 1.375 . S
C373 C376 1.481 . S
C374 C373 1.375 . S
C374 C375 1.367 . S
C374 H388 0.951 . S
C375 C371 1.383 . S
C375 C374 1.367 . S
C375 H389 0.950 . S
C376 C373 1.481 . S
C376 C377 1.297 . S
C376 H390 0.950 . S
C377 C376 1.297 . S
C377 C378 1.479 . S
C377 H391 0.950 . S
C378 C377 1.479 . S
C378 C379 1.375 . S
C378 C384 1.404 . S
C379 C378 1.375 . S
C379 C380 1.369 . S
C379 H392 0.950 . S
C380 C379 1.369 . S
C380 C381 1.392 . S
C380 H393 0.951 . S
C381 C380 1.392 . S
C381 C383 1.384 . S
H382 C384 0.949 . S
C383 C381 1.384 . S
C383 C384 1.385 . S
C383 H385 0.950 . S
C384 C378 1.404 . S
C384 H382 0.949 . S
C384 C383 1.385 . S
H385 C383 0.950 . S
H386 C370 0.951 . S
H387 C372 0.951 . S
H388 C374 0.951 . S
H389 C375 0.950 . S
H390 C376 0.950 . S
H391 C377 0.950 . S
H392 C379 0.950 . S
H393 C380 0.951 . S
C394 C395 1.386 . S
C394 C396 1.383 . S
C394 H410 0.951 . S
C395 C394 1.386 . S
C395 C399 1.383 . S
C396 C394 1.383 . S
C396 C397 1.402 . S
C396 H411 0.951 . S
C397 C396 1.402 . S
C397 C398 1.375 . S
C397 C400 1.481 . S
C398 C397 1.375 . S
C398 C399 1.367 . S
C398 H412 0.951 . S
C399 C395 1.383 . S
C399 C398 1.367 . S
C399 H413 0.950 . S
C400 C397 1.481 . S
C400 C401 1.297 . S
C400 H414 0.950 . S
C401 C400 1.297 . S
C401 C402 1.479 . S
C401 H415 0.950 . S
C402 C401 1.479 . S
C402 C403 1.375 . S
C402 C408 1.404 . S
C403 C402 1.375 . S
C403 C404 1.369 . S
C403 H416 0.950 . S
C404 C403 1.369 . S
C404 C405 1.392 . S
C404 H417 0.951 . S
C405 C404 1.392 . S
C405 C407 1.384 . S
H406 C408 0.949 . S
C407 C405 1.384 . S
C407 C408 1.385 . S
C407 H409 0.950 . S
C408 C402 1.404 . S
C408 H406 0.949 . S
C408 C407 1.385 . S
H409 C407 0.950 . S
H410 C394 0.951 . S
H411 C396 0.951 . S
H412 C398 0.951 . S
H413 C399 0.950 . S
H414 C400 0.950 . S
H415 C401 0.950 . S
H416 C403 0.950 . S
H417 C404 0.951 . S
C418 C419 1.386 . S
C418 C420 1.383 . S
C418 H434 0.951 . S
C419 C418 1.386 . S
C419 C423 1.383 . S
C420 C418 1.383 . S
C420 C421 1.402 . S
C420 H435 0.951 . S
C421 C420 1.402 . S
C421 C422 1.375 . S
C421 C424 1.481 . S
C422 C421 1.375 . S
C422 C423 1.367 . S
C422 H436 0.951 . S
C423 C419 1.383 . S
C423 C422 1.367 . S
C423 H437 0.950 . S
C424 C421 1.481 . S
C424 C425 1.297 . S
C424 H438 0.950 . S
C425 C424 1.297 . S
C425 C426 1.479 . S
C425 H439 0.950 . S
C426 C425 1.479 . S
C426 C427 1.375 . S
C426 C432 1.404 . S
C427 C426 1.375 . S
C427 C428 1.369 . S
C427 H440 0.950 . S
C428 C427 1.369 . S
C428 C429 1.392 . S
C428 H441 0.951 . S
C429 C428 1.392 . S
C429 C431 1.384 . S
H430 C432 0.949 . S
C431 C429 1.384 . S
C431 C432 1.385 . S
C431 H433 0.950 1_655 S
C432 C426 1.404 . S
C432 H430 0.949 . S
C432 C431 1.385 . S
H433 C431 0.950 1_455 S
H434 C418 0.951 . S
H435 C420 0.951 . S
H436 C422 0.951 . S
H437 C423 0.950 . S
H438 C424 0.950 . S
H439 C425 0.950 . S
H440 C427 0.950 . S
H441 C428 0.951 . S
C442 C443 1.386 . S
C442 C444 1.383 . S
C442 H458 0.951 . S
C443 C442 1.386 . S
C443 C447 1.383 . S
C444 C442 1.383 . S
C444 C445 1.402 . S
C444 H459 0.951 . S
C445 C444 1.402 . S
C445 C446 1.375 . S
C445 C448 1.481 . S
C446 C445 1.375 . S
C446 C447 1.367 . S
C446 H460 0.951 . S
C447 C443 1.383 . S
C447 C446 1.367 . S
C447 H461 0.950 . S
C448 C445 1.481 . S
C448 C449 1.297 . S
C448 H462 0.950 . S
C449 C448 1.297 . S
C449 C450 1.479 . S
C449 H463 0.950 . S
C450 C449 1.479 . S
C450 C451 1.375 . S
C450 C456 1.404 . S
C451 C450 1.375 . S
C451 C452 1.369 . S
C451 H464 0.950 . S
C452 C451 1.369 . S
C452 C453 1.392 . S
C452 H465 0.951 . S
C453 C452 1.392 . S
C453 C455 1.384 . S
H454 C456 0.949 . S
C455 C453 1.384 . S
C455 C456 1.385 . S
C455 H457 0.950 . S
C456 C450 1.404 . S
C456 H454 0.949 . S
C456 C455 1.385 . S
H457 C455 0.950 . S
H458 C442 0.951 . S
H459 C444 0.951 . S
H460 C446 0.951 . S
H461 C447 0.950 . S
H462 C448 0.950 . S
H463 C449 0.950 . S
H464 C451 0.950 . S
H465 C452 0.951 . S
C466 C467 1.386 . S
C466 C468 1.383 . S
C466 H482 0.951 . S
C467 C466 1.386 . S
C467 C471 1.383 . S
C468 C466 1.383 . S
C468 C469 1.402 . S
C468 H483 0.951 . S
C469 C468 1.402 . S
C469 C470 1.375 . S
C469 C472 1.481 . S
C470 C469 1.375 . S
C470 C471 1.367 . S
C470 H484 0.951 . S
C471 C467 1.383 . S
C471 C470 1.367 . S
C471 H485 0.950 . S
C472 C469 1.481 . S
C472 C473 1.297 . S
C472 H486 0.950 . S
C473 C472 1.297 . S
C473 C474 1.479 . S
C473 H487 0.950 . S
C474 C473 1.479 . S
C474 C475 1.375 . S
C474 C480 1.404 . S
C475 C474 1.375 . S
C475 C476 1.369 . S
C475 H488 0.950 . S
C476 C475 1.369 . S
C476 C477 1.392 . S
C476 H489 0.951 . S
C477 C476 1.392 . S
C477 C479 1.384 . S
H478 C480 0.949 . S
C479 C477 1.384 . S
C479 C480 1.385 . S
C479 H481 0.950 . S
C480 C474 1.404 . S
C480 H478 0.949 . S
C480 C479 1.385 . S
H481 C479 0.950 . S
H482 C466 0.951 . S
H483 C468 0.951 . S
H484 C470 0.951 . S
H485 C471 0.950 . S
H486 C472 0.950 . S
H487 C473 0.950 . S
H488 C475 0.950 . S
H489 C476 0.951 . S
C213 C173 1.605 . S
C203 C138 1.614 . S
C227 C21 1.600 . S
C237 C196 1.640 . S
C251 C60 1.617 . S
C261 C172 1.648 . S
C275 C99 1.602 . S
C285 C195 1.655 . S
C309 C176 1.581 . S
C299 C16 1.625 . S
C333 C198 1.637 . S
C323 C40 1.621 . S
C347 C79 1.654 . S
C357 C177 1.542 . S
C371 C133 1.601 . S
C381 C197 1.569 . S
C405 C200 1.556 . S
C395 C55 1.656 . S
C429 C175 1.596 . S
C419 C94 1.643 . S
C453 C199 1.636 . S
C443 C118 1.596 . S
C467 C1 1.603 . S
C477 C174 1.611 . S
