# Generated by pormake.
# Topology cml, (3,6)-cn, num edge types: 1
# Building blocks:
#     Node 0, Type 0, BuildingBlock: CUQRIR_clean_linker_1, # of connection points: 3
#     Node 1, Type 0, BuildingBlock: CUQRIR_clean_linker_1, # of connection points: 3
#     Node 2, Type 0, BuildingBlock: CUQRIR_clean_linker_1, # of connection points: 3
#     Node 3, Type 0, BuildingBlock: CUQRIR_clean_linker_1, # of connection points: 3
#     Node 4, Type 0, BuildingBlock: CUQRIR_clean_linker_1, # of connection points: 3
#     Node 5, Type 0, BuildingBlock: CUQRIR_clean_linker_1, # of connection points: 3
#     Node 6, Type 0, BuildingBlock: CUQRIR_clean_linker_1, # of connection points: 3
#     Node 7, Type 0, BuildingBlock: CUQRIR_clean_linker_1, # of connection points: 3
#     Node 8, Type 1, BuildingBlock: OJICUG_clean_sbu_0, # of connection points: 6
#     Node 9, Type 1, BuildingBlock: OJICUG_clean_sbu_0, # of connection points: 6
#     Node 10, Type 1, BuildingBlock: OJICUG_clean_sbu_0, # of connection points: 6
#     Node 11, Type 1, BuildingBlock: OJICUG_clean_sbu_0, # of connection points: 6
#     Edge 12, Type (0, 1), BuildingBlock: ZUJKAS_clean_linker_0, # of connection points: 2
#     Edge 13, Type (0, 1), BuildingBlock: ZUJKAS_clean_linker_0, # of connection points: 2
#     Edge 14, Type (0, 1), BuildingBlock: ZUJKAS_clean_linker_0, # of connection points: 2
#     Edge 15, Type (0, 1), BuildingBlock: ZUJKAS_clean_linker_0, # of connection points: 2
#     Edge 16, Type (0, 1), BuildingBlock: ZUJKAS_clean_linker_0, # of connection points: 2
#     Edge 17, Type (0, 1), BuildingBlock: ZUJKAS_clean_linker_0, # of connection points: 2
#     Edge 18, Type (0, 1), BuildingBlock: ZUJKAS_clean_linker_0, # of connection points: 2
#     Edge 19, Type (0, 1), BuildingBlock: ZUJKAS_clean_linker_0, # of connection points: 2
#     Edge 20, Type (0, 1), BuildingBlock: ZUJKAS_clean_linker_0, # of connection points: 2
#     Edge 21, Type (0, 1), BuildingBlock: ZUJKAS_clean_linker_0, # of connection points: 2
#     Edge 22, Type (0, 1), BuildingBlock: ZUJKAS_clean_linker_0, # of connection points: 2
#     Edge 23, Type (0, 1), BuildingBlock: ZUJKAS_clean_linker_0, # of connection points: 2
#     Edge 24, Type (0, 1), BuildingBlock: ZUJKAS_clean_linker_0, # of connection points: 2
#     Edge 25, Type (0, 1), BuildingBlock: ZUJKAS_clean_linker_0, # of connection points: 2
#     Edge 26, Type (0, 1), BuildingBlock: ZUJKAS_clean_linker_0, # of connection points: 2
#     Edge 27, Type (0, 1), BuildingBlock: ZUJKAS_clean_linker_0, # of connection points: 2
#     Edge 28, Type (0, 1), BuildingBlock: ZUJKAS_clean_linker_0, # of connection points: 2
#     Edge 29, Type (0, 1), BuildingBlock: ZUJKAS_clean_linker_0, # of connection points: 2
#     Edge 30, Type (0, 1), BuildingBlock: ZUJKAS_clean_linker_0, # of connection points: 2
#     Edge 31, Type (0, 1), BuildingBlock: ZUJKAS_clean_linker_0, # of connection points: 2
#     Edge 32, Type (0, 1), BuildingBlock: ZUJKAS_clean_linker_0, # of connection points: 2
#     Edge 33, Type (0, 1), BuildingBlock: ZUJKAS_clean_linker_0, # of connection points: 2
#     Edge 34, Type (0, 1), BuildingBlock: ZUJKAS_clean_linker_0, # of connection points: 2
#     Edge 35, Type (0, 1), BuildingBlock: ZUJKAS_clean_linker_0, # of connection points: 2
# Relax obj value: 0.003
# Max RMSD: 0.061
# Mean RMSD: 0.046
data_MOF--net-cml--node1-OJICUG_clean_sbu_0--node2-CUQRIR_clean_linker_1--edge1-ZUJKAS_clean_linker_0
_symmetry_space_group_name_H-M    P1
_symmetry_Int_Tables_number       1
_symmetry_cell_setting            triclinic
loop_
_symmetry_equiv_pos_as_xyz
'x, y, z'
_cell_length_a     49.835524
_cell_length_b     48.896701
_cell_length_c     42.450948
_cell_angle_alpha  90.012084
_cell_angle_beta   90.010399
_cell_angle_gamma 89.939005
loop_
_atom_site_label
_atom_site_type_symbol
_atom_site_fract_x
_atom_site_fract_y
_atom_site_fract_z
_atom_type_partial_charge
C0 C 0.24073 0.35598 0.02795 0.0
N1 N 0.26068 0.37471 0.02944 0.0
N2 N 0.22925 0.35613 0.99902 0.0
C3 C 0.23429 0.33574 0.05354 0.0
C4 C 0.24295 0.37552 0.98301 0.0
N5 N 0.2622 0.38664 0.00139 0.0
C6 C 0.23663 0.38441 0.94988 0.0
H7 H 0.22676 0.31626 0.04348 0.0
H8 H 0.21841 0.34449 0.06885 0.0
H9 H 0.25216 0.33144 0.06832 0.0
H10 H 0.21515 0.38087 0.94435 0.0
H11 H 0.24895 0.37231 0.93314 0.0
H12 H 0.2414 0.40638 0.94654 0.0
C13 C 0.75161 0.6452 0.52678 0.0
N14 N 0.73218 0.62595 0.52858 0.0
N15 N 0.76504 0.64311 0.49916 0.0
C16 C 0.75839 0.66516 0.55253 0.0
C17 C 0.75314 0.62188 0.48422 0.0
N18 N 0.73329 0.61132 0.50223 0.0
C19 C 0.75905 0.61331 0.45087 0.0
H20 H 0.74618 0.68395 0.54942 0.0
H21 H 0.77991 0.67091 0.55154 0.0
H22 H 0.75381 0.65636 0.57601 0.0
H23 H 0.77453 0.59699 0.45123 0.0
H24 H 0.76683 0.63071 0.43683 0.0
H25 H 0.74085 0.60509 0.43919 0.0
C26 C 0.75348 0.3524 0.02795 0.0
N27 N 0.73392 0.3715 0.03065 0.0
N28 N 0.76665 0.35528 1.00025 0.0
C29 C 0.76068 0.33185 0.05292 0.0
C30 C 0.75446 0.37682 0.98621 0.0
N31 N 0.73472 0.38681 0.00482 0.0
C32 C 0.76 0.38626 0.95308 0.0
H33 H 0.78222 0.32624 0.0514 0.0
H34 H 0.74857 0.31308 0.04937 0.0
H35 H 0.75631 0.34005 0.07675 0.0
H36 H 0.76779 0.36927 0.93836 0.0
H37 H 0.77535 0.40266 0.9538 0.0
H38 H 0.74163 0.39464 0.9419 0.0
C39 C 0.24237 0.64569 0.53038 0.0
N40 N 0.26231 0.62698 0.5326 0.0
N41 N 0.23096 0.64485 0.50147 0.0
C42 C 0.23314 0.6639 0.55681 0.0
C43 C 0.24464 0.62498 0.48612 0.0
N44 N 0.2636 0.61395 0.50514 0.0
C45 C 0.24142 0.6185 0.45164 0.0
H46 H 0.23666 0.65402 0.57998 0.0
H47 H 0.2115 0.66883 0.55432 0.0
H48 H 0.24463 0.68331 0.55607 0.0
H49 H 0.23369 0.63644 0.43846 0.0
H50 H 0.22684 0.60152 0.44904 0.0
H51 H 0.26077 0.61203 0.44109 0.0
C52 C 0.74176 0.85587 0.02526 0.0
N53 N 0.76187 0.87444 0.02676 0.0
N54 N 0.73001 0.85643 0.99648 0.0
C55 C 0.73546 0.83535 0.0506 0.0
C56 C 0.7437 0.87589 0.98058 0.0
N57 N 0.76322 0.88665 0.99885 0.0
C58 C 0.73721 0.88512 0.94763 0.0
H59 H 0.72746 0.81613 0.04037 0.0
H60 H 0.72 0.84411 0.06647 0.0
H61 H 0.75353 0.83055 0.06484 0.0
H62 H 0.71568 0.88171 0.94222 0.0
H63 H 0.74939 0.87316 0.93063 0.0
H64 H 0.74204 0.90711 0.94453 0.0
C65 C 0.25399 0.14282 0.52541 0.0
N66 N 0.23434 0.12378 0.52742 0.0
N67 N 0.26664 0.14109 0.4973 0.0
C68 C 0.26019 0.16385 0.55022 0.0
C69 C 0.25409 0.12033 0.48225 0.0
N70 N 0.23462 0.1096 0.50069 0.0
C71 C 0.25968 0.11165 0.44884 0.0
H72 H 0.24877 0.1828 0.54497 0.0
H73 H 0.28184 0.16902 0.5502 0.0
H74 H 0.25441 0.15644 0.57397 0.0
H75 H 0.27334 0.12595 0.43652 0.0
H76 H 0.24056 0.10999 0.43555 0.0
H77 H 0.26924 0.09117 0.449 0.0
C78 C 0.25313 0.85478 0.02639 0.0
N79 N 0.23317 0.87359 0.02697 0.0
N80 N 0.26629 0.85565 0.99852 0.0
C81 C 0.25885 0.83464 0.05236 0.0
C82 C 0.25348 0.87537 0.982 0.0
N83 N 0.23321 0.88616 0.99919 0.0
C84 C 0.2602 0.88324 0.94866 0.0
H85 H 0.26961 0.84528 0.07166 0.0
H86 H 0.27157 0.81744 0.04422 0.0
H87 H 0.23978 0.82652 0.06207 0.0
H88 H 0.24953 0.86929 0.9323 0.0
H89 H 0.28202 0.88121 0.94416 0.0
H90 H 0.25392 0.90457 0.94359 0.0
C91 C 0.74057 0.14346 0.52626 0.0
N92 N 0.7605 0.12476 0.52891 0.0
N93 N 0.72838 0.1413 0.4979 0.0
C94 C 0.73362 0.16457 0.55071 0.0
C95 C 0.74154 0.12065 0.48333 0.0
N96 N 0.76091 0.11038 0.50231 0.0
C97 C 0.73656 0.11156 0.44995 0.0
H98 H 0.73928 0.15751 0.57465 0.0
H99 H 0.71187 0.1693 0.55028 0.0
H100 H 0.74468 0.18371 0.54541 0.0
H101 H 0.72333 0.12588 0.43696 0.0
H102 H 0.72672 0.09123 0.45024 0.0
H103 H 0.7559 0.10942 0.43722 0.0
Sc104 Sc -0.0021 0.84389 0.31417 0.0
Sc105 Sc 0.99671 0.91602 0.31714 0.0
Sc106 Sc 0.99752 0.87771 0.38748 0.0
O107 O 0.99736 0.87921 0.33958 0.0
C108 C 0.95786 0.82863 0.37007 0.0
C109 C 0.95703 0.88099 0.27439 0.0
C110 C 0.95733 0.92715 0.37526 0.0
C111 C 0.03716 0.88161 0.27398 0.0
C112 C 0.03782 0.8292 0.37059 0.0
C113 C 0.03717 0.92755 0.37391 0.0
O114 O 0.9666 0.82549 0.34214 0.0
O115 O 0.96503 0.90363 0.28574 0.0
O116 O 0.96637 0.90771 0.39201 0.0
O117 O 0.02936 0.85835 0.28371 0.0
O118 O 0.0289 0.84762 0.38892 0.0
O119 O 0.02852 0.93228 0.34623 0.0
O120 O 0.0285 0.82533 0.34307 0.0
O121 O 0.02686 0.90398 0.28336 0.0
O122 O 0.02772 0.90883 0.39144 0.0
O123 O 0.96734 0.85812 0.28205 0.0
O124 O 0.96719 0.84648 0.38888 0.0
O125 O 0.96626 0.93262 0.34792 0.0
Sc126 Sc -0.00137 0.1539 0.81282 0.0
Sc127 Sc -0.00206 0.08172 0.81713 0.0
Sc128 Sc -0.00206 0.12106 0.88665 0.0
O129 O -0.00183 0.1189 0.83883 0.0
C130 C 0.03839 0.1692 0.86905 0.0
C131 C 0.0383 0.1155 0.77343 0.0
C132 C 0.03791 0.07109 0.87471 0.0
C133 C 0.95816 0.11632 0.77349 0.0
C134 C 0.95858 0.17009 0.86856 0.0
C135 C 0.95772 0.07157 0.87455 0.0
O136 O 0.02976 0.1724 0.84109 0.0
O137 O 0.02901 0.09319 0.78429 0.0
O138 O 0.02871 0.09051 0.89142 0.0
O139 O 0.96759 0.13944 0.78165 0.0
O140 O 0.96728 0.15196 0.88741 0.0
O141 O 0.96688 0.06576 0.84739 0.0
O142 O 0.96787 0.17321 0.84089 0.0
O143 O 0.96699 0.09381 0.78442 0.0
O144 O 0.96689 0.09101 0.89118 0.0
O145 O 0.0294 0.1388 0.78171 0.0
O146 O 0.02884 0.15147 0.88779 0.0
O147 O 0.02888 0.0655 0.84742 0.0
Sc148 Sc 0.49671 0.34568 0.31504 0.0
Sc149 Sc 0.4969 0.41781 0.3191 0.0
Sc150 Sc 0.4977 0.37865 0.3888 0.0
O151 O 0.49709 0.38072 0.34095 0.0
C152 C 0.45676 0.33094 0.37156 0.0
C153 C 0.45639 0.38358 0.27603 0.0
C154 C 0.45819 0.42919 0.37737 0.0
C155 C 0.5366 0.3834 0.27518 0.0
C156 C 0.5367 0.32925 0.37047 0.0
C157 C 0.53818 0.42766 0.37583 0.0
O158 O 0.46606 0.32721 0.34396 0.0
O159 O 0.46576 0.40601 0.28647 0.0
O160 O 0.46815 0.41032 0.3943 0.0
O161 O 0.52721 0.36027 0.28331 0.0
O162 O 0.5274 0.34684 0.38959 0.0
O163 O 0.52801 0.43398 0.34929 0.0
O164 O 0.52807 0.32672 0.34245 0.0
O165 O 0.52787 0.40588 0.2863 0.0
O166 O 0.52973 0.40781 0.39238 0.0
O167 O 0.46541 0.36038 0.28447 0.0
O168 O 0.46581 0.3491 0.39017 0.0
O169 O 0.4659 0.43391 0.34935 0.0
Sc170 Sc 0.49815 0.65181 0.81595 0.0
Sc171 Sc 0.49858 0.57967 0.82081 0.0
Sc172 Sc 0.4989 0.61948 0.89003 0.0
O173 O 0.49856 0.61698 0.84223 0.0
C174 C 0.53858 0.66798 0.87104 0.0
C175 C 0.53776 0.61364 0.77604 0.0
C176 C 0.53934 0.57 0.87791 0.0
C177 C 0.45758 0.61355 0.77786 0.0
C178 C 0.45868 0.66779 0.87239 0.0
C179 C 0.45913 0.56938 0.87886 0.0
O180 O 0.52976 0.6706 0.84308 0.0
O181 O 0.52933 0.59126 0.78762 0.0
O182 O 0.53035 0.58966 0.8944 0.0
O183 O 0.46649 0.63687 0.78603 0.0
O184 O 0.46754 0.64964 0.89111 0.0
O185 O 0.46779 0.56376 0.85143 0.0
O186 O 0.46791 0.67112 0.84474 0.0
O187 O 0.46727 0.59123 0.78827 0.0
O188 O 0.46854 0.58877 0.89539 0.0
O189 O 0.5283 0.6368 0.78399 0.0
O190 O 0.52922 0.65057 0.89033 0.0
O191 O 0.52983 0.56385 0.851 0.0
H192 H 0.1797 0.34542 0.02116 0.0
H193 H 0.14728 0.31257 0.99909 0.0
H194 H 0.20391 0.29175 0.926 0.0
H195 H 0.23635 0.32388 0.94857 0.0
H196 H 0.12509 0.31166 0.93809 0.0
H197 H 0.18338 0.21736 0.96309 0.0
H198 H 0.19093 0.24981 0.98133 0.0
H199 H 0.20184 0.24285 0.94176 0.0
C200 C 0.18508 0.33359 1.00054 0.0
C201 C 0.21026 0.33703 0.98637 0.0
C202 C 0.16667 0.31502 0.98792 0.0
C203 C 0.17339 0.29957 0.96115 0.0
C204 C 0.19853 0.30317 0.94694 0.0
H205 H 0.06371 0.2112 0.838 0.0
H206 H 0.09691 0.24298 0.85957 0.0
C207 C 0.21688 0.32165 0.95957 0.0
C208 C 0.154 0.27998 0.94765 0.0
H209 H 0.1455 0.21259 0.9295 0.0
C210 C 0.12945 0.28997 0.93629 0.0
C211 C 0.15976 0.25172 0.94563 0.0
C212 C 0.18529 0.23969 0.95886 0.0
C213 C 0.11054 0.27241 0.92253 0.0
C214 C 0.11665 0.24427 0.91966 0.0
C215 C 0.14107 0.23425 0.93139 0.0
C216 C 0.09742 0.2246 0.90594 0.0
C217 C 0.08401 0.28403 0.91178 0.0
C218 C 0.08749 0.20325 0.92457 0.0
C219 C 0.06877 0.18496 0.91232 0.0
C220 C 0.05962 0.18762 0.88109 0.0
C221 C 0.07018 0.20865 0.86218 0.0
C222 C 0.08901 0.22694 0.87451 0.0
H223 H 0.08 0.30442 0.92236 0.0
H224 H 0.0843 0.28644 0.88579 0.0
H225 H 0.06724 0.27009 0.91796 0.0
H226 H 0.09388 0.20102 0.94884 0.0
H227 H 0.0612 0.16898 0.92757 0.0
H228 H 0.81366 0.62954 0.47631 0.0
H229 H 0.84687 0.66073 0.453 0.0
H230 H 0.79404 0.72897 0.47086 0.0
H231 H 0.76069 0.69766 0.49335 0.0
H232 H 0.81535 0.72805 0.40969 0.0
H233 H 0.89469 0.71546 0.50058 0.0
H234 H 0.88282 0.68414 0.48338 0.0
H235 H 0.86048 0.70463 0.50679 0.0
C236 C 0.80936 0.65123 0.47525 0.0
C237 C 0.78494 0.66141 0.48676 0.0
C238 C 0.82827 0.66899 0.46217 0.0
C239 C 0.823 0.69717 0.46061 0.0
C240 C 0.79852 0.7073 0.47204 0.0
H241 H 0.93276 0.82993 0.42736 0.0
H242 H 0.89942 0.79805 0.44773 0.0
C243 C 0.77964 0.68955 0.48506 0.0
C244 C 0.84271 0.71613 0.44649 0.0
H245 H 0.90589 0.74171 0.45563 0.0
C246 C 0.83517 0.73106 0.41967 0.0
C247 C 0.86839 0.72013 0.45983 0.0
C248 C 0.8771 0.70545 0.48939 0.0
C249 C 0.85273 0.74991 0.40572 0.0
C250 C 0.87859 0.75357 0.41875 0.0
C251 C 0.88609 0.73868 0.44561 0.0
C252 C 0.89795 0.77336 0.40549 0.0
C253 C 0.84328 0.76619 0.37763 0.0
C254 C 0.90812 0.77004 0.37492 0.0
C255 C 0.92718 0.7883 0.36308 0.0
C256 C 0.93655 0.81009 0.38174 0.0
C257 C 0.92607 0.81341 0.4123 0.0
C258 C 0.90702 0.79519 0.42405 0.0
H259 H 0.82109 0.76566 0.37516 0.0
H260 H 0.8498 0.78784 0.37945 0.0
H261 H 0.85216 0.75741 0.35589 0.0
H262 H 0.90168 0.75303 0.36042 0.0
H263 H 0.9349 0.78502 0.33953 0.0
H264 H 0.81503 0.36978 0.97763 0.0
H265 H 0.84814 0.33956 0.95233 0.0
H266 H 0.79597 0.27052 0.96805 0.0
H267 H 0.76275 0.30086 0.99257 0.0
H268 H 0.87431 0.29368 0.97725 0.0
H269 H 0.8124 0.26623 0.87337 0.0
H270 H 0.80447 0.29477 0.89874 0.0
H271 H 0.79588 0.26052 0.91038 0.0
C272 C 0.8108 0.34814 0.97553 0.0
C273 C 0.78657 0.33747 0.98693 0.0
C274 C 0.8296 0.33096 0.96119 0.0
C275 C 0.82426 0.30292 0.9579 0.0
C276 C 0.80022 0.29218 0.96984 0.0
H277 H 0.93294 0.16936 0.92554 0.0
H278 H 0.90066 0.20245 0.94585 0.0
C279 C 0.78146 0.30937 0.98415 0.0
C280 C 0.84404 0.28471 0.94258 0.0
H281 H 0.85187 0.23957 0.88191 0.0
C282 C 0.8695 0.28198 0.95629 0.0
C283 C 0.83779 0.26983 0.91496 0.0
C284 C 0.81125 0.27313 0.89828 0.0
C285 C 0.88865 0.26403 0.94367 0.0
C286 C 0.88193 0.24816 0.91695 0.0
C287 C 0.8568 0.25155 0.90262 0.0
C288 C 0.90063 0.22757 0.90392 0.0
C289 C 0.91594 0.26229 0.95897 0.0
C290 C 0.91052 0.23023 0.87315 0.0
C291 C 0.92892 0.21123 0.8613 0.0
C292 C 0.93762 0.18918 0.88003 0.0
C293 C 0.92692 0.18619 0.91052 0.0
C294 C 0.90855 0.20516 0.92228 0.0
H295 H 0.92029 0.28066 0.97349 0.0
H296 H 0.91657 0.24415 0.97466 0.0
H297 H 0.93198 0.25999 0.94101 0.0
H298 H 0.90442 0.24731 0.85855 0.0
H299 H 0.93666 0.21414 0.8377 0.0
H300 H 0.23339 0.69971 0.49958 0.0
H301 H 0.20008 0.73086 0.4765 0.0
H302 H 0.15113 0.66174 0.45035 0.0
H303 H 0.18434 0.63066 0.47404 0.0
H304 H 0.18167 0.73118 0.41282 0.0
H305 H 0.09934 0.71318 0.49875 0.0
H306 H 0.13374 0.70381 0.50668 0.0
H307 H 0.11352 0.68298 0.4812 0.0
C308 C 0.21529 0.69135 0.48928 0.0
C309 C 0.21108 0.663 0.48874 0.0
C310 C 0.19646 0.70902 0.47595 0.0
C311 C 0.17309 0.69856 0.46204 0.0
C312 C 0.16888 0.67019 0.4614 0.0
H313 H 0.062 0.78637 0.33981 0.0
H314 H 0.09547 0.75464 0.3609 0.0
C315 C 0.18778 0.65251 0.47471 0.0
C316 C 0.15339 0.71743 0.44772 0.0
H317 H 0.08925 0.74105 0.45477 0.0
C318 C 0.16144 0.73336 0.42191 0.0
C319 C 0.12716 0.72029 0.4599 0.0
C320 C 0.11787 0.70436 0.48832 0.0
C321 C 0.14381 0.75212 0.40783 0.0
C322 C 0.11746 0.75471 0.41975 0.0
C323 C 0.10946 0.73883 0.44562 0.0
C324 C 0.09806 0.77441 0.40639 0.0
C325 C 0.15366 0.76942 0.38078 0.0
C326 C 0.08836 0.79586 0.42511 0.0
C327 C 0.06923 0.81397 0.41323 0.0
C328 C 0.05926 0.81085 0.38241 0.0
C329 C 0.06927 0.78944 0.36359 0.0
C330 C 0.08847 0.77134 0.37553 0.0
H331 H 0.1759 0.76916 0.3789 0.0
H332 H 0.14526 0.76137 0.35842 0.0
H333 H 0.14686 0.79093 0.38345 0.0
H334 H 0.09553 0.7985 0.44902 0.0
H335 H 0.06202 0.83018 0.42843 0.0
H336 H 0.73689 0.82455 0.94572 0.0
H337 H 0.70424 0.79286 0.92274 0.0
H338 H 0.64797 0.81301 0.99648 0.0
H339 H 0.68059 0.84543 0.01892 0.0
H340 H 0.68123 0.74748 0.95013 0.0
H341 H 0.60386 0.8237 0.91577 0.0
H342 H 0.63766 0.83326 0.92638 0.0
H343 H 0.61361 0.82512 0.95648 0.0
C344 C 0.71739 0.82239 0.95666 0.0
C345 C 0.7109 0.83751 0.98369 0.0
C346 C 0.69888 0.80425 0.94372 0.0
C347 C 0.67358 0.80095 0.95764 0.0
C348 C 0.66721 0.81572 0.98504 0.0
H349 H 0.56266 0.66836 0.92889 0.0
H350 H 0.59616 0.70034 0.94851 0.0
C351 C 0.68578 0.83396 0.99796 0.0
C352 C 0.65425 0.78148 0.94376 0.0
H353 H 0.592 0.77686 0.91075 0.0
C354 C 0.66173 0.75389 0.94143 0.0
C355 C 0.62906 0.79005 0.93201 0.0
C356 C 0.62059 0.81968 0.93246 0.0
C357 C 0.64446 0.73446 0.92814 0.0
C358 C 0.61889 0.74285 0.91741 0.0
C359 C 0.61158 0.77053 0.91919 0.0
C360 C 0.59916 0.72309 0.90496 0.0
C361 C 0.65384 0.7052 0.92536 0.0
C362 C 0.58945 0.72559 0.87408 0.0
C363 C 0.57012 0.70739 0.86273 0.0
C364 C 0.56004 0.68652 0.88223 0.0
C365 C 0.57 0.68409 0.91314 0.0
C366 C 0.58928 0.70226 0.9244 0.0
H367 H 0.67607 0.70366 0.92643 0.0
H368 H 0.6455 0.69315 0.94521 0.0
H369 H 0.64682 0.69584 0.903 0.0
H370 H 0.5968 0.74167 0.8588 0.0
H371 H 0.56286 0.70992 0.83886 0.0
H372 H 0.25596 0.17809 0.45252 0.0
H373 H 0.28761 0.21074 0.42897 0.0
H374 H 0.3502 0.18056 0.49015 0.0
H375 H 0.31851 0.14742 0.51293 0.0
H376 H 0.31579 0.25196 0.45655 0.0
H377 H 0.38528 0.17601 0.40387 0.0
H378 H 0.35255 0.16684 0.41865 0.0
H379 H 0.38022 0.17128 0.44538 0.0
C380 C 0.27656 0.1785 0.46062 0.0
C381 C 0.28514 0.16039 0.48414 0.0
C382 C 0.29455 0.19706 0.44733 0.0
C383 C 0.32135 0.19774 0.45746 0.0
C384 C 0.32977 0.17992 0.48149 0.0
H385 H 0.43559 0.32826 0.43096 0.0
H386 H 0.40174 0.29659 0.45053 0.0
C387 C 0.31176 0.16124 0.49464 0.0
C388 C 0.34029 0.21752 0.44327 0.0
H389 H 0.39999 0.22232 0.40434 0.0
C390 C 0.33415 0.2455 0.44499 0.0
C391 C 0.36397 0.20898 0.42775 0.0
C392 C 0.37082 0.17913 0.42347 0.0
C393 C 0.35137 0.26525 0.4322 0.0
C394 C 0.37563 0.25677 0.41791 0.0
C395 C 0.38148 0.22876 0.41557 0.0
C396 C 0.39546 0.27661 0.40564 0.0
C397 C 0.34325 0.29496 0.43376 0.0
C398 C 0.40355 0.27555 0.37401 0.0
C399 C 0.42315 0.29347 0.36275 0.0
C400 C 0.43508 0.31275 0.38298 0.0
C401 C 0.42673 0.31385 0.41463 0.0
C402 C 0.40724 0.29584 0.42587 0.0
H403 H 0.32121 0.29729 0.43669 0.0
H404 H 0.3531 0.30469 0.45435 0.0
H405 H 0.34951 0.30612 0.4122 0.0
H406 H 0.39477 0.26075 0.35807 0.0
H407 H 0.42908 0.29203 0.33826 0.0
H408 H 0.31809 0.86633 0.98643 0.0
H409 H 0.3511 0.8347 0.9632 0.0
H410 H 0.29114 0.77106 0.96144 0.0
H411 H 0.25816 0.80303 0.98385 0.0
H412 H 0.37018 0.7857 0.98512 0.0
H413 H 0.31798 0.77138 0.87097 0.0
H414 H 0.30907 0.79817 0.8983 0.0
H415 H 0.29724 0.76383 0.9044 0.0
C416 C 0.31221 0.84554 0.98098 0.0
C417 C 0.2859 0.83683 0.9867 0.0
C418 C 0.3309 0.82757 0.9678 0.0
C419 C 0.32339 0.8007 0.9601 0.0
C420 C 0.29716 0.79187 0.96653 0.0
H421 H 0.42959 0.66379 0.92686 0.0
H422 H 0.39673 0.69624 0.94741 0.0
C423 C 0.27848 0.80991 0.97955 0.0
C424 C 0.34312 0.78177 0.94583 0.0
H425 H 0.35418 0.74092 0.88191 0.0
C426 C 0.36677 0.776 0.96248 0.0
C427 C 0.33878 0.7695 0.91607 0.0
C428 C 0.31452 0.77621 0.89622 0.0
C429 C 0.38597 0.75778 0.9505 0.0
C430 C 0.38105 0.74456 0.92141 0.0
C431 C 0.35771 0.75082 0.9044 0.0
C432 C 0.4 0.72428 0.90818 0.0
C433 C 0.4115 0.75316 0.96889 0.0
C434 C 0.41188 0.72874 0.87867 0.0
C435 C 0.43049 0.71007 0.86663 0.0
C436 C 0.43753 0.68659 0.88393 0.0
C437 C 0.4249 0.68181 0.91306 0.0
C438 C 0.40622 0.70041 0.92496 0.0
H439 H 0.41549 0.7702 0.98557 0.0
H440 H 0.40959 0.73407 0.98283 0.0
H441 H 0.42901 0.75098 0.95292 0.0
H442 H 0.40716 0.74697 0.86524 0.0
H443 H 0.43976 0.71438 0.8441 0.0
H444 H 0.7386 0.17811 0.45278 0.0
H445 H 0.70655 0.21033 0.42906 0.0
H446 H 0.64408 0.17904 0.48952 0.0
H447 H 0.67619 0.14632 0.51249 0.0
H448 H 0.62774 0.18497 0.4278 0.0
H449 H 0.67768 0.27939 0.47039 0.0
H450 H 0.69929 0.25728 0.4481 0.0
H451 H 0.68606 0.24589 0.48525 0.0
C452 C 0.71797 0.17828 0.46079 0.0
C453 C 0.70958 0.16007 0.48429 0.0
C454 C 0.69979 0.19668 0.4475 0.0
C455 C 0.67307 0.19734 0.45791 0.0
C456 C 0.66465 0.17891 0.48128 0.0
H457 H 0.55633 0.32473 0.43035 0.0
H458 H 0.58951 0.29234 0.44997 0.0
C459 C 0.68285 0.16039 0.49443 0.0
C460 C 0.6538 0.21705 0.44419 0.0
H461 H 0.64204 0.28522 0.43392 0.0
C462 C 0.6308 0.2069 0.42915 0.0
C463 C 0.65779 0.24563 0.44631 0.0
C464 C 0.6814 0.25776 0.46364 0.0
C465 C 0.61166 0.2246 0.416 0.0
C466 C 0.61599 0.25316 0.41742 0.0
C467 C 0.63895 0.2633 0.43257 0.0
C468 C 0.59627 0.27299 0.40483 0.0
C469 C 0.58667 0.21258 0.40149 0.0
C470 C 0.58937 0.27313 0.37278 0.0
C471 C 0.57021 0.29157 0.36141 0.0
C472 C 0.55784 0.31038 0.3819 0.0
C473 C 0.56537 0.31055 0.41386 0.0
C474 C 0.58437 0.29205 0.42517 0.0
H475 H 0.58332 0.19114 0.40921 0.0
H476 H 0.56869 0.22488 0.40768 0.0
H477 H 0.58875 0.21257 0.37546 0.0
H478 H 0.59879 0.25897 0.35656 0.0
H479 H 0.56506 0.29102 0.33664 0.0
H480 H 0.29541 0.3825 0.95181 0.0
H481 H 0.32809 0.41658 0.93392 0.0
H482 H 0.30728 0.46842 0.01244 0.0
H483 H 0.27397 0.43443 0.02993 0.0
H484 H 0.31306 0.4769 0.92203 0.0
H485 H 0.39334 0.45752 0.01083 0.0
H486 H 0.36923 0.43154 1.00012 0.0
H487 H 0.35899 0.45996 0.0239 0.0
C488 C 0.29772 0.4013 0.96499 0.0
C489 C 0.28209 0.40622 0.99187 0.0
C490 C 0.3164 0.42058 0.95494 0.0
C491 C 0.31997 0.44488 0.97191 0.0
C492 C 0.30479 0.44966 0.99919 0.0
H493 H 0.43519 0.57504 0.93654 0.0
H494 H 0.4001 0.54652 0.95949 0.0
C495 C 0.28591 0.43037 0.00914 0.0
C496 C 0.33911 0.46544 0.96026 0.0
H497 H 0.40206 0.49069 0.97196 0.0
C498 C 0.33247 0.48011 0.93298 0.0
C499 C 0.36423 0.46951 0.97485 0.0
C500 C 0.37213 0.45381 0.004 0.0
C501 C 0.35056 0.49869 0.9196 0.0
C502 C 0.37612 0.5021 0.93352 0.0
C503 C 0.38247 0.4879 0.9613 0.0
C504 C 0.39683 0.51973 0.91914 0.0
C505 C 0.34211 0.51461 0.89079 0.0
C506 C 0.4067 0.51394 0.88892 0.0
C507 C 0.42673 0.53021 0.87563 0.0
C508 C 0.43741 0.55245 0.89248 0.0
C509 C 0.42744 0.55811 0.92284 0.0
C510 C 0.4074 0.54184 0.93606 0.0
H511 H 0.31991 0.51556 0.88855 0.0
H512 H 0.3501 0.53579 0.89146 0.0
H513 H 0.35013 0.50436 0.86945 0.0
H514 H 0.39914 0.4966 0.87575 0.0
H515 H 0.434 0.52516 0.8523 0.0
H516 H 0.67994 0.61754 0.4966 0.0
H517 H 0.64781 0.58346 0.47718 0.0
H518 H 0.7122 0.52503 0.46674 0.0
H519 H 0.7443 0.55943 0.4859 0.0
H520 H 0.68078 0.52827 0.41435 0.0
H521 H 0.6172 0.51645 0.52051 0.0
H522 H 0.62035 0.55139 0.50813 0.0
H523 H 0.64952 0.53307 0.52158 0.0
C524 C 0.68698 0.59723 0.49062 0.0
C525 C 0.71432 0.59079 0.49283 0.0
C526 C 0.66872 0.5778 0.47964 0.0
C527 C 0.67758 0.55158 0.47098 0.0
C528 C 0.70496 0.5451 0.47346 0.0
H529 H 0.56882 0.41762 0.42808 0.0
H530 H 0.60407 0.44634 0.45034 0.0
C531 C 0.7232 0.5646 0.48434 0.0
C532 C 0.6585 0.53147 0.45768 0.0
H533 H 0.59958 0.49842 0.47242 0.0
C534 C 0.66314 0.52155 0.42712 0.0
C535 C 0.6357 0.52248 0.47456 0.0
C536 C 0.6305 0.53117 0.50812 0.0
C537 C 0.64517 0.5034 0.41264 0.0
C538 C 0.6217 0.49546 0.42895 0.0
C539 C 0.61744 0.5048 0.45982 0.0
C540 C 0.60118 0.47757 0.41441 0.0
C541 C 0.65164 0.49273 0.38016 0.0
C542 C 0.58785 0.48564 0.38681 0.0
C543 C 0.56775 0.4692 0.37386 0.0
C544 C 0.56038 0.44452 0.38854 0.0
C545 C 0.5739 0.4365 0.41616 0.0
C546 C 0.59407 0.45289 0.42896 0.0
H547 H 0.67344 0.49427 0.37493 0.0
H548 H 0.64538 0.47106 0.37753 0.0
H549 H 0.64072 0.5051 0.36238 0.0
H550 H 0.59262 0.50492 0.37559 0.0
H551 H 0.55764 0.47612 0.35272 0.0
H552 H 0.74524 0.43914 0.99018 0.0
H553 H 0.7129 0.4736 0.97167 0.0
H554 H 0.64901 0.41457 0.98058 0.0
H555 H 0.68138 0.38042 0.99941 0.0
H556 H 0.68227 0.47058 0.91892 0.0
H557 H 0.61699 0.48088 0.02387 0.0
H558 H 0.64944 0.46447 0.0254 0.0
H559 H 0.62063 0.44608 0.01114 0.0
C560 C 0.72419 0.43387 0.98851 0.0
C561 C 0.71553 0.40746 0.99631 0.0
C562 C 0.7058 0.4534 0.97798 0.0
C563 C 0.6785 0.44675 0.97517 0.0
C564 C 0.66985 0.42035 0.98332 0.0
H565 H 0.55965 0.5218 0.85499 0.0
H566 H 0.59448 0.49315 0.87853 0.0
C567 C 0.68824 0.40088 0.99396 0.0
C568 C 0.65938 0.46679 0.96175 0.0
H569 H 0.5998 0.49904 0.97557 0.0
C570 C 0.66435 0.47701 0.93141 0.0
C571 C 0.6362 0.47538 0.97823 0.0
C572 C 0.6306 0.46636 0.01159 0.0
C573 C 0.64638 0.49506 0.91674 0.0
C574 C 0.62255 0.50259 0.93261 0.0
C575 C 0.61794 0.49297 0.96329 0.0
C576 C 0.60203 0.52033 0.91779 0.0
C577 C 0.65323 0.50607 0.88452 0.0
C578 C 0.59439 0.54486 0.93236 0.0
C579 C 0.57431 0.56116 0.91916 0.0
C580 C 0.56141 0.5532 0.89111 0.0
C581 C 0.56928 0.52867 0.87645 0.0
C582 C 0.58929 0.51231 0.88979 0.0
H583 H 0.67512 0.50484 0.87977 0.0
H584 H 0.64278 0.4937 0.86636 0.0
H585 H 0.64671 0.52768 0.88198 0.0
H586 H 0.60393 0.55137 0.95403 0.0
H587 H 0.56882 0.57994 0.93108 0.0
H588 H 0.2543 0.56438 0.48006 0.0
H589 H 0.28785 0.53182 0.46063 0.0
H590 H 0.35109 0.58566 0.49193 0.0
H591 H 0.31739 0.61892 0.50943 0.0
H592 H 0.3604 0.56886 0.43426 0.0
H593 H 0.33442 0.47862 0.50653 0.0
H594 H 0.30607 0.49086 0.48468 0.0
H595 H 0.32099 0.51218 0.51453 0.0
C596 C 0.2754 0.56906 0.48282 0.0
C597 C 0.28339 0.59393 0.4963 0.0
C598 C 0.29454 0.55038 0.47211 0.0
C599 C 0.32202 0.55604 0.47537 0.0
C600 C 0.33001 0.58077 0.48937 0.0
H601 H 0.44766 0.43685 0.4398 0.0
H602 H 0.4151 0.468 0.46339 0.0
C603 C 0.31083 0.59962 0.49961 0.0
C604 C 0.34238 0.53705 0.46227 0.0
H605 H 0.36242 0.4703 0.46166 0.0
C606 C 0.36099 0.54735 0.44047 0.0
C607 C 0.34339 0.50907 0.47067 0.0
C608 C 0.32532 0.4971 0.49564 0.0
C609 C 0.38029 0.53038 0.42645 0.0
C610 C 0.38036 0.5021 0.43357 0.0
C611 C 0.36208 0.49189 0.45581 0.0
C612 C 0.3997 0.48288 0.41889 0.0
C613 C 0.40072 0.54311 0.40469 0.0
C614 C 0.40158 0.4805 0.38598 0.0
C615 C 0.4205 0.46298 0.37238 0.0
C616 C 0.43745 0.44705 0.39147 0.0
C617 C 0.43487 0.4488 0.42441 0.0
C618 C 0.41627 0.46661 0.43796 0.0
H619 H 0.4031 0.56534 0.40936 0.0
H620 H 0.42063 0.53313 0.40716 0.0
H621 H 0.39391 0.54075 0.37996 0.0
H622 H 0.38844 0.49222 0.37079 0.0
H623 H 0.42176 0.46183 0.34694 0.0
H624 H 0.77524 0.93453 0.02707 0.0
H625 H 0.80777 0.96887 0.00837 0.0
H626 H 0.8284 0.91629 0.93041 0.0
H627 H 0.79636 0.88204 0.94935 0.0
H628 H 0.86576 0.96142 0.99424 0.0
H629 H 0.80447 0.99097 0.89032 0.0
H630 H 0.79049 0.97356 0.92408 0.0
H631 H 0.80944 0.9548 0.89528 0.0
C632 C 0.78696 0.93043 0.00611 0.0
C633 C 0.78317 0.90609 0.9892 0.0
C634 C 0.80536 0.94992 0.99545 0.0
C635 C 0.81998 0.94522 0.9677 0.0
C636 C 0.81685 0.92046 0.95149 0.0
H637 H 0.93627 0.02442 0.85032 0.0
H638 H 0.90228 0.99508 0.87435 0.0
C639 C 0.7986 0.90103 0.9622 0.0
C640 C 0.83851 0.9661 0.9553 0.0
H641 H 0.84944 0.00702 0.89153 0.0
C642 C 0.86215 0.97168 0.97198 0.0
C643 C 0.8336 0.97927 0.92623 0.0
C644 C 0.80803 0.97459 0.90798 0.0
C645 C 0.88162 0.98943 0.95968 0.0
C646 C 0.87693 0.00224 0.93029 0.0
C647 C 0.85298 0.99708 0.91399 0.0
C648 C 0.89694 0.02051 0.9156 0.0
C649 C 0.90744 0.9935 0.97767 0.0
C650 C 0.90471 0.04479 0.93055 0.0
C651 C 0.92417 0.06157 0.91698 0.0
C652 C 0.93606 0.05447 0.88801 0.0
C653 C 0.9276 0.03049 0.87266 0.0
C654 C 0.9082 0.01368 0.88634 0.0
H655 H 0.91056 0.97731 0.99566 0.0
H656 H 0.92493 0.99362 0.96147 0.0
H657 H 0.90675 0.01351 0.98998 0.0
H658 H 0.89578 0.05073 0.95279 0.0
H659 H 0.92997 0.08002 0.92933 0.0
H660 H 0.24433 0.05852 0.47998 0.0
H661 H 0.21156 0.02653 0.45769 0.0
H662 H 0.14778 0.08321 0.47969 0.0
H663 H 0.18086 0.11593 0.49971 0.0
H664 H 0.17043 -5e-05 0.48022 0.0
H665 H 0.13362 0.07095 0.38834 0.0
H666 H 0.16271 0.07835 0.4121 0.0
H667 H 0.12948 0.08485 0.42711 0.0
C668 C 0.22331 0.0641 0.4797 0.0
C669 C 0.21503 0.08966 0.49111 0.0
C670 C 0.20461 0.04582 0.46723 0.0
C671 C 0.17726 0.05275 0.46626 0.0
C672 C 0.16884 0.07776 0.47926 0.0
H673 H 0.04799 0.93778 0.43566 0.0
H674 H 0.08265 0.96747 0.45733 0.0
C675 C 0.18763 0.09623 0.49118 0.0
C676 C 0.15767 0.03386 0.45148 0.0
H677 H 0.10782 0.03053 0.39648 0.0
C678 C 0.15685 0.00659 0.46177 0.0
C679 C 0.14039 0.04233 0.42685 0.0
C680 C 0.14177 0.07063 0.41271 0.0
C681 C 0.13886 0.98772 0.44861 0.0
C682 C 0.12046 0.99664 0.42533 0.0
C683 C 0.12168 0.02376 0.41458 0.0
C684 C 0.09956 0.97836 0.41206 0.0
C685 C 0.14023 0.95833 0.45938 0.0
C686 C 0.09677 0.97542 0.37929 0.0
C687 C 0.07646 0.95897 0.36676 0.0
C688 C 0.05876 0.94495 0.38682 0.0
C689 C 0.06159 0.94797 0.41959 0.0
C690 C 0.08154 0.96479 0.43205 0.0
H691 H 0.16053 0.95309 0.46838 0.0
H692 H 0.12579 0.95522 0.47895 0.0
H693 H 0.13513 0.94399 0.44001 0.0
H694 H 0.11033 0.98584 0.36338 0.0
H695 H 0.07478 0.95702 0.34142 0.0
H696 H 0.22128 0.93423 0.02696 0.0
H697 H 0.18874 0.96856 0.0082 0.0
H698 H 0.1693 0.91662 0.92928 0.0
H699 H 0.20145 0.88237 0.94827 0.0
H700 H 0.18201 0.97348 0.91444 0.0
H701 H 0.10489 0.96179 0.00841 0.0
H702 H 0.13905 0.96664 0.02097 0.0
H703 H 0.1299 0.93589 1.0006 0.0
C704 C 0.20985 0.93028 0.00575 0.0
C705 C 0.21389 0.90604 0.98873 0.0
C706 C 0.19134 0.94972 0.99511 0.0
C707 C 0.17665 0.945 0.96742 0.0
C708 C 0.18055 0.92063 0.95062 0.0
H709 H 0.06024 0.02479 0.84935 0.0
H710 H 0.09501 0.99578 0.87234 0.0
C711 C 0.19891 0.90122 0.96132 0.0
C712 C 0.15761 0.96561 0.95528 0.0
H713 H 0.09663 0.99493 0.96926 0.0
C714 C 0.16337 0.9783 0.92643 0.0
C715 C 0.13346 0.97184 0.97116 0.0
C716 C 0.12621 0.95827 0.00191 0.0
C717 C 0.14547 0.99704 0.91286 0.0
C718 C 0.12092 0.0027 0.92826 0.0
C719 C 0.11544 0.99045 0.95748 0.0
C720 C 0.10031 0.02068 0.91404 0.0
C721 C 0.15312 0.01075 0.88232 0.0
C722 C 0.09136 0.04398 0.93018 0.0
C723 C 0.07132 0.06051 0.91725 0.0
C724 C 0.05973 0.05397 0.88794 0.0
C725 C 0.06881 0.03058 0.87183 0.0
C726 C 0.0888 0.01403 0.88485 0.0
H727 H 0.17519 0.01051 0.87862 0.0
H728 H 0.14371 -0.00041 0.86242 0.0
H729 H 0.14602 0.03228 0.88169 0.0
H730 H 0.09991 0.04938 0.95281 0.0
H731 H 0.06485 0.07835 0.93035 0.0
H732 H 0.75213 0.05916 0.48156 0.0
H733 H 0.78572 0.02704 0.4614 0.0
H734 H 0.84847 0.0844 0.48478 0.0
H735 H 0.81455 0.11728 0.50255 0.0
H736 H 0.85619 0.06555 0.42854 0.0
H737 H 0.83572 0.97721 0.50609 0.0
H738 H 0.8062 0.98739 0.48501 0.0
H739 H 0.8212 0.01046 0.51305 0.0
C740 C 0.77312 0.06477 0.48228 0.0
C741 C 0.78088 0.09053 0.49354 0.0
C742 C 0.79233 0.04631 0.47125 0.0
C743 C 0.81971 0.05305 0.47212 0.0
C744 C 0.82749 0.07866 0.48404 0.0
H745 H 0.94716 0.93605 0.43741 0.0
H746 H 0.91416 0.96704 0.4604 0.0
C747 C 0.8082 0.09731 0.49447 0.0
C748 C 0.84009 0.03419 0.45876 0.0
H749 H 0.86216 0.96812 0.46014 0.0
C750 C 0.85766 0.0443 0.43568 0.0
C751 C 0.84226 0.00655 0.46833 0.0
C752 C 0.82552 0.99486 0.49472 0.0
C753 C 0.87711 0.02752 0.42166 0.0
C754 C 0.87831 -0.00049 0.43 0.0
C755 C 0.86097 0.98948 0.45337 0.0
C756 C 0.89801 0.98045 0.41563 0.0
C757 C 0.89657 0.04024 0.3987 0.0
C758 C 0.89969 0.97732 0.38277 0.0
C759 C 0.91895 0.95998 0.36952 0.0
C760 C 0.93634 0.94489 0.38894 0.0
C761 C 0.93398 0.94734 0.42182 0.0
C762 C 0.91512 0.96506 0.435 0.0
H763 H 0.89841 0.06265 0.40248 0.0
H764 H 0.91683 0.03095 0.40076 0.0
H765 H 0.88916 0.03702 0.37433 0.0
H766 H 0.88613 0.98829 0.36736 0.0
H767 H 0.92009 0.95822 0.34411 0.0
H768 H 0.31395 0.36642 0.0272 0.0
H769 H 0.34586 0.3707 0.07099 0.0
H770 H 0.28128 0.39571 0.13237 0.0
H771 H 0.24939 0.39091 0.08847 0.0
H772 H 0.35982 0.41409 0.10783 0.0
H773 H 0.31381 0.33223 0.18051 0.0
H774 H 0.30489 0.33766 0.13981 0.0
H775 H 0.29109 0.35925 0.17005 0.0
C776 C 0.30677 0.37297 0.05007 0.0
C777 C 0.27943 0.3783 0.05481 0.0
C778 C 0.32488 0.37539 0.075 0.0
C779 C 0.31587 0.3831 0.10507 0.0
C780 C 0.28857 0.38913 0.10957 0.0
H781 H 0.42688 0.42799 0.25677 0.0
H782 H 0.39185 0.42921 0.21642 0.0
C783 C 0.27044 0.38653 0.08462 0.0
C784 C 0.33512 0.3845 0.13164 0.0
H785 H 0.34932 0.35716 0.20374 0.0
C786 C 0.35752 0.40171 0.12886 0.0
C787 C 0.33221 0.36805 0.15884 0.0
C788 C 0.30936 0.34805 0.16247 0.0
C789 C 0.37721 0.40282 0.15248 0.0
C790 C 0.37405 0.38673 0.17994 0.0
C791 C 0.35155 0.36966 0.18279 0.0
C792 C 0.39456 0.38611 0.20523 0.0
C793 C 0.40163 0.42048 0.14728 0.0
C794 C 0.40705 0.36132 0.2131 0.0
C795 C 0.4268 0.36045 0.23639 0.0
C796 C 0.43455 0.38443 0.25231 0.0
C797 C 0.42162 0.40919 0.24478 0.0
C798 C 0.40169 0.40997 0.22159 0.0
H799 H 0.40421 0.42592 0.12205 0.0
H800 H 0.39936 0.43976 0.16081 0.0
H801 H 0.42011 0.41001 0.15556 0.0
H802 H 0.40178 0.34263 0.20086 0.0
H803 H 0.43628 0.34102 0.24153 0.0
H804 H 0.69936 0.66435 0.5526 0.0
H805 H 0.66681 0.65859 0.59539 0.0
H806 H 0.68799 0.5732 0.60215 0.0
H807 H 0.72128 0.57933 0.55996 0.0
H808 H 0.62268 0.62405 0.59757 0.0
H809 H 0.69505 0.59967 0.69333 0.0
H810 H 0.70543 0.61415 0.65617 0.0
H811 H 0.69738 0.57842 0.65891 0.0
C812 C 0.6973 0.64452 0.56366 0.0
C813 C 0.71298 0.62237 0.55355 0.0
C814 C 0.67862 0.64117 0.58784 0.0
C815 C 0.67531 0.61557 0.60228 0.0
C816 C 0.69064 0.59324 0.59178 0.0
H817 H 0.56556 0.56892 0.75419 0.0
H818 H 0.59879 0.56765 0.7117 0.0
C819 C 0.70942 0.59666 0.56762 0.0
C820 C 0.6554 0.6124 0.62791 0.0
H821 H 0.64897 0.5983 0.70636 0.0
C822 C 0.62842 0.61835 0.62134 0.0
C823 C 0.66295 0.60485 0.65885 0.0
C824 C 0.69179 0.5991 0.66745 0.0
C825 C 0.60879 0.61722 0.64497 0.0
C826 C 0.61644 0.61029 0.67602 0.0
C827 C 0.64326 0.60363 0.68248 0.0
C828 C 0.597 0.61107 0.70233 0.0
C829 C 0.58001 0.62347 0.63655 0.0
C830 C 0.58549 0.63601 0.71147 0.0
C831 C 0.56662 0.63688 0.73574 0.0
C832 C 0.55886 0.61277 0.7514 0.0
C833 C 0.57093 0.58786 0.74258 0.0
C834 C 0.58994 0.58706 0.71833 0.0
H835 H 0.5764 0.62169 0.6108 0.0
H836 H 0.56608 0.6095 0.64909 0.0
H837 H 0.57521 0.64473 0.64376 0.0
H838 H 0.59105 0.65483 0.6997 0.0
H839 H 0.55788 0.65645 0.74192 0.0
H840 H 0.72293 0.41747 0.06332 0.0
H841 H 0.69047 0.42244 0.10666 0.0
H842 H 0.66988 0.3371 0.09802 0.0
H843 H 0.70186 0.33235 0.05445 0.0
H844 H 0.63336 0.40985 0.10573 0.0
H845 H 0.69003 0.3475 0.19254 0.0
H846 H 0.70543 0.36184 0.15775 0.0
H847 H 0.68526 0.3315 0.15484 0.0
C848 C 0.71136 0.39989 0.07077 0.0
C849 C 0.71502 0.37445 0.05606 0.0
C850 C 0.69296 0.4027 0.09544 0.0
C851 C 0.67818 0.38001 0.10583 0.0
C852 C 0.68153 0.35469 0.09077 0.0
H853 H 0.55773 0.34037 0.24217 0.0
H854 H 0.59239 0.34164 0.20165 0.0
C855 C 0.69979 0.35196 0.06604 0.0
C856 C 0.65888 0.38271 0.1321 0.0
H857 H 0.64503 0.35879 0.20582 0.0
C858 C 0.63596 0.39895 0.12777 0.0
C859 C 0.66245 0.36842 0.16073 0.0
C860 C 0.68722 0.3515 0.16699 0.0
C861 C 0.61591 0.40044 0.15096 0.0
C862 C 0.61924 0.38573 0.17942 0.0
C863 C 0.6425 0.37 0.18396 0.0
C864 C 0.59837 0.3854 0.20427 0.0
C865 C 0.5909 0.41687 0.14429 0.0
C866 C 0.59049 0.40956 0.21953 0.0
C867 C 0.57053 0.40897 0.24269 0.0
C868 C 0.55827 0.38411 0.25122 0.0
C869 C 0.56666 0.35989 0.23623 0.0
C870 C 0.5865 0.36055 0.21304 0.0
H871 H 0.58865 0.42144 0.11878 0.0
H872 H 0.57271 0.40585 0.15246 0.0
H873 H 0.59201 0.43661 0.15711 0.0
H874 H 0.59982 0.42888 0.21361 0.0
H875 H 0.56475 0.42798 0.25388 0.0
H876 H 0.292 0.66532 0.56154 0.0
H877 H 0.32283 0.65861 0.60589 0.0
H878 H 0.30417 0.57248 0.60656 0.0
H879 H 0.27289 0.57938 0.56232 0.0
H880 H 0.31027 0.63499 0.66729 0.0
H881 H 0.38791 0.57695 0.60051 0.0
H882 H 0.36269 0.5975 0.58113 0.0
H883 H 0.35384 0.56502 0.59776 0.0
C884 C 0.29428 0.64508 0.57151 0.0
C885 C 0.28005 0.62288 0.55893 0.0
C886 C 0.31193 0.64122 0.59661 0.0
C887 C 0.31585 0.61504 0.60931 0.0
C888 C 0.3016 0.59278 0.59682 0.0
H889 H 0.43202 0.56809 0.75456 0.0
H890 H 0.39586 0.56655 0.7156 0.0
C891 C 0.2838 0.5967 0.57173 0.0
C892 C 0.33487 0.61137 0.63569 0.0
H893 H 0.39661 0.58569 0.65409 0.0
C894 C 0.32908 0.62405 0.66453 0.0
C895 C 0.35925 0.59694 0.63196 0.0
C896 C 0.36654 0.58342 0.60116 0.0
C897 C 0.34727 0.62306 0.68972 0.0
C898 C 0.37214 0.60955 0.68563 0.0
C899 C 0.37755 0.5961 0.6571 0.0
C900 C 0.39339 0.61045 0.71001 0.0
C901 C 0.33968 0.63652 0.72045 0.0
C902 C 0.40413 0.63563 0.71954 0.0
C903 C 0.42472 0.63663 0.7418 0.0
C904 C 0.43521 0.61241 0.75482 0.0
C905 C 0.42443 0.58716 0.74511 0.0
C906 C 0.40377 0.58621 0.72283 0.0
H907 H 0.31756 0.63831 0.72298 0.0
H908 H 0.3477 0.62491 0.74088 0.0
H909 H 0.3482 0.65747 0.72112 0.0
H910 H 0.39684 0.65455 0.70939 0.0
H911 H 0.43259 0.65643 0.7485 0.0
H912 H 0.81515 0.86627 0.0237 0.0
H913 H 0.84735 0.8693 0.06737 0.0
H914 H 0.78322 0.89284 0.13014 0.0
H915 H 0.75106 0.88941 0.08634 0.0
H916 H 0.86137 0.91201 0.1059 0.0
H917 H 0.81617 0.82762 0.17536 0.0
H918 H 0.80721 0.83417 0.13488 0.0
H919 H 0.7932 0.85472 0.16594 0.0
C920 C 0.80814 0.8723 0.04683 0.0
C921 C 0.78085 0.87761 0.05197 0.0
C922 C 0.82641 0.87396 0.0717 0.0
C923 C 0.81759 0.88087 0.1021 0.0
C924 C 0.79035 0.88689 0.10703 0.0
H925 H 0.92596 0.92448 0.25594 0.0
H926 H 0.89144 0.92519 0.21506 0.0
C927 C 0.77207 0.88509 0.08214 0.0
C928 C 0.83697 0.88151 0.12857 0.0
H929 H 0.85135 0.85239 0.1997 0.0
C930 C 0.85919 0.89901 0.12645 0.0
C931 C 0.83423 0.86424 0.15512 0.0
C932 C 0.81157 0.84393 0.15794 0.0
C933 C 0.87877 0.89977 0.1502 0.0
C934 C 0.8757 0.88298 0.17711 0.0
C935 C 0.8535 0.86544 0.1792 0.0
C936 C 0.89586 0.88247 0.20278 0.0
C937 C 0.90293 0.91797 0.14582 0.0
C938 C 0.90911 0.85798 0.21023 0.0
C939 C 0.92864 0.8574 0.23382 0.0
C940 C 0.93533 0.88133 0.25047 0.0
C941 C 0.92154 0.90572 0.2434 0.0
C942 C 0.90189 0.90622 0.21991 0.0
H943 H 0.90567 0.92393 0.12077 0.0
H944 H 0.90018 0.93694 0.15979 0.0
H945 H 0.92151 0.90767 0.1541 0.0
H946 H 0.90465 0.83937 0.1974 0.0
H947 H 0.93879 0.83824 0.23862 0.0
H948 H 0.20179 0.1627 0.55085 0.0
H949 H 0.16918 0.15768 0.59365 0.0
H950 H 0.18963 0.07219 0.60165 0.0
H951 H 0.22302 0.07759 0.55938 0.0
H952 H 0.12486 0.124 0.59611 0.0
H953 H 0.19636 0.09908 0.69255 0.0
H954 H 0.20716 0.11301 0.65529 0.0
H955 H 0.19849 0.07746 0.65842 0.0
C956 C 0.1996 0.14302 0.56222 0.0
C957 C 0.21516 0.12064 0.55249 0.0
C958 C 0.18087 0.14008 0.5864 0.0
C959 C 0.17732 0.11468 0.6012 0.0
C960 C 0.1925 0.09211 0.59105 0.0
H961 H 0.0655 0.07033 0.75184 0.0
H962 H 0.09918 0.06852 0.70989 0.0
C963 C 0.21135 0.09511 0.56687 0.0
C964 C 0.15724 0.11197 0.62674 0.0
H965 H 0.15019 0.09847 0.70528 0.0
C966 C 0.13039 0.11835 0.61996 0.0
C967 C 0.16452 0.1045 0.6578 0.0
C968 C 0.19322 0.09832 0.66666 0.0
C969 C 0.11064 0.11774 0.64347 0.0
C970 C 0.11801 0.11086 0.67463 0.0
C971 C 0.14469 0.10377 0.68132 0.0
C972 C 0.09841 0.11201 0.70075 0.0
C973 C 0.08201 0.12447 0.63484 0.0
C974 C 0.08733 0.13715 0.70986 0.0
C975 C 0.06819 0.13833 0.73384 0.0
C976 C 0.05974 0.11432 0.7492 0.0
C977 C 0.0714 0.0892 0.74044 0.0
C978 C 0.09067 0.08809 0.71651 0.0
H979 H 0.07852 0.12285 0.60905 0.0
H980 H 0.0678 0.11067 0.6472 0.0
H981 H 0.07748 0.14578 0.64213 0.0
H982 H 0.09338 0.15589 0.69826 0.0
H983 H 0.05977 0.15805 0.73998 0.0
H984 H 0.24285 0.88464 0.08805 0.0
H985 H 0.20981 0.88697 0.13077 0.0
H986 H 0.14604 0.87506 0.06333 0.0
H987 H 0.17929 0.87069 0.02111 0.0
H988 H 0.16949 0.92 0.14346 0.0
H989 H 0.12925 0.81572 0.1248 0.0
H990 H 0.15899 0.82781 0.1051 0.0
H991 H 0.12622 0.83665 0.09032 0.0
C992 C 0.22178 0.88221 0.08258 0.0
C993 C 0.21354 0.87719 0.05152 0.0
C994 C 0.20292 0.88377 0.10685 0.0
C995 C 0.17546 0.88058 0.10039 0.0
C996 C 0.16714 0.87679 0.06905 0.0
H997 H 0.04757 0.92247 0.23182 0.0
H998 H 0.08151 0.92285 0.19031 0.0
C999 C 0.18606 0.87473 0.04488 0.0
C1000 C 0.15565 0.88096 0.12651 0.0
H1001 H 0.10493 0.84426 0.16002 0.0
C1002 C 0.15544 0.90338 0.14718 0.0
C1003 C 0.13767 0.85902 0.13174 0.0
C1004 C 0.13819 0.83332 0.11202 0.0
C1005 C 0.13757 0.90463 0.17272 0.0
C1006 C 0.11875 0.88328 0.17706 0.0
C1007 C 0.11916 0.86075 0.15655 0.0
C1008 C 0.09861 0.88359 0.20286 0.0
C1009 C 0.1396 0.92847 0.19519 0.0
C1010 C 0.09635 0.86107 0.22322 0.0
C1011 C 0.07653 0.86051 0.24648 0.0
C1012 C 0.05873 0.88261 0.25006 0.0
C1013 C 0.06121 0.90529 0.22992 0.0
C1014 C 0.08074 0.90561 0.20629 0.0
H1015 H 0.15991 0.93781 0.19464 0.0
H1016 H 0.12498 0.94445 0.18812 0.0
H1017 H 0.13512 0.92216 0.21975 0.0
H1018 H 0.10985 0.84379 0.22099 0.0
H1019 H 0.07519 0.84277 0.26169 0.0
H1020 H 0.77215 0.07901 0.56158 0.0
H1021 H 0.80555 0.07429 0.60396 0.0
H1022 H 0.82471 0.16002 0.59542 0.0
H1023 H 0.79207 0.16436 0.55251 0.0
H1024 H 0.86951 0.12682 0.59751 0.0
H1025 H 0.7992 0.10138 0.69484 0.0
H1026 H 0.79694 0.07964 0.66082 0.0
H1027 H 0.78791 0.11512 0.65766 0.0
C1028 C 0.7835 0.09674 0.56902 0.0
C1029 C 0.77937 0.12213 0.55439 0.0
C1030 C 0.80236 0.09413 0.59325 0.0
C1031 C 0.81722 0.11694 0.60323 0.0
C1032 C 0.81326 0.14223 0.5883 0.0
H1033 H 0.93696 0.15936 0.74051 0.0
H1034 H 0.90282 0.15791 0.69932 0.0
C1035 C 0.79452 0.14479 0.56406 0.0
C1036 C 0.83755 0.11452 0.62855 0.0
H1037 H 0.84555 0.10069 0.70688 0.0
C1038 C 0.86428 0.12108 0.62142 0.0
C1039 C 0.83066 0.10692 0.65968 0.0
C1040 C 0.8021 0.10057 0.66891 0.0
C1041 C 0.8843 0.12041 0.64461 0.0
C1042 C 0.87732 0.11332 0.67583 0.0
C1043 C 0.85075 0.10616 0.68289 0.0
C1044 C 0.89728 0.11409 0.70161 0.0
C1045 C 0.9128 0.1272 0.63554 0.0
C1046 C 0.90491 0.08999 0.7171 0.0
C1047 C 0.92446 0.09069 0.74073 0.0
C1048 C 0.93654 0.1156 0.74947 0.0
C1049 C 0.92823 0.1398 0.73437 0.0
C1050 C 0.90879 0.13902 0.71069 0.0
H1051 H 0.91598 0.12569 0.6097 0.0
H1052 H 0.91736 0.14849 0.64287 0.0
H1053 H 0.92721 0.11337 0.64759 0.0
H1054 H 0.89608 0.07057 0.7105 0.0
H1055 H 0.93024 0.07168 0.75194 0.0
loop_
_geom_bond_atom_site_label_1
_geom_bond_atom_site_label_2
_geom_bond_distance
_geom_bond_site_symmetry_2
_ccdc_geom_bond_type
C0 N1 1.317 . S
C0 N2 1.345 . S
C0 C3 1.485 . S
N1 C0 1.317 . S
N1 N5 1.370 . S
N2 C0 1.345 . S
N2 C4 1.348 1_554 S
C3 C0 1.485 . S
C3 H7 0.960 . S
C3 H8 0.961 . S
C3 H9 0.960 . S
C4 N2 1.348 1_556 S
C4 N5 1.307 1_556 S
C4 C6 1.486 . S
N5 N1 1.370 . S
N5 C4 1.307 1_554 S
C6 C4 1.486 . S
C6 H10 0.960 . S
C6 H11 0.960 . S
C6 H12 0.959 . S
H7 C3 0.960 . S
H8 C3 0.961 . S
H9 C3 0.960 . S
H10 C6 0.960 . S
H11 C6 0.960 . S
H12 C6 0.959 . S
C13 N14 1.317 . S
C13 N15 1.348 . S
C13 C16 1.485 . S
N14 C13 1.317 . S
N14 N18 1.370 . S
N15 C13 1.348 . S
N15 C17 1.346 . S
C16 C13 1.485 . S
C16 H20 0.960 . S
C16 H21 0.961 . S
C16 H22 0.960 . S
C17 N15 1.346 . S
C17 N18 1.307 . S
C17 C19 1.486 . S
N18 N14 1.370 . S
N18 C17 1.307 . S
C19 C17 1.486 . S
C19 H23 0.960 . S
C19 H24 0.960 . S
C19 H25 0.959 . S
H20 C16 0.960 . S
H21 C16 0.961 . S
H22 C16 0.960 . S
H23 C19 0.960 . S
H24 C19 0.960 . S
H25 C19 0.959 . S
C26 N27 1.317 . S
C26 N28 1.326 1_554 S
C26 C29 1.485 . S
N27 C26 1.317 . S
N27 N31 1.370 . S
N28 C26 1.326 1_556 S
N28 C30 1.358 . S
C29 C26 1.485 . S
C29 H33 0.960 . S
C29 H34 0.961 . S
C29 H35 0.960 . S
C30 N28 1.358 . S
C30 N31 1.307 1_556 S
C30 C32 1.486 . S
N31 N27 1.370 . S
N31 C30 1.307 1_554 S
C32 C30 1.486 . S
C32 H36 0.960 . S
C32 H37 0.960 . S
C32 H38 0.959 . S
H33 C29 0.960 . S
H34 C29 0.961 . S
H35 C29 0.960 . S
H36 C32 0.960 . S
H37 C32 0.960 . S
H38 C32 0.959 . S
C39 N40 1.317 . S
C39 N41 1.348 . S
C39 C42 1.485 . S
N40 C39 1.317 . S
N40 N44 1.370 . S
N41 C39 1.348 . S
N41 C43 1.346 . S
C42 C39 1.485 . S
C42 H46 0.960 . S
C42 H47 0.961 . S
C42 H48 0.960 . S
C43 N41 1.346 . S
C43 N44 1.307 . S
C43 C45 1.486 . S
N44 N40 1.370 . S
N44 C43 1.307 . S
C45 C43 1.486 . S
C45 H49 0.960 . S
C45 H50 0.960 . S
C45 H51 0.959 . S
H46 C42 0.960 . S
H47 C42 0.961 . S
H48 C42 0.960 . S
H49 C45 0.960 . S
H50 C45 0.960 . S
H51 C45 0.959 . S
C52 N53 1.317 . S
C52 N54 1.345 . S
C52 C55 1.485 . S
N53 C52 1.317 . S
N53 N57 1.370 . S
N54 C52 1.345 . S
N54 C56 1.348 1_554 S
C55 C52 1.485 . S
C55 H59 0.960 . S
C55 H60 0.961 . S
C55 H61 0.960 . S
C56 N54 1.348 1_556 S
C56 N57 1.307 1_556 S
C56 C58 1.486 . S
N57 N53 1.370 . S
N57 C56 1.307 1_554 S
C58 C56 1.486 . S
C58 H62 0.960 . S
C58 H63 0.960 . S
C58 H64 0.959 . S
H59 C55 0.960 . S
H60 C55 0.961 . S
H61 C55 0.960 . S
H62 C58 0.960 . S
H63 C58 0.960 . S
H64 C58 0.959 . S
C65 N66 1.317 . S
C65 N67 1.348 . S
C65 C68 1.485 . S
N66 C65 1.317 . S
N66 N70 1.370 . S
N67 C65 1.348 . S
N67 C69 1.346 . S
C68 C65 1.485 . S
C68 H72 0.960 . S
C68 H73 0.961 . S
C68 H74 0.960 . S
C69 N67 1.346 . S
C69 N70 1.307 . S
C69 C71 1.486 . S
N70 N66 1.370 . S
N70 C69 1.307 . S
C71 C69 1.486 . S
C71 H75 0.960 . S
C71 H76 0.960 . S
C71 H77 0.959 . S
H72 C68 0.960 . S
H73 C68 0.961 . S
H74 C68 0.960 . S
H75 C71 0.960 . S
H76 C71 0.960 . S
H77 C71 0.959 . S
C78 N79 1.317 . S
C78 N80 1.326 1_554 S
C78 C81 1.485 . S
N79 C78 1.317 . S
N79 N83 1.370 . S
N80 C78 1.326 1_556 S
N80 C82 1.358 . S
C81 C78 1.485 . S
C81 H85 0.960 . S
C81 H86 0.961 . S
C81 H87 0.960 . S
C82 N80 1.358 . S
C82 N83 1.307 1_556 S
C82 C84 1.486 . S
N83 N79 1.370 . S
N83 C82 1.307 1_554 S
C84 C82 1.486 . S
C84 H88 0.960 . S
C84 H89 0.960 . S
C84 H90 0.959 . S
H85 C81 0.960 . S
H86 C81 0.961 . S
H87 C81 0.960 . S
H88 C84 0.960 . S
H89 C84 0.960 . S
H90 C84 0.959 . S
C91 N92 1.317 . S
C91 N93 1.348 . S
C91 C94 1.485 . S
N92 C91 1.317 . S
N92 N96 1.370 . S
N93 C91 1.348 . S
N93 C95 1.346 . S
C94 C91 1.485 . S
C94 H98 0.960 . S
C94 H99 0.961 . S
C94 H100 0.960 . S
C95 N93 1.346 . S
C95 N96 1.307 . S
C95 C97 1.486 . S
N96 N92 1.370 . S
N96 C95 1.307 . S
C97 C95 1.486 . S
C97 H101 0.960 . S
C97 H102 0.960 . S
C97 H103 0.959 . S
H98 C94 0.960 . S
H99 C94 0.961 . S
H100 C94 0.960 . S
H101 C97 0.960 . S
H102 C97 0.960 . S
H103 C97 0.959 . S
Sc104 O107 2.025 . S
Sc104 O114 2.105 1_455 S
Sc104 O117 2.105 . S
Sc104 O120 2.105 . S
Sc104 O123 2.105 1_455 S
Sc105 O107 2.025 . S
Sc105 O115 2.105 1_455 S
Sc105 O119 2.105 . S
Sc105 O121 2.105 . S
Sc105 O125 2.105 1_455 S
Sc106 O107 2.025 . S
Sc106 O116 2.105 1_455 S
Sc106 O118 2.105 . S
Sc106 O122 2.105 . S
Sc106 O124 2.105 1_455 S
O107 Sc104 2.025 . S
O107 Sc105 2.025 . S
O107 Sc106 2.025 . S
C108 O114 1.268 . S
C108 O124 1.268 . S
C109 O115 1.268 . S
C109 O123 1.268 . S
C110 O116 1.268 . S
C110 O125 1.268 . S
C111 O117 1.268 . S
C111 O121 1.268 . S
C112 O118 1.268 . S
C112 O120 1.268 . S
C113 O119 1.268 . S
C113 O122 1.268 . S
O114 Sc104 2.105 1_655 S
O114 C108 1.268 . S
O115 Sc105 2.105 1_655 S
O115 C109 1.268 . S
O116 Sc106 2.105 1_655 S
O116 C110 1.268 . S
O117 Sc104 2.105 . S
O117 C111 1.268 . S
O118 Sc106 2.105 . S
O118 C112 1.268 . S
O119 Sc105 2.105 . S
O119 C113 1.268 . S
O120 Sc104 2.105 . S
O120 C112 1.268 . S
O121 Sc105 2.105 . S
O121 C111 1.268 . S
O122 Sc106 2.105 . S
O122 C113 1.268 . S
O123 Sc104 2.105 1_655 S
O123 C109 1.268 . S
O124 Sc106 2.105 1_655 S
O124 C108 1.268 . S
O125 Sc105 2.105 1_655 S
O125 C110 1.268 . S
Sc126 O129 2.025 . S
Sc126 O136 2.105 . S
Sc126 O139 2.105 1_455 S
Sc126 O142 2.105 1_455 S
Sc126 O145 2.105 . S
Sc127 O129 2.025 . S
Sc127 O137 2.105 . S
Sc127 O141 2.105 1_455 S
Sc127 O143 2.105 1_455 S
Sc127 O147 2.105 . S
Sc128 O129 2.025 . S
Sc128 O138 2.105 . S
Sc128 O140 2.105 1_455 S
Sc128 O144 2.105 1_455 S
Sc128 O146 2.105 . S
O129 Sc126 2.025 . S
O129 Sc127 2.025 . S
O129 Sc128 2.025 . S
C130 O136 1.268 . S
C130 O146 1.268 . S
C131 O137 1.268 . S
C131 O145 1.268 . S
C132 O138 1.268 . S
C132 O147 1.268 . S
C133 O139 1.268 . S
C133 O143 1.268 . S
C134 O140 1.268 . S
C134 O142 1.268 . S
C135 O141 1.268 . S
C135 O144 1.268 . S
O136 Sc126 2.105 . S
O136 C130 1.268 . S
O137 Sc127 2.105 . S
O137 C131 1.268 . S
O138 Sc128 2.105 . S
O138 C132 1.268 . S
O139 Sc126 2.105 1_655 S
O139 C133 1.268 . S
O140 Sc128 2.105 1_655 S
O140 C134 1.268 . S
O141 Sc127 2.105 1_655 S
O141 C135 1.268 . S
O142 Sc126 2.105 1_655 S
O142 C134 1.268 . S
O143 Sc127 2.105 1_655 S
O143 C133 1.268 . S
O144 Sc128 2.105 1_655 S
O144 C135 1.268 . S
O145 Sc126 2.105 . S
O145 C131 1.268 . S
O146 Sc128 2.105 . S
O146 C130 1.268 . S
O147 Sc127 2.105 . S
O147 C132 1.268 . S
Sc148 O151 2.025 . S
Sc148 O158 2.105 . S
Sc148 O161 2.105 . S
Sc148 O164 2.105 . S
Sc148 O167 2.105 . S
Sc149 O151 2.025 . S
Sc149 O159 2.105 . S
Sc149 O163 2.105 . S
Sc149 O165 2.105 . S
Sc149 O169 2.105 . S
Sc150 O151 2.025 . S
Sc150 O160 2.105 . S
Sc150 O162 2.105 . S
Sc150 O166 2.105 . S
Sc150 O168 2.105 . S
O151 Sc148 2.025 . S
O151 Sc149 2.025 . S
O151 Sc150 2.025 . S
C152 O158 1.268 . S
C152 O168 1.268 . S
C153 O159 1.268 . S
C153 O167 1.268 . S
C154 O160 1.268 . S
C154 O169 1.268 . S
C155 O161 1.268 . S
C155 O165 1.268 . S
C156 O162 1.268 . S
C156 O164 1.268 . S
C157 O163 1.268 . S
C157 O166 1.268 . S
O158 Sc148 2.105 . S
O158 C152 1.268 . S
O159 Sc149 2.105 . S
O159 C153 1.268 . S
O160 Sc150 2.105 . S
O160 C154 1.268 . S
O161 Sc148 2.105 . S
O161 C155 1.268 . S
O162 Sc150 2.105 . S
O162 C156 1.268 . S
O163 Sc149 2.105 . S
O163 C157 1.268 . S
O164 Sc148 2.105 . S
O164 C156 1.268 . S
O165 Sc149 2.105 . S
O165 C155 1.268 . S
O166 Sc150 2.105 . S
O166 C157 1.268 . S
O167 Sc148 2.105 . S
O167 C153 1.268 . S
O168 Sc150 2.105 . S
O168 C152 1.268 . S
O169 Sc149 2.105 . S
O169 C154 1.268 . S
Sc170 O173 2.025 . S
Sc170 O180 2.105 . S
Sc170 O183 2.105 . S
Sc170 O186 2.105 . S
Sc170 O189 2.105 . S
Sc171 O173 2.025 . S
Sc171 O181 2.105 . S
Sc171 O185 2.105 . S
Sc171 O187 2.105 . S
Sc171 O191 2.105 . S
Sc172 O173 2.025 . S
Sc172 O182 2.105 . S
Sc172 O184 2.105 . S
Sc172 O188 2.105 . S
Sc172 O190 2.105 . S
O173 Sc170 2.025 . S
O173 Sc171 2.025 . S
O173 Sc172 2.025 . S
C174 O180 1.268 . S
C174 O190 1.268 . S
C175 O181 1.268 . S
C175 O189 1.268 . S
C176 O182 1.268 . S
C176 O191 1.268 . S
C177 O183 1.268 . S
C177 O187 1.268 . S
C178 O184 1.268 . S
C178 O186 1.268 . S
C179 O185 1.268 . S
C179 O188 1.268 . S
O180 Sc170 2.105 . S
O180 C174 1.268 . S
O181 Sc171 2.105 . S
O181 C175 1.268 . S
O182 Sc172 2.105 . S
O182 C176 1.268 . S
O183 Sc170 2.105 . S
O183 C177 1.268 . S
O184 Sc172 2.105 . S
O184 C178 1.268 . S
O185 Sc171 2.105 . S
O185 C179 1.268 . S
O186 Sc170 2.105 . S
O186 C178 1.268 . S
O187 Sc171 2.105 . S
O187 C177 1.268 . S
O188 Sc172 2.105 . S
O188 C179 1.268 . S
O189 Sc170 2.105 . S
O189 C175 1.268 . S
O190 Sc172 2.105 . S
O190 C174 1.268 . S
O191 Sc171 2.105 . S
O191 C176 1.268 . S
H192 C200 0.929 . S
H193 C202 0.942 . S
H194 C204 0.930 . S
H195 C207 0.929 . S
H196 C210 0.930 . S
H197 C212 0.960 . S
H198 C212 0.960 . S
H199 C212 0.960 . S
C200 H192 0.929 . S
C200 C201 1.377 1_554 S
C200 C202 1.384 1_554 S
C201 C200 1.377 1_556 S
C201 C207 1.390 . S
C202 H193 0.942 . S
C202 C200 1.384 1_556 S
C202 C203 1.372 . S
C203 C202 1.372 . S
C203 C204 1.400 . S
C203 C208 1.490 . S
C204 H194 0.930 . S
C204 C203 1.400 . S
C204 C207 1.386 . S
H205 C221 0.930 . S
H206 C222 0.931 . S
C207 H195 0.929 . S
C207 C201 1.390 . S
C207 C204 1.386 . S
C208 C203 1.490 . S
C208 C210 1.395 . S
C208 C211 1.403 . S
H209 C215 0.930 . S
C210 H196 0.930 . S
C210 C208 1.395 . S
C210 C213 1.403 . S
C211 C208 1.403 . S
C211 C212 1.524 . S
C211 C215 1.400 . S
C212 H197 0.960 . S
C212 H198 0.960 . S
C212 H199 0.960 . S
C212 C211 1.524 . S
C213 C210 1.403 . S
C213 C214 1.392 . S
C213 C217 1.495 . S
C214 C213 1.392 . S
C214 C215 1.385 . S
C214 C216 1.478 . S
C215 H209 0.930 . S
C215 C211 1.400 . S
C215 C214 1.385 . S
C216 C214 1.478 . S
C216 C218 1.381 . S
C216 C222 1.383 . S
C217 C213 1.495 . S
C217 H223 0.959 . S
C217 H224 0.961 . S
C217 H225 0.960 . S
C218 C216 1.381 . S
C218 C219 1.394 . S
C218 H226 0.930 . S
C219 C218 1.394 . S
C219 C220 1.383 . S
C219 H227 0.929 . S
C220 C219 1.383 . S
C220 C221 1.377 . S
C221 H205 0.930 . S
C221 C220 1.377 . S
C221 C222 1.379 . S
C222 H206 0.931 . S
C222 C216 1.383 . S
C222 C221 1.379 . S
H223 C217 0.959 . S
H224 C217 0.961 . S
H225 C217 0.960 . S
H226 C218 0.930 . S
H227 C219 0.929 . S
H228 C236 0.929 . S
H229 C238 0.930 . S
H230 C240 0.930 . S
H231 C243 0.929 . S
H232 C246 0.930 . S
H233 C248 0.960 . S
H234 C248 0.960 . S
H235 C248 0.960 . S
C236 H228 0.929 . S
C236 C237 1.377 . S
C236 C238 1.384 . S
C237 C236 1.377 . S
C237 C243 1.390 . S
C238 H229 0.930 . S
C238 C236 1.384 . S
C238 C239 1.372 . S
C239 C238 1.372 . S
C239 C240 1.400 . S
C239 C244 1.490 . S
C240 H230 0.930 . S
C240 C239 1.400 . S
C240 C243 1.386 . S
H241 C257 0.930 . S
H242 C258 0.931 . S
C243 H231 0.929 . S
C243 C237 1.390 . S
C243 C240 1.386 . S
C244 C239 1.490 . S
C244 C246 1.395 . S
C244 C247 1.403 . S
H245 C251 0.930 . S
C246 H232 0.930 . S
C246 C244 1.395 . S
C246 C249 1.403 . S
C247 C244 1.403 . S
C247 C248 1.524 . S
C247 C251 1.400 . S
C248 H233 0.960 . S
C248 H234 0.960 . S
C248 H235 0.960 . S
C248 C247 1.524 . S
C249 C246 1.403 . S
C249 C250 1.392 . S
C249 C253 1.495 . S
C250 C249 1.392 . S
C250 C251 1.385 . S
C250 C252 1.478 . S
C251 H245 0.930 . S
C251 C247 1.400 . S
C251 C250 1.385 . S
C252 C250 1.478 . S
C252 C254 1.381 . S
C252 C258 1.383 . S
C253 C249 1.495 . S
C253 H259 0.959 . S
C253 H260 0.961 . S
C253 H261 0.960 . S
C254 C252 1.381 . S
C254 C255 1.394 . S
C254 H262 0.930 . S
C255 C254 1.394 . S
C255 C256 1.383 . S
C255 H263 0.929 . S
C256 C255 1.383 . S
C256 C257 1.377 . S
C257 H241 0.930 . S
C257 C256 1.377 . S
C257 C258 1.379 . S
C258 H242 0.931 . S
C258 C252 1.383 . S
C258 C257 1.379 . S
H259 C253 0.959 . S
H260 C253 0.961 . S
H261 C253 0.960 . S
H262 C254 0.930 . S
H263 C255 0.929 . S
H264 C272 0.929 . S
H265 C274 0.930 . S
H266 C276 0.930 . S
H267 C279 0.929 1_554 S
H268 C282 0.930 . S
H269 C284 0.960 . S
H270 C284 0.960 . S
H271 C284 0.960 . S
C272 H264 0.929 . S
C272 C273 1.377 . S
C272 C274 1.384 . S
C273 C272 1.377 . S
C273 C279 1.390 . S
C274 H265 0.930 . S
C274 C272 1.384 . S
C274 C275 1.372 . S
C275 C274 1.372 . S
C275 C276 1.400 . S
C275 C280 1.490 . S
C276 H266 0.930 . S
C276 C275 1.400 . S
C276 C279 1.386 . S
H277 C293 0.930 . S
H278 C294 0.931 . S
C279 H267 0.929 1_556 S
C279 C273 1.390 . S
C279 C276 1.386 . S
C280 C275 1.490 . S
C280 C282 1.395 . S
C280 C283 1.403 . S
H281 C287 0.930 . S
C282 H268 0.930 . S
C282 C280 1.395 . S
C282 C285 1.403 . S
C283 C280 1.403 . S
C283 C284 1.524 . S
C283 C287 1.400 . S
C284 H269 0.960 . S
C284 H270 0.960 . S
C284 H271 0.960 . S
C284 C283 1.524 . S
C285 C282 1.403 . S
C285 C286 1.392 . S
C285 C289 1.495 . S
C286 C285 1.392 . S
C286 C287 1.385 . S
C286 C288 1.478 . S
C287 H281 0.930 . S
C287 C283 1.400 . S
C287 C286 1.385 . S
C288 C286 1.478 . S
C288 C290 1.381 . S
C288 C294 1.383 . S
C289 C285 1.495 . S
C289 H295 0.959 . S
C289 H296 0.961 . S
C289 H297 0.960 . S
C290 C288 1.381 . S
C290 C291 1.394 . S
C290 H298 0.930 . S
C291 C290 1.394 . S
C291 C292 1.383 . S
C291 H299 0.929 . S
C292 C291 1.383 . S
C292 C293 1.377 . S
C293 H277 0.930 . S
C293 C292 1.377 . S
C293 C294 1.379 . S
C294 H278 0.931 . S
C294 C288 1.383 . S
C294 C293 1.379 . S
H295 C289 0.959 . S
H296 C289 0.961 . S
H297 C289 0.960 . S
H298 C290 0.930 . S
H299 C291 0.929 . S
H300 C308 0.929 . S
H301 C310 0.930 . S
H302 C312 0.930 . S
H303 C315 0.929 . S
H304 C318 0.930 . S
H305 C320 0.960 . S
H306 C320 0.960 . S
H307 C320 0.960 . S
C308 H300 0.929 . S
C308 C309 1.377 . S
C308 C310 1.384 . S
C309 C308 1.377 . S
C309 C315 1.390 . S
C310 H301 0.930 . S
C310 C308 1.384 . S
C310 C311 1.372 . S
C311 C310 1.372 . S
C311 C312 1.400 . S
C311 C316 1.490 . S
C312 H302 0.930 . S
C312 C311 1.400 . S
C312 C315 1.386 . S
H313 C329 0.930 . S
H314 C330 0.931 . S
C315 H303 0.929 . S
C315 C309 1.390 . S
C315 C312 1.386 . S
C316 C311 1.490 . S
C316 C318 1.395 . S
C316 C319 1.403 . S
H317 C323 0.930 . S
C318 H304 0.930 . S
C318 C316 1.395 . S
C318 C321 1.403 . S
C319 C316 1.403 . S
C319 C320 1.524 . S
C319 C323 1.400 . S
C320 H305 0.960 . S
C320 H306 0.960 . S
C320 H307 0.960 . S
C320 C319 1.524 . S
C321 C318 1.403 . S
C321 C322 1.392 . S
C321 C325 1.495 . S
C322 C321 1.392 . S
C322 C323 1.385 . S
C322 C324 1.478 . S
C323 H317 0.930 . S
C323 C319 1.400 . S
C323 C322 1.385 . S
C324 C322 1.478 . S
C324 C326 1.381 . S
C324 C330 1.383 . S
C325 C321 1.495 . S
C325 H331 0.959 . S
C325 H332 0.961 . S
C325 H333 0.960 . S
C326 C324 1.381 . S
C326 C327 1.394 . S
C326 H334 0.930 . S
C327 C326 1.394 . S
C327 C328 1.383 . S
C327 H335 0.929 . S
C328 C327 1.383 . S
C328 C329 1.377 . S
C329 H313 0.930 . S
C329 C328 1.377 . S
C329 C330 1.379 . S
C330 H314 0.931 . S
C330 C324 1.383 . S
C330 C329 1.379 . S
H331 C325 0.959 . S
H332 C325 0.961 . S
H333 C325 0.960 . S
H334 C326 0.930 . S
H335 C327 0.929 . S
H336 C344 0.929 . S
H337 C346 0.930 . S
H338 C348 0.930 . S
H339 C351 0.929 1_554 S
H340 C354 0.930 . S
H341 C356 0.960 . S
H342 C356 0.960 . S
H343 C356 0.960 . S
C344 H336 0.929 . S
C344 C345 1.377 . S
C344 C346 1.384 . S
C345 C344 1.377 . S
C345 C351 1.390 . S
C346 H337 0.930 . S
C346 C344 1.384 . S
C346 C347 1.372 . S
C347 C346 1.372 . S
C347 C348 1.400 . S
C347 C352 1.490 . S
C348 H338 0.930 . S
C348 C347 1.400 . S
C348 C351 1.386 . S
H349 C365 0.930 . S
H350 C366 0.931 . S
C351 H339 0.929 1_556 S
C351 C345 1.390 . S
C351 C348 1.386 . S
C352 C347 1.490 . S
C352 C354 1.395 . S
C352 C355 1.403 . S
H353 C359 0.930 . S
C354 H340 0.930 . S
C354 C352 1.395 . S
C354 C357 1.403 . S
C355 C352 1.403 . S
C355 C356 1.524 . S
C355 C359 1.400 . S
C356 H341 0.960 . S
C356 H342 0.960 . S
C356 H343 0.960 . S
C356 C355 1.524 . S
C357 C354 1.403 . S
C357 C358 1.392 . S
C357 C361 1.495 . S
C358 C357 1.392 . S
C358 C359 1.385 . S
C358 C360 1.478 . S
C359 H353 0.930 . S
C359 C355 1.400 . S
C359 C358 1.385 . S
C360 C358 1.478 . S
C360 C362 1.381 . S
C360 C366 1.383 . S
C361 C357 1.495 . S
C361 H367 0.959 . S
C361 H368 0.961 . S
C361 H369 0.960 . S
C362 C360 1.381 . S
C362 C363 1.394 . S
C362 H370 0.930 . S
C363 C362 1.394 . S
C363 C364 1.383 . S
C363 H371 0.929 . S
C364 C363 1.383 . S
C364 C365 1.377 . S
C365 H349 0.930 . S
C365 C364 1.377 . S
C365 C366 1.379 . S
C366 H350 0.931 . S
C366 C360 1.383 . S
C366 C365 1.379 . S
H367 C361 0.959 . S
H368 C361 0.961 . S
H369 C361 0.960 . S
H370 C362 0.930 . S
H371 C363 0.929 . S
H372 C380 0.929 . S
H373 C382 0.930 . S
H374 C384 0.930 . S
H375 C387 0.929 . S
H376 C390 0.930 . S
H377 C392 0.960 . S
H378 C392 0.960 . S
H379 C392 0.960 . S
C380 H372 0.929 . S
C380 C381 1.377 . S
C380 C382 1.384 . S
C381 C380 1.377 . S
C381 C387 1.390 . S
C382 H373 0.930 . S
C382 C380 1.384 . S
C382 C383 1.372 . S
C383 C382 1.372 . S
C383 C384 1.400 . S
C383 C388 1.490 . S
C384 H374 0.930 . S
C384 C383 1.400 . S
C384 C387 1.386 . S
H385 C401 0.930 . S
H386 C402 0.931 . S
C387 H375 0.929 . S
C387 C381 1.390 . S
C387 C384 1.386 . S
C388 C383 1.490 . S
C388 C390 1.395 . S
C388 C391 1.403 . S
H389 C395 0.930 . S
C390 H376 0.930 . S
C390 C388 1.395 . S
C390 C393 1.403 . S
C391 C388 1.403 . S
C391 C392 1.524 . S
C391 C395 1.400 . S
C392 H377 0.960 . S
C392 H378 0.960 . S
C392 H379 0.960 . S
C392 C391 1.524 . S
C393 C390 1.403 . S
C393 C394 1.392 . S
C393 C397 1.495 . S
C394 C393 1.392 . S
C394 C395 1.385 . S
C394 C396 1.478 . S
C395 H389 0.930 . S
C395 C391 1.400 . S
C395 C394 1.385 . S
C396 C394 1.478 . S
C396 C398 1.381 . S
C396 C402 1.383 . S
C397 C393 1.495 . S
C397 H403 0.959 . S
C397 H404 0.961 . S
C397 H405 0.960 . S
C398 C396 1.381 . S
C398 C399 1.394 . S
C398 H406 0.930 . S
C399 C398 1.394 . S
C399 C400 1.383 . S
C399 H407 0.929 . S
C400 C399 1.383 . S
C400 C401 1.377 . S
C401 H385 0.930 . S
C401 C400 1.377 . S
C401 C402 1.379 . S
C402 H386 0.931 . S
C402 C396 1.383 . S
C402 C401 1.379 . S
H403 C397 0.959 . S
H404 C397 0.961 . S
H405 C397 0.960 . S
H406 C398 0.930 . S
H407 C399 0.929 . S
H408 C416 0.929 . S
H409 C418 0.930 . S
H410 C420 0.930 . S
H411 C423 0.929 1_554 S
H412 C426 0.930 . S
H413 C428 0.960 . S
H414 C428 0.960 . S
H415 C428 0.960 . S
C416 H408 0.929 . S
C416 C417 1.377 . S
C416 C418 1.384 . S
C417 C416 1.377 . S
C417 C423 1.390 . S
C418 H409 0.930 . S
C418 C416 1.384 . S
C418 C419 1.372 . S
C419 C418 1.372 . S
C419 C420 1.400 . S
C419 C424 1.490 . S
C420 H410 0.930 . S
C420 C419 1.400 . S
C420 C423 1.386 . S
H421 C437 0.930 . S
H422 C438 0.931 . S
C423 H411 0.929 1_556 S
C423 C417 1.390 . S
C423 C420 1.386 . S
C424 C419 1.490 . S
C424 C426 1.395 . S
C424 C427 1.403 . S
H425 C431 0.930 . S
C426 H412 0.930 . S
C426 C424 1.395 . S
C426 C429 1.403 . S
C427 C424 1.403 . S
C427 C428 1.524 . S
C427 C431 1.400 . S
C428 H413 0.960 . S
C428 H414 0.960 . S
C428 H415 0.960 . S
C428 C427 1.524 . S
C429 C426 1.403 . S
C429 C430 1.392 . S
C429 C433 1.495 . S
C430 C429 1.392 . S
C430 C431 1.385 . S
C430 C432 1.478 . S
C431 H425 0.930 . S
C431 C427 1.400 . S
C431 C430 1.385 . S
C432 C430 1.478 . S
C432 C434 1.381 . S
C432 C438 1.383 . S
C433 C429 1.495 . S
C433 H439 0.959 . S
C433 H440 0.961 . S
C433 H441 0.960 . S
C434 C432 1.381 . S
C434 C435 1.394 . S
C434 H442 0.930 . S
C435 C434 1.394 . S
C435 C436 1.383 . S
C435 H443 0.929 . S
C436 C435 1.383 . S
C436 C437 1.377 . S
C437 H421 0.930 . S
C437 C436 1.377 . S
C437 C438 1.379 . S
C438 H422 0.931 . S
C438 C432 1.383 . S
C438 C437 1.379 . S
H439 C433 0.959 . S
H440 C433 0.961 . S
H441 C433 0.960 . S
H442 C434 0.930 . S
H443 C435 0.929 . S
H444 C452 0.929 . S
H445 C454 0.930 . S
H446 C456 0.930 . S
H447 C459 0.929 . S
H448 C462 0.930 . S
H449 C464 0.960 . S
H450 C464 0.960 . S
H451 C464 0.960 . S
C452 H444 0.929 . S
C452 C453 1.377 . S
C452 C454 1.384 . S
C453 C452 1.377 . S
C453 C459 1.390 . S
C454 H445 0.930 . S
C454 C452 1.384 . S
C454 C455 1.372 . S
C455 C454 1.372 . S
C455 C456 1.400 . S
C455 C460 1.490 . S
C456 H446 0.930 . S
C456 C455 1.400 . S
C456 C459 1.386 . S
H457 C473 0.930 . S
H458 C474 0.931 . S
C459 H447 0.929 . S
C459 C453 1.390 . S
C459 C456 1.386 . S
C460 C455 1.490 . S
C460 C462 1.395 . S
C460 C463 1.403 . S
H461 C467 0.930 . S
C462 H448 0.930 . S
C462 C460 1.395 . S
C462 C465 1.403 . S
C463 C460 1.403 . S
C463 C464 1.524 . S
C463 C467 1.400 . S
C464 H449 0.960 . S
C464 H450 0.960 . S
C464 H451 0.960 . S
C464 C463 1.524 . S
C465 C462 1.403 . S
C465 C466 1.392 . S
C465 C469 1.495 . S
C466 C465 1.392 . S
C466 C467 1.385 . S
C466 C468 1.478 . S
C467 H461 0.930 . S
C467 C463 1.400 . S
C467 C466 1.385 . S
C468 C466 1.478 . S
C468 C470 1.381 . S
C468 C474 1.383 . S
C469 C465 1.495 . S
C469 H475 0.959 . S
C469 H476 0.961 . S
C469 H477 0.960 . S
C470 C468 1.381 . S
C470 C471 1.394 . S
C470 H478 0.930 . S
C471 C470 1.394 . S
C471 C472 1.383 . S
C471 H479 0.929 . S
C472 C471 1.383 . S
C472 C473 1.377 . S
C473 H457 0.930 . S
C473 C472 1.377 . S
C473 C474 1.379 . S
C474 H458 0.931 . S
C474 C468 1.383 . S
C474 C473 1.379 . S
H475 C469 0.959 . S
H476 C469 0.961 . S
H477 C469 0.960 . S
H478 C470 0.930 . S
H479 C471 0.929 . S
H480 C488 0.929 . S
H481 C490 0.930 . S
H482 C492 0.930 1_554 S
H483 C495 0.929 . S
H484 C498 0.930 . S
H485 C500 0.960 . S
H486 C500 0.960 . S
H487 C500 0.960 . S
C488 H480 0.929 . S
C488 C489 1.377 . S
C488 C490 1.384 . S
C489 C488 1.377 . S
C489 C495 1.390 1_556 S
C490 H481 0.930 . S
C490 C488 1.384 . S
C490 C491 1.372 . S
C491 C490 1.372 . S
C491 C492 1.400 . S
C491 C496 1.490 . S
C492 H482 0.930 1_556 S
C492 C491 1.400 . S
C492 C495 1.386 1_556 S
H493 C509 0.930 . S
H494 C510 0.931 . S
C495 H483 0.929 . S
C495 C489 1.390 1_554 S
C495 C492 1.386 1_554 S
C496 C491 1.490 . S
C496 C498 1.395 . S
C496 C499 1.403 . S
H497 C503 0.930 . S
C498 H484 0.930 . S
C498 C496 1.395 . S
C498 C501 1.403 . S
C499 C496 1.403 . S
C499 C500 1.524 . S
C499 C503 1.400 . S
C500 H485 0.960 . S
C500 H486 0.960 . S
C500 H487 0.960 . S
C500 C499 1.524 . S
C501 C498 1.403 . S
C501 C502 1.392 . S
C501 C505 1.495 . S
C502 C501 1.392 . S
C502 C503 1.385 . S
C502 C504 1.478 . S
C503 H497 0.930 . S
C503 C499 1.400 . S
C503 C502 1.385 . S
C504 C502 1.478 . S
C504 C506 1.381 . S
C504 C510 1.383 . S
C505 C501 1.495 . S
C505 H511 0.959 . S
C505 H512 0.961 . S
C505 H513 0.960 . S
C506 C504 1.381 . S
C506 C507 1.394 . S
C506 H514 0.930 . S
C507 C506 1.394 . S
C507 C508 1.383 . S
C507 H515 0.929 . S
C508 C507 1.383 . S
C508 C509 1.377 . S
C509 H493 0.930 . S
C509 C508 1.377 . S
C509 C510 1.379 . S
C510 H494 0.931 . S
C510 C504 1.383 . S
C510 C509 1.379 . S
H511 C505 0.959 . S
H512 C505 0.961 . S
H513 C505 0.960 . S
H514 C506 0.930 . S
H515 C507 0.929 . S
H516 C524 0.929 . S
H517 C526 0.930 . S
H518 C528 0.930 . S
H519 C531 0.929 . S
H520 C534 0.930 . S
H521 C536 0.960 . S
H522 C536 0.960 . S
H523 C536 0.960 . S
C524 H516 0.929 . S
C524 C525 1.377 . S
C524 C526 1.384 . S
C525 C524 1.377 . S
C525 C531 1.390 . S
C526 H517 0.930 . S
C526 C524 1.384 . S
C526 C527 1.372 . S
C527 C526 1.372 . S
C527 C528 1.400 . S
C527 C532 1.490 . S
C528 H518 0.930 . S
C528 C527 1.400 . S
C528 C531 1.386 . S
H529 C545 0.930 . S
H530 C546 0.931 . S
C531 H519 0.929 . S
C531 C525 1.390 . S
C531 C528 1.386 . S
C532 C527 1.490 . S
C532 C534 1.395 . S
C532 C535 1.403 . S
H533 C539 0.930 . S
C534 H520 0.930 . S
C534 C532 1.395 . S
C534 C537 1.403 . S
C535 C532 1.403 . S
C535 C536 1.524 . S
C535 C539 1.400 . S
C536 H521 0.960 . S
C536 H522 0.960 . S
C536 H523 0.960 . S
C536 C535 1.524 . S
C537 C534 1.403 . S
C537 C538 1.392 . S
C537 C541 1.495 . S
C538 C537 1.392 . S
C538 C539 1.385 . S
C538 C540 1.478 . S
C539 H533 0.930 . S
C539 C535 1.400 . S
C539 C538 1.385 . S
C540 C538 1.478 . S
C540 C542 1.381 . S
C540 C546 1.383 . S
C541 C537 1.495 . S
C541 H547 0.959 . S
C541 H548 0.961 . S
C541 H549 0.960 . S
C542 C540 1.381 . S
C542 C543 1.394 . S
C542 H550 0.930 . S
C543 C542 1.394 . S
C543 C544 1.383 . S
C543 H551 0.929 . S
C544 C543 1.383 . S
C544 C545 1.377 . S
C545 H529 0.930 . S
C545 C544 1.377 . S
C545 C546 1.379 . S
C546 H530 0.931 . S
C546 C540 1.383 . S
C546 C545 1.379 . S
H547 C541 0.959 . S
H548 C541 0.961 . S
H549 C541 0.960 . S
H550 C542 0.930 . S
H551 C543 0.929 . S
H552 C560 0.929 . S
H553 C562 0.929 1_554 S
H554 C564 0.930 . S
H555 C567 0.929 . S
H556 C570 0.930 . S
H557 C572 0.960 . S
H558 C572 0.960 . S
H559 C572 0.960 . S
C560 H552 0.929 . S
C560 C561 1.377 1_554 S
C560 C562 1.384 1_554 S
C561 C560 1.377 1_556 S
C561 C567 1.390 . S
C562 H553 0.929 1_556 S
C562 C560 1.384 1_556 S
C562 C563 1.372 . S
C563 C562 1.372 . S
C563 C564 1.400 . S
C563 C568 1.490 . S
C564 H554 0.930 . S
C564 C563 1.400 . S
C564 C567 1.386 . S
H565 C581 0.930 . S
H566 C582 0.931 . S
C567 H555 0.929 . S
C567 C561 1.390 . S
C567 C564 1.386 . S
C568 C563 1.490 . S
C568 C570 1.395 . S
C568 C571 1.403 . S
H569 C575 0.930 . S
C570 H556 0.930 . S
C570 C568 1.395 . S
C570 C573 1.403 . S
C571 C568 1.403 . S
C571 C572 1.524 . S
C571 C575 1.400 . S
C572 H557 0.960 . S
C572 H558 0.960 . S
C572 H559 0.960 . S
C572 C571 1.524 . S
C573 C570 1.403 . S
C573 C574 1.392 . S
C573 C577 1.495 . S
C574 C573 1.392 . S
C574 C575 1.385 . S
C574 C576 1.478 . S
C575 H569 0.930 . S
C575 C571 1.400 . S
C575 C574 1.385 . S
C576 C574 1.478 . S
C576 C578 1.381 . S
C576 C582 1.383 . S
C577 C573 1.495 . S
C577 H583 0.959 . S
C577 H584 0.961 . S
C577 H585 0.960 . S
C578 C576 1.381 . S
C578 C579 1.394 . S
C578 H586 0.930 . S
C579 C578 1.394 . S
C579 C580 1.383 . S
C579 H587 0.929 . S
C580 C579 1.383 . S
C580 C581 1.377 . S
C581 H565 0.930 . S
C581 C580 1.377 . S
C581 C582 1.379 . S
C582 H566 0.931 . S
C582 C576 1.383 . S
C582 C581 1.379 . S
H583 C577 0.959 . S
H584 C577 0.961 . S
H585 C577 0.960 . S
H586 C578 0.930 . S
H587 C579 0.929 . S
H588 C596 0.929 . S
H589 C598 0.930 . S
H590 C600 0.930 . S
H591 C603 0.929 . S
H592 C606 0.930 . S
H593 C608 0.960 . S
H594 C608 0.960 . S
H595 C608 0.960 . S
C596 H588 0.929 . S
C596 C597 1.377 . S
C596 C598 1.384 . S
C597 C596 1.377 . S
C597 C603 1.390 . S
C598 H589 0.930 . S
C598 C596 1.384 . S
C598 C599 1.372 . S
C599 C598 1.372 . S
C599 C600 1.400 . S
C599 C604 1.490 . S
C600 H590 0.930 . S
C600 C599 1.400 . S
C600 C603 1.386 . S
H601 C617 0.930 . S
H602 C618 0.931 . S
C603 H591 0.929 . S
C603 C597 1.390 . S
C603 C600 1.386 . S
C604 C599 1.490 . S
C604 C606 1.395 . S
C604 C607 1.403 . S
H605 C611 0.930 . S
C606 H592 0.930 . S
C606 C604 1.395 . S
C606 C609 1.403 . S
C607 C604 1.403 . S
C607 C608 1.524 . S
C607 C611 1.400 . S
C608 H593 0.960 . S
C608 H594 0.960 . S
C608 H595 0.960 . S
C608 C607 1.524 . S
C609 C606 1.403 . S
C609 C610 1.392 . S
C609 C613 1.495 . S
C610 C609 1.392 . S
C610 C611 1.385 . S
C610 C612 1.478 . S
C611 H605 0.930 . S
C611 C607 1.400 . S
C611 C610 1.385 . S
C612 C610 1.478 . S
C612 C614 1.381 . S
C612 C618 1.383 . S
C613 C609 1.495 . S
C613 H619 0.959 . S
C613 H620 0.961 . S
C613 H621 0.960 . S
C614 C612 1.381 . S
C614 C615 1.394 . S
C614 H622 0.930 . S
C615 C614 1.394 . S
C615 C616 1.383 . S
C615 H623 0.929 . S
C616 C615 1.383 . S
C616 C617 1.377 . S
C617 H601 0.930 . S
C617 C616 1.377 . S
C617 C618 1.379 . S
C618 H602 0.931 . S
C618 C612 1.383 . S
C618 C617 1.379 . S
H619 C613 0.959 . S
H620 C613 0.961 . S
H621 C613 0.960 . S
H622 C614 0.930 . S
H623 C615 0.929 . S
H624 C632 0.929 . S
H625 C634 0.930 1_554 S
H626 C636 0.930 . S
H627 C639 0.929 . S
H628 C642 0.930 . S
H629 C644 0.960 1_545 S
H630 C644 0.960 1_545 S
H631 C644 0.960 . S
C632 H624 0.929 . S
C632 C633 1.377 1_554 S
C632 C634 1.384 1_554 S
C633 C632 1.377 1_556 S
C633 C639 1.390 . S
C634 H625 0.930 1_556 S
C634 C632 1.384 1_556 S
C634 C635 1.372 . S
C635 C634 1.372 . S
C635 C636 1.400 . S
C635 C640 1.490 . S
C636 H626 0.930 . S
C636 C635 1.400 . S
C636 C639 1.386 . S
H637 C653 0.930 . S
H638 C654 0.931 . S
C639 H627 0.929 . S
C639 C633 1.390 . S
C639 C636 1.386 . S
C640 C635 1.490 . S
C640 C642 1.395 . S
C640 C643 1.403 . S
H641 C647 0.930 . S
C642 H628 0.930 . S
C642 C640 1.395 . S
C642 C645 1.403 . S
C643 C640 1.403 . S
C643 C644 1.524 . S
C643 C647 1.400 1_565 S
C644 H629 0.960 1_565 S
C644 H630 0.960 1_565 S
C644 H631 0.960 . S
C644 C643 1.524 . S
C645 C642 1.403 . S
C645 C646 1.392 1_565 S
C645 C649 1.495 . S
C646 C645 1.392 1_545 S
C646 C647 1.385 . S
C646 C648 1.478 . S
C647 H641 0.930 . S
C647 C643 1.400 1_545 S
C647 C646 1.385 . S
C648 C646 1.478 . S
C648 C650 1.381 . S
C648 C654 1.383 . S
C649 C645 1.495 . S
C649 H655 0.959 . S
C649 H656 0.961 . S
C649 H657 0.960 1_565 S
C650 C648 1.381 . S
C650 C651 1.394 . S
C650 H658 0.930 . S
C651 C650 1.394 . S
C651 C652 1.383 . S
C651 H659 0.929 . S
C652 C651 1.383 . S
C652 C653 1.377 . S
C653 H637 0.930 . S
C653 C652 1.377 . S
C653 C654 1.379 . S
C654 H638 0.931 . S
C654 C648 1.383 . S
C654 C653 1.379 . S
H655 C649 0.959 . S
H656 C649 0.961 . S
H657 C649 0.960 1_545 S
H658 C650 0.930 . S
H659 C651 0.929 . S
H660 C668 0.929 . S
H661 C670 0.930 . S
H662 C672 0.930 . S
H663 C675 0.929 . S
H664 C678 0.930 . S
H665 C680 0.960 . S
H666 C680 0.960 . S
H667 C680 0.960 . S
C668 H660 0.929 . S
C668 C669 1.377 . S
C668 C670 1.384 . S
C669 C668 1.377 . S
C669 C675 1.390 . S
C670 H661 0.930 . S
C670 C668 1.384 . S
C670 C671 1.372 . S
C671 C670 1.372 . S
C671 C672 1.400 . S
C671 C676 1.490 . S
C672 H662 0.930 . S
C672 C671 1.400 . S
C672 C675 1.386 . S
H673 C689 0.930 . S
H674 C690 0.931 . S
C675 H663 0.929 . S
C675 C669 1.390 . S
C675 C672 1.386 . S
C676 C671 1.490 . S
C676 C678 1.395 1_545 S
C676 C679 1.403 . S
H677 C683 0.930 . S
C678 H664 0.930 . S
C678 C676 1.395 1_565 S
C678 C681 1.403 . S
C679 C676 1.403 . S
C679 C680 1.524 . S
C679 C683 1.400 . S
C680 H665 0.960 . S
C680 H666 0.960 . S
C680 H667 0.960 . S
C680 C679 1.524 . S
C681 C678 1.403 . S
C681 C682 1.392 . S
C681 C685 1.495 . S
C682 C681 1.392 . S
C682 C683 1.385 1_565 S
C682 C684 1.478 . S
C683 H677 0.930 . S
C683 C679 1.400 . S
C683 C682 1.385 1_545 S
C684 C682 1.478 . S
C684 C686 1.381 . S
C684 C690 1.383 . S
C685 C681 1.495 . S
C685 H691 0.959 . S
C685 H692 0.961 . S
C685 H693 0.960 . S
C686 C684 1.381 . S
C686 C687 1.394 . S
C686 H694 0.930 . S
C687 C686 1.394 . S
C687 C688 1.383 . S
C687 H695 0.929 . S
C688 C687 1.383 . S
C688 C689 1.377 . S
C689 H673 0.930 . S
C689 C688 1.377 . S
C689 C690 1.379 . S
C690 H674 0.931 . S
C690 C684 1.383 . S
C690 C689 1.379 . S
H691 C685 0.959 . S
H692 C685 0.961 . S
H693 C685 0.960 . S
H694 C686 0.930 . S
H695 C687 0.929 . S
H696 C704 0.929 . S
H697 C706 0.930 . S
H698 C708 0.930 . S
H699 C711 0.929 . S
H700 C714 0.930 . S
H701 C716 0.960 . S
H702 C716 0.960 1_554 S
H703 C716 0.960 . S
C704 H696 0.929 . S
C704 C705 1.377 . S
C704 C706 1.384 . S
C705 C704 1.377 . S
C705 C711 1.390 . S
C706 H697 0.930 . S
C706 C704 1.384 . S
C706 C707 1.372 . S
C707 C706 1.372 . S
C707 C708 1.400 . S
C707 C712 1.490 . S
C708 H698 0.930 . S
C708 C707 1.400 . S
C708 C711 1.386 . S
H709 C725 0.930 . S
H710 C726 0.931 . S
C711 H699 0.929 . S
C711 C705 1.390 . S
C711 C708 1.386 . S
C712 C707 1.490 . S
C712 C714 1.395 . S
C712 C715 1.403 . S
H713 C719 0.925 1_545 S
C714 H700 0.930 . S
C714 C712 1.395 . S
C714 C717 1.403 1_565 S
C715 C712 1.403 . S
C715 C716 1.524 . S
C715 C719 1.422 . S
C716 H701 0.960 . S
C716 H702 0.960 1_556 S
C716 H703 0.960 . S
C716 C715 1.524 . S
C717 C714 1.403 1_545 S
C717 C718 1.392 . S
C717 C721 1.495 . S
C718 C717 1.392 . S
C718 C719 1.369 1_545 S
C718 C720 1.478 . S
C719 H713 0.925 1_565 S
C719 C715 1.422 . S
C719 C718 1.369 1_565 S
C720 C718 1.478 . S
C720 C722 1.381 . S
C720 C726 1.383 . S
C721 C717 1.495 . S
C721 H727 0.959 . S
C721 H728 0.961 . S
C721 H729 0.960 . S
C722 C720 1.381 . S
C722 C723 1.394 . S
C722 H730 0.930 . S
C723 C722 1.394 . S
C723 C724 1.383 . S
C723 H731 0.929 . S
C724 C723 1.383 . S
C724 C725 1.377 . S
C725 H709 0.930 . S
C725 C724 1.377 . S
C725 C726 1.379 . S
C726 H710 0.931 . S
C726 C720 1.383 . S
C726 C725 1.379 . S
H727 C721 0.959 . S
H728 C721 0.961 . S
H729 C721 0.960 . S
H730 C722 0.930 . S
H731 C723 0.929 . S
H732 C740 0.929 . S
H733 C742 0.930 . S
H734 C744 0.930 . S
H735 C747 0.929 . S
H736 C750 0.930 . S
H737 C752 0.960 . S
H738 C752 0.960 . S
H739 C752 0.960 1_545 S
C740 H732 0.929 . S
C740 C741 1.377 . S
C740 C742 1.384 . S
C741 C740 1.377 . S
C741 C747 1.390 . S
C742 H733 0.930 . S
C742 C740 1.384 . S
C742 C743 1.372 . S
C743 C742 1.372 . S
C743 C744 1.400 . S
C743 C748 1.490 . S
C744 H734 0.930 . S
C744 C743 1.400 . S
C744 C747 1.386 . S
H745 C761 0.930 . S
H746 C762 0.931 . S
C747 H735 0.929 . S
C747 C741 1.390 . S
C747 C744 1.386 . S
C748 C743 1.490 . S
C748 C750 1.395 . S
C748 C751 1.403 . S
H749 C755 0.930 . S
C750 H736 0.930 . S
C750 C748 1.395 . S
C750 C753 1.403 . S
C751 C748 1.403 . S
C751 C752 1.524 1_545 S
C751 C755 1.400 1_545 S
C752 H737 0.960 . S
C752 H738 0.960 . S
C752 H739 0.960 1_565 S
C752 C751 1.524 1_565 S
C753 C750 1.403 . S
C753 C754 1.392 1_545 S
C753 C757 1.495 . S
C754 C753 1.392 1_565 S
C754 C755 1.385 . S
C754 C756 1.478 . S
C755 H749 0.930 . S
C755 C751 1.400 1_565 S
C755 C754 1.385 . S
C756 C754 1.478 . S
C756 C758 1.381 . S
C756 C762 1.383 . S
C757 C753 1.495 . S
C757 H763 0.959 . S
C757 H764 0.961 . S
C757 H765 0.960 . S
C758 C756 1.381 . S
C758 C759 1.394 . S
C758 H766 0.930 . S
C759 C758 1.394 . S
C759 C760 1.383 . S
C759 H767 0.929 . S
C760 C759 1.383 . S
C760 C761 1.377 . S
C761 H745 0.930 . S
C761 C760 1.377 . S
C761 C762 1.379 . S
C762 H746 0.931 . S
C762 C756 1.383 . S
C762 C761 1.379 . S
H763 C757 0.959 . S
H764 C757 0.961 . S
H765 C757 0.960 . S
H766 C758 0.930 . S
H767 C759 0.929 . S
H768 C776 0.929 . S
H769 C778 0.930 . S
H770 C780 0.930 . S
H771 C783 0.929 . S
H772 C786 0.930 . S
H773 C788 0.960 . S
H774 C788 0.960 . S
H775 C788 0.960 . S
C776 H768 0.929 . S
C776 C777 1.377 . S
C776 C778 1.384 . S
C777 C776 1.377 . S
C777 C783 1.390 . S
C778 H769 0.930 . S
C778 C776 1.384 . S
C778 C779 1.372 . S
C779 C778 1.372 . S
C779 C780 1.400 . S
C779 C784 1.490 . S
C780 H770 0.930 . S
C780 C779 1.400 . S
C780 C783 1.386 . S
H781 C797 0.930 . S
H782 C798 0.931 . S
C783 H771 0.929 . S
C783 C777 1.390 . S
C783 C780 1.386 . S
C784 C779 1.490 . S
C784 C786 1.395 . S
C784 C787 1.403 . S
H785 C791 0.930 . S
C786 H772 0.930 . S
C786 C784 1.395 . S
C786 C789 1.403 . S
C787 C784 1.403 . S
C787 C788 1.524 . S
C787 C791 1.400 . S
C788 H773 0.960 . S
C788 H774 0.960 . S
C788 H775 0.960 . S
C788 C787 1.524 . S
C789 C786 1.403 . S
C789 C790 1.392 . S
C789 C793 1.495 . S
C790 C789 1.392 . S
C790 C791 1.385 . S
C790 C792 1.478 . S
C791 H785 0.930 . S
C791 C787 1.400 . S
C791 C790 1.385 . S
C792 C790 1.478 . S
C792 C794 1.381 . S
C792 C798 1.383 . S
C793 C789 1.495 . S
C793 H799 0.959 . S
C793 H800 0.961 . S
C793 H801 0.960 . S
C794 C792 1.381 . S
C794 C795 1.394 . S
C794 H802 0.930 . S
C795 C794 1.394 . S
C795 C796 1.383 . S
C795 H803 0.929 . S
C796 C795 1.383 . S
C796 C797 1.377 . S
C797 H781 0.930 . S
C797 C796 1.377 . S
C797 C798 1.379 . S
C798 H782 0.931 . S
C798 C792 1.383 . S
C798 C797 1.379 . S
H799 C793 0.959 . S
H800 C793 0.961 . S
H801 C793 0.960 . S
H802 C794 0.930 . S
H803 C795 0.929 . S
H804 C812 0.929 . S
H805 C814 0.930 . S
H806 C816 0.930 . S
H807 C819 0.929 . S
H808 C822 0.930 . S
H809 C824 0.960 . S
H810 C824 0.960 . S
H811 C824 0.960 . S
C812 H804 0.929 . S
C812 C813 1.377 . S
C812 C814 1.384 . S
C813 C812 1.377 . S
C813 C819 1.390 . S
C814 H805 0.930 . S
C814 C812 1.384 . S
C814 C815 1.372 . S
C815 C814 1.372 . S
C815 C816 1.400 . S
C815 C820 1.490 . S
C816 H806 0.930 . S
C816 C815 1.400 . S
C816 C819 1.386 . S
H817 C833 0.930 . S
H818 C834 0.931 . S
C819 H807 0.929 . S
C819 C813 1.390 . S
C819 C816 1.386 . S
C820 C815 1.490 . S
C820 C822 1.395 . S
C820 C823 1.403 . S
H821 C827 0.930 . S
C822 H808 0.930 . S
C822 C820 1.395 . S
C822 C825 1.403 . S
C823 C820 1.403 . S
C823 C824 1.524 . S
C823 C827 1.400 . S
C824 H809 0.960 . S
C824 H810 0.960 . S
C824 H811 0.960 . S
C824 C823 1.524 . S
C825 C822 1.403 . S
C825 C826 1.392 . S
C825 C829 1.495 . S
C826 C825 1.392 . S
C826 C827 1.385 . S
C826 C828 1.478 . S
C827 H821 0.930 . S
C827 C823 1.400 . S
C827 C826 1.385 . S
C828 C826 1.478 . S
C828 C830 1.381 . S
C828 C834 1.383 . S
C829 C825 1.495 . S
C829 H835 0.959 . S
C829 H836 0.961 . S
C829 H837 0.960 . S
C830 C828 1.381 . S
C830 C831 1.394 . S
C830 H838 0.930 . S
C831 C830 1.394 . S
C831 C832 1.383 . S
C831 H839 0.929 . S
C832 C831 1.383 . S
C832 C833 1.377 . S
C833 H817 0.930 . S
C833 C832 1.377 . S
C833 C834 1.379 . S
C834 H818 0.931 . S
C834 C828 1.383 . S
C834 C833 1.379 . S
H835 C829 0.959 . S
H836 C829 0.961 . S
H837 C829 0.960 . S
H838 C830 0.930 . S
H839 C831 0.929 . S
H840 C848 0.929 . S
H841 C850 0.930 . S
H842 C852 0.930 . S
H843 C855 0.929 . S
H844 C858 0.930 . S
H845 C860 0.960 . S
H846 C860 0.960 . S
H847 C860 0.960 . S
C848 H840 0.929 . S
C848 C849 1.377 . S
C848 C850 1.384 . S
C849 C848 1.377 . S
C849 C855 1.390 . S
C850 H841 0.930 . S
C850 C848 1.384 . S
C850 C851 1.372 . S
C851 C850 1.372 . S
C851 C852 1.400 . S
C851 C856 1.490 . S
C852 H842 0.930 . S
C852 C851 1.400 . S
C852 C855 1.386 . S
H853 C869 0.930 . S
H854 C870 0.931 . S
C855 H843 0.929 . S
C855 C849 1.390 . S
C855 C852 1.386 . S
C856 C851 1.490 . S
C856 C858 1.395 . S
C856 C859 1.403 . S
H857 C863 0.930 . S
C858 H844 0.930 . S
C858 C856 1.395 . S
C858 C861 1.403 . S
C859 C856 1.403 . S
C859 C860 1.524 . S
C859 C863 1.400 . S
C860 H845 0.960 . S
C860 H846 0.960 . S
C860 H847 0.960 . S
C860 C859 1.524 . S
C861 C858 1.403 . S
C861 C862 1.392 . S
C861 C865 1.495 . S
C862 C861 1.392 . S
C862 C863 1.385 . S
C862 C864 1.478 . S
C863 H857 0.930 . S
C863 C859 1.400 . S
C863 C862 1.385 . S
C864 C862 1.478 . S
C864 C866 1.381 . S
C864 C870 1.383 . S
C865 C861 1.495 . S
C865 H871 0.959 . S
C865 H872 0.961 . S
C865 H873 0.960 . S
C866 C864 1.381 . S
C866 C867 1.394 . S
C866 H874 0.930 . S
C867 C866 1.394 . S
C867 C868 1.383 . S
C867 H875 0.929 . S
C868 C867 1.383 . S
C868 C869 1.377 . S
C869 H853 0.930 . S
C869 C868 1.377 . S
C869 C870 1.379 . S
C870 H854 0.931 . S
C870 C864 1.383 . S
C870 C869 1.379 . S
H871 C865 0.959 . S
H872 C865 0.961 . S
H873 C865 0.960 . S
H874 C866 0.930 . S
H875 C867 0.929 . S
H876 C884 0.929 . S
H877 C886 0.930 . S
H878 C888 0.930 . S
H879 C891 0.929 . S
H880 C894 0.930 . S
H881 C896 0.960 . S
H882 C896 0.960 . S
H883 C896 0.960 . S
C884 H876 0.929 . S
C884 C885 1.377 . S
C884 C886 1.384 . S
C885 C884 1.377 . S
C885 C891 1.390 . S
C886 H877 0.930 . S
C886 C884 1.384 . S
C886 C887 1.372 . S
C887 C886 1.372 . S
C887 C888 1.400 . S
C887 C892 1.490 . S
C888 H878 0.930 . S
C888 C887 1.400 . S
C888 C891 1.386 . S
H889 C905 0.930 . S
H890 C906 0.931 . S
C891 H879 0.929 . S
C891 C885 1.390 . S
C891 C888 1.386 . S
C892 C887 1.490 . S
C892 C894 1.395 . S
C892 C895 1.403 . S
H893 C899 0.930 . S
C894 H880 0.930 . S
C894 C892 1.395 . S
C894 C897 1.403 . S
C895 C892 1.403 . S
C895 C896 1.524 . S
C895 C899 1.400 . S
C896 H881 0.960 . S
C896 H882 0.960 . S
C896 H883 0.960 . S
C896 C895 1.524 . S
C897 C894 1.403 . S
C897 C898 1.392 . S
C897 C901 1.495 . S
C898 C897 1.392 . S
C898 C899 1.385 . S
C898 C900 1.478 . S
C899 H893 0.930 . S
C899 C895 1.400 . S
C899 C898 1.385 . S
C900 C898 1.478 . S
C900 C902 1.381 . S
C900 C906 1.383 . S
C901 C897 1.495 . S
C901 H907 0.959 . S
C901 H908 0.961 . S
C901 H909 0.960 . S
C902 C900 1.381 . S
C902 C903 1.394 . S
C902 H910 0.930 . S
C903 C902 1.394 . S
C903 C904 1.383 . S
C903 H911 0.929 . S
C904 C903 1.383 . S
C904 C905 1.377 . S
C905 H889 0.930 . S
C905 C904 1.377 . S
C905 C906 1.379 . S
C906 H890 0.931 . S
C906 C900 1.383 . S
C906 C905 1.379 . S
H907 C901 0.959 . S
H908 C901 0.961 . S
H909 C901 0.960 . S
H910 C902 0.930 . S
H911 C903 0.929 . S
H912 C920 0.929 . S
H913 C922 0.930 . S
H914 C924 0.930 . S
H915 C927 0.929 . S
H916 C930 0.930 . S
H917 C932 0.960 . S
H918 C932 0.960 . S
H919 C932 0.960 . S
C920 H912 0.929 . S
C920 C921 1.377 . S
C920 C922 1.384 . S
C921 C920 1.377 . S
C921 C927 1.390 . S
C922 H913 0.930 . S
C922 C920 1.384 . S
C922 C923 1.372 . S
C923 C922 1.372 . S
C923 C924 1.400 . S
C923 C928 1.490 . S
C924 H914 0.930 . S
C924 C923 1.400 . S
C924 C927 1.386 . S
H925 C941 0.930 . S
H926 C942 0.931 . S
C927 H915 0.929 . S
C927 C921 1.390 . S
C927 C924 1.386 . S
C928 C923 1.490 . S
C928 C930 1.395 . S
C928 C931 1.403 . S
H929 C935 0.930 . S
C930 H916 0.930 . S
C930 C928 1.395 . S
C930 C933 1.403 . S
C931 C928 1.403 . S
C931 C932 1.524 . S
C931 C935 1.400 . S
C932 H917 0.960 . S
C932 H918 0.960 . S
C932 H919 0.960 . S
C932 C931 1.524 . S
C933 C930 1.403 . S
C933 C934 1.392 . S
C933 C937 1.495 . S
C934 C933 1.392 . S
C934 C935 1.385 . S
C934 C936 1.478 . S
C935 H929 0.930 . S
C935 C931 1.400 . S
C935 C934 1.385 . S
C936 C934 1.478 . S
C936 C938 1.381 . S
C936 C942 1.383 . S
C937 C933 1.495 . S
C937 H943 0.959 . S
C937 H944 0.961 . S
C937 H945 0.960 . S
C938 C936 1.381 . S
C938 C939 1.394 . S
C938 H946 0.930 . S
C939 C938 1.394 . S
C939 C940 1.383 . S
C939 H947 0.929 . S
C940 C939 1.383 . S
C940 C941 1.377 . S
C941 H925 0.930 . S
C941 C940 1.377 . S
C941 C942 1.379 . S
C942 H926 0.931 . S
C942 C936 1.383 . S
C942 C941 1.379 . S
H943 C937 0.959 . S
H944 C937 0.961 . S
H945 C937 0.960 . S
H946 C938 0.930 . S
H947 C939 0.929 . S
H948 C956 0.929 . S
H949 C958 0.930 . S
H950 C960 0.930 . S
H951 C963 0.929 . S
H952 C966 0.930 . S
H953 C968 0.960 . S
H954 C968 0.960 . S
H955 C968 0.960 . S
C956 H948 0.929 . S
C956 C957 1.377 . S
C956 C958 1.384 . S
C957 C956 1.377 . S
C957 C963 1.390 . S
C958 H949 0.930 . S
C958 C956 1.384 . S
C958 C959 1.372 . S
C959 C958 1.372 . S
C959 C960 1.400 . S
C959 C964 1.490 . S
C960 H950 0.930 . S
C960 C959 1.400 . S
C960 C963 1.386 . S
H961 C977 0.930 . S
H962 C978 0.931 . S
C963 H951 0.929 . S
C963 C957 1.390 . S
C963 C960 1.386 . S
C964 C959 1.490 . S
C964 C966 1.395 . S
C964 C967 1.403 . S
H965 C971 0.930 . S
C966 H952 0.930 . S
C966 C964 1.395 . S
C966 C969 1.403 . S
C967 C964 1.403 . S
C967 C968 1.524 . S
C967 C971 1.400 . S
C968 H953 0.960 . S
C968 H954 0.960 . S
C968 H955 0.960 . S
C968 C967 1.524 . S
C969 C966 1.403 . S
C969 C970 1.392 . S
C969 C973 1.495 . S
C970 C969 1.392 . S
C970 C971 1.385 . S
C970 C972 1.478 . S
C971 H965 0.930 . S
C971 C967 1.400 . S
C971 C970 1.385 . S
C972 C970 1.478 . S
C972 C974 1.381 . S
C972 C978 1.383 . S
C973 C969 1.495 . S
C973 H979 0.959 . S
C973 H980 0.961 . S
C973 H981 0.960 . S
C974 C972 1.381 . S
C974 C975 1.394 . S
C974 H982 0.930 . S
C975 C974 1.394 . S
C975 C976 1.383 . S
C975 H983 0.929 . S
C976 C975 1.383 . S
C976 C977 1.377 . S
C977 H961 0.930 . S
C977 C976 1.377 . S
C977 C978 1.379 . S
C978 H962 0.931 . S
C978 C972 1.383 . S
C978 C977 1.379 . S
H979 C973 0.959 . S
H980 C973 0.961 . S
H981 C973 0.960 . S
H982 C974 0.930 . S
H983 C975 0.929 . S
H984 C992 0.929 . S
H985 C994 0.930 . S
H986 C996 0.930 . S
H987 C999 0.929 . S
H988 C1002 0.930 . S
H989 C1004 0.960 . S
H990 C1004 0.960 . S
H991 C1004 0.960 . S
C992 H984 0.929 . S
C992 C993 1.377 . S
C992 C994 1.384 . S
C993 C992 1.377 . S
C993 C999 1.390 . S
C994 H985 0.930 . S
C994 C992 1.384 . S
C994 C995 1.372 . S
C995 C994 1.372 . S
C995 C996 1.400 . S
C995 C1000 1.490 . S
C996 H986 0.930 . S
C996 C995 1.400 . S
C996 C999 1.386 . S
H997 C1013 0.930 . S
H998 C1014 0.931 . S
C999 H987 0.929 . S
C999 C993 1.390 . S
C999 C996 1.386 . S
C1000 C995 1.490 . S
C1000 C1002 1.395 . S
C1000 C1003 1.403 . S
H1001 C1007 0.930 . S
C1002 H988 0.930 . S
C1002 C1000 1.395 . S
C1002 C1005 1.403 . S
C1003 C1000 1.403 . S
C1003 C1004 1.524 . S
C1003 C1007 1.400 . S
C1004 H989 0.960 . S
C1004 H990 0.960 . S
C1004 H991 0.960 . S
C1004 C1003 1.524 . S
C1005 C1002 1.403 . S
C1005 C1006 1.392 . S
C1005 C1009 1.495 . S
C1006 C1005 1.392 . S
C1006 C1007 1.385 . S
C1006 C1008 1.478 . S
C1007 H1001 0.930 . S
C1007 C1003 1.400 . S
C1007 C1006 1.385 . S
C1008 C1006 1.478 . S
C1008 C1010 1.381 . S
C1008 C1014 1.383 . S
C1009 C1005 1.495 . S
C1009 H1015 0.959 . S
C1009 H1016 0.961 . S
C1009 H1017 0.960 . S
C1010 C1008 1.381 . S
C1010 C1011 1.394 . S
C1010 H1018 0.930 . S
C1011 C1010 1.394 . S
C1011 C1012 1.383 . S
C1011 H1019 0.929 . S
C1012 C1011 1.383 . S
C1012 C1013 1.377 . S
C1013 H997 0.930 . S
C1013 C1012 1.377 . S
C1013 C1014 1.379 . S
C1014 H998 0.931 . S
C1014 C1008 1.383 . S
C1014 C1013 1.379 . S
H1015 C1009 0.959 . S
H1016 C1009 0.961 . S
H1017 C1009 0.960 . S
H1018 C1010 0.930 . S
H1019 C1011 0.929 . S
H1020 C1028 0.929 . S
H1021 C1030 0.930 . S
H1022 C1032 0.930 . S
H1023 C1035 0.929 . S
H1024 C1038 0.930 . S
H1025 C1040 0.960 . S
H1026 C1040 0.960 . S
H1027 C1040 0.960 . S
C1028 H1020 0.929 . S
C1028 C1029 1.377 . S
C1028 C1030 1.384 . S
C1029 C1028 1.377 . S
C1029 C1035 1.390 . S
C1030 H1021 0.930 . S
C1030 C1028 1.384 . S
C1030 C1031 1.372 . S
C1031 C1030 1.372 . S
C1031 C1032 1.400 . S
C1031 C1036 1.490 . S
C1032 H1022 0.930 . S
C1032 C1031 1.400 . S
C1032 C1035 1.386 . S
H1033 C1049 0.930 . S
H1034 C1050 0.931 . S
C1035 H1023 0.929 . S
C1035 C1029 1.390 . S
C1035 C1032 1.386 . S
C1036 C1031 1.490 . S
C1036 C1038 1.395 . S
C1036 C1039 1.403 . S
H1037 C1043 0.930 . S
C1038 H1024 0.930 . S
C1038 C1036 1.395 . S
C1038 C1041 1.403 . S
C1039 C1036 1.403 . S
C1039 C1040 1.524 . S
C1039 C1043 1.400 . S
C1040 H1025 0.960 . S
C1040 H1026 0.960 . S
C1040 H1027 0.960 . S
C1040 C1039 1.524 . S
C1041 C1038 1.403 . S
C1041 C1042 1.392 . S
C1041 C1045 1.495 . S
C1042 C1041 1.392 . S
C1042 C1043 1.385 . S
C1042 C1044 1.478 . S
C1043 H1037 0.930 . S
C1043 C1039 1.400 . S
C1043 C1042 1.385 . S
C1044 C1042 1.478 . S
C1044 C1046 1.381 . S
C1044 C1050 1.383 . S
C1045 C1041 1.495 . S
C1045 H1051 0.959 . S
C1045 H1052 0.961 . S
C1045 H1053 0.960 . S
C1046 C1044 1.381 . S
C1046 C1047 1.394 . S
C1046 H1054 0.930 . S
C1047 C1046 1.394 . S
C1047 C1048 1.383 . S
C1047 H1055 0.929 . S
C1048 C1047 1.383 . S
C1048 C1049 1.377 . S
C1049 H1033 0.930 . S
C1049 C1048 1.377 . S
C1049 C1050 1.379 . S
C1050 H1034 0.931 . S
C1050 C1044 1.383 . S
C1050 C1049 1.379 . S
H1051 C1045 0.959 . S
H1052 C1045 0.961 . S
H1053 C1045 0.960 . S
H1054 C1046 0.930 . S
H1055 C1047 0.929 . S
C201 N2 1.544 1_556 S
C220 C130 1.505 . S
C256 C108 1.535 . S
C237 N15 1.545 . S
C292 C134 1.503 . S
C273 N28 1.547 . S
C328 C112 1.536 . S
C309 N41 1.536 . S
C364 C174 1.528 . S
C345 N54 1.544 1_556 S
C400 C152 1.536 . S
C381 N67 1.544 . S
C417 N80 1.546 . S
C436 C178 1.503 . S
C472 C156 1.525 . S
C453 N93 1.535 . S
C489 N5 1.501 1_556 S
C508 C179 1.501 . S
C544 C157 1.486 . S
C525 N18 1.503 . S
C561 N31 1.502 1_556 S
C580 C176 1.501 . S
C597 N44 1.503 . S
C616 C154 1.489 . S
C652 C135 1.469 . S
C633 N57 1.505 1_556 S
C669 N70 1.501 . S
C688 C113 1.493 . S
C724 C132 1.498 . S
C705 N83 1.502 1_556 S
C760 C110 1.485 . S
C741 N96 1.503 . S
C796 C153 1.466 . S
C777 N1 1.502 . S
C832 C175 1.465 . S
C813 N14 1.502 . S
C849 N27 1.494 . S
C868 C155 1.467 . S
C904 C177 1.498 . S
C885 N40 1.488 . S
C940 C109 1.466 . S
C921 N53 1.503 . S
C957 N66 1.502 . S
C976 C131 1.464 . S
C993 N79 1.488 . S
C1012 C111 1.496 . S
C1029 N92 1.494 . S
C1048 C133 1.467 . S
