# Generated by pormake.
# Topology ctn, (3,4)-cn, num edge types: 1
# Building blocks:
#     Node 0, Type 0, BuildingBlock: BELTOD_clean_linker_0, # of connection points: 3
#     Node 1, Type 0, BuildingBlock: BELTOD_clean_linker_0, # of connection points: 3
#     Node 2, Type 0, BuildingBlock: BELTOD_clean_linker_0, # of connection points: 3
#     Node 3, Type 0, BuildingBlock: BELTOD_clean_linker_0, # of connection points: 3
#     Node 4, Type 0, BuildingBlock: BELTOD_clean_linker_0, # of connection points: 3
#     Node 5, Type 0, BuildingBlock: BELTOD_clean_linker_0, # of connection points: 3
#     Node 6, Type 0, BuildingBlock: BELTOD_clean_linker_0, # of connection points: 3
#     Node 7, Type 0, BuildingBlock: BELTOD_clean_linker_0, # of connection points: 3
#     Node 8, Type 0, BuildingBlock: BELTOD_clean_linker_0, # of connection points: 3
#     Node 9, Type 0, BuildingBlock: BELTOD_clean_linker_0, # of connection points: 3
#     Node 10, Type 0, BuildingBlock: BELTOD_clean_linker_0, # of connection points: 3
#     Node 11, Type 0, BuildingBlock: BELTOD_clean_linker_0, # of connection points: 3
#     Node 12, Type 0, BuildingBlock: BELTOD_clean_linker_0, # of connection points: 3
#     Node 13, Type 0, BuildingBlock: BELTOD_clean_linker_0, # of connection points: 3
#     Node 14, Type 0, BuildingBlock: BELTOD_clean_linker_0, # of connection points: 3
#     Node 15, Type 0, BuildingBlock: BELTOD_clean_linker_0, # of connection points: 3
#     Node 16, Type 1, BuildingBlock: KUFVIS_clean_sbu_0, # of connection points: 4
#     Node 17, Type 1, BuildingBlock: KUFVIS_clean_sbu_0, # of connection points: 4
#     Node 18, Type 1, BuildingBlock: KUFVIS_clean_sbu_0, # of connection points: 4
#     Node 19, Type 1, BuildingBlock: KUFVIS_clean_sbu_0, # of connection points: 4
#     Node 20, Type 1, BuildingBlock: KUFVIS_clean_sbu_0, # of connection points: 4
#     Node 21, Type 1, BuildingBlock: KUFVIS_clean_sbu_0, # of connection points: 4
#     Node 22, Type 1, BuildingBlock: KUFVIS_clean_sbu_0, # of connection points: 4
#     Node 23, Type 1, BuildingBlock: KUFVIS_clean_sbu_0, # of connection points: 4
#     Node 24, Type 1, BuildingBlock: KUFVIS_clean_sbu_0, # of connection points: 4
#     Node 25, Type 1, BuildingBlock: KUFVIS_clean_sbu_0, # of connection points: 4
#     Node 26, Type 1, BuildingBlock: KUFVIS_clean_sbu_0, # of connection points: 4
#     Node 27, Type 1, BuildingBlock: KUFVIS_clean_sbu_0, # of connection points: 4
#     Edge 28, Type (0, 1), BuildingBlock: OJICUG_clean_linker_0, # of connection points: 2
#     Edge 29, Type (0, 1), BuildingBlock: OJICUG_clean_linker_0, # of connection points: 2
#     Edge 30, Type (0, 1), BuildingBlock: OJICUG_clean_linker_0, # of connection points: 2
#     Edge 31, Type (0, 1), BuildingBlock: OJICUG_clean_linker_0, # of connection points: 2
#     Edge 32, Type (0, 1), BuildingBlock: OJICUG_clean_linker_0, # of connection points: 2
#     Edge 33, Type (0, 1), BuildingBlock: OJICUG_clean_linker_0, # of connection points: 2
#     Edge 34, Type (0, 1), BuildingBlock: OJICUG_clean_linker_0, # of connection points: 2
#     Edge 35, Type (0, 1), BuildingBlock: OJICUG_clean_linker_0, # of connection points: 2
#     Edge 36, Type (0, 1), BuildingBlock: OJICUG_clean_linker_0, # of connection points: 2
#     Edge 37, Type (0, 1), BuildingBlock: OJICUG_clean_linker_0, # of connection points: 2
#     Edge 38, Type (0, 1), BuildingBlock: OJICUG_clean_linker_0, # of connection points: 2
#     Edge 39, Type (0, 1), BuildingBlock: OJICUG_clean_linker_0, # of connection points: 2
#     Edge 40, Type (0, 1), BuildingBlock: OJICUG_clean_linker_0, # of connection points: 2
#     Edge 41, Type (0, 1), BuildingBlock: OJICUG_clean_linker_0, # of connection points: 2
#     Edge 42, Type (0, 1), BuildingBlock: OJICUG_clean_linker_0, # of connection points: 2
#     Edge 43, Type (0, 1), BuildingBlock: OJICUG_clean_linker_0, # of connection points: 2
#     Edge 44, Type (0, 1), BuildingBlock: OJICUG_clean_linker_0, # of connection points: 2
#     Edge 45, Type (0, 1), BuildingBlock: OJICUG_clean_linker_0, # of connection points: 2
#     Edge 46, Type (0, 1), BuildingBlock: OJICUG_clean_linker_0, # of connection points: 2
#     Edge 47, Type (0, 1), BuildingBlock: OJICUG_clean_linker_0, # of connection points: 2
#     Edge 48, Type (0, 1), BuildingBlock: OJICUG_clean_linker_0, # of connection points: 2
#     Edge 49, Type (0, 1), BuildingBlock: OJICUG_clean_linker_0, # of connection points: 2
#     Edge 50, Type (0, 1), BuildingBlock: OJICUG_clean_linker_0, # of connection points: 2
#     Edge 51, Type (0, 1), BuildingBlock: OJICUG_clean_linker_0, # of connection points: 2
#     Edge 52, Type (0, 1), BuildingBlock: OJICUG_clean_linker_0, # of connection points: 2
#     Edge 53, Type (0, 1), BuildingBlock: OJICUG_clean_linker_0, # of connection points: 2
#     Edge 54, Type (0, 1), BuildingBlock: OJICUG_clean_linker_0, # of connection points: 2
#     Edge 55, Type (0, 1), BuildingBlock: OJICUG_clean_linker_0, # of connection points: 2
#     Edge 56, Type (0, 1), BuildingBlock: OJICUG_clean_linker_0, # of connection points: 2
#     Edge 57, Type (0, 1), BuildingBlock: OJICUG_clean_linker_0, # of connection points: 2
#     Edge 58, Type (0, 1), BuildingBlock: OJICUG_clean_linker_0, # of connection points: 2
#     Edge 59, Type (0, 1), BuildingBlock: OJICUG_clean_linker_0, # of connection points: 2
#     Edge 60, Type (0, 1), BuildingBlock: OJICUG_clean_linker_0, # of connection points: 2
#     Edge 61, Type (0, 1), BuildingBlock: OJICUG_clean_linker_0, # of connection points: 2
#     Edge 62, Type (0, 1), BuildingBlock: OJICUG_clean_linker_0, # of connection points: 2
#     Edge 63, Type (0, 1), BuildingBlock: OJICUG_clean_linker_0, # of connection points: 2
#     Edge 64, Type (0, 1), BuildingBlock: OJICUG_clean_linker_0, # of connection points: 2
#     Edge 65, Type (0, 1), BuildingBlock: OJICUG_clean_linker_0, # of connection points: 2
#     Edge 66, Type (0, 1), BuildingBlock: OJICUG_clean_linker_0, # of connection points: 2
#     Edge 67, Type (0, 1), BuildingBlock: OJICUG_clean_linker_0, # of connection points: 2
#     Edge 68, Type (0, 1), BuildingBlock: OJICUG_clean_linker_0, # of connection points: 2
#     Edge 69, Type (0, 1), BuildingBlock: OJICUG_clean_linker_0, # of connection points: 2
#     Edge 70, Type (0, 1), BuildingBlock: OJICUG_clean_linker_0, # of connection points: 2
#     Edge 71, Type (0, 1), BuildingBlock: OJICUG_clean_linker_0, # of connection points: 2
#     Edge 72, Type (0, 1), BuildingBlock: OJICUG_clean_linker_0, # of connection points: 2
#     Edge 73, Type (0, 1), BuildingBlock: OJICUG_clean_linker_0, # of connection points: 2
#     Edge 74, Type (0, 1), BuildingBlock: OJICUG_clean_linker_0, # of connection points: 2
#     Edge 75, Type (0, 1), BuildingBlock: OJICUG_clean_linker_0, # of connection points: 2
# Relax obj value: 0.013
# Max RMSD: 0.066
# Mean RMSD: 0.034
data_MOF--net-ctn--node1-KUFVIS_clean_sbu_0--node2-BELTOD_clean_linker_0--edge1-OJICUG_clean_linker_0
_symmetry_space_group_name_H-M    P1
_symmetry_Int_Tables_number       1
_symmetry_cell_setting            triclinic
loop_
_symmetry_equiv_pos_as_xyz
'x, y, z'
_cell_length_a     46.613573
_cell_length_b     46.817088
_cell_length_c     46.625943
_cell_angle_alpha  90.360762
_cell_angle_beta   90.411066
_cell_angle_gamma 92.662796
loop_
_atom_site_label
_atom_site_type_symbol
_atom_site_fract_x
_atom_site_fract_y
_atom_site_fract_z
_atom_type_partial_charge
P0 P 0.06793 0.06935 0.07588 0.0
H1 H 0.07189 0.04522 0.13296 0.0
H2 H 0.03625 0.02336 0.16545 0.0
H3 H 0.97069 0.03081 0.10038 0.0
H4 H 0.00656 0.05211 0.06775 0.0
H5 H 0.12483 0.05259 0.09354 0.0
H6 H 0.15659 0.01644 0.07624 0.0
H7 H 0.0941 0.99076 0.01109 0.0
H8 H 0.06214 0.02724 0.02872 0.0
H9 H 0.02118 0.1085 0.07796 0.0
H10 H 0.08136 0.08071 0.01503 0.0
O11 O 0.08738 0.09193 0.0969 0.0
H12 H 0.00265 0.14238 0.04369 0.0
H13 H 0.06245 0.11397 0.98033 0.0
C14 C 0.04169 0.05112 0.09831 0.0
C15 C 0.04987 0.04197 0.12562 0.0
C16 C 0.02955 0.02931 0.1441 0.0
C17 C 1.00063 0.02569 0.13557 0.0
C18 C 0.99275 0.03376 0.10768 0.0
C19 C 0.01321 0.04603 0.08906 0.0
C20 C 0.09143 0.04312 0.06193 0.0
C21 C 0.11797 0.03939 0.07538 0.0
C22 C 0.13604 0.0185 0.06564 0.0
C23 C 0.12791 1.00076 0.04225 0.0
C24 C 0.10112 0.00435 0.02893 0.0
C25 C 0.08287 0.02515 0.03894 0.0
C26 C 0.05194 0.09123 0.04881 0.0
C27 C 0.02987 0.10909 0.05648 0.0
C28 C 0.01929 0.12853 0.03681 0.0
C29 C 0.03088 0.13087 0.0091 0.0
C30 C 0.05308 0.11291 1.00151 0.0
C31 C 0.06366 0.09349 0.02125 0.0
P32 P 0.33845 0.68059 0.18105 0.0
H33 H 0.36957 0.71396 0.13801 0.0
H34 H 0.35796 0.75582 0.11004 0.0
H35 H 0.27753 0.76006 0.1552 0.0
H36 H 0.29008 0.71897 0.18401 0.0
H37 H 0.39537 0.66283 0.1986 0.0
H38 H 0.42563 0.67421 0.24039 0.0
H39 H 0.36071 0.72839 0.2734 0.0
H40 H 0.33077 0.71731 0.23103 0.0
H41 H 0.28221 0.66862 0.15387 0.0
H42 H 0.32597 0.64542 0.23154 0.0
O43 O 0.35616 0.65996 0.15859 0.0
H44 H 0.2406 0.63799 0.16735 0.0
H45 H 0.28518 0.61406 0.24456 0.0
C46 C 0.33023 0.71279 0.16234 0.0
C47 C 0.34949 0.72401 0.14195 0.0
C48 C 0.34274 0.7479 0.12588 0.0
C49 C 0.3165 0.76107 0.12987 0.0
C50 C 0.29793 0.75059 0.1515 0.0
C51 C 0.3049 0.72682 0.16779 0.0
C52 C 0.36102 0.68956 0.21158 0.0
C53 C 0.38768 0.67727 0.21474 0.0
C54 C 0.40486 0.68355 0.23885 0.0
C55 C 0.39561 0.70218 0.26031 0.0
C56 C 0.36865 0.71424 0.25712 0.0
C57 C 0.35151 0.70795 0.23295 0.0
C58 C 0.30683 0.66009 0.19214 0.0
C59 C 0.28271 0.65729 0.17403 0.0
C60 C 0.25907 0.63947 0.18159 0.0
C61 C 0.25944 0.62363 0.20713 0.0
C62 C 0.28381 0.62642 0.22509 0.0
C63 C 0.30727 0.64438 0.21761 0.0
P64 P 0.98704 0.49593 0.02363 0.0
H65 H 0.95289 0.46952 0.97683 0.0
H66 H 0.95139 0.42175 0.95508 0.0
H67 H 0.01408 0.39528 0.01681 0.0
H68 H 0.01489 0.44268 0.03907 0.0
H69 H 0.97526 0.55631 0.0211 0.0
H70 H 0.93097 0.58229 0.01922 0.0
H71 H 0.88124 0.50237 0.02459 0.0
H72 H 0.92576 0.4765 0.02687 0.0
H73 H 0.04627 0.49253 0.04286 0.0
H74 H 0.96382 0.50292 0.08197 0.0
O75 O 0.0094 0.51344 1.00135 0.0
H76 H 0.06951 0.49615 0.08999 0.0
H77 H 0.9871 0.50704 0.1293 0.0
C78 C 0.98329 0.4596 0.0102 0.0
C79 C 0.96573 0.45326 0.98622 0.0
C80 C 0.96504 0.42601 0.97367 0.0
C81 C 0.98259 0.4048 0.98431 0.0
C82 C 1.00039 0.41124 0.00813 0.0
C83 C 1.00066 0.43836 0.021 0.0
C84 C 0.95383 0.51442 0.0233 0.0
C85 C 0.95483 0.54435 0.02184 0.0
C86 C 0.92949 0.55921 0.02092 0.0
C87 C 0.90257 0.54438 0.02143 0.0
C88 C 0.90164 0.51436 0.02362 0.0
C89 C 0.92707 0.49954 0.02491 0.0
C90 C 0.00338 0.49773 0.05885 0.0
C91 C 0.03316 0.49556 0.06162 0.0
C92 C 0.0464 0.49745 0.08859 0.0
C93 C 0.03012 0.50188 0.11334 0.0
C94 C 1.00019 0.50381 0.11057 0.0
C95 C 0.98689 0.50146 0.08354 0.0
P96 P 0.66861 0.83765 0.17741 0.0
H97 H 0.69075 0.89189 0.15331 0.0
H98 H 0.73156 0.92408 0.16601 0.0
H99 H 0.75645 0.86519 0.23177 0.0
H100 H 0.71512 0.83341 0.21924 0.0
H101 H 0.63503 0.78561 0.16263 0.0
H102 H 0.64513 0.7439 0.13316 0.0
H103 H 0.73213 0.77751 0.12138 0.0
H104 H 0.72199 0.81885 0.15115 0.0
H105 H 0.62922 0.87191 0.20929 0.0
H106 H 0.66622 0.78974 0.21826 0.0
O107 O 0.64728 0.8548 0.15511 0.0
H108 H 0.60162 0.86361 0.25303 0.0
H109 H 0.638 0.78077 0.26159 0.0
C110 C 0.69976 0.86046 0.18561 0.0
C111 C 0.70503 0.88587 0.17042 0.0
C112 C 0.72857 0.90418 0.17756 0.0
C113 C 0.74736 0.89732 0.19997 0.0
C114 C 0.74228 0.87138 0.21465 0.0
C115 C 0.71871 0.85312 0.20749 0.0
C116 C 0.67782 0.80513 0.15948 0.0
C117 C 0.65644 0.78368 0.15418 0.0
C118 C 0.66219 0.75998 0.13712 0.0
C119 C 0.68943 0.75739 0.12481 0.0
C120 C 0.71105 0.77861 0.13083 0.0
C121 C 0.70524 0.80235 0.14786 0.0
C122 C 0.64908 0.8311 0.2101 0.0
C123 C 0.63122 0.85195 0.2206 0.0
C124 C 0.61541 0.84714 0.2456 0.0
C125 C 0.61726 0.82136 0.26071 0.0
C126 C 0.63612 0.80093 0.25064 0.0
C127 C 0.65203 0.80586 0.22564 0.0
P128 P 0.05608 0.94295 0.45624 0.0
H129 H 0.11847 0.94557 0.44964 0.0
H130 H 0.1563 0.97942 0.46626 0.0
H131 H 0.09302 0.02905 0.50864 0.0
H132 H 0.05501 0.99473 0.4919 0.0
H133 H 0.00348 0.90634 0.46017 0.0
H134 H 0.98515 0.87356 0.49678 0.0
H135 H 0.05898 0.89663 0.55028 0.0
H136 H 0.07574 0.93082 0.51457 0.0
H137 H 0.0606 0.96884 0.40001 0.0
H138 H 0.9959 0.95903 0.46529 0.0
O139 O 0.07104 0.91959 0.43439 0.0
H140 H 0.02474 0.98621 0.36654 0.0
H141 H 0.9597 0.97528 0.43146 0.0
C142 C 0.08388 0.96788 0.46922 0.0
C143 C 0.11263 0.96372 0.46247 0.0
C144 C 0.1343 0.98314 0.47199 0.0
C145 C 0.12769 0.0071 0.48858 0.0
C146 C 0.09886 0.01077 0.49601 0.0
C147 C 0.0771 0.99132 0.48631 0.0
C148 C 0.04037 0.92201 0.48502 0.0
C149 C 0.01509 0.90517 0.48029 0.0
C150 C 0.00492 0.88591 0.50112 0.0
C151 C 0.02045 0.8822 0.52677 0.0
C152 C 0.04584 0.89924 0.53134 0.0
C153 C 0.05562 0.91889 0.51073 0.0
C154 C 0.03068 0.96158 0.43474 0.0
C155 C 0.03876 0.97084 0.40728 0.0
C156 C 0.01832 0.98094 0.38823 0.0
C157 C 0.98941 0.98172 0.39632 0.0
C158 C 0.98183 0.97458 0.42463 0.0
C159 C 0.00244 0.96502 0.44386 0.0
P160 P 0.21543 0.71647 0.80131 0.0
H161 H 0.25893 0.75465 0.82711 0.0
H162 H 0.26138 0.78177 0.8714 0.0
H163 H 0.18004 0.742 0.89738 0.0
H164 H 0.17767 0.71513 0.85207 0.0
H165 H 0.24884 0.69069 0.75664 0.0
H166 H 0.27965 0.65007 0.75576 0.0
H167 H 0.25644 0.63019 0.84313 0.0
H168 H 0.22539 0.67135 0.84392 0.0
H169 H 0.16701 0.75306 0.80401 0.0
H170 H 0.18424 0.67001 0.76939 0.0
O171 O 0.23117 0.73928 0.77826 0.0
H172 H 0.12053 0.75139 0.77953 0.0
H173 H 0.13788 0.66843 0.74432 0.0
C174 C 0.21782 0.73347 0.83602 0.0
C175 C 0.24164 0.75168 0.84236 0.0
C176 C 0.24304 0.76712 0.86799 0.0
C177 C 0.22067 0.76459 0.88813 0.0
C178 C 0.19734 0.74516 0.8822 0.0
C179 C 0.19601 0.72961 0.85637 0.0
C180 C 0.23533 0.68439 0.80053 0.0
C181 C 0.25029 0.67765 0.77564 0.0
C182 C 0.268 0.65446 0.7752 0.0
C183 C 0.27092 0.6373 0.79958 0.0
C184 C 0.25473 0.64317 0.82411 0.0
C185 C 0.23707 0.66666 0.82459 0.0
C186 C 0.17887 0.71145 0.78898 0.0
C187 C 0.16044 0.73409 0.79178 0.0
C188 C 0.134 0.73326 0.77749 0.0
C189 C 0.12562 0.70989 0.75978 0.0
C190 C 0.14358 0.68661 0.75803 0.0
C191 C 0.17013 0.68749 0.77237 0.0
P192 P 0.99733 0.51164 0.49842 0.0
H193 H 0.05082 0.49067 0.4756 0.0
H194 H 0.07197 0.4914 0.42787 0.0
H195 H 0.99797 0.53328 0.39498 0.0
H196 H 0.97722 0.53293 0.44303 0.0
H197 H 0.03263 0.5352 0.54594 0.0
H198 H 0.03672 0.58224 0.56847 0.0
H199 H 0.97663 0.61358 0.50632 0.0
H200 H 0.97195 0.56594 0.48455 0.0
H201 H 0.96144 0.47618 0.45883 0.0
H202 H 0.9514 0.51968 0.53972 0.0
O203 O 0.01474 0.48879 0.51876 0.0
H204 H 0.91149 0.45833 0.46059 0.0
H205 H 0.90125 0.50145 0.54178 0.0
C206 C 0.0123 0.5115 0.46283 0.0
C207 C 0.03903 0.49983 0.45809 0.0
C208 C 0.05104 0.50009 0.43069 0.0
C209 C 0.03662 0.51222 0.40746 0.0
C210 C 0.00979 0.52396 0.41238 0.0
C211 C 0.99784 0.52372 0.43983 0.0
C212 C 1.00186 0.54704 0.51366 0.0
C213 C 0.02041 0.5522 0.53707 0.0
C214 C 0.02291 0.5793 0.54982 0.0
C215 C 0.00696 0.60188 0.53933 0.0
C216 C 0.98892 0.59668 0.51531 0.0
C217 C 0.98637 0.56949 0.50265 0.0
C218 C 0.9599 0.50009 0.49865 0.0
C219 C 0.94837 0.48238 0.47671 0.0
C220 C 0.91979 0.4721 0.47779 0.0
C221 C 0.90237 0.47876 0.50119 0.0
C222 C 0.91415 0.49603 0.52347 0.0
C223 C 0.9427 0.50661 0.52218 0.0
P224 P 0.83388 0.83533 0.83803 0.0
H225 H 0.88749 0.85368 0.80998 0.0
H226 H 0.91444 0.83388 0.77052 0.0
H227 H 0.84656 0.769 0.75696 0.0
H228 H 0.8203 0.7883 0.79715 0.0
H229 H 0.81856 0.89272 0.85556 0.0
H230 H 0.77939 0.92257 0.84296 0.0
H231 H 0.74358 0.85505 0.78768 0.0
H232 H 0.78478 0.82687 0.79798 0.0
H233 H 0.85688 0.81098 0.89081 0.0
H234 H 0.7841 0.79416 0.83455 0.0
O235 O 0.85761 0.85557 0.85708 0.0
H236 H 0.83933 0.7726 0.92242 0.0
H237 H 0.76719 0.75539 0.86516 0.0
C238 C 0.8521 0.82216 0.80695 0.0
C239 C 0.87836 0.83521 0.79851 0.0
C240 C 0.89367 0.824 0.77569 0.0
C241 C 0.88286 0.79962 0.76064 0.0
C242 C 0.85587 0.7874 0.76843 0.0
C243 C 0.84068 0.79854 0.79138 0.0
C244 C 0.80462 0.85735 0.82796 0.0
C245 C 0.80245 0.88444 0.84047 0.0
C246 C 0.77954 0.90142 0.83352 0.0
C247 C 0.75762 0.89139 0.81448 0.0
C248 C 0.75996 0.86403 0.80208 0.0
C249 C 0.78344 0.84748 0.80836 0.0
C250 C 0.8215 0.80604 0.86053 0.0
C251 C 0.83719 0.79904 0.88513 0.0
C252 C 0.82729 0.77686 0.90309 0.0
C253 C 0.80161 0.76111 0.8966 0.0
C254 C 0.78664 0.76753 0.87129 0.0
C255 C 0.79642 0.78977 0.85357 0.0
P256 P 0.33473 0.338 0.33937 0.0
H257 H 0.38886 0.35662 0.3124 0.0
H258 H 0.41705 0.33651 0.27398 0.0
H259 H 0.35007 0.27091 0.25957 0.0
H260 H 0.32251 0.29056 0.29867 0.0
H261 H 0.31841 0.39518 0.35652 0.0
H262 H 0.27912 0.42456 0.34316 0.0
H263 H 0.24528 0.3568 0.28705 0.0
H264 H 0.28663 0.3291 0.29819 0.0
H265 H 0.35709 0.31367 0.39244 0.0
H266 H 0.28512 0.2967 0.3352 0.0
O267 O 0.35788 0.35849 0.35886 0.0
H268 H 0.33936 0.27503 0.42365 0.0
H269 H 0.26806 0.25766 0.36539 0.0
C270 C 0.35379 0.32478 0.30885 0.0
C271 C 0.38018 0.33794 0.30095 0.0
C272 C 0.39622 0.32654 0.27874 0.0
C273 C 0.38604 0.30186 0.26381 0.0
C274 C 0.35891 0.28954 0.271 0.0
C275 C 0.34298 0.30089 0.29331 0.0
C276 C 0.30549 0.35973 0.32859 0.0
C277 C 0.30272 0.38675 0.34108 0.0
C278 C 0.27973 0.40346 0.33368 0.0
C279 C 0.25831 0.39322 0.3142 0.0
C280 C 0.26126 0.36594 0.30179 0.0
C281 C 0.28483 0.34967 0.30853 0.0
C282 C 0.32212 0.30867 0.36172 0.0
C283 C 0.33752 0.30165 0.38648 0.0
C284 C 0.32753 0.27932 0.40421 0.0
C285 C 0.30205 0.26342 0.39729 0.0
C286 C 0.28735 0.2699 0.37184 0.0
C287 C 0.29721 0.2923 0.35436 0.0
P288 P 0.48801 0.99867 0.52569 0.0
H289 H 0.45483 0.97301 0.47787 0.0
H290 H 0.45358 0.92554 0.45551 0.0
H291 H 0.51478 0.89793 0.51818 0.0
H292 H 0.51535 0.94506 0.54103 0.0
H293 H 0.47606 0.05905 0.52405 0.0
H294 H 0.43169 0.08491 0.52196 0.0
H295 H 0.38216 0.00474 0.52536 0.0
H296 H 0.42674 0.97899 0.52783 0.0
H297 H 0.54696 0.99441 0.54543 0.0
H298 H 0.46434 0.00577 0.58386 0.0
O299 O 0.51054 0.01654 0.50386 0.0
H300 H 0.56979 0.99756 0.59277 0.0
H301 H 0.48725 0.00947 0.6314 0.0
C302 C 0.48447 0.96252 0.51171 0.0
C303 C 0.46741 0.95657 0.48731 0.0
C304 C 0.46686 0.92948 0.47441 0.0
C305 C 0.48406 0.90804 0.48515 0.0
C306 C 0.50139 0.91409 0.5094 0.0
C307 C 0.50152 0.94105 0.5226 0.0
C308 C 0.45474 0.01706 0.52526 0.0
C309 C 0.45565 0.04702 0.52432 0.0
C310 C 0.43026 0.0618 0.52329 0.0
C311 C 0.40338 0.04687 0.52317 0.0
C312 C 0.40253 0.01682 0.52488 0.0
C313 C 0.428 1.00207 0.52627 0.0
C314 C 0.50401 1.00008 0.56107 0.0
C315 C 0.53372 0.99754 0.56409 0.0
C316 C 0.54673 0.99917 0.59116 0.0
C317 C 0.5303 0.00376 0.61579 0.0
C318 C 0.50045 0.00611 0.61276 0.0
C319 C 0.48736 0.00398 0.58562 0.0
P320 P 0.16601 0.33816 0.67751 0.0
H321 H 0.18618 0.39431 0.65659 0.0
H322 H 0.22818 0.42538 0.66823 0.0
H323 H 0.25894 0.36085 0.72513 0.0
H324 H 0.21684 0.32975 0.7132 0.0
H325 H 0.16275 0.32921 0.61572 0.0
H326 H 0.17347 0.28909 0.58465 0.0
H327 H 0.19985 0.24133 0.65854 0.0
H328 H 0.18916 0.282 0.68967 0.0
H329 H 0.17121 0.35687 0.73816 0.0
H330 H 0.11992 0.29567 0.68789 0.0
O331 O 0.14273 0.35772 0.65982 0.0
H332 H 0.14273 0.34458 0.7806 0.0
H333 H 0.09087 0.284 0.73014 0.0
C334 C 0.19816 0.35996 0.68449 0.0
C335 C 0.20205 0.38674 0.67143 0.0
C336 C 0.22621 0.40444 0.67794 0.0
C337 C 0.24691 0.39566 0.69768 0.0
C338 C 0.24332 0.36836 0.71001 0.0
C339 C 0.2193 0.35054 0.70322 0.0
C340 C 0.17455 0.30832 0.65504 0.0
C341 C 0.17067 0.31008 0.62531 0.0
C342 C 0.17675 0.28705 0.60756 0.0
C343 C 0.18712 0.26182 0.61915 0.0
C344 C 0.19187 0.26045 0.64895 0.0
C345 C 0.18564 0.28358 0.66677 0.0
C346 C 0.14821 0.32659 0.70994 0.0
C347 C 0.15433 0.3403 0.73632 0.0
C348 C 0.13794 0.33342 0.76059 0.0
C349 C 0.11462 0.3134 0.75859 0.0
C350 C 0.10869 0.29959 0.73221 0.0
C351 C 0.12539 0.30609 0.70814 0.0
P352 P 0.83715 0.18169 0.68062 0.0
H353 H 0.87119 0.22782 0.65446 0.0
H354 H 0.85856 0.27058 0.62802 0.0
H355 H 0.7688 0.25088 0.64462 0.0
H356 H 0.78146 0.20823 0.67076 0.0
H357 H 0.88931 0.15653 0.70199 0.0
H358 H 0.91964 0.16632 0.74402 0.0
H359 H 0.86157 0.2301 0.77219 0.0
H360 H 0.83235 0.22127 0.72909 0.0
H361 H 0.81466 0.12696 0.65713 0.0
H362 H 0.79201 0.18583 0.72385 0.0
O363 O 0.85684 0.16488 0.65659 0.0
H364 H 0.77449 0.09475 0.67033 0.0
H365 H 0.75108 0.15414 0.73664 0.0
C366 C 0.82733 0.21476 0.6645 0.0
C367 C 0.84881 0.23291 0.65267 0.0
C368 C 0.84158 0.25726 0.63751 0.0
C369 C 0.81268 0.26403 0.63417 0.0
C370 C 0.79127 0.24639 0.64708 0.0
C371 C 0.79852 0.22188 0.662 0.0
C372 C 0.85887 0.18853 0.7122 0.0
C373 C 0.88322 0.17276 0.71714 0.0
C374 C 0.90038 0.17814 0.74145 0.0
C375 C 0.89323 0.19912 0.76159 0.0
C376 C 0.86815 0.21421 0.75692 0.0
C377 C 0.85125 0.20906 0.73237 0.0
C378 C 0.80652 0.1587 0.68968 0.0
C379 C 0.80092 0.13309 0.67452 0.0
C380 C 0.7777 0.11476 0.68194 0.0
C381 C 0.75945 0.12179 0.70457 0.0
C382 C 0.7649 0.1478 0.71939 0.0
C383 C 0.78828 0.16601 0.71206 0.0
P384 P 0.56639 0.5728 0.57598 0.0
H385 H 0.56706 0.55905 0.63673 0.0
H386 H 0.53197 0.53535 0.66851 0.0
H387 H 0.47401 0.52082 0.59679 0.0
H388 H 0.50981 0.54354 0.56468 0.0
H389 H 0.61887 0.55045 0.59901 0.0
H390 H 0.65123 0.51473 0.58188 0.0
H391 H 0.59783 0.50067 0.50648 0.0
H392 H 0.56561 0.53699 0.52375 0.0
H393 H 0.50931 0.59667 0.56725 0.0
H394 H 0.59108 0.59862 0.52465 0.0
O395 O 0.58571 0.59583 0.59664 0.0
H396 H 0.49079 0.62866 0.53157 0.0
H397 H 0.5738 0.63286 0.49035 0.0
C398 C 0.5405 0.5542 0.59857 0.0
C399 C 0.54684 0.55075 0.62776 0.0
C400 C 0.52691 0.537 0.64588 0.0
C401 C 0.50022 0.5266 0.63511 0.0
C402 C 0.49433 0.52902 0.60563 0.0
C403 C 0.51463 0.54218 0.58736 0.0
C404 C 0.59025 0.54684 0.56231 0.0
C405 C 0.61423 0.53988 0.57866 0.0
C406 C 0.63259 0.51921 0.56896 0.0
C407 C 0.62718 0.50481 0.54277 0.0
C408 C 0.60285 0.51164 0.52654 0.0
C409 C 0.5844 0.53235 0.53637 0.0
C410 C 0.55122 0.59405 0.54791 0.0
C411 C 0.52318 0.60348 0.54986 0.0
C412 C 0.51279 0.62254 0.52966 0.0
C413 C 0.53063 0.63369 0.50772 0.0
C414 C 0.55894 0.62437 0.50621 0.0
C415 C 0.569 0.60474 0.52598 0.0
P416 P 0.55402 0.44368 0.95785 0.0
H417 H 0.61651 0.44323 0.95704 0.0
H418 H 0.65439 0.47724 0.97353 0.0
H419 H 0.59044 0.53188 0.00732 0.0
H420 H 0.55232 0.49795 0.98995 0.0
H421 H 0.53145 0.38478 0.95574 0.0
H422 H 0.51481 0.35116 0.99237 0.0
H423 H 0.5271 0.41734 0.05696 0.0
H424 H 0.54437 0.45076 0.02008 0.0
H425 H 0.55582 0.48737 0.91355 0.0
H426 H 0.49091 0.43815 0.9597 0.0
O427 O 0.56924 0.42328 0.9333 0.0
H428 H 0.51934 0.50187 0.87913 0.0
H429 H 0.45454 0.45275 0.9257 0.0
C430 C 0.58158 0.46835 0.97179 0.0
C431 C 0.61053 0.46255 0.9679 0.0
C432 C 0.63221 0.48197 0.97739 0.0
C433 C 0.62537 0.50736 0.99145 0.0
C434 C 0.59634 0.51252 0.99651 0.0
C435 C 0.57457 0.49324 0.98651 0.0
C436 C 0.53989 0.42005 0.98527 0.0
C437 C 0.53057 0.39208 0.97779 0.0
C438 C 0.52071 0.37294 0.99876 0.0
C439 C 0.51974 0.38144 0.02771 0.0
C440 C 0.52801 0.40993 0.03495 0.0
C441 C 0.53789 0.4291 0.01387 0.0
C442 C 0.52615 0.4616 0.93914 0.0
C443 C 0.53357 0.48055 0.9169 0.0
C444 C 0.5127 0.48889 0.89727 0.0
C445 C 0.48416 0.47813 0.89951 0.0
C446 C 0.47645 0.46109 0.92324 0.0
C447 C 0.49728 0.45279 0.9428 0.0
P448 P 0.7155 0.2181 0.31177 0.0
H449 H 0.73898 0.20686 0.3692 0.0
H450 H 0.73723 0.23399 0.41384 0.0
H451 H 0.67384 0.28733 0.37671 0.0
H452 H 0.67621 0.26057 0.33162 0.0
H453 H 0.77608 0.21233 0.32362 0.0
H454 H 0.80731 0.172 0.32186 0.0
H455 H 0.73428 0.11575 0.2995 0.0
H456 H 0.70296 0.15624 0.30238 0.0
H457 H 0.70572 0.22025 0.25037 0.0
H458 H 0.65534 0.20118 0.32563 0.0
O459 O 0.735 0.24412 0.29578 0.0
H460 H 0.66232 0.21702 0.22074 0.0
H461 H 0.61148 0.19832 0.29602 0.0
C462 C 0.70769 0.23162 0.34697 0.0
C463 C 0.72416 0.22389 0.37071 0.0
C464 C 0.72319 0.23946 0.3963 0.0
C465 C 0.7057 0.26303 0.39858 0.0
C466 C 0.68747 0.26925 0.37558 0.0
C467 C 0.68878 0.25391 0.34982 0.0
C468 C 0.73732 0.18734 0.31271 0.0
C469 C 0.76676 0.19126 0.31858 0.0
C470 C 0.78462 0.16817 0.31744 0.0
C471 C 0.77343 0.14064 0.31014 0.0
C472 C 0.74362 0.1366 0.30538 0.0
C473 C 0.72569 0.15978 0.30676 0.0
C474 C 0.68359 0.21177 0.29024 0.0
C475 C 0.68527 0.21527 0.26051 0.0
C476 C 0.66043 0.21352 0.24361 0.0
C477 C 0.63341 0.20802 0.25614 0.0
C478 C 0.63198 0.2027 0.28578 0.0
C479 C 0.65697 0.2045 0.30273 0.0
P480 P 0.49707 0.01233 1.00039 0.0
H481 H 0.55043 0.99064 0.97791 0.0
H482 H 0.57216 0.99161 0.93044 0.0
H483 H 0.49962 0.03571 0.89739 0.0
H484 H 0.4783 0.03511 0.94519 0.0
H485 H 0.53275 0.03595 0.04756 0.0
H486 H 0.53657 0.08281 0.07049 0.0
H487 H 0.47474 0.11377 0.0099 0.0
H488 H 0.47032 0.06627 0.98775 0.0
H489 H 0.46202 0.97753 0.95952 0.0
H490 H 0.4505 0.01896 0.04126 0.0
O491 O 0.5143 0.98941 0.02083 0.0
H492 H 0.41224 0.95909 0.9603 0.0
H493 H 0.4005 1.00014 0.04231 0.0
C494 C 0.51262 0.01261 0.96505 0.0
C495 C 0.5391 1.00039 0.96043 0.0
C496 C 0.55144 1.00077 0.93317 0.0
C497 C 0.53759 0.01357 0.90997 0.0
C498 C 0.51102 0.02588 0.91477 0.0
C499 C 0.49874 0.0255 0.94208 0.0
C500 C 0.50112 0.04758 0.01606 0.0
C501 C 0.52006 0.05282 0.03914 0.0
C502 C 0.5224 0.07982 0.05211 0.0
C503 C 0.50595 0.10225 0.04213 0.0
C504 C 0.48744 0.09698 0.01848 0.0
C505 C 0.48504 0.06988 0.00561 0.0
C506 C 0.45973 1.00044 0.99987 0.0
C507 C 0.44866 0.98317 0.97738 0.0
C508 C 0.42017 0.97253 0.9779 0.0
C509 C 0.40238 0.97843 1.00124 0.0
C510 C 0.41369 0.9953 0.02404 0.0
C511 C 0.44216 0.00623 0.02333 0.0
Mn512 Mn 0.25056 0.87258 0.01806 0.0
Mn513 Mn 0.2446 0.9006 0.952 0.0
C514 C 0.22761 0.84648 0.98127 0.0
C515 C 0.27507 0.84576 0.05156 0.0
C516 C 0.20946 0.91936 0.0028 0.0
O517 O 0.28164 0.90493 0.01827 0.0
O518 O 0.27795 0.91953 0.97237 0.0
C519 C 0.29811 0.88062 0.92634 0.0
N520 N 0.26894 0.8815 0.92601 0.0
C521 C 0.26553 0.85336 0.88265 0.0
C522 C 0.29553 0.85226 0.88245 0.0
C523 C 0.31188 0.86586 0.90446 0.0
C524 C 0.253 0.86821 0.90512 0.0
H525 H 0.31076 0.89111 0.94316 0.0
C526 C 0.29021 0.92036 0.99712 0.0
O527 O 0.25675 0.86425 0.05953 0.0
O528 O 0.27991 0.84372 0.02429 0.0
N529 N 0.21339 0.88331 0.93016 0.0
C530 C 0.18462 0.88514 0.93427 0.0
C531 C 0.16523 0.87196 0.91455 0.0
C532 C 0.1756 0.85721 0.89073 0.0
C533 C 0.2053 0.85573 0.88687 0.0
C534 C 0.22359 0.86929 0.90723 0.0
H535 H 0.17651 0.89654 0.95247 0.0
O536 O 0.22183 0.84052 0.00782 0.0
O537 O 0.24575 0.86785 0.97747 0.0
O538 O 0.21904 0.90151 0.02061 0.0
O539 O 0.2181 0.92126 0.9769 0.0
C540 C 0.21746 0.84112 0.86377 0.0
C541 C 0.24756 0.84005 0.8616 0.0
H542 H 0.30623 0.84091 0.8656 0.0
H543 H 0.33504 0.86501 0.90452 0.0
H544 H 0.14234 0.87316 0.9177 0.0
H545 H 0.16058 0.84698 0.87562 0.0
H546 H 0.20387 0.83041 0.8477 0.0
H547 H 0.25665 0.82863 0.84382 0.0
Mn548 Mn 0.14264 0.50424 0.25908 0.0
Mn549 Mn 0.11768 0.57082 0.25748 0.0
C550 C 0.16917 0.541 0.2375 0.0
C551 C 0.16915 0.46903 0.28061 0.0
C552 C 0.09525 0.52273 0.21823 0.0
O553 O 0.1118 0.50275 0.29007 0.0
O554 O 0.09875 0.54855 0.28884 0.0
C555 C 0.14076 0.59259 0.3132 0.0
N556 N 0.1388 0.59496 0.28416 0.0
C557 C 0.16972 0.63759 0.28468 0.0
C558 C 0.1719 0.6357 0.31461 0.0
C559 C 0.15739 0.61308 0.32892 0.0
C560 C 0.15263 0.61668 0.27018 0.0
H561 H 0.12976 0.57516 0.32429 0.0
C562 C 0.09734 0.52335 0.29956 0.0
O563 O 0.14912 0.46255 0.26188 0.0
O564 O 0.1728 0.49574 0.28791 0.0
N565 N 0.13478 0.59466 0.22843 0.0
C566 C 0.13184 0.59246 0.19938 0.0
C567 C 0.14583 0.61292 0.18184 0.0
C568 C 0.16257 0.63549 0.19432 0.0
C569 C 0.16505 0.63747 0.22426 0.0
C570 C 0.15041 0.61659 0.24067 0.0
H571 H 0.11912 0.57509 0.18965 0.0
O572 O 0.17323 0.51461 0.23071 0.0
O573 O 0.14972 0.54513 0.25674 0.0
O574 O 0.11211 0.50399 0.22722 0.0
O575 O 0.095 0.548 0.22868 0.0
C576 C 0.18199 0.65899 0.23843 0.0
C577 C 0.18432 0.65905 0.26862 0.0
H578 H 0.18488 0.65134 0.32679 0.0
H579 H 0.15909 0.61139 0.352 0.0
H580 H 0.14386 0.61121 0.15875 0.0
H581 H 0.17361 0.65104 0.1807 0.0
H582 H 0.19365 0.67535 0.2263 0.0
H583 H 0.19773 0.67547 0.27924 0.0
Mn584 Mn 0.75277 0.62704 0.01505 0.0
Mn585 Mn 0.69131 0.64549 0.98246 0.0
C586 C 0.71205 0.59641 0.01562 0.0
C587 C 0.7973 0.60575 0.01444 0.0
C588 C 0.71179 0.67039 0.03961 0.0
O589 O 0.76664 0.65949 0.98849 0.0
O590 O 0.72446 0.66841 0.96711 0.0
C591 C 0.70362 0.62387 0.92423 0.0
N592 N 0.68626 0.62412 0.94759 0.0
C593 C 0.65194 0.59098 0.92509 0.0
C594 C 0.66939 0.59046 0.90073 0.0
C595 C 0.69538 0.60691 0.90035 0.0
C596 C 0.66134 0.60818 0.94829 0.0
H597 H 0.7236 0.6365 0.92387 0.0
C598 C 0.75157 0.67312 0.97058 0.0
O599 O 0.79154 0.62519 0.03324 0.0
O600 O 0.77752 0.5993 0.99544 0.0
N601 N 0.65731 0.62497 0.99509 0.0
C602 C 0.64332 0.62737 0.02049 0.0
C603 C 0.61688 0.61232 0.02438 0.0
C604 C 0.605 0.59521 1.00206 0.0
C605 C 0.61971 0.5932 0.97605 0.0
C606 C 0.64584 0.6089 0.97332 0.0
H607 H 0.65222 0.64071 0.03763 0.0
O608 O 0.73202 0.59417 0.0349 0.0
O609 O 0.71648 0.6164 0.99683 0.0
O610 O 0.73443 0.65616 0.04159 0.0
O611 O 0.69435 0.66804 0.01838 0.0
C612 C 0.60956 0.57613 0.95278 0.0
C613 C 0.62576 0.57487 0.92739 0.0
H614 H 0.66311 0.57742 0.88226 0.0
H615 H 0.709 0.60655 0.88166 0.0
H616 H 0.60565 0.61399 0.04451 0.0
H617 H 0.58457 0.58371 0.00514 0.0
H618 H 0.58948 0.56365 0.95429 0.0
H619 H 0.61792 0.56138 0.90979 0.0
Mn620 Mn 0.86885 0.0104 0.25952 0.0
Mn621 Mn 0.88798 0.94193 0.25489 0.0
C622 C 0.83979 0.97676 0.23508 0.0
C623 C 0.84601 0.04762 0.28206 0.0
C624 C 0.9162 0.99029 0.22049 0.0
O625 O 0.89933 0.0077 0.29128 0.0
O626 O 0.9061 0.9602 0.28956 0.0
C627 C 0.85806 0.9188 0.30617 0.0
N628 N 0.86297 0.91774 0.27744 0.0
C629 C 0.82989 0.87706 0.27167 0.0
C630 C 0.82501 0.87731 0.30131 0.0
C631 C 0.83902 0.8984 0.3186 0.0
C632 C 0.84922 0.89786 0.26053 0.0
H633 H 0.86834 0.93529 0.31941 0.0
C634 C 0.91024 0.98506 0.301 0.0
O635 O 0.86715 0.05236 0.26453 0.0
O636 O 0.83897 0.02108 0.28769 0.0
N637 N 0.87134 0.92183 0.22248 0.0
C638 C 0.87653 0.92603 0.19405 0.0
C639 C 0.86292 0.9077 0.17367 0.0
C640 C 0.84427 0.88516 0.18271 0.0
C641 C 0.8394 0.88115 0.21208 0.0
C642 C 0.8537 0.89998 0.23141 0.0
H643 H 0.89085 0.94329 0.18694 0.0
O644 O 0.83791 0.00378 0.22972 0.0
O645 O 0.85849 0.9704 0.25447 0.0
O646 O 0.89955 0.00938 0.22882 0.0
O647 O 0.91487 0.96473 0.23004 0.0
C648 C 0.8205 0.85953 0.22289 0.0
C649 C 0.81574 0.8575 0.25267 0.0
H650 H 0.81017 0.86174 0.31094 0.0
H651 H 0.83502 0.89902 0.34142 0.0
H652 H 0.86675 0.91097 0.15104 0.0
H653 H 0.83363 0.87121 0.16692 0.0
H654 H 0.8091 0.84468 0.20845 0.0
H655 H 0.80071 0.84114 0.26067 0.0
Mn656 Mn 0.25306 0.12853 0.51476 0.0
Mn657 Mn 0.19191 0.14581 0.48086 0.0
C658 C 0.21288 0.09719 0.51459 0.0
C659 C 0.29789 0.10778 0.51486 0.0
C660 C 0.21102 0.1714 0.53822 0.0
O661 O 0.26688 0.16112 0.48835 0.0
O662 O 0.22499 0.16915 0.46593 0.0
C663 C 0.20536 0.12421 0.42292 0.0
N664 N 0.18767 0.12426 0.44603 0.0
C665 C 0.1541 0.09063 0.42315 0.0
C666 C 0.1719 0.09031 0.39904 0.0
C667 C 0.19768 0.10711 0.39897 0.0
C668 C 0.16292 0.10804 0.4464 0.0
H669 H 0.22519 0.1371 0.42281 0.0
C670 C 0.25195 0.17437 0.47001 0.0
O671 O 0.29163 0.12714 0.53356 0.0
O672 O 0.27848 0.10116 0.49557 0.0
N673 N 0.15805 0.12481 0.49311 0.0
C674 C 0.14382 0.12681 0.51842 0.0
C675 C 0.1177 0.11114 0.52212 0.0
C676 C 0.10635 0.09382 0.49969 0.0
C677 C 0.12127 0.09227 0.47376 0.0
C678 C 0.14708 0.10854 0.47124 0.0
H679 H 0.15234 0.14027 0.53565 0.0
O680 O 0.23249 0.09537 0.5343 0.0
O681 O 0.21731 0.11724 0.49587 0.0
O682 O 0.23378 0.15745 0.5409 0.0
O683 O 0.19408 0.1686 0.51662 0.0
C684 C 0.11169 0.07499 0.45042 0.0
C685 C 0.12817 0.07406 0.42519 0.0
H686 H 0.16607 0.07713 0.38054 0.0
H687 H 0.21158 0.10689 0.38048 0.0
H688 H 0.10631 0.11245 0.54219 0.0
H689 H 0.08621 0.08175 0.50264 0.0
H690 H 0.09188 0.06205 0.45179 0.0
H691 H 0.12079 0.06039 0.40755 0.0
Mn692 Mn 0.36885 0.50745 0.75833 0.0
Mn693 Mn 0.38817 0.43905 0.75205 0.0
C694 C 0.33985 0.47414 0.7333 0.0
C695 C 0.34585 0.54462 0.78092 0.0
C696 C 0.41593 0.48797 0.71835 0.0
O697 O 0.39894 0.50417 0.79045 0.0
O698 O 0.40695 0.45711 0.78632 0.0
C699 C 0.3602 0.41496 0.80396 0.0
N700 N 0.364 0.41448 0.77503 0.0
C701 C 0.33141 0.37336 0.76975 0.0
C702 C 0.32749 0.37315 0.79954 0.0
C703 C 0.34185 0.39413 0.81669 0.0
C704 C 0.35005 0.39458 0.75829 0.0
H705 H 0.37097 0.4312 0.81719 0.0
C706 C 0.41053 0.48141 0.79901 0.0
O707 O 0.3673 0.54933 0.76378 0.0
O708 O 0.33861 0.51805 0.78629 0.0
N709 N 0.37085 0.41913 0.71989 0.0
C710 C 0.37517 0.42371 0.69138 0.0
C711 C 0.36121 0.40543 0.67118 0.0
C712 C 0.34316 0.38253 0.68049 0.0
C713 C 0.33919 0.37815 0.70994 0.0
C714 C 0.35373 0.397 0.72908 0.0
H715 H 0.38904 0.44125 0.68409 0.0
O716 O 0.33815 0.50123 0.72823 0.0
O717 O 0.35849 0.46742 0.75262 0.0
O718 O 0.3998 0.50702 0.72774 0.0
O719 O 0.41434 0.46208 0.72685 0.0
C720 C 0.32099 0.35611 0.72104 0.0
C721 C 0.31705 0.35375 0.75093 0.0
H722 H 0.31322 0.35722 0.80942 0.0
H723 H 0.33871 0.3943 0.83967 0.0
H724 H 0.36433 0.409 0.64848 0.0
H725 H 0.33228 0.3686 0.66484 0.0
H726 H 0.30949 0.34118 0.70676 0.0
H727 H 0.30255 0.33707 0.75917 0.0
Mn728 Mn 0.74918 0.37562 0.52187 0.0
Mn729 Mn 0.74363 0.40155 0.45484 0.0
C730 C 0.72504 0.34905 0.48631 0.0
C731 C 0.77311 0.34938 0.55624 0.0
C732 C 0.70875 0.42252 0.50489 0.0
O733 O 0.78101 0.40718 0.52102 0.0
O734 O 0.77699 0.42083 0.47489 0.0
C735 C 0.7972 0.3801 0.43069 0.0
N736 N 0.76808 0.38138 0.42981 0.0
C737 C 0.7649 0.35128 0.38777 0.0
C738 C 0.79487 0.34977 0.38814 0.0
C739 C 0.81107 0.36418 0.40974 0.0
C740 C 0.75226 0.36747 0.40922 0.0
H741 H 0.80977 0.39107 0.44728 0.0
C742 C 0.78951 0.42207 0.49949 0.0
O743 O 0.75518 0.36851 0.56359 0.0
O744 O 0.77788 0.34631 0.52905 0.0
N745 N 0.71252 0.38395 0.4331 0.0
C746 C 0.68374 0.38625 0.4367 0.0
C747 C 0.66446 0.37248 0.41725 0.0
C748 C 0.67497 0.35666 0.39421 0.0
C749 C 0.70468 0.35471 0.39085 0.0
C750 C 0.72285 0.36896 0.41086 0.0
H751 H 0.67554 0.39844 0.45433 0.0
O752 O 0.71949 0.34417 0.51311 0.0
O753 O 0.74401 0.36952 0.48141 0.0
O754 O 0.71842 0.40538 0.52337 0.0
O755 O 0.71712 0.42324 0.47884 0.0
C756 C 0.71697 0.33891 0.36865 0.0
C757 C 0.74704 0.33703 0.36722 0.0
H758 H 0.80564 0.33744 0.37207 0.0
H759 H 0.8342 0.36301 0.41024 0.0
H760 H 0.64156 0.37403 0.42001 0.0
H761 H 0.66004 0.34593 0.37935 0.0
H762 H 0.70349 0.32786 0.35272 0.0
H763 H 0.75619 0.3244 0.35034 0.0
Mn764 Mn 0.64296 0.00405 0.76103 0.0
Mn765 Mn 0.61926 0.07113 0.75972 0.0
C766 C 0.66968 0.04024 0.73877 0.0
C767 C 0.66914 0.96845 0.78226 0.0
C768 C 0.59537 0.02336 0.72085 0.0
O769 O 0.61261 0.00318 0.7925 0.0
O770 O 0.60042 0.04923 0.79139 0.0
C771 C 0.64393 0.09223 0.81504 0.0
N772 N 0.64143 0.09474 0.78605 0.0
C773 C 0.67349 0.13655 0.78604 0.0
C774 C 0.67626 0.13451 0.81591 0.0
C775 C 0.66145 0.11223 0.83046 0.0
C776 C 0.65561 0.11609 0.77184 0.0
H777 H 0.63271 0.07506 0.82631 0.0
C778 C 0.59868 0.02407 0.80216 0.0
O779 O 0.64871 0.96223 0.76387 0.0
O780 O 0.67339 0.99514 0.7894 0.0
N781 N 0.63622 0.09472 0.7304 0.0
C782 C 0.63221 0.09298 0.70145 0.0
C783 C 0.64605 0.11337 0.68371 0.0
C784 C 0.66371 0.13542 0.6959 0.0
C785 C 0.66723 0.13697 0.72576 0.0
C786 C 0.65269 0.1162 0.74239 0.0
H787 H 0.61873 0.07606 0.69192 0.0
O788 O 0.67322 0.01372 0.7321 0.0
O789 O 0.65072 0.04481 0.75838 0.0
O790 O 0.61196 0.00432 0.72968 0.0
O791 O 0.5957 0.0487 0.73126 0.0
C792 C 0.68498 0.15803 0.73965 0.0
C793 C 0.68817 0.15779 0.76976 0.0
H794 H 0.68988 0.1498 0.82787 0.0
H795 H 0.66359 0.11043 0.8535 0.0
H796 H 0.64322 0.11202 0.66067 0.0
H797 H 0.67458 0.15093 0.68212 0.0
H798 H 0.69659 0.1743 0.72734 0.0
H799 H 0.70218 0.17386 0.78015 0.0
Mn800 Mn 0.00536 0.25693 0.88022 0.0
Mn801 Mn 0.93867 0.2455 0.90651 0.0
C802 C 0.97124 0.22901 0.85509 0.0
C803 C 0.03817 0.28234 0.85132 0.0
C804 C 0.99078 0.21613 0.92967 0.0
O805 O 0.00264 0.28918 0.90979 0.0
O806 O 0.95674 0.28095 0.92394 0.0
C807 C 0.91134 0.29564 0.88158 0.0
N808 N 0.91222 0.26678 0.88465 0.0
C809 C 0.87145 0.25882 0.85315 0.0
C810 C 0.86994 0.28847 0.84992 0.0
C811 C 0.89 0.30694 0.86416 0.0
C812 C 0.89302 0.2488 0.87101 0.0
H813 H 0.92691 0.30994 0.89218 0.0
C814 C 0.98064 0.29576 0.92433 0.0
O815 O 0.04675 0.26663 0.87229 0.0
O816 O 0.0107 0.28471 0.84847 0.0
N817 N 0.91896 0.21222 0.8905 0.0
C818 C 0.92452 0.18417 0.89434 0.0
C819 C 0.90695 0.16291 0.88075 0.0
C820 C 0.88388 0.17068 0.86337 0.0
C821 C 0.87852 0.19967 0.85981 0.0
C822 C 0.89654 0.21991 0.87417 0.0
H823 H 0.94233 0.17805 0.9075 0.0
O824 O 0.99837 0.2258 0.85082 0.0
O825 O 0.96517 0.24782 0.87435 0.0
O826 O 0.00878 0.22746 0.91215 0.0
O827 O 0.96423 0.22191 0.92984 0.0
C828 C 0.85638 0.20927 0.8421 0.0
C829 C 0.85285 0.23883 0.83877 0.0
H830 H 0.85368 0.29727 0.83628 0.0
H831 H 0.88912 0.32985 0.86158 0.0
H832 H 0.91129 0.14058 0.88351 0.0
H833 H 0.87059 0.15422 0.85265 0.0
H834 H 0.84221 0.19412 0.8306 0.0
H835 H 0.83602 0.24595 0.82475 0.0
Mn836 Mn 0.50684 0.76092 0.37984 0.0
Mn837 Mn 0.43991 0.74974 0.40564 0.0
C838 C 0.47269 0.73406 0.35377 0.0
C839 C 0.54041 0.78701 0.35237 0.0
C840 C 0.49165 0.7196 0.42842 0.0
O841 O 0.50421 0.79225 0.41056 0.0
O842 O 0.45768 0.78523 0.42309 0.0
C843 C 0.4121 0.79962 0.38079 0.0
N844 N 0.41328 0.77078 0.38378 0.0
C845 C 0.37225 0.76249 0.3527 0.0
C846 C 0.37043 0.79211 0.34953 0.0
C847 C 0.39048 0.81075 0.3636 0.0
C848 C 0.39408 0.75265 0.37035 0.0
H849 H 0.42763 0.81403 0.39131 0.0
C850 C 0.48192 0.79939 0.42436 0.0
O851 O 0.54838 0.77023 0.37271 0.0
O852 O 0.51302 0.78993 0.34925 0.0
N853 N 0.42057 0.71631 0.38953 0.0
C854 C 0.4266 0.68834 0.39304 0.0
C855 C 0.40927 0.66694 0.37937 0.0
C856 C 0.38593 0.6745 0.36226 0.0
C857 C 0.38009 0.70342 0.35901 0.0
C858 C 0.39793 0.7238 0.3734 0.0
H859 H 0.44462 0.68238 0.40601 0.0
O860 O 0.49982 0.73093 0.34939 0.0
O861 O 0.46657 0.75241 0.3735 0.0
O862 O 0.50963 0.73006 0.41044 0.0
O863 O 0.46545 0.72644 0.42935 0.0
C864 C 0.35767 0.71284 0.34155 0.0
C865 C 0.35373 0.74235 0.33842 0.0
H866 H 0.35396 0.80078 0.33606 0.0
H867 H 0.38936 0.83363 0.36108 0.0
H868 H 0.41399 0.64468 0.38188 0.0
H869 H 0.3728 0.65795 0.35149 0.0
H870 H 0.3436 0.69758 0.33007 0.0
H871 H 0.3367 0.74933 0.32457 0.0
Mn872 Mn 1.00137 0.74721 0.63282 0.0
Mn873 Mn 0.97338 0.68495 0.65948 0.0
C874 C 0.00732 0.70467 0.60847 0.0
C875 C 0.99911 0.78872 0.60557 0.0
C876 C 0.02783 0.71446 0.68266 0.0
O877 O 0.97221 0.76072 0.66171 0.0
O878 O 0.95476 0.71799 0.67738 0.0
C879 C 0.91486 0.68807 0.63492 0.0
N880 N 0.93942 0.67375 0.63828 0.0
C881 C 0.92009 0.63392 0.61025 0.0
C882 C 0.89453 0.64818 0.60661 0.0
C883 C 0.89195 0.6754 0.61893 0.0
C884 C 0.94221 0.64764 0.62636 0.0
H885 H 0.9128 0.70899 0.64436 0.0
C886 C 0.95542 0.7454 0.6775 0.0
O887 O 0.0168 0.78702 0.62701 0.0
O888 O 0.98192 0.7666 0.60045 0.0
N889 N 0.98895 0.65094 0.64431 0.0
C890 C 0.0154 0.64053 0.64895 0.0
C891 C 0.02159 0.61355 0.63788 0.0
C892 C 1.00044 0.59743 0.62245 0.0
C893 C 0.97331 0.60847 0.61815 0.0
C894 C 0.96831 0.63538 0.62989 0.0
H895 H 0.03169 0.65274 0.66095 0.0
O896 O 0.02488 0.72657 0.60436 0.0
O897 O 0.98674 0.70822 0.62667 0.0
O898 O 0.02765 0.73557 0.66555 0.0
O899 O 0.00859 0.69414 0.68233 0.0
C900 C 0.95119 0.59405 0.60227 0.0
C901 C 0.92464 0.60682 0.59822 0.0
H902 H 0.87682 0.6385 0.59427 0.0
H903 H 0.87233 0.68658 0.61612 0.0
H904 H 0.04259 0.60519 0.64125 0.0
H905 H 0.00531 0.57667 0.61389 0.0
H906 H 0.95451 0.57331 0.59273 0.0
H907 H 0.90793 0.5957 0.58565 0.0
Mn908 Mn 0.5039 0.24801 0.13571 0.0
Mn909 Mn 0.47605 0.18611 0.16336 0.0
C910 C 0.508 0.20547 0.11082 0.0
C911 C 0.50152 0.28996 0.10913 0.0
C912 C 0.53197 0.2147 0.18414 0.0
O913 O 0.4764 0.26188 0.1661 0.0
O914 O 0.45834 0.21938 0.18176 0.0
C915 C 0.41677 0.18966 0.14084 0.0
N916 N 0.4413 0.17514 0.14337 0.0
C917 C 0.42068 0.13538 0.11609 0.0
C918 C 0.39514 0.14984 0.11333 0.0
C919 C 0.39322 0.17714 0.12569 0.0
C920 C 0.44345 0.14895 0.1314 0.0
H921 H 0.41522 0.21064 0.15031 0.0
C922 C 0.45961 0.24679 0.18211 0.0
O923 O 0.5201 0.28739 0.12964 0.0
O924 O 0.4834 0.2684 0.10461 0.0
N925 N 0.4908 0.15191 0.1477 0.0
C926 C 0.51728 0.14128 0.15143 0.0
C927 C 0.52286 0.11423 0.14016 0.0
C928 C 0.50107 0.09825 0.12547 0.0
C929 C 0.47391 0.1095 0.12214 0.0
C930 C 0.46955 0.13648 0.13403 0.0
H931 H 0.53406 0.15336 0.16289 0.0
O932 O 0.52558 0.22717 0.10596 0.0
O933 O 0.48832 0.20924 0.12998 0.0
O934 O 0.53152 0.23556 0.1668 0.0
O935 O 0.51212 0.195 0.18506 0.0
C936 C 0.45113 0.09521 0.10707 0.0
C937 C 0.42458 0.1082 0.10394 0.0
H938 H 0.37694 0.14028 0.10162 0.0
H939 H 0.37362 0.18848 0.12355 0.0
H940 H 0.54389 0.10569 0.1428 0.0
H941 H 0.50548 0.07744 0.11672 0.0
H942 H 0.45395 0.07441 0.09744 0.0
H943 H 0.40736 0.09717 0.09198 0.0
C944 C 0.19628 0.79371 0.92616 0.0
C945 C 0.22155 0.78307 0.91441 0.0
H946 H 0.17824 0.82207 0.95709 0.0
C947 C 0.24812 0.79191 0.92684 0.0
H948 H 0.17541 0.78766 0.91715 0.0
C949 C 0.24961 0.81232 0.94869 0.0
C950 C 0.2246 0.82388 0.95931 0.0
H951 H 0.26801 0.78353 0.91938 0.0
H952 H 0.2705 0.81938 0.95713 0.0
C953 C 0.19781 0.81366 0.9488 0.0
C954 C 0.04863 0.5387 0.36211 0.0
C955 C 0.05019 0.51381 0.37861 0.0
H956 H 0.06185 0.56111 0.3244 0.0
C957 C 0.06584 0.49111 0.36784 0.0
H958 H 0.03709 0.55675 0.36981 0.0
C959 C 0.0803 0.49364 0.34166 0.0
C960 C 0.07951 0.51897 0.32565 0.0
H961 H 0.06715 0.47146 0.3798 0.0
H962 H 0.09271 0.47603 0.33438 0.0
C963 C 0.06304 0.54124 0.33603 0.0
C964 C 0.80724 0.71996 0.93095 0.0
C965 C 0.78958 0.73891 0.91648 0.0
H966 H 0.80924 0.68417 0.95948 0.0
C967 C 0.75982 0.73655 0.92101 0.0
H968 H 0.83027 0.72114 0.92787 0.0
C969 C 0.74788 0.71541 0.93872 0.0
C970 C 0.7653 0.69603 0.95275 0.0
H971 H 0.74559 0.75121 0.91095 0.0
H972 H 0.72479 0.71438 0.9414 0.0
C973 C 0.79522 0.69874 0.94899 0.0
C974 C 0.94549 0.96369 0.37027 0.0
C975 C 0.96693 0.9854 0.37416 0.0
H976 H 0.91125 0.94645 0.34396 0.0
C977 C 0.96832 0.00847 0.35492 0.0
H978 H 0.94418 0.94547 0.3845 0.0
C979 C 0.94884 0.00939 0.33183 0.0
C980 C 0.92837 0.98679 0.32721 0.0
H981 H 0.98481 0.02539 0.3574 0.0
H982 H 0.9507 0.02696 0.31686 0.0
C983 C 0.92671 0.9642 0.34691 0.0
C984 C 0.21757 0.22166 0.60281 0.0
C985 C 0.19257 0.23714 0.59995 0.0
H986 H 0.24316 0.18881 0.58561 0.0
C987 C 0.17301 0.22955 0.57782 0.0
H988 H 0.23312 0.22706 0.61958 0.0
C989 C 0.1787 0.20775 0.55841 0.0
C990 C 0.20418 0.19288 0.56052 0.0
H991 H 0.15326 0.24064 0.57535 0.0
H992 H 0.16322 0.20291 0.54143 0.0
C993 C 0.22335 0.19979 0.58327 0.0
C994 C 0.48402 0.49282 0.67407 0.0
C995 C 0.47803 0.51496 0.65502 0.0
H996 H 0.46874 0.46641 0.70878 0.0
C997 C 0.45123 0.52734 0.65628 0.0
H998 H 0.50459 0.48299 0.67348 0.0
C999 C 0.4311 0.5184 0.67679 0.0
C1000 C 0.43709 0.49644 0.69608 0.0
H1001 H 0.44621 0.54459 0.64197 0.0
H1002 H 0.4108 0.52873 0.67758 0.0
C1003 C 0.46355 0.48335 0.69417 0.0
C1004 C 0.81697 0.29136 0.58827 0.0
C1005 C 0.80468 0.28809 0.61556 0.0
H1006 H 0.81664 0.31333 0.54815 0.0
C1007 C 0.78351 0.30676 0.62404 0.0
H1008 H 0.83314 0.27714 0.58101 0.0
C1009 C 0.77419 0.3277 0.60526 0.0
C1010 C 0.78559 0.33007 0.5775 0.0
H1011 H 0.77383 0.30487 0.64503 0.0
H1012 H 0.7573 0.34126 0.61211 0.0
C1013 C 0.80742 0.31202 0.56939 0.0
C1014 C 0.53907 0.0303 0.66223 0.0
C1015 C 0.54467 0.00705 0.64425 0.0
H1016 H 0.55067 0.05378 0.70048 0.0
C1017 C 0.56546 0.98798 0.65281 0.0
H1018 H 0.52328 0.04543 0.6561 0.0
C1019 C 0.58099 0.99257 0.67833 0.0
C1020 C 0.57637 0.01657 0.69573 0.0
H1021 H 0.57004 0.96973 0.63949 0.0
H1022 H 0.59736 0.97783 0.68385 0.0
C1023 C 0.55487 0.03512 0.6876 0.0
C1024 C 0.91669 0.23469 0.79588 0.0
C1025 C 0.91251 0.20617 0.78654 0.0
H1026 H 0.93852 0.26395 0.82495 0.0
C1027 C 0.92776 0.18488 0.80051 0.0
H1028 H 0.90602 0.25181 0.78529 0.0
C1029 C 0.94688 0.19207 0.82303 0.0
C1030 C 0.9504 0.22048 0.83246 0.0
H1031 H 0.92492 0.16266 0.79413 0.0
H1032 H 0.95862 0.17546 0.83328 0.0
C1033 C 0.93541 0.24172 0.81854 0.0
C1034 C 0.4578 0.86494 0.46414 0.0
C1035 C 0.48394 0.87956 0.47088 0.0
H1036 H 0.43669 0.82822 0.44481 0.0
C1037 C 0.50975 0.86714 0.46324 0.0
H1038 H 0.43761 0.87388 0.46997 0.0
C1039 C 0.50933 0.84094 0.44839 0.0
C1040 C 0.48308 0.82643 0.44137 0.0
H1041 H 0.53022 0.87805 0.46809 0.0
H1042 H 0.52951 0.83219 0.44227 0.0
C1043 C 0.45737 0.83864 0.44981 0.0
C1044 C 0.10667 0.29995 0.81017 0.0
C1045 C 0.09553 0.30784 0.78343 0.0
H1046 H 0.09718 0.28554 0.85285 0.0
C1047 C 0.06573 0.3097 0.78015 0.0
H1048 H 0.12961 0.29842 0.81322 0.0
C1049 C 0.0473 0.30293 0.80283 0.0
C1050 C 0.05822 0.29368 0.8292 0.0
H1051 H 0.05664 0.31609 0.75986 0.0
H1052 H 0.02438 0.30389 0.79926 0.0
C1053 C 0.08814 0.29265 0.83281 0.0
C1054 C 0.53116 0.65758 0.4591 0.0
C1055 C 0.52018 0.65554 0.48716 0.0
H1056 H 0.53113 0.67956 0.41891 0.0
C1057 C 0.49947 0.67497 0.49547 0.0
H1058 H 0.54652 0.64275 0.45139 0.0
C1059 C 0.48995 0.69551 0.47634 0.0
C1060 C 0.50144 0.69774 0.44867 0.0
H1061 H 0.49085 0.6748 0.51695 0.0
H1062 H 0.47402 0.71008 0.48344 0.0
C1063 C 0.5222 0.67862 0.44029 0.0
C1064 C 0.90092 0.75612 0.7362 0.0
C1065 C 0.90036 0.78606 0.73811 0.0
H1066 H 0.91837 0.71999 0.7158 0.0
C1067 C 0.9175 0.80267 0.71918 0.0
H1068 H 0.88846 0.74259 0.7507 0.0
C1069 C 0.93511 0.78962 0.69919 0.0
C1070 C 0.93595 0.75965 0.69765 0.0
H1071 H 0.91735 0.82579 0.71979 0.0
H1072 H 0.94822 0.80306 0.68515 0.0
C1073 C 0.91837 0.74312 0.71624 0.0
C1074 C 0.01783 0.86272 0.57717 0.0
C1075 C 0.01153 0.8594 0.5477 0.0
H1076 H 0.01893 0.84298 0.61849 0.0
C1077 C 0.99832 0.83328 0.53821 0.0
H1078 H 0.02722 0.88265 0.5856 0.0
C1079 C 0.99269 0.81085 0.55738 0.0
C1080 C 1.00066 0.81376 0.58636 0.0
H1081 H 0.99347 0.82952 0.51574 0.0
H1082 H 0.98352 0.79072 0.54917 0.0
C1083 C 0.0128 0.84006 0.59617 0.0
C1084 C 0.08073 0.68707 0.73737 0.0
C1085 C 0.09963 0.71108 0.74125 0.0
H1086 H 0.04302 0.66929 0.71611 0.0
C1087 C 0.09427 0.73627 0.72629 0.0
H1088 H 0.08425 0.66739 0.7487 0.0
C1089 C 0.07082 0.73738 0.70762 0.0
C1090 C 0.052 0.71334 0.70348 0.0
H1091 H 0.10866 0.75502 0.72842 0.0
H1092 H 0.06764 0.7571 0.69626 0.0
C1093 C 0.05705 0.68823 0.7188 0.0
C1094 C 0.03351 0.64109 0.56761 0.0
C1095 C 0.00796 0.63008 0.55447 0.0
H1096 H 0.05324 0.67343 0.59517 0.0
C1097 C 0.98286 0.6454 0.55752 0.0
H1098 H 0.05344 0.63039 0.56509 0.0
C1099 C 0.98293 0.67002 0.57463 0.0
C1100 C 0.00792 0.67961 0.58932 0.0
H1101 H 0.96275 0.63769 0.54789 0.0
H1102 H 0.96319 0.6811 0.57707 0.0
C1103 C 0.03351 0.66577 0.58471 0.0
C1104 C 0.77846 0.92166 0.23784 0.0
C1105 C 0.77149 0.91758 0.20866 0.0
H1106 H 0.80557 0.94374 0.26885 0.0
C1107 C 0.78727 0.93354 0.18809 0.0
H1108 H 0.76639 0.91036 0.25434 0.0
C1109 C 0.80953 0.95296 0.19655 0.0
C1110 C 0.81683 0.95619 0.22562 0.0
H1111 H 0.78263 0.93083 0.16542 0.0
H1112 H 0.82139 0.96501 0.1804 0.0
C1113 C 0.80083 0.94082 0.2462 0.0
C1114 C 0.81945 0.12209 0.29162 0.0
C1115 C 0.79308 0.11684 0.30557 0.0
H1116 H 0.85686 0.10453 0.27369 0.0
C1117 C 0.78533 0.08866 0.31376 0.0
H1118 H 0.82599 0.14339 0.28459 0.0
C1119 C 0.80312 0.06619 0.30732 0.0
C1120 C 0.82897 0.07145 0.29249 0.0
H1121 H 0.76535 0.08391 0.32484 0.0
H1122 H 0.79619 0.04462 0.31318 0.0
C1123 C 0.83715 0.09971 0.28522 0.0
C1124 C 0.36129 0.95227 0.0261 0.0
C1125 C 0.37235 0.96638 1.00173 0.0
H1126 H 0.32659 0.9266 0.04392 0.0
C1127 C 0.35507 0.96753 0.97705 0.0
H1128 H 0.3742 0.951 0.04542 0.0
C1129 C 0.32788 0.9538 0.97621 0.0
C1130 C 0.31726 0.93832 0.99999 0.0
H1131 H 0.36284 0.97863 0.95811 0.0
H1132 H 0.31562 0.95458 0.95643 0.0
C1133 C 0.33403 0.93827 0.02521 0.0
C1134 C 0.21996 0.40852 0.2794 0.0
C1135 C 0.23352 0.41116 0.3065 0.0
H1136 H 0.18849 0.42416 0.25044 0.0
C1137 C 0.22367 0.43183 0.32582 0.0
H1138 H 0.22697 0.39348 0.26351 0.0
C1139 C 0.20224 0.4502 0.31772 0.0
C1140 C 0.18929 0.4477 0.29054 0.0
H1141 H 0.2326 0.43415 0.34723 0.0
H1142 H 0.19589 0.46651 0.33267 0.0
C1143 C 0.19785 0.42626 0.27173 0.0
C1144 C 0.15164 0.04199 0.52383 0.0
C1145 C 0.15062 0.02894 0.49651 0.0
H1146 H 0.17265 0.07384 0.55124 0.0
C1147 C 0.1713 0.03758 0.47613 0.0
H1148 H 0.13627 0.03551 0.54011 0.0
C1149 C 0.19175 0.05942 0.48247 0.0
C1150 C 0.19194 0.07323 0.50922 0.0
H1151 H 0.17105 0.02822 0.45483 0.0
H1152 H 0.20707 0.06601 0.46615 0.0
C1153 C 0.17245 0.06375 0.53027 0.0
C1154 C 0.7195 0.08553 0.69244 0.0
C1155 C 0.73543 0.10167 0.71317 0.0
H1156 H 0.68607 0.05326 0.68444 0.0
C1157 C 0.72889 0.09767 0.74233 0.0
H1158 H 0.72372 0.08822 0.6698 0.0
C1159 C 0.70701 0.07808 0.75052 0.0
C1160 C 0.69111 0.06227 0.72976 0.0
H1161 H 0.74107 0.10919 0.75893 0.0
H1162 H 0.70279 0.07496 0.77313 0.0
C1163 C 0.69781 0.0657 0.70072 0.0
C1164 C 0.35428 0.05318 0.50205 0.0
C1165 C 0.37641 0.06264 0.52095 0.0
H1166 H 0.31242 0.06023 0.48495 0.0
C1167 C 0.37273 0.08748 0.5374 0.0
H1168 H 0.35658 0.03432 0.48884 0.0
C1169 C 0.34738 0.1023 0.53526 0.0
C1170 C 0.32526 0.09282 0.51636 0.0
H1171 H 0.3893 0.09523 0.55229 0.0
H1172 H 0.34509 0.12114 0.54849 0.0
C1173 C 0.32908 0.06818 0.49966 0.0
C1174 C 0.6585 0.46351 0.55207 0.0
C1175 C 0.64699 0.48285 0.53262 0.0
H1176 H 0.68673 0.42943 0.55871 0.0
C1177 C 0.65523 0.48154 0.50371 0.0
H1178 H 0.65226 0.46358 0.5744 0.0
C1179 C 0.67501 0.46182 0.49462 0.0
C1180 C 0.68697 0.44284 0.51421 0.0
H1181 H 0.64695 0.49626 0.48821 0.0
H1182 H 0.68114 0.46169 0.47225 0.0
C1183 C 0.6782 0.44378 0.543 0.0
C1184 C 0.73781 0.29297 0.43063 0.0
C1185 C 0.70981 0.28345 0.42285 0.0
H1186 H 0.76423 0.32141 0.45665 0.0
C1187 C 0.68639 0.29514 0.43691 0.0
H1188 H 0.75628 0.28476 0.41989 0.0
C1189 C 0.69105 0.31621 0.4582 0.0
C1190 C 0.71909 0.32642 0.46485 0.0
H1191 H 0.66459 0.28815 0.43129 0.0
H1192 H 0.67285 0.32513 0.46876 0.0
C1193 C 0.74238 0.3142 0.45139 0.0
C1194 C 0.55059 0.04026 0.86499 0.0
C1195 C 0.55144 0.01515 0.88125 0.0
H1196 H 0.56442 0.06266 0.82748 0.0
C1197 C 0.56656 0.99215 0.87033 0.0
H1198 H 0.5395 0.05853 0.87282 0.0
C1199 C 0.58112 0.99453 0.84419 0.0
C1200 C 0.58096 0.02001 0.82838 0.0
H1201 H 0.56732 0.97233 0.88211 0.0
H1202 H 0.59304 0.97664 0.83675 0.0
C1203 C 0.56511 0.04265 0.83895 0.0
C1204 C 0.26015 0.23817 0.42091 0.0
C1205 C 0.28997 0.24094 0.41686 0.0
H1206 H 0.22507 0.21541 0.44063 0.0
C1207 C 0.30766 0.22212 0.43146 0.0
H1208 H 0.24589 0.25272 0.41074 0.0
C1209 C 0.29561 0.20063 0.44918 0.0
C1210 C 0.26567 0.19751 0.45247 0.0
H1211 H 0.33073 0.22359 0.42874 0.0
H1212 H 0.30967 0.18618 0.45981 0.0
C1213 C 0.2482 0.21675 0.43828 0.0
C1214 C 0.46012 0.5064 0.86064 0.0
C1215 C 0.46379 0.48046 0.87505 0.0
H1216 H 0.43985 0.52738 0.8254 0.0
C1217 C 0.44926 0.45555 0.86469 0.0
H1218 H 0.47119 0.52592 0.86813 0.0
C1219 C 0.43195 0.45626 0.84031 0.0
C1220 C 0.42829 0.48199 0.8256 0.0
H1221 H 0.45202 0.43513 0.87491 0.0
H1222 H 0.42161 0.43636 0.83287 0.0
C1223 C 0.4422 0.50724 0.83627 0.0
C1224 C 0.72081 0.71988 0.10445 0.0
C1225 C 0.69469 0.73376 0.10425 0.0
H1226 H 0.74668 0.68885 0.08449 0.0
C1227 C 0.67391 0.72576 0.08335 0.0
H1228 H 0.73717 0.72536 0.12042 0.0
C1229 C 0.6793 0.70488 0.0628 0.0
C1230 C 0.70562 0.69133 0.0626 0.0
H1231 H 0.6537 0.73625 0.0823 0.0
H1232 H 0.66289 0.69967 0.0468 0.0
C1233 C 0.72618 0.69883 0.08393 0.0
C1234 C 0.95349 0.03049 0.15994 0.0
C1235 C 0.97852 0.01536 0.15634 0.0
H1236 H 0.91448 0.03462 0.18305 0.0
C1237 C 0.98273 0.99133 0.17358 0.0
H1238 H 0.9498 0.04926 0.14719 0.0
C1239 C 0.9623 0.98272 0.1941 0.0
C1240 C 0.93757 0.99833 0.19815 0.0
H1241 H 1.00182 0.97922 0.17118 0.0
H1242 H 0.96614 0.96421 0.20716 0.0
C1243 C 0.93338 0.02222 0.1807 0.0
C1244 C 0.31434 0.78327 0.08101 0.0
C1245 C 0.30787 0.78441 0.11042 0.0
H1246 H 0.3094 0.8018 0.03959 0.0
C1247 C 0.29201 0.8072 0.1206 0.0
H1248 H 0.32606 0.76585 0.07222 0.0
C1249 C 0.28212 0.82776 0.10168 0.0
C1250 C 0.28797 0.82604 0.0722 0.0
H1251 H 0.28698 0.80904 0.14315 0.0
H1252 H 0.2694 0.84465 0.11007 0.0
C1253 C 0.30462 0.80386 0.06219 0.0
C1254 C 0.03867 0.52858 0.15972 0.0
C1255 C 0.04469 0.5055 0.14169 0.0
H1256 H 0.0499 0.55221 0.19797 0.0
C1257 C 0.06599 0.48692 0.15011 0.0
H1258 H 0.0225 0.54335 0.1537 0.0
C1259 C 0.08156 0.49181 0.17557 0.0
C1260 C 0.07644 0.51563 0.19305 0.0
H1261 H 0.07091 0.46881 0.13675 0.0
H1262 H 0.09829 0.47744 0.18101 0.0
C1263 C 0.05449 0.5337 0.18502 0.0
C1264 C 0.41699 0.73817 0.29532 0.0
C1265 C 0.41447 0.70977 0.28533 0.0
H1266 H 0.43766 0.76792 0.32473 0.0
C1267 C 0.43094 0.68909 0.29872 0.0
H1268 H 0.40514 0.75475 0.28517 0.0
C1269 C 0.44967 0.69676 0.32138 0.0
C1270 C 0.45176 0.72505 0.3314 0.0
H1271 H 0.42937 0.66699 0.29167 0.0
H1272 H 0.4624 0.68061 0.33117 0.0
C1273 C 0.43558 0.74573 0.31797 0.0
C1274 C 0.0083 0.3641 0.96215 0.0
C1275 C 0.9825 0.37622 0.97027 0.0
H1276 H 0.0281 0.3293 0.94101 0.0
C1277 C 0.9564 0.3612 0.96422 0.0
H1278 H 0.02874 0.37533 0.96646 0.0
C1279 C 0.95601 0.33479 0.9501 0.0
C1280 C 0.98172 0.32289 0.94118 0.0
H1281 H 0.93622 0.36993 0.97042 0.0
H1282 H 0.93539 0.32403 0.94562 0.0
C1283 C 0.00792 0.33782 0.94751 0.0
C1284 C 0.56972 0.82296 0.2856 0.0
C1285 C 0.59852 0.81521 0.28592 0.0
H1286 H 0.52897 0.82052 0.30645 0.0
C1287 C 0.60868 0.80039 0.30983 0.0
H1288 H 0.56101 0.83409 0.26745 0.0
C1289 C 0.59017 0.79248 0.33225 0.0
C1290 C 0.5611 0.7992 0.33124 0.0
H1291 H 0.63085 0.79449 0.31102 0.0
H1292 H 0.59843 0.78026 0.34988 0.0
C1293 C 0.55126 0.81509 0.30798 0.0
C1294 C 0.99121 0.15845 0.98688 0.0
C1295 C 0.02051 0.1526 0.98861 0.0
H1296 H 0.95884 0.18288 0.96715 0.0
C1297 C 0.03993 0.16807 0.97095 0.0
H1298 H 0.97556 0.14675 0.99988 0.0
C1299 C 0.03033 0.18873 0.95204 0.0
C1300 C 1.00103 0.19459 0.95029 0.0
H1301 H 0.06271 0.16454 0.97201 0.0
H1302 H 0.04599 0.20017 0.93883 0.0
C1303 C 0.98159 0.17917 0.968 0.0
C1304 C 0.4216 0.30452 0.2231 0.0
C1305 C 0.40425 0.28809 0.24201 0.0
H1306 H 0.45261 0.30456 0.18933 0.0
C1307 C 0.40512 0.25815 0.24068 0.0
H1308 H 0.42125 0.32763 0.22332 0.0
C1309 C 0.42287 0.24496 0.22114 0.0
C1310 C 0.44045 0.2613 0.20239 0.0
H1311 H 0.39254 0.24478 0.25523 0.0
H1312 H 0.42298 0.22183 0.22105 0.0
C1313 C 0.4395 0.29128 0.20352 0.0
C1314 C 0.49057 0.33844 0.0455 0.0
C1315 C 0.51214 0.36006 0.05029 0.0
H1316 H 0.47 0.29944 0.06046 0.0
C1317 C 0.52807 0.35975 0.07599 0.0
H1318 H 0.47758 0.33828 0.02614 0.0
C1319 C 0.52356 0.33766 0.09569 0.0
C1320 C 0.50304 0.31529 0.09021 0.0
H1321 H 0.54503 0.37582 0.08032 0.0
H1322 H 0.537 0.33758 0.11474 0.0
C1323 C 0.48606 0.31629 0.06525 0.0
C1324 C 0.58404 0.18913 0.24078 0.0
C1325 C 0.60692 0.20961 0.23842 0.0
H1326 H 0.54243 0.17443 0.22538 0.0
C1327 C 0.6045 0.23204 0.21882 0.0
H1328 H 0.58535 0.17156 0.25566 0.0
C1329 C 0.58007 0.23378 0.20162 0.0
C1330 C 0.55731 0.21307 0.20347 0.0
H1331 H 0.62151 0.24847 0.21686 0.0
H1332 H 0.57921 0.25135 0.1867 0.0
C1333 C 0.55952 0.19076 0.22338 0.0
C1334 C 0.53303 0.14161 0.06966 0.0
C1335 C 0.50717 0.13044 0.05731 0.0
H1336 H 0.55345 0.17417 0.09646 0.0
C1337 C 0.48209 0.14566 0.06105 0.0
H1338 H 0.55294 0.13101 0.06657 0.0
C1339 C 0.48255 0.17037 0.07807 0.0
C1340 C 0.50794 0.18015 0.09196 0.0
H1341 H 0.46175 0.13783 0.052 0.0
H1342 H 0.46286 0.18142 0.08102 0.0
C1343 C 0.53343 0.16637 0.08666 0.0
C1344 C 0.27928 0.4181 0.73545 0.0
C1345 C 0.27132 0.41546 0.7064 0.0
H1346 H 0.30703 0.43914 0.76657 0.0
C1347 C 0.2861 0.43262 0.6861 0.0
H1348 H 0.26793 0.40574 0.75172 0.0
C1349 C 0.30851 0.45182 0.69471 0.0
C1350 C 0.31678 0.45375 0.72364 0.0
H1351 H 0.28049 0.43107 0.66355 0.0
H1352 H 0.31966 0.4648 0.67877 0.0
C1353 C 0.30163 0.43721 0.74397 0.0
C1354 C 0.2832 0.58607 0.80788 0.0
C1355 C 0.2914 0.61392 0.79907 0.0
H1356 H 0.29414 0.54202 0.80917 0.0
C1357 C 0.31898 0.61911 0.78773 0.0
H1358 H 0.26207 0.58148 0.81672 0.0
C1359 C 0.33728 0.59674 0.78357 0.0
C1360 C 0.32846 0.56855 0.79056 0.0
H1361 H 0.32612 0.64045 0.78128 0.0
H1362 H 0.35794 0.60145 0.77375 0.0
C1363 C 0.30157 0.56352 0.80357 0.0
C1364 C 0.86128 0.45366 0.52704 0.0
C1365 C 0.87221 0.46713 0.50227 0.0
H1366 H 0.8265 0.4288 0.54577 0.0
C1367 C 0.85465 0.46801 0.47777 0.0
H1368 H 0.87441 0.45261 0.54624 0.0
C1369 C 0.82729 0.45464 0.47751 0.0
C1370 C 0.81677 0.43977 0.50172 0.0
H1371 H 0.86232 0.47863 0.45852 0.0
H1372 H 0.8148 0.45518 0.45786 0.0
C1373 C 0.83385 0.44 0.52675 0.0
C1374 C 0.71892 0.90712 0.78033 0.0
C1375 C 0.73297 0.90965 0.80719 0.0
H1376 H 0.68723 0.92316 0.75187 0.0
C1377 C 0.72376 0.93051 0.82664 0.0
H1378 H 0.72544 0.89194 0.76435 0.0
C1379 C 0.70248 0.94919 0.81887 0.0
C1380 C 0.68905 0.9468 0.79191 0.0
H1381 H 0.73309 0.93277 0.84789 0.0
H1382 H 0.69663 0.96565 0.83389 0.0
C1383 C 0.69696 0.92517 0.773 0.0
C1384 C 0.64963 0.54275 0.02588 0.0
C1385 C 0.64844 0.52914 0.99886 0.0
H1386 H 0.67135 0.57467 0.05269 0.0
C1387 C 0.66914 0.53699 0.97827 0.0
H1388 H 0.63408 0.5369 0.04222 0.0
C1389 C 0.68994 0.55864 0.98412 0.0
C1390 C 0.69054 0.57287 0.01067 0.0
H1391 H 0.66868 0.52705 0.95722 0.0
H1392 H 0.7053 0.56467 0.96764 0.0
C1393 C 0.67089 0.56419 0.03191 0.0
C1394 C 0.2266 0.60006 0.24333 0.0
C1395 C 0.2351 0.60342 0.21462 0.0
H1396 H 0.1992 0.57732 0.27296 0.0
C1397 C 0.22104 0.58637 0.19334 0.0
H1398 H 0.23676 0.61293 0.26026 0.0
C1399 C 0.19916 0.56633 0.20067 0.0
C1400 C 0.19062 0.56338 0.22929 0.0
H1401 H 0.22743 0.58792 0.1711 0.0
H1402 H 0.18893 0.55312 0.18403 0.0
C1403 C 0.20481 0.58001 0.2506 0.0
C1404 C 0.85312 0.55068 1.00107 0.0
C1405 C 0.87564 0.56023 0.01949 0.0
H1406 H 0.811 0.55779 0.98466 0.0
C1407 C 0.87238 0.58526 0.03577 0.0
H1408 H 0.8551 0.53166 0.98801 0.0
C1409 C 0.84707 0.60017 0.03395 0.0
C1410 C 0.82457 0.59061 0.01553 0.0
H1411 H 0.88924 0.59307 0.0503 0.0
H1412 H 0.84513 0.61916 0.04705 0.0
C1413 C 0.82796 0.56579 0.99898 0.0
C1414 C 0.16189 0.9617 0.05156 0.0
C1415 C 0.14754 0.97879 0.03191 0.0
H1416 H 0.19237 0.92951 0.0579 0.0
C1417 C 0.15293 0.97546 0.00249 0.0
H1418 H 0.15794 0.96352 0.07435 0.0
C1419 C 0.1728 0.95601 0.993 0.0
C1420 C 0.18754 0.93923 0.01271 0.0
H1421 H 0.14236 0.98845 0.98684 0.0
H1422 H 0.17675 0.95431 0.97021 0.0
C1423 C 0.18153 0.94208 0.04209 0.0
loop_
_geom_bond_atom_site_label_1
_geom_bond_atom_site_label_2
_geom_bond_distance
_geom_bond_site_symmetry_2
_ccdc_geom_bond_type
P0 O11 1.490 . S
P0 C14 1.812 . S
P0 C20 1.803 . S
P0 C26 1.819 . S
H1 C15 0.941 . S
H2 C16 0.939 . S
H3 C18 0.940 . S
H4 C19 0.940 . S
H5 C21 0.939 . S
H6 C22 0.942 . S
H7 C24 0.940 . S
H8 C25 0.941 . S
H9 C27 0.941 . S
H10 C31 0.939 . S
O11 P0 1.490 . S
H12 C28 0.939 . S
H13 C30 0.940 . S
C14 P0 1.812 . S
C14 C15 1.389 . S
C14 C19 1.391 . S
C15 H1 0.941 . S
C15 C14 1.389 . S
C15 C16 1.397 . S
C16 H2 0.939 . S
C16 C15 1.397 . S
C16 C17 1.378 1_455 S
C17 C16 1.378 1_655 S
C17 C18 1.378 . S
C18 H3 0.940 . S
C18 C17 1.378 . S
C18 C19 1.396 1_655 S
C19 H4 0.940 . S
C19 C14 1.391 . S
C19 C18 1.396 1_455 S
C20 P0 1.803 . S
C20 C21 1.378 . S
C20 C25 1.375 1_545 S
C21 H5 0.939 . S
C21 C20 1.378 . S
C21 C22 1.361 . S
C22 H6 0.942 . S
C22 C21 1.361 . S
C22 C23 1.369 1_545 S
C23 C22 1.369 1_565 S
C23 C24 1.404 . S
C24 H7 0.940 . S
C24 C23 1.404 . S
C24 C25 1.413 . S
C25 H8 0.941 . S
C25 C20 1.375 1_565 S
C25 C24 1.413 . S
C26 P0 1.819 . S
C26 C27 1.391 . S
C26 C31 1.391 . S
C27 H9 0.941 . S
C27 C26 1.391 . S
C27 C28 1.396 . S
C28 H12 0.939 . S
C28 C27 1.396 . S
C28 C29 1.397 1_554 S
C29 C28 1.397 1_556 S
C29 C30 1.385 . S
C30 H13 0.940 . S
C30 C29 1.385 . S
C30 C31 1.388 1_556 S
C31 H10 0.939 . S
C31 C26 1.391 . S
C31 C30 1.388 1_554 S
P32 O43 1.490 . S
P32 C46 1.812 . S
P32 C52 1.803 . S
P32 C58 1.819 . S
H33 C47 0.941 . S
H34 C48 0.939 . S
H35 C50 0.940 . S
H36 C51 0.940 . S
H37 C53 0.939 . S
H38 C54 0.942 . S
H39 C56 0.940 . S
H40 C57 0.939 . S
H41 C59 0.941 . S
H42 C63 0.939 . S
O43 P32 1.490 . S
H44 C60 0.939 . S
H45 C62 0.940 . S
C46 P32 1.812 . S
C46 C47 1.389 . S
C46 C51 1.391 . S
C47 H33 0.941 . S
C47 C46 1.389 . S
C47 C48 1.397 . S
C48 H34 0.939 . S
C48 C47 1.397 . S
C48 C49 1.378 . S
C49 C48 1.378 . S
C49 C50 1.378 . S
C50 H35 0.940 . S
C50 C49 1.378 . S
C50 C51 1.396 . S
C51 H36 0.940 . S
C51 C46 1.391 . S
C51 C50 1.396 . S
C52 P32 1.803 . S
C52 C53 1.378 . S
C52 C57 1.400 . S
C53 H37 0.939 . S
C53 C52 1.378 . S
C53 C54 1.361 . S
C54 H38 0.942 . S
C54 C53 1.361 . S
C54 C55 1.369 . S
C55 C54 1.369 . S
C55 C56 1.404 . S
C56 H39 0.940 . S
C56 C55 1.404 . S
C56 C57 1.389 . S
C57 H40 0.939 . S
C57 C52 1.400 . S
C57 C56 1.389 . S
C58 P32 1.819 . S
C58 C59 1.391 . S
C58 C63 1.391 . S
C59 H41 0.941 . S
C59 C58 1.391 . S
C59 C60 1.396 . S
C60 H44 0.939 . S
C60 C59 1.396 . S
C60 C61 1.397 . S
C61 C60 1.397 . S
C61 C62 1.385 . S
C62 H45 0.940 . S
C62 C61 1.385 . S
C62 C63 1.388 . S
C63 H42 0.939 . S
C63 C58 1.391 . S
C63 C62 1.388 . S
P64 O75 1.490 1_654 S
P64 C78 1.811 1_554 S
P64 C84 1.803 . S
P64 C90 1.819 1_655 S
H65 C79 0.941 . S
H66 C80 0.939 . S
H67 C82 0.940 . S
H68 C83 0.940 . S
H69 C85 0.939 . S
H70 C86 0.942 . S
H71 C88 0.940 . S
H72 C89 0.939 . S
H73 C91 0.941 . S
H74 C95 0.939 . S
O75 P64 1.490 1_456 S
H76 C92 0.939 . S
H77 C94 0.940 . S
C78 P64 1.811 1_556 S
C78 C79 1.391 . S
C78 C83 1.390 1_556 S
C79 H65 0.941 . S
C79 C78 1.391 . S
C79 C80 1.397 . S
C80 H66 0.939 . S
C80 C79 1.397 . S
C80 C81 1.378 . S
C81 C80 1.378 . S
C81 C82 1.378 1_556 S
C82 H67 0.940 . S
C82 C81 1.378 1_554 S
C82 C83 1.396 . S
C83 H68 0.940 . S
C83 C78 1.390 1_554 S
C83 C82 1.396 . S
C84 P64 1.803 . S
C84 C85 1.378 . S
C84 C89 1.400 . S
C85 H69 0.939 . S
C85 C84 1.378 . S
C85 C86 1.361 . S
C86 H70 0.942 . S
C86 C85 1.361 . S
C86 C87 1.369 . S
C87 C86 1.369 . S
C87 C88 1.404 . S
C88 H71 0.940 . S
C88 C87 1.404 . S
C88 C89 1.389 . S
C89 H72 0.939 . S
C89 C84 1.400 . S
C89 C88 1.389 . S
C90 P64 1.819 1_455 S
C90 C91 1.391 . S
C90 C95 1.391 1_455 S
C91 H73 0.941 . S
C91 C90 1.391 . S
C91 C92 1.396 . S
C92 H76 0.939 . S
C92 C91 1.396 . S
C92 C93 1.397 . S
C93 C92 1.397 . S
C93 C94 1.385 1_455 S
C94 H77 0.940 . S
C94 C93 1.385 1_655 S
C94 C95 1.388 . S
C95 H74 0.939 . S
C95 C90 1.391 1_655 S
C95 C94 1.388 . S
P96 O107 1.490 . S
P96 C110 1.812 . S
P96 C116 1.803 . S
P96 C122 1.819 . S
H97 C111 0.941 . S
H98 C112 0.939 . S
H99 C114 0.940 . S
H100 C115 0.940 . S
H101 C117 0.939 . S
H102 C118 0.942 . S
H103 C120 0.940 . S
H104 C121 0.939 . S
H105 C123 0.941 . S
H106 C127 0.939 . S
O107 P96 1.490 . S
H108 C124 0.939 . S
H109 C126 0.940 . S
C110 P96 1.812 . S
C110 C111 1.389 . S
C110 C115 1.391 . S
C111 H97 0.941 . S
C111 C110 1.389 . S
C111 C112 1.397 . S
C112 H98 0.939 . S
C112 C111 1.397 . S
C112 C113 1.378 . S
C113 C112 1.378 . S
C113 C114 1.378 . S
C114 H99 0.940 . S
C114 C113 1.378 . S
C114 C115 1.396 . S
C115 H100 0.940 . S
C115 C110 1.391 . S
C115 C114 1.396 . S
C116 P96 1.803 . S
C116 C117 1.378 . S
C116 C121 1.400 . S
C117 H101 0.939 . S
C117 C116 1.378 . S
C117 C118 1.361 . S
C118 H102 0.942 . S
C118 C117 1.361 . S
C118 C119 1.369 . S
C119 C118 1.369 . S
C119 C120 1.404 . S
C120 H103 0.940 . S
C120 C119 1.404 . S
C120 C121 1.389 . S
C121 H104 0.939 . S
C121 C116 1.400 . S
C121 C120 1.389 . S
C122 P96 1.819 . S
C122 C123 1.391 . S
C122 C127 1.391 . S
C123 H105 0.941 . S
C123 C122 1.391 . S
C123 C124 1.396 . S
C124 H108 0.939 . S
C124 C123 1.396 . S
C124 C125 1.397 . S
C125 C124 1.397 . S
C125 C126 1.385 . S
C126 H109 0.940 . S
C126 C125 1.385 . S
C126 C127 1.388 . S
C127 H106 0.939 . S
C127 C122 1.391 . S
C127 C126 1.388 . S
P128 O139 1.490 . S
P128 C142 1.812 . S
P128 C148 1.803 . S
P128 C154 1.819 . S
H129 C143 0.941 . S
H130 C144 0.939 . S
H131 C146 0.940 . S
H132 C147 0.940 . S
H133 C149 0.939 . S
H134 C150 0.942 . S
H135 C152 0.940 . S
H136 C153 0.939 . S
H137 C155 0.941 . S
H138 C159 0.937 1_655 S
O139 P128 1.490 . S
H140 C156 0.939 . S
H141 C158 0.940 . S
C142 P128 1.812 . S
C142 C143 1.389 . S
C142 C147 1.391 1_565 S
C143 H129 0.941 . S
C143 C142 1.389 . S
C143 C144 1.397 1_565 S
C144 H130 0.939 . S
C144 C143 1.397 1_545 S
C144 C145 1.378 . S
C145 C144 1.378 . S
C145 C146 1.378 . S
C146 H131 0.940 . S
C146 C145 1.378 . S
C146 C147 1.396 . S
C147 H132 0.940 . S
C147 C142 1.391 1_545 S
C147 C146 1.396 . S
C148 P128 1.803 . S
C148 C149 1.378 . S
C148 C153 1.400 . S
C149 H133 0.939 . S
C149 C148 1.378 . S
C149 C150 1.361 . S
C150 H134 0.942 . S
C150 C149 1.361 . S
C150 C151 1.369 . S
C151 C150 1.369 . S
C151 C152 1.404 . S
C152 H135 0.940 . S
C152 C151 1.404 . S
C152 C153 1.389 . S
C153 H136 0.939 . S
C153 C148 1.400 . S
C153 C152 1.389 . S
C154 P128 1.819 . S
C154 C155 1.391 . S
C154 C159 1.403 . S
C155 H137 0.941 . S
C155 C154 1.391 . S
C155 C156 1.396 . S
C156 H140 0.939 . S
C156 C155 1.396 . S
C156 C157 1.397 1_455 S
C157 C156 1.397 1_655 S
C157 C158 1.385 . S
C158 H141 0.940 . S
C158 C157 1.385 . S
C158 C159 1.378 1_655 S
C159 H138 0.937 1_455 S
C159 C154 1.403 . S
C159 C158 1.378 1_455 S
P160 O171 1.490 . S
P160 C174 1.812 . S
P160 C180 1.803 . S
P160 C186 1.819 . S
H161 C175 0.941 . S
H162 C176 0.939 . S
H163 C178 0.940 . S
H164 C179 0.940 . S
H165 C181 0.939 . S
H166 C182 0.942 . S
H167 C184 0.940 . S
H168 C185 0.939 . S
H169 C187 0.941 . S
H170 C191 0.939 . S
O171 P160 1.490 . S
H172 C188 0.939 . S
H173 C190 0.940 . S
C174 P160 1.812 . S
C174 C175 1.389 . S
C174 C179 1.391 . S
C175 H161 0.941 . S
C175 C174 1.389 . S
C175 C176 1.397 . S
C176 H162 0.939 . S
C176 C175 1.397 . S
C176 C177 1.378 . S
C177 C176 1.378 . S
C177 C178 1.378 . S
C178 H163 0.940 . S
C178 C177 1.378 . S
C178 C179 1.396 . S
C179 H164 0.940 . S
C179 C174 1.391 . S
C179 C178 1.396 . S
C180 P160 1.803 . S
C180 C181 1.378 . S
C180 C185 1.400 . S
C181 H165 0.939 . S
C181 C180 1.378 . S
C181 C182 1.361 . S
C182 H166 0.942 . S
C182 C181 1.361 . S
C182 C183 1.369 . S
C183 C182 1.369 . S
C183 C184 1.404 . S
C184 H167 0.940 . S
C184 C183 1.404 . S
C184 C185 1.389 . S
C185 H168 0.939 . S
C185 C180 1.400 . S
C185 C184 1.389 . S
C186 P160 1.819 . S
C186 C187 1.391 . S
C186 C191 1.391 . S
C187 H169 0.941 . S
C187 C186 1.391 . S
C187 C188 1.396 . S
C188 H172 0.939 . S
C188 C187 1.396 . S
C188 C189 1.397 . S
C189 C188 1.397 . S
C189 C190 1.385 . S
C190 H173 0.940 . S
C190 C189 1.385 . S
C190 C191 1.388 . S
C191 H170 0.939 . S
C191 C186 1.391 . S
C191 C190 1.388 . S
P192 O203 1.490 1_655 S
P192 C206 1.812 1_655 S
P192 C212 1.803 . S
P192 C218 1.819 . S
H193 C207 0.941 . S
H194 C208 0.939 . S
H195 C210 0.918 1_655 S
H196 C211 0.940 . S
H197 C213 0.932 1_455 S
H198 C214 0.942 . S
H199 C216 0.940 . S
H200 C217 0.939 . S
H201 C219 0.941 . S
H202 C223 0.939 . S
O203 P192 1.490 1_455 S
H204 C220 0.939 . S
H205 C222 0.940 . S
C206 P192 1.812 1_455 S
C206 C207 1.389 . S
C206 C211 1.391 1_455 S
C207 H193 0.941 . S
C207 C206 1.389 . S
C207 C208 1.397 . S
C208 H194 0.939 . S
C208 C207 1.397 . S
C208 C209 1.378 . S
C209 C208 1.378 . S
C209 C210 1.413 . S
C210 H195 0.918 1_455 S
C210 C209 1.413 . S
C210 C211 1.383 1_455 S
C211 H196 0.940 . S
C211 C206 1.391 1_655 S
C211 C210 1.383 1_655 S
C212 P192 1.803 . S
C212 C213 1.378 . S
C212 C217 1.400 . S
C213 H197 0.932 1_655 S
C213 C212 1.378 . S
C213 C214 1.361 . S
C214 H198 0.942 . S
C214 C213 1.361 . S
C214 C215 1.369 . S
C215 C214 1.369 . S
C215 C216 1.404 . S
C216 H199 0.940 . S
C216 C215 1.404 . S
C216 C217 1.389 . S
C217 H200 0.939 . S
C217 C212 1.400 . S
C217 C216 1.389 . S
C218 P192 1.819 . S
C218 C219 1.391 . S
C218 C223 1.391 . S
C219 H201 0.941 . S
C219 C218 1.391 . S
C219 C220 1.396 . S
C220 H204 0.939 . S
C220 C219 1.396 . S
C220 C221 1.397 . S
C221 C220 1.397 . S
C221 C222 1.385 . S
C222 H205 0.940 . S
C222 C221 1.385 . S
C222 C223 1.388 . S
C223 H202 0.939 . S
C223 C218 1.391 . S
C223 C222 1.388 . S
P224 O235 1.490 . S
P224 C238 1.812 . S
P224 C244 1.803 . S
P224 C250 1.819 . S
H225 C239 0.941 . S
H226 C240 0.939 . S
H227 C242 0.940 . S
H228 C243 0.940 . S
H229 C245 0.939 . S
H230 C246 0.942 . S
H231 C248 0.940 . S
H232 C249 0.939 . S
H233 C251 0.941 . S
H234 C255 0.939 . S
O235 P224 1.490 . S
H236 C252 0.939 . S
H237 C254 0.940 . S
C238 P224 1.812 . S
C238 C239 1.389 . S
C238 C243 1.391 . S
C239 H225 0.941 . S
C239 C238 1.389 . S
C239 C240 1.397 . S
C240 H226 0.939 . S
C240 C239 1.397 . S
C240 C241 1.378 . S
C241 C240 1.378 . S
C241 C242 1.378 . S
C242 H227 0.940 . S
C242 C241 1.378 . S
C242 C243 1.396 . S
C243 H228 0.940 . S
C243 C238 1.391 . S
C243 C242 1.396 . S
C244 P224 1.803 . S
C244 C245 1.378 . S
C244 C249 1.400 . S
C245 H229 0.939 . S
C245 C244 1.378 . S
C245 C246 1.361 . S
C246 H230 0.942 . S
C246 C245 1.361 . S
C246 C247 1.369 . S
C247 C246 1.369 . S
C247 C248 1.404 . S
C248 H231 0.940 . S
C248 C247 1.404 . S
C248 C249 1.389 . S
C249 H232 0.939 . S
C249 C244 1.400 . S
C249 C248 1.389 . S
C250 P224 1.819 . S
C250 C251 1.391 . S
C250 C255 1.391 . S
C251 H233 0.941 . S
C251 C250 1.391 . S
C251 C252 1.396 . S
C252 H236 0.939 . S
C252 C251 1.396 . S
C252 C253 1.397 . S
C253 C252 1.397 . S
C253 C254 1.385 . S
C254 H237 0.940 . S
C254 C253 1.385 . S
C254 C255 1.388 . S
C255 H234 0.939 . S
C255 C250 1.391 . S
C255 C254 1.388 . S
P256 O267 1.490 . S
P256 C270 1.812 . S
P256 C276 1.803 . S
P256 C282 1.819 . S
H257 C271 0.941 . S
H258 C272 0.939 . S
H259 C274 0.940 . S
H260 C275 0.940 . S
H261 C277 0.939 . S
H262 C278 0.942 . S
H263 C280 0.940 . S
H264 C281 0.939 . S
H265 C283 0.941 . S
H266 C287 0.939 . S
O267 P256 1.490 . S
H268 C284 0.939 . S
H269 C286 0.940 . S
C270 P256 1.812 . S
C270 C271 1.389 . S
C270 C275 1.391 . S
C271 H257 0.941 . S
C271 C270 1.389 . S
C271 C272 1.397 . S
C272 H258 0.939 . S
C272 C271 1.397 . S
C272 C273 1.378 . S
C273 C272 1.378 . S
C273 C274 1.378 . S
C274 H259 0.940 . S
C274 C273 1.378 . S
C274 C275 1.396 . S
C275 H260 0.940 . S
C275 C270 1.391 . S
C275 C274 1.396 . S
C276 P256 1.803 . S
C276 C277 1.378 . S
C276 C281 1.400 . S
C277 H261 0.939 . S
C277 C276 1.378 . S
C277 C278 1.361 . S
C278 H262 0.942 . S
C278 C277 1.361 . S
C278 C279 1.369 . S
C279 C278 1.369 . S
C279 C280 1.404 . S
C280 H263 0.940 . S
C280 C279 1.404 . S
C280 C281 1.389 . S
C281 H264 0.939 . S
C281 C276 1.400 . S
C281 C280 1.389 . S
C282 P256 1.819 . S
C282 C283 1.391 . S
C282 C287 1.391 . S
C283 H265 0.941 . S
C283 C282 1.391 . S
C283 C284 1.396 . S
C284 H268 0.939 . S
C284 C283 1.396 . S
C284 C285 1.397 . S
C285 C284 1.397 . S
C285 C286 1.385 . S
C286 H269 0.940 . S
C286 C285 1.385 . S
C286 C287 1.388 . S
C287 H266 0.939 . S
C287 C282 1.391 . S
C287 C286 1.388 . S
P288 O299 1.490 1_565 S
P288 C302 1.812 . S
P288 C308 1.803 1_565 S
P288 C314 1.819 . S
H289 C303 0.941 . S
H290 C304 0.939 . S
H291 C306 0.940 . S
H292 C307 0.940 . S
H293 C309 0.939 . S
H294 C310 0.942 . S
H295 C312 0.938 1_565 S
H296 C313 0.939 . S
H297 C315 0.941 . S
H298 C319 0.940 1_545 S
O299 P288 1.490 1_545 S
H300 C316 0.939 . S
H301 C318 0.940 . S
C302 P288 1.812 . S
C302 C303 1.389 . S
C302 C307 1.391 . S
C303 H289 0.941 . S
C303 C302 1.389 . S
C303 C304 1.397 . S
C304 H290 0.939 . S
C304 C303 1.397 . S
C304 C305 1.378 . S
C305 C304 1.378 . S
C305 C306 1.378 . S
C306 H291 0.940 . S
C306 C305 1.378 . S
C306 C307 1.396 . S
C307 H292 0.940 . S
C307 C302 1.391 . S
C307 C306 1.396 . S
C308 P288 1.803 1_545 S
C308 C309 1.378 . S
C308 C313 1.400 1_545 S
C309 H293 0.939 . S
C309 C308 1.378 . S
C309 C310 1.361 . S
C310 H294 0.942 . S
C310 C309 1.361 . S
C310 C311 1.369 . S
C311 C310 1.369 . S
C311 C312 1.407 . S
C312 H295 0.938 1_545 S
C312 C311 1.407 . S
C312 C313 1.388 1_545 S
C313 H296 0.939 . S
C313 C308 1.400 1_565 S
C313 C312 1.388 1_565 S
C314 P288 1.819 . S
C314 C315 1.391 . S
C314 C319 1.391 . S
C315 H297 0.941 . S
C315 C314 1.391 . S
C315 C316 1.396 . S
C316 H300 0.939 . S
C316 C315 1.396 . S
C316 C317 1.397 . S
C317 C316 1.397 . S
C317 C318 1.385 . S
C318 H301 0.940 . S
C318 C317 1.385 . S
C318 C319 1.388 . S
C319 H298 0.940 1_565 S
C319 C314 1.391 . S
C319 C318 1.388 . S
P320 O331 1.490 . S
P320 C334 1.812 . S
P320 C340 1.803 . S
P320 C346 1.819 . S
H321 C335 0.941 . S
H322 C336 0.939 . S
H323 C338 0.940 . S
H324 C339 0.940 . S
H325 C341 0.939 . S
H326 C342 0.942 . S
H327 C344 0.940 . S
H328 C345 0.939 . S
H329 C347 0.941 . S
H330 C351 0.939 . S
O331 P320 1.490 . S
H332 C348 0.939 . S
H333 C350 0.940 . S
C334 P320 1.812 . S
C334 C335 1.389 . S
C334 C339 1.391 . S
C335 H321 0.941 . S
C335 C334 1.389 . S
C335 C336 1.397 . S
C336 H322 0.939 . S
C336 C335 1.397 . S
C336 C337 1.378 . S
C337 C336 1.378 . S
C337 C338 1.378 . S
C338 H323 0.940 . S
C338 C337 1.378 . S
C338 C339 1.396 . S
C339 H324 0.940 . S
C339 C334 1.391 . S
C339 C338 1.396 . S
C340 P320 1.803 . S
C340 C341 1.378 . S
C340 C345 1.400 . S
C341 H325 0.939 . S
C341 C340 1.378 . S
C341 C342 1.361 . S
C342 H326 0.942 . S
C342 C341 1.361 . S
C342 C343 1.369 . S
C343 C342 1.369 . S
C343 C344 1.404 . S
C344 H327 0.940 . S
C344 C343 1.404 . S
C344 C345 1.389 . S
C345 H328 0.939 . S
C345 C340 1.400 . S
C345 C344 1.389 . S
C346 P320 1.819 . S
C346 C347 1.391 . S
C346 C351 1.391 . S
C347 H329 0.941 . S
C347 C346 1.391 . S
C347 C348 1.396 . S
C348 H332 0.939 . S
C348 C347 1.396 . S
C348 C349 1.397 . S
C349 C348 1.397 . S
C349 C350 1.385 . S
C350 H333 0.940 . S
C350 C349 1.385 . S
C350 C351 1.388 . S
C351 H330 0.939 . S
C351 C346 1.391 . S
C351 C350 1.388 . S
P352 O363 1.490 . S
P352 C366 1.812 . S
P352 C372 1.803 . S
P352 C378 1.819 . S
H353 C367 0.941 . S
H354 C368 0.939 . S
H355 C370 0.940 . S
H356 C371 0.940 . S
H357 C373 0.939 . S
H358 C374 0.942 . S
H359 C376 0.940 . S
H360 C377 0.939 . S
H361 C379 0.941 . S
H362 C383 0.939 . S
O363 P352 1.490 . S
H364 C380 0.939 . S
H365 C382 0.940 . S
C366 P352 1.812 . S
C366 C367 1.389 . S
C366 C371 1.391 . S
C367 H353 0.941 . S
C367 C366 1.389 . S
C367 C368 1.397 . S
C368 H354 0.939 . S
C368 C367 1.397 . S
C368 C369 1.378 . S
C369 C368 1.378 . S
C369 C370 1.378 . S
C370 H355 0.940 . S
C370 C369 1.378 . S
C370 C371 1.396 . S
C371 H356 0.940 . S
C371 C366 1.391 . S
C371 C370 1.396 . S
C372 P352 1.803 . S
C372 C373 1.378 . S
C372 C377 1.400 . S
C373 H357 0.939 . S
C373 C372 1.378 . S
C373 C374 1.361 . S
C374 H358 0.942 . S
C374 C373 1.361 . S
C374 C375 1.369 . S
C375 C374 1.369 . S
C375 C376 1.404 . S
C376 H359 0.940 . S
C376 C375 1.404 . S
C376 C377 1.389 . S
C377 H360 0.939 . S
C377 C372 1.400 . S
C377 C376 1.389 . S
C378 P352 1.819 . S
C378 C379 1.391 . S
C378 C383 1.391 . S
C379 H361 0.941 . S
C379 C378 1.391 . S
C379 C380 1.396 . S
C380 H364 0.939 . S
C380 C379 1.396 . S
C380 C381 1.397 . S
C381 C380 1.397 . S
C381 C382 1.385 . S
C382 H365 0.940 . S
C382 C381 1.385 . S
C382 C383 1.388 . S
C383 H362 0.939 . S
C383 C378 1.391 . S
C383 C382 1.388 . S
P384 O395 1.490 . S
P384 C398 1.812 . S
P384 C404 1.803 . S
P384 C410 1.819 . S
H385 C399 0.941 . S
H386 C400 0.939 . S
H387 C402 0.940 . S
H388 C403 0.940 . S
H389 C405 0.939 . S
H390 C406 0.942 . S
H391 C408 0.940 . S
H392 C409 0.939 . S
H393 C411 0.941 . S
H394 C415 0.939 . S
O395 P384 1.490 . S
H396 C412 0.939 . S
H397 C414 0.940 . S
C398 P384 1.812 . S
C398 C399 1.389 . S
C398 C403 1.391 . S
C399 H385 0.941 . S
C399 C398 1.389 . S
C399 C400 1.397 . S
C400 H386 0.939 . S
C400 C399 1.397 . S
C400 C401 1.378 . S
C401 C400 1.378 . S
C401 C402 1.378 . S
C402 H387 0.940 . S
C402 C401 1.378 . S
C402 C403 1.396 . S
C403 H388 0.940 . S
C403 C398 1.391 . S
C403 C402 1.396 . S
C404 P384 1.803 . S
C404 C405 1.378 . S
C404 C409 1.400 . S
C405 H389 0.939 . S
C405 C404 1.378 . S
C405 C406 1.361 . S
C406 H390 0.942 . S
C406 C405 1.361 . S
C406 C407 1.369 . S
C407 C406 1.369 . S
C407 C408 1.404 . S
C408 H391 0.940 . S
C408 C407 1.404 . S
C408 C409 1.389 . S
C409 H392 0.939 . S
C409 C404 1.400 . S
C409 C408 1.389 . S
C410 P384 1.819 . S
C410 C411 1.391 . S
C410 C415 1.391 . S
C411 H393 0.941 . S
C411 C410 1.391 . S
C411 C412 1.396 . S
C412 H396 0.939 . S
C412 C411 1.396 . S
C412 C413 1.397 . S
C413 C412 1.397 . S
C413 C414 1.385 . S
C414 H397 0.940 . S
C414 C413 1.385 . S
C414 C415 1.388 . S
C415 H394 0.939 . S
C415 C410 1.391 . S
C415 C414 1.388 . S
P416 O427 1.490 . S
P416 C430 1.812 . S
P416 C436 1.803 . S
P416 C442 1.819 . S
H417 C431 0.941 . S
H418 C432 0.939 . S
H419 C434 0.940 . S
H420 C435 0.940 . S
H421 C437 0.939 . S
H422 C438 0.945 . S
H423 C440 0.940 . S
H424 C441 0.939 . S
H425 C443 0.941 . S
H426 C447 0.939 . S
O427 P416 1.490 . S
H428 C444 0.939 . S
H429 C446 0.940 . S
C430 P416 1.812 . S
C430 C431 1.389 . S
C430 C435 1.391 . S
C431 H417 0.941 . S
C431 C430 1.389 . S
C431 C432 1.397 . S
C432 H418 0.939 . S
C432 C431 1.397 . S
C432 C433 1.378 . S
C433 C432 1.378 . S
C433 C434 1.378 . S
C434 H419 0.940 . S
C434 C433 1.378 . S
C434 C435 1.396 . S
C435 H420 0.940 . S
C435 C430 1.391 . S
C435 C434 1.396 . S
C436 P416 1.803 . S
C436 C437 1.378 . S
C436 C441 1.400 1_556 S
C437 H421 0.939 . S
C437 C436 1.378 . S
C437 C438 1.361 1_556 S
C438 H422 0.945 . S
C438 C437 1.361 1_554 S
C438 C439 1.369 . S
C439 C438 1.369 . S
C439 C440 1.404 . S
C440 H423 0.940 . S
C440 C439 1.404 . S
C440 C441 1.389 . S
C441 H424 0.939 . S
C441 C436 1.400 1_554 S
C441 C440 1.389 . S
C442 P416 1.819 . S
C442 C443 1.391 . S
C442 C447 1.391 . S
C443 H425 0.941 . S
C443 C442 1.391 . S
C443 C444 1.396 . S
C444 H428 0.939 . S
C444 C443 1.396 . S
C444 C445 1.397 . S
C445 C444 1.397 . S
C445 C446 1.385 . S
C446 H429 0.940 . S
C446 C445 1.385 . S
C446 C447 1.388 . S
C447 H426 0.939 . S
C447 C442 1.391 . S
C447 C446 1.388 . S
P448 O459 1.490 . S
P448 C462 1.812 . S
P448 C468 1.803 . S
P448 C474 1.819 . S
H449 C463 0.941 . S
H450 C464 0.939 . S
H451 C466 0.940 . S
H452 C467 0.940 . S
H453 C469 0.939 . S
H454 C470 0.942 . S
H455 C472 0.940 . S
H456 C473 0.939 . S
H457 C475 0.941 . S
H458 C479 0.939 . S
O459 P448 1.490 . S
H460 C476 0.939 . S
H461 C478 0.940 . S
C462 P448 1.812 . S
C462 C463 1.389 . S
C462 C467 1.391 . S
C463 H449 0.941 . S
C463 C462 1.389 . S
C463 C464 1.397 . S
C464 H450 0.939 . S
C464 C463 1.397 . S
C464 C465 1.378 . S
C465 C464 1.378 . S
C465 C466 1.378 . S
C466 H451 0.940 . S
C466 C465 1.378 . S
C466 C467 1.396 . S
C467 H452 0.940 . S
C467 C462 1.391 . S
C467 C466 1.396 . S
C468 P448 1.803 . S
C468 C469 1.378 . S
C468 C473 1.400 . S
C469 H453 0.939 . S
C469 C468 1.378 . S
C469 C470 1.361 . S
C470 H454 0.942 . S
C470 C469 1.361 . S
C470 C471 1.369 . S
C471 C470 1.369 . S
C471 C472 1.404 . S
C472 H455 0.940 . S
C472 C471 1.404 . S
C472 C473 1.389 . S
C473 H456 0.939 . S
C473 C468 1.400 . S
C473 C472 1.389 . S
C474 P448 1.819 . S
C474 C475 1.391 . S
C474 C479 1.391 . S
C475 H457 0.941 . S
C475 C474 1.391 . S
C475 C476 1.396 . S
C476 H460 0.939 . S
C476 C475 1.396 . S
C476 C477 1.397 . S
C477 C476 1.397 . S
C477 C478 1.385 . S
C478 H461 0.940 . S
C478 C477 1.385 . S
C478 C479 1.388 . S
C479 H458 0.939 . S
C479 C474 1.391 . S
C479 C478 1.388 . S
P480 O491 1.478 1_545 S
P480 C494 1.812 1_554 S
P480 C500 1.803 . S
P480 C506 1.818 1_554 S
H481 C495 0.941 . S
H482 C496 0.939 . S
H483 C498 0.940 . S
H484 C499 0.940 . S
H485 C501 0.939 . S
H486 C502 0.942 . S
H487 C504 0.940 1_556 S
H488 C505 0.939 . S
H489 C507 0.941 . S
H490 C511 0.939 . S
O491 P480 1.478 1_565 S
H492 C508 0.939 . S
H493 C510 0.942 . S
C494 P480 1.812 1_556 S
C494 C495 1.389 . S
C494 C499 1.391 . S
C495 H481 0.941 . S
C495 C494 1.389 . S
C495 C496 1.397 . S
C496 H482 0.939 . S
C496 C495 1.397 . S
C496 C497 1.378 . S
C497 C496 1.378 . S
C497 C498 1.378 . S
C498 H483 0.940 . S
C498 C497 1.378 . S
C498 C499 1.396 . S
C499 H484 0.940 . S
C499 C494 1.391 . S
C499 C498 1.396 . S
C500 P480 1.803 . S
C500 C501 1.378 . S
C500 C505 1.400 1_554 S
C501 H485 0.939 . S
C501 C500 1.378 . S
C501 C502 1.361 . S
C502 H486 0.942 . S
C502 C501 1.361 . S
C502 C503 1.369 . S
C503 C502 1.369 . S
C503 C504 1.404 . S
C504 H487 0.940 1_554 S
C504 C503 1.404 . S
C504 C505 1.389 1_554 S
C505 H488 0.939 . S
C505 C500 1.400 1_556 S
C505 C504 1.389 1_556 S
C506 P480 1.818 1_556 S
C506 C507 1.393 1_545 S
C506 C511 1.390 1_556 S
C507 H489 0.941 . S
C507 C506 1.393 1_565 S
C507 C508 1.396 . S
C508 H492 0.939 . S
C508 C507 1.396 . S
C508 C509 1.397 . S
C509 C508 1.397 . S
C509 C510 1.380 1_566 S
C510 H493 0.942 . S
C510 C509 1.380 1_544 S
C510 C511 1.391 . S
C511 H490 0.939 . S
C511 C506 1.390 1_554 S
C511 C510 1.391 . S
Mn512 O517 2.095 . S
Mn512 O527 2.162 . S
Mn512 O528 2.297 . S
Mn512 O536 2.372 1_554 S
Mn512 O537 2.209 1_554 S
Mn512 O538 2.094 . S
Mn513 O518 2.121 . S
Mn513 N520 2.257 . S
Mn513 N529 2.282 . S
Mn513 O537 2.215 . S
Mn513 O539 2.117 . S
C514 O536 1.258 . S
C514 O537 1.283 . S
C515 O527 1.281 . S
C515 O528 1.236 . S
C516 O538 1.240 . S
C516 O539 1.264 1_554 S
O517 Mn512 2.095 . S
O517 C526 1.250 . S
O518 Mn513 2.121 . S
O518 C526 1.258 1_556 S
C519 N520 1.326 . S
C519 C523 1.460 . S
C519 H525 0.929 . S
N520 Mn513 2.257 . S
N520 C519 1.326 . S
N520 C524 1.362 . S
C521 C522 1.258 . S
C521 C524 1.431 . S
C521 C541 1.449 . S
C522 C521 1.258 . S
C522 C523 1.477 . S
C522 H542 0.931 . S
C523 C519 1.460 . S
C523 C522 1.477 . S
C523 H543 0.930 . S
C524 N520 1.362 . S
C524 C521 1.431 . S
C524 C534 1.476 . S
H525 C519 0.929 . S
C526 O517 1.250 . S
C526 O518 1.258 1_554 S
O527 Mn512 2.162 . S
O527 C515 1.281 . S
O528 Mn512 2.297 . S
O528 C515 1.236 . S
N529 Mn513 2.282 . S
N529 C530 1.328 . S
N529 C534 1.318 . S
C530 N529 1.328 . S
C530 C531 1.457 . S
C530 H535 0.929 . S
C531 C530 1.457 . S
C531 C532 1.291 . S
C531 H544 0.931 . S
C532 C531 1.291 . S
C532 C533 1.373 . S
C532 H545 0.929 . S
C533 C532 1.373 . S
C533 C534 1.396 . S
C533 C540 1.403 . S
C534 C524 1.476 . S
C534 N529 1.318 . S
C534 C533 1.396 . S
H535 C530 0.929 . S
O536 Mn512 2.372 1_556 S
O536 C514 1.258 . S
O537 Mn512 2.209 1_556 S
O537 Mn513 2.215 . S
O537 C514 1.283 . S
O538 Mn512 2.094 . S
O538 C516 1.240 . S
O539 Mn513 2.117 . S
O539 C516 1.264 1_556 S
C540 C533 1.403 . S
C540 C541 1.399 . S
C540 H546 0.929 . S
C541 C521 1.449 . S
C541 C540 1.399 . S
C541 H547 0.930 . S
H542 C522 0.931 . S
H543 C523 0.930 . S
H544 C531 0.931 . S
H545 C532 0.929 . S
H546 C540 0.929 . S
H547 C541 0.930 . S
Mn548 O553 2.095 . S
Mn548 O563 2.162 . S
Mn548 O564 2.297 . S
Mn548 O572 2.385 . S
Mn548 O573 2.209 . S
Mn548 O574 2.094 . S
Mn549 O554 2.121 . S
Mn549 N556 2.257 . S
Mn549 N565 2.282 . S
Mn549 O573 2.215 . S
Mn549 O575 2.117 . S
C550 O572 1.234 . S
C550 O573 1.283 . S
C551 O563 1.281 . S
C551 O564 1.236 . S
C552 O574 1.240 . S
C552 O575 1.264 . S
O553 Mn548 2.095 . S
O553 C562 1.250 . S
O554 Mn549 2.121 . S
O554 C562 1.258 . S
C555 N556 1.326 . S
C555 C559 1.460 . S
C555 H561 0.929 . S
N556 Mn549 2.257 . S
N556 C555 1.326 . S
N556 C560 1.362 . S
C557 C558 1.258 . S
C557 C560 1.431 . S
C557 C577 1.449 . S
C558 C557 1.258 . S
C558 C559 1.477 . S
C558 H578 0.931 . S
C559 C555 1.460 . S
C559 C558 1.477 . S
C559 H579 0.930 . S
C560 N556 1.362 . S
C560 C557 1.431 . S
C560 C570 1.476 . S
H561 C555 0.929 . S
C562 O553 1.250 . S
C562 O554 1.258 . S
O563 Mn548 2.162 . S
O563 C551 1.281 . S
O564 Mn548 2.297 . S
O564 C551 1.236 . S
N565 Mn549 2.282 . S
N565 C566 1.328 . S
N565 C570 1.318 . S
C566 N565 1.328 . S
C566 C567 1.457 . S
C566 H571 0.929 . S
C567 C566 1.457 . S
C567 C568 1.291 . S
C567 H580 0.931 . S
C568 C567 1.291 . S
C568 C569 1.373 . S
C568 H581 0.929 . S
C569 C568 1.373 . S
C569 C570 1.396 . S
C569 C576 1.403 . S
C570 C560 1.476 . S
C570 N565 1.318 . S
C570 C569 1.396 . S
H571 C566 0.929 . S
O572 Mn548 2.385 . S
O572 C550 1.234 . S
O573 Mn548 2.209 . S
O573 Mn549 2.215 . S
O573 C550 1.283 . S
O574 Mn548 2.094 . S
O574 C552 1.240 . S
O575 Mn549 2.117 . S
O575 C552 1.264 . S
C576 C569 1.403 . S
C576 C577 1.399 . S
C576 H582 0.929 . S
C577 C557 1.449 . S
C577 C576 1.399 . S
C577 H583 0.930 . S
H578 C558 0.931 . S
H579 C559 0.930 . S
H580 C567 0.931 . S
H581 C568 0.929 . S
H582 C576 0.929 . S
H583 C577 0.930 . S
Mn584 O589 2.095 1_554 S
Mn584 O599 2.162 . S
Mn584 O600 2.297 1_554 S
Mn584 O608 2.385 . S
Mn584 O609 2.209 1_554 S
Mn584 O610 2.094 . S
Mn585 O590 2.121 . S
Mn585 N592 2.257 . S
Mn585 N601 2.286 . S
Mn585 O609 2.215 . S
Mn585 O611 2.117 1_556 S
C586 O608 1.234 . S
C586 O609 1.283 1_554 S
C587 O599 1.281 . S
C587 O600 1.236 1_554 S
C588 O610 1.240 . S
C588 O611 1.264 . S
O589 Mn584 2.095 1_556 S
O589 C598 1.250 . S
O590 Mn585 2.121 . S
O590 C598 1.258 . S
C591 N592 1.326 . S
C591 C595 1.460 . S
C591 H597 0.929 . S
N592 Mn585 2.257 . S
N592 C591 1.326 . S
N592 C596 1.362 . S
C593 C594 1.258 . S
C593 C596 1.431 . S
C593 C613 1.449 . S
C594 C593 1.258 . S
C594 C595 1.477 . S
C594 H614 0.931 . S
C595 C591 1.460 . S
C595 C594 1.477 . S
C595 H615 0.930 . S
C596 N592 1.362 . S
C596 C593 1.431 . S
C596 C606 1.476 . S
H597 C591 0.929 . S
C598 O589 1.250 . S
C598 O590 1.258 . S
O599 Mn584 2.162 . S
O599 C587 1.281 . S
O600 Mn584 2.297 1_556 S
O600 C587 1.236 1_556 S
N601 Mn585 2.286 . S
N601 C602 1.317 1_556 S
N601 C606 1.325 . S
C602 N601 1.317 1_554 S
C602 C603 1.457 . S
C602 H607 0.929 . S
C603 C602 1.457 . S
C603 C604 1.291 . S
C603 H616 0.931 . S
C604 C603 1.291 . S
C604 C605 1.373 1_554 S
C604 H617 0.929 . S
C605 C604 1.373 1_556 S
C605 C606 1.396 . S
C605 C612 1.403 . S
C606 C596 1.476 . S
C606 N601 1.325 . S
C606 C605 1.396 . S
H607 C602 0.929 . S
O608 Mn584 2.385 . S
O608 C586 1.234 . S
O609 Mn584 2.209 1_556 S
O609 Mn585 2.215 . S
O609 C586 1.283 1_556 S
O610 Mn584 2.094 . S
O610 C588 1.240 . S
O611 Mn585 2.117 1_554 S
O611 C588 1.264 . S
C612 C605 1.403 . S
C612 C613 1.399 . S
C612 H618 0.929 . S
C613 C593 1.449 . S
C613 C612 1.399 . S
C613 H619 0.930 . S
H614 C594 0.931 . S
H615 C595 0.930 . S
H616 C603 0.931 . S
H617 C604 0.929 . S
H618 C612 0.929 . S
H619 C613 0.930 . S
Mn620 O625 2.095 . S
Mn620 O635 2.162 . S
Mn620 O636 2.297 . S
Mn620 O644 2.385 1_545 S
Mn620 O645 2.209 1_545 S
Mn620 O646 2.094 . S
Mn621 O626 2.121 . S
Mn621 N628 2.257 . S
Mn621 N637 2.282 . S
Mn621 O645 2.215 . S
Mn621 O647 2.117 . S
C622 O644 1.234 . S
C622 O645 1.283 . S
C623 O635 1.281 . S
C623 O636 1.236 . S
C624 O646 1.240 . S
C624 O647 1.264 1_545 S
O625 Mn620 2.095 . S
O625 C634 1.250 1_545 S
O626 Mn621 2.121 . S
O626 C634 1.258 . S
C627 N628 1.326 . S
C627 C631 1.460 . S
C627 H633 0.929 . S
N628 Mn621 2.257 . S
N628 C627 1.326 . S
N628 C632 1.362 . S
C629 C630 1.258 . S
C629 C632 1.431 . S
C629 C649 1.449 . S
C630 C629 1.258 . S
C630 C631 1.477 . S
C630 H650 0.931 . S
C631 C627 1.460 . S
C631 C630 1.477 . S
C631 H651 0.930 . S
C632 N628 1.362 . S
C632 C629 1.431 . S
C632 C642 1.476 . S
H633 C627 0.929 . S
C634 O625 1.250 1_565 S
C634 O626 1.258 . S
O635 Mn620 2.162 . S
O635 C623 1.281 . S
O636 Mn620 2.297 . S
O636 C623 1.236 . S
N637 Mn621 2.282 . S
N637 C638 1.328 . S
N637 C642 1.318 . S
C638 N637 1.328 . S
C638 C639 1.457 . S
C638 H643 0.929 . S
C639 C638 1.457 . S
C639 C640 1.291 . S
C639 H652 0.931 . S
C640 C639 1.291 . S
C640 C641 1.373 . S
C640 H653 0.929 . S
C641 C640 1.373 . S
C641 C642 1.396 . S
C641 C648 1.403 . S
C642 C632 1.476 . S
C642 N637 1.318 . S
C642 C641 1.396 . S
H643 C638 0.929 . S
O644 Mn620 2.385 1_565 S
O644 C622 1.234 . S
O645 Mn620 2.209 1_565 S
O645 Mn621 2.215 . S
O645 C622 1.283 . S
O646 Mn620 2.094 . S
O646 C624 1.240 . S
O647 Mn621 2.117 . S
O647 C624 1.264 1_565 S
C648 C641 1.403 . S
C648 C649 1.399 . S
C648 H654 0.929 . S
C649 C629 1.449 . S
C649 C648 1.399 . S
C649 H655 0.930 . S
H650 C630 0.931 . S
H651 C631 0.930 . S
H652 C639 0.931 . S
H653 C640 0.929 . S
H654 C648 0.929 . S
H655 C649 0.930 . S
Mn656 O661 2.095 . S
Mn656 O671 2.162 . S
Mn656 O672 2.297 . S
Mn656 O680 2.385 . S
Mn656 O681 2.209 . S
Mn656 O682 2.094 . S
Mn657 O662 2.121 . S
Mn657 N664 2.257 . S
Mn657 N673 2.282 . S
Mn657 O681 2.215 . S
Mn657 O683 2.117 . S
C658 O680 1.234 . S
C658 O681 1.283 . S
C659 O671 1.281 . S
C659 O672 1.236 . S
C660 O682 1.240 . S
C660 O683 1.264 . S
O661 Mn656 2.095 . S
O661 C670 1.250 . S
O662 Mn657 2.121 . S
O662 C670 1.258 . S
C663 N664 1.326 . S
C663 C667 1.460 . S
C663 H669 0.929 . S
N664 Mn657 2.257 . S
N664 C663 1.326 . S
N664 C668 1.362 . S
C665 C666 1.258 . S
C665 C668 1.431 . S
C665 C685 1.449 . S
C666 C665 1.258 . S
C666 C667 1.477 . S
C666 H686 0.931 . S
C667 C663 1.460 . S
C667 C666 1.477 . S
C667 H687 0.930 . S
C668 N664 1.362 . S
C668 C665 1.431 . S
C668 C678 1.476 . S
H669 C663 0.929 . S
C670 O661 1.250 . S
C670 O662 1.258 . S
O671 Mn656 2.162 . S
O671 C659 1.281 . S
O672 Mn656 2.297 . S
O672 C659 1.236 . S
N673 Mn657 2.282 . S
N673 C674 1.328 . S
N673 C678 1.318 . S
C674 N673 1.328 . S
C674 C675 1.457 . S
C674 H679 0.929 . S
C675 C674 1.457 . S
C675 C676 1.291 . S
C675 H688 0.931 . S
C676 C675 1.291 . S
C676 C677 1.373 . S
C676 H689 0.929 . S
C677 C676 1.373 . S
C677 C678 1.396 . S
C677 C684 1.403 . S
C678 C668 1.476 . S
C678 N673 1.318 . S
C678 C677 1.396 . S
H679 C674 0.929 . S
O680 Mn656 2.385 . S
O680 C658 1.234 . S
O681 Mn656 2.209 . S
O681 Mn657 2.215 . S
O681 C658 1.283 . S
O682 Mn656 2.094 . S
O682 C660 1.240 . S
O683 Mn657 2.117 . S
O683 C660 1.264 . S
C684 C677 1.403 . S
C684 C685 1.399 . S
C684 H690 0.929 . S
C685 C665 1.449 . S
C685 C684 1.399 . S
C685 H691 0.930 . S
H686 C666 0.931 . S
H687 C667 0.930 . S
H688 C675 0.931 . S
H689 C676 0.929 . S
H690 C684 0.929 . S
H691 C685 0.930 . S
Mn692 O697 2.095 . S
Mn692 O707 2.162 . S
Mn692 O708 2.297 . S
Mn692 O716 2.385 . S
Mn692 O717 2.209 . S
Mn692 O718 2.094 . S
Mn693 O698 2.121 . S
Mn693 N700 2.257 . S
Mn693 N709 2.282 . S
Mn693 O717 2.215 . S
Mn693 O719 2.117 . S
C694 O716 1.234 . S
C694 O717 1.283 . S
C695 O707 1.281 . S
C695 O708 1.236 . S
C696 O718 1.240 . S
C696 O719 1.264 . S
O697 Mn692 2.095 . S
O697 C706 1.250 . S
O698 Mn693 2.121 . S
O698 C706 1.258 . S
C699 N700 1.326 . S
C699 C703 1.460 . S
C699 H705 0.929 . S
N700 Mn693 2.257 . S
N700 C699 1.326 . S
N700 C704 1.362 . S
C701 C702 1.258 . S
C701 C704 1.431 . S
C701 C721 1.449 . S
C702 C701 1.258 . S
C702 C703 1.477 . S
C702 H722 0.931 . S
C703 C699 1.460 . S
C703 C702 1.477 . S
C703 H723 0.930 . S
C704 N700 1.362 . S
C704 C701 1.431 . S
C704 C714 1.476 . S
H705 C699 0.929 . S
C706 O697 1.250 . S
C706 O698 1.258 . S
O707 Mn692 2.162 . S
O707 C695 1.281 . S
O708 Mn692 2.297 . S
O708 C695 1.236 . S
N709 Mn693 2.282 . S
N709 C710 1.328 . S
N709 C714 1.318 . S
C710 N709 1.328 . S
C710 C711 1.457 . S
C710 H715 0.929 . S
C711 C710 1.457 . S
C711 C712 1.291 . S
C711 H724 0.931 . S
C712 C711 1.291 . S
C712 C713 1.373 . S
C712 H725 0.929 . S
C713 C712 1.373 . S
C713 C714 1.396 . S
C713 C720 1.403 . S
C714 C704 1.476 . S
C714 N709 1.318 . S
C714 C713 1.396 . S
H715 C710 0.929 . S
O716 Mn692 2.385 . S
O716 C694 1.234 . S
O717 Mn692 2.209 . S
O717 Mn693 2.215 . S
O717 C694 1.283 . S
O718 Mn692 2.094 . S
O718 C696 1.240 . S
O719 Mn693 2.117 . S
O719 C696 1.264 . S
C720 C713 1.403 . S
C720 C721 1.399 . S
C720 H726 0.929 . S
C721 C701 1.449 . S
C721 C720 1.399 . S
C721 H727 0.930 . S
H722 C702 0.931 . S
H723 C703 0.930 . S
H724 C711 0.931 . S
H725 C712 0.929 . S
H726 C720 0.929 . S
H727 C721 0.930 . S
Mn728 O733 2.095 . S
Mn728 O743 2.162 . S
Mn728 O744 2.297 . S
Mn728 O752 2.385 . S
Mn728 O753 2.209 . S
Mn728 O754 2.094 . S
Mn729 O734 2.121 . S
Mn729 N736 2.257 . S
Mn729 N745 2.282 . S
Mn729 O753 2.215 . S
Mn729 O755 2.117 . S
C730 O752 1.234 . S
C730 O753 1.283 . S
C731 O743 1.281 . S
C731 O744 1.236 . S
C732 O754 1.240 . S
C732 O755 1.264 . S
O733 Mn728 2.095 . S
O733 C742 1.250 . S
O734 Mn729 2.121 . S
O734 C742 1.258 . S
C735 N736 1.326 . S
C735 C739 1.460 . S
C735 H741 0.929 . S
N736 Mn729 2.257 . S
N736 C735 1.326 . S
N736 C740 1.362 . S
C737 C738 1.258 . S
C737 C740 1.431 . S
C737 C757 1.449 . S
C738 C737 1.258 . S
C738 C739 1.477 . S
C738 H758 0.931 . S
C739 C735 1.460 . S
C739 C738 1.477 . S
C739 H759 0.930 . S
C740 N736 1.362 . S
C740 C737 1.431 . S
C740 C750 1.476 . S
H741 C735 0.929 . S
C742 O733 1.250 . S
C742 O734 1.258 . S
O743 Mn728 2.162 . S
O743 C731 1.281 . S
O744 Mn728 2.297 . S
O744 C731 1.236 . S
N745 Mn729 2.282 . S
N745 C746 1.328 . S
N745 C750 1.318 . S
C746 N745 1.328 . S
C746 C747 1.457 . S
C746 H751 0.929 . S
C747 C746 1.457 . S
C747 C748 1.291 . S
C747 H760 0.931 . S
C748 C747 1.291 . S
C748 C749 1.373 . S
C748 H761 0.929 . S
C749 C748 1.373 . S
C749 C750 1.396 . S
C749 C756 1.403 . S
C750 C740 1.476 . S
C750 N745 1.318 . S
C750 C749 1.396 . S
H751 C746 0.929 . S
O752 Mn728 2.385 . S
O752 C730 1.234 . S
O753 Mn728 2.209 . S
O753 Mn729 2.215 . S
O753 C730 1.283 . S
O754 Mn728 2.094 . S
O754 C732 1.240 . S
O755 Mn729 2.117 . S
O755 C732 1.264 . S
C756 C749 1.403 . S
C756 C757 1.399 . S
C756 H762 0.929 . S
C757 C737 1.449 . S
C757 C756 1.399 . S
C757 H763 0.930 . S
H758 C738 0.931 . S
H759 C739 0.930 . S
H760 C747 0.931 . S
H761 C748 0.929 . S
H762 C756 0.929 . S
H763 C757 0.930 . S
Mn764 O769 2.095 . S
Mn764 O779 2.162 . S
Mn764 O780 2.297 . S
Mn764 O788 2.385 1_565 S
Mn764 O789 2.209 1_565 S
Mn764 O790 2.094 . S
Mn765 O770 2.121 . S
Mn765 N772 2.257 . S
Mn765 N781 2.282 . S
Mn765 O789 2.215 . S
Mn765 O791 2.117 . S
C766 O788 1.234 . S
C766 O789 1.283 . S
C767 O779 1.281 . S
C767 O780 1.236 . S
C768 O790 1.240 1_545 S
C768 O791 1.264 . S
O769 Mn764 2.095 . S
O769 C778 1.250 1_565 S
O770 Mn765 2.121 . S
O770 C778 1.258 . S
C771 N772 1.326 . S
C771 C775 1.460 . S
C771 H777 0.929 . S
N772 Mn765 2.257 . S
N772 C771 1.326 . S
N772 C776 1.362 . S
C773 C774 1.258 . S
C773 C776 1.431 . S
C773 C793 1.449 . S
C774 C773 1.258 . S
C774 C775 1.477 . S
C774 H794 0.931 . S
C775 C771 1.460 . S
C775 C774 1.477 . S
C775 H795 0.930 . S
C776 N772 1.362 . S
C776 C773 1.431 . S
C776 C786 1.476 . S
H777 C771 0.929 . S
C778 O769 1.250 1_545 S
C778 O770 1.258 . S
O779 Mn764 2.162 . S
O779 C767 1.281 . S
O780 Mn764 2.297 . S
O780 C767 1.236 . S
N781 Mn765 2.282 . S
N781 C782 1.328 . S
N781 C786 1.318 . S
C782 N781 1.328 . S
C782 C783 1.457 . S
C782 H787 0.929 . S
C783 C782 1.457 . S
C783 C784 1.291 . S
C783 H796 0.931 . S
C784 C783 1.291 . S
C784 C785 1.373 . S
C784 H797 0.929 . S
C785 C784 1.373 . S
C785 C786 1.396 . S
C785 C792 1.403 . S
C786 C776 1.476 . S
C786 N781 1.318 . S
C786 C785 1.396 . S
H787 C782 0.929 . S
O788 Mn764 2.385 1_545 S
O788 C766 1.234 . S
O789 Mn764 2.209 1_545 S
O789 Mn765 2.215 . S
O789 C766 1.283 . S
O790 Mn764 2.094 . S
O790 C768 1.240 1_565 S
O791 Mn765 2.117 . S
O791 C768 1.264 . S
C792 C785 1.403 . S
C792 C793 1.399 . S
C792 H798 0.929 . S
C793 C773 1.449 . S
C793 C792 1.399 . S
C793 H799 0.930 . S
H794 C774 0.931 . S
H795 C775 0.930 . S
H796 C783 0.931 . S
H797 C784 0.929 . S
H798 C792 0.929 . S
H799 C793 0.930 . S
Mn800 O805 2.095 . S
Mn800 O815 2.162 . S
Mn800 O816 2.297 . S
Mn800 O824 2.385 1_455 S
Mn800 O825 2.209 1_455 S
Mn800 O826 2.094 . S
Mn801 O806 2.121 . S
Mn801 N808 2.257 . S
Mn801 N817 2.282 . S
Mn801 O825 2.215 . S
Mn801 O827 2.117 . S
C802 O824 1.234 . S
C802 O825 1.283 . S
C803 O815 1.281 . S
C803 O816 1.236 . S
C804 O826 1.240 . S
C804 O827 1.264 1_455 S
O805 Mn800 2.095 . S
O805 C814 1.250 1_455 S
O806 Mn801 2.121 . S
O806 C814 1.258 . S
C807 N808 1.326 . S
C807 C811 1.460 . S
C807 H813 0.929 . S
N808 Mn801 2.257 . S
N808 C807 1.326 . S
N808 C812 1.362 . S
C809 C810 1.258 . S
C809 C812 1.431 . S
C809 C829 1.449 . S
C810 C809 1.258 . S
C810 C811 1.477 . S
C810 H830 0.931 . S
C811 C807 1.460 . S
C811 C810 1.477 . S
C811 H831 0.930 . S
C812 N808 1.362 . S
C812 C809 1.431 . S
C812 C822 1.476 . S
H813 C807 0.929 . S
C814 O805 1.250 1_655 S
C814 O806 1.258 . S
O815 Mn800 2.162 . S
O815 C803 1.281 . S
O816 Mn800 2.297 . S
O816 C803 1.236 . S
N817 Mn801 2.282 . S
N817 C818 1.328 . S
N817 C822 1.318 . S
C818 N817 1.328 . S
C818 C819 1.457 . S
C818 H823 0.929 . S
C819 C818 1.457 . S
C819 C820 1.291 . S
C819 H832 0.931 . S
C820 C819 1.291 . S
C820 C821 1.373 . S
C820 H833 0.929 . S
C821 C820 1.373 . S
C821 C822 1.396 . S
C821 C828 1.403 . S
C822 C812 1.476 . S
C822 N817 1.318 . S
C822 C821 1.396 . S
H823 C818 0.929 . S
O824 Mn800 2.385 1_655 S
O824 C802 1.234 . S
O825 Mn800 2.209 1_655 S
O825 Mn801 2.215 . S
O825 C802 1.283 . S
O826 Mn800 2.094 . S
O826 C804 1.240 . S
O827 Mn801 2.117 . S
O827 C804 1.264 1_655 S
C828 C821 1.403 . S
C828 C829 1.399 . S
C828 H834 0.929 . S
C829 C809 1.449 . S
C829 C828 1.399 . S
C829 H835 0.930 . S
H830 C810 0.931 . S
H831 C811 0.930 . S
H832 C819 0.931 . S
H833 C820 0.929 . S
H834 C828 0.929 . S
H835 C829 0.930 . S
Mn836 O841 2.095 . S
Mn836 O851 2.162 . S
Mn836 O852 2.297 . S
Mn836 O860 2.385 . S
Mn836 O861 2.209 . S
Mn836 O862 2.094 . S
Mn837 O842 2.121 . S
Mn837 N844 2.257 . S
Mn837 N853 2.282 . S
Mn837 O861 2.215 . S
Mn837 O863 2.117 . S
C838 O860 1.234 . S
C838 O861 1.283 . S
C839 O851 1.281 . S
C839 O852 1.236 . S
C840 O862 1.240 . S
C840 O863 1.264 . S
O841 Mn836 2.095 . S
O841 C850 1.250 . S
O842 Mn837 2.121 . S
O842 C850 1.258 . S
C843 N844 1.326 . S
C843 C847 1.460 . S
C843 H849 0.929 . S
N844 Mn837 2.257 . S
N844 C843 1.326 . S
N844 C848 1.362 . S
C845 C846 1.258 . S
C845 C848 1.431 . S
C845 C865 1.449 . S
C846 C845 1.258 . S
C846 C847 1.477 . S
C846 H866 0.931 . S
C847 C843 1.460 . S
C847 C846 1.477 . S
C847 H867 0.930 . S
C848 N844 1.362 . S
C848 C845 1.431 . S
C848 C858 1.476 . S
H849 C843 0.929 . S
C850 O841 1.250 . S
C850 O842 1.258 . S
O851 Mn836 2.162 . S
O851 C839 1.281 . S
O852 Mn836 2.297 . S
O852 C839 1.236 . S
N853 Mn837 2.282 . S
N853 C854 1.328 . S
N853 C858 1.318 . S
C854 N853 1.328 . S
C854 C855 1.457 . S
C854 H859 0.929 . S
C855 C854 1.457 . S
C855 C856 1.291 . S
C855 H868 0.931 . S
C856 C855 1.291 . S
C856 C857 1.373 . S
C856 H869 0.929 . S
C857 C856 1.373 . S
C857 C858 1.396 . S
C857 C864 1.403 . S
C858 C848 1.476 . S
C858 N853 1.318 . S
C858 C857 1.396 . S
H859 C854 0.929 . S
O860 Mn836 2.385 . S
O860 C838 1.234 . S
O861 Mn836 2.209 . S
O861 Mn837 2.215 . S
O861 C838 1.283 . S
O862 Mn836 2.094 . S
O862 C840 1.240 . S
O863 Mn837 2.117 . S
O863 C840 1.264 . S
C864 C857 1.403 . S
C864 C865 1.399 . S
C864 H870 0.929 . S
C865 C845 1.449 . S
C865 C864 1.399 . S
C865 H871 0.930 . S
H866 C846 0.931 . S
H867 C847 0.930 . S
H868 C855 0.931 . S
H869 C856 0.929 . S
H870 C864 0.929 . S
H871 C865 0.930 . S
Mn872 O877 2.095 1_455 S
Mn872 O887 2.162 . S
Mn872 O888 2.297 1_455 S
Mn872 O896 2.385 . S
Mn872 O897 2.209 1_455 S
Mn872 O898 2.094 . S
Mn873 O878 2.121 . S
Mn873 N880 2.257 . S
Mn873 N889 2.282 . S
Mn873 O897 2.215 . S
Mn873 O899 2.117 1_655 S
C874 O896 1.234 . S
C874 O897 1.283 1_455 S
C875 O887 1.281 . S
C875 O888 1.236 1_455 S
C876 O898 1.240 . S
C876 O899 1.264 . S
O877 Mn872 2.095 1_655 S
O877 C886 1.250 . S
O878 Mn873 2.121 . S
O878 C886 1.258 . S
C879 N880 1.326 . S
C879 C883 1.460 . S
C879 H885 0.929 . S
N880 Mn873 2.257 . S
N880 C879 1.326 . S
N880 C884 1.362 . S
C881 C882 1.258 . S
C881 C884 1.431 . S
C881 C901 1.449 . S
C882 C881 1.258 . S
C882 C883 1.477 . S
C882 H902 0.931 . S
C883 C879 1.460 . S
C883 C882 1.477 . S
C883 H903 0.930 . S
C884 N880 1.362 . S
C884 C881 1.431 . S
C884 C894 1.476 . S
H885 C879 0.929 . S
C886 O877 1.250 . S
C886 O878 1.258 . S
O887 Mn872 2.162 . S
O887 C875 1.281 . S
O888 Mn872 2.297 1_655 S
O888 C875 1.236 1_655 S
N889 Mn873 2.282 . S
N889 C890 1.328 1_655 S
N889 C894 1.318 . S
C890 N889 1.328 1_455 S
C890 C891 1.457 . S
C890 H895 0.929 . S
C891 C890 1.457 . S
C891 C892 1.291 . S
C891 H904 0.931 . S
C892 C891 1.291 . S
C892 C893 1.373 1_455 S
C892 H905 0.929 . S
C893 C892 1.373 1_655 S
C893 C894 1.396 . S
C893 C900 1.403 . S
C894 C884 1.476 . S
C894 N889 1.318 . S
C894 C893 1.396 . S
H895 C890 0.929 . S
O896 Mn872 2.385 . S
O896 C874 1.234 . S
O897 Mn872 2.209 1_655 S
O897 Mn873 2.215 . S
O897 C874 1.283 1_655 S
O898 Mn872 2.094 . S
O898 C876 1.240 . S
O899 Mn873 2.117 1_455 S
O899 C876 1.264 . S
C900 C893 1.403 . S
C900 C901 1.399 . S
C900 H906 0.929 . S
C901 C881 1.449 . S
C901 C900 1.399 . S
C901 H907 0.930 . S
H902 C882 0.931 . S
H903 C883 0.930 . S
H904 C891 0.931 . S
H905 C892 0.929 . S
H906 C900 0.929 . S
H907 C901 0.930 . S
Mn908 O913 2.095 . S
Mn908 O923 2.162 . S
Mn908 O924 2.297 . S
Mn908 O932 2.385 . S
Mn908 O933 2.209 . S
Mn908 O934 2.094 . S
Mn909 O914 2.121 . S
Mn909 N916 2.257 . S
Mn909 N925 2.282 . S
Mn909 O933 2.215 . S
Mn909 O935 2.117 . S
C910 O932 1.234 . S
C910 O933 1.283 . S
C911 O923 1.281 . S
C911 O924 1.236 . S
C912 O934 1.240 . S
C912 O935 1.264 . S
O913 Mn908 2.095 . S
O913 C922 1.250 . S
O914 Mn909 2.121 . S
O914 C922 1.258 . S
C915 N916 1.326 . S
C915 C919 1.460 . S
C915 H921 0.929 . S
N916 Mn909 2.257 . S
N916 C915 1.326 . S
N916 C920 1.362 . S
C917 C918 1.258 . S
C917 C920 1.431 . S
C917 C937 1.449 . S
C918 C917 1.258 . S
C918 C919 1.477 . S
C918 H938 0.931 . S
C919 C915 1.460 . S
C919 C918 1.477 . S
C919 H939 0.930 . S
C920 N916 1.362 . S
C920 C917 1.431 . S
C920 C930 1.476 . S
H921 C915 0.929 . S
C922 O913 1.250 . S
C922 O914 1.258 . S
O923 Mn908 2.162 . S
O923 C911 1.281 . S
O924 Mn908 2.297 . S
O924 C911 1.236 . S
N925 Mn909 2.282 . S
N925 C926 1.328 . S
N925 C930 1.318 . S
C926 N925 1.328 . S
C926 C927 1.457 . S
C926 H931 0.929 . S
C927 C926 1.457 . S
C927 C928 1.291 . S
C927 H940 0.931 . S
C928 C927 1.291 . S
C928 C929 1.373 . S
C928 H941 0.929 . S
C929 C928 1.373 . S
C929 C930 1.396 . S
C929 C936 1.403 . S
C930 C920 1.476 . S
C930 N925 1.318 . S
C930 C929 1.396 . S
H931 C926 0.929 . S
O932 Mn908 2.385 . S
O932 C910 1.234 . S
O933 Mn908 2.209 . S
O933 Mn909 2.215 . S
O933 C910 1.283 . S
O934 Mn908 2.094 . S
O934 C912 1.240 . S
O935 Mn909 2.117 . S
O935 C912 1.264 . S
C936 C929 1.403 . S
C936 C937 1.399 . S
C936 H942 0.929 . S
C937 C917 1.449 . S
C937 C936 1.399 . S
C937 H943 0.930 . S
H938 C918 0.931 . S
H939 C919 0.930 . S
H940 C927 0.931 . S
H941 C928 0.929 . S
H942 C936 0.929 . S
H943 C937 0.930 . S
C944 C945 1.387 . S
C944 H948 0.950 . S
C944 C953 1.390 . S
C945 C944 1.387 . S
C945 C947 1.387 . S
H946 C953 0.950 . S
C947 C945 1.387 . S
C947 C949 1.390 . S
C947 H951 0.950 . S
H948 C944 0.950 . S
C949 C947 1.390 . S
C949 C950 1.387 . S
C949 H952 0.950 . S
C950 C949 1.387 . S
C950 C953 1.387 . S
H951 C947 0.950 . S
H952 C949 0.950 . S
C953 C944 1.390 . S
C953 H946 0.950 . S
C953 C950 1.387 . S
C954 C955 1.387 . S
C954 H958 0.950 . S
C954 C963 1.390 . S
C955 C954 1.387 . S
C955 C957 1.387 . S
H956 C963 0.950 . S
C957 C955 1.387 . S
C957 C959 1.390 . S
C957 H961 0.950 . S
H958 C954 0.950 . S
C959 C957 1.390 . S
C959 C960 1.387 . S
C959 H962 0.950 . S
C960 C959 1.387 . S
C960 C963 1.387 . S
H961 C957 0.950 . S
H962 C959 0.950 . S
C963 C954 1.390 . S
C963 H956 0.950 . S
C963 C960 1.387 . S
C964 C965 1.387 . S
C964 H968 0.950 . S
C964 C973 1.390 . S
C965 C964 1.387 . S
C965 C967 1.387 . S
H966 C973 0.950 . S
C967 C965 1.387 . S
C967 C969 1.390 . S
C967 H971 0.950 . S
H968 C964 0.950 . S
C969 C967 1.390 . S
C969 C970 1.387 . S
C969 H972 0.950 . S
C970 C969 1.387 . S
C970 C973 1.387 . S
H971 C967 0.950 . S
H972 C969 0.950 . S
C973 C964 1.390 . S
C973 H966 0.950 . S
C973 C970 1.387 . S
C974 C975 1.387 . S
C974 H978 0.950 . S
C974 C983 1.390 . S
C975 C974 1.387 . S
C975 C977 1.387 1_565 S
H976 C983 0.950 . S
C977 C975 1.387 1_545 S
C977 C979 1.390 . S
C977 H981 0.950 . S
H978 C974 0.950 . S
C979 C977 1.390 . S
C979 C980 1.387 1_545 S
C979 H982 0.950 . S
C980 C979 1.387 1_565 S
C980 C983 1.387 . S
H981 C977 0.950 . S
H982 C979 0.950 . S
C983 C974 1.390 . S
C983 H976 0.950 . S
C983 C980 1.387 . S
C984 C985 1.387 . S
C984 H988 0.950 . S
C984 C993 1.390 . S
C985 C984 1.387 . S
C985 C987 1.387 . S
H986 C993 0.950 . S
C987 C985 1.387 . S
C987 C989 1.390 . S
C987 H991 0.950 . S
H988 C984 0.950 . S
C989 C987 1.390 . S
C989 C990 1.387 . S
C989 H992 0.950 . S
C990 C989 1.387 . S
C990 C993 1.387 . S
H991 C987 0.950 . S
H992 C989 0.950 . S
C993 C984 1.390 . S
C993 H986 0.950 . S
C993 C990 1.387 . S
C994 C995 1.387 . S
C994 H998 0.950 . S
C994 C1003 1.390 . S
C995 C994 1.387 . S
C995 C997 1.387 . S
H996 C1003 0.950 . S
C997 C995 1.387 . S
C997 C999 1.390 . S
C997 H1001 0.950 . S
H998 C994 0.950 . S
C999 C997 1.390 . S
C999 C1000 1.387 . S
C999 H1002 0.950 . S
C1000 C999 1.387 . S
C1000 C1003 1.387 . S
H1001 C997 0.950 . S
H1002 C999 0.950 . S
C1003 C994 1.390 . S
C1003 H996 0.950 . S
C1003 C1000 1.387 . S
C1004 C1005 1.387 . S
C1004 H1008 0.950 . S
C1004 C1013 1.390 . S
C1005 C1004 1.387 . S
C1005 C1007 1.387 . S
H1006 C1013 0.950 . S
C1007 C1005 1.387 . S
C1007 C1009 1.390 . S
C1007 H1011 0.950 . S
H1008 C1004 0.950 . S
C1009 C1007 1.390 . S
C1009 C1010 1.387 . S
C1009 H1012 0.950 . S
C1010 C1009 1.387 . S
C1010 C1013 1.387 . S
H1011 C1007 0.950 . S
H1012 C1009 0.950 . S
C1013 C1004 1.390 . S
C1013 H1006 0.950 . S
C1013 C1010 1.387 . S
C1014 C1015 1.387 1_545 S
C1014 H1018 0.950 . S
C1014 C1023 1.390 . S
C1015 C1014 1.387 1_565 S
C1015 C1017 1.387 . S
H1016 C1023 0.950 . S
C1017 C1015 1.387 . S
C1017 C1019 1.390 . S
C1017 H1021 0.950 . S
H1018 C1014 0.950 . S
C1019 C1017 1.390 . S
C1019 C1020 1.387 . S
C1019 H1022 0.950 . S
C1020 C1019 1.387 . S
C1020 C1023 1.387 1_565 S
H1021 C1017 0.950 . S
H1022 C1019 0.950 . S
C1023 C1014 1.390 . S
C1023 H1016 0.950 . S
C1023 C1020 1.387 1_545 S
C1024 C1025 1.387 . S
C1024 H1028 0.950 . S
C1024 C1033 1.390 . S
C1025 C1024 1.387 . S
C1025 C1027 1.387 . S
H1026 C1033 0.950 . S
C1027 C1025 1.387 . S
C1027 C1029 1.390 . S
C1027 H1031 0.950 . S
H1028 C1024 0.950 . S
C1029 C1027 1.390 . S
C1029 C1030 1.387 . S
C1029 H1032 0.950 . S
C1030 C1029 1.387 . S
C1030 C1033 1.387 . S
H1031 C1027 0.950 . S
H1032 C1029 0.950 . S
C1033 C1024 1.390 . S
C1033 H1026 0.950 . S
C1033 C1030 1.387 . S
C1034 C1035 1.387 . S
C1034 H1038 0.950 . S
C1034 C1043 1.390 . S
C1035 C1034 1.387 . S
C1035 C1037 1.387 . S
H1036 C1043 0.950 . S
C1037 C1035 1.387 . S
C1037 C1039 1.390 . S
C1037 H1041 0.950 . S
H1038 C1034 0.950 . S
C1039 C1037 1.390 . S
C1039 C1040 1.387 . S
C1039 H1042 0.950 . S
C1040 C1039 1.387 . S
C1040 C1043 1.387 . S
H1041 C1037 0.950 . S
H1042 C1039 0.950 . S
C1043 C1034 1.390 . S
C1043 H1036 0.950 . S
C1043 C1040 1.387 . S
C1044 C1045 1.387 . S
C1044 H1048 0.950 . S
C1044 C1053 1.390 . S
C1045 C1044 1.387 . S
C1045 C1047 1.387 . S
H1046 C1053 0.950 . S
C1047 C1045 1.387 . S
C1047 C1049 1.390 . S
C1047 H1051 0.950 . S
H1048 C1044 0.950 . S
C1049 C1047 1.390 . S
C1049 C1050 1.387 . S
C1049 H1052 0.950 . S
C1050 C1049 1.387 . S
C1050 C1053 1.387 . S
H1051 C1047 0.950 . S
H1052 C1049 0.950 . S
C1053 C1044 1.390 . S
C1053 H1046 0.950 . S
C1053 C1050 1.387 . S
C1054 C1055 1.387 . S
C1054 H1058 0.950 . S
C1054 C1063 1.390 . S
C1055 C1054 1.387 . S
C1055 C1057 1.387 . S
H1056 C1063 0.950 . S
C1057 C1055 1.387 . S
C1057 C1059 1.390 . S
C1057 H1061 0.950 . S
H1058 C1054 0.950 . S
C1059 C1057 1.390 . S
C1059 C1060 1.387 . S
C1059 H1062 0.950 . S
C1060 C1059 1.387 . S
C1060 C1063 1.387 . S
H1061 C1057 0.950 . S
H1062 C1059 0.950 . S
C1063 C1054 1.390 . S
C1063 H1056 0.950 . S
C1063 C1060 1.387 . S
C1064 C1065 1.387 . S
C1064 H1068 0.950 . S
C1064 C1073 1.390 . S
C1065 C1064 1.387 . S
C1065 C1067 1.387 . S
H1066 C1073 0.950 . S
C1067 C1065 1.387 . S
C1067 C1069 1.390 . S
C1067 H1071 0.950 . S
H1068 C1064 0.950 . S
C1069 C1067 1.390 . S
C1069 C1070 1.387 . S
C1069 H1072 0.950 . S
C1070 C1069 1.387 . S
C1070 C1073 1.387 . S
H1071 C1067 0.950 . S
H1072 C1069 0.950 . S
C1073 C1064 1.390 . S
C1073 H1066 0.950 . S
C1073 C1070 1.387 . S
C1074 C1075 1.387 . S
C1074 H1078 0.957 . S
C1074 C1083 1.390 . S
C1075 C1074 1.387 . S
C1075 C1077 1.387 . S
H1076 C1083 0.950 1_655 S
C1077 C1075 1.387 . S
C1077 C1079 1.390 . S
C1077 H1081 0.950 . S
H1078 C1074 0.957 . S
C1079 C1077 1.390 . S
C1079 C1080 1.387 . S
C1079 H1082 0.950 . S
C1080 C1079 1.387 . S
C1080 C1083 1.387 . S
H1081 C1077 0.950 . S
H1082 C1079 0.950 . S
C1083 C1074 1.390 . S
C1083 H1076 0.950 1_455 S
C1083 C1080 1.387 . S
C1084 C1085 1.387 . S
C1084 H1088 0.950 . S
C1084 C1093 1.390 . S
C1085 C1084 1.387 . S
C1085 C1087 1.387 . S
H1086 C1093 0.950 . S
C1087 C1085 1.387 . S
C1087 C1089 1.390 . S
C1087 H1091 0.950 . S
H1088 C1084 0.950 . S
C1089 C1087 1.390 . S
C1089 C1090 1.387 . S
C1089 H1092 0.950 . S
C1090 C1089 1.387 . S
C1090 C1093 1.387 . S
H1091 C1087 0.950 . S
H1092 C1089 0.950 . S
C1093 C1084 1.390 . S
C1093 H1086 0.950 . S
C1093 C1090 1.387 . S
C1094 C1095 1.387 1_455 S
C1094 H1098 0.950 . S
C1094 C1103 1.390 . S
C1095 C1094 1.387 1_655 S
C1095 C1097 1.387 . S
H1096 C1103 0.950 . S
C1097 C1095 1.387 . S
C1097 C1099 1.390 . S
C1097 H1101 0.950 . S
H1098 C1094 0.950 . S
C1099 C1097 1.390 . S
C1099 C1100 1.387 . S
C1099 H1102 0.950 . S
C1100 C1099 1.387 . S
C1100 C1103 1.387 1_655 S
H1101 C1097 0.950 . S
H1102 C1099 0.950 . S
C1103 C1094 1.390 . S
C1103 H1096 0.950 . S
C1103 C1100 1.387 1_455 S
C1104 C1105 1.387 . S
C1104 H1108 0.950 . S
C1104 C1113 1.390 . S
C1105 C1104 1.387 . S
C1105 C1107 1.387 . S
H1106 C1113 0.950 . S
C1107 C1105 1.387 . S
C1107 C1109 1.390 . S
C1107 H1111 0.950 . S
H1108 C1104 0.950 . S
C1109 C1107 1.390 . S
C1109 C1110 1.387 . S
C1109 H1112 0.950 . S
C1110 C1109 1.387 . S
C1110 C1113 1.387 . S
H1111 C1107 0.950 . S
H1112 C1109 0.950 . S
C1113 C1104 1.390 . S
C1113 H1106 0.950 . S
C1113 C1110 1.387 . S
C1114 C1115 1.387 . S
C1114 H1118 0.950 . S
C1114 C1123 1.390 . S
C1115 C1114 1.387 . S
C1115 C1117 1.387 . S
H1116 C1123 0.950 . S
C1117 C1115 1.387 . S
C1117 C1119 1.390 . S
C1117 H1121 0.950 . S
H1118 C1114 0.950 . S
C1119 C1117 1.390 . S
C1119 C1120 1.387 . S
C1119 H1122 0.950 . S
C1120 C1119 1.387 . S
C1120 C1123 1.387 . S
H1121 C1117 0.950 . S
H1122 C1119 0.950 . S
C1123 C1114 1.390 . S
C1123 H1116 0.950 . S
C1123 C1120 1.387 . S
C1124 C1125 1.387 1_554 S
C1124 H1128 0.950 . S
C1124 C1133 1.390 . S
C1125 C1124 1.387 1_556 S
C1125 C1127 1.387 . S
H1126 C1133 0.950 . S
C1127 C1125 1.387 . S
C1127 C1129 1.390 . S
C1127 H1131 0.950 . S
H1128 C1124 0.950 . S
C1129 C1127 1.390 . S
C1129 C1130 1.387 1_556 S
C1129 H1132 0.950 . S
C1130 C1129 1.387 1_554 S
C1130 C1133 1.387 . S
H1131 C1127 0.950 . S
H1132 C1129 0.950 . S
C1133 C1124 1.390 . S
C1133 H1126 0.950 . S
C1133 C1130 1.387 . S
C1134 C1135 1.387 . S
C1134 H1138 0.950 . S
C1134 C1143 1.390 . S
C1135 C1134 1.387 . S
C1135 C1137 1.387 . S
H1136 C1143 0.950 . S
C1137 C1135 1.387 . S
C1137 C1139 1.390 . S
C1137 H1141 0.950 . S
H1138 C1134 0.950 . S
C1139 C1137 1.390 . S
C1139 C1140 1.387 . S
C1139 H1142 0.950 . S
C1140 C1139 1.387 . S
C1140 C1143 1.387 . S
H1141 C1137 0.950 . S
H1142 C1139 0.950 . S
C1143 C1134 1.390 . S
C1143 H1136 0.950 . S
C1143 C1140 1.387 . S
C1144 C1145 1.387 . S
C1144 H1148 0.950 . S
C1144 C1153 1.390 . S
C1145 C1144 1.387 . S
C1145 C1147 1.387 . S
H1146 C1153 0.950 . S
C1147 C1145 1.387 . S
C1147 C1149 1.390 . S
C1147 H1151 0.950 . S
H1148 C1144 0.950 . S
C1149 C1147 1.390 . S
C1149 C1150 1.387 . S
C1149 H1152 0.950 . S
C1150 C1149 1.387 . S
C1150 C1153 1.387 . S
H1151 C1147 0.950 . S
H1152 C1149 0.950 . S
C1153 C1144 1.390 . S
C1153 H1146 0.950 . S
C1153 C1150 1.387 . S
C1154 C1155 1.387 . S
C1154 H1158 0.950 . S
C1154 C1163 1.390 . S
C1155 C1154 1.387 . S
C1155 C1157 1.387 . S
H1156 C1163 0.950 . S
C1157 C1155 1.387 . S
C1157 C1159 1.390 . S
C1157 H1161 0.950 . S
H1158 C1154 0.950 . S
C1159 C1157 1.390 . S
C1159 C1160 1.387 . S
C1159 H1162 0.950 . S
C1160 C1159 1.387 . S
C1160 C1163 1.387 . S
H1161 C1157 0.950 . S
H1162 C1159 0.950 . S
C1163 C1154 1.390 . S
C1163 H1156 0.950 . S
C1163 C1160 1.387 . S
C1164 C1165 1.387 . S
C1164 H1168 0.950 . S
C1164 C1173 1.390 . S
C1165 C1164 1.387 . S
C1165 C1167 1.387 . S
H1166 C1173 0.950 . S
C1167 C1165 1.387 . S
C1167 C1169 1.390 . S
C1167 H1171 0.950 . S
H1168 C1164 0.950 . S
C1169 C1167 1.390 . S
C1169 C1170 1.387 . S
C1169 H1172 0.950 . S
C1170 C1169 1.387 . S
C1170 C1173 1.387 . S
H1171 C1167 0.950 . S
H1172 C1169 0.950 . S
C1173 C1164 1.390 . S
C1173 H1166 0.950 . S
C1173 C1170 1.387 . S
C1174 C1175 1.387 . S
C1174 H1178 0.950 . S
C1174 C1183 1.390 . S
C1175 C1174 1.387 . S
C1175 C1177 1.387 . S
H1176 C1183 0.950 . S
C1177 C1175 1.387 . S
C1177 C1179 1.390 . S
C1177 H1181 0.950 . S
H1178 C1174 0.950 . S
C1179 C1177 1.390 . S
C1179 C1180 1.387 . S
C1179 H1182 0.950 . S
C1180 C1179 1.387 . S
C1180 C1183 1.387 . S
H1181 C1177 0.950 . S
H1182 C1179 0.950 . S
C1183 C1174 1.390 . S
C1183 H1176 0.950 . S
C1183 C1180 1.387 . S
C1184 C1185 1.387 . S
C1184 H1188 0.950 . S
C1184 C1193 1.390 . S
C1185 C1184 1.387 . S
C1185 C1187 1.387 . S
H1186 C1193 0.950 . S
C1187 C1185 1.387 . S
C1187 C1189 1.390 . S
C1187 H1191 0.950 . S
H1188 C1184 0.950 . S
C1189 C1187 1.390 . S
C1189 C1190 1.387 . S
C1189 H1192 0.950 . S
C1190 C1189 1.387 . S
C1190 C1193 1.387 . S
H1191 C1187 0.950 . S
H1192 C1189 0.950 . S
C1193 C1184 1.390 . S
C1193 H1186 0.950 . S
C1193 C1190 1.387 . S
C1194 C1195 1.387 . S
C1194 H1198 0.950 . S
C1194 C1203 1.390 . S
C1195 C1194 1.387 . S
C1195 C1197 1.387 1_545 S
H1196 C1203 0.950 . S
C1197 C1195 1.387 1_565 S
C1197 C1199 1.390 . S
C1197 H1201 0.950 . S
H1198 C1194 0.950 . S
C1199 C1197 1.390 . S
C1199 C1200 1.387 1_565 S
C1199 H1202 0.950 . S
C1200 C1199 1.387 1_545 S
C1200 C1203 1.387 . S
H1201 C1197 0.950 . S
H1202 C1199 0.950 . S
C1203 C1194 1.390 . S
C1203 H1196 0.950 . S
C1203 C1200 1.387 . S
C1204 C1205 1.387 . S
C1204 H1208 0.950 . S
C1204 C1213 1.390 . S
C1205 C1204 1.387 . S
C1205 C1207 1.387 . S
H1206 C1213 0.950 . S
C1207 C1205 1.387 . S
C1207 C1209 1.390 . S
C1207 H1211 0.950 . S
H1208 C1204 0.950 . S
C1209 C1207 1.390 . S
C1209 C1210 1.387 . S
C1209 H1212 0.950 . S
C1210 C1209 1.387 . S
C1210 C1213 1.387 . S
H1211 C1207 0.950 . S
H1212 C1209 0.950 . S
C1213 C1204 1.390 . S
C1213 H1206 0.950 . S
C1213 C1210 1.387 . S
C1214 C1215 1.387 . S
C1214 H1218 0.950 . S
C1214 C1223 1.390 . S
C1215 C1214 1.387 . S
C1215 C1217 1.387 . S
H1216 C1223 0.950 . S
C1217 C1215 1.387 . S
C1217 C1219 1.390 . S
C1217 H1221 0.950 . S
H1218 C1214 0.950 . S
C1219 C1217 1.390 . S
C1219 C1220 1.387 . S
C1219 H1222 0.950 . S
C1220 C1219 1.387 . S
C1220 C1223 1.387 . S
H1221 C1217 0.950 . S
H1222 C1219 0.950 . S
C1223 C1214 1.390 . S
C1223 H1216 0.950 . S
C1223 C1220 1.387 . S
C1224 C1225 1.387 . S
C1224 H1228 0.950 . S
C1224 C1233 1.390 . S
C1225 C1224 1.387 . S
C1225 C1227 1.387 . S
H1226 C1233 0.950 . S
C1227 C1225 1.387 . S
C1227 C1229 1.390 . S
C1227 H1231 0.950 . S
H1228 C1224 0.950 . S
C1229 C1227 1.390 . S
C1229 C1230 1.387 . S
C1229 H1232 0.950 . S
C1230 C1229 1.387 . S
C1230 C1233 1.387 . S
H1231 C1227 0.950 . S
H1232 C1229 0.950 . S
C1233 C1224 1.390 . S
C1233 H1226 0.950 . S
C1233 C1230 1.387 . S
C1234 C1235 1.387 . S
C1234 H1238 0.950 . S
C1234 C1243 1.390 . S
C1235 C1234 1.387 . S
C1235 C1237 1.387 1_545 S
H1236 C1243 0.950 . S
C1237 C1235 1.387 1_565 S
C1237 C1239 1.390 . S
C1237 H1241 0.950 . S
H1238 C1234 0.950 . S
C1239 C1237 1.390 . S
C1239 C1240 1.387 1_565 S
C1239 H1242 0.950 . S
C1240 C1239 1.387 1_545 S
C1240 C1243 1.387 . S
H1241 C1237 0.950 . S
H1242 C1239 0.950 . S
C1243 C1234 1.390 . S
C1243 H1236 0.950 . S
C1243 C1240 1.387 . S
C1244 C1245 1.387 . S
C1244 H1248 0.950 . S
C1244 C1253 1.390 . S
C1245 C1244 1.387 . S
C1245 C1247 1.387 . S
H1246 C1253 0.950 . S
C1247 C1245 1.387 . S
C1247 C1249 1.390 . S
C1247 H1251 0.950 . S
H1248 C1244 0.950 . S
C1249 C1247 1.390 . S
C1249 C1250 1.387 . S
C1249 H1252 0.950 . S
C1250 C1249 1.387 . S
C1250 C1253 1.387 . S
H1251 C1247 0.950 . S
H1252 C1249 0.950 . S
C1253 C1244 1.390 . S
C1253 H1246 0.950 . S
C1253 C1250 1.387 . S
C1254 C1255 1.387 . S
C1254 H1258 0.950 . S
C1254 C1263 1.390 . S
C1255 C1254 1.387 . S
C1255 C1257 1.387 . S
H1256 C1263 0.950 . S
C1257 C1255 1.387 . S
C1257 C1259 1.390 . S
C1257 H1261 0.950 . S
H1258 C1254 0.950 . S
C1259 C1257 1.390 . S
C1259 C1260 1.387 . S
C1259 H1262 0.950 . S
C1260 C1259 1.387 . S
C1260 C1263 1.387 . S
H1261 C1257 0.950 . S
H1262 C1259 0.950 . S
C1263 C1254 1.390 . S
C1263 H1256 0.950 . S
C1263 C1260 1.387 . S
C1264 C1265 1.387 . S
C1264 H1268 0.950 . S
C1264 C1273 1.390 . S
C1265 C1264 1.387 . S
C1265 C1267 1.387 . S
H1266 C1273 0.950 . S
C1267 C1265 1.387 . S
C1267 C1269 1.390 . S
C1267 H1271 0.950 . S
H1268 C1264 0.950 . S
C1269 C1267 1.390 . S
C1269 C1270 1.387 . S
C1269 H1272 0.950 . S
C1270 C1269 1.387 . S
C1270 C1273 1.387 . S
H1271 C1267 0.950 . S
H1272 C1269 0.950 . S
C1273 C1264 1.390 . S
C1273 H1266 0.950 . S
C1273 C1270 1.387 . S
C1274 C1275 1.387 1_455 S
C1274 H1278 0.950 . S
C1274 C1283 1.390 . S
C1275 C1274 1.387 1_655 S
C1275 C1277 1.387 . S
H1276 C1283 0.950 . S
C1277 C1275 1.387 . S
C1277 C1279 1.390 . S
C1277 H1281 0.950 . S
H1278 C1274 0.950 . S
C1279 C1277 1.390 . S
C1279 C1280 1.387 . S
C1279 H1282 0.950 . S
C1280 C1279 1.387 . S
C1280 C1283 1.387 1_655 S
H1281 C1277 0.950 . S
H1282 C1279 0.950 . S
C1283 C1274 1.390 . S
C1283 H1276 0.950 . S
C1283 C1280 1.387 1_455 S
C1284 C1285 1.387 . S
C1284 H1288 0.950 . S
C1284 C1293 1.390 . S
C1285 C1284 1.387 . S
C1285 C1287 1.387 . S
H1286 C1293 0.950 . S
C1287 C1285 1.387 . S
C1287 C1289 1.390 . S
C1287 H1291 0.950 . S
H1288 C1284 0.950 . S
C1289 C1287 1.390 . S
C1289 C1290 1.387 . S
C1289 H1292 0.950 . S
C1290 C1289 1.387 . S
C1290 C1293 1.387 . S
H1291 C1287 0.950 . S
H1292 C1289 0.950 . S
C1293 C1284 1.390 . S
C1293 H1286 0.950 . S
C1293 C1290 1.387 . S
C1294 C1295 1.386 1_655 S
C1294 H1298 0.950 . S
C1294 C1303 1.390 . S
C1295 C1294 1.386 1_455 S
C1295 C1297 1.387 . S
H1296 C1303 0.950 . S
C1297 C1295 1.387 . S
C1297 C1299 1.390 . S
C1297 H1301 0.950 . S
H1298 C1294 0.950 . S
C1299 C1297 1.390 . S
C1299 C1300 1.387 . S
C1299 H1302 0.950 . S
C1300 C1299 1.387 . S
C1300 C1303 1.387 1_455 S
H1301 C1297 0.950 . S
H1302 C1299 0.950 . S
C1303 C1294 1.390 . S
C1303 H1296 0.950 . S
C1303 C1300 1.387 1_655 S
C1304 C1305 1.387 . S
C1304 H1308 0.950 . S
C1304 C1313 1.390 . S
C1305 C1304 1.387 . S
C1305 C1307 1.387 . S
H1306 C1313 0.950 . S
C1307 C1305 1.387 . S
C1307 C1309 1.390 . S
C1307 H1311 0.950 . S
H1308 C1304 0.950 . S
C1309 C1307 1.390 . S
C1309 C1310 1.387 . S
C1309 H1312 0.950 . S
C1310 C1309 1.387 . S
C1310 C1313 1.387 . S
H1311 C1307 0.950 . S
H1312 C1309 0.950 . S
C1313 C1304 1.390 . S
C1313 H1306 0.950 . S
C1313 C1310 1.387 . S
C1314 C1315 1.387 . S
C1314 H1318 0.950 . S
C1314 C1323 1.390 . S
C1315 C1314 1.387 . S
C1315 C1317 1.387 . S
H1316 C1323 0.950 . S
C1317 C1315 1.387 . S
C1317 C1319 1.390 . S
C1317 H1321 0.950 . S
H1318 C1314 0.950 . S
C1319 C1317 1.390 . S
C1319 C1320 1.387 . S
C1319 H1322 0.950 . S
C1320 C1319 1.387 . S
C1320 C1323 1.387 . S
H1321 C1317 0.950 . S
H1322 C1319 0.950 . S
C1323 C1314 1.390 . S
C1323 H1316 0.950 . S
C1323 C1320 1.387 . S
C1324 C1325 1.387 . S
C1324 H1328 0.950 . S
C1324 C1333 1.390 . S
C1325 C1324 1.387 . S
C1325 C1327 1.387 . S
H1326 C1333 0.950 . S
C1327 C1325 1.387 . S
C1327 C1329 1.390 . S
C1327 H1331 0.950 . S
H1328 C1324 0.950 . S
C1329 C1327 1.390 . S
C1329 C1330 1.387 . S
C1329 H1332 0.950 . S
C1330 C1329 1.387 . S
C1330 C1333 1.387 . S
H1331 C1327 0.950 . S
H1332 C1329 0.950 . S
C1333 C1324 1.390 . S
C1333 H1326 0.950 . S
C1333 C1330 1.387 . S
C1334 C1335 1.387 . S
C1334 H1338 0.950 . S
C1334 C1343 1.390 . S
C1335 C1334 1.387 . S
C1335 C1337 1.387 . S
H1336 C1343 0.950 . S
C1337 C1335 1.387 . S
C1337 C1339 1.390 . S
C1337 H1341 0.950 . S
H1338 C1334 0.950 . S
C1339 C1337 1.390 . S
C1339 C1340 1.387 . S
C1339 H1342 0.950 . S
C1340 C1339 1.387 . S
C1340 C1343 1.387 . S
H1341 C1337 0.950 . S
H1342 C1339 0.950 . S
C1343 C1334 1.390 . S
C1343 H1336 0.950 . S
C1343 C1340 1.387 . S
C1344 C1345 1.387 . S
C1344 H1348 0.950 . S
C1344 C1353 1.390 . S
C1345 C1344 1.387 . S
C1345 C1347 1.387 . S
H1346 C1353 0.950 . S
C1347 C1345 1.387 . S
C1347 C1349 1.390 . S
C1347 H1351 0.950 . S
H1348 C1344 0.950 . S
C1349 C1347 1.390 . S
C1349 C1350 1.387 . S
C1349 H1352 0.950 . S
C1350 C1349 1.387 . S
C1350 C1353 1.387 . S
H1351 C1347 0.950 . S
H1352 C1349 0.950 . S
C1353 C1344 1.390 . S
C1353 H1346 0.950 . S
C1353 C1350 1.387 . S
C1354 C1355 1.387 . S
C1354 H1358 0.950 . S
C1354 C1363 1.390 . S
C1355 C1354 1.387 . S
C1355 C1357 1.387 . S
H1356 C1363 0.950 . S
C1357 C1355 1.387 . S
C1357 C1359 1.390 . S
C1357 H1361 0.950 . S
H1358 C1354 0.950 . S
C1359 C1357 1.390 . S
C1359 C1360 1.387 . S
C1359 H1362 0.950 . S
C1360 C1359 1.387 . S
C1360 C1363 1.387 . S
H1361 C1357 0.950 . S
H1362 C1359 0.950 . S
C1363 C1354 1.390 . S
C1363 H1356 0.950 . S
C1363 C1360 1.387 . S
C1364 C1365 1.387 . S
C1364 H1368 0.950 . S
C1364 C1373 1.390 . S
C1365 C1364 1.387 . S
C1365 C1367 1.387 . S
H1366 C1373 0.950 . S
C1367 C1365 1.387 . S
C1367 C1369 1.390 . S
C1367 H1371 0.950 . S
H1368 C1364 0.950 . S
C1369 C1367 1.390 . S
C1369 C1370 1.387 . S
C1369 H1372 0.950 . S
C1370 C1369 1.387 . S
C1370 C1373 1.387 . S
H1371 C1367 0.950 . S
H1372 C1369 0.950 . S
C1373 C1364 1.390 . S
C1373 H1366 0.950 . S
C1373 C1370 1.387 . S
C1374 C1375 1.387 . S
C1374 H1378 0.950 . S
C1374 C1383 1.390 . S
C1375 C1374 1.387 . S
C1375 C1377 1.387 . S
H1376 C1383 0.950 . S
C1377 C1375 1.387 . S
C1377 C1379 1.390 . S
C1377 H1381 0.950 . S
H1378 C1374 0.950 . S
C1379 C1377 1.390 . S
C1379 C1380 1.387 . S
C1379 H1382 0.950 . S
C1380 C1379 1.387 . S
C1380 C1383 1.387 . S
H1381 C1377 0.950 . S
H1382 C1379 0.950 . S
C1383 C1374 1.390 . S
C1383 H1376 0.950 . S
C1383 C1380 1.387 . S
C1384 C1385 1.387 1_554 S
C1384 H1388 0.950 . S
C1384 C1393 1.390 . S
C1385 C1384 1.387 1_556 S
C1385 C1387 1.387 . S
H1386 C1393 0.950 . S
C1387 C1385 1.387 . S
C1387 C1389 1.390 . S
C1387 H1391 0.950 . S
H1388 C1384 0.950 . S
C1389 C1387 1.390 . S
C1389 C1390 1.387 . S
C1389 H1392 0.950 . S
C1390 C1389 1.387 . S
C1390 C1393 1.387 1_556 S
H1391 C1387 0.950 . S
H1392 C1389 0.950 . S
C1393 C1384 1.390 . S
C1393 H1386 0.950 . S
C1393 C1390 1.387 1_554 S
C1394 C1395 1.387 . S
C1394 H1398 0.950 . S
C1394 C1403 1.390 . S
C1395 C1394 1.387 . S
C1395 C1397 1.387 . S
H1396 C1403 0.950 . S
C1397 C1395 1.387 . S
C1397 C1399 1.390 . S
C1397 H1401 0.950 . S
H1398 C1394 0.950 . S
C1399 C1397 1.390 . S
C1399 C1400 1.387 . S
C1399 H1402 0.950 . S
C1400 C1399 1.387 . S
C1400 C1403 1.387 . S
H1401 C1397 0.950 . S
H1402 C1399 0.950 . S
C1403 C1394 1.390 . S
C1403 H1396 0.950 . S
C1403 C1400 1.387 . S
C1404 C1405 1.387 1_556 S
C1404 H1408 0.950 . S
C1404 C1413 1.390 . S
C1405 C1404 1.387 1_554 S
C1405 C1407 1.387 . S
H1406 C1413 0.950 . S
C1407 C1405 1.387 . S
C1407 C1409 1.390 . S
C1407 H1411 0.950 . S
H1408 C1404 0.950 . S
C1409 C1407 1.390 . S
C1409 C1410 1.387 . S
C1409 H1412 0.950 . S
C1410 C1409 1.387 . S
C1410 C1413 1.387 1_554 S
H1411 C1407 0.950 . S
H1412 C1409 0.950 . S
C1413 C1404 1.390 . S
C1413 H1406 0.950 . S
C1413 C1410 1.387 1_556 S
C1414 C1415 1.387 . S
C1414 H1418 0.950 . S
C1414 C1423 1.390 . S
C1415 C1414 1.387 . S
C1415 C1417 1.387 1_554 S
H1416 C1423 0.950 . S
C1417 C1415 1.387 1_556 S
C1417 C1419 1.390 . S
C1417 H1421 0.950 . S
H1418 C1414 0.950 . S
C1419 C1417 1.390 . S
C1419 C1420 1.387 1_556 S
C1419 H1422 0.950 . S
C1420 C1419 1.387 1_554 S
C1420 C1423 1.387 . S
H1421 C1417 0.950 . S
H1422 C1419 0.950 . S
C1423 C1414 1.390 . S
C1423 H1416 0.950 . S
C1423 C1420 1.387 . S
C950 C514 1.445 . S
C945 C177 1.386 . S
C960 C562 1.609 . S
C955 C209 1.642 . S
C965 C253 1.434 . S
C970 C598 1.365 . S
C980 C634 1.550 . S
C975 C157 1.557 . S
C990 C660 1.502 . S
C985 C343 1.521 . S
C1000 C696 1.550 . S
C995 C401 1.507 . S
C1005 C369 1.537 . S
C1010 C731 1.542 . S
C1020 C768 1.586 1_565 S
C1015 C317 1.564 . S
C1025 C375 1.499 . S
C1030 C802 1.474 . S
C1040 C850 1.564 . S
C1035 C305 1.599 . S
C1045 C349 1.508 . S
C1050 C803 1.504 . S
C1060 C840 1.586 . S
C1055 C413 1.536 . S
C1065 C241 1.479 . S
C1070 C886 1.415 . S
C1075 C151 1.530 . S
C1080 C875 1.566 . S
C1085 C189 1.429 . S
C1090 C876 1.517 . S
C1095 C215 1.594 . S
C1100 C874 1.602 1_655 S
C1105 C113 1.499 . S
C1110 C622 1.466 . S
C1115 C471 1.391 . S
C1120 C623 1.480 . S
C1130 C526 1.574 . S
C1125 C509 1.596 . S
C1140 C551 1.494 . S
C1135 C279 1.491 . S
C1145 C145 1.530 . S
C1150 C658 1.565 . S
C1160 C766 1.526 . S
C1155 C381 1.557 . S
C1170 C659 1.577 . S
C1165 C311 1.565 . S
C1180 C732 1.574 . S
C1175 C407 1.531 . S
C1190 C730 1.446 . S
C1185 C465 1.386 . S
C1195 C497 1.642 . S
C1200 C778 1.609 . S
C1205 C285 1.433 . S
C1210 C670 1.367 . S
C1220 C706 1.550 . S
C1215 C445 1.559 . S
C1225 C119 1.521 . S
C1230 C588 1.500 . S
C1240 C624 1.549 . S
C1235 C17 1.505 . S
C1250 C515 1.542 . S
C1245 C49 1.537 . S
C1260 C552 1.586 . S
C1255 C93 1.563 . S
C1265 C55 1.499 . S
C1270 C838 1.474 . S
C1275 C81 1.597 . S
C1280 C814 1.561 . S
C1285 C125 1.508 . S
C1290 C839 1.505 . S
C1295 C29 1.538 . S
C1300 C804 1.586 . S
C1310 C922 1.413 . S
C1305 C273 1.479 . S
C1320 C911 1.566 . S
C1315 C439 1.531 . S
C1330 C912 1.517 . S
C1325 C477 1.429 . S
C1335 C503 1.594 . S
C1340 C910 1.602 . S
C1345 C337 1.499 . S
C1350 C694 1.465 . S
C1360 C695 1.479 . S
C1355 C183 1.388 . S
C1370 C742 1.574 . S
C1365 C221 1.596 . S
C1380 C767 1.493 . S
C1375 C247 1.491 . S
C1385 C433 1.530 . S
C1390 C586 1.565 1_556 S
C1400 C550 1.528 . S
C1395 C61 1.557 . S
C1405 C87 1.565 . S
C1410 C587 1.577 . S
C1420 C516 1.574 . S
C1415 C23 1.532 . S
