# Generated by pormake.
# Topology pyr, (3,6)-cn, num edge types: 1
# Building blocks:
#     Node 0, Type 0, BuildingBlock: VETTIZ_charged_linker_0, # of connection points: 3
#     Node 1, Type 0, BuildingBlock: VETTIZ_charged_linker_0, # of connection points: 3
#     Node 2, Type 0, BuildingBlock: VETTIZ_charged_linker_0, # of connection points: 3
#     Node 3, Type 0, BuildingBlock: VETTIZ_charged_linker_0, # of connection points: 3
#     Node 4, Type 0, BuildingBlock: VETTIZ_charged_linker_0, # of connection points: 3
#     Node 5, Type 0, BuildingBlock: VETTIZ_charged_linker_0, # of connection points: 3
#     Node 6, Type 0, BuildingBlock: VETTIZ_charged_linker_0, # of connection points: 3
#     Node 7, Type 0, BuildingBlock: VETTIZ_charged_linker_0, # of connection points: 3
#     Node 8, Type 1, BuildingBlock: BETFEN_clean_sbu_0, # of connection points: 6
#     Node 9, Type 1, BuildingBlock: BETFEN_clean_sbu_0, # of connection points: 6
#     Node 10, Type 1, BuildingBlock: BETFEN_clean_sbu_0, # of connection points: 6
#     Node 11, Type 1, BuildingBlock: BETFEN_clean_sbu_0, # of connection points: 6
#     Edge 12, Type (0, 1), BuildingBlock: TEMPAE_clean_linker_10, # of connection points: 2
#     Edge 13, Type (0, 1), BuildingBlock: TEMPAE_clean_linker_10, # of connection points: 2
#     Edge 14, Type (0, 1), BuildingBlock: TEMPAE_clean_linker_10, # of connection points: 2
#     Edge 15, Type (0, 1), BuildingBlock: TEMPAE_clean_linker_10, # of connection points: 2
#     Edge 16, Type (0, 1), BuildingBlock: TEMPAE_clean_linker_10, # of connection points: 2
#     Edge 17, Type (0, 1), BuildingBlock: TEMPAE_clean_linker_10, # of connection points: 2
#     Edge 18, Type (0, 1), BuildingBlock: TEMPAE_clean_linker_10, # of connection points: 2
#     Edge 19, Type (0, 1), BuildingBlock: TEMPAE_clean_linker_10, # of connection points: 2
#     Edge 20, Type (0, 1), BuildingBlock: TEMPAE_clean_linker_10, # of connection points: 2
#     Edge 21, Type (0, 1), BuildingBlock: TEMPAE_clean_linker_10, # of connection points: 2
#     Edge 22, Type (0, 1), BuildingBlock: TEMPAE_clean_linker_10, # of connection points: 2
#     Edge 23, Type (0, 1), BuildingBlock: TEMPAE_clean_linker_10, # of connection points: 2
#     Edge 24, Type (0, 1), BuildingBlock: TEMPAE_clean_linker_10, # of connection points: 2
#     Edge 25, Type (0, 1), BuildingBlock: TEMPAE_clean_linker_10, # of connection points: 2
#     Edge 26, Type (0, 1), BuildingBlock: TEMPAE_clean_linker_10, # of connection points: 2
#     Edge 27, Type (0, 1), BuildingBlock: TEMPAE_clean_linker_10, # of connection points: 2
#     Edge 28, Type (0, 1), BuildingBlock: TEMPAE_clean_linker_10, # of connection points: 2
#     Edge 29, Type (0, 1), BuildingBlock: TEMPAE_clean_linker_10, # of connection points: 2
#     Edge 30, Type (0, 1), BuildingBlock: TEMPAE_clean_linker_10, # of connection points: 2
#     Edge 31, Type (0, 1), BuildingBlock: TEMPAE_clean_linker_10, # of connection points: 2
#     Edge 32, Type (0, 1), BuildingBlock: TEMPAE_clean_linker_10, # of connection points: 2
#     Edge 33, Type (0, 1), BuildingBlock: TEMPAE_clean_linker_10, # of connection points: 2
#     Edge 34, Type (0, 1), BuildingBlock: TEMPAE_clean_linker_10, # of connection points: 2
#     Edge 35, Type (0, 1), BuildingBlock: TEMPAE_clean_linker_10, # of connection points: 2
# Relax obj value: 0.133
# Max RMSD: 0.233
# Mean RMSD: 0.113
data_MOF--net-pyr--node1-BETFEN_clean_sbu_0--node2-VETTIZ_charged_linker_0--edge1-TEMPAE_clean_linker_10
_symmetry_space_group_name_H-M    P1
_symmetry_Int_Tables_number       1
_symmetry_cell_setting            triclinic
loop_
_symmetry_equiv_pos_as_xyz
'x, y, z'
_cell_length_a     45.27439
_cell_length_b     49.570983
_cell_length_c     45.875153
_cell_angle_alpha  91.190476
_cell_angle_beta   97.344264
_cell_angle_gamma 107.60898
loop_
_atom_site_label
_atom_site_type_symbol
_atom_site_fract_x
_atom_site_fract_y
_atom_site_fract_z
_atom_type_partial_charge
C0 C 0.31045 0.28527 0.36514 0.0
C1 C 0.29119 0.29906 0.3768 0.0
C2 C 0.28976 0.32503 0.36575 0.0
C3 C 0.3228 0.32086 0.32934 0.0
C4 C 0.32591 0.29645 0.34151 0.0
C5 C 0.34462 0.28279 0.32473 0.0
H6 H 0.4071 0.27182 0.20099 0.0
C7 C 0.33833 0.32464 0.30258 0.0
C8 C 0.35151 0.30261 0.29997 0.0
H9 H 0.39992 0.21801 0.27453 0.0
H10 H 0.38053 0.24972 0.30126 0.0
H11 H 0.43196 0.33301 0.24072 0.0
H12 H 0.34143 0.27953 0.20035 0.0
H13 H 0.34258 0.31465 0.19468 0.0
H14 H 0.36984 0.30048 0.17927 0.0
H15 H 0.42011 0.3297 0.20161 0.0
H16 H 0.41127 0.35519 0.22493 0.0
C17 C 0.37486 0.28349 0.34524 0.0
C18 C 0.32335 0.25261 0.31322 0.0
C19 C 0.31961 0.39625 0.23115 0.0
C20 C 0.32567 0.40099 0.20209 0.0
C21 C 0.34548 0.38783 0.1903 0.0
C22 C 0.3575 0.36891 0.20661 0.0
C23 C 0.34912 0.36269 0.23477 0.0
C24 C 0.33129 0.37697 0.24693 0.0
C25 C 0.32336 0.36681 0.27644 0.0
C26 C 0.33899 0.34375 0.27986 0.0
C27 C 0.35382 0.34124 0.25528 0.0
C28 C 0.33863 0.39174 0.29988 0.0
C29 C 0.28718 0.35476 0.27407 0.0
C30 C 0.40142 0.26689 0.22289 0.0
C31 C 0.40487 0.24216 0.23548 0.0
C32 C 0.39779 0.23695 0.2643 0.0
C33 C 0.38619 0.25528 0.27973 0.0
C34 C 0.3811 0.27892 0.26613 0.0
C35 C 0.38944 0.28483 0.2385 0.0
C36 C 0.38179 0.31059 0.2273 0.0
C37 C 0.36732 0.31904 0.25274 0.0
C38 C 0.36663 0.30016 0.27522 0.0
C39 C 0.41275 0.33339 0.22315 0.0
C40 C 0.35784 0.30113 0.19881 0.0
H41 H 0.30286 0.35548 0.3342 0.0
H42 H 0.31185 0.26514 0.37286 0.0
H43 H 0.29887 0.25257 0.30625 0.0
H44 H 0.33027 0.24442 0.29352 0.0
H45 H 0.32283 0.23726 0.3306 0.0
H46 H 0.38282 0.3025 0.36097 0.0
H47 H 0.37105 0.26448 0.35838 0.0
H48 H 0.39487 0.28523 0.33307 0.0
H49 H 0.30402 0.40563 0.24067 0.0
H50 H 0.35068 0.39136 0.16803 0.0
H51 H 0.37171 0.35893 0.19615 0.0
H52 H 0.36141 0.40535 0.2943 0.0
H53 H 0.32335 0.40538 0.30137 0.0
H54 H 0.34435 0.38455 0.32193 0.0
H55 H 0.27682 0.34391 0.25199 0.0
H56 H 0.27918 0.33843 0.28969 0.0
H57 H 0.27663 0.37193 0.2773 0.0
H58 H 0.27549 0.3363 0.37467 0.0
C59 C 0.30564 0.3361 0.34223 0.0
C60 C 0.20622 0.85712 0.6368 0.0
C61 C 0.19708 0.87794 0.65154 0.0
C62 C 0.21228 0.88833 0.68015 0.0
C63 C 0.24385 0.85684 0.6795 0.0
C64 C 0.22966 0.84691 0.6512 0.0
C65 C 0.24273 0.82504 0.63905 0.0
H66 H 0.3426 0.74652 0.66276 0.0
C67 C 0.26665 0.84176 0.68866 0.0
C68 C 0.26618 0.82292 0.66517 0.0
H69 H 0.28322 0.74852 0.58179 0.0
H70 H 0.26328 0.78247 0.60545 0.0
H71 H 0.36626 0.81199 0.67648 0.0
H72 H 0.29277 0.74578 0.7064 0.0
H73 H 0.31027 0.76979 0.73692 0.0
H74 H 0.33332 0.75161 0.71988 0.0
H75 H 0.37382 0.78738 0.70232 0.0
H76 H 0.36774 0.81994 0.71417 0.0
C77 C 0.259 0.83707 0.61235 0.0
C78 C 0.2158 0.79694 0.63168 0.0
C79 C 0.33034 0.8651 0.79046 0.0
C80 C 0.35295 0.8544 0.80561 0.0
C81 C 0.35996 0.83158 0.79243 0.0
C82 C 0.34537 0.82018 0.76415 0.0
C83 C 0.32351 0.83171 0.74887 0.0
C84 C 0.31593 0.85343 0.76229 0.0
C85 C 0.29172 0.86261 0.74308 0.0
C86 C 0.28653 0.84323 0.71559 0.0
C87 C 0.30536 0.82542 0.71904 0.0
C88 C 0.3064 0.89422 0.73709 0.0
C89 C 0.26206 0.85636 0.75862 0.0
C90 C 0.32485 0.7538 0.65019 0.0
C91 C 0.31411 0.74452 0.62054 0.0
C92 C 0.29178 0.75533 0.60473 0.0
C93 C 0.2803 0.77502 0.61849 0.0
C94 C 0.29163 0.78424 0.64821 0.0
C95 C 0.31356 0.77354 0.66341 0.0
C96 C 0.32426 0.78628 0.6943 0.0
C97 C 0.3052 0.80651 0.69539 0.0
C98 C 0.28591 0.80527 0.66847 0.0
C99 C 0.35988 0.80212 0.69729 0.0
C100 C 0.31499 0.76226 0.71567 0.0
H101 H 0.24581 0.88672 0.71593 0.0
H102 H 0.19518 0.84875 0.61476 0.0
H103 H 0.20105 0.79249 0.6497 0.0
H104 H 0.22418 0.77842 0.62935 0.0
H105 H 0.2005 0.79804 0.61106 0.0
H106 H 0.27089 0.8603 0.61612 0.0
H107 H 0.24178 0.83358 0.59201 0.0
H108 H 0.27769 0.82798 0.60842 0.0
H109 H 0.32417 0.88237 0.80025 0.0
H110 H 0.37744 0.82311 0.80365 0.0
H111 H 0.35212 0.80316 0.7551 0.0
H112 H 0.33164 0.89891 0.73494 0.0
H113 H 0.30465 0.90847 0.75536 0.0
H114 H 0.29584 0.90016 0.71613 0.0
H115 H 0.25973 0.83777 0.77234 0.0
H116 H 0.24012 0.8505 0.74296 0.0
H117 H 0.26291 0.87472 0.77334 0.0
H118 H 0.20659 0.90495 0.69174 0.0
C119 C 0.23537 0.87786 0.69417 0.0
C120 C 0.60976 0.2421 0.88838 0.0
C121 C 0.58162 0.22208 0.87574 0.0
C122 C 0.56419 0.22968 0.85114 0.0
C123 C 0.60344 0.27632 0.85256 0.0
C124 C 0.62007 0.26858 0.87666 0.0
C125 C 0.64953 0.29141 0.88852 0.0
H126 H 0.74416 0.42537 0.89125 0.0
C127 C 0.62104 0.30612 0.8468 0.0
C128 C 0.64787 0.31471 0.86826 0.0
H129 H 0.75712 0.3566 0.943 0.0
H130 H 0.70915 0.32537 0.91814 0.0
H131 H 0.66972 0.41074 0.88938 0.0
H132 H 0.72769 0.38873 0.83211 0.0
H133 H 0.69502 0.39115 0.80866 0.0
H134 H 0.71987 0.42206 0.83101 0.0
H135 H 0.69212 0.43526 0.8662 0.0
H136 H 0.65275 0.41305 0.85324 0.0
C137 C 0.64723 0.29962 0.92081 0.0
C138 C 0.67761 0.2804 0.8847 0.0
C139 C 0.58582 0.35979 0.76062 0.0
C140 C 0.59825 0.388 0.75265 0.0
C141 C 0.62458 0.40633 0.77036 0.0
C142 C 0.6388 0.39701 0.79527 0.0
C143 C 0.62662 0.36893 0.80298 0.0
C144 C 0.60028 0.35076 0.78617 0.0
C145 C 0.59025 0.32204 0.79932 0.0
C146 C 0.61584 0.32575 0.82568 0.0
C147 C 0.63696 0.35347 0.82741 0.0
C148 C 0.55785 0.31774 0.80911 0.0
C149 C 0.59053 0.29895 0.77641 0.0
C150 C 0.73685 0.40356 0.8972 0.0
C151 C 0.75449 0.39397 0.91997 0.0
C152 C 0.74375 0.36521 0.92655 0.0
C153 C 0.71589 0.34676 0.91164 0.0
C154 C 0.69847 0.35671 0.88927 0.0
C155 C 0.70929 0.38451 0.88198 0.0
C156 C 0.68876 0.39058 0.85609 0.0
C157 C 0.66356 0.36193 0.84954 0.0
C158 C 0.6692 0.34246 0.86938 0.0
C159 C 0.67517 0.41375 0.86646 0.0
C160 C 0.70868 0.39876 0.8306 0.0
H161 H 0.56099 0.26107 0.82057 0.0
H162 H 0.62355 0.23754 0.90763 0.0
H163 H 0.67157 0.26376 0.86635 0.0
H164 H 0.6979 0.29715 0.87859 0.0
H165 H 0.68519 0.27101 0.90498 0.0
H166 H 0.62299 0.29937 0.92318 0.0
H167 H 0.65346 0.28451 0.93612 0.0
H168 H 0.66203 0.32132 0.92846 0.0
H169 H 0.5653 0.34538 0.74752 0.0
H170 H 0.6344 0.42803 0.76467 0.0
H171 H 0.65887 0.41217 0.80756 0.0
H172 H 0.55721 0.33739 0.82082 0.0
H173 H 0.53916 0.31253 0.78978 0.0
H174 H 0.55207 0.30092 0.82468 0.0
H175 H 0.61292 0.30516 0.76702 0.0
H176 H 0.58851 0.27838 0.78604 0.0
H177 H 0.57106 0.29583 0.75801 0.0
H178 H 0.54238 0.21472 0.8408 0.0
C179 C 0.57502 0.2566 0.83942 0.0
C180 C 0.92404 0.76744 0.3757 0.0
C181 C 0.91802 0.77874 0.40229 0.0
C182 C 0.89845 0.75976 0.41947 0.0
C183 C 0.88826 0.72098 0.38278 0.0
C184 C 0.90923 0.73839 0.36666 0.0
C185 C 0.91373 0.72188 0.34018 0.0
H186 H 0.87695 0.5952 0.2594 0.0
C187 C 0.87535 0.69251 0.36717 0.0
C188 C 0.89045 0.69243 0.34232 0.0
H189 H 0.94632 0.67461 0.24708 0.0
H190 H 0.93151 0.69711 0.28726 0.0
H191 H 0.88519 0.59829 0.33264 0.0
H192 H 0.82307 0.62743 0.27008 0.0
H193 H 0.80296 0.61009 0.29815 0.0
H194 H 0.81801 0.59032 0.27354 0.0
H195 H 0.85635 0.57459 0.30544 0.0
H196 H 0.8457 0.58534 0.33916 0.0
C197 C 0.948 0.72133 0.34452 0.0
C198 C 0.90476 0.7358 0.31199 0.0
C199 C 0.78461 0.62214 0.40596 0.0
C200 C 0.76407 0.59521 0.39605 0.0
C201 C 0.76902 0.58222 0.37011 0.0
C202 C 0.79417 0.59583 0.35473 0.0
C203 C 0.81439 0.62302 0.36499 0.0
C204 C 0.809 0.63557 0.39017 0.0
C205 C 0.83122 0.66481 0.39767 0.0
C206 C 0.85079 0.6683 0.37271 0.0
C207 C 0.84152 0.64369 0.35365 0.0
C208 C 0.85097 0.66467 0.42796 0.0
C209 C 0.81156 0.68568 0.39667 0.0
C210 C 0.88903 0.61743 0.2652 0.0
C211 C 0.91371 0.63262 0.24997 0.0
C212 C 0.9282 0.66173 0.25865 0.0
C213 C 0.91945 0.67499 0.2821 0.0
C214 C 0.89563 0.65936 0.29751 0.0
C215 C 0.88038 0.63115 0.28866 0.0
C216 C 0.85437 0.61839 0.30677 0.0
C217 C 0.85801 0.64287 0.3291 0.0
C218 C 0.88226 0.66708 0.32342 0.0
C219 C 0.86051 0.59265 0.3218 0.0
C220 C 0.82283 0.61091 0.28618 0.0
H221 H 0.86845 0.71883 0.42394 0.0
H222 H 0.93951 0.78078 0.36203 0.0
H223 H 0.88263 0.74093 0.31312 0.0
H224 H 0.90041 0.72175 0.29191 0.0
H225 H 0.92329 0.75585 0.30928 0.0
H226 H 0.9562 0.71963 0.36813 0.0
H227 H 0.96394 0.74101 0.33721 0.0
H228 H 0.95097 0.70278 0.33297 0.0
H229 H 0.78129 0.63306 0.42539 0.0
H230 H 0.75361 0.56143 0.36191 0.0
H231 H 0.79694 0.58474 0.33541 0.0
H232 H 0.85234 0.64309 0.43255 0.0
H233 H 0.84077 0.67191 0.44626 0.0
H234 H 0.8757 0.67788 0.4289 0.0
H235 H 0.79175 0.67918 0.3783 0.0
H236 H 0.82478 0.70752 0.39241 0.0
H237 H 0.80152 0.68618 0.41746 0.0
H238 H 0.89458 0.76659 0.44082 0.0
C239 C 0.88347 0.73145 0.40982 0.0
C240 C 0.71003 0.62988 0.8277 0.0
C241 C 0.72789 0.61393 0.81714 0.0
C242 C 0.72764 0.61068 0.78646 0.0
C243 C 0.69829 0.64389 0.77832 0.0
C244 C 0.69518 0.64444 0.80785 0.0
C245 C 0.67654 0.66354 0.81524 0.0
H246 H 0.62067 0.77139 0.77753 0.0
C247 C 0.68454 0.66463 0.76432 0.0
C248 C 0.67068 0.67552 0.78554 0.0
H249 H 0.61837 0.7299 0.85955 0.0
H250 H 0.63768 0.69452 0.83864 0.0
H251 H 0.59647 0.71034 0.73316 0.0
H252 H 0.6817 0.7739 0.76809 0.0
H253 H 0.69115 0.75993 0.7365 0.0
H254 H 0.66094 0.77693 0.73303 0.0
H255 H 0.60859 0.74629 0.72257 0.0
H256 H 0.61969 0.71885 0.70456 0.0
C257 C 0.64575 0.64509 0.82529 0.0
C258 C 0.69744 0.68679 0.8386 0.0
C259 C 0.72151 0.70534 0.6702 0.0
C260 C 0.71898 0.72958 0.65597 0.0
C261 C 0.69627 0.7419 0.66298 0.0
C262 C 0.67863 0.73197 0.68566 0.0
C263 C 0.68407 0.70983 0.70189 0.0
C264 C 0.70414 0.69602 0.69327 0.0
C265 C 0.70757 0.67339 0.71365 0.0
C266 C 0.68755 0.6771 0.7368 0.0
C267 C 0.67425 0.69875 0.72991 0.0
C268 C 0.69396 0.64409 0.69636 0.0
C269 C 0.74264 0.68072 0.72651 0.0
C270 C 0.62404 0.75451 0.79089 0.0
C271 C 0.61833 0.75362 0.82032 0.0
C272 C 0.62252 0.73104 0.83681 0.0
C273 C 0.63401 0.71066 0.82472 0.0
C274 C 0.64171 0.71304 0.79596 0.0
C275 C 0.63573 0.73415 0.77925 0.0
C276 C 0.64577 0.73373 0.7493 0.0
C277 C 0.65906 0.709 0.75089 0.0
C278 C 0.6569 0.69717 0.77839 0.0
C279 C 0.61623 0.72715 0.72598 0.0
C280 C 0.67102 0.76253 0.74631 0.0
H281 H 0.71431 0.62304 0.74403 0.0
H282 H 0.7092 0.63248 0.85104 0.0
H283 H 0.72138 0.69547 0.83251 0.0
H284 H 0.6888 0.70514 0.84076 0.0
H285 H 0.69963 0.67805 0.8606 0.0
H286 H 0.6389 0.62285 0.81583 0.0
H287 H 0.64814 0.64438 0.84964 0.0
H288 H 0.62559 0.65259 0.81753 0.0
H289 H 0.73826 0.69506 0.6648 0.0
H290 H 0.69374 0.7606 0.65248 0.0
H291 H 0.66284 0.74309 0.69091 0.0
H292 H 0.67803 0.64487 0.67602 0.0
H293 H 0.71282 0.63636 0.68957 0.0
H294 H 0.6794 0.62793 0.7093 0.0
H295 H 0.75197 0.7032 0.73536 0.0
H296 H 0.74716 0.66782 0.74474 0.0
H297 H 0.75674 0.67776 0.70929 0.0
H298 H 0.74008 0.59759 0.77756 0.0
C299 C 0.71278 0.62546 0.76701 0.0
C300 C 0.8283 0.17251 0.41493 0.0
C301 C 0.84294 0.15564 0.4006 0.0
C302 C 0.83793 0.15269 0.36954 0.0
C303 C 0.80254 0.18082 0.36776 0.0
C304 C 0.80849 0.1851 0.39806 0.0
C305 C 0.79142 0.20416 0.40931 0.0
H306 H 0.68488 0.27481 0.37901 0.0
C307 C 0.78039 0.19594 0.35661 0.0
C308 C 0.7742 0.21028 0.38071 0.0
H309 H 0.73416 0.26794 0.46416 0.0
H310 H 0.76362 0.24184 0.44123 0.0
H311 H 0.67354 0.20946 0.35469 0.0
H312 H 0.74156 0.2897 0.34522 0.0
H313 H 0.73766 0.26941 0.31231 0.0
H314 H 0.70431 0.27846 0.32229 0.0
H315 H 0.66465 0.23838 0.33647 0.0
H316 H 0.67726 0.21305 0.31713 0.0
C317 C 0.76859 0.18709 0.42953 0.0
C318 C 0.81597 0.23126 0.42467 0.0
C319 C 0.72778 0.17618 0.25055 0.0
C320 C 0.70554 0.18644 0.23386 0.0
C321 C 0.69801 0.20952 0.24602 0.0
C322 C 0.7102 0.2204 0.27496 0.0
C323 C 0.73032 0.20828 0.29201 0.0
C324 C 0.74009 0.18763 0.27926 0.0
C325 C 0.7638 0.17908 0.29994 0.0
C326 C 0.76471 0.1965 0.32791 0.0
C327 C 0.74454 0.21305 0.32322 0.0
C328 C 0.75081 0.14681 0.30362 0.0
C329 C 0.7955 0.18827 0.28757 0.0
C330 C 0.70191 0.26754 0.39274 0.0
C331 C 0.7069 0.27295 0.42339 0.0
C332 C 0.72987 0.26386 0.44047 0.0
C333 C 0.74679 0.24863 0.42713 0.0
C334 C 0.7407 0.24258 0.39642 0.0
C335 C 0.71887 0.25244 0.37982 0.0
C336 C 0.71518 0.24432 0.3476 0.0
C337 C 0.73829 0.22773 0.34739 0.0
C338 C 0.75305 0.22648 0.37603 0.0
C339 C 0.6809 0.22541 0.3382 0.0
C340 C 0.72493 0.27177 0.33079 0.0
H341 H 0.81469 0.16154 0.32973 0.0
H342 H 0.83168 0.17547 0.43871 0.0
H343 H 0.83695 0.23761 0.4131 0.0
H344 H 0.80727 0.24981 0.42432 0.0
H345 H 0.82389 0.2278 0.44783 0.0
H346 H 0.7564 0.16524 0.41963 0.0
H347 H 0.78132 0.18531 0.45142 0.0
H348 H 0.74985 0.1963 0.43281 0.0
H349 H 0.73455 0.15872 0.24213 0.0
H350 H 0.68207 0.2188 0.23344 0.0
H351 H 0.7028 0.23733 0.28322 0.0
H352 H 0.72602 0.14102 0.30771 0.0
H353 H 0.75163 0.13442 0.28345 0.0
H354 H 0.76357 0.13961 0.3224 0.0
H355 H 0.79616 0.20428 0.27081 0.0
H356 H 0.81541 0.19875 0.30489 0.0
H357 H 0.80012 0.16993 0.27688 0.0
H358 H 0.84964 0.14079 0.35772 0.0
C359 C 0.81782 0.16504 0.35317 0.0
C360 C 0.46576 0.66927 0.31383 0.0
C361 C 0.44755 0.64466 0.32608 0.0
C362 C 0.41522 0.63433 0.31548 0.0
C363 C 0.42036 0.66947 0.27913 0.0
C364 C 0.45148 0.68155 0.29058 0.0
C365 C 0.46605 0.7083 0.27528 0.0
H366 H 0.44488 0.79789 0.16726 0.0
C367 C 0.41237 0.68579 0.25445 0.0
C368 C 0.43881 0.70919 0.25215 0.0
H369 H 0.52893 0.80893 0.22824 0.0
H370 H 0.50389 0.76478 0.25039 0.0
H371 H 0.39638 0.77804 0.21268 0.0
H372 H 0.43311 0.73424 0.15185 0.0
H373 H 0.39432 0.7131 0.15164 0.0
H374 H 0.40223 0.74892 0.14017 0.0
H375 H 0.38555 0.77634 0.17351 0.0
H376 H 0.36466 0.74964 0.19595 0.0
C377 C 0.47563 0.73373 0.29822 0.0
C378 C 0.49369 0.70453 0.26097 0.0
C379 C 0.30664 0.64627 0.18979 0.0
C380 C 0.29251 0.65624 0.16498 0.0
C381 C 0.30858 0.68243 0.15461 0.0
C382 C 0.33834 0.69832 0.16848 0.0
C383 C 0.35236 0.68805 0.19313 0.0
C384 C 0.33642 0.66258 0.20357 0.0
C385 C 0.35454 0.65559 0.23064 0.0
C386 C 0.38465 0.6805 0.23388 0.0
C387 C 0.38309 0.69933 0.21188 0.0
C388 C 0.33582 0.65539 0.25681 0.0
C389 C 0.36034 0.62707 0.22365 0.0
C390 C 0.45782 0.79091 0.18554 0.0
C391 C 0.48863 0.80684 0.19623 0.0
C392 C 0.50496 0.79696 0.21982 0.0
C393 C 0.49037 0.77145 0.23265 0.0
C394 C 0.45915 0.75574 0.22173 0.0
C395 C 0.44372 0.76572 0.19837 0.0
C396 C 0.41128 0.74655 0.18848 0.0
C397 C 0.40904 0.72361 0.21007 0.0
C398 C 0.43701 0.72872 0.22982 0.0
C399 C 0.38807 0.76337 0.19258 0.0
C400 C 0.40984 0.73515 0.15635 0.0
H401 H 0.37732 0.63672 0.28506 0.0
H402 H 0.49045 0.67848 0.32174 0.0
H403 H 0.48665 0.68363 0.24838 0.0
H404 H 0.5017 0.72073 0.24518 0.0
H405 H 0.51383 0.70546 0.278 0.0
H406 H 0.45656 0.73244 0.3117 0.0
H407 H 0.49694 0.73397 0.31337 0.0
H408 H 0.48001 0.75425 0.28803 0.0
H409 H 0.29458 0.62643 0.19854 0.0
H410 H 0.29825 0.69047 0.13544 0.0
H411 H 0.34925 0.71799 0.15933 0.0
H412 H 0.31806 0.66669 0.25225 0.0
H413 H 0.32317 0.6334 0.2618 0.0
H414 H 0.35103 0.66671 0.27702 0.0
H415 H 0.36859 0.62701 0.20183 0.0
H416 H 0.37852 0.6228 0.23958 0.0
H417 H 0.33845 0.60908 0.22294 0.0
H418 H 0.39987 0.61675 0.32523 0.0
C419 C 0.40181 0.64627 0.29215 0.0
C420 C 0.11226 0.27327 0.69896 0.0
C421 C 0.1199 0.26048 0.67422 0.0
C422 C 0.14518 0.27643 0.66057 0.0
C423 C 0.15409 0.31701 0.69479 0.0
C424 C 0.12959 0.30167 0.70873 0.0
C425 C 0.12472 0.31945 0.73399 0.0
H426 H 0.16575 0.44761 0.81281 0.0
C427 C 0.1674 0.34581 0.7097 0.0
C428 C 0.15042 0.3477 0.73281 0.0
H429 H 0.09334 0.3703 0.82546 0.0
H430 H 0.10708 0.34636 0.78572 0.0
H431 H 0.15689 0.44222 0.7392 0.0
H432 H 0.21823 0.41418 0.80363 0.0
H433 H 0.23878 0.43106 0.77555 0.0
H434 H 0.22327 0.45118 0.79931 0.0
H435 H 0.18646 0.46662 0.76526 0.0
H436 H 0.19612 0.4538 0.73196 0.0
C437 C 0.09163 0.32258 0.72715 0.0
C438 C 0.13007 0.30499 0.76287 0.0
C439 C 0.25888 0.41398 0.66969 0.0
C440 C 0.27857 0.4416 0.67802 0.0
C441 C 0.27305 0.45582 0.70286 0.0
C442 C 0.24801 0.44279 0.71859 0.0
C443 C 0.22847 0.41498 0.7098 0.0
C444 C 0.23457 0.40118 0.68581 0.0
C445 C 0.21306 0.37146 0.67992 0.0
C446 C 0.19258 0.3694 0.70399 0.0
C447 C 0.20117 0.39495 0.72154 0.0
C448 C 0.19414 0.36937 0.64878 0.0
C449 C 0.23327 0.35107 0.68397 0.0
C450 C 0.15285 0.4255 0.80727 0.0
C451 C 0.12772 0.41138 0.82254 0.0
C452 C 0.11199 0.38242 0.81398 0.0
C453 C 0.1202 0.36826 0.79084 0.0
C454 C 0.1448 0.38276 0.77567 0.0
C455 C 0.16098 0.41087 0.78419 0.0
C456 C 0.18737 0.42251 0.76618 0.0
C457 C 0.18371 0.39718 0.74498 0.0
C458 C 0.15855 0.37373 0.75064 0.0
C459 C 0.18166 0.44776 0.74979 0.0
C460 C 0.21869 0.43039 0.78714 0.0
H461 H 0.18085 0.31485 0.65881 0.0
H462 H 0.09296 0.26169 0.71002 0.0
H463 H 0.15018 0.2965 0.76284 0.0
H464 H 0.13617 0.31979 0.78257 0.0
H465 H 0.1091 0.28699 0.76556 0.0
H466 H 0.08658 0.32659 0.70354 0.0
H467 H 0.07345 0.30296 0.73167 0.0
H468 H 0.08891 0.34073 0.73961 0.0
H469 H 0.26276 0.40214 0.65119 0.0
H470 H 0.2879 0.47714 0.70987 0.0
H471 H 0.24481 0.4548 0.73703 0.0
H472 H 0.18961 0.38975 0.64374 0.0
H473 H 0.20702 0.3643 0.63146 0.0
H474 H 0.1706 0.35362 0.64657 0.0
H475 H 0.2547 0.36037 0.70021 0.0
H476 H 0.2211 0.33088 0.69309 0.0
H477 H 0.24097 0.34643 0.66291 0.0
H478 H 0.15211 0.26719 0.64198 0.0
C479 C 0.16211 0.3043 0.67059 0.0
Pr480 Pr 0.99067 1.00548 0.55221 0.0
Pr481 Pr 0.04449 0.0337 0.52432 0.0
C482 C 0.94311 0.97101 0.57651 0.0
C483 C 0.92612 0.94118 0.58073 0.0
C484 C 0.92369 0.93251 0.60944 0.0
C485 C 0.90398 0.9058 0.61426 0.0
C486 C 0.88599 0.88728 0.59043 0.0
C487 C 0.88976 0.89535 0.5616 0.0
C488 C 0.90965 0.92208 0.55677 0.0
C489 C 1.02026 0.06119 0.57721 0.0
C490 C 0.05514 0.9884 0.56963 0.0
C491 C 0.09263 0.06804 0.50054 0.0
C492 C 0.10644 0.09714 0.49155 0.0
C493 C 0.09909 0.10412 0.46256 0.0
C494 C 0.11549 0.13019 0.4528 0.0
C495 C 0.13974 0.14975 0.47174 0.0
C496 C 0.14604 0.14335 0.50113 0.0
C497 C 0.12964 0.11727 0.51091 0.0
C498 C 1.01448 0.97814 0.49963 0.0
C499 C 0.97898 0.04919 0.50532 0.0
O500 O 0.93991 0.97995 0.55006 0.0
O501 O 0.97122 0.98206 0.59103 0.0
O502 O 0.0345 0.04403 0.57063 0.0
O503 O 0.99031 0.04938 0.57191 0.0
O504 O 0.06958 1.01343 0.56091 0.0
O505 O 0.02441 0.97818 0.56434 0.0
O506 O 0.09357 0.06424 0.5287 0.0
O507 O 0.06701 0.05186 0.4848 0.0
O508 O 1.00051 0.99569 0.50564 0.0
O509 O 0.04452 0.98906 0.50602 0.0
O510 O 0.96488 0.0249 0.51571 0.0
O511 O 1.00977 0.05946 0.50933 0.0
H512 H 0.93617 0.94683 0.62825 0.0
H513 H 0.9021 0.89997 0.63673 0.0
H514 H 0.87619 0.88161 0.54279 0.0
H515 H 0.91114 0.92815 0.53433 0.0
H516 H 0.08145 0.08907 0.44705 0.0
H517 H 0.10984 0.1347 0.43013 0.0
H518 H 0.16478 0.15787 0.51616 0.0
H519 H 0.13605 0.11246 0.53331 0.0
Pr520 Pr 0.50273 1.01204 0.04171 0.0
Pr521 Pr 0.55546 1.00426 1.0167 0.0
C522 C 0.4548 1.01419 0.06971 0.0
C523 C 0.44787 0.03719 0.08559 0.0
C524 C 0.45376 0.06424 0.07452 0.0
C525 C 0.44946 0.08651 0.09079 0.0
C526 C 0.43956 0.08233 0.11865 0.0
C527 C 0.43334 0.05512 0.12951 0.0
C528 C 0.43743 0.03275 0.11309 0.0
C529 C 0.52723 0.05618 1.00555 0.0
C530 C 0.57216 0.05005 0.07012 0.0
C531 C 0.59656 0.99558 0.98287 0.0
C532 C 0.5983 0.97039 0.96636 0.0
C533 C 0.59606 0.94489 0.98009 0.0
C534 C 0.59605 0.92076 0.96386 0.0
C535 C 0.5979 0.92154 0.93355 0.0
C536 C 0.60001 0.947 0.9198 0.0
C537 C 0.60034 0.97126 0.93611 0.0
C538 C 0.5419 0.97159 0.06563 0.0
C539 C 0.48583 0.96332 0.98714 0.0
O540 O 0.47839 1.0066 0.08234 0.0
O541 O 0.45411 0.01563 0.04118 0.0
O542 O 0.52278 0.03017 0.99945 0.0
O543 O 0.5193 0.06008 1.03106 0.0
O544 O 0.57911 0.04743 0.0435 0.0
O545 O 0.54589 0.03333 0.07749 0.0
O546 O 0.57378 1.00538 0.97283 0.0
O547 O 0.60087 0.99566 1.01157 0.0
O548 O 0.52191 0.97404 0.04483 0.0
O549 O 0.56987 0.98676 0.06192 0.0
O550 O 0.4741 0.97726 1.00492 0.0
O551 O 0.51621 0.96849 0.98837 0.0
H552 H 0.46213 0.06832 0.05346 0.0
H553 H 0.45396 0.10705 0.08154 0.0
H554 H 0.42607 0.05123 0.15103 0.0
H555 H 0.43311 1.01212 0.12216 0.0
H556 H 0.59395 0.94343 1.0033 0.0
H557 H 0.59407 0.90132 0.97492 0.0
H558 H 0.60173 0.94822 0.8965 0.0
H559 H 0.60185 0.99063 0.92505 0.0
Pr560 Pr 0.53291 0.54831 0.5555 0.0
Pr561 Pr 0.51426 0.48368 0.52553 0.0
C562 C 0.53299 0.601 0.57056 0.0
C563 C 0.50915 0.61575 0.5708 0.0
C564 C 0.50759 0.63038 0.59674 0.0
C565 C 0.48467 0.64382 0.5977 0.0
C566 C 0.46289 0.6431 0.57264 0.0
C567 C 0.46457 0.62848 0.54659 0.0
C568 C 0.4874 0.61488 0.5457 0.0
C569 C 0.55268 0.50874 0.58897 0.0
C570 C 0.46206 0.50117 0.56104 0.0
C571 C 0.51391 0.42956 0.5197 0.0
C572 C 0.53076 0.4132 0.50538 0.0
C573 C 0.52209 0.38375 0.50721 0.0
C574 C 0.54095 0.36842 0.49807 0.0
C575 C 0.56894 0.38236 0.48714 0.0
C576 C 0.57687 0.41183 0.4843 0.0
C577 C 0.55791 0.42711 0.49334 0.0
C578 C 0.50051 0.52155 0.48474 0.0
C579 C 0.58155 0.53223 0.51425 0.0
O580 O 0.5386 0.59364 0.54472 0.0
O581 O 0.53249 0.58174 0.58978 0.0
O582 O 0.52696 0.50437 0.57252 0.0
O583 O 0.56944 0.53539 0.58965 0.0
O584 O 0.47041 0.48027 0.54945 0.0
O585 O 0.47969 0.52814 0.56209 0.0
O586 O 0.53113 0.44764 0.54106 0.0
O587 O 0.49434 0.43946 0.50286 0.0
O588 O 0.51104 0.52604 0.5116 0.0
O589 O 0.49604 0.49494 0.47728 0.0
O590 O 0.57248 0.55278 0.52559 0.0
O591 O 0.56609 0.50498 0.51588 0.0
H592 H 0.52397 0.63117 0.6164 0.0
H593 H 0.48373 0.65441 0.6183 0.0
H594 H 0.4484 0.62773 0.52681 0.0
H595 H 0.48795 0.60366 0.52537 0.0
H596 H 0.50131 0.37274 0.51665 0.0
H597 H 0.53387 0.34569 0.50003 0.0
H598 H 0.59836 0.42328 0.47623 0.0
H599 H 0.5651 0.44992 0.49207 0.0
Pr600 Pr 0.02062 0.54795 1.01727 0.0
Pr601 Pr 0.03002 0.50343 0.05699 0.0
C602 C 0.9979 0.58325 0.98388 0.0
C603 C 0.96642 0.58487 0.97406 0.0
C604 C 0.96268 0.60838 0.95951 0.0
C605 C 0.93277 0.60907 0.94826 0.0
C606 C 0.90614 0.58618 0.95136 0.0
C607 C 0.91004 0.56291 0.96661 0.0
C608 C 0.93997 0.56231 0.97793 0.0
C609 C 0.08161 0.56144 0.04717 0.0
C610 C 0.99662 0.54627 0.08409 0.0
C611 C 0.0532 0.46851 0.09034 0.0
C612 C 0.0838 0.46371 0.09668 0.0
C613 C 0.08524 0.43628 0.10119 0.0
C614 C 0.11413 0.43165 0.1086 0.0
C615 C 0.14213 0.45446 0.11188 0.0
C616 C 0.14059 0.48186 0.10647 0.0
C617 C 0.11169 0.48641 0.09879 0.0
C618 C 0.96892 0.49092 1.02829 0.0
C619 C 0.05206 0.50376 0.98959 0.0
O620 O 1.00394 0.56126 0.97304 0.0
O621 O 1.00811 0.58874 1.01197 0.0
O622 O 0.05698 0.5506 0.05813 0.0
O623 O 0.0753 0.56768 1.02025 0.0
O624 O 1.01404 0.52975 0.09139 0.0
O625 O 0.99192 0.55281 0.05633 0.0
O626 O 0.05172 0.49283 0.10044 0.0
O627 O 0.0381 0.46081 0.06377 0.0
O628 O 0.99317 0.50085 1.01643 0.0
O629 O 0.97554 0.48472 0.05515 0.0
O630 O 0.03457 0.52029 0.98255 0.0
O631 O 0.05767 0.49782 1.01741 0.0
H632 H 0.98291 0.6259 0.95626 0.0
H633 H 0.9306 0.6271 0.93622 0.0
H634 H 0.89 0.54508 0.96949 0.0
H635 H 0.94258 0.54401 0.98917 0.0
H636 H 0.06398 0.41848 0.09932 0.0
H637 H 0.11451 0.41019 0.11197 0.0
H638 H 0.1616 0.49992 0.10898 0.0
H639 H 0.11114 0.50776 0.09505 0.0
C640 C 0.27999 0.26886 0.41967 0.0
C641 C 0.26982 0.28441 0.39752 0.0
C642 C 0.25858 0.25011 0.43517 0.0
C643 C 0.22626 0.24695 0.42838 0.0
C644 C 0.21618 0.26435 0.40784 0.0
C645 C 0.23809 0.28283 0.39258 0.0
C646 C 0.2703 0.23208 0.45708 0.0
C647 C 0.18196 0.26176 0.40012 0.0
C648 C 0.17136 0.17301 0.43332 0.0
C649 C 0.16031 0.17537 0.46014 0.0
C650 C 0.1925 0.19628 0.42269 0.0
C651 C 0.20288 0.22266 0.43927 0.0
C652 C 0.19145 0.2254 0.46613 0.0
C653 C 0.17034 0.20163 0.47634 0.0
C654 C 0.20423 0.19243 0.39397 0.0
C655 C 0.20183 0.25327 0.48422 0.0
H656 H 0.30457 0.27037 0.42394 0.0
H657 H 0.22994 0.29458 0.37534 0.0
H658 H 0.25956 0.2317 0.47755 0.0
H659 H 0.26344 0.20993 0.44758 0.0
H660 H 0.29618 0.2398 0.46286 0.0
H661 H 0.17852 0.27976 0.38758 0.0
H662 H 0.16986 0.2418 0.38644 0.0
H663 H 0.17061 0.26075 0.42029 0.0
H664 H 0.16419 0.15265 0.42098 0.0
H665 H 0.16171 0.20357 0.49701 0.0
H666 H 0.22999 0.19683 0.39781 0.0
H667 H 0.19918 0.20772 0.37828 0.0
H668 H 0.19338 0.17064 0.38353 0.0
H669 H 0.22744 0.25957 0.49149 0.0
H670 H 0.18976 0.25218 0.50397 0.0
H671 H 0.19721 0.27019 0.47063 0.0
C672 C 0.37509 0.85164 0.858 0.0
C673 C 0.37038 0.86801 0.83434 0.0
C674 C 0.39248 0.86453 0.88497 0.0
C675 C 0.40569 0.8944 0.88805 0.0
C676 C 0.4008 0.91099 0.86425 0.0
C677 C 0.38309 0.89759 0.83772 0.0
C678 C 0.39697 0.84624 0.91001 0.0
C679 C 0.41486 0.94289 0.86656 0.0
C680 C 0.43224 0.93643 0.96174 0.0
C681 C 0.46482 0.94257 0.96407 0.0
C682 C 0.41245 0.9194 0.93783 0.0
C683 C 0.42564 0.90852 0.91571 0.0
C684 C 0.45837 0.91349 0.9187 0.0
C685 C 0.47754 0.93035 0.94291 0.0
C686 C 0.37759 0.9142 0.93553 0.0
C687 C 0.47336 0.90234 0.89552 0.0
H688 H 0.36506 0.82877 0.85544 0.0
H689 H 0.37983 0.91025 0.8193 0.0
H690 H 0.4222 0.84855 0.91581 0.0
H691 H 0.38898 0.85329 0.92987 0.0
H692 H 0.384 0.82345 0.90446 0.0
H693 H 0.40839 0.9527 0.84614 0.0
H694 H 0.40697 0.95212 0.88522 0.0
H695 H 0.44076 0.94871 0.87107 0.0
H696 H 0.42219 0.94559 0.9781 0.0
H697 H 0.50269 0.93482 0.94456 0.0
H698 H 0.36482 0.89133 0.93051 0.0
H699 H 0.3699 0.92584 0.91717 0.0
H700 H 0.37077 0.92128 0.9561 0.0
H701 H 0.46173 0.8793 0.89049 0.0
H702 H 0.49877 0.90597 0.90241 0.0
H703 H 0.47042 0.91305 0.87483 0.0
C704 C 0.57105 0.42093 0.72994 0.0
C705 C 0.58476 0.39947 0.72624 0.0
C706 C 0.56429 0.4367 0.70624 0.0
C707 C 0.57197 0.43131 0.67814 0.0
C708 C 0.58478 0.40889 0.67405 0.0
C709 C 0.59097 0.39321 0.69815 0.0
C710 C 0.55021 0.46002 0.71166 0.0
C711 C 0.59348 0.40244 0.64461 0.0
C712 C 0.53531 0.46243 0.61268 0.0
C713 C 0.55879 0.48805 0.61022 0.0
C714 C 0.5395 0.44349 0.63413 0.0
C715 C 0.56799 0.45011 0.65362 0.0
C716 C 0.59214 0.47556 0.65065 0.0
C717 C 0.58721 0.49425 0.62911 0.0
C718 C 0.51302 0.41681 0.63651 0.0
C719 C 0.623 0.48339 0.6707 0.0
H720 H 0.56673 0.42611 0.75176 0.0
H721 H 0.60224 0.37707 0.69541 0.0
H722 H 0.56738 0.4809 0.7091 0.0
H723 H 0.52926 0.45769 0.69518 0.0
H724 H 0.54334 0.46008 0.73405 0.0
H725 H 0.60075 0.38296 0.64433 0.0
H726 H 0.57348 0.39981 0.62693 0.0
H727 H 0.61308 0.42051 0.63933 0.0
H728 H 0.51319 0.45746 0.59826 0.0
H729 H 0.60547 0.51394 0.62734 0.0
H730 H 0.50454 0.41758 0.65807 0.0
H731 H 0.52135 0.39799 0.6356 0.0
H732 H 0.49302 0.41394 0.61872 0.0
H733 H 0.61918 0.48675 0.69373 0.0
H734 H 0.64005 0.50297 0.66448 0.0
H735 H 0.63339 0.46581 0.67018 0.0
C736 C 0.90387 0.59651 0.20619 0.0
C737 C 0.92465 0.61869 0.22533 0.0
C738 C 0.91405 0.58391 0.18293 0.0
C739 C 0.94583 0.5937 0.17808 0.0
C740 C 0.9669 0.61597 0.19728 0.0
C741 C 0.95624 0.62786 0.22058 0.0
C742 C 0.89067 0.56005 0.16343 0.0
C743 C 1.00094 0.62736 0.19323 0.0
C744 C 0.98239 0.54692 0.13576 0.0
C745 C 0.98225 0.55765 0.10758 0.0
C746 C 0.96997 0.55786 0.15844 0.0
C747 C 0.95731 0.58056 0.15334 0.0
C748 C 0.95684 0.59133 0.12486 0.0
C749 C 0.96902 0.5797 0.10242 0.0
C750 C 0.9707 0.54523 0.18807 0.0
C751 C 0.94406 0.61568 0.11825 0.0
H752 H 0.87939 0.58917 0.20903 0.0
H753 H 0.97304 0.64433 0.23533 0.0
H754 H 0.88893 0.56617 0.14031 0.0
H755 H 0.89868 0.54099 0.16388 0.0
H756 H 0.867 0.55433 0.17029 0.0
H757 H 1.01423 0.64533 0.2093 0.0
H758 H 1.01207 0.61029 0.19575 0.0
H759 H 1.00293 0.63464 0.17064 0.0
H760 H 0.9923 0.52983 0.14021 0.0
H761 H 0.96874 0.58833 0.08091 0.0
H762 H 0.94685 0.53842 0.19448 0.0
H763 H 0.98581 0.56147 0.2051 0.0
H764 H 0.97969 0.52671 0.18818 0.0
H765 H 0.91959 0.61027 0.123 0.0
H766 H 0.94453 0.62125 0.09495 0.0
H767 H 0.95801 0.63464 0.13274 0.0
C768 C 0.40066 0.21413 0.18821 0.0
C769 C 0.41342 0.22076 0.21797 0.0
C770 C 0.40635 0.19243 0.17192 0.0
C771 C 0.42495 0.17671 0.18578 0.0
C772 C 0.43848 0.18364 0.2156 0.0
C773 C 0.43268 0.20568 0.2313 0.0
C774 C 0.39172 0.18582 0.14007 0.0
C775 C 0.4584 0.16729 0.23112 0.0
C776 C 0.41102 0.1024 0.15253 0.0
C777 C 0.43616 0.1064 0.13639 0.0
C778 C 0.40741 0.12502 0.16909 0.0
C779 C 0.42929 0.15238 0.16929 0.0
C780 C 0.45481 0.15657 0.15322 0.0
C781 C 0.45803 0.13351 0.1371 0.0
C782 C 0.37996 0.11971 0.1861 0.0
C783 C 0.47853 0.18546 0.15281 0.0
H784 H 0.38532 0.2253 0.17782 0.0
H785 H 0.443 0.21092 0.25414 0.0
H786 H 0.40992 0.18612 0.12591 0.0
H787 H 0.37466 0.16419 0.13735 0.0
H788 H 0.37941 0.20111 0.13209 0.0
H789 H 0.46809 0.17596 0.25407 0.0
H790 H 0.44422 0.14476 0.23171 0.0
H791 H 0.4781 0.16764 0.21888 0.0
H792 H 0.39382 0.08164 0.15184 0.0
H793 H 0.47786 0.13671 0.12515 0.0
H794 H 0.36466 0.13239 0.17764 0.0
H795 H 0.38837 0.12661 0.20967 0.0
H796 H 0.36571 0.097 0.18453 0.0
H797 H 0.46669 0.20066 0.14366 0.0
H798 H 0.49723 0.1851 0.13944 0.0
H799 H 0.48956 0.19362 0.17557 0.0
C800 C 0.17073 0.89592 0.60783 0.0
C801 C 0.17234 0.88954 0.63753 0.0
C802 C 0.1497 0.90986 0.59556 0.0
C803 C 0.13017 0.91794 0.61353 0.0
C804 C 0.13076 0.91048 0.64314 0.0
C805 C 0.15152 0.8961 0.65463 0.0
C806 C 0.14927 0.91696 0.5637 0.0
C807 C 0.11049 0.91883 0.66311 0.0
C808 C 0.10519 0.98268 0.59419 0.0
C809 C 0.07379 0.97039 0.58201 0.0
C810 C 0.12372 0.96581 0.60458 0.0
C811 C 0.11072 0.93589 0.60214 0.0
C812 C 0.07905 0.92334 0.5897 0.0
C813 C 0.06084 0.94077 0.58012 0.0
C814 C 0.15721 0.98004 0.61828 0.0
C815 C 0.06455 0.89153 0.58614 0.0
H816 H 0.18674 0.89105 0.59444 0.0
H817 H 0.15196 0.89057 0.67739 0.0
H818 H 0.12488 0.91043 0.55217 0.0
H819 H 0.15902 0.94023 0.56241 0.0
H820 H 0.16321 0.9065 0.55189 0.0
H821 H 0.11271 0.9103 0.68521 0.0
H822 H 0.11719 0.94229 0.66593 0.0
H823 H 0.08556 0.91112 0.65311 0.0
H824 H 0.11529 1.00556 0.59574 0.0
H825 H 0.03665 0.93113 0.57047 0.0
H826 H 0.17335 0.9732 0.60572 0.0
H827 H 0.16091 0.97357 0.64113 0.0
H828 H 0.16363 1.00354 0.61885 0.0
H829 H 0.07806 0.88219 0.57259 0.0
H830 H 0.03978 0.88513 0.57552 0.0
H831 H 0.06551 0.88233 0.60794 0.0
C832 C 0.79363 0.40879 0.96591 0.0
C833 C 0.78438 0.41316 0.93641 0.0
C834 C 0.82336 0.4238 0.98064 0.0
C835 C 0.84397 0.44479 0.9661 0.0
C836 C 0.83397 0.45106 0.93723 0.0
C837 C 0.80455 0.43482 0.92251 0.0
C838 C 0.83324 0.41613 1.01128 0.0
C839 C 0.8548 0.47421 0.92152 0.0
C840 C 0.91437 0.49237 1.01666 0.0
C841 C 0.93751 0.48023 1.01148 0.0
C842 C 0.88413 0.48213 1.00076 0.0
C843 C 0.87673 0.45839 0.98036 0.0
C844 C 0.9003 0.44621 0.97511 0.0
C845 C 0.93063 0.45767 0.9904 0.0
C846 C 0.86006 0.49641 1.00613 0.0
C847 C 0.8932 0.42041 0.95419 0.0
H848 H 0.77792 0.39305 0.97745 0.0
H849 H 0.79795 0.43855 0.89978 0.0
H850 H 0.85381 0.40838 1.01125 0.0
H851 H 0.84042 0.43511 1.02685 0.0
H852 H 0.81429 0.39945 1.01961 0.0
H853 H 0.84189 0.47944 0.90128 0.0
H854 H 0.86518 0.49372 0.9363 0.0
H855 H 0.87439 0.46736 0.91521 0.0
H856 H 0.92007 0.51007 0.03287 0.0
H857 H 0.94877 0.44842 0.9866 0.0
H858 H 0.84272 0.48271 1.01885 0.0
H859 H 0.84713 0.49967 0.98493 0.0
H860 H 0.87087 0.51725 1.01866 0.0
H861 H 0.87492 0.40253 0.96173 0.0
H862 H 0.9142 0.41362 0.95253 0.0
H863 H 0.88384 0.42484 0.93189 0.0
C864 C 0.74261 0.58209 0.44367 0.0
C865 C 0.73746 0.58164 0.41275 0.0
C866 C 0.71766 0.57244 0.4602 0.0
C867 C 0.68645 0.56225 0.44567 0.0
C868 C 0.68112 0.56095 0.4144 0.0
C869 C 0.70664 0.57046 0.39835 0.0
C870 C 0.72471 0.57388 0.49336 0.0
C871 C 0.64833 0.55048 0.3979 0.0
C872 C 0.62199 0.51928 0.48833 0.0
C873 C 0.60913 0.53997 0.49763 0.0
C874 C 0.64699 0.52613 0.47147 0.0
C875 C 0.65947 0.55434 0.4633 0.0
C876 C 0.64654 0.57528 0.47256 0.0
C877 C 0.62178 0.56792 0.48963 0.0
C878 C 0.6601 0.50312 0.46245 0.0
C879 C 0.65875 0.60556 0.46426 0.0
H880 H 0.76633 0.59042 0.45504 0.0
H881 H 0.70232 0.57024 0.37455 0.0
H882 H 0.7146 0.58921 0.50301 0.0
H883 H 0.71368 0.5529 0.50176 0.0
H884 H 0.75024 0.58053 0.50126 0.0
H885 H 0.6481 0.54932 0.37366 0.0
H886 H 0.63587 0.52915 0.40468 0.0
H887 H 0.63503 0.56492 0.40343 0.0
H888 H 0.61253 0.49761 0.49423 0.0
H889 H 0.61199 0.58411 0.49631 0.0
H890 H 0.6853 0.50884 0.47142 0.0
H891 H 0.65832 0.50108 0.43811 0.0
H892 H 0.64773 0.48219 0.4703 0.0
H893 H 0.68391 0.61459 0.47323 0.0
H894 H 0.64585 0.61924 0.4726 0.0
H895 H 0.65684 0.60623 0.43994 0.0
C896 C 0.29092 0.40292 0.15595 0.0
C897 C 0.30735 0.41588 0.18318 0.0
C898 C 0.26734 0.41251 0.14107 0.0
C899 C 0.26016 0.43563 0.15374 0.0
C900 C 0.27875 0.4505 0.17972 0.0
C901 C 0.30211 0.44037 0.19422 0.0
C902 C 0.24812 0.3961 0.11337 0.0
C903 C 0.27219 0.47555 0.19367 0.0
C904 C 0.19987 0.46438 0.11061 0.0
C905 C 0.17259 0.44981 0.1222 0.0
C906 C 0.22874 0.46028 0.12076 0.0
C907 C 0.23024 0.44102 0.14282 0.0
C908 C 0.20282 0.42633 0.15461 0.0
C909 C 0.17445 0.43103 0.1443 0.0
C910 C 0.25754 0.47641 0.10783 0.0
C911 C 0.20341 0.40559 0.17822 0.0
H912 H 0.29469 0.38386 0.14739 0.0
H913 H 0.31508 0.45066 0.21507 0.0
H914 H 0.22503 0.38294 0.11855 0.0
H915 H 0.24376 0.41068 0.09652 0.0
H916 H 0.25971 0.38186 0.10385 0.0
H917 H 0.29183 0.48764 0.21059 0.0
H918 H 0.2678 0.49009 0.17677 0.0
H919 H 0.2508 0.46793 0.20442 0.0
H920 H 0.19861 0.47877 0.09337 0.0
H921 H 0.1537 0.4202 0.15389 0.0
H922 H 0.26679 0.46134 0.09654 0.0
H923 H 0.27621 0.48834 0.12562 0.0
H924 H 0.2527 0.49155 0.09179 0.0
H925 H 0.21205 0.38848 0.17023 0.0
H926 H 0.17995 0.39574 0.18486 0.0
H927 H 0.21976 0.41654 0.198 0.0
C928 C 0.59315 0.18062 0.90011 0.0
C929 C 0.57104 0.194 0.88921 0.0
C930 C 0.58515 0.15687 0.91711 0.0
C931 C 0.55398 0.14554 0.92302 0.0
C932 C 0.53105 0.15777 0.91054 0.0
C933 C 0.53984 0.18189 0.89392 0.0
C934 C 0.61049 0.14477 0.92994 0.0
C935 C 0.49743 0.14608 0.91578 0.0
C936 C 0.53206 0.07197 0.95401 0.0
C937 C 0.53423 0.07873 0.98423 0.0
C938 C 0.53759 0.09336 0.93372 0.0
C939 C 0.54614 0.12228 0.94391 0.0
C940 C 0.54861 0.12913 0.97448 0.0
C941 C 0.54239 0.10733 0.99416 0.0
C942 C 0.53424 0.08501 0.90136 0.0
C943 C 0.55827 0.15959 0.98653 0.0
H944 H 0.61718 0.18927 0.89606 0.0
H945 H 0.52254 0.19198 0.88574 0.0
H946 H 0.61389 0.14772 0.95433 0.0
H947 H 0.60351 0.12166 0.9242 0.0
H948 H 0.63322 0.15504 0.92207 0.0
H949 H 0.48183 0.1558 0.90201 0.0
H950 H 0.48883 0.12276 0.911 0.0
H951 H 0.49577 0.1502 0.93928 0.0
H952 H 0.52559 0.0499 0.94614 0.0
H953 H 0.54424 0.11273 1.01748 0.0
H954 H 0.55702 0.09379 0.89315 0.0
H955 H 0.51736 0.0941 0.88867 0.0
H956 H 0.52609 0.06163 0.8968 0.0
H957 H 0.58178 0.17114 0.98099 0.0
H958 H 0.55902 0.1614 1.01081 0.0
H959 H 0.5417 0.1703 0.97619 0.0
C960 C 0.9609 0.82669 0.4067 0.0
C961 C 0.93165 0.80968 0.41301 0.0
C962 C 0.97426 0.85498 0.41867 0.0
C963 C 0.9587 0.86644 0.43835 0.0
C964 C 0.92904 0.84965 0.44437 0.0
C965 C 0.91559 0.82211 0.431 0.0
C966 C 1.00532 0.87248 0.41058 0.0
C967 C 0.91179 0.86041 0.46579 0.0
C968 C 1.00777 0.92634 0.49467 0.0
C969 C 0.99939 0.94973 0.48418 0.0
C970 C 0.99456 0.89919 0.48018 0.0
C971 C 0.97362 0.89551 0.45355 0.0
C972 C 0.9658 0.91938 0.44242 0.0
C973 C 0.97818 0.94604 0.45825 0.0
C974 C 1.00252 0.87434 0.49378 0.0
C975 C 0.94476 0.91686 0.41354 0.0
H976 H 0.97381 0.81783 0.39293 0.0
H977 H 0.89237 0.81019 0.43515 0.0
H978 H 1.00418 0.89362 0.40407 0.0
H979 H 0.0237 0.87599 0.42995 0.0
H980 H 1.01246 0.86202 0.39224 0.0
H981 H 0.88957 0.84427 0.46916 0.0
H982 H 0.92682 0.8667 0.48744 0.0
H983 H 0.90632 0.87952 0.45774 0.0
H984 H 0.02428 0.9292 0.51467 0.0
H985 H 0.9721 0.96423 0.44983 0.0
H986 H 1.01397 0.86452 0.47849 0.0
H987 H 0.98076 0.85789 0.49766 0.0
H988 H 1.01835 0.88059 0.51504 0.0
H989 H 0.95368 0.90704 0.39602 0.0
H990 H 0.94307 0.93776 0.40666 0.0
H991 H 0.92089 0.90283 0.41535 0.0
C992 C 0.33286 0.70206 0.62176 0.0
C993 C 0.32799 0.7249 0.60646 0.0
C994 C 0.35189 0.68696 0.61233 0.0
C995 C 0.36615 0.69466 0.58676 0.0
C996 C 0.35915 0.71608 0.56979 0.0
C997 C 0.34017 0.73106 0.57992 0.0
C998 C 0.35861 0.66422 0.63106 0.0
C999 C 0.37343 0.72452 0.54209 0.0
C1000 C 0.4457 0.68357 0.58978 0.0
C1001 C 0.4384 0.65734 0.57395 0.0
C1002 C 0.42254 0.69634 0.59321 0.0
C1003 C 0.39126 0.68277 0.58017 0.0
C1004 C 0.38392 0.65693 0.56303 0.0
C1005 C 0.40754 0.64442 0.56026 0.0
C1006 C 0.43139 0.72391 0.61172 0.0
C1007 C 0.35094 0.64199 0.5485 0.0
H1008 H 0.323 0.69693 0.64203 0.0
H1009 H 0.33652 0.74872 0.56803 0.0
H1010 H 0.35542 0.64465 0.61725 0.0
H1011 H 0.38335 0.67163 0.64171 0.0
H1012 H 0.3433 0.65886 0.64855 0.0
H1013 H 0.36173 0.73795 0.52896 0.0
H1014 H 0.39856 0.73668 0.54802 0.0
H1015 H 0.37202 0.70549 0.52817 0.0
H1016 H 0.46959 0.69405 0.59983 0.0
H1017 H 0.40158 0.62405 0.54815 0.0
H1018 H 0.41899 0.72069 0.63134 0.0
H1019 H 0.42404 0.74014 0.59899 0.0
H1020 H 0.45696 0.73232 0.61931 0.0
H1021 H 0.33592 0.63347 0.56558 0.0
H1022 H 0.34985 0.62414 0.53293 0.0
H1023 H 0.34095 0.65709 0.53641 0.0
C1024 C 0.77497 0.74901 0.64848 0.0
C1025 C 0.74329 0.74502 0.63816 0.0
C1026 C 0.79874 0.76884 0.63646 0.0
C1027 C 0.79067 0.78515 0.61362 0.0
C1028 C 0.75891 0.77939 0.60128 0.0
C1029 C 0.73555 0.75938 0.61374 0.0
C1030 C 0.8323 0.77425 0.65025 0.0
C1031 C 0.74937 0.79605 0.57663 0.0
C1032 C 0.84263 0.86133 0.61756 0.0
C1033 C 0.86163 0.86082 0.59583 0.0
C1034 C 0.8193 0.83691 0.62318 0.0
C1035 C 0.81459 0.81122 0.60653 0.0
C1036 C 0.8333 0.81054 0.58421 0.0
C1037 C 0.85666 0.8354 0.57911 0.0
C1038 C 0.79982 0.83861 0.64718 0.0
C1039 C 0.82886 0.78353 0.56602 0.0
H1040 H 0.78127 0.73828 0.66752 0.0
H1041 H 0.71114 0.75606 0.60534 0.0
H1042 H 0.84793 0.7766 0.63309 0.0
H1043 H 0.84012 0.79437 0.6642 0.0
H1044 H 0.83514 0.75694 0.66425 0.0
H1045 H 0.72489 0.78575 0.56607 0.0
H1046 H 0.75125 0.81758 0.58555 0.0
H1047 H 0.76515 0.7986 0.55958 0.0
H1048 H 0.84577 0.88104 0.63006 0.0
H1049 H 0.87132 0.83486 0.56232 0.0
H1050 H 0.80284 0.82385 0.66435 0.0
H1051 H 0.77465 0.83202 0.63795 0.0
H1052 H 0.80625 0.86031 0.65785 0.0
H1053 H 0.83425 0.76744 0.58042 0.0
H1054 H 0.84409 0.78691 0.54841 0.0
H1055 H 0.8041 0.77462 0.55573 0.0
C1056 C 0.65648 0.16883 0.1974 0.0
C1057 C 0.68832 0.17147 0.20527 0.0
C1058 C 0.63871 0.15162 0.17277 0.0
C1059 C 0.65276 0.13584 0.15614 0.0
C1060 C 0.6851 0.1393 0.16302 0.0
C1061 C 0.70261 0.15749 0.18715 0.0
C1062 C 0.60445 0.14915 0.16557 0.0
C1063 C 0.70081 0.12246 0.14608 0.0
C1064 C 0.59755 0.06584 0.12136 0.0
C1065 C 0.59351 0.07175 0.09171 0.0
C1066 C 0.61755 0.08633 0.14238 0.0
C1067 C 0.63293 0.11367 0.13359 0.0
C1068 C 0.62866 0.11981 0.10363 0.0
C1069 C 0.60934 0.09853 0.08288 0.0
C1070 C 0.62213 0.07872 0.174 0.0
C1071 C 0.64374 0.149 0.09366 0.0
H1072 H 0.64483 0.17907 0.21122 0.0
H1073 H 0.72734 0.15996 0.19235 0.0
H1074 H 0.5981 0.15052 0.1416 0.0
H1075 H 0.58998 0.1282 0.17161 0.0
H1076 H 0.59833 0.16592 0.17764 0.0
H1077 H 0.72657 0.12916 0.15274 0.0
H1078 H 0.69117 0.09962 0.14993 0.0
H1079 H 0.69592 0.12466 0.12209 0.0
H1080 H 0.58538 0.04499 0.12802 0.0
H1081 H 0.60582 0.10309 0.05991 0.0
H1082 H 0.61294 0.09179 0.18816 0.0
H1083 H 0.64746 0.08338 0.18203 0.0
H1084 H 0.6101 0.056 0.17677 0.0
H1085 H 0.63552 0.16477 0.10506 0.0
H1086 H 0.63828 0.15021 0.06951 0.0
H1087 H 0.66952 0.15521 0.09971 0.0
C1088 C 0.44759 0.59948 0.35038 0.0
C1089 C 0.46095 0.62904 0.34953 0.0
C1090 C 0.45644 0.58443 0.37373 0.0
C1091 C 0.48078 0.59869 0.39641 0.0
C1092 C 0.49599 0.62814 0.39489 0.0
C1093 C 0.48558 0.64305 0.37179 0.0
C1094 C 0.43908 0.55321 0.37439 0.0
C1095 C 0.52302 0.64398 0.41781 0.0
C1096 C 0.48027 0.5614 0.46858 0.0
C1097 C 0.49822 0.54355 0.46395 0.0
C1098 C 0.47535 0.58035 0.44735 0.0
C1099 C 0.48981 0.58232 0.42141 0.0
C1100 C 0.50982 0.56567 0.41784 0.0
C1101 C 0.51313 0.546 0.43876 0.0
C1102 C 0.45315 0.59696 0.45186 0.0
C1103 C 0.52701 0.56795 0.39144 0.0
H1104 H 0.42962 0.58786 0.33281 0.0
H1105 H 0.49635 0.66574 0.37159 0.0
H1106 H 0.45528 0.54055 0.37268 0.0
H1107 H 0.42974 0.5489 0.39562 0.0
H1108 H 0.41929 0.54569 0.35617 0.0
H1109 H 0.53524 0.66552 0.41128 0.0
H1110 H 0.51436 0.64616 0.439 0.0
H1111 H 0.54016 0.63203 0.42166 0.0
H1112 H 0.46875 0.55945 0.4881 0.0
H1113 H 0.52745 0.53248 0.43542 0.0
H1114 H 0.43248 0.59002 0.43448 0.0
H1115 H 0.46461 0.61987 0.44983 0.0
H1116 H 0.44492 0.59407 0.47372 0.0
H1117 H 0.51034 0.55753 0.37166 0.0
H1118 H 0.54578 0.55769 0.39455 0.0
H1119 H 0.53758 0.59053 0.38704 0.0
C1120 C 0.13931 0.44821 0.86598 0.0
C1121 C 0.11771 0.42625 0.84715 0.0
C1122 C 0.13006 0.46164 0.88927 0.0
C1123 C 0.09838 0.45292 0.89453 0.0
C1124 C 0.07648 0.43088 0.87565 0.0
C1125 C 0.08622 0.41818 0.85227 0.0
C1126 C 0.15432 0.48523 0.90837 0.0
C1127 C 0.04251 0.42056 0.88017 0.0
C1128 C 0.07756 0.46884 0.97075 0.0
C1129 C 0.06524 0.49148 0.96574 0.0
C1130 C 0.0886 0.45634 0.94806 0.0
C1131 C 0.08795 0.46685 0.91946 0.0
C1132 C 0.07619 0.49013 0.91449 0.0
C1133 C 0.06483 0.50189 0.93742 0.0
C1134 C 0.10037 0.43139 0.95456 0.0
C1135 C 0.07537 0.50254 0.88475 0.0
H1136 H 0.16373 0.45472 0.8629 0.0
H1137 H 0.06881 0.40193 0.83779 0.0
H1138 H 0.14703 0.50469 0.90804 0.0
H1139 H 0.15629 0.47923 0.93153 0.0
H1140 H 0.17775 0.49024 0.90107 0.0
H1141 H 0.02848 0.40266 0.86431 0.0
H1142 H 0.04061 0.41355 0.90286 0.0
H1143 H 0.03214 0.43813 0.8777 0.0
H1144 H 0.07798 0.4604 0.99235 0.0
H1145 H 0.05561 0.51942 0.93308 0.0
H1146 H 0.12465 0.436 0.94949 0.0
H1147 H 0.08566 0.41257 0.94025 0.0
H1148 H 0.10003 0.42599 0.97792 0.0
H1149 H 0.09904 0.50858 0.87792 0.0
H1150 H 0.06717 0.52151 0.88471 0.0
H1151 H 0.05956 0.48642 0.86798 0.0
C1152 C 0.58862 0.77278 0.85379 0.0
C1153 C 0.61118 0.77759 0.8346 0.0
C1154 C 0.5837 0.79551 0.86913 0.0
C1155 C 0.60198 0.82362 0.86535 0.0
C1156 C 0.62421 0.82861 0.84544 0.0
C1157 C 0.6285 0.80555 0.8303 0.0
C1158 C 0.55956 0.78943 0.88997 0.0
C1159 C 0.64435 0.85825 0.84097 0.0
C1160 C 0.57874 0.88726 0.88932 0.0
C1161 C 0.59799 0.8959 0.91644 0.0
C1162 C 0.57909 0.86325 0.87276 0.0
C1163 C 0.59943 0.84778 0.88349 0.0
C1164 C 0.61863 0.85626 0.91103 0.0
C1165 C 0.61758 0.88016 0.92723 0.0
C1166 C 0.55806 0.85466 0.84364 0.0
C1167 C 0.64087 0.84049 0.92308 0.0
H1168 H 0.57502 0.75121 0.85699 0.0
H1169 H 0.64633 0.8094 0.81587 0.0
H1170 H 0.57132 0.79574 0.91291 0.0
H1171 H 0.54333 0.80213 0.88497 0.0
H1172 H 0.54567 0.76663 0.88876 0.0
H1173 H 0.65936 0.8586 0.82354 0.0
H1174 H 0.62947 0.87197 0.8349 0.0
H1175 H 0.65965 0.86768 0.86185 0.0
H1176 H 0.56327 0.89922 0.88115 0.0
H1177 H 0.63267 0.88696 0.94808 0.0
H1178 H 0.54357 0.83213 0.84318 0.0
H1179 H 0.57247 0.85658 0.82551 0.0
H1180 H 0.5423 0.86793 0.83926 0.0
H1181 H 0.6279 0.81777 0.92449 0.0
H1182 H 0.65346 0.84929 0.94527 0.0
H1183 H 0.6584 0.84156 0.90795 0.0
C1184 C 0.86278 0.11376 0.4072 0.0
C1185 C 0.86306 0.14074 0.41749 0.0
C1186 C 0.88248 0.09979 0.42177 0.0
C1187 C 0.90242 0.11266 0.44787 0.0
C1188 C 0.90235 0.13953 0.45892 0.0
C1189 C 0.88288 0.15338 0.44345 0.0
C1190 C 0.882 0.07124 0.40913 0.0
C1191 C 0.92283 0.15363 0.48706 0.0
C1192 C 0.92941 0.06181 0.49733 0.0
C1193 C 0.95988 0.06594 0.49093 0.0
C1194 C 0.91089 0.07762 0.48427 0.0
C1195 C 0.92285 0.09758 0.46375 0.0
C1196 C 0.95368 0.10194 0.45728 0.0
C1197 C 0.972 0.08628 0.47126 0.0
C1198 C 0.87841 0.07279 0.49224 0.0
C1199 C 0.96699 0.12258 0.43504 0.0
H1200 H 0.84699 0.10336 0.38766 0.0
H1201 H 0.88356 0.17429 0.45151 0.0
H1202 H 0.90593 0.07182 0.40544 0.0
H1203 H 0.8743 0.05481 0.42497 0.0
H1204 H 0.86612 0.0647 0.38795 0.0
H1205 H 0.91937 0.17415 0.49317 0.0
H1206 H 0.91773 0.13943 0.50539 0.0
H1207 H 0.94781 0.15749 0.48466 0.0
H1208 H 0.92011 0.04639 0.51289 0.0
H1209 H 0.99555 0.08951 0.46628 0.0
H1210 H 0.86071 0.06396 0.47263 0.0
H1211 H 0.87548 0.09322 0.49944 0.0
H1212 H 0.87343 0.05793 0.51008 0.0
H1213 H 0.95263 0.1159 0.41313 0.0
H1214 H 0.99161 0.12403 0.43304 0.0
H1215 H 0.96605 0.14401 0.44129 0.0
C1216 C 0.23835 0.65317 0.14226 0.0
C1217 C 0.2611 0.63966 0.14975 0.0
C1218 C 0.20912 0.63837 0.12637 0.0
C1219 C 0.20255 0.60939 0.11746 0.0
C1220 C 0.22521 0.59545 0.12541 0.0
C1221 C 0.2542 0.61074 0.14167 0.0
C1222 C 0.18541 0.6539 0.11876 0.0
C1223 C 0.21909 0.5646 0.11619 0.0
C1224 C 0.11648 0.56897 0.0953 0.0
C1225 C 0.113 0.57143 0.06475 0.0
C1226 C 0.14578 0.58024 0.11268 0.0
C1227 C 0.17222 0.59415 0.09911 0.0
C1228 C 0.16905 0.59554 0.06809 0.0
C1229 C 0.13941 0.58424 0.05127 0.0
C1230 C 0.14814 0.57835 0.14565 0.0
C1231 C 0.19677 0.60982 0.05277 0.0
H1232 H 0.24349 0.67543 0.14884 0.0
H1233 H 0.27185 0.60031 0.1473 0.0
H1234 H 0.18027 0.65427 0.0945 0.0
H1235 H 0.16311 0.64265 0.12684 0.0
H1236 H 0.1937 0.6761 0.12839 0.0
H1237 H 0.23896 0.55677 0.12448 0.0
H1238 H 0.19774 0.55138 0.12449 0.0
H1239 H 0.21476 0.56155 0.09181 0.0
H1240 H 0.09612 0.55886 0.10577 0.0
H1241 H 0.13682 0.5859 1.02762 0.0
H1242 H 0.15378 0.59989 0.15644 0.0
H1243 H 0.16735 0.56973 0.1539 0.0
H1244 H 0.12603 0.56475 0.15247 0.0
H1245 H 0.20511 0.63287 0.05913 0.0
H1246 H 0.19096 0.60692 1.02841 0.0
H1247 H 0.2164 0.60129 0.05973 0.0
C1248 C 0.33574 0.46633 0.67489 0.0
C1249 C 0.30485 0.45469 0.66083 0.0
C1250 C 0.36102 0.47537 0.65851 0.0
C1251 C 0.35537 0.47325 0.62723 0.0
C1252 C 0.32405 0.46267 0.61302 0.0
C1253 C 0.29934 0.45334 0.6299 0.0
C1254 C 0.39394 0.48614 0.6747 0.0
C1255 C 0.31664 0.46047 0.57986 0.0
C1256 C 0.42054 0.51488 0.58452 0.0
C1257 C 0.43333 0.49386 0.57606 0.0
C1258 C 0.39503 0.5085 0.60077 0.0
C1259 C 0.38217 0.48049 0.60937 0.0
C1260 C 0.39488 0.45918 0.60073 0.0
C1261 C 0.41999 0.46604 0.58408 0.0
C1262 C 0.38198 0.53182 0.60892 0.0
C1263 C 0.38233 0.42912 0.60958 0.0
H1264 H 0.34028 0.46722 0.69873 0.0
H1265 H 0.27554 0.44458 0.61882 0.0
H1266 H 0.40719 0.47158 0.66943 0.0
H1267 H 0.40628 0.50727 0.6674 0.0
H1268 H 0.39443 0.48783 0.69895 0.0
H1269 H 0.29106 0.45402 0.57222 0.0
H1270 H 0.32784 0.48112 0.57088 0.0
H1271 H 0.32632 0.44466 0.57055 0.0
H1272 H 0.43056 0.53646 0.57856 0.0
H1273 H 0.42977 0.44961 0.57809 0.0
H1274 H 0.3847 0.5351 0.63322 0.0
H1275 H 0.35656 0.52565 0.60072 0.0
H1276 H 0.39378 0.55224 0.59976 0.0
H1277 H 0.38438 0.4289 0.63393 0.0
H1278 H 0.39494 0.41506 0.60148 0.0
H1279 H 0.35712 0.42023 0.60077 0.0
C1280 C 0.74156 0.59338 0.86499 0.0
C1281 C 0.7497 0.60382 0.83793 0.0
C1282 C 0.76365 0.58715 0.886 0.0
C1283 C 0.79451 0.59148 0.87975 0.0
C1284 C 0.80246 0.6009 0.85205 0.0
C1285 C 0.78006 0.60706 0.83161 0.0
C1286 C 0.75433 0.57692 0.91523 0.0
C1287 C 0.83511 0.60574 0.84446 0.0
C1288 C 0.86607 0.61085 0.9376 0.0
C1289 C 0.87477 0.58602 0.93703 0.0
C1290 C 0.83865 0.61227 0.92057 0.0
C1291 C 0.81944 0.58825 0.90256 0.0
C1292 C 0.82687 0.5625 0.90355 0.0
C1293 C 0.85454 0.56171 0.92073 0.0
C1294 C 0.83139 0.64007 0.92037 0.0
C1295 C 0.80692 0.53636 0.88487 0.0
H1296 H 0.71807 0.59054 0.86994 0.0
H1297 H 0.78688 0.61567 0.8111 0.0
H1298 H 0.76117 0.55768 0.92036 0.0
H1299 H 0.76688 0.59347 0.93298 0.0
H1300 H 0.72876 0.57201 0.9156 0.0
H1301 H 0.83692 0.61143 0.82131 0.0
H1302 H 0.85195 0.62315 0.85925 0.0
H1303 H 0.84232 0.58642 0.84785 0.0
H1304 H 0.8813 0.62951 0.95067 0.0
H1305 H 0.86116 0.54247 0.92005 0.0
H1306 H 0.80653 0.63665 0.92301 0.0
H1307 H 0.83508 0.64944 0.89886 0.0
H1308 H 0.84646 0.6556 0.9381 0.0
H1309 H 0.78166 0.53343 0.88502 0.0
H1310 H 0.8121 0.51693 0.8925 0.0
H1311 H 0.81155 0.53882 0.86174 0.0
C1312 C 0.5175 0.83224 0.15689 0.0
C1313 C 0.50292 0.83334 0.18185 0.0
C1314 C 0.5256 0.85569 0.13938 0.0
C1315 C 0.51883 0.88089 0.14693 0.0
C1316 C 0.5051 0.88237 0.1728 0.0
C1317 C 0.49711 0.85852 0.18981 0.0
C1318 C 0.54006 0.85302 0.11202 0.0
C1319 C 0.4976 0.90873 0.18186 0.0
C1320 C 0.55889 0.94838 0.11017 0.0
C1321 C 0.53548 0.94929 0.08732 0.0
C1322 C 0.55366 0.92664 0.13004 0.0
C1323 C 0.52442 0.90497 0.12684 0.0
C1324 C 0.50059 0.90601 0.10396 0.0
C1325 C 0.50632 0.9282 0.08466 0.0
C1326 C 0.57956 0.92669 0.15429 0.0
C1327 C 0.46915 0.88334 0.09951 0.0
H1328 H 0.52135 0.81256 0.15038 0.0
H1329 H 0.48523 0.85916 0.20876 0.0
H1330 H 0.52367 0.85411 0.09224 0.0
H1331 H 0.56184 0.8709 0.11192 0.0
H1332 H 0.54566 0.83278 0.11019 0.0
H1333 H 0.48954 0.90744 0.20382 0.0
H1334 H 0.51848 0.92766 0.18243 0.0
H1335 H 0.47895 0.91193 0.16541 0.0
H1336 H 0.58143 0.96466 0.11248 0.0
H1337 H 0.48812 0.92869 0.06706 0.0
H1338 H 0.58668 0.90736 0.15147 0.0
H1339 H 0.5711 0.92619 0.17599 0.0
H1340 H 0.60047 0.9456 0.15459 0.0
H1341 H 0.47227 0.86235 0.09511 0.0
H1342 H 0.45301 0.88728 0.08091 0.0
H1343 H 0.45802 0.88218 0.11983 0.0
C1344 C 0.09453 0.22538 0.63108 0.0
C1345 C 0.10223 0.23089 0.66177 0.0
C1346 C 0.08137 0.19757 0.61825 0.0
C1347 C 0.07548 0.1743 0.63641 0.0
C1348 C 0.08237 0.17968 0.66747 0.0
C1349 C 0.09555 0.20786 0.67978 0.0
C1350 C 0.07415 0.19312 0.58512 0.0
C1351 C 0.07641 0.15559 0.6877 0.0
C1352 C 1.01587 0.10514 0.60189 0.0
C1353 C 0.03497 0.08964 0.59318 0.0
C1354 C 0.0287 0.13224 0.61653 0.0
C1355 C 0.06162 0.14451 0.62267 0.0
C1356 C 0.08109 0.12888 0.61413 0.0
C1357 C 0.06757 0.10167 0.59953 0.0
C1358 C 1.00693 0.14799 0.62494 0.0
C1359 C 0.11627 0.14111 0.61999 0.0
H1360 H 0.09918 0.24299 0.61692 0.0
H1361 H 0.10163 0.2118 0.70344 0.0
H1362 H 0.08763 0.17991 0.57697 0.0
H1363 H 0.04896 0.18152 0.57851 0.0
H1364 H 0.07989 0.21342 0.57407 0.0
H1365 H 0.08242 0.16318 0.7113 0.0
H1366 H 0.05142 0.14257 0.68354 0.0
H1367 H 0.09046 0.14152 0.68312 0.0
H1368 H 0.99065 0.09613 0.59707 0.0
H1369 H 0.08252 0.08994 0.59282 0.0
H1370 H 1.01052 0.16769 0.61297 0.0
H1371 H 1.01222 0.15436 0.64883 0.0
H1372 H 0.98192 0.13507 0.61983 0.0
H1373 H 0.12397 0.16055 0.60782 0.0
H1374 H 0.12818 0.1259 0.61324 0.0
H1375 H 0.12396 0.14736 0.64377 0.0
C1376 C 0.65493 0.27867 0.42842 0.0
C1377 C 0.68743 0.28755 0.43696 0.0
C1378 C 0.63617 0.29376 0.43842 0.0
C1379 C 0.65026 0.31844 0.45737 0.0
C1380 C 0.68295 0.32697 0.46695 0.0
C1381 C 0.70119 0.31131 0.4567 0.0
C1382 C 0.60137 0.28373 0.42797 0.0
C1383 C 0.69877 0.3532 0.48713 0.0
C1384 C 0.60557 0.37219 0.45483 0.0
C1385 C 0.59034 0.3664 0.47981 0.0
C1386 C 0.62579 0.35723 0.44772 0.0
C1387 C 0.6308 0.33587 0.46596 0.0
C1388 C 0.61584 0.33017 0.4914 0.0
C1389 C 0.59587 0.34554 0.49806 0.0
C1390 C 0.6413 0.36391 0.42036 0.0
C1391 C 0.62057 0.30753 0.51135 0.0
H1392 H 0.64422 0.26005 0.41346 0.0
H1393 H 0.72633 0.31826 0.4632 0.0
H1394 H 0.58822 0.28107 0.44707 0.0
H1395 H 0.59475 0.29989 0.4145 0.0
H1396 H 0.59389 0.2633 0.41452 0.0
H1397 H 0.72397 0.35591 0.4941 0.0
H1398 H 0.69672 0.37221 0.47572 0.0
H1399 H 0.68704 0.35229 0.50705 0.0
H1400 H 0.60125 0.38809 0.44048 0.0
H1401 H 0.5847 0.34133 0.51774 0.0
H1402 H 0.63302 0.34512 0.40445 0.0
H1403 H 0.66703 0.36884 0.42596 0.0
H1404 H 0.63629 0.38213 0.4094 0.0
H1405 H 0.61189 0.28653 0.49898 0.0
H1406 H 0.60818 0.30644 0.5309 0.0
H1407 H 0.64587 0.3116 0.51901 0.0
loop_
_geom_bond_atom_site_label_1
_geom_bond_atom_site_label_2
_geom_bond_distance
_geom_bond_site_symmetry_2
_ccdc_geom_bond_type
C0 C1 1.391 . S
C0 C4 1.391 . S
C0 H42 0.948 . S
C1 C0 1.391 . S
C1 C2 1.391 . S
C2 C1 1.391 . S
C2 H58 0.947 . S
C2 C59 1.392 . S
C3 C4 1.391 . S
C3 C7 1.397 . S
C3 C59 1.419 . S
C4 C0 1.391 . S
C4 C3 1.391 . S
C4 C5 1.399 . S
C5 C4 1.399 . S
C5 C8 1.396 . S
C5 C17 1.453 . S
C5 C18 1.684 . S
H6 C30 0.948 . S
C7 C3 1.397 . S
C7 C8 1.394 . S
C7 C26 1.723 . S
C8 C5 1.396 . S
C8 C7 1.394 . S
C8 C38 1.723 . S
H9 C32 0.947 . S
H10 C33 0.948 . S
H11 C39 0.982 . S
H12 C40 0.979 . S
H13 C40 0.980 . S
H14 C40 0.983 . S
H15 C39 0.979 . S
H16 C39 0.977 . S
C17 C5 1.453 . S
C17 H46 0.982 . S
C17 H47 0.979 . S
C17 H48 0.977 . S
C18 C5 1.684 . S
C18 H43 0.979 . S
C18 H44 0.980 . S
C18 H45 0.983 . S
C19 C20 1.391 . S
C19 C24 1.391 . S
C19 H49 0.948 . S
C20 C19 1.391 . S
C20 C21 1.391 . S
C21 C20 1.391 . S
C21 C22 1.392 . S
C21 H50 0.947 . S
C22 C21 1.392 . S
C22 C23 1.419 . S
C22 H51 0.948 . S
C23 C22 1.419 . S
C23 C24 1.391 . S
C23 C27 1.397 . S
C24 C19 1.391 . S
C24 C23 1.391 . S
C24 C25 1.399 . S
C25 C24 1.399 . S
C25 C26 1.396 . S
C25 C28 1.453 . S
C25 C29 1.684 . S
C26 C7 1.723 . S
C26 C25 1.396 . S
C26 C27 1.394 . S
C27 C23 1.397 . S
C27 C26 1.394 . S
C27 C37 1.723 . S
C28 C25 1.453 . S
C28 H52 0.982 . S
C28 H53 0.979 . S
C28 H54 0.977 . S
C29 C25 1.684 . S
C29 H55 0.979 . S
C29 H56 0.980 . S
C29 H57 0.983 . S
C30 H6 0.948 . S
C30 C31 1.391 . S
C30 C35 1.391 . S
C31 C30 1.391 . S
C31 C32 1.391 . S
C32 H9 0.947 . S
C32 C31 1.391 . S
C32 C33 1.392 . S
C33 H10 0.948 . S
C33 C32 1.392 . S
C33 C34 1.419 . S
C34 C33 1.419 . S
C34 C35 1.391 . S
C34 C38 1.397 . S
C35 C30 1.391 . S
C35 C34 1.391 . S
C35 C36 1.399 . S
C36 C35 1.399 . S
C36 C37 1.396 . S
C36 C39 1.453 . S
C36 C40 1.684 . S
C37 C27 1.723 . S
C37 C36 1.396 . S
C37 C38 1.394 . S
C38 C8 1.723 . S
C38 C34 1.397 . S
C38 C37 1.394 . S
C39 H11 0.982 . S
C39 H15 0.979 . S
C39 H16 0.977 . S
C39 C36 1.453 . S
C40 H12 0.979 . S
C40 H13 0.980 . S
C40 H14 0.983 . S
C40 C36 1.684 . S
H41 C59 0.948 . S
H42 C0 0.948 . S
H43 C18 0.979 . S
H44 C18 0.980 . S
H45 C18 0.983 . S
H46 C17 0.982 . S
H47 C17 0.979 . S
H48 C17 0.977 . S
H49 C19 0.948 . S
H50 C21 0.947 . S
H51 C22 0.948 . S
H52 C28 0.982 . S
H53 C28 0.979 . S
H54 C28 0.977 . S
H55 C29 0.979 . S
H56 C29 0.980 . S
H57 C29 0.983 . S
H58 C2 0.947 . S
C59 C2 1.392 . S
C59 C3 1.419 . S
C59 H41 0.948 . S
C60 C61 1.391 . S
C60 C64 1.391 . S
C60 H102 0.948 . S
C61 C60 1.391 . S
C61 C62 1.391 . S
C62 C61 1.391 . S
C62 H118 0.947 . S
C62 C119 1.392 . S
C63 C64 1.391 . S
C63 C67 1.397 . S
C63 C119 1.419 . S
C64 C60 1.391 . S
C64 C63 1.391 . S
C64 C65 1.399 . S
C65 C64 1.399 . S
C65 C68 1.396 . S
C65 C77 1.453 . S
C65 C78 1.684 . S
H66 C90 0.948 . S
C67 C63 1.397 . S
C67 C68 1.394 . S
C67 C86 1.723 . S
C68 C65 1.396 . S
C68 C67 1.394 . S
C68 C98 1.723 . S
H69 C92 0.947 . S
H70 C93 0.948 . S
H71 C99 0.982 . S
H72 C100 0.979 . S
H73 C100 0.980 . S
H74 C100 0.983 . S
H75 C99 0.979 . S
H76 C99 0.977 . S
C77 C65 1.453 . S
C77 H106 0.982 . S
C77 H107 0.979 . S
C77 H108 0.977 . S
C78 C65 1.684 . S
C78 H103 0.979 . S
C78 H104 0.980 . S
C78 H105 0.983 . S
C79 C80 1.391 . S
C79 C84 1.391 . S
C79 H109 0.948 . S
C80 C79 1.391 . S
C80 C81 1.391 . S
C81 C80 1.391 . S
C81 C82 1.392 . S
C81 H110 0.947 . S
C82 C81 1.392 . S
C82 C83 1.419 . S
C82 H111 0.948 . S
C83 C82 1.419 . S
C83 C84 1.391 . S
C83 C87 1.397 . S
C84 C79 1.391 . S
C84 C83 1.391 . S
C84 C85 1.399 . S
C85 C84 1.399 . S
C85 C86 1.396 . S
C85 C88 1.453 . S
C85 C89 1.684 . S
C86 C67 1.723 . S
C86 C85 1.396 . S
C86 C87 1.394 . S
C87 C83 1.397 . S
C87 C86 1.394 . S
C87 C97 1.723 . S
C88 C85 1.453 . S
C88 H112 0.982 . S
C88 H113 0.979 . S
C88 H114 0.977 . S
C89 C85 1.684 . S
C89 H115 0.979 . S
C89 H116 0.980 . S
C89 H117 0.983 . S
C90 H66 0.948 . S
C90 C91 1.391 . S
C90 C95 1.391 . S
C91 C90 1.391 . S
C91 C92 1.391 . S
C92 H69 0.947 . S
C92 C91 1.391 . S
C92 C93 1.392 . S
C93 H70 0.948 . S
C93 C92 1.392 . S
C93 C94 1.419 . S
C94 C93 1.419 . S
C94 C95 1.391 . S
C94 C98 1.397 . S
C95 C90 1.391 . S
C95 C94 1.391 . S
C95 C96 1.399 . S
C96 C95 1.399 . S
C96 C97 1.396 . S
C96 C99 1.453 . S
C96 C100 1.684 . S
C97 C87 1.723 . S
C97 C96 1.396 . S
C97 C98 1.394 . S
C98 C68 1.723 . S
C98 C94 1.397 . S
C98 C97 1.394 . S
C99 H71 0.982 . S
C99 H75 0.979 . S
C99 H76 0.977 . S
C99 C96 1.453 . S
C100 H72 0.979 . S
C100 H73 0.980 . S
C100 H74 0.983 . S
C100 C96 1.684 . S
H101 C119 0.948 . S
H102 C60 0.948 . S
H103 C78 0.979 . S
H104 C78 0.980 . S
H105 C78 0.983 . S
H106 C77 0.982 . S
H107 C77 0.979 . S
H108 C77 0.977 . S
H109 C79 0.948 . S
H110 C81 0.947 . S
H111 C82 0.948 . S
H112 C88 0.982 . S
H113 C88 0.979 . S
H114 C88 0.977 . S
H115 C89 0.979 . S
H116 C89 0.980 . S
H117 C89 0.983 . S
H118 C62 0.947 . S
C119 C62 1.392 . S
C119 C63 1.419 . S
C119 H101 0.948 . S
C120 C121 1.391 . S
C120 C124 1.391 . S
C120 H162 0.948 . S
C121 C120 1.391 . S
C121 C122 1.391 . S
C122 C121 1.391 . S
C122 H178 0.947 . S
C122 C179 1.392 . S
C123 C124 1.391 . S
C123 C127 1.397 . S
C123 C179 1.419 . S
C124 C120 1.391 . S
C124 C123 1.391 . S
C124 C125 1.399 . S
C125 C124 1.399 . S
C125 C128 1.396 . S
C125 C137 1.453 . S
C125 C138 1.684 . S
H126 C150 0.948 . S
C127 C123 1.397 . S
C127 C128 1.394 . S
C127 C146 1.723 . S
C128 C125 1.396 . S
C128 C127 1.394 . S
C128 C158 1.723 . S
H129 C152 0.947 . S
H130 C153 0.948 . S
H131 C159 0.982 . S
H132 C160 0.979 . S
H133 C160 0.980 . S
H134 C160 0.983 . S
H135 C159 0.979 . S
H136 C159 0.977 . S
C137 C125 1.453 . S
C137 H166 0.982 . S
C137 H167 0.979 . S
C137 H168 0.977 . S
C138 C125 1.684 . S
C138 H163 0.979 . S
C138 H164 0.980 . S
C138 H165 0.983 . S
C139 C140 1.391 . S
C139 C144 1.391 . S
C139 H169 0.948 . S
C140 C139 1.391 . S
C140 C141 1.391 . S
C141 C140 1.391 . S
C141 C142 1.392 . S
C141 H170 0.947 . S
C142 C141 1.392 . S
C142 C143 1.419 . S
C142 H171 0.948 . S
C143 C142 1.419 . S
C143 C144 1.391 . S
C143 C147 1.397 . S
C144 C139 1.391 . S
C144 C143 1.391 . S
C144 C145 1.399 . S
C145 C144 1.399 . S
C145 C146 1.396 . S
C145 C148 1.453 . S
C145 C149 1.684 . S
C146 C127 1.723 . S
C146 C145 1.396 . S
C146 C147 1.394 . S
C147 C143 1.397 . S
C147 C146 1.394 . S
C147 C157 1.723 . S
C148 C145 1.453 . S
C148 H172 0.982 . S
C148 H173 0.979 . S
C148 H174 0.977 . S
C149 C145 1.684 . S
C149 H175 0.979 . S
C149 H176 0.980 . S
C149 H177 0.983 . S
C150 H126 0.948 . S
C150 C151 1.391 . S
C150 C155 1.391 . S
C151 C150 1.391 . S
C151 C152 1.391 . S
C152 H129 0.947 . S
C152 C151 1.391 . S
C152 C153 1.392 . S
C153 H130 0.948 . S
C153 C152 1.392 . S
C153 C154 1.419 . S
C154 C153 1.419 . S
C154 C155 1.391 . S
C154 C158 1.397 . S
C155 C150 1.391 . S
C155 C154 1.391 . S
C155 C156 1.399 . S
C156 C155 1.399 . S
C156 C157 1.396 . S
C156 C159 1.453 . S
C156 C160 1.684 . S
C157 C147 1.723 . S
C157 C156 1.396 . S
C157 C158 1.394 . S
C158 C128 1.723 . S
C158 C154 1.397 . S
C158 C157 1.394 . S
C159 H131 0.982 . S
C159 H135 0.979 . S
C159 H136 0.977 . S
C159 C156 1.453 . S
C160 H132 0.979 . S
C160 H133 0.980 . S
C160 H134 0.983 . S
C160 C156 1.684 . S
H161 C179 0.948 . S
H162 C120 0.948 . S
H163 C138 0.979 . S
H164 C138 0.980 . S
H165 C138 0.983 . S
H166 C137 0.982 . S
H167 C137 0.979 . S
H168 C137 0.977 . S
H169 C139 0.948 . S
H170 C141 0.947 . S
H171 C142 0.948 . S
H172 C148 0.982 . S
H173 C148 0.979 . S
H174 C148 0.977 . S
H175 C149 0.979 . S
H176 C149 0.980 . S
H177 C149 0.983 . S
H178 C122 0.947 . S
C179 C122 1.392 . S
C179 C123 1.419 . S
C179 H161 0.948 . S
C180 C181 1.391 . S
C180 C184 1.391 . S
C180 H222 0.948 . S
C181 C180 1.391 . S
C181 C182 1.391 . S
C182 C181 1.391 . S
C182 H238 0.947 . S
C182 C239 1.392 . S
C183 C184 1.391 . S
C183 C187 1.397 . S
C183 C239 1.419 . S
C184 C180 1.391 . S
C184 C183 1.391 . S
C184 C185 1.399 . S
C185 C184 1.399 . S
C185 C188 1.396 . S
C185 C197 1.453 . S
C185 C198 1.684 . S
H186 C210 0.948 . S
C187 C183 1.397 . S
C187 C188 1.394 . S
C187 C206 1.723 . S
C188 C185 1.396 . S
C188 C187 1.394 . S
C188 C218 1.723 . S
H189 C212 0.947 . S
H190 C213 0.948 . S
H191 C219 0.982 . S
H192 C220 0.979 . S
H193 C220 0.980 . S
H194 C220 0.983 . S
H195 C219 0.979 . S
H196 C219 0.977 . S
C197 C185 1.453 . S
C197 H226 0.982 . S
C197 H227 0.979 . S
C197 H228 0.977 . S
C198 C185 1.684 . S
C198 H223 0.979 . S
C198 H224 0.980 . S
C198 H225 0.983 . S
C199 C200 1.391 . S
C199 C204 1.391 . S
C199 H229 0.948 . S
C200 C199 1.391 . S
C200 C201 1.391 . S
C201 C200 1.391 . S
C201 C202 1.392 . S
C201 H230 0.947 . S
C202 C201 1.392 . S
C202 C203 1.419 . S
C202 H231 0.948 . S
C203 C202 1.419 . S
C203 C204 1.391 . S
C203 C207 1.397 . S
C204 C199 1.391 . S
C204 C203 1.391 . S
C204 C205 1.399 . S
C205 C204 1.399 . S
C205 C206 1.396 . S
C205 C208 1.453 . S
C205 C209 1.684 . S
C206 C187 1.723 . S
C206 C205 1.396 . S
C206 C207 1.394 . S
C207 C203 1.397 . S
C207 C206 1.394 . S
C207 C217 1.723 . S
C208 C205 1.453 . S
C208 H232 0.982 . S
C208 H233 0.979 . S
C208 H234 0.977 . S
C209 C205 1.684 . S
C209 H235 0.979 . S
C209 H236 0.980 . S
C209 H237 0.983 . S
C210 H186 0.948 . S
C210 C211 1.391 . S
C210 C215 1.391 . S
C211 C210 1.391 . S
C211 C212 1.391 . S
C212 H189 0.947 . S
C212 C211 1.391 . S
C212 C213 1.392 . S
C213 H190 0.948 . S
C213 C212 1.392 . S
C213 C214 1.419 . S
C214 C213 1.419 . S
C214 C215 1.391 . S
C214 C218 1.397 . S
C215 C210 1.391 . S
C215 C214 1.391 . S
C215 C216 1.399 . S
C216 C215 1.399 . S
C216 C217 1.396 . S
C216 C219 1.453 . S
C216 C220 1.684 . S
C217 C207 1.723 . S
C217 C216 1.396 . S
C217 C218 1.394 . S
C218 C188 1.723 . S
C218 C214 1.397 . S
C218 C217 1.394 . S
C219 H191 0.982 . S
C219 H195 0.979 . S
C219 H196 0.977 . S
C219 C216 1.453 . S
C220 H192 0.979 . S
C220 H193 0.980 . S
C220 H194 0.983 . S
C220 C216 1.684 . S
H221 C239 0.948 . S
H222 C180 0.948 . S
H223 C198 0.979 . S
H224 C198 0.980 . S
H225 C198 0.983 . S
H226 C197 0.982 . S
H227 C197 0.979 . S
H228 C197 0.977 . S
H229 C199 0.948 . S
H230 C201 0.947 . S
H231 C202 0.948 . S
H232 C208 0.982 . S
H233 C208 0.979 . S
H234 C208 0.977 . S
H235 C209 0.979 . S
H236 C209 0.980 . S
H237 C209 0.983 . S
H238 C182 0.947 . S
C239 C182 1.392 . S
C239 C183 1.419 . S
C239 H221 0.948 . S
C240 C241 1.391 . S
C240 C244 1.391 . S
C240 H282 0.948 . S
C241 C240 1.391 . S
C241 C242 1.391 . S
C242 C241 1.391 . S
C242 H298 0.947 . S
C242 C299 1.392 . S
C243 C244 1.391 . S
C243 C247 1.397 . S
C243 C299 1.419 . S
C244 C240 1.391 . S
C244 C243 1.391 . S
C244 C245 1.399 . S
C245 C244 1.399 . S
C245 C248 1.396 . S
C245 C257 1.453 . S
C245 C258 1.684 . S
H246 C270 0.948 . S
C247 C243 1.397 . S
C247 C248 1.394 . S
C247 C266 1.723 . S
C248 C245 1.396 . S
C248 C247 1.394 . S
C248 C278 1.723 . S
H249 C272 0.947 . S
H250 C273 0.948 . S
H251 C279 0.982 . S
H252 C280 0.979 . S
H253 C280 0.980 . S
H254 C280 0.983 . S
H255 C279 0.979 . S
H256 C279 0.977 . S
C257 C245 1.453 . S
C257 H286 0.982 . S
C257 H287 0.979 . S
C257 H288 0.977 . S
C258 C245 1.684 . S
C258 H283 0.979 . S
C258 H284 0.980 . S
C258 H285 0.983 . S
C259 C260 1.391 . S
C259 C264 1.391 . S
C259 H289 0.948 . S
C260 C259 1.391 . S
C260 C261 1.391 . S
C261 C260 1.391 . S
C261 C262 1.392 . S
C261 H290 0.947 . S
C262 C261 1.392 . S
C262 C263 1.419 . S
C262 H291 0.948 . S
C263 C262 1.419 . S
C263 C264 1.391 . S
C263 C267 1.397 . S
C264 C259 1.391 . S
C264 C263 1.391 . S
C264 C265 1.399 . S
C265 C264 1.399 . S
C265 C266 1.396 . S
C265 C268 1.453 . S
C265 C269 1.684 . S
C266 C247 1.723 . S
C266 C265 1.396 . S
C266 C267 1.394 . S
C267 C263 1.397 . S
C267 C266 1.394 . S
C267 C277 1.723 . S
C268 C265 1.453 . S
C268 H292 0.982 . S
C268 H293 0.979 . S
C268 H294 0.977 . S
C269 C265 1.684 . S
C269 H295 0.979 . S
C269 H296 0.980 . S
C269 H297 0.983 . S
C270 H246 0.948 . S
C270 C271 1.391 . S
C270 C275 1.391 . S
C271 C270 1.391 . S
C271 C272 1.391 . S
C272 H249 0.947 . S
C272 C271 1.391 . S
C272 C273 1.392 . S
C273 H250 0.948 . S
C273 C272 1.392 . S
C273 C274 1.419 . S
C274 C273 1.419 . S
C274 C275 1.391 . S
C274 C278 1.397 . S
C275 C270 1.391 . S
C275 C274 1.391 . S
C275 C276 1.399 . S
C276 C275 1.399 . S
C276 C277 1.396 . S
C276 C279 1.453 . S
C276 C280 1.684 . S
C277 C267 1.723 . S
C277 C276 1.396 . S
C277 C278 1.394 . S
C278 C248 1.723 . S
C278 C274 1.397 . S
C278 C277 1.394 . S
C279 H251 0.982 . S
C279 H255 0.979 . S
C279 H256 0.977 . S
C279 C276 1.453 . S
C280 H252 0.979 . S
C280 H253 0.980 . S
C280 H254 0.983 . S
C280 C276 1.684 . S
H281 C299 0.948 . S
H282 C240 0.948 . S
H283 C258 0.979 . S
H284 C258 0.980 . S
H285 C258 0.983 . S
H286 C257 0.982 . S
H287 C257 0.979 . S
H288 C257 0.977 . S
H289 C259 0.948 . S
H290 C261 0.947 . S
H291 C262 0.948 . S
H292 C268 0.982 . S
H293 C268 0.979 . S
H294 C268 0.977 . S
H295 C269 0.979 . S
H296 C269 0.980 . S
H297 C269 0.983 . S
H298 C242 0.947 . S
C299 C242 1.392 . S
C299 C243 1.419 . S
C299 H281 0.948 . S
C300 C301 1.391 . S
C300 C304 1.391 . S
C300 H342 0.948 . S
C301 C300 1.391 . S
C301 C302 1.391 . S
C302 C301 1.391 . S
C302 H358 0.947 . S
C302 C359 1.392 . S
C303 C304 1.391 . S
C303 C307 1.397 . S
C303 C359 1.419 . S
C304 C300 1.391 . S
C304 C303 1.391 . S
C304 C305 1.399 . S
C305 C304 1.399 . S
C305 C308 1.396 . S
C305 C317 1.453 . S
C305 C318 1.684 . S
H306 C330 0.948 . S
C307 C303 1.397 . S
C307 C308 1.394 . S
C307 C326 1.723 . S
C308 C305 1.396 . S
C308 C307 1.394 . S
C308 C338 1.723 . S
H309 C332 0.947 . S
H310 C333 0.948 . S
H311 C339 0.982 . S
H312 C340 0.979 . S
H313 C340 0.980 . S
H314 C340 0.983 . S
H315 C339 0.979 . S
H316 C339 0.977 . S
C317 C305 1.453 . S
C317 H346 0.982 . S
C317 H347 0.979 . S
C317 H348 0.977 . S
C318 C305 1.684 . S
C318 H343 0.979 . S
C318 H344 0.980 . S
C318 H345 0.983 . S
C319 C320 1.391 . S
C319 C324 1.391 . S
C319 H349 0.948 . S
C320 C319 1.391 . S
C320 C321 1.391 . S
C321 C320 1.391 . S
C321 C322 1.392 . S
C321 H350 0.947 . S
C322 C321 1.392 . S
C322 C323 1.419 . S
C322 H351 0.948 . S
C323 C322 1.419 . S
C323 C324 1.391 . S
C323 C327 1.397 . S
C324 C319 1.391 . S
C324 C323 1.391 . S
C324 C325 1.399 . S
C325 C324 1.399 . S
C325 C326 1.396 . S
C325 C328 1.453 . S
C325 C329 1.684 . S
C326 C307 1.723 . S
C326 C325 1.396 . S
C326 C327 1.394 . S
C327 C323 1.397 . S
C327 C326 1.394 . S
C327 C337 1.723 . S
C328 C325 1.453 . S
C328 H352 0.982 . S
C328 H353 0.979 . S
C328 H354 0.977 . S
C329 C325 1.684 . S
C329 H355 0.979 . S
C329 H356 0.980 . S
C329 H357 0.983 . S
C330 H306 0.948 . S
C330 C331 1.391 . S
C330 C335 1.391 . S
C331 C330 1.391 . S
C331 C332 1.391 . S
C332 H309 0.947 . S
C332 C331 1.391 . S
C332 C333 1.392 . S
C333 H310 0.948 . S
C333 C332 1.392 . S
C333 C334 1.419 . S
C334 C333 1.419 . S
C334 C335 1.391 . S
C334 C338 1.397 . S
C335 C330 1.391 . S
C335 C334 1.391 . S
C335 C336 1.399 . S
C336 C335 1.399 . S
C336 C337 1.396 . S
C336 C339 1.453 . S
C336 C340 1.684 . S
C337 C327 1.723 . S
C337 C336 1.396 . S
C337 C338 1.394 . S
C338 C308 1.723 . S
C338 C334 1.397 . S
C338 C337 1.394 . S
C339 H311 0.982 . S
C339 H315 0.979 . S
C339 H316 0.977 . S
C339 C336 1.453 . S
C340 H312 0.979 . S
C340 H313 0.980 . S
C340 H314 0.983 . S
C340 C336 1.684 . S
H341 C359 0.948 . S
H342 C300 0.948 . S
H343 C318 0.979 . S
H344 C318 0.980 . S
H345 C318 0.983 . S
H346 C317 0.982 . S
H347 C317 0.979 . S
H348 C317 0.977 . S
H349 C319 0.948 . S
H350 C321 0.947 . S
H351 C322 0.948 . S
H352 C328 0.982 . S
H353 C328 0.979 . S
H354 C328 0.977 . S
H355 C329 0.979 . S
H356 C329 0.980 . S
H357 C329 0.983 . S
H358 C302 0.947 . S
C359 C302 1.392 . S
C359 C303 1.419 . S
C359 H341 0.948 . S
C360 C361 1.391 . S
C360 C364 1.391 . S
C360 H402 0.948 . S
C361 C360 1.391 . S
C361 C362 1.391 . S
C362 C361 1.391 . S
C362 H418 0.947 . S
C362 C419 1.392 . S
C363 C364 1.391 . S
C363 C367 1.397 . S
C363 C419 1.419 . S
C364 C360 1.391 . S
C364 C363 1.391 . S
C364 C365 1.399 . S
C365 C364 1.399 . S
C365 C368 1.396 . S
C365 C377 1.453 . S
C365 C378 1.684 . S
H366 C390 0.948 . S
C367 C363 1.397 . S
C367 C368 1.394 . S
C367 C386 1.723 . S
C368 C365 1.396 . S
C368 C367 1.394 . S
C368 C398 1.723 . S
H369 C392 0.947 . S
H370 C393 0.948 . S
H371 C399 0.982 . S
H372 C400 0.979 . S
H373 C400 0.980 . S
H374 C400 0.983 . S
H375 C399 0.979 . S
H376 C399 0.977 . S
C377 C365 1.453 . S
C377 H406 0.982 . S
C377 H407 0.979 . S
C377 H408 0.977 . S
C378 C365 1.684 . S
C378 H403 0.979 . S
C378 H404 0.980 . S
C378 H405 0.983 . S
C379 C380 1.391 . S
C379 C384 1.391 . S
C379 H409 0.948 . S
C380 C379 1.391 . S
C380 C381 1.391 . S
C381 C380 1.391 . S
C381 C382 1.392 . S
C381 H410 0.947 . S
C382 C381 1.392 . S
C382 C383 1.419 . S
C382 H411 0.948 . S
C383 C382 1.419 . S
C383 C384 1.391 . S
C383 C387 1.397 . S
C384 C379 1.391 . S
C384 C383 1.391 . S
C384 C385 1.399 . S
C385 C384 1.399 . S
C385 C386 1.396 . S
C385 C388 1.453 . S
C385 C389 1.684 . S
C386 C367 1.723 . S
C386 C385 1.396 . S
C386 C387 1.394 . S
C387 C383 1.397 . S
C387 C386 1.394 . S
C387 C397 1.723 . S
C388 C385 1.453 . S
C388 H412 0.982 . S
C388 H413 0.979 . S
C388 H414 0.977 . S
C389 C385 1.684 . S
C389 H415 0.979 . S
C389 H416 0.980 . S
C389 H417 0.983 . S
C390 H366 0.948 . S
C390 C391 1.391 . S
C390 C395 1.391 . S
C391 C390 1.391 . S
C391 C392 1.391 . S
C392 H369 0.947 . S
C392 C391 1.391 . S
C392 C393 1.392 . S
C393 H370 0.948 . S
C393 C392 1.392 . S
C393 C394 1.419 . S
C394 C393 1.419 . S
C394 C395 1.391 . S
C394 C398 1.397 . S
C395 C390 1.391 . S
C395 C394 1.391 . S
C395 C396 1.399 . S
C396 C395 1.399 . S
C396 C397 1.396 . S
C396 C399 1.453 . S
C396 C400 1.684 . S
C397 C387 1.723 . S
C397 C396 1.396 . S
C397 C398 1.394 . S
C398 C368 1.723 . S
C398 C394 1.397 . S
C398 C397 1.394 . S
C399 H371 0.982 . S
C399 H375 0.979 . S
C399 H376 0.977 . S
C399 C396 1.453 . S
C400 H372 0.979 . S
C400 H373 0.980 . S
C400 H374 0.983 . S
C400 C396 1.684 . S
H401 C419 0.948 . S
H402 C360 0.948 . S
H403 C378 0.979 . S
H404 C378 0.980 . S
H405 C378 0.983 . S
H406 C377 0.982 . S
H407 C377 0.979 . S
H408 C377 0.977 . S
H409 C379 0.948 . S
H410 C381 0.947 . S
H411 C382 0.948 . S
H412 C388 0.982 . S
H413 C388 0.979 . S
H414 C388 0.977 . S
H415 C389 0.979 . S
H416 C389 0.980 . S
H417 C389 0.983 . S
H418 C362 0.947 . S
C419 C362 1.392 . S
C419 C363 1.419 . S
C419 H401 0.948 . S
C420 C421 1.391 . S
C420 C424 1.391 . S
C420 H462 0.948 . S
C421 C420 1.391 . S
C421 C422 1.391 . S
C422 C421 1.391 . S
C422 H478 0.947 . S
C422 C479 1.392 . S
C423 C424 1.391 . S
C423 C427 1.397 . S
C423 C479 1.419 . S
C424 C420 1.391 . S
C424 C423 1.391 . S
C424 C425 1.399 . S
C425 C424 1.399 . S
C425 C428 1.396 . S
C425 C437 1.453 . S
C425 C438 1.684 . S
H426 C450 0.948 . S
C427 C423 1.397 . S
C427 C428 1.394 . S
C427 C446 1.723 . S
C428 C425 1.396 . S
C428 C427 1.394 . S
C428 C458 1.723 . S
H429 C452 0.947 . S
H430 C453 0.948 . S
H431 C459 0.982 . S
H432 C460 0.979 . S
H433 C460 0.980 . S
H434 C460 0.983 . S
H435 C459 0.979 . S
H436 C459 0.977 . S
C437 C425 1.453 . S
C437 H466 0.982 . S
C437 H467 0.979 . S
C437 H468 0.977 . S
C438 C425 1.684 . S
C438 H463 0.979 . S
C438 H464 0.980 . S
C438 H465 0.983 . S
C439 C440 1.391 . S
C439 C444 1.391 . S
C439 H469 0.948 . S
C440 C439 1.391 . S
C440 C441 1.391 . S
C441 C440 1.391 . S
C441 C442 1.392 . S
C441 H470 0.947 . S
C442 C441 1.392 . S
C442 C443 1.419 . S
C442 H471 0.948 . S
C443 C442 1.419 . S
C443 C444 1.391 . S
C443 C447 1.397 . S
C444 C439 1.391 . S
C444 C443 1.391 . S
C444 C445 1.399 . S
C445 C444 1.399 . S
C445 C446 1.396 . S
C445 C448 1.453 . S
C445 C449 1.684 . S
C446 C427 1.723 . S
C446 C445 1.396 . S
C446 C447 1.394 . S
C447 C443 1.397 . S
C447 C446 1.394 . S
C447 C457 1.723 . S
C448 C445 1.453 . S
C448 H472 0.982 . S
C448 H473 0.979 . S
C448 H474 0.977 . S
C449 C445 1.684 . S
C449 H475 0.979 . S
C449 H476 0.980 . S
C449 H477 0.983 . S
C450 H426 0.948 . S
C450 C451 1.391 . S
C450 C455 1.391 . S
C451 C450 1.391 . S
C451 C452 1.391 . S
C452 H429 0.947 . S
C452 C451 1.391 . S
C452 C453 1.392 . S
C453 H430 0.948 . S
C453 C452 1.392 . S
C453 C454 1.419 . S
C454 C453 1.419 . S
C454 C455 1.391 . S
C454 C458 1.397 . S
C455 C450 1.391 . S
C455 C454 1.391 . S
C455 C456 1.399 . S
C456 C455 1.399 . S
C456 C457 1.396 . S
C456 C459 1.453 . S
C456 C460 1.684 . S
C457 C447 1.723 . S
C457 C456 1.396 . S
C457 C458 1.394 . S
C458 C428 1.723 . S
C458 C454 1.397 . S
C458 C457 1.394 . S
C459 H431 0.982 . S
C459 H435 0.979 . S
C459 H436 0.977 . S
C459 C456 1.453 . S
C460 H432 0.979 . S
C460 H433 0.980 . S
C460 H434 0.983 . S
C460 C456 1.684 . S
H461 C479 0.948 . S
H462 C420 0.948 . S
H463 C438 0.979 . S
H464 C438 0.980 . S
H465 C438 0.983 . S
H466 C437 0.982 . S
H467 C437 0.979 . S
H468 C437 0.977 . S
H469 C439 0.948 . S
H470 C441 0.947 . S
H471 C442 0.948 . S
H472 C448 0.982 . S
H473 C448 0.979 . S
H474 C448 0.977 . S
H475 C449 0.979 . S
H476 C449 0.980 . S
H477 C449 0.983 . S
H478 C422 0.947 . S
C479 C422 1.392 . S
C479 C423 1.419 . S
C479 H461 0.948 . S
Pr480 C482 2.880 . S
Pr480 O500 2.562 . S
Pr480 O501 2.490 . S
Pr480 O502 2.695 1_665 S
Pr480 O503 2.512 1_665 S
Pr480 O505 2.437 1_655 S
Pr480 O508 2.436 . S
Pr480 O510 2.438 1_565 S
Pr481 C491 2.880 . S
Pr481 O502 2.436 . S
Pr481 O504 2.438 1_545 S
Pr481 O506 2.562 . S
Pr481 O507 2.490 . S
Pr481 O508 2.695 1_445 S
Pr481 O509 2.507 1_445 S
Pr481 O511 2.437 1_455 S
C482 Pr480 2.880 . S
C482 C483 1.491 . S
C482 O500 1.254 . S
C482 O501 1.225 . S
C483 C482 1.491 . S
C483 C484 1.392 . S
C483 C488 1.356 . S
C484 C483 1.392 . S
C484 C485 1.368 . S
C484 H512 0.929 . S
C485 C484 1.368 . S
C485 C486 1.386 . S
C485 H513 0.929 . S
C486 C485 1.386 . S
C486 C487 1.373 . S
C487 C486 1.373 . S
C487 C488 1.409 . S
C487 H514 0.931 . S
C488 C483 1.356 . S
C488 C487 1.409 . S
C488 H515 0.930 . S
C489 O502 1.270 . S
C489 O503 1.248 . S
C490 O504 1.267 . S
C490 O505 1.278 . S
C491 Pr481 2.880 . S
C491 C492 1.491 . S
C491 O506 1.254 . S
C491 O507 1.225 . S
C492 C491 1.491 . S
C492 C493 1.392 . S
C492 C497 1.356 . S
C493 C492 1.392 . S
C493 C494 1.368 . S
C493 H516 0.929 . S
C494 C493 1.368 . S
C494 C495 1.386 . S
C494 H517 0.929 . S
C495 C494 1.386 . S
C495 C496 1.373 . S
C496 C495 1.373 . S
C496 C497 1.409 . S
C496 H518 0.931 . S
C497 C492 1.356 . S
C497 C496 1.409 . S
C497 H519 0.930 . S
C498 O508 1.270 . S
C498 O509 1.264 . S
C499 O510 1.267 . S
C499 O511 1.278 . S
O500 Pr480 2.562 . S
O500 C482 1.254 . S
O501 Pr480 2.490 . S
O501 C482 1.225 . S
O502 Pr480 2.695 1_445 S
O502 Pr481 2.436 . S
O502 C489 1.270 . S
O503 Pr480 2.512 1_445 S
O503 C489 1.248 . S
O504 Pr481 2.438 1_565 S
O504 C490 1.267 . S
O505 Pr480 2.437 1_455 S
O505 C490 1.278 . S
O506 Pr481 2.562 . S
O506 C491 1.254 . S
O507 Pr481 2.490 . S
O507 C491 1.225 . S
O508 Pr480 2.436 . S
O508 Pr481 2.695 1_665 S
O508 C498 1.270 . S
O509 Pr481 2.507 1_665 S
O509 C498 1.264 . S
O510 Pr480 2.438 1_545 S
O510 C499 1.267 . S
O511 Pr481 2.437 1_655 S
O511 C499 1.278 . S
H512 C484 0.929 . S
H513 C485 0.929 . S
H514 C487 0.931 . S
H515 C488 0.930 . S
H516 C493 0.929 . S
H517 C494 0.929 . S
H518 C496 0.931 . S
H519 C497 0.930 . S
Pr520 C522 2.878 1_556 S
Pr520 O540 2.560 1_556 S
Pr520 O541 2.489 1_556 S
Pr520 O542 2.697 . S
Pr520 O543 2.514 . S
Pr520 O545 2.436 1_556 S
Pr520 O548 2.434 1_546 S
Pr520 O550 2.440 1_545 S
Pr521 C531 2.866 1_554 S
Pr521 O542 2.428 1_564 S
Pr521 O544 2.451 1_565 S
Pr521 O546 2.545 1_554 S
Pr521 O547 2.483 1_554 S
Pr521 O548 2.706 . S
Pr521 O549 2.525 . S
Pr521 O551 2.429 1_554 S
C522 Pr520 2.878 1_554 S
C522 C523 1.491 . S
C522 O540 1.254 . S
C522 O541 1.225 . S
C523 C522 1.491 . S
C523 C524 1.392 . S
C523 C528 1.356 . S
C524 C523 1.392 . S
C524 C525 1.368 . S
C524 H552 0.929 . S
C525 C524 1.368 . S
C525 C526 1.386 . S
C525 H553 0.929 . S
C526 C525 1.386 . S
C526 C527 1.373 . S
C527 C526 1.373 . S
C527 C528 1.409 . S
C527 H554 0.931 . S
C528 C523 1.356 . S
C528 C527 1.409 . S
C528 H555 0.930 . S
C529 O542 1.270 . S
C529 O543 1.248 . S
C530 O544 1.267 . S
C530 O545 1.278 . S
C531 Pr521 2.866 1_556 S
C531 C532 1.491 . S
C531 O546 1.254 . S
C531 O547 1.225 . S
C532 C531 1.491 . S
C532 C533 1.392 . S
C532 C537 1.356 . S
C533 C532 1.392 . S
C533 C534 1.368 . S
C533 H556 0.929 . S
C534 C533 1.368 . S
C534 C535 1.386 . S
C534 H557 0.929 . S
C535 C534 1.386 . S
C535 C536 1.373 . S
C536 C535 1.373 . S
C536 C537 1.409 . S
C536 H558 0.931 . S
C537 C532 1.356 . S
C537 C536 1.409 . S
C537 H559 0.930 . S
C538 O548 1.270 . S
C538 O549 1.248 . S
C539 O550 1.267 . S
C539 O551 1.278 . S
O540 Pr520 2.560 1_554 S
O540 C522 1.254 . S
O541 Pr520 2.489 1_554 S
O541 C522 1.225 . S
O542 Pr520 2.697 . S
O542 Pr521 2.428 1_546 S
O542 C529 1.270 . S
O543 Pr520 2.514 . S
O543 C529 1.248 . S
O544 Pr521 2.451 1_545 S
O544 C530 1.267 . S
O545 Pr520 2.436 1_554 S
O545 C530 1.278 . S
O546 Pr521 2.545 1_556 S
O546 C531 1.254 . S
O547 Pr521 2.483 1_556 S
O547 C531 1.225 . S
O548 Pr520 2.434 1_564 S
O548 Pr521 2.706 . S
O548 C538 1.270 . S
O549 Pr521 2.525 . S
O549 C538 1.248 . S
O550 Pr520 2.440 1_565 S
O550 C539 1.267 . S
O551 Pr521 2.429 1_556 S
O551 C539 1.278 . S
H552 C524 0.929 . S
H553 C525 0.929 . S
H554 C527 0.931 . S
H555 C528 0.930 . S
H556 C533 0.929 . S
H557 C534 0.929 . S
H558 C536 0.931 . S
H559 C537 0.930 . S
Pr560 C562 2.880 . S
Pr560 O580 2.562 . S
Pr560 O581 2.490 . S
Pr560 O582 2.695 . S
Pr560 O583 2.512 . S
Pr560 O585 2.437 . S
Pr560 O588 2.436 . S
Pr560 O590 2.438 . S
Pr561 C571 2.880 . S
Pr561 O582 2.436 . S
Pr561 O584 2.438 . S
Pr561 O586 2.562 . S
Pr561 O587 2.490 . S
Pr561 O588 2.695 . S
Pr561 O589 2.512 . S
Pr561 O591 2.437 . S
C562 Pr560 2.880 . S
C562 C563 1.491 . S
C562 O580 1.254 . S
C562 O581 1.225 . S
C563 C562 1.491 . S
C563 C564 1.392 . S
C563 C568 1.356 . S
C564 C563 1.392 . S
C564 C565 1.368 . S
C564 H592 0.929 . S
C565 C564 1.368 . S
C565 C566 1.386 . S
C565 H593 0.929 . S
C566 C565 1.386 . S
C566 C567 1.373 . S
C567 C566 1.373 . S
C567 C568 1.409 . S
C567 H594 0.931 . S
C568 C563 1.356 . S
C568 C567 1.409 . S
C568 H595 0.930 . S
C569 O582 1.270 . S
C569 O583 1.248 . S
C570 O584 1.267 . S
C570 O585 1.278 . S
C571 Pr561 2.880 . S
C571 C572 1.491 . S
C571 O586 1.254 . S
C571 O587 1.225 . S
C572 C571 1.491 . S
C572 C573 1.392 . S
C572 C577 1.356 . S
C573 C572 1.392 . S
C573 C574 1.368 . S
C573 H596 0.929 . S
C574 C573 1.368 . S
C574 C575 1.386 . S
C574 H597 0.929 . S
C575 C574 1.386 . S
C575 C576 1.373 . S
C576 C575 1.373 . S
C576 C577 1.409 . S
C576 H598 0.931 . S
C577 C572 1.356 . S
C577 C576 1.409 . S
C577 H599 0.930 . S
C578 O588 1.270 . S
C578 O589 1.248 . S
C579 O590 1.267 . S
C579 O591 1.278 . S
O580 Pr560 2.562 . S
O580 C562 1.254 . S
O581 Pr560 2.490 . S
O581 C562 1.225 . S
O582 Pr560 2.695 . S
O582 Pr561 2.436 . S
O582 C569 1.270 . S
O583 Pr560 2.512 . S
O583 C569 1.248 . S
O584 Pr561 2.438 . S
O584 C570 1.267 . S
O585 Pr560 2.437 . S
O585 C570 1.278 . S
O586 Pr561 2.562 . S
O586 C571 1.254 . S
O587 Pr561 2.490 . S
O587 C571 1.225 . S
O588 Pr560 2.436 . S
O588 Pr561 2.695 . S
O588 C578 1.270 . S
O589 Pr561 2.512 . S
O589 C578 1.248 . S
O590 Pr560 2.438 . S
O590 C579 1.267 . S
O591 Pr561 2.437 . S
O591 C579 1.278 . S
H592 C564 0.929 . S
H593 C565 0.929 . S
H594 C567 0.931 . S
H595 C568 0.930 . S
H596 C573 0.929 . S
H597 C574 0.929 . S
H598 C576 0.931 . S
H599 C577 0.930 . S
Pr600 C602 2.880 . S
Pr600 O620 2.562 . S
Pr600 O621 2.490 . S
Pr600 O622 2.695 1_656 S
Pr600 O623 2.512 1_656 S
Pr600 O625 2.437 1_556 S
Pr600 O628 2.436 . S
Pr600 O630 2.438 1_655 S
Pr601 C611 2.880 . S
Pr601 O622 2.436 . S
Pr601 O624 2.438 1_455 S
Pr601 O626 2.562 . S
Pr601 O627 2.490 . S
Pr601 O628 2.695 1_454 S
Pr601 O629 2.512 1_454 S
Pr601 O631 2.437 1_554 S
C602 Pr600 2.880 . S
C602 C603 1.491 . S
C602 O620 1.254 . S
C602 O621 1.225 . S
C603 C602 1.491 . S
C603 C604 1.392 . S
C603 C608 1.356 . S
C604 C603 1.392 . S
C604 C605 1.368 . S
C604 H632 0.929 . S
C605 C604 1.368 . S
C605 C606 1.386 . S
C605 H633 0.929 . S
C606 C605 1.386 . S
C606 C607 1.373 . S
C607 C606 1.373 . S
C607 C608 1.409 . S
C607 H634 0.931 . S
C608 C603 1.356 . S
C608 C607 1.409 . S
C608 H635 0.930 . S
C609 O622 1.270 . S
C609 O623 1.248 . S
C610 O624 1.267 . S
C610 O625 1.278 . S
C611 Pr601 2.880 . S
C611 C612 1.491 . S
C611 O626 1.254 . S
C611 O627 1.225 . S
C612 C611 1.491 . S
C612 C613 1.392 . S
C612 C617 1.356 . S
C613 C612 1.392 . S
C613 C614 1.368 . S
C613 H636 0.929 . S
C614 C613 1.368 . S
C614 C615 1.386 . S
C614 H637 0.929 . S
C615 C614 1.386 . S
C615 C616 1.373 . S
C616 C615 1.373 . S
C616 C617 1.409 . S
C616 H638 0.931 . S
C617 C612 1.356 . S
C617 C616 1.409 . S
C617 H639 0.930 . S
C618 O628 1.270 . S
C618 O629 1.248 . S
C619 O630 1.267 . S
C619 O631 1.278 . S
O620 Pr600 2.562 . S
O620 C602 1.254 . S
O621 Pr600 2.490 . S
O621 C602 1.225 . S
O622 Pr600 2.695 1_454 S
O622 Pr601 2.436 . S
O622 C609 1.270 . S
O623 Pr600 2.512 1_454 S
O623 C609 1.248 . S
O624 Pr601 2.438 1_655 S
O624 C610 1.267 . S
O625 Pr600 2.437 1_554 S
O625 C610 1.278 . S
O626 Pr601 2.562 . S
O626 C611 1.254 . S
O627 Pr601 2.490 . S
O627 C611 1.225 . S
O628 Pr600 2.436 . S
O628 Pr601 2.695 1_656 S
O628 C618 1.270 . S
O629 Pr601 2.512 1_656 S
O629 C618 1.248 . S
O630 Pr600 2.438 1_455 S
O630 C619 1.267 . S
O631 Pr601 2.437 1_556 S
O631 C619 1.278 . S
H632 C604 0.929 . S
H633 C605 0.929 . S
H634 C607 0.931 . S
H635 C608 0.930 . S
H636 C613 0.929 . S
H637 C614 0.929 . S
H638 C616 0.931 . S
H639 C617 0.930 . S
C640 C641 1.391 . S
C640 C642 1.394 . S
C640 H656 0.931 . S
C641 C640 1.391 . S
C641 C645 1.376 . S
C642 C640 1.394 . S
C642 C643 1.369 . S
C642 C646 1.531 . S
C643 C642 1.369 . S
C643 C644 1.410 . S
C643 C651 1.503 . S
C644 C643 1.410 . S
C644 C645 1.392 . S
C644 C647 1.511 . S
C645 C641 1.376 . S
C645 C644 1.392 . S
C645 H657 0.929 . S
C646 C642 1.531 . S
C646 H658 0.960 . S
C646 H659 0.962 . S
C646 H660 0.960 . S
C647 C644 1.511 . S
C647 H661 0.961 . S
C647 H662 0.961 . S
C647 H663 0.961 . S
C648 C649 1.370 . S
C648 C650 1.363 . S
C648 H664 0.931 . S
C649 C648 1.370 . S
C649 C653 1.408 . S
C650 C648 1.363 . S
C650 C651 1.370 . S
C650 C654 1.524 . S
C651 C643 1.503 . S
C651 C650 1.370 . S
C651 C652 1.403 . S
C652 C651 1.403 . S
C652 C653 1.404 . S
C652 C655 1.539 . S
C653 C649 1.408 . S
C653 C652 1.404 . S
C653 H665 0.930 . S
C654 C650 1.524 . S
C654 H666 0.956 . S
C654 H667 0.961 . S
C654 H668 0.961 . S
C655 C652 1.539 . S
C655 H669 0.958 . S
C655 H670 0.961 . S
C655 H671 0.960 . S
H656 C640 0.931 . S
H657 C645 0.929 . S
H658 C646 0.960 . S
H659 C646 0.962 . S
H660 C646 0.960 . S
H661 C647 0.961 . S
H662 C647 0.961 . S
H663 C647 0.961 . S
H664 C648 0.931 . S
H665 C653 0.930 . S
H666 C654 0.956 . S
H667 C654 0.961 . S
H668 C654 0.961 . S
H669 C655 0.958 . S
H670 C655 0.961 . S
H671 C655 0.960 . S
C672 C673 1.391 . S
C672 C674 1.394 . S
C672 H688 0.931 . S
C673 C672 1.391 . S
C673 C677 1.376 . S
C674 C672 1.394 . S
C674 C675 1.369 . S
C674 C678 1.531 . S
C675 C674 1.369 . S
C675 C676 1.410 . S
C675 C683 1.503 . S
C676 C675 1.410 . S
C676 C677 1.392 . S
C676 C679 1.511 . S
C677 C673 1.376 . S
C677 C676 1.392 . S
C677 H689 0.929 . S
C678 C674 1.531 . S
C678 H690 0.960 . S
C678 H691 0.962 . S
C678 H692 0.960 . S
C679 C676 1.511 . S
C679 H693 0.961 . S
C679 H694 0.961 . S
C679 H695 0.961 . S
C680 C681 1.370 . S
C680 C682 1.363 . S
C680 H696 0.931 . S
C681 C680 1.370 . S
C681 C685 1.408 . S
C682 C680 1.363 . S
C682 C683 1.370 . S
C682 C686 1.524 . S
C683 C675 1.503 . S
C683 C682 1.370 . S
C683 C684 1.403 . S
C684 C683 1.403 . S
C684 C685 1.404 . S
C684 C687 1.539 . S
C685 C681 1.408 . S
C685 C684 1.404 . S
C685 H697 0.930 . S
C686 C682 1.524 . S
C686 H698 0.956 . S
C686 H699 0.961 . S
C686 H700 0.961 . S
C687 C684 1.539 . S
C687 H701 0.958 . S
C687 H702 0.961 . S
C687 H703 0.960 . S
H688 C672 0.931 . S
H689 C677 0.929 . S
H690 C678 0.960 . S
H691 C678 0.962 . S
H692 C678 0.960 . S
H693 C679 0.961 . S
H694 C679 0.961 . S
H695 C679 0.961 . S
H696 C680 0.931 . S
H697 C685 0.930 . S
H698 C686 0.956 . S
H699 C686 0.961 . S
H700 C686 0.961 . S
H701 C687 0.958 . S
H702 C687 0.961 . S
H703 C687 0.960 . S
C704 C705 1.391 . S
C704 C706 1.394 . S
C704 H720 0.931 . S
C705 C704 1.391 . S
C705 C709 1.376 . S
C706 C704 1.394 . S
C706 C707 1.369 . S
C706 C710 1.531 . S
C707 C706 1.369 . S
C707 C708 1.410 . S
C707 C715 1.503 . S
C708 C707 1.410 . S
C708 C709 1.392 . S
C708 C711 1.511 . S
C709 C705 1.376 . S
C709 C708 1.392 . S
C709 H721 0.929 . S
C710 C706 1.531 . S
C710 H722 0.960 . S
C710 H723 0.962 . S
C710 H724 0.960 . S
C711 C708 1.511 . S
C711 H725 0.961 . S
C711 H726 0.961 . S
C711 H727 0.961 . S
C712 C713 1.370 . S
C712 C714 1.363 . S
C712 H728 0.931 . S
C713 C712 1.370 . S
C713 C717 1.408 . S
C714 C712 1.363 . S
C714 C715 1.370 . S
C714 C718 1.524 . S
C715 C707 1.503 . S
C715 C714 1.370 . S
C715 C716 1.403 . S
C716 C715 1.403 . S
C716 C717 1.404 . S
C716 C719 1.539 . S
C717 C713 1.408 . S
C717 C716 1.404 . S
C717 H729 0.930 . S
C718 C714 1.524 . S
C718 H730 0.956 . S
C718 H731 0.961 . S
C718 H732 0.961 . S
C719 C716 1.539 . S
C719 H733 0.958 . S
C719 H734 0.961 . S
C719 H735 0.960 . S
H720 C704 0.931 . S
H721 C709 0.929 . S
H722 C710 0.960 . S
H723 C710 0.962 . S
H724 C710 0.960 . S
H725 C711 0.961 . S
H726 C711 0.961 . S
H727 C711 0.961 . S
H728 C712 0.931 . S
H729 C717 0.930 . S
H730 C718 0.956 . S
H731 C718 0.961 . S
H732 C718 0.961 . S
H733 C719 0.958 . S
H734 C719 0.961 . S
H735 C719 0.960 . S
C736 C737 1.391 . S
C736 C738 1.394 . S
C736 H752 0.931 . S
C737 C736 1.391 . S
C737 C741 1.376 . S
C738 C736 1.394 . S
C738 C739 1.369 . S
C738 C742 1.531 . S
C739 C738 1.369 . S
C739 C740 1.410 . S
C739 C747 1.503 . S
C740 C739 1.410 . S
C740 C741 1.392 . S
C740 C743 1.511 . S
C741 C737 1.376 . S
C741 C740 1.392 . S
C741 H753 0.929 . S
C742 C738 1.531 . S
C742 H754 0.960 . S
C742 H755 0.962 . S
C742 H756 0.960 . S
C743 C740 1.511 . S
C743 H757 0.961 . S
C743 H758 0.961 . S
C743 H759 0.961 . S
C744 C745 1.370 . S
C744 C746 1.363 . S
C744 H760 0.931 . S
C745 C744 1.370 . S
C745 C749 1.408 . S
C746 C744 1.363 . S
C746 C747 1.370 . S
C746 C750 1.524 . S
C747 C739 1.503 . S
C747 C746 1.370 . S
C747 C748 1.403 . S
C748 C747 1.403 . S
C748 C749 1.404 . S
C748 C751 1.539 . S
C749 C745 1.408 . S
C749 C748 1.404 . S
C749 H761 0.930 . S
C750 C746 1.524 . S
C750 H762 0.956 . S
C750 H763 0.961 . S
C750 H764 0.961 . S
C751 C748 1.539 . S
C751 H765 0.958 . S
C751 H766 0.961 . S
C751 H767 0.960 . S
H752 C736 0.931 . S
H753 C741 0.929 . S
H754 C742 0.960 . S
H755 C742 0.962 . S
H756 C742 0.960 . S
H757 C743 0.961 . S
H758 C743 0.961 . S
H759 C743 0.961 . S
H760 C744 0.931 . S
H761 C749 0.930 . S
H762 C750 0.956 . S
H763 C750 0.961 . S
H764 C750 0.961 . S
H765 C751 0.958 . S
H766 C751 0.961 . S
H767 C751 0.960 . S
C768 C769 1.391 . S
C768 C770 1.394 . S
C768 H784 0.931 . S
C769 C768 1.391 . S
C769 C773 1.376 . S
C770 C768 1.394 . S
C770 C771 1.369 . S
C770 C774 1.531 . S
C771 C770 1.369 . S
C771 C772 1.410 . S
C771 C779 1.503 . S
C772 C771 1.410 . S
C772 C773 1.392 . S
C772 C775 1.511 . S
C773 C769 1.376 . S
C773 C772 1.392 . S
C773 H785 0.929 . S
C774 C770 1.531 . S
C774 H786 0.960 . S
C774 H787 0.962 . S
C774 H788 0.960 . S
C775 C772 1.511 . S
C775 H789 0.961 . S
C775 H790 0.961 . S
C775 H791 0.961 . S
C776 C777 1.370 . S
C776 C778 1.363 . S
C776 H792 0.931 . S
C777 C776 1.370 . S
C777 C781 1.408 . S
C778 C776 1.363 . S
C778 C779 1.370 . S
C778 C782 1.524 . S
C779 C771 1.503 . S
C779 C778 1.370 . S
C779 C780 1.403 . S
C780 C779 1.403 . S
C780 C781 1.404 . S
C780 C783 1.539 . S
C781 C777 1.408 . S
C781 C780 1.404 . S
C781 H793 0.930 . S
C782 C778 1.524 . S
C782 H794 0.956 . S
C782 H795 0.961 . S
C782 H796 0.961 . S
C783 C780 1.539 . S
C783 H797 0.958 . S
C783 H798 0.961 . S
C783 H799 0.960 . S
H784 C768 0.931 . S
H785 C773 0.929 . S
H786 C774 0.960 . S
H787 C774 0.962 . S
H788 C774 0.960 . S
H789 C775 0.961 . S
H790 C775 0.961 . S
H791 C775 0.961 . S
H792 C776 0.931 . S
H793 C781 0.930 . S
H794 C782 0.956 . S
H795 C782 0.961 . S
H796 C782 0.961 . S
H797 C783 0.958 . S
H798 C783 0.961 . S
H799 C783 0.960 . S
C800 C801 1.391 . S
C800 C802 1.394 . S
C800 H816 0.931 . S
C801 C800 1.391 . S
C801 C805 1.376 . S
C802 C800 1.394 . S
C802 C803 1.369 . S
C802 C806 1.531 . S
C803 C802 1.369 . S
C803 C804 1.410 . S
C803 C811 1.503 . S
C804 C803 1.410 . S
C804 C805 1.392 . S
C804 C807 1.511 . S
C805 C801 1.376 . S
C805 C804 1.392 . S
C805 H817 0.929 . S
C806 C802 1.531 . S
C806 H818 0.960 . S
C806 H819 0.962 . S
C806 H820 0.960 . S
C807 C804 1.511 . S
C807 H821 0.961 . S
C807 H822 0.961 . S
C807 H823 0.961 . S
C808 C809 1.370 . S
C808 C810 1.363 . S
C808 H824 0.931 . S
C809 C808 1.370 . S
C809 C813 1.408 . S
C810 C808 1.363 . S
C810 C811 1.370 . S
C810 C814 1.524 . S
C811 C803 1.503 . S
C811 C810 1.370 . S
C811 C812 1.403 . S
C812 C811 1.403 . S
C812 C813 1.404 . S
C812 C815 1.539 . S
C813 C809 1.408 . S
C813 C812 1.404 . S
C813 H825 0.930 . S
C814 C810 1.524 . S
C814 H826 0.956 . S
C814 H827 0.961 . S
C814 H828 0.961 . S
C815 C812 1.539 . S
C815 H829 0.958 . S
C815 H830 0.927 1_455 S
C815 H831 0.960 . S
H816 C800 0.931 . S
H817 C805 0.929 . S
H818 C806 0.960 . S
H819 C806 0.962 . S
H820 C806 0.960 . S
H821 C807 0.961 . S
H822 C807 0.961 . S
H823 C807 0.961 . S
H824 C808 0.931 . S
H825 C813 0.930 . S
H826 C814 0.956 . S
H827 C814 0.961 . S
H828 C814 0.961 . S
H829 C815 0.958 . S
H830 C815 0.927 1_655 S
H831 C815 0.960 . S
C832 C833 1.391 . S
C832 C834 1.394 . S
C832 H848 0.931 . S
C833 C832 1.391 . S
C833 C837 1.376 . S
C834 C832 1.394 . S
C834 C835 1.369 . S
C834 C838 1.531 . S
C835 C834 1.369 . S
C835 C836 1.410 . S
C835 C843 1.503 . S
C836 C835 1.410 . S
C836 C837 1.392 . S
C836 C839 1.511 . S
C837 C833 1.376 . S
C837 C836 1.392 . S
C837 H849 0.929 . S
C838 C834 1.531 . S
C838 H850 0.960 . S
C838 H851 0.962 . S
C838 H852 0.960 . S
C839 C836 1.511 . S
C839 H853 0.961 . S
C839 H854 0.961 . S
C839 H855 0.961 . S
C840 C841 1.370 . S
C840 C842 1.363 . S
C840 H856 0.931 . S
C841 C840 1.370 . S
C841 C845 1.408 . S
C842 C840 1.363 . S
C842 C843 1.370 . S
C842 C846 1.524 . S
C843 C835 1.503 . S
C843 C842 1.370 . S
C843 C844 1.403 . S
C844 C843 1.403 . S
C844 C845 1.404 . S
C844 C847 1.539 . S
C845 C841 1.408 . S
C845 C844 1.404 . S
C845 H857 0.930 . S
C846 C842 1.524 . S
C846 H858 0.956 . S
C846 H859 0.961 . S
C846 H860 0.961 . S
C847 C844 1.539 . S
C847 H861 0.958 . S
C847 H862 0.961 . S
C847 H863 0.960 . S
H848 C832 0.931 . S
H849 C837 0.929 . S
H850 C838 0.960 . S
H851 C838 0.962 . S
H852 C838 0.960 . S
H853 C839 0.961 . S
H854 C839 0.961 . S
H855 C839 0.961 . S
H856 C840 0.931 . S
H857 C845 0.930 . S
H858 C846 0.956 . S
H859 C846 0.961 . S
H860 C846 0.961 . S
H861 C847 0.958 . S
H862 C847 0.961 . S
H863 C847 0.960 . S
C864 C865 1.391 . S
C864 C866 1.394 . S
C864 H880 0.931 . S
C865 C864 1.391 . S
C865 C869 1.376 . S
C866 C864 1.394 . S
C866 C867 1.369 . S
C866 C870 1.531 . S
C867 C866 1.369 . S
C867 C868 1.410 . S
C867 C875 1.503 . S
C868 C867 1.410 . S
C868 C869 1.392 . S
C868 C871 1.511 . S
C869 C865 1.376 . S
C869 C868 1.392 . S
C869 H881 0.929 . S
C870 C866 1.531 . S
C870 H882 0.960 . S
C870 H883 0.962 . S
C870 H884 0.960 . S
C871 C868 1.511 . S
C871 H885 0.961 . S
C871 H886 0.961 . S
C871 H887 0.961 . S
C872 C873 1.370 . S
C872 C874 1.363 . S
C872 H888 0.931 . S
C873 C872 1.370 . S
C873 C877 1.408 . S
C874 C872 1.363 . S
C874 C875 1.370 . S
C874 C878 1.524 . S
C875 C867 1.503 . S
C875 C874 1.370 . S
C875 C876 1.403 . S
C876 C875 1.403 . S
C876 C877 1.404 . S
C876 C879 1.539 . S
C877 C873 1.408 . S
C877 C876 1.404 . S
C877 H889 0.930 . S
C878 C874 1.524 . S
C878 H890 0.956 . S
C878 H891 0.961 . S
C878 H892 0.961 . S
C879 C876 1.539 . S
C879 H893 0.958 . S
C879 H894 0.961 . S
C879 H895 0.960 . S
H880 C864 0.931 . S
H881 C869 0.929 . S
H882 C870 0.960 . S
H883 C870 0.962 . S
H884 C870 0.960 . S
H885 C871 0.961 . S
H886 C871 0.961 . S
H887 C871 0.961 . S
H888 C872 0.931 . S
H889 C877 0.930 . S
H890 C878 0.956 . S
H891 C878 0.961 . S
H892 C878 0.961 . S
H893 C879 0.958 . S
H894 C879 0.961 . S
H895 C879 0.960 . S
C896 C897 1.391 . S
C896 C898 1.394 . S
C896 H912 0.931 . S
C897 C896 1.391 . S
C897 C901 1.376 . S
C898 C896 1.394 . S
C898 C899 1.369 . S
C898 C902 1.531 . S
C899 C898 1.369 . S
C899 C900 1.410 . S
C899 C907 1.503 . S
C900 C899 1.410 . S
C900 C901 1.392 . S
C900 C903 1.511 . S
C901 C897 1.376 . S
C901 C900 1.392 . S
C901 H913 0.929 . S
C902 C898 1.531 . S
C902 H914 0.960 . S
C902 H915 0.962 . S
C902 H916 0.960 . S
C903 C900 1.511 . S
C903 H917 0.961 . S
C903 H918 0.961 . S
C903 H919 0.961 . S
C904 C905 1.370 . S
C904 C906 1.363 . S
C904 H920 0.931 . S
C905 C904 1.370 . S
C905 C909 1.408 . S
C906 C904 1.363 . S
C906 C907 1.370 . S
C906 C910 1.524 . S
C907 C899 1.503 . S
C907 C906 1.370 . S
C907 C908 1.403 . S
C908 C907 1.403 . S
C908 C909 1.404 . S
C908 C911 1.539 . S
C909 C905 1.408 . S
C909 C908 1.404 . S
C909 H921 0.930 . S
C910 C906 1.524 . S
C910 H922 0.956 . S
C910 H923 0.961 . S
C910 H924 0.961 . S
C911 C908 1.539 . S
C911 H925 0.958 . S
C911 H926 0.961 . S
C911 H927 0.960 . S
H912 C896 0.931 . S
H913 C901 0.929 . S
H914 C902 0.960 . S
H915 C902 0.962 . S
H916 C902 0.960 . S
H917 C903 0.961 . S
H918 C903 0.961 . S
H919 C903 0.961 . S
H920 C904 0.931 . S
H921 C909 0.930 . S
H922 C910 0.956 . S
H923 C910 0.961 . S
H924 C910 0.961 . S
H925 C911 0.958 . S
H926 C911 0.961 . S
H927 C911 0.960 . S
C928 C929 1.391 . S
C928 C930 1.394 . S
C928 H944 0.931 . S
C929 C928 1.391 . S
C929 C933 1.376 . S
C930 C928 1.394 . S
C930 C931 1.369 . S
C930 C934 1.531 . S
C931 C930 1.369 . S
C931 C932 1.410 . S
C931 C939 1.503 . S
C932 C931 1.410 . S
C932 C933 1.392 . S
C932 C935 1.511 . S
C933 C929 1.376 . S
C933 C932 1.392 . S
C933 H945 0.929 . S
C934 C930 1.531 . S
C934 H946 0.960 . S
C934 H947 0.962 . S
C934 H948 0.960 . S
C935 C932 1.511 . S
C935 H949 0.961 . S
C935 H950 0.961 . S
C935 H951 0.961 . S
C936 C937 1.370 . S
C936 C938 1.363 . S
C936 H952 0.931 . S
C937 C936 1.370 . S
C937 C941 1.408 . S
C938 C936 1.363 . S
C938 C939 1.370 . S
C938 C942 1.524 . S
C939 C931 1.503 . S
C939 C938 1.370 . S
C939 C940 1.403 . S
C940 C939 1.403 . S
C940 C941 1.404 . S
C940 C943 1.539 . S
C941 C937 1.408 . S
C941 C940 1.404 . S
C941 H953 0.930 . S
C942 C938 1.524 . S
C942 H954 0.956 . S
C942 H955 0.961 . S
C942 H956 0.961 . S
C943 C940 1.539 . S
C943 H957 0.958 . S
C943 H958 0.961 . S
C943 H959 0.960 . S
H944 C928 0.931 . S
H945 C933 0.929 . S
H946 C934 0.960 . S
H947 C934 0.962 . S
H948 C934 0.960 . S
H949 C935 0.961 . S
H950 C935 0.961 . S
H951 C935 0.961 . S
H952 C936 0.931 . S
H953 C941 0.930 . S
H954 C942 0.956 . S
H955 C942 0.961 . S
H956 C942 0.961 . S
H957 C943 0.958 . S
H958 C943 0.961 . S
H959 C943 0.960 . S
C960 C961 1.391 . S
C960 C962 1.394 . S
C960 H976 0.931 . S
C961 C960 1.391 . S
C961 C965 1.376 . S
C962 C960 1.394 . S
C962 C963 1.369 . S
C962 C966 1.531 . S
C963 C962 1.369 . S
C963 C964 1.410 . S
C963 C971 1.503 . S
C964 C963 1.410 . S
C964 C965 1.392 . S
C964 C967 1.511 . S
C965 C961 1.376 . S
C965 C964 1.392 . S
C965 H977 0.929 . S
C966 C962 1.531 . S
C966 H978 0.960 . S
C966 H979 0.962 . S
C966 H980 0.960 . S
C967 C964 1.511 . S
C967 H981 0.961 . S
C967 H982 0.961 . S
C967 H983 0.961 . S
C968 C969 1.370 . S
C968 C970 1.363 . S
C968 H984 0.931 . S
C969 C968 1.370 . S
C969 C973 1.408 . S
C970 C968 1.363 . S
C970 C971 1.370 . S
C970 C974 1.524 . S
C971 C963 1.503 . S
C971 C970 1.370 . S
C971 C972 1.403 . S
C972 C971 1.403 . S
C972 C973 1.404 . S
C972 C975 1.539 . S
C973 C969 1.408 . S
C973 C972 1.404 . S
C973 H985 0.930 . S
C974 C970 1.524 . S
C974 H986 0.956 . S
C974 H987 0.961 . S
C974 H988 0.961 . S
C975 C972 1.539 . S
C975 H989 0.958 . S
C975 H990 0.961 . S
C975 H991 0.960 . S
H976 C960 0.931 . S
H977 C965 0.929 . S
H978 C966 0.960 . S
H979 C966 0.962 . S
H980 C966 0.960 . S
H981 C967 0.961 . S
H982 C967 0.961 . S
H983 C967 0.961 . S
H984 C968 0.931 . S
H985 C973 0.930 . S
H986 C974 0.956 . S
H987 C974 0.961 . S
H988 C974 0.961 . S
H989 C975 0.958 . S
H990 C975 0.961 . S
H991 C975 0.960 . S
C992 C993 1.391 . S
C992 C994 1.394 . S
C992 H1008 0.931 . S
C993 C992 1.391 . S
C993 C997 1.376 . S
C994 C992 1.394 . S
C994 C995 1.369 . S
C994 C998 1.531 . S
C995 C994 1.369 . S
C995 C996 1.410 . S
C995 C1003 1.503 . S
C996 C995 1.410 . S
C996 C997 1.392 . S
C996 C999 1.511 . S
C997 C993 1.376 . S
C997 C996 1.392 . S
C997 H1009 0.929 . S
C998 C994 1.531 . S
C998 H1010 0.960 . S
C998 H1011 0.962 . S
C998 H1012 0.960 . S
C999 C996 1.511 . S
C999 H1013 0.961 . S
C999 H1014 0.961 . S
C999 H1015 0.961 . S
C1000 C1001 1.370 . S
C1000 C1002 1.363 . S
C1000 H1016 0.931 . S
C1001 C1000 1.370 . S
C1001 C1005 1.408 . S
C1002 C1000 1.363 . S
C1002 C1003 1.370 . S
C1002 C1006 1.524 . S
C1003 C995 1.503 . S
C1003 C1002 1.370 . S
C1003 C1004 1.403 . S
C1004 C1003 1.403 . S
C1004 C1005 1.404 . S
C1004 C1007 1.539 . S
C1005 C1001 1.408 . S
C1005 C1004 1.404 . S
C1005 H1017 0.930 . S
C1006 C1002 1.524 . S
C1006 H1018 0.956 . S
C1006 H1019 0.961 . S
C1006 H1020 0.961 . S
C1007 C1004 1.539 . S
C1007 H1021 0.958 . S
C1007 H1022 0.961 . S
C1007 H1023 0.960 . S
H1008 C992 0.931 . S
H1009 C997 0.929 . S
H1010 C998 0.960 . S
H1011 C998 0.962 . S
H1012 C998 0.960 . S
H1013 C999 0.961 . S
H1014 C999 0.961 . S
H1015 C999 0.961 . S
H1016 C1000 0.931 . S
H1017 C1005 0.930 . S
H1018 C1006 0.956 . S
H1019 C1006 0.961 . S
H1020 C1006 0.961 . S
H1021 C1007 0.958 . S
H1022 C1007 0.961 . S
H1023 C1007 0.960 . S
C1024 C1025 1.391 . S
C1024 C1026 1.394 . S
C1024 H1040 0.931 . S
C1025 C1024 1.391 . S
C1025 C1029 1.376 . S
C1026 C1024 1.394 . S
C1026 C1027 1.369 . S
C1026 C1030 1.531 . S
C1027 C1026 1.369 . S
C1027 C1028 1.410 . S
C1027 C1035 1.503 . S
C1028 C1027 1.410 . S
C1028 C1029 1.392 . S
C1028 C1031 1.511 . S
C1029 C1025 1.376 . S
C1029 C1028 1.392 . S
C1029 H1041 0.929 . S
C1030 C1026 1.531 . S
C1030 H1042 0.960 . S
C1030 H1043 0.962 . S
C1030 H1044 0.960 . S
C1031 C1028 1.511 . S
C1031 H1045 0.961 . S
C1031 H1046 0.961 . S
C1031 H1047 0.961 . S
C1032 C1033 1.370 . S
C1032 C1034 1.363 . S
C1032 H1048 0.931 . S
C1033 C1032 1.370 . S
C1033 C1037 1.408 . S
C1034 C1032 1.363 . S
C1034 C1035 1.370 . S
C1034 C1038 1.524 . S
C1035 C1027 1.503 . S
C1035 C1034 1.370 . S
C1035 C1036 1.403 . S
C1036 C1035 1.403 . S
C1036 C1037 1.404 . S
C1036 C1039 1.539 . S
C1037 C1033 1.408 . S
C1037 C1036 1.404 . S
C1037 H1049 0.930 . S
C1038 C1034 1.524 . S
C1038 H1050 0.956 . S
C1038 H1051 0.961 . S
C1038 H1052 0.961 . S
C1039 C1036 1.539 . S
C1039 H1053 0.958 . S
C1039 H1054 0.961 . S
C1039 H1055 0.960 . S
H1040 C1024 0.931 . S
H1041 C1029 0.929 . S
H1042 C1030 0.960 . S
H1043 C1030 0.962 . S
H1044 C1030 0.960 . S
H1045 C1031 0.961 . S
H1046 C1031 0.961 . S
H1047 C1031 0.961 . S
H1048 C1032 0.931 . S
H1049 C1037 0.930 . S
H1050 C1038 0.956 . S
H1051 C1038 0.961 . S
H1052 C1038 0.961 . S
H1053 C1039 0.958 . S
H1054 C1039 0.961 . S
H1055 C1039 0.960 . S
C1056 C1057 1.391 . S
C1056 C1058 1.394 . S
C1056 H1072 0.931 . S
C1057 C1056 1.391 . S
C1057 C1061 1.376 . S
C1058 C1056 1.394 . S
C1058 C1059 1.369 . S
C1058 C1062 1.531 . S
C1059 C1058 1.369 . S
C1059 C1060 1.410 . S
C1059 C1067 1.503 . S
C1060 C1059 1.410 . S
C1060 C1061 1.392 . S
C1060 C1063 1.511 . S
C1061 C1057 1.376 . S
C1061 C1060 1.392 . S
C1061 H1073 0.929 . S
C1062 C1058 1.531 . S
C1062 H1074 0.960 . S
C1062 H1075 0.962 . S
C1062 H1076 0.960 . S
C1063 C1060 1.511 . S
C1063 H1077 0.961 . S
C1063 H1078 0.961 . S
C1063 H1079 0.961 . S
C1064 C1065 1.370 . S
C1064 C1066 1.363 . S
C1064 H1080 0.931 . S
C1065 C1064 1.370 . S
C1065 C1069 1.408 . S
C1066 C1064 1.363 . S
C1066 C1067 1.370 . S
C1066 C1070 1.524 . S
C1067 C1059 1.503 . S
C1067 C1066 1.370 . S
C1067 C1068 1.403 . S
C1068 C1067 1.403 . S
C1068 C1069 1.404 . S
C1068 C1071 1.539 . S
C1069 C1065 1.408 . S
C1069 C1068 1.404 . S
C1069 H1081 0.930 . S
C1070 C1066 1.524 . S
C1070 H1082 0.956 . S
C1070 H1083 0.961 . S
C1070 H1084 0.961 . S
C1071 C1068 1.539 . S
C1071 H1085 0.958 . S
C1071 H1086 0.961 . S
C1071 H1087 0.960 . S
H1072 C1056 0.931 . S
H1073 C1061 0.929 . S
H1074 C1062 0.960 . S
H1075 C1062 0.962 . S
H1076 C1062 0.960 . S
H1077 C1063 0.961 . S
H1078 C1063 0.961 . S
H1079 C1063 0.961 . S
H1080 C1064 0.931 . S
H1081 C1069 0.930 . S
H1082 C1070 0.956 . S
H1083 C1070 0.961 . S
H1084 C1070 0.961 . S
H1085 C1071 0.958 . S
H1086 C1071 0.961 . S
H1087 C1071 0.960 . S
C1088 C1089 1.391 . S
C1088 C1090 1.394 . S
C1088 H1104 0.931 . S
C1089 C1088 1.391 . S
C1089 C1093 1.376 . S
C1090 C1088 1.394 . S
C1090 C1091 1.369 . S
C1090 C1094 1.531 . S
C1091 C1090 1.369 . S
C1091 C1092 1.410 . S
C1091 C1099 1.503 . S
C1092 C1091 1.410 . S
C1092 C1093 1.392 . S
C1092 C1095 1.511 . S
C1093 C1089 1.376 . S
C1093 C1092 1.392 . S
C1093 H1105 0.929 . S
C1094 C1090 1.531 . S
C1094 H1106 0.960 . S
C1094 H1107 0.962 . S
C1094 H1108 0.960 . S
C1095 C1092 1.511 . S
C1095 H1109 0.961 . S
C1095 H1110 0.961 . S
C1095 H1111 0.961 . S
C1096 C1097 1.370 . S
C1096 C1098 1.363 . S
C1096 H1112 0.931 . S
C1097 C1096 1.370 . S
C1097 C1101 1.408 . S
C1098 C1096 1.363 . S
C1098 C1099 1.370 . S
C1098 C1102 1.524 . S
C1099 C1091 1.503 . S
C1099 C1098 1.370 . S
C1099 C1100 1.403 . S
C1100 C1099 1.403 . S
C1100 C1101 1.404 . S
C1100 C1103 1.539 . S
C1101 C1097 1.408 . S
C1101 C1100 1.404 . S
C1101 H1113 0.930 . S
C1102 C1098 1.524 . S
C1102 H1114 0.956 . S
C1102 H1115 0.961 . S
C1102 H1116 0.961 . S
C1103 C1100 1.539 . S
C1103 H1117 0.958 . S
C1103 H1118 0.961 . S
C1103 H1119 0.960 . S
H1104 C1088 0.931 . S
H1105 C1093 0.929 . S
H1106 C1094 0.960 . S
H1107 C1094 0.962 . S
H1108 C1094 0.960 . S
H1109 C1095 0.961 . S
H1110 C1095 0.961 . S
H1111 C1095 0.961 . S
H1112 C1096 0.931 . S
H1113 C1101 0.930 . S
H1114 C1102 0.956 . S
H1115 C1102 0.961 . S
H1116 C1102 0.961 . S
H1117 C1103 0.958 . S
H1118 C1103 0.961 . S
H1119 C1103 0.960 . S
C1120 C1121 1.391 . S
C1120 C1122 1.394 . S
C1120 H1136 0.931 . S
C1121 C1120 1.391 . S
C1121 C1125 1.376 . S
C1122 C1120 1.394 . S
C1122 C1123 1.369 . S
C1122 C1126 1.531 . S
C1123 C1122 1.369 . S
C1123 C1124 1.410 . S
C1123 C1131 1.503 . S
C1124 C1123 1.410 . S
C1124 C1125 1.392 . S
C1124 C1127 1.511 . S
C1125 C1121 1.376 . S
C1125 C1124 1.392 . S
C1125 H1137 0.929 . S
C1126 C1122 1.531 . S
C1126 H1138 0.960 . S
C1126 H1139 0.962 . S
C1126 H1140 0.960 . S
C1127 C1124 1.511 . S
C1127 H1141 0.961 . S
C1127 H1142 0.961 . S
C1127 H1143 0.961 . S
C1128 C1129 1.370 . S
C1128 C1130 1.363 . S
C1128 H1144 0.931 . S
C1129 C1128 1.370 . S
C1129 C1133 1.408 . S
C1130 C1128 1.363 . S
C1130 C1131 1.370 . S
C1130 C1134 1.524 . S
C1131 C1123 1.503 . S
C1131 C1130 1.370 . S
C1131 C1132 1.403 . S
C1132 C1131 1.403 . S
C1132 C1133 1.404 . S
C1132 C1135 1.539 . S
C1133 C1129 1.408 . S
C1133 C1132 1.404 . S
C1133 H1145 0.930 . S
C1134 C1130 1.524 . S
C1134 H1146 0.956 . S
C1134 H1147 0.961 . S
C1134 H1148 0.961 . S
C1135 C1132 1.539 . S
C1135 H1149 0.958 . S
C1135 H1150 0.961 . S
C1135 H1151 0.960 . S
H1136 C1120 0.931 . S
H1137 C1125 0.929 . S
H1138 C1126 0.960 . S
H1139 C1126 0.962 . S
H1140 C1126 0.960 . S
H1141 C1127 0.961 . S
H1142 C1127 0.961 . S
H1143 C1127 0.961 . S
H1144 C1128 0.931 . S
H1145 C1133 0.930 . S
H1146 C1134 0.956 . S
H1147 C1134 0.961 . S
H1148 C1134 0.961 . S
H1149 C1135 0.958 . S
H1150 C1135 0.961 . S
H1151 C1135 0.960 . S
C1152 C1153 1.391 . S
C1152 C1154 1.394 . S
C1152 H1168 0.931 . S
C1153 C1152 1.391 . S
C1153 C1157 1.376 . S
C1154 C1152 1.394 . S
C1154 C1155 1.369 . S
C1154 C1158 1.531 . S
C1155 C1154 1.369 . S
C1155 C1156 1.410 . S
C1155 C1163 1.503 . S
C1156 C1155 1.410 . S
C1156 C1157 1.392 . S
C1156 C1159 1.511 . S
C1157 C1153 1.376 . S
C1157 C1156 1.392 . S
C1157 H1169 0.929 . S
C1158 C1154 1.531 . S
C1158 H1170 0.960 . S
C1158 H1171 0.962 . S
C1158 H1172 0.960 . S
C1159 C1156 1.511 . S
C1159 H1173 0.961 . S
C1159 H1174 0.961 . S
C1159 H1175 0.961 . S
C1160 C1161 1.370 . S
C1160 C1162 1.363 . S
C1160 H1176 0.931 . S
C1161 C1160 1.370 . S
C1161 C1165 1.408 . S
C1162 C1160 1.363 . S
C1162 C1163 1.370 . S
C1162 C1166 1.524 . S
C1163 C1155 1.503 . S
C1163 C1162 1.370 . S
C1163 C1164 1.403 . S
C1164 C1163 1.403 . S
C1164 C1165 1.404 . S
C1164 C1167 1.539 . S
C1165 C1161 1.408 . S
C1165 C1164 1.404 . S
C1165 H1177 0.930 . S
C1166 C1162 1.524 . S
C1166 H1178 0.956 . S
C1166 H1179 0.961 . S
C1166 H1180 0.961 . S
C1167 C1164 1.539 . S
C1167 H1181 0.958 . S
C1167 H1182 0.961 . S
C1167 H1183 0.960 . S
H1168 C1152 0.931 . S
H1169 C1157 0.929 . S
H1170 C1158 0.960 . S
H1171 C1158 0.962 . S
H1172 C1158 0.960 . S
H1173 C1159 0.961 . S
H1174 C1159 0.961 . S
H1175 C1159 0.961 . S
H1176 C1160 0.931 . S
H1177 C1165 0.930 . S
H1178 C1166 0.956 . S
H1179 C1166 0.961 . S
H1180 C1166 0.961 . S
H1181 C1167 0.958 . S
H1182 C1167 0.961 . S
H1183 C1167 0.960 . S
C1184 C1185 1.391 . S
C1184 C1186 1.394 . S
C1184 H1200 0.931 . S
C1185 C1184 1.391 . S
C1185 C1189 1.376 . S
C1186 C1184 1.394 . S
C1186 C1187 1.369 . S
C1186 C1190 1.531 . S
C1187 C1186 1.369 . S
C1187 C1188 1.410 . S
C1187 C1195 1.503 . S
C1188 C1187 1.410 . S
C1188 C1189 1.392 . S
C1188 C1191 1.511 . S
C1189 C1185 1.376 . S
C1189 C1188 1.392 . S
C1189 H1201 0.929 . S
C1190 C1186 1.531 . S
C1190 H1202 0.960 . S
C1190 H1203 0.962 . S
C1190 H1204 0.960 . S
C1191 C1188 1.511 . S
C1191 H1205 0.961 . S
C1191 H1206 0.961 . S
C1191 H1207 0.961 . S
C1192 C1193 1.370 . S
C1192 C1194 1.363 . S
C1192 H1208 0.931 . S
C1193 C1192 1.370 . S
C1193 C1197 1.408 . S
C1194 C1192 1.363 . S
C1194 C1195 1.370 . S
C1194 C1198 1.524 . S
C1195 C1187 1.503 . S
C1195 C1194 1.370 . S
C1195 C1196 1.403 . S
C1196 C1195 1.403 . S
C1196 C1197 1.404 . S
C1196 C1199 1.539 . S
C1197 C1193 1.408 . S
C1197 C1196 1.404 . S
C1197 H1209 0.930 . S
C1198 C1194 1.524 . S
C1198 H1210 0.956 . S
C1198 H1211 0.961 . S
C1198 H1212 0.961 . S
C1199 C1196 1.539 . S
C1199 H1213 0.958 . S
C1199 H1214 0.961 . S
C1199 H1215 0.960 . S
H1200 C1184 0.931 . S
H1201 C1189 0.929 . S
H1202 C1190 0.960 . S
H1203 C1190 0.962 . S
H1204 C1190 0.960 . S
H1205 C1191 0.961 . S
H1206 C1191 0.961 . S
H1207 C1191 0.961 . S
H1208 C1192 0.931 . S
H1209 C1197 0.930 . S
H1210 C1198 0.956 . S
H1211 C1198 0.961 . S
H1212 C1198 0.961 . S
H1213 C1199 0.958 . S
H1214 C1199 0.961 . S
H1215 C1199 0.960 . S
C1216 C1217 1.391 . S
C1216 C1218 1.394 . S
C1216 H1232 0.931 . S
C1217 C1216 1.391 . S
C1217 C1221 1.376 . S
C1218 C1216 1.394 . S
C1218 C1219 1.369 . S
C1218 C1222 1.531 . S
C1219 C1218 1.369 . S
C1219 C1220 1.410 . S
C1219 C1227 1.503 . S
C1220 C1219 1.410 . S
C1220 C1221 1.392 . S
C1220 C1223 1.511 . S
C1221 C1217 1.376 . S
C1221 C1220 1.392 . S
C1221 H1233 0.929 . S
C1222 C1218 1.531 . S
C1222 H1234 0.960 . S
C1222 H1235 0.962 . S
C1222 H1236 0.960 . S
C1223 C1220 1.511 . S
C1223 H1237 0.961 . S
C1223 H1238 0.961 . S
C1223 H1239 0.961 . S
C1224 C1225 1.370 . S
C1224 C1226 1.363 . S
C1224 H1240 0.931 . S
C1225 C1224 1.370 . S
C1225 C1229 1.408 . S
C1226 C1224 1.363 . S
C1226 C1227 1.370 . S
C1226 C1230 1.524 . S
C1227 C1219 1.503 . S
C1227 C1226 1.370 . S
C1227 C1228 1.403 . S
C1228 C1227 1.403 . S
C1228 C1229 1.404 . S
C1228 C1231 1.539 . S
C1229 C1225 1.408 . S
C1229 C1228 1.404 . S
C1229 H1241 0.930 . S
C1230 C1226 1.524 . S
C1230 H1242 0.956 . S
C1230 H1243 0.961 . S
C1230 H1244 0.961 . S
C1231 C1228 1.539 . S
C1231 H1245 0.958 . S
C1231 H1246 0.961 . S
C1231 H1247 0.960 . S
H1232 C1216 0.931 . S
H1233 C1221 0.929 . S
H1234 C1222 0.960 . S
H1235 C1222 0.962 . S
H1236 C1222 0.960 . S
H1237 C1223 0.961 . S
H1238 C1223 0.961 . S
H1239 C1223 0.961 . S
H1240 C1224 0.931 . S
H1241 C1229 0.930 . S
H1242 C1230 0.956 . S
H1243 C1230 0.961 . S
H1244 C1230 0.961 . S
H1245 C1231 0.958 . S
H1246 C1231 0.961 . S
H1247 C1231 0.960 . S
C1248 C1249 1.391 . S
C1248 C1250 1.394 . S
C1248 H1264 0.931 . S
C1249 C1248 1.391 . S
C1249 C1253 1.376 . S
C1250 C1248 1.394 . S
C1250 C1251 1.369 . S
C1250 C1254 1.531 . S
C1251 C1250 1.369 . S
C1251 C1252 1.410 . S
C1251 C1259 1.503 . S
C1252 C1251 1.410 . S
C1252 C1253 1.392 . S
C1252 C1255 1.511 . S
C1253 C1249 1.376 . S
C1253 C1252 1.392 . S
C1253 H1265 0.929 . S
C1254 C1250 1.531 . S
C1254 H1266 0.960 . S
C1254 H1267 0.962 . S
C1254 H1268 0.960 . S
C1255 C1252 1.511 . S
C1255 H1269 0.961 . S
C1255 H1270 0.961 . S
C1255 H1271 0.961 . S
C1256 C1257 1.370 . S
C1256 C1258 1.363 . S
C1256 H1272 0.931 . S
C1257 C1256 1.370 . S
C1257 C1261 1.408 . S
C1258 C1256 1.363 . S
C1258 C1259 1.370 . S
C1258 C1262 1.524 . S
C1259 C1251 1.503 . S
C1259 C1258 1.370 . S
C1259 C1260 1.403 . S
C1260 C1259 1.403 . S
C1260 C1261 1.404 . S
C1260 C1263 1.539 . S
C1261 C1257 1.408 . S
C1261 C1260 1.404 . S
C1261 H1273 0.930 . S
C1262 C1258 1.524 . S
C1262 H1274 0.956 . S
C1262 H1275 0.961 . S
C1262 H1276 0.961 . S
C1263 C1260 1.539 . S
C1263 H1277 0.958 . S
C1263 H1278 0.961 . S
C1263 H1279 0.960 . S
H1264 C1248 0.931 . S
H1265 C1253 0.929 . S
H1266 C1254 0.960 . S
H1267 C1254 0.962 . S
H1268 C1254 0.960 . S
H1269 C1255 0.961 . S
H1270 C1255 0.961 . S
H1271 C1255 0.961 . S
H1272 C1256 0.931 . S
H1273 C1261 0.930 . S
H1274 C1262 0.956 . S
H1275 C1262 0.961 . S
H1276 C1262 0.961 . S
H1277 C1263 0.958 . S
H1278 C1263 0.961 . S
H1279 C1263 0.960 . S
C1280 C1281 1.391 . S
C1280 C1282 1.394 . S
C1280 H1296 0.931 . S
C1281 C1280 1.391 . S
C1281 C1285 1.376 . S
C1282 C1280 1.394 . S
C1282 C1283 1.369 . S
C1282 C1286 1.531 . S
C1283 C1282 1.369 . S
C1283 C1284 1.410 . S
C1283 C1291 1.503 . S
C1284 C1283 1.410 . S
C1284 C1285 1.392 . S
C1284 C1287 1.511 . S
C1285 C1281 1.376 . S
C1285 C1284 1.392 . S
C1285 H1297 0.929 . S
C1286 C1282 1.531 . S
C1286 H1298 0.960 . S
C1286 H1299 0.962 . S
C1286 H1300 0.960 . S
C1287 C1284 1.511 . S
C1287 H1301 0.961 . S
C1287 H1302 0.961 . S
C1287 H1303 0.961 . S
C1288 C1289 1.370 . S
C1288 C1290 1.363 . S
C1288 H1304 0.931 . S
C1289 C1288 1.370 . S
C1289 C1293 1.408 . S
C1290 C1288 1.363 . S
C1290 C1291 1.370 . S
C1290 C1294 1.524 . S
C1291 C1283 1.503 . S
C1291 C1290 1.370 . S
C1291 C1292 1.403 . S
C1292 C1291 1.403 . S
C1292 C1293 1.404 . S
C1292 C1295 1.539 . S
C1293 C1289 1.408 . S
C1293 C1292 1.404 . S
C1293 H1305 0.930 . S
C1294 C1290 1.524 . S
C1294 H1306 0.956 . S
C1294 H1307 0.961 . S
C1294 H1308 0.961 . S
C1295 C1292 1.539 . S
C1295 H1309 0.958 . S
C1295 H1310 0.961 . S
C1295 H1311 0.960 . S
H1296 C1280 0.931 . S
H1297 C1285 0.929 . S
H1298 C1286 0.960 . S
H1299 C1286 0.962 . S
H1300 C1286 0.960 . S
H1301 C1287 0.961 . S
H1302 C1287 0.961 . S
H1303 C1287 0.961 . S
H1304 C1288 0.931 . S
H1305 C1293 0.930 . S
H1306 C1294 0.956 . S
H1307 C1294 0.961 . S
H1308 C1294 0.961 . S
H1309 C1295 0.958 . S
H1310 C1295 0.961 . S
H1311 C1295 0.960 . S
C1312 C1313 1.391 . S
C1312 C1314 1.394 . S
C1312 H1328 0.931 . S
C1313 C1312 1.391 . S
C1313 C1317 1.376 . S
C1314 C1312 1.394 . S
C1314 C1315 1.369 . S
C1314 C1318 1.531 . S
C1315 C1314 1.369 . S
C1315 C1316 1.410 . S
C1315 C1323 1.503 . S
C1316 C1315 1.410 . S
C1316 C1317 1.392 . S
C1316 C1319 1.511 . S
C1317 C1313 1.376 . S
C1317 C1316 1.392 . S
C1317 H1329 0.929 . S
C1318 C1314 1.531 . S
C1318 H1330 0.960 . S
C1318 H1331 0.962 . S
C1318 H1332 0.960 . S
C1319 C1316 1.511 . S
C1319 H1333 0.961 . S
C1319 H1334 0.961 . S
C1319 H1335 0.961 . S
C1320 C1321 1.370 . S
C1320 C1322 1.363 . S
C1320 H1336 0.931 . S
C1321 C1320 1.370 . S
C1321 C1325 1.408 . S
C1322 C1320 1.363 . S
C1322 C1323 1.370 . S
C1322 C1326 1.524 . S
C1323 C1315 1.503 . S
C1323 C1322 1.370 . S
C1323 C1324 1.403 . S
C1324 C1323 1.403 . S
C1324 C1325 1.404 . S
C1324 C1327 1.539 . S
C1325 C1321 1.408 . S
C1325 C1324 1.404 . S
C1325 H1337 0.930 . S
C1326 C1322 1.524 . S
C1326 H1338 0.956 . S
C1326 H1339 0.961 . S
C1326 H1340 0.961 . S
C1327 C1324 1.539 . S
C1327 H1341 0.958 . S
C1327 H1342 0.961 . S
C1327 H1343 0.960 . S
H1328 C1312 0.931 . S
H1329 C1317 0.929 . S
H1330 C1318 0.960 . S
H1331 C1318 0.962 . S
H1332 C1318 0.960 . S
H1333 C1319 0.961 . S
H1334 C1319 0.961 . S
H1335 C1319 0.961 . S
H1336 C1320 0.931 . S
H1337 C1325 0.930 . S
H1338 C1326 0.956 . S
H1339 C1326 0.961 . S
H1340 C1326 0.961 . S
H1341 C1327 0.958 . S
H1342 C1327 0.961 . S
H1343 C1327 0.960 . S
C1344 C1345 1.391 . S
C1344 C1346 1.394 . S
C1344 H1360 0.931 . S
C1345 C1344 1.391 . S
C1345 C1349 1.376 . S
C1346 C1344 1.394 . S
C1346 C1347 1.369 . S
C1346 C1350 1.531 . S
C1347 C1346 1.369 . S
C1347 C1348 1.410 . S
C1347 C1355 1.503 . S
C1348 C1347 1.410 . S
C1348 C1349 1.392 . S
C1348 C1351 1.511 . S
C1349 C1345 1.376 . S
C1349 C1348 1.392 . S
C1349 H1361 0.929 . S
C1350 C1346 1.531 . S
C1350 H1362 0.960 . S
C1350 H1363 0.962 . S
C1350 H1364 0.960 . S
C1351 C1348 1.511 . S
C1351 H1365 0.961 . S
C1351 H1366 0.961 . S
C1351 H1367 0.961 . S
C1352 C1353 1.370 . S
C1352 C1354 1.363 . S
C1352 H1368 0.931 . S
C1353 C1352 1.370 . S
C1353 C1357 1.408 . S
C1354 C1352 1.363 . S
C1354 C1355 1.370 . S
C1354 C1358 1.524 . S
C1355 C1347 1.503 . S
C1355 C1354 1.370 . S
C1355 C1356 1.403 . S
C1356 C1355 1.403 . S
C1356 C1357 1.404 . S
C1356 C1359 1.539 . S
C1357 C1353 1.408 . S
C1357 C1356 1.404 . S
C1357 H1369 0.930 . S
C1358 C1354 1.524 . S
C1358 H1370 0.956 . S
C1358 H1371 0.961 . S
C1358 H1372 0.961 . S
C1359 C1356 1.539 . S
C1359 H1373 0.958 . S
C1359 H1374 0.961 . S
C1359 H1375 0.960 . S
H1360 C1344 0.931 . S
H1361 C1349 0.929 . S
H1362 C1350 0.960 . S
H1363 C1350 0.962 . S
H1364 C1350 0.960 . S
H1365 C1351 0.961 . S
H1366 C1351 0.961 . S
H1367 C1351 0.961 . S
H1368 C1352 0.931 . S
H1369 C1357 0.930 . S
H1370 C1358 0.956 . S
H1371 C1358 0.961 . S
H1372 C1358 0.961 . S
H1373 C1359 0.958 . S
H1374 C1359 0.961 . S
H1375 C1359 0.960 . S
C1376 C1377 1.391 . S
C1376 C1378 1.394 . S
C1376 H1392 0.931 . S
C1377 C1376 1.391 . S
C1377 C1381 1.376 . S
C1378 C1376 1.394 . S
C1378 C1379 1.369 . S
C1378 C1382 1.531 . S
C1379 C1378 1.369 . S
C1379 C1380 1.410 . S
C1379 C1387 1.503 . S
C1380 C1379 1.410 . S
C1380 C1381 1.392 . S
C1380 C1383 1.511 . S
C1381 C1377 1.376 . S
C1381 C1380 1.392 . S
C1381 H1393 0.929 . S
C1382 C1378 1.531 . S
C1382 H1394 0.960 . S
C1382 H1395 0.962 . S
C1382 H1396 0.960 . S
C1383 C1380 1.511 . S
C1383 H1397 0.961 . S
C1383 H1398 0.961 . S
C1383 H1399 0.961 . S
C1384 C1385 1.370 . S
C1384 C1386 1.363 . S
C1384 H1400 0.931 . S
C1385 C1384 1.370 . S
C1385 C1389 1.408 . S
C1386 C1384 1.363 . S
C1386 C1387 1.370 . S
C1386 C1390 1.524 . S
C1387 C1379 1.503 . S
C1387 C1386 1.370 . S
C1387 C1388 1.403 . S
C1388 C1387 1.403 . S
C1388 C1389 1.404 . S
C1388 C1391 1.539 . S
C1389 C1385 1.408 . S
C1389 C1388 1.404 . S
C1389 H1401 0.930 . S
C1390 C1386 1.524 . S
C1390 H1402 0.956 . S
C1390 H1403 0.961 . S
C1390 H1404 0.961 . S
C1391 C1388 1.539 . S
C1391 H1405 0.958 . S
C1391 H1406 0.961 . S
C1391 H1407 0.960 . S
H1392 C1376 0.931 . S
H1393 C1381 0.929 . S
H1394 C1382 0.960 . S
H1395 C1382 0.962 . S
H1396 C1382 0.960 . S
H1397 C1383 0.961 . S
H1398 C1383 0.961 . S
H1399 C1383 0.961 . S
H1400 C1384 0.931 . S
H1401 C1389 0.930 . S
H1402 C1390 0.956 . S
H1403 C1390 0.961 . S
H1404 C1390 0.961 . S
H1405 C1391 0.958 . S
H1406 C1391 0.961 . S
H1407 C1391 0.960 . S
C641 C1 0.980 . S
C649 C495 1.070 . S
C673 C80 1.614 . S
C681 C539 1.610 . S
C713 C569 2.176 . S
C705 C140 2.071 . S
C737 C211 2.759 . S
C745 C610 2.767 . S
C777 C526 0.750 . S
C769 C31 0.824 . S
C809 C490 2.547 . S
C801 C61 2.485 . S
C841 C618 1.156 . S
C833 C151 1.134 . S
C873 C579 2.255 . S
C865 C200 2.363 . S
C897 C20 0.965 . S
C905 C615 1.015 . S
C937 C529 2.046 . S
C929 C121 2.111 . S
C961 C181 2.064 . S
C969 C498 2.058 . S
C993 C91 1.967 . S
C1001 C566 1.933 . S
C1033 C486 1.072 . S
C1025 C260 1.032 . S
C1057 C320 1.649 . S
C1065 C530 1.591 . S
C1089 C361 2.052 . S
C1097 C578 2.171 . S
C1121 C451 2.760 . S
C1129 C619 2.757 . S
C1153 C271 0.694 . S
C1161 C535 0.754 . S
C1193 C499 2.547 . S
C1185 C301 2.457 . S
C1225 C609 1.169 . S
C1217 C380 1.078 . S
C1257 C570 2.256 . S
C1249 C440 2.364 . S
C1281 C241 1.006 . S
C1289 C606 0.995 . S
C1321 C538 2.056 . S
C1313 C391 2.075 . S
C1353 C489 2.068 . S
C1345 C421 2.035 . S
C1377 C331 1.953 . S
C1385 C575 1.936 . S
