# Generated by pormake.
# Topology pyr, (3,6)-cn, num edge types: 1
# Building blocks:
#     Node 0, Type 0, BuildingBlock: ESEHIV_clean_linker_0, # of connection points: 3
#     Node 1, Type 0, BuildingBlock: ESEHIV_clean_linker_0, # of connection points: 3
#     Node 2, Type 0, BuildingBlock: ESEHIV_clean_linker_0, # of connection points: 3
#     Node 3, Type 0, BuildingBlock: ESEHIV_clean_linker_0, # of connection points: 3
#     Node 4, Type 0, BuildingBlock: ESEHIV_clean_linker_0, # of connection points: 3
#     Node 5, Type 0, BuildingBlock: ESEHIV_clean_linker_0, # of connection points: 3
#     Node 6, Type 0, BuildingBlock: ESEHIV_clean_linker_0, # of connection points: 3
#     Node 7, Type 0, BuildingBlock: ESEHIV_clean_linker_0, # of connection points: 3
#     Node 8, Type 1, BuildingBlock: INOVEN_clean_sbu_0, # of connection points: 6
#     Node 9, Type 1, BuildingBlock: INOVEN_clean_sbu_0, # of connection points: 6
#     Node 10, Type 1, BuildingBlock: INOVEN_clean_sbu_0, # of connection points: 6
#     Node 11, Type 1, BuildingBlock: INOVEN_clean_sbu_0, # of connection points: 6
#     Edge 12, Type (0, 1), BuildingBlock: MIFKUJ_clean_linker_0, # of connection points: 2
#     Edge 13, Type (0, 1), BuildingBlock: MIFKUJ_clean_linker_0, # of connection points: 2
#     Edge 14, Type (0, 1), BuildingBlock: MIFKUJ_clean_linker_0, # of connection points: 2
#     Edge 15, Type (0, 1), BuildingBlock: MIFKUJ_clean_linker_0, # of connection points: 2
#     Edge 16, Type (0, 1), BuildingBlock: MIFKUJ_clean_linker_0, # of connection points: 2
#     Edge 17, Type (0, 1), BuildingBlock: MIFKUJ_clean_linker_0, # of connection points: 2
#     Edge 18, Type (0, 1), BuildingBlock: MIFKUJ_clean_linker_0, # of connection points: 2
#     Edge 19, Type (0, 1), BuildingBlock: MIFKUJ_clean_linker_0, # of connection points: 2
#     Edge 20, Type (0, 1), BuildingBlock: MIFKUJ_clean_linker_0, # of connection points: 2
#     Edge 21, Type (0, 1), BuildingBlock: MIFKUJ_clean_linker_0, # of connection points: 2
#     Edge 22, Type (0, 1), BuildingBlock: MIFKUJ_clean_linker_0, # of connection points: 2
#     Edge 23, Type (0, 1), BuildingBlock: MIFKUJ_clean_linker_0, # of connection points: 2
#     Edge 24, Type (0, 1), BuildingBlock: MIFKUJ_clean_linker_0, # of connection points: 2
#     Edge 25, Type (0, 1), BuildingBlock: MIFKUJ_clean_linker_0, # of connection points: 2
#     Edge 26, Type (0, 1), BuildingBlock: MIFKUJ_clean_linker_0, # of connection points: 2
#     Edge 27, Type (0, 1), BuildingBlock: MIFKUJ_clean_linker_0, # of connection points: 2
#     Edge 28, Type (0, 1), BuildingBlock: MIFKUJ_clean_linker_0, # of connection points: 2
#     Edge 29, Type (0, 1), BuildingBlock: MIFKUJ_clean_linker_0, # of connection points: 2
#     Edge 30, Type (0, 1), BuildingBlock: MIFKUJ_clean_linker_0, # of connection points: 2
#     Edge 31, Type (0, 1), BuildingBlock: MIFKUJ_clean_linker_0, # of connection points: 2
#     Edge 32, Type (0, 1), BuildingBlock: MIFKUJ_clean_linker_0, # of connection points: 2
#     Edge 33, Type (0, 1), BuildingBlock: MIFKUJ_clean_linker_0, # of connection points: 2
#     Edge 34, Type (0, 1), BuildingBlock: MIFKUJ_clean_linker_0, # of connection points: 2
#     Edge 35, Type (0, 1), BuildingBlock: MIFKUJ_clean_linker_0, # of connection points: 2
# Relax obj value: 0.091
# Max RMSD: 0.126
# Mean RMSD: 0.058
data_MOF--net-pyr--node1-INOVEN_clean_sbu_0--node2-ESEHIV_clean_linker_0--edge1-MIFKUJ_clean_linker_0
_symmetry_space_group_name_H-M    P1
_symmetry_Int_Tables_number       1
_symmetry_cell_setting            triclinic
loop_
_symmetry_equiv_pos_as_xyz
'x, y, z'
_cell_length_a     47.088367
_cell_length_b     50.049799
_cell_length_c     45.164381
_cell_angle_alpha  90.959603
_cell_angle_beta   88.963283
_cell_angle_gamma 100.77488
loop_
_atom_site_label
_atom_site_type_symbol
_atom_site_fract_x
_atom_site_fract_y
_atom_site_fract_z
_atom_type_partial_charge
H0 H 0.28969 0.30818 0.22938 0.0
H1 H 0.33281 0.24033 0.23747 0.0
H2 H 0.34955 0.29192 0.1614 0.0
C3 C 0.30546 0.29651 0.22115 0.0
C4 C 0.31976 0.30337 0.19401 0.0
C5 C 0.30976 0.2737 0.23684 0.0
C6 C 0.32989 0.25842 0.22593 0.0
C7 C 0.34435 0.2649 0.19876 0.0
C8 C 0.339 0.28726 0.18272 0.0
H9 H 0.22413 0.83911 0.67352 0.0
H10 H 0.29166 0.79369 0.65596 0.0
H11 H 0.23638 0.80821 0.58565 0.0
C12 C 0.23491 0.82698 0.65849 0.0
C13 C 0.2271 0.82446 0.62857 0.0
C14 C 0.25835 0.81608 0.66843 0.0
C15 C 0.27315 0.80162 0.64847 0.0
C16 C 0.26529 0.79863 0.6186 0.0
C17 C 0.24225 0.8101 0.6088 0.0
H18 H 0.68421 0.33202 0.89084 0.0
H19 H 0.68544 0.39859 0.83136 0.0
H20 H 0.61684 0.32834 0.8271 0.0
C21 C 0.67439 0.34158 0.87342 0.0
C22 C 0.64852 0.32723 0.86098 0.0
C23 C 0.68816 0.36745 0.86324 0.0
C24 C 0.67541 0.37877 0.8394 0.0
C25 C 0.64985 0.3649 0.82567 0.0
C26 C 0.63676 0.33898 0.83673 0.0
H27 H 0.83359 0.70908 0.38946 0.0
H28 H 0.89745 0.71645 0.31945 0.0
H29 H 0.83034 0.64466 0.32492 0.0
C30 C 0.84262 0.70052 0.37006 0.0
C31 C 0.82854 0.6752 0.35858 0.0
C32 C 0.86763 0.71553 0.35638 0.0
C33 C 0.87855 0.70474 0.33022 0.0
C34 C 0.8654 0.67902 0.31816 0.0
C35 C 0.84036 0.66464 0.33288 0.0
H36 H 0.67974 0.81082 0.81416 0.0
H37 H 0.74604 0.76389 0.8283 0.0
H38 H 0.68759 0.77518 0.89914 0.0
C39 C 0.68983 0.798 0.82814 0.0
C40 C 0.68047 0.79401 0.85779 0.0
C41 C 0.7134 0.78704 0.81709 0.0
C42 C 0.72698 0.77141 0.83591 0.0
C43 C 0.71755 0.76693 0.86527 0.0
C44 C 0.69418 0.77798 0.8761 0.0
H45 H 0.74981 0.25183 0.37867 0.0
H46 H 0.81495 0.20224 0.3674 0.0
H47 H 0.80013 0.23688 0.45272 0.0
C48 C 0.76751 0.24333 0.38725 0.0
C49 C 0.77439 0.24714 0.41729 0.0
C50 C 0.78171 0.22676 0.36906 0.0
C51 C 0.80365 0.21494 0.38118 0.0
C52 C 0.81046 0.21854 0.41126 0.0
C53 C 0.79581 0.23479 0.4292 0.0
H54 H 0.33822 0.71382 0.16606 0.0
H55 H 0.33945 0.64816 0.22611 0.0
H56 H 0.40549 0.72041 0.23042 0.0
C57 C 0.34845 0.70484 0.18364 0.0
C58 C 0.37384 0.72012 0.19613 0.0
C59 C 0.33561 0.67875 0.19394 0.0
C60 C 0.34876 0.66814 0.21797 0.0
C61 C 0.37378 0.68296 0.23181 0.0
C62 C 0.38597 0.70907 0.22065 0.0
H63 H 0.13115 0.33378 0.7403 0.0
H64 H 0.19561 0.3424 0.67059 0.0
H65 H 0.19645 0.4068 0.73459 0.0
C66 C 0.14965 0.34584 0.72925 0.0
C67 C 0.16202 0.37187 0.74111 0.0
C68 C 0.1616 0.33475 0.7038 0.0
C69 C 0.18631 0.35039 0.69015 0.0
C70 C 0.19937 0.37619 0.70126 0.0
C71 C 0.18698 0.38664 0.72666 0.0
Gd72 Gd 0.02118 0.03789 0.50098 0.0
Gd73 Gd 1.01055 1.01098 0.56075 0.0
C74 C 0.04238 0.07293 0.56191 0.0
C75 C 0.02653 0.07061 0.45668 0.0
C76 C 0.04779 0.09449 0.44769 0.0
C77 C 0.04882 0.10285 0.41825 0.0
C78 C 0.06827 0.10794 0.46772 0.0
C79 C 0.09157 0.13732 0.42837 0.0
C80 C 0.08991 0.12927 0.45818 0.0
C81 C 0.07052 0.12401 0.40863 0.0
C82 C 0.06276 1.01143 0.51864 0.0
C83 C 0.98891 0.97607 0.49968 0.0
C84 C 1.00396 0.97686 0.60352 0.0
C85 C 0.97919 0.95515 0.61024 0.0
C86 C 0.95236 0.95569 0.59742 0.0
C87 C 0.98172 0.93432 0.62981 0.0
C88 C 0.93017 0.91628 0.62579 0.0
C89 C 0.95735 0.91491 0.63747 0.0
C90 C 0.92802 0.93654 0.60528 0.0
C91 C 0.96858 0.03694 0.54325 0.0
O92 O 0.034 0.07315 0.534 0.0
O93 O 0.03999 0.04962 0.57615 0.0
O94 O 0.03598 0.04766 0.45616 0.0
O95 O 1.01089 0.0736 0.48031 0.0
O96 O 0.05456 1.0118 0.4915 0.0
O97 O 0.04966 1.02602 0.53468 0.0
O98 O 0.99708 0.97579 0.52766 0.0
O99 O 0.99175 0.99937 0.48539 0.0
O100 O 0.99871 1.00155 0.60634 0.0
O101 O 0.01851 0.97333 0.57926 0.0
O102 O 0.97565 0.03542 0.57063 0.0
O103 O 0.98218 1.02286 0.52712 0.0
H104 H 0.03329 0.09253 0.40248 0.0
H105 H 0.06783 0.10167 0.49057 0.0
H106 H 0.10545 0.13925 0.4741 0.0
H107 H 0.07137 0.12918 0.38542 0.0
H108 H 0.9501 0.97141 0.58188 0.0
H109 H 1.00229 0.93339 0.63966 0.0
H110 H 0.95949 0.89953 0.65345 0.0
H111 H 0.90738 0.93784 0.59574 0.0
Gd112 Gd 0.53061 0.0286 0.04482 0.0
Gd113 Gd 0.48111 1.02023 1.00961 0.0
C114 C 0.48311 0.06041 0.06655 0.0
C115 C 0.58264 0.03934 0.06522 0.0
C116 C 0.60118 0.06094 0.0819 0.0
C117 C 0.63004 0.05899 0.08631 0.0
C118 C 0.59014 0.08271 0.09465 0.0
C119 C 0.63636 0.09931 0.11807 0.0
C120 C 0.60765 0.10182 0.11261 0.0
C121 C 0.64752 0.07803 0.10421 0.0
C122 C 0.49027 0.98594 0.0654 0.0
C123 C 0.52805 0.9877 0.98801 0.0
C124 C 0.43002 1.00941 0.98689 0.0
C125 C 0.41438 0.98919 0.96583 0.0
C126 C 0.41044 0.99694 0.93667 0.0
C127 C 0.40329 0.96228 0.97431 0.0
C128 C 0.38581 0.95109 0.92444 0.0
C129 C 0.38904 0.94342 0.95378 0.0
C130 C 0.39648 0.97806 0.91616 0.0
C131 C 0.52208 0.06261 0.98942 0.0
O132 O 0.51122 0.06162 0.0663 0.0
O133 O 0.46658 0.04302 0.04901 0.0
O134 O 0.56058 1.02573 0.0798 0.0
O135 O 0.57622 0.04518 0.03838 0.0
O136 O 0.50499 1.00493 0.08173 0.0
O137 O 0.49711 0.99064 0.03841 0.0
O138 O 0.50015 0.98741 0.98744 0.0
O139 O 0.54461 1.00443 1.00616 0.0
O140 O 0.45138 0.027 0.97579 0.0
O141 O 0.43595 1.00079 1.01281 0.0
O142 O 0.50787 0.04342 0.97294 0.0
O143 O 0.51459 0.05809 1.01625 0.0
H144 H 0.63887 0.04236 0.07644 0.0
H145 H 0.56783 0.08447 0.09136 0.0
H146 H 0.59841 0.1179 0.12314 0.0
H147 H 0.66968 0.07584 0.10761 0.0
H148 H 0.41836 1.01762 0.92962 0.0
H149 H 0.40577 0.9557 0.99668 0.0
H150 H 0.38105 0.92271 0.96069 0.0
H151 H 0.39384 0.98463 0.8938 0.0
Gd152 Gd 0.51166 0.50312 0.51097 0.0
Gd153 Gd 0.51519 0.54965 0.54795 0.0
C154 C 0.53811 0.501 0.5778 0.0
C155 C 0.5228 0.46191 0.48078 0.0
C156 C 0.53928 0.44042 0.48634 0.0
C157 C 0.53749 0.42721 0.51373 0.0
C158 C 0.55908 0.43478 0.46471 0.0
C159 C 0.57636 0.40414 0.49822 0.0
C160 C 0.57751 0.41684 0.47061 0.0
C161 C 0.55583 0.40902 0.51957 0.0
C162 C 0.46131 0.5027 0.54167 0.0
C163 C 0.48827 0.55162 0.48108 0.0
C164 C 0.50497 0.59224 0.57602 0.0
C165 C 0.49464 0.61651 0.56601 0.0
C166 C 0.50892 0.64248 0.57482 0.0
C167 C 0.4712 0.61402 0.54672 0.0
C168 C 0.47552 0.66313 0.54631 0.0
C169 C 0.46173 0.63707 0.53701 0.0
C170 C 0.49943 0.66564 0.56508 0.0
C171 C 0.5654 0.54991 0.51711 0.0
O172 O 0.53663 0.49089 0.5504 0.0
O173 O 0.52828 0.52357 0.58366 0.0
O174 O 0.49886 0.4613 0.49604 0.0
O175 O 0.53834 0.48634 0.47887 0.0
O176 O 0.46308 0.49676 0.51371 0.0
O177 O 0.48653 0.50929 0.55212 0.0
O178 O 0.49154 0.56265 0.50799 0.0
O179 O 0.49642 0.52821 0.47562 0.0
O180 O 0.53075 0.58986 0.56661 0.0
O181 O 0.48641 0.56929 0.57483 0.0
O182 O 0.56377 0.55576 0.54509 0.0
O183 O 0.54012 0.54352 0.50678 0.0
H184 H 0.52248 0.43144 0.53085 0.0
H185 H 0.56081 0.44485 0.44351 0.0
H186 H 0.59289 0.41306 0.45364 0.0
H187 H 0.55462 0.39947 0.54102 0.0
H188 H 0.52727 0.64482 0.5894 0.0
H189 H 0.45987 0.59424 0.53937 0.0
H190 H 0.44287 0.63436 0.5231 0.0
H191 H 0.51052 0.68547 0.57254 0.0
Gd192 Gd 1.01115 0.49552 0.04673 0.0
Gd193 Gd 1.01198 0.55188 1.01205 0.0
C194 C 0.06599 0.54702 0.0546 0.0
C195 C 0.02427 0.44979 0.06093 0.0
C196 C 0.05196 0.44108 0.06586 0.0
C197 C 0.05478 0.42575 0.09095 0.0
C198 C 0.07636 0.45017 0.04775 0.0
C199 C 0.10618 0.42946 0.08055 0.0
C200 C 0.10327 0.44422 0.05496 0.0
C201 C 0.08167 0.42007 0.0983 0.0
C202 C 0.98179 0.52957 0.07842 0.0
C203 C 0.95728 0.50003 1.0041 0.0
C204 C 1.00248 0.5995 0.9997 0.0
C205 C 0.97765 0.61326 0.99938 0.0
C206 C 0.98053 0.63837 0.98544 0.0
C207 C 0.9507 0.60088 1.01111 0.0
C208 C 0.92928 0.6384 0.99376 0.0
C209 C 0.92667 0.61334 1.00828 0.0
C210 C 0.95661 0.65083 0.98262 0.0
C211 C 0.04133 0.518 0.98025 0.0
O212 O 0.05489 0.52088 0.05895 0.0
O213 O 0.05293 0.563 0.03853 0.0
O214 O 0.01778 0.46737 0.08051 0.0
O215 O 0.0185 0.45548 0.03368 0.0
O216 O 0.98342 0.50505 0.08626 0.0
O217 O 0.99481 0.53343 0.05368 0.0
O218 O 0.96782 0.52648 1.0006 0.0
O219 O 0.97079 0.48385 1.01948 0.0
O220 O 1.00212 0.58006 0.97984 0.0
O221 O 1.01095 0.5933 1.0258 0.0
O222 O 0.03927 0.54236 0.9722 0.0
O223 O 0.02857 0.51418 1.00513 0.0
H224 H 0.03629 0.41879 0.10533 0.0
H225 H 0.07482 0.46244 0.02851 0.0
H226 H 0.12195 0.45185 0.04111 0.0
H227 H 0.08335 0.40843 0.118 0.0
H228 H 1.00117 0.64802 0.97604 0.0
H229 H 0.94816 0.58138 1.02189 0.0
H230 H 0.90605 0.60323 1.01723 0.0
H231 H 0.95942 0.66975 0.9707 0.0
H232 H 0.25155 0.26999 0.24091 0.0
H233 H 0.21923 0.2527 0.28164 0.0
H234 H 0.29182 0.2374 0.33133 0.0
H235 H 0.32457 0.2548 0.29016 0.0
H236 H 0.24766 0.19445 0.33171 0.0
H237 H 0.25714 0.29001 0.35168 0.0
H238 H 0.25801 0.33757 0.33765 0.0
H239 H 0.16942 0.31677 0.31114 0.0
H240 H 0.16809 0.26902 0.32472 0.0
H241 H 0.14841 0.14586 0.44513 0.0
H242 H 0.18942 0.17565 0.42202 0.0
H243 H 0.13183 0.20433 0.36201 0.0
H244 H 0.09051 0.17605 0.3863 0.0
H245 H 0.17441 0.2442 0.37444 0.0
H246 H 0.16667 0.14996 0.34431 0.0
H247 H 0.16441 0.10098 0.35236 0.0
H248 H 0.2479 0.1181 0.39261 0.0
H249 H 0.25047 0.16726 0.38512 0.0
C250 C 0.26077 0.26352 0.26072 0.0
C251 C 0.29067 0.26415 0.26251 0.0
C252 C 0.24224 0.25359 0.28402 0.0
C253 C 0.25316 0.24428 0.30981 0.0
C254 C 0.283 0.24472 0.31171 0.0
C255 C 0.30164 0.2546 0.28822 0.0
C256 C 0.23293 0.23266 0.33383 0.0
C257 C 0.23214 0.20555 0.34168 0.0
C258 C 0.2122 0.24695 0.3462 0.0
C259 C 0.21255 0.2759 0.33918 0.0
C260 C 0.23784 0.29557 0.34285 0.0
C261 C 0.23842 0.32256 0.33495 0.0
C262 C 0.21379 0.33018 0.3235 0.0
C263 C 0.18847 0.31085 0.32007 0.0
C264 C 0.18777 0.28383 0.32794 0.0
C265 C 0.14429 0.15908 0.42762 0.0
C266 C 0.11609 0.15811 0.41722 0.0
C267 C 0.16787 0.17592 0.41419 0.0
C268 C 0.16381 0.19168 0.38973 0.0
C269 C 0.13557 0.19216 0.38065 0.0
C270 C 0.11196 0.17566 0.39433 0.0
C271 C 0.18881 0.2058 0.3719 0.0
C272 C 0.19044 0.23333 0.36512 0.0
C273 C 0.21007 0.19178 0.36008 0.0
C274 C 0.2086 0.16227 0.3645 0.0
C275 C 0.18445 0.14328 0.35506 0.0
C276 C 0.18313 0.1155 0.3595 0.0
C277 C 0.20596 0.10644 0.37308 0.0
C278 C 0.2302 0.12515 0.38217 0.0
C279 C 0.23161 0.15297 0.37783 0.0
H280 H 0.2049 0.08492 0.37649 0.0
H281 H 0.21432 0.35106 0.31729 0.0
H282 H 0.22845 0.81085 0.72125 0.0
H283 H 0.24723 0.82548 0.77044 0.0
H284 H 0.33212 0.8524 0.73181 0.0
H285 H 0.31369 0.837 0.68315 0.0
H286 H 0.3378 0.83069 0.78227 0.0
H287 H 0.28269 0.89615 0.74731 0.0
H288 H 0.23895 0.91088 0.72943 0.0
H289 H 0.19345 0.88303 0.80969 0.0
H290 H 0.23685 0.86782 0.82786 0.0
H291 H 0.40482 0.94234 0.86854 0.0
H292 H 0.38022 0.91144 0.8307 0.0
H293 H 0.31014 0.88385 0.89223 0.0
H294 H 0.33469 0.91504 0.9303 0.0
H295 H 0.2922 0.8988 0.83705 0.0
H296 H 0.35375 0.84161 0.87448 0.0
H297 H 0.39996 0.8307 0.8906 0.0
H298 H 0.43619 0.84712 0.80341 0.0
H299 H 0.39033 0.85851 0.78685 0.0
C300 C 0.25117 0.81962 0.72348 0.0
C301 C 0.26966 0.82279 0.69852 0.0
C302 C 0.26186 0.82803 0.75149 0.0
C303 C 0.29103 0.8404 0.75478 0.0
C304 C 0.30959 0.84281 0.72991 0.0
C305 C 0.29905 0.83402 0.70209 0.0
C306 C 0.30221 0.85225 0.78358 0.0
C307 C 0.32784 0.84561 0.79421 0.0
C308 C 0.28889 0.87128 0.7996 0.0
C309 C 0.26287 0.88055 0.78877 0.0
C310 C 0.26329 0.893 0.76104 0.0
C311 C 0.23857 0.90146 0.75087 0.0
C312 C 0.2134 0.89781 0.76837 0.0
C313 C 0.21293 0.88578 0.79612 0.0
C314 C 0.23758 0.87724 0.80637 0.0
C315 C 0.38421 0.92963 0.87403 0.0
C316 C 0.37158 0.93112 0.90227 0.0
C317 C 0.37031 0.91184 0.8525 0.0
C318 C 0.34351 0.89522 0.85879 0.0
C319 C 0.33091 0.89644 0.88706 0.0
C320 C 0.34497 0.91412 0.90875 0.0
C321 C 0.32815 0.8778 0.83511 0.0
C322 C 0.30177 0.88341 0.82547 0.0
C323 C 0.34107 0.85824 0.81969 0.0
C324 C 0.3686 0.85103 0.82947 0.0
C325 C 0.37161 0.84304 0.85878 0.0
C326 C 0.39775 0.83675 0.86799 0.0
C327 C 0.42101 0.83824 0.84805 0.0
C328 C 0.41816 0.84596 0.81883 0.0
C329 C 0.39207 0.85229 0.8095 0.0
H330 H 0.44124 0.83339 0.85523 0.0
H331 H 0.19429 0.90437 0.76046 0.0
H332 H 0.62374 0.34052 0.77472 0.0
H333 H 0.60434 0.36187 0.73303 0.0
H334 H 0.62753 0.44023 0.77597 0.0
H335 H 0.64623 0.419 0.81793 0.0
H336 H 0.57578 0.43646 0.75227 0.0
H337 H 0.66755 0.41857 0.71427 0.0
H338 H 0.70296 0.38936 0.70172 0.0
H339 H 0.64108 0.33973 0.6456 0.0
H340 H 0.60528 0.36861 0.65788 0.0
H341 H 0.55733 0.52129 0.63247 0.0
H342 H 0.57601 0.49803 0.67283 0.0
H343 H 0.56375 0.42392 0.62066 0.0
H344 H 0.54663 0.44774 0.57953 0.0
H345 H 0.60852 0.42353 0.64898 0.0
H346 H 0.51705 0.43948 0.68427 0.0
H347 H 0.47913 0.46597 0.69664 0.0
H348 H 0.53572 0.51494 0.75821 0.0
H349 H 0.57412 0.48896 0.74592 0.0
C350 C 0.62457 0.36228 0.77552 0.0
C351 C 0.63697 0.37783 0.80003 0.0
C352 C 0.61367 0.37462 0.75131 0.0
C353 C 0.61469 0.40299 0.75066 0.0
C354 C 0.62646 0.41842 0.7754 0.0
C355 C 0.63747 0.40615 0.7995 0.0
C356 C 0.60345 0.41666 0.7246 0.0
C357 C 0.58329 0.43384 0.72975 0.0
C358 C 0.61211 0.4128 0.69476 0.0
C359 C 0.63368 0.3956 0.6872 0.0
C360 C 0.66147 0.40135 0.69937 0.0
C361 C 0.68162 0.38488 0.69226 0.0
C362 C 0.67425 0.36266 0.67294 0.0
C363 C 0.64673 0.3569 0.66063 0.0
C364 C 0.62654 0.37337 0.66756 0.0
C365 C 0.55861 0.50003 0.62947 0.0
C366 C 0.55016 0.48653 0.60249 0.0
C367 C 0.56912 0.4865 0.65291 0.0
C368 C 0.57077 0.45863 0.65076 0.0
C369 C 0.56278 0.44526 0.62352 0.0
C370 C 0.55283 0.45897 0.59981 0.0
C371 C 0.58092 0.44366 0.67658 0.0
C372 C 0.60087 0.42619 0.67143 0.0
C373 C 0.57161 0.44683 0.70641 0.0
C374 C 0.54855 0.46243 0.71396 0.0
C375 C 0.52146 0.456 0.70031 0.0
C376 C 0.49988 0.47092 0.70732 0.0
C377 C 0.50504 0.49217 0.72814 0.0
C378 C 0.53177 0.4985 0.74206 0.0
C379 C 0.55344 0.48367 0.7351 0.0
H380 H 0.4883 0.50369 0.73353 0.0
H381 H 0.68988 0.34994 0.66745 0.0
H382 H 0.83688 0.64361 0.2753 0.0
H383 H 0.85724 0.62166 0.23347 0.0
H384 H 0.94226 0.66535 0.25429 0.0
H385 H 0.9226 0.68623 0.29752 0.0
H386 H 0.91289 0.65862 0.18393 0.0
H387 H 0.94709 0.61516 0.27097 0.0
H388 H 0.93761 0.59213 0.31899 0.0
H389 H 0.87236 0.53129 0.27931 0.0
H390 H 0.8812 0.55425 0.23115 0.0
H391 H 0.99571 0.58596 0.08482 0.0
H392 H 0.97676 0.61427 0.12259 0.0
H393 H 0.91634 0.54381 0.15251 0.0
H394 H 0.93633 0.51566 0.11612 0.0
H395 H 0.93456 0.56654 0.19809 0.0
H396 H 0.89673 0.6044 0.11383 0.0
H397 H 0.89744 0.62581 0.06499 0.0
H398 H 0.96017 0.69373 0.09564 0.0
H399 H 0.95946 0.67288 0.1449 0.0
C400 C 0.86001 0.64847 0.27159 0.0
C401 C 0.87783 0.66682 0.29072 0.0
C402 C 0.8716 0.63601 0.24714 0.0
C403 C 0.90136 0.64176 0.24043 0.0
C404 C 0.9192 0.66059 0.25872 0.0
C405 C 0.90772 0.67273 0.28355 0.0
C406 C 0.91379 0.627 0.21535 0.0
C407 C 0.91809 0.63866 0.18708 0.0
C408 C 0.91959 0.60051 0.21883 0.0
C409 C 0.91456 0.58658 0.24762 0.0
C410 C 0.93053 0.59703 0.27258 0.0
C411 C 0.92532 0.58396 0.2998 0.0
C412 C 0.90433 0.56031 0.30223 0.0
C413 C 0.88857 0.54963 0.27741 0.0
C414 C 0.89369 0.56266 0.25016 0.0
C415 C 0.97795 0.57671 0.09902 0.0
C416 C 0.96744 0.54849 0.09714 0.0
C417 C 0.96698 0.59296 0.12081 0.0
C418 C 0.94473 0.58157 0.14092 0.0
C419 C 0.93361 0.55351 0.13795 0.0
C420 C 0.94493 0.53731 0.11675 0.0
C421 C 0.93396 0.59798 0.16603 0.0
C422 C 0.92973 0.58658 0.19453 0.0
C423 C 0.92754 0.62443 0.16244 0.0
C424 C 0.92829 0.63694 0.13289 0.0
C425 C 0.91081 0.62382 0.11008 0.0
C426 C 0.91117 0.63587 0.08234 0.0
C427 C 0.92906 0.66098 0.07709 0.0
C428 C 0.9464 0.67423 0.0997 0.0
C429 C 0.94592 0.66237 0.12758 0.0
H430 H 0.92936 0.67024 0.05557 0.0
H431 H 0.90032 0.55021 0.32331 0.0
H432 H 0.38997 0.24795 0.22414 0.0
H433 H 0.41703 0.21383 0.20442 0.0
H434 H 0.36548 0.2051 0.1257 0.0
H435 H 0.33893 0.23963 0.14492 0.0
H436 H 0.37034 0.15438 0.16235 0.0
H437 H 0.42507 0.23436 0.11315 0.0
H438 H 0.45424 0.28072 0.11295 0.0
H439 H 0.51685 0.25497 0.16849 0.0
H440 H 0.48777 0.20851 0.16938 0.0
H441 H 0.42919 0.07192 0.06139 0.0
H442 H 0.40868 0.1068 0.08766 0.0
H443 H 0.48659 0.12869 0.13843 0.0
H444 H 0.50786 0.09433 0.11111 0.0
H445 H 0.47077 0.17262 0.12217 0.0
H446 H 0.42144 0.09315 0.16926 0.0
H447 H 0.39357 0.04646 0.17348 0.0
H448 H 0.32242 0.06981 0.12889 0.0
H449 H 0.35002 0.11657 0.12399 0.0
C450 C 0.38479 0.23899 0.20244 0.0
C451 C 0.36256 0.24644 0.18591 0.0
C452 C 0.40018 0.21959 0.19126 0.0
C453 C 0.39314 0.20705 0.16368 0.0
C454 C 0.37118 0.21467 0.14701 0.0
C455 C 0.35621 0.23445 0.15789 0.0
C456 C 0.40769 0.18503 0.15271 0.0
C457 C 0.3922 0.15827 0.15329 0.0
C458 C 0.4366 0.19019 0.14224 0.0
C459 C 0.45405 0.21808 0.14166 0.0
C460 C 0.44488 0.23866 0.1256 0.0
C461 C 0.46144 0.26493 0.12529 0.0
C462 C 0.48733 0.27081 0.14079 0.0
C463 C 0.49676 0.2504 0.15655 0.0
C464 C 0.48025 0.2241 0.15695 0.0
C465 C 0.44192 0.08392 0.07835 0.0
C466 C 0.47011 0.08025 0.08429 0.0
C467 C 0.43007 0.10384 0.0935 0.0
C468 C 0.44583 0.12011 0.11548 0.0
C469 C 0.47395 0.11634 0.12165 0.0
C470 C 0.48604 0.09664 0.10612 0.0
C471 C 0.43316 0.14169 0.13096 0.0
C472 C 0.449 0.16845 0.13143 0.0
C473 C 0.40471 0.13643 0.14307 0.0
C474 C 0.38791 0.10835 0.14608 0.0
C475 C 0.39992 0.08829 0.16017 0.0
C476 C 0.38416 0.06182 0.16271 0.0
C477 C 0.35627 0.05516 0.15141 0.0
C478 C 0.34404 0.075 0.13762 0.0
C479 C 0.35972 0.1015 0.13499 0.0
H480 H 0.3441 0.03465 0.1534 0.0
H481 H 0.50013 0.29116 0.14051 0.0
H482 H 0.17302 0.82559 0.6512 0.0
H483 H 0.13813 0.85215 0.63316 0.0
H484 H 0.19847 0.88454 0.56379 0.0
H485 H 0.23277 0.85765 0.58118 0.0
H486 H 0.14059 0.9041 0.62998 0.0
H487 H 0.16634 0.89787 0.50327 0.0
H488 H 0.17891 0.86438 0.46704 0.0
H489 H 0.13935 0.79909 0.5233 0.0
H490 H 0.12616 0.83215 0.55967 0.0
H491 H 0.10518 1.01707 0.55915 0.0
H492 H 0.12791 0.98108 0.57888 0.0
H493 H 0.07096 0.92144 0.5265 0.0
H494 H 0.05043 0.95784 0.50473 0.0
H495 H 0.11826 0.90849 0.52349 0.0
H496 H 0.06439 0.93322 0.60684 0.0
H497 H 0.04819 0.96408 0.64401 0.0
H498 H 0.1345 0.98589 0.67668 0.0
H499 H 0.15147 0.9557 0.6394 0.0
C500 C 0.17857 0.8382 0.63193 0.0
C501 C 0.20534 0.83935 0.61731 0.0
C502 C 0.15872 0.85335 0.62168 0.0
C503 C 0.16549 0.86996 0.59681 0.0
C504 C 0.19239 0.87127 0.58246 0.0
C505 C 0.21201 0.85593 0.59243 0.0
C506 C 0.14525 0.88706 0.58647 0.0
C507 C 0.13537 0.90491 0.60676 0.0
C508 C 0.13788 0.88759 0.55631 0.0
C509 C 0.14542 0.86754 0.5343 0.0
C510 C 0.16016 0.87637 0.50784 0.0
C511 C 0.16743 0.85746 0.48729 0.0
C512 C 0.15999 0.82963 0.49289 0.0
C513 C 0.14518 0.82065 0.51903 0.0
C514 C 0.13783 0.83947 0.53964 0.0
C515 C 0.09784 0.99623 0.55181 0.0
C516 C 0.07644 0.99002 0.53037 0.0
C517 C 0.11046 0.97562 0.56336 0.0
C518 C 0.10072 0.94833 0.55478 0.0
C519 C 0.07896 0.94226 0.53349 0.0
C520 C 0.06723 0.963 0.52105 0.0
C521 C 0.11413 0.92627 0.56685 0.0
C522 C 0.12284 0.90745 0.54684 0.0
C523 C 0.11956 0.92432 0.59745 0.0
C524 C 0.10923 0.94223 0.62019 0.0
C525 C 0.07996 0.94468 0.62185 0.0
C526 C 0.07063 0.96206 0.64293 0.0
C527 C 0.09026 0.97689 0.66266 0.0
C528 C 0.1193 0.97437 0.66139 0.0
C529 C 0.12879 0.95713 0.6403 0.0
H530 H 0.08296 0.99032 0.67894 0.0
H531 H 0.16566 0.81503 0.47697 0.0
H532 H 0.70601 0.36524 0.92141 0.0
H533 H 0.75081 0.38739 0.94387 0.0
H534 H 0.77768 0.42843 0.86208 0.0
H535 H 0.73405 0.40414 0.8384 0.0
H536 H 0.82265 0.41768 0.88278 0.0
H537 H 0.75077 0.4597 0.92976 0.0
H538 H 0.7056 0.46272 0.95703 0.0
H539 H 0.73444 0.42315 0.03138 0.0
H540 H 0.77964 0.41958 1.00441 0.0
H541 H 0.93124 0.51834 0.95611 0.0
H542 H 0.8861 0.49705 0.93195 0.0
H543 H 0.87359 0.43292 0.99595 0.0
H544 H 0.91907 0.45359 1.01967 0.0
H545 H 0.822 0.45765 0.98394 0.0
H546 H 0.89537 0.4172 0.93321 0.0
H547 H 0.94085 0.41885 0.90478 0.0
H548 H 0.9085 0.46216 0.83552 0.0
H549 H 0.86297 0.46114 0.86379 0.0
C550 C 0.72147 0.37852 0.90774 0.0
C551 C 0.71572 0.38246 0.87766 0.0
C552 C 0.74718 0.39182 0.92103 0.0
C553 C 0.7679 0.41042 0.90521 0.0
C554 C 0.76232 0.41444 0.87519 0.0
C555 C 0.73685 0.40066 0.86165 0.0
C556 C 0.79539 0.42516 0.91974 0.0
C557 C 0.82218 0.42672 0.90472 0.0
C558 C 0.79561 0.43706 0.94863 0.0
C559 C 0.76847 0.43914 0.96494 0.0
C560 C 0.74739 0.45147 0.95185 0.0
C561 C 0.7218 0.45331 0.96726 0.0
C562 C 0.71712 0.44307 0.99589 0.0
C563 C 0.73807 0.43104 1.00919 0.0
C564 C 0.7637 0.42912 0.99386 0.0
C565 C 0.91889 0.49974 0.96515 0.0
C566 C 0.92904 0.48775 0.98993 0.0
C567 C 0.89303 0.48751 0.9512 0.0
C568 C 0.87625 0.46325 0.96199 0.0
C569 C 0.88599 0.45159 0.98711 0.0
C570 C 0.91215 0.46345 1.00063 0.0
C571 C 0.84878 0.44987 0.94699 0.0
C572 C 0.82215 0.44862 0.96195 0.0
C573 C 0.84863 0.43891 0.91784 0.0
C574 C 0.8759 0.43936 0.90076 0.0
C575 C 0.89806 0.4273 0.91205 0.0
C576 C 0.92383 0.42808 0.89594 0.0
C577 C 0.9276 0.44067 0.8684 0.0
C578 C 0.90557 0.45245 0.85688 0.0
C579 C 0.87977 0.45177 0.87293 0.0
H580 H 0.94756 0.44125 0.85596 0.0
H581 H 0.6973 0.44451 1.00779 0.0
H582 H 0.81597 0.66993 0.41844 0.0
H583 H 0.77154 0.64692 0.44271 0.0
H584 H 0.73488 0.62213 0.35762 0.0
H585 H 0.77911 0.64586 0.33305 0.0
H586 H 0.69488 0.63892 0.39258 0.0
H587 H 0.75961 0.57676 0.40401 0.0
H588 H 0.80483 0.56239 0.41791 0.0
H589 H 0.79156 0.58533 0.50842 0.0
H590 H 0.74645 0.6002 0.49498 0.0
H591 H 0.57293 0.54902 0.4562 0.0
H592 H 0.6168 0.56731 0.42729 0.0
H593 H 0.66242 0.59142 0.50822 0.0
H594 H 0.61909 0.57259 0.53695 0.0
H595 H 0.69746 0.57273 0.47251 0.0
H596 H 0.63445 0.63721 0.46099 0.0
H597 H 0.58929 0.65196 0.44753 0.0
H598 H 0.59937 0.62518 0.35778 0.0
H599 H 0.64442 0.60993 0.37081 0.0
C600 C 0.79847 0.65976 0.40473 0.0
C601 C 0.80146 0.65994 0.37359 0.0
C602 C 0.77301 0.64628 0.41876 0.0
C603 C 0.74962 0.63235 0.4022 0.0
C604 C 0.75244 0.63256 0.3711 0.0
C605 C 0.77799 0.64599 0.35702 0.0
C606 C 0.72232 0.61785 0.41736 0.0
C607 C 0.69548 0.62413 0.40974 0.0
C608 C 0.72272 0.59883 0.44025 0.0
C609 C 0.74978 0.58981 0.44843 0.0
C610 C 0.76644 0.57893 0.42684 0.0
C611 C 0.79204 0.57066 0.43464 0.0
C612 C 0.80109 0.573 0.46401 0.0
C613 C 0.78453 0.58355 0.48566 0.0
C614 C 0.75893 0.59188 0.47797 0.0
C615 C 0.59238 0.55805 0.4678 0.0
C616 C 0.59231 0.55937 0.49897 0.0
C617 C 0.61751 0.56875 0.45122 0.0
C618 C 0.64318 0.58135 0.46534 0.0
C619 C 0.64317 0.58198 0.49651 0.0
C620 C 0.6182 0.5712 0.51302 0.0
C621 C 0.67 0.59404 0.44805 0.0
C622 C 0.6968 0.58742 0.45527 0.0
C623 C 0.66954 0.61282 0.42488 0.0
C624 C 0.64262 0.62217 0.41695 0.0
C625 C 0.62693 0.63431 0.43843 0.0
C626 C 0.60137 0.64277 0.43087 0.0
C627 C 0.59142 0.63943 0.40184 0.0
C628 C 0.60708 0.6277 0.38028 0.0
C629 C 0.63263 0.61916 0.38773 0.0
H630 H 0.57162 0.64599 0.39604 0.0
H631 H 0.82091 0.56659 0.47001 0.0
H632 H 0.31478 0.35431 0.21296 0.0
H633 H 0.28753 0.3847 0.1889 0.0
H634 H 0.27765 0.33219 0.11167 0.0
H635 H 0.30464 0.30147 0.13577 0.0
H636 H 0.28149 0.39262 0.10131 0.0
H637 H 0.22877 0.31569 0.15773 0.0
H638 H 0.22152 0.28765 0.20257 0.0
H639 H 0.21133 0.35765 0.25509 0.0
H640 H 0.21882 0.38618 0.21048 0.0
H641 H 0.14429 0.40684 0.04668 0.0
H642 H 0.18887 0.39339 0.06284 0.0
H643 H 0.1771 0.4272 0.14983 0.0
H644 H 0.13198 0.43965 0.13395 0.0
H645 H 0.1875 0.37958 0.15582 0.0
H646 H 0.23394 0.45612 0.10013 0.0
H647 H 0.24276 0.4858 0.05657 0.0
H648 H 0.26637 0.42045 1.00468 0.0
H649 H 0.2574 0.39029 0.04786 0.0
C650 C 0.3076 0.34971 0.19048 0.0
C651 C 0.31136 0.32531 0.17642 0.0
C652 C 0.29219 0.36715 0.17672 0.0
C653 C 0.28032 0.36044 0.14871 0.0
C654 C 0.28677 0.33771 0.13327 0.0
C655 C 0.30218 0.32018 0.14707 0.0
C656 C 0.25682 0.37374 0.13846 0.0
C657 C 0.26085 0.38975 0.11301 0.0
C658 C 0.2302 0.37037 0.15421 0.0
C659 C 0.22461 0.35309 0.18085 0.0
C660 C 0.2251 0.32511 0.17886 0.0
C661 C 0.22096 0.30914 0.20423 0.0
C662 C 0.21611 0.32088 0.23171 0.0
C663 C 0.21516 0.34859 0.23381 0.0
C664 C 0.21929 0.36467 0.20847 0.0
C665 C 0.15153 0.41172 0.06909 0.0
C666 C 0.13468 0.42401 0.08918 0.0
C667 C 0.17708 0.40418 0.0783 0.0
C668 C 0.18654 0.40941 0.10756 0.0
C669 C 0.17021 0.42276 0.12723 0.0
C670 C 0.14446 0.42984 0.11818 0.0
C671 C 0.21187 0.39883 0.11846 0.0
C672 C 0.20816 0.38299 0.14411 0.0
C673 C 0.2388 0.40272 0.10304 0.0
C674 C 0.24475 0.42089 0.07715 0.0
C675 C 0.24084 0.44804 0.07937 0.0
C676 C 0.24589 0.46495 0.05476 0.0
C677 C 0.255 0.45498 0.02785 0.0
C678 C 0.25926 0.42813 1.02553 0.0
C679 C 0.25426 0.41113 0.05008 0.0
H680 H 0.25884 0.46809 1.00881 0.0
H681 H 0.21301 0.30849 0.25135 0.0
H682 H 0.62221 0.27973 0.83213 0.0
H683 H 0.60135 0.23561 0.85367 0.0
H684 H 0.62079 0.26895 0.94118 0.0
H685 H 0.64204 0.31276 0.91976 0.0
H686 H 0.63271 0.22142 0.94113 0.0
H687 H 0.54886 0.25369 0.9097 0.0
H688 H 0.51744 0.2715 0.87488 0.0
H689 H 0.51349 0.20013 0.81988 0.0
H690 H 0.54521 0.18204 0.8542 0.0
H691 H 0.54472 0.11038 1.01957 0.0
H692 H 0.56564 0.15494 0.99868 0.0
H693 H 0.55282 0.12102 0.91052 0.0
H694 H 0.53169 0.07676 0.93127 0.0
H695 H 0.5373 0.16889 0.91157 0.0
H696 H 0.62158 0.13696 0.9448 0.0
H697 H 0.65123 0.11939 0.98165 0.0
H698 H 0.65251 0.19107 0.03557 0.0
H699 H 0.62254 0.20891 0.99921 0.0
C700 C 0.62181 0.27781 0.85599 0.0
C701 C 0.63406 0.30016 0.87399 0.0
C702 C 0.60975 0.25238 0.86843 0.0
C703 C 0.60898 0.24847 0.89939 0.0
C704 C 0.62103 0.27088 0.91733 0.0
C705 C 0.63329 0.29616 0.90492 0.0
C706 C 0.59607 0.22124 0.91315 0.0
C707 C 0.61164 0.21024 0.93481 0.0
C708 C 0.56872 0.20585 0.90503 0.0
C709 C 0.54966 0.21665 0.88436 0.0
C710 C 0.54147 0.24189 0.89007 0.0
C711 C 0.52357 0.25202 0.87044 0.0
C712 C 0.51354 0.23699 0.84514 0.0
C713 C 0.52132 0.21177 0.83946 0.0
C714 C 0.53923 0.20156 0.859 0.0
C715 C 0.54654 0.11236 0.99574 0.0
C716 C 0.53648 0.08975 0.97722 0.0
C717 C 0.55864 0.13796 0.98371 0.0
C718 C 0.56123 0.14175 0.95276 0.0
C719 C 0.5512 0.11907 0.93436 0.0
C720 C 0.53917 0.09356 0.94635 0.0
C721 C 0.57397 0.16913 0.93939 0.0
C722 C 0.55836 0.18013 0.91783 0.0
C723 C 0.60114 0.18461 0.94781 0.0
C724 C 0.61959 0.17415 0.96942 0.0
C725 C 0.62806 0.14891 0.96459 0.0
C726 C 0.64493 0.1389 0.98538 0.0
C727 C 0.65368 0.15407 1.01098 0.0
C728 C 0.64568 0.17933 1.01576 0.0
C729 C 0.62878 0.18941 0.99505 0.0
H730 H 0.6667 0.14627 1.02707 0.0
H731 H 0.49969 0.24487 0.82998 0.0
H732 H 0.88712 0.76481 0.32899 0.0
H733 H 0.90731 0.80884 0.35196 0.0
H734 H 0.90151 0.77117 0.43761 0.0
H735 H 0.8803 0.72754 0.41482 0.0
H736 H 0.88658 0.81595 0.44628 0.0
H737 H 0.96864 0.79394 0.39421 0.0
H738 H 0.99675 0.78115 0.35141 0.0
H739 H 0.98626 0.85355 0.3065 0.0
H740 H 0.95775 0.8666 0.34891 0.0
H741 H 0.97768 0.92453 0.52287 0.0
H742 H 0.9581 0.88139 0.49806 0.0
H743 H 0.95184 0.92374 0.41684 0.0
H744 H 0.97176 0.96708 0.44152 0.0
H745 H 0.97269 0.87757 0.4056 0.0
H746 H 0.8912 0.89909 0.46129 0.0
H747 H 0.86672 0.91144 0.50687 0.0
H748 H 0.88022 0.83821 0.54802 0.0
H749 H 0.90508 0.82556 0.50278 0.0
C750 C 0.89041 0.76585 0.35269 0.0
C751 C 0.88201 0.7424 0.36992 0.0
C752 C 0.90213 0.79118 0.36593 0.0
C753 C 0.90655 0.79381 0.3968 0.0
C754 C 0.8984 0.77023 0.41389 0.0
C755 C 0.88627 0.74507 0.40074 0.0
C756 C 0.919 0.82092 0.41145 0.0
C757 C 0.90566 0.82911 0.43741 0.0
C758 C 0.94371 0.83888 0.40013 0.0
C759 C 0.9608 0.83109 0.3746 0.0
C760 C 0.97214 0.80703 0.37511 0.0
C761 C 0.98818 0.79975 0.35094 0.0
C762 C 0.99321 0.81648 0.32621 0.0
C763 C 0.98229 0.84058 0.32565 0.0
C764 C 0.96621 0.84794 0.34975 0.0
C765 C 0.97209 0.92482 0.49974 0.0
C766 C 0.97626 0.94961 0.4844 0.0
C767 C 0.96072 0.89996 0.48551 0.0
C768 C 0.95299 0.89898 0.45545 0.0
C769 C 0.95746 0.92367 0.43998 0.0
C770 C 0.96878 0.94859 0.45424 0.0
C771 C 0.94031 0.87233 0.44028 0.0
C772 C 0.9536 0.86431 0.41429 0.0
C773 C 0.91588 0.85431 0.45185 0.0
C774 C 0.90019 0.86149 0.47873 0.0
C775 C 0.88903 0.88567 0.4801 0.0
C776 C 0.87509 0.89272 0.50587 0.0
C777 C 0.87198 0.87565 0.53035 0.0
C778 C 0.88266 0.85141 0.52905 0.0
C779 C 0.89663 0.84427 0.50333 0.0
H780 H 0.86127 0.88119 0.55032 0.0
H781 H 1.00564 0.81081 0.30752 0.0
H782 H 0.28346 0.75057 0.6247 0.0
H783 H 0.31908 0.7329 0.59389 0.0
H784 H 0.32282 0.79973 0.53392 0.0
H785 H 0.28738 0.81778 0.56504 0.0
H786 H 0.32528 0.71697 0.53607 0.0
H787 H 0.39611 0.82052 0.51751 0.0
H788 H 0.40293 0.86766 0.53701 0.0
H789 H 0.37399 0.83802 0.62317 0.0
H790 H 0.3674 0.79076 0.60424 0.0
H791 H 0.45354 0.67546 0.49339 0.0
H792 H 0.42056 0.70728 0.48661 0.0
H793 H 0.43494 0.73597 0.57669 0.0
H794 H 0.46753 0.70439 0.58365 0.0
H795 H 0.42239 0.77596 0.54136 0.0
H796 H 0.38484 0.67891 0.56265 0.0
H797 H 0.37996 0.63027 0.54918 0.0
H798 H 0.34298 0.64477 0.46607 0.0
H799 H 0.34802 0.69359 0.47897 0.0
C800 C 0.29153 0.76123 0.60469 0.0
C801 C 0.28296 0.78564 0.5974 0.0
C802 C 0.31165 0.75101 0.58696 0.0
C803 C 0.32369 0.76513 0.56177 0.0
C804 C 0.31381 0.78861 0.55334 0.0
C805 C 0.29354 0.79881 0.57106 0.0
C806 C 0.34904 0.75689 0.54704 0.0
C807 C 0.34642 0.73008 0.53642 0.0
C808 C 0.37662 0.77399 0.5476 0.0
C809 C 0.38091 0.80222 0.55936 0.0
C810 C 0.39127 0.82412 0.54062 0.0
C811 C 0.3951 0.85083 0.55157 0.0
C812 C 0.38878 0.85583 0.58128 0.0
C813 C 0.37878 0.83413 0.60014 0.0
C814 C 0.37498 0.80739 0.58932 0.0
C815 C 0.45026 0.68913 0.51145 0.0
C816 C 0.46258 0.68701 0.53928 0.0
C817 C 0.4316 0.7074 0.50745 0.0
C818 C 0.42492 0.72355 0.53133 0.0
C819 C 0.43982 0.72368 0.55796 0.0
C820 C 0.45848 0.70553 0.56194 0.0
C821 C 0.3987 0.73581 0.53131 0.0
C822 C 0.40111 0.76332 0.53931 0.0
C823 C 0.37094 0.71922 0.52894 0.0
C824 C 0.36701 0.68982 0.52163 0.0
C825 C 0.37569 0.67168 0.54151 0.0
C826 C 0.37294 0.64412 0.53396 0.0
C827 C 0.36122 0.63445 0.50676 0.0
C828 C 0.3521 0.6523 0.48711 0.0
C829 C 0.3549 0.67991 0.49451 0.0
H830 H 0.35916 0.61311 0.50092 0.0
H831 H 0.39172 0.87653 0.5897 0.0
H832 H 0.72195 0.83698 0.79114 0.0
H833 H 0.75197 0.85161 0.74774 0.0
H834 H 0.76643 0.76976 0.73357 0.0
H835 H 0.73572 0.75472 0.77667 0.0
H836 H 0.81651 0.80694 0.73972 0.0
H837 H 0.73133 0.79783 0.68216 0.0
H838 H 0.68204 0.80384 0.67027 0.0
H839 H 0.71032 0.89051 0.66984 0.0
H840 H 0.7597 0.88507 0.68214 0.0
H841 H 0.91987 0.86076 0.63004 0.0
H842 H 0.87716 0.83173 0.65201 0.0
H843 H 0.83915 0.9026 0.66965 0.0
H844 H 0.88109 0.93129 0.64671 0.0
H845 H 0.79845 0.86283 0.65489 0.0
H846 H 0.87866 0.87337 0.72245 0.0
H847 H 0.92778 0.86985 0.73795 0.0
H848 H 0.90843 0.78336 0.72357 0.0
H849 H 0.85929 0.78645 0.7076 0.0
C850 C 0.73055 0.82183 0.7782 0.0
C851 C 0.72659 0.79469 0.78755 0.0
C852 C 0.74782 0.83027 0.75338 0.0
C853 C 0.76144 0.81177 0.73745 0.0
C854 C 0.75614 0.78435 0.74561 0.0
C855 C 0.7387 0.77584 0.77031 0.0
C856 C 0.78413 0.82187 0.71506 0.0
C857 C 0.81246 0.81857 0.72069 0.0
C858 C 0.77891 0.83765 0.69078 0.0
C859 C 0.74923 0.84102 0.68324 0.0
C860 C 0.72701 0.81819 0.67974 0.0
C861 C 0.69905 0.82149 0.67289 0.0
C862 C 0.69304 0.84754 0.66934 0.0
C863 C 0.715 0.87034 0.67258 0.0
C864 C 0.743 0.86716 0.67945 0.0
C865 C 0.90219 0.86997 0.63836 0.0
C866 C 0.90375 0.89821 0.63687 0.0
C867 C 0.87785 0.85344 0.65093 0.0
C868 C 0.85511 0.86502 0.66298 0.0
C869 C 0.85631 0.89313 0.66047 0.0
C870 C 0.88032 0.90954 0.64743 0.0
C871 C 0.83095 0.8485 0.68003 0.0
C872 C 0.8024 0.85065 0.67348 0.0
C873 C 0.83597 0.83204 0.70389 0.0
C874 C 0.86548 0.83019 0.71346 0.0
C875 C 0.88498 0.85364 0.72238 0.0
C876 C 0.9128 0.85172 0.73128 0.0
C877 C 0.92126 0.82641 0.73164 0.0
C878 C 0.90188 0.80296 0.72319 0.0
C879 C 0.87405 0.80478 0.71422 0.0
H880 H 0.9428 0.82496 0.73855 0.0
H881 H 0.67138 0.85005 0.66404 0.0
H882 H 0.76443 0.25946 0.32718 0.0
H883 H 0.7436 0.24541 0.27869 0.0
H884 H 0.75485 0.16321 0.29399 0.0
H885 H 0.77495 0.17678 0.34232 0.0
H886 H 0.77033 0.17929 0.23752 0.0
H887 H 0.69106 0.18149 0.30738 0.0
H888 H 0.6632 0.20397 0.34363 0.0
H889 H 0.64946 0.26095 0.27777 0.0
H890 H 0.6777 0.23904 0.24124 0.0
H891 H 0.67001 0.08492 0.16106 0.0
H892 H 0.69856 0.11422 0.19745 0.0
H893 H 0.67102 0.18425 0.1612 0.0
H894 H 0.64211 0.15477 0.12442 0.0
H895 H 0.66746 0.1841 0.22127 0.0
H896 H 0.73984 0.17485 0.14873 0.0
H897 H 0.76681 0.15047 0.11348 0.0
H898 H 0.79311 0.10539 0.18481 0.0
H899 H 0.76596 0.1292 0.22046 0.0
C900 C 0.76254 0.23842 0.32012 0.0
C901 C 0.77147 0.21928 0.3386 0.0
C902 C 0.75074 0.23047 0.29242 0.0
C903 C 0.74765 0.20327 0.28284 0.0
C904 C 0.7573 0.18436 0.30085 0.0
C905 C 0.76894 0.19222 0.32847 0.0
C906 C 0.733 0.19373 0.25487 0.0
C907 C 0.74786 0.18037 0.23388 0.0
C908 C 0.70393 0.19584 0.24984 0.0
C909 C 0.68679 0.20887 0.27171 0.0
C910 C 0.6823 0.19896 0.30071 0.0
C911 C 0.66642 0.21157 0.32129 0.0
C912 C 0.65463 0.23392 0.31304 0.0
C913 C 0.65866 0.24367 0.28415 0.0
C914 C 0.67461 0.23117 0.2635 0.0
C915 C 0.67036 0.1066 0.16047 0.0
C916 C 0.65409 0.11759 0.13965 0.0
C917 C 0.68668 0.12334 0.18131 0.0
C918 C 0.68736 0.15149 0.18166 0.0
C919 C 0.67092 0.16259 0.16115 0.0
C920 C 0.65441 0.14576 0.14025 0.0
C921 C 0.70453 0.16882 0.20436 0.0
C922 C 0.69016 0.18365 0.22439 0.0
C923 C 0.73405 0.16793 0.20861 0.0
C924 C 0.75075 0.15378 0.18727 0.0
C925 C 0.75125 0.15964 0.15689 0.0
C926 C 0.76659 0.14593 0.13683 0.0
C927 C 0.78165 0.12638 0.14689 0.0
C928 C 0.78145 0.12055 0.17705 0.0
C929 C 0.76614 0.13419 0.1972 0.0
H930 H 0.79349 0.11577 0.13132 0.0
H931 H 0.64229 0.24364 0.32899 0.0
H932 H 0.39694 0.7081 0.28359 0.0
H933 H 0.41594 0.6877 0.32615 0.0
H934 H 0.40006 0.60959 0.28167 0.0
H935 H 0.38063 0.62977 0.23945 0.0
H936 H 0.38512 0.60065 0.33546 0.0
H937 H 0.47134 0.65299 0.29224 0.0
H938 H 0.5032 0.69418 0.27337 0.0
H939 H 0.50093 0.73296 0.35869 0.0
H940 H 0.46875 0.69211 0.37797 0.0
H941 H 0.4713 0.53196 0.42548 0.0
H942 H 0.45227 0.5552 0.38516 0.0
H943 H 0.45859 0.62754 0.43956 0.0
H944 H 0.47765 0.60429 0.48012 0.0
H945 H 0.47786 0.64064 0.3828 0.0
H946 H 0.39284 0.58743 0.42609 0.0
H947 H 0.36183 0.54575 0.44489 0.0
H948 H 0.3628 0.50816 0.3588 0.0
H949 H 0.39415 0.5495 0.33957 0.0
C950 C 0.39774 0.68662 0.28265 0.0
C951 C 0.387 0.67078 0.2577 0.0
C952 C 0.40876 0.67485 0.30719 0.0
C953 C 0.41 0.64685 0.30756 0.0
C954 C 0.39944 0.63111 0.28254 0.0
C955 C 0.3882 0.64279 0.25817 0.0
C956 C 0.42162 0.63376 0.33388 0.0
C957 C 0.40563 0.60936 0.34537 0.0
C958 C 0.44807 0.64504 0.34798 0.0
C959 C 0.46739 0.66961 0.33645 0.0
C960 C 0.47746 0.67038 0.30691 0.0
C961 C 0.49561 0.69365 0.29616 0.0
C962 C 0.50401 0.7162 0.3148 0.0
C963 C 0.49436 0.7155 0.34426 0.0
C964 C 0.47618 0.69228 0.35512 0.0
C965 C 0.4686 0.55279 0.42906 0.0
C966 C 0.476 0.566 0.45646 0.0
C967 C 0.45755 0.56614 0.40582 0.0
C968 C 0.45359 0.59329 0.40897 0.0
C969 C 0.46128 0.60667 0.43621 0.0
C970 C 0.47208 0.59321 0.45961 0.0
C971 C 0.4415 0.60748 0.38392 0.0
C972 C 0.45736 0.63204 0.37277 0.0
C973 C 0.41501 0.59631 0.37002 0.0
C974 C 0.39607 0.57147 0.38146 0.0
C975 C 0.38662 0.5702 0.41122 0.0
C976 C 0.36895 0.54665 0.42194 0.0
C977 C 0.36041 0.52429 0.40307 0.0
C978 C 0.36946 0.52548 0.3734 0.0
C979 C 0.38716 0.54897 0.36257 0.0
H980 H 0.34673 0.50608 0.41142 0.0
H981 H 0.51806 0.7342 0.30643 0.0
H982 H 0.10449 0.36449 0.76023 0.0
H983 H 0.08386 0.38426 0.80338 0.0
H984 H 0.16851 0.42773 0.82675 0.0
H985 H 0.1896 0.40653 0.78494 0.0
H986 H 0.1427 0.41403 0.87545 0.0
H987 H 0.11257 0.45724 0.79044 0.0
H988 H 0.08978 0.45979 0.74207 0.0
H989 H 1.00807 0.41995 0.77811 0.0
H990 H 0.03047 0.41687 0.82661 0.0
H991 H 0.08482 0.53177 0.94013 0.0
H992 H 0.10423 0.50284 0.90374 0.0
H993 H 0.04755 0.4324 0.93852 0.0
H994 H 0.0284 0.46144 0.9757 0.0
H995 H 0.05727 0.45736 0.86303 0.0
H996 H 0.09148 0.41233 0.94874 0.0
H997 H 0.1161 0.41465 0.9967 0.0
H998 H 0.19197 0.46346 0.95798 0.0
H999 H 0.16757 0.46164 0.90981 0.0
C1000 C 0.11898 0.37789 0.77466 0.0
C1001 C 0.14899 0.38382 0.7683 0.0
C1002 C 0.10694 0.38966 0.79937 0.0
C1003 C 0.12428 0.40826 0.81849 0.0
C1004 C 0.15428 0.41372 0.81261 0.0
C1005 C 0.16639 0.40172 0.78813 0.0
C1006 C 0.11134 0.42223 0.84421 0.0
C1007 C 0.12399 0.4234 0.87245 0.0
C1008 C 0.08676 0.43472 0.84116 0.0
C1009 C 0.07327 0.43654 0.81204 0.0
C1010 C 0.08979 0.44885 0.78798 0.0
C1011 C 0.07694 0.45042 0.76056 0.0
C1012 C 0.04752 0.43996 0.75699 0.0
C1013 C 0.03087 0.42799 0.78088 0.0
C1014 C 0.04363 0.42634 0.80834 0.0
C1015 C 0.07686 0.51003 0.94055 0.0
C1016 C 0.05532 0.49898 0.96132 0.0
C1017 C 0.08797 0.49347 0.91956 0.0
C1018 C 0.07764 0.46529 0.91828 0.0
C1019 C 0.0563 0.454 0.9392 0.0
C1020 C 0.04546 0.47061 0.96067 0.0
C1021 C 0.08824 0.44843 0.89393 0.0
C1022 C 0.07553 0.44731 0.86591 0.0
C1023 C 0.11281 0.43622 0.89709 0.0
C1024 C 0.12758 0.43715 0.92585 0.0
C1025 C 0.11329 0.42381 0.95056 0.0
C1026 C 0.12723 0.42497 0.97775 0.0
C1027 C 0.15554 0.43932 0.98045 0.0
C1028 C 0.17001 0.45242 0.95589 0.0
C1029 C 0.15615 0.45129 0.92863 0.0
H1030 H 0.1663 0.44023 1.00152 0.0
H1031 H 0.03761 0.4412 0.73575 0.0
H1032 H 0.6852 0.82399 0.90867 0.0
H1033 H 0.65252 0.85251 0.92826 0.0
H1034 H 0.59491 0.82809 0.85538 0.0
H1035 H 0.62826 0.79983 0.83516 0.0
H1036 H 0.601 0.88028 0.86336 0.0
H1037 H 0.57696 0.80566 0.92751 0.0
H1038 H 0.58466 0.76948 0.96116 0.0
H1039 H 0.62639 0.82956 1.02309 0.0
H1040 H 0.61934 0.86613 0.98963 0.0
H1041 H 0.50252 0.95308 0.94433 0.0
H1042 H 0.52235 0.91659 0.91918 0.0
H1043 H 0.60103 0.93899 0.9684 0.0
H1044 H 0.58174 0.97553 0.99326 0.0
H1045 H 0.57454 0.8822 0.9701 0.0
H1046 H 0.60245 0.95595 0.89976 0.0
H1047 H 0.59181 0.99059 0.86557 0.0
H1048 H 0.5373 0.92856 0.81498 0.0
H1049 H 0.54734 0.8936 0.84914 0.0
C1050 C 0.6653 0.82424 0.89711 0.0
C1051 C 0.65909 0.80942 0.87059 0.0
C1052 C 0.64657 0.84056 0.90834 0.0
C1053 C 0.62089 0.84207 0.89365 0.0
C1054 C 0.6145 0.82714 0.8672 0.0
C1055 C 0.63349 0.811 0.8557 0.0
C1056 C 0.60184 0.86049 0.90534 0.0
C1057 C 0.59466 0.88026 0.88658 0.0
C1058 C 0.59348 0.86057 0.93563 0.0
C1059 C 0.59774 0.83866 0.95594 0.0
C1060 C 0.58795 0.81117 0.94821 0.0
C1061 C 0.59218 0.79059 0.96727 0.0
C1062 C 0.60603 0.79722 0.99422 0.0
C1063 C 0.61565 0.82446 1.0022 0.0
C1064 C 0.6115 0.84513 0.98321 0.0
C1065 C 0.52417 0.9504 0.94955 0.0
C1066 C 0.54056 0.96719 0.9708 0.0
C1067 C 0.53541 0.92956 0.93518 0.0
C1068 C 0.56307 0.9251 0.94209 0.0
C1069 C 0.57959 0.94208 0.96291 0.0
C1070 C 0.56856 0.96306 0.97696 0.0
C1071 C 0.57484 0.90235 0.92838 0.0
C1072 C 0.58048 0.88176 0.9468 0.0
C1073 C 0.58124 0.90121 0.89775 0.0
C1074 C 0.57537 0.92223 0.87719 0.0
C1075 C 0.58799 0.94974 0.8815 0.0
C1076 C 0.58212 0.96942 0.8621 0.0
C1077 C 0.56382 0.96179 0.83817 0.0
C1078 C 0.55143 0.93445 0.83355 0.0
C1079 C 0.55722 0.9147 0.85291 0.0
H1080 H 0.5593 0.97706 0.82317 0.0
H1081 H 0.60928 0.78125 1.00895 0.0
H1082 H 0.8101 0.16452 0.4046 0.0
H1083 H 0.83958 0.13734 0.43057 0.0
H1084 H 0.88448 0.20957 0.47493 0.0
H1085 H 0.85488 0.23704 0.44891 0.0
H1086 H 0.92082 0.17268 0.45258 0.0
H1087 H 0.83688 0.17396 0.51336 0.0
H1088 H 0.78465 0.16966 0.52372 0.0
H1089 H 0.77078 0.08567 0.49652 0.0
H1090 H 0.82289 0.08959 0.48551 0.0
H1091 H 0.944 0.07322 0.57553 0.0
H1092 H 0.91938 0.10833 0.55654 0.0
H1093 H 0.9319 0.0805 0.46719 0.0
H1094 H 0.95564 0.04482 0.48604 0.0
H1095 H 0.86923 0.10094 0.51915 0.0
H1096 H 0.95411 0.14056 0.4277 0.0
H1097 H 1.00699 0.14881 0.41944 0.0
H1098 H 0.02013 0.15529 0.51328 0.0
H1099 H 0.96741 0.1471 0.52212 0.0
C1100 C 0.82662 0.17468 0.41947 0.0
C1101 C 0.83034 0.20284 0.42476 0.0
C1102 C 0.84325 0.15914 0.4344 0.0
C1103 C 0.86392 0.17152 0.45474 0.0
C1104 C 0.86853 0.19977 0.45929 0.0
C1105 C 0.85163 0.21534 0.44456 0.0
C1106 C 0.87979 0.15456 0.47201 0.0
C1107 C 0.90964 0.15706 0.46723 0.0
C1108 C 0.86511 0.13466 0.49157 0.0
C1109 C 0.83377 0.13214 0.49838 0.0
C1110 C 0.82266 0.15463 0.50935 0.0
C1111 C 0.79308 0.15225 0.51538 0.0
C1112 C 0.7744 0.12742 0.51073 0.0
C1113 C 0.78528 0.1049 0.5001 0.0
C1114 C 0.81484 0.10718 0.49398 0.0
C1115 C 0.94122 0.07446 0.55187 0.0
C1116 C 0.95189 0.05657 0.53216 0.0
C1117 C 0.9273 0.09452 0.54111 0.0
C1118 C 0.92434 0.09714 0.51053 0.0
C1119 C 0.93444 0.07894 0.49086 0.0
C1120 C 0.94789 0.0586 0.50163 0.0
C1121 C 0.91009 0.11849 0.49897 0.0
C1122 C 0.88048 0.11673 0.50473 0.0
C1123 C 0.92508 0.13927 0.48065 0.0
C1124 C 0.95679 0.14305 0.47555 0.0
C1125 C 0.96829 0.14366 0.44657 0.0
C1126 C 0.99823 0.14831 0.44179 0.0
C1127 C 0.01687 0.15258 0.46583 0.0
C1128 C 1.00564 0.15183 0.4947 0.0
C1129 C 0.97574 0.14709 0.49961 0.0
H1130 H 0.04001 0.15666 0.46207 0.0
H1131 H 0.7515 0.12562 0.51542 0.0
H1132 H 0.31807 0.67952 0.13552 0.0
H1133 H 0.27328 0.65619 0.11321 0.0
H1134 H 0.24679 0.6166 0.19567 0.0
H1135 H 0.29067 0.6412 0.21905 0.0
H1136 H 0.23935 0.58128 0.13817 0.0
H1137 H 0.2154 0.66299 0.18394 0.0
H1138 H 0.22317 0.71251 0.19313 0.0
H1139 H 0.21556 0.72595 0.10018 0.0
H1140 H 0.20819 0.67649 0.0904 0.0
H1141 H 0.09276 0.52756 0.10127 0.0
H1142 H 0.13797 0.54807 0.12512 0.0
H1143 H 0.14974 0.6138 0.06283 0.0
H1144 H 0.10373 0.59408 0.04003 0.0
H1145 H 0.16575 0.63533 0.11102 0.0
H1146 H 0.19009 0.55736 0.06238 0.0
H1147 H 0.18429 0.50878 0.04856 0.0
H1148 H 0.19464 0.48866 0.13925 0.0
H1149 H 0.20013 0.53715 0.15373 0.0
C1150 C 0.30272 0.66628 0.14936 0.0
C1151 C 0.30849 0.66285 0.17956 0.0
C1152 C 0.27707 0.65259 0.13626 0.0
C1153 C 0.25647 0.63449 0.15261 0.0
C1154 C 0.26235 0.63025 0.1824 0.0
C1155 C 0.28776 0.64438 0.19575 0.0
C1156 C 0.22836 0.62111 0.13887 0.0
C1157 C 0.22305 0.593 0.13259 0.0
C1158 C 0.2074 0.63638 0.13051 0.0
C1159 C 0.21155 0.66608 0.13641 0.0
C1160 C 0.21565 0.67652 0.16543 0.0
C1161 C 0.21993 0.70458 0.17076 0.0
C1162 C 0.21994 0.72237 0.14724 0.0
C1163 C 0.21559 0.71214 0.11837 0.0
C1164 C 0.21134 0.6841 0.11293 0.0
C1165 C 0.10499 0.54635 0.09254 0.0
C1166 C 0.09438 0.55903 0.06856 0.0
C1167 C 0.13116 0.55807 0.10615 0.0
C1168 C 0.14809 0.58247 0.0957 0.0
C1169 C 0.13746 0.59507 0.07164 0.0
C1170 C 0.11101 0.58366 0.05844 0.0
C1171 C 0.17635 0.59522 0.11007 0.0
C1172 C 0.18184 0.62336 0.11649 0.0
C1173 C 0.19777 0.58 0.11782 0.0
C1174 C 0.19521 0.55089 0.10919 0.0
C1175 C 0.19099 0.54258 0.07942 0.0
C1176 C 0.18774 0.51507 0.07147 0.0
C1177 C 0.18893 0.49566 0.09304 0.0
C1178 C 0.19362 0.50374 0.12259 0.0
C1179 C 0.19684 0.53124 0.13068 0.0
H1180 H 0.18635 0.47439 0.08681 0.0
H1181 H 0.22326 0.74409 0.15141 0.0
H1182 H 0.21069 0.38259 0.64144 0.0
H1183 H 0.25475 0.40573 0.61666 0.0
H1184 H 0.29317 0.42891 0.70139 0.0
H1185 H 0.24877 0.40595 0.7264 0.0
H1186 H 0.30868 0.46975 0.6648 0.0
H1187 H 0.31063 0.37475 0.65771 0.0
H1188 H 0.29189 0.32643 0.64607 0.0
H1189 H 0.28551 0.34558 0.5544 0.0
H1190 H 0.30383 0.3941 0.56556 0.0
H1191 H 0.45381 0.50283 0.60261 0.0
H1192 H 0.41012 0.48355 0.63139 0.0
H1193 H 0.36429 0.46097 0.55029 0.0
H1194 H 0.40769 0.48001 0.52166 0.0
H1195 H 0.35415 0.41949 0.58736 0.0
H1196 H 0.35181 0.51502 0.59529 0.0
H1197 H 0.37127 0.56309 0.6075 0.0
H1198 H 0.37975 0.54242 0.6984 0.0
H1199 H 0.3607 0.49413 0.68664 0.0
C1200 C 0.22849 0.39248 0.65493 0.0
C1201 C 0.22603 0.39198 0.68609 0.0
C1202 C 0.25387 0.40577 0.64064 0.0
C1203 C 0.27792 0.41874 0.65695 0.0
C1204 C 0.2752 0.41906 0.68807 0.0
C1205 C 0.24966 0.4059 0.70242 0.0
C1206 C 0.30581 0.43146 0.64148 0.0
C1207 C 0.31878 0.45855 0.64818 0.0
C1208 C 0.31919 0.41729 0.61937 0.0
C1209 C 0.30836 0.3881 0.61253 0.0
C1210 C 0.30505 0.36869 0.6351 0.0
C1211 C 0.29452 0.34126 0.62859 0.0
C1212 C 0.28745 0.33295 0.59953 0.0
C1213 C 0.29096 0.35205 0.57691 0.0
C1214 C 0.30144 0.37951 0.58331 0.0
C1215 C 0.43433 0.49399 0.59094 0.0
C1216 C 0.4344 0.49302 0.55974 0.0
C1217 C 0.40925 0.48297 0.60744 0.0
C1218 C 0.38355 0.47072 0.59319 0.0
C1219 C 0.38364 0.4701 0.56203 0.0
C1220 C 0.40857 0.48116 0.5456 0.0
C1221 C 0.35679 0.45786 0.61036 0.0
C1222 C 0.34408 0.43068 0.60402 0.0
C1223 C 0.34381 0.47191 0.63287 0.0
C1224 C 0.35512 0.50093 0.64002 0.0
C1225 C 0.35804 0.52069 0.61784 0.0
C1226 C 0.36895 0.54798 0.62469 0.0
C1227 C 0.37682 0.55579 0.65369 0.0
C1228 C 0.37369 0.53633 0.67593 0.0
C1229 C 0.36282 0.509 0.66919 0.0
H1230 H 0.38527 0.57693 0.65895 0.0
H1231 H 0.27929 0.3117 0.59453 0.0
H1232 H 0.77058 0.78797 0.88542 0.0
H1233 H 0.80249 0.76487 0.91363 0.0
H1234 H 0.73591 0.6928 0.91716 0.0
H1235 H 0.70352 0.71644 0.88954 0.0
H1236 H 0.76631 0.70027 0.96859 0.0
H1237 H 0.78776 0.69717 0.86544 0.0
H1238 H 0.79828 0.71547 0.81527 0.0
H1239 H 0.87657 0.76568 0.846 0.0
H1240 H 0.86625 0.74804 0.89652 0.0
H1241 H 0.87402 0.6127 0.98058 0.0
H1242 H 0.83371 0.63377 0.96575 0.0
H1243 H 0.88621 0.71327 0.97841 0.0
H1244 H 0.92616 0.69258 0.9948 0.0
H1245 H 0.86074 0.69863 0.91861 0.0
H1246 H 0.83694 0.70012 1.02314 0.0
H1247 H 0.82533 0.67913 0.07192 0.0
H1248 H 0.75035 0.62747 0.03598 0.0
H1249 H 0.76181 0.64785 0.98681 0.0
C1250 C 0.76268 0.76736 0.89272 0.0
C1251 C 0.73487 0.75378 0.88532 0.0
C1252 C 0.78086 0.75416 0.9087 0.0
C1253 C 0.77177 0.72694 0.91695 0.0
C1254 C 0.74336 0.71377 0.9109 0.0
C1255 C 0.72496 0.72717 0.89514 0.0
C1256 C 0.79281 0.71193 0.92982 0.0
C1257 C 0.7868 0.69959 0.95751 0.0
C1258 C 0.81955 0.71104 0.91532 0.0
C1259 C 0.82609 0.72144 0.88485 0.0
C1260 C 0.80713 0.71225 0.86156 0.0
C1261 C 0.81306 0.7225 0.83305 0.0
C1262 C 0.83805 0.74177 0.82747 0.0
C1263 C 0.8572 0.75077 0.85037 0.0
C1264 C 0.85133 0.74065 0.87895 0.0
C1265 C 0.87679 0.63467 0.98113 0.0
C1266 C 0.90356 0.65093 0.98853 0.0
C1267 C 0.85375 0.64664 0.97246 0.0
C1268 C 0.85717 0.675 0.97083 0.0
C1269 C 0.88331 0.69131 0.97939 0.0
C1270 C 0.90617 0.67941 0.98851 0.0
C1271 C 0.83454 0.68766 0.95763 0.0
C1272 C 0.84023 0.69932 0.92966 0.0
C1273 C 0.80742 0.68744 0.97164 0.0
C1274 C 0.80044 0.67528 1.00121 0.0
C1275 C 0.81815 0.68408 1.02555 0.0
C1276 C 0.81156 0.67234 0.0533 0.0
C1277 C 0.78717 0.65192 0.05703 0.0
C1278 C 0.76927 0.64326 0.03304 0.0
C1279 C 0.7758 0.6549 1.00523 0.0
H1280 H 0.78209 0.64286 0.07853 0.0
H1281 H 0.84261 0.74968 0.80538 0.0
H1282 H 0.3794 0.73431 0.13723 0.0
H1283 H 0.39842 0.77845 0.11545 0.0
H1284 H 0.4188 0.81262 0.20239 0.0
H1285 H 0.39905 0.76834 0.22452 0.0
H1286 H 0.39518 0.84754 0.17058 0.0
H1287 H 0.47187 0.79838 0.15201 0.0
H1288 H 0.49413 0.76025 0.13384 0.0
H1289 H 0.468 0.77276 0.04532 0.0
H1290 H 0.44521 0.81075 0.06304 0.0
H1291 H 0.48258 0.97178 0.12361 0.0
H1292 H 0.46326 0.92744 0.14483 0.0
H1293 H 0.44721 0.89325 0.05714 0.0
H1294 H 0.46735 0.93786 0.03568 0.0
H1295 H 0.46815 0.85816 0.08899 0.0
H1296 H 0.39144 0.90694 0.10685 0.0
H1297 H 0.3688 0.94504 0.12442 0.0
H1298 H 0.394 0.93304 0.2134 0.0
H1299 H 0.41715 0.89509 0.1963 0.0
C1300 C 0.38778 0.75114 0.15192 0.0
C1301 C 0.38737 0.74737 0.18288 0.0
C1302 C 0.39902 0.77655 0.13927 0.0
C1303 C 0.41049 0.79929 0.157 0.0
C1304 C 0.41022 0.79565 0.18795 0.0
C1305 C 0.39908 0.7701 0.20066 0.0
C1306 C 0.42222 0.82672 0.14325 0.0
C1307 C 0.41147 0.84983 0.15305 0.0
C1308 C 0.44291 0.83008 0.11962 0.0
C1309 C 0.45658 0.80724 0.10891 0.0
C1310 C 0.47066 0.79286 0.12871 0.0
C1311 C 0.48341 0.7713 0.11848 0.0
C1312 C 0.48242 0.76404 0.08846 0.0
C1313 C 0.46872 0.77838 0.06858 0.0
C1314 C 0.4559 0.79994 0.0787 0.0
C1315 C 0.47479 0.95493 0.10871 0.0
C1316 C 0.47653 0.95867 0.07781 0.0
C1317 C 0.46351 0.92939 0.12099 0.0
C1318 C 0.45315 0.90657 0.10288 0.0
C1319 C 0.45487 0.91025 0.07189 0.0
C1320 C 0.46629 0.93591 0.05954 0.0
C1321 C 0.44116 0.87904 0.11635 0.0
C1322 C 0.45184 0.85589 0.1065 0.0
C1323 C 0.4203 0.87562 0.13984 0.0
C1324 C 0.40627 0.89833 0.15024 0.0
C1325 C 0.39233 0.91255 0.13014 0.0
C1326 C 0.37938 0.9341 0.14001 0.0
C1327 C 0.38003 0.9415 0.16999 0.0
C1328 C 0.39355 0.92731 0.19018 0.0
C1329 C 0.40657 0.90576 0.18041 0.0
H1330 H 0.37 0.9582 0.17759 0.0
H1331 H 0.49231 0.74735 0.08058 0.0
H1332 H 0.10388 0.30966 0.69972 0.0
H1333 H 0.08355 0.26559 0.67689 0.0
H1334 H 0.16947 0.25241 0.65565 0.0
H1335 H 0.18989 0.29598 0.67876 0.0
H1336 H 0.13649 0.23817 0.60915 0.0
H1337 H 0.12749 0.21832 0.71283 0.0
H1338 H 0.11223 0.22435 0.76466 0.0
H1339 H 0.02331 0.20949 0.73874 0.0
H1340 H 0.03808 0.20373 0.68667 0.0
H1341 H 0.06696 0.0818 0.61729 0.0
H1342 H 0.08683 0.12535 0.64151 0.0
H1343 H 0.06427 0.16809 0.5659 0.0
H1344 H 0.04549 0.12475 0.54128 0.0
H1345 H 0.06677 0.16716 0.66128 0.0
H1346 H 0.10802 0.22871 0.55733 0.0
H1347 H 0.12518 0.22072 0.50656 0.0
H1348 H 0.15479 0.14945 0.53527 0.0
H1349 H 0.13815 0.1572 0.58627 0.0
C1350 C 0.11855 0.2973 0.69058 0.0
C1351 C 0.14871 0.3069 0.69115 0.0
C1352 C 0.10682 0.27196 0.67734 0.0
C1353 C 0.12483 0.25527 0.66434 0.0
C1354 C 0.15488 0.26472 0.66512 0.0
C1355 C 0.1666 0.28992 0.67839 0.0
C1356 C 0.11261 0.22815 0.64984 0.0
C1357 C 0.12117 0.22275 0.62062 0.0
C1358 C 0.09285 0.2075 0.66456 0.0
C1359 C 0.08391 0.21087 0.69583 0.0
C1360 C 0.1047 0.21654 0.71816 0.0
C1361 C 0.09613 0.21988 0.74758 0.0
C1362 C 0.06682 0.21738 0.75497 0.0
C1363 C 0.04601 0.21146 0.73297 0.0
C1364 C 0.05446 0.20814 0.70351 0.0
C1365 C 0.06638 0.10045 0.6057 0.0
C1366 C 0.05472 0.0995 0.57708 0.0
C1367 C 0.07768 0.1255 0.6197 0.0
C1368 C 0.07764 0.15044 0.60561 0.0
C1369 C 0.06542 0.14945 0.57726 0.0
C1370 C 0.05444 0.12446 0.56315 0.0
C1371 C 0.09037 0.17729 0.62045 0.0
C1372 C 0.08196 0.18263 0.64973 0.0
C1373 C 0.11057 0.19777 0.60591 0.0
C1374 C 0.12162 0.19344 0.57556 0.0
C1375 C 0.11838 0.21145 0.55284 0.0
C1376 C 0.12796 0.20693 0.52402 0.0
C1377 C 0.141 0.18455 0.51768 0.0
C1378 C 0.14462 0.16673 0.5402 0.0
C1379 C 0.13511 0.17117 0.56906 0.0
H1380 H 0.14832 0.18106 0.49534 0.0
H1381 H 0.06023 0.21997 0.77776 0.0
H1382 H 0.73625 0.22493 0.45956 0.0
H1383 H 0.70286 0.24771 0.48865 0.0
H1384 H 0.74006 0.324 0.44813 0.0
H1385 H 0.77285 0.30107 0.41839 0.0
H1386 H 0.72611 0.32492 0.51395 0.0
H1387 H 0.68706 0.29411 0.41684 0.0
H1388 H 0.67227 0.25896 0.37841 0.0
H1389 H 0.61258 0.2128 0.43985 0.0
H1390 H 0.62755 0.24747 0.47888 0.0
H1391 H 0.63445 0.41552 0.48997 0.0
H1392 H 0.6681 0.3842 0.49308 0.0
H1393 H 0.59889 0.32119 0.52384 0.0
H1394 H 0.56485 0.35266 0.52034 0.0
H1395 H 0.6259 0.30508 0.47625 0.0
H1396 H 0.6551 0.3446 0.56832 0.0
H1397 H 0.66941 0.3809 0.60557 0.0
H1398 H 0.74684 0.41092 0.55562 0.0
H1399 H 0.73263 0.37542 0.51747 0.0
C1400 C 0.73749 0.24664 0.45734 0.0
C1401 C 0.75682 0.26143 0.43689 0.0
C1402 C 0.7186 0.25957 0.47394 0.0
C1403 C 0.71924 0.28746 0.47054 0.0
C1404 C 0.73957 0.30249 0.45117 0.0
C1405 C 0.75805 0.28945 0.43413 0.0
C1406 C 0.69653 0.30042 0.4842 0.0
C1407 C 0.70413 0.32069 0.50592 0.0
C1408 C 0.66775 0.29394 0.47433 0.0
C1409 C 0.65875 0.27313 0.45089 0.0
C1410 C 0.67105 0.27629 0.42226 0.0
C1411 C 0.66259 0.2565 0.40035 0.0
C1412 C 0.64155 0.23361 0.4067 0.0
C1413 C 0.62894 0.2305 0.43499 0.0
C1414 C 0.63743 0.25019 0.45702 0.0
C1415 C 0.62652 0.39511 0.49784 0.0
C1416 C 0.59708 0.3863 0.50453 0.0
C1417 C 0.64581 0.37732 0.49997 0.0
C1418 C 0.63603 0.35042 0.50893 0.0
C1419 C 0.60685 0.34193 0.51707 0.0
C1420 C 0.5875 0.35986 0.5151 0.0
C1421 C 0.65556 0.3306 0.50537 0.0
C1422 C 0.64749 0.3089 0.48532 0.0
C1423 C 0.68386 0.33583 0.5169 0.0
C1424 C 0.69271 0.35727 0.5399 0.0
C1425 C 0.67509 0.35904 0.5651 0.0
C1426 C 0.68319 0.37948 0.58643 0.0
C1427 C 0.70905 0.39812 0.58304 0.0
C1428 C 0.72683 0.39642 0.55825 0.0
C1429 C 0.71875 0.37614 0.53674 0.0
H1430 H 0.7153 0.41389 0.59962 0.0
H1431 H 0.63495 0.21834 0.3897 0.0
loop_
_geom_bond_atom_site_label_1
_geom_bond_atom_site_label_2
_geom_bond_distance
_geom_bond_site_symmetry_2
_ccdc_geom_bond_type
H0 C3 0.931 . S
H1 C6 0.928 . S
H2 C8 0.930 . S
C3 H0 0.931 . S
C3 C4 1.413 . S
C3 C5 1.360 . S
C4 C3 1.413 . S
C4 C8 1.429 . S
C5 C3 1.360 . S
C5 C6 1.372 . S
C6 H1 0.928 . S
C6 C5 1.372 . S
C6 C7 1.404 . S
C7 C6 1.404 . S
C7 C8 1.391 . S
C8 H2 0.930 . S
C8 C4 1.429 . S
C8 C7 1.391 . S
H9 C12 0.931 . S
H10 C15 0.928 . S
H11 C17 0.930 . S
C12 H9 0.931 . S
C12 C13 1.413 . S
C12 C14 1.360 . S
C13 C12 1.413 . S
C13 C17 1.429 . S
C14 C12 1.360 . S
C14 C15 1.372 . S
C15 H10 0.928 . S
C15 C14 1.372 . S
C15 C16 1.404 . S
C16 C15 1.404 . S
C16 C17 1.391 . S
C17 H11 0.930 . S
C17 C13 1.429 . S
C17 C16 1.391 . S
H18 C21 0.931 . S
H19 C24 0.928 . S
H20 C26 0.930 . S
C21 H18 0.931 . S
C21 C22 1.413 . S
C21 C23 1.360 . S
C22 C21 1.413 . S
C22 C26 1.429 . S
C23 C21 1.360 . S
C23 C24 1.372 . S
C24 H19 0.928 . S
C24 C23 1.372 . S
C24 C25 1.404 . S
C25 C24 1.404 . S
C25 C26 1.391 . S
C26 H20 0.930 . S
C26 C22 1.429 . S
C26 C25 1.391 . S
H27 C30 0.931 . S
H28 C33 0.928 . S
H29 C35 0.930 . S
C30 H27 0.931 . S
C30 C31 1.413 . S
C30 C32 1.360 . S
C31 C30 1.413 . S
C31 C35 1.429 . S
C32 C30 1.360 . S
C32 C33 1.372 . S
C33 H28 0.928 . S
C33 C32 1.372 . S
C33 C34 1.404 . S
C34 C33 1.404 . S
C34 C35 1.391 . S
C35 H29 0.930 . S
C35 C31 1.429 . S
C35 C34 1.391 . S
H36 C39 0.931 . S
H37 C42 0.928 . S
H38 C44 0.930 . S
C39 H36 0.931 . S
C39 C40 1.413 . S
C39 C41 1.360 . S
C40 C39 1.413 . S
C40 C44 1.429 . S
C41 C39 1.360 . S
C41 C42 1.372 . S
C42 H37 0.928 . S
C42 C41 1.372 . S
C42 C43 1.404 . S
C43 C42 1.404 . S
C43 C44 1.391 . S
C44 H38 0.930 . S
C44 C40 1.429 . S
C44 C43 1.391 . S
H45 C48 0.931 . S
H46 C51 0.928 . S
H47 C53 0.930 . S
C48 H45 0.931 . S
C48 C49 1.413 . S
C48 C50 1.360 . S
C49 C48 1.413 . S
C49 C53 1.429 . S
C50 C48 1.360 . S
C50 C51 1.372 . S
C51 H46 0.928 . S
C51 C50 1.372 . S
C51 C52 1.404 . S
C52 C51 1.404 . S
C52 C53 1.391 . S
C53 H47 0.930 . S
C53 C49 1.429 . S
C53 C52 1.391 . S
H54 C57 0.931 . S
H55 C60 0.928 . S
H56 C62 0.930 . S
C57 H54 0.931 . S
C57 C58 1.413 . S
C57 C59 1.360 . S
C58 C57 1.413 . S
C58 C62 1.429 . S
C59 C57 1.360 . S
C59 C60 1.372 . S
C60 H55 0.928 . S
C60 C59 1.372 . S
C60 C61 1.404 . S
C61 C60 1.404 . S
C61 C62 1.391 . S
C62 H56 0.930 . S
C62 C58 1.429 . S
C62 C61 1.391 . S
H63 C66 0.931 . S
H64 C69 0.928 . S
H65 C71 0.930 . S
C66 H63 0.931 . S
C66 C67 1.413 . S
C66 C68 1.360 . S
C67 C66 1.413 . S
C67 C71 1.429 . S
C68 C66 1.360 . S
C68 C69 1.372 . S
C69 H64 0.928 . S
C69 C68 1.372 . S
C69 C70 1.404 . S
C70 C69 1.404 . S
C70 C71 1.391 . S
C71 H65 0.930 . S
C71 C67 1.429 . S
C71 C70 1.391 . S
Gd72 C75 2.818 . S
Gd72 O92 2.377 . S
Gd72 O94 2.448 . S
Gd72 O95 2.506 . S
Gd72 O96 2.435 1_545 S
Gd72 O97 2.717 1_545 S
Gd72 O99 2.395 1_445 S
Gd72 O103 2.327 1_455 S
Gd73 C84 2.818 . S
Gd73 O93 2.395 1_665 S
Gd73 O97 2.327 1_655 S
Gd73 O98 2.377 . S
Gd73 O100 2.448 . S
Gd73 O101 2.506 . S
Gd73 O102 2.435 1_565 S
Gd73 O103 2.717 1_565 S
C74 O92 1.240 . S
C74 O93 1.240 . S
C75 Gd72 2.818 . S
C75 C76 1.510 . S
C75 O94 1.249 . S
C75 O95 1.252 . S
C76 C75 1.510 . S
C76 C77 1.404 . S
C76 C78 1.352 . S
C77 C76 1.404 . S
C77 C81 1.389 . S
C77 H104 0.930 . S
C78 C76 1.352 . S
C78 C80 1.374 . S
C78 H105 0.931 . S
C79 C80 1.359 . S
C79 C81 1.364 . S
C80 C78 1.374 . S
C80 C79 1.359 . S
C80 H106 0.931 . S
C81 C77 1.389 . S
C81 C79 1.364 . S
C81 H107 0.931 . S
C82 O96 1.256 . S
C82 O97 1.257 . S
C83 O98 1.240 . S
C83 O99 1.240 . S
C84 Gd73 2.818 . S
C84 C85 1.510 . S
C84 O100 1.249 . S
C84 O101 1.252 . S
C85 C84 1.510 . S
C85 C86 1.404 . S
C85 C87 1.352 . S
C86 C85 1.404 . S
C86 C90 1.389 . S
C86 H108 0.930 . S
C87 C85 1.352 . S
C87 C89 1.374 . S
C87 H109 0.931 . S
C88 C89 1.359 . S
C88 C90 1.364 . S
C89 C87 1.374 . S
C89 C88 1.359 . S
C89 H110 0.931 . S
C90 C86 1.389 . S
C90 C88 1.364 . S
C90 H111 0.931 . S
C91 O102 1.256 . S
C91 O103 1.257 . S
O92 Gd72 2.377 . S
O92 C74 1.240 . S
O93 Gd73 2.395 1_445 S
O93 C74 1.240 . S
O94 Gd72 2.448 . S
O94 C75 1.249 . S
O95 Gd72 2.506 . S
O95 C75 1.252 . S
O96 Gd72 2.435 1_565 S
O96 C82 1.256 . S
O97 Gd72 2.717 1_565 S
O97 Gd73 2.327 1_455 S
O97 C82 1.257 . S
O98 Gd73 2.377 . S
O98 C83 1.240 . S
O99 Gd72 2.395 1_665 S
O99 C83 1.240 . S
O100 Gd73 2.448 . S
O100 C84 1.249 . S
O101 Gd73 2.506 . S
O101 C84 1.252 . S
O102 Gd73 2.435 1_545 S
O102 C91 1.256 . S
O103 Gd72 2.327 1_655 S
O103 Gd73 2.717 1_545 S
O103 C91 1.257 . S
H104 C77 0.930 . S
H105 C78 0.931 . S
H106 C80 0.931 . S
H107 C81 0.931 . S
H108 C86 0.930 . S
H109 C87 0.931 . S
H110 C89 0.931 . S
H111 C90 0.931 . S
Gd112 C115 2.811 1_565 S
Gd112 O132 2.369 1_565 S
Gd112 O134 2.447 1_565 S
Gd112 O135 2.494 1_565 S
Gd112 O136 2.446 . S
Gd112 O137 2.722 . S
Gd112 O139 2.404 1_554 S
Gd112 O143 2.318 1_564 S
Gd113 C124 2.818 1_545 S
Gd113 O133 2.395 1_556 S
Gd113 O137 2.327 1_546 S
Gd113 O138 2.377 1_545 S
Gd113 O140 2.448 1_545 S
Gd113 O141 2.506 1_545 S
Gd113 O142 2.435 . S
Gd113 O143 2.717 . S
C114 O132 1.240 . S
C114 O133 1.240 . S
C115 Gd112 2.811 1_545 S
C115 C116 1.510 . S
C115 O134 1.249 . S
C115 O135 1.252 . S
C116 C115 1.510 . S
C116 C117 1.404 . S
C116 C118 1.352 . S
C117 C116 1.404 . S
C117 C121 1.389 . S
C117 H144 0.930 . S
C118 C116 1.352 . S
C118 C120 1.374 . S
C118 H145 0.931 . S
C119 C120 1.359 . S
C119 C121 1.364 . S
C120 C118 1.374 . S
C120 C119 1.359 . S
C120 H146 0.931 . S
C121 C117 1.389 . S
C121 C119 1.364 . S
C121 H147 0.931 . S
C122 O136 1.256 . S
C122 O137 1.257 . S
C123 O138 1.240 . S
C123 O139 1.240 . S
C124 Gd113 2.818 1_565 S
C124 C125 1.510 . S
C124 O140 1.249 . S
C124 O141 1.252 . S
C125 C124 1.510 . S
C125 C126 1.404 . S
C125 C127 1.352 . S
C126 C125 1.404 . S
C126 C130 1.389 . S
C126 H148 0.930 . S
C127 C125 1.352 . S
C127 C129 1.374 . S
C127 H149 0.931 . S
C128 C129 1.359 . S
C128 C130 1.364 . S
C129 C127 1.374 . S
C129 C128 1.359 . S
C129 H150 0.931 . S
C130 C126 1.389 . S
C130 C128 1.364 . S
C130 H151 0.931 . S
C131 O142 1.256 . S
C131 O143 1.257 . S
O132 Gd112 2.369 1_545 S
O132 C114 1.240 . S
O133 Gd113 2.395 1_554 S
O133 C114 1.240 . S
O134 Gd112 2.447 1_545 S
O134 C115 1.249 . S
O135 Gd112 2.494 1_545 S
O135 C115 1.252 . S
O136 Gd112 2.446 . S
O136 C122 1.256 . S
O137 Gd112 2.722 . S
O137 Gd113 2.327 1_564 S
O137 C122 1.257 . S
O138 Gd113 2.377 1_565 S
O138 C123 1.240 . S
O139 Gd112 2.404 1_556 S
O139 C123 1.240 . S
O140 Gd113 2.448 1_565 S
O140 C124 1.249 . S
O141 Gd113 2.506 1_565 S
O141 C124 1.252 . S
O142 Gd113 2.435 . S
O142 C131 1.256 . S
O143 Gd112 2.318 1_546 S
O143 Gd113 2.717 . S
O143 C131 1.257 . S
H144 C117 0.930 . S
H145 C118 0.931 . S
H146 C120 0.931 . S
H147 C121 0.931 . S
H148 C126 0.930 . S
H149 C127 0.931 . S
H150 C129 0.931 . S
H151 C130 0.931 . S
Gd152 C155 2.818 . S
Gd152 O172 2.377 . S
Gd152 O174 2.448 . S
Gd152 O175 2.506 . S
Gd152 O176 2.435 . S
Gd152 O177 2.717 . S
Gd152 O179 2.395 . S
Gd152 O183 2.327 . S
Gd153 C164 2.818 . S
Gd153 O173 2.395 . S
Gd153 O177 2.327 . S
Gd153 O178 2.377 . S
Gd153 O180 2.448 . S
Gd153 O181 2.506 . S
Gd153 O182 2.435 . S
Gd153 O183 2.717 . S
C154 O172 1.240 . S
C154 O173 1.240 . S
C155 Gd152 2.818 . S
C155 C156 1.510 . S
C155 O174 1.249 . S
C155 O175 1.252 . S
C156 C155 1.510 . S
C156 C157 1.404 . S
C156 C158 1.352 . S
C157 C156 1.404 . S
C157 C161 1.389 . S
C157 H184 0.930 . S
C158 C156 1.352 . S
C158 C160 1.374 . S
C158 H185 0.931 . S
C159 C160 1.359 . S
C159 C161 1.364 . S
C160 C158 1.374 . S
C160 C159 1.359 . S
C160 H186 0.931 . S
C161 C157 1.389 . S
C161 C159 1.364 . S
C161 H187 0.931 . S
C162 O176 1.256 . S
C162 O177 1.257 . S
C163 O178 1.240 . S
C163 O179 1.240 . S
C164 Gd153 2.818 . S
C164 C165 1.510 . S
C164 O180 1.249 . S
C164 O181 1.252 . S
C165 C164 1.510 . S
C165 C166 1.404 . S
C165 C167 1.352 . S
C166 C165 1.404 . S
C166 C170 1.389 . S
C166 H188 0.930 . S
C167 C165 1.352 . S
C167 C169 1.374 . S
C167 H189 0.931 . S
C168 C169 1.359 . S
C168 C170 1.364 . S
C169 C167 1.374 . S
C169 C168 1.359 . S
C169 H190 0.931 . S
C170 C166 1.389 . S
C170 C168 1.364 . S
C170 H191 0.931 . S
C171 O182 1.256 . S
C171 O183 1.257 . S
O172 Gd152 2.377 . S
O172 C154 1.240 . S
O173 Gd153 2.395 . S
O173 C154 1.240 . S
O174 Gd152 2.448 . S
O174 C155 1.249 . S
O175 Gd152 2.506 . S
O175 C155 1.252 . S
O176 Gd152 2.435 . S
O176 C162 1.256 . S
O177 Gd152 2.717 . S
O177 Gd153 2.327 . S
O177 C162 1.257 . S
O178 Gd153 2.377 . S
O178 C163 1.240 . S
O179 Gd152 2.395 . S
O179 C163 1.240 . S
O180 Gd153 2.448 . S
O180 C164 1.249 . S
O181 Gd153 2.506 . S
O181 C164 1.252 . S
O182 Gd153 2.435 . S
O182 C171 1.256 . S
O183 Gd152 2.327 . S
O183 Gd153 2.717 . S
O183 C171 1.257 . S
H184 C157 0.930 . S
H185 C158 0.931 . S
H186 C160 0.931 . S
H187 C161 0.931 . S
H188 C166 0.930 . S
H189 C167 0.931 . S
H190 C169 0.931 . S
H191 C170 0.931 . S
Gd192 C195 2.818 . S
Gd192 O212 2.377 . S
Gd192 O214 2.448 . S
Gd192 O215 2.506 . S
Gd192 O216 2.435 1_455 S
Gd192 O217 2.717 1_455 S
Gd192 O219 2.395 1_454 S
Gd192 O223 2.327 1_554 S
Gd193 C204 2.818 . S
Gd193 O213 2.395 1_656 S
Gd193 O217 2.327 1_556 S
Gd193 O218 2.377 . S
Gd193 O220 2.448 . S
Gd193 O221 2.506 . S
Gd193 O222 2.435 1_655 S
Gd193 O223 2.717 1_655 S
C194 O212 1.240 . S
C194 O213 1.240 . S
C195 Gd192 2.818 . S
C195 C196 1.510 . S
C195 O214 1.249 . S
C195 O215 1.252 . S
C196 C195 1.510 . S
C196 C197 1.404 . S
C196 C198 1.352 . S
C197 C196 1.404 . S
C197 C201 1.389 . S
C197 H224 0.930 . S
C198 C196 1.352 . S
C198 C200 1.374 . S
C198 H225 0.931 . S
C199 C200 1.359 . S
C199 C201 1.364 . S
C200 C198 1.374 . S
C200 C199 1.359 . S
C200 H226 0.931 . S
C201 C197 1.389 . S
C201 C199 1.364 . S
C201 H227 0.931 . S
C202 O216 1.256 . S
C202 O217 1.257 . S
C203 O218 1.240 . S
C203 O219 1.240 . S
C204 Gd193 2.818 . S
C204 C205 1.510 . S
C204 O220 1.249 . S
C204 O221 1.252 . S
C205 C204 1.510 . S
C205 C206 1.404 . S
C205 C207 1.352 . S
C206 C205 1.404 . S
C206 C210 1.389 . S
C206 H228 0.930 . S
C207 C205 1.352 . S
C207 C209 1.374 . S
C207 H229 0.931 . S
C208 C209 1.359 . S
C208 C210 1.364 . S
C209 C207 1.374 . S
C209 C208 1.359 . S
C209 H230 0.931 . S
C210 C206 1.389 . S
C210 C208 1.364 . S
C210 H231 0.931 . S
C211 O222 1.256 . S
C211 O223 1.257 . S
O212 Gd192 2.377 . S
O212 C194 1.240 . S
O213 Gd193 2.395 1_454 S
O213 C194 1.240 . S
O214 Gd192 2.448 . S
O214 C195 1.249 . S
O215 Gd192 2.506 . S
O215 C195 1.252 . S
O216 Gd192 2.435 1_655 S
O216 C202 1.256 . S
O217 Gd192 2.717 1_655 S
O217 Gd193 2.327 1_554 S
O217 C202 1.257 . S
O218 Gd193 2.377 . S
O218 C203 1.240 . S
O219 Gd192 2.395 1_656 S
O219 C203 1.240 . S
O220 Gd193 2.448 . S
O220 C204 1.249 . S
O221 Gd193 2.506 . S
O221 C204 1.252 . S
O222 Gd193 2.435 1_455 S
O222 C211 1.256 . S
O223 Gd192 2.327 1_556 S
O223 Gd193 2.717 1_455 S
O223 C211 1.257 . S
H224 C197 0.930 . S
H225 C198 0.931 . S
H226 C200 0.931 . S
H227 C201 0.931 . S
H228 C206 0.930 . S
H229 C207 0.931 . S
H230 C209 0.931 . S
H231 C210 0.931 . S
H232 C250 0.951 . S
H233 C252 0.951 . S
H234 C254 0.950 . S
H235 C255 0.950 . S
H236 C257 0.950 . S
H237 C260 0.950 . S
H238 C261 0.950 . S
H239 C263 0.950 . S
H240 C264 0.950 . S
H241 C265 0.951 . S
H242 C267 0.951 . S
H243 C269 0.950 . S
H244 C270 0.950 . S
H245 C272 0.950 . S
H246 C275 0.950 . S
H247 C276 0.950 . S
H248 C278 0.950 . S
H249 C279 0.950 . S
C250 H232 0.951 . S
C250 C251 1.366 . S
C250 C252 1.388 . S
C251 C250 1.366 . S
C251 C255 1.385 . S
C252 H233 0.951 . S
C252 C250 1.388 . S
C252 C253 1.366 . S
C253 C252 1.366 . S
C253 C254 1.414 . S
C253 C256 1.499 . S
C254 H234 0.950 . S
C254 C253 1.414 . S
C254 C255 1.374 . S
C255 H235 0.950 . S
C255 C251 1.385 . S
C255 C254 1.374 . S
C256 C253 1.499 . S
C256 C257 1.373 . S
C256 C258 1.389 . S
C257 H236 0.950 . S
C257 C256 1.373 . S
C257 C273 1.377 . S
C258 C256 1.389 . S
C258 C259 1.524 . S
C258 C272 1.377 . S
C259 C258 1.524 . S
C259 C260 1.397 . S
C259 C264 1.363 . S
C260 H237 0.950 . S
C260 C259 1.397 . S
C260 C261 1.334 . S
C261 H238 0.950 . S
C261 C260 1.334 . S
C261 C262 1.287 . S
C262 C261 1.287 . S
C262 C263 1.524 . S
C262 H281 0.913 . S
C263 H239 0.950 . S
C263 C262 1.524 . S
C263 C264 1.415 . S
C264 H240 0.950 . S
C264 C259 1.363 . S
C264 C263 1.415 . S
C265 H241 0.951 . S
C265 C266 1.366 . S
C265 C267 1.388 . S
C266 C265 1.366 . S
C266 C270 1.385 . S
C267 H242 0.951 . S
C267 C265 1.388 . S
C267 C268 1.366 . S
C268 C267 1.366 . S
C268 C269 1.414 . S
C268 C271 1.499 . S
C269 H243 0.950 . S
C269 C268 1.414 . S
C269 C270 1.374 . S
C270 H244 0.950 . S
C270 C266 1.385 . S
C270 C269 1.374 . S
C271 C268 1.499 . S
C271 C272 1.373 . S
C271 C273 1.389 . S
C272 H245 0.950 . S
C272 C258 1.377 . S
C272 C271 1.373 . S
C273 C257 1.377 . S
C273 C271 1.389 . S
C273 C274 1.524 . S
C274 C273 1.524 . S
C274 C275 1.397 . S
C274 C279 1.363 . S
C275 H246 0.950 . S
C275 C274 1.397 . S
C275 C276 1.334 . S
C276 H247 0.950 . S
C276 C275 1.334 . S
C276 C277 1.287 . S
C277 C276 1.287 . S
C277 C278 1.524 . S
C277 H280 0.999 . S
C278 H248 0.950 . S
C278 C277 1.524 . S
C278 C279 1.415 . S
C279 H249 0.950 . S
C279 C274 1.363 . S
C279 C278 1.415 . S
H280 C277 0.999 . S
H281 C262 0.913 . S
H282 C300 0.951 . S
H283 C302 0.951 . S
H284 C304 0.950 . S
H285 C305 0.950 . S
H286 C307 0.950 . S
H287 C310 0.950 . S
H288 C311 0.950 . S
H289 C313 0.950 . S
H290 C314 0.950 . S
H291 C315 0.951 . S
H292 C317 0.951 . S
H293 C319 0.950 . S
H294 C320 0.950 . S
H295 C322 0.950 . S
H296 C325 0.950 . S
H297 C326 0.950 . S
H298 C328 0.950 . S
H299 C329 0.950 . S
C300 H282 0.951 . S
C300 C301 1.366 . S
C300 C302 1.388 . S
C301 C300 1.366 . S
C301 C305 1.385 . S
C302 H283 0.951 . S
C302 C300 1.388 . S
C302 C303 1.366 . S
C303 C302 1.366 . S
C303 C304 1.414 . S
C303 C306 1.499 . S
C304 H284 0.950 . S
C304 C303 1.414 . S
C304 C305 1.374 . S
C305 H285 0.950 . S
C305 C301 1.385 . S
C305 C304 1.374 . S
C306 C303 1.499 . S
C306 C307 1.373 . S
C306 C308 1.389 . S
C307 H286 0.950 . S
C307 C306 1.373 . S
C307 C323 1.377 . S
C308 C306 1.389 . S
C308 C309 1.524 . S
C308 C322 1.377 . S
C309 C308 1.524 . S
C309 C310 1.397 . S
C309 C314 1.363 . S
C310 H287 0.950 . S
C310 C309 1.397 . S
C310 C311 1.334 . S
C311 H288 0.950 . S
C311 C310 1.334 . S
C311 C312 1.287 . S
C312 C311 1.287 . S
C312 C313 1.524 . S
C312 H331 0.913 . S
C313 H289 0.950 . S
C313 C312 1.524 . S
C313 C314 1.415 . S
C314 H290 0.950 . S
C314 C309 1.363 . S
C314 C313 1.415 . S
C315 H291 0.951 . S
C315 C316 1.366 . S
C315 C317 1.388 . S
C316 C315 1.366 . S
C316 C320 1.385 . S
C317 H292 0.951 . S
C317 C315 1.388 . S
C317 C318 1.366 . S
C318 C317 1.366 . S
C318 C319 1.414 . S
C318 C321 1.499 . S
C319 H293 0.950 . S
C319 C318 1.414 . S
C319 C320 1.374 . S
C320 H294 0.950 . S
C320 C316 1.385 . S
C320 C319 1.374 . S
C321 C318 1.499 . S
C321 C322 1.373 . S
C321 C323 1.389 . S
C322 H295 0.950 . S
C322 C308 1.377 . S
C322 C321 1.373 . S
C323 C307 1.377 . S
C323 C321 1.389 . S
C323 C324 1.524 . S
C324 C323 1.524 . S
C324 C325 1.397 . S
C324 C329 1.363 . S
C325 H296 0.950 . S
C325 C324 1.397 . S
C325 C326 1.334 . S
C326 H297 0.950 . S
C326 C325 1.334 . S
C326 C327 1.287 . S
C327 C326 1.287 . S
C327 C328 1.524 . S
C327 H330 0.999 . S
C328 H298 0.950 . S
C328 C327 1.524 . S
C328 C329 1.415 . S
C329 H299 0.950 . S
C329 C324 1.363 . S
C329 C328 1.415 . S
H330 C327 0.999 . S
H331 C312 0.913 . S
H332 C350 0.951 . S
H333 C352 0.951 . S
H334 C354 0.950 . S
H335 C355 0.950 . S
H336 C357 0.950 . S
H337 C360 0.950 . S
H338 C361 0.950 . S
H339 C363 0.950 . S
H340 C364 0.950 . S
H341 C365 0.951 . S
H342 C367 0.951 . S
H343 C369 0.950 . S
H344 C370 0.950 . S
H345 C372 0.950 . S
H346 C375 0.950 . S
H347 C376 0.950 . S
H348 C378 0.950 . S
H349 C379 0.950 . S
C350 H332 0.951 . S
C350 C351 1.366 . S
C350 C352 1.388 . S
C351 C350 1.366 . S
C351 C355 1.385 . S
C352 H333 0.951 . S
C352 C350 1.388 . S
C352 C353 1.366 . S
C353 C352 1.366 . S
C353 C354 1.414 . S
C353 C356 1.499 . S
C354 H334 0.950 . S
C354 C353 1.414 . S
C354 C355 1.374 . S
C355 H335 0.950 . S
C355 C351 1.385 . S
C355 C354 1.374 . S
C356 C353 1.499 . S
C356 C357 1.373 . S
C356 C358 1.389 . S
C357 H336 0.950 . S
C357 C356 1.373 . S
C357 C373 1.377 . S
C358 C356 1.389 . S
C358 C359 1.524 . S
C358 C372 1.377 . S
C359 C358 1.524 . S
C359 C360 1.397 . S
C359 C364 1.363 . S
C360 H337 0.950 . S
C360 C359 1.397 . S
C360 C361 1.334 . S
C361 H338 0.950 . S
C361 C360 1.334 . S
C361 C362 1.287 . S
C362 C361 1.287 . S
C362 C363 1.524 . S
C362 H381 0.913 . S
C363 H339 0.950 . S
C363 C362 1.524 . S
C363 C364 1.415 . S
C364 H340 0.950 . S
C364 C359 1.363 . S
C364 C363 1.415 . S
C365 H341 0.951 . S
C365 C366 1.366 . S
C365 C367 1.388 . S
C366 C365 1.366 . S
C366 C370 1.385 . S
C367 H342 0.951 . S
C367 C365 1.388 . S
C367 C368 1.366 . S
C368 C367 1.366 . S
C368 C369 1.414 . S
C368 C371 1.499 . S
C369 H343 0.950 . S
C369 C368 1.414 . S
C369 C370 1.374 . S
C370 H344 0.950 . S
C370 C366 1.385 . S
C370 C369 1.374 . S
C371 C368 1.499 . S
C371 C372 1.373 . S
C371 C373 1.389 . S
C372 H345 0.950 . S
C372 C358 1.377 . S
C372 C371 1.373 . S
C373 C357 1.377 . S
C373 C371 1.389 . S
C373 C374 1.524 . S
C374 C373 1.524 . S
C374 C375 1.397 . S
C374 C379 1.363 . S
C375 H346 0.950 . S
C375 C374 1.397 . S
C375 C376 1.334 . S
C376 H347 0.950 . S
C376 C375 1.334 . S
C376 C377 1.287 . S
C377 C376 1.287 . S
C377 C378 1.524 . S
C377 H380 0.999 . S
C378 H348 0.950 . S
C378 C377 1.524 . S
C378 C379 1.415 . S
C379 H349 0.950 . S
C379 C374 1.363 . S
C379 C378 1.415 . S
H380 C377 0.999 . S
H381 C362 0.913 . S
H382 C400 0.951 . S
H383 C402 0.951 . S
H384 C404 0.950 . S
H385 C405 0.950 . S
H386 C407 0.950 . S
H387 C410 0.950 . S
H388 C411 0.950 . S
H389 C413 0.950 . S
H390 C414 0.950 . S
H391 C415 0.951 . S
H392 C417 0.951 . S
H393 C419 0.950 . S
H394 C420 0.950 . S
H395 C422 0.950 . S
H396 C425 0.950 . S
H397 C426 0.950 . S
H398 C428 0.950 . S
H399 C429 0.950 . S
C400 H382 0.951 . S
C400 C401 1.366 . S
C400 C402 1.388 . S
C401 C400 1.366 . S
C401 C405 1.385 . S
C402 H383 0.951 . S
C402 C400 1.388 . S
C402 C403 1.366 . S
C403 C402 1.366 . S
C403 C404 1.414 . S
C403 C406 1.499 . S
C404 H384 0.950 . S
C404 C403 1.414 . S
C404 C405 1.374 . S
C405 H385 0.950 . S
C405 C401 1.385 . S
C405 C404 1.374 . S
C406 C403 1.499 . S
C406 C407 1.373 . S
C406 C408 1.389 . S
C407 H386 0.950 . S
C407 C406 1.373 . S
C407 C423 1.377 . S
C408 C406 1.389 . S
C408 C409 1.524 . S
C408 C422 1.377 . S
C409 C408 1.524 . S
C409 C410 1.397 . S
C409 C414 1.363 . S
C410 H387 0.950 . S
C410 C409 1.397 . S
C410 C411 1.334 . S
C411 H388 0.950 . S
C411 C410 1.334 . S
C411 C412 1.287 . S
C412 C411 1.287 . S
C412 C413 1.524 . S
C412 H431 0.913 . S
C413 H389 0.950 . S
C413 C412 1.524 . S
C413 C414 1.415 . S
C414 H390 0.950 . S
C414 C409 1.363 . S
C414 C413 1.415 . S
C415 H391 0.951 . S
C415 C416 1.366 . S
C415 C417 1.388 . S
C416 C415 1.366 . S
C416 C420 1.385 . S
C417 H392 0.951 . S
C417 C415 1.388 . S
C417 C418 1.366 . S
C418 C417 1.366 . S
C418 C419 1.414 . S
C418 C421 1.499 . S
C419 H393 0.950 . S
C419 C418 1.414 . S
C419 C420 1.374 . S
C420 H394 0.950 . S
C420 C416 1.385 . S
C420 C419 1.374 . S
C421 C418 1.499 . S
C421 C422 1.373 . S
C421 C423 1.389 . S
C422 H395 0.950 . S
C422 C408 1.377 . S
C422 C421 1.373 . S
C423 C407 1.377 . S
C423 C421 1.389 . S
C423 C424 1.524 . S
C424 C423 1.524 . S
C424 C425 1.397 . S
C424 C429 1.363 . S
C425 H396 0.950 . S
C425 C424 1.397 . S
C425 C426 1.334 . S
C426 H397 0.950 . S
C426 C425 1.334 . S
C426 C427 1.287 . S
C427 C426 1.287 . S
C427 C428 1.524 . S
C427 H430 0.999 . S
C428 H398 0.950 . S
C428 C427 1.524 . S
C428 C429 1.415 . S
C429 H399 0.950 . S
C429 C424 1.363 . S
C429 C428 1.415 . S
H430 C427 0.999 . S
H431 C412 0.913 . S
H432 C450 0.951 . S
H433 C452 0.951 . S
H434 C454 0.950 . S
H435 C455 0.950 . S
H436 C457 0.950 . S
H437 C460 0.950 . S
H438 C461 0.950 . S
H439 C463 0.950 . S
H440 C464 0.950 . S
H441 C465 0.951 . S
H442 C467 0.951 . S
H443 C469 0.950 . S
H444 C470 0.950 . S
H445 C472 0.950 . S
H446 C475 0.950 . S
H447 C476 0.950 . S
H448 C478 0.950 . S
H449 C479 0.950 . S
C450 H432 0.951 . S
C450 C451 1.366 . S
C450 C452 1.388 . S
C451 C450 1.366 . S
C451 C455 1.385 . S
C452 H433 0.951 . S
C452 C450 1.388 . S
C452 C453 1.366 . S
C453 C452 1.366 . S
C453 C454 1.414 . S
C453 C456 1.499 . S
C454 H434 0.950 . S
C454 C453 1.414 . S
C454 C455 1.374 . S
C455 H435 0.950 . S
C455 C451 1.385 . S
C455 C454 1.374 . S
C456 C453 1.499 . S
C456 C457 1.373 . S
C456 C458 1.389 . S
C457 H436 0.950 . S
C457 C456 1.373 . S
C457 C473 1.377 . S
C458 C456 1.389 . S
C458 C459 1.524 . S
C458 C472 1.377 . S
C459 C458 1.524 . S
C459 C460 1.397 . S
C459 C464 1.363 . S
C460 H437 0.950 . S
C460 C459 1.397 . S
C460 C461 1.334 . S
C461 H438 0.950 . S
C461 C460 1.334 . S
C461 C462 1.287 . S
C462 C461 1.287 . S
C462 C463 1.524 . S
C462 H481 0.913 . S
C463 H439 0.950 . S
C463 C462 1.524 . S
C463 C464 1.415 . S
C464 H440 0.950 . S
C464 C459 1.363 . S
C464 C463 1.415 . S
C465 H441 0.951 . S
C465 C466 1.366 . S
C465 C467 1.388 . S
C466 C465 1.366 . S
C466 C470 1.385 . S
C467 H442 0.951 . S
C467 C465 1.388 . S
C467 C468 1.366 . S
C468 C467 1.366 . S
C468 C469 1.414 . S
C468 C471 1.499 . S
C469 H443 0.950 . S
C469 C468 1.414 . S
C469 C470 1.374 . S
C470 H444 0.950 . S
C470 C466 1.385 . S
C470 C469 1.374 . S
C471 C468 1.499 . S
C471 C472 1.373 . S
C471 C473 1.389 . S
C472 H445 0.950 . S
C472 C458 1.377 . S
C472 C471 1.373 . S
C473 C457 1.377 . S
C473 C471 1.389 . S
C473 C474 1.524 . S
C474 C473 1.524 . S
C474 C475 1.397 . S
C474 C479 1.363 . S
C475 H446 0.950 . S
C475 C474 1.397 . S
C475 C476 1.334 . S
C476 H447 0.950 . S
C476 C475 1.334 . S
C476 C477 1.287 . S
C477 C476 1.287 . S
C477 C478 1.524 . S
C477 H480 0.999 . S
C478 H448 0.950 . S
C478 C477 1.524 . S
C478 C479 1.415 . S
C479 H449 0.950 . S
C479 C474 1.363 . S
C479 C478 1.415 . S
H480 C477 0.999 . S
H481 C462 0.913 . S
H482 C500 0.951 . S
H483 C502 0.951 . S
H484 C504 0.950 . S
H485 C505 0.950 . S
H486 C507 0.950 . S
H487 C510 0.950 . S
H488 C511 0.950 . S
H489 C513 0.950 . S
H490 C514 0.950 . S
H491 C515 0.951 . S
H492 C517 0.951 . S
H493 C519 0.950 . S
H494 C520 0.950 . S
H495 C522 0.950 . S
H496 C525 0.950 . S
H497 C526 0.957 . S
H498 C528 0.950 . S
H499 C529 0.950 . S
C500 H482 0.951 . S
C500 C501 1.366 . S
C500 C502 1.388 . S
C501 C500 1.366 . S
C501 C505 1.385 . S
C502 H483 0.951 . S
C502 C500 1.388 . S
C502 C503 1.366 . S
C503 C502 1.366 . S
C503 C504 1.414 . S
C503 C506 1.499 . S
C504 H484 0.950 . S
C504 C503 1.414 . S
C504 C505 1.374 . S
C505 H485 0.950 . S
C505 C501 1.385 . S
C505 C504 1.374 . S
C506 C503 1.499 . S
C506 C507 1.373 . S
C506 C508 1.389 . S
C507 H486 0.950 . S
C507 C506 1.373 . S
C507 C523 1.377 . S
C508 C506 1.389 . S
C508 C509 1.524 . S
C508 C522 1.377 . S
C509 C508 1.524 . S
C509 C510 1.397 . S
C509 C514 1.363 . S
C510 H487 0.950 . S
C510 C509 1.397 . S
C510 C511 1.334 . S
C511 H488 0.950 . S
C511 C510 1.334 . S
C511 C512 1.287 . S
C512 C511 1.287 . S
C512 C513 1.524 . S
C512 H531 0.913 . S
C513 H489 0.950 . S
C513 C512 1.524 . S
C513 C514 1.415 . S
C514 H490 0.950 . S
C514 C509 1.363 . S
C514 C513 1.415 . S
C515 H491 0.951 . S
C515 C516 1.366 . S
C515 C517 1.388 . S
C516 C515 1.366 . S
C516 C520 1.385 . S
C517 H492 0.951 . S
C517 C515 1.388 . S
C517 C518 1.366 . S
C518 C517 1.366 . S
C518 C519 1.414 . S
C518 C521 1.499 . S
C519 H493 0.950 . S
C519 C518 1.414 . S
C519 C520 1.374 . S
C520 H494 0.950 . S
C520 C516 1.385 . S
C520 C519 1.374 . S
C521 C518 1.499 . S
C521 C522 1.373 . S
C521 C523 1.389 . S
C522 H495 0.950 . S
C522 C508 1.377 . S
C522 C521 1.373 . S
C523 C507 1.377 . S
C523 C521 1.389 . S
C523 C524 1.524 . S
C524 C523 1.524 . S
C524 C525 1.397 . S
C524 C529 1.363 . S
C525 H496 0.950 . S
C525 C524 1.397 . S
C525 C526 1.322 1_565 S
C526 H497 0.957 . S
C526 C525 1.322 1_545 S
C526 C527 1.293 . S
C527 C526 1.293 . S
C527 C528 1.524 . S
C527 H530 0.999 . S
C528 H498 0.950 . S
C528 C527 1.524 . S
C528 C529 1.415 1_545 S
C529 H499 0.950 . S
C529 C524 1.363 . S
C529 C528 1.415 1_565 S
H530 C527 0.999 . S
H531 C512 0.913 . S
H532 C550 0.951 . S
H533 C552 0.951 . S
H534 C554 0.950 . S
H535 C555 0.950 . S
H536 C557 0.950 . S
H537 C560 0.950 . S
H538 C561 0.950 . S
H539 C563 0.950 . S
H540 C564 0.950 . S
H541 C565 0.951 . S
H542 C567 0.951 . S
H543 C569 0.950 . S
H544 C570 0.935 1_554 S
H545 C572 0.950 . S
H546 C575 0.950 . S
H547 C576 0.950 . S
H548 C578 0.950 . S
H549 C579 0.950 . S
C550 H532 0.951 . S
C550 C551 1.366 . S
C550 C552 1.388 . S
C551 C550 1.366 . S
C551 C555 1.385 . S
C552 H533 0.951 . S
C552 C550 1.388 . S
C552 C553 1.366 . S
C553 C552 1.366 . S
C553 C554 1.414 . S
C553 C556 1.499 . S
C554 H534 0.950 . S
C554 C553 1.414 . S
C554 C555 1.374 . S
C555 H535 0.950 . S
C555 C551 1.385 . S
C555 C554 1.374 . S
C556 C553 1.499 . S
C556 C557 1.373 . S
C556 C558 1.389 . S
C557 H536 0.950 . S
C557 C556 1.373 . S
C557 C573 1.377 . S
C558 C556 1.389 . S
C558 C559 1.524 . S
C558 C572 1.377 . S
C559 C558 1.524 . S
C559 C560 1.397 . S
C559 C564 1.363 . S
C560 H537 0.950 . S
C560 C559 1.397 . S
C560 C561 1.334 . S
C561 H538 0.950 . S
C561 C560 1.334 . S
C561 C562 1.287 . S
C562 C561 1.287 . S
C562 C563 1.524 . S
C562 H581 0.913 . S
C563 H539 0.950 . S
C563 C562 1.524 . S
C563 C564 1.415 . S
C564 H540 0.950 . S
C564 C559 1.363 . S
C564 C563 1.415 . S
C565 H541 0.951 . S
C565 C566 1.366 . S
C565 C567 1.388 . S
C566 C565 1.366 . S
C566 C570 1.385 . S
C567 H542 0.951 . S
C567 C565 1.388 . S
C567 C568 1.366 . S
C568 C567 1.366 . S
C568 C569 1.414 . S
C568 C571 1.499 . S
C569 H543 0.950 . S
C569 C568 1.414 . S
C569 C570 1.374 . S
C570 H544 0.935 1_556 S
C570 C566 1.385 . S
C570 C569 1.374 . S
C571 C568 1.499 . S
C571 C572 1.373 . S
C571 C573 1.389 . S
C572 H545 0.950 . S
C572 C558 1.377 . S
C572 C571 1.373 . S
C573 C557 1.377 . S
C573 C571 1.389 . S
C573 C574 1.524 . S
C574 C573 1.524 . S
C574 C575 1.397 . S
C574 C579 1.363 . S
C575 H546 0.950 . S
C575 C574 1.397 . S
C575 C576 1.334 . S
C576 H547 0.950 . S
C576 C575 1.334 . S
C576 C577 1.287 . S
C577 C576 1.287 . S
C577 C578 1.524 . S
C577 H580 0.999 . S
C578 H548 0.950 . S
C578 C577 1.524 . S
C578 C579 1.415 . S
C579 H549 0.950 . S
C579 C574 1.363 . S
C579 C578 1.415 . S
H580 C577 0.999 . S
H581 C562 0.913 . S
H582 C600 0.951 . S
H583 C602 0.951 . S
H584 C604 0.950 . S
H585 C605 0.950 . S
H586 C607 0.950 . S
H587 C610 0.950 . S
H588 C611 0.950 . S
H589 C613 0.950 . S
H590 C614 0.950 . S
H591 C615 0.951 . S
H592 C617 0.951 . S
H593 C619 0.950 . S
H594 C620 0.950 . S
H595 C622 0.950 . S
H596 C625 0.950 . S
H597 C626 0.950 . S
H598 C628 0.950 . S
H599 C629 0.950 . S
C600 H582 0.951 . S
C600 C601 1.366 . S
C600 C602 1.388 . S
C601 C600 1.366 . S
C601 C605 1.385 . S
C602 H583 0.951 . S
C602 C600 1.388 . S
C602 C603 1.366 . S
C603 C602 1.366 . S
C603 C604 1.414 . S
C603 C606 1.499 . S
C604 H584 0.950 . S
C604 C603 1.414 . S
C604 C605 1.374 . S
C605 H585 0.950 . S
C605 C601 1.385 . S
C605 C604 1.374 . S
C606 C603 1.499 . S
C606 C607 1.373 . S
C606 C608 1.389 . S
C607 H586 0.950 . S
C607 C606 1.373 . S
C607 C623 1.377 . S
C608 C606 1.389 . S
C608 C609 1.524 . S
C608 C622 1.377 . S
C609 C608 1.524 . S
C609 C610 1.397 . S
C609 C614 1.363 . S
C610 H587 0.950 . S
C610 C609 1.397 . S
C610 C611 1.334 . S
C611 H588 0.950 . S
C611 C610 1.334 . S
C611 C612 1.287 . S
C612 C611 1.287 . S
C612 C613 1.524 . S
C612 H631 0.913 . S
C613 H589 0.950 . S
C613 C612 1.524 . S
C613 C614 1.415 . S
C614 H590 0.950 . S
C614 C609 1.363 . S
C614 C613 1.415 . S
C615 H591 0.951 . S
C615 C616 1.366 . S
C615 C617 1.388 . S
C616 C615 1.366 . S
C616 C620 1.385 . S
C617 H592 0.951 . S
C617 C615 1.388 . S
C617 C618 1.366 . S
C618 C617 1.366 . S
C618 C619 1.414 . S
C618 C621 1.499 . S
C619 H593 0.950 . S
C619 C618 1.414 . S
C619 C620 1.374 . S
C620 H594 0.950 . S
C620 C616 1.385 . S
C620 C619 1.374 . S
C621 C618 1.499 . S
C621 C622 1.373 . S
C621 C623 1.389 . S
C622 H595 0.950 . S
C622 C608 1.377 . S
C622 C621 1.373 . S
C623 C607 1.377 . S
C623 C621 1.389 . S
C623 C624 1.524 . S
C624 C623 1.524 . S
C624 C625 1.397 . S
C624 C629 1.363 . S
C625 H596 0.950 . S
C625 C624 1.397 . S
C625 C626 1.334 . S
C626 H597 0.950 . S
C626 C625 1.334 . S
C626 C627 1.287 . S
C627 C626 1.287 . S
C627 C628 1.524 . S
C627 H630 0.999 . S
C628 H598 0.950 . S
C628 C627 1.524 . S
C628 C629 1.415 . S
C629 H599 0.950 . S
C629 C624 1.363 . S
C629 C628 1.415 . S
H630 C627 0.999 . S
H631 C612 0.913 . S
H632 C650 0.951 . S
H633 C652 0.951 . S
H634 C654 0.950 . S
H635 C655 0.950 . S
H636 C657 0.950 . S
H637 C660 0.950 . S
H638 C661 0.950 . S
H639 C663 0.950 . S
H640 C664 0.950 . S
H641 C665 0.951 . S
H642 C667 0.951 . S
H643 C669 0.950 . S
H644 C670 0.950 . S
H645 C672 0.950 . S
H646 C675 0.950 . S
H647 C676 0.950 . S
H648 C678 0.950 . S
H649 C679 0.950 . S
C650 H632 0.951 . S
C650 C651 1.366 . S
C650 C652 1.388 . S
C651 C650 1.366 . S
C651 C655 1.385 . S
C652 H633 0.951 . S
C652 C650 1.388 . S
C652 C653 1.366 . S
C653 C652 1.366 . S
C653 C654 1.414 . S
C653 C656 1.499 . S
C654 H634 0.950 . S
C654 C653 1.414 . S
C654 C655 1.374 . S
C655 H635 0.950 . S
C655 C651 1.385 . S
C655 C654 1.374 . S
C656 C653 1.499 . S
C656 C657 1.373 . S
C656 C658 1.389 . S
C657 H636 0.950 . S
C657 C656 1.373 . S
C657 C673 1.377 . S
C658 C656 1.389 . S
C658 C659 1.524 . S
C658 C672 1.377 . S
C659 C658 1.524 . S
C659 C660 1.397 . S
C659 C664 1.363 . S
C660 H637 0.950 . S
C660 C659 1.397 . S
C660 C661 1.334 . S
C661 H638 0.950 . S
C661 C660 1.334 . S
C661 C662 1.287 . S
C662 C661 1.287 . S
C662 C663 1.524 . S
C662 H681 0.913 . S
C663 H639 0.950 . S
C663 C662 1.524 . S
C663 C664 1.415 . S
C664 H640 0.950 . S
C664 C659 1.363 . S
C664 C663 1.415 . S
C665 H641 0.951 . S
C665 C666 1.366 . S
C665 C667 1.388 . S
C666 C665 1.366 . S
C666 C670 1.385 . S
C667 H642 0.951 . S
C667 C665 1.388 . S
C667 C668 1.366 . S
C668 C667 1.366 . S
C668 C669 1.414 . S
C668 C671 1.499 . S
C669 H643 0.950 . S
C669 C668 1.414 . S
C669 C670 1.374 . S
C670 H644 0.950 . S
C670 C666 1.385 . S
C670 C669 1.374 . S
C671 C668 1.499 . S
C671 C672 1.373 . S
C671 C673 1.389 . S
C672 H645 0.950 . S
C672 C658 1.377 . S
C672 C671 1.373 . S
C673 C657 1.377 . S
C673 C671 1.389 . S
C673 C674 1.524 . S
C674 C673 1.524 . S
C674 C675 1.397 . S
C674 C679 1.363 . S
C675 H646 0.950 . S
C675 C674 1.397 . S
C675 C676 1.334 . S
C676 H647 0.950 . S
C676 C675 1.334 . S
C676 C677 1.287 . S
C677 C676 1.287 . S
C677 C678 1.524 . S
C677 H680 0.999 . S
C678 H648 0.950 . S
C678 C677 1.524 . S
C678 C679 1.415 . S
C679 H649 0.950 . S
C679 C674 1.363 . S
C679 C678 1.415 . S
H680 C677 0.999 . S
H681 C662 0.913 . S
H682 C700 0.951 . S
H683 C702 0.951 . S
H684 C704 0.950 . S
H685 C705 0.950 . S
H686 C707 0.950 . S
H687 C710 0.950 . S
H688 C711 0.950 . S
H689 C713 0.950 . S
H690 C714 0.950 . S
H691 C715 0.951 . S
H692 C717 0.951 . S
H693 C719 0.950 . S
H694 C720 0.950 . S
H695 C722 0.950 . S
H696 C725 0.950 . S
H697 C726 0.950 . S
H698 C728 0.950 . S
H699 C729 0.950 . S
C700 H682 0.951 . S
C700 C701 1.366 . S
C700 C702 1.388 . S
C701 C700 1.366 . S
C701 C705 1.385 . S
C702 H683 0.951 . S
C702 C700 1.388 . S
C702 C703 1.366 . S
C703 C702 1.366 . S
C703 C704 1.414 . S
C703 C706 1.499 . S
C704 H684 0.950 . S
C704 C703 1.414 . S
C704 C705 1.374 . S
C705 H685 0.950 . S
C705 C701 1.385 . S
C705 C704 1.374 . S
C706 C703 1.499 . S
C706 C707 1.373 . S
C706 C708 1.389 . S
C707 H686 0.950 . S
C707 C706 1.373 . S
C707 C723 1.377 . S
C708 C706 1.389 . S
C708 C709 1.524 . S
C708 C722 1.377 . S
C709 C708 1.524 . S
C709 C710 1.397 . S
C709 C714 1.363 . S
C710 H687 0.950 . S
C710 C709 1.397 . S
C710 C711 1.334 . S
C711 H688 0.950 . S
C711 C710 1.334 . S
C711 C712 1.287 . S
C712 C711 1.287 . S
C712 C713 1.524 . S
C712 H731 0.913 . S
C713 H689 0.950 . S
C713 C712 1.524 . S
C713 C714 1.415 . S
C714 H690 0.950 . S
C714 C709 1.363 . S
C714 C713 1.415 . S
C715 H691 0.951 . S
C715 C716 1.366 . S
C715 C717 1.388 . S
C716 C715 1.366 . S
C716 C720 1.385 . S
C717 H692 0.951 . S
C717 C715 1.388 . S
C717 C718 1.366 . S
C718 C717 1.366 . S
C718 C719 1.414 . S
C718 C721 1.499 . S
C719 H693 0.950 . S
C719 C718 1.414 . S
C719 C720 1.374 . S
C720 H694 0.950 . S
C720 C716 1.385 . S
C720 C719 1.374 . S
C721 C718 1.499 . S
C721 C722 1.373 . S
C721 C723 1.389 . S
C722 H695 0.950 . S
C722 C708 1.377 . S
C722 C721 1.373 . S
C723 C707 1.377 . S
C723 C721 1.389 . S
C723 C724 1.524 . S
C724 C723 1.524 . S
C724 C725 1.397 . S
C724 C729 1.363 . S
C725 H696 0.950 . S
C725 C724 1.397 . S
C725 C726 1.334 . S
C726 H697 0.950 . S
C726 C725 1.334 . S
C726 C727 1.287 . S
C727 C726 1.287 . S
C727 C728 1.524 . S
C727 H730 0.999 . S
C728 H698 0.950 . S
C728 C727 1.524 . S
C728 C729 1.415 . S
C729 H699 0.950 . S
C729 C724 1.363 . S
C729 C728 1.415 . S
H730 C727 0.999 . S
H731 C712 0.913 . S
H732 C750 0.951 . S
H733 C752 0.951 . S
H734 C754 0.950 . S
H735 C755 0.950 . S
H736 C757 0.950 . S
H737 C760 0.950 . S
H738 C761 0.950 . S
H739 C763 0.950 . S
H740 C764 0.950 . S
H741 C765 0.951 . S
H742 C767 0.951 . S
H743 C769 0.950 . S
H744 C770 0.950 . S
H745 C772 0.950 . S
H746 C775 0.950 . S
H747 C776 0.950 . S
H748 C778 0.950 . S
H749 C779 0.950 . S
C750 H732 0.951 . S
C750 C751 1.366 . S
C750 C752 1.388 . S
C751 C750 1.366 . S
C751 C755 1.385 . S
C752 H733 0.951 . S
C752 C750 1.388 . S
C752 C753 1.366 . S
C753 C752 1.366 . S
C753 C754 1.414 . S
C753 C756 1.499 . S
C754 H734 0.950 . S
C754 C753 1.414 . S
C754 C755 1.374 . S
C755 H735 0.950 . S
C755 C751 1.385 . S
C755 C754 1.374 . S
C756 C753 1.499 . S
C756 C757 1.373 . S
C756 C758 1.389 . S
C757 H736 0.950 . S
C757 C756 1.373 . S
C757 C773 1.377 . S
C758 C756 1.389 . S
C758 C759 1.524 . S
C758 C772 1.377 . S
C759 C758 1.524 . S
C759 C760 1.397 . S
C759 C764 1.363 . S
C760 H737 0.950 . S
C760 C759 1.397 . S
C760 C761 1.334 . S
C761 H738 0.950 . S
C761 C760 1.334 . S
C761 C762 1.287 . S
C762 C761 1.287 . S
C762 C763 1.524 . S
C762 H781 0.913 . S
C763 H739 0.950 . S
C763 C762 1.524 . S
C763 C764 1.415 . S
C764 H740 0.950 . S
C764 C759 1.363 . S
C764 C763 1.415 . S
C765 H741 0.951 . S
C765 C766 1.366 . S
C765 C767 1.388 . S
C766 C765 1.366 . S
C766 C770 1.385 . S
C767 H742 0.951 . S
C767 C765 1.388 . S
C767 C768 1.366 . S
C768 C767 1.366 . S
C768 C769 1.414 . S
C768 C771 1.499 . S
C769 H743 0.950 . S
C769 C768 1.414 . S
C769 C770 1.374 . S
C770 H744 0.950 . S
C770 C766 1.385 . S
C770 C769 1.374 . S
C771 C768 1.499 . S
C771 C772 1.373 . S
C771 C773 1.389 . S
C772 H745 0.950 . S
C772 C758 1.377 . S
C772 C771 1.373 . S
C773 C757 1.377 . S
C773 C771 1.389 . S
C773 C774 1.524 . S
C774 C773 1.524 . S
C774 C775 1.397 . S
C774 C779 1.363 . S
C775 H746 0.950 . S
C775 C774 1.397 . S
C775 C776 1.334 . S
C776 H747 0.950 . S
C776 C775 1.334 . S
C776 C777 1.287 . S
C777 C776 1.287 . S
C777 C778 1.524 . S
C777 H780 0.999 . S
C778 H748 0.950 . S
C778 C777 1.524 . S
C778 C779 1.415 . S
C779 H749 0.950 . S
C779 C774 1.363 . S
C779 C778 1.415 . S
H780 C777 0.999 . S
H781 C762 0.913 . S
H782 C800 0.951 . S
H783 C802 0.951 . S
H784 C804 0.950 . S
H785 C805 0.950 . S
H786 C807 0.950 . S
H787 C810 0.950 . S
H788 C811 0.950 . S
H789 C813 0.950 . S
H790 C814 0.950 . S
H791 C815 0.951 . S
H792 C817 0.951 . S
H793 C819 0.950 . S
H794 C820 0.950 . S
H795 C822 0.950 . S
H796 C825 0.950 . S
H797 C826 0.950 . S
H798 C828 0.950 . S
H799 C829 0.950 . S
C800 H782 0.951 . S
C800 C801 1.366 . S
C800 C802 1.388 . S
C801 C800 1.366 . S
C801 C805 1.385 . S
C802 H783 0.951 . S
C802 C800 1.388 . S
C802 C803 1.366 . S
C803 C802 1.366 . S
C803 C804 1.414 . S
C803 C806 1.499 . S
C804 H784 0.950 . S
C804 C803 1.414 . S
C804 C805 1.374 . S
C805 H785 0.950 . S
C805 C801 1.385 . S
C805 C804 1.374 . S
C806 C803 1.499 . S
C806 C807 1.373 . S
C806 C808 1.389 . S
C807 H786 0.950 . S
C807 C806 1.373 . S
C807 C823 1.377 . S
C808 C806 1.389 . S
C808 C809 1.524 . S
C808 C822 1.377 . S
C809 C808 1.524 . S
C809 C810 1.397 . S
C809 C814 1.363 . S
C810 H787 0.950 . S
C810 C809 1.397 . S
C810 C811 1.334 . S
C811 H788 0.950 . S
C811 C810 1.334 . S
C811 C812 1.287 . S
C812 C811 1.287 . S
C812 C813 1.524 . S
C812 H831 0.913 . S
C813 H789 0.950 . S
C813 C812 1.524 . S
C813 C814 1.415 . S
C814 H790 0.950 . S
C814 C809 1.363 . S
C814 C813 1.415 . S
C815 H791 0.951 . S
C815 C816 1.366 . S
C815 C817 1.388 . S
C816 C815 1.366 . S
C816 C820 1.385 . S
C817 H792 0.951 . S
C817 C815 1.388 . S
C817 C818 1.366 . S
C818 C817 1.366 . S
C818 C819 1.414 . S
C818 C821 1.499 . S
C819 H793 0.950 . S
C819 C818 1.414 . S
C819 C820 1.374 . S
C820 H794 0.950 . S
C820 C816 1.385 . S
C820 C819 1.374 . S
C821 C818 1.499 . S
C821 C822 1.373 . S
C821 C823 1.389 . S
C822 H795 0.950 . S
C822 C808 1.377 . S
C822 C821 1.373 . S
C823 C807 1.377 . S
C823 C821 1.389 . S
C823 C824 1.524 . S
C824 C823 1.524 . S
C824 C825 1.397 . S
C824 C829 1.363 . S
C825 H796 0.950 . S
C825 C824 1.397 . S
C825 C826 1.334 . S
C826 H797 0.950 . S
C826 C825 1.334 . S
C826 C827 1.287 . S
C827 C826 1.287 . S
C827 C828 1.524 . S
C827 H830 0.999 . S
C828 H798 0.950 . S
C828 C827 1.524 . S
C828 C829 1.415 . S
C829 H799 0.950 . S
C829 C824 1.363 . S
C829 C828 1.415 . S
H830 C827 0.999 . S
H831 C812 0.913 . S
H832 C850 0.951 . S
H833 C852 0.951 . S
H834 C854 0.950 . S
H835 C855 0.950 . S
H836 C857 0.950 . S
H837 C860 0.950 . S
H838 C861 0.950 . S
H839 C863 0.950 . S
H840 C864 0.950 . S
H841 C865 0.951 . S
H842 C867 0.951 . S
H843 C869 0.950 . S
H844 C870 0.950 . S
H845 C872 0.950 . S
H846 C875 0.950 . S
H847 C876 0.950 . S
H848 C878 0.950 . S
H849 C879 0.950 . S
C850 H832 0.951 . S
C850 C851 1.366 . S
C850 C852 1.388 . S
C851 C850 1.366 . S
C851 C855 1.385 . S
C852 H833 0.951 . S
C852 C850 1.388 . S
C852 C853 1.366 . S
C853 C852 1.366 . S
C853 C854 1.414 . S
C853 C856 1.499 . S
C854 H834 0.950 . S
C854 C853 1.414 . S
C854 C855 1.374 . S
C855 H835 0.950 . S
C855 C851 1.385 . S
C855 C854 1.374 . S
C856 C853 1.499 . S
C856 C857 1.373 . S
C856 C858 1.389 . S
C857 H836 0.950 . S
C857 C856 1.373 . S
C857 C873 1.377 . S
C858 C856 1.389 . S
C858 C859 1.524 . S
C858 C872 1.377 . S
C859 C858 1.524 . S
C859 C860 1.397 . S
C859 C864 1.363 . S
C860 H837 0.950 . S
C860 C859 1.397 . S
C860 C861 1.334 . S
C861 H838 0.950 . S
C861 C860 1.334 . S
C861 C862 1.287 . S
C862 C861 1.287 . S
C862 C863 1.524 . S
C862 H881 0.913 . S
C863 H839 0.950 . S
C863 C862 1.524 . S
C863 C864 1.415 . S
C864 H840 0.950 . S
C864 C859 1.363 . S
C864 C863 1.415 . S
C865 H841 0.951 . S
C865 C866 1.366 . S
C865 C867 1.388 . S
C866 C865 1.366 . S
C866 C870 1.385 . S
C867 H842 0.951 . S
C867 C865 1.388 . S
C867 C868 1.366 . S
C868 C867 1.366 . S
C868 C869 1.414 . S
C868 C871 1.499 . S
C869 H843 0.950 . S
C869 C868 1.414 . S
C869 C870 1.374 . S
C870 H844 0.950 . S
C870 C866 1.385 . S
C870 C869 1.374 . S
C871 C868 1.499 . S
C871 C872 1.373 . S
C871 C873 1.389 . S
C872 H845 0.950 . S
C872 C858 1.377 . S
C872 C871 1.373 . S
C873 C857 1.377 . S
C873 C871 1.389 . S
C873 C874 1.524 . S
C874 C873 1.524 . S
C874 C875 1.397 . S
C874 C879 1.363 . S
C875 H846 0.950 . S
C875 C874 1.397 . S
C875 C876 1.334 . S
C876 H847 0.950 . S
C876 C875 1.334 . S
C876 C877 1.287 . S
C877 C876 1.287 . S
C877 C878 1.524 . S
C877 H880 0.999 . S
C878 H848 0.950 . S
C878 C877 1.524 . S
C878 C879 1.415 . S
C879 H849 0.950 . S
C879 C874 1.363 . S
C879 C878 1.415 . S
H880 C877 0.999 . S
H881 C862 0.913 . S
H882 C900 0.951 . S
H883 C902 0.951 . S
H884 C904 0.950 . S
H885 C905 0.950 . S
H886 C907 0.950 . S
H887 C910 0.950 . S
H888 C911 0.950 . S
H889 C913 0.950 . S
H890 C914 0.950 . S
H891 C915 0.951 . S
H892 C917 0.951 . S
H893 C919 0.950 . S
H894 C920 0.950 . S
H895 C922 0.950 . S
H896 C925 0.950 . S
H897 C926 0.950 . S
H898 C928 0.950 . S
H899 C929 0.950 . S
C900 H882 0.951 . S
C900 C901 1.366 . S
C900 C902 1.388 . S
C901 C900 1.366 . S
C901 C905 1.385 . S
C902 H883 0.951 . S
C902 C900 1.388 . S
C902 C903 1.366 . S
C903 C902 1.366 . S
C903 C904 1.414 . S
C903 C906 1.499 . S
C904 H884 0.950 . S
C904 C903 1.414 . S
C904 C905 1.374 . S
C905 H885 0.950 . S
C905 C901 1.385 . S
C905 C904 1.374 . S
C906 C903 1.499 . S
C906 C907 1.373 . S
C906 C908 1.389 . S
C907 H886 0.950 . S
C907 C906 1.373 . S
C907 C923 1.377 . S
C908 C906 1.389 . S
C908 C909 1.524 . S
C908 C922 1.377 . S
C909 C908 1.524 . S
C909 C910 1.397 . S
C909 C914 1.363 . S
C910 H887 0.950 . S
C910 C909 1.397 . S
C910 C911 1.334 . S
C911 H888 0.950 . S
C911 C910 1.334 . S
C911 C912 1.287 . S
C912 C911 1.287 . S
C912 C913 1.524 . S
C912 H931 0.913 . S
C913 H889 0.950 . S
C913 C912 1.524 . S
C913 C914 1.415 . S
C914 H890 0.950 . S
C914 C909 1.363 . S
C914 C913 1.415 . S
C915 H891 0.951 . S
C915 C916 1.366 . S
C915 C917 1.388 . S
C916 C915 1.366 . S
C916 C920 1.385 . S
C917 H892 0.951 . S
C917 C915 1.388 . S
C917 C918 1.366 . S
C918 C917 1.366 . S
C918 C919 1.414 . S
C918 C921 1.499 . S
C919 H893 0.950 . S
C919 C918 1.414 . S
C919 C920 1.374 . S
C920 H894 0.950 . S
C920 C916 1.385 . S
C920 C919 1.374 . S
C921 C918 1.499 . S
C921 C922 1.373 . S
C921 C923 1.389 . S
C922 H895 0.950 . S
C922 C908 1.377 . S
C922 C921 1.373 . S
C923 C907 1.377 . S
C923 C921 1.389 . S
C923 C924 1.524 . S
C924 C923 1.524 . S
C924 C925 1.397 . S
C924 C929 1.363 . S
C925 H896 0.950 . S
C925 C924 1.397 . S
C925 C926 1.334 . S
C926 H897 0.950 . S
C926 C925 1.334 . S
C926 C927 1.287 . S
C927 C926 1.287 . S
C927 C928 1.524 . S
C927 H930 0.999 1_545 S
C928 H898 0.950 . S
C928 C927 1.524 . S
C928 C929 1.415 . S
C929 H899 0.950 . S
C929 C924 1.363 . S
C929 C928 1.415 . S
H930 C927 0.999 1_565 S
H931 C912 0.913 . S
H932 C950 0.951 . S
H933 C952 0.951 . S
H934 C954 0.950 . S
H935 C955 0.950 . S
H936 C957 0.950 . S
H937 C960 0.950 . S
H938 C961 0.950 . S
H939 C963 0.950 . S
H940 C964 0.950 . S
H941 C965 0.951 . S
H942 C967 0.951 . S
H943 C969 0.950 . S
H944 C970 0.950 . S
H945 C972 0.950 . S
H946 C975 0.950 . S
H947 C976 0.950 . S
H948 C978 0.950 . S
H949 C979 0.950 . S
C950 H932 0.951 . S
C950 C951 1.366 . S
C950 C952 1.388 . S
C951 C950 1.366 . S
C951 C955 1.385 . S
C952 H933 0.951 . S
C952 C950 1.388 . S
C952 C953 1.366 . S
C953 C952 1.366 . S
C953 C954 1.414 . S
C953 C956 1.499 . S
C954 H934 0.950 . S
C954 C953 1.414 . S
C954 C955 1.374 . S
C955 H935 0.950 . S
C955 C951 1.385 . S
C955 C954 1.374 . S
C956 C953 1.499 . S
C956 C957 1.373 . S
C956 C958 1.389 . S
C957 H936 0.950 . S
C957 C956 1.373 . S
C957 C973 1.377 . S
C958 C956 1.389 . S
C958 C959 1.524 . S
C958 C972 1.377 . S
C959 C958 1.524 . S
C959 C960 1.397 . S
C959 C964 1.363 . S
C960 H937 0.950 . S
C960 C959 1.397 . S
C960 C961 1.334 . S
C961 H938 0.950 . S
C961 C960 1.334 . S
C961 C962 1.287 . S
C962 C961 1.287 . S
C962 C963 1.524 . S
C962 H981 0.913 . S
C963 H939 0.950 . S
C963 C962 1.524 . S
C963 C964 1.415 . S
C964 H940 0.950 . S
C964 C959 1.363 . S
C964 C963 1.415 . S
C965 H941 0.951 . S
C965 C966 1.366 . S
C965 C967 1.388 . S
C966 C965 1.366 . S
C966 C970 1.385 . S
C967 H942 0.951 . S
C967 C965 1.388 . S
C967 C968 1.366 . S
C968 C967 1.366 . S
C968 C969 1.414 . S
C968 C971 1.499 . S
C969 H943 0.950 . S
C969 C968 1.414 . S
C969 C970 1.374 . S
C970 H944 0.950 . S
C970 C966 1.385 . S
C970 C969 1.374 . S
C971 C968 1.499 . S
C971 C972 1.373 . S
C971 C973 1.389 . S
C972 H945 0.950 . S
C972 C958 1.377 . S
C972 C971 1.373 . S
C973 C957 1.377 . S
C973 C971 1.389 . S
C973 C974 1.524 . S
C974 C973 1.524 . S
C974 C975 1.397 . S
C974 C979 1.363 . S
C975 H946 0.950 . S
C975 C974 1.397 . S
C975 C976 1.334 . S
C976 H947 0.950 . S
C976 C975 1.334 . S
C976 C977 1.287 . S
C977 C976 1.287 . S
C977 C978 1.524 . S
C977 H980 0.999 . S
C978 H948 0.950 . S
C978 C977 1.524 . S
C978 C979 1.415 . S
C979 H949 0.950 . S
C979 C974 1.363 . S
C979 C978 1.415 . S
H980 C977 0.999 . S
H981 C962 0.913 . S
H982 C1000 0.951 . S
H983 C1002 0.951 . S
H984 C1004 0.950 . S
H985 C1005 0.950 . S
H986 C1007 0.950 . S
H987 C1010 0.950 . S
H988 C1011 0.950 . S
H989 C1013 0.950 1_655 S
H990 C1014 0.950 . S
H991 C1015 0.951 . S
H992 C1017 0.951 . S
H993 C1019 0.950 . S
H994 C1020 0.950 . S
H995 C1022 0.950 . S
H996 C1025 0.950 . S
H997 C1026 0.950 . S
H998 C1028 0.950 . S
H999 C1029 0.950 . S
C1000 H982 0.951 . S
C1000 C1001 1.366 . S
C1000 C1002 1.388 . S
C1001 C1000 1.366 . S
C1001 C1005 1.385 . S
C1002 H983 0.951 . S
C1002 C1000 1.388 . S
C1002 C1003 1.366 . S
C1003 C1002 1.366 . S
C1003 C1004 1.414 . S
C1003 C1006 1.499 . S
C1004 H984 0.950 . S
C1004 C1003 1.414 . S
C1004 C1005 1.374 . S
C1005 H985 0.950 . S
C1005 C1001 1.385 . S
C1005 C1004 1.374 . S
C1006 C1003 1.499 . S
C1006 C1007 1.373 . S
C1006 C1008 1.389 . S
C1007 H986 0.950 . S
C1007 C1006 1.373 . S
C1007 C1023 1.377 . S
C1008 C1006 1.389 . S
C1008 C1009 1.524 . S
C1008 C1022 1.377 . S
C1009 C1008 1.524 . S
C1009 C1010 1.397 . S
C1009 C1014 1.363 . S
C1010 H987 0.950 . S
C1010 C1009 1.397 . S
C1010 C1011 1.334 . S
C1011 H988 0.950 . S
C1011 C1010 1.334 . S
C1011 C1012 1.287 . S
C1012 C1011 1.287 . S
C1012 C1013 1.524 . S
C1012 H1031 0.913 . S
C1013 H989 0.950 1_455 S
C1013 C1012 1.524 . S
C1013 C1014 1.415 . S
C1014 H990 0.950 . S
C1014 C1009 1.363 . S
C1014 C1013 1.415 . S
C1015 H991 0.951 . S
C1015 C1016 1.366 . S
C1015 C1017 1.388 . S
C1016 C1015 1.366 . S
C1016 C1020 1.385 . S
C1017 H992 0.951 . S
C1017 C1015 1.388 . S
C1017 C1018 1.366 . S
C1018 C1017 1.366 . S
C1018 C1019 1.414 . S
C1018 C1021 1.499 . S
C1019 H993 0.950 . S
C1019 C1018 1.414 . S
C1019 C1020 1.374 . S
C1020 H994 0.950 . S
C1020 C1016 1.385 . S
C1020 C1019 1.374 . S
C1021 C1018 1.499 . S
C1021 C1022 1.373 . S
C1021 C1023 1.389 . S
C1022 H995 0.950 . S
C1022 C1008 1.377 . S
C1022 C1021 1.373 . S
C1023 C1007 1.377 . S
C1023 C1021 1.389 . S
C1023 C1024 1.524 . S
C1024 C1023 1.524 . S
C1024 C1025 1.397 . S
C1024 C1029 1.363 . S
C1025 H996 0.950 . S
C1025 C1024 1.397 . S
C1025 C1026 1.334 . S
C1026 H997 0.950 . S
C1026 C1025 1.334 . S
C1026 C1027 1.287 . S
C1027 C1026 1.287 . S
C1027 C1028 1.524 . S
C1027 H1030 0.999 . S
C1028 H998 0.950 . S
C1028 C1027 1.524 . S
C1028 C1029 1.415 . S
C1029 H999 0.950 . S
C1029 C1024 1.363 . S
C1029 C1028 1.415 . S
H1030 C1027 0.999 . S
H1031 C1012 0.913 . S
H1032 C1050 0.951 . S
H1033 C1052 0.951 . S
H1034 C1054 0.950 . S
H1035 C1055 0.950 . S
H1036 C1057 0.950 . S
H1037 C1060 0.950 . S
H1038 C1061 0.950 . S
H1039 C1063 0.950 . S
H1040 C1064 0.950 . S
H1041 C1065 0.951 . S
H1042 C1067 0.951 . S
H1043 C1069 0.950 . S
H1044 C1070 0.950 . S
H1045 C1072 0.950 . S
H1046 C1075 0.950 . S
H1047 C1076 0.950 . S
H1048 C1078 0.950 . S
H1049 C1079 0.950 . S
C1050 H1032 0.951 . S
C1050 C1051 1.366 . S
C1050 C1052 1.388 . S
C1051 C1050 1.366 . S
C1051 C1055 1.385 . S
C1052 H1033 0.951 . S
C1052 C1050 1.388 . S
C1052 C1053 1.366 . S
C1053 C1052 1.366 . S
C1053 C1054 1.414 . S
C1053 C1056 1.499 . S
C1054 H1034 0.950 . S
C1054 C1053 1.414 . S
C1054 C1055 1.374 . S
C1055 H1035 0.950 . S
C1055 C1051 1.385 . S
C1055 C1054 1.374 . S
C1056 C1053 1.499 . S
C1056 C1057 1.373 . S
C1056 C1058 1.389 . S
C1057 H1036 0.950 . S
C1057 C1056 1.373 . S
C1057 C1073 1.377 . S
C1058 C1056 1.389 . S
C1058 C1059 1.524 . S
C1058 C1072 1.377 . S
C1059 C1058 1.524 . S
C1059 C1060 1.397 . S
C1059 C1064 1.363 . S
C1060 H1037 0.950 . S
C1060 C1059 1.397 . S
C1060 C1061 1.334 . S
C1061 H1038 0.950 . S
C1061 C1060 1.334 . S
C1061 C1062 1.287 . S
C1062 C1061 1.287 . S
C1062 C1063 1.524 . S
C1062 H1081 0.913 . S
C1063 H1039 0.950 . S
C1063 C1062 1.524 . S
C1063 C1064 1.415 . S
C1064 H1040 0.950 . S
C1064 C1059 1.363 . S
C1064 C1063 1.415 . S
C1065 H1041 0.951 . S
C1065 C1066 1.366 . S
C1065 C1067 1.388 . S
C1066 C1065 1.366 . S
C1066 C1070 1.385 . S
C1067 H1042 0.951 . S
C1067 C1065 1.388 . S
C1067 C1068 1.366 . S
C1068 C1067 1.366 . S
C1068 C1069 1.414 . S
C1068 C1071 1.499 . S
C1069 H1043 0.950 . S
C1069 C1068 1.414 . S
C1069 C1070 1.374 . S
C1070 H1044 0.950 . S
C1070 C1066 1.385 . S
C1070 C1069 1.374 . S
C1071 C1068 1.499 . S
C1071 C1072 1.373 . S
C1071 C1073 1.389 . S
C1072 H1045 0.950 . S
C1072 C1058 1.377 . S
C1072 C1071 1.373 . S
C1073 C1057 1.377 . S
C1073 C1071 1.389 . S
C1073 C1074 1.524 . S
C1074 C1073 1.524 . S
C1074 C1075 1.397 . S
C1074 C1079 1.363 . S
C1075 H1046 0.950 . S
C1075 C1074 1.397 . S
C1075 C1076 1.334 . S
C1076 H1047 0.950 . S
C1076 C1075 1.334 . S
C1076 C1077 1.287 . S
C1077 C1076 1.287 . S
C1077 C1078 1.524 . S
C1077 H1080 0.999 . S
C1078 H1048 0.950 . S
C1078 C1077 1.524 . S
C1078 C1079 1.415 . S
C1079 H1049 0.950 . S
C1079 C1074 1.363 . S
C1079 C1078 1.415 . S
H1080 C1077 0.999 . S
H1081 C1062 0.913 . S
H1082 C1100 0.951 . S
H1083 C1102 0.951 . S
H1084 C1104 0.950 . S
H1085 C1105 0.950 . S
H1086 C1107 0.950 . S
H1087 C1110 0.950 . S
H1088 C1111 0.950 . S
H1089 C1113 0.950 . S
H1090 C1114 0.950 . S
H1091 C1115 0.951 . S
H1092 C1117 0.951 . S
H1093 C1119 0.950 . S
H1094 C1120 0.950 . S
H1095 C1122 0.950 . S
H1096 C1125 0.950 . S
H1097 C1126 0.950 . S
H1098 C1128 0.950 . S
H1099 C1129 0.950 . S
C1100 H1082 0.951 . S
C1100 C1101 1.366 . S
C1100 C1102 1.388 . S
C1101 C1100 1.366 . S
C1101 C1105 1.385 . S
C1102 H1083 0.951 . S
C1102 C1100 1.388 . S
C1102 C1103 1.366 . S
C1103 C1102 1.366 . S
C1103 C1104 1.414 . S
C1103 C1106 1.499 . S
C1104 H1084 0.950 . S
C1104 C1103 1.414 . S
C1104 C1105 1.374 . S
C1105 H1085 0.950 . S
C1105 C1101 1.385 . S
C1105 C1104 1.374 . S
C1106 C1103 1.499 . S
C1106 C1107 1.373 . S
C1106 C1108 1.389 . S
C1107 H1086 0.950 . S
C1107 C1106 1.373 . S
C1107 C1123 1.377 . S
C1108 C1106 1.389 . S
C1108 C1109 1.524 . S
C1108 C1122 1.377 . S
C1109 C1108 1.524 . S
C1109 C1110 1.397 . S
C1109 C1114 1.363 . S
C1110 H1087 0.950 . S
C1110 C1109 1.397 . S
C1110 C1111 1.334 . S
C1111 H1088 0.950 . S
C1111 C1110 1.334 . S
C1111 C1112 1.287 . S
C1112 C1111 1.287 . S
C1112 C1113 1.524 . S
C1112 H1131 0.913 . S
C1113 H1089 0.950 . S
C1113 C1112 1.524 . S
C1113 C1114 1.415 . S
C1114 H1090 0.950 . S
C1114 C1109 1.363 . S
C1114 C1113 1.415 . S
C1115 H1091 0.951 . S
C1115 C1116 1.366 . S
C1115 C1117 1.388 . S
C1116 C1115 1.366 . S
C1116 C1120 1.385 . S
C1117 H1092 0.951 . S
C1117 C1115 1.388 . S
C1117 C1118 1.366 . S
C1118 C1117 1.366 . S
C1118 C1119 1.414 . S
C1118 C1121 1.499 . S
C1119 H1093 0.950 . S
C1119 C1118 1.414 . S
C1119 C1120 1.374 . S
C1120 H1094 0.950 . S
C1120 C1116 1.385 . S
C1120 C1119 1.374 . S
C1121 C1118 1.499 . S
C1121 C1122 1.373 . S
C1121 C1123 1.389 . S
C1122 H1095 0.950 . S
C1122 C1108 1.377 . S
C1122 C1121 1.373 . S
C1123 C1107 1.377 . S
C1123 C1121 1.389 . S
C1123 C1124 1.524 . S
C1124 C1123 1.524 . S
C1124 C1125 1.397 . S
C1124 C1129 1.363 . S
C1125 H1096 0.950 . S
C1125 C1124 1.397 . S
C1125 C1126 1.334 . S
C1126 H1097 0.950 . S
C1126 C1125 1.334 . S
C1126 C1127 1.287 . S
C1127 C1126 1.287 . S
C1127 C1128 1.524 . S
C1127 H1130 0.999 . S
C1128 H1098 0.950 . S
C1128 C1127 1.524 . S
C1128 C1129 1.415 . S
C1129 H1099 0.950 . S
C1129 C1124 1.363 . S
C1129 C1128 1.415 . S
H1130 C1127 0.999 . S
H1131 C1112 0.913 . S
H1132 C1150 0.951 . S
H1133 C1152 0.951 . S
H1134 C1154 0.950 . S
H1135 C1155 0.950 . S
H1136 C1157 0.950 . S
H1137 C1160 0.950 . S
H1138 C1161 0.950 . S
H1139 C1163 0.961 . S
H1140 C1164 0.950 . S
H1141 C1165 0.951 . S
H1142 C1167 0.951 . S
H1143 C1169 0.950 . S
H1144 C1170 0.950 . S
H1145 C1172 0.950 . S
H1146 C1175 0.950 . S
H1147 C1176 0.950 . S
H1148 C1178 0.950 . S
H1149 C1179 0.950 . S
C1150 H1132 0.951 . S
C1150 C1151 1.366 . S
C1150 C1152 1.388 . S
C1151 C1150 1.366 . S
C1151 C1155 1.385 . S
C1152 H1133 0.951 . S
C1152 C1150 1.388 . S
C1152 C1153 1.366 . S
C1153 C1152 1.366 . S
C1153 C1154 1.414 . S
C1153 C1156 1.499 . S
C1154 H1134 0.950 . S
C1154 C1153 1.414 . S
C1154 C1155 1.374 . S
C1155 H1135 0.950 . S
C1155 C1151 1.385 . S
C1155 C1154 1.374 . S
C1156 C1153 1.499 . S
C1156 C1157 1.373 . S
C1156 C1158 1.389 . S
C1157 H1136 0.950 . S
C1157 C1156 1.373 . S
C1157 C1173 1.377 . S
C1158 C1156 1.389 . S
C1158 C1159 1.524 . S
C1158 C1172 1.377 . S
C1159 C1158 1.524 . S
C1159 C1160 1.397 . S
C1159 C1164 1.363 . S
C1160 H1137 0.950 . S
C1160 C1159 1.397 . S
C1160 C1161 1.334 . S
C1161 H1138 0.950 . S
C1161 C1160 1.334 . S
C1161 C1162 1.287 . S
C1162 C1161 1.287 . S
C1162 C1163 1.524 . S
C1162 H1181 0.913 . S
C1163 H1139 0.961 . S
C1163 C1162 1.524 . S
C1163 C1164 1.415 . S
C1164 H1140 0.950 . S
C1164 C1159 1.363 . S
C1164 C1163 1.415 . S
C1165 H1141 0.951 . S
C1165 C1166 1.366 . S
C1165 C1167 1.388 . S
C1166 C1165 1.366 . S
C1166 C1170 1.385 . S
C1167 H1142 0.951 . S
C1167 C1165 1.388 . S
C1167 C1168 1.366 . S
C1168 C1167 1.366 . S
C1168 C1169 1.414 . S
C1168 C1171 1.499 . S
C1169 H1143 0.950 . S
C1169 C1168 1.414 . S
C1169 C1170 1.374 . S
C1170 H1144 0.950 . S
C1170 C1166 1.385 . S
C1170 C1169 1.374 . S
C1171 C1168 1.499 . S
C1171 C1172 1.373 . S
C1171 C1173 1.389 . S
C1172 H1145 0.950 . S
C1172 C1158 1.377 . S
C1172 C1171 1.373 . S
C1173 C1157 1.377 . S
C1173 C1171 1.389 . S
C1173 C1174 1.524 . S
C1174 C1173 1.524 . S
C1174 C1175 1.397 . S
C1174 C1179 1.363 . S
C1175 H1146 0.950 . S
C1175 C1174 1.397 . S
C1175 C1176 1.334 . S
C1176 H1147 0.950 . S
C1176 C1175 1.334 . S
C1176 C1177 1.287 . S
C1177 C1176 1.287 . S
C1177 C1178 1.524 . S
C1177 H1180 0.999 . S
C1178 H1148 0.950 . S
C1178 C1177 1.524 . S
C1178 C1179 1.415 . S
C1179 H1149 0.950 . S
C1179 C1174 1.363 . S
C1179 C1178 1.415 . S
H1180 C1177 0.999 . S
H1181 C1162 0.913 . S
H1182 C1200 0.951 . S
H1183 C1202 0.951 . S
H1184 C1204 0.950 . S
H1185 C1205 0.950 . S
H1186 C1207 0.950 . S
H1187 C1210 0.950 . S
H1188 C1211 0.950 . S
H1189 C1213 0.950 . S
H1190 C1214 0.950 . S
H1191 C1215 0.951 . S
H1192 C1217 0.951 . S
H1193 C1219 0.950 . S
H1194 C1220 0.950 . S
H1195 C1222 0.950 . S
H1196 C1225 0.950 . S
H1197 C1226 0.950 . S
H1198 C1228 0.950 . S
H1199 C1229 0.950 . S
C1200 H1182 0.951 . S
C1200 C1201 1.366 . S
C1200 C1202 1.388 . S
C1201 C1200 1.366 . S
C1201 C1205 1.385 . S
C1202 H1183 0.951 . S
C1202 C1200 1.388 . S
C1202 C1203 1.366 . S
C1203 C1202 1.366 . S
C1203 C1204 1.414 . S
C1203 C1206 1.499 . S
C1204 H1184 0.950 . S
C1204 C1203 1.414 . S
C1204 C1205 1.374 . S
C1205 H1185 0.950 . S
C1205 C1201 1.385 . S
C1205 C1204 1.374 . S
C1206 C1203 1.499 . S
C1206 C1207 1.373 . S
C1206 C1208 1.389 . S
C1207 H1186 0.950 . S
C1207 C1206 1.373 . S
C1207 C1223 1.377 . S
C1208 C1206 1.389 . S
C1208 C1209 1.524 . S
C1208 C1222 1.377 . S
C1209 C1208 1.524 . S
C1209 C1210 1.397 . S
C1209 C1214 1.363 . S
C1210 H1187 0.950 . S
C1210 C1209 1.397 . S
C1210 C1211 1.334 . S
C1211 H1188 0.950 . S
C1211 C1210 1.334 . S
C1211 C1212 1.287 . S
C1212 C1211 1.287 . S
C1212 C1213 1.524 . S
C1212 H1231 0.913 . S
C1213 H1189 0.950 . S
C1213 C1212 1.524 . S
C1213 C1214 1.415 . S
C1214 H1190 0.950 . S
C1214 C1209 1.363 . S
C1214 C1213 1.415 . S
C1215 H1191 0.951 . S
C1215 C1216 1.366 . S
C1215 C1217 1.388 . S
C1216 C1215 1.366 . S
C1216 C1220 1.385 . S
C1217 H1192 0.951 . S
C1217 C1215 1.388 . S
C1217 C1218 1.366 . S
C1218 C1217 1.366 . S
C1218 C1219 1.414 . S
C1218 C1221 1.499 . S
C1219 H1193 0.950 . S
C1219 C1218 1.414 . S
C1219 C1220 1.374 . S
C1220 H1194 0.950 . S
C1220 C1216 1.385 . S
C1220 C1219 1.374 . S
C1221 C1218 1.499 . S
C1221 C1222 1.373 . S
C1221 C1223 1.389 . S
C1222 H1195 0.950 . S
C1222 C1208 1.377 . S
C1222 C1221 1.373 . S
C1223 C1207 1.377 . S
C1223 C1221 1.389 . S
C1223 C1224 1.524 . S
C1224 C1223 1.524 . S
C1224 C1225 1.397 . S
C1224 C1229 1.363 . S
C1225 H1196 0.950 . S
C1225 C1224 1.397 . S
C1225 C1226 1.334 . S
C1226 H1197 0.950 . S
C1226 C1225 1.334 . S
C1226 C1227 1.287 . S
C1227 C1226 1.287 . S
C1227 C1228 1.524 . S
C1227 H1230 0.999 . S
C1228 H1198 0.950 . S
C1228 C1227 1.524 . S
C1228 C1229 1.415 . S
C1229 H1199 0.950 . S
C1229 C1224 1.363 . S
C1229 C1228 1.415 . S
H1230 C1227 0.999 . S
H1231 C1212 0.913 . S
H1232 C1250 0.951 . S
H1233 C1252 0.951 . S
H1234 C1254 0.950 . S
H1235 C1255 0.950 . S
H1236 C1257 0.950 . S
H1237 C1260 0.950 . S
H1238 C1261 0.950 . S
H1239 C1263 0.950 . S
H1240 C1264 0.950 . S
H1241 C1265 0.951 . S
H1242 C1267 0.951 . S
H1243 C1269 0.950 . S
H1244 C1270 0.950 . S
H1245 C1272 0.950 . S
H1246 C1275 0.950 . S
H1247 C1276 0.950 . S
H1248 C1278 0.950 . S
H1249 C1279 0.950 . S
C1250 H1232 0.951 . S
C1250 C1251 1.366 . S
C1250 C1252 1.388 . S
C1251 C1250 1.366 . S
C1251 C1255 1.385 . S
C1252 H1233 0.951 . S
C1252 C1250 1.388 . S
C1252 C1253 1.366 . S
C1253 C1252 1.366 . S
C1253 C1254 1.414 . S
C1253 C1256 1.499 . S
C1254 H1234 0.950 . S
C1254 C1253 1.414 . S
C1254 C1255 1.374 . S
C1255 H1235 0.950 . S
C1255 C1251 1.385 . S
C1255 C1254 1.374 . S
C1256 C1253 1.499 . S
C1256 C1257 1.373 . S
C1256 C1258 1.389 . S
C1257 H1236 0.950 . S
C1257 C1256 1.373 . S
C1257 C1273 1.377 . S
C1258 C1256 1.389 . S
C1258 C1259 1.524 . S
C1258 C1272 1.377 . S
C1259 C1258 1.524 . S
C1259 C1260 1.397 . S
C1259 C1264 1.363 . S
C1260 H1237 0.950 . S
C1260 C1259 1.397 . S
C1260 C1261 1.334 . S
C1261 H1238 0.950 . S
C1261 C1260 1.334 . S
C1261 C1262 1.287 . S
C1262 C1261 1.287 . S
C1262 C1263 1.524 . S
C1262 H1281 0.913 . S
C1263 H1239 0.950 . S
C1263 C1262 1.524 . S
C1263 C1264 1.415 . S
C1264 H1240 0.950 . S
C1264 C1259 1.363 . S
C1264 C1263 1.415 . S
C1265 H1241 0.951 . S
C1265 C1266 1.366 . S
C1265 C1267 1.388 . S
C1266 C1265 1.366 . S
C1266 C1270 1.385 . S
C1267 H1242 0.951 . S
C1267 C1265 1.388 . S
C1267 C1268 1.366 . S
C1268 C1267 1.366 . S
C1268 C1269 1.414 . S
C1268 C1271 1.499 . S
C1269 H1243 0.950 . S
C1269 C1268 1.414 . S
C1269 C1270 1.374 . S
C1270 H1244 0.950 . S
C1270 C1266 1.385 . S
C1270 C1269 1.374 . S
C1271 C1268 1.499 . S
C1271 C1272 1.373 . S
C1271 C1273 1.389 . S
C1272 H1245 0.950 . S
C1272 C1258 1.377 . S
C1272 C1271 1.373 . S
C1273 C1257 1.377 . S
C1273 C1271 1.389 . S
C1273 C1274 1.524 . S
C1274 C1273 1.524 . S
C1274 C1275 1.397 . S
C1274 C1279 1.363 . S
C1275 H1246 0.950 . S
C1275 C1274 1.397 . S
C1275 C1276 1.334 . S
C1276 H1247 0.950 . S
C1276 C1275 1.334 . S
C1276 C1277 1.287 . S
C1277 C1276 1.287 . S
C1277 C1278 1.524 . S
C1277 H1280 0.999 . S
C1278 H1248 0.950 . S
C1278 C1277 1.524 . S
C1278 C1279 1.415 . S
C1279 H1249 0.950 . S
C1279 C1274 1.363 . S
C1279 C1278 1.415 . S
H1280 C1277 0.999 . S
H1281 C1262 0.913 . S
H1282 C1300 0.951 . S
H1283 C1302 0.951 . S
H1284 C1304 0.950 . S
H1285 C1305 0.950 . S
H1286 C1307 0.950 . S
H1287 C1310 0.950 . S
H1288 C1311 0.950 . S
H1289 C1313 0.950 . S
H1290 C1314 0.950 . S
H1291 C1315 0.951 . S
H1292 C1317 0.951 . S
H1293 C1319 0.950 . S
H1294 C1320 0.950 . S
H1295 C1322 0.950 . S
H1296 C1325 0.950 . S
H1297 C1326 0.950 . S
H1298 C1328 0.950 . S
H1299 C1329 0.950 . S
C1300 H1282 0.951 . S
C1300 C1301 1.366 . S
C1300 C1302 1.388 . S
C1301 C1300 1.366 . S
C1301 C1305 1.385 . S
C1302 H1283 0.951 . S
C1302 C1300 1.388 . S
C1302 C1303 1.366 . S
C1303 C1302 1.366 . S
C1303 C1304 1.414 . S
C1303 C1306 1.499 . S
C1304 H1284 0.950 . S
C1304 C1303 1.414 . S
C1304 C1305 1.374 . S
C1305 H1285 0.950 . S
C1305 C1301 1.385 . S
C1305 C1304 1.374 . S
C1306 C1303 1.499 . S
C1306 C1307 1.373 . S
C1306 C1308 1.389 . S
C1307 H1286 0.950 . S
C1307 C1306 1.373 . S
C1307 C1323 1.377 . S
C1308 C1306 1.389 . S
C1308 C1309 1.524 . S
C1308 C1322 1.377 . S
C1309 C1308 1.524 . S
C1309 C1310 1.397 . S
C1309 C1314 1.363 . S
C1310 H1287 0.950 . S
C1310 C1309 1.397 . S
C1310 C1311 1.334 . S
C1311 H1288 0.950 . S
C1311 C1310 1.334 . S
C1311 C1312 1.287 . S
C1312 C1311 1.287 . S
C1312 C1313 1.524 . S
C1312 H1331 0.913 . S
C1313 H1289 0.950 . S
C1313 C1312 1.524 . S
C1313 C1314 1.415 . S
C1314 H1290 0.950 . S
C1314 C1309 1.363 . S
C1314 C1313 1.415 . S
C1315 H1291 0.951 . S
C1315 C1316 1.366 . S
C1315 C1317 1.388 . S
C1316 C1315 1.366 . S
C1316 C1320 1.385 . S
C1317 H1292 0.951 . S
C1317 C1315 1.388 . S
C1317 C1318 1.366 . S
C1318 C1317 1.366 . S
C1318 C1319 1.414 . S
C1318 C1321 1.499 . S
C1319 H1293 0.950 . S
C1319 C1318 1.414 . S
C1319 C1320 1.374 . S
C1320 H1294 0.950 . S
C1320 C1316 1.385 . S
C1320 C1319 1.374 . S
C1321 C1318 1.499 . S
C1321 C1322 1.373 . S
C1321 C1323 1.389 . S
C1322 H1295 0.950 . S
C1322 C1308 1.377 . S
C1322 C1321 1.373 . S
C1323 C1307 1.377 . S
C1323 C1321 1.389 . S
C1323 C1324 1.524 . S
C1324 C1323 1.524 . S
C1324 C1325 1.397 . S
C1324 C1329 1.363 . S
C1325 H1296 0.950 . S
C1325 C1324 1.397 . S
C1325 C1326 1.334 . S
C1326 H1297 0.950 . S
C1326 C1325 1.334 . S
C1326 C1327 1.287 . S
C1327 C1326 1.287 . S
C1327 C1328 1.524 . S
C1327 H1330 0.999 . S
C1328 H1298 0.950 . S
C1328 C1327 1.524 . S
C1328 C1329 1.415 . S
C1329 H1299 0.950 . S
C1329 C1324 1.363 . S
C1329 C1328 1.415 . S
H1330 C1327 0.999 . S
H1331 C1312 0.913 . S
H1332 C1350 0.951 . S
H1333 C1352 0.951 . S
H1334 C1354 0.950 . S
H1335 C1355 0.950 . S
H1336 C1357 0.950 . S
H1337 C1360 0.950 . S
H1338 C1361 0.950 . S
H1339 C1363 0.950 1_655 S
H1340 C1364 0.950 . S
H1341 C1365 0.951 . S
H1342 C1367 0.951 . S
H1343 C1369 0.950 . S
H1344 C1370 0.950 . S
H1345 C1372 0.950 . S
H1346 C1375 0.950 . S
H1347 C1376 0.950 . S
H1348 C1378 0.950 . S
H1349 C1379 0.950 . S
C1350 H1332 0.951 . S
C1350 C1351 1.366 . S
C1350 C1352 1.388 . S
C1351 C1350 1.366 . S
C1351 C1355 1.385 . S
C1352 H1333 0.951 . S
C1352 C1350 1.388 . S
C1352 C1353 1.366 . S
C1353 C1352 1.366 . S
C1353 C1354 1.414 . S
C1353 C1356 1.499 . S
C1354 H1334 0.950 . S
C1354 C1353 1.414 . S
C1354 C1355 1.374 . S
C1355 H1335 0.950 . S
C1355 C1351 1.385 . S
C1355 C1354 1.374 . S
C1356 C1353 1.499 . S
C1356 C1357 1.373 . S
C1356 C1358 1.389 . S
C1357 H1336 0.950 . S
C1357 C1356 1.373 . S
C1357 C1373 1.377 . S
C1358 C1356 1.389 . S
C1358 C1359 1.524 . S
C1358 C1372 1.377 . S
C1359 C1358 1.524 . S
C1359 C1360 1.397 . S
C1359 C1364 1.363 . S
C1360 H1337 0.950 . S
C1360 C1359 1.397 . S
C1360 C1361 1.334 . S
C1361 H1338 0.950 . S
C1361 C1360 1.334 . S
C1361 C1362 1.287 . S
C1362 C1361 1.287 . S
C1362 C1363 1.524 . S
C1362 H1381 0.913 . S
C1363 H1339 0.950 1_455 S
C1363 C1362 1.524 . S
C1363 C1364 1.415 . S
C1364 H1340 0.950 . S
C1364 C1359 1.363 . S
C1364 C1363 1.415 . S
C1365 H1341 0.951 . S
C1365 C1366 1.366 . S
C1365 C1367 1.388 . S
C1366 C1365 1.366 . S
C1366 C1370 1.385 . S
C1367 H1342 0.951 . S
C1367 C1365 1.388 . S
C1367 C1368 1.366 . S
C1368 C1367 1.366 . S
C1368 C1369 1.414 . S
C1368 C1371 1.499 . S
C1369 H1343 0.950 . S
C1369 C1368 1.414 . S
C1369 C1370 1.374 . S
C1370 H1344 0.950 . S
C1370 C1366 1.385 . S
C1370 C1369 1.374 . S
C1371 C1368 1.499 . S
C1371 C1372 1.373 . S
C1371 C1373 1.389 . S
C1372 H1345 0.950 . S
C1372 C1358 1.377 . S
C1372 C1371 1.373 . S
C1373 C1357 1.377 . S
C1373 C1371 1.389 . S
C1373 C1374 1.524 . S
C1374 C1373 1.524 . S
C1374 C1375 1.397 . S
C1374 C1379 1.363 . S
C1375 H1346 0.950 . S
C1375 C1374 1.397 . S
C1375 C1376 1.334 . S
C1376 H1347 0.950 . S
C1376 C1375 1.334 . S
C1376 C1377 1.287 . S
C1377 C1376 1.287 . S
C1377 C1378 1.524 . S
C1377 H1380 0.999 . S
C1378 H1348 0.950 . S
C1378 C1377 1.524 . S
C1378 C1379 1.415 . S
C1379 H1349 0.950 . S
C1379 C1374 1.363 . S
C1379 C1378 1.415 . S
H1380 C1377 0.999 . S
H1381 C1362 0.913 . S
H1382 C1400 0.951 . S
H1383 C1402 0.951 . S
H1384 C1404 0.950 . S
H1385 C1405 0.950 . S
H1386 C1407 0.950 . S
H1387 C1410 0.950 . S
H1388 C1411 0.950 . S
H1389 C1413 0.950 . S
H1390 C1414 0.950 . S
H1391 C1415 0.951 . S
H1392 C1417 0.951 . S
H1393 C1419 0.950 . S
H1394 C1420 0.950 . S
H1395 C1422 0.950 . S
H1396 C1425 0.950 . S
H1397 C1426 0.950 . S
H1398 C1428 0.950 . S
H1399 C1429 0.950 . S
C1400 H1382 0.951 . S
C1400 C1401 1.366 . S
C1400 C1402 1.388 . S
C1401 C1400 1.366 . S
C1401 C1405 1.385 . S
C1402 H1383 0.951 . S
C1402 C1400 1.388 . S
C1402 C1403 1.366 . S
C1403 C1402 1.366 . S
C1403 C1404 1.414 . S
C1403 C1406 1.499 . S
C1404 H1384 0.950 . S
C1404 C1403 1.414 . S
C1404 C1405 1.374 . S
C1405 H1385 0.950 . S
C1405 C1401 1.385 . S
C1405 C1404 1.374 . S
C1406 C1403 1.499 . S
C1406 C1407 1.373 . S
C1406 C1408 1.389 . S
C1407 H1386 0.950 . S
C1407 C1406 1.373 . S
C1407 C1423 1.377 . S
C1408 C1406 1.389 . S
C1408 C1409 1.524 . S
C1408 C1422 1.377 . S
C1409 C1408 1.524 . S
C1409 C1410 1.397 . S
C1409 C1414 1.363 . S
C1410 H1387 0.950 . S
C1410 C1409 1.397 . S
C1410 C1411 1.334 . S
C1411 H1388 0.950 . S
C1411 C1410 1.334 . S
C1411 C1412 1.287 . S
C1412 C1411 1.287 . S
C1412 C1413 1.524 . S
C1412 H1431 0.913 . S
C1413 H1389 0.950 . S
C1413 C1412 1.524 . S
C1413 C1414 1.415 . S
C1414 H1390 0.950 . S
C1414 C1409 1.363 . S
C1414 C1413 1.415 . S
C1415 H1391 0.951 . S
C1415 C1416 1.366 . S
C1415 C1417 1.388 . S
C1416 C1415 1.366 . S
C1416 C1420 1.385 . S
C1417 H1392 0.951 . S
C1417 C1415 1.388 . S
C1417 C1418 1.366 . S
C1418 C1417 1.366 . S
C1418 C1419 1.414 . S
C1418 C1421 1.499 . S
C1419 H1393 0.950 . S
C1419 C1418 1.414 . S
C1419 C1420 1.374 . S
C1420 H1394 0.950 . S
C1420 C1416 1.385 . S
C1420 C1419 1.374 . S
C1421 C1418 1.499 . S
C1421 C1422 1.373 . S
C1421 C1423 1.389 . S
C1422 H1395 0.950 . S
C1422 C1408 1.377 . S
C1422 C1421 1.373 . S
C1423 C1407 1.377 . S
C1423 C1421 1.389 . S
C1423 C1424 1.524 . S
C1424 C1423 1.524 . S
C1424 C1425 1.397 . S
C1424 C1429 1.363 . S
C1425 H1396 0.950 . S
C1425 C1424 1.397 . S
C1425 C1426 1.334 . S
C1426 H1397 0.950 . S
C1426 C1425 1.334 . S
C1426 C1427 1.287 . S
C1427 C1426 1.287 . S
C1427 C1428 1.524 . S
C1427 H1430 0.999 . S
C1428 H1398 0.950 . S
C1428 C1427 1.524 . S
C1428 C1429 1.415 . S
C1429 H1399 0.950 . S
C1429 C1424 1.363 . S
C1429 C1428 1.415 . S
H1430 C1427 0.999 . S
H1431 C1412 0.913 . S
C251 C5 1.039 . S
C266 C79 1.052 . S
C301 C14 0.917 . S
C316 C128 0.917 . S
C366 C154 2.436 . S
C351 C25 2.464 . S
C401 C34 2.365 . S
C416 C202 2.311 . S
C466 C114 2.126 . S
C451 C7 2.070 . S
C516 C82 0.844 . S
C501 C13 0.856 . S
C566 C203 1.879 . S
C551 C23 1.906 . S
C616 C171 1.554 . S
C601 C31 1.584 . S
C651 C4 1.496 . S
C666 C199 1.522 . S
C716 C131 2.309 . S
C701 C22 2.374 . S
C751 C32 2.338 . S
C766 C83 2.332 . S
C801 C16 0.745 . S
C816 C168 0.745 . S
C866 C88 1.037 . S
C851 C41 1.023 . S
C901 C50 0.928 . S
C916 C119 0.926 . S
C951 C61 2.457 . S
C966 C163 2.429 . S
C1001 C67 2.377 . S
C1016 C211 2.322 . S
C1051 C40 2.094 . S
C1066 C123 2.148 . S
C1116 C91 0.814 . S
C1101 C52 0.823 . S
C1166 C194 1.889 . S
C1151 C59 1.918 . S
C1216 C162 1.551 . S
C1201 C70 1.579 . S
C1251 C43 1.491 . S
C1266 C208 1.519 . S
C1316 C122 2.322 . S
C1301 C58 2.388 . S
C1366 C74 2.308 . S
C1351 C68 2.315 . S
C1401 C49 0.751 . S
C1416 C159 0.750 . S
