# Generated by pormake.
# Topology ssa, (4,4)-cn, num edge types: 1
# Building blocks:
#     Node 0, Type 0, BuildingBlock: NAWXER_clean_sbu_0, # of connection points: 4
#     Node 1, Type 0, BuildingBlock: NAWXER_clean_sbu_0, # of connection points: 4
#     Node 2, Type 0, BuildingBlock: NAWXER_clean_sbu_0, # of connection points: 4
#     Node 3, Type 0, BuildingBlock: NAWXER_clean_sbu_0, # of connection points: 4
#     Node 4, Type 0, BuildingBlock: NAWXER_clean_sbu_0, # of connection points: 4
#     Node 5, Type 0, BuildingBlock: NAWXER_clean_sbu_0, # of connection points: 4
#     Node 6, Type 1, BuildingBlock: MIFKUJ_clean_linker_1, # of connection points: 4
#     Node 7, Type 1, BuildingBlock: MIFKUJ_clean_linker_1, # of connection points: 4
#     Node 8, Type 1, BuildingBlock: MIFKUJ_clean_linker_1, # of connection points: 4
#     Node 9, Type 1, BuildingBlock: MIFKUJ_clean_linker_1, # of connection points: 4
#     Node 10, Type 1, BuildingBlock: MIFKUJ_clean_linker_1, # of connection points: 4
#     Node 11, Type 1, BuildingBlock: MIFKUJ_clean_linker_1, # of connection points: 4
#     Edge 12, Type (0, 1), BuildingBlock: EZIPEK_clean_linker_0, # of connection points: 2
#     Edge 13, Type (0, 1), BuildingBlock: EZIPEK_clean_linker_0, # of connection points: 2
#     Edge 14, Type (0, 1), BuildingBlock: EZIPEK_clean_linker_0, # of connection points: 2
#     Edge 15, Type (0, 1), BuildingBlock: EZIPEK_clean_linker_0, # of connection points: 2
#     Edge 16, Type (0, 1), BuildingBlock: EZIPEK_clean_linker_0, # of connection points: 2
#     Edge 17, Type (0, 1), BuildingBlock: EZIPEK_clean_linker_0, # of connection points: 2
#     Edge 18, Type (0, 1), BuildingBlock: EZIPEK_clean_linker_0, # of connection points: 2
#     Edge 19, Type (0, 1), BuildingBlock: EZIPEK_clean_linker_0, # of connection points: 2
#     Edge 20, Type (0, 1), BuildingBlock: EZIPEK_clean_linker_0, # of connection points: 2
#     Edge 21, Type (0, 1), BuildingBlock: EZIPEK_clean_linker_0, # of connection points: 2
#     Edge 22, Type (0, 1), BuildingBlock: EZIPEK_clean_linker_0, # of connection points: 2
#     Edge 23, Type (0, 1), BuildingBlock: EZIPEK_clean_linker_0, # of connection points: 2
#     Edge 24, Type (0, 1), BuildingBlock: EZIPEK_clean_linker_0, # of connection points: 2
#     Edge 25, Type (0, 1), BuildingBlock: EZIPEK_clean_linker_0, # of connection points: 2
#     Edge 26, Type (0, 1), BuildingBlock: EZIPEK_clean_linker_0, # of connection points: 2
#     Edge 27, Type (0, 1), BuildingBlock: EZIPEK_clean_linker_0, # of connection points: 2
#     Edge 28, Type (0, 1), BuildingBlock: EZIPEK_clean_linker_0, # of connection points: 2
#     Edge 29, Type (0, 1), BuildingBlock: EZIPEK_clean_linker_0, # of connection points: 2
#     Edge 30, Type (0, 1), BuildingBlock: EZIPEK_clean_linker_0, # of connection points: 2
#     Edge 31, Type (0, 1), BuildingBlock: EZIPEK_clean_linker_0, # of connection points: 2
#     Edge 32, Type (0, 1), BuildingBlock: EZIPEK_clean_linker_0, # of connection points: 2
#     Edge 33, Type (0, 1), BuildingBlock: EZIPEK_clean_linker_0, # of connection points: 2
#     Edge 34, Type (0, 1), BuildingBlock: EZIPEK_clean_linker_0, # of connection points: 2
#     Edge 35, Type (0, 1), BuildingBlock: EZIPEK_clean_linker_0, # of connection points: 2
# Relax obj value: 0.011
# Max RMSD: 0.026
# Mean RMSD: 0.026
data_MOF--net-ssa--node1-NAWXER_clean_sbu_0--node2-MIFKUJ_clean_linker_1--edge1-EZIPEK_clean_linker_0
_symmetry_space_group_name_H-M    P1
_symmetry_Int_Tables_number       1
_symmetry_cell_setting            triclinic
loop_
_symmetry_equiv_pos_as_xyz
'x, y, z'
_cell_length_a     45.813917
_cell_length_b     45.884784
_cell_length_c     29.00113
_cell_angle_alpha  90.266835
_cell_angle_beta   89.941104
_cell_angle_gamma 119.91632
loop_
_atom_site_label
_atom_site_type_symbol
_atom_site_fract_x
_atom_site_fract_y
_atom_site_fract_z
_atom_type_partial_charge
C0 C 0.05025 0.55912 0.02848 0.0
C1 C 0.00364 0.45457 0.93718 0.0
O2 O 0.0218 0.53576 0.0429 0.0
Zn3 Zn 0.98759 0.48424 0.02859 0.0
O4 O 0.06247 0.55414 0.9918 0.0
Zn5 Zn 0.02753 0.50788 0.97892 0.0
O6 O 0.98281 0.50974 0.96297 0.0
O7 O 0.94539 0.48362 0.01811 0.0
O8 O 0.02993 0.48215 0.92687 0.0
O9 O 0.98676 0.45276 0.97338 0.0
O10 O 0.99531 0.46323 0.0826 0.0
O11 O 0.03741 0.48358 0.03327 0.0
C12 C 0.9534 0.49936 0.97997 0.0
C13 C 0.02434 0.46839 0.07098 0.0
C14 C 0.49815 0.06778 0.51463 0.0
C15 C 0.54942 0.00957 0.4353 0.0
O16 O 0.49562 0.04251 0.53674 0.0
Zn17 Zn 0.50856 0.00414 0.52767 0.0
O18 O 0.51134 0.07455 0.47464 0.0
Zn19 Zn 0.52385 0.03986 0.47203 0.0
O20 O 0.47704 0.99459 0.46107 0.0
O21 O 0.46513 0.9625 0.52277 0.0
O22 O 0.55099 0.03671 0.42181 0.0
O23 O 0.53457 0.99634 0.47319 0.0
O24 O 0.54074 0.01317 0.57763 0.0
O25 O 0.55864 0.0545 0.52765 0.0
C26 C 0.45759 0.96723 0.48228 0.0
C27 C 0.56324 0.04239 0.56478 0.0
C28 C 0.46614 0.45862 0.94976 0.0
C29 C 0.50799 0.56715 0.0299 0.0
O30 O 0.46572 0.48407 0.93309 0.0
Zn31 Zn 0.48859 0.51486 0.98524 0.0
O32 O 0.47985 0.46171 0.98904 0.0
Zn33 Zn 0.50786 0.4976 0.04029 0.0
O34 O 0.47952 0.4735 0.09264 0.0
O35 O 0.4546 0.48947 0.04136 0.0
O36 O 0.51446 0.54651 0.05089 0.0
O37 O 0.49418 0.5597 0.99026 0.0
O38 O 0.53772 0.52358 0.97258 0.0
O39 O 0.55294 0.503 0.03009 0.0
C40 C 0.4537 0.47492 0.07945 0.0
C41 C 0.55913 0.51688 0.99063 0.0
C42 C 0.05498 0.55977 0.47346 0.0
C43 C 0.99496 0.46174 0.57254 0.0
O44 O 0.06297 0.55605 0.51405 0.0
Zn45 Zn 0.02512 0.51146 0.5253 0.0
O46 O 0.02756 0.5369 0.45528 0.0
Zn47 Zn 0.9866 0.48899 0.47391 0.0
O48 O 0.94801 0.49569 0.47708 0.0
O49 O 0.98294 0.51892 0.53575 0.0
O50 O 0.97959 0.45978 0.53474 0.0
O51 O 0.02319 0.48769 0.58155 0.0
O52 O 0.03202 0.48105 0.47494 0.0
O53 O 0.98886 0.46019 0.42658 0.0
C54 C 0.95517 0.51124 0.51547 0.0
C55 C 0.01676 0.46315 0.43947 0.0
C56 C 0.54006 0.00363 0.06453 0.0
C57 C 0.49343 0.06056 0.97163 0.0
O58 O 0.54111 0.03107 0.07569 0.0
Zn59 Zn 0.51679 0.03358 0.0214 0.0
O60 O 0.52713 0.98973 0.0259 0.0
Zn61 Zn 0.50413 0.99672 0.96698 0.0
O62 O 0.53856 0.00514 0.92078 0.0
O63 O 0.55441 0.0469 0.97049 0.0
O64 O 0.49199 0.03483 0.95197 0.0
O65 O 0.50473 0.06843 0.01262 0.0
O66 O 0.46974 0.9885 0.02968 0.0
O67 O 0.46056 0.95515 0.96957 0.0
C68 C 0.56057 0.03429 0.93498 0.0
C69 C 0.45131 0.96068 0.00851 0.0
C70 C 0.5638 0.52314 0.51776 0.0
C71 C 0.45748 0.47496 0.43423 0.0
O72 O 0.54224 0.52902 0.53757 0.0
Zn73 Zn 0.49245 0.52039 0.52419 0.0
O74 O 0.55743 0.50929 0.47818 0.0
Zn75 Zn 0.51183 0.50111 0.47255 0.0
O76 O 0.51765 0.549 0.45656 0.0
O77 O 0.49777 0.56484 0.51494 0.0
O78 O 0.48346 0.47348 0.42244 0.0
O79 O 0.45801 0.49125 0.47051 0.0
O80 O 0.46848 0.49347 0.57783 0.0
O81 O 0.48775 0.46896 0.53046 0.0
C82 C 0.51125 0.57054 0.47524 0.0
C83 C 0.47219 0.46851 0.56744 0.0
H84 H 0.13942 0.37782 0.17483 0.0
H85 H 0.09764 0.38834 0.13622 0.0
H86 H 0.13055 0.47782 0.21883 0.0
H87 H 0.17287 0.46818 0.2557 0.0
H88 H 0.2114 0.41953 0.18117 0.0
H89 H 0.11541 0.36797 0.28668 0.0
H90 H 0.06953 0.37381 0.32135 0.0
H91 H 0.14256 0.46442 0.39067 0.0
H92 H 0.18841 0.45855 0.35644 0.0
H93 H 0.27473 0.46121 0.35538 0.0
H94 H 0.32795 0.47101 0.38947 0.0
H95 H 0.31984 0.38607 0.31409 0.0
H96 H 0.26558 0.37489 0.28219 0.0
H97 H 0.2095 0.41141 0.3521 0.0
H98 H 0.29687 0.47513 0.23547 0.0
H99 H 0.34865 0.48459 0.19709 0.0
H100 H 0.29819 0.38093 0.15252 0.0
H101 H 0.24589 0.37192 0.18938 0.0
C102 C 0.15894 0.42199 0.21849 0.0
C103 C 0.13763 0.39971 0.18443 0.0
C104 C 0.11362 0.40548 0.16287 0.0
C105 C 0.11061 0.43352 0.17532 0.0
C106 C 0.13214 0.45581 0.20914 0.0
C107 C 0.15627 0.4503 0.23015 0.0
C108 C 0.18363 0.41572 0.24313 0.0
C109 C 0.21041 0.41662 0.21834 0.0
C110 C 0.18289 0.41301 0.2918 0.0
C111 C 0.15532 0.41286 0.31897 0.0
C112 C 0.12152 0.38868 0.31014 0.0
C113 C 0.09541 0.39204 0.32967 0.0
C114 C 0.10282 0.41974 0.35802 0.0
C115 C 0.13648 0.443 0.36863 0.0
C116 C 0.16257 0.43948 0.34948 0.0
C117 C 0.26646 0.41765 0.31564 0.0
C118 C 0.2839 0.44414 0.34711 0.0
C119 C 0.3143 0.44989 0.36626 0.0
C120 C 0.32781 0.42945 0.35377 0.0
C121 C 0.30981 0.40218 0.32378 0.0
C122 C 0.27903 0.39597 0.30548 0.0
C123 C 0.2371 0.41486 0.29011 0.0
C124 C 0.20968 0.4127 0.31475 0.0
C125 C 0.23741 0.41681 0.24138 0.0
C126 C 0.26755 0.42295 0.21472 0.0
C127 C 0.29681 0.45463 0.21669 0.0
C128 C 0.32636 0.45992 0.19518 0.0
C129 C 0.32728 0.43348 0.17188 0.0
C130 C 0.29796 0.40171 0.17006 0.0
C131 C 0.26815 0.39663 0.19071 0.0
H132 H 0.74403 0.20536 0.85092 0.0
H133 H 0.69047 0.16307 0.88495 0.0
H134 H 0.69383 0.08543 0.80481 0.0
H135 H 0.74806 0.12754 0.77172 0.0
H136 H 0.80924 0.21642 0.84506 0.0
H137 H 0.71659 0.19488 0.73992 0.0
H138 H 0.66453 0.1542 0.70031 0.0
H139 H 0.71815 0.11104 0.63271 0.0
H140 H 0.7704 0.15208 0.67194 0.0
H141 H 0.86969 0.25742 0.65966 0.0
H142 H 0.91147 0.3102 0.62288 0.0
H143 H 0.89405 0.36675 0.72783 0.0
H144 H 0.85045 0.31458 0.76164 0.0
H145 H 0.80302 0.22979 0.676 0.0
H146 H 0.9014 0.26476 0.77415 0.0
H147 H 0.95043 0.31418 0.8081 0.0
H148 H 0.88394 0.33458 0.88983 0.0
H149 H 0.83503 0.28494 0.85678 0.0
C150 C 0.74995 0.16961 0.8087 0.0
C151 C 0.73367 0.17917 0.84139 0.0
C152 C 0.703 0.1552 0.86031 0.0
C153 C 0.68818 0.12141 0.84667 0.0
C154 C 0.70485 0.11153 0.81518 0.0
C155 C 0.73574 0.13547 0.7966 0.0
C156 C 0.77942 0.19588 0.78342 0.0
C157 C 0.80812 0.21913 0.80807 0.0
C158 C 0.77799 0.19936 0.73516 0.0
C159 C 0.74731 0.17656 0.70853 0.0
C160 C 0.71718 0.17684 0.71626 0.0
C161 C 0.6875 0.15352 0.69406 0.0
C162 C 0.68751 0.12953 0.66387 0.0
C163 C 0.71768 0.1293 0.65604 0.0
C164 C 0.74745 0.15285 0.67796 0.0
C165 C 0.85758 0.28201 0.71418 0.0
C166 C 0.8747 0.28121 0.67443 0.0
C167 C 0.89871 0.31124 0.65379 0.0
C168 C 0.90632 0.34241 0.67315 0.0
C169 C 0.88896 0.34304 0.71266 0.0
C170 C 0.86424 0.31322 0.73216 0.0
C171 C 0.83287 0.25054 0.73759 0.0
C172 C 0.80491 0.22637 0.71264 0.0
C173 C 0.83509 0.24623 0.7856 0.0
C174 C 0.86454 0.27125 0.81283 0.0
C175 C 0.89742 0.27936 0.80029 0.0
C176 C 0.92533 0.3076 0.81933 0.0
C177 C 0.92065 0.32832 0.85063 0.0
C178 C 0.88795 0.31906 0.86526 0.0
C179 C 0.8601 0.29057 0.84682 0.0
H180 H 0.61976 0.8755 0.32254 0.0
H181 H 0.62298 0.92607 0.35751 0.0
H182 H 0.51793 0.8876 0.32623 0.0
H183 H 0.51512 0.83787 0.28991 0.0
H184 H 0.56551 0.79768 0.33704 0.0
H185 H 0.61305 0.89107 0.23066 0.0
H186 H 0.61059 0.93914 0.19851 0.0
H187 H 0.51536 0.87135 0.13445 0.0
H188 H 0.51642 0.82328 0.1696 0.0
H189 H 0.50204 0.73263 0.16945 0.0
H190 H 0.49083 0.68473 0.1196 0.0
H191 H 0.58111 0.68822 0.16955 0.0
H192 H 0.59263 0.73644 0.21921 0.0
H193 H 0.55602 0.79587 0.16639 0.0
H194 H 0.49802 0.71851 0.30303 0.0
H195 H 0.48665 0.67121 0.35367 0.0
H196 H 0.59287 0.70454 0.35817 0.0
H197 H 0.60429 0.75262 0.30875 0.0
C198 C 0.56714 0.85298 0.30413 0.0
C199 C 0.59737 0.87781 0.32393 0.0
C200 C 0.59929 0.9067 0.34329 0.0
C201 C 0.57069 0.9105 0.34431 0.0
C202 C 0.54026 0.88514 0.32564 0.0
C203 C 0.53854 0.85667 0.30549 0.0
C204 C 0.56619 0.82525 0.27685 0.0
C205 C 0.56433 0.79754 0.29967 0.0
C206 C 0.56359 0.82487 0.22829 0.0
C207 C 0.56459 0.85356 0.20332 0.0
C208 C 0.59138 0.8865 0.21028 0.0
C209 C 0.59008 0.9139 0.19191 0.0
C210 C 0.5627 0.90867 0.16447 0.0
C211 C 0.5366 0.87576 0.15578 0.0
C212 C 0.53741 0.8484 0.17534 0.0
C213 C 0.54794 0.73784 0.19854 0.0
C214 C 0.5194 0.72306 0.16983 0.0
C215 C 0.51305 0.69588 0.14133 0.0
C216 C 0.53527 0.68321 0.14083 0.0
C217 C 0.56379 0.69783 0.16948 0.0
C218 C 0.57011 0.72502 0.19813 0.0
C219 C 0.55541 0.76797 0.22646 0.0
C220 C 0.55828 0.79625 0.20365 0.0
C221 C 0.5586 0.76873 0.27507 0.0
C222 C 0.55191 0.73866 0.30177 0.0
C223 C 0.5188 0.71546 0.31467 0.0
C224 C 0.51236 0.68867 0.34368 0.0
C225 C 0.53893 0.68444 0.35976 0.0
C226 C 0.57206 0.70744 0.34625 0.0
C227 C 0.57854 0.73463 0.31789 0.0
H228 H 0.72377 0.51095 0.65662 0.0
H229 H 0.68196 0.50825 0.60302 0.0
H230 H 0.66548 0.57511 0.69008 0.0
H231 H 0.71097 0.58153 0.7415 0.0
H232 H 0.77906 0.55574 0.67109 0.0
H233 H 0.69053 0.49286 0.79676 0.0
H234 H 0.64615 0.48565 0.85099 0.0
H235 H 0.70229 0.59136 0.88458 0.0
H236 H 0.74732 0.59822 0.83159 0.0
H237 H 0.85811 0.59149 0.82653 0.0
H238 H 0.89407 0.57898 0.87603 0.0
H239 H 0.83238 0.47344 0.844 0.0
H240 H 0.79737 0.4862 0.79305 0.0
H241 H 0.77633 0.54701 0.841 0.0
H242 H 0.87219 0.57657 0.73615 0.0
H243 H 0.90875 0.56739 0.68314 0.0
H244 H 0.82232 0.50128 0.60058 0.0
H245 H 0.78556 0.50749 0.6554 0.0
C246 C 0.72109 0.54666 0.70355 0.0
C247 C 0.71185 0.52572 0.66423 0.0
C248 C 0.68774 0.52395 0.63349 0.0
C249 C 0.67056 0.54148 0.64234 0.0
C250 C 0.67855 0.56145 0.68247 0.0
C251 C 0.70409 0.56456 0.71236 0.0
C252 C 0.75015 0.5508 0.73205 0.0
C253 C 0.77787 0.55283 0.70826 0.0
C254 C 0.75014 0.54964 0.7809 0.0
C255 C 0.72183 0.54617 0.80959 0.0
C256 C 0.69314 0.5145 0.81555 0.0
C257 C 0.66805 0.51036 0.84676 0.0
C258 C 0.671 0.53794 0.87211 0.0
C259 C 0.69961 0.56972 0.86572 0.0
C260 C 0.72506 0.57369 0.8352 0.0
C261 C 0.82558 0.53982 0.80556 0.0
C262 C 0.85274 0.56576 0.82963 0.0
C263 C 0.87304 0.55861 0.85802 0.0
C264 C 0.86581 0.52527 0.86381 0.0
C265 C 0.83841 0.49932 0.83994 0.0
C266 C 0.81862 0.50658 0.81074 0.0
C267 C 0.80226 0.54684 0.77908 0.0
C268 C 0.77678 0.54873 0.80366 0.0
C269 C 0.80263 0.54844 0.73035 0.0
C270 C 0.82582 0.54251 0.70047 0.0
C271 C 0.86087 0.55924 0.70762 0.0
C272 C 0.88186 0.5545 0.67686 0.0
C273 C 0.86827 0.53384 0.63766 0.0
C274 C 0.8334 0.51743 0.63039 0.0
C275 C 0.81245 0.52114 0.66181 0.0
H276 H 0.28364 0.87135 0.19911 0.0
H277 H 0.32786 0.90774 0.14414 0.0
H278 H 0.35601 0.83151 0.12745 0.0
H279 H 0.31296 0.79598 0.18367 0.0
H280 H 0.23734 0.78387 0.16447 0.0
H281 H 0.29529 0.87374 0.28303 0.0
H282 H 0.34082 0.91226 0.33504 0.0
H283 H 0.35455 0.83043 0.37977 0.0
H284 H 0.30975 0.79214 0.32712 0.0
H285 H 0.22768 0.71427 0.33195 0.0
H286 H 0.18738 0.6681 0.38047 0.0
H287 H 0.10642 0.67978 0.32558 0.0
H288 H 0.14688 0.72658 0.27721 0.0
H289 H 0.24509 0.77728 0.33411 0.0
H290 H 0.19996 0.69062 0.21872 0.0
H291 H 0.15877 0.64576 0.16859 0.0
H292 H 0.12562 0.71268 0.11785 0.0
H293 H 0.16733 0.75791 0.16764 0.0
C294 C 0.29581 0.83148 0.19635 0.0
C295 C 0.29996 0.86294 0.1845 0.0
C296 C 0.32478 0.88341 0.15275 0.0
C297 C 0.34504 0.8722 0.13159 0.0
C298 C 0.34062 0.8406 0.14335 0.0
C299 C 0.31635 0.82052 0.17566 0.0
C300 C 0.26716 0.80765 0.22495 0.0
C301 C 0.23856 0.78285 0.20177 0.0
C302 C 0.26961 0.80573 0.27332 0.0
C303 C 0.29949 0.83014 0.30043 0.0
C304 C 0.30868 0.86426 0.30301 0.0
C305 C 0.33428 0.88611 0.33317 0.0
C306 C 0.35083 0.87408 0.36143 0.0
C307 C 0.34198 0.84014 0.35839 0.0
C308 C 0.31657 0.81839 0.32819 0.0
C309 C 0.19034 0.7239 0.30083 0.0
C310 C 0.20129 0.70703 0.33031 0.0
C311 C 0.17838 0.68074 0.35798 0.0
C312 C 0.1441 0.67084 0.35675 0.0
C313 C 0.13288 0.68731 0.32705 0.0
C314 C 0.15588 0.71374 0.29928 0.0
C315 C 0.21548 0.75301 0.2736 0.0
C316 C 0.24339 0.77871 0.29695 0.0
C317 C 0.21297 0.75519 0.22523 0.0
C318 C 0.18638 0.72746 0.19737 0.0
C319 C 0.18366 0.69561 0.19715 0.0
C320 C 0.16043 0.67015 0.16826 0.0
C321 C 0.13943 0.67604 0.13915 0.0
C322 C 0.14186 0.70778 0.13966 0.0
C323 C 0.16543 0.73342 0.16823 0.0
H324 H 0.478 0.29812 0.83197 0.0
H325 H 0.4807 0.34654 0.87075 0.0
H326 H 0.37837 0.31389 0.82914 0.0
H327 H 0.3773 0.26715 0.78524 0.0
H328 H 0.43161 0.22667 0.83425 0.0
H329 H 0.47719 0.32312 0.74731 0.0
H330 H 0.47979 0.37332 0.7165 0.0
H331 H 0.40391 0.31293 0.61586 0.0
H332 H 0.39685 0.26154 0.6529 0.0
H333 H 0.40311 0.17261 0.64697 0.0
H334 H 0.41612 0.13946 0.59284 0.0
H335 H 0.50289 0.15962 0.67441 0.0
H336 H 0.49114 0.19435 0.72716 0.0
H337 H 0.43781 0.23659 0.66391 0.0
H338 H 0.40549 0.13661 0.76918 0.0
H339 H 0.41722 0.09977 0.81826 0.0
H340 H 0.50014 0.18702 0.88134 0.0
H341 H 0.48872 0.22363 0.83265 0.0
C342 C 0.42755 0.27925 0.8057 0.0
C343 C 0.45605 0.30122 0.83138 0.0
C344 C 0.45763 0.32901 0.85314 0.0
C345 C 0.42985 0.33422 0.85248 0.0
C346 C 0.40035 0.31087 0.82928 0.0
C347 C 0.39952 0.28398 0.80497 0.0
C348 C 0.42928 0.25396 0.77587 0.0
C349 C 0.43247 0.22834 0.7969 0.0
C350 C 0.43202 0.25758 0.7274 0.0
C351 C 0.43535 0.28818 0.70458 0.0
C352 C 0.45946 0.32022 0.72069 0.0
C353 C 0.46148 0.34909 0.70231 0.0
C354 C 0.44192 0.34706 0.66395 0.0
C355 C 0.41889 0.31515 0.64594 0.0
C356 C 0.41521 0.28588 0.66664 0.0
C357 C 0.44569 0.18554 0.69188 0.0
C358 C 0.42491 0.16987 0.65342 0.0
C359 C 0.43226 0.15093 0.62252 0.0
C360 C 0.46032 0.14691 0.62979 0.0
C361 C 0.48097 0.16222 0.6684 0.0
C362 C 0.47396 0.18168 0.69885 0.0
C363 C 0.43909 0.20796 0.72212 0.0
C364 C 0.43545 0.23367 0.70105 0.0
C365 C 0.43847 0.20594 0.77102 0.0
C366 C 0.44627 0.18287 0.79718 0.0
C367 C 0.42635 0.14774 0.79326 0.0
C368 C 0.43285 0.1268 0.8214 0.0
C369 C 0.45931 0.14081 0.85366 0.0
C370 C 0.47947 0.17581 0.85694 0.0
C371 C 0.47298 0.19662 0.82907 0.0
C372 C 0.03112 0.42712 0.1219 0.0
C373 C 0.04498 0.45939 0.10115 0.0
C374 C 0.10133 0.47202 0.12557 0.0
C375 C 0.08726 0.44168 0.15022 0.0
N376 N 0.03803 0.39315 0.18013 0.0
N377 N 0.09296 0.51587 0.09453 0.0
C378 C 0.05187 0.41999 0.15096 0.0
C379 C 0.08006 0.48286 0.10615 0.0
N380 N 0.99895 0.40259 0.11191 0.0
N381 N 0.13541 0.48951 0.11999 0.0
H382 H 0.07856 0.52556 0.08119 0.0
H383 H 0.11733 0.53455 0.10301 0.0
H384 H 0.14819 0.51066 0.09915 0.0
H385 H 0.14819 0.51066 0.09915 0.0
H386 H 0.98894 0.37776 0.12254 0.0
H387 H 0.98336 0.40607 0.0892 0.0
H388 H 0.01217 0.37841 0.1854 0.0
H389 H 0.05254 0.38765 0.2023 0.0
C390 C 0.59625 0.06314 0.64 0.0
C391 C 0.59546 0.06276 0.59087 0.0
C392 C 0.65445 0.10843 0.5904 0.0
C393 C 0.6562 0.10574 0.63874 0.0
N394 N 0.63099 0.07437 0.70801 0.0
N395 N 0.62826 0.07948 0.51995 0.0
C396 C 0.62779 0.0811 0.66309 0.0
C397 C 0.62585 0.08373 0.56621 0.0
N398 N 0.5671 0.04846 0.66497 0.0
N399 N 0.67951 0.1352 0.56744 0.0
H400 H 0.60894 0.06101 0.50022 0.0
H401 H 0.65097 0.09194 0.50207 0.0
H402 H 0.70069 0.15437 0.58385 0.0
H403 H 0.67752 0.1401 0.53287 0.0
H404 H 0.5667 0.05089 0.70069 0.0
H405 H 0.54327 0.03745 0.65006 0.0
H406 H 0.61172 0.05449 0.72609 0.0
H407 H 0.65397 0.08646 0.7255 0.0
C408 C 0.53829 0.63008 0.04106 0.0
C409 C 0.51316 0.59755 0.05516 0.0
C410 C 0.5043 0.62106 0.1265 0.0
C411 C 0.52791 0.6538 0.11121 0.0
N412 N 0.56373 0.6905 0.05132 0.0
N413 N 0.46699 0.56281 0.10578 0.0
C414 C 0.54383 0.65863 0.06762 0.0
C415 C 0.49465 0.59327 0.09634 0.0
N416 N 0.55777 0.63355 0.00346 0.0
N417 N 0.49177 0.61641 0.17035 0.0
H418 H 0.4584 0.5422 0.08363 0.0
H419 H 0.45054 0.55885 0.13293 0.0
H420 H 0.49791 0.6362 0.19336 0.0
H421 H 0.47754 0.59282 0.18531 0.0
H422 H 0.579 0.65609 0.99439 0.0
H423 H 0.55404 0.61324 0.98293 0.0
H424 H 0.57317 0.69572 0.01786 0.0
H425 H 0.56884 0.71193 0.07024 0.0
C426 C 0.93742 0.55036 0.54996 0.0
C427 C 0.93024 0.51706 0.54051 0.0
C428 C 0.88436 0.49533 0.59696 0.0
C429 C 0.89006 0.52839 0.60441 0.0
N430 N 0.91689 0.58626 0.57988 0.0
N431 N 0.89226 0.45724 0.54742 0.0
C432 C 0.91519 0.55567 0.57861 0.0
C433 C 0.90198 0.48935 0.56118 0.0
N434 N 0.96562 0.57695 0.53179 0.0
N435 N 0.86357 0.46991 0.62593 0.0
H436 H 0.90543 0.45138 0.52332 0.0
H437 H 0.86957 0.43648 0.55734 0.0
H438 H 0.85188 0.47359 0.65445 0.0
H439 H 0.86046 0.44586 0.62464 0.0
H440 H 0.9745 0.60179 0.54191 0.0
H441 H 0.98122 0.57399 0.50826 0.0
H442 H 0.93244 0.60612 0.55836 0.0
H443 H 0.90048 0.59089 0.59937 0.0
C444 C 0.43072 0.92134 0.07463 0.0
C445 C 0.42293 0.9336 0.03446 0.0
C446 C 0.36301 0.90141 0.05434 0.0
C447 C 0.37167 0.8937 0.09795 0.0
N448 N 0.4149 0.90217 0.15286 0.0
N449 N 0.38206 0.93772 0.98713 0.0
C450 C 0.40587 0.90524 0.109 0.0
C451 C 0.38911 0.92418 0.02438 0.0
N452 N 0.46173 0.92427 0.07932 0.0
N453 N 0.33004 0.88626 0.04098 0.0
H454 H 0.40055 0.95358 0.96391 0.0
H455 H 0.35837 0.93485 0.9809 0.0
H456 H 0.31035 0.86912 0.06167 0.0
H457 H 0.32246 0.88841 0.00794 0.0
H458 H 0.46791 0.91329 0.10616 0.0
H459 H 0.47972 0.934 0.05325 0.0
H460 H 0.43989 0.91331 0.16369 0.0
H461 H 0.39759 0.89153 0.17967 0.0
C462 C 0.42901 0.41562 0.60803 0.0
C463 C 0.46298 0.44036 0.59972 0.0
C464 C 0.48181 0.40275 0.62843 0.0
C465 C 0.4483 0.37874 0.64082 0.0
N466 N 0.39096 0.36639 0.65238 0.0
N467 N 0.52124 0.46172 0.61864 0.0
C468 C 0.42203 0.3863 0.63358 0.0
C469 C 0.4892 0.43527 0.61539 0.0
N470 N 0.40356 0.41957 0.59058 0.0
N471 N 0.50635 0.39414 0.62637 0.0
H472 H 0.52732 0.48624 0.61046 0.0
H473 H 0.54043 0.45967 0.63482 0.0
H474 H 0.50158 0.36968 0.6316 0.0
H475 H 0.53045 0.41045 0.61397 0.0
H476 H 0.37839 0.40062 0.59124 0.0
H477 H 0.40798 0.44112 0.57282 0.0
H478 H 0.37188 0.37247 0.65149 0.0
H479 H 0.38533 0.34557 0.67274 0.0
C480 C 0.55609 0.98424 0.36034 0.0
C481 C 0.56297 0.99122 0.40826 0.0
C482 C 0.57729 0.94645 0.41361 0.0
C483 C 0.57196 0.94064 0.3656 0.0
N484 N 0.56696 0.96114 0.29142 0.0
N485 N 0.59088 0.98604 0.47597 0.0
C486 C 0.56501 0.96203 0.33833 0.0
C487 C 0.57732 0.97476 0.43324 0.0
N488 N 0.53876 0.99632 0.33633 0.0
N489 N 0.58014 0.92391 0.4412 0.0
H490 H 0.5917 0.00688 0.49156 0.0
H491 H 0.60443 0.97689 0.49363 0.0
H492 H 0.57914 0.9021 0.42873 0.0
H493 H 0.58022 0.92522 0.47709 0.0
H494 H 0.52993 0.98847 0.30288 0.0
H495 H 0.53043 0.0117 0.35059 0.0
H496 H 0.56523 0.97843 0.27006 0.0
H497 H 0.57391 0.94544 0.27439 0.0
C498 C 0.58294 0.51202 0.91449 0.0
C499 C 0.58839 0.52162 0.96191 0.0
C500 C 0.64822 0.53896 0.9518 0.0
C501 C 0.64313 0.53356 0.9034 0.0
N502 N 0.60669 0.52315 0.83793 0.0
N503 N 0.6282 0.55018 0.02349 0.0
C504 C 0.61082 0.52264 0.88454 0.0
C505 C 0.62162 0.5367 0.9801 0.0
N506 N 0.55119 0.49111 0.89816 0.0
N507 N 0.678 0.54516 0.97103 0.0
H508 H 0.60973 0.54998 0.04471 0.0
H509 H 0.6525 0.56441 0.03665 0.0
H510 H 0.69779 0.54645 0.95164 0.0
H511 H 0.68183 0.54591 0.00652 0.0
H512 H 0.54641 0.48098 0.86494 0.0
H513 H 0.53006 0.48043 0.91921 0.0
H514 H 0.58408 0.51849 0.82293 0.0
H515 H 0.62665 0.53177 0.81466 0.0
C516 C 0.08506 0.62165 0.45566 0.0
C517 C 0.07849 0.58874 0.4449 0.0
C518 C 0.11093 0.60924 0.3734 0.0
C519 C 0.12009 0.64258 0.38617 0.0
N520 N 0.11994 0.68156 0.44211 0.0
N521 N 0.09048 0.55211 0.39863 0.0
C522 C 0.10826 0.64911 0.42807 0.0
C523 C 0.09285 0.58276 0.4051 0.0
N524 N 0.06828 0.62649 0.49119 0.0
N525 N 0.11885 0.60279 0.33049 0.0
H526 H 0.07826 0.53231 0.42177 0.0
H527 H 0.1034 0.5473 0.37288 0.0
H528 H 0.13213 0.6216 0.30629 0.0
H529 H 0.10967 0.57859 0.31737 0.0
H530 H 0.06911 0.64924 0.49758 0.0
H531 H 0.05137 0.60699 0.51232 0.0
H532 H 0.11521 0.68801 0.47462 0.0
H533 H 0.13649 0.70227 0.42246 0.0
C534 C 0.50531 0.09873 0.90438 0.0
C535 C 0.48534 0.0827 0.9438 0.0
C536 C 0.44876 0.10598 0.92532 0.0
C537 C 0.4669 0.11921 0.88367 0.0
N538 N 0.50897 0.12376 0.82966 0.0
N539 N 0.43569 0.06727 0.98914 0.0
C540 C 0.49416 0.11424 0.87206 0.0
C541 C 0.45644 0.08538 0.95371 0.0
N542 N 0.53572 0.10032 0.89883 0.0
N543 N 0.42478 0.11381 0.93827 0.0
H544 H 0.44083 0.05237 0.01094 0.0
H545 H 0.41226 0.0651 0.99497 0.0
H546 H 0.41796 0.12812 0.91786 0.0
H547 H 0.41331 0.10814 0.97053 0.0
H548 H 0.55297 0.11442 0.87331 0.0
H549 H 0.54532 0.09033 0.92265 0.0
H550 H 0.52644 0.11747 0.81717 0.0
H551 H 0.50163 0.13543 0.80515 0.0
C552 C 0.42315 0.47206 0.36578 0.0
C553 C 0.4258 0.45771 0.40755 0.0
C554 C 0.36458 0.41982 0.40848 0.0
C555 C 0.36164 0.43768 0.37061 0.0
N556 N 0.38744 0.48236 0.31481 0.0
N557 N 0.40016 0.41756 0.46879 0.0
C558 C 0.39077 0.46403 0.34937 0.0
C559 C 0.3968 0.43116 0.42865 0.0
N560 N 0.45158 0.49339 0.34188 0.0
N561 N 0.33654 0.39225 0.42526 0.0
H562 H 0.42358 0.42361 0.48252 0.0
H563 H 0.38004 0.40122 0.48938 0.0
H564 H 0.31235 0.38423 0.41281 0.0
H565 H 0.33724 0.37602 0.44959 0.0
H566 H 0.45123 0.50202 0.30886 0.0
H567 H 0.47573 0.50033 0.35346 0.0
H568 H 0.40743 0.5045 0.30197 0.0
H569 H 0.36428 0.4765 0.30042 0.0
C570 C 0.98571 0.39382 0.93175 0.0
C571 C 0.99162 0.42359 0.90898 0.0
C572 C 0.9611 0.39012 0.8412 0.0
C573 C 0.94956 0.36041 0.86765 0.0
N574 N 0.95148 0.33311 0.93733 0.0
N575 N 0.98508 0.45064 0.84173 0.0
C576 C 0.96244 0.36199 0.91255 0.0
C577 C 0.98005 0.42203 0.86314 0.0
N578 N 1.00265 0.39626 0.97167 0.0
N579 N 0.95368 0.38776 0.79524 0.0
H580 H 0.99917 0.47453 0.85619 0.0
H581 H 0.97353 0.45063 0.81083 0.0
H582 H 0.93984 0.36477 0.77834 0.0
H583 H 0.96387 0.40823 0.77301 0.0
H584 H 1.00164 0.37574 0.98835 0.0
H585 H 0.02041 0.41938 0.98577 0.0
H586 H 0.95657 0.33276 0.97223 0.0
H587 H 0.93585 0.30929 0.9233 0.0
C588 C 0.92265 0.49228 0.90583 0.0
C589 C 0.9284 0.50353 0.95237 0.0
C590 C 0.88859 0.52413 0.94278 0.0
C591 C 0.88708 0.51751 0.89461 0.0
N592 N 0.90826 0.50108 0.82904 0.0
N593 N 0.92033 0.53454 0.0137 0.0
C594 C 0.90564 0.50315 0.87575 0.0
C595 C 0.91219 0.52053 0.97064 0.0
N596 N 0.93225 0.47007 0.89072 0.0
N597 N 0.86679 0.53282 0.96219 0.0
H598 H 0.93772 0.53279 0.03497 0.0
H599 H 0.91202 0.55034 0.02671 0.0
H600 H 0.84866 0.53496 0.94314 0.0
H601 H 0.86452 0.53468 0.99768 0.0
H602 H 0.92566 0.45854 0.8584 0.0
H603 H 0.94327 0.46016 0.91233 0.0
H604 H 0.92432 0.49392 0.81368 0.0
H605 H 0.89712 0.50976 0.80558 0.0
C606 C 0.43696 0.92545 0.41788 0.0
C607 C 0.42925 0.93993 0.45601 0.0
C608 C 0.36931 0.90792 0.4354 0.0
C609 C 0.37775 0.89696 0.3941 0.0
N610 N 0.42023 0.89932 0.34253 0.0
N611 N 0.38874 0.94744 0.49962 0.0
C612 C 0.41177 0.90678 0.38442 0.0
C613 C 0.39553 0.9317 0.46459 0.0
N614 N 0.46823 0.92875 0.41444 0.0
N615 N 0.33625 0.89492 0.44728 0.0
H616 H 0.40719 0.96402 0.5225 0.0
H617 H 0.36537 0.94565 0.50436 0.0
H618 H 0.31644 0.87759 0.42672 0.0
H619 H 0.32845 0.89921 0.47906 0.0
H620 H 0.47461 0.91635 0.38972 0.0
H621 H 0.48674 0.94095 0.43952 0.0
H622 H 0.44501 0.90903 0.33156 0.0
H623 H 0.40254 0.88587 0.3169 0.0
C624 C 0.43265 0.41702 0.88428 0.0
C625 C 0.45374 0.42592 0.92416 0.0
C626 C 0.44512 0.36894 0.92373 0.0
C627 C 0.43229 0.36349 0.87845 0.0
N628 N 0.4196 0.38683 0.81169 0.0
N629 N 0.49035 0.41106 0.96778 0.0
C630 C 0.42747 0.3887 0.85737 0.0
C631 C 0.46281 0.40209 0.94048 0.0
N632 N 0.41652 0.43414 0.87259 0.0
N633 N 0.4422 0.34293 0.94978 0.0
H634 H 0.5093 0.4358 0.97312 0.0
H635 H 0.49752 0.39375 0.97803 0.0
H636 H 0.42856 0.31797 0.93859 0.0
H637 H 0.45025 0.34624 0.98405 0.0
H638 H 0.39953 0.42668 0.84518 0.0
H639 H 0.41615 0.4524 0.89357 0.0
H640 H 0.41885 0.40637 0.79452 0.0
H641 H 0.41722 0.36756 0.7901 0.0
C642 C 0.04506 0.45655 0.36899 0.0
C643 C 0.03249 0.44634 0.41434 0.0
C644 C 0.06284 0.41508 0.42069 0.0
C645 C 0.0756 0.42547 0.37553 0.0
N646 N 0.07307 0.44915 0.30263 0.0
N647 N 0.02223 0.4096 0.4788 0.0
C648 C 0.06463 0.44382 0.34827 0.0
C649 C 0.03914 0.42355 0.43874 0.0
N650 N 0.04019 0.48005 0.34687 0.0
N651 N 0.07421 0.398 0.44675 0.0
H652 H 0.00424 0.41488 0.49232 0.0
H653 H 0.0236 0.39059 0.49638 0.0
H654 H 0.09037 0.39005 0.43386 0.0
H655 H 0.06915 0.39327 0.48177 0.0
H656 H 0.05231 0.4917 0.31637 0.0
H657 H 0.02583 0.48985 0.36058 0.0
H658 H 0.06304 0.45925 0.27968 0.0
H659 H 0.08797 0.44081 0.28665 0.0
C660 C 0.59364 0.06468 0.86419 0.0
C661 C 0.59319 0.05468 0.91072 0.0
C662 C 0.65497 0.08348 0.91085 0.0
C663 C 0.65542 0.09641 0.86665 0.0
N664 N 0.62582 0.10416 0.80364 0.0
N665 N 0.62462 0.06312 0.98189 0.0
C666 C 0.62491 0.08816 0.84372 0.0
C667 C 0.62414 0.06641 0.93512 0.0
N668 N 0.56425 0.05269 0.83995 0.0
N669 N 0.6841 0.08755 0.92982 0.0
H670 H 0.60327 0.0526 1.00243 0.0
H671 H 0.64671 0.07446 1.00132 0.0
H672 H 0.70738 0.10049 0.91333 0.0
H673 H 0.68459 0.07534 0.95977 0.0
H674 H 0.56344 0.05582 0.80452 0.0
H675 H 0.54054 0.03813 0.8546 0.0
H676 H 0.60452 0.10225 0.78788 0.0
H677 H 0.64827 0.12141 0.78772 0.0
C678 C 0.5389 0.6334 0.46384 0.0
C679 C 0.51686 0.60021 0.44793 0.0
C680 C 0.51231 0.62227 0.3731 0.0
C681 C 0.53178 0.65555 0.39025 0.0
N682 N 0.55789 0.69275 0.45523 0.0
N683 N 0.47544 0.56389 0.39211 0.0
C684 C 0.54347 0.66115 0.43664 0.0
C685 C 0.50148 0.59489 0.40389 0.0
N686 N 0.55649 0.63847 0.50393 0.0
N687 N 0.50513 0.61664 0.32708 0.0
H688 H 0.46571 0.54351 0.41456 0.0
H689 H 0.46108 0.5595 0.36234 0.0
H690 H 0.51338 0.63598 0.30301 0.0
H691 H 0.49392 0.59275 0.3122 0.0
H692 H 0.57565 0.66202 0.51461 0.0
H693 H 0.55392 0.61881 0.52464 0.0
H694 H 0.56375 0.69773 0.49011 0.0
H695 H 0.56114 0.71359 0.43672 0.0
C696 C 0.45435 0.07408 0.55796 0.0
C697 C 0.48687 0.08944 0.53777 0.0
C698 C 0.49876 0.14373 0.57034 0.0
C699 C 0.4686 0.12725 0.59645 0.0
N700 N 0.41975 0.07546 0.62011 0.0
N701 N 0.54246 0.13833 0.53123 0.0
C702 C 0.44679 0.09206 0.59144 0.0
C703 C 0.50971 0.12422 0.54528 0.0
N704 N 0.43044 0.04247 0.54442 0.0
N705 N 0.51669 0.17806 0.5688 0.0
H706 H 0.55207 0.12501 0.5139 0.0
H707 H 0.56093 0.16256 0.54059 0.0
H708 H 0.5092 0.19321 0.58613 0.0
H709 H 0.53702 0.19132 0.54669 0.0
H710 H 0.40537 0.03116 0.55481 0.0
H711 H 0.43487 0.02903 0.51891 0.0
H712 H 0.40516 0.04934 0.62119 0.0
H713 H 0.41373 0.0875 0.64585 0.0
C714 C 0.39088 0.44098 0.0808 0.0
C715 C 0.42153 0.45898 0.1058 0.0
C716 C 0.38871 0.45052 0.1762 0.0
C717 C 0.3591 0.43947 0.14936 0.0
N718 N 0.33352 0.4292 0.07372 0.0
N719 N 0.44933 0.48502 0.17776 0.0
C720 C 0.36047 0.43582 0.10096 0.0
C721 C 0.4205 0.46463 0.15383 0.0
N722 N 0.39066 0.42816 0.0381 0.0
N723 N 0.38643 0.44687 0.22295 0.0
H724 H 0.47311 0.49707 0.16271 0.0
H725 H 0.44917 0.49248 0.21173 0.0
H726 H 0.36336 0.43543 0.24015 0.0
H727 H 0.40696 0.45167 0.24365 0.0
H728 H 0.36854 0.41257 0.02008 0.0
H729 H 0.41217 0.4297 0.02336 0.0
H730 H 0.33472 0.42968 0.03781 0.0
H731 H 0.31111 0.4266 0.08664 0.0
C732 C 0.94552 0.43006 0.62251 0.0
C733 C 0.97687 0.43508 0.60695 0.0
C734 C 0.96516 0.3826 0.64424 0.0
C735 C 0.93117 0.37458 0.65105 0.0
N736 N 0.88769 0.38886 0.63699 0.0
N737 N 0.01652 0.4153 0.60036 0.0
C738 C 0.92098 0.39791 0.63786 0.0
C739 C 0.98693 0.41125 0.61735 0.0
N740 N 0.93933 0.45621 0.6231 0.0
N741 N 0.97689 0.36363 0.66453 0.0
H742 H 0.03332 0.43646 0.58163 0.0
H743 H 0.02327 0.39676 0.60247 0.0
H744 H 0.96202 0.34331 0.68588 0.0
H745 H 1.00216 0.37012 0.66389 0.0
H746 H 0.91809 0.45454 0.63883 0.0
H747 H 0.95732 0.48042 0.61295 0.0
H748 H 0.87923 0.40438 0.62363 0.0
H749 H 0.86833 0.36464 0.64443 0.0
C750 C 0.53657 0.97412 0.13945 0.0
C751 C 0.55184 0.98568 0.09547 0.0
C752 C 0.58041 0.95251 0.10333 0.0
C753 C 0.56149 0.93754 0.14361 0.0
N754 N 0.52041 0.93225 0.19977 0.0
N755 N 0.58586 0.98279 0.03335 0.0
C756 C 0.53955 0.94814 0.16193 0.0
C757 C 0.57344 0.97436 0.07713 0.0
N758 N 0.51841 0.98712 0.15929 0.0
N759 N 0.60481 0.94545 0.08952 0.0
H760 H 0.58246 0.99925 0.01274 0.0
H761 H 0.59745 0.97146 0.01577 0.0
H762 H 0.60918 0.92772 0.10557 0.0
H763 H 0.62255 0.95904 0.06424 0.0
H764 H 0.5102 0.9827 0.19335 0.0
H765 H 0.51323 0.00422 0.14315 0.0
H766 H 0.50065 0.93536 0.21148 0.0
H767 H 0.52307 0.91431 0.2184 0.0
C768 C 0.59406 0.50006 0.56316 0.0
C769 C 0.59363 0.52839 0.54452 0.0
C770 C 0.646 0.56576 0.58605 0.0
C771 C 0.64356 0.53756 0.60977 0.0
N772 N 0.61097 0.47839 0.62742 0.0
N773 N 0.61733 0.58849 0.54117 0.0
C774 C 0.61646 0.5048 0.59993 0.0
C775 C 0.61901 0.56136 0.557 0.0
N776 N 0.57274 0.4685 0.54649 0.0
N777 N 0.67473 0.59635 0.58935 0.0
H778 H 0.59916 0.58633 0.51758 0.0
H779 H 0.63276 0.61287 0.55344 0.0
H780 H 0.69552 0.60036 0.60886 0.0
H781 H 0.67922 0.61694 0.56928 0.0
H782 H 0.57497 0.44766 0.55499 0.0
H783 H 0.55443 0.46334 0.52156 0.0
H784 H 0.59026 0.45433 0.62397 0.0
H785 H 0.62517 0.48118 0.6569 0.0
C786 C 0.09146 0.62158 0.03495 0.0
C787 C 0.06999 0.5904 0.05698 0.0
C788 C 0.08776 0.61949 0.13197 0.0
C789 C 0.11385 0.6481 0.11009 0.0
N790 N 0.14315 0.67517 0.04007 0.0
N791 N 0.05283 0.55951 0.12986 0.0
C792 C 0.1164 0.64893 0.06132 0.0
C793 C 0.06916 0.58925 0.10643 0.0
N794 N 0.0872 0.62569 0.9893 0.0
N795 N 0.08053 0.62119 0.17732 0.0
H796 H 0.03974 0.53587 0.11481 0.0
H797 H 0.05542 0.55794 0.16532 0.0
H798 H 0.09345 0.64308 0.19707 0.0
H799 H 0.05941 0.6021 0.19371 0.0
H800 H 0.1004 0.64878 0.97265 0.0
H801 H 0.06762 0.60722 0.9696 0.0
H802 H 0.148 0.67519 0.00494 0.0
H803 H 0.16207 0.69556 0.05809 0.0
loop_
_geom_bond_atom_site_label_1
_geom_bond_atom_site_label_2
_geom_bond_distance
_geom_bond_site_symmetry_2
_ccdc_geom_bond_type
C0 O2 1.247 . S
C0 O4 1.258 . S
C1 O8 1.247 . S
C1 O9 1.258 . S
O2 C0 1.247 . S
O2 Zn3 2.028 1_455 S
Zn3 O2 2.028 1_655 S
Zn3 O7 2.035 1_554 S
Zn3 O9 2.035 1_554 S
Zn3 O10 2.028 1_655 S
O4 C0 1.258 . S
O4 Zn5 2.035 1_554 S
Zn5 O4 2.035 1_556 S
Zn5 O6 2.028 1_455 S
Zn5 O8 2.028 1_455 S
Zn5 O11 2.035 1_556 S
O6 Zn5 2.028 1_655 S
O6 C12 1.247 . S
O7 Zn3 2.035 1_556 S
O7 C12 1.258 . S
O8 C1 1.247 . S
O8 Zn5 2.028 1_655 S
O9 C1 1.258 . S
O9 Zn3 2.035 1_556 S
O10 Zn3 2.028 1_455 S
O10 C13 1.247 . S
O11 Zn5 2.035 1_554 S
O11 C13 1.258 . S
C12 O6 1.247 . S
C12 O7 1.258 . S
C13 O10 1.247 . S
C13 O11 1.258 . S
C14 O16 1.247 . S
C14 O18 1.258 . S
C15 O22 1.247 . S
C15 O23 1.258 . S
O16 C14 1.247 . S
O16 Zn17 2.028 1_545 S
Zn17 O16 2.028 1_565 S
Zn17 O21 2.035 . S
Zn17 O23 2.035 . S
Zn17 O24 2.028 1_565 S
O18 C14 1.258 . S
O18 Zn19 2.035 . S
Zn19 O18 2.035 . S
Zn19 O20 2.028 1_545 S
Zn19 O22 2.028 1_545 S
Zn19 O25 2.035 . S
O20 Zn19 2.028 1_565 S
O20 C26 1.247 . S
O21 Zn17 2.035 . S
O21 C26 1.258 . S
O22 C15 1.247 . S
O22 Zn19 2.028 1_565 S
O23 C15 1.258 . S
O23 Zn17 2.035 . S
O24 Zn17 2.028 1_545 S
O24 C27 1.247 . S
O25 Zn19 2.035 . S
O25 C27 1.258 . S
C26 O20 1.247 . S
C26 O21 1.258 . S
C27 O24 1.247 . S
C27 O25 1.258 . S
C28 O30 1.247 . S
C28 O32 1.258 . S
C29 O36 1.247 . S
C29 O37 1.258 . S
O30 C28 1.247 . S
O30 Zn31 2.028 . S
Zn31 O30 2.028 . S
Zn31 O35 2.035 1_556 S
Zn31 O37 2.035 1_556 S
Zn31 O38 2.028 . S
O32 C28 1.258 . S
O32 Zn33 2.035 1_556 S
Zn33 O32 2.035 1_554 S
Zn33 O34 2.028 . S
Zn33 O36 2.028 . S
Zn33 O39 2.035 1_554 S
O34 Zn33 2.028 . S
O34 C40 1.247 . S
O35 Zn31 2.035 1_554 S
O35 C40 1.258 . S
O36 C29 1.247 . S
O36 Zn33 2.028 . S
O37 C29 1.258 . S
O37 Zn31 2.035 1_554 S
O38 Zn31 2.028 . S
O38 C41 1.247 . S
O39 Zn33 2.035 1_556 S
O39 C41 1.258 . S
C40 O34 1.247 . S
C40 O35 1.258 . S
C41 O38 1.247 . S
C41 O39 1.258 . S
C42 O44 1.247 . S
C42 O46 1.258 . S
C43 O50 1.247 . S
C43 O51 1.258 . S
O44 C42 1.247 . S
O44 Zn45 2.028 . S
Zn45 O44 2.028 . S
Zn45 O49 2.035 1_455 S
Zn45 O51 2.035 1_455 S
Zn45 O52 2.028 . S
O46 C42 1.258 . S
O46 Zn47 2.035 1_455 S
Zn47 O46 2.035 1_655 S
Zn47 O48 2.028 . S
Zn47 O50 2.028 . S
Zn47 O53 2.035 1_655 S
O48 Zn47 2.028 . S
O48 C54 1.247 . S
O49 Zn45 2.035 1_655 S
O49 C54 1.258 . S
O50 C43 1.247 . S
O50 Zn47 2.028 . S
O51 C43 1.258 . S
O51 Zn45 2.035 1_655 S
O52 Zn45 2.028 . S
O52 C55 1.247 . S
O53 Zn47 2.035 1_455 S
O53 C55 1.258 . S
C54 O48 1.247 . S
C54 O49 1.258 . S
C55 O52 1.247 . S
C55 O53 1.258 . S
C56 O58 1.247 . S
C56 O60 1.258 . S
C57 O64 1.247 . S
C57 O65 1.258 . S
O58 C56 1.247 . S
O58 Zn59 2.028 1_565 S
Zn59 O58 2.028 1_545 S
Zn59 O63 2.035 1_554 S
Zn59 O65 2.035 1_554 S
Zn59 O66 2.028 1_545 S
O60 C56 1.258 . S
O60 Zn61 2.035 1_554 S
Zn61 O60 2.035 1_556 S
Zn61 O62 2.028 1_565 S
Zn61 O64 2.028 1_565 S
Zn61 O67 2.035 1_556 S
O62 Zn61 2.028 1_545 S
O62 C68 1.247 . S
O63 Zn59 2.035 1_556 S
O63 C68 1.258 . S
O64 C57 1.247 . S
O64 Zn61 2.028 1_545 S
O65 C57 1.258 . S
O65 Zn59 2.035 1_556 S
O66 Zn59 2.028 1_565 S
O66 C69 1.247 . S
O67 Zn61 2.035 1_554 S
O67 C69 1.258 . S
C68 O62 1.247 . S
C68 O63 1.258 . S
C69 O66 1.247 . S
C69 O67 1.258 . S
C70 O72 1.247 . S
C70 O74 1.258 . S
C71 O78 1.247 . S
C71 O79 1.258 . S
O72 C70 1.247 . S
O72 Zn73 2.028 . S
Zn73 O72 2.028 . S
Zn73 O77 2.035 . S
Zn73 O79 2.035 . S
Zn73 O80 2.028 . S
O74 C70 1.258 . S
O74 Zn75 2.035 . S
Zn75 O74 2.035 . S
Zn75 O76 2.028 . S
Zn75 O78 2.028 . S
Zn75 O81 2.035 . S
O76 Zn75 2.028 . S
O76 C82 1.247 . S
O77 Zn73 2.035 . S
O77 C82 1.258 . S
O78 C71 1.247 . S
O78 Zn75 2.028 . S
O79 C71 1.258 . S
O79 Zn73 2.035 . S
O80 Zn73 2.028 . S
O80 C83 1.247 . S
O81 Zn75 2.035 . S
O81 C83 1.258 . S
C82 O76 1.247 . S
C82 O77 1.258 . S
C83 O80 1.247 . S
C83 O81 1.258 . S
H84 C103 0.949 . S
H85 C104 0.950 . S
H86 C106 0.950 . S
H87 C107 0.950 . S
H88 C109 0.950 . S
H89 C112 0.950 . S
H90 C113 0.950 . S
H91 C115 0.951 . S
H92 C116 0.949 . S
H93 C118 0.949 . S
H94 C119 0.950 . S
H95 C121 0.950 . S
H96 C122 0.950 . S
H97 C124 0.950 . S
H98 C127 0.950 . S
H99 C128 0.950 . S
H100 C130 0.951 . S
H101 C131 0.949 . S
C102 C103 1.376 . S
C102 C107 1.386 . S
C102 C108 1.483 . S
C103 H84 0.949 . S
C103 C102 1.376 . S
C103 C104 1.397 . S
C104 H85 0.950 . S
C104 C103 1.397 . S
C104 C105 1.391 . S
C105 C104 1.391 . S
C105 C106 1.405 . S
C106 H86 0.950 . S
C106 C105 1.405 . S
C106 C107 1.367 . S
C107 H87 0.950 . S
C107 C102 1.386 . S
C107 C106 1.367 . S
C108 C102 1.483 . S
C108 C109 1.382 . S
C108 C110 1.403 . S
C109 H88 0.950 . S
C109 C108 1.382 . S
C109 C125 1.411 . S
C110 C108 1.403 . S
C110 C111 1.489 . S
C110 C124 1.411 . S
C111 C110 1.489 . S
C111 C112 1.383 . S
C111 C116 1.382 . S
C112 H89 0.950 . S
C112 C111 1.383 . S
C112 C113 1.395 . S
C113 H90 0.950 . S
C113 C112 1.395 . S
C113 C114 1.288 . S
C114 C113 1.288 . S
C114 C115 1.392 . S
C115 H91 0.951 . S
C115 C114 1.392 . S
C115 C116 1.392 . S
C116 H92 0.949 . S
C116 C111 1.382 . S
C116 C115 1.392 . S
C117 C118 1.376 . S
C117 C122 1.386 . S
C117 C123 1.483 . S
C118 H93 0.949 . S
C118 C117 1.376 . S
C118 C119 1.397 . S
C119 H94 0.950 . S
C119 C118 1.397 . S
C119 C120 1.391 . S
C120 C119 1.391 . S
C120 C121 1.405 . S
C121 H95 0.950 . S
C121 C120 1.405 . S
C121 C122 1.367 . S
C122 H96 0.950 . S
C122 C117 1.386 . S
C122 C121 1.367 . S
C123 C117 1.483 . S
C123 C124 1.382 . S
C123 C125 1.403 . S
C124 H97 0.950 . S
C124 C110 1.411 . S
C124 C123 1.382 . S
C125 C109 1.411 . S
C125 C123 1.403 . S
C125 C126 1.489 . S
C126 C125 1.489 . S
C126 C127 1.383 . S
C126 C131 1.382 . S
C127 H98 0.950 . S
C127 C126 1.383 . S
C127 C128 1.395 . S
C128 H99 0.950 . S
C128 C127 1.395 . S
C128 C129 1.288 . S
C129 C128 1.288 . S
C129 C130 1.392 . S
C130 H100 0.951 . S
C130 C129 1.392 . S
C130 C131 1.392 . S
C131 H101 0.949 . S
C131 C126 1.382 . S
C131 C130 1.392 . S
H132 C151 0.949 . S
H133 C152 0.950 . S
H134 C154 0.950 . S
H135 C155 0.950 . S
H136 C157 0.950 . S
H137 C160 0.950 . S
H138 C161 0.950 . S
H139 C163 0.951 . S
H140 C164 0.949 . S
H141 C166 0.949 . S
H142 C167 0.950 . S
H143 C169 0.950 . S
H144 C170 0.950 . S
H145 C172 0.950 . S
H146 C175 0.950 . S
H147 C176 0.950 . S
H148 C178 0.951 . S
H149 C179 0.949 . S
C150 C151 1.376 . S
C150 C155 1.386 . S
C150 C156 1.483 . S
C151 H132 0.949 . S
C151 C150 1.376 . S
C151 C152 1.397 . S
C152 H133 0.950 . S
C152 C151 1.397 . S
C152 C153 1.391 . S
C153 C152 1.391 . S
C153 C154 1.405 . S
C154 H134 0.950 . S
C154 C153 1.405 . S
C154 C155 1.367 . S
C155 H135 0.950 . S
C155 C150 1.386 . S
C155 C154 1.367 . S
C156 C150 1.483 . S
C156 C157 1.382 . S
C156 C158 1.403 . S
C157 H136 0.950 . S
C157 C156 1.382 . S
C157 C173 1.411 . S
C158 C156 1.403 . S
C158 C159 1.489 . S
C158 C172 1.411 . S
C159 C158 1.489 . S
C159 C160 1.383 . S
C159 C164 1.382 . S
C160 H137 0.950 . S
C160 C159 1.383 . S
C160 C161 1.395 . S
C161 H138 0.950 . S
C161 C160 1.395 . S
C161 C162 1.288 . S
C162 C161 1.288 . S
C162 C163 1.392 . S
C163 H139 0.951 . S
C163 C162 1.392 . S
C163 C164 1.392 . S
C164 H140 0.949 . S
C164 C159 1.382 . S
C164 C163 1.392 . S
C165 C166 1.376 . S
C165 C170 1.386 . S
C165 C171 1.483 . S
C166 H141 0.949 . S
C166 C165 1.376 . S
C166 C167 1.397 . S
C167 H142 0.950 . S
C167 C166 1.397 . S
C167 C168 1.391 . S
C168 C167 1.391 . S
C168 C169 1.405 . S
C169 H143 0.950 . S
C169 C168 1.405 . S
C169 C170 1.367 . S
C170 H144 0.950 . S
C170 C165 1.386 . S
C170 C169 1.367 . S
C171 C165 1.483 . S
C171 C172 1.382 . S
C171 C173 1.403 . S
C172 H145 0.950 . S
C172 C158 1.411 . S
C172 C171 1.382 . S
C173 C157 1.411 . S
C173 C171 1.403 . S
C173 C174 1.489 . S
C174 C173 1.489 . S
C174 C175 1.383 . S
C174 C179 1.382 . S
C175 H146 0.950 . S
C175 C174 1.383 . S
C175 C176 1.395 . S
C176 H147 0.950 . S
C176 C175 1.395 . S
C176 C177 1.288 . S
C177 C176 1.288 . S
C177 C178 1.392 . S
C178 H148 0.951 . S
C178 C177 1.392 . S
C178 C179 1.392 . S
C179 H149 0.949 . S
C179 C174 1.382 . S
C179 C178 1.392 . S
H180 C199 0.949 . S
H181 C200 0.950 . S
H182 C202 0.950 . S
H183 C203 0.950 . S
H184 C205 0.950 . S
H185 C208 0.950 . S
H186 C209 0.950 . S
H187 C211 0.951 . S
H188 C212 0.949 . S
H189 C214 0.949 . S
H190 C215 0.950 . S
H191 C217 0.950 . S
H192 C218 0.950 . S
H193 C220 0.950 . S
H194 C223 0.950 . S
H195 C224 0.950 . S
H196 C226 0.951 . S
H197 C227 0.949 . S
C198 C199 1.376 . S
C198 C203 1.386 . S
C198 C204 1.483 . S
C199 H180 0.949 . S
C199 C198 1.376 . S
C199 C200 1.397 . S
C200 H181 0.950 . S
C200 C199 1.397 . S
C200 C201 1.391 . S
C201 C200 1.391 . S
C201 C202 1.405 . S
C202 H182 0.950 . S
C202 C201 1.405 . S
C202 C203 1.367 . S
C203 H183 0.950 . S
C203 C198 1.386 . S
C203 C202 1.367 . S
C204 C198 1.483 . S
C204 C205 1.382 . S
C204 C206 1.403 . S
C205 H184 0.950 . S
C205 C204 1.382 . S
C205 C221 1.411 . S
C206 C204 1.403 . S
C206 C207 1.489 . S
C206 C220 1.411 . S
C207 C206 1.489 . S
C207 C208 1.383 . S
C207 C212 1.382 . S
C208 H185 0.950 . S
C208 C207 1.383 . S
C208 C209 1.395 . S
C209 H186 0.950 . S
C209 C208 1.395 . S
C209 C210 1.288 . S
C210 C209 1.288 . S
C210 C211 1.392 . S
C211 H187 0.951 . S
C211 C210 1.392 . S
C211 C212 1.392 . S
C212 H188 0.949 . S
C212 C207 1.382 . S
C212 C211 1.392 . S
C213 C214 1.376 . S
C213 C218 1.386 . S
C213 C219 1.483 . S
C214 H189 0.949 . S
C214 C213 1.376 . S
C214 C215 1.397 . S
C215 H190 0.950 . S
C215 C214 1.397 . S
C215 C216 1.391 . S
C216 C215 1.391 . S
C216 C217 1.405 . S
C217 H191 0.950 . S
C217 C216 1.405 . S
C217 C218 1.367 . S
C218 H192 0.950 . S
C218 C213 1.386 . S
C218 C217 1.367 . S
C219 C213 1.483 . S
C219 C220 1.382 . S
C219 C221 1.403 . S
C220 H193 0.950 . S
C220 C206 1.411 . S
C220 C219 1.382 . S
C221 C205 1.411 . S
C221 C219 1.403 . S
C221 C222 1.489 . S
C222 C221 1.489 . S
C222 C223 1.383 . S
C222 C227 1.382 . S
C223 H194 0.950 . S
C223 C222 1.383 . S
C223 C224 1.395 . S
C224 H195 0.950 . S
C224 C223 1.395 . S
C224 C225 1.288 . S
C225 C224 1.288 . S
C225 C226 1.392 . S
C226 H196 0.951 . S
C226 C225 1.392 . S
C226 C227 1.392 . S
C227 H197 0.949 . S
C227 C222 1.382 . S
C227 C226 1.392 . S
H228 C247 0.949 . S
H229 C248 0.950 . S
H230 C250 0.950 . S
H231 C251 0.950 . S
H232 C253 0.950 . S
H233 C256 0.950 . S
H234 C257 0.950 . S
H235 C259 0.951 . S
H236 C260 0.949 . S
H237 C262 0.949 . S
H238 C263 0.950 . S
H239 C265 0.950 . S
H240 C266 0.950 . S
H241 C268 0.950 . S
H242 C271 0.950 . S
H243 C272 0.950 . S
H244 C274 0.951 . S
H245 C275 0.949 . S
C246 C247 1.376 . S
C246 C251 1.386 . S
C246 C252 1.483 . S
C247 H228 0.949 . S
C247 C246 1.376 . S
C247 C248 1.397 . S
C248 H229 0.950 . S
C248 C247 1.397 . S
C248 C249 1.391 . S
C249 C248 1.391 . S
C249 C250 1.405 . S
C250 H230 0.950 . S
C250 C249 1.405 . S
C250 C251 1.367 . S
C251 H231 0.950 . S
C251 C246 1.386 . S
C251 C250 1.367 . S
C252 C246 1.483 . S
C252 C253 1.382 . S
C252 C254 1.403 . S
C253 H232 0.950 . S
C253 C252 1.382 . S
C253 C269 1.411 . S
C254 C252 1.403 . S
C254 C255 1.489 . S
C254 C268 1.411 . S
C255 C254 1.489 . S
C255 C256 1.383 . S
C255 C260 1.382 . S
C256 H233 0.950 . S
C256 C255 1.383 . S
C256 C257 1.395 . S
C257 H234 0.950 . S
C257 C256 1.395 . S
C257 C258 1.288 . S
C258 C257 1.288 . S
C258 C259 1.392 . S
C259 H235 0.951 . S
C259 C258 1.392 . S
C259 C260 1.392 . S
C260 H236 0.949 . S
C260 C255 1.382 . S
C260 C259 1.392 . S
C261 C262 1.376 . S
C261 C266 1.386 . S
C261 C267 1.483 . S
C262 H237 0.949 . S
C262 C261 1.376 . S
C262 C263 1.397 . S
C263 H238 0.950 . S
C263 C262 1.397 . S
C263 C264 1.391 . S
C264 C263 1.391 . S
C264 C265 1.405 . S
C265 H239 0.950 . S
C265 C264 1.405 . S
C265 C266 1.367 . S
C266 H240 0.950 . S
C266 C261 1.386 . S
C266 C265 1.367 . S
C267 C261 1.483 . S
C267 C268 1.382 . S
C267 C269 1.403 . S
C268 H241 0.950 . S
C268 C254 1.411 . S
C268 C267 1.382 . S
C269 C253 1.411 . S
C269 C267 1.403 . S
C269 C270 1.489 . S
C270 C269 1.489 . S
C270 C271 1.383 . S
C270 C275 1.382 . S
C271 H242 0.950 . S
C271 C270 1.383 . S
C271 C272 1.395 . S
C272 H243 0.950 . S
C272 C271 1.395 . S
C272 C273 1.288 . S
C273 C272 1.288 . S
C273 C274 1.392 . S
C274 H244 0.951 . S
C274 C273 1.392 . S
C274 C275 1.392 . S
C275 H245 0.949 . S
C275 C270 1.382 . S
C275 C274 1.392 . S
H276 C295 0.949 . S
H277 C296 0.950 . S
H278 C298 0.950 . S
H279 C299 0.950 . S
H280 C301 0.950 . S
H281 C304 0.950 . S
H282 C305 0.950 . S
H283 C307 0.951 . S
H284 C308 0.949 . S
H285 C310 0.949 . S
H286 C311 0.950 . S
H287 C313 0.950 . S
H288 C314 0.950 . S
H289 C316 0.950 . S
H290 C319 0.950 . S
H291 C320 0.950 . S
H292 C322 0.951 . S
H293 C323 0.949 . S
C294 C295 1.376 . S
C294 C299 1.386 . S
C294 C300 1.483 . S
C295 H276 0.949 . S
C295 C294 1.376 . S
C295 C296 1.397 . S
C296 H277 0.950 . S
C296 C295 1.397 . S
C296 C297 1.391 . S
C297 C296 1.391 . S
C297 C298 1.405 . S
C298 H278 0.950 . S
C298 C297 1.405 . S
C298 C299 1.367 . S
C299 H279 0.950 . S
C299 C294 1.386 . S
C299 C298 1.367 . S
C300 C294 1.483 . S
C300 C301 1.382 . S
C300 C302 1.403 . S
C301 H280 0.950 . S
C301 C300 1.382 . S
C301 C317 1.411 . S
C302 C300 1.403 . S
C302 C303 1.489 . S
C302 C316 1.411 . S
C303 C302 1.489 . S
C303 C304 1.383 . S
C303 C308 1.382 . S
C304 H281 0.950 . S
C304 C303 1.383 . S
C304 C305 1.395 . S
C305 H282 0.950 . S
C305 C304 1.395 . S
C305 C306 1.288 . S
C306 C305 1.288 . S
C306 C307 1.392 . S
C307 H283 0.951 . S
C307 C306 1.392 . S
C307 C308 1.392 . S
C308 H284 0.949 . S
C308 C303 1.382 . S
C308 C307 1.392 . S
C309 C310 1.376 . S
C309 C314 1.386 . S
C309 C315 1.483 . S
C310 H285 0.949 . S
C310 C309 1.376 . S
C310 C311 1.397 . S
C311 H286 0.950 . S
C311 C310 1.397 . S
C311 C312 1.391 . S
C312 C311 1.391 . S
C312 C313 1.405 . S
C313 H287 0.950 . S
C313 C312 1.405 . S
C313 C314 1.367 . S
C314 H288 0.950 . S
C314 C309 1.386 . S
C314 C313 1.367 . S
C315 C309 1.483 . S
C315 C316 1.382 . S
C315 C317 1.403 . S
C316 H289 0.950 . S
C316 C302 1.411 . S
C316 C315 1.382 . S
C317 C301 1.411 . S
C317 C315 1.403 . S
C317 C318 1.489 . S
C318 C317 1.489 . S
C318 C319 1.383 . S
C318 C323 1.382 . S
C319 H290 0.950 . S
C319 C318 1.383 . S
C319 C320 1.395 . S
C320 H291 0.950 . S
C320 C319 1.395 . S
C320 C321 1.288 . S
C321 C320 1.288 . S
C321 C322 1.392 . S
C322 H292 0.951 . S
C322 C321 1.392 . S
C322 C323 1.392 . S
C323 H293 0.949 . S
C323 C318 1.382 . S
C323 C322 1.392 . S
H324 C343 0.949 . S
H325 C344 0.950 . S
H326 C346 0.950 . S
H327 C347 0.950 . S
H328 C349 0.950 . S
H329 C352 0.950 . S
H330 C353 0.950 . S
H331 C355 0.951 . S
H332 C356 0.949 . S
H333 C358 0.949 . S
H334 C359 0.950 . S
H335 C361 0.950 . S
H336 C362 0.950 . S
H337 C364 0.950 . S
H338 C367 0.950 . S
H339 C368 0.950 . S
H340 C370 0.951 . S
H341 C371 0.949 . S
C342 C343 1.376 . S
C342 C347 1.386 . S
C342 C348 1.483 . S
C343 H324 0.949 . S
C343 C342 1.376 . S
C343 C344 1.397 . S
C344 H325 0.950 . S
C344 C343 1.397 . S
C344 C345 1.391 . S
C345 C344 1.391 . S
C345 C346 1.405 . S
C346 H326 0.950 . S
C346 C345 1.405 . S
C346 C347 1.367 . S
C347 H327 0.950 . S
C347 C342 1.386 . S
C347 C346 1.367 . S
C348 C342 1.483 . S
C348 C349 1.382 . S
C348 C350 1.403 . S
C349 H328 0.950 . S
C349 C348 1.382 . S
C349 C365 1.411 . S
C350 C348 1.403 . S
C350 C351 1.489 . S
C350 C364 1.411 . S
C351 C350 1.489 . S
C351 C352 1.383 . S
C351 C356 1.382 . S
C352 H329 0.950 . S
C352 C351 1.383 . S
C352 C353 1.395 . S
C353 H330 0.950 . S
C353 C352 1.395 . S
C353 C354 1.288 . S
C354 C353 1.288 . S
C354 C355 1.392 . S
C355 H331 0.951 . S
C355 C354 1.392 . S
C355 C356 1.392 . S
C356 H332 0.949 . S
C356 C351 1.382 . S
C356 C355 1.392 . S
C357 C358 1.376 . S
C357 C362 1.386 . S
C357 C363 1.483 . S
C358 H333 0.949 . S
C358 C357 1.376 . S
C358 C359 1.397 . S
C359 H334 0.950 . S
C359 C358 1.397 . S
C359 C360 1.391 . S
C360 C359 1.391 . S
C360 C361 1.405 . S
C361 H335 0.950 . S
C361 C360 1.405 . S
C361 C362 1.367 . S
C362 H336 0.950 . S
C362 C357 1.386 . S
C362 C361 1.367 . S
C363 C357 1.483 . S
C363 C364 1.382 . S
C363 C365 1.403 . S
C364 H337 0.950 . S
C364 C350 1.411 . S
C364 C363 1.382 . S
C365 C349 1.411 . S
C365 C363 1.403 . S
C365 C366 1.489 . S
C366 C365 1.489 . S
C366 C367 1.383 . S
C366 C371 1.382 . S
C367 H338 0.950 . S
C367 C366 1.383 . S
C367 C368 1.395 . S
C368 H339 0.950 . S
C368 C367 1.395 . S
C368 C369 1.288 . S
C369 C368 1.288 . S
C369 C370 1.392 . S
C370 H340 0.951 . S
C370 C369 1.392 . S
C370 C371 1.392 . S
C371 H341 0.949 . S
C371 C366 1.382 . S
C371 C370 1.392 . S
C372 C373 1.363 . S
C372 C378 1.379 . S
C372 N380 1.356 . S
C373 C372 1.363 . S
C373 C379 1.363 . S
C374 C375 1.363 . S
C374 C379 1.379 . S
C374 N381 1.356 . S
C375 C374 1.363 . S
C375 C378 1.363 . S
N376 C378 1.356 . S
N376 H388 0.984 . S
N376 H389 0.985 . S
N377 C379 1.356 . S
N377 H382 0.984 . S
N377 H383 0.985 . S
C378 C372 1.379 . S
C378 C375 1.363 . S
C378 N376 1.356 . S
C379 C373 1.363 . S
C379 C374 1.379 . S
C379 N377 1.356 . S
N380 C372 1.356 . S
N380 H386 0.984 . S
N380 H387 0.984 . S
N381 C374 1.356 . S
N381 H384 0.984 . S
N381 H385 0.985 . S
H382 N377 0.984 . S
H383 N377 0.985 . S
H384 N381 0.984 . S
H385 N381 0.985 . S
H386 N380 0.984 . S
H387 N380 0.984 . S
H388 N376 0.984 . S
H389 N376 0.985 . S
C390 C391 1.363 . S
C390 C396 1.379 . S
C390 N398 1.356 . S
C391 C390 1.363 . S
C391 C397 1.363 . S
C392 C393 1.363 . S
C392 C397 1.379 . S
C392 N399 1.356 . S
C393 C392 1.363 . S
C393 C396 1.363 . S
N394 C396 1.356 . S
N394 H406 0.984 . S
N394 H407 0.985 . S
N395 C397 1.356 . S
N395 H400 0.984 . S
N395 H401 0.985 . S
C396 C390 1.379 . S
C396 C393 1.363 . S
C396 N394 1.356 . S
C397 C391 1.363 . S
C397 C392 1.379 . S
C397 N395 1.356 . S
N398 C390 1.356 . S
N398 H404 0.984 . S
N398 H405 0.984 . S
N399 C392 1.356 . S
N399 H402 0.984 . S
N399 H403 0.985 . S
H400 N395 0.984 . S
H401 N395 0.985 . S
H402 N399 0.984 . S
H403 N399 0.985 . S
H404 N398 0.984 . S
H405 N398 0.984 . S
H406 N394 0.984 . S
H407 N394 0.985 . S
C408 C409 1.363 . S
C408 C414 1.379 . S
C408 N416 1.356 . S
C409 C408 1.363 . S
C409 C415 1.363 . S
C410 C411 1.363 . S
C410 C415 1.379 . S
C410 N417 1.356 . S
C411 C410 1.363 . S
C411 C414 1.363 . S
N412 C414 1.356 . S
N412 H424 0.984 . S
N412 H425 0.985 . S
N413 C415 1.356 . S
N413 H418 0.984 . S
N413 H419 0.985 . S
C414 C408 1.379 . S
C414 C411 1.363 . S
C414 N412 1.356 . S
C415 C409 1.363 . S
C415 C410 1.379 . S
C415 N413 1.356 . S
N416 C408 1.356 . S
N416 H422 0.984 1_554 S
N416 H423 0.984 . S
N417 C410 1.356 . S
N417 H420 0.984 . S
N417 H421 0.985 . S
H418 N413 0.984 . S
H419 N413 0.985 . S
H420 N417 0.984 . S
H421 N417 0.985 . S
H422 N416 0.984 1_556 S
H423 N416 0.984 . S
H424 N412 0.984 . S
H425 N412 0.985 . S
C426 C427 1.363 . S
C426 C432 1.379 . S
C426 N434 1.356 . S
C427 C426 1.363 . S
C427 C433 1.363 . S
C428 C429 1.363 . S
C428 C433 1.379 . S
C428 N435 1.356 . S
C429 C428 1.363 . S
C429 C432 1.363 . S
N430 C432 1.356 . S
N430 H442 0.984 . S
N430 H443 0.985 . S
N431 C433 1.356 . S
N431 H436 0.984 . S
N431 H437 0.985 . S
C432 C426 1.379 . S
C432 C429 1.363 . S
C432 N430 1.356 . S
C433 C427 1.363 . S
C433 C428 1.379 . S
C433 N431 1.356 . S
N434 C426 1.356 . S
N434 H440 0.984 1_655 S
N434 H441 0.984 . S
N435 C428 1.356 . S
N435 H438 0.984 . S
N435 H439 0.985 . S
H436 N431 0.984 . S
H437 N431 0.985 . S
H438 N435 0.984 . S
H439 N435 0.985 . S
H440 N434 0.984 1_455 S
H441 N434 0.984 . S
H442 N430 0.984 . S
H443 N430 0.985 . S
C444 C445 1.363 . S
C444 C450 1.379 . S
C444 N452 1.356 . S
C445 C444 1.363 . S
C445 C451 1.363 . S
C446 C447 1.363 . S
C446 C451 1.379 . S
C446 N453 1.356 . S
C447 C446 1.363 . S
C447 C450 1.363 . S
N448 C450 1.356 . S
N448 H460 0.984 . S
N448 H461 0.985 . S
N449 C451 1.356 . S
N449 H454 0.984 . S
N449 H455 0.985 1_554 S
C450 C444 1.379 . S
C450 C447 1.363 . S
C450 N448 1.356 . S
C451 C445 1.363 . S
C451 C446 1.379 . S
C451 N449 1.356 . S
N452 C444 1.356 . S
N452 H458 0.984 . S
N452 H459 0.984 . S
N453 C446 1.356 . S
N453 H456 0.984 . S
N453 H457 0.985 . S
H454 N449 0.984 . S
H455 N449 0.985 1_556 S
H456 N453 0.984 . S
H457 N453 0.985 . S
H458 N452 0.984 . S
H459 N452 0.984 . S
H460 N448 0.984 . S
H461 N448 0.985 . S
C462 C463 1.363 . S
C462 C468 1.379 . S
C462 N470 1.356 . S
C463 C462 1.363 . S
C463 C469 1.363 . S
C464 C465 1.363 . S
C464 C469 1.379 . S
C464 N471 1.356 . S
C465 C464 1.363 . S
C465 C468 1.363 . S
N466 C468 1.356 . S
N466 H478 0.984 . S
N466 H479 0.985 . S
N467 C469 1.356 . S
N467 H472 0.984 . S
N467 H473 0.985 . S
C468 C462 1.379 . S
C468 C465 1.363 . S
C468 N466 1.356 . S
C469 C463 1.363 . S
C469 C464 1.379 . S
C469 N467 1.356 . S
N470 C462 1.356 . S
N470 H476 0.984 . S
N470 H477 0.984 . S
N471 C464 1.356 . S
N471 H474 0.984 . S
N471 H475 0.985 . S
H472 N467 0.984 . S
H473 N467 0.985 . S
H474 N471 0.984 . S
H475 N471 0.985 . S
H476 N470 0.984 . S
H477 N470 0.984 . S
H478 N466 0.984 . S
H479 N466 0.985 . S
C480 C481 1.363 . S
C480 C486 1.379 . S
C480 N488 1.356 . S
C481 C480 1.363 . S
C481 C487 1.363 . S
C482 C483 1.363 . S
C482 C487 1.379 . S
C482 N489 1.356 . S
C483 C482 1.363 . S
C483 C486 1.363 . S
N484 C486 1.356 . S
N484 H496 0.984 . S
N484 H497 0.985 . S
N485 C487 1.356 . S
N485 H490 0.984 . S
N485 H491 0.985 . S
C486 C480 1.379 . S
C486 C483 1.363 . S
C486 N484 1.356 . S
C487 C481 1.363 . S
C487 C482 1.379 . S
C487 N485 1.356 . S
N488 C480 1.356 . S
N488 H494 0.984 . S
N488 H495 0.984 . S
N489 C482 1.356 . S
N489 H492 0.984 . S
N489 H493 0.985 . S
H490 N485 0.984 . S
H491 N485 0.985 . S
H492 N489 0.984 . S
H493 N489 0.985 . S
H494 N488 0.984 . S
H495 N488 0.984 . S
H496 N484 0.984 . S
H497 N484 0.985 . S
C498 C499 1.363 . S
C498 C504 1.379 . S
C498 N506 1.356 . S
C499 C498 1.363 . S
C499 C505 1.363 . S
C500 C501 1.363 . S
C500 C505 1.379 . S
C500 N507 1.356 . S
C501 C500 1.363 . S
C501 C504 1.363 . S
N502 C504 1.356 . S
N502 H514 0.984 . S
N502 H515 0.985 . S
N503 C505 1.356 . S
N503 H508 0.984 . S
N503 H509 0.985 1_556 S
C504 C498 1.379 . S
C504 C501 1.363 . S
C504 N502 1.356 . S
C505 C499 1.363 . S
C505 C500 1.379 . S
C505 N503 1.356 . S
N506 C498 1.356 . S
N506 H512 0.984 . S
N506 H513 0.984 . S
N507 C500 1.356 . S
N507 H510 0.984 . S
N507 H511 0.985 . S
H508 N503 0.984 . S
H509 N503 0.985 1_554 S
H510 N507 0.984 . S
H511 N507 0.985 . S
H512 N506 0.984 . S
H513 N506 0.984 . S
H514 N502 0.984 . S
H515 N502 0.985 . S
C516 C517 1.363 . S
C516 C522 1.379 . S
C516 N524 1.356 . S
C517 C516 1.363 . S
C517 C523 1.363 . S
C518 C519 1.363 . S
C518 C523 1.379 . S
C518 N525 1.356 . S
C519 C518 1.363 . S
C519 C522 1.363 . S
N520 C522 1.356 . S
N520 H532 0.984 . S
N520 H533 0.985 . S
N521 C523 1.356 . S
N521 H526 0.984 . S
N521 H527 0.985 . S
C522 C516 1.379 . S
C522 C519 1.363 . S
C522 N520 1.356 . S
C523 C517 1.363 . S
C523 C518 1.379 . S
C523 N521 1.356 . S
N524 C516 1.356 . S
N524 H530 0.984 . S
N524 H531 0.984 . S
N525 C518 1.356 . S
N525 H528 0.984 . S
N525 H529 0.985 . S
H526 N521 0.984 . S
H527 N521 0.985 . S
H528 N525 0.984 . S
H529 N525 0.985 . S
H530 N524 0.984 . S
H531 N524 0.984 . S
H532 N520 0.984 . S
H533 N520 0.985 . S
C534 C535 1.363 . S
C534 C540 1.379 . S
C534 N542 1.356 . S
C535 C534 1.363 . S
C535 C541 1.363 . S
C536 C537 1.363 . S
C536 C541 1.379 . S
C536 N543 1.356 . S
C537 C536 1.363 . S
C537 C540 1.363 . S
N538 C540 1.356 . S
N538 H550 0.984 . S
N538 H551 0.985 . S
N539 C541 1.356 . S
N539 H544 0.984 . S
N539 H545 0.985 1_545 S
C540 C534 1.379 . S
C540 C537 1.363 . S
C540 N538 1.356 . S
C541 C535 1.363 . S
C541 C536 1.379 . S
C541 N539 1.356 . S
N542 C534 1.356 . S
N542 H548 0.984 . S
N542 H549 0.984 . S
N543 C536 1.356 . S
N543 H546 0.984 . S
N543 H547 0.985 . S
H544 N539 0.984 . S
H545 N539 0.985 1_565 S
H546 N543 0.984 . S
H547 N543 0.985 . S
H548 N542 0.984 . S
H549 N542 0.984 . S
H550 N538 0.984 . S
H551 N538 0.985 . S
C552 C553 1.363 . S
C552 C558 1.379 . S
C552 N560 1.356 . S
C553 C552 1.363 . S
C553 C559 1.363 . S
C554 C555 1.363 . S
C554 C559 1.379 . S
C554 N561 1.356 . S
C555 C554 1.363 . S
C555 C558 1.363 . S
N556 C558 1.356 . S
N556 H568 0.984 . S
N556 H569 0.985 . S
N557 C559 1.356 . S
N557 H562 0.984 . S
N557 H563 0.985 . S
C558 C552 1.379 . S
C558 C555 1.363 . S
C558 N556 1.356 . S
C559 C553 1.363 . S
C559 C554 1.379 . S
C559 N557 1.356 . S
N560 C552 1.356 . S
N560 H566 0.984 . S
N560 H567 0.984 . S
N561 C554 1.356 . S
N561 H564 0.984 . S
N561 H565 0.985 . S
H562 N557 0.984 . S
H563 N557 0.985 . S
H564 N561 0.984 . S
H565 N561 0.985 . S
H566 N560 0.984 . S
H567 N560 0.984 . S
H568 N556 0.984 . S
H569 N556 0.985 . S
C570 C571 1.363 . S
C570 C576 1.379 . S
C570 N578 1.356 . S
C571 C570 1.363 . S
C571 C577 1.363 . S
C572 C573 1.363 . S
C572 C577 1.379 . S
C572 N579 1.356 . S
C573 C572 1.363 . S
C573 C576 1.363 . S
N574 C576 1.356 . S
N574 H586 0.984 . S
N574 H587 0.985 . S
N575 C577 1.356 . S
N575 H580 0.984 . S
N575 H581 0.985 . S
C576 C570 1.379 . S
C576 C573 1.363 . S
C576 N574 1.356 . S
C577 C571 1.363 . S
C577 C572 1.379 . S
C577 N575 1.356 . S
N578 C570 1.356 . S
N578 H584 0.984 1_556 S
N578 H585 0.984 . S
N579 C572 1.356 . S
N579 H582 0.984 . S
N579 H583 0.985 . S
H580 N575 0.984 . S
H581 N575 0.985 . S
H582 N579 0.984 . S
H583 N579 0.985 . S
H584 N578 0.984 1_554 S
H585 N578 0.984 . S
H586 N574 0.984 . S
H587 N574 0.985 . S
C588 C589 1.363 . S
C588 C594 1.379 . S
C588 N596 1.356 . S
C589 C588 1.363 . S
C589 C595 1.363 . S
C590 C591 1.363 . S
C590 C595 1.379 . S
C590 N597 1.356 . S
C591 C590 1.363 . S
C591 C594 1.363 . S
N592 C594 1.356 . S
N592 H604 0.984 . S
N592 H605 0.985 . S
N593 C595 1.356 . S
N593 H598 0.984 . S
N593 H599 0.985 1_556 S
C594 C588 1.379 . S
C594 C591 1.363 . S
C594 N592 1.356 . S
C595 C589 1.363 . S
C595 C590 1.379 . S
C595 N593 1.356 . S
N596 C588 1.356 . S
N596 H602 0.984 . S
N596 H603 0.984 . S
N597 C590 1.356 . S
N597 H600 0.984 . S
N597 H601 0.985 . S
H598 N593 0.984 . S
H599 N593 0.985 1_554 S
H600 N597 0.984 . S
H601 N597 0.985 . S
H602 N596 0.984 . S
H603 N596 0.984 . S
H604 N592 0.984 . S
H605 N592 0.985 . S
C606 C607 1.363 . S
C606 C612 1.379 . S
C606 N614 1.356 . S
C607 C606 1.363 . S
C607 C613 1.363 . S
C608 C609 1.363 . S
C608 C613 1.379 . S
C608 N615 1.356 . S
C609 C608 1.363 . S
C609 C612 1.363 . S
N610 C612 1.356 . S
N610 H622 0.984 . S
N610 H623 0.985 . S
N611 C613 1.356 . S
N611 H616 0.984 . S
N611 H617 0.985 1_565 S
C612 C606 1.379 . S
C612 C609 1.363 . S
C612 N610 1.356 . S
C613 C607 1.363 . S
C613 C608 1.379 . S
C613 N611 1.356 . S
N614 C606 1.356 . S
N614 H620 0.984 . S
N614 H621 0.984 . S
N615 C608 1.356 . S
N615 H618 0.984 . S
N615 H619 0.985 . S
H616 N611 0.984 . S
H617 N611 0.985 1_545 S
H618 N615 0.984 . S
H619 N615 0.985 . S
H620 N614 0.984 . S
H621 N614 0.984 . S
H622 N610 0.984 . S
H623 N610 0.985 . S
C624 C625 1.363 . S
C624 C630 1.379 . S
C624 N632 1.356 . S
C625 C624 1.363 . S
C625 C631 1.363 . S
C626 C627 1.363 . S
C626 C631 1.379 . S
C626 N633 1.356 . S
C627 C626 1.363 . S
C627 C630 1.363 . S
N628 C630 1.356 . S
N628 H640 0.984 . S
N628 H641 0.985 . S
N629 C631 1.356 . S
N629 H634 0.984 . S
N629 H635 0.985 . S
C630 C624 1.379 . S
C630 C627 1.363 . S
C630 N628 1.356 . S
C631 C625 1.363 . S
C631 C626 1.379 . S
C631 N629 1.356 . S
N632 C624 1.356 . S
N632 H638 0.984 . S
N632 H639 0.984 . S
N633 C626 1.356 . S
N633 H636 0.984 . S
N633 H637 0.985 . S
H634 N629 0.984 . S
H635 N629 0.985 . S
H636 N633 0.984 . S
H637 N633 0.985 . S
H638 N632 0.984 . S
H639 N632 0.984 . S
H640 N628 0.984 . S
H641 N628 0.985 . S
C642 C643 1.363 . S
C642 C648 1.379 . S
C642 N650 1.356 . S
C643 C642 1.363 . S
C643 C649 1.363 . S
C644 C645 1.363 . S
C644 C649 1.379 . S
C644 N651 1.356 . S
C645 C644 1.363 . S
C645 C648 1.363 . S
N646 C648 1.356 . S
N646 H658 0.984 . S
N646 H659 0.985 . S
N647 C649 1.356 . S
N647 H652 0.984 . S
N647 H653 0.985 . S
C648 C642 1.379 . S
C648 C645 1.363 . S
C648 N646 1.356 . S
C649 C643 1.363 . S
C649 C644 1.379 . S
C649 N647 1.356 . S
N650 C642 1.356 . S
N650 H656 0.984 . S
N650 H657 0.984 . S
N651 C644 1.356 . S
N651 H654 0.984 . S
N651 H655 0.985 . S
H652 N647 0.984 . S
H653 N647 0.985 . S
H654 N651 0.984 . S
H655 N651 0.985 . S
H656 N650 0.984 . S
H657 N650 0.984 . S
H658 N646 0.984 . S
H659 N646 0.985 . S
C660 C661 1.363 . S
C660 C666 1.379 . S
C660 N668 1.356 . S
C661 C660 1.363 . S
C661 C667 1.363 . S
C662 C663 1.363 . S
C662 C667 1.379 . S
C662 N669 1.356 . S
C663 C662 1.363 . S
C663 C666 1.363 . S
N664 C666 1.356 . S
N664 H676 0.984 . S
N664 H677 0.985 . S
N665 C667 1.356 . S
N665 H670 0.984 . S
N665 H671 0.985 . S
C666 C660 1.379 . S
C666 C663 1.363 . S
C666 N664 1.356 . S
C667 C661 1.363 . S
C667 C662 1.379 . S
C667 N665 1.356 . S
N668 C660 1.356 . S
N668 H674 0.984 . S
N668 H675 0.984 . S
N669 C662 1.356 . S
N669 H672 0.984 . S
N669 H673 0.985 . S
H670 N665 0.984 . S
H671 N665 0.985 . S
H672 N669 0.984 . S
H673 N669 0.985 . S
H674 N668 0.984 . S
H675 N668 0.984 . S
H676 N664 0.984 . S
H677 N664 0.985 . S
C678 C679 1.363 . S
C678 C684 1.379 . S
C678 N686 1.356 . S
C679 C678 1.363 . S
C679 C685 1.363 . S
C680 C681 1.363 . S
C680 C685 1.379 . S
C680 N687 1.356 . S
C681 C680 1.363 . S
C681 C684 1.363 . S
N682 C684 1.356 . S
N682 H694 0.984 . S
N682 H695 0.985 . S
N683 C685 1.356 . S
N683 H688 0.984 . S
N683 H689 0.985 . S
C684 C678 1.379 . S
C684 C681 1.363 . S
C684 N682 1.356 . S
C685 C679 1.363 . S
C685 C680 1.379 . S
C685 N683 1.356 . S
N686 C678 1.356 . S
N686 H692 0.984 . S
N686 H693 0.984 . S
N687 C680 1.356 . S
N687 H690 0.984 . S
N687 H691 0.985 . S
H688 N683 0.984 . S
H689 N683 0.985 . S
H690 N687 0.984 . S
H691 N687 0.985 . S
H692 N686 0.984 . S
H693 N686 0.984 . S
H694 N682 0.984 . S
H695 N682 0.985 . S
C696 C697 1.363 . S
C696 C702 1.379 . S
C696 N704 1.356 . S
C697 C696 1.363 . S
C697 C703 1.363 . S
C698 C699 1.363 . S
C698 C703 1.379 . S
C698 N705 1.356 . S
C699 C698 1.363 . S
C699 C702 1.363 . S
N700 C702 1.356 . S
N700 H712 0.984 . S
N700 H713 0.985 . S
N701 C703 1.356 . S
N701 H706 0.984 . S
N701 H707 0.985 . S
C702 C696 1.379 . S
C702 C699 1.363 . S
C702 N700 1.356 . S
C703 C697 1.363 . S
C703 C698 1.379 . S
C703 N701 1.356 . S
N704 C696 1.356 . S
N704 H710 0.984 1_545 S
N704 H711 0.984 . S
N705 C698 1.356 . S
N705 H708 0.984 . S
N705 H709 0.985 . S
H706 N701 0.984 . S
H707 N701 0.985 . S
H708 N705 0.984 . S
H709 N705 0.985 . S
H710 N704 0.984 1_565 S
H711 N704 0.984 . S
H712 N700 0.984 . S
H713 N700 0.985 . S
C714 C715 1.363 . S
C714 C720 1.379 . S
C714 N722 1.356 . S
C715 C714 1.363 . S
C715 C721 1.363 . S
C716 C717 1.363 . S
C716 C721 1.379 . S
C716 N723 1.356 . S
C717 C716 1.363 . S
C717 C720 1.363 . S
N718 C720 1.356 . S
N718 H730 0.984 . S
N718 H731 0.985 . S
N719 C721 1.356 . S
N719 H724 0.984 . S
N719 H725 0.985 . S
C720 C714 1.379 . S
C720 C717 1.363 . S
C720 N718 1.356 . S
C721 C715 1.363 . S
C721 C716 1.379 . S
C721 N719 1.356 . S
N722 C714 1.356 . S
N722 H728 0.984 1_554 S
N722 H729 0.985 . S
N723 C716 1.356 . S
N723 H726 0.984 . S
N723 H727 0.985 . S
H724 N719 0.984 . S
H725 N719 0.985 . S
H726 N723 0.984 . S
H727 N723 0.985 . S
H728 N722 0.984 1_556 S
H729 N722 0.985 . S
H730 N718 0.984 . S
H731 N718 0.985 . S
C732 C733 1.363 . S
C732 C738 1.379 . S
C732 N740 1.356 . S
C733 C732 1.363 . S
C733 C739 1.363 . S
C734 C735 1.363 . S
C734 C739 1.379 . S
C734 N741 1.356 . S
C735 C734 1.363 . S
C735 C738 1.363 . S
N736 C738 1.356 . S
N736 H748 0.984 . S
N736 H749 0.985 . S
N737 C739 1.356 . S
N737 H742 0.974 . S
N737 H743 0.985 1_655 S
C738 C732 1.379 . S
C738 C735 1.363 . S
C738 N736 1.356 . S
C739 C733 1.363 . S
C739 C734 1.379 . S
C739 N737 1.356 . S
N740 C732 1.356 . S
N740 H746 0.984 . S
N740 H747 0.984 . S
N741 C734 1.356 . S
N741 H744 0.984 . S
N741 H745 0.985 . S
H742 N737 0.974 . S
H743 N737 0.985 1_455 S
H744 N741 0.984 . S
H745 N741 0.985 . S
H746 N740 0.984 . S
H747 N740 0.984 . S
H748 N736 0.984 . S
H749 N736 0.985 . S
C750 C751 1.363 . S
C750 C756 1.379 . S
C750 N758 1.356 . S
C751 C750 1.363 . S
C751 C757 1.363 . S
C752 C753 1.363 . S
C752 C757 1.379 . S
C752 N759 1.356 . S
C753 C752 1.363 . S
C753 C756 1.363 . S
N754 C756 1.356 . S
N754 H766 0.984 . S
N754 H767 0.985 . S
N755 C757 1.356 . S
N755 H760 0.987 . S
N755 H761 0.985 1_554 S
C756 C750 1.379 . S
C756 C753 1.363 . S
C756 N754 1.356 . S
C757 C751 1.363 . S
C757 C752 1.379 . S
C757 N755 1.356 . S
N758 C750 1.356 . S
N758 H764 0.984 . S
N758 H765 0.984 . S
N759 C752 1.356 . S
N759 H762 0.984 . S
N759 H763 0.985 . S
H760 N755 0.987 . S
H761 N755 0.985 1_556 S
H762 N759 0.984 . S
H763 N759 0.985 . S
H764 N758 0.984 . S
H765 N758 0.984 . S
H766 N754 0.984 . S
H767 N754 0.985 . S
C768 C769 1.363 . S
C768 C774 1.379 . S
C768 N776 1.356 . S
C769 C768 1.363 . S
C769 C775 1.363 . S
C770 C771 1.363 . S
C770 C775 1.379 . S
C770 N777 1.356 . S
C771 C770 1.363 . S
C771 C774 1.363 . S
N772 C774 1.356 . S
N772 H784 0.984 . S
N772 H785 0.985 . S
N773 C775 1.356 . S
N773 H778 0.984 . S
N773 H779 0.985 . S
C774 C768 1.379 . S
C774 C771 1.363 . S
C774 N772 1.356 . S
C775 C769 1.363 . S
C775 C770 1.379 . S
C775 N773 1.356 . S
N776 C768 1.356 . S
N776 H782 0.984 . S
N776 H783 0.984 . S
N777 C770 1.356 . S
N777 H780 0.984 . S
N777 H781 0.985 . S
H778 N773 0.984 . S
H779 N773 0.985 . S
H780 N777 0.984 . S
H781 N777 0.985 . S
H782 N776 0.984 . S
H783 N776 0.984 . S
H784 N772 0.984 . S
H785 N772 0.985 . S
C786 C787 1.363 . S
C786 C792 1.379 . S
C786 N794 1.356 . S
C787 C786 1.363 . S
C787 C793 1.363 . S
C788 C789 1.363 . S
C788 C793 1.379 . S
C788 N795 1.356 . S
C789 C788 1.363 . S
C789 C792 1.363 . S
N790 C792 1.356 . S
N790 H802 0.984 . S
N790 H803 0.985 . S
N791 C793 1.356 . S
N791 H796 0.984 . S
N791 H797 0.985 . S
C792 C786 1.379 . S
C792 C789 1.363 . S
C792 N790 1.356 . S
C793 C787 1.363 . S
C793 C788 1.379 . S
C793 N791 1.356 . S
N794 C786 1.356 . S
N794 H800 0.984 1_554 S
N794 H801 0.984 . S
N795 C788 1.356 . S
N795 H798 0.984 . S
N795 H799 0.985 . S
H796 N791 0.984 . S
H797 N791 0.985 . S
H798 N795 0.984 . S
H799 N795 0.985 . S
H800 N794 0.984 1_556 S
H801 N794 0.984 . S
H802 N790 0.984 . S
H803 N790 0.985 . S
C373 C13 1.771 . S
C375 C105 1.737 . S
C391 C27 1.767 . S
C393 C162 1.759 . S
C411 C216 1.707 . S
C409 C29 1.771 . S
C429 C273 1.673 . S
C427 C54 1.767 . S
C447 C297 1.738 . S
C445 C69 1.771 . S
C465 C354 1.759 . S
C463 C83 1.766 . S
C481 C15 1.771 . S
C483 C201 1.737 . S
C499 C41 1.766 . S
C501 C258 1.758 . S
C519 C312 1.707 . S
C517 C42 1.772 . S
C537 C369 1.673 . S
C535 C57 1.766 . S
C553 C71 1.771 . S
C555 C120 1.707 . S
C573 C177 1.673 . S
C571 C1 1.767 . S
C591 C264 1.737 . S
C589 C12 1.771 . S
C607 C26 1.766 . S
C609 C306 1.673 . S
C627 C345 1.707 . S
C625 C28 1.771 . S
C643 C55 1.767 . S
C645 C114 1.673 . S
C661 C68 1.771 . S
C663 C153 1.707 . S
C679 C82 1.766 . S
C681 C225 1.759 . S
C697 C14 1.771 . S
C699 C360 1.737 . S
C717 C129 1.759 . S
C715 C40 1.766 . S
C733 C43 1.772 . S
C735 C168 1.737 . S
C751 C56 1.766 . S
C753 C210 1.673 . S
C769 C70 1.771 . S
C771 C249 1.707 . S
C787 C0 1.766 . S
C789 C321 1.759 . S
