# Generated by pormake.
# Topology rtl, (3,6)-cn, num edge types: 1
# Building blocks:
#     Node 0, Type 0, BuildingBlock: INOVEN_clean_linker_0, # of connection points: 3
#     Node 1, Type 0, BuildingBlock: INOVEN_clean_linker_0, # of connection points: 3
#     Node 2, Type 0, BuildingBlock: INOVEN_clean_linker_0, # of connection points: 3
#     Node 3, Type 0, BuildingBlock: INOVEN_clean_linker_0, # of connection points: 3
#     Node 4, Type 1, BuildingBlock: LEVNOQ01_clean_sbu_1, # of connection points: 6
#     Node 5, Type 1, BuildingBlock: LEVNOQ01_clean_sbu_1, # of connection points: 6
#     Edge 6, Type (0, 1), BuildingBlock: UVAHIK_clean_linker_0, # of connection points: 2
#     Edge 7, Type (0, 1), BuildingBlock: UVAHIK_clean_linker_0, # of connection points: 2
#     Edge 8, Type (0, 1), BuildingBlock: UVAHIK_clean_linker_0, # of connection points: 2
#     Edge 9, Type (0, 1), BuildingBlock: UVAHIK_clean_linker_0, # of connection points: 2
#     Edge 10, Type (0, 1), BuildingBlock: UVAHIK_clean_linker_0, # of connection points: 2
#     Edge 11, Type (0, 1), BuildingBlock: UVAHIK_clean_linker_0, # of connection points: 2
#     Edge 12, Type (0, 1), BuildingBlock: UVAHIK_clean_linker_0, # of connection points: 2
#     Edge 13, Type (0, 1), BuildingBlock: UVAHIK_clean_linker_0, # of connection points: 2
#     Edge 14, Type (0, 1), BuildingBlock: UVAHIK_clean_linker_0, # of connection points: 2
#     Edge 15, Type (0, 1), BuildingBlock: UVAHIK_clean_linker_0, # of connection points: 2
#     Edge 16, Type (0, 1), BuildingBlock: UVAHIK_clean_linker_0, # of connection points: 2
#     Edge 17, Type (0, 1), BuildingBlock: UVAHIK_clean_linker_0, # of connection points: 2
# Relax obj value: 0.015
# Max RMSD: 0.117
# Mean RMSD: 0.085
data_MOF--net-rtl--node1-LEVNOQ01_clean_sbu_1--node2-INOVEN_clean_linker_0--edge1-UVAHIK_clean_linker_0
_symmetry_space_group_name_H-M    P1
_symmetry_Int_Tables_number       1
_symmetry_cell_setting            triclinic
loop_
_symmetry_equiv_pos_as_xyz
'x, y, z'
_cell_length_a     45.412227
_cell_length_b     45.744874
_cell_length_c     28.892257
_cell_angle_alpha  91.096757
_cell_angle_beta   99.195247
_cell_angle_gamma 89.991233
loop_
_atom_site_label
_atom_site_type_symbol
_atom_site_fract_x
_atom_site_fract_y
_atom_site_fract_z
_atom_type_partial_charge
H0 H 0.21779 0.81513 0.00223 0.0
H1 H 0.16131 0.87385 0.06603 0.0
H2 H 0.23059 0.82628 0.15205 0.0
N3 N 0.24945 0.79677 0.08013 0.0
N4 N 0.26246 0.78749 0.11834 0.0
C5 C 0.21169 0.82583 0.03311 0.0
C6 C 0.18786 0.84569 0.02861 0.0
C7 C 0.22696 0.81853 0.07736 0.0
C8 C 0.21875 0.83175 0.11775 0.0
C9 C 0.19515 0.8519 0.11399 0.0
C10 C 0.17985 0.85872 0.06925 0.0
H11 H 0.71843 0.70985 0.67856 0.0
H12 H 0.65423 0.65811 0.58695 0.0
H13 H 0.70899 0.72057 0.52953 0.0
N14 N 0.7388 0.73942 0.61376 0.0
N15 N 0.75048 0.75005 0.58163 0.0
C16 C 0.7074 0.70401 0.6435 0.0
C17 C 0.68577 0.68185 0.63696 0.0
C18 C 0.71587 0.71799 0.60508 0.0
C19 C 0.70207 0.71008 0.55932 0.0
C20 C 0.67971 0.68834 0.55209 0.0
C21 C 0.67176 0.67446 0.59142 0.0
H22 H 0.79507 0.20658 0.91914 0.0
H23 H 0.86299 0.15987 0.00944 0.0
H24 H 0.81152 0.22645 0.06694 0.0
N25 N 0.77869 0.24091 0.98419 0.0
N26 N 0.78009 0.26351 0.00928 0.0
C27 C 0.80718 0.20232 0.95382 0.0
C28 C 0.82989 0.18128 0.95963 0.0
C29 C 0.80071 0.21882 0.99213 0.0
C30 C 0.8165 0.21367 0.0372 0.0
C31 C 0.83885 0.19218 0.04382 0.0
C32 C 0.84542 0.1761 0.00479 0.0
H33 H 0.28123 0.32395 0.4091 0.0
H34 H 0.34627 0.3751 0.50049 0.0
H35 H 0.286 0.31843 0.55814 0.0
N36 N 0.25838 0.29742 0.47422 0.0
N37 N 0.24045 0.29341 0.50198 0.0
C38 C 0.29162 0.33071 0.44407 0.0
C39 C 0.31441 0.35175 0.4502 0.0
C40 C 0.28124 0.31885 0.48266 0.0
C41 C 0.29414 0.32769 0.52834 0.0
C42 C 0.31778 0.34808 0.53537 0.0
C43 C 0.32762 0.35999 0.49587 0.0
O44 O 0.01818 0.0591 0.63904 0.0
Mg45 Mg 0.05516 0.04032 0.61279 0.0
O46 O 0.98349 0.03541 0.58904 0.0
Mg47 Mg 0.00587 0.01127 0.53209 0.0
O48 O 0.04599 0.0423 0.5419 0.0
O49 O 0.08417 0.06622 0.58353 0.0
O50 O 0.02855 0.98682 0.47528 0.0
O51 O 0.98401 0.04636 0.47828 0.0
Mg52 Mg 0.9576 0.98466 0.45146 0.0
O53 O 0.96496 0.98064 0.52256 0.0
O54 O 0.99349 0.96632 0.42245 0.0
O55 O 0.94446 0.02731 0.43284 0.0
O56 O 0.9275 0.95813 0.47603 0.0
C57 C 0.05151 0.97511 0.61803 0.0
C58 C 0.99107 0.05255 0.62433 0.0
C59 C 0.06809 0.06034 0.5435 0.0
C60 C 0.02081 0.97114 0.43823 0.0
C61 C 0.96101 0.04902 0.44676 0.0
C62 C 0.94197 0.96338 0.51752 0.0
O63 O 0.06736 -0.00258 0.6314 0.0
O64 O 0.02835 0.97665 0.58646 0.0
O65 O 0.55739 0.51423 0.15792 0.0
Mg66 Mg 0.53922 0.47491 0.12592 0.0
O67 O 0.52936 0.54259 0.10714 0.0
Mg68 Mg 0.50536 0.51388 0.04407 0.0
O69 O 0.5397 0.4766 0.05556 0.0
O70 O 0.56688 0.4448 0.10182 0.0
O71 O 0.48105 0.48526 0.98082 0.0
O72 O 0.53757 0.53496 0.99818 0.0
Mg73 Mg 0.4694 0.55355 0.96216 0.0
O74 O 0.47161 0.5511 0.03267 0.0
O75 O 0.45131 0.51371 0.93225 0.0
O76 O 0.51195 0.56638 0.94946 0.0
O77 O 0.44264 0.58322 0.99047 0.0
C78 C 0.473 0.47346 0.12028 0.0
C79 C 0.54839 0.53936 0.14433 0.0
C80 C 0.5591 0.45565 0.06082 0.0
C81 C 0.46104 0.48861 0.9448 0.0
C82 C 0.53637 0.55458 0.96702 0.0
C83 C 0.45251 0.57218 0.03067 0.0
O84 O 0.49704 0.46131 0.13841 0.0
O85 O 0.47253 0.49302 0.08924 0.0
C86 C 0.22228 0.24636 0.4655 0.0
C87 C 0.21826 0.27129 0.49293 0.0
C88 C 0.20036 0.2246 0.45766 0.0
C89 C 0.13341 0.19814 0.50485 0.0
H90 H 0.12721 0.14551 0.39678 0.0
C91 C 0.05488 0.10187 0.49164 0.0
C92 C 0.07322 0.07757 0.50336 0.0
C93 C 0.06637 0.12654 0.47281 0.0
C94 C 0.1284 0.1604 0.42664 0.0
H95 H 0.18843 0.29349 0.53274 0.0
H96 H 0.14914 0.25656 0.51692 0.0
H97 H 0.15959 0.18852 0.40128 0.0
H98 H 0.11618 0.05819 0.4994 0.0
H99 H 0.13576 0.10069 0.46424 0.0
H100 H 0.10197 0.17003 0.52974 0.0
C101 C 0.16956 0.25296 0.50283 0.0
C102 C 0.14729 0.18481 0.42976 0.0
C103 C 0.1919 0.27431 0.51174 0.0
C104 C 0.10152 0.07654 0.48983 0.0
C105 C 0.11275 0.10092 0.46998 0.0
C106 C 0.114 0.17429 0.50103 0.0
C107 C 0.17358 0.22754 0.47613 0.0
C108 C 0.15078 0.20357 0.46966 0.0
C109 C 0.09604 0.12679 0.46458 0.0
C110 C 0.11185 0.15483 0.46253 0.0
H111 H 0.24268 0.24335 0.45105 0.0
H112 H 0.20489 0.20517 0.43805 0.0
H113 H 0.13573 0.2114 0.53664 0.0
H114 H 0.03318 0.10328 0.5026 0.0
H115 H 0.05314 0.14632 0.46899 0.0
C116 C 0.29248 0.75262 0.07948 0.0
C117 C 0.28405 0.76488 0.12038 0.0
C118 C 0.31218 0.72907 0.08232 0.0
C119 C 0.37021 0.68993 0.16009 0.0
H120 H 0.34922 0.62724 0.06855 0.0
C121 C 0.41413 0.57389 0.08186 0.0
C122 C 0.44144 0.58417 0.07189 0.0
C123 C 0.39609 0.59219 0.10457 0.0
C124 C 0.3552 0.64417 0.09511 0.0
H125 H 0.29005 0.76293 0.19588 0.0
H126 H 0.32479 0.72144 0.20104 0.0
H127 H 0.31518 0.66786 0.07183 0.0
H128 H 0.47296 0.62001 0.08162 0.0
H129 H 0.44174 0.65196 0.1217 0.0
H130 H 0.41082 0.66643 0.18223 0.0
C131 C 0.31617 0.73013 0.16695 0.0
C132 C 0.33586 0.66771 0.09644 0.0
C133 C 0.29635 0.75372 0.16406 0.0
C134 C 0.45213 0.61153 0.08976 0.0
C135 C 0.43414 0.62985 0.11254 0.0
C136 C 0.38979 0.66636 0.15851 0.0
C137 C 0.32388 0.71726 0.12599 0.0
C138 C 0.34343 0.69117 0.12813 0.0
C139 C 0.40509 0.62109 0.11718 0.0
C140 C 0.38269 0.64348 0.12538 0.0
H141 H 0.28357 0.76091 0.04524 0.0
H142 H 0.31818 0.71998 0.05021 0.0
H143 H 0.3766 0.70773 0.18492 0.0
H144 H 0.40532 0.55299 0.06767 0.0
H145 H 0.374 0.58468 0.10838 0.0
C146 C 0.78827 0.77963 0.5542 0.0
C147 C 0.77357 0.7713 0.59086 0.0
C148 C 0.81139 0.80014 0.56202 0.0
C149 C 0.83997 0.86202 0.63752 0.0
H150 H 0.90941 0.85097 0.57662 0.0
C151 C 0.9017 0.95303 0.5625 0.0
C152 C 0.93159 0.94927 0.55709 0.0
C153 C 0.8875 0.93246 0.58634 0.0
C154 C 0.89061 0.85423 0.59495 0.0
H155 H 0.77112 0.77807 0.66478 0.0
H156 H 0.81138 0.81432 0.67836 0.0
H157 H 0.87404 0.81104 0.57677 0.0
H158 H 0.97108 0.92289 0.57566 0.0
H159 H 0.94619 0.88654 0.61757 0.0
H160 H 0.85593 0.90571 0.65387 0.0
C161 C 0.80514 0.80482 0.64355 0.0
C162 C 0.8701 0.83145 0.59438 0.0
C163 C 0.78217 0.78404 0.63577 0.0
C164 C 0.94805 0.92633 0.57997 0.0
C165 C 0.93371 0.90543 0.60345 0.0
C166 C 0.86044 0.88492 0.63786 0.0
C167 C 0.8201 0.81295 0.60678 0.0
C168 C 0.84404 0.83545 0.61414 0.0
C169 C 0.90286 0.90745 0.60447 0.0
C170 C 0.88544 0.88161 0.61509 0.0
H171 H 0.78184 0.77012 0.51943 0.0
H172 H 0.82213 0.80637 0.53278 0.0
H173 H 0.8201 0.86572 0.65311 0.0
H174 H 0.88858 0.97045 0.5446 0.0
H175 H 0.86373 0.93467 0.58614 0.0
C176 C 0.729 0.2795 0.97816 0.0
C177 C 0.75798 0.28556 0.00157 0.0
C178 C 0.7075 0.30158 0.97217 0.0
C179 C 0.69211 0.37544 0.01974 0.0
H180 H 0.62534 0.3726 0.91758 0.0
C181 C 0.60024 0.45917 0.01515 0.0
C182 C 0.57423 0.44482 0.02284 0.0
C183 C 0.62243 0.44363 0.99685 0.0
C184 C 0.6441 0.37383 0.94588 0.0
H185 H 0.78753 0.319 0.03589 0.0
H186 H 0.75076 0.35812 0.02328 0.0
H187 H 0.66612 0.33757 0.91857 0.0
H188 H 0.54938 0.40427 0.01347 0.0
H189 H 0.5876 0.37735 0.97974 0.0
H190 H 0.67009 0.41173 0.04681 0.0
C191 C 0.74401 0.33626 0.01103 0.0
C192 C 0.66731 0.35355 0.94692 0.0
C193 C 0.76522 0.31399 0.01804 0.0
C194 C 0.56906 0.41586 0.00686 0.0
C195 C 0.591 0.40045 0.98783 0.0
C196 C 0.66933 0.39602 0.01808 0.0
C197 C 0.71465 0.33034 0.98859 0.0
C198 C 0.69132 0.35362 0.98453 0.0
C199 C 0.61863 0.41369 0.9856 0.0
C200 C 0.64482 0.39507 0.98172 0.0
H201 H 0.72278 0.25757 0.96553 0.0
H202 H 0.6851 0.29582 0.95572 0.0
H203 H 0.70963 0.37601 0.04991 0.0
H204 H 0.60487 0.48135 0.02814 0.0
H205 H 0.64354 0.45431 0.99533 0.0
C206 C 0.18269 0.84702 0.19509 0.0
C207 C 0.18532 0.86469 0.15666 0.0
C208 C 0.17072 0.85831 0.23333 0.0
C209 C 0.14883 0.92714 0.28967 0.0
H210 H 0.08797 0.87777 0.32791 0.0
C211 C 0.07425 0.96423 0.42644 0.0
C212 C 0.04367 0.95824 0.41269 0.0
C213 C 0.09537 0.9521 0.40123 0.0
C214 C 0.10496 0.89181 0.31773 0.0
H215 H 0.17905 0.9085 0.12953 0.0
H216 H 0.15752 0.92802 0.19572 0.0
H217 H 0.1189 0.8586 0.2731 0.0
H218 H 0.01145 0.93474 0.36165 0.0
H219 H 0.04799 0.91398 0.31804 0.0
H220 H 0.13374 0.9608 0.33289 0.0
C221 C 0.16493 0.9055 0.19653 0.0
C222 C 0.12295 0.88071 0.2867 0.0
C223 C 0.17691 0.89422 0.15829 0.0
C224 C 0.03477 0.93979 0.37346 0.0
C225 C 0.05578 0.92766 0.34856 0.0
C226 C 0.1308 0.93826 0.32087 0.0
C227 C 0.16107 0.8875 0.23402 0.0
C228 C 0.14466 0.89842 0.27145 0.0
C229 C 0.08631 0.9336 0.36209 0.0
C230 C 0.10814 0.92092 0.33423 0.0
H231 H 0.18879 0.82414 0.19486 0.0
H232 H 0.16839 0.84395 0.26191 0.0
H233 H 0.16562 0.94122 0.27903 0.0
H234 H 0.08185 0.97837 0.45647 0.0
H235 H 0.11878 0.95699 0.41254 0.0
C236 C 0.67791 0.63522 0.67715 0.0
C237 C 0.67818 0.66591 0.6776 0.0
C238 C 0.67039 0.62004 0.71512 0.0
C239 C 0.65811 0.63011 0.83947 0.0
H240 H 0.60693 0.56224 0.80989 0.0
C241 C 0.56796 0.59389 0.94341 0.0
C242 C 0.56349 0.56399 0.94966 0.0
C243 C 0.59004 0.60324 0.91868 0.0
C244 C 0.62177 0.58074 0.81889 0.0
H245 H 0.67094 0.70488 0.71788 0.0
H246 H 0.6566 0.67858 0.78344 0.0
H247 H 0.62895 0.58501 0.74812 0.0
H248 H 0.57925 0.52032 0.9372 0.0
H249 H 0.61757 0.53672 0.89203 0.0
H250 H 0.64892 0.62684 0.90973 0.0
C251 C 0.66311 0.66605 0.75458 0.0
C252 C 0.63443 0.59388 0.78346 0.0
C253 C 0.67108 0.68119 0.71688 0.0
C254 C 0.58252 0.54352 0.933 0.0
C255 C 0.60424 0.55287 0.9071 0.0
C256 C 0.64507 0.6172 0.87473 0.0
C257 C 0.66251 0.63524 0.75414 0.0
C258 C 0.65214 0.61921 0.793 0.0
C259 C 0.60763 0.5828 0.89877 0.0
C260 C 0.62621 0.59283 0.86448 0.0
H261 H 0.68374 0.62294 0.64748 0.0
H262 H 0.67072 0.59638 0.7138 0.0
H263 H 0.67223 0.64911 0.84844 0.0
H264 H 0.55346 0.61002 0.95598 0.0
H265 H 0.59195 0.62639 0.9124 0.0
C266 C 0.8403 0.18278 0.12938 0.0
C267 C 0.85555 0.18658 0.09131 0.0
C268 C 0.85586 0.17572 0.17348 0.0
C269 C 0.92716 0.14278 0.22843 0.0
H270 H 0.89791 0.16471 0.34315 0.0
C271 C 0.97659 0.09184 0.40391 0.0
C272 C 0.95429 0.07676 0.42233 0.0
C273 C 0.96875 0.11322 0.37004 0.0
C274 C 0.90653 0.15868 0.31144 0.0
H275 H 0.89916 0.18737 0.06999 0.0
H276 H 0.92646 0.17572 0.14713 0.0
H277 H 0.87606 0.18687 0.26934 0.0
H278 H 0.90684 0.07375 0.42341 0.0
H279 H 0.89322 0.11156 0.36571 0.0
H280 H 0.9572 0.11418 0.27052 0.0
C281 C 0.9024 0.17737 0.1428 0.0
C282 C 0.89385 0.17114 0.26905 0.0
C283 C 0.88678 0.18411 0.09858 0.0
C284 C 0.92441 0.08517 0.40973 0.0
C285 C 0.91665 0.10686 0.37678 0.0
C286 C 0.94005 0.13061 0.27088 0.0
C287 C 0.88712 0.17261 0.18072 0.0
C288 C 0.90333 0.16263 0.22672 0.0
C289 C 0.93857 0.12018 0.35504 0.0
C290 C 0.92925 0.13774 0.31257 0.0
H291 H 0.8162 0.1843 0.12467 0.0
H292 H 0.84319 0.17169 0.20144 0.0
H293 H 0.93487 0.13534 0.19665 0.0
H294 H 0.99977 0.0855 0.41278 0.0
H295 H 0.98608 0.12326 0.35392 0.0
C296 C 0.33807 0.33596 0.61944 0.0
C297 C 0.33289 0.3566 0.58346 0.0
C298 C 0.3539 0.3438 0.66363 0.0
C299 C 0.41 0.39558 0.72075 0.0
H300 H 0.37543 0.38607 0.83391 0.0
C301 C 0.41772 0.46186 0.90051 0.0
C302 C 0.44859 0.46325 0.9161 0.0
C303 C 0.40578 0.44113 0.86667 0.0
C304 C 0.38556 0.3884 0.80268 0.0
H305 H 0.33927 0.40206 0.56694 0.0
H306 H 0.3676 0.41526 0.64319 0.0
H307 H 0.34997 0.36523 0.75926 0.0
H308 H 0.49118 0.44346 0.91034 0.0
H309 H 0.47027 0.40755 0.84937 0.0
H310 H 0.44505 0.41952 0.76362 0.0
C311 C 0.35964 0.39298 0.63694 0.0
C312 C 0.37105 0.37648 0.7601 0.0
C313 C 0.34346 0.38534 0.59319 0.0
C314 C 0.46727 0.4426 0.89902 0.0
C315 C 0.45535 0.42223 0.86413 0.0
C316 C 0.42474 0.40704 0.76337 0.0
C317 C 0.36524 0.37227 0.67244 0.0
C318 C 0.38265 0.38084 0.71853 0.0
C319 C 0.42455 0.42181 0.84691 0.0
C320 C 0.41219 0.40437 0.80447 0.0
H321 H 0.33061 0.31355 0.61318 0.0
H322 H 0.35791 0.32746 0.69054 0.0
H323 H 0.4195 0.39902 0.68919 0.0
H324 H 0.40292 0.4776 0.91324 0.0
H325 H 0.38203 0.44153 0.85376 0.0
C326 C 0.65859 0.70048 0.46817 0.0
C327 C 0.66475 0.67974 0.50389 0.0
C328 C 0.64373 0.6922 0.42352 0.0
C329 C 0.59068 0.63956 0.36363 0.0
H330 H 0.63091 0.64392 0.2552 0.0
C331 C 0.54112 0.58722 0.18456 0.0
C332 C 0.56016 0.56492 0.17323 0.0
C333 C 0.55174 0.6086 0.21857 0.0
C334 C 0.61919 0.64311 0.285 0.0
H335 H 0.66098 0.63367 0.51933 0.0
H336 H 0.63399 0.61982 0.44253 0.0
H337 H 0.65337 0.66738 0.32969 0.0
H338 H 0.60542 0.54853 0.18552 0.0
H339 H 0.62417 0.58637 0.24343 0.0
H340 H 0.55702 0.61451 0.31963 0.0
C341 C 0.64057 0.64247 0.44936 0.0
C342 C 0.63198 0.65651 0.32743 0.0
C343 C 0.65591 0.65052 0.49348 0.0
C344 C 0.59032 0.56548 0.19383 0.0
C345 C 0.60107 0.5872 0.22671 0.0
C346 C 0.57761 0.6267 0.32104 0.0
C347 C 0.63425 0.6632 0.41408 0.0
C348 C 0.61831 0.65393 0.36745 0.0
C349 C 0.58171 0.6084 0.24051 0.0
C350 C 0.59225 0.62749 0.28179 0.0
H351 H 0.6647 0.72322 0.47486 0.0
H352 H 0.63913 0.70853 0.39667 0.0
H353 H 0.57976 0.63735 0.3941 0.0
H354 H 0.51772 0.58711 0.16926 0.0
H355 H 0.53639 0.6247 0.22882 0.0
C356 C 0.84528 0.1833 0.88063 0.0
C357 C 0.83916 0.16654 0.91822 0.0
C358 C 0.85721 0.17019 0.84378 0.0
C359 C 0.86738 0.10333 0.7792 0.0
H360 H 0.94501 0.1353 0.76863 0.0
C361 C 0.94739 0.04771 0.66632 0.0
C362 C 0.96812 0.06544 0.64887 0.0
C363 C 0.92834 0.05986 0.69514 0.0
C364 C 0.92307 0.12643 0.76999 0.0
H365 H 0.8392 0.1228 0.9457 0.0
H366 H 0.85971 0.09967 0.88033 0.0
H367 H 0.91656 0.15662 0.82488 0.0
H368 H 0.98398 0.10968 0.64431 0.0
H369 H 0.94946 0.13131 0.69133 0.0
H370 H 0.87338 0.07363 0.72331 0.0
C371 C 0.85537 0.12296 0.8798 0.0
C372 C 0.90692 0.13858 0.80268 0.0
C373 C 0.84388 0.13618 0.91719 0.0
C374 C 0.96837 0.09559 0.65805 0.0
C375 C 0.94878 0.10786 0.68549 0.0
C376 C 0.88329 0.0915 0.74554 0.0
C377 C 0.86279 0.14002 0.84345 0.0
C378 C 0.87904 0.12711 0.80769 0.0
C379 C 0.92925 0.09007 0.70597 0.0
C380 C 0.91144 0.10289 0.74053 0.0
H381 H 0.84208 0.20677 0.88073 0.0
H382 H 0.86279 0.18374 0.81605 0.0
H383 H 0.84583 0.0942 0.78255 0.0
H384 H 0.947 0.02431 0.6597 0.0
H385 H 0.91388 0.04533 0.71039 0.0
C386 C 0.3288 0.34751 0.37001 0.0
C387 C 0.32461 0.36497 0.40895 0.0
C388 C 0.3391 0.35985 0.33174 0.0
C389 C 0.3494 0.42983 0.27389 0.0
H390 H 0.41414 0.38835 0.22937 0.0
C391 C 0.43199 0.4826 0.16624 0.0
C392 C 0.44551 0.46429 0.1364 0.0
C393 C 0.41122 0.47112 0.19205 0.0
C394 C 0.39562 0.4 0.24043 0.0
H395 H 0.32697 0.40924 0.43759 0.0
H396 H 0.34552 0.43071 0.37102 0.0
H397 H 0.38978 0.36691 0.28932 0.0
H398 H 0.44665 0.42065 0.10672 0.0
H399 H 0.40927 0.40086 0.14959 0.0
H400 H 0.35573 0.46322 0.22529 0.0
C401 C 0.34059 0.40752 0.36997 0.0
C402 C 0.38171 0.38768 0.27506 0.0
C403 C 0.33036 0.39516 0.40834 0.0
C404 C 0.43633 0.4351 0.12959 0.0
C405 C 0.41525 0.42375 0.1546 0.0
C406 C 0.36327 0.44215 0.2389 0.0
C407 C 0.34541 0.38993 0.33149 0.0
C408 C 0.35866 0.40254 0.29254 0.0
C409 C 0.40361 0.44121 0.18797 0.0
C410 C 0.38675 0.42746 0.22204 0.0
H411 H 0.32473 0.32417 0.36952 0.0
H412 H 0.34235 0.34577 0.30241 0.0
H413 H 0.33148 0.44167 0.28642 0.0
H414 H 0.43917 0.50513 0.17235 0.0
H415 H 0.40285 0.48518 0.21755 0.0
C416 C 0.1393 0.8527 0.97478 0.0
C417 C 0.17065 0.85204 0.98168 0.0
C418 C 0.12305 0.85884 0.93077 0.0
C419 C 0.12976 0.86341 0.8042 0.0
H420 H 0.06297 0.91659 0.80044 0.0
C421 C 0.08986 0.94022 0.65319 0.0
C422 C 0.05963 0.9479 0.64324 0.0
C423 C 0.09971 0.92034 0.68825 0.0
C424 C 0.08109 0.90115 0.80074 0.0
H425 H 0.20951 0.85731 0.94778 0.0
H426 H 0.18124 0.86858 0.87117 0.0
H427 H 0.08804 0.89919 0.87553 0.0
H428 H 0.01556 0.93946 0.6595 0.0
H429 H 0.03285 0.90462 0.7216 0.0
H430 H 0.12358 0.86665 0.72934 0.0
C431 C 0.16912 0.8637 0.89947 0.0
C432 C 0.09558 0.89122 0.8439 0.0
C433 C 0.18537 0.85739 0.94345 0.0
C434 C 0.03895 0.93359 0.66626 0.0
C435 C 0.0489 0.91396 0.70207 0.0
C436 C 0.11535 0.87349 0.76103 0.0
C437 C 0.13774 0.86461 0.89258 0.0
C438 C 0.12054 0.87276 0.8463 0.0
C439 C 0.07956 0.90808 0.71466 0.0
C440 C 0.09129 0.89301 0.75891 0.0
H441 H 0.12729 0.84815 0.00337 0.0
H442 H 0.09892 0.8589 0.92664 0.0
H443 H 0.14849 0.84871 0.80462 0.0
H444 H 0.10621 0.95116 0.63603 0.0
H445 H 0.12346 0.9165 0.6972 0.0
loop_
_geom_bond_atom_site_label_1
_geom_bond_atom_site_label_2
_geom_bond_distance
_geom_bond_site_symmetry_2
_ccdc_geom_bond_type
H0 C5 0.929 1_556 S
H1 C10 0.931 . S
H2 C8 0.930 . S
N3 N4 1.234 . S
N3 C7 1.453 . S
N4 N3 1.234 . S
C5 H0 0.929 1_554 S
C5 C6 1.373 . S
C5 C7 1.368 . S
C6 C5 1.373 . S
C6 C10 1.397 . S
C7 N3 1.453 . S
C7 C5 1.368 . S
C7 C8 1.373 . S
C8 H2 0.930 . S
C8 C7 1.373 . S
C8 C9 1.371 . S
C9 C8 1.371 . S
C9 C10 1.383 . S
C10 H1 0.931 . S
C10 C6 1.397 . S
C10 C9 1.383 . S
H11 C16 0.929 . S
H12 C21 0.931 . S
H13 C19 0.930 . S
N14 N15 1.234 . S
N14 C18 1.453 . S
N15 N14 1.234 . S
C16 H11 0.929 . S
C16 C17 1.373 . S
C16 C18 1.368 . S
C17 C16 1.373 . S
C17 C21 1.397 . S
C18 N14 1.453 . S
C18 C16 1.368 . S
C18 C19 1.373 . S
C19 H13 0.930 . S
C19 C18 1.373 . S
C19 C20 1.371 . S
C20 C19 1.371 . S
C20 C21 1.383 . S
C21 H12 0.931 . S
C21 C17 1.397 . S
C21 C20 1.383 . S
H22 C27 0.929 . S
H23 C32 0.931 . S
H24 C30 0.930 . S
N25 N26 1.234 1_556 S
N25 C29 1.453 . S
N26 N25 1.234 1_554 S
C27 H22 0.929 . S
C27 C28 1.373 . S
C27 C29 1.368 . S
C28 C27 1.373 . S
C28 C32 1.397 1_556 S
C29 N25 1.453 . S
C29 C27 1.368 . S
C29 C30 1.373 1_556 S
C30 H24 0.930 . S
C30 C29 1.373 1_554 S
C30 C31 1.371 . S
C31 C30 1.371 . S
C31 C32 1.383 . S
C32 H23 0.931 . S
C32 C28 1.397 1_554 S
C32 C31 1.383 . S
H33 C38 0.929 . S
H34 C43 0.931 . S
H35 C41 0.930 . S
N36 N37 1.234 . S
N36 C40 1.453 . S
N37 N36 1.234 . S
C38 H33 0.929 . S
C38 C39 1.373 . S
C38 C40 1.368 . S
C39 C38 1.373 . S
C39 C43 1.397 . S
C40 N36 1.453 . S
C40 C38 1.368 . S
C40 C41 1.373 . S
C41 H35 0.930 . S
C41 C40 1.373 . S
C41 C42 1.371 . S
C42 C41 1.371 . S
C42 C43 1.383 . S
C43 H34 0.931 . S
C43 C39 1.397 . S
C43 C42 1.383 . S
O44 Mg45 1.990 . S
O44 C58 1.253 1_455 S
Mg45 O44 1.990 . S
Mg45 O48 2.180 . S
Mg45 O49 2.117 . S
Mg45 O63 2.030 . S
O46 Mg47 2.072 1_655 S
O46 C58 1.260 . S
Mg47 O46 2.072 1_455 S
Mg47 O48 2.099 . S
Mg47 O50 2.079 1_545 S
Mg47 O51 2.072 1_455 S
Mg47 O53 2.099 1_445 S
Mg47 O64 2.079 1_545 S
O48 Mg45 2.180 . S
O48 Mg47 2.099 . S
O48 C59 1.279 . S
O49 Mg45 2.117 . S
O49 C59 1.250 . S
O50 Mg47 2.079 1_565 S
O50 C60 1.264 . S
O51 Mg47 2.072 1_655 S
O51 C61 1.260 . S
Mg52 O53 2.180 . S
Mg52 O54 2.030 1_655 S
Mg52 O55 1.990 1_565 S
Mg52 O56 2.117 . S
O53 Mg47 2.099 1_665 S
O53 Mg52 2.180 . S
O53 C62 1.279 . S
O54 Mg52 2.030 1_455 S
O54 C60 1.248 . S
O55 Mg52 1.990 1_545 S
O55 C61 1.253 . S
O56 Mg52 2.117 . S
O56 C62 1.250 . S
C57 O63 1.248 1_565 S
C57 O64 1.264 . S
C58 O44 1.253 1_655 S
C58 O46 1.260 . S
C59 O48 1.279 . S
C59 O49 1.250 . S
C60 O50 1.264 . S
C60 O54 1.248 . S
C61 O51 1.260 . S
C61 O55 1.253 . S
C62 O53 1.279 . S
C62 O56 1.250 . S
O63 Mg45 2.030 . S
O63 C57 1.248 1_545 S
O64 Mg47 2.079 1_565 S
O64 C57 1.264 . S
O65 Mg66 1.990 . S
O65 C79 1.253 . S
Mg66 O65 1.990 . S
Mg66 O69 2.180 . S
Mg66 O70 2.117 . S
Mg66 O84 2.030 . S
O67 Mg68 2.072 . S
O67 C79 1.260 . S
Mg68 O67 2.072 . S
Mg68 O69 2.099 . S
Mg68 O71 2.079 1_554 S
Mg68 O72 2.072 . S
Mg68 O74 2.099 . S
Mg68 O85 2.079 . S
O69 Mg66 2.180 . S
O69 Mg68 2.099 . S
O69 C80 1.279 . S
O70 Mg66 2.117 . S
O70 C80 1.250 . S
O71 Mg68 2.079 1_556 S
O71 C81 1.264 . S
O72 Mg68 2.072 . S
O72 C82 1.260 1_554 S
Mg73 O74 2.180 1_556 S
Mg73 O75 2.030 . S
Mg73 O76 1.990 . S
Mg73 O77 2.117 1_556 S
O74 Mg68 2.099 . S
O74 Mg73 2.180 1_554 S
O74 C83 1.279 . S
O75 Mg73 2.030 . S
O75 C81 1.248 . S
O76 Mg73 1.990 . S
O76 C82 1.253 . S
O77 Mg73 2.117 1_554 S
O77 C83 1.250 . S
C78 O84 1.248 . S
C78 O85 1.264 . S
C79 O65 1.253 . S
C79 O67 1.260 . S
C80 O69 1.279 . S
C80 O70 1.250 . S
C81 O71 1.264 . S
C81 O75 1.248 . S
C82 O72 1.260 1_556 S
C82 O76 1.253 . S
C83 O74 1.279 . S
C83 O77 1.250 . S
O84 Mg66 2.030 . S
O84 C78 1.248 . S
O85 Mg68 2.079 . S
O85 C78 1.264 . S
C86 C87 1.349 . S
C86 C88 1.327 . S
C86 H111 0.950 . S
C87 C86 1.349 . S
C87 C103 1.349 . S
C88 C86 1.327 . S
C88 C107 1.429 . S
C88 H112 0.950 . S
C89 C106 1.574 . S
C89 C108 1.368 . S
C89 H113 0.949 . S
H90 C94 0.949 . S
C91 C92 1.349 . S
C91 C93 1.327 . S
C91 H114 0.950 . S
C92 C91 1.349 . S
C92 C104 1.349 . S
C93 C91 1.327 . S
C93 C109 1.429 . S
C93 H115 0.950 . S
C94 H90 0.949 . S
C94 C102 1.574 . S
C94 C110 1.368 . S
H95 C103 0.950 . S
H96 C101 0.950 . S
H97 C102 0.949 . S
H98 C104 0.950 . S
H99 C105 0.950 . S
H100 C106 0.949 . S
C101 H96 0.950 . S
C101 C103 1.327 . S
C101 C107 1.429 . S
C102 C94 1.574 . S
C102 H97 0.949 . S
C102 C108 1.368 . S
C103 C87 1.349 . S
C103 H95 0.950 . S
C103 C101 1.327 . S
C104 C92 1.349 . S
C104 H98 0.950 . S
C104 C105 1.327 . S
C105 H99 0.950 . S
C105 C104 1.327 . S
C105 C109 1.429 . S
C106 C89 1.574 . S
C106 H100 0.949 . S
C106 C110 1.368 . S
C107 C88 1.429 . S
C107 C101 1.429 . S
C107 C108 1.523 . S
C108 C89 1.368 . S
C108 C102 1.368 . S
C108 C107 1.523 . S
C109 C93 1.429 . S
C109 C105 1.429 . S
C109 C110 1.523 . S
C110 C94 1.368 . S
C110 C106 1.368 . S
C110 C109 1.523 . S
H111 C86 0.950 . S
H112 C88 0.950 . S
H113 C89 0.949 . S
H114 C91 0.950 . S
H115 C93 0.950 . S
C116 C117 1.349 . S
C116 C118 1.327 . S
C116 H141 0.950 . S
C117 C116 1.349 . S
C117 C133 1.349 . S
C118 C116 1.327 . S
C118 C137 1.429 . S
C118 H142 0.950 . S
C119 C136 1.574 . S
C119 C138 1.368 . S
C119 H143 0.949 . S
H120 C124 0.949 . S
C121 C122 1.349 . S
C121 C123 1.327 . S
C121 H144 0.950 . S
C122 C121 1.349 . S
C122 C134 1.349 . S
C123 C121 1.327 . S
C123 C139 1.429 . S
C123 H145 0.950 . S
C124 H120 0.949 . S
C124 C132 1.574 . S
C124 C140 1.368 . S
H125 C133 0.950 . S
H126 C131 0.950 . S
H127 C132 0.949 . S
H128 C134 0.950 . S
H129 C135 0.950 . S
H130 C136 0.949 . S
C131 H126 0.950 . S
C131 C133 1.327 . S
C131 C137 1.429 . S
C132 C124 1.574 . S
C132 H127 0.949 . S
C132 C138 1.368 . S
C133 C117 1.349 . S
C133 H125 0.950 . S
C133 C131 1.327 . S
C134 C122 1.349 . S
C134 H128 0.950 . S
C134 C135 1.327 . S
C135 H129 0.950 . S
C135 C134 1.327 . S
C135 C139 1.429 . S
C136 C119 1.574 . S
C136 H130 0.949 . S
C136 C140 1.368 . S
C137 C118 1.429 . S
C137 C131 1.429 . S
C137 C138 1.523 . S
C138 C119 1.368 . S
C138 C132 1.368 . S
C138 C137 1.523 . S
C139 C123 1.429 . S
C139 C135 1.429 . S
C139 C140 1.523 . S
C140 C124 1.368 . S
C140 C136 1.368 . S
C140 C139 1.523 . S
H141 C116 0.950 . S
H142 C118 0.950 . S
H143 C119 0.949 . S
H144 C121 0.950 . S
H145 C123 0.950 . S
C146 C147 1.349 . S
C146 C148 1.327 . S
C146 H171 0.950 . S
C147 C146 1.349 . S
C147 C163 1.349 . S
C148 C146 1.327 . S
C148 C167 1.429 . S
C148 H172 0.950 . S
C149 C166 1.574 . S
C149 C168 1.368 . S
C149 H173 0.949 . S
H150 C154 0.949 . S
C151 C152 1.349 . S
C151 C153 1.327 . S
C151 H174 0.950 . S
C152 C151 1.349 . S
C152 C164 1.349 . S
C153 C151 1.327 . S
C153 C169 1.429 . S
C153 H175 0.950 . S
C154 H150 0.949 . S
C154 C162 1.574 . S
C154 C170 1.368 . S
H155 C163 0.950 . S
H156 C161 0.950 . S
H157 C162 0.949 . S
H158 C164 0.950 . S
H159 C165 0.950 . S
H160 C166 0.949 . S
C161 H156 0.950 . S
C161 C163 1.327 . S
C161 C167 1.429 . S
C162 C154 1.574 . S
C162 H157 0.949 . S
C162 C168 1.368 . S
C163 C147 1.349 . S
C163 H155 0.950 . S
C163 C161 1.327 . S
C164 C152 1.349 . S
C164 H158 0.950 . S
C164 C165 1.327 . S
C165 H159 0.950 . S
C165 C164 1.327 . S
C165 C169 1.429 . S
C166 C149 1.574 . S
C166 H160 0.949 . S
C166 C170 1.368 . S
C167 C148 1.429 . S
C167 C161 1.429 . S
C167 C168 1.523 . S
C168 C149 1.368 . S
C168 C162 1.368 . S
C168 C167 1.523 . S
C169 C153 1.429 . S
C169 C165 1.429 . S
C169 C170 1.523 . S
C170 C154 1.368 . S
C170 C166 1.368 . S
C170 C169 1.523 . S
H171 C146 0.950 . S
H172 C148 0.950 . S
H173 C149 0.949 . S
H174 C151 0.950 . S
H175 C153 0.950 . S
C176 C177 1.349 1_556 S
C176 C178 1.327 . S
C176 H201 0.950 . S
C177 C176 1.349 1_554 S
C177 C193 1.349 . S
C178 C176 1.327 . S
C178 C197 1.429 1_556 S
C178 H202 0.950 . S
C179 C196 1.574 . S
C179 C198 1.368 . S
C179 H203 0.949 . S
H180 C184 0.949 . S
C181 C182 1.349 . S
C181 C183 1.327 . S
C181 H204 0.950 . S
C182 C181 1.349 . S
C182 C194 1.349 . S
C183 C181 1.327 . S
C183 C199 1.429 . S
C183 H205 0.950 . S
C184 H180 0.949 . S
C184 C192 1.574 . S
C184 C200 1.368 1_556 S
H185 C193 0.950 . S
H186 C191 0.950 . S
H187 C192 0.949 . S
H188 C194 0.950 1_556 S
H189 C195 0.950 1_556 S
H190 C196 0.949 . S
C191 H186 0.950 . S
C191 C193 1.327 . S
C191 C197 1.429 . S
C192 C184 1.574 . S
C192 H187 0.949 . S
C192 C198 1.368 1_556 S
C193 C177 1.349 . S
C193 H185 0.950 . S
C193 C191 1.327 . S
C194 C182 1.349 . S
C194 H188 0.950 1_554 S
C194 C195 1.327 . S
C195 H189 0.950 1_554 S
C195 C194 1.327 . S
C195 C199 1.429 . S
C196 C179 1.574 . S
C196 H190 0.949 . S
C196 C200 1.368 . S
C197 C178 1.429 1_554 S
C197 C191 1.429 . S
C197 C198 1.523 . S
C198 C179 1.368 . S
C198 C192 1.368 1_554 S
C198 C197 1.523 . S
C199 C183 1.429 . S
C199 C195 1.429 . S
C199 C200 1.523 . S
C200 C184 1.368 1_554 S
C200 C196 1.368 . S
C200 C199 1.523 . S
H201 C176 0.950 . S
H202 C178 0.950 . S
H203 C179 0.949 . S
H204 C181 0.950 . S
H205 C183 0.950 . S
C206 C207 1.349 . S
C206 C208 1.327 . S
C206 H231 0.950 . S
C207 C206 1.349 . S
C207 C223 1.349 . S
C208 C206 1.327 . S
C208 C227 1.429 . S
C208 H232 0.950 . S
C209 C226 1.574 . S
C209 C228 1.368 . S
C209 H233 0.949 . S
H210 C214 0.949 . S
C211 C212 1.349 . S
C211 C213 1.327 . S
C211 H234 0.950 . S
C212 C211 1.349 . S
C212 C224 1.349 . S
C213 C211 1.327 . S
C213 C229 1.429 . S
C213 H235 0.950 . S
C214 H210 0.949 . S
C214 C222 1.574 . S
C214 C230 1.368 . S
H215 C223 0.950 . S
H216 C221 0.950 . S
H217 C222 0.949 . S
H218 C224 0.950 . S
H219 C225 0.950 . S
H220 C226 0.949 . S
C221 H216 0.950 . S
C221 C223 1.327 . S
C221 C227 1.429 . S
C222 C214 1.574 . S
C222 H217 0.949 . S
C222 C228 1.368 . S
C223 C207 1.349 . S
C223 H215 0.950 . S
C223 C221 1.327 . S
C224 C212 1.349 . S
C224 H218 0.950 . S
C224 C225 1.327 . S
C225 H219 0.950 . S
C225 C224 1.327 . S
C225 C229 1.429 . S
C226 C209 1.574 . S
C226 H220 0.949 . S
C226 C230 1.368 . S
C227 C208 1.429 . S
C227 C221 1.429 . S
C227 C228 1.523 . S
C228 C209 1.368 . S
C228 C222 1.368 . S
C228 C227 1.523 . S
C229 C213 1.429 . S
C229 C225 1.429 . S
C229 C230 1.523 . S
C230 C214 1.368 . S
C230 C226 1.368 . S
C230 C229 1.523 . S
H231 C206 0.950 . S
H232 C208 0.950 . S
H233 C209 0.949 . S
H234 C211 0.950 . S
H235 C213 0.950 . S
C236 C237 1.349 . S
C236 C238 1.327 . S
C236 H261 0.950 . S
C237 C236 1.349 . S
C237 C253 1.349 . S
C238 C236 1.327 . S
C238 C257 1.429 . S
C238 H262 0.950 . S
C239 C256 1.574 . S
C239 C258 1.368 . S
C239 H263 0.949 . S
H240 C244 0.949 . S
C241 C242 1.349 . S
C241 C243 1.327 . S
C241 H264 0.950 . S
C242 C241 1.349 . S
C242 C254 1.349 . S
C243 C241 1.327 . S
C243 C259 1.429 . S
C243 H265 0.950 . S
C244 H240 0.949 . S
C244 C252 1.574 . S
C244 C260 1.368 . S
H245 C253 0.950 . S
H246 C251 0.950 . S
H247 C252 0.949 . S
H248 C254 0.950 . S
H249 C255 0.950 . S
H250 C256 0.949 . S
C251 H246 0.950 . S
C251 C253 1.327 . S
C251 C257 1.429 . S
C252 C244 1.574 . S
C252 H247 0.949 . S
C252 C258 1.368 . S
C253 C237 1.349 . S
C253 H245 0.950 . S
C253 C251 1.327 . S
C254 C242 1.349 . S
C254 H248 0.950 . S
C254 C255 1.327 . S
C255 H249 0.950 . S
C255 C254 1.327 . S
C255 C259 1.429 . S
C256 C239 1.574 . S
C256 H250 0.949 . S
C256 C260 1.368 . S
C257 C238 1.429 . S
C257 C251 1.429 . S
C257 C258 1.523 . S
C258 C239 1.368 . S
C258 C252 1.368 . S
C258 C257 1.523 . S
C259 C243 1.429 . S
C259 C255 1.429 . S
C259 C260 1.523 . S
C260 C244 1.368 . S
C260 C256 1.368 . S
C260 C259 1.523 . S
H261 C236 0.950 . S
H262 C238 0.950 . S
H263 C239 0.949 . S
H264 C241 0.950 . S
H265 C243 0.950 . S
C266 C267 1.349 . S
C266 C268 1.327 . S
C266 H291 0.950 . S
C267 C266 1.349 . S
C267 C283 1.349 . S
C268 C266 1.327 . S
C268 C287 1.429 . S
C268 H292 0.950 . S
C269 C286 1.574 . S
C269 C288 1.368 . S
C269 H293 0.949 . S
H270 C274 0.949 . S
C271 C272 1.349 . S
C271 C273 1.327 . S
C271 H294 0.950 . S
C272 C271 1.349 . S
C272 C284 1.349 . S
C273 C271 1.327 . S
C273 C289 1.429 . S
C273 H295 0.950 . S
C274 H270 0.949 . S
C274 C282 1.574 . S
C274 C290 1.368 . S
H275 C283 0.950 . S
H276 C281 0.950 . S
H277 C282 0.949 . S
H278 C284 0.950 . S
H279 C285 0.950 . S
H280 C286 0.949 . S
C281 H276 0.950 . S
C281 C283 1.327 . S
C281 C287 1.429 . S
C282 C274 1.574 . S
C282 H277 0.949 . S
C282 C288 1.368 . S
C283 C267 1.349 . S
C283 H275 0.950 . S
C283 C281 1.327 . S
C284 C272 1.349 . S
C284 H278 0.950 . S
C284 C285 1.327 . S
C285 H279 0.950 . S
C285 C284 1.327 . S
C285 C289 1.429 . S
C286 C269 1.574 . S
C286 H280 0.949 . S
C286 C290 1.368 . S
C287 C268 1.429 . S
C287 C281 1.429 . S
C287 C288 1.523 . S
C288 C269 1.368 . S
C288 C282 1.368 . S
C288 C287 1.523 . S
C289 C273 1.429 . S
C289 C285 1.429 . S
C289 C290 1.523 . S
C290 C274 1.368 . S
C290 C286 1.368 . S
C290 C289 1.523 . S
H291 C266 0.950 . S
H292 C268 0.950 . S
H293 C269 0.949 . S
H294 C271 0.950 . S
H295 C273 0.950 . S
C296 C297 1.349 . S
C296 C298 1.327 . S
C296 H321 0.950 . S
C297 C296 1.349 . S
C297 C313 1.349 . S
C298 C296 1.327 . S
C298 C317 1.429 . S
C298 H322 0.950 . S
C299 C316 1.574 . S
C299 C318 1.368 . S
C299 H323 0.949 . S
H300 C304 0.949 . S
C301 C302 1.349 . S
C301 C303 1.327 . S
C301 H324 0.950 . S
C302 C301 1.349 . S
C302 C314 1.349 . S
C303 C301 1.327 . S
C303 C319 1.429 . S
C303 H325 0.950 . S
C304 H300 0.949 . S
C304 C312 1.574 . S
C304 C320 1.368 . S
H305 C313 0.950 . S
H306 C311 0.950 . S
H307 C312 0.949 . S
H308 C314 0.950 . S
H309 C315 0.950 . S
H310 C316 0.949 . S
C311 H306 0.950 . S
C311 C313 1.327 . S
C311 C317 1.429 . S
C312 C304 1.574 . S
C312 H307 0.949 . S
C312 C318 1.368 . S
C313 C297 1.349 . S
C313 H305 0.950 . S
C313 C311 1.327 . S
C314 C302 1.349 . S
C314 H308 0.950 . S
C314 C315 1.327 . S
C315 H309 0.950 . S
C315 C314 1.327 . S
C315 C319 1.429 . S
C316 C299 1.574 . S
C316 H310 0.949 . S
C316 C320 1.368 . S
C317 C298 1.429 . S
C317 C311 1.429 . S
C317 C318 1.523 . S
C318 C299 1.368 . S
C318 C312 1.368 . S
C318 C317 1.523 . S
C319 C303 1.429 . S
C319 C315 1.429 . S
C319 C320 1.523 . S
C320 C304 1.368 . S
C320 C316 1.368 . S
C320 C319 1.523 . S
H321 C296 0.950 . S
H322 C298 0.950 . S
H323 C299 0.949 . S
H324 C301 0.950 . S
H325 C303 0.950 . S
C326 C327 1.349 . S
C326 C328 1.327 . S
C326 H351 0.950 . S
C327 C326 1.349 . S
C327 C343 1.349 . S
C328 C326 1.327 . S
C328 C347 1.429 . S
C328 H352 0.950 . S
C329 C346 1.574 . S
C329 C348 1.368 . S
C329 H353 0.949 . S
H330 C334 0.949 . S
C331 C332 1.349 . S
C331 C333 1.327 . S
C331 H354 0.950 . S
C332 C331 1.349 . S
C332 C344 1.349 . S
C333 C331 1.327 . S
C333 C349 1.429 . S
C333 H355 0.950 . S
C334 H330 0.949 . S
C334 C342 1.574 . S
C334 C350 1.368 . S
H335 C343 0.950 . S
H336 C341 0.950 . S
H337 C342 0.949 . S
H338 C344 0.950 . S
H339 C345 0.950 . S
H340 C346 0.949 . S
C341 H336 0.950 . S
C341 C343 1.327 . S
C341 C347 1.429 . S
C342 C334 1.574 . S
C342 H337 0.949 . S
C342 C348 1.368 . S
C343 C327 1.349 . S
C343 H335 0.950 . S
C343 C341 1.327 . S
C344 C332 1.349 . S
C344 H338 0.950 . S
C344 C345 1.327 . S
C345 H339 0.950 . S
C345 C344 1.327 . S
C345 C349 1.429 . S
C346 C329 1.574 . S
C346 H340 0.949 . S
C346 C350 1.368 . S
C347 C328 1.429 . S
C347 C341 1.429 . S
C347 C348 1.523 . S
C348 C329 1.368 . S
C348 C342 1.368 . S
C348 C347 1.523 . S
C349 C333 1.429 . S
C349 C345 1.429 . S
C349 C350 1.523 . S
C350 C334 1.368 . S
C350 C346 1.368 . S
C350 C349 1.523 . S
H351 C326 0.950 . S
H352 C328 0.950 . S
H353 C329 0.949 . S
H354 C331 0.950 . S
H355 C333 0.950 . S
C356 C357 1.349 . S
C356 C358 1.327 . S
C356 H381 0.950 . S
C357 C356 1.349 . S
C357 C373 1.349 . S
C358 C356 1.327 . S
C358 C377 1.429 . S
C358 H382 0.950 . S
C359 C376 1.574 . S
C359 C378 1.368 . S
C359 H383 0.949 . S
H360 C364 0.949 . S
C361 C362 1.349 . S
C361 C363 1.327 . S
C361 H384 0.950 . S
C362 C361 1.349 . S
C362 C374 1.349 . S
C363 C361 1.327 . S
C363 C379 1.429 . S
C363 H385 0.950 . S
C364 H360 0.949 . S
C364 C372 1.574 . S
C364 C380 1.368 . S
H365 C373 0.950 . S
H366 C371 0.950 . S
H367 C372 0.949 . S
H368 C374 0.950 . S
H369 C375 0.950 . S
H370 C376 0.949 . S
C371 H366 0.950 . S
C371 C373 1.327 . S
C371 C377 1.429 . S
C372 C364 1.574 . S
C372 H367 0.949 . S
C372 C378 1.368 . S
C373 C357 1.349 . S
C373 H365 0.950 . S
C373 C371 1.327 . S
C374 C362 1.349 . S
C374 H368 0.950 . S
C374 C375 1.327 . S
C375 H369 0.950 . S
C375 C374 1.327 . S
C375 C379 1.429 . S
C376 C359 1.574 . S
C376 H370 0.949 . S
C376 C380 1.368 . S
C377 C358 1.429 . S
C377 C371 1.429 . S
C377 C378 1.523 . S
C378 C359 1.368 . S
C378 C372 1.368 . S
C378 C377 1.523 . S
C379 C363 1.429 . S
C379 C375 1.429 . S
C379 C380 1.523 . S
C380 C364 1.368 . S
C380 C376 1.368 . S
C380 C379 1.523 . S
H381 C356 0.950 . S
H382 C358 0.950 . S
H383 C359 0.949 . S
H384 C361 0.950 . S
H385 C363 0.950 . S
C386 C387 1.349 . S
C386 C388 1.327 . S
C386 H411 0.950 . S
C387 C386 1.349 . S
C387 C403 1.349 . S
C388 C386 1.327 . S
C388 C407 1.429 . S
C388 H412 0.950 . S
C389 C406 1.574 . S
C389 C408 1.368 . S
C389 H413 0.949 . S
H390 C394 0.949 . S
C391 C392 1.349 . S
C391 C393 1.327 . S
C391 H414 0.950 . S
C392 C391 1.349 . S
C392 C404 1.349 . S
C393 C391 1.327 . S
C393 C409 1.429 . S
C393 H415 0.950 . S
C394 H390 0.949 . S
C394 C402 1.574 . S
C394 C410 1.368 . S
H395 C403 0.950 . S
H396 C401 0.950 . S
H397 C402 0.949 . S
H398 C404 0.950 . S
H399 C405 0.950 . S
H400 C406 0.949 . S
C401 H396 0.950 . S
C401 C403 1.327 . S
C401 C407 1.429 . S
C402 C394 1.574 . S
C402 H397 0.949 . S
C402 C408 1.368 . S
C403 C387 1.349 . S
C403 H395 0.950 . S
C403 C401 1.327 . S
C404 C392 1.349 . S
C404 H398 0.950 . S
C404 C405 1.327 . S
C405 H399 0.950 . S
C405 C404 1.327 . S
C405 C409 1.429 . S
C406 C389 1.574 . S
C406 H400 0.949 . S
C406 C410 1.368 . S
C407 C388 1.429 . S
C407 C401 1.429 . S
C407 C408 1.523 . S
C408 C389 1.368 . S
C408 C402 1.368 . S
C408 C407 1.523 . S
C409 C393 1.429 . S
C409 C405 1.429 . S
C409 C410 1.523 . S
C410 C394 1.368 . S
C410 C406 1.368 . S
C410 C409 1.523 . S
H411 C386 0.950 . S
H412 C388 0.950 . S
H413 C389 0.949 . S
H414 C391 0.950 . S
H415 C393 0.950 . S
C416 C417 1.349 . S
C416 C418 1.327 . S
C416 H441 0.950 1_556 S
C417 C416 1.349 . S
C417 C433 1.349 . S
C418 C416 1.327 . S
C418 C437 1.429 . S
C418 H442 0.950 . S
C419 C436 1.574 . S
C419 C438 1.368 . S
C419 H443 0.949 . S
H420 C424 0.949 . S
C421 C422 1.349 . S
C421 C423 1.327 . S
C421 H444 0.950 . S
C422 C421 1.349 . S
C422 C434 1.349 . S
C423 C421 1.327 . S
C423 C439 1.429 . S
C423 H445 0.950 . S
C424 H420 0.949 . S
C424 C432 1.574 . S
C424 C440 1.368 . S
H425 C433 0.950 . S
H426 C431 0.950 . S
H427 C432 0.949 . S
H428 C434 0.950 . S
H429 C435 0.950 . S
H430 C436 0.949 . S
C431 H426 0.950 . S
C431 C433 1.327 . S
C431 C437 1.429 . S
C432 C424 1.574 . S
C432 H427 0.949 . S
C432 C438 1.368 . S
C433 C417 1.349 . S
C433 H425 0.950 . S
C433 C431 1.327 . S
C434 C422 1.349 . S
C434 H428 0.950 . S
C434 C435 1.327 . S
C435 H429 0.950 . S
C435 C434 1.327 . S
C435 C439 1.429 . S
C436 C419 1.574 . S
C436 H430 0.949 . S
C436 C440 1.368 . S
C437 C418 1.429 . S
C437 C431 1.429 . S
C437 C438 1.523 . S
C438 C419 1.368 . S
C438 C432 1.368 . S
C438 C437 1.523 . S
C439 C423 1.429 . S
C439 C435 1.429 . S
C439 C440 1.523 . S
C440 C424 1.368 . S
C440 C436 1.368 . S
C440 C439 1.523 . S
H441 C416 0.950 1_554 S
H442 C418 0.950 . S
H443 C419 0.949 . S
H444 C421 0.950 . S
H445 C423 0.950 . S
C92 C59 1.246 . S
C87 N37 1.430 . S
C117 N4 1.464 . S
C122 C83 1.267 . S
C147 N15 1.612 . S
C152 C62 1.420 . S
C177 N26 1.611 . S
C182 C80 1.404 . S
C212 C60 1.503 . S
C207 C9 1.516 . S
C242 C82 1.562 . S
C237 C17 1.629 . S
C267 C31 1.605 . S
C272 C61 1.564 . S
C297 C42 1.519 . S
C302 C81 1.472 . S
C332 C79 1.471 . S
C327 C20 1.514 . S
C362 C58 1.472 . S
C357 C28 1.533 . S
C392 C78 1.408 . S
C387 C39 1.446 . S
C417 C6 1.443 1_556 S
C422 C57 1.392 . S
