# Generated by pormake.
# Topology tsx, (6,3)-cn, num edge types: 1
# Building blocks:
#     Node 0, Type 0, BuildingBlock: FUNLAD_clean_sbu_0, # of connection points: 6
#     Node 1, Type 0, BuildingBlock: FUNLAD_clean_sbu_0, # of connection points: 6
#     Node 2, Type 1, BuildingBlock: BETDAH_clean_linker_0, # of connection points: 3
#     Node 3, Type 1, BuildingBlock: BETDAH_clean_linker_0, # of connection points: 3
#     Node 4, Type 1, BuildingBlock: BETDAH_clean_linker_0, # of connection points: 3
#     Node 5, Type 1, BuildingBlock: BETDAH_clean_linker_0, # of connection points: 3
#     Edge 6, Type (0, 1), BuildingBlock: FUNLAD_clean_linker_1, # of connection points: 2
#     Edge 7, Type (0, 1), BuildingBlock: FUNLAD_clean_linker_1, # of connection points: 2
#     Edge 8, Type (0, 1), BuildingBlock: FUNLAD_clean_linker_1, # of connection points: 2
#     Edge 9, Type (0, 1), BuildingBlock: FUNLAD_clean_linker_1, # of connection points: 2
#     Edge 10, Type (0, 1), BuildingBlock: FUNLAD_clean_linker_1, # of connection points: 2
#     Edge 11, Type (0, 1), BuildingBlock: FUNLAD_clean_linker_1, # of connection points: 2
#     Edge 12, Type (0, 1), BuildingBlock: FUNLAD_clean_linker_1, # of connection points: 2
#     Edge 13, Type (0, 1), BuildingBlock: FUNLAD_clean_linker_1, # of connection points: 2
#     Edge 14, Type (0, 1), BuildingBlock: FUNLAD_clean_linker_1, # of connection points: 2
#     Edge 15, Type (0, 1), BuildingBlock: FUNLAD_clean_linker_1, # of connection points: 2
#     Edge 16, Type (0, 1), BuildingBlock: FUNLAD_clean_linker_1, # of connection points: 2
#     Edge 17, Type (0, 1), BuildingBlock: FUNLAD_clean_linker_1, # of connection points: 2
# Relax obj value: 0.107
# Max RMSD: 0.112
# Mean RMSD: 0.108
data_MOF--net-tsx--node1-FUNLAD_clean_sbu_0--node2-BETDAH_clean_linker_0--edge1-FUNLAD_clean_linker_1
_symmetry_space_group_name_H-M    P1
_symmetry_Int_Tables_number       1
_symmetry_cell_setting            triclinic
loop_
_symmetry_equiv_pos_as_xyz
'x, y, z'
_cell_length_a     20.344662
_cell_length_b     22.430377
_cell_length_c     40.664744
_cell_angle_alpha  91.033071
_cell_angle_beta   102.03938
_cell_angle_gamma 89.864368
loop_
_atom_site_label
_atom_site_type_symbol
_atom_site_fract_x
_atom_site_fract_y
_atom_site_fract_z
_atom_type_partial_charge
C0 C 0.93928 0.90432 0.00582 0.0
N1 N 0.05212 0.01193 0.08333 0.0
C2 C -0.00054 0.01508 0.09911 0.0
C3 C 0.01084 0.02182 0.13408 0.0
C4 C 0.07721 0.02558 0.15291 0.0
C5 C 0.13031 0.02199 0.13589 0.0
C6 C 0.11667 0.01541 0.10098 0.0
Zn7 Zn 0.03625 0.00205 0.03228 0.0
C8 C 0.13209 0.91607 0.01196 0.0
N9 N 0.00743 0.98363 0.92593 0.0
C10 C 0.94537 0.97646 0.9059 0.0
C11 C 0.06314 0.98889 0.9126 0.0
C12 C 0.0576 0.9887 0.87787 0.0
C13 C 0.99393 0.98325 0.85656 0.0
C14 C 0.93756 0.97576 0.87093 0.0
Zn15 Zn 0.01973 0.99143 0.97686 0.0
O16 O 0.96393 0.93392 0.03254 0.0
C17 C 0.92423 0.07753 0.99681 0.0
O18 O 0.95561 0.91749 0.97831 0.0
H19 H 0.11208 0.99409 0.92895 0.0
H20 H 0.94857 0.01186 0.08458 0.0
H21 H 0.9018 0.97227 0.91705 0.0
O22 O 0.95964 0.06835 0.02595 0.0
O23 O 0.93653 0.0491 0.97152 0.0
H24 H 0.15786 0.01283 0.08796 0.0
O25 O 0.08364 0.06625 0.97613 0.0
O26 O 0.10801 0.06926 0.03125 0.0
O27 O 0.10316 0.93319 0.98293 0.0
O28 O 0.1127 0.93625 0.03769 0.0
C29 C 0.11639 0.08909 0.00338 0.0
H30 H 0.96803 0.02252 0.146 0.0
H31 H 0.18208 0.02415 0.14951 0.0
H32 H 0.10286 0.99244 0.86803 0.0
H33 H 0.88777 0.9707 0.85525 0.0
C34 C 0.38606 0.42942 0.48502 0.0
N35 N 0.4976 0.50059 0.57613 0.0
C36 C 0.44158 0.5084 0.58908 0.0
C37 C 0.44611 0.50823 0.6239 0.0
C38 C 0.50904 0.49988 0.64549 0.0
C39 C 0.56543 0.49051 0.6313 0.0
C40 C 0.55872 0.49142 0.5965 0.0
Zn41 Zn 0.49355 0.50603 0.52555 0.0
C42 C 0.58072 0.4161 0.50101 0.0
N43 N 0.48851 0.51999 0.42038 0.0
C44 C 0.43018 0.52679 0.39729 0.0
C45 C 0.54889 0.51876 0.411 0.0
C46 C 0.55232 0.52437 0.37734 0.0
C47 C 0.49326 0.53183 0.35295 0.0
C48 C 0.43132 0.53276 0.36322 0.0
Zn49 Zn 0.48895 0.5129 0.47047 0.0
O50 O 0.41205 0.44629 0.51493 0.0
C51 C 0.40267 0.60358 0.49378 0.0
O52 O 0.40842 0.45002 0.46053 0.0
H53 H 0.59474 0.51343 0.42969 0.0
H54 H 0.3934 0.5153 0.5724 0.0
H55 H 0.38271 0.52741 0.4053 0.0
O56 O 0.42602 0.58055 0.52223 0.0
O57 O 0.4197 0.58267 0.46761 0.0
H58 H 0.60274 0.48561 0.58579 0.0
O59 O 0.56888 0.576 0.48159 0.0
O60 O 0.57475 0.56536 0.53566 0.0
O61 O 0.55846 0.4428 0.4737 0.0
O62 O 0.56122 0.43231 0.52751 0.0
C63 C 0.59594 0.58929 0.51189 0.0
H64 H 0.40078 0.51407 0.63355 0.0
H65 H 0.61469 0.48354 0.64705 0.0
H66 H 0.60096 0.52291 0.37044 0.0
H67 H 0.38413 0.53685 0.34535 0.0
H68 H 0.17131 0.99552 0.42088 0.0
H69 H 0.97624 0.07782 0.39993 0.0
H70 H 0.03076 0.96313 0.48445 0.0
C71 C 0.12275 0.00258 0.42715 0.0
C72 C 0.10706 0.97454 0.45527 0.0
C73 C 0.07505 0.03882 0.40658 0.0
C74 C 0.01368 0.05079 0.4159 0.0
C75 C 0.99777 0.02328 0.44389 0.0
C76 C 0.04436 0.98541 0.46336 0.0
N77 N 0.93297 0.02833 0.45121 0.0
C78 C 0.89319 0.07891 0.4451 0.0
H79 H 0.92328 0.92951 0.60376 0.0
H80 H 0.01402 0.096 0.58679 0.0
H81 H 0.89509 0.9973 0.50398 0.0
C82 C 0.9305 0.9643 0.5868 0.0
C83 C 0.90369 0.95768 0.55222 0.0
C84 C 0.96841 0.01518 0.59961 0.0
C85 C 0.98382 0.05729 0.57718 0.0
C86 C 0.9577 0.05042 0.54249 0.0
C87 C 0.91672 0.00156 0.53054 0.0
N88 N 0.96979 0.0922 0.51876 0.0
C89 C 0.02215 0.13294 0.52418 0.0
H90 H 0.64473 0.45332 0.8948 0.0
H91 H 0.51013 0.58413 0.92321 0.0
H92 H 0.63643 0.47831 0.99821 0.0
C93 C 0.62499 0.47789 0.91375 0.0
C94 C 0.64646 0.46195 0.94735 0.0
C95 C 0.57525 0.52188 0.90468 0.0
C96 C 0.54864 0.55052 0.93007 0.0
C97 C 0.57135 0.53538 0.96406 0.0
C98 C 0.61956 0.49073 0.97228 0.0
N99 N 0.54647 0.56341 0.99056 0.0
C100 C 0.49829 0.60802 0.98572 0.0
H101 H 0.40067 0.45933 0.09264 0.0
H102 H 0.58715 0.55504 0.10606 0.0
H103 H 0.54997 0.40498 0.03737 0.0
C104 C 0.44809 0.46707 0.08524 0.0
C105 C 0.46879 0.42835 0.06186 0.0
C106 C 0.49121 0.51152 0.10207 0.0
C107 C 0.55377 0.52039 0.09339 0.0
C108 C 0.57466 0.48228 0.06968 0.0
C109 C 0.53273 0.43556 0.05473 0.0
N110 N 0.63882 0.488 0.06164 0.0
C111 C 0.67419 0.54135 0.0649 0.0
H112 H 0.15414 0.16608 0.97975 0.0
C113 C 0.16113 0.14023 0.00257 0.0
H114 H 0.21483 0.13037 0.05235 0.0
H115 H 0.38651 0.33415 0.98467 0.0
H116 H 0.39999 0.25816 0.94338 0.0
H117 H 0.34673 0.15938 0.94307 0.0
H118 H 0.27817 0.13668 0.98333 0.0
C119 C 0.20834 0.15624 0.02954 0.0
C120 C 0.24624 0.21325 0.03111 0.0
C121 C 0.28933 0.22433 0.00855 0.0
C122 C 0.32373 0.27982 0.01015 0.0
C123 C 0.36223 0.29159 0.98572 0.0
C124 C 0.36994 0.24854 0.96171 0.0
C125 C 0.33969 0.19304 0.96143 0.0
C126 C 0.29992 0.18079 0.98453 0.0
H127 H 0.45328 0.33346 0.04683 0.0
C128 C 0.4276 0.37568 0.04834 0.0
H129 H 0.33453 0.42009 0.0414 0.0
H130 H 0.16467 0.20788 0.07696 0.0
H131 H 0.15651 0.28141 0.12015 0.0
H132 H 0.22357 0.37388 0.12603 0.0
H133 H 0.2982 0.39371 0.08844 0.0
C134 C 0.36011 0.37772 0.04038 0.0
C135 C 0.3189 0.32224 0.03585 0.0
C136 C 0.27626 0.3109 0.05858 0.0
C137 C 0.23922 0.25676 0.05589 0.0
C138 C 0.19545 0.24746 0.0783 0.0
C139 C 0.18999 0.28945 0.10321 0.0
C140 C 0.22761 0.34153 0.10647 0.0
C141 C 0.27026 0.35238 0.08454 0.0
H142 H 0.20464 0.85319 0.0407 0.0
C143 C 0.18696 0.87218 0.01601 0.0
H144 H 0.19704 0.87319 0.9654 0.0
H145 H 0.4789 0.74293 0.0475 0.0
H146 H 0.50407 0.83714 0.07768 0.0
H147 H 0.42235 0.91974 0.06897 0.0
H148 H 0.31484 0.90844 0.03037 0.0
C149 C 0.21518 0.85519 0.99029 0.0
C150 C 0.26702 0.80749 0.99408 0.0
C151 C 0.3304 0.81555 0.01621 0.0
C152 C 0.37824 0.76851 0.02058 0.0
C153 C 0.4408 0.77729 0.04313 0.0
C154 C 0.45599 0.83119 0.06056 0.0
C155 C 0.40993 0.87765 0.05571 0.0
C156 C 0.34802 0.87033 0.03369 0.0
H157 H 0.437 0.67777 0.95786 0.0
C158 C 0.44793 0.65386 0.98136 0.0
H159 H 0.42747 0.64347 0.02968 0.0
H160 H 0.15091 0.77785 0.94911 0.0
H161 H 0.12695 0.68429 0.91828 0.0
H162 H 0.21018 0.60288 0.92585 0.0
H163 H 0.31793 0.61468 0.96423 0.0
C164 C 0.41485 0.6664 0.00584 0.0
C165 C 0.36357 0.71441 0.002 0.0
C166 C 0.3006 0.70656 0.97959 0.0
C167 C 0.25242 0.75331 0.97548 0.0
C168 C 0.18969 0.74409 0.9531 0.0
C169 C 0.17511 0.69047 0.93529 0.0
C170 C 0.22198 0.64466 0.93953 0.0
C171 C 0.28389 0.65222 0.9615 0.0
H172 H 0.87954 0.82583 0.98397 0.0
C173 C 0.89418 0.85322 0.00665 0.0
H174 H 0.88891 0.86447 0.05769 0.0
H175 H 0.64138 0.67088 0.99766 0.0
H176 H 0.58734 0.75216 0.96384 0.0
H177 H 0.64545 0.84848 0.96327 0.0
H178 H 0.75803 0.86393 0.99646 0.0
C179 C 0.87312 0.83836 0.03462 0.0
C180 C 0.83554 0.78193 0.03621 0.0
C181 C 0.76941 0.77394 0.01689 0.0
C182 C 0.73551 0.7187 0.01759 0.0
C183 C 0.66953 0.71184 0.99804 0.0
C184 C 0.63782 0.7582 0.97855 0.0
C185 C 0.67056 0.81239 0.97822 0.0
C186 C 0.73543 0.82052 0.99721 0.0
H187 H 0.72024 0.62332 0.08882 0.0
C188 C 0.71032 0.5966 0.06578 0.0
H189 H 0.71906 0.58817 0.01519 0.0
H190 H 0.96108 0.78319 0.07713 0.0
H191 H 0.01465 0.70211 0.11118 0.0
H192 H 0.95678 0.60568 0.11147 0.0
H193 H 0.84486 0.58998 0.0779 0.0
C194 C 0.73132 0.61442 0.03842 0.0
C195 C 0.76724 0.67201 0.03804 0.0
C196 C 0.83316 0.68014 0.05757 0.0
C197 C 0.86699 0.7354 0.05694 0.0
C198 C 0.93283 0.74228 0.07666 0.0
C199 C 0.96436 0.696 0.09628 0.0
C200 C 0.93175 0.64175 0.09647 0.0
C201 C 0.86715 0.63353 0.07726 0.0
H202 H 0.8281 0.11541 0.97089 0.0
C203 C 0.87105 0.12276 0.99148 0.0
H204 H 0.92274 0.18361 0.02785 0.0
H205 H 0.69343 0.32717 0.91214 0.0
H206 H 0.75218 0.28695 0.87066 0.0
H207 H 0.85211 0.22324 0.88773 0.0
H208 H 0.89122 0.19688 0.94602 0.0
C209 C 0.87903 0.17572 0.00776 0.0
C210 C 0.82964 0.22505 0.99855 0.0
C211 C 0.81243 0.24521 0.96489 0.0
C212 C 0.75987 0.28733 0.95562 0.0
C213 C 0.73702 0.29971 0.92106 0.0
C214 C 0.76976 0.27629 0.89689 0.0
C215 C 0.82563 0.24008 0.90645 0.0
C216 C 0.847 0.22464 0.94 0.0
H217 H 0.74309 0.417 0.94756 0.0
C218 C 0.6961 0.41394 0.95615 0.0
H219 H 0.63418 0.36228 0.98 0.0
H220 H 0.85048 0.1971 0.06528 0.0
H221 H 0.79958 0.24512 0.10763 0.0
H222 H 0.71865 0.32733 0.09283 0.0
H223 H 0.68718 0.36122 0.03555 0.0
C224 C 0.68195 0.36519 0.97212 0.0
C225 C 0.73115 0.31566 0.98079 0.0
C226 C 0.75054 0.29763 0.01472 0.0
C227 C 0.79885 0.25149 0.02347 0.0
C228 C 0.8152 0.23276 0.05729 0.0
C229 C 0.78625 0.25988 0.0819 0.0
C230 C 0.74062 0.30608 0.07356 0.0
C231 C 0.72283 0.32498 0.04046 0.0
H232 H 0.66996 0.64358 0.54665 0.0
C233 C 0.64899 0.63456 0.52016 0.0
H234 H 0.64573 0.66167 0.47032 0.0
H235 H 0.72285 0.92434 0.52751 0.0
H236 H 0.60912 0.9383 0.49561 0.0
H237 H 0.54174 0.85258 0.46868 0.0
H238 H 0.58743 0.7524 0.47364 0.0
C239 C 0.66827 0.66794 0.49684 0.0
C240 C 0.71293 0.71993 0.50769 0.0
C241 C 0.68574 0.77824 0.50388 0.0
C242 C 0.72466 0.82763 0.51924 0.0
C243 C 0.69572 0.88529 0.51602 0.0
C244 C 0.63044 0.89392 0.49786 0.0
C245 C 0.59248 0.84565 0.48271 0.0
C246 C 0.61936 0.78836 0.48576 0.0
H247 H 0.85769 0.89649 0.51058 0.0
C248 C 0.8632 0.90519 0.53744 0.0
H249 H 0.83256 0.87674 0.5815 0.0
H250 H 0.78307 0.6151 0.51512 0.0
H251 H 0.89778 0.60134 0.54602 0.0
H252 H 0.96464 0.68686 0.57367 0.0
H253 H 0.91735 0.78665 0.57049 0.0
C254 C 0.83079 0.8695 0.5549 0.0
C255 C 0.79078 0.81843 0.53795 0.0
C256 C 0.81902 0.76054 0.54045 0.0
C257 C 0.78022 0.71121 0.52499 0.0
C258 C 0.80996 0.65389 0.52715 0.0
C259 C 0.87582 0.64547 0.5446 0.0
C260 C 0.9135 0.69363 0.56014 0.0
C261 C 0.88574 0.75064 0.55814 0.0
H262 H 0.64199 0.34051 0.52459 0.0
C263 C 0.62819 0.36613 0.50175 0.0
H264 H 0.63908 0.37628 0.4516 0.0
H265 H 0.90158 0.20567 0.51408 0.0
H266 H 0.94275 0.28952 0.55108 0.0
H267 H 0.87339 0.37959 0.55205 0.0
H268 H 0.76185 0.38569 0.51674 0.0
C269 C 0.65381 0.3516 0.47473 0.0
C270 C 0.69714 0.29835 0.47394 0.0
C271 C 0.7628 0.2962 0.49432 0.0
C272 C 0.80352 0.24492 0.4931 0.0
C273 C 0.86862 0.24353 0.51396 0.0
C274 C 0.89301 0.29149 0.5352 0.0
C275 C 0.85385 0.34212 0.53583 0.0
C276 C 0.78963 0.34483 0.51558 0.0
H277 H 0.84228 0.1585 0.42195 0.0
C278 C 0.85057 0.13045 0.44391 0.0
H279 H 0.83218 0.11546 0.49224 0.0
H280 H 0.57368 0.28827 0.4315 0.0
H281 H 0.53275 0.20424 0.3947 0.0
H282 H 0.60343 0.11529 0.39272 0.0
H283 H 0.71555 0.10999 0.42742 0.0
C284 C 0.822 0.14316 0.47008 0.0
C285 C 0.77926 0.19671 0.47088 0.0
C286 C 0.71374 0.19893 0.45043 0.0
C287 C 0.67279 0.24998 0.45183 0.0
C288 C 0.60725 0.25084 0.43133 0.0
C289 C 0.58296 0.20279 0.41015 0.0
C290 C 0.62276 0.15273 0.40902 0.0
C291 C 0.68727 0.15045 0.42896 0.0
H292 H 0.3033 0.37789 0.45304 0.0
C293 C 0.3298 0.38652 0.47878 0.0
H294 H 0.33641 0.36794 0.53006 0.0
H295 H 0.03747 0.29235 0.52035 0.0
H296 H 0.03831 0.39014 0.54683 0.0
H297 H 0.13644 0.45674 0.55183 0.0
H298 H 0.2338 0.42607 0.53011 0.0
C299 C 0.31089 0.35849 0.50425 0.0
C300 C 0.25072 0.31922 0.4991 0.0
C301 C 0.19468 0.33755 0.51246 0.0
C302 C 0.13871 0.29882 0.5102 0.0
C303 C 0.0823 0.31916 0.52253 0.0
C304 C 0.08188 0.37545 0.53751 0.0
C305 C 0.13705 0.41294 0.54027 0.0
C306 C 0.19278 0.39461 0.52781 0.0
H307 H 0.10608 0.18931 0.54877 0.0
C308 C 0.07472 0.17578 0.52481 0.0
H309 H 0.05377 0.18296 0.47202 0.0
H310 H 0.35017 0.26968 0.47099 0.0
H311 H 0.3468 0.17338 0.44269 0.0
H312 H 0.24844 0.10712 0.43783 0.0
H313 H 0.15327 0.13659 0.46163 0.0
C314 C 0.08441 0.1983 0.49587 0.0
C315 C 0.13959 0.24128 0.49531 0.0
C316 C 0.19404 0.224 0.48048 0.0
C317 C 0.25016 0.26273 0.48271 0.0
C318 C 0.30538 0.24298 0.4692 0.0
C319 C 0.3043 0.18754 0.45305 0.0
C320 C 0.249 0.15019 0.45037 0.0
C321 C 0.1946 0.16775 0.46408 0.0
H322 H 0.33186 0.66654 0.46479 0.0
C323 C 0.35699 0.65503 0.4902 0.0
H324 H 0.37648 0.68245 0.54141 0.0
H325 H 0.31071 0.94635 0.48334 0.0
H326 H 0.43122 0.95363 0.50514 0.0
H327 H 0.49631 0.86608 0.52928 0.0
H328 H 0.4416 0.77046 0.53142 0.0
C329 C 0.34902 0.69057 0.51597 0.0
C330 C 0.30814 0.7457 0.50879 0.0
C331 C 0.34067 0.80134 0.50832 0.0
C332 C 0.30311 0.85181 0.49444 0.0
C333 C 0.33703 0.90658 0.4935 0.0
C334 C 0.40607 0.91138 0.50597 0.0
C335 C 0.44275 0.86205 0.51952 0.0
C336 C 0.41078 0.80747 0.5206 0.0
H337 H 0.14528 0.92092 0.50054 0.0
C338 C 0.15251 0.93047 0.4754 0.0
H339 H 0.20305 0.90298 0.43709 0.0
H340 H 0.22959 0.64835 0.51182 0.0
H341 H 0.10874 0.64104 0.49123 0.0
H342 H 0.04367 0.72739 0.4654 0.0
H343 H 0.0986 0.82148 0.46022 0.0
C344 C 0.19595 0.89665 0.4625 0.0
C345 C 0.23308 0.84655 0.48143 0.0
C346 C 0.19982 0.79179 0.48398 0.0
C347 C 0.23743 0.74152 0.49807 0.0
C348 C 0.20331 0.68743 0.50063 0.0
C349 C 0.13406 0.68273 0.48906 0.0
C350 C 0.09742 0.7314 0.47458 0.0
C351 C 0.12963 0.7853 0.47188 0.0
H352 H 0.14324 0.01569 0.2031 0.0
C353 C 0.09335 0.02958 0.19021 0.0
H354 H -4e-05 0.06398 0.19736 0.0
H355 H 0.04731 0.9309 0.33799 0.0
H356 H 0.9788 0.85664 0.30274 0.0
H357 H 0.94973 0.86691 0.24112 0.0
H358 H 0.98894 0.95177 0.21441 0.0
C359 C 0.04994 0.04867 0.20884 0.0
C360 C 0.06705 0.04374 0.24598 0.0
C361 C 0.04382 0.99387 0.26115 0.0
C362 C 0.06107 0.98777 0.2966 0.0
C363 C 0.03654 0.93765 0.31113 0.0
C364 C 0.99694 0.89465 0.29119 0.0
C365 C 0.98054 0.90044 0.25651 0.0
C366 C 0.00345 0.94939 0.24151 0.0
H367 H 0.05174 0.09468 0.36137 0.0
C368 C 0.08343 0.05848 0.37306 0.0
H369 H 0.14403 0.98595 0.36385 0.0
H370 H 0.11798 0.14535 0.22468 0.0
H371 H 0.18799 0.21943 0.25983 0.0
H372 H 0.21983 0.20792 0.32136 0.0
H373 H 0.18164 0.12242 0.34816 0.0
C374 C 0.11663 0.0255 0.3539 0.0
C375 C 0.1013 0.0318 0.3168 0.0
C376 C 0.12469 0.08164 0.30162 0.0
C377 C 0.10723 0.08777 0.2661 0.0
C378 C 0.13047 0.13827 0.25151 0.0
C379 C 0.17055 0.1811 0.2714 0.0
C380 C 0.1884 0.17467 0.30605 0.0
C381 C 0.16596 0.12555 0.32113 0.0
H382 H 0.9407 0.96254 0.80441 0.0
C383 C 0.98505 0.98411 0.81946 0.0
H384 H 0.06974 0.038 0.81771 0.0
H385 H -5e-05 0.89905 0.6683 0.0
H386 H 0.04149 0.81035 0.69918 0.0
H387 H 0.07379 0.81321 0.76114 0.0
H388 H 0.06419 0.90464 0.79258 0.0
C389 C 0.02784 0.01203 0.80371 0.0
C390 C 0.01607 0.01182 0.76644 0.0
C391 C 0.0234 0.95827 0.74852 0.0
C392 C 0.00584 0.95686 0.71284 0.0
C393 C 0.01252 0.90258 0.69547 0.0
C394 C 0.03651 0.85138 0.71286 0.0
C395 C 0.05462 0.85298 0.74775 0.0
C396 C 0.04843 0.90569 0.7655 0.0
H397 H 0.03889 0.0488 0.64547 0.0
C398 C 0.99229 0.02449 0.63635 0.0
H399 H 0.90881 0.98258 0.64984 0.0
H400 H 0.00223 0.12285 0.79327 0.0
H401 H 0.96419 0.21234 0.76226 0.0
H402 H 0.93365 0.20984 0.70025 0.0
H403 H 0.94115 0.11789 0.66886 0.0
C404 C 0.95661 0.00519 0.65841 0.0
C405 C 0.98231 0.00922 0.69523 0.0
C406 C 0.97826 0.06351 0.71305 0.0
C407 C 0.99552 0.06486 0.74878 0.0
C408 C 0.98994 0.11937 0.7661 0.0
C409 C 0.96809 0.17103 0.74862 0.0
C410 C 0.95091 0.16963 0.7137 0.0
C411 C 0.95559 0.11658 0.69599 0.0
H412 H 0.56454 0.47984 0.69674 0.0
C413 C 0.51848 0.49962 0.68269 0.0
H414 H 0.43174 0.54883 0.68747 0.0
H415 H 0.54995 0.41371 0.83425 0.0
H416 H 0.51334 0.3217 0.80369 0.0
H417 H 0.46463 0.32223 0.74281 0.0
H418 H 0.45294 0.41475 0.71207 0.0
C419 C 0.47596 0.52489 0.70011 0.0
C420 C 0.49294 0.52572 0.73757 0.0
C421 C 0.49743 0.47151 0.75532 0.0
C422 C 0.52414 0.47139 0.7905 0.0
C423 C 0.52983 0.41641 0.80749 0.0
C424 C 0.50883 0.36327 0.79029 0.0
C425 C 0.48151 0.36356 0.756 0.0
C426 C 0.47557 0.4169 0.73862 0.0
H427 H 0.49524 0.55205 0.86249 0.0
C428 C 0.54626 0.53483 0.86883 0.0
H429 H 0.63062 0.50799 0.84923 0.0
H430 H 0.48372 0.63813 0.7118 0.0
H431 H 0.51514 0.73064 0.74294 0.0
H432 H 0.56025 0.73039 0.80416 0.0
H433 H 0.57428 0.63752 0.83466 0.0
C434 C 0.57917 0.52386 0.84393 0.0
C435 C 0.54454 0.52563 0.80801 0.0
C436 C 0.53567 0.58029 0.79075 0.0
C437 C 0.50966 0.58036 0.75543 0.0
C438 C 0.50292 0.63547 0.73862 0.0
C439 C 0.52082 0.68889 0.75619 0.0
C440 C 0.54621 0.68876 0.79067 0.0
C441 C 0.55392 0.63519 0.80787 0.0
H442 H 0.54596 0.5206 0.31102 0.0
C443 C 0.49885 0.53521 0.31721 0.0
H444 H 0.40375 0.57343 0.29703 0.0
H445 H 0.50253 0.66227 0.1675 0.0
H446 H 0.48222 0.75647 0.19423 0.0
H447 H 0.45211 0.75871 0.24998 0.0
H448 H 0.44173 0.66692 0.27931 0.0
C449 C 0.45007 0.5548 0.29213 0.0
C450 C 0.46037 0.55355 0.25693 0.0
C451 C 0.4657 0.60762 0.24012 0.0
C452 C 0.48346 0.60644 0.20807 0.0
C453 C 0.48921 0.66091 0.1919 0.0
C454 C 0.47774 0.71516 0.20696 0.0
C455 C 0.46077 0.71642 0.23836 0.0
C456 C 0.45495 0.66343 0.25492 0.0
H457 H 0.41978 0.54477 0.13228 0.0
C458 C 0.4729 0.54136 0.13169 0.0
H459 H 0.57116 0.54068 0.16158 0.0
H460 H 0.44047 0.44154 0.27905 0.0
H461 H 0.45931 0.34769 0.25199 0.0
H462 H 0.49639 0.34577 0.19796 0.0
H463 H 0.51396 0.43758 0.17051 0.0
C464 C 0.51821 0.5492 0.16058 0.0
C465 C 0.49599 0.55131 0.19309 0.0
C466 C 0.48791 0.49711 0.20924 0.0
C467 C 0.46868 0.4982 0.24086 0.0
C468 C 0.45771 0.44336 0.25566 0.0
C469 C 0.46775 0.38912 0.24025 0.0
C470 C 0.48846 0.38804 0.2098 0.0
C471 C 0.49837 0.44119 0.19433 0.0
loop_
_geom_bond_atom_site_label_1
_geom_bond_atom_site_label_2
_geom_bond_distance
_geom_bond_site_symmetry_2
_ccdc_geom_bond_type
C0 O16 1.251 . S
C0 O18 1.254 1_554 S
N1 C2 1.333 1_445 S
N1 C6 1.307 . S
N1 Zn7 2.020 . S
C2 N1 1.333 1_665 S
C2 C3 1.379 . S
C2 H20 0.952 . S
C3 C2 1.379 . S
C3 C4 1.390 1_665 S
C3 H30 0.949 . S
C4 C3 1.390 1_445 S
C4 C5 1.357 . S
C5 C4 1.357 . S
C5 C6 1.370 . S
C5 H31 0.950 . S
C6 N1 1.307 . S
C6 C5 1.370 . S
C6 H24 0.948 . S
Zn7 N1 2.020 . S
Zn7 O16 2.039 1_445 S
Zn7 O22 2.034 1_455 S
Zn7 O26 2.025 . S
Zn7 O28 2.024 1_545 S
C8 O27 1.246 1_554 S
C8 O28 1.249 . S
N9 C10 1.308 1_445 S
N9 C11 1.332 . S
N9 Zn15 2.020 . S
C10 N9 1.308 1_665 S
C10 C14 1.370 . S
C10 H21 0.948 . S
C11 N9 1.332 . S
C11 C12 1.379 . S
C11 H19 0.952 . S
C12 C11 1.379 . S
C12 C13 1.390 1_455 S
C12 H32 0.949 . S
C13 C12 1.390 1_655 S
C13 C14 1.357 1_545 S
C14 C10 1.370 . S
C14 C13 1.357 1_565 S
C14 H33 0.950 . S
Zn15 N9 2.020 . S
Zn15 O18 2.025 1_445 S
Zn15 O23 2.024 1_455 S
Zn15 O25 2.039 . S
Zn15 O27 2.034 1_545 S
O16 C0 1.251 . S
O16 Zn7 2.039 1_665 S
C17 O22 1.260 . S
C17 O23 1.233 1_554 S
O18 C0 1.254 1_556 S
O18 Zn15 2.025 1_665 S
H19 C11 0.952 . S
H20 C2 0.952 . S
H21 C10 0.948 . S
O22 Zn7 2.034 1_655 S
O22 C17 1.260 . S
O23 Zn15 2.024 1_655 S
O23 C17 1.233 1_556 S
H24 C6 0.948 . S
O25 Zn15 2.039 . S
O25 C29 1.251 1_556 S
O26 Zn7 2.025 . S
O26 C29 1.254 . S
O27 C8 1.246 1_556 S
O27 Zn15 2.034 1_565 S
O28 Zn7 2.024 1_565 S
O28 C8 1.249 . S
C29 O25 1.251 1_554 S
C29 O26 1.254 . S
H30 C3 0.949 . S
H31 C5 0.950 . S
H32 C12 0.949 . S
H33 C14 0.950 . S
C34 O50 1.251 . S
C34 O52 1.254 . S
N35 C36 1.333 . S
N35 C40 1.307 . S
N35 Zn41 2.020 . S
C36 N35 1.333 . S
C36 C37 1.379 . S
C36 H54 0.952 . S
C37 C36 1.379 . S
C37 C38 1.390 . S
C37 H64 0.949 . S
C38 C37 1.390 . S
C38 C39 1.357 . S
C39 C38 1.357 . S
C39 C40 1.370 . S
C39 H65 0.950 . S
C40 N35 1.307 . S
C40 C39 1.370 . S
C40 H58 0.948 . S
Zn41 N35 2.020 . S
Zn41 O50 2.039 . S
Zn41 O56 2.034 . S
Zn41 O60 2.025 . S
Zn41 O62 2.024 . S
C42 O61 1.246 . S
C42 O62 1.249 . S
N43 C44 1.307 . S
N43 C45 1.333 . S
N43 Zn49 2.020 . S
C44 N43 1.307 . S
C44 C48 1.370 . S
C44 H55 0.948 . S
C45 N43 1.333 . S
C45 C46 1.379 . S
C45 H53 0.952 . S
C46 C45 1.379 . S
C46 C47 1.390 . S
C46 H66 0.949 . S
C47 C46 1.390 . S
C47 C48 1.357 . S
C48 C44 1.370 . S
C48 C47 1.357 . S
C48 H67 0.950 . S
Zn49 N43 2.020 . S
Zn49 O52 2.025 . S
Zn49 O57 2.024 . S
Zn49 O59 2.039 . S
Zn49 O61 2.034 . S
O50 C34 1.251 . S
O50 Zn41 2.039 . S
C51 O56 1.246 . S
C51 O57 1.249 . S
O52 C34 1.254 . S
O52 Zn49 2.025 . S
H53 C45 0.952 . S
H54 C36 0.952 . S
H55 C44 0.948 . S
O56 Zn41 2.034 . S
O56 C51 1.246 . S
O57 Zn49 2.024 . S
O57 C51 1.249 . S
H58 C40 0.948 . S
O59 Zn49 2.039 . S
O59 C63 1.251 . S
O60 Zn41 2.025 . S
O60 C63 1.254 . S
O61 C42 1.246 . S
O61 Zn49 2.034 . S
O62 Zn41 2.024 . S
O62 C42 1.249 . S
C63 O59 1.251 . S
C63 O60 1.254 . S
H64 C37 0.949 . S
H65 C39 0.950 . S
H66 C46 0.949 . S
H67 C48 0.950 . S
H68 C71 0.929 . S
H69 C74 0.929 1_655 S
H70 C76 0.930 . S
C71 H68 0.929 . S
C71 C72 1.398 . S
C71 C73 1.396 1_565 S
C72 C71 1.398 . S
C72 C76 1.407 . S
C73 C71 1.396 1_545 S
C73 C74 1.394 . S
C74 H69 0.929 1_455 S
C74 C73 1.394 . S
C74 C75 1.382 . S
C75 C74 1.382 . S
C75 C76 1.392 1_545 S
C75 N77 1.420 1_455 S
C76 H70 0.930 . S
C76 C72 1.407 . S
C76 C75 1.392 1_565 S
N77 C75 1.420 1_655 S
N77 C78 1.244 . S
C78 N77 1.244 . S
H79 C82 0.929 . S
H80 C85 0.929 . S
H81 C87 0.930 . S
C82 H79 0.929 . S
C82 C83 1.398 . S
C82 C84 1.396 1_565 S
C83 C82 1.398 . S
C83 C87 1.407 . S
C84 C82 1.396 1_545 S
C84 C85 1.394 1_655 S
C85 H80 0.929 . S
C85 C84 1.394 1_455 S
C85 C86 1.382 . S
C86 C85 1.382 . S
C86 C87 1.392 1_445 S
C86 N88 1.420 . S
C87 H81 0.930 . S
C87 C83 1.407 . S
C87 C86 1.392 1_665 S
N88 C86 1.420 . S
N88 C89 1.244 . S
C89 N88 1.244 . S
H90 C93 0.929 . S
H91 C96 0.929 . S
H92 C98 0.930 1_554 S
C93 H90 0.929 . S
C93 C94 1.398 . S
C93 C95 1.396 . S
C94 C93 1.398 . S
C94 C98 1.407 . S
C95 C93 1.396 . S
C95 C96 1.394 . S
C96 H91 0.929 . S
C96 C95 1.394 . S
C96 C97 1.382 . S
C97 C96 1.382 . S
C97 C98 1.392 . S
C97 N99 1.420 . S
C98 H92 0.930 1_556 S
C98 C94 1.407 . S
C98 C97 1.392 . S
N99 C97 1.420 . S
N99 C100 1.244 . S
C100 N99 1.244 . S
H101 C104 0.929 . S
H102 C107 0.929 . S
H103 C109 0.930 1_556 S
C104 H101 0.929 . S
C104 C105 1.398 . S
C104 C106 1.396 . S
C105 C104 1.398 . S
C105 C109 1.407 . S
C106 C104 1.396 . S
C106 C107 1.394 . S
C107 H102 0.929 . S
C107 C106 1.394 . S
C107 C108 1.382 . S
C108 C107 1.382 . S
C108 C109 1.392 . S
C108 N110 1.420 . S
C109 H103 0.930 1_554 S
C109 C105 1.407 . S
C109 C108 1.392 . S
N110 C108 1.420 . S
N110 C111 1.244 . S
C111 N110 1.244 . S
H112 C113 0.951 . S
C113 H112 0.951 . S
C113 C119 1.265 . S
H114 C119 0.950 . S
H115 C123 0.949 . S
H116 C124 0.950 . S
H117 C125 0.951 . S
H118 C126 0.951 . S
C119 C113 1.265 . S
C119 H114 0.950 . S
C119 C120 1.478 . S
C120 C119 1.478 . S
C120 C121 1.397 1_554 S
C120 C137 1.394 . S
C121 C120 1.397 1_556 S
C121 C122 1.438 . S
C121 C126 1.429 . S
C122 C121 1.438 . S
C122 C123 1.428 . S
C122 C135 1.394 1_556 S
C123 H115 0.949 . S
C123 C122 1.428 . S
C123 C124 1.345 . S
C124 H116 0.950 . S
C124 C123 1.345 . S
C124 C125 1.424 . S
C125 H117 0.951 . S
C125 C124 1.424 . S
C125 C126 1.347 . S
C126 H118 0.951 . S
C126 C121 1.429 . S
C126 C125 1.347 . S
H127 C128 0.951 . S
C128 H127 0.951 . S
C128 C134 1.265 . S
H129 C134 0.950 . S
H130 C138 0.949 . S
H131 C139 0.950 . S
H132 C140 0.951 . S
H133 C141 0.951 . S
C134 C128 1.265 . S
C134 H129 0.950 . S
C134 C135 1.478 . S
C135 C122 1.394 1_554 S
C135 C134 1.478 . S
C135 C136 1.397 . S
C136 C135 1.397 . S
C136 C137 1.438 . S
C136 C141 1.429 . S
C137 C120 1.394 . S
C137 C136 1.438 . S
C137 C138 1.428 . S
C138 H130 0.949 . S
C138 C137 1.428 . S
C138 C139 1.345 . S
C139 H131 0.950 . S
C139 C138 1.345 . S
C139 C140 1.424 . S
C140 H132 0.951 . S
C140 C139 1.424 . S
C140 C141 1.347 . S
C141 H133 0.951 . S
C141 C136 1.429 . S
C141 C140 1.347 . S
H142 C143 0.951 . S
C143 H142 0.951 . S
C143 C149 1.265 . S
H144 C149 0.950 . S
H145 C153 0.949 . S
H146 C154 0.950 . S
H147 C155 0.951 . S
H148 C156 0.951 . S
C149 C143 1.265 . S
C149 H144 0.950 . S
C149 C150 1.478 . S
C150 C149 1.478 . S
C150 C151 1.397 . S
C150 C167 1.394 1_554 S
C151 C150 1.397 . S
C151 C152 1.438 . S
C151 C156 1.429 . S
C152 C151 1.438 . S
C152 C153 1.428 . S
C152 C165 1.394 1_554 S
C153 H145 0.949 . S
C153 C152 1.428 . S
C153 C154 1.345 . S
C154 H146 0.950 . S
C154 C153 1.345 . S
C154 C155 1.424 . S
C155 H147 0.951 . S
C155 C154 1.424 . S
C155 C156 1.347 . S
C156 H148 0.951 . S
C156 C151 1.429 . S
C156 C155 1.347 . S
H157 C158 0.951 1_554 S
C158 H157 0.951 1_556 S
C158 C164 1.265 . S
H159 C164 0.950 . S
H160 C168 0.949 . S
H161 C169 0.950 . S
H162 C170 0.951 . S
H163 C171 0.951 . S
C164 C158 1.265 . S
C164 H159 0.950 . S
C164 C165 1.478 . S
C165 C152 1.394 1_556 S
C165 C164 1.478 . S
C165 C166 1.397 . S
C166 C165 1.397 . S
C166 C167 1.438 . S
C166 C171 1.429 . S
C167 C150 1.394 1_556 S
C167 C166 1.438 . S
C167 C168 1.428 . S
C168 H160 0.949 . S
C168 C167 1.428 . S
C168 C169 1.345 . S
C169 H161 0.950 . S
C169 C168 1.345 . S
C169 C170 1.424 . S
C170 H162 0.951 . S
C170 C169 1.424 . S
C170 C171 1.347 . S
C171 H163 0.951 . S
C171 C166 1.429 . S
C171 C170 1.347 . S
H172 C173 0.951 . S
C173 H172 0.951 . S
C173 C179 1.264 . S
H174 C179 0.949 1_556 S
H175 C183 0.949 . S
H176 C184 0.950 . S
H177 C185 0.951 . S
H178 C186 0.951 . S
C179 C173 1.264 . S
C179 H174 0.949 1_554 S
C179 C180 1.480 . S
C180 C179 1.480 . S
C180 C181 1.397 1_554 S
C180 C197 1.394 . S
C181 C180 1.397 1_556 S
C181 C182 1.438 . S
C181 C186 1.429 . S
C182 C181 1.438 . S
C182 C183 1.428 . S
C182 C195 1.394 1_556 S
C183 H175 0.949 . S
C183 C182 1.428 . S
C183 C184 1.345 . S
C184 H176 0.950 . S
C184 C183 1.345 . S
C184 C185 1.424 . S
C185 H177 0.951 . S
C185 C184 1.424 . S
C185 C186 1.347 . S
C186 H178 0.951 . S
C186 C181 1.429 . S
C186 C185 1.347 . S
H187 C188 0.951 . S
C188 H187 0.951 . S
C188 C194 1.265 . S
H189 C194 0.950 . S
H190 C198 0.949 . S
H191 C199 0.950 . S
H192 C200 0.951 . S
H193 C201 0.951 . S
C194 C188 1.265 . S
C194 H189 0.950 . S
C194 C195 1.478 . S
C195 C182 1.394 1_554 S
C195 C194 1.478 . S
C195 C196 1.397 . S
C196 C195 1.397 . S
C196 C197 1.438 . S
C196 C201 1.429 . S
C197 C180 1.394 . S
C197 C196 1.438 . S
C197 C198 1.428 . S
C198 H190 0.949 . S
C198 C197 1.428 . S
C198 C199 1.345 . S
C199 H191 0.950 . S
C199 C198 1.345 . S
C199 C200 1.424 . S
C200 H192 0.951 . S
C200 C199 1.424 . S
C200 C201 1.347 . S
C201 H193 0.951 . S
C201 C196 1.429 . S
C201 C200 1.347 . S
H202 C203 0.937 1_554 S
C203 H202 0.937 1_556 S
C203 C209 1.270 . S
H204 C209 0.950 . S
H205 C213 0.949 . S
H206 C214 0.950 . S
H207 C215 0.951 . S
H208 C216 0.951 . S
C209 C203 1.270 . S
C209 H204 0.950 . S
C209 C210 1.478 . S
C210 C209 1.478 . S
C210 C211 1.397 . S
C210 C227 1.394 1_556 S
C211 C210 1.397 . S
C211 C212 1.438 . S
C211 C216 1.429 . S
C212 C211 1.438 . S
C212 C213 1.428 . S
C212 C225 1.394 . S
C213 H205 0.949 . S
C213 C212 1.428 . S
C213 C214 1.345 . S
C214 H206 0.950 . S
C214 C213 1.345 . S
C214 C215 1.424 . S
C215 H207 0.951 . S
C215 C214 1.424 . S
C215 C216 1.347 . S
C216 H208 0.951 . S
C216 C211 1.429 . S
C216 C215 1.347 . S
H217 C218 0.951 . S
C218 H217 0.951 . S
C218 C224 1.265 . S
H219 C224 0.950 . S
H220 C228 0.949 . S
H221 C229 0.950 . S
H222 C230 0.951 . S
H223 C231 0.951 . S
C224 C218 1.265 . S
C224 H219 0.950 . S
C224 C225 1.478 . S
C225 C212 1.394 . S
C225 C224 1.478 . S
C225 C226 1.397 1_556 S
C226 C225 1.397 1_554 S
C226 C227 1.438 . S
C226 C231 1.429 . S
C227 C210 1.394 1_554 S
C227 C226 1.438 . S
C227 C228 1.428 . S
C228 H220 0.949 . S
C228 C227 1.428 . S
C228 C229 1.345 . S
C229 H221 0.950 . S
C229 C228 1.345 . S
C229 C230 1.424 . S
C230 H222 0.951 . S
C230 C229 1.424 . S
C230 C231 1.347 . S
C231 H223 0.951 . S
C231 C226 1.429 . S
C231 C230 1.347 . S
H232 C233 0.951 . S
C233 H232 0.951 . S
C233 C239 1.265 . S
H234 C239 0.950 . S
H235 C243 0.949 . S
H236 C244 0.950 . S
H237 C245 0.951 . S
H238 C246 0.951 . S
C239 C233 1.265 . S
C239 H234 0.950 . S
C239 C240 1.478 . S
C240 C239 1.478 . S
C240 C241 1.397 . S
C240 C257 1.394 . S
C241 C240 1.397 . S
C241 C242 1.438 . S
C241 C246 1.429 . S
C242 C241 1.438 . S
C242 C243 1.428 . S
C242 C255 1.394 . S
C243 H235 0.949 . S
C243 C242 1.428 . S
C243 C244 1.345 . S
C244 H236 0.950 . S
C244 C243 1.345 . S
C244 C245 1.424 . S
C245 H237 0.951 . S
C245 C244 1.424 . S
C245 C246 1.347 . S
C246 H238 0.951 . S
C246 C241 1.429 . S
C246 C245 1.347 . S
H247 C248 0.951 . S
C248 H247 0.951 . S
C248 C254 1.265 . S
H249 C254 0.950 . S
H250 C258 0.949 . S
H251 C259 0.950 . S
H252 C260 0.951 . S
H253 C261 0.951 . S
C254 C248 1.265 . S
C254 H249 0.950 . S
C254 C255 1.478 . S
C255 C242 1.394 . S
C255 C254 1.478 . S
C255 C256 1.397 . S
C256 C255 1.397 . S
C256 C257 1.438 . S
C256 C261 1.429 . S
C257 C240 1.394 . S
C257 C256 1.438 . S
C257 C258 1.428 . S
C258 H250 0.949 . S
C258 C257 1.428 . S
C258 C259 1.345 . S
C259 H251 0.950 . S
C259 C258 1.345 . S
C259 C260 1.424 . S
C260 H252 0.951 . S
C260 C259 1.424 . S
C260 C261 1.347 . S
C261 H253 0.951 . S
C261 C256 1.429 . S
C261 C260 1.347 . S
H262 C263 0.951 . S
C263 H262 0.951 . S
C263 C269 1.265 . S
H264 C269 0.950 . S
H265 C273 0.949 . S
H266 C274 0.950 . S
H267 C275 0.951 . S
H268 C276 0.951 . S
C269 C263 1.265 . S
C269 H264 0.950 . S
C269 C270 1.478 . S
C270 C269 1.478 . S
C270 C271 1.397 . S
C270 C287 1.394 . S
C271 C270 1.397 . S
C271 C272 1.438 . S
C271 C276 1.429 . S
C272 C271 1.438 . S
C272 C273 1.428 . S
C272 C285 1.394 . S
C273 H265 0.949 . S
C273 C272 1.428 . S
C273 C274 1.345 . S
C274 H266 0.950 . S
C274 C273 1.345 . S
C274 C275 1.424 . S
C275 H267 0.951 . S
C275 C274 1.424 . S
C275 C276 1.347 . S
C276 H268 0.951 . S
C276 C271 1.429 . S
C276 C275 1.347 . S
H277 C278 0.951 . S
C278 H277 0.951 . S
C278 C284 1.265 . S
H279 C284 0.950 . S
H280 C288 0.949 . S
H281 C289 0.950 . S
H282 C290 0.951 . S
H283 C291 0.951 . S
C284 C278 1.265 . S
C284 H279 0.950 . S
C284 C285 1.478 . S
C285 C272 1.394 . S
C285 C284 1.478 . S
C285 C286 1.397 . S
C286 C285 1.397 . S
C286 C287 1.438 . S
C286 C291 1.429 . S
C287 C270 1.394 . S
C287 C286 1.438 . S
C287 C288 1.428 . S
C288 H280 0.949 . S
C288 C287 1.428 . S
C288 C289 1.345 . S
C289 H281 0.950 . S
C289 C288 1.345 . S
C289 C290 1.424 . S
C290 H282 0.951 . S
C290 C289 1.424 . S
C290 C291 1.347 . S
C291 H283 0.951 . S
C291 C286 1.429 . S
C291 C290 1.347 . S
H292 C293 0.951 . S
C293 H292 0.951 . S
C293 C299 1.265 . S
H294 C299 0.950 . S
H295 C303 0.949 . S
H296 C304 0.950 . S
H297 C305 0.951 . S
H298 C306 0.951 . S
C299 C293 1.265 . S
C299 H294 0.950 . S
C299 C300 1.478 . S
C300 C299 1.478 . S
C300 C301 1.397 . S
C300 C317 1.394 . S
C301 C300 1.397 . S
C301 C302 1.438 . S
C301 C306 1.429 . S
C302 C301 1.438 . S
C302 C303 1.428 . S
C302 C315 1.394 . S
C303 H295 0.949 . S
C303 C302 1.428 . S
C303 C304 1.345 . S
C304 H296 0.950 . S
C304 C303 1.345 . S
C304 C305 1.424 . S
C305 H297 0.951 . S
C305 C304 1.424 . S
C305 C306 1.347 . S
C306 H298 0.951 . S
C306 C301 1.429 . S
C306 C305 1.347 . S
H307 C308 0.951 . S
C308 H307 0.951 . S
C308 C314 1.265 . S
H309 C314 0.950 . S
H310 C318 0.949 . S
H311 C319 0.950 . S
H312 C320 0.951 . S
H313 C321 0.951 . S
C314 C308 1.265 . S
C314 H309 0.950 . S
C314 C315 1.478 . S
C315 C302 1.394 . S
C315 C314 1.478 . S
C315 C316 1.397 . S
C316 C315 1.397 . S
C316 C317 1.438 . S
C316 C321 1.429 . S
C317 C300 1.394 . S
C317 C316 1.438 . S
C317 C318 1.428 . S
C318 H310 0.949 . S
C318 C317 1.428 . S
C318 C319 1.345 . S
C319 H311 0.950 . S
C319 C318 1.345 . S
C319 C320 1.424 . S
C320 H312 0.951 . S
C320 C319 1.424 . S
C320 C321 1.347 . S
C321 H313 0.951 . S
C321 C316 1.429 . S
C321 C320 1.347 . S
H322 C323 0.951 . S
C323 H322 0.951 . S
C323 C329 1.265 . S
H324 C329 0.950 . S
H325 C333 0.949 . S
H326 C334 0.950 . S
H327 C335 0.951 . S
H328 C336 0.951 . S
C329 C323 1.265 . S
C329 H324 0.950 . S
C329 C330 1.478 . S
C330 C329 1.478 . S
C330 C331 1.397 . S
C330 C347 1.394 . S
C331 C330 1.397 . S
C331 C332 1.438 . S
C331 C336 1.429 . S
C332 C331 1.438 . S
C332 C333 1.428 . S
C332 C345 1.394 . S
C333 H325 0.949 . S
C333 C332 1.428 . S
C333 C334 1.345 . S
C334 H326 0.950 . S
C334 C333 1.345 . S
C334 C335 1.424 . S
C335 H327 0.951 . S
C335 C334 1.424 . S
C335 C336 1.347 . S
C336 H328 0.951 . S
C336 C331 1.429 . S
C336 C335 1.347 . S
H337 C338 0.951 . S
C338 H337 0.951 . S
C338 C344 1.265 . S
H339 C344 0.950 . S
H340 C348 0.949 . S
H341 C349 0.950 . S
H342 C350 0.951 . S
H343 C351 0.951 . S
C344 C338 1.265 . S
C344 H339 0.950 . S
C344 C345 1.478 . S
C345 C332 1.394 . S
C345 C344 1.478 . S
C345 C346 1.397 . S
C346 C345 1.397 . S
C346 C347 1.438 . S
C346 C351 1.429 . S
C347 C330 1.394 . S
C347 C346 1.438 . S
C347 C348 1.428 . S
C348 H340 0.949 . S
C348 C347 1.428 . S
C348 C349 1.345 . S
C349 H341 0.950 . S
C349 C348 1.345 . S
C349 C350 1.424 . S
C350 H342 0.951 . S
C350 C349 1.424 . S
C350 C351 1.347 . S
C351 H343 0.951 . S
C351 C346 1.429 . S
C351 C350 1.347 . S
H352 C353 0.951 . S
C353 H352 0.951 . S
C353 C359 1.265 . S
H354 C359 0.950 1_665 S
H355 C363 0.949 . S
H356 C364 0.949 1_655 S
H357 C365 0.951 . S
H358 C366 0.951 . S
C359 C353 1.265 . S
C359 H354 0.950 1_445 S
C359 C360 1.478 . S
C360 C359 1.478 . S
C360 C361 1.397 1_545 S
C360 C377 1.394 . S
C361 C360 1.397 1_565 S
C361 C362 1.438 . S
C361 C366 1.429 1_455 S
C362 C361 1.438 . S
C362 C363 1.428 . S
C362 C375 1.394 1_565 S
C363 H355 0.949 . S
C363 C362 1.428 . S
C363 C364 1.346 . S
C364 H356 0.949 1_455 S
C364 C363 1.346 . S
C364 C365 1.424 1_455 S
C365 H357 0.951 . S
C365 C364 1.424 1_655 S
C365 C366 1.347 . S
C366 H358 0.951 . S
C366 C361 1.429 1_655 S
C366 C365 1.347 . S
H367 C368 0.951 1_655 S
C368 H367 0.951 1_455 S
C368 C374 1.265 . S
H369 C374 0.950 . S
H370 C378 0.949 . S
H371 C379 0.950 . S
H372 C380 0.951 . S
H373 C381 0.951 . S
C374 C368 1.265 . S
C374 H369 0.950 . S
C374 C375 1.478 . S
C375 C362 1.394 1_545 S
C375 C374 1.478 . S
C375 C376 1.397 . S
C376 C375 1.397 . S
C376 C377 1.438 . S
C376 C381 1.429 . S
C377 C360 1.394 . S
C377 C376 1.438 . S
C377 C378 1.428 . S
C378 H370 0.949 . S
C378 C377 1.428 . S
C378 C379 1.345 . S
C379 H371 0.950 . S
C379 C378 1.345 . S
C379 C380 1.424 . S
C380 H372 0.951 . S
C380 C379 1.424 . S
C380 C381 1.347 . S
C381 H373 0.951 . S
C381 C376 1.429 . S
C381 C380 1.347 . S
H382 C383 0.951 . S
C383 H382 0.951 . S
C383 C389 1.265 1_655 S
H384 C389 0.950 . S
H385 C393 0.949 . S
H386 C394 0.950 . S
H387 C395 0.951 . S
H388 C396 0.951 . S
C389 C383 1.265 1_455 S
C389 H384 0.950 . S
C389 C390 1.478 . S
C390 C389 1.478 . S
C390 C391 1.397 1_545 S
C390 C407 1.394 1_455 S
C391 C390 1.397 1_565 S
C391 C392 1.438 . S
C391 C396 1.429 . S
C392 C391 1.438 . S
C392 C393 1.428 . S
C392 C405 1.394 1_465 S
C393 H385 0.949 . S
C393 C392 1.428 . S
C393 C394 1.345 . S
C394 H386 0.950 . S
C394 C393 1.345 . S
C394 C395 1.424 . S
C395 H387 0.951 . S
C395 C394 1.424 . S
C395 C396 1.347 . S
C396 H388 0.951 . S
C396 C391 1.429 . S
C396 C395 1.347 . S
H397 C398 0.951 . S
C398 H397 0.951 . S
C398 C404 1.265 1_455 S
H399 C404 0.950 . S
H400 C408 0.949 . S
H401 C409 0.950 . S
H402 C410 0.951 . S
H403 C411 0.951 . S
C404 C398 1.265 1_655 S
C404 H399 0.950 . S
C404 C405 1.478 . S
C405 C392 1.394 1_645 S
C405 C404 1.478 . S
C405 C406 1.397 . S
C406 C405 1.397 . S
C406 C407 1.438 . S
C406 C411 1.429 . S
C407 C390 1.394 1_655 S
C407 C406 1.438 . S
C407 C408 1.428 . S
C408 H400 0.949 . S
C408 C407 1.428 . S
C408 C409 1.345 . S
C409 H401 0.950 . S
C409 C408 1.345 . S
C409 C410 1.424 . S
C410 H402 0.951 . S
C410 C409 1.424 . S
C410 C411 1.347 . S
C411 H403 0.951 . S
C411 C406 1.429 . S
C411 C410 1.347 . S
H412 C413 0.951 . S
C413 H412 0.951 . S
C413 C419 1.265 . S
H414 C419 0.950 . S
H415 C423 0.949 . S
H416 C424 0.950 . S
H417 C425 0.951 . S
H418 C426 0.951 . S
C419 C413 1.265 . S
C419 H414 0.950 . S
C419 C420 1.478 . S
C420 C419 1.478 . S
C420 C421 1.397 . S
C420 C437 1.394 . S
C421 C420 1.397 . S
C421 C422 1.438 . S
C421 C426 1.429 . S
C422 C421 1.438 . S
C422 C423 1.428 . S
C422 C435 1.394 . S
C423 H415 0.949 . S
C423 C422 1.428 . S
C423 C424 1.345 . S
C424 H416 0.950 . S
C424 C423 1.345 . S
C424 C425 1.424 . S
C425 H417 0.951 . S
C425 C424 1.424 . S
C425 C426 1.347 . S
C426 H418 0.951 . S
C426 C421 1.429 . S
C426 C425 1.347 . S
H427 C428 0.951 . S
C428 H427 0.951 . S
C428 C434 1.265 . S
H429 C434 0.950 . S
H430 C438 0.949 . S
H431 C439 0.950 . S
H432 C440 0.951 . S
H433 C441 0.951 . S
C434 C428 1.265 . S
C434 H429 0.950 . S
C434 C435 1.478 . S
C435 C422 1.394 . S
C435 C434 1.478 . S
C435 C436 1.397 . S
C436 C435 1.397 . S
C436 C437 1.438 . S
C436 C441 1.429 . S
C437 C420 1.394 . S
C437 C436 1.438 . S
C437 C438 1.428 . S
C438 H430 0.949 . S
C438 C437 1.428 . S
C438 C439 1.345 . S
C439 H431 0.950 . S
C439 C438 1.345 . S
C439 C440 1.424 . S
C440 H432 0.951 . S
C440 C439 1.424 . S
C440 C441 1.347 . S
C441 H433 0.951 . S
C441 C436 1.429 . S
C441 C440 1.347 . S
H442 C443 0.951 . S
C443 H442 0.951 . S
C443 C449 1.265 . S
H444 C449 0.950 . S
H445 C453 0.949 . S
H446 C454 0.950 . S
H447 C455 0.951 . S
H448 C456 0.951 . S
C449 C443 1.265 . S
C449 H444 0.950 . S
C449 C450 1.478 . S
C450 C449 1.478 . S
C450 C451 1.397 . S
C450 C467 1.394 . S
C451 C450 1.397 . S
C451 C452 1.438 . S
C451 C456 1.429 . S
C452 C451 1.438 . S
C452 C453 1.428 . S
C452 C465 1.394 . S
C453 H445 0.949 . S
C453 C452 1.428 . S
C453 C454 1.345 . S
C454 H446 0.950 . S
C454 C453 1.345 . S
C454 C455 1.424 . S
C455 H447 0.951 . S
C455 C454 1.424 . S
C455 C456 1.347 . S
C456 H448 0.951 . S
C456 C451 1.429 . S
C456 C455 1.347 . S
H457 C458 0.951 . S
C458 H457 0.951 . S
C458 C464 1.265 . S
H459 C464 0.950 . S
H460 C468 0.949 . S
H461 C469 0.950 . S
H462 C470 0.951 . S
H463 C471 0.951 . S
C464 C458 1.265 . S
C464 H459 0.950 . S
C464 C465 1.478 . S
C465 C452 1.394 . S
C465 C464 1.478 . S
C465 C466 1.397 . S
C466 C465 1.397 . S
C466 C467 1.438 . S
C466 C471 1.429 . S
C467 C450 1.394 . S
C467 C466 1.438 . S
C467 C468 1.428 . S
C468 H460 0.949 . S
C468 C467 1.428 . S
C468 C469 1.345 . S
C469 H461 0.950 . S
C469 C468 1.345 . S
C469 C470 1.424 . S
C470 H462 0.951 . S
C470 C469 1.424 . S
C470 C471 1.347 . S
C471 H463 0.951 . S
C471 C466 1.429 . S
C471 C470 1.347 . S
C128 C105 1.433 . S
C113 C29 1.469 . S
C143 C8 1.401 . S
C158 C100 1.348 . S
C173 C0 1.400 . S
C188 C111 1.354 . S
C203 C17 1.476 1_556 S
C218 C94 1.446 . S
C233 C63 1.467 . S
C248 C83 1.470 . S
C263 C42 1.400 . S
C278 C78 1.355 . S
C308 C89 1.324 . S
C293 C34 1.395 . S
C338 C72 1.482 . S
C323 C51 1.467 . S
C353 C4 1.508 . S
C368 C73 1.509 . S
C383 C13 1.502 . S
C398 C84 1.503 1_455 S
C428 C95 1.506 . S
C413 C38 1.506 . S
C443 C47 1.500 . S
C458 C106 1.486 . S
