# Generated by pormake.
# Topology ptr, (4,4)-cn, num edge types: 1
# Building blocks:
#     Node 0, Type 0, BuildingBlock: CEKHIL_clean_sbu_0, # of connection points: 4
#     Node 1, Type 0, BuildingBlock: CEKHIL_clean_sbu_0, # of connection points: 4
#     Node 2, Type 0, BuildingBlock: CEKHIL_clean_sbu_0, # of connection points: 4
#     Node 3, Type 0, BuildingBlock: CEKHIL_clean_sbu_0, # of connection points: 4
#     Node 4, Type 0, BuildingBlock: CEKHIL_clean_sbu_0, # of connection points: 4
#     Node 5, Type 0, BuildingBlock: CEKHIL_clean_sbu_0, # of connection points: 4
#     Node 6, Type 0, BuildingBlock: CEKHIL_clean_sbu_0, # of connection points: 4
#     Node 7, Type 0, BuildingBlock: CEKHIL_clean_sbu_0, # of connection points: 4
#     Node 8, Type 0, BuildingBlock: CEKHIL_clean_sbu_0, # of connection points: 4
#     Node 9, Type 0, BuildingBlock: CEKHIL_clean_sbu_0, # of connection points: 4
#     Node 10, Type 0, BuildingBlock: CEKHIL_clean_sbu_0, # of connection points: 4
#     Node 11, Type 0, BuildingBlock: CEKHIL_clean_sbu_0, # of connection points: 4
#     Node 12, Type 0, BuildingBlock: CEKHIL_clean_sbu_0, # of connection points: 4
#     Node 13, Type 0, BuildingBlock: CEKHIL_clean_sbu_0, # of connection points: 4
#     Node 14, Type 0, BuildingBlock: CEKHIL_clean_sbu_0, # of connection points: 4
#     Node 15, Type 0, BuildingBlock: CEKHIL_clean_sbu_0, # of connection points: 4
#     Node 16, Type 0, BuildingBlock: CEKHIL_clean_sbu_0, # of connection points: 4
#     Node 17, Type 0, BuildingBlock: CEKHIL_clean_sbu_0, # of connection points: 4
#     Node 18, Type 1, BuildingBlock: AZAVOO_clean_linker_0, # of connection points: 4
#     Node 19, Type 1, BuildingBlock: AZAVOO_clean_linker_0, # of connection points: 4
#     Node 20, Type 1, BuildingBlock: AZAVOO_clean_linker_0, # of connection points: 4
#     Node 21, Type 1, BuildingBlock: AZAVOO_clean_linker_0, # of connection points: 4
#     Node 22, Type 1, BuildingBlock: AZAVOO_clean_linker_0, # of connection points: 4
#     Node 23, Type 1, BuildingBlock: AZAVOO_clean_linker_0, # of connection points: 4
#     Node 24, Type 1, BuildingBlock: AZAVOO_clean_linker_0, # of connection points: 4
#     Node 25, Type 1, BuildingBlock: AZAVOO_clean_linker_0, # of connection points: 4
#     Node 26, Type 1, BuildingBlock: AZAVOO_clean_linker_0, # of connection points: 4
#     Node 27, Type 1, BuildingBlock: AZAVOO_clean_linker_0, # of connection points: 4
#     Node 28, Type 1, BuildingBlock: AZAVOO_clean_linker_0, # of connection points: 4
#     Node 29, Type 1, BuildingBlock: AZAVOO_clean_linker_0, # of connection points: 4
#     Node 30, Type 1, BuildingBlock: AZAVOO_clean_linker_0, # of connection points: 4
#     Node 31, Type 1, BuildingBlock: AZAVOO_clean_linker_0, # of connection points: 4
#     Node 32, Type 1, BuildingBlock: AZAVOO_clean_linker_0, # of connection points: 4
#     Node 33, Type 1, BuildingBlock: AZAVOO_clean_linker_0, # of connection points: 4
#     Node 34, Type 1, BuildingBlock: AZAVOO_clean_linker_0, # of connection points: 4
#     Node 35, Type 1, BuildingBlock: AZAVOO_clean_linker_0, # of connection points: 4
#     Edge 36, Type (0, 1), BuildingBlock: XIVTED_clean_linker_0, # of connection points: 2
#     Edge 37, Type (0, 1), BuildingBlock: XIVTED_clean_linker_0, # of connection points: 2
#     Edge 38, Type (0, 1), BuildingBlock: XIVTED_clean_linker_0, # of connection points: 2
#     Edge 39, Type (0, 1), BuildingBlock: XIVTED_clean_linker_0, # of connection points: 2
#     Edge 40, Type (0, 1), BuildingBlock: XIVTED_clean_linker_0, # of connection points: 2
#     Edge 41, Type (0, 1), BuildingBlock: XIVTED_clean_linker_0, # of connection points: 2
#     Edge 42, Type (0, 1), BuildingBlock: XIVTED_clean_linker_0, # of connection points: 2
#     Edge 43, Type (0, 1), BuildingBlock: XIVTED_clean_linker_0, # of connection points: 2
#     Edge 44, Type (0, 1), BuildingBlock: XIVTED_clean_linker_0, # of connection points: 2
#     Edge 45, Type (0, 1), BuildingBlock: XIVTED_clean_linker_0, # of connection points: 2
#     Edge 46, Type (0, 1), BuildingBlock: XIVTED_clean_linker_0, # of connection points: 2
#     Edge 47, Type (0, 1), BuildingBlock: XIVTED_clean_linker_0, # of connection points: 2
#     Edge 48, Type (0, 1), BuildingBlock: XIVTED_clean_linker_0, # of connection points: 2
#     Edge 49, Type (0, 1), BuildingBlock: XIVTED_clean_linker_0, # of connection points: 2
#     Edge 50, Type (0, 1), BuildingBlock: XIVTED_clean_linker_0, # of connection points: 2
#     Edge 51, Type (0, 1), BuildingBlock: XIVTED_clean_linker_0, # of connection points: 2
#     Edge 52, Type (0, 1), BuildingBlock: XIVTED_clean_linker_0, # of connection points: 2
#     Edge 53, Type (0, 1), BuildingBlock: XIVTED_clean_linker_0, # of connection points: 2
#     Edge 54, Type (0, 1), BuildingBlock: XIVTED_clean_linker_0, # of connection points: 2
#     Edge 55, Type (0, 1), BuildingBlock: XIVTED_clean_linker_0, # of connection points: 2
#     Edge 56, Type (0, 1), BuildingBlock: XIVTED_clean_linker_0, # of connection points: 2
#     Edge 57, Type (0, 1), BuildingBlock: XIVTED_clean_linker_0, # of connection points: 2
#     Edge 58, Type (0, 1), BuildingBlock: XIVTED_clean_linker_0, # of connection points: 2
#     Edge 59, Type (0, 1), BuildingBlock: XIVTED_clean_linker_0, # of connection points: 2
#     Edge 60, Type (0, 1), BuildingBlock: XIVTED_clean_linker_0, # of connection points: 2
#     Edge 61, Type (0, 1), BuildingBlock: XIVTED_clean_linker_0, # of connection points: 2
#     Edge 62, Type (0, 1), BuildingBlock: XIVTED_clean_linker_0, # of connection points: 2
#     Edge 63, Type (0, 1), BuildingBlock: XIVTED_clean_linker_0, # of connection points: 2
#     Edge 64, Type (0, 1), BuildingBlock: XIVTED_clean_linker_0, # of connection points: 2
#     Edge 65, Type (0, 1), BuildingBlock: XIVTED_clean_linker_0, # of connection points: 2
#     Edge 66, Type (0, 1), BuildingBlock: XIVTED_clean_linker_0, # of connection points: 2
#     Edge 67, Type (0, 1), BuildingBlock: XIVTED_clean_linker_0, # of connection points: 2
#     Edge 68, Type (0, 1), BuildingBlock: XIVTED_clean_linker_0, # of connection points: 2
#     Edge 69, Type (0, 1), BuildingBlock: XIVTED_clean_linker_0, # of connection points: 2
#     Edge 70, Type (0, 1), BuildingBlock: XIVTED_clean_linker_0, # of connection points: 2
#     Edge 71, Type (0, 1), BuildingBlock: XIVTED_clean_linker_0, # of connection points: 2
#     Edge 72, Type (0, 1), BuildingBlock: XIVTED_clean_linker_0, # of connection points: 2
#     Edge 73, Type (0, 1), BuildingBlock: XIVTED_clean_linker_0, # of connection points: 2
#     Edge 74, Type (0, 1), BuildingBlock: XIVTED_clean_linker_0, # of connection points: 2
#     Edge 75, Type (0, 1), BuildingBlock: XIVTED_clean_linker_0, # of connection points: 2
#     Edge 76, Type (0, 1), BuildingBlock: XIVTED_clean_linker_0, # of connection points: 2
#     Edge 77, Type (0, 1), BuildingBlock: XIVTED_clean_linker_0, # of connection points: 2
#     Edge 78, Type (0, 1), BuildingBlock: XIVTED_clean_linker_0, # of connection points: 2
#     Edge 79, Type (0, 1), BuildingBlock: XIVTED_clean_linker_0, # of connection points: 2
#     Edge 80, Type (0, 1), BuildingBlock: XIVTED_clean_linker_0, # of connection points: 2
#     Edge 81, Type (0, 1), BuildingBlock: XIVTED_clean_linker_0, # of connection points: 2
#     Edge 82, Type (0, 1), BuildingBlock: XIVTED_clean_linker_0, # of connection points: 2
#     Edge 83, Type (0, 1), BuildingBlock: XIVTED_clean_linker_0, # of connection points: 2
#     Edge 84, Type (0, 1), BuildingBlock: XIVTED_clean_linker_0, # of connection points: 2
#     Edge 85, Type (0, 1), BuildingBlock: XIVTED_clean_linker_0, # of connection points: 2
#     Edge 86, Type (0, 1), BuildingBlock: XIVTED_clean_linker_0, # of connection points: 2
#     Edge 87, Type (0, 1), BuildingBlock: XIVTED_clean_linker_0, # of connection points: 2
#     Edge 88, Type (0, 1), BuildingBlock: XIVTED_clean_linker_0, # of connection points: 2
#     Edge 89, Type (0, 1), BuildingBlock: XIVTED_clean_linker_0, # of connection points: 2
#     Edge 90, Type (0, 1), BuildingBlock: XIVTED_clean_linker_0, # of connection points: 2
#     Edge 91, Type (0, 1), BuildingBlock: XIVTED_clean_linker_0, # of connection points: 2
#     Edge 92, Type (0, 1), BuildingBlock: XIVTED_clean_linker_0, # of connection points: 2
#     Edge 93, Type (0, 1), BuildingBlock: XIVTED_clean_linker_0, # of connection points: 2
#     Edge 94, Type (0, 1), BuildingBlock: XIVTED_clean_linker_0, # of connection points: 2
#     Edge 95, Type (0, 1), BuildingBlock: XIVTED_clean_linker_0, # of connection points: 2
#     Edge 96, Type (0, 1), BuildingBlock: XIVTED_clean_linker_0, # of connection points: 2
#     Edge 97, Type (0, 1), BuildingBlock: XIVTED_clean_linker_0, # of connection points: 2
#     Edge 98, Type (0, 1), BuildingBlock: XIVTED_clean_linker_0, # of connection points: 2
#     Edge 99, Type (0, 1), BuildingBlock: XIVTED_clean_linker_0, # of connection points: 2
#     Edge 100, Type (0, 1), BuildingBlock: XIVTED_clean_linker_0, # of connection points: 2
#     Edge 101, Type (0, 1), BuildingBlock: XIVTED_clean_linker_0, # of connection points: 2
#     Edge 102, Type (0, 1), BuildingBlock: XIVTED_clean_linker_0, # of connection points: 2
#     Edge 103, Type (0, 1), BuildingBlock: XIVTED_clean_linker_0, # of connection points: 2
#     Edge 104, Type (0, 1), BuildingBlock: XIVTED_clean_linker_0, # of connection points: 2
#     Edge 105, Type (0, 1), BuildingBlock: XIVTED_clean_linker_0, # of connection points: 2
#     Edge 106, Type (0, 1), BuildingBlock: XIVTED_clean_linker_0, # of connection points: 2
#     Edge 107, Type (0, 1), BuildingBlock: XIVTED_clean_linker_0, # of connection points: 2
# Relax obj value: 0.051
# Max RMSD: 0.177
# Mean RMSD: 0.117
data_MOF--net-ptr--node1-CEKHIL_clean_sbu_0--node2-AZAVOO_clean_linker_0--edge1-XIVTED_clean_linker_0
_symmetry_space_group_name_H-M    P1
_symmetry_Int_Tables_number       1
_symmetry_cell_setting            triclinic
loop_
_symmetry_equiv_pos_as_xyz
'x, y, z'
_cell_length_a     82.63092
_cell_length_b     80.138739
_cell_length_c     69.63402
_cell_angle_alpha  93.630332
_cell_angle_beta   91.851523
_cell_angle_gamma 121.19937
loop_
_atom_site_label
_atom_site_type_symbol
_atom_site_fract_x
_atom_site_fract_y
_atom_site_fract_z
_atom_type_partial_charge
Co0 Co 0.01027 0.35059 0.01106 0.0
O1 O 0.01267 0.33818 0.03273 0.0
O2 O 0.03642 0.36444 0.02159 0.0
C3 C 0.99253 0.32281 0.99163 0.0
O4 O 0.01306 0.36696 0.98868 0.0
Co5 Co 0.97049 0.34168 0.99588 0.0
O6 O 0.9842 0.35424 0.9732 0.0
C7 C 0.98973 0.36843 0.03116 0.0
C8 C 0.03063 0.35136 0.03399 0.0
C9 C 0.00215 0.36578 0.97433 0.0
O10 O 0.00467 0.36763 0.02859 0.0
O11 O 0.97423 0.35823 0.02045 0.0
O12 O 0.01086 0.33101 0.99338 0.0
O13 O 0.98557 0.33061 0.00279 0.0
Co14 Co 0.64365 0.63085 0.06645 0.0
O15 O 0.65864 0.64483 0.04614 0.0
O16 O 0.65758 0.61897 0.05715 0.0
C17 C 0.65217 0.658 0.08597 0.0
O18 O 0.6303 0.61317 0.08768 0.0
Co19 Co 0.61105 0.63632 0.0796 0.0
O20 O 0.61313 0.62387 0.10245 0.0
C21 C 0.60611 0.61321 0.04272 0.0
C22 C 0.66453 0.63266 0.04539 0.0
C23 C 0.62046 0.61327 0.1016 0.0
O24 O 0.62166 0.61373 0.04696 0.0
O25 O 0.60013 0.62232 0.05322 0.0
O26 O 0.66295 0.65061 0.08568 0.0
O27 O 0.63738 0.64941 0.07389 0.0
Co28 Co 0.37003 0.99872 0.02092 0.0
O29 O 0.35539 0.00421 0.00355 0.0
O30 O 0.38357 0.02663 0.01762 0.0
C31 C 0.346 0.98023 0.03897 0.0
O32 O 0.38868 0.99788 0.04028 0.0
Co33 Co 0.35966 0.95582 0.02058 0.0
O34 O 0.37868 0.96616 0.04298 0.0
C35 C 0.38016 0.97842 0.98898 0.0
C36 C 0.36893 0.02241 0.00612 0.0
C37 C 0.38996 0.98436 0.04802 0.0
O38 O 0.38225 0.99379 0.99845 0.0
O39 O 0.37009 0.96123 0.9945 0.0
O40 O 0.35569 -0.00082 0.04216 0.0
O41 O 0.34984 0.97311 0.02377 0.0
Co42 Co 0.99349 0.64934 0.0465 0.0
O43 O 0.99159 0.66156 0.02448 0.0
O44 O 0.96806 0.63398 0.03383 0.0
C45 C 0.0081 0.67681 0.06685 0.0
O46 O 0.99057 0.63302 0.06896 0.0
Co47 Co 0.03387 0.66204 0.0643 0.0
O48 O 0.01913 0.64726 0.08563 0.0
C49 C 0.01855 0.63633 0.02805 0.0
C50 C 0.974 0.64745 0.02182 0.0
C51 C 0.00134 0.63475 0.08373 0.0
O52 O 0.00219 0.6342 0.03018 0.0
O53 O 0.03345 0.64825 0.03901 0.0
O54 O 0.98979 0.66734 0.06348 0.0
O55 O 0.01687 0.67053 0.05651 0.0
Co56 Co 0.3601 0.36939 -0.00011 0.0
O57 O 0.3446 0.35316 0.01886 0.0
O58 O 0.34937 0.38242 0.01412 0.0
C59 C 0.34823 0.34539 0.97563 0.0
O60 O 0.37453 0.38984 0.9812 0.0
Co61 Co 0.38903 0.36118 0.98065 0.0
O62 O 0.38904 0.37885 0.9619 0.0
C63 C 0.39714 0.37901 0.02081 0.0
C64 C 0.34096 0.36678 0.02335 0.0
C65 C 0.38361 0.39079 0.96623 0.0
O66 O 0.38309 0.38164 0.01885 0.0
O67 O 0.40083 0.36957 0.00793 0.0
O68 O 0.33924 0.35426 0.98005 0.0
O69 O 0.36299 0.35012 0.98687 0.0
Co70 Co 0.63182 0.00831 0.04592 0.0
O71 O 0.64993 0.00664 0.06217 0.0
O72 O 0.62179 0.98131 0.05133 0.0
C73 C 0.65257 0.02687 0.02511 0.0
O74 O 0.61002 0.00466 0.0279 0.0
Co75 Co 0.63601 0.04843 0.04339 0.0
O76 O 0.61548 0.03449 0.02249 0.0
C77 C 0.62068 0.02788 0.07769 0.0
C78 C 0.63794 0.98795 0.06123 0.0
C79 C 0.60592 0.01589 0.01924 0.0
O80 O 0.62052 0.013 0.06937 0.0
O81 O 0.62768 0.04425 0.07034 0.0
O82 O 0.64471 0.00798 0.02336 0.0
O83 O 0.64919 0.03427 0.04044 0.0
Co84 Co 0.66667 0.68632 0.34736 0.0
O85 O 0.67148 0.67507 0.36872 0.0
O86 O 0.69355 0.70087 0.35537 0.0
C87 C 0.64769 0.65756 0.32947 0.0
O88 O 0.66694 0.70167 0.32491 0.0
Co89 Co 0.62541 0.67565 0.3359 0.0
O90 O 0.63692 0.69012 0.31326 0.0
C91 C 0.6466 0.70242 0.37074 0.0
C92 C 0.68923 0.68847 0.36832 0.0
C93 C 0.65479 0.70127 0.3125 0.0
O94 O 0.66202 0.70354 0.36587 0.0
O95 O 0.63039 0.69082 0.36164 0.0
O96 O 0.66601 0.66622 0.32916 0.0
O97 O 0.64174 0.66574 0.34145 0.0
Co98 Co 0.30315 0.96024 0.39599 0.0
O99 O 0.3193 0.97205 0.37571 0.0
O100 O 0.31567 0.94606 0.38906 0.0
C101 C 0.31267 0.98862 0.41382 0.0
O102 O 0.28791 0.94457 0.41774 0.0
Co103 Co 0.27203 0.97009 0.40435 0.0
O104 O 0.27045 0.95707 0.42799 0.0
C105 C 0.26676 0.94357 0.37019 0.0
C106 C 0.32366 0.95872 0.3764 0.0
C107 C 0.27684 0.94573 0.42969 0.0
O108 O 0.28145 0.94314 0.37613 0.0
O109 O 0.26149 0.95441 0.37868 0.0
O110 O 0.32252 0.98023 0.41512 0.0
O111 O 0.29855 0.98043 0.40095 0.0
Co112 Co 0.04185 0.33345 0.35469 0.0
O113 O 0.02857 0.33916 0.33581 0.0
O114 O 0.05654 0.36115 0.35055 0.0
C115 C 0.0164 0.3162 0.37156 0.0
O116 O 0.05901 0.33251 0.37592 0.0
Co117 Co 0.02972 0.29018 0.35747 0.0
O118 O 0.04536 0.30104 0.38232 0.0
C119 C 0.05158 0.31071 0.32533 0.0
C120 C 0.04233 0.35726 0.33856 0.0
C121 C 0.05769 0.31918 0.38636 0.0
O122 O 0.05448 0.32691 0.3337 0.0
O123 O 0.04075 0.29406 0.33167 0.0
O124 O 0.02651 0.33517 0.37438 0.0
O125 O 0.021 0.30842 0.35759 0.0
Co126 Co 0.66126 0.97624 0.38078 0.0
O127 O 0.65465 0.98476 0.35832 0.0
O128 O 0.63467 0.95842 0.37248 0.0
C129 C 0.67698 0.00611 0.39724 0.0
O130 O 0.66302 0.96313 0.4043 0.0
Co131 Co 0.70361 0.99289 0.39365 0.0
O132 O 0.69342 0.97773 0.41618 0.0
C133 C 0.6851 0.96269 0.36059 0.0
C134 C 0.63762 0.96979 0.35878 0.0
C135 C 0.67584 0.9651 0.41685 0.0
O136 O 0.66891 0.96054 0.36387 0.0
O137 O 0.70069 0.97577 0.3699 0.0
O138 O 0.65868 0.99514 0.39754 0.0
O139 O 0.68489 -0.0007 0.38623 0.0
Co140 Co 0.03245 0.70291 0.34116 0.0
O141 O 0.01586 0.69 0.36088 0.0
O142 O 0.02059 0.71733 0.34973 0.0
C143 C 0.02179 0.67528 0.32153 0.0
O144 O 0.04802 0.71991 0.32031 0.0
Co145 Co 0.06226 0.69229 0.32975 0.0
O146 O 0.06423 0.70707 0.30731 0.0
C147 C 0.06764 0.71516 0.3669 0.0
C148 C 0.01187 0.70365 0.36126 0.0
C149 C 0.0584 0.71901 0.30734 0.0
O150 O 0.0543 0.71803 0.36146 0.0
O151 O 0.07172 0.70396 0.35705 0.0
O152 O 0.01284 0.68465 0.3212 0.0
O153 O 0.03598 0.68223 0.33423 0.0
Co154 Co 0.29875 0.33787 0.38057 0.0
O155 O 0.31227 0.33185 0.39888 0.0
O156 O 0.28335 0.31057 0.38539 0.0
C157 C 0.32271 0.3535 0.36165 0.0
O158 O 0.28087 0.33897 0.3605 0.0
Co159 Co 0.31166 0.38108 0.37714 0.0
O160 O 0.29448 0.37016 0.35326 0.0
C161 C 0.29063 0.362 0.41016 0.0
C162 C 0.29763 0.31417 0.39709 0.0
C163 C 0.28172 0.35206 0.35005 0.0
O164 O 0.28797 0.3457 0.40242 0.0
O165 O 0.3007 0.37832 0.40294 0.0
O166 O 0.31202 0.33454 0.35973 0.0
O167 O 0.31994 0.36236 0.37624 0.0
Co168 Co 0.34343 0.02776 0.68441 0.0
O169 O 0.34701 0.0172 0.70709 0.0
O170 O 0.36989 0.04245 0.69383 0.0
C171 C 0.32495 0.99838 0.66741 0.0
O172 O 0.34544 0.04237 0.66081 0.0
Co173 Co 0.30346 0.01758 0.66855 0.0
O174 O 0.31658 0.02974 0.64547 0.0
C175 C 0.32227 0.04481 0.70383 0.0
C176 C 0.36489 0.03049 0.70727 0.0
C177 C 0.33456 0.041 0.64637 0.0
O178 O 0.33797 0.04562 0.7009 0.0
O179 O 0.30675 0.03336 0.6935 0.0
O180 O 0.34332 0.00684 0.66801 0.0
O181 O 0.3186 0.00735 0.67774 0.0
Co182 Co 0.97271 0.29382 0.72715 0.0
O183 O 0.98877 0.30891 0.70785 0.0
O184 O 0.98882 0.28396 0.71978 0.0
C185 C 0.97775 0.3199 0.74649 0.0
O186 O 0.9589 0.27542 0.74776 0.0
Co187 Co 0.93719 0.29549 0.73729 0.0
O188 O 0.93961 0.2842 0.76093 0.0
C189 C 0.93593 0.27271 0.70148 0.0
C190 C 0.99596 0.29787 0.70829 0.0
C191 C 0.94813 0.27475 0.76102 0.0
O192 O 0.95241 0.2756 0.70642 0.0
O193 O 0.92805 0.28028 0.71126 0.0
O194 O 0.98987 0.31419 0.74732 0.0
O195 O 0.96393 0.31059 0.73335 0.0
Co196 Co 0.70257 0.65916 0.68271 0.0
O197 O 0.68705 0.66335 0.66506 0.0
O198 O 0.71552 0.68656 0.67785 0.0
C199 C 0.6794 0.64161 0.70202 0.0
O200 O 0.7222 0.66028 0.7022 0.0
Co201 Co 0.69387 0.61721 0.68612 0.0
O202 O 0.71297 0.62952 0.70846 0.0
C203 C 0.71242 0.63721 0.65235 0.0
C204 C 0.70041 0.68167 0.6668 0.0
C205 C 0.72403 0.64801 0.71172 0.0
O206 O 0.71413 0.65303 0.66032 0.0
O207 O 0.70351 0.6208 0.65967 0.0
O208 O 0.68876 0.66062 0.70404 0.0
O209 O 0.68308 0.63373 0.6873 0.0
Co210 Co 0.3387 0.31741 0.71467 0.0
O211 O 0.33483 0.33064 0.6947 0.0
O212 O 0.31263 0.30198 0.7034 0.0
C213 C 0.354 0.34451 0.73567 0.0
O214 O 0.33767 0.29982 0.73525 0.0
Co215 Co 0.37992 0.33066 0.72945 0.0
O216 O 0.3672 0.31171 0.74874 0.0
C217 C 0.36335 0.30628 0.69238 0.0
C218 C 0.31737 0.31626 0.69254 0.0
C219 C 0.34939 0.29939 0.7476 0.0
O220 O 0.34705 0.30397 0.69546 0.0
O221 O 0.3784 0.31764 0.70338 0.0
O222 O 0.33558 0.334 0.73425 0.0
O223 O 0.36231 0.33895 0.72379 0.0
Co224 Co 0.69307 0.03648 0.66961 0.0
O225 O 0.67814 0.02712 0.69131 0.0
O226 O 0.68445 0.05398 0.67778 0.0
C227 C 0.67867 0.00717 0.65227 0.0
O228 O 0.70751 0.05036 0.6468 0.0
Co229 Co 0.71885 0.02091 0.65709 0.0
O230 O 0.72085 0.03446 0.63367 0.0
C231 C 0.73026 0.0487 0.69192 0.0
C232 C 0.67613 0.0421 0.69095 0.0
C233 C 0.71648 0.04754 0.63344 0.0
O234 O 0.71667 0.05157 0.68768 0.0
O235 O 0.73264 0.03605 0.68234 0.0
O236 O 0.67129 0.01805 0.65187 0.0
O237 O 0.69366 0.01373 0.66382 0.0
Co238 Co 0.95822 0.66527 0.7087 0.0
O239 O 0.96807 0.65766 0.72939 0.0
O240 O 0.94088 0.63783 0.71195 0.0
C241 C 0.98544 0.68091 0.69409 0.0
O242 O 0.94404 0.66813 0.68581 0.0
Co243 Co 0.97404 0.70928 0.70552 0.0
O244 O 0.9602 0.69975 0.67964 0.0
C245 C 0.94861 0.68974 0.73584 0.0
C246 C 0.95306 0.64034 0.72587 0.0
C247 C 0.94717 0.68193 0.67514 0.0
O248 O 0.94512 0.67321 0.72777 0.0
O249 O 0.96085 0.70621 0.73002 0.0
O250 O 0.97427 0.66204 0.69101 0.0
O251 O 0.98072 0.68947 0.7072 0.0
H252 H 0.17107 0.35152 0.03395 0.0
H253 H 0.26604 0.29809 0.18749 0.0
H254 H 0.16218 0.3546 0.14102 0.0
H255 H 0.13976 0.36157 0.12534 0.0
H256 H 0.09713 0.29973 0.11977 0.0
H257 H 0.11968 0.29301 0.13603 0.0
H258 H 0.19094 0.35412 0.11594 0.0
H259 H 0.18697 0.35876 0.08209 0.0
H260 H 0.14124 0.29822 0.07216 0.0
H261 H 0.1455 0.29376 0.10601 0.0
H262 H 0.22056 0.35386 0.14297 0.0
H263 H 0.24716 0.36211 0.12317 0.0
H264 H 0.21431 0.30523 0.09089 0.0
H265 H 0.18778 0.29701 0.11107 0.0
H266 H 0.21847 0.34456 0.18448 0.0
H267 H 0.246 0.34345 0.1966 0.0
H268 H 0.22378 0.28727 0.16385 0.0
H269 H 0.19621 0.28846 0.15205 0.0
H270 H 0.18149 0.34306 0.20153 0.0
H271 H 0.19399 0.34646 0.23459 0.0
H272 H 0.1906 0.29091 0.22441 0.0
H273 H 0.17671 0.28696 0.19161 0.0
H274 H 0.15155 0.34444 0.17846 0.0
H275 H 0.13043 0.34279 0.20295 0.0
H276 H 0.11471 0.28313 0.21017 0.0
H277 H 0.13508 0.28463 0.18485 0.0
O278 O 0.17248 0.34934 0.04725 0.0
O279 O 0.14905 0.31813 0.04292 0.0
O280 O 0.26608 0.32778 0.19957 0.0
O281 O 0.25531 0.29892 0.18292 0.0
C282 C 0.15718 0.31933 0.14665 0.0
C283 C 0.17077 0.32079 0.13395 0.0
C284 C 0.18657 0.32008 0.14092 0.0
C285 C 0.18842 0.31701 0.16038 0.0
C286 C 0.17461 0.31509 0.17308 0.0
C287 C 0.15889 0.31617 0.16617 0.0
C288 C 0.1425 0.32332 0.13967 0.0
C289 C 0.14787 0.34262 0.13673 0.0
C290 C 0.1351 0.34653 0.1276 0.0
C291 C 0.11673 0.33118 0.12106 0.0
C292 C 0.11113 0.3119 0.12476 0.0
C293 C 0.12395 0.308 0.13402 0.0
C294 C 0.1686 0.32357 0.11335 0.0
C295 C 0.18019 0.34186 0.10638 0.0
C296 C 0.17783 0.34447 0.08706 0.0
C297 C 0.16379 0.32885 0.0744 0.0
C298 C 0.15219 0.31055 0.0815 0.0
C299 C 0.15459 0.30795 0.10081 0.0
C300 C 0.20234 0.32483 0.12847 0.0
C301 C 0.21914 0.3432 0.13162 0.0
C302 C 0.23424 0.34793 0.12021 0.0
C303 C 0.23281 0.33433 0.10546 0.0
C304 C 0.21588 0.31592 0.10228 0.0
C305 C 0.20071 0.31123 0.11368 0.0
C306 C 0.20529 0.31651 0.16753 0.0
C307 C 0.21955 0.332 0.18002 0.0
C308 C 0.23527 0.33134 0.18687 0.0
C309 C 0.23707 0.31524 0.18122 0.0
C310 C 0.22282 0.29986 0.16852 0.0
C311 C 0.20708 0.3005 0.16173 0.0
C312 C 0.17828 0.31482 0.19408 0.0
C313 C 0.1827 0.33123 0.20664 0.0
C314 C 0.19016 0.3333 0.22546 0.0
C315 C 0.19381 0.31921 0.23199 0.0
C316 C 0.18798 0.30203 0.21987 0.0
C317 C 0.18013 0.29979 0.20109 0.0
C318 C 0.14468 0.31457 0.17966 0.0
C319 C 0.14311 0.33083 0.18491 0.0
C320 C 0.13126 0.32996 0.19917 0.0
C321 C 0.12094 0.31287 0.20869 0.0
C322 C 0.12221 0.29644 0.20301 0.0
C323 C 0.13393 0.29728 0.18861 0.0
C324 C 0.16127 0.3317 0.05391 0.0
C325 C 0.25372 0.31444 0.18849 0.0
H326 H 0.68008 0.83666 0.04502 0.0
H327 H 0.71631 0.97924 0.21734 0.0
H328 H 0.66809 0.81764 0.14567 0.0
H329 H 0.6624 0.78606 0.1326 0.0
H330 H 0.71967 0.80346 0.15224 0.0
H331 H 0.72508 0.83518 0.1658 0.0
H332 H 0.66909 0.84817 0.12625 0.0
H333 H 0.66819 0.84189 0.09128 0.0
H334 H 0.7269 0.85783 0.09679 0.0
H335 H 0.72765 0.86426 0.13174 0.0
H336 H 0.66442 0.87374 0.15808 0.0
H337 H 0.65441 0.89147 0.13851 0.0
H338 H 0.70953 0.92121 0.11552 0.0
H339 H 0.71957 0.90354 0.13561 0.0
H340 H 0.67229 0.88203 0.19984 0.0
H341 H 0.67255 0.91094 0.2139 0.0
H342 H 0.72825 0.94812 0.19399 0.0
H343 H 0.72791 0.91905 0.18026 0.0
H344 H 0.67202 0.84775 0.21558 0.0
H345 H 0.66917 0.8579 0.24851 0.0
H346 H 0.72665 0.90746 0.25039 0.0
H347 H 0.72957 0.89674 0.21775 0.0
H348 H 0.66859 0.81517 0.18589 0.0
H349 H 0.66291 0.78947 0.20631 0.0
H350 H 0.7192 0.82654 0.23468 0.0
H351 H 0.7252 0.8519 0.21304 0.0
O352 O 0.68078 0.83934 0.05887 0.0
O353 O 0.71098 0.84767 0.06249 0.0
O354 O 0.68728 0.94778 0.22202 0.0
O355 O 0.71584 0.96755 0.21195 0.0
C356 C 0.69972 0.84745 0.16495 0.0
C357 C 0.6991 0.86058 0.15275 0.0
C358 C 0.69838 0.87675 0.16079 0.0
C359 C 0.7002 0.8809 0.18099 0.0
C360 C 0.70118 0.86796 0.19323 0.0
C361 C 0.70026 0.85084 0.18521 0.0
C362 C 0.69707 0.82875 0.15637 0.0
C363 C 0.67949 0.81475 0.14691 0.0
C364 C 0.6763 0.79672 0.13943 0.0
C365 C 0.69068 0.79234 0.14115 0.0
C366 C 0.70831 0.80639 0.15076 0.0
C367 C 0.71147 0.82451 0.15836 0.0
C368 C 0.69851 0.8569 0.13148 0.0
C369 C 0.68179 0.85049 0.11985 0.0
C370 C 0.6813 0.84682 0.09989 0.0
C371 C 0.69749 0.84941 0.09122 0.0
C372 C 0.71419 0.85574 0.10298 0.0
C373 C 0.71467 0.85943 0.12294 0.0
C374 C 0.69274 0.88751 0.14835 0.0
C375 C 0.67433 0.8841 0.14881 0.0
C376 C 0.66858 0.89408 0.13747 0.0
C377 C 0.68115 0.90768 0.12541 0.0
C378 C 0.69958 0.91092 0.1248 0.0
C379 C 0.70533 0.90085 0.13618 0.0
C380 C 0.70019 0.89846 0.18926 0.0
C381 C 0.68459 0.89643 0.19867 0.0
C382 C 0.68475 0.91296 0.20661 0.0
C383 C 0.70046 0.93186 0.20512 0.0
C384 C 0.71596 0.93381 0.19545 0.0
C385 C 0.7158 0.91724 0.18758 0.0
C386 C 0.70101 0.87152 0.21433 0.0
C387 C 0.68422 0.86036 0.2234 0.0
C388 C 0.68254 0.86633 0.2421 0.0
C389 C 0.69758 0.88363 0.25194 0.0
C390 C 0.71485 0.89397 0.24329 0.0
C391 C 0.71655 0.88792 0.22463 0.0
C392 C 0.69739 0.83532 0.19777 0.0
C393 C 0.67986 0.81763 0.19624 0.0
C394 C 0.67654 0.80305 0.20817 0.0
C395 C 0.69051 0.80597 0.22236 0.0
C396 C 0.70819 0.82371 0.22381 0.0
C397 C 0.7116 0.83826 0.21158 0.0
C398 C 0.6969 0.84544 0.07002 0.0
C399 C 0.70072 0.94948 0.21356 0.0
H400 H 0.12871 0.85548 0.03757 0.0
H401 H 0.29431 0.9596 0.18834 0.0
H402 H 0.11837 0.85133 0.14674 0.0
H403 H 0.08792 0.82063 0.13818 0.0
H404 H 0.11646 0.7883 0.14235 0.0
H405 H 0.14629 0.81874 0.15153 0.0
H406 H 0.15487 0.8863 0.11821 0.0
H407 H 0.14341 0.87818 0.08406 0.0
H408 H 0.14737 0.8264 0.08345 0.0
H409 H 0.15899 0.83482 0.11752 0.0
H410 H 0.20022 0.91918 0.13605 0.0
H411 H 0.22652 0.93494 0.11523 0.0
H412 H 0.22371 0.87987 0.10316 0.0
H413 H 0.19745 0.86432 0.12379 0.0
H414 H 0.20085 0.92291 0.18341 0.0
H415 H 0.23317 0.95013 0.19288 0.0
H416 H 0.25528 0.91473 0.17101 0.0
H417 H 0.22288 0.88757 0.16182 0.0
H418 H 0.17039 0.89419 0.20983 0.0
H419 H 0.18374 0.90183 0.24335 0.0
H420 H 0.21546 0.87394 0.22974 0.0
H421 H 0.20257 0.86711 0.19618 0.0
H422 H 0.12808 0.8566 0.19053 0.0
H423 H 0.10766 0.83237 0.21228 0.0
H424 H 0.1452 0.80987 0.21324 0.0
H425 H 0.16521 0.8338 0.19144 0.0
O426 O 0.13325 0.85842 0.05106 0.0
O427 O 0.1355 0.83196 0.05153 0.0
O428 O 0.26929 0.9666 0.19597 0.0
O429 O 0.28139 0.94906 0.18481 0.0
C430 C 0.1528 0.85532 0.15532 0.0
C431 C 0.16458 0.86617 0.14101 0.0
C432 C 0.18333 0.88168 0.14633 0.0
C433 C 0.18992 0.88697 0.16604 0.0
C434 C 0.17806 0.87612 0.18029 0.0
C435 C 0.15959 0.86016 0.17495 0.0
C436 C 0.13441 0.83713 0.14967 0.0
C437 C 0.11787 0.83753 0.14584 0.0
C438 C 0.10057 0.82002 0.14095 0.0
C439 C 0.09967 0.80194 0.13977 0.0
C440 C 0.11643 0.80181 0.14362 0.0
C441 C 0.13357 0.81921 0.14863 0.0
C442 C 0.15752 0.86102 0.12036 0.0
C443 C 0.15321 0.87319 0.11066 0.0
C444 C 0.14667 0.86852 0.09117 0.0
C445 C 0.1444 0.85159 0.08104 0.0
C446 C 0.14887 0.83949 0.09083 0.0
C447 C 0.15542 0.8442 0.11031 0.0
C448 C 0.19692 0.89062 0.13135 0.0
C449 C 0.20506 0.91048 0.12855 0.0
C450 C 0.22016 0.91946 0.1168 0.0
C451 C 0.22731 0.90868 0.10767 0.0
C452 C 0.21843 0.88854 0.10978 0.0
C453 C 0.2034 0.87962 0.12155 0.0
C454 C 0.20957 0.90336 0.17181 0.0
C455 C 0.21271 0.92108 0.18071 0.0
C456 C 0.23117 0.93659 0.18608 0.0
C457 C 0.24682 0.93462 0.18265 0.0
C458 C 0.24357 0.91676 0.17382 0.0
C459 C 0.22509 0.90125 0.16851 0.0
C460 C 0.18567 0.88027 0.20067 0.0
C461 C 0.18023 0.88978 0.21418 0.0
C462 C 0.18776 0.89396 0.23332 0.0
C463 C 0.20071 0.88851 0.23925 0.0
C464 C 0.20581 0.87865 0.22562 0.0
C465 C 0.19841 0.87465 0.20648 0.0
C466 C 0.14815 0.84699 0.18954 0.0
C467 C 0.13194 0.84656 0.19566 0.0
C468 C 0.12035 0.83277 0.20807 0.0
C469 C 0.12475 0.81913 0.21431 0.0
C470 C 0.14128 0.81999 0.20845 0.0
C471 C 0.15284 0.83377 0.19618 0.0
C472 C 0.13746 0.84667 0.06033 0.0
C473 C 0.26647 0.95109 0.18824 0.0
H474 H 0.29374 0.17746 0.01686 0.0
H475 H 0.33349 0.04953 0.88589 0.0
H476 H 0.2821 0.17085 0.90467 0.0
H477 H 0.28348 0.20222 0.90896 0.0
H478 H 0.34469 0.23285 0.90896 0.0
H479 H 0.34294 0.20162 0.9038 0.0
H480 H 0.28345 0.13949 0.93912 0.0
H481 H 0.28231 0.15097 0.97219 0.0
H482 H 0.3402 0.19917 0.97137 0.0
H483 H 0.34118 0.1874 0.93837 0.0
H484 H 0.29103 0.10338 0.92608 0.0
H485 H 0.30075 0.08576 0.94636 0.0
H486 H 0.35704 0.13729 0.95585 0.0
H487 H 0.34711 0.15481 0.93575 0.0
H488 H 0.28611 0.09588 0.8785 0.0
H489 H 0.28696 0.06584 0.87354 0.0
H490 H 0.34557 0.09755 0.89653 0.0
H491 H 0.34461 0.12753 0.90107 0.0
H492 H 0.28701 0.12697 0.84764 0.0
H493 H 0.28937 0.11455 0.8155 0.0
H494 H 0.34621 0.12875 0.83286 0.0
H495 H 0.34405 0.14218 0.86441 0.0
H496 H 0.28392 0.16129 0.86371 0.0
H497 H 0.28666 0.1821 0.83809 0.0
H498 H 0.34677 0.20385 0.83879 0.0
H499 H 0.34367 0.18263 0.86379 0.0
O500 O 0.2945 0.17317 0.0038 0.0
O501 O 0.32427 0.19771 0.00262 0.0
O502 O 0.30286 0.04573 0.87519 0.0
O503 O 0.33284 0.06125 0.88743 0.0
C504 C 0.31183 0.16541 0.90061 0.0
C505 C 0.31285 0.15561 0.91634 0.0
C506 C 0.31446 0.13901 0.91301 0.0
C507 C 0.31435 0.1318 0.89389 0.0
C508 C 0.31353 0.14176 0.8782 0.0
C509 C 0.31232 0.1586 0.88157 0.0
C510 C 0.31244 0.1841 0.90409 0.0
C511 C 0.29574 0.18442 0.90559 0.0
C512 C 0.29658 0.20232 0.90804 0.0
C513 C 0.31419 0.22011 0.90915 0.0
C514 C 0.33084 0.21953 0.90767 0.0
C515 C 0.32994 0.20171 0.90502 0.0
C516 C 0.31232 0.16274 0.93634 0.0
C517 C 0.29585 0.15253 0.94612 0.0
C518 C 0.29524 0.15913 0.965 0.0
C519 C 0.31115 0.17603 0.9744 0.0
C520 C 0.32768 0.18615 0.96452 0.0
C521 C 0.32826 0.17951 0.94566 0.0
C522 C 0.3184 0.1303 0.92936 0.0
C523 C 0.30524 0.11104 0.93311 0.0
C524 C 0.3109 0.10097 0.94451 0.0
C525 C 0.32979 0.11002 0.95236 0.0
C526 C 0.3424 0.12992 0.95007 0.0
C527 C 0.33673 0.13998 0.93863 0.0
C528 C 0.31524 0.11382 0.89028 0.0
C529 C 0.29914 0.09631 0.88235 0.0
C530 C 0.29966 0.07918 0.87958 0.0
C531 C 0.31632 0.07927 0.88473 0.0
C532 C 0.3325 0.09694 0.89247 0.0
C533 C 0.33198 0.11407 0.89513 0.0
C534 C 0.31527 0.13525 0.85838 0.0
C535 C 0.30004 0.12764 0.84433 0.0
C536 C 0.30138 0.12039 0.82606 0.0
C537 C 0.31792 0.12045 0.82161 0.0
C538 C 0.33334 0.12865 0.83563 0.0
C539 C 0.33207 0.13612 0.85377 0.0
C540 C 0.31358 0.17037 0.86543 0.0
C541 C 0.2976 0.17044 0.85811 0.0
C542 C 0.29924 0.18244 0.8436 0.0
C543 C 0.31692 0.19461 0.83625 0.0
C544 C 0.33284 0.19437 0.84372 0.0
C545 C 0.33116 0.18233 0.85809 0.0
C546 C 0.31045 0.18302 0.99445 0.0
C547 C 0.31686 0.06105 0.88212 0.0
H548 H 0.83183 0.15778 0.02472 0.0
H549 H 0.72174 0.01064 0.8539 0.0
H550 H 0.84483 0.17145 0.92473 0.0
H551 H 0.87295 0.20296 0.93559 0.0
H552 H 0.9085 0.18048 0.91864 0.0
H553 H 0.88 0.14844 0.90869 0.0
H554 H 0.81182 0.14331 0.94151 0.0
H555 H 0.81647 0.15126 0.9765 0.0
H556 H 0.85637 0.13173 0.97948 0.0
H557 H 0.85143 0.12364 0.94447 0.0
H558 H 0.77982 0.11518 0.90642 0.0
H559 H 0.75236 0.10187 0.92572 0.0
H560 H 0.77691 0.07676 0.96073 0.0
H561 H 0.80422 0.08955 0.94079 0.0
H562 H 0.78146 0.10748 0.86701 0.0
H563 H 0.7518 0.07925 0.85226 0.0
H564 H 0.76504 0.04048 0.87993 0.0
H565 H 0.79481 0.06885 0.89438 0.0
H566 H 0.81855 0.1417 0.85488 0.0
H567 H 0.8083 0.13431 0.82056 0.0
H568 H 0.80811 0.08027 0.82082 0.0
H569 H 0.81921 0.08827 0.85508 0.0
H570 H 0.84825 0.1715 0.88144 0.0
H571 H 0.87249 0.19526 0.86241 0.0
H572 H 0.88923 0.15368 0.84621 0.0
H573 H 0.86462 0.12976 0.86538 0.0
O574 O 0.83016 0.15447 0.0109 0.0
O575 O 0.85061 0.14431 0.01164 0.0
O576 O 0.72731 0.04263 0.84555 0.0
O577 O 0.73341 0.02207 0.85951 0.0
C578 C 0.84312 0.13934 0.90755 0.0
C579 C 0.82834 0.12783 0.91923 0.0
C580 C 0.81079 0.11224 0.91057 0.0
C581 C 0.80856 0.10729 0.89041 0.0
C582 C 0.8233 0.11893 0.87872 0.0
C583 C 0.84045 0.13513 0.88726 0.0
C584 C 0.86036 0.15759 0.91616 0.0
C585 C 0.85866 0.17314 0.92386 0.0
C586 C 0.87478 0.19126 0.92969 0.0
C587 C 0.89298 0.19434 0.92765 0.0
C588 C 0.89469 0.17855 0.92045 0.0
C589 C 0.87846 0.16028 0.91477 0.0
C590 C 0.83113 0.1327 0.94049 0.0
C591 C 0.82144 0.14062 0.94976 0.0
C592 C 0.82418 0.14521 0.96975 0.0
C593 C 0.83676 0.14208 0.9808 0.0
C594 C 0.84655 0.13428 0.97141 0.0
C595 C 0.84377 0.12966 0.95142 0.0
C596 C 0.79391 0.10312 0.92203 0.0
C597 C 0.77912 0.10646 0.91799 0.0
C598 C 0.76352 0.09897 0.92907 0.0
C599 C 0.76259 0.08834 0.94466 0.0
C600 C 0.77741 0.08503 0.94882 0.0
C601 C 0.79291 0.09222 0.93744 0.0
C602 C 0.7904 0.09019 0.88156 0.0
C603 C 0.77802 0.09288 0.86972 0.0
C604 C 0.76104 0.07673 0.86139 0.0
C605 C 0.75607 0.05759 0.86487 0.0
C606 C 0.76845 0.055 0.87691 0.0
C607 C 0.78545 0.07117 0.88519 0.0
C608 C 0.81973 0.11557 0.85742 0.0
C609 C 0.81686 0.12857 0.84739 0.0
C610 C 0.81076 0.12419 0.82784 0.0
C611 C 0.80719 0.10661 0.81802 0.0
C612 C 0.81091 0.09403 0.82792 0.0
C613 C 0.81717 0.09851 0.84749 0.0
C614 C 0.85483 0.14902 0.87493 0.0
C615 C 0.85721 0.16755 0.87386 0.0
C616 C 0.87116 0.18114 0.86308 0.0
C617 C 0.883 0.17647 0.85304 0.0
C618 C 0.88033 0.15769 0.85379 0.0
C619 C 0.86633 0.14405 0.8647 0.0
C620 C 0.83964 0.14699 0.00203 0.0
C621 C 0.73805 0.04037 0.85603 0.0
H622 H 0.86035 0.68645 0.03587 0.0
H623 H 0.71702 0.66781 0.88194 0.0
H624 H 0.87852 0.70467 0.93621 0.0
H625 H 0.90176 0.69752 0.9498 0.0
H626 H 0.87002 0.6392 0.92033 0.0
H627 H 0.84681 0.64647 0.90688 0.0
H628 H 0.845 0.70553 0.96032 0.0
H629 H 0.85273 0.70305 0.99385 0.0
H630 H 0.83856 0.64359 0.97854 0.0
H631 H 0.83065 0.6462 0.94512 0.0
H632 H 0.80738 0.70372 0.94207 0.0
H633 H 0.78209 0.696 0.96375 0.0
H634 H 0.76863 0.63604 0.96123 0.0
H635 H 0.79405 0.644 0.93987 0.0
H636 H 0.81117 0.71221 0.89649 0.0
H637 H 0.78306 0.71378 0.88787 0.0
H638 H 0.74735 0.65202 0.89489 0.0
H639 H 0.7756 0.65064 0.90329 0.0
H640 H 0.83746 0.71168 0.86822 0.0
H641 H 0.82595 0.70996 0.83462 0.0
H642 H 0.78646 0.64784 0.83572 0.0
H643 H 0.79792 0.64972 0.869 0.0
H644 H 0.87585 0.71112 0.89024 0.0
H645 H 0.89576 0.71299 0.86412 0.0
H646 H 0.85293 0.65392 0.84178 0.0
H647 H 0.83354 0.65204 0.86827 0.0
O648 O 0.85713 0.68708 0.02255 0.0
O649 O 0.84975 0.6566 0.01392 0.0
O650 O 0.74737 0.69927 0.88172 0.0
O651 O 0.72837 0.66759 0.88524 0.0
C652 C 0.84509 0.67892 0.91554 0.0
C653 C 0.83301 0.67788 0.92995 0.0
C654 C 0.81658 0.67839 0.92503 0.0
C655 C 0.81253 0.68058 0.90583 0.0
C656 C 0.82453 0.68153 0.89141 0.0
C657 C 0.84085 0.68075 0.89626 0.0
C658 C 0.86105 0.67611 0.92053 0.0
C659 C 0.87689 0.69055 0.9323 0.0
C660 C 0.89011 0.68642 0.94005 0.0
C661 C 0.88759 0.66773 0.93624 0.0
C662 C 0.87219 0.65364 0.92367 0.0
C663 C 0.85907 0.65784 0.91581 0.0
C664 C 0.83743 0.67611 0.9503 0.0
C665 C 0.84354 0.69197 0.96427 0.0
C666 C 0.84797 0.69052 0.98339 0.0
C667 C 0.84632 0.67314 0.98886 0.0
C668 C 0.84004 0.65721 0.9748 0.0
C669 C 0.83557 0.65867 0.9557 0.0
C670 C 0.80252 0.67442 0.93948 0.0
C671 C 0.79908 0.68901 0.94643 0.0
C672 C 0.78457 0.68452 0.95868 0.0
C673 C 0.77329 0.66537 0.96414 0.0
C674 C 0.7772 0.65098 0.95753 0.0
C675 C 0.79168 0.65547 0.9453 0.0
C676 C 0.79538 0.68135 0.9006 0.0
C677 C 0.79725 0.69904 0.89612 0.0
C678 C 0.78118 0.69989 0.89123 0.0
C679 C 0.76294 0.68302 0.89074 0.0
C680 C 0.76116 0.66529 0.89517 0.0
C681 C 0.77726 0.66446 0.90002 0.0
C682 C 0.81854 0.68079 0.87092 0.0
C683 C 0.82643 0.69773 0.86107 0.0
C684 C 0.8198 0.69674 0.84199 0.0
C685 C 0.80542 0.67874 0.83253 0.0
C686 C 0.79777 0.66184 0.8425 0.0
C687 C 0.80421 0.66289 0.86152 0.0
C688 C 0.85325 0.6815 0.88103 0.0
C689 C 0.87091 0.69856 0.87977 0.0
C690 C 0.88216 0.69964 0.86476 0.0
C691 C 0.87591 0.68363 0.8508 0.0
C692 C 0.8583 0.66644 0.85239 0.0
C693 C 0.84711 0.66537 0.86741 0.0
C694 C 0.85115 0.67169 0.00917 0.0
C695 C 0.74582 0.68386 0.88562 0.0
H696 H 0.8209 0.69386 0.36497 0.0
H697 H 0.93172 0.64159 0.51685 0.0
H698 H 0.81447 0.6893 0.48464 0.0
H699 H 0.79069 0.69456 0.46894 0.0
H700 H 0.76985 0.64126 0.43173 0.0
H701 H 0.79301 0.63551 0.4481 0.0
H702 H 0.83732 0.69552 0.44765 0.0
H703 H 0.83151 0.70036 0.41436 0.0
H704 H 0.82275 0.64365 0.3953 0.0
H705 H 0.8283 0.63888 0.42869 0.0
H706 H 0.87734 0.69876 0.45586 0.0
H707 H 0.90469 0.70742 0.43699 0.0
H708 H 0.88803 0.64646 0.42983 0.0
H709 H 0.86086 0.63803 0.4489 0.0
H710 H 0.889 0.69122 0.4996 0.0
H711 H 0.9173 0.69105 0.51094 0.0
H712 H 0.88672 0.62804 0.49858 0.0
H713 H 0.85856 0.62847 0.48734 0.0
H714 H 0.858 0.6886 0.52683 0.0
H715 H 0.87234 0.6901 0.55854 0.0
H716 H 0.8515 0.62815 0.54962 0.0
H717 H 0.8364 0.62667 0.5181 0.0
H718 H 0.82697 0.68629 0.51942 0.0
H719 H 0.80541 0.68194 0.54445 0.0
H720 H 0.77011 0.62054 0.52412 0.0
H721 H 0.79223 0.62502 0.49947 0.0
O722 O 0.82333 0.69172 0.37801 0.0
O723 O 0.81935 0.66265 0.3689 0.0
O724 O 0.93587 0.67449 0.51858 0.0
O725 O 0.92079 0.64211 0.51239 0.0
C726 C 0.82215 0.66092 0.47417 0.0
C727 C 0.83574 0.66347 0.46088 0.0
C728 C 0.85197 0.66308 0.46697 0.0
C729 C 0.85459 0.65996 0.48621 0.0
C730 C 0.84138 0.65794 0.49962 0.0
C731 C 0.82511 0.65837 0.49363 0.0
C732 C 0.80542 0.66195 0.4676 0.0
C733 C 0.80427 0.67833 0.47368 0.0
C734 C 0.79083 0.68143 0.46459 0.0
C735 C 0.77867 0.66841 0.44904 0.0
C736 C 0.77922 0.65155 0.4436 0.0
C737 C 0.79232 0.64821 0.45299 0.0
C738 C 0.83315 0.66682 0.44057 0.0
C739 C 0.83414 0.68417 0.43625 0.0
C740 C 0.83083 0.6869 0.41723 0.0
C741 C 0.82662 0.67237 0.40217 0.0
C742 C 0.82593 0.65512 0.40655 0.0
C743 C 0.82917 0.65238 0.42559 0.0
C744 C 0.86722 0.6678 0.45378 0.0
C745 C 0.87949 0.68727 0.44996 0.0
C746 C 0.89506 0.69218 0.43915 0.0
C747 C 0.89862 0.67765 0.43204 0.0
C748 C 0.88586 0.65803 0.43538 0.0
C749 C 0.87029 0.65315 0.44616 0.0
C750 C 0.87183 0.65987 0.49266 0.0
C751 C 0.88851 0.67743 0.49932 0.0
C752 C 0.90461 0.67727 0.5058 0.0
C753 C 0.90426 0.65951 0.50567 0.0
C754 C 0.88748 0.64196 0.49888 0.0
C755 C 0.87139 0.64215 0.49244 0.0
C756 C 0.84599 0.6575 0.52027 0.0
C757 C 0.85587 0.6752 0.53204 0.0
C758 C 0.86433 0.67607 0.55002 0.0
C759 C 0.86338 0.65932 0.55645 0.0
C760 C 0.85243 0.64129 0.54514 0.0
C761 C 0.84378 0.6404 0.52715 0.0
C762 C 0.8112 0.65595 0.50776 0.0
C763 C 0.81456 0.67192 0.52038 0.0
C764 C 0.80211 0.66942 0.53455 0.0
C765 C 0.786 0.65086 0.53633 0.0
C766 C 0.7825 0.63496 0.52333 0.0
C767 C 0.79501 0.63749 0.50916 0.0
C768 C 0.82289 0.67522 0.38201 0.0
C769 C 0.92129 0.65924 0.51261 0.0
H770 H 0.32185 0.15272 0.38304 0.0
H771 H 0.38657 0.31347 0.54619 0.0
H772 H 0.32933 0.14587 0.48759 0.0
H773 H 0.32206 0.11346 0.47513 0.0
H774 H 0.38183 0.13344 0.48027 0.0
H775 H 0.38892 0.16597 0.49332 0.0
H776 H 0.32602 0.17351 0.46587 0.0
H777 H 0.31869 0.16314 0.43129 0.0
H778 H 0.37713 0.18017 0.42554 0.0
H779 H 0.38429 0.19065 0.46012 0.0
H780 H 0.32727 0.2035 0.4997 0.0
H781 H 0.31277 0.21868 0.48243 0.0
H782 H 0.35913 0.24252 0.4454 0.0
H783 H 0.37396 0.2276 0.46321 0.0
H784 H 0.34177 0.21584 0.53761 0.0
H785 H 0.34413 0.24596 0.55125 0.0
H786 H 0.39453 0.28001 0.52112 0.0
H787 H 0.3922 0.24974 0.50787 0.0
H788 H 0.34421 0.18286 0.553 0.0
H789 H 0.3444 0.19714 0.58505 0.0
H790 H 0.40014 0.24693 0.57834 0.0
H791 H 0.40014 0.23208 0.5466 0.0
H792 H 0.33694 0.15023 0.52827 0.0
H793 H 0.33596 0.12562 0.54783 0.0
H794 H 0.39702 0.16031 0.55827 0.0
H795 H 0.39781 0.18512 0.53851 0.0
O796 O 0.32507 0.15698 0.39667 0.0
O797 O 0.35527 0.16595 0.39451 0.0
O798 O 0.3595 0.28314 0.5564 0.0
O799 O 0.38532 0.30132 0.54101 0.0
C800 C 0.36352 0.17772 0.49873 0.0
C801 C 0.36025 0.1892 0.48643 0.0
C802 C 0.36047 0.20595 0.49431 0.0
C803 C 0.36591 0.21236 0.51408 0.0
C804 C 0.3694 0.20098 0.52639 0.0
C805 C 0.3676 0.18331 0.51878 0.0
C806 C 0.35965 0.15826 0.49102 0.0
C807 C 0.34085 0.14327 0.48591 0.0
C808 C 0.33676 0.12479 0.47877 0.0
C809 C 0.35141 0.12096 0.47645 0.0
C810 C 0.37026 0.13594 0.48196 0.0
C811 C 0.37435 0.15451 0.48925 0.0
C812 C 0.35573 0.18304 0.46543 0.0
C813 C 0.33724 0.17514 0.45708 0.0
C814 C 0.33309 0.16916 0.43734 0.0
C815 C 0.34734 0.17088 0.42563 0.0
C816 C 0.36584 0.17869 0.43412 0.0
C817 C 0.36997 0.18469 0.45386 0.0
C818 C 0.35182 0.21477 0.48291 0.0
C819 C 0.33438 0.2121 0.48793 0.0
C820 C 0.32608 0.22068 0.47804 0.0
C821 C 0.33491 0.2318 0.4627 0.0
C822 C 0.35205 0.23391 0.45716 0.0
C823 C 0.36055 0.22553 0.46732 0.0
C824 C 0.36699 0.23063 0.522 0.0
C825 C 0.3534 0.22982 0.53411 0.0
C826 C 0.35473 0.24705 0.54181 0.0
C827 C 0.36957 0.26541 0.53733 0.0
C828 C 0.38297 0.26613 0.52492 0.0
C829 C 0.38167 0.24887 0.51731 0.0
C830 C 0.37217 0.20643 0.54748 0.0
C831 C 0.35686 0.19634 0.55884 0.0
C832 C 0.35685 0.20471 0.57701 0.0
C833 C 0.37209 0.22336 0.58402 0.0
C834 C 0.3882 0.23252 0.57339 0.0
C835 C 0.38826 0.22405 0.55526 0.0
C836 C 0.36745 0.16934 0.53186 0.0
C837 C 0.35011 0.15253 0.53477 0.0
C838 C 0.34961 0.13843 0.54584 0.0
C839 C 0.36645 0.14086 0.55433 0.0
C840 C 0.38383 0.15804 0.55188 0.0
C841 C 0.38431 0.17219 0.54065 0.0
C842 C 0.34288 0.16448 0.40467 0.0
C843 C 0.37109 0.28377 0.54552 0.0
H844 H 0.80175 0.19006 0.36857 0.0
H845 H 0.96584 0.28179 0.51983 0.0
H846 H 0.79264 0.18488 0.46914 0.0
H847 H 0.76164 0.15649 0.45667 0.0
H848 H 0.77859 0.11761 0.47705 0.0
H849 H 0.80971 0.14574 0.48839 0.0
H850 H 0.82992 0.21883 0.44922 0.0
H851 H 0.81855 0.21206 0.41509 0.0
H852 H 0.81322 0.1554 0.4142 0.0
H853 H 0.82483 0.16246 0.44825 0.0
H854 H 0.87315 0.24899 0.47218 0.0
H855 H 0.89944 0.266 0.45191 0.0
H856 H 0.89076 0.21025 0.42891 0.0
H857 H 0.86557 0.19362 0.45044 0.0
H858 H 0.87323 0.24917 0.51784 0.0
H859 H 0.90607 0.27476 0.52791 0.0
H860 H 0.92549 0.23898 0.50049 0.0
H861 H 0.89258 0.21343 0.49072 0.0
H862 H 0.83992 0.21947 0.5417 0.0
H863 H 0.85381 0.22711 0.575 0.0
H864 H 0.88707 0.20137 0.55982 0.0
H865 H 0.87338 0.19423 0.5265 0.0
H866 H 0.7971 0.18509 0.5183 0.0
H867 H 0.77476 0.16093 0.53892 0.0
H868 H 0.81186 0.1383 0.54551 0.0
H869 H 0.83379 0.16209 0.5247 0.0
O870 O 0.80626 0.19245 0.38205 0.0
O871 O 0.80367 0.16344 0.3824 0.0
O872 O 0.94199 0.28962 0.53014 0.0
O873 O 0.95272 0.27187 0.51612 0.0
C874 C 0.8227 0.18424 0.48598 0.0
C875 C 0.83495 0.1953 0.47198 0.0
C876 C 0.85395 0.21005 0.47766 0.0
C877 C 0.86057 0.21407 0.49737 0.0
C878 C 0.84834 0.20302 0.51131 0.0
C879 C 0.82944 0.18811 0.50567 0.0
C880 C 0.80338 0.16738 0.47982 0.0
C881 C 0.78957 0.17023 0.47101 0.0
C882 C 0.77192 0.1541 0.46402 0.0
C883 C 0.76775 0.13499 0.46623 0.0
C884 C 0.78136 0.13223 0.47557 0.0
C885 C 0.79912 0.14827 0.48205 0.0
C886 C 0.82807 0.19109 0.45124 0.0
C887 C 0.82632 0.20499 0.44161 0.0
C888 C 0.81979 0.20106 0.42212 0.0
C889 C 0.81492 0.18316 0.41192 0.0
C890 C 0.8168 0.16931 0.42163 0.0
C891 C 0.82337 0.17327 0.4411 0.0
C892 C 0.86753 0.22009 0.46289 0.0
C893 C 0.87687 0.24048 0.46263 0.0
C894 C 0.89182 0.25016 0.45088 0.0
C895 C 0.89744 0.23955 0.43884 0.0
C896 C 0.8872 0.21897 0.43831 0.0
C897 C 0.87254 0.20938 0.45037 0.0
C898 C 0.88055 0.22951 0.50348 0.0
C899 C 0.88461 0.24688 0.51408 0.0
C900 C 0.90337 0.26148 0.51978 0.0
C901 C 0.91842 0.25893 0.51497 0.0
C902 C 0.91426 0.24144 0.50441 0.0
C903 C 0.89548 0.22683 0.49877 0.0
C904 C 0.85577 0.20644 0.53175 0.0
C905 C 0.8501 0.21538 0.54566 0.0
C906 C 0.85799 0.21962 0.56467 0.0
C907 C 0.87161 0.21489 0.57006 0.0
C908 C 0.87686 0.20548 0.55609 0.0
C909 C 0.86901 0.20131 0.5371 0.0
C910 C 0.81709 0.17538 0.52008 0.0
C911 C 0.80048 0.17507 0.52446 0.0
C912 C 0.78777 0.16131 0.53622 0.0
C913 C 0.79149 0.14761 0.54363 0.0
C914 C 0.80848 0.14847 0.53975 0.0
C915 C 0.82115 0.16222 0.52809 0.0
C916 C 0.80795 0.17902 0.39125 0.0
C917 C 0.93838 0.27443 0.5209 0.0
H918 H 0.9949 0.51258 0.34472 0.0
H919 H 0.03764 0.40709 0.18336 0.0
H920 H 0.96663 0.50195 0.24461 0.0
H921 H 0.96427 0.52968 0.25787 0.0
H922 H 0.01464 0.56942 0.2305 0.0
H923 H 0.01736 0.54184 0.21797 0.0
H924 H 0.97684 0.47432 0.26608 0.0
H925 H 0.97978 0.48523 0.30033 0.0
H926 H 0.02993 0.54048 0.29112 0.0
H927 H 0.02694 0.52929 0.25696 0.0
H928 H 0.98161 0.44211 0.24199 0.0
H929 H 0.99084 0.42516 0.26355 0.0
H930 H 0.04538 0.4784 0.2773 0.0
H931 H 0.03615 0.49506 0.25497 0.0
H932 H 0.97597 0.43587 0.19818 0.0
H933 H 0.98229 0.41037 0.18694 0.0
H934 H 0.04221 0.45048 0.20215 0.0
H935 H 0.03568 0.4759 0.21312 0.0
H936 H 0.96582 0.45798 0.17454 0.0
H937 H 0.96528 0.44197 0.14322 0.0
H938 H 0.02652 0.47773 0.1454 0.0
H939 H 0.02685 0.49308 0.177 0.0
H940 H 0.96043 0.49618 0.19522 0.0
H941 H 0.95612 0.51767 0.17464 0.0
H942 H 0.01452 0.5445 0.16089 0.0
H943 H 0.01869 0.52302 0.18125 0.0
O944 O 0.99405 0.50852 0.33115 0.0
O945 O 0.0197 0.53672 0.32562 0.0
O946 O 0.00379 0.39686 0.18012 0.0
O947 O 0.03473 0.41688 0.18777 0.0
C948 C 0.99489 0.50351 0.2242 0.0
C949 C 0.9997 0.49444 0.23824 0.0
C950 C 0.00301 0.47933 0.23242 0.0
C951 C 0.00154 0.47333 0.21262 0.0
C952 C 0.99697 0.48255 0.19863 0.0
C953 C 0.99354 0.49755 0.20435 0.0
C954 C 0.99216 0.5199 0.23033 0.0
C955 C 0.97701 0.51663 0.24131 0.0
C956 C 0.97564 0.5324 0.24879 0.0
C957 C 0.98921 0.5516 0.24506 0.0
C958 C 0.00383 0.55472 0.23329 0.0
C959 C 0.00541 0.53901 0.22616 0.0
C960 C 0.00165 0.50103 0.25906 0.0
C961 C 0.98849 0.48874 0.27152 0.0
C962 C 0.99018 0.49503 0.29106 0.0
C963 C 0.00508 0.51374 0.29846 0.0
C964 C 0.01828 0.52599 0.2859 0.0
C965 C 0.0166 0.51966 0.26638 0.0
C966 C 0.0082 0.46978 0.24694 0.0
C967 C 0.9955 0.45014 0.24976 0.0
C968 C 0.00078 0.44054 0.26222 0.0
C969 C 0.01885 0.45045 0.27227 0.0
C970 C 0.03144 0.4703 0.26967 0.0
C971 C 0.02614 0.47989 0.25708 0.0
C972 C 0.00538 0.4577 0.20641 0.0
C973 C 0.99044 0.4391 0.19903 0.0
C974 C 0.9941 0.42457 0.19266 0.0
C975 C 0.01277 0.4284 0.19363 0.0
C976 C 0.02768 0.44705 0.20119 0.0
C977 C 0.024 0.46158 0.20751 0.0
C978 C 0.99636 0.47658 0.17796 0.0
C979 C 0.97904 0.4627 0.16794 0.0
C980 C 0.97879 0.45359 0.15006 0.0
C981 C 0.9959 0.45836 0.14196 0.0
C982 C 0.01313 0.47341 0.15145 0.0
C983 C 0.01336 0.48237 0.16936 0.0
C984 C 0.98986 0.50805 0.18966 0.0
C985 C 0.97213 0.5064 0.18738 0.0
C986 C 0.96969 0.51863 0.17568 0.0
C987 C 0.98505 0.53281 0.16639 0.0
C988 C 0.00252 0.53379 0.16806 0.0
C989 C 0.00487 0.52144 0.17952 0.0
C990 C 0.00678 0.52042 0.31921 0.0
C991 C 0.01675 0.41305 0.18675 0.0
H992 H 0.49013 0.49496 0.34993 0.0
H993 H 0.39779 0.33103 0.18734 0.0
H994 H 0.50444 0.50158 0.2462 0.0
H995 H 0.52939 0.53404 0.26005 0.0
H996 H 0.56965 0.51489 0.25951 0.0
H997 H 0.54446 0.48241 0.24505 0.0
H998 H 0.47258 0.47129 0.26708 0.0
H999 H 0.47565 0.48233 0.3013 0.0
H1000 H 0.52069 0.47067 0.31107 0.0
H1001 H 0.51733 0.45948 0.27683 0.0
H1002 H 0.44228 0.43645 0.23553 0.0
H1003 H 0.41581 0.42146 0.25603 0.0
H1004 H 0.4481 0.4065 0.29356 0.0
H1005 H 0.47445 0.42094 0.27247 0.0
H1006 H 0.44513 0.42879 0.1973 0.0
H1007 H 0.41781 0.39763 0.18342 0.0
H1008 H 0.43996 0.36657 0.21231 0.0
H1009 H 0.46737 0.39788 0.22587 0.0
H1010 H 0.47693 0.46359 0.18459 0.0
H1011 H 0.46583 0.45352 0.15077 0.0
H1012 H 0.48251 0.41044 0.15125 0.0
H1013 H 0.49262 0.42009 0.18567 0.0
H1014 H 0.50776 0.49741 0.20554 0.0
H1015 H 0.53245 0.52231 0.18764 0.0
H1016 H 0.55871 0.48774 0.18214 0.0
H1017 H 0.53374 0.46273 0.2002 0.0
O1018 O 0.48908 0.49044 0.33647 0.0
O1019 O 0.51218 0.48421 0.34072 0.0
O1020 O 0.39781 0.36025 0.1779 0.0
O1021 O 0.4085 0.34357 0.19256 0.0
C1022 C 0.50709 0.46998 0.23683 0.0
C1023 C 0.49288 0.4579 0.24873 0.0
C1024 C 0.47665 0.4403 0.24061 0.0
C1025 C 0.47507 0.43448 0.22071 0.0
C1026 C 0.48915 0.44682 0.20874 0.0
C1027 C 0.50515 0.46454 0.21683 0.0
C1028 C 0.52264 0.48966 0.24489 0.0
C1029 C 0.51866 0.50443 0.24908 0.0
C1030 C 0.53292 0.52291 0.25705 0.0
C1031 C 0.55147 0.52698 0.26113 0.0
C1032 C 0.55554 0.51225 0.25645 0.0
C1033 C 0.54119 0.4937 0.24833 0.0
C1034 C 0.4946 0.46441 0.26955 0.0
C1035 C 0.483 0.47099 0.27668 0.0
C1036 C 0.48483 0.47735 0.29621 0.0
C1037 C 0.4984 0.47735 0.30894 0.0
C1038 C 0.51008 0.47082 0.30168 0.0
C1039 C 0.50819 0.46443 0.28214 0.0
C1040 C 0.4602 0.42953 0.25234 0.0
C1041 C 0.44348 0.42947 0.24787 0.0
C1042 C 0.42844 0.42105 0.25965 0.0
C1043 C 0.42998 0.41289 0.27634 0.0
C1044 C 0.44666 0.41283 0.2808 0.0
C1045 C 0.46162 0.42094 0.26876 0.0
C1046 C 0.45836 0.41559 0.21236 0.0
C1047 C 0.44417 0.41525 0.20043 0.0
C1048 C 0.42852 0.39742 0.19262 0.0
C1049 C 0.42673 0.37959 0.19671 0.0
C1050 C 0.44092 0.38002 0.20882 0.0
C1051 C 0.45659 0.39787 0.21659 0.0
C1052 C 0.48558 0.44259 0.18751 0.0
C1053 C 0.47852 0.45224 0.17726 0.0
C1054 C 0.47225 0.44647 0.15783 0.0
C1055 C 0.47319 0.43107 0.14811 0.0
C1056 C 0.48121 0.42208 0.15829 0.0
C1057 C 0.48721 0.4277 0.17789 0.0
C1058 C 0.5191 0.47841 0.20425 0.0
C1059 C 0.51879 0.49517 0.20037 0.0
C1060 C 0.53296 0.50941 0.19029 0.0
C1061 C 0.54768 0.5071 0.18379 0.0
C1062 C 0.54755 0.48989 0.18702 0.0
C1063 C 0.53335 0.47563 0.19727 0.0
C1064 C 0.50036 0.48418 0.32967 0.0
C1065 C 0.41012 0.36061 0.18846 0.0
H1066 H 0.50193 0.97807 0.36809 0.0
H1067 H 0.37221 0.96978 0.20325 0.0
H1068 H 0.52799 0.01135 0.2768 0.0
H1069 H 0.5512 0.0059 0.29344 0.0
H1070 H 0.53375 0.95489 0.25377 0.0
H1071 H 0.50993 0.95992 0.23762 0.0
H1072 H 0.49225 0.00566 0.2953 0.0
H1073 H 0.49675 0.9991 0.32827 0.0
H1074 H 0.48923 0.94358 0.30646 0.0
H1075 H 0.48448 0.95021 0.27358 0.0
H1076 H 0.46126 0.00916 0.27151 0.0
H1077 H 0.43591 0.00286 0.2925 0.0
H1078 H 0.41942 0.942 0.29075 0.0
H1079 H 0.44502 0.94854 0.26983 0.0
H1080 H 0.46518 0.0183 0.22861 0.0
H1081 H 0.43693 0.01853 0.21736 0.0
H1082 H 0.4032 0.95561 0.21857 0.0
H1083 H 0.43162 0.95559 0.2296 0.0
H1084 H 0.4959 0.0242 0.20615 0.0
H1085 H 0.48681 0.02787 0.17339 0.0
H1086 H 0.45023 0.96496 0.16325 0.0
H1087 H 0.45932 0.96151 0.1958 0.0
H1088 H 0.53301 0.02314 0.23012 0.0
H1089 H 0.55699 0.03024 0.20692 0.0
H1090 H 0.51987 0.9732 0.1762 0.0
H1091 H 0.49624 0.96614 0.19967 0.0
O1092 O 0.49986 0.98025 0.35496 0.0
O1093 O 0.49601 0.95192 0.34299 0.0
O1094 O 0.40161 0.00243 0.20716 0.0
O1095 O 0.38361 0.97011 0.20763 0.0
C1096 C 0.5003 0.98658 0.24922 0.0
C1097 C 0.48602 0.98279 0.26201 0.0
C1098 C 0.46979 0.98309 0.25571 0.0
C1099 C 0.46763 0.98688 0.23658 0.0
C1100 C 0.48165 0.99024 0.22368 0.0
C1101 C 0.49808 0.99026 0.23001 0.0
C1102 C 0.51718 0.98596 0.25609 0.0
C1103 C 0.52941 -0.00079 0.27147 0.0
C1104 C 0.54254 0.99603 0.28101 0.0
C1105 C 0.544 0.97984 0.27498 0.0
C1106 C 0.53282 0.96745 0.25865 0.0
C1107 C 0.51936 0.9704 0.24935 0.0
C1108 C 0.48804 0.97841 0.28207 0.0
C1109 C 0.49141 0.99202 0.2977 0.0
C1110 C 0.49406 0.98826 0.31651 0.0
C1111 C 0.4934 0.97083 0.32 0.0
C1112 C 0.48985 0.95716 0.30428 0.0
C1113 C 0.48714 0.9609 0.28549 0.0
C1114 C 0.45488 0.97929 0.2691 0.0
C1115 C 0.45219 0.99449 0.27571 0.0
C1116 C 0.43766 0.99083 0.28762 0.0
C1117 C 0.42555 0.97188 0.29316 0.0
C1118 C 0.42859 0.95677 0.28686 0.0
C1119 C 0.44313 0.96045 0.27488 0.0
C1120 C 0.45042 0.98694 0.22986 0.0
C1121 C 0.45168 0.00459 0.22635 0.0
C1122 C 0.43552 0.00467 0.21998 0.0
C1123 C 0.41779 0.98707 0.21707 0.0
C1124 C 0.41662 0.96941 0.22066 0.0
C1125 C 0.4328 0.96935 0.22699 0.0
C1126 C 0.47832 0.99259 0.20323 0.0
C1127 C 0.48619 0.01125 0.19666 0.0
C1128 C 0.48089 0.01332 0.17806 0.0
C1129 C 0.46784 0.9967 0.16574 0.0
C1130 C 0.46052 0.97802 0.17226 0.0
C1131 C 0.46566 0.97601 0.19085 0.0
C1132 C 0.5129 0.99417 0.2165 0.0
C1133 C 0.53018 0.01216 0.21845 0.0
C1134 C 0.54378 0.01622 0.20513 0.0
C1135 C 0.54033 0.0023 0.18969 0.0
C1136 C 0.52308 0.98414 0.18804 0.0
C1137 C 0.5095 0.98013 0.20133 0.0
C1138 C 0.49648 0.96702 0.33997 0.0
C1139 C 0.40057 0.98709 0.21032 0.0
H1140 H 0.52431 0.06277 0.71407 0.0
H1141 H 0.60305 0.97755 0.8498 0.0
H1142 H 0.50315 0.04522 0.81362 0.0
H1143 H 0.47924 0.05061 0.79869 0.0
H1144 H 0.43938 0.98805 0.79213 0.0
H1145 H 0.46338 0.98288 0.80739 0.0
H1146 H 0.53794 0.05037 0.7934 0.0
H1147 H 0.53676 0.06112 0.76154 0.0
H1148 H 0.48904 0.00331 0.74267 0.0
H1149 H 0.49052 0.9927 0.77452 0.0
H1150 H 0.56662 0.04224 0.81956 0.0
H1151 H 0.59349 0.05166 0.79971 0.0
H1152 H 0.55664 0.00473 0.75633 0.0
H1153 H 0.52991 0.99492 0.77656 0.0
H1154 H 0.55913 0.02764 0.8582 0.0
H1155 H 0.58487 0.02287 0.86875 0.0
H1156 H 0.56329 0.97302 0.82617 0.0
H1157 H 0.53748 0.97782 0.81594 0.0
H1158 H 0.52357 0.02529 0.87548 0.0
H1159 H 0.53112 0.02028 0.9079 0.0
H1160 H 0.52027 0.96315 0.88696 0.0
H1161 H 0.513 0.96854 0.85433 0.0
H1162 H 0.49271 0.03084 0.85206 0.0
H1163 H 0.46942 0.02574 0.87525 0.0
H1164 H 0.45326 0.96502 0.87506 0.0
H1165 H 0.47576 0.97004 0.85089 0.0
O1166 O 0.52457 0.0582 0.72654 0.0
O1167 O 0.5 0.02827 0.7176 0.0
O1168 O 0.60346 0.00543 0.86766 0.0
O1169 O 0.59301 0.97977 0.84593 0.0
C1170 C 0.50038 0.01046 0.81796 0.0
C1171 C 0.51497 0.01428 0.80563 0.0
C1172 C 0.5302 0.01216 0.81183 0.0
C1173 C 0.53058 0.0057 0.83016 0.0
C1174 C 0.51603 0.00192 0.84253 0.0
C1175 C 0.50086 0.00425 0.83643 0.0
C1176 C 0.48499 0.01366 0.81149 0.0
C1177 C 0.48914 0.03272 0.80922 0.0
C1178 C 0.47552 0.03575 0.80056 0.0
C1179 C 0.45748 0.01975 0.79401 0.0
C1180 C 0.45309 0.0007 0.79715 0.0
C1181 C 0.46676 0.99769 0.80583 0.0
C1182 C 0.51435 0.02075 0.78623 0.0
C1183 C 0.52731 0.04003 0.78232 0.0
C1184 C 0.52657 0.04614 0.76413 0.0
C1185 C 0.5128 0.03307 0.74955 0.0
C1186 C 0.49982 0.01374 0.75356 0.0
C1187 C 0.50061 0.00765 0.77174 0.0
C1188 C 0.54635 0.0178 0.79957 0.0
C1189 C 0.56439 0.03388 0.80585 0.0
C1190 C 0.57967 0.03929 0.7945 0.0
C1191 C 0.57707 0.02895 0.7765 0.0
C1192 C 0.55894 0.01305 0.77007 0.0
C1193 C 0.54372 0.00741 0.78161 0.0
C1194 C 0.54638 0.00299 0.83641 0.0
C1195 C 0.55993 0.01564 0.85126 0.0
C1196 C 0.57465 0.01291 0.85721 0.0
C1197 C 0.57612 0.99753 0.84832 0.0
C1198 C 0.56257 0.98499 0.83334 0.0
C1199 C 0.54783 0.9877 0.82745 0.0
C1200 C 0.51777 0.99731 0.86256 0.0
C1201 C 0.52241 0.01152 0.87798 0.0
C1202 C 0.52667 0.00856 0.89654 0.0
C1203 C 0.52635 0.9913 0.90008 0.0
C1204 C 0.52089 0.9767 0.8847 0.0
C1205 C 0.51661 0.97969 0.86609 0.0
C1206 C 0.48589 0.00079 0.84969 0.0
C1207 C 0.48384 0.01634 0.85672 0.0
C1208 C 0.47069 0.01344 0.87021 0.0
C1209 C 0.45952 0.99499 0.87723 0.0
C1210 C 0.46139 0.97936 0.86985 0.0
C1211 C 0.47437 0.98222 0.85614 0.0
C1212 C 0.51201 0.03962 0.73026 0.0
C1213 C 0.59171 0.99455 0.8546 0.0
H1214 H 0.94611 0.46159 0.72712 0.0
H1215 H 0.03104 0.63541 0.88084 0.0
H1216 H 0.96912 0.46228 0.83003 0.0
H1217 H 0.9643 0.43064 0.81795 0.0
H1218 H 0.02501 0.45708 0.81642 0.0
H1219 H 0.02964 0.4886 0.82917 0.0
H1220 H 0.96096 0.49011 0.80899 0.0
H1221 H 0.94928 0.47665 0.7755 0.0
H1222 H 0.00586 0.49172 0.76241 0.0
H1223 H 0.01737 0.50531 0.7959 0.0
H1224 H 0.96672 0.52574 0.83842 0.0
H1225 H 0.95357 0.54146 0.81979 0.0
H1226 H 0.99794 0.55821 0.78071 0.0
H1227 H 0.01131 0.54277 0.79973 0.0
H1228 H 0.98298 0.53771 0.8759 0.0
H1229 H 0.98707 0.56889 0.88876 0.0
H1230 H 0.03625 0.59984 0.8561 0.0
H1231 H 0.03214 0.56852 0.84357 0.0
H1232 H 0.98749 0.50905 0.89314 0.0
H1233 H 0.99266 0.52649 0.92472 0.0
H1234 H 0.05047 0.56824 0.91276 0.0
H1235 H 0.04454 0.55121 0.88058 0.0
H1236 H 0.98184 0.47064 0.87057 0.0
H1237 H 0.98653 0.44812 0.88863 0.0
H1238 H 0.04722 0.48792 0.8911 0.0
H1239 H 0.04238 0.51043 0.87265 0.0
O1240 O 0.95104 0.46705 0.74027 0.0
O1241 O 0.98037 0.47507 0.73431 0.0
O1242 O 0.00379 0.60626 0.89257 0.0
O1243 O 0.02907 0.62287 0.87594 0.0
C1244 C 0.00234 0.49677 0.83742 0.0
C1245 C 0.9971 0.50684 0.82515 0.0
C1246 C 0.99812 0.52423 0.83243 0.0
C1247 C 0.00532 0.53202 0.85165 0.0
C1248 C 0.0104 0.52181 0.86395 0.0
C1249 C 0.00863 0.50404 0.85693 0.0
C1250 C 0.9997 0.47768 0.83023 0.0
C1251 C 0.98135 0.46118 0.82708 0.0
C1252 C 0.97865 0.44316 0.82014 0.0
C1253 C 0.99427 0.44136 0.81604 0.0
C1254 C 0.0127 0.45791 0.8196 0.0
C1255 C 0.01538 0.47594 0.82671 0.0
C1256 C 0.99002 0.49878 0.8048 0.0
C1257 C 0.97082 0.49059 0.79882 0.0
C1258 C 0.96418 0.48286 0.77971 0.0
C1259 C 0.97664 0.48313 0.76627 0.0
C1260 C 0.99589 0.4913 0.77238 0.0
C1261 C 0.0025 0.49906 0.79149 0.0
C1262 C 0.99012 0.53338 0.82057 0.0
C1263 C 0.97367 0.53291 0.8259 0.0
C1264 C 0.96614 0.5418 0.81524 0.0
C1265 C 0.97476 0.55104 0.79885 0.0
C1266 C 0.99094 0.55102 0.79319 0.0
C1267 C 0.99863 0.54233 0.80406 0.0
C1268 C 0.00739 0.5509 0.85898 0.0
C1269 C 0.99469 0.55125 0.87164 0.0
C1270 C 0.99702 0.56907 0.87891 0.0
C1271 C 0.01204 0.58688 0.87351 0.0
C1272 C 0.02457 0.58641 0.86059 0.0
C1273 C 0.02225 0.56856 0.85339 0.0
C1274 C 0.0156 0.52897 0.88462 0.0
C1275 C 0.00144 0.52162 0.89762 0.0
C1276 C 0.00449 0.53167 0.91574 0.0
C1277 C 0.02192 0.54909 0.92129 0.0
C1278 C 0.03669 0.55526 0.90881 0.0
C1279 C 0.03347 0.54538 0.89052 0.0
C1280 C 0.01177 0.49204 0.87018 0.0
C1281 C 0.99615 0.47459 0.87514 0.0
C1282 C 0.99885 0.46171 0.88533 0.0
C1283 C 0.01725 0.46616 0.89096 0.0
C1284 C 0.03291 0.48415 0.88687 0.0
C1285 C 0.03018 0.497 0.87642 0.0
C1286 C 0.96954 0.47487 0.74598 0.0
C1287 C 0.01465 0.60586 0.88128 0.0
H1288 H 0.47059 0.50977 0.70723 0.0
H1289 H 0.63336 0.62711 0.858 0.0
H1290 H 0.46115 0.52336 0.80637 0.0
H1291 H 0.43111 0.49363 0.79427 0.0
H1292 H 0.44688 0.45881 0.82572 0.0
H1293 H 0.47708 0.48829 0.83706 0.0
H1294 H 0.49759 0.55216 0.78408 0.0
H1295 H 0.4866 0.53939 0.75033 0.0
H1296 H 0.48318 0.48537 0.7622 0.0
H1297 H 0.49439 0.49841 0.79584 0.0
H1298 H 0.53811 0.58555 0.80486 0.0
H1299 H 0.56412 0.60018 0.78364 0.0
H1300 H 0.56294 0.54555 0.7766 0.0
H1301 H 0.53679 0.53104 0.79762 0.0
H1302 H 0.54045 0.59338 0.85204 0.0
H1303 H 0.57312 0.62029 0.86057 0.0
H1304 H 0.59345 0.58205 0.84296 0.0
H1305 H 0.56072 0.55523 0.83473 0.0
H1306 H 0.50934 0.56771 0.88051 0.0
H1307 H 0.52315 0.5768 0.91399 0.0
H1308 H 0.55345 0.54695 0.90252 0.0
H1309 H 0.5401 0.53859 0.86915 0.0
H1310 H 0.46384 0.53051 0.85375 0.0
H1311 H 0.44041 0.51071 0.87626 0.0
H1312 H 0.47789 0.49255 0.8978 0.0
H1313 H 0.50061 0.51115 0.87455 0.0
O1314 O 0.47502 0.51458 0.72061 0.0
O1315 O 0.47338 0.48705 0.72751 0.0
O1316 O 0.60912 0.63571 0.86386 0.0
O1317 O 0.62031 0.6167 0.85484 0.0
C1318 C 0.49059 0.52537 0.82764 0.0
C1319 C 0.50309 0.53389 0.81294 0.0
C1320 C 0.52195 0.54934 0.81784 0.0
C1321 C 0.52837 0.55623 0.83739 0.0
C1322 C 0.51607 0.54739 0.85207 0.0
C1323 C 0.49705 0.5322 0.84725 0.0
C1324 C 0.47132 0.50798 0.82252 0.0
C1325 C 0.45797 0.50934 0.81084 0.0
C1326 C 0.44084 0.49243 0.80405 0.0
C1327 C 0.43671 0.47402 0.80919 0.0
C1328 C 0.4496 0.47287 0.82182 0.0
C1329 C 0.46686 0.48968 0.82826 0.0
C1330 C 0.49668 0.52617 0.79241 0.0
C1331 C 0.49452 0.5376 0.77933 0.0
C1332 C 0.48821 0.53026 0.76008 0.0
C1333 C 0.48396 0.51134 0.75357 0.0
C1334 C 0.48628 0.49998 0.76673 0.0
C1335 C 0.49265 0.50737 0.78596 0.0
C1336 C 0.53561 0.55727 0.80275 0.0
C1337 C 0.54326 0.57668 0.79842 0.0
C1338 C 0.55821 0.58502 0.78645 0.0
C1339 C 0.56574 0.57408 0.77862 0.0
C1340 C 0.55737 0.55432 0.78226 0.0
C1341 C 0.54243 0.546 0.79425 0.0
C1342 C 0.54825 0.57244 0.84263 0.0
C1343 C 0.55199 0.59086 0.85007 0.0
C1344 C 0.57066 0.60619 0.85491 0.0
C1345 C 0.58591 0.60333 0.85238 0.0
C1346 C 0.58206 0.58477 0.84503 0.0
C1347 C 0.56339 0.56945 0.84025 0.0
C1348 C 0.52388 0.55266 0.87246 0.0
C1349 C 0.51898 0.5632 0.88532 0.0
C1350 C 0.52679 0.56824 0.90443 0.0
C1351 C 0.5395 0.56269 0.91091 0.0
C1352 C 0.54405 0.55183 0.89794 0.0
C1353 C 0.53638 0.54696 0.87889 0.0
C1354 C 0.4841 0.52253 0.86265 0.0
C1355 C 0.46709 0.52246 0.8635 0.0
C1356 C 0.45377 0.51123 0.87632 0.0
C1357 C 0.45757 0.5004 0.88881 0.0
C1358 C 0.47487 0.50111 0.8885 0.0
C1359 C 0.4879 0.51184 0.87534 0.0
C1360 C 0.47714 0.50352 0.73314 0.0
C1361 C 0.60577 0.6196 0.8574 0.0
H1362 H 0.62948 0.83532 0.68597 0.0
H1363 H 0.6668 0.71439 0.54327 0.0
H1364 H 0.61348 0.82851 0.5832 0.0
H1365 H 0.6118 0.8572 0.59445 0.0
H1366 H 0.66689 0.89518 0.57393 0.0
H1367 H 0.66888 0.86663 0.56354 0.0
H1368 H 0.61819 0.79834 0.60756 0.0
H1369 H 0.61796 0.80883 0.64128 0.0
H1370 H 0.67153 0.86247 0.63689 0.0
H1371 H 0.67169 0.85169 0.60327 0.0
H1372 H 0.62296 0.76565 0.58933 0.0
H1373 H 0.63204 0.74649 0.60795 0.0
H1374 H 0.68909 0.79674 0.61807 0.0
H1375 H 0.67971 0.81585 0.59981 0.0
H1376 H 0.61858 0.76024 0.54204 0.0
H1377 H 0.61966 0.73055 0.53486 0.0
H1378 H 0.67862 0.76192 0.55665 0.0
H1379 H 0.67742 0.79158 0.56341 0.0
H1380 H 0.61836 0.79193 0.51395 0.0
H1381 H 0.61901 0.77817 0.48182 0.0
H1382 H 0.67665 0.79324 0.49618 0.0
H1383 H 0.67614 0.8079 0.52774 0.0
H1384 H 0.61562 0.82688 0.53249 0.0
H1385 H 0.61807 0.84892 0.50833 0.0
H1386 H 0.67787 0.86973 0.50657 0.0
H1387 H 0.67493 0.84708 0.5298 0.0
O1388 O 0.62992 0.8314 0.67265 0.0
O1389 O 0.65742 0.85877 0.66962 0.0
O1390 O 0.63588 0.71067 0.53411 0.0
O1391 O 0.66605 0.72599 0.54569 0.0
C1392 C 0.64317 0.82835 0.56753 0.0
C1393 C 0.64483 0.81796 0.58244 0.0
C1394 C 0.64688 0.80181 0.57779 0.0
C1395 C 0.64686 0.79574 0.55829 0.0
C1396 C 0.64588 0.8065 0.54348 0.0
C1397 C 0.64414 0.82288 0.54808 0.0
C1398 C 0.64126 0.84549 0.57247 0.0
C1399 C 0.62508 0.84302 0.58096 0.0
C1400 C 0.6241 0.85934 0.58729 0.0
C1401 C 0.63913 0.8783 0.58484 0.0
C1402 C 0.65496 0.88068 0.57563 0.0
C1403 C 0.65612 0.86441 0.5697 0.0
C1404 C 0.64492 0.82428 0.60298 0.0
C1405 C 0.6299 0.8123 0.61395 0.0
C1406 C 0.62978 0.81836 0.63318 0.0
C1407 C 0.6447 0.83652 0.64177 0.0
C1408 C 0.6598 0.84842 0.63072 0.0
C1409 C 0.65992 0.84232 0.61151 0.0
C1410 C 0.65072 0.79206 0.59315 0.0
C1411 C 0.63722 0.77267 0.59615 0.0
C1412 C 0.64252 0.76171 0.60658 0.0
C1413 C 0.66141 0.76998 0.61411 0.0
C1414 C 0.67443 0.78995 0.61251 0.0
C1415 C 0.66909 0.80091 0.60212 0.0
C1416 C 0.64787 0.77799 0.55336 0.0
C1417 C 0.63173 0.76068 0.54514 0.0
C1418 C 0.63239 0.74374 0.54111 0.0
C1419 C 0.64922 0.74384 0.54527 0.0
C1420 C 0.66542 0.76132 0.55332 0.0
C1421 C 0.66477 0.77826 0.55725 0.0
C1422 C 0.64712 0.80068 0.5232 0.0
C1423 C 0.63125 0.79265 0.50993 0.0
C1424 C 0.6316 0.78461 0.49167 0.0
C1425 C 0.64779 0.78429 0.48649 0.0
C1426 C 0.664 0.79334 0.49955 0.0
C1427 C 0.6637 0.80158 0.51768 0.0
C1428 C 0.64507 0.83532 0.53274 0.0
C1429 C 0.62914 0.83606 0.52661 0.0
C1430 C 0.63064 0.8488 0.51295 0.0
C1431 C 0.64816 0.86113 0.50536 0.0
C1432 C 0.66402 0.86017 0.51162 0.0
C1433 C 0.66243 0.84729 0.52501 0.0
C1434 C 0.64447 0.84296 0.66217 0.0
C1435 C 0.6499 0.72581 0.54131 0.0
H1436 H 0.17928 0.82633 0.70317 0.0
H1437 H 0.06153 0.67741 0.53311 0.0
H1438 H 0.18087 0.84043 0.60079 0.0
H1439 H 0.20789 0.87167 0.61429 0.0
H1440 H 0.24582 0.85192 0.59836 0.0
H1441 H 0.21835 0.82048 0.58441 0.0
H1442 H 0.15258 0.81186 0.62159 0.0
H1443 H 0.15996 0.81966 0.65647 0.0
H1444 H 0.20019 0.80058 0.65354 0.0
H1445 H 0.19251 0.79263 0.61865 0.0
H1446 H 0.12132 0.78671 0.59339 0.0
H1447 H 0.09496 0.77049 0.61383 0.0
H1448 H 0.11733 0.73566 0.63318 0.0
H1449 H 0.14383 0.75209 0.61247 0.0
H1450 H 0.11489 0.77441 0.55345 0.0
H1451 H 0.08491 0.7454 0.54034 0.0
H1452 H 0.10717 0.70876 0.55376 0.0
H1453 H 0.13712 0.73794 0.56668 0.0
H1454 H 0.14342 0.8033 0.53469 0.0
H1455 H 0.12989 0.79281 0.50136 0.0
H1456 H 0.1515 0.7538 0.49704 0.0
H1457 H 0.16384 0.76357 0.53083 0.0
H1458 H 0.18203 0.84088 0.56024 0.0
H1459 H 0.20188 0.86491 0.53868 0.0
H1460 H 0.218 0.82497 0.51452 0.0
H1461 H 0.19894 0.80144 0.53733 0.0
O1462 O 0.17649 0.82301 0.68938 0.0
O1463 O 0.19699 0.81302 0.68709 0.0
O1464 O 0.0625 0.70862 0.53149 0.0
O1465 O 0.07324 0.68912 0.53817 0.0
C1466 C 0.18083 0.80928 0.58387 0.0
C1467 C 0.16756 0.79689 0.59645 0.0
C1468 C 0.15004 0.78061 0.5888 0.0
C1469 C 0.14638 0.77581 0.56869 0.0
C1470 C 0.15968 0.78806 0.55611 0.0
C1471 C 0.17676 0.80503 0.56366 0.0
C1472 C 0.19766 0.82812 0.59195 0.0
C1473 C 0.19499 0.84277 0.60035 0.0
C1474 C 0.21046 0.86059 0.60809 0.0
C1475 C 0.22899 0.86415 0.6077 0.0
C1476 C 0.23171 0.84959 0.59887 0.0
C1477 C 0.2161 0.83165 0.59102 0.0
C1478 C 0.17182 0.80143 0.61766 0.0
C1479 C 0.16281 0.80916 0.62854 0.0
C1480 C 0.16714 0.8137 0.64845 0.0
C1481 C 0.18063 0.81069 0.65781 0.0
C1482 C 0.1897 0.80303 0.6468 0.0
C1483 C 0.18533 0.79846 0.62689 0.0
C1484 C 0.13438 0.7705 0.60148 0.0
C1485 C 0.12053 0.77559 0.60208 0.0
C1486 C 0.1056 0.76644 0.61386 0.0
C1487 C 0.10417 0.75191 0.62518 0.0
C1488 C 0.11807 0.74677 0.62453 0.0
C1489 C 0.13318 0.75611 0.6128 0.0
C1490 C 0.12818 0.75823 0.5608 0.0
C1491 C 0.11328 0.76011 0.55341 0.0
C1492 C 0.09617 0.74352 0.546 0.0
C1493 C 0.09366 0.72475 0.54596 0.0
C1494 C 0.10863 0.72298 0.55353 0.0
C1495 C 0.12575 0.73959 0.56092 0.0
C1496 C 0.1545 0.7841 0.53508 0.0
C1497 C 0.14542 0.79268 0.52638 0.0
C1498 C 0.13778 0.78671 0.50728 0.0
C1499 C 0.13937 0.77225 0.49645 0.0
C1500 C 0.14952 0.76457 0.50503 0.0
C1501 C 0.15682 0.77029 0.52425 0.0
C1502 C 0.18919 0.81951 0.55049 0.0
C1503 C 0.19011 0.83745 0.55053 0.0
C1504 C 0.20127 0.85106 0.53796 0.0
C1505 C 0.2114 0.84682 0.52463 0.0
C1506 C 0.21055 0.82881 0.5247 0.0
C1507 C 0.19956 0.81528 0.53758 0.0
C1508 C 0.18525 0.81561 0.67896 0.0
C1509 C 0.07551 0.70707 0.53809 0.0
H1510 H 0.20257 0.34851 0.70558 0.0
H1511 H 0.05797 0.33194 0.53754 0.0
H1512 H 0.22052 0.368 0.59061 0.0
H1513 H 0.24497 0.36257 0.60395 0.0
H1514 H 0.20153 0.30337 0.61349 0.0
H1515 H 0.17762 0.30854 0.59875 0.0
H1516 H 0.19711 0.36858 0.62733 0.0
H1517 H 0.20394 0.36575 0.661 0.0
H1518 H 0.15618 0.30609 0.6559 0.0
H1519 H 0.14966 0.30904 0.62215 0.0
H1520 H 0.1527 0.36557 0.62557 0.0
H1521 H 0.12701 0.35797 0.64682 0.0
H1522 H 0.09398 0.29966 0.61748 0.0
H1523 H 0.11963 0.30739 0.59641 0.0
H1524 H 0.14253 0.37325 0.58673 0.0
H1525 H 0.11433 0.37423 0.57697 0.0
H1526 H 0.09095 0.31806 0.54381 0.0
H1527 H 0.11912 0.31717 0.55389 0.0
H1528 H 0.16163 0.37663 0.54721 0.0
H1529 H 0.14704 0.37455 0.51522 0.0
H1530 H 0.14089 0.31814 0.50122 0.0
H1531 H 0.15452 0.3199 0.53339 0.0
H1532 H 0.20472 0.37998 0.55473 0.0
H1533 H 0.22642 0.38461 0.52977 0.0
H1534 H 0.20595 0.32257 0.52562 0.0
H1535 H 0.18498 0.3184 0.55126 0.0
O1536 O 0.19959 0.3493 0.69224 0.0
O1537 O 0.17482 0.31874 0.68892 0.0
O1538 O 0.08184 0.36068 0.55905 0.0
O1539 O 0.06923 0.33188 0.5417 0.0
C1540 C 0.18199 0.34246 0.58813 0.0
C1541 C 0.16909 0.34093 0.60181 0.0
C1542 C 0.15293 0.34157 0.59604 0.0
C1543 C 0.15009 0.34477 0.57686 0.0
C1544 C 0.16337 0.34717 0.56331 0.0
C1545 C 0.17939 0.34611 0.569 0.0
C1546 C 0.19726 0.33872 0.59383 0.0
C1547 C 0.21641 0.35372 0.59511 0.0
C1548 C 0.23033 0.35063 0.60305 0.0
C1549 C 0.22531 0.33259 0.61019 0.0
C1550 C 0.20613 0.31738 0.60803 0.0
C1551 C 0.19234 0.32036 0.59974 0.0
C1552 C 0.1728 0.33909 0.62236 0.0
C1553 C 0.18812 0.35493 0.63353 0.0
C1554 C 0.19199 0.35327 0.65276 0.0
C1555 C 0.18057 0.33571 0.66117 0.0
C1556 C 0.16521 0.31984 0.64989 0.0
C1557 C 0.16139 0.32151 0.63065 0.0
C1558 C 0.13795 0.33702 0.6095 0.0
C1559 C 0.13994 0.35115 0.62387 0.0
C1560 C 0.12527 0.34681 0.6359 0.0
C1561 C 0.10852 0.3282 0.63381 0.0
C1562 C 0.10679 0.31402 0.61958 0.0
C1563 C 0.12135 0.31843 0.60749 0.0
C1564 C 0.13288 0.34519 0.57095 0.0
C1565 C 0.13126 0.36115 0.57741 0.0
C1566 C 0.11517 0.36169 0.57178 0.0
C1567 C 0.10039 0.34623 0.55957 0.0
C1568 C 0.10206 0.33021 0.5532 0.0
C1569 C 0.11814 0.32967 0.55889 0.0
C1570 C 0.15904 0.34836 0.5427 0.0
C1571 C 0.1575 0.36404 0.53704 0.0
C1572 C 0.14922 0.36285 0.51874 0.0
C1573 C 0.14248 0.34601 0.5058 0.0
C1574 C 0.14555 0.33112 0.511 0.0
C1575 C 0.15361 0.33223 0.5293 0.0
C1576 C 0.19335 0.34888 0.55479 0.0
C1577 C 0.20515 0.36747 0.54856 0.0
C1578 C 0.2174 0.37002 0.53416 0.0
C1579 C 0.21789 0.35394 0.5255 0.0
C1580 C 0.20622 0.33536 0.5321 0.0
C1581 C 0.19414 0.33289 0.54669 0.0
C1582 C 0.18475 0.33399 0.68159 0.0
C1583 C 0.0833 0.34677 0.55347 0.0
H1584 H 0.96335 0.37852 0.03879 0.0
H1585 H 0.02047 0.44576 0.13551 0.0
H1586 H 0.0181 0.38954 0.05987 0.0
H1587 H 0.97104 0.44328 0.10944 0.0
H1588 H 0.01941 0.42467 0.10817 0.0
H1589 H 0.96525 0.40128 0.06507 0.0
C1590 C 0.97576 0.38568 0.04894 0.0
C1591 C 0.99058 0.38206 0.0471 0.0
C1592 C 0.00887 0.42884 0.10833 0.0
C1593 C 0.99282 0.40816 0.07721 0.0
C1594 C 0.00955 0.44105 0.12389 0.0
C1595 C 0.9959 0.44647 0.12473 0.0
C1596 C 0.99432 0.42178 0.09353 0.0
C1597 C 0.98176 0.43937 0.10948 0.0
C1598 C 0.97686 0.39874 0.0639 0.0
C1599 C 0.00634 0.39186 0.06067 0.0
N1600 N 0.9813 0.42734 0.09452 0.0
N1601 N 0.00701 0.40441 0.07516 0.0
H1602 H 0.61251 0.61723 0.13859 0.0
H1603 H 0.5636 0.50371 0.15083 0.0
H1604 H 0.61706 0.57726 0.09785 0.0
H1605 H 0.56688 0.54638 0.19431 0.0
H1606 H 0.58628 0.53052 0.13283 0.0
H1607 H 0.59918 0.59194 0.16086 0.0
C1608 C 0.61092 0.60316 0.13445 0.0
C1609 C 0.61564 0.59923 0.11627 0.0
C1610 C 0.58222 0.53399 0.14644 0.0
C1611 C 0.60002 0.56998 0.14157 0.0
C1612 C 0.56932 0.51871 0.15672 0.0
C1613 C 0.56308 0.52287 0.17387 0.0
C1614 C 0.58884 0.55349 0.15339 0.0
C1615 C 0.57093 0.54254 0.18088 0.0
C1616 C 0.60331 0.5887 0.14718 0.0
C1617 C 0.61352 0.58085 0.11173 0.0
N1618 N 0.58321 0.55708 0.17052 0.0
N1619 N 0.60551 0.56674 0.12417 0.0
H1620 H 0.40845 0.01746 0.07387 0.0
H1621 H 0.46293 0.97521 0.13166 0.0
H1622 H 0.40577 0.96323 0.05728 0.0
H1623 H 0.45677 0.02227 0.15611 0.0
H1624 H 0.44721 0.97506 0.10134 0.0
H1625 H 0.43105 0.02359 0.10125 0.0
C1626 C 0.41279 0.007 0.07583 0.0
C1627 C 0.40504 0.98969 0.06343 0.0
C1628 C 0.44942 0.98555 0.11326 0.0
C1629 C 0.43083 0.99662 0.09448 0.0
C1630 C 0.45838 0.98562 0.13058 0.0
C1631 C 0.46091 0.99857 0.14652 0.0
C1632 C 0.44281 0.99846 0.1118 0.0
C1633 C 0.4551 0.01204 0.14417 0.0
C1634 C 0.42561 0.01046 0.09146 0.0
C1635 C 0.41114 0.97662 0.06663 0.0
N1636 N 0.44609 0.01148 0.12719 0.0
N1637 N 0.42357 0.98032 0.08182 0.0
H1638 H 0.40753 0.01273 0.97603 0.0
H1639 H 0.42444 0.9627 0.88218 0.0
H1640 H 0.37678 0.95002 0.96187 0.0
H1641 H 0.46509 0.02111 0.90796 0.0
H1642 H 0.40424 0.95846 0.90864 0.0
H1643 H 0.42586 0.01675 0.94813 0.0
C1644 C 0.40452 -0.00022 0.96701 0.0
C1645 C 0.39062 0.98097 0.97143 0.0
C1646 C 0.41757 0.9722 0.90841 0.0
C1647 C 0.41165 0.98556 0.93934 0.0
C1648 C 0.42918 0.97463 0.89336 0.0
C1649 C 0.44658 0.99231 0.89274 0.0
C1650 C 0.42329 0.98762 0.92287 0.0
C1651 C 0.4517 0.00735 0.90752 0.0
C1652 C 0.41508 0.00211 0.9511 0.0
C1653 C 0.38742 0.96478 0.95912 0.0
N1654 N 0.44012 0.00465 0.92192 0.0
N1655 N 0.39787 0.96745 0.94363 0.0
H1656 H 0.03317 0.40328 0.97831 0.0
H1657 H 0.00065 0.42727 0.87984 0.0
H1658 H 0.9886 0.36045 0.93694 0.0
H1659 H 0.03962 0.47197 0.9238 0.0
H1660 H 0.00155 0.40252 0.89768 0.0
H1661 H 0.04119 0.42826 0.95564 0.0
C1662 C 0.02541 0.39903 0.96427 0.0
C1663 C 0.01003 0.37985 0.95957 0.0
C1664 C 0.01006 0.41774 0.9034 0.0
C1665 C 0.01898 0.40825 0.93376 0.0
C1666 C 0.00949 0.43186 0.89324 0.0
C1667 C 0.01977 0.45161 0.90059 0.0
C1668 C 0.02086 0.42334 0.92117 0.0
C1669 C 0.03138 0.45684 0.91775 0.0
C1670 C 0.0299 0.41331 0.95142 0.0
C1671 C 0.00038 0.37513 0.94125 0.0
N1672 N 0.03139 0.44273 0.92765 0.0
N1673 N 0.00489 0.38926 0.92912 0.0
H1674 H 0.61722 0.59903 0.01233 0.0
H1675 H 0.52321 0.56404 0.94434 0.0
H1676 H 0.57005 0.60339 0.03091 0.0
H1677 H 0.576 0.57451 0.92329 0.0
H1678 H 0.53841 0.57405 0.97717 0.0
H1679 H 0.60015 0.58481 0.98068 0.0
C1680 C 0.60319 0.59679 0.00985 0.0
C1681 C 0.59513 0.60259 0.02426 0.0
C1682 C 0.54661 0.57407 0.96533 0.0
C1683 C 0.57559 0.58642 0.98803 0.0
C1684 C 0.53799 0.56849 0.94658 0.0
C1685 C 0.54833 0.56845 0.93099 0.0
C1686 C 0.56567 0.57955 0.96852 0.0
C1687 C 0.56736 0.57401 0.93485 0.0
C1688 C 0.5935 0.58878 0.99174 0.0
C1689 C 0.5769 0.59933 0.02018 0.0
N1690 N 0.5754 0.57934 0.9532 0.0
N1691 N 0.56778 0.59154 0.00241 0.0
H1692 H 0.04926 0.64505 0.00765 0.0
H1693 H 0.00571 0.53799 0.95589 0.0
H1694 H 0.99157 0.59909 0.01391 0.0
H1695 H 0.0422 0.58936 0.92687 0.0
H1696 H 0.0054 0.55929 0.98242 0.0
H1697 H 0.0517 0.6236 0.98265 0.0
C1698 C 0.03715 0.63044 0.00378 0.0
C1699 C 0.02014 0.62383 0.01271 0.0
C1700 C 0.01359 0.56578 0.97026 0.0
C1701 C 0.02304 0.59925 0.98468 0.0
C1702 C 0.01375 0.55368 0.95506 0.0
C1703 C 0.02384 0.56177 0.93888 0.0
C1704 C 0.02393 0.58613 0.96952 0.0
C1705 C 0.03443 0.58232 0.93905 0.0
C1706 C 0.03856 0.61828 0.98957 0.0
C1707 C 0.00486 0.60479 0.0072 0.0
N1708 N 0.03418 0.59379 0.95411 0.0
N1709 N 0.00671 0.59307 0.99362 0.0
H1710 H 0.38538 0.39019 0.92729 0.0
H1711 H 0.45942 0.50096 0.92802 0.0
H1712 H 0.3959 0.42888 0.9783 0.0
H1713 H 0.42313 0.46862 0.87669 0.0
H1714 H 0.43718 0.47497 0.94718 0.0
H1715 H 0.39976 0.41852 0.90832 0.0
C1716 C 0.39049 0.40465 0.93441 0.0
C1717 C 0.38957 0.4073 0.95435 0.0
C1718 C 0.43389 0.47379 0.93179 0.0
C1719 C 0.40636 0.43966 0.93292 0.0
C1720 C 0.44654 0.48854 0.92091 0.0
C1721 C 0.44295 0.48681 0.90087 0.0
C1722 C 0.41793 0.45701 0.92239 0.0
C1723 C 0.42623 0.47045 0.89218 0.0
C1724 C 0.3986 0.42076 0.9236 0.0
C1725 C 0.39633 0.42629 0.96293 0.0
N1726 N 0.41448 0.45593 0.90295 0.0
N1727 N 0.40485 0.44186 0.95222 0.0
H1728 H 0.59344 0.98347 0.99354 0.0
H1729 H 0.52034 0.00289 0.93576 0.0
H1730 H 0.58237 0.02906 0.01078 0.0
H1731 H 0.54823 0.97564 0.90853 0.0
H1732 H 0.53618 0.00479 0.96677 0.0
H1733 H 0.57005 0.9729 0.96572 0.0
C1734 C 0.5858 0.99096 0.99169 0.0
C1735 C 0.58993 0.00726 0.00431 0.0
C1736 C 0.53861 0.99816 0.95402 0.0
C1737 C 0.56326 0.99526 0.97282 0.0
C1738 C 0.52965 0.99714 0.9363 0.0
C1739 C 0.53322 0.98944 0.91939 0.0
C1740 C 0.55116 0.99132 0.95494 0.0
C1741 C 0.54501 0.98169 0.92113 0.0
C1742 C 0.57258 0.98501 0.97581 0.0
C1743 C 0.57974 0.01656 0.00124 0.0
N1744 N 0.55373 0.98302 0.93856 0.0
N1745 N 0.56694 0.01048 0.98578 0.0
H1746 H 0.61556 0.05463 0.09904 0.0
H1747 H 0.55131 0.97823 0.17279 0.0
H1748 H 0.60441 0.99563 0.09823 0.0
H1749 H 0.56119 0.03667 0.17297 0.0
H1750 H 0.5727 0.98525 0.14701 0.0
H1751 H 0.5979 0.04931 0.12778 0.0
C1752 C 0.60954 0.04061 0.10495 0.0
C1753 C 0.61138 0.02551 0.09604 0.0
C1754 C 0.57029 0.99659 0.15275 0.0
C1755 C 0.59103 0.01931 0.12896 0.0
C1756 C 0.55799 0.99255 0.16741 0.0
C1757 C 0.55433 0.00683 0.17497 0.0
C1758 C 0.57897 0.01503 0.14549 0.0
C1759 C 0.56369 0.02526 0.16769 0.0
C1760 C 0.59942 0.03758 0.12137 0.0
C1761 C 0.60328 0.00767 0.10447 0.0
N1762 N 0.57547 0.02878 0.15327 0.0
N1763 N 0.59339 0.00505 0.12035 0.0
H1764 H 0.01382 0.64088 0.12152 0.0
H1765 H 0.95845 0.52691 0.13767 0.0
H1766 H 0.97184 0.59631 0.07929 0.0
H1767 H 0.00809 0.57228 0.17204 0.0
H1768 H 0.95821 0.55216 0.11943 0.0
H1769 H 0.00622 0.61607 0.14382 0.0
C1770 C 0.00275 0.62587 0.11706 0.0
C1771 C 0.99366 0.62058 0.09842 0.0
C1772 C 0.96902 0.55655 0.13109 0.0
C1773 C 0.98513 0.59194 0.12379 0.0
C1774 C 0.96914 0.5422 0.14147 0.0
C1775 C 0.98351 0.54758 0.15611 0.0
C1776 C 0.98321 0.57634 0.13564 0.0
C1777 C 0.997 0.56752 0.16059 0.0
C1778 C 0.99846 0.61168 0.12978 0.0
C1779 C 0.97924 0.60097 0.09351 0.0
N1780 N 0.99657 0.58113 0.15036 0.0
N1781 N 0.97564 0.58723 0.10602 0.0
H1782 H 0.40533 0.41164 0.04398 0.0
H1783 H 0.45476 0.3931 0.13113 0.0
H1784 H 0.4174 0.36528 0.03847 0.0
H1785 H 0.47157 0.45194 0.11886 0.0
H1786 H 0.43799 0.38094 0.09914 0.0
H1787 H 0.42596 0.425 0.07397 0.0
C1788 C 0.41231 0.40427 0.0491 0.0
C1789 C 0.40968 0.38735 0.03877 0.0
C1790 C 0.44551 0.39652 0.10348 0.0
C1791 C 0.433 0.40236 0.07304 0.0
C1792 C 0.45525 0.40356 0.1217 0.0
C1793 C 0.46457 0.42365 0.12793 0.0
C1794 C 0.44471 0.40957 0.09156 0.0
C1795 C 0.46421 0.4363 0.11503 0.0
C1796 C 0.42414 0.41196 0.0661 0.0
C1797 C 0.41913 0.37842 0.04598 0.0
N1798 N 0.45421 0.42902 0.09758 0.0
N1799 N 0.43022 0.38591 0.06283 0.0
H1800 H 0.67806 0.73406 0.39056 0.0
H1801 H 0.61811 0.74953 0.4695 0.0
H1802 H 0.61686 0.69992 0.38917 0.0
H1803 H 0.67641 0.79344 0.46221 0.0
H1804 H 0.61797 0.73035 0.44095 0.0
H1805 H 0.67848 0.75496 0.4181 0.0
C1806 C 0.66474 0.73093 0.39603 0.0
C1807 C 0.6474 0.71519 0.38752 0.0
C1808 C 0.63077 0.74424 0.44551 0.0
C1809 C 0.64781 0.73898 0.41894 0.0
C1810 C 0.63082 0.75533 0.46175 0.0
C1811 C 0.64728 0.77323 0.4683 0.0
C1812 C 0.64735 0.75092 0.43578 0.0
C1813 C 0.66346 0.77962 0.45787 0.0
C1814 C 0.66499 0.74291 0.41167 0.0
C1815 C 0.63057 0.71189 0.39518 0.0
N1816 N 0.66313 0.76842 0.44218 0.0
N1817 N 0.63122 0.72362 0.41047 0.0
H1818 H 0.25379 0.9447 0.45729 0.0
H1819 H 0.24575 0.85616 0.51045 0.0
H1820 H 0.28353 0.91631 0.43775 0.0
H1821 H 0.2016 0.86973 0.50608 0.0
H1822 H 0.26343 0.8807 0.48783 0.0
H1823 H 0.23914 0.92079 0.48051 0.0
C1824 C 0.25738 0.93351 0.45791 0.0
C1825 C 0.26977 0.93241 0.44526 0.0
C1826 C 0.24986 0.87821 0.49191 0.0
C1827 C 0.25283 0.90481 0.47206 0.0
C1828 C 0.23972 0.86417 0.50473 0.0
C1829 C 0.22223 0.86102 0.51045 0.0
C1830 C 0.24255 0.88927 0.48504 0.0
C1831 C 0.21522 0.87198 0.50263 0.0
C1832 C 0.2489 0.91979 0.47118 0.0
C1833 C 0.27396 0.91763 0.44709 0.0
N1834 N 0.22545 0.88566 0.49049 0.0
N1835 N 0.26543 0.9043 0.46022 0.0
H1836 H 0.08896 0.35542 0.39975 0.0
H1837 H 0.11002 0.31248 0.49182 0.0
H1838 H 0.05636 0.2952 0.41306 0.0
H1839 H 0.14712 0.37237 0.47944 0.0
H1840 H 0.09001 0.30686 0.463 0.0
H1841 H 0.11017 0.36295 0.42887 0.0
C1842 C 0.08623 0.34381 0.40873 0.0
C1843 C 0.07085 0.32462 0.40383 0.0
C1844 C 0.10255 0.32125 0.46642 0.0
C1845 C 0.09495 0.33314 0.43705 0.0
C1846 C 0.11413 0.32443 0.48287 0.0
C1847 C 0.13051 0.34284 0.48792 0.0
C1848 C 0.10721 0.33658 0.45477 0.0
C1849 C 0.13464 0.35793 0.47605 0.0
C1850 C 0.09835 0.34812 0.42532 0.0
C1851 C 0.06802 0.31019 0.41605 0.0
N1852 N 0.12309 0.35446 0.45996 0.0
N1853 N 0.0799 0.31476 0.43198 0.0
H1854 H 0.08001 0.34301 0.31024 0.0
H1855 H 0.08662 0.28244 0.21819 0.0
H1856 H 0.0455 0.27995 0.30005 0.0
H1857 H 0.12965 0.34246 0.23685 0.0
H1858 H 0.06933 0.28188 0.24621 0.0
H1859 H 0.09623 0.34371 0.28133 0.0
C1860 C 0.07579 0.3293 0.30192 0.0
C1861 C 0.06139 0.31138 0.30767 0.0
C1862 C 0.08254 0.29518 0.24411 0.0
C1863 C 0.0799 0.31212 0.27446 0.0
C1864 C 0.09247 0.2955 0.22815 0.0
C1865 C 0.10968 0.31252 0.22509 0.0
C1866 C 0.08977 0.31203 0.25708 0.0
C1867 C 0.11632 0.32909 0.23837 0.0
C1868 C 0.0851 0.32972 0.28543 0.0
C1869 C 0.05658 0.29411 0.29627 0.0
N1870 N 0.10637 0.32842 0.25376 0.0
N1871 N 0.06579 0.29491 0.2802 0.0
H1872 H 0.69158 0.72935 0.30572 0.0
H1873 H 0.65704 0.78307 0.23842 0.0
H1874 H 0.63312 0.70598 0.28553 0.0
H1875 H 0.71406 0.79425 0.23752 0.0
H1876 H 0.64922 0.75698 0.25901 0.0
H1877 H 0.70131 0.75497 0.2834 0.0
C1878 C 0.68081 0.72944 0.29652 0.0
C1879 C 0.66146 0.71552 0.29768 0.0
C1880 C 0.66344 0.76505 0.25425 0.0
C1881 C 0.6725 0.74488 0.27247 0.0
C1882 C 0.66792 0.77994 0.24238 0.0
C1883 C 0.68617 0.79071 0.23585 0.0
C1884 C 0.67732 0.76092 0.26 0.0
C1885 C 0.69982 0.78637 0.2422 0.0
C1886 C 0.68639 0.74407 0.28382 0.0
C1887 C 0.64818 0.7164 0.28534 0.0
N1888 N 0.69512 0.77178 0.25396 0.0
N1889 N 0.65393 0.7309 0.27346 0.0
H1890 H 0.27817 0.92778 0.34151 0.0
H1891 H 0.18372 0.88803 0.27265 0.0
H1892 H 0.23062 0.93258 0.35768 0.0
H1893 H 0.23727 0.90058 0.25189 0.0
H1894 H 0.19876 0.89849 0.30548 0.0
H1895 H 0.26106 0.91142 0.3102 0.0
C1896 C 0.26404 0.92516 0.33859 0.0
C1897 C 0.25588 0.93173 0.35214 0.0
C1898 C 0.20715 0.89882 0.29372 0.0
C1899 C 0.23632 0.9131 0.31643 0.0
C1900 C 0.19862 0.89298 0.27496 0.0
C1901 C 0.20927 0.89358 0.25942 0.0
C1902 C 0.22643 0.9052 0.297 0.0
C1903 C 0.22842 0.89967 0.2634 0.0
C1904 C 0.25435 0.91593 0.32069 0.0
C1905 C 0.23755 0.92798 0.34757 0.0
N1906 N 0.23641 0.90531 0.28179 0.0
N1907 N 0.22841 0.91898 0.33006 0.0
H1908 H 0.65649 0.9355 0.33436 0.0
H1909 H 0.72227 0.902 0.2842 0.0
H1910 H 0.71541 0.95903 0.35272 0.0
H1911 H 0.66634 0.88518 0.26063 0.0
H1912 H 0.71847 0.91966 0.31191 0.0
H1913 H 0.65845 0.9138 0.30951 0.0
C1914 C 0.66982 0.93609 0.33322 0.0
C1915 C 0.68585 0.94924 0.34557 0.0
C1916 C 0.70697 0.91195 0.30075 0.0
C1917 C 0.68814 0.92438 0.31723 0.0
C1918 C 0.70914 0.90188 0.28494 0.0
C1919 C 0.69464 0.89216 0.27004 0.0
C1920 C 0.6902 0.91233 0.30165 0.0
C1921 C 0.67781 0.89227 0.27187 0.0
C1922 C 0.67092 0.92369 0.31903 0.0
C1923 C 0.70272 0.94929 0.34343 0.0
N1924 N 0.67611 0.90232 0.28731 0.0
N1925 N 0.70342 0.93709 0.32951 0.0
H1926 H 0.05904 0.75375 0.30703 0.0
H1927 H 0.11302 0.78038 0.20982 0.0
H1928 H 0.07248 0.71601 0.27331 0.0
H1929 H 0.10735 0.82241 0.24618 0.0
H1930 H 0.09421 0.75529 0.23104 0.0
H1931 H 0.07271 0.77771 0.28303 0.0
C1932 C 0.06466 0.7504 0.29451 0.0
C1933 C 0.0648 0.73293 0.2923 0.0
C1934 C 0.09699 0.76997 0.23441 0.0
C1935 C 0.08039 0.76019 0.26488 0.0
C1936 C 0.10782 0.78433 0.22233 0.0
C1937 C 0.11203 0.80359 0.22643 0.0
C1938 C 0.09031 0.77483 0.25084 0.0
C1939 C 0.10446 0.80774 0.24254 0.0
C1940 C 0.07251 0.76411 0.28087 0.0
C1941 C 0.07227 0.72937 0.27579 0.0
N1942 N 0.0941 0.79351 0.25429 0.0
N1943 N 0.0798 0.74288 0.26281 0.0
H1944 H 0.25165 0.3151 0.33708 0.0
H1945 H 0.22463 0.35428 0.24604 0.0
H1946 H 0.27936 0.37577 0.32514 0.0
H1947 H 0.1905 0.29423 0.25939 0.0
H1948 H 0.24478 0.36171 0.27521 0.0
H1949 H 0.22916 0.30642 0.30891 0.0
C1950 C 0.25299 0.32659 0.32863 0.0
C1951 C 0.2675 0.34621 0.33352 0.0
C1952 C 0.23282 0.3469 0.27192 0.0
C1953 C 0.24191 0.33637 0.30135 0.0
C1954 C 0.22114 0.34267 0.25528 0.0
C1955 C 0.2056 0.32364 0.25034 0.0
C1956 C 0.22919 0.33201 0.28381 0.0
C1957 C 0.20233 0.3091 0.26262 0.0
C1958 C 0.24015 0.32162 0.31258 0.0
C1959 C 0.26852 0.36045 0.32202 0.0
N1960 N 0.21406 0.31358 0.27882 0.0
N1961 N 0.25597 0.35523 0.30653 0.0
H1962 H 0.2767 0.33363 0.43526 0.0
H1963 H 0.22607 0.37822 0.49641 0.0
H1964 H 0.28315 0.38943 0.42579 0.0
H1965 H 0.23726 0.3352 0.51716 0.0
H1966 H 0.24516 0.38134 0.46934 0.0
H1967 H 0.26017 0.33251 0.46404 0.0
C1968 C 0.27467 0.34567 0.43924 0.0
C1969 C 0.28128 0.36163 0.42804 0.0
C1970 C 0.24351 0.37131 0.47989 0.0
C1971 C 0.26225 0.36035 0.46094 0.0
C1972 C 0.23269 0.36958 0.49546 0.0
C1973 C 0.22999 0.35641 0.50921 0.0
C1974 C 0.25151 0.35961 0.47783 0.0
C1975 C 0.23861 0.34529 0.50681 0.0
C1976 C 0.2653 0.34505 0.45572 0.0
C1977 C 0.27834 0.37687 0.434 0.0
N1978 N 0.24887 0.34706 0.49137 0.0
N1979 N 0.26889 0.37577 0.44996 0.0
H1980 H 0.64069 0.94129 0.43049 0.0
H1981 H 0.67086 0.87253 0.47504 0.0
H1982 H 0.69881 0.95551 0.43566 0.0
H1983 H 0.6301 0.88205 0.50327 0.0
H1984 H 0.67676 0.89821 0.45438 0.0
H1985 H 0.63236 0.9152 0.45211 0.0
C1986 C 0.65169 0.93906 0.43626 0.0
C1987 C 0.67049 0.95065 0.43129 0.0
C1988 C 0.66648 0.89459 0.46509 0.0
C1989 C 0.66095 0.92069 0.45533 0.0
C1990 C 0.66316 0.88001 0.477 0.0
C1991 C 0.65025 0.87531 0.49131 0.0
C1992 C 0.65656 0.90435 0.46709 0.0
C1993 C 0.64015 0.88507 0.49246 0.0
C1994 C 0.64692 0.92423 0.44855 0.0
C1995 C 0.68417 0.94709 0.43915 0.0
N1996 N 0.64354 0.89918 0.4805 0.0
N1997 N 0.67908 0.93229 0.45054 0.0
H1998 H 0.07254 0.74796 0.38797 0.0
H1999 H 0.12232 0.73446 0.47982 0.0
H2000 H 0.08754 0.70376 0.38863 0.0
H2001 H 0.13325 0.79165 0.46832 0.0
H2002 H 0.10551 0.72138 0.4481 0.0
H2003 H 0.09069 0.76272 0.41938 0.0
C2004 C 0.07962 0.74138 0.39469 0.0
C2005 C 0.07857 0.72464 0.38565 0.0
C2006 C 0.11168 0.73682 0.45251 0.0
C2007 C 0.099 0.74121 0.42145 0.0
C2008 C 0.12146 0.74439 0.47059 0.0
C2009 C 0.12949 0.76431 0.47682 0.0
C2010 C 0.10952 0.7491 0.4406 0.0
C2011 C 0.12717 0.77618 0.46431 0.0
C2012 C 0.09001 0.74984 0.41251 0.0
C2013 C 0.08805 0.71673 0.39498 0.0
N2014 N 0.1173 0.76836 0.44681 0.0
N2015 N 0.09772 0.72498 0.41241 0.0
H2016 H 0.29106 0.04304 0.71807 0.0
H2017 H 0.34845 0.13205 0.7995 0.0
H2018 H 0.35224 0.07505 0.72676 0.0
H2019 H 0.28936 0.08717 0.80102 0.0
H2020 H 0.34987 0.11466 0.77005 0.0
H2021 H 0.29009 0.06273 0.74553 0.0
C2022 C 0.30433 0.05427 0.72567 0.0
C2023 C 0.32178 0.0573 0.72011 0.0
C2024 C 0.33661 0.10872 0.77684 0.0
C2025 C 0.32068 0.07996 0.75166 0.0
C2026 C 0.33577 0.11858 0.79368 0.0
C2027 C 0.31876 0.11105 0.80288 0.0
C2028 C 0.32029 0.09134 0.76901 0.0
C2029 C 0.30271 0.09374 0.79437 0.0
C2030 C 0.30373 0.06548 0.74141 0.0
C2031 C 0.33847 0.07212 0.73059 0.0
N2032 N 0.30389 0.08449 0.77796 0.0
N2033 N 0.33751 0.08292 0.7459 0.0
H2034 H 0.94638 0.23953 0.75867 0.0
H2035 H 0.9067 0.21575 0.86297 0.0
H2036 H 0.94023 0.27949 0.79782 0.0
H2037 H 0.89277 0.17073 0.81689 0.0
H2038 H 0.92712 0.24049 0.84207 0.0
H2039 H 0.93465 0.21555 0.78284 0.0
C2040 C 0.94293 0.24339 0.77248 0.0
C2041 C 0.94403 0.26138 0.77622 0.0
C2042 C 0.91975 0.22518 0.8366 0.0
C2043 C 0.93083 0.23426 0.80377 0.0
C2044 C 0.90804 0.21105 0.84848 0.0
C2045 C 0.89765 0.19117 0.84151 0.0
C2046 C 0.92121 0.21943 0.81761 0.0
C2047 C 0.90043 0.18589 0.82282 0.0
C2048 C 0.93617 0.2297 0.78618 0.0
C2049 C 0.93933 0.26566 0.79429 0.0
N2050 N 0.91178 0.19998 0.8114 0.0
N2051 N 0.93287 0.25217 0.80735 0.0
H2052 H 0.74367 0.68437 0.73235 0.0
H2053 H 0.79842 0.65142 0.80291 0.0
H2054 H 0.73938 0.62823 0.72663 0.0
H2055 H 0.79496 0.70266 0.81668 0.0
H2056 H 0.78168 0.6462 0.77157 0.0
H2057 H 0.76698 0.69451 0.76012 0.0
C2058 C 0.74779 0.67428 0.73677 0.0
C2059 C 0.73941 0.65534 0.7273 0.0
C2060 C 0.78469 0.65869 0.78134 0.0
C2061 C 0.76602 0.66684 0.75885 0.0
C2062 C 0.79424 0.66166 0.79924 0.0
C2063 C 0.79781 0.67731 0.81251 0.0
C2064 C 0.77853 0.6714 0.77662 0.0
C2065 C 0.79244 0.69039 0.80686 0.0
C2066 C 0.76103 0.68005 0.75263 0.0
C2067 C 0.74525 0.64287 0.73364 0.0
N2068 N 0.78283 0.68701 0.7894 0.0
N2069 N 0.7581 0.64881 0.74901 0.0
H2070 H 0.71638 0.60866 0.63314 0.0
H2071 H 0.77431 0.67549 0.55014 0.0
H2072 H 0.72958 0.66805 0.63002 0.0
H2073 H 0.76886 0.61994 0.55862 0.0
H2074 H 0.75527 0.67164 0.5775 0.0
H2075 H 0.73278 0.61117 0.60392 0.0
C2076 C 0.72263 0.6222 0.62629 0.0
C2077 C 0.72165 0.63821 0.63417 0.0
C2078 C 0.75818 0.66026 0.57333 0.0
C2079 C 0.74048 0.64114 0.60064 0.0
C2080 C 0.76913 0.66248 0.55775 0.0
C2081 C 0.77334 0.64809 0.55211 0.0
C2082 C 0.75132 0.64349 0.58338 0.0
C2083 C 0.76586 0.63135 0.5623 0.0
C2084 C 0.73204 0.62363 0.60961 0.0
C2085 C 0.73005 0.65537 0.62459 0.0
N2086 N 0.75529 0.62955 0.57747 0.0
N2087 N 0.73912 0.65638 0.60837 0.0
H2088 H 0.36868 0.07586 0.64807 0.0
H2089 H 0.34532 0.10124 0.54541 0.0
H2090 H 0.31922 0.03663 0.60973 0.0
H2091 H 0.3855 0.14526 0.58921 0.0
H2092 H 0.34051 0.07586 0.56614 0.0
H2093 H 0.37972 0.09972 0.62392 0.0
C2094 C 0.36031 0.07211 0.63446 0.0
C2095 C 0.34287 0.05432 0.63099 0.0
C2096 C 0.3505 0.09106 0.57118 0.0
C2097 C 0.35543 0.08149 0.60341 0.0
C2098 C 0.35321 0.10556 0.55938 0.0
C2099 C 0.36553 0.12542 0.56577 0.0
C2100 C 0.3602 0.09639 0.58954 0.0
C2101 C 0.3758 0.13013 0.58376 0.0
C2102 C 0.36658 0.08578 0.62074 0.0
C2103 C 0.33261 0.05026 0.61312 0.0
N2104 N 0.37274 0.11571 0.59515 0.0
N2105 N 0.33899 0.06378 0.60007 0.0
H2106 H 0.89822 0.25551 0.69056 0.0
H2107 H 0.909 0.22943 0.58143 0.0
H2108 H 0.95029 0.26272 0.67078 0.0
H2109 H 0.85523 0.21312 0.60413 0.0
H2110 H 0.9242 0.24037 0.61415 0.0
H2111 H 0.88207 0.23872 0.65925 0.0
C2112 C 0.90625 0.25345 0.67966 0.0
C2113 C 0.9257 0.26072 0.68324 0.0
C2114 C 0.90905 0.23424 0.61199 0.0
C2115 C 0.90726 0.24158 0.64722 0.0
C2116 C 0.90032 0.22789 0.59331 0.0
C2117 C 0.8808 0.22043 0.58999 0.0
C2118 C 0.89821 0.23327 0.62747 0.0
C2119 C 0.87037 0.21911 0.60594 0.0
C2120 C 0.89699 0.2438 0.66177 0.0
C2121 C 0.93529 0.2574 0.66863 0.0
N2122 N 0.87923 0.22559 0.62395 0.0
N2123 N 0.92601 0.24826 0.65115 0.0
H2124 H 0.39487 0.30592 0.6821 0.0
H2125 H 0.34094 0.225 0.59279 0.0
H2126 H 0.33518 0.27963 0.66538 0.0
H2127 H 0.39904 0.24715 0.61329 0.0
H2128 H 0.33856 0.24498 0.6191 0.0
H2129 H 0.39679 0.28519 0.65636 0.0
C2130 C 0.38215 0.29586 0.67298 0.0
C2131 C 0.3648 0.29454 0.67599 0.0
C2132 C 0.35179 0.24537 0.61795 0.0
C2133 C 0.36695 0.2706 0.64644 0.0
C2134 C 0.35311 0.23381 0.60304 0.0
C2135 C 0.37019 0.23426 0.60093 0.0
C2136 C 0.36767 0.25761 0.63082 0.0
C2137 C 0.38564 0.24642 0.61431 0.0
C2138 C 0.38327 0.28395 0.6583 0.0
C2139 C 0.34885 0.28117 0.66364 0.0
N2140 N 0.38403 0.25765 0.62866 0.0
N2141 N 0.35031 0.26971 0.64941 0.0
H2142 H 0.71831 0.08269 0.63169 0.0
H2143 H 0.77968 0.10882 0.53964 0.0
H2144 H 0.73107 0.04327 0.60009 0.0
H2145 H 0.77131 0.15069 0.57286 0.0
H2146 H 0.75841 0.08346 0.55946 0.0
H2147 H 0.73393 0.10644 0.608 0.0
C2148 C 0.72415 0.0789 0.61966 0.0
C2149 C 0.72358 0.06103 0.61803 0.0
C2150 C 0.76113 0.09815 0.56242 0.0
C2151 C 0.74152 0.08817 0.59097 0.0
C2152 C 0.77336 0.11267 0.55116 0.0
C2153 C 0.77751 0.13195 0.55484 0.0
C2154 C 0.75298 0.10291 0.57757 0.0
C2155 C 0.76852 0.136 0.5696 0.0
C2156 C 0.73313 0.09251 0.60619 0.0
C2157 C 0.73137 0.05693 0.60211 0.0
N2158 N 0.7568 0.12163 0.58058 0.0
N2159 N 0.74012 0.07044 0.58932 0.0
H2160 H 0.95386 0.70525 0.64593 0.0
H2161 H 0.85436 0.63437 0.5853 0.0
H2162 H 0.91287 0.64833 0.66308 0.0
H2163 H 0.89985 0.68837 0.56702 0.0
H2164 H 0.87486 0.63857 0.61387 0.0
H2165 H 0.93356 0.69879 0.61706 0.0
C2166 C 0.94056 0.69133 0.64364 0.0
C2167 C 0.93505 0.67736 0.65708 0.0
C2168 C 0.88029 0.64946 0.60358 0.0
C2169 C 0.91151 0.66983 0.62375 0.0
C2170 C 0.86863 0.64707 0.58727 0.0
C2171 C 0.87528 0.66121 0.5739 0.0
C2172 C 0.89871 0.66608 0.60643 0.0
C2173 C 0.89389 0.67736 0.57717 0.0
C2174 C 0.92895 0.68762 0.62705 0.0
C2175 C 0.91769 0.65952 0.65311 0.0
N2176 N 0.90486 0.67935 0.59307 0.0
N2177 N 0.90645 0.6563 0.63684 0.0
H2178 H 0.94814 0.72056 0.75511 0.0
H2179 H 0.88178 0.65525 0.83474 0.0
H2180 H 0.92535 0.65839 0.7555 0.0
H2181 H 0.89645 0.71482 0.82953 0.0
H2182 H 0.89959 0.65699 0.80692 0.0
H2183 H 0.93109 0.71955 0.78354 0.0
C2184 C 0.93955 0.7067 0.76113 0.0
C2185 C 0.93816 0.68952 0.75282 0.0
C2186 C 0.89893 0.6697 0.81185 0.0
C2187 C 0.91872 0.68833 0.78541 0.0
C2188 C 0.88869 0.66869 0.82771 0.0
C2189 C 0.88749 0.68487 0.83444 0.0
C2190 C 0.90814 0.68704 0.80262 0.0
C2191 C 0.89712 0.70204 0.82498 0.0
C2192 C 0.92982 0.70615 0.77735 0.0
C2193 C 0.92681 0.672 0.76128 0.0
N2194 N 0.907 0.70266 0.80952 0.0
N2195 N 0.91759 0.67188 0.7771 0.0
H2196 H 0.31393 0.27724 0.76137 0.0
H2197 H 0.33935 0.20368 0.80584 0.0
H2198 H 0.36929 0.28402 0.7617 0.0
H2199 H 0.29929 0.21568 0.832 0.0
H2200 H 0.34554 0.2281 0.78341 0.0
H2201 H 0.30379 0.24994 0.78189 0.0
C2202 C 0.32389 0.27299 0.76571 0.0
C2203 C 0.34253 0.28302 0.75999 0.0
C2204 C 0.33532 0.2253 0.79401 0.0
C2205 C 0.33095 0.25178 0.78282 0.0
C2206 C 0.33184 0.21143 0.80691 0.0
C2207 C 0.31907 0.20786 0.82117 0.0
C2208 C 0.32583 0.23559 0.79511 0.0
C2209 C 0.30926 0.21792 0.82129 0.0
C2210 C 0.31813 0.2575 0.7774 0.0
C2211 C 0.35487 0.27691 0.76596 0.0
N2212 N 0.31292 0.23144 0.80851 0.0
N2213 N 0.34884 0.26165 0.77691 0.0
H2214 H 0.7287 0.07465 0.71835 0.0
H2215 H 0.81481 0.08862 0.78775 0.0
H2216 H 0.76189 0.04852 0.70474 0.0
H2217 H 0.77867 0.11076 0.80292 0.0
H2218 H 0.79772 0.07667 0.7558 0.0
H2219 H 0.74922 0.09111 0.74787 0.0
C2220 C 0.74037 0.07247 0.72146 0.0
C2221 C 0.74343 0.06001 0.70909 0.0
C2222 C 0.79365 0.08429 0.76608 0.0
C2223 C 0.76695 0.07877 0.74294 0.0
C2224 C 0.80334 0.09104 0.78433 0.0
C2225 C 0.79814 0.10067 0.79805 0.0
C2226 C 0.7786 0.08713 0.76154 0.0
C2227 C 0.78335 0.10365 0.79274 0.0
C2228 C 0.75207 0.08186 0.73836 0.0
C2229 C 0.75885 0.05783 0.7139 0.0
N2230 N 0.77403 0.09681 0.77496 0.0
N2231 N 0.76995 0.06702 0.73049 0.0
H2232 H 0.06957 0.37356 0.03764 0.0
H2233 H 0.07828 0.315 0.12267 0.0
H2234 H 0.02152 0.32729 0.0629 0.0
H2235 H 0.12592 0.35654 0.09308 0.0
H2236 H 0.05746 0.32132 0.10272 0.0
H2237 H 0.09079 0.3699 0.06004 0.0
C2238 C 0.0635 0.36276 0.048 0.0
C2239 C 0.04377 0.35064 0.04833 0.0
C2240 C 0.0725 0.32912 0.10066 0.0
C2241 C 0.06788 0.34629 0.07389 0.0
C2242 C 0.08436 0.32544 0.11199 0.0
C2243 C 0.10389 0.33526 0.10958 0.0
C2244 C 0.08018 0.3427 0.0868 0.0
C2245 C 0.11102 0.34884 0.09567 0.0
C2246 C 0.07559 0.36062 0.06073 0.0
C2247 C 0.03665 0.33687 0.06204 0.0
N2248 N 0.09917 0.35212 0.08479 0.0
N2249 N 0.04869 0.33503 0.07421 0.0
H2250 H 0.68331 0.68093 0.11165 0.0
H2251 H 0.67136 0.77229 0.10692 0.0
H2252 H 0.63383 0.67783 0.08489 0.0
H2253 H 0.70152 0.76845 0.15664 0.0
H2254 H 0.66203 0.73906 0.09516 0.0
H2255 H 0.69398 0.71424 0.12599 0.0
C2256 C 0.67461 0.68714 0.10899 0.0
C2257 C 0.65776 0.67672 0.09695 0.0
C2258 C 0.67069 0.74549 0.10866 0.0
C2259 C 0.67 0.71457 0.1128 0.0
C2260 C 0.676 0.76444 0.11541 0.0
C2261 C 0.68691 0.77302 0.133 0.0
C2262 C 0.67652 0.73506 0.11939 0.0
C2263 C 0.69308 0.76237 0.143 0.0
C2264 C 0.68071 0.70608 0.11712 0.0
C2265 C 0.64698 0.68538 0.09396 0.0
N2266 N 0.68774 0.74382 0.13607 0.0
N2267 N 0.65341 0.70388 0.10162 0.0
H2268 H 0.33839 0.99147 0.07336 0.0
H2269 H 0.23511 0.89566 0.07373 0.0
H2270 H 0.31669 0.9421 0.03041 0.0
H2271 H 0.25957 0.94412 0.11805 0.0
H2272 H 0.26483 0.9118 0.05781 0.0
H2273 H 0.30984 0.97352 0.09038 0.0
C2274 C 0.32765 0.97674 0.0676 0.0
C2275 C 0.32983 0.96829 0.05039 0.0
C2276 C 0.26366 0.91889 0.07101 0.0
C2277 C 0.2969 0.94767 0.06971 0.0
C2278 C 0.24672 0.90969 0.08011 0.0
C2279 C 0.24479 0.91861 0.09719 0.0
C2280 C 0.27879 0.93713 0.07906 0.0
C2281 C 0.26025 0.93686 0.10472 0.0
C2282 C 0.31131 0.9665 0.07731 0.0
C2283 C 0.31553 0.94913 0.04365 0.0
N2284 N 0.27655 0.94548 0.09561 0.0
N2285 N 0.29955 0.93949 0.05325 0.0
H2286 H 0.34833 0.01648 0.97284 0.0
H2287 H 0.35445 0.11955 0.98454 0.0
H2288 H 0.38411 0.06155 0.01807 0.0
H2289 H 0.32186 0.07381 0.93866 0.0
H2290 H 0.36676 0.09979 0.99671 0.0
H2291 H 0.3403 0.0387 0.95937 0.0
C2292 C 0.35467 0.03121 0.97983 0.0
C2293 C 0.3668 0.03717 0.99666 0.0
C2294 C 0.35689 0.09412 0.984 0.0
C2295 C 0.35737 0.06275 0.98146 0.0
C2296 C 0.34985 0.10536 0.97707 0.0
C2297 C 0.33685 0.09818 0.96074 0.0
C2298 C 0.35096 0.07567 0.97443 0.0
C2299 C 0.33142 0.07973 0.95159 0.0
C2300 C 0.35004 0.04391 0.97215 0.0
C2301 C 0.37473 0.05645 0.00503 0.0
N2302 N 0.33847 0.06917 0.95857 0.0
N2303 N 0.36968 0.06855 0.99747 0.0
H2304 H 0.9998 0.29496 0.97732 0.0
H2305 H 0.89762 0.22969 0.92078 0.0
H2306 H 0.95728 0.31086 0.97592 0.0
H2307 H 0.92714 0.20406 0.9461 0.0
H2308 H 0.92388 0.26214 0.93298 0.0
H2309 H 0.97733 0.26398 0.95802 0.0
C2310 C 0.98586 0.29205 0.97268 0.0
C2311 C 0.98024 0.3053 0.97831 0.0
C2312 C 0.92465 0.2494 0.93571 0.0
C2313 C 0.95484 0.27037 0.95624 0.0
C2314 C 0.90964 0.23088 0.92888 0.0
C2315 C 0.90995 0.21409 0.93288 0.0
C2316 C 0.94021 0.25122 0.94644 0.0
C2317 C 0.92625 0.21659 0.94279 0.0
C2318 C 0.97309 0.27442 0.96179 0.0
C2319 C 0.96206 0.30092 0.97204 0.0
N2320 N 0.94071 0.23485 0.94942 0.0
N2321 N 0.94999 0.2838 0.96133 0.0
H2322 H 0.68537 0.61479 0.04466 0.0
H2323 H 0.74776 0.67727 0.96128 0.0
H2324 H 0.67723 0.65665 0.01652 0.0
H2325 H 0.76132 0.64128 0.99359 0.0
H2326 H 0.72053 0.66803 0.98018 0.0
H2327 H 0.71162 0.62196 0.0244 0.0
C2328 C 0.68898 0.62532 0.03411 0.0
C2329 C 0.6792 0.63521 0.03232 0.0
C2330 C 0.72946 0.66216 0.98318 0.0
C2331 C 0.70912 0.64355 0.00928 0.0
C2332 C 0.74512 0.66757 0.97249 0.0
C2333 C 0.75694 0.66016 0.97593 0.0
C2334 C 0.72548 0.64918 0.99745 0.0
C2335 C 0.75251 0.64723 0.99034 0.0
C2336 C 0.704 0.62949 0.02264 0.0
C2337 C 0.68447 0.64877 0.01848 0.0
N2338 N 0.73714 0.64217 0.00059 0.0
N2339 N 0.69908 0.65256 0.00755 0.0
H2340 H 0.98405 0.67286 0.99417 0.0
H2341 H 0.87759 0.63455 0.95403 0.0
H2342 H 0.93524 0.62325 0.01483 0.0
H2343 H 0.92637 0.68937 0.94186 0.0
H2344 H 0.89854 0.62744 0.9728 0.0
H2345 H 0.96317 0.67613 0.97134 0.0
C2346 C 0.96891 0.66252 0.9938 0.0
C2347 C 0.96136 0.64785 0.00657 0.0
C2348 C 0.90466 0.64095 0.96591 0.0
C2349 C 0.93728 0.65163 0.98042 0.0
C2350 C 0.89274 0.64496 0.95508 0.0
C2351 C 0.90027 0.6626 0.94639 0.0
C2352 C 0.92425 0.65463 0.96796 0.0
C2353 C 0.91996 0.67569 0.94848 0.0
C2354 C 0.95698 0.66444 0.98076 0.0
C2355 C 0.94164 0.6348 0.0053 0.0
N2356 N 0.93125 0.67145 0.95907 0.0
N2357 N 0.93024 0.63709 0.99253 0.0
H2358 H 0.31136 0.31866 0.96339 0.0
H2359 H 0.33864 0.25498 0.89468 0.0
H2360 H 0.3689 0.33559 0.95327 0.0
H2361 H 0.29284 0.22909 0.93227 0.0
H2362 H 0.34487 0.28738 0.90617 0.0
H2363 H 0.29992 0.28851 0.94188 0.0
C2364 C 0.32153 0.31626 0.95622 0.0
C2365 C 0.34107 0.32938 0.96017 0.0
C2366 C 0.33324 0.27451 0.91157 0.0
C2367 C 0.32818 0.29547 0.93558 0.0
C2368 C 0.32975 0.25604 0.90517 0.0
C2369 C 0.31555 0.23927 0.91296 0.0
C2370 C 0.32226 0.27622 0.92556 0.0
C2371 C 0.304 0.24155 0.92593 0.0
C2372 C 0.31501 0.2991 0.94408 0.0
C2373 C 0.35372 0.32565 0.9507 0.0
N2374 N 0.30776 0.25974 0.93202 0.0
N2375 N 0.34706 0.30897 0.93887 0.0
H2376 H 0.65313 0.01759 0.9872 0.0
H2377 H 0.76271 0.09276 0.98394 0.0
H2378 H 0.68505 0.06267 0.03371 0.0
H2379 H 0.72513 0.06705 0.93216 0.0
H2380 H 0.73496 0.08031 0.00314 0.0
H2381 H 0.67965 0.03437 0.967 0.0
C2382 C 0.66565 0.03124 0.99301 0.0
C2383 C 0.66699 0.03882 0.01208 0.0
C2384 C 0.73283 0.07754 0.98757 0.0
C2385 C 0.69752 0.05773 0.98933 0.0
C2386 C 0.7486 0.08444 0.97667 0.0
C2387 C 0.74611 0.0808 0.95651 0.0
C2388 C 0.71452 0.06663 0.97821 0.0
C2389 C 0.72759 0.07018 0.94769 0.0
C2390 C 0.68076 0.04078 0.98152 0.0
C2391 C 0.68348 0.05647 0.01901 0.0
N2392 N 0.71248 0.06328 0.95862 0.0
N2393 N 0.69831 0.0652 0.00772 0.0
H2394 H 0.61731 0.94768 0.06134 0.0
H2395 H 0.70171 0.94675 0.12048 0.0
H2396 H 0.67093 -0.00073 0.08195 0.0
H2397 H 0.64692 0.89454 0.10525 0.0
H2398 H 0.69097 0.96573 0.10423 0.0
H2399 H 0.62788 0.92742 0.07589 0.0
C2400 C 0.63123 0.95473 0.06897 0.0
C2401 C 0.64324 0.97518 0.07045 0.0
C2402 C 0.68128 0.95011 0.10436 0.0
C2403 C 0.65544 0.95222 0.0869 0.0
C2404 C 0.68749 0.93923 0.1135 0.0
C2405 C 0.67519 0.91904 0.11427 0.0
C2406 C 0.66261 0.94077 0.09589 0.0
C2407 C 0.65678 0.91014 0.10522 0.0
C2408 C 0.63727 0.94319 0.07721 0.0
C2409 C 0.66116 0.98357 0.08043 0.0
N2410 N 0.65102 0.92107 0.09644 0.0
N2411 N 0.66669 0.97208 0.08821 0.0
H2412 H 0.04038 0.68764 0.08874 0.0
H2413 H 0.0717 0.79528 0.11235 0.0
H2414 H 0.99928 0.70436 0.07763 0.0
H2415 H 0.08669 0.76583 0.15276 0.0
H2416 H 0.04556 0.76338 0.09826 0.0
H2417 H 0.05897 0.71729 0.11075 0.0
C2418 C 0.03519 0.69748 0.0911 0.0
C2419 C 0.01835 0.69366 0.0814 0.0
C2420 C 0.0544 0.76402 0.11046 0.0
C2421 C 0.0397 0.7277 0.10613 0.0
C2422 C 0.06929 0.78221 0.11857 0.0
C2423 C 0.08175 0.78325 0.13347 0.0
C2424 C 0.05226 0.74687 0.11707 0.0
C2425 C 0.07791 0.76572 0.14083 0.0
C2426 C 0.04573 0.71431 0.10373 0.0
C2427 C 0.01222 0.70686 0.08495 0.0
N2428 N 0.06378 0.74823 0.13225 0.0
N2429 N 0.02314 0.72362 0.09676 0.0
H2430 H 0.3278 0.39097 0.03413 0.0
H2431 H 0.24688 0.3112 0.09445 0.0
H2432 H 0.32136 0.33523 0.04383 0.0
H2433 H 0.25589 0.36882 0.08983 0.0
H2434 H 0.27411 0.31986 0.07558 0.0
H2435 H 0.30185 0.38358 0.05478 0.0
C2436 C 0.32107 0.37729 0.04075 0.0
C2437 C 0.3267 0.36367 0.0372 0.0
C2438 C 0.27017 0.33065 0.07871 0.0
C2439 C 0.29694 0.35503 0.06061 0.0
C2440 C 0.25452 0.32564 0.08935 0.0
C2441 C 0.24909 0.3393 0.09368 0.0
C2442 C 0.28044 0.34943 0.07224 0.0
C2443 C 0.25971 0.35791 0.08697 0.0
C2444 C 0.30622 0.37304 0.05247 0.0
C2445 C 0.31746 0.34614 0.0461 0.0
N2446 N 0.27485 0.36242 0.07653 0.0
N2447 N 0.30298 0.34229 0.05729 0.0
H2448 H 0.68444 0.67528 0.40391 0.0
H2449 H 0.77813 0.67207 0.41052 0.0
H2450 H 0.72654 0.70182 0.36273 0.0
H2451 H 0.75171 0.67567 0.46171 0.0
H2452 H 0.75766 0.67976 0.39153 0.0
H2453 H 0.70732 0.67242 0.42448 0.0
C2454 C 0.69858 0.68066 0.3993 0.0
C2455 C 0.70365 0.68877 0.38161 0.0
C2456 C 0.75642 0.67897 0.40693 0.0
C2457 C 0.72967 0.68516 0.40483 0.0
C2458 C 0.76794 0.67443 0.4177 0.0
C2459 C 0.76641 0.67311 0.43761 0.0
C2460 C 0.74304 0.68179 0.41611 0.0
C2461 C 0.75322 0.67653 0.44636 0.0
C2462 C 0.71161 0.67907 0.41105 0.0
C2463 C 0.72214 0.69557 0.37631 0.0
N2464 N 0.74184 0.68048 0.43549 0.0
N2465 N 0.73443 0.69332 0.38775 0.0
H2466 H 0.29346 0.00759 0.4134 0.0
H2467 H 0.36636 0.0988 0.48703 0.0
H2468 H 0.34353 0.01164 0.43979 0.0
H2469 H 0.326 0.09881 0.44608 0.0
H2470 H 0.35693 0.06579 0.47306 0.0
H2471 H 0.30317 0.03951 0.42946 0.0
C2472 C 0.30648 0.01516 0.4227 0.0
C2473 C 0.3178 0.00705 0.42514 0.0
C2474 C 0.3502 0.0731 0.4672 0.0
C2475 C 0.32913 0.04379 0.4435 0.0
C2476 C 0.35563 0.09193 0.47507 0.0
C2477 C 0.34679 0.10147 0.46785 0.0
C2478 C 0.3358 0.06383 0.45215 0.0
C2479 C 0.33287 0.09186 0.45243 0.0
C2480 C 0.31207 0.03346 0.4318 0.0
C2481 C 0.33445 0.01748 0.43748 0.0
N2482 N 0.32777 0.07358 0.44519 0.0
N2483 N 0.3397 0.03544 0.44619 0.0
H2484 H 0.9977 0.32987 0.39235 0.0
H2485 H 0.92364 0.22912 0.43095 0.0
H2486 H 0.99617 0.27654 0.3742 0.0
H2487 H 0.91069 0.27394 0.42168 0.0
H2488 H 0.95241 0.24718 0.41411 0.0
H2489 H 0.96829 0.31071 0.408 0.0
C2490 C 0.99124 0.31413 0.39179 0.0
C2491 C 0.99932 0.30473 0.38196 0.0
C2492 C 0.94316 0.25294 0.41571 0.0
C2493 C 0.96578 0.28281 0.39988 0.0
C2494 C 0.92663 0.24259 0.42519 0.0
C2495 C 0.91456 0.24994 0.42779 0.0
C2496 C 0.94792 0.27096 0.4091 0.0
C2497 C 0.91964 0.26781 0.42041 0.0
C2498 C 0.97441 0.30322 0.4006 0.0
C2499 C 0.99032 0.2843 0.3816 0.0
N2500 N 0.936 0.27778 0.41155 0.0
N2501 N 0.97403 0.27397 0.39055 0.0
H2502 H 0.01007 0.35338 0.32312 0.0
H2503 H 0.05353 0.45329 0.27676 0.0
H2504 H 0.07003 0.39569 0.33389 0.0
H2505 H 0.99709 0.42309 0.29654 0.0
H2506 H 0.06095 0.43234 0.29472 0.0
H2507 H 0.00583 0.37795 0.30922 0.0
C2508 C 0.02242 0.36787 0.32247 0.0
C2509 C 0.04047 0.37248 0.32965 0.0
C2510 C 0.04705 0.43055 0.29525 0.0
C2511 C 0.03561 0.40083 0.31366 0.0
C2512 C 0.0428 0.44251 0.28508 0.0
C2513 C 0.02452 0.43972 0.28484 0.0
C2514 C 0.03284 0.41561 0.30496 0.0
C2515 C 0.01117 0.42541 0.2958 0.0
C2516 C 0.01993 0.38195 0.31467 0.0
C2517 C 0.05589 0.39158 0.32852 0.0
N2518 N 0.01552 0.41375 0.30516 0.0
N2519 N 0.05315 0.40511 0.32047 0.0
H2520 H 0.65553 0.6357 0.30358 0.0
H2521 H 0.54715 0.54821 0.29047 0.0
H2522 H 0.60929 0.63731 0.32885 0.0
H2523 H 0.5893 0.5497 0.25435 0.0
H2524 H 0.57076 0.58031 0.30587 0.0
H2525 H 0.63245 0.60379 0.28618 0.0
C2526 C 0.64055 0.62942 0.30536 0.0
C2527 C 0.6343 0.6391 0.31773 0.0
C2528 C 0.57489 0.57371 0.29453 0.0
C2529 C 0.60801 0.60276 0.29814 0.0
C2530 C 0.56136 0.55537 0.28564 0.0
C2531 C 0.56616 0.54632 0.2709 0.0
C2532 C 0.59351 0.58316 0.28881 0.0
C2533 C 0.585 0.55611 0.26571 0.0
C2534 C 0.62742 0.61124 0.29546 0.0
C2535 C 0.61477 0.63035 0.31954 0.0
N2536 N 0.59803 0.57406 0.27465 0.0
N2537 N 0.60237 0.61268 0.30995 0.0
H2538 H 0.33603 0.97875 0.3449 0.0
H2539 H 0.41287 0.94917 0.32371 0.0
H2540 H 0.34214 0.93826 0.37789 0.0
H2541 H 0.40146 0.98537 0.28925 0.0
H2542 H 0.38673 0.94389 0.34333 0.0
H2543 H 0.35963 0.98031 0.32406 0.0
C2544 C 0.34233 0.97011 0.34774 0.0
C2545 C 0.3372 0.95845 0.36325 0.0
C2546 C 0.38994 0.95292 0.33143 0.0
C2547 C 0.36449 0.96024 0.33934 0.0
C2548 C 0.4048 0.9559 0.3202 0.0
C2549 C 0.40949 0.96791 0.30495 0.0
C2550 C 0.37973 0.96201 0.32732 0.0
C2551 C 0.39865 0.97635 0.30111 0.0
C2552 C 0.35583 0.97099 0.33578 0.0
C2553 C 0.34573 0.94745 0.36609 0.0
N2554 N 0.38436 0.97329 0.31224 0.0
N2555 N 0.35912 0.94872 0.35431 0.0
H2556 H 0.64124 0.98058 0.32227 0.0
H2557 H 0.54334 0.97469 0.31321 0.0
H2558 H 0.59965 0.95278 0.36365 0.0
H2559 H 0.57231 0.97448 0.2629 0.0
H2560 H 0.56456 0.96838 0.33265 0.0
H2561 H 0.61695 0.97988 0.30063 0.0
C2562 C 0.6269 0.97411 0.32668 0.0
C2563 C 0.6224 0.96679 0.34477 0.0
C2564 C 0.56616 0.96953 0.31733 0.0
C2565 C 0.59471 0.96634 0.3203 0.0
C2566 C 0.5542 0.97328 0.3063 0.0
C2567 C 0.55629 0.97528 0.28652 0.0
C2568 C 0.58054 0.96817 0.30857 0.0
C2569 C 0.57035 0.97308 0.27813 0.0
C2570 C 0.61306 0.97367 0.31431 0.0
C2571 C 0.60363 0.95851 0.34978 0.0
N2572 N 0.58216 0.96992 0.28927 0.0
N2573 N 0.5905 0.95882 0.33773 0.0
H2574 H 0.02858 0.64682 0.32954 0.0
H2575 H 0.99248 0.58397 0.23003 0.0
H2576 H 0.00021 0.66163 0.28684 0.0
H2577 H 0.98777 0.55793 0.2835 0.0
H2578 H 0.99813 0.61401 0.24847 0.0
H2579 H 0.01746 0.61567 0.31064 0.0
C2580 C 0.02006 0.64353 0.3161 0.0
C2581 C 0.0153 0.65676 0.30968 0.0
C2582 C 0.99549 0.60154 0.25604 0.0
C2583 C 0.00265 0.62122 0.28798 0.0
C2584 C 0.99234 0.58451 0.2456 0.0
C2585 C 0.98967 0.56855 0.25532 0.0
C2586 C 0.99648 0.60266 0.27627 0.0
C2587 C 0.98961 0.56987 0.27548 0.0
C2588 C 0.0136 0.62569 0.30544 0.0
C2589 C 0.00411 0.65172 0.29225 0.0
N2590 N 0.99331 0.58677 0.28532 0.0
N2591 N 0.9983 0.63434 0.28179 0.0
H2592 H 0.32371 0.34059 0.32509 0.0
H2593 H 0.43175 0.42064 0.31544 0.0
H2594 H 0.35563 0.38941 0.36826 0.0
H2595 H 0.39248 0.38697 0.26621 0.0
H2596 H 0.40508 0.40757 0.33615 0.0
H2597 H 0.34971 0.35584 0.3041 0.0
C2598 C 0.33618 0.35462 0.33008 0.0
C2599 C 0.33761 0.36377 0.34841 0.0
C2600 C 0.40234 0.40313 0.32081 0.0
C2601 C 0.36751 0.38114 0.32462 0.0
C2602 C 0.41752 0.41041 0.30905 0.0
C2603 C 0.41423 0.40477 0.28915 0.0
C2604 C 0.38387 0.3899 0.31259 0.0
C2605 C 0.39556 0.3917 0.28149 0.0
C2606 C 0.35099 0.36332 0.31809 0.0
C2607 C 0.35401 0.38196 0.35417 0.0
N2608 N 0.38108 0.38459 0.29325 0.0
N2609 N 0.3685 0.38998 0.34237 0.0
H2610 H 0.28552 0.27635 0.3838 0.0
H2611 H 0.32409 0.25531 0.4802 0.0
H2612 H 0.31141 0.31825 0.43383 0.0
H2613 H 0.3269 0.23132 0.42406 0.0
H2614 H 0.31102 0.27284 0.46478 0.0
H2615 H 0.29212 0.25383 0.40012 0.0
C2616 C 0.29213 0.28054 0.39838 0.0
C2617 C 0.298 0.29907 0.40757 0.0
C2618 C 0.31437 0.26363 0.45586 0.0
C2619 C 0.30545 0.27371 0.42611 0.0
C2620 C 0.32178 0.25362 0.46462 0.0
C2621 C 0.32663 0.24199 0.45332 0.0
C2622 C 0.31157 0.26178 0.43568 0.0
C2623 C 0.32349 0.24035 0.43319 0.0
C2624 C 0.29604 0.26785 0.40756 0.0
C2625 C 0.30676 0.30406 0.42631 0.0
N2626 N 0.3161 0.25016 0.42495 0.0
N2627 N 0.31023 0.29145 0.43499 0.0
H2628 H 0.70905 0.03691 0.38623 0.0
H2629 H 0.74147 0.10271 0.48287 0.0
H2630 H 0.66999 0.02016 0.43095 0.0
H2631 H 0.75497 0.12799 0.42849 0.0
H2632 H 0.71616 0.07168 0.46578 0.0
H2633 H 0.72794 0.06977 0.40293 0.0
C2634 C 0.70448 0.04019 0.39961 0.0
C2635 C 0.68805 0.02588 0.40734 0.0
C2636 C 0.72439 0.08418 0.4577 0.0
C2637 C 0.70963 0.06329 0.42654 0.0
C2638 C 0.73877 0.10179 0.46739 0.0
C2639 C 0.75022 0.11778 0.45698 0.0
C2640 C 0.72194 0.08253 0.4375 0.0
C2641 C 0.74634 0.11597 0.43698 0.0
C2642 C 0.71515 0.05896 0.40901 0.0
C2643 C 0.68261 0.03089 0.4246 0.0
N2644 N 0.73275 0.0985 0.42781 0.0
N2645 N 0.6936 0.04918 0.43387 0.0
H2646 H 0.99731 0.68107 0.39087 0.0
H2647 H 0.91498 0.70423 0.40502 0.0
H2648 H 0.99278 0.7234 0.35949 0.0
H2649 H 0.92223 0.66359 0.43656 0.0
H2650 H 0.94401 0.71282 0.38911 0.0
H2651 H 0.97072 0.67615 0.40888 0.0
C2652 C 0.99078 0.68947 0.38786 0.0
C2653 C 0.99719 0.70258 0.37356 0.0
C2654 C 0.93924 0.70205 0.39954 0.0
C2655 C 0.96643 0.69683 0.39409 0.0
C2656 C 0.9227 0.69717 0.40865 0.0
C2657 C 0.91606 0.68303 0.42203 0.0
C2658 C 0.94922 0.69277 0.40389 0.0
C2659 C 0.92657 0.67426 0.42607 0.0
C2660 C 0.97554 0.68662 0.39816 0.0
C2661 C 0.98827 0.71315 0.3704 0.0
N2662 N 0.94255 0.67925 0.41703 0.0
N2663 N 0.97318 0.70991 0.38048 0.0
H2664 H 0.40366 0.05441 0.70977 0.0
H2665 H 0.4189 0.00133 0.79628 0.0
H2666 H 0.35787 0.00796 0.73731 0.0
H2667 H 0.46468 0.04508 0.76635 0.0
H2668 H 0.39644 0.00543 0.77649 0.0
H2669 H 0.42641 0.05332 0.73228 0.0
C2670 C 0.3984 0.04409 0.72064 0.0
C2671 C 0.37886 0.03118 0.7216 0.0
C2672 C 0.41141 0.01422 0.77433 0.0
C2673 C 0.40476 0.02978 0.74732 0.0
C2674 C 0.42424 0.01182 0.78557 0.0
C2675 C 0.44371 0.02284 0.78297 0.0
C2676 C 0.41808 0.02771 0.76032 0.0
C2677 C 0.44983 0.03643 0.76905 0.0
C2678 C 0.41138 0.04344 0.73346 0.0
C2679 C 0.37282 0.01812 0.73598 0.0
N2680 N 0.43706 0.03841 0.7582 0.0
N2681 N 0.38571 0.01769 0.7482 0.0
H2682 H 0.00657 0.3444 0.77395 0.0
H2683 H 0.96671 0.41583 0.78847 0.0
H2684 H 0.95328 0.33288 0.74771 0.0
H2685 H 0.01495 0.424 0.82327 0.0
H2686 H 0.96189 0.38521 0.77363 0.0
H2687 H 0.01023 0.37338 0.79259 0.0
C2688 C 0.99558 0.34787 0.77225 0.0
C2689 C 0.97968 0.33635 0.75918 0.0
C2690 C 0.97348 0.39359 0.7846 0.0
C2691 C 0.9838 0.36934 0.78022 0.0
C2692 C 0.97618 0.41108 0.79318 0.0
C2693 C 0.9912 0.4225 0.80724 0.0
C2694 C 0.98598 0.38746 0.7899 0.0
C2695 C 0.0033 0.41577 0.81234 0.0
C2696 C 0.99768 0.36438 0.78285 0.0
C2697 C 0.96585 0.34143 0.75752 0.0
N2698 N 0.00047 0.39869 0.80361 0.0
N2699 N 0.9683 0.35759 0.76781 0.0
H2700 H 0.65194 0.60242 0.697 0.0
H2701 H 0.5974 0.61043 0.78687 0.0
H2702 H 0.67161 0.65492 0.73515 0.0
H2703 H 0.57363 0.55922 0.74592 0.0
H2704 H 0.62583 0.62592 0.76925 0.0
H2705 H 0.62453 0.58506 0.71626 0.0
C2706 C 0.6506 0.61021 0.70953 0.0
C2707 C 0.66396 0.63015 0.71442 0.0
C2708 C 0.61441 0.6113 0.76407 0.0
C2709 C 0.63274 0.61053 0.73636 0.0
C2710 C 0.59808 0.6025 0.77404 0.0
C2711 C 0.58299 0.58358 0.76774 0.0
C2712 C 0.61578 0.60113 0.74762 0.0
C2713 C 0.58494 0.57381 0.75133 0.0
C2714 C 0.63493 0.60034 0.72045 0.0
C2715 C 0.66157 0.63958 0.73077 0.0
N2716 N 0.60102 0.58273 0.74178 0.0
N2717 N 0.64623 0.62972 0.74108 0.0
H2718 H 0.719 0.7216 0.67568 0.0
H2719 H 0.6516 0.73329 0.59952 0.0
H2720 H 0.67495 0.67434 0.63707 0.0
H2721 H 0.68666 0.77813 0.64532 0.0
H2722 H 0.66286 0.71283 0.61114 0.0
H2723 H 0.71063 0.7441 0.66235 0.0
C2724 C 0.70779 0.71604 0.66422 0.0
C2725 C 0.69757 0.69609 0.65752 0.0
C2726 C 0.66806 0.72711 0.61874 0.0
C2727 C 0.6879 0.72154 0.64238 0.0
C2728 C 0.66147 0.73874 0.61222 0.0
C2729 C 0.66792 0.75734 0.62167 0.0
C2730 C 0.68132 0.73407 0.6348 0.0
C2731 C 0.68129 0.76388 0.63761 0.0
C2732 C 0.70293 0.72882 0.65674 0.0
C2733 C 0.6831 0.68959 0.64276 0.0
N2734 N 0.68753 0.75223 0.64373 0.0
N2735 N 0.67867 0.70224 0.63574 0.0
H2736 H 0.28676 0.97743 0.66804 0.0
H2737 H 0.26434 0.88758 0.59435 0.0
H2738 H 0.33296 0.9751 0.64349 0.0
H2739 H 0.23048 0.88372 0.64175 0.0
H2740 H 0.28918 0.92054 0.60837 0.0
H2741 H 0.26479 0.94443 0.65354 0.0
C2742 C 0.29231 0.97001 0.65948 0.0
C2743 C 0.31176 0.97898 0.65709 0.0
C2744 C 0.27633 0.91231 0.61568 0.0
C2745 C 0.28652 0.94099 0.64043 0.0
C2746 C 0.26222 0.89354 0.60778 0.0
C2747 C 0.24515 0.88305 0.61671 0.0
C2748 C 0.27315 0.92057 0.63242 0.0
C2749 C 0.24313 0.89147 0.63404 0.0
C2750 C 0.27973 0.95109 0.6513 0.0
C2751 C 0.31806 0.96862 0.64574 0.0
N2752 N 0.25683 0.90978 0.64118 0.0
N2753 N 0.30541 0.95007 0.63774 0.0
H2754 H 0.01499 0.32776 0.6857 0.0
H2755 H 0.08686 0.29507 0.65202 0.0
H2756 H 0.01396 0.27714 0.7051 0.0
H2757 H 0.09365 0.35101 0.64273 0.0
H2758 H 0.05922 0.2872 0.67016 0.0
H2759 H 0.04266 0.33525 0.66816 0.0
C2760 C 0.02053 0.31815 0.68621 0.0
C2761 C 0.01215 0.30179 0.6969 0.0
C2762 C 0.06682 0.30123 0.66423 0.0
C2763 C 0.04396 0.31037 0.67685 0.0
C2764 C 0.08253 0.3057 0.65384 0.0
C2765 C 0.09253 0.32371 0.64586 0.0
C2766 C 0.06095 0.31479 0.66648 0.0
C2767 C 0.08646 0.33704 0.6488 0.0
C2768 C 0.03641 0.3225 0.67624 0.0
C2769 C 0.01999 0.2899 0.69704 0.0
N2770 N 0.071 0.33226 0.65877 0.0
N2771 N 0.03547 0.29441 0.68714 0.0
H2772 H 0.28098 0.28693 0.67918 0.0
H2773 H 0.25656 0.36018 0.63357 0.0
H2774 H 0.32258 0.34805 0.6756 0.0
H2775 H 0.22685 0.29898 0.61198 0.0
H2776 H 0.27896 0.35547 0.65235 0.0
H2777 H 0.25865 0.29033 0.65781 0.0
C2778 C 0.28542 0.30098 0.67387 0.0
C2779 C 0.30365 0.31722 0.67917 0.0
C2780 C 0.26758 0.3431 0.64341 0.0
C2781 C 0.27828 0.32124 0.65515 0.0
C2782 C 0.25482 0.3458 0.63248 0.0
C2783 C 0.2397 0.33 0.62096 0.0
C2784 C 0.26512 0.3244 0.64319 0.0
C2785 C 0.23803 0.31157 0.62083 0.0
C2786 C 0.27274 0.30289 0.66167 0.0
C2787 C 0.3087 0.33511 0.67188 0.0
N2788 N 0.25048 0.30924 0.63189 0.0
N2789 N 0.29606 0.33667 0.66043 0.0
H2790 H 0.65784 0.99433 0.61727 0.0
H2791 H 0.63361 0.88484 0.62206 0.0
H2792 H 0.67924 0.97584 0.66344 0.0
H2793 H 0.64621 0.91132 0.56824 0.0
H2794 H 0.63991 0.91584 0.63837 0.0
H2795 H 0.64406 0.96145 0.59989 0.0
C2796 C 0.65947 0.98331 0.62376 0.0
C2797 C 0.66978 0.9877 0.64165 0.0
C2798 C 0.64094 0.9147 0.62292 0.0
C2799 C 0.65376 0.95043 0.6224 0.0
C2800 C 0.63722 0.89705 0.61362 0.0
C2801 C 0.63952 0.89567 0.59385 0.0
C2802 C 0.64674 0.93094 0.61232 0.0
C2803 C 0.64446 0.91196 0.58356 0.0
C2804 C 0.65167 0.96469 0.6139 0.0
C2805 C 0.67156 0.97304 0.64955 0.0
N2806 N 0.64802 0.92906 0.59295 0.0
N2807 N 0.66353 0.955 0.63992 0.0
H2808 H 0.99973 0.66529 0.66897 0.0
H2809 H 0.08927 0.76839 0.6487 0.0
H2810 H 0.0112 0.72048 0.69663 0.0
H2811 H 0.08175 0.7126 0.62854 0.0
H2812 H 0.06055 0.75133 0.66599 0.0
H2813 H 0.02931 0.68259 0.65331 0.0
C2814 C 0.00846 0.68109 0.6717 0.0
C2815 C 0.00301 0.69149 0.68411 0.0
C2816 C 0.06524 0.74283 0.65789 0.0
C2817 C 0.03698 0.7114 0.66625 0.0
C2818 C 0.08159 0.75254 0.64799 0.0
C2819 C 0.08783 0.74186 0.63711 0.0
C2820 C 0.05496 0.72228 0.65679 0.0
C2821 C 0.07751 0.72139 0.63686 0.0
C2822 C 0.02541 0.69095 0.66281 0.0
C2823 C 0.01489 0.71192 0.68716 0.0
N2824 N 0.0615 0.71225 0.64644 0.0
N2825 N 0.03133 0.72123 0.67825 0.0
H2826 H 0.93838 0.60175 0.71319 0.0
H2827 H 0.96561 0.5769 0.81421 0.0
H2828 H 0.96311 0.6431 0.76374 0.0
H2829 H 0.96754 0.54931 0.7598 0.0
H2830 H 0.95573 0.59611 0.79682 0.0
H2831 H 0.94012 0.57722 0.73135 0.0
C2832 C 0.94374 0.60546 0.72822 0.0
C2833 C 0.95073 0.62439 0.73704 0.0
C2834 C 0.95813 0.5857 0.78871 0.0
C2835 C 0.95265 0.59671 0.7577 0.0
C2836 C 0.96369 0.5747 0.7986 0.0
C2837 C 0.9675 0.56163 0.78839 0.0
C2838 C 0.95619 0.58348 0.76847 0.0
C2839 C 0.96495 0.55945 0.76816 0.0
C2840 C 0.94487 0.59159 0.73848 0.0
C2841 C 0.95772 0.62866 0.75644 0.0
N2842 N 0.95947 0.57032 0.75881 0.0
N2843 N 0.95853 0.61493 0.76612 0.0
H2844 H 0.38913 0.37454 0.73038 0.0
H2845 H 0.40969 0.44127 0.82505 0.0
H2846 H 0.3434 0.35744 0.7677 0.0
H2847 H 0.42794 0.46528 0.77066 0.0
H2848 H 0.38707 0.40924 0.8074 0.0
H2849 H 0.40657 0.40671 0.74845 0.0
C2850 C 0.38282 0.37751 0.74251 0.0
C2851 C 0.36481 0.36336 0.74759 0.0
C2852 C 0.39578 0.42168 0.79942 0.0
C2853 C 0.38475 0.40011 0.76832 0.0
C2854 C 0.40862 0.43986 0.80942 0.0
C2855 C 0.42061 0.45584 0.79923 0.0
C2856 C 0.39545 0.41954 0.77925 0.0
C2857 C 0.41882 0.45335 0.77902 0.0
C2858 C 0.3927 0.39592 0.75267 0.0
C2859 C 0.35726 0.36805 0.76336 0.0
N2860 N 0.40674 0.43543 0.76969 0.0
N2861 N 0.36739 0.38608 0.77339 0.0
H2862 H 0.65483 0.05889 0.68559 0.0
H2863 H 0.61155 0.03483 0.78827 0.0
H2864 H 0.67012 0.03075 0.72716 0.0
H2865 H 0.57962 0.03511 0.73819 0.0
H2866 H 0.63786 0.04177 0.76834 0.0
H2867 H 0.63178 0.05865 0.70732 0.0
C2868 C 0.65357 0.05302 0.69942 0.0
C2869 C 0.66422 0.0447 0.70461 0.0
C2870 C 0.62514 0.04047 0.76177 0.0
C2871 C 0.63824 0.04453 0.72936 0.0
C2872 C 0.6102 0.03659 0.77312 0.0
C2873 C 0.59341 0.03428 0.76478 0.0
C2874 C 0.62337 0.04232 0.74202 0.0
C2875 C 0.59229 0.03657 0.74506 0.0
C2876 C 0.64038 0.05276 0.7117 0.0
C2877 C 0.66202 0.03715 0.7226 0.0
N2878 N 0.60711 0.04048 0.7343 0.0
N2879 N 0.64928 0.03724 0.73433 0.0
loop_
_geom_bond_atom_site_label_1
_geom_bond_atom_site_label_2
_geom_bond_distance
_geom_bond_site_symmetry_2
_ccdc_geom_bond_type
Co0 O1 2.216 . S
Co0 O2 2.091 . S
Co0 O4 2.004 . S
Co0 O10 2.021 . S
Co0 O12 2.137 1_455 S
Co0 O13 2.244 1_455 S
O1 Co0 2.216 . S
O1 C8 1.247 . S
O2 Co0 2.091 . S
O2 C8 1.261 . S
C3 O12 1.247 . S
C3 O13 1.272 . S
O4 Co0 2.004 . S
O4 C9 1.259 1_554 S
Co5 O6 2.088 . S
Co5 O11 2.052 . S
Co5 O13 2.135 . S
O6 Co5 2.088 . S
O6 C9 1.221 1_654 S
C7 O10 1.238 1_655 S
C7 O11 1.241 . S
C8 O1 1.247 . S
C8 O2 1.261 . S
C9 O4 1.259 1_556 S
C9 O6 1.221 1_456 S
O10 Co0 2.021 . S
O10 C7 1.238 1_455 S
O11 Co5 2.052 . S
O11 C7 1.241 . S
O12 Co0 2.137 1_655 S
O12 C3 1.247 . S
O13 Co0 2.244 1_655 S
O13 C3 1.272 . S
O13 Co5 2.135 . S
Co14 O15 2.216 . S
Co14 O16 2.091 . S
Co14 O18 2.004 . S
Co14 O24 2.021 . S
Co14 O26 2.137 . S
Co14 O27 2.244 . S
O15 Co14 2.216 . S
O15 C22 1.247 . S
O16 Co14 2.091 . S
O16 C22 1.261 . S
C17 O26 1.247 . S
C17 O27 1.272 . S
O18 Co14 2.004 . S
O18 C23 1.259 . S
Co19 O20 2.061 . S
Co19 O25 2.052 . S
Co19 O27 2.135 . S
O20 Co19 2.061 . S
O20 C23 1.235 . S
C21 O24 1.238 . S
C21 O25 1.241 . S
C22 O15 1.247 . S
C22 O16 1.261 . S
C23 O18 1.259 . S
C23 O20 1.235 . S
O24 Co14 2.021 . S
O24 C21 1.238 . S
O25 Co19 2.052 . S
O25 C21 1.241 . S
O26 Co14 2.137 . S
O26 C17 1.247 . S
O27 Co14 2.244 . S
O27 C17 1.272 . S
O27 Co19 2.135 . S
Co28 O29 2.216 . S
Co28 O30 2.091 . S
Co28 O32 2.004 . S
Co28 O38 2.021 . S
Co28 O40 2.139 1_545 S
Co28 O41 2.244 1_545 S
O29 Co28 2.216 . S
O29 C36 1.247 . S
O30 Co28 2.091 . S
O30 C36 1.261 . S
C31 O40 1.263 . S
C31 O41 1.272 . S
O32 Co28 2.004 . S
O32 C37 1.259 . S
Co33 O34 2.061 . S
Co33 O39 2.052 . S
Co33 O41 2.135 . S
O34 Co33 2.061 . S
O34 C37 1.235 1_565 S
C35 O38 1.234 1_566 S
C35 O39 1.238 1_556 S
C36 O29 1.247 . S
C36 O30 1.261 . S
C37 O32 1.259 . S
C37 O34 1.235 1_545 S
O38 Co28 2.021 . S
O38 C35 1.234 1_544 S
O39 Co33 2.052 . S
O39 C35 1.238 1_554 S
O40 Co28 2.139 1_565 S
O40 C31 1.263 . S
O41 Co28 2.244 1_565 S
O41 C31 1.272 . S
O41 Co33 2.135 . S
Co42 O43 2.216 . S
Co42 O44 2.091 . S
Co42 O46 2.004 . S
Co42 O52 2.021 . S
Co42 O54 2.137 1_655 S
Co42 O55 2.244 1_655 S
O43 Co42 2.216 . S
O43 C50 1.247 . S
O44 Co42 2.091 . S
O44 C50 1.261 . S
C45 O54 1.247 . S
C45 O55 1.272 . S
O46 Co42 2.004 . S
O46 C51 1.310 . S
Co47 O48 2.061 . S
Co47 O53 2.052 . S
Co47 O55 2.135 . S
O48 Co47 2.061 . S
O48 C51 1.182 1_455 S
C49 O52 1.238 1_455 S
C49 O53 1.241 . S
C50 O43 1.247 . S
C50 O44 1.261 . S
C51 O46 1.310 . S
C51 O48 1.182 1_655 S
O52 Co42 2.021 . S
O52 C49 1.238 1_655 S
O53 Co47 2.052 . S
O53 C49 1.241 . S
O54 Co42 2.137 1_455 S
O54 C45 1.247 . S
O55 Co42 2.244 1_455 S
O55 C45 1.272 . S
O55 Co47 2.135 . S
Co56 O57 2.216 . S
Co56 O58 2.091 . S
Co56 O60 2.004 1_554 S
Co56 O66 2.021 . S
Co56 O68 2.137 1_554 S
Co56 O69 2.244 1_554 S
O57 Co56 2.216 . S
O57 C64 1.247 . S
O58 Co56 2.091 . S
O58 C64 1.261 . S
C59 O68 1.247 . S
C59 O69 1.272 . S
O60 Co56 2.004 1_556 S
O60 C65 1.259 . S
Co61 O62 2.061 . S
Co61 O67 2.052 1_556 S
Co61 O69 2.135 . S
O62 Co61 2.061 . S
O62 C65 1.235 . S
C63 O66 1.238 . S
C63 O67 1.241 . S
C64 O57 1.247 . S
C64 O58 1.261 . S
C65 O60 1.259 . S
C65 O62 1.235 . S
O66 Co56 2.021 . S
O66 C63 1.238 . S
O67 Co61 2.052 1_554 S
O67 C63 1.241 . S
O68 Co56 2.137 1_556 S
O68 C59 1.247 . S
O69 Co56 2.244 1_556 S
O69 C59 1.272 . S
O69 Co61 2.135 . S
Co70 O71 2.216 . S
Co70 O72 2.091 . S
Co70 O74 2.004 . S
Co70 O80 2.021 . S
Co70 O82 2.137 1_565 S
Co70 O83 2.244 1_565 S
O71 Co70 2.216 . S
O71 C78 1.247 . S
O72 Co70 2.091 . S
O72 C78 1.261 . S
C73 O82 1.247 . S
C73 O83 1.272 . S
O74 Co70 2.004 . S
O74 C79 1.259 . S
Co75 O76 2.061 . S
Co75 O81 2.052 . S
Co75 O83 2.135 . S
O76 Co75 2.061 . S
O76 C79 1.235 1_545 S
C77 O80 1.238 1_545 S
C77 O81 1.241 . S
C78 O71 1.247 . S
C78 O72 1.261 . S
C79 O74 1.259 . S
C79 O76 1.235 1_565 S
O80 Co70 2.021 . S
O80 C77 1.238 1_565 S
O81 Co75 2.052 . S
O81 C77 1.241 . S
O82 Co70 2.137 1_545 S
O82 C73 1.247 . S
O83 Co70 2.244 1_545 S
O83 C73 1.272 . S
O83 Co75 2.135 . S
Co84 O85 2.216 . S
Co84 O86 2.091 . S
Co84 O88 2.004 . S
Co84 O94 2.021 . S
Co84 O96 2.137 . S
Co84 O97 2.244 . S
O85 Co84 2.216 . S
O85 C92 1.247 . S
O86 Co84 2.091 . S
O86 C92 1.261 . S
C87 O96 1.247 . S
C87 O97 1.272 . S
O88 Co84 2.004 . S
O88 C93 1.259 . S
Co89 O90 2.061 . S
Co89 O95 2.052 . S
Co89 O97 2.135 . S
O90 Co89 2.061 . S
O90 C93 1.235 . S
C91 O94 1.238 . S
C91 O95 1.241 . S
C92 O85 1.247 . S
C92 O86 1.261 . S
C93 O88 1.259 . S
C93 O90 1.235 . S
O94 Co84 2.021 . S
O94 C91 1.238 . S
O95 Co89 2.052 . S
O95 C91 1.241 . S
O96 Co84 2.137 . S
O96 C87 1.247 . S
O97 Co84 2.244 . S
O97 C87 1.272 . S
O97 Co89 2.135 . S
Co98 O99 2.216 . S
Co98 O100 2.091 . S
Co98 O102 2.004 . S
Co98 O108 2.021 . S
Co98 O110 2.137 . S
Co98 O111 2.244 . S
O99 Co98 2.216 . S
O99 C106 1.247 . S
O100 Co98 2.091 . S
O100 C106 1.261 . S
C101 O110 1.247 . S
C101 O111 1.272 . S
O102 Co98 2.004 . S
O102 C107 1.259 . S
Co103 O104 2.061 . S
Co103 O109 2.052 . S
Co103 O111 2.135 . S
O104 Co103 2.061 . S
O104 C107 1.235 . S
C105 O108 1.238 . S
C105 O109 1.241 . S
C106 O99 1.247 . S
C106 O100 1.261 . S
C107 O102 1.259 . S
C107 O104 1.235 . S
O108 Co98 2.021 . S
O108 C105 1.238 . S
O109 Co103 2.052 . S
O109 C105 1.241 . S
O110 Co98 2.137 . S
O110 C101 1.247 . S
O111 Co98 2.244 . S
O111 C101 1.272 . S
O111 Co103 2.135 . S
Co112 O113 2.216 . S
Co112 O114 2.091 . S
Co112 O116 2.004 . S
Co112 O122 2.021 . S
Co112 O124 2.137 . S
Co112 O125 2.244 . S
O113 Co112 2.216 . S
O113 C120 1.247 . S
O114 Co112 2.091 . S
O114 C120 1.261 . S
C115 O124 1.247 . S
C115 O125 1.272 . S
O116 Co112 2.004 . S
O116 C121 1.259 . S
Co117 O118 2.061 . S
Co117 O123 2.052 . S
Co117 O125 2.135 . S
O118 Co117 2.061 . S
O118 C121 1.235 . S
C119 O122 1.238 . S
C119 O123 1.241 . S
C120 O113 1.247 . S
C120 O114 1.261 . S
C121 O116 1.259 . S
C121 O118 1.235 . S
O122 Co112 2.021 . S
O122 C119 1.238 . S
O123 Co117 2.052 . S
O123 C119 1.241 . S
O124 Co112 2.137 . S
O124 C115 1.247 . S
O125 Co112 2.244 . S
O125 C115 1.272 . S
O125 Co117 2.135 . S
Co126 O127 2.216 . S
Co126 O128 2.091 . S
Co126 O130 2.004 . S
Co126 O136 2.021 . S
Co126 O138 2.137 . S
Co126 O139 2.244 . S
O127 Co126 2.216 . S
O127 C134 1.247 . S
O128 Co126 2.091 . S
O128 C134 1.261 . S
C129 O138 1.247 . S
C129 O139 1.272 . S
O130 Co126 2.004 . S
O130 C135 1.259 . S
Co131 O132 2.061 . S
Co131 O137 2.052 . S
Co131 O139 2.135 . S
O132 Co131 2.061 . S
O132 C135 1.235 . S
C133 O136 1.238 . S
C133 O137 1.241 . S
C134 O127 1.247 . S
C134 O128 1.261 . S
C135 O130 1.259 . S
C135 O132 1.235 . S
O136 Co126 2.021 . S
O136 C133 1.238 . S
O137 Co131 2.052 . S
O137 C133 1.241 . S
O138 Co126 2.137 . S
O138 C129 1.247 . S
O139 Co126 2.244 . S
O139 C129 1.272 . S
O139 Co131 2.135 . S
Co140 O141 2.216 . S
Co140 O142 2.091 . S
Co140 O144 2.004 . S
Co140 O150 2.021 . S
Co140 O152 2.137 . S
Co140 O153 2.244 . S
O141 Co140 2.216 . S
O141 C148 1.247 . S
O142 Co140 2.091 . S
O142 C148 1.261 . S
C143 O152 1.247 . S
C143 O153 1.272 . S
O144 Co140 2.004 . S
O144 C149 1.259 . S
Co145 O146 2.061 . S
Co145 O151 2.052 . S
Co145 O153 2.135 . S
O146 Co145 2.061 . S
O146 C149 1.235 . S
C147 O150 1.238 . S
C147 O151 1.241 . S
C148 O141 1.247 . S
C148 O142 1.261 . S
C149 O144 1.259 . S
C149 O146 1.235 . S
O150 Co140 2.021 . S
O150 C147 1.238 . S
O151 Co145 2.052 . S
O151 C147 1.241 . S
O152 Co140 2.137 . S
O152 C143 1.247 . S
O153 Co140 2.244 . S
O153 C143 1.272 . S
O153 Co145 2.135 . S
Co154 O155 2.216 . S
Co154 O156 2.091 . S
Co154 O158 2.004 . S
Co154 O164 2.021 . S
Co154 O166 2.137 . S
Co154 O167 2.244 . S
O155 Co154 2.216 . S
O155 C162 1.247 . S
O156 Co154 2.091 . S
O156 C162 1.261 . S
C157 O166 1.247 . S
C157 O167 1.272 . S
O158 Co154 2.004 . S
O158 C163 1.259 . S
Co159 O160 2.061 . S
Co159 O165 2.052 . S
Co159 O167 2.135 . S
O160 Co159 2.061 . S
O160 C163 1.235 . S
C161 O164 1.238 . S
C161 O165 1.241 . S
C162 O155 1.247 . S
C162 O156 1.261 . S
C163 O158 1.259 . S
C163 O160 1.235 . S
O164 Co154 2.021 . S
O164 C161 1.238 . S
O165 Co159 2.052 . S
O165 C161 1.241 . S
O166 Co154 2.137 . S
O166 C157 1.247 . S
O167 Co154 2.244 . S
O167 C157 1.272 . S
O167 Co159 2.135 . S
Co168 O169 2.216 . S
Co168 O170 2.091 . S
Co168 O172 2.004 . S
Co168 O178 2.021 . S
Co168 O180 2.137 . S
Co168 O181 2.244 . S
O169 Co168 2.216 . S
O169 C176 1.247 . S
O170 Co168 2.091 . S
O170 C176 1.261 . S
C171 O180 1.247 . S
C171 O181 1.272 . S
O172 Co168 2.004 . S
O172 C177 1.259 . S
Co173 O174 2.061 . S
Co173 O179 2.052 . S
Co173 O181 2.135 . S
O174 Co173 2.061 . S
O174 C177 1.235 . S
C175 O178 1.238 . S
C175 O179 1.241 . S
C176 O169 1.247 . S
C176 O170 1.261 . S
C177 O172 1.259 . S
C177 O174 1.235 . S
O178 Co168 2.021 . S
O178 C175 1.238 . S
O179 Co173 2.052 . S
O179 C175 1.241 . S
O180 Co168 2.137 . S
O180 C171 1.247 . S
O181 Co168 2.244 . S
O181 C171 1.272 . S
O181 Co173 2.135 . S
Co182 O183 2.216 . S
Co182 O184 2.091 . S
Co182 O186 2.004 . S
Co182 O192 2.021 . S
Co182 O194 2.137 . S
Co182 O195 2.244 . S
O183 Co182 2.216 . S
O183 C190 1.233 1_655 S
O184 Co182 2.091 . S
O184 C190 1.263 1_655 S
C185 O194 1.247 . S
C185 O195 1.272 . S
O186 Co182 2.004 . S
O186 C191 1.259 . S
Co187 O188 2.061 . S
Co187 O193 2.052 . S
Co187 O195 2.135 . S
O188 Co187 2.061 . S
O188 C191 1.235 . S
C189 O192 1.238 . S
C189 O193 1.241 . S
C190 O183 1.233 1_455 S
C190 O184 1.263 1_455 S
C191 O186 1.259 . S
C191 O188 1.235 . S
O192 Co182 2.021 . S
O192 C189 1.238 . S
O193 Co187 2.052 . S
O193 C189 1.241 . S
O194 Co182 2.137 . S
O194 C185 1.247 . S
O195 Co182 2.244 . S
O195 C185 1.272 . S
O195 Co187 2.135 . S
Co196 O197 2.216 . S
Co196 O198 2.091 . S
Co196 O200 2.004 . S
Co196 O206 2.021 . S
Co196 O208 2.137 . S
Co196 O209 2.244 . S
O197 Co196 2.216 . S
O197 C204 1.247 . S
O198 Co196 2.091 . S
O198 C204 1.261 . S
C199 O208 1.247 . S
C199 O209 1.272 . S
O200 Co196 2.004 . S
O200 C205 1.259 . S
Co201 O202 2.061 . S
Co201 O207 2.052 . S
Co201 O209 2.135 . S
O202 Co201 2.061 . S
O202 C205 1.235 . S
C203 O206 1.238 . S
C203 O207 1.241 . S
C204 O197 1.247 . S
C204 O198 1.261 . S
C205 O200 1.259 . S
C205 O202 1.235 . S
O206 Co196 2.021 . S
O206 C203 1.238 . S
O207 Co201 2.052 . S
O207 C203 1.241 . S
O208 Co196 2.137 . S
O208 C199 1.247 . S
O209 Co196 2.244 . S
O209 C199 1.272 . S
O209 Co201 2.135 . S
Co210 O211 2.216 . S
Co210 O212 2.091 . S
Co210 O214 2.004 . S
Co210 O220 2.021 . S
Co210 O222 2.137 . S
Co210 O223 2.244 . S
O211 Co210 2.216 . S
O211 C218 1.247 . S
O212 Co210 2.091 . S
O212 C218 1.261 . S
C213 O222 1.247 . S
C213 O223 1.272 . S
O214 Co210 2.004 . S
O214 C219 1.259 . S
Co215 O216 2.061 . S
Co215 O221 2.052 . S
Co215 O223 2.135 . S
O216 Co215 2.061 . S
O216 C219 1.235 . S
C217 O220 1.238 . S
C217 O221 1.241 . S
C218 O211 1.247 . S
C218 O212 1.261 . S
C219 O214 1.259 . S
C219 O216 1.235 . S
O220 Co210 2.021 . S
O220 C217 1.238 . S
O221 Co215 2.052 . S
O221 C217 1.241 . S
O222 Co210 2.137 . S
O222 C213 1.247 . S
O223 Co210 2.244 . S
O223 C213 1.272 . S
O223 Co215 2.135 . S
Co224 O225 2.216 . S
Co224 O226 2.091 . S
Co224 O228 2.004 . S
Co224 O234 2.021 . S
Co224 O236 2.137 . S
Co224 O237 2.244 . S
O225 Co224 2.216 . S
O225 C232 1.247 . S
O226 Co224 2.091 . S
O226 C232 1.261 . S
C227 O236 1.247 . S
C227 O237 1.272 . S
O228 Co224 2.004 . S
O228 C233 1.259 . S
Co229 O230 2.061 . S
Co229 O235 2.052 . S
Co229 O237 2.135 . S
O230 Co229 2.061 . S
O230 C233 1.235 . S
C231 O234 1.238 . S
C231 O235 1.241 . S
C232 O225 1.247 . S
C232 O226 1.261 . S
C233 O228 1.259 . S
C233 O230 1.235 . S
O234 Co224 2.021 . S
O234 C231 1.238 . S
O235 Co229 2.052 . S
O235 C231 1.241 . S
O236 Co224 2.137 . S
O236 C227 1.247 . S
O237 Co224 2.244 . S
O237 C227 1.272 . S
O237 Co229 2.135 . S
Co238 O239 2.216 . S
Co238 O240 2.091 . S
Co238 O242 2.004 . S
Co238 O248 2.021 . S
Co238 O250 2.137 . S
Co238 O251 2.244 . S
O239 Co238 2.216 . S
O239 C246 1.247 . S
O240 Co238 2.091 . S
O240 C246 1.261 . S
C241 O250 1.247 . S
C241 O251 1.272 . S
O242 Co238 2.004 . S
O242 C247 1.259 . S
Co243 O244 2.061 . S
Co243 O249 2.052 . S
Co243 O251 2.135 . S
O244 Co243 2.061 . S
O244 C247 1.235 . S
C245 O248 1.238 . S
C245 O249 1.241 . S
C246 O239 1.247 . S
C246 O240 1.261 . S
C247 O242 1.259 . S
C247 O244 1.235 . S
O248 Co238 2.021 . S
O248 C245 1.238 . S
O249 Co243 2.052 . S
O249 C245 1.241 . S
O250 Co238 2.137 . S
O250 C241 1.247 . S
O251 Co238 2.244 . S
O251 C241 1.272 . S
O251 Co243 2.135 . S
H252 O278 0.856 . S
H253 O281 0.854 . S
H254 C289 0.930 . S
H255 C290 0.930 . S
H256 C292 0.930 . S
H257 C293 0.930 . S
H258 C295 0.931 . S
H259 C296 0.930 . S
H260 C298 0.930 . S
H261 C299 0.929 . S
H262 C301 0.930 . S
H263 C302 0.931 . S
H264 C304 0.930 . S
H265 C305 0.929 . S
H266 C307 0.931 . S
H267 C308 0.930 . S
H268 C310 0.930 . S
H269 C311 0.932 . S
H270 C313 0.930 . S
H271 C314 0.929 . S
H272 C316 0.931 . S
H273 C317 0.930 . S
H274 C319 0.929 . S
H275 C320 0.931 . S
H276 C322 0.930 . S
H277 C323 0.929 . S
O278 H252 0.856 . S
O278 C324 1.300 . S
O279 C324 1.209 . S
O280 C325 1.199 . S
O281 H253 0.854 . S
O281 C325 1.297 . S
C282 C283 1.404 . S
C282 C287 1.397 . S
C282 C288 1.492 . S
C283 C282 1.404 . S
C283 C284 1.396 . S
C283 C294 1.492 . S
C284 C283 1.396 . S
C284 C285 1.397 . S
C284 C300 1.509 . S
C285 C284 1.397 . S
C285 C286 1.412 . S
C285 C306 1.485 . S
C286 C285 1.412 . S
C286 C287 1.388 . S
C286 C312 1.490 . S
C287 C282 1.397 . S
C287 C286 1.388 . S
C287 C318 1.519 . S
C288 C282 1.492 . S
C288 C289 1.363 . S
C288 C293 1.390 . S
C289 H254 0.930 . S
C289 C288 1.363 . S
C289 C290 1.372 . S
C290 H255 0.930 . S
C290 C289 1.372 . S
C290 C291 1.383 . S
C291 C290 1.383 . S
C291 C292 1.395 . S
C292 H256 0.930 . S
C292 C291 1.395 . S
C292 C293 1.362 . S
C293 H257 0.930 . S
C293 C288 1.390 . S
C293 C292 1.362 . S
C294 C283 1.492 . S
C294 C295 1.377 . S
C294 C299 1.397 . S
C295 H258 0.931 . S
C295 C294 1.377 . S
C295 C296 1.376 . S
C296 H259 0.930 . S
C296 C295 1.376 . S
C296 C297 1.376 . S
C297 C296 1.376 . S
C297 C298 1.378 . S
C297 C324 1.486 . S
C298 H260 0.930 . S
C298 C297 1.378 . S
C298 C299 1.376 . S
C299 H261 0.929 . S
C299 C294 1.397 . S
C299 C298 1.376 . S
C300 C284 1.509 . S
C300 C301 1.391 . S
C300 C305 1.386 . S
C301 H262 0.930 . S
C301 C300 1.391 . S
C301 C302 1.375 . S
C302 H263 0.931 . S
C302 C301 1.375 . S
C302 C303 1.375 . S
C303 C302 1.375 . S
C303 C304 1.361 . S
C304 H264 0.930 . S
C304 C303 1.361 . S
C304 C305 1.399 . S
C305 H265 0.929 . S
C305 C300 1.386 . S
C305 C304 1.399 . S
C306 C285 1.485 . S
C306 C307 1.394 . S
C306 C311 1.360 . S
C307 H266 0.931 . S
C307 C306 1.394 . S
C307 C308 1.372 . S
C308 H267 0.930 . S
C308 C307 1.372 . S
C308 C309 1.397 . S
C309 C308 1.397 . S
C309 C310 1.390 . S
C309 C325 1.476 . S
C310 H268 0.930 . S
C310 C309 1.390 . S
C310 C311 1.366 . S
C311 H269 0.932 . S
C311 C306 1.360 . S
C311 C310 1.366 . S
C312 C286 1.490 . S
C312 C313 1.380 . S
C312 C317 1.386 . S
C313 H270 0.930 . S
C313 C312 1.380 . S
C313 C314 1.381 . S
C314 H271 0.929 . S
C314 C313 1.381 . S
C314 C315 1.371 . S
C315 C314 1.371 . S
C315 C316 1.380 . S
C316 H272 0.931 . S
C316 C315 1.380 . S
C316 C317 1.387 . S
C317 H273 0.930 . S
C317 C312 1.386 . S
C317 C316 1.387 . S
C318 C287 1.519 . S
C318 C319 1.377 . S
C318 C323 1.361 . S
C319 H274 0.929 . S
C319 C318 1.377 . S
C319 C320 1.386 . S
C320 H275 0.931 . S
C320 C319 1.386 . S
C320 C321 1.363 . S
C321 C320 1.363 . S
C321 C322 1.385 . S
C322 H276 0.930 . S
C322 C321 1.385 . S
C322 C323 1.396 . S
C323 H277 0.929 . S
C323 C318 1.361 . S
C323 C322 1.396 . S
C324 O278 1.300 . S
C324 O279 1.209 . S
C324 C297 1.486 . S
C325 O280 1.199 . S
C325 O281 1.297 . S
C325 C309 1.476 . S
H326 O352 0.856 . S
H327 O355 0.854 . S
H328 C363 0.930 . S
H329 C364 0.930 . S
H330 C366 0.930 . S
H331 C367 0.930 . S
H332 C369 0.931 . S
H333 C370 0.930 . S
H334 C372 0.930 . S
H335 C373 0.929 . S
H336 C375 0.930 . S
H337 C376 0.931 . S
H338 C378 0.930 . S
H339 C379 0.929 . S
H340 C381 0.931 . S
H341 C382 0.930 . S
H342 C384 0.930 . S
H343 C385 0.932 . S
H344 C387 0.930 . S
H345 C388 0.929 . S
H346 C390 0.931 . S
H347 C391 0.930 . S
H348 C393 0.929 . S
H349 C394 0.931 . S
H350 C396 0.930 . S
H351 C397 0.929 . S
O352 H326 0.856 . S
O352 C398 1.300 . S
O353 C398 1.209 . S
O354 C399 1.199 . S
O355 H327 0.854 . S
O355 C399 1.297 . S
C356 C357 1.404 . S
C356 C361 1.397 . S
C356 C362 1.492 . S
C357 C356 1.404 . S
C357 C358 1.396 . S
C357 C368 1.492 . S
C358 C357 1.396 . S
C358 C359 1.397 . S
C358 C374 1.509 . S
C359 C358 1.397 . S
C359 C360 1.412 . S
C359 C380 1.485 . S
C360 C359 1.412 . S
C360 C361 1.388 . S
C360 C386 1.490 . S
C361 C356 1.397 . S
C361 C360 1.388 . S
C361 C392 1.519 . S
C362 C356 1.492 . S
C362 C363 1.363 . S
C362 C367 1.390 . S
C363 H328 0.930 . S
C363 C362 1.363 . S
C363 C364 1.372 . S
C364 H329 0.930 . S
C364 C363 1.372 . S
C364 C365 1.383 . S
C365 C364 1.383 . S
C365 C366 1.395 . S
C366 H330 0.930 . S
C366 C365 1.395 . S
C366 C367 1.362 . S
C367 H331 0.930 . S
C367 C362 1.390 . S
C367 C366 1.362 . S
C368 C357 1.492 . S
C368 C369 1.377 . S
C368 C373 1.397 . S
C369 H332 0.931 . S
C369 C368 1.377 . S
C369 C370 1.376 . S
C370 H333 0.930 . S
C370 C369 1.376 . S
C370 C371 1.376 . S
C371 C370 1.376 . S
C371 C372 1.378 . S
C371 C398 1.486 . S
C372 H334 0.930 . S
C372 C371 1.378 . S
C372 C373 1.376 . S
C373 H335 0.929 . S
C373 C368 1.397 . S
C373 C372 1.376 . S
C374 C358 1.509 . S
C374 C375 1.391 . S
C374 C379 1.386 . S
C375 H336 0.930 . S
C375 C374 1.391 . S
C375 C376 1.375 . S
C376 H337 0.931 . S
C376 C375 1.375 . S
C376 C377 1.375 . S
C377 C376 1.375 . S
C377 C378 1.361 . S
C378 H338 0.930 . S
C378 C377 1.361 . S
C378 C379 1.399 . S
C379 H339 0.929 . S
C379 C374 1.386 . S
C379 C378 1.399 . S
C380 C359 1.485 . S
C380 C381 1.394 . S
C380 C385 1.360 . S
C381 H340 0.931 . S
C381 C380 1.394 . S
C381 C382 1.372 . S
C382 H341 0.930 . S
C382 C381 1.372 . S
C382 C383 1.397 . S
C383 C382 1.397 . S
C383 C384 1.390 . S
C383 C399 1.476 . S
C384 H342 0.930 . S
C384 C383 1.390 . S
C384 C385 1.366 . S
C385 H343 0.932 . S
C385 C380 1.360 . S
C385 C384 1.366 . S
C386 C360 1.490 . S
C386 C387 1.380 . S
C386 C391 1.386 . S
C387 H344 0.930 . S
C387 C386 1.380 . S
C387 C388 1.381 . S
C388 H345 0.929 . S
C388 C387 1.381 . S
C388 C389 1.371 . S
C389 C388 1.371 . S
C389 C390 1.380 . S
C390 H346 0.931 . S
C390 C389 1.380 . S
C390 C391 1.387 . S
C391 H347 0.930 . S
C391 C386 1.386 . S
C391 C390 1.387 . S
C392 C361 1.519 . S
C392 C393 1.377 . S
C392 C397 1.361 . S
C393 H348 0.929 . S
C393 C392 1.377 . S
C393 C394 1.386 . S
C394 H349 0.931 . S
C394 C393 1.386 . S
C394 C395 1.363 . S
C395 C394 1.363 . S
C395 C396 1.385 . S
C396 H350 0.930 . S
C396 C395 1.385 . S
C396 C397 1.396 . S
C397 H351 0.929 . S
C397 C392 1.361 . S
C397 C396 1.396 . S
C398 O352 1.300 . S
C398 O353 1.209 . S
C398 C371 1.486 . S
C399 O354 1.199 . S
C399 O355 1.297 . S
C399 C383 1.476 . S
H400 O426 0.856 . S
H401 O429 0.854 . S
H402 C437 0.930 . S
H403 C438 0.930 . S
H404 C440 0.930 . S
H405 C441 0.930 . S
H406 C443 0.931 . S
H407 C444 0.930 . S
H408 C446 0.930 . S
H409 C447 0.929 . S
H410 C449 0.930 . S
H411 C450 0.931 . S
H412 C452 0.930 . S
H413 C453 0.929 . S
H414 C455 0.931 . S
H415 C456 0.930 . S
H416 C458 0.930 . S
H417 C459 0.932 . S
H418 C461 0.930 . S
H419 C462 0.929 . S
H420 C464 0.931 . S
H421 C465 0.930 . S
H422 C467 0.929 . S
H423 C468 0.931 . S
H424 C470 0.930 . S
H425 C471 0.929 . S
O426 H400 0.856 . S
O426 C472 1.300 . S
O427 C472 1.209 . S
O428 C473 1.199 . S
O429 H401 0.854 . S
O429 C473 1.297 . S
C430 C431 1.404 . S
C430 C435 1.397 . S
C430 C436 1.492 . S
C431 C430 1.404 . S
C431 C432 1.396 . S
C431 C442 1.492 . S
C432 C431 1.396 . S
C432 C433 1.397 . S
C432 C448 1.509 . S
C433 C432 1.397 . S
C433 C434 1.412 . S
C433 C454 1.485 . S
C434 C433 1.412 . S
C434 C435 1.388 . S
C434 C460 1.490 . S
C435 C430 1.397 . S
C435 C434 1.388 . S
C435 C466 1.519 . S
C436 C430 1.492 . S
C436 C437 1.363 . S
C436 C441 1.390 . S
C437 H402 0.930 . S
C437 C436 1.363 . S
C437 C438 1.372 . S
C438 H403 0.930 . S
C438 C437 1.372 . S
C438 C439 1.383 . S
C439 C438 1.383 . S
C439 C440 1.395 . S
C440 H404 0.930 . S
C440 C439 1.395 . S
C440 C441 1.362 . S
C441 H405 0.930 . S
C441 C436 1.390 . S
C441 C440 1.362 . S
C442 C431 1.492 . S
C442 C443 1.377 . S
C442 C447 1.397 . S
C443 H406 0.931 . S
C443 C442 1.377 . S
C443 C444 1.376 . S
C444 H407 0.930 . S
C444 C443 1.376 . S
C444 C445 1.376 . S
C445 C444 1.376 . S
C445 C446 1.378 . S
C445 C472 1.486 . S
C446 H408 0.930 . S
C446 C445 1.378 . S
C446 C447 1.376 . S
C447 H409 0.929 . S
C447 C442 1.397 . S
C447 C446 1.376 . S
C448 C432 1.509 . S
C448 C449 1.391 . S
C448 C453 1.386 . S
C449 H410 0.930 . S
C449 C448 1.391 . S
C449 C450 1.375 . S
C450 H411 0.931 . S
C450 C449 1.375 . S
C450 C451 1.375 . S
C451 C450 1.375 . S
C451 C452 1.361 . S
C452 H412 0.930 . S
C452 C451 1.361 . S
C452 C453 1.399 . S
C453 H413 0.929 . S
C453 C448 1.386 . S
C453 C452 1.399 . S
C454 C433 1.485 . S
C454 C455 1.394 . S
C454 C459 1.360 . S
C455 H414 0.931 . S
C455 C454 1.394 . S
C455 C456 1.372 . S
C456 H415 0.930 . S
C456 C455 1.372 . S
C456 C457 1.397 . S
C457 C456 1.397 . S
C457 C458 1.390 . S
C457 C473 1.476 . S
C458 H416 0.930 . S
C458 C457 1.390 . S
C458 C459 1.366 . S
C459 H417 0.932 . S
C459 C454 1.360 . S
C459 C458 1.366 . S
C460 C434 1.490 . S
C460 C461 1.380 . S
C460 C465 1.386 . S
C461 H418 0.930 . S
C461 C460 1.380 . S
C461 C462 1.381 . S
C462 H419 0.929 . S
C462 C461 1.381 . S
C462 C463 1.371 . S
C463 C462 1.371 . S
C463 C464 1.380 . S
C464 H420 0.931 . S
C464 C463 1.380 . S
C464 C465 1.387 . S
C465 H421 0.930 . S
C465 C460 1.386 . S
C465 C464 1.387 . S
C466 C435 1.519 . S
C466 C467 1.377 . S
C466 C471 1.361 . S
C467 H422 0.929 . S
C467 C466 1.377 . S
C467 C468 1.386 . S
C468 H423 0.931 . S
C468 C467 1.386 . S
C468 C469 1.363 . S
C469 C468 1.363 . S
C469 C470 1.385 . S
C470 H424 0.930 . S
C470 C469 1.385 . S
C470 C471 1.396 . S
C471 H425 0.929 . S
C471 C466 1.361 . S
C471 C470 1.396 . S
C472 O426 1.300 . S
C472 O427 1.209 . S
C472 C445 1.486 . S
C473 O428 1.199 . S
C473 O429 1.297 . S
C473 C457 1.476 . S
H474 O500 0.856 . S
H475 O503 0.854 . S
H476 C511 0.930 . S
H477 C512 0.930 . S
H478 C514 0.930 . S
H479 C515 0.930 . S
H480 C517 0.931 . S
H481 C518 0.930 . S
H482 C520 0.930 . S
H483 C521 0.929 . S
H484 C523 0.930 . S
H485 C524 0.931 . S
H486 C526 0.930 . S
H487 C527 0.929 . S
H488 C529 0.931 . S
H489 C530 0.930 . S
H490 C532 0.930 . S
H491 C533 0.932 . S
H492 C535 0.930 . S
H493 C536 0.929 . S
H494 C538 0.931 . S
H495 C539 0.930 . S
H496 C541 0.929 . S
H497 C542 0.931 . S
H498 C544 0.930 . S
H499 C545 0.929 . S
O500 H474 0.856 . S
O500 C546 1.300 1_554 S
O501 C546 1.213 . S
O502 C547 1.199 . S
O503 H475 0.854 . S
O503 C547 1.297 . S
C504 C505 1.404 . S
C504 C509 1.397 . S
C504 C510 1.492 . S
C505 C504 1.404 . S
C505 C506 1.396 . S
C505 C516 1.492 . S
C506 C505 1.396 . S
C506 C507 1.397 . S
C506 C522 1.509 . S
C507 C506 1.397 . S
C507 C508 1.412 . S
C507 C528 1.485 . S
C508 C507 1.412 . S
C508 C509 1.388 . S
C508 C534 1.490 . S
C509 C504 1.397 . S
C509 C508 1.388 . S
C509 C540 1.519 . S
C510 C504 1.492 . S
C510 C511 1.363 . S
C510 C515 1.390 . S
C511 H476 0.930 . S
C511 C510 1.363 . S
C511 C512 1.372 . S
C512 H477 0.930 . S
C512 C511 1.372 . S
C512 C513 1.383 . S
C513 C512 1.383 . S
C513 C514 1.395 . S
C514 H478 0.930 . S
C514 C513 1.395 . S
C514 C515 1.362 . S
C515 H479 0.930 . S
C515 C510 1.390 . S
C515 C514 1.362 . S
C516 C505 1.492 . S
C516 C517 1.377 . S
C516 C521 1.397 . S
C517 H480 0.931 . S
C517 C516 1.377 . S
C517 C518 1.376 . S
C518 H481 0.930 . S
C518 C517 1.376 . S
C518 C519 1.376 . S
C519 C518 1.376 . S
C519 C520 1.378 . S
C519 C546 1.486 . S
C520 H482 0.930 . S
C520 C519 1.378 . S
C520 C521 1.376 . S
C521 H483 0.929 . S
C521 C516 1.397 . S
C521 C520 1.376 . S
C522 C506 1.509 . S
C522 C523 1.391 . S
C522 C527 1.386 . S
C523 H484 0.930 . S
C523 C522 1.391 . S
C523 C524 1.375 . S
C524 H485 0.931 . S
C524 C523 1.375 . S
C524 C525 1.375 . S
C525 C524 1.375 . S
C525 C526 1.361 . S
C526 H486 0.930 . S
C526 C525 1.361 . S
C526 C527 1.399 . S
C527 H487 0.929 . S
C527 C522 1.386 . S
C527 C526 1.399 . S
C528 C507 1.485 . S
C528 C529 1.394 . S
C528 C533 1.360 . S
C529 H488 0.931 . S
C529 C528 1.394 . S
C529 C530 1.372 . S
C530 H489 0.930 . S
C530 C529 1.372 . S
C530 C531 1.397 . S
C531 C530 1.397 . S
C531 C532 1.390 . S
C531 C547 1.476 . S
C532 H490 0.930 . S
C532 C531 1.390 . S
C532 C533 1.366 . S
C533 H491 0.932 . S
C533 C528 1.360 . S
C533 C532 1.366 . S
C534 C508 1.490 . S
C534 C535 1.380 . S
C534 C539 1.386 . S
C535 H492 0.930 . S
C535 C534 1.380 . S
C535 C536 1.381 . S
C536 H493 0.929 . S
C536 C535 1.381 . S
C536 C537 1.371 . S
C537 C536 1.371 . S
C537 C538 1.380 . S
C538 H494 0.931 . S
C538 C537 1.380 . S
C538 C539 1.387 . S
C539 H495 0.930 . S
C539 C534 1.386 . S
C539 C538 1.387 . S
C540 C509 1.519 . S
C540 C541 1.377 . S
C540 C545 1.361 . S
C541 H496 0.929 . S
C541 C540 1.377 . S
C541 C542 1.386 . S
C542 H497 0.931 . S
C542 C541 1.386 . S
C542 C543 1.363 . S
C543 C542 1.363 . S
C543 C544 1.385 . S
C544 H498 0.930 . S
C544 C543 1.385 . S
C544 C545 1.396 . S
C545 H499 0.929 . S
C545 C540 1.361 . S
C545 C544 1.396 . S
C546 O500 1.300 1_556 S
C546 O501 1.213 . S
C546 C519 1.486 . S
C547 O502 1.199 . S
C547 O503 1.297 . S
C547 C531 1.476 . S
H548 O574 0.856 . S
H549 O577 0.854 . S
H550 C585 0.930 . S
H551 C586 0.930 . S
H552 C588 0.930 . S
H553 C589 0.930 . S
H554 C591 0.931 . S
H555 C592 0.930 . S
H556 C594 0.930 . S
H557 C595 0.929 . S
H558 C597 0.930 . S
H559 C598 0.931 . S
H560 C600 0.930 . S
H561 C601 0.929 . S
H562 C603 0.931 . S
H563 C604 0.930 . S
H564 C606 0.930 . S
H565 C607 0.932 . S
H566 C609 0.930 . S
H567 C610 0.929 . S
H568 C612 0.931 . S
H569 C613 0.930 . S
H570 C615 0.929 . S
H571 C616 0.931 . S
H572 C618 0.930 . S
H573 C619 0.929 . S
O574 H548 0.856 . S
O574 C620 1.300 . S
O575 C620 1.209 . S
O576 C621 1.199 . S
O577 H549 0.854 . S
O577 C621 1.297 . S
C578 C579 1.404 . S
C578 C583 1.397 . S
C578 C584 1.492 . S
C579 C578 1.404 . S
C579 C580 1.396 . S
C579 C590 1.492 . S
C580 C579 1.396 . S
C580 C581 1.397 . S
C580 C596 1.509 . S
C581 C580 1.397 . S
C581 C582 1.412 . S
C581 C602 1.485 . S
C582 C581 1.412 . S
C582 C583 1.388 . S
C582 C608 1.490 . S
C583 C578 1.397 . S
C583 C582 1.388 . S
C583 C614 1.519 . S
C584 C578 1.492 . S
C584 C585 1.363 . S
C584 C589 1.390 . S
C585 H550 0.930 . S
C585 C584 1.363 . S
C585 C586 1.372 . S
C586 H551 0.930 . S
C586 C585 1.372 . S
C586 C587 1.383 . S
C587 C586 1.383 . S
C587 C588 1.395 . S
C588 H552 0.930 . S
C588 C587 1.395 . S
C588 C589 1.362 . S
C589 H553 0.930 . S
C589 C584 1.390 . S
C589 C588 1.362 . S
C590 C579 1.492 . S
C590 C591 1.377 . S
C590 C595 1.397 . S
C591 H554 0.931 . S
C591 C590 1.377 . S
C591 C592 1.376 . S
C592 H555 0.930 . S
C592 C591 1.376 . S
C592 C593 1.376 . S
C593 C592 1.376 . S
C593 C594 1.378 . S
C593 C620 1.486 1_556 S
C594 H556 0.930 . S
C594 C593 1.378 . S
C594 C595 1.376 . S
C595 H557 0.929 . S
C595 C590 1.397 . S
C595 C594 1.376 . S
C596 C580 1.509 . S
C596 C597 1.391 . S
C596 C601 1.386 . S
C597 H558 0.930 . S
C597 C596 1.391 . S
C597 C598 1.375 . S
C598 H559 0.931 . S
C598 C597 1.375 . S
C598 C599 1.375 . S
C599 C598 1.375 . S
C599 C600 1.361 . S
C600 H560 0.930 . S
C600 C599 1.361 . S
C600 C601 1.399 . S
C601 H561 0.929 . S
C601 C596 1.386 . S
C601 C600 1.399 . S
C602 C581 1.485 . S
C602 C603 1.394 . S
C602 C607 1.360 . S
C603 H562 0.931 . S
C603 C602 1.394 . S
C603 C604 1.372 . S
C604 H563 0.930 . S
C604 C603 1.372 . S
C604 C605 1.397 . S
C605 C604 1.397 . S
C605 C606 1.390 . S
C605 C621 1.476 . S
C606 H564 0.930 . S
C606 C605 1.390 . S
C606 C607 1.366 . S
C607 H565 0.932 . S
C607 C602 1.360 . S
C607 C606 1.366 . S
C608 C582 1.490 . S
C608 C609 1.380 . S
C608 C613 1.386 . S
C609 H566 0.930 . S
C609 C608 1.380 . S
C609 C610 1.381 . S
C610 H567 0.929 . S
C610 C609 1.381 . S
C610 C611 1.371 . S
C611 C610 1.371 . S
C611 C612 1.380 . S
C612 H568 0.931 . S
C612 C611 1.380 . S
C612 C613 1.387 . S
C613 H569 0.930 . S
C613 C608 1.386 . S
C613 C612 1.387 . S
C614 C583 1.519 . S
C614 C615 1.377 . S
C614 C619 1.361 . S
C615 H570 0.929 . S
C615 C614 1.377 . S
C615 C616 1.386 . S
C616 H571 0.931 . S
C616 C615 1.386 . S
C616 C617 1.363 . S
C617 C616 1.363 . S
C617 C618 1.385 . S
C618 H572 0.930 . S
C618 C617 1.385 . S
C618 C619 1.396 . S
C619 H573 0.929 . S
C619 C614 1.361 . S
C619 C618 1.396 . S
C620 O574 1.300 . S
C620 O575 1.209 . S
C620 C593 1.486 1_554 S
C621 O576 1.199 . S
C621 O577 1.297 . S
C621 C605 1.476 . S
H622 O648 0.856 . S
H623 O651 0.854 . S
H624 C659 0.930 . S
H625 C660 0.930 . S
H626 C662 0.930 . S
H627 C663 0.930 . S
H628 C665 0.931 . S
H629 C666 0.930 . S
H630 C668 0.930 . S
H631 C669 0.929 . S
H632 C671 0.930 . S
H633 C672 0.931 . S
H634 C674 0.930 . S
H635 C675 0.929 . S
H636 C677 0.931 . S
H637 C678 0.930 . S
H638 C680 0.930 . S
H639 C681 0.932 . S
H640 C683 0.930 . S
H641 C684 0.929 . S
H642 C686 0.931 . S
H643 C687 0.930 . S
H644 C689 0.929 . S
H645 C690 0.931 . S
H646 C692 0.930 . S
H647 C693 0.929 . S
O648 H622 0.856 . S
O648 C694 1.300 . S
O649 C694 1.209 . S
O650 C695 1.199 . S
O651 H623 0.854 . S
O651 C695 1.297 . S
C652 C653 1.404 . S
C652 C657 1.397 . S
C652 C658 1.492 . S
C653 C652 1.404 . S
C653 C654 1.396 . S
C653 C664 1.492 . S
C654 C653 1.396 . S
C654 C655 1.397 . S
C654 C670 1.509 . S
C655 C654 1.397 . S
C655 C656 1.412 . S
C655 C676 1.485 . S
C656 C655 1.412 . S
C656 C657 1.388 . S
C656 C682 1.490 . S
C657 C652 1.397 . S
C657 C656 1.388 . S
C657 C688 1.519 . S
C658 C652 1.492 . S
C658 C659 1.363 . S
C658 C663 1.390 . S
C659 H624 0.930 . S
C659 C658 1.363 . S
C659 C660 1.372 . S
C660 H625 0.930 . S
C660 C659 1.372 . S
C660 C661 1.383 . S
C661 C660 1.383 . S
C661 C662 1.395 . S
C662 H626 0.930 . S
C662 C661 1.395 . S
C662 C663 1.362 . S
C663 H627 0.930 . S
C663 C658 1.390 . S
C663 C662 1.362 . S
C664 C653 1.492 . S
C664 C665 1.377 . S
C664 C669 1.397 . S
C665 H628 0.931 . S
C665 C664 1.377 . S
C665 C666 1.376 . S
C666 H629 0.930 . S
C666 C665 1.376 . S
C666 C667 1.376 . S
C667 C666 1.376 . S
C667 C668 1.378 . S
C667 C694 1.486 1_556 S
C668 H630 0.930 . S
C668 C667 1.378 . S
C668 C669 1.376 . S
C669 H631 0.929 . S
C669 C664 1.397 . S
C669 C668 1.376 . S
C670 C654 1.509 . S
C670 C671 1.391 . S
C670 C675 1.386 . S
C671 H632 0.930 . S
C671 C670 1.391 . S
C671 C672 1.375 . S
C672 H633 0.931 . S
C672 C671 1.375 . S
C672 C673 1.375 . S
C673 C672 1.375 . S
C673 C674 1.361 . S
C674 H634 0.930 . S
C674 C673 1.361 . S
C674 C675 1.399 . S
C675 H635 0.929 . S
C675 C670 1.386 . S
C675 C674 1.399 . S
C676 C655 1.485 . S
C676 C677 1.394 . S
C676 C681 1.360 . S
C677 H636 0.931 . S
C677 C676 1.394 . S
C677 C678 1.372 . S
C678 H637 0.930 . S
C678 C677 1.372 . S
C678 C679 1.397 . S
C679 C678 1.397 . S
C679 C680 1.390 . S
C679 C695 1.476 . S
C680 H638 0.930 . S
C680 C679 1.390 . S
C680 C681 1.366 . S
C681 H639 0.932 . S
C681 C676 1.360 . S
C681 C680 1.366 . S
C682 C656 1.490 . S
C682 C683 1.380 . S
C682 C687 1.386 . S
C683 H640 0.930 . S
C683 C682 1.380 . S
C683 C684 1.381 . S
C684 H641 0.929 . S
C684 C683 1.381 . S
C684 C685 1.371 . S
C685 C684 1.371 . S
C685 C686 1.380 . S
C686 H642 0.931 . S
C686 C685 1.380 . S
C686 C687 1.387 . S
C687 H643 0.930 . S
C687 C682 1.386 . S
C687 C686 1.387 . S
C688 C657 1.519 . S
C688 C689 1.377 . S
C688 C693 1.361 . S
C689 H644 0.929 . S
C689 C688 1.377 . S
C689 C690 1.386 . S
C690 H645 0.931 . S
C690 C689 1.386 . S
C690 C691 1.363 . S
C691 C690 1.363 . S
C691 C692 1.385 . S
C692 H646 0.930 . S
C692 C691 1.385 . S
C692 C693 1.396 . S
C693 H647 0.929 . S
C693 C688 1.361 . S
C693 C692 1.396 . S
C694 O648 1.300 . S
C694 O649 1.209 . S
C694 C667 1.486 1_554 S
C695 O650 1.199 . S
C695 O651 1.297 . S
C695 C679 1.476 . S
H696 O722 0.856 . S
H697 O725 0.854 . S
H698 C733 0.930 . S
H699 C734 0.930 . S
H700 C736 0.930 . S
H701 C737 0.930 . S
H702 C739 0.931 . S
H703 C740 0.930 . S
H704 C742 0.930 . S
H705 C743 0.929 . S
H706 C745 0.930 . S
H707 C746 0.931 . S
H708 C748 0.930 . S
H709 C749 0.929 . S
H710 C751 0.931 . S
H711 C752 0.930 . S
H712 C754 0.930 . S
H713 C755 0.932 . S
H714 C757 0.930 . S
H715 C758 0.929 . S
H716 C760 0.931 . S
H717 C761 0.930 . S
H718 C763 0.929 . S
H719 C764 0.931 . S
H720 C766 0.930 . S
H721 C767 0.929 . S
O722 H696 0.856 . S
O722 C768 1.300 . S
O723 C768 1.209 . S
O724 C769 1.199 . S
O725 H697 0.854 . S
O725 C769 1.297 . S
C726 C727 1.404 . S
C726 C731 1.397 . S
C726 C732 1.492 . S
C727 C726 1.404 . S
C727 C728 1.396 . S
C727 C738 1.492 . S
C728 C727 1.396 . S
C728 C729 1.397 . S
C728 C744 1.509 . S
C729 C728 1.397 . S
C729 C730 1.412 . S
C729 C750 1.485 . S
C730 C729 1.412 . S
C730 C731 1.388 . S
C730 C756 1.490 . S
C731 C726 1.397 . S
C731 C730 1.388 . S
C731 C762 1.519 . S
C732 C726 1.492 . S
C732 C733 1.363 . S
C732 C737 1.390 . S
C733 H698 0.930 . S
C733 C732 1.363 . S
C733 C734 1.372 . S
C734 H699 0.930 . S
C734 C733 1.372 . S
C734 C735 1.383 . S
C735 C734 1.383 . S
C735 C736 1.395 . S
C736 H700 0.930 . S
C736 C735 1.395 . S
C736 C737 1.362 . S
C737 H701 0.930 . S
C737 C732 1.390 . S
C737 C736 1.362 . S
C738 C727 1.492 . S
C738 C739 1.377 . S
C738 C743 1.397 . S
C739 H702 0.931 . S
C739 C738 1.377 . S
C739 C740 1.376 . S
C740 H703 0.930 . S
C740 C739 1.376 . S
C740 C741 1.376 . S
C741 C740 1.376 . S
C741 C742 1.378 . S
C741 C768 1.486 . S
C742 H704 0.930 . S
C742 C741 1.378 . S
C742 C743 1.376 . S
C743 H705 0.929 . S
C743 C738 1.397 . S
C743 C742 1.376 . S
C744 C728 1.509 . S
C744 C745 1.391 . S
C744 C749 1.386 . S
C745 H706 0.930 . S
C745 C744 1.391 . S
C745 C746 1.375 . S
C746 H707 0.931 . S
C746 C745 1.375 . S
C746 C747 1.375 . S
C747 C746 1.375 . S
C747 C748 1.361 . S
C748 H708 0.930 . S
C748 C747 1.361 . S
C748 C749 1.399 . S
C749 H709 0.929 . S
C749 C744 1.386 . S
C749 C748 1.399 . S
C750 C729 1.485 . S
C750 C751 1.394 . S
C750 C755 1.360 . S
C751 H710 0.931 . S
C751 C750 1.394 . S
C751 C752 1.372 . S
C752 H711 0.930 . S
C752 C751 1.372 . S
C752 C753 1.397 . S
C753 C752 1.397 . S
C753 C754 1.390 . S
C753 C769 1.476 . S
C754 H712 0.930 . S
C754 C753 1.390 . S
C754 C755 1.366 . S
C755 H713 0.932 . S
C755 C750 1.360 . S
C755 C754 1.366 . S
C756 C730 1.490 . S
C756 C757 1.380 . S
C756 C761 1.386 . S
C757 H714 0.930 . S
C757 C756 1.380 . S
C757 C758 1.381 . S
C758 H715 0.929 . S
C758 C757 1.381 . S
C758 C759 1.371 . S
C759 C758 1.371 . S
C759 C760 1.380 . S
C760 H716 0.931 . S
C760 C759 1.380 . S
C760 C761 1.387 . S
C761 H717 0.930 . S
C761 C756 1.386 . S
C761 C760 1.387 . S
C762 C731 1.519 . S
C762 C763 1.377 . S
C762 C767 1.361 . S
C763 H718 0.929 . S
C763 C762 1.377 . S
C763 C764 1.386 . S
C764 H719 0.931 . S
C764 C763 1.386 . S
C764 C765 1.363 . S
C765 C764 1.363 . S
C765 C766 1.385 . S
C766 H720 0.930 . S
C766 C765 1.385 . S
C766 C767 1.396 . S
C767 H721 0.929 . S
C767 C762 1.361 . S
C767 C766 1.396 . S
C768 O722 1.300 . S
C768 O723 1.209 . S
C768 C741 1.486 . S
C769 O724 1.199 . S
C769 O725 1.297 . S
C769 C753 1.476 . S
H770 O796 0.856 . S
H771 O799 0.854 . S
H772 C807 0.930 . S
H773 C808 0.930 . S
H774 C810 0.930 . S
H775 C811 0.930 . S
H776 C813 0.931 . S
H777 C814 0.930 . S
H778 C816 0.930 . S
H779 C817 0.929 . S
H780 C819 0.930 . S
H781 C820 0.931 . S
H782 C822 0.930 . S
H783 C823 0.929 . S
H784 C825 0.931 . S
H785 C826 0.930 . S
H786 C828 0.930 . S
H787 C829 0.932 . S
H788 C831 0.930 . S
H789 C832 0.929 . S
H790 C834 0.931 . S
H791 C835 0.930 . S
H792 C837 0.929 . S
H793 C838 0.931 . S
H794 C840 0.930 . S
H795 C841 0.929 . S
O796 H770 0.856 . S
O796 C842 1.300 . S
O797 C842 1.209 . S
O798 C843 1.199 . S
O799 H771 0.854 . S
O799 C843 1.297 . S
C800 C801 1.404 . S
C800 C805 1.397 . S
C800 C806 1.492 . S
C801 C800 1.404 . S
C801 C802 1.396 . S
C801 C812 1.492 . S
C802 C801 1.396 . S
C802 C803 1.397 . S
C802 C818 1.509 . S
C803 C802 1.397 . S
C803 C804 1.412 . S
C803 C824 1.485 . S
C804 C803 1.412 . S
C804 C805 1.388 . S
C804 C830 1.490 . S
C805 C800 1.397 . S
C805 C804 1.388 . S
C805 C836 1.519 . S
C806 C800 1.492 . S
C806 C807 1.363 . S
C806 C811 1.390 . S
C807 H772 0.930 . S
C807 C806 1.363 . S
C807 C808 1.372 . S
C808 H773 0.930 . S
C808 C807 1.372 . S
C808 C809 1.383 . S
C809 C808 1.383 . S
C809 C810 1.395 . S
C810 H774 0.930 . S
C810 C809 1.395 . S
C810 C811 1.362 . S
C811 H775 0.930 . S
C811 C806 1.390 . S
C811 C810 1.362 . S
C812 C801 1.492 . S
C812 C813 1.377 . S
C812 C817 1.397 . S
C813 H776 0.931 . S
C813 C812 1.377 . S
C813 C814 1.376 . S
C814 H777 0.930 . S
C814 C813 1.376 . S
C814 C815 1.376 . S
C815 C814 1.376 . S
C815 C816 1.378 . S
C815 C842 1.486 . S
C816 H778 0.930 . S
C816 C815 1.378 . S
C816 C817 1.376 . S
C817 H779 0.929 . S
C817 C812 1.397 . S
C817 C816 1.376 . S
C818 C802 1.509 . S
C818 C819 1.391 . S
C818 C823 1.386 . S
C819 H780 0.930 . S
C819 C818 1.391 . S
C819 C820 1.375 . S
C820 H781 0.931 . S
C820 C819 1.375 . S
C820 C821 1.375 . S
C821 C820 1.375 . S
C821 C822 1.361 . S
C822 H782 0.930 . S
C822 C821 1.361 . S
C822 C823 1.399 . S
C823 H783 0.929 . S
C823 C818 1.386 . S
C823 C822 1.399 . S
C824 C803 1.485 . S
C824 C825 1.394 . S
C824 C829 1.360 . S
C825 H784 0.931 . S
C825 C824 1.394 . S
C825 C826 1.372 . S
C826 H785 0.930 . S
C826 C825 1.372 . S
C826 C827 1.397 . S
C827 C826 1.397 . S
C827 C828 1.390 . S
C827 C843 1.476 . S
C828 H786 0.930 . S
C828 C827 1.390 . S
C828 C829 1.366 . S
C829 H787 0.932 . S
C829 C824 1.360 . S
C829 C828 1.366 . S
C830 C804 1.490 . S
C830 C831 1.380 . S
C830 C835 1.386 . S
C831 H788 0.930 . S
C831 C830 1.380 . S
C831 C832 1.381 . S
C832 H789 0.929 . S
C832 C831 1.381 . S
C832 C833 1.371 . S
C833 C832 1.371 . S
C833 C834 1.380 . S
C834 H790 0.931 . S
C834 C833 1.380 . S
C834 C835 1.387 . S
C835 H791 0.930 . S
C835 C830 1.386 . S
C835 C834 1.387 . S
C836 C805 1.519 . S
C836 C837 1.377 . S
C836 C841 1.361 . S
C837 H792 0.929 . S
C837 C836 1.377 . S
C837 C838 1.386 . S
C838 H793 0.931 . S
C838 C837 1.386 . S
C838 C839 1.363 . S
C839 C838 1.363 . S
C839 C840 1.385 . S
C840 H794 0.930 . S
C840 C839 1.385 . S
C840 C841 1.396 . S
C841 H795 0.929 . S
C841 C836 1.361 . S
C841 C840 1.396 . S
C842 O796 1.300 . S
C842 O797 1.209 . S
C842 C815 1.486 . S
C843 O798 1.199 . S
C843 O799 1.297 . S
C843 C827 1.476 . S
H844 O870 0.856 . S
H845 O873 0.854 . S
H846 C881 0.930 . S
H847 C882 0.930 . S
H848 C884 0.930 . S
H849 C885 0.930 . S
H850 C887 0.931 . S
H851 C888 0.930 . S
H852 C890 0.930 . S
H853 C891 0.929 . S
H854 C893 0.930 . S
H855 C894 0.931 . S
H856 C896 0.930 . S
H857 C897 0.929 . S
H858 C899 0.931 . S
H859 C900 0.930 . S
H860 C902 0.930 . S
H861 C903 0.932 . S
H862 C905 0.930 . S
H863 C906 0.929 . S
H864 C908 0.931 . S
H865 C909 0.930 . S
H866 C911 0.929 . S
H867 C912 0.931 . S
H868 C914 0.930 . S
H869 C915 0.929 . S
O870 H844 0.856 . S
O870 C916 1.300 . S
O871 C916 1.209 . S
O872 C917 1.199 . S
O873 H845 0.854 . S
O873 C917 1.297 . S
C874 C875 1.404 . S
C874 C879 1.397 . S
C874 C880 1.492 . S
C875 C874 1.404 . S
C875 C876 1.396 . S
C875 C886 1.492 . S
C876 C875 1.396 . S
C876 C877 1.397 . S
C876 C892 1.509 . S
C877 C876 1.397 . S
C877 C878 1.412 . S
C877 C898 1.485 . S
C878 C877 1.412 . S
C878 C879 1.388 . S
C878 C904 1.490 . S
C879 C874 1.397 . S
C879 C878 1.388 . S
C879 C910 1.519 . S
C880 C874 1.492 . S
C880 C881 1.363 . S
C880 C885 1.390 . S
C881 H846 0.930 . S
C881 C880 1.363 . S
C881 C882 1.372 . S
C882 H847 0.930 . S
C882 C881 1.372 . S
C882 C883 1.383 . S
C883 C882 1.383 . S
C883 C884 1.395 . S
C884 H848 0.930 . S
C884 C883 1.395 . S
C884 C885 1.362 . S
C885 H849 0.930 . S
C885 C880 1.390 . S
C885 C884 1.362 . S
C886 C875 1.492 . S
C886 C887 1.377 . S
C886 C891 1.397 . S
C887 H850 0.931 . S
C887 C886 1.377 . S
C887 C888 1.376 . S
C888 H851 0.930 . S
C888 C887 1.376 . S
C888 C889 1.376 . S
C889 C888 1.376 . S
C889 C890 1.378 . S
C889 C916 1.486 . S
C890 H852 0.930 . S
C890 C889 1.378 . S
C890 C891 1.376 . S
C891 H853 0.929 . S
C891 C886 1.397 . S
C891 C890 1.376 . S
C892 C876 1.509 . S
C892 C893 1.391 . S
C892 C897 1.386 . S
C893 H854 0.930 . S
C893 C892 1.391 . S
C893 C894 1.375 . S
C894 H855 0.931 . S
C894 C893 1.375 . S
C894 C895 1.375 . S
C895 C894 1.375 . S
C895 C896 1.361 . S
C896 H856 0.930 . S
C896 C895 1.361 . S
C896 C897 1.399 . S
C897 H857 0.929 . S
C897 C892 1.386 . S
C897 C896 1.399 . S
C898 C877 1.485 . S
C898 C899 1.394 . S
C898 C903 1.360 . S
C899 H858 0.931 . S
C899 C898 1.394 . S
C899 C900 1.372 . S
C900 H859 0.930 . S
C900 C899 1.372 . S
C900 C901 1.397 . S
C901 C900 1.397 . S
C901 C902 1.390 . S
C901 C917 1.476 . S
C902 H860 0.930 . S
C902 C901 1.390 . S
C902 C903 1.366 . S
C903 H861 0.932 . S
C903 C898 1.360 . S
C903 C902 1.366 . S
C904 C878 1.490 . S
C904 C905 1.380 . S
C904 C909 1.386 . S
C905 H862 0.930 . S
C905 C904 1.380 . S
C905 C906 1.381 . S
C906 H863 0.929 . S
C906 C905 1.381 . S
C906 C907 1.371 . S
C907 C906 1.371 . S
C907 C908 1.380 . S
C908 H864 0.931 . S
C908 C907 1.380 . S
C908 C909 1.387 . S
C909 H865 0.930 . S
C909 C904 1.386 . S
C909 C908 1.387 . S
C910 C879 1.519 . S
C910 C911 1.377 . S
C910 C915 1.361 . S
C911 H866 0.929 . S
C911 C910 1.377 . S
C911 C912 1.386 . S
C912 H867 0.931 . S
C912 C911 1.386 . S
C912 C913 1.363 . S
C913 C912 1.363 . S
C913 C914 1.385 . S
C914 H868 0.930 . S
C914 C913 1.385 . S
C914 C915 1.396 . S
C915 H869 0.929 . S
C915 C910 1.361 . S
C915 C914 1.396 . S
C916 O870 1.300 . S
C916 O871 1.209 . S
C916 C889 1.486 . S
C917 O872 1.199 . S
C917 O873 1.297 . S
C917 C901 1.476 . S
H918 O944 0.856 . S
H919 O947 0.854 . S
H920 C955 0.930 . S
H921 C956 0.930 . S
H922 C958 0.930 . S
H923 C959 0.930 . S
H924 C961 0.931 . S
H925 C962 0.930 1_655 S
H926 C964 0.930 . S
H927 C965 0.929 . S
H928 C967 0.930 . S
H929 C968 0.931 1_655 S
H930 C970 0.930 . S
H931 C971 0.929 . S
H932 C973 0.931 . S
H933 C974 0.930 . S
H934 C976 0.930 . S
H935 C977 0.932 . S
H936 C979 0.930 . S
H937 C980 0.929 . S
H938 C982 0.931 . S
H939 C983 0.930 . S
H940 C985 0.929 . S
H941 C986 0.931 . S
H942 C988 0.930 . S
H943 C989 0.929 . S
O944 H918 0.856 . S
O944 C990 1.300 . S
O945 C990 1.209 . S
O946 C991 1.199 1_655 S
O947 H919 0.854 . S
O947 C991 1.297 . S
C948 C949 1.404 . S
C948 C953 1.394 . S
C948 C954 1.492 . S
C949 C948 1.404 . S
C949 C950 1.396 . S
C949 C960 1.492 . S
C950 C949 1.396 . S
C950 C951 1.397 . S
C950 C966 1.509 . S
C951 C950 1.397 . S
C951 C952 1.430 . S
C951 C972 1.485 . S
C952 C951 1.430 . S
C952 C953 1.399 . S
C952 C978 1.491 1_455 S
C953 C948 1.394 . S
C953 C952 1.399 . S
C953 C984 1.483 1_455 S
C954 C948 1.492 . S
C954 C955 1.363 1_455 S
C954 C959 1.390 . S
C955 H920 0.930 . S
C955 C954 1.363 1_655 S
C955 C956 1.372 . S
C956 H921 0.930 . S
C956 C955 1.372 . S
C956 C957 1.383 . S
C957 C956 1.383 . S
C957 C958 1.395 1_655 S
C958 H922 0.930 . S
C958 C957 1.395 1_455 S
C958 C959 1.362 . S
C959 H923 0.930 . S
C959 C954 1.390 . S
C959 C958 1.362 . S
C960 C949 1.492 . S
C960 C961 1.377 1_455 S
C960 C965 1.397 . S
C961 H924 0.931 . S
C961 C960 1.377 1_655 S
C961 C962 1.376 1_655 S
C962 H925 0.930 1_455 S
C962 C961 1.376 1_455 S
C962 C963 1.376 . S
C963 C962 1.376 . S
C963 C964 1.378 . S
C963 C990 1.486 . S
C964 H926 0.930 . S
C964 C963 1.378 . S
C964 C965 1.376 . S
C965 H927 0.929 . S
C965 C960 1.397 . S
C965 C964 1.376 . S
C966 C950 1.509 . S
C966 C967 1.391 1_455 S
C966 C971 1.386 . S
C967 H928 0.930 . S
C967 C966 1.391 1_655 S
C967 C968 1.375 1_655 S
C968 H929 0.931 1_455 S
C968 C967 1.375 1_455 S
C968 C969 1.375 . S
C969 C968 1.375 . S
C969 C970 1.361 . S
C970 H930 0.930 . S
C970 C969 1.361 . S
C970 C971 1.399 . S
C971 H931 0.929 . S
C971 C966 1.386 . S
C971 C970 1.399 . S
C972 C951 1.485 . S
C972 C973 1.394 1_455 S
C972 C977 1.360 . S
C973 H932 0.931 . S
C973 C972 1.394 1_655 S
C973 C974 1.372 . S
C974 H933 0.930 . S
C974 C973 1.372 . S
C974 C975 1.397 1_655 S
C975 C974 1.397 1_455 S
C975 C976 1.390 . S
C975 C991 1.476 . S
C976 H934 0.930 . S
C976 C975 1.390 . S
C976 C977 1.366 . S
C977 H935 0.932 . S
C977 C972 1.360 . S
C977 C976 1.366 . S
C978 C952 1.491 1_655 S
C978 C979 1.380 . S
C978 C983 1.386 1_655 S
C979 H936 0.930 . S
C979 C978 1.380 . S
C979 C980 1.381 . S
C980 H937 0.929 . S
C980 C979 1.381 . S
C980 C981 1.371 . S
C981 C980 1.371 . S
C981 C982 1.380 1_655 S
C982 H938 0.931 . S
C982 C981 1.380 1_455 S
C982 C983 1.387 . S
C983 H939 0.930 . S
C983 C978 1.386 1_455 S
C983 C982 1.387 . S
C984 C953 1.483 1_655 S
C984 C985 1.417 . S
C984 C989 1.335 1_655 S
C985 H940 0.929 . S
C985 C984 1.417 . S
C985 C986 1.386 . S
C986 H941 0.931 . S
C986 C985 1.386 . S
C986 C987 1.397 . S
C987 C986 1.397 . S
C987 C988 1.333 1_655 S
C988 H942 0.930 . S
C988 C987 1.333 1_455 S
C988 C989 1.396 . S
C989 H943 0.929 . S
C989 C984 1.335 1_455 S
C989 C988 1.396 . S
C990 O944 1.300 . S
C990 O945 1.209 . S
C990 C963 1.486 . S
C991 O946 1.199 1_455 S
C991 O947 1.297 . S
C991 C975 1.476 . S
H992 O1018 0.856 . S
H993 O1021 0.854 . S
H994 C1029 0.930 . S
H995 C1030 0.930 . S
H996 C1032 0.930 . S
H997 C1033 0.930 . S
H998 C1035 0.931 . S
H999 C1036 0.930 . S
H1000 C1038 0.930 . S
H1001 C1039 0.929 . S
H1002 C1041 0.930 . S
H1003 C1042 0.931 . S
H1004 C1044 0.930 . S
H1005 C1045 0.929 . S
H1006 C1047 0.931 . S
H1007 C1048 0.930 . S
H1008 C1050 0.930 . S
H1009 C1051 0.932 . S
H1010 C1053 0.930 . S
H1011 C1054 0.929 . S
H1012 C1056 0.931 . S
H1013 C1057 0.930 . S
H1014 C1059 0.929 . S
H1015 C1060 0.931 . S
H1016 C1062 0.930 . S
H1017 C1063 0.929 . S
O1018 H992 0.856 . S
O1018 C1064 1.300 . S
O1019 C1064 1.209 . S
O1020 C1065 1.199 . S
O1021 H993 0.854 . S
O1021 C1065 1.297 . S
C1022 C1023 1.404 . S
C1022 C1027 1.397 . S
C1022 C1028 1.492 . S
C1023 C1022 1.404 . S
C1023 C1024 1.396 . S
C1023 C1034 1.492 . S
C1024 C1023 1.396 . S
C1024 C1025 1.397 . S
C1024 C1040 1.509 . S
C1025 C1024 1.397 . S
C1025 C1026 1.412 . S
C1025 C1046 1.485 . S
C1026 C1025 1.412 . S
C1026 C1027 1.388 . S
C1026 C1052 1.490 . S
C1027 C1022 1.397 . S
C1027 C1026 1.388 . S
C1027 C1058 1.519 . S
C1028 C1022 1.492 . S
C1028 C1029 1.363 . S
C1028 C1033 1.390 . S
C1029 H994 0.930 . S
C1029 C1028 1.363 . S
C1029 C1030 1.372 . S
C1030 H995 0.930 . S
C1030 C1029 1.372 . S
C1030 C1031 1.383 . S
C1031 C1030 1.383 . S
C1031 C1032 1.395 . S
C1032 H996 0.930 . S
C1032 C1031 1.395 . S
C1032 C1033 1.362 . S
C1033 H997 0.930 . S
C1033 C1028 1.390 . S
C1033 C1032 1.362 . S
C1034 C1023 1.492 . S
C1034 C1035 1.377 . S
C1034 C1039 1.397 . S
C1035 H998 0.931 . S
C1035 C1034 1.377 . S
C1035 C1036 1.376 . S
C1036 H999 0.930 . S
C1036 C1035 1.376 . S
C1036 C1037 1.376 . S
C1037 C1036 1.376 . S
C1037 C1038 1.378 . S
C1037 C1064 1.486 . S
C1038 H1000 0.930 . S
C1038 C1037 1.378 . S
C1038 C1039 1.376 . S
C1039 H1001 0.929 . S
C1039 C1034 1.397 . S
C1039 C1038 1.376 . S
C1040 C1024 1.509 . S
C1040 C1041 1.391 . S
C1040 C1045 1.386 . S
C1041 H1002 0.930 . S
C1041 C1040 1.391 . S
C1041 C1042 1.375 . S
C1042 H1003 0.931 . S
C1042 C1041 1.375 . S
C1042 C1043 1.375 . S
C1043 C1042 1.375 . S
C1043 C1044 1.361 . S
C1044 H1004 0.930 . S
C1044 C1043 1.361 . S
C1044 C1045 1.399 . S
C1045 H1005 0.929 . S
C1045 C1040 1.386 . S
C1045 C1044 1.399 . S
C1046 C1025 1.485 . S
C1046 C1047 1.394 . S
C1046 C1051 1.360 . S
C1047 H1006 0.931 . S
C1047 C1046 1.394 . S
C1047 C1048 1.372 . S
C1048 H1007 0.930 . S
C1048 C1047 1.372 . S
C1048 C1049 1.397 . S
C1049 C1048 1.397 . S
C1049 C1050 1.390 . S
C1049 C1065 1.476 . S
C1050 H1008 0.930 . S
C1050 C1049 1.390 . S
C1050 C1051 1.366 . S
C1051 H1009 0.932 . S
C1051 C1046 1.360 . S
C1051 C1050 1.366 . S
C1052 C1026 1.490 . S
C1052 C1053 1.380 . S
C1052 C1057 1.386 . S
C1053 H1010 0.930 . S
C1053 C1052 1.380 . S
C1053 C1054 1.381 . S
C1054 H1011 0.929 . S
C1054 C1053 1.381 . S
C1054 C1055 1.371 . S
C1055 C1054 1.371 . S
C1055 C1056 1.380 . S
C1056 H1012 0.931 . S
C1056 C1055 1.380 . S
C1056 C1057 1.387 . S
C1057 H1013 0.930 . S
C1057 C1052 1.386 . S
C1057 C1056 1.387 . S
C1058 C1027 1.519 . S
C1058 C1059 1.377 . S
C1058 C1063 1.361 . S
C1059 H1014 0.929 . S
C1059 C1058 1.377 . S
C1059 C1060 1.386 . S
C1060 H1015 0.931 . S
C1060 C1059 1.386 . S
C1060 C1061 1.363 . S
C1061 C1060 1.363 . S
C1061 C1062 1.385 . S
C1062 H1016 0.930 . S
C1062 C1061 1.385 . S
C1062 C1063 1.396 . S
C1063 H1017 0.929 . S
C1063 C1058 1.361 . S
C1063 C1062 1.396 . S
C1064 O1018 1.300 . S
C1064 O1019 1.209 . S
C1064 C1037 1.486 . S
C1065 O1020 1.199 . S
C1065 O1021 1.297 . S
C1065 C1049 1.476 . S
H1066 O1092 0.856 . S
H1067 O1095 0.854 . S
H1068 C1103 0.930 . S
H1069 C1104 0.930 . S
H1070 C1106 0.930 . S
H1071 C1107 0.930 . S
H1072 C1109 0.931 . S
H1073 C1110 0.950 . S
H1074 C1112 0.930 . S
H1075 C1113 0.929 . S
H1076 C1115 0.930 . S
H1077 C1116 0.931 . S
H1078 C1118 0.930 . S
H1079 C1119 0.929 . S
H1080 C1121 0.931 . S
H1081 C1122 0.930 . S
H1082 C1124 0.930 . S
H1083 C1125 0.932 . S
H1084 C1127 0.930 . S
H1085 C1128 0.929 . S
H1086 C1130 0.931 . S
H1087 C1131 0.930 . S
H1088 C1133 0.929 . S
H1089 C1134 0.931 . S
H1090 C1136 0.930 . S
H1091 C1137 0.929 . S
O1092 H1066 0.856 . S
O1092 C1138 1.300 . S
O1093 C1138 1.209 . S
O1094 C1139 1.199 1_545 S
O1095 H1067 0.854 . S
O1095 C1139 1.297 . S
C1096 C1097 1.404 . S
C1096 C1101 1.414 . S
C1096 C1102 1.492 . S
C1097 C1096 1.404 . S
C1097 C1098 1.396 . S
C1097 C1108 1.492 . S
C1098 C1097 1.396 . S
C1098 C1099 1.397 . S
C1098 C1114 1.509 . S
C1099 C1098 1.397 . S
C1099 C1100 1.412 . S
C1099 C1120 1.485 . S
C1100 C1099 1.412 . S
C1100 C1101 1.364 . S
C1100 C1126 1.489 1_565 S
C1101 C1096 1.414 . S
C1101 C1100 1.364 . S
C1101 C1132 1.532 1_565 S
C1102 C1096 1.492 . S
C1102 C1103 1.363 1_565 S
C1102 C1107 1.390 . S
C1103 H1068 0.930 . S
C1103 C1102 1.363 1_545 S
C1103 C1104 1.372 . S
C1104 H1069 0.930 . S
C1104 C1103 1.372 . S
C1104 C1105 1.383 . S
C1105 C1104 1.383 . S
C1105 C1106 1.395 1_545 S
C1106 H1070 0.930 . S
C1106 C1105 1.395 1_565 S
C1106 C1107 1.362 . S
C1107 H1071 0.930 . S
C1107 C1102 1.390 . S
C1107 C1106 1.362 . S
C1108 C1097 1.492 . S
C1108 C1109 1.377 1_565 S
C1108 C1113 1.397 . S
C1109 H1072 0.931 . S
C1109 C1108 1.377 1_545 S
C1109 C1110 1.387 . S
C1110 H1073 0.950 . S
C1110 C1109 1.387 . S
C1110 C1111 1.345 1_545 S
C1111 C1110 1.345 1_565 S
C1111 C1112 1.378 . S
C1111 C1138 1.486 . S
C1112 H1074 0.930 . S
C1112 C1111 1.378 . S
C1112 C1113 1.376 . S
C1113 H1075 0.929 . S
C1113 C1108 1.397 . S
C1113 C1112 1.376 . S
C1114 C1098 1.509 . S
C1114 C1115 1.391 1_565 S
C1114 C1119 1.386 . S
C1115 H1076 0.930 . S
C1115 C1114 1.391 1_545 S
C1115 C1116 1.375 . S
C1116 H1077 0.931 . S
C1116 C1115 1.375 . S
C1116 C1117 1.375 1_545 S
C1117 C1116 1.375 1_565 S
C1117 C1118 1.361 . S
C1118 H1078 0.930 . S
C1118 C1117 1.361 . S
C1118 C1119 1.399 . S
C1119 H1079 0.929 . S
C1119 C1114 1.386 . S
C1119 C1118 1.399 . S
C1120 C1099 1.485 . S
C1120 C1121 1.394 1_565 S
C1120 C1125 1.360 . S
C1121 H1080 0.931 . S
C1121 C1120 1.394 1_545 S
C1121 C1122 1.372 . S
C1122 H1081 0.930 . S
C1122 C1121 1.372 . S
C1122 C1123 1.397 1_545 S
C1123 C1122 1.397 1_565 S
C1123 C1124 1.390 . S
C1123 C1139 1.476 . S
C1124 H1082 0.930 . S
C1124 C1123 1.390 . S
C1124 C1125 1.366 . S
C1125 H1083 0.932 . S
C1125 C1120 1.360 . S
C1125 C1124 1.366 . S
C1126 C1100 1.489 1_545 S
C1126 C1127 1.380 . S
C1126 C1131 1.386 1_545 S
C1127 H1084 0.930 . S
C1127 C1126 1.380 . S
C1127 C1128 1.381 . S
C1128 H1085 0.929 . S
C1128 C1127 1.381 . S
C1128 C1129 1.371 . S
C1129 C1128 1.371 . S
C1129 C1130 1.380 1_545 S
C1130 H1086 0.931 . S
C1130 C1129 1.380 1_565 S
C1130 C1131 1.387 . S
C1131 H1087 0.930 . S
C1131 C1126 1.386 1_565 S
C1131 C1130 1.387 . S
C1132 C1101 1.532 1_545 S
C1132 C1133 1.375 . S
C1132 C1137 1.364 1_545 S
C1133 H1088 0.929 . S
C1133 C1132 1.375 . S
C1133 C1134 1.386 . S
C1134 H1089 0.931 . S
C1134 C1133 1.386 . S
C1134 C1135 1.363 1_545 S
C1135 C1134 1.363 1_565 S
C1135 C1136 1.385 . S
C1136 H1090 0.930 . S
C1136 C1135 1.385 . S
C1136 C1137 1.396 . S
C1137 H1091 0.929 . S
C1137 C1132 1.364 1_565 S
C1137 C1136 1.396 . S
C1138 O1092 1.300 . S
C1138 O1093 1.209 . S
C1138 C1111 1.486 . S
C1139 O1094 1.199 1_565 S
C1139 O1095 1.297 . S
C1139 C1123 1.476 . S
H1140 O1166 0.856 . S
H1141 O1169 0.854 . S
H1142 C1177 0.930 . S
H1143 C1178 0.930 . S
H1144 C1180 0.930 . S
H1145 C1181 0.930 . S
H1146 C1183 0.931 . S
H1147 C1184 0.930 . S
H1148 C1186 0.930 . S
H1149 C1187 0.929 . S
H1150 C1189 0.930 . S
H1151 C1190 0.931 . S
H1152 C1192 0.930 . S
H1153 C1193 0.929 . S
H1154 C1195 0.931 . S
H1155 C1196 0.930 . S
H1156 C1198 0.930 . S
H1157 C1199 0.932 . S
H1158 C1201 0.930 . S
H1159 C1202 0.929 . S
H1160 C1204 0.931 . S
H1161 C1205 0.930 . S
H1162 C1207 0.929 . S
H1163 C1208 0.931 . S
H1164 C1210 0.930 . S
H1165 C1211 0.929 . S
O1166 H1140 0.856 . S
O1166 C1212 1.300 . S
O1167 C1212 1.209 1_565 S
O1168 C1213 1.199 1_545 S
O1169 H1141 0.854 . S
O1169 C1213 1.297 . S
C1170 C1171 1.404 . S
C1170 C1175 1.397 1_545 S
C1170 C1176 1.492 . S
C1171 C1170 1.404 . S
C1171 C1172 1.426 . S
C1171 C1182 1.492 . S
C1172 C1171 1.426 . S
C1172 C1173 1.376 1_545 S
C1172 C1188 1.503 . S
C1173 C1172 1.376 1_565 S
C1173 C1174 1.415 . S
C1173 C1194 1.507 . S
C1174 C1173 1.415 . S
C1174 C1175 1.363 . S
C1174 C1200 1.488 . S
C1175 C1170 1.397 1_565 S
C1175 C1174 1.363 . S
C1175 C1206 1.519 . S
C1176 C1170 1.492 . S
C1176 C1177 1.363 . S
C1176 C1181 1.390 1_545 S
C1177 H1142 0.930 . S
C1177 C1176 1.363 . S
C1177 C1178 1.372 . S
C1178 H1143 0.930 . S
C1178 C1177 1.372 . S
C1178 C1179 1.383 . S
C1179 C1178 1.383 . S
C1179 C1180 1.395 1_545 S
C1180 H1144 0.930 . S
C1180 C1179 1.395 1_565 S
C1180 C1181 1.362 . S
C1181 H1145 0.930 . S
C1181 C1176 1.390 1_565 S
C1181 C1180 1.362 . S
C1182 C1171 1.492 . S
C1182 C1183 1.377 . S
C1182 C1187 1.397 1_545 S
C1183 H1146 0.931 . S
C1183 C1182 1.377 . S
C1183 C1184 1.376 . S
C1184 H1147 0.930 . S
C1184 C1183 1.376 . S
C1184 C1185 1.376 . S
C1185 C1184 1.376 . S
C1185 C1186 1.378 1_545 S
C1185 C1212 1.486 . S
C1186 H1148 0.930 . S
C1186 C1185 1.378 1_565 S
C1186 C1187 1.376 . S
C1187 H1149 0.929 . S
C1187 C1182 1.397 1_565 S
C1187 C1186 1.376 . S
C1188 C1172 1.503 . S
C1188 C1189 1.405 . S
C1188 C1193 1.363 1_545 S
C1189 H1150 0.930 . S
C1189 C1188 1.405 . S
C1189 C1190 1.375 . S
C1190 H1151 0.931 . S
C1190 C1189 1.375 . S
C1190 C1191 1.370 . S
C1191 C1190 1.370 . S
C1191 C1192 1.365 1_545 S
C1192 H1152 0.930 . S
C1192 C1191 1.365 1_565 S
C1192 C1193 1.399 . S
C1193 H1153 0.929 . S
C1193 C1188 1.363 1_565 S
C1193 C1192 1.399 . S
C1194 C1173 1.507 . S
C1194 C1195 1.394 1_565 S
C1194 C1199 1.360 . S
C1195 H1154 0.931 . S
C1195 C1194 1.394 1_545 S
C1195 C1196 1.372 . S
C1196 H1155 0.930 . S
C1196 C1195 1.372 . S
C1196 C1197 1.397 1_545 S
C1197 C1196 1.397 1_565 S
C1197 C1198 1.390 . S
C1197 C1213 1.476 . S
C1198 H1156 0.930 . S
C1198 C1197 1.390 . S
C1198 C1199 1.366 . S
C1199 H1157 0.932 . S
C1199 C1194 1.360 . S
C1199 C1198 1.366 . S
C1200 C1174 1.488 . S
C1200 C1201 1.336 1_565 S
C1200 C1205 1.443 . S
C1201 H1158 0.930 . S
C1201 C1200 1.336 1_545 S
C1201 C1202 1.381 . S
C1202 H1159 0.929 . S
C1202 C1201 1.381 . S
C1202 C1203 1.376 . S
C1203 C1202 1.376 . S
C1203 C1204 1.376 1_545 S
C1204 H1160 0.931 . S
C1204 C1203 1.376 1_565 S
C1204 C1205 1.387 . S
C1205 H1161 0.930 . S
C1205 C1200 1.443 . S
C1205 C1204 1.387 . S
C1206 C1175 1.519 . S
C1206 C1207 1.377 1_565 S
C1206 C1211 1.361 . S
C1207 H1162 0.929 . S
C1207 C1206 1.377 1_545 S
C1207 C1208 1.386 . S
C1208 H1163 0.931 . S
C1208 C1207 1.386 . S
C1208 C1209 1.363 1_545 S
C1209 C1208 1.363 1_565 S
C1209 C1210 1.385 . S
C1210 H1164 0.930 . S
C1210 C1209 1.385 . S
C1210 C1211 1.396 . S
C1211 H1165 0.929 . S
C1211 C1206 1.361 . S
C1211 C1210 1.396 . S
C1212 O1166 1.300 . S
C1212 O1167 1.209 1_545 S
C1212 C1185 1.486 . S
C1213 O1168 1.199 1_565 S
C1213 O1169 1.297 . S
C1213 C1197 1.476 . S
H1214 O1240 0.856 . S
H1215 O1243 0.854 . S
H1216 C1251 0.930 . S
H1217 C1252 0.930 . S
H1218 C1254 0.930 . S
H1219 C1255 0.930 . S
H1220 C1257 0.931 . S
H1221 C1258 0.930 . S
H1222 C1260 0.930 . S
H1223 C1261 0.929 . S
H1224 C1263 0.930 . S
H1225 C1264 0.931 . S
H1226 C1266 0.930 . S
H1227 C1267 0.929 . S
H1228 C1269 0.931 . S
H1229 C1270 0.930 . S
H1230 C1272 0.930 . S
H1231 C1273 0.932 . S
H1232 C1275 0.930 . S
H1233 C1276 0.929 . S
H1234 C1278 0.931 . S
H1235 C1279 0.930 . S
H1236 C1281 0.929 . S
H1237 C1282 0.931 . S
H1238 C1284 0.930 . S
H1239 C1285 0.929 . S
O1240 H1214 0.856 . S
O1240 C1286 1.300 . S
O1241 C1286 1.209 1_455 S
O1242 C1287 1.199 1_655 S
O1243 H1215 0.854 . S
O1243 C1287 1.297 . S
C1244 C1245 1.404 . S
C1244 C1249 1.398 . S
C1244 C1250 1.492 . S
C1245 C1244 1.404 . S
C1245 C1246 1.396 . S
C1245 C1256 1.492 . S
C1246 C1245 1.396 . S
C1246 C1247 1.395 . S
C1246 C1262 1.509 . S
C1247 C1246 1.395 . S
C1247 C1248 1.393 1_655 S
C1247 C1268 1.521 1_655 S
C1248 C1247 1.393 1_455 S
C1248 C1249 1.400 1_455 S
C1248 C1274 1.487 . S
C1249 C1244 1.398 . S
C1249 C1248 1.400 1_655 S
C1249 C1280 1.522 1_655 S
C1250 C1244 1.492 . S
C1250 C1251 1.363 . S
C1250 C1255 1.390 1_655 S
C1251 H1216 0.930 . S
C1251 C1250 1.363 . S
C1251 C1252 1.372 . S
C1252 H1217 0.930 . S
C1252 C1251 1.372 . S
C1252 C1253 1.383 . S
C1253 C1252 1.383 . S
C1253 C1254 1.395 1_655 S
C1254 H1218 0.930 . S
C1254 C1253 1.395 1_455 S
C1254 C1255 1.362 . S
C1255 H1219 0.930 . S
C1255 C1250 1.390 1_455 S
C1255 C1254 1.362 . S
C1256 C1245 1.492 . S
C1256 C1257 1.377 . S
C1256 C1261 1.397 1_655 S
C1257 H1220 0.931 . S
C1257 C1256 1.377 . S
C1257 C1258 1.376 . S
C1258 H1221 0.930 . S
C1258 C1257 1.376 . S
C1258 C1259 1.376 . S
C1259 C1258 1.376 . S
C1259 C1260 1.378 1_655 S
C1259 C1286 1.486 . S
C1260 H1222 0.930 . S
C1260 C1259 1.378 1_455 S
C1260 C1261 1.376 . S
C1261 H1223 0.929 . S
C1261 C1256 1.397 1_455 S
C1261 C1260 1.376 . S
C1262 C1246 1.509 . S
C1262 C1263 1.391 . S
C1262 C1267 1.386 1_655 S
C1263 H1224 0.930 . S
C1263 C1262 1.391 . S
C1263 C1264 1.375 . S
C1264 H1225 0.931 . S
C1264 C1263 1.375 . S
C1264 C1265 1.375 . S
C1265 C1264 1.375 . S
C1265 C1266 1.361 1_655 S
C1266 H1226 0.930 . S
C1266 C1265 1.361 1_455 S
C1266 C1267 1.399 . S
C1267 H1227 0.929 . S
C1267 C1262 1.386 1_455 S
C1267 C1266 1.399 . S
C1268 C1247 1.521 1_455 S
C1268 C1269 1.353 1_455 S
C1268 C1273 1.378 . S
C1269 H1228 0.931 . S
C1269 C1268 1.353 1_655 S
C1269 C1270 1.372 . S
C1270 H1229 0.930 . S
C1270 C1269 1.372 . S
C1270 C1271 1.397 1_655 S
C1271 C1270 1.397 1_455 S
C1271 C1272 1.390 . S
C1271 C1287 1.476 . S
C1272 H1230 0.930 . S
C1272 C1271 1.390 . S
C1272 C1273 1.366 . S
C1273 H1231 0.932 . S
C1273 C1268 1.378 . S
C1273 C1272 1.366 . S
C1274 C1248 1.487 . S
C1274 C1275 1.380 1_455 S
C1274 C1279 1.386 . S
C1275 H1232 0.930 . S
C1275 C1274 1.380 1_655 S
C1275 C1276 1.381 . S
C1276 H1233 0.929 . S
C1276 C1275 1.381 . S
C1276 C1277 1.371 1_655 S
C1277 C1276 1.371 1_455 S
C1277 C1278 1.380 . S
C1278 H1234 0.931 . S
C1278 C1277 1.380 . S
C1278 C1279 1.387 . S
C1279 H1235 0.930 . S
C1279 C1274 1.386 . S
C1279 C1278 1.387 . S
C1280 C1249 1.522 1_455 S
C1280 C1281 1.377 1_455 S
C1280 C1285 1.361 . S
C1281 H1236 0.929 . S
C1281 C1280 1.377 1_655 S
C1281 C1282 1.386 . S
C1282 H1237 0.931 . S
C1282 C1281 1.386 . S
C1282 C1283 1.363 1_655 S
C1283 C1282 1.363 1_455 S
C1283 C1284 1.385 . S
C1284 H1238 0.930 . S
C1284 C1283 1.385 . S
C1284 C1285 1.396 . S
C1285 H1239 0.929 . S
C1285 C1280 1.361 . S
C1285 C1284 1.396 . S
C1286 O1240 1.300 . S
C1286 O1241 1.209 1_655 S
C1286 C1259 1.486 . S
C1287 O1242 1.199 1_455 S
C1287 O1243 1.297 . S
C1287 C1271 1.476 . S
H1288 O1314 0.856 . S
H1289 O1317 0.854 . S
H1290 C1325 0.930 . S
H1291 C1326 0.930 . S
H1292 C1328 0.930 . S
H1293 C1329 0.930 . S
H1294 C1331 0.931 . S
H1295 C1332 0.930 . S
H1296 C1334 0.930 . S
H1297 C1335 0.929 . S
H1298 C1337 0.930 . S
H1299 C1338 0.931 . S
H1300 C1340 0.930 . S
H1301 C1341 0.929 . S
H1302 C1343 0.931 . S
H1303 C1344 0.930 . S
H1304 C1346 0.930 . S
H1305 C1347 0.932 . S
H1306 C1349 0.930 . S
H1307 C1350 0.929 . S
H1308 C1352 0.931 . S
H1309 C1353 0.930 . S
H1310 C1355 0.929 . S
H1311 C1356 0.931 . S
H1312 C1358 0.930 . S
H1313 C1359 0.929 . S
O1314 H1288 0.856 . S
O1314 C1360 1.300 . S
O1315 C1360 1.209 . S
O1316 C1361 1.199 . S
O1317 H1289 0.854 . S
O1317 C1361 1.297 . S
C1318 C1319 1.404 . S
C1318 C1323 1.397 . S
C1318 C1324 1.492 . S
C1319 C1318 1.404 . S
C1319 C1320 1.396 . S
C1319 C1330 1.492 . S
C1320 C1319 1.396 . S
C1320 C1321 1.397 . S
C1320 C1336 1.509 . S
C1321 C1320 1.397 . S
C1321 C1322 1.412 . S
C1321 C1342 1.485 . S
C1322 C1321 1.412 . S
C1322 C1323 1.388 . S
C1322 C1348 1.490 . S
C1323 C1318 1.397 . S
C1323 C1322 1.388 . S
C1323 C1354 1.519 . S
C1324 C1318 1.492 . S
C1324 C1325 1.363 . S
C1324 C1329 1.390 . S
C1325 H1290 0.930 . S
C1325 C1324 1.363 . S
C1325 C1326 1.372 . S
C1326 H1291 0.930 . S
C1326 C1325 1.372 . S
C1326 C1327 1.383 . S
C1327 C1326 1.383 . S
C1327 C1328 1.395 . S
C1328 H1292 0.930 . S
C1328 C1327 1.395 . S
C1328 C1329 1.362 . S
C1329 H1293 0.930 . S
C1329 C1324 1.390 . S
C1329 C1328 1.362 . S
C1330 C1319 1.492 . S
C1330 C1331 1.377 . S
C1330 C1335 1.397 . S
C1331 H1294 0.931 . S
C1331 C1330 1.377 . S
C1331 C1332 1.376 . S
C1332 H1295 0.930 . S
C1332 C1331 1.376 . S
C1332 C1333 1.376 . S
C1333 C1332 1.376 . S
C1333 C1334 1.378 . S
C1333 C1360 1.486 . S
C1334 H1296 0.930 . S
C1334 C1333 1.378 . S
C1334 C1335 1.376 . S
C1335 H1297 0.929 . S
C1335 C1330 1.397 . S
C1335 C1334 1.376 . S
C1336 C1320 1.509 . S
C1336 C1337 1.391 . S
C1336 C1341 1.386 . S
C1337 H1298 0.930 . S
C1337 C1336 1.391 . S
C1337 C1338 1.375 . S
C1338 H1299 0.931 . S
C1338 C1337 1.375 . S
C1338 C1339 1.375 . S
C1339 C1338 1.375 . S
C1339 C1340 1.361 . S
C1340 H1300 0.930 . S
C1340 C1339 1.361 . S
C1340 C1341 1.399 . S
C1341 H1301 0.929 . S
C1341 C1336 1.386 . S
C1341 C1340 1.399 . S
C1342 C1321 1.485 . S
C1342 C1343 1.394 . S
C1342 C1347 1.360 . S
C1343 H1302 0.931 . S
C1343 C1342 1.394 . S
C1343 C1344 1.372 . S
C1344 H1303 0.930 . S
C1344 C1343 1.372 . S
C1344 C1345 1.397 . S
C1345 C1344 1.397 . S
C1345 C1346 1.390 . S
C1345 C1361 1.476 . S
C1346 H1304 0.930 . S
C1346 C1345 1.390 . S
C1346 C1347 1.366 . S
C1347 H1305 0.932 . S
C1347 C1342 1.360 . S
C1347 C1346 1.366 . S
C1348 C1322 1.490 . S
C1348 C1349 1.380 . S
C1348 C1353 1.386 . S
C1349 H1306 0.930 . S
C1349 C1348 1.380 . S
C1349 C1350 1.381 . S
C1350 H1307 0.929 . S
C1350 C1349 1.381 . S
C1350 C1351 1.371 . S
C1351 C1350 1.371 . S
C1351 C1352 1.380 . S
C1352 H1308 0.931 . S
C1352 C1351 1.380 . S
C1352 C1353 1.387 . S
C1353 H1309 0.930 . S
C1353 C1348 1.386 . S
C1353 C1352 1.387 . S
C1354 C1323 1.519 . S
C1354 C1355 1.377 . S
C1354 C1359 1.361 . S
C1355 H1310 0.929 . S
C1355 C1354 1.377 . S
C1355 C1356 1.386 . S
C1356 H1311 0.931 . S
C1356 C1355 1.386 . S
C1356 C1357 1.363 . S
C1357 C1356 1.363 . S
C1357 C1358 1.385 . S
C1358 H1312 0.930 . S
C1358 C1357 1.385 . S
C1358 C1359 1.396 . S
C1359 H1313 0.929 . S
C1359 C1354 1.361 . S
C1359 C1358 1.396 . S
C1360 O1314 1.300 . S
C1360 O1315 1.209 . S
C1360 C1333 1.486 . S
C1361 O1316 1.199 . S
C1361 O1317 1.297 . S
C1361 C1345 1.476 . S
H1362 O1388 0.856 . S
H1363 O1391 0.854 . S
H1364 C1399 0.930 . S
H1365 C1400 0.930 . S
H1366 C1402 0.930 . S
H1367 C1403 0.930 . S
H1368 C1405 0.931 . S
H1369 C1406 0.930 . S
H1370 C1408 0.930 . S
H1371 C1409 0.929 . S
H1372 C1411 0.930 . S
H1373 C1412 0.931 . S
H1374 C1414 0.930 . S
H1375 C1415 0.929 . S
H1376 C1417 0.931 . S
H1377 C1418 0.930 . S
H1378 C1420 0.930 . S
H1379 C1421 0.932 . S
H1380 C1423 0.930 . S
H1381 C1424 0.929 . S
H1382 C1426 0.931 . S
H1383 C1427 0.930 . S
H1384 C1429 0.929 . S
H1385 C1430 0.931 . S
H1386 C1432 0.930 . S
H1387 C1433 0.929 . S
O1388 H1362 0.856 . S
O1388 C1434 1.300 . S
O1389 C1434 1.209 . S
O1390 C1435 1.199 . S
O1391 H1363 0.854 . S
O1391 C1435 1.297 . S
C1392 C1393 1.404 . S
C1392 C1397 1.397 . S
C1392 C1398 1.492 . S
C1393 C1392 1.404 . S
C1393 C1394 1.396 . S
C1393 C1404 1.492 . S
C1394 C1393 1.396 . S
C1394 C1395 1.397 . S
C1394 C1410 1.509 . S
C1395 C1394 1.397 . S
C1395 C1396 1.412 . S
C1395 C1416 1.485 . S
C1396 C1395 1.412 . S
C1396 C1397 1.388 . S
C1396 C1422 1.490 . S
C1397 C1392 1.397 . S
C1397 C1396 1.388 . S
C1397 C1428 1.519 . S
C1398 C1392 1.492 . S
C1398 C1399 1.363 . S
C1398 C1403 1.390 . S
C1399 H1364 0.930 . S
C1399 C1398 1.363 . S
C1399 C1400 1.372 . S
C1400 H1365 0.930 . S
C1400 C1399 1.372 . S
C1400 C1401 1.383 . S
C1401 C1400 1.383 . S
C1401 C1402 1.395 . S
C1402 H1366 0.930 . S
C1402 C1401 1.395 . S
C1402 C1403 1.362 . S
C1403 H1367 0.930 . S
C1403 C1398 1.390 . S
C1403 C1402 1.362 . S
C1404 C1393 1.492 . S
C1404 C1405 1.377 . S
C1404 C1409 1.397 . S
C1405 H1368 0.931 . S
C1405 C1404 1.377 . S
C1405 C1406 1.376 . S
C1406 H1369 0.930 . S
C1406 C1405 1.376 . S
C1406 C1407 1.376 . S
C1407 C1406 1.376 . S
C1407 C1408 1.378 . S
C1407 C1434 1.486 . S
C1408 H1370 0.930 . S
C1408 C1407 1.378 . S
C1408 C1409 1.376 . S
C1409 H1371 0.929 . S
C1409 C1404 1.397 . S
C1409 C1408 1.376 . S
C1410 C1394 1.509 . S
C1410 C1411 1.391 . S
C1410 C1415 1.386 . S
C1411 H1372 0.930 . S
C1411 C1410 1.391 . S
C1411 C1412 1.375 . S
C1412 H1373 0.931 . S
C1412 C1411 1.375 . S
C1412 C1413 1.375 . S
C1413 C1412 1.375 . S
C1413 C1414 1.361 . S
C1414 H1374 0.930 . S
C1414 C1413 1.361 . S
C1414 C1415 1.399 . S
C1415 H1375 0.929 . S
C1415 C1410 1.386 . S
C1415 C1414 1.399 . S
C1416 C1395 1.485 . S
C1416 C1417 1.394 . S
C1416 C1421 1.360 . S
C1417 H1376 0.931 . S
C1417 C1416 1.394 . S
C1417 C1418 1.372 . S
C1418 H1377 0.930 . S
C1418 C1417 1.372 . S
C1418 C1419 1.397 . S
C1419 C1418 1.397 . S
C1419 C1420 1.390 . S
C1419 C1435 1.476 . S
C1420 H1378 0.930 . S
C1420 C1419 1.390 . S
C1420 C1421 1.366 . S
C1421 H1379 0.932 . S
C1421 C1416 1.360 . S
C1421 C1420 1.366 . S
C1422 C1396 1.490 . S
C1422 C1423 1.380 . S
C1422 C1427 1.386 . S
C1423 H1380 0.930 . S
C1423 C1422 1.380 . S
C1423 C1424 1.381 . S
C1424 H1381 0.929 . S
C1424 C1423 1.381 . S
C1424 C1425 1.371 . S
C1425 C1424 1.371 . S
C1425 C1426 1.380 . S
C1426 H1382 0.931 . S
C1426 C1425 1.380 . S
C1426 C1427 1.387 . S
C1427 H1383 0.930 . S
C1427 C1422 1.386 . S
C1427 C1426 1.387 . S
C1428 C1397 1.519 . S
C1428 C1429 1.377 . S
C1428 C1433 1.361 . S
C1429 H1384 0.929 . S
C1429 C1428 1.377 . S
C1429 C1430 1.386 . S
C1430 H1385 0.931 . S
C1430 C1429 1.386 . S
C1430 C1431 1.363 . S
C1431 C1430 1.363 . S
C1431 C1432 1.385 . S
C1432 H1386 0.930 . S
C1432 C1431 1.385 . S
C1432 C1433 1.396 . S
C1433 H1387 0.929 . S
C1433 C1428 1.361 . S
C1433 C1432 1.396 . S
C1434 O1388 1.300 . S
C1434 O1389 1.209 . S
C1434 C1407 1.486 . S
C1435 O1390 1.199 . S
C1435 O1391 1.297 . S
C1435 C1419 1.476 . S
H1436 O1462 0.856 . S
H1437 O1465 0.854 . S
H1438 C1473 0.930 . S
H1439 C1474 0.930 . S
H1440 C1476 0.930 . S
H1441 C1477 0.930 . S
H1442 C1479 0.931 . S
H1443 C1480 0.930 . S
H1444 C1482 0.930 . S
H1445 C1483 0.929 . S
H1446 C1485 0.930 . S
H1447 C1486 0.931 . S
H1448 C1488 0.930 . S
H1449 C1489 0.929 . S
H1450 C1491 0.931 . S
H1451 C1492 0.930 . S
H1452 C1494 0.930 . S
H1453 C1495 0.932 . S
H1454 C1497 0.930 . S
H1455 C1498 0.929 . S
H1456 C1500 0.931 . S
H1457 C1501 0.930 . S
H1458 C1503 0.929 . S
H1459 C1504 0.931 . S
H1460 C1506 0.930 . S
H1461 C1507 0.929 . S
O1462 H1436 0.856 . S
O1462 C1508 1.300 . S
O1463 C1508 1.209 . S
O1464 C1509 1.199 . S
O1465 H1437 0.854 . S
O1465 C1509 1.297 . S
C1466 C1467 1.404 . S
C1466 C1471 1.397 . S
C1466 C1472 1.492 . S
C1467 C1466 1.404 . S
C1467 C1468 1.396 . S
C1467 C1478 1.492 . S
C1468 C1467 1.396 . S
C1468 C1469 1.397 . S
C1468 C1484 1.509 . S
C1469 C1468 1.397 . S
C1469 C1470 1.412 . S
C1469 C1490 1.485 . S
C1470 C1469 1.412 . S
C1470 C1471 1.388 . S
C1470 C1496 1.490 . S
C1471 C1466 1.397 . S
C1471 C1470 1.388 . S
C1471 C1502 1.519 . S
C1472 C1466 1.492 . S
C1472 C1473 1.363 . S
C1472 C1477 1.390 . S
C1473 H1438 0.930 . S
C1473 C1472 1.363 . S
C1473 C1474 1.372 . S
C1474 H1439 0.930 . S
C1474 C1473 1.372 . S
C1474 C1475 1.383 . S
C1475 C1474 1.383 . S
C1475 C1476 1.395 . S
C1476 H1440 0.930 . S
C1476 C1475 1.395 . S
C1476 C1477 1.362 . S
C1477 H1441 0.930 . S
C1477 C1472 1.390 . S
C1477 C1476 1.362 . S
C1478 C1467 1.492 . S
C1478 C1479 1.377 . S
C1478 C1483 1.397 . S
C1479 H1442 0.931 . S
C1479 C1478 1.377 . S
C1479 C1480 1.376 . S
C1480 H1443 0.930 . S
C1480 C1479 1.376 . S
C1480 C1481 1.376 . S
C1481 C1480 1.376 . S
C1481 C1482 1.378 . S
C1481 C1508 1.486 . S
C1482 H1444 0.930 . S
C1482 C1481 1.378 . S
C1482 C1483 1.376 . S
C1483 H1445 0.929 . S
C1483 C1478 1.397 . S
C1483 C1482 1.376 . S
C1484 C1468 1.509 . S
C1484 C1485 1.391 . S
C1484 C1489 1.386 . S
C1485 H1446 0.930 . S
C1485 C1484 1.391 . S
C1485 C1486 1.375 . S
C1486 H1447 0.931 . S
C1486 C1485 1.375 . S
C1486 C1487 1.375 . S
C1487 C1486 1.375 . S
C1487 C1488 1.361 . S
C1488 H1448 0.930 . S
C1488 C1487 1.361 . S
C1488 C1489 1.399 . S
C1489 H1449 0.929 . S
C1489 C1484 1.386 . S
C1489 C1488 1.399 . S
C1490 C1469 1.485 . S
C1490 C1491 1.394 . S
C1490 C1495 1.360 . S
C1491 H1450 0.931 . S
C1491 C1490 1.394 . S
C1491 C1492 1.372 . S
C1492 H1451 0.930 . S
C1492 C1491 1.372 . S
C1492 C1493 1.397 . S
C1493 C1492 1.397 . S
C1493 C1494 1.390 . S
C1493 C1509 1.476 . S
C1494 H1452 0.930 . S
C1494 C1493 1.390 . S
C1494 C1495 1.366 . S
C1495 H1453 0.932 . S
C1495 C1490 1.360 . S
C1495 C1494 1.366 . S
C1496 C1470 1.490 . S
C1496 C1497 1.380 . S
C1496 C1501 1.386 . S
C1497 H1454 0.930 . S
C1497 C1496 1.380 . S
C1497 C1498 1.381 . S
C1498 H1455 0.929 . S
C1498 C1497 1.381 . S
C1498 C1499 1.371 . S
C1499 C1498 1.371 . S
C1499 C1500 1.380 . S
C1500 H1456 0.931 . S
C1500 C1499 1.380 . S
C1500 C1501 1.387 . S
C1501 H1457 0.930 . S
C1501 C1496 1.386 . S
C1501 C1500 1.387 . S
C1502 C1471 1.519 . S
C1502 C1503 1.377 . S
C1502 C1507 1.361 . S
C1503 H1458 0.929 . S
C1503 C1502 1.377 . S
C1503 C1504 1.386 . S
C1504 H1459 0.931 . S
C1504 C1503 1.386 . S
C1504 C1505 1.363 . S
C1505 C1504 1.363 . S
C1505 C1506 1.385 . S
C1506 H1460 0.930 . S
C1506 C1505 1.385 . S
C1506 C1507 1.396 . S
C1507 H1461 0.929 . S
C1507 C1502 1.361 . S
C1507 C1506 1.396 . S
C1508 O1462 1.300 . S
C1508 O1463 1.209 . S
C1508 C1481 1.486 . S
C1509 O1464 1.199 . S
C1509 O1465 1.297 . S
C1509 C1493 1.476 . S
H1510 O1536 0.856 . S
H1511 O1539 0.854 . S
H1512 C1547 0.930 . S
H1513 C1548 0.930 . S
H1514 C1550 0.930 . S
H1515 C1551 0.930 . S
H1516 C1553 0.931 . S
H1517 C1554 0.930 . S
H1518 C1556 0.930 . S
H1519 C1557 0.929 . S
H1520 C1559 0.930 . S
H1521 C1560 0.931 . S
H1522 C1562 0.930 . S
H1523 C1563 0.929 . S
H1524 C1565 0.931 . S
H1525 C1566 0.930 . S
H1526 C1568 0.930 . S
H1527 C1569 0.932 . S
H1528 C1571 0.930 . S
H1529 C1572 0.929 . S
H1530 C1574 0.931 . S
H1531 C1575 0.930 . S
H1532 C1577 0.929 . S
H1533 C1578 0.931 . S
H1534 C1580 0.930 . S
H1535 C1581 0.929 . S
O1536 H1510 0.856 . S
O1536 C1582 1.300 . S
O1537 C1582 1.209 . S
O1538 C1583 1.199 . S
O1539 H1511 0.854 . S
O1539 C1583 1.297 . S
C1540 C1541 1.404 . S
C1540 C1545 1.397 . S
C1540 C1546 1.492 . S
C1541 C1540 1.404 . S
C1541 C1542 1.396 . S
C1541 C1552 1.492 . S
C1542 C1541 1.396 . S
C1542 C1543 1.397 . S
C1542 C1558 1.509 . S
C1543 C1542 1.397 . S
C1543 C1544 1.412 . S
C1543 C1564 1.485 . S
C1544 C1543 1.412 . S
C1544 C1545 1.388 . S
C1544 C1570 1.490 . S
C1545 C1540 1.397 . S
C1545 C1544 1.388 . S
C1545 C1576 1.519 . S
C1546 C1540 1.492 . S
C1546 C1547 1.363 . S
C1546 C1551 1.390 . S
C1547 H1512 0.930 . S
C1547 C1546 1.363 . S
C1547 C1548 1.372 . S
C1548 H1513 0.930 . S
C1548 C1547 1.372 . S
C1548 C1549 1.383 . S
C1549 C1548 1.383 . S
C1549 C1550 1.395 . S
C1550 H1514 0.930 . S
C1550 C1549 1.395 . S
C1550 C1551 1.362 . S
C1551 H1515 0.930 . S
C1551 C1546 1.390 . S
C1551 C1550 1.362 . S
C1552 C1541 1.492 . S
C1552 C1553 1.377 . S
C1552 C1557 1.397 . S
C1553 H1516 0.931 . S
C1553 C1552 1.377 . S
C1553 C1554 1.376 . S
C1554 H1517 0.930 . S
C1554 C1553 1.376 . S
C1554 C1555 1.376 . S
C1555 C1554 1.376 . S
C1555 C1556 1.378 . S
C1555 C1582 1.486 . S
C1556 H1518 0.930 . S
C1556 C1555 1.378 . S
C1556 C1557 1.376 . S
C1557 H1519 0.929 . S
C1557 C1552 1.397 . S
C1557 C1556 1.376 . S
C1558 C1542 1.509 . S
C1558 C1559 1.391 . S
C1558 C1563 1.386 . S
C1559 H1520 0.930 . S
C1559 C1558 1.391 . S
C1559 C1560 1.375 . S
C1560 H1521 0.931 . S
C1560 C1559 1.375 . S
C1560 C1561 1.375 . S
C1561 C1560 1.375 . S
C1561 C1562 1.361 . S
C1562 H1522 0.930 . S
C1562 C1561 1.361 . S
C1562 C1563 1.399 . S
C1563 H1523 0.929 . S
C1563 C1558 1.386 . S
C1563 C1562 1.399 . S
C1564 C1543 1.485 . S
C1564 C1565 1.394 . S
C1564 C1569 1.360 . S
C1565 H1524 0.931 . S
C1565 C1564 1.394 . S
C1565 C1566 1.372 . S
C1566 H1525 0.930 . S
C1566 C1565 1.372 . S
C1566 C1567 1.397 . S
C1567 C1566 1.397 . S
C1567 C1568 1.390 . S
C1567 C1583 1.476 . S
C1568 H1526 0.930 . S
C1568 C1567 1.390 . S
C1568 C1569 1.366 . S
C1569 H1527 0.932 . S
C1569 C1564 1.360 . S
C1569 C1568 1.366 . S
C1570 C1544 1.490 . S
C1570 C1571 1.380 . S
C1570 C1575 1.386 . S
C1571 H1528 0.930 . S
C1571 C1570 1.380 . S
C1571 C1572 1.381 . S
C1572 H1529 0.929 . S
C1572 C1571 1.381 . S
C1572 C1573 1.371 . S
C1573 C1572 1.371 . S
C1573 C1574 1.380 . S
C1574 H1530 0.931 . S
C1574 C1573 1.380 . S
C1574 C1575 1.387 . S
C1575 H1531 0.930 . S
C1575 C1570 1.386 . S
C1575 C1574 1.387 . S
C1576 C1545 1.519 . S
C1576 C1577 1.377 . S
C1576 C1581 1.361 . S
C1577 H1532 0.929 . S
C1577 C1576 1.377 . S
C1577 C1578 1.386 . S
C1578 H1533 0.931 . S
C1578 C1577 1.386 . S
C1578 C1579 1.363 . S
C1579 C1578 1.363 . S
C1579 C1580 1.385 . S
C1580 H1534 0.930 . S
C1580 C1579 1.385 . S
C1580 C1581 1.396 . S
C1581 H1535 0.929 . S
C1581 C1576 1.361 . S
C1581 C1580 1.396 . S
C1582 O1536 1.300 . S
C1582 O1537 1.209 . S
C1582 C1555 1.486 . S
C1583 O1538 1.199 . S
C1583 O1539 1.297 . S
C1583 C1567 1.476 . S
H1584 C1590 0.930 . S
H1585 C1594 0.930 . S
H1586 C1599 0.929 . S
H1587 C1597 0.929 . S
H1588 C1592 0.929 . S
H1589 C1598 0.929 . S
C1590 H1584 0.930 . S
C1590 C1591 1.367 . S
C1590 C1598 1.378 . S
C1591 C1590 1.367 . S
C1591 C1599 1.433 . S
C1592 H1588 0.929 . S
C1592 C1594 1.378 . S
C1592 C1596 1.350 . S
C1593 C1596 1.463 . S
C1593 C1598 1.350 . S
C1593 N1601 1.427 . S
C1594 H1585 0.930 . S
C1594 C1592 1.378 . S
C1594 C1595 1.367 . S
C1595 C1594 1.367 . S
C1595 C1597 1.433 . S
C1596 C1592 1.350 . S
C1596 C1593 1.463 . S
C1596 N1600 1.427 . S
C1597 H1587 0.929 . S
C1597 C1595 1.433 . S
C1597 N1600 1.384 . S
C1598 H1589 0.929 . S
C1598 C1590 1.378 . S
C1598 C1593 1.350 . S
C1599 H1586 0.929 . S
C1599 C1591 1.433 . S
C1599 N1601 1.384 . S
N1600 C1596 1.427 . S
N1600 C1597 1.384 . S
N1601 C1593 1.427 . S
N1601 C1599 1.384 . S
H1602 C1608 0.930 . S
H1603 C1612 0.930 . S
H1604 C1617 0.929 . S
H1605 C1615 0.929 . S
H1606 C1610 0.929 . S
H1607 C1616 0.929 . S
C1608 H1602 0.930 . S
C1608 C1609 1.367 . S
C1608 C1616 1.378 . S
C1609 C1608 1.367 . S
C1609 C1617 1.433 . S
C1610 H1606 0.929 . S
C1610 C1612 1.378 . S
C1610 C1614 1.350 . S
C1611 C1614 1.463 . S
C1611 C1616 1.350 . S
C1611 N1619 1.427 . S
C1612 H1603 0.930 . S
C1612 C1610 1.378 . S
C1612 C1613 1.367 . S
C1613 C1612 1.367 . S
C1613 C1615 1.433 . S
C1614 C1610 1.350 . S
C1614 C1611 1.463 . S
C1614 N1618 1.427 . S
C1615 H1605 0.929 . S
C1615 C1613 1.433 . S
C1615 N1618 1.384 . S
C1616 H1607 0.929 . S
C1616 C1608 1.378 . S
C1616 C1611 1.350 . S
C1617 H1604 0.929 . S
C1617 C1609 1.433 . S
C1617 N1619 1.384 . S
N1618 C1614 1.427 . S
N1618 C1615 1.384 . S
N1619 C1611 1.427 . S
N1619 C1617 1.384 . S
H1620 C1626 0.930 . S
H1621 C1630 0.930 . S
H1622 C1635 0.929 . S
H1623 C1633 0.929 . S
H1624 C1628 0.929 . S
H1625 C1634 0.929 . S
C1626 H1620 0.930 . S
C1626 C1627 1.367 . S
C1626 C1634 1.378 . S
C1627 C1626 1.367 . S
C1627 C1635 1.433 1_545 S
C1628 H1624 0.929 . S
C1628 C1630 1.378 . S
C1628 C1632 1.350 1_565 S
C1629 C1632 1.463 . S
C1629 C1634 1.350 . S
C1629 N1637 1.427 1_545 S
C1630 H1621 0.930 . S
C1630 C1628 1.378 . S
C1630 C1631 1.367 1_565 S
C1631 C1630 1.367 1_545 S
C1631 C1633 1.433 . S
C1632 C1628 1.350 1_545 S
C1632 C1629 1.463 . S
C1632 N1636 1.427 . S
C1633 H1623 0.929 . S
C1633 C1631 1.433 . S
C1633 N1636 1.384 . S
C1634 H1625 0.929 . S
C1634 C1626 1.378 . S
C1634 C1629 1.350 . S
C1635 H1622 0.929 . S
C1635 C1627 1.433 1_565 S
C1635 N1637 1.384 . S
N1636 C1632 1.427 . S
N1636 C1633 1.384 . S
N1637 C1629 1.427 1_565 S
N1637 C1635 1.384 . S
H1638 C1644 0.930 . S
H1639 C1648 0.930 . S
H1640 C1653 0.929 . S
H1641 C1651 0.929 . S
H1642 C1646 0.929 . S
H1643 C1652 0.929 . S
C1644 H1638 0.930 . S
C1644 C1645 1.367 1_545 S
C1644 C1652 1.378 . S
C1645 C1644 1.367 1_565 S
C1645 C1653 1.433 . S
C1646 H1642 0.929 . S
C1646 C1648 1.378 . S
C1646 C1650 1.350 . S
C1647 C1650 1.463 . S
C1647 C1652 1.350 1_565 S
C1647 N1655 1.427 . S
C1648 H1639 0.930 . S
C1648 C1646 1.378 . S
C1648 C1649 1.367 . S
C1649 C1648 1.367 . S
C1649 C1651 1.433 1_565 S
C1650 C1646 1.350 . S
C1650 C1647 1.463 . S
C1650 N1654 1.427 1_565 S
C1651 H1641 0.929 . S
C1651 C1649 1.433 1_545 S
C1651 N1654 1.384 . S
C1652 H1643 0.929 . S
C1652 C1644 1.378 . S
C1652 C1647 1.350 1_545 S
C1653 H1640 0.929 . S
C1653 C1645 1.433 . S
C1653 N1655 1.384 . S
N1654 C1650 1.427 1_545 S
N1654 C1651 1.384 . S
N1655 C1647 1.427 . S
N1655 C1653 1.384 . S
H1656 C1662 0.930 . S
H1657 C1666 0.930 . S
H1658 C1671 0.929 . S
H1659 C1669 0.929 . S
H1660 C1664 0.929 . S
H1661 C1670 0.929 . S
C1662 H1656 0.930 . S
C1662 C1663 1.367 . S
C1662 C1670 1.378 . S
C1663 C1662 1.367 . S
C1663 C1671 1.433 . S
C1664 H1660 0.929 . S
C1664 C1666 1.378 . S
C1664 C1668 1.350 . S
C1665 C1668 1.463 . S
C1665 C1670 1.350 . S
C1665 N1673 1.427 . S
C1666 H1657 0.930 . S
C1666 C1664 1.378 . S
C1666 C1667 1.367 . S
C1667 C1666 1.367 . S
C1667 C1669 1.433 . S
C1668 C1664 1.350 . S
C1668 C1665 1.463 . S
C1668 N1672 1.427 . S
C1669 H1659 0.929 . S
C1669 C1667 1.433 . S
C1669 N1672 1.384 . S
C1670 H1661 0.929 . S
C1670 C1662 1.378 . S
C1670 C1665 1.350 . S
C1671 H1658 0.929 . S
C1671 C1663 1.433 . S
C1671 N1673 1.384 . S
N1672 C1668 1.427 . S
N1672 C1669 1.384 . S
N1673 C1665 1.427 . S
N1673 C1671 1.384 . S
H1674 C1680 0.930 . S
H1675 C1684 0.930 . S
H1676 C1689 0.929 . S
H1677 C1687 0.929 . S
H1678 C1682 0.929 . S
H1679 C1688 0.929 . S
C1680 H1674 0.930 . S
C1680 C1681 1.367 1_556 S
C1680 C1688 1.378 . S
C1681 C1680 1.367 1_554 S
C1681 C1689 1.433 . S
C1682 H1678 0.929 . S
C1682 C1684 1.378 . S
C1682 C1686 1.350 . S
C1683 C1686 1.463 . S
C1683 C1688 1.350 . S
C1683 N1691 1.427 . S
C1684 H1675 0.930 . S
C1684 C1682 1.378 . S
C1684 C1685 1.367 . S
C1685 C1684 1.367 . S
C1685 C1687 1.433 . S
C1686 C1682 1.350 . S
C1686 C1683 1.463 . S
C1686 N1690 1.427 . S
C1687 H1677 0.929 . S
C1687 C1685 1.433 . S
C1687 N1690 1.384 . S
C1688 H1679 0.929 . S
C1688 C1680 1.378 . S
C1688 C1683 1.350 . S
C1689 H1676 0.929 . S
C1689 C1681 1.433 . S
C1689 N1691 1.384 1_554 S
N1690 C1686 1.427 . S
N1690 C1687 1.384 . S
N1691 C1683 1.427 . S
N1691 C1689 1.384 1_556 S
H1692 C1698 0.930 . S
H1693 C1702 0.930 . S
H1694 C1707 0.929 . S
H1695 C1705 0.929 . S
H1696 C1700 0.929 . S
H1697 C1706 0.929 . S
C1698 H1692 0.930 . S
C1698 C1699 1.367 1_556 S
C1698 C1706 1.378 . S
C1699 C1698 1.367 1_554 S
C1699 C1707 1.433 1_455 S
C1700 H1696 0.929 . S
C1700 C1702 1.378 . S
C1700 C1704 1.350 1_655 S
C1701 C1704 1.463 . S
C1701 C1706 1.350 . S
C1701 N1709 1.427 1_455 S
C1702 H1693 0.930 . S
C1702 C1700 1.378 . S
C1702 C1703 1.367 1_655 S
C1703 C1702 1.367 1_455 S
C1703 C1705 1.433 . S
C1704 C1700 1.350 1_455 S
C1704 C1701 1.463 . S
C1704 N1708 1.427 . S
C1705 H1695 0.929 . S
C1705 C1703 1.433 . S
C1705 N1708 1.384 . S
C1706 H1697 0.929 . S
C1706 C1698 1.378 . S
C1706 C1701 1.350 . S
C1707 H1694 0.929 . S
C1707 C1699 1.433 1_655 S
C1707 N1709 1.384 1_554 S
N1708 C1704 1.427 . S
N1708 C1705 1.384 . S
N1709 C1701 1.427 1_655 S
N1709 C1707 1.384 1_556 S
H1710 C1716 0.930 . S
H1711 C1720 0.930 . S
H1712 C1725 0.929 . S
H1713 C1723 0.929 . S
H1714 C1718 0.929 . S
H1715 C1724 0.929 . S
C1716 H1710 0.930 . S
C1716 C1717 1.367 . S
C1716 C1724 1.378 . S
C1717 C1716 1.367 . S
C1717 C1725 1.433 . S
C1718 H1714 0.929 . S
C1718 C1720 1.378 . S
C1718 C1722 1.350 . S
C1719 C1722 1.463 . S
C1719 C1724 1.350 . S
C1719 N1727 1.427 . S
C1720 H1711 0.930 . S
C1720 C1718 1.378 . S
C1720 C1721 1.367 . S
C1721 C1720 1.367 . S
C1721 C1723 1.433 . S
C1722 C1718 1.350 . S
C1722 C1719 1.463 . S
C1722 N1726 1.427 . S
C1723 H1713 0.929 . S
C1723 C1721 1.433 . S
C1723 N1726 1.384 . S
C1724 H1715 0.929 . S
C1724 C1716 1.378 . S
C1724 C1719 1.350 . S
C1725 H1712 0.929 . S
C1725 C1717 1.433 . S
C1725 N1727 1.384 . S
N1726 C1722 1.427 . S
N1726 C1723 1.384 . S
N1727 C1719 1.427 . S
N1727 C1725 1.384 . S
H1728 C1734 0.930 . S
H1729 C1738 0.930 . S
H1730 C1743 0.982 . S
H1731 C1741 0.929 . S
H1732 C1736 0.929 . S
H1733 C1742 0.929 . S
C1734 H1728 0.930 . S
C1734 C1735 1.367 . S
C1734 C1742 1.378 . S
C1735 C1734 1.367 . S
C1735 C1743 1.425 1_566 S
C1736 H1732 0.929 . S
C1736 C1738 1.378 . S
C1736 C1740 1.350 1_545 S
C1737 C1740 1.463 . S
C1737 C1742 1.350 . S
C1737 N1745 1.427 1_565 S
C1738 H1729 0.930 . S
C1738 C1736 1.378 . S
C1738 C1739 1.384 . S
C1739 C1738 1.384 . S
C1739 C1741 1.398 1_545 S
C1740 C1736 1.350 1_565 S
C1740 C1737 1.463 . S
C1740 N1744 1.427 . S
C1741 H1731 0.929 . S
C1741 C1739 1.398 1_565 S
C1741 N1744 1.384 . S
C1742 H1733 0.929 . S
C1742 C1734 1.378 . S
C1742 C1737 1.350 . S
C1743 H1730 0.982 . S
C1743 C1735 1.425 1_544 S
C1743 N1745 1.340 1_554 S
N1744 C1740 1.427 . S
N1744 C1741 1.384 . S
N1745 C1737 1.427 1_545 S
N1745 C1743 1.340 1_556 S
H1746 C1752 0.930 . S
H1747 C1756 0.930 . S
H1748 C1761 0.929 . S
H1749 C1759 0.929 . S
H1750 C1754 0.929 . S
H1751 C1760 0.929 . S
C1752 H1746 0.930 . S
C1752 C1753 1.367 . S
C1752 C1760 1.378 . S
C1753 C1752 1.367 . S
C1753 C1761 1.433 . S
C1754 H1750 0.929 . S
C1754 C1756 1.378 . S
C1754 C1758 1.350 1_565 S
C1755 C1758 1.463 . S
C1755 C1760 1.350 . S
C1755 N1763 1.427 . S
C1756 H1747 0.930 . S
C1756 C1754 1.378 . S
C1756 C1757 1.384 . S
C1757 C1756 1.384 . S
C1757 C1759 1.421 1_565 S
C1758 C1754 1.350 1_545 S
C1758 C1755 1.463 . S
C1758 N1762 1.427 . S
C1759 H1749 0.929 . S
C1759 C1757 1.421 1_545 S
C1759 N1762 1.384 . S
C1760 H1751 0.929 . S
C1760 C1752 1.378 . S
C1760 C1755 1.350 . S
C1761 H1748 0.929 . S
C1761 C1753 1.433 . S
C1761 N1763 1.384 . S
N1762 C1758 1.427 . S
N1762 C1759 1.384 . S
N1763 C1755 1.427 . S
N1763 C1761 1.384 . S
H1764 C1770 0.930 . S
H1765 C1774 0.930 . S
H1766 C1779 0.929 . S
H1767 C1777 0.929 . S
H1768 C1772 0.929 . S
H1769 C1778 0.929 . S
C1770 H1764 0.930 . S
C1770 C1771 1.367 1_455 S
C1770 C1778 1.378 . S
C1771 C1770 1.367 1_655 S
C1771 C1779 1.433 . S
C1772 H1768 0.929 . S
C1772 C1774 1.378 . S
C1772 C1776 1.350 . S
C1773 C1776 1.463 . S
C1773 C1778 1.350 1_655 S
C1773 N1781 1.427 . S
C1774 H1765 0.930 . S
C1774 C1772 1.378 . S
C1774 C1775 1.367 . S
C1775 C1774 1.367 . S
C1775 C1777 1.433 1_655 S
C1776 C1772 1.350 . S
C1776 C1773 1.463 . S
C1776 N1780 1.427 1_655 S
C1777 H1767 0.929 . S
C1777 C1775 1.433 1_455 S
C1777 N1780 1.384 . S
C1778 H1769 0.929 . S
C1778 C1770 1.378 . S
C1778 C1773 1.350 1_455 S
C1779 H1766 0.929 . S
C1779 C1771 1.433 . S
C1779 N1781 1.384 . S
N1780 C1776 1.427 1_455 S
N1780 C1777 1.384 . S
N1781 C1773 1.427 . S
N1781 C1779 1.384 . S
H1782 C1788 0.930 . S
H1783 C1792 0.930 . S
H1784 C1797 0.929 . S
H1785 C1795 0.929 . S
H1786 C1790 0.929 . S
H1787 C1796 0.929 . S
C1788 H1782 0.930 . S
C1788 C1789 1.367 . S
C1788 C1796 1.378 . S
C1789 C1788 1.367 . S
C1789 C1797 1.433 . S
C1790 H1786 0.929 . S
C1790 C1792 1.378 . S
C1790 C1794 1.350 . S
C1791 C1794 1.463 . S
C1791 C1796 1.350 . S
C1791 N1799 1.427 . S
C1792 H1783 0.930 . S
C1792 C1790 1.378 . S
C1792 C1793 1.367 . S
C1793 C1792 1.367 . S
C1793 C1795 1.433 . S
C1794 C1790 1.350 . S
C1794 C1791 1.463 . S
C1794 N1798 1.427 . S
C1795 H1785 0.929 . S
C1795 C1793 1.433 . S
C1795 N1798 1.384 . S
C1796 H1787 0.929 . S
C1796 C1788 1.378 . S
C1796 C1791 1.350 . S
C1797 H1784 0.929 . S
C1797 C1789 1.433 . S
C1797 N1799 1.384 . S
N1798 C1794 1.427 . S
N1798 C1795 1.384 . S
N1799 C1791 1.427 . S
N1799 C1797 1.384 . S
H1800 C1806 0.930 . S
H1801 C1810 0.930 . S
H1802 C1815 0.929 . S
H1803 C1813 0.929 . S
H1804 C1808 0.929 . S
H1805 C1814 0.929 . S
C1806 H1800 0.930 . S
C1806 C1807 1.367 . S
C1806 C1814 1.378 . S
C1807 C1806 1.367 . S
C1807 C1815 1.433 . S
C1808 H1804 0.929 . S
C1808 C1810 1.378 . S
C1808 C1812 1.350 . S
C1809 C1812 1.463 . S
C1809 C1814 1.350 . S
C1809 N1817 1.427 . S
C1810 H1801 0.930 . S
C1810 C1808 1.378 . S
C1810 C1811 1.367 . S
C1811 C1810 1.367 . S
C1811 C1813 1.433 . S
C1812 C1808 1.350 . S
C1812 C1809 1.463 . S
C1812 N1816 1.427 . S
C1813 H1803 0.929 . S
C1813 C1811 1.433 . S
C1813 N1816 1.384 . S
C1814 H1805 0.929 . S
C1814 C1806 1.378 . S
C1814 C1809 1.350 . S
C1815 H1802 0.929 . S
C1815 C1807 1.433 . S
C1815 N1817 1.384 . S
N1816 C1812 1.427 . S
N1816 C1813 1.384 . S
N1817 C1809 1.427 . S
N1817 C1815 1.384 . S
H1818 C1824 0.930 . S
H1819 C1828 0.930 . S
H1820 C1833 0.929 . S
H1821 C1831 0.929 . S
H1822 C1826 0.929 . S
H1823 C1832 0.929 . S
C1824 H1818 0.930 . S
C1824 C1825 1.367 . S
C1824 C1832 1.378 . S
C1825 C1824 1.367 . S
C1825 C1833 1.433 . S
C1826 H1822 0.929 . S
C1826 C1828 1.378 . S
C1826 C1830 1.350 . S
C1827 C1830 1.463 . S
C1827 C1832 1.350 . S
C1827 N1835 1.427 . S
C1828 H1819 0.930 . S
C1828 C1826 1.378 . S
C1828 C1829 1.367 . S
C1829 C1828 1.367 . S
C1829 C1831 1.433 . S
C1830 C1826 1.350 . S
C1830 C1827 1.463 . S
C1830 N1834 1.427 . S
C1831 H1821 0.929 . S
C1831 C1829 1.433 . S
C1831 N1834 1.384 . S
C1832 H1823 0.929 . S
C1832 C1824 1.378 . S
C1832 C1827 1.350 . S
C1833 H1820 0.929 . S
C1833 C1825 1.433 . S
C1833 N1835 1.384 . S
N1834 C1830 1.427 . S
N1834 C1831 1.384 . S
N1835 C1827 1.427 . S
N1835 C1833 1.384 . S
H1836 C1842 0.930 . S
H1837 C1846 0.930 . S
H1838 C1851 0.929 . S
H1839 C1849 0.929 . S
H1840 C1844 0.929 . S
H1841 C1850 0.929 . S
C1842 H1836 0.930 . S
C1842 C1843 1.367 . S
C1842 C1850 1.378 . S
C1843 C1842 1.367 . S
C1843 C1851 1.433 . S
C1844 H1840 0.929 . S
C1844 C1846 1.378 . S
C1844 C1848 1.350 . S
C1845 C1848 1.463 . S
C1845 C1850 1.350 . S
C1845 N1853 1.427 . S
C1846 H1837 0.930 . S
C1846 C1844 1.378 . S
C1846 C1847 1.367 . S
C1847 C1846 1.367 . S
C1847 C1849 1.433 . S
C1848 C1844 1.350 . S
C1848 C1845 1.463 . S
C1848 N1852 1.427 . S
C1849 H1839 0.929 . S
C1849 C1847 1.433 . S
C1849 N1852 1.384 . S
C1850 H1841 0.929 . S
C1850 C1842 1.378 . S
C1850 C1845 1.350 . S
C1851 H1838 0.929 . S
C1851 C1843 1.433 . S
C1851 N1853 1.384 . S
N1852 C1848 1.427 . S
N1852 C1849 1.384 . S
N1853 C1845 1.427 . S
N1853 C1851 1.384 . S
H1854 C1860 0.930 . S
H1855 C1864 0.930 . S
H1856 C1869 0.929 . S
H1857 C1867 0.929 . S
H1858 C1862 0.929 . S
H1859 C1868 0.929 . S
C1860 H1854 0.930 . S
C1860 C1861 1.367 . S
C1860 C1868 1.378 . S
C1861 C1860 1.367 . S
C1861 C1869 1.433 . S
C1862 H1858 0.929 . S
C1862 C1864 1.378 . S
C1862 C1866 1.350 . S
C1863 C1866 1.463 . S
C1863 C1868 1.350 . S
C1863 N1871 1.427 . S
C1864 H1855 0.930 . S
C1864 C1862 1.378 . S
C1864 C1865 1.367 . S
C1865 C1864 1.367 . S
C1865 C1867 1.433 . S
C1866 C1862 1.350 . S
C1866 C1863 1.463 . S
C1866 N1870 1.427 . S
C1867 H1857 0.929 . S
C1867 C1865 1.433 . S
C1867 N1870 1.384 . S
C1868 H1859 0.929 . S
C1868 C1860 1.378 . S
C1868 C1863 1.350 . S
C1869 H1856 0.929 . S
C1869 C1861 1.433 . S
C1869 N1871 1.384 . S
N1870 C1866 1.427 . S
N1870 C1867 1.384 . S
N1871 C1863 1.427 . S
N1871 C1869 1.384 . S
H1872 C1878 0.930 . S
H1873 C1882 0.930 . S
H1874 C1887 0.929 . S
H1875 C1885 0.929 . S
H1876 C1880 0.929 . S
H1877 C1886 0.929 . S
C1878 H1872 0.930 . S
C1878 C1879 1.367 . S
C1878 C1886 1.378 . S
C1879 C1878 1.367 . S
C1879 C1887 1.433 . S
C1880 H1876 0.929 . S
C1880 C1882 1.378 . S
C1880 C1884 1.350 . S
C1881 C1884 1.463 . S
C1881 C1886 1.350 . S
C1881 N1889 1.427 . S
C1882 H1873 0.930 . S
C1882 C1880 1.378 . S
C1882 C1883 1.367 . S
C1883 C1882 1.367 . S
C1883 C1885 1.433 . S
C1884 C1880 1.350 . S
C1884 C1881 1.463 . S
C1884 N1888 1.427 . S
C1885 H1875 0.929 . S
C1885 C1883 1.433 . S
C1885 N1888 1.384 . S
C1886 H1877 0.929 . S
C1886 C1878 1.378 . S
C1886 C1881 1.350 . S
C1887 H1874 0.929 . S
C1887 C1879 1.433 . S
C1887 N1889 1.384 . S
N1888 C1884 1.427 . S
N1888 C1885 1.384 . S
N1889 C1881 1.427 . S
N1889 C1887 1.384 . S
H1890 C1896 0.930 . S
H1891 C1900 0.930 . S
H1892 C1905 0.929 . S
H1893 C1903 0.929 . S
H1894 C1898 0.929 . S
H1895 C1904 0.929 . S
C1896 H1890 0.930 . S
C1896 C1897 1.367 . S
C1896 C1904 1.378 . S
C1897 C1896 1.367 . S
C1897 C1905 1.433 . S
C1898 H1894 0.929 . S
C1898 C1900 1.378 . S
C1898 C1902 1.350 . S
C1899 C1902 1.463 . S
C1899 C1904 1.350 . S
C1899 N1907 1.427 . S
C1900 H1891 0.930 . S
C1900 C1898 1.378 . S
C1900 C1901 1.367 . S
C1901 C1900 1.367 . S
C1901 C1903 1.433 . S
C1902 C1898 1.350 . S
C1902 C1899 1.463 . S
C1902 N1906 1.427 . S
C1903 H1893 0.929 . S
C1903 C1901 1.433 . S
C1903 N1906 1.384 . S
C1904 H1895 0.929 . S
C1904 C1896 1.378 . S
C1904 C1899 1.350 . S
C1905 H1892 0.929 . S
C1905 C1897 1.433 . S
C1905 N1907 1.384 . S
N1906 C1902 1.427 . S
N1906 C1903 1.384 . S
N1907 C1899 1.427 . S
N1907 C1905 1.384 . S
H1908 C1914 0.930 . S
H1909 C1918 0.930 . S
H1910 C1923 0.929 . S
H1911 C1921 0.929 . S
H1912 C1916 0.929 . S
H1913 C1922 0.929 . S
C1914 H1908 0.930 . S
C1914 C1915 1.367 . S
C1914 C1922 1.378 . S
C1915 C1914 1.367 . S
C1915 C1923 1.433 . S
C1916 H1912 0.929 . S
C1916 C1918 1.378 . S
C1916 C1920 1.350 . S
C1917 C1920 1.463 . S
C1917 C1922 1.350 . S
C1917 N1925 1.427 . S
C1918 H1909 0.930 . S
C1918 C1916 1.378 . S
C1918 C1919 1.367 . S
C1919 C1918 1.367 . S
C1919 C1921 1.433 . S
C1920 C1916 1.350 . S
C1920 C1917 1.463 . S
C1920 N1924 1.427 . S
C1921 H1911 0.929 . S
C1921 C1919 1.433 . S
C1921 N1924 1.384 . S
C1922 H1913 0.929 . S
C1922 C1914 1.378 . S
C1922 C1917 1.350 . S
C1923 H1910 0.929 . S
C1923 C1915 1.433 . S
C1923 N1925 1.384 . S
N1924 C1920 1.427 . S
N1924 C1921 1.384 . S
N1925 C1917 1.427 . S
N1925 C1923 1.384 . S
H1926 C1932 0.930 . S
H1927 C1936 0.930 . S
H1928 C1941 0.929 . S
H1929 C1939 0.929 . S
H1930 C1934 0.929 . S
H1931 C1940 0.929 . S
C1932 H1926 0.930 . S
C1932 C1933 1.367 . S
C1932 C1940 1.378 . S
C1933 C1932 1.367 . S
C1933 C1941 1.433 . S
C1934 H1930 0.929 . S
C1934 C1936 1.378 . S
C1934 C1938 1.350 . S
C1935 C1938 1.463 . S
C1935 C1940 1.350 . S
C1935 N1943 1.427 . S
C1936 H1927 0.930 . S
C1936 C1934 1.378 . S
C1936 C1937 1.367 . S
C1937 C1936 1.367 . S
C1937 C1939 1.433 . S
C1938 C1934 1.350 . S
C1938 C1935 1.463 . S
C1938 N1942 1.427 . S
C1939 H1929 0.929 . S
C1939 C1937 1.433 . S
C1939 N1942 1.384 . S
C1940 H1931 0.929 . S
C1940 C1932 1.378 . S
C1940 C1935 1.350 . S
C1941 H1928 0.929 . S
C1941 C1933 1.433 . S
C1941 N1943 1.384 . S
N1942 C1938 1.427 . S
N1942 C1939 1.384 . S
N1943 C1935 1.427 . S
N1943 C1941 1.384 . S
H1944 C1950 0.930 . S
H1945 C1954 0.930 . S
H1946 C1959 0.929 . S
H1947 C1957 0.929 . S
H1948 C1952 0.929 . S
H1949 C1958 0.929 . S
C1950 H1944 0.930 . S
C1950 C1951 1.367 . S
C1950 C1958 1.378 . S
C1951 C1950 1.367 . S
C1951 C1959 1.433 . S
C1952 H1948 0.929 . S
C1952 C1954 1.378 . S
C1952 C1956 1.350 . S
C1953 C1956 1.463 . S
C1953 C1958 1.350 . S
C1953 N1961 1.427 . S
C1954 H1945 0.930 . S
C1954 C1952 1.378 . S
C1954 C1955 1.367 . S
C1955 C1954 1.367 . S
C1955 C1957 1.433 . S
C1956 C1952 1.350 . S
C1956 C1953 1.463 . S
C1956 N1960 1.427 . S
C1957 H1947 0.929 . S
C1957 C1955 1.433 . S
C1957 N1960 1.384 . S
C1958 H1949 0.929 . S
C1958 C1950 1.378 . S
C1958 C1953 1.350 . S
C1959 H1946 0.929 . S
C1959 C1951 1.433 . S
C1959 N1961 1.384 . S
N1960 C1956 1.427 . S
N1960 C1957 1.384 . S
N1961 C1953 1.427 . S
N1961 C1959 1.384 . S
H1962 C1968 0.930 . S
H1963 C1972 0.930 . S
H1964 C1977 0.929 . S
H1965 C1975 0.929 . S
H1966 C1970 0.929 . S
H1967 C1976 0.929 . S
C1968 H1962 0.930 . S
C1968 C1969 1.367 . S
C1968 C1976 1.378 . S
C1969 C1968 1.367 . S
C1969 C1977 1.433 . S
C1970 H1966 0.929 . S
C1970 C1972 1.378 . S
C1970 C1974 1.350 . S
C1971 C1974 1.463 . S
C1971 C1976 1.350 . S
C1971 N1979 1.427 . S
C1972 H1963 0.930 . S
C1972 C1970 1.378 . S
C1972 C1973 1.367 . S
C1973 C1972 1.367 . S
C1973 C1975 1.433 . S
C1974 C1970 1.350 . S
C1974 C1971 1.463 . S
C1974 N1978 1.427 . S
C1975 H1965 0.929 . S
C1975 C1973 1.433 . S
C1975 N1978 1.384 . S
C1976 H1967 0.929 . S
C1976 C1968 1.378 . S
C1976 C1971 1.350 . S
C1977 H1964 0.929 . S
C1977 C1969 1.433 . S
C1977 N1979 1.384 . S
N1978 C1974 1.427 . S
N1978 C1975 1.384 . S
N1979 C1971 1.427 . S
N1979 C1977 1.384 . S
H1980 C1986 0.930 . S
H1981 C1990 0.930 . S
H1982 C1995 0.929 . S
H1983 C1993 0.929 . S
H1984 C1988 0.929 . S
H1985 C1994 0.929 . S
C1986 H1980 0.930 . S
C1986 C1987 1.367 . S
C1986 C1994 1.378 . S
C1987 C1986 1.367 . S
C1987 C1995 1.433 . S
C1988 H1984 0.929 . S
C1988 C1990 1.378 . S
C1988 C1992 1.350 . S
C1989 C1992 1.463 . S
C1989 C1994 1.350 . S
C1989 N1997 1.427 . S
C1990 H1981 0.930 . S
C1990 C1988 1.378 . S
C1990 C1991 1.367 . S
C1991 C1990 1.367 . S
C1991 C1993 1.433 . S
C1992 C1988 1.350 . S
C1992 C1989 1.463 . S
C1992 N1996 1.427 . S
C1993 H1983 0.929 . S
C1993 C1991 1.433 . S
C1993 N1996 1.384 . S
C1994 H1985 0.929 . S
C1994 C1986 1.378 . S
C1994 C1989 1.350 . S
C1995 H1982 0.929 . S
C1995 C1987 1.433 . S
C1995 N1997 1.384 . S
N1996 C1992 1.427 . S
N1996 C1993 1.384 . S
N1997 C1989 1.427 . S
N1997 C1995 1.384 . S
H1998 C2004 0.930 . S
H1999 C2008 0.930 . S
H2000 C2013 0.929 . S
H2001 C2011 0.929 . S
H2002 C2006 0.929 . S
H2003 C2012 0.929 . S
C2004 H1998 0.930 . S
C2004 C2005 1.367 . S
C2004 C2012 1.378 . S
C2005 C2004 1.367 . S
C2005 C2013 1.433 . S
C2006 H2002 0.929 . S
C2006 C2008 1.378 . S
C2006 C2010 1.350 . S
C2007 C2010 1.463 . S
C2007 C2012 1.350 . S
C2007 N2015 1.427 . S
C2008 H1999 0.930 . S
C2008 C2006 1.378 . S
C2008 C2009 1.367 . S
C2009 C2008 1.367 . S
C2009 C2011 1.433 . S
C2010 C2006 1.350 . S
C2010 C2007 1.463 . S
C2010 N2014 1.427 . S
C2011 H2001 0.929 . S
C2011 C2009 1.433 . S
C2011 N2014 1.384 . S
C2012 H2003 0.929 . S
C2012 C2004 1.378 . S
C2012 C2007 1.350 . S
C2013 H2000 0.929 . S
C2013 C2005 1.433 . S
C2013 N2015 1.384 . S
N2014 C2010 1.427 . S
N2014 C2011 1.384 . S
N2015 C2007 1.427 . S
N2015 C2013 1.384 . S
H2016 C2022 0.930 . S
H2017 C2026 0.930 . S
H2018 C2031 0.929 . S
H2019 C2029 0.929 . S
H2020 C2024 0.929 . S
H2021 C2030 0.929 . S
C2022 H2016 0.930 . S
C2022 C2023 1.367 . S
C2022 C2030 1.378 . S
C2023 C2022 1.367 . S
C2023 C2031 1.433 . S
C2024 H2020 0.929 . S
C2024 C2026 1.378 . S
C2024 C2028 1.350 . S
C2025 C2028 1.463 . S
C2025 C2030 1.350 . S
C2025 N2033 1.427 . S
C2026 H2017 0.930 . S
C2026 C2024 1.378 . S
C2026 C2027 1.367 . S
C2027 C2026 1.367 . S
C2027 C2029 1.433 . S
C2028 C2024 1.350 . S
C2028 C2025 1.463 . S
C2028 N2032 1.427 . S
C2029 H2019 0.929 . S
C2029 C2027 1.433 . S
C2029 N2032 1.384 . S
C2030 H2021 0.929 . S
C2030 C2022 1.378 . S
C2030 C2025 1.350 . S
C2031 H2018 0.929 . S
C2031 C2023 1.433 . S
C2031 N2033 1.384 . S
N2032 C2028 1.427 . S
N2032 C2029 1.384 . S
N2033 C2025 1.427 . S
N2033 C2031 1.384 . S
H2034 C2040 0.930 . S
H2035 C2044 0.930 . S
H2036 C2049 0.929 . S
H2037 C2047 0.929 . S
H2038 C2042 0.929 . S
H2039 C2048 0.929 . S
C2040 H2034 0.930 . S
C2040 C2041 1.367 . S
C2040 C2048 1.378 . S
C2041 C2040 1.367 . S
C2041 C2049 1.433 . S
C2042 H2038 0.929 . S
C2042 C2044 1.378 . S
C2042 C2046 1.350 . S
C2043 C2046 1.463 . S
C2043 C2048 1.350 . S
C2043 N2051 1.427 . S
C2044 H2035 0.930 . S
C2044 C2042 1.378 . S
C2044 C2045 1.367 . S
C2045 C2044 1.367 . S
C2045 C2047 1.433 . S
C2046 C2042 1.350 . S
C2046 C2043 1.463 . S
C2046 N2050 1.427 . S
C2047 H2037 0.929 . S
C2047 C2045 1.433 . S
C2047 N2050 1.384 . S
C2048 H2039 0.929 . S
C2048 C2040 1.378 . S
C2048 C2043 1.350 . S
C2049 H2036 0.929 . S
C2049 C2041 1.433 . S
C2049 N2051 1.384 . S
N2050 C2046 1.427 . S
N2050 C2047 1.384 . S
N2051 C2043 1.427 . S
N2051 C2049 1.384 . S
H2052 C2058 0.930 . S
H2053 C2062 0.930 . S
H2054 C2067 0.929 . S
H2055 C2065 0.929 . S
H2056 C2060 0.929 . S
H2057 C2066 0.929 . S
C2058 H2052 0.930 . S
C2058 C2059 1.367 . S
C2058 C2066 1.378 . S
C2059 C2058 1.367 . S
C2059 C2067 1.433 . S
C2060 H2056 0.929 . S
C2060 C2062 1.378 . S
C2060 C2064 1.350 . S
C2061 C2064 1.463 . S
C2061 C2066 1.350 . S
C2061 N2069 1.427 . S
C2062 H2053 0.930 . S
C2062 C2060 1.378 . S
C2062 C2063 1.367 . S
C2063 C2062 1.367 . S
C2063 C2065 1.433 . S
C2064 C2060 1.350 . S
C2064 C2061 1.463 . S
C2064 N2068 1.427 . S
C2065 H2055 0.929 . S
C2065 C2063 1.433 . S
C2065 N2068 1.384 . S
C2066 H2057 0.929 . S
C2066 C2058 1.378 . S
C2066 C2061 1.350 . S
C2067 H2054 0.929 . S
C2067 C2059 1.433 . S
C2067 N2069 1.384 . S
N2068 C2064 1.427 . S
N2068 C2065 1.384 . S
N2069 C2061 1.427 . S
N2069 C2067 1.384 . S
H2070 C2076 0.930 . S
H2071 C2080 0.930 . S
H2072 C2085 0.929 . S
H2073 C2083 0.929 . S
H2074 C2078 0.929 . S
H2075 C2084 0.929 . S
C2076 H2070 0.930 . S
C2076 C2077 1.367 . S
C2076 C2084 1.378 . S
C2077 C2076 1.367 . S
C2077 C2085 1.433 . S
C2078 H2074 0.929 . S
C2078 C2080 1.378 . S
C2078 C2082 1.350 . S
C2079 C2082 1.463 . S
C2079 C2084 1.350 . S
C2079 N2087 1.427 . S
C2080 H2071 0.930 . S
C2080 C2078 1.378 . S
C2080 C2081 1.367 . S
C2081 C2080 1.367 . S
C2081 C2083 1.433 . S
C2082 C2078 1.350 . S
C2082 C2079 1.463 . S
C2082 N2086 1.427 . S
C2083 H2073 0.929 . S
C2083 C2081 1.433 . S
C2083 N2086 1.384 . S
C2084 H2075 0.929 . S
C2084 C2076 1.378 . S
C2084 C2079 1.350 . S
C2085 H2072 0.929 . S
C2085 C2077 1.433 . S
C2085 N2087 1.384 . S
N2086 C2082 1.427 . S
N2086 C2083 1.384 . S
N2087 C2079 1.427 . S
N2087 C2085 1.384 . S
H2088 C2094 0.930 . S
H2089 C2098 0.930 . S
H2090 C2103 0.929 . S
H2091 C2101 0.929 . S
H2092 C2096 0.929 . S
H2093 C2102 0.929 . S
C2094 H2088 0.930 . S
C2094 C2095 1.367 . S
C2094 C2102 1.378 . S
C2095 C2094 1.367 . S
C2095 C2103 1.433 . S
C2096 H2092 0.929 . S
C2096 C2098 1.378 . S
C2096 C2100 1.350 . S
C2097 C2100 1.463 . S
C2097 C2102 1.350 . S
C2097 N2105 1.427 . S
C2098 H2089 0.930 . S
C2098 C2096 1.378 . S
C2098 C2099 1.367 . S
C2099 C2098 1.367 . S
C2099 C2101 1.433 . S
C2100 C2096 1.350 . S
C2100 C2097 1.463 . S
C2100 N2104 1.427 . S
C2101 H2091 0.929 . S
C2101 C2099 1.433 . S
C2101 N2104 1.384 . S
C2102 H2093 0.929 . S
C2102 C2094 1.378 . S
C2102 C2097 1.350 . S
C2103 H2090 0.929 . S
C2103 C2095 1.433 . S
C2103 N2105 1.384 . S
N2104 C2100 1.427 . S
N2104 C2101 1.384 . S
N2105 C2097 1.427 . S
N2105 C2103 1.384 . S
H2106 C2112 0.930 . S
H2107 C2116 0.930 . S
H2108 C2121 0.929 . S
H2109 C2119 0.929 . S
H2110 C2114 0.929 . S
H2111 C2120 0.929 . S
C2112 H2106 0.930 . S
C2112 C2113 1.367 . S
C2112 C2120 1.378 . S
C2113 C2112 1.367 . S
C2113 C2121 1.433 . S
C2114 H2110 0.929 . S
C2114 C2116 1.378 . S
C2114 C2118 1.350 . S
C2115 C2118 1.463 . S
C2115 C2120 1.350 . S
C2115 N2123 1.427 . S
C2116 H2107 0.930 . S
C2116 C2114 1.378 . S
C2116 C2117 1.367 . S
C2117 C2116 1.367 . S
C2117 C2119 1.433 . S
C2118 C2114 1.350 . S
C2118 C2115 1.463 . S
C2118 N2122 1.427 . S
C2119 H2109 0.929 . S
C2119 C2117 1.433 . S
C2119 N2122 1.384 . S
C2120 H2111 0.929 . S
C2120 C2112 1.378 . S
C2120 C2115 1.350 . S
C2121 H2108 0.929 . S
C2121 C2113 1.433 . S
C2121 N2123 1.384 . S
N2122 C2118 1.427 . S
N2122 C2119 1.384 . S
N2123 C2115 1.427 . S
N2123 C2121 1.384 . S
H2124 C2130 0.930 . S
H2125 C2134 0.930 . S
H2126 C2139 0.929 . S
H2127 C2137 0.929 . S
H2128 C2132 0.929 . S
H2129 C2138 0.929 . S
C2130 H2124 0.930 . S
C2130 C2131 1.367 . S
C2130 C2138 1.378 . S
C2131 C2130 1.367 . S
C2131 C2139 1.433 . S
C2132 H2128 0.929 . S
C2132 C2134 1.378 . S
C2132 C2136 1.350 . S
C2133 C2136 1.463 . S
C2133 C2138 1.350 . S
C2133 N2141 1.427 . S
C2134 H2125 0.930 . S
C2134 C2132 1.378 . S
C2134 C2135 1.367 . S
C2135 C2134 1.367 . S
C2135 C2137 1.433 . S
C2136 C2132 1.350 . S
C2136 C2133 1.463 . S
C2136 N2140 1.427 . S
C2137 H2127 0.929 . S
C2137 C2135 1.433 . S
C2137 N2140 1.384 . S
C2138 H2129 0.929 . S
C2138 C2130 1.378 . S
C2138 C2133 1.350 . S
C2139 H2126 0.929 . S
C2139 C2131 1.433 . S
C2139 N2141 1.384 . S
N2140 C2136 1.427 . S
N2140 C2137 1.384 . S
N2141 C2133 1.427 . S
N2141 C2139 1.384 . S
H2142 C2148 0.930 . S
H2143 C2152 0.930 . S
H2144 C2157 0.929 . S
H2145 C2155 0.929 . S
H2146 C2150 0.929 . S
H2147 C2156 0.929 . S
C2148 H2142 0.930 . S
C2148 C2149 1.367 . S
C2148 C2156 1.378 . S
C2149 C2148 1.367 . S
C2149 C2157 1.433 . S
C2150 H2146 0.929 . S
C2150 C2152 1.378 . S
C2150 C2154 1.350 . S
C2151 C2154 1.463 . S
C2151 C2156 1.350 . S
C2151 N2159 1.427 . S
C2152 H2143 0.930 . S
C2152 C2150 1.378 . S
C2152 C2153 1.367 . S
C2153 C2152 1.367 . S
C2153 C2155 1.433 . S
C2154 C2150 1.350 . S
C2154 C2151 1.463 . S
C2154 N2158 1.427 . S
C2155 H2145 0.929 . S
C2155 C2153 1.433 . S
C2155 N2158 1.384 . S
C2156 H2147 0.929 . S
C2156 C2148 1.378 . S
C2156 C2151 1.350 . S
C2157 H2144 0.929 . S
C2157 C2149 1.433 . S
C2157 N2159 1.384 . S
N2158 C2154 1.427 . S
N2158 C2155 1.384 . S
N2159 C2151 1.427 . S
N2159 C2157 1.384 . S
H2160 C2166 0.930 . S
H2161 C2170 0.930 . S
H2162 C2175 0.929 . S
H2163 C2173 0.929 . S
H2164 C2168 0.929 . S
H2165 C2174 0.929 . S
C2166 H2160 0.930 . S
C2166 C2167 1.367 . S
C2166 C2174 1.378 . S
C2167 C2166 1.367 . S
C2167 C2175 1.433 . S
C2168 H2164 0.929 . S
C2168 C2170 1.378 . S
C2168 C2172 1.350 . S
C2169 C2172 1.463 . S
C2169 C2174 1.350 . S
C2169 N2177 1.427 . S
C2170 H2161 0.930 . S
C2170 C2168 1.378 . S
C2170 C2171 1.367 . S
C2171 C2170 1.367 . S
C2171 C2173 1.433 . S
C2172 C2168 1.350 . S
C2172 C2169 1.463 . S
C2172 N2176 1.427 . S
C2173 H2163 0.929 . S
C2173 C2171 1.433 . S
C2173 N2176 1.384 . S
C2174 H2165 0.929 . S
C2174 C2166 1.378 . S
C2174 C2169 1.350 . S
C2175 H2162 0.929 . S
C2175 C2167 1.433 . S
C2175 N2177 1.384 . S
N2176 C2172 1.427 . S
N2176 C2173 1.384 . S
N2177 C2169 1.427 . S
N2177 C2175 1.384 . S
H2178 C2184 0.930 . S
H2179 C2188 0.930 . S
H2180 C2193 0.929 . S
H2181 C2191 0.929 . S
H2182 C2186 0.929 . S
H2183 C2192 0.929 . S
C2184 H2178 0.930 . S
C2184 C2185 1.367 . S
C2184 C2192 1.378 . S
C2185 C2184 1.367 . S
C2185 C2193 1.433 . S
C2186 H2182 0.929 . S
C2186 C2188 1.378 . S
C2186 C2190 1.350 . S
C2187 C2190 1.463 . S
C2187 C2192 1.350 . S
C2187 N2195 1.427 . S
C2188 H2179 0.930 . S
C2188 C2186 1.378 . S
C2188 C2189 1.367 . S
C2189 C2188 1.367 . S
C2189 C2191 1.433 . S
C2190 C2186 1.350 . S
C2190 C2187 1.463 . S
C2190 N2194 1.427 . S
C2191 H2181 0.929 . S
C2191 C2189 1.433 . S
C2191 N2194 1.384 . S
C2192 H2183 0.929 . S
C2192 C2184 1.378 . S
C2192 C2187 1.350 . S
C2193 H2180 0.929 . S
C2193 C2185 1.433 . S
C2193 N2195 1.384 . S
N2194 C2190 1.427 . S
N2194 C2191 1.384 . S
N2195 C2187 1.427 . S
N2195 C2193 1.384 . S
H2196 C2202 0.930 . S
H2197 C2206 0.930 . S
H2198 C2211 0.929 . S
H2199 C2209 0.929 . S
H2200 C2204 0.929 . S
H2201 C2210 0.929 . S
C2202 H2196 0.930 . S
C2202 C2203 1.367 . S
C2202 C2210 1.378 . S
C2203 C2202 1.367 . S
C2203 C2211 1.433 . S
C2204 H2200 0.929 . S
C2204 C2206 1.378 . S
C2204 C2208 1.350 . S
C2205 C2208 1.463 . S
C2205 C2210 1.350 . S
C2205 N2213 1.427 . S
C2206 H2197 0.930 . S
C2206 C2204 1.378 . S
C2206 C2207 1.367 . S
C2207 C2206 1.367 . S
C2207 C2209 1.433 . S
C2208 C2204 1.350 . S
C2208 C2205 1.463 . S
C2208 N2212 1.427 . S
C2209 H2199 0.929 . S
C2209 C2207 1.433 . S
C2209 N2212 1.384 . S
C2210 H2201 0.929 . S
C2210 C2202 1.378 . S
C2210 C2205 1.350 . S
C2211 H2198 0.929 . S
C2211 C2203 1.433 . S
C2211 N2213 1.384 . S
N2212 C2208 1.427 . S
N2212 C2209 1.384 . S
N2213 C2205 1.427 . S
N2213 C2211 1.384 . S
H2214 C2220 0.930 . S
H2215 C2224 0.930 . S
H2216 C2229 0.929 . S
H2217 C2227 0.929 . S
H2218 C2222 0.929 . S
H2219 C2228 0.929 . S
C2220 H2214 0.930 . S
C2220 C2221 1.367 . S
C2220 C2228 1.378 . S
C2221 C2220 1.367 . S
C2221 C2229 1.433 . S
C2222 H2218 0.929 . S
C2222 C2224 1.378 . S
C2222 C2226 1.350 . S
C2223 C2226 1.463 . S
C2223 C2228 1.350 . S
C2223 N2231 1.427 . S
C2224 H2215 0.930 . S
C2224 C2222 1.378 . S
C2224 C2225 1.367 . S
C2225 C2224 1.367 . S
C2225 C2227 1.433 . S
C2226 C2222 1.350 . S
C2226 C2223 1.463 . S
C2226 N2230 1.427 . S
C2227 H2217 0.929 . S
C2227 C2225 1.433 . S
C2227 N2230 1.384 . S
C2228 H2219 0.929 . S
C2228 C2220 1.378 . S
C2228 C2223 1.350 . S
C2229 H2216 0.929 . S
C2229 C2221 1.433 . S
C2229 N2231 1.384 . S
N2230 C2226 1.427 . S
N2230 C2227 1.384 . S
N2231 C2223 1.427 . S
N2231 C2229 1.384 . S
H2232 C2238 0.930 . S
H2233 C2242 0.930 . S
H2234 C2247 0.929 . S
H2235 C2245 0.929 . S
H2236 C2240 0.929 . S
H2237 C2246 0.929 . S
C2238 H2232 0.930 . S
C2238 C2239 1.367 . S
C2238 C2246 1.378 . S
C2239 C2238 1.367 . S
C2239 C2247 1.433 . S
C2240 H2236 0.929 . S
C2240 C2242 1.378 . S
C2240 C2244 1.350 . S
C2241 C2244 1.463 . S
C2241 C2246 1.350 . S
C2241 N2249 1.427 . S
C2242 H2233 0.930 . S
C2242 C2240 1.378 . S
C2242 C2243 1.367 . S
C2243 C2242 1.367 . S
C2243 C2245 1.433 . S
C2244 C2240 1.350 . S
C2244 C2241 1.463 . S
C2244 N2248 1.427 . S
C2245 H2235 0.929 . S
C2245 C2243 1.433 . S
C2245 N2248 1.384 . S
C2246 H2237 0.929 . S
C2246 C2238 1.378 . S
C2246 C2241 1.350 . S
C2247 H2234 0.929 . S
C2247 C2239 1.433 . S
C2247 N2249 1.384 . S
N2248 C2244 1.427 . S
N2248 C2245 1.384 . S
N2249 C2241 1.427 . S
N2249 C2247 1.384 . S
H2250 C2256 0.930 . S
H2251 C2260 0.930 . S
H2252 C2265 0.929 . S
H2253 C2263 0.929 . S
H2254 C2258 0.929 . S
H2255 C2264 0.929 . S
C2256 H2250 0.930 . S
C2256 C2257 1.367 . S
C2256 C2264 1.378 . S
C2257 C2256 1.367 . S
C2257 C2265 1.433 . S
C2258 H2254 0.929 . S
C2258 C2260 1.378 . S
C2258 C2262 1.350 . S
C2259 C2262 1.463 . S
C2259 C2264 1.350 . S
C2259 N2267 1.427 . S
C2260 H2251 0.930 . S
C2260 C2258 1.378 . S
C2260 C2261 1.367 . S
C2261 C2260 1.367 . S
C2261 C2263 1.433 . S
C2262 C2258 1.350 . S
C2262 C2259 1.463 . S
C2262 N2266 1.427 . S
C2263 H2253 0.929 . S
C2263 C2261 1.433 . S
C2263 N2266 1.384 . S
C2264 H2255 0.929 . S
C2264 C2256 1.378 . S
C2264 C2259 1.350 . S
C2265 H2252 0.929 . S
C2265 C2257 1.433 . S
C2265 N2267 1.384 . S
N2266 C2262 1.427 . S
N2266 C2263 1.384 . S
N2267 C2259 1.427 . S
N2267 C2265 1.384 . S
H2268 C2274 0.930 . S
H2269 C2278 0.930 . S
H2270 C2283 0.929 . S
H2271 C2281 0.929 . S
H2272 C2276 0.929 . S
H2273 C2282 0.929 . S
C2274 H2268 0.930 . S
C2274 C2275 1.367 . S
C2274 C2282 1.378 . S
C2275 C2274 1.367 . S
C2275 C2283 1.433 . S
C2276 H2272 0.929 . S
C2276 C2278 1.378 . S
C2276 C2280 1.350 . S
C2277 C2280 1.463 . S
C2277 C2282 1.350 . S
C2277 N2285 1.427 . S
C2278 H2269 0.930 . S
C2278 C2276 1.378 . S
C2278 C2279 1.367 . S
C2279 C2278 1.367 . S
C2279 C2281 1.433 . S
C2280 C2276 1.350 . S
C2280 C2277 1.463 . S
C2280 N2284 1.427 . S
C2281 H2271 0.929 . S
C2281 C2279 1.433 . S
C2281 N2284 1.384 . S
C2282 H2273 0.929 . S
C2282 C2274 1.378 . S
C2282 C2277 1.350 . S
C2283 H2270 0.929 . S
C2283 C2275 1.433 . S
C2283 N2285 1.384 . S
N2284 C2280 1.427 . S
N2284 C2281 1.384 . S
N2285 C2277 1.427 . S
N2285 C2283 1.384 . S
H2286 C2292 0.930 . S
H2287 C2296 0.930 . S
H2288 C2301 0.929 . S
H2289 C2299 0.929 . S
H2290 C2294 0.890 1_554 S
H2291 C2300 0.929 . S
C2292 H2286 0.930 . S
C2292 C2293 1.383 . S
C2292 C2300 1.378 . S
C2293 C2292 1.383 . S
C2293 C2301 1.424 1_556 S
C2294 H2290 0.890 1_556 S
C2294 C2296 1.378 . S
C2294 C2298 1.350 . S
C2295 C2298 1.463 . S
C2295 C2300 1.350 . S
C2295 N2303 1.427 1_556 S
C2296 H2287 0.930 . S
C2296 C2294 1.378 . S
C2296 C2297 1.367 . S
C2297 C2296 1.367 . S
C2297 C2299 1.433 . S
C2298 C2294 1.350 . S
C2298 C2295 1.463 . S
C2298 N2302 1.427 . S
C2299 H2289 0.929 . S
C2299 C2297 1.433 . S
C2299 N2302 1.384 . S
C2300 H2291 0.929 . S
C2300 C2292 1.378 . S
C2300 C2295 1.350 . S
C2301 H2288 0.929 . S
C2301 C2293 1.424 1_554 S
C2301 N2303 1.384 . S
N2302 C2298 1.427 . S
N2302 C2299 1.384 . S
N2303 C2295 1.427 1_554 S
N2303 C2301 1.384 . S
H2304 C2310 0.930 . S
H2305 C2314 0.930 . S
H2306 C2319 0.929 . S
H2307 C2317 0.929 . S
H2308 C2312 0.929 . S
H2309 C2318 0.929 . S
C2310 H2304 0.930 . S
C2310 C2311 1.367 1_554 S
C2310 C2318 1.378 1_554 S
C2311 C2310 1.367 1_556 S
C2311 C2319 1.433 . S
C2312 H2308 0.929 . S
C2312 C2314 1.378 . S
C2312 C2316 1.350 . S
C2313 C2316 1.463 . S
C2313 C2318 1.350 . S
C2313 N2321 1.427 . S
C2314 H2305 0.930 . S
C2314 C2312 1.378 . S
C2314 C2315 1.367 . S
C2315 C2314 1.367 . S
C2315 C2317 1.433 . S
C2316 C2312 1.350 . S
C2316 C2313 1.463 . S
C2316 N2320 1.427 . S
C2317 H2307 0.929 . S
C2317 C2315 1.433 . S
C2317 N2320 1.384 . S
C2318 H2309 0.929 . S
C2318 C2310 1.378 1_556 S
C2318 C2313 1.350 . S
C2319 H2306 0.929 . S
C2319 C2311 1.433 . S
C2319 N2321 1.384 . S
N2320 C2316 1.427 . S
N2320 C2317 1.384 . S
N2321 C2313 1.427 . S
N2321 C2319 1.384 . S
H2322 C2328 0.930 . S
H2323 C2332 0.930 . S
H2324 C2337 0.929 . S
H2325 C2335 0.929 . S
H2326 C2330 0.929 . S
H2327 C2336 0.929 . S
C2328 H2322 0.930 . S
C2328 C2329 1.367 . S
C2328 C2336 1.378 . S
C2329 C2328 1.367 . S
C2329 C2337 1.433 . S
C2330 H2326 0.929 . S
C2330 C2332 1.378 . S
C2330 C2334 1.350 1_556 S
C2331 C2334 1.463 . S
C2331 C2336 1.350 . S
C2331 N2339 1.427 . S
C2332 H2323 0.930 . S
C2332 C2330 1.378 . S
C2332 C2333 1.367 . S
C2333 C2332 1.367 . S
C2333 C2335 1.433 1_556 S
C2334 C2330 1.350 1_554 S
C2334 C2331 1.463 . S
C2334 N2338 1.427 . S
C2335 H2325 0.929 . S
C2335 C2333 1.433 1_554 S
C2335 N2338 1.384 . S
C2336 H2327 0.929 . S
C2336 C2328 1.378 . S
C2336 C2331 1.350 . S
C2337 H2324 0.929 . S
C2337 C2329 1.433 . S
C2337 N2339 1.384 . S
N2338 C2334 1.427 . S
N2338 C2335 1.384 . S
N2339 C2331 1.427 . S
N2339 C2337 1.384 . S
H2340 C2346 0.930 . S
H2341 C2350 0.930 . S
H2342 C2355 0.929 . S
H2343 C2353 0.929 . S
H2344 C2348 0.929 . S
H2345 C2354 0.929 . S
C2346 H2340 0.930 . S
C2346 C2347 1.367 . S
C2346 C2354 1.378 1_554 S
C2347 C2346 1.367 . S
C2347 C2355 1.433 1_554 S
C2348 H2344 0.929 . S
C2348 C2350 1.378 . S
C2348 C2352 1.350 . S
C2349 C2352 1.463 . S
C2349 C2354 1.350 . S
C2349 N2357 1.427 . S
C2350 H2341 0.930 . S
C2350 C2348 1.378 . S
C2350 C2351 1.367 . S
C2351 C2350 1.367 . S
C2351 C2353 1.433 . S
C2352 C2348 1.350 . S
C2352 C2349 1.463 . S
C2352 N2356 1.427 . S
C2353 H2343 0.929 . S
C2353 C2351 1.433 . S
C2353 N2356 1.384 . S
C2354 H2345 0.929 . S
C2354 C2346 1.378 1_556 S
C2354 C2349 1.350 . S
C2355 H2342 0.929 . S
C2355 C2347 1.433 1_556 S
C2355 N2357 1.384 . S
N2356 C2352 1.427 . S
N2356 C2353 1.384 . S
N2357 C2349 1.427 . S
N2357 C2355 1.384 . S
H2358 C2364 0.930 . S
H2359 C2368 0.930 . S
H2360 C2373 0.929 . S
H2361 C2371 0.929 . S
H2362 C2366 0.929 . S
H2363 C2372 0.929 . S
C2364 H2358 0.930 . S
C2364 C2365 1.367 . S
C2364 C2372 1.378 . S
C2365 C2364 1.367 . S
C2365 C2373 1.433 . S
C2366 H2362 0.929 . S
C2366 C2368 1.378 . S
C2366 C2370 1.350 . S
C2367 C2370 1.463 . S
C2367 C2372 1.350 . S
C2367 N2375 1.427 . S
C2368 H2359 0.930 . S
C2368 C2366 1.378 . S
C2368 C2369 1.367 . S
C2369 C2368 1.367 . S
C2369 C2371 1.433 . S
C2370 C2366 1.350 . S
C2370 C2367 1.463 . S
C2370 N2374 1.427 . S
C2371 H2361 0.929 . S
C2371 C2369 1.433 . S
C2371 N2374 1.384 . S
C2372 H2363 0.929 . S
C2372 C2364 1.378 . S
C2372 C2367 1.350 . S
C2373 H2360 0.929 . S
C2373 C2365 1.433 . S
C2373 N2375 1.384 . S
N2374 C2370 1.427 . S
N2374 C2371 1.384 . S
N2375 C2367 1.427 . S
N2375 C2373 1.384 . S
H2376 C2382 0.930 . S
H2377 C2386 0.956 . S
H2378 C2391 0.929 . S
H2379 C2389 0.929 . S
H2380 C2384 0.988 . S
H2381 C2390 0.929 . S
C2382 H2376 0.930 . S
C2382 C2383 1.367 1_556 S
C2382 C2390 1.378 . S
C2383 C2382 1.367 1_554 S
C2383 C2391 1.433 . S
C2384 H2380 0.988 . S
C2384 C2386 1.348 1_554 S
C2384 C2388 1.322 1_554 S
C2385 C2388 1.463 . S
C2385 C2390 1.350 . S
C2385 N2393 1.427 1_556 S
C2386 H2377 0.956 . S
C2386 C2384 1.348 1_556 S
C2386 C2387 1.367 . S
C2387 C2386 1.367 . S
C2387 C2389 1.433 . S
C2388 C2384 1.322 1_556 S
C2388 C2385 1.463 . S
C2388 N2392 1.427 . S
C2389 H2379 0.929 . S
C2389 C2387 1.433 . S
C2389 N2392 1.384 . S
C2390 H2381 0.929 . S
C2390 C2382 1.378 . S
C2390 C2385 1.350 . S
C2391 H2378 0.929 . S
C2391 C2383 1.433 . S
C2391 N2393 1.384 . S
N2392 C2388 1.427 . S
N2392 C2389 1.384 . S
N2393 C2385 1.427 1_554 S
N2393 C2391 1.384 . S
H2394 C2400 0.930 . S
H2395 C2404 0.930 . S
H2396 C2409 0.929 . S
H2397 C2407 0.929 . S
H2398 C2402 0.929 . S
H2399 C2408 0.929 . S
C2400 H2394 0.930 . S
C2400 C2401 1.367 . S
C2400 C2408 1.378 . S
C2401 C2400 1.367 . S
C2401 C2409 1.433 . S
C2402 H2398 0.929 . S
C2402 C2404 1.378 . S
C2402 C2406 1.350 . S
C2403 C2406 1.463 . S
C2403 C2408 1.350 . S
C2403 N2411 1.427 . S
C2404 H2395 0.930 . S
C2404 C2402 1.378 . S
C2404 C2405 1.367 . S
C2405 C2404 1.367 . S
C2405 C2407 1.433 . S
C2406 C2402 1.350 . S
C2406 C2403 1.463 . S
C2406 N2410 1.427 . S
C2407 H2397 0.929 . S
C2407 C2405 1.433 . S
C2407 N2410 1.384 . S
C2408 H2399 0.929 . S
C2408 C2400 1.378 . S
C2408 C2403 1.350 . S
C2409 H2396 0.929 . S
C2409 C2401 1.433 . S
C2409 N2411 1.384 . S
N2410 C2406 1.427 . S
N2410 C2407 1.384 . S
N2411 C2403 1.427 . S
N2411 C2409 1.384 . S
H2412 C2418 0.930 . S
H2413 C2422 0.930 . S
H2414 C2427 0.929 . S
H2415 C2425 0.929 . S
H2416 C2420 0.929 . S
H2417 C2426 0.929 . S
C2418 H2412 0.930 . S
C2418 C2419 1.367 . S
C2418 C2426 1.378 . S
C2419 C2418 1.367 . S
C2419 C2427 1.433 . S
C2420 H2416 0.929 . S
C2420 C2422 1.378 . S
C2420 C2424 1.350 . S
C2421 C2424 1.463 . S
C2421 C2426 1.350 . S
C2421 N2429 1.427 . S
C2422 H2413 0.930 . S
C2422 C2420 1.378 . S
C2422 C2423 1.367 . S
C2423 C2422 1.367 . S
C2423 C2425 1.433 . S
C2424 C2420 1.350 . S
C2424 C2421 1.463 . S
C2424 N2428 1.427 . S
C2425 H2415 0.929 . S
C2425 C2423 1.433 . S
C2425 N2428 1.384 . S
C2426 H2417 0.929 . S
C2426 C2418 1.378 . S
C2426 C2421 1.350 . S
C2427 H2414 0.929 . S
C2427 C2419 1.433 . S
C2427 N2429 1.384 . S
N2428 C2424 1.427 . S
N2428 C2425 1.384 . S
N2429 C2421 1.427 . S
N2429 C2427 1.384 . S
H2430 C2436 0.930 . S
H2431 C2440 0.930 . S
H2432 C2445 0.929 . S
H2433 C2443 0.929 . S
H2434 C2438 0.929 . S
H2435 C2444 0.929 . S
C2436 H2430 0.930 . S
C2436 C2437 1.367 . S
C2436 C2444 1.378 . S
C2437 C2436 1.367 . S
C2437 C2445 1.433 . S
C2438 H2434 0.929 . S
C2438 C2440 1.378 . S
C2438 C2442 1.350 . S
C2439 C2442 1.463 . S
C2439 C2444 1.350 . S
C2439 N2447 1.427 . S
C2440 H2431 0.930 . S
C2440 C2438 1.378 . S
C2440 C2441 1.367 . S
C2441 C2440 1.367 . S
C2441 C2443 1.433 . S
C2442 C2438 1.350 . S
C2442 C2439 1.463 . S
C2442 N2446 1.427 . S
C2443 H2433 0.929 . S
C2443 C2441 1.433 . S
C2443 N2446 1.384 . S
C2444 H2435 0.929 . S
C2444 C2436 1.378 . S
C2444 C2439 1.350 . S
C2445 H2432 0.929 . S
C2445 C2437 1.433 . S
C2445 N2447 1.384 . S
N2446 C2442 1.427 . S
N2446 C2443 1.384 . S
N2447 C2439 1.427 . S
N2447 C2445 1.384 . S
H2448 C2454 0.930 . S
H2449 C2458 0.930 . S
H2450 C2463 0.929 . S
H2451 C2461 0.929 . S
H2452 C2456 0.929 . S
H2453 C2462 0.929 . S
C2454 H2448 0.930 . S
C2454 C2455 1.367 . S
C2454 C2462 1.378 . S
C2455 C2454 1.367 . S
C2455 C2463 1.433 . S
C2456 H2452 0.929 . S
C2456 C2458 1.378 . S
C2456 C2460 1.350 . S
C2457 C2460 1.463 . S
C2457 C2462 1.350 . S
C2457 N2465 1.427 . S
C2458 H2449 0.930 . S
C2458 C2456 1.378 . S
C2458 C2459 1.367 . S
C2459 C2458 1.367 . S
C2459 C2461 1.433 . S
C2460 C2456 1.350 . S
C2460 C2457 1.463 . S
C2460 N2464 1.427 . S
C2461 H2451 0.929 . S
C2461 C2459 1.433 . S
C2461 N2464 1.384 . S
C2462 H2453 0.929 . S
C2462 C2454 1.378 . S
C2462 C2457 1.350 . S
C2463 H2450 0.929 . S
C2463 C2455 1.433 . S
C2463 N2465 1.384 . S
N2464 C2460 1.427 . S
N2464 C2461 1.384 . S
N2465 C2457 1.427 . S
N2465 C2463 1.384 . S
H2466 C2472 0.930 . S
H2467 C2476 0.930 . S
H2468 C2481 0.929 . S
H2469 C2479 0.929 . S
H2470 C2474 0.929 . S
H2471 C2480 0.929 . S
C2472 H2466 0.930 . S
C2472 C2473 1.367 . S
C2472 C2480 1.378 . S
C2473 C2472 1.367 . S
C2473 C2481 1.433 . S
C2474 H2470 0.929 . S
C2474 C2476 1.378 . S
C2474 C2478 1.350 . S
C2475 C2478 1.463 . S
C2475 C2480 1.350 . S
C2475 N2483 1.427 . S
C2476 H2467 0.930 . S
C2476 C2474 1.378 . S
C2476 C2477 1.367 . S
C2477 C2476 1.367 . S
C2477 C2479 1.433 . S
C2478 C2474 1.350 . S
C2478 C2475 1.463 . S
C2478 N2482 1.427 . S
C2479 H2469 0.929 . S
C2479 C2477 1.433 . S
C2479 N2482 1.384 . S
C2480 H2471 0.929 . S
C2480 C2472 1.378 . S
C2480 C2475 1.350 . S
C2481 H2468 0.929 . S
C2481 C2473 1.433 . S
C2481 N2483 1.384 . S
N2482 C2478 1.427 . S
N2482 C2479 1.384 . S
N2483 C2475 1.427 . S
N2483 C2481 1.384 . S
H2484 C2490 0.930 . S
H2485 C2494 0.930 . S
H2486 C2499 0.929 1_455 S
H2487 C2497 0.929 . S
H2488 C2492 0.929 . S
H2489 C2498 0.929 . S
C2490 H2484 0.930 . S
C2490 C2491 1.338 1_655 S
C2490 C2498 1.378 . S
C2491 C2490 1.338 1_455 S
C2491 C2499 1.441 1_455 S
C2492 H2488 0.929 . S
C2492 C2494 1.378 . S
C2492 C2496 1.350 . S
C2493 C2496 1.463 . S
C2493 C2498 1.350 . S
C2493 N2501 1.427 . S
C2494 H2485 0.930 . S
C2494 C2492 1.378 . S
C2494 C2495 1.367 . S
C2495 C2494 1.367 . S
C2495 C2497 1.433 . S
C2496 C2492 1.350 . S
C2496 C2493 1.463 . S
C2496 N2500 1.427 . S
C2497 H2487 0.929 . S
C2497 C2495 1.433 . S
C2497 N2500 1.384 . S
C2498 H2489 0.929 . S
C2498 C2490 1.378 . S
C2498 C2493 1.350 . S
C2499 H2486 0.929 1_655 S
C2499 C2491 1.441 1_655 S
C2499 N2501 1.384 . S
N2500 C2496 1.427 . S
N2500 C2497 1.384 . S
N2501 C2493 1.427 . S
N2501 C2499 1.384 . S
H2502 C2508 0.930 . S
H2503 C2512 0.930 . S
H2504 C2517 0.929 . S
H2505 C2515 0.929 . S
H2506 C2510 0.929 . S
H2507 C2516 0.929 . S
C2508 H2502 0.930 . S
C2508 C2509 1.367 . S
C2508 C2516 1.378 . S
C2509 C2508 1.367 . S
C2509 C2517 1.433 . S
C2510 H2506 0.929 . S
C2510 C2512 1.378 . S
C2510 C2514 1.350 . S
C2511 C2514 1.463 . S
C2511 C2516 1.350 . S
C2511 N2519 1.427 . S
C2512 H2503 0.930 . S
C2512 C2510 1.378 . S
C2512 C2513 1.367 . S
C2513 C2512 1.367 . S
C2513 C2515 1.433 . S
C2514 C2510 1.350 . S
C2514 C2511 1.463 . S
C2514 N2518 1.427 . S
C2515 H2505 0.929 . S
C2515 C2513 1.433 . S
C2515 N2518 1.384 . S
C2516 H2507 0.929 . S
C2516 C2508 1.378 . S
C2516 C2511 1.350 . S
C2517 H2504 0.929 . S
C2517 C2509 1.433 . S
C2517 N2519 1.384 . S
N2518 C2514 1.427 . S
N2518 C2515 1.384 . S
N2519 C2511 1.427 . S
N2519 C2517 1.384 . S
H2520 C2526 0.930 . S
H2521 C2530 0.930 . S
H2522 C2535 0.929 . S
H2523 C2533 0.929 . S
H2524 C2528 0.929 . S
H2525 C2534 0.929 . S
C2526 H2520 0.930 . S
C2526 C2527 1.367 . S
C2526 C2534 1.378 . S
C2527 C2526 1.367 . S
C2527 C2535 1.433 . S
C2528 H2524 0.929 . S
C2528 C2530 1.378 . S
C2528 C2532 1.350 . S
C2529 C2532 1.463 . S
C2529 C2534 1.350 . S
C2529 N2537 1.427 . S
C2530 H2521 0.930 . S
C2530 C2528 1.378 . S
C2530 C2531 1.367 . S
C2531 C2530 1.367 . S
C2531 C2533 1.433 . S
C2532 C2528 1.350 . S
C2532 C2529 1.463 . S
C2532 N2536 1.427 . S
C2533 H2523 0.929 . S
C2533 C2531 1.433 . S
C2533 N2536 1.384 . S
C2534 H2525 0.929 . S
C2534 C2526 1.378 . S
C2534 C2529 1.350 . S
C2535 H2522 0.929 . S
C2535 C2527 1.433 . S
C2535 N2537 1.384 . S
N2536 C2532 1.427 . S
N2536 C2533 1.384 . S
N2537 C2529 1.427 . S
N2537 C2535 1.384 . S
H2538 C2544 0.930 . S
H2539 C2548 0.930 . S
H2540 C2553 0.929 . S
H2541 C2551 0.929 1_545 S
H2542 C2546 0.929 . S
H2543 C2552 0.929 . S
C2544 H2538 0.930 . S
C2544 C2545 1.367 . S
C2544 C2552 1.378 . S
C2545 C2544 1.367 . S
C2545 C2553 1.433 . S
C2546 H2542 0.929 . S
C2546 C2548 1.378 . S
C2546 C2550 1.350 . S
C2547 C2550 1.463 . S
C2547 C2552 1.350 . S
C2547 N2555 1.427 . S
C2548 H2539 0.930 . S
C2548 C2546 1.378 . S
C2548 C2549 1.367 . S
C2549 C2548 1.367 . S
C2549 C2551 1.433 . S
C2550 C2546 1.350 . S
C2550 C2547 1.463 . S
C2550 N2554 1.427 . S
C2551 H2541 0.929 1_565 S
C2551 C2549 1.433 . S
C2551 N2554 1.384 . S
C2552 H2543 0.929 . S
C2552 C2544 1.378 . S
C2552 C2547 1.350 . S
C2553 H2540 0.929 . S
C2553 C2545 1.433 . S
C2553 N2555 1.384 . S
N2554 C2550 1.427 . S
N2554 C2551 1.384 . S
N2555 C2547 1.427 . S
N2555 C2553 1.384 . S
H2556 C2562 0.930 . S
H2557 C2566 0.930 . S
H2558 C2571 0.929 . S
H2559 C2569 0.929 . S
H2560 C2564 0.929 . S
H2561 C2570 0.929 . S
C2562 H2556 0.930 . S
C2562 C2563 1.367 . S
C2562 C2570 1.378 . S
C2563 C2562 1.367 . S
C2563 C2571 1.433 . S
C2564 H2560 0.929 . S
C2564 C2566 1.378 . S
C2564 C2568 1.350 1_545 S
C2565 C2568 1.463 . S
C2565 C2570 1.350 . S
C2565 N2573 1.427 . S
C2566 H2557 0.930 . S
C2566 C2564 1.378 . S
C2566 C2567 1.366 . S
C2567 C2566 1.366 . S
C2567 C2569 1.436 1_545 S
C2568 C2564 1.350 1_565 S
C2568 C2565 1.463 . S
C2568 N2572 1.427 . S
C2569 H2559 0.929 . S
C2569 C2567 1.436 1_565 S
C2569 N2572 1.384 . S
C2570 H2561 0.929 . S
C2570 C2562 1.378 . S
C2570 C2565 1.350 . S
C2571 H2558 0.929 . S
C2571 C2563 1.433 . S
C2571 N2573 1.384 . S
N2572 C2568 1.427 . S
N2572 C2569 1.384 . S
N2573 C2565 1.427 . S
N2573 C2571 1.384 . S
H2574 C2580 0.930 . S
H2575 C2584 0.927 1_655 S
H2576 C2589 0.929 . S
H2577 C2587 0.921 . S
H2578 C2582 0.929 . S
H2579 C2588 0.929 . S
C2580 H2574 0.930 . S
C2580 C2581 1.367 . S
C2580 C2588 1.378 . S
C2581 C2580 1.367 . S
C2581 C2589 1.433 . S
C2582 H2578 0.929 . S
C2582 C2584 1.367 . S
C2582 C2586 1.350 . S
C2583 C2586 1.463 . S
C2583 C2588 1.350 . S
C2583 N2591 1.427 . S
C2584 H2575 0.927 1_455 S
C2584 C2582 1.367 . S
C2584 C2585 1.384 1_455 S
C2585 C2584 1.384 1_655 S
C2585 C2587 1.433 1_655 S
C2586 C2582 1.350 . S
C2586 C2583 1.463 . S
C2586 N2590 1.427 . S
C2587 H2577 0.921 . S
C2587 C2585 1.433 1_455 S
C2587 N2590 1.384 . S
C2588 H2579 0.929 . S
C2588 C2580 1.378 . S
C2588 C2583 1.350 . S
C2589 H2576 0.929 . S
C2589 C2581 1.433 . S
C2589 N2591 1.384 . S
N2590 C2586 1.427 . S
N2590 C2587 1.384 . S
N2591 C2583 1.427 . S
N2591 C2589 1.384 . S
H2592 C2598 0.930 . S
H2593 C2602 0.930 . S
H2594 C2607 0.929 . S
H2595 C2605 0.929 . S
H2596 C2600 0.929 . S
H2597 C2606 0.929 . S
C2598 H2592 0.930 . S
C2598 C2599 1.367 . S
C2598 C2606 1.378 . S
C2599 C2598 1.367 . S
C2599 C2607 1.433 . S
C2600 H2596 0.929 . S
C2600 C2602 1.378 . S
C2600 C2604 1.350 . S
C2601 C2604 1.463 . S
C2601 C2606 1.350 . S
C2601 N2609 1.427 . S
C2602 H2593 0.930 . S
C2602 C2600 1.378 . S
C2602 C2603 1.367 . S
C2603 C2602 1.367 . S
C2603 C2605 1.433 . S
C2604 C2600 1.350 . S
C2604 C2601 1.463 . S
C2604 N2608 1.427 . S
C2605 H2595 0.929 . S
C2605 C2603 1.433 . S
C2605 N2608 1.384 . S
C2606 H2597 0.929 . S
C2606 C2598 1.378 . S
C2606 C2601 1.350 . S
C2607 H2594 0.929 . S
C2607 C2599 1.433 . S
C2607 N2609 1.384 . S
N2608 C2604 1.427 . S
N2608 C2605 1.384 . S
N2609 C2601 1.427 . S
N2609 C2607 1.384 . S
H2610 C2616 0.930 . S
H2611 C2620 0.930 . S
H2612 C2625 0.929 . S
H2613 C2623 0.929 . S
H2614 C2618 0.929 . S
H2615 C2624 0.929 . S
C2616 H2610 0.930 . S
C2616 C2617 1.367 . S
C2616 C2624 1.378 . S
C2617 C2616 1.367 . S
C2617 C2625 1.433 . S
C2618 H2614 0.929 . S
C2618 C2620 1.378 . S
C2618 C2622 1.350 . S
C2619 C2622 1.463 . S
C2619 C2624 1.350 . S
C2619 N2627 1.427 . S
C2620 H2611 0.930 . S
C2620 C2618 1.378 . S
C2620 C2621 1.367 . S
C2621 C2620 1.367 . S
C2621 C2623 1.433 . S
C2622 C2618 1.350 . S
C2622 C2619 1.463 . S
C2622 N2626 1.427 . S
C2623 H2613 0.929 . S
C2623 C2621 1.433 . S
C2623 N2626 1.384 . S
C2624 H2615 0.929 . S
C2624 C2616 1.378 . S
C2624 C2619 1.350 . S
C2625 H2612 0.929 . S
C2625 C2617 1.433 . S
C2625 N2627 1.384 . S
N2626 C2622 1.427 . S
N2626 C2623 1.384 . S
N2627 C2619 1.427 . S
N2627 C2625 1.384 . S
H2628 C2634 0.930 . S
H2629 C2638 0.930 . S
H2630 C2643 0.929 . S
H2631 C2641 0.929 . S
H2632 C2636 0.929 . S
H2633 C2642 0.929 . S
C2634 H2628 0.930 . S
C2634 C2635 1.367 . S
C2634 C2642 1.378 . S
C2635 C2634 1.367 . S
C2635 C2643 1.433 . S
C2636 H2632 0.929 . S
C2636 C2638 1.378 . S
C2636 C2640 1.350 . S
C2637 C2640 1.463 . S
C2637 C2642 1.350 . S
C2637 N2645 1.427 . S
C2638 H2629 0.930 . S
C2638 C2636 1.378 . S
C2638 C2639 1.367 . S
C2639 C2638 1.367 . S
C2639 C2641 1.433 . S
C2640 C2636 1.350 . S
C2640 C2637 1.463 . S
C2640 N2644 1.427 . S
C2641 H2631 0.929 . S
C2641 C2639 1.433 . S
C2641 N2644 1.384 . S
C2642 H2633 0.929 . S
C2642 C2634 1.378 . S
C2642 C2637 1.350 . S
C2643 H2630 0.929 . S
C2643 C2635 1.433 . S
C2643 N2645 1.384 . S
N2644 C2640 1.427 . S
N2644 C2641 1.384 . S
N2645 C2637 1.427 . S
N2645 C2643 1.384 . S
H2646 C2652 0.930 . S
H2647 C2656 0.930 . S
H2648 C2661 0.929 . S
H2649 C2659 0.929 . S
H2650 C2654 0.929 . S
H2651 C2660 0.929 . S
C2652 H2646 0.930 . S
C2652 C2653 1.367 . S
C2652 C2660 1.378 . S
C2653 C2652 1.367 . S
C2653 C2661 1.433 . S
C2654 H2650 0.929 . S
C2654 C2656 1.378 . S
C2654 C2658 1.350 . S
C2655 C2658 1.463 . S
C2655 C2660 1.350 . S
C2655 N2663 1.427 . S
C2656 H2647 0.930 . S
C2656 C2654 1.378 . S
C2656 C2657 1.367 . S
C2657 C2656 1.367 . S
C2657 C2659 1.433 . S
C2658 C2654 1.350 . S
C2658 C2655 1.463 . S
C2658 N2662 1.427 . S
C2659 H2649 0.929 . S
C2659 C2657 1.433 . S
C2659 N2662 1.384 . S
C2660 H2651 0.929 . S
C2660 C2652 1.378 . S
C2660 C2655 1.350 . S
C2661 H2648 0.929 . S
C2661 C2653 1.433 . S
C2661 N2663 1.384 . S
N2662 C2658 1.427 . S
N2662 C2659 1.384 . S
N2663 C2655 1.427 . S
N2663 C2661 1.384 . S
H2664 C2670 0.930 . S
H2665 C2674 0.930 . S
H2666 C2679 0.929 . S
H2667 C2677 0.929 1_565 S
H2668 C2672 0.929 . S
H2669 C2678 0.929 . S
C2670 H2664 0.930 . S
C2670 C2671 1.367 . S
C2670 C2678 1.378 . S
C2671 C2670 1.367 . S
C2671 C2679 1.433 . S
C2672 H2668 0.929 . S
C2672 C2674 1.378 . S
C2672 C2676 1.350 . S
C2673 C2676 1.463 . S
C2673 C2678 1.350 . S
C2673 N2681 1.427 . S
C2674 H2665 0.930 . S
C2674 C2672 1.378 . S
C2674 C2675 1.367 . S
C2675 C2674 1.367 . S
C2675 C2677 1.433 . S
C2676 C2672 1.350 . S
C2676 C2673 1.463 . S
C2676 N2680 1.427 . S
C2677 H2667 0.929 1_545 S
C2677 C2675 1.433 . S
C2677 N2680 1.384 . S
C2678 H2669 0.929 . S
C2678 C2670 1.378 . S
C2678 C2673 1.350 . S
C2679 H2666 0.929 . S
C2679 C2671 1.433 . S
C2679 N2681 1.384 . S
N2680 C2676 1.427 . S
N2680 C2677 1.384 . S
N2681 C2673 1.427 . S
N2681 C2679 1.384 . S
H2682 C2688 0.930 . S
H2683 C2692 0.930 . S
H2684 C2697 0.929 . S
H2685 C2695 0.929 . S
H2686 C2690 0.929 . S
H2687 C2696 0.929 . S
C2688 H2682 0.930 . S
C2688 C2689 1.367 . S
C2688 C2696 1.378 . S
C2689 C2688 1.367 . S
C2689 C2697 1.433 . S
C2690 H2686 0.929 . S
C2690 C2692 1.378 . S
C2690 C2694 1.350 . S
C2691 C2694 1.463 . S
C2691 C2696 1.350 . S
C2691 N2699 1.427 . S
C2692 H2683 0.930 . S
C2692 C2690 1.378 . S
C2692 C2693 1.367 . S
C2693 C2692 1.367 . S
C2693 C2695 1.433 . S
C2694 C2690 1.350 . S
C2694 C2691 1.463 . S
C2694 N2698 1.427 . S
C2695 H2685 0.929 . S
C2695 C2693 1.433 . S
C2695 N2698 1.384 . S
C2696 H2687 0.929 . S
C2696 C2688 1.378 . S
C2696 C2691 1.350 . S
C2697 H2684 0.929 . S
C2697 C2689 1.433 . S
C2697 N2699 1.384 . S
N2698 C2694 1.427 . S
N2698 C2695 1.384 . S
N2699 C2691 1.427 . S
N2699 C2697 1.384 . S
H2700 C2706 0.930 . S
H2701 C2710 0.930 . S
H2702 C2715 0.929 . S
H2703 C2713 0.929 . S
H2704 C2708 0.929 . S
H2705 C2714 0.929 . S
C2706 H2700 0.930 . S
C2706 C2707 1.367 . S
C2706 C2714 1.378 . S
C2707 C2706 1.367 . S
C2707 C2715 1.433 . S
C2708 H2704 0.929 . S
C2708 C2710 1.378 . S
C2708 C2712 1.350 . S
C2709 C2712 1.463 . S
C2709 C2714 1.350 . S
C2709 N2717 1.427 . S
C2710 H2701 0.930 . S
C2710 C2708 1.378 . S
C2710 C2711 1.367 . S
C2711 C2710 1.367 . S
C2711 C2713 1.433 . S
C2712 C2708 1.350 . S
C2712 C2709 1.463 . S
C2712 N2716 1.427 . S
C2713 H2703 0.929 . S
C2713 C2711 1.433 . S
C2713 N2716 1.384 . S
C2714 H2705 0.929 . S
C2714 C2706 1.378 . S
C2714 C2709 1.350 . S
C2715 H2702 0.929 . S
C2715 C2707 1.433 . S
C2715 N2717 1.384 . S
N2716 C2712 1.427 . S
N2716 C2713 1.384 . S
N2717 C2709 1.427 . S
N2717 C2715 1.384 . S
H2718 C2724 0.930 . S
H2719 C2728 0.930 . S
H2720 C2733 0.929 . S
H2721 C2731 0.929 . S
H2722 C2726 0.929 . S
H2723 C2732 0.929 . S
C2724 H2718 0.930 . S
C2724 C2725 1.367 . S
C2724 C2732 1.378 . S
C2725 C2724 1.367 . S
C2725 C2733 1.433 . S
C2726 H2722 0.929 . S
C2726 C2728 1.378 . S
C2726 C2730 1.350 . S
C2727 C2730 1.463 . S
C2727 C2732 1.350 . S
C2727 N2735 1.427 . S
C2728 H2719 0.930 . S
C2728 C2726 1.378 . S
C2728 C2729 1.367 . S
C2729 C2728 1.367 . S
C2729 C2731 1.433 . S
C2730 C2726 1.350 . S
C2730 C2727 1.463 . S
C2730 N2734 1.427 . S
C2731 H2721 0.929 . S
C2731 C2729 1.433 . S
C2731 N2734 1.384 . S
C2732 H2723 0.929 . S
C2732 C2724 1.378 . S
C2732 C2727 1.350 . S
C2733 H2720 0.929 . S
C2733 C2725 1.433 . S
C2733 N2735 1.384 . S
N2734 C2730 1.427 . S
N2734 C2731 1.384 . S
N2735 C2727 1.427 . S
N2735 C2733 1.384 . S
H2736 C2742 0.930 . S
H2737 C2746 0.930 . S
H2738 C2751 0.929 . S
H2739 C2749 0.929 . S
H2740 C2744 0.929 . S
H2741 C2750 0.929 . S
C2742 H2736 0.930 . S
C2742 C2743 1.367 . S
C2742 C2750 1.378 . S
C2743 C2742 1.367 . S
C2743 C2751 1.433 . S
C2744 H2740 0.929 . S
C2744 C2746 1.378 . S
C2744 C2748 1.350 . S
C2745 C2748 1.463 . S
C2745 C2750 1.350 . S
C2745 N2753 1.427 . S
C2746 H2737 0.930 . S
C2746 C2744 1.378 . S
C2746 C2747 1.367 . S
C2747 C2746 1.367 . S
C2747 C2749 1.433 . S
C2748 C2744 1.350 . S
C2748 C2745 1.463 . S
C2748 N2752 1.427 . S
C2749 H2739 0.929 . S
C2749 C2747 1.433 . S
C2749 N2752 1.384 . S
C2750 H2741 0.929 . S
C2750 C2742 1.378 . S
C2750 C2745 1.350 . S
C2751 H2738 0.929 . S
C2751 C2743 1.433 . S
C2751 N2753 1.384 . S
N2752 C2748 1.427 . S
N2752 C2749 1.384 . S
N2753 C2745 1.427 . S
N2753 C2751 1.384 . S
H2754 C2760 0.930 . S
H2755 C2764 0.930 . S
H2756 C2769 0.929 . S
H2757 C2767 0.929 . S
H2758 C2762 0.929 . S
H2759 C2768 0.929 . S
C2760 H2754 0.930 . S
C2760 C2761 1.367 . S
C2760 C2768 1.378 . S
C2761 C2760 1.367 . S
C2761 C2769 1.433 . S
C2762 H2758 0.929 . S
C2762 C2764 1.378 . S
C2762 C2766 1.350 . S
C2763 C2766 1.463 . S
C2763 C2768 1.350 . S
C2763 N2771 1.427 . S
C2764 H2755 0.930 . S
C2764 C2762 1.378 . S
C2764 C2765 1.367 . S
C2765 C2764 1.367 . S
C2765 C2767 1.433 . S
C2766 C2762 1.350 . S
C2766 C2763 1.463 . S
C2766 N2770 1.427 . S
C2767 H2757 0.929 . S
C2767 C2765 1.433 . S
C2767 N2770 1.384 . S
C2768 H2759 0.929 . S
C2768 C2760 1.378 . S
C2768 C2763 1.350 . S
C2769 H2756 0.929 . S
C2769 C2761 1.433 . S
C2769 N2771 1.384 . S
N2770 C2766 1.427 . S
N2770 C2767 1.384 . S
N2771 C2763 1.427 . S
N2771 C2769 1.384 . S
H2772 C2778 0.930 . S
H2773 C2782 0.930 . S
H2774 C2787 0.929 . S
H2775 C2785 0.929 . S
H2776 C2780 0.929 . S
H2777 C2786 0.929 . S
C2778 H2772 0.930 . S
C2778 C2779 1.367 . S
C2778 C2786 1.378 . S
C2779 C2778 1.367 . S
C2779 C2787 1.433 . S
C2780 H2776 0.929 . S
C2780 C2782 1.378 . S
C2780 C2784 1.350 . S
C2781 C2784 1.463 . S
C2781 C2786 1.350 . S
C2781 N2789 1.427 . S
C2782 H2773 0.930 . S
C2782 C2780 1.378 . S
C2782 C2783 1.367 . S
C2783 C2782 1.367 . S
C2783 C2785 1.433 . S
C2784 C2780 1.350 . S
C2784 C2781 1.463 . S
C2784 N2788 1.427 . S
C2785 H2775 0.929 . S
C2785 C2783 1.433 . S
C2785 N2788 1.384 . S
C2786 H2777 0.929 . S
C2786 C2778 1.378 . S
C2786 C2781 1.350 . S
C2787 H2774 0.929 . S
C2787 C2779 1.433 . S
C2787 N2789 1.384 . S
N2788 C2784 1.427 . S
N2788 C2785 1.384 . S
N2789 C2781 1.427 . S
N2789 C2787 1.384 . S
H2790 C2796 0.930 . S
H2791 C2800 0.930 . S
H2792 C2805 0.929 . S
H2793 C2803 0.929 . S
H2794 C2798 0.929 . S
H2795 C2804 0.929 . S
C2796 H2790 0.930 . S
C2796 C2797 1.367 . S
C2796 C2804 1.378 . S
C2797 C2796 1.367 . S
C2797 C2805 1.433 . S
C2798 H2794 0.929 . S
C2798 C2800 1.378 . S
C2798 C2802 1.350 . S
C2799 C2802 1.463 . S
C2799 C2804 1.350 . S
C2799 N2807 1.427 . S
C2800 H2791 0.930 . S
C2800 C2798 1.378 . S
C2800 C2801 1.367 . S
C2801 C2800 1.367 . S
C2801 C2803 1.433 . S
C2802 C2798 1.350 . S
C2802 C2799 1.463 . S
C2802 N2806 1.427 . S
C2803 H2793 0.929 . S
C2803 C2801 1.433 . S
C2803 N2806 1.384 . S
C2804 H2795 0.929 . S
C2804 C2796 1.378 . S
C2804 C2799 1.350 . S
C2805 H2792 0.929 . S
C2805 C2797 1.433 . S
C2805 N2807 1.384 . S
N2806 C2802 1.427 . S
N2806 C2803 1.384 . S
N2807 C2799 1.427 . S
N2807 C2805 1.384 . S
H2808 C2814 0.930 1_655 S
H2809 C2818 0.930 . S
H2810 C2823 0.929 . S
H2811 C2821 0.929 . S
H2812 C2816 0.929 . S
H2813 C2822 0.929 . S
C2814 H2808 0.930 1_455 S
C2814 C2815 1.367 . S
C2814 C2822 1.378 . S
C2815 C2814 1.367 . S
C2815 C2823 1.433 . S
C2816 H2812 0.929 . S
C2816 C2818 1.378 . S
C2816 C2820 1.350 . S
C2817 C2820 1.463 . S
C2817 C2822 1.350 . S
C2817 N2825 1.427 . S
C2818 H2809 0.930 . S
C2818 C2816 1.378 . S
C2818 C2819 1.367 . S
C2819 C2818 1.367 . S
C2819 C2821 1.433 . S
C2820 C2816 1.350 . S
C2820 C2817 1.463 . S
C2820 N2824 1.427 . S
C2821 H2811 0.929 . S
C2821 C2819 1.433 . S
C2821 N2824 1.384 . S
C2822 H2813 0.929 . S
C2822 C2814 1.378 . S
C2822 C2817 1.350 . S
C2823 H2810 0.929 . S
C2823 C2815 1.433 . S
C2823 N2825 1.384 . S
N2824 C2820 1.427 . S
N2824 C2821 1.384 . S
N2825 C2817 1.427 . S
N2825 C2823 1.384 . S
H2826 C2832 0.930 . S
H2827 C2836 0.930 . S
H2828 C2841 0.929 . S
H2829 C2839 0.887 1_455 S
H2830 C2834 0.929 . S
H2831 C2840 0.929 . S
C2832 H2826 0.930 . S
C2832 C2833 1.367 . S
C2832 C2840 1.378 . S
C2833 C2832 1.367 . S
C2833 C2841 1.433 . S
C2834 H2830 0.929 . S
C2834 C2836 1.378 . S
C2834 C2838 1.350 . S
C2835 C2838 1.463 . S
C2835 C2840 1.350 . S
C2835 N2843 1.427 . S
C2836 H2827 0.930 . S
C2836 C2834 1.378 . S
C2836 C2837 1.367 . S
C2837 C2836 1.367 . S
C2837 C2839 1.433 . S
C2838 C2834 1.350 . S
C2838 C2835 1.463 . S
C2838 N2842 1.427 . S
C2839 H2829 0.887 1_655 S
C2839 C2837 1.433 . S
C2839 N2842 1.384 . S
C2840 H2831 0.929 . S
C2840 C2832 1.378 . S
C2840 C2835 1.350 . S
C2841 H2828 0.929 . S
C2841 C2833 1.433 . S
C2841 N2843 1.384 . S
N2842 C2838 1.427 . S
N2842 C2839 1.384 . S
N2843 C2835 1.427 . S
N2843 C2841 1.384 . S
H2844 C2850 0.930 . S
H2845 C2854 0.930 . S
H2846 C2859 0.929 . S
H2847 C2857 0.929 . S
H2848 C2852 0.929 . S
H2849 C2858 0.929 . S
C2850 H2844 0.930 . S
C2850 C2851 1.367 . S
C2850 C2858 1.378 . S
C2851 C2850 1.367 . S
C2851 C2859 1.433 . S
C2852 H2848 0.929 . S
C2852 C2854 1.378 . S
C2852 C2856 1.350 . S
C2853 C2856 1.463 . S
C2853 C2858 1.350 . S
C2853 N2861 1.427 . S
C2854 H2845 0.930 . S
C2854 C2852 1.378 . S
C2854 C2855 1.367 . S
C2855 C2854 1.367 . S
C2855 C2857 1.433 . S
C2856 C2852 1.350 . S
C2856 C2853 1.463 . S
C2856 N2860 1.427 . S
C2857 H2847 0.929 . S
C2857 C2855 1.433 . S
C2857 N2860 1.384 . S
C2858 H2849 0.929 . S
C2858 C2850 1.378 . S
C2858 C2853 1.350 . S
C2859 H2846 0.929 . S
C2859 C2851 1.433 . S
C2859 N2861 1.384 . S
N2860 C2856 1.427 . S
N2860 C2857 1.384 . S
N2861 C2853 1.427 . S
N2861 C2859 1.384 . S
H2862 C2868 0.930 . S
H2863 C2872 0.930 . S
H2864 C2877 0.929 . S
H2865 C2875 0.929 . S
H2866 C2870 0.929 . S
H2867 C2876 0.929 . S
C2868 H2862 0.930 . S
C2868 C2869 1.367 . S
C2868 C2876 1.378 . S
C2869 C2868 1.367 . S
C2869 C2877 1.433 . S
C2870 H2866 0.929 . S
C2870 C2872 1.378 . S
C2870 C2874 1.350 . S
C2871 C2874 1.463 . S
C2871 C2876 1.350 . S
C2871 N2879 1.427 . S
C2872 H2863 0.930 . S
C2872 C2870 1.378 . S
C2872 C2873 1.367 . S
C2873 C2872 1.367 . S
C2873 C2875 1.433 1_545 S
C2874 C2870 1.350 . S
C2874 C2871 1.463 . S
C2874 N2878 1.427 . S
C2875 H2865 0.929 . S
C2875 C2873 1.433 1_565 S
C2875 N2878 1.384 1_565 S
C2876 H2867 0.929 . S
C2876 C2868 1.378 . S
C2876 C2871 1.350 . S
C2877 H2864 0.929 . S
C2877 C2869 1.433 . S
C2877 N2879 1.384 . S
N2878 C2874 1.427 . S
N2878 C2875 1.384 1_545 S
N2879 C2871 1.427 . S
N2879 C2877 1.384 . S
C1591 C7 1.175 . S
C1595 C981 1.144 . S
C1609 C23 1.632 . S
C1613 C1061 1.595 . S
C1631 C1129 1.322 . S
C1627 C37 1.354 . S
C1645 C35 1.738 . S
C1649 C1209 1.714 . S
C1663 C9 1.519 . S
C1667 C1283 1.526 . S
C1681 C21 1.662 . S
C1685 C1351 1.613 . S
C1699 C49 1.106 . S
C1703 C1277 1.091 . S
C1721 C1357 1.482 . S
C1717 C65 1.472 . S
C1739 C1203 1.331 . S
C1735 C79 1.308 1_556 S
C1753 C77 1.683 . S
C1757 C1135 1.667 . S
C1775 C987 1.515 . S
C1771 C51 1.452 . S
C1789 C63 1.486 . S
C1793 C1055 1.483 . S
C1807 C91 1.473 . S
C1811 C1425 1.415 . S
C1825 C107 1.679 . S
C1829 C1505 1.628 . S
C1847 C1573 1.521 . S
C1843 C121 1.628 . S
C1861 C119 1.958 . S
C1865 C321 1.906 . S
C1879 C93 1.809 . S
C1883 C395 1.735 . S
C1897 C105 1.698 . S
C1901 C463 1.647 . S
C1915 C133 1.161 . S
C1919 C389 1.156 . S
C1933 C149 1.522 . S
C1937 C469 1.525 . S
C1955 C315 1.429 . S
C1951 C163 1.442 . S
C1973 C1579 1.896 . S
C1969 C161 1.905 . S
C1991 C1431 1.585 . S
C1987 C135 1.594 . S
C2009 C1499 1.535 . S
C2005 C147 1.529 . S
C2023 C175 1.364 . S
C2027 C537 1.309 . S
C2041 C191 1.692 . S
C2045 C617 1.629 . S
C2059 C205 1.656 . S
C2063 C685 1.554 . S
C2077 C203 2.051 . S
C2081 C765 1.999 . S
C2099 C839 1.713 . S
C2095 C177 1.792 . S
C2117 C907 1.672 . S
C2113 C189 1.719 . S
C2135 C833 1.266 . S
C2131 C217 1.266 . S
C2153 C913 1.512 . S
C2149 C233 1.508 . S
C2167 C247 1.389 . S
C2171 C759 1.382 . S
C2189 C691 1.789 . S
C2185 C245 1.793 . S
C2203 C219 1.625 . S
C2207 C543 1.623 . S
C2225 C611 1.512 . S
C2221 C231 1.510 . S
C2243 C291 1.954 . S
C2239 C8 1.998 . S
C2257 C17 1.468 . S
C2261 C365 1.456 . S
C2279 C451 1.560 . S
C2275 C31 1.546 . S
C2297 C525 1.298 . S
C2293 C36 1.306 1_556 S
C2315 C587 1.639 . S
C2311 C3 1.646 1_556 S
C2333 C673 1.532 . S
C2329 C22 1.549 . S
C2347 C50 2.167 . S
C2351 C661 2.063 . S
C2365 C59 1.662 . S
C2369 C513 1.590 . S
C2383 C73 1.757 . S
C2387 C599 1.738 . S
C2401 C78 1.580 . S
C2405 C377 1.517 . S
C2423 C439 1.772 . S
C2419 C45 1.840 . S
C2437 C64 1.783 . S
C2441 C303 1.727 . S
C2459 C735 1.896 . S
C2455 C92 1.943 . S
C2473 C101 1.633 1_545 S
C2477 C809 1.621 . S
C2491 C115 1.640 . S
C2495 C895 1.610 . S
C2513 C969 1.087 . S
C2509 C120 1.098 . S
C2527 C87 1.578 . S
C2531 C1031 1.565 . S
C2545 C106 1.404 . S
C2549 C1117 1.402 . S
C2563 C134 1.843 . S
C2567 C1105 1.773 . S
C2581 C143 1.407 . S
C2585 C957 1.381 . S
C2603 C1043 1.685 . S
C2599 C157 1.713 . S
C2617 C162 1.553 . S
C2621 C821 1.480 . S
C2635 C129 1.878 1_545 S
C2639 C883 1.804 . S
C2657 C747 1.810 . S
C2653 C148 1.878 1_655 S
C2675 C1179 1.767 . S
C2671 C176 1.802 . S
C2689 C185 1.320 . S
C2693 C1253 1.306 . S
C2707 C199 1.519 . S
C2711 C1339 1.517 . S
C2729 C1413 1.270 . S
C2725 C204 1.295 . S
C2747 C1475 1.687 . S
C2743 C171 1.697 1_565 S
C2761 C190 1.671 . S
C2765 C1561 1.644 . S
C2779 C218 2.117 . S
C2783 C1549 2.013 . S
C2797 C227 1.817 1_565 S
C2801 C1401 1.735 . S
C2819 C1487 1.771 . S
C2815 C241 1.813 1_455 S
C2837 C1265 1.158 . S
C2833 C246 1.185 . S
C2855 C1327 1.702 . S
C2851 C213 1.769 . S
C2869 C232 1.491 . S
C2873 C1191 1.468 . S
