# Generated by pormake.
# Topology sit, (3,6)-cn, num edge types: 1
# Building blocks:
#     Node 0, Type 0, BuildingBlock: MIDCAF_clean_linker_0, # of connection points: 3
#     Node 1, Type 0, BuildingBlock: MIDCAF_clean_linker_0, # of connection points: 3
#     Node 2, Type 0, BuildingBlock: MIDCAF_clean_linker_0, # of connection points: 3
#     Node 3, Type 0, BuildingBlock: MIDCAF_clean_linker_0, # of connection points: 3
#     Node 4, Type 1, BuildingBlock: MIDCAF_clean_sbu_0, # of connection points: 6
#     Node 5, Type 1, BuildingBlock: MIDCAF_clean_sbu_0, # of connection points: 6
#     Edge 6, Type (0, 1), BuildingBlock: EZIPEK_clean_linker_0, # of connection points: 2
#     Edge 7, Type (0, 1), BuildingBlock: EZIPEK_clean_linker_0, # of connection points: 2
#     Edge 8, Type (0, 1), BuildingBlock: EZIPEK_clean_linker_0, # of connection points: 2
#     Edge 9, Type (0, 1), BuildingBlock: EZIPEK_clean_linker_0, # of connection points: 2
#     Edge 10, Type (0, 1), BuildingBlock: EZIPEK_clean_linker_0, # of connection points: 2
#     Edge 11, Type (0, 1), BuildingBlock: EZIPEK_clean_linker_0, # of connection points: 2
#     Edge 12, Type (0, 1), BuildingBlock: EZIPEK_clean_linker_0, # of connection points: 2
#     Edge 13, Type (0, 1), BuildingBlock: EZIPEK_clean_linker_0, # of connection points: 2
#     Edge 14, Type (0, 1), BuildingBlock: EZIPEK_clean_linker_0, # of connection points: 2
#     Edge 15, Type (0, 1), BuildingBlock: EZIPEK_clean_linker_0, # of connection points: 2
#     Edge 16, Type (0, 1), BuildingBlock: EZIPEK_clean_linker_0, # of connection points: 2
#     Edge 17, Type (0, 1), BuildingBlock: EZIPEK_clean_linker_0, # of connection points: 2
# Relax obj value: 0.112
# Max RMSD: 0.194
# Mean RMSD: 0.108
data_MOF--net-sit--node1-MIDCAF_clean_sbu_0--node2-MIDCAF_clean_linker_0--edge1-EZIPEK_clean_linker_0
_symmetry_space_group_name_H-M    P1
_symmetry_Int_Tables_number       1
_symmetry_cell_setting            triclinic
loop_
_symmetry_equiv_pos_as_xyz
'x, y, z'
_cell_length_a     22.806383
_cell_length_b     29.190062
_cell_length_c     33.73698
_cell_angle_alpha  89.842495
_cell_angle_beta   88.841891
_cell_angle_gamma 83.121609
loop_
_atom_site_label
_atom_site_type_symbol
_atom_site_fract_x
_atom_site_fract_y
_atom_site_fract_z
_atom_type_partial_charge
C0 C 0.91288 0.4803 0.97303 0.0
C1 C 0.86132 0.45928 0.96865 0.0
C2 C 0.85626 0.41679 0.98708 0.0
C3 C 0.90341 0.39422 0.00792 0.0
H4 H -0.01967 0.2564 0.04649 0.0
H5 H 0.96805 0.18718 0.08607 0.0
H6 H 0.10165 0.22182 0.16571 0.0
H7 H 0.11635 0.28924 0.12514 0.0
H8 H 0.21847 0.32081 0.02923 0.0
H9 H 0.3091 0.34031 -0.00356 0.0
H10 H 0.22898 0.48012 0.98036 0.0
H11 H 0.13809 0.46136 0.0128 0.0
H12 H 0.00043 0.4739 -0.00454 0.0
H13 H 0.91729 0.5132 0.95906 0.0
H14 H 0.81644 0.40032 0.98411 0.0
H15 H 0.89887 0.36066 0.02059 0.0
N16 N 0.005 0.34672 0.04721 0.0
N17 N 0.10797 0.33582 0.05466 0.0
N18 N 0.06313 0.40126 0.02178 0.0
C19 C 0.05414 0.32124 0.06105 0.0
C20 C 0.11265 0.37588 0.03487 0.0
C21 C 0.00921 0.38713 0.02785 0.0
C22 C 0.04892 0.27821 0.0831 0.0
C23 C 0.00744 0.24879 0.07223 0.0
C24 C 0.00048 0.20932 0.09467 0.0
C25 C 0.03307 0.19994 0.12924 0.0
C26 C 0.0757 0.22865 0.13933 0.0
C27 C 0.08406 0.26712 0.1162 0.0
C28 C 0.17088 0.38939 0.02312 0.0
C29 C 0.2206 0.35604 0.01969 0.0
C30 C 0.27229 0.36701 0.0009 0.0
C31 C 0.27498 0.41152 0.98581 0.0
C32 C 0.22718 0.44569 -0.00815 0.0
C33 C 0.1754 0.43475 0.01026 0.0
C34 C 0.95661 0.41373 0.01048 0.0
C35 C 0.96032 0.45761 -0.00631 0.0
C36 C 0.83904 0.61259 0.98431 0.0
C37 C 0.79172 0.64663 0.97754 0.0
C38 C 0.79351 0.69155 -0.00827 0.0
C39 C 0.84352 0.70281 0.01109 0.0
H40 H 0.933 0.81626 0.05662 0.0
H41 H 0.93992 0.88752 0.09421 0.0
H42 H 0.08941 0.8196 0.15637 0.0
H43 H 0.08442 0.74947 0.11796 0.0
H44 H 0.16487 0.68944 0.0327 0.0
H45 H 0.25024 0.65054 -0.00348 0.0
H46 H 0.14968 0.54035 0.96546 0.0
H47 H 0.06377 0.57885 0.00158 0.0
H48 H 0.92565 0.59694 0.00712 0.0
H49 H 0.83801 0.57781 0.97356 0.0
H50 H 0.75703 0.71813 0.9867 0.0
H51 H 0.84481 0.73811 0.02051 0.0
N52 N 0.95142 0.72234 0.05075 0.0
N53 N 0.05467 0.70561 0.05388 0.0
N54 N -0.00061 0.65406 0.02288 0.0
C55 C 0.00438 0.734 0.06262 0.0
C56 C 0.05245 0.66559 0.03386 0.0
C57 C 0.94876 0.68192 0.03122 0.0
C58 C 0.00792 0.77727 0.08464 0.0
C59 C 0.9674 0.81674 0.07823 0.0
C60 C 0.97144 0.85742 0.09948 0.0
C61 C 0.01468 0.85858 0.12843 0.0
C62 C 0.05554 0.81937 0.13432 0.0
C63 C 0.05257 0.7793 0.11241 0.0
C64 C 0.10713 0.63773 0.01942 0.0
C65 C 0.16113 0.65641 0.01904 0.0
C66 C 0.20997 0.63428 -0.00169 0.0
C67 C 0.20577 0.59305 0.97792 0.0
C68 C 0.15358 0.57224 0.98095 0.0
C69 C 0.1045 0.59451 0.00145 0.0
C70 C 0.89246 0.66928 0.01611 0.0
C71 C 0.88904 0.62378 0.00337 0.0
C72 C 0.43 0.97843 0.47049 0.0
C73 C 0.37733 0.95881 0.4664 0.0
C74 C 0.37025 0.91713 0.48567 0.0
C75 C 0.41677 0.89353 0.50645 0.0
H76 H 0.48112 0.799 0.60643 0.0
H77 H 0.47586 0.73128 0.64854 0.0
H78 H 0.63309 0.66314 0.59114 0.0
H79 H 0.6401 0.73182 0.54986 0.0
H80 H 0.73532 0.81103 0.52578 0.0
H81 H 0.82887 0.82768 0.49502 0.0
H82 H 0.74501 0.95909 0.45451 0.0
H83 H 0.65181 0.94339 0.48501 0.0
H84 H 0.51807 0.96951 0.49209 0.0
H85 H 0.43602 1.01071 0.45598 0.0
H86 H 0.3295 0.9018 0.48308 0.0
H87 H 0.41089 0.86031 0.5193 0.0
N88 N 0.51871 0.84258 0.54321 0.0
N89 N 0.62198 0.8244 0.5417 0.0
N90 N 0.57834 0.89266 0.51252 0.0
C91 C 0.5676 0.81362 0.5528 0.0
C92 C 0.62755 0.86425 0.52178 0.0
C93 C 0.5239 0.88221 0.52293 0.0
C94 C 0.56156 0.77093 0.57536 0.0
C95 C 0.51431 0.76947 0.60251 0.0
C96 C 0.51114 0.73078 0.62649 0.0
C97 C 0.55447 0.69251 0.62324 0.0
C98 C 0.59956 0.69256 0.59427 0.0
C99 C 0.60369 0.73185 0.57098 0.0
C100 C 0.68586 0.87564 0.50755 0.0
C101 C 0.73694 0.84378 0.51089 0.0
C102 C 0.79035 0.85318 0.49344 0.0
C103 C 0.7932 0.89449 0.47261 0.0
C104 C 0.74323 0.92712 0.47063 0.0
C105 C 0.69004 0.91787 0.488 0.0
C106 C 0.47132 0.91117 0.50802 0.0
C107 C 0.47682 0.95466 0.49101 0.0
C108 C 0.36229 0.11154 0.47622 0.0
C109 C 0.31468 0.14535 0.46955 0.0
C110 C 0.31658 0.19048 0.48318 0.0
C111 C 0.36657 0.20199 0.50237 0.0
H112 H 0.44918 0.31457 0.55067 0.0
H113 H 0.44906 0.38494 0.59059 0.0
H114 H 0.60124 0.3219 0.65287 0.0
H115 H 0.60309 0.25257 0.61235 0.0
H116 H 0.68292 0.19111 0.52127 0.0
H117 H 0.76922 0.14642 0.49067 0.0
H118 H 0.67677 0.02603 0.48855 0.0
H119 H 0.58898 0.07104 0.51804 0.0
H120 H 0.44894 0.0962 0.49914 0.0
H121 H 0.36101 0.07657 0.46601 0.0
H122 H 0.27985 0.21689 0.47827 0.0
H123 H 0.36754 0.23734 0.51176 0.0
N124 N 0.47237 0.2223 0.54318 0.0
N125 N 0.57477 0.20497 0.55101 0.0
N126 N 0.52161 0.1524 0.51925 0.0
C127 C 0.52423 0.23413 0.55688 0.0
C128 C 0.57366 0.16403 0.53219 0.0
C129 C 0.47082 0.18119 0.52454 0.0
C130 C 0.52576 0.27787 0.57872 0.0
C131 C 0.48294 0.31599 0.57261 0.0
C132 C 0.48298 0.35623 0.59516 0.0
C133 C 0.52461 0.35826 0.62504 0.0
C134 C 0.56855 0.32089 0.63011 0.0
C135 C 0.56945 0.28126 0.60698 0.0
C136 C 0.62896 0.13475 0.52148 0.0
C137 C 0.6812 0.15491 0.51506 0.0
C138 C 0.73047 0.12946 0.49746 0.0
C139 C 0.72868 0.0833 0.48657 0.0
C140 C 0.67848 0.06181 0.4962 0.0
C141 C 0.62854 0.08758 0.51299 0.0
C142 C 0.41546 0.16853 0.50786 0.0
C143 C 0.41236 0.12298 0.4951 0.0
Zn144 Zn 0.00215 0.11546 0.34875 0.0
Zn145 Zn 0.09793 0.93053 0.33396 0.0
Zn146 Zn 0.04834 0.02344 0.33819 0.0
C147 C 0.06132 0.9648 0.25748 0.0
C148 C -0.00609 0.938 0.38065 0.0
O149 O 0.11201 0.06142 0.36778 0.0
O150 O 0.07112 0.13344 0.37787 0.0
C151 C 0.01547 0.09269 0.26613 0.0
O152 O 0.04666 1.00333 0.27565 0.0
O153 O 0.0853 0.92978 0.2757 0.0
O154 O 0.03559 0.90819 0.36933 0.0
O155 O -0.00723 0.98069 0.37093 0.0
O156 O -0.00036 0.125 0.29036 0.0
O157 O 0.03278 0.05164 0.27849 0.0
O158 O 0.96802 0.02652 0.37495 0.0
O159 O 0.93156 0.10025 0.37974 0.0
C160 C 0.92851 0.05833 0.38784 0.0
O161 O 0.13603 1.01529 0.36395 0.0
O162 O 0.17447 0.94219 0.35713 0.0
C163 C 0.11416 0.1023 0.38145 0.0
C164 C 0.17823 0.98262 0.36922 0.0
Zn165 Zn 0.49151 0.62094 0.84068 0.0
Zn166 Zn 0.57636 0.43287 0.84028 0.0
Zn167 Zn 0.53408 0.52698 0.83785 0.0
C168 C 0.54882 0.4621 0.76089 0.0
C169 C 0.4703 0.44914 0.88467 0.0
O170 O 0.59644 0.56403 0.86897 0.0
O171 O 0.55666 0.63696 0.87515 0.0
C172 C 0.51928 0.59113 0.76083 0.0
O173 O 0.53754 0.50255 0.77629 0.0
O174 O 0.5656 0.42736 0.78204 0.0
O175 O 0.51141 0.41723 0.87695 0.0
O176 O 0.472 0.49024 0.87123 0.0
O177 O 0.50222 0.62597 0.78208 0.0
O178 O 0.53063 0.5508 0.77629 0.0
O179 O 0.44914 0.53676 0.86976 0.0
O180 O 0.41423 0.61085 0.86589 0.0
C181 C 0.40882 0.57037 0.8775 0.0
O182 O 0.61908 0.51749 0.86713 0.0
O183 O 0.65376 0.44331 0.86299 0.0
C184 C 0.59804 0.60526 0.88189 0.0
C185 C 0.65939 0.48388 0.87392 0.0
C186 C 0.06957 0.12697 0.16469 0.0
C187 C 0.02211 0.16139 0.15634 0.0
C188 C 0.96325 0.12977 0.20882 0.0
C189 C 0.01515 0.10458 0.22344 0.0
N190 N 0.11968 0.07949 0.21542 0.0
N191 N 0.92313 0.19726 0.1725 0.0
C192 C 0.06868 0.10209 0.20091 0.0
C193 C 0.96805 0.16264 0.17826 0.0
N194 N 0.1158 0.11885 0.13829 0.0
N195 N 0.90969 0.12309 0.22519 0.0
H196 H 0.92503 0.22332 0.15156 0.0
H197 H 0.88568 0.20236 0.19089 0.0
H198 H 0.90566 0.09882 0.2476 0.0
H199 H 0.86965 0.13778 0.21375 0.0
H200 H 0.14934 0.09156 0.14117 0.0
H201 H 0.11705 0.13661 0.11143 0.0
H202 H 0.16107 0.08146 0.20233 0.0
H203 H 0.12144 0.06111 0.24193 0.0
C204 C 0.06948 0.92215 0.15252 0.0
C205 C 0.01751 0.8998 0.15394 0.0
C206 C -0.01626 0.94482 0.21298 0.0
C207 C 0.0414 0.95729 0.2169 0.0
N208 N 0.13879 0.96119 0.18983 0.0
N209 N 0.92473 0.88895 0.18666 0.0
C210 C 0.08385 0.94782 0.18598 0.0
C211 C 0.97358 0.91181 0.18384 0.0
N212 N 0.1052 0.91801 0.11943 0.0
N213 N 0.93956 0.96299 0.2383 0.0
H214 H 0.91574 0.86381 0.16659 0.0
H215 H 0.89516 0.89239 0.21069 0.0
H216 H 0.94623 0.98692 0.26015 0.0
H217 H 0.89543 0.95811 0.23497 0.0
H218 H 0.14149 0.93613 0.11528 0.0
H219 H 0.09498 0.89959 0.09452 0.0
H220 H 0.17415 0.95094 0.17058 0.0
H221 H 0.14932 0.98123 0.21365 0.0
C222 C 0.50596 0.62784 0.65405 0.0
C223 C 0.55426 0.65444 0.65262 0.0
C224 C 0.59175 0.61725 0.71363 0.0
C225 C 0.53712 0.59982 0.71954 0.0
N226 N 0.44376 0.58377 0.69508 0.0
N227 N 0.64227 0.6765 0.6828 0.0
C228 C 0.495 0.60294 0.68926 0.0
C229 C 0.59791 0.64887 0.68233 0.0
N230 N 0.47079 0.62683 0.62185 0.0
N231 N 0.6369 0.60459 0.73891 0.0
H232 H 0.64783 0.70143 0.66138 0.0
H233 H 0.6709 0.67745 0.70637 0.0
H234 H 0.63288 0.58145 0.76218 0.0
H235 H 0.67962 0.61305 0.73432 0.0
H236 H 0.43739 0.60562 0.6198 0.0
H237 H 0.4786 0.64448 0.59569 0.0
H238 H 0.40803 0.58892 0.67621 0.0
H239 H 0.43672 0.56356 0.71993 0.0
C240 C 0.47533 0.40332 0.68274 0.0
C241 C 0.52105 0.39768 0.65323 0.0
C242 C 0.57672 0.4507 0.68922 0.0
C243 C 0.53306 0.45332 0.71966 0.0
N244 N 0.43259 0.44745 0.73936 0.0
N245 N 0.60551 0.42606 0.62207 0.0
C246 C 0.4792 0.43518 0.71396 0.0
C247 C 0.56847 0.4251 0.6543 0.0
N248 N 0.43107 0.37559 0.68306 0.0
N249 N 0.62694 0.47089 0.6947 0.0
H250 H 0.59964 0.40784 0.59615 0.0
H251 H 0.63854 0.44767 0.6197 0.0
H252 H 0.63201 0.49154 0.71934 0.0
H253 H 0.66372 0.46625 0.67573 0.0
H254 H 0.40084 0.37456 0.70649 0.0
H255 H 0.42682 0.35091 0.66142 0.0
H256 H 0.39033 0.43849 0.73501 0.0
H257 H 0.43505 0.47072 0.76255 0.0
C258 C 0.38024 0.42719 0.97719 0.0
C259 C 0.32537 0.42131 0.96014 0.0
C260 C 0.3642 0.43795 0.8941 0.0
C261 C 0.42049 0.43969 0.91064 0.0
N262 N 0.48457 0.43352 0.96695 0.0
N263 N 0.26668 0.41398 0.90221 0.0
C264 C 0.42931 0.43338 0.95193 0.0
C265 C 0.31764 0.42497 0.91854 0.0
N266 N 0.38462 0.42863 0.01753 0.0
N267 N 0.35511 0.44903 0.8551 0.0
H268 H 0.23155 0.40386 0.919 0.0
H269 H 0.26097 0.41101 0.87183 0.0
H270 H 0.38883 0.45627 0.83558 0.0
H271 H 0.31342 0.45428 0.84267 0.0
H272 H 0.42134 0.43784 0.03199 0.0
H273 H 0.34945 0.42416 0.03684 0.0
H274 H 0.49542 0.42388 -0.00415 0.0
H275 H 0.52086 0.441 0.94987 0.0
C276 C 0.68723 0.62922 0.97177 0.0
C277 C 0.74195 0.63565 0.95322 0.0
C278 C 0.70407 0.61703 0.8885 0.0
C279 C 0.64772 0.61509 0.90647 0.0
N280 N 0.58334 0.62134 0.96436 0.0
N281 N 0.80126 0.64175 0.8938 0.0
C282 C 0.63856 0.62195 0.9479 0.0
C283 C 0.75019 0.63096 0.91154 0.0
N284 N 0.68265 0.62828 0.01225 0.0
N285 N 0.7136 0.60523 0.84948 0.0
H286 H 0.83614 0.65227 0.9096 0.0
H287 H 0.8074 0.64399 0.86323 0.0
H288 H 0.6802 0.59714 0.83102 0.0
H289 H 0.75537 0.6002 0.83605 0.0
H290 H 0.64618 0.61865 0.02778 0.0
H291 H 0.71746 0.6336 0.03061 0.0
H292 H 0.57214 0.63144 -0.00663 0.0
H293 H 0.54741 0.61295 0.9484 0.0
C294 C 0.75858 0.49755 0.96066 0.0
C295 C 0.8132 0.47953 0.94287 0.0
C296 C 0.76792 0.48379 0.87768 0.0
C297 C 0.7118 0.49167 0.8966 0.0
N298 N 0.65195 0.50696 0.95605 0.0
N299 N 0.87127 0.45524 0.88428 0.0
C300 C 0.70652 0.49994 0.93802 0.0
C301 C 0.81869 0.47358 0.90115 0.0
N302 N 0.75682 0.51165 -0.00071 0.0
N303 N 0.77227 0.48597 0.83728 0.0
H304 H 0.90981 0.44767 0.90031 0.0
H305 H 0.87595 0.44489 0.85476 0.0
H306 H 0.73533 0.49381 0.81961 0.0
H307 H 0.81235 0.48467 0.82173 0.0
H308 H 0.71929 0.52866 0.01321 0.0
H309 H 0.79477 0.51018 0.01627 0.0
H310 H 0.64534 0.50796 0.98667 0.0
H311 H 0.61271 0.50944 0.94046 0.0
C312 C 0.24965 0.58074 0.9093 0.0
C313 C 0.25498 0.5745 0.95093 0.0
C314 C 0.3619 0.5549 0.94323 0.0
C315 C 0.35652 0.5627 0.90186 0.0
N316 N 0.29587 0.56768 0.84427 0.0
N317 N 0.31191 0.54312 0.00603 0.0
C318 C 0.30037 0.5703 0.8845 0.0
C319 C 0.30987 0.55707 0.96734 0.0
N320 N 0.19744 0.59977 0.89368 0.0
N321 N 0.41652 0.54835 0.95975 0.0
H322 H 0.27404 0.54421 0.02409 0.0
H323 H 0.34972 0.52666 0.01908 0.0
H324 H 0.45571 0.54591 0.94303 0.0
H325 H 0.42322 0.54772 -0.00981 0.0
H326 H 0.1932 0.61014 0.86422 0.0
H327 H 0.15904 0.60842 0.91062 0.0
H328 H 0.2557 0.56862 0.82996 0.0
H329 H 0.33274 0.55973 0.82559 0.0
C330 C 0.84999 0.89286 0.40862 0.0
C331 C 0.84703 0.90244 0.44987 0.0
C332 C 0.94446 0.92954 0.44636 0.0
C333 C 0.94478 0.92382 0.40465 0.0
N334 N 0.89574 0.90634 0.34487 0.0
N335 N 0.88701 0.93423 0.50787 0.0
C336 C 0.89705 0.90707 0.3854 0.0
C337 C 0.89319 0.92184 0.46881 0.0
N338 N 0.80835 0.86937 0.39187 0.0
N339 N -0.00653 0.94175 0.46439 0.0
H340 H 0.85038 0.92833 0.52533 0.0
H341 H 0.91605 0.95306 0.52239 0.0
H342 H 0.03131 0.94858 0.44862 0.0
H343 H -0.00158 0.94217 0.49497 0.0
H344 H 0.81157 0.85697 0.36291 0.0
H345 H 0.77269 0.85884 0.40787 0.0
H346 H 0.8589 0.89987 0.32903 0.0
H347 H 0.93012 0.91555 0.3268 0.0
C348 C 0.26868 0.12834 0.4053 0.0
C349 C 0.26346 0.13358 0.44709 0.0
C350 C 0.15998 0.11907 0.44567 0.0
C351 C 0.16592 0.11208 0.40405 0.0
N352 N 0.22718 0.10265 0.34481 0.0
N353 N 0.20871 0.12683 0.50819 0.0
C354 C 0.22079 0.11426 0.38405 0.0
C355 C 0.21026 0.1271 0.46763 0.0
N356 N 0.31855 0.1388 0.38577 0.0
N357 N 0.10626 0.11774 0.46418 0.0
H358 H 0.24476 0.13265 0.52522 0.0
H359 H 0.17358 0.11729 0.52519 0.0
H360 H 0.06949 0.1082 0.44984 0.0
H361 H 0.09702 0.12812 0.49335 0.0
H362 H 0.32263 0.14068 0.35505 0.0
H363 H 0.35466 0.14924 0.40027 0.0
H364 H 0.2678 0.09778 0.32985 0.0
H365 H 0.19231 0.09467 0.32761 0.0
C366 C 0.27508 0.99717 0.45711 0.0
C367 C 0.3302 0.97939 0.43996 0.0
C368 C 0.28651 0.98361 0.37425 0.0
C369 C 0.2299 0.99088 0.39254 0.0
N370 N 0.16875 1.00427 0.45175 0.0
N371 N 0.38957 0.95496 0.3819 0.0
C372 C 0.22358 0.99872 0.43402 0.0
C373 C 0.33671 0.97343 0.39827 0.0
N374 N 0.27229 1.01166 0.49564 0.0
N375 N 0.29189 0.98616 0.33392 0.0
H376 H 0.42768 0.94708 0.39829 0.0
H377 H 0.3948 0.94465 0.35238 0.0
H378 H 0.25537 0.99392 0.31587 0.0
H379 H 0.33236 0.98531 0.31891 0.0
H380 H 0.23414 0.02823 0.50917 0.0
H381 H 0.30992 1.01101 0.51285 0.0
H382 H 0.16184 1.00484 0.48235 0.0
H383 H 0.12972 1.00561 0.43604 0.0
C384 C 0.83492 0.05186 0.48043 0.0
C385 C 0.77873 0.05956 0.46284 0.0
C386 C 0.82479 0.04271 0.39751 0.0
C387 C 0.88015 0.04677 0.41412 0.0
N388 N 0.94103 0.05031 0.47115 0.0
N389 N 0.71893 0.06131 0.40424 0.0
C390 C 0.88636 0.04887 0.4557 0.0
C391 C 0.77301 0.05335 0.42134 0.0
N392 N 0.83848 0.04834 0.52071 0.0
N393 N 0.82206 0.0296 0.35883 0.0
H394 H 0.67966 0.06931 0.42037 0.0
H395 H 0.7132 0.06275 0.3737 0.0
H396 H 0.85998 0.02178 0.34109 0.0
H397 H 0.78339 0.02199 0.34576 0.0
H398 H 0.87785 0.03981 0.53555 0.0
H399 H 0.80087 0.04999 0.53906 0.0
H400 H 0.94818 0.05695 0.50084 0.0
H401 H -0.02043 0.04618 0.45364 0.0
loop_
_geom_bond_atom_site_label_1
_geom_bond_atom_site_label_2
_geom_bond_distance
_geom_bond_site_symmetry_2
_ccdc_geom_bond_type
C0 C1 1.384 . S
C0 H13 0.947 . S
C0 C35 1.382 1_655 S
C1 C0 1.384 . S
C1 C2 1.378 . S
C2 C1 1.378 . S
C2 C3 1.378 1_556 S
C2 H14 0.952 1_556 S
C3 C2 1.378 1_554 S
C3 H15 0.950 . S
C3 C34 1.383 1_654 S
H4 C23 0.947 . S
H5 C24 0.946 . S
H6 C26 0.953 . S
H7 C27 0.945 . S
H8 C29 0.952 . S
H9 C30 0.949 1_554 S
H10 C32 0.950 . S
H11 C33 0.948 . S
H12 C35 0.951 . S
H13 C0 0.947 . S
H14 C2 0.952 1_554 S
H15 C3 0.950 . S
N16 C19 1.382 . S
N16 C21 1.363 . S
N17 C19 1.371 . S
N17 C20 1.372 . S
N18 C20 1.361 1_556 S
N18 C21 1.377 1_556 S
C19 N16 1.382 . S
C19 N17 1.371 . S
C19 C22 1.480 . S
C20 N17 1.372 . S
C20 N18 1.361 1_554 S
C20 C28 1.457 1_554 S
C21 N16 1.363 . S
C21 N18 1.377 1_554 S
C21 C34 1.479 1_554 S
C22 C19 1.480 . S
C22 C23 1.383 . S
C22 C27 1.385 . S
C23 H4 0.947 . S
C23 C22 1.383 . S
C23 C24 1.388 . S
C24 H5 0.946 . S
C24 C23 1.388 . S
C24 C25 1.384 . S
C25 C24 1.384 . S
C25 C26 1.377 . S
C26 H6 0.953 . S
C26 C25 1.377 . S
C26 C27 1.369 . S
C27 H7 0.945 . S
C27 C22 1.385 . S
C27 C26 1.369 . S
C28 C20 1.457 1_556 S
C28 C29 1.372 1_556 S
C28 C33 1.364 . S
C29 H8 0.952 . S
C29 C28 1.372 1_554 S
C29 C30 1.389 1_554 S
C30 H9 0.949 1_556 S
C30 C29 1.389 1_556 S
C30 C31 1.387 . S
C31 C30 1.387 . S
C31 C32 1.372 . S
C32 H10 0.950 . S
C32 C31 1.372 . S
C32 C33 1.379 . S
C33 H11 0.948 . S
C33 C28 1.364 . S
C33 C32 1.379 . S
C34 C3 1.383 1_456 S
C34 C21 1.479 1_556 S
C34 C35 1.398 . S
C35 C0 1.382 1_455 S
C35 H12 0.951 . S
C35 C34 1.398 . S
C36 C37 1.384 . S
C36 H49 0.947 . S
C36 C71 1.382 . S
C37 C36 1.384 . S
C37 C38 1.378 . S
C38 C37 1.378 . S
C38 C39 1.378 1_556 S
C38 H50 0.952 1_556 S
C39 C38 1.378 1_554 S
C39 H51 0.950 . S
C39 C70 1.383 1_554 S
H40 C59 0.947 . S
H41 C60 0.946 . S
H42 C62 0.953 . S
H43 C63 0.945 . S
H44 C65 0.952 . S
H45 C66 0.949 1_554 S
H46 C68 0.950 . S
H47 C69 0.948 . S
H48 C71 0.951 . S
H49 C36 0.947 . S
H50 C38 0.952 1_554 S
H51 C39 0.950 . S
N52 C55 1.382 1_655 S
N52 C57 1.363 . S
N53 C55 1.371 . S
N53 C56 1.372 . S
N54 C56 1.361 1_556 S
N54 C57 1.377 1_456 S
C55 N52 1.382 1_455 S
C55 N53 1.371 . S
C55 C58 1.480 . S
C56 N53 1.372 . S
C56 N54 1.361 1_554 S
C56 C64 1.457 1_554 S
C57 N52 1.363 . S
C57 N54 1.377 1_654 S
C57 C70 1.479 1_554 S
C58 C55 1.480 . S
C58 C59 1.383 1_455 S
C58 C63 1.385 . S
C59 H40 0.947 . S
C59 C58 1.383 1_655 S
C59 C60 1.388 . S
C60 H41 0.946 . S
C60 C59 1.388 . S
C60 C61 1.379 1_655 S
C61 C60 1.379 1_455 S
C61 C62 1.381 . S
C62 H42 0.953 . S
C62 C61 1.381 . S
C62 C63 1.369 . S
C63 H43 0.945 . S
C63 C58 1.385 . S
C63 C62 1.369 . S
C64 C56 1.457 1_556 S
C64 C65 1.372 1_556 S
C64 C69 1.364 . S
C65 H44 0.952 . S
C65 C64 1.372 1_554 S
C65 C66 1.389 1_554 S
C66 H45 0.949 1_556 S
C66 C65 1.389 1_556 S
C66 C67 1.387 . S
C67 C66 1.387 . S
C67 C68 1.372 . S
C68 H46 0.950 . S
C68 C67 1.372 . S
C68 C69 1.379 . S
C69 H47 0.948 . S
C69 C64 1.364 . S
C69 C68 1.379 . S
C70 C39 1.383 1_556 S
C70 C57 1.479 1_556 S
C70 C71 1.398 . S
C71 C36 1.382 . S
C71 H48 0.951 . S
C71 C70 1.398 . S
C72 C73 1.384 . S
C72 H85 0.947 . S
C72 C107 1.382 . S
C73 C72 1.384 . S
C73 C74 1.378 . S
C74 C73 1.378 . S
C74 C75 1.378 . S
C74 H86 0.952 . S
C75 C74 1.378 . S
C75 H87 0.950 . S
C75 C106 1.383 . S
H76 C95 0.947 . S
H77 C96 0.946 . S
H78 C98 0.953 . S
H79 C99 0.945 . S
H80 C101 0.952 . S
H81 C102 0.949 . S
H82 C104 0.950 . S
H83 C105 0.948 . S
H84 C107 0.951 . S
H85 C72 0.947 . S
H86 C74 0.952 . S
H87 C75 0.950 . S
N88 C91 1.382 . S
N88 C93 1.363 . S
N89 C91 1.371 . S
N89 C92 1.372 . S
N90 C92 1.361 . S
N90 C93 1.377 . S
C91 N88 1.382 . S
C91 N89 1.371 . S
C91 C94 1.480 . S
C92 N89 1.372 . S
C92 N90 1.361 . S
C92 C100 1.457 . S
C93 N88 1.363 . S
C93 N90 1.377 . S
C93 C106 1.479 . S
C94 C91 1.480 . S
C94 C95 1.383 . S
C94 C99 1.385 . S
C95 H76 0.947 . S
C95 C94 1.383 . S
C95 C96 1.388 . S
C96 H77 0.946 . S
C96 C95 1.388 . S
C96 C97 1.384 . S
C97 C96 1.384 . S
C97 C98 1.377 . S
C98 H78 0.953 . S
C98 C97 1.377 . S
C98 C99 1.369 . S
C99 H79 0.945 . S
C99 C94 1.385 . S
C99 C98 1.369 . S
C100 C92 1.457 . S
C100 C101 1.372 . S
C100 C105 1.364 . S
C101 H80 0.952 . S
C101 C100 1.372 . S
C101 C102 1.389 . S
C102 H81 0.949 . S
C102 C101 1.389 . S
C102 C103 1.387 . S
C103 C102 1.387 . S
C103 C104 1.372 . S
C104 H82 0.950 . S
C104 C103 1.372 . S
C104 C105 1.379 . S
C105 H83 0.948 . S
C105 C100 1.364 . S
C105 C104 1.379 . S
C106 C75 1.383 . S
C106 C93 1.479 . S
C106 C107 1.398 . S
C107 C72 1.382 . S
C107 H84 0.951 . S
C107 C106 1.398 . S
C108 C109 1.384 . S
C108 H121 0.947 . S
C108 C143 1.382 . S
C109 C108 1.384 . S
C109 C110 1.378 . S
C110 C109 1.378 . S
C110 C111 1.378 . S
C110 H122 0.952 . S
C111 C110 1.378 . S
C111 H123 0.950 . S
C111 C142 1.383 . S
H112 C131 0.947 . S
H113 C132 0.946 . S
H114 C134 0.953 . S
H115 C135 0.945 . S
H116 C137 0.952 . S
H117 C138 0.949 . S
H118 C140 0.950 . S
H119 C141 0.948 . S
H120 C143 0.951 . S
H121 C108 0.947 . S
H122 C110 0.952 . S
H123 C111 0.950 . S
N124 C127 1.382 . S
N124 C129 1.363 . S
N125 C127 1.371 . S
N125 C128 1.372 . S
N126 C128 1.361 . S
N126 C129 1.377 . S
C127 N124 1.382 . S
C127 N125 1.371 . S
C127 C130 1.480 . S
C128 N125 1.372 . S
C128 N126 1.361 . S
C128 C136 1.457 . S
C129 N124 1.363 . S
C129 N126 1.377 . S
C129 C142 1.479 . S
C130 C127 1.480 . S
C130 C131 1.383 . S
C130 C135 1.385 . S
C131 H112 0.947 . S
C131 C130 1.383 . S
C131 C132 1.388 . S
C132 H113 0.946 . S
C132 C131 1.388 . S
C132 C133 1.384 . S
C133 C132 1.384 . S
C133 C134 1.377 . S
C134 H114 0.953 . S
C134 C133 1.377 . S
C134 C135 1.369 . S
C135 H115 0.945 . S
C135 C130 1.385 . S
C135 C134 1.369 . S
C136 C128 1.457 . S
C136 C137 1.372 . S
C136 C141 1.364 . S
C137 H116 0.952 . S
C137 C136 1.372 . S
C137 C138 1.389 . S
C138 H117 0.949 . S
C138 C137 1.389 . S
C138 C139 1.387 . S
C139 C138 1.387 . S
C139 C140 1.372 . S
C140 H118 0.950 . S
C140 C139 1.372 . S
C140 C141 1.379 . S
C141 H119 0.948 . S
C141 C136 1.364 . S
C141 C140 1.379 . S
C142 C111 1.383 . S
C142 C129 1.479 . S
C142 C143 1.398 . S
C143 C108 1.382 . S
C143 H120 0.951 . S
C143 C142 1.398 . S
Zn144 O150 1.920 . S
Zn144 O156 1.898 . S
Zn144 O159 1.905 1_455 S
Zn145 O153 1.905 . S
Zn145 O154 1.898 . S
Zn145 O162 1.920 . S
Zn146 O149 2.080 . S
Zn146 O152 2.114 1_545 S
Zn146 O155 2.120 1_545 S
Zn146 O157 2.120 . S
Zn146 O158 2.114 1_455 S
Zn146 O161 2.080 1_545 S
C147 O152 1.166 . S
C147 O153 1.182 . S
C148 O154 1.167 . S
C148 O155 1.299 . S
O149 Zn146 2.080 . S
O149 C163 1.305 . S
O150 Zn144 1.920 . S
O150 C163 1.234 . S
C151 O156 1.167 . S
C151 O157 1.299 . S
O152 Zn146 2.114 1_565 S
O152 C147 1.166 . S
O153 Zn145 1.905 . S
O153 C147 1.182 . S
O154 Zn145 1.898 . S
O154 C148 1.167 . S
O155 Zn146 2.120 1_565 S
O155 C148 1.299 . S
O156 Zn144 1.898 . S
O156 C151 1.167 . S
O157 Zn146 2.120 . S
O157 C151 1.299 . S
O158 Zn146 2.114 1_655 S
O158 C160 1.166 . S
O159 Zn144 1.905 1_655 S
O159 C160 1.182 . S
C160 O158 1.166 . S
C160 O159 1.182 . S
O161 Zn146 2.080 1_565 S
O161 C164 1.305 . S
O162 Zn145 1.920 . S
O162 C164 1.234 . S
C163 O149 1.305 . S
C163 O150 1.234 . S
C164 O161 1.305 . S
C164 O162 1.234 . S
Zn165 O171 1.920 . S
Zn165 O177 1.898 . S
Zn165 O180 1.905 . S
Zn166 O174 1.905 . S
Zn166 O175 1.898 . S
Zn166 O183 1.920 . S
Zn167 O170 2.080 . S
Zn167 O173 2.114 . S
Zn167 O176 2.120 . S
Zn167 O178 2.120 . S
Zn167 O179 2.114 . S
Zn167 O182 2.080 . S
C168 O173 1.166 . S
C168 O174 1.182 . S
C169 O175 1.167 . S
C169 O176 1.299 . S
O170 Zn167 2.080 . S
O170 C184 1.305 . S
O171 Zn165 1.920 . S
O171 C184 1.234 . S
C172 O177 1.167 . S
C172 O178 1.299 . S
O173 Zn167 2.114 . S
O173 C168 1.166 . S
O174 Zn166 1.905 . S
O174 C168 1.182 . S
O175 Zn166 1.898 . S
O175 C169 1.167 . S
O176 Zn167 2.120 . S
O176 C169 1.299 . S
O177 Zn165 1.898 . S
O177 C172 1.167 . S
O178 Zn167 2.120 . S
O178 C172 1.299 . S
O179 Zn167 2.114 . S
O179 C181 1.166 . S
O180 Zn165 1.905 . S
O180 C181 1.182 . S
C181 O179 1.166 . S
C181 O180 1.182 . S
O182 Zn167 2.080 . S
O182 C185 1.305 . S
O183 Zn166 1.920 . S
O183 C185 1.234 . S
C184 O170 1.305 . S
C184 O171 1.234 . S
C185 O182 1.305 . S
C185 O183 1.234 . S
C186 C187 1.363 . S
C186 C192 1.379 . S
C186 N194 1.356 . S
C187 C186 1.363 . S
C187 C193 1.363 . S
C188 C189 1.363 . S
C188 C193 1.379 . S
C188 N195 1.356 . S
C189 C188 1.363 . S
C189 C192 1.363 . S
N190 C192 1.356 . S
N190 H202 0.984 1_545 S
N190 H203 0.985 . S
N191 C193 1.356 . S
N191 H196 0.984 . S
N191 H197 0.985 . S
C192 C186 1.379 . S
C192 C189 1.363 . S
C192 N190 1.356 . S
C193 C187 1.363 . S
C193 C188 1.379 . S
C193 N191 1.356 . S
N194 C186 1.356 . S
N194 H200 0.984 . S
N194 H201 0.984 . S
N195 C188 1.356 . S
N195 H198 0.984 . S
N195 H199 0.985 . S
H196 N191 0.984 . S
H197 N191 0.985 . S
H198 N195 0.984 . S
H199 N195 0.985 . S
H200 N194 0.984 . S
H201 N194 0.984 . S
H202 N190 0.984 1_565 S
H203 N190 0.985 . S
C204 C205 1.363 . S
C204 C210 1.379 . S
C204 N212 1.356 . S
C205 C204 1.363 . S
C205 C211 1.363 1_455 S
C206 C207 1.365 . S
C206 C211 1.378 1_455 S
C206 N213 1.356 1_455 S
C207 C206 1.365 . S
C207 C210 1.363 . S
N208 C210 1.356 . S
N208 H220 0.984 1_565 S
N208 H221 0.985 . S
N209 C211 1.356 . S
N209 H214 0.984 . S
N209 H215 0.985 . S
C210 C204 1.379 . S
C210 C207 1.363 . S
C210 N208 1.356 . S
C211 C205 1.363 1_655 S
C211 C206 1.378 1_655 S
C211 N209 1.356 . S
N212 C204 1.356 . S
N212 H218 0.984 . S
N212 H219 0.984 . S
N213 C206 1.356 1_655 S
N213 H216 0.984 1_655 S
N213 H217 0.985 . S
H214 N209 0.984 . S
H215 N209 0.985 . S
H216 N213 0.984 1_455 S
H217 N213 0.985 . S
H218 N212 0.984 . S
H219 N212 0.984 . S
H220 N208 0.984 1_545 S
H221 N208 0.985 . S
C222 C223 1.363 . S
C222 C228 1.379 . S
C222 N230 1.356 . S
C223 C222 1.363 . S
C223 C229 1.363 . S
C224 C225 1.363 . S
C224 C229 1.379 . S
C224 N231 1.356 . S
C225 C224 1.363 . S
C225 C228 1.363 . S
N226 C228 1.356 . S
N226 H238 0.984 . S
N226 H239 0.985 . S
N227 C229 1.356 . S
N227 H232 0.984 . S
N227 H233 0.985 . S
C228 C222 1.379 . S
C228 C225 1.363 . S
C228 N226 1.356 . S
C229 C223 1.363 . S
C229 C224 1.379 . S
C229 N227 1.356 . S
N230 C222 1.356 . S
N230 H236 0.984 . S
N230 H237 0.984 . S
N231 C224 1.356 . S
N231 H234 0.984 . S
N231 H235 0.985 . S
H232 N227 0.984 . S
H233 N227 0.985 . S
H234 N231 0.984 . S
H235 N231 0.985 . S
H236 N230 0.984 . S
H237 N230 0.984 . S
H238 N226 0.984 . S
H239 N226 0.985 . S
C240 C241 1.363 . S
C240 C246 1.379 . S
C240 N248 1.356 . S
C241 C240 1.363 . S
C241 C247 1.363 . S
C242 C243 1.363 . S
C242 C247 1.379 . S
C242 N249 1.356 . S
C243 C242 1.363 . S
C243 C246 1.363 . S
N244 C246 1.356 . S
N244 H256 0.984 . S
N244 H257 0.985 . S
N245 C247 1.356 . S
N245 H250 0.984 . S
N245 H251 0.985 . S
C246 C240 1.379 . S
C246 C243 1.363 . S
C246 N244 1.356 . S
C247 C241 1.363 . S
C247 C242 1.379 . S
C247 N245 1.356 . S
N248 C240 1.356 . S
N248 H254 0.984 . S
N248 H255 0.984 . S
N249 C242 1.356 . S
N249 H252 0.984 . S
N249 H253 0.985 . S
H250 N245 0.984 . S
H251 N245 0.985 . S
H252 N249 0.984 . S
H253 N249 0.985 . S
H254 N248 0.984 . S
H255 N248 0.984 . S
H256 N244 0.984 . S
H257 N244 0.985 . S
C258 C259 1.363 . S
C258 C264 1.379 . S
C258 N266 1.356 1_556 S
C259 C258 1.363 . S
C259 C265 1.363 . S
C260 C261 1.363 . S
C260 C265 1.379 . S
C260 N267 1.356 . S
C261 C260 1.363 . S
C261 C264 1.363 . S
N262 C264 1.356 . S
N262 H274 0.984 1_556 S
N262 H275 0.985 . S
N263 C265 1.356 . S
N263 H268 0.984 . S
N263 H269 0.985 . S
C264 C258 1.379 . S
C264 C261 1.363 . S
C264 N262 1.356 . S
C265 C259 1.363 . S
C265 C260 1.379 . S
C265 N263 1.356 . S
N266 C258 1.356 1_554 S
N266 H272 0.984 . S
N266 H273 0.984 . S
N267 C260 1.356 . S
N267 H270 0.984 . S
N267 H271 0.985 . S
H268 N263 0.984 . S
H269 N263 0.985 . S
H270 N267 0.984 . S
H271 N267 0.985 . S
H272 N266 0.984 . S
H273 N266 0.984 . S
H274 N262 0.984 1_554 S
H275 N262 0.985 . S
C276 C277 1.363 . S
C276 C282 1.379 . S
C276 N284 1.356 1_556 S
C277 C276 1.363 . S
C277 C283 1.363 . S
C278 C279 1.363 . S
C278 C283 1.379 . S
C278 N285 1.356 . S
C279 C278 1.363 . S
C279 C282 1.363 . S
N280 C282 1.356 . S
N280 H292 0.984 1_556 S
N280 H293 0.985 . S
N281 C283 1.356 . S
N281 H286 0.984 . S
N281 H287 0.985 . S
C282 C276 1.379 . S
C282 C279 1.363 . S
C282 N280 1.356 . S
C283 C277 1.363 . S
C283 C278 1.379 . S
C283 N281 1.356 . S
N284 C276 1.356 1_554 S
N284 H290 0.984 . S
N284 H291 0.984 . S
N285 C278 1.356 . S
N285 H288 0.984 . S
N285 H289 0.985 . S
H286 N281 0.984 . S
H287 N281 0.985 . S
H288 N285 0.984 . S
H289 N285 0.985 . S
H290 N284 0.984 . S
H291 N284 0.984 . S
H292 N280 0.984 1_554 S
H293 N280 0.985 . S
C294 C295 1.363 . S
C294 C300 1.379 . S
C294 N302 1.356 . S
C295 C294 1.363 . S
C295 C301 1.363 . S
C296 C297 1.363 . S
C296 C301 1.379 . S
C296 N303 1.356 . S
C297 C296 1.363 . S
C297 C300 1.363 . S
N298 C300 1.356 . S
N298 H310 0.984 . S
N298 H311 0.985 . S
N299 C301 1.356 . S
N299 H304 0.984 . S
N299 H305 0.985 . S
C300 C294 1.379 . S
C300 C297 1.363 . S
C300 N298 1.356 . S
C301 C295 1.363 . S
C301 C296 1.379 . S
C301 N299 1.356 . S
N302 C294 1.356 . S
N302 H308 0.984 1_556 S
N302 H309 0.985 . S
N303 C296 1.356 . S
N303 H306 0.984 . S
N303 H307 0.985 . S
H304 N299 0.984 . S
H305 N299 0.985 . S
H306 N303 0.984 . S
H307 N303 0.985 . S
H308 N302 0.984 1_554 S
H309 N302 0.985 . S
H310 N298 0.984 . S
H311 N298 0.985 . S
C312 C313 1.363 . S
C312 C318 1.379 . S
C312 N320 1.356 . S
C313 C312 1.363 . S
C313 C319 1.363 . S
C314 C315 1.363 . S
C314 C319 1.379 . S
C314 N321 1.356 . S
C315 C314 1.363 . S
C315 C318 1.363 . S
N316 C318 1.356 . S
N316 H328 0.984 . S
N316 H329 0.985 . S
N317 C319 1.356 . S
N317 H322 0.984 . S
N317 H323 0.985 1_556 S
C318 C312 1.379 . S
C318 C315 1.363 . S
C318 N316 1.356 . S
C319 C313 1.363 . S
C319 C314 1.379 . S
C319 N317 1.356 . S
N320 C312 1.356 . S
N320 H326 0.984 . S
N320 H327 0.984 . S
N321 C314 1.356 . S
N321 H324 0.984 . S
N321 H325 0.985 . S
H322 N317 0.984 . S
H323 N317 0.985 1_554 S
H324 N321 0.984 . S
H325 N321 0.985 . S
H326 N320 0.984 . S
H327 N320 0.984 . S
H328 N316 0.984 . S
H329 N316 0.985 . S
C330 C331 1.363 . S
C330 C336 1.379 . S
C330 N338 1.356 . S
C331 C330 1.363 . S
C331 C337 1.363 . S
C332 C333 1.363 . S
C332 C337 1.379 . S
C332 N339 1.356 . S
C333 C332 1.363 . S
C333 C336 1.363 . S
N334 C336 1.356 1_455 S
N334 H346 0.984 . S
N334 H347 0.985 . S
N335 C337 1.356 . S
N335 H340 0.984 . S
N335 H341 0.985 . S
C336 C330 1.379 . S
C336 C333 1.363 . S
C336 N334 1.356 1_655 S
C337 C331 1.363 . S
C337 C332 1.379 . S
C337 N335 1.356 . S
N338 C330 1.356 . S
N338 H344 0.984 . S
N338 H345 0.984 . S
N339 C332 1.356 . S
N339 H342 0.984 . S
N339 H343 0.985 . S
H340 N335 0.984 . S
H341 N335 0.985 . S
H342 N339 0.984 . S
H343 N339 0.985 . S
H344 N338 0.984 . S
H345 N338 0.984 . S
H346 N334 0.984 . S
H347 N334 0.985 . S
C348 C349 1.363 . S
C348 C354 1.379 . S
C348 N356 1.356 . S
C349 C348 1.363 . S
C349 C355 1.363 . S
C350 C351 1.363 . S
C350 C355 1.379 . S
C350 N357 1.356 . S
C351 C350 1.363 . S
C351 C354 1.363 . S
N352 C354 1.356 . S
N352 H364 0.984 . S
N352 H365 0.985 . S
N353 C355 1.356 . S
N353 H358 0.984 . S
N353 H359 0.985 . S
C354 C348 1.379 . S
C354 C351 1.363 . S
C354 N352 1.356 . S
C355 C349 1.363 . S
C355 C350 1.379 . S
C355 N353 1.356 . S
N356 C348 1.356 . S
N356 H362 0.984 . S
N356 H363 0.984 . S
N357 C350 1.356 . S
N357 H360 0.984 . S
N357 H361 0.985 . S
H358 N353 0.984 . S
H359 N353 0.985 . S
H360 N357 0.984 . S
H361 N357 0.985 . S
H362 N356 0.984 . S
H363 N356 0.984 . S
H364 N352 0.984 . S
H365 N352 0.985 . S
C366 C367 1.363 . S
C366 C372 1.379 . S
C366 N374 1.356 . S
C367 C366 1.363 . S
C367 C373 1.363 . S
C368 C369 1.363 . S
C368 C373 1.379 . S
C368 N375 1.356 . S
C369 C368 1.363 . S
C369 C372 1.363 . S
N370 C372 1.356 . S
N370 H382 0.984 . S
N370 H383 0.985 . S
N371 C373 1.356 . S
N371 H376 0.984 . S
N371 H377 0.985 . S
C372 C366 1.379 . S
C372 C369 1.363 . S
C372 N370 1.356 . S
C373 C367 1.363 . S
C373 C368 1.379 . S
C373 N371 1.356 . S
N374 C366 1.356 . S
N374 H380 0.984 . S
N374 H381 0.984 . S
N375 C368 1.356 . S
N375 H378 0.984 . S
N375 H379 0.985 . S
H376 N371 0.984 . S
H377 N371 0.985 . S
H378 N375 0.984 . S
H379 N375 0.985 . S
H380 N374 0.984 . S
H381 N374 0.984 . S
H382 N370 0.984 . S
H383 N370 0.985 . S
C384 C385 1.363 . S
C384 C390 1.379 . S
C384 N392 1.356 . S
C385 C384 1.363 . S
C385 C391 1.363 . S
C386 C387 1.363 . S
C386 C391 1.379 . S
C386 N393 1.356 . S
C387 C386 1.363 . S
C387 C390 1.363 . S
N388 C390 1.356 . S
N388 H400 0.984 . S
N388 H401 0.985 . S
N389 C391 1.356 . S
N389 H394 0.984 . S
N389 H395 0.985 . S
C390 C384 1.379 . S
C390 C387 1.363 . S
C390 N388 1.356 . S
C391 C385 1.363 . S
C391 C386 1.379 . S
C391 N389 1.356 . S
N392 C384 1.356 . S
N392 H398 0.984 . S
N392 H399 0.984 . S
N393 C386 1.356 . S
N393 H396 0.984 . S
N393 H397 0.985 . S
H394 N389 0.984 . S
H395 N389 0.985 . S
H396 N393 0.984 . S
H397 N393 0.985 . S
H398 N392 0.984 . S
H399 N392 0.984 . S
H400 N388 0.984 . S
H401 N388 0.985 . S
C189 C151 1.498 . S
C187 C25 1.530 . S
C207 C147 1.501 . S
C205 C61 1.555 . S
C225 C172 1.499 . S
C223 C97 1.530 . S
C241 C133 1.555 . S
C243 C168 1.501 . S
C259 C31 1.332 . S
C261 C169 1.153 . S
C279 C184 1.172 . S
C277 C37 1.400 . S
C295 C1 1.670 . S
C297 C185 1.517 . S
C315 C181 1.538 . S
C313 C67 1.691 . S
C333 C148 1.153 1_655 S
C331 C103 1.332 . S
C349 C109 1.400 . S
C351 C163 1.172 . S
C369 C164 1.517 . S
C367 C73 1.670 . S
C387 C160 1.538 . S
C385 C139 1.691 . S
