# Generated by pormake.
# Topology pyr, (3,6)-cn, num edge types: 1
# Building blocks:
#     Node 0, Type 0, BuildingBlock: QEWDON_clean_linker_0, # of connection points: 3
#     Node 1, Type 0, BuildingBlock: QEWDON_clean_linker_0, # of connection points: 3
#     Node 2, Type 0, BuildingBlock: QEWDON_clean_linker_0, # of connection points: 3
#     Node 3, Type 0, BuildingBlock: QEWDON_clean_linker_0, # of connection points: 3
#     Node 4, Type 0, BuildingBlock: QEWDON_clean_linker_0, # of connection points: 3
#     Node 5, Type 0, BuildingBlock: QEWDON_clean_linker_0, # of connection points: 3
#     Node 6, Type 0, BuildingBlock: QEWDON_clean_linker_0, # of connection points: 3
#     Node 7, Type 0, BuildingBlock: QEWDON_clean_linker_0, # of connection points: 3
#     Node 8, Type 1, BuildingBlock: MIDCAF_clean_sbu_0, # of connection points: 6
#     Node 9, Type 1, BuildingBlock: MIDCAF_clean_sbu_0, # of connection points: 6
#     Node 10, Type 1, BuildingBlock: MIDCAF_clean_sbu_0, # of connection points: 6
#     Node 11, Type 1, BuildingBlock: MIDCAF_clean_sbu_0, # of connection points: 6
#     Edge 12, Type (0, 1), BuildingBlock: KIFKEQ_clean_linker_1, # of connection points: 2
#     Edge 13, Type (0, 1), BuildingBlock: KIFKEQ_clean_linker_1, # of connection points: 2
#     Edge 14, Type (0, 1), BuildingBlock: KIFKEQ_clean_linker_1, # of connection points: 2
#     Edge 15, Type (0, 1), BuildingBlock: KIFKEQ_clean_linker_1, # of connection points: 2
#     Edge 16, Type (0, 1), BuildingBlock: KIFKEQ_clean_linker_1, # of connection points: 2
#     Edge 17, Type (0, 1), BuildingBlock: KIFKEQ_clean_linker_1, # of connection points: 2
#     Edge 18, Type (0, 1), BuildingBlock: KIFKEQ_clean_linker_1, # of connection points: 2
#     Edge 19, Type (0, 1), BuildingBlock: KIFKEQ_clean_linker_1, # of connection points: 2
#     Edge 20, Type (0, 1), BuildingBlock: KIFKEQ_clean_linker_1, # of connection points: 2
#     Edge 21, Type (0, 1), BuildingBlock: KIFKEQ_clean_linker_1, # of connection points: 2
#     Edge 22, Type (0, 1), BuildingBlock: KIFKEQ_clean_linker_1, # of connection points: 2
#     Edge 23, Type (0, 1), BuildingBlock: KIFKEQ_clean_linker_1, # of connection points: 2
#     Edge 24, Type (0, 1), BuildingBlock: KIFKEQ_clean_linker_1, # of connection points: 2
#     Edge 25, Type (0, 1), BuildingBlock: KIFKEQ_clean_linker_1, # of connection points: 2
#     Edge 26, Type (0, 1), BuildingBlock: KIFKEQ_clean_linker_1, # of connection points: 2
#     Edge 27, Type (0, 1), BuildingBlock: KIFKEQ_clean_linker_1, # of connection points: 2
#     Edge 28, Type (0, 1), BuildingBlock: KIFKEQ_clean_linker_1, # of connection points: 2
#     Edge 29, Type (0, 1), BuildingBlock: KIFKEQ_clean_linker_1, # of connection points: 2
#     Edge 30, Type (0, 1), BuildingBlock: KIFKEQ_clean_linker_1, # of connection points: 2
#     Edge 31, Type (0, 1), BuildingBlock: KIFKEQ_clean_linker_1, # of connection points: 2
#     Edge 32, Type (0, 1), BuildingBlock: KIFKEQ_clean_linker_1, # of connection points: 2
#     Edge 33, Type (0, 1), BuildingBlock: KIFKEQ_clean_linker_1, # of connection points: 2
#     Edge 34, Type (0, 1), BuildingBlock: KIFKEQ_clean_linker_1, # of connection points: 2
#     Edge 35, Type (0, 1), BuildingBlock: KIFKEQ_clean_linker_1, # of connection points: 2
# Relax obj value: 0.146
# Max RMSD: 0.265
# Mean RMSD: 0.191
data_MOF--net-pyr--node1-MIDCAF_clean_sbu_0--node2-QEWDON_clean_linker_0--edge1-KIFKEQ_clean_linker_1
_symmetry_space_group_name_H-M    P1
_symmetry_Int_Tables_number       1
_symmetry_cell_setting            triclinic
loop_
_symmetry_equiv_pos_as_xyz
'x, y, z'
_cell_length_a     35.599706
_cell_length_b     35.803996
_cell_length_c     38.363128
_cell_angle_alpha  90.177356
_cell_angle_beta   90.53257
_cell_angle_gamma 98.622698
loop_
_atom_site_label
_atom_site_type_symbol
_atom_site_fract_x
_atom_site_fract_y
_atom_site_fract_z
_atom_type_partial_charge
H0 H 0.31166 0.30233 0.24337 0.0
C1 C 0.29236 0.28846 0.26264 0.0
C2 C 0.29379 0.25055 0.27144 0.0
C3 C 0.26614 0.30882 0.27853 0.0
H4 H 0.27101 0.2049 0.30503 0.0
C5 C 0.26884 0.23348 0.29698 0.0
C6 C 0.2423 0.25317 0.3133 0.0
C7 C 0.24109 0.29099 0.30369 0.0
C8 C 0.26886 0.35004 0.27206 0.0
H9 H 0.22135 0.30688 0.31628 0.0
C10 C 0.24067 0.3659 0.25336 0.0
C11 C 0.24546 0.40527 0.24651 0.0
C12 C 0.30127 0.37375 0.28432 0.0
H13 H 0.3232 0.36218 0.29867 0.0
C14 C 0.30567 0.4125 0.27844 0.0
H15 H 0.2159 0.34757 0.24337 0.0
C16 C 0.27813 0.42816 0.25978 0.0
H17 H 0.28237 0.45846 0.25602 0.0
H18 H 0.33064 0.43054 0.28834 0.0
H19 H 0.29148 0.86893 0.85954 0.0
C20 C 0.30695 0.85282 0.84226 0.0
C21 C 0.34407 0.84706 0.85113 0.0
C22 C 0.28925 0.83795 0.81131 0.0
H23 H 0.39148 0.82009 0.83556 0.0
C24 C 0.36343 0.82579 0.82828 0.0
C25 C 0.34615 0.81034 0.79702 0.0
C26 C 0.30903 0.8171 0.78866 0.0
C27 C 0.24845 0.8405 0.80534 0.0
H28 H 0.29507 0.80545 0.76497 0.0
C29 C 0.23576 0.86146 0.77759 0.0
C30 C 0.19681 0.8652 0.77438 0.0
C31 C 0.22195 0.82261 0.8291 0.0
H32 H 0.2311 0.80639 0.85054 0.0
C33 C 0.18352 0.82536 0.82549 0.0
H34 H 0.25618 0.8758 0.7595 0.0
C35 C 0.17101 0.84649 0.79848 0.0
H36 H 0.1409 0.84796 0.79634 0.0
H37 H 0.16332 0.81122 0.84384 0.0
H38 H 0.73688 0.39167 0.87452 0.0
C39 C 0.73513 0.3625 0.88266 0.0
C40 C 0.76244 0.35213 0.90604 0.0
C41 C 0.70349 0.33599 0.87282 0.0
H42 H 0.7785 0.30745 0.93803 0.0
C43 C 0.75837 0.315 0.91887 0.0
C44 C 0.7273 0.28825 0.90884 0.0
C45 C 0.7008 0.29872 0.88496 0.0
C46 C 0.67011 0.34754 0.85456 0.0
H47 H 0.67601 0.27853 0.87799 0.0
C48 C 0.6738 0.36934 0.82393 0.0
C49 C 0.64107 0.37712 0.80611 0.0
C50 C 0.63354 0.33547 0.86788 0.0
H51 H 0.62982 0.3196 0.89192 0.0
C52 C 0.60131 0.3436 0.85044 0.0
H53 H 0.7017 0.37914 0.81346 0.0
C54 C 0.60497 0.36399 0.81957 0.0
H55 H 0.57953 0.37014 0.80643 0.0
H56 H 0.5734 0.334 0.86088 0.0
H57 H 0.80435 0.85401 0.30768 0.0
C58 C 0.78234 0.83819 0.32335 0.0
C59 C 0.78044 0.8458 0.35925 0.0
C60 C 0.75589 0.80992 0.30752 0.0
H61 H 0.74909 0.83117 0.40626 0.0
C62 C 0.75178 0.82462 0.37888 0.0
C63 C 0.72664 0.79481 0.36397 0.0
C64 C 0.7282 0.78821 0.32798 0.0
C65 C 0.75732 0.80252 0.26963 0.0
H66 H 0.70887 0.76538 0.31603 0.0
C67 C 0.79039 0.79292 0.25437 0.0
C68 C 0.79103 0.78407 0.21853 0.0
C69 C 0.72503 0.80403 0.24875 0.0
H70 H 0.69929 0.81136 0.26002 0.0
C71 C 0.72574 0.79625 0.21314 0.0
H72 H 0.81526 0.79162 0.27057 0.0
C73 C 0.75837 0.78619 0.1981 0.0
H74 H 0.75757 0.779 0.17064 0.0
H75 H 0.7007 0.79745 0.19721 0.0
H76 H 0.86039 0.87969 0.92777 0.0
C77 C 0.87912 0.89138 0.90712 0.0
C78 C 0.91681 0.88369 0.90622 0.0
C79 C 0.86511 0.91274 0.88065 0.0
H80 H 0.9694 0.89156 0.87734 0.0
C81 C 0.94071 0.89815 0.87868 0.0
C82 C 0.92667 0.91882 0.85161 0.0
C83 C 0.88916 0.92631 0.85321 0.0
C84 C 0.82453 0.91821 0.87914 0.0
H85 H 0.87838 0.94253 0.83255 0.0
C86 C 0.80653 0.93339 0.90744 0.0
C87 C 0.76856 0.94047 0.90414 0.0
C88 C 0.80397 0.90936 0.848 0.0
H89 H 0.81693 0.89729 0.82604 0.0
C90 C 0.76668 0.91619 0.84464 0.0
H91 H 0.82215 0.94001 0.93159 0.0
C92 C 0.74922 0.9319 0.87222 0.0
H93 H 0.72056 0.93786 0.86822 0.0
H94 H 0.75134 0.90965 0.82035 0.0
H95 H 0.6991 0.1735 0.50218 0.0
C96 C 0.68487 0.17175 0.47697 0.0
C97 C 0.69894 0.15143 0.45001 0.0
C98 C 0.65215 0.18895 0.47226 0.0
H99 H 0.69029 0.13187 0.39703 0.0
C100 C 0.68001 0.14836 0.41764 0.0
C101 C 0.64692 0.16508 0.41225 0.0
C102 C 0.63365 0.18611 0.43952 0.0
C103 C 0.6353 0.20521 0.50321 0.0
H104 H 0.60759 0.19798 0.43606 0.0
C105 C 0.62604 0.24229 0.50369 0.0
C106 C 0.61323 0.25741 0.53482 0.0
C107 C 0.62995 0.18319 0.53357 0.0
H108 H 0.63626 0.1545 0.53382 0.0
C109 C 0.61656 0.19775 0.56392 0.0
H110 H 0.63012 0.25964 0.48054 0.0
C111 C 0.60852 0.23459 0.56468 0.0
H112 H 0.59812 0.24517 0.58868 0.0
H113 H 0.6126 0.18044 0.58707 0.0
H114 H 0.47908 0.6827 0.17386 0.0
C115 C 0.45174 0.66792 0.16526 0.0
C116 C 0.42615 0.68748 0.14732 0.0
C117 C 0.4422 0.62929 0.17253 0.0
H118 H 0.37041 0.68244 0.12347 0.0
C119 C 0.39106 0.66758 0.13624 0.0
C120 C 0.38117 0.62907 0.14365 0.0
C121 C 0.40677 0.60992 0.16173 0.0
C122 C 0.4681 0.60995 0.19378 0.0
H123 H 0.39873 0.58036 0.16822 0.0
C124 C 0.47856 0.62331 0.22746 0.0
C125 C 0.50118 0.60389 0.24907 0.0
C126 C 0.48127 0.57753 0.18118 0.0
H127 H 0.47339 0.56682 0.15527 0.0
C128 C 0.50486 0.55884 0.20197 0.0
H129 H 0.46813 0.6483 0.23709 0.0
C130 C 0.51464 0.57173 0.23575 0.0
H131 H 0.53163 0.55572 0.25179 0.0
H132 H 0.515 0.53383 0.19213 0.0
H133 H 0.18069 0.44637 0.74127 0.0
C134 C 0.17858 0.42646 0.71975 0.0
C135 C 0.19837 0.43645 0.6887 0.0
C136 C 0.15668 0.39054 0.72333 0.0
H137 H 0.21145 0.41683 0.6373 0.0
C138 C 0.19566 0.41014 0.66106 0.0
C139 C 0.17423 0.3743 0.66449 0.0
C140 C 0.1547 0.36482 0.6955 0.0
C141 C 0.13627 0.37918 0.75614 0.0
H142 H 0.13733 0.33735 0.69769 0.0
C143 C 0.11588 0.40415 0.77366 0.0
C144 C 0.09598 0.39303 0.80443 0.0
C145 C 0.13651 0.34277 0.76975 0.0
H146 H 0.15236 0.32304 0.75715 0.0
C147 C 0.11665 0.3315 0.80001 0.0
H148 H 0.11493 0.43198 0.76298 0.0
C149 C 0.09653 0.35638 0.8173 0.0
H150 H 0.08219 0.34718 0.84124 0.0
H151 H 0.11718 0.30347 0.81032 0.0
Zn152 Zn 0.99465 0.10703 0.59241 0.0
Zn153 Zn 0.0625 0.01869 0.512 0.0
Zn154 Zn 0.02715 0.06416 0.55062 0.0
C155 C 0.097 0.09252 0.49711 0.0
C156 C 0.98597 0.01088 0.48965 0.0
O157 O 0.02783 0.04197 0.60566 0.0
O158 O 1.00199 0.08261 0.63774 0.0
C159 C 0.05328 0.15374 0.5594 0.0
O160 O 0.07265 0.10017 0.51985 0.0
O161 O 0.09914 0.05851 0.4897 0.0
O162 O 0.01668 0.99833 0.48391 0.0
O163 O 0.98429 0.03573 0.51373 0.0
O164 O 0.02682 0.15514 0.58081 0.0
O165 O 0.05815 0.12204 0.54551 0.0
O166 O 0.96635 0.06223 0.53232 0.0
O167 O 0.94334 0.09813 0.57128 0.0
C168 C 0.93857 0.07787 0.54416 0.0
O169 O 0.05305 0.02407 0.58526 0.0
O170 O 0.08122 0.98818 0.54994 0.0
C171 C 0.0165 0.05263 0.63555 0.0
C172 C 0.07348 0.99754 0.58052 0.0
Zn173 Zn 0.48081 0.08447 0.0606 0.0
Zn174 Zn 0.56491 0.02143 0.14501 0.0
Zn175 Zn 0.52144 0.05141 0.10375 0.0
C176 C 0.60797 0.03784 0.0867 0.0
C177 C 0.50268 0.96679 0.12849 0.0
O178 O 0.49131 0.09061 0.1361 0.0
O179 O 0.45292 0.10901 0.09616 0.0
C180 C 0.55592 0.10648 0.04158 0.0
O181 O 0.57925 0.05513 0.08057 0.0
O182 O 0.60883 0.01855 0.11409 0.0
O183 O 0.52774 0.97465 0.15197 0.0
O184 O 0.4979 0.9912 0.10494 0.0
O185 O 0.52324 0.11431 0.03465 0.0
O186 O 0.56029 0.08248 0.06569 0.0
O187 O 0.48099 0.00614 0.07589 0.0
O188 O 0.45318 0.03906 0.03727 0.0
C189 C 0.45821 0.00756 0.04963 0.0
O190 O 0.52057 0.07906 0.15686 0.0
O191 O 0.57022 0.05954 0.18226 0.0
C192 C 0.46359 0.10847 0.12761 0.0
C193 C 0.54444 0.0801 0.18262 0.0
Zn194 Zn 0.56544 0.63643 0.62035 0.0
Zn195 Zn 0.45528 0.54858 0.55134 0.0
Zn196 Zn 0.51029 0.58981 0.58687 0.0
C197 C 0.50717 0.50023 0.57316 0.0
C198 C 0.49177 0.59698 0.50361 0.0
O199 O 0.48238 0.62304 0.62654 0.0
O200 O 0.53047 0.66326 0.64787 0.0
C201 C 0.57545 0.56071 0.63366 0.0
O202 O 0.52361 0.53085 0.58802 0.0
O203 O 0.47633 0.50032 0.55658 0.0
O204 O 0.46222 0.57285 0.50544 0.0
O205 O 0.51281 0.60582 0.53083 0.0
O206 O 0.58919 0.59439 0.64136 0.0
O207 O 0.54661 0.55376 0.61284 0.0
O208 O 0.54211 0.62878 0.54885 0.0
O209 O 0.58838 0.66325 0.57886 0.0
C210 C 0.57154 0.65461 0.55022 0.0
O211 O 0.45513 0.59416 0.61236 0.0
O212 O 0.41223 0.55813 0.57991 0.0
C213 C 0.49523 0.65146 0.64636 0.0
C214 C 0.4204 0.57949 0.60593 0.0
Zn215 Zn 0.07399 0.63248 0.01519 0.0
Zn216 Zn 0.98184 0.55787 0.10541 0.0
Zn217 Zn 0.02571 0.59501 0.05852 0.0
C218 C 0.05299 0.5426 0.12247 0.0
C219 C 0.95808 0.52762 0.03999 0.0
O220 O 0.01229 0.65473 0.05257 0.0
O221 O 0.05751 0.6823 0.01803 0.0
C222 C 0.11792 0.60502 0.0653 0.0
O223 O 0.0609 0.56819 0.09875 0.0
O224 O 0.01883 0.53112 0.13002 0.0
O225 O 0.94795 0.52677 0.07148 0.0
O226 O 0.98758 0.55037 0.03028 0.0
O227 O 0.12207 0.62457 0.03796 0.0
O228 O 0.0845 0.59201 0.07657 0.0
O229 O 0.01604 0.56627 1.00761 0.0
O230 O 0.05696 0.60124 0.97359 0.0
C231 C 0.0313 0.5732 0.97755 0.0
O232 O 0.9925 0.63613 0.0815 0.0
O233 O 0.96588 0.60397 0.12645 0.0
C234 C 0.02775 0.68393 0.03521 0.0
C235 C 0.97239 0.63431 0.10937 0.0
H236 H 0.22106 0.28251 0.37575 0.0
H237 H 0.20638 0.18007 0.3141 0.0
H238 H 0.1859 0.24812 0.42354 0.0
H239 H 0.17263 0.14597 0.3619 0.0
H240 H 0.16362 0.08703 0.46534 0.0
H241 H 0.19673 0.12932 0.42246 0.0
H242 H 0.11776 0.20798 0.43846 0.0
H243 H 0.08366 0.16485 0.48134 0.0
C244 C 0.20996 0.25289 0.37212 0.0
C245 C 0.21722 0.23399 0.34114 0.0
C246 C 0.18996 0.23321 0.39958 0.0
C247 C 0.17715 0.1942 0.39673 0.0
C248 C 0.18288 0.17584 0.36522 0.0
C249 C 0.20237 0.19543 0.33781 0.0
C250 C 0.15349 0.11357 0.46023 0.0
C251 C 0.12085 0.12242 0.47682 0.0
C252 C 0.17243 0.13775 0.43548 0.0
C253 C 0.15948 0.17167 0.42659 0.0
C254 C 0.12838 0.18199 0.44476 0.0
C255 C 0.10904 0.15743 0.46953 0.0
H256 H 0.31138 0.84881 0.91557 0.0
H257 H 0.41763 0.88139 0.86255 0.0
H258 H 0.33876 0.87966 0.96863 0.0
H259 H 0.44506 0.91238 0.91568 0.0
H260 H 0.49308 0.95245 0.0204 0.0
H261 H 0.46615 0.90669 0.97579 0.0
H262 H 0.35704 0.94404 0.98754 0.0
H263 H 0.38393 0.98878 0.0324 0.0
C264 C 0.34062 0.86256 0.91519 0.0
C265 C 0.36208 0.86301 0.88449 0.0
C266 C 0.35638 0.88021 0.94572 0.0
C267 C 0.39411 0.89885 0.94655 0.0
C268 C 0.41608 0.89796 0.91628 0.0
C269 C 0.40029 0.88025 0.88568 0.0
C270 C 0.46294 0.94944 0.01458 0.0
C271 C 0.44032 0.97337 0.03057 0.0
C272 C 0.44764 0.92382 0.98848 0.0
C273 C 0.4094 0.92173 0.97774 0.0
C274 C 0.38641 0.94434 0.99528 0.0
C275 C 0.40176 0.96999 0.02113 0.0
H276 H 0.67453 0.44987 0.79818 0.0
H277 H 0.61116 0.35576 0.74257 0.0
H278 H 0.66418 0.49172 0.75011 0.0
H279 H 0.60206 0.39697 0.69358 0.0
H280 H 0.64804 0.56098 0.65684 0.0
H281 H 0.67232 0.51296 0.69191 0.0
H282 H 0.56211 0.44334 0.68587 0.0
H283 H 0.53847 0.49083 0.6501 0.0
C284 C 0.65966 0.43798 0.77499 0.0
C285 C 0.64342 0.39985 0.77398 0.0
C286 C 0.65369 0.46186 0.74736 0.0
C287 C 0.63169 0.44787 0.71809 0.0
C288 C 0.61829 0.40891 0.71604 0.0
C289 C 0.62381 0.38522 0.74386 0.0
C290 C 0.62928 0.53506 0.66257 0.0
C291 C 0.59136 0.52961 0.65079 0.0
C292 C 0.64313 0.50762 0.68279 0.0
C293 C 0.61917 0.47433 0.69206 0.0
C294 C 0.58166 0.46827 0.67887 0.0
C295 C 0.56796 0.49558 0.65843 0.0
H296 H 0.82202 0.80025 0.15396 0.0
H297 H 0.83557 0.73589 0.24714 0.0
H298 H 0.87191 0.77141 0.1258 0.0
H299 H 0.88555 0.70759 0.21922 0.0
H300 H 0.91423 0.66301 0.07872 0.0
H301 H 0.87602 0.70697 0.10449 0.0
H302 H 0.94973 0.71829 0.19524 0.0
H303 H 0.98805 0.67447 0.16892 0.0
C304 C 0.83579 0.78018 0.16855 0.0
C305 C 0.82453 0.77022 0.20278 0.0
C306 C 0.86444 0.76374 0.15242 0.0
C307 C 0.88266 0.73714 0.17021 0.0
C308 C 0.87254 0.72842 0.20492 0.0
C309 C 0.84382 0.7447 0.22098 0.0
C310 C 0.92331 0.67649 0.1033 0.0
C311 C 0.9547 0.66652 0.12136 0.0
C312 C 0.90123 0.70135 0.11831 0.0
C313 C 0.90977 0.71609 0.152 0.0
C314 C 0.94222 0.7072 0.16939 0.0
C315 C 0.96434 0.68246 0.15427 0.0
H316 H 0.36883 0.27386 0.25401 0.0
H317 H 0.28068 0.17687 0.24961 0.0
H318 H 0.41195 0.23764 0.22366 0.0
H319 H 0.32387 0.14067 0.22052 0.0
H320 H 0.38851 0.11058 0.12458 0.0
H321 H 0.35012 0.14371 0.16206 0.0
H322 H 0.4482 0.1811 0.22721 0.0
H323 H 0.48738 0.14764 0.18869 0.0
C324 C 0.35864 0.24484 0.24671 0.0
C325 C 0.32105 0.22847 0.25411 0.0
C326 C 0.38357 0.22393 0.22976 0.0
C327 C 0.37141 0.18624 0.21953 0.0
C328 C 0.33416 0.16971 0.2277 0.0
C329 C 0.30939 0.19047 0.24466 0.0
C330 C 0.40205 0.12556 0.14704 0.0
C331 C 0.44108 0.12631 0.15368 0.0
C332 C 0.37985 0.14443 0.16874 0.0
C333 C 0.39589 0.165 0.19782 0.0
C334 C 0.43497 0.16557 0.20493 0.0
C335 C 0.45733 0.14608 0.18318 0.0
H336 H 0.14543 0.91437 0.78084 0.0
H337 H 0.21477 0.86853 0.70472 0.0
H338 H 0.11554 0.94663 0.73484 0.0
H339 H 0.18567 0.90195 0.65856 0.0
H340 H 0.09288 0.92682 0.58212 0.0
H341 H 0.1247 0.89733 0.62881 0.0
H342 H 0.12532 0.9971 0.69254 0.0
H343 H 0.09366 0.02667 0.64552 0.0
C344 C 0.15453 0.91141 0.75424 0.0
C345 C 0.18224 0.88844 0.74646 0.0
C346 C 0.13759 0.93024 0.72786 0.0
C347 C 0.14786 0.92671 0.69285 0.0
C348 C 0.17656 0.90482 0.68516 0.0
C349 C 0.19363 0.88601 0.71166 0.0
C350 C 0.09959 0.94239 0.60619 0.0
C351 C 0.09001 0.97885 0.61033 0.0
C352 C 0.11817 0.92559 0.63289 0.0
C353 C 0.12788 0.94483 0.66448 0.0
C354 C 0.11794 0.98121 0.66876 0.0
C355 C 0.09947 0.9981 0.64191 0.0
H356 H 0.82064 0.39835 0.87398 0.0
H357 H 0.76982 0.37058 0.974 0.0
H358 H 0.87244 0.44107 0.90284 0.0
H359 H 0.81997 0.41359 1.00255 0.0
H360 H 0.92973 0.4549 0.05158 0.0
H361 H 0.88525 0.4132 0.01547 0.0
H362 H 0.88961 0.50002 0.93692 0.0
H363 H 0.93599 0.54144 0.97298 0.0
C364 C 0.8204 0.40184 0.90203 0.0
C365 C 0.79177 0.3809 0.92195 0.0
C366 C 0.8499 0.42622 0.91853 0.0
C367 C 0.85088 0.43007 0.95511 0.0
C368 C 0.82094 0.41039 0.97451 0.0
C369 C 0.79199 0.38596 0.95818 0.0
C370 C 0.92159 0.46487 0.02637 0.0
C371 C 0.93576 0.50145 0.01521 0.0
C372 C 0.89588 0.44113 1.00575 0.0
C373 C 0.88288 0.45368 0.97376 0.0
C374 C 0.89889 0.48955 0.96149 0.0
C375 C 0.92534 0.51326 0.98208 0.0
H376 H 0.74298 0.76799 0.4276 0.0
H377 H 0.6514 0.76465 0.35228 0.0
H378 H 0.69956 0.7333 0.46878 0.0
H379 H 0.60802 0.72815 0.39373 0.0
H380 H 0.58232 0.62375 0.48669 0.0
H381 H 0.61406 0.6559 0.436 0.0
H382 H 0.63131 0.76062 0.49392 0.0
H383 H 0.59787 0.72901 0.5436 0.0
C384 C 0.71357 0.75981 0.41978 0.0
C385 C 0.70043 0.76995 0.38695 0.0
C386 C 0.68888 0.73973 0.44329 0.0
C387 C 0.65061 0.72863 0.43438 0.0
C388 C 0.63754 0.73666 0.401 0.0
C389 C 0.66233 0.75736 0.37739 0.0
C390 C 0.59106 0.65397 0.48772 0.0
C391 C 0.58671 0.67416 0.51849 0.0
C392 C 0.60957 0.67221 0.45902 0.0
C393 C 0.6247 0.71065 0.46123 0.0
C394 C 0.61949 0.73099 0.49167 0.0
C395 C 0.60061 0.71292 0.52003 0.0
H396 H 0.25949 0.46167 0.19791 0.0
H397 H 0.1672 0.39014 0.24785 0.0
H398 H 0.2142 0.49511 0.16772 0.0
H399 H 0.12172 0.42348 0.21729 0.0
H400 H 0.04949 0.46746 0.13211 0.0
H401 H 0.09574 0.43347 0.16031 0.0
H402 H 0.16932 0.53916 0.17896 0.0
H403 H 0.12194 0.57308 0.15132 0.0
C404 C 0.2295 0.45309 0.20261 0.0
C405 C 0.21714 0.42327 0.22572 0.0
C406 C 0.20348 0.4724 0.18525 0.0
C407 C 0.16421 0.46233 0.19016 0.0
C408 C 0.15173 0.43187 0.21255 0.0
C409 C 0.17783 0.4126 0.23006 0.0
C410 C 0.07564 0.48344 0.14215 0.0
C411 C 0.08267 0.52295 0.13863 0.0
C412 C 0.1021 0.46393 0.1585 0.0
C413 C 0.13642 0.48339 0.172 0.0
C414 C 0.14354 0.52306 0.16836 0.0
C415 C 0.11676 0.5426 0.15211 0.0
H416 H 0.72981 0.27736 0.97906 0.0
H417 H 0.70168 0.21801 0.88191 0.0
H418 H 0.69609 0.22419 0.0109 0.0
H419 H 0.66778 0.16461 0.91391 0.0
H420 H 0.631 0.12116 0.06147 0.0
H421 H 0.68356 0.156 0.02842 0.0
H422 H 0.60631 0.16726 0.94287 0.0
H423 H 0.55442 0.1325 0.97549 0.0
C424 C 0.71787 0.25228 0.96458 0.0
C425 C 0.71781 0.25211 0.92792 0.0
C426 C 0.69845 0.22176 0.98288 0.0
C427 C 0.67861 0.19059 0.96483 0.0
C428 C 0.68221 0.18864 0.92843 0.0
C429 C 0.70165 0.21913 0.91014 0.0
C430 C 0.62556 0.13051 0.03534 0.0
C431 C 0.58861 0.12443 0.02112 0.0
C432 C 0.65557 0.15046 0.01649 0.0
C433 C 0.64911 0.16421 0.98299 0.0
C434 C 0.61243 0.15653 0.96834 0.0
C435 C 0.58254 0.13704 0.98723 0.0
H436 H 0.81422 0.9151 0.3347 0.0
H437 H 0.81171 0.84165 0.42425 0.0
H438 H 0.86078 0.96175 0.36506 0.0
H439 H 0.85622 0.88884 0.4547 0.0
H440 H 0.91262 0.99317 0.5114 0.0
H441 H 0.85928 0.95828 0.47821 0.0
H442 H 0.93063 0.95887 0.38778 0.0
H443 H 0.98383 0.99333 0.42093 0.0
C444 C 0.82337 0.90888 0.36075 0.0
C445 C 0.8088 0.87466 0.37706 0.0
C446 C 0.84969 0.93574 0.3782 0.0
C447 C 0.86141 0.9291 0.41242 0.0
C448 C 0.84686 0.89508 0.42869 0.0
C449 C 0.82126 0.86806 0.41114 0.0
C450 C 0.91651 0.98665 0.4842 0.0
C451 C 0.95222 0.99573 0.46868 0.0
C452 C 0.88616 0.9666 0.4653 0.0
C453 C 0.89101 0.95583 0.43052 0.0
C454 C 0.92608 0.96707 0.41444 0.0
C455 C 0.95651 0.98652 0.43346 0.0
H456 H 0.31663 0.7459 0.76042 0.0
H457 H 0.42203 0.81981 0.78102 0.0
H458 H 0.34997 0.7072 0.72251 0.0
H459 H 0.45554 0.78011 0.74488 0.0
H460 H 0.50163 0.72723 0.65171 0.0
H461 H 0.46416 0.76477 0.68624 0.0
H462 H 0.3945 0.66264 0.72113 0.0
H463 H 0.43228 0.62512 0.68572 0.0
C464 C 0.34688 0.75406 0.75684 0.0
C465 C 0.36647 0.78631 0.77379 0.0
C466 C 0.36613 0.73145 0.73541 0.0
C467 C 0.40555 0.74042 0.73031 0.0
C468 C 0.42511 0.7725 0.74752 0.0
C469 C 0.40589 0.79512 0.76876 0.0
C470 C 0.4781 0.71277 0.66656 0.0
C471 C 0.46961 0.67317 0.66569 0.0
C472 C 0.45672 0.73432 0.68664 0.0
C473 C 0.42643 0.71694 0.70703 0.0
C474 C 0.4173 0.67719 0.70554 0.0
C475 C 0.43872 0.65555 0.68507 0.0
H476 H 0.997 0.96253 0.84853 0.0
H477 H 0.90738 0.90354 0.78389 0.0
H478 H 0.02891 0.99069 0.79623 0.0
H479 H 0.93881 0.93142 0.73194 0.0
H480 H 1.00711 0.97525 0.64008 0.0
H481 H 0.99433 0.93731 0.69294 0.0
H482 H 0.01176 0.0391 0.75537 0.0
H483 H 0.02476 0.07667 0.70283 0.0
C484 C 0.98462 0.95495 0.82311 0.0
C485 C 0.94958 0.93113 0.82026 0.0
C486 C 1.00271 0.9712 0.79318 0.0
C487 C 0.98637 0.96347 0.75981 0.0
C488 C 0.9525 0.93775 0.75705 0.0
C489 C 0.93428 0.92198 0.78686 0.0
C490 C 0.00931 0.98934 0.6652 0.0
C491 C 0.0168 0.02895 0.66727 0.0
C492 C 1.00169 0.96767 0.69548 0.0
C493 C 1.00163 0.98516 0.72846 0.0
C494 C 0.01182 0.02459 0.73057 0.0
C495 C 0.01906 0.04618 0.70037 0.0
H496 H 0.61911 0.21553 0.36845 0.0
H497 H 0.62366 0.09672 0.38196 0.0
H498 H 0.58414 0.20157 0.31312 0.0
H499 H 0.58878 0.08279 0.32737 0.0
H500 H 0.50635 0.05965 0.24173 0.0
H501 H 0.52467 0.08481 0.29981 0.0
H502 H 0.601 0.17573 0.25339 0.0
H503 H 0.58256 0.15028 0.19536 0.0
C504 C 0.61234 0.18647 0.35974 0.0
C505 C 0.62445 0.15725 0.37935 0.0
C506 C 0.5924 0.17849 0.32811 0.0
C507 C 0.58336 0.14104 0.31595 0.0
C508 C 0.59469 0.11188 0.33616 0.0
C509 C 0.61511 0.11989 0.36727 0.0
C510 C 0.52548 0.08612 0.24395 0.0
C511 C 0.54252 0.10342 0.21409 0.0
C512 C 0.53647 0.10022 0.2772 0.0
C513 C 0.56479 0.13193 0.28126 0.0
C514 C 0.57901 0.15139 0.25122 0.0
C515 C 0.56821 0.13704 0.21793 0.0
H516 H 0.45104 0.62855 0.29413 0.0
H517 H 0.56611 0.60403 0.28852 0.0
H518 H 0.45832 0.63815 0.35659 0.0
H519 H 0.57306 0.61305 0.35158 0.0
H520 H 0.53014 0.5591 0.45962 0.0
H521 H 0.54114 0.57153 0.39786 0.0
H522 H 0.4914 0.67403 0.40706 0.0
H523 H 0.48058 0.66126 0.46945 0.0
C524 C 0.47832 0.62627 0.306 0.0
C525 C 0.50787 0.61509 0.28626 0.0
C526 C 0.48249 0.63188 0.34192 0.0
C527 C 0.5162 0.62618 0.35902 0.0
C528 C 0.54661 0.61726 0.33909 0.0
C529 C 0.54252 0.61185 0.30305 0.0
C530 C 0.52266 0.58484 0.44854 0.0
C531 C 0.50479 0.6094 0.46891 0.0
C532 C 0.52915 0.59213 0.41329 0.0
C533 C 0.51707 0.62373 0.39759 0.0
C534 C 0.50087 0.6494 0.41851 0.0
C535 C 0.49478 0.64226 0.45406 0.0
H536 H 0.12034 0.46802 0.81579 0.0
H537 H 0.02748 0.37927 0.83815 0.0
H538 H 0.09214 0.51101 0.85282 0.0
H539 H 0.99932 0.42256 0.87589 0.0
H540 H 0.01211 0.49652 0.98057 0.0
H541 H 0.01783 0.45223 0.93312 0.0
H542 H 0.03874 0.54536 0.86104 0.0
H543 H 0.03371 0.58954 0.9086 0.0
C544 C 0.09341 0.45789 0.82793 0.0
C545 C 0.07633 0.42011 0.82412 0.0
C546 C 0.07713 0.48262 0.84919 0.0
C547 C 0.04339 0.47022 0.86726 0.0
C548 C 0.02548 0.43282 0.86252 0.0
C549 C 0.04172 0.40805 0.84104 0.0
C550 C 0.01645 0.50735 0.95435 0.0
C551 C 0.02306 0.54641 0.94827 0.0
C552 C 0.01979 0.482 0.92713 0.0
C553 C 0.0297 0.49543 0.89351 0.0
C554 C 0.03205 0.53426 0.88685 0.0
C555 C 0.02897 0.55952 0.91402 0.0
H556 H 0.79773 0.99601 0.95152 0.0
H557 H 0.69394 0.92322 0.92265 0.0
H558 H 0.76272 0.02665 0.99541 0.0
H559 H 0.65924 0.95485 0.96501 0.0
H560 H 0.59979 0.04194 0.01601 0.0
H561 H 0.64222 0.02257 0.97201 0.0
H562 H 0.72364 0.00601 0.05236 0.0
H563 H 0.68115 0.02535 0.09652 0.0
C564 C 0.76765 0.98634 0.95458 0.0
C565 C 0.74867 0.95741 0.93305 0.0
C566 C 0.74758 1.00414 0.9795 0.0
C567 C 0.70811 0.99373 0.983 0.0
C568 C 0.68944 0.96422 0.96221 0.0
C569 C 0.70944 0.9461 0.93788 0.0
C570 C 0.62726 0.03545 0.02423 0.0
C571 C 0.63709 0.0352 0.05977 0.0
C572 C 0.65139 0.02395 0.99906 0.0
C573 C 0.68601 0.01232 1.00884 0.0
C574 C 0.69719 0.01487 0.04407 0.0
C575 C 0.67282 0.0259 0.06931 0.0
H576 H 0.7694 0.16267 0.42009 0.0
H577 H 0.70236 0.09505 0.49635 0.0
H578 H 0.82579 0.13587 0.43876 0.0
H579 H 0.7577 0.0667 0.5139 0.0
H580 H 0.87038 0.07717 0.57429 0.0
H581 H 0.81155 0.08818 0.54716 0.0
H582 H 0.86239 0.08478 0.4455 0.0
H583 H 0.92255 0.07493 0.47344 0.0
C584 C 0.76663 0.14134 0.44024 0.0
C585 C 0.73176 0.13124 0.45713 0.0
C586 C 0.79884 0.12575 0.45086 0.0
C587 C 0.79669 0.09942 0.47833 0.0
C588 C 0.76093 0.08759 0.49338 0.0
C589 C 0.72906 0.10361 0.48321 0.0
C590 C 0.86886 0.07792 0.54607 0.0
C591 C 0.90118 0.07518 0.52606 0.0
C592 C 0.83485 0.08406 0.53036 0.0
C593 C 0.83187 0.08761 0.49395 0.0
C594 C 0.86367 0.08272 0.47363 0.0
C595 C 0.89801 0.07651 0.48955 0.0
H596 H 0.32471 0.60467 0.1888 0.0
H597 H 0.35064 0.61401 0.07931 0.0
H598 H 0.25686 0.58791 0.17442 0.0
H599 H 0.28319 0.59654 0.06483 0.0
H600 H 0.1596 0.55051 0.0489 0.0
H601 H 0.22298 0.54411 0.07179 0.0
H602 H 0.21639 0.63565 0.14394 0.0
H603 H 0.1535 0.6424 0.12048 0.0
C604 C 0.31591 0.60174 0.1617 0.0
C605 C 0.34249 0.61046 0.13505 0.0
C606 C 0.27728 0.59236 0.15352 0.0
C607 C 0.26499 0.59101 0.11858 0.0
C608 C 0.29203 0.59697 0.09195 0.0
C609 C 0.33049 0.60703 0.10015 0.0
C610 C 0.1715 0.56849 0.07026 0.0
C611 C 0.15199 0.59665 0.08336 0.0
C612 C 0.20754 0.56485 0.08329 0.0
C613 C 0.22432 0.58925 0.10969 0.0
C614 C 0.20377 0.61612 0.12397 0.0
C615 C 0.16803 0.62014 0.11053 0.0
H616 H 0.24762 0.47236 0.73794 0.0
H617 H 0.20787 0.48312 0.63229 0.0
H618 H 0.29874 0.52461 0.72847 0.0
H619 H 0.26001 0.53324 0.62197 0.0
H620 H 0.415 0.54762 0.66928 0.0
H621 H 0.35563 0.52576 0.69841 0.0
H622 H 0.29709 0.59209 0.62787 0.0
H623 H 0.35674 0.61193 0.59755 0.0
C624 C 0.24924 0.48641 0.71293 0.0
C625 C 0.22424 0.47294 0.68556 0.0
C626 C 0.27884 0.51617 0.70736 0.0
C627 C 0.28429 0.53278 0.67422 0.0
C628 C 0.25699 0.52154 0.64795 0.0
C629 C 0.22726 0.49219 0.65364 0.0
C630 C 0.38971 0.55889 0.66116 0.0
C631 C 0.3902 0.5813 0.63128 0.0
C632 C 0.35545 0.54636 0.67785 0.0
C633 C 0.32109 0.55619 0.66489 0.0
C634 C 0.32274 0.58295 0.63788 0.0
C635 C 0.35695 0.59485 0.6208 0.0
H636 H 0.97683 0.89799 0.95182 0.0
H637 H 0.88665 0.81076 0.91891 0.0
H638 H 0.99985 0.85429 0.99273 0.0
H639 H 0.91086 0.76598 0.95753 0.0
H640 H 0.95159 0.68862 0.0333 0.0
H641 H 0.92173 0.74056 0.01035 0.0
H642 H 0.03311 0.80543 0.9954 0.0
H643 H 0.06188 0.7552 0.02152 0.0
C644 C 0.96207 0.8693 0.95334 0.0
C645 C 0.93006 0.8577 0.93222 0.0
C646 C 0.97537 0.84398 0.97662 0.0
C647 C 0.95768 0.80599 0.97863 0.0
C648 C 0.92509 0.79487 0.95769 0.0
C649 C 0.91129 0.82048 0.93512 0.0
C650 C 0.96933 0.71491 0.02714 0.0
C651 C 0.00899 0.71793 0.02998 0.0
C652 C 0.95237 0.74445 0.01279 0.0
C653 C 0.97477 0.77742 0.99999 0.0
C654 C 0.01441 0.78113 1.00503 0.0
C655 C 0.03115 0.75201 0.01999 0.0
H656 H 0.4103 0.72899 0.09033 0.0
H657 H 0.46082 0.74017 0.19345 0.0
H658 H 0.42124 0.7976 0.08411 0.0
H659 H 0.47375 0.8081 0.18643 0.0
H660 H 0.46585 0.92931 0.18199 0.0
H661 H 0.44222 0.86187 0.18484 0.0
H662 H 0.47182 0.84969 0.07674 0.0
H663 H 0.49435 0.91753 0.07404 0.0
C664 C 0.42383 0.74604 0.11162 0.0
C665 C 0.43472 0.72903 0.14239 0.0
C666 C 0.43037 0.78534 0.10792 0.0
C667 C 0.44802 0.80844 0.13489 0.0
C668 C 0.45932 0.79131 0.16541 0.0
C669 C 0.45257 0.75218 0.16918 0.0
C670 C 0.4662 0.91225 0.15864 0.0
C671 C 0.48136 0.92842 0.12765 0.0
C672 C 0.45313 0.87361 0.16032 0.0
C673 C 0.45584 0.85019 0.13122 0.0
C674 C 0.46901 0.86689 0.09957 0.0
C675 C 0.48163 0.90577 0.09783 0.0
H676 H 0.1896 0.30255 0.66819 0.0
H677 H 0.15249 0.3828 0.59688 0.0
H678 H 0.17154 0.25203 0.62606 0.0
H679 H 0.13437 0.33203 0.55417 0.0
H680 H 0.03625 0.2241 0.55111 0.0
H681 H 0.07879 0.28246 0.56263 0.0
H682 H 0.17379 0.22035 0.56842 0.0
H683 H 0.13065 0.16153 0.55666 0.0
C684 C 0.1786 0.30945 0.64296 0.0
C685 C 0.17167 0.34623 0.63592 0.0
C686 C 0.16868 0.28063 0.6186 0.0
C687 C 0.15121 0.28797 0.58684 0.0
C688 C 0.14759 0.32554 0.57852 0.0
C689 C 0.15792 0.35453 0.60287 0.0
C690 C 0.06647 0.22318 0.55335 0.0
C691 C 0.0802 0.18847 0.55374 0.0
C692 C 0.09098 0.25667 0.55972 0.0
C693 C 0.12957 0.25591 0.56716 0.0
C694 C 0.14406 0.22165 0.56321 0.0
C695 C 0.11947 0.18805 0.55636 0.0
H696 H 0.63793 0.31099 0.58391 0.0
H697 H 0.56697 0.2918 0.49191 0.0
H698 H 0.61459 0.37084 0.59428 0.0
H699 H 0.54369 0.35193 0.5021 0.0
H700 H 0.47246 0.42878 0.5592 0.0
H701 H 0.50178 0.37292 0.54772 0.0
H702 H 0.6122 0.43619 0.57095 0.0
H703 H 0.58277 0.49278 0.58173 0.0
C704 C 0.61779 0.31995 0.56556 0.0
C705 C 0.60409 0.2966 0.53718 0.0
C706 C 0.60453 0.35429 0.57145 0.0
C707 C 0.57691 0.36595 0.54931 0.0
C708 C 0.56456 0.34345 0.51997 0.0
C709 C 0.57817 0.30924 0.51385 0.0
C710 C 0.50299 0.43085 0.5622 0.0
C711 C 0.52518 0.46532 0.57176 0.0
C712 C 0.51983 0.39883 0.55526 0.0
C713 C 0.55939 0.40019 0.55784 0.0
C714 C 0.58161 0.4342 0.56873 0.0
C715 C 0.56471 0.46654 0.57532 0.0
loop_
_geom_bond_atom_site_label_1
_geom_bond_atom_site_label_2
_geom_bond_distance
_geom_bond_site_symmetry_2
_ccdc_geom_bond_type
H0 C1 0.949 . S
C1 H0 0.949 . S
C1 C2 1.395 . S
C1 C3 1.391 . S
C2 C1 1.395 . S
C2 C5 1.390 . S
C3 C1 1.391 . S
C3 C7 1.387 . S
C3 C8 1.491 . S
H4 C5 0.950 . S
C5 C2 1.390 . S
C5 H4 0.950 . S
C5 C6 1.378 . S
C6 C5 1.378 . S
C6 C7 1.409 . S
C7 C3 1.387 . S
C7 C6 1.409 . S
C7 H9 0.951 . S
C8 C3 1.491 . S
C8 C10 1.382 . S
C8 C12 1.404 . S
H9 C7 0.951 . S
C10 C8 1.382 . S
C10 C11 1.390 . S
C10 H15 0.949 . S
C11 C10 1.390 . S
C11 C16 1.399 . S
C12 C8 1.404 . S
C12 H13 0.950 . S
C12 C14 1.375 . S
H13 C12 0.950 . S
C14 C12 1.375 . S
C14 C16 1.382 . S
C14 H18 0.950 . S
H15 C10 0.949 . S
C16 C11 1.399 . S
C16 C14 1.382 . S
C16 H17 0.952 . S
H17 C16 0.952 . S
H18 C14 0.950 . S
H19 C20 0.949 . S
C20 H19 0.949 . S
C20 C21 1.395 . S
C20 C22 1.391 . S
C21 C20 1.395 . S
C21 C24 1.390 . S
C22 C20 1.391 . S
C22 C26 1.387 . S
C22 C27 1.491 . S
H23 C24 0.950 . S
C24 C21 1.390 . S
C24 H23 0.950 . S
C24 C25 1.378 . S
C25 C24 1.378 . S
C25 C26 1.409 . S
C26 C22 1.387 . S
C26 C25 1.409 . S
C26 H28 0.951 . S
C27 C22 1.491 . S
C27 C29 1.382 . S
C27 C31 1.404 . S
H28 C26 0.951 . S
C29 C27 1.382 . S
C29 C30 1.390 . S
C29 H34 0.949 . S
C30 C29 1.390 . S
C30 C35 1.399 . S
C31 C27 1.404 . S
C31 H32 0.950 . S
C31 C33 1.375 . S
H32 C31 0.950 . S
C33 C31 1.375 . S
C33 C35 1.382 . S
C33 H37 0.950 . S
H34 C29 0.949 . S
C35 C30 1.399 . S
C35 C33 1.382 . S
C35 H36 0.952 . S
H36 C35 0.952 . S
H37 C33 0.950 . S
H38 C39 0.949 . S
C39 H38 0.949 . S
C39 C40 1.395 . S
C39 C41 1.391 . S
C40 C39 1.395 . S
C40 C43 1.390 . S
C41 C39 1.391 . S
C41 C45 1.387 . S
C41 C46 1.491 . S
H42 C43 0.950 . S
C43 C40 1.390 . S
C43 H42 0.950 . S
C43 C44 1.378 . S
C44 C43 1.378 . S
C44 C45 1.409 . S
C45 C41 1.387 . S
C45 C44 1.409 . S
C45 H47 0.951 . S
C46 C41 1.491 . S
C46 C48 1.382 . S
C46 C50 1.404 . S
H47 C45 0.951 . S
C48 C46 1.382 . S
C48 C49 1.390 . S
C48 H53 0.949 . S
C49 C48 1.390 . S
C49 C54 1.399 . S
C50 C46 1.404 . S
C50 H51 0.950 . S
C50 C52 1.375 . S
H51 C50 0.950 . S
C52 C50 1.375 . S
C52 C54 1.382 . S
C52 H56 0.950 . S
H53 C48 0.949 . S
C54 C49 1.399 . S
C54 C52 1.382 . S
C54 H55 0.952 . S
H55 C54 0.952 . S
H56 C52 0.950 . S
H57 C58 0.949 . S
C58 H57 0.949 . S
C58 C59 1.395 . S
C58 C60 1.391 . S
C59 C58 1.395 . S
C59 C62 1.390 . S
C60 C58 1.391 . S
C60 C64 1.387 . S
C60 C65 1.491 . S
H61 C62 0.950 . S
C62 C59 1.390 . S
C62 H61 0.950 . S
C62 C63 1.378 . S
C63 C62 1.378 . S
C63 C64 1.409 . S
C64 C60 1.387 . S
C64 C63 1.409 . S
C64 H66 0.951 . S
C65 C60 1.491 . S
C65 C67 1.382 . S
C65 C69 1.404 . S
H66 C64 0.951 . S
C67 C65 1.382 . S
C67 C68 1.390 . S
C67 H72 0.949 . S
C68 C67 1.390 . S
C68 C73 1.399 . S
C69 C65 1.404 . S
C69 H70 0.950 . S
C69 C71 1.375 . S
H70 C69 0.950 . S
C71 C69 1.375 . S
C71 C73 1.382 . S
C71 H75 0.950 . S
H72 C67 0.949 . S
C73 C68 1.399 . S
C73 C71 1.382 . S
C73 H74 0.952 . S
H74 C73 0.952 . S
H75 C71 0.950 . S
H76 C77 0.949 . S
C77 H76 0.949 . S
C77 C78 1.395 . S
C77 C79 1.391 . S
C78 C77 1.395 . S
C78 C81 1.390 . S
C79 C77 1.391 . S
C79 C83 1.387 1_565 S
C79 C84 1.491 1_565 S
H80 C81 0.950 1_455 S
C81 C78 1.390 . S
C81 H80 0.950 1_655 S
C81 C82 1.378 . S
C82 C81 1.378 . S
C82 C83 1.409 1_565 S
C83 C79 1.387 1_545 S
C83 C82 1.409 1_545 S
C83 H85 0.951 . S
C84 C79 1.491 1_545 S
C84 C86 1.382 . S
C84 C88 1.404 . S
H85 C83 0.951 . S
C86 C84 1.382 . S
C86 C87 1.390 1_556 S
C86 H91 0.949 1_556 S
C87 C86 1.390 1_554 S
C87 C92 1.399 1_554 S
C88 C84 1.404 . S
C88 H89 0.956 . S
C88 C90 1.375 . S
H89 C88 0.956 . S
C90 C88 1.375 . S
C90 C92 1.382 . S
C90 H94 0.950 . S
H91 C86 0.949 1_554 S
C92 C87 1.399 1_556 S
C92 C90 1.382 . S
C92 H93 0.952 . S
H93 C92 0.952 . S
H94 C90 0.950 . S
H95 C96 0.949 . S
C96 H95 0.949 . S
C96 C97 1.395 . S
C96 C98 1.391 . S
C97 C96 1.395 . S
C97 C100 1.390 . S
C98 C96 1.391 . S
C98 C102 1.387 . S
C98 C103 1.491 . S
H99 C100 0.950 . S
C100 C97 1.390 . S
C100 H99 0.950 . S
C100 C101 1.378 . S
C101 C100 1.378 . S
C101 C102 1.409 . S
C102 C98 1.387 . S
C102 C101 1.409 . S
C102 H104 0.951 . S
C103 C98 1.491 . S
C103 C105 1.382 . S
C103 C107 1.404 . S
H104 C102 0.951 . S
C105 C103 1.382 . S
C105 C106 1.390 . S
C105 H110 0.949 . S
C106 C105 1.390 . S
C106 C111 1.399 . S
C107 C103 1.404 . S
C107 H108 0.950 . S
C107 C109 1.375 . S
H108 C107 0.950 . S
C109 C107 1.375 . S
C109 C111 1.382 . S
C109 H113 0.950 . S
H110 C105 0.949 . S
C111 C106 1.399 . S
C111 C109 1.382 . S
C111 H112 0.952 . S
H112 C111 0.952 . S
H113 C109 0.950 . S
H114 C115 0.949 . S
C115 H114 0.949 . S
C115 C116 1.395 . S
C115 C117 1.391 . S
C116 C115 1.395 . S
C116 C119 1.390 . S
C117 C115 1.391 . S
C117 C121 1.387 . S
C117 C122 1.491 . S
H118 C119 0.950 . S
C119 C116 1.390 . S
C119 H118 0.950 . S
C119 C120 1.378 . S
C120 C119 1.378 . S
C120 C121 1.409 . S
C121 C117 1.387 . S
C121 C120 1.409 . S
C121 H123 0.951 . S
C122 C117 1.491 . S
C122 C124 1.382 . S
C122 C126 1.404 . S
H123 C121 0.951 . S
C124 C122 1.382 . S
C124 C125 1.390 . S
C124 H129 0.949 . S
C125 C124 1.390 . S
C125 C130 1.399 . S
C126 C122 1.404 . S
C126 H127 0.950 . S
C126 C128 1.375 . S
H127 C126 0.950 . S
C128 C126 1.375 . S
C128 C130 1.382 . S
C128 H132 0.950 . S
H129 C124 0.949 . S
C130 C125 1.399 . S
C130 C128 1.382 . S
C130 H131 0.952 . S
H131 C130 0.952 . S
H132 C128 0.950 . S
H133 C134 0.949 . S
C134 H133 0.949 . S
C134 C135 1.395 . S
C134 C136 1.391 . S
C135 C134 1.395 . S
C135 C138 1.390 . S
C136 C134 1.391 . S
C136 C140 1.387 . S
C136 C141 1.491 . S
H137 C138 0.950 . S
C138 C135 1.390 . S
C138 H137 0.950 . S
C138 C139 1.378 . S
C139 C138 1.378 . S
C139 C140 1.409 . S
C140 C136 1.387 . S
C140 C139 1.409 . S
C140 H142 0.951 . S
C141 C136 1.491 . S
C141 C143 1.382 . S
C141 C145 1.404 . S
H142 C140 0.951 . S
C143 C141 1.382 . S
C143 C144 1.390 . S
C143 H148 0.949 . S
C144 C143 1.390 . S
C144 C149 1.399 . S
C145 C141 1.404 . S
C145 H146 0.950 . S
C145 C147 1.375 . S
H146 C145 0.950 . S
C147 C145 1.375 . S
C147 C149 1.382 . S
C147 H151 0.950 . S
H148 C143 0.949 . S
C149 C144 1.399 . S
C149 C147 1.382 . S
C149 H150 0.952 . S
H150 C149 0.952 . S
H151 C147 0.950 . S
Zn152 O158 1.920 . S
Zn152 O164 1.898 . S
Zn152 O167 1.905 . S
Zn153 O161 1.909 . S
Zn153 O162 1.897 1_545 S
Zn153 O170 1.919 1_545 S
Zn154 O157 2.080 1_455 S
Zn154 O160 2.114 . S
Zn154 O163 2.120 1_445 S
Zn154 O165 2.120 . S
Zn154 O166 2.114 1_455 S
Zn154 O169 2.080 . S
C155 O160 1.166 . S
C155 O161 1.182 . S
C156 O162 1.167 1_655 S
C156 O163 1.299 . S
O157 Zn154 2.080 1_655 S
O157 C171 1.305 . S
O158 Zn152 1.920 . S
O158 C171 1.234 . S
C159 O164 1.167 1_455 S
C159 O165 1.299 . S
O160 Zn154 2.114 . S
O160 C155 1.166 . S
O161 Zn153 1.909 . S
O161 C155 1.182 . S
O162 Zn153 1.897 1_565 S
O162 C156 1.167 1_455 S
O163 Zn154 2.120 1_665 S
O163 C156 1.299 . S
O164 Zn152 1.898 . S
O164 C159 1.167 1_655 S
O165 Zn154 2.120 . S
O165 C159 1.299 . S
O166 Zn154 2.114 1_655 S
O166 C168 1.166 . S
O167 Zn152 1.905 . S
O167 C168 1.182 . S
C168 O166 1.166 . S
C168 O167 1.182 . S
O169 Zn154 2.080 . S
O169 C172 1.305 . S
O170 Zn153 1.919 1_565 S
O170 C172 1.234 1_565 S
C171 O157 1.305 . S
C171 O158 1.234 . S
C172 O169 1.305 . S
C172 O170 1.234 1_545 S
Zn173 O179 1.920 . S
Zn173 O185 1.898 . S
Zn173 O188 1.905 . S
Zn174 O182 1.897 1_565 S
Zn174 O183 1.898 . S
Zn174 O191 1.920 1_565 S
Zn175 O178 2.080 . S
Zn175 O181 2.114 . S
Zn175 O184 2.120 1_545 S
Zn175 O186 2.120 . S
Zn175 O187 2.114 . S
Zn175 O190 2.080 . S
C176 O181 1.166 . S
C176 O182 1.195 . S
C177 O183 1.167 . S
C177 O184 1.299 . S
O178 Zn175 2.080 . S
O178 C192 1.305 . S
O179 Zn173 1.920 . S
O179 C192 1.234 . S
C180 O185 1.167 . S
C180 O186 1.299 . S
O181 Zn175 2.114 . S
O181 C176 1.166 . S
O182 Zn174 1.897 1_545 S
O182 C176 1.195 . S
O183 Zn174 1.898 . S
O183 C177 1.167 . S
O184 Zn175 2.120 1_565 S
O184 C177 1.299 . S
O185 Zn173 1.898 . S
O185 C180 1.167 . S
O186 Zn175 2.120 . S
O186 C180 1.299 . S
O187 Zn175 2.114 . S
O187 C189 1.166 . S
O188 Zn173 1.905 . S
O188 C189 1.182 . S
C189 O187 1.166 . S
C189 O188 1.182 . S
O190 Zn175 2.080 . S
O190 C193 1.305 . S
O191 Zn174 1.920 1_545 S
O191 C193 1.234 . S
C192 O178 1.305 . S
C192 O179 1.234 . S
C193 O190 1.305 . S
C193 O191 1.234 . S
Zn194 O200 1.920 . S
Zn194 O206 1.898 . S
Zn194 O209 1.905 . S
Zn195 O203 1.905 . S
Zn195 O204 1.898 . S
Zn195 O212 1.920 . S
Zn196 O199 2.080 . S
Zn196 O202 2.114 . S
Zn196 O205 2.120 . S
Zn196 O207 2.120 . S
Zn196 O208 2.114 . S
Zn196 O211 2.080 . S
C197 O202 1.166 . S
C197 O203 1.182 . S
C198 O204 1.167 . S
C198 O205 1.299 . S
O199 Zn196 2.080 . S
O199 C213 1.305 . S
O200 Zn194 1.920 . S
O200 C213 1.234 . S
C201 O206 1.167 . S
C201 O207 1.299 . S
O202 Zn196 2.114 . S
O202 C197 1.166 . S
O203 Zn195 1.905 . S
O203 C197 1.182 . S
O204 Zn195 1.898 . S
O204 C198 1.167 . S
O205 Zn196 2.120 . S
O205 C198 1.299 . S
O206 Zn194 1.898 . S
O206 C201 1.167 . S
O207 Zn196 2.120 . S
O207 C201 1.299 . S
O208 Zn196 2.114 . S
O208 C210 1.166 . S
O209 Zn194 1.905 . S
O209 C210 1.182 . S
C210 O208 1.166 . S
C210 O209 1.182 . S
O211 Zn196 2.080 . S
O211 C214 1.305 . S
O212 Zn195 1.920 . S
O212 C214 1.234 . S
C213 O199 1.305 . S
C213 O200 1.234 . S
C214 O211 1.305 . S
C214 O212 1.234 . S
Zn215 O221 1.920 . S
Zn215 O227 1.898 1_556 S
Zn215 O230 1.905 . S
Zn216 O224 1.905 1_655 S
Zn216 O225 1.898 . S
Zn216 O233 1.920 . S
Zn217 O220 2.080 . S
Zn217 O223 2.114 . S
Zn217 O226 2.120 1_455 S
Zn217 O228 2.120 . S
Zn217 O229 2.114 1_554 S
Zn217 O232 2.080 . S
C218 O223 1.166 . S
C218 O224 1.182 . S
C219 O225 1.167 . S
C219 O226 1.299 . S
O220 Zn217 2.080 . S
O220 C234 1.305 . S
O221 Zn215 1.920 . S
O221 C234 1.234 1_556 S
C222 O227 1.167 . S
C222 O228 1.299 . S
O223 Zn217 2.114 . S
O223 C218 1.166 . S
O224 Zn216 1.905 1_455 S
O224 C218 1.182 . S
O225 Zn216 1.898 . S
O225 C219 1.167 . S
O226 Zn217 2.120 1_655 S
O226 C219 1.299 . S
O227 Zn215 1.898 1_554 S
O227 C222 1.167 . S
O228 Zn217 2.120 . S
O228 C222 1.299 . S
O229 Zn217 2.114 1_556 S
O229 C231 1.166 . S
O230 Zn215 1.905 . S
O230 C231 1.182 . S
C231 O229 1.166 . S
C231 O230 1.182 . S
O232 Zn217 2.080 . S
O232 C235 1.305 1_455 S
O233 Zn216 1.920 . S
O233 C235 1.234 . S
C234 O220 1.305 . S
C234 O221 1.234 1_554 S
C235 O232 1.305 1_655 S
C235 O233 1.234 . S
H236 C244 0.950 . S
H237 C249 0.950 . S
H238 C246 0.950 . S
H239 C248 0.950 . S
H240 C250 0.950 . S
H241 C252 0.950 . S
H242 C254 0.950 . S
H243 C255 0.950 . S
C244 H236 0.950 . S
C244 C245 1.386 . S
C244 C246 1.391 . S
C245 C244 1.386 . S
C245 C249 1.393 . S
C246 H238 0.950 . S
C246 C244 1.391 . S
C246 C247 1.400 . S
C247 C246 1.400 . S
C247 C248 1.398 . S
C247 C253 1.491 . S
C248 H239 0.950 . S
C248 C247 1.398 . S
C248 C249 1.391 . S
C249 H237 0.950 . S
C249 C245 1.393 . S
C249 C248 1.391 . S
C250 H240 0.950 . S
C250 C251 1.386 . S
C250 C252 1.391 . S
C251 C250 1.386 . S
C251 C255 1.393 . S
C252 H241 0.950 . S
C252 C250 1.391 . S
C252 C253 1.400 . S
C253 C247 1.491 . S
C253 C252 1.400 . S
C253 C254 1.398 . S
C254 H242 0.950 . S
C254 C253 1.398 . S
C254 C255 1.391 . S
C255 H243 0.950 . S
C255 C251 1.393 . S
C255 C254 1.391 . S
H256 C264 0.950 . S
H257 C269 0.950 . S
H258 C266 0.950 . S
H259 C268 0.950 . S
H260 C270 0.950 . S
H261 C272 0.950 . S
H262 C274 0.950 . S
H263 C275 0.950 . S
C264 H256 0.950 . S
C264 C265 1.386 . S
C264 C266 1.391 . S
C265 C264 1.386 . S
C265 C269 1.393 . S
C266 H258 0.950 . S
C266 C264 1.391 . S
C266 C267 1.400 . S
C267 C266 1.400 . S
C267 C268 1.398 . S
C267 C273 1.491 . S
C268 H259 0.950 . S
C268 C267 1.398 . S
C268 C269 1.391 . S
C269 H257 0.950 . S
C269 C265 1.393 . S
C269 C268 1.391 . S
C270 H260 0.950 . S
C270 C271 1.386 . S
C270 C272 1.391 . S
C271 C270 1.386 . S
C271 C275 1.393 . S
C272 H261 0.950 . S
C272 C270 1.391 . S
C272 C273 1.400 . S
C273 C267 1.491 . S
C273 C272 1.400 . S
C273 C274 1.398 . S
C274 H262 0.950 . S
C274 C273 1.398 . S
C274 C275 1.391 . S
C275 H263 0.950 . S
C275 C271 1.393 . S
C275 C274 1.391 . S
H276 C284 0.950 . S
H277 C289 0.950 . S
H278 C286 0.950 . S
H279 C288 0.950 . S
H280 C290 0.950 . S
H281 C292 0.950 . S
H282 C294 0.950 . S
H283 C295 0.950 . S
C284 H276 0.950 . S
C284 C285 1.386 . S
C284 C286 1.391 . S
C285 C284 1.386 . S
C285 C289 1.393 . S
C286 H278 0.950 . S
C286 C284 1.391 . S
C286 C287 1.400 . S
C287 C286 1.400 . S
C287 C288 1.398 . S
C287 C293 1.491 . S
C288 H279 0.950 . S
C288 C287 1.398 . S
C288 C289 1.391 . S
C289 H277 0.950 . S
C289 C285 1.393 . S
C289 C288 1.391 . S
C290 H280 0.950 . S
C290 C291 1.386 . S
C290 C292 1.391 . S
C291 C290 1.386 . S
C291 C295 1.393 . S
C292 H281 0.950 . S
C292 C290 1.391 . S
C292 C293 1.400 . S
C293 C287 1.491 . S
C293 C292 1.400 . S
C293 C294 1.398 . S
C294 H282 0.950 . S
C294 C293 1.398 . S
C294 C295 1.391 . S
C295 H283 0.950 . S
C295 C291 1.393 . S
C295 C294 1.391 . S
H296 C304 0.950 . S
H297 C309 0.950 . S
H298 C306 0.950 . S
H299 C308 0.950 . S
H300 C310 0.950 . S
H301 C312 0.950 . S
H302 C314 0.950 . S
H303 C315 0.950 1_455 S
C304 H296 0.950 . S
C304 C305 1.386 . S
C304 C306 1.391 . S
C305 C304 1.386 . S
C305 C309 1.393 . S
C306 H298 0.950 . S
C306 C304 1.391 . S
C306 C307 1.400 . S
C307 C306 1.400 . S
C307 C308 1.398 . S
C307 C313 1.491 . S
C308 H299 0.950 . S
C308 C307 1.398 . S
C308 C309 1.391 . S
C309 H297 0.950 . S
C309 C305 1.393 . S
C309 C308 1.391 . S
C310 H300 0.950 . S
C310 C311 1.386 . S
C310 C312 1.391 . S
C311 C310 1.386 . S
C311 C315 1.393 . S
C312 H301 0.950 . S
C312 C310 1.391 . S
C312 C313 1.400 . S
C313 C307 1.491 . S
C313 C312 1.400 . S
C313 C314 1.398 . S
C314 H302 0.950 . S
C314 C313 1.398 . S
C314 C315 1.391 . S
C315 H303 0.950 1_655 S
C315 C311 1.393 . S
C315 C314 1.391 . S
H316 C324 0.950 . S
H317 C329 0.950 . S
H318 C326 0.950 . S
H319 C328 0.950 . S
H320 C330 0.950 . S
H321 C332 0.950 . S
H322 C334 0.950 . S
H323 C335 0.950 . S
C324 H316 0.950 . S
C324 C325 1.386 . S
C324 C326 1.391 . S
C325 C324 1.386 . S
C325 C329 1.393 . S
C326 H318 0.950 . S
C326 C324 1.391 . S
C326 C327 1.400 . S
C327 C326 1.400 . S
C327 C328 1.398 . S
C327 C333 1.491 . S
C328 H319 0.950 . S
C328 C327 1.398 . S
C328 C329 1.391 . S
C329 H317 0.950 . S
C329 C325 1.393 . S
C329 C328 1.391 . S
C330 H320 0.950 . S
C330 C331 1.386 . S
C330 C332 1.391 . S
C331 C330 1.386 . S
C331 C335 1.393 . S
C332 H321 0.950 . S
C332 C330 1.391 . S
C332 C333 1.400 . S
C333 C327 1.491 . S
C333 C332 1.400 . S
C333 C334 1.398 . S
C334 H322 0.950 . S
C334 C333 1.398 . S
C334 C335 1.391 . S
C335 H323 0.950 . S
C335 C331 1.393 . S
C335 C334 1.391 . S
H336 C344 0.950 . S
H337 C349 0.950 . S
H338 C346 0.950 . S
H339 C348 0.950 . S
H340 C350 0.950 . S
H341 C352 0.950 . S
H342 C354 0.950 1_545 S
H343 C355 0.950 . S
C344 H336 0.950 . S
C344 C345 1.386 . S
C344 C346 1.391 . S
C345 C344 1.386 . S
C345 C349 1.393 . S
C346 H338 0.950 . S
C346 C344 1.391 . S
C346 C347 1.400 . S
C347 C346 1.400 . S
C347 C348 1.398 . S
C347 C353 1.491 . S
C348 H339 0.950 . S
C348 C347 1.398 . S
C348 C349 1.391 . S
C349 H337 0.950 . S
C349 C345 1.393 . S
C349 C348 1.391 . S
C350 H340 0.950 . S
C350 C351 1.386 1_565 S
C350 C352 1.391 . S
C351 C350 1.386 1_545 S
C351 C355 1.393 . S
C352 H341 0.950 . S
C352 C350 1.391 . S
C352 C353 1.400 . S
C353 C347 1.491 . S
C353 C352 1.400 . S
C353 C354 1.398 . S
C354 H342 0.950 1_565 S
C354 C353 1.398 . S
C354 C355 1.391 1_565 S
C355 H343 0.950 . S
C355 C351 1.393 . S
C355 C354 1.391 1_545 S
H356 C364 0.950 . S
H357 C369 0.950 . S
H358 C366 0.950 . S
H359 C368 0.950 . S
H360 C370 0.950 . S
H361 C372 0.950 1_554 S
H362 C374 0.950 . S
H363 C375 0.950 . S
C364 H356 0.950 . S
C364 C365 1.386 . S
C364 C366 1.391 . S
C365 C364 1.386 . S
C365 C369 1.393 . S
C366 H358 0.950 . S
C366 C364 1.391 . S
C366 C367 1.400 . S
C367 C366 1.400 . S
C367 C368 1.398 . S
C367 C373 1.491 . S
C368 H359 0.950 . S
C368 C367 1.398 . S
C368 C369 1.391 . S
C369 H357 0.950 . S
C369 C365 1.393 . S
C369 C368 1.391 . S
C370 H360 0.950 . S
C370 C371 1.386 1_554 S
C370 C372 1.391 1_554 S
C371 C370 1.386 1_556 S
C371 C375 1.393 . S
C372 H361 0.950 1_556 S
C372 C370 1.391 1_556 S
C372 C373 1.400 . S
C373 C367 1.491 . S
C373 C372 1.400 . S
C373 C374 1.398 . S
C374 H362 0.950 . S
C374 C373 1.398 . S
C374 C375 1.391 . S
C375 H363 0.950 . S
C375 C371 1.393 . S
C375 C374 1.391 . S
H376 C384 0.950 . S
H377 C389 0.950 . S
H378 C386 0.950 . S
H379 C388 0.950 . S
H380 C390 0.950 . S
H381 C392 0.950 . S
H382 C394 0.950 . S
H383 C395 0.950 . S
C384 H376 0.950 . S
C384 C385 1.386 . S
C384 C386 1.391 . S
C385 C384 1.386 . S
C385 C389 1.393 . S
C386 H378 0.950 . S
C386 C384 1.391 . S
C386 C387 1.400 . S
C387 C386 1.400 . S
C387 C388 1.398 . S
C387 C393 1.491 . S
C388 H379 0.950 . S
C388 C387 1.398 . S
C388 C389 1.391 . S
C389 H377 0.950 . S
C389 C385 1.393 . S
C389 C388 1.391 . S
C390 H380 0.950 . S
C390 C391 1.386 . S
C390 C392 1.391 . S
C391 C390 1.386 . S
C391 C395 1.393 . S
C392 H381 0.950 . S
C392 C390 1.391 . S
C392 C393 1.400 . S
C393 C387 1.491 . S
C393 C392 1.400 . S
C393 C394 1.398 . S
C394 H382 0.950 . S
C394 C393 1.398 . S
C394 C395 1.391 . S
C395 H383 0.950 . S
C395 C391 1.393 . S
C395 C394 1.391 . S
H396 C404 0.950 . S
H397 C409 0.950 . S
H398 C406 0.950 . S
H399 C408 0.950 . S
H400 C410 0.950 . S
H401 C412 0.950 . S
H402 C414 0.950 . S
H403 C415 0.950 . S
C404 H396 0.950 . S
C404 C405 1.386 . S
C404 C406 1.391 . S
C405 C404 1.386 . S
C405 C409 1.393 . S
C406 H398 0.950 . S
C406 C404 1.391 . S
C406 C407 1.400 . S
C407 C406 1.400 . S
C407 C408 1.398 . S
C407 C413 1.491 . S
C408 H399 0.950 . S
C408 C407 1.398 . S
C408 C409 1.391 . S
C409 H397 0.950 . S
C409 C405 1.393 . S
C409 C408 1.391 . S
C410 H400 0.950 . S
C410 C411 1.386 . S
C410 C412 1.391 . S
C411 C410 1.386 . S
C411 C415 1.393 . S
C412 H401 0.950 . S
C412 C410 1.391 . S
C412 C413 1.400 . S
C413 C407 1.491 . S
C413 C412 1.400 . S
C413 C414 1.398 . S
C414 H402 0.950 . S
C414 C413 1.398 . S
C414 C415 1.391 . S
C415 H403 0.950 . S
C415 C411 1.393 . S
C415 C414 1.391 . S
H416 C424 0.950 . S
H417 C429 0.950 . S
H418 C426 0.950 . S
H419 C428 0.950 1_554 S
H420 C430 0.950 . S
H421 C432 0.950 . S
H422 C434 0.950 . S
H423 C435 0.950 . S
C424 H416 0.950 . S
C424 C425 1.386 . S
C424 C426 1.391 . S
C425 C424 1.386 . S
C425 C429 1.393 . S
C426 H418 0.950 . S
C426 C424 1.391 . S
C426 C427 1.400 . S
C427 C426 1.400 . S
C427 C428 1.398 . S
C427 C433 1.491 1_556 S
C428 H419 0.950 1_556 S
C428 C427 1.398 . S
C428 C429 1.391 . S
C429 H417 0.950 . S
C429 C425 1.393 . S
C429 C428 1.391 . S
C430 H420 0.950 . S
C430 C431 1.386 . S
C430 C432 1.391 . S
C431 C430 1.386 . S
C431 C435 1.393 . S
C432 H421 0.950 . S
C432 C430 1.391 . S
C432 C433 1.400 . S
C433 C427 1.491 1_554 S
C433 C432 1.400 . S
C433 C434 1.398 1_554 S
C434 H422 0.950 . S
C434 C433 1.398 1_556 S
C434 C435 1.391 1_556 S
C435 H423 0.950 . S
C435 C431 1.393 . S
C435 C434 1.391 1_554 S
H436 C444 0.950 . S
H437 C449 0.950 . S
H438 C446 0.950 . S
H439 C448 0.950 . S
H440 C450 0.950 . S
H441 C452 0.950 . S
H442 C454 0.950 . S
H443 C455 0.950 . S
C444 H436 0.950 . S
C444 C445 1.386 . S
C444 C446 1.391 . S
C445 C444 1.386 . S
C445 C449 1.393 . S
C446 H438 0.950 . S
C446 C444 1.391 . S
C446 C447 1.400 . S
C447 C446 1.400 . S
C447 C448 1.398 . S
C447 C453 1.491 . S
C448 H439 0.950 . S
C448 C447 1.398 . S
C448 C449 1.391 . S
C449 H437 0.950 . S
C449 C445 1.393 . S
C449 C448 1.391 . S
C450 H440 0.950 . S
C450 C451 1.386 . S
C450 C452 1.391 . S
C451 C450 1.386 . S
C451 C455 1.393 . S
C452 H441 0.950 . S
C452 C450 1.391 . S
C452 C453 1.400 . S
C453 C447 1.491 . S
C453 C452 1.400 . S
C453 C454 1.398 . S
C454 H442 0.950 . S
C454 C453 1.398 . S
C454 C455 1.391 . S
C455 H443 0.950 . S
C455 C451 1.393 . S
C455 C454 1.391 . S
H456 C464 0.950 . S
H457 C469 0.950 . S
H458 C466 0.950 . S
H459 C468 0.950 . S
H460 C470 0.950 . S
H461 C472 0.950 . S
H462 C474 0.950 . S
H463 C475 0.950 . S
C464 H456 0.950 . S
C464 C465 1.386 . S
C464 C466 1.391 . S
C465 C464 1.386 . S
C465 C469 1.393 . S
C466 H458 0.950 . S
C466 C464 1.391 . S
C466 C467 1.400 . S
C467 C466 1.400 . S
C467 C468 1.398 . S
C467 C473 1.491 . S
C468 H459 0.950 . S
C468 C467 1.398 . S
C468 C469 1.391 . S
C469 H457 0.950 . S
C469 C465 1.393 . S
C469 C468 1.391 . S
C470 H460 0.950 . S
C470 C471 1.386 . S
C470 C472 1.391 . S
C471 C470 1.386 . S
C471 C475 1.393 . S
C472 H461 0.950 . S
C472 C470 1.391 . S
C472 C473 1.400 . S
C473 C467 1.491 . S
C473 C472 1.400 . S
C473 C474 1.398 . S
C474 H462 0.950 . S
C474 C473 1.398 . S
C474 C475 1.391 . S
C475 H463 0.950 . S
C475 C471 1.393 . S
C475 C474 1.391 . S
H476 C484 0.950 . S
H477 C489 0.950 . S
H478 C486 0.950 . S
H479 C488 0.950 . S
H480 C490 0.950 . S
H481 C492 0.950 . S
H482 C494 0.950 . S
H483 C495 0.950 . S
C484 H476 0.950 . S
C484 C485 1.386 . S
C484 C486 1.391 . S
C485 C484 1.386 . S
C485 C489 1.393 1_545 S
C486 H478 0.950 . S
C486 C484 1.391 . S
C486 C487 1.400 . S
C487 C486 1.400 . S
C487 C488 1.398 1_545 S
C487 C493 1.491 . S
C488 H479 0.950 . S
C488 C487 1.398 1_565 S
C488 C489 1.391 . S
C489 H477 0.950 . S
C489 C485 1.393 1_565 S
C489 C488 1.391 . S
C490 H480 0.950 . S
C490 C491 1.386 1_565 S
C490 C492 1.391 . S
C491 C490 1.386 1_545 S
C491 C495 1.393 . S
C492 H481 0.950 . S
C492 C490 1.391 . S
C492 C493 1.400 1_565 S
C493 C487 1.491 . S
C493 C492 1.400 1_545 S
C493 C494 1.398 . S
C494 H482 0.950 . S
C494 C493 1.398 . S
C494 C495 1.391 . S
C495 H483 0.950 . S
C495 C491 1.393 . S
C495 C494 1.391 . S
H496 C504 0.950 . S
H497 C509 0.950 . S
H498 C506 0.950 . S
H499 C508 0.950 . S
H500 C510 0.950 . S
H501 C512 0.950 . S
H502 C514 0.950 . S
H503 C515 0.950 . S
C504 H496 0.950 . S
C504 C505 1.386 . S
C504 C506 1.391 . S
C505 C504 1.386 . S
C505 C509 1.393 . S
C506 H498 0.950 . S
C506 C504 1.391 . S
C506 C507 1.400 . S
C507 C506 1.400 . S
C507 C508 1.398 . S
C507 C513 1.491 . S
C508 H499 0.950 . S
C508 C507 1.398 . S
C508 C509 1.391 . S
C509 H497 0.950 . S
C509 C505 1.393 . S
C509 C508 1.391 . S
C510 H500 0.950 . S
C510 C511 1.386 . S
C510 C512 1.391 . S
C511 C510 1.386 . S
C511 C515 1.393 . S
C512 H501 0.950 . S
C512 C510 1.391 . S
C512 C513 1.400 . S
C513 C507 1.491 . S
C513 C512 1.400 . S
C513 C514 1.398 . S
C514 H502 0.950 . S
C514 C513 1.398 . S
C514 C515 1.391 . S
C515 H503 0.950 . S
C515 C511 1.393 . S
C515 C514 1.391 . S
H516 C524 0.950 . S
H517 C529 0.950 . S
H518 C526 0.950 . S
H519 C528 0.950 . S
H520 C530 0.950 . S
H521 C532 0.950 . S
H522 C534 0.950 . S
H523 C535 0.950 . S
C524 H516 0.950 . S
C524 C525 1.386 . S
C524 C526 1.391 . S
C525 C524 1.386 . S
C525 C529 1.393 . S
C526 H518 0.950 . S
C526 C524 1.391 . S
C526 C527 1.400 . S
C527 C526 1.400 . S
C527 C528 1.398 . S
C527 C533 1.491 . S
C528 H519 0.950 . S
C528 C527 1.398 . S
C528 C529 1.391 . S
C529 H517 0.950 . S
C529 C525 1.393 . S
C529 C528 1.391 . S
C530 H520 0.950 . S
C530 C531 1.386 . S
C530 C532 1.391 . S
C531 C530 1.386 . S
C531 C535 1.393 . S
C532 H521 0.950 . S
C532 C530 1.391 . S
C532 C533 1.400 . S
C533 C527 1.491 . S
C533 C532 1.400 . S
C533 C534 1.398 . S
C534 H522 0.950 . S
C534 C533 1.398 . S
C534 C535 1.391 . S
C535 H523 0.950 . S
C535 C531 1.393 . S
C535 C534 1.391 . S
H536 C544 0.950 . S
H537 C549 0.950 . S
H538 C546 0.950 . S
H539 C548 0.950 . S
H540 C550 0.950 . S
H541 C552 0.950 . S
H542 C554 0.950 . S
H543 C555 0.950 . S
C544 H536 0.950 . S
C544 C545 1.386 . S
C544 C546 1.391 . S
C545 C544 1.386 . S
C545 C549 1.393 . S
C546 H538 0.950 . S
C546 C544 1.391 . S
C546 C547 1.400 . S
C547 C546 1.400 . S
C547 C548 1.398 . S
C547 C553 1.491 . S
C548 H539 0.950 . S
C548 C547 1.398 . S
C548 C549 1.391 . S
C549 H537 0.950 . S
C549 C545 1.393 . S
C549 C548 1.391 . S
C550 H540 0.950 . S
C550 C551 1.386 . S
C550 C552 1.391 . S
C551 C550 1.386 . S
C551 C555 1.393 . S
C552 H541 0.950 . S
C552 C550 1.391 . S
C552 C553 1.400 . S
C553 C547 1.491 . S
C553 C552 1.400 . S
C553 C554 1.398 . S
C554 H542 0.950 . S
C554 C553 1.398 . S
C554 C555 1.391 . S
C555 H543 0.950 . S
C555 C551 1.393 . S
C555 C554 1.391 . S
H556 C564 0.950 . S
H557 C569 0.950 1_566 S
H558 C566 0.950 . S
H559 C568 0.950 1_565 S
H560 C570 0.940 1_565 S
H561 C572 0.950 1_565 S
H562 C574 0.950 . S
H563 C575 0.950 . S
C564 H556 0.950 . S
C564 C565 1.386 . S
C564 C566 1.391 . S
C565 C564 1.386 . S
C565 C569 1.393 . S
C566 H558 0.950 . S
C566 C564 1.391 . S
C566 C567 1.400 . S
C567 C566 1.400 . S
C567 C568 1.398 . S
C567 C573 1.491 . S
C568 H559 0.950 1_545 S
C568 C567 1.398 . S
C568 C569 1.391 . S
C569 H557 0.950 1_544 S
C569 C565 1.393 . S
C569 C568 1.391 . S
C570 H560 0.940 1_545 S
C570 C571 1.401 . S
C570 C572 1.386 . S
C571 C570 1.401 . S
C571 C575 1.393 . S
C572 H561 0.950 1_545 S
C572 C570 1.386 . S
C572 C573 1.400 . S
C573 C567 1.491 . S
C573 C572 1.400 . S
C573 C574 1.398 . S
C574 H562 0.950 . S
C574 C573 1.398 . S
C574 C575 1.391 . S
C575 H563 0.950 . S
C575 C571 1.393 . S
C575 C574 1.391 . S
H576 C584 0.950 . S
H577 C589 0.950 . S
H578 C586 0.950 . S
H579 C588 0.950 . S
H580 C590 0.950 . S
H581 C592 0.950 . S
H582 C594 0.950 . S
H583 C595 0.950 . S
C584 H576 0.950 . S
C584 C585 1.386 . S
C584 C586 1.391 . S
C585 C584 1.386 . S
C585 C589 1.393 . S
C586 H578 0.950 . S
C586 C584 1.391 . S
C586 C587 1.400 . S
C587 C586 1.400 . S
C587 C588 1.398 . S
C587 C593 1.491 . S
C588 H579 0.950 . S
C588 C587 1.398 . S
C588 C589 1.391 . S
C589 H577 0.950 . S
C589 C585 1.393 . S
C589 C588 1.391 . S
C590 H580 0.950 . S
C590 C591 1.386 . S
C590 C592 1.391 . S
C591 C590 1.386 . S
C591 C595 1.393 . S
C592 H581 0.950 . S
C592 C590 1.391 . S
C592 C593 1.400 . S
C593 C587 1.491 . S
C593 C592 1.400 . S
C593 C594 1.398 . S
C594 H582 0.950 . S
C594 C593 1.398 . S
C594 C595 1.391 . S
C595 H583 0.950 . S
C595 C591 1.393 . S
C595 C594 1.391 . S
H596 C604 0.950 . S
H597 C609 0.950 . S
H598 C606 0.950 . S
H599 C608 0.950 . S
H600 C610 0.950 . S
H601 C612 0.950 . S
H602 C614 0.950 . S
H603 C615 0.950 . S
C604 H596 0.950 . S
C604 C605 1.386 . S
C604 C606 1.391 . S
C605 C604 1.386 . S
C605 C609 1.393 . S
C606 H598 0.950 . S
C606 C604 1.391 . S
C606 C607 1.400 . S
C607 C606 1.400 . S
C607 C608 1.398 . S
C607 C613 1.491 . S
C608 H599 0.950 . S
C608 C607 1.398 . S
C608 C609 1.391 . S
C609 H597 0.950 . S
C609 C605 1.393 . S
C609 C608 1.391 . S
C610 H600 0.950 . S
C610 C611 1.386 . S
C610 C612 1.391 . S
C611 C610 1.386 . S
C611 C615 1.393 . S
C612 H601 0.950 . S
C612 C610 1.391 . S
C612 C613 1.400 . S
C613 C607 1.491 . S
C613 C612 1.400 . S
C613 C614 1.398 . S
C614 H602 0.950 . S
C614 C613 1.398 . S
C614 C615 1.391 . S
C615 H603 0.950 . S
C615 C611 1.393 . S
C615 C614 1.391 . S
H616 C624 0.950 . S
H617 C629 0.950 . S
H618 C626 0.950 . S
H619 C628 0.950 . S
H620 C630 0.950 . S
H621 C632 0.950 . S
H622 C634 0.950 . S
H623 C635 0.950 . S
C624 H616 0.950 . S
C624 C625 1.386 . S
C624 C626 1.391 . S
C625 C624 1.386 . S
C625 C629 1.393 . S
C626 H618 0.950 . S
C626 C624 1.391 . S
C626 C627 1.400 . S
C627 C626 1.400 . S
C627 C628 1.398 . S
C627 C633 1.491 . S
C628 H619 0.950 . S
C628 C627 1.398 . S
C628 C629 1.391 . S
C629 H617 0.950 . S
C629 C625 1.393 . S
C629 C628 1.391 . S
C630 H620 0.950 . S
C630 C631 1.386 . S
C630 C632 1.391 . S
C631 C630 1.386 . S
C631 C635 1.393 . S
C632 H621 0.950 . S
C632 C630 1.391 . S
C632 C633 1.400 . S
C633 C627 1.491 . S
C633 C632 1.400 . S
C633 C634 1.398 . S
C634 H622 0.950 . S
C634 C633 1.398 . S
C634 C635 1.391 . S
C635 H623 0.950 . S
C635 C631 1.393 . S
C635 C634 1.391 . S
H636 C644 0.950 . S
H637 C649 0.950 1_554 S
H638 C646 0.950 . S
H639 C648 0.950 . S
H640 C650 0.950 . S
H641 C652 0.950 . S
H642 C654 0.950 . S
H643 C655 0.950 . S
C644 H636 0.950 . S
C644 C645 1.386 1_455 S
C644 C646 1.391 . S
C645 C644 1.386 1_655 S
C645 C649 1.393 . S
C646 H638 0.950 . S
C646 C644 1.391 . S
C646 C647 1.413 . S
C647 C646 1.413 . S
C647 C648 1.375 1_456 S
C647 C653 1.501 . S
C648 H639 0.950 . S
C648 C647 1.375 1_654 S
C648 C649 1.391 1_554 S
C649 H637 0.950 1_556 S
C649 C645 1.393 . S
C649 C648 1.391 1_556 S
C650 H640 0.950 . S
C650 C651 1.386 1_655 S
C650 C652 1.391 . S
C651 C650 1.386 1_455 S
C651 C655 1.393 1_554 S
C652 H641 0.950 . S
C652 C650 1.391 . S
C652 C653 1.400 1_654 S
C653 C647 1.501 . S
C653 C652 1.400 1_456 S
C653 C654 1.398 . S
C654 H642 0.950 . S
C654 C653 1.398 . S
C654 C655 1.391 . S
C655 H643 0.950 . S
C655 C651 1.393 1_556 S
C655 C654 1.391 . S
H656 C664 0.950 . S
H657 C669 0.950 . S
H658 C666 0.950 . S
H659 C668 0.950 . S
H660 C670 0.950 . S
H661 C672 0.950 . S
H662 C674 0.950 . S
H663 C675 0.950 . S
C664 H656 0.950 . S
C664 C665 1.386 . S
C664 C666 1.391 . S
C665 C664 1.386 . S
C665 C669 1.393 . S
C666 H658 0.950 . S
C666 C664 1.391 . S
C666 C667 1.400 . S
C667 C666 1.400 . S
C667 C668 1.398 . S
C667 C673 1.491 . S
C668 H659 0.950 . S
C668 C667 1.398 . S
C668 C669 1.391 . S
C669 H657 0.950 . S
C669 C665 1.393 . S
C669 C668 1.391 . S
C670 H660 0.950 . S
C670 C671 1.386 . S
C670 C672 1.391 . S
C671 C670 1.386 . S
C671 C675 1.393 . S
C672 H661 0.950 . S
C672 C670 1.391 . S
C672 C673 1.400 . S
C673 C667 1.491 . S
C673 C672 1.400 . S
C673 C674 1.398 . S
C674 H662 0.950 . S
C674 C673 1.398 . S
C674 C675 1.391 . S
C675 H663 0.950 . S
C675 C671 1.393 . S
C675 C674 1.391 . S
H676 C684 0.950 . S
H677 C689 0.950 . S
H678 C686 0.950 . S
H679 C688 0.950 . S
H680 C690 0.950 . S
H681 C692 0.950 . S
H682 C694 0.950 . S
H683 C695 0.950 . S
C684 H676 0.950 . S
C684 C685 1.386 . S
C684 C686 1.391 . S
C685 C684 1.386 . S
C685 C689 1.393 . S
C686 H678 0.950 . S
C686 C684 1.391 . S
C686 C687 1.400 . S
C687 C686 1.400 . S
C687 C688 1.398 . S
C687 C693 1.491 . S
C688 H679 0.950 . S
C688 C687 1.398 . S
C688 C689 1.391 . S
C689 H677 0.950 . S
C689 C685 1.393 . S
C689 C688 1.391 . S
C690 H680 0.950 . S
C690 C691 1.386 . S
C690 C692 1.391 . S
C691 C690 1.386 . S
C691 C695 1.393 . S
C692 H681 0.950 . S
C692 C690 1.391 . S
C692 C693 1.400 . S
C693 C687 1.491 . S
C693 C692 1.400 . S
C693 C694 1.398 . S
C694 H682 0.950 . S
C694 C693 1.398 . S
C694 C695 1.391 . S
C695 H683 0.950 . S
C695 C691 1.393 . S
C695 C694 1.391 . S
H696 C704 0.950 . S
H697 C709 0.950 . S
H698 C706 0.950 . S
H699 C708 0.950 . S
H700 C710 0.950 . S
H701 C712 0.950 . S
H702 C714 0.950 . S
H703 C715 0.950 . S
C704 H696 0.950 . S
C704 C705 1.386 . S
C704 C706 1.391 . S
C705 C704 1.386 . S
C705 C709 1.393 . S
C706 H698 0.950 . S
C706 C704 1.391 . S
C706 C707 1.400 . S
C707 C706 1.400 . S
C707 C708 1.398 . S
C707 C713 1.491 . S
C708 H699 0.950 . S
C708 C707 1.398 . S
C708 C709 1.391 . S
C709 H697 0.950 . S
C709 C705 1.393 . S
C709 C708 1.391 . S
C710 H700 0.950 . S
C710 C711 1.386 . S
C710 C712 1.391 . S
C711 C710 1.386 . S
C711 C715 1.393 . S
C712 H701 0.950 . S
C712 C710 1.391 . S
C712 C713 1.400 . S
C713 C707 1.491 . S
C713 C712 1.400 . S
C713 C714 1.398 . S
C714 H702 0.950 . S
C714 C713 1.398 . S
C714 C715 1.391 . S
C715 H703 0.950 . S
C715 C711 1.393 . S
C715 C714 1.391 . S
C245 C6 1.823 . S
C251 C155 1.686 . S
C265 C21 2.054 . S
C271 C189 1.878 1_566 S
C291 C201 0.926 . S
C285 C49 0.896 . S
C305 C68 1.227 . S
C311 C235 1.201 . S
C331 C192 2.076 . S
C325 C2 2.251 . S
C351 C172 1.234 . S
C345 C30 1.189 . S
C371 C219 1.220 1_556 S
C365 C40 1.358 . S
C391 C210 1.322 . S
C385 C63 1.376 . S
C405 C11 1.473 . S
C411 C218 1.522 . S
C431 C180 1.549 . S
C425 C44 1.680 . S
C445 C59 1.157 . S
C451 C156 1.057 . S
C465 C25 1.803 . S
C471 C213 1.707 . S
C491 C171 1.975 . S
C485 C82 2.087 1_545 S
C505 C101 1.832 . S
C511 C193 1.704 . S
C525 C125 1.428 . S
C531 C198 1.382 . S
C545 C144 1.089 . S
C551 C231 1.170 . S
C565 C87 1.247 . S
C571 C176 1.370 . S
C591 C168 2.089 . S
C585 C97 2.232 . S
C611 C222 1.404 . S
C605 C120 1.426 . S
C631 C214 1.333 . S
C625 C135 1.436 . S
C645 C78 1.919 . S
C651 C234 1.823 . S
C671 C177 1.182 . S
C665 C116 1.270 . S
C691 C159 1.641 . S
C685 C139 1.745 . S
C705 C106 1.518 . S
C711 C197 1.518 . S
