# Generated by pormake.
# Topology zzz, (3,6)-cn, num edge types: 1
# Building blocks:
#     Node 0, Type 0, BuildingBlock: KAKCAD_clean_linker_0, # of connection points: 3
#     Node 1, Type 0, BuildingBlock: KAKCAD_clean_linker_0, # of connection points: 3
#     Node 2, Type 0, BuildingBlock: KAKCAD_clean_linker_0, # of connection points: 3
#     Node 3, Type 0, BuildingBlock: KAKCAD_clean_linker_0, # of connection points: 3
#     Node 4, Type 0, BuildingBlock: KAKCAD_clean_linker_0, # of connection points: 3
#     Node 5, Type 0, BuildingBlock: KAKCAD_clean_linker_0, # of connection points: 3
#     Node 6, Type 0, BuildingBlock: KAKCAD_clean_linker_0, # of connection points: 3
#     Node 7, Type 0, BuildingBlock: KAKCAD_clean_linker_0, # of connection points: 3
#     Node 8, Type 1, BuildingBlock: PAMTUU_clean_sbu_0, # of connection points: 6
#     Node 9, Type 1, BuildingBlock: PAMTUU_clean_sbu_0, # of connection points: 6
#     Node 10, Type 1, BuildingBlock: PAMTUU_clean_sbu_0, # of connection points: 6
#     Node 11, Type 1, BuildingBlock: PAMTUU_clean_sbu_0, # of connection points: 6
#     Edge 12, Type (0, 1), BuildingBlock: MIFKUJ_clean_linker_0, # of connection points: 2
#     Edge 13, Type (0, 1), BuildingBlock: MIFKUJ_clean_linker_0, # of connection points: 2
#     Edge 14, Type (0, 1), BuildingBlock: MIFKUJ_clean_linker_0, # of connection points: 2
#     Edge 15, Type (0, 1), BuildingBlock: MIFKUJ_clean_linker_0, # of connection points: 2
#     Edge 16, Type (0, 1), BuildingBlock: MIFKUJ_clean_linker_0, # of connection points: 2
#     Edge 17, Type (0, 1), BuildingBlock: MIFKUJ_clean_linker_0, # of connection points: 2
#     Edge 18, Type (0, 1), BuildingBlock: MIFKUJ_clean_linker_0, # of connection points: 2
#     Edge 19, Type (0, 1), BuildingBlock: MIFKUJ_clean_linker_0, # of connection points: 2
#     Edge 20, Type (0, 1), BuildingBlock: MIFKUJ_clean_linker_0, # of connection points: 2
#     Edge 21, Type (0, 1), BuildingBlock: MIFKUJ_clean_linker_0, # of connection points: 2
#     Edge 22, Type (0, 1), BuildingBlock: MIFKUJ_clean_linker_0, # of connection points: 2
#     Edge 23, Type (0, 1), BuildingBlock: MIFKUJ_clean_linker_0, # of connection points: 2
#     Edge 24, Type (0, 1), BuildingBlock: MIFKUJ_clean_linker_0, # of connection points: 2
#     Edge 25, Type (0, 1), BuildingBlock: MIFKUJ_clean_linker_0, # of connection points: 2
#     Edge 26, Type (0, 1), BuildingBlock: MIFKUJ_clean_linker_0, # of connection points: 2
#     Edge 27, Type (0, 1), BuildingBlock: MIFKUJ_clean_linker_0, # of connection points: 2
#     Edge 28, Type (0, 1), BuildingBlock: MIFKUJ_clean_linker_0, # of connection points: 2
#     Edge 29, Type (0, 1), BuildingBlock: MIFKUJ_clean_linker_0, # of connection points: 2
#     Edge 30, Type (0, 1), BuildingBlock: MIFKUJ_clean_linker_0, # of connection points: 2
#     Edge 31, Type (0, 1), BuildingBlock: MIFKUJ_clean_linker_0, # of connection points: 2
#     Edge 32, Type (0, 1), BuildingBlock: MIFKUJ_clean_linker_0, # of connection points: 2
#     Edge 33, Type (0, 1), BuildingBlock: MIFKUJ_clean_linker_0, # of connection points: 2
#     Edge 34, Type (0, 1), BuildingBlock: MIFKUJ_clean_linker_0, # of connection points: 2
#     Edge 35, Type (0, 1), BuildingBlock: MIFKUJ_clean_linker_0, # of connection points: 2
# Relax obj value: 0.355
# Max RMSD: 0.259
# Mean RMSD: 0.219
data_MOF--net-zzz--node1-PAMTUU_clean_sbu_0--node2-KAKCAD_clean_linker_0--edge1-MIFKUJ_clean_linker_0
_symmetry_space_group_name_H-M    P1
_symmetry_Int_Tables_number       1
_symmetry_cell_setting            triclinic
loop_
_symmetry_equiv_pos_as_xyz
'x, y, z'
_cell_length_a     73.225908
_cell_length_b     75.992257
_cell_length_c     25.432747
_cell_angle_alpha  97.040948
_cell_angle_beta   90.106829
_cell_angle_gamma 90.56928
loop_
_atom_site_label
_atom_site_type_symbol
_atom_site_fract_x
_atom_site_fract_y
_atom_site_fract_z
_atom_type_partial_charge
C0 C 0.79754 0.4632 0.13377 0.0
C1 C 0.78991 0.44788 0.1052 0.0
C2 C 0.78873 0.47163 0.17829 0.0
C3 C 0.77204 0.46499 0.1948 0.0
C4 C 0.76439 0.44963 0.16635 0.0
C5 C 0.77336 0.44104 0.1221 0.0
C6 C 0.76243 0.47443 0.24075 0.0
C7 C 0.74403 0.47868 0.23649 0.0
C8 C 0.73483 0.48838 0.27871 0.0
C9 C 0.74434 0.49381 0.32654 0.0
C10 C 0.76288 0.48917 0.33144 0.0
C11 C 0.77175 0.47967 0.28823 0.0
C12 C 0.77365 0.49337 0.38091 0.0
C13 C 0.78442 0.50887 0.38859 0.0
C14 C 0.77695 0.47984 0.41258 0.0
C15 C 0.79142 0.48132 0.44906 0.0
C16 C 0.80301 0.49633 0.45453 0.0
C17 C 0.7154 0.49253 0.26959 0.0
C18 C 0.71042 0.50964 0.25976 0.0
C19 C 0.70305 0.47841 0.25615 0.0
C20 C 0.68683 0.48101 0.22924 0.0
C21 C 0.68252 0.4978 0.21517 0.0
C22 C 0.69404 0.51228 0.23298 0.0
C23 C 0.79888 0.5104 0.4253 0.0
H24 H 0.81046 0.46856 0.12196 0.0
H25 H 0.79483 0.48351 0.19934 0.0
H26 H 0.75155 0.44423 0.17858 0.0
H27 H 0.76728 0.4292 0.10076 0.0
H28 H 0.73689 0.47483 0.19937 0.0
H29 H 0.78599 0.47616 0.29187 0.0
H30 H 0.73737 0.50121 0.35955 0.0
H31 H 0.78248 0.51925 0.36356 0.0
H32 H 0.7691 0.4676 0.40654 0.0
H33 H 0.79401 0.47034 0.47138 0.0
H34 H 0.71986 0.52066 0.26868 0.0
H35 H 0.70668 0.46506 0.26268 0.0
H36 H 0.80758 0.52208 0.42808 0.0
H37 H 0.69111 0.52537 0.22263 0.0
H38 H 0.67812 0.46964 0.21678 0.0
C39 C 0.98227 0.76398 0.1096 0.0
C40 C 0.99873 0.7737 0.11148 0.0
C41 C 0.97758 0.75427 0.15096 0.0
C42 C 0.98914 0.75443 0.19514 0.0
C43 C 1.00583 0.7637 0.1962 0.0
C44 C 0.01063 0.77317 0.15462 0.0
C45 C 0.98346 0.74578 0.24149 0.0
C46 C 0.97772 0.72807 0.23552 0.0
C47 C 0.97292 0.7197 0.27984 0.0
C48 C 0.97335 0.72943 0.3308 0.0
C49 C 0.97884 0.74741 0.3369 0.0
C50 C 0.98399 0.75533 0.29209 0.0
C51 C 0.97909 0.75865 0.38884 0.0
C52 C 0.9628 0.76271 0.4165 0.0
C53 C 0.99505 0.76822 0.40504 0.0
C54 C 0.9945 0.78242 0.4454 0.0
C55 C 0.97794 0.78745 0.47063 0.0
C56 C 0.96874 0.70051 0.27088 0.0
C57 C 0.95347 0.69452 0.24016 0.0
C58 C 0.98215 0.68833 0.28117 0.0
C59 C 0.98108 0.67071 0.25739 0.0
C60 C 0.96652 0.66499 0.22296 0.0
C61 C 0.95228 0.6769 0.21684 0.0
C62 C 0.96222 0.77701 0.45701 0.0
H63 H 0.97288 0.76422 0.07674 0.0
H64 H 0.96461 0.74723 0.14945 0.0
H65 H 0.015 0.76389 0.22975 0.0
H66 H 0.02328 0.78075 0.15743 0.0
H67 H 0.97761 0.72056 0.19638 0.0
H68 H 0.98807 0.7692 0.2965 0.0
H69 H 0.96963 0.72306 0.36517 0.0
H70 H 0.95027 0.75564 0.40435 0.0
H71 H 0.00775 0.76543 0.38401 0.0
H72 H 0.00686 0.79017 0.45415 0.0
H73 H 0.94307 0.70376 0.23126 0.0
H74 H 0.99423 0.69277 0.30387 0.0
H75 H 0.94929 0.78033 0.47614 0.0
H76 H 0.94067 0.67287 0.19161 0.0
H77 H 0.99235 0.66199 0.2628 0.0
C78 C 0.75055 0.95834 0.07827 0.0
C79 C 0.73393 0.96694 0.07285 0.0
C80 C 0.75901 0.95921 0.12789 0.0
C81 C 0.75124 0.96913 0.17266 0.0
C82 C 0.73418 0.97706 0.16717 0.0
C83 C 0.72558 0.97585 0.11798 0.0
C84 C 0.76164 0.97296 0.22325 0.0
C85 C 0.78053 0.97592 0.22221 0.0
C86 C 0.79032 0.98205 0.26836 0.0
C87 C 0.78091 0.98551 0.31706 0.0
C88 C 0.76184 0.98234 0.31882 0.0
C89 C 0.75256 0.97574 0.27204 0.0
C90 C 0.75053 0.98703 0.36701 0.0
C91 C 0.74995 0.97614 0.40785 0.0
C92 C 0.73723 0.00021 0.36615 0.0
C93 C 0.72304 0.00178 0.40313 0.0
C94 C 0.72168 0.99019 0.44206 0.0
C95 C 0.81006 0.98583 0.26147 0.0
C96 C 0.82181 0.97163 0.24598 0.0
C97 C 0.81577 0.00303 0.25392 0.0
C98 C 0.83228 0.0058 0.22791 0.0
C99 C 0.84342 0.9914 0.2087 0.0
C100 C 0.83831 0.97437 0.22019 0.0
C101 C 0.7357 0.97777 0.44528 0.0
H102 H 0.75718 0.95134 0.04395 0.0
H103 H 0.77194 0.95259 0.13076 0.0
H104 H 0.72787 0.98512 0.2001 0.0
H105 H 0.71288 0.98285 0.11468 0.0
H106 H 0.7877 0.9744 0.18469 0.0
H107 H 0.73798 0.97328 0.27366 0.0
H108 H 0.78821 0.9909 0.3526 0.0
H109 H 0.75979 0.96564 0.40877 0.0
H110 H 0.73722 0.00864 0.33475 0.0
H111 H 0.7127 0.01169 0.39998 0.0
H112 H 0.81749 0.95817 0.24994 0.0
H113 H 0.80678 0.01416 0.2642 0.0
H114 H 0.73506 0.9686 0.47466 0.0
H115 H 0.84635 0.96291 0.20576 0.0
H116 H 0.83587 0.01914 0.2206 0.0
C117 C 0.55609 0.7315 0.31065 0.0
C118 C 0.56989 0.71926 0.31805 0.0
C119 C 0.55729 0.74209 0.26936 0.0
C120 C 0.57219 0.74044 0.23454 0.0
C121 C 0.58638 0.72888 0.24349 0.0
C122 C 0.58532 0.71849 0.28504 0.0
C123 C 0.57157 0.7482 0.18406 0.0
C124 C 0.57183 0.76662 0.18234 0.0
C125 C 0.57155 0.77333 0.13317 0.0
C126 C 0.57042 0.76154 0.08615 0.0
C127 C 0.56928 0.74316 0.08752 0.0
C128 C 0.57016 0.73666 0.13678 0.0
C129 C 0.56576 0.73079 0.03839 0.0
C130 C 0.5537 0.73542 0.99933 0.0
C131 C 0.5732 0.71369 0.03225 0.0
C132 C 0.56772 0.70116 0.99035 0.0
C133 C 0.55489 0.70547 0.95278 0.0
C134 C 0.57143 0.79262 0.12953 0.0
C135 C 0.55734 0.8032 0.153 0.0
C136 C 0.58394 0.79997 0.09633 0.0
C137 C 0.58185 0.81731 0.08453 0.0
C138 C 0.56704 0.82754 0.10513 0.0
C139 C 0.55508 0.8205 0.14058 0.0
C140 C 0.54844 0.72296 0.95685 0.0
H141 H 0.5441 0.73242 0.33564 0.0
H142 H 0.54609 0.75077 0.26268 0.0
H143 H 0.59789 0.72727 0.21667 0.0
H144 H 0.59606 0.70906 0.28925 0.0
H145 H 0.57254 0.77561 0.21883 0.0
H146 H 0.56898 0.72253 0.13889 0.0
H147 H 0.56995 0.76678 0.0484 0.0
H148 H 0.54759 0.74843 1.00275 0.0
H149 H 0.58284 0.70976 0.06086 0.0
H150 H 0.57292 0.68783 0.98914 0.0
H151 H 0.54744 0.79775 0.17836 0.0
H152 H 0.59489 0.79201 0.0777 0.0
H153 H 0.53886 0.72691 0.92812 0.0
H154 H 0.54361 0.82815 0.15723 0.0
H155 H 0.59119 0.82231 0.05676 0.0
C156 C 0.25404 0.55491 0.37328 0.0
C157 C 0.23545 0.55128 0.38035 0.0
C158 C 0.26365 0.54561 0.33143 0.0
C159 C 0.2549 0.53234 0.29648 0.0
C160 C 0.23632 0.52863 0.3043 0.0
C161 C 0.2267 0.53808 0.34553 0.0
C162 C 0.26506 0.5221 0.25254 0.0
C163 C 0.28309 0.51693 0.25993 0.0
C164 C 0.29262 0.50667 0.2195 0.0
C165 C 0.28378 0.50122 0.17065 0.0
C166 C 0.26565 0.50656 0.16263 0.0
C167 C 0.25658 0.51702 0.2035 0.0
C168 C 0.25533 0.50161 0.11268 0.0
C169 C 0.25416 0.51378 0.07551 0.0
C170 C 0.24284 0.48738 0.10925 0.0
C171 C 0.22882 0.48588 0.07123 0.0
C172 C 0.22685 0.49871 0.03609 0.0
C173 C 0.31171 0.50197 0.23118 0.0
C174 C 0.32458 0.51565 0.24416 0.0
C175 C 0.31594 0.48478 0.24188 0.0
C176 C 0.33224 0.48162 0.26828 0.0
C177 C 0.34461 0.4956 0.28454 0.0
C178 C 0.34083 0.51251 0.27031 0.0
C179 C 0.24015 0.5123 0.03749 0.0
H180 H 0.26103 0.5651 0.39959 0.0
H181 H 0.27789 0.54896 0.3262 0.0
H182 H 0.22924 0.51822 0.27908 0.0
H183 H 0.21243 0.53483 0.35079 0.0
H184 H 0.28971 0.52051 0.29797 0.0
H185 H 0.24276 0.52125 0.19675 0.0
H186 H 0.29093 0.49315 0.13931 0.0
H187 H 0.26336 0.52511 0.07817 0.0
H188 H 0.24312 0.47814 0.13847 0.0
H189 H 0.2188 0.47534 0.07192 0.0
H190 H 0.32147 0.52909 0.23724 0.0
H191 H 0.3061 0.47408 0.23315 0.0
H192 H 0.23928 0.52227 0.01062 0.0
H193 H 0.34981 0.52368 0.2825 0.0
H194 H 0.3348 0.46836 0.27782 0.0
C195 C 0.05934 0.22844 0.34987 0.0
C196 C 0.06962 0.2128 0.3435 0.0
C197 C 0.06082 0.24068 0.31331 0.0
C198 C 0.07254 0.23747 0.26963 0.0
C199 C 0.0836 0.22237 0.26499 0.0
C200 C 0.08219 0.21018 0.30164 0.0
C201 C 0.07194 0.24889 0.22648 0.0
C202 C 0.07192 0.26738 0.23758 0.0
C203 C 0.07008 0.27818 0.19676 0.0
C204 C 0.06782 0.27019 0.14396 0.0
C205 C 0.06819 0.25156 0.13257 0.0
C206 C 0.07029 0.24114 0.1739 0.0
C207 C 0.06613 0.24209 0.07852 0.0
C208 C 0.04859 0.23818 0.05764 0.0
C209 C 0.08109 0.23273 0.05534 0.0
C210 C 0.07843 0.21872 0.01496 0.0
C211 C 0.06072 0.21369 0.99717 0.0
C212 C 0.07028 0.29772 0.21142 0.0
C213 C 0.05551 0.30815 0.19901 0.0
C214 C 0.08408 0.30553 0.24528 0.0
C215 C 0.08246 0.32291 0.26966 0.0
C216 C 0.067 0.33294 0.26076 0.0
C217 C 0.05388 0.32566 0.22351 0.0
C218 C 0.0459 0.22413 0.01707 0.0
H219 H 0.0494 0.23078 0.38137 0.0
H220 H 0.05203 0.25215 0.31761 0.0
H221 H 0.09297 0.21973 0.23211 0.0
H222 H 0.09056 0.19843 0.29628 0.0
H223 H 0.07318 0.2734 0.27837 0.0
H224 H 0.07001 0.2268 0.16503 0.0
H225 H 0.06617 0.27832 0.11216 0.0
H226 H 0.03681 0.24494 0.0758 0.0
H227 H 0.0947 0.23532 0.07146 0.0
H228 H 0.09015 0.21112 0.9999 0.0
H229 H 0.04464 0.3024 0.1733 0.0
H230 H 0.09572 0.29784 0.25508 0.0
H231 H 0.03208 0.22055 0.00446 0.0
H232 H 0.0418 0.33308 0.21596 0.0
H233 H 0.09295 0.32826 0.29738 0.0
C234 C 0.2641 0.04405 0.38126 0.0
C235 C 0.28137 0.05212 0.37919 0.0
C236 C 0.25392 0.03964 0.33514 0.0
C237 C 0.26044 0.04378 0.28596 0.0
C238 C 0.27645 0.05413 0.28542 0.0
C239 C 0.28693 0.05806 0.33137 0.0
C240 C 0.25206 0.03513 0.23566 0.0
C241 C 0.23357 0.03023 0.23398 0.0
C242 C 0.22648 0.0182 0.19268 0.0
C243 C 0.23784 0.01198 0.14951 0.0
C244 C 0.25613 0.01817 0.14827 0.0
C245 C 0.26307 0.0294 0.1918 0.0
C246 C 0.26901 0.01277 0.10409 0.0
C247 C 0.27876 0.99689 0.10264 0.0
C248 C 0.27489 0.02543 0.07174 0.0
C249 C 0.29057 0.02265 0.04032 0.0
C250 C 0.301 0.00719 0.0409 0.0
C251 C 0.20786 0.01113 0.2012 0.0
C252 C 0.20613 0.99569 0.22608 0.0
C253 C 0.19284 0.02255 0.20188 0.0
C254 C 0.17696 0.0193 0.23015 0.0
C255 C 0.17588 0.0047 0.25918 0.0
C256 C 0.19035 0.99253 0.25488 0.0
C257 C 0.29455 0.99411 0.07138 0.0
H258 H 0.25908 0.03983 0.41779 0.0
H259 H 0.2417 0.0317 0.33798 0.0
H260 H 0.28157 0.05822 0.24886 0.0
H261 H 0.30009 0.06445 0.32806 0.0
H262 H 0.22474 0.03489 0.2668 0.0
H263 H 0.27747 0.03283 0.19224 0.0
H264 H 0.23258 0.00253 0.11762 0.0
H265 H 0.27482 0.9871 0.12819 0.0
H266 H 0.26794 0.03801 0.07324 0.0
H267 H 0.29512 0.03314 0.0181 0.0
H268 H 0.21765 0.98692 0.22748 0.0
H269 H 0.19401 0.03482 0.18443 0.0
H270 H 0.30203 0.98195 0.07248 0.0
H271 H 0.18988 0.98104 0.27622 0.0
H272 H 0.16616 0.029 0.23276 0.0
C273 C 0.46096 0.26606 0.19176 0.0
C274 C 0.47409 0.27979 0.19355 0.0
C275 C 0.46103 0.25423 0.23007 0.0
C276 C 0.47424 0.25596 0.27058 0.0
C277 C 0.48817 0.26877 0.26961 0.0
C278 C 0.48809 0.28053 0.2316 0.0
C279 C 0.47201 0.24671 0.31834 0.0
C280 C 0.46996 0.22814 0.31549 0.0
C281 C 0.46786 0.22017 0.36239 0.0
C282 C 0.46762 0.23075 0.41165 0.0
C283 C 0.46984 0.24909 0.41457 0.0
C284 C 0.47197 0.25699 0.36816 0.0
C285 C 0.47109 0.26017 0.466 0.0
C286 C 0.45524 0.26637 0.49262 0.0
C287 C 0.48823 0.26632 0.48515 0.0
C288 C 0.48951 0.27932 0.52874 0.0
C289 C 0.47363 0.28652 0.55349 0.0
C290 C 0.46743 0.20077 0.3624 0.0
C291 C 0.4515 0.19245 0.37792 0.0
C292 C 0.48388 0.19142 0.35924 0.0
C293 C 0.48467 0.17448 0.37529 0.0
C294 C 0.46897 0.16655 0.39458 0.0
C295 C 0.45221 0.17542 0.39326 0.0
C296 C 0.4565 0.27951 0.53613 0.0
H297 H 0.45 0.26516 0.16288 0.0
H298 H 0.45008 0.24454 0.23014 0.0
H299 H 0.49864 0.27026 0.30004 0.0
H300 H 0.49862 0.29071 0.2333 0.0
H301 H 0.47034 0.21999 0.27746 0.0
H302 H 0.47357 0.27128 0.37099 0.0
H303 H 0.46637 0.22465 0.44789 0.0
H304 H 0.44191 0.26177 0.47803 0.0
H305 H 0.50057 0.2617 0.46468 0.0
H306 H 0.50289 0.28462 0.54055 0.0
H307 H 0.43871 0.19956 0.3812 0.0
H308 H 0.4964 0.19778 0.34844 0.0
H309 H 0.44406 0.28479 0.55458 0.0
H310 H 0.43976 0.16959 0.40659 0.0
H311 H 0.49786 0.16823 0.37619 0.0
Tb312 Tb 0.99488 0.00823 0.69655 0.0
Tb313 Tb 0.02527 0.99514 0.77689 0.0
C314 C 0.98416 0.99975 0.81085 0.0
C315 C 0.98003 0.03514 0.59989 0.0
C316 C 0.99486 0.06549 0.5622 0.0
C317 C 0.97652 0.0652 0.57837 0.0
C318 C 0.96917 0.05012 0.59739 0.0
C319 C 0.99796 0.03509 0.58032 0.0
C320 C 1.00529 0.05009 0.56158 0.0
C321 C 0.97441 0.02147 0.63296 0.0
O322 O 0.01267 0.03093 0.71983 0.0
O323 O 0.02304 0.02361 0.79916 0.0
O324 O 0.04113 0.00462 0.71331 0.0
O325 O 0.01902 0.00056 0.64908 0.0
O326 O 0.03505 0.99469 0.85438 0.0
O327 O 0.0488 0.98042 0.78768 0.0
O328 O 0.01647 0.97187 0.72399 0.0
O329 O 0.98807 0.98041 0.69934 0.0
O330 O 0.98173 0.01022 0.77399 0.0
O331 O 0.99878 0.98991 0.8113 0.0
C332 C 0.01986 0.03546 0.76685 0.0
O333 O 0.98195 0.00595 0.62202 0.0
O334 O 0.97487 0.02684 0.68359 0.0
C335 C 0.03626 0.00282 0.66314 0.0
C336 C 0.04496 0.96608 0.86282 0.0
C337 C 0.04043 0.93389 0.90535 0.0
C338 C 0.0565 0.94409 0.91556 0.0
C339 C 0.05872 0.96015 0.89444 0.0
C340 C 0.02899 0.9559 0.8525 0.0
C341 C 0.02674 0.93998 0.87355 0.0
C342 C 0.04702 0.98257 0.83902 0.0
C343 C 1.0001 0.96799 0.7044 0.0
H344 H 0.96821 0.07696 0.57933 0.0
H345 H 0.95543 0.05055 0.6132 0.0
H346 H 0.00675 0.02385 0.58249 0.0
H347 H 0.01938 0.04987 0.54854 0.0
H348 H 0.06724 0.9397 0.94007 0.0
H349 H 0.07115 0.96786 0.90255 0.0
H350 H 0.01829 0.9602 0.82765 0.0
H351 H 0.01439 0.93225 0.86404 0.0
Tb352 Tb 0.50811 0.98695 0.72005 0.0
Tb353 Tb 0.52426 0.01535 0.81434 0.0
C354 C 0.52576 0.97436 0.8207 0.0
C355 C 0.47521 0.97554 0.62037 0.0
C356 C 0.44261 0.98934 0.58424 0.0
C357 C 0.44646 0.97112 0.57278 0.0
C358 C 0.46268 0.96423 0.59102 0.0
C359 C 0.47143 0.99367 0.63105 0.0
C360 C 0.45534 0.00047 0.61356 0.0
C361 C 0.49126 0.96886 0.64587 0.0
O362 O 0.48499 0.00089 0.76018 0.0
O363 O 0.49733 0.00834 0.84266 0.0
O364 O 0.50734 0.03031 0.76545 0.0
O365 O 0.51283 0.01209 0.68954 0.0
O366 O 0.53321 0.02264 0.89279 0.0
O367 O 0.53571 0.04075 0.83428 0.0
O368 O 0.54487 0.01117 0.75213 0.0
O369 O 0.53763 0.98311 0.71407 0.0
O370 O 0.5127 0.97161 0.78522 0.0
O371 O 0.53453 0.9896 0.829 0.0
C372 C 0.48303 0.00491 0.81163 0.0
O373 O 0.50648 0.97734 0.639 0.0
O374 O 0.48881 0.96694 0.69556 0.0
C375 C 0.5081 0.02756 0.71365 0.0
C376 C 0.56161 0.03649 0.88336 0.0
C377 C 0.59974 0.03661 0.87074 0.0
C378 C 0.5909 0.05183 0.89513 0.0
C379 C 0.57182 0.05184 0.90076 0.0
C380 C 0.57065 0.0212 0.86088 0.0
C381 C 0.58945 0.02127 0.85445 0.0
C382 C 0.54161 0.03667 0.87952 0.0
C383 C 0.54948 0.99627 0.72357 0.0
H384 H 0.43694 0.96222 0.55 0.0
H385 H 0.46526 0.95015 0.58311 0.0
H386 H 0.4807 0.0026 0.65453 0.0
H387 H 0.4527 0.01444 0.62444 0.0
H388 H 0.59866 0.06375 0.90847 0.0
H389 H 0.56504 0.06386 0.91726 0.0
H390 H 0.56312 0.00927 0.84652 0.0
H391 H 0.59596 0.00925 0.83666 0.0
Tb392 Tb 0.49982 0.4954 0.79729 0.0
Tb393 Tb 0.52883 0.50335 0.70391 0.0
C394 C 0.48734 0.49869 0.68005 0.0
C395 C 0.4751 0.46786 0.88438 0.0
C396 C 0.47029 0.43468 0.92238 0.0
C397 C 0.46271 0.45018 0.94951 0.0
C398 C 0.46516 0.4666 0.93077 0.0
C399 C 0.48217 0.45239 0.85612 0.0
C400 C 0.47981 0.43596 0.87491 0.0
C401 C 0.47919 0.4854 0.86797 0.0
O402 O 0.5155 0.4716 0.77506 0.0
O403 O 0.5218 0.47537 0.68912 0.0
O404 O 0.54411 0.49599 0.77165 0.0
O405 O 0.52426 0.5079 0.83451 0.0
O406 O 0.55412 0.51449 0.68655 0.0
O407 O 0.53705 0.50133 0.62425 0.0
O408 O 0.5207 0.52913 0.7419 0.0
O409 O 0.49525 0.52331 0.79151 0.0
O410 O 0.48593 0.48951 0.72059 0.0
O411 O 0.50188 0.50847 0.67393 0.0
C412 C 0.51899 0.46508 0.72615 0.0
O413 O 0.47354 0.48812 0.82108 0.0
O414 O 0.49592 0.49093 0.87634 0.0
C415 C 0.54077 0.50268 0.82074 0.0
C416 C 0.55224 0.52765 0.60845 0.0
C417 C 0.55514 0.55997 0.5649 0.0
C418 C 0.57 0.54828 0.56298 0.0
C419 C 0.56855 0.53225 0.58463 0.0
C420 C 0.53732 0.53916 0.60995 0.0
C421 C 0.53874 0.55515 0.58828 0.0
C422 C 0.5512 0.51168 0.63565 0.0
C423 C 0.50622 0.53423 0.77002 0.0
H424 H 0.45502 0.44967 0.98562 0.0
H425 H 0.45959 0.47839 0.95311 0.0
H426 H 0.48992 0.45308 0.82021 0.0
H427 H 0.48597 0.42438 0.85317 0.0
H428 H 0.58276 0.55154 0.5448 0.0
H429 H 0.58024 0.5236 0.58357 0.0
H430 H 0.52468 0.53595 0.62889 0.0
H431 H 0.52714 0.56395 0.59115 0.0
Tb432 Tb 0.0206 0.51559 0.71325 0.0
Tb433 Tb 0.01069 0.48137 0.77394 0.0
C434 C 1.00364 0.51989 0.82496 0.0
C435 C 0.04777 0.55123 0.66691 0.0
C436 C 0.08229 0.56711 0.65832 0.0
C437 C 0.06652 0.57515 0.64094 0.0
C438 C 0.04934 0.56728 0.64543 0.0
C439 C 0.06344 0.54322 0.6845 0.0
C440 C 0.08055 0.5511 0.68036 0.0
C441 C 0.0298 0.54316 0.67332 0.0
O442 O 0.04318 0.51261 0.76769 0.0
O443 O 0.04039 0.48305 0.77669 0.0
O444 O 0.01511 0.47162 0.69131 0.0
O445 O 0.03402 0.49339 0.66699 0.0
O446 O 1.0057 0.4704 0.84453 0.0
O447 O 1.00484 0.45409 0.76925 0.0
O448 O 0.9845 0.49087 0.7476 0.0
O449 O 0.99469 0.50543 0.67893 0.0
O450 O 1.00171 0.52406 0.77685 0.0
O451 O 0.01106 0.50479 0.83264 0.0
C452 C 0.05006 0.49782 0.78082 0.0
O453 O 0.02685 0.52781 0.6455 0.0
O454 O 0.02477 0.54311 0.72233 0.0
C455 C 0.02736 0.47717 0.65947 0.0
C456 C 0.98281 0.44815 0.83122 0.0
C457 C 0.94715 0.43516 0.84445 0.0
C458 C 0.96106 0.42362 0.82432 0.0
C459 C 0.97876 0.43008 0.81787 0.0
C460 C 0.96899 0.45967 0.85173 0.0
C461 C 0.95141 0.45321 0.85869 0.0
C462 C 1.00096 0.45507 0.81934 0.0
C463 C 0.98148 0.49786 0.70349 0.0
H464 H 0.06749 0.5875 0.62386 0.0
H465 H 0.03732 0.57369 0.63216 0.0
H466 H 0.06244 0.53081 0.70123 0.0
H467 H 0.09248 0.54441 0.69308 0.0
H468 H 0.95821 0.40969 0.81252 0.0
H469 H 0.98919 0.42104 0.80133 0.0
H470 H 0.97169 0.47373 0.86179 0.0
H471 H 0.94116 0.46242 0.87542 0.0
H472 H 0.17887 0.99758 0.36153 0.0
H473 H 0.15494 0.99725 0.42793 0.0
H474 H 0.11472 0.00851 0.31276 0.0
H475 H 0.13889 0.00943 0.24639 0.0
H476 H 0.10701 0.0272 0.40045 0.0
H477 H 0.11994 0.96585 0.35762 0.0
H478 H 0.13879 0.93899 0.34286 0.0
H479 H 0.15666 0.94718 0.505 0.0
H480 H 0.1381 0.97423 0.52057 0.0
H481 H 0.03112 0.00306 0.55621 0.0
H482 H 0.05427 0.00367 0.48737 0.0
H483 H 0.09676 0.00361 0.60483 0.0
H484 H 0.07365 0.00329 0.67432 0.0
H485 H 0.10234 0.97894 0.5147 0.0
H486 H 0.0872 0.04081 0.55471 0.0
H487 H 0.06641 0.06634 0.56541 0.0
H488 H 0.05019 0.05523 0.40234 0.0
H489 H 0.07062 0.02944 0.39087 0.0
C490 C 0.16489 0.99971 0.34999 0.0
C491 C 0.16081 0.00329 0.29827 0.0
C492 C 0.15114 0.99952 0.38816 0.0
C493 C 0.13281 0.00251 0.37554 0.0
C494 C 0.12869 0.00611 0.32383 0.0
C495 C 0.14252 0.00658 0.28574 0.0
C496 C 0.11811 0.00224 0.41661 0.0
C497 C 0.10587 0.01648 0.42478 0.0
C498 C 0.11658 0.98843 0.44928 0.0
C499 C 0.12776 0.97216 0.44011 0.0
C500 C 0.128 0.962 0.39003 0.0
C501 C 0.13861 0.94673 0.38154 0.0
C502 C 0.14895 0.94141 0.42293 0.0
C503 C 0.14866 0.95133 0.47295 0.0
C504 C 0.13808 0.96662 0.48165 0.0
C505 C 0.04536 0.00332 0.56769 0.0
C506 C 0.05044 0.00324 0.62115 0.0
C507 C 0.05862 0.00368 0.52811 0.0
C508 C 0.0773 0.00382 0.54081 0.0
C509 C 0.08244 0.00355 0.59399 0.0
C510 C 0.06918 0.00341 0.63375 0.0
C511 C 0.09145 0.0039 0.49854 0.0
C512 C 0.10354 0.98962 0.49019 0.0
C513 C 0.09258 0.01749 0.46512 0.0
C514 C 0.08034 0.03307 0.47205 0.0
C515 C 0.07908 0.0437 0.52124 0.0
C516 C 0.06737 0.05824 0.52743 0.0
C517 C 0.05697 0.06238 0.48459 0.0
C518 C 0.05825 0.052 0.43549 0.0
C519 C 0.06989 0.03742 0.42912 0.0
H520 H 0.04797 0.07366 0.48932 0.0
H521 H 0.15716 0.92958 0.41627 0.0
H522 H 0.45069 0.15867 0.48287 0.0
H523 H 0.45552 0.13385 0.53301 0.0
H524 H 0.49657 0.11324 0.42127 0.0
H525 H 0.49105 0.13757 0.36876 0.0
H526 H 0.47742 0.08677 0.45327 0.0
H527 H 0.50811 0.13845 0.53894 0.0
H528 H 0.51088 0.16955 0.57946 0.0
H529 H 0.47151 0.15978 0.69768 0.0
H530 H 0.46831 0.12867 0.65739 0.0
H531 H 0.52271 0.03251 0.6186 0.0
H532 H 0.51523 0.05538 0.56279 0.0
H533 H 0.47566 0.07703 0.67809 0.0
H534 H 0.48398 0.05469 0.73561 0.0
H535 H 0.4933 0.10262 0.64298 0.0
H536 H 0.46612 0.04814 0.55676 0.0
H537 H 0.46722 0.01703 0.51518 0.0
H538 H 0.5029 0.03205 0.39454 0.0
H539 H 0.50279 0.06305 0.4364 0.0
C540 C 0.46039 0.14864 0.46784 0.0
C541 C 0.47053 0.15026 0.42163 0.0
C542 C 0.46332 0.13454 0.49716 0.0
C543 C 0.47672 0.12189 0.48167 0.0
C544 C 0.48627 0.12293 0.4343 0.0
C545 C 0.4832 0.13696 0.40455 0.0
C546 C 0.48133 0.10811 0.51622 0.0
C547 C 0.48104 0.0902 0.49466 0.0
C548 C 0.48589 0.11259 0.57039 0.0
C549 C 0.48783 0.13128 0.59482 0.0
C550 C 0.49994 0.14297 0.57334 0.0
C551 C 0.5016 0.16059 0.5963 0.0
C552 C 0.49134 0.16665 0.64103 0.0
C553 C 0.47943 0.15508 0.66298 0.0
C554 C 0.47769 0.13745 0.64012 0.0
C555 C 0.51245 0.04221 0.63209 0.0
C556 C 0.50386 0.04184 0.68129 0.0
C557 C 0.50807 0.05519 0.59994 0.0
C558 C 0.49449 0.06768 0.61537 0.0
C559 C 0.48609 0.06748 0.66505 0.0
C560 C 0.49085 0.05475 0.69794 0.0
C561 C 0.48928 0.08115 0.58031 0.0
C562 C 0.48951 0.09907 0.60176 0.0
C563 C 0.48496 0.07663 0.52582 0.0
C564 C 0.48454 0.05797 0.50002 0.0
C565 C 0.47429 0.04482 0.52154 0.0
C566 C 0.47474 0.0272 0.49796 0.0
C567 C 0.485 0.02262 0.45221 0.0
C568 C 0.49493 0.03562 0.42997 0.0
C569 C 0.49474 0.05321 0.45371 0.0
H570 H 0.48528 0.00898 0.43403 0.0
H571 H 0.49265 0.1803 0.65875 0.0
H572 H 0.37911 0.51045 0.28427 0.0
H573 H 0.40341 0.5093 0.34959 0.0
H574 H 0.37058 0.47387 0.43121 0.0
H575 H 0.3459 0.47556 0.36734 0.0
H576 H 0.38451 0.49894 0.50025 0.0
H577 H 0.40914 0.45968 0.35697 0.0
H578 H 0.41904 0.45027 0.2653 0.0
H579 H 0.45839 0.49285 0.27676 0.0
H580 H 0.44856 0.50266 0.3683 0.0
H581 H 0.45559 0.47889 0.67553 0.0
H582 H 0.43186 0.47671 0.607 0.0
H583 H 0.46194 0.5136 0.52332 0.0
H584 H 0.48578 0.51569 0.59114 0.0
H585 H 0.44937 0.4865 0.45537 0.0
H586 H 0.42388 0.52629 0.59733 0.0
H587 H 0.414 0.53566 0.68906 0.0
H588 H 0.37621 0.49181 0.6797 0.0
H589 H 0.38604 0.48204 0.58811 0.0
C590 C 0.37703 0.50236 0.31599 0.0
C591 C 0.36043 0.49311 0.32029 0.0
C592 C 0.39107 0.50157 0.35317 0.0
C593 C 0.38898 0.49138 0.39538 0.0
C594 C 0.3726 0.48182 0.39909 0.0
C595 C 0.35854 0.48263 0.36202 0.0
C596 C 0.40346 0.49139 0.43698 0.0
C597 C 0.39863 0.49591 0.49038 0.0
C598 C 0.42203 0.48787 0.42439 0.0
C599 C 0.42799 0.482 0.36935 0.0
C600 C 0.4198 0.46712 0.33981 0.0
C601 C 0.42542 0.4617 0.28789 0.0
C602 C 0.4393 0.47098 0.26517 0.0
C603 C 0.44763 0.48568 0.29438 0.0
C604 C 0.44205 0.49116 0.34631 0.0
C605 C 0.45715 0.4866 0.64262 0.0
C606 C 0.47262 0.49753 0.63913 0.0
C607 C 0.44352 0.48536 0.60347 0.0
C608 C 0.44497 0.49511 0.56003 0.0
C609 C 0.46046 0.50592 0.5563 0.0
C610 C 0.47409 0.50717 0.59536 0.0
C611 C 0.43039 0.49408 0.51848 0.0
C612 C 0.43521 0.48941 0.46515 0.0
C613 C 0.41181 0.49744 0.53109 0.0
C614 C 0.40583 0.50333 0.58607 0.0
C615 C 0.41356 0.51857 0.61498 0.0
C616 C 0.40795 0.52396 0.66692 0.0
C617 C 0.39452 0.51431 0.69025 0.0
C618 C 0.38663 0.49926 0.66162 0.0
C619 C 0.39221 0.49379 0.60968 0.0
H620 H 0.3902 0.51851 0.73047 0.0
H621 H 0.44364 0.46676 0.22497 0.0
H622 H 0.07036 0.33931 0.36771 0.0
H623 H 0.06383 0.36655 0.42556 0.0
H624 H 0.04945 0.39241 0.28984 0.0
H625 H 0.05586 0.36488 0.23112 0.0
H626 H 0.0746 0.4124 0.37899 0.0
H627 H 0.01607 0.38305 0.34555 0.0
H628 H 0.99536 0.35706 0.33795 0.0
H629 H 1.00567 0.35047 0.50062 0.0
H630 H 0.02667 0.37626 0.50893 0.0
H631 H 0.03724 0.484 0.55961 0.0
H632 H 0.04399 0.46209 0.48298 0.0
H633 H 0.03851 0.42006 0.58199 0.0
H634 H 0.03081 0.44171 0.65709 0.0
H635 H 0.02125 0.41049 0.49811 0.0
H636 H 0.08133 0.43638 0.53264 0.0
H637 H 0.10411 0.46069 0.54408 0.0
H638 H 0.09338 0.47239 0.38605 0.0
H639 H 0.07037 0.44828 0.37392 0.0
C640 C 0.06606 0.35084 0.34995 0.0
C641 C 0.06373 0.34998 0.29477 0.0
C642 C 0.06229 0.36638 0.38311 0.0
C643 C 0.05622 0.38148 0.36195 0.0
C644 C 0.05422 0.38089 0.30682 0.0
C645 C 0.05776 0.36517 0.27345 0.0
C646 C 0.05106 0.39736 0.39851 0.0
C647 C 0.06274 0.41223 0.40444 0.0
C648 C 0.03586 0.39687 0.43242 0.0
C649 C 0.02304 0.3815 0.42772 0.0
C650 C 0.01403 0.37597 0.37957 0.0
C651 C 1.00222 0.36129 0.37516 0.0
C652 C 0.99923 0.3521 0.41875 0.0
C653 C 0.00801 0.35759 0.46688 0.0
C654 C 0.01985 0.37225 0.47148 0.0
C655 C 0.03767 0.47008 0.56485 0.0
C656 C 0.03343 0.46453 0.61415 0.0
C657 C 0.04158 0.45755 0.52111 0.0
C658 C 0.04184 0.43931 0.52643 0.0
C659 C 0.03821 0.43396 0.57637 0.0
C660 C 0.03389 0.44637 0.61946 0.0
C661 C 0.04511 0.42554 0.48031 0.0
C662 C 0.03301 0.41097 0.47243 0.0
C663 C 0.06013 0.42623 0.44539 0.0
C664 C 0.07398 0.44068 0.45261 0.0
C665 C 0.08374 0.44423 0.50048 0.0
C666 C 0.09671 0.45795 0.50706 0.0
C667 C 0.10015 0.46812 0.46588 0.0
C668 C 0.09067 0.46454 0.41796 0.0
C669 C 0.07767 0.45084 0.4112 0.0
H670 H 0.1102 0.47874 0.47105 0.0
H671 H 0.99009 0.34073 0.41525 0.0
H672 H 0.8769 0.97486 0.20396 0.0
H673 H 0.90114 0.97666 0.13866 0.0
H674 H 0.87 0.01496 0.06543 0.0
H675 H 0.8455 0.01285 0.12946 0.0
H676 H 0.88283 0.99044 0.99173 0.0
H677 H 0.90856 0.02685 0.14153 0.0
H678 H 0.91884 0.03405 0.23411 0.0
H679 H 0.95718 0.99139 0.21318 0.0
H680 H 0.94695 0.98378 0.12062 0.0
H681 H 0.95196 0.01806 0.82327 0.0
H682 H 0.92894 0.01695 0.89226 0.0
H683 H 0.96093 0.97855 0.96252 0.0
H684 H 0.98418 0.97976 0.894 0.0
H685 H 0.94791 0.00276 0.0381 0.0
H686 H 0.9223 0.96632 0.88867 0.0
H687 H 0.91211 0.959 0.79604 0.0
H688 H 0.87352 0.00145 0.81645 0.0
H689 H 0.88366 0.00919 0.90904 0.0
C690 C 0.8752 0.98372 0.1741 0.0
C691 C 0.85917 0.99375 0.1724 0.0
C692 C 0.88918 0.98484 0.13689 0.0
C693 C 0.88755 0.99605 0.09704 0.0
C694 C 0.87167 0.00623 0.09567 0.0
C695 C 0.85772 0.00515 0.13287 0.0
C696 C 0.90202 0.99673 0.05571 0.0
C697 C 0.89701 0.99339 1.00199 0.0
C698 C 0.92067 1.00009 0.06869 0.0
C699 C 0.92686 0.00464 0.1243 0.0
C700 C 0.91908 0.01891 0.15679 0.0
C701 C 0.92492 0.02308 0.20925 0.0
C702 C 0.93862 0.01315 0.22956 0.0
C703 C 0.94655 0.99906 0.19742 0.0
C704 C 0.94075 0.99482 0.14494 0.0
C705 C 0.95414 0.00933 0.85329 0.0
C706 C 0.96998 0.99894 0.8527 0.0
C707 C 0.94088 0.00867 0.89274 0.0
C708 C 0.943 0.99751 0.93252 0.0
C709 C 0.95889 0.98726 0.93239 0.0
C710 C 0.97218 0.98792 0.89292 0.0
C711 C 0.92869 0.99657 0.97417 0.0
C712 C 0.93373 0.99982 0.0279 0.0
C713 C 0.91005 0.9931 0.96124 0.0
C714 C 0.90387 0.98844 0.90564 0.0
C715 C 0.91174 0.97418 0.87329 0.0
C716 C 0.90595 0.96994 0.82081 0.0
C717 C 0.8922 0.97978 0.80033 0.0
C718 C 0.88418 0.99386 0.83235 0.0
C719 C 0.88993 0.99817 0.88484 0.0
H720 H 0.88774 0.97648 0.7597 0.0
H721 H 0.94313 0.01641 0.27018 0.0
H722 H 0.53451 0.83831 0.06903 0.0
H723 H 0.52867 0.86455 0.02486 0.0
H724 H 0.58475 0.88138 0.04986 0.0
H725 H 0.59074 0.855 0.094 0.0
H726 H 0.5572 0.9095 0.06852 0.0
H727 H 0.57623 0.86224 0.93704 0.0
H728 H 0.57525 0.83182 0.89045 0.0
H729 H 0.51948 0.83887 0.84567 0.0
H730 H 0.52004 0.86926 0.89278 0.0
H731 H 0.55641 0.97198 0.88129 0.0
H732 H 0.56453 0.94804 0.93274 0.0
H733 H 0.51451 0.92033 0.88295 0.0
H734 H 0.50662 0.94389 0.83012 0.0
H735 H 0.54085 0.89783 0.87787 0.0
H736 H 0.52068 0.94417 0.00988 0.0
H737 H 0.52036 0.97432 0.0584 0.0
H738 H 0.57633 0.96907 0.10415 0.0
H739 H 0.57706 0.93896 0.0553 0.0
C740 C 0.5455 0.84779 0.06618 0.0
C741 C 0.56309 0.84463 0.08498 0.0
C742 C 0.54217 0.8627 0.04065 0.0
C743 C 0.55631 0.8748 0.03382 0.0
C744 C 0.57367 0.87217 0.05477 0.0
C745 C 0.57709 0.8571 0.07974 0.0
C746 C 0.55315 0.88952 1.00186 0.0
C747 C 0.55387 0.90703 0.02666 0.0
C748 C 0.54845 0.88618 0.94758 0.0
C749 C 0.54812 0.86796 0.9189 0.0
C750 C 0.56371 0.85725 0.91767 0.0
C751 C 0.56324 0.84002 0.89109 0.0
C752 C 0.5473 0.8334 0.86523 0.0
C753 C 0.53181 0.84401 0.86578 0.0
C754 C 0.5322 0.86124 0.89239 0.0
C755 C 0.54714 0.96078 0.8813 0.0
C756 C 0.53085 0.95986 0.85166 0.0
C757 C 0.55176 0.94713 0.91098 0.0
C758 C 0.54001 0.93246 0.91244 0.0
C759 C 0.52381 0.93149 0.88251 0.0
C760 C 0.51931 0.945 0.85233 0.0
C761 C 0.54459 0.91799 0.94453 0.0
C762 C 0.54421 0.90043 0.91969 0.0
C763 C 0.5494 0.92131 0.99891 0.0
C764 C 0.54898 0.93938 0.02848 0.0
C765 C 0.53296 0.94949 0.02996 0.0
C766 C 0.5327 0.96657 0.05757 0.0
C767 C 0.54833 0.97363 0.08421 0.0
C768 C 0.56424 0.9636 0.08343 0.0
C769 C 0.56458 0.94652 0.05582 0.0
H770 H 0.54809 0.98685 0.10557 0.0
H771 H 0.54697 0.82006 0.84466 0.0
H772 H 0.65534 0.52285 0.22081 0.0
H773 H 0.63088 0.52553 0.15574 0.0
H774 H 0.65159 0.47986 0.05747 0.0
H775 H 0.67577 0.47702 0.12218 0.0
H776 H 0.64399 0.50929 1.00164 0.0
H777 H 0.61541 0.47454 0.12701 0.0
H778 H 0.60528 0.46899 0.21597 0.0
H779 H 0.5723 0.51572 0.22819 0.0
H780 H 0.58244 0.52168 0.13953 0.0
H781 H 0.5737 0.48574 0.81496 0.0
H782 H 0.59729 0.48662 0.88328 0.0
H783 H 0.56504 0.52327 0.98679 0.0
H784 H 0.54105 0.52182 0.91931 0.0
H785 H 0.57851 0.50105 0.0429 0.0
H786 H 0.60495 0.53593 0.91914 0.0
H787 H 0.6151 0.54331 0.83201 0.0
H788 H 0.65222 0.49961 0.81865 0.0
H789 H 0.6421 0.49182 0.90542 0.0
C790 C 0.65461 0.51338 0.18537 0.0
C791 C 0.66737 0.49961 0.17694 0.0
C792 C 0.64063 0.5149 0.1483 0.0
C793 C 0.63937 0.50285 0.10175 0.0
C794 C 0.65226 0.48929 0.09304 0.0
C795 C 0.66599 0.4876 0.13032 0.0
C796 C 0.6247 0.50423 0.0618 0.0
C797 C 0.62967 0.50736 0.01045 0.0
C798 C 0.60598 0.50228 0.07374 0.0
C799 C 0.59985 0.49867 0.12693 0.0
C800 C 0.60613 0.48373 0.14887 0.0
C801 C 0.60036 0.48048 0.19919 0.0
C802 C 0.5882 0.49203 0.22779 0.0
C803 C 0.58175 0.50681 0.20604 0.0
C804 C 0.58749 0.51012 0.15575 0.0
C805 C 0.57166 0.49406 0.85215 0.0
C806 C 0.55549 0.50375 0.86149 0.0
C807 C 0.58524 0.49464 0.89124 0.0
C808 C 0.58322 0.50527 0.94023 0.0
C809 C 0.56704 0.51497 0.94953 0.0
C810 C 0.55332 0.51417 0.91075 0.0
C811 C 0.59774 0.50593 0.98204 0.0
C812 C 0.59278 0.50317 0.03386 0.0
C813 C 0.61647 0.50854 0.97075 0.0
C814 C 0.62264 0.5132 0.9186 0.0
C815 C 0.61518 0.52782 0.89746 0.0
C816 C 0.62095 0.53208 0.84816 0.0
C817 C 0.63427 0.52191 0.81976 0.0
C818 C 0.64189 0.50747 0.84067 0.0
C819 C 0.63616 0.50313 0.88994 0.0
H820 H 0.63871 0.52523 0.7816 0.0
H821 H 0.58374 0.48949 0.26673 0.0
H822 H 0.97849 0.63279 0.24874 0.0
H823 H 0.9827 0.60534 0.1887 0.0
H824 H 0.96094 0.63055 0.05948 0.0
H825 H 0.95688 0.6579 0.1186 0.0
H826 H 0.94834 0.59719 0.05485 0.0
H827 H 0.00695 0.62702 0.0785 0.0
H828 H 0.03315 0.64048 0.13031 0.0
H829 H 0.04347 0.59092 0.1893 0.0
H830 H 0.01715 0.57724 0.13838 0.0
H831 H 0.98565 0.55114 0.82283 0.0
H832 H 0.97726 0.57271 0.89772 0.0
H833 H 1.00011 0.53926 0.00583 0.0
H834 H 0.0087 0.51756 0.93084 0.0
H835 H 0.01107 0.57359 0.02979 0.0
H836 H 0.95441 0.54286 0.99603 0.0
H837 H 0.92865 0.52968 0.94178 0.0
H838 H 0.91482 0.58097 0.90002 0.0
H839 H 0.94067 0.59443 0.95338 0.0
C840 C 0.97452 0.63245 0.2076 0.0
C841 C 0.96732 0.64761 0.18868 0.0
C842 C 0.97692 0.61674 0.17332 0.0
C843 C 0.9723 0.61592 0.11939 0.0
C844 C 0.96452 0.63081 0.10092 0.0
C845 C 0.96212 0.64646 0.13502 0.0
C846 C 0.9763 0.59996 0.08124 0.0
C847 C 0.96207 0.59207 0.04922 0.0
C848 C 0.99413 0.59298 0.07468 0.0
C849 C 0.00996 0.60118 0.10519 0.0
C850 C 0.01472 0.61904 0.10288 0.0
C851 C 0.0296 0.6267 0.13202 0.0
C852 C 0.03993 0.61658 0.16322 0.0
C853 C 0.03543 0.59876 0.16522 0.0
C854 C 0.02053 0.59105 0.13623 0.0
C855 C 0.98881 0.54827 0.8625 0.0
C856 C 0.99784 0.53258 0.87077 0.0
C857 C 0.98392 0.5606 0.90536 0.0
C858 C 0.98787 0.55753 0.95749 0.0
C859 C 0.99686 0.54188 0.96597 0.0
C860 C 1.00171 0.52947 0.92305 0.0
C861 C 0.98318 0.57103 1.00272 0.0
C862 C 0.99728 0.57849 0.03599 0.0
C863 C 0.96524 0.57765 0.01029 0.0
C864 C 0.94957 0.56963 0.97844 0.0
C865 C 0.94595 0.55131 0.97498 0.0
C866 C 0.93132 0.54379 0.94443 0.0
C867 C 0.92012 0.55447 0.9174 0.0
C868 C 0.92351 0.57271 0.92097 0.0
C869 C 0.93814 0.5803 0.95142 0.0
H870 H 0.9088 0.54862 0.89375 0.0
H871 H 0.05146 0.62253 0.18573 0.0
H872 H 0.06345 0.21594 0.45082 0.0
H873 H 0.05414 0.19237 0.50321 0.0
H874 H 0.05755 0.15404 0.36372 0.0
H875 H 0.06671 0.17735 0.31143 0.0
H876 H 0.02431 0.17243 0.49279 0.0
H877 H 0.06902 0.11405 0.39479 0.0
H878 H 0.10022 0.10947 0.35979 0.0
H879 H 0.11865 0.15662 0.45642 0.0
H880 H 0.08765 0.16135 0.49266 0.0
H881 H 0.98204 0.08897 0.49794 0.0
H882 H 0.99732 0.11591 0.47574 0.0
H883 H 0.04255 0.10644 0.57735 0.0
H884 H 0.02744 0.07946 0.59908 0.0
H885 H 0.05482 0.11421 0.48673 0.0
H886 H 0.01273 0.13995 0.61394 0.0
H887 H 0.98288 0.14531 0.65737 0.0
H888 H 0.96195 0.16508 0.51834 0.0
H889 H 0.9916 0.15961 0.47376 0.0
C890 C 0.06236 0.20245 0.43152 0.0
C891 C 0.0659 0.19851 0.37702 0.0
C892 C 0.05709 0.18901 0.46148 0.0
C893 C 0.05534 0.17143 0.43749 0.0
C894 C 0.05921 0.16744 0.38337 0.0
C895 C 0.06449 0.18081 0.3535 0.0
C896 C 0.04817 0.15734 0.46752 0.0
C897 C 0.03105 0.15975 0.49191 0.0
C898 C 0.05719 0.14096 0.46751 0.0
C899 C 0.07594 0.13812 0.44615 0.0
C900 C 0.07974 0.1234 0.4088 0.0
C901 C 0.0974 0.12078 0.38869 0.0
C902 C 0.1114 0.13277 0.40576 0.0
C903 C 0.10778 0.14738 0.44308 0.0
C904 C 0.09016 0.15005 0.46336 0.0
C905 C 0.99516 0.09276 0.5158 0.0
C906 C 1.00364 0.08209 0.54978 0.0
C907 C 1.00385 0.10815 0.50331 0.0
C908 C 0.02101 0.11326 0.52528 0.0
C909 C 0.02934 0.10274 0.5599 0.0
C910 C 0.02073 0.08731 0.57209 0.0
C911 C 0.03064 0.12909 0.51002 0.0
C912 C 0.04821 0.12698 0.48834 0.0
C913 C 0.02224 0.14587 0.51373 0.0
C914 C 1.00437 0.14926 0.54038 0.0
C915 C 1.00173 0.14533 0.59248 0.0
C916 C 0.98485 0.1484 0.61733 0.0
C917 C 0.97052 0.1555 0.59059 0.0
C918 C 0.97306 0.15958 0.53899 0.0
C919 C 0.98991 0.15652 0.51394 0.0
H920 H 0.95746 0.15787 0.6099 0.0
H921 H 0.12505 0.13073 0.39012 0.0
H922 H 0.28507 0.02542 0.44105 0.0
H923 H 0.31123 0.01969 0.49416 0.0
H924 H 0.33539 0.06973 0.46674 0.0
H925 H 0.30868 0.07603 0.41443 0.0
H926 H 0.35567 0.04099 0.42815 0.0
H927 H 0.32687 0.06181 0.59146 0.0
H928 H 0.30238 0.06472 0.65822 0.0
H929 H 0.30548 0.00909 0.67226 0.0
H930 H 0.3298 0.00577 0.60498 0.0
H931 H 0.43777 0.02157 0.54919 0.0
H932 H 0.40938 0.03522 0.52805 0.0
H933 H 0.37954 0.98835 0.55893 0.0
H934 H 0.40812 0.9747 0.5825 0.0
H935 H 0.3627 0.01829 0.60175 0.0
H936 H 0.38774 0.99633 0.43277 0.0
H937 H 0.41148 0.99201 0.36388 0.0
H938 H 0.41413 0.04819 0.35762 0.0
H939 H 0.39056 0.05286 0.42703 0.0
C940 C 0.29541 0.03572 0.44819 0.0
C941 C 0.2948 0.05114 0.42263 0.0
C942 C 0.31048 0.03233 0.47867 0.0
C943 C 0.32526 0.04424 0.48414 0.0
C944 C 0.32408 0.06036 0.46275 0.0
C945 C 0.30887 0.06386 0.43257 0.0
C946 C 0.34294 0.03822 0.50308 0.0
C947 C 0.35737 0.03647 0.4667 0.0
C948 C 0.34479 0.0316 0.5524 0.0
C949 C 0.3301 0.03352 0.59282 0.0
C950 C 0.32223 0.05015 0.60841 0.0
C951 C 0.30839 0.05188 0.64644 0.0
C952 C 0.30236 0.03709 0.6694 0.0
C953 C 0.31016 0.02054 0.65443 0.0
C954 C 0.324 0.01873 0.61639 0.0
C955 C 0.42526 0.01407 0.55159 0.0
C956 C 0.4253 0.99695 0.56729 0.0
C957 C 0.409 0.02191 0.53923 0.0
C958 C 0.3924 0.01272 0.54135 0.0
C959 C 0.39227 0.99563 0.55692 0.0
C960 C 0.40861 0.98777 0.56968 0.0
C961 C 0.37529 0.02105 0.52669 0.0
C962 C 0.36102 0.02309 0.5636 0.0
C963 C 0.37341 0.02773 0.47748 0.0
C964 C 0.38752 0.02496 0.43548 0.0
C965 C 0.39348 0.00777 0.41699 0.0
C966 C 0.40689 0.00526 0.3778 0.0
C967 C 0.41434 0.01982 0.35649 0.0
C968 C 0.40836 0.03692 0.37422 0.0
C969 C 0.39497 0.03951 0.41345 0.0
H970 H 0.42472 0.01785 0.32615 0.0
H971 H 0.29165 0.03846 0.69885 0.0
H972 H 0.49767 0.29464 0.63615 0.0
H973 H 0.50495 0.32448 0.68012 0.0
H974 H 0.46068 0.34576 0.59645 0.0
H975 H 0.45334 0.3162 0.55246 0.0
H976 H 0.50025 0.35647 0.57672 0.0
H977 H 0.45494 0.35088 0.71582 0.0
H978 H 0.44219 0.33657 0.78988 0.0
H979 H 0.4933 0.3442 0.87304 0.0
H980 H 0.5063 0.35854 0.79962 0.0
H981 H 0.50307 0.44832 0.63787 0.0
H982 H 0.49545 0.41692 0.61934 0.0
H983 H 0.523 0.40704 0.7631 0.0
H984 H 0.52927 0.43888 0.78379 0.0
H985 H 0.49474 0.38874 0.75756 0.0
H986 H 0.54077 0.39475 0.62962 0.0
H987 H 0.55702 0.40752 0.55812 0.0
H988 H 0.51075 0.39625 0.45512 0.0
H989 H 0.49412 0.38363 0.5262 0.0
C990 C 0.48915 0.30562 0.62845 0.0
C991 C 0.47504 0.30313 0.59054 0.0
C992 C 0.49327 0.3226 0.65374 0.0
C993 C 0.48335 0.33721 0.64122 0.0
C994 C 0.46838 0.33456 0.60671 0.0
C995 C 0.46416 0.31763 0.58183 0.0
C996 C 0.49047 0.35535 0.65593 0.0
C997 C 0.49892 0.36367 0.61609 0.0
C998 C 0.48956 0.36419 0.70792 0.0
C999 C 0.48164 0.3556 0.752 0.0
C1000 C 0.46349 0.34937 0.74975 0.0
C1001 C 0.45619 0.34132 0.79173 0.0
C1002 C 0.46692 0.33944 0.83615 0.0
C1003 C 0.48496 0.34566 0.83874 0.0
C1004 C 0.49229 0.3538 0.79703 0.0
C1005 C 0.50779 0.43937 0.66492 0.0
C1006 C 0.51703 0.44587 0.71169 0.0
C1007 C 0.50349 0.42139 0.65429 0.0
C1008 C 0.50906 0.40941 0.68905 0.0
C1009 C 0.51861 0.41593 0.73549 0.0
C1010 C 0.52235 0.43406 0.74706 0.0
C1011 C 0.50417 0.39029 0.67774 0.0
C1012 C 0.49627 0.38165 0.71815 0.0
C1013 C 0.50615 0.38086 0.62647 0.0
C1014 C 0.51615 0.38835 0.58341 0.0
C1015 C 0.53402 0.39509 0.59182 0.0
C1016 C 0.5433 0.40229 0.55134 0.0
C1017 C 0.53491 0.40272 0.50214 0.0
C1018 C 0.51723 0.39591 0.49325 0.0
C1019 C 0.50788 0.38871 0.5336 0.0
H1020 H 0.54212 0.40831 0.47087 0.0
H1021 H 0.46123 0.33324 0.86865 0.0
H1022 H 0.20288 0.56745 0.37336 0.0
H1023 H 0.1833 0.57959 0.44596 0.0
H1024 H 0.2246 0.56896 0.55889 0.0
H1025 H 0.24431 0.55658 0.48564 0.0
H1026 H 0.19206 0.55457 0.57956 0.0
H1027 H 0.21249 0.6116 0.55396 0.0
H1028 H 0.22199 0.63616 0.50487 0.0
H1029 H 0.16795 0.63828 0.44036 0.0
H1030 H 0.15816 0.61356 0.48835 0.0
H1031 H 0.11117 0.57106 0.72759 0.0
H1032 H 0.1429 0.57809 0.70686 0.0
H1033 H 0.12652 0.58616 0.54854 0.0
H1034 H 0.09496 0.57941 0.56918 0.0
H1035 H 0.15408 0.60839 0.58277 0.0
H1036 H 0.13926 0.54464 0.58292 0.0
H1037 H 0.12968 0.51917 0.62827 0.0
H1038 H 0.17392 0.52968 0.73912 0.0
H1039 H 0.1836 0.55539 0.69477 0.0
C1040 C 0.20791 0.56801 0.41363 0.0
C1041 C 0.22499 0.56099 0.42408 0.0
C1042 C 0.19681 0.57512 0.4551 0.0
C1043 C 0.20258 0.57537 0.50787 0.0
C1044 C 0.21999 0.56903 0.51843 0.0
C1045 C 0.23121 0.56202 0.4767 0.0
C1046 C 0.18922 0.57995 0.55087 0.0
C1047 C 0.18414 0.56663 0.58174 0.0
C1048 C 0.17889 0.59566 0.55365 0.0
C1049 C 0.18459 0.61069 0.52491 0.0
C1050 C 0.20264 0.61724 0.52913 0.0
C1051 C 0.20808 0.6312 0.50149 0.0
C1052 C 0.19558 0.63878 0.46954 0.0
C1053 C 0.17761 0.63242 0.46522 0.0
C1054 C 0.17209 0.61846 0.49277 0.0
C1055 C 0.11435 0.57468 0.68873 0.0
C1056 C 0.10068 0.57446 0.64971 0.0
C1057 C 0.13244 0.57875 0.67704 0.0
C1058 C 0.1371 0.58235 0.62591 0.0
C1059 C 0.12323 0.58346 0.58832 0.0
C1060 C 0.10517 0.57957 0.60011 0.0
C1061 C 0.15636 0.58252 0.60832 0.0
C1062 C 0.16252 0.59673 0.58242 0.0
C1063 C 0.1677 0.5676 0.60992 0.0
C1064 C 0.162 0.55204 0.63603 0.0
C1065 C 0.14688 0.54156 0.61713 0.0
C1066 C 0.14143 0.52709 0.64265 0.0
C1067 C 0.15115 0.52285 0.68667 0.0
C1068 C 0.16638 0.53302 0.70513 0.0
C1069 C 0.17184 0.54754 0.67985 0.0
H1070 H 0.14691 0.51165 0.7064 0.0
H1071 H 0.19982 0.64958 0.44814 0.0
H1072 H 0.03063 0.77725 0.05812 0.0
H1073 H 0.03911 0.80165 0.00812 0.0
H1074 H 0.98468 0.82261 0.02861 0.0
H1075 H 0.97606 0.79806 0.07739 0.0
H1076 H 0.99832 0.82924 0.93554 0.0
H1077 H 0.01838 0.83557 0.11795 0.0
H1078 H 0.03454 0.82619 0.19485 0.0
H1079 H 0.08539 0.8265 0.11111 0.0
H1080 H 0.06946 0.83561 0.03335 0.0
H1081 H 0.00987 0.92164 0.95053 0.0
H1082 H 1.00445 0.89198 0.97538 0.0
H1083 H 0.05976 0.8776 0.9323 0.0
H1084 H 0.06527 0.90729 0.90689 0.0
H1085 H 0.04835 0.86576 0.02638 0.0
H1086 H 0.0261 0.86731 0.85038 0.0
H1087 H 0.00789 0.87982 0.78291 0.0
H1088 H 0.95844 0.86588 0.85896 0.0
H1089 H 0.97636 0.8544 0.92919 0.0
C1090 C 0.02038 0.78685 0.05071 0.0
C1091 C 1.00277 0.78594 0.07204 0.0
C1092 C 0.02523 0.80076 0.02224 0.0
C1093 C 0.01264 0.81415 0.01577 0.0
C1094 C 0.99462 0.81244 0.03326 0.0
C1095 C 0.9897 0.79841 0.06112 0.0
C1096 C 0.0187 0.83097 0.99711 0.0
C1097 C 0.00922 0.83727 0.95535 0.0
C1098 C 0.03307 0.84131 0.02275 0.0
C1099 C 0.04271 0.83606 0.06966 0.0
C1100 C 0.03299 0.83353 0.11584 0.0
C1101 C 0.04211 0.82827 0.15957 0.0
C1102 C 0.06097 0.8257 0.15781 0.0
C1103 C 0.07077 0.82845 0.11237 0.0
C1104 C 0.06171 0.83366 0.06845 0.0
C1105 C 0.0209 0.91217 0.94647 0.0
C1106 C 0.03793 0.91668 0.92618 0.0
C1107 C 0.01779 0.89527 0.96071 0.0
C1108 C 0.0316 0.88255 0.95461 0.0
C1109 C 0.04891 0.88725 0.93692 0.0
C1110 C 0.05205 0.9042 0.92266 0.0
C1111 C 0.02775 0.86422 0.96547 0.0
C1112 C 0.03766 0.85763 0.00581 0.0
C1113 C 0.0135 0.85384 0.93916 0.0
C1114 C 1.00265 0.86016 0.89566 0.0
C1115 C 0.01135 0.86714 0.85334 0.0
C1116 C 1.00106 0.87415 0.81469 0.0
C1117 C 0.982 0.87364 0.8166 0.0
C1118 C 0.97321 0.86628 0.85753 0.0
C1119 C 0.98344 0.85964 0.89706 0.0
H1120 H 0.97405 0.87889 0.78631 0.0
H1121 H 0.06801 0.82163 0.19171 0.0
H1122 H 0.69895 0.96018 0.04015 0.0
H1123 H 0.68418 0.97103 0.96473 0.0
H1124 H 0.73632 0.9892 0.91211 0.0
H1125 H 0.75114 0.97846 0.98845 0.0
H1126 H 0.7136 0.01562 0.92788 0.0
H1127 H 0.71022 0.96041 0.8243 0.0
H1128 H 0.70625 0.92807 0.80293 0.0
H1129 H 0.65032 0.93204 0.8529 0.0
H1130 H 0.65392 0.96439 0.87463 0.0
H1131 H 0.6187 0.02565 0.781 0.0
H1132 H 0.65047 0.01598 0.7765 0.0
H1133 H 0.65715 0.03504 0.94256 0.0
H1134 H 0.62561 0.045 0.94658 0.0
H1135 H 0.65983 0.99019 0.82572 0.0
H1136 H 0.69893 0.04081 0.98122 0.0
H1137 H 0.70336 0.07316 0.99921 0.0
H1138 H 0.68971 0.07865 0.83783 0.0
H1139 H 0.68547 0.04628 0.81852 0.0
C1140 C 0.70732 0.9659 0.0114 0.0
C1141 C 0.7261 0.96864 0.02018 0.0
C1142 C 0.69892 0.97199 0.96798 0.0
C1143 C 0.70915 0.98091 0.93255 0.0
C1144 C 0.72819 0.98229 0.93879 0.0
C1145 C 0.73664 0.97608 0.98222 0.0
C1146 C 0.69938 0.99161 0.89672 0.0
C1147 C 0.70205 0.01008 0.90452 0.0
C1148 C 0.68478 0.98435 0.86441 0.0
C1149 C 0.68236 0.96488 0.851 0.0
C1150 C 0.69708 0.95439 0.83082 0.0
C1151 C 0.69487 0.93605 0.81852 0.0
C1152 C 0.67802 0.92802 0.82636 0.0
C1153 C 0.66333 0.93831 0.84649 0.0
C1154 C 0.66543 0.95666 0.85859 0.0
C1155 C 0.62724 0.02838 0.81588 0.0
C1156 C 0.61975 0.03587 0.8643 0.0
C1157 C 0.64536 0.02285 0.81329 0.0
C1158 C 0.65622 0.0247 0.85915 0.0
C1159 C 0.64921 0.03374 0.90631 0.0
C1160 C 0.63112 0.0394 0.90876 0.0
C1161 C 0.67312 0.01422 0.86131 0.0
C1162 C 0.67179 0.99579 0.84705 0.0
C1163 C 0.68907 0.02154 0.88708 0.0
C1164 C 0.6919 0.04104 0.89838 0.0
C1165 C 0.69705 0.04886 0.94936 0.0
C1166 C 0.69947 0.06723 0.95985 0.0
C1167 C 0.69682 0.07795 0.91969 0.0
C1168 C 0.69174 0.07033 0.86893 0.0
C1169 C 0.6893 0.05197 0.85821 0.0
H1170 H 0.69868 0.09217 0.92792 0.0
H1171 H 0.67635 0.91381 0.81693 0.0
H1172 H 0.57218 0.67648 0.9005 0.0
H1173 H 0.55793 0.65065 0.8506 0.0
H1174 H 0.50583 0.67692 0.86118 0.0
H1175 H 0.51965 0.70215 0.91539 0.0
H1176 H 0.50037 0.64726 0.88706 0.0
H1177 H 0.52935 0.66508 0.73947 0.0
H1178 H 0.55296 0.67576 0.68185 0.0
H1179 H 0.58433 0.62891 0.69267 0.0
H1180 H 0.56111 0.61808 0.75124 0.0
H1181 H 0.50331 0.55611 0.69459 0.0
H1182 H 0.50391 0.58854 0.70754 0.0
H1183 H 0.50493 0.58757 0.87712 0.0
H1184 H 0.50299 0.55521 0.86376 0.0
H1185 H 0.52893 0.60814 0.74046 0.0
H1186 H 0.4931 0.62425 0.94746 0.0
H1187 H 0.46536 0.61505 0.99207 0.0
H1188 H 0.44071 0.59741 0.84125 0.0
H1189 H 0.46818 0.60674 0.79565 0.0
C1190 C 0.55769 0.67683 0.89223 0.0
C1191 C 0.54707 0.69135 0.91303 0.0
C1192 C 0.54958 0.66211 0.86265 0.0
C1193 C 0.53075 0.66177 0.85175 0.0
C1194 C 0.52035 0.67678 0.8692 0.0
C1195 C 0.52838 0.69135 0.89978 0.0
C1196 C 0.5217 0.64501 0.82828 0.0
C1197 C 0.50649 0.63881 0.8545 0.0
C1198 C 0.52911 0.6342 0.78435 0.0
C1199 C 0.5435 0.64084 0.7503 0.0
C1200 C 0.5414 0.65716 0.73024 0.0
C1201 C 0.55471 0.66323 0.69728 0.0
C1202 C 0.57019 0.65307 0.68385 0.0
C1203 C 0.57237 0.6368 0.70327 0.0
C1204 C 0.55911 0.63068 0.73632 0.0
C1205 C 0.50299 0.56295 0.73455 0.0
C1206 C 0.50292 0.55335 0.77829 0.0
C1207 C 0.50348 0.58145 0.74198 0.0
C1208 C 0.5044 0.59066 0.79332 0.0
C1209 C 0.50368 0.58094 0.83708 0.0
C1210 C 0.50265 0.56243 0.82958 0.0
C1211 C 0.5083 0.61007 0.80129 0.0
C1212 C 0.52254 0.61675 0.77215 0.0
C1213 C 0.49943 0.62163 0.84082 0.0
C1214 C 0.48278 0.61613 0.86812 0.0
C1215 C 0.48172 0.61853 0.92376 0.0
C1216 C 0.46605 0.61325 0.94924 0.0
C1217 C 0.4513 0.60562 0.91952 0.0
C1218 C 0.45217 0.60328 0.86424 0.0
C1219 C 0.4678 0.60854 0.83855 0.0
H1220 H 0.43918 0.60154 0.93933 0.0
H1221 H 0.58044 0.65775 0.65812 0.0
H1222 H 0.7987 0.41288 0.0851 0.0
H1223 H 0.82034 0.3997 0.01832 0.0
H1224 H 0.82503 0.44978 0.95553 0.0
H1225 H 0.80341 0.4629 0.0217 0.0
H1226 H 0.82886 0.42046 0.87713 0.0
H1227 H 0.85175 0.44284 0.05516 0.0
H1228 H 0.85231 0.443 0.15222 0.0
H1229 H 0.86531 0.3876 0.13286 0.0
H1230 H 0.86456 0.3871 0.03557 0.0
H1231 H 0.91516 0.4517 0.82669 0.0
H1232 H 0.88453 0.44308 0.85033 0.0
H1233 H 0.9053 0.39459 0.89869 0.0
H1234 H 0.93633 0.40369 0.87809 0.0
H1235 H 0.8862 0.41123 0.97386 0.0
H1236 H 0.87511 0.39434 0.79277 0.0
H1237 H 0.8752 0.39603 0.69667 0.0
H1238 H 0.84058 0.44157 0.71884 0.0
H1239 H 0.84063 0.44049 0.81524 0.0
C1240 C 0.80391 0.42085 0.05585 0.0
C1241 C 0.79972 0.43895 0.05892 0.0
C1242 C 0.81621 0.41333 0.01778 0.0
C1243 C 0.82439 0.42384 0.98246 0.0
C1244 C 0.81884 0.44144 0.98237 0.0
C1245 C 0.80666 0.44897 0.0205 0.0
C1246 C 0.84102 0.41795 0.95282 0.0
C1247 C 0.84144 0.41825 0.89781 0.0
C1248 C 0.85722 0.41454 0.97995 0.0
C1249 C 0.85786 0.41487 0.03828 0.0
C1250 C 0.85461 0.43068 0.07167 0.0
C1251 C 0.85497 0.43083 0.12667 0.0
C1252 C 0.85879 0.4153 0.1487 0.0
C1253 C 0.86231 0.3996 0.11574 0.0
C1254 C 0.8619 0.39937 0.06068 0.0
C1255 C 0.91326 0.43916 0.84216 0.0
C1256 C 0.92826 0.42854 0.85133 0.0
C1257 C 0.89564 0.43405 0.85459 0.0
C1258 C 0.89254 0.41804 0.87549 0.0
C1259 C 0.90736 0.40693 0.88213 0.0
C1260 C 0.92508 0.41213 0.87015 0.0
C1261 C 0.87439 0.41453 0.89793 0.0
C1262 C 0.87364 0.41257 0.95203 0.0
C1263 C 0.85797 0.41652 0.86974 0.0
C1264 C 0.85788 0.41731 0.81153 0.0
C1265 C 0.8676 0.40481 0.77731 0.0
C1266 C 0.86762 0.40564 0.72269 0.0
C1267 C 0.85784 0.41884 0.70164 0.0
C1268 C 0.84805 0.43128 0.73518 0.0
C1269 C 0.84807 0.43056 0.78986 0.0
H1270 H 0.8579 0.41949 0.65937 0.0
H1271 H 0.85907 0.41544 0.1913 0.0
H1272 H 0.03782 0.20613 0.911 0.0
H1273 H 0.03137 0.17699 0.86114 0.0
H1274 H 0.06937 0.15299 0.96022 0.0
H1275 H 0.07613 0.18194 0.00892 0.0
H1276 H 0.07317 0.13817 0.86415 0.0
H1277 H 0.0212 0.15249 0.97783 0.0
H1278 H 0.99517 0.17058 0.01318 0.0
H1279 H 0.97083 0.16568 0.85827 0.0
H1280 H 0.99684 0.14773 0.82187 0.0
H1281 H 0.04094 0.04932 0.85126 0.0
H1282 H 0.04831 0.08054 0.87937 0.0
H1283 H 0.01684 0.0957 0.74903 0.0
H1284 H 0.00955 0.06447 0.72013 0.0
H1285 H 0.00927 0.11579 0.84903 0.0
H1286 H 0.06033 0.09831 0.73866 0.0
H1287 H 0.08604 0.07927 0.7065 0.0
H1288 H 0.11191 0.08931 0.85905 0.0
H1289 H 0.0862 0.10821 0.89239 0.0
C1290 C 0.04487 0.19463 0.92178 0.0
C1291 C 0.05755 0.19639 0.96375 0.0
C1292 C 0.04113 0.17796 0.89342 0.0
C1293 C 0.04969 0.16266 0.90727 0.0
C1294 C 0.06263 0.16452 0.94844 0.0
C1295 C 0.06653 0.18115 0.97624 0.0
C1296 C 0.04496 0.1446 0.88038 0.0
C1297 C 0.05919 0.13329 0.86125 0.0
C1298 C 0.0267 0.13822 0.8752 0.0
C1299 C 0.01105 0.14896 0.89704 0.0
C1300 C 0.01035 0.15538 0.95125 0.0
C1301 C 0.9956 0.16559 0.97148 0.0
C1302 C 0.98138 0.16933 0.93796 0.0
C1303 C 0.98187 0.16281 0.88416 0.0
C1304 C 0.9966 0.15261 0.86372 0.0
C1305 C 0.03562 0.05927 0.82843 0.0
C1306 C 0.02466 0.05436 0.78344 0.0
C1307 C 0.03989 0.07711 0.84447 0.0
C1308 C 0.03317 0.09044 0.81618 0.0
C1309 C 0.02216 0.08563 0.77142 0.0
C1310 C 0.01807 0.06776 0.7549 0.0
C1311 C 0.03749 0.10938 0.83414 0.0
C1312 C 0.02321 0.1208 0.85148 0.0
C1313 C 0.05569 0.11581 0.83816 0.0
C1314 C 0.07126 0.10457 0.81815 0.0
C1315 C 0.07143 0.09635 0.76548 0.0
C1316 C 0.08602 0.0856 0.74702 0.0
C1317 C 0.10058 0.08305 0.78074 0.0
C1318 C 0.10061 0.09129 0.83298 0.0
C1319 C 0.08604 0.10204 0.85167 0.0
H1320 H 0.11186 0.07472 0.76638 0.0
H1321 H 0.96997 0.17723 0.9537 0.0
H1322 H 0.33291 0.99363 0.0758 0.0
H1323 H 0.36301 0.99286 0.03437 0.0
H1324 H 0.34095 0.01668 0.90299 0.0
H1325 H 0.3106 0.01708 0.94359 0.0
H1326 H 0.36524 0.99096 0.86838 0.0
H1327 H 0.36479 0.04153 1.00145 0.0
H1328 H 0.36048 0.05729 0.09118 0.0
H1329 H 0.40153 0.02515 0.15194 0.0
H1330 H 0.40591 0.00903 0.06265 0.0
H1331 H 0.45125 0.01313 0.76363 0.0
H1332 H 0.42038 0.01417 0.80014 0.0
H1333 H 0.44123 0.99872 0.94644 0.0
H1334 H 0.4723 0.99898 0.91115 0.0
H1335 H 0.41678 0.02071 0.97174 0.0
H1336 H 0.41664 0.96922 0.83947 0.0
H1337 H 0.42139 0.95373 0.74953 0.0
H1338 H 0.38191 0.98716 0.68723 0.0
H1339 H 0.37701 0.00293 0.7768 0.0
C1340 C 0.33431 0.99843 0.03763 0.0
C1341 C 0.31917 0.00546 0.0133 0.0
C1342 C 0.35166 0.99815 0.01416 0.0
C1343 C 0.35444 0.00496 0.96576 0.0
C1344 C 0.33927 0.01142 0.94042 0.0
C1345 C 0.3219 0.01176 0.96396 0.0
C1346 C 0.37323 0.00579 0.94255 0.0
C1347 C 0.37647 0.99762 0.89081 0.0
C1348 C 0.38808 0.01422 0.97179 0.0
C1349 C 0.38555 0.02397 0.02545 0.0
C1350 C 0.37281 0.03774 0.03401 0.0
C1351 C 0.37037 0.04675 0.08479 0.0
C1352 C 0.38069 0.04219 0.12726 0.0
C1353 C 0.39352 0.02865 0.11902 0.0
C1354 C 0.396 0.01958 0.06833 0.0
C1355 C 0.44925 0.01004 0.8037 0.0
C1356 C 0.46427 0.00594 0.83443 0.0
C1357 C 0.43149 0.01044 0.82449 0.0
C1358 C 0.42812 0.00601 0.87584 0.0
C1359 C 0.44323 0.00214 0.90673 0.0
C1360 C 0.46106 0.00227 0.8865 0.0
C1361 C 0.40902 0.00556 0.8977 0.0
C1362 C 0.40565 0.01391 0.94922 0.0
C1363 C 0.3941 0.99719 0.8683 0.0
C1364 C 0.39656 0.98733 0.81476 0.0
C1365 C 0.40898 0.97327 0.80657 0.0
C1366 C 0.41171 0.96445 0.75568 0.0
C1367 C 0.40198 0.96948 0.7127 0.0
C1368 C 0.38942 0.98328 0.72057 0.0
C1369 C 0.38664 0.99213 0.77141 0.0
H1370 H 0.40415 0.96266 0.67334 0.0
H1371 H 0.37878 0.04918 0.16654 0.0
H1372 H 0.467 0.27729 0.0864 0.0
H1373 H 0.4641 0.30181 0.03216 0.0
H1374 H 0.47408 0.33947 0.1706 0.0
H1375 H 0.47687 0.31522 0.22461 0.0
H1376 H 0.445 0.34888 0.11161 0.0
H1377 H 0.50801 0.33072 0.08314 0.0
H1378 H 0.53223 0.30909 0.05683 0.0
H1379 H 0.50832 0.29803 0.90182 0.0
H1380 H 0.48379 0.31939 0.92765 0.0
H1381 H 0.47319 0.42909 0.02628 0.0
H1382 H 0.47123 0.40111 0.06361 0.0
H1383 H 0.46295 0.37306 0.9074 0.0
H1384 H 0.46477 0.40115 0.86941 0.0
H1385 H 0.48793 0.35651 0.96526 0.0
H1386 H 0.42745 0.37854 0.99024 0.0
H1387 H 0.40385 0.40072 0.01722 0.0
H1388 H 0.42231 0.40428 0.17855 0.0
H1389 H 0.4462 0.38228 0.15243 0.0
C1390 C 0.46854 0.29081 0.10512 0.0
C1391 C 0.47235 0.29432 0.15965 0.0
C1392 C 0.46695 0.30479 0.07413 0.0
C1393 C 0.46896 0.32247 0.09733 0.0
C1394 C 0.47249 0.32595 0.15184 0.0
C1395 C 0.47424 0.31205 0.18257 0.0
C1396 C 0.46752 0.33753 0.0654 0.0
C1397 C 0.45439 0.35057 0.07964 0.0
C1398 C 0.47944 0.33949 0.02274 0.0
C1399 C 0.49406 0.32658 0.00733 0.0
C1400 C 0.50787 0.32358 0.04357 0.0
C1401 C 0.52165 0.31138 0.02875 0.0
C1402 C 0.52181 0.30218 0.97769 0.0
C1403 C 0.50819 0.30517 0.94135 0.0
C1404 C 0.49436 0.31733 0.95603 0.0
C1405 C 0.47068 0.41704 0.99976 0.0
C1406 C 0.46894 0.41747 0.94481 0.0
C1407 C 0.46963 0.401 0.02122 0.0
C1408 C 0.46674 0.38497 0.9884 0.0
C1409 C 0.46523 0.38525 0.93346 0.0
C1410 C 0.46628 0.40134 0.91184 0.0
C1411 C 0.46557 0.36802 0.01195 0.0
C1412 C 0.47822 0.35464 0.99628 0.0
C1413 C 0.45315 0.3657 0.05324 0.0
C1414 C 0.4387 0.37883 0.06928 0.0
C1415 C 0.42656 0.38413 0.03142 0.0
C1416 C 0.41311 0.39666 0.04657 0.0
C1417 C 0.4116 0.40392 0.09955 0.0
C1418 C 0.4235 0.39864 0.13752 0.0
C1419 C 0.43698 0.38612 0.12257 0.0
H1420 H 0.40119 0.41363 0.1112 0.0
H1421 H 0.53249 0.29274 0.96628 0.0
H1422 H 0.20844 0.47035 0.98098 0.0
H1423 H 0.17959 0.4707 0.93241 0.0
H1424 H 0.17844 0.52771 0.96501 0.0
H1425 H 0.20691 0.52743 0.01492 0.0
H1426 H 0.14625 0.51472 0.98478 0.0
H1427 H 0.18706 0.50677 0.83862 0.0
H1428 H 0.21201 0.49333 0.78291 0.0
H1429 H 0.18268 0.44376 0.76033 0.0
H1430 H 0.15763 0.45686 0.81646 0.0
H1431 H 0.07245 0.52662 0.80912 0.0
H1432 H 0.10321 0.527 0.84701 0.0
H1433 H 0.10174 0.47 0.83836 0.0
H1434 H 0.07087 0.46947 0.80078 0.0
H1435 H 0.13541 0.48374 0.80398 0.0
H1436 H 0.09438 0.49327 0.95314 0.0
H1437 H 0.06949 0.50847 0.00512 0.0
H1438 H 0.09995 0.55739 0.01814 0.0
H1439 H 0.12492 0.54252 0.96552 0.0
C1440 C 0.2021 0.48298 0.97771 0.0
C1441 C 0.21014 0.49886 1.00194 0.0
C1442 C 0.18563 0.48318 0.94944 0.0
C1443 C 0.17679 0.49925 0.94454 0.0
C1444 C 0.18493 0.51513 0.96801 0.0
C1445 C 0.20138 0.51494 0.99616 0.0
C1446 C 0.15865 0.49949 0.91735 0.0
C1447 C 0.14401 0.50815 0.94493 0.0
C1448 C 0.15549 0.49074 0.86557 0.0
C1449 C 0.17058 0.48274 0.83226 0.0
C1450 C 0.18601 0.49295 0.82221 0.0
C1451 C 0.20015 0.48541 0.79044 0.0
C1452 C 0.19896 0.46769 0.76824 0.0
C1453 C 0.1836 0.45748 0.77764 0.0
C1454 C 0.16942 0.46496 0.80938 0.0
C1455 C 0.07864 0.51413 0.81511 0.0
C1456 C 0.06905 0.49801 0.80221 0.0
C1457 C 0.09626 0.51438 0.83687 0.0
C1458 C 0.10477 0.49854 0.84594 0.0
C1459 C 0.09546 0.4824 0.83178 0.0
C1460 C 0.07775 0.48213 0.81051 0.0
C1461 C 0.12313 0.49885 0.87163 0.0
C1462 C 0.13775 0.49031 0.84378 0.0
C1463 C 0.12636 0.50791 0.92288 0.0
C1464 C 0.11144 0.51682 0.95494 0.0
C1465 C 0.09571 0.5073 0.96673 0.0
C1466 C 0.08159 0.51585 0.99637 0.0
C1467 C 0.08311 0.5339 0.0148 0.0
C1468 C 0.09878 0.54342 0.00377 0.0
C1469 C 0.11292 0.53493 0.97407 0.0
H1470 H 0.07217 0.54049 0.03773 0.0
H1471 H 0.20991 0.46187 0.74363 0.0
H1472 H 1.00319 0.8019 0.54417 0.0
H1473 H 1.00391 0.83192 0.59055 0.0
H1474 H 0.95102 0.84188 0.52597 0.0
H1475 H 0.95066 0.81214 0.47702 0.0
H1476 H 0.97334 0.86787 0.51192 0.0
H1477 H 0.95666 0.84097 0.66913 0.0
H1478 H 0.95916 0.819 0.73266 0.0
H1479 H 0.0157 0.83293 0.7589 0.0
H1480 H 0.01349 0.85501 0.69562 0.0
H1481 H 0.96855 0.95405 0.65632 0.0
H1482 H 0.96183 0.92293 0.6244 0.0
H1483 H 0.01456 0.90807 0.67954 0.0
H1484 H 0.02121 0.93895 0.71245 0.0
H1485 H 0.98986 0.88456 0.70073 0.0
H1486 H 0.00616 0.91242 0.54735 0.0
H1487 H 1.00389 0.9346 0.48459 0.0
H1488 H 0.94854 0.9182 0.44815 0.0
H1489 H 0.95041 0.89607 0.51128 0.0
C1490 C 0.99162 0.8104 0.54007 0.0
C1491 C 0.97692 0.80454 0.50645 0.0
C1492 C 0.99194 0.82755 0.56728 0.0
C1493 C 0.97743 0.83922 0.56233 0.0
C1494 C 0.96237 0.83316 0.53061 0.0
C1495 C 0.9621 0.81603 0.50304 0.0
C1496 C 0.97873 0.85811 0.58644 0.0
C1497 C 0.97654 0.87151 0.55353 0.0
C1498 C 0.98345 0.86296 0.64028 0.0
C1499 C 0.98491 0.8496 0.67778 0.0
C1500 C 0.96963 0.83929 0.68838 0.0
C1501 C 0.97099 0.82685 0.72439 0.0
C1502 C 0.98758 0.82457 0.74982 0.0
C1503 C 1.00287 0.83469 0.73915 0.0
C1504 C 1.00155 0.84721 0.70338 0.0
C1505 C 0.97869 0.94416 0.66186 0.0
C1506 C 0.9955 0.94909 0.68648 0.0
C1507 C 0.97485 0.92635 0.64338 0.0
C1508 C 0.9878 0.91313 0.64876 0.0
C1509 C 1.00436 0.91798 0.6747 0.0
C1510 C 0.00818 0.93573 0.69328 0.0
C1511 C 0.9844 0.89431 0.62632 0.0
C1512 C 0.98634 0.88092 0.6594 0.0
C1513 C 0.9795 0.88948 0.57254 0.0
C1514 C 0.97836 0.90273 0.53447 0.0
C1515 C 0.99346 0.91364 0.52625 0.0
C1516 C 0.99225 0.92619 0.49057 0.0
C1517 C 0.97606 0.92785 0.46252 0.0
C1518 C 0.96106 0.91692 0.46999 0.0
C1519 C 0.96219 0.90437 0.50569 0.0
H1520 H 0.97515 0.93757 0.4349 0.0
H1521 H 0.98859 0.81498 0.77779 0.0
H1522 H 0.68616 0.99177 0.41057 0.0
H1523 H 0.6586 0.99253 0.46427 0.0
H1524 H 0.69129 0.9896 0.60413 0.0
H1525 H 0.7191 0.98835 0.54976 0.0
H1526 H 0.66206 0.97062 0.61215 0.0
H1527 H 0.6718 0.02946 0.57568 0.0
H1528 H 0.67798 0.05389 0.52253 0.0
H1529 H 0.62813 0.0419 0.43573 0.0
H1530 H 0.62177 0.01722 0.48787 0.0
H1531 H 0.57564 0.02237 0.72832 0.0
H1532 H 0.60585 0.02123 0.68831 0.0
H1533 H 0.59662 0.96651 0.62611 0.0
H1534 H 0.56604 0.96756 0.66588 0.0
H1535 H 0.61594 0.01648 0.58935 0.0
H1536 H 0.63786 0.94486 0.62087 0.0
H1537 H 0.63388 0.92425 0.68789 0.0
H1538 H 0.62431 0.96813 0.80754 0.0
H1539 H 0.62838 0.98899 0.74145 0.0
C1540 C 0.68755 0.99141 0.45283 0.0
C1541 C 0.70493 0.99029 0.47589 0.0
C1542 C 0.67171 0.99185 0.48365 0.0
C1543 C 0.67272 0.99155 0.53876 0.0
C1544 C 0.69003 0.98995 0.56184 0.0
C1545 C 0.70596 0.98926 0.53073 0.0
C1546 C 0.65566 0.99311 0.57167 0.0
C1547 C 0.652 0.98065 0.607 0.0
C1548 C 0.64266 0.00656 0.56695 0.0
C1549 C 0.6464 0.02138 0.53539 0.0
C1550 C 0.66222 0.03195 0.54499 0.0
C1551 C 0.66575 0.04585 0.51509 0.0
C1552 C 0.65348 0.04942 0.4757 0.0
C1553 C 0.63763 0.0391 0.46622 0.0
C1554 C 0.63405 0.02516 0.49597 0.0
C1555 C 0.57994 0.01001 0.70627 0.0
C1556 C 0.56821 0.99506 0.70016 0.0
C1557 C 0.59733 0.00941 0.68335 0.0
C1558 C 0.60369 0.99378 0.6543 0.0
C1559 C 0.59217 0.9787 0.64876 0.0
C1560 C 0.57462 0.97934 0.67133 0.0
C1561 C 0.62203 0.99358 0.62812 0.0
C1562 C 0.62597 0.00639 0.59426 0.0
C1563 C 0.63555 0.98094 0.63599 0.0
C1564 C 0.63319 0.96845 0.67599 0.0
C1565 C 0.63494 0.9501 0.66149 0.0
C1566 C 0.63265 0.93838 0.69932 0.0
C1567 C 0.62872 0.94487 0.75183 0.0
C1568 C 0.62721 0.96311 0.76677 0.0
C1569 C 0.62947 0.97488 0.72912 0.0
H1570 H 0.62685 0.93575 0.78095 0.0
H1571 H 0.65623 0.06019 0.4526 0.0
H1572 H 0.59498 0.70887 0.38786 0.0
H1573 H 0.59238 0.68388 0.43981 0.0
H1574 H 0.53712 0.67416 0.38367 0.0
H1575 H 0.53955 0.69931 0.33259 0.0
H1576 H 0.53956 0.66777 0.48351 0.0
H1577 H 0.57368 0.6514 0.32373 0.0
H1578 H 0.59849 0.65409 0.25964 0.0
H1579 H 0.63834 0.64725 0.37933 0.0
H1580 H 0.61376 0.64477 0.44437 0.0
H1581 H 0.53017 0.57575 0.506 0.0
H1582 H 0.53272 0.60455 0.47285 0.0
H1583 H 0.58635 0.61227 0.54279 0.0
H1584 H 0.58389 0.58347 0.57613 0.0
H1585 H 0.58562 0.62066 0.44237 0.0
H1586 H 0.54916 0.63202 0.59824 0.0
H1587 H 0.52309 0.62736 0.65619 0.0
H1588 H 0.48601 0.64259 0.53946 0.0
H1589 H 0.51176 0.64663 0.4797 0.0
C1590 C 0.5822 0.70155 0.38726 0.0
C1591 C 0.56751 0.70598 0.35589 0.0
C1592 C 0.58073 0.68725 0.41684 0.0
C1593 C 0.56468 0.67689 0.4148 0.0
C1594 C 0.54966 0.68192 0.38585 0.0
C1595 C 0.55105 0.69633 0.35674 0.0
C1596 C 0.56392 0.66013 0.43958 0.0
C1597 C 0.54954 0.6574 0.47426 0.0
C1598 C 0.57711 0.64669 0.42813 0.0
C1599 C 0.5919 0.6481 0.38904 0.0
C1600 C 0.58774 0.6506 0.33647 0.0
C1601 C 0.60176 0.65207 0.29997 0.0
C1602 C 0.61998 0.6509 0.31545 0.0
C1603 C 0.62422 0.64819 0.36743 0.0
C1604 C 0.61026 0.64675 0.40413 0.0
C1605 C 0.54246 0.58363 0.51463 0.0
C1606 C 0.55682 0.57732 0.54374 0.0
C1607 C 0.5439 0.60008 0.49564 0.0
C1608 C 0.55965 0.61066 0.50585 0.0
C1609 C 0.57408 0.60433 0.53442 0.0
C1610 C 0.57268 0.58783 0.55326 0.0
C1611 C 0.56118 0.6282 0.48598 0.0
C1612 C 0.57572 0.63107 0.45214 0.0
C1613 C 0.54797 0.64162 0.49771 0.0
C1614 C 0.53246 0.63954 0.53423 0.0
C1615 C 0.53546 0.63428 0.58469 0.0
C1616 C 0.52073 0.63173 0.61791 0.0
C1617 C 0.50293 0.63476 0.60168 0.0
C1618 C 0.49981 0.64027 0.55204 0.0
C1619 C 0.51448 0.64263 0.51838 0.0
H1620 H 0.49156 0.63282 0.62754 0.0
H1621 H 0.63081 0.65203 0.28713 0.0
H1622 H 0.81817 0.52388 0.52177 0.0
H1623 H 0.84735 0.52434 0.56937 0.0
H1624 H 0.85632 0.46989 0.50539 0.0
H1625 H 0.82714 0.46928 0.45878 0.0
H1626 H 0.86754 0.47386 0.60206 0.0
H1627 H 0.87718 0.5063 0.4539 0.0
H1628 H 0.87137 0.52956 0.39647 0.0
H1629 H 0.88204 0.56979 0.52704 0.0
H1630 H 0.88768 0.54675 0.58544 0.0
H1631 H 0.97131 0.50203 0.6023 0.0
H1632 H 0.94057 0.50143 0.56491 0.0
H1633 H 0.91807 0.49344 0.71702 0.0
H1634 H 0.94894 0.49313 0.7539 0.0
H1635 H 0.91314 0.52091 0.57841 0.0
H1636 H 0.87733 0.47313 0.70564 0.0
H1637 H 0.88467 0.4477 0.75313 0.0
H1638 H 0.929 0.43388 0.64633 0.0
H1639 H 0.92195 0.45928 0.59816 0.0
C1640 C 0.82634 0.512 0.51802 0.0
C1641 C 0.82023 0.49654 0.48642 0.0
C1642 C 0.84308 0.51227 0.5452 0.0
C1643 C 0.8543 0.49722 0.5406 0.0
C1644 C 0.848 0.48168 0.50997 0.0
C1645 C 0.83122 0.48134 0.48332 0.0
C1646 C 0.87278 0.49766 0.56619 0.0
C1647 C 0.87747 0.4842 0.59697 0.0
C1648 C 0.886 0.51093 0.55915 0.0
C1649 C 0.88265 0.52481 0.52415 0.0
C1650 C 0.87815 0.52011 0.47044 0.0
C1651 C 0.87491 0.53325 0.43771 0.0
C1652 C 0.87629 0.55114 0.45813 0.0
C1653 C 0.88095 0.55593 0.5113 0.0
C1654 C 0.88418 0.54283 0.54423 0.0
C1655 C 0.95983 0.50005 0.6278 0.0
C1656 C 0.96264 0.49755 0.68109 0.0
C1657 C 0.94218 0.49977 0.60636 0.0
C1658 C 0.9268 0.49719 0.6377 0.0
C1659 C 0.92959 0.495 0.69133 0.0
C1660 C 0.9473 0.49494 0.71256 0.0
C1661 C 0.90799 0.49703 0.61409 0.0
C1662 C 0.9032 0.5106 0.5838 0.0
C1663 C 0.89489 0.48356 0.62024 0.0
C1664 C 0.89919 0.46818 0.64862 0.0
C1665 C 0.88861 0.46464 0.69222 0.0
C1666 C 0.89274 0.45024 0.71929 0.0
C1667 C 0.90726 0.43914 0.70274 0.0
C1668 C 0.91776 0.44249 0.65916 0.0
C1669 C 0.91375 0.45692 0.63205 0.0
H1670 H 0.91037 0.42795 0.72363 0.0
H1671 H 0.87378 0.56129 0.43272 0.0
loop_
_geom_bond_atom_site_label_1
_geom_bond_atom_site_label_2
_geom_bond_distance
_geom_bond_site_symmetry_2
_ccdc_geom_bond_type
C0 C1 1.386 . S
C0 C2 1.397 . S
C0 H24 0.931 . S
C1 C0 1.386 . S
C1 C5 1.397 . S
C2 C0 1.397 . S
C2 C3 1.384 . S
C2 H25 0.930 . S
C3 C2 1.384 . S
C3 C4 1.377 . S
C3 C6 1.481 . S
C4 C3 1.377 . S
C4 C5 1.389 . S
C4 H26 0.929 . S
C5 C1 1.397 . S
C5 C4 1.389 . S
C5 H27 0.931 . S
C6 C3 1.481 . S
C6 C7 1.387 . S
C6 C11 1.390 . S
C7 C6 1.387 . S
C7 C8 1.401 . S
C7 H28 0.930 . S
C8 C7 1.401 . S
C8 C9 1.376 . S
C8 C17 1.511 . S
C9 C8 1.376 . S
C9 C10 1.392 . S
C9 H30 0.931 . S
C10 C9 1.392 . S
C10 C11 1.361 . S
C10 C12 1.500 . S
C11 C6 1.390 . S
C11 C10 1.361 . S
C11 H29 0.931 . S
C12 C10 1.500 . S
C12 C13 1.371 . S
C12 C14 1.365 . S
C13 C12 1.371 . S
C13 C23 1.386 . S
C13 H31 0.931 . S
C14 C12 1.365 . S
C14 C15 1.409 . S
C14 H32 0.929 . S
C15 C14 1.409 . S
C15 C16 1.380 . S
C15 H33 0.930 . S
C16 C15 1.380 . S
C16 C23 1.357 . S
C17 C8 1.511 . S
C17 C18 1.341 . S
C17 C19 1.371 . S
C18 C17 1.341 . S
C18 C22 1.394 . S
C18 H34 0.930 . S
C19 C17 1.371 . S
C19 C20 1.392 . S
C19 H35 0.931 . S
C20 C19 1.392 . S
C20 C21 1.331 . S
C20 H38 0.932 . S
C21 C20 1.331 . S
C21 C22 1.336 . S
C22 C18 1.394 . S
C22 C21 1.336 . S
C22 H37 0.929 . S
C23 C13 1.386 . S
C23 C16 1.357 . S
C23 H36 0.928 . S
H24 C0 0.931 . S
H25 C2 0.930 . S
H26 C4 0.929 . S
H27 C5 0.931 . S
H28 C7 0.930 . S
H29 C11 0.931 . S
H30 C9 0.931 . S
H31 C13 0.931 . S
H32 C14 0.929 . S
H33 C15 0.930 . S
H34 C18 0.930 . S
H35 C19 0.931 . S
H36 C23 0.928 . S
H37 C22 0.929 . S
H38 C20 0.932 . S
C39 C40 1.386 . S
C39 C41 1.397 . S
C39 H63 0.931 . S
C40 C39 1.386 . S
C40 C44 1.397 . S
C41 C39 1.397 . S
C41 C42 1.384 . S
C41 H64 0.930 . S
C42 C41 1.384 . S
C42 C43 1.377 . S
C42 C45 1.481 . S
C43 C42 1.377 . S
C43 C44 1.389 . S
C43 H65 0.929 . S
C44 C40 1.397 . S
C44 C43 1.389 . S
C44 H66 0.931 . S
C45 C42 1.481 . S
C45 C46 1.387 . S
C45 C50 1.390 . S
C46 C45 1.387 . S
C46 C47 1.401 . S
C46 H67 0.930 . S
C47 C46 1.401 . S
C47 C48 1.376 . S
C47 C56 1.511 . S
C48 C47 1.376 . S
C48 C49 1.392 . S
C48 H69 0.931 . S
C49 C48 1.392 . S
C49 C50 1.361 . S
C49 C51 1.500 . S
C50 C45 1.390 . S
C50 C49 1.361 . S
C50 H68 0.931 . S
C51 C49 1.500 . S
C51 C52 1.371 . S
C51 C53 1.365 . S
C52 C51 1.371 . S
C52 C62 1.386 . S
C52 H70 0.931 . S
C53 C51 1.365 . S
C53 C54 1.409 . S
C53 H71 0.929 . S
C54 C53 1.409 . S
C54 C55 1.380 . S
C54 H72 0.930 . S
C55 C54 1.380 . S
C55 C62 1.357 . S
C56 C47 1.511 . S
C56 C57 1.341 . S
C56 C58 1.371 . S
C57 C56 1.341 . S
C57 C61 1.394 . S
C57 H73 0.930 . S
C58 C56 1.371 . S
C58 C59 1.392 . S
C58 H74 0.931 . S
C59 C58 1.392 . S
C59 C60 1.331 . S
C59 H77 0.932 . S
C60 C59 1.331 . S
C60 C61 1.336 . S
C61 C57 1.394 . S
C61 C60 1.336 . S
C61 H76 0.929 . S
C62 C52 1.386 . S
C62 C55 1.357 . S
C62 H75 0.928 . S
H63 C39 0.931 . S
H64 C41 0.930 . S
H65 C43 0.929 . S
H66 C44 0.931 . S
H67 C46 0.930 . S
H68 C50 0.931 . S
H69 C48 0.931 . S
H70 C52 0.931 . S
H71 C53 0.929 . S
H72 C54 0.930 . S
H73 C57 0.930 . S
H74 C58 0.931 . S
H75 C62 0.928 . S
H76 C61 0.929 . S
H77 C59 0.932 . S
C78 C79 1.394 . S
C78 C80 1.397 . S
C78 H102 0.931 . S
C79 C78 1.394 . S
C79 C83 1.390 1_565 S
C80 C78 1.397 . S
C80 C81 1.388 . S
C80 H103 0.930 . S
C81 C80 1.388 . S
C81 C82 1.373 1_565 S
C81 C84 1.478 . S
C82 C81 1.373 1_545 S
C82 C83 1.389 . S
C82 H104 0.929 . S
C83 C79 1.390 1_545 S
C83 C82 1.389 . S
C83 H105 0.931 . S
C84 C81 1.478 . S
C84 C85 1.388 . S
C84 C89 1.393 . S
C85 C84 1.388 . S
C85 C86 1.399 . S
C85 H106 0.930 . S
C86 C85 1.399 . S
C86 C87 1.375 . S
C86 C95 1.512 . S
C87 C86 1.375 . S
C87 C88 1.392 . S
C87 H108 0.939 . S
C88 C87 1.392 . S
C88 C89 1.362 . S
C88 C90 1.502 1_565 S
C89 C84 1.393 . S
C89 C88 1.362 . S
C89 H107 0.931 . S
C90 C88 1.502 1_545 S
C90 C91 1.362 1_545 S
C90 C92 1.373 . S
C91 C90 1.362 1_565 S
C91 C101 1.386 . S
C91 H109 0.931 . S
C92 C90 1.373 . S
C92 C93 1.409 . S
C92 H110 0.929 . S
C93 C92 1.409 . S
C93 C94 1.377 . S
C93 H111 0.930 . S
C94 C93 1.377 . S
C94 C101 1.360 1_545 S
C95 C86 1.512 . S
C95 C96 1.341 . S
C95 C97 1.371 1_565 S
C96 C95 1.341 . S
C96 C100 1.394 . S
C96 H112 0.930 . S
C97 C95 1.371 1_545 S
C97 C98 1.392 . S
C97 H113 0.931 . S
C98 C97 1.392 . S
C98 C99 1.326 1_545 S
C98 H116 0.932 . S
C99 C98 1.326 1_565 S
C99 C100 1.343 . S
C100 C96 1.394 . S
C100 C99 1.343 . S
C100 H115 0.929 . S
C101 C91 1.386 . S
C101 C94 1.360 1_565 S
C101 H114 0.928 . S
H102 C78 0.931 . S
H103 C80 0.930 . S
H104 C82 0.929 . S
H105 C83 0.931 . S
H106 C85 0.930 . S
H107 C89 0.931 . S
H108 C87 0.939 . S
H109 C91 0.931 . S
H110 C92 0.929 . S
H111 C93 0.930 . S
H112 C96 0.930 . S
H113 C97 0.931 . S
H114 C101 0.928 . S
H115 C100 0.929 . S
H116 C98 0.932 . S
C117 C118 1.386 . S
C117 C119 1.397 . S
C117 H141 0.931 . S
C118 C117 1.386 . S
C118 C122 1.397 . S
C119 C117 1.397 . S
C119 C120 1.384 . S
C119 H142 0.930 . S
C120 C119 1.384 . S
C120 C121 1.377 . S
C120 C123 1.481 . S
C121 C120 1.377 . S
C121 C122 1.389 . S
C121 H143 0.929 . S
C122 C118 1.397 . S
C122 C121 1.389 . S
C122 H144 0.931 . S
C123 C120 1.481 . S
C123 C124 1.387 . S
C123 C128 1.390 . S
C124 C123 1.387 . S
C124 C125 1.401 1_554 S
C124 H145 0.930 . S
C125 C124 1.401 1_556 S
C125 C126 1.376 . S
C125 C134 1.511 . S
C126 C125 1.376 . S
C126 C127 1.392 . S
C126 H147 0.931 . S
C127 C126 1.392 . S
C127 C128 1.361 1_556 S
C127 C129 1.500 . S
C128 C123 1.390 . S
C128 C127 1.361 1_554 S
C128 H146 0.931 . S
C129 C127 1.500 . S
C129 C130 1.371 . S
C129 C131 1.365 . S
C130 C129 1.371 . S
C130 C140 1.386 . S
C130 H148 0.931 . S
C131 C129 1.365 . S
C131 C132 1.409 . S
C131 H149 0.929 . S
C132 C131 1.409 . S
C132 C133 1.380 . S
C132 H150 0.930 . S
C133 C132 1.380 . S
C133 C140 1.357 . S
C134 C125 1.511 . S
C134 C135 1.341 1_556 S
C134 C136 1.371 . S
C135 C134 1.341 1_554 S
C135 C139 1.394 . S
C135 H151 0.930 . S
C136 C134 1.371 . S
C136 C137 1.392 . S
C136 H152 0.931 . S
C137 C136 1.392 . S
C137 C138 1.331 . S
C137 H155 0.932 . S
C138 C137 1.331 . S
C138 C139 1.336 1_556 S
C139 C135 1.394 . S
C139 C138 1.336 1_554 S
C139 H154 0.929 . S
C140 C130 1.386 . S
C140 C133 1.357 . S
C140 H153 0.928 . S
H141 C117 0.931 . S
H142 C119 0.930 . S
H143 C121 0.929 . S
H144 C122 0.931 . S
H145 C124 0.930 . S
H146 C128 0.931 . S
H147 C126 0.931 . S
H148 C130 0.931 . S
H149 C131 0.929 . S
H150 C132 0.930 . S
H151 C135 0.930 . S
H152 C136 0.931 . S
H153 C140 0.928 . S
H154 C139 0.929 . S
H155 C137 0.932 . S
C156 C157 1.386 . S
C156 C158 1.397 . S
C156 H180 0.931 . S
C157 C156 1.386 . S
C157 C161 1.397 . S
C158 C156 1.397 . S
C158 C159 1.384 . S
C158 H181 0.930 . S
C159 C158 1.384 . S
C159 C160 1.377 . S
C159 C162 1.481 . S
C160 C159 1.377 . S
C160 C161 1.389 . S
C160 H182 0.929 . S
C161 C157 1.397 . S
C161 C160 1.389 . S
C161 H183 0.931 . S
C162 C159 1.481 . S
C162 C163 1.387 . S
C162 C167 1.390 . S
C163 C162 1.387 . S
C163 C164 1.401 . S
C163 H184 0.930 . S
C164 C163 1.401 . S
C164 C165 1.376 . S
C164 C173 1.511 . S
C165 C164 1.376 . S
C165 C166 1.392 . S
C165 H186 0.931 . S
C166 C165 1.392 . S
C166 C167 1.361 . S
C166 C168 1.500 . S
C167 C162 1.390 . S
C167 C166 1.361 . S
C167 H185 0.931 . S
C168 C166 1.500 . S
C168 C169 1.371 . S
C168 C170 1.365 . S
C169 C168 1.371 . S
C169 C179 1.386 1_554 S
C169 H187 0.931 . S
C170 C168 1.365 . S
C170 C171 1.409 1_554 S
C170 H188 0.929 . S
C171 C170 1.409 1_556 S
C171 C172 1.380 . S
C171 H189 0.930 . S
C172 C171 1.380 . S
C172 C179 1.357 . S
C173 C164 1.511 . S
C173 C174 1.341 . S
C173 C175 1.371 . S
C174 C173 1.341 . S
C174 C178 1.394 . S
C174 H190 0.930 . S
C175 C173 1.371 . S
C175 C176 1.392 . S
C175 H191 0.931 . S
C176 C175 1.392 . S
C176 C177 1.331 . S
C176 H194 0.932 . S
C177 C176 1.331 . S
C177 C178 1.336 . S
C178 C174 1.394 . S
C178 C177 1.336 . S
C178 H193 0.929 . S
C179 C169 1.386 1_556 S
C179 C172 1.357 . S
C179 H192 0.928 . S
H180 C156 0.931 . S
H181 C158 0.930 . S
H182 C160 0.929 . S
H183 C161 0.931 . S
H184 C163 0.930 . S
H185 C167 0.931 . S
H186 C165 0.931 . S
H187 C169 0.931 . S
H188 C170 0.929 . S
H189 C171 0.930 . S
H190 C174 0.930 . S
H191 C175 0.931 . S
H192 C179 0.928 . S
H193 C178 0.929 . S
H194 C176 0.932 . S
C195 C196 1.386 . S
C195 C197 1.397 . S
C195 H219 0.931 . S
C196 C195 1.386 . S
C196 C200 1.397 . S
C197 C195 1.397 . S
C197 C198 1.384 . S
C197 H220 0.930 . S
C198 C197 1.384 . S
C198 C199 1.377 . S
C198 C201 1.481 . S
C199 C198 1.377 . S
C199 C200 1.389 . S
C199 H221 0.929 . S
C200 C196 1.397 . S
C200 C199 1.389 . S
C200 H222 0.931 . S
C201 C198 1.481 . S
C201 C202 1.387 . S
C201 C206 1.390 . S
C202 C201 1.387 . S
C202 C203 1.401 . S
C202 H223 0.930 . S
C203 C202 1.401 . S
C203 C204 1.376 . S
C203 C212 1.511 . S
C204 C203 1.376 . S
C204 C205 1.392 . S
C204 H225 0.931 . S
C205 C204 1.392 . S
C205 C206 1.361 . S
C205 C207 1.500 . S
C206 C201 1.390 . S
C206 C205 1.361 . S
C206 H224 0.931 . S
C207 C205 1.500 . S
C207 C208 1.371 . S
C207 C209 1.365 . S
C208 C207 1.371 . S
C208 C218 1.386 . S
C208 H226 0.931 . S
C209 C207 1.365 . S
C209 C210 1.409 . S
C209 H227 0.929 . S
C210 C209 1.409 . S
C210 C211 1.380 . S
C210 H228 0.930 . S
C211 C210 1.380 . S
C211 C218 1.357 . S
C212 C203 1.511 . S
C212 C213 1.341 . S
C212 C214 1.371 . S
C213 C212 1.341 . S
C213 C217 1.394 . S
C213 H229 0.930 . S
C214 C212 1.371 . S
C214 C215 1.392 . S
C214 H230 0.931 . S
C215 C214 1.392 . S
C215 C216 1.331 . S
C215 H233 0.932 . S
C216 C215 1.331 . S
C216 C217 1.336 . S
C217 C213 1.394 . S
C217 C216 1.336 . S
C217 H232 0.929 . S
C218 C208 1.386 . S
C218 C211 1.357 . S
C218 H231 0.928 1_554 S
H219 C195 0.931 . S
H220 C197 0.930 . S
H221 C199 0.929 . S
H222 C200 0.931 . S
H223 C202 0.930 . S
H224 C206 0.931 . S
H225 C204 0.931 . S
H226 C208 0.931 . S
H227 C209 0.929 . S
H228 C210 0.930 . S
H229 C213 0.930 . S
H230 C214 0.931 . S
H231 C218 0.928 1_556 S
H232 C217 0.929 . S
H233 C215 0.932 . S
C234 C235 1.386 . S
C234 C236 1.397 . S
C234 H258 0.931 . S
C235 C234 1.386 . S
C235 C239 1.398 1_565 S
C236 C234 1.397 . S
C236 C237 1.389 1_565 S
C236 H259 0.930 . S
C237 C236 1.389 1_545 S
C237 C238 1.373 . S
C237 C240 1.482 1_545 S
C238 C237 1.373 . S
C238 C239 1.389 . S
C238 H260 0.929 . S
C239 C235 1.398 1_545 S
C239 C238 1.389 . S
C239 H261 0.931 . S
C240 C237 1.482 1_565 S
C240 C241 1.386 . S
C240 C245 1.388 . S
C241 C240 1.386 . S
C241 C242 1.396 . S
C241 H262 0.942 . S
C242 C241 1.396 . S
C242 C243 1.378 . S
C242 C251 1.512 . S
C243 C242 1.378 . S
C243 C244 1.391 1_565 S
C243 H264 0.930 . S
C244 C243 1.391 1_545 S
C244 C245 1.362 1_545 S
C244 C246 1.495 . S
C245 C240 1.388 . S
C245 C244 1.362 1_565 S
C245 H263 0.931 1_565 S
C246 C244 1.495 . S
C246 C247 1.360 1_545 S
C246 C248 1.381 . S
C247 C246 1.360 1_565 S
C247 C257 1.386 1_554 S
C247 H265 0.931 . S
C248 C246 1.381 . S
C248 C249 1.409 1_554 S
C248 H266 0.929 . S
C249 C248 1.409 1_556 S
C249 C250 1.384 . S
C249 H267 0.930 . S
C250 C249 1.384 . S
C250 C257 1.353 1_545 S
C251 C242 1.512 . S
C251 C252 1.341 . S
C251 C253 1.371 1_565 S
C252 C251 1.341 . S
C252 C256 1.394 . S
C252 H268 0.930 . S
C253 C251 1.371 1_545 S
C253 C254 1.392 . S
C253 H269 0.931 . S
C254 C253 1.392 . S
C254 C255 1.325 1_545 S
C254 H272 0.932 . S
C255 C254 1.325 1_565 S
C255 C256 1.342 . S
C256 C252 1.394 . S
C256 C255 1.342 . S
C256 H271 0.929 . S
C257 C247 1.386 1_556 S
C257 C250 1.353 1_565 S
C257 H270 0.928 . S
H258 C234 0.931 . S
H259 C236 0.930 . S
H260 C238 0.929 . S
H261 C239 0.931 . S
H262 C241 0.942 . S
H263 C245 0.931 1_545 S
H264 C243 0.930 . S
H265 C247 0.931 . S
H266 C248 0.929 . S
H267 C249 0.930 . S
H268 C252 0.930 . S
H269 C253 0.931 . S
H270 C257 0.928 . S
H271 C256 0.929 . S
H272 C254 0.932 . S
C273 C274 1.386 . S
C273 C275 1.397 . S
C273 H297 0.931 . S
C274 C273 1.386 . S
C274 C278 1.397 . S
C275 C273 1.397 . S
C275 C276 1.384 . S
C275 H298 0.930 . S
C276 C275 1.384 . S
C276 C277 1.377 . S
C276 C279 1.481 . S
C277 C276 1.377 . S
C277 C278 1.389 . S
C277 H299 0.929 . S
C278 C274 1.397 . S
C278 C277 1.389 . S
C278 H300 0.931 . S
C279 C276 1.481 . S
C279 C280 1.387 . S
C279 C284 1.390 . S
C280 C279 1.387 . S
C280 C281 1.401 . S
C280 H301 0.930 . S
C281 C280 1.401 . S
C281 C282 1.376 . S
C281 C290 1.511 . S
C282 C281 1.376 . S
C282 C283 1.392 . S
C282 H303 0.931 . S
C283 C282 1.392 . S
C283 C284 1.361 . S
C283 C285 1.500 . S
C284 C279 1.390 . S
C284 C283 1.361 . S
C284 H302 0.931 . S
C285 C283 1.500 . S
C285 C286 1.371 . S
C285 C287 1.365 . S
C286 C285 1.371 . S
C286 C296 1.386 . S
C286 H304 0.931 . S
C287 C285 1.365 . S
C287 C288 1.409 . S
C287 H305 0.929 . S
C288 C287 1.409 . S
C288 C289 1.380 . S
C288 H306 0.930 . S
C289 C288 1.380 . S
C289 C296 1.357 . S
C290 C281 1.511 . S
C290 C291 1.341 . S
C290 C292 1.371 . S
C291 C290 1.341 . S
C291 C295 1.394 . S
C291 H307 0.930 . S
C292 C290 1.371 . S
C292 C293 1.392 . S
C292 H308 0.931 . S
C293 C292 1.392 . S
C293 C294 1.331 . S
C293 H311 0.932 . S
C294 C293 1.331 . S
C294 C295 1.336 . S
C295 C291 1.394 . S
C295 C294 1.336 . S
C295 H310 0.929 . S
C296 C286 1.386 . S
C296 C289 1.357 . S
C296 H309 0.928 . S
H297 C273 0.931 . S
H298 C275 0.930 . S
H299 C277 0.929 . S
H300 C278 0.931 . S
H301 C280 0.930 . S
H302 C284 0.931 . S
H303 C282 0.931 . S
H304 C286 0.931 . S
H305 C287 0.929 . S
H306 C288 0.930 . S
H307 C291 0.930 . S
H308 C292 0.931 . S
H309 C296 0.928 . S
H310 C295 0.929 . S
H311 C293 0.932 . S
Tb312 C321 2.764 1_655 S
Tb312 O322 2.325 1_655 S
Tb312 O325 2.303 1_655 S
Tb312 O329 2.322 1_545 S
Tb312 O330 2.349 . S
Tb312 O333 2.415 1_655 S
Tb312 O334 2.399 . S
Tb313 O323 2.322 1_565 S
Tb313 O324 2.349 . S
Tb313 O326 2.415 . S
Tb313 O327 2.399 . S
Tb313 O328 2.325 . S
Tb313 O331 2.303 1_455 S
Tb313 C342 2.764 . S
C314 O330 1.261 . S
C314 O331 1.257 1_545 S
C315 C318 1.358 1_455 S
C315 C319 1.332 . S
C315 C321 1.504 . S
C316 C317 1.373 1_455 S
C316 C320 1.308 . S
C317 C316 1.373 1_655 S
C317 C318 1.429 . S
C317 H344 0.932 . S
C318 C315 1.358 1_655 S
C318 C317 1.429 . S
C318 H345 0.930 . S
C319 C315 1.332 . S
C319 C320 1.394 . S
C319 H346 0.932 . S
C320 C316 1.308 . S
C320 C319 1.394 . S
C320 H347 0.929 . S
C321 Tb312 2.764 1_455 S
C321 C315 1.504 . S
C321 O333 1.239 . S
C321 O334 1.262 1_455 S
O322 Tb312 2.325 1_455 S
O322 C332 1.236 . S
O323 Tb313 2.322 1_545 S
O323 C332 1.257 . S
O324 Tb313 2.349 . S
O324 C335 1.261 . S
O325 Tb312 2.303 1_455 S
O325 C335 1.257 1_545 S
O326 Tb313 2.415 . S
O326 C342 1.239 . S
O327 Tb313 2.399 . S
O327 C342 1.263 . S
O328 Tb313 2.325 . S
O328 C343 1.236 1_455 S
O329 Tb312 2.322 1_565 S
O329 C343 1.257 . S
O330 Tb312 2.349 . S
O330 C314 1.261 . S
O331 Tb313 2.303 1_655 S
O331 C314 1.257 1_565 S
C332 O322 1.236 . S
C332 O323 1.257 . S
O333 Tb312 2.415 1_455 S
O333 C321 1.239 . S
O334 Tb312 2.399 . S
O334 C321 1.262 1_655 S
C335 O324 1.261 . S
C335 O325 1.257 1_565 S
C336 C339 1.358 . S
C336 C340 1.332 . S
C336 C342 1.504 . S
C337 C338 1.373 . S
C337 C341 1.308 . S
C338 C337 1.373 . S
C338 C339 1.429 . S
C338 H348 0.932 . S
C339 C336 1.358 . S
C339 C338 1.429 . S
C339 H349 0.930 . S
C340 C336 1.332 . S
C340 C341 1.394 . S
C340 H350 0.932 1_455 S
C341 C337 1.308 . S
C341 C340 1.394 . S
C341 H351 0.929 1_455 S
C342 Tb313 2.764 . S
C342 O326 1.239 . S
C342 O327 1.263 . S
C342 C336 1.504 . S
C343 O328 1.236 1_655 S
C343 O329 1.257 . S
H344 C317 0.932 . S
H345 C318 0.930 . S
H346 C319 0.932 . S
H347 C320 0.929 . S
H348 C338 0.932 . S
H349 C339 0.930 . S
H350 C340 0.932 1_655 S
H351 C341 0.929 1_655 S
Tb352 C361 2.764 . S
Tb352 O362 2.325 . S
Tb352 O365 2.303 1_565 S
Tb352 O369 2.322 . S
Tb352 O370 2.349 . S
Tb352 O373 2.415 1_565 S
Tb352 O374 2.399 . S
Tb353 O363 2.322 . S
Tb353 O364 2.349 . S
Tb353 O366 2.415 1_545 S
Tb353 O367 2.399 . S
Tb353 O368 2.325 . S
Tb353 O371 2.303 1_545 S
Tb353 C382 2.764 . S
C354 O370 1.261 . S
C354 O371 1.257 . S
C355 C358 1.358 . S
C355 C359 1.332 . S
C355 C361 1.504 . S
C356 C357 1.373 . S
C356 C360 1.308 . S
C357 C356 1.373 . S
C357 C358 1.429 . S
C357 H384 0.932 . S
C358 C355 1.358 . S
C358 C357 1.429 . S
C358 H385 0.930 . S
C359 C355 1.332 . S
C359 C360 1.394 . S
C359 H386 0.932 1_565 S
C360 C356 1.308 . S
C360 C359 1.394 . S
C360 H387 0.929 1_565 S
C361 Tb352 2.764 . S
C361 C355 1.504 . S
C361 O373 1.239 1_565 S
C361 O374 1.263 . S
O362 Tb352 2.325 . S
O362 C372 1.236 1_565 S
O363 Tb353 2.322 . S
O363 C372 1.257 . S
O364 Tb353 2.349 . S
O364 C375 1.261 . S
O365 Tb352 2.303 1_545 S
O365 C375 1.257 . S
O366 Tb353 2.415 1_565 S
O366 C382 1.239 1_565 S
O367 Tb353 2.399 . S
O367 C382 1.263 . S
O368 Tb353 2.325 . S
O368 C383 1.236 1_545 S
O369 Tb352 2.322 . S
O369 C383 1.257 . S
O370 Tb352 2.349 . S
O370 C354 1.261 . S
O371 Tb353 2.303 1_565 S
O371 C354 1.257 . S
C372 O362 1.236 1_545 S
C372 O363 1.257 . S
O373 Tb352 2.415 1_545 S
O373 C361 1.239 1_545 S
O374 Tb352 2.399 . S
O374 C361 1.263 . S
C375 O364 1.261 . S
C375 O365 1.257 . S
C376 C379 1.358 . S
C376 C380 1.332 . S
C376 C382 1.504 . S
C377 C378 1.373 . S
C377 C381 1.308 . S
C378 C377 1.373 . S
C378 C379 1.429 . S
C378 H388 0.932 . S
C379 C376 1.358 . S
C379 C378 1.429 . S
C379 H389 0.930 . S
C380 C376 1.332 . S
C380 C381 1.394 . S
C380 H390 0.932 1_545 S
C381 C377 1.308 . S
C381 C380 1.394 . S
C381 H391 0.929 1_545 S
C382 Tb353 2.764 . S
C382 O366 1.239 1_545 S
C382 O367 1.263 . S
C382 C376 1.504 . S
C383 O368 1.236 1_565 S
C383 O369 1.257 . S
H384 C357 0.932 . S
H385 C358 0.930 . S
H386 C359 0.932 1_545 S
H387 C360 0.929 1_545 S
H388 C378 0.932 . S
H389 C379 0.930 . S
H390 C380 0.932 1_565 S
H391 C381 0.929 1_565 S
Tb392 C401 2.764 . S
Tb392 O402 2.325 . S
Tb392 O405 2.303 . S
Tb392 O409 2.322 . S
Tb392 O410 2.349 . S
Tb392 O413 2.415 . S
Tb392 O414 2.399 . S
Tb393 O403 2.322 . S
Tb393 O404 2.349 . S
Tb393 O406 2.415 . S
Tb393 O407 2.399 . S
Tb393 O408 2.325 . S
Tb393 O411 2.303 . S
Tb393 C422 2.764 . S
C394 O410 1.261 . S
C394 O411 1.257 . S
C395 C398 1.358 . S
C395 C399 1.332 . S
C395 C401 1.504 . S
C396 C397 1.373 . S
C396 C400 1.308 . S
C397 C396 1.373 . S
C397 C398 1.429 . S
C397 H424 0.932 . S
C398 C395 1.358 . S
C398 C397 1.429 . S
C398 H425 0.930 . S
C399 C395 1.332 . S
C399 C400 1.394 . S
C399 H426 0.932 . S
C400 C396 1.308 . S
C400 C399 1.394 . S
C400 H427 0.929 . S
C401 Tb392 2.764 . S
C401 C395 1.504 . S
C401 O413 1.239 . S
C401 O414 1.263 . S
O402 Tb392 2.325 . S
O402 C412 1.236 . S
O403 Tb393 2.322 . S
O403 C412 1.257 . S
O404 Tb393 2.349 . S
O404 C415 1.261 . S
O405 Tb392 2.303 . S
O405 C415 1.257 . S
O406 Tb393 2.415 . S
O406 C422 1.239 . S
O407 Tb393 2.399 . S
O407 C422 1.263 . S
O408 Tb393 2.325 . S
O408 C423 1.236 . S
O409 Tb392 2.322 . S
O409 C423 1.257 . S
O410 Tb392 2.349 . S
O410 C394 1.261 . S
O411 Tb393 2.303 . S
O411 C394 1.257 . S
C412 O402 1.236 . S
C412 O403 1.257 . S
O413 Tb392 2.415 . S
O413 C401 1.239 . S
O414 Tb392 2.399 . S
O414 C401 1.263 . S
C415 O404 1.261 . S
C415 O405 1.257 . S
C416 C419 1.358 . S
C416 C420 1.332 . S
C416 C422 1.504 . S
C417 C418 1.373 . S
C417 C421 1.308 . S
C418 C417 1.373 . S
C418 C419 1.429 . S
C418 H428 0.932 . S
C419 C416 1.358 . S
C419 C418 1.429 . S
C419 H429 0.930 . S
C420 C416 1.332 . S
C420 C421 1.394 . S
C420 H430 0.932 . S
C421 C417 1.308 . S
C421 C420 1.394 . S
C421 H431 0.929 . S
C422 Tb393 2.764 . S
C422 O406 1.239 . S
C422 O407 1.263 . S
C422 C416 1.504 . S
C423 O408 1.236 . S
C423 O409 1.257 . S
H424 C397 0.932 . S
H425 C398 0.930 . S
H426 C399 0.932 . S
H427 C400 0.929 . S
H428 C418 0.932 . S
H429 C419 0.930 . S
H430 C420 0.932 . S
H431 C421 0.929 . S
Tb432 C441 2.764 . S
Tb432 O442 2.325 . S
Tb432 O445 2.303 . S
Tb432 O449 2.322 1_455 S
Tb432 O450 2.349 . S
Tb432 O453 2.415 . S
Tb432 O454 2.399 . S
Tb433 O443 2.322 1_655 S
Tb433 O444 2.349 1_655 S
Tb433 O446 2.415 . S
Tb433 O447 2.399 . S
Tb433 O448 2.325 . S
Tb433 O451 2.303 1_655 S
Tb433 C462 2.764 . S
C434 O450 1.261 . S
C434 O451 1.257 . S
C435 C438 1.358 . S
C435 C439 1.332 . S
C435 C441 1.504 . S
C436 C437 1.373 . S
C436 C440 1.308 . S
C437 C436 1.373 . S
C437 C438 1.429 . S
C437 H464 0.932 . S
C438 C435 1.358 . S
C438 C437 1.429 . S
C438 H465 0.930 . S
C439 C435 1.332 . S
C439 C440 1.394 . S
C439 H466 0.932 . S
C440 C436 1.308 . S
C440 C439 1.394 . S
C440 H467 0.929 . S
C441 Tb432 2.764 . S
C441 C435 1.504 . S
C441 O453 1.239 . S
C441 O454 1.263 . S
O442 Tb432 2.325 . S
O442 C452 1.236 . S
O443 Tb433 2.322 1_455 S
O443 C452 1.257 . S
O444 Tb433 2.349 1_455 S
O444 C455 1.261 . S
O445 Tb432 2.303 . S
O445 C455 1.257 . S
O446 Tb433 2.415 . S
O446 C462 1.239 . S
O447 Tb433 2.399 . S
O447 C462 1.263 . S
O448 Tb433 2.325 . S
O448 C463 1.236 . S
O449 Tb432 2.322 1_655 S
O449 C463 1.257 . S
O450 Tb432 2.349 . S
O450 C434 1.261 . S
O451 Tb433 2.303 1_455 S
O451 C434 1.257 . S
C452 O442 1.236 . S
C452 O443 1.257 . S
O453 Tb432 2.415 . S
O453 C441 1.239 . S
O454 Tb432 2.399 . S
O454 C441 1.263 . S
C455 O444 1.261 . S
C455 O445 1.257 . S
C456 C459 1.358 . S
C456 C460 1.332 . S
C456 C462 1.504 . S
C457 C458 1.373 . S
C457 C461 1.308 . S
C458 C457 1.373 . S
C458 C459 1.429 . S
C458 H468 0.932 . S
C459 C456 1.358 . S
C459 C458 1.429 . S
C459 H469 0.930 . S
C460 C456 1.332 . S
C460 C461 1.394 . S
C460 H470 0.932 . S
C461 C457 1.308 . S
C461 C460 1.394 . S
C461 H471 0.929 . S
C462 Tb433 2.764 . S
C462 O446 1.239 . S
C462 O447 1.263 . S
C462 C456 1.504 . S
C463 O448 1.236 . S
C463 O449 1.257 . S
H464 C437 0.932 . S
H465 C438 0.930 . S
H466 C439 0.932 . S
H467 C440 0.929 . S
H468 C458 0.932 . S
H469 C459 0.930 . S
H470 C460 0.932 . S
H471 C461 0.929 . S
H472 C490 0.951 . S
H473 C492 0.951 . S
H474 C494 0.950 . S
H475 C495 0.950 . S
H476 C497 0.950 . S
H477 C500 0.950 . S
H478 C501 0.950 . S
H479 C503 0.950 . S
H480 C504 0.950 . S
H481 C505 0.951 . S
H482 C507 0.951 . S
H483 C509 0.950 . S
H484 C510 0.950 . S
H485 C512 0.950 . S
H486 C515 0.950 . S
H487 C516 0.950 . S
H488 C518 0.950 . S
H489 C519 0.950 . S
C490 H472 0.951 . S
C490 C491 1.364 . S
C490 C492 1.388 . S
C491 C490 1.364 . S
C491 C495 1.386 1_565 S
C492 H473 0.951 . S
C492 C490 1.388 . S
C492 C493 1.366 . S
C493 C492 1.366 . S
C493 C494 1.414 1_565 S
C493 C496 1.499 . S
C494 H474 0.950 . S
C494 C493 1.414 1_545 S
C494 C495 1.374 . S
C495 H475 0.950 . S
C495 C491 1.386 1_545 S
C495 C494 1.374 . S
C496 C493 1.499 . S
C496 C497 1.373 1_565 S
C496 C498 1.389 . S
C497 H476 0.950 . S
C497 C496 1.373 1_545 S
C497 C513 1.377 . S
C498 C496 1.389 . S
C498 C499 1.524 . S
C498 C512 1.377 . S
C499 C498 1.524 . S
C499 C500 1.397 . S
C499 C504 1.363 . S
C500 H477 0.950 . S
C500 C499 1.397 . S
C500 C501 1.334 . S
C501 H478 0.950 . S
C501 C500 1.334 . S
C501 C502 1.287 . S
C502 C501 1.287 . S
C502 C503 1.524 . S
C502 H521 0.913 . S
C503 H479 0.950 . S
C503 C502 1.524 . S
C503 C504 1.415 . S
C504 H480 0.950 . S
C504 C499 1.363 . S
C504 C503 1.415 . S
C505 H481 0.951 . S
C505 C506 1.366 1_545 S
C505 C507 1.388 . S
C506 C505 1.366 1_565 S
C506 C510 1.385 . S
C507 H482 0.951 . S
C507 C505 1.388 . S
C507 C508 1.363 1_545 S
C508 C507 1.363 1_565 S
C508 C509 1.419 . S
C508 C511 1.498 . S
C509 H483 0.950 . S
C509 C508 1.419 . S
C509 C510 1.374 . S
C510 H484 0.950 . S
C510 C506 1.385 . S
C510 C509 1.374 . S
C511 C508 1.498 . S
C511 C512 1.377 . S
C511 C513 1.386 1_565 S
C512 H485 0.950 . S
C512 C498 1.377 . S
C512 C511 1.377 . S
C513 C497 1.377 . S
C513 C511 1.386 1_545 S
C513 C514 1.524 . S
C514 C513 1.524 . S
C514 C515 1.397 . S
C514 C519 1.363 . S
C515 H486 0.950 . S
C515 C514 1.397 . S
C515 C516 1.334 . S
C516 H487 0.950 . S
C516 C515 1.334 . S
C516 C517 1.287 . S
C517 C516 1.287 . S
C517 C518 1.524 . S
C517 H520 0.999 . S
C518 H488 0.950 . S
C518 C517 1.524 . S
C518 C519 1.415 . S
C519 H489 0.950 . S
C519 C514 1.363 . S
C519 C518 1.415 . S
H520 C517 0.999 . S
H521 C502 0.913 . S
H522 C540 0.951 . S
H523 C542 0.951 . S
H524 C544 0.950 . S
H525 C545 0.950 . S
H526 C547 0.950 . S
H527 C550 0.950 . S
H528 C551 0.950 . S
H529 C553 0.950 . S
H530 C554 0.950 . S
H531 C555 0.951 . S
H532 C557 0.951 . S
H533 C559 0.950 . S
H534 C560 0.950 . S
H535 C562 0.950 . S
H536 C565 0.950 . S
H537 C566 0.950 . S
H538 C568 0.950 . S
H539 C569 0.950 . S
C540 H522 0.951 . S
C540 C541 1.366 . S
C540 C542 1.388 . S
C541 C540 1.366 . S
C541 C545 1.385 . S
C542 H523 0.951 . S
C542 C540 1.388 . S
C542 C543 1.366 . S
C543 C542 1.366 . S
C543 C544 1.414 . S
C543 C546 1.499 . S
C544 H524 0.950 . S
C544 C543 1.414 . S
C544 C545 1.374 . S
C545 H525 0.950 . S
C545 C541 1.385 . S
C545 C544 1.374 . S
C546 C543 1.499 . S
C546 C547 1.373 . S
C546 C548 1.389 . S
C547 H526 0.950 . S
C547 C546 1.373 . S
C547 C563 1.377 . S
C548 C546 1.389 . S
C548 C549 1.524 . S
C548 C562 1.377 . S
C549 C548 1.524 . S
C549 C550 1.397 . S
C549 C554 1.363 . S
C550 H527 0.950 . S
C550 C549 1.397 . S
C550 C551 1.334 . S
C551 H528 0.950 . S
C551 C550 1.334 . S
C551 C552 1.287 . S
C552 C551 1.287 . S
C552 C553 1.524 . S
C552 H571 0.913 . S
C553 H529 0.950 . S
C553 C552 1.524 . S
C553 C554 1.415 . S
C554 H530 0.950 . S
C554 C549 1.363 . S
C554 C553 1.415 . S
C555 H531 0.951 . S
C555 C556 1.366 . S
C555 C557 1.388 . S
C556 C555 1.366 . S
C556 C560 1.385 . S
C557 H532 0.951 . S
C557 C555 1.388 . S
C557 C558 1.366 . S
C558 C557 1.366 . S
C558 C559 1.414 . S
C558 C561 1.499 . S
C559 H533 0.950 . S
C559 C558 1.414 . S
C559 C560 1.374 . S
C560 H534 0.950 . S
C560 C556 1.385 . S
C560 C559 1.374 . S
C561 C558 1.499 . S
C561 C562 1.373 . S
C561 C563 1.389 . S
C562 H535 0.950 . S
C562 C548 1.377 . S
C562 C561 1.373 . S
C563 C547 1.377 . S
C563 C561 1.389 . S
C563 C564 1.524 . S
C564 C563 1.524 . S
C564 C565 1.397 . S
C564 C569 1.363 . S
C565 H536 0.950 . S
C565 C564 1.397 . S
C565 C566 1.334 . S
C566 H537 0.950 . S
C566 C565 1.334 . S
C566 C567 1.287 . S
C567 C566 1.287 . S
C567 C568 1.524 . S
C567 H570 0.999 . S
C568 H538 0.950 . S
C568 C567 1.524 . S
C568 C569 1.415 . S
C569 H539 0.950 . S
C569 C564 1.363 . S
C569 C568 1.415 . S
H570 C567 0.999 . S
H571 C552 0.913 . S
H572 C590 0.951 . S
H573 C592 0.951 . S
H574 C594 0.950 . S
H575 C595 0.950 . S
H576 C597 0.950 . S
H577 C600 0.950 . S
H578 C601 0.950 . S
H579 C603 0.950 . S
H580 C604 0.950 . S
H581 C605 0.951 . S
H582 C607 0.951 . S
H583 C609 0.950 . S
H584 C610 0.950 . S
H585 C612 0.950 . S
H586 C615 0.950 . S
H587 C616 0.950 . S
H588 C618 0.950 . S
H589 C619 0.950 . S
C590 H572 0.951 . S
C590 C591 1.366 . S
C590 C592 1.388 . S
C591 C590 1.366 . S
C591 C595 1.385 . S
C592 H573 0.951 . S
C592 C590 1.388 . S
C592 C593 1.366 . S
C593 C592 1.366 . S
C593 C594 1.414 . S
C593 C596 1.499 . S
C594 H574 0.950 . S
C594 C593 1.414 . S
C594 C595 1.374 . S
C595 H575 0.950 . S
C595 C591 1.385 . S
C595 C594 1.374 . S
C596 C593 1.499 . S
C596 C597 1.373 . S
C596 C598 1.389 . S
C597 H576 0.950 . S
C597 C596 1.373 . S
C597 C613 1.377 . S
C598 C596 1.389 . S
C598 C599 1.524 . S
C598 C612 1.377 . S
C599 C598 1.524 . S
C599 C600 1.397 . S
C599 C604 1.363 . S
C600 H577 0.950 . S
C600 C599 1.397 . S
C600 C601 1.334 . S
C601 H578 0.950 . S
C601 C600 1.334 . S
C601 C602 1.287 . S
C602 C601 1.287 . S
C602 C603 1.524 . S
C602 H621 0.913 . S
C603 H579 0.950 . S
C603 C602 1.524 . S
C603 C604 1.415 . S
C604 H580 0.950 . S
C604 C599 1.363 . S
C604 C603 1.415 . S
C605 H581 0.951 . S
C605 C606 1.366 . S
C605 C607 1.388 . S
C606 C605 1.366 . S
C606 C610 1.385 . S
C607 H582 0.951 . S
C607 C605 1.388 . S
C607 C608 1.366 . S
C608 C607 1.366 . S
C608 C609 1.414 . S
C608 C611 1.499 . S
C609 H583 0.950 . S
C609 C608 1.414 . S
C609 C610 1.374 . S
C610 H584 0.950 . S
C610 C606 1.385 . S
C610 C609 1.374 . S
C611 C608 1.499 . S
C611 C612 1.373 . S
C611 C613 1.389 . S
C612 H585 0.950 . S
C612 C598 1.377 . S
C612 C611 1.373 . S
C613 C597 1.377 . S
C613 C611 1.389 . S
C613 C614 1.524 . S
C614 C613 1.524 . S
C614 C615 1.397 . S
C614 C619 1.363 . S
C615 H586 0.950 . S
C615 C614 1.397 . S
C615 C616 1.334 . S
C616 H587 0.950 . S
C616 C615 1.334 . S
C616 C617 1.287 . S
C617 C616 1.287 . S
C617 C618 1.524 . S
C617 H620 0.999 . S
C618 H588 0.950 . S
C618 C617 1.524 . S
C618 C619 1.415 . S
C619 H589 0.950 . S
C619 C614 1.363 . S
C619 C618 1.415 . S
H620 C617 0.999 . S
H621 C602 0.913 . S
H622 C640 0.951 . S
H623 C642 0.951 . S
H624 C644 0.950 . S
H625 C645 0.950 . S
H626 C647 0.950 . S
H627 C650 0.950 . S
H628 C651 0.950 . S
H629 C653 0.950 . S
H630 C654 0.950 . S
H631 C655 0.951 . S
H632 C657 0.951 . S
H633 C659 0.950 . S
H634 C660 0.950 . S
H635 C662 0.950 . S
H636 C665 0.950 . S
H637 C666 0.950 . S
H638 C668 0.950 . S
H639 C669 0.950 . S
C640 H622 0.951 . S
C640 C641 1.366 . S
C640 C642 1.388 . S
C641 C640 1.366 . S
C641 C645 1.385 . S
C642 H623 0.951 . S
C642 C640 1.388 . S
C642 C643 1.366 . S
C643 C642 1.366 . S
C643 C644 1.414 . S
C643 C646 1.499 . S
C644 H624 0.950 . S
C644 C643 1.414 . S
C644 C645 1.374 . S
C645 H625 0.950 . S
C645 C641 1.385 . S
C645 C644 1.374 . S
C646 C643 1.499 . S
C646 C647 1.373 . S
C646 C648 1.389 . S
C647 H626 0.950 . S
C647 C646 1.373 . S
C647 C663 1.377 . S
C648 C646 1.389 . S
C648 C649 1.524 . S
C648 C662 1.377 . S
C649 C648 1.524 . S
C649 C650 1.397 . S
C649 C654 1.363 . S
C650 H627 0.950 . S
C650 C649 1.397 . S
C650 C651 1.334 . S
C651 H628 0.950 . S
C651 C650 1.334 . S
C651 C652 1.287 . S
C652 C651 1.287 . S
C652 C653 1.524 . S
C652 H671 0.913 . S
C653 H629 0.950 . S
C653 C652 1.524 . S
C653 C654 1.415 . S
C654 H630 0.950 . S
C654 C649 1.363 . S
C654 C653 1.415 . S
C655 H631 0.951 . S
C655 C656 1.366 . S
C655 C657 1.388 . S
C656 C655 1.366 . S
C656 C660 1.385 . S
C657 H632 0.951 . S
C657 C655 1.388 . S
C657 C658 1.366 . S
C658 C657 1.366 . S
C658 C659 1.414 . S
C658 C661 1.499 . S
C659 H633 0.950 . S
C659 C658 1.414 . S
C659 C660 1.374 . S
C660 H634 0.950 . S
C660 C656 1.385 . S
C660 C659 1.374 . S
C661 C658 1.499 . S
C661 C662 1.373 . S
C661 C663 1.389 . S
C662 H635 0.950 . S
C662 C648 1.377 . S
C662 C661 1.373 . S
C663 C647 1.377 . S
C663 C661 1.389 . S
C663 C664 1.524 . S
C664 C663 1.524 . S
C664 C665 1.397 . S
C664 C669 1.363 . S
C665 H636 0.950 . S
C665 C664 1.397 . S
C665 C666 1.334 . S
C666 H637 0.950 . S
C666 C665 1.334 . S
C666 C667 1.287 . S
C667 C666 1.287 . S
C667 C668 1.524 . S
C667 H670 0.999 . S
C668 H638 0.950 . S
C668 C667 1.524 . S
C668 C669 1.415 . S
C669 H639 0.950 . S
C669 C664 1.363 . S
C669 C668 1.415 . S
H670 C667 0.999 . S
H671 C652 0.913 . S
H672 C690 0.951 . S
H673 C692 0.951 . S
H674 C694 0.950 . S
H675 C695 0.950 . S
H676 C697 0.950 . S
H677 C700 0.950 . S
H678 C701 0.950 . S
H679 C703 0.950 . S
H680 C704 0.950 . S
H681 C705 0.951 . S
H682 C707 0.951 . S
H683 C709 0.950 . S
H684 C710 0.950 . S
H685 C712 0.950 . S
H686 C715 0.950 . S
H687 C716 0.950 . S
H688 C718 0.950 . S
H689 C719 0.950 . S
C690 H672 0.951 . S
C690 C691 1.363 1_565 S
C690 C692 1.388 . S
C691 C690 1.363 1_545 S
C691 C695 1.389 . S
C692 H673 0.951 . S
C692 C690 1.388 . S
C692 C693 1.366 1_565 S
C693 C692 1.366 1_545 S
C693 C694 1.414 . S
C693 C696 1.499 . S
C694 H674 0.950 . S
C694 C693 1.414 . S
C694 C695 1.374 . S
C695 H675 0.950 . S
C695 C691 1.389 . S
C695 C694 1.374 . S
C696 C693 1.499 . S
C696 C697 1.373 1_545 S
C696 C698 1.389 . S
C697 H676 0.950 . S
C697 C696 1.373 1_565 S
C697 C713 1.377 1_554 S
C698 C696 1.389 . S
C698 C699 1.524 . S
C698 C712 1.377 . S
C699 C698 1.524 . S
C699 C700 1.397 . S
C699 C704 1.363 . S
C700 H677 0.950 . S
C700 C699 1.397 . S
C700 C701 1.334 . S
C701 H678 0.950 . S
C701 C700 1.334 . S
C701 C702 1.287 . S
C702 C701 1.287 . S
C702 C703 1.524 . S
C702 H721 0.913 . S
C703 H679 0.950 . S
C703 C702 1.524 . S
C703 C704 1.415 . S
C704 H680 0.950 . S
C704 C699 1.363 . S
C704 C703 1.415 . S
C705 H681 0.951 . S
C705 C706 1.366 . S
C705 C707 1.388 . S
C706 C705 1.366 . S
C706 C710 1.385 1_545 S
C707 H682 0.951 . S
C707 C705 1.388 . S
C707 C708 1.379 . S
C708 C707 1.379 . S
C708 C709 1.406 1_545 S
C708 C711 1.495 . S
C709 H683 0.950 . S
C709 C708 1.406 1_565 S
C709 C710 1.374 . S
C710 H684 0.950 . S
C710 C706 1.385 1_565 S
C710 C709 1.374 . S
C711 C708 1.495 . S
C711 C712 1.371 1_556 S
C711 C713 1.392 1_545 S
C712 H685 0.950 . S
C712 C698 1.377 . S
C712 C711 1.371 1_554 S
C713 C697 1.377 1_556 S
C713 C711 1.392 1_565 S
C713 C714 1.524 . S
C714 C713 1.524 . S
C714 C715 1.397 . S
C714 C719 1.363 . S
C715 H686 0.950 . S
C715 C714 1.397 . S
C715 C716 1.334 . S
C716 H687 0.950 . S
C716 C715 1.334 . S
C716 C717 1.287 . S
C717 C716 1.287 . S
C717 C718 1.524 . S
C717 H720 0.999 . S
C718 H688 0.950 . S
C718 C717 1.524 . S
C718 C719 1.415 . S
C719 H689 0.950 . S
C719 C714 1.363 . S
C719 C718 1.415 . S
H720 C717 0.999 . S
H721 C702 0.913 . S
H722 C740 0.951 . S
H723 C742 0.951 . S
H724 C744 0.950 . S
H725 C745 0.950 . S
H726 C747 0.950 . S
H727 C750 0.950 . S
H728 C751 0.950 . S
H729 C753 0.950 . S
H730 C754 0.950 . S
H731 C755 0.951 . S
H732 C757 0.951 . S
H733 C759 0.950 . S
H734 C760 0.950 . S
H735 C762 0.950 . S
H736 C765 0.950 . S
H737 C766 0.950 . S
H738 C768 0.950 . S
H739 C769 0.950 . S
C740 H722 0.951 . S
C740 C741 1.366 . S
C740 C742 1.388 . S
C741 C740 1.366 . S
C741 C745 1.385 . S
C742 H723 0.951 . S
C742 C740 1.388 . S
C742 C743 1.366 . S
C743 C742 1.366 . S
C743 C744 1.414 . S
C743 C746 1.499 . S
C744 H724 0.950 . S
C744 C743 1.414 . S
C744 C745 1.374 . S
C745 H725 0.950 . S
C745 C741 1.385 . S
C745 C744 1.374 . S
C746 C743 1.499 . S
C746 C747 1.373 . S
C746 C748 1.389 . S
C747 H726 0.950 . S
C747 C746 1.373 . S
C747 C763 1.377 . S
C748 C746 1.389 . S
C748 C749 1.524 . S
C748 C762 1.377 . S
C749 C748 1.524 . S
C749 C750 1.397 . S
C749 C754 1.363 . S
C750 H727 0.950 . S
C750 C749 1.397 . S
C750 C751 1.334 . S
C751 H728 0.950 . S
C751 C750 1.334 . S
C751 C752 1.287 . S
C752 C751 1.287 . S
C752 C753 1.524 . S
C752 H771 0.913 . S
C753 H729 0.950 . S
C753 C752 1.524 . S
C753 C754 1.415 . S
C754 H730 0.950 . S
C754 C749 1.363 . S
C754 C753 1.415 . S
C755 H731 0.951 . S
C755 C756 1.366 . S
C755 C757 1.388 . S
C756 C755 1.366 . S
C756 C760 1.385 . S
C757 H732 0.951 . S
C757 C755 1.388 . S
C757 C758 1.366 . S
C758 C757 1.366 . S
C758 C759 1.414 . S
C758 C761 1.499 . S
C759 H733 0.950 . S
C759 C758 1.414 . S
C759 C760 1.374 . S
C760 H734 0.950 . S
C760 C756 1.385 . S
C760 C759 1.374 . S
C761 C758 1.499 . S
C761 C762 1.373 . S
C761 C763 1.389 . S
C762 H735 0.950 . S
C762 C748 1.377 . S
C762 C761 1.373 . S
C763 C747 1.377 . S
C763 C761 1.389 . S
C763 C764 1.524 . S
C764 C763 1.524 . S
C764 C765 1.397 . S
C764 C769 1.363 . S
C765 H736 0.950 . S
C765 C764 1.397 . S
C765 C766 1.334 . S
C766 H737 0.950 . S
C766 C765 1.334 . S
C766 C767 1.287 1_556 S
C767 C766 1.287 1_554 S
C767 C768 1.524 . S
C767 H770 0.999 . S
C768 H738 0.950 . S
C768 C767 1.524 . S
C768 C769 1.415 1_554 S
C769 H739 0.950 . S
C769 C764 1.363 . S
C769 C768 1.415 1_556 S
H770 C767 0.999 . S
H771 C752 0.913 . S
H772 C790 0.951 . S
H773 C792 0.951 . S
H774 C794 0.950 . S
H775 C795 0.950 . S
H776 C797 0.950 . S
H777 C800 0.950 . S
H778 C801 0.950 . S
H779 C803 0.950 . S
H780 C804 0.950 . S
H781 C805 0.951 . S
H782 C807 0.951 . S
H783 C809 0.950 . S
H784 C810 0.950 . S
H785 C812 0.950 . S
H786 C815 0.950 . S
H787 C816 0.950 . S
H788 C818 0.950 . S
H789 C819 0.950 . S
C790 H772 0.951 . S
C790 C791 1.366 . S
C790 C792 1.388 . S
C791 C790 1.366 . S
C791 C795 1.385 . S
C792 H773 0.951 . S
C792 C790 1.388 . S
C792 C793 1.366 . S
C793 C792 1.366 . S
C793 C794 1.414 . S
C793 C796 1.499 . S
C794 H774 0.950 . S
C794 C793 1.414 . S
C794 C795 1.374 . S
C795 H775 0.950 . S
C795 C791 1.385 . S
C795 C794 1.374 . S
C796 C793 1.499 . S
C796 C797 1.373 . S
C796 C798 1.389 . S
C797 H776 0.950 . S
C797 C796 1.373 . S
C797 C813 1.377 1_554 S
C798 C796 1.389 . S
C798 C799 1.524 . S
C798 C812 1.377 . S
C799 C798 1.524 . S
C799 C800 1.397 . S
C799 C804 1.363 . S
C800 H777 0.950 . S
C800 C799 1.397 . S
C800 C801 1.334 . S
C801 H778 0.950 . S
C801 C800 1.334 . S
C801 C802 1.287 . S
C802 C801 1.287 . S
C802 C803 1.524 . S
C802 H821 0.913 . S
C803 H779 0.950 . S
C803 C802 1.524 . S
C803 C804 1.415 . S
C804 H780 0.950 . S
C804 C799 1.363 . S
C804 C803 1.415 . S
C805 H781 0.951 . S
C805 C806 1.366 . S
C805 C807 1.388 . S
C806 C805 1.366 . S
C806 C810 1.385 . S
C807 H782 0.951 . S
C807 C805 1.388 . S
C807 C808 1.366 . S
C808 C807 1.366 . S
C808 C809 1.414 . S
C808 C811 1.499 . S
C809 H783 0.950 . S
C809 C808 1.414 . S
C809 C810 1.374 . S
C810 H784 0.950 . S
C810 C806 1.385 . S
C810 C809 1.374 . S
C811 C808 1.499 . S
C811 C812 1.373 1_556 S
C811 C813 1.389 . S
C812 H785 0.950 . S
C812 C798 1.377 . S
C812 C811 1.373 1_554 S
C813 C797 1.377 1_556 S
C813 C811 1.389 . S
C813 C814 1.524 . S
C814 C813 1.524 . S
C814 C815 1.397 . S
C814 C819 1.363 . S
C815 H786 0.950 . S
C815 C814 1.397 . S
C815 C816 1.334 . S
C816 H787 0.950 . S
C816 C815 1.334 . S
C816 C817 1.287 . S
C817 C816 1.287 . S
C817 C818 1.524 . S
C817 H820 0.999 . S
C818 H788 0.950 . S
C818 C817 1.524 . S
C818 C819 1.415 . S
C819 H789 0.950 . S
C819 C814 1.363 . S
C819 C818 1.415 . S
H820 C817 0.999 . S
H821 C802 0.913 . S
H822 C840 0.951 . S
H823 C842 0.951 . S
H824 C844 0.950 . S
H825 C845 0.950 . S
H826 C847 0.950 1_554 S
H827 C850 0.950 1_655 S
H828 C851 0.950 . S
H829 C853 0.950 . S
H830 C854 0.950 . S
H831 C855 0.951 . S
H832 C857 0.951 . S
H833 C859 0.950 . S
H834 C860 0.970 . S
H835 C862 0.950 1_455 S
H836 C865 0.950 . S
H837 C866 0.950 . S
H838 C868 0.950 . S
H839 C869 0.950 . S
C840 H822 0.951 . S
C840 C841 1.366 . S
C840 C842 1.388 . S
C841 C840 1.366 . S
C841 C845 1.385 . S
C842 H823 0.951 . S
C842 C840 1.388 . S
C842 C843 1.366 . S
C843 C842 1.366 . S
C843 C844 1.414 . S
C843 C846 1.499 . S
C844 H824 0.950 . S
C844 C843 1.414 . S
C844 C845 1.374 . S
C845 H825 0.950 . S
C845 C841 1.385 . S
C845 C844 1.374 . S
C846 C843 1.499 . S
C846 C847 1.362 1_554 S
C846 C848 1.389 . S
C847 H826 0.950 1_556 S
C847 C846 1.362 1_556 S
C847 C863 1.388 . S
C848 C846 1.389 . S
C848 C849 1.524 1_655 S
C848 C862 1.377 1_554 S
C849 C848 1.524 1_455 S
C849 C850 1.397 . S
C849 C854 1.363 . S
C850 H827 0.950 1_455 S
C850 C849 1.397 . S
C850 C851 1.334 . S
C851 H828 0.950 . S
C851 C850 1.334 . S
C851 C852 1.287 . S
C852 C851 1.287 . S
C852 C853 1.524 . S
C852 H871 0.913 . S
C853 H829 0.950 . S
C853 C852 1.524 . S
C853 C854 1.415 . S
C854 H830 0.950 . S
C854 C849 1.363 . S
C854 C853 1.415 . S
C855 H831 0.951 . S
C855 C856 1.366 . S
C855 C857 1.388 . S
C856 C855 1.366 . S
C856 C860 1.377 1_655 S
C857 H832 0.951 . S
C857 C855 1.388 . S
C857 C858 1.366 . S
C858 C857 1.366 . S
C858 C859 1.414 . S
C858 C861 1.499 . S
C859 H833 0.950 . S
C859 C858 1.414 . S
C859 C860 1.363 1_655 S
C860 H834 0.970 . S
C860 C856 1.377 1_455 S
C860 C859 1.363 1_455 S
C861 C858 1.499 . S
C861 C862 1.373 . S
C861 C863 1.389 . S
C862 H835 0.950 1_655 S
C862 C848 1.377 1_556 S
C862 C861 1.373 . S
C863 C847 1.388 . S
C863 C861 1.389 . S
C863 C864 1.524 . S
C864 C863 1.524 . S
C864 C865 1.397 . S
C864 C869 1.363 . S
C865 H836 0.950 . S
C865 C864 1.397 . S
C865 C866 1.334 . S
C866 H837 0.950 . S
C866 C865 1.334 . S
C866 C867 1.287 . S
C867 C866 1.287 . S
C867 C868 1.524 . S
C867 H870 0.999 . S
C868 H838 0.950 . S
C868 C867 1.524 . S
C868 C869 1.415 . S
C869 H839 0.950 . S
C869 C864 1.363 . S
C869 C868 1.415 . S
H870 C867 0.999 . S
H871 C852 0.913 . S
H872 C890 0.951 . S
H873 C892 0.951 . S
H874 C894 0.950 . S
H875 C895 0.950 . S
H876 C897 0.950 . S
H877 C900 0.950 . S
H878 C901 0.950 . S
H879 C903 0.950 . S
H880 C904 0.950 . S
H881 C905 0.951 . S
H882 C907 0.951 . S
H883 C909 0.950 . S
H884 C910 0.950 . S
H885 C912 0.950 . S
H886 C915 0.950 . S
H887 C916 0.950 . S
H888 C918 0.950 . S
H889 C919 0.950 . S
C890 H872 0.951 . S
C890 C891 1.366 . S
C890 C892 1.388 . S
C891 C890 1.366 . S
C891 C895 1.385 . S
C892 H873 0.951 . S
C892 C890 1.388 . S
C892 C893 1.366 . S
C893 C892 1.366 . S
C893 C894 1.414 . S
C893 C896 1.499 . S
C894 H874 0.950 . S
C894 C893 1.414 . S
C894 C895 1.374 . S
C895 H875 0.950 . S
C895 C891 1.385 . S
C895 C894 1.374 . S
C896 C893 1.499 . S
C896 C897 1.373 . S
C896 C898 1.389 . S
C897 H876 0.950 . S
C897 C896 1.373 . S
C897 C913 1.377 . S
C898 C896 1.389 . S
C898 C899 1.524 . S
C898 C912 1.377 . S
C899 C898 1.524 . S
C899 C900 1.397 . S
C899 C904 1.363 . S
C900 H877 0.950 . S
C900 C899 1.397 . S
C900 C901 1.334 . S
C901 H878 0.950 . S
C901 C900 1.334 . S
C901 C902 1.287 . S
C902 C901 1.287 . S
C902 C903 1.524 . S
C902 H921 0.913 . S
C903 H879 0.950 . S
C903 C902 1.524 . S
C903 C904 1.415 . S
C904 H880 0.950 . S
C904 C899 1.363 . S
C904 C903 1.415 . S
C905 H881 0.951 . S
C905 C906 1.366 . S
C905 C907 1.388 1_655 S
C906 C905 1.366 . S
C906 C910 1.384 1_655 S
C907 H882 0.951 . S
C907 C905 1.388 1_455 S
C907 C908 1.366 . S
C908 C907 1.366 . S
C908 C909 1.414 . S
C908 C911 1.499 . S
C909 H883 0.950 . S
C909 C908 1.414 . S
C909 C910 1.374 . S
C910 H884 0.950 . S
C910 C906 1.384 1_455 S
C910 C909 1.374 . S
C911 C908 1.499 . S
C911 C912 1.373 . S
C911 C913 1.389 . S
C912 H885 0.950 . S
C912 C898 1.377 . S
C912 C911 1.373 . S
C913 C897 1.377 . S
C913 C911 1.389 . S
C913 C914 1.524 1_455 S
C914 C913 1.524 1_655 S
C914 C915 1.397 . S
C914 C919 1.363 . S
C915 H886 0.950 . S
C915 C914 1.397 . S
C915 C916 1.334 . S
C916 H887 0.950 . S
C916 C915 1.334 . S
C916 C917 1.287 . S
C917 C916 1.287 . S
C917 C918 1.524 . S
C917 H920 0.999 . S
C918 H888 0.950 . S
C918 C917 1.524 . S
C918 C919 1.415 . S
C919 H889 0.950 . S
C919 C914 1.363 . S
C919 C918 1.415 . S
H920 C917 0.999 . S
H921 C902 0.913 . S
H922 C940 0.951 . S
H923 C942 0.951 . S
H924 C944 0.950 . S
H925 C945 0.950 . S
H926 C947 0.950 . S
H927 C950 0.950 . S
H928 C951 0.950 . S
H929 C953 0.950 . S
H930 C954 0.950 . S
H931 C955 0.951 1_545 S
H932 C957 0.951 1_545 S
H933 C959 0.950 . S
H934 C960 0.950 . S
H935 C962 0.950 . S
H936 C965 0.950 . S
H937 C966 0.970 . S
H938 C968 0.950 . S
H939 C969 0.950 . S
C940 H922 0.951 . S
C940 C941 1.366 1_565 S
C940 C942 1.388 . S
C941 C940 1.366 1_545 S
C941 C945 1.385 . S
C942 H923 0.951 . S
C942 C940 1.388 . S
C942 C943 1.366 . S
C943 C942 1.366 . S
C943 C944 1.414 1_565 S
C943 C946 1.499 . S
C944 H924 0.950 . S
C944 C943 1.414 1_545 S
C944 C945 1.374 . S
C945 H925 0.950 . S
C945 C941 1.385 . S
C945 C944 1.374 . S
C946 C943 1.499 . S
C946 C947 1.373 1_565 S
C946 C948 1.389 . S
C947 H926 0.950 . S
C947 C946 1.373 1_545 S
C947 C963 1.377 1_545 S
C948 C946 1.389 . S
C948 C949 1.524 . S
C948 C962 1.377 . S
C949 C948 1.524 . S
C949 C950 1.397 . S
C949 C954 1.363 . S
C950 H927 0.950 . S
C950 C949 1.397 . S
C950 C951 1.334 . S
C951 H928 0.950 . S
C951 C950 1.334 . S
C951 C952 1.287 . S
C952 C951 1.287 . S
C952 C953 1.524 . S
C952 H971 0.913 . S
C953 H929 0.950 . S
C953 C952 1.524 . S
C953 C954 1.415 . S
C954 H930 0.950 . S
C954 C949 1.363 . S
C954 C953 1.415 . S
C955 H931 0.951 1_565 S
C955 C956 1.366 . S
C955 C957 1.388 . S
C956 C955 1.366 . S
C956 C960 1.385 . S
C957 H932 0.951 1_565 S
C957 C955 1.388 . S
C957 C958 1.366 . S
C958 C957 1.366 . S
C958 C959 1.414 . S
C958 C961 1.499 . S
C959 H933 0.950 . S
C959 C958 1.414 . S
C959 C960 1.374 . S
C960 H934 0.950 . S
C960 C956 1.385 . S
C960 C959 1.374 . S
C961 C958 1.499 . S
C961 C962 1.373 . S
C961 C963 1.389 . S
C962 H935 0.950 . S
C962 C948 1.377 . S
C962 C961 1.373 . S
C963 C947 1.377 1_565 S
C963 C961 1.389 . S
C963 C964 1.524 1_565 S
C964 C963 1.524 1_545 S
C964 C965 1.397 1_545 S
C964 C969 1.363 . S
C965 H936 0.950 . S
C965 C964 1.397 1_565 S
C965 C966 1.346 . S
C966 H937 0.970 . S
C966 C965 1.346 . S
C966 C967 1.256 1_565 S
C967 C966 1.256 1_545 S
C967 C968 1.524 . S
C967 H970 0.999 . S
C968 H938 0.950 . S
C968 C967 1.524 . S
C968 C969 1.415 . S
C969 H939 0.950 . S
C969 C964 1.363 . S
C969 C968 1.415 . S
H970 C967 0.999 . S
H971 C952 0.913 . S
H972 C990 0.951 . S
H973 C992 0.951 . S
H974 C994 0.950 . S
H975 C995 0.950 . S
H976 C997 0.950 . S
H977 C1000 0.950 . S
H978 C1001 0.950 . S
H979 C1003 0.950 . S
H980 C1004 0.950 . S
H981 C1005 0.951 . S
H982 C1007 0.951 . S
H983 C1009 0.950 . S
H984 C1010 0.950 . S
H985 C1012 0.950 . S
H986 C1015 0.950 . S
H987 C1016 0.950 . S
H988 C1018 0.950 . S
H989 C1019 0.950 . S
C990 H972 0.951 . S
C990 C991 1.366 . S
C990 C992 1.388 . S
C991 C990 1.366 . S
C991 C995 1.385 . S
C992 H973 0.951 . S
C992 C990 1.388 . S
C992 C993 1.366 . S
C993 C992 1.366 . S
C993 C994 1.414 . S
C993 C996 1.499 . S
C994 H974 0.950 . S
C994 C993 1.414 . S
C994 C995 1.374 . S
C995 H975 0.950 . S
C995 C991 1.385 . S
C995 C994 1.374 . S
C996 C993 1.499 . S
C996 C997 1.373 . S
C996 C998 1.389 . S
C997 H976 0.950 . S
C997 C996 1.373 . S
C997 C1013 1.377 . S
C998 C996 1.389 . S
C998 C999 1.524 . S
C998 C1012 1.377 . S
C999 C998 1.524 . S
C999 C1000 1.397 . S
C999 C1004 1.363 . S
C1000 H977 0.950 . S
C1000 C999 1.397 . S
C1000 C1001 1.334 . S
C1001 H978 0.950 . S
C1001 C1000 1.334 . S
C1001 C1002 1.287 . S
C1002 C1001 1.287 . S
C1002 C1003 1.524 . S
C1002 H1021 0.913 . S
C1003 H979 0.950 . S
C1003 C1002 1.524 . S
C1003 C1004 1.415 . S
C1004 H980 0.950 . S
C1004 C999 1.363 . S
C1004 C1003 1.415 . S
C1005 H981 0.951 . S
C1005 C1006 1.366 . S
C1005 C1007 1.388 . S
C1006 C1005 1.366 . S
C1006 C1010 1.385 . S
C1007 H982 0.951 . S
C1007 C1005 1.388 . S
C1007 C1008 1.366 . S
C1008 C1007 1.366 . S
C1008 C1009 1.414 . S
C1008 C1011 1.499 . S
C1009 H983 0.950 . S
C1009 C1008 1.414 . S
C1009 C1010 1.374 . S
C1010 H984 0.950 . S
C1010 C1006 1.385 . S
C1010 C1009 1.374 . S
C1011 C1008 1.499 . S
C1011 C1012 1.373 . S
C1011 C1013 1.389 . S
C1012 H985 0.950 . S
C1012 C998 1.377 . S
C1012 C1011 1.373 . S
C1013 C997 1.377 . S
C1013 C1011 1.389 . S
C1013 C1014 1.524 . S
C1014 C1013 1.524 . S
C1014 C1015 1.397 . S
C1014 C1019 1.363 . S
C1015 H986 0.950 . S
C1015 C1014 1.397 . S
C1015 C1016 1.334 . S
C1016 H987 0.950 . S
C1016 C1015 1.334 . S
C1016 C1017 1.287 . S
C1017 C1016 1.287 . S
C1017 C1018 1.524 . S
C1017 H1020 0.999 . S
C1018 H988 0.950 . S
C1018 C1017 1.524 . S
C1018 C1019 1.415 . S
C1019 H989 0.950 . S
C1019 C1014 1.363 . S
C1019 C1018 1.415 . S
H1020 C1017 0.999 . S
H1021 C1002 0.913 . S
H1022 C1040 0.951 . S
H1023 C1042 0.951 . S
H1024 C1044 0.950 . S
H1025 C1045 0.950 . S
H1026 C1047 0.950 . S
H1027 C1050 0.950 . S
H1028 C1051 0.950 . S
H1029 C1053 0.950 . S
H1030 C1054 0.950 . S
H1031 C1055 0.951 . S
H1032 C1057 0.951 . S
H1033 C1059 0.950 . S
H1034 C1060 0.950 . S
H1035 C1062 0.950 . S
H1036 C1065 0.950 . S
H1037 C1066 0.950 . S
H1038 C1068 0.950 . S
H1039 C1069 0.950 . S
C1040 H1022 0.951 . S
C1040 C1041 1.366 . S
C1040 C1042 1.388 . S
C1041 C1040 1.366 . S
C1041 C1045 1.385 . S
C1042 H1023 0.951 . S
C1042 C1040 1.388 . S
C1042 C1043 1.366 . S
C1043 C1042 1.366 . S
C1043 C1044 1.414 . S
C1043 C1046 1.499 . S
C1044 H1024 0.950 . S
C1044 C1043 1.414 . S
C1044 C1045 1.374 . S
C1045 H1025 0.950 . S
C1045 C1041 1.385 . S
C1045 C1044 1.374 . S
C1046 C1043 1.499 . S
C1046 C1047 1.373 . S
C1046 C1048 1.389 . S
C1047 H1026 0.950 . S
C1047 C1046 1.373 . S
C1047 C1063 1.377 . S
C1048 C1046 1.389 . S
C1048 C1049 1.524 . S
C1048 C1062 1.377 . S
C1049 C1048 1.524 . S
C1049 C1050 1.397 . S
C1049 C1054 1.363 . S
C1050 H1027 0.950 . S
C1050 C1049 1.397 . S
C1050 C1051 1.334 . S
C1051 H1028 0.950 . S
C1051 C1050 1.334 . S
C1051 C1052 1.287 . S
C1052 C1051 1.287 . S
C1052 C1053 1.524 . S
C1052 H1071 0.913 . S
C1053 H1029 0.950 . S
C1053 C1052 1.524 . S
C1053 C1054 1.415 . S
C1054 H1030 0.950 . S
C1054 C1049 1.363 . S
C1054 C1053 1.415 . S
C1055 H1031 0.951 . S
C1055 C1056 1.366 . S
C1055 C1057 1.388 . S
C1056 C1055 1.366 . S
C1056 C1060 1.385 . S
C1057 H1032 0.951 . S
C1057 C1055 1.388 . S
C1057 C1058 1.366 . S
C1058 C1057 1.366 . S
C1058 C1059 1.414 . S
C1058 C1061 1.499 . S
C1059 H1033 0.950 . S
C1059 C1058 1.414 . S
C1059 C1060 1.374 . S
C1060 H1034 0.950 . S
C1060 C1056 1.385 . S
C1060 C1059 1.374 . S
C1061 C1058 1.499 . S
C1061 C1062 1.373 . S
C1061 C1063 1.389 . S
C1062 H1035 0.950 . S
C1062 C1048 1.377 . S
C1062 C1061 1.373 . S
C1063 C1047 1.377 . S
C1063 C1061 1.389 . S
C1063 C1064 1.524 . S
C1064 C1063 1.524 . S
C1064 C1065 1.397 . S
C1064 C1069 1.363 . S
C1065 H1036 0.950 . S
C1065 C1064 1.397 . S
C1065 C1066 1.334 . S
C1066 H1037 0.950 . S
C1066 C1065 1.334 . S
C1066 C1067 1.287 . S
C1067 C1066 1.287 . S
C1067 C1068 1.524 . S
C1067 H1070 0.999 . S
C1068 H1038 0.950 . S
C1068 C1067 1.524 . S
C1068 C1069 1.415 . S
C1069 H1039 0.950 . S
C1069 C1064 1.363 . S
C1069 C1068 1.415 . S
H1070 C1067 0.999 . S
H1071 C1052 0.913 . S
H1072 C1090 0.951 . S
H1073 C1092 0.951 . S
H1074 C1094 0.950 . S
H1075 C1095 0.950 . S
H1076 C1097 0.950 . S
H1077 C1100 0.950 . S
H1078 C1101 0.950 . S
H1079 C1103 0.950 . S
H1080 C1104 0.950 . S
H1081 C1105 0.951 1_655 S
H1082 C1107 0.951 . S
H1083 C1109 0.950 . S
H1084 C1110 0.950 . S
H1085 C1112 0.897 1_455 S
H1086 C1115 0.950 . S
H1087 C1116 0.950 . S
H1088 C1118 0.950 . S
H1089 C1119 0.950 . S
C1090 H1072 0.951 . S
C1090 C1091 1.366 . S
C1090 C1092 1.388 . S
C1091 C1090 1.366 . S
C1091 C1095 1.385 . S
C1092 H1073 0.951 . S
C1092 C1090 1.388 . S
C1092 C1093 1.366 . S
C1093 C1092 1.366 . S
C1093 C1094 1.414 . S
C1093 C1096 1.499 . S
C1094 H1074 0.950 . S
C1094 C1093 1.414 . S
C1094 C1095 1.374 . S
C1095 H1075 0.950 . S
C1095 C1091 1.385 . S
C1095 C1094 1.374 . S
C1096 C1093 1.499 . S
C1096 C1097 1.373 1_554 S
C1096 C1098 1.389 . S
C1097 H1076 0.950 . S
C1097 C1096 1.373 1_556 S
C1097 C1113 1.377 . S
C1098 C1096 1.389 . S
C1098 C1099 1.524 . S
C1098 C1112 1.409 . S
C1099 C1098 1.524 . S
C1099 C1100 1.397 . S
C1099 C1104 1.363 1_655 S
C1100 H1077 0.950 . S
C1100 C1099 1.397 . S
C1100 C1101 1.334 . S
C1101 H1078 0.950 . S
C1101 C1100 1.334 . S
C1101 C1102 1.287 1_655 S
C1102 C1101 1.287 1_455 S
C1102 C1103 1.524 . S
C1102 H1121 0.913 . S
C1103 H1079 0.950 . S
C1103 C1102 1.524 . S
C1103 C1104 1.415 . S
C1104 H1080 0.950 . S
C1104 C1099 1.363 1_455 S
C1104 C1103 1.415 . S
C1105 H1081 0.951 1_455 S
C1105 C1106 1.366 . S
C1105 C1107 1.388 1_455 S
C1106 C1105 1.366 . S
C1106 C1110 1.385 . S
C1107 H1082 0.951 . S
C1107 C1105 1.388 1_655 S
C1107 C1108 1.366 1_655 S
C1108 C1107 1.366 1_455 S
C1108 C1109 1.414 . S
C1108 C1111 1.499 1_455 S
C1109 H1083 0.950 . S
C1109 C1108 1.414 . S
C1109 C1110 1.374 . S
C1110 H1084 0.950 . S
C1110 C1106 1.385 . S
C1110 C1109 1.374 . S
C1111 C1108 1.499 1_655 S
C1111 C1112 1.397 1_556 S
C1111 C1113 1.389 . S
C1112 H1085 0.897 1_655 S
C1112 C1098 1.409 . S
C1112 C1111 1.397 1_554 S
C1113 C1097 1.377 . S
C1113 C1111 1.389 . S
C1113 C1114 1.524 . S
C1114 C1113 1.524 . S
C1114 C1115 1.397 . S
C1114 C1119 1.363 . S
C1115 H1086 0.950 . S
C1115 C1114 1.397 . S
C1115 C1116 1.334 . S
C1116 H1087 0.950 . S
C1116 C1115 1.334 . S
C1116 C1117 1.287 . S
C1117 C1116 1.287 . S
C1117 C1118 1.524 . S
C1117 H1120 0.999 . S
C1118 H1088 0.950 . S
C1118 C1117 1.524 . S
C1118 C1119 1.415 . S
C1119 H1089 0.950 . S
C1119 C1114 1.363 . S
C1119 C1118 1.415 . S
H1120 C1117 0.999 . S
H1121 C1102 0.913 . S
H1122 C1140 0.951 . S
H1123 C1142 0.951 . S
H1124 C1144 0.950 . S
H1125 C1145 0.950 . S
H1126 C1147 0.950 . S
H1127 C1150 0.950 . S
H1128 C1151 0.950 . S
H1129 C1153 0.950 . S
H1130 C1154 0.950 . S
H1131 C1155 0.951 . S
H1132 C1157 0.951 . S
H1133 C1159 0.950 . S
H1134 C1160 0.945 1_554 S
H1135 C1162 0.979 . S
H1136 C1165 0.950 . S
H1137 C1166 0.950 . S
H1138 C1168 0.950 . S
H1139 C1169 0.950 . S
C1140 H1122 0.951 . S
C1140 C1141 1.366 . S
C1140 C1142 1.381 1_565 S
C1141 C1140 1.366 . S
C1141 C1145 1.371 1_565 S
C1142 H1123 0.951 . S
C1142 C1140 1.381 1_545 S
C1142 C1143 1.375 . S
C1143 C1142 1.375 . S
C1143 C1144 1.414 . S
C1143 C1146 1.499 . S
C1144 H1124 0.950 . S
C1144 C1143 1.414 . S
C1144 C1145 1.387 . S
C1145 H1125 0.950 . S
C1145 C1141 1.371 1_545 S
C1145 C1144 1.387 . S
C1146 C1143 1.499 . S
C1146 C1147 1.373 . S
C1146 C1148 1.389 1_545 S
C1147 H1126 0.950 . S
C1147 C1146 1.373 . S
C1147 C1163 1.377 . S
C1148 C1146 1.389 1_565 S
C1148 C1149 1.524 . S
C1148 C1162 1.390 . S
C1149 C1148 1.524 . S
C1149 C1150 1.397 . S
C1149 C1154 1.363 . S
C1150 H1127 0.950 . S
C1150 C1149 1.397 . S
C1150 C1151 1.334 . S
C1151 H1128 0.950 . S
C1151 C1150 1.334 . S
C1151 C1152 1.287 . S
C1152 C1151 1.287 . S
C1152 C1153 1.524 . S
C1152 H1171 0.913 . S
C1153 H1129 0.950 . S
C1153 C1152 1.524 . S
C1153 C1154 1.415 . S
C1154 H1130 0.950 . S
C1154 C1149 1.363 . S
C1154 C1153 1.415 . S
C1155 H1131 0.951 . S
C1155 C1156 1.366 . S
C1155 C1157 1.388 . S
C1156 C1155 1.366 . S
C1156 C1160 1.385 . S
C1157 H1132 0.951 . S
C1157 C1155 1.388 . S
C1157 C1158 1.366 . S
C1158 C1157 1.366 . S
C1158 C1159 1.414 1_556 S
C1158 C1161 1.499 1_556 S
C1159 H1133 0.950 . S
C1159 C1158 1.414 1_554 S
C1159 C1160 1.374 1_554 S
C1160 H1134 0.945 1_556 S
C1160 C1156 1.385 . S
C1160 C1159 1.374 1_556 S
C1161 C1158 1.499 1_554 S
C1161 C1162 1.333 1_545 S
C1161 C1163 1.389 . S
C1162 H1135 0.979 . S
C1162 C1148 1.390 . S
C1162 C1161 1.333 1_565 S
C1163 C1147 1.377 . S
C1163 C1161 1.389 . S
C1163 C1164 1.524 1_554 S
C1164 C1163 1.524 1_556 S
C1164 C1165 1.397 1_556 S
C1164 C1169 1.363 . S
C1165 H1136 0.950 . S
C1165 C1164 1.397 1_554 S
C1165 C1166 1.334 1_554 S
C1166 H1137 0.950 . S
C1166 C1165 1.334 1_556 S
C1166 C1167 1.287 . S
C1167 C1166 1.287 . S
C1167 C1168 1.524 . S
C1167 H1170 0.999 . S
C1168 H1138 0.950 . S
C1168 C1167 1.524 . S
C1168 C1169 1.415 . S
C1169 H1139 0.950 . S
C1169 C1164 1.363 . S
C1169 C1168 1.415 . S
H1170 C1167 0.999 . S
H1171 C1152 0.913 . S
H1172 C1190 0.951 . S
H1173 C1192 0.951 . S
H1174 C1194 0.950 . S
H1175 C1195 0.950 . S
H1176 C1197 0.950 . S
H1177 C1200 0.950 . S
H1178 C1201 0.950 . S
H1179 C1203 0.950 . S
H1180 C1204 0.950 . S
H1181 C1205 0.951 . S
H1182 C1207 0.951 . S
H1183 C1209 0.950 . S
H1184 C1210 0.950 . S
H1185 C1212 0.950 . S
H1186 C1215 0.950 . S
H1187 C1216 0.950 . S
H1188 C1218 0.950 . S
H1189 C1219 0.950 . S
C1190 H1172 0.951 . S
C1190 C1191 1.366 . S
C1190 C1192 1.388 . S
C1191 C1190 1.366 . S
C1191 C1195 1.385 . S
C1192 H1173 0.951 . S
C1192 C1190 1.388 . S
C1192 C1193 1.366 . S
C1193 C1192 1.366 . S
C1193 C1194 1.414 . S
C1193 C1196 1.499 . S
C1194 H1174 0.950 . S
C1194 C1193 1.414 . S
C1194 C1195 1.374 . S
C1195 H1175 0.950 . S
C1195 C1191 1.385 . S
C1195 C1194 1.374 . S
C1196 C1193 1.499 . S
C1196 C1197 1.373 . S
C1196 C1198 1.389 . S
C1197 H1176 0.950 . S
C1197 C1196 1.373 . S
C1197 C1213 1.377 . S
C1198 C1196 1.389 . S
C1198 C1199 1.524 . S
C1198 C1212 1.377 . S
C1199 C1198 1.524 . S
C1199 C1200 1.397 . S
C1199 C1204 1.363 . S
C1200 H1177 0.950 . S
C1200 C1199 1.397 . S
C1200 C1201 1.334 . S
C1201 H1178 0.950 . S
C1201 C1200 1.334 . S
C1201 C1202 1.287 . S
C1202 C1201 1.287 . S
C1202 C1203 1.524 . S
C1202 H1221 0.913 . S
C1203 H1179 0.950 . S
C1203 C1202 1.524 . S
C1203 C1204 1.415 . S
C1204 H1180 0.950 . S
C1204 C1199 1.363 . S
C1204 C1203 1.415 . S
C1205 H1181 0.951 . S
C1205 C1206 1.366 . S
C1205 C1207 1.388 . S
C1206 C1205 1.366 . S
C1206 C1210 1.385 . S
C1207 H1182 0.951 . S
C1207 C1205 1.388 . S
C1207 C1208 1.366 . S
C1208 C1207 1.366 . S
C1208 C1209 1.414 . S
C1208 C1211 1.499 . S
C1209 H1183 0.950 . S
C1209 C1208 1.414 . S
C1209 C1210 1.374 . S
C1210 H1184 0.950 . S
C1210 C1206 1.385 . S
C1210 C1209 1.374 . S
C1211 C1208 1.499 . S
C1211 C1212 1.373 . S
C1211 C1213 1.389 . S
C1212 H1185 0.950 . S
C1212 C1198 1.377 . S
C1212 C1211 1.373 . S
C1213 C1197 1.377 . S
C1213 C1211 1.389 . S
C1213 C1214 1.524 . S
C1214 C1213 1.524 . S
C1214 C1215 1.397 . S
C1214 C1219 1.363 . S
C1215 H1186 0.950 . S
C1215 C1214 1.397 . S
C1215 C1216 1.334 . S
C1216 H1187 0.950 . S
C1216 C1215 1.334 . S
C1216 C1217 1.287 . S
C1217 C1216 1.287 . S
C1217 C1218 1.524 . S
C1217 H1220 0.999 . S
C1218 H1188 0.950 . S
C1218 C1217 1.524 . S
C1218 C1219 1.415 . S
C1219 H1189 0.950 . S
C1219 C1214 1.363 . S
C1219 C1218 1.415 . S
H1220 C1217 0.999 . S
H1221 C1202 0.913 . S
H1222 C1240 0.951 . S
H1223 C1242 0.951 . S
H1224 C1244 0.950 . S
H1225 C1245 0.950 . S
H1226 C1247 0.950 1_556 S
H1227 C1250 0.950 . S
H1228 C1251 0.950 . S
H1229 C1253 0.950 . S
H1230 C1254 0.950 . S
H1231 C1255 0.951 . S
H1232 C1257 0.951 . S
H1233 C1259 0.950 1_554 S
H1234 C1260 0.950 . S
H1235 C1262 0.950 . S
H1236 C1265 0.950 . S
H1237 C1266 0.950 . S
H1238 C1268 0.950 . S
H1239 C1269 0.950 . S
C1240 H1222 0.951 . S
C1240 C1241 1.366 . S
C1240 C1242 1.388 . S
C1241 C1240 1.366 . S
C1241 C1245 1.385 . S
C1242 H1223 0.951 . S
C1242 C1240 1.388 . S
C1242 C1243 1.366 . S
C1243 C1242 1.366 . S
C1243 C1244 1.414 . S
C1243 C1246 1.499 . S
C1244 H1224 0.950 . S
C1244 C1243 1.414 . S
C1244 C1245 1.374 . S
C1245 H1225 0.950 . S
C1245 C1241 1.385 . S
C1245 C1244 1.374 . S
C1246 C1243 1.499 . S
C1246 C1247 1.373 . S
C1246 C1248 1.389 . S
C1247 H1226 0.950 1_554 S
C1247 C1246 1.373 . S
C1247 C1263 1.377 1_554 S
C1248 C1246 1.389 . S
C1248 C1249 1.524 . S
C1248 C1262 1.377 . S
C1249 C1248 1.524 . S
C1249 C1250 1.397 . S
C1249 C1254 1.363 . S
C1250 H1227 0.950 . S
C1250 C1249 1.397 . S
C1250 C1251 1.334 . S
C1251 H1228 0.950 . S
C1251 C1250 1.334 . S
C1251 C1252 1.287 . S
C1252 C1251 1.287 . S
C1252 C1253 1.524 . S
C1252 H1271 0.913 . S
C1253 H1229 0.950 . S
C1253 C1252 1.524 . S
C1253 C1254 1.415 . S
C1254 H1230 0.950 . S
C1254 C1249 1.363 . S
C1254 C1253 1.415 . S
C1255 H1231 0.951 . S
C1255 C1256 1.366 . S
C1255 C1257 1.388 . S
C1256 C1255 1.366 . S
C1256 C1260 1.385 . S
C1257 H1232 0.951 . S
C1257 C1255 1.388 . S
C1257 C1258 1.366 . S
C1258 C1257 1.366 . S
C1258 C1259 1.414 . S
C1258 C1261 1.499 . S
C1259 H1233 0.950 1_556 S
C1259 C1258 1.414 . S
C1259 C1260 1.374 . S
C1260 H1234 0.950 . S
C1260 C1256 1.385 . S
C1260 C1259 1.374 . S
C1261 C1258 1.499 . S
C1261 C1262 1.373 1_556 S
C1261 C1263 1.389 . S
C1262 H1235 0.950 . S
C1262 C1248 1.377 . S
C1262 C1261 1.373 1_554 S
C1263 C1247 1.377 1_556 S
C1263 C1261 1.389 . S
C1263 C1264 1.524 . S
C1264 C1263 1.524 . S
C1264 C1265 1.397 . S
C1264 C1269 1.363 . S
C1265 H1236 0.950 . S
C1265 C1264 1.397 . S
C1265 C1266 1.334 . S
C1266 H1237 0.950 . S
C1266 C1265 1.334 . S
C1266 C1267 1.287 . S
C1267 C1266 1.287 . S
C1267 C1268 1.524 . S
C1267 H1270 0.999 . S
C1268 H1238 0.950 . S
C1268 C1267 1.524 . S
C1268 C1269 1.415 . S
C1269 H1239 0.950 . S
C1269 C1264 1.363 . S
C1269 C1268 1.415 . S
H1270 C1267 0.999 . S
H1271 C1252 0.913 . S
H1272 C1290 0.951 . S
H1273 C1292 0.951 . S
H1274 C1294 0.950 . S
H1275 C1295 0.950 1_554 S
H1276 C1297 0.950 . S
H1277 C1300 0.950 . S
H1278 C1301 0.940 1_655 S
H1279 C1303 0.950 . S
H1280 C1304 0.950 . S
H1281 C1305 0.951 . S
H1282 C1307 0.951 . S
H1283 C1309 0.950 . S
H1284 C1310 0.950 . S
H1285 C1312 0.950 . S
H1286 C1315 0.950 . S
H1287 C1316 0.950 . S
H1288 C1318 0.950 . S
H1289 C1319 0.950 . S
C1290 H1272 0.951 . S
C1290 C1291 1.366 . S
C1290 C1292 1.388 . S
C1291 C1290 1.366 . S
C1291 C1295 1.385 . S
C1292 H1273 0.951 . S
C1292 C1290 1.388 . S
C1292 C1293 1.366 . S
C1293 C1292 1.366 . S
C1293 C1294 1.414 . S
C1293 C1296 1.499 . S
C1294 H1274 0.950 . S
C1294 C1293 1.414 . S
C1294 C1295 1.374 . S
C1295 H1275 0.950 1_556 S
C1295 C1291 1.385 . S
C1295 C1294 1.374 . S
C1296 C1293 1.499 . S
C1296 C1297 1.373 . S
C1296 C1298 1.389 . S
C1297 H1276 0.950 . S
C1297 C1296 1.373 . S
C1297 C1313 1.377 . S
C1298 C1296 1.389 . S
C1298 C1299 1.524 . S
C1298 C1312 1.377 . S
C1299 C1298 1.524 . S
C1299 C1300 1.397 . S
C1299 C1304 1.363 . S
C1300 H1277 0.950 . S
C1300 C1299 1.397 . S
C1300 C1301 1.363 . S
C1301 H1278 0.940 1_455 S
C1301 C1300 1.363 . S
C1301 C1302 1.271 1_455 S
C1302 C1301 1.271 1_655 S
C1302 C1303 1.524 . S
C1302 H1321 0.913 . S
C1303 H1279 0.950 . S
C1303 C1302 1.524 . S
C1303 C1304 1.415 1_655 S
C1304 H1280 0.950 . S
C1304 C1299 1.363 . S
C1304 C1303 1.415 1_455 S
C1305 H1281 0.951 . S
C1305 C1306 1.366 . S
C1305 C1307 1.388 . S
C1306 C1305 1.366 . S
C1306 C1310 1.385 . S
C1307 H1282 0.951 . S
C1307 C1305 1.388 . S
C1307 C1308 1.366 . S
C1308 C1307 1.366 . S
C1308 C1309 1.414 . S
C1308 C1311 1.499 . S
C1309 H1283 0.950 . S
C1309 C1308 1.414 . S
C1309 C1310 1.374 . S
C1310 H1284 0.950 . S
C1310 C1306 1.385 . S
C1310 C1309 1.374 . S
C1311 C1308 1.499 . S
C1311 C1312 1.373 . S
C1311 C1313 1.389 . S
C1312 H1285 0.950 . S
C1312 C1298 1.377 . S
C1312 C1311 1.373 . S
C1313 C1297 1.377 . S
C1313 C1311 1.389 . S
C1313 C1314 1.524 . S
C1314 C1313 1.524 . S
C1314 C1315 1.397 . S
C1314 C1319 1.363 . S
C1315 H1286 0.950 . S
C1315 C1314 1.397 . S
C1315 C1316 1.334 . S
C1316 H1287 0.950 . S
C1316 C1315 1.334 . S
C1316 C1317 1.287 . S
C1317 C1316 1.287 . S
C1317 C1318 1.524 . S
C1317 H1320 0.999 . S
C1318 H1288 0.950 . S
C1318 C1317 1.524 . S
C1318 C1319 1.415 . S
C1319 H1289 0.950 . S
C1319 C1314 1.363 . S
C1319 C1318 1.415 . S
H1320 C1317 0.999 . S
H1321 C1302 0.913 . S
H1322 C1340 0.951 . S
H1323 C1342 0.951 . S
H1324 C1344 0.950 . S
H1325 C1345 0.950 . S
H1326 C1347 0.950 . S
H1327 C1350 0.950 . S
H1328 C1351 0.950 . S
H1329 C1353 0.950 . S
H1330 C1354 0.950 . S
H1331 C1355 0.951 . S
H1332 C1357 0.951 . S
H1333 C1359 0.950 . S
H1334 C1360 0.970 . S
H1335 C1362 0.950 . S
H1336 C1365 0.950 . S
H1337 C1366 0.950 . S
H1338 C1368 0.950 . S
H1339 C1369 0.950 . S
C1340 H1322 0.951 . S
C1340 C1341 1.354 1_565 S
C1340 C1342 1.388 . S
C1341 C1340 1.354 1_545 S
C1341 C1345 1.400 . S
C1342 H1323 0.951 . S
C1342 C1340 1.388 . S
C1342 C1343 1.366 1_565 S
C1343 C1342 1.366 1_545 S
C1343 C1344 1.414 . S
C1343 C1346 1.499 . S
C1344 H1324 0.950 . S
C1344 C1343 1.414 . S
C1344 C1345 1.374 . S
C1345 H1325 0.950 . S
C1345 C1341 1.400 . S
C1345 C1344 1.374 . S
C1346 C1343 1.499 . S
C1346 C1347 1.373 1_545 S
C1346 C1348 1.389 . S
C1347 H1326 0.950 . S
C1347 C1346 1.373 1_565 S
C1347 C1363 1.377 . S
C1348 C1346 1.389 . S
C1348 C1349 1.524 . S
C1348 C1362 1.377 . S
C1349 C1348 1.524 . S
C1349 C1350 1.397 . S
C1349 C1354 1.363 1_556 S
C1350 H1327 0.950 . S
C1350 C1349 1.397 . S
C1350 C1351 1.334 . S
C1351 H1328 0.950 . S
C1351 C1350 1.334 . S
C1351 C1352 1.287 1_556 S
C1352 C1351 1.287 1_554 S
C1352 C1353 1.524 . S
C1352 H1371 0.913 . S
C1353 H1329 0.950 . S
C1353 C1352 1.524 . S
C1353 C1354 1.415 . S
C1354 H1330 0.950 . S
C1354 C1349 1.363 1_554 S
C1354 C1353 1.415 . S
C1355 H1331 0.951 . S
C1355 C1356 1.366 . S
C1355 C1357 1.388 . S
C1356 C1355 1.366 . S
C1356 C1360 1.365 1_545 S
C1357 H1332 0.951 . S
C1357 C1355 1.388 . S
C1357 C1358 1.366 . S
C1358 C1357 1.366 . S
C1358 C1359 1.414 1_545 S
C1358 C1361 1.499 . S
C1359 H1333 0.950 . S
C1359 C1358 1.414 1_565 S
C1359 C1360 1.378 . S
C1360 H1334 0.970 . S
C1360 C1356 1.365 1_565 S
C1360 C1359 1.378 . S
C1361 C1358 1.499 . S
C1361 C1362 1.373 . S
C1361 C1363 1.389 1_545 S
C1362 H1335 0.950 . S
C1362 C1348 1.377 . S
C1362 C1361 1.373 . S
C1363 C1347 1.377 . S
C1363 C1361 1.389 1_565 S
C1363 C1364 1.524 . S
C1364 C1363 1.524 . S
C1364 C1365 1.397 . S
C1364 C1369 1.363 . S
C1365 H1336 0.950 . S
C1365 C1364 1.397 . S
C1365 C1366 1.334 . S
C1366 H1337 0.950 . S
C1366 C1365 1.334 . S
C1366 C1367 1.287 . S
C1367 C1366 1.287 . S
C1367 C1368 1.524 . S
C1367 H1370 0.999 . S
C1368 H1338 0.950 . S
C1368 C1367 1.524 . S
C1368 C1369 1.415 . S
C1369 H1339 0.950 . S
C1369 C1364 1.363 . S
C1369 C1368 1.415 . S
H1370 C1367 0.999 . S
H1371 C1352 0.913 . S
H1372 C1390 0.951 . S
H1373 C1392 0.951 . S
H1374 C1394 0.950 . S
H1375 C1395 0.950 . S
H1376 C1397 0.950 . S
H1377 C1400 0.950 . S
H1378 C1401 0.950 . S
H1379 C1403 0.950 . S
H1380 C1404 0.950 . S
H1381 C1405 0.951 . S
H1382 C1407 0.951 . S
H1383 C1409 0.950 1_556 S
H1384 C1410 0.950 . S
H1385 C1412 0.950 . S
H1386 C1415 0.950 . S
H1387 C1416 0.950 1_556 S
H1388 C1418 0.950 . S
H1389 C1419 0.950 . S
C1390 H1372 0.951 . S
C1390 C1391 1.366 . S
C1390 C1392 1.388 . S
C1391 C1390 1.366 . S
C1391 C1395 1.385 . S
C1392 H1373 0.951 . S
C1392 C1390 1.388 . S
C1392 C1393 1.366 . S
C1393 C1392 1.366 . S
C1393 C1394 1.414 . S
C1393 C1396 1.499 . S
C1394 H1374 0.950 . S
C1394 C1393 1.414 . S
C1394 C1395 1.374 . S
C1395 H1375 0.950 . S
C1395 C1391 1.385 . S
C1395 C1394 1.374 . S
C1396 C1393 1.499 . S
C1396 C1397 1.373 . S
C1396 C1398 1.389 . S
C1397 H1376 0.950 . S
C1397 C1396 1.373 . S
C1397 C1413 1.377 . S
C1398 C1396 1.389 . S
C1398 C1399 1.524 . S
C1398 C1412 1.377 . S
C1399 C1398 1.524 . S
C1399 C1400 1.397 . S
C1399 C1404 1.363 . S
C1400 H1377 0.950 . S
C1400 C1399 1.397 . S
C1400 C1401 1.334 . S
C1401 H1378 0.950 . S
C1401 C1400 1.334 . S
C1401 C1402 1.287 . S
C1402 C1401 1.287 . S
C1402 C1403 1.524 . S
C1402 H1421 0.913 . S
C1403 H1379 0.950 . S
C1403 C1402 1.524 . S
C1403 C1404 1.415 . S
C1404 H1380 0.950 . S
C1404 C1399 1.363 . S
C1404 C1403 1.415 . S
C1405 H1381 0.951 . S
C1405 C1406 1.366 1_554 S
C1405 C1407 1.388 . S
C1406 C1405 1.366 1_556 S
C1406 C1410 1.385 . S
C1407 H1382 0.951 . S
C1407 C1405 1.388 . S
C1407 C1408 1.366 . S
C1408 C1407 1.366 . S
C1408 C1409 1.414 . S
C1408 C1411 1.499 . S
C1409 H1383 0.950 1_554 S
C1409 C1408 1.414 . S
C1409 C1410 1.374 1_554 S
C1410 H1384 0.950 . S
C1410 C1406 1.385 . S
C1410 C1409 1.374 1_556 S
C1411 C1408 1.499 . S
C1411 C1412 1.373 . S
C1411 C1413 1.389 . S
C1412 H1385 0.950 . S
C1412 C1398 1.377 . S
C1412 C1411 1.373 . S
C1413 C1397 1.377 . S
C1413 C1411 1.389 . S
C1413 C1414 1.524 . S
C1414 C1413 1.524 . S
C1414 C1415 1.397 . S
C1414 C1419 1.363 . S
C1415 H1386 0.950 . S
C1415 C1414 1.397 . S
C1415 C1416 1.334 . S
C1416 H1387 0.950 1_554 S
C1416 C1415 1.334 . S
C1416 C1417 1.287 . S
C1417 C1416 1.287 . S
C1417 C1418 1.524 . S
C1417 H1420 0.999 . S
C1418 H1388 0.950 . S
C1418 C1417 1.524 . S
C1418 C1419 1.415 . S
C1419 H1389 0.950 . S
C1419 C1414 1.363 . S
C1419 C1418 1.415 . S
H1420 C1417 0.999 . S
H1421 C1402 0.913 . S
H1422 C1440 0.951 . S
H1423 C1442 0.951 . S
H1424 C1444 0.950 . S
H1425 C1445 0.950 . S
H1426 C1447 0.950 . S
H1427 C1450 0.950 . S
H1428 C1451 0.950 . S
H1429 C1453 0.950 . S
H1430 C1454 0.950 . S
H1431 C1455 0.951 . S
H1432 C1457 0.951 . S
H1433 C1459 0.950 . S
H1434 C1460 0.950 . S
H1435 C1462 0.950 . S
H1436 C1465 0.950 . S
H1437 C1466 0.950 1_554 S
H1438 C1468 0.950 . S
H1439 C1469 0.950 . S
C1440 H1422 0.951 . S
C1440 C1441 1.366 . S
C1440 C1442 1.388 . S
C1441 C1440 1.366 . S
C1441 C1445 1.385 . S
C1442 H1423 0.951 . S
C1442 C1440 1.388 . S
C1442 C1443 1.366 . S
C1443 C1442 1.366 . S
C1443 C1444 1.414 . S
C1443 C1446 1.499 . S
C1444 H1424 0.950 . S
C1444 C1443 1.414 . S
C1444 C1445 1.374 . S
C1445 H1425 0.950 . S
C1445 C1441 1.385 . S
C1445 C1444 1.374 . S
C1446 C1443 1.499 . S
C1446 C1447 1.373 . S
C1446 C1448 1.389 . S
C1447 H1426 0.950 . S
C1447 C1446 1.373 . S
C1447 C1463 1.377 . S
C1448 C1446 1.389 . S
C1448 C1449 1.524 . S
C1448 C1462 1.377 . S
C1449 C1448 1.524 . S
C1449 C1450 1.397 . S
C1449 C1454 1.363 . S
C1450 H1427 0.950 . S
C1450 C1449 1.397 . S
C1450 C1451 1.334 . S
C1451 H1428 0.950 . S
C1451 C1450 1.334 . S
C1451 C1452 1.287 . S
C1452 C1451 1.287 . S
C1452 C1453 1.524 . S
C1452 H1471 0.913 . S
C1453 H1429 0.950 . S
C1453 C1452 1.524 . S
C1453 C1454 1.415 . S
C1454 H1430 0.950 . S
C1454 C1449 1.363 . S
C1454 C1453 1.415 . S
C1455 H1431 0.951 . S
C1455 C1456 1.366 . S
C1455 C1457 1.388 . S
C1456 C1455 1.366 . S
C1456 C1460 1.385 . S
C1457 H1432 0.951 . S
C1457 C1455 1.388 . S
C1457 C1458 1.366 . S
C1458 C1457 1.366 . S
C1458 C1459 1.414 . S
C1458 C1461 1.499 . S
C1459 H1433 0.950 . S
C1459 C1458 1.414 . S
C1459 C1460 1.374 . S
C1460 H1434 0.950 . S
C1460 C1456 1.385 . S
C1460 C1459 1.374 . S
C1461 C1458 1.499 . S
C1461 C1462 1.373 . S
C1461 C1463 1.389 . S
C1462 H1435 0.950 . S
C1462 C1448 1.377 . S
C1462 C1461 1.373 . S
C1463 C1447 1.377 . S
C1463 C1461 1.389 . S
C1463 C1464 1.524 . S
C1464 C1463 1.524 . S
C1464 C1465 1.397 . S
C1464 C1469 1.363 . S
C1465 H1436 0.950 . S
C1465 C1464 1.397 . S
C1465 C1466 1.334 . S
C1466 H1437 0.950 1_556 S
C1466 C1465 1.334 . S
C1466 C1467 1.287 . S
C1467 C1466 1.287 . S
C1467 C1468 1.524 . S
C1467 H1470 0.999 1_556 S
C1468 H1438 0.950 . S
C1468 C1467 1.524 . S
C1468 C1469 1.415 . S
C1469 H1439 0.950 . S
C1469 C1464 1.363 . S
C1469 C1468 1.415 . S
H1470 C1467 0.999 1_554 S
H1471 C1452 0.913 . S
H1472 C1490 0.951 . S
H1473 C1492 0.951 . S
H1474 C1494 0.950 . S
H1475 C1495 0.950 . S
H1476 C1497 0.950 . S
H1477 C1500 0.950 . S
H1478 C1501 0.950 . S
H1479 C1503 0.950 . S
H1480 C1504 0.950 . S
H1481 C1505 0.951 . S
H1482 C1507 0.951 . S
H1483 C1509 0.970 . S
H1484 C1510 0.950 1_455 S
H1485 C1512 0.950 . S
H1486 C1515 0.950 1_455 S
H1487 C1516 0.950 . S
H1488 C1518 0.950 . S
H1489 C1519 0.950 . S
C1490 H1472 0.951 . S
C1490 C1491 1.366 . S
C1490 C1492 1.388 . S
C1491 C1490 1.366 . S
C1491 C1495 1.385 . S
C1492 H1473 0.951 . S
C1492 C1490 1.388 . S
C1492 C1493 1.366 . S
C1493 C1492 1.366 . S
C1493 C1494 1.414 . S
C1493 C1496 1.499 . S
C1494 H1474 0.950 . S
C1494 C1493 1.414 . S
C1494 C1495 1.374 . S
C1495 H1475 0.950 . S
C1495 C1491 1.385 . S
C1495 C1494 1.374 . S
C1496 C1493 1.499 . S
C1496 C1497 1.373 . S
C1496 C1498 1.389 . S
C1497 H1476 0.950 . S
C1497 C1496 1.373 . S
C1497 C1513 1.377 . S
C1498 C1496 1.389 . S
C1498 C1499 1.524 . S
C1498 C1512 1.377 . S
C1499 C1498 1.524 . S
C1499 C1500 1.397 . S
C1499 C1504 1.363 . S
C1500 H1477 0.950 . S
C1500 C1499 1.397 . S
C1500 C1501 1.334 . S
C1501 H1478 0.950 . S
C1501 C1500 1.334 . S
C1501 C1502 1.287 . S
C1502 C1501 1.287 . S
C1502 C1503 1.524 . S
C1502 H1521 0.913 . S
C1503 H1479 0.950 . S
C1503 C1502 1.524 . S
C1503 C1504 1.415 . S
C1504 H1480 0.950 . S
C1504 C1499 1.363 . S
C1504 C1503 1.415 . S
C1505 H1481 0.951 . S
C1505 C1506 1.366 . S
C1505 C1507 1.388 . S
C1506 C1505 1.366 . S
C1506 C1510 1.385 . S
C1507 H1482 0.951 . S
C1507 C1505 1.388 . S
C1507 C1508 1.366 . S
C1508 C1507 1.366 . S
C1508 C1509 1.414 . S
C1508 C1511 1.499 . S
C1509 H1483 0.970 . S
C1509 C1508 1.414 . S
C1509 C1510 1.374 . S
C1510 H1484 0.950 1_655 S
C1510 C1506 1.385 . S
C1510 C1509 1.374 . S
C1511 C1508 1.499 . S
C1511 C1512 1.373 . S
C1511 C1513 1.389 . S
C1512 H1485 0.950 . S
C1512 C1498 1.377 . S
C1512 C1511 1.373 . S
C1513 C1497 1.377 . S
C1513 C1511 1.389 . S
C1513 C1514 1.524 . S
C1514 C1513 1.524 . S
C1514 C1515 1.397 . S
C1514 C1519 1.363 . S
C1515 H1486 0.950 1_655 S
C1515 C1514 1.397 . S
C1515 C1516 1.334 1_655 S
C1516 H1487 0.950 . S
C1516 C1515 1.334 1_455 S
C1516 C1517 1.287 1_455 S
C1517 C1516 1.287 1_655 S
C1517 C1518 1.524 . S
C1517 H1520 0.999 . S
C1518 H1488 0.950 . S
C1518 C1517 1.524 . S
C1518 C1519 1.415 . S
C1519 H1489 0.950 . S
C1519 C1514 1.363 . S
C1519 C1518 1.415 . S
H1520 C1517 0.999 . S
H1521 C1502 0.913 . S
H1522 C1540 0.951 . S
H1523 C1542 0.951 . S
H1524 C1544 0.950 . S
H1525 C1545 0.950 . S
H1526 C1547 0.950 . S
H1527 C1550 0.950 . S
H1528 C1551 0.950 . S
H1529 C1553 0.950 . S
H1530 C1554 0.950 . S
H1531 C1555 0.951 . S
H1532 C1557 0.951 . S
H1533 C1559 0.950 . S
H1534 C1560 0.950 . S
H1535 C1562 0.950 . S
H1536 C1565 0.950 . S
H1537 C1566 0.950 . S
H1538 C1568 0.950 . S
H1539 C1569 0.950 . S
C1540 H1522 0.951 . S
C1540 C1541 1.356 1_545 S
C1540 C1542 1.388 . S
C1541 C1540 1.356 1_565 S
C1541 C1545 1.395 . S
C1542 H1523 0.951 . S
C1542 C1540 1.388 . S
C1542 C1543 1.361 1_545 S
C1543 C1542 1.361 1_565 S
C1543 C1544 1.419 . S
C1543 C1546 1.497 . S
C1544 H1524 0.950 . S
C1544 C1543 1.419 . S
C1544 C1545 1.374 . S
C1545 H1525 0.950 . S
C1545 C1541 1.395 . S
C1545 C1544 1.374 . S
C1546 C1543 1.497 . S
C1546 C1547 1.416 . S
C1546 C1548 1.352 1_565 S
C1547 H1526 0.950 . S
C1547 C1546 1.416 . S
C1547 C1563 1.377 . S
C1548 C1546 1.352 1_545 S
C1548 C1549 1.524 . S
C1548 C1562 1.377 . S
C1549 C1548 1.524 . S
C1549 C1550 1.397 . S
C1549 C1554 1.363 . S
C1550 H1527 0.950 . S
C1550 C1549 1.397 . S
C1550 C1551 1.334 . S
C1551 H1528 0.950 . S
C1551 C1550 1.334 . S
C1551 C1552 1.287 . S
C1552 C1551 1.287 . S
C1552 C1553 1.524 . S
C1552 H1571 0.913 . S
C1553 H1529 0.950 . S
C1553 C1552 1.524 . S
C1553 C1554 1.415 . S
C1554 H1530 0.950 . S
C1554 C1549 1.363 . S
C1554 C1553 1.415 . S
C1555 H1531 0.951 . S
C1555 C1556 1.366 . S
C1555 C1557 1.388 . S
C1556 C1555 1.366 . S
C1556 C1560 1.385 1_565 S
C1557 H1532 0.951 . S
C1557 C1555 1.388 . S
C1557 C1558 1.366 . S
C1558 C1557 1.366 . S
C1558 C1559 1.414 1_565 S
C1558 C1561 1.499 . S
C1559 H1533 0.950 . S
C1559 C1558 1.414 1_545 S
C1559 C1560 1.374 . S
C1560 H1534 0.950 . S
C1560 C1556 1.385 1_545 S
C1560 C1559 1.374 . S
C1561 C1558 1.499 . S
C1561 C1562 1.373 1_565 S
C1561 C1563 1.389 . S
C1562 H1535 0.950 . S
C1562 C1548 1.377 . S
C1562 C1561 1.373 1_545 S
C1563 C1547 1.377 . S
C1563 C1561 1.389 . S
C1563 C1564 1.524 . S
C1564 C1563 1.524 . S
C1564 C1565 1.397 . S
C1564 C1569 1.363 . S
C1565 H1536 0.950 . S
C1565 C1564 1.397 . S
C1565 C1566 1.334 . S
C1566 H1537 0.950 . S
C1566 C1565 1.334 . S
C1566 C1567 1.287 . S
C1567 C1566 1.287 . S
C1567 C1568 1.524 . S
C1567 H1570 0.999 . S
C1568 H1538 0.950 . S
C1568 C1567 1.524 . S
C1568 C1569 1.415 . S
C1569 H1539 0.950 . S
C1569 C1564 1.363 . S
C1569 C1568 1.415 . S
H1570 C1567 0.999 . S
H1571 C1552 0.913 . S
H1572 C1590 0.951 . S
H1573 C1592 0.951 . S
H1574 C1594 0.950 . S
H1575 C1595 0.950 . S
H1576 C1597 0.950 . S
H1577 C1600 0.950 . S
H1578 C1601 0.950 . S
H1579 C1603 0.950 . S
H1580 C1604 0.950 . S
H1581 C1605 0.951 . S
H1582 C1607 0.951 . S
H1583 C1609 0.950 . S
H1584 C1610 0.950 . S
H1585 C1612 0.950 . S
H1586 C1615 0.950 . S
H1587 C1616 0.950 . S
H1588 C1618 0.950 . S
H1589 C1619 0.950 . S
C1590 H1572 0.951 . S
C1590 C1591 1.366 . S
C1590 C1592 1.388 . S
C1591 C1590 1.366 . S
C1591 C1595 1.385 . S
C1592 H1573 0.951 . S
C1592 C1590 1.388 . S
C1592 C1593 1.366 . S
C1593 C1592 1.366 . S
C1593 C1594 1.414 . S
C1593 C1596 1.499 . S
C1594 H1574 0.950 . S
C1594 C1593 1.414 . S
C1594 C1595 1.374 . S
C1595 H1575 0.950 . S
C1595 C1591 1.385 . S
C1595 C1594 1.374 . S
C1596 C1593 1.499 . S
C1596 C1597 1.373 . S
C1596 C1598 1.389 . S
C1597 H1576 0.950 . S
C1597 C1596 1.373 . S
C1597 C1613 1.377 . S
C1598 C1596 1.389 . S
C1598 C1599 1.524 . S
C1598 C1612 1.377 . S
C1599 C1598 1.524 . S
C1599 C1600 1.397 . S
C1599 C1604 1.363 . S
C1600 H1577 0.950 . S
C1600 C1599 1.397 . S
C1600 C1601 1.334 . S
C1601 H1578 0.950 . S
C1601 C1600 1.334 . S
C1601 C1602 1.287 . S
C1602 C1601 1.287 . S
C1602 C1603 1.524 . S
C1602 H1621 0.913 . S
C1603 H1579 0.950 . S
C1603 C1602 1.524 . S
C1603 C1604 1.415 . S
C1604 H1580 0.950 . S
C1604 C1599 1.363 . S
C1604 C1603 1.415 . S
C1605 H1581 0.951 . S
C1605 C1606 1.366 . S
C1605 C1607 1.388 . S
C1606 C1605 1.366 . S
C1606 C1610 1.385 . S
C1607 H1582 0.951 . S
C1607 C1605 1.388 . S
C1607 C1608 1.366 . S
C1608 C1607 1.366 . S
C1608 C1609 1.414 . S
C1608 C1611 1.499 . S
C1609 H1583 0.950 . S
C1609 C1608 1.414 . S
C1609 C1610 1.374 . S
C1610 H1584 0.950 . S
C1610 C1606 1.385 . S
C1610 C1609 1.374 . S
C1611 C1608 1.499 . S
C1611 C1612 1.373 . S
C1611 C1613 1.389 . S
C1612 H1585 0.950 . S
C1612 C1598 1.377 . S
C1612 C1611 1.373 . S
C1613 C1597 1.377 . S
C1613 C1611 1.389 . S
C1613 C1614 1.524 . S
C1614 C1613 1.524 . S
C1614 C1615 1.397 . S
C1614 C1619 1.363 . S
C1615 H1586 0.950 . S
C1615 C1614 1.397 . S
C1615 C1616 1.334 . S
C1616 H1587 0.950 . S
C1616 C1615 1.334 . S
C1616 C1617 1.287 . S
C1617 C1616 1.287 . S
C1617 C1618 1.524 . S
C1617 H1620 0.999 . S
C1618 H1588 0.950 . S
C1618 C1617 1.524 . S
C1618 C1619 1.415 . S
C1619 H1589 0.950 . S
C1619 C1614 1.363 . S
C1619 C1618 1.415 . S
H1620 C1617 0.999 . S
H1621 C1602 0.913 . S
H1622 C1640 0.951 . S
H1623 C1642 0.951 . S
H1624 C1644 0.950 . S
H1625 C1645 0.950 . S
H1626 C1647 0.950 . S
H1627 C1650 0.950 . S
H1628 C1651 0.950 . S
H1629 C1653 0.950 . S
H1630 C1654 0.950 . S
H1631 C1655 0.951 . S
H1632 C1657 0.951 . S
H1633 C1659 0.950 . S
H1634 C1660 0.950 . S
H1635 C1662 0.950 . S
H1636 C1665 0.950 . S
H1637 C1666 0.950 . S
H1638 C1668 0.950 . S
H1639 C1669 0.950 . S
C1640 H1622 0.951 . S
C1640 C1641 1.366 . S
C1640 C1642 1.388 . S
C1641 C1640 1.366 . S
C1641 C1645 1.385 . S
C1642 H1623 0.951 . S
C1642 C1640 1.388 . S
C1642 C1643 1.366 . S
C1643 C1642 1.366 . S
C1643 C1644 1.414 . S
C1643 C1646 1.499 . S
C1644 H1624 0.950 . S
C1644 C1643 1.414 . S
C1644 C1645 1.374 . S
C1645 H1625 0.950 . S
C1645 C1641 1.385 . S
C1645 C1644 1.374 . S
C1646 C1643 1.499 . S
C1646 C1647 1.373 . S
C1646 C1648 1.389 . S
C1647 H1626 0.950 . S
C1647 C1646 1.373 . S
C1647 C1663 1.377 . S
C1648 C1646 1.389 . S
C1648 C1649 1.524 . S
C1648 C1662 1.377 . S
C1649 C1648 1.524 . S
C1649 C1650 1.397 . S
C1649 C1654 1.363 . S
C1650 H1627 0.950 . S
C1650 C1649 1.397 . S
C1650 C1651 1.334 . S
C1651 H1628 0.950 . S
C1651 C1650 1.334 . S
C1651 C1652 1.287 . S
C1652 C1651 1.287 . S
C1652 C1653 1.524 . S
C1652 H1671 0.913 . S
C1653 H1629 0.950 . S
C1653 C1652 1.524 . S
C1653 C1654 1.415 . S
C1654 H1630 0.950 . S
C1654 C1649 1.363 . S
C1654 C1653 1.415 . S
C1655 H1631 0.951 . S
C1655 C1656 1.366 . S
C1655 C1657 1.388 . S
C1656 C1655 1.366 . S
C1656 C1660 1.385 . S
C1657 H1632 0.951 . S
C1657 C1655 1.388 . S
C1657 C1658 1.366 . S
C1658 C1657 1.366 . S
C1658 C1659 1.414 . S
C1658 C1661 1.499 . S
C1659 H1633 0.950 . S
C1659 C1658 1.414 . S
C1659 C1660 1.374 . S
C1660 H1634 0.950 . S
C1660 C1656 1.385 . S
C1660 C1659 1.374 . S
C1661 C1658 1.499 . S
C1661 C1662 1.373 . S
C1661 C1663 1.389 . S
C1662 H1635 0.950 . S
C1662 C1648 1.377 . S
C1662 C1661 1.373 . S
C1663 C1647 1.377 . S
C1663 C1661 1.389 . S
C1663 C1664 1.524 . S
C1664 C1663 1.524 . S
C1664 C1665 1.397 . S
C1664 C1669 1.363 . S
C1665 H1636 0.950 . S
C1665 C1664 1.397 . S
C1665 C1666 1.334 . S
C1666 H1637 0.950 . S
C1666 C1665 1.334 . S
C1666 C1667 1.287 . S
C1667 C1666 1.287 . S
C1667 C1668 1.524 . S
C1667 H1670 0.999 . S
C1668 H1638 0.950 . S
C1668 C1667 1.524 . S
C1668 C1669 1.415 . S
C1669 H1639 0.950 . S
C1669 C1664 1.363 . S
C1669 C1668 1.415 . S
H1670 C1667 0.999 . S
H1671 C1652 0.913 . S
C491 C255 1.909 . S
C506 C335 2.013 . S
C556 C375 1.564 . S
C541 C294 1.531 . S
C606 C394 2.090 . S
C591 C177 1.978 . S
C656 C455 1.655 . S
C641 C216 1.564 . S
C706 C314 2.013 . S
C691 C99 1.906 1_545 S
C741 C138 1.528 . S
C756 C354 1.571 . S
C791 C21 1.974 . S
C806 C415 2.090 . S
C841 C60 1.573 . S
C856 C434 1.654 1_655 S
C906 C316 0.517 1_655 S
C891 C196 0.504 . S
C956 C356 0.352 . S
C941 C235 0.315 1_545 S
C1006 C412 0.538 . S
C991 C289 0.612 . S
C1041 C157 0.221 . S
C1056 C436 0.275 . S
C1091 C40 0.502 . S
C1106 C337 0.526 . S
C1156 C377 0.351 . S
C1141 C79 0.302 . S
C1206 C423 0.536 . S
C1191 C133 0.608 . S
C1241 C1 0.218 . S
C1256 C457 0.272 . S
C1291 C211 2.172 1_556 S
C1306 C332 2.392 . S
C1341 C250 2.625 . S
C1356 C372 2.892 . S
C1406 C396 1.852 . S
C1391 C274 1.789 . S
C1456 C452 2.854 . S
C1441 C172 2.592 . S
C1491 C55 2.168 . S
C1506 C343 2.405 . S
C1556 C383 2.893 . S
C1541 C94 2.625 1_565 S
C1606 C417 1.853 . S
C1591 C118 1.788 . S
C1641 C16 2.595 . S
C1656 C463 2.854 . S
