# Generated by pormake.
# Topology anh, (6,3)-cn, num edge types: 1
# Building blocks:
#     Node 0, Type 0, BuildingBlock: BETDAH_clean_sbu_0, # of connection points: 6
#     Node 1, Type 0, BuildingBlock: BETDAH_clean_sbu_0, # of connection points: 6
#     Node 2, Type 0, BuildingBlock: BETDAH_clean_sbu_0, # of connection points: 6
#     Node 3, Type 1, BuildingBlock: PAMTOO_clean_linker_0, # of connection points: 3
#     Node 4, Type 1, BuildingBlock: PAMTOO_clean_linker_0, # of connection points: 3
#     Node 5, Type 1, BuildingBlock: PAMTOO_clean_linker_0, # of connection points: 3
#     Node 6, Type 1, BuildingBlock: PAMTOO_clean_linker_0, # of connection points: 3
#     Node 7, Type 1, BuildingBlock: PAMTOO_clean_linker_0, # of connection points: 3
#     Node 8, Type 1, BuildingBlock: PAMTOO_clean_linker_0, # of connection points: 3
#     Edge 9, Type (0, 1), BuildingBlock: TEMPAE_clean_linker_10, # of connection points: 2
#     Edge 10, Type (0, 1), BuildingBlock: TEMPAE_clean_linker_10, # of connection points: 2
#     Edge 11, Type (0, 1), BuildingBlock: TEMPAE_clean_linker_10, # of connection points: 2
#     Edge 12, Type (0, 1), BuildingBlock: TEMPAE_clean_linker_10, # of connection points: 2
#     Edge 13, Type (0, 1), BuildingBlock: TEMPAE_clean_linker_10, # of connection points: 2
#     Edge 14, Type (0, 1), BuildingBlock: TEMPAE_clean_linker_10, # of connection points: 2
#     Edge 15, Type (0, 1), BuildingBlock: TEMPAE_clean_linker_10, # of connection points: 2
#     Edge 16, Type (0, 1), BuildingBlock: TEMPAE_clean_linker_10, # of connection points: 2
#     Edge 17, Type (0, 1), BuildingBlock: TEMPAE_clean_linker_10, # of connection points: 2
#     Edge 18, Type (0, 1), BuildingBlock: TEMPAE_clean_linker_10, # of connection points: 2
#     Edge 19, Type (0, 1), BuildingBlock: TEMPAE_clean_linker_10, # of connection points: 2
#     Edge 20, Type (0, 1), BuildingBlock: TEMPAE_clean_linker_10, # of connection points: 2
#     Edge 21, Type (0, 1), BuildingBlock: TEMPAE_clean_linker_10, # of connection points: 2
#     Edge 22, Type (0, 1), BuildingBlock: TEMPAE_clean_linker_10, # of connection points: 2
#     Edge 23, Type (0, 1), BuildingBlock: TEMPAE_clean_linker_10, # of connection points: 2
#     Edge 24, Type (0, 1), BuildingBlock: TEMPAE_clean_linker_10, # of connection points: 2
#     Edge 25, Type (0, 1), BuildingBlock: TEMPAE_clean_linker_10, # of connection points: 2
#     Edge 26, Type (0, 1), BuildingBlock: TEMPAE_clean_linker_10, # of connection points: 2
# Relax obj value: 0.165
# Max RMSD: 0.186
# Mean RMSD: 0.126
data_MOF--net-anh--node1-BETDAH_clean_sbu_0--node2-PAMTOO_clean_linker_0--edge1-TEMPAE_clean_linker_10
_symmetry_space_group_name_H-M    P1
_symmetry_Int_Tables_number       1
_symmetry_cell_setting            triclinic
loop_
_symmetry_equiv_pos_as_xyz
'x, y, z'
_cell_length_a     32.201897
_cell_length_b     38.041105
_cell_length_c     50.001358
_cell_angle_alpha  87.810877
_cell_angle_beta   92.48747
_cell_angle_gamma 129.90334
loop_
_atom_site_label
_atom_site_type_symbol
_atom_site_fract_x
_atom_site_fract_y
_atom_site_fract_z
_atom_type_partial_charge
Ho0 Ho 0.20786 0.56149 0.13926 0.0
Ho1 Ho 0.14081 0.58641 0.15784 0.0
C2 C 0.26426 0.66918 0.14817 0.0
C3 C 0.27063 0.55354 0.11481 0.0
C4 C 0.27461 0.51799 0.11009 0.0
C5 C 0.32424 0.53116 0.10254 0.0
C6 C 0.33015 0.49828 0.09939 0.0
C7 C 0.28635 0.4515 0.10369 0.0
C8 C 0.23622 0.43838 0.11083 0.0
C9 C 0.23043 0.47141 0.11408 0.0
C10 C 0.19549 0.55649 0.19225 0.0
C11 C 0.08313 0.4776 0.1499 0.0
C12 C 0.07494 0.58996 0.18281 0.0
C13 C 1.01569 0.55845 0.18376 0.0
C14 C 0.9894 0.56698 0.20055 0.0
C15 C 0.93276 0.53776 0.20039 0.0
C16 C 0.90187 0.49943 0.1836 0.0
C17 C 0.92865 0.49044 0.16741 0.0
C18 C 0.985 0.51984 0.16738 0.0
C19 C 0.14846 0.58663 0.10412 0.0
O20 O 0.26326 0.63951 0.13428 0.0
O21 O 0.22282 0.65513 0.16286 0.0
O22 O 0.23004 0.54845 0.10302 0.0
O23 O 0.27886 0.56686 0.13957 0.0
O24 O 0.19751 0.5286 0.17948 0.0
O25 O 0.20389 0.58736 0.17683 0.0
O26 O 0.08146 0.50851 0.15988 0.0
O27 O 0.12719 0.48985 0.13843 0.0
O28 O 0.09511 0.60987 0.15959 0.0
O29 O 0.09797 0.57434 0.19374 0.0
O30 O 0.14618 0.61477 0.11637 0.0
O31 O 0.14282 0.55831 0.12074 0.0
H32 H 0.35882 0.56706 0.09957 0.0
H33 H 0.36951 0.50968 0.09433 0.0
H34 H 0.20154 0.40262 0.11402 0.0
H35 H 0.19178 0.46068 0.12 0.0
H36 H 1.01261 0.59663 0.21337 0.0
H37 H 0.91312 0.54545 0.21306 0.0
H38 H 0.90609 0.46177 0.15385 0.0
H39 H 1.0046 0.51304 0.15402 0.0
Ho40 Ho 0.68018 0.04888 0.4718 0.0
Ho41 Ho 0.61109 0.07449 0.4559 0.0
C42 C 0.55006 0.96764 0.45938 0.0
C43 C 0.72072 0.01517 0.49574 0.0
C44 C 0.70751 0.97038 0.49913 0.0
C45 C 0.71011 0.95593 0.52487 0.0
C46 C 0.70044 0.91472 0.52864 0.0
C47 C 0.68844 0.88726 0.50667 0.0
C48 C 0.6845 0.90128 0.48091 0.0
C49 C 0.6938 0.94243 0.47717 0.0
C50 C 0.67578 0.06223 0.41887 0.0
C51 C 0.74232 0.1558 0.4655 0.0
C52 C 0.57138 0.1106 0.4347 0.0
C53 C 0.58192 0.15332 0.4402 0.0
C54 C 0.55199 0.16378 0.42669 0.0
C55 C 0.55928 0.2028 0.43343 0.0
C56 C 0.59663 0.2319 0.45382 0.0
C57 C 0.62752 0.22176 0.46682 0.0
C58 C 0.62009 0.18273 0.46011 0.0
C59 C 0.619 0.06406 0.50917 0.0
O60 O 0.59478 0.97952 0.47164 0.0
O61 O 0.54908 0.99899 0.4478 0.0
O62 O 0.7346 0.03407 0.47187 0.0
O63 O 0.68884 0.01968 0.50742 0.0
O64 O 0.71812 0.07234 0.43155 0.0
O65 O 0.63642 0.04217 0.4344 0.0
O66 O 0.69608 0.14376 0.45542 0.0
O67 O 0.74541 0.12513 0.47613 0.0
O68 O 0.54847 0.08013 0.4541 0.0
O69 O 0.61137 0.11528 0.4244 0.0
O70 O 0.57592 0.05333 0.49711 0.0
O71 O 0.6566 0.08282 0.49278 0.0
H72 H 0.72019 0.97682 0.54208 0.0
H73 H 0.7026 0.90446 0.54881 0.0
H74 H 0.67565 0.8811 0.46355 0.0
H75 H 0.69112 0.95266 0.45708 0.0
H76 H 0.52233 0.14137 0.41128 0.0
H77 H 0.53535 0.21 0.42284 0.0
H78 H 0.65609 0.24309 0.48283 0.0
H79 H 0.64317 0.17486 0.47094 0.0
Ho80 Ho 0.65826 0.58431 0.84033 0.0
Ho81 Ho 0.57882 0.48254 0.84147 0.0
C82 C 0.52463 0.53205 0.84107 0.0
C83 C 0.71148 0.66947 0.82673 0.0
C84 C 0.70146 0.70218 0.82172 0.0
C85 C 0.69755 0.71377 0.79524 0.0
C86 C 0.69053 0.74599 0.78993 0.0
C87 C 0.68769 0.76781 0.81096 0.0
C88 C 0.6916 0.7563 0.83749 0.0
C89 C 0.6984 0.72381 0.84283 0.0
C90 C 0.63073 0.54551 0.88945 0.0
C91 C 0.71317 0.53558 0.84246 0.0
C92 C 0.52714 0.39674 0.8521 0.0
C93 C 0.53699 0.36449 0.84746 0.0
C94 C 0.58725 0.37579 0.85379 0.0
C95 C 0.59642 0.34563 0.84783 0.0
C96 C 0.55558 0.30358 0.83536 0.0
C97 C 0.50525 0.29237 0.82926 0.0
C98 C 0.49608 0.32244 0.8353 0.0
C99 C 0.60405 0.52017 0.79205 0.0
O100 O 0.57541 0.57015 0.83579 0.0
O101 O 0.51646 0.49337 0.84674 0.0
O102 O 0.7095 0.65575 0.85142 0.0
O103 O 0.68926 0.63635 0.80951 0.0
O104 O 0.68006 0.5809 0.88353 0.0
O105 O 0.59952 0.53386 0.86957 0.0
O106 O 0.66192 0.49705 0.84625 0.0
O107 O 0.72192 0.57462 0.83767 0.0
O108 O 0.51758 0.41141 0.83059 0.0
O109 O 0.55909 0.42925 0.8695 0.0
O110 O 0.55576 0.48446 0.79875 0.0
O111 O 0.63679 0.53269 0.81148 0.0
H112 H 0.70063 0.6983 0.77852 0.0
H113 H 0.68862 0.75464 0.76927 0.0
H114 H 0.68926 0.77233 0.85413 0.0
H115 H 0.70171 0.71599 0.86347 0.0
H116 H 0.61962 0.40803 0.86316 0.0
H117 H 0.63545 0.35519 0.8531 0.0
H118 H 0.47315 0.2607 0.81927 0.0
H119 H 0.45716 0.31314 0.83005 0.0
H120 H 0.758 0.16635 0.22248 0.0
H121 H 0.61963 0.02575 0.20743 0.0
H122 H 0.71959 0.11387 0.14224 0.0
H123 H 0.58968 0.02857 0.12562 0.0
C124 C 0.5834 0.01371 0.14609 0.0
O125 O 0.63317 0.02907 0.15647 0.0
H126 H 0.56694 0.02597 0.15833 0.0
C127 C 0.73224 0.13856 0.20852 0.0
C128 C 0.74528 0.14608 0.18122 0.0
C129 C 0.6873 0.09546 0.21825 0.0
C130 C 0.65433 0.05926 0.20028 0.0
C131 C 0.66515 0.06573 0.17294 0.0
C132 C 0.71052 0.10929 0.16331 0.0
H133 H 0.65959 0.63002 0.59549 0.0
H134 H 0.66386 0.52035 0.585 0.0
H135 H 0.6534 0.58564 0.51654 0.0
H136 H 0.58589 0.48961 0.50916 0.0
C137 C 0.60351 0.48052 0.5247 0.0
O138 O 0.65356 0.51979 0.53303 0.0
H139 H 0.57519 0.46388 0.54173 0.0
C140 C 0.66002 0.60797 0.58267 0.0
C141 C 0.65724 0.61255 0.55476 0.0
C142 C 0.6627 0.57506 0.59412 0.0
C143 C 0.66191 0.54612 0.57698 0.0
C144 C 0.65808 0.54983 0.54916 0.0
C145 C 0.65671 0.58342 0.53809 0.0
H146 H 1.03209 0.54219 0.90409 0.0
H147 H 0.16735 0.54632 0.89704 0.0
H148 H 0.08019 0.53724 0.82568 0.0
H149 H 0.15258 0.4867 0.83082 0.0
C150 C 0.17803 0.51165 0.84705 0.0
O151 O 0.16906 0.54407 0.84607 0.0
H152 H 0.16109 0.49106 0.86586 0.0
C153 C 1.05783 0.54159 0.89123 0.0
C154 C 1.04869 0.5398 0.86329 0.0
C155 C 0.09993 0.54414 0.90338 0.0
C156 C 0.13475 0.54394 0.88753 0.0
C157 C 0.12872 0.54028 0.85965 0.0
C158 C 0.08471 0.53815 0.84726 0.0
H159 H 0.06784 0.46161 0.3873 0.0
H160 H 0.20837 0.60144 0.40068 0.0
H161 H 0.10194 0.52051 0.46565 0.0
H162 H 0.17048 0.63153 0.47102 0.0
C163 C 0.19431 0.63783 0.45333 0.0
O164 O 0.19431 0.60153 0.45134 0.0
H165 H 0.17374 0.63963 0.43549 0.0
C166 C 0.09232 0.49021 0.40082 0.0
C167 C 0.07729 0.48491 0.42771 0.0
C168 C 0.13847 0.53218 0.39078 0.0
C169 C 0.172 0.56921 0.40809 0.0
C170 C 0.15938 0.56513 0.43503 0.0
C171 C 0.11178 0.5231 0.44486 0.0
H172 H 0.66763 0.99604 0.70955 0.0
H173 H 0.63792 0.09053 0.71865 0.0
H174 H 0.6589 0.03346 0.78803 0.0
H175 H 0.5829 0.04876 0.79784 0.0
C176 C 0.59242 0.07148 0.78028 0.0
O177 O 0.6422 0.08936 0.7707 0.0
H178 H 0.55993 0.05012 0.76478 0.0
C179 C 0.6622 0.01531 0.72213 0.0
C180 C 0.66368 1.01059 0.75014 0.0
C181 C 0.65303 0.04407 0.71026 0.0
C182 C 0.6461 0.06879 0.72704 0.0
C183 C 0.64848 0.06503 0.75492 0.0
C184 C 0.65723 0.03605 0.76642 0.0
H185 H 0.58613 0.4037 0.07206 0.0
H186 H 0.42005 0.29753 0.0479 0.0
H187 H 0.48598 0.2775 0.11757 0.0
H188 H 0.38058 0.23404 0.12718 0.0
C189 C 0.36328 0.23209 0.107 0.0
O190 O 0.39867 0.24149 0.08762 0.0
H191 H 0.3253 0.1961 0.10472 0.0
C192 C 0.54727 0.37016 0.07549 0.0
C193 C 0.54154 0.3428 0.09711 0.0
C194 C 0.50406 0.35395 0.05749 0.0
C195 C 0.45377 0.31054 0.06175 0.0
C196 C 0.44716 0.28344 0.08369 0.0
C197 C 0.49113 0.2993 0.10114 0.0
C198 C 0.32569 0.42058 0.08183 0.0
C199 C 0.29392 0.41698 0.10191 0.0
C200 C 0.33638 0.39018 0.08114 0.0
C201 C 0.31444 0.35515 0.10089 0.0
C202 C 0.28119 0.35055 0.12078 0.0
C203 C 0.27148 0.38159 0.12109 0.0
C204 C 0.37213 0.39619 0.05966 0.0
C205 C 0.25705 0.31358 0.14217 0.0
C206 C 0.30689 0.25303 0.08919 0.0
C207 C 0.3508 0.26418 0.10495 0.0
C208 C 0.29471 0.2825 0.08747 0.0
C209 C 0.32793 0.32437 0.10149 0.0
C210 C 0.37337 0.33635 0.11676 0.0
C211 C 0.38412 0.30598 0.11838 0.0
C212 C 0.24589 0.26856 0.07105 0.0
C213 C 0.41029 0.38101 0.13163 0.0
H214 H 0.34253 0.44741 0.0667 0.0
H215 H 0.24758 0.37893 0.13691 0.0
H216 H 0.40914 0.40407 0.06897 0.0
H217 H 0.35075 0.3639 0.04846 0.0
H218 H 0.38451 0.42417 0.04522 0.0
H219 H 0.22977 0.31311 0.15533 0.0
H220 H 0.2338 0.27947 0.13285 0.0
H221 H 0.28991 0.319 0.15476 0.0
H222 H 0.28168 0.22093 0.07851 0.0
H223 H 0.41858 0.31478 0.13022 0.0
H224 H 0.25817 0.29526 0.05567 0.0
H225 H 0.21672 0.2655 0.08413 0.0
H226 H 0.22493 0.23536 0.06088 0.0
H227 H 0.42625 0.41022 0.11759 0.0
H228 H 0.44503 0.38589 0.14176 0.0
H229 H 0.38716 0.38206 0.14692 0.0
C230 C 0.78907 0.23979 0.46835 0.0
C231 C 0.79193 0.20506 0.4644 0.0
C232 C 0.83519 0.28653 0.46591 0.0
C233 C 0.88508 0.29908 0.45813 0.0
C234 C 0.88811 0.26397 0.45434 0.0
C235 C 0.8419 0.21759 0.45804 0.0
C236 C 0.83021 0.32247 0.47124 0.0
C237 C 0.93949 0.27524 0.44507 0.0
C238 C 0.98161 0.41144 0.41901 0.0
C239 C 1.0259 0.43921 0.43702 0.0
C240 C 0.93611 0.36623 0.42565 0.0
C241 C 0.93253 0.34829 0.45157 0.0
C242 C 0.97507 0.37696 0.47057 0.0
C243 C 1.02146 0.42165 0.46299 0.0
C244 C 0.89263 0.3371 0.40443 0.0
C245 C 0.97211 0.36012 0.49879 0.0
H246 H 0.75068 0.23039 0.47348 0.0
H247 H 0.84426 0.19092 0.45471 0.0
H248 H 0.86371 0.34891 0.48481 0.0
H249 H 0.83348 0.34001 0.45224 0.0
H250 H 0.79099 0.30752 0.48036 0.0
H251 H 0.93576 0.24425 0.44358 0.0
H252 H 0.94987 0.2924 0.42512 0.0
H253 H 0.97368 0.29946 0.45903 0.0
H254 H 0.98265 0.42467 0.39928 0.0
H255 H 1.05479 0.44223 0.47728 0.0
H256 H 0.8533 0.32595 0.41102 0.0
H257 H 0.8874 0.30571 0.40133 0.0
H258 H 0.90225 0.35558 0.38494 0.0
H259 H 0.93221 0.34439 0.50732 0.0
H260 H 1.00457 0.38813 0.51208 0.0
H261 H 0.97609 0.33325 0.4987 0.0
C262 C 0.6463 0.79636 0.78459 0.0
C263 C 0.68209 0.80326 0.80499 0.0
C264 C 0.64318 0.83065 0.77741 0.0
C265 C 0.67668 0.87299 0.79092 0.0
C266 C 0.71186 0.87976 0.81203 0.0
C267 C 0.71411 0.8448 0.81883 0.0
C268 C 0.60482 0.8219 0.75492 0.0
C269 C 0.74821 0.9244 0.82692 0.0
C270 C 0.70748 0.97472 0.75185 0.0
C271 C 0.67012 0.97784 0.76216 0.0
C272 C 0.711 0.94156 0.76154 0.0
C273 C 0.67637 0.91071 0.7821 0.0
C274 C 0.63974 0.91456 0.79319 0.0
C275 C 0.63705 0.94807 0.78309 0.0
C276 C 0.75085 0.93879 0.74928 0.0
C277 C 0.60218 0.88235 0.81513 0.0
H278 H 0.62084 0.76409 0.7741 0.0
H279 H 0.74222 0.85054 0.83445 0.0
H280 H 0.57732 0.8276 0.76185 0.0
H281 H 0.62813 0.84639 0.73816 0.0
H282 H 0.57993 0.78649 0.74718 0.0
H283 H 0.77087 0.92327 0.84384 0.0
H284 H 0.77778 0.95256 0.81299 0.0
H285 H 0.724 0.93294 0.83483 0.0
H286 H 0.73377 0.99808 0.73598 0.0
H287 H 0.60771 0.94994 0.79099 0.0
H288 H 0.72868 0.90538 0.73922 0.0
H289 H 0.7774 0.94066 0.76511 0.0
H290 H 0.77667 0.96666 0.73436 0.0
H291 H 0.57331 0.8469 0.80744 0.0
H292 H 0.57871 0.89181 0.82285 0.0
H293 H 0.62555 0.88217 0.83202 0.0
C294 C 0.80882 0.42372 0.17814 0.0
C295 C 0.84239 0.47146 0.18052 0.0
C296 C 0.75466 0.39801 0.1694 0.0
C297 C 0.73394 0.42075 0.16275 0.0
C298 C 0.76625 0.46829 0.16745 0.0
C299 C 0.82017 0.4931 0.17633 0.0
C300 C 0.72125 0.34726 0.1651 0.0
C301 C 0.74567 0.49383 0.16064 0.0
C302 C 0.63893 0.37958 0.10258 0.0
C303 C 0.58932 0.3593 0.11439 0.0
C304 C 0.68583 0.39866 0.11822 0.0
C305 C 0.68307 0.39712 0.14647 0.0
C306 C 0.63271 0.37513 0.15862 0.0
C307 C 0.58623 0.35642 0.14238 0.0
C308 C 0.73868 0.42157 0.10441 0.0
C309 C 0.62827 0.37259 0.18867 0.0
H310 H 0.82569 0.40678 0.18183 0.0
H311 H 0.84598 0.53002 0.17802 0.0
H312 H 0.67936 0.32808 0.17202 0.0
H313 H 0.71866 0.34084 0.14338 0.0
H314 H 0.73932 0.33352 0.17569 0.0
H315 H 0.77238 0.52877 0.16919 0.0
H316 H 0.74373 0.49707 0.13855 0.0
H317 H 0.70417 0.47478 0.16807 0.0
H318 H 0.64117 0.38095 0.08094 0.0
H319 H 0.54787 0.34078 0.15154 0.0
H320 H 0.75689 0.40598 0.11143 0.0
H321 H 0.76786 0.45843 0.10954 0.0
H322 H 0.73352 0.41875 0.08227 0.0
H323 H 0.64786 0.35938 0.19799 0.0
H324 H 0.58549 0.35029 0.19497 0.0
H325 H 0.64987 0.40745 0.19654 0.0
C326 C 0.451 0.90515 0.44776 0.0
C327 C 0.50024 0.91804 0.45817 0.0
C328 C 0.40335 0.85884 0.44712 0.0
C329 C 0.40445 0.82396 0.45697 0.0
C330 C 0.45416 0.83663 0.46719 0.0
C331 C 0.5012 0.88331 0.46777 0.0
C332 C 0.35149 0.84729 0.43618 0.0
C333 C 0.45761 0.80083 0.47771 0.0
C334 C 0.26848 0.71098 0.47828 0.0
C335 C 0.25162 0.68374 0.45556 0.0
C336 C 0.3186 0.75595 0.4793 0.0
C337 C 0.35322 0.77455 0.45708 0.0
C338 C 0.33719 0.74657 0.43445 0.0
C339 C 0.28666 0.70173 0.43393 0.0
C340 C 0.3336 0.7842 0.50385 0.0
C341 C 0.37265 0.76454 0.41036 0.0
H342 H 0.44939 0.9314 0.44033 0.0
H343 H 0.53882 0.89256 0.47581 0.0
H344 H 0.33505 0.82308 0.41936 0.0
H345 H 0.3206 0.82999 0.45193 0.0
H346 H 0.35732 0.87814 0.42895 0.0
H347 H 0.49952 0.8159 0.48405 0.0
H348 H 0.43088 0.78246 0.49508 0.0
H349 H 0.4431 0.77499 0.4621 0.0
H350 H 0.24161 0.69755 0.49504 0.0
H351 H 0.27379 0.68114 0.41623 0.0
H352 H 0.33576 0.81389 0.49846 0.0
H353 H 0.37422 0.79804 0.51172 0.0
H354 H 0.30392 0.76409 0.52003 0.0
H355 H 0.37578 0.79294 0.40078 0.0
H356 H 0.35657 0.7376 0.39525 0.0
H357 H 0.41422 0.77868 0.41658 0.0
C358 C 0.615 0.28845 0.81792 0.0
C359 C 0.56536 0.27167 0.82837 0.0
C360 C 0.62374 0.25848 0.81031 0.0
C361 C 0.58176 0.21054 0.81305 0.0
C362 C 0.53191 0.19344 0.82392 0.0
C363 C 0.52442 0.22414 0.83153 0.0
C364 C 0.67756 0.27809 0.79891 0.0
C365 C 0.48613 0.14258 0.82724 0.0
C366 C 0.57651 0.12748 0.76992 0.0
C367 C 0.59315 0.10969 0.78827 0.0
C368 C 0.57401 0.16125 0.77751 0.0
C369 C 0.58913 0.17796 0.80402 0.0
C370 C 0.60833 0.16153 0.82226 0.0
C371 C 0.61023 0.12763 0.81412 0.0
C372 C 0.55356 0.17798 0.75742 0.0
C373 C 0.6254 0.17881 0.85057 0.0
H374 H 0.6467 0.32505 0.8151 0.0
H375 H 0.48631 0.21082 0.84004 0.0
H376 H 0.69535 0.26479 0.81032 0.0
H377 H 0.67162 0.26709 0.77788 0.0
H378 H 0.70696 0.31614 0.79935 0.0
H379 H 0.45012 0.13483 0.8363 0.0
H380 H 0.47385 0.1258 0.80747 0.0
H381 H 0.49978 0.12711 0.84009 0.0
H382 H 0.56421 0.11412 0.74978 0.0
H383 H 0.62399 0.11435 0.82814 0.0
H384 H 0.58315 0.2159 0.75571 0.0
H385 H 0.51514 0.16838 0.76435 0.0
H386 H 0.54618 0.16338 0.73726 0.0
H387 H 0.65595 0.21677 0.8505 0.0
H388 H 0.6427 0.16481 0.8617 0.0
H389 H 0.58997 0.16896 0.8615 0.0
C390 C 0.64138 0.80492 0.49651 0.0
C391 C 0.68169 0.84493 0.51068 0.0
C392 C 0.6344 0.76469 0.50068 0.0
C393 C 0.66817 0.76444 0.51963 0.0
C394 C 0.70936 0.80486 0.53368 0.0
C395 C 0.71582 0.84462 0.5289 0.0
C396 C 0.59037 0.72229 0.48517 0.0
C397 C 0.74613 0.80596 0.55412 0.0
C398 C 0.62283 0.65573 0.55523 0.0
C399 C 0.6549 0.64791 0.54336 0.0
C400 C 0.62492 0.69239 0.54684 0.0
C401 C 0.65943 0.72164 0.52584 0.0
C402 C 0.6894 0.7123 0.51266 0.0
C403 C 0.68695 0.6756 0.52166 0.0
C404 C 0.59232 0.7012 0.56142 0.0
C405 C 0.7261 0.7424 0.48994 0.0
H406 H 0.61459 0.80476 0.48253 0.0
H407 H 0.74786 0.87564 0.53947 0.0
H408 H 0.60751 0.70888 0.47496 0.0
H409 H 0.55955 0.69504 0.49911 0.0
H410 H 0.56991 0.72896 0.46994 0.0
H411 H 0.77666 0.84036 0.56305 0.0
H412 H 0.7217 0.78083 0.57046 0.0
H413 H 0.76768 0.79591 0.54473 0.0
H414 H 0.59691 0.63373 0.57156 0.0
H415 H 0.71191 0.6698 0.51242 0.0
H416 H 0.56835 0.70508 0.54696 0.0
H417 H 0.62014 0.73375 0.57255 0.0
H418 H 0.56428 0.67322 0.57586 0.0
H419 H 0.70452 0.74823 0.47499 0.0
H420 H 0.74129 0.72733 0.4797 0.0
H421 H 0.76139 0.77636 0.49779 0.0
C422 C 0.81247 0.57093 0.83156 0.0
C423 C 0.76184 0.53509 0.84303 0.0
C424 C 0.85763 0.5713 0.83166 0.0
C425 C 0.85546 0.53574 0.84453 0.0
C426 C 0.80435 0.49949 0.8563 0.0
C427 C 0.75913 0.49921 0.85497 0.0
C428 C 0.90777 0.61072 0.81746 0.0
C429 C 0.7967 0.46031 0.87079 0.0
C430 C 0.95871 0.51135 0.83613 0.0
C431 C 1.00267 0.54206 0.85401 0.0
C432 C 0.91234 0.50956 0.83227 0.0
C433 C 0.90661 0.538 0.8471 0.0
C434 C 0.95131 0.56928 0.8648 0.0
C435 C 0.99763 0.57155 0.86738 0.0
C436 C 0.8691 0.47601 0.81226 0.0
C437 C 0.95056 0.60057 0.88203 0.0
H438 H 0.81699 0.59916 0.82188 0.0
H439 H 0.72149 0.47079 0.86405 0.0
H440 H 0.93044 0.64145 0.83026 0.0
H441 H 0.93487 0.60343 0.81265 0.0
H442 H 0.89651 0.61939 0.79855 0.0
H443 H 0.76374 0.44346 0.88546 0.0
H444 H 0.78531 0.43425 0.85601 0.0
H445 H 0.83443 0.47185 0.88149 0.0
H446 H 0.95946 0.48747 0.82552 0.0
H447 H 1.03012 0.59636 0.88106 0.0
H448 H 0.8442 0.48532 0.80496 0.0
H449 H 0.84218 0.44146 0.82176 0.0
H450 H 0.88748 0.47376 0.79481 0.0
H451 H 0.96698 0.63246 0.87059 0.0
H452 H 0.97635 0.6104 0.9004 0.0
H453 H 0.90895 0.58445 0.88813 0.0
C454 C 0.36076 0.73504 0.13513 0.0
C455 C 0.31304 0.71918 0.14757 0.0
C456 C 0.40695 0.78205 0.13476 0.0
C457 C 0.40566 0.81445 0.14691 0.0
C458 C 0.3576 0.79862 0.15947 0.0
C459 C 0.31223 0.75146 0.15973 0.0
C460 C 0.4572 0.79711 0.12129 0.0
C461 C 0.35384 0.83165 0.17247 0.0
C462 C 0.53635 0.93386 0.1665 0.0
C463 C 0.5413 0.96148 0.14525 0.0
C464 C 0.49351 0.88594 0.16695 0.0
C465 C 0.45378 0.86495 0.14591 0.0
C466 C 0.45881 0.89274 0.12438 0.0
C467 C 0.50216 0.9404 0.12438 0.0
C468 C 0.49004 0.85791 0.19029 0.0
C469 C 0.41742 0.87232 0.10165 0.0
H470 H 0.36223 0.71065 0.12575 0.0
H471 H 0.27581 0.73995 0.16938 0.0
H472 H 0.46711 0.82106 0.10447 0.0
H473 H 0.49216 0.81592 0.13567 0.0
H474 H 0.45244 0.76777 0.1134 0.0
H475 H 0.31391 0.81401 0.18163 0.0
H476 H 0.38595 0.85112 0.18823 0.0
H477 H 0.36057 0.85691 0.15738 0.0
H478 H 0.56552 0.94981 0.18303 0.0
H479 H 0.50482 0.96152 0.1082 0.0
H480 H 0.48694 0.82911 0.18298 0.0
H481 H 0.45294 0.84276 0.20162 0.0
H482 H 0.52568 0.87868 0.2042 0.0
H483 H 0.4134 0.84418 0.09241 0.0
H484 H 0.42814 0.89811 0.08588 0.0
H485 H 0.37722 0.85726 0.10944 0.0
C486 C 0.65222 0.31345 0.46859 0.0
C487 C 0.60137 0.27128 0.46254 0.0
C488 C 0.65677 0.35004 0.47819 0.0
C489 C 0.60934 0.34425 0.48185 0.0
C490 C 0.558 0.30199 0.47544 0.0
C491 C 0.55465 0.26605 0.46587 0.0
C492 C 0.71222 0.39467 0.48471 0.0
C493 C 0.50645 0.29441 0.47916 0.0
C494 C 0.6085 0.4174 0.53099 0.0
C495 C 0.60893 0.44745 0.5137 0.0
C496 C 0.61022 0.38443 0.52094 0.0
C497 C 0.61292 0.38186 0.49295 0.0
C498 C 0.61582 0.41357 0.47552 0.0
C499 C 0.61398 0.44617 0.48614 0.0
C500 C 0.60739 0.35141 0.54018 0.0
C501 C 0.61911 0.41212 0.4456 0.0
H502 H 0.68851 0.31784 0.46579 0.0
H503 H 0.5152 0.23335 0.46165 0.0
H504 H 0.71863 0.42323 0.47316 0.0
H505 H 0.71532 0.40226 0.50625 0.0
H506 H 0.74514 0.39396 0.48017 0.0
H507 H 0.46984 0.25989 0.47263 0.0
H508 H 0.50254 0.29831 0.50057 0.0
H509 H 0.50779 0.32061 0.46762 0.0
H510 H 0.6055 0.41906 0.55235 0.0
H511 H 0.61522 0.47002 0.47286 0.0
H512 H 0.6415 0.35172 0.537 0.0
H513 H 0.56934 0.31605 0.5364 0.0
H514 H 0.60865 0.35971 0.56142 0.0
H515 H 0.65316 0.4131 0.44081 0.0
H516 H 0.62473 0.44106 0.435 0.0
H517 H 0.5814 0.3795 0.43775 0.0
C518 C 0.48293 0.57336 0.83687 0.0
C519 C 0.47632 0.53294 0.84155 0.0
C520 C 0.4388 0.57436 0.83747 0.0
C521 C 0.38436 0.53403 0.84285 0.0
C522 C 0.37751 0.49319 0.84755 0.0
C523 C 0.42232 0.49316 0.84691 0.0
C524 C 0.45078 0.61932 0.83231 0.0
C525 C 0.32198 0.44871 0.85332 0.0
C526 C 0.27132 0.53803 0.86785 0.0
C527 C 0.23805 0.52834 0.8449 0.0
C528 C 0.31857 0.54122 0.86735 0.0
C529 C 0.33517 0.53423 0.84336 0.0
C530 C 0.30273 0.52584 0.81999 0.0
C531 C 0.25583 0.52296 0.82104 0.0
C532 C 0.3499 0.55056 0.89313 0.0
C533 C 0.31636 0.51796 0.79363 0.0
H534 H 0.52325 0.60488 0.8327 0.0
H535 H 0.41467 0.46125 0.85067 0.0
H536 H 0.42668 0.61639 0.81466 0.0
H537 H 0.43857 0.62788 0.8497 0.0
H538 H 0.49436 0.64791 0.82867 0.0
H539 H 0.32204 0.41969 0.85653 0.0
H540 H 0.30617 0.45218 0.87142 0.0
H541 H 0.29364 0.44044 0.83641 0.0
H542 H 0.2589 0.5411 0.88681 0.0
H543 H 0.2312 0.51417 0.80302 0.0
H544 H 0.39365 0.57944 0.89029 0.0
H545 H 0.34563 0.52 0.8991 0.0
H546 H 0.33569 0.5589 0.90968 0.0
H547 H 0.3594 0.54656 0.78904 0.0
H548 H 0.29045 0.5148 0.77683 0.0
H549 H 0.31105 0.4861 0.79495 0.0
C550 C 1.03028 0.39365 0.13945 0.0
C551 C 1.03328 0.42803 0.1515 0.0
C552 C 0.98347 0.34694 0.14136 0.0
C553 C 0.93836 0.3339 0.15581 0.0
C554 C 0.94087 0.36857 0.16759 0.0
C555 C 0.98796 0.41486 0.16531 0.0
C556 C 0.98263 0.31142 0.12824 0.0
C557 C 0.89422 0.35673 0.18326 0.0
C558 C 0.79724 0.21503 0.14944 0.0
C559 C 0.79622 0.19222 0.17251 0.0
C560 C 0.84364 0.26054 0.1432 0.0
C561 C 0.89027 0.28406 0.16043 0.0
C562 C 0.89003 0.26049 0.18313 0.0
C563 C 0.84355 0.21512 0.18871 0.0
C564 C 0.84208 0.28399 0.11864 0.0
C565 C 0.93837 0.28374 0.20217 0.0
H566 H 1.06465 0.40314 0.1286 0.0
H567 H 0.98937 0.44075 0.17479 0.0
H568 H 0.98045 0.2887 0.14377 0.0
H569 H 0.94605 0.28952 0.11506 0.0
H570 H 1.01909 0.3271 0.11617 0.0
H571 H 0.9011 0.3877 0.18987 0.0
H572 H 0.85625 0.33574 0.17096 0.0
H573 H 0.88808 0.33592 0.20121 0.0
H574 H 0.76112 0.19795 0.13677 0.0
H575 H 0.84399 0.1977 0.20624 0.0
H576 H 0.8784 0.29964 0.1065 0.0
H577 H 0.84279 0.3121 0.12476 0.0
H578 H 0.80527 0.25999 0.10592 0.0
H579 H 0.97521 0.29714 0.19115 0.0
H580 H 0.93264 0.26029 0.21839 0.0
H581 H 0.9458 0.31344 0.21143 0.0
C582 C 0.14222 0.61025 0.05775 0.0
C583 C 0.14462 0.5814 0.07472 0.0
C584 C 0.136 0.60422 0.02988 0.0
C585 C 0.13303 0.56896 0.0187 0.0
C586 C 0.13653 0.54032 0.03576 0.0
C587 C 0.1416 0.54653 0.06358 0.0
C588 C 0.13155 0.63501 0.01243 0.0
C589 C 0.13438 0.5028 0.02466 0.0
C590 C 1.06438 0.52416 0.9502 0.0
C591 C 0.10868 0.54886 0.93309 0.0
C592 C 0.07175 0.53037 0.97803 0.0
C593 C 0.1248 0.5613 0.98923 0.0
C594 C 0.16978 0.58536 0.97224 0.0
C595 C 0.1612 0.57921 0.94441 0.0
C596 C 1.02265 0.50432 -0.00458 0.0
C597 C 0.22701 0.61808 0.98344 0.0
H598 H 0.14428 0.63711 0.0663 0.0
H599 H 0.14265 0.52371 0.07663 0.0
H600 H 0.16382 0.65311 -0.00261 0.0
H601 H 0.09213 0.6141 0.00129 0.0
H602 H 0.13486 0.66092 0.02421 0.0
H603 H 0.14092 0.48535 0.04047 0.0
H604 H 0.09442 0.47685 0.01471 0.0
H605 H 0.16562 0.51715 0.00929 0.0
H606 H 1.0237 0.49996 0.94182 0.0
H607 H 0.19574 0.59899 0.93146 0.0
H608 H 1.02236 0.52874 0.00668 0.0
H609 H 1.02429 0.4829 0.01036 0.0
H610 H 0.98413 0.48179 0.98358 0.0
H611 H 0.23356 0.64697 -0.00669 0.0
H612 H 0.25764 0.63225 0.96771 0.0
H613 H 0.2338 0.60043 -0.00109 0.0
C614 C 0.71957 0.08955 0.37468 0.0
C615 C 0.67271 0.0673 0.38961 0.0
C616 C 0.71792 0.09359 0.34676 0.0
C617 C 0.66809 0.07484 0.33339 0.0
C618 C 0.6207 0.05297 0.34842 0.0
C619 C 0.62359 0.04952 0.37645 0.0
C620 C 0.76945 0.11739 0.33153 0.0
C621 C 0.56691 0.03264 0.33486 0.0
C622 C 0.68222 0.12101 0.26272 0.0
C623 C 0.67665 0.08793 0.24746 0.0
C624 C 0.67708 0.11621 0.29065 0.0
C625 C 0.66601 0.07735 0.30363 0.0
C626 C 0.65799 0.04288 0.28823 0.0
C627 C 0.66352 0.04862 0.26035 0.0
C628 C 0.6857 0.15363 0.30635 0.0
C629 C 0.6461 1.00091 0.3013 0.0
H630 H 0.7577 0.1036 0.38483 0.0
H631 H 0.58733 0.03242 0.388 0.0
H632 H 0.76486 0.09308 0.31753 0.0
H633 H 0.77765 0.14614 0.31933 0.0
H634 H 0.80508 0.13109 0.345 0.0
H635 H 0.53433 0.01838 0.34947 0.0
H636 H 0.57037 0.05905 0.32231 0.0
H637 H 0.55488 1.00484 0.32135 0.0
H638 H 0.69142 0.15108 0.25284 0.0
H639 H 0.65963 0.02309 0.24877 0.0
H640 H 0.72344 0.17137 0.31876 0.0
H641 H 0.6519 0.13882 0.3202 0.0
H642 H 0.689 0.17944 0.29314 0.0
H643 H 0.68199 1.01113 0.31336 0.0
H644 H 0.63591 0.97533 0.2864 0.0
H645 H 0.61195 0.98436 0.31516 0.0
C646 C 0.58374 0.53123 0.74564 0.0
C647 C 0.61981 0.53423 0.76405 0.0
C648 C 0.59588 0.54109 0.71842 0.0
C649 C 0.64436 0.55254 0.70933 0.0
C650 C 0.68126 0.55609 0.72798 0.0
C651 C 0.66892 0.54764 0.75528 0.0
C652 C 0.55634 0.53849 0.69933 0.0
C653 C 0.7325 0.5668 0.71898 0.0
C654 C 0.63575 0.52637 0.63591 0.0
C655 C 0.66357 0.56989 0.62387 0.0
C656 C 0.63201 0.52067 0.66384 0.0
C657 C 0.65505 0.55913 0.68017 0.0
C658 C 0.68463 0.60328 0.66833 0.0
C659 C 0.68946 0.60822 0.64042 0.0
C660 C 0.6015 0.47314 0.67579 0.0
C661 C 0.70889 0.64505 0.685 0.0
H662 H 0.54589 0.52106 0.75257 0.0
H663 H 0.69654 0.5495 0.7696 0.0
H664 H 0.57761 0.5706 0.68726 0.0
H665 H 0.53859 0.50998 0.6852 0.0
H666 H 0.52285 0.53286 0.70992 0.0
H667 H 0.7581 0.57042 0.73611 0.0
H668 H 0.72195 0.53893 0.706 0.0
H669 H 0.75664 0.5989 0.70686 0.0
H670 H 0.61507 0.49634 0.62354 0.0
H671 H 0.7126 0.64222 0.63156 0.0
H672 H 0.56284 0.46134 0.68394 0.0
H673 H 0.62532 0.47346 0.69265 0.0
H674 H 0.59215 0.44797 0.66081 0.0
H675 H 0.67602 0.64171 0.69456 0.0
H676 H 0.73306 0.67726 0.6729 0.0
H677 H 0.73524 0.64779 0.70132 0.0
C678 C 0.67334 0.07351 0.54982 0.0
C679 C 0.62538 0.06174 0.53848 0.0
C680 C 0.67924 0.07055 0.57763 0.0
C681 C 0.63678 0.05689 0.59452 0.0
C682 C 0.58866 0.04581 0.58315 0.0
C683 C 0.58331 0.04786 0.55524 0.0
C684 C 0.73067 0.08166 0.58891 0.0
C685 C 0.5429 0.03201 0.60047 0.0
C686 C 0.62621 1.00914 0.66442 0.0
C687 C 0.64981 0.04764 0.68048 0.0
C688 C 0.62297 1.01197 0.63643 0.0
C689 C 0.64244 0.05401 0.62409 0.0
C690 C 0.66601 0.09294 0.64008 0.0
C691 C 0.66997 0.08944 0.66799 0.0
C692 C 0.59829 0.96982 0.62006 0.0
C693 C 0.68649 0.13822 0.62771 0.0
H694 H 0.70619 0.08477 0.53694 0.0
H695 H 0.54628 0.039 0.54655 0.0
H696 H 0.75149 0.11102 0.60269 0.0
H697 H 0.72089 0.052 0.60075 0.0
H698 H 0.75907 0.0903 0.57301 0.0
H699 H 0.50886 0.0258 0.58856 0.0
H700 H 0.52721 1.00035 0.61201 0.0
H701 H 0.55792 0.05924 0.61518 0.0
H702 H 0.60943 0.9764 0.67371 0.0
H703 H 0.68917 0.11965 0.68001 0.0
H704 H 0.62672 0.97754 0.60447 0.0
H705 H 0.56083 0.95927 0.60959 0.0
H706 H 0.58807 0.94053 0.63254 0.0
H707 H 0.71856 0.1503 0.61327 0.0
H708 H 0.70318 0.16512 0.64294 0.0
H709 H 0.65308 0.13388 0.61638 0.0
C710 C 0.64751 0.52293 0.93359 0.0
C711 C 0.61207 0.5214 0.91548 0.0
C712 C 0.62813 0.49634 0.95727 0.0
C713 C 0.57237 0.46862 0.96308 0.0
C714 C 0.53699 0.46854 0.94526 0.0
C715 C 0.55716 0.49448 0.92151 0.0
C716 C 0.66688 0.49665 0.97559 0.0
C717 C 0.47761 0.44033 0.95101 0.0
C718 C 0.51169 0.3642 0.00811 0.0
C719 C 0.51414 0.38108 0.03302 0.0
C720 C 0.53016 0.3923 0.98511 0.0
C721 C 0.55049 0.43799 0.98711 0.0
C722 C 0.55064 0.45445 0.01208 0.0
C723 C 0.53309 0.4259 0.03487 0.0
C724 C 0.52994 0.37367 0.95892 0.0
C725 C 0.57059 0.5025 0.01485 0.0
H726 H 0.68987 0.54353 0.92878 0.0
H727 H 0.52977 0.49353 0.90752 0.0
H728 H 0.66606 0.50626 -0.0039 0.0
H729 H 0.65407 0.46173 0.97692 0.0
H730 H 0.70915 0.52084 0.96853 0.0
H731 H 0.45654 0.44692 0.93616 0.0
H732 H 0.45744 0.40334 0.95071 0.0
H733 H 0.47265 0.44788 0.97129 0.0
H734 H 0.4978 0.32971 0.00689 0.0
H735 H 0.53512 0.43882 0.05427 0.0
H736 H 0.572 0.39422 0.95186 0.0
H737 H 0.50666 0.37659 0.94334 0.0
H738 H 0.51209 0.33721 0.96069 0.0
H739 H 0.61448 0.52766 0.01075 0.0
H740 H 0.56411 0.50876 0.03518 0.0
H741 H 0.54954 0.50895 -6e-05 0.0
C742 C 0.23361 0.57615 0.23864 0.0
C743 C 0.18859 0.55435 0.2212 0.0
C744 C 0.22739 0.57344 0.26646 0.0
C745 C 0.17492 0.54868 0.27685 0.0
C746 C 0.12937 0.52678 0.2591 0.0
C747 C 0.13678 0.52948 0.23141 0.0
C748 C 0.27682 0.59673 0.28473 0.0
C749 C 0.07285 0.50044 0.26932 0.0
C750 C 0.14865 0.50459 0.34878 0.0
C751 C 0.15053 0.53754 0.36187 0.0
C752 C 0.15733 0.50816 0.32118 0.0
C753 C 0.16757 0.54534 0.30629 0.0
C754 C 0.16998 0.57893 0.31946 0.0
C755 C 0.16173 0.57476 0.34713 0.0
C756 C 0.1551 0.47196 0.30793 0.0
C757 C 0.18016 0.61876 0.30422 0.0
H758 H 0.27358 0.59502 0.23049 0.0
H759 H 0.10204 0.51205 0.21773 0.0
H760 H 0.28071 0.62228 0.29717 0.0
H761 H 0.27247 0.57113 0.2986 0.0
H762 H 0.31465 0.61437 0.27346 0.0
H763 H 1.04207 0.48676 0.25281 0.0
H764 H 1.06203 0.47138 0.28222 0.0
H765 H 0.07106 0.5229 0.28182 0.0
H766 H 0.14047 0.476 0.36019 0.0
H767 H 0.16258 0.6 0.35715 0.0
H768 H 0.19342 0.48817 0.29747 0.0
H769 H 0.12187 0.45409 0.29259 0.0
H770 H 0.14844 0.44607 0.32249 0.0
H771 H 0.21904 0.63857 0.29367 0.0
H772 H 0.18155 0.64228 0.31749 0.0
H773 H 0.14771 0.60583 0.28875 0.0
loop_
_geom_bond_atom_site_label_1
_geom_bond_atom_site_label_2
_geom_bond_distance
_geom_bond_site_symmetry_2
_ccdc_geom_bond_type
Ho0 C3 2.811 . S
Ho0 O20 2.322 . S
Ho0 O22 2.378 . S
Ho0 O23 2.524 . S
Ho0 O24 2.381 . S
Ho0 O25 2.669 1_455 S
Ho0 O27 2.346 1_455 S
Ho0 O31 2.305 . S
Ho1 C12 2.811 . S
Ho1 O21 2.346 1_655 S
Ho1 O25 2.305 . S
Ho1 O26 2.322 . S
Ho1 O28 2.378 . S
Ho1 O29 2.524 . S
Ho1 O30 2.381 . S
Ho1 O31 2.669 1_655 S
C2 O20 1.259 . S
C2 O21 1.268 . S
C3 Ho0 2.811 . S
C3 C4 1.488 . S
C3 O22 1.215 . S
C3 O23 1.289 . S
C4 C3 1.488 . S
C4 C5 1.348 . S
C4 C9 1.413 . S
C5 C4 1.348 . S
C5 C6 1.442 . S
C5 H32 0.930 . S
C6 C5 1.442 . S
C6 C7 1.381 . S
C6 H33 0.931 . S
C7 C6 1.381 . S
C7 C8 1.321 . S
C8 C7 1.321 . S
C8 C9 1.403 . S
C8 H34 0.934 . S
C9 C4 1.413 . S
C9 C8 1.403 . S
C9 H35 0.930 . S
C10 O24 1.275 . S
C10 O25 1.256 1_455 S
C11 O26 1.259 . S
C11 O27 1.268 . S
C12 Ho1 2.811 . S
C12 C13 1.488 . S
C12 O28 1.215 . S
C12 O29 1.289 . S
C13 C12 1.488 . S
C13 C14 1.348 . S
C13 C18 1.413 . S
C14 C13 1.348 . S
C14 C15 1.442 . S
C14 H36 0.930 . S
C15 C14 1.442 . S
C15 C16 1.381 . S
C15 H37 0.931 . S
C16 C15 1.381 . S
C16 C17 1.321 . S
C17 C16 1.321 . S
C17 C18 1.403 . S
C17 H38 0.934 . S
C18 C13 1.413 . S
C18 C17 1.403 . S
C18 H39 0.930 . S
C19 O30 1.275 1_455 S
C19 O31 1.256 . S
O20 Ho0 2.322 . S
O20 C2 1.259 . S
O21 Ho1 2.346 1_455 S
O21 C2 1.268 . S
O22 Ho0 2.378 . S
O22 C3 1.215 . S
O23 Ho0 2.524 . S
O23 C3 1.289 . S
O24 Ho0 2.381 . S
O24 C10 1.275 . S
O25 Ho0 2.669 1_655 S
O25 Ho1 2.305 . S
O25 C10 1.256 1_655 S
O26 Ho1 2.322 . S
O26 C11 1.259 . S
O27 Ho0 2.346 1_655 S
O27 C11 1.268 . S
O28 Ho1 2.378 . S
O28 C12 1.215 . S
O29 Ho1 2.524 . S
O29 C12 1.289 . S
O30 Ho1 2.381 . S
O30 C19 1.275 1_655 S
O31 Ho0 2.305 . S
O31 Ho1 2.669 1_455 S
O31 C19 1.256 . S
H32 C5 0.930 . S
H33 C6 0.931 . S
H34 C8 0.934 . S
H35 C9 0.930 . S
H36 C14 0.930 . S
H37 C15 0.931 . S
H38 C17 0.934 . S
H39 C18 0.930 . S
Ho40 C43 2.787 1_545 S
Ho40 O60 2.319 1_545 S
Ho40 O62 2.355 1_545 S
Ho40 O63 2.505 1_545 S
Ho40 O64 2.384 . S
Ho40 O65 2.688 . S
Ho40 O67 2.365 . S
Ho40 O71 2.318 . S
Ho41 C52 2.811 . S
Ho41 O61 2.346 1_545 S
Ho41 O65 2.305 . S
Ho41 O66 2.322 . S
Ho41 O68 2.378 . S
Ho41 O69 2.524 . S
Ho41 O70 2.381 . S
Ho41 O71 2.669 . S
C42 O60 1.259 . S
C42 O61 1.268 . S
C43 Ho40 2.787 1_565 S
C43 C44 1.488 . S
C43 O62 1.215 . S
C43 O63 1.289 . S
C44 C43 1.488 . S
C44 C45 1.348 . S
C44 C49 1.413 . S
C45 C44 1.348 . S
C45 C46 1.442 . S
C45 H72 0.930 . S
C46 C45 1.442 . S
C46 C47 1.381 . S
C46 H73 0.931 . S
C47 C46 1.381 . S
C47 C48 1.321 . S
C48 C47 1.321 . S
C48 C49 1.403 . S
C48 H74 0.934 . S
C49 C44 1.413 . S
C49 C48 1.403 . S
C49 H75 0.930 . S
C50 O64 1.275 . S
C50 O65 1.256 . S
C51 O66 1.259 . S
C51 O67 1.268 . S
C52 Ho41 2.811 . S
C52 C53 1.488 . S
C52 O68 1.215 . S
C52 O69 1.289 . S
C53 C52 1.488 . S
C53 C54 1.348 . S
C53 C58 1.413 . S
C54 C53 1.348 . S
C54 C55 1.442 . S
C54 H76 0.930 . S
C55 C54 1.442 . S
C55 C56 1.381 . S
C55 H77 0.931 . S
C56 C55 1.381 . S
C56 C57 1.321 . S
C57 C56 1.321 . S
C57 C58 1.403 . S
C57 H78 0.934 . S
C58 C53 1.413 . S
C58 C57 1.403 . S
C58 H79 0.930 . S
C59 O70 1.275 . S
C59 O71 1.256 . S
O60 Ho40 2.319 1_565 S
O60 C42 1.259 . S
O61 Ho41 2.346 1_565 S
O61 C42 1.268 . S
O62 Ho40 2.355 1_565 S
O62 C43 1.215 . S
O63 Ho40 2.505 1_565 S
O63 C43 1.289 . S
O64 Ho40 2.384 . S
O64 C50 1.275 . S
O65 Ho40 2.688 . S
O65 Ho41 2.305 . S
O65 C50 1.256 . S
O66 Ho41 2.322 . S
O66 C51 1.259 . S
O67 Ho40 2.365 . S
O67 C51 1.268 . S
O68 Ho41 2.378 . S
O68 C52 1.215 . S
O69 Ho41 2.524 . S
O69 C52 1.289 . S
O70 Ho41 2.381 . S
O70 C59 1.275 . S
O71 Ho40 2.318 . S
O71 Ho41 2.669 . S
O71 C59 1.256 . S
H72 C45 0.930 . S
H73 C46 0.931 . S
H74 C48 0.934 . S
H75 C49 0.930 . S
H76 C54 0.930 . S
H77 C55 0.931 . S
H78 C57 0.934 . S
H79 C58 0.930 . S
Ho80 C83 2.811 . S
Ho80 O100 2.322 . S
Ho80 O102 2.378 . S
Ho80 O103 2.524 . S
Ho80 O104 2.381 . S
Ho80 O105 2.669 . S
Ho80 O107 2.346 . S
Ho80 O111 2.305 . S
Ho81 C92 2.811 . S
Ho81 O101 2.346 . S
Ho81 O105 2.305 . S
Ho81 O106 2.322 . S
Ho81 O108 2.378 . S
Ho81 O109 2.524 . S
Ho81 O110 2.381 . S
Ho81 O111 2.669 . S
C82 O100 1.259 . S
C82 O101 1.268 . S
C83 Ho80 2.811 . S
C83 C84 1.488 . S
C83 O102 1.215 . S
C83 O103 1.289 . S
C84 C83 1.488 . S
C84 C85 1.348 . S
C84 C89 1.413 . S
C85 C84 1.348 . S
C85 C86 1.442 . S
C85 H112 0.930 . S
C86 C85 1.442 . S
C86 C87 1.381 . S
C86 H113 0.931 . S
C87 C86 1.381 . S
C87 C88 1.321 . S
C88 C87 1.321 . S
C88 C89 1.403 . S
C88 H114 0.934 . S
C89 C84 1.413 . S
C89 C88 1.403 . S
C89 H115 0.930 . S
C90 O104 1.275 . S
C90 O105 1.256 . S
C91 O106 1.259 . S
C91 O107 1.268 . S
C92 Ho81 2.811 . S
C92 C93 1.488 . S
C92 O108 1.215 . S
C92 O109 1.289 . S
C93 C92 1.488 . S
C93 C94 1.348 . S
C93 C98 1.413 . S
C94 C93 1.348 . S
C94 C95 1.442 . S
C94 H116 0.930 . S
C95 C94 1.442 . S
C95 C96 1.381 . S
C95 H117 0.931 . S
C96 C95 1.381 . S
C96 C97 1.321 . S
C97 C96 1.321 . S
C97 C98 1.403 . S
C97 H118 0.934 . S
C98 C93 1.413 . S
C98 C97 1.403 . S
C98 H119 0.930 . S
C99 O110 1.275 . S
C99 O111 1.256 . S
O100 Ho80 2.322 . S
O100 C82 1.259 . S
O101 Ho81 2.346 . S
O101 C82 1.268 . S
O102 Ho80 2.378 . S
O102 C83 1.215 . S
O103 Ho80 2.524 . S
O103 C83 1.289 . S
O104 Ho80 2.381 . S
O104 C90 1.275 . S
O105 Ho80 2.669 . S
O105 Ho81 2.305 . S
O105 C90 1.256 . S
O106 Ho81 2.322 . S
O106 C91 1.259 . S
O107 Ho80 2.346 . S
O107 C91 1.268 . S
O108 Ho81 2.378 . S
O108 C92 1.215 . S
O109 Ho81 2.524 . S
O109 C92 1.289 . S
O110 Ho81 2.381 . S
O110 C99 1.275 . S
O111 Ho80 2.305 . S
O111 Ho81 2.669 . S
O111 C99 1.256 . S
H112 C85 0.930 . S
H113 C86 0.931 . S
H114 C88 0.934 . S
H115 C89 0.930 . S
H116 C94 0.930 . S
H117 C95 0.931 . S
H118 C97 0.934 . S
H119 C98 0.930 . S
H120 C127 0.929 . S
H121 C130 0.930 . S
H122 C132 0.929 . S
H123 C124 0.969 . S
C124 H123 0.969 . S
C124 O125 1.550 . S
C124 H126 0.973 . S
O125 C124 1.550 . S
O125 C131 1.412 . S
H126 C124 0.973 . S
C127 H120 0.929 . S
C127 C128 1.400 . S
C127 C129 1.364 . S
C128 C127 1.400 . S
C128 C132 1.377 . S
C129 C127 1.364 . S
C129 C130 1.374 1_545 S
C130 H121 0.930 . S
C130 C129 1.374 1_565 S
C130 C131 1.383 . S
C131 O125 1.412 . S
C131 C130 1.383 . S
C131 C132 1.394 1_565 S
C132 H122 0.929 . S
C132 C128 1.377 . S
C132 C131 1.394 1_545 S
H133 C140 0.929 . S
H134 C143 0.930 . S
H135 C145 0.929 . S
H136 C137 0.969 . S
C137 H136 0.969 . S
C137 O138 1.550 . S
C137 H139 0.973 . S
O138 C137 1.550 . S
O138 C144 1.412 . S
H139 C137 0.973 . S
C140 H133 0.929 . S
C140 C141 1.400 . S
C140 C142 1.364 . S
C141 C140 1.400 . S
C141 C145 1.377 . S
C142 C140 1.364 . S
C142 C143 1.374 . S
C143 H134 0.930 . S
C143 C142 1.374 . S
C143 C144 1.383 . S
C144 O138 1.412 . S
C144 C143 1.383 . S
C144 C145 1.394 . S
C145 H135 0.929 . S
C145 C141 1.377 . S
C145 C144 1.394 . S
H146 C153 0.929 . S
H147 C156 0.930 . S
H148 C158 0.929 . S
H149 C150 0.969 . S
C150 H149 0.969 . S
C150 O151 1.550 . S
C150 H152 0.973 . S
O151 C150 1.550 . S
O151 C157 1.412 . S
H152 C150 0.973 . S
C153 H146 0.929 . S
C153 C154 1.400 . S
C153 C155 1.364 . S
C154 C153 1.400 . S
C154 C158 1.377 . S
C155 C153 1.364 . S
C155 C156 1.374 . S
C156 H147 0.930 . S
C156 C155 1.374 . S
C156 C157 1.383 . S
C157 O151 1.412 . S
C157 C156 1.383 . S
C157 C158 1.394 . S
C158 H148 0.929 . S
C158 C154 1.377 . S
C158 C157 1.394 . S
H159 C166 0.929 . S
H160 C169 0.930 . S
H161 C171 0.929 . S
H162 C163 0.969 . S
C163 H162 0.969 . S
C163 O164 1.550 . S
C163 H165 0.973 . S
O164 C163 1.550 . S
O164 C170 1.412 . S
H165 C163 0.973 . S
C166 H159 0.929 . S
C166 C167 1.400 . S
C166 C168 1.364 1_655 S
C167 C166 1.400 . S
C167 C171 1.377 1_655 S
C168 C166 1.364 1_455 S
C168 C169 1.374 . S
C169 H160 0.930 . S
C169 C168 1.374 . S
C169 C170 1.383 . S
C170 O164 1.412 . S
C170 C169 1.383 . S
C170 C171 1.394 . S
C171 H161 0.929 . S
C171 C167 1.377 1_455 S
C171 C170 1.394 . S
H172 C179 0.929 . S
H173 C182 0.930 . S
H174 C184 0.929 . S
H175 C176 0.969 . S
C176 H175 0.969 . S
C176 O177 1.550 . S
C176 H178 0.973 . S
O177 C176 1.550 . S
O177 C183 1.412 . S
H178 C176 0.973 . S
C179 H172 0.929 . S
C179 C180 1.400 . S
C179 C181 1.364 1_565 S
C180 C179 1.400 . S
C180 C184 1.377 1_565 S
C181 C179 1.364 1_545 S
C181 C182 1.374 . S
C182 H173 0.930 . S
C182 C181 1.374 . S
C182 C183 1.383 . S
C183 O177 1.412 . S
C183 C182 1.383 . S
C183 C184 1.394 . S
C184 H174 0.929 . S
C184 C180 1.377 1_545 S
C184 C183 1.394 . S
H185 C192 0.929 . S
H186 C195 0.930 . S
H187 C197 0.929 . S
H188 C189 0.969 . S
C189 H188 0.969 . S
C189 O190 1.550 . S
C189 H191 0.973 . S
O190 C189 1.550 . S
O190 C196 1.412 . S
H191 C189 0.973 . S
C192 H185 0.929 . S
C192 C193 1.400 . S
C192 C194 1.364 . S
C193 C192 1.400 . S
C193 C197 1.377 . S
C194 C192 1.364 . S
C194 C195 1.374 . S
C195 H186 0.930 . S
C195 C194 1.374 . S
C195 C196 1.383 . S
C196 O190 1.412 . S
C196 C195 1.383 . S
C196 C197 1.394 . S
C197 H187 0.929 . S
C197 C193 1.377 . S
C197 C196 1.394 . S
C198 C199 1.391 . S
C198 C200 1.394 . S
C198 H214 0.931 . S
C199 C198 1.391 . S
C199 C203 1.376 . S
C200 C198 1.394 . S
C200 C201 1.369 . S
C200 C204 1.531 . S
C201 C200 1.369 . S
C201 C202 1.410 . S
C201 C209 1.503 . S
C202 C201 1.410 . S
C202 C203 1.392 . S
C202 C205 1.511 . S
C203 C199 1.376 . S
C203 C202 1.392 . S
C203 H215 0.929 . S
C204 C200 1.531 . S
C204 H216 0.960 . S
C204 H217 0.962 . S
C204 H218 0.960 . S
C205 C202 1.511 . S
C205 H219 0.961 . S
C205 H220 0.961 . S
C205 H221 0.961 . S
C206 C207 1.370 . S
C206 C208 1.363 . S
C206 H222 0.931 . S
C207 C206 1.370 . S
C207 C211 1.408 . S
C208 C206 1.363 . S
C208 C209 1.370 . S
C208 C212 1.524 . S
C209 C201 1.503 . S
C209 C208 1.370 . S
C209 C210 1.403 . S
C210 C209 1.403 . S
C210 C211 1.404 . S
C210 C213 1.539 . S
C211 C207 1.408 . S
C211 C210 1.404 . S
C211 H223 0.930 . S
C212 C208 1.524 . S
C212 H224 0.956 . S
C212 H225 0.961 . S
C212 H226 0.961 . S
C213 C210 1.539 . S
C213 H227 0.958 . S
C213 H228 0.961 . S
C213 H229 0.960 . S
H214 C198 0.931 . S
H215 C203 0.929 . S
H216 C204 0.960 . S
H217 C204 0.962 . S
H218 C204 0.960 . S
H219 C205 0.961 . S
H220 C205 0.961 . S
H221 C205 0.961 . S
H222 C206 0.931 . S
H223 C211 0.930 . S
H224 C212 0.956 . S
H225 C212 0.961 . S
H226 C212 0.961 . S
H227 C213 0.958 . S
H228 C213 0.961 . S
H229 C213 0.960 . S
C230 C231 1.391 . S
C230 C232 1.394 . S
C230 H246 0.931 . S
C231 C230 1.391 . S
C231 C235 1.376 . S
C232 C230 1.394 . S
C232 C233 1.369 . S
C232 C236 1.531 . S
C233 C232 1.369 . S
C233 C234 1.410 . S
C233 C241 1.503 . S
C234 C233 1.410 . S
C234 C235 1.392 . S
C234 C237 1.511 . S
C235 C231 1.376 . S
C235 C234 1.392 . S
C235 H247 0.929 . S
C236 C232 1.531 . S
C236 H248 0.960 . S
C236 H249 0.962 . S
C236 H250 0.960 . S
C237 C234 1.511 . S
C237 H251 0.961 . S
C237 H252 0.961 . S
C237 H253 0.961 . S
C238 C239 1.370 . S
C238 C240 1.363 . S
C238 H254 0.931 . S
C239 C238 1.370 . S
C239 C243 1.408 . S
C240 C238 1.363 . S
C240 C241 1.370 . S
C240 C244 1.524 . S
C241 C233 1.503 . S
C241 C240 1.370 . S
C241 C242 1.403 . S
C242 C241 1.403 . S
C242 C243 1.404 . S
C242 C245 1.539 . S
C243 C239 1.408 . S
C243 C242 1.404 . S
C243 H255 0.930 . S
C244 C240 1.524 . S
C244 H256 0.956 . S
C244 H257 0.961 . S
C244 H258 0.961 . S
C245 C242 1.539 . S
C245 H259 0.958 . S
C245 H260 0.961 . S
C245 H261 0.960 . S
H246 C230 0.931 . S
H247 C235 0.929 . S
H248 C236 0.960 . S
H249 C236 0.962 . S
H250 C236 0.960 . S
H251 C237 0.961 . S
H252 C237 0.961 . S
H253 C237 0.961 . S
H254 C238 0.931 . S
H255 C243 0.930 . S
H256 C244 0.956 . S
H257 C244 0.961 . S
H258 C244 0.961 . S
H259 C245 0.958 . S
H260 C245 0.961 . S
H261 C245 0.960 . S
C262 C263 1.391 . S
C262 C264 1.394 . S
C262 H278 0.931 . S
C263 C262 1.391 . S
C263 C267 1.376 . S
C264 C262 1.394 . S
C264 C265 1.369 . S
C264 C268 1.531 . S
C265 C264 1.369 . S
C265 C266 1.410 . S
C265 C273 1.503 . S
C266 C265 1.410 . S
C266 C267 1.392 . S
C266 C269 1.511 . S
C267 C263 1.376 . S
C267 C266 1.392 . S
C267 H279 0.929 . S
C268 C264 1.531 . S
C268 H280 0.960 . S
C268 H281 0.962 . S
C268 H282 0.960 . S
C269 C266 1.511 . S
C269 H283 0.961 . S
C269 H284 0.961 . S
C269 H285 0.961 . S
C270 C271 1.370 . S
C270 C272 1.363 . S
C270 H286 0.931 . S
C271 C270 1.370 . S
C271 C275 1.408 . S
C272 C270 1.363 . S
C272 C273 1.370 . S
C272 C276 1.524 . S
C273 C265 1.503 . S
C273 C272 1.370 . S
C273 C274 1.403 . S
C274 C273 1.403 . S
C274 C275 1.404 . S
C274 C277 1.539 . S
C275 C271 1.408 . S
C275 C274 1.404 . S
C275 H287 0.930 . S
C276 C272 1.524 . S
C276 H288 0.956 . S
C276 H289 0.961 . S
C276 H290 0.961 . S
C277 C274 1.539 . S
C277 H291 0.958 . S
C277 H292 0.961 . S
C277 H293 0.960 . S
H278 C262 0.931 . S
H279 C267 0.929 . S
H280 C268 0.960 . S
H281 C268 0.962 . S
H282 C268 0.960 . S
H283 C269 0.961 . S
H284 C269 0.961 . S
H285 C269 0.961 . S
H286 C270 0.931 . S
H287 C275 0.930 . S
H288 C276 0.956 . S
H289 C276 0.961 . S
H290 C276 0.961 . S
H291 C277 0.958 . S
H292 C277 0.961 . S
H293 C277 0.960 . S
C294 C295 1.391 . S
C294 C296 1.394 . S
C294 H310 0.931 . S
C295 C294 1.391 . S
C295 C299 1.376 . S
C296 C294 1.394 . S
C296 C297 1.369 . S
C296 C300 1.531 . S
C297 C296 1.369 . S
C297 C298 1.410 . S
C297 C305 1.503 . S
C298 C297 1.410 . S
C298 C299 1.392 . S
C298 C301 1.511 . S
C299 C295 1.376 . S
C299 C298 1.392 . S
C299 H311 0.929 . S
C300 C296 1.531 . S
C300 H312 0.960 . S
C300 H313 0.962 . S
C300 H314 0.960 . S
C301 C298 1.511 . S
C301 H315 0.961 . S
C301 H316 0.961 . S
C301 H317 0.961 . S
C302 C303 1.370 . S
C302 C304 1.363 . S
C302 H318 0.931 . S
C303 C302 1.370 . S
C303 C307 1.408 . S
C304 C302 1.363 . S
C304 C305 1.370 . S
C304 C308 1.524 . S
C305 C297 1.503 . S
C305 C304 1.370 . S
C305 C306 1.403 . S
C306 C305 1.403 . S
C306 C307 1.404 . S
C306 C309 1.539 . S
C307 C303 1.408 . S
C307 C306 1.404 . S
C307 H319 0.930 . S
C308 C304 1.524 . S
C308 H320 0.956 . S
C308 H321 0.961 . S
C308 H322 0.961 . S
C309 C306 1.539 . S
C309 H323 0.958 . S
C309 H324 0.961 . S
C309 H325 0.960 . S
H310 C294 0.931 . S
H311 C299 0.929 . S
H312 C300 0.960 . S
H313 C300 0.962 . S
H314 C300 0.960 . S
H315 C301 0.961 . S
H316 C301 0.961 . S
H317 C301 0.961 . S
H318 C302 0.931 . S
H319 C307 0.930 . S
H320 C308 0.956 . S
H321 C308 0.961 . S
H322 C308 0.961 . S
H323 C309 0.958 . S
H324 C309 0.961 . S
H325 C309 0.960 . S
C326 C327 1.391 . S
C326 C328 1.394 . S
C326 H342 0.931 . S
C327 C326 1.391 . S
C327 C331 1.376 . S
C328 C326 1.394 . S
C328 C329 1.369 . S
C328 C332 1.531 . S
C329 C328 1.369 . S
C329 C330 1.410 . S
C329 C337 1.503 . S
C330 C329 1.410 . S
C330 C331 1.392 . S
C330 C333 1.511 . S
C331 C327 1.376 . S
C331 C330 1.392 . S
C331 H343 0.929 . S
C332 C328 1.531 . S
C332 H344 0.960 . S
C332 H345 0.962 . S
C332 H346 0.960 . S
C333 C330 1.511 . S
C333 H347 0.961 . S
C333 H348 0.961 . S
C333 H349 0.961 . S
C334 C335 1.370 . S
C334 C336 1.363 . S
C334 H350 0.931 . S
C335 C334 1.370 . S
C335 C339 1.408 . S
C336 C334 1.363 . S
C336 C337 1.370 . S
C336 C340 1.524 . S
C337 C329 1.503 . S
C337 C336 1.370 . S
C337 C338 1.403 . S
C338 C337 1.403 . S
C338 C339 1.404 . S
C338 C341 1.539 . S
C339 C335 1.408 . S
C339 C338 1.404 . S
C339 H351 0.930 . S
C340 C336 1.524 . S
C340 H352 0.956 . S
C340 H353 0.961 . S
C340 H354 0.961 . S
C341 C338 1.539 . S
C341 H355 0.958 . S
C341 H356 0.961 . S
C341 H357 0.960 . S
H342 C326 0.931 . S
H343 C331 0.929 . S
H344 C332 0.960 . S
H345 C332 0.962 . S
H346 C332 0.960 . S
H347 C333 0.961 . S
H348 C333 0.961 . S
H349 C333 0.961 . S
H350 C334 0.931 . S
H351 C339 0.930 . S
H352 C340 0.956 . S
H353 C340 0.961 . S
H354 C340 0.961 . S
H355 C341 0.958 . S
H356 C341 0.961 . S
H357 C341 0.960 . S
C358 C359 1.391 . S
C358 C360 1.394 . S
C358 H374 0.931 . S
C359 C358 1.391 . S
C359 C363 1.376 . S
C360 C358 1.394 . S
C360 C361 1.369 . S
C360 C364 1.531 . S
C361 C360 1.369 . S
C361 C362 1.410 . S
C361 C369 1.503 . S
C362 C361 1.410 . S
C362 C363 1.392 . S
C362 C365 1.511 . S
C363 C359 1.376 . S
C363 C362 1.392 . S
C363 H375 0.929 . S
C364 C360 1.531 . S
C364 H376 0.960 . S
C364 H377 0.962 . S
C364 H378 0.960 . S
C365 C362 1.511 . S
C365 H379 0.961 . S
C365 H380 0.961 . S
C365 H381 0.961 . S
C366 C367 1.370 . S
C366 C368 1.363 . S
C366 H382 0.931 . S
C367 C366 1.370 . S
C367 C371 1.408 . S
C368 C366 1.363 . S
C368 C369 1.370 . S
C368 C372 1.524 . S
C369 C361 1.503 . S
C369 C368 1.370 . S
C369 C370 1.403 . S
C370 C369 1.403 . S
C370 C371 1.404 . S
C370 C373 1.539 . S
C371 C367 1.408 . S
C371 C370 1.404 . S
C371 H383 0.930 . S
C372 C368 1.524 . S
C372 H384 0.956 . S
C372 H385 0.961 . S
C372 H386 0.961 . S
C373 C370 1.539 . S
C373 H387 0.958 . S
C373 H388 0.961 . S
C373 H389 0.960 . S
H374 C358 0.931 . S
H375 C363 0.929 . S
H376 C364 0.960 . S
H377 C364 0.962 . S
H378 C364 0.960 . S
H379 C365 0.961 . S
H380 C365 0.961 . S
H381 C365 0.961 . S
H382 C366 0.931 . S
H383 C371 0.930 . S
H384 C372 0.956 . S
H385 C372 0.961 . S
H386 C372 0.961 . S
H387 C373 0.958 . S
H388 C373 0.961 . S
H389 C373 0.960 . S
C390 C391 1.391 . S
C390 C392 1.394 . S
C390 H406 0.931 . S
C391 C390 1.391 . S
C391 C395 1.376 . S
C392 C390 1.394 . S
C392 C393 1.369 . S
C392 C396 1.531 . S
C393 C392 1.369 . S
C393 C394 1.410 . S
C393 C401 1.503 . S
C394 C393 1.410 . S
C394 C395 1.392 . S
C394 C397 1.511 . S
C395 C391 1.376 . S
C395 C394 1.392 . S
C395 H407 0.929 . S
C396 C392 1.531 . S
C396 H408 0.960 . S
C396 H409 0.962 . S
C396 H410 0.960 . S
C397 C394 1.511 . S
C397 H411 0.961 . S
C397 H412 0.961 . S
C397 H413 0.961 . S
C398 C399 1.370 . S
C398 C400 1.363 . S
C398 H414 0.931 . S
C399 C398 1.370 . S
C399 C403 1.408 . S
C400 C398 1.363 . S
C400 C401 1.370 . S
C400 C404 1.524 . S
C401 C393 1.503 . S
C401 C400 1.370 . S
C401 C402 1.403 . S
C402 C401 1.403 . S
C402 C403 1.404 . S
C402 C405 1.539 . S
C403 C399 1.408 . S
C403 C402 1.404 . S
C403 H415 0.930 . S
C404 C400 1.524 . S
C404 H416 0.956 . S
C404 H417 0.961 . S
C404 H418 0.961 . S
C405 C402 1.539 . S
C405 H419 0.958 . S
C405 H420 0.961 . S
C405 H421 0.960 . S
H406 C390 0.931 . S
H407 C395 0.929 . S
H408 C396 0.960 . S
H409 C396 0.962 . S
H410 C396 0.960 . S
H411 C397 0.961 . S
H412 C397 0.961 . S
H413 C397 0.961 . S
H414 C398 0.931 . S
H415 C403 0.930 . S
H416 C404 0.956 . S
H417 C404 0.961 . S
H418 C404 0.961 . S
H419 C405 0.958 . S
H420 C405 0.961 . S
H421 C405 0.960 . S
C422 C423 1.391 . S
C422 C424 1.394 . S
C422 H438 0.931 . S
C423 C422 1.391 . S
C423 C427 1.376 . S
C424 C422 1.394 . S
C424 C425 1.369 . S
C424 C428 1.531 . S
C425 C424 1.369 . S
C425 C426 1.410 . S
C425 C433 1.503 . S
C426 C425 1.410 . S
C426 C427 1.392 . S
C426 C429 1.511 . S
C427 C423 1.376 . S
C427 C426 1.392 . S
C427 H439 0.929 . S
C428 C424 1.531 . S
C428 H440 0.960 . S
C428 H441 0.962 . S
C428 H442 0.960 . S
C429 C426 1.511 . S
C429 H443 0.961 . S
C429 H444 0.961 . S
C429 H445 0.961 . S
C430 C431 1.370 . S
C430 C432 1.363 . S
C430 H446 0.931 . S
C431 C430 1.370 . S
C431 C435 1.408 . S
C432 C430 1.363 . S
C432 C433 1.370 . S
C432 C436 1.524 . S
C433 C425 1.503 . S
C433 C432 1.370 . S
C433 C434 1.403 . S
C434 C433 1.403 . S
C434 C435 1.404 . S
C434 C437 1.539 . S
C435 C431 1.408 . S
C435 C434 1.404 . S
C435 H447 0.930 . S
C436 C432 1.524 . S
C436 H448 0.956 . S
C436 H449 0.961 . S
C436 H450 0.961 . S
C437 C434 1.539 . S
C437 H451 0.958 . S
C437 H452 0.961 . S
C437 H453 0.960 . S
H438 C422 0.931 . S
H439 C427 0.929 . S
H440 C428 0.960 . S
H441 C428 0.962 . S
H442 C428 0.960 . S
H443 C429 0.961 . S
H444 C429 0.961 . S
H445 C429 0.961 . S
H446 C430 0.931 . S
H447 C435 0.930 . S
H448 C436 0.956 . S
H449 C436 0.961 . S
H450 C436 0.961 . S
H451 C437 0.958 . S
H452 C437 0.961 . S
H453 C437 0.960 . S
C454 C455 1.391 . S
C454 C456 1.394 . S
C454 H470 0.931 . S
C455 C454 1.391 . S
C455 C459 1.376 . S
C456 C454 1.394 . S
C456 C457 1.369 . S
C456 C460 1.531 . S
C457 C456 1.369 . S
C457 C458 1.410 . S
C457 C465 1.503 . S
C458 C457 1.410 . S
C458 C459 1.392 . S
C458 C461 1.511 . S
C459 C455 1.376 . S
C459 C458 1.392 . S
C459 H471 0.929 . S
C460 C456 1.531 . S
C460 H472 0.960 . S
C460 H473 0.962 . S
C460 H474 0.960 . S
C461 C458 1.511 . S
C461 H475 0.961 . S
C461 H476 0.961 . S
C461 H477 0.961 . S
C462 C463 1.370 . S
C462 C464 1.363 . S
C462 H478 0.931 . S
C463 C462 1.370 . S
C463 C467 1.408 . S
C464 C462 1.363 . S
C464 C465 1.370 . S
C464 C468 1.524 . S
C465 C457 1.503 . S
C465 C464 1.370 . S
C465 C466 1.403 . S
C466 C465 1.403 . S
C466 C467 1.404 . S
C466 C469 1.539 . S
C467 C463 1.408 . S
C467 C466 1.404 . S
C467 H479 0.930 . S
C468 C464 1.524 . S
C468 H480 0.956 . S
C468 H481 0.961 . S
C468 H482 0.961 . S
C469 C466 1.539 . S
C469 H483 0.958 . S
C469 H484 0.961 . S
C469 H485 0.960 . S
H470 C454 0.931 . S
H471 C459 0.929 . S
H472 C460 0.960 . S
H473 C460 0.962 . S
H474 C460 0.960 . S
H475 C461 0.961 . S
H476 C461 0.961 . S
H477 C461 0.961 . S
H478 C462 0.931 . S
H479 C467 0.930 . S
H480 C468 0.956 . S
H481 C468 0.961 . S
H482 C468 0.961 . S
H483 C469 0.958 . S
H484 C469 0.961 . S
H485 C469 0.960 . S
C486 C487 1.391 . S
C486 C488 1.394 . S
C486 H502 0.931 . S
C487 C486 1.391 . S
C487 C491 1.376 . S
C488 C486 1.394 . S
C488 C489 1.369 . S
C488 C492 1.531 . S
C489 C488 1.369 . S
C489 C490 1.410 . S
C489 C497 1.503 . S
C490 C489 1.410 . S
C490 C491 1.392 . S
C490 C493 1.511 . S
C491 C487 1.376 . S
C491 C490 1.392 . S
C491 H503 0.929 . S
C492 C488 1.531 . S
C492 H504 0.960 . S
C492 H505 0.962 . S
C492 H506 0.960 . S
C493 C490 1.511 . S
C493 H507 0.961 . S
C493 H508 0.961 . S
C493 H509 0.961 . S
C494 C495 1.370 . S
C494 C496 1.363 . S
C494 H510 0.931 . S
C495 C494 1.370 . S
C495 C499 1.408 . S
C496 C494 1.363 . S
C496 C497 1.370 . S
C496 C500 1.524 . S
C497 C489 1.503 . S
C497 C496 1.370 . S
C497 C498 1.403 . S
C498 C497 1.403 . S
C498 C499 1.404 . S
C498 C501 1.539 . S
C499 C495 1.408 . S
C499 C498 1.404 . S
C499 H511 0.930 . S
C500 C496 1.524 . S
C500 H512 0.956 . S
C500 H513 0.961 . S
C500 H514 0.961 . S
C501 C498 1.539 . S
C501 H515 0.958 . S
C501 H516 0.961 . S
C501 H517 0.960 . S
H502 C486 0.931 . S
H503 C491 0.929 . S
H504 C492 0.960 . S
H505 C492 0.962 . S
H506 C492 0.960 . S
H507 C493 0.961 . S
H508 C493 0.961 . S
H509 C493 0.961 . S
H510 C494 0.931 . S
H511 C499 0.930 . S
H512 C500 0.956 . S
H513 C500 0.961 . S
H514 C500 0.961 . S
H515 C501 0.958 . S
H516 C501 0.961 . S
H517 C501 0.960 . S
C518 C519 1.391 . S
C518 C520 1.394 . S
C518 H534 0.931 . S
C519 C518 1.391 . S
C519 C523 1.376 . S
C520 C518 1.394 . S
C520 C521 1.369 . S
C520 C524 1.531 . S
C521 C520 1.369 . S
C521 C522 1.410 . S
C521 C529 1.503 . S
C522 C521 1.410 . S
C522 C523 1.392 . S
C522 C525 1.511 . S
C523 C519 1.376 . S
C523 C522 1.392 . S
C523 H535 0.929 . S
C524 C520 1.531 . S
C524 H536 0.960 . S
C524 H537 0.962 . S
C524 H538 0.960 . S
C525 C522 1.511 . S
C525 H539 0.961 . S
C525 H540 0.961 . S
C525 H541 0.961 . S
C526 C527 1.370 . S
C526 C528 1.363 . S
C526 H542 0.931 . S
C527 C526 1.370 . S
C527 C531 1.408 . S
C528 C526 1.363 . S
C528 C529 1.370 . S
C528 C532 1.524 . S
C529 C521 1.503 . S
C529 C528 1.370 . S
C529 C530 1.403 . S
C530 C529 1.403 . S
C530 C531 1.404 . S
C530 C533 1.539 . S
C531 C527 1.408 . S
C531 C530 1.404 . S
C531 H543 0.930 . S
C532 C528 1.524 . S
C532 H544 0.956 . S
C532 H545 0.961 . S
C532 H546 0.961 . S
C533 C530 1.539 . S
C533 H547 0.958 . S
C533 H548 0.961 . S
C533 H549 0.960 . S
H534 C518 0.931 . S
H535 C523 0.929 . S
H536 C524 0.960 . S
H537 C524 0.962 . S
H538 C524 0.960 . S
H539 C525 0.961 . S
H540 C525 0.961 . S
H541 C525 0.961 . S
H542 C526 0.931 . S
H543 C531 0.930 . S
H544 C532 0.956 . S
H545 C532 0.961 . S
H546 C532 0.961 . S
H547 C533 0.958 . S
H548 C533 0.961 . S
H549 C533 0.960 . S
C550 C551 1.391 . S
C550 C552 1.394 . S
C550 H566 0.931 . S
C551 C550 1.391 . S
C551 C555 1.376 . S
C552 C550 1.394 . S
C552 C553 1.369 . S
C552 C556 1.531 . S
C553 C552 1.369 . S
C553 C554 1.410 . S
C553 C561 1.503 . S
C554 C553 1.410 . S
C554 C555 1.392 . S
C554 C557 1.511 . S
C555 C551 1.376 . S
C555 C554 1.392 . S
C555 H567 0.929 . S
C556 C552 1.531 . S
C556 H568 0.960 . S
C556 H569 0.962 . S
C556 H570 0.960 . S
C557 C554 1.511 . S
C557 H571 0.961 . S
C557 H572 0.961 . S
C557 H573 0.961 . S
C558 C559 1.370 . S
C558 C560 1.363 . S
C558 H574 0.931 . S
C559 C558 1.370 . S
C559 C563 1.408 . S
C560 C558 1.363 . S
C560 C561 1.370 . S
C560 C564 1.524 . S
C561 C553 1.503 . S
C561 C560 1.370 . S
C561 C562 1.403 . S
C562 C561 1.403 . S
C562 C563 1.404 . S
C562 C565 1.539 . S
C563 C559 1.408 . S
C563 C562 1.404 . S
C563 H575 0.930 . S
C564 C560 1.524 . S
C564 H576 0.956 . S
C564 H577 0.961 . S
C564 H578 0.961 . S
C565 C562 1.539 . S
C565 H579 0.958 . S
C565 H580 0.961 . S
C565 H581 0.960 . S
H566 C550 0.931 . S
H567 C555 0.929 . S
H568 C556 0.960 . S
H569 C556 0.962 . S
H570 C556 0.960 . S
H571 C557 0.961 . S
H572 C557 0.961 . S
H573 C557 0.961 . S
H574 C558 0.931 . S
H575 C563 0.930 . S
H576 C564 0.956 . S
H577 C564 0.961 . S
H578 C564 0.961 . S
H579 C565 0.958 . S
H580 C565 0.961 . S
H581 C565 0.960 . S
C582 C583 1.410 . S
C582 C584 1.398 . S
C582 H598 0.908 1_455 S
C583 C582 1.410 . S
C583 C587 1.376 . S
C584 C582 1.398 . S
C584 C585 1.369 . S
C584 C588 1.531 1_455 S
C585 C584 1.369 . S
C585 C586 1.410 . S
C585 C593 1.503 1_554 S
C586 C585 1.410 . S
C586 C587 1.392 . S
C586 C589 1.511 . S
C587 C583 1.376 . S
C587 C586 1.392 . S
C587 H599 0.929 . S
C588 C584 1.531 1_655 S
C588 H600 0.960 1_655 S
C588 H601 0.962 . S
C588 H602 0.960 . S
C589 C586 1.511 . S
C589 H603 0.961 . S
C589 H604 0.961 . S
C589 H605 0.961 . S
C590 C591 1.370 . S
C590 C592 1.363 . S
C590 H606 0.931 . S
C591 C590 1.370 . S
C591 C595 1.408 . S
C592 C590 1.363 . S
C592 C593 1.370 . S
C592 C596 1.524 1_455 S
C593 C585 1.503 1_556 S
C593 C592 1.370 . S
C593 C594 1.403 . S
C594 C593 1.403 . S
C594 C595 1.404 . S
C594 C597 1.539 1_556 S
C595 C591 1.408 . S
C595 C594 1.404 . S
C595 H607 0.930 . S
C596 C592 1.524 1_655 S
C596 H608 0.956 . S
C596 H609 0.961 1_556 S
C596 H610 0.961 . S
C597 C594 1.539 1_554 S
C597 H611 0.958 . S
C597 H612 0.961 1_554 S
C597 H613 0.960 . S
H598 C582 0.908 1_655 S
H599 C587 0.929 . S
H600 C588 0.960 1_455 S
H601 C588 0.962 . S
H602 C588 0.960 . S
H603 C589 0.961 . S
H604 C589 0.961 . S
H605 C589 0.961 . S
H606 C590 0.931 . S
H607 C595 0.930 . S
H608 C596 0.956 . S
H609 C596 0.961 1_554 S
H610 C596 0.961 . S
H611 C597 0.958 . S
H612 C597 0.961 1_556 S
H613 C597 0.960 . S
C614 C615 1.391 . S
C614 C616 1.394 . S
C614 H630 0.931 . S
C615 C614 1.391 . S
C615 C619 1.376 . S
C616 C614 1.394 . S
C616 C617 1.369 . S
C616 C620 1.531 . S
C617 C616 1.369 . S
C617 C618 1.410 . S
C617 C625 1.503 . S
C618 C617 1.410 . S
C618 C619 1.392 . S
C618 C621 1.511 . S
C619 C615 1.376 . S
C619 C618 1.392 . S
C619 H631 0.929 . S
C620 C616 1.531 . S
C620 H632 0.960 1_545 S
C620 H633 0.962 . S
C620 H634 0.960 . S
C621 C618 1.511 . S
C621 H635 0.961 . S
C621 H636 0.961 . S
C621 H637 0.961 1_545 S
C622 C623 1.370 . S
C622 C624 1.363 . S
C622 H638 0.931 . S
C623 C622 1.370 . S
C623 C627 1.408 1_545 S
C624 C622 1.363 . S
C624 C625 1.370 . S
C624 C628 1.524 . S
C625 C617 1.503 . S
C625 C624 1.370 . S
C625 C626 1.403 1_545 S
C626 C625 1.403 1_565 S
C626 C627 1.404 . S
C626 C629 1.539 . S
C627 C623 1.408 1_565 S
C627 C626 1.404 . S
C627 H639 0.930 . S
C628 C624 1.524 . S
C628 H640 0.956 . S
C628 H641 0.961 . S
C628 H642 0.961 . S
C629 C626 1.539 . S
C629 H643 0.958 . S
C629 H644 0.961 . S
C629 H645 0.960 . S
H630 C614 0.931 . S
H631 C619 0.929 . S
H632 C620 0.960 1_565 S
H633 C620 0.962 . S
H634 C620 0.960 . S
H635 C621 0.961 . S
H636 C621 0.961 . S
H637 C621 0.961 1_565 S
H638 C622 0.931 . S
H639 C627 0.930 . S
H640 C628 0.956 . S
H641 C628 0.961 . S
H642 C628 0.961 . S
H643 C629 0.958 . S
H644 C629 0.961 . S
H645 C629 0.960 . S
C646 C647 1.391 . S
C646 C648 1.394 . S
C646 H662 0.931 . S
C647 C646 1.391 . S
C647 C651 1.376 . S
C648 C646 1.394 . S
C648 C649 1.369 . S
C648 C652 1.531 . S
C649 C648 1.369 . S
C649 C650 1.410 . S
C649 C657 1.503 . S
C650 C649 1.410 . S
C650 C651 1.392 . S
C650 C653 1.511 . S
C651 C647 1.376 . S
C651 C650 1.392 . S
C651 H663 0.929 . S
C652 C648 1.531 . S
C652 H664 0.960 . S
C652 H665 0.962 . S
C652 H666 0.960 . S
C653 C650 1.511 . S
C653 H667 0.961 . S
C653 H668 0.961 . S
C653 H669 0.961 . S
C654 C655 1.370 . S
C654 C656 1.363 . S
C654 H670 0.931 . S
C655 C654 1.370 . S
C655 C659 1.408 . S
C656 C654 1.363 . S
C656 C657 1.370 . S
C656 C660 1.524 . S
C657 C649 1.503 . S
C657 C656 1.370 . S
C657 C658 1.403 . S
C658 C657 1.403 . S
C658 C659 1.404 . S
C658 C661 1.539 . S
C659 C655 1.408 . S
C659 C658 1.404 . S
C659 H671 0.930 . S
C660 C656 1.524 . S
C660 H672 0.956 . S
C660 H673 0.961 . S
C660 H674 0.961 . S
C661 C658 1.539 . S
C661 H675 0.958 . S
C661 H676 0.961 . S
C661 H677 0.960 . S
H662 C646 0.931 . S
H663 C651 0.929 . S
H664 C652 0.960 . S
H665 C652 0.962 . S
H666 C652 0.960 . S
H667 C653 0.961 . S
H668 C653 0.961 . S
H669 C653 0.961 . S
H670 C654 0.931 . S
H671 C659 0.930 . S
H672 C660 0.956 . S
H673 C660 0.961 . S
H674 C660 0.961 . S
H675 C661 0.958 . S
H676 C661 0.961 . S
H677 C661 0.960 . S
C678 C679 1.391 . S
C678 C680 1.394 . S
C678 H694 0.931 . S
C679 C678 1.391 . S
C679 C683 1.365 . S
C680 C678 1.394 . S
C680 C681 1.369 . S
C680 C684 1.531 . S
C681 C680 1.369 . S
C681 C682 1.410 . S
C681 C689 1.503 . S
C682 C681 1.410 . S
C682 C683 1.399 . S
C682 C685 1.511 1_545 S
C683 C679 1.365 . S
C683 C682 1.399 . S
C683 H695 0.934 1_545 S
C684 C680 1.531 . S
C684 H696 0.960 . S
C684 H697 0.962 . S
C684 H698 0.960 . S
C685 C682 1.511 1_565 S
C685 H699 0.961 . S
C685 H700 0.961 . S
C685 H701 0.961 1_565 S
C686 C687 1.370 1_565 S
C686 C688 1.363 . S
C686 H702 0.931 . S
C687 C686 1.370 1_545 S
C687 C691 1.408 . S
C688 C686 1.363 . S
C688 C689 1.370 1_565 S
C688 C692 1.524 . S
C689 C681 1.503 . S
C689 C688 1.370 1_545 S
C689 C690 1.403 . S
C690 C689 1.403 . S
C690 C691 1.404 . S
C690 C693 1.539 . S
C691 C687 1.408 . S
C691 C690 1.404 . S
C691 H703 0.930 . S
C692 C688 1.524 . S
C692 H704 0.956 . S
C692 H705 0.961 . S
C692 H706 0.961 . S
C693 C690 1.539 . S
C693 H707 0.958 . S
C693 H708 0.961 . S
C693 H709 0.960 . S
H694 C678 0.931 . S
H695 C683 0.934 1_565 S
H696 C684 0.960 . S
H697 C684 0.962 . S
H698 C684 0.960 . S
H699 C685 0.961 . S
H700 C685 0.961 . S
H701 C685 0.961 1_545 S
H702 C686 0.931 . S
H703 C691 0.930 . S
H704 C692 0.956 . S
H705 C692 0.961 . S
H706 C692 0.961 . S
H707 C693 0.958 . S
H708 C693 0.961 . S
H709 C693 0.960 . S
C710 C711 1.391 . S
C710 C712 1.394 . S
C710 H726 0.931 . S
C711 C710 1.391 . S
C711 C715 1.376 . S
C712 C710 1.394 . S
C712 C713 1.369 . S
C712 C716 1.531 . S
C713 C712 1.369 . S
C713 C714 1.410 . S
C713 C721 1.503 . S
C714 C713 1.410 . S
C714 C715 1.392 . S
C714 C717 1.511 . S
C715 C711 1.376 . S
C715 C714 1.392 . S
C715 H727 0.929 . S
C716 C712 1.531 . S
C716 H728 0.960 . S
C716 H729 0.962 . S
C716 H730 0.960 . S
C717 C714 1.511 . S
C717 H731 0.961 . S
C717 H732 0.961 . S
C717 H733 0.961 . S
C718 C719 1.370 . S
C718 C720 1.342 1_554 S
C718 H734 0.931 . S
C719 C718 1.370 . S
C719 C723 1.408 . S
C720 C718 1.342 1_556 S
C720 C721 1.377 . S
C720 C724 1.539 . S
C721 C713 1.503 . S
C721 C720 1.377 . S
C721 C722 1.403 1_556 S
C722 C721 1.403 1_554 S
C722 C723 1.404 . S
C722 C725 1.539 . S
C723 C719 1.408 . S
C723 C722 1.404 . S
C723 H735 0.930 . S
C724 C720 1.539 . S
C724 H736 0.956 . S
C724 H737 0.961 . S
C724 H738 0.961 . S
C725 C722 1.539 . S
C725 H739 0.958 . S
C725 H740 0.961 . S
C725 H741 0.960 1_554 S
H726 C710 0.931 . S
H727 C715 0.929 . S
H728 C716 0.960 . S
H729 C716 0.962 . S
H730 C716 0.960 . S
H731 C717 0.961 . S
H732 C717 0.961 . S
H733 C717 0.961 . S
H734 C718 0.931 . S
H735 C723 0.930 . S
H736 C724 0.956 . S
H737 C724 0.961 . S
H738 C724 0.961 . S
H739 C725 0.958 . S
H740 C725 0.961 . S
H741 C725 0.960 1_556 S
C742 C743 1.384 1_455 S
C742 C744 1.394 . S
C742 H758 0.931 . S
C743 C742 1.384 1_655 S
C743 C747 1.383 . S
C744 C742 1.394 . S
C744 C745 1.369 . S
C744 C748 1.531 . S
C745 C744 1.369 . S
C745 C746 1.410 1_455 S
C745 C753 1.503 . S
C746 C745 1.410 1_655 S
C746 C747 1.392 . S
C746 C749 1.511 . S
C747 C743 1.383 . S
C747 C746 1.392 . S
C747 H759 0.929 . S
C748 C744 1.531 . S
C748 H760 0.960 . S
C748 H761 0.962 . S
C748 H762 0.960 . S
C749 C746 1.511 . S
C749 H763 0.961 . S
C749 H764 0.961 . S
C749 H765 0.961 . S
C750 C751 1.370 . S
C750 C752 1.363 . S
C750 H766 0.931 . S
C751 C750 1.370 . S
C751 C755 1.408 . S
C752 C750 1.363 . S
C752 C753 1.370 . S
C752 C756 1.524 . S
C753 C745 1.503 . S
C753 C752 1.370 . S
C753 C754 1.403 . S
C754 C753 1.403 . S
C754 C755 1.404 . S
C754 C757 1.539 . S
C755 C751 1.408 . S
C755 C754 1.404 . S
C755 H767 0.930 . S
C756 C752 1.524 . S
C756 H768 0.956 . S
C756 H769 0.961 1_455 S
C756 H770 0.969 1_455 S
C757 C754 1.539 . S
C757 H771 0.958 . S
C757 H772 0.961 . S
C757 H773 0.960 . S
H758 C742 0.931 . S
H759 C747 0.929 . S
H760 C748 0.960 . S
H761 C748 0.962 . S
H762 C748 0.960 . S
H763 C749 0.961 . S
H764 C749 0.961 . S
H765 C749 0.961 . S
H766 C750 0.931 . S
H767 C755 0.930 . S
H768 C756 0.956 . S
H769 C756 0.961 1_655 S
H770 C756 0.969 1_655 S
H771 C757 0.958 . S
H772 C757 0.961 . S
H773 C757 0.960 . S
C199 C7 0.711 . S
C207 C189 0.646 . S
C231 C51 1.822 . S
C239 C167 1.808 . S
C263 C87 1.183 . S
C271 C180 1.189 . S
C295 C16 0.433 . S
C303 C193 0.285 . S
C335 C163 1.861 . S
C327 C42 2.009 . S
C367 C176 1.290 . S
C359 C96 1.351 . S
C391 C47 1.097 . S
C399 C141 1.095 . S
C423 C91 3.036 . S
C431 C154 2.994 1_655 S
C455 C2 2.028 . S
C463 C124 1.898 . S
C495 C137 1.330 . S
C487 C56 1.378 . S
C527 C150 2.895 . S
C519 C82 3.063 . S
C551 C11 1.841 . S
C559 C128 1.819 . S
C591 C155 1.750 . S
C583 C19 1.694 . S
C615 C50 1.444 . S
C623 C129 1.494 . S
C647 C99 1.547 . S
C655 C142 1.601 . S
C687 C181 1.547 . S
C679 C59 1.448 . S
C719 C194 1.316 . S
C711 C90 1.321 . S
C743 C10 1.449 1_655 S
C751 C168 1.483 . S
