# Generated by pormake.
# Topology dag, (6,3)-cn, num edge types: 1
# Building blocks:
#     Node 0, Type 0, BuildingBlock: OJICUG_clean_sbu_0, # of connection points: 6
#     Node 1, Type 0, BuildingBlock: OJICUG_clean_sbu_0, # of connection points: 6
#     Node 2, Type 0, BuildingBlock: OJICUG_clean_sbu_0, # of connection points: 6
#     Node 3, Type 0, BuildingBlock: OJICUG_clean_sbu_0, # of connection points: 6
#     Node 4, Type 1, BuildingBlock: BELTOD_clean_linker_0, # of connection points: 3
#     Node 5, Type 1, BuildingBlock: BELTOD_clean_linker_0, # of connection points: 3
#     Node 6, Type 1, BuildingBlock: BELTOD_clean_linker_0, # of connection points: 3
#     Node 7, Type 1, BuildingBlock: BELTOD_clean_linker_0, # of connection points: 3
#     Node 8, Type 1, BuildingBlock: BELTOD_clean_linker_0, # of connection points: 3
#     Node 9, Type 1, BuildingBlock: BELTOD_clean_linker_0, # of connection points: 3
#     Node 10, Type 1, BuildingBlock: BELTOD_clean_linker_0, # of connection points: 3
#     Node 11, Type 1, BuildingBlock: BELTOD_clean_linker_0, # of connection points: 3
#     Edge 12, Type (0, 1), BuildingBlock: KIFKEQ_clean_linker_1, # of connection points: 2
#     Edge 13, Type (0, 1), BuildingBlock: KIFKEQ_clean_linker_1, # of connection points: 2
#     Edge 14, Type (0, 1), BuildingBlock: KIFKEQ_clean_linker_1, # of connection points: 2
#     Edge 15, Type (0, 1), BuildingBlock: KIFKEQ_clean_linker_1, # of connection points: 2
#     Edge 16, Type (0, 1), BuildingBlock: KIFKEQ_clean_linker_1, # of connection points: 2
#     Edge 17, Type (0, 1), BuildingBlock: KIFKEQ_clean_linker_1, # of connection points: 2
#     Edge 18, Type (0, 1), BuildingBlock: KIFKEQ_clean_linker_1, # of connection points: 2
#     Edge 19, Type (0, 1), BuildingBlock: KIFKEQ_clean_linker_1, # of connection points: 2
#     Edge 20, Type (0, 1), BuildingBlock: KIFKEQ_clean_linker_1, # of connection points: 2
#     Edge 21, Type (0, 1), BuildingBlock: KIFKEQ_clean_linker_1, # of connection points: 2
#     Edge 22, Type (0, 1), BuildingBlock: KIFKEQ_clean_linker_1, # of connection points: 2
#     Edge 23, Type (0, 1), BuildingBlock: KIFKEQ_clean_linker_1, # of connection points: 2
#     Edge 24, Type (0, 1), BuildingBlock: KIFKEQ_clean_linker_1, # of connection points: 2
#     Edge 25, Type (0, 1), BuildingBlock: KIFKEQ_clean_linker_1, # of connection points: 2
#     Edge 26, Type (0, 1), BuildingBlock: KIFKEQ_clean_linker_1, # of connection points: 2
#     Edge 27, Type (0, 1), BuildingBlock: KIFKEQ_clean_linker_1, # of connection points: 2
#     Edge 28, Type (0, 1), BuildingBlock: KIFKEQ_clean_linker_1, # of connection points: 2
#     Edge 29, Type (0, 1), BuildingBlock: KIFKEQ_clean_linker_1, # of connection points: 2
#     Edge 30, Type (0, 1), BuildingBlock: KIFKEQ_clean_linker_1, # of connection points: 2
#     Edge 31, Type (0, 1), BuildingBlock: KIFKEQ_clean_linker_1, # of connection points: 2
#     Edge 32, Type (0, 1), BuildingBlock: KIFKEQ_clean_linker_1, # of connection points: 2
#     Edge 33, Type (0, 1), BuildingBlock: KIFKEQ_clean_linker_1, # of connection points: 2
#     Edge 34, Type (0, 1), BuildingBlock: KIFKEQ_clean_linker_1, # of connection points: 2
#     Edge 35, Type (0, 1), BuildingBlock: KIFKEQ_clean_linker_1, # of connection points: 2
# Relax obj value: 0.238
# Max RMSD: 0.192
# Mean RMSD: 0.159
data_MOF--net-dag--node1-OJICUG_clean_sbu_0--node2-BELTOD_clean_linker_0--edge1-KIFKEQ_clean_linker_1
_symmetry_space_group_name_H-M    P1
_symmetry_Int_Tables_number       1
_symmetry_cell_setting            triclinic
loop_
_symmetry_equiv_pos_as_xyz
'x, y, z'
_cell_length_a     40.858827
_cell_length_b     43.823697
_cell_length_c     42.558178
_cell_angle_alpha  95.003503
_cell_angle_beta   90.223654
_cell_angle_gamma 90.256764
loop_
_atom_site_label
_atom_site_type_symbol
_atom_site_fract_x
_atom_site_fract_y
_atom_site_fract_z
_atom_type_partial_charge
Sc0 Sc 0.12868 0.87475 0.04384 0.0
Sc1 Sc 0.13713 0.79493 0.04369 0.0
Sc2 Sc 0.19651 0.84498 0.08148 0.0
O3 O 0.15421 0.83815 0.05625 0.0
C4 C 0.20157 0.89581 0.03193 0.0
C5 C 0.11862 0.82792 0.98252 0.0
C6 C 0.21419 0.78823 0.03203 0.0
C7 C 0.07237 0.83102 0.06615 0.0
C8 C 0.15294 0.89872 0.1133 0.0
C9 C 0.16404 0.78899 0.1134 0.0
O10 O 0.17123 0.8952 0.02527 0.0
O11 O 0.12514 0.80397 0.99603 0.0
O12 O 0.22199 0.81122 0.05101 0.0
O13 O 0.08409 0.85727 0.06193 0.0
O14 O 0.17542 0.879 0.11487 0.0
O15 O 0.14638 0.78016 0.08969 0.0
O16 O 0.1353 0.90041 0.08889 0.0
O17 O 0.08797 0.80619 0.0596 0.0
O18 O 0.18345 0.81175 0.11375 0.0
O19 O 0.11865 0.85449 0.99702 0.0
O20 O 0.21421 0.87998 0.05255 0.0
O21 O 0.18466 0.77965 0.02693 0.0
Sc22 Sc 0.66811 0.64272 0.4598 0.0
Sc23 Sc 0.60965 0.69621 0.49095 0.0
Sc24 Sc 0.59814 0.61746 0.49691 0.0
O25 O 0.6254 0.65227 0.48271 0.0
C26 C 0.62267 0.58996 0.42897 0.0
C27 C 0.64011 0.6977 0.42277 0.0
C28 C 0.54431 0.65973 0.46932 0.0
C29 C 0.68693 0.70129 0.50509 0.0
C30 C 0.66878 0.59469 0.51253 0.0
C31 C 0.58844 0.66884 0.55441 0.0
O32 O 0.64503 0.60979 0.42619 0.0
O33 O 0.61868 0.70627 0.44317 0.0
O34 O 0.55562 0.63368 0.47445 0.0
O35 O 0.69419 0.67529 0.49129 0.0
O36 O 0.63889 0.59821 0.52003 0.0
O37 O 0.59875 0.69116 0.53994 0.0
O38 O 0.68176 0.60745 0.48987 0.0
O39 O 0.65806 0.71228 0.50551 0.0
O40 O 0.58573 0.6418 0.54123 0.0
O41 O 0.66045 0.67648 0.42668 0.0
O42 O 0.60629 0.58863 0.45414 0.0
O43 O 0.55976 0.68473 0.47631 0.0
Sc44 Sc 0.87946 0.22933 0.00787 0.0
Sc45 Sc 0.82364 0.17697 0.96824 0.0
Sc46 Sc 0.8952 0.14982 0.0013 0.0
O47 O 0.86617 0.18547 0.99244 0.0
C48 C 0.94915 0.20078 0.98936 0.0
C49 C 0.85051 0.23726 0.93949 0.0
C50 C 0.87377 0.13173 0.93027 0.0
C51 C 0.80201 0.2293 0.02027 0.0
C52 C 0.89611 0.19126 0.06679 0.0
C53 C 0.82434 0.12017 0.00937 0.0
O54 O 0.9301 0.2236 0.99372 0.0
O55 O 0.83243 0.21359 0.93925 0.0
O56 O 0.89444 0.13147 0.95269 0.0
O57 O 0.83046 0.241 0.02447 0.0
O58 O 0.89776 0.16558 0.05044 0.0
O59 O 0.80911 0.13971 0.99472 0.0
O60 O 0.8908 0.21654 0.05493 0.0
O61 O 0.79626 0.20605 0.00114 0.0
O62 O 0.85523 0.12062 0.01266 0.0
O63 O 0.86985 0.24585 0.96211 0.0
O64 O 0.93959 0.17348 0.99163 0.0
O65 O 0.84689 0.1463 0.93281 0.0
Sc66 Sc 0.39521 0.35328 0.55554 0.0
Sc67 Sc 0.32457 0.32674 0.59139 0.0
Sc68 Sc 0.38018 0.27391 0.55382 0.0
O69 O 0.36668 0.31793 0.56692 0.0
C70 C 0.40007 0.30709 0.49301 0.0
C71 C 0.32416 0.37963 0.54427 0.0
C72 C 0.30265 0.27232 0.54135 0.0
C73 C 0.37247 0.37649 0.62553 0.0
C74 C 0.44897 0.30543 0.57389 0.0
C75 C 0.35212 0.26828 0.62267 0.0
O76 O 0.40345 0.33309 0.50844 0.0
O77 O 0.31052 0.3635 0.5639 0.0
O78 O 0.33108 0.2606 0.53857 0.0
O79 O 0.39039 0.37761 0.6013 0.0
O80 O 0.43085 0.28205 0.56714 0.0
O81 O 0.3329 0.29085 0.62162 0.0
O82 O 0.43899 0.33268 0.57211 0.0
O83 O 0.34833 0.35815 0.62645 0.0
O84 O 0.37204 0.25997 0.6007 0.0
O85 O 0.35446 0.37773 0.53773 0.0
O86 O 0.39039 0.28339 0.50568 0.0
O87 O 0.2968 0.29671 0.55877 0.0
P88 P 0.03235 0.11938 0.36109 0.0
H89 H 0.06341 0.06048 0.36937 0.0
H90 H 0.092 0.02343 0.33281 0.0
H91 H 0.07681 0.0824 0.25774 0.0
H92 H 0.04986 0.11942 0.29435 0.0
H93 H 0.04216 0.13606 0.42854 0.0
H94 H 0.08646 0.16303 0.45831 0.0
H95 H 0.13322 0.18138 0.37107 0.0
H96 H 0.08907 0.15392 0.34133 0.0
H97 H 0.96862 0.10268 0.33541 0.0
H98 H 0.03491 0.17938 0.33381 0.0
O99 O 0.01088 0.10001 0.38616 0.0
H100 H 0.93706 0.12157 0.29248 0.0
H101 H 0.00376 0.19804 0.29023 0.0
C102 C 0.05379 0.09234 0.33445 0.0
C103 C 0.06636 0.06533 0.34502 0.0
C104 C 0.0826 0.04417 0.32407 0.0
C105 C 0.08664 0.04983 0.29225 0.0
C106 C 0.07463 0.07737 0.28211 0.0
C107 C 0.05869 0.09849 0.30305 0.0
C108 C 0.06229 0.14308 0.38272 0.0
C109 C 0.06172 0.14615 0.41577 0.0
C110 C 0.08713 0.1614 0.43278 0.0
C111 C 0.11332 0.17412 0.41697 0.0
C112 C 0.11321 0.17196 0.38383 0.0
C113 C 0.08799 0.15633 0.36684 0.0
C114 C 0.00408 0.1396 0.33792 0.0
C115 C 0.97577 0.12417 0.32657 0.0
C116 C 0.95793 0.13481 0.30179 0.0
C117 C 0.96828 0.16099 0.28765 0.0
C118 C 0.99514 0.17787 0.30073 0.0
C119 C 0.01301 0.16716 0.32567 0.0
P120 P 0.47839 0.62076 0.85854 0.0
H121 H 0.54396 0.62216 0.8321 0.0
H122 H 0.56488 0.64594 0.78646 0.0
H123 H 0.47579 0.69827 0.7826 0.0
H124 H 0.45476 0.67385 0.82782 0.0
H125 H 0.47863 0.66254 0.91571 0.0
H126 H 0.435 0.69005 0.94548 0.0
H127 H 0.36364 0.65017 0.87864 0.0
H128 H 0.40722 0.62288 0.84908 0.0
H129 H 0.47466 0.60624 0.78961 0.0
H130 H 0.4458 0.56404 0.87327 0.0
O131 O 0.50586 0.60828 0.88349 0.0
H132 H 0.45128 0.56395 0.75688 0.0
H133 H 0.42112 0.52129 0.83994 0.0
C134 C 0.49795 0.6464 0.83355 0.0
C135 C 0.5295 0.63969 0.82225 0.0
C136 C 0.54144 0.65334 0.79608 0.0
C137 C 0.52184 0.67377 0.78065 0.0
C138 C 0.49131 0.68234 0.79372 0.0
C139 C 0.47939 0.66861 0.81984 0.0
C140 C 0.44607 0.64015 0.88068 0.0
C141 C 0.45355 0.65958 0.90766 0.0
C142 C 0.42866 0.67542 0.92449 0.0
C143 C 0.39588 0.67206 0.91451 0.0
C144 C 0.38858 0.65277 0.88723 0.0
C145 C 0.41351 0.63714 0.87032 0.0
C146 C 0.46217 0.5884 0.83412 0.0
C147 C 0.4633 0.58794 0.80116 0.0
C148 C 0.4495 0.5637 0.78224 0.0
C149 C 0.43386 0.53941 0.79575 0.0
C150 C 0.43308 0.53962 0.82882 0.0
C151 C 0.44711 0.56401 0.84786 0.0
P152 P 0.76804 0.90581 0.2181 0.0
H153 H 0.76742 0.97247 0.2201 0.0
H154 H 0.75473 0.00671 0.17994 0.0
H155 H 0.71511 0.9306 0.12006 0.0
H156 H 0.72802 0.89617 0.16075 0.0
H157 H 0.73578 0.90794 0.27896 0.0
H158 H 0.70133 0.87161 0.30347 0.0
H159 H 0.69893 0.81337 0.21595 0.0
H160 H 0.73503 0.84954 0.19202 0.0
H161 H 0.79905 0.91045 0.15614 0.0
H162 H 0.80739 0.85396 0.23395 0.0
O163 O 0.78674 0.92603 0.24809 0.0
H164 H 0.84522 0.88424 0.13044 0.0
H165 H 0.85461 0.82798 0.20833 0.0
C166 C 0.74895 0.93174 0.19326 0.0
C167 C 0.75496 0.96322 0.19886 0.0
C168 C 0.74748 0.98288 0.17585 0.0
C169 C 0.73418 0.9713 0.14668 0.0
C170 C 0.72557 0.9401 0.14223 0.0
C171 C 0.73276 0.92046 0.16551 0.0
C172 C 0.73842 0.88107 0.23393 0.0
C173 C 0.72764 0.88748 0.26494 0.0
C174 C 0.70752 0.86675 0.27883 0.0
C175 C 0.69737 0.83935 0.26178 0.0
C176 C 0.70672 0.83395 0.22996 0.0
C177 C 0.72718 0.85467 0.21617 0.0
C178 C 0.79924 0.88378 0.1968 0.0
C179 C 0.81013 0.89186 0.16741 0.0
C180 C 0.83665 0.8768 0.15261 0.0
C181 C 0.85332 0.85391 0.16727 0.0
C182 C 0.84208 0.84547 0.19648 0.0
C183 C 0.81514 0.86025 0.21107 0.0
P184 P 0.80001 0.31667 0.61982 0.0
H185 H 0.82561 0.35739 0.57416 0.0
H186 H 0.81004 0.40918 0.56274 0.0
H187 H 0.74581 0.41532 0.64346 0.0
H188 H 0.76088 0.36347 0.65424 0.0
H189 H 0.81927 0.26084 0.64654 0.0
H190 H 0.8366 0.25 0.6994 0.0
H191 H 0.8361 0.34698 0.72872 0.0
H192 H 0.82046 0.35763 0.67558 0.0
H193 H 0.75767 0.29978 0.56592 0.0
H194 H 0.75192 0.30128 0.66718 0.0
O195 O 0.82316 0.30037 0.59087 0.0
H196 H 0.69897 0.28925 0.56178 0.0
H197 H 0.69351 0.28994 0.66325 0.0
C198 C 0.79442 0.35667 0.61507 0.0
C199 C 0.80871 0.37014 0.58975 0.0
C200 C 0.79987 0.39978 0.58331 0.0
C201 C 0.77648 0.4162 0.60205 0.0
C202 C 0.76353 0.40308 0.62833 0.0
C203 C 0.77229 0.37354 0.63464 0.0
C204 C 0.81807 0.30994 0.65722 0.0
C205 C 0.82357 0.27977 0.66421 0.0
C206 C 0.83321 0.27362 0.69452 0.0
C207 C 0.83718 0.2976 0.7185 0.0
C208 C 0.8334 0.32797 0.71085 0.0
C209 C 0.82402 0.33408 0.68042 0.0
C210 C 0.75932 0.30074 0.61676 0.0
C211 C 0.74399 0.29671 0.58718 0.0
C212 C 0.71039 0.2907 0.58487 0.0
C213 C 0.69146 0.28888 0.61221 0.0
C214 C 0.70728 0.29153 0.64175 0.0
C215 C 0.74084 0.29764 0.64401 0.0
P216 P 0.51158 0.35826 0.18456 0.0
H217 H 0.48669 0.42108 0.19741 0.0
H218 H 0.50641 0.46485 0.23234 0.0
H219 H 0.58813 0.41075 0.26005 0.0
H220 H 0.56866 0.36761 0.22493 0.0
H221 H 0.5288 0.29498 0.16165 0.0
H222 H 0.57659 0.27342 0.13329 0.0
H223 H 0.61617 0.36476 0.12957 0.0
H224 H 0.56792 0.38592 0.15633 0.0
H225 H 0.4459 0.3515 0.20943 0.0
H226 H 0.54173 0.31424 0.22371 0.0
O227 O 0.48233 0.36802 0.15991 0.0
H228 H 0.42643 0.32995 0.25692 0.0
H229 H 0.52228 0.29198 0.27089 0.0
C230 C 0.52653 0.39135 0.20827 0.0
C231 C 0.50908 0.41888 0.2107 0.0
C232 C 0.52028 0.44378 0.23077 0.0
C233 C 0.549 0.44133 0.24874 0.0
C234 C 0.56636 0.41364 0.24603 0.0
C235 C 0.55512 0.38887 0.22611 0.0
C236 C 0.54537 0.34193 0.162 0.0
C237 C 0.54779 0.31026 0.15461 0.0
C238 C 0.57523 0.298 0.13856 0.0
C239 C 0.60056 0.3173 0.1295 0.0
C240 C 0.59718 0.34914 0.13592 0.0
C241 C 0.56968 0.3613 0.15162 0.0
C242 C 0.4951 0.33402 0.21268 0.0
C243 C 0.46239 0.33755 0.22202 0.0
C244 C 0.45127 0.32518 0.24926 0.0
C245 C 0.47285 0.30938 0.26784 0.0
C246 C 0.50511 0.30428 0.25726 0.0
C247 C 0.51619 0.3167 0.23006 0.0
P248 P 0.30032 0.1931 0.94239 0.0
H249 H 0.32891 0.15538 0.98944 0.0
H250 H 0.31944 0.1021 0.00042 0.0
H251 H 0.25416 0.09008 0.92005 0.0
H252 H 0.26298 0.14335 0.90991 0.0
H253 H 0.30721 0.24702 0.90757 0.0
H254 H 0.32397 0.25398 0.85337 0.0
H255 H 0.34279 0.15704 0.83728 0.0
H256 H 0.32711 0.15028 0.89149 0.0
H257 H 0.26476 0.21652 0.99851 0.0
H258 H 0.24581 0.20066 0.89869 0.0
O259 O 0.32577 0.21091 0.96879 0.0
H260 H 0.20684 0.22783 0.00772 0.0
H261 H 0.18787 0.2115 0.9077 0.0
C262 C 0.29666 0.15322 0.94884 0.0
C263 C 0.31282 0.14114 0.97405 0.0
C264 C 0.30752 0.11064 0.98019 0.0
C265 C 0.28588 0.0919 0.96122 0.0
C266 C 0.27053 0.10402 0.93545 0.0
C267 C 0.27568 0.13443 0.9295 0.0
C268 C 0.31514 0.19809 0.90337 0.0
C269 C 0.31527 0.22734 0.89246 0.0
C270 C 0.32496 0.2313 0.86161 0.0
C271 C 0.33442 0.20597 0.84119 0.0
C272 C 0.33523 0.17685 0.85249 0.0
C273 C 0.32605 0.17299 0.88348 0.0
C274 C 0.2597 0.20834 0.94789 0.0
C275 C 0.24829 0.21631 0.97849 0.0
C276 C 0.21513 0.22248 0.98373 0.0
C277 C 0.1927 0.22046 0.95844 0.0
C278 C 0.20453 0.21372 0.92763 0.0
C279 C 0.23771 0.20751 0.92245 0.0
P280 P 0.23379 0.57553 0.32635 0.0
H281 H 0.23004 0.50932 0.32775 0.0
H282 H 0.22431 0.47808 0.37176 0.0
H283 H 0.19626 0.55807 0.43201 0.0
H284 H 0.20182 0.58944 0.38733 0.0
H285 H 0.18638 0.57548 0.27512 0.0
H286 H 0.15962 0.61752 0.25135 0.0
H287 H 0.19269 0.68043 0.32893 0.0
H288 H 0.21938 0.63809 0.35269 0.0
H289 H 0.27218 0.57005 0.38474 0.0
H290 H 0.27684 0.62162 0.30289 0.0
O291 O 0.24464 0.55374 0.29397 0.0
H292 H 0.32077 0.5963 0.40624 0.0
H293 H 0.32641 0.6477 0.32435 0.0
C294 C 0.21658 0.55171 0.35437 0.0
C295 C 0.22122 0.52 0.34999 0.0
C296 C 0.21783 0.50207 0.37527 0.0
C297 C 0.21024 0.5157 0.40546 0.0
C298 C 0.20237 0.54703 0.40903 0.0
C299 C 0.2053 0.56492 0.3835 0.0
C300 C 0.20566 0.60395 0.31504 0.0
C301 C 0.18702 0.59814 0.2875 0.0
C302 C 0.17155 0.62219 0.27404 0.0
C303 C 0.17462 0.65235 0.28802 0.0
C304 C 0.19041 0.65747 0.31743 0.0
C305 C 0.20564 0.63332 0.331 0.0
C306 C 0.2703 0.59432 0.3424 0.0
C307 C 0.28321 0.58732 0.37149 0.0
C308 C 0.31111 0.60243 0.38391 0.0
C309 C 0.32703 0.62438 0.3672 0.0
C310 C 0.31446 0.631 0.33779 0.0
C311 C 0.28624 0.6161 0.32554 0.0
P312 P 0.88195 0.85358 0.7426 0.0
H313 H 0.8341 0.90263 0.75316 0.0
H314 H 0.84002 0.95704 0.7704 0.0
H315 H 0.94505 0.94915 0.76229 0.0
H316 H 0.93898 0.89479 0.74475 0.0
H317 H 0.89024 0.7935 0.70871 0.0
H318 H 0.86849 0.77258 0.65768 0.0
H319 H 0.84143 0.86365 0.63626 0.0
H320 H 0.86305 0.88439 0.6872 0.0
H321 H 0.88934 0.84185 0.80775 0.0
H322 H 0.94809 0.8323 0.72352 0.0
O323 O 0.84716 0.84356 0.75947 0.0
H324 H 0.93714 0.83168 0.83951 0.0
H325 H 0.99648 0.82193 0.75561 0.0
C326 C 0.88614 0.89453 0.74868 0.0
C327 C 0.85836 0.91272 0.75453 0.0
C328 C 0.86176 0.94387 0.76411 0.0
C329 C 0.89304 0.95718 0.76804 0.0
C330 C 0.9207 0.93933 0.75984 0.0
C331 C 0.91723 0.90825 0.74992 0.0
C332 C 0.8785 0.84048 0.70164 0.0
C333 C 0.88099 0.8091 0.69243 0.0
C334 C 0.86853 0.79717 0.66326 0.0
C335 C 0.85297 0.8165 0.64322 0.0
C336 C 0.85309 0.84825 0.65141 0.0
C337 C 0.86564 0.86013 0.68048 0.0
C338 C 0.9151 0.83736 0.76328 0.0
C339 C 0.9123 0.83649 0.79595 0.0
C340 C 0.93965 0.8309 0.81411 0.0
C341 C 0.97035 0.82622 0.79992 0.0
C342 C 0.97291 0.82524 0.76694 0.0
C343 C 0.94536 0.83104 0.74867 0.0
H344 H 0.16753 0.89243 0.17532 0.0
H345 H 0.1243 0.9547 0.11375 0.0
H346 H 0.15541 0.9286 0.22101 0.0
H347 H 0.1127 0.99072 0.15921 0.0
H348 H 0.12776 0.06035 0.2436 0.0
H349 H 0.14677 0.02343 0.20154 0.0
H350 H 0.10065 0.95021 0.24683 0.0
H351 H 0.08045 0.98719 0.28846 0.0
C352 C 0.15572 0.9139 0.17152 0.0
C353 C 0.14682 0.92073 0.14096 0.0
C354 C 0.1487 0.93446 0.19764 0.0
C355 C 0.1333 0.96242 0.19352 0.0
C356 C 0.12491 0.96943 0.16296 0.0
C357 C 0.13136 0.94872 0.13699 0.0
C358 C 0.12158 0.03641 0.24465 0.0
C359 C 0.10208 0.02685 0.26919 0.0
C360 C 0.13263 0.01529 0.22064 0.0
C361 C 0.12491 0.98409 0.22088 0.0
C362 C 0.10708 0.97416 0.24625 0.0
C363 C 0.09562 0.99536 0.27011 0.0
H364 H 0.54878 0.63281 0.58666 0.0
H365 H 0.60528 0.71673 0.59786 0.0
H366 H 0.53234 0.64018 0.64151 0.0
H367 H 0.58871 0.72395 0.65347 0.0
H368 H 0.58225 0.69042 0.759 0.0
H369 H 0.59803 0.69398 0.70389 0.0
H370 H 0.49756 0.67848 0.67491 0.0
H371 H 0.48188 0.67435 0.7294 0.0
C372 C 0.55771 0.65289 0.60082 0.0
C373 C 0.57838 0.67418 0.58784 0.0
C374 C 0.54805 0.65721 0.63223 0.0
C375 C 0.55903 0.68277 0.65164 0.0
C376 C 0.57989 0.70408 0.63893 0.0
C377 C 0.58924 0.69998 0.60715 0.0
C378 C 0.56349 0.68831 0.74088 0.0
C379 C 0.53084 0.68195 0.74861 0.0
C380 C 0.57249 0.69056 0.70942 0.0
C381 C 0.54904 0.68617 0.68519 0.0
C382 C 0.51616 0.68168 0.69313 0.0
C383 C 0.50715 0.67964 0.72445 0.0
H384 H 0.84711 0.06643 0.0285 0.0
H385 H 0.75884 0.11981 0.02311 0.0
H386 H 0.81716 0.02857 0.05562 0.0
H387 H 0.72879 0.08162 0.05045 0.0
H388 H 0.71575 0.0313 0.14558 0.0
H389 H 0.73216 0.06598 0.10647 0.0
H390 H 0.77199 0.98963 0.04812 0.0
H391 H 0.7563 0.95512 0.08737 0.0
C392 C 0.82123 0.06995 0.03284 0.0
C393 C 0.80542 0.09622 0.02383 0.0
C394 C 0.80398 0.04808 0.04809 0.0
C395 C 0.77059 0.05208 0.05497 0.0
C396 C 0.75452 0.078 0.04541 0.0
C397 C 0.77172 0.09977 0.02974 0.0
C398 C 0.72722 0.02185 0.12399 0.0
C399 C 0.73512 0.99058 0.11975 0.0
C400 C 0.73644 0.04166 0.10153 0.0
C401 C 0.75385 0.03051 0.07456 0.0
C402 C 0.759 -0.00115 0.06895 0.0
C403 C 0.74966 0.97905 0.0913 0.0
H404 H 0.49373 0.34923 0.59479 0.0
H405 H 0.48295 0.2514 0.57344 0.0
H406 H 0.55137 0.34249 0.60634 0.0
H407 H 0.54083 0.2447 0.58553 0.0
H408 H 0.65349 0.25441 0.56892 0.0
H409 H 0.59416 0.25661 0.56219 0.0
H410 H 0.58796 0.32163 0.64425 0.0
H411 H 0.64714 0.32032 0.65029 0.0
C412 C 0.50353 0.32622 0.59283 0.0
C413 C 0.48361 0.30088 0.58304 0.0
C414 C 0.53661 0.32235 0.59967 0.0
C415 C 0.55071 0.29304 0.59688 0.0
C416 C 0.53075 0.2676 0.58762 0.0
C417 C 0.49754 0.27145 0.58088 0.0
C418 C 0.63942 0.26908 0.58558 0.0
C419 C 0.65512 0.28726 0.61006 0.0
C420 C 0.6054 0.27011 0.58191 0.0
C421 C 0.58636 0.28946 0.60257 0.0
C422 C 0.60196 0.30678 0.6277 0.0
C423 C 0.63589 0.30572 0.63138 0.0
H424 H 0.64794 0.58698 0.36899 0.0
H425 H 0.57661 0.54451 0.42636 0.0
H426 H 0.62993 0.55367 0.32307 0.0
H427 H 0.55918 0.51124 0.38081 0.0
H428 H 0.51135 0.4776 0.28944 0.0
H429 H 0.52989 0.51537 0.3312 0.0
H430 H 0.63018 0.4991 0.3029 0.0
H431 H 0.61154 0.4621 0.26033 0.0
C432 C 0.62867 0.57043 0.37191 0.0
C433 C 0.61371 0.56851 0.4014 0.0
C434 C 0.61838 0.55136 0.3456 0.0
C435 C 0.59288 0.53011 0.34827 0.0
C436 C 0.5784 0.52784 0.37784 0.0
C437 C 0.58866 0.54678 0.40405 0.0
C438 C 0.53729 0.48257 0.29166 0.0
C439 C 0.56 0.46671 0.27174 0.0
C440 C 0.54795 0.50392 0.31583 0.0
C441 C 0.58153 0.50986 0.3206 0.0
C442 C 0.60415 0.49506 0.29978 0.0
C443 C 0.59349 0.47368 0.2756 0.0
H444 H 0.9809 0.25481 0.97933 0.0
H445 H 0.99759 0.15804 0.98501 0.0
H446 H 0.03984 0.26252 0.97228 0.0
H447 H 0.05577 0.16588 0.97804 0.0
H448 H 0.15883 0.1944 0.00425 0.0
H449 H 0.09985 0.19237 0.01143 0.0
H450 H 0.08597 0.24682 0.9327 0.0
H451 H 0.14546 0.24939 0.92576 0.0
C452 C 0.99698 0.23521 0.97892 0.0
C453 C 0.9844 0.20584 0.98296 0.0
C454 C 0.03068 0.23964 0.9748 0.0
C455 C 0.0524 0.21486 0.97504 0.0
C456 C 0.03971 0.18551 0.97834 0.0
C457 C 0.00622 0.18103 0.98214 0.0
C458 C 0.14334 0.20652 0.98884 0.0
C459 C 0.15688 0.22206 0.96442 0.0
C460 C 0.1095 0.20506 0.99275 0.0
C461 C 0.08831 0.21917 0.97241 0.0
C462 C 0.10175 0.23578 0.94874 0.0
C463 C 0.13574 0.23706 0.94466 0.0
H464 H 0.34473 0.42794 0.51289 0.0
H465 H 0.25734 0.38056 0.5393 0.0
H466 H 0.31124 0.46292 0.48519 0.0
H467 H 0.22385 0.41571 0.51142 0.0
H468 H 0.19272 0.45675 0.41497 0.0
H469 H 0.21704 0.42513 0.45343 0.0
H470 H 0.2688 0.50424 0.49644 0.0
H471 H 0.24496 0.53568 0.45788 0.0
C472 C 0.31839 0.42507 0.51292 0.0
C473 C 0.30374 0.40141 0.52822 0.0
C474 C 0.29918 0.44529 0.49732 0.0
C475 C 0.26493 0.44213 0.49638 0.0
C476 C 0.25019 0.41863 0.51181 0.0
C477 C 0.26939 0.3986 0.52779 0.0
C478 C 0.20858 0.46749 0.4332 0.0
C479 C 0.21711 0.49861 0.43328 0.0
C480 C 0.22242 0.44945 0.45524 0.0
C481 C 0.2452 0.4622 0.47753 0.0
C482 C 0.25164 0.49379 0.4792 0.0
C483 C 0.23764 0.51186 0.45736 0.0
H484 H 0.09259 0.77734 0.94889 0.0
H485 H 0.11951 0.87182 0.94097 0.0
H486 H 0.06379 0.77612 0.89844 0.0
H487 H 0.09154 0.87031 0.89024 0.0
H488 H 0.98876 0.87065 0.84405 0.0
H489 H 0.03266 0.86951 0.88249 0.0
H490 H 0.06229 0.78062 0.84039 0.0
H491 H 0.01749 0.78186 0.80163 0.0
C492 C 0.09321 0.79754 0.93594 0.0
C493 C 0.10761 0.82491 0.94924 0.0
C494 C 0.07685 0.79679 0.90693 0.0
C495 C 0.07485 0.82331 0.89068 0.0
C496 C 0.09201 0.84972 0.90259 0.0
C497 C 0.10804 0.85057 0.93164 0.0
C498 C 0.00494 0.85105 0.84277 0.0
C499 C 0.99969 0.82621 0.82024 0.0
C500 C 0.03032 0.85049 0.86457 0.0
C501 C 0.05107 0.82499 0.86445 0.0
C502 C 0.04659 0.80051 0.84109 0.0
C503 C 0.02117 0.80124 0.81892 0.0
H504 H 0.82942 0.10994 0.88571 0.0
H505 H 0.93268 0.11002 0.90794 0.0
H506 H 0.83855 0.07247 0.84129 0.0
H507 H 0.94221 0.07352 0.8624 0.0
H508 H 0.93356 0.97395 0.81716 0.0
H509 H 0.93246 0.02104 0.85144 0.0
H510 H 0.85969 0.05769 0.79109 0.0
H511 H 0.86003 0.00962 0.75734 0.0
C512 C 0.85424 0.10252 0.88062 0.0
C513 C 0.88024 0.11254 0.90066 0.0
C514 C 0.85956 0.08114 0.8549 0.0
C515 C 0.89112 0.06962 0.84832 0.0
C516 C 0.91747 0.08129 0.86717 0.0
C517 C 0.91205 0.10231 0.89322 0.0
C518 C 0.91797 0.99237 0.81074 0.0
C519 C 0.89672 0.98808 0.78473 0.0
C520 C 0.91737 0.01952 0.8304 0.0
C521 C 0.89572 0.0432 0.82431 0.0
C522 C 0.87612 0.03969 0.79693 0.0
C523 C 0.87642 0.01228 0.77747 0.0
H524 H 0.4317 0.34975 0.46132 0.0
H525 H 0.38971 0.25873 0.44794 0.0
H526 H 0.44931 0.34568 0.40682 0.0
H527 H 0.40758 0.25485 0.39271 0.0
H528 H 0.41433 0.28576 0.287 0.0
H529 H 0.39615 0.282 0.3414 0.0
H530 H 0.49108 0.31351 0.37561 0.0
H531 H 0.50899 0.31787 0.3218 0.0
C532 C 0.42608 0.32885 0.44677 0.0
C533 C 0.40934 0.3045 0.45918 0.0
C534 C 0.43643 0.32647 0.41552 0.0
C535 C 0.43017 0.29981 0.39566 0.0
C536 C 0.41275 0.27565 0.4076 0.0
C537 C 0.40263 0.27787 0.43918 0.0
C538 C 0.43139 0.29151 0.30617 0.0
C539 C 0.46307 0.30222 0.30004 0.0
C540 C 0.42106 0.28916 0.33724 0.0
C541 C 0.44211 0.29779 0.36268 0.0
C542 C 0.47422 0.30702 0.35645 0.0
C543 C 0.48459 0.30919 0.32554 0.0
H544 H 0.19258 0.91621 0.97415 0.0
H545 H 0.25584 0.92666 0.05596 0.0
H546 H 0.21786 0.96084 0.95391 0.0
H547 H 0.28066 0.97208 0.03605 0.0
H548 H 0.3271 0.04787 0.98123 0.0
H549 H 0.31226 0.99639 0.99489 0.0
H550 H 0.21109 0.01421 0.97329 0.0
H551 H 0.2257 0.06511 0.95997 0.0
C552 C 0.2123 0.9278 0.98755 0.0
C553 C 0.2219 0.91829 0.01686 0.0
C554 C 0.22665 0.95345 0.97605 0.0
C555 C 0.25065 0.97043 0.99378 0.0
C556 C 0.26221 0.95947 0.02185 0.0
C557 C 0.248 0.93348 0.03326 0.0
C558 C 0.30172 0.04069 0.97946 0.0
C559 C 0.27763 0.06046 0.96918 0.0
C560 C 0.29326 0.01124 0.98719 0.0
C561 C 0.2606 0.00106 0.98469 0.0
C562 C 0.23663 0.02097 0.97461 0.0
C563 C 0.24501 0.05023 0.96699 0.0
H564 H 0.52026 0.61581 0.42691 0.0
H565 H 0.49722 0.70462 0.47357 0.0
H566 H 0.46778 0.61453 0.3998 0.0
H567 H 0.44379 0.70298 0.44646 0.0
H568 H 0.33933 0.65007 0.4269 0.0
H569 H 0.39272 0.66511 0.44974 0.0
H570 H 0.43769 0.64503 0.35873 0.0
H571 H 0.38442 0.62997 0.33589 0.0
C572 C 0.50392 0.6351 0.43136 0.0
C573 C 0.51266 0.66021 0.45257 0.0
C574 C 0.47403 0.63449 0.41556 0.0
C575 C 0.45193 0.65875 0.42091 0.0
C576 C 0.46058 0.68406 0.44193 0.0
C577 C 0.491 0.68499 0.45736 0.0
C578 C 0.36057 0.64948 0.4117 0.0
C579 C 0.35789 0.63856 0.37973 0.0
C580 C 0.39098 0.65833 0.42469 0.0
C581 C 0.41921 0.65601 0.40598 0.0
C582 C 0.41622 0.64688 0.37362 0.0
C583 C 0.38578 0.6384 0.36055 0.0
H584 H 0.40967 0.42812 0.62648 0.0
H585 H 0.35129 0.3752 0.68685 0.0
H586 H 0.42022 0.46595 0.67051 0.0
H587 H 0.36244 0.41349 0.73141 0.0
H588 H 0.43569 0.47741 0.80176 0.0
H589 H 0.41734 0.43618 0.76285 0.0
H590 H 0.38048 0.50339 0.70359 0.0
H591 H 0.39778 0.54438 0.74248 0.0
C592 C 0.39921 0.42441 0.64919 0.0
C593 C 0.37952 0.39863 0.65308 0.0
C594 C 0.40514 0.44622 0.67436 0.0
C595 C 0.39189 0.44269 0.70418 0.0
C596 C 0.37286 0.41664 0.70855 0.0
C597 C 0.36643 0.39488 0.68308 0.0
C598 C 0.42294 0.48332 0.7808 0.0
C599 C 0.4188 0.51418 0.77489 0.0
C600 C 0.41249 0.45975 0.75858 0.0
C601 C 0.39799 0.46675 0.73013 0.0
C602 C 0.39208 0.49747 0.72516 0.0
C603 C 0.40217 0.52089 0.74736 0.0
H604 H 0.04482 0.87501 0.10611 0.0
H605 H 0.02682 0.78444 0.06049 0.0
H606 H 0.99176 0.87393 0.13177 0.0
H607 H 0.97287 0.78378 0.08597 0.0
H608 H 0.86531 0.83184 0.10626 0.0
H609 H 0.91896 0.8209 0.08226 0.0
H610 H 0.96504 0.83893 0.17342 0.0
H611 H 0.91162 0.84961 0.19744 0.0
C612 C 0.02944 0.85491 0.10144 0.0
C613 C 0.0399 0.82985 0.08116 0.0
C614 C 0.99921 0.85421 0.11636 0.0
C615 C 0.97848 0.82869 0.11097 0.0
C616 C 0.98861 0.80365 0.09051 0.0
C617 C 0.01935 0.80405 0.07602 0.0
C618 C 0.88687 0.83274 0.12121 0.0
C619 C 0.8844 0.84169 0.15365 0.0
C620 C 0.91743 0.82633 0.10754 0.0
C621 C 0.94596 0.82929 0.12604 0.0
C622 C 0.94331 0.83658 0.15871 0.0
C623 C 0.91277 0.84251 0.17244 0.0
H624 H 0.72674 0.56761 0.49431 0.0
H625 H 0.65557 0.57317 0.56945 0.0
H626 H 0.7552 0.5272 0.51909 0.0
H627 H 0.68462 0.53354 0.59473 0.0
H628 H 0.71271 0.43331 0.60099 0.0
H629 H 0.68981 0.47957 0.58275 0.0
H630 H 0.78709 0.51181 0.56298 0.0
H631 H 0.81012 0.46487 0.58106 0.0
C632 C 0.71754 0.56066 0.51645 0.0
C633 C 0.68858 0.57326 0.52965 0.0
C634 C 0.73398 0.53758 0.53075 0.0
C635 C 0.72194 0.52682 0.55868 0.0
C636 C 0.6941 0.54077 0.57282 0.0
C637 C 0.67751 0.56359 0.55839 0.0
C638 C 0.72931 0.4505 0.59334 0.0
C639 C 0.76325 0.44553 0.59266 0.0
C640 C 0.71617 0.47711 0.5829 0.0
C641 C 0.73661 0.49956 0.5716 0.0
C642 C 0.77066 0.49483 0.57129 0.0
C643 C 0.78385 0.46802 0.58166 0.0
H644 H 0.87526 0.14804 0.10376 0.0
H645 H 0.92777 0.23392 0.10721 0.0
H646 H 0.88813 0.14364 0.15895 0.0
H647 H 0.94238 0.22884 0.1624 0.0
H648 H 0.94925 0.21683 0.26861 0.0
H649 H 0.92735 0.22717 0.21684 0.0
H650 H 0.9356 0.13095 0.18562 0.0
H651 H 0.95626 0.12079 0.23697 0.0
C652 C 0.88958 0.16603 0.11646 0.0
C653 C 0.90091 0.19111 0.10117 0.0
C654 C 0.89717 0.16344 0.14806 0.0
C655 C 0.91704 0.18548 0.16503 0.0
C656 C 0.92697 0.21147 0.15015 0.0
C657 C 0.91873 0.21436 0.11852 0.0
C658 C 0.94603 0.19798 0.25063 0.0
C659 C 0.95391 0.16794 0.257 0.0
C660 C 0.93363 0.20388 0.22097 0.0
C661 C 0.92924 0.17985 0.19707 0.0
C662 C 0.93756 0.14994 0.2036 0.0
C663 C 0.94954 0.14407 0.23313 0.0
H664 H 0.13862 0.73184 0.11783 0.0
H665 H 0.18331 0.80818 0.17357 0.0
H666 H 0.13621 0.70325 0.16412 0.0
H667 H 0.17971 0.77999 0.22034 0.0
H668 H 0.21282 0.70172 0.27965 0.0
H669 H 0.20628 0.73797 0.24026 0.0
H670 H 0.11214 0.69783 0.21398 0.0
H671 H 0.11933 0.66075 0.2531 0.0
C672 C 0.14755 0.74269 0.14009 0.0
C673 C 0.16154 0.77213 0.14193 0.0
C674 C 0.14583 0.7264 0.16678 0.0
C675 C 0.15771 0.7393 0.19607 0.0
C676 C 0.17079 0.76916 0.19808 0.0
C677 C 0.17287 0.78532 0.17127 0.0
C678 C 0.19025 0.70122 0.26616 0.0
C679 C 0.16664 0.6783 0.26933 0.0
C680 C 0.18648 0.72205 0.24347 0.0
C681 C 0.15888 0.7206 0.22357 0.0
C682 C 0.13409 0.69911 0.22839 0.0
C683 C 0.13803 0.67803 0.25092 0.0
H684 H 0.69041 0.76342 0.51635 0.0
H685 H 0.74321 0.68047 0.5302 0.0
H686 H 0.73355 0.79361 0.5439 0.0
H687 H 0.7855 0.71036 0.5593 0.0
H688 H 0.86755 0.77098 0.59701 0.0
H689 H 0.82949 0.74493 0.55897 0.0
H690 H 0.75191 0.80479 0.5953 0.0
H691 H 0.79008 0.83125 0.63189 0.0
C692 C 0.71116 0.75165 0.52553 0.0
C693 C 0.71333 0.7196 0.52138 0.0
C694 C 0.73589 0.76892 0.54141 0.0
C695 C 0.76301 0.75449 0.55413 0.0
C696 C 0.76536 0.72239 0.54942 0.0
C697 C 0.74094 0.70518 0.53298 0.0
C698 C 0.84248 0.77881 0.59626 0.0
C699 C 0.8318 0.80322 0.61719 0.0
C700 C 0.82058 0.76379 0.57471 0.0
C701 C 0.78745 0.77256 0.57411 0.0
C702 C 0.77725 0.79768 0.59447 0.0
C703 C 0.79918 0.81291 0.61558 0.0
H704 H 0.79511 0.28808 0.0476 0.0
H705 H 0.74548 0.20058 0.03398 0.0
H706 H 0.74692 0.30996 0.07533 0.0
H707 H 0.69787 0.22232 0.06162 0.0
H708 H 0.63335 0.26518 0.14183 0.0
H709 H 0.68324 0.24453 0.11713 0.0
H710 H 0.68706 0.32018 0.05875 0.0
H711 H 0.63653 0.3404 0.0825 0.0
C712 C 0.77409 0.27352 0.05073 0.0
C713 C 0.77401 0.24269 0.03846 0.0
C714 C 0.74652 0.28604 0.0664 0.0
C715 C 0.71874 0.26778 0.07055 0.0
C716 C 0.71903 0.23684 0.05895 0.0
C717 C 0.74625 0.22449 0.04293 0.0
C718 C 0.64448 0.27723 0.12342 0.0
C719 C 0.63075 0.30444 0.11413 0.0
C720 C 0.67321 0.26551 0.10948 0.0
C721 C 0.68905 0.28089 0.0862 0.0
C722 C 0.6756 0.30816 0.07702 0.0
C723 C 0.64665 0.3197 0.09067 0.0
H724 H 0.40424 0.24622 0.65401 0.0
H725 H 0.29903 0.25482 0.65677 0.0
H726 H 0.40344 0.2264 0.70632 0.0
H727 H 0.2982 0.23434 0.70832 0.0
H728 H 0.30812 0.17372 0.78969 0.0
H729 H 0.3152 0.18325 0.73427 0.0
H730 H 0.3836 0.25612 0.76183 0.0
H731 H 0.37615 0.24692 0.81738 0.0
C732 C 0.38097 0.24314 0.66546 0.0
C733 C 0.3517 0.25206 0.65154 0.0
C734 C 0.38054 0.23201 0.69532 0.0
C735 C 0.35076 0.22889 0.71115 0.0
C736 C 0.32142 0.23633 0.69644 0.0
C737 C 0.32192 0.24812 0.66707 0.0
C738 C 0.32509 0.1914 0.78382 0.0
C739 C 0.34151 0.2097 0.80769 0.0
C740 C 0.32907 0.19686 0.75222 0.0
C741 C 0.35 0.22032 0.74394 0.0
C742 C 0.36759 0.2377 0.76768 0.0
C743 C 0.36314 0.23262 0.79936 0.0
H744 H 0.69111 0.69685 0.3816 0.0
H745 H 0.59524 0.73595 0.39883 0.0
H746 H 0.69849 0.72798 0.33789 0.0
H747 H 0.60202 0.76634 0.35392 0.0
H748 H 0.65055 0.84736 0.30786 0.0
H749 H 0.63216 0.80988 0.34268 0.0
H750 H 0.68459 0.7391 0.28671 0.0
H751 H 0.7052 0.77708 0.25346 0.0
C752 C 0.67127 0.71163 0.37563 0.0
C753 C 0.64275 0.71418 0.39398 0.0
C754 C 0.67538 0.72937 0.35027 0.0
C755 C 0.65088 0.74983 0.34229 0.0
C756 C 0.62165 0.75126 0.35972 0.0
C757 C 0.6177 0.73376 0.3854 0.0
C758 C 0.65811 0.82379 0.3029 0.0
C759 C 0.68007 0.81548 0.2783 0.0
C760 C 0.64712 0.80211 0.32265 0.0
C761 C 0.65739 0.77147 0.31794 0.0
C762 C 0.6769 0.76265 0.29157 0.0
C763 C 0.68832 0.78442 0.27213 0.0
H764 H 0.90138 0.2634 0.90942 0.0
H765 H 0.79691 0.24842 0.90523 0.0
H766 H 0.89985 0.28091 0.85617 0.0
H767 H 0.79512 0.26669 0.85296 0.0
H768 H 0.80864 0.25203 0.74843 0.0
H769 H 0.81352 0.24202 0.80327 0.0
H770 H 0.87985 0.31881 0.82006 0.0
H771 H 0.87617 0.3281 0.7642 0.0
C772 C 0.87803 0.26477 0.89749 0.0
C773 C 0.84933 0.2542 0.91111 0.0
C774 C 0.87713 0.27471 0.86705 0.0
C775 C 0.84747 0.27441 0.85008 0.0
C776 C 0.8185 0.26628 0.86501 0.0
C777 C 0.81946 0.25605 0.89504 0.0
C778 C 0.82482 0.26649 0.76352 0.0
C779 C 0.8421 0.29081 0.7518 0.0
C780 C 0.82717 0.26107 0.79519 0.0
C781 C 0.8466 0.27999 0.81618 0.0
C782 C 0.86462 0.3039 0.80446 0.0
C783 C 0.86231 0.30932 0.77256 0.0
H784 H 0.24416 0.29777 0.52722 0.0
H785 H 0.29889 0.21346 0.51372 0.0
H786 H 0.19886 0.27385 0.49666 0.0
H787 H 0.25324 0.18954 0.48321 0.0
H788 H 0.14734 0.15124 0.46477 0.0
H789 H 0.19373 0.17469 0.49449 0.0
H790 H 0.18888 0.25275 0.43939 0.0
H791 H 0.14245 0.22926 0.40962 0.0
C792 C 0.2465 0.2741 0.51784 0.0
C793 C 0.27514 0.25748 0.52299 0.0
C794 C 0.22063 0.26051 0.50015 0.0
C795 C 0.2226 0.2299 0.48757 0.0
C796 C 0.25105 0.21315 0.49283 0.0
C797 C 0.2772 0.22688 0.51017 0.0
C798 C 0.15613 0.17347 0.45914 0.0
C799 C 0.14127 0.18853 0.43501 0.0
C800 C 0.1828 0.18673 0.47593 0.0
C801 C 0.19485 0.21549 0.4692 0.0
C802 C 0.17993 0.23062 0.44515 0.0
C803 C 0.15353 0.21715 0.42804 0.0
H804 H 0.20857 0.74412 0.9825 0.0
H805 H 0.2801 0.7928 0.04322 0.0
H806 H 0.25241 0.71625 0.95422 0.0
H807 H 0.32377 0.76428 0.01559 0.0
H808 H 0.39552 0.73211 0.93791 0.0
H809 H 0.35158 0.75997 0.96617 0.0
H810 H 0.2926 0.6775 0.95986 0.0
H811 H 0.33638 0.64989 0.93104 0.0
C812 C 0.23361 0.74873 0.99 0.0
C813 C 0.24076 0.77079 0.01511 0.0
C814 C 0.25877 0.73261 0.97387 0.0
C815 C 0.29167 0.738 0.98259 0.0
C816 C 0.29877 0.7599 0.00786 0.0
C817 C 0.27366 0.77616 0.02384 0.0
C818 C 0.37324 0.71993 0.94277 0.0
C819 C 0.36937 0.68884 0.93225 0.0
C820 C 0.34805 0.73586 0.95902 0.0
C821 C 0.3185 0.721 0.96533 0.0
C822 C 0.31477 0.68981 0.95495 0.0
C823 C 0.33989 0.67395 0.93851 0.0
loop_
_geom_bond_atom_site_label_1
_geom_bond_atom_site_label_2
_geom_bond_distance
_geom_bond_site_symmetry_2
_ccdc_geom_bond_type
Sc0 O3 2.025 . S
Sc0 O10 2.105 . S
Sc0 O13 2.105 . S
Sc0 O16 2.105 . S
Sc0 O19 2.105 1_554 S
Sc1 O3 2.025 . S
Sc1 O11 2.105 1_554 S
Sc1 O15 2.105 . S
Sc1 O17 2.105 . S
Sc1 O21 2.105 . S
Sc2 O3 2.025 . S
Sc2 O12 2.105 . S
Sc2 O14 2.105 . S
Sc2 O18 2.105 . S
Sc2 O20 2.105 . S
O3 Sc0 2.025 . S
O3 Sc1 2.025 . S
O3 Sc2 2.025 . S
C4 O10 1.268 . S
C4 O20 1.268 . S
C5 O11 1.268 . S
C5 O19 1.268 . S
C6 O12 1.268 . S
C6 O21 1.268 . S
C7 O13 1.268 . S
C7 O17 1.268 . S
C8 O14 1.268 . S
C8 O16 1.268 . S
C9 O15 1.268 . S
C9 O18 1.268 . S
O10 Sc0 2.105 . S
O10 C4 1.268 . S
O11 Sc1 2.105 1_556 S
O11 C5 1.268 . S
O12 Sc2 2.105 . S
O12 C6 1.268 . S
O13 Sc0 2.105 . S
O13 C7 1.268 . S
O14 Sc2 2.105 . S
O14 C8 1.268 . S
O15 Sc1 2.105 . S
O15 C9 1.268 . S
O16 Sc0 2.105 . S
O16 C8 1.268 . S
O17 Sc1 2.105 . S
O17 C7 1.268 . S
O18 Sc2 2.105 . S
O18 C9 1.268 . S
O19 Sc0 2.105 1_556 S
O19 C5 1.268 . S
O20 Sc2 2.105 . S
O20 C4 1.268 . S
O21 Sc1 2.105 . S
O21 C6 1.268 . S
Sc22 O25 2.025 . S
Sc22 O32 2.105 . S
Sc22 O35 2.105 . S
Sc22 O38 2.105 . S
Sc22 O41 2.105 . S
Sc23 O25 2.025 . S
Sc23 O33 2.105 . S
Sc23 O37 2.105 . S
Sc23 O39 2.105 . S
Sc23 O43 2.105 . S
Sc24 O25 2.025 . S
Sc24 O34 2.105 . S
Sc24 O36 2.105 . S
Sc24 O40 2.105 . S
Sc24 O42 2.105 . S
O25 Sc22 2.025 . S
O25 Sc23 2.025 . S
O25 Sc24 2.025 . S
C26 O32 1.268 . S
C26 O42 1.268 . S
C27 O33 1.268 . S
C27 O41 1.268 . S
C28 O34 1.268 . S
C28 O43 1.268 . S
C29 O35 1.268 . S
C29 O39 1.268 . S
C30 O36 1.268 . S
C30 O38 1.268 . S
C31 O37 1.268 . S
C31 O40 1.268 . S
O32 Sc22 2.105 . S
O32 C26 1.268 . S
O33 Sc23 2.105 . S
O33 C27 1.268 . S
O34 Sc24 2.105 . S
O34 C28 1.268 . S
O35 Sc22 2.105 . S
O35 C29 1.268 . S
O36 Sc24 2.105 . S
O36 C30 1.268 . S
O37 Sc23 2.105 . S
O37 C31 1.268 . S
O38 Sc22 2.105 . S
O38 C30 1.268 . S
O39 Sc23 2.105 . S
O39 C29 1.268 . S
O40 Sc24 2.105 . S
O40 C31 1.268 . S
O41 Sc22 2.105 . S
O41 C27 1.268 . S
O42 Sc24 2.105 . S
O42 C26 1.268 . S
O43 Sc23 2.105 . S
O43 C28 1.268 . S
Sc44 O47 2.025 . S
Sc44 O54 2.105 1_554 S
Sc44 O57 2.105 . S
Sc44 O60 2.105 . S
Sc44 O63 2.105 1_554 S
Sc45 O47 2.025 1_556 S
Sc45 O55 2.105 . S
Sc45 O59 2.105 1_556 S
Sc45 O61 2.105 1_556 S
Sc45 O65 2.105 . S
Sc46 O47 2.025 . S
Sc46 O56 2.105 1_554 S
Sc46 O58 2.105 . S
Sc46 O62 2.105 . S
Sc46 O64 2.105 1_554 S
O47 Sc44 2.025 . S
O47 Sc45 2.025 1_554 S
O47 Sc46 2.025 . S
C48 O54 1.268 . S
C48 O64 1.268 . S
C49 O55 1.268 . S
C49 O63 1.268 . S
C50 O56 1.268 . S
C50 O65 1.268 . S
C51 O57 1.268 . S
C51 O61 1.268 . S
C52 O58 1.268 . S
C52 O60 1.268 . S
C53 O59 1.268 . S
C53 O62 1.268 . S
O54 Sc44 2.105 1_556 S
O54 C48 1.268 . S
O55 Sc45 2.105 . S
O55 C49 1.268 . S
O56 Sc46 2.105 1_556 S
O56 C50 1.268 . S
O57 Sc44 2.105 . S
O57 C51 1.268 . S
O58 Sc46 2.105 . S
O58 C52 1.268 . S
O59 Sc45 2.105 1_554 S
O59 C53 1.268 . S
O60 Sc44 2.105 . S
O60 C52 1.268 . S
O61 Sc45 2.105 1_554 S
O61 C51 1.268 . S
O62 Sc46 2.105 . S
O62 C53 1.268 . S
O63 Sc44 2.105 1_556 S
O63 C49 1.268 . S
O64 Sc46 2.105 1_556 S
O64 C48 1.268 . S
O65 Sc45 2.105 . S
O65 C50 1.268 . S
Sc66 O69 2.025 . S
Sc66 O76 2.105 . S
Sc66 O79 2.105 . S
Sc66 O82 2.105 . S
Sc66 O85 2.105 . S
Sc67 O69 2.025 . S
Sc67 O77 2.105 . S
Sc67 O81 2.105 . S
Sc67 O83 2.105 . S
Sc67 O87 2.105 . S
Sc68 O69 2.025 . S
Sc68 O78 2.105 . S
Sc68 O80 2.105 . S
Sc68 O84 2.105 . S
Sc68 O86 2.105 . S
O69 Sc66 2.025 . S
O69 Sc67 2.025 . S
O69 Sc68 2.025 . S
C70 O76 1.268 . S
C70 O86 1.268 . S
C71 O77 1.268 . S
C71 O85 1.268 . S
C72 O78 1.268 . S
C72 O87 1.268 . S
C73 O79 1.268 . S
C73 O83 1.268 . S
C74 O80 1.268 . S
C74 O82 1.268 . S
C75 O81 1.268 . S
C75 O84 1.268 . S
O76 Sc66 2.105 . S
O76 C70 1.268 . S
O77 Sc67 2.105 . S
O77 C71 1.268 . S
O78 Sc68 2.105 . S
O78 C72 1.268 . S
O79 Sc66 2.105 . S
O79 C73 1.268 . S
O80 Sc68 2.105 . S
O80 C74 1.268 . S
O81 Sc67 2.105 . S
O81 C75 1.268 . S
O82 Sc66 2.105 . S
O82 C74 1.268 . S
O83 Sc67 2.105 . S
O83 C73 1.268 . S
O84 Sc68 2.105 . S
O84 C75 1.268 . S
O85 Sc66 2.105 . S
O85 C71 1.268 . S
O86 Sc68 2.105 . S
O86 C70 1.268 . S
O87 Sc67 2.105 . S
O87 C72 1.268 . S
P88 O99 1.490 . S
P88 C102 1.812 . S
P88 C108 1.803 . S
P88 C114 1.819 . S
H89 C103 0.941 . S
H90 C104 0.939 . S
H91 C106 0.940 . S
H92 C107 0.940 . S
H93 C109 0.939 . S
H94 C110 0.942 . S
H95 C112 0.940 . S
H96 C113 0.939 . S
H97 C115 0.941 . S
H98 C119 0.939 . S
O99 P88 1.490 . S
H100 C116 0.939 . S
H101 C118 0.940 . S
C102 P88 1.812 . S
C102 C103 1.389 . S
C102 C107 1.391 . S
C103 H89 0.941 . S
C103 C102 1.389 . S
C103 C104 1.397 . S
C104 H90 0.939 . S
C104 C103 1.397 . S
C104 C105 1.378 . S
C105 C104 1.378 . S
C105 C106 1.378 . S
C106 H91 0.940 . S
C106 C105 1.378 . S
C106 C107 1.396 . S
C107 H92 0.940 . S
C107 C102 1.391 . S
C107 C106 1.396 . S
C108 P88 1.803 . S
C108 C109 1.378 . S
C108 C113 1.400 . S
C109 H93 0.939 . S
C109 C108 1.378 . S
C109 C110 1.361 . S
C110 H94 0.942 . S
C110 C109 1.361 . S
C110 C111 1.369 . S
C111 C110 1.369 . S
C111 C112 1.404 . S
C112 H95 0.940 . S
C112 C111 1.404 . S
C112 C113 1.389 . S
C113 H96 0.939 . S
C113 C108 1.400 . S
C113 C112 1.389 . S
C114 P88 1.819 . S
C114 C115 1.391 1_455 S
C114 C119 1.391 . S
C115 H97 0.941 . S
C115 C114 1.391 1_655 S
C115 C116 1.396 . S
C116 H100 0.939 . S
C116 C115 1.396 . S
C116 C117 1.397 . S
C117 C116 1.397 . S
C117 C118 1.385 1_655 S
C118 H101 0.940 . S
C118 C117 1.385 1_455 S
C118 C119 1.388 . S
C119 H98 0.939 . S
C119 C114 1.391 . S
C119 C118 1.388 . S
P120 O131 1.490 . S
P120 C134 1.812 . S
P120 C140 1.803 . S
P120 C146 1.819 . S
H121 C135 0.941 . S
H122 C136 0.939 . S
H123 C138 0.940 . S
H124 C139 0.940 . S
H125 C141 0.939 . S
H126 C142 0.942 . S
H127 C144 0.940 . S
H128 C145 0.939 . S
H129 C147 0.941 . S
H130 C151 0.939 . S
O131 P120 1.490 . S
H132 C148 0.939 . S
H133 C150 0.940 . S
C134 P120 1.812 . S
C134 C135 1.389 . S
C134 C139 1.391 . S
C135 H121 0.941 . S
C135 C134 1.389 . S
C135 C136 1.397 . S
C136 H122 0.939 . S
C136 C135 1.397 . S
C136 C137 1.378 . S
C137 C136 1.378 . S
C137 C138 1.378 . S
C138 H123 0.940 . S
C138 C137 1.378 . S
C138 C139 1.396 . S
C139 H124 0.940 . S
C139 C134 1.391 . S
C139 C138 1.396 . S
C140 P120 1.803 . S
C140 C141 1.378 . S
C140 C145 1.400 . S
C141 H125 0.939 . S
C141 C140 1.378 . S
C141 C142 1.361 . S
C142 H126 0.942 . S
C142 C141 1.361 . S
C142 C143 1.369 . S
C143 C142 1.369 . S
C143 C144 1.404 . S
C144 H127 0.940 . S
C144 C143 1.404 . S
C144 C145 1.389 . S
C145 H128 0.939 . S
C145 C140 1.400 . S
C145 C144 1.389 . S
C146 P120 1.819 . S
C146 C147 1.391 . S
C146 C151 1.391 . S
C147 H129 0.941 . S
C147 C146 1.391 . S
C147 C148 1.396 . S
C148 H132 0.939 . S
C148 C147 1.396 . S
C148 C149 1.397 . S
C149 C148 1.397 . S
C149 C150 1.385 . S
C150 H133 0.940 . S
C150 C149 1.385 . S
C150 C151 1.388 . S
C151 H130 0.939 . S
C151 C146 1.391 . S
C151 C150 1.388 . S
P152 O163 1.490 . S
P152 C166 1.812 . S
P152 C172 1.803 . S
P152 C178 1.819 . S
H153 C167 0.941 . S
H154 C168 0.939 . S
H155 C170 0.940 . S
H156 C171 0.940 . S
H157 C173 0.939 . S
H158 C174 0.942 . S
H159 C176 0.940 . S
H160 C177 0.939 . S
H161 C179 0.941 . S
H162 C183 0.939 . S
O163 P152 1.490 . S
H164 C180 0.939 . S
H165 C182 0.940 . S
C166 P152 1.812 . S
C166 C167 1.389 . S
C166 C171 1.391 . S
C167 H153 0.941 . S
C167 C166 1.389 . S
C167 C168 1.397 . S
C168 H154 0.939 . S
C168 C167 1.397 . S
C168 C169 1.378 . S
C169 C168 1.378 . S
C169 C170 1.378 . S
C170 H155 0.940 . S
C170 C169 1.378 . S
C170 C171 1.396 . S
C171 H156 0.940 . S
C171 C166 1.391 . S
C171 C170 1.396 . S
C172 P152 1.803 . S
C172 C173 1.378 . S
C172 C177 1.400 . S
C173 H157 0.939 . S
C173 C172 1.378 . S
C173 C174 1.361 . S
C174 H158 0.942 . S
C174 C173 1.361 . S
C174 C175 1.369 . S
C175 C174 1.369 . S
C175 C176 1.404 . S
C176 H159 0.940 . S
C176 C175 1.404 . S
C176 C177 1.389 . S
C177 H160 0.939 . S
C177 C172 1.400 . S
C177 C176 1.389 . S
C178 P152 1.819 . S
C178 C179 1.391 . S
C178 C183 1.391 . S
C179 H161 0.941 . S
C179 C178 1.391 . S
C179 C180 1.396 . S
C180 H164 0.939 . S
C180 C179 1.396 . S
C180 C181 1.397 . S
C181 C180 1.397 . S
C181 C182 1.385 . S
C182 H165 0.940 . S
C182 C181 1.385 . S
C182 C183 1.388 . S
C183 H162 0.939 . S
C183 C178 1.391 . S
C183 C182 1.388 . S
P184 O195 1.490 . S
P184 C198 1.812 . S
P184 C204 1.803 . S
P184 C210 1.819 . S
H185 C199 0.941 . S
H186 C200 0.939 . S
H187 C202 0.940 . S
H188 C203 0.940 . S
H189 C205 0.939 . S
H190 C206 0.942 . S
H191 C208 0.940 . S
H192 C209 0.939 . S
H193 C211 0.941 . S
H194 C215 0.939 . S
O195 P184 1.490 . S
H196 C212 0.939 . S
H197 C214 0.940 . S
C198 P184 1.812 . S
C198 C199 1.389 . S
C198 C203 1.391 . S
C199 H185 0.941 . S
C199 C198 1.389 . S
C199 C200 1.397 . S
C200 H186 0.939 . S
C200 C199 1.397 . S
C200 C201 1.378 . S
C201 C200 1.378 . S
C201 C202 1.378 . S
C202 H187 0.940 . S
C202 C201 1.378 . S
C202 C203 1.396 . S
C203 H188 0.940 . S
C203 C198 1.391 . S
C203 C202 1.396 . S
C204 P184 1.803 . S
C204 C205 1.378 . S
C204 C209 1.400 . S
C205 H189 0.939 . S
C205 C204 1.378 . S
C205 C206 1.361 . S
C206 H190 0.942 . S
C206 C205 1.361 . S
C206 C207 1.369 . S
C207 C206 1.369 . S
C207 C208 1.404 . S
C208 H191 0.940 . S
C208 C207 1.404 . S
C208 C209 1.389 . S
C209 H192 0.939 . S
C209 C204 1.400 . S
C209 C208 1.389 . S
C210 P184 1.819 . S
C210 C211 1.391 . S
C210 C215 1.391 . S
C211 H193 0.941 . S
C211 C210 1.391 . S
C211 C212 1.396 . S
C212 H196 0.939 . S
C212 C211 1.396 . S
C212 C213 1.397 . S
C213 C212 1.397 . S
C213 C214 1.385 . S
C214 H197 0.940 . S
C214 C213 1.385 . S
C214 C215 1.388 . S
C215 H194 0.939 . S
C215 C210 1.391 . S
C215 C214 1.388 . S
P216 O227 1.490 . S
P216 C230 1.812 . S
P216 C236 1.803 . S
P216 C242 1.819 . S
H217 C231 0.941 . S
H218 C232 0.939 . S
H219 C234 0.940 . S
H220 C235 0.940 . S
H221 C237 0.939 . S
H222 C238 0.942 . S
H223 C240 0.940 . S
H224 C241 0.939 . S
H225 C243 0.941 . S
H226 C247 0.939 . S
O227 P216 1.490 . S
H228 C244 0.939 . S
H229 C246 0.940 . S
C230 P216 1.812 . S
C230 C231 1.389 . S
C230 C235 1.391 . S
C231 H217 0.941 . S
C231 C230 1.389 . S
C231 C232 1.397 . S
C232 H218 0.939 . S
C232 C231 1.397 . S
C232 C233 1.378 . S
C233 C232 1.378 . S
C233 C234 1.378 . S
C234 H219 0.940 . S
C234 C233 1.378 . S
C234 C235 1.396 . S
C235 H220 0.940 . S
C235 C230 1.391 . S
C235 C234 1.396 . S
C236 P216 1.803 . S
C236 C237 1.378 . S
C236 C241 1.400 . S
C237 H221 0.939 . S
C237 C236 1.378 . S
C237 C238 1.361 . S
C238 H222 0.942 . S
C238 C237 1.361 . S
C238 C239 1.369 . S
C239 C238 1.369 . S
C239 C240 1.404 . S
C240 H223 0.940 . S
C240 C239 1.404 . S
C240 C241 1.389 . S
C241 H224 0.939 . S
C241 C236 1.400 . S
C241 C240 1.389 . S
C242 P216 1.819 . S
C242 C243 1.391 . S
C242 C247 1.391 . S
C243 H225 0.941 . S
C243 C242 1.391 . S
C243 C244 1.396 . S
C244 H228 0.939 . S
C244 C243 1.396 . S
C244 C245 1.397 . S
C245 C244 1.397 . S
C245 C246 1.385 . S
C246 H229 0.940 . S
C246 C245 1.385 . S
C246 C247 1.388 . S
C247 H226 0.939 . S
C247 C242 1.391 . S
C247 C246 1.388 . S
P248 O259 1.490 . S
P248 C262 1.812 . S
P248 C268 1.803 . S
P248 C274 1.819 . S
H249 C263 0.941 . S
H250 C264 0.939 . S
H251 C266 0.940 . S
H252 C267 0.940 . S
H253 C269 0.939 . S
H254 C270 0.942 . S
H255 C272 0.940 . S
H256 C273 0.939 . S
H257 C275 0.941 . S
H258 C279 0.939 . S
O259 P248 1.490 . S
H260 C276 0.939 . S
H261 C278 0.940 . S
C262 P248 1.812 . S
C262 C263 1.389 . S
C262 C267 1.391 . S
C263 H249 0.941 . S
C263 C262 1.389 . S
C263 C264 1.397 . S
C264 H250 0.939 . S
C264 C263 1.397 . S
C264 C265 1.378 . S
C265 C264 1.378 . S
C265 C266 1.378 . S
C266 H251 0.940 . S
C266 C265 1.378 . S
C266 C267 1.396 . S
C267 H252 0.940 . S
C267 C262 1.391 . S
C267 C266 1.396 . S
C268 P248 1.803 . S
C268 C269 1.378 . S
C268 C273 1.400 . S
C269 H253 0.939 . S
C269 C268 1.378 . S
C269 C270 1.361 . S
C270 H254 0.942 . S
C270 C269 1.361 . S
C270 C271 1.369 . S
C271 C270 1.369 . S
C271 C272 1.404 . S
C272 H255 0.940 . S
C272 C271 1.404 . S
C272 C273 1.389 . S
C273 H256 0.939 . S
C273 C268 1.400 . S
C273 C272 1.389 . S
C274 P248 1.819 . S
C274 C275 1.391 . S
C274 C279 1.391 . S
C275 H257 0.941 . S
C275 C274 1.391 . S
C275 C276 1.396 . S
C276 H260 0.939 . S
C276 C275 1.396 . S
C276 C277 1.397 . S
C277 C276 1.397 . S
C277 C278 1.385 . S
C278 H261 0.940 . S
C278 C277 1.385 . S
C278 C279 1.388 . S
C279 H258 0.939 . S
C279 C274 1.391 . S
C279 C278 1.388 . S
P280 O291 1.490 . S
P280 C294 1.812 . S
P280 C300 1.803 . S
P280 C306 1.819 . S
H281 C295 0.941 . S
H282 C296 0.939 . S
H283 C298 0.940 . S
H284 C299 0.940 . S
H285 C301 0.939 . S
H286 C302 0.942 . S
H287 C304 0.940 . S
H288 C305 0.939 . S
H289 C307 0.941 . S
H290 C311 0.939 . S
O291 P280 1.490 . S
H292 C308 0.939 . S
H293 C310 0.940 . S
C294 P280 1.812 . S
C294 C295 1.389 . S
C294 C299 1.391 . S
C295 H281 0.941 . S
C295 C294 1.389 . S
C295 C296 1.397 . S
C296 H282 0.939 . S
C296 C295 1.397 . S
C296 C297 1.378 . S
C297 C296 1.378 . S
C297 C298 1.378 . S
C298 H283 0.940 . S
C298 C297 1.378 . S
C298 C299 1.396 . S
C299 H284 0.940 . S
C299 C294 1.391 . S
C299 C298 1.396 . S
C300 P280 1.803 . S
C300 C301 1.378 . S
C300 C305 1.400 . S
C301 H285 0.939 . S
C301 C300 1.378 . S
C301 C302 1.361 . S
C302 H286 0.942 . S
C302 C301 1.361 . S
C302 C303 1.369 . S
C303 C302 1.369 . S
C303 C304 1.404 . S
C304 H287 0.940 . S
C304 C303 1.404 . S
C304 C305 1.389 . S
C305 H288 0.939 . S
C305 C300 1.400 . S
C305 C304 1.389 . S
C306 P280 1.819 . S
C306 C307 1.391 . S
C306 C311 1.391 . S
C307 H289 0.941 . S
C307 C306 1.391 . S
C307 C308 1.396 . S
C308 H292 0.939 . S
C308 C307 1.396 . S
C308 C309 1.397 . S
C309 C308 1.397 . S
C309 C310 1.385 . S
C310 H293 0.940 . S
C310 C309 1.385 . S
C310 C311 1.388 . S
C311 H290 0.939 . S
C311 C306 1.391 . S
C311 C310 1.388 . S
P312 O323 1.490 . S
P312 C326 1.812 . S
P312 C332 1.803 . S
P312 C338 1.819 . S
H313 C327 0.941 . S
H314 C328 0.939 . S
H315 C330 0.940 . S
H316 C331 0.940 . S
H317 C333 0.939 . S
H318 C334 0.942 . S
H319 C336 0.940 . S
H320 C337 0.939 . S
H321 C339 0.941 . S
H322 C343 0.939 . S
O323 P312 1.490 . S
H324 C340 0.939 . S
H325 C342 0.940 1_455 S
C326 P312 1.812 . S
C326 C327 1.389 . S
C326 C331 1.391 . S
C327 H313 0.941 . S
C327 C326 1.389 . S
C327 C328 1.397 . S
C328 H314 0.939 . S
C328 C327 1.397 . S
C328 C329 1.378 . S
C329 C328 1.378 . S
C329 C330 1.378 . S
C330 H315 0.940 . S
C330 C329 1.378 . S
C330 C331 1.396 . S
C331 H316 0.940 . S
C331 C326 1.391 . S
C331 C330 1.396 . S
C332 P312 1.803 . S
C332 C333 1.378 . S
C332 C337 1.400 . S
C333 H317 0.939 . S
C333 C332 1.378 . S
C333 C334 1.361 . S
C334 H318 0.942 . S
C334 C333 1.361 . S
C334 C335 1.369 . S
C335 C334 1.369 . S
C335 C336 1.404 . S
C336 H319 0.940 . S
C336 C335 1.404 . S
C336 C337 1.389 . S
C337 H320 0.939 . S
C337 C332 1.400 . S
C337 C336 1.389 . S
C338 P312 1.819 . S
C338 C339 1.391 . S
C338 C343 1.391 . S
C339 H321 0.941 . S
C339 C338 1.391 . S
C339 C340 1.396 . S
C340 H324 0.939 . S
C340 C339 1.396 . S
C340 C341 1.397 1_655 S
C341 C340 1.397 1_455 S
C341 C342 1.385 1_455 S
C342 H325 0.940 1_655 S
C342 C341 1.385 1_655 S
C342 C343 1.388 . S
C343 H322 0.939 . S
C343 C338 1.391 . S
C343 C342 1.388 . S
H344 C352 0.950 . S
H345 C357 0.950 . S
H346 C354 0.950 . S
H347 C356 0.950 . S
H348 C358 0.950 . S
H349 C360 0.950 . S
H350 C362 0.950 . S
H351 C363 0.950 . S
C352 H344 0.950 . S
C352 C353 1.386 . S
C352 C354 1.391 . S
C353 C352 1.386 . S
C353 C357 1.393 . S
C354 H346 0.950 . S
C354 C352 1.391 . S
C354 C355 1.400 . S
C355 C354 1.400 . S
C355 C356 1.398 . S
C355 C361 1.491 . S
C356 H347 0.950 . S
C356 C355 1.398 . S
C356 C357 1.391 . S
C357 H345 0.950 . S
C357 C353 1.393 . S
C357 C356 1.391 . S
C358 H348 0.950 . S
C358 C359 1.397 . S
C358 C360 1.391 1_545 S
C359 C358 1.397 . S
C359 C363 1.364 1_545 S
C360 H349 0.950 . S
C360 C358 1.391 1_565 S
C360 C361 1.400 . S
C361 C355 1.491 . S
C361 C360 1.400 . S
C361 C362 1.398 . S
C362 H350 0.950 . S
C362 C361 1.398 . S
C362 C363 1.391 . S
C363 H351 0.950 . S
C363 C359 1.364 1_565 S
C363 C362 1.391 . S
H364 C372 0.950 . S
H365 C377 0.950 . S
H366 C374 0.950 . S
H367 C376 0.950 . S
H368 C378 0.950 . S
H369 C380 0.950 . S
H370 C382 0.950 . S
H371 C383 0.950 . S
C372 H364 0.950 . S
C372 C373 1.386 . S
C372 C374 1.391 . S
C373 C372 1.386 . S
C373 C377 1.393 . S
C374 H366 0.950 . S
C374 C372 1.391 . S
C374 C375 1.400 . S
C375 C374 1.400 . S
C375 C376 1.398 . S
C375 C381 1.491 . S
C376 H367 0.950 . S
C376 C375 1.398 . S
C376 C377 1.391 . S
C377 H365 0.950 . S
C377 C373 1.393 . S
C377 C376 1.391 . S
C378 H368 0.950 . S
C378 C379 1.386 . S
C378 C380 1.391 . S
C379 C378 1.386 . S
C379 C383 1.393 . S
C380 H369 0.950 . S
C380 C378 1.391 . S
C380 C381 1.400 . S
C381 C375 1.491 . S
C381 C380 1.400 . S
C381 C382 1.398 . S
C382 H370 0.950 . S
C382 C381 1.398 . S
C382 C383 1.391 . S
C383 H371 0.950 . S
C383 C379 1.393 . S
C383 C382 1.391 . S
H384 C392 0.950 . S
H385 C397 0.950 . S
H386 C394 0.950 . S
H387 C396 0.950 . S
H388 C398 0.950 . S
H389 C400 0.950 . S
H390 C402 0.950 . S
H391 C403 0.950 . S
C392 H384 0.950 . S
C392 C393 1.386 . S
C392 C394 1.391 . S
C393 C392 1.386 . S
C393 C397 1.393 . S
C394 H386 0.950 . S
C394 C392 1.391 . S
C394 C395 1.400 . S
C395 C394 1.400 . S
C395 C396 1.398 . S
C395 C401 1.491 . S
C396 H387 0.950 . S
C396 C395 1.398 . S
C396 C397 1.391 . S
C397 H385 0.950 . S
C397 C393 1.393 . S
C397 C396 1.391 . S
C398 H388 0.950 . S
C398 C399 1.386 . S
C398 C400 1.391 1_565 S
C399 C398 1.386 . S
C399 C403 1.393 . S
C400 H389 0.950 . S
C400 C398 1.391 1_545 S
C400 C401 1.400 . S
C401 C395 1.491 . S
C401 C400 1.400 . S
C401 C402 1.398 1_545 S
C402 H390 0.950 . S
C402 C401 1.398 1_565 S
C402 C403 1.391 . S
C403 H391 0.950 . S
C403 C399 1.393 . S
C403 C402 1.391 . S
H404 C412 0.950 . S
H405 C417 0.950 . S
H406 C414 0.950 . S
H407 C416 0.950 . S
H408 C418 0.950 . S
H409 C420 0.950 . S
H410 C422 0.950 . S
H411 C423 0.950 . S
C412 H404 0.950 . S
C412 C413 1.386 . S
C412 C414 1.391 . S
C413 C412 1.386 . S
C413 C417 1.393 . S
C414 H406 0.950 . S
C414 C412 1.391 . S
C414 C415 1.400 . S
C415 C414 1.400 . S
C415 C416 1.398 . S
C415 C421 1.491 . S
C416 H407 0.950 . S
C416 C415 1.398 . S
C416 C417 1.391 . S
C417 H405 0.950 . S
C417 C413 1.393 . S
C417 C416 1.391 . S
C418 H408 0.950 . S
C418 C419 1.386 . S
C418 C420 1.391 . S
C419 C418 1.386 . S
C419 C423 1.393 . S
C420 H409 0.950 . S
C420 C418 1.391 . S
C420 C421 1.400 . S
C421 C415 1.491 . S
C421 C420 1.400 . S
C421 C422 1.398 . S
C422 H410 0.950 . S
C422 C421 1.398 . S
C422 C423 1.391 . S
C423 H411 0.950 . S
C423 C419 1.393 . S
C423 C422 1.391 . S
H424 C432 0.950 . S
H425 C437 0.950 . S
H426 C434 0.950 . S
H427 C436 0.950 . S
H428 C438 0.950 . S
H429 C440 0.950 . S
H430 C442 0.950 . S
H431 C443 0.950 . S
C432 H424 0.950 . S
C432 C433 1.386 . S
C432 C434 1.391 . S
C433 C432 1.386 . S
C433 C437 1.393 . S
C434 H426 0.950 . S
C434 C432 1.391 . S
C434 C435 1.400 . S
C435 C434 1.400 . S
C435 C436 1.398 . S
C435 C441 1.491 . S
C436 H427 0.950 . S
C436 C435 1.398 . S
C436 C437 1.391 . S
C437 H425 0.950 . S
C437 C433 1.393 . S
C437 C436 1.391 . S
C438 H428 0.950 . S
C438 C439 1.386 . S
C438 C440 1.391 . S
C439 C438 1.386 . S
C439 C443 1.393 . S
C440 H429 0.950 . S
C440 C438 1.391 . S
C440 C441 1.400 . S
C441 C435 1.491 . S
C441 C440 1.400 . S
C441 C442 1.398 . S
C442 H430 0.950 . S
C442 C441 1.398 . S
C442 C443 1.391 . S
C443 H431 0.950 . S
C443 C439 1.393 . S
C443 C442 1.391 . S
H444 C452 0.950 . S
H445 C457 0.950 . S
H446 C454 0.950 . S
H447 C456 0.950 . S
H448 C458 0.950 . S
H449 C460 0.950 . S
H450 C462 0.950 . S
H451 C463 0.950 . S
C452 H444 0.950 . S
C452 C453 1.386 . S
C452 C454 1.391 1_655 S
C453 C452 1.386 . S
C453 C457 1.393 . S
C454 H446 0.950 . S
C454 C452 1.391 1_455 S
C454 C455 1.400 . S
C455 C454 1.400 . S
C455 C456 1.398 . S
C455 C461 1.491 . S
C456 H447 0.950 . S
C456 C455 1.398 . S
C456 C457 1.391 1_455 S
C457 H445 0.950 . S
C457 C453 1.393 . S
C457 C456 1.391 1_655 S
C458 H448 0.950 . S
C458 C459 1.386 . S
C458 C460 1.391 . S
C459 C458 1.386 . S
C459 C463 1.393 . S
C460 H449 0.950 . S
C460 C458 1.391 . S
C460 C461 1.400 . S
C461 C455 1.491 . S
C461 C460 1.400 . S
C461 C462 1.398 . S
C462 H450 0.950 . S
C462 C461 1.398 . S
C462 C463 1.391 . S
C463 H451 0.950 . S
C463 C459 1.393 . S
C463 C462 1.391 . S
H464 C472 0.950 . S
H465 C477 0.950 . S
H466 C474 0.950 . S
H467 C476 0.950 . S
H468 C478 0.950 . S
H469 C480 0.950 . S
H470 C482 0.950 . S
H471 C483 0.950 . S
C472 H464 0.950 . S
C472 C473 1.386 . S
C472 C474 1.391 . S
C473 C472 1.386 . S
C473 C477 1.393 . S
C474 H466 0.950 . S
C474 C472 1.391 . S
C474 C475 1.400 . S
C475 C474 1.400 . S
C475 C476 1.398 . S
C475 C481 1.491 . S
C476 H467 0.950 . S
C476 C475 1.398 . S
C476 C477 1.391 . S
C477 H465 0.950 . S
C477 C473 1.393 . S
C477 C476 1.391 . S
C478 H468 0.950 . S
C478 C479 1.386 . S
C478 C480 1.391 . S
C479 C478 1.386 . S
C479 C483 1.393 . S
C480 H469 0.950 . S
C480 C478 1.391 . S
C480 C481 1.400 . S
C481 C475 1.491 . S
C481 C480 1.400 . S
C481 C482 1.398 . S
C482 H470 0.950 . S
C482 C481 1.398 . S
C482 C483 1.391 . S
C483 H471 0.950 . S
C483 C479 1.393 . S
C483 C482 1.391 . S
H484 C492 0.950 . S
H485 C497 0.950 . S
H486 C494 0.950 . S
H487 C496 0.950 . S
H488 C498 0.950 . S
H489 C500 0.950 . S
H490 C502 0.950 . S
H491 C503 0.950 1_655 S
C492 H484 0.950 . S
C492 C493 1.386 . S
C492 C494 1.391 . S
C493 C492 1.386 . S
C493 C497 1.393 . S
C494 H486 0.950 . S
C494 C492 1.391 . S
C494 C495 1.400 . S
C495 C494 1.400 . S
C495 C496 1.398 . S
C495 C501 1.491 . S
C496 H487 0.950 . S
C496 C495 1.398 . S
C496 C497 1.391 . S
C497 H485 0.950 . S
C497 C493 1.393 . S
C497 C496 1.391 . S
C498 H488 0.950 . S
C498 C499 1.386 . S
C498 C500 1.391 . S
C499 C498 1.386 . S
C499 C503 1.393 . S
C500 H489 0.950 . S
C500 C498 1.391 . S
C500 C501 1.400 . S
C501 C495 1.491 . S
C501 C500 1.400 . S
C501 C502 1.398 . S
C502 H490 0.950 . S
C502 C501 1.398 . S
C502 C503 1.391 . S
C503 H491 0.950 1_455 S
C503 C499 1.393 . S
C503 C502 1.391 . S
H504 C512 0.950 . S
H505 C517 0.950 . S
H506 C514 0.950 . S
H507 C516 0.950 . S
H508 C518 0.950 1_565 S
H509 C520 0.950 . S
H510 C522 0.950 . S
H511 C523 0.950 . S
C512 H504 0.950 . S
C512 C513 1.386 . S
C512 C514 1.391 . S
C513 C512 1.386 . S
C513 C517 1.393 . S
C514 H506 0.950 . S
C514 C512 1.391 . S
C514 C515 1.400 . S
C515 C514 1.400 . S
C515 C516 1.398 . S
C515 C521 1.491 . S
C516 H507 0.950 . S
C516 C515 1.398 . S
C516 C517 1.391 . S
C517 H505 0.950 . S
C517 C513 1.393 . S
C517 C516 1.391 . S
C518 H508 0.950 1_545 S
C518 C519 1.386 1_545 S
C518 C520 1.391 . S
C519 C518 1.386 1_565 S
C519 C523 1.393 1_565 S
C520 H509 0.950 . S
C520 C518 1.391 . S
C520 C521 1.400 . S
C521 C515 1.491 . S
C521 C520 1.400 . S
C521 C522 1.398 . S
C522 H510 0.950 . S
C522 C521 1.398 . S
C522 C523 1.391 . S
C523 H511 0.950 . S
C523 C519 1.393 1_545 S
C523 C522 1.391 . S
H524 C532 0.950 . S
H525 C537 0.950 . S
H526 C534 0.950 . S
H527 C536 0.950 . S
H528 C538 0.950 . S
H529 C540 0.950 . S
H530 C542 0.950 . S
H531 C543 0.950 . S
C532 H524 0.950 . S
C532 C533 1.386 . S
C532 C534 1.391 . S
C533 C532 1.386 . S
C533 C537 1.393 . S
C534 H526 0.950 . S
C534 C532 1.391 . S
C534 C535 1.400 . S
C535 C534 1.400 . S
C535 C536 1.398 . S
C535 C541 1.491 . S
C536 H527 0.950 . S
C536 C535 1.398 . S
C536 C537 1.391 . S
C537 H525 0.950 . S
C537 C533 1.393 . S
C537 C536 1.391 . S
C538 H528 0.950 . S
C538 C539 1.386 . S
C538 C540 1.391 . S
C539 C538 1.386 . S
C539 C543 1.393 . S
C540 H529 0.950 . S
C540 C538 1.391 . S
C540 C541 1.400 . S
C541 C535 1.491 . S
C541 C540 1.400 . S
C541 C542 1.398 . S
C542 H530 0.950 . S
C542 C541 1.398 . S
C542 C543 1.391 . S
C543 H531 0.950 . S
C543 C539 1.393 . S
C543 C542 1.391 . S
H544 C552 0.945 1_554 S
H545 C557 0.950 . S
H546 C554 0.950 . S
H547 C556 0.950 . S
H548 C558 0.950 . S
H549 C560 0.950 . S
H550 C562 0.950 . S
H551 C563 0.950 . S
C552 H544 0.945 1_556 S
C552 C553 1.386 1_556 S
C552 C554 1.391 . S
C553 C552 1.386 1_554 S
C553 C557 1.393 1_554 S
C554 H546 0.950 . S
C554 C552 1.391 . S
C554 C555 1.400 . S
C555 C554 1.400 . S
C555 C556 1.398 . S
C555 C561 1.491 . S
C556 H547 0.950 . S
C556 C555 1.398 . S
C556 C557 1.391 . S
C557 H545 0.950 . S
C557 C553 1.393 1_556 S
C557 C556 1.391 . S
C558 H548 0.950 . S
C558 C559 1.386 . S
C558 C560 1.391 1_545 S
C559 C558 1.386 . S
C559 C563 1.393 . S
C560 H549 0.950 . S
C560 C558 1.391 1_565 S
C560 C561 1.400 . S
C561 C555 1.491 . S
C561 C560 1.400 . S
C561 C562 1.398 1_565 S
C562 H550 0.950 . S
C562 C561 1.398 1_545 S
C562 C563 1.391 . S
C563 H551 0.950 . S
C563 C559 1.393 . S
C563 C562 1.391 . S
H564 C572 0.950 . S
H565 C577 0.950 . S
H566 C574 0.950 . S
H567 C576 0.950 . S
H568 C578 0.950 . S
H569 C580 0.950 . S
H570 C582 0.950 . S
H571 C583 0.950 . S
C572 H564 0.950 . S
C572 C573 1.386 . S
C572 C574 1.391 . S
C573 C572 1.386 . S
C573 C577 1.393 . S
C574 H566 0.950 . S
C574 C572 1.391 . S
C574 C575 1.400 . S
C575 C574 1.400 . S
C575 C576 1.398 . S
C575 C581 1.491 . S
C576 H567 0.950 . S
C576 C575 1.398 . S
C576 C577 1.391 . S
C577 H565 0.950 . S
C577 C573 1.393 . S
C577 C576 1.391 . S
C578 H568 0.950 . S
C578 C579 1.386 . S
C578 C580 1.391 . S
C579 C578 1.386 . S
C579 C583 1.393 . S
C580 H569 0.950 . S
C580 C578 1.391 . S
C580 C581 1.400 . S
C581 C575 1.491 . S
C581 C580 1.400 . S
C581 C582 1.398 . S
C582 H570 0.950 . S
C582 C581 1.398 . S
C582 C583 1.391 . S
C583 H571 0.950 . S
C583 C579 1.393 . S
C583 C582 1.391 . S
H584 C592 0.950 . S
H585 C597 0.950 . S
H586 C594 0.950 . S
H587 C596 0.950 . S
H588 C598 0.950 . S
H589 C600 0.950 . S
H590 C602 0.950 . S
H591 C603 0.950 . S
C592 H584 0.950 . S
C592 C593 1.386 . S
C592 C594 1.391 . S
C593 C592 1.386 . S
C593 C597 1.393 . S
C594 H586 0.950 . S
C594 C592 1.391 . S
C594 C595 1.400 . S
C595 C594 1.400 . S
C595 C596 1.398 . S
C595 C601 1.491 . S
C596 H587 0.950 . S
C596 C595 1.398 . S
C596 C597 1.391 . S
C597 H585 0.950 . S
C597 C593 1.393 . S
C597 C596 1.391 . S
C598 H588 0.950 . S
C598 C599 1.386 . S
C598 C600 1.391 . S
C599 C598 1.386 . S
C599 C603 1.393 . S
C600 H589 0.950 . S
C600 C598 1.391 . S
C600 C601 1.400 . S
C601 C595 1.491 . S
C601 C600 1.400 . S
C601 C602 1.398 . S
C602 H590 0.950 . S
C602 C601 1.398 . S
C602 C603 1.391 . S
C603 H591 0.950 . S
C603 C599 1.393 . S
C603 C602 1.391 . S
H604 C612 0.950 . S
H605 C617 0.950 . S
H606 C614 0.950 . S
H607 C616 0.950 . S
H608 C618 0.950 . S
H609 C620 0.950 . S
H610 C622 0.950 . S
H611 C623 0.950 . S
C612 H604 0.950 . S
C612 C613 1.386 . S
C612 C614 1.391 1_455 S
C613 C612 1.386 . S
C613 C617 1.393 . S
C614 H606 0.950 . S
C614 C612 1.391 1_655 S
C614 C615 1.400 . S
C615 C614 1.400 . S
C615 C616 1.398 . S
C615 C621 1.491 . S
C616 H607 0.950 . S
C616 C615 1.398 . S
C616 C617 1.391 1_655 S
C617 H605 0.950 . S
C617 C613 1.393 . S
C617 C616 1.391 1_455 S
C618 H608 0.950 . S
C618 C619 1.386 . S
C618 C620 1.391 . S
C619 C618 1.386 . S
C619 C623 1.393 . S
C620 H609 0.950 . S
C620 C618 1.391 . S
C620 C621 1.400 . S
C621 C615 1.491 . S
C621 C620 1.400 . S
C621 C622 1.398 . S
C622 H610 0.950 . S
C622 C621 1.398 . S
C622 C623 1.391 . S
C623 H611 0.950 . S
C623 C619 1.393 . S
C623 C622 1.391 . S
H624 C632 0.950 . S
H625 C637 0.950 . S
H626 C634 0.950 . S
H627 C636 0.950 . S
H628 C638 0.950 . S
H629 C640 0.950 . S
H630 C642 0.950 . S
H631 C643 0.950 . S
C632 H624 0.950 . S
C632 C633 1.386 . S
C632 C634 1.391 . S
C633 C632 1.386 . S
C633 C637 1.393 . S
C634 H626 0.950 . S
C634 C632 1.391 . S
C634 C635 1.400 . S
C635 C634 1.400 . S
C635 C636 1.398 . S
C635 C641 1.491 . S
C636 H627 0.950 . S
C636 C635 1.398 . S
C636 C637 1.391 . S
C637 H625 0.950 . S
C637 C633 1.393 . S
C637 C636 1.391 . S
C638 H628 0.950 . S
C638 C639 1.386 . S
C638 C640 1.391 . S
C639 C638 1.386 . S
C639 C643 1.393 . S
C640 H629 0.950 . S
C640 C638 1.391 . S
C640 C641 1.400 . S
C641 C635 1.491 . S
C641 C640 1.400 . S
C641 C642 1.398 . S
C642 H630 0.950 . S
C642 C641 1.398 . S
C642 C643 1.391 . S
C643 H631 0.950 . S
C643 C639 1.393 . S
C643 C642 1.391 . S
H644 C652 0.950 . S
H645 C657 0.950 . S
H646 C654 0.950 . S
H647 C656 0.950 . S
H648 C658 0.950 . S
H649 C660 0.950 . S
H650 C662 0.950 . S
H651 C663 0.950 . S
C652 H644 0.950 . S
C652 C653 1.386 . S
C652 C654 1.391 . S
C653 C652 1.386 . S
C653 C657 1.393 . S
C654 H646 0.950 . S
C654 C652 1.391 . S
C654 C655 1.400 . S
C655 C654 1.400 . S
C655 C656 1.398 . S
C655 C661 1.491 . S
C656 H647 0.950 . S
C656 C655 1.398 . S
C656 C657 1.391 . S
C657 H645 0.950 . S
C657 C653 1.393 . S
C657 C656 1.391 . S
C658 H648 0.950 . S
C658 C659 1.386 . S
C658 C660 1.391 . S
C659 C658 1.386 . S
C659 C663 1.393 . S
C660 H649 0.950 . S
C660 C658 1.391 . S
C660 C661 1.400 . S
C661 C655 1.491 . S
C661 C660 1.400 . S
C661 C662 1.398 . S
C662 H650 0.950 . S
C662 C661 1.398 . S
C662 C663 1.391 . S
C663 H651 0.950 . S
C663 C659 1.393 . S
C663 C662 1.391 . S
H664 C672 0.950 . S
H665 C677 0.950 . S
H666 C674 0.950 . S
H667 C676 0.950 . S
H668 C678 0.950 . S
H669 C680 0.950 . S
H670 C682 0.950 . S
H671 C683 0.950 . S
C672 H664 0.950 . S
C672 C673 1.386 . S
C672 C674 1.391 . S
C673 C672 1.386 . S
C673 C677 1.393 . S
C674 H666 0.950 . S
C674 C672 1.391 . S
C674 C675 1.400 . S
C675 C674 1.400 . S
C675 C676 1.398 . S
C675 C681 1.491 . S
C676 H667 0.950 . S
C676 C675 1.398 . S
C676 C677 1.391 . S
C677 H665 0.950 . S
C677 C673 1.393 . S
C677 C676 1.391 . S
C678 H668 0.950 . S
C678 C679 1.386 . S
C678 C680 1.391 . S
C679 C678 1.386 . S
C679 C683 1.393 . S
C680 H669 0.950 . S
C680 C678 1.391 . S
C680 C681 1.400 . S
C681 C675 1.491 . S
C681 C680 1.400 . S
C681 C682 1.398 . S
C682 H670 0.950 . S
C682 C681 1.398 . S
C682 C683 1.391 . S
C683 H671 0.950 . S
C683 C679 1.393 . S
C683 C682 1.391 . S
H684 C692 0.950 . S
H685 C697 0.950 . S
H686 C694 0.950 . S
H687 C696 0.950 . S
H688 C698 0.950 . S
H689 C700 0.950 . S
H690 C702 0.950 . S
H691 C703 0.950 . S
C692 H684 0.950 . S
C692 C693 1.386 . S
C692 C694 1.391 . S
C693 C692 1.386 . S
C693 C697 1.393 . S
C694 H686 0.950 . S
C694 C692 1.391 . S
C694 C695 1.400 . S
C695 C694 1.400 . S
C695 C696 1.398 . S
C695 C701 1.491 . S
C696 H687 0.950 . S
C696 C695 1.398 . S
C696 C697 1.391 . S
C697 H685 0.950 . S
C697 C693 1.393 . S
C697 C696 1.391 . S
C698 H688 0.950 . S
C698 C699 1.386 . S
C698 C700 1.391 . S
C699 C698 1.386 . S
C699 C703 1.393 . S
C700 H689 0.950 . S
C700 C698 1.391 . S
C700 C701 1.400 . S
C701 C695 1.491 . S
C701 C700 1.400 . S
C701 C702 1.398 . S
C702 H690 0.950 . S
C702 C701 1.398 . S
C702 C703 1.391 . S
C703 H691 0.950 . S
C703 C699 1.393 . S
C703 C702 1.391 . S
H704 C712 0.950 . S
H705 C717 0.950 . S
H706 C714 0.950 . S
H707 C716 0.950 . S
H708 C718 0.950 . S
H709 C720 0.950 . S
H710 C722 0.950 . S
H711 C723 0.950 . S
C712 H704 0.950 . S
C712 C713 1.386 . S
C712 C714 1.391 . S
C713 C712 1.386 . S
C713 C717 1.393 . S
C714 H706 0.950 . S
C714 C712 1.391 . S
C714 C715 1.400 . S
C715 C714 1.400 . S
C715 C716 1.398 . S
C715 C721 1.491 . S
C716 H707 0.950 . S
C716 C715 1.398 . S
C716 C717 1.391 . S
C717 H705 0.950 . S
C717 C713 1.393 . S
C717 C716 1.391 . S
C718 H708 0.950 . S
C718 C719 1.386 . S
C718 C720 1.391 . S
C719 C718 1.386 . S
C719 C723 1.393 . S
C720 H709 0.950 . S
C720 C718 1.391 . S
C720 C721 1.400 . S
C721 C715 1.491 . S
C721 C720 1.400 . S
C721 C722 1.398 . S
C722 H710 0.950 . S
C722 C721 1.398 . S
C722 C723 1.391 . S
C723 H711 0.950 . S
C723 C719 1.393 . S
C723 C722 1.391 . S
H724 C732 0.950 . S
H725 C737 0.950 . S
H726 C734 0.950 . S
H727 C736 0.950 . S
H728 C738 0.950 . S
H729 C740 0.950 . S
H730 C742 0.950 . S
H731 C743 0.950 . S
C732 H724 0.950 . S
C732 C733 1.386 . S
C732 C734 1.391 . S
C733 C732 1.386 . S
C733 C737 1.393 . S
C734 H726 0.950 . S
C734 C732 1.391 . S
C734 C735 1.400 . S
C735 C734 1.400 . S
C735 C736 1.398 . S
C735 C741 1.491 . S
C736 H727 0.950 . S
C736 C735 1.398 . S
C736 C737 1.391 . S
C737 H725 0.950 . S
C737 C733 1.393 . S
C737 C736 1.391 . S
C738 H728 0.950 . S
C738 C739 1.386 . S
C738 C740 1.391 . S
C739 C738 1.386 . S
C739 C743 1.393 . S
C740 H729 0.950 . S
C740 C738 1.391 . S
C740 C741 1.400 . S
C741 C735 1.491 . S
C741 C740 1.400 . S
C741 C742 1.398 . S
C742 H730 0.950 . S
C742 C741 1.398 . S
C742 C743 1.391 . S
C743 H731 0.950 . S
C743 C739 1.393 . S
C743 C742 1.391 . S
H744 C752 0.950 . S
H745 C757 0.950 . S
H746 C754 0.950 . S
H747 C756 0.950 . S
H748 C758 0.950 . S
H749 C760 0.950 . S
H750 C762 0.950 . S
H751 C763 0.950 . S
C752 H744 0.950 . S
C752 C753 1.386 . S
C752 C754 1.391 . S
C753 C752 1.386 . S
C753 C757 1.393 . S
C754 H746 0.950 . S
C754 C752 1.391 . S
C754 C755 1.400 . S
C755 C754 1.400 . S
C755 C756 1.398 . S
C755 C761 1.491 . S
C756 H747 0.950 . S
C756 C755 1.398 . S
C756 C757 1.391 . S
C757 H745 0.950 . S
C757 C753 1.393 . S
C757 C756 1.391 . S
C758 H748 0.950 . S
C758 C759 1.386 . S
C758 C760 1.391 . S
C759 C758 1.386 . S
C759 C763 1.393 . S
C760 H749 0.950 . S
C760 C758 1.391 . S
C760 C761 1.400 . S
C761 C755 1.491 . S
C761 C760 1.400 . S
C761 C762 1.398 . S
C762 H750 0.950 . S
C762 C761 1.398 . S
C762 C763 1.391 . S
C763 H751 0.950 . S
C763 C759 1.393 . S
C763 C762 1.391 . S
H764 C772 0.950 . S
H765 C777 0.950 . S
H766 C774 0.950 . S
H767 C776 0.950 . S
H768 C778 0.950 . S
H769 C780 0.950 . S
H770 C782 0.950 . S
H771 C783 0.950 . S
C772 H764 0.950 . S
C772 C773 1.386 . S
C772 C774 1.391 . S
C773 C772 1.386 . S
C773 C777 1.393 . S
C774 H766 0.950 . S
C774 C772 1.391 . S
C774 C775 1.400 . S
C775 C774 1.400 . S
C775 C776 1.398 . S
C775 C781 1.491 . S
C776 H767 0.950 . S
C776 C775 1.398 . S
C776 C777 1.391 . S
C777 H765 0.950 . S
C777 C773 1.393 . S
C777 C776 1.391 . S
C778 H768 0.950 . S
C778 C779 1.386 . S
C778 C780 1.391 . S
C779 C778 1.386 . S
C779 C783 1.393 . S
C780 H769 0.950 . S
C780 C778 1.391 . S
C780 C781 1.400 . S
C781 C775 1.491 . S
C781 C780 1.400 . S
C781 C782 1.398 . S
C782 H770 0.950 . S
C782 C781 1.398 . S
C782 C783 1.391 . S
C783 H771 0.950 . S
C783 C779 1.393 . S
C783 C782 1.391 . S
H784 C792 0.950 . S
H785 C797 0.950 . S
H786 C794 0.950 . S
H787 C796 0.950 . S
H788 C798 0.950 . S
H789 C800 0.950 . S
H790 C802 0.950 . S
H791 C803 0.950 . S
C792 H784 0.950 . S
C792 C793 1.386 . S
C792 C794 1.391 . S
C793 C792 1.386 . S
C793 C797 1.393 . S
C794 H786 0.950 . S
C794 C792 1.391 . S
C794 C795 1.400 . S
C795 C794 1.400 . S
C795 C796 1.398 . S
C795 C801 1.491 . S
C796 H787 0.950 . S
C796 C795 1.398 . S
C796 C797 1.391 . S
C797 H785 0.950 . S
C797 C793 1.393 . S
C797 C796 1.391 . S
C798 H788 0.950 . S
C798 C799 1.386 . S
C798 C800 1.391 . S
C799 C798 1.386 . S
C799 C803 1.393 . S
C800 H789 0.950 . S
C800 C798 1.391 . S
C800 C801 1.400 . S
C801 C795 1.491 . S
C801 C800 1.400 . S
C801 C802 1.398 . S
C802 H790 0.950 . S
C802 C801 1.398 . S
C802 C803 1.391 . S
C803 H791 0.950 . S
C803 C799 1.393 . S
C803 C802 1.391 . S
H804 C812 0.950 . S
H805 C817 0.950 . S
H806 C814 0.950 . S
H807 C816 0.950 1_554 S
H808 C818 0.950 . S
H809 C820 0.950 . S
H810 C822 0.950 . S
H811 C823 0.950 . S
C812 H804 0.950 . S
C812 C813 1.386 . S
C812 C814 1.391 . S
C813 C812 1.386 . S
C813 C817 1.393 1_556 S
C814 H806 0.950 . S
C814 C812 1.391 . S
C814 C815 1.400 . S
C815 C814 1.400 . S
C815 C816 1.398 . S
C815 C821 1.491 . S
C816 H807 0.950 1_556 S
C816 C815 1.398 . S
C816 C817 1.391 1_556 S
C817 H805 0.950 . S
C817 C813 1.393 1_554 S
C817 C816 1.391 1_554 S
C818 H808 0.950 . S
C818 C819 1.386 . S
C818 C820 1.391 . S
C819 C818 1.386 . S
C819 C823 1.393 . S
C820 H809 0.950 . S
C820 C818 1.391 . S
C820 C821 1.400 . S
C821 C815 1.491 . S
C821 C820 1.400 . S
C821 C822 1.398 . S
C822 H810 0.950 . S
C822 C821 1.398 . S
C822 C823 1.391 . S
C823 H811 0.950 . S
C823 C819 1.393 . S
C823 C822 1.391 . S
C353 C8 1.514 . S
C359 C105 1.523 . S
C373 C31 1.357 . S
C379 C137 1.328 . S
C393 C53 1.633 . S
C399 C169 1.520 . S
C419 C213 1.422 . S
C413 C74 1.392 . S
C439 C233 1.467 . S
C433 C26 1.453 . S
C453 C48 1.389 . S
C459 C277 1.438 . S
C473 C71 1.614 . S
C479 C297 1.487 . S
C493 C5 1.375 . S
C499 C341 1.244 . S
C513 C50 1.504 . S
C519 C329 1.366 . S
C539 C245 1.385 . S
C533 C70 1.417 . S
C559 C265 1.623 . S
C553 C4 1.630 . S
C573 C28 1.388 . S
C579 C309 1.341 . S
C599 C149 1.528 . S
C593 C73 1.519 . S
C613 C7 1.381 . S
C619 C181 1.317 . S
C639 C201 1.587 . S
C633 C30 1.622 . S
C659 C117 1.380 . S
C653 C52 1.378 . S
C679 C303 1.360 . S
C673 C9 1.482 . S
C699 C335 1.281 . S
C693 C29 1.356 . S
C713 C51 1.345 . S
C719 C239 1.367 . S
C739 C271 1.512 . S
C733 C75 1.515 . S
C759 C175 1.352 . S
C753 C27 1.504 . S
C773 C49 1.489 . S
C779 C207 1.482 . S
C799 C111 1.388 . S
C793 C72 1.376 . S
C819 C143 1.363 . S
C813 C6 1.345 1_556 S
