# Generated by pormake.
# Topology tsx, (6,3)-cn, num edge types: 1
# Building blocks:
#     Node 0, Type 0, BuildingBlock: VOLQOD_clean_sbu_1, # of connection points: 6
#     Node 1, Type 0, BuildingBlock: VOLQOD_clean_sbu_1, # of connection points: 6
#     Node 2, Type 1, BuildingBlock: KAKCAD_clean_linker_0, # of connection points: 3
#     Node 3, Type 1, BuildingBlock: KAKCAD_clean_linker_0, # of connection points: 3
#     Node 4, Type 1, BuildingBlock: KAKCAD_clean_linker_0, # of connection points: 3
#     Node 5, Type 1, BuildingBlock: KAKCAD_clean_linker_0, # of connection points: 3
#     Edge 6, Type (0, 1), BuildingBlock: ZUJKAS_clean_linker_0, # of connection points: 2
#     Edge 7, Type (0, 1), BuildingBlock: ZUJKAS_clean_linker_0, # of connection points: 2
#     Edge 8, Type (0, 1), BuildingBlock: ZUJKAS_clean_linker_0, # of connection points: 2
#     Edge 9, Type (0, 1), BuildingBlock: ZUJKAS_clean_linker_0, # of connection points: 2
#     Edge 10, Type (0, 1), BuildingBlock: ZUJKAS_clean_linker_0, # of connection points: 2
#     Edge 11, Type (0, 1), BuildingBlock: ZUJKAS_clean_linker_0, # of connection points: 2
#     Edge 12, Type (0, 1), BuildingBlock: ZUJKAS_clean_linker_0, # of connection points: 2
#     Edge 13, Type (0, 1), BuildingBlock: ZUJKAS_clean_linker_0, # of connection points: 2
#     Edge 14, Type (0, 1), BuildingBlock: ZUJKAS_clean_linker_0, # of connection points: 2
#     Edge 15, Type (0, 1), BuildingBlock: ZUJKAS_clean_linker_0, # of connection points: 2
#     Edge 16, Type (0, 1), BuildingBlock: ZUJKAS_clean_linker_0, # of connection points: 2
#     Edge 17, Type (0, 1), BuildingBlock: ZUJKAS_clean_linker_0, # of connection points: 2
# Relax obj value: 0.075
# Max RMSD: 0.108
# Mean RMSD: 0.083
data_MOF--net-tsx--node1-VOLQOD_clean_sbu_1--node2-KAKCAD_clean_linker_0--edge1-ZUJKAS_clean_linker_0
_symmetry_space_group_name_H-M    P1
_symmetry_Int_Tables_number       1
_symmetry_cell_setting            triclinic
loop_
_symmetry_equiv_pos_as_xyz
'x, y, z'
_cell_length_a     31.048111
_cell_length_b     32.058839
_cell_length_c     61.204426
_cell_angle_alpha  90.610312
_cell_angle_beta   90.010767
_cell_angle_gamma 90.109645
loop_
_atom_site_label
_atom_site_type_symbol
_atom_site_fract_x
_atom_site_fract_y
_atom_site_fract_z
_atom_type_partial_charge
O0 O 0.02974 0.99295 0.06153 0.0
Zn1 Zn 0.04914 0.99433 0.03023 0.0
O2 O 0.00047 0.0018 0.01044 0.0
Zn3 Zn -0.00476 0.95288 0.99135 0.0
Zn4 Zn 0.94765 0.0085 0.02751 0.0
Zn5 Zn 0.00994 0.0513 0.99267 0.0
O6 O -0.00255 0.96878 0.95966 0.0
O7 O 0.01215 0.03654 0.96065 0.0
O8 O 0.08156 0.94137 0.02349 0.0
O9 O 0.04383 0.91297 0.99636 0.0
O10 O 0.93998 0.92196 0.99674 0.0
O11 O 0.90613 0.96176 0.02113 0.0
O12 O 0.91775 0.06236 0.02057 0.0
O13 O 0.091 0.04175 0.02764 0.0
O14 O 0.96126 0.09201 0.99649 0.0
O15 O 0.06514 0.08064 0.00088 0.0
C16 C -0.0063 -0.00055 0.07087 0.0
C17 C 0.00549 0.00285 0.94996 0.0
C18 C 0.90752 0.92949 0.00884 0.0
C19 C 0.07555 0.91222 0.00952 0.0
C20 C 0.92698 0.09235 0.00791 0.0
C21 C 0.09369 0.07332 0.01527 0.0
O22 O 0.95986 0.007 0.05984 0.0
O23 O 0.53186 0.49624 0.55921 0.0
Zn24 Zn 0.5487 0.498 0.52747 0.0
O25 O 0.49824 0.50435 0.50871 0.0
Zn26 Zn 0.49322 0.45639 0.48902 0.0
Zn27 Zn 0.44659 0.50817 0.52685 0.0
Zn28 Zn 0.5044 0.55474 0.49135 0.0
O29 O 0.4939 0.47348 0.4575 0.0
O30 O 0.50892 0.54117 0.45919 0.0
O31 O 0.5814 0.44565 0.5201 0.0
O32 O 0.54282 0.41747 0.4932 0.0
O33 O 0.4394 0.42359 0.49465 0.0
O34 O 0.40703 0.45955 0.52109 0.0
O35 O 0.41334 0.56031 0.52049 0.0
O36 O 0.58924 0.5464 0.52409 0.0
O37 O 0.45289 0.59182 0.49533 0.0
O38 O 0.55704 0.58739 0.5001 0.0
C39 C 0.4963 0.50131 0.56926 0.0
C40 C 0.50229 0.50785 0.44817 0.0
C41 C 0.40825 0.42857 0.50792 0.0
C42 C 0.5751 0.41679 0.50601 0.0
C43 C 0.41958 0.59036 0.50743 0.0
C44 C 0.58813 0.57975 0.513 0.0
O45 O 0.46133 0.50733 0.55889 0.0
C46 C 0.98476 0.95275 0.31689 0.0
C47 C 0.98526 0.99059 0.3055 0.0
C48 C 0.98526 0.95262 0.33972 0.0
C49 C 0.98615 0.99033 0.35163 0.0
C50 C 0.98675 0.02815 0.34023 0.0
C51 C 0.98631 0.02828 0.31743 0.0
C52 C 0.98628 0.99032 0.37588 0.0
C53 C 0.01216 0.96212 0.38736 0.0
C54 C 0.01276 0.96239 0.41032 0.0
C55 C 0.98698 0.99109 0.42178 0.0
C56 C 0.96102 0.01949 0.41058 0.0
C57 C 0.96076 0.01886 0.38764 0.0
C58 C 0.93445 0.05006 0.42284 0.0
C59 C 0.91065 0.03775 0.44122 0.0
C60 C 0.93281 0.09184 0.41624 0.0
C61 C 0.90758 0.12066 0.42765 0.0
C62 C 0.88342 0.1083 0.44589 0.0
C63 C 0.04084 0.93325 0.42238 0.0
C64 C 0.04407 0.89128 0.41579 0.0
C65 C 0.06472 0.94729 0.44054 0.0
C66 C 0.09149 0.91999 0.4518 0.0
C67 C 0.09497 0.87808 0.44511 0.0
C68 C 0.07085 0.86397 0.42704 0.0
C69 C 0.88531 0.06659 0.45262 0.0
H70 H 0.98439 0.92318 0.30816 0.0
H71 H 0.98442 0.92298 0.34804 0.0
H72 H 0.98791 0.05772 0.34894 0.0
H73 H 0.98628 0.05796 0.30914 0.0
H74 H 0.03285 0.94076 0.37842 0.0
H75 H 0.93995 0.0401 0.37893 0.0
H76 H 0.9873 0.99149 0.43949 0.0
H77 H 0.91107 0.00566 0.44658 0.0
H78 H 0.95119 0.1023 0.40228 0.0
H79 H 0.9063 0.15247 0.42189 0.0
H80 H 0.02574 0.87949 0.40198 0.0
H81 H 0.06323 0.97958 0.44588 0.0
H82 H 0.86722 0.05624 0.46669 0.0
H83 H 0.07328 0.83197 0.42132 0.0
H84 H 0.10944 0.93169 0.46575 0.0
C85 C 0.01921 0.03626 0.70311 0.0
C86 C 0.01958 -0.00069 0.71525 0.0
C87 C 0.01939 0.03472 0.6803 0.0
C88 C 0.01988 -0.00382 0.66913 0.0
C89 C 0.02041 0.95922 0.68127 0.0
C90 C 0.02031 0.96077 0.70409 0.0
C91 C 0.0194 0.9946 0.6449 0.0
C92 C 0.04499 0.02215 0.63282 0.0
C93 C 0.04387 0.0217 0.60987 0.0
C94 C 0.01729 0.99267 0.59902 0.0
C95 C 0.9916 0.96471 0.61082 0.0
C96 C 0.99277 0.96603 0.63377 0.0
C97 C 0.96288 0.93469 0.59922 0.0
C98 C 0.94022 0.94665 0.58041 0.0
C99 C 0.95749 0.89396 0.60704 0.0
C100 C 0.92952 0.86612 0.59656 0.0
C101 C 0.90657 0.87817 0.57786 0.0
C102 C 0.06981 0.05209 0.59727 0.0
C103 C 0.07374 0.09359 0.60462 0.0
C104 C 0.09049 0.04006 0.57776 0.0
C105 C 0.1146 0.06889 0.56592 0.0
C106 C 0.11883 0.11031 0.5734 0.0
C107 C 0.09812 0.12227 0.59291 0.0
C108 C 0.91257 0.91866 0.56979 0.0
H109 H 0.01907 0.06644 0.71123 0.0
H110 H 0.01855 0.06373 0.6714 0.0
H111 H 0.02117 0.92907 0.67313 0.0
H112 H 0.02019 0.93175 0.71299 0.0
H113 H 0.06634 0.0436 0.64134 0.0
H114 H 0.97192 0.94565 0.64304 0.0
H115 H 0.01633 0.99208 0.58133 0.0
H116 H 0.94319 0.97793 0.57407 0.0
H117 H 0.97488 0.88351 0.62131 0.0
H118 H 0.92527 0.8354 0.60343 0.0
H119 H 0.05773 0.10408 0.6194 0.0
H120 H 0.08849 0.00823 0.57174 0.0
H121 H 0.89586 0.92884 0.55527 0.0
H122 H 0.10123 0.1537 0.59937 0.0
H123 H 0.12979 0.0587 0.55087 0.0
C124 C 0.4951 0.45508 0.81562 0.0
C125 C 0.49507 0.49287 0.80417 0.0
C126 C 0.49478 0.45506 0.83845 0.0
C127 C 0.49433 0.49281 0.85033 0.0
C128 C 0.49447 0.53059 0.83888 0.0
C129 C 0.49484 0.53062 0.81607 0.0
C130 C 0.49347 0.49286 0.8746 0.0
C131 C 0.51941 0.46518 0.88637 0.0
C132 C 0.51889 0.46522 0.90934 0.0
C133 C 0.49194 0.49336 0.92052 0.0
C134 C 0.466 0.5214 0.90901 0.0
C135 C 0.46685 0.52085 0.88607 0.0
C136 C 0.43814 0.55154 0.92086 0.0
C137 C 0.41298 0.53881 0.93868 0.0
C138 C 0.43621 0.59328 0.9142 0.0
C139 C 0.40915 0.62155 0.92487 0.0
C140 C 0.38326 0.6087 0.94241 0.0
C141 C 0.54724 0.43648 0.92158 0.0
C142 C 0.55255 0.39497 0.9145 0.0
C143 C 0.56999 0.45059 0.94011 0.0
C144 C 0.59804 0.42398 0.95107 0.0
C145 C 0.60398 0.38269 0.94373 0.0
C146 C 0.58063 0.36841 0.92543 0.0
C147 C 0.38575 0.56711 0.94934 0.0
H148 H 0.49571 0.42548 0.80693 0.0
H149 H 0.49432 0.42543 0.8468 0.0
H150 H 0.4946 0.56021 0.84756 0.0
H151 H 0.49436 0.56026 0.80775 0.0
H152 H 0.54101 0.44439 0.87762 0.0
H153 H 0.44603 0.54171 0.87712 0.0
H154 H 0.49133 0.49365 0.93823 0.0
H155 H 0.41354 0.50672 0.94404 0.0
H156 H 0.45584 0.60415 0.90077 0.0
H157 H 0.40861 0.65357 0.91941 0.0
H158 H 0.5351 0.38303 0.90044 0.0
H159 H 0.56689 0.48251 0.94586 0.0
H160 H 0.36586 0.55614 0.96264 0.0
H161 H 0.58483 0.33694 0.91919 0.0
H162 H 0.61524 0.43581 0.96524 0.0
C163 C 0.50423 0.54005 0.20138 0.0
C164 C 0.5179 0.50542 0.21338 0.0
C165 C 0.5037 0.53843 0.17857 0.0
C166 C 0.51607 0.50189 0.1674 0.0
C167 C 0.52957 0.46718 0.17939 0.0
C168 C 0.53088 0.46907 0.20221 0.0
C169 C 0.51423 0.49998 0.14327 0.0
C170 C 0.53407 0.53109 0.13084 0.0
C171 C 0.53136 0.53039 0.1079 0.0
C172 C 0.50774 0.49836 0.09757 0.0
C173 C 0.48815 0.46681 0.10982 0.0
C174 C 0.49188 0.46757 0.13267 0.0
C175 C 0.46307 0.43349 0.09873 0.0
C176 C 0.4324 0.44358 0.0828 0.0
C177 C 0.4693 0.39151 0.10417 0.0
C178 C 0.44507 0.36017 0.09394 0.0
C179 C 0.41376 0.37024 0.07824 0.0
C180 C 0.55403 0.56242 0.09476 0.0
C181 C 0.55664 0.60401 0.10216 0.0
C182 C 0.57443 0.55136 0.07502 0.0
C183 C 0.59759 0.58092 0.06323 0.0
C184 C 0.60146 0.62217 0.07102 0.0
C185 C 0.58028 0.63344 0.09051 0.0
C186 C 0.40786 0.41233 0.07273 0.0
H187 H 0.49427 0.56847 0.20966 0.0
H188 H 0.49293 0.5655 0.16965 0.0
H189 H 0.53938 0.43873 0.17109 0.0
H190 H 0.54134 0.44192 0.21115 0.0
H191 H 0.55254 0.55523 0.13912 0.0
H192 H 0.47608 0.44376 0.14225 0.0
H193 H 0.50465 0.49778 0.07993 0.0
H194 H 0.42664 0.47579 0.0785 0.0
H195 H 0.49316 0.38291 0.11622 0.0
H196 H 0.45098 0.32805 0.09832 0.0
H197 H 0.54074 0.61385 0.11708 0.0
H198 H 0.57352 0.51955 0.0689 0.0
H199 H 0.38351 0.42133 0.06103 0.0
H200 H 0.58292 0.66475 0.09719 0.0
H201 H 0.61288 0.57124 0.04811 0.0
H202 H 0.15213 0.07557 0.04858 0.0
H203 H 0.21027 0.12571 0.05436 0.0
H204 H 0.17732 0.18653 0.99411 0.0
H205 H 0.11811 0.13709 0.98845 0.0
H206 H 0.28127 0.14427 0.03017 0.0
H207 H 0.17423 0.28265 0.03747 0.0
H208 H 0.15373 0.22998 0.03756 0.0
H209 H 0.16909 0.25389 0.01228 0.0
C210 C 0.15719 0.09955 0.03651 0.0
C211 C 0.13019 0.10257 0.01815 0.0
C212 C 0.19052 0.12815 0.03984 0.0
C213 C 0.19765 0.16023 0.02485 0.0
C214 C 0.1717 0.16259 0.00613 0.0
H215 H 0.38503 0.36431 0.03586 0.0
H216 H 0.33526 0.3125 0.02041 0.0
C217 C 0.13802 0.1342 0.00288 0.0
C218 C 0.2319 0.19138 0.02922 0.0
H219 H 0.24892 0.29476 0.04019 0.0
C220 C 0.27425 0.17721 0.03223 0.0
C221 C 0.2226 0.23436 0.0319 0.0
C222 C 0.17743 0.25121 0.02984 0.0
C223 C 0.3074 0.20477 0.03825 0.0
C224 C 0.29784 0.24744 0.04137 0.0
C225 C 0.25595 0.26193 0.03767 0.0
C226 C 0.33004 0.27706 0.05014 0.0
C227 C 0.35231 0.18813 0.04154 0.0
C228 C 0.34325 0.27415 0.07196 0.0
C229 C 0.37102 0.30397 0.08095 0.0
C230 C 0.38622 0.33722 0.06824 0.0
C231 C 0.37347 0.33948 0.0462 0.0
C232 C 0.34534 0.30979 0.03728 0.0
H233 H 0.35642 0.15675 0.03395 0.0
H234 H 0.37659 0.20969 0.03455 0.0
H235 H 0.35881 0.18558 0.05931 0.0
H236 H 0.33109 0.24942 0.0822 0.0
H237 H 0.37945 0.30164 0.09806 0.0
H238 H 0.15054 0.90223 0.03261 0.0
H239 H 0.20519 0.84812 0.02722 0.0
H240 H 0.12694 0.79068 0.97703 0.0
H241 H 0.07202 0.84411 0.98237 0.0
H242 H 0.16621 0.73338 0.00662 0.0
H243 H 0.28204 0.84775 0.97181 0.0
H244 H 0.26097 0.85971 -0.00149 0.0
H245 H 0.22561 0.85943 0.9753 0.0
C246 C 0.14474 0.87787 0.02057 0.0
C247 C 0.10708 0.87777 0.00775 0.0
C248 C 0.17606 0.84708 0.01749 0.0
C249 C 0.17024 0.81584 0.00154 0.0
C250 C 0.132 0.81465 0.98939 0.0
H251 H 0.33212 0.66599 0.92249 0.0
H252 H 0.28262 0.71549 0.93962 0.0
C253 C 0.10072 0.84533 0.99243 0.0
C254 C 0.20475 0.78558 0.99648 0.0
H255 H 0.3035 0.77759 0.97237 0.0
C256 C 0.19651 0.74295 -0.0006 0.0
C257 C 0.24397 0.79838 0.98688 0.0
C258 C 0.25381 0.84375 0.98274 0.0
C259 C 0.22614 0.71258 0.99244 0.0
C260 C 0.26497 0.7254 0.98248 0.0
C261 C 0.27371 0.76804 0.98012 0.0
C262 C 0.2952 0.69513 0.97258 0.0
C263 C 0.21494 0.66705 0.99485 0.0
C264 C 0.31877 0.66748 0.98553 0.0
C265 C 0.3474 0.63924 0.97578 0.0
C266 C 0.35294 0.63842 0.95296 0.0
C267 C 0.32916 0.66627 0.94012 0.0
C268 C 0.30069 0.69442 0.94986 0.0
H269 H 0.1809 0.6624 -0.00013 0.0
H270 H 0.22054 0.64995 0.97923 0.0
H271 H 0.23604 0.65309 0.00743 0.0
H272 H 0.31532 0.66801 0.00314 0.0
H273 H 0.36564 0.61852 0.98612 0.0
H274 H 0.90649 0.84975 0.99252 0.0
H275 H 0.85058 0.79688 0.99768 0.0
H276 H 0.77236 0.88669 0.03229 0.0
H277 H 0.82812 0.9398 0.02744 0.0
H278 H 0.82001 0.77954 0.04459 0.0
H279 H 0.69134 0.82191 0.98548 0.0
H280 H 0.74744 0.83444 0.98095 0.0
H281 H 0.71696 0.86339 0.0008 0.0
C282 C 0.87711 0.85852 0.00091 0.0
C283 C 0.87186 0.89892 0.00971 0.0
C284 C 0.84525 0.82828 0.00381 0.0
C285 C 0.80743 0.83815 0.0152 0.0
C286 C 0.80124 0.87877 0.02323 0.0
H287 H 0.58801 0.70615 0.06568 0.0
H288 H 0.63819 0.75721 0.0507 0.0
C289 C 0.83323 0.90895 0.02055 0.0
C290 C 0.77659 0.80498 0.02084 0.0
H291 H 0.67507 0.7688 0.01078 0.0
C292 C 0.78843 0.77682 0.0371 0.0
C293 C 0.73543 0.80221 0.01116 0.0
C294 C 0.7218 0.83188 0.99353 0.0
C295 C 0.75966 0.74628 0.04438 0.0
C296 C 0.71845 0.74308 0.03458 0.0
C297 C 0.70677 0.77116 0.01815 0.0
C298 C 0.68664 0.71167 0.0418 0.0
C299 C 0.77319 0.71888 0.06309 0.0
C300 C 0.69671 0.66906 0.04115 0.0
C301 C 0.6686 0.63991 0.05016 0.0
C302 C 0.62939 0.65273 0.0596 0.0
C303 C 0.61834 0.69527 0.05903 0.0
C304 C 0.64677 0.72447 0.05027 0.0
H305 H 0.80023 0.73289 0.07255 0.0
H306 H 0.74593 0.71323 0.07443 0.0
H307 H 0.78424 0.68835 0.05651 0.0
H308 H 0.72689 0.65843 0.03421 0.0
H309 H 0.67844 0.60754 0.0504 0.0
H310 H 0.93438 0.16015 0.98142 0.0
H311 H 0.88024 0.21352 0.97449 0.0
H312 H 0.79506 0.15627 0.02108 0.0
H313 H 0.8491 0.1028 0.02831 0.0
H314 H 0.79757 0.19429 0.9583 0.0
H315 H 0.78948 0.28195 0.03702 0.0
H316 H 0.83462 0.2492 0.02965 0.0
H317 H 0.78539 0.2262 0.03918 0.0
C318 C 0.90443 0.15917 0.99047 0.0
C319 C 0.89603 0.12704 0.00536 0.0
C320 C 0.87355 0.18973 0.98648 0.0
C321 C 0.83387 0.18896 0.9974 0.0
C322 C 0.8258 0.15777 0.01276 0.0
H323 H 0.59553 0.29965 0.95291 0.0
H324 H 0.65069 0.25291 0.9673 0.0
C325 C 0.85666 0.1271 0.01676 0.0
C326 C 0.79963 0.21854 0.99123 0.0
H327 H 0.7356 0.29709 0.01065 0.0
C328 C 0.78409 0.21685 0.96972 0.0
C329 C 0.78234 0.24796 0.00618 0.0
C330 C 0.79897 0.25185 0.02927 0.0
C331 C 0.75134 0.2436 0.96277 0.0
C332 C 0.73342 0.27243 0.97781 0.0
C333 C 0.74925 0.27457 -0.00073 0.0
C334 C 0.69888 0.30122 0.9712 0.0
C335 C 0.73649 0.24121 0.9393 0.0
C336 C 0.70753 0.34393 0.96924 0.0
C337 C 0.67626 0.37065 0.96088 0.0
C338 C 0.63574 0.35507 0.95445 0.0
C339 C 0.62668 0.31246 0.95733 0.0
C340 C 0.65801 0.28578 0.96563 0.0
H341 H 0.7592 0.22318 0.92884 0.0
H342 H 0.70458 0.22561 0.93855 0.0
H343 H 0.73288 0.27296 0.93246 0.0
H344 H 0.73899 0.3563 0.97345 0.0
H345 H 0.68443 0.40319 0.95868 0.0
H346 H 0.58903 0.66077 0.49941 0.0
H347 H 0.64499 0.71326 0.50623 0.0
H348 H 0.72179 0.62175 0.53944 0.0
H349 H 0.66602 0.56906 0.53294 0.0
H350 H 0.67813 0.72934 0.5538 0.0
H351 H 0.80169 0.6853 0.49181 0.0
H352 H 0.74499 0.67453 0.48794 0.0
H353 H 0.77575 0.64409 0.50672 0.0
C354 C 0.61802 0.65165 0.50795 0.0
C355 C 0.62302 0.61079 0.51572 0.0
C356 C 0.64987 0.68166 0.51181 0.0
C357 C 0.6874 0.67108 0.52316 0.0
C358 C 0.69307 0.6302 0.53046 0.0
H359 H 0.9146 0.79368 0.57168 0.0
H360 H 0.86054 0.74521 0.55733 0.0
C361 C 0.6611 0.60027 0.52682 0.0
C362 C 0.71929 0.70344 0.5289 0.0
H363 H 0.82112 0.73706 0.51784 0.0
C364 C 0.70929 0.73143 0.54586 0.0
C365 C 0.75983 0.70543 0.51857 0.0
C366 C 0.77144 0.67595 0.50015 0.0
C367 C 0.73944 0.76094 0.55324 0.0
C368 C 0.78014 0.76318 0.54287 0.0
C369 C 0.78985 0.73539 0.52567 0.0
C370 C 0.81362 0.79304 0.55026 0.0
C371 C 0.72798 0.78823 0.57264 0.0
C372 C 0.80552 0.83606 0.55055 0.0
C373 C 0.83596 0.86378 0.55917 0.0
C374 C 0.87543 0.84903 0.56731 0.0
C375 C 0.88418 0.80602 0.56602 0.0
C376 C 0.85351 0.7783 0.55762 0.0
H377 H 0.70088 0.77497 0.58219 0.0
H378 H 0.75602 0.7925 0.58371 0.0
H379 H 0.71789 0.81936 0.56679 0.0
H380 H 0.77531 0.84816 0.54447 0.0
H381 H 0.82796 0.89661 0.56002 0.0
H382 H 0.57149 0.34993 0.47808 0.0
H383 H 0.62574 0.29595 0.4726 0.0
H384 H 0.70455 0.35186 0.52303 0.0
H385 H 0.65024 0.4061 0.52884 0.0
H386 H 0.71196 0.31413 0.46029 0.0
H387 H 0.70254 0.22522 0.53776 0.0
H388 H 0.65962 0.25877 0.52859 0.0
H389 H 0.70743 0.28098 0.54043 0.0
C390 C 0.60009 0.35062 0.48821 0.0
C391 C 0.6066 0.38248 0.50384 0.0
C392 C 0.63101 0.31969 0.48505 0.0
C393 C 0.66886 0.31986 0.49752 0.0
C394 C 0.67517 0.35094 0.51349 0.0
H395 H 0.90147 0.18921 0.45716 0.0
H396 H 0.85154 0.24128 0.47202 0.0
C397 C 0.64421 0.38199 0.51668 0.0
C398 C 0.70297 0.28927 0.49251 0.0
H399 H 0.75721 0.2056 0.51272 0.0
C400 C 0.722 0.29047 0.47176 0.0
C401 C 0.71564 0.25847 0.50753 0.0
C402 C 0.69513 0.25535 0.5298 0.0
C403 C 0.75332 0.26138 0.46551 0.0
C404 C 0.76627 0.23072 0.48056 0.0
C405 C 0.74736 0.22951 0.50136 0.0
C406 C 0.79788 0.19844 0.47437 0.0
C407 C 0.77147 0.26296 0.44264 0.0
C408 C 0.78443 0.15698 0.47154 0.0
C409 C 0.81275 0.12726 0.46299 0.0
C410 C 0.85496 0.13861 0.4572 0.0
C411 C 0.86889 0.17978 0.46109 0.0
C412 C 0.84055 0.20946 0.46965 0.0
H413 H 0.75205 0.28319 0.43181 0.0
H414 H 0.80473 0.27565 0.44329 0.0
H415 H 0.77298 0.23119 0.43527 0.0
H416 H 0.75151 0.14805 0.47507 0.0
H417 H 0.801 0.09587 0.46002 0.0
H418 H 0.40811 0.35112 0.48874 0.0
H419 H 0.35559 0.29514 0.49411 0.0
H420 H 0.2793 0.37664 0.53494 0.0
H421 H 0.3317 0.43283 0.52991 0.0
H422 H 0.33008 0.27478 0.54438 0.0
H423 H 0.1986 0.30929 0.48532 0.0
H424 H 0.25421 0.32239 0.4798 0.0
H425 H 0.22452 0.3519 0.4997 0.0
C426 C 0.37983 0.35743 0.49858 0.0
C427 C 0.37423 0.39635 0.50904 0.0
C428 C 0.34991 0.32542 0.50158 0.0
C429 C 0.31372 0.33209 0.51479 0.0
C430 C 0.30701 0.37126 0.52454 0.0
H431 H 0.10282 0.19325 0.56684 0.0
H432 H 0.15092 0.24475 0.55071 0.0
C433 C 0.33706 0.40318 0.52172 0.0
C434 C 0.28533 0.29699 0.52038 0.0
H435 H 0.18641 0.25472 0.51027 0.0
C436 C 0.29882 0.26996 0.53682 0.0
C437 C 0.24463 0.2915 0.51055 0.0
C438 C 0.22935 0.3201 0.49278 0.0
C439 C 0.27196 0.23794 0.54423 0.0
C440 C 0.23105 0.23222 0.53439 0.0
C441 C 0.21789 0.25901 0.51765 0.0
C442 C 0.20059 0.20017 0.54224 0.0
C443 C 0.28694 0.21182 0.56315 0.0
C444 C 0.21207 0.15787 0.54225 0.0
C445 C 0.18507 0.12846 0.5519 0.0
C446 C 0.14576 0.14077 0.56139 0.0
C447 C 0.13333 0.18286 0.56019 0.0
C448 C 0.16056 0.21229 0.55075 0.0
H449 H 0.31373 0.22705 0.57228 0.0
H450 H 0.26017 0.2058 0.57473 0.0
H451 H 0.29882 0.18137 0.55685 0.0
H452 H 0.24243 0.14776 0.53531 0.0
H453 H 0.19577 0.09637 0.55259 0.0
H454 H 0.34444 0.59842 0.53059 0.0
H455 H 0.28629 0.64833 0.52428 0.0
H456 H 0.36073 0.70553 0.47322 0.0
H457 H 0.41903 0.65598 0.47929 0.0
H458 H 0.2883 0.74236 0.52291 0.0
H459 H 0.24392 0.66271 0.44492 0.0
H460 H 0.27577 0.63786 0.46576 0.0
H461 H 0.30003 0.67549 0.44803 0.0
C462 C 0.34868 0.62187 0.51816 0.0
C463 C 0.38622 0.62292 0.50528 0.0
C464 C 0.31547 0.65036 0.51464 0.0
C465 C 0.31924 0.68009 0.49815 0.0
C466 C 0.35725 0.68241 0.48589 0.0
H467 H 0.17679 0.89458 0.45918 0.0
H468 H 0.22797 0.84589 0.4752 0.0
C469 C 0.3905 0.65409 0.48942 0.0
C470 C 0.28263 0.70734 0.49284 0.0
H471 H 0.21031 0.72756 0.45245 0.0
C472 C 0.27095 0.73908 0.50761 0.0
C473 C 0.25983 0.70234 0.47301 0.0
C474 C 0.27015 0.66757 0.45705 0.0
C475 C 0.23776 0.76709 0.50263 0.0
C476 C 0.21625 0.76319 0.48234 0.0
C477 C 0.22703 0.73051 0.46796 0.0
C478 C 0.18375 0.79363 0.47511 0.0
C479 C 0.22602 0.80059 0.51905 0.0
C480 C 0.14204 0.78025 0.46966 0.0
C481 C 0.11273 0.80797 0.46047 0.0
C482 C 0.1248 0.84947 0.45643 0.0
C483 C 0.16632 0.86299 0.46239 0.0
C484 C 0.19558 0.83525 0.4716 0.0
H485 H 0.2367 0.79239 0.53579 0.0
H486 H 0.24213 0.83018 0.5145 0.0
H487 H 0.19071 0.80605 0.51926 0.0
H488 H 0.13246 0.74814 0.47217 0.0
H489 H 0.0808 0.7968 0.4563 0.0
H490 H 0.05929 0.98586 0.09979 0.0
H491 H 0.05493 0.98308 0.13957 0.0
H492 H 0.91834 0.00636 0.13654 0.0
H493 H 0.92232 0.00974 0.09669 0.0
H494 H 0.96129 0.05555 0.16754 0.0
H495 H 0.00362 0.88839 0.17585 0.0
H496 H 0.04175 0.91779 0.16018 0.0
H497 H 0.98776 0.91081 0.15014 0.0
C498 C 0.02824 0.99029 0.10753 0.0
C499 C 0.99111 -0.00214 0.09501 0.0
C500 C 0.02581 0.98843 0.13027 0.0
C501 C 0.98621 0.99382 0.14093 0.0
C502 C 0.94916 0.00186 0.12857 0.0
H503 H 0.93679 0.94167 0.27798 0.0
H504 H 0.9354 0.94269 0.238 0.0
C505 C 0.95153 0.00376 0.1058 0.0
C506 C 0.9837 0.99215 0.16504 0.0
H507 H 0.00317 0.92926 0.20858 0.0
C508 C 0.9702 0.02789 0.17654 0.0
C509 C -0.00519 0.95582 0.17667 0.0
C510 C 0.00741 0.91587 0.1651 0.0
C511 C 0.96855 0.02862 0.19944 0.0
C512 C 0.98136 0.99285 0.21109 0.0
C513 C -0.0062 0.95676 0.19958 0.0
C514 C 0.98232 0.99232 0.23524 0.0
C515 C 0.95278 0.06753 0.21097 0.0
C516 C 0.00967 0.01946 0.24686 0.0
C517 C 0.01069 0.01884 0.26966 0.0
C518 C 0.98455 0.99085 0.28125 0.0
C519 C 0.9576 0.96331 0.26952 0.0
C520 C 0.9566 0.96399 0.24671 0.0
H521 H 0.93372 0.0876 0.19989 0.0
H522 H 0.93261 0.0596 0.22533 0.0
H523 H 0.98088 0.0859 0.21685 0.0
H524 H 0.03051 0.0409 0.23827 0.0
H525 H 0.03236 0.03991 0.2782 0.0
H526 H 0.02209 0.06935 0.9235 0.0
H527 H 0.02382 0.07003 0.88358 0.0
H528 H -0.00527 0.93848 0.8817 0.0
H529 H 0.99248 0.93741 0.92159 0.0
H530 H 0.07678 0.0232 0.85511 0.0
H531 H 0.90324 0.98983 0.84139 0.0
H532 H 0.92425 0.00667 0.86755 0.0
H533 H 0.93004 0.9533 0.85878 0.0
C534 C 0.01592 0.04054 0.91463 0.0
C535 C 0.00693 0.00335 0.92578 0.0
C536 C 0.01698 0.04102 0.89182 0.0
C537 C 0.00882 0.00445 0.87974 0.0
C538 C 0.00032 0.9672 0.89076 0.0
H539 H 0.06638 0.95221 0.74372 0.0
H540 H 0.0641 0.95438 0.78368 0.0
C541 C -0.00073 0.96664 0.91356 0.0
C542 C 0.00997 0.0051 0.8556 0.0
H543 H 0.94859 0.98771 0.81014 0.0
C544 C 0.04876 0.01559 0.84524 0.0
C545 C 0.97318 -0.00435 0.84285 0.0
C546 C 0.93017 0.98609 0.85315 0.0
C547 C 0.05197 0.0161 0.82238 0.0
C548 C 0.01554 0.0053 0.80964 0.0
C549 C 0.97654 -0.0044 0.82 0.0
C550 C 0.01714 0.00408 0.7855 0.0
C551 C 0.0941 0.02867 0.81206 0.0
C552 C 0.9908 0.03069 0.77334 0.0
C553 C 0.99173 0.02928 0.75053 0.0
C554 C 0.01884 0.00098 0.73948 0.0
C555 C 0.04496 0.97414 0.75175 0.0
C556 C 0.04404 0.97564 0.77456 0.0
H557 H 0.11514 0.04585 0.82378 0.0
H558 H 0.11151 0.00025 0.80655 0.0
H559 H 0.08857 0.04856 0.79758 0.0
H560 H 0.96958 0.05263 0.78152 0.0
H561 H 0.97076 0.04991 0.74155 0.0
H562 H 0.56446 0.49025 0.597 0.0
H563 H 0.56306 0.48776 0.63687 0.0
H564 H 0.42556 0.50636 0.63627 0.0
H565 H 0.42657 0.50942 0.59638 0.0
H566 H 0.46886 0.55734 0.66636 0.0
H567 H 0.51771 0.39171 0.67427 0.0
H568 H 0.55356 0.42248 0.65795 0.0
H569 H 0.4993 0.41333 0.64881 0.0
C570 C 0.53386 0.49371 0.6053 0.0
C571 C 0.49559 0.49988 0.59345 0.0
C572 C 0.53312 0.49203 0.6281 0.0
C573 C 0.49412 0.49621 0.63947 0.0
C574 C 0.45595 0.50282 0.62776 0.0
H575 H 0.44864 0.44259 0.77641 0.0
H576 H 0.44783 0.44362 0.73643 0.0
C577 C 0.45662 0.50454 0.60496 0.0
C578 C 0.49327 0.49468 0.66362 0.0
H579 H 0.51629 0.4324 0.70697 0.0
C580 C 0.47907 0.53 0.67526 0.0
C581 C 0.50612 0.45876 0.67513 0.0
C582 C 0.51966 0.41924 0.66344 0.0
C583 C 0.47815 0.53065 0.69818 0.0
C584 C 0.4924 0.49524 0.7097 0.0
C585 C 0.5058 0.45963 0.69806 0.0
C586 C 0.4934 0.49446 0.73387 0.0
C587 C 0.4614 0.569 0.70986 0.0
C588 C 0.51983 0.52227 0.7456 0.0
C589 C 0.52051 0.52165 0.76842 0.0
C590 C 0.49495 0.49301 0.77991 0.0
C591 C 0.46901 0.46475 0.76805 0.0
C592 C 0.46834 0.46542 0.74523 0.0
H593 H 0.44177 0.58877 0.69889 0.0
H594 H 0.4415 0.56036 0.7242 0.0
H595 H 0.48904 0.58797 0.7158 0.0
H596 H 0.54013 0.54431 0.7371 0.0
H597 H 0.54142 0.5433 0.77705 0.0
H598 H 0.46717 0.45264 0.41893 0.0
H599 H 0.47208 0.45399 0.37913 0.0
H600 H 0.54963 0.56567 0.38312 0.0
H601 H 0.54319 0.56553 0.42294 0.0
H602 H 0.49287 0.57285 0.35202 0.0
H603 H 0.5714 0.41918 0.34216 0.0
H604 H 0.52103 0.41474 0.35623 0.0
H605 H 0.56457 0.44394 0.36852 0.0
C606 C 0.48536 0.47743 0.41133 0.0
C607 C 0.50501 0.50885 0.42407 0.0
C608 C 0.48844 0.47798 0.38857 0.0
C609 C 0.51218 0.5093 0.37812 0.0
C610 C 0.53139 0.54101 0.39081 0.0
H611 H 0.58429 0.48677 0.24069 0.0
H612 H 0.58476 0.4904 0.28072 0.0
C613 C 0.52767 0.54091 0.41357 0.0
C614 C 0.51598 0.50966 0.35394 0.0
H615 H 0.54194 0.44896 0.30975 0.0
C616 C 0.50398 0.54587 0.34279 0.0
C617 C 0.53131 0.47479 0.34189 0.0
C618 C 0.54826 0.43618 0.35284 0.0
C619 C 0.50588 0.54786 0.31991 0.0
C620 C 0.51858 0.51207 0.3078 0.0
C621 C 0.5316 0.47621 0.31899 0.0
C622 C 0.51854 0.51097 0.28354 0.0
C623 C 0.49502 0.58859 0.30908 0.0
C624 C 0.48111 0.52088 0.27181 0.0
C625 C 0.48109 0.51953 0.24899 0.0
C626 C 0.51815 0.50715 0.23752 0.0
C627 C 0.55531 0.49632 0.24922 0.0
C628 C 0.55557 0.49842 0.27204 0.0
H629 H 0.50043 0.61552 0.32034 0.0
H630 H 0.51455 0.59334 0.29412 0.0
H631 H 0.46045 0.58851 0.30449 0.0
H632 H 0.45171 0.52924 0.28028 0.0
H633 H 0.45186 0.5274 0.2403 0.0
loop_
_geom_bond_atom_site_label_1
_geom_bond_atom_site_label_2
_geom_bond_distance
_geom_bond_site_symmetry_2
_ccdc_geom_bond_type
O0 Zn1 1.953 . S
O0 C16 1.225 1_565 S
Zn1 O0 1.953 . S
Zn1 O2 1.949 1_565 S
Zn1 O8 1.919 . S
Zn1 O13 1.924 1_565 S
O2 Zn1 1.949 1_545 S
O2 Zn3 1.923 1_444 S
O2 Zn4 1.950 1_455 S
O2 Zn5 1.945 1_554 S
Zn3 O2 1.923 1_666 S
Zn3 O6 1.934 . S
Zn3 O9 1.941 1_655 S
Zn3 O10 1.959 1_556 S
Zn4 O2 1.950 1_655 S
Zn4 O11 1.938 1_545 S
Zn4 O12 1.906 . S
Zn4 O22 1.953 . S
Zn5 O2 1.945 1_556 S
Zn5 O7 1.932 . S
Zn5 O14 1.977 1_455 S
Zn5 O15 1.910 1_556 S
O6 Zn3 1.934 . S
O6 C17 1.223 1_665 S
O7 Zn5 1.932 . S
O7 C17 1.307 . S
O8 Zn1 1.919 . S
O8 C19 1.253 . S
O9 Zn3 1.941 1_455 S
O9 C19 1.283 1_556 S
O10 Zn3 1.959 1_554 S
O10 C18 1.326 . S
O11 Zn4 1.938 1_565 S
O11 C18 1.247 . S
O12 Zn4 1.906 . S
O12 C20 1.304 . S
O13 Zn1 1.924 1_545 S
O13 C21 1.311 . S
O14 Zn5 1.977 1_655 S
O14 C20 1.272 1_556 S
O15 Zn5 1.910 1_554 S
O15 C21 1.231 . S
C16 O0 1.225 1_545 S
C16 O22 1.298 1_455 S
C17 O6 1.223 1_445 S
C17 O7 1.307 . S
C18 O10 1.326 . S
C18 O11 1.247 . S
C19 O8 1.253 . S
C19 O9 1.283 1_554 S
C20 O12 1.304 . S
C20 O14 1.272 1_554 S
C21 O13 1.311 . S
C21 O15 1.231 . S
O22 Zn4 1.953 . S
O22 C16 1.298 1_655 S
O23 Zn24 1.953 . S
O23 C39 1.225 . S
Zn24 O23 1.953 . S
Zn24 O25 1.949 . S
Zn24 O31 1.919 . S
Zn24 O36 1.924 . S
O25 Zn24 1.949 . S
O25 Zn26 1.923 . S
O25 Zn27 1.950 . S
O25 Zn28 1.945 . S
Zn26 O25 1.923 . S
Zn26 O29 1.933 . S
Zn26 O32 1.941 . S
Zn26 O33 1.965 . S
Zn27 O25 1.950 . S
Zn27 O34 1.938 . S
Zn27 O35 1.906 . S
Zn27 O45 1.953 . S
Zn28 O25 1.945 . S
Zn28 O30 1.932 . S
Zn28 O37 1.977 . S
Zn28 O38 1.910 . S
O29 Zn26 1.933 . S
O29 C40 1.226 . S
O30 Zn28 1.932 . S
O30 C40 1.307 . S
O31 Zn24 1.919 . S
O31 C42 1.253 . S
O32 Zn26 1.941 . S
O32 C42 1.283 . S
O33 Zn26 1.965 . S
O33 C41 1.303 . S
O34 Zn27 1.938 . S
O34 C41 1.247 . S
O35 Zn27 1.906 . S
O35 C43 1.304 . S
O36 Zn24 1.924 . S
O36 C44 1.311 . S
O37 Zn28 1.977 . S
O37 C43 1.272 . S
O38 Zn28 1.910 . S
O38 C44 1.231 . S
C39 O23 1.225 . S
C39 O45 1.298 . S
C40 O29 1.226 . S
C40 O30 1.307 . S
C41 O33 1.303 . S
C41 O34 1.247 . S
C42 O31 1.253 . S
C42 O32 1.283 . S
C43 O35 1.304 . S
C43 O37 1.272 . S
C44 O36 1.311 . S
C44 O38 1.231 . S
O45 Zn27 1.953 . S
O45 C39 1.298 . S
C46 C47 1.388 1_455 S
C46 C48 1.397 . S
C46 H70 0.931 . S
C47 C46 1.388 1_655 S
C47 C51 1.395 1_665 S
C48 C46 1.397 . S
C48 C49 1.384 . S
C48 H71 0.930 . S
C49 C48 1.384 . S
C49 C50 1.377 1_565 S
C49 C52 1.481 . S
C50 C49 1.377 1_545 S
C50 C51 1.389 . S
C50 H72 0.929 . S
C51 C47 1.395 1_445 S
C51 C50 1.389 . S
C51 H73 0.931 . S
C52 C49 1.481 . S
C52 C53 1.394 . S
C52 C57 1.384 1_465 S
C53 C52 1.394 . S
C53 C54 1.401 . S
C53 H74 0.930 . S
C54 C53 1.401 . S
C54 C55 1.367 1_455 S
C54 C63 1.511 . S
C55 C54 1.367 1_655 S
C55 C56 1.401 1_565 S
C55 H76 0.932 . S
C56 C55 1.401 1_545 S
C56 C57 1.361 . S
C56 C58 1.500 . S
C57 C52 1.384 1_645 S
C57 C56 1.361 . S
C57 H75 0.931 . S
C58 C56 1.500 . S
C58 C59 1.371 . S
C58 C60 1.365 . S
C59 C58 1.371 . S
C59 C69 1.386 . S
C59 H77 0.931 . S
C60 C58 1.365 . S
C60 C61 1.409 . S
C60 H78 0.929 . S
C61 C60 1.409 . S
C61 C62 1.380 . S
C61 H79 0.930 . S
C62 C61 1.380 . S
C62 C69 1.357 . S
C63 C54 1.511 . S
C63 C64 1.341 . S
C63 C65 1.371 . S
C64 C63 1.341 . S
C64 C68 1.394 . S
C64 H80 0.930 . S
C65 C63 1.371 . S
C65 C66 1.392 . S
C65 H81 0.931 . S
C66 C65 1.392 . S
C66 C67 1.331 . S
C66 H84 0.932 . S
C67 C66 1.331 . S
C67 C68 1.336 . S
C68 C64 1.394 . S
C68 C67 1.336 . S
C68 H83 0.929 . S
C69 C59 1.386 . S
C69 C62 1.357 . S
C69 H82 0.928 . S
H70 C46 0.931 . S
H71 C48 0.930 . S
H72 C50 0.929 . S
H73 C51 0.931 . S
H74 C53 0.930 . S
H75 C57 0.931 . S
H76 C55 0.932 . S
H77 C59 0.931 . S
H78 C60 0.929 . S
H79 C61 0.930 . S
H80 C64 0.930 . S
H81 C65 0.931 . S
H82 C69 0.928 . S
H83 C68 0.929 . S
H84 C66 0.932 . S
C85 C86 1.386 . S
C85 C87 1.397 . S
C85 H109 0.931 . S
C86 C85 1.386 . S
C86 C90 1.397 1_545 S
C87 C85 1.397 . S
C87 C88 1.384 . S
C87 H110 0.930 . S
C88 C87 1.384 . S
C88 C89 1.377 1_545 S
C88 C91 1.481 . S
C89 C88 1.377 1_565 S
C89 C90 1.389 . S
C89 H111 0.929 . S
C90 C86 1.397 1_565 S
C90 C89 1.389 . S
C90 H112 0.931 . S
C91 C88 1.481 . S
C91 C92 1.387 . S
C91 C96 1.390 1_445 S
C92 C91 1.387 . S
C92 C93 1.401 . S
C92 H113 0.930 . S
C93 C92 1.401 . S
C93 C94 1.376 . S
C93 C102 1.511 . S
C94 C93 1.376 . S
C94 C95 1.392 1_445 S
C94 H115 0.931 . S
C95 C94 1.392 1_665 S
C95 C96 1.361 . S
C95 C97 1.500 . S
C96 C91 1.390 1_665 S
C96 C95 1.361 . S
C96 H114 0.931 . S
C97 C95 1.500 . S
C97 C98 1.371 . S
C97 C99 1.365 . S
C98 C97 1.371 . S
C98 C108 1.386 . S
C98 H116 0.931 . S
C99 C97 1.365 . S
C99 C100 1.409 . S
C99 H117 0.929 . S
C100 C99 1.409 . S
C100 C101 1.380 . S
C100 H118 0.930 . S
C101 C100 1.380 . S
C101 C108 1.357 . S
C102 C93 1.511 . S
C102 C103 1.341 . S
C102 C104 1.371 . S
C103 C102 1.341 . S
C103 C107 1.394 . S
C103 H119 0.930 . S
C104 C102 1.371 . S
C104 C105 1.392 . S
C104 H120 0.931 . S
C105 C104 1.392 . S
C105 C106 1.331 . S
C105 H123 0.932 . S
C106 C105 1.331 . S
C106 C107 1.336 . S
C107 C103 1.394 . S
C107 C106 1.336 . S
C107 H122 0.929 . S
C108 C98 1.386 . S
C108 C101 1.357 . S
C108 H121 0.928 . S
H109 C85 0.931 . S
H110 C87 0.930 . S
H111 C89 0.929 . S
H112 C90 0.931 . S
H113 C92 0.930 . S
H114 C96 0.931 . S
H115 C94 0.931 . S
H116 C98 0.931 . S
H117 C99 0.929 . S
H118 C100 0.930 . S
H119 C103 0.930 . S
H120 C104 0.931 . S
H121 C108 0.928 . S
H122 C107 0.929 . S
H123 C105 0.932 . S
C124 C125 1.386 . S
C124 C126 1.397 . S
C124 H148 0.931 . S
C125 C124 1.386 . S
C125 C129 1.397 . S
C126 C124 1.397 . S
C126 C127 1.384 . S
C126 H149 0.930 . S
C127 C126 1.384 . S
C127 C128 1.377 . S
C127 C130 1.481 . S
C128 C127 1.377 . S
C128 C129 1.389 . S
C128 H150 0.929 . S
C129 C125 1.397 . S
C129 C128 1.389 . S
C129 H151 0.931 . S
C130 C127 1.481 . S
C130 C131 1.387 . S
C130 C135 1.390 . S
C131 C130 1.387 . S
C131 C132 1.401 . S
C131 H152 0.930 . S
C132 C131 1.401 . S
C132 C133 1.376 . S
C132 C141 1.511 . S
C133 C132 1.376 . S
C133 C134 1.392 . S
C133 H154 0.931 . S
C134 C133 1.392 . S
C134 C135 1.361 . S
C134 C136 1.500 . S
C135 C130 1.390 . S
C135 C134 1.361 . S
C135 H153 0.931 . S
C136 C134 1.500 . S
C136 C137 1.371 . S
C136 C138 1.365 . S
C137 C136 1.371 . S
C137 C147 1.386 . S
C137 H155 0.931 . S
C138 C136 1.365 . S
C138 C139 1.409 . S
C138 H156 0.929 . S
C139 C138 1.409 . S
C139 C140 1.380 . S
C139 H157 0.930 . S
C140 C139 1.380 . S
C140 C147 1.357 . S
C141 C132 1.511 . S
C141 C142 1.341 . S
C141 C143 1.371 . S
C142 C141 1.341 . S
C142 C146 1.394 . S
C142 H158 0.930 . S
C143 C141 1.371 . S
C143 C144 1.392 . S
C143 H159 0.931 . S
C144 C143 1.392 . S
C144 C145 1.331 . S
C144 H162 0.932 . S
C145 C144 1.331 . S
C145 C146 1.336 . S
C146 C142 1.394 . S
C146 C145 1.336 . S
C146 H161 0.929 . S
C147 C137 1.386 . S
C147 C140 1.357 . S
C147 H160 0.928 . S
H148 C124 0.931 . S
H149 C126 0.930 . S
H150 C128 0.929 . S
H151 C129 0.931 . S
H152 C131 0.930 . S
H153 C135 0.931 . S
H154 C133 0.931 . S
H155 C137 0.931 . S
H156 C138 0.929 . S
H157 C139 0.930 . S
H158 C142 0.930 . S
H159 C143 0.931 . S
H160 C147 0.928 . S
H161 C146 0.929 . S
H162 C144 0.932 . S
C163 C164 1.386 . S
C163 C165 1.397 . S
C163 H187 0.931 . S
C164 C163 1.386 . S
C164 C168 1.397 . S
C165 C163 1.397 . S
C165 C166 1.384 . S
C165 H188 0.930 . S
C166 C165 1.384 . S
C166 C167 1.377 . S
C166 C169 1.481 . S
C167 C166 1.377 . S
C167 C168 1.389 . S
C167 H189 0.929 . S
C168 C164 1.397 . S
C168 C167 1.389 . S
C168 H190 0.931 . S
C169 C166 1.481 . S
C169 C170 1.387 . S
C169 C174 1.390 . S
C170 C169 1.387 . S
C170 C171 1.401 . S
C170 H191 0.930 . S
C171 C170 1.401 . S
C171 C172 1.376 . S
C171 C180 1.511 . S
C172 C171 1.376 . S
C172 C173 1.392 . S
C172 H193 0.931 . S
C173 C172 1.392 . S
C173 C174 1.361 . S
C173 C175 1.500 . S
C174 C169 1.390 . S
C174 C173 1.361 . S
C174 H192 0.931 . S
C175 C173 1.500 . S
C175 C176 1.371 . S
C175 C177 1.365 . S
C176 C175 1.371 . S
C176 C186 1.386 . S
C176 H194 0.931 . S
C177 C175 1.365 . S
C177 C178 1.409 . S
C177 H195 0.929 . S
C178 C177 1.409 . S
C178 C179 1.380 . S
C178 H196 0.930 . S
C179 C178 1.380 . S
C179 C186 1.357 . S
C180 C171 1.511 . S
C180 C181 1.341 . S
C180 C182 1.371 . S
C181 C180 1.341 . S
C181 C185 1.394 . S
C181 H197 0.930 . S
C182 C180 1.371 . S
C182 C183 1.392 . S
C182 H198 0.931 . S
C183 C182 1.392 . S
C183 C184 1.331 . S
C183 H201 0.932 . S
C184 C183 1.331 . S
C184 C185 1.336 . S
C185 C181 1.394 . S
C185 C184 1.336 . S
C185 H200 0.929 . S
C186 C176 1.386 . S
C186 C179 1.357 . S
C186 H199 0.928 . S
H187 C163 0.931 . S
H188 C165 0.930 . S
H189 C167 0.929 . S
H190 C168 0.931 . S
H191 C170 0.930 . S
H192 C174 0.931 . S
H193 C172 0.931 . S
H194 C176 0.931 . S
H195 C177 0.929 . S
H196 C178 0.930 . S
H197 C181 0.930 . S
H198 C182 0.931 . S
H199 C186 0.928 . S
H200 C185 0.929 . S
H201 C183 0.932 . S
H202 C210 0.929 . S
H203 C212 0.930 . S
H204 C214 0.930 . S
H205 C217 0.929 . S
H206 C220 0.930 . S
H207 C222 0.960 . S
H208 C222 0.960 . S
H209 C222 0.960 . S
C210 H202 0.929 . S
C210 C211 1.377 . S
C210 C212 1.384 . S
C211 C210 1.377 . S
C211 C217 1.390 . S
C212 H203 0.930 . S
C212 C210 1.384 . S
C212 C213 1.372 . S
C213 C212 1.372 . S
C213 C214 1.400 . S
C213 C218 1.490 . S
C214 H204 0.930 . S
C214 C213 1.400 . S
C214 C217 1.386 . S
H215 C231 0.930 . S
H216 C232 0.931 . S
C217 H205 0.929 . S
C217 C211 1.390 . S
C217 C214 1.386 . S
C218 C213 1.490 . S
C218 C220 1.395 . S
C218 C221 1.403 . S
H219 C225 0.930 . S
C220 H206 0.930 . S
C220 C218 1.395 . S
C220 C223 1.403 . S
C221 C218 1.403 . S
C221 C222 1.524 . S
C221 C225 1.400 . S
C222 H207 0.960 . S
C222 H208 0.960 . S
C222 H209 0.960 . S
C222 C221 1.524 . S
C223 C220 1.403 . S
C223 C224 1.392 . S
C223 C227 1.495 . S
C224 C223 1.392 . S
C224 C225 1.385 . S
C224 C226 1.478 . S
C225 H219 0.930 . S
C225 C221 1.400 . S
C225 C224 1.385 . S
C226 C224 1.478 . S
C226 C228 1.381 . S
C226 C232 1.383 . S
C227 C223 1.495 . S
C227 H233 0.959 . S
C227 H234 0.961 . S
C227 H235 0.960 . S
C228 C226 1.381 . S
C228 C229 1.394 . S
C228 H236 0.930 . S
C229 C228 1.394 . S
C229 C230 1.383 . S
C229 H237 0.929 . S
C230 C229 1.383 . S
C230 C231 1.377 . S
C231 H215 0.930 . S
C231 C230 1.377 . S
C231 C232 1.379 . S
C232 H216 0.931 . S
C232 C226 1.383 . S
C232 C231 1.379 . S
H233 C227 0.959 . S
H234 C227 0.961 . S
H235 C227 0.960 . S
H236 C228 0.930 . S
H237 C229 0.929 . S
H238 C246 0.929 . S
H239 C248 0.930 . S
H240 C250 0.930 . S
H241 C253 0.929 . S
H242 C256 0.930 . S
H243 C258 0.960 . S
H244 C258 0.960 1_554 S
H245 C258 0.960 . S
C246 H238 0.929 . S
C246 C247 1.377 1_554 S
C246 C248 1.384 . S
C247 C246 1.377 1_556 S
C247 C253 1.390 . S
C248 H239 0.930 . S
C248 C246 1.384 . S
C248 C249 1.372 1_554 S
C249 C248 1.372 1_556 S
C249 C250 1.400 . S
C249 C254 1.490 . S
C250 H240 0.930 . S
C250 C249 1.400 . S
C250 C253 1.386 . S
H251 C267 0.930 . S
H252 C268 0.931 . S
C253 H241 0.929 . S
C253 C247 1.390 . S
C253 C250 1.386 . S
C254 C249 1.490 . S
C254 C256 1.395 . S
C254 C257 1.403 . S
H255 C261 0.930 . S
C256 H242 0.930 . S
C256 C254 1.395 . S
C256 C259 1.403 . S
C257 C254 1.403 . S
C257 C258 1.524 . S
C257 C261 1.400 . S
C258 H243 0.960 . S
C258 H244 0.960 1_556 S
C258 H245 0.960 . S
C258 C257 1.524 . S
C259 C256 1.403 . S
C259 C260 1.392 . S
C259 C263 1.495 . S
C260 C259 1.392 . S
C260 C261 1.385 . S
C260 C262 1.478 . S
C261 H255 0.930 . S
C261 C257 1.400 . S
C261 C260 1.385 . S
C262 C260 1.478 . S
C262 C264 1.381 . S
C262 C268 1.383 . S
C263 C259 1.495 . S
C263 H269 0.959 . S
C263 H270 0.961 . S
C263 H271 0.960 . S
C264 C262 1.381 . S
C264 C265 1.394 . S
C264 H272 0.930 . S
C265 C264 1.394 . S
C265 C266 1.383 . S
C265 H273 0.929 . S
C266 C265 1.383 . S
C266 C267 1.377 . S
C267 H251 0.930 . S
C267 C266 1.377 . S
C267 C268 1.379 . S
C268 H252 0.931 . S
C268 C262 1.383 . S
C268 C267 1.379 . S
H269 C263 0.959 . S
H270 C263 0.961 . S
H271 C263 0.960 . S
H272 C264 0.930 . S
H273 C265 0.929 . S
H274 C282 0.929 . S
H275 C284 0.930 . S
H276 C286 0.930 . S
H277 C289 0.929 . S
H278 C292 0.930 . S
H279 C294 0.960 . S
H280 C294 0.960 . S
H281 C294 0.960 . S
C282 H274 0.929 . S
C282 C283 1.377 . S
C282 C284 1.384 . S
C283 C282 1.377 . S
C283 C289 1.390 . S
C284 H275 0.930 . S
C284 C282 1.384 . S
C284 C285 1.372 . S
C285 C284 1.372 . S
C285 C286 1.400 . S
C285 C290 1.490 . S
C286 H276 0.930 . S
C286 C285 1.400 . S
C286 C289 1.386 . S
H287 C303 0.930 . S
H288 C304 0.931 . S
C289 H277 0.929 . S
C289 C283 1.390 . S
C289 C286 1.386 . S
C290 C285 1.490 . S
C290 C292 1.395 . S
C290 C293 1.403 . S
H291 C297 0.930 . S
C292 H278 0.930 . S
C292 C290 1.395 . S
C292 C295 1.403 . S
C293 C290 1.403 . S
C293 C294 1.524 . S
C293 C297 1.400 . S
C294 H279 0.960 . S
C294 H280 0.960 . S
C294 H281 0.960 . S
C294 C293 1.524 . S
C295 C292 1.403 . S
C295 C296 1.392 . S
C295 C299 1.495 . S
C296 C295 1.392 . S
C296 C297 1.385 . S
C296 C298 1.478 . S
C297 H291 0.930 . S
C297 C293 1.400 . S
C297 C296 1.385 . S
C298 C296 1.478 . S
C298 C300 1.381 . S
C298 C304 1.383 . S
C299 C295 1.495 . S
C299 H305 0.959 . S
C299 H306 0.961 . S
C299 H307 0.960 . S
C300 C298 1.381 . S
C300 C301 1.394 . S
C300 H308 0.930 . S
C301 C300 1.394 . S
C301 C302 1.383 . S
C301 H309 0.929 . S
C302 C301 1.383 . S
C302 C303 1.377 . S
C303 H287 0.930 . S
C303 C302 1.377 . S
C303 C304 1.379 . S
C304 H288 0.931 . S
C304 C298 1.383 . S
C304 C303 1.379 . S
H305 C299 0.959 . S
H306 C299 0.961 . S
H307 C299 0.960 . S
H308 C300 0.930 . S
H309 C301 0.929 . S
H310 C318 0.933 . S
H311 C320 0.930 . S
H312 C322 0.930 . S
H313 C325 0.929 . S
H314 C328 0.930 . S
H315 C330 0.960 . S
H316 C330 0.960 . S
H317 C330 0.960 . S
C318 H310 0.933 . S
C318 C319 1.377 . S
C318 C320 1.384 . S
C319 C318 1.377 . S
C319 C325 1.390 . S
C320 H311 0.930 . S
C320 C318 1.384 . S
C320 C321 1.372 . S
C321 C320 1.372 . S
C321 C322 1.400 . S
C321 C326 1.490 . S
C322 H312 0.930 . S
C322 C321 1.400 . S
C322 C325 1.386 . S
H323 C339 0.930 . S
H324 C340 0.931 . S
C325 H313 0.929 . S
C325 C319 1.390 . S
C325 C322 1.386 . S
C326 C321 1.490 . S
C326 C328 1.395 . S
C326 C329 1.403 . S
H327 C333 0.930 . S
C328 H314 0.930 . S
C328 C326 1.395 . S
C328 C331 1.403 . S
C329 C326 1.403 . S
C329 C330 1.524 1_556 S
C329 C333 1.400 . S
C330 H315 0.960 . S
C330 H316 0.960 . S
C330 H317 0.960 . S
C330 C329 1.524 1_554 S
C331 C328 1.403 . S
C331 C332 1.392 . S
C331 C335 1.495 . S
C332 C331 1.392 . S
C332 C333 1.385 . S
C332 C334 1.478 . S
C333 H327 0.930 . S
C333 C329 1.400 . S
C333 C332 1.385 . S
C334 C332 1.478 . S
C334 C336 1.381 . S
C334 C340 1.383 . S
C335 C331 1.495 . S
C335 H341 0.959 . S
C335 H342 0.961 . S
C335 H343 0.960 . S
C336 C334 1.381 . S
C336 C337 1.394 . S
C336 H344 0.930 . S
C337 C336 1.394 . S
C337 C338 1.383 . S
C337 H345 0.929 . S
C338 C337 1.383 . S
C338 C339 1.377 . S
C339 H323 0.930 . S
C339 C338 1.377 . S
C339 C340 1.379 . S
C340 H324 0.931 . S
C340 C334 1.383 . S
C340 C339 1.379 . S
H341 C335 0.959 . S
H342 C335 0.961 . S
H343 C335 0.960 . S
H344 C336 0.930 . S
H345 C337 0.929 . S
H346 C354 0.929 . S
H347 C356 0.930 . S
H348 C358 0.930 . S
H349 C361 0.929 . S
H350 C364 0.930 . S
H351 C366 0.960 . S
H352 C366 0.960 . S
H353 C366 0.960 . S
C354 H346 0.929 . S
C354 C355 1.377 . S
C354 C356 1.384 . S
C355 C354 1.377 . S
C355 C361 1.390 . S
C356 H347 0.930 . S
C356 C354 1.384 . S
C356 C357 1.372 . S
C357 C356 1.372 . S
C357 C358 1.400 . S
C357 C362 1.490 . S
C358 H348 0.930 . S
C358 C357 1.400 . S
C358 C361 1.386 . S
H359 C375 0.930 . S
H360 C376 0.931 . S
C361 H349 0.929 . S
C361 C355 1.390 . S
C361 C358 1.386 . S
C362 C357 1.490 . S
C362 C364 1.395 . S
C362 C365 1.403 . S
H363 C369 0.930 . S
C364 H350 0.930 . S
C364 C362 1.395 . S
C364 C367 1.403 . S
C365 C362 1.403 . S
C365 C366 1.524 . S
C365 C369 1.400 . S
C366 H351 0.960 . S
C366 H352 0.960 . S
C366 H353 0.960 . S
C366 C365 1.524 . S
C367 C364 1.403 . S
C367 C368 1.392 . S
C367 C371 1.495 . S
C368 C367 1.392 . S
C368 C369 1.385 . S
C368 C370 1.478 . S
C369 H363 0.930 . S
C369 C365 1.400 . S
C369 C368 1.385 . S
C370 C368 1.478 . S
C370 C372 1.381 . S
C370 C376 1.383 . S
C371 C367 1.495 . S
C371 H377 0.959 . S
C371 H378 0.961 . S
C371 H379 0.960 . S
C372 C370 1.381 . S
C372 C373 1.394 . S
C372 H380 0.930 . S
C373 C372 1.394 . S
C373 C374 1.383 . S
C373 H381 0.929 . S
C374 C373 1.383 . S
C374 C375 1.377 . S
C375 H359 0.930 . S
C375 C374 1.377 . S
C375 C376 1.379 . S
C376 H360 0.931 . S
C376 C370 1.383 . S
C376 C375 1.379 . S
H377 C371 0.959 . S
H378 C371 0.961 . S
H379 C371 0.960 . S
H380 C372 0.930 . S
H381 C373 0.929 . S
H382 C390 0.929 . S
H383 C392 0.930 . S
H384 C394 0.930 . S
H385 C397 0.929 . S
H386 C400 0.930 . S
H387 C402 0.960 . S
H388 C402 0.960 . S
H389 C402 0.960 . S
C390 H382 0.929 . S
C390 C391 1.377 . S
C390 C392 1.384 . S
C391 C390 1.377 . S
C391 C397 1.390 . S
C392 H383 0.930 . S
C392 C390 1.384 . S
C392 C393 1.372 . S
C393 C392 1.372 . S
C393 C394 1.400 . S
C393 C398 1.490 . S
C394 H384 0.930 . S
C394 C393 1.400 . S
C394 C397 1.386 . S
H395 C411 0.930 . S
H396 C412 0.931 . S
C397 H385 0.929 . S
C397 C391 1.390 . S
C397 C394 1.386 . S
C398 C393 1.490 . S
C398 C400 1.395 . S
C398 C401 1.403 . S
H399 C405 0.930 . S
C400 H386 0.930 . S
C400 C398 1.395 . S
C400 C403 1.403 . S
C401 C398 1.403 . S
C401 C402 1.524 . S
C401 C405 1.400 . S
C402 H387 0.960 . S
C402 H388 0.960 . S
C402 H389 0.960 . S
C402 C401 1.524 . S
C403 C400 1.403 . S
C403 C404 1.392 . S
C403 C407 1.495 . S
C404 C403 1.392 . S
C404 C405 1.385 . S
C404 C406 1.478 . S
C405 H399 0.930 . S
C405 C401 1.400 . S
C405 C404 1.385 . S
C406 C404 1.478 . S
C406 C408 1.381 . S
C406 C412 1.383 . S
C407 C403 1.495 . S
C407 H413 0.959 . S
C407 H414 0.961 . S
C407 H415 0.960 . S
C408 C406 1.381 . S
C408 C409 1.394 . S
C408 H416 0.930 . S
C409 C408 1.394 . S
C409 C410 1.383 . S
C409 H417 0.929 . S
C410 C409 1.383 . S
C410 C411 1.377 . S
C411 H395 0.930 . S
C411 C410 1.377 . S
C411 C412 1.379 . S
C412 H396 0.931 . S
C412 C406 1.383 . S
C412 C411 1.379 . S
H413 C407 0.959 . S
H414 C407 0.961 . S
H415 C407 0.960 . S
H416 C408 0.930 . S
H417 C409 0.929 . S
H418 C426 0.929 . S
H419 C428 0.930 . S
H420 C430 0.930 . S
H421 C433 0.929 . S
H422 C436 0.930 . S
H423 C438 0.960 . S
H424 C438 0.960 . S
H425 C438 0.960 . S
C426 H418 0.929 . S
C426 C427 1.377 . S
C426 C428 1.384 . S
C427 C426 1.377 . S
C427 C433 1.390 . S
C428 H419 0.930 . S
C428 C426 1.384 . S
C428 C429 1.372 . S
C429 C428 1.372 . S
C429 C430 1.400 . S
C429 C434 1.490 . S
C430 H420 0.930 . S
C430 C429 1.400 . S
C430 C433 1.386 . S
H431 C447 0.930 . S
H432 C448 0.931 . S
C433 H421 0.929 . S
C433 C427 1.390 . S
C433 C430 1.386 . S
C434 C429 1.490 . S
C434 C436 1.395 . S
C434 C437 1.403 . S
H435 C441 0.930 . S
C436 H422 0.930 . S
C436 C434 1.395 . S
C436 C439 1.403 . S
C437 C434 1.403 . S
C437 C438 1.524 . S
C437 C441 1.400 . S
C438 H423 0.960 . S
C438 H424 0.960 . S
C438 H425 0.960 . S
C438 C437 1.524 . S
C439 C436 1.403 . S
C439 C440 1.392 . S
C439 C443 1.495 . S
C440 C439 1.392 . S
C440 C441 1.385 . S
C440 C442 1.478 . S
C441 H435 0.930 . S
C441 C437 1.400 . S
C441 C440 1.385 . S
C442 C440 1.478 . S
C442 C444 1.381 . S
C442 C448 1.383 . S
C443 C439 1.495 . S
C443 H449 0.959 . S
C443 H450 0.961 . S
C443 H451 0.960 . S
C444 C442 1.381 . S
C444 C445 1.394 . S
C444 H452 0.930 . S
C445 C444 1.394 . S
C445 C446 1.383 . S
C445 H453 0.929 . S
C446 C445 1.383 . S
C446 C447 1.377 . S
C447 H431 0.930 . S
C447 C446 1.377 . S
C447 C448 1.379 . S
C448 H432 0.931 . S
C448 C442 1.383 . S
C448 C447 1.379 . S
H449 C443 0.959 . S
H450 C443 0.961 . S
H451 C443 0.960 . S
H452 C444 0.930 . S
H453 C445 0.929 . S
H454 C462 0.929 . S
H455 C464 0.930 . S
H456 C466 0.930 . S
H457 C469 0.929 . S
H458 C472 0.930 . S
H459 C474 0.960 . S
H460 C474 0.960 . S
H461 C474 0.960 . S
C462 H454 0.929 . S
C462 C463 1.377 . S
C462 C464 1.384 . S
C463 C462 1.377 . S
C463 C469 1.390 . S
C464 H455 0.930 . S
C464 C462 1.384 . S
C464 C465 1.372 . S
C465 C464 1.372 . S
C465 C466 1.400 . S
C465 C470 1.490 . S
C466 H456 0.930 . S
C466 C465 1.400 . S
C466 C469 1.386 . S
H467 C483 0.930 . S
H468 C484 0.931 . S
C469 H457 0.929 . S
C469 C463 1.390 . S
C469 C466 1.386 . S
C470 C465 1.490 . S
C470 C472 1.395 . S
C470 C473 1.403 . S
H471 C477 0.930 . S
C472 H458 0.930 . S
C472 C470 1.395 . S
C472 C475 1.403 . S
C473 C470 1.403 . S
C473 C474 1.524 . S
C473 C477 1.400 . S
C474 H459 0.960 . S
C474 H460 0.960 . S
C474 H461 0.960 . S
C474 C473 1.524 . S
C475 C472 1.403 . S
C475 C476 1.392 . S
C475 C479 1.495 . S
C476 C475 1.392 . S
C476 C477 1.385 . S
C476 C478 1.478 . S
C477 H471 0.930 . S
C477 C473 1.400 . S
C477 C476 1.385 . S
C478 C476 1.478 . S
C478 C480 1.381 . S
C478 C484 1.383 . S
C479 C475 1.495 . S
C479 H485 0.959 . S
C479 H486 0.961 . S
C479 H487 0.960 . S
C480 C478 1.381 . S
C480 C481 1.394 . S
C480 H488 0.930 . S
C481 C480 1.394 . S
C481 C482 1.383 . S
C481 H489 0.929 . S
C482 C481 1.383 . S
C482 C483 1.377 . S
C483 H467 0.930 . S
C483 C482 1.377 . S
C483 C484 1.379 . S
C484 H468 0.931 . S
C484 C478 1.383 . S
C484 C483 1.379 . S
H485 C479 0.959 . S
H486 C479 0.961 . S
H487 C479 0.960 . S
H488 C480 0.930 . S
H489 C481 0.929 . S
H490 C498 0.929 . S
H491 C500 0.930 . S
H492 C502 0.930 . S
H493 C505 0.929 . S
H494 C508 0.930 1_655 S
H495 C510 0.960 . S
H496 C510 0.960 . S
H497 C510 0.960 1_655 S
C498 H490 0.929 . S
C498 C499 1.377 . S
C498 C500 1.384 . S
C499 C498 1.377 . S
C499 C505 1.390 1_445 S
C500 H491 0.930 . S
C500 C498 1.384 . S
C500 C501 1.372 . S
C501 C500 1.372 . S
C501 C502 1.400 1_445 S
C501 C506 1.490 . S
C502 H492 0.930 . S
C502 C501 1.400 1_665 S
C502 C505 1.386 . S
H503 C519 0.930 . S
H504 C520 0.931 . S
C505 H493 0.929 . S
C505 C499 1.390 1_665 S
C505 C502 1.386 . S
C506 C501 1.490 . S
C506 C508 1.395 . S
C506 C509 1.403 1_545 S
H507 C513 0.930 . S
C508 H494 0.930 1_455 S
C508 C506 1.395 . S
C508 C511 1.403 1_455 S
C509 C506 1.403 1_565 S
C509 C510 1.524 . S
C509 C513 1.400 . S
C510 H495 0.960 . S
C510 H496 0.960 . S
C510 H497 0.960 1_455 S
C510 C509 1.524 . S
C511 C508 1.403 1_655 S
C511 C512 1.390 1_655 S
C511 C515 1.499 . S
C512 C511 1.390 1_455 S
C512 C513 1.385 1_545 S
C512 C514 1.479 . S
C513 H507 0.930 . S
C513 C509 1.400 . S
C513 C512 1.385 1_565 S
C514 C512 1.479 . S
C514 C516 1.398 . S
C514 C520 1.366 1_445 S
C515 C511 1.499 . S
C515 H521 0.959 . S
C515 H522 0.961 . S
C515 H523 0.960 1_655 S
C516 C514 1.398 . S
C516 C517 1.394 . S
C516 H524 0.930 . S
C517 C516 1.394 . S
C517 C518 1.370 1_455 S
C517 H525 0.929 . S
C518 C517 1.370 1_655 S
C518 C519 1.390 1_545 S
C519 H503 0.930 . S
C519 C518 1.390 1_565 S
C519 C520 1.379 . S
C520 H504 0.931 . S
C520 C514 1.366 1_665 S
C520 C519 1.379 . S
H521 C515 0.959 . S
H522 C515 0.961 . S
H523 C515 0.960 1_455 S
H524 C516 0.930 . S
H525 C517 0.929 . S
H526 C534 0.929 . S
H527 C536 0.930 . S
H528 C538 0.930 . S
H529 C541 0.929 . S
H530 C544 0.930 . S
H531 C546 0.960 . S
H532 C546 0.960 . S
H533 C546 0.960 . S
C534 H526 0.929 . S
C534 C535 1.377 1_655 S
C534 C536 1.384 . S
C535 C534 1.377 1_455 S
C535 C541 1.390 1_545 S
C536 H527 0.930 . S
C536 C534 1.384 . S
C536 C537 1.372 1_655 S
C537 C536 1.372 1_455 S
C537 C538 1.400 1_545 S
C537 C542 1.490 . S
C538 H528 0.930 . S
C538 C537 1.400 1_565 S
C538 C541 1.386 . S
H539 C555 0.930 . S
H540 C556 0.931 . S
C541 H529 0.929 . S
C541 C535 1.390 1_565 S
C541 C538 1.386 . S
C542 C537 1.490 . S
C542 C544 1.395 . S
C542 C545 1.403 1_445 S
H543 C549 0.930 . S
C544 H530 0.930 . S
C544 C542 1.395 . S
C544 C547 1.403 . S
C545 C542 1.403 1_665 S
C545 C546 1.524 . S
C545 C549 1.400 . S
C546 H531 0.960 . S
C546 H532 0.960 . S
C546 H533 0.960 . S
C546 C545 1.524 . S
C547 C544 1.403 . S
C547 C548 1.392 . S
C547 C551 1.495 . S
C548 C547 1.392 . S
C548 C549 1.385 1_445 S
C548 C550 1.478 . S
C549 H543 0.930 . S
C549 C545 1.400 . S
C549 C548 1.385 1_665 S
C550 C548 1.478 . S
C550 C552 1.387 . S
C550 C556 1.383 1_545 S
C551 C547 1.495 . S
C551 H557 0.959 . S
C551 H558 0.961 . S
C551 H559 0.960 . S
C552 C550 1.387 . S
C552 C553 1.394 1_455 S
C552 H560 0.925 1_455 S
C553 C552 1.394 1_655 S
C553 C554 1.383 1_655 S
C553 H561 0.929 . S
C554 C553 1.383 1_455 S
C554 C555 1.377 1_545 S
C555 H539 0.930 . S
C555 C554 1.377 1_565 S
C555 C556 1.379 . S
C556 H540 0.931 . S
C556 C550 1.383 1_565 S
C556 C555 1.379 . S
H557 C551 0.959 . S
H558 C551 0.961 . S
H559 C551 0.960 . S
H560 C552 0.925 1_655 S
H561 C553 0.929 . S
H562 C570 0.929 . S
H563 C572 0.930 . S
H564 C574 0.930 . S
H565 C577 0.929 . S
H566 C580 0.930 . S
H567 C582 0.960 . S
H568 C582 0.960 . S
H569 C582 0.960 . S
C570 H562 0.929 . S
C570 C571 1.377 . S
C570 C572 1.384 . S
C571 C570 1.377 . S
C571 C577 1.390 . S
C572 H563 0.930 . S
C572 C570 1.384 . S
C572 C573 1.372 . S
C573 C572 1.372 . S
C573 C574 1.400 . S
C573 C578 1.490 . S
C574 H564 0.930 . S
C574 C573 1.400 . S
C574 C577 1.386 . S
H575 C591 0.930 . S
H576 C592 0.931 . S
C577 H565 0.929 . S
C577 C571 1.390 . S
C577 C574 1.386 . S
C578 C573 1.490 . S
C578 C580 1.395 . S
C578 C581 1.403 . S
H579 C585 0.930 . S
C580 H566 0.930 . S
C580 C578 1.395 . S
C580 C583 1.403 . S
C581 C578 1.403 . S
C581 C582 1.524 . S
C581 C585 1.400 . S
C582 H567 0.960 . S
C582 H568 0.960 . S
C582 H569 0.960 . S
C582 C581 1.524 . S
C583 C580 1.403 . S
C583 C584 1.392 . S
C583 C587 1.495 . S
C584 C583 1.392 . S
C584 C585 1.385 . S
C584 C586 1.478 . S
C585 H579 0.930 . S
C585 C581 1.400 . S
C585 C584 1.385 . S
C586 C584 1.478 . S
C586 C588 1.381 . S
C586 C592 1.383 . S
C587 C583 1.495 . S
C587 H593 0.959 . S
C587 H594 0.961 . S
C587 H595 0.960 . S
C588 C586 1.381 . S
C588 C589 1.394 . S
C588 H596 0.930 . S
C589 C588 1.394 . S
C589 C590 1.383 . S
C589 H597 0.929 . S
C590 C589 1.383 . S
C590 C591 1.377 . S
C591 H575 0.930 . S
C591 C590 1.377 . S
C591 C592 1.379 . S
C592 H576 0.931 . S
C592 C586 1.383 . S
C592 C591 1.379 . S
H593 C587 0.959 . S
H594 C587 0.961 . S
H595 C587 0.960 . S
H596 C588 0.930 . S
H597 C589 0.929 . S
H598 C606 0.929 . S
H599 C608 0.930 . S
H600 C610 0.930 . S
H601 C613 0.929 . S
H602 C616 0.930 . S
H603 C618 0.960 . S
H604 C618 0.960 . S
H605 C618 0.960 . S
C606 H598 0.929 . S
C606 C607 1.377 . S
C606 C608 1.384 . S
C607 C606 1.377 . S
C607 C613 1.390 . S
C608 H599 0.930 . S
C608 C606 1.384 . S
C608 C609 1.372 . S
C609 C608 1.372 . S
C609 C610 1.400 . S
C609 C614 1.490 . S
C610 H600 0.930 . S
C610 C609 1.400 . S
C610 C613 1.386 . S
H611 C627 0.930 . S
H612 C628 0.931 . S
C613 H601 0.929 . S
C613 C607 1.390 . S
C613 C610 1.386 . S
C614 C609 1.490 . S
C614 C616 1.395 . S
C614 C617 1.403 . S
H615 C621 0.930 . S
C616 H602 0.930 . S
C616 C614 1.395 . S
C616 C619 1.403 . S
C617 C614 1.403 . S
C617 C618 1.524 . S
C617 C621 1.400 . S
C618 H603 0.960 . S
C618 H604 0.960 . S
C618 H605 0.960 . S
C618 C617 1.524 . S
C619 C616 1.403 . S
C619 C620 1.392 . S
C619 C623 1.495 . S
C620 C619 1.392 . S
C620 C621 1.385 . S
C620 C622 1.478 . S
C621 H615 0.930 . S
C621 C617 1.400 . S
C621 C620 1.385 . S
C622 C620 1.478 . S
C622 C624 1.381 . S
C622 C628 1.383 . S
C623 C619 1.495 . S
C623 H629 0.959 . S
C623 H630 0.961 . S
C623 H631 0.960 . S
C624 C622 1.381 . S
C624 C625 1.394 . S
C624 H632 0.930 . S
C625 C624 1.394 . S
C625 C626 1.383 . S
C625 H633 0.929 . S
C626 C625 1.383 . S
C626 C627 1.377 . S
C627 H611 0.930 . S
C627 C626 1.377 . S
C627 C628 1.379 . S
C628 H612 0.931 . S
C628 C622 1.383 . S
C628 C627 1.379 . S
H629 C623 0.959 . S
H630 C623 0.961 . S
H631 C623 0.960 . S
H632 C624 0.930 . S
H633 C625 0.929 . S
C230 C179 1.411 . S
C211 C21 1.417 . S
C247 C19 1.401 1_556 S
C266 C140 1.400 . S
C283 C18 1.367 . S
C302 C184 1.364 . S
C319 C20 1.391 1_556 S
C338 C145 1.376 . S
C355 C44 1.413 . S
C374 C101 1.400 . S
C391 C42 1.400 . S
C410 C62 1.388 . S
C446 C106 1.370 . S
C427 C41 1.365 . S
C482 C67 1.394 . S
C463 C43 1.394 . S
C499 C16 1.489 . S
C518 C47 1.486 1_545 S
C535 C17 1.447 . S
C554 C86 1.444 . S
C590 C125 1.487 . S
C571 C39 1.489 . S
C607 C40 1.447 . S
C626 C164 1.444 . S
