# Generated by pormake.
# Topology cml, (3,6)-cn, num edge types: 1
# Building blocks:
#     Node 0, Type 0, BuildingBlock: CUQRIR_clean_linker_1, # of connection points: 3
#     Node 1, Type 0, BuildingBlock: CUQRIR_clean_linker_1, # of connection points: 3
#     Node 2, Type 0, BuildingBlock: CUQRIR_clean_linker_1, # of connection points: 3
#     Node 3, Type 0, BuildingBlock: CUQRIR_clean_linker_1, # of connection points: 3
#     Node 4, Type 0, BuildingBlock: CUQRIR_clean_linker_1, # of connection points: 3
#     Node 5, Type 0, BuildingBlock: CUQRIR_clean_linker_1, # of connection points: 3
#     Node 6, Type 0, BuildingBlock: CUQRIR_clean_linker_1, # of connection points: 3
#     Node 7, Type 0, BuildingBlock: CUQRIR_clean_linker_1, # of connection points: 3
#     Node 8, Type 1, BuildingBlock: IZENUY_clean_sbu_0, # of connection points: 6
#     Node 9, Type 1, BuildingBlock: IZENUY_clean_sbu_0, # of connection points: 6
#     Node 10, Type 1, BuildingBlock: IZENUY_clean_sbu_0, # of connection points: 6
#     Node 11, Type 1, BuildingBlock: IZENUY_clean_sbu_0, # of connection points: 6
#     Edge 12, Type (0, 1), BuildingBlock: ZUJKAS_clean_linker_0, # of connection points: 2
#     Edge 13, Type (0, 1), BuildingBlock: ZUJKAS_clean_linker_0, # of connection points: 2
#     Edge 14, Type (0, 1), BuildingBlock: ZUJKAS_clean_linker_0, # of connection points: 2
#     Edge 15, Type (0, 1), BuildingBlock: ZUJKAS_clean_linker_0, # of connection points: 2
#     Edge 16, Type (0, 1), BuildingBlock: ZUJKAS_clean_linker_0, # of connection points: 2
#     Edge 17, Type (0, 1), BuildingBlock: ZUJKAS_clean_linker_0, # of connection points: 2
#     Edge 18, Type (0, 1), BuildingBlock: ZUJKAS_clean_linker_0, # of connection points: 2
#     Edge 19, Type (0, 1), BuildingBlock: ZUJKAS_clean_linker_0, # of connection points: 2
#     Edge 20, Type (0, 1), BuildingBlock: ZUJKAS_clean_linker_0, # of connection points: 2
#     Edge 21, Type (0, 1), BuildingBlock: ZUJKAS_clean_linker_0, # of connection points: 2
#     Edge 22, Type (0, 1), BuildingBlock: ZUJKAS_clean_linker_0, # of connection points: 2
#     Edge 23, Type (0, 1), BuildingBlock: ZUJKAS_clean_linker_0, # of connection points: 2
#     Edge 24, Type (0, 1), BuildingBlock: ZUJKAS_clean_linker_0, # of connection points: 2
#     Edge 25, Type (0, 1), BuildingBlock: ZUJKAS_clean_linker_0, # of connection points: 2
#     Edge 26, Type (0, 1), BuildingBlock: ZUJKAS_clean_linker_0, # of connection points: 2
#     Edge 27, Type (0, 1), BuildingBlock: ZUJKAS_clean_linker_0, # of connection points: 2
#     Edge 28, Type (0, 1), BuildingBlock: ZUJKAS_clean_linker_0, # of connection points: 2
#     Edge 29, Type (0, 1), BuildingBlock: ZUJKAS_clean_linker_0, # of connection points: 2
#     Edge 30, Type (0, 1), BuildingBlock: ZUJKAS_clean_linker_0, # of connection points: 2
#     Edge 31, Type (0, 1), BuildingBlock: ZUJKAS_clean_linker_0, # of connection points: 2
#     Edge 32, Type (0, 1), BuildingBlock: ZUJKAS_clean_linker_0, # of connection points: 2
#     Edge 33, Type (0, 1), BuildingBlock: ZUJKAS_clean_linker_0, # of connection points: 2
#     Edge 34, Type (0, 1), BuildingBlock: ZUJKAS_clean_linker_0, # of connection points: 2
#     Edge 35, Type (0, 1), BuildingBlock: ZUJKAS_clean_linker_0, # of connection points: 2
# Relax obj value: 0.001
# Max RMSD: 0.079
# Mean RMSD: 0.058
data_MOF--net-cml--node1-IZENUY_clean_sbu_0--node2-CUQRIR_clean_linker_1--edge1-ZUJKAS_clean_linker_0
_symmetry_space_group_name_H-M    P1
_symmetry_Int_Tables_number       1
_symmetry_cell_setting            triclinic
loop_
_symmetry_equiv_pos_as_xyz
'x, y, z'
_cell_length_a     45.787007
_cell_length_b     50.849507
_cell_length_c     43.638109
_cell_angle_alpha  89.972961
_cell_angle_beta   89.988644
_cell_angle_gamma 89.862382
loop_
_atom_site_label
_atom_site_type_symbol
_atom_site_fract_x
_atom_site_fract_y
_atom_site_fract_z
_atom_type_partial_charge
C0 C 0.26836 0.34817 0.02689 0.0
N1 N 0.28733 0.3684 0.0298 0.0
N2 N 0.25424 0.34949 0.99963 0.0
C3 C 0.26208 0.32822 0.05148 0.0
C4 C 0.26522 0.37135 0.98615 0.0
N5 N 0.28513 0.38293 1.00461 0.0
C6 C 0.25837 0.38011 0.95399 0.0
H7 H 0.27727 0.31135 0.04882 0.0
H8 H 0.23937 0.32084 0.04965 0.0
H9 H 0.2654 0.33683 0.07458 0.0
H10 H 0.25181 0.36321 0.93949 0.0
H11 H 0.27746 0.38996 0.94337 0.0
H12 H 0.24004 0.3944 0.95473 0.0
C13 C 0.74107 0.66338 0.52727 0.0
N14 N 0.72181 0.6433 0.52977 0.0
N15 N 0.75496 0.66242 0.49989 0.0
C16 C 0.74571 0.68435 0.55106 0.0
C17 C 0.74363 0.64101 0.48591 0.0
N18 N 0.72371 0.62926 0.50419 0.0
C19 C 0.75071 0.63248 0.45377 0.0
H20 H 0.73006 0.70065 0.54685 0.0
H21 H 0.76811 0.69248 0.5498 0.0
H22 H 0.7418 0.67646 0.57441 0.0
H23 H 0.77132 0.64146 0.44552 0.0
H24 H 0.73261 0.63856 0.4384 0.0
H25 H 0.75262 0.61076 0.45255 0.0
C26 C 0.74212 0.34715 0.03161 0.0
N27 N 0.72253 0.36712 0.03348 0.0
N28 N 0.75434 0.34634 1.0034 0.0
C29 C 0.74868 0.32793 0.05691 0.0
C30 C 0.74138 0.36629 0.98803 0.0
N31 N 0.72178 0.3788 1.0062 0.0
C32 C 0.74803 0.37353 0.95535 0.0
H33 H 0.76506 0.33672 0.07256 0.0
H34 H 0.75781 0.30929 0.04782 0.0
H35 H 0.72867 0.32364 0.07035 0.0
H36 H 0.73251 0.36317 0.94005 0.0
H37 H 0.77049 0.36751 0.94888 0.0
H38 H 0.74549 0.39502 0.95173 0.0
C39 C 0.27145 0.67078 0.52725 0.0
N40 N 0.29094 0.65091 0.53003 0.0
N41 N 0.25913 0.67065 0.49903 0.0
C42 C 0.26539 0.69091 0.55168 0.0
C43 C 0.27177 0.64982 0.48481 0.0
N44 N 0.29115 0.6378 0.5037 0.0
C45 C 0.26546 0.64165 0.45234 0.0
H46 H 0.24731 0.68375 0.56639 0.0
H47 H 0.25877 0.70998 0.54139 0.0
H48 H 0.28487 0.69392 0.56638 0.0
H49 H 0.27958 0.65318 0.43667 0.0
H50 H 0.24234 0.6458 0.4464 0.0
H51 H 0.27009 0.62054 0.44844 0.0
C52 C 0.76627 0.84783 0.02804 0.0
N53 N 0.7854 0.86794 0.03123 0.0
N54 N 0.75365 0.84854 1.00004 0.0
C55 C 0.75984 0.8275 0.05214 0.0
C56 C 0.76557 0.86978 0.98629 0.0
N57 N 0.78466 0.88181 1.00538 0.0
C58 C 0.75929 0.87823 0.9539 0.0
H59 H 0.77562 0.81104 0.04973 0.0
H60 H 0.73751 0.81944 0.04941 0.0
H61 H 0.76216 0.83596 0.07545 0.0
H62 H 0.74307 0.89447 0.95431 0.0
H63 H 0.75012 0.86193 0.9401 0.0
H64 H 0.77944 0.88561 0.94272 0.0
C65 C 0.24055 0.16344 0.53015 0.0
N66 N 0.22111 0.14347 0.53209 0.0
N67 N 0.25385 0.16346 0.5024 0.0
C68 C 0.24803 0.18178 0.55601 0.0
C69 C 0.24184 0.14275 0.48756 0.0
N70 N 0.22213 0.13043 0.5057 0.0
C71 C 0.24724 0.13619 0.45439 0.0
H72 H 0.23339 0.19917 0.55497 0.0
H73 H 0.27094 0.18864 0.55414 0.0
H74 H 0.24489 0.172 0.57851 0.0
H75 H 0.26509 0.12144 0.45293 0.0
H76 H 0.25389 0.15391 0.44131 0.0
H77 H 0.22742 0.12773 0.44365 0.0
C78 C 0.24149 0.84608 0.03044 0.0
N79 N 0.222 0.86608 0.03268 0.0
N80 N 0.25354 0.8454 1.00208 0.0
C81 C 0.24668 0.82568 0.05486 0.0
C82 C 0.24051 0.8656 0.98708 0.0
N83 N 0.22116 0.87805 1.00559 0.0
C84 C 0.24823 0.87431 0.95514 0.0
H85 H 0.2646 0.83241 0.07004 0.0
H86 H 0.25311 0.80656 0.04461 0.0
H87 H 0.22682 0.82277 0.06903 0.0
H88 H 0.23355 0.86438 0.93859 0.0
H89 H 0.27112 0.86899 0.94947 0.0
H90 H 0.24536 0.89588 0.95259 0.0
C91 C 0.76284 0.16337 0.53303 0.0
N92 N 0.78313 0.14406 0.53523 0.0
N93 N 0.75334 0.16573 0.50378 0.0
C94 C 0.75396 0.18125 0.55888 0.0
C95 C 0.76867 0.14726 0.48823 0.0
N96 N 0.78697 0.13416 0.50732 0.0
C97 C 0.76444 0.14109 0.45482 0.0
H98 H 0.73632 0.17163 0.5722 0.0
H99 H 0.74569 0.20036 0.55017 0.0
H100 H 0.77261 0.18483 0.57456 0.0
H101 H 0.78062 0.15233 0.44119 0.0
H102 H 0.74223 0.14684 0.44711 0.0
H103 H 0.76783 0.11982 0.45037 0.0
Fe104 Fe 0.00228 0.85747 0.33311 0.0
Fe105 Fe 1.00053 0.88663 0.39475 0.0
O106 O 1.00135 0.8873 0.35411 0.0
Fe107 Fe 1.00135 0.91785 0.33448 0.0
O108 O 0.96758 0.91 0.31465 0.0
O109 O 0.98087 0.87017 0.30074 0.0
O110 O 0.96807 0.84659 0.34975 0.0
C111 C 0.96317 0.84456 0.37809 0.0
C112 C 0.04029 0.88666 0.29897 0.0
O113 O 0.97924 0.85618 0.3974 0.0
C114 C 0.03853 0.92923 0.38159 0.0
O115 O 0.0239 0.83936 0.36164 0.0
O116 O 0.0349 0.86886 0.39653 0.0
O117 O 0.02347 0.90627 0.30206 0.0
O118 O 0.03656 0.86618 0.31481 0.0
C119 C 0.96242 0.92698 0.38425 0.0
O120 O 0.02165 0.91695 0.39955 0.0
O121 O 0.03515 0.92784 0.35292 0.0
C122 C 0.04004 0.84729 0.3833 0.0
O123 O 0.96615 0.90453 0.396 0.0
O124 O 0.9792 0.93512 0.36322 0.0
C125 C 0.96405 0.88987 0.29813 0.0
Fe126 Fe 0.00686 0.12608 0.89603 0.0
Fe127 Fe 0.00437 0.09508 0.8357 0.0
O128 O 0.00539 0.12556 0.8554 0.0
Fe129 Fe 0.00483 0.15556 0.8346 0.0
O130 O 0.03958 0.16566 0.85065 0.0
O131 O 0.02864 0.15624 0.8984 0.0
O132 O 0.04097 0.10781 0.89655 0.0
C133 C 0.04431 0.08542 0.88456 0.0
C134 C 0.96804 0.16607 0.88553 0.0
O135 O 0.02711 0.07749 0.86377 0.0
C136 C 0.96524 0.12718 0.80143 0.0
O137 O 0.98546 0.09599 0.90129 0.0
O138 O 0.97091 0.08542 0.85499 0.0
O139 O 0.98414 0.17389 0.86375 0.0
O140 O 0.97279 0.14425 0.89838 0.0
C141 C 0.04133 0.1226 0.79831 0.0
O142 O 0.98144 0.10709 0.80411 0.0
O143 O 0.97012 0.14769 0.81684 0.0
C144 C 0.9681 0.08394 0.8837 0.0
O145 O 0.03773 0.10248 0.81483 0.0
O146 O 0.02525 0.1427 0.80167 0.0
C147 C 0.04482 0.16753 0.87893 0.0
Fe148 Fe 0.50251 0.35632 0.33404 0.0
Fe149 Fe 0.50254 0.38597 0.39533 0.0
O150 O 0.50161 0.38641 0.35466 0.0
Fe151 Fe 0.5 0.41671 0.33452 0.0
O152 O 0.46614 0.40769 0.3156 0.0
O153 O 0.48048 0.36825 0.30178 0.0
O154 O 0.46881 0.34542 0.35174 0.0
C155 C 0.46483 0.34365 0.38028 0.0
C156 C 0.53932 0.38584 0.29885 0.0
O157 O 0.48163 0.35531 0.39892 0.0
C158 C 0.53863 0.42939 0.38024 0.0
O159 O 0.52474 0.33849 0.36233 0.0
O160 O 0.53729 0.36872 0.39557 0.0
O161 O 0.52207 0.4052 0.30196 0.0
O162 O 0.53627 0.36535 0.31491 0.0
C163 C 0.46254 0.42521 0.38567 0.0
O164 O 0.52332 0.41649 0.39907 0.0
O165 O 0.53372 0.42822 0.35182 0.0
C166 C 0.54176 0.34679 0.38299 0.0
O167 O 0.46811 0.40347 0.39834 0.0
O168 O 0.47765 0.43355 0.3634 0.0
C169 C 0.46312 0.38752 0.29912 0.0
Fe170 Fe 0.50672 0.62575 0.89441 0.0
Fe171 Fe 0.50671 0.59488 0.83377 0.0
O172 O 0.50619 0.62527 0.85377 0.0
Fe173 Fe 0.50503 0.65524 0.83303 0.0
O174 O 0.5393 0.66604 0.84958 0.0
O175 O 0.52804 0.6562 0.8972 0.0
O176 O 0.5411 0.60794 0.89584 0.0
C177 C 0.5454 0.58573 0.88376 0.0
C178 C 0.46739 0.66521 0.88332 0.0
O179 O 0.52909 0.57759 0.86233 0.0
C180 C 0.46703 0.62601 0.79909 0.0
O181 O 0.4855 0.59547 0.89889 0.0
O182 O 0.47313 0.5842 0.85197 0.0
O183 O 0.48361 0.67325 0.86179 0.0
O184 O 0.47232 0.64345 0.89616 0.0
C185 C 0.54335 0.62348 0.79743 0.0
O186 O 0.48431 0.60661 0.80153 0.0
O187 O 0.47066 0.64641 0.81508 0.0
C188 C 0.46908 0.58311 0.88056 0.0
O189 O 0.54038 0.60334 0.81405 0.0
O190 O 0.5262 0.64291 0.8003 0.0
C191 C 0.54417 0.66789 0.87796 0.0
H192 H 0.20129 0.36092 0.97606 0.0
H193 H 0.16626 0.32984 0.95383 0.0
H194 H 0.22514 0.26568 0.97377 0.0
H195 H 0.26063 0.29698 0.99472 0.0
H196 H 0.20227 0.26191 0.91652 0.0
H197 H 0.11394 0.28018 1.00089 0.0
H198 H 0.12583 0.30939 0.98151 0.0
H199 H 0.15067 0.29205 1.00632 0.0
C200 C 0.20666 0.34018 0.9755 0.0
C201 C 0.23343 0.3312 0.9872 0.0
C202 C 0.1866 0.32243 0.96312 0.0
C203 C 0.19286 0.29538 0.96265 0.0
C204 C 0.21977 0.28644 0.9741 0.0
H205 H 0.06703 0.17092 0.93675 0.0
H206 H 0.10404 0.20126 0.95573 0.0
C207 C 0.2399 0.30422 0.98626 0.0
C208 C 0.17154 0.27637 0.94991 0.0
H209 H 0.10174 0.25396 0.95777 0.0
C210 C 0.1803 0.2601 0.92557 0.0
C211 C 0.14302 0.27381 0.96202 0.0
C212 C 0.13284 0.28959 0.98932 0.0
C213 C 0.16123 0.24147 0.91284 0.0
C214 C 0.13242 0.23949 0.92433 0.0
C215 C 0.12375 0.25565 0.9488 0.0
C216 C 0.11104 0.22032 0.912 0.0
C217 C 0.17237 0.22368 0.88773 0.0
C218 C 0.10269 0.22087 0.88104 0.0
C219 C 0.08166 0.20334 0.87 0.0
C220 C 0.06826 0.18522 0.88988 0.0
C221 C 0.0768 0.18468 0.92084 0.0
C222 C 0.09796 0.20203 0.93175 0.0
H223 H 0.19661 0.22265 0.88757 0.0
H224 H 0.16362 0.20345 0.89028 0.0
H225 H 0.1652 0.23151 0.86521 0.0
H226 H 0.11201 0.2352 0.86552 0.0
H227 H 0.07543 0.2044 0.84609 0.0
H228 H 0.81034 0.67078 0.51754 0.0
H229 H 0.84482 0.7027 0.49542 0.0
H230 H 0.77876 0.72759 0.43107 0.0
H231 H 0.74438 0.69576 0.45348 0.0
H232 H 0.86376 0.70609 0.43272 0.0
H233 H 0.80701 0.79678 0.4721 0.0
H234 H 0.79989 0.76483 0.48854 0.0
H235 H 0.78466 0.77345 0.45197 0.0
C236 C 0.80335 0.6833 0.49883 0.0
C237 C 0.77491 0.68126 0.48725 0.0
C238 C 0.82292 0.70135 0.48617 0.0
C239 C 0.81419 0.71769 0.46187 0.0
C240 C 0.78575 0.71546 0.45012 0.0
H241 H 0.92911 0.81082 0.34443 0.0
H242 H 0.8923 0.78005 0.36364 0.0
C243 C 0.76624 0.69733 0.46274 0.0
C244 C 0.83502 0.73677 0.44853 0.0
H245 H 0.84766 0.80246 0.43929 0.0
C246 C 0.86025 0.72716 0.43407 0.0
C247 C 0.83043 0.76422 0.4506 0.0
C248 C 0.80417 0.77556 0.46684 0.0
C249 C 0.88102 0.74433 0.42147 0.0
C250 C 0.87625 0.77177 0.42319 0.0
C251 C 0.85108 0.78138 0.43778 0.0
C252 C 0.89782 0.79086 0.41123 0.0
C253 C 0.90824 0.73302 0.40704 0.0
C254 C 0.91258 0.80751 0.43156 0.0
C255 C 0.93358 0.82508 0.42071 0.0
C256 C 0.9401 0.82649 0.38923 0.0
C257 C 0.92475 0.81017 0.36881 0.0
C258 C 0.9038 0.79249 0.37974 0.0
H259 H 0.91134 0.71194 0.41294 0.0
H260 H 0.90656 0.73467 0.38174 0.0
H261 H 0.92786 0.74413 0.41444 0.0
H262 H 0.90816 0.80662 0.45593 0.0
H263 H 0.94481 0.83746 0.43709 0.0
H264 H 0.81171 0.35452 0.99559 0.0
H265 H 0.84772 0.32299 0.97519 0.0
H266 H 0.7797 0.26497 0.96553 0.0
H267 H 0.74384 0.29676 0.98561 0.0
H268 H 0.86309 0.27307 0.9978 0.0
H269 H 0.81751 0.26693 0.88009 0.0
H270 H 0.80752 0.2927 0.90658 0.0
H271 H 0.79165 0.26055 0.91014 0.0
C272 C 0.8047 0.33501 0.98897 0.0
C273 C 0.77532 0.32782 0.99189 0.0
C274 C 0.82511 0.31706 0.97743 0.0
C275 C 0.8163 0.29175 0.96848 0.0
C276 C 0.78686 0.28453 0.97177 0.0
H277 H 0.93123 0.15767 0.93424 0.0
H278 H 0.89413 0.18766 0.95465 0.0
C279 C 0.76649 0.3025 0.98332 0.0
C280 C 0.83801 0.27285 0.95609 0.0
H281 H 0.85554 0.23704 0.89247 0.0
C282 C 0.86147 0.26517 0.97478 0.0
C283 C 0.83598 0.26283 0.92593 0.0
C284 C 0.81198 0.27131 0.90436 0.0
C285 C 0.88286 0.24753 0.9642 0.0
C286 C 0.88047 0.23703 0.93429 0.0
C287 C 0.85715 0.24491 0.9155 0.0
C288 C 0.9025 0.21853 0.92168 0.0
C289 C 0.90818 0.2407 0.98489 0.0
C290 C 0.91897 0.22566 0.89589 0.0
C291 C 0.94009 0.20856 0.88408 0.0
C292 C 0.94509 0.18387 0.89775 0.0
C293 C 0.92813 0.17659 0.92328 0.0
C294 C 0.90701 0.19375 0.93509 0.0
H295 H 0.91045 0.25498 1.00401 0.0
H296 H 0.90457 0.22093 0.99496 0.0
H297 H 0.92897 0.24015 0.97181 0.0
H298 H 0.91572 0.24464 0.88511 0.0
H299 H 0.95259 0.2148 0.86432 0.0
H300 H 0.20692 0.68221 0.52411 0.0
H301 H 0.17016 0.713 0.50421 0.0
H302 H 0.22558 0.72949 0.42658 0.0
H303 H 0.2628 0.6995 0.44729 0.0
H304 H 0.20233 0.77412 0.45084 0.0
H305 H 0.11517 0.70021 0.4332 0.0
H306 H 0.12865 0.70092 0.47179 0.0
H307 H 0.15253 0.69113 0.44107 0.0
C308 C 0.21116 0.69256 0.50289 0.0
C309 C 0.23746 0.68846 0.48706 0.0
C310 C 0.19011 0.70989 0.49136 0.0
C311 C 0.19487 0.72317 0.46358 0.0
C312 C 0.22134 0.71929 0.44792 0.0
H313 H 0.06076 0.80217 0.35705 0.0
H314 H 0.09921 0.77309 0.37606 0.0
C315 C 0.24246 0.70207 0.45957 0.0
C316 C 0.17249 0.74146 0.45111 0.0
H317 H 0.10122 0.74512 0.42841 0.0
C318 C 0.18025 0.76778 0.44582 0.0
C319 C 0.14379 0.73307 0.44415 0.0
C320 C 0.13457 0.70474 0.44754 0.0
C321 C 0.15999 0.78602 0.43419 0.0
C322 C 0.13099 0.77786 0.42833 0.0
C323 C 0.12336 0.75145 0.43322 0.0
C324 C 0.10829 0.79619 0.41657 0.0
C325 C 0.17004 0.81371 0.4277 0.0
C326 C 0.10047 0.81885 0.43308 0.0
C327 C 0.07858 0.83567 0.42214 0.0
C328 C 0.06378 0.82995 0.3947 0.0
C329 C 0.07162 0.80717 0.37831 0.0
C330 C 0.09361 0.79049 0.38915 0.0
H331 H 0.19415 0.81475 0.42506 0.0
H332 H 0.1597 0.82159 0.40658 0.0
H333 H 0.1638 0.82659 0.44717 0.0
H334 H 0.111 0.82334 0.45466 0.0
H335 H 0.07298 0.85294 0.43544 0.0
H336 H 0.69627 0.8455 0.01179 0.0
H337 H 0.66147 0.81384 0.98977 0.0
H338 H 0.73125 0.77896 0.93701 0.0
H339 H 0.7659 0.81049 0.95947 0.0
H340 H 0.64745 0.80563 0.92774 0.0
H341 H 0.69435 0.71576 0.98112 0.0
H342 H 0.7033 0.74847 0.99408 0.0
H343 H 0.72003 0.73541 0.96008 0.0
C344 C 0.70393 0.83092 0.99558 0.0
C345 C 0.73345 0.83006 0.98724 0.0
C346 C 0.68422 0.81297 0.98301 0.0
C347 C 0.69388 0.79387 0.96205 0.0
C348 C 0.72345 0.79323 0.95353 0.0
H349 H 0.5809 0.69924 0.8442 0.0
H350 H 0.61793 0.72971 0.86349 0.0
C351 C 0.74314 0.81118 0.96615 0.0
C352 C 0.67287 0.77489 0.94882 0.0
H353 H 0.65675 0.70947 0.94459 0.0
C354 C 0.64946 0.78459 0.93137 0.0
C355 C 0.67546 0.74751 0.95388 0.0
C356 C 0.69947 0.73609 0.97352 0.0
C357 C 0.62857 0.7676 0.91871 0.0
C358 C 0.63145 0.74018 0.92331 0.0
C359 C 0.6548 0.73049 0.94086 0.0
C360 C 0.60967 0.72129 0.91132 0.0
C361 C 0.6032 0.77918 0.90119 0.0
C362 C 0.59334 0.70598 0.93179 0.0
C363 C 0.5723 0.6885 0.92089 0.0
C364 C 0.56723 0.68588 0.88923 0.0
C365 C 0.58409 0.70089 0.86872 0.0
C366 C 0.60516 0.71841 0.87969 0.0
H367 H 0.60066 0.80058 0.90557 0.0
H368 H 0.60692 0.77639 0.87627 0.0
H369 H 0.58249 0.76915 0.90735 0.0
H370 H 0.5966 0.70783 0.95629 0.0
H371 H 0.55987 0.67718 0.93737 0.0
H372 H 0.30575 0.15181 0.47663 0.0
H373 H 0.34131 0.18295 0.45543 0.0
H374 H 0.2855 0.24763 0.48171 0.0
H375 H 0.24945 0.21633 0.5017 0.0
H376 H 0.30632 0.25333 0.42379 0.0
H377 H 0.39721 0.22905 0.50288 0.0
H378 H 0.38354 0.20098 0.48258 0.0
H379 H 0.3603 0.21798 0.50932 0.0
C380 C 0.30119 0.17269 0.47774 0.0
C381 C 0.27509 0.1818 0.49087 0.0
C382 C 0.32156 0.19045 0.46595 0.0
C383 C 0.31631 0.21765 0.46748 0.0
C384 C 0.2901 0.22674 0.48048 0.0
H385 H 0.44634 0.33895 0.43953 0.0
H386 H 0.40937 0.30916 0.45988 0.0
C387 C 0.26966 0.20896 0.49209 0.0
C388 C 0.3378 0.2366 0.45491 0.0
H389 H 0.40886 0.25622 0.46023 0.0
C390 C 0.32872 0.25405 0.43183 0.0
C391 C 0.3669 0.23775 0.4657 0.0
C392 C 0.37754 0.22063 0.49169 0.0
C393 C 0.34806 0.2724 0.41897 0.0
C394 C 0.37745 0.27289 0.42899 0.0
C395 C 0.38641 0.25565 0.45234 0.0
C396 C 0.39919 0.29146 0.41609 0.0
C397 C 0.33664 0.29143 0.39525 0.0
C398 C 0.40586 0.29138 0.38468 0.0
C399 C 0.42687 0.30857 0.37288 0.0
C400 C 0.44193 0.32589 0.39238 0.0
C401 C 0.43524 0.32583 0.42385 0.0
C402 C 0.41411 0.3088 0.43556 0.0
H403 H 0.31251 0.29348 0.39653 0.0
H404 H 0.34659 0.31117 0.39807 0.0
H405 H 0.34223 0.28402 0.37206 0.0
H406 H 0.39512 0.27776 0.36933 0.0
H407 H 0.43162 0.30797 0.34857 0.0
H408 H 0.24947 0.81667 0.95031 0.0
H409 H 0.28562 0.78537 0.93033 0.0
H410 H 0.34099 0.80058 0.00831 0.0
H411 H 0.30533 0.83274 0.02749 0.0
H412 H 0.37169 0.80022 0.95564 0.0
H413 H 0.30153 0.71169 0.96082 0.0
H414 H 0.28581 0.73779 0.93855 0.0
H415 H 0.29156 0.74229 0.979 0.0
C416 C 0.26949 0.81339 0.96296 0.0
C417 C 0.27473 0.82698 0.9904 0.0
C418 C 0.28993 0.7953 0.9518 0.0
C419 C 0.31577 0.79022 0.96814 0.0
C420 C 0.32111 0.80402 0.99544 0.0
H421 H 0.43479 0.65913 0.93563 0.0
H422 H 0.39834 0.68949 0.95655 0.0
C423 C 0.30076 0.82223 1.00647 0.0
C424 C 0.33762 0.7711 0.95638 0.0
H425 H 0.34655 0.70724 0.93385 0.0
C426 C 0.36622 0.77986 0.95101 0.0
C427 C 0.3306 0.74443 0.95078 0.0
C428 C 0.30079 0.73338 0.95787 0.0
C429 C 0.38785 0.76283 0.93968 0.0
C430 C 0.38051 0.73645 0.93283 0.0
C431 C 0.35206 0.72754 0.93875 0.0
C432 C 0.4021 0.71776 0.91968 0.0
C433 C 0.41849 0.77319 0.9357 0.0
C434 C 0.41587 0.72328 0.89168 0.0
C435 C 0.43684 0.70609 0.87978 0.0
C436 C 0.44424 0.68282 0.89545 0.0
C437 C 0.42972 0.67692 0.92303 0.0
C438 C 0.40886 0.69425 0.93502 0.0
H439 H 0.42238 0.79086 0.95009 0.0
H440 H 0.43499 0.758 0.94169 0.0
H441 H 0.4218 0.77892 0.91141 0.0
H442 H 0.41042 0.74094 0.87901 0.0
H443 H 0.4473 0.71109 0.85829 0.0
H444 H 0.76441 0.2021 0.46065 0.0
H445 H 0.73023 0.23512 0.44039 0.0
H446 H 0.66229 0.20411 0.49865 0.0
H447 H 0.69696 0.17178 0.51954 0.0
H448 H 0.68153 0.23027 0.40923 0.0
H449 H 0.65581 0.28065 0.51828 0.0
H450 H 0.68519 0.25714 0.51494 0.0
H451 H 0.64816 0.24613 0.52025 0.0
C452 C 0.74216 0.20256 0.46906 0.0
C453 C 0.73312 0.18471 0.49162 0.0
C454 C 0.72269 0.22135 0.45759 0.0
C455 C 0.69379 0.22249 0.46841 0.0
C456 C 0.68466 0.2042 0.4906 0.0
H457 H 0.54813 0.29403 0.3733 0.0
H458 H 0.58586 0.26492 0.39357 0.0
C459 C 0.70428 0.18564 0.50234 0.0
C460 C 0.67304 0.24224 0.45575 0.0
H461 H 0.62412 0.28997 0.47605 0.0
C462 C 0.66915 0.24346 0.42385 0.0
C463 C 0.65728 0.25987 0.47471 0.0
C464 C 0.66204 0.26111 0.5089 0.0
C465 C 0.64946 0.26129 0.41047 0.0
C466 C 0.63242 0.2778 0.42957 0.0
C467 C 0.63687 0.27709 0.4614 0.0
C468 C 0.60957 0.29568 0.41709 0.0
C469 C 0.64752 0.26247 0.37597 0.0
C470 C 0.60965 0.32259 0.4244 0.0
C471 C 0.58769 0.33926 0.41331 0.0
C472 C 0.56528 0.32935 0.39458 0.0
C473 C 0.56525 0.30239 0.38735 0.0
C474 C 0.58696 0.28571 0.39876 0.0
H475 H 0.66809 0.25554 0.36508 0.0
H476 H 0.62967 0.2494 0.36809 0.0
H477 H 0.64289 0.28275 0.36786 0.0
H478 H 0.62676 0.33072 0.43865 0.0
H479 H 0.58834 0.35993 0.41929 0.0
H480 H 0.34333 0.38287 0.99731 0.0
H481 H 0.3734 0.41941 0.97855 0.0
H482 H 0.29698 0.46932 0.9761 0.0
H483 H 0.26694 0.43226 0.99368 0.0
H484 H 0.32592 0.47371 0.9249 0.0
H485 H 0.40494 0.48301 0.02 0.0
H486 H 0.40475 0.45031 1.0047 0.0
H487 H 0.37248 0.46316 0.02307 0.0
C488 C 0.33327 0.40185 0.9932 0.0
C489 C 0.3031 0.40509 0.99696 0.0
C490 C 0.35036 0.42272 0.98266 0.0
C491 C 0.33757 0.44731 0.97638 0.0
C492 C 0.30738 0.4506 0.98087 0.0
H493 H 0.44408 0.58497 0.93711 0.0
H494 H 0.41005 0.55356 0.95977 0.0
C495 C 0.29027 0.4296 0.99097 0.0
C496 C 0.35522 0.46902 0.96318 0.0
H497 H 0.41809 0.50397 0.97276 0.0
C498 C 0.34592 0.48052 0.93556 0.0
C499 C 0.3811 0.47821 0.97725 0.0
C500 C 0.39122 0.46822 0.00805 0.0
C501 C 0.36207 0.50051 0.92129 0.0
C502 C 0.38882 0.50862 0.93444 0.0
C503 C 0.39778 0.49755 0.96242 0.0
C504 C 0.40793 0.52854 0.9197 0.0
C505 C 0.34996 0.51298 0.89257 0.0
C506 C 0.41796 0.52509 0.88952 0.0
C507 C 0.43705 0.54331 0.87631 0.0
C508 C 0.44702 0.56496 0.89332 0.0
C509 C 0.43687 0.56842 0.92346 0.0
C510 C 0.41744 0.55046 0.93646 0.0
H511 H 0.32582 0.511 0.8914 0.0
H512 H 0.35556 0.53418 0.89124 0.0
H513 H 0.35928 0.50289 0.87225 0.0
H514 H 0.41162 0.50798 0.87639 0.0
H515 H 0.44476 0.53994 0.85317 0.0
H516 H 0.66687 0.63269 0.49005 0.0
H517 H 0.63576 0.5972 0.47026 0.0
H518 H 0.70757 0.54258 0.47962 0.0
H519 H 0.73869 0.57846 0.49849 0.0
H520 H 0.68255 0.53828 0.42468 0.0
H521 H 0.59629 0.53739 0.51361 0.0
H522 H 0.60076 0.5692 0.49653 0.0
H523 H 0.63013 0.555 0.51846 0.0
C524 C 0.67562 0.61295 0.48821 0.0
C525 C 0.70486 0.60797 0.49569 0.0
C526 C 0.65795 0.59271 0.47709 0.0
C527 C 0.6692 0.56711 0.47384 0.0
C528 C 0.69839 0.56213 0.48199 0.0
H529 H 0.56228 0.43009 0.43748 0.0
H530 H 0.59552 0.46254 0.45919 0.0
C531 C 0.71609 0.58246 0.49281 0.0
C532 C 0.65111 0.54586 0.46036 0.0
H533 H 0.58612 0.51373 0.46761 0.0
C534 C 0.66155 0.53277 0.43419 0.0
C535 C 0.62386 0.53848 0.47297 0.0
C536 C 0.61222 0.55056 0.50212 0.0
C537 C 0.64532 0.51278 0.42003 0.0
C538 C 0.61754 0.50616 0.43189 0.0
C539 C 0.60729 0.519 0.45832 0.0
C540 C 0.59885 0.48567 0.41771 0.0
C541 C 0.6584 0.49861 0.39291 0.0
C542 C 0.58981 0.48772 0.38702 0.0
C543 C 0.57101 0.46896 0.37437 0.0
C544 C 0.56049 0.4481 0.39239 0.0
C545 C 0.56985 0.44599 0.423 0.0
C546 C 0.58884 0.46455 0.43548 0.0
H547 H 0.68258 0.50046 0.39245 0.0
H548 H 0.6527 0.4774 0.39315 0.0
H549 H 0.64977 0.50741 0.37146 0.0
H550 H 0.59671 0.50417 0.37304 0.0
H551 H 0.564 0.47128 0.35082 0.0
H552 H 0.68383 0.38078 0.95929 0.0
H553 H 0.65623 0.41929 0.94156 0.0
H554 H 0.69076 0.46481 0.01659 0.0
H555 H 0.7187 0.42612 0.03413 0.0
H556 H 0.6283 0.47126 1.0045 0.0
H557 H 0.69649 0.48359 0.9004 0.0
H558 H 0.68245 0.45093 0.90559 0.0
H559 H 0.708 0.46405 0.93282 0.0
C560 C 0.68548 0.39906 0.97187 0.0
C561 C 0.7036 0.40078 0.9977 0.0
C562 C 0.66979 0.42098 0.9618 0.0
C563 C 0.67194 0.44502 0.97741 0.0
C564 C 0.68902 0.44648 1.00409 0.0
H565 H 0.57993 0.59321 0.93462 0.0
H566 H 0.61271 0.5612 0.95886 0.0
C567 C 0.70483 0.42448 0.01413 0.0
C568 C 0.65666 0.46856 0.96532 0.0
H569 H 0.65186 0.50774 0.90195 0.0
C570 C 0.63363 0.47953 0.98227 0.0
C571 C 0.66381 0.4793 0.93638 0.0
C572 C 0.68921 0.46906 0.91781 0.0
C573 C 0.61656 0.50015 0.97031 0.0
C574 C 0.62313 0.51031 0.94089 0.0
C575 C 0.64682 0.49989 0.92445 0.0
C576 C 0.60449 0.53041 0.92578 0.0
C577 C 0.59085 0.51009 0.98863 0.0
C578 C 0.58983 0.52405 0.89857 0.0
C579 C 0.5713 0.54228 0.88457 0.0
C580 C 0.56706 0.56738 0.89741 0.0
C581 C 0.58254 0.57403 0.92418 0.0
C582 C 0.60113 0.5557 0.93821 0.0
H583 H 0.5853 0.4967 0.00789 0.0
H584 H 0.5962 0.52965 0.99837 0.0
H585 H 0.57132 0.5124 0.97378 0.0
H586 H 0.59226 0.5047 0.88848 0.0
H587 H 0.55989 0.53647 0.86392 0.0
H588 H 0.27094 0.58881 0.49484 0.0
H589 H 0.2991 0.55044 0.4778 0.0
H590 H 0.37823 0.59638 0.48219 0.0
H591 H 0.34941 0.63516 0.49605 0.0
H592 H 0.37899 0.57177 0.43298 0.0
H593 H 0.34775 0.49838 0.5201 0.0
H594 H 0.31596 0.51067 0.50093 0.0
H595 H 0.33801 0.5326 0.52369 0.0
C596 C 0.2944 0.59042 0.49239 0.0
C597 C 0.3082 0.61466 0.49717 0.0
C598 C 0.31057 0.56846 0.48304 0.0
C599 C 0.34104 0.57015 0.47937 0.0
C600 C 0.35483 0.59437 0.48504 0.0
H601 H 0.45316 0.43376 0.44652 0.0
H602 H 0.42332 0.46858 0.46955 0.0
C603 C 0.3385 0.61647 0.49346 0.0
C604 C 0.35821 0.54751 0.46711 0.0
H605 H 0.36951 0.4813 0.47407 0.0
C606 C 0.37711 0.55207 0.4423 0.0
C607 C 0.35625 0.52174 0.47935 0.0
C608 C 0.33864 0.51564 0.5077 0.0
C609 C 0.39381 0.53178 0.42929 0.0
C610 C 0.39034 0.5057 0.44014 0.0
C611 C 0.37178 0.50114 0.46525 0.0
C612 C 0.40644 0.48312 0.42633 0.0
C613 C 0.41563 0.53889 0.4047 0.0
C614 C 0.40612 0.47893 0.39448 0.0
C615 C 0.42382 0.45957 0.38128 0.0
C616 C 0.44116 0.44324 0.39979 0.0
C617 C 0.43986 0.44606 0.43178 0.0
C618 C 0.42284 0.46598 0.44492 0.0
H619 H 0.42256 0.55975 0.40663 0.0
H620 H 0.43542 0.52627 0.40593 0.0
H621 H 0.40538 0.5364 0.38185 0.0
H622 H 0.39275 0.49108 0.37968 0.0
H623 H 0.42422 0.45754 0.35657 0.0
H624 H 0.84341 0.88386 0.00747 0.0
H625 H 0.87443 0.9204 0.99035 0.0
H626 H 0.79739 0.9655 0.96779 0.0
H627 H 0.7666 0.92941 0.98617 0.0
H628 H 0.87706 0.94006 0.93305 0.0
H629 H 0.84506 0.01938 0.01332 0.0
H630 H 0.83591 0.98534 0.01989 0.0
H631 H 0.81433 1.00505 0.99413 0.0
C632 C 0.83329 0.90189 0.99956 0.0
C633 C 0.80278 0.90402 0.99808 0.0
C634 C 0.85091 0.92263 0.9896 0.0
C635 C 0.83824 0.94581 0.97805 0.0
C636 C 0.80769 0.94807 0.97716 0.0
H637 H 0.92602 0.05493 0.85426 0.0
H638 H 0.89347 0.02205 0.87688 0.0
C639 C 0.79012 0.92742 0.98732 0.0
C640 C 0.85689 0.96682 0.96496 0.0
H641 H 0.87165 0.03252 0.96879 0.0
C642 C 0.87602 0.96025 0.94099 0.0
C643 C 0.85568 0.99311 0.97551 0.0
C644 C 0.83686 1.00112 1.00233 0.0
C645 C 0.89372 0.97929 0.92702 0.0
C646 C 0.89168 1.00577 0.93676 0.0
C647 C 0.87285 0.01229 0.96102 0.0
C648 C 0.90994 0.02678 0.92306 0.0
C649 C 0.9149 0.97071 0.90244 0.0
C650 C 0.92909 0.04113 0.94168 0.0
C651 C 0.94738 0.06013 0.92893 0.0
C652 C 0.94698 0.06517 0.89721 0.0
C653 C 0.9271 0.05134 0.8787 0.0
C654 C 0.90862 0.03243 0.89157 0.0
H655 H 0.91928 0.94923 0.90346 0.0
H656 H 0.90545 0.97518 0.8796 0.0
H657 H 0.93598 0.98131 0.90452 0.0
H658 H 0.93036 0.03721 0.96605 0.0
H659 H 0.96231 0.07044 0.94394 0.0
H660 H 0.16329 0.12817 0.50734 0.0
H661 H 0.1325 0.09194 0.48899 0.0
H662 H 0.2098 0.04792 0.46462 0.0
H663 H 0.24039 0.08368 0.4842 0.0
H664 H 0.12958 0.07326 0.43121 0.0
H665 H 0.1631 0.99287 0.50942 0.0
H666 H 0.17193 0.02687 0.51667 0.0
H667 H 0.19348 0.00781 0.49024 0.0
C668 C 0.17354 0.11044 0.49875 0.0
C669 C 0.20406 0.10848 0.49724 0.0
C670 C 0.15604 0.08988 0.48807 0.0
C671 C 0.16885 0.06707 0.47574 0.0
C672 C 0.19941 0.06504 0.47463 0.0
H673 H 0.07965 0.95895 0.35147 0.0
H674 H 0.11239 0.99184 0.37375 0.0
C675 C 0.21686 0.0855 0.48551 0.0
C676 C 0.1503 0.04614 0.46233 0.0
H677 H 0.13602 0.98031 0.46509 0.0
C678 C 0.13086 0.05296 0.43872 0.0
C679 C 0.15183 0.0197 0.47233 0.0
C680 C 0.17099 0.01139 0.49876 0.0
C681 C 0.1131 0.03403 0.42463 0.0
C682 C 0.1154 0.00742 0.43387 0.0
C683 C 0.13461 1.00065 0.45771 0.0
C684 C 0.09693 0.98653 0.42024 0.0
C685 C 0.09156 0.04285 0.40053 0.0
C686 C 0.07827 0.97188 0.43911 0.0
C687 C 0.05989 0.95288 0.42655 0.0
C688 C 0.05969 0.94812 0.39477 0.0
C689 C 0.07904 0.9623 0.37598 0.0
C690 C 0.09762 0.98123 0.38865 0.0
H691 H 0.08715 0.06432 0.40193 0.0
H692 H 0.10068 0.03866 0.37748 0.0
H693 H 0.07053 0.0322 0.4028 0.0
H694 H 0.07747 0.97553 0.46355 0.0
H695 H 0.04539 0.94231 0.44179 0.0
H696 H 0.18319 0.88037 0.9588 0.0
H697 H 0.15406 0.91849 0.94267 0.0
H698 H 0.18822 0.96324 0.01855 0.0
H699 H 0.21791 0.92506 0.03425 0.0
H700 H 0.11133 0.94689 0.97566 0.0
H701 H 0.20565 0.00994 0.94323 0.0
H702 H 0.20924 0.97495 0.94923 0.0
H703 H 0.20602 0.9967 0.98145 0.0
C704 C 0.18448 0.89843 0.97186 0.0
C705 C 0.20287 0.90005 0.99747 0.0
C706 C 0.16782 0.9201 0.96278 0.0
C707 C 0.16934 0.94382 0.97912 0.0
C708 C 0.18714 0.94527 1.00529 0.0
H709 H 0.08019 0.09241 0.93449 0.0
H710 H 0.111 0.05922 0.95948 0.0
C711 C 0.20384 0.9235 0.0144 0.0
C712 C 0.15217 0.96684 0.96844 0.0
H713 H 0.15859 0.02788 0.93632 0.0
C714 C 0.12165 0.96466 0.96724 0.0
C715 C 0.16569 0.99005 0.9576 0.0
C716 C 0.19846 0.99314 0.95766 0.0
C717 C 0.1043 0.98489 0.95503 0.0
C718 C 0.11787 0.0077 0.94318 0.0
C719 C 0.1483 0.01031 0.94531 0.0
C720 C 0.10081 0.02836 0.92714 0.0
C721 C 0.07154 0.98162 0.95481 0.0
C722 C 0.08569 0.02222 0.90015 0.0
C723 C 0.06817 0.04105 0.8858 0.0
C724 C 0.06545 0.06653 0.89809 0.0
C725 C 0.08166 0.07297 0.92446 0.0
C726 C 0.09926 0.05404 0.93881 0.0
H727 H 0.06428 0.96689 0.97199 0.0
H728 H 0.06036 1.00059 0.95955 0.0
H729 H 0.06455 0.97468 0.93185 0.0
H730 H 0.08712 1.00267 0.89039 0.0
H731 H 0.05626 0.03542 0.8654 0.0
H732 H 0.82789 0.13326 0.46297 0.0
H733 H 0.85707 0.09524 0.44658 0.0
H734 H 0.81862 0.04853 0.51856 0.0
H735 H 0.78878 0.08648 0.53428 0.0
H736 H 0.8976 0.06467 0.47835 0.0
H737 H 0.80229 1.00479 0.44163 0.0
H738 H 0.79942 0.03952 0.44965 0.0
H739 H 0.80137 0.01623 0.48056 0.0
C740 C 0.8257 0.11481 0.47512 0.0
C741 C 0.80593 0.11253 0.49953 0.0
C742 C 0.8424 0.09318 0.46591 0.0
C743 C 0.83959 0.06891 0.48097 0.0
C744 C 0.82067 0.06691 0.5062 0.0
H745 H 0.92719 0.91972 0.43474 0.0
H746 H 0.8968 0.9529 0.46043 0.0
C747 C 0.80391 0.08858 0.51537 0.0
C748 C 0.85636 0.0458 0.46984 0.0
H749 H 0.84888 0.98544 0.43625 0.0
C750 C 0.88695 0.04729 0.46931 0.0
C751 C 0.8424 0.02309 0.45814 0.0
C752 C 0.80956 0.02075 0.45722 0.0
C753 C 0.90396 0.02688 0.45698 0.0
C754 C 0.88999 1.00455 0.44447 0.0
C755 C 0.85947 1.00262 0.44586 0.0
C756 C 0.90674 0.9839 0.42814 0.0
C757 C 0.93679 0.02943 0.45726 0.0
C758 C 0.92154 0.99016 0.40101 0.0
C759 C 0.93874 0.97135 0.38625 0.0
C760 C 0.94151 0.94578 0.39831 0.0
C761 C 0.92565 0.93923 0.42488 0.0
C762 C 0.90832 0.95815 0.43963 0.0
H763 H 0.94422 0.04403 0.4745 0.0
H764 H 0.94735 0.01022 0.46221 0.0
H765 H 0.9443 0.03613 0.43437 0.0
H766 H 0.92013 0.0098 0.39146 0.0
H767 H 0.95039 0.97709 0.36571 0.0
H768 H 0.29007 0.4132 0.06269 0.0
H769 H 0.32045 0.4213 0.10827 0.0
H770 H 0.35657 0.34314 0.10044 0.0
H771 H 0.32671 0.3354 0.05468 0.0
H772 H 0.3196 0.39229 0.16346 0.0
H773 H 0.42917 0.38944 0.10965 0.0
H774 H 0.39605 0.39374 0.08771 0.0
H775 H 0.40707 0.36148 0.10018 0.0
C776 C 0.30488 0.39802 0.07059 0.0
C777 C 0.30618 0.3737 0.05545 0.0
C778 C 0.32205 0.40256 0.09659 0.0
C779 C 0.34097 0.38291 0.10754 0.0
C780 C 0.34249 0.35872 0.09211 0.0
H781 H 0.45167 0.34767 0.25908 0.0
H782 H 0.4207 0.34893 0.21368 0.0
C783 C 0.32531 0.3542 0.06622 0.0
C784 C 0.35819 0.38703 0.13591 0.0
H785 H 0.42764 0.38484 0.16418 0.0
C786 C 0.34325 0.39105 0.16363 0.0
C787 C 0.38902 0.38546 0.136 0.0
C788 C 0.40632 0.38255 0.10675 0.0
C789 C 0.3583 0.39228 0.19168 0.0
C790 C 0.38905 0.38976 0.19184 0.0
C791 C 0.40402 0.3866 0.164 0.0
C792 C 0.40615 0.38897 0.22067 0.0
C793 C 0.34115 0.39518 0.22101 0.0
C794 C 0.40799 0.41102 0.23991 0.0
C795 C 0.42574 0.4104 0.26606 0.0
C796 C 0.44206 0.38772 0.27327 0.0
C797 C 0.43952 0.3655 0.25425 0.0
C798 C 0.42185 0.36617 0.22821 0.0
H799 H 0.31741 0.3919 0.21744 0.0
H800 H 0.34915 0.38109 0.23858 0.0
H801 H 0.34414 0.41535 0.23013 0.0
H802 H 0.39632 0.42893 0.23428 0.0
H803 H 0.42725 0.42788 0.28013 0.0
H804 H 0.71847 0.59851 0.56248 0.0
H805 H 0.68735 0.59031 0.6075 0.0
H806 H 0.65116 0.6684 0.59902 0.0
H807 H 0.68174 0.67622 0.55378 0.0
H808 H 0.68741 0.61899 0.66258 0.0
H809 H 0.57849 0.62231 0.60746 0.0
H810 H 0.61185 0.61816 0.58588 0.0
H811 H 0.60068 0.65033 0.5985 0.0
C812 C 0.70349 0.61366 0.57012 0.0
C813 C 0.70244 0.638 0.555 0.0
C814 C 0.68589 0.60906 0.5958 0.0
C815 C 0.66675 0.62866 0.60644 0.0
C816 C 0.66542 0.65285 0.59095 0.0
H817 H 0.55467 0.66328 0.75723 0.0
H818 H 0.58572 0.66211 0.71188 0.0
C819 C 0.68302 0.65742 0.56536 0.0
C820 C 0.64917 0.62449 0.63458 0.0
H821 H 0.57939 0.6266 0.66205 0.0
C822 C 0.66376 0.62027 0.66247 0.0
C823 C 0.61833 0.62611 0.63432 0.0
C824 C 0.60137 0.62922 0.60489 0.0
C825 C 0.64839 0.61887 0.69032 0.0
C826 C 0.61764 0.62142 0.69014 0.0
C827 C 0.603 0.62481 0.66214 0.0
C828 C 0.60022 0.62205 0.7188 0.0
C829 C 0.66522 0.61577 0.71983 0.0
C830 C 0.59826 0.59992 0.73795 0.0
C831 C 0.58046 0.6005 0.76408 0.0
C832 C 0.5642 0.62319 0.77137 0.0
C833 C 0.56676 0.64544 0.75236 0.0
C834 C 0.58448 0.64482 0.72634 0.0
H835 H 0.68899 0.6191 0.71657 0.0
H836 H 0.657 0.62971 0.73744 0.0
H837 H 0.66215 0.59552 0.72872 0.0
H838 H 0.60995 0.58203 0.73232 0.0
H839 H 0.57893 0.58299 0.77813 0.0
H840 H 0.66371 0.36971 0.03451 0.0
H841 H 0.63258 0.37661 0.0797 0.0
H842 H 0.70949 0.38368 0.13624 0.0
H843 H 0.74038 0.37794 0.09085 0.0
H844 H 0.62942 0.34557 0.12958 0.0
H845 H 0.66215 0.4457 0.16534 0.0
H846 H 0.67136 0.43232 0.12826 0.0
H847 H 0.69276 0.42387 0.16145 0.0
C848 C 0.67379 0.37339 0.05653 0.0
C849 C 0.7043 0.37335 0.0594 0.0
C850 C 0.6561 0.37713 0.08232 0.0
C851 C 0.66868 0.38094 0.11136 0.0
C852 C 0.69924 0.38133 0.11406 0.0
H853 H 0.58114 0.34885 0.28497 0.0
H854 H 0.61334 0.34791 0.24018 0.0
C855 C 0.71687 0.37777 0.08825 0.0
C856 C 0.64994 0.38275 0.13908 0.0
H857 H 0.63549 0.42046 0.20207 0.0
C858 C 0.63061 0.36203 0.14533 0.0
C859 C 0.65129 0.40434 0.15949 0.0
C860 C 0.67029 0.42794 0.15317 0.0
C861 C 0.61291 0.36211 0.17161 0.0
C862 C 0.61514 0.38318 0.19267 0.0
C863 C 0.63412 0.40411 0.18617 0.0
C864 C 0.59709 0.38437 0.22093 0.0
C865 C 0.59156 0.33988 0.17618 0.0
C866 C 0.5782 0.40573 0.22574 0.0
C867 C 0.5601 0.40652 0.25149 0.0
C868 C 0.56043 0.3859 0.27303 0.0
C869 C 0.5801 0.36492 0.2687 0.0
C870 C 0.59837 0.36426 0.24298 0.0
H871 H 0.58691 0.32946 0.15435 0.0
H872 H 0.60101 0.32539 0.19242 0.0
H873 H 0.57062 0.34716 0.18585 0.0
H874 H 0.57696 0.42156 0.20915 0.0
H875 H 0.54533 0.42304 0.25407 0.0
H876 H 0.27097 0.62863 0.58162 0.0
H877 H 0.29786 0.62314 0.63005 0.0
H878 H 0.37531 0.65424 0.58693 0.0
H879 H 0.34775 0.66122 0.53948 0.0
H880 H 0.34433 0.59565 0.64719 0.0
H881 H 0.36915 0.70143 0.65968 0.0
H882 H 0.34419 0.68929 0.63107 0.0
H883 H 0.38302 0.68868 0.62426 0.0
C884 C 0.29383 0.63395 0.58268 0.0
C885 C 0.30766 0.64468 0.55691 0.0
C886 C 0.30915 0.6309 0.6102 0.0
C887 C 0.33851 0.63869 0.61232 0.0
C888 C 0.35254 0.64862 0.58611 0.0
H889 H 0.46481 0.59376 0.74918 0.0
H890 H 0.43143 0.59629 0.70582 0.0
C891 C 0.33706 0.65203 0.55881 0.0
C892 C 0.35437 0.63677 0.64196 0.0
H893 H 0.39618 0.67208 0.69188 0.0
C894 C 0.35546 0.61241 0.6571 0.0
C895 C 0.36828 0.65879 0.65539 0.0
C896 C 0.36584 0.68606 0.64193 0.0
C897 C 0.37092 0.60926 0.68468 0.0
C898 C 0.38652 0.63086 0.69695 0.0
C899 C 0.38458 0.65541 0.68234 0.0
C900 C 0.40572 0.62837 0.7243 0.0
C901 C 0.36998 0.58288 0.70051 0.0
C902 C 0.403 0.64602 0.74894 0.0
C903 C 0.42255 0.645 0.77357 0.0
C904 C 0.44511 0.62621 0.77412 0.0
C905 C 0.44746 0.60828 0.74969 0.0
C906 C 0.42821 0.60957 0.72491 0.0
H907 H 0.34967 0.57205 0.69473 0.0
H908 H 0.38873 0.57076 0.69266 0.0
H909 H 0.37127 0.58499 0.72579 0.0
H910 H 0.38592 0.6608 0.74895 0.0
H911 H 0.42014 0.65907 0.79203 0.0
H912 H 0.82361 0.83501 0.05812 0.0
H913 H 0.8514 0.84284 0.10527 0.0
H914 H 0.81584 0.92134 0.11052 0.0
H915 H 0.78771 0.91327 0.0633 0.0
H916 H 0.87819 0.91681 0.1223 0.0
H917 H 0.81263 0.8468 0.19122 0.0
H918 H 0.82653 0.83325 0.15611 0.0
H919 H 0.80034 0.85962 0.15482 0.0
C920 C 0.82171 0.85385 0.0695 0.0
C921 C 0.8033 0.87341 0.05758 0.0
C922 C 0.83753 0.85833 0.09632 0.0
C923 C 0.83519 0.88248 0.11169 0.0
C924 C 0.81772 0.9025 0.09912 0.0
H925 H 0.92877 0.93077 0.27936 0.0
H926 H 0.89542 0.9314 0.23537 0.0
C927 C 0.80179 0.89795 0.07224 0.0
C928 C 0.85083 0.88646 0.14104 0.0
H929 H 0.85742 0.86131 0.21326 0.0
C930 C 0.87346 0.90498 0.14237 0.0
C931 C 0.84445 0.87105 0.16717 0.0
C932 C 0.81948 0.85172 0.16748 0.0
C933 C 0.89091 0.90752 0.16872 0.0
C934 C 0.88515 0.89142 0.19449 0.0
C935 C 0.86183 0.87359 0.19346 0.0
C936 C 0.90437 0.89124 0.22185 0.0
C937 C 0.91618 0.9265 0.16829 0.0
C938 C 0.91974 0.86825 0.22936 0.0
C939 C 0.93859 0.86775 0.25447 0.0
C940 C 0.94247 0.89026 0.27276 0.0
C941 C 0.92643 0.91313 0.26569 0.0
C942 C 0.90751 0.91359 0.24044 0.0
H943 H 0.92101 0.93371 0.14479 0.0
H944 H 0.91081 0.94374 0.18283 0.0
H945 H 0.93616 0.91711 0.17776 0.0
H946 H 0.91751 0.85073 0.21543 0.0
H947 H 0.95042 0.84975 0.25927 0.0
H948 H 0.183 0.17623 0.55925 0.0
H949 H 0.153 0.16722 0.60462 0.0
H950 H 0.18664 0.08792 0.60758 0.0
H951 H 0.21718 0.09727 0.56239 0.0
H952 H 0.10984 0.12805 0.61319 0.0
H953 H 0.20254 0.11659 0.69472 0.0
H954 H 0.20687 0.13149 0.65743 0.0
H955 H 0.20355 0.09645 0.66087 0.0
C956 C 0.18401 0.15697 0.56978 0.0
C957 C 0.20249 0.13751 0.55776 0.0
C958 C 0.16685 0.15177 0.59551 0.0
C959 C 0.16793 0.12703 0.60974 0.0
C960 C 0.18587 0.10729 0.59727 0.0
H961 H 0.07571 0.0813 0.77885 0.0
H962 H 0.1066 0.07967 0.73289 0.0
C963 C 0.20307 0.11252 0.57143 0.0
C964 C 0.15018 0.12224 0.63761 0.0
H965 H 0.15507 0.11244 0.71495 0.0
C966 C 0.11971 0.12443 0.6354 0.0
C967 C 0.16313 0.11739 0.66653 0.0
C968 C 0.19582 0.11549 0.67029 0.0
C969 C 0.10184 0.12244 0.66142 0.0
C970 C 0.11483 0.11862 0.6905 0.0
C971 C 0.14522 0.11544 0.69262 0.0
C972 C 0.09731 0.11968 0.71906 0.0
C973 C 0.06917 0.12465 0.65759 0.0
C974 C 0.0826 0.14292 0.72692 0.0
C975 C 0.06508 0.14396 0.75305 0.0
C976 C 0.06192 0.12176 0.77204 0.0
C977 C 0.07753 0.09871 0.76469 0.0
C978 C 0.09516 0.09773 0.73844 0.0
H979 H 0.06232 0.12 0.63378 0.0
H980 H 0.05757 0.11128 0.6736 0.0
H981 H 0.06225 0.14512 0.66269 0.0
H982 H 0.08449 0.16027 0.71263 0.0
H983 H 0.05365 0.16213 0.75808 0.0
H984 H 0.16319 0.86961 0.03433 0.0
H985 H 0.13264 0.87667 0.07991 0.0
H986 H 0.21018 0.88155 0.13581 0.0
H987 H 0.24054 0.87563 0.09004 0.0
H988 H 0.12904 0.84533 0.12948 0.0
H989 H 0.16485 0.94441 0.16594 0.0
H990 H 0.17336 0.93112 0.12865 0.0
H991 H 0.19479 0.92192 0.16155 0.0
C992 C 0.17355 0.87285 0.05629 0.0
C993 C 0.20409 0.87222 0.05886 0.0
C994 C 0.15619 0.87667 0.0823 0.0
C995 C 0.16911 0.87995 0.11127 0.0
C996 C 0.19969 0.87966 0.11369 0.0
H997 H 0.08116 0.84884 0.28502 0.0
H998 H 0.11341 0.84739 0.24027 0.0
C999 C 0.21701 0.87603 0.08767 0.0
C1000 C 0.15066 0.88196 0.13917 0.0
H1001 H 0.13767 0.91956 0.20258 0.0
C1002 C 0.1308 0.86165 0.14537 0.0
C1003 C 0.15276 0.90337 0.15976 0.0
C1004 C 0.17237 0.92657 0.15352 0.0
C1005 C 0.11326 0.86196 0.17177 0.0
C1006 C 0.1162 0.88284 0.19299 0.0
C1007 C 0.13575 0.90336 0.18656 0.0
C1008 C 0.09825 0.88433 0.22129 0.0
C1009 C 0.09129 0.8402 0.17627 0.0
C1010 C 0.08002 0.90612 0.22624 0.0
C1011 C 0.06191 0.90719 0.25197 0.0
C1012 C 0.06158 0.88643 0.27333 0.0
C1013 C 0.08064 0.86503 0.26889 0.0
C1014 C 0.09894 0.86408 0.2432 0.0
H1015 H 0.08628 0.82999 0.1544 0.0
H1016 H 0.10038 0.82543 0.1924 0.0
H1017 H 0.07059 0.84792 0.18606 0.0
H1018 H 0.07925 0.92206 0.20977 0.0
H1019 H 0.04761 0.92403 0.25465 0.0
H1020 H 0.76467 0.12547 0.58959 0.0
H1021 H 0.79419 0.11969 0.63617 0.0
H1022 H 0.87063 0.14558 0.58679 0.0
H1023 H 0.84112 0.15026 0.54009 0.0
H1024 H 0.88425 0.10623 0.62328 0.0
H1025 H 0.82002 0.17892 0.6898 0.0
H1026 H 0.79818 0.15208 0.67635 0.0
H1027 H 0.81487 0.17414 0.64923 0.0
C1028 C 0.78785 0.1296 0.58887 0.0
C1029 C 0.80082 0.13834 0.56162 0.0
C1030 C 0.80463 0.12658 0.61542 0.0
C1031 C 0.8345 0.1329 0.61525 0.0
C1032 C 0.84761 0.14075 0.58759 0.0
H1033 H 0.94125 0.17029 0.77336 0.0
H1034 H 0.90909 0.17087 0.72862 0.0
C1035 C 0.83088 0.14337 0.56096 0.0
C1036 C 0.85212 0.13168 0.64385 0.0
H1037 H 0.85561 0.1545 0.7174 0.0
C1038 C 0.878 0.11681 0.64385 0.0
C1039 C 0.84428 0.1459 0.67055 0.0
C1040 C 0.818 0.16388 0.67146 0.0
C1041 C 0.89617 0.11567 0.66975 0.0
C1042 C 0.88771 0.12901 0.69685 0.0
C1043 C 0.8619 0.14398 0.6968 0.0
C1044 C 0.90586 0.12849 0.72511 0.0
C1045 C 0.92471 0.10088 0.66735 0.0
C1046 C 0.91404 0.10453 0.73866 0.0
C1047 C 0.93277 0.10415 0.76396 0.0
C1048 C 0.94313 0.12775 0.77668 0.0
C1049 C 0.93364 0.15177 0.76412 0.0
C1050 C 0.91529 0.15211 0.7385 0.0
H1051 H 0.93184 0.09875 0.64313 0.0
H1052 H 0.9423 0.11094 0.68031 0.0
H1053 H 0.92191 0.08084 0.67695 0.0
H1054 H 0.90627 0.08607 0.72943 0.0
H1055 H 0.93937 0.08534 0.77338 0.0
loop_
_geom_bond_atom_site_label_1
_geom_bond_atom_site_label_2
_geom_bond_distance
_geom_bond_site_symmetry_2
_ccdc_geom_bond_type
C0 N1 1.317 . S
C0 N2 1.348 . S
C0 C3 1.485 . S
N1 C0 1.317 . S
N1 N5 1.370 . S
N2 C0 1.348 . S
N2 C4 1.346 1_554 S
C3 C0 1.485 . S
C3 H7 0.960 . S
C3 H8 0.961 . S
C3 H9 0.960 . S
C4 N2 1.346 1_556 S
C4 N5 1.307 1_556 S
C4 C6 1.486 . S
N5 N1 1.370 . S
N5 C4 1.307 1_554 S
C6 C4 1.486 . S
C6 H10 0.960 . S
C6 H11 0.960 . S
C6 H12 0.959 . S
H7 C3 0.960 . S
H8 C3 0.961 . S
H9 C3 0.960 . S
H10 C6 0.960 . S
H11 C6 0.960 . S
H12 C6 0.959 . S
C13 N14 1.317 . S
C13 N15 1.348 . S
C13 C16 1.485 . S
N14 C13 1.317 . S
N14 N18 1.370 . S
N15 C13 1.348 . S
N15 C17 1.346 . S
C16 C13 1.485 . S
C16 H20 0.960 . S
C16 H21 0.961 . S
C16 H22 0.960 . S
C17 N15 1.346 . S
C17 N18 1.307 . S
C17 C19 1.486 . S
N18 N14 1.370 . S
N18 C17 1.307 . S
C19 C17 1.486 . S
C19 H23 0.960 . S
C19 H24 0.960 . S
C19 H25 0.959 . S
H20 C16 0.960 . S
H21 C16 0.961 . S
H22 C16 0.960 . S
H23 C19 0.960 . S
H24 C19 0.960 . S
H25 C19 0.959 . S
C26 N27 1.317 . S
C26 N28 1.358 . S
C26 C29 1.485 . S
N27 C26 1.317 . S
N27 N31 1.370 . S
N28 C26 1.358 . S
N28 C30 1.341 1_554 S
C29 C26 1.485 . S
C29 H33 0.960 . S
C29 H34 0.961 . S
C29 H35 0.960 . S
C30 N28 1.341 1_556 S
C30 N31 1.307 1_556 S
C30 C32 1.486 . S
N31 N27 1.370 . S
N31 C30 1.307 1_554 S
C32 C30 1.486 . S
C32 H36 0.960 . S
C32 H37 0.960 . S
C32 H38 0.959 . S
H33 C29 0.960 . S
H34 C29 0.961 . S
H35 C29 0.960 . S
H36 C32 0.960 . S
H37 C32 0.960 . S
H38 C32 0.959 . S
C39 N40 1.317 . S
C39 N41 1.348 . S
C39 C42 1.485 . S
N40 C39 1.317 . S
N40 N44 1.370 . S
N41 C39 1.348 . S
N41 C43 1.346 . S
C42 C39 1.485 . S
C42 H46 0.960 . S
C42 H47 0.961 . S
C42 H48 0.960 . S
C43 N41 1.346 . S
C43 N44 1.307 . S
C43 C45 1.486 . S
N44 N40 1.370 . S
N44 C43 1.307 . S
C45 C43 1.486 . S
C45 H49 0.960 . S
C45 H50 0.960 . S
C45 H51 0.959 . S
H46 C42 0.960 . S
H47 C42 0.961 . S
H48 C42 0.960 . S
H49 C45 0.960 . S
H50 C45 0.960 . S
H51 C45 0.959 . S
C52 N53 1.317 . S
C52 N54 1.348 . S
C52 C55 1.485 . S
N53 C52 1.317 . S
N53 N57 1.370 . S
N54 C52 1.348 . S
N54 C56 1.346 1_554 S
C55 C52 1.485 . S
C55 H59 0.960 . S
C55 H60 0.961 . S
C55 H61 0.960 . S
C56 N54 1.346 1_556 S
C56 N57 1.307 1_556 S
C56 C58 1.486 . S
N57 N53 1.370 . S
N57 C56 1.307 1_554 S
C58 C56 1.486 . S
C58 H62 0.960 . S
C58 H63 0.960 . S
C58 H64 0.959 . S
H59 C55 0.960 . S
H60 C55 0.961 . S
H61 C55 0.960 . S
H62 C58 0.960 . S
H63 C58 0.960 . S
H64 C58 0.959 . S
C65 N66 1.317 . S
C65 N67 1.348 . S
C65 C68 1.485 . S
N66 C65 1.317 . S
N66 N70 1.370 . S
N67 C65 1.348 . S
N67 C69 1.346 . S
C68 C65 1.485 . S
C68 H72 0.960 . S
C68 H73 0.961 . S
C68 H74 0.960 . S
C69 N67 1.346 . S
C69 N70 1.307 . S
C69 C71 1.486 . S
N70 N66 1.370 . S
N70 C69 1.307 . S
C71 C69 1.486 . S
C71 H75 0.960 . S
C71 H76 0.960 . S
C71 H77 0.959 . S
H72 C68 0.960 . S
H73 C68 0.961 . S
H74 C68 0.960 . S
H75 C71 0.960 . S
H76 C71 0.960 . S
H77 C71 0.959 . S
C78 N79 1.317 . S
C78 N80 1.358 . S
C78 C81 1.485 . S
N79 C78 1.317 . S
N79 N83 1.370 . S
N80 C78 1.358 . S
N80 C82 1.341 1_554 S
C81 C78 1.485 . S
C81 H85 0.960 . S
C81 H86 0.961 . S
C81 H87 0.960 . S
C82 N80 1.341 1_556 S
C82 N83 1.307 1_556 S
C82 C84 1.486 . S
N83 N79 1.370 . S
N83 C82 1.307 1_554 S
C84 C82 1.486 . S
C84 H88 0.960 . S
C84 H89 0.960 . S
C84 H90 0.959 . S
H85 C81 0.960 . S
H86 C81 0.961 . S
H87 C81 0.960 . S
H88 C84 0.960 . S
H89 C84 0.960 . S
H90 C84 0.959 . S
C91 N92 1.317 . S
C91 N93 1.348 . S
C91 C94 1.485 . S
N92 C91 1.317 . S
N92 N96 1.370 . S
N93 C91 1.348 . S
N93 C95 1.346 . S
C94 C91 1.485 . S
C94 H98 0.960 . S
C94 H99 0.961 . S
C94 H100 0.960 . S
C95 N93 1.346 . S
C95 N96 1.307 . S
C95 C97 1.486 . S
N96 N92 1.370 . S
N96 C95 1.307 . S
C97 C95 1.486 . S
C97 H101 0.960 . S
C97 H102 0.960 . S
C97 H103 0.959 . S
H98 C94 0.960 . S
H99 C94 0.961 . S
H100 C94 0.960 . S
H101 C97 0.960 . S
H102 C97 0.960 . S
H103 C97 0.959 . S
Fe104 O106 1.918 . S
Fe104 O109 1.997 1_455 S
Fe104 O110 2.002 1_455 S
Fe104 O115 1.976 . S
Fe104 O118 1.996 . S
Fe105 O106 1.918 . S
Fe105 O113 1.997 1_455 S
Fe105 O116 1.996 . S
Fe105 O120 1.976 . S
Fe105 O123 2.002 1_455 S
O106 Fe104 1.918 . S
O106 Fe105 1.918 . S
O106 Fe107 1.918 . S
Fe107 O106 1.918 . S
Fe107 O108 2.002 1_455 S
Fe107 O117 1.976 . S
Fe107 O121 1.996 . S
Fe107 O124 1.997 1_455 S
O108 Fe107 2.002 1_655 S
O108 C125 1.295 . S
O109 Fe104 1.997 1_655 S
O109 C125 1.235 . S
O110 Fe104 2.002 1_655 S
O110 C111 1.295 . S
C111 O110 1.295 . S
C111 O113 1.235 . S
C112 O117 1.287 . S
C112 O118 1.255 . S
O113 Fe105 1.997 1_655 S
O113 C111 1.235 . S
C114 O120 1.287 . S
C114 O121 1.255 . S
O115 Fe104 1.976 . S
O115 C122 1.287 . S
O116 Fe105 1.996 . S
O116 C122 1.255 . S
O117 Fe107 1.976 . S
O117 C112 1.287 . S
O118 Fe104 1.996 . S
O118 C112 1.255 . S
C119 O123 1.295 . S
C119 O124 1.235 . S
O120 Fe105 1.976 . S
O120 C114 1.287 . S
O121 Fe107 1.996 . S
O121 C114 1.255 . S
C122 O115 1.287 . S
C122 O116 1.255 . S
O123 Fe105 2.002 1_655 S
O123 C119 1.295 . S
O124 Fe107 1.997 1_655 S
O124 C119 1.235 . S
C125 O108 1.295 . S
C125 O109 1.235 . S
Fe126 O128 1.919 . S
Fe126 O131 1.985 1_655 S
Fe126 O132 1.990 1_655 S
Fe126 O137 1.988 . S
Fe126 O140 2.008 . S
Fe127 O128 1.919 . S
Fe127 O135 1.984 1_655 S
Fe127 O138 2.008 . S
Fe127 O142 1.988 . S
Fe127 O145 1.990 1_655 S
O128 Fe126 1.919 . S
O128 Fe127 1.919 . S
O128 Fe129 1.918 . S
Fe129 O128 1.918 . S
Fe129 O130 1.989 1_655 S
Fe129 O139 1.989 . S
Fe129 O143 2.008 . S
Fe129 O146 1.984 1_655 S
O130 Fe129 1.989 1_455 S
O130 C147 1.295 . S
O131 Fe126 1.985 1_455 S
O131 C147 1.235 . S
O132 Fe126 1.990 1_455 S
O132 C133 1.295 . S
C133 O132 1.295 . S
C133 O135 1.235 . S
C134 O139 1.287 . S
C134 O140 1.255 . S
O135 Fe127 1.984 1_455 S
O135 C133 1.235 . S
C136 O142 1.287 . S
C136 O143 1.255 . S
O137 Fe126 1.988 . S
O137 C144 1.287 . S
O138 Fe127 2.008 . S
O138 C144 1.255 . S
O139 Fe129 1.989 . S
O139 C134 1.287 . S
O140 Fe126 2.008 . S
O140 C134 1.255 . S
C141 O145 1.295 . S
C141 O146 1.235 . S
O142 Fe127 1.988 . S
O142 C136 1.287 . S
O143 Fe129 2.008 . S
O143 C136 1.255 . S
C144 O137 1.287 . S
C144 O138 1.255 . S
O145 Fe127 1.990 1_455 S
O145 C141 1.295 . S
O146 Fe129 1.984 1_455 S
O146 C141 1.235 . S
C147 O130 1.295 . S
C147 O131 1.235 . S
Fe148 O150 1.918 . S
Fe148 O153 1.997 . S
Fe148 O154 2.002 . S
Fe148 O159 1.976 . S
Fe148 O162 1.996 . S
Fe149 O150 1.918 . S
Fe149 O157 1.997 . S
Fe149 O160 1.996 . S
Fe149 O164 1.976 . S
Fe149 O167 2.002 . S
O150 Fe148 1.918 . S
O150 Fe149 1.918 . S
O150 Fe151 1.918 . S
Fe151 O150 1.918 . S
Fe151 O152 2.002 . S
Fe151 O161 1.976 . S
Fe151 O165 1.996 . S
Fe151 O168 1.997 . S
O152 Fe151 2.002 . S
O152 C169 1.295 . S
O153 Fe148 1.997 . S
O153 C169 1.235 . S
O154 Fe148 2.002 . S
O154 C155 1.295 . S
C155 O154 1.295 . S
C155 O157 1.235 . S
C156 O161 1.287 . S
C156 O162 1.255 . S
O157 Fe149 1.997 . S
O157 C155 1.235 . S
C158 O164 1.287 . S
C158 O165 1.255 . S
O159 Fe148 1.976 . S
O159 C166 1.287 . S
O160 Fe149 1.996 . S
O160 C166 1.255 . S
O161 Fe151 1.976 . S
O161 C156 1.287 . S
O162 Fe148 1.996 . S
O162 C156 1.255 . S
C163 O167 1.295 . S
C163 O168 1.235 . S
O164 Fe149 1.976 . S
O164 C158 1.287 . S
O165 Fe151 1.996 . S
O165 C158 1.255 . S
C166 O159 1.287 . S
C166 O160 1.255 . S
O167 Fe149 2.002 . S
O167 C163 1.295 . S
O168 Fe151 1.997 . S
O168 C163 1.235 . S
C169 O152 1.295 . S
C169 O153 1.235 . S
Fe170 O172 1.918 . S
Fe170 O175 1.997 . S
Fe170 O176 2.002 . S
Fe170 O181 1.976 . S
Fe170 O184 1.996 . S
Fe171 O172 1.918 . S
Fe171 O179 1.997 . S
Fe171 O182 1.996 . S
Fe171 O186 1.976 . S
Fe171 O189 2.002 . S
O172 Fe170 1.918 . S
O172 Fe171 1.918 . S
O172 Fe173 1.918 . S
Fe173 O172 1.918 . S
Fe173 O174 2.002 . S
Fe173 O183 1.976 . S
Fe173 O187 1.996 . S
Fe173 O190 1.997 . S
O174 Fe173 2.002 . S
O174 C191 1.295 . S
O175 Fe170 1.997 . S
O175 C191 1.235 . S
O176 Fe170 2.002 . S
O176 C177 1.295 . S
C177 O176 1.295 . S
C177 O179 1.235 . S
C178 O183 1.287 . S
C178 O184 1.255 . S
O179 Fe171 1.997 . S
O179 C177 1.235 . S
C180 O186 1.287 . S
C180 O187 1.255 . S
O181 Fe170 1.976 . S
O181 C188 1.287 . S
O182 Fe171 1.996 . S
O182 C188 1.255 . S
O183 Fe173 1.976 . S
O183 C178 1.287 . S
O184 Fe170 1.996 . S
O184 C178 1.255 . S
C185 O189 1.295 . S
C185 O190 1.235 . S
O186 Fe171 1.976 . S
O186 C180 1.287 . S
O187 Fe173 1.996 . S
O187 C180 1.255 . S
C188 O181 1.287 . S
C188 O182 1.255 . S
O189 Fe171 2.002 . S
O189 C185 1.295 . S
O190 Fe173 1.997 . S
O190 C185 1.235 . S
C191 O174 1.295 . S
C191 O175 1.235 . S
H192 C200 0.929 . S
H193 C202 0.930 . S
H194 C204 0.930 1_554 S
H195 C207 0.929 . S
H196 C210 0.930 . S
H197 C212 0.960 . S
H198 C212 0.960 . S
H199 C212 0.960 1_554 S
C200 H192 0.929 . S
C200 C201 1.377 . S
C200 C202 1.384 . S
C201 C200 1.377 . S
C201 C207 1.390 1_556 S
C202 H193 0.930 . S
C202 C200 1.384 . S
C202 C203 1.372 . S
C203 C202 1.372 . S
C203 C204 1.400 . S
C203 C208 1.490 . S
C204 H194 0.930 1_556 S
C204 C203 1.400 . S
C204 C207 1.386 1_556 S
H205 C221 0.930 . S
H206 C222 0.931 . S
C207 H195 0.929 . S
C207 C201 1.390 1_554 S
C207 C204 1.386 1_554 S
C208 C203 1.490 . S
C208 C210 1.395 . S
C208 C211 1.403 . S
H209 C215 0.930 . S
C210 H196 0.930 . S
C210 C208 1.395 . S
C210 C213 1.403 . S
C211 C208 1.403 . S
C211 C212 1.524 . S
C211 C215 1.400 . S
C212 H197 0.960 . S
C212 H198 0.960 . S
C212 H199 0.960 1_556 S
C212 C211 1.524 . S
C213 C210 1.403 . S
C213 C214 1.392 . S
C213 C217 1.495 . S
C214 C213 1.392 . S
C214 C215 1.385 . S
C214 C216 1.478 . S
C215 H209 0.930 . S
C215 C211 1.400 . S
C215 C214 1.385 . S
C216 C214 1.478 . S
C216 C218 1.381 . S
C216 C222 1.383 . S
C217 C213 1.495 . S
C217 H223 0.959 . S
C217 H224 0.961 . S
C217 H225 0.960 . S
C218 C216 1.381 . S
C218 C219 1.394 . S
C218 H226 0.930 . S
C219 C218 1.394 . S
C219 C220 1.383 . S
C219 H227 0.929 . S
C220 C219 1.383 . S
C220 C221 1.377 . S
C221 H205 0.930 . S
C221 C220 1.377 . S
C221 C222 1.379 . S
C222 H206 0.931 . S
C222 C216 1.383 . S
C222 C221 1.379 . S
H223 C217 0.959 . S
H224 C217 0.961 . S
H225 C217 0.960 . S
H226 C218 0.930 . S
H227 C219 0.929 . S
H228 C236 0.929 . S
H229 C238 0.930 . S
H230 C240 0.930 . S
H231 C243 0.929 . S
H232 C246 0.930 . S
H233 C248 0.960 . S
H234 C248 0.960 . S
H235 C248 0.960 . S
C236 H228 0.929 . S
C236 C237 1.377 . S
C236 C238 1.384 . S
C237 C236 1.377 . S
C237 C243 1.390 . S
C238 H229 0.930 . S
C238 C236 1.384 . S
C238 C239 1.372 . S
C239 C238 1.372 . S
C239 C240 1.400 . S
C239 C244 1.490 . S
C240 H230 0.930 . S
C240 C239 1.400 . S
C240 C243 1.386 . S
H241 C257 0.930 . S
H242 C258 0.931 . S
C243 H231 0.929 . S
C243 C237 1.390 . S
C243 C240 1.386 . S
C244 C239 1.490 . S
C244 C246 1.395 . S
C244 C247 1.403 . S
H245 C251 0.930 . S
C246 H232 0.930 . S
C246 C244 1.395 . S
C246 C249 1.403 . S
C247 C244 1.403 . S
C247 C248 1.524 . S
C247 C251 1.400 . S
C248 H233 0.960 . S
C248 H234 0.960 . S
C248 H235 0.960 . S
C248 C247 1.524 . S
C249 C246 1.403 . S
C249 C250 1.392 . S
C249 C253 1.495 . S
C250 C249 1.392 . S
C250 C251 1.385 . S
C250 C252 1.478 . S
C251 H245 0.930 . S
C251 C247 1.400 . S
C251 C250 1.385 . S
C252 C250 1.478 . S
C252 C254 1.381 . S
C252 C258 1.383 . S
C253 C249 1.495 . S
C253 H259 0.959 . S
C253 H260 0.961 . S
C253 H261 0.960 . S
C254 C252 1.381 . S
C254 C255 1.394 . S
C254 H262 0.930 . S
C255 C254 1.394 . S
C255 C256 1.383 . S
C255 H263 0.929 . S
C256 C255 1.383 . S
C256 C257 1.377 . S
C257 H241 0.930 . S
C257 C256 1.377 . S
C257 C258 1.379 . S
C258 H242 0.931 . S
C258 C252 1.383 . S
C258 C257 1.379 . S
H259 C253 0.959 . S
H260 C253 0.961 . S
H261 C253 0.960 . S
H262 C254 0.930 . S
H263 C255 0.929 . S
H264 C272 0.929 . S
H265 C274 0.930 . S
H266 C276 0.930 . S
H267 C279 0.929 1_554 S
H268 C282 0.930 . S
H269 C284 0.960 . S
H270 C284 0.960 . S
H271 C284 0.960 . S
C272 H264 0.929 . S
C272 C273 1.377 . S
C272 C274 1.384 . S
C273 C272 1.377 . S
C273 C279 1.390 . S
C274 H265 0.930 . S
C274 C272 1.384 . S
C274 C275 1.372 . S
C275 C274 1.372 . S
C275 C276 1.400 . S
C275 C280 1.490 . S
C276 H266 0.930 . S
C276 C275 1.400 . S
C276 C279 1.386 . S
H277 C293 0.930 . S
H278 C294 0.931 . S
C279 H267 0.929 1_556 S
C279 C273 1.390 . S
C279 C276 1.386 . S
C280 C275 1.490 . S
C280 C282 1.395 . S
C280 C283 1.403 . S
H281 C287 0.930 . S
C282 H268 0.930 . S
C282 C280 1.395 . S
C282 C285 1.403 . S
C283 C280 1.403 . S
C283 C284 1.524 . S
C283 C287 1.400 . S
C284 H269 0.960 . S
C284 H270 0.960 . S
C284 H271 0.960 . S
C284 C283 1.524 . S
C285 C282 1.403 . S
C285 C286 1.392 . S
C285 C289 1.495 . S
C286 C285 1.392 . S
C286 C287 1.385 . S
C286 C288 1.478 . S
C287 H281 0.930 . S
C287 C283 1.400 . S
C287 C286 1.385 . S
C288 C286 1.478 . S
C288 C290 1.381 . S
C288 C294 1.383 . S
C289 C285 1.495 . S
C289 H295 0.959 . S
C289 H296 0.961 . S
C289 H297 0.960 . S
C290 C288 1.381 . S
C290 C291 1.394 . S
C290 H298 0.930 . S
C291 C290 1.394 . S
C291 C292 1.383 . S
C291 H299 0.929 . S
C292 C291 1.383 . S
C292 C293 1.377 . S
C293 H277 0.930 . S
C293 C292 1.377 . S
C293 C294 1.379 . S
C294 H278 0.931 . S
C294 C288 1.383 . S
C294 C293 1.379 . S
H295 C289 0.959 . S
H296 C289 0.961 . S
H297 C289 0.960 . S
H298 C290 0.930 . S
H299 C291 0.929 . S
H300 C308 0.929 . S
H301 C310 0.930 . S
H302 C312 0.930 . S
H303 C315 0.929 . S
H304 C318 0.930 . S
H305 C320 0.960 . S
H306 C320 0.960 . S
H307 C320 0.960 . S
C308 H300 0.929 . S
C308 C309 1.377 . S
C308 C310 1.384 . S
C309 C308 1.377 . S
C309 C315 1.390 . S
C310 H301 0.930 . S
C310 C308 1.384 . S
C310 C311 1.372 . S
C311 C310 1.372 . S
C311 C312 1.400 . S
C311 C316 1.490 . S
C312 H302 0.930 . S
C312 C311 1.400 . S
C312 C315 1.386 . S
H313 C329 0.930 . S
H314 C330 0.931 . S
C315 H303 0.929 . S
C315 C309 1.390 . S
C315 C312 1.386 . S
C316 C311 1.490 . S
C316 C318 1.395 . S
C316 C319 1.403 . S
H317 C323 0.930 . S
C318 H304 0.930 . S
C318 C316 1.395 . S
C318 C321 1.403 . S
C319 C316 1.403 . S
C319 C320 1.524 . S
C319 C323 1.400 . S
C320 H305 0.960 . S
C320 H306 0.960 . S
C320 H307 0.960 . S
C320 C319 1.524 . S
C321 C318 1.403 . S
C321 C322 1.392 . S
C321 C325 1.495 . S
C322 C321 1.392 . S
C322 C323 1.385 . S
C322 C324 1.478 . S
C323 H317 0.930 . S
C323 C319 1.400 . S
C323 C322 1.385 . S
C324 C322 1.478 . S
C324 C326 1.381 . S
C324 C330 1.383 . S
C325 C321 1.495 . S
C325 H331 0.959 . S
C325 H332 0.961 . S
C325 H333 0.960 . S
C326 C324 1.381 . S
C326 C327 1.394 . S
C326 H334 0.930 . S
C327 C326 1.394 . S
C327 C328 1.383 . S
C327 H335 0.929 . S
C328 C327 1.383 . S
C328 C329 1.377 . S
C329 H313 0.930 . S
C329 C328 1.377 . S
C329 C330 1.379 . S
C330 H314 0.931 . S
C330 C324 1.383 . S
C330 C329 1.379 . S
H331 C325 0.959 . S
H332 C325 0.961 . S
H333 C325 0.960 . S
H334 C326 0.930 . S
H335 C327 0.929 . S
H336 C344 0.901 1_554 S
H337 C346 0.930 . S
H338 C348 0.930 . S
H339 C351 0.929 . S
H340 C354 0.930 . S
H341 C356 0.960 . S
H342 C356 0.960 . S
H343 C356 0.960 . S
C344 H336 0.901 1_556 S
C344 C345 1.391 . S
C344 C346 1.400 . S
C345 C344 1.391 . S
C345 C351 1.390 . S
C346 H337 0.930 . S
C346 C344 1.400 . S
C346 C347 1.372 . S
C347 C346 1.372 . S
C347 C348 1.400 . S
C347 C352 1.490 . S
C348 H338 0.930 . S
C348 C347 1.400 . S
C348 C351 1.386 . S
H349 C365 0.930 . S
H350 C366 0.931 . S
C351 H339 0.929 . S
C351 C345 1.390 . S
C351 C348 1.386 . S
C352 C347 1.490 . S
C352 C354 1.395 . S
C352 C355 1.403 . S
H353 C359 0.930 . S
C354 H340 0.930 . S
C354 C352 1.395 . S
C354 C357 1.403 . S
C355 C352 1.403 . S
C355 C356 1.524 . S
C355 C359 1.400 . S
C356 H341 0.960 . S
C356 H342 0.960 . S
C356 H343 0.960 . S
C356 C355 1.524 . S
C357 C354 1.403 . S
C357 C358 1.392 . S
C357 C361 1.495 . S
C358 C357 1.392 . S
C358 C359 1.385 . S
C358 C360 1.478 . S
C359 H353 0.930 . S
C359 C355 1.400 . S
C359 C358 1.385 . S
C360 C358 1.478 . S
C360 C362 1.381 . S
C360 C366 1.383 . S
C361 C357 1.495 . S
C361 H367 0.959 . S
C361 H368 0.961 . S
C361 H369 0.960 . S
C362 C360 1.381 . S
C362 C363 1.394 . S
C362 H370 0.930 . S
C363 C362 1.394 . S
C363 C364 1.383 . S
C363 H371 0.929 . S
C364 C363 1.383 . S
C364 C365 1.377 . S
C365 H349 0.930 . S
C365 C364 1.377 . S
C365 C366 1.379 . S
C366 H350 0.931 . S
C366 C360 1.383 . S
C366 C365 1.379 . S
H367 C361 0.959 . S
H368 C361 0.961 . S
H369 C361 0.960 . S
H370 C362 0.930 . S
H371 C363 0.929 . S
H372 C380 0.929 . S
H373 C382 0.930 . S
H374 C384 0.930 . S
H375 C387 0.929 . S
H376 C390 0.930 . S
H377 C392 0.960 . S
H378 C392 0.960 . S
H379 C392 0.960 . S
C380 H372 0.929 . S
C380 C381 1.377 . S
C380 C382 1.384 . S
C381 C380 1.377 . S
C381 C387 1.390 . S
C382 H373 0.930 . S
C382 C380 1.384 . S
C382 C383 1.372 . S
C383 C382 1.372 . S
C383 C384 1.400 . S
C383 C388 1.490 . S
C384 H374 0.930 . S
C384 C383 1.400 . S
C384 C387 1.386 . S
H385 C401 0.930 . S
H386 C402 0.931 . S
C387 H375 0.929 . S
C387 C381 1.390 . S
C387 C384 1.386 . S
C388 C383 1.490 . S
C388 C390 1.395 . S
C388 C391 1.403 . S
H389 C395 0.930 . S
C390 H376 0.930 . S
C390 C388 1.395 . S
C390 C393 1.403 . S
C391 C388 1.403 . S
C391 C392 1.524 . S
C391 C395 1.400 . S
C392 H377 0.960 . S
C392 H378 0.960 . S
C392 H379 0.960 . S
C392 C391 1.524 . S
C393 C390 1.403 . S
C393 C394 1.392 . S
C393 C397 1.495 . S
C394 C393 1.392 . S
C394 C395 1.385 . S
C394 C396 1.478 . S
C395 H389 0.930 . S
C395 C391 1.400 . S
C395 C394 1.385 . S
C396 C394 1.478 . S
C396 C398 1.381 . S
C396 C402 1.383 . S
C397 C393 1.495 . S
C397 H403 0.959 . S
C397 H404 0.961 . S
C397 H405 0.960 . S
C398 C396 1.381 . S
C398 C399 1.394 . S
C398 H406 0.930 . S
C399 C398 1.394 . S
C399 C400 1.383 . S
C399 H407 0.929 . S
C400 C399 1.383 . S
C400 C401 1.377 . S
C401 H385 0.930 . S
C401 C400 1.377 . S
C401 C402 1.379 . S
C402 H386 0.931 . S
C402 C396 1.383 . S
C402 C401 1.379 . S
H403 C397 0.959 . S
H404 C397 0.961 . S
H405 C397 0.960 . S
H406 C398 0.930 . S
H407 C399 0.929 . S
H408 C416 0.929 . S
H409 C418 0.930 . S
H410 C420 0.930 . S
H411 C423 0.929 . S
H412 C426 0.930 . S
H413 C428 0.960 . S
H414 C428 0.960 . S
H415 C428 0.960 . S
C416 H408 0.929 . S
C416 C417 1.377 . S
C416 C418 1.384 . S
C417 C416 1.377 . S
C417 C423 1.390 1_556 S
C418 H409 0.930 . S
C418 C416 1.384 . S
C418 C419 1.372 . S
C419 C418 1.372 . S
C419 C420 1.400 . S
C419 C424 1.490 . S
C420 H410 0.930 . S
C420 C419 1.400 . S
C420 C423 1.386 1_556 S
H421 C437 0.930 . S
H422 C438 0.931 . S
C423 H411 0.929 . S
C423 C417 1.390 1_554 S
C423 C420 1.386 1_554 S
C424 C419 1.490 . S
C424 C426 1.395 . S
C424 C427 1.403 . S
H425 C431 0.930 . S
C426 H412 0.930 . S
C426 C424 1.395 . S
C426 C429 1.403 . S
C427 C424 1.403 . S
C427 C428 1.524 . S
C427 C431 1.400 . S
C428 H413 0.960 . S
C428 H414 0.960 . S
C428 H415 0.960 . S
C428 C427 1.524 . S
C429 C426 1.403 . S
C429 C430 1.392 . S
C429 C433 1.495 . S
C430 C429 1.392 . S
C430 C431 1.385 . S
C430 C432 1.478 . S
C431 H425 0.930 . S
C431 C427 1.400 . S
C431 C430 1.385 . S
C432 C430 1.478 . S
C432 C434 1.381 . S
C432 C438 1.383 . S
C433 C429 1.495 . S
C433 H439 0.959 . S
C433 H440 0.961 . S
C433 H441 0.960 . S
C434 C432 1.381 . S
C434 C435 1.394 . S
C434 H442 0.930 . S
C435 C434 1.394 . S
C435 C436 1.383 . S
C435 H443 0.929 . S
C436 C435 1.383 . S
C436 C437 1.377 . S
C437 H421 0.930 . S
C437 C436 1.377 . S
C437 C438 1.379 . S
C438 H422 0.931 . S
C438 C432 1.383 . S
C438 C437 1.379 . S
H439 C433 0.959 . S
H440 C433 0.961 . S
H441 C433 0.960 . S
H442 C434 0.930 . S
H443 C435 0.929 . S
H444 C452 0.929 . S
H445 C454 0.930 . S
H446 C456 0.930 . S
H447 C459 0.929 . S
H448 C462 0.930 . S
H449 C464 0.960 . S
H450 C464 0.960 . S
H451 C464 0.960 . S
C452 H444 0.929 . S
C452 C453 1.377 . S
C452 C454 1.384 . S
C453 C452 1.377 . S
C453 C459 1.390 . S
C454 H445 0.930 . S
C454 C452 1.384 . S
C454 C455 1.372 . S
C455 C454 1.372 . S
C455 C456 1.400 . S
C455 C460 1.490 . S
C456 H446 0.930 . S
C456 C455 1.400 . S
C456 C459 1.386 . S
H457 C473 0.930 . S
H458 C474 0.931 . S
C459 H447 0.929 . S
C459 C453 1.390 . S
C459 C456 1.386 . S
C460 C455 1.490 . S
C460 C462 1.395 . S
C460 C463 1.403 . S
H461 C467 0.930 . S
C462 H448 0.930 . S
C462 C460 1.395 . S
C462 C465 1.403 . S
C463 C460 1.403 . S
C463 C464 1.524 . S
C463 C467 1.400 . S
C464 H449 0.960 . S
C464 H450 0.960 . S
C464 H451 0.960 . S
C464 C463 1.524 . S
C465 C462 1.403 . S
C465 C466 1.392 . S
C465 C469 1.495 . S
C466 C465 1.392 . S
C466 C467 1.385 . S
C466 C468 1.478 . S
C467 H461 0.930 . S
C467 C463 1.400 . S
C467 C466 1.385 . S
C468 C466 1.478 . S
C468 C470 1.381 . S
C468 C474 1.383 . S
C469 C465 1.495 . S
C469 H475 0.959 . S
C469 H476 0.961 . S
C469 H477 0.960 . S
C470 C468 1.381 . S
C470 C471 1.394 . S
C470 H478 0.930 . S
C471 C470 1.394 . S
C471 C472 1.383 . S
C471 H479 0.929 . S
C472 C471 1.383 . S
C472 C473 1.377 . S
C473 H457 0.930 . S
C473 C472 1.377 . S
C473 C474 1.379 . S
C474 H458 0.931 . S
C474 C468 1.383 . S
C474 C473 1.379 . S
H475 C469 0.959 . S
H476 C469 0.961 . S
H477 C469 0.960 . S
H478 C470 0.930 . S
H479 C471 0.929 . S
H480 C488 0.929 . S
H481 C490 0.930 . S
H482 C492 0.930 1_554 S
H483 C495 0.929 . S
H484 C498 0.930 . S
H485 C500 0.960 . S
H486 C500 0.960 . S
H487 C500 0.960 1_554 S
C488 H480 0.929 . S
C488 C489 1.377 . S
C488 C490 1.384 . S
C489 C488 1.377 . S
C489 C495 1.390 1_556 S
C490 H481 0.930 . S
C490 C488 1.384 . S
C490 C491 1.372 . S
C491 C490 1.372 . S
C491 C492 1.400 . S
C491 C496 1.490 . S
C492 H482 0.930 1_556 S
C492 C491 1.400 . S
C492 C495 1.386 1_556 S
H493 C509 0.930 . S
H494 C510 0.931 . S
C495 H483 0.929 . S
C495 C489 1.390 1_554 S
C495 C492 1.386 1_554 S
C496 C491 1.490 . S
C496 C498 1.395 . S
C496 C499 1.403 . S
H497 C503 0.930 . S
C498 H484 0.930 . S
C498 C496 1.395 . S
C498 C501 1.403 . S
C499 C496 1.403 . S
C499 C500 1.524 . S
C499 C503 1.400 . S
C500 H485 0.960 . S
C500 H486 0.960 . S
C500 H487 0.960 1_556 S
C500 C499 1.524 . S
C501 C498 1.403 . S
C501 C502 1.392 . S
C501 C505 1.495 . S
C502 C501 1.392 . S
C502 C503 1.385 . S
C502 C504 1.478 . S
C503 H497 0.930 . S
C503 C499 1.400 . S
C503 C502 1.385 . S
C504 C502 1.478 . S
C504 C506 1.381 . S
C504 C510 1.383 . S
C505 C501 1.495 . S
C505 H511 0.959 . S
C505 H512 0.961 . S
C505 H513 0.960 . S
C506 C504 1.381 . S
C506 C507 1.394 . S
C506 H514 0.930 . S
C507 C506 1.394 . S
C507 C508 1.383 . S
C507 H515 0.929 . S
C508 C507 1.383 . S
C508 C509 1.377 . S
C509 H493 0.930 . S
C509 C508 1.377 . S
C509 C510 1.379 . S
C510 H494 0.931 . S
C510 C504 1.383 . S
C510 C509 1.379 . S
H511 C505 0.959 . S
H512 C505 0.961 . S
H513 C505 0.960 . S
H514 C506 0.930 . S
H515 C507 0.929 . S
H516 C524 0.929 . S
H517 C526 0.930 . S
H518 C528 0.930 . S
H519 C531 0.929 . S
H520 C534 0.930 . S
H521 C536 0.960 . S
H522 C536 0.960 . S
H523 C536 0.960 . S
C524 H516 0.929 . S
C524 C525 1.377 . S
C524 C526 1.384 . S
C525 C524 1.377 . S
C525 C531 1.390 . S
C526 H517 0.930 . S
C526 C524 1.384 . S
C526 C527 1.372 . S
C527 C526 1.372 . S
C527 C528 1.400 . S
C527 C532 1.490 . S
C528 H518 0.930 . S
C528 C527 1.400 . S
C528 C531 1.386 . S
H529 C545 0.930 . S
H530 C546 0.931 . S
C531 H519 0.929 . S
C531 C525 1.390 . S
C531 C528 1.386 . S
C532 C527 1.490 . S
C532 C534 1.395 . S
C532 C535 1.403 . S
H533 C539 0.930 . S
C534 H520 0.930 . S
C534 C532 1.395 . S
C534 C537 1.403 . S
C535 C532 1.403 . S
C535 C536 1.524 . S
C535 C539 1.400 . S
C536 H521 0.960 . S
C536 H522 0.960 . S
C536 H523 0.960 . S
C536 C535 1.524 . S
C537 C534 1.403 . S
C537 C538 1.392 . S
C537 C541 1.495 . S
C538 C537 1.392 . S
C538 C539 1.385 . S
C538 C540 1.478 . S
C539 H533 0.930 . S
C539 C535 1.400 . S
C539 C538 1.385 . S
C540 C538 1.478 . S
C540 C542 1.381 . S
C540 C546 1.383 . S
C541 C537 1.495 . S
C541 H547 0.959 . S
C541 H548 0.961 . S
C541 H549 0.960 . S
C542 C540 1.381 . S
C542 C543 1.394 . S
C542 H550 0.930 . S
C543 C542 1.394 . S
C543 C544 1.383 . S
C543 H551 0.929 . S
C544 C543 1.383 . S
C544 C545 1.377 . S
C545 H529 0.930 . S
C545 C544 1.377 . S
C545 C546 1.379 . S
C546 H530 0.931 . S
C546 C540 1.383 . S
C546 C545 1.379 . S
H547 C541 0.959 . S
H548 C541 0.961 . S
H549 C541 0.960 . S
H550 C542 0.930 . S
H551 C543 0.929 . S
H552 C560 0.929 . S
H553 C562 0.930 . S
H554 C564 0.930 . S
H555 C567 0.929 . S
H556 C570 0.930 . S
H557 C572 0.960 . S
H558 C572 0.960 . S
H559 C572 0.960 . S
C560 H552 0.929 . S
C560 C561 1.377 . S
C560 C562 1.384 . S
C561 C560 1.377 . S
C561 C567 1.390 . S
C562 H553 0.930 . S
C562 C560 1.384 . S
C562 C563 1.372 . S
C563 C562 1.372 . S
C563 C564 1.400 . S
C563 C568 1.490 . S
C564 H554 0.930 . S
C564 C563 1.400 . S
C564 C567 1.386 . S
H565 C581 0.930 . S
H566 C582 0.931 . S
C567 H555 0.929 . S
C567 C561 1.390 . S
C567 C564 1.386 . S
C568 C563 1.490 . S
C568 C570 1.395 . S
C568 C571 1.403 . S
H569 C575 0.930 . S
C570 H556 0.930 . S
C570 C568 1.395 . S
C570 C573 1.403 . S
C571 C568 1.403 . S
C571 C572 1.524 . S
C571 C575 1.400 . S
C572 H557 0.960 . S
C572 H558 0.960 . S
C572 H559 0.960 . S
C572 C571 1.524 . S
C573 C570 1.403 . S
C573 C574 1.392 . S
C573 C577 1.495 . S
C574 C573 1.392 . S
C574 C575 1.385 . S
C574 C576 1.478 . S
C575 H569 0.930 . S
C575 C571 1.400 . S
C575 C574 1.385 . S
C576 C574 1.478 . S
C576 C578 1.381 . S
C576 C582 1.383 . S
C577 C573 1.495 . S
C577 H583 0.959 1_556 S
C577 H584 0.961 . S
C577 H585 0.960 . S
C578 C576 1.381 . S
C578 C579 1.394 . S
C578 H586 0.930 . S
C579 C578 1.394 . S
C579 C580 1.383 . S
C579 H587 0.929 . S
C580 C579 1.383 . S
C580 C581 1.377 . S
C581 H565 0.930 . S
C581 C580 1.377 . S
C581 C582 1.379 . S
C582 H566 0.931 . S
C582 C576 1.383 . S
C582 C581 1.379 . S
H583 C577 0.959 1_554 S
H584 C577 0.961 . S
H585 C577 0.960 . S
H586 C578 0.930 . S
H587 C579 0.929 . S
H588 C596 0.929 . S
H589 C598 0.930 . S
H590 C600 0.930 . S
H591 C603 0.929 . S
H592 C606 0.930 . S
H593 C608 0.960 . S
H594 C608 0.960 . S
H595 C608 0.960 . S
C596 H588 0.929 . S
C596 C597 1.377 . S
C596 C598 1.384 . S
C597 C596 1.377 . S
C597 C603 1.390 . S
C598 H589 0.930 . S
C598 C596 1.384 . S
C598 C599 1.372 . S
C599 C598 1.372 . S
C599 C600 1.400 . S
C599 C604 1.490 . S
C600 H590 0.930 . S
C600 C599 1.400 . S
C600 C603 1.386 . S
H601 C617 0.930 . S
H602 C618 0.931 . S
C603 H591 0.929 . S
C603 C597 1.390 . S
C603 C600 1.386 . S
C604 C599 1.490 . S
C604 C606 1.395 . S
C604 C607 1.403 . S
H605 C611 0.930 . S
C606 H592 0.930 . S
C606 C604 1.395 . S
C606 C609 1.403 . S
C607 C604 1.403 . S
C607 C608 1.524 . S
C607 C611 1.400 . S
C608 H593 0.960 . S
C608 H594 0.960 . S
C608 H595 0.960 . S
C608 C607 1.524 . S
C609 C606 1.403 . S
C609 C610 1.392 . S
C609 C613 1.495 . S
C610 C609 1.392 . S
C610 C611 1.385 . S
C610 C612 1.478 . S
C611 H605 0.930 . S
C611 C607 1.400 . S
C611 C610 1.385 . S
C612 C610 1.478 . S
C612 C614 1.381 . S
C612 C618 1.383 . S
C613 C609 1.495 . S
C613 H619 0.959 . S
C613 H620 0.961 . S
C613 H621 0.960 . S
C614 C612 1.381 . S
C614 C615 1.394 . S
C614 H622 0.930 . S
C615 C614 1.394 . S
C615 C616 1.383 . S
C615 H623 0.929 . S
C616 C615 1.383 . S
C616 C617 1.377 . S
C617 H601 0.930 . S
C617 C616 1.377 . S
C617 C618 1.379 . S
C618 H602 0.931 . S
C618 C612 1.383 . S
C618 C617 1.379 . S
H619 C613 0.959 . S
H620 C613 0.961 . S
H621 C613 0.960 . S
H622 C614 0.930 . S
H623 C615 0.929 . S
H624 C632 0.929 1_554 S
H625 C634 0.930 . S
H626 C636 0.930 . S
H627 C639 0.929 . S
H628 C642 0.930 . S
H629 C644 0.960 . S
H630 C644 0.960 1_564 S
H631 C644 0.959 1_565 S
C632 H624 0.929 1_556 S
C632 C633 1.377 . S
C632 C634 1.384 . S
C633 C632 1.377 . S
C633 C639 1.390 . S
C634 H625 0.930 . S
C634 C632 1.384 . S
C634 C635 1.372 . S
C635 C634 1.372 . S
C635 C636 1.400 . S
C635 C640 1.490 . S
C636 H626 0.930 . S
C636 C635 1.400 . S
C636 C639 1.386 . S
H637 C653 0.930 . S
H638 C654 0.931 . S
C639 H627 0.929 . S
C639 C633 1.390 . S
C639 C636 1.386 . S
C640 C635 1.490 . S
C640 C642 1.395 . S
C640 C643 1.403 . S
H641 C647 0.930 . S
C642 H628 0.930 . S
C642 C640 1.395 . S
C642 C645 1.403 . S
C643 C640 1.403 . S
C643 C644 1.524 1_565 S
C643 C647 1.400 1_565 S
C644 H629 0.960 . S
C644 H630 0.960 1_546 S
C644 H631 0.959 1_545 S
C644 C643 1.524 1_545 S
C645 C642 1.403 . S
C645 C646 1.388 . S
C645 C649 1.495 . S
C646 C645 1.388 . S
C646 C647 1.387 1_565 S
C646 C648 1.481 1_565 S
C647 H641 0.930 . S
C647 C643 1.400 1_545 S
C647 C646 1.387 1_545 S
C648 C646 1.481 1_545 S
C648 C650 1.381 . S
C648 C654 1.383 . S
C649 C645 1.495 . S
C649 H655 0.959 . S
C649 H656 0.961 . S
C649 H657 0.960 . S
C650 C648 1.381 . S
C650 C651 1.394 . S
C650 H658 0.930 . S
C651 C650 1.394 . S
C651 C652 1.383 . S
C651 H659 0.929 . S
C652 C651 1.383 . S
C652 C653 1.377 . S
C653 H637 0.930 . S
C653 C652 1.377 . S
C653 C654 1.379 . S
C654 H638 0.931 . S
C654 C648 1.383 . S
C654 C653 1.379 . S
H655 C649 0.959 . S
H656 C649 0.961 . S
H657 C649 0.960 . S
H658 C650 0.930 . S
H659 C651 0.929 . S
H660 C668 0.929 . S
H661 C670 0.930 . S
H662 C672 0.930 . S
H663 C675 0.929 . S
H664 C678 0.930 . S
H665 C680 0.960 . S
H666 C680 0.960 . S
H667 C680 0.960 1_545 S
C668 H660 0.929 . S
C668 C669 1.377 . S
C668 C670 1.384 . S
C669 C668 1.377 . S
C669 C675 1.390 . S
C670 H661 0.930 . S
C670 C668 1.384 . S
C670 C671 1.372 . S
C671 C670 1.372 . S
C671 C672 1.400 . S
C671 C676 1.490 . S
C672 H662 0.930 . S
C672 C671 1.400 . S
C672 C675 1.386 . S
H673 C689 0.930 . S
H674 C690 0.931 . S
C675 H663 0.929 . S
C675 C669 1.390 . S
C675 C672 1.386 . S
C676 C671 1.490 . S
C676 C678 1.395 . S
C676 C679 1.403 . S
H677 C683 0.930 . S
C678 H664 0.930 . S
C678 C676 1.395 . S
C678 C681 1.403 . S
C679 C676 1.403 . S
C679 C680 1.524 1_545 S
C679 C683 1.400 1_545 S
C680 H665 0.960 . S
C680 H666 0.960 . S
C680 H667 0.960 1_565 S
C680 C679 1.524 1_565 S
C681 C678 1.403 . S
C681 C682 1.387 . S
C681 C685 1.495 . S
C682 C681 1.387 . S
C682 C683 1.387 1_545 S
C682 C684 1.481 1_545 S
C683 H677 0.930 . S
C683 C679 1.400 1_565 S
C683 C682 1.387 1_565 S
C684 C682 1.481 1_565 S
C684 C686 1.381 . S
C684 C690 1.383 . S
C685 C681 1.495 . S
C685 H691 0.959 . S
C685 H692 0.961 . S
C685 H693 0.960 . S
C686 C684 1.381 . S
C686 C687 1.394 . S
C686 H694 0.930 . S
C687 C686 1.394 . S
C687 C688 1.383 . S
C687 H695 0.929 . S
C688 C687 1.383 . S
C688 C689 1.377 . S
C689 H673 0.930 . S
C689 C688 1.377 . S
C689 C690 1.379 . S
C690 H674 0.931 . S
C690 C684 1.383 . S
C690 C689 1.379 . S
H691 C685 0.959 . S
H692 C685 0.961 . S
H693 C685 0.960 . S
H694 C686 0.930 . S
H695 C687 0.929 . S
H696 C704 0.929 . S
H697 C706 0.930 . S
H698 C708 0.930 . S
H699 C711 0.929 1_554 S
H700 C714 0.930 . S
H701 C716 0.966 . S
H702 C716 0.960 . S
H703 C716 0.960 . S
C704 H696 0.929 . S
C704 C705 1.377 . S
C704 C706 1.384 . S
C705 C704 1.377 . S
C705 C711 1.390 . S
C706 H697 0.930 . S
C706 C704 1.384 . S
C706 C707 1.372 . S
C707 C706 1.372 . S
C707 C708 1.400 . S
C707 C712 1.490 . S
C708 H698 0.930 . S
C708 C707 1.400 . S
C708 C711 1.386 . S
H709 C725 0.930 . S
H710 C726 0.931 . S
C711 H699 0.929 1_556 S
C711 C705 1.390 . S
C711 C708 1.386 . S
C712 C707 1.490 . S
C712 C714 1.395 . S
C712 C715 1.403 . S
H713 C719 0.930 . S
C714 H700 0.930 . S
C714 C712 1.395 . S
C714 C717 1.403 . S
C715 C712 1.403 . S
C715 C716 1.524 . S
C715 C719 1.400 1_565 S
C716 H701 0.966 . S
C716 H702 0.960 . S
C716 H703 0.960 . S
C716 C715 1.524 . S
C717 C714 1.403 . S
C717 C718 1.392 1_565 S
C717 C721 1.495 . S
C718 C717 1.392 1_545 S
C718 C719 1.385 . S
C718 C720 1.478 . S
C719 H713 0.930 . S
C719 C715 1.400 1_545 S
C719 C718 1.385 . S
C720 C718 1.478 . S
C720 C722 1.381 . S
C720 C726 1.383 . S
C721 C717 1.495 . S
C721 H727 0.959 . S
C721 H728 0.961 1_565 S
C721 H729 0.960 . S
C722 C720 1.381 . S
C722 C723 1.394 . S
C722 H730 0.913 1_545 S
C723 C722 1.394 . S
C723 C724 1.383 . S
C723 H731 0.929 . S
C724 C723 1.383 . S
C724 C725 1.377 . S
C725 H709 0.930 . S
C725 C724 1.377 . S
C725 C726 1.379 . S
C726 H710 0.931 . S
C726 C720 1.383 . S
C726 C725 1.379 . S
H727 C721 0.959 . S
H728 C721 0.961 1_545 S
H729 C721 0.960 . S
H730 C722 0.913 1_565 S
H731 C723 0.929 . S
H732 C740 0.929 . S
H733 C742 0.930 . S
H734 C744 0.930 . S
H735 C747 0.929 . S
H736 C750 0.930 . S
H737 C752 0.960 . S
H738 C752 0.960 1_545 S
H739 C752 0.960 . S
C740 H732 0.929 . S
C740 C741 1.377 . S
C740 C742 1.384 . S
C741 C740 1.377 . S
C741 C747 1.390 . S
C742 H733 0.930 . S
C742 C740 1.384 . S
C742 C743 1.372 . S
C743 C742 1.372 . S
C743 C744 1.400 . S
C743 C748 1.490 . S
C744 H734 0.930 . S
C744 C743 1.400 . S
C744 C747 1.386 . S
H745 C761 0.930 . S
H746 C762 0.931 . S
C747 H735 0.929 . S
C747 C741 1.390 . S
C747 C744 1.386 . S
C748 C743 1.490 . S
C748 C750 1.395 . S
C748 C751 1.403 . S
H749 C755 0.930 . S
C750 H736 0.930 . S
C750 C748 1.395 . S
C750 C753 1.403 . S
C751 C748 1.403 . S
C751 C752 1.524 1_545 S
C751 C755 1.400 1_545 S
C752 H737 0.960 . S
C752 H738 0.960 1_565 S
C752 H739 0.960 . S
C752 C751 1.524 1_565 S
C753 C750 1.403 . S
C753 C754 1.392 1_545 S
C753 C757 1.495 . S
C754 C753 1.392 1_565 S
C754 C755 1.385 . S
C754 C756 1.478 . S
C755 H749 0.930 . S
C755 C751 1.400 1_565 S
C755 C754 1.385 . S
C756 C754 1.478 . S
C756 C758 1.381 . S
C756 C762 1.383 . S
C757 C753 1.495 . S
C757 H763 0.959 . S
C757 H764 0.961 . S
C757 H765 0.960 . S
C758 C756 1.381 . S
C758 C759 1.394 . S
C758 H766 0.930 . S
C759 C758 1.394 . S
C759 C760 1.383 . S
C759 H767 0.929 . S
C760 C759 1.383 . S
C760 C761 1.377 . S
C761 H745 0.930 . S
C761 C760 1.377 . S
C761 C762 1.379 . S
C762 H746 0.931 . S
C762 C756 1.383 . S
C762 C761 1.379 . S
H763 C757 0.959 . S
H764 C757 0.961 . S
H765 C757 0.960 . S
H766 C758 0.930 . S
H767 C759 0.929 . S
H768 C776 0.929 . S
H769 C778 0.930 . S
H770 C780 0.930 . S
H771 C783 0.929 . S
H772 C786 0.930 . S
H773 C788 0.960 . S
H774 C788 0.960 . S
H775 C788 0.960 . S
C776 H768 0.929 . S
C776 C777 1.377 . S
C776 C778 1.384 . S
C777 C776 1.377 . S
C777 C783 1.390 . S
C778 H769 0.930 . S
C778 C776 1.384 . S
C778 C779 1.372 . S
C779 C778 1.372 . S
C779 C780 1.400 . S
C779 C784 1.490 . S
C780 H770 0.930 . S
C780 C779 1.400 . S
C780 C783 1.386 . S
H781 C797 0.930 . S
H782 C798 0.931 . S
C783 H771 0.929 . S
C783 C777 1.390 . S
C783 C780 1.386 . S
C784 C779 1.490 . S
C784 C786 1.395 . S
C784 C787 1.403 . S
H785 C791 0.930 . S
C786 H772 0.930 . S
C786 C784 1.395 . S
C786 C789 1.403 . S
C787 C784 1.403 . S
C787 C788 1.524 . S
C787 C791 1.400 . S
C788 H773 0.960 . S
C788 H774 0.960 . S
C788 H775 0.960 . S
C788 C787 1.524 . S
C789 C786 1.403 . S
C789 C790 1.392 . S
C789 C793 1.495 . S
C790 C789 1.392 . S
C790 C791 1.385 . S
C790 C792 1.478 . S
C791 H785 0.930 . S
C791 C787 1.400 . S
C791 C790 1.385 . S
C792 C790 1.478 . S
C792 C794 1.381 . S
C792 C798 1.383 . S
C793 C789 1.495 . S
C793 H799 0.959 . S
C793 H800 0.961 . S
C793 H801 0.960 . S
C794 C792 1.381 . S
C794 C795 1.394 . S
C794 H802 0.930 . S
C795 C794 1.394 . S
C795 C796 1.383 . S
C795 H803 0.929 . S
C796 C795 1.383 . S
C796 C797 1.377 . S
C797 H781 0.930 . S
C797 C796 1.377 . S
C797 C798 1.379 . S
C798 H782 0.931 . S
C798 C792 1.383 . S
C798 C797 1.379 . S
H799 C793 0.959 . S
H800 C793 0.961 . S
H801 C793 0.960 . S
H802 C794 0.930 . S
H803 C795 0.929 . S
H804 C812 0.929 . S
H805 C814 0.930 . S
H806 C816 0.930 . S
H807 C819 0.929 . S
H808 C822 0.930 . S
H809 C824 0.960 . S
H810 C824 0.960 . S
H811 C824 0.960 . S
C812 H804 0.929 . S
C812 C813 1.377 . S
C812 C814 1.384 . S
C813 C812 1.377 . S
C813 C819 1.390 . S
C814 H805 0.930 . S
C814 C812 1.384 . S
C814 C815 1.372 . S
C815 C814 1.372 . S
C815 C816 1.400 . S
C815 C820 1.490 . S
C816 H806 0.930 . S
C816 C815 1.400 . S
C816 C819 1.386 . S
H817 C833 0.930 . S
H818 C834 0.931 . S
C819 H807 0.929 . S
C819 C813 1.390 . S
C819 C816 1.386 . S
C820 C815 1.490 . S
C820 C822 1.395 . S
C820 C823 1.403 . S
H821 C827 0.930 . S
C822 H808 0.930 . S
C822 C820 1.395 . S
C822 C825 1.403 . S
C823 C820 1.403 . S
C823 C824 1.524 . S
C823 C827 1.400 . S
C824 H809 0.960 . S
C824 H810 0.960 . S
C824 H811 0.960 . S
C824 C823 1.524 . S
C825 C822 1.403 . S
C825 C826 1.392 . S
C825 C829 1.495 . S
C826 C825 1.392 . S
C826 C827 1.385 . S
C826 C828 1.478 . S
C827 H821 0.930 . S
C827 C823 1.400 . S
C827 C826 1.385 . S
C828 C826 1.478 . S
C828 C830 1.381 . S
C828 C834 1.383 . S
C829 C825 1.495 . S
C829 H835 0.959 . S
C829 H836 0.961 . S
C829 H837 0.960 . S
C830 C828 1.381 . S
C830 C831 1.394 . S
C830 H838 0.930 . S
C831 C830 1.394 . S
C831 C832 1.383 . S
C831 H839 0.929 . S
C832 C831 1.383 . S
C832 C833 1.377 . S
C833 H817 0.930 . S
C833 C832 1.377 . S
C833 C834 1.379 . S
C834 H818 0.931 . S
C834 C828 1.383 . S
C834 C833 1.379 . S
H835 C829 0.959 . S
H836 C829 0.961 . S
H837 C829 0.960 . S
H838 C830 0.930 . S
H839 C831 0.929 . S
H840 C848 0.929 . S
H841 C850 0.930 . S
H842 C852 0.930 . S
H843 C855 0.929 . S
H844 C858 0.930 . S
H845 C860 0.960 . S
H846 C860 0.960 . S
H847 C860 0.960 . S
C848 H840 0.929 . S
C848 C849 1.377 . S
C848 C850 1.384 . S
C849 C848 1.377 . S
C849 C855 1.390 . S
C850 H841 0.930 . S
C850 C848 1.384 . S
C850 C851 1.372 . S
C851 C850 1.372 . S
C851 C852 1.400 . S
C851 C856 1.490 . S
C852 H842 0.930 . S
C852 C851 1.400 . S
C852 C855 1.386 . S
H853 C869 0.930 . S
H854 C870 0.931 . S
C855 H843 0.929 . S
C855 C849 1.390 . S
C855 C852 1.386 . S
C856 C851 1.490 . S
C856 C858 1.395 . S
C856 C859 1.403 . S
H857 C863 0.930 . S
C858 H844 0.930 . S
C858 C856 1.395 . S
C858 C861 1.403 . S
C859 C856 1.403 . S
C859 C860 1.524 . S
C859 C863 1.400 . S
C860 H845 0.960 . S
C860 H846 0.960 . S
C860 H847 0.960 . S
C860 C859 1.524 . S
C861 C858 1.403 . S
C861 C862 1.392 . S
C861 C865 1.495 . S
C862 C861 1.392 . S
C862 C863 1.385 . S
C862 C864 1.478 . S
C863 H857 0.930 . S
C863 C859 1.400 . S
C863 C862 1.385 . S
C864 C862 1.478 . S
C864 C866 1.381 . S
C864 C870 1.383 . S
C865 C861 1.495 . S
C865 H871 0.959 . S
C865 H872 0.961 . S
C865 H873 0.960 . S
C866 C864 1.381 . S
C866 C867 1.394 . S
C866 H874 0.930 . S
C867 C866 1.394 . S
C867 C868 1.383 . S
C867 H875 0.929 . S
C868 C867 1.383 . S
C868 C869 1.377 . S
C869 H853 0.930 . S
C869 C868 1.377 . S
C869 C870 1.379 . S
C870 H854 0.931 . S
C870 C864 1.383 . S
C870 C869 1.379 . S
H871 C865 0.959 . S
H872 C865 0.961 . S
H873 C865 0.960 . S
H874 C866 0.930 . S
H875 C867 0.929 . S
H876 C884 0.929 . S
H877 C886 0.930 . S
H878 C888 0.930 . S
H879 C891 0.929 . S
H880 C894 0.930 . S
H881 C896 0.960 . S
H882 C896 0.960 . S
H883 C896 0.960 . S
C884 H876 0.929 . S
C884 C885 1.377 . S
C884 C886 1.384 . S
C885 C884 1.377 . S
C885 C891 1.390 . S
C886 H877 0.930 . S
C886 C884 1.384 . S
C886 C887 1.372 . S
C887 C886 1.372 . S
C887 C888 1.400 . S
C887 C892 1.490 . S
C888 H878 0.930 . S
C888 C887 1.400 . S
C888 C891 1.386 . S
H889 C905 0.930 . S
H890 C906 0.931 . S
C891 H879 0.929 . S
C891 C885 1.390 . S
C891 C888 1.386 . S
C892 C887 1.490 . S
C892 C894 1.395 . S
C892 C895 1.403 . S
H893 C899 0.930 . S
C894 H880 0.930 . S
C894 C892 1.395 . S
C894 C897 1.403 . S
C895 C892 1.403 . S
C895 C896 1.524 . S
C895 C899 1.400 . S
C896 H881 0.960 . S
C896 H882 0.960 . S
C896 H883 0.960 . S
C896 C895 1.524 . S
C897 C894 1.403 . S
C897 C898 1.392 . S
C897 C901 1.495 . S
C898 C897 1.392 . S
C898 C899 1.385 . S
C898 C900 1.478 . S
C899 H893 0.930 . S
C899 C895 1.400 . S
C899 C898 1.385 . S
C900 C898 1.478 . S
C900 C902 1.381 . S
C900 C906 1.383 . S
C901 C897 1.495 . S
C901 H907 0.959 . S
C901 H908 0.961 . S
C901 H909 0.960 . S
C902 C900 1.381 . S
C902 C903 1.394 . S
C902 H910 0.930 . S
C903 C902 1.394 . S
C903 C904 1.383 . S
C903 H911 0.929 . S
C904 C903 1.383 . S
C904 C905 1.377 . S
C905 H889 0.930 . S
C905 C904 1.377 . S
C905 C906 1.379 . S
C906 H890 0.931 . S
C906 C900 1.383 . S
C906 C905 1.379 . S
H907 C901 0.959 . S
H908 C901 0.961 . S
H909 C901 0.960 . S
H910 C902 0.930 . S
H911 C903 0.929 . S
H912 C920 0.929 . S
H913 C922 0.930 . S
H914 C924 0.930 . S
H915 C927 0.929 . S
H916 C930 0.930 . S
H917 C932 0.960 . S
H918 C932 0.960 . S
H919 C932 0.960 . S
C920 H912 0.929 . S
C920 C921 1.377 . S
C920 C922 1.384 . S
C921 C920 1.377 . S
C921 C927 1.390 . S
C922 H913 0.930 . S
C922 C920 1.384 . S
C922 C923 1.372 . S
C923 C922 1.372 . S
C923 C924 1.400 . S
C923 C928 1.490 . S
C924 H914 0.930 . S
C924 C923 1.400 . S
C924 C927 1.386 . S
H925 C941 0.930 . S
H926 C942 0.931 . S
C927 H915 0.929 . S
C927 C921 1.390 . S
C927 C924 1.386 . S
C928 C923 1.490 . S
C928 C930 1.395 . S
C928 C931 1.403 . S
H929 C935 0.930 . S
C930 H916 0.930 . S
C930 C928 1.395 . S
C930 C933 1.403 . S
C931 C928 1.403 . S
C931 C932 1.524 . S
C931 C935 1.400 . S
C932 H917 0.960 . S
C932 H918 0.960 . S
C932 H919 0.960 . S
C932 C931 1.524 . S
C933 C930 1.403 . S
C933 C934 1.392 . S
C933 C937 1.495 . S
C934 C933 1.392 . S
C934 C935 1.385 . S
C934 C936 1.478 . S
C935 H929 0.930 . S
C935 C931 1.400 . S
C935 C934 1.385 . S
C936 C934 1.478 . S
C936 C938 1.381 . S
C936 C942 1.383 . S
C937 C933 1.495 . S
C937 H943 0.959 . S
C937 H944 0.961 . S
C937 H945 0.960 . S
C938 C936 1.381 . S
C938 C939 1.394 . S
C938 H946 0.930 . S
C939 C938 1.394 . S
C939 C940 1.383 . S
C939 H947 0.929 . S
C940 C939 1.383 . S
C940 C941 1.377 . S
C941 H925 0.930 . S
C941 C940 1.377 . S
C941 C942 1.379 . S
C942 H926 0.931 . S
C942 C936 1.383 . S
C942 C941 1.379 . S
H943 C937 0.959 . S
H944 C937 0.961 . S
H945 C937 0.960 . S
H946 C938 0.930 . S
H947 C939 0.929 . S
H948 C956 0.929 . S
H949 C958 0.930 . S
H950 C960 0.930 . S
H951 C963 0.929 . S
H952 C966 0.930 . S
H953 C968 0.960 . S
H954 C968 0.960 . S
H955 C968 0.960 . S
C956 H948 0.929 . S
C956 C957 1.377 . S
C956 C958 1.384 . S
C957 C956 1.377 . S
C957 C963 1.390 . S
C958 H949 0.930 . S
C958 C956 1.384 . S
C958 C959 1.372 . S
C959 C958 1.372 . S
C959 C960 1.400 . S
C959 C964 1.490 . S
C960 H950 0.930 . S
C960 C959 1.400 . S
C960 C963 1.386 . S
H961 C977 0.930 . S
H962 C978 0.931 . S
C963 H951 0.929 . S
C963 C957 1.390 . S
C963 C960 1.386 . S
C964 C959 1.490 . S
C964 C966 1.395 . S
C964 C967 1.403 . S
H965 C971 0.930 . S
C966 H952 0.930 . S
C966 C964 1.395 . S
C966 C969 1.403 . S
C967 C964 1.403 . S
C967 C968 1.524 . S
C967 C971 1.400 . S
C968 H953 0.960 . S
C968 H954 0.960 . S
C968 H955 0.960 . S
C968 C967 1.524 . S
C969 C966 1.403 . S
C969 C970 1.392 . S
C969 C973 1.495 . S
C970 C969 1.392 . S
C970 C971 1.385 . S
C970 C972 1.478 . S
C971 H965 0.930 . S
C971 C967 1.400 . S
C971 C970 1.385 . S
C972 C970 1.478 . S
C972 C974 1.381 . S
C972 C978 1.383 . S
C973 C969 1.495 . S
C973 H979 0.959 . S
C973 H980 0.961 . S
C973 H981 0.960 . S
C974 C972 1.381 . S
C974 C975 1.394 . S
C974 H982 0.930 . S
C975 C974 1.394 . S
C975 C976 1.383 . S
C975 H983 0.929 . S
C976 C975 1.383 . S
C976 C977 1.377 . S
C977 H961 0.930 . S
C977 C976 1.377 . S
C977 C978 1.379 . S
C978 H962 0.931 . S
C978 C972 1.383 . S
C978 C977 1.379 . S
H979 C973 0.959 . S
H980 C973 0.961 . S
H981 C973 0.960 . S
H982 C974 0.930 . S
H983 C975 0.929 . S
H984 C992 0.929 . S
H985 C994 0.930 . S
H986 C996 0.930 . S
H987 C999 0.929 . S
H988 C1002 0.930 . S
H989 C1004 0.960 . S
H990 C1004 0.960 . S
H991 C1004 0.960 . S
C992 H984 0.929 . S
C992 C993 1.377 . S
C992 C994 1.384 . S
C993 C992 1.377 . S
C993 C999 1.390 . S
C994 H985 0.930 . S
C994 C992 1.384 . S
C994 C995 1.372 . S
C995 C994 1.372 . S
C995 C996 1.400 . S
C995 C1000 1.490 . S
C996 H986 0.930 . S
C996 C995 1.400 . S
C996 C999 1.386 . S
H997 C1013 0.930 . S
H998 C1014 0.931 . S
C999 H987 0.929 . S
C999 C993 1.390 . S
C999 C996 1.386 . S
C1000 C995 1.490 . S
C1000 C1002 1.395 . S
C1000 C1003 1.403 . S
H1001 C1007 0.930 . S
C1002 H988 0.930 . S
C1002 C1000 1.395 . S
C1002 C1005 1.403 . S
C1003 C1000 1.403 . S
C1003 C1004 1.524 . S
C1003 C1007 1.400 . S
C1004 H989 0.960 . S
C1004 H990 0.960 . S
C1004 H991 0.960 . S
C1004 C1003 1.524 . S
C1005 C1002 1.403 . S
C1005 C1006 1.392 . S
C1005 C1009 1.495 . S
C1006 C1005 1.392 . S
C1006 C1007 1.385 . S
C1006 C1008 1.478 . S
C1007 H1001 0.930 . S
C1007 C1003 1.400 . S
C1007 C1006 1.385 . S
C1008 C1006 1.478 . S
C1008 C1010 1.381 . S
C1008 C1014 1.383 . S
C1009 C1005 1.495 . S
C1009 H1015 0.959 . S
C1009 H1016 0.961 . S
C1009 H1017 0.960 . S
C1010 C1008 1.381 . S
C1010 C1011 1.394 . S
C1010 H1018 0.930 . S
C1011 C1010 1.394 . S
C1011 C1012 1.383 . S
C1011 H1019 0.929 . S
C1012 C1011 1.383 . S
C1012 C1013 1.377 . S
C1013 H997 0.930 . S
C1013 C1012 1.377 . S
C1013 C1014 1.379 . S
C1014 H998 0.931 . S
C1014 C1008 1.383 . S
C1014 C1013 1.379 . S
H1015 C1009 0.959 . S
H1016 C1009 0.961 . S
H1017 C1009 0.960 . S
H1018 C1010 0.930 . S
H1019 C1011 0.929 . S
H1020 C1028 0.929 . S
H1021 C1030 0.930 . S
H1022 C1032 0.930 . S
H1023 C1035 0.929 . S
H1024 C1038 0.930 . S
H1025 C1040 0.960 . S
H1026 C1040 0.960 . S
H1027 C1040 0.960 . S
C1028 H1020 0.929 . S
C1028 C1029 1.377 . S
C1028 C1030 1.384 . S
C1029 C1028 1.377 . S
C1029 C1035 1.390 . S
C1030 H1021 0.930 . S
C1030 C1028 1.384 . S
C1030 C1031 1.372 . S
C1031 C1030 1.372 . S
C1031 C1032 1.400 . S
C1031 C1036 1.490 . S
C1032 H1022 0.930 . S
C1032 C1031 1.400 . S
C1032 C1035 1.386 . S
H1033 C1049 0.930 . S
H1034 C1050 0.931 . S
C1035 H1023 0.929 . S
C1035 C1029 1.390 . S
C1035 C1032 1.386 . S
C1036 C1031 1.490 . S
C1036 C1038 1.395 . S
C1036 C1039 1.403 . S
H1037 C1043 0.930 . S
C1038 H1024 0.930 . S
C1038 C1036 1.395 . S
C1038 C1041 1.403 . S
C1039 C1036 1.403 . S
C1039 C1040 1.524 . S
C1039 C1043 1.400 . S
C1040 H1025 0.960 . S
C1040 H1026 0.960 . S
C1040 H1027 0.960 . S
C1040 C1039 1.524 . S
C1041 C1038 1.403 . S
C1041 C1042 1.392 . S
C1041 C1045 1.495 . S
C1042 C1041 1.392 . S
C1042 C1043 1.385 . S
C1042 C1044 1.478 . S
C1043 H1037 0.930 . S
C1043 C1039 1.400 . S
C1043 C1042 1.385 . S
C1044 C1042 1.478 . S
C1044 C1046 1.381 . S
C1044 C1050 1.383 . S
C1045 C1041 1.495 . S
C1045 H1051 0.959 . S
C1045 H1052 0.961 . S
C1045 H1053 0.960 . S
C1046 C1044 1.381 . S
C1046 C1047 1.394 . S
C1046 H1054 0.930 . S
C1047 C1046 1.394 . S
C1047 C1048 1.383 . S
C1047 H1055 0.929 . S
C1048 C1047 1.383 . S
C1048 C1049 1.377 . S
C1049 H1033 0.930 . S
C1049 C1048 1.377 . S
C1049 C1050 1.379 . S
C1050 H1034 0.931 . S
C1050 C1044 1.383 . S
C1050 C1049 1.379 . S
H1051 C1045 0.959 . S
H1052 C1045 0.961 . S
H1053 C1045 0.960 . S
H1054 C1046 0.930 . S
H1055 C1047 0.929 . S
C201 N2 1.555 1_556 S
C220 C147 1.550 . S
C256 C111 1.531 . S
C237 N15 1.554 . S
C292 C134 1.529 . S
C273 N28 1.527 1_556 S
C328 C122 1.533 . S
C309 N41 1.533 . S
C364 C191 1.529 . S
C345 N54 1.554 1_556 S
C400 C155 1.548 . S
C381 N67 1.555 . S
C417 N80 1.526 1_556 S
C436 C178 1.529 . S
C472 C166 1.537 . S
C453 N93 1.530 . S
C489 N5 1.501 1_556 S
C508 C188 1.508 . S
C544 C158 1.509 . S
C525 N18 1.500 . S
C561 N31 1.529 1_556 S
C580 C177 1.518 . S
C597 N44 1.533 . S
C616 C163 1.527 . S
C652 C144 1.502 . S
C633 N57 1.503 1_556 S
C669 N70 1.504 . S
C688 C114 1.500 . S
C724 C133 1.515 . S
C705 N83 1.530 1_556 S
C760 C119 1.515 . S
C741 N96 1.530 . S
C796 C169 1.543 . S
C777 N1 1.543 . S
C832 C185 1.543 . S
C813 N14 1.543 . S
C849 N27 1.489 . S
C868 C156 1.494 . S
C904 C180 1.503 . S
C885 N40 1.483 . S
C940 C125 1.528 . S
C921 N53 1.541 . S
C957 N66 1.540 . S
C976 C141 1.520 . S
C993 N79 1.489 . S
C1012 C112 1.494 . S
C1029 N92 1.486 . S
C1048 C136 1.499 . S
