# Generated by pormake.
# Topology nom, (4,4)-cn, num edge types: 1
# Building blocks:
#     Node 0, Type 0, BuildingBlock: GIZVER_clean_linker_0, # of connection points: 4
#     Node 1, Type 0, BuildingBlock: GIZVER_clean_linker_0, # of connection points: 4
#     Node 2, Type 0, BuildingBlock: GIZVER_clean_linker_0, # of connection points: 4
#     Node 3, Type 0, BuildingBlock: GIZVER_clean_linker_0, # of connection points: 4
#     Node 4, Type 0, BuildingBlock: GIZVER_clean_linker_0, # of connection points: 4
#     Node 5, Type 0, BuildingBlock: GIZVER_clean_linker_0, # of connection points: 4
#     Node 6, Type 1, BuildingBlock: AZAVOO_clean_sbu_0, # of connection points: 4
#     Node 7, Type 1, BuildingBlock: AZAVOO_clean_sbu_0, # of connection points: 4
#     Node 8, Type 1, BuildingBlock: AZAVOO_clean_sbu_0, # of connection points: 4
#     Node 9, Type 1, BuildingBlock: AZAVOO_clean_sbu_0, # of connection points: 4
#     Node 10, Type 1, BuildingBlock: AZAVOO_clean_sbu_0, # of connection points: 4
#     Node 11, Type 1, BuildingBlock: AZAVOO_clean_sbu_0, # of connection points: 4
#     Edge 12, Type (0, 1), BuildingBlock: MIFKUJ_clean_linker_0, # of connection points: 2
#     Edge 13, Type (0, 1), BuildingBlock: MIFKUJ_clean_linker_0, # of connection points: 2
#     Edge 14, Type (0, 1), BuildingBlock: MIFKUJ_clean_linker_0, # of connection points: 2
#     Edge 15, Type (0, 1), BuildingBlock: MIFKUJ_clean_linker_0, # of connection points: 2
#     Edge 16, Type (0, 1), BuildingBlock: MIFKUJ_clean_linker_0, # of connection points: 2
#     Edge 17, Type (0, 1), BuildingBlock: MIFKUJ_clean_linker_0, # of connection points: 2
#     Edge 18, Type (0, 1), BuildingBlock: MIFKUJ_clean_linker_0, # of connection points: 2
#     Edge 19, Type (0, 1), BuildingBlock: MIFKUJ_clean_linker_0, # of connection points: 2
#     Edge 20, Type (0, 1), BuildingBlock: MIFKUJ_clean_linker_0, # of connection points: 2
#     Edge 21, Type (0, 1), BuildingBlock: MIFKUJ_clean_linker_0, # of connection points: 2
#     Edge 22, Type (0, 1), BuildingBlock: MIFKUJ_clean_linker_0, # of connection points: 2
#     Edge 23, Type (0, 1), BuildingBlock: MIFKUJ_clean_linker_0, # of connection points: 2
#     Edge 24, Type (0, 1), BuildingBlock: MIFKUJ_clean_linker_0, # of connection points: 2
#     Edge 25, Type (0, 1), BuildingBlock: MIFKUJ_clean_linker_0, # of connection points: 2
#     Edge 26, Type (0, 1), BuildingBlock: MIFKUJ_clean_linker_0, # of connection points: 2
#     Edge 27, Type (0, 1), BuildingBlock: MIFKUJ_clean_linker_0, # of connection points: 2
#     Edge 28, Type (0, 1), BuildingBlock: MIFKUJ_clean_linker_0, # of connection points: 2
#     Edge 29, Type (0, 1), BuildingBlock: MIFKUJ_clean_linker_0, # of connection points: 2
#     Edge 30, Type (0, 1), BuildingBlock: MIFKUJ_clean_linker_0, # of connection points: 2
#     Edge 31, Type (0, 1), BuildingBlock: MIFKUJ_clean_linker_0, # of connection points: 2
#     Edge 32, Type (0, 1), BuildingBlock: MIFKUJ_clean_linker_0, # of connection points: 2
#     Edge 33, Type (0, 1), BuildingBlock: MIFKUJ_clean_linker_0, # of connection points: 2
#     Edge 34, Type (0, 1), BuildingBlock: MIFKUJ_clean_linker_0, # of connection points: 2
#     Edge 35, Type (0, 1), BuildingBlock: MIFKUJ_clean_linker_0, # of connection points: 2
# Relax obj value: 0.031
# Max RMSD: 0.159
# Mean RMSD: 0.104
data_MOF--net-nom--node1-AZAVOO_clean_sbu_0--node2-GIZVER_clean_linker_0--edge1-MIFKUJ_clean_linker_0
_symmetry_space_group_name_H-M    P1
_symmetry_Int_Tables_number       1
_symmetry_cell_setting            triclinic
loop_
_symmetry_equiv_pos_as_xyz
'x, y, z'
_cell_length_a     60.219239
_cell_length_b     60.744693
_cell_length_c     57.244647
_cell_angle_alpha  90.964497
_cell_angle_beta   90.945379
_cell_angle_gamma 120.01364
loop_
_atom_site_label
_atom_site_type_symbol
_atom_site_fract_x
_atom_site_fract_y
_atom_site_fract_z
_atom_type_partial_charge
H0 H 0.9727 0.54131 0.36335 0.0
H1 H 0.98378 0.54496 0.28895 0.0
H2 H 0.91679 0.4824 0.31728 0.0
H3 H 0.00351 0.58108 0.34603 0.0
H4 H 0.00631 0.58347 0.31509 0.0
H5 H 0.0261 0.56286 0.3689 0.0
H6 H 0.09484 0.5723 0.33814 0.0
H7 H 0.0393 0.57926 0.29583 0.0
C8 C 0.96675 0.53278 0.34594 0.0
C9 C 0.94353 0.5098 0.34264 0.0
C10 C 0.98169 0.54535 0.32665 0.0
C11 C 0.97301 0.5348 0.30396 0.0
C12 C 0.94944 0.5122 0.30056 0.0
C13 C 0.93529 0.49954 0.31998 0.0
C14 C 0.00509 0.5714 0.32999 0.0
C15 C 0.02933 0.56994 0.33189 0.0
C16 C 0.03757 0.56569 0.35364 0.0
C17 C 0.06113 0.5663 0.35595 0.0
C18 C 0.07604 0.57049 0.3362 0.0
C19 C 0.06842 0.57537 0.31457 0.0
C20 C 0.04491 0.57482 0.31239 0.0
H21 H 0.43506 0.9741 0.51329 0.0
H22 H 0.44976 0.99904 0.44228 0.0
H23 H 0.44606 0.92928 0.46075 0.0
H24 H 0.42891 0.00836 0.50154 0.0
H25 H 0.42743 0.01359 0.47116 0.0
H26 H 0.46819 0.03464 0.52497 0.0
H27 H 0.52518 0.10385 0.49491 0.0
H28 H 0.46562 0.04563 0.45087 0.0
C29 C 0.43985 0.97173 0.49561 0.0
C30 C 0.44078 0.94974 0.48924 0.0
C31 C 0.4437 0.99 0.47887 0.0
C32 C 0.44832 0.98596 0.45561 0.0
C33 C 0.44978 0.96435 0.44931 0.0
C34 C 0.44652 0.9467 0.46621 0.0
C35 C 0.43961 0.01194 0.48507 0.0
C36 C 0.46465 0.03679 0.48748 0.0
C37 C 0.47661 0.04585 0.50968 0.0
C38 C 0.49823 0.07022 0.51237 0.0
C39 C 0.50875 0.08481 0.49267 0.0
C40 C 0.49731 0.07608 0.47044 0.0
C41 C 0.47513 0.05206 0.46789 0.0
H42 H 0.44962 0.47877 0.59912 0.0
H43 H 0.46737 0.48136 0.6726 0.0
H44 H 0.4681 0.5454 0.6409 0.0
H45 H 0.43887 0.4398 0.62001 0.0
H46 H 0.44642 0.44103 0.65045 0.0
H47 H 0.47375 0.45325 0.59059 0.0
H48 H 0.53572 0.44156 0.61118 0.0
H49 H 0.48614 0.44392 0.66328 0.0
C50 C 0.45581 0.48923 0.6157 0.0
C51 C 0.45888 0.51369 0.61761 0.0
C52 C 0.45962 0.47779 0.63539 0.0
C53 C 0.46597 0.49081 0.65722 0.0
C54 C 0.46856 0.51508 0.65946 0.0
C55 C 0.46615 0.5267 0.63933 0.0
C56 C 0.45404 0.45065 0.63368 0.0
C57 C 0.47774 0.44948 0.62772 0.0
C58 C 0.48497 0.45092 0.60431 0.0
C59 C 0.50621 0.44857 0.59852 0.0
C60 C 0.5202 0.44473 0.61611 0.0
C61 C 0.51304 0.44268 0.63953 0.0
C62 C 0.49196 0.44553 0.64528 0.0
H63 H 0.97474 0.44378 0.78669 0.0
H64 H 0.99962 0.47482 0.85662 0.0
H65 H 0.92769 0.46274 0.82837 0.0
H66 H 0.01069 0.44315 0.80458 0.0
H67 H 0.01563 0.44811 0.83554 0.0
H68 H 0.02679 0.48349 0.77949 0.0
H69 H 0.10091 0.54372 0.80348 0.0
H70 H 0.05385 0.4844 0.84984 0.0
C71 C 0.97184 0.45175 0.80267 0.0
C72 C 0.94939 0.45312 0.80504 0.0
C73 C 0.99018 0.45984 0.82115 0.0
C74 C 0.98588 0.46928 0.84213 0.0
C75 C 0.96351 0.47074 0.84474 0.0
C76 C 0.94564 0.463 0.82598 0.0
C77 C 0.01331 0.45657 0.81924 0.0
C78 C 0.0372 0.48171 0.81538 0.0
C79 C 0.04116 0.49287 0.7934 0.0
C80 C 0.06403 0.51542 0.78903 0.0
C81 C 0.08265 0.52707 0.80708 0.0
C82 C 0.07923 0.51596 0.82896 0.0
C83 C 0.05637 0.49333 0.8331 0.0
H84 H 0.57198 0.05084 0.03378 0.0
H85 H 0.55482 0.03181 0.96037 0.0
H86 H 0.56681 0.10335 0.98795 0.0
H87 H 0.57395 0.01489 0.01633 0.0
H88 H 0.5693 0.00863 0.98546 0.0
H89 H 0.5321 0.0076 0.03844 0.0
H90 H 0.4682 0.93424 0.01957 0.0
H91 H 0.53328 0.96929 0.97518 0.0
C92 C 0.56784 0.05531 0.01657 0.0
C93 C 0.56934 0.07884 0.01315 0.0
C94 C 0.56169 0.03786 0.99767 0.0
C95 C 0.55804 0.04458 0.97512 0.0
C96 C 0.56048 0.06847 0.97141 0.0
C97 C 0.56492 0.08487 0.99069 0.0
C98 C 0.5614 0.01313 0.00109 0.0
C99 C 0.53461 0.99163 0.00534 0.0
C100 C 0.52245 0.99175 0.02601 0.0
C101 C 0.49867 0.9709 0.03143 0.0
C102 C 0.4866 0.95025 0.01539 0.0
C103 C 0.49903 0.94887 0.99529 0.0
C104 C 0.52295 0.97004 0.99018 0.0
H105 H 0.57744 0.5467 0.11572 0.0
H106 H 0.54039 0.54406 0.18022 0.0
H107 H 0.55249 0.48264 0.15978 0.0
H108 H 0.57224 0.58177 0.12626 0.0
H109 H 0.57387 0.5866 0.15717 0.0
H110 H 0.53149 0.56756 0.1041 0.0
H111 H 0.47365 0.57702 0.13844 0.0
H112 H 0.53728 0.58265 0.17842 0.0
C113 C 0.56725 0.53651 0.13094 0.0
C114 C 0.56519 0.51297 0.13564 0.0
C115 C 0.55734 0.54745 0.1465 0.0
C116 C 0.54627 0.53497 0.16725 0.0
C117 C 0.54417 0.51144 0.17203 0.0
C118 C 0.55284 0.50019 0.1557 0.0
C119 C 0.56157 0.57379 0.14253 0.0
C120 C 0.53659 0.574 0.14148 0.0
C121 C 0.52346 0.57034 0.11992 0.0
C122 C 0.50102 0.57202 0.1186 0.0
C123 C 0.49099 0.57576 0.13928 0.0
C124 C 0.5039 0.57957 0.16086 0.0
C125 C 0.52685 0.57895 0.16186 0.0
Mg126 Mg 0.63584 0.37609 0.3637 0.0
O127 O 0.6221 0.39082 0.39454 0.0
O128 O 0.64055 0.43297 0.39097 0.0
Mg129 Mg 0.66486 0.44508 0.35863 0.0
C130 C 0.62598 0.41259 0.40161 0.0
C131 C 0.59778 0.32183 0.38086 0.0
O132 O 0.58164 0.32866 0.37278 0.0
O133 O 0.67573 0.39225 0.38089 0.0
O134 O 0.69249 0.43388 0.37559 0.0
O135 O 0.6024 0.37096 0.34213 0.0
O136 O 0.63992 0.40644 0.34392 0.0
C137 C 0.69438 0.4151 0.38287 0.0
C138 C 0.61627 0.39455 0.3367 0.0
O139 O 0.62172 0.33765 0.38059 0.0
Mg140 Mg 0.2796 0.64241 0.58647 0.0
O141 O 0.2504 0.6274 0.55538 0.0
O142 O 0.22683 0.58514 0.55885 0.0
Mg143 Mg 0.23887 0.57347 0.59222 0.0
C144 C 0.23253 0.60547 0.54811 0.0
C145 C 0.29583 0.6962 0.56817 0.0
O146 O 0.27271 0.68905 0.57552 0.0
O147 O 0.3029 0.62576 0.57033 0.0
O148 O 0.27779 0.5844 0.57673 0.0
O149 O 0.25198 0.64818 0.60754 0.0
O150 O 0.25295 0.61233 0.60615 0.0
C151 C 0.29855 0.6029 0.5694 0.0
C152 C 0.2418 0.6246 0.6131 0.0
O153 O 0.3042 0.68071 0.5693 0.0
Mg154 Mg 0.63545 0.26486 0.75703 0.0
O155 O 0.6252 0.2378 0.72474 0.0
O156 O 0.64129 0.21236 0.73222 0.0
Mg157 Mg 0.66175 0.22276 0.76793 0.0
C158 C 0.62884 0.21939 0.71898 0.0
C159 C 0.6053 0.29213 0.74528 0.0
O160 O 0.5925 0.27774 0.76262 0.0
O161 O 0.67719 0.28793 0.74612 0.0
O162 O 0.69207 0.26188 0.75492 0.0
O163 O 0.59928 0.23651 0.77389 0.0
O164 O 0.63623 0.23721 0.77738 0.0
C165 C 0.6955 0.28307 0.74754 0.0
C166 C 0.61209 0.22604 0.78135 0.0
O167 O 0.62458 0.2911 0.73788 0.0
Mg168 Mg 0.39811 0.65078 0.86808 0.0
O169 O 0.40608 0.63083 0.89841 0.0
O170 O 0.39201 0.59065 0.88617 0.0
Mg171 Mg 0.37402 0.58432 0.84958 0.0
C172 C 0.40273 0.60857 0.90164 0.0
C173 C 0.41873 0.70649 0.88003 0.0
O174 O 0.42346 0.70551 0.85782 0.0
O175 O 0.35566 0.63081 0.87688 0.0
O176 O 0.34231 0.59103 0.86411 0.0
O177 O 0.43571 0.66049 0.85264 0.0
O178 O 0.39911 0.62499 0.8445 0.0
C179 C 0.3379 0.60773 0.87335 0.0
C180 C 0.42352 0.63833 0.84226 0.0
O181 O 0.40752 0.68578 0.89096 0.0
Mg182 Mg 0.75561 0.39015 0.05233 0.0
O183 O 0.78439 0.40025 0.08334 0.0
O184 O 0.80966 0.38432 0.07425 0.0
Mg185 Mg 0.79649 0.36316 0.03893 0.0
C186 C 0.80324 0.39677 0.08808 0.0
C187 C 0.70858 0.39418 0.06495 0.0
O188 O 0.70002 0.37729 0.04757 0.0
O189 O 0.73225 0.34908 0.06402 0.0
O190 O 0.75783 0.33379 0.05413 0.0
O191 O 0.78382 0.42543 0.03483 0.0
O192 O 0.7813 0.3881 0.02975 0.0
C193 C 0.73694 0.33079 0.06247 0.0
C194 C 0.7929 0.41205 0.02567 0.0
O195 O 0.73142 0.40273 0.07271 0.0
Mg196 Mg 0.37462 0.75186 0.22005 0.0
O197 O 0.39042 0.77829 0.253 0.0
O198 O 0.43258 0.80308 0.24776 0.0
Mg199 Mg 0.4437 0.79347 0.21292 0.0
C200 C 0.41263 0.79623 0.25985 0.0
C201 C 0.32089 0.73264 0.24142 0.0
O202 O 0.32777 0.75654 0.23807 0.0
O203 O 0.39231 0.72828 0.23244 0.0
O204 O 0.43382 0.75421 0.22596 0.0
O205 O 0.36745 0.78046 0.2029 0.0
O206 O 0.40399 0.78028 0.20116 0.0
C207 C 0.41548 0.73299 0.23254 0.0
C208 C 0.39115 0.79161 0.19685 0.0
O209 O 0.33665 0.72509 0.23694 0.0
H210 H 0.09306 0.55317 0.29371 0.0
H211 H 0.13365 0.57555 0.27331 0.0
H212 H 0.12915 0.64426 0.27605 0.0
H213 H 0.08812 0.62162 0.2954 0.0
H214 H 0.15425 0.64371 0.23851 0.0
H215 H 0.15485 0.62538 0.32063 0.0
H216 H 0.14292 0.59565 0.35302 0.0
H217 H 0.18536 0.56319 0.32319 0.0
H218 H 0.19637 0.59173 0.28987 0.0
H219 H 0.28244 0.74253 0.2513 0.0
H220 H 0.23756 0.71188 0.25833 0.0
H221 H 0.25368 0.65041 0.25212 0.0
H222 H 0.29879 0.68101 0.24541 0.0
H223 H 0.22271 0.64342 0.28777 0.0
H224 H 0.22437 0.66296 0.20708 0.0
H225 H 0.2346 0.69075 0.17329 0.0
H226 H 0.18911 0.72107 0.20059 0.0
H227 H 0.17888 0.69371 0.23473 0.0
C228 C 0.10025 0.57273 0.28896 0.0
C229 C 0.08764 0.58576 0.29614 0.0
C230 C 0.12351 0.58557 0.27752 0.0
C231 C 0.13485 0.6118 0.27386 0.0
C232 C 0.1209 0.62409 0.27884 0.0
C233 C 0.09739 0.61112 0.28983 0.0
C234 C 0.16237 0.62723 0.26811 0.0
C235 C 0.16922 0.64371 0.24931 0.0
C236 C 0.18195 0.62692 0.282 0.0
C237 C 0.17619 0.61051 0.30258 0.0
C238 C 0.16153 0.61182 0.32089 0.0
C239 C 0.1549 0.59515 0.33941 0.0
C240 C 0.16351 0.57768 0.34026 0.0
C241 C 0.17869 0.57673 0.32251 0.0
C242 C 0.185 0.59304 0.30372 0.0
C243 C 0.27652 0.72251 0.25158 0.0
C244 C 0.2942 0.71422 0.24766 0.0
C245 C 0.2508 0.70499 0.25544 0.0
C246 C 0.24215 0.6788 0.25527 0.0
C247 C 0.2599 0.67051 0.25216 0.0
C248 C 0.28568 0.68804 0.24834 0.0
C249 C 0.21457 0.66016 0.25837 0.0
C250 C 0.20775 0.64318 0.27675 0.0
C251 C 0.19504 0.66002 0.24413 0.0
C252 C 0.20103 0.67642 0.22356 0.0
C253 C 0.21669 0.67568 0.20596 0.0
C254 C 0.22247 0.69134 0.18673 0.0
C255 C 0.21255 0.7077 0.18482 0.0
C256 C 0.19679 0.7084 0.20211 0.0
C257 C 0.19097 0.6928 0.22139 0.0
H258 H 0.21705 0.71981 0.16992 0.0
H259 H 0.15839 0.56485 0.35466 0.0
H260 H 0.5462 0.10241 0.45532 0.0
H261 H 0.56456 0.1418 0.43364 0.0
H262 H 0.48887 0.13126 0.42189 0.0
H263 H 0.47041 0.09169 0.44344 0.0
H264 H 0.52222 0.15608 0.38504 0.0
H265 H 0.52053 0.16279 0.46911 0.0
H266 H 0.52916 0.15488 0.50944 0.0
H267 H 0.60999 0.19363 0.49715 0.0
H268 H 0.60179 0.20156 0.45661 0.0
H269 H 0.54805 0.28308 0.38143 0.0
H270 H 0.53234 0.23897 0.39172 0.0
H271 H 0.6099 0.25633 0.40707 0.0
H272 H 0.62583 0.30067 0.39701 0.0
H273 H 0.57766 0.22754 0.44024 0.0
H274 H 0.57912 0.22452 0.35673 0.0
H275 H 0.56971 0.23207 0.31653 0.0
H276 H 0.48891 0.18645 0.32769 0.0
H277 H 0.49782 0.17891 0.36809 0.0
C278 C 0.53342 0.10801 0.44728 0.0
C279 C 0.50695 0.09421 0.45117 0.0
C280 C 0.54392 0.13054 0.43503 0.0
C281 C 0.52811 0.13971 0.42668 0.0
C282 C 0.50139 0.12453 0.4283 0.0
C283 C 0.49084 0.10188 0.4405 0.0
C284 C 0.53957 0.16649 0.41957 0.0
C285 C 0.53422 0.17174 0.3971 0.0
C286 C 0.5555 0.18687 0.43528 0.0
C287 C 0.56053 0.18253 0.45976 0.0
C288 C 0.54013 0.16948 0.47496 0.0
C289 C 0.54494 0.165 0.49786 0.0
C290 C 0.57009 0.17363 0.50583 0.0
C291 C 0.5905 0.1869 0.49093 0.0
C292 C 0.58579 0.19142 0.468 0.0
C293 C 0.56181 0.27759 0.38706 0.0
C294 C 0.58822 0.29541 0.38832 0.0
C295 C 0.55279 0.25229 0.39279 0.0
C296 C 0.56998 0.24425 0.39978 0.0
C297 C 0.59631 0.2621 0.40158 0.0
C298 C 0.60537 0.28743 0.39583 0.0
C299 C 0.56036 0.21729 0.40562 0.0
C300 C 0.56594 0.21197 0.42799 0.0
C301 C 0.54459 0.19691 0.38983 0.0
C302 C 0.53915 0.20133 0.36551 0.0
C303 C 0.55934 0.21626 0.35068 0.0
C304 C 0.55409 0.22051 0.32784 0.0
C305 C 0.52872 0.2098 0.31958 0.0
C306 C 0.50855 0.19475 0.33412 0.0
C307 C 0.51369 0.19046 0.35698 0.0
H308 H 0.5247 0.21311 0.3019 0.0
H309 H 0.57376 0.17011 0.52356 0.0
H310 H 0.41379 0.48968 0.5925 0.0
H311 H 0.39407 0.51003 0.5709 0.0
H312 H 0.46407 0.58233 0.57907 0.0
H313 H 0.4838 0.56196 0.60099 0.0
H314 H 0.42608 0.5852 0.5969 0.0
H315 H 0.43815 0.55553 0.52391 0.0
H316 H 0.43792 0.52491 0.49497 0.0
H317 H 0.35598 0.47944 0.49848 0.0
H318 H 0.35572 0.50957 0.52772 0.0
H319 H 0.34945 0.63698 0.56194 0.0
H320 H 0.38389 0.62707 0.55701 0.0
H321 H 0.32826 0.5469 0.55578 0.0
H322 H 0.29389 0.55654 0.56018 0.0
H323 H 0.36705 0.55606 0.52742 0.0
H324 H 0.35758 0.57913 0.60716 0.0
H325 H 0.35695 0.60797 0.63767 0.0
H326 H 0.43408 0.66442 0.62199 0.0
H327 H 0.43502 0.63597 0.59118 0.0
C328 C 0.42537 0.50969 0.5888 0.0
C329 C 0.45027 0.52427 0.59859 0.0
C330 C 0.41405 0.52137 0.57642 0.0
C331 C 0.42752 0.5478 0.57339 0.0
C332 C 0.45324 0.56195 0.58126 0.0
C333 C 0.46452 0.55029 0.59374 0.0
C334 C 0.41347 0.56094 0.56587 0.0
C335 C 0.41381 0.57936 0.58127 0.0
C336 C 0.39697 0.553 0.54579 0.0
C337 C 0.39695 0.53481 0.52812 0.0
C338 C 0.42009 0.53892 0.51864 0.0
C339 C 0.42004 0.52165 0.50216 0.0
C340 C 0.39695 0.50023 0.49491 0.0
C341 C 0.37385 0.49605 0.5041 0.0
C342 C 0.37379 0.51325 0.52061 0.0
C343 C 0.34449 0.61726 0.56002 0.0
C344 C 0.31893 0.59756 0.56191 0.0
C345 C 0.36421 0.61162 0.55726 0.0
C346 C 0.3587 0.58622 0.55648 0.0
C347 C 0.33303 0.56663 0.55642 0.0
C348 C 0.31337 0.57221 0.55912 0.0
C349 C 0.37936 0.57971 0.55876 0.0
C350 C 0.38008 0.56246 0.54254 0.0
C351 C 0.39679 0.58854 0.57818 0.0
C352 C 0.39624 0.6056 0.59669 0.0
C353 C 0.37432 0.59777 0.61012 0.0
C354 C 0.37392 0.61402 0.62747 0.0
C355 C 0.39543 0.63805 0.63171 0.0
C356 C 0.41741 0.64583 0.61865 0.0
C357 C 0.41789 0.62966 0.60124 0.0
H358 H 0.39509 0.65061 0.64516 0.0
H359 H 0.39695 0.48688 0.48214 0.0
H360 H 0.92911 0.40622 0.7838 0.0
H361 H 0.88792 0.38279 0.76264 0.0
H362 H 0.87949 0.44926 0.76592 0.0
H363 H 0.92067 0.4727 0.78734 0.0
H364 H 0.84002 0.41063 0.78408 0.0
H365 H 0.88336 0.42293 0.71284 0.0
H366 H 0.91518 0.42368 0.68584 0.0
H367 H 0.88287 0.34307 0.69194 0.0
H368 H 0.85107 0.34187 0.71926 0.0
H369 H 0.71325 0.33371 0.74003 0.0
H370 H 0.75808 0.36773 0.73881 0.0
H371 H 0.7827 0.31235 0.74359 0.0
H372 H 0.73815 0.27831 0.74451 0.0
H373 H 0.81381 0.3511 0.71547 0.0
H374 H 0.7776 0.34119 0.79236 0.0
H375 H 0.74663 0.33996 0.82074 0.0
H376 H 0.76691 0.41642 0.80448 0.0
H377 H 0.79778 0.41797 0.77577 0.0
C378 C 0.91894 0.41613 0.77925 0.0
C379 C 0.92801 0.44123 0.78736 0.0
C380 C 0.89534 0.4027 0.76712 0.0
C381 C 0.88053 0.41423 0.76266 0.0
C382 C 0.89051 0.43993 0.76922 0.0
C383 C 0.91403 0.4533 0.78144 0.0
C384 C 0.85332 0.39852 0.75446 0.0
C385 C 0.83436 0.39817 0.76867 0.0
C386 C 0.84582 0.38176 0.73469 0.0
C387 C 0.8649 0.38235 0.71823 0.0
C388 C 0.88314 0.40539 0.70857 0.0
C389 C 0.90117 0.40589 0.69318 0.0
C390 C 0.90107 0.38345 0.68721 0.0
C391 C 0.88292 0.36044 0.69658 0.0
C392 C 0.86486 0.35983 0.712 0.0
C393 C 0.72816 0.3287 0.7403 0.0
C394 C 0.72207 0.30328 0.74275 0.0
C395 C 0.75379 0.34819 0.73965 0.0
C396 C 0.77374 0.3426 0.74149 0.0
C397 C 0.76764 0.31712 0.7422 0.0
C398 C 0.7421 0.29767 0.74288 0.0
C399 C 0.80081 0.36311 0.7453 0.0
C400 C 0.81964 0.36418 0.73044 0.0
C401 C 0.80831 0.38053 0.76454 0.0
C402 C 0.78971 0.37957 0.78171 0.0
C403 C 0.77528 0.35765 0.7947 0.0
C404 C 0.75778 0.35691 0.81086 0.0
C405 C 0.75474 0.37807 0.81435 0.0
C406 C 0.76923 0.40003 0.80171 0.0
C407 C 0.78673 0.40085 0.7855 0.0
H408 H 0.7412 0.37747 0.82689 0.0
H409 H 0.91504 0.38388 0.67529 0.0
H410 H 0.47081 0.90018 0.01138 0.0
H411 H 0.45586 0.86034 0.9904 0.0
H412 H 0.48956 0.90024 0.92748 0.0
H413 H 0.50319 0.94087 0.94806 0.0
H414 H 0.4442 0.85793 0.91786 0.0
H415 H 0.52036 0.87713 0.9626 0.0
H416 H 0.54731 0.88972 -0.0013 0.0
H417 H 0.49022 0.82298 0.03206 0.0
H418 H 0.46275 0.81017 0.99625 0.0
H419 H 0.44416 0.75339 0.8611 0.0
H420 H 0.45683 0.79447 0.87982 0.0
H421 H 0.42324 0.75738 0.94394 0.0
H422 H 0.41077 0.71599 0.92535 0.0
H423 H 0.46942 0.79886 0.95225 0.0
H424 H 0.39306 0.77982 0.90841 0.0
H425 H 0.36463 0.76782 0.87335 0.0
H426 H 0.42106 0.83409 0.83894 0.0
H427 H 0.45 0.84632 0.87369 0.0
C428 C 0.47469 0.90091 0.99297 0.0
C429 C 0.4885 0.92423 0.98162 0.0
C430 C 0.46634 0.87783 0.98102 0.0
C431 C 0.47218 0.87725 0.95753 0.0
C432 C 0.48511 0.90024 0.94573 0.0
C433 C 0.49315 0.92351 0.95764 0.0
C434 C 0.46534 0.85258 0.94572 0.0
C435 C 0.45007 0.84519 0.92514 0.0
C436 C 0.47247 0.83566 0.95555 0.0
C437 C 0.48944 0.84277 0.97677 0.0
C438 C 0.51354 0.86516 0.97765 0.0
C439 C 0.52889 0.87235 0.99807 0.0
C440 C 0.52045 0.85719 0.01768 0.0
C441 C 0.49672 0.83471 0.01685 0.0
C442 C 0.48127 0.82745 0.99649 0.0
C443 C 0.43939 0.75388 0.87919 0.0
C444 C 0.42634 0.73134 0.89171 0.0
C445 C 0.44658 0.77744 0.88984 0.0
C446 C 0.44068 0.77902 0.91319 0.0
C447 C 0.42792 0.75661 0.92587 0.0
C448 C 0.42076 0.73296 0.91521 0.0
C449 C 0.44819 0.80414 0.9244 0.0
C450 C 0.46363 0.81163 0.94487 0.0
C451 C 0.44119 0.82111 0.91448 0.0
C452 C 0.4238 0.81385 0.89357 0.0
C453 C 0.39949 0.79173 0.8933 0.0
C454 C 0.38327 0.78491 0.87349 0.0
C455 C 0.39106 0.80015 0.8539 0.0
C456 C 0.41506 0.82229 0.85411 0.0
C457 C 0.43138 0.82918 0.87386 0.0
H458 H 0.37847 0.79483 0.83859 0.0
H459 H 0.53232 0.86283 0.0335 0.0
H460 H 0.54627 0.47022 0.10776 0.0
H461 H 0.57024 0.45039 0.09277 0.0
H462 H 0.64046 0.51315 0.1221 0.0
H463 H 0.61664 0.53357 0.13571 0.0
H464 H 0.65124 0.49882 0.08396 0.0
H465 H 0.60374 0.45282 0.15097 0.0
H466 H 0.56484 0.42866 0.17397 0.0
H467 H 0.53073 0.37226 0.1185 0.0
H468 H 0.56936 0.39616 0.09514 0.0
H469 H 0.72349 0.43584 0.09406 0.0
H470 H 0.69858 0.45629 0.10415 0.0
H471 H 0.6336 0.39831 0.06417 0.0
H472 H 0.65828 0.37772 0.05405 0.0
H473 H 0.61978 0.40961 0.10623 0.0
H474 H 0.67061 0.45506 0.04104 0.0
H475 H 0.71074 0.47935 0.01983 0.0
H476 H 0.74022 0.53744 0.07411 0.0
H477 H 0.70038 0.51331 0.0958 0.0
C478 C 0.56694 0.48005 0.11026 0.0
C479 C 0.57976 0.50351 0.1225 0.0
C480 C 0.58059 0.46857 0.10208 0.0
C481 C 0.60713 0.4799 0.10683 0.0
C482 C 0.62004 0.50396 0.11818 0.0
C483 C 0.60648 0.51571 0.12584 0.0
C484 C 0.62132 0.46636 0.10095 0.0
C485 C 0.64446 0.47942 0.08909 0.0
C486 C 0.61241 0.44085 0.10723 0.0
C487 C 0.58924 0.42642 0.12124 0.0
C488 C 0.58782 0.43538 0.14364 0.0
C489 C 0.56587 0.42173 0.15674 0.0
C490 C 0.54528 0.39905 0.14765 0.0
C491 C 0.54666 0.38988 0.12549 0.0
C492 C 0.56859 0.40343 0.11234 0.0
C493 C 0.70381 0.42728 0.08762 0.0
C494 C 0.69291 0.40521 0.07315 0.0
C495 C 0.68966 0.43909 0.09327 0.0
C496 C 0.66436 0.42902 0.08462 0.0
C497 C 0.65313 0.40646 0.07094 0.0
C498 C 0.66729 0.39474 0.06517 0.0
C499 C 0.64969 0.44217 0.08949 0.0
C500 C 0.62649 0.42902 0.10111 0.0
C501 C 0.65871 0.46766 0.08324 0.0
C502 C 0.68261 0.48226 0.07015 0.0
C503 C 0.68572 0.47292 0.04854 0.0
C504 C 0.70841 0.48667 0.03641 0.0
C505 C 0.72804 0.50989 0.04564 0.0
C506 C 0.725 0.51944 0.06699 0.0
C507 C 0.70237 0.50574 0.0792 0.0
H508 H 0.74559 0.52051 0.03623 0.0
H509 H 0.5283 0.38853 0.15782 0.0
H510 H 0.39822 0.9293 0.51591 0.0
H511 H 0.37772 0.88758 0.53353 0.0
H512 H 0.44138 0.87792 0.51441 0.0
H513 H 0.46205 0.91975 0.49681 0.0
H514 H 0.39706 0.83889 0.49846 0.0
H515 H 0.42921 0.88313 0.57183 0.0
H516 H 0.4375 0.91528 0.60276 0.0
H517 H 0.35648 0.88346 0.61102 0.0
H518 H 0.34768 0.85132 0.5799 0.0
H519 H 0.34484 0.71778 0.55203 0.0
H520 H 0.37287 0.76212 0.5416 0.0
H521 H 0.31274 0.77869 0.55681 0.0
H522 H 0.28471 0.73458 0.56735 0.0
H523 H 0.35842 0.8144 0.57632 0.0
H524 H 0.32653 0.77249 0.50112 0.0
H525 H 0.31804 0.74092 0.46954 0.0
H526 H 0.39887 0.76902 0.46447 0.0
H527 H 0.40781 0.80054 0.49627 0.0
C528 C 0.40833 0.91874 0.51624 0.0
C529 C 0.43174 0.92781 0.50492 0.0
C530 C 0.39651 0.89479 0.52623 0.0
C531 C 0.40797 0.87956 0.52524 0.0
C532 C 0.43213 0.88928 0.51527 0.0
C533 C 0.44395 0.91321 0.5053 0.0
C534 C 0.39361 0.85266 0.53238 0.0
C535 C 0.38908 0.83355 0.51567 0.0
C536 C 0.38259 0.84567 0.5546 0.0
C537 C 0.38779 0.86493 0.57338 0.0
C538 C 0.41315 0.88311 0.58011 0.0
C539 C 0.41794 0.90131 0.59771 0.0
C540 C 0.39753 0.90145 0.60882 0.0
C541 C 0.37227 0.88334 0.60239 0.0
C542 C 0.36737 0.8651 0.58479 0.0
C543 C 0.33753 0.73082 0.55301 0.0
C544 C 0.3125 0.7226 0.56051 0.0
C545 C 0.35357 0.75616 0.54703 0.0
C546 C 0.34488 0.77371 0.54838 0.0
C547 C 0.31988 0.7655 0.55572 0.0
C548 C 0.30383 0.74021 0.56162 0.0
C549 C 0.3618 0.80071 0.54236 0.0
C550 C 0.36671 0.81979 0.55923 0.0
C551 C 0.37318 0.80771 0.52029 0.0
C552 C 0.36781 0.78865 0.50129 0.0
C553 C 0.34248 0.77176 0.49344 0.0
C554 C 0.33759 0.75392 0.47546 0.0
C555 C 0.3579 0.7529 0.46506 0.0
C556 C 0.38315 0.76978 0.47258 0.0
C557 C 0.38814 0.78765 0.49057 0.0
H558 H 0.35407 0.73908 0.45113 0.0
H559 H 0.40128 0.91556 0.62244 0.0
H560 H 0.49055 0.40685 0.67291 0.0
H561 H 0.51023 0.38663 0.69504 0.0
H562 H 0.58369 0.43823 0.66656 0.0
H563 H 0.56432 0.45902 0.64486 0.0
H564 H 0.56805 0.38727 0.65802 0.0
H565 H 0.57636 0.44168 0.72304 0.0
H566 H 0.56153 0.46194 0.75168 0.0
H567 H 0.50768 0.38871 0.77751 0.0
H568 H 0.52193 0.36797 0.74878 0.0
H569 H 0.63269 0.33197 0.71645 0.0
H570 H 0.62043 0.3621 0.70166 0.0
H571 H 0.54839 0.32214 0.7366 0.0
H572 H 0.56087 0.29259 0.75201 0.0
H573 H 0.56666 0.37068 0.74266 0.0
H574 H 0.55401 0.31574 0.67627 0.0
H575 H 0.56616 0.29384 0.64684 0.0
H576 H 0.62485 0.36585 0.62268 0.0
H577 H 0.61326 0.38819 0.65219 0.0
C578 C 0.51106 0.41454 0.67201 0.0
C579 C 0.52581 0.43439 0.65691 0.0
C580 C 0.52227 0.40285 0.68458 0.0
C581 C 0.54838 0.41081 0.68227 0.0
C582 C 0.56347 0.43169 0.66844 0.0
C583 C 0.55235 0.44351 0.65604 0.0
C584 C 0.55921 0.39566 0.69217 0.0
C585 C 0.56824 0.38403 0.67659 0.0
C586 C 0.55866 0.39084 0.71628 0.0
C587 C 0.55007 0.40325 0.73361 0.0
C588 C 0.5612 0.42987 0.73468 0.0
C589 C 0.55293 0.44145 0.75096 0.0
C590 C 0.53364 0.42662 0.76636 0.0
C591 C 0.52261 0.40018 0.76555 0.0
C592 C 0.5308 0.3885 0.74929 0.0
C593 C 0.6142 0.32957 0.72089 0.0
C594 C 0.59772 0.30984 0.73534 0.0
C595 C 0.60718 0.34678 0.7124 0.0
C596 C 0.58335 0.34428 0.71782 0.0
C597 C 0.5669 0.32456 0.73223 0.0
C598 C 0.57403 0.30758 0.74094 0.0
C599 C 0.57534 0.36204 0.70847 0.0
C600 C 0.56675 0.37411 0.72411 0.0
C601 C 0.57593 0.36701 0.68434 0.0
C602 C 0.58297 0.35362 0.66662 0.0
C603 C 0.56965 0.3269 0.66481 0.0
C604 C 0.57641 0.31441 0.64809 0.0
C605 C 0.59632 0.32844 0.63295 0.0
C606 C 0.60947 0.355 0.63445 0.0
C607 C 0.6028 0.36759 0.65116 0.0
H608 H 0.60152 0.31874 0.62002 0.0
H609 H 0.52726 0.43562 0.77896 0.0
H610 H 0.10124 0.49067 0.8482 0.0
H611 H 0.14382 0.50956 0.86682 0.0
H612 H 0.15031 0.58361 0.86556 0.0
H613 H 0.10799 0.56473 0.84603 0.0
H614 H 0.18904 0.58614 0.84607 0.0
H615 H 0.15035 0.55305 0.91832 0.0
H616 H 0.12081 0.52119 0.94549 0.0
H617 H 0.15505 0.47506 0.93232 0.0
H618 H 0.18456 0.50645 0.90481 0.0
H619 H 0.31831 0.63861 0.88506 0.0
H620 H 0.27305 0.62615 0.88842 0.0
H621 H 0.25136 0.54754 0.8765 0.0
H622 H 0.29636 0.55969 0.87331 0.0
H623 H 0.22084 0.55303 0.90908 0.0
H624 H 0.2526 0.58249 0.83145 0.0
H625 H 0.28171 0.61399 0.80375 0.0
H626 H 0.25941 0.66722 0.82799 0.0
H627 H 0.23039 0.6361 0.85605 0.0
C628 C 0.11138 0.51082 0.85269 0.0
C629 C 0.1014 0.52627 0.8457 0.0
C630 C 0.13576 0.52166 0.86339 0.0
C631 C 0.15039 0.54808 0.86773 0.0
C632 C 0.1395 0.56322 0.86235 0.0
C633 C 0.11529 0.55243 0.85131 0.0
C634 C 0.17811 0.56015 0.8745 0.0
C635 C 0.19587 0.57934 0.86033 0.0
C636 C 0.18725 0.55101 0.89275 0.0
C637 C 0.16961 0.53208 0.90938 0.0
C638 C 0.15148 0.53603 0.92109 0.0
C639 C 0.13475 0.51806 0.93658 0.0
C640 C 0.13603 0.4961 0.94061 0.0
C641 C 0.15409 0.49209 0.92919 0.0
C642 C 0.17085 0.50999 0.91367 0.0
C643 C 0.30396 0.61863 0.88357 0.0
C644 C 0.31099 0.6002 0.87857 0.0
C645 C 0.27809 0.61155 0.88548 0.0
C646 C 0.25883 0.58594 0.88244 0.0
C647 C 0.26589 0.56739 0.87891 0.0
C648 C 0.29167 0.57443 0.87692 0.0
C649 C 0.23135 0.57857 0.88045 0.0
C650 C 0.21377 0.56022 0.89535 0.0
C651 C 0.22226 0.58848 0.86293 0.0
C652 C 0.23961 0.60712 0.84602 0.0
C653 C 0.25407 0.60099 0.83098 0.0
C654 C 0.27051 0.61875 0.8152 0.0
C655 C 0.27247 0.64262 0.81416 0.0
C656 C 0.25792 0.64875 0.82885 0.0
C657 C 0.24147 0.63106 0.84469 0.0
H658 H 0.28521 0.65635 0.80193 0.0
H659 H 0.12306 0.48221 0.9526 0.0
H660 H 0.61437 0.09794 0.0379 0.0
H661 H 0.63706 0.13929 0.05833 0.0
H662 H 0.57039 0.14773 0.04962 0.0
H663 H 0.54797 0.10662 0.02849 0.0
H664 H 0.60897 0.1857 0.03186 0.0
H665 H 0.59647 0.14682 0.10521 0.0
H666 H 0.5956 0.11694 0.13428 0.0
H667 H 0.67699 0.14873 0.12923 0.0
H668 H 0.67833 0.17857 0.09986 0.0
H669 H 0.6861 0.31342 0.07088 0.0
H670 H 0.65206 0.2691 0.07422 0.0
H671 H 0.70811 0.24484 0.0705 0.0
H672 H 0.74218 0.28893 0.06734 0.0
H673 H 0.6691 0.21553 0.10058 0.0
H674 H 0.67852 0.24698 0.0216 0.0
H675 H 0.67952 0.27634 0.99184 0.0
H676 H 0.60265 0.25728 0.00803 0.0
H677 H 0.60135 0.22804 0.03812 0.0
C678 C 0.60421 0.10814 0.04124 0.0
C679 C 0.57947 0.09917 0.03161 0.0
C680 C 0.6172 0.13184 0.05294 0.0
C681 C 0.6055 0.14678 0.05554 0.0
C682 C 0.57989 0.13667 0.04776 0.0
C683 C 0.56703 0.11314 0.03582 0.0
C684 C 0.62121 0.17417 0.06266 0.0
C685 C 0.62151 0.19213 0.04732 0.0
C686 C 0.63811 0.18275 0.08249 0.0
C687 C 0.63746 0.16487 0.1002 0.0
C688 C 0.61417 0.14733 0.11016 0.0
C689 C 0.61359 0.13042 0.12672 0.0
C690 C 0.63622 0.13092 0.13357 0.0
C691 C 0.65948 0.14837 0.1239 0.0
C692 C 0.66016 0.16533 0.10733 0.0
C693 C 0.69127 0.29873 0.07129 0.0
C694 C 0.71685 0.30473 0.06847 0.0
C695 C 0.67177 0.27339 0.07318 0.0
C696 C 0.67753 0.25365 0.0723 0.0
C697 C 0.70322 0.25975 0.0712 0.0
C698 C 0.72268 0.285 0.06923 0.0
C699 C 0.65687 0.22664 0.06964 0.0
C700 C 0.65586 0.20889 0.08561 0.0
C701 C 0.63922 0.21812 0.05041 0.0
C702 C 0.63996 0.23561 0.03229 0.0
C703 C 0.66192 0.24922 0.01893 0.0
C704 C 0.66252 0.26581 0.00199 0.0
C705 C 0.64119 0.26874 0.9981 0.0
C706 C 0.61918 0.25504 0.0111 0.0
C707 C 0.61849 0.23846 0.02809 0.0
H708 H 0.64169 0.28159 0.98497 0.0
H709 H 0.63573 0.1178 0.14639 0.0
H710 H 0.45625 0.55456 0.17899 0.0
H711 H 0.43755 0.57299 0.20496 0.0
H712 H 0.51137 0.64122 0.21359 0.0
H713 H 0.53024 0.62253 0.18811 0.0
H714 H 0.48159 0.63312 0.25261 0.0
H715 H 0.47488 0.64027 0.16924 0.0
H716 H 0.46516 0.62301 0.12876 0.0
H717 H 0.38729 0.57098 0.1464 0.0
H718 H 0.39655 0.58823 0.18707 0.0
H719 H 0.46249 0.73798 0.24128 0.0
H720 H 0.47302 0.70421 0.24225 0.0
H721 H 0.39254 0.64793 0.23692 0.0
H722 H 0.38177 0.68179 0.23569 0.0
H723 H 0.41938 0.6429 0.20219 0.0
H724 H 0.42889 0.65144 0.28533 0.0
H725 H 0.44405 0.67442 0.32335 0.0
H726 H 0.5222 0.70268 0.30431 0.0
H727 H 0.50755 0.68018 0.26603 0.0
C728 C 0.46864 0.57307 0.18721 0.0
C729 C 0.49457 0.58728 0.18142 0.0
C730 C 0.45797 0.58359 0.202 0.0
C731 C 0.47297 0.60867 0.21079 0.0
C732 C 0.49946 0.62184 0.20701 0.0
C733 C 0.51022 0.61117 0.19243 0.0
C734 C 0.46046 0.62271 0.21977 0.0
C735 C 0.46787 0.63521 0.24174 0.0
C736 C 0.44249 0.62531 0.20559 0.0
C737 C 0.43645 0.61532 0.18114 0.0
C738 C 0.4557 0.62512 0.16446 0.0
C739 C 0.45028 0.61534 0.14152 0.0
C740 C 0.42571 0.59574 0.13506 0.0
C741 C 0.40635 0.5861 0.15147 0.0
C742 C 0.41163 0.59595 0.17445 0.0
C743 C 0.44694 0.71844 0.24087 0.0
C744 C 0.42129 0.7126 0.23805 0.0
C745 C 0.45301 0.6991 0.24165 0.0
C746 C 0.43358 0.67351 0.23974 0.0
C747 C 0.40784 0.66757 0.2385 0.0
C748 C 0.40171 0.68695 0.23782 0.0
C749 C 0.44047 0.65358 0.23516 0.0
C750 C 0.43225 0.64012 0.21367 0.0
C751 C 0.45817 0.65076 0.24962 0.0
C752 C 0.46708 0.66416 0.27274 0.0
C753 C 0.44931 0.66267 0.28918 0.0
C754 C 0.45782 0.6756 0.3108 0.0
C755 C 0.48406 0.69002 0.31624 0.0
C756 C 0.50187 0.69149 0.30008 0.0
C757 C 0.49347 0.6786 0.27844 0.0
H758 H 0.49061 0.70003 0.33297 0.0
H759 H 0.42172 0.5881 0.11733 0.0
H760 H 0.92122 0.46103 0.35729 0.0
H761 H 0.88107 0.43899 0.37831 0.0
H762 H 0.88292 0.51028 0.38977 0.0
H763 H 0.92344 0.53239 0.36947 0.0
H764 H 0.85741 0.478 0.42424 0.0
H765 H 0.85572 0.47516 0.3392 0.0
H766 H 0.86677 0.46567 0.30045 0.0
H767 H 0.83471 0.38721 0.31765 0.0
H768 H 0.82342 0.39625 0.35654 0.0
H769 H 0.73551 0.4608 0.39662 0.0
H770 H 0.77953 0.47054 0.4034 0.0
H771 H 0.75552 0.3909 0.39547 0.0
H772 H 0.71118 0.38094 0.38841 0.0
H773 H 0.79199 0.41912 0.36567 0.0
H774 H 0.78251 0.42304 0.44747 0.0
H775 H 0.76993 0.43507 0.48417 0.0
H776 H 0.8219 0.51398 0.47197 0.0
H777 H 0.83453 0.50248 0.43501 0.0
C778 C 0.91361 0.47208 0.36528 0.0
C779 C 0.92522 0.49832 0.36168 0.0
C780 C 0.89062 0.45949 0.37714 0.0
C781 C 0.87863 0.4729 0.38501 0.0
C782 C 0.89174 0.49953 0.38376 0.0
C783 C 0.91495 0.51218 0.3722 0.0
C784 C 0.85099 0.45917 0.39057 0.0
C785 C 0.84304 0.46503 0.41154 0.0
C786 C 0.83223 0.4419 0.37414 0.0
C787 C 0.83903 0.43642 0.35083 0.0
C788 C 0.85118 0.45592 0.33475 0.0
C789 C 0.85745 0.45062 0.31276 0.0
C790 C 0.85161 0.4259 0.30664 0.0
C791 C 0.83931 0.40637 0.32245 0.0
C792 C 0.83292 0.41155 0.34444 0.0
C793 C 0.73942 0.44523 0.39683 0.0
C794 C 0.71985 0.42012 0.39163 0.0
C795 C 0.76464 0.45083 0.40095 0.0
C796 C 0.77087 0.43145 0.40005 0.0
C797 C 0.75113 0.40614 0.39634 0.0
C798 C 0.72579 0.40048 0.39232 0.0
C799 C 0.79821 0.43827 0.3992 0.0
C800 C 0.80618 0.4313 0.37889 0.0
C801 C 0.81684 0.45481 0.41609 0.0
C802 C 0.8094 0.46187 0.43838 0.0
C803 C 0.79114 0.44297 0.45252 0.0
C804 C 0.78402 0.4497 0.47339 0.0
C805 C 0.79509 0.47527 0.48039 0.0
C806 C 0.81335 0.49417 0.46654 0.0
C807 C 0.82053 0.48755 0.44564 0.0
H808 H 0.78954 0.48044 0.49655 0.0
H809 H 0.85651 0.42186 0.28961 0.0
H810 H 0.0656 0.59528 0.39456 0.0
H811 H 0.092 0.60194 0.42994 0.0
H812 H 0.10972 0.54539 0.40455 0.0
H813 H 0.08337 0.53867 0.36918 0.0
H814 H 0.09993 0.54365 0.45381 0.0
H815 H 0.15137 0.60544 0.39488 0.0
H816 H 0.16 0.64021 0.36806 0.0
H817 H 0.1583 0.68565 0.42546 0.0
H818 H 0.14947 0.65114 0.4525 0.0
H819 H 0.21042 0.56683 0.51567 0.0
H820 H 0.17928 0.56065 0.48474 0.0
H821 H 0.18499 0.63218 0.50488 0.0
H822 H 0.21742 0.63909 0.53498 0.0
H823 H 0.17962 0.62775 0.4611 0.0
H824 H 0.13349 0.5718 0.52122 0.0
H825 H 0.12273 0.53882 0.55043 0.0
H826 H 0.11001 0.48411 0.4958 0.0
H827 H 0.12106 0.51686 0.46626 0.0
C828 C 0.0745 0.58373 0.39688 0.0
C829 C 0.07242 0.56641 0.37919 0.0
C830 C 0.08976 0.58774 0.41695 0.0
C831 C 0.10301 0.57436 0.41968 0.0
C832 C 0.09966 0.55592 0.40273 0.0
C833 C 0.08463 0.55208 0.38258 0.0
C834 C 0.12176 0.58069 0.43929 0.0
C835 C 0.11746 0.56195 0.4554 0.0
C836 C 0.14406 0.60493 0.44184 0.0
C837 C 0.14947 0.62564 0.42559 0.0
C838 C 0.15262 0.62278 0.40167 0.0
C839 C 0.15759 0.64242 0.38647 0.0
C840 C 0.15957 0.66503 0.39504 0.0
C841 C 0.15671 0.6681 0.41884 0.0
C842 C 0.15176 0.64854 0.4341 0.0
C843 C 0.20527 0.58138 0.51325 0.0
C844 C 0.21622 0.60338 0.52772 0.0
C845 C 0.18724 0.57772 0.49574 0.0
C846 C 0.17906 0.59552 0.49292 0.0
C847 C 0.19079 0.61804 0.50679 0.0
C848 C 0.20937 0.62203 0.52393 0.0
C849 C 0.15821 0.59048 0.47559 0.0
C850 C 0.16204 0.60948 0.45986 0.0
C851 C 0.13508 0.5667 0.47386 0.0
C852 C 0.12832 0.54686 0.49154 0.0
C853 C 0.12857 0.55278 0.51544 0.0
C854 C 0.1224 0.53412 0.53206 0.0
C855 C 0.11574 0.5094 0.52498 0.0
C856 C 0.11519 0.50328 0.50126 0.0
C857 C 0.12138 0.52188 0.48457 0.0
H858 H 0.11097 0.49498 0.53787 0.0
H859 H 0.16341 0.6802 0.38324 0.0
H860 H 0.51801 0.05437 0.54755 0.0
H861 H 0.54018 0.07843 0.58374 0.0
H862 H 0.52346 0.13732 0.56515 0.0
H863 H 0.50168 0.11353 0.5292 0.0
H864 H 0.57255 0.15738 0.5767 0.0
H865 H 0.49243 0.09607 0.60925 0.0
H866 H 0.45714 0.05304 0.61736 0.0
H867 H 0.51024 0.03604 0.65224 0.0
H868 H 0.54592 0.07889 0.64405 0.0
H869 H 0.60316 0.22906 0.68414 0.0
H870 H 0.58125 0.20251 0.64929 0.0
H871 H 0.60513 0.14926 0.66949 0.0
H872 H 0.62702 0.17549 0.70423 0.0
H873 H 0.55398 0.12549 0.6573 0.0
H874 H 0.63379 0.1876 0.62594 0.0
H875 H 0.66892 0.23068 0.61776 0.0
H876 H 0.61605 0.24623 0.58048 0.0
H877 H 0.58051 0.20335 0.58874 0.0
C878 C 0.51876 0.07223 0.55153 0.0
C879 C 0.50841 0.08229 0.53566 0.0
C880 C 0.53141 0.08597 0.5721 0.0
C881 C 0.53354 0.10974 0.5771 0.0
C882 C 0.52227 0.11918 0.56159 0.0
C883 C 0.5098 0.10558 0.54112 0.0
C884 C 0.54842 0.12552 0.59786 0.0
C885 C 0.56827 0.15049 0.59435 0.0
C886 C 0.54332 0.11632 0.62082 0.0
C887 C 0.52189 0.09058 0.6258 0.0
C888 C 0.49662 0.08308 0.61847 0.0
C889 C 0.47654 0.05874 0.62312 0.0
C890 C 0.48145 0.04179 0.63525 0.0
C891 C 0.50646 0.04918 0.64281 0.0
C892 C 0.52662 0.07349 0.63819 0.0
C893 C 0.60393 0.21181 0.68108 0.0
C894 C 0.6169 0.20447 0.69701 0.0
C895 C 0.59142 0.19668 0.66115 0.0
C896 C 0.59163 0.17395 0.65681 0.0
C897 C 0.6047 0.16669 0.67255 0.0
C898 C 0.61732 0.18184 0.69236 0.0
C899 C 0.57778 0.15742 0.63612 0.0
C900 C 0.55824 0.13233 0.63964 0.0
C901 C 0.5831 0.16652 0.61314 0.0
C902 C 0.60443 0.19235 0.60819 0.0
C903 C 0.6296 0.20028 0.61619 0.0
C904 C 0.6496 0.22465 0.6115 0.0
C905 C 0.64471 0.24121 0.59867 0.0
C906 C 0.61981 0.2334 0.59046 0.0
C907 C 0.59973 0.20906 0.59513 0.0
H908 H 0.66022 0.26006 0.59505 0.0
H909 H 0.46588 0.02296 0.63883 0.0
H910 H 0.44397 0.54021 0.67343 0.0
H911 H 0.44732 0.56106 0.71091 0.0
H912 H 0.49858 0.53649 0.73728 0.0
H913 H 0.49654 0.51644 0.69891 0.0
H914 H 0.44325 0.52942 0.76273 0.0
H915 H 0.53123 0.58555 0.74033 0.0
H916 H 0.564 0.61023 0.71156 0.0
H917 H 0.52693 0.65343 0.69693 0.0
H918 H 0.49371 0.62871 0.72535 0.0
H919 H 0.43823 0.60501 0.85655 0.0
H920 H 0.45672 0.58468 0.83238 0.0
H921 H 0.45566 0.62753 0.77331 0.0
H922 H 0.4384 0.64854 0.79778 0.0
H923 H 0.49623 0.62334 0.77144 0.0
H924 H 0.40586 0.56482 0.7849 0.0
H925 H 0.36885 0.53989 0.80978 0.0
H926 H 0.40581 0.50075 0.83761 0.0
H927 H 0.4432 0.52574 0.8131 0.0
C928 C 0.45652 0.53965 0.68688 0.0
C929 C 0.47052 0.52714 0.68286 0.0
C930 C 0.45813 0.55136 0.70841 0.0
C931 C 0.47336 0.55048 0.72666 0.0
C932 C 0.48686 0.53746 0.72323 0.0
C933 C 0.48558 0.52596 0.70138 0.0
C934 C 0.47448 0.56339 0.74909 0.0
C935 C 0.45545 0.54984 0.76525 0.0
C936 C 0.48983 0.59007 0.75175 0.0
C937 C 0.5099 0.60516 0.73484 0.0
C938 C 0.52995 0.60016 0.73082 0.0
C939 C 0.54863 0.61419 0.71461 0.0
C940 C 0.54752 0.63335 0.70239 0.0
C941 C 0.52776 0.63857 0.7064 0.0
C942 C 0.50903 0.62458 0.72258 0.0
C943 C 0.44251 0.61033 0.8385 0.0
C944 C 0.43705 0.6282 0.82883 0.0
C945 C 0.45292 0.59868 0.8247 0.0
C946 C 0.45724 0.60426 0.80089 0.0
C947 C 0.45262 0.62294 0.79161 0.0
C948 C 0.44267 0.63486 0.8055 0.0
C949 C 0.46453 0.58948 0.78496 0.0
C950 C 0.48484 0.60277 0.76979 0.0
C951 C 0.44999 0.56256 0.78294 0.0
C952 C 0.42741 0.54734 0.79742 0.0
C953 C 0.40613 0.55099 0.79643 0.0
C954 C 0.3851 0.53686 0.81045 0.0
C955 C 0.38502 0.5188 0.82532 0.0
C956 C 0.40593 0.51479 0.82613 0.0
C957 C 0.42704 0.52893 0.81219 0.0
H958 H 0.36872 0.50788 0.83617 0.0
H959 H 0.562 0.64419 0.68985 0.0
H960 H 0.94364 0.50161 0.85402 0.0
H961 H 0.92202 0.50248 0.88954 0.0
H962 H 0.94511 0.45351 0.92262 0.0
H963 H 0.96666 0.45253 0.88718 0.0
H964 H 0.88173 0.45948 0.90306 0.0
H965 H 0.94357 0.45948 0.98216 0.0
H966 H 0.98918 0.48009 0.99453 0.0
H967 H 0.00636 0.54304 0.95072 0.0
H968 H 0.9608 0.52301 0.93833 0.0
H969 H 0.80961 0.38781 0.9966 0.0
H970 H 0.84513 0.40709 0.96974 0.0
H971 H 0.86365 0.48182 0.99487 0.0
H972 H 0.82774 0.46268 0.02163 0.0
H973 H 0.90803 0.47137 0.98704 0.0
H974 H 0.83427 0.46907 0.94978 0.0
H975 H 0.7887 0.44855 0.93726 0.0
H976 H 0.79648 0.39281 0.89668 0.0
H977 H 0.84201 0.41276 0.90929 0.0
C978 C 0.9447 0.49163 0.86912 0.0
C979 C 0.95658 0.47678 0.86776 0.0
C980 C 0.93238 0.49216 0.88938 0.0
C981 C 0.93184 0.47797 0.90868 0.0
C982 C 0.94553 0.46486 0.90806 0.0
C983 C 0.95789 0.46433 0.88777 0.0
C984 C 0.91372 0.47345 0.92767 0.0
C985 C 0.88761 0.46245 0.9214 0.0
C986 C 0.92134 0.47725 0.95161 0.0
C987 C 0.94875 0.48962 0.95919 0.0
C988 C 0.95704 0.47779 0.97526 0.0
C989 C 0.9829 0.48936 0.98225 0.0
C990 C 1.00067 0.51283 0.97337 0.0
C991 C 0.9926 0.52481 0.95752 0.0
C992 C 0.96676 0.51334 0.95047 0.0
C993 C 0.82142 0.40834 0.99667 0.0
C994 C 0.81581 0.42375 0.01111 0.0
C995 C 0.84169 0.4193 0.98133 0.0
C996 C 0.85689 0.44582 0.98038 0.0
C997 C 0.85213 0.4613 0.99548 0.0
C998 C 0.83156 0.45034 0.01062 0.0
C999 C 0.87631 0.45709 0.96221 0.0
C1000 C 0.90244 0.469 0.96865 0.0
C1001 C 0.86883 0.45426 0.93834 0.0
C1002 C 0.84148 0.44227 0.93066 0.0
C1003 C 0.8262 0.45229 0.93837 0.0
C1004 C 0.80039 0.44079 0.93122 0.0
C1005 C 0.78968 0.41935 0.91623 0.0
C1006 C 0.80479 0.4094 0.90831 0.0
C1007 C 0.8306 0.42081 0.91545 0.0
H1008 H 0.7697 0.41049 0.9107 0.0
H1009 H 0.02068 0.52174 0.9788 0.0
H1010 H 0.52629 0.9824 0.07253 0.0
H1011 H 0.50962 0.96313 0.10983 0.0
H1012 H 0.43228 0.93101 0.08207 0.0
H1013 H 0.44879 0.95126 0.04487 0.0
H1014 H 0.43586 0.93856 0.13138 0.0
H1015 H 0.46347 0.9001 0.07061 0.0
H1016 H 0.49506 0.89962 0.04392 0.0
H1017 H 0.54681 0.91349 0.10195 0.0
H1018 H 0.51565 0.91417 0.12902 0.0
H1019 H 0.36756 0.81234 0.17202 0.0
H1020 H 0.3878 0.8528 0.15202 0.0
H1021 H 0.46193 0.86899 0.17915 0.0
H1022 H 0.44189 0.82843 0.19854 0.0
H1023 H 0.46385 0.87445 0.13482 0.0
H1024 H 0.43327 0.90437 0.19662 0.0
H1025 H 0.40191 0.90401 0.22399 0.0
H1026 H 0.35676 0.90671 0.16647 0.0
H1027 H 0.38766 0.90677 0.1387 0.0
C1028 C 0.50572 0.97246 0.07465 0.0
C1029 C 0.48883 0.96774 0.05549 0.0
C1030 C 0.49622 0.96128 0.09602 0.0
C1031 C 0.46978 0.945 0.09839 0.0
C1032 C 0.45278 0.94328 0.08047 0.0
C1033 C 0.46226 0.95469 0.05915 0.0
C1034 C 0.46038 0.92585 0.11682 0.0
C1035 C 0.44191 0.92451 0.13226 0.0
C1036 C 0.46867 0.90782 0.11813 0.0
C1037 C 0.48738 0.90747 0.10179 0.0
C1038 C 0.48166 0.90322 0.07765 0.0
C1039 C 0.49946 0.90289 0.06246 0.0
C1040 C 0.52293 0.90664 0.0712 0.0
C1041 C 0.52865 0.91065 0.09519 0.0
C1042 C 0.51093 0.91098 0.11047 0.0
C1043 C 0.38815 0.82468 0.1739 0.0
C1044 C 0.4032 0.81695 0.18643 0.0
C1045 C 0.39968 0.84792 0.16264 0.0
C1046 C 0.42641 0.86405 0.16417 0.0
C1047 C 0.44129 0.85681 0.1776 0.0
C1048 C 0.42981 0.83346 0.18854 0.0
C1049 C 0.43914 0.88689 0.14963 0.0
C1050 C 0.45812 0.88878 0.13459 0.0
C1051 C 0.43137 0.90538 0.14891 0.0
C1052 C 0.41272 0.90539 0.16555 0.0
C1053 C 0.41656 0.90469 0.18978 0.0
C1054 C 0.39888 0.90458 0.20537 0.0
C1055 C 0.37734 0.90528 0.19697 0.0
C1056 C 0.37346 0.90616 0.17295 0.0
C1057 C 0.39107 0.90628 0.15728 0.0
H1058 H 0.36367 0.90518 0.20907 0.0
H1059 H 0.53664 0.90635 0.0594 0.0
H1060 H 0.56566 0.53698 0.21299 0.0
H1061 H 0.56983 0.51783 0.24867 0.0
H1062 H 0.51574 0.44332 0.22023 0.0
H1063 H 0.51155 0.4624 0.18428 0.0
H1064 H 0.52027 0.45195 0.27454 0.0
H1065 H 0.56748 0.45925 0.20333 0.0
H1066 H 0.59382 0.48378 0.17054 0.0
H1067 H 0.65127 0.5376 0.21903 0.0
H1068 H 0.62502 0.51355 0.25211 0.0
H1069 H 0.56772 0.37372 0.31784 0.0
H1070 H 0.5494 0.39502 0.29552 0.0
H1071 H 0.62028 0.46634 0.30507 0.0
H1072 H 0.63909 0.44495 0.32618 0.0
H1073 H 0.60596 0.46115 0.2625 0.0
H1074 H 0.56296 0.45186 0.33405 0.0
H1075 H 0.53698 0.42937 0.36772 0.0
H1076 H 0.47295 0.38218 0.32149 0.0
H1077 H 0.49867 0.40415 0.2875 0.0
C1078 C 0.55354 0.51665 0.21481 0.0
C1079 C 0.53857 0.50109 0.19578 0.0
C1080 C 0.55599 0.50574 0.23523 0.0
C1081 C 0.54338 0.4792 0.23684 0.0
C1082 C 0.52557 0.46385 0.21926 0.0
C1083 C 0.52329 0.47475 0.19871 0.0
C1084 C 0.55358 0.46773 0.25326 0.0
C1085 C 0.53892 0.45376 0.27199 0.0
C1086 C 0.5781 0.47061 0.24999 0.0
C1087 C 0.59418 0.48475 0.23014 0.0
C1088 C 0.58566 0.47639 0.20697 0.0
C1089 C 0.60056 0.49019 0.18834 0.0
C1090 C 0.62417 0.51226 0.19268 0.0
C1091 C 0.63295 0.52052 0.21568 0.0
C1092 C 0.61807 0.5068 0.23438 0.0
C1093 C 0.57937 0.39397 0.31528 0.0
C1094 C 0.60487 0.40765 0.32394 0.0
C1095 C 0.56877 0.40619 0.3027 0.0
C1096 C 0.58329 0.43241 0.29892 0.0
C1097 C 0.60863 0.44612 0.30782 0.0
C1098 C 0.61937 0.43385 0.32004 0.0
C1099 C 0.57283 0.44525 0.28426 0.0
C1100 C 0.58743 0.45944 0.26553 0.0
C1101 C 0.5484 0.44273 0.2878 0.0
C1102 C 0.53283 0.42952 0.3082 0.0
C1103 C 0.5434 0.43656 0.33105 0.0
C1104 C 0.52871 0.42393 0.35019 0.0
C1105 C 0.50335 0.40432 0.34674 0.0
C1106 C 0.49261 0.39736 0.32414 0.0
C1107 C 0.50722 0.40991 0.30492 0.0
H1108 H 0.49201 0.39456 0.36159 0.0
H1109 H 0.63566 0.52292 0.17823 0.0
H1110 H 0.41102 0.94897 0.41748 0.0
H1111 H 0.40483 0.92298 0.3821 0.0
H1112 H 0.48156 0.93551 0.39118 0.0
H1113 H 0.48748 0.96084 0.42706 0.0
H1114 H 0.45883 0.93296 0.3403 0.0
H1115 H 0.44713 0.8892 0.41389 0.0
H1116 H 0.42907 0.87765 0.45311 0.0
H1117 H 0.35282 0.8435 0.42307 0.0
H1118 H 0.37049 0.85535 0.38369 0.0
H1119 H 0.45694 0.82978 0.28326 0.0
H1120 H 0.46252 0.86041 0.31405 0.0
H1121 H 0.38058 0.8291 0.31535 0.0
H1122 H 0.3747 0.79804 0.28442 0.0
H1123 H 0.40364 0.84213 0.35966 0.0
H1124 H 0.41473 0.88063 0.2856 0.0
H1125 H 0.43221 0.89256 0.24625 0.0
H1126 H 0.50827 0.93715 0.27622 0.0
H1127 H 0.49133 0.92503 0.31576 0.0
C1128 C 0.42693 0.94711 0.41129 0.0
C1129 C 0.4498 0.957 0.42469 0.0
C1130 C 0.42332 0.93216 0.39123 0.0
C1131 C 0.44271 0.92731 0.38423 0.0
C1132 C 0.46649 0.93924 0.39632 0.0
C1133 C 0.4699 0.95375 0.41667 0.0
C1134 C 0.43679 0.90681 0.36679 0.0
C1135 C 0.44697 0.9131 0.3445 0.0
C1136 C 0.4208 0.881 0.37229 0.0
C1137 C 0.41013 0.87346 0.39589 0.0
C1138 C 0.42652 0.87947 0.41568 0.0
C1139 C 0.41636 0.87283 0.43793 0.0
C1140 C 0.38982 0.85992 0.44059 0.0
C1141 C 0.37338 0.85355 0.42099 0.0
C1142 C 0.38345 0.86023 0.3987 0.0
C1143 C 0.44001 0.8291 0.29026 0.0
C1144 C 0.41537 0.81164 0.28116 0.0
C1145 C 0.44327 0.84671 0.30782 0.0
C1146 C 0.42201 0.84739 0.31657 0.0
C1147 C 0.39725 0.82898 0.30866 0.0
C1148 C 0.39393 0.81123 0.29104 0.0
C1149 C 0.42598 0.86816 0.33309 0.0
C1150 C 0.41539 0.86196 0.35529 0.0
C1151 C 0.44151 0.89407 0.32742 0.0
C1152 C 0.45177 0.90174 0.30367 0.0
C1153 C 0.43521 0.89283 0.28381 0.0
C1154 C 0.44501 0.89965 0.26146 0.0
C1155 C 0.47133 0.9156 0.25874 0.0
C1156 C 0.48789 0.92479 0.27836 0.0
C1157 C 0.47819 0.91795 0.30075 0.0
H1158 H 0.47888 0.92085 0.24142 0.0
H1159 H 0.38199 0.85478 0.45783 0.0
H1160 H 0.54922 0.48192 0.57646 0.0
H1161 H 0.56417 0.47453 0.5391 0.0
H1162 H 0.49352 0.40311 0.52937 0.0
H1163 H 0.4783 0.41082 0.56653 0.0
H1164 H 0.54017 0.40057 0.52863 0.0
H1165 H 0.50237 0.44503 0.4928 0.0
H1166 H 0.49362 0.48027 0.48808 0.0
H1167 H 0.57362 0.53192 0.47778 0.0
H1168 H 0.58293 0.49706 0.48279 0.0
H1169 H 0.582 0.37487 0.42039 0.0
H1170 H 0.557 0.37957 0.45139 0.0
H1171 H 0.6137 0.45921 0.45971 0.0
H1172 H 0.63824 0.45482 0.42838 0.0
H1173 H 0.56846 0.45437 0.45893 0.0
H1174 H 0.60791 0.41339 0.49936 0.0
H1175 H 0.61907 0.38008 0.50628 0.0
H1176 H 0.5392 0.32423 0.51034 0.0
H1177 H 0.52754 0.35718 0.50313 0.0
C1178 C 0.53659 0.46513 0.56587 0.0
C1179 C 0.51256 0.44707 0.57403 0.0
C1180 C 0.54513 0.46087 0.54466 0.0
C1181 C 0.52992 0.43827 0.53156 0.0
C1182 C 0.50544 0.42069 0.53924 0.0
C1183 C 0.49671 0.42518 0.56027 0.0
C1184 C 0.54081 0.43202 0.51124 0.0
C1185 C 0.54588 0.41194 0.51311 0.0
C1186 C 0.54889 0.44741 0.49145 0.0
C1187 C 0.54337 0.46844 0.48836 0.0
C1188 C 0.51814 0.46394 0.48973 0.0
C1189 C 0.51307 0.48384 0.48696 0.0
C1190 C 0.53306 0.50832 0.48268 0.0
C1191 C 0.55816 0.51294 0.48111 0.0
C1192 C 0.56334 0.49311 0.48389 0.0
C1193 C 0.58926 0.3933 0.42903 0.0
C1194 C 0.61208 0.41448 0.42192 0.0
C1195 C 0.57495 0.39597 0.44674 0.0
C1196 C 0.5835 0.41975 0.45796 0.0
C1197 C 0.60659 0.44072 0.45121 0.0
C1198 C 0.62068 0.43815 0.43336 0.0
C1199 C 0.56832 0.42313 0.47643 0.0
C1200 C 0.56246 0.44271 0.47425 0.0
C1201 C 0.55989 0.40753 0.49616 0.0
C1202 C 0.56684 0.38768 0.50041 0.0
C1203 C 0.59272 0.39396 0.50152 0.0
C1204 C 0.59914 0.37516 0.50554 0.0
C1205 C 0.57985 0.35004 0.50867 0.0
C1206 C 0.55411 0.34369 0.50785 0.0
C1207 C 0.54759 0.36242 0.50381 0.0
H1208 H 0.58486 0.33551 0.51179 0.0
H1209 H 0.52909 0.52371 0.48053 0.0
H1210 H 0.08602 0.56457 0.77492 0.0
H1211 H 0.10756 0.58083 0.73811 0.0
H1212 H 0.07939 0.50402 0.71223 0.0
H1213 H 0.05825 0.48768 0.74915 0.0
H1214 H 0.13101 0.5319 0.71333 0.0
H1215 H 0.06213 0.54246 0.68465 0.0
H1216 H 0.03023 0.55655 0.68592 0.0
H1217 H 0.0907 0.63438 0.6928 0.0
H1218 H 0.12299 0.62076 0.69191 0.0
H1219 H 0.20606 0.57385 0.61404 0.0
H1220 H 0.16806 0.55348 0.63771 0.0
H1221 H 0.18547 0.62681 0.66614 0.0
H1222 H 0.22315 0.64741 0.64174 0.0
H1223 H 0.13527 0.59755 0.66027 0.0
H1224 H 0.20296 0.58789 0.69544 0.0
H1225 H 0.23623 0.57554 0.69666 0.0
H1226 H 0.17915 0.49788 0.68062 0.0
H1227 H 0.14557 0.50985 0.67902 0.0
C1228 C 0.08381 0.55116 0.76109 0.0
C1229 C 0.07069 0.52488 0.76499 0.0
C1230 C 0.09598 0.56045 0.74001 0.0
C1231 C 0.09515 0.54362 0.72246 0.0
C1232 C 0.08024 0.51732 0.72556 0.0
C1233 C 0.06802 0.508 0.74662 0.0
C1234 C 0.11312 0.55344 0.70291 0.0
C1235 C 0.1315 0.54578 0.70133 0.0
C1236 C 0.11437 0.57226 0.68789 0.0
C1237 C 0.095 0.58055 0.68837 0.0
C1238 C 0.06864 0.56257 0.68662 0.0
C1239 C 0.05048 0.57048 0.68724 0.0
C1240 C 0.05843 0.59634 0.68948 0.0
C1241 C 0.08457 0.61435 0.69107 0.0
C1242 C 0.10281 0.60655 0.69047 0.0
C1243 C 0.20185 0.58567 0.62525 0.0
C1244 C 0.21791 0.6122 0.62634 0.0
C1245 C 0.18003 0.57399 0.63876 0.0
C1246 C 0.1742 0.58856 0.6541 0.0
C1247 C 0.18961 0.61516 0.65449 0.0
C1248 C 0.21121 0.62689 0.64064 0.0
C1249 C 0.15311 0.57599 0.67081 0.0
C1250 C 0.13438 0.58329 0.67198 0.0
C1251 C 0.15168 0.55706 0.68581 0.0
C1252 C 0.17182 0.54981 0.68685 0.0
C1253 C 0.19754 0.56821 0.69201 0.0
C1254 C 0.21645 0.56128 0.6928 0.0
C1255 C 0.20982 0.53595 0.68865 0.0
C1256 C 0.18426 0.5175 0.68378 0.0
C1257 C 0.16528 0.52434 0.68295 0.0
H1258 H 0.22448 0.53062 0.68927 0.0
H1259 H 0.04433 0.60242 0.68996 0.0
H1260 H 0.59509 0.11501 0.95621 0.0
H1261 H 0.59761 0.13231 0.91793 0.0
H1262 H 0.53347 0.06081 0.89308 0.0
H1263 H 0.53002 0.04352 0.9323 0.0
H1264 H 0.60773 0.12075 0.87752 0.0
H1265 H 0.5021 0.07569 0.84898 0.0
H1266 H 0.45916 0.05605 0.86604 0.0
H1267 H 0.49171 0.10132 0.92902 0.0
H1268 H 0.53473 0.1214 0.91222 0.0
H1269 H 0.61754 0.18454 0.77454 0.0
H1270 H 0.60109 0.14716 0.79895 0.0
H1271 H 0.56318 0.17717 0.84146 0.0
H1272 H 0.57824 0.21363 0.81607 0.0
H1273 H 0.53638 0.12852 0.84195 0.0
H1274 H 0.62737 0.18972 0.85328 0.0
H1275 H 0.67198 0.21511 0.84048 0.0
H1276 H 0.67174 0.14672 0.81971 0.0
H1277 H 0.62699 0.12096 0.83215 0.0
C1278 C 0.58118 0.10299 0.94279 0.0
C1279 C 0.56196 0.07805 0.94746 0.0
C1280 C 0.5829 0.11282 0.92074 0.0
C1281 C 0.56569 0.09794 0.90261 0.0
C1282 C 0.5468 0.07273 0.9069 0.0
C1283 C 0.54493 0.06284 0.92922 0.0
C1284 C 0.5678 0.10966 0.87962 0.0
C1285 C 0.59199 0.1221 0.86953 0.0
C1286 C 0.54736 0.11154 0.86922 0.0
C1287 C 0.52162 0.09973 0.87947 0.0
C1288 C 0.50005 0.08143 0.86646 0.0
C1289 C 0.47571 0.07025 0.87608 0.0
C1290 C 0.47273 0.07735 0.89864 0.0
C1291 C 0.49406 0.09574 0.91159 0.0
C1292 C 0.51842 0.10701 0.90204 0.0
C1293 C 0.60535 0.18286 0.78889 0.0
C1294 C 0.59954 0.20207 0.79386 0.0
C1295 C 0.59593 0.16151 0.80281 0.0
C1296 C 0.58153 0.15968 0.8225 0.0
C1297 C 0.57431 0.17813 0.82645 0.0
C1298 C 0.58304 0.19904 0.81206 0.0
C1299 C 0.57664 0.14059 0.84057 0.0
C1300 C 0.55192 0.12658 0.84954 0.0
C1301 C 0.59687 0.13804 0.85063 0.0
C1302 C 0.6238 0.15346 0.84336 0.0
C1303 C 0.63682 0.18013 0.84588 0.0
C1304 C 0.66211 0.19458 0.83869 0.0
C1305 C 0.67466 0.18254 0.82922 0.0
C1306 C 0.66197 0.15602 0.82699 0.0
C1307 C 0.63665 0.14149 0.8341 0.0
H1308 H 0.69423 0.19376 0.82366 0.0
H1309 H 0.45388 0.06866 0.90606 0.0
H1310 H 0.48498 0.60474 0.10584 0.0
H1311 H 0.4654 0.60622 0.06884 0.0
H1312 H 0.47241 0.54333 0.04175 0.0
H1313 H 0.49165 0.54137 0.07934 0.0
H1314 H 0.4885 0.58146 0.01096 0.0
H1315 H 0.41447 0.53383 0.05505 0.0
H1316 H 0.38505 0.52191 0.0879 0.0
H1317 H 0.38054 0.58973 0.08 0.0
H1318 H 0.41034 0.60234 0.04737 0.0
H1319 H 0.41045 0.56882 0.91034 0.0
H1320 H 0.42582 0.55986 0.94669 0.0
H1321 H 0.43117 0.62683 0.9795 0.0
H1322 H 0.41594 0.63615 0.94304 0.0
H1323 H 0.40629 0.58179 0.0064 0.0
H1324 H 0.48383 0.62989 0.96335 0.0
H1325 H 0.51098 0.63895 0.92903 0.0
H1326 H 0.50629 0.56631 0.93416 0.0
H1327 H 0.47878 0.55666 0.96833 0.0
C1328 C 0.48182 0.59081 0.09224 0.0
C1329 C 0.48935 0.57258 0.09571 0.0
C1330 C 0.47073 0.59176 0.07103 0.0
C1331 C 0.46701 0.5746 0.05267 0.0
C1332 C 0.47495 0.55664 0.05579 0.0
C1333 C 0.48599 0.55558 0.0772 0.0
C1334 C 0.45579 0.5764 0.03003 0.0
C1335 C 0.47028 0.58104 0.00988 0.0
C1336 C 0.43217 0.57621 0.0287 0.0
C1337 C 0.41483 0.56913 0.04882 0.0
C1338 C 0.40746 0.54637 0.06047 0.0
C1339 C 0.39063 0.53943 0.07901 0.0
C1340 C 0.38085 0.555 0.08597 0.0
C1341 C 0.38804 0.57763 0.07452 0.0
C1342 C 0.40493 0.5847 0.05601 0.0
C1343 C 0.41483 0.58166 0.92528 0.0
C1344 C 0.41196 0.60323 0.92379 0.0
C1345 C 0.42369 0.57653 0.946 0.0
C1346 C 0.42971 0.59274 0.96569 0.0
C1347 C 0.42661 0.61411 0.96443 0.0
C1348 C 0.41802 0.61945 0.94359 0.0
C1349 C 0.43927 0.58736 0.98761 0.0
C1350 C 0.42441 0.58203 0.00755 0.0
C1351 C 0.46235 0.5866 0.98869 0.0
C1352 C 0.47901 0.59244 0.96824 0.0
C1353 C 0.48839 0.61576 0.95703 0.0
C1354 C 0.50389 0.62102 0.93763 0.0
C1355 C 0.5103 0.60319 0.92937 0.0
C1356 C 0.50128 0.58009 0.94055 0.0
C1357 C 0.48575 0.57472 0.95994 0.0
H1358 H 0.5223 0.6073 0.91435 0.0
H1359 H 0.36781 0.54959 0.10032 0.0
H1360 H 0.96789 0.49844 0.26283 0.0
H1361 H 0.94484 0.47916 0.22545 0.0
H1362 H 0.88108 0.48688 0.24841 0.0
H1363 H 0.90386 0.50575 0.28551 0.0
H1364 H 0.86445 0.44051 0.23166 0.0
H1365 H 0.92257 0.52527 0.2067 0.0
H1366 H 0.96487 0.56324 0.20117 0.0
H1367 H 0.9875 0.51878 0.15942 0.0
H1368 H 0.94543 0.48045 0.16497 0.0
H1369 H 0.79263 0.41863 0.12543 0.0
H1370 H 0.81921 0.43833 0.16082 0.0
H1371 H 0.87588 0.42101 0.1353 0.0
H1372 H 0.84952 0.40125 0.09996 0.0
H1373 H 0.89738 0.47053 0.15278 0.0
H1374 H 0.83817 0.38617 0.17656 0.0
H1375 H 0.79567 0.34851 0.18207 0.0
H1376 H 0.77488 0.39279 0.22623 0.0
H1377 H 0.81715 0.43084 0.2207 0.0
C1378 C 0.94911 0.49627 0.25962 0.0
C1379 C 0.93745 0.50325 0.277 0.0
C1380 C 0.93596 0.48529 0.23835 0.0
C1381 C 0.91117 0.48152 0.23414 0.0
C1382 C 0.90003 0.48935 0.2513 0.0
C1383 C 0.91305 0.50014 0.27246 0.0
C1384 C 0.89617 0.46856 0.21237 0.0
C1385 C 0.87157 0.44729 0.21443 0.0
C1386 C 0.90569 0.47692 0.18986 0.0
C1387 C 0.93097 0.49994 0.18648 0.0
C1388 C 0.93665 0.52355 0.19651 0.0
C1389 C 0.96056 0.54514 0.19334 0.0
C1390 C 0.97889 0.54341 0.18001 0.0
C1391 C 0.97331 0.52008 0.16977 0.0
C1392 C 0.94943 0.49842 0.17291 0.0
C1393 C 0.8107 0.41894 0.12736 0.0
C1394 C 0.81886 0.40825 0.10986 0.0
C1395 C 0.82585 0.43017 0.14761 0.0
C1396 C 0.84946 0.43102 0.15071 0.0
C1397 C 0.85774 0.42056 0.13324 0.0
C1398 C 0.84254 0.40914 0.1131 0.0
C1399 C 0.86556 0.44287 0.17217 0.0
C1400 C 0.89035 0.46379 0.17004 0.0
C1401 C 0.85619 0.43427 0.19465 0.0
C1402 C 0.83074 0.41143 0.198 0.0
C1403 C 0.82446 0.38794 0.18726 0.0
C1404 C 0.80042 0.36651 0.19043 0.0
C1405 C 0.78256 0.36827 0.20443 0.0
C1406 C 0.78872 0.39146 0.21535 0.0
C1407 C 0.81272 0.41296 0.21222 0.0
H1408 H 0.76396 0.35165 0.20687 0.0
H1409 H 0.99739 0.56015 0.17757 0.0
loop_
_geom_bond_atom_site_label_1
_geom_bond_atom_site_label_2
_geom_bond_distance
_geom_bond_site_symmetry_2
_ccdc_geom_bond_type
H0 C8 0.930 . S
H1 C11 0.930 . S
H2 C13 0.930 . S
H3 C14 0.970 . S
H4 C14 0.970 . S
H5 C16 0.930 . S
H6 C18 0.930 . S
H7 C20 0.930 . S
C8 H0 0.930 . S
C8 C9 1.382 . S
C8 C10 1.426 . S
C9 C8 1.382 . S
C9 C13 1.389 . S
C10 C8 1.426 . S
C10 C11 1.375 . S
C10 C14 1.532 1_655 S
C11 H1 0.930 . S
C11 C10 1.375 . S
C11 C12 1.416 . S
C12 C11 1.416 . S
C12 C13 1.371 . S
C13 H2 0.930 . S
C13 C9 1.389 . S
C13 C12 1.371 . S
C14 H3 0.970 . S
C14 H4 0.970 . S
C14 C10 1.532 1_455 S
C14 C15 1.499 . S
C15 C14 1.499 . S
C15 C16 1.370 . S
C15 C20 1.415 . S
C16 H5 0.930 . S
C16 C15 1.370 . S
C16 C17 1.407 . S
C17 C16 1.407 . S
C17 C18 1.365 . S
C18 H6 0.930 . S
C18 C17 1.365 . S
C18 C19 1.393 . S
C19 C18 1.393 . S
C19 C20 1.387 . S
C20 H7 0.930 . S
C20 C15 1.415 . S
C20 C19 1.387 . S
H21 C29 0.930 . S
H22 C32 0.930 . S
H23 C34 0.930 . S
H24 C35 0.970 . S
H25 C35 0.970 . S
H26 C37 0.930 . S
H27 C39 0.930 . S
H28 C41 0.930 . S
C29 H21 0.930 . S
C29 C30 1.382 . S
C29 C31 1.426 . S
C30 C29 1.382 . S
C30 C34 1.389 . S
C31 C29 1.426 . S
C31 C32 1.375 . S
C31 C35 1.532 1_565 S
C32 H22 0.930 . S
C32 C31 1.375 . S
C32 C33 1.416 . S
C33 C32 1.416 . S
C33 C34 1.371 . S
C34 H23 0.930 . S
C34 C30 1.389 . S
C34 C33 1.371 . S
C35 H24 0.970 . S
C35 H25 0.970 . S
C35 C31 1.532 1_545 S
C35 C36 1.499 . S
C36 C35 1.499 . S
C36 C37 1.370 . S
C36 C41 1.415 . S
C37 H26 0.930 . S
C37 C36 1.370 . S
C37 C38 1.407 . S
C38 C37 1.407 . S
C38 C39 1.365 . S
C39 H27 0.930 . S
C39 C38 1.365 . S
C39 C40 1.393 . S
C40 C39 1.393 . S
C40 C41 1.387 . S
C41 H28 0.930 . S
C41 C36 1.415 . S
C41 C40 1.387 . S
H42 C50 0.930 . S
H43 C53 0.930 . S
H44 C55 0.930 . S
H45 C56 0.970 . S
H46 C56 0.970 . S
H47 C58 0.930 . S
H48 C60 0.930 . S
H49 C62 0.930 . S
C50 H42 0.930 . S
C50 C51 1.382 . S
C50 C52 1.426 . S
C51 C50 1.382 . S
C51 C55 1.389 . S
C52 C50 1.426 . S
C52 C53 1.375 . S
C52 C56 1.532 . S
C53 H43 0.930 . S
C53 C52 1.375 . S
C53 C54 1.416 . S
C54 C53 1.416 . S
C54 C55 1.371 . S
C55 H44 0.930 . S
C55 C51 1.389 . S
C55 C54 1.371 . S
C56 H45 0.970 . S
C56 H46 0.970 . S
C56 C52 1.532 . S
C56 C57 1.499 . S
C57 C56 1.499 . S
C57 C58 1.370 . S
C57 C62 1.415 . S
C58 H47 0.930 . S
C58 C57 1.370 . S
C58 C59 1.407 . S
C59 C58 1.407 . S
C59 C60 1.365 . S
C60 H48 0.930 . S
C60 C59 1.365 . S
C60 C61 1.393 . S
C61 C60 1.393 . S
C61 C62 1.387 . S
C62 H49 0.930 . S
C62 C57 1.415 . S
C62 C61 1.387 . S
H63 C71 0.930 . S
H64 C74 0.930 . S
H65 C76 0.930 . S
H66 C77 0.970 . S
H67 C77 0.970 . S
H68 C79 0.930 . S
H69 C81 0.930 . S
H70 C83 0.930 . S
C71 H63 0.930 . S
C71 C72 1.382 . S
C71 C73 1.426 . S
C72 C71 1.382 . S
C72 C76 1.389 . S
C73 C71 1.426 . S
C73 C74 1.375 . S
C73 C77 1.532 1_655 S
C74 H64 0.930 . S
C74 C73 1.375 . S
C74 C75 1.416 . S
C75 C74 1.416 . S
C75 C76 1.371 . S
C76 H65 0.930 . S
C76 C72 1.389 . S
C76 C75 1.371 . S
C77 H66 0.970 . S
C77 H67 0.970 . S
C77 C73 1.532 1_455 S
C77 C78 1.499 . S
C78 C77 1.499 . S
C78 C79 1.370 . S
C78 C83 1.415 . S
C79 H68 0.930 . S
C79 C78 1.370 . S
C79 C80 1.407 . S
C80 C79 1.407 . S
C80 C81 1.365 . S
C81 H69 0.930 . S
C81 C80 1.365 . S
C81 C82 1.393 . S
C82 C81 1.393 . S
C82 C83 1.387 . S
C83 H70 0.930 . S
C83 C78 1.415 . S
C83 C82 1.387 . S
H84 C92 0.930 . S
H85 C95 0.930 . S
H86 C97 0.930 . S
H87 C98 0.970 1_554 S
H88 C98 0.970 . S
H89 C100 0.911 1_545 S
H90 C102 0.930 . S
H91 C104 0.930 . S
C92 H84 0.930 . S
C92 C93 1.382 1_554 S
C92 C94 1.426 1_554 S
C93 C92 1.382 1_556 S
C93 C97 1.389 . S
C94 C92 1.426 1_556 S
C94 C95 1.375 . S
C94 C98 1.532 . S
C95 H85 0.930 . S
C95 C94 1.375 . S
C95 C96 1.416 . S
C96 C95 1.416 . S
C96 C97 1.371 . S
C97 H86 0.930 . S
C97 C93 1.389 . S
C97 C96 1.371 . S
C98 H87 0.970 1_556 S
C98 H88 0.970 . S
C98 C94 1.532 . S
C98 C99 1.499 1_545 S
C99 C98 1.499 1_565 S
C99 C100 1.370 1_556 S
C99 C104 1.415 . S
C100 H89 0.911 1_565 S
C100 C99 1.370 1_554 S
C100 C101 1.407 . S
C101 C100 1.407 . S
C101 C102 1.365 . S
C102 H90 0.930 . S
C102 C101 1.365 . S
C102 C103 1.393 1_554 S
C103 C102 1.393 1_556 S
C103 C104 1.387 . S
C104 H91 0.930 . S
C104 C99 1.415 . S
C104 C103 1.387 . S
H105 C113 0.930 . S
H106 C116 0.930 . S
H107 C118 0.930 . S
H108 C119 0.970 . S
H109 C119 0.970 . S
H110 C121 0.930 . S
H111 C123 0.930 . S
H112 C125 0.930 . S
C113 H105 0.930 . S
C113 C114 1.382 . S
C113 C115 1.426 . S
C114 C113 1.382 . S
C114 C118 1.389 . S
C115 C113 1.426 . S
C115 C116 1.375 . S
C115 C119 1.532 . S
C116 H106 0.930 . S
C116 C115 1.375 . S
C116 C117 1.416 . S
C117 C116 1.416 . S
C117 C118 1.371 . S
C118 H107 0.930 . S
C118 C114 1.389 . S
C118 C117 1.371 . S
C119 H108 0.970 . S
C119 H109 0.970 . S
C119 C115 1.532 . S
C119 C120 1.499 . S
C120 C119 1.499 . S
C120 C121 1.370 . S
C120 C125 1.415 . S
C121 H110 0.930 . S
C121 C120 1.370 . S
C121 C122 1.407 . S
C122 C121 1.407 . S
C122 C123 1.365 . S
C123 H111 0.930 . S
C123 C122 1.365 . S
C123 C124 1.393 . S
C124 C123 1.393 . S
C124 C125 1.387 . S
C125 H112 0.930 . S
C125 C120 1.415 . S
C125 C124 1.387 . S
Mg126 O127 2.028 . S
Mg126 O133 1.986 . S
Mg126 O135 2.114 . S
Mg126 O136 2.251 . S
Mg126 O139 2.010 . S
O127 Mg126 2.028 . S
O127 C130 1.250 . S
O128 Mg129 2.028 . S
O128 C130 1.248 . S
Mg129 O128 2.028 . S
Mg129 O134 2.032 . S
Mg129 O136 2.079 . S
C130 O127 1.250 . S
C130 O128 1.248 . S
C131 O132 1.264 . S
C131 O139 1.249 . S
O132 C131 1.264 . S
O133 Mg126 1.986 . S
O133 C137 1.246 . S
O134 Mg129 2.032 . S
O134 C137 1.259 . S
O135 Mg126 2.114 . S
O135 C138 1.252 . S
O136 Mg126 2.251 . S
O136 Mg129 2.079 . S
O136 C138 1.273 . S
C137 O133 1.246 . S
C137 O134 1.259 . S
C138 O135 1.252 . S
C138 O136 1.273 . S
O139 Mg126 2.010 . S
O139 C131 1.249 . S
Mg140 O141 2.028 . S
Mg140 O147 1.986 . S
Mg140 O149 2.114 . S
Mg140 O150 2.251 . S
Mg140 O153 2.010 . S
O141 Mg140 2.028 . S
O141 C144 1.250 . S
O142 Mg143 2.028 . S
O142 C144 1.248 . S
Mg143 O142 2.028 . S
Mg143 O148 2.032 . S
Mg143 O150 2.079 . S
C144 O141 1.250 . S
C144 O142 1.248 . S
C145 O146 1.264 . S
C145 O153 1.249 . S
O146 C145 1.264 . S
O147 Mg140 1.986 . S
O147 C151 1.246 . S
O148 Mg143 2.032 . S
O148 C151 1.259 . S
O149 Mg140 2.114 . S
O149 C152 1.252 . S
O150 Mg140 2.251 . S
O150 Mg143 2.079 . S
O150 C152 1.273 . S
C151 O147 1.246 . S
C151 O148 1.259 . S
C152 O149 1.252 . S
C152 O150 1.273 . S
O153 Mg140 2.010 . S
O153 C145 1.249 . S
Mg154 O155 2.028 . S
Mg154 O161 1.986 . S
Mg154 O163 2.114 . S
Mg154 O164 2.251 . S
Mg154 O167 2.010 . S
O155 Mg154 2.028 . S
O155 C158 1.250 . S
O156 Mg157 2.028 . S
O156 C158 1.248 . S
Mg157 O156 2.028 . S
Mg157 O162 2.032 . S
Mg157 O164 2.079 . S
C158 O155 1.250 . S
C158 O156 1.248 . S
C159 O160 1.264 . S
C159 O167 1.249 . S
O160 C159 1.264 . S
O161 Mg154 1.986 . S
O161 C165 1.246 . S
O162 Mg157 2.032 . S
O162 C165 1.259 . S
O163 Mg154 2.114 . S
O163 C166 1.252 . S
O164 Mg154 2.251 . S
O164 Mg157 2.079 . S
O164 C166 1.273 . S
C165 O161 1.246 . S
C165 O162 1.259 . S
C166 O163 1.252 . S
C166 O164 1.273 . S
O167 Mg154 2.010 . S
O167 C159 1.249 . S
Mg168 O169 2.028 . S
Mg168 O175 1.986 . S
Mg168 O177 2.114 . S
Mg168 O178 2.251 . S
Mg168 O181 2.010 . S
O169 Mg168 2.028 . S
O169 C172 1.250 . S
O170 Mg171 2.028 . S
O170 C172 1.248 . S
Mg171 O170 2.028 . S
Mg171 O176 2.032 . S
Mg171 O178 2.079 . S
C172 O169 1.250 . S
C172 O170 1.248 . S
C173 O174 1.264 . S
C173 O181 1.249 . S
O174 C173 1.264 . S
O175 Mg168 1.986 . S
O175 C179 1.246 . S
O176 Mg171 2.032 . S
O176 C179 1.259 . S
O177 Mg168 2.114 . S
O177 C180 1.252 . S
O178 Mg168 2.251 . S
O178 Mg171 2.079 . S
O178 C180 1.273 . S
C179 O175 1.246 . S
C179 O176 1.259 . S
C180 O177 1.252 . S
C180 O178 1.273 . S
O181 Mg168 2.010 . S
O181 C173 1.249 . S
Mg182 O183 2.028 . S
Mg182 O189 1.986 . S
Mg182 O191 2.114 . S
Mg182 O192 2.251 . S
Mg182 O195 2.010 . S
O183 Mg182 2.028 . S
O183 C186 1.250 . S
O184 Mg185 2.028 . S
O184 C186 1.248 . S
Mg185 O184 2.028 . S
Mg185 O190 2.032 . S
Mg185 O192 2.079 . S
C186 O183 1.250 . S
C186 O184 1.248 . S
C187 O188 1.264 . S
C187 O195 1.249 . S
O188 C187 1.264 . S
O189 Mg182 1.986 . S
O189 C193 1.246 . S
O190 Mg185 2.032 . S
O190 C193 1.259 . S
O191 Mg182 2.114 . S
O191 C194 1.252 . S
O192 Mg182 2.251 . S
O192 Mg185 2.079 . S
O192 C194 1.273 . S
C193 O189 1.246 . S
C193 O190 1.259 . S
C194 O191 1.252 . S
C194 O192 1.273 . S
O195 Mg182 2.010 . S
O195 C187 1.249 . S
Mg196 O197 2.028 . S
Mg196 O203 1.986 . S
Mg196 O205 2.114 . S
Mg196 O206 2.251 . S
Mg196 O209 2.010 . S
O197 Mg196 2.028 . S
O197 C200 1.250 . S
O198 Mg199 2.028 . S
O198 C200 1.248 . S
Mg199 O198 2.028 . S
Mg199 O204 2.032 . S
Mg199 O206 2.079 . S
C200 O197 1.250 . S
C200 O198 1.248 . S
C201 O202 1.264 . S
C201 O209 1.249 . S
O202 C201 1.264 . S
O203 Mg196 1.986 . S
O203 C207 1.246 . S
O204 Mg199 2.032 . S
O204 C207 1.259 . S
O205 Mg196 2.114 . S
O205 C208 1.252 . S
O206 Mg196 2.251 . S
O206 Mg199 2.079 . S
O206 C208 1.273 . S
C207 O203 1.246 . S
C207 O204 1.259 . S
C208 O205 1.252 . S
C208 O206 1.273 . S
O209 Mg196 2.010 . S
O209 C201 1.249 . S
H210 C228 0.951 . S
H211 C230 0.951 . S
H212 C232 0.950 . S
H213 C233 0.950 . S
H214 C235 0.950 . S
H215 C238 0.950 . S
H216 C239 0.950 . S
H217 C241 0.950 . S
H218 C242 0.950 . S
H219 C243 0.951 . S
H220 C245 0.951 . S
H221 C247 0.950 . S
H222 C248 0.950 . S
H223 C250 0.950 . S
H224 C253 0.950 . S
H225 C254 0.950 . S
H226 C256 0.950 . S
H227 C257 0.950 . S
C228 H210 0.951 . S
C228 C229 1.366 . S
C228 C230 1.388 . S
C229 C228 1.366 . S
C229 C233 1.385 . S
C230 H211 0.951 . S
C230 C228 1.388 . S
C230 C231 1.366 . S
C231 C230 1.366 . S
C231 C232 1.414 . S
C231 C234 1.499 . S
C232 H212 0.950 . S
C232 C231 1.414 . S
C232 C233 1.374 . S
C233 H213 0.950 . S
C233 C229 1.385 . S
C233 C232 1.374 . S
C234 C231 1.499 . S
C234 C235 1.373 . S
C234 C236 1.389 . S
C235 H214 0.950 . S
C235 C234 1.373 . S
C235 C251 1.377 . S
C236 C234 1.389 . S
C236 C237 1.524 . S
C236 C250 1.377 . S
C237 C236 1.524 . S
C237 C238 1.397 . S
C237 C242 1.363 . S
C238 H215 0.950 . S
C238 C237 1.397 . S
C238 C239 1.334 . S
C239 H216 0.950 . S
C239 C238 1.334 . S
C239 C240 1.287 . S
C240 C239 1.287 . S
C240 C241 1.524 . S
C240 H259 0.913 . S
C241 H217 0.950 . S
C241 C240 1.524 . S
C241 C242 1.415 . S
C242 H218 0.950 . S
C242 C237 1.363 . S
C242 C241 1.415 . S
C243 H219 0.951 . S
C243 C244 1.366 . S
C243 C245 1.388 . S
C244 C243 1.366 . S
C244 C248 1.385 . S
C245 H220 0.951 . S
C245 C243 1.388 . S
C245 C246 1.366 . S
C246 C245 1.366 . S
C246 C247 1.414 . S
C246 C249 1.499 . S
C247 H221 0.950 . S
C247 C246 1.414 . S
C247 C248 1.374 . S
C248 H222 0.950 . S
C248 C244 1.385 . S
C248 C247 1.374 . S
C249 C246 1.499 . S
C249 C250 1.373 . S
C249 C251 1.389 . S
C250 H223 0.950 . S
C250 C236 1.377 . S
C250 C249 1.373 . S
C251 C235 1.377 . S
C251 C249 1.389 . S
C251 C252 1.524 . S
C252 C251 1.524 . S
C252 C253 1.397 . S
C252 C257 1.363 . S
C253 H224 0.950 . S
C253 C252 1.397 . S
C253 C254 1.334 . S
C254 H225 0.950 . S
C254 C253 1.334 . S
C254 C255 1.287 . S
C255 C254 1.287 . S
C255 C256 1.524 . S
C255 H258 0.999 . S
C256 H226 0.950 . S
C256 C255 1.524 . S
C256 C257 1.415 . S
C257 H227 0.950 . S
C257 C252 1.363 . S
C257 C256 1.415 . S
H258 C255 0.999 . S
H259 C240 0.913 . S
H260 C278 0.951 . S
H261 C280 0.951 . S
H262 C282 0.950 . S
H263 C283 0.950 . S
H264 C285 0.950 . S
H265 C288 0.950 . S
H266 C289 0.950 . S
H267 C291 0.950 . S
H268 C292 0.950 . S
H269 C293 0.951 . S
H270 C295 0.951 . S
H271 C297 0.950 . S
H272 C298 0.950 . S
H273 C300 0.950 . S
H274 C303 0.950 . S
H275 C304 0.950 . S
H276 C306 0.950 . S
H277 C307 0.950 . S
C278 H260 0.951 . S
C278 C279 1.366 . S
C278 C280 1.388 . S
C279 C278 1.366 . S
C279 C283 1.385 . S
C280 H261 0.951 . S
C280 C278 1.388 . S
C280 C281 1.366 . S
C281 C280 1.366 . S
C281 C282 1.414 . S
C281 C284 1.499 . S
C282 H262 0.950 . S
C282 C281 1.414 . S
C282 C283 1.374 . S
C283 H263 0.950 . S
C283 C279 1.385 . S
C283 C282 1.374 . S
C284 C281 1.499 . S
C284 C285 1.373 . S
C284 C286 1.389 . S
C285 H264 0.950 . S
C285 C284 1.373 . S
C285 C301 1.377 . S
C286 C284 1.389 . S
C286 C287 1.524 . S
C286 C300 1.377 . S
C287 C286 1.524 . S
C287 C288 1.397 . S
C287 C292 1.363 . S
C288 H265 0.950 . S
C288 C287 1.397 . S
C288 C289 1.334 . S
C289 H266 0.950 . S
C289 C288 1.334 . S
C289 C290 1.287 . S
C290 C289 1.287 . S
C290 C291 1.524 . S
C290 H309 0.913 . S
C291 H267 0.950 . S
C291 C290 1.524 . S
C291 C292 1.415 . S
C292 H268 0.950 . S
C292 C287 1.363 . S
C292 C291 1.415 . S
C293 H269 0.951 . S
C293 C294 1.366 . S
C293 C295 1.388 . S
C294 C293 1.366 . S
C294 C298 1.385 . S
C295 H270 0.951 . S
C295 C293 1.388 . S
C295 C296 1.366 . S
C296 C295 1.366 . S
C296 C297 1.414 . S
C296 C299 1.499 . S
C297 H271 0.950 . S
C297 C296 1.414 . S
C297 C298 1.374 . S
C298 H272 0.950 . S
C298 C294 1.385 . S
C298 C297 1.374 . S
C299 C296 1.499 . S
C299 C300 1.373 . S
C299 C301 1.389 . S
C300 H273 0.950 . S
C300 C286 1.377 . S
C300 C299 1.373 . S
C301 C285 1.377 . S
C301 C299 1.389 . S
C301 C302 1.524 . S
C302 C301 1.524 . S
C302 C303 1.397 . S
C302 C307 1.363 . S
C303 H274 0.950 . S
C303 C302 1.397 . S
C303 C304 1.334 . S
C304 H275 0.950 . S
C304 C303 1.334 . S
C304 C305 1.287 . S
C305 C304 1.287 . S
C305 C306 1.524 . S
C305 H308 0.999 . S
C306 H276 0.950 . S
C306 C305 1.524 . S
C306 C307 1.415 . S
C307 H277 0.950 . S
C307 C302 1.363 . S
C307 C306 1.415 . S
H308 C305 0.999 . S
H309 C290 0.913 . S
H310 C328 0.951 . S
H311 C330 0.951 . S
H312 C332 0.950 . S
H313 C333 0.950 . S
H314 C335 0.950 . S
H315 C338 0.950 . S
H316 C339 0.950 . S
H317 C341 0.950 . S
H318 C342 0.950 . S
H319 C343 0.951 . S
H320 C345 0.951 . S
H321 C347 0.950 . S
H322 C348 0.950 . S
H323 C350 0.950 . S
H324 C353 0.950 . S
H325 C354 0.950 . S
H326 C356 0.950 . S
H327 C357 0.950 . S
C328 H310 0.951 . S
C328 C329 1.366 . S
C328 C330 1.388 . S
C329 C328 1.366 . S
C329 C333 1.385 . S
C330 H311 0.951 . S
C330 C328 1.388 . S
C330 C331 1.366 . S
C331 C330 1.366 . S
C331 C332 1.414 . S
C331 C334 1.499 . S
C332 H312 0.950 . S
C332 C331 1.414 . S
C332 C333 1.374 . S
C333 H313 0.950 . S
C333 C329 1.385 . S
C333 C332 1.374 . S
C334 C331 1.499 . S
C334 C335 1.373 . S
C334 C336 1.389 . S
C335 H314 0.950 . S
C335 C334 1.373 . S
C335 C351 1.377 . S
C336 C334 1.389 . S
C336 C337 1.524 . S
C336 C350 1.377 . S
C337 C336 1.524 . S
C337 C338 1.397 . S
C337 C342 1.363 . S
C338 H315 0.950 . S
C338 C337 1.397 . S
C338 C339 1.334 . S
C339 H316 0.950 . S
C339 C338 1.334 . S
C339 C340 1.287 . S
C340 C339 1.287 . S
C340 C341 1.524 . S
C340 H359 0.913 . S
C341 H317 0.950 . S
C341 C340 1.524 . S
C341 C342 1.415 . S
C342 H318 0.950 . S
C342 C337 1.363 . S
C342 C341 1.415 . S
C343 H319 0.951 . S
C343 C344 1.366 . S
C343 C345 1.388 . S
C344 C343 1.366 . S
C344 C348 1.385 . S
C345 H320 0.951 . S
C345 C343 1.388 . S
C345 C346 1.366 . S
C346 C345 1.366 . S
C346 C347 1.414 . S
C346 C349 1.499 . S
C347 H321 0.950 . S
C347 C346 1.414 . S
C347 C348 1.374 . S
C348 H322 0.950 . S
C348 C344 1.385 . S
C348 C347 1.374 . S
C349 C346 1.499 . S
C349 C350 1.373 . S
C349 C351 1.389 . S
C350 H323 0.950 . S
C350 C336 1.377 . S
C350 C349 1.373 . S
C351 C335 1.377 . S
C351 C349 1.389 . S
C351 C352 1.524 . S
C352 C351 1.524 . S
C352 C353 1.397 . S
C352 C357 1.363 . S
C353 H324 0.950 . S
C353 C352 1.397 . S
C353 C354 1.334 . S
C354 H325 0.950 . S
C354 C353 1.334 . S
C354 C355 1.287 . S
C355 C354 1.287 . S
C355 C356 1.524 . S
C355 H358 0.999 . S
C356 H326 0.950 . S
C356 C355 1.524 . S
C356 C357 1.415 . S
C357 H327 0.950 . S
C357 C352 1.363 . S
C357 C356 1.415 . S
H358 C355 0.999 . S
H359 C340 0.913 . S
H360 C378 0.951 . S
H361 C380 0.951 . S
H362 C382 0.950 . S
H363 C383 0.950 . S
H364 C385 0.950 . S
H365 C388 0.950 . S
H366 C389 0.950 . S
H367 C391 0.950 . S
H368 C392 0.950 . S
H369 C393 0.951 . S
H370 C395 0.951 . S
H371 C397 0.950 . S
H372 C398 0.950 . S
H373 C400 0.950 . S
H374 C403 0.950 . S
H375 C404 0.950 . S
H376 C406 0.950 . S
H377 C407 0.950 . S
C378 H360 0.951 . S
C378 C379 1.366 . S
C378 C380 1.388 . S
C379 C378 1.366 . S
C379 C383 1.385 . S
C380 H361 0.951 . S
C380 C378 1.388 . S
C380 C381 1.366 . S
C381 C380 1.366 . S
C381 C382 1.414 . S
C381 C384 1.499 . S
C382 H362 0.950 . S
C382 C381 1.414 . S
C382 C383 1.374 . S
C383 H363 0.950 . S
C383 C379 1.385 . S
C383 C382 1.374 . S
C384 C381 1.499 . S
C384 C385 1.373 . S
C384 C386 1.389 . S
C385 H364 0.950 . S
C385 C384 1.373 . S
C385 C401 1.377 . S
C386 C384 1.389 . S
C386 C387 1.524 . S
C386 C400 1.377 . S
C387 C386 1.524 . S
C387 C388 1.397 . S
C387 C392 1.363 . S
C388 H365 0.950 . S
C388 C387 1.397 . S
C388 C389 1.334 . S
C389 H366 0.950 . S
C389 C388 1.334 . S
C389 C390 1.287 . S
C390 C389 1.287 . S
C390 C391 1.524 . S
C390 H409 0.913 . S
C391 H367 0.950 . S
C391 C390 1.524 . S
C391 C392 1.415 . S
C392 H368 0.950 . S
C392 C387 1.363 . S
C392 C391 1.415 . S
C393 H369 0.951 . S
C393 C394 1.366 . S
C393 C395 1.388 . S
C394 C393 1.366 . S
C394 C398 1.385 . S
C395 H370 0.951 . S
C395 C393 1.388 . S
C395 C396 1.366 . S
C396 C395 1.366 . S
C396 C397 1.414 . S
C396 C399 1.499 . S
C397 H371 0.950 . S
C397 C396 1.414 . S
C397 C398 1.374 . S
C398 H372 0.950 . S
C398 C394 1.385 . S
C398 C397 1.374 . S
C399 C396 1.499 . S
C399 C400 1.373 . S
C399 C401 1.389 . S
C400 H373 0.950 . S
C400 C386 1.377 . S
C400 C399 1.373 . S
C401 C385 1.377 . S
C401 C399 1.389 . S
C401 C402 1.524 . S
C402 C401 1.524 . S
C402 C403 1.397 . S
C402 C407 1.363 . S
C403 H374 0.950 . S
C403 C402 1.397 . S
C403 C404 1.334 . S
C404 H375 0.950 . S
C404 C403 1.334 . S
C404 C405 1.287 . S
C405 C404 1.287 . S
C405 C406 1.524 . S
C405 H408 0.999 . S
C406 H376 0.950 . S
C406 C405 1.524 . S
C406 C407 1.415 . S
C407 H377 0.950 . S
C407 C402 1.363 . S
C407 C406 1.415 . S
H408 C405 0.999 . S
H409 C390 0.913 . S
H410 C428 0.951 . S
H411 C430 0.951 . S
H412 C432 0.950 . S
H413 C433 0.950 . S
H414 C435 0.950 . S
H415 C438 0.950 . S
H416 C439 0.950 . S
H417 C441 0.950 . S
H418 C442 0.950 . S
H419 C443 0.951 . S
H420 C445 0.951 . S
H421 C447 0.950 . S
H422 C448 0.950 . S
H423 C450 0.950 . S
H424 C453 0.950 . S
H425 C454 0.950 . S
H426 C456 0.950 . S
H427 C457 0.950 . S
C428 H410 0.951 . S
C428 C429 1.366 . S
C428 C430 1.388 . S
C429 C428 1.366 . S
C429 C433 1.385 . S
C430 H411 0.951 . S
C430 C428 1.388 . S
C430 C431 1.366 . S
C431 C430 1.366 . S
C431 C432 1.414 . S
C431 C434 1.499 . S
C432 H412 0.950 . S
C432 C431 1.414 . S
C432 C433 1.374 . S
C433 H413 0.950 . S
C433 C429 1.385 . S
C433 C432 1.374 . S
C434 C431 1.499 . S
C434 C435 1.373 . S
C434 C436 1.389 . S
C435 H414 0.950 . S
C435 C434 1.373 . S
C435 C451 1.377 . S
C436 C434 1.389 . S
C436 C437 1.524 . S
C436 C450 1.377 . S
C437 C436 1.524 . S
C437 C438 1.397 . S
C437 C442 1.363 1_556 S
C438 H415 0.950 . S
C438 C437 1.397 . S
C438 C439 1.334 1_556 S
C439 H416 0.950 . S
C439 C438 1.334 1_554 S
C439 C440 1.287 . S
C440 C439 1.287 . S
C440 C441 1.524 . S
C440 H459 0.913 . S
C441 H417 0.950 . S
C441 C440 1.524 . S
C441 C442 1.415 . S
C442 H418 0.950 . S
C442 C437 1.363 1_554 S
C442 C441 1.415 . S
C443 H419 0.951 . S
C443 C444 1.366 . S
C443 C445 1.388 . S
C444 C443 1.366 . S
C444 C448 1.385 . S
C445 H420 0.951 . S
C445 C443 1.388 . S
C445 C446 1.366 . S
C446 C445 1.366 . S
C446 C447 1.414 . S
C446 C449 1.499 . S
C447 H421 0.950 . S
C447 C446 1.414 . S
C447 C448 1.374 . S
C448 H422 0.950 . S
C448 C444 1.385 . S
C448 C447 1.374 . S
C449 C446 1.499 . S
C449 C450 1.373 . S
C449 C451 1.389 . S
C450 H423 0.950 . S
C450 C436 1.377 . S
C450 C449 1.373 . S
C451 C435 1.377 . S
C451 C449 1.389 . S
C451 C452 1.524 . S
C452 C451 1.524 . S
C452 C453 1.397 . S
C452 C457 1.363 . S
C453 H424 0.950 . S
C453 C452 1.397 . S
C453 C454 1.334 . S
C454 H425 0.950 . S
C454 C453 1.334 . S
C454 C455 1.287 . S
C455 C454 1.287 . S
C455 C456 1.524 . S
C455 H458 0.999 . S
C456 H426 0.950 . S
C456 C455 1.524 . S
C456 C457 1.415 . S
C457 H427 0.950 . S
C457 C452 1.363 . S
C457 C456 1.415 . S
H458 C455 0.999 . S
H459 C440 0.913 . S
H460 C478 0.951 . S
H461 C480 0.951 . S
H462 C482 0.950 . S
H463 C483 0.950 . S
H464 C485 0.950 . S
H465 C488 0.950 . S
H466 C489 0.950 . S
H467 C491 0.950 . S
H468 C492 0.950 . S
H469 C493 0.951 . S
H470 C495 0.951 . S
H471 C497 0.950 . S
H472 C498 0.950 . S
H473 C500 0.950 . S
H474 C503 0.950 . S
H475 C504 0.950 . S
H476 C506 0.950 . S
H477 C507 0.950 . S
C478 H460 0.951 . S
C478 C479 1.366 . S
C478 C480 1.388 . S
C479 C478 1.366 . S
C479 C483 1.385 . S
C480 H461 0.951 . S
C480 C478 1.388 . S
C480 C481 1.366 . S
C481 C480 1.366 . S
C481 C482 1.414 . S
C481 C484 1.499 . S
C482 H462 0.950 . S
C482 C481 1.414 . S
C482 C483 1.374 . S
C483 H463 0.950 . S
C483 C479 1.385 . S
C483 C482 1.374 . S
C484 C481 1.499 . S
C484 C485 1.373 . S
C484 C486 1.389 . S
C485 H464 0.950 . S
C485 C484 1.373 . S
C485 C501 1.377 . S
C486 C484 1.389 . S
C486 C487 1.524 . S
C486 C500 1.377 . S
C487 C486 1.524 . S
C487 C488 1.397 . S
C487 C492 1.363 . S
C488 H465 0.950 . S
C488 C487 1.397 . S
C488 C489 1.334 . S
C489 H466 0.950 . S
C489 C488 1.334 . S
C489 C490 1.287 . S
C490 C489 1.287 . S
C490 C491 1.524 . S
C490 H509 0.913 . S
C491 H467 0.950 . S
C491 C490 1.524 . S
C491 C492 1.415 . S
C492 H468 0.950 . S
C492 C487 1.363 . S
C492 C491 1.415 . S
C493 H469 0.951 . S
C493 C494 1.366 . S
C493 C495 1.388 . S
C494 C493 1.366 . S
C494 C498 1.385 . S
C495 H470 0.951 . S
C495 C493 1.388 . S
C495 C496 1.366 . S
C496 C495 1.366 . S
C496 C497 1.414 . S
C496 C499 1.499 . S
C497 H471 0.950 . S
C497 C496 1.414 . S
C497 C498 1.374 . S
C498 H472 0.950 . S
C498 C494 1.385 . S
C498 C497 1.374 . S
C499 C496 1.499 . S
C499 C500 1.373 . S
C499 C501 1.389 . S
C500 H473 0.950 . S
C500 C486 1.377 . S
C500 C499 1.373 . S
C501 C485 1.377 . S
C501 C499 1.389 . S
C501 C502 1.524 . S
C502 C501 1.524 . S
C502 C503 1.397 . S
C502 C507 1.363 . S
C503 H474 0.950 . S
C503 C502 1.397 . S
C503 C504 1.334 . S
C504 H475 0.950 . S
C504 C503 1.334 . S
C504 C505 1.287 . S
C505 C504 1.287 . S
C505 C506 1.524 . S
C505 H508 0.999 . S
C506 H476 0.950 . S
C506 C505 1.524 . S
C506 C507 1.415 . S
C507 H477 0.950 . S
C507 C502 1.363 . S
C507 C506 1.415 . S
H508 C505 0.999 . S
H509 C490 0.913 . S
H510 C528 0.951 . S
H511 C530 0.951 . S
H512 C532 0.950 . S
H513 C533 0.950 . S
H514 C535 0.950 . S
H515 C538 0.950 . S
H516 C539 0.950 . S
H517 C541 0.950 . S
H518 C542 0.950 . S
H519 C543 0.951 . S
H520 C545 0.951 . S
H521 C547 0.950 . S
H522 C548 0.950 . S
H523 C550 0.950 . S
H524 C553 0.950 . S
H525 C554 0.950 . S
H526 C556 0.950 . S
H527 C557 0.950 . S
C528 H510 0.951 . S
C528 C529 1.366 . S
C528 C530 1.388 . S
C529 C528 1.366 . S
C529 C533 1.385 . S
C530 H511 0.951 . S
C530 C528 1.388 . S
C530 C531 1.366 . S
C531 C530 1.366 . S
C531 C532 1.414 . S
C531 C534 1.499 . S
C532 H512 0.950 . S
C532 C531 1.414 . S
C532 C533 1.374 . S
C533 H513 0.950 . S
C533 C529 1.385 . S
C533 C532 1.374 . S
C534 C531 1.499 . S
C534 C535 1.373 . S
C534 C536 1.389 . S
C535 H514 0.950 . S
C535 C534 1.373 . S
C535 C551 1.377 . S
C536 C534 1.389 . S
C536 C537 1.524 . S
C536 C550 1.377 . S
C537 C536 1.524 . S
C537 C538 1.397 . S
C537 C542 1.363 . S
C538 H515 0.950 . S
C538 C537 1.397 . S
C538 C539 1.334 . S
C539 H516 0.950 . S
C539 C538 1.334 . S
C539 C540 1.287 . S
C540 C539 1.287 . S
C540 C541 1.524 . S
C540 H559 0.913 . S
C541 H517 0.950 . S
C541 C540 1.524 . S
C541 C542 1.415 . S
C542 H518 0.950 . S
C542 C537 1.363 . S
C542 C541 1.415 . S
C543 H519 0.951 . S
C543 C544 1.366 . S
C543 C545 1.388 . S
C544 C543 1.366 . S
C544 C548 1.385 . S
C545 H520 0.951 . S
C545 C543 1.388 . S
C545 C546 1.366 . S
C546 C545 1.366 . S
C546 C547 1.414 . S
C546 C549 1.499 . S
C547 H521 0.950 . S
C547 C546 1.414 . S
C547 C548 1.374 . S
C548 H522 0.950 . S
C548 C544 1.385 . S
C548 C547 1.374 . S
C549 C546 1.499 . S
C549 C550 1.373 . S
C549 C551 1.389 . S
C550 H523 0.950 . S
C550 C536 1.377 . S
C550 C549 1.373 . S
C551 C535 1.377 . S
C551 C549 1.389 . S
C551 C552 1.524 . S
C552 C551 1.524 . S
C552 C553 1.397 . S
C552 C557 1.363 . S
C553 H524 0.950 . S
C553 C552 1.397 . S
C553 C554 1.334 . S
C554 H525 0.950 . S
C554 C553 1.334 . S
C554 C555 1.287 . S
C555 C554 1.287 . S
C555 C556 1.524 . S
C555 H558 0.999 . S
C556 H526 0.950 . S
C556 C555 1.524 . S
C556 C557 1.415 . S
C557 H527 0.950 . S
C557 C552 1.363 . S
C557 C556 1.415 . S
H558 C555 0.999 . S
H559 C540 0.913 . S
H560 C578 0.951 . S
H561 C580 0.951 . S
H562 C582 0.950 . S
H563 C583 0.950 . S
H564 C585 0.950 . S
H565 C588 0.950 . S
H566 C589 0.950 . S
H567 C591 0.950 . S
H568 C592 0.950 . S
H569 C593 0.951 . S
H570 C595 0.951 . S
H571 C597 0.950 . S
H572 C598 0.950 . S
H573 C600 0.950 . S
H574 C603 0.950 . S
H575 C604 0.950 . S
H576 C606 0.950 . S
H577 C607 0.950 . S
C578 H560 0.951 . S
C578 C579 1.366 . S
C578 C580 1.388 . S
C579 C578 1.366 . S
C579 C583 1.385 . S
C580 H561 0.951 . S
C580 C578 1.388 . S
C580 C581 1.366 . S
C581 C580 1.366 . S
C581 C582 1.414 . S
C581 C584 1.499 . S
C582 H562 0.950 . S
C582 C581 1.414 . S
C582 C583 1.374 . S
C583 H563 0.950 . S
C583 C579 1.385 . S
C583 C582 1.374 . S
C584 C581 1.499 . S
C584 C585 1.373 . S
C584 C586 1.389 . S
C585 H564 0.950 . S
C585 C584 1.373 . S
C585 C601 1.377 . S
C586 C584 1.389 . S
C586 C587 1.524 . S
C586 C600 1.377 . S
C587 C586 1.524 . S
C587 C588 1.397 . S
C587 C592 1.363 . S
C588 H565 0.950 . S
C588 C587 1.397 . S
C588 C589 1.334 . S
C589 H566 0.950 . S
C589 C588 1.334 . S
C589 C590 1.287 . S
C590 C589 1.287 . S
C590 C591 1.524 . S
C590 H609 0.913 . S
C591 H567 0.950 . S
C591 C590 1.524 . S
C591 C592 1.415 . S
C592 H568 0.950 . S
C592 C587 1.363 . S
C592 C591 1.415 . S
C593 H569 0.951 . S
C593 C594 1.366 . S
C593 C595 1.388 . S
C594 C593 1.366 . S
C594 C598 1.385 . S
C595 H570 0.951 . S
C595 C593 1.388 . S
C595 C596 1.366 . S
C596 C595 1.366 . S
C596 C597 1.414 . S
C596 C599 1.499 . S
C597 H571 0.950 . S
C597 C596 1.414 . S
C597 C598 1.374 . S
C598 H572 0.950 . S
C598 C594 1.385 . S
C598 C597 1.374 . S
C599 C596 1.499 . S
C599 C600 1.373 . S
C599 C601 1.389 . S
C600 H573 0.950 . S
C600 C586 1.377 . S
C600 C599 1.373 . S
C601 C585 1.377 . S
C601 C599 1.389 . S
C601 C602 1.524 . S
C602 C601 1.524 . S
C602 C603 1.397 . S
C602 C607 1.363 . S
C603 H574 0.950 . S
C603 C602 1.397 . S
C603 C604 1.334 . S
C604 H575 0.950 . S
C604 C603 1.334 . S
C604 C605 1.287 . S
C605 C604 1.287 . S
C605 C606 1.524 . S
C605 H608 0.999 . S
C606 H576 0.950 . S
C606 C605 1.524 . S
C606 C607 1.415 . S
C607 H577 0.950 . S
C607 C602 1.363 . S
C607 C606 1.415 . S
H608 C605 0.999 . S
H609 C590 0.913 . S
H610 C628 0.951 . S
H611 C630 0.951 . S
H612 C632 0.950 . S
H613 C633 0.950 . S
H614 C635 0.950 . S
H615 C638 0.950 . S
H616 C639 0.950 . S
H617 C641 0.950 . S
H618 C642 0.950 . S
H619 C643 0.951 . S
H620 C645 0.951 . S
H621 C647 0.950 . S
H622 C648 0.950 . S
H623 C650 0.950 . S
H624 C653 0.950 . S
H625 C654 0.950 . S
H626 C656 0.950 . S
H627 C657 0.950 . S
C628 H610 0.951 . S
C628 C629 1.366 . S
C628 C630 1.388 . S
C629 C628 1.366 . S
C629 C633 1.385 . S
C630 H611 0.951 . S
C630 C628 1.388 . S
C630 C631 1.366 . S
C631 C630 1.366 . S
C631 C632 1.414 . S
C631 C634 1.499 . S
C632 H612 0.950 . S
C632 C631 1.414 . S
C632 C633 1.374 . S
C633 H613 0.950 . S
C633 C629 1.385 . S
C633 C632 1.374 . S
C634 C631 1.499 . S
C634 C635 1.373 . S
C634 C636 1.389 . S
C635 H614 0.950 . S
C635 C634 1.373 . S
C635 C651 1.377 . S
C636 C634 1.389 . S
C636 C637 1.524 . S
C636 C650 1.377 . S
C637 C636 1.524 . S
C637 C638 1.397 . S
C637 C642 1.363 . S
C638 H615 0.950 . S
C638 C637 1.397 . S
C638 C639 1.334 . S
C639 H616 0.950 . S
C639 C638 1.334 . S
C639 C640 1.287 . S
C640 C639 1.287 . S
C640 C641 1.524 . S
C640 H659 0.913 . S
C641 H617 0.950 . S
C641 C640 1.524 . S
C641 C642 1.415 . S
C642 H618 0.950 . S
C642 C637 1.363 . S
C642 C641 1.415 . S
C643 H619 0.951 . S
C643 C644 1.366 . S
C643 C645 1.388 . S
C644 C643 1.366 . S
C644 C648 1.385 . S
C645 H620 0.951 . S
C645 C643 1.388 . S
C645 C646 1.366 . S
C646 C645 1.366 . S
C646 C647 1.414 . S
C646 C649 1.499 . S
C647 H621 0.950 . S
C647 C646 1.414 . S
C647 C648 1.374 . S
C648 H622 0.950 . S
C648 C644 1.385 . S
C648 C647 1.374 . S
C649 C646 1.499 . S
C649 C650 1.373 . S
C649 C651 1.389 . S
C650 H623 0.950 . S
C650 C636 1.377 . S
C650 C649 1.373 . S
C651 C635 1.377 . S
C651 C649 1.389 . S
C651 C652 1.524 . S
C652 C651 1.524 . S
C652 C653 1.397 . S
C652 C657 1.363 . S
C653 H624 0.950 . S
C653 C652 1.397 . S
C653 C654 1.334 . S
C654 H625 0.950 . S
C654 C653 1.334 . S
C654 C655 1.287 . S
C655 C654 1.287 . S
C655 C656 1.524 . S
C655 H658 0.999 . S
C656 H626 0.950 . S
C656 C655 1.524 . S
C656 C657 1.415 . S
C657 H627 0.950 . S
C657 C652 1.363 . S
C657 C656 1.415 . S
H658 C655 0.999 . S
H659 C640 0.913 . S
H660 C678 0.951 . S
H661 C680 0.951 . S
H662 C682 0.946 1_556 S
H663 C683 0.963 . S
H664 C685 0.950 1_556 S
H665 C688 0.950 . S
H666 C689 0.950 . S
H667 C691 0.950 . S
H668 C692 0.950 . S
H669 C693 0.951 . S
H670 C695 0.951 . S
H671 C697 0.950 . S
H672 C698 0.950 . S
H673 C700 0.950 . S
H674 C703 0.950 1_554 S
H675 C704 0.950 . S
H676 C706 0.950 . S
H677 C707 0.950 . S
C678 H660 0.951 . S
C678 C679 1.366 . S
C678 C680 1.388 . S
C679 C678 1.366 . S
C679 C683 1.377 1_554 S
C680 H661 0.951 . S
C680 C678 1.388 . S
C680 C681 1.366 . S
C681 C680 1.366 . S
C681 C682 1.414 . S
C681 C684 1.499 . S
C682 H662 0.946 1_554 S
C682 C681 1.414 . S
C682 C683 1.369 1_554 S
C683 H663 0.963 . S
C683 C679 1.377 1_556 S
C683 C682 1.369 1_556 S
C684 C681 1.499 . S
C684 C685 1.373 . S
C684 C686 1.389 . S
C685 H664 0.950 1_554 S
C685 C684 1.373 . S
C685 C701 1.377 . S
C686 C684 1.389 . S
C686 C687 1.524 . S
C686 C700 1.377 . S
C687 C686 1.524 . S
C687 C688 1.397 . S
C687 C692 1.363 . S
C688 H665 0.950 . S
C688 C687 1.397 . S
C688 C689 1.334 . S
C689 H666 0.950 . S
C689 C688 1.334 . S
C689 C690 1.287 . S
C690 C689 1.287 . S
C690 C691 1.524 . S
C690 H709 0.913 . S
C691 H667 0.950 . S
C691 C690 1.524 . S
C691 C692 1.415 . S
C692 H668 0.950 . S
C692 C687 1.363 . S
C692 C691 1.415 . S
C693 H669 0.951 . S
C693 C694 1.366 . S
C693 C695 1.388 . S
C694 C693 1.366 . S
C694 C698 1.385 . S
C695 H670 0.951 . S
C695 C693 1.388 . S
C695 C696 1.366 . S
C696 C695 1.366 . S
C696 C697 1.414 . S
C696 C699 1.499 . S
C697 H671 0.950 . S
C697 C696 1.414 . S
C697 C698 1.374 . S
C698 H672 0.950 . S
C698 C694 1.385 . S
C698 C697 1.374 . S
C699 C696 1.499 . S
C699 C700 1.373 . S
C699 C701 1.389 . S
C700 H673 0.950 . S
C700 C686 1.377 . S
C700 C699 1.373 . S
C701 C685 1.377 . S
C701 C699 1.389 . S
C701 C702 1.524 1_554 S
C702 C701 1.524 1_556 S
C702 C703 1.397 . S
C702 C707 1.363 . S
C703 H674 0.950 1_556 S
C703 C702 1.397 . S
C703 C704 1.334 . S
C704 H675 0.950 . S
C704 C703 1.334 . S
C704 C705 1.287 . S
C705 C704 1.287 . S
C705 C706 1.524 . S
C705 H708 0.999 . S
C706 H676 0.950 . S
C706 C705 1.524 . S
C706 C707 1.415 . S
C707 H677 0.950 . S
C707 C702 1.363 . S
C707 C706 1.415 . S
H708 C705 0.999 . S
H709 C690 0.913 . S
H710 C728 0.951 . S
H711 C730 0.951 . S
H712 C732 0.950 . S
H713 C733 0.950 . S
H714 C735 0.950 . S
H715 C738 0.950 . S
H716 C739 0.950 . S
H717 C741 0.950 . S
H718 C742 0.950 . S
H719 C743 0.951 . S
H720 C745 0.951 . S
H721 C747 0.950 . S
H722 C748 0.950 . S
H723 C750 0.950 . S
H724 C753 0.950 . S
H725 C754 0.950 . S
H726 C756 0.950 . S
H727 C757 0.950 . S
C728 H710 0.951 . S
C728 C729 1.366 . S
C728 C730 1.388 . S
C729 C728 1.366 . S
C729 C733 1.385 . S
C730 H711 0.951 . S
C730 C728 1.388 . S
C730 C731 1.366 . S
C731 C730 1.366 . S
C731 C732 1.414 . S
C731 C734 1.499 . S
C732 H712 0.950 . S
C732 C731 1.414 . S
C732 C733 1.374 . S
C733 H713 0.950 . S
C733 C729 1.385 . S
C733 C732 1.374 . S
C734 C731 1.499 . S
C734 C735 1.373 . S
C734 C736 1.389 . S
C735 H714 0.950 . S
C735 C734 1.373 . S
C735 C751 1.377 . S
C736 C734 1.389 . S
C736 C737 1.524 . S
C736 C750 1.377 . S
C737 C736 1.524 . S
C737 C738 1.397 . S
C737 C742 1.363 . S
C738 H715 0.950 . S
C738 C737 1.397 . S
C738 C739 1.334 . S
C739 H716 0.950 . S
C739 C738 1.334 . S
C739 C740 1.287 . S
C740 C739 1.287 . S
C740 C741 1.524 . S
C740 H759 0.913 . S
C741 H717 0.950 . S
C741 C740 1.524 . S
C741 C742 1.415 . S
C742 H718 0.950 . S
C742 C737 1.363 . S
C742 C741 1.415 . S
C743 H719 0.951 . S
C743 C744 1.366 . S
C743 C745 1.388 . S
C744 C743 1.366 . S
C744 C748 1.385 . S
C745 H720 0.951 . S
C745 C743 1.388 . S
C745 C746 1.366 . S
C746 C745 1.366 . S
C746 C747 1.414 . S
C746 C749 1.499 . S
C747 H721 0.950 . S
C747 C746 1.414 . S
C747 C748 1.374 . S
C748 H722 0.950 . S
C748 C744 1.385 . S
C748 C747 1.374 . S
C749 C746 1.499 . S
C749 C750 1.373 . S
C749 C751 1.389 . S
C750 H723 0.950 . S
C750 C736 1.377 . S
C750 C749 1.373 . S
C751 C735 1.377 . S
C751 C749 1.389 . S
C751 C752 1.524 . S
C752 C751 1.524 . S
C752 C753 1.397 . S
C752 C757 1.363 . S
C753 H724 0.950 . S
C753 C752 1.397 . S
C753 C754 1.334 . S
C754 H725 0.950 . S
C754 C753 1.334 . S
C754 C755 1.287 . S
C755 C754 1.287 . S
C755 C756 1.524 . S
C755 H758 0.999 . S
C756 H726 0.950 . S
C756 C755 1.524 . S
C756 C757 1.415 . S
C757 H727 0.950 . S
C757 C752 1.363 . S
C757 C756 1.415 . S
H758 C755 0.999 . S
H759 C740 0.913 . S
H760 C778 0.951 . S
H761 C780 0.951 . S
H762 C782 0.950 . S
H763 C783 0.950 . S
H764 C785 0.950 . S
H765 C788 0.950 . S
H766 C789 0.950 . S
H767 C791 0.950 . S
H768 C792 0.950 . S
H769 C793 0.951 . S
H770 C795 0.951 . S
H771 C797 0.950 . S
H772 C798 0.950 . S
H773 C800 0.950 . S
H774 C803 0.950 . S
H775 C804 0.950 . S
H776 C806 0.950 . S
H777 C807 0.950 . S
C778 H760 0.951 . S
C778 C779 1.366 . S
C778 C780 1.388 . S
C779 C778 1.366 . S
C779 C783 1.385 . S
C780 H761 0.951 . S
C780 C778 1.388 . S
C780 C781 1.366 . S
C781 C780 1.366 . S
C781 C782 1.414 . S
C781 C784 1.499 . S
C782 H762 0.950 . S
C782 C781 1.414 . S
C782 C783 1.374 . S
C783 H763 0.950 . S
C783 C779 1.385 . S
C783 C782 1.374 . S
C784 C781 1.499 . S
C784 C785 1.373 . S
C784 C786 1.389 . S
C785 H764 0.950 . S
C785 C784 1.373 . S
C785 C801 1.377 . S
C786 C784 1.389 . S
C786 C787 1.524 . S
C786 C800 1.377 . S
C787 C786 1.524 . S
C787 C788 1.397 . S
C787 C792 1.363 . S
C788 H765 0.950 . S
C788 C787 1.397 . S
C788 C789 1.334 . S
C789 H766 0.950 . S
C789 C788 1.334 . S
C789 C790 1.287 . S
C790 C789 1.287 . S
C790 C791 1.524 . S
C790 H809 0.913 . S
C791 H767 0.950 . S
C791 C790 1.524 . S
C791 C792 1.415 . S
C792 H768 0.950 . S
C792 C787 1.363 . S
C792 C791 1.415 . S
C793 H769 0.951 . S
C793 C794 1.366 . S
C793 C795 1.388 . S
C794 C793 1.366 . S
C794 C798 1.385 . S
C795 H770 0.951 . S
C795 C793 1.388 . S
C795 C796 1.366 . S
C796 C795 1.366 . S
C796 C797 1.414 . S
C796 C799 1.499 . S
C797 H771 0.950 . S
C797 C796 1.414 . S
C797 C798 1.374 . S
C798 H772 0.950 . S
C798 C794 1.385 . S
C798 C797 1.374 . S
C799 C796 1.499 . S
C799 C800 1.373 . S
C799 C801 1.389 . S
C800 H773 0.950 . S
C800 C786 1.377 . S
C800 C799 1.373 . S
C801 C785 1.377 . S
C801 C799 1.389 . S
C801 C802 1.524 . S
C802 C801 1.524 . S
C802 C803 1.397 . S
C802 C807 1.363 . S
C803 H774 0.950 . S
C803 C802 1.397 . S
C803 C804 1.334 . S
C804 H775 0.950 . S
C804 C803 1.334 . S
C804 C805 1.287 . S
C805 C804 1.287 . S
C805 C806 1.524 . S
C805 H808 0.999 . S
C806 H776 0.950 . S
C806 C805 1.524 . S
C806 C807 1.415 . S
C807 H777 0.950 . S
C807 C802 1.363 . S
C807 C806 1.415 . S
H808 C805 0.999 . S
H809 C790 0.913 . S
H810 C828 0.951 . S
H811 C830 0.951 . S
H812 C832 0.950 . S
H813 C833 0.950 . S
H814 C835 0.950 . S
H815 C838 0.950 . S
H816 C839 0.950 . S
H817 C841 0.950 . S
H818 C842 0.950 . S
H819 C843 0.951 . S
H820 C845 0.951 . S
H821 C847 0.950 . S
H822 C848 0.950 . S
H823 C850 0.950 . S
H824 C853 0.950 . S
H825 C854 0.950 . S
H826 C856 0.950 . S
H827 C857 0.950 . S
C828 H810 0.951 . S
C828 C829 1.366 . S
C828 C830 1.388 . S
C829 C828 1.366 . S
C829 C833 1.385 . S
C830 H811 0.951 . S
C830 C828 1.388 . S
C830 C831 1.366 . S
C831 C830 1.366 . S
C831 C832 1.414 . S
C831 C834 1.499 . S
C832 H812 0.950 . S
C832 C831 1.414 . S
C832 C833 1.374 . S
C833 H813 0.950 . S
C833 C829 1.385 . S
C833 C832 1.374 . S
C834 C831 1.499 . S
C834 C835 1.373 . S
C834 C836 1.389 . S
C835 H814 0.950 . S
C835 C834 1.373 . S
C835 C851 1.377 . S
C836 C834 1.389 . S
C836 C837 1.524 . S
C836 C850 1.377 . S
C837 C836 1.524 . S
C837 C838 1.397 . S
C837 C842 1.363 . S
C838 H815 0.950 . S
C838 C837 1.397 . S
C838 C839 1.334 . S
C839 H816 0.950 . S
C839 C838 1.334 . S
C839 C840 1.287 . S
C840 C839 1.287 . S
C840 C841 1.524 . S
C840 H859 0.913 . S
C841 H817 0.950 . S
C841 C840 1.524 . S
C841 C842 1.415 . S
C842 H818 0.950 . S
C842 C837 1.363 . S
C842 C841 1.415 . S
C843 H819 0.951 . S
C843 C844 1.366 . S
C843 C845 1.388 . S
C844 C843 1.366 . S
C844 C848 1.385 . S
C845 H820 0.951 . S
C845 C843 1.388 . S
C845 C846 1.366 . S
C846 C845 1.366 . S
C846 C847 1.414 . S
C846 C849 1.499 . S
C847 H821 0.950 . S
C847 C846 1.414 . S
C847 C848 1.374 . S
C848 H822 0.950 . S
C848 C844 1.385 . S
C848 C847 1.374 . S
C849 C846 1.499 . S
C849 C850 1.373 . S
C849 C851 1.389 . S
C850 H823 0.950 . S
C850 C836 1.377 . S
C850 C849 1.373 . S
C851 C835 1.377 . S
C851 C849 1.389 . S
C851 C852 1.524 . S
C852 C851 1.524 . S
C852 C853 1.397 . S
C852 C857 1.363 . S
C853 H824 0.950 . S
C853 C852 1.397 . S
C853 C854 1.334 . S
C854 H825 0.950 . S
C854 C853 1.334 . S
C854 C855 1.287 . S
C855 C854 1.287 . S
C855 C856 1.524 . S
C855 H858 0.999 . S
C856 H826 0.950 . S
C856 C855 1.524 . S
C856 C857 1.415 . S
C857 H827 0.950 . S
C857 C852 1.363 . S
C857 C856 1.415 . S
H858 C855 0.999 . S
H859 C840 0.913 . S
H860 C878 0.951 . S
H861 C880 0.951 . S
H862 C882 0.950 . S
H863 C883 0.950 . S
H864 C885 0.950 . S
H865 C888 0.950 . S
H866 C889 0.950 . S
H867 C891 0.950 . S
H868 C892 0.950 . S
H869 C893 0.951 . S
H870 C895 0.951 . S
H871 C897 0.950 . S
H872 C898 0.950 . S
H873 C900 0.950 . S
H874 C903 0.950 . S
H875 C904 0.950 . S
H876 C906 0.950 . S
H877 C907 0.950 . S
C878 H860 0.951 . S
C878 C879 1.366 . S
C878 C880 1.388 . S
C879 C878 1.366 . S
C879 C883 1.385 . S
C880 H861 0.951 . S
C880 C878 1.388 . S
C880 C881 1.366 . S
C881 C880 1.366 . S
C881 C882 1.414 . S
C881 C884 1.499 . S
C882 H862 0.950 . S
C882 C881 1.414 . S
C882 C883 1.374 . S
C883 H863 0.950 . S
C883 C879 1.385 . S
C883 C882 1.374 . S
C884 C881 1.499 . S
C884 C885 1.373 . S
C884 C886 1.389 . S
C885 H864 0.950 . S
C885 C884 1.373 . S
C885 C901 1.377 . S
C886 C884 1.389 . S
C886 C887 1.524 . S
C886 C900 1.377 . S
C887 C886 1.524 . S
C887 C888 1.397 . S
C887 C892 1.363 . S
C888 H865 0.950 . S
C888 C887 1.397 . S
C888 C889 1.334 . S
C889 H866 0.950 . S
C889 C888 1.334 . S
C889 C890 1.287 . S
C890 C889 1.287 . S
C890 C891 1.524 . S
C890 H909 0.913 . S
C891 H867 0.950 . S
C891 C890 1.524 . S
C891 C892 1.415 . S
C892 H868 0.950 . S
C892 C887 1.363 . S
C892 C891 1.415 . S
C893 H869 0.951 . S
C893 C894 1.366 . S
C893 C895 1.388 . S
C894 C893 1.366 . S
C894 C898 1.385 . S
C895 H870 0.951 . S
C895 C893 1.388 . S
C895 C896 1.366 . S
C896 C895 1.366 . S
C896 C897 1.414 . S
C896 C899 1.499 . S
C897 H871 0.950 . S
C897 C896 1.414 . S
C897 C898 1.374 . S
C898 H872 0.950 . S
C898 C894 1.385 . S
C898 C897 1.374 . S
C899 C896 1.499 . S
C899 C900 1.373 . S
C899 C901 1.389 . S
C900 H873 0.950 . S
C900 C886 1.377 . S
C900 C899 1.373 . S
C901 C885 1.377 . S
C901 C899 1.389 . S
C901 C902 1.524 . S
C902 C901 1.524 . S
C902 C903 1.397 . S
C902 C907 1.363 . S
C903 H874 0.950 . S
C903 C902 1.397 . S
C903 C904 1.334 . S
C904 H875 0.950 . S
C904 C903 1.334 . S
C904 C905 1.287 . S
C905 C904 1.287 . S
C905 C906 1.524 . S
C905 H908 0.999 . S
C906 H876 0.950 . S
C906 C905 1.524 . S
C906 C907 1.415 . S
C907 H877 0.950 . S
C907 C902 1.363 . S
C907 C906 1.415 . S
H908 C905 0.999 . S
H909 C890 0.913 . S
H910 C928 0.951 . S
H911 C930 0.951 . S
H912 C932 0.950 . S
H913 C933 0.950 . S
H914 C935 0.950 . S
H915 C938 0.950 . S
H916 C939 0.950 . S
H917 C941 0.950 . S
H918 C942 0.950 . S
H919 C943 0.951 . S
H920 C945 0.951 . S
H921 C947 0.950 . S
H922 C948 0.950 . S
H923 C950 0.950 . S
H924 C953 0.950 . S
H925 C954 0.950 . S
H926 C956 0.950 . S
H927 C957 0.950 . S
C928 H910 0.951 . S
C928 C929 1.366 . S
C928 C930 1.388 . S
C929 C928 1.366 . S
C929 C933 1.385 . S
C930 H911 0.951 . S
C930 C928 1.388 . S
C930 C931 1.366 . S
C931 C930 1.366 . S
C931 C932 1.414 . S
C931 C934 1.499 . S
C932 H912 0.950 . S
C932 C931 1.414 . S
C932 C933 1.374 . S
C933 H913 0.950 . S
C933 C929 1.385 . S
C933 C932 1.374 . S
C934 C931 1.499 . S
C934 C935 1.373 . S
C934 C936 1.389 . S
C935 H914 0.950 . S
C935 C934 1.373 . S
C935 C951 1.377 . S
C936 C934 1.389 . S
C936 C937 1.524 . S
C936 C950 1.377 . S
C937 C936 1.524 . S
C937 C938 1.397 . S
C937 C942 1.363 . S
C938 H915 0.950 . S
C938 C937 1.397 . S
C938 C939 1.334 . S
C939 H916 0.950 . S
C939 C938 1.334 . S
C939 C940 1.287 . S
C940 C939 1.287 . S
C940 C941 1.524 . S
C940 H959 0.913 . S
C941 H917 0.950 . S
C941 C940 1.524 . S
C941 C942 1.415 . S
C942 H918 0.950 . S
C942 C937 1.363 . S
C942 C941 1.415 . S
C943 H919 0.951 . S
C943 C944 1.366 . S
C943 C945 1.388 . S
C944 C943 1.366 . S
C944 C948 1.385 . S
C945 H920 0.951 . S
C945 C943 1.388 . S
C945 C946 1.366 . S
C946 C945 1.366 . S
C946 C947 1.414 . S
C946 C949 1.499 . S
C947 H921 0.950 . S
C947 C946 1.414 . S
C947 C948 1.374 . S
C948 H922 0.950 . S
C948 C944 1.385 . S
C948 C947 1.374 . S
C949 C946 1.499 . S
C949 C950 1.373 . S
C949 C951 1.389 . S
C950 H923 0.950 . S
C950 C936 1.377 . S
C950 C949 1.373 . S
C951 C935 1.377 . S
C951 C949 1.389 . S
C951 C952 1.524 . S
C952 C951 1.524 . S
C952 C953 1.397 . S
C952 C957 1.363 . S
C953 H924 0.950 . S
C953 C952 1.397 . S
C953 C954 1.334 . S
C954 H925 0.950 . S
C954 C953 1.334 . S
C954 C955 1.287 . S
C955 C954 1.287 . S
C955 C956 1.524 . S
C955 H958 0.999 . S
C956 H926 0.950 . S
C956 C955 1.524 . S
C956 C957 1.415 . S
C957 H927 0.950 . S
C957 C952 1.363 . S
C957 C956 1.415 . S
H958 C955 0.999 . S
H959 C940 0.913 . S
H960 C978 0.951 . S
H961 C980 0.951 . S
H962 C982 0.950 . S
H963 C983 0.950 . S
H964 C985 0.950 . S
H965 C988 0.950 . S
H966 C989 0.950 . S
H967 C991 0.971 . S
H968 C992 0.950 . S
H969 C993 0.951 . S
H970 C995 0.951 . S
H971 C997 0.946 1_554 S
H972 C998 0.950 . S
H973 C1000 0.950 . S
H974 C1003 0.950 . S
H975 C1004 0.950 . S
H976 C1006 0.950 . S
H977 C1007 0.950 . S
C978 H960 0.951 . S
C978 C979 1.366 . S
C978 C980 1.388 . S
C979 C978 1.366 . S
C979 C983 1.385 . S
C980 H961 0.951 . S
C980 C978 1.388 . S
C980 C981 1.366 . S
C981 C980 1.366 . S
C981 C982 1.414 . S
C981 C984 1.499 . S
C982 H962 0.950 . S
C982 C981 1.414 . S
C982 C983 1.374 . S
C983 H963 0.950 . S
C983 C979 1.385 . S
C983 C982 1.374 . S
C984 C981 1.499 . S
C984 C985 1.373 . S
C984 C986 1.389 . S
C985 H964 0.950 . S
C985 C984 1.373 . S
C985 C1001 1.377 . S
C986 C984 1.389 . S
C986 C987 1.524 . S
C986 C1000 1.377 . S
C987 C986 1.524 . S
C987 C988 1.397 . S
C987 C992 1.363 . S
C988 H965 0.950 . S
C988 C987 1.397 . S
C988 C989 1.334 . S
C989 H966 0.950 . S
C989 C988 1.334 . S
C989 C990 1.287 . S
C990 C989 1.287 . S
C990 C991 1.524 . S
C990 H1009 0.913 . S
C991 H967 0.971 . S
C991 C990 1.524 . S
C991 C992 1.415 . S
C992 H968 0.950 . S
C992 C987 1.363 . S
C992 C991 1.415 . S
C993 H969 0.951 . S
C993 C994 1.366 1_556 S
C993 C995 1.388 . S
C994 C993 1.366 1_554 S
C994 C998 1.385 . S
C995 H970 0.951 . S
C995 C993 1.388 . S
C995 C996 1.366 . S
C996 C995 1.366 . S
C996 C997 1.455 . S
C996 C999 1.499 . S
C997 H971 0.946 1_556 S
C997 C996 1.455 . S
C997 C998 1.339 1_556 S
C998 H972 0.950 . S
C998 C994 1.385 . S
C998 C997 1.339 1_554 S
C999 C996 1.499 . S
C999 C1000 1.373 . S
C999 C1001 1.389 . S
C1000 H973 0.950 . S
C1000 C986 1.377 . S
C1000 C999 1.373 . S
C1001 C985 1.377 . S
C1001 C999 1.389 . S
C1001 C1002 1.524 . S
C1002 C1001 1.524 . S
C1002 C1003 1.397 . S
C1002 C1007 1.363 . S
C1003 H974 0.950 . S
C1003 C1002 1.397 . S
C1003 C1004 1.334 . S
C1004 H975 0.950 . S
C1004 C1003 1.334 . S
C1004 C1005 1.287 . S
C1005 C1004 1.287 . S
C1005 C1006 1.524 . S
C1005 H1008 0.999 . S
C1006 H976 0.950 . S
C1006 C1005 1.524 . S
C1006 C1007 1.415 . S
C1007 H977 0.950 . S
C1007 C1002 1.363 . S
C1007 C1006 1.415 . S
H1008 C1005 0.999 . S
H1009 C990 0.913 . S
H1010 C1028 0.951 . S
H1011 C1030 0.951 . S
H1012 C1032 0.950 . S
H1013 C1033 0.950 . S
H1014 C1035 0.950 . S
H1015 C1038 0.950 . S
H1016 C1039 0.950 . S
H1017 C1041 0.950 . S
H1018 C1042 0.950 . S
H1019 C1043 0.951 . S
H1020 C1045 0.951 . S
H1021 C1047 0.950 . S
H1022 C1048 0.950 . S
H1023 C1050 0.950 . S
H1024 C1053 0.950 . S
H1025 C1054 0.950 . S
H1026 C1056 0.950 . S
H1027 C1057 0.950 . S
C1028 H1010 0.951 . S
C1028 C1029 1.366 . S
C1028 C1030 1.388 . S
C1029 C1028 1.366 . S
C1029 C1033 1.385 . S
C1030 H1011 0.951 . S
C1030 C1028 1.388 . S
C1030 C1031 1.366 . S
C1031 C1030 1.366 . S
C1031 C1032 1.414 . S
C1031 C1034 1.499 . S
C1032 H1012 0.950 . S
C1032 C1031 1.414 . S
C1032 C1033 1.374 . S
C1033 H1013 0.950 . S
C1033 C1029 1.385 . S
C1033 C1032 1.374 . S
C1034 C1031 1.499 . S
C1034 C1035 1.373 . S
C1034 C1036 1.389 . S
C1035 H1014 0.950 . S
C1035 C1034 1.373 . S
C1035 C1051 1.377 . S
C1036 C1034 1.389 . S
C1036 C1037 1.524 . S
C1036 C1050 1.377 . S
C1037 C1036 1.524 . S
C1037 C1038 1.397 . S
C1037 C1042 1.363 . S
C1038 H1015 0.950 . S
C1038 C1037 1.397 . S
C1038 C1039 1.334 . S
C1039 H1016 0.950 . S
C1039 C1038 1.334 . S
C1039 C1040 1.287 . S
C1040 C1039 1.287 . S
C1040 C1041 1.524 . S
C1040 H1059 0.913 . S
C1041 H1017 0.950 . S
C1041 C1040 1.524 . S
C1041 C1042 1.415 . S
C1042 H1018 0.950 . S
C1042 C1037 1.363 . S
C1042 C1041 1.415 . S
C1043 H1019 0.951 . S
C1043 C1044 1.366 . S
C1043 C1045 1.388 . S
C1044 C1043 1.366 . S
C1044 C1048 1.385 . S
C1045 H1020 0.951 . S
C1045 C1043 1.388 . S
C1045 C1046 1.366 . S
C1046 C1045 1.366 . S
C1046 C1047 1.414 . S
C1046 C1049 1.499 . S
C1047 H1021 0.950 . S
C1047 C1046 1.414 . S
C1047 C1048 1.374 . S
C1048 H1022 0.950 . S
C1048 C1044 1.385 . S
C1048 C1047 1.374 . S
C1049 C1046 1.499 . S
C1049 C1050 1.373 . S
C1049 C1051 1.389 . S
C1050 H1023 0.950 . S
C1050 C1036 1.377 . S
C1050 C1049 1.373 . S
C1051 C1035 1.377 . S
C1051 C1049 1.389 . S
C1051 C1052 1.524 . S
C1052 C1051 1.524 . S
C1052 C1053 1.397 . S
C1052 C1057 1.363 . S
C1053 H1024 0.950 . S
C1053 C1052 1.397 . S
C1053 C1054 1.334 . S
C1054 H1025 0.950 . S
C1054 C1053 1.334 . S
C1054 C1055 1.287 . S
C1055 C1054 1.287 . S
C1055 C1056 1.524 . S
C1055 H1058 0.999 . S
C1056 H1026 0.950 . S
C1056 C1055 1.524 . S
C1056 C1057 1.415 . S
C1057 H1027 0.950 . S
C1057 C1052 1.363 . S
C1057 C1056 1.415 . S
H1058 C1055 0.999 . S
H1059 C1040 0.913 . S
H1060 C1078 0.951 . S
H1061 C1080 0.951 . S
H1062 C1082 0.950 . S
H1063 C1083 0.950 . S
H1064 C1085 0.950 . S
H1065 C1088 0.950 . S
H1066 C1089 0.950 . S
H1067 C1091 0.950 . S
H1068 C1092 0.950 . S
H1069 C1093 0.951 . S
H1070 C1095 0.951 . S
H1071 C1097 0.950 . S
H1072 C1098 0.950 . S
H1073 C1100 0.950 . S
H1074 C1103 0.950 . S
H1075 C1104 0.950 . S
H1076 C1106 0.950 . S
H1077 C1107 0.950 . S
C1078 H1060 0.951 . S
C1078 C1079 1.366 . S
C1078 C1080 1.388 . S
C1079 C1078 1.366 . S
C1079 C1083 1.385 . S
C1080 H1061 0.951 . S
C1080 C1078 1.388 . S
C1080 C1081 1.366 . S
C1081 C1080 1.366 . S
C1081 C1082 1.414 . S
C1081 C1084 1.499 . S
C1082 H1062 0.950 . S
C1082 C1081 1.414 . S
C1082 C1083 1.374 . S
C1083 H1063 0.950 . S
C1083 C1079 1.385 . S
C1083 C1082 1.374 . S
C1084 C1081 1.499 . S
C1084 C1085 1.373 . S
C1084 C1086 1.389 . S
C1085 H1064 0.950 . S
C1085 C1084 1.373 . S
C1085 C1101 1.377 . S
C1086 C1084 1.389 . S
C1086 C1087 1.524 . S
C1086 C1100 1.377 . S
C1087 C1086 1.524 . S
C1087 C1088 1.397 . S
C1087 C1092 1.363 . S
C1088 H1065 0.950 . S
C1088 C1087 1.397 . S
C1088 C1089 1.334 . S
C1089 H1066 0.950 . S
C1089 C1088 1.334 . S
C1089 C1090 1.287 . S
C1090 C1089 1.287 . S
C1090 C1091 1.524 . S
C1090 H1109 0.913 . S
C1091 H1067 0.950 . S
C1091 C1090 1.524 . S
C1091 C1092 1.415 . S
C1092 H1068 0.950 . S
C1092 C1087 1.363 . S
C1092 C1091 1.415 . S
C1093 H1069 0.951 . S
C1093 C1094 1.366 . S
C1093 C1095 1.388 . S
C1094 C1093 1.366 . S
C1094 C1098 1.385 . S
C1095 H1070 0.951 . S
C1095 C1093 1.388 . S
C1095 C1096 1.366 . S
C1096 C1095 1.366 . S
C1096 C1097 1.414 . S
C1096 C1099 1.499 . S
C1097 H1071 0.950 . S
C1097 C1096 1.414 . S
C1097 C1098 1.374 . S
C1098 H1072 0.950 . S
C1098 C1094 1.385 . S
C1098 C1097 1.374 . S
C1099 C1096 1.499 . S
C1099 C1100 1.373 . S
C1099 C1101 1.389 . S
C1100 H1073 0.950 . S
C1100 C1086 1.377 . S
C1100 C1099 1.373 . S
C1101 C1085 1.377 . S
C1101 C1099 1.389 . S
C1101 C1102 1.524 . S
C1102 C1101 1.524 . S
C1102 C1103 1.397 . S
C1102 C1107 1.363 . S
C1103 H1074 0.950 . S
C1103 C1102 1.397 . S
C1103 C1104 1.334 . S
C1104 H1075 0.950 . S
C1104 C1103 1.334 . S
C1104 C1105 1.287 . S
C1105 C1104 1.287 . S
C1105 C1106 1.524 . S
C1105 H1108 0.999 . S
C1106 H1076 0.950 . S
C1106 C1105 1.524 . S
C1106 C1107 1.415 . S
C1107 H1077 0.950 . S
C1107 C1102 1.363 . S
C1107 C1106 1.415 . S
H1108 C1105 0.999 . S
H1109 C1090 0.913 . S
H1110 C1128 0.951 . S
H1111 C1130 0.951 . S
H1112 C1132 0.950 . S
H1113 C1133 0.950 . S
H1114 C1135 0.950 . S
H1115 C1138 0.950 . S
H1116 C1139 0.950 . S
H1117 C1141 0.950 . S
H1118 C1142 0.950 . S
H1119 C1143 0.951 . S
H1120 C1145 0.951 . S
H1121 C1147 0.950 . S
H1122 C1148 0.950 . S
H1123 C1150 0.950 . S
H1124 C1153 0.950 . S
H1125 C1154 0.950 . S
H1126 C1156 0.950 . S
H1127 C1157 0.950 . S
C1128 H1110 0.951 . S
C1128 C1129 1.366 . S
C1128 C1130 1.388 . S
C1129 C1128 1.366 . S
C1129 C1133 1.385 . S
C1130 H1111 0.951 . S
C1130 C1128 1.388 . S
C1130 C1131 1.366 . S
C1131 C1130 1.366 . S
C1131 C1132 1.414 . S
C1131 C1134 1.499 . S
C1132 H1112 0.950 . S
C1132 C1131 1.414 . S
C1132 C1133 1.374 . S
C1133 H1113 0.950 . S
C1133 C1129 1.385 . S
C1133 C1132 1.374 . S
C1134 C1131 1.499 . S
C1134 C1135 1.373 . S
C1134 C1136 1.389 . S
C1135 H1114 0.950 . S
C1135 C1134 1.373 . S
C1135 C1151 1.377 . S
C1136 C1134 1.389 . S
C1136 C1137 1.524 . S
C1136 C1150 1.377 . S
C1137 C1136 1.524 . S
C1137 C1138 1.397 . S
C1137 C1142 1.363 . S
C1138 H1115 0.950 . S
C1138 C1137 1.397 . S
C1138 C1139 1.334 . S
C1139 H1116 0.950 . S
C1139 C1138 1.334 . S
C1139 C1140 1.287 . S
C1140 C1139 1.287 . S
C1140 C1141 1.524 . S
C1140 H1159 0.913 . S
C1141 H1117 0.950 . S
C1141 C1140 1.524 . S
C1141 C1142 1.415 . S
C1142 H1118 0.950 . S
C1142 C1137 1.363 . S
C1142 C1141 1.415 . S
C1143 H1119 0.951 . S
C1143 C1144 1.366 . S
C1143 C1145 1.388 . S
C1144 C1143 1.366 . S
C1144 C1148 1.385 . S
C1145 H1120 0.951 . S
C1145 C1143 1.388 . S
C1145 C1146 1.366 . S
C1146 C1145 1.366 . S
C1146 C1147 1.414 . S
C1146 C1149 1.499 . S
C1147 H1121 0.950 . S
C1147 C1146 1.414 . S
C1147 C1148 1.374 . S
C1148 H1122 0.950 . S
C1148 C1144 1.385 . S
C1148 C1147 1.374 . S
C1149 C1146 1.499 . S
C1149 C1150 1.373 . S
C1149 C1151 1.389 . S
C1150 H1123 0.950 . S
C1150 C1136 1.377 . S
C1150 C1149 1.373 . S
C1151 C1135 1.377 . S
C1151 C1149 1.389 . S
C1151 C1152 1.524 . S
C1152 C1151 1.524 . S
C1152 C1153 1.397 . S
C1152 C1157 1.363 . S
C1153 H1124 0.950 . S
C1153 C1152 1.397 . S
C1153 C1154 1.334 . S
C1154 H1125 0.950 . S
C1154 C1153 1.334 . S
C1154 C1155 1.287 . S
C1155 C1154 1.287 . S
C1155 C1156 1.524 . S
C1155 H1158 0.999 . S
C1156 H1126 0.950 . S
C1156 C1155 1.524 . S
C1156 C1157 1.415 . S
C1157 H1127 0.950 . S
C1157 C1152 1.363 . S
C1157 C1156 1.415 . S
H1158 C1155 0.999 . S
H1159 C1140 0.913 . S
H1160 C1178 0.951 . S
H1161 C1180 0.951 . S
H1162 C1182 0.950 . S
H1163 C1183 0.950 . S
H1164 C1185 0.950 . S
H1165 C1188 0.950 . S
H1166 C1189 0.950 . S
H1167 C1191 0.950 . S
H1168 C1192 0.950 . S
H1169 C1193 0.951 . S
H1170 C1195 0.951 . S
H1171 C1197 0.950 . S
H1172 C1198 0.950 . S
H1173 C1200 0.950 . S
H1174 C1203 0.950 . S
H1175 C1204 0.950 . S
H1176 C1206 0.950 . S
H1177 C1207 0.950 . S
C1178 H1160 0.951 . S
C1178 C1179 1.366 . S
C1178 C1180 1.388 . S
C1179 C1178 1.366 . S
C1179 C1183 1.385 . S
C1180 H1161 0.951 . S
C1180 C1178 1.388 . S
C1180 C1181 1.366 . S
C1181 C1180 1.366 . S
C1181 C1182 1.414 . S
C1181 C1184 1.499 . S
C1182 H1162 0.950 . S
C1182 C1181 1.414 . S
C1182 C1183 1.374 . S
C1183 H1163 0.950 . S
C1183 C1179 1.385 . S
C1183 C1182 1.374 . S
C1184 C1181 1.499 . S
C1184 C1185 1.373 . S
C1184 C1186 1.389 . S
C1185 H1164 0.950 . S
C1185 C1184 1.373 . S
C1185 C1201 1.377 . S
C1186 C1184 1.389 . S
C1186 C1187 1.524 . S
C1186 C1200 1.377 . S
C1187 C1186 1.524 . S
C1187 C1188 1.397 . S
C1187 C1192 1.363 . S
C1188 H1165 0.950 . S
C1188 C1187 1.397 . S
C1188 C1189 1.334 . S
C1189 H1166 0.950 . S
C1189 C1188 1.334 . S
C1189 C1190 1.287 . S
C1190 C1189 1.287 . S
C1190 C1191 1.524 . S
C1190 H1209 0.913 . S
C1191 H1167 0.950 . S
C1191 C1190 1.524 . S
C1191 C1192 1.415 . S
C1192 H1168 0.950 . S
C1192 C1187 1.363 . S
C1192 C1191 1.415 . S
C1193 H1169 0.951 . S
C1193 C1194 1.366 . S
C1193 C1195 1.388 . S
C1194 C1193 1.366 . S
C1194 C1198 1.385 . S
C1195 H1170 0.951 . S
C1195 C1193 1.388 . S
C1195 C1196 1.366 . S
C1196 C1195 1.366 . S
C1196 C1197 1.414 . S
C1196 C1199 1.499 . S
C1197 H1171 0.950 . S
C1197 C1196 1.414 . S
C1197 C1198 1.374 . S
C1198 H1172 0.950 . S
C1198 C1194 1.385 . S
C1198 C1197 1.374 . S
C1199 C1196 1.499 . S
C1199 C1200 1.373 . S
C1199 C1201 1.389 . S
C1200 H1173 0.950 . S
C1200 C1186 1.377 . S
C1200 C1199 1.373 . S
C1201 C1185 1.377 . S
C1201 C1199 1.389 . S
C1201 C1202 1.524 . S
C1202 C1201 1.524 . S
C1202 C1203 1.397 . S
C1202 C1207 1.363 . S
C1203 H1174 0.950 . S
C1203 C1202 1.397 . S
C1203 C1204 1.334 . S
C1204 H1175 0.950 . S
C1204 C1203 1.334 . S
C1204 C1205 1.287 . S
C1205 C1204 1.287 . S
C1205 C1206 1.524 . S
C1205 H1208 0.999 . S
C1206 H1176 0.950 . S
C1206 C1205 1.524 . S
C1206 C1207 1.415 . S
C1207 H1177 0.950 . S
C1207 C1202 1.363 . S
C1207 C1206 1.415 . S
H1208 C1205 0.999 . S
H1209 C1190 0.913 . S
H1210 C1228 0.951 . S
H1211 C1230 0.951 . S
H1212 C1232 0.950 . S
H1213 C1233 0.950 . S
H1214 C1235 0.950 . S
H1215 C1238 0.950 . S
H1216 C1239 0.950 . S
H1217 C1241 0.950 . S
H1218 C1242 0.950 . S
H1219 C1243 0.951 . S
H1220 C1245 0.951 . S
H1221 C1247 0.950 . S
H1222 C1248 0.950 . S
H1223 C1250 0.950 . S
H1224 C1253 0.950 . S
H1225 C1254 0.950 . S
H1226 C1256 0.950 . S
H1227 C1257 0.950 . S
C1228 H1210 0.951 . S
C1228 C1229 1.366 . S
C1228 C1230 1.388 . S
C1229 C1228 1.366 . S
C1229 C1233 1.385 . S
C1230 H1211 0.951 . S
C1230 C1228 1.388 . S
C1230 C1231 1.366 . S
C1231 C1230 1.366 . S
C1231 C1232 1.414 . S
C1231 C1234 1.499 . S
C1232 H1212 0.950 . S
C1232 C1231 1.414 . S
C1232 C1233 1.374 . S
C1233 H1213 0.950 . S
C1233 C1229 1.385 . S
C1233 C1232 1.374 . S
C1234 C1231 1.499 . S
C1234 C1235 1.373 . S
C1234 C1236 1.389 . S
C1235 H1214 0.950 . S
C1235 C1234 1.373 . S
C1235 C1251 1.377 . S
C1236 C1234 1.389 . S
C1236 C1237 1.524 . S
C1236 C1250 1.377 . S
C1237 C1236 1.524 . S
C1237 C1238 1.397 . S
C1237 C1242 1.363 . S
C1238 H1215 0.950 . S
C1238 C1237 1.397 . S
C1238 C1239 1.334 . S
C1239 H1216 0.950 . S
C1239 C1238 1.334 . S
C1239 C1240 1.287 . S
C1240 C1239 1.287 . S
C1240 C1241 1.524 . S
C1240 H1259 0.913 . S
C1241 H1217 0.950 . S
C1241 C1240 1.524 . S
C1241 C1242 1.415 . S
C1242 H1218 0.950 . S
C1242 C1237 1.363 . S
C1242 C1241 1.415 . S
C1243 H1219 0.951 . S
C1243 C1244 1.366 . S
C1243 C1245 1.388 . S
C1244 C1243 1.366 . S
C1244 C1248 1.385 . S
C1245 H1220 0.951 . S
C1245 C1243 1.388 . S
C1245 C1246 1.366 . S
C1246 C1245 1.366 . S
C1246 C1247 1.414 . S
C1246 C1249 1.499 . S
C1247 H1221 0.950 . S
C1247 C1246 1.414 . S
C1247 C1248 1.374 . S
C1248 H1222 0.950 . S
C1248 C1244 1.385 . S
C1248 C1247 1.374 . S
C1249 C1246 1.499 . S
C1249 C1250 1.373 . S
C1249 C1251 1.389 . S
C1250 H1223 0.950 . S
C1250 C1236 1.377 . S
C1250 C1249 1.373 . S
C1251 C1235 1.377 . S
C1251 C1249 1.389 . S
C1251 C1252 1.524 . S
C1252 C1251 1.524 . S
C1252 C1253 1.397 . S
C1252 C1257 1.363 . S
C1253 H1224 0.950 . S
C1253 C1252 1.397 . S
C1253 C1254 1.334 . S
C1254 H1225 0.950 . S
C1254 C1253 1.334 . S
C1254 C1255 1.287 . S
C1255 C1254 1.287 . S
C1255 C1256 1.524 . S
C1255 H1258 0.999 . S
C1256 H1226 0.950 . S
C1256 C1255 1.524 . S
C1256 C1257 1.415 . S
C1257 H1227 0.950 . S
C1257 C1252 1.363 . S
C1257 C1256 1.415 . S
H1258 C1255 0.999 . S
H1259 C1240 0.913 . S
H1260 C1278 0.951 . S
H1261 C1280 0.951 . S
H1262 C1282 0.950 . S
H1263 C1283 0.950 . S
H1264 C1285 0.950 . S
H1265 C1288 0.950 . S
H1266 C1289 0.950 . S
H1267 C1291 0.950 . S
H1268 C1292 0.950 . S
H1269 C1293 0.951 . S
H1270 C1295 0.951 . S
H1271 C1297 0.950 . S
H1272 C1298 0.950 . S
H1273 C1300 0.950 . S
H1274 C1303 0.950 . S
H1275 C1304 0.950 . S
H1276 C1306 0.950 . S
H1277 C1307 0.950 . S
C1278 H1260 0.951 . S
C1278 C1279 1.366 . S
C1278 C1280 1.388 . S
C1279 C1278 1.366 . S
C1279 C1283 1.385 . S
C1280 H1261 0.951 . S
C1280 C1278 1.388 . S
C1280 C1281 1.366 . S
C1281 C1280 1.366 . S
C1281 C1282 1.414 . S
C1281 C1284 1.499 . S
C1282 H1262 0.950 . S
C1282 C1281 1.414 . S
C1282 C1283 1.374 . S
C1283 H1263 0.950 . S
C1283 C1279 1.385 . S
C1283 C1282 1.374 . S
C1284 C1281 1.499 . S
C1284 C1285 1.373 . S
C1284 C1286 1.389 . S
C1285 H1264 0.950 . S
C1285 C1284 1.373 . S
C1285 C1301 1.377 . S
C1286 C1284 1.389 . S
C1286 C1287 1.524 . S
C1286 C1300 1.377 . S
C1287 C1286 1.524 . S
C1287 C1288 1.397 . S
C1287 C1292 1.363 . S
C1288 H1265 0.950 . S
C1288 C1287 1.397 . S
C1288 C1289 1.334 . S
C1289 H1266 0.950 . S
C1289 C1288 1.334 . S
C1289 C1290 1.287 . S
C1290 C1289 1.287 . S
C1290 C1291 1.524 . S
C1290 H1309 0.913 . S
C1291 H1267 0.950 . S
C1291 C1290 1.524 . S
C1291 C1292 1.415 . S
C1292 H1268 0.950 . S
C1292 C1287 1.363 . S
C1292 C1291 1.415 . S
C1293 H1269 0.951 . S
C1293 C1294 1.366 . S
C1293 C1295 1.388 . S
C1294 C1293 1.366 . S
C1294 C1298 1.385 . S
C1295 H1270 0.951 . S
C1295 C1293 1.388 . S
C1295 C1296 1.366 . S
C1296 C1295 1.366 . S
C1296 C1297 1.414 . S
C1296 C1299 1.499 . S
C1297 H1271 0.950 . S
C1297 C1296 1.414 . S
C1297 C1298 1.374 . S
C1298 H1272 0.950 . S
C1298 C1294 1.385 . S
C1298 C1297 1.374 . S
C1299 C1296 1.499 . S
C1299 C1300 1.373 . S
C1299 C1301 1.389 . S
C1300 H1273 0.950 . S
C1300 C1286 1.377 . S
C1300 C1299 1.373 . S
C1301 C1285 1.377 . S
C1301 C1299 1.389 . S
C1301 C1302 1.524 . S
C1302 C1301 1.524 . S
C1302 C1303 1.397 . S
C1302 C1307 1.363 . S
C1303 H1274 0.950 . S
C1303 C1302 1.397 . S
C1303 C1304 1.334 . S
C1304 H1275 0.950 . S
C1304 C1303 1.334 . S
C1304 C1305 1.287 . S
C1305 C1304 1.287 . S
C1305 C1306 1.524 . S
C1305 H1308 0.999 . S
C1306 H1276 0.950 . S
C1306 C1305 1.524 . S
C1306 C1307 1.415 . S
C1307 H1277 0.950 . S
C1307 C1302 1.363 . S
C1307 C1306 1.415 . S
H1308 C1305 0.999 . S
H1309 C1290 0.913 . S
H1310 C1328 0.951 . S
H1311 C1330 0.951 . S
H1312 C1332 0.950 . S
H1313 C1333 0.950 . S
H1314 C1335 0.950 . S
H1315 C1338 0.950 . S
H1316 C1339 0.950 . S
H1317 C1341 0.950 . S
H1318 C1342 0.950 . S
H1319 C1343 0.951 . S
H1320 C1345 0.951 . S
H1321 C1347 0.950 1_554 S
H1322 C1348 0.950 . S
H1323 C1350 0.950 . S
H1324 C1353 0.967 . S
H1325 C1354 0.950 . S
H1326 C1356 0.950 . S
H1327 C1357 0.950 . S
C1328 H1310 0.951 . S
C1328 C1329 1.366 . S
C1328 C1330 1.388 . S
C1329 C1328 1.366 . S
C1329 C1333 1.385 . S
C1330 H1311 0.951 . S
C1330 C1328 1.388 . S
C1330 C1331 1.366 . S
C1331 C1330 1.366 . S
C1331 C1332 1.414 . S
C1331 C1334 1.499 . S
C1332 H1312 0.950 . S
C1332 C1331 1.414 . S
C1332 C1333 1.374 . S
C1333 H1313 0.950 . S
C1333 C1329 1.385 . S
C1333 C1332 1.374 . S
C1334 C1331 1.499 . S
C1334 C1335 1.373 . S
C1334 C1336 1.389 . S
C1335 H1314 0.950 . S
C1335 C1334 1.373 . S
C1335 C1351 1.377 . S
C1336 C1334 1.389 . S
C1336 C1337 1.524 . S
C1336 C1350 1.377 . S
C1337 C1336 1.524 . S
C1337 C1338 1.397 . S
C1337 C1342 1.363 . S
C1338 H1315 0.950 . S
C1338 C1337 1.397 . S
C1338 C1339 1.334 . S
C1339 H1316 0.950 . S
C1339 C1338 1.334 . S
C1339 C1340 1.287 . S
C1340 C1339 1.287 . S
C1340 C1341 1.524 . S
C1340 H1359 0.913 . S
C1341 H1317 0.950 . S
C1341 C1340 1.524 . S
C1341 C1342 1.415 . S
C1342 H1318 0.950 . S
C1342 C1337 1.363 . S
C1342 C1341 1.415 . S
C1343 H1319 0.951 . S
C1343 C1344 1.366 . S
C1343 C1345 1.388 . S
C1344 C1343 1.366 . S
C1344 C1348 1.385 . S
C1345 H1320 0.951 . S
C1345 C1343 1.388 . S
C1345 C1346 1.366 . S
C1346 C1345 1.366 . S
C1346 C1347 1.414 . S
C1346 C1349 1.499 1_556 S
C1347 H1321 0.950 1_556 S
C1347 C1346 1.414 . S
C1347 C1348 1.374 . S
C1348 H1322 0.950 . S
C1348 C1344 1.385 . S
C1348 C1347 1.374 . S
C1349 C1346 1.499 1_554 S
C1349 C1350 1.373 . S
C1349 C1351 1.389 . S
C1350 H1323 0.950 . S
C1350 C1336 1.377 . S
C1350 C1349 1.373 . S
C1351 C1335 1.377 . S
C1351 C1349 1.389 . S
C1351 C1352 1.524 1_554 S
C1352 C1351 1.524 1_556 S
C1352 C1353 1.397 . S
C1352 C1357 1.363 . S
C1353 H1324 0.967 . S
C1353 C1352 1.397 . S
C1353 C1354 1.334 . S
C1354 H1325 0.950 . S
C1354 C1353 1.334 . S
C1354 C1355 1.287 . S
C1355 C1354 1.287 . S
C1355 C1356 1.524 . S
C1355 H1358 0.999 . S
C1356 H1326 0.950 . S
C1356 C1355 1.524 . S
C1356 C1357 1.415 . S
C1357 H1327 0.950 . S
C1357 C1352 1.363 . S
C1357 C1356 1.415 . S
H1358 C1355 0.999 . S
H1359 C1340 0.913 . S
H1360 C1378 0.951 . S
H1361 C1380 0.951 . S
H1362 C1382 0.950 . S
H1363 C1383 0.950 . S
H1364 C1385 0.950 . S
H1365 C1388 0.950 . S
H1366 C1389 0.950 . S
H1367 C1391 0.950 . S
H1368 C1392 0.950 . S
H1369 C1393 0.951 . S
H1370 C1395 0.951 . S
H1371 C1397 0.950 . S
H1372 C1398 0.950 . S
H1373 C1400 0.950 . S
H1374 C1403 0.950 . S
H1375 C1404 0.950 . S
H1376 C1406 0.950 . S
H1377 C1407 0.950 . S
C1378 H1360 0.951 . S
C1378 C1379 1.366 . S
C1378 C1380 1.388 . S
C1379 C1378 1.366 . S
C1379 C1383 1.385 . S
C1380 H1361 0.951 . S
C1380 C1378 1.388 . S
C1380 C1381 1.366 . S
C1381 C1380 1.366 . S
C1381 C1382 1.414 . S
C1381 C1384 1.499 . S
C1382 H1362 0.950 . S
C1382 C1381 1.414 . S
C1382 C1383 1.374 . S
C1383 H1363 0.950 . S
C1383 C1379 1.385 . S
C1383 C1382 1.374 . S
C1384 C1381 1.499 . S
C1384 C1385 1.373 . S
C1384 C1386 1.389 . S
C1385 H1364 0.950 . S
C1385 C1384 1.373 . S
C1385 C1401 1.377 . S
C1386 C1384 1.389 . S
C1386 C1387 1.524 . S
C1386 C1400 1.377 . S
C1387 C1386 1.524 . S
C1387 C1388 1.397 . S
C1387 C1392 1.363 . S
C1388 H1365 0.950 . S
C1388 C1387 1.397 . S
C1388 C1389 1.334 . S
C1389 H1366 0.950 . S
C1389 C1388 1.334 . S
C1389 C1390 1.287 . S
C1390 C1389 1.287 . S
C1390 C1391 1.524 . S
C1390 H1409 0.913 . S
C1391 H1367 0.950 . S
C1391 C1390 1.524 . S
C1391 C1392 1.415 . S
C1392 H1368 0.950 . S
C1392 C1387 1.363 . S
C1392 C1391 1.415 . S
C1393 H1369 0.951 . S
C1393 C1394 1.366 . S
C1393 C1395 1.388 . S
C1394 C1393 1.366 . S
C1394 C1398 1.385 . S
C1395 H1370 0.951 . S
C1395 C1393 1.388 . S
C1395 C1396 1.366 . S
C1396 C1395 1.366 . S
C1396 C1397 1.414 . S
C1396 C1399 1.499 . S
C1397 H1371 0.950 . S
C1397 C1396 1.414 . S
C1397 C1398 1.374 . S
C1398 H1372 0.950 . S
C1398 C1394 1.385 . S
C1398 C1397 1.374 . S
C1399 C1396 1.499 . S
C1399 C1400 1.373 . S
C1399 C1401 1.389 . S
C1400 H1373 0.950 . S
C1400 C1386 1.377 . S
C1400 C1399 1.373 . S
C1401 C1385 1.377 . S
C1401 C1399 1.389 . S
C1401 C1402 1.524 . S
C1402 C1401 1.524 . S
C1402 C1403 1.397 . S
C1402 C1407 1.363 . S
C1403 H1374 0.950 . S
C1403 C1402 1.397 . S
C1403 C1404 1.334 . S
C1404 H1375 0.950 . S
C1404 C1403 1.334 . S
C1404 C1405 1.287 . S
C1405 C1404 1.287 . S
C1405 C1406 1.524 . S
C1405 H1408 0.999 . S
C1406 H1376 0.950 . S
C1406 C1405 1.524 . S
C1406 C1407 1.415 . S
C1407 H1377 0.950 . S
C1407 C1402 1.363 . S
C1407 C1406 1.415 . S
H1408 C1405 0.999 . S
H1409 C1390 0.913 . S
C244 C201 1.276 . S
C229 C19 1.414 . S
C279 C40 1.444 . S
C294 C131 1.308 . S
C329 C51 1.400 . S
C344 C151 1.499 . S
C379 C72 1.342 . S
C394 C165 1.429 . S
C444 C173 1.252 . S
C429 C103 1.390 . S
C479 C114 1.396 . S
C494 C187 1.273 . S
C529 C30 1.426 . S
C544 C145 1.305 . S
C579 C61 1.386 . S
C594 C159 1.248 . S
C629 C82 1.341 . S
C644 C179 1.413 . S
C694 C193 1.455 . S
C679 C93 1.359 1_554 S
C744 C207 1.451 . S
C729 C124 1.377 . S
C794 C137 1.479 . S
C779 C9 1.387 . S
C829 C17 1.396 . S
C844 C144 1.451 . S
C879 C38 1.409 . S
C894 C158 1.463 . S
C944 C180 1.477 . S
C929 C54 1.384 . S
C979 C75 1.394 . S
C994 C194 1.488 . S
C1044 C208 1.450 . S
C1029 C101 1.361 . S
C1094 C138 1.432 . S
C1079 C117 1.340 . S
C1144 C200 1.440 . S
C1129 C33 1.382 . S
C1179 C59 1.392 . S
C1194 C130 1.445 . S
C1244 C152 1.472 . S
C1229 C80 1.384 . S
C1279 C96 1.387 . S
C1294 C166 1.479 . S
C1329 C122 1.444 . S
C1344 C172 1.495 . S
C1379 C12 1.422 . S
C1394 C186 1.479 . S
