# Generated by pormake.
# Topology zzz, (3,6)-cn, num edge types: 1
# Building blocks:
#     Node 0, Type 0, BuildingBlock: INOVEN_clean_linker_0, # of connection points: 3
#     Node 1, Type 0, BuildingBlock: INOVEN_clean_linker_0, # of connection points: 3
#     Node 2, Type 0, BuildingBlock: INOVEN_clean_linker_0, # of connection points: 3
#     Node 3, Type 0, BuildingBlock: INOVEN_clean_linker_0, # of connection points: 3
#     Node 4, Type 0, BuildingBlock: INOVEN_clean_linker_0, # of connection points: 3
#     Node 5, Type 0, BuildingBlock: INOVEN_clean_linker_0, # of connection points: 3
#     Node 6, Type 0, BuildingBlock: INOVEN_clean_linker_0, # of connection points: 3
#     Node 7, Type 0, BuildingBlock: INOVEN_clean_linker_0, # of connection points: 3
#     Node 8, Type 1, BuildingBlock: JUFBIX_clean_sbu_0, # of connection points: 6
#     Node 9, Type 1, BuildingBlock: JUFBIX_clean_sbu_0, # of connection points: 6
#     Node 10, Type 1, BuildingBlock: JUFBIX_clean_sbu_0, # of connection points: 6
#     Node 11, Type 1, BuildingBlock: JUFBIX_clean_sbu_0, # of connection points: 6
#     Edge 12, Type (0, 1), BuildingBlock: EYOCIG_clean_linker_4, # of connection points: 2
#     Edge 13, Type (0, 1), BuildingBlock: EYOCIG_clean_linker_4, # of connection points: 2
#     Edge 14, Type (0, 1), BuildingBlock: EYOCIG_clean_linker_4, # of connection points: 2
#     Edge 15, Type (0, 1), BuildingBlock: EYOCIG_clean_linker_4, # of connection points: 2
#     Edge 16, Type (0, 1), BuildingBlock: EYOCIG_clean_linker_4, # of connection points: 2
#     Edge 17, Type (0, 1), BuildingBlock: EYOCIG_clean_linker_4, # of connection points: 2
#     Edge 18, Type (0, 1), BuildingBlock: EYOCIG_clean_linker_4, # of connection points: 2
#     Edge 19, Type (0, 1), BuildingBlock: EYOCIG_clean_linker_4, # of connection points: 2
#     Edge 20, Type (0, 1), BuildingBlock: EYOCIG_clean_linker_4, # of connection points: 2
#     Edge 21, Type (0, 1), BuildingBlock: EYOCIG_clean_linker_4, # of connection points: 2
#     Edge 22, Type (0, 1), BuildingBlock: EYOCIG_clean_linker_4, # of connection points: 2
#     Edge 23, Type (0, 1), BuildingBlock: EYOCIG_clean_linker_4, # of connection points: 2
#     Edge 24, Type (0, 1), BuildingBlock: EYOCIG_clean_linker_4, # of connection points: 2
#     Edge 25, Type (0, 1), BuildingBlock: EYOCIG_clean_linker_4, # of connection points: 2
#     Edge 26, Type (0, 1), BuildingBlock: EYOCIG_clean_linker_4, # of connection points: 2
#     Edge 27, Type (0, 1), BuildingBlock: EYOCIG_clean_linker_4, # of connection points: 2
#     Edge 28, Type (0, 1), BuildingBlock: EYOCIG_clean_linker_4, # of connection points: 2
#     Edge 29, Type (0, 1), BuildingBlock: EYOCIG_clean_linker_4, # of connection points: 2
#     Edge 30, Type (0, 1), BuildingBlock: EYOCIG_clean_linker_4, # of connection points: 2
#     Edge 31, Type (0, 1), BuildingBlock: EYOCIG_clean_linker_4, # of connection points: 2
#     Edge 32, Type (0, 1), BuildingBlock: EYOCIG_clean_linker_4, # of connection points: 2
#     Edge 33, Type (0, 1), BuildingBlock: EYOCIG_clean_linker_4, # of connection points: 2
#     Edge 34, Type (0, 1), BuildingBlock: EYOCIG_clean_linker_4, # of connection points: 2
#     Edge 35, Type (0, 1), BuildingBlock: EYOCIG_clean_linker_4, # of connection points: 2
# Relax obj value: 0.115
# Max RMSD: 0.174
# Mean RMSD: 0.084
data_MOF--net-zzz--node1-JUFBIX_clean_sbu_0--node2-INOVEN_clean_linker_0--edge1-EYOCIG_clean_linker_4
_symmetry_space_group_name_H-M    P1
_symmetry_Int_Tables_number       1
_symmetry_cell_setting            triclinic
loop_
_symmetry_equiv_pos_as_xyz
'x, y, z'
_cell_length_a     41.442967
_cell_length_b     40.955725
_cell_length_c     14.034457
_cell_angle_alpha  79.044199
_cell_angle_beta   89.885924
_cell_angle_gamma 91.469134
loop_
_atom_site_label
_atom_site_type_symbol
_atom_site_fract_x
_atom_site_fract_y
_atom_site_fract_z
_atom_type_partial_charge
H0 H 0.81855 0.54301 0.41355 0.0
H1 H 0.91111 0.50639 0.34902 0.0
H2 H 0.83188 0.50025 0.15766 0.0
N3 N 0.7879 0.52842 0.2573 0.0
N4 N 0.7772 0.52255 0.17898 0.0
C5 C 0.83375 0.53141 0.36733 0.0
C6 C 0.86641 0.52556 0.39126 0.0
C7 C 0.82086 0.52235 0.28264 0.0
C8 C 0.84105 0.50723 0.22344 0.0
C9 C 0.87331 0.50145 0.24794 0.0
C10 C 0.88587 0.5106 0.33129 0.0
H11 H 0.95347 0.75819 0.44481 0.0
H12 H 0.98347 0.85816 0.31194 0.0
H13 H 0.98533 0.78154 0.14497 0.0
N14 N 0.96532 0.73126 0.28536 0.0
N15 N 0.96659 0.72379 0.20321 0.0
C16 C 0.96152 0.77606 0.38161 0.0
C17 C 0.96683 0.80987 0.38774 0.0
C18 C 0.96759 0.76551 0.29288 0.0
C19 C 0.97928 0.789 0.21278 0.0
C20 C 0.98545 0.82176 0.22118 0.0
C21 C 0.97848 0.83236 0.30692 0.0
H22 H 0.77912 0.99716 0.3122 0.0
H23 H 0.68218 0.01659 0.21182 0.0
H24 H 0.75957 0.02624 0.00507 0.0
N25 N 0.80746 1.00926 0.13584 0.0
N26 N 0.81799 0.01508 0.05062 0.0
C27 C 0.76238 1.00435 0.25321 0.0
C28 C 0.72915 1.00625 0.27304 0.0
C29 C 0.77386 0.01161 0.1561 0.0
C30 C 0.75158 0.02083 0.08011 0.0
C31 C 0.71874 0.0226 0.10112 0.0
C32 C 0.70782 0.01537 0.1967 0.0
H33 H 0.5515 0.73381 0.34461 0.0
H34 H 0.53643 0.63872 0.26149 0.0
H35 H 0.52857 0.72793 0.04745 0.0
N36 N 0.54161 0.77122 0.1684 0.0
N37 N 0.53681 0.78632 0.08364 0.0
C38 C 0.54609 0.71929 0.28938 0.0
C39 C 0.54468 0.6842 0.314 0.0
C40 C 0.5403 0.73562 0.19279 0.0
C41 C 0.53309 0.71617 0.12194 0.0
C42 C 0.53172 0.68137 0.14746 0.0
C43 C 0.53754 0.66573 0.24265 0.0
H44 H 0.23503 0.47594 0.22765 0.0
H45 H 0.14244 0.51278 0.29092 0.0
H46 H 0.2214 0.51878 0.48326 0.0
N47 N 0.26551 0.49059 0.38417 0.0
N48 N 0.27605 0.49641 0.46271 0.0
C49 C 0.21978 0.48755 0.27369 0.0
C50 C 0.18716 0.49347 0.24934 0.0
C51 C 0.23256 0.4966 0.35853 0.0
C52 C 0.21231 0.51177 0.41743 0.0
C53 C 0.1801 0.51764 0.39248 0.0
C54 C 0.16765 0.50848 0.30902 0.0
H55 H 0.10226 0.26187 0.19788 0.0
H56 H 0.06973 0.1625 0.32853 0.0
H57 H 0.06824 0.23912 0.49561 0.0
N58 N 0.08993 0.28898 0.35667 0.0
N59 N 0.08885 0.29637 0.43892 0.0
C60 C 0.09352 0.24416 0.2605 0.0
C61 C 0.08764 0.21047 0.25393 0.0
C62 C 0.08713 0.25479 0.34888 0.0
C63 C 0.07453 0.23153 0.42816 0.0
C64 C 0.06785 0.19891 0.41931 0.0
C65 C 0.07511 0.1882 0.33393 0.0
H66 H 0.27335 0.02463 0.32883 0.0
H67 H 0.37026 1.00501 0.42923 0.0
H68 H 0.29285 0.99536 0.63594 0.0
N69 N 0.24499 0.01246 0.50514 0.0
N70 N 0.23444 1.00658 0.59034 0.0
C71 C 0.29008 0.01741 0.38783 0.0
C72 C 0.3233 0.01547 0.368 0.0
C73 C 0.27859 1.01012 0.48491 0.0
C74 C 0.30086 1.00082 0.56091 0.0
C75 C 0.33369 0.999 0.53992 0.0
C76 C 0.34463 1.00628 0.44435 0.0
H77 H 0.50078 0.28695 0.29738 0.0
H78 H 0.516 0.38202 0.38048 0.0
H79 H 0.52372 0.29281 0.59455 0.0
N80 N 0.51064 0.24953 0.47357 0.0
N81 N 0.51544 0.23443 0.55831 0.0
C82 C 0.5062 0.30146 0.35262 0.0
C83 C 0.50767 0.33655 0.328 0.0
C84 C 0.51196 0.28513 0.44921 0.0
C85 C 0.51921 0.30457 0.52006 0.0
C86 C 0.52064 0.33937 0.49453 0.0
C87 C 0.51483 0.35502 0.39935 0.0
Co88 Co 0.03581 0.02308 0.87908 0.0
C89 C 0.96876 0.01134 0.88674 0.0
Co90 Co 0.01655 0.99825 0.76147 0.0
C91 C 0.06391 0.07734 0.9615 0.0
C92 C 0.04575 0.03739 0.07114 0.0
N93 N 0.05037 0.04631 0.97426 0.0
N94 N 0.06747 0.08799 0.04609 0.0
C95 C 0.05625 0.06302 0.11542 0.0
H96 H 0.0697 0.09247 0.89131 0.0
H97 H 0.0341 0.01437 0.10694 0.0
C98 C 0.08359 1.01001 0.75382 0.0
N99 N 1.00205 0.97495 0.66628 0.0
C100 C 0.98908 0.94367 0.67911 0.0
C101 C 1.00645 0.98399 0.56935 0.0
N102 N 0.98568 0.93298 0.59454 0.0
C103 C 0.9964 0.95818 0.52511 0.0
C104 C 0.01839 0.06555 0.71009 0.0
O105 O 0.07884 0.02236 0.82923 0.0
O106 O 0.05988 0.99792 0.71328 0.0
O107 O 0.0104 0.03953 0.67826 0.0
O108 O 0.02949 0.06353 0.7948 0.0
O109 O 0.97352 0.99894 0.81141 0.0
H110 H 0.01772 1.0072 0.53344 0.0
H111 H 0.98363 0.92838 0.74933 0.0
O112 O 0.99248 0.02347 0.9272 0.0
O113 O 0.04191 0.98181 0.96237 0.0
O114 O 0.02291 0.95785 0.8457 0.0
C115 C 0.03393 0.9558 0.93047 0.0
H116 H 0.05451 0.06381 0.19195 0.0
H117 H 0.99815 0.95744 0.44855 0.0
Co118 Co 0.51342 0.01532 0.88671 0.0
C119 C 0.53251 0.94917 0.90111 0.0
Co120 Co 0.53897 1.00546 0.75493 0.0
C121 C 0.45727 0.02802 0.9983 0.0
C122 C 0.49853 0.01585 0.08844 0.0
N123 N 0.48918 0.02161 0.99471 0.0
N124 N 0.44656 0.02604 0.08999 0.0
C125 C 0.47234 0.01858 0.14711 0.0
H126 H 0.44177 0.03255 0.93545 0.0
H127 H 0.52245 1.0085 0.11305 0.0
C128 C 0.51987 0.07159 0.74054 0.0
N129 N 0.56322 0.9992 0.64687 0.0
C130 C 0.59517 0.99299 0.64312 0.0
C131 C 0.55382 1.00485 0.55319 0.0
N132 N 0.60585 0.99501 0.55139 0.0
C133 C 0.58001 1.00227 0.4944 0.0
C134 C 0.47386 0.99524 0.74636 0.0
O135 O 0.5087 0.06117 0.8259 0.0
O136 O 0.53389 0.05147 0.69618 0.0
O137 O 0.49957 0.994 0.69778 0.0
O138 O 0.47509 1.00384 0.82818 0.0
O139 O 0.54368 0.9596 0.81575 0.0
H140 H 0.52985 0.01204 0.52868 0.0
H141 H 0.61073 0.98861 0.70587 0.0
O142 O 0.5185 0.9693 0.94546 0.0
O143 O 0.55281 0.02679 0.94386 0.0
O144 O 0.57729 0.01695 0.81346 0.0
C145 C 0.57852 0.02557 0.89525 0.0
H146 H 0.47196 0.01402 0.22569 0.0
H147 H 0.58035 1.00681 0.41582 0.0
Co148 Co 0.55228 0.50859 0.84326 0.0
C149 C 0.5096 0.46251 0.95814 0.0
Co150 Co 0.50055 0.5121 0.79866 0.0
C151 C 0.61399 0.52285 0.93227 0.0
C152 C 0.61207 0.47524 0.89036 0.0
N153 N 0.59498 0.50314 0.88694 0.0
N154 N 0.64179 0.50808 0.96338 0.0
C155 C 0.64082 0.47831 0.93684 0.0
H156 H 0.60718 0.54696 0.9454 0.0
H157 H 0.60369 0.45327 0.86467 0.0
C158 C 0.54321 0.55819 0.68377 0.0
N159 N 0.45787 0.51748 0.75501 0.0
C160 C 0.43889 0.49757 0.71028 0.0
C161 C 0.44078 0.54541 0.75081 0.0
N162 N 0.4111 0.51225 0.67873 0.0
C163 C 0.41204 0.54216 0.70438 0.0
C164 C 0.51874 0.55413 0.92369 0.0
O165 O 0.56518 0.54405 0.73901 0.0
O166 O 0.51416 0.54733 0.69536 0.0
O167 O 0.49501 0.54426 0.87868 0.0
O168 O 0.54592 0.54075 0.92179 0.0
O169 O 0.48764 0.47667 0.90291 0.0
H170 H 0.44916 0.5675 0.77591 0.0
H171 H 0.44572 0.47339 0.69788 0.0
O172 O 0.53866 0.47334 0.94654 0.0
O173 O 0.55781 0.47644 0.76316 0.0
O174 O 0.5069 0.47994 0.7202 0.0
C175 C 0.53408 0.46657 0.71821 0.0
H176 H 0.65911 0.45968 0.95297 0.0
H177 H 0.39374 0.56076 0.68767 0.0
Co178 Co 0.02649 0.53443 0.84329 0.0
C179 C 0.07492 0.4917 0.9284 0.0
Co180 Co 0.02723 0.48541 0.79687 0.0
C181 C 1.00367 0.58425 0.94822 0.0
C182 C 0.05113 0.59602 0.88889 0.0
N183 N 0.02634 0.57373 0.89218 0.0
N184 N 0.01363 0.61176 0.98024 0.0
C185 C 0.04329 0.61951 0.94285 0.0
H186 H 0.98076 0.57143 0.96798 0.0
H187 H 0.07401 0.59458 0.85291 0.0
C188 C 0.97878 0.52811 0.71173 0.0
N189 N 0.02748 0.44615 0.748 0.0
C190 C 0.05048 0.43557 0.69322 0.0
C191 C 1.00266 0.42398 0.74988 0.0
N192 N 0.04069 0.40814 0.6605 0.0
C193 C 0.0108 0.4005 0.69621 0.0
C194 C 0.98744 0.48431 0.95239 0.0
O195 O 0.99062 0.54841 0.76143 0.0
O196 O 0.99143 0.49993 0.7155 0.0
O197 O 0.99795 0.46579 0.89712 0.0
O198 O 0.99737 0.5143 0.94212 0.0
O199 O 0.06305 0.47142 0.87876 0.0
H200 H 0.97958 0.42551 0.78469 0.0
H201 H 0.07352 0.44828 0.67482 0.0
O202 O 0.06232 0.5199 0.92461 0.0
O203 O 0.05573 0.55405 0.7429 0.0
O204 O 0.05635 0.50552 0.69811 0.0
C205 C 0.06625 0.53551 0.68769 0.0
H206 H 0.05853 0.64003 0.95613 0.0
H207 H 0.99564 0.38006 0.68198 0.0
C208 C 0.17412 1.0097 0.63893 0.0
C209 C 0.20181 1.00869 0.61184 0.0
C210 C 0.14244 1.0101 0.67795 0.0
C211 C 0.11569 1.01016 0.71302 0.0
C212 C 0.5145 0.16988 0.61319 0.0
C213 C 0.51447 0.19974 0.58324 0.0
C214 C 0.51562 0.13537 0.65577 0.0
C215 C 0.51749 0.10633 0.69478 0.0
C216 C 0.33482 0.49092 0.52481 0.0
C217 C 0.30807 0.492 0.49031 0.0
C218 C 0.36392 0.49401 0.57578 0.0
C219 C 0.38664 0.50065 0.62329 0.0
C220 C 0.08075 0.35325 0.48636 0.0
C221 C 0.08656 0.32864 0.45457 0.0
C222 C 0.0695 0.37615 0.54188 0.0
C223 C 0.0572 0.39179 0.59651 0.0
C224 C 0.87828 0.01185 1.00185 0.0
C225 C 0.85061 0.01292 0.02905 0.0
C226 C 0.90994 0.01137 0.9627 0.0
C227 C 0.93667 0.01124 0.92754 0.0
C228 C 0.53778 0.85088 0.02863 0.0
C229 C 0.53778 0.82101 0.05867 0.0
C230 C 0.5367 0.88539 0.98594 0.0
C231 C 0.53487 0.91442 0.94688 0.0
C232 C 0.71838 0.52849 0.11737 0.0
C233 C 0.74518 0.52715 0.15163 0.0
C234 C 0.68917 0.52578 0.06657 0.0
C235 C 0.66634 0.51944 0.01902 0.0
C236 C 0.97478 0.66688 0.15588 0.0
C237 C 0.96907 0.69151 0.18773 0.0
C238 C 0.98564 0.64388 0.10006 0.0
C239 C 0.99754 0.62816 0.04496 0.0
C240 C 0.03734 0.15444 0.54847 0.0
C241 C 0.05111 0.17657 0.4946 0.0
C242 C 0.02498 0.12456 0.60239 0.0
C243 C 0.02089 0.09677 0.64634 0.0
C244 C 0.3828 0.98626 0.65563 0.0
C245 C 0.35755 0.99114 0.61403 0.0
C246 C 0.41511 0.98558 0.68624 0.0
C247 C 0.44279 0.98942 0.70806 0.0
C248 C 0.53283 0.38274 0.60634 0.0
C249 C 0.52774 0.36023 0.56385 0.0
C250 C 0.53617 0.41191 0.64542 0.0
C251 C 0.53635 0.43677 0.67945 0.0
C252 C 0.13928 0.54206 0.50319 0.0
C253 C 0.15889 0.53108 0.45533 0.0
C254 C 0.11408 0.5483 0.56395 0.0
C255 C 0.09237 0.54632 0.62179 0.0
C256 C 0.01495 0.86673 0.09115 0.0
C257 C 1.00163 0.84434 0.14526 0.0
C258 C 0.02714 0.89674 0.03766 0.0
C259 C 0.03134 0.92457 0.99409 0.0
C260 C 0.66958 0.03502 0.98548 0.0
C261 C 0.69486 0.0303 0.027 0.0
C262 C 0.63726 0.03551 0.95504 0.0
C263 C 0.60958 0.03154 0.93337 0.0
C264 C 0.51974 0.63796 0.03561 0.0
C265 C 0.52473 0.66049 0.07811 0.0
C266 C 0.51654 0.60878 0.99654 0.0
C267 C 0.51644 0.58392 0.9625 0.0
C268 C 0.9142 0.4774 0.13658 0.0
C269 C 0.89451 0.48819 0.18463 0.0
C270 C 0.9395 0.47138 0.07582 0.0
C271 C 0.96126 0.47349 0.0181 0.0
C272 C 0.09054 0.17641 0.11531 0.0
C273 C 0.09164 0.19709 0.16655 0.0
C274 C 0.08467 0.14692 0.07794 0.0
C275 C 0.07696 0.12011 0.05927 0.0
C276 C 0.35816 0.02632 0.20894 0.0
C277 C 0.33757 0.02276 0.27179 0.0
C278 C 0.38746 0.02788 0.15514 0.0
C279 C 0.41436 0.02728 0.12147 0.0
C280 C 0.50018 0.37739 0.1606 0.0
C281 C 0.50269 0.35524 0.23081 0.0
C282 C 0.50007 0.40672 0.08757 0.0
C283 C 0.50267 0.43218 0.02745 0.0
C284 C 0.15331 0.48085 0.10172 0.0
C285 C 0.17228 0.48472 0.16426 0.0
C286 C 0.12708 0.48059 0.03708 0.0
C287 C 0.10343 0.48379 0.98607 0.0
C288 C 0.96418 0.84402 0.52624 0.0
C289 C 0.96314 0.82325 0.47527 0.0
C290 C 0.96965 0.87368 0.56311 0.0
C291 C 0.97684 0.90067 0.58147 0.0
C292 C 0.69428 0.99527 0.4321 0.0
C293 C 0.71487 0.9989 0.36926 0.0
C294 C 0.66497 0.99356 0.48596 0.0
C295 C 0.63807 0.99399 0.51974 0.0
C296 C 0.55235 0.64336 0.48133 0.0
C297 C 0.54975 0.66551 0.41115 0.0
C298 C 0.5526 0.61402 0.55434 0.0
C299 C 0.5501 0.58854 0.61447 0.0
C300 C 0.9004 0.53845 0.53843 0.0
C301 C 0.88141 0.53441 0.47606 0.0
C302 C 0.92662 0.53896 0.603 0.0
C303 C 0.95026 0.53594 0.65406 0.0
loop_
_geom_bond_atom_site_label_1
_geom_bond_atom_site_label_2
_geom_bond_distance
_geom_bond_site_symmetry_2
_ccdc_geom_bond_type
H0 C5 0.929 . S
H1 C10 0.931 . S
H2 C8 0.930 . S
N3 N4 1.234 . S
N3 C7 1.453 . S
N4 N3 1.234 . S
C5 H0 0.929 . S
C5 C6 1.373 . S
C5 C7 1.368 . S
C6 C5 1.373 . S
C6 C10 1.397 . S
C7 N3 1.453 . S
C7 C5 1.368 . S
C7 C8 1.373 . S
C8 H2 0.930 . S
C8 C7 1.373 . S
C8 C9 1.371 . S
C9 C8 1.371 . S
C9 C10 1.383 . S
C10 H1 0.931 . S
C10 C6 1.397 . S
C10 C9 1.383 . S
H11 C16 0.929 . S
H12 C21 0.931 . S
H13 C19 0.930 1_556 S
N14 N15 1.234 . S
N14 C18 1.453 . S
N15 N14 1.234 . S
C16 H11 0.929 . S
C16 C17 1.373 . S
C16 C18 1.368 . S
C17 C16 1.373 . S
C17 C21 1.397 . S
C18 N14 1.453 . S
C18 C16 1.368 . S
C18 C19 1.373 . S
C19 H13 0.930 1_554 S
C19 C18 1.373 . S
C19 C20 1.371 . S
C20 C19 1.371 . S
C20 C21 1.383 . S
C21 H12 0.931 . S
C21 C17 1.397 . S
C21 C20 1.383 . S
H22 C27 0.929 . S
H23 C32 0.931 . S
H24 C30 0.930 . S
N25 N26 1.219 1_544 S
N25 C29 1.453 . S
N26 N25 1.219 1_566 S
C27 H22 0.929 . S
C27 C28 1.373 . S
C27 C29 1.368 . S
C28 C27 1.373 . S
C28 C32 1.397 1_545 S
C29 N25 1.453 . S
C29 C27 1.368 . S
C29 C30 1.373 1_554 S
C30 H24 0.930 . S
C30 C29 1.373 1_556 S
C30 C31 1.373 1_556 S
C31 C30 1.373 1_554 S
C31 C32 1.386 1_545 S
C32 H23 0.931 . S
C32 C28 1.397 1_565 S
C32 C31 1.386 1_565 S
H33 C38 0.929 . S
H34 C43 0.931 . S
H35 C41 0.930 . S
N36 N37 1.234 . S
N36 C40 1.453 . S
N37 N36 1.234 . S
C38 H33 0.929 . S
C38 C39 1.373 . S
C38 C40 1.368 . S
C39 C38 1.373 . S
C39 C43 1.397 . S
C40 N36 1.453 . S
C40 C38 1.368 . S
C40 C41 1.373 . S
C41 H35 0.930 . S
C41 C40 1.373 . S
C41 C42 1.371 . S
C42 C41 1.371 . S
C42 C43 1.383 . S
C43 H34 0.931 . S
C43 C39 1.397 . S
C43 C42 1.383 . S
H44 C49 0.929 . S
H45 C54 0.931 . S
H46 C52 0.930 . S
N47 N48 1.234 . S
N47 C51 1.453 . S
N48 N47 1.234 . S
C49 H44 0.929 . S
C49 C50 1.373 . S
C49 C51 1.368 . S
C50 C49 1.373 . S
C50 C54 1.397 . S
C51 N47 1.453 . S
C51 C49 1.368 . S
C51 C52 1.373 . S
C52 H46 0.930 . S
C52 C51 1.373 . S
C52 C53 1.371 . S
C53 C52 1.371 . S
C53 C54 1.383 . S
C54 H45 0.931 . S
C54 C50 1.397 . S
C54 C53 1.383 . S
H55 C60 0.929 . S
H56 C65 0.931 . S
H57 C63 0.930 . S
N58 N59 1.234 . S
N58 C62 1.453 . S
N59 N58 1.234 . S
C60 H55 0.929 . S
C60 C61 1.373 . S
C60 C62 1.368 . S
C61 C60 1.373 . S
C61 C65 1.397 . S
C62 N58 1.453 . S
C62 C60 1.368 . S
C62 C63 1.373 . S
C63 H57 0.930 . S
C63 C62 1.373 . S
C63 C64 1.371 . S
C64 C63 1.371 . S
C64 C65 1.383 . S
C65 H56 0.931 . S
C65 C61 1.397 . S
C65 C64 1.383 . S
H66 C71 0.929 . S
H67 C76 0.931 . S
H68 C74 0.930 . S
N69 N70 1.231 1_545 S
N69 C73 1.453 . S
N70 N69 1.231 1_565 S
C71 H66 0.929 . S
C71 C72 1.373 . S
C71 C73 1.368 . S
C72 C71 1.373 . S
C72 C76 1.397 1_545 S
C73 N69 1.453 . S
C73 C71 1.368 . S
C73 C74 1.373 . S
C74 H68 0.930 . S
C74 C73 1.373 . S
C74 C75 1.376 . S
C75 C74 1.376 . S
C75 C76 1.376 1_545 S
C76 H67 0.931 . S
C76 C72 1.397 1_565 S
C76 C75 1.376 1_565 S
H77 C82 0.929 . S
H78 C87 0.931 . S
H79 C85 0.930 . S
N80 N81 1.234 . S
N80 C84 1.453 . S
N81 N80 1.234 . S
C82 H77 0.929 . S
C82 C83 1.373 . S
C82 C84 1.368 . S
C83 C82 1.373 . S
C83 C87 1.397 . S
C84 N80 1.453 . S
C84 C82 1.368 . S
C84 C85 1.373 . S
C85 H79 0.930 . S
C85 C84 1.373 . S
C85 C86 1.371 . S
C86 C85 1.371 . S
C86 C87 1.383 . S
C87 H78 0.931 . S
C87 C83 1.397 . S
C87 C86 1.383 . S
Co88 N93 2.057 1_556 S
Co88 O105 2.021 . S
Co88 O108 2.062 . S
Co88 O112 2.117 1_455 S
Co88 O113 2.020 1_545 S
C89 O109 1.259 1_545 S
C89 O112 1.258 . S
Co90 N99 2.057 . S
Co90 O106 2.117 . S
Co90 O107 2.020 1_565 S
Co90 O109 2.021 1_455 S
Co90 O114 2.062 . S
C91 N93 1.316 . S
C91 N94 1.347 . S
C91 H96 0.931 . S
C92 N93 1.375 . S
C92 C95 1.350 . S
C92 H97 0.930 1_455 S
N93 Co88 2.057 1_554 S
N93 C91 1.316 . S
N93 C92 1.375 . S
N94 C91 1.347 . S
N94 C95 1.373 . S
C95 C92 1.350 . S
C95 N94 1.373 . S
C95 H116 0.931 . S
H96 C91 0.931 . S
H97 C92 0.930 1_655 S
C98 O105 1.259 1_565 S
C98 O106 1.258 . S
N99 Co90 2.057 . S
N99 C100 1.316 1_455 S
N99 C101 1.375 . S
C100 N99 1.316 1_655 S
C100 N102 1.347 . S
C100 H111 0.931 . S
C101 N99 1.375 . S
C101 C103 1.350 . S
C101 H110 0.930 . S
N102 C100 1.347 . S
N102 C103 1.373 1_655 S
C103 C101 1.350 . S
C103 N102 1.373 1_455 S
C103 H117 0.931 . S
C104 O107 1.256 . S
C104 O108 1.255 . S
O105 Co88 2.021 . S
O105 C98 1.259 1_545 S
O106 Co90 2.117 . S
O106 C98 1.258 . S
O107 Co90 2.020 1_545 S
O107 C104 1.256 . S
O108 Co88 2.062 . S
O108 C104 1.255 . S
O109 C89 1.259 1_565 S
O109 Co90 2.021 1_655 S
H110 C101 0.930 . S
H111 C100 0.931 . S
O112 Co88 2.117 1_655 S
O112 C89 1.258 . S
O113 Co88 2.020 1_565 S
O113 C115 1.256 . S
O114 Co90 2.062 . S
O114 C115 1.255 . S
C115 O113 1.256 . S
C115 O114 1.255 . S
H116 C95 0.931 . S
H117 C103 0.931 . S
Co118 N123 2.057 1_546 S
Co118 O135 2.021 . S
Co118 O138 2.062 . S
Co118 O142 2.117 1_545 S
Co118 O143 2.020 . S
C119 O139 1.259 . S
C119 O142 1.258 . S
Co120 N129 2.057 1_565 S
Co120 O136 2.117 1_565 S
Co120 O137 2.020 . S
Co120 O139 2.021 . S
Co120 O144 2.068 . S
C121 N123 1.316 1_545 S
C121 N124 1.347 . S
C121 H126 0.931 . S
C122 N123 1.375 . S
C122 C125 1.350 . S
C122 H127 0.930 . S
N123 Co118 2.057 1_564 S
N123 C121 1.316 1_565 S
N123 C122 1.375 . S
N124 C121 1.347 . S
N124 C125 1.373 1_545 S
C125 C122 1.350 . S
C125 N124 1.373 1_565 S
C125 H146 0.931 . S
H126 C121 0.931 . S
H127 C122 0.930 . S
C128 O135 1.259 . S
C128 O136 1.258 . S
N129 Co120 2.057 1_545 S
N129 C130 1.316 1_545 S
N129 C131 1.375 . S
C130 N129 1.316 1_565 S
C130 N132 1.347 . S
C130 H141 0.931 . S
C131 N129 1.375 . S
C131 C133 1.350 . S
C131 H140 0.930 . S
N132 C130 1.347 . S
N132 C133 1.373 1_565 S
C133 C131 1.350 . S
C133 N132 1.373 1_545 S
C133 H147 0.931 . S
C134 O137 1.256 . S
C134 O138 1.255 1_565 S
O135 Co118 2.021 . S
O135 C128 1.259 . S
O136 Co120 2.117 1_545 S
O136 C128 1.258 . S
O137 Co120 2.020 . S
O137 C134 1.256 . S
O138 Co118 2.062 . S
O138 C134 1.255 1_545 S
O139 C119 1.259 . S
O139 Co120 2.021 . S
H140 C131 0.930 . S
H141 C130 0.931 . S
O142 Co118 2.117 1_565 S
O142 C119 1.258 . S
O143 Co118 2.020 . S
O143 C145 1.256 . S
O144 Co120 2.068 . S
O144 C145 1.243 1_565 S
C145 O143 1.256 . S
C145 O144 1.243 1_545 S
H146 C125 0.931 . S
H147 C133 0.931 . S
Co148 N153 2.057 . S
Co148 O165 2.021 . S
Co148 O168 2.062 . S
Co148 O172 2.117 . S
Co148 O173 2.020 . S
C149 O169 1.259 . S
C149 O172 1.258 . S
Co150 N159 2.057 . S
Co150 O166 2.117 . S
Co150 O167 2.020 . S
Co150 O169 2.021 . S
Co150 O174 2.062 . S
C151 N153 1.316 . S
C151 N154 1.347 . S
C151 H156 0.931 . S
C152 N153 1.375 . S
C152 C155 1.350 . S
C152 H157 0.930 1_556 S
N153 Co148 2.057 . S
N153 C151 1.316 . S
N153 C152 1.375 . S
N154 C151 1.347 . S
N154 C155 1.373 . S
C155 C152 1.350 . S
C155 N154 1.373 . S
C155 H176 0.931 1_556 S
H156 C151 0.931 . S
H157 C152 0.930 1_554 S
C158 O165 1.259 . S
C158 O166 1.258 . S
N159 Co150 2.057 . S
N159 C160 1.316 . S
N159 C161 1.375 . S
C160 N159 1.316 . S
C160 N162 1.347 . S
C160 H171 0.931 . S
C161 N159 1.375 . S
C161 C163 1.350 . S
C161 H170 0.930 . S
N162 C160 1.347 . S
N162 C163 1.373 . S
C163 C161 1.350 . S
C163 N162 1.373 . S
C163 H177 0.931 . S
C164 O167 1.256 . S
C164 O168 1.255 . S
O165 Co148 2.021 . S
O165 C158 1.259 . S
O166 Co150 2.117 . S
O166 C158 1.258 . S
O167 Co150 2.020 . S
O167 C164 1.256 . S
O168 Co148 2.062 . S
O168 C164 1.255 . S
O169 C149 1.259 . S
O169 Co150 2.021 . S
H170 C161 0.930 . S
H171 C160 0.931 . S
O172 Co148 2.117 . S
O172 C149 1.258 . S
O173 Co148 2.020 . S
O173 C175 1.256 . S
O174 Co150 2.062 . S
O174 C175 1.255 . S
C175 O173 1.256 . S
C175 O174 1.255 . S
H176 C155 0.931 1_554 S
H177 C163 0.931 . S
Co178 N183 2.057 . S
Co178 O195 2.021 1_455 S
Co178 O198 2.062 1_455 S
Co178 O202 2.117 . S
Co178 O203 2.020 . S
C179 O199 1.259 . S
C179 O202 1.258 . S
Co180 N189 2.057 . S
Co180 O196 2.117 1_455 S
Co180 O197 2.020 1_455 S
Co180 O199 2.021 . S
Co180 O204 2.062 . S
C181 N183 1.316 . S
C181 N184 1.347 . S
C181 H186 0.931 1_455 S
C182 N183 1.375 . S
C182 C185 1.350 . S
C182 H187 0.930 . S
N183 Co178 2.057 . S
N183 C181 1.316 . S
N183 C182 1.375 . S
N184 C181 1.347 . S
N184 C185 1.373 . S
C185 C182 1.350 . S
C185 N184 1.373 . S
C185 H206 0.931 . S
H186 C181 0.931 1_655 S
H187 C182 0.930 . S
C188 O195 1.259 . S
C188 O196 1.258 . S
N189 Co180 2.057 . S
N189 C190 1.316 . S
N189 C191 1.375 1_455 S
C190 N189 1.316 . S
C190 N192 1.347 . S
C190 H201 0.931 . S
C191 N189 1.375 1_655 S
C191 C193 1.350 1_655 S
C191 H200 0.930 . S
N192 C190 1.347 . S
N192 C193 1.373 . S
C193 C191 1.350 1_455 S
C193 N192 1.373 . S
C193 H207 0.931 1_455 S
C194 O197 1.256 . S
C194 O198 1.255 . S
O195 Co178 2.021 1_655 S
O195 C188 1.259 . S
O196 Co180 2.117 1_655 S
O196 C188 1.258 . S
O197 Co180 2.020 1_655 S
O197 C194 1.256 . S
O198 Co178 2.062 1_655 S
O198 C194 1.255 . S
O199 C179 1.259 . S
O199 Co180 2.021 . S
H200 C191 0.930 . S
H201 C190 0.931 . S
O202 Co178 2.117 . S
O202 C179 1.258 . S
O203 Co178 2.020 . S
O203 C205 1.256 . S
O204 Co180 2.062 . S
O204 C205 1.255 . S
C205 O203 1.256 . S
C205 O204 1.255 . S
H206 C185 0.931 . S
H207 C193 0.931 1_655 S
C208 C209 1.170 . S
C208 C210 1.380 . S
C209 C208 1.170 . S
C210 C208 1.380 . S
C210 C211 1.170 . S
C211 C210 1.170 . S
C212 C213 1.170 . S
C212 C214 1.380 . S
C213 C212 1.170 . S
C214 C212 1.380 . S
C214 C215 1.170 . S
C215 C214 1.170 . S
C216 C217 1.170 . S
C216 C218 1.380 . S
C217 C216 1.170 . S
C218 C216 1.380 . S
C218 C219 1.170 . S
C219 C218 1.170 . S
C220 C221 1.170 . S
C220 C222 1.380 . S
C221 C220 1.170 . S
C222 C220 1.380 . S
C222 C223 1.170 . S
C223 C222 1.170 . S
C224 C225 1.172 1_545 S
C224 C226 1.380 . S
C225 C224 1.172 1_565 S
C226 C224 1.380 . S
C226 C227 1.170 . S
C227 C226 1.170 . S
C228 C229 1.170 1_556 S
C228 C230 1.380 . S
C229 C228 1.170 1_554 S
C230 C228 1.380 . S
C230 C231 1.170 . S
C231 C230 1.170 . S
C232 C233 1.170 . S
C232 C234 1.380 1_554 S
C233 C232 1.170 . S
C234 C232 1.380 1_556 S
C234 C235 1.170 . S
C235 C234 1.170 . S
C236 C237 1.170 1_556 S
C236 C238 1.380 . S
C237 C236 1.170 1_554 S
C238 C236 1.380 . S
C238 C239 1.170 . S
C239 C238 1.170 . S
C240 C241 1.170 . S
C240 C242 1.380 . S
C241 C240 1.170 . S
C242 C240 1.380 . S
C242 C243 1.170 . S
C243 C242 1.170 . S
C244 C245 1.169 1_565 S
C244 C246 1.382 . S
C245 C244 1.169 1_545 S
C246 C244 1.382 . S
C246 C247 1.170 . S
C247 C246 1.170 . S
C248 C249 1.170 . S
C248 C250 1.380 . S
C249 C248 1.170 . S
C250 C248 1.380 . S
C250 C251 1.170 . S
C251 C250 1.170 . S
C252 C253 1.170 . S
C252 C254 1.380 . S
C253 C252 1.170 . S
C254 C252 1.380 . S
C254 C255 1.170 . S
C255 C254 1.170 . S
C256 C257 1.170 1_556 S
C256 C258 1.380 . S
C257 C256 1.170 1_554 S
C258 C256 1.380 . S
C258 C259 1.170 1_655 S
C259 C258 1.170 1_455 S
C260 C261 1.170 . S
C260 C262 1.380 . S
C261 C260 1.170 . S
C262 C260 1.380 . S
C262 C263 1.170 . S
C263 C262 1.170 . S
C264 C265 1.170 . S
C264 C266 1.380 1_554 S
C265 C264 1.170 . S
C266 C264 1.380 1_556 S
C266 C267 1.170 . S
C267 C266 1.170 . S
C268 C269 1.170 . S
C268 C270 1.380 . S
C269 C268 1.170 . S
C270 C268 1.380 . S
C270 C271 1.170 1_554 S
C271 C270 1.170 1_556 S
C272 C273 1.170 . S
C272 C274 1.380 . S
C273 C272 1.170 . S
C274 C272 1.380 . S
C274 C275 1.170 . S
C275 C274 1.170 . S
C276 C277 1.170 . S
C276 C278 1.380 . S
C277 C276 1.170 . S
C278 C276 1.380 . S
C278 C279 1.170 . S
C279 C278 1.170 . S
C280 C281 1.170 . S
C280 C282 1.380 . S
C281 C280 1.170 . S
C282 C280 1.380 . S
C282 C283 1.170 . S
C283 C282 1.170 . S
C284 C285 1.170 . S
C284 C286 1.380 . S
C285 C284 1.170 . S
C286 C284 1.380 . S
C286 C287 1.170 . S
C287 C286 1.170 . S
C288 C289 1.170 . S
C288 C290 1.380 . S
C289 C288 1.170 . S
C290 C288 1.380 . S
C290 C291 1.170 . S
C291 C290 1.170 . S
C292 C293 1.170 . S
C292 C294 1.380 . S
C293 C292 1.170 . S
C294 C292 1.380 . S
C294 C295 1.170 . S
C295 C294 1.170 . S
C296 C297 1.170 . S
C296 C298 1.380 . S
C297 C296 1.170 . S
C298 C296 1.380 . S
C298 C299 1.170 . S
C299 C298 1.170 . S
C300 C301 1.170 . S
C300 C302 1.380 . S
C301 C300 1.170 . S
C302 C300 1.380 . S
C302 C303 1.170 . S
C303 C302 1.170 . S
C209 N70 1.697 . S
C211 C98 1.699 . S
C215 C128 1.799 . S
C213 N81 1.753 . S
C219 N162 1.369 . S
C217 N48 1.356 . S
C223 N192 1.478 . S
C221 N59 1.428 . S
C227 C89 1.696 . S
C225 N26 1.693 . S
C229 N37 1.774 . S
C231 C119 1.803 . S
C233 N4 1.390 . S
C235 N154 1.357 . S
C237 N15 1.426 . S
C239 N184 1.479 1_655 S
C243 C104 0.698 . S
C241 C64 0.621 . S
C247 C134 1.037 . S
C245 C75 0.950 . S
C251 C175 1.286 . S
C249 C86 1.275 . S
C253 C53 0.792 . S
C255 C205 0.780 . S
C257 C20 0.754 . S
C259 C115 0.633 . S
C263 C145 1.042 . S
C261 C31 0.953 1_556 S
C267 C164 1.281 . S
C265 C42 1.270 . S
C269 C9 0.782 . S
C271 C194 0.816 . S
C273 C61 1.480 . S
C275 N94 1.459 . S
C277 C72 1.443 . S
C279 N124 1.424 . S
C283 C149 1.661 1_554 S
C281 C83 1.632 . S
C287 C179 1.589 1_554 S
C285 C50 1.573 . S
C289 C17 1.474 . S
C291 N102 1.488 . S
C295 N132 1.438 . S
C293 C28 1.424 1_565 S
C299 C158 1.660 . S
C297 C39 1.626 . S
C301 C6 1.550 . S
C303 C188 1.590 . S
