# Generated by pormake.
# Topology anh, (6,3)-cn, num edge types: 1
# Building blocks:
#     Node 0, Type 0, BuildingBlock: BETDAH_clean_sbu_0, # of connection points: 6
#     Node 1, Type 0, BuildingBlock: BETDAH_clean_sbu_0, # of connection points: 6
#     Node 2, Type 0, BuildingBlock: BETDAH_clean_sbu_0, # of connection points: 6
#     Node 3, Type 1, BuildingBlock: VETTIZ_charged_linker_0, # of connection points: 3
#     Node 4, Type 1, BuildingBlock: VETTIZ_charged_linker_0, # of connection points: 3
#     Node 5, Type 1, BuildingBlock: VETTIZ_charged_linker_0, # of connection points: 3
#     Node 6, Type 1, BuildingBlock: VETTIZ_charged_linker_0, # of connection points: 3
#     Node 7, Type 1, BuildingBlock: VETTIZ_charged_linker_0, # of connection points: 3
#     Node 8, Type 1, BuildingBlock: VETTIZ_charged_linker_0, # of connection points: 3
#     Edge 9, Type (0, 1), BuildingBlock: XUDNAN_clean_linker_2, # of connection points: 2
#     Edge 10, Type (0, 1), BuildingBlock: XUDNAN_clean_linker_2, # of connection points: 2
#     Edge 11, Type (0, 1), BuildingBlock: XUDNAN_clean_linker_2, # of connection points: 2
#     Edge 12, Type (0, 1), BuildingBlock: XUDNAN_clean_linker_2, # of connection points: 2
#     Edge 13, Type (0, 1), BuildingBlock: XUDNAN_clean_linker_2, # of connection points: 2
#     Edge 14, Type (0, 1), BuildingBlock: XUDNAN_clean_linker_2, # of connection points: 2
#     Edge 15, Type (0, 1), BuildingBlock: XUDNAN_clean_linker_2, # of connection points: 2
#     Edge 16, Type (0, 1), BuildingBlock: XUDNAN_clean_linker_2, # of connection points: 2
#     Edge 17, Type (0, 1), BuildingBlock: XUDNAN_clean_linker_2, # of connection points: 2
#     Edge 18, Type (0, 1), BuildingBlock: XUDNAN_clean_linker_2, # of connection points: 2
#     Edge 19, Type (0, 1), BuildingBlock: XUDNAN_clean_linker_2, # of connection points: 2
#     Edge 20, Type (0, 1), BuildingBlock: XUDNAN_clean_linker_2, # of connection points: 2
#     Edge 21, Type (0, 1), BuildingBlock: XUDNAN_clean_linker_2, # of connection points: 2
#     Edge 22, Type (0, 1), BuildingBlock: XUDNAN_clean_linker_2, # of connection points: 2
#     Edge 23, Type (0, 1), BuildingBlock: XUDNAN_clean_linker_2, # of connection points: 2
#     Edge 24, Type (0, 1), BuildingBlock: XUDNAN_clean_linker_2, # of connection points: 2
#     Edge 25, Type (0, 1), BuildingBlock: XUDNAN_clean_linker_2, # of connection points: 2
#     Edge 26, Type (0, 1), BuildingBlock: XUDNAN_clean_linker_2, # of connection points: 2
# Relax obj value: 0.185
# Max RMSD: 0.212
# Mean RMSD: 0.159
data_MOF--net-anh--node1-BETDAH_clean_sbu_0--node2-VETTIZ_charged_linker_0--edge1-XUDNAN_clean_linker_2
_symmetry_space_group_name_H-M    P1
_symmetry_Int_Tables_number       1
_symmetry_cell_setting            triclinic
loop_
_symmetry_equiv_pos_as_xyz
'x, y, z'
_cell_length_a     37.413464
_cell_length_b     43.244085
_cell_length_c     66.676251
_cell_angle_alpha  92.444735
_cell_angle_beta   89.611427
_cell_angle_gamma 128.72234
loop_
_atom_site_label
_atom_site_type_symbol
_atom_site_fract_x
_atom_site_fract_y
_atom_site_fract_z
_atom_type_partial_charge
Ho0 Ho 0.13031 0.51725 0.14235 0.0
Ho1 Ho 0.08284 0.54795 0.16118 0.0
C2 C 0.18626 0.61219 0.1486 0.0
C3 C 0.17071 0.49491 0.1227 0.0
C4 C 0.16605 0.45867 0.12394 0.0
C5 C 0.16838 0.44061 0.10659 0.0
C6 C 0.1637 0.40602 0.10783 0.0
C7 C 0.15675 0.38914 0.12646 0.0
C8 C 0.1532 0.40675 0.1437 0.0
C9 C 0.15758 0.44107 0.14244 0.0
C10 C 0.12605 0.5162 0.18266 0.0
C11 C 1.02387 0.45145 0.15272 0.0
C12 C 1.04304 0.56488 0.18584 0.0
C13 C 0.99678 0.55076 0.18999 0.0
C14 C 0.99024 0.5694 0.20556 0.0
C15 C 0.94706 0.55916 0.20835 0.0
C16 C 0.90992 0.53011 0.19557 0.0
C17 C 0.91632 0.51007 0.18062 0.0
C18 C 0.95949 0.52034 0.17786 0.0
C19 C 0.08021 0.54268 0.12038 0.0
O20 O 0.17924 0.58329 0.13676 0.0
O21 O 0.15601 0.60424 0.16222 0.0
O22 O 0.13467 0.48963 0.1156 0.0
O23 O 0.18917 0.51944 0.13853 0.0
O24 O 0.12253 0.48943 0.17126 0.0
O25 O 0.13442 0.54366 0.17225 0.0
O26 O 1.02585 0.48058 0.16177 0.0
O27 O 0.05906 0.45895 0.14269 0.0
O28 O 0.05939 0.58153 0.16868 0.0
O29 O 1.05153 0.54066 0.18978 0.0
O30 O 0.08108 0.56928 0.13071 0.0
O31 O 0.07656 0.51907 0.13214 0.0
H32 H 0.17433 0.4535 0.09216 0.0
H33 H 0.16715 0.3933 0.09434 0.0
H34 H 0.14763 0.39423 0.15822 0.0
H35 H 0.1549 0.45406 0.15602 0.0
H36 H 1.01884 0.59276 0.21513 0.0
H37 H 0.94303 0.57481 0.22008 0.0
H38 H 0.88861 0.48798 0.17033 0.0
H39 H 0.96415 0.50565 0.16579 0.0
Ho40 Ho 0.61035 0.03513 0.47895 0.0
Ho41 Ho 0.54578 0.05421 0.47438 0.0
C42 C 0.49864 0.96296 0.47511 0.0
C43 C 0.64866 1.00526 0.49046 0.0
C44 C 0.6345 0.96549 0.49459 0.0
C45 C 0.63316 0.95526 0.51448 0.0
C46 C 0.62189 0.9186 0.51855 0.0
C47 C 0.6119 0.89127 0.50283 0.0
C48 C 0.61309 0.90151 0.48294 0.0
C49 C 0.62427 0.93811 0.47887 0.0
C50 C 0.59391 0.04284 0.4408 0.0
C51 C 0.65821 0.12685 0.47735 0.0
C52 C 0.50699 0.08428 0.46435 0.0
C53 C 0.51907 0.12404 0.46666 0.0
C54 C 0.56335 0.15868 0.46276 0.0
C55 C 0.57432 0.19605 0.46563 0.0
C56 C 0.54139 0.19961 0.4726 0.0
C57 C 0.49716 0.16488 0.4765 0.0
C58 C 0.48613 0.12752 0.4735 0.0
C59 C 0.55902 0.0435 0.51209 0.0
O60 O 0.53906 0.97562 0.48232 0.0
O61 O 0.49385 0.98817 0.46772 0.0
O62 O 0.64656 0.01222 0.47178 0.0
O63 O 0.63512 0.02007 0.50294 0.0
O64 O 0.63349 0.05494 0.44746 0.0
O65 O 0.56496 0.02566 0.45437 0.0
O66 O 0.61641 0.115 0.47351 0.0
O67 O 0.6652 0.10138 0.48162 0.0
O68 O 0.49842 0.06597 0.48097 0.0
O69 O 0.53151 0.08031 0.45206 0.0
O70 O 0.51981 0.03127 0.50494 0.0
O71 O 0.58978 0.06234 0.4993 0.0
H72 H 0.64115 0.97577 0.52692 0.0
H73 H 0.62079 0.91162 0.53406 0.0
H74 H 0.60634 0.88159 0.47042 0.0
H75 H 0.62539 0.94506 0.46335 0.0
H76 H 0.58963 0.15698 0.45764 0.0
H77 H 0.60885 0.22221 0.46274 0.0
H78 H 0.47089 0.16655 0.48168 0.0
H79 H 0.45182 0.10126 0.47665 0.0
Ho80 Ho 0.6123 0.58034 0.84154 0.0
Ho81 Ho 0.55073 0.49276 0.83859 0.0
C82 C 0.49802 0.5321 0.84022 0.0
C83 C 0.65467 0.65372 0.83387 0.0
C84 C 0.64525 0.68206 0.83264 0.0
C85 C 0.64861 0.69747 0.814 0.0
C86 C 0.64114 0.72506 0.81225 0.0
C87 C 0.6305 0.73817 0.82916 0.0
C88 C 0.62713 0.72281 0.84788 0.0
C89 C 0.63429 0.69486 0.84961 0.0
C90 C 0.58542 0.54533 0.87698 0.0
C91 C 0.66508 0.54148 0.84142 0.0
C92 C 0.51036 0.41874 0.84382 0.0
C93 C 0.52127 0.39179 0.83934 0.0
C94 C 0.51942 0.36976 0.85474 0.0
C95 C 0.53177 0.34551 0.8512 0.0
C96 C 0.54587 0.34258 0.8321 0.0
C97 C 0.54711 0.36423 0.81659 0.0
C98 C 0.53521 0.38883 0.8202 0.0
C99 C 0.57536 0.52588 0.80236 0.0
O100 O 0.54059 0.56661 0.83877 0.0
O101 O 0.49355 0.49903 0.84187 0.0
O102 O 0.6556 0.64232 0.85162 0.0
O103 O 0.63435 0.62473 0.82009 0.0
O104 O 0.62672 0.57772 0.87431 0.0
O105 O 0.56146 0.53503 0.86131 0.0
O106 O 0.62254 0.50707 0.84288 0.0
O107 O 0.66951 0.57429 0.83914 0.0
O108 O 0.50142 0.43109 0.82852 0.0
O109 O 0.53668 0.44701 0.8575 0.0
O110 O 0.53495 0.49433 0.80665 0.0
O111 O 0.60117 0.53768 0.81775 0.0
H112 H 0.65746 0.6884 0.80073 0.0
H113 H 0.64478 0.73685 0.7977 0.0
H114 H 0.61877 0.73228 0.86115 0.0
H115 H 0.63149 0.68353 0.8642 0.0
H116 H 0.50888 0.37167 0.86962 0.0
H117 H 0.53005 0.32886 0.86338 0.0
H118 H 0.55828 0.36284 0.80179 0.0
H119 H 0.53745 0.40582 0.80808 0.0
C120 C 0.70396 0.14762 0.1711 0.0
C121 C 0.73838 0.18379 0.18204 0.0
C122 C 0.7357 0.18465 0.20312 0.0
C123 C 0.66563 0.11643 0.20215 0.0
C124 C 0.66768 0.11431 0.18149 0.0
C125 C 0.62764 0.07315 0.17287 0.0
H126 H 0.42711 0.88846 0.19379 0.0
C127 C 0.62349 0.07838 0.20871 0.0
C128 C 0.59994 0.05249 0.19163 0.0
H129 H 0.48997 0.92248 0.13589 0.0
H130 H 0.55065 0.98934 0.14995 0.0
H131 H 0.51881 0.92981 0.21973 0.0
H132 H 0.43497 0.96118 0.20352 0.0
H133 H 0.46192 0.9886 0.22621 0.0
H134 H 0.42417 0.93493 0.2257 0.0
H135 H 0.46068 0.90481 0.2271 0.0
H136 H 0.50768 0.94629 0.24168 0.0
C137 C 0.64703 0.05326 0.16363 0.0
C138 C 0.60021 0.0771 0.15757 0.0
C139 C 0.59142 0.05669 0.28357 0.0
C140 C 0.5519 0.02689 0.29393 0.0
C141 C 0.51079 0.9994 0.28264 0.0
C142 C 0.51017 0.9984 0.26171 0.0
C143 C 0.55073 0.02567 0.25164 0.0
C144 C 0.58956 0.05591 0.26245 0.0
C145 C 0.62656 0.08625 0.24881 0.0
C146 C 0.60482 0.06652 0.22812 0.0
C147 C 0.56107 0.03045 0.23008 0.0
C148 C 0.67001 0.09021 0.25273 0.0
C149 C 0.63355 0.12545 0.25263 0.0
C150 C 0.45319 0.91005 0.18382 0.0
C151 C 0.45285 0.89944 0.1636 0.0
C152 C 0.48904 0.92917 0.15162 0.0
C153 C 0.52443 0.96808 0.1598 0.0
C154 C 0.52422 0.97761 0.18028 0.0
C155 C 0.48843 0.94839 0.19169 0.0
C156 C 0.49239 0.96186 0.21312 0.0
C157 C 0.53741 1.00366 0.21322 0.0
C158 C 0.55653 0.01377 0.19397 0.0
C159 C 0.49487 0.93438 0.22623 0.0
C160 C 0.45126 0.96149 0.21751 0.0
H161 H 0.70088 0.15455 0.22913 0.0
H162 H 0.70497 0.14547 0.15491 0.0
H163 H 0.59112 0.09527 0.16431 0.0
H164 H 0.56782 0.04801 0.15274 0.0
H165 H 0.62062 0.09176 0.14402 0.0
H166 H 0.67193 0.05624 0.17426 0.0
H167 H 0.66511 0.06736 0.14955 0.0
H168 H 0.6202 0.02121 0.16029 0.0
H169 H 0.62331 0.0795 0.29152 0.0
H170 H 0.47878 0.9779 0.28989 0.0
H171 H 0.47819 0.97567 0.25419 0.0
H172 H 0.66097 0.06039 0.25334 0.0
H173 H 0.68699 0.10668 0.26727 0.0
H174 H 0.69529 0.10537 0.24077 0.0
H175 H 0.60492 0.12089 0.26105 0.0
H176 H 0.63436 0.13833 0.23844 0.0
H177 H 0.66555 0.14791 0.26152 0.0
H178 H 0.76199 0.21096 0.21214 0.0
C179 C 0.69997 0.15155 0.21311 0.0
C180 C 0.58649 0.63625 0.53833 0.0
C181 C 0.58773 0.6652 0.54968 0.0
C182 C 0.59219 0.66687 0.57078 0.0
C183 C 0.59537 0.61249 0.56882 0.0
C184 C 0.59053 0.61043 0.54816 0.0
C185 C 0.59075 0.57845 0.53838 0.0
H186 H 0.60785 0.43236 0.54872 0.0
C187 C 0.60075 0.58279 0.57431 0.0
C188 C 0.5986 0.56297 0.55649 0.0
H189 H 0.57988 0.46507 0.49417 0.0
H190 H 0.58635 0.51793 0.51261 0.0
H191 H 0.68552 0.51455 0.56455 0.0
H192 H 0.54274 0.44189 0.57834 0.0
H193 H 0.57644 0.46018 0.60076 0.0
H194 H 0.58034 0.43027 0.58303 0.0
H195 H 0.6632 0.48141 0.58469 0.0
H196 H 0.68404 0.53192 0.58861 0.0
C197 C 0.63119 0.59798 0.52383 0.0
C198 C 0.54314 0.54665 0.52818 0.0
C199 C 0.61419 0.5621 0.64794 0.0
C200 C 0.62466 0.53971 0.6572 0.0
C201 C 0.6376 0.52099 0.6448 0.0
C202 C 0.63577 0.5211 0.6239 0.0
C203 C 0.62194 0.54091 0.61497 0.0
C204 C 0.61396 0.56286 0.62685 0.0
C205 C 0.60654 0.5868 0.61435 0.0
C206 C 0.60808 0.57305 0.59314 0.0
C207 C 0.61582 0.5453 0.59374 0.0
C208 C 0.64675 0.63149 0.6189 0.0
C209 C 0.55876 0.57459 0.61887 0.0
C210 C 0.60248 0.45053 0.54076 0.0
C211 C 0.59274 0.4441 0.52 0.0
C212 C 0.58748 0.46936 0.51016 0.0
C213 C 0.59094 0.49988 0.52092 0.0
C214 C 0.59983 0.50536 0.54179 0.0
C215 C 0.60575 0.48098 0.55128 0.0
C216 C 0.61548 0.49105 0.57342 0.0
C217 C 0.61275 0.52462 0.57586 0.0
C218 C 0.60379 0.5331 0.55731 0.0
C219 C 0.66439 0.50527 0.5782 0.0
C220 C 0.57697 0.45401 0.58462 0.0
H221 H 0.59895 0.64339 0.59644 0.0
H222 H 0.58338 0.63421 0.5221 0.0
H223 H 0.51555 0.5429 0.53713 0.0
H224 H 0.53389 0.51687 0.52707 0.0
H225 H 0.54136 0.55516 0.51296 0.0
H226 H 0.66215 0.6264 0.53067 0.0
H227 H 0.62262 0.60461 0.50956 0.0
H228 H 0.64175 0.5796 0.52035 0.0
H229 H 0.6054 0.57799 0.65673 0.0
H230 H 0.64889 0.50572 0.65117 0.0
H231 H 0.6448 0.50535 0.61547 0.0
H232 H 0.67748 0.63629 0.62513 0.0
H233 H 0.63707 0.64482 0.63002 0.0
H234 H 0.65889 0.64875 0.60521 0.0
H235 H 0.53254 0.54171 0.6186 0.0
H236 H 0.54697 0.58473 0.60768 0.0
H237 H 0.55873 0.58651 0.63396 0.0
H238 H 0.59237 0.68827 0.57994 0.0
C239 C 0.59591 0.64071 0.58037 0.0
C240 C 0.19195 0.53683 0.84527 0.0
C241 C 0.23019 0.54305 0.85613 0.0
C242 C 0.23334 0.55283 0.87675 0.0
C243 C 0.16401 0.54801 0.87608 0.0
C244 C 0.15973 0.54056 0.85558 0.0
C245 C 0.11802 0.53804 0.84797 0.0
H246 H 0.93136 0.53551 0.88189 0.0
C247 C 0.12553 0.54762 0.8836 0.0
C248 C 0.09752 0.54289 0.86739 0.0
H249 H 0.96528 0.54341 0.81962 0.0
H250 H 1.0296 0.54296 0.82842 0.0
H251 H 0.94782 0.47533 0.89411 0.0
H252 H 1.02967 0.60191 0.89505 0.0
H253 H 1.04632 0.59279 0.91699 0.0
H254 H 0.98745 0.57282 0.91351 0.0
H255 H 0.94051 0.50301 0.91201 0.0
H256 H 0.97894 0.49217 0.9169 0.0
C257 C 0.08201 0.49768 0.83706 0.0
C258 C 0.13558 0.57204 0.83404 0.0
C259 C 0.11086 0.54813 0.95964 0.0
C260 C 0.07951 0.54593 0.9725 0.0
C261 C 1.04489 0.54566 0.96417 0.0
C262 C 1.04052 0.54602 0.94329 0.0
C263 C 0.07153 0.54726 0.93043 0.0
C264 C 0.10642 0.54911 0.93883 0.0
C265 C 0.13707 0.55154 0.92324 0.0
C266 C 0.11375 0.5489 0.90381 0.0
C267 C 0.07546 0.54655 0.90809 0.0
C268 C 0.13565 0.51511 0.92529 0.0
C269 C 0.18516 0.59275 0.92657 0.0
C270 C 0.95132 0.53633 0.86978 0.0
C271 C 0.94069 0.53867 0.84993 0.0
C272 C 0.97084 0.54126 0.83523 0.0
C273 C 1.00856 0.54104 0.84027 0.0
C274 C 1.01865 0.53927 0.8605 0.0
C275 C 0.98955 0.53757 0.87454 0.0
C276 C 1.00513 0.54003 0.89543 0.0
C277 C 1.04749 0.54301 0.89233 0.0
C278 C 0.05724 0.54177 0.87172 0.0
C279 C 0.96622 0.5009 0.90531 0.0
C280 C 1.01752 0.57857 0.90597 0.0
H281 H 0.20729 0.56148 0.90224 0.0
H282 H 0.18759 0.52974 0.82927 0.0
H283 H 0.16178 0.60116 0.84203 0.0
H284 H 0.10719 0.57168 0.82891 0.0
H285 H 0.15146 0.56943 0.82062 0.0
H286 H 0.06982 0.47324 0.8472 0.0
H287 H 0.09673 0.49369 0.82362 0.0
H288 H 0.05204 0.49533 0.83215 0.0
H289 H 0.1381 0.5487 0.96567 0.0
H290 H 1.02012 0.54367 0.97378 0.0
H291 H 1.01251 0.54463 0.93807 0.0
H292 H 0.10115 0.48874 0.9298 0.0
H293 H 0.16085 0.52127 0.93686 0.0
H294 H 0.14158 0.50508 0.91108 0.0
H295 H 0.18317 0.6148 0.9345 0.0
H296 H 0.20175 0.60646 0.91224 0.0
H297 H 0.20824 0.5907 0.93572 0.0
H298 H 0.26028 0.55756 0.88595 0.0
C299 C 0.2015 0.55504 0.88645 0.0
C300 C 0.96836 0.43449 0.45748 0.0
C301 C 0.93484 0.39632 0.44806 0.0
C302 C 0.9369 0.39133 0.42723 0.0
C303 C 1.00307 0.46077 0.42516 0.0
C304 C 1.00277 0.46626 0.44571 0.0
C305 C 1.04315 0.50864 0.45268 0.0
H306 H 0.23021 0.69471 0.42455 0.0
C307 C 1.0414 0.49898 0.41685 0.0
C308 C 0.06578 0.52771 0.4328 0.0
H309 H 0.19005 0.65869 0.48531 0.0
H310 H 0.12424 0.5926 0.47272 0.0
H311 H 0.21757 0.62042 0.40958 0.0
H312 H 0.12829 0.65076 0.40614 0.0
H313 H 0.12328 0.62772 0.38283 0.0
H314 H 0.17821 0.67306 0.39116 0.0
H315 H 0.22598 0.65471 0.39208 0.0
H316 H 0.19016 0.6021 0.38591 0.0
C317 C 0.07496 0.50693 0.46632 0.0
C318 C 1.02474 0.52833 0.46328 0.0
C319 C 0.06088 0.50407 0.34123 0.0
C320 C 0.09326 0.5341 0.32853 0.0
C321 C 0.12665 0.57274 0.33699 0.0
C322 C 0.1287 0.58091 0.35774 0.0
C323 C 0.09715 0.55012 0.37032 0.0
C324 C 0.06367 0.51264 0.36191 0.0
C325 C 1.0334 0.48338 0.37743 0.0
C326 C 0.05445 0.50936 0.39667 0.0
C327 C 0.09172 0.54832 0.39242 0.0
C328 C 1.03857 0.45037 0.37647 0.0
C329 C 0.98404 0.46856 0.37333 0.0
C330 C 0.20704 0.67302 0.43526 0.0
C331 C 0.2156 0.6825 0.45597 0.0
C332 C 0.18471 0.65243 0.46924 0.0
C333 C 0.14651 0.61397 0.46192 0.0
C334 C 0.13918 0.60492 0.44107 0.0
C335 C 0.16951 0.63463 0.42826 0.0
C336 C 0.1587 0.62046 0.40664 0.0
C337 C 0.11708 0.57741 0.40831 0.0
C338 C 0.1048 0.5677 0.4285 0.0
C339 C 0.20014 0.62477 0.39791 0.0
C340 C 0.14677 0.64425 0.39596 0.0
H341 H 0.96889 0.41672 0.40004 0.0
H342 H 0.968 0.43927 0.47352 0.0
H343 H 0.99773 0.5244 0.45377 0.0
H344 H 1.05171 0.56055 0.46613 0.0
H345 H 1.00952 0.5148 0.47785 0.0
H346 H 0.08096 0.48674 0.45936 0.0
H347 H 0.05942 0.49563 0.48117 0.0
H348 H 0.10905 0.53605 0.46872 0.0
H349 H 1.03424 0.47416 0.33527 0.0
H350 H 0.15229 0.59643 0.32766 0.0
H351 H 0.15547 0.61077 0.36322 0.0
H352 H 0.07256 0.46154 0.37072 0.0
H353 H 1.01195 0.42481 0.3664 0.0
H354 H 1.03731 0.43963 0.39143 0.0
H355 H 0.98457 0.49295 0.36812 0.0
H356 H 0.963 0.45845 0.38686 0.0
H357 H 0.96613 0.44422 0.36149 0.0
H358 H 0.9116 0.36276 0.41953 0.0
C359 C 0.97029 0.42303 0.41583 0.0
C360 C 0.60203 0.96086 0.78646 0.0
C361 C 0.60531 0.93243 0.77784 0.0
C362 C 0.60729 0.92961 0.75675 0.0
C363 C 0.60266 0.98256 0.75335 0.0
C364 C 0.60103 0.98563 0.77399 0.0
C365 C 0.59907 0.0182 0.78072 0.0
H366 H 0.59806 0.16844 0.75703 0.0
C367 C 0.60173 0.01299 0.74475 0.0
C368 C 0.59996 0.0342 0.7607 0.0
H369 H 0.59242 0.12728 0.81589 0.0
H370 H 0.59473 0.07691 0.80102 0.0
H371 H 0.67263 0.16232 0.73916 0.0
H372 H 0.52504 0.07942 0.73585 0.0
H373 H 0.54543 0.07985 0.71196 0.0
H374 H 0.55777 0.12464 0.72274 0.0
H375 H 0.63966 0.16973 0.72373 0.0
H376 H 0.65632 0.14057 0.71468 0.0
C377 C 0.64248 0.0493 0.79388 0.0
C378 C 0.55322 0.99912 0.79148 0.0
C379 C 0.59847 0.02013 0.66906 0.0
C380 C 0.59706 0.0447 0.65654 0.0
C381 C 0.5994 0.07619 0.66532 0.0
C382 C 0.60159 0.08228 0.68627 0.0
C383 C 0.60157 0.05668 0.69861 0.0
C384 C 0.60079 0.02666 0.68992 0.0
C385 C 0.6019 1.0028 0.70528 0.0
C386 C 0.60218 0.02271 0.72464 0.0
C387 C 0.60179 0.05415 0.72067 0.0
C388 C 0.64688 1.00838 0.70287 0.0
C389 C 0.5575 0.95924 0.7025 0.0
C390 C 0.59694 0.14838 0.76672 0.0
C391 C 0.59543 0.15221 0.78772 0.0
C392 C 0.59448 0.12561 0.79972 0.0
C393 C 0.59553 0.09613 0.79104 0.0
C394 C 0.59746 0.09294 0.77007 0.0
C395 C 0.59786 0.11865 0.75826 0.0
C396 C 0.59933 0.11041 0.73623 0.0
C397 C 0.60027 0.07584 0.73681 0.0
C398 C 0.59917 0.06577 0.75669 0.0
C399 C 0.64406 0.14763 0.72782 0.0
C400 C 0.55485 0.09816 0.72598 0.0
H401 H 0.60758 0.95066 0.72862 0.0
H402 H 0.60016 0.9638 0.80256 0.0
H403 H 0.52529 0.96957 0.7843 0.0
H404 H 0.5409 0.01651 0.79057 0.0
H405 H 0.55614 0.99475 0.80751 0.0
H406 H 0.67262 0.05246 0.78821 0.0
H407 H 0.63762 0.04044 0.80968 0.0
H408 H 0.65281 0.07942 0.79365 0.0
H409 H 0.59743 0.99607 0.66275 0.0
H410 H 0.59809 0.09537 0.65599 0.0
H411 H 0.60259 0.10635 0.69205 0.0
H412 H 0.67455 0.03769 0.6968 0.0
H413 H 0.64174 0.98514 0.69241 0.0
H414 H 0.66116 1.00842 0.71734 0.0
H415 H 0.52755 0.9581 0.69928 0.0
H416 H 0.54853 0.94218 0.71606 0.0
H417 H 0.56028 0.9435 0.68975 0.0
H418 H 0.61088 0.90873 0.74963 0.0
C419 C 0.60585 0.95434 0.74451 0.0
C420 C 0.58908 0.42452 0.14118 0.0
C421 C 0.63511 0.455 0.13708 0.0
C422 C 0.6474 0.46922 0.11762 0.0
C423 C 0.56795 0.42272 0.10655 0.0
C424 C 0.55604 0.40918 0.12578 0.0
C425 C 0.5051 0.37878 0.12785 0.0
H426 H 0.29444 0.28649 0.08755 0.0
C427 C 0.52553 0.40149 0.0942 0.0
C428 C 0.48851 0.37584 0.10663 0.0
H429 H 0.33046 0.28526 0.14882 0.0
H430 H 0.40937 0.32006 0.13959 0.0
H431 H 0.36587 0.36901 0.08208 0.0
H432 H 0.36631 0.27213 0.06572 0.0
H433 H 0.39041 0.30434 0.04581 0.0
H434 H 0.33231 0.28152 0.05277 0.0
H435 H 0.33775 0.33869 0.05951 0.0
H436 H 0.39712 0.38257 0.06004 0.0
C437 C 0.48955 0.39594 0.14322 0.0
C438 C 0.49411 0.33943 0.1337 0.0
C439 C 0.53269 0.42809 0.01993 0.0
C440 C 0.49825 0.41447 0.00521 0.0
C441 C 0.45195 0.38884 0.01087 0.0
C442 C 0.44 0.37569 0.03033 0.0
C443 C 0.47454 0.38891 0.04469 0.0
C444 C 0.52001 0.41515 0.03956 0.0
C445 C 0.55177 0.42784 0.05738 0.0
C446 C 0.51761 0.40363 0.0737 0.0
C447 C 0.47257 0.3808 0.06607 0.0
C448 C 0.57941 0.47314 0.06165 0.0
C449 C 0.58171 0.4152 0.05281 0.0
C450 C 0.31874 0.29208 0.09887 0.0
C451 C 0.30614 0.28319 0.11897 0.0
C452 C 0.3394 0.29206 0.13325 0.0
C453 C 0.38525 0.31267 0.1279 0.0
C454 C 0.39797 0.32495 0.10814 0.0
C455 C 0.36461 0.31326 0.09386 0.0
C456 C 0.38426 0.3304 0.07387 0.0
C457 C 0.43509 0.35534 0.07863 0.0
C458 C 0.443 0.35225 0.09872 0.0
C459 C 0.37048 0.35633 0.06838 0.0
C460 C 0.36741 0.29551 0.05859 0.0
H461 H 0.62543 0.46479 0.0877 0.0
H462 H 0.57901 0.41342 0.15612 0.0
H463 H 0.51646 0.33454 0.12562 0.0
H464 H 0.45872 0.31312 0.12948 0.0
H465 H 0.49986 0.33981 0.15006 0.0
H466 H 0.51094 0.42871 0.14242 0.0
H467 H 0.49258 0.38964 0.15882 0.0
H468 H 0.4542 0.38483 0.14035 0.0
H469 H 0.5686 0.44806 0.0163 0.0
H470 H 0.4245 0.37907 0.00029 0.0
H471 H 0.40417 0.35605 0.03344 0.0
H472 H 0.56109 0.48363 0.05574 0.0
H473 H 0.61341 0.49035 0.05454 0.0
H474 H 0.58427 0.48145 0.0779 0.0
H475 H 0.56036 0.38435 0.04611 0.0
H476 H 0.59837 0.41511 0.06637 0.0
H477 H 0.60863 0.43497 0.04195 0.0
H478 H 0.68298 0.49253 0.11426 0.0
C479 C 0.61406 0.45303 0.10227 0.0
H480 H 0.20727 0.38472 0.15322 0.0
H481 H 0.11152 0.32022 0.10289 0.0
H482 H 0.12461 0.27081 0.10273 0.0
H483 H 0.28701 0.38238 0.13501 0.0
H484 H 0.30706 0.37754 0.15827 0.0
H485 H 0.27921 0.39931 0.15858 0.0
H486 H 0.21999 0.34738 0.18338 0.0
H487 H 0.24773 0.32511 0.18291 0.0
H488 H 0.18737 0.2952 0.17686 0.0
H489 H 0.16033 0.23835 0.10294 0.0
H490 H 0.22083 0.23143 0.10065 0.0
H491 H 0.29489 0.31791 0.15036 0.0
C492 C 0.18741 0.35907 0.14283 0.0
C493 C 0.15795 0.35583 0.12826 0.0
C494 C 0.13403 0.32298 0.11425 0.0
C495 C 0.1409 0.29458 0.11423 0.0
C496 C 0.17165 0.29944 0.12835 0.0
C497 C 0.19446 0.33094 0.14245 0.0
C498 C 0.23237 0.33442 0.15323 0.0
C499 C 0.27911 0.37581 0.1511 0.0
C500 C 0.22117 0.32495 0.17541 0.0
C501 C 0.23005 0.3022 0.14179 0.0
C502 C 0.1935 0.28114 0.12813 0.0
C503 C 0.18834 0.25393 0.1139 0.0
C504 C 0.22292 0.25019 0.11268 0.0
C505 C 0.26258 0.27423 0.12531 0.0
C506 C 0.26445 0.29838 0.14088 0.0
H507 H 0.7464 0.1632 0.46454 0.0
H508 H 0.6593 0.18894 0.48875 0.0
H509 H 0.7234 0.2609 0.48751 0.0
H510 H 0.85523 0.24808 0.48827 0.0
H511 H 0.88804 0.25642 0.4663 0.0
H512 H 0.83697 0.2071 0.47103 0.0
H513 H 0.80351 0.20173 0.43599 0.0
H514 H 0.85457 0.25084 0.43112 0.0
H515 H 0.79929 0.23928 0.42921 0.0
H516 H 0.79798 0.33127 0.48308 0.0
H517 H 0.87133 0.39204 0.47149 0.0
H518 H 0.90809 0.3207 0.44782 0.0
C519 C 0.74113 0.18403 0.46992 0.0
C520 C 0.69788 0.17027 0.47711 0.0
C521 C 0.69208 0.19861 0.48336 0.0
C522 C 0.72846 0.23965 0.48278 0.0
C523 C 0.77062 0.2523 0.47558 0.0
C524 C 0.77686 0.22524 0.46895 0.0
C525 C 0.82408 0.24647 0.46011 0.0
C526 C 0.85277 0.23907 0.47215 0.0
C527 C 0.82011 0.23383 0.43778 0.0
C528 C 0.84338 0.28957 0.46274 0.0
C529 C 0.81239 0.29243 0.47205 0.0
C530 C 0.82246 0.32926 0.47582 0.0
C531 C 0.86447 0.36378 0.46936 0.0
C532 C 0.8958 0.36139 0.45891 0.0
C533 C 0.88514 0.32366 0.45595 0.0
H534 H 0.58219 0.74135 0.79985 0.0
H535 H 0.66654 0.80461 0.85362 0.0
H536 H 0.66361 0.8592 0.84807 0.0
H537 H 0.63433 0.82321 0.77051 0.0
H538 H 0.58255 0.80703 0.75768 0.0
H539 H 0.58662 0.77102 0.76722 0.0
H540 H 0.51349 0.74135 0.7878 0.0
H541 H 0.50898 0.77715 0.7782 0.0
H542 H 0.51093 0.77329 0.80491 0.0
H543 H 0.6588 0.91009 0.83434 0.0
H544 H 0.65041 0.95201 0.81433 0.0
H545 H 0.56703 0.85418 0.77014 0.0
C546 C 0.59954 0.76646 0.8106 0.0
C547 C 0.62458 0.76879 0.82717 0.0
C548 C 0.64669 0.80203 0.84096 0.0
C549 C 0.64535 0.83322 0.83788 0.0
C550 C 0.62128 0.83042 0.82109 0.0
C551 C 0.59834 0.79765 0.80781 0.0
C552 C 0.57703 0.80271 0.79037 0.0
C553 C 0.5963 0.8009 0.77027 0.0
C554 C 0.52449 0.77179 0.79033 0.0
C555 C 0.59283 0.84401 0.79553 0.0
C556 C 0.61799 0.85942 0.81337 0.0
C557 C 0.63842 0.89804 0.82054 0.0
C558 C 0.63327 0.92159 0.80909 0.0
C559 C 0.60792 0.90648 0.79064 0.0
C560 C 0.58695 0.86689 0.78405 0.0
H561 H 0.82256 0.45993 0.19133 0.0
H562 H 0.89963 0.58719 0.19936 0.0
H563 H 0.82987 0.57913 0.19197 0.0
H564 H 0.76675 0.44776 0.14987 0.0
H565 H 0.71231 0.40074 0.15465 0.0
H566 H 0.76358 0.41422 0.16641 0.0
H567 H 0.72875 0.40448 0.2015 0.0
H568 H 0.67678 0.39034 0.18983 0.0
H569 H 0.70678 0.43026 0.2088 0.0
H570 H 0.76015 0.56045 0.17505 0.0
H571 H 0.69283 0.53109 0.15241 0.0
H572 H 0.65904 0.41574 0.15571 0.0
C573 C 0.82423 0.48587 0.19226 0.0
C574 C 0.86639 0.52411 0.19598 0.0
C575 C 0.86755 0.5575 0.19692 0.0
C576 C 0.82804 0.55322 0.19268 0.0
C577 C 0.78754 0.51533 0.18786 0.0
C578 C 0.78506 0.48204 0.18805 0.0
C579 C 0.73947 0.44555 0.17952 0.0
C580 C 0.74596 0.42597 0.16155 0.0
C581 C 0.71128 0.41591 0.19589 0.0
C582 C 0.71831 0.4641 0.17301 0.0
C583 C 0.74615 0.50425 0.17835 0.0
C584 C 0.73719 0.52883 0.17143 0.0
C585 C 0.69922 0.51209 0.15851 0.0
C586 C 0.67081 0.47125 0.15279 0.0
C587 C 0.67972 0.44683 0.1605 0.0
H588 H 0.41745 0.91915 0.45226 0.0
H589 H 0.48855 0.90818 0.49899 0.0
H590 H 0.42305 0.83683 0.50036 0.0
H591 H 0.30214 0.84891 0.47082 0.0
H592 H 0.27595 0.82861 0.4462 0.0
H593 H 0.32754 0.87929 0.44939 0.0
H594 H 0.36762 0.86524 0.4231 0.0
H595 H 0.31611 0.81459 0.41978 0.0
H596 H 0.36945 0.82511 0.4265 0.0
H597 H 0.34873 0.76576 0.49688 0.0
H598 H 0.27537 0.70056 0.4868 0.0
H599 H 0.25298 0.75623 0.44145 0.0
C600 C 0.41911 0.90179 0.46288 0.0
C601 C 0.45836 0.91966 0.47562 0.0
C602 C 0.45915 0.89549 0.48905 0.0
C603 C 0.4219 0.85481 0.49001 0.0
C604 C 0.38383 0.83813 0.47729 0.0
C605 C 0.38233 0.86079 0.46382 0.0
C606 C 0.33814 0.83507 0.45118 0.0
C607 C 0.30924 0.8488 0.45461 0.0
C608 C 0.34846 0.835 0.42882 0.0
C609 C 0.31507 0.79454 0.45964 0.0
C610 C 0.34178 0.79705 0.47484 0.0
C611 C 0.3276 0.76355 0.48498 0.0
C612 C 0.28556 0.72655 0.47924 0.0
C613 C 0.25796 0.72284 0.46332 0.0
C614 C 0.27314 0.7577 0.45359 0.0
H615 H 0.52078 0.28952 0.80038 0.0
H616 H 0.60239 0.33886 0.85573 0.0
H617 H 0.62508 0.29645 0.85009 0.0
H618 H 0.47926 0.18999 0.80558 0.0
H619 H 0.4814 0.18068 0.77916 0.0
H620 H 0.47261 0.21569 0.78728 0.0
H621 H 0.5429 0.27007 0.76723 0.0
H622 H 0.55193 0.23522 0.75906 0.0
H623 H 0.59759 0.28156 0.77182 0.0
H624 H 0.63868 0.2487 0.83848 0.0
H625 H 0.64105 0.19777 0.82214 0.0
H626 H 0.54891 0.1782 0.77473 0.0
C627 C 0.54376 0.29163 0.8112 0.0
C628 C 0.55985 0.31744 0.8285 0.0
C629 C 0.58933 0.31898 0.84248 0.0
C630 C 0.60258 0.29519 0.83935 0.0
C631 C 0.58594 0.26994 0.8222 0.0
C632 C 0.55708 0.2679 0.80838 0.0
C633 C 0.54315 0.23751 0.79145 0.0
C634 C 0.49102 0.20398 0.79085 0.0
C635 C 0.55991 0.25728 0.77119 0.0
C636 C 0.56871 0.22281 0.79791 0.0
C637 C 0.59329 0.242 0.81565 0.0
C638 C 0.61943 0.23335 0.82463 0.0
C639 C 0.6203 0.20417 0.81529 0.0
C640 C 0.59499 0.18375 0.79719 0.0
C641 C 0.56905 0.1935 0.78842 0.0
H642 H 0.6509 0.87612 0.53176 0.0
H643 H 0.54788 0.81838 0.48358 0.0
H644 H 0.53107 0.75468 0.48998 0.0
H645 H 0.69275 0.82173 0.52301 0.0
H646 H 0.70092 0.81884 0.54927 0.0
H647 H 0.70496 0.85993 0.54086 0.0
H648 H 0.64278 0.84409 0.56589 0.0
H649 H 0.63863 0.80299 0.5744 0.0
H650 H 0.58813 0.79502 0.56519 0.0
H651 H 0.52581 0.69696 0.50155 0.0
H652 H 0.53138 0.64983 0.51792 0.0
H653 H 0.63702 0.74515 0.55878 0.0
C654 C 0.62441 0.85005 0.52267 0.0
C655 C 0.60087 0.8525 0.50709 0.0
C656 C 0.56697 0.81758 0.4954 0.0
C657 C 0.55695 0.78114 0.49899 0.0
C658 C 0.58098 0.7799 0.51439 0.0
C659 C 0.6139 0.81341 0.52609 0.0
C660 C 0.6348 0.8041 0.54171 0.0
C661 C 0.68641 0.82754 0.53851 0.0
C662 C 0.62551 0.81202 0.56306 0.0
C663 C 0.60847 0.7601 0.53699 0.0
C664 C 0.57767 0.7467 0.52114 0.0
C665 C 0.54982 0.70717 0.51398 0.0
C666 C 0.55343 0.68064 0.5233 0.0
C667 C 0.58456 0.69365 0.53968 0.0
C668 C 0.61241 0.73404 0.54649 0.0
H669 H 0.69079 0.49856 0.86137 0.0
H670 H 0.74228 0.59069 0.81921 0.0
H671 H 0.8128 0.59772 0.81598 0.0
H672 H 0.80333 0.54725 0.88663 0.0
H673 H 0.7939 0.50177 0.89084 0.0
H674 H 0.74587 0.50185 0.88923 0.0
H675 H 0.70923 0.44699 0.86093 0.0
H676 H 0.75721 0.44682 0.86243 0.0
H677 H 0.74145 0.4547 0.83884 0.0
H678 H 0.88065 0.5936 0.81605 0.0
H679 H 0.93841 0.58436 0.82237 0.0
H680 H 0.85105 0.49987 0.86708 0.0
C681 C 0.71667 0.52015 0.85133 0.0
C682 C 0.70891 0.5438 0.84035 0.0
C683 C 0.74552 0.57187 0.82785 0.0
C684 C 0.78641 0.57608 0.82584 0.0
C685 C 0.7929 0.55274 0.83673 0.0
C686 C 0.75916 0.52565 0.84955 0.0
C687 C 0.77637 0.50586 0.86033 0.0
C688 C 0.78007 0.51469 0.88312 0.0
C689 C 0.74413 0.46091 0.85535 0.0
C690 C 0.82448 0.52567 0.85157 0.0
C691 C 0.83283 0.5522 0.83769 0.0
C692 C 0.87396 0.57301 0.82708 0.0
C693 C 0.90711 0.56731 0.83073 0.0
C694 C 0.90122 0.54137 0.84531 0.0
C695 C 0.85831 0.52032 0.85585 0.0
H696 H 0.2099 0.68092 0.16805 0.0
H697 H 0.26052 0.63927 0.12499 0.0
H698 H 0.33202 0.70805 0.12248 0.0
H699 H 0.25812 0.77403 0.14455 0.0
H700 H 0.27161 0.80144 0.1682 0.0
H701 H 0.224 0.74911 0.16614 0.0
H702 H 0.25855 0.73723 0.19547 0.0
H703 H 0.3062 0.78949 0.19762 0.0
H704 H 0.31634 0.75405 0.19393 0.0
H705 H 0.40095 0.78264 0.12599 0.0
H706 H 0.45924 0.85408 0.13542 0.0
H707 H 0.36169 0.84733 0.17466 0.0
C708 C 0.23586 0.68616 0.158 0.0
C709 C 0.22917 0.65422 0.14673 0.0
C710 C 0.26438 0.66287 0.13379 0.0
C711 C 0.3053 0.70203 0.13224 0.0
C712 C 0.3108 0.73272 0.1436 0.0
C713 C 0.27683 0.72517 0.15616 0.0
C714 C 0.29137 0.76325 0.16697 0.0
C715 C 0.25937 0.77249 0.16111 0.0
C716 C 0.29323 0.76085 0.18985 0.0
C717 C 0.33904 0.79331 0.15882 0.0
C718 C 0.34971 0.77525 0.14531 0.0
C719 C 0.39261 0.79701 0.13643 0.0
C720 C 0.42556 0.83789 0.14177 0.0
C721 C 0.41583 0.85707 0.15591 0.0
C722 C 0.37122 0.8341 0.16408 0.0
H723 H 0.51926 0.22658 0.50456 0.0
H724 H 0.59028 0.26264 0.44814 0.0
H725 H 0.60987 0.32865 0.45362 0.0
H726 H 0.47167 0.2776 0.50095 0.0
H727 H 0.47935 0.29131 0.5274 0.0
H728 H 0.47042 0.24682 0.51882 0.0
H729 H 0.54571 0.27184 0.53712 0.0
H730 H 0.55488 0.31639 0.54575 0.0
H731 H 0.59845 0.3197 0.53174 0.0
H732 H 0.62137 0.39102 0.46535 0.0
H733 H 0.62677 0.44531 0.4831 0.0
H734 H 0.54818 0.3681 0.53175 0.0
C735 C 0.53856 0.24822 0.49325 0.0
C736 C 0.55312 0.23936 0.47588 0.0
C737 C 0.57907 0.26882 0.46164 0.0
C738 C 0.59013 0.30633 0.46457 0.0
C739 C 0.57518 0.31405 0.48185 0.0
C740 C 0.55013 0.28585 0.49599 0.0
C741 C 0.53912 0.30187 0.51352 0.0
C742 C 0.48705 0.27798 0.51526 0.0
C743 C 0.56085 0.30249 0.53319 0.0
C744 C 0.56191 0.3435 0.50705 0.0
C745 C 0.58231 0.34994 0.4887 0.0
C746 C 0.60546 0.38626 0.47972 0.0
C747 C 0.60813 0.41686 0.48986 0.0
C748 C 0.58804 0.41107 0.50884 0.0
C749 C 0.5644 0.37369 0.51738 0.0
H750 H 0.48135 0.58648 0.85496 0.0
H751 H 0.4113 0.47078 0.82483 0.0
H752 H 0.33998 0.46296 0.82327 0.0
H753 H 0.38323 0.55677 0.88581 0.0
H754 H 0.39448 0.60378 0.8851 0.0
H755 H 0.44092 0.60162 0.88279 0.0
H756 H 0.46295 0.63682 0.84938 0.0
H757 H 0.4164 0.63888 0.85154 0.0
H758 H 0.42051 0.61603 0.82937 0.0
H759 H 0.2718 0.46823 0.82422 0.0
H760 H 0.21772 0.48216 0.83151 0.0
H761 H 0.32714 0.59152 0.86363 0.0
C762 C 0.45122 0.5595 0.84785 0.0
C763 C 0.45392 0.52944 0.83973 0.0
C764 C 0.41201 0.49467 0.83112 0.0
C765 C 0.37059 0.48993 0.83011 0.0
C766 C 0.36914 0.51974 0.83814 0.0
C767 C 0.40849 0.55372 0.8472 0.0
C768 C 0.39681 0.58019 0.85583 0.0
C769 C 0.40432 0.58594 0.87875 0.0
C770 C 0.42592 0.62038 0.84595 0.0
C771 C 0.34534 0.55629 0.85016 0.0
C772 C 0.33013 0.52166 0.83965 0.0
C773 C 0.28408 0.49537 0.83256 0.0
C774 C 0.25308 0.50378 0.83662 0.0
C775 C 0.26648 0.53824 0.84809 0.0
C776 C 0.31428 0.56479 0.8547 0.0
H777 H 0.94684 0.4183 0.17641 0.0
H778 H 1.00324 0.38765 0.12999 0.0
H779 H 0.93474 0.31747 0.13067 0.0
H780 H 0.89869 0.33242 0.20472 0.0
H781 H 0.84814 0.32658 0.21154 0.0
H782 H 0.90034 0.37501 0.20659 0.0
H783 H 0.85745 0.38309 0.17972 0.0
H784 H 0.80509 0.3346 0.18456 0.0
H785 H 0.82647 0.34606 0.15944 0.0
H786 H 0.86026 0.24899 0.13707 0.0
H787 H 0.78895 0.18872 0.15008 0.0
H788 H 0.77991 0.26277 0.19223 0.0
C789 C 0.94461 0.39692 0.16624 0.0
C790 C 0.98087 0.40904 0.15308 0.0
C791 C 0.97637 0.37963 0.14024 0.0
C792 C 0.93731 0.33944 0.14045 0.0
C793 C 0.90245 0.32846 0.15362 0.0
C794 C 0.90574 0.35633 0.16634 0.0
C795 C 0.86418 0.33626 0.17965 0.0
C796 C 0.87872 0.34297 0.20194 0.0
C797 C 0.83667 0.35088 0.1756 0.0
C798 C 0.83747 0.29288 0.17262 0.0
C799 C 0.8599 0.28903 0.15745 0.0
C800 C 0.84233 0.25175 0.14889 0.0
C801 C 0.80144 0.21753 0.15629 0.0
C802 C 0.77835 0.22045 0.17227 0.0
C803 C 0.7966 0.25903 0.18016 0.0
H804 H 0.08606 0.59003 0.09154 0.0
H805 H 0.06828 0.48202 0.09904 0.0
H806 H 0.06943 0.47314 0.06243 0.0
H807 H 1.01033 0.55139 0.04735 0.0
H808 H 1.04386 0.59806 0.03531 0.0
H809 H 1.04395 0.59739 0.06231 0.0
H810 H 0.13246 0.64084 0.06308 0.0
H811 H 0.13262 0.6415 0.03608 0.0
H812 H 0.15937 0.62444 0.04876 0.0
H813 H 0.07545 0.47679 0.02535 0.0
H814 H 0.07722 0.48878 0.98933 0.0
H815 H 0.08377 0.59072 0.00464 0.0
C816 C 0.08249 0.56461 0.08541 0.0
C817 C 0.07856 0.53736 0.0982 0.0
C818 C 0.07304 0.50404 0.08962 0.0
C819 C 0.07328 0.49854 0.0688 0.0
C820 C 0.07804 0.52617 0.05661 0.0
C821 C 0.08171 0.55818 0.06448 0.0
C822 C 0.08425 0.58227 0.04776 0.0
C823 C 1.04315 0.58226 0.04821 0.0
C824 C 0.12989 0.62478 0.049 0.0
C825 C 0.08171 0.55887 0.02937 0.0
C826 C 0.07874 0.52693 0.03492 0.0
C827 C 0.0774 0.50152 0.02079 0.0
C828 C 0.07865 0.50864 0.00039 0.0
C829 C 0.08054 0.54054 0.99426 0.0
C830 C 0.08203 0.56596 0.00897 0.0
H831 H 0.63589 0.09367 0.40996 0.0
H832 H 0.52218 0.97265 0.42361 0.0
H833 H 0.50085 0.95579 0.38758 0.0
H834 H 0.57258 0.10013 0.3711 0.0
H835 H 0.62165 0.13069 0.35554 0.0
H836 H 0.62935 0.13321 0.38237 0.0
H837 H 0.68513 0.11727 0.37743 0.0
H838 H 0.67734 0.11441 0.35059 0.0
H839 H 0.66633 0.07305 0.36296 0.0
H840 H 0.4961 0.95047 0.35057 0.0
H841 H 0.49918 0.95826 0.31445 0.0
H842 H 0.60843 0.08541 0.32411 0.0
C843 C 0.60655 0.06372 0.40523 0.0
C844 C 0.5808 0.03425 0.41937 0.0
C845 C 0.54221 0.9955 0.4129 0.0
C846 C 0.53 0.98564 0.39251 0.0
C847 C 0.55612 0.01516 0.37887 0.0
C848 C 0.59293 0.05362 0.38489 0.0
C849 C 0.61337 0.0799 0.36704 0.0
C850 C 0.60896 0.11293 0.36914 0.0
C851 C 0.66352 0.09717 0.36435 0.0
C852 C 0.58268 0.04994 0.35008 0.0
C853 C 0.5505 0.01276 0.35734 0.0
C854 C 0.52014 0.97966 0.34472 0.0
C855 C 0.52188 0.98466 0.32409 0.0
C856 C 0.55276 0.02281 0.31609 0.0
C857 C 0.584 0.05582 0.32944 0.0
H858 H 0.60602 0.58232 0.77427 0.0
H859 H 0.57865 0.47103 0.78464 0.0
H860 H 0.59261 0.46489 0.74906 0.0
H861 H 0.55154 0.55497 0.72712 0.0
H862 H 0.59258 0.60168 0.71573 0.0
H863 H 0.58568 0.60042 0.74251 0.0
H864 H 0.67218 0.63652 0.74822 0.0
H865 H 0.67954 0.63844 0.72143 0.0
H866 H 0.69753 0.61636 0.73635 0.0
H867 H 0.59693 0.46493 0.71245 0.0
H868 H 0.6019 0.4749 0.67653 0.0
H869 H 0.63494 0.59009 0.68867 0.0
C870 C 0.60438 0.5574 0.76905 0.0
C871 C 0.59164 0.52721 0.78206 0.0
C872 C 0.58871 0.49448 0.77481 0.0
C873 C 0.59648 0.49072 0.75466 0.0
C874 C 0.60761 0.5202 0.74199 0.0
C875 C 0.61253 0.55335 0.74884 0.0
C876 C 0.62314 0.57965 0.73159 0.0
C877 C 0.58602 0.58445 0.7291 0.0
C878 C 0.67095 0.62015 0.73458 0.0
C879 C 0.62188 0.55535 0.71401 0.0
C880 C 0.6127 0.5212 0.7205 0.0
C881 C 0.60586 0.49226 0.70719 0.0
C882 C 0.60928 0.49855 0.68666 0.0
C883 C 0.62066 0.53409 0.67938 0.0
C884 C 0.62672 0.56275 0.69344 0.0
H885 H 0.62298 0.09584 0.54095 0.0
H886 H 0.50698 0.97213 0.52857 0.0
H887 H 0.51004 0.95775 0.56374 0.0
H888 H 0.68322 0.0815 0.57933 0.0
H889 H 0.69904 0.12389 0.59467 0.0
H890 H 0.69317 0.12316 0.56781 0.0
H891 H 0.63492 0.13637 0.57261 0.0
H892 H 0.64024 0.13678 0.59943 0.0
H893 H 0.58464 0.10326 0.58714 0.0
H894 H 0.52088 0.9578 0.60049 0.0
H895 H 0.53611 0.97256 0.63698 0.0
H896 H 0.6421 0.09726 0.62642 0.0
C897 C 0.59932 0.06559 0.54561 0.0
C898 C 0.5653 0.03482 0.53219 0.0
C899 C 0.53355 0.99584 0.53875 0.0
C900 C 0.53514 0.98743 0.55863 0.0
C901 C 0.56827 0.01855 0.57176 0.0
C902 C 0.59971 0.05692 0.56559 0.0
C903 C 0.62806 0.08563 0.58327 0.0
C904 C 0.6789 0.10466 0.58114 0.0
C905 C 0.62155 0.11737 0.58575 0.0
C906 C 0.60693 0.05757 0.60034 0.0
C907 C 0.57316 0.01893 0.59329 0.0
C908 C 0.54762 0.98786 0.60619 0.0
C909 C 0.55659 0.99652 0.62688 0.0
C910 C 0.5904 0.036 0.63451 0.0
C911 C 0.61604 0.06682 0.621 0.0
H912 H 0.6264 0.56324 0.91494 0.0
H913 H 0.50339 0.47319 0.87954 0.0
H914 H 0.4743 0.42815 0.90713 0.0
H915 H 0.63565 0.49842 0.94376 0.0
H916 H 0.64998 0.52654 0.96723 0.0
H917 H 0.66556 0.55109 0.94385 0.0
H918 H 0.62229 0.57828 0.95339 0.0
H919 H 0.60712 0.55424 0.97687 0.0
H920 H 0.56297 0.54422 0.96013 0.0
H921 H 0.45967 0.39145 0.93699 0.0
H922 H 0.44937 0.36953 0.97126 0.0
H923 H 0.57318 0.48647 0.99081 0.0
C924 C 0.59366 0.5339 0.91304 0.0
C925 C 0.56823 0.52092 0.89472 0.0
C926 C 0.52451 0.48309 0.89307 0.0
C927 C 0.50753 0.4572 0.90867 0.0
C928 C 0.53375 0.47019 0.92627 0.0
C929 C 0.57499 0.50802 0.92895 0.0
C930 C 0.59267 0.51567 0.95051 0.0
C931 C 0.63871 0.52338 0.95138 0.0
C932 C 0.59647 0.55014 0.96083 0.0
C933 C 0.5547 0.47623 0.95931 0.0
C934 C 0.52205 0.45025 0.94475 0.0
C935 C 0.48433 0.41174 0.94871 0.0
C936 C 0.47859 0.39975 0.96835 0.0
C937 C 0.5094 0.4266 0.98406 0.0
C938 C 0.54876 0.46513 0.97928 0.0
H939 H 0.13286 0.56959 0.21024 0.0
H940 H 0.10273 0.45495 0.20433 0.0
H941 H 0.08947 0.44691 0.24057 0.0
H942 H 0.19207 0.60037 0.25804 0.0
H943 H 0.16863 0.62377 0.26762 0.0
H944 H 0.17525 0.62073 0.241 0.0
H945 H 0.08902 0.58548 0.23488 0.0
H946 H 0.08207 0.58839 0.2615 0.0
H947 H 1.04685 0.54104 0.24776 0.0
H948 H 0.08132 0.45125 0.27706 0.0
H949 H 0.07854 0.46777 0.31245 0.0
H950 H 0.11111 0.57874 0.29567 0.0
C951 C 0.12329 0.5428 0.21663 0.0
C952 C 0.11875 0.51284 0.20449 0.0
C953 C 0.10644 0.47828 0.21334 0.0
C954 C 0.09872 0.47337 0.23392 0.0
C955 C 0.10327 0.50322 0.24549 0.0
C956 C 0.11515 0.53725 0.23727 0.0
C957 C 0.11778 0.56465 0.25332 0.0
C958 C 0.16633 0.60475 0.25509 0.0
C959 C 0.08179 0.57021 0.24911 0.0
C960 C 0.10632 0.5409 0.27182 0.0
C961 C 0.09787 0.5055 0.26683 0.0
C962 C 0.08739 0.47869 0.28118 0.0
C963 C 0.08556 0.48826 0.30127 0.0
C964 C 0.09404 0.52435 0.30692 0.0
C965 C 0.10455 0.55097 0.29189 0.0
loop_
_geom_bond_atom_site_label_1
_geom_bond_atom_site_label_2
_geom_bond_distance
_geom_bond_site_symmetry_2
_ccdc_geom_bond_type
Ho0 C3 2.811 . S
Ho0 O20 2.322 . S
Ho0 O22 2.378 . S
Ho0 O23 2.524 . S
Ho0 O24 2.381 . S
Ho0 O25 2.669 . S
Ho0 O27 2.346 1_455 S
Ho0 O31 2.305 . S
Ho1 C12 2.811 . S
Ho1 O21 2.346 1_655 S
Ho1 O25 2.305 1_655 S
Ho1 O26 2.322 . S
Ho1 O28 2.378 . S
Ho1 O29 2.524 . S
Ho1 O30 2.375 1_655 S
Ho1 O31 2.669 1_655 S
C2 O20 1.259 . S
C2 O21 1.268 . S
C3 Ho0 2.811 . S
C3 C4 1.488 . S
C3 O22 1.215 . S
C3 O23 1.289 . S
C4 C3 1.488 . S
C4 C5 1.348 . S
C4 C9 1.413 . S
C5 C4 1.348 . S
C5 C6 1.442 . S
C5 H32 0.930 . S
C6 C5 1.442 . S
C6 C7 1.381 . S
C6 H33 0.931 . S
C7 C6 1.381 . S
C7 C8 1.321 . S
C8 C7 1.321 . S
C8 C9 1.403 . S
C8 H34 0.934 . S
C9 C4 1.413 . S
C9 C8 1.403 . S
C9 H35 0.930 . S
C10 O24 1.275 . S
C10 O25 1.256 . S
C11 O26 1.259 . S
C11 O27 1.268 . S
C12 Ho1 2.811 . S
C12 C13 1.488 . S
C12 O28 1.215 . S
C12 O29 1.289 . S
C13 C12 1.488 . S
C13 C14 1.348 . S
C13 C18 1.413 . S
C14 C13 1.348 . S
C14 C15 1.442 . S
C14 H36 0.930 . S
C15 C14 1.442 . S
C15 C16 1.381 . S
C15 H37 0.931 . S
C16 C15 1.381 . S
C16 C17 1.321 . S
C17 C16 1.321 . S
C17 C18 1.403 . S
C17 H38 0.934 . S
C18 C13 1.413 . S
C18 C17 1.403 . S
C18 H39 0.930 . S
C19 O30 1.308 . S
C19 O31 1.256 . S
O20 Ho0 2.322 . S
O20 C2 1.259 . S
O21 Ho1 2.346 1_455 S
O21 C2 1.268 . S
O22 Ho0 2.378 . S
O22 C3 1.215 . S
O23 Ho0 2.524 . S
O23 C3 1.289 . S
O24 Ho0 2.381 . S
O24 C10 1.275 . S
O25 Ho0 2.669 . S
O25 Ho1 2.305 1_455 S
O25 C10 1.256 . S
O26 Ho1 2.322 . S
O26 C11 1.259 . S
O27 Ho0 2.346 1_655 S
O27 C11 1.268 . S
O28 Ho1 2.378 . S
O28 C12 1.215 . S
O29 Ho1 2.524 . S
O29 C12 1.289 . S
O30 Ho1 2.375 1_455 S
O30 C19 1.308 . S
O31 Ho0 2.305 . S
O31 Ho1 2.669 1_455 S
O31 C19 1.256 . S
H32 C5 0.930 . S
H33 C6 0.931 . S
H34 C8 0.934 . S
H35 C9 0.930 . S
H36 C14 0.930 . S
H37 C15 0.931 . S
H38 C17 0.934 . S
H39 C18 0.930 . S
Ho40 C43 2.811 . S
Ho40 O60 2.322 . S
Ho40 O62 2.378 . S
Ho40 O63 2.524 . S
Ho40 O64 2.381 . S
Ho40 O65 2.669 1_565 S
Ho40 O67 2.346 1_565 S
Ho40 O71 2.311 . S
Ho41 C52 2.811 . S
Ho41 O61 2.346 1_545 S
Ho41 O65 2.305 . S
Ho41 O66 2.322 . S
Ho41 O68 2.378 . S
Ho41 O69 2.524 . S
Ho41 O70 2.381 . S
Ho41 O71 2.659 1_545 S
C42 O60 1.259 . S
C42 O61 1.268 . S
C43 Ho40 2.811 . S
C43 C44 1.488 . S
C43 O62 1.215 . S
C43 O63 1.289 . S
C44 C43 1.488 . S
C44 C45 1.348 . S
C44 C49 1.413 . S
C45 C44 1.348 . S
C45 C46 1.442 . S
C45 H72 0.930 . S
C46 C45 1.442 . S
C46 C47 1.381 . S
C46 H73 0.931 . S
C47 C46 1.381 . S
C47 C48 1.321 . S
C48 C47 1.321 . S
C48 C49 1.403 . S
C48 H74 0.934 . S
C49 C44 1.413 . S
C49 C48 1.403 . S
C49 H75 0.930 . S
C50 O64 1.275 1_545 S
C50 O65 1.256 . S
C51 O66 1.259 . S
C51 O67 1.268 . S
C52 Ho41 2.811 . S
C52 C53 1.488 . S
C52 O68 1.215 . S
C52 O69 1.289 . S
C53 C52 1.488 . S
C53 C54 1.348 . S
C53 C58 1.413 . S
C54 C53 1.348 . S
C54 C55 1.442 . S
C54 H76 0.930 . S
C55 C54 1.442 . S
C55 C56 1.381 . S
C55 H77 0.931 . S
C56 C55 1.381 . S
C56 C57 1.321 . S
C57 C56 1.321 . S
C57 C58 1.403 . S
C57 H78 0.934 . S
C58 C53 1.413 . S
C58 C57 1.403 . S
C58 H79 0.930 . S
C59 O70 1.275 . S
C59 O71 1.250 1_545 S
O60 Ho40 2.322 . S
O60 C42 1.259 . S
O61 Ho41 2.346 1_565 S
O61 C42 1.268 . S
O62 Ho40 2.378 . S
O62 C43 1.215 . S
O63 Ho40 2.524 . S
O63 C43 1.289 . S
O64 Ho40 2.381 . S
O64 C50 1.275 1_565 S
O65 Ho40 2.669 1_545 S
O65 Ho41 2.305 . S
O65 C50 1.256 . S
O66 Ho41 2.322 . S
O66 C51 1.259 . S
O67 Ho40 2.346 1_545 S
O67 C51 1.268 . S
O68 Ho41 2.378 . S
O68 C52 1.215 . S
O69 Ho41 2.524 . S
O69 C52 1.289 . S
O70 Ho41 2.381 . S
O70 C59 1.275 . S
O71 Ho40 2.311 . S
O71 Ho41 2.659 1_565 S
O71 C59 1.250 1_565 S
H72 C45 0.930 . S
H73 C46 0.931 . S
H74 C48 0.934 . S
H75 C49 0.930 . S
H76 C54 0.930 . S
H77 C55 0.931 . S
H78 C57 0.934 . S
H79 C58 0.930 . S
Ho80 C83 2.811 . S
Ho80 O100 2.322 . S
Ho80 O102 2.378 . S
Ho80 O103 2.524 . S
Ho80 O104 2.381 . S
Ho80 O105 2.669 . S
Ho80 O107 2.346 . S
Ho80 O111 2.305 . S
Ho81 C92 2.811 . S
Ho81 O101 2.346 . S
Ho81 O105 2.305 . S
Ho81 O106 2.322 . S
Ho81 O108 2.378 . S
Ho81 O109 2.524 . S
Ho81 O110 2.381 . S
Ho81 O111 2.669 . S
C82 O100 1.259 . S
C82 O101 1.268 . S
C83 Ho80 2.811 . S
C83 C84 1.488 . S
C83 O102 1.215 . S
C83 O103 1.289 . S
C84 C83 1.488 . S
C84 C85 1.348 . S
C84 C89 1.413 . S
C85 C84 1.348 . S
C85 C86 1.442 . S
C85 H112 0.930 . S
C86 C85 1.442 . S
C86 C87 1.381 . S
C86 H113 0.931 . S
C87 C86 1.381 . S
C87 C88 1.321 . S
C88 C87 1.321 . S
C88 C89 1.403 . S
C88 H114 0.934 . S
C89 C84 1.413 . S
C89 C88 1.403 . S
C89 H115 0.930 . S
C90 O104 1.275 . S
C90 O105 1.256 . S
C91 O106 1.259 . S
C91 O107 1.268 . S
C92 Ho81 2.811 . S
C92 C93 1.488 . S
C92 O108 1.215 . S
C92 O109 1.289 . S
C93 C92 1.488 . S
C93 C94 1.348 . S
C93 C98 1.413 . S
C94 C93 1.348 . S
C94 C95 1.442 . S
C94 H116 0.930 . S
C95 C94 1.442 . S
C95 C96 1.381 . S
C95 H117 0.931 . S
C96 C95 1.381 . S
C96 C97 1.321 . S
C97 C96 1.321 . S
C97 C98 1.403 . S
C97 H118 0.934 . S
C98 C93 1.413 . S
C98 C97 1.403 . S
C98 H119 0.930 . S
C99 O110 1.275 . S
C99 O111 1.256 . S
O100 Ho80 2.322 . S
O100 C82 1.259 . S
O101 Ho81 2.346 . S
O101 C82 1.268 . S
O102 Ho80 2.378 . S
O102 C83 1.215 . S
O103 Ho80 2.524 . S
O103 C83 1.289 . S
O104 Ho80 2.381 . S
O104 C90 1.275 . S
O105 Ho80 2.669 . S
O105 Ho81 2.305 . S
O105 C90 1.256 . S
O106 Ho81 2.322 . S
O106 C91 1.259 . S
O107 Ho80 2.346 . S
O107 C91 1.268 . S
O108 Ho81 2.378 . S
O108 C92 1.215 . S
O109 Ho81 2.524 . S
O109 C92 1.289 . S
O110 Ho81 2.381 . S
O110 C99 1.275 . S
O111 Ho80 2.305 . S
O111 Ho81 2.669 . S
O111 C99 1.256 . S
H112 C85 0.930 . S
H113 C86 0.931 . S
H114 C88 0.934 . S
H115 C89 0.930 . S
H116 C94 0.930 . S
H117 C95 0.931 . S
H118 C97 0.934 . S
H119 C98 0.930 . S
C120 C121 1.391 . S
C120 C124 1.391 . S
C120 H162 0.948 . S
C121 C120 1.391 . S
C121 C122 1.391 . S
C122 C121 1.391 . S
C122 H178 0.947 . S
C122 C179 1.392 . S
C123 C124 1.391 . S
C123 C127 1.397 . S
C123 C179 1.419 . S
C124 C120 1.391 . S
C124 C123 1.391 . S
C124 C125 1.399 . S
C125 C124 1.399 . S
C125 C128 1.396 . S
C125 C137 1.453 . S
C125 C138 1.684 . S
H126 C150 0.948 . S
C127 C123 1.397 . S
C127 C128 1.394 . S
C127 C146 1.723 . S
C128 C125 1.396 . S
C128 C127 1.394 . S
C128 C158 1.723 1_545 S
H129 C152 0.947 . S
H130 C153 0.948 . S
H131 C159 0.982 . S
H132 C160 0.979 . S
H133 C160 0.980 . S
H134 C160 0.983 . S
H135 C159 0.979 . S
H136 C159 0.977 . S
C137 C125 1.453 . S
C137 H166 0.982 . S
C137 H167 0.979 . S
C137 H168 0.977 1_545 S
C138 C125 1.684 . S
C138 H163 0.979 . S
C138 H164 0.980 . S
C138 H165 0.983 . S
C139 C140 1.391 . S
C139 C144 1.391 . S
C139 H169 0.948 . S
C140 C139 1.391 . S
C140 C141 1.391 1_545 S
C141 C140 1.391 1_565 S
C141 C142 1.392 . S
C141 H170 0.947 . S
C142 C141 1.392 . S
C142 C143 1.419 1_565 S
C142 H171 0.948 . S
C143 C142 1.419 1_545 S
C143 C144 1.391 . S
C143 C147 1.397 . S
C144 C139 1.391 . S
C144 C143 1.391 . S
C144 C145 1.399 . S
C145 C144 1.399 . S
C145 C146 1.396 . S
C145 C148 1.453 . S
C145 C149 1.684 . S
C146 C127 1.723 . S
C146 C145 1.396 . S
C146 C147 1.394 . S
C147 C143 1.397 . S
C147 C146 1.394 . S
C147 C157 1.723 1_545 S
C148 C145 1.453 . S
C148 H172 0.982 . S
C148 H173 0.979 . S
C148 H174 0.977 . S
C149 C145 1.684 . S
C149 H175 0.979 . S
C149 H176 0.980 . S
C149 H177 0.983 . S
C150 H126 0.948 . S
C150 C151 1.391 . S
C150 C155 1.391 . S
C151 C150 1.391 . S
C151 C152 1.391 . S
C152 H129 0.947 . S
C152 C151 1.391 . S
C152 C153 1.392 . S
C153 H130 0.948 . S
C153 C152 1.392 . S
C153 C154 1.419 . S
C154 C153 1.419 . S
C154 C155 1.391 . S
C154 C158 1.397 . S
C155 C150 1.391 . S
C155 C154 1.391 . S
C155 C156 1.399 . S
C156 C155 1.399 . S
C156 C157 1.396 . S
C156 C159 1.453 . S
C156 C160 1.684 . S
C157 C147 1.723 1_565 S
C157 C156 1.396 . S
C157 C158 1.394 . S
C158 C128 1.723 1_565 S
C158 C154 1.397 . S
C158 C157 1.394 . S
C159 H131 0.982 . S
C159 H135 0.979 . S
C159 H136 0.977 . S
C159 C156 1.453 . S
C160 H132 0.979 . S
C160 H133 0.980 . S
C160 H134 0.983 . S
C160 C156 1.684 . S
H161 C179 0.948 . S
H162 C120 0.948 . S
H163 C138 0.979 . S
H164 C138 0.980 . S
H165 C138 0.983 . S
H166 C137 0.982 . S
H167 C137 0.979 . S
H168 C137 0.977 1_565 S
H169 C139 0.948 . S
H170 C141 0.947 . S
H171 C142 0.948 . S
H172 C148 0.982 . S
H173 C148 0.979 . S
H174 C148 0.977 . S
H175 C149 0.979 . S
H176 C149 0.980 . S
H177 C149 0.983 . S
H178 C122 0.947 . S
C179 C122 1.392 . S
C179 C123 1.419 . S
C179 H161 0.948 . S
C180 C181 1.391 . S
C180 C184 1.391 . S
C180 H222 0.948 . S
C181 C180 1.391 . S
C181 C182 1.391 . S
C182 C181 1.391 . S
C182 H238 0.947 . S
C182 C239 1.392 . S
C183 C184 1.391 . S
C183 C187 1.397 . S
C183 C239 1.419 . S
C184 C180 1.391 . S
C184 C183 1.391 . S
C184 C185 1.399 . S
C185 C184 1.399 . S
C185 C188 1.396 . S
C185 C197 1.453 . S
C185 C198 1.684 . S
H186 C210 0.948 . S
C187 C183 1.397 . S
C187 C188 1.394 . S
C187 C206 1.723 . S
C188 C185 1.396 . S
C188 C187 1.394 . S
C188 C218 1.723 . S
H189 C212 0.947 . S
H190 C213 0.948 . S
H191 C219 0.982 . S
H192 C220 0.979 . S
H193 C220 0.980 . S
H194 C220 0.983 . S
H195 C219 0.979 . S
H196 C219 0.977 . S
C197 C185 1.453 . S
C197 H226 0.982 . S
C197 H227 0.979 . S
C197 H228 0.977 . S
C198 C185 1.684 . S
C198 H223 0.979 . S
C198 H224 0.980 . S
C198 H225 0.983 . S
C199 C200 1.391 . S
C199 C204 1.391 . S
C199 H229 0.948 . S
C200 C199 1.391 . S
C200 C201 1.391 . S
C201 C200 1.391 . S
C201 C202 1.392 . S
C201 H230 0.947 . S
C202 C201 1.392 . S
C202 C203 1.419 . S
C202 H231 0.948 . S
C203 C202 1.419 . S
C203 C204 1.391 . S
C203 C207 1.397 . S
C204 C199 1.391 . S
C204 C203 1.391 . S
C204 C205 1.399 . S
C205 C204 1.399 . S
C205 C206 1.396 . S
C205 C208 1.453 . S
C205 C209 1.684 . S
C206 C187 1.723 . S
C206 C205 1.396 . S
C206 C207 1.394 . S
C207 C203 1.397 . S
C207 C206 1.394 . S
C207 C217 1.723 . S
C208 C205 1.453 . S
C208 H232 0.982 . S
C208 H233 0.979 . S
C208 H234 0.977 . S
C209 C205 1.684 . S
C209 H235 0.979 . S
C209 H236 0.980 . S
C209 H237 0.983 . S
C210 H186 0.948 . S
C210 C211 1.391 . S
C210 C215 1.391 . S
C211 C210 1.391 . S
C211 C212 1.391 . S
C212 H189 0.947 . S
C212 C211 1.391 . S
C212 C213 1.392 . S
C213 H190 0.948 . S
C213 C212 1.392 . S
C213 C214 1.419 . S
C214 C213 1.419 . S
C214 C215 1.391 . S
C214 C218 1.397 . S
C215 C210 1.391 . S
C215 C214 1.391 . S
C215 C216 1.399 . S
C216 C215 1.399 . S
C216 C217 1.396 . S
C216 C219 1.453 . S
C216 C220 1.684 . S
C217 C207 1.723 . S
C217 C216 1.396 . S
C217 C218 1.394 . S
C218 C188 1.723 . S
C218 C214 1.397 . S
C218 C217 1.394 . S
C219 H191 0.982 . S
C219 H195 0.979 . S
C219 H196 0.977 . S
C219 C216 1.453 . S
C220 H192 0.979 . S
C220 H193 0.980 . S
C220 H194 0.983 . S
C220 C216 1.684 . S
H221 C239 0.948 . S
H222 C180 0.948 . S
H223 C198 0.979 . S
H224 C198 0.980 . S
H225 C198 0.983 . S
H226 C197 0.982 . S
H227 C197 0.979 . S
H228 C197 0.977 . S
H229 C199 0.948 . S
H230 C201 0.947 . S
H231 C202 0.948 . S
H232 C208 0.982 . S
H233 C208 0.979 . S
H234 C208 0.977 . S
H235 C209 0.979 . S
H236 C209 0.980 . S
H237 C209 0.983 . S
H238 C182 0.947 . S
C239 C182 1.392 . S
C239 C183 1.419 . S
C239 H221 0.948 . S
C240 C241 1.391 . S
C240 C244 1.391 . S
C240 H282 0.948 . S
C241 C240 1.391 . S
C241 C242 1.391 . S
C242 C241 1.391 . S
C242 H298 0.947 . S
C242 C299 1.392 . S
C243 C244 1.391 . S
C243 C247 1.397 . S
C243 C299 1.419 . S
C244 C240 1.391 . S
C244 C243 1.391 . S
C244 C245 1.399 . S
C245 C244 1.399 . S
C245 C248 1.396 . S
C245 C257 1.453 . S
C245 C258 1.684 . S
H246 C270 0.948 . S
C247 C243 1.397 . S
C247 C248 1.394 . S
C247 C266 1.723 . S
C248 C245 1.396 . S
C248 C247 1.394 . S
C248 C278 1.723 . S
H249 C272 0.947 . S
H250 C273 0.929 1_455 S
H251 C279 0.982 . S
H252 C280 0.979 1_455 S
H253 C280 0.980 . S
H254 C280 0.983 . S
H255 C279 0.979 . S
H256 C279 0.977 . S
C257 C245 1.453 . S
C257 H286 0.982 . S
C257 H287 0.979 . S
C257 H288 0.977 . S
C258 C245 1.684 . S
C258 H283 0.979 . S
C258 H284 0.980 . S
C258 H285 0.983 . S
C259 C260 1.391 . S
C259 C264 1.391 . S
C259 H289 0.948 . S
C260 C259 1.391 . S
C260 C261 1.391 . S
C261 C260 1.391 . S
C261 C262 1.392 . S
C261 H290 0.947 1_455 S
C262 C261 1.392 . S
C262 C263 1.419 . S
C262 H291 0.948 1_455 S
C263 C262 1.419 . S
C263 C264 1.391 . S
C263 C267 1.397 . S
C264 C259 1.391 . S
C264 C263 1.391 . S
C264 C265 1.399 . S
C265 C264 1.399 . S
C265 C266 1.396 . S
C265 C268 1.453 . S
C265 C269 1.684 . S
C266 C247 1.723 . S
C266 C265 1.396 . S
C266 C267 1.394 . S
C267 C263 1.397 . S
C267 C266 1.394 . S
C267 C277 1.723 . S
C268 C265 1.453 . S
C268 H292 0.982 . S
C268 H293 0.979 . S
C268 H294 0.977 . S
C269 C265 1.684 . S
C269 H295 0.979 . S
C269 H296 0.980 . S
C269 H297 0.983 . S
C270 H246 0.948 . S
C270 C271 1.391 . S
C270 C275 1.391 . S
C271 C270 1.391 . S
C271 C272 1.391 . S
C272 H249 0.947 . S
C272 C271 1.391 . S
C272 C273 1.413 . S
C273 H250 0.929 1_655 S
C273 C272 1.413 . S
C273 C274 1.417 . S
C274 C273 1.417 . S
C274 C275 1.391 . S
C274 C278 1.397 1_655 S
C275 C270 1.391 . S
C275 C274 1.391 . S
C275 C276 1.399 . S
C276 C275 1.399 . S
C276 C277 1.396 1_655 S
C276 C279 1.453 . S
C276 C280 1.684 . S
C277 C267 1.723 . S
C277 C276 1.396 1_455 S
C277 C278 1.394 . S
C278 C248 1.723 . S
C278 C274 1.397 1_455 S
C278 C277 1.394 . S
C279 H251 0.982 . S
C279 H255 0.979 . S
C279 H256 0.977 . S
C279 C276 1.453 . S
C280 H252 0.979 1_655 S
C280 H253 0.980 . S
C280 H254 0.983 . S
C280 C276 1.684 . S
H281 C299 0.948 . S
H282 C240 0.948 . S
H283 C258 0.979 . S
H284 C258 0.980 . S
H285 C258 0.983 . S
H286 C257 0.982 . S
H287 C257 0.979 . S
H288 C257 0.977 . S
H289 C259 0.948 . S
H290 C261 0.947 1_655 S
H291 C262 0.948 1_655 S
H292 C268 0.982 . S
H293 C268 0.979 . S
H294 C268 0.977 . S
H295 C269 0.979 . S
H296 C269 0.980 . S
H297 C269 0.983 . S
H298 C242 0.947 . S
C299 C242 1.392 . S
C299 C243 1.419 . S
C299 H281 0.948 . S
C300 C301 1.391 . S
C300 C304 1.391 . S
C300 H342 0.948 . S
C301 C300 1.391 . S
C301 C302 1.391 . S
C302 C301 1.391 . S
C302 H358 0.947 . S
C302 C359 1.392 . S
C303 C304 1.391 . S
C303 C307 1.397 . S
C303 C359 1.419 . S
C304 C300 1.391 . S
C304 C303 1.391 . S
C304 C305 1.399 . S
C305 C304 1.399 . S
C305 C308 1.396 . S
C305 C317 1.453 . S
C305 C318 1.684 . S
H306 C330 0.948 . S
C307 C303 1.397 . S
C307 C308 1.394 . S
C307 C326 1.723 . S
C308 C305 1.396 . S
C308 C307 1.394 . S
C308 C338 1.723 1_655 S
H309 C332 0.947 . S
H310 C333 0.948 . S
H311 C339 0.982 . S
H312 C340 0.979 . S
H313 C340 0.980 . S
H314 C340 0.983 . S
H315 C339 0.979 . S
H316 C339 0.977 . S
C317 C305 1.453 . S
C317 H346 0.982 1_655 S
C317 H347 0.979 . S
C317 H348 0.977 1_655 S
C318 C305 1.684 . S
C318 H343 0.979 . S
C318 H344 0.980 . S
C318 H345 0.983 . S
C319 C320 1.391 1_655 S
C319 C324 1.391 . S
C319 H349 0.948 . S
C320 C319 1.391 1_455 S
C320 C321 1.391 . S
C321 C320 1.391 . S
C321 C322 1.392 . S
C321 H350 0.947 . S
C322 C321 1.392 . S
C322 C323 1.419 . S
C322 H351 0.948 . S
C323 C322 1.419 . S
C323 C324 1.391 1_455 S
C323 C327 1.397 . S
C324 C319 1.391 . S
C324 C323 1.391 1_655 S
C324 C325 1.399 . S
C325 C324 1.399 . S
C325 C326 1.396 . S
C325 C328 1.453 . S
C325 C329 1.684 . S
C326 C307 1.723 . S
C326 C325 1.396 . S
C326 C327 1.394 1_655 S
C327 C323 1.397 . S
C327 C326 1.394 1_455 S
C327 C337 1.723 . S
C328 C325 1.453 . S
C328 H352 0.982 . S
C328 H353 0.979 . S
C328 H354 0.977 . S
C329 C325 1.684 . S
C329 H355 0.979 . S
C329 H356 0.980 . S
C329 H357 0.983 . S
C330 H306 0.948 . S
C330 C331 1.391 . S
C330 C335 1.391 . S
C331 C330 1.391 . S
C331 C332 1.391 . S
C332 H309 0.947 . S
C332 C331 1.391 . S
C332 C333 1.392 . S
C333 H310 0.948 . S
C333 C332 1.392 . S
C333 C334 1.419 . S
C334 C333 1.419 . S
C334 C335 1.391 . S
C334 C338 1.397 . S
C335 C330 1.391 . S
C335 C334 1.391 . S
C335 C336 1.399 . S
C336 C335 1.399 . S
C336 C337 1.396 . S
C336 C339 1.453 . S
C336 C340 1.684 . S
C337 C327 1.723 . S
C337 C336 1.396 . S
C337 C338 1.394 . S
C338 C308 1.723 1_455 S
C338 C334 1.397 . S
C338 C337 1.394 . S
C339 H311 0.982 . S
C339 H315 0.979 . S
C339 H316 0.977 . S
C339 C336 1.453 . S
C340 H312 0.979 . S
C340 H313 0.980 . S
C340 H314 0.983 . S
C340 C336 1.684 . S
H341 C359 0.948 . S
H342 C300 0.948 . S
H343 C318 0.979 . S
H344 C318 0.980 . S
H345 C318 0.983 . S
H346 C317 0.982 1_455 S
H347 C317 0.979 . S
H348 C317 0.977 1_455 S
H349 C319 0.948 . S
H350 C321 0.947 . S
H351 C322 0.948 . S
H352 C328 0.982 . S
H353 C328 0.979 . S
H354 C328 0.977 . S
H355 C329 0.979 . S
H356 C329 0.980 . S
H357 C329 0.983 . S
H358 C302 0.947 . S
C359 C302 1.392 . S
C359 C303 1.419 . S
C359 H341 0.948 . S
C360 C361 1.391 . S
C360 C364 1.391 . S
C360 H402 0.948 . S
C361 C360 1.391 . S
C361 C362 1.391 . S
C362 C361 1.391 . S
C362 H418 0.947 . S
C362 C419 1.392 . S
C363 C364 1.391 . S
C363 C367 1.397 . S
C363 C419 1.419 . S
C364 C360 1.391 . S
C364 C363 1.391 . S
C364 C365 1.399 . S
C365 C364 1.399 . S
C365 C368 1.396 . S
C365 C377 1.453 1_565 S
C365 C378 1.684 . S
H366 C390 0.948 . S
C367 C363 1.397 . S
C367 C368 1.394 . S
C367 C386 1.723 . S
C368 C365 1.396 . S
C368 C367 1.394 . S
C368 C398 1.723 1_565 S
H369 C392 0.947 . S
H370 C393 0.948 . S
H371 C399 0.982 . S
H372 C400 0.979 . S
H373 C400 0.980 . S
H374 C400 0.983 . S
H375 C399 0.979 . S
H376 C399 0.977 . S
C377 C365 1.453 1_545 S
C377 H406 0.982 . S
C377 H407 0.979 1_545 S
C377 H408 0.977 . S
C378 C365 1.684 . S
C378 H403 0.979 . S
C378 H404 0.980 . S
C378 H405 0.983 . S
C379 C380 1.391 . S
C379 C384 1.391 . S
C379 H409 0.948 . S
C380 C379 1.391 . S
C380 C381 1.391 1_565 S
C381 C380 1.391 1_545 S
C381 C382 1.392 . S
C381 H410 0.947 . S
C382 C381 1.392 . S
C382 C383 1.419 . S
C382 H411 0.948 . S
C383 C382 1.419 . S
C383 C384 1.391 1_545 S
C383 C387 1.397 . S
C384 C379 1.391 . S
C384 C383 1.391 1_565 S
C384 C385 1.399 . S
C385 C384 1.399 . S
C385 C386 1.396 . S
C385 C388 1.453 . S
C385 C389 1.684 . S
C386 C367 1.723 . S
C386 C385 1.396 . S
C386 C387 1.394 1_565 S
C387 C383 1.397 . S
C387 C386 1.394 1_545 S
C387 C397 1.723 . S
C388 C385 1.453 . S
C388 H412 0.982 . S
C388 H413 0.979 . S
C388 H414 0.977 . S
C389 C385 1.684 . S
C389 H415 0.979 . S
C389 H416 0.980 . S
C389 H417 0.983 . S
C390 H366 0.948 . S
C390 C391 1.391 . S
C390 C395 1.391 . S
C391 C390 1.391 . S
C391 C392 1.391 . S
C392 H369 0.947 . S
C392 C391 1.391 . S
C392 C393 1.392 . S
C393 H370 0.948 . S
C393 C392 1.392 . S
C393 C394 1.419 . S
C394 C393 1.419 . S
C394 C395 1.391 . S
C394 C398 1.397 . S
C395 C390 1.391 . S
C395 C394 1.391 . S
C395 C396 1.399 . S
C396 C395 1.399 . S
C396 C397 1.396 . S
C396 C399 1.453 . S
C396 C400 1.684 . S
C397 C387 1.723 . S
C397 C396 1.396 . S
C397 C398 1.394 . S
C398 C368 1.723 1_545 S
C398 C394 1.397 . S
C398 C397 1.394 . S
C399 H371 0.982 . S
C399 H375 0.979 . S
C399 H376 0.977 . S
C399 C396 1.453 . S
C400 H372 0.979 . S
C400 H373 0.980 . S
C400 H374 0.983 . S
C400 C396 1.684 . S
H401 C419 0.948 . S
H402 C360 0.948 . S
H403 C378 0.979 . S
H404 C378 0.980 . S
H405 C378 0.983 . S
H406 C377 0.982 . S
H407 C377 0.979 1_565 S
H408 C377 0.977 . S
H409 C379 0.948 . S
H410 C381 0.947 . S
H411 C382 0.948 . S
H412 C388 0.982 . S
H413 C388 0.979 . S
H414 C388 0.977 . S
H415 C389 0.979 . S
H416 C389 0.980 . S
H417 C389 0.983 . S
H418 C362 0.947 . S
C419 C362 1.392 . S
C419 C363 1.419 . S
C419 H401 0.948 . S
C420 C421 1.391 . S
C420 C424 1.391 . S
C420 H462 0.948 . S
C421 C420 1.391 . S
C421 C422 1.391 . S
C422 C421 1.391 . S
C422 H478 0.947 . S
C422 C479 1.392 . S
C423 C424 1.391 . S
C423 C427 1.397 . S
C423 C479 1.419 . S
C424 C420 1.391 . S
C424 C423 1.391 . S
C424 C425 1.399 . S
C425 C424 1.399 . S
C425 C428 1.396 . S
C425 C437 1.453 . S
C425 C438 1.684 . S
H426 C450 0.948 . S
C427 C423 1.397 . S
C427 C428 1.394 . S
C427 C446 1.723 . S
C428 C425 1.396 . S
C428 C427 1.394 . S
C428 C458 1.723 . S
H429 C452 0.947 . S
H430 C453 0.948 . S
H431 C459 0.982 . S
H432 C460 0.979 . S
H433 C460 0.980 . S
H434 C460 0.983 . S
H435 C459 0.979 . S
H436 C459 0.977 . S
C437 C425 1.453 . S
C437 H466 0.982 . S
C437 H467 0.979 . S
C437 H468 0.977 . S
C438 C425 1.684 . S
C438 H463 0.979 . S
C438 H464 0.980 . S
C438 H465 0.983 . S
C439 C440 1.391 . S
C439 C444 1.391 . S
C439 H469 0.948 . S
C440 C439 1.391 . S
C440 C441 1.391 . S
C441 C440 1.391 . S
C441 C442 1.392 . S
C441 H470 0.947 . S
C442 C441 1.392 . S
C442 C443 1.419 . S
C442 H471 0.948 . S
C443 C442 1.419 . S
C443 C444 1.391 . S
C443 C447 1.397 . S
C444 C439 1.391 . S
C444 C443 1.391 . S
C444 C445 1.399 . S
C445 C444 1.399 . S
C445 C446 1.396 . S
C445 C448 1.453 . S
C445 C449 1.684 . S
C446 C427 1.723 . S
C446 C445 1.396 . S
C446 C447 1.394 . S
C447 C443 1.397 . S
C447 C446 1.394 . S
C447 C457 1.723 . S
C448 C445 1.453 . S
C448 H472 0.982 . S
C448 H473 0.979 . S
C448 H474 0.977 . S
C449 C445 1.684 . S
C449 H475 0.979 . S
C449 H476 0.980 . S
C449 H477 0.983 . S
C450 H426 0.948 . S
C450 C451 1.391 . S
C450 C455 1.391 . S
C451 C450 1.391 . S
C451 C452 1.391 . S
C452 H429 0.947 . S
C452 C451 1.391 . S
C452 C453 1.392 . S
C453 H430 0.948 . S
C453 C452 1.392 . S
C453 C454 1.419 . S
C454 C453 1.419 . S
C454 C455 1.391 . S
C454 C458 1.397 . S
C455 C450 1.391 . S
C455 C454 1.391 . S
C455 C456 1.399 . S
C456 C455 1.399 . S
C456 C457 1.396 . S
C456 C459 1.453 . S
C456 C460 1.684 . S
C457 C447 1.723 . S
C457 C456 1.396 . S
C457 C458 1.394 . S
C458 C428 1.723 . S
C458 C454 1.397 . S
C458 C457 1.394 . S
C459 H431 0.982 . S
C459 H435 0.979 . S
C459 H436 0.977 . S
C459 C456 1.453 . S
C460 H432 0.979 . S
C460 H433 0.980 . S
C460 H434 0.983 . S
C460 C456 1.684 . S
H461 C479 0.948 . S
H462 C420 0.948 . S
H463 C438 0.979 . S
H464 C438 0.980 . S
H465 C438 0.983 . S
H466 C437 0.982 . S
H467 C437 0.979 . S
H468 C437 0.977 . S
H469 C439 0.948 . S
H470 C441 0.947 . S
H471 C442 0.948 . S
H472 C448 0.982 . S
H473 C448 0.979 . S
H474 C448 0.977 . S
H475 C449 0.979 . S
H476 C449 0.980 . S
H477 C449 0.983 . S
H478 C422 0.947 . S
C479 C422 1.392 . S
C479 C423 1.419 . S
C479 H461 0.948 . S
H480 C492 0.930 . S
H481 C494 0.930 . S
H482 C495 0.930 . S
H483 C499 0.959 . S
H484 C499 0.959 . S
H485 C499 0.961 . S
H486 C500 0.960 . S
H487 C500 0.961 . S
H488 C500 0.959 . S
H489 C503 0.929 . S
H490 C504 0.931 . S
H491 C506 0.930 . S
C492 H480 0.930 . S
C492 C493 1.399 . S
C492 C497 1.399 . S
C493 C492 1.399 . S
C493 C494 1.376 . S
C494 H481 0.930 . S
C494 C493 1.376 . S
C494 C495 1.388 . S
C495 H482 0.930 . S
C495 C494 1.388 . S
C495 C496 1.390 . S
C496 C495 1.390 . S
C496 C497 1.394 . S
C496 C502 1.465 . S
C497 C492 1.399 . S
C497 C496 1.394 . S
C497 C498 1.516 . S
C498 C497 1.516 . S
C498 C499 1.502 . S
C498 C500 1.561 . S
C498 C501 1.526 . S
C499 H483 0.959 . S
C499 H484 0.959 . S
C499 H485 0.961 . S
C499 C498 1.502 . S
C500 H486 0.960 . S
C500 H487 0.961 . S
C500 H488 0.959 . S
C500 C498 1.561 . S
C501 C498 1.526 . S
C501 C502 1.396 . S
C501 C506 1.390 . S
C502 C496 1.465 . S
C502 C501 1.396 . S
C502 C503 1.399 . S
C503 H489 0.929 . S
C503 C502 1.399 . S
C503 C504 1.385 . S
C504 H490 0.931 . S
C504 C503 1.385 . S
C504 C505 1.389 . S
C505 C504 1.389 . S
C505 C506 1.387 . S
C506 H491 0.930 . S
C506 C501 1.390 . S
C506 C505 1.387 . S
H507 C519 0.930 . S
H508 C521 0.930 . S
H509 C522 0.930 . S
H510 C526 0.959 . S
H511 C526 0.959 . S
H512 C526 0.961 . S
H513 C527 0.960 . S
H514 C527 0.961 . S
H515 C527 0.959 . S
H516 C530 0.929 . S
H517 C531 0.931 . S
H518 C533 0.930 . S
C519 H507 0.930 . S
C519 C520 1.399 . S
C519 C524 1.399 . S
C520 C519 1.399 . S
C520 C521 1.376 . S
C521 H508 0.930 . S
C521 C520 1.376 . S
C521 C522 1.388 . S
C522 H509 0.930 . S
C522 C521 1.388 . S
C522 C523 1.390 . S
C523 C522 1.390 . S
C523 C524 1.394 . S
C523 C529 1.465 . S
C524 C519 1.399 . S
C524 C523 1.394 . S
C524 C525 1.516 . S
C525 C524 1.516 . S
C525 C526 1.502 . S
C525 C527 1.561 . S
C525 C528 1.526 . S
C526 H510 0.959 . S
C526 H511 0.959 . S
C526 H512 0.961 . S
C526 C525 1.502 . S
C527 H513 0.960 . S
C527 H514 0.961 . S
C527 H515 0.959 . S
C527 C525 1.561 . S
C528 C525 1.526 . S
C528 C529 1.396 . S
C528 C533 1.390 . S
C529 C523 1.465 . S
C529 C528 1.396 . S
C529 C530 1.399 . S
C530 H516 0.929 . S
C530 C529 1.399 . S
C530 C531 1.385 . S
C531 H517 0.931 . S
C531 C530 1.385 . S
C531 C532 1.389 . S
C532 C531 1.389 . S
C532 C533 1.387 . S
C533 H518 0.930 . S
C533 C528 1.390 . S
C533 C532 1.387 . S
H534 C546 0.930 . S
H535 C548 0.930 . S
H536 C549 0.930 . S
H537 C553 0.959 . S
H538 C553 0.959 . S
H539 C553 0.961 . S
H540 C554 0.960 . S
H541 C554 0.961 . S
H542 C554 0.959 . S
H543 C557 0.929 . S
H544 C558 0.931 . S
H545 C560 0.930 . S
C546 H534 0.930 . S
C546 C547 1.399 . S
C546 C551 1.399 . S
C547 C546 1.399 . S
C547 C548 1.376 . S
C548 H535 0.930 . S
C548 C547 1.376 . S
C548 C549 1.388 . S
C549 H536 0.930 . S
C549 C548 1.388 . S
C549 C550 1.390 . S
C550 C549 1.390 . S
C550 C551 1.394 . S
C550 C556 1.465 . S
C551 C546 1.399 . S
C551 C550 1.394 . S
C551 C552 1.516 . S
C552 C551 1.516 . S
C552 C553 1.502 . S
C552 C554 1.561 . S
C552 C555 1.526 . S
C553 H537 0.959 . S
C553 H538 0.959 . S
C553 H539 0.961 . S
C553 C552 1.502 . S
C554 H540 0.960 . S
C554 H541 0.961 . S
C554 H542 0.959 . S
C554 C552 1.561 . S
C555 C552 1.526 . S
C555 C556 1.396 . S
C555 C560 1.390 . S
C556 C550 1.465 . S
C556 C555 1.396 . S
C556 C557 1.399 . S
C557 H543 0.929 . S
C557 C556 1.399 . S
C557 C558 1.385 . S
C558 H544 0.931 . S
C558 C557 1.385 . S
C558 C559 1.389 . S
C559 C558 1.389 . S
C559 C560 1.387 . S
C560 H545 0.930 . S
C560 C555 1.390 . S
C560 C559 1.387 . S
H561 C573 0.930 . S
H562 C575 0.930 . S
H563 C576 0.930 . S
H564 C580 0.959 . S
H565 C580 0.959 . S
H566 C580 0.961 . S
H567 C581 0.960 . S
H568 C581 0.961 . S
H569 C581 0.959 . S
H570 C584 0.929 . S
H571 C585 0.931 . S
H572 C587 0.930 . S
C573 H561 0.930 . S
C573 C574 1.399 . S
C573 C578 1.399 . S
C574 C573 1.399 . S
C574 C575 1.376 . S
C575 H562 0.930 . S
C575 C574 1.376 . S
C575 C576 1.388 . S
C576 H563 0.930 . S
C576 C575 1.388 . S
C576 C577 1.390 . S
C577 C576 1.390 . S
C577 C578 1.394 . S
C577 C583 1.465 . S
C578 C573 1.399 . S
C578 C577 1.394 . S
C578 C579 1.516 . S
C579 C578 1.516 . S
C579 C580 1.502 . S
C579 C581 1.561 . S
C579 C582 1.526 . S
C580 H564 0.959 . S
C580 H565 0.959 . S
C580 H566 0.961 . S
C580 C579 1.502 . S
C581 H567 0.960 . S
C581 H568 0.961 . S
C581 H569 0.959 . S
C581 C579 1.561 . S
C582 C579 1.526 . S
C582 C583 1.396 . S
C582 C587 1.390 . S
C583 C577 1.465 . S
C583 C582 1.396 . S
C583 C584 1.399 . S
C584 H570 0.929 . S
C584 C583 1.399 . S
C584 C585 1.385 . S
C585 H571 0.931 . S
C585 C584 1.385 . S
C585 C586 1.389 . S
C586 C585 1.389 . S
C586 C587 1.387 . S
C587 H572 0.930 . S
C587 C582 1.390 . S
C587 C586 1.387 . S
H588 C600 0.930 . S
H589 C602 0.930 . S
H590 C603 0.930 . S
H591 C607 0.959 . S
H592 C607 0.959 . S
H593 C607 0.961 . S
H594 C608 0.960 . S
H595 C608 0.961 . S
H596 C608 0.959 . S
H597 C611 0.929 . S
H598 C612 0.931 . S
H599 C614 0.930 . S
C600 H588 0.930 . S
C600 C601 1.399 . S
C600 C605 1.399 . S
C601 C600 1.399 . S
C601 C602 1.376 . S
C602 H589 0.930 . S
C602 C601 1.376 . S
C602 C603 1.388 . S
C603 H590 0.930 . S
C603 C602 1.388 . S
C603 C604 1.390 . S
C604 C603 1.390 . S
C604 C605 1.394 . S
C604 C610 1.465 . S
C605 C600 1.399 . S
C605 C604 1.394 . S
C605 C606 1.516 . S
C606 C605 1.516 . S
C606 C607 1.502 . S
C606 C608 1.561 . S
C606 C609 1.526 . S
C607 H591 0.959 . S
C607 H592 0.959 . S
C607 H593 0.961 . S
C607 C606 1.502 . S
C608 H594 0.960 . S
C608 H595 0.961 . S
C608 H596 0.959 . S
C608 C606 1.561 . S
C609 C606 1.526 . S
C609 C610 1.396 . S
C609 C614 1.390 . S
C610 C604 1.465 . S
C610 C609 1.396 . S
C610 C611 1.399 . S
C611 H597 0.929 . S
C611 C610 1.399 . S
C611 C612 1.385 . S
C612 H598 0.931 . S
C612 C611 1.385 . S
C612 C613 1.389 . S
C613 C612 1.389 . S
C613 C614 1.387 . S
C614 H599 0.930 . S
C614 C609 1.390 . S
C614 C613 1.387 . S
H615 C627 0.930 . S
H616 C629 0.930 . S
H617 C630 0.930 . S
H618 C634 0.959 . S
H619 C634 0.959 . S
H620 C634 0.961 . S
H621 C635 0.960 . S
H622 C635 0.961 . S
H623 C635 0.959 . S
H624 C638 0.929 . S
H625 C639 0.931 . S
H626 C641 0.930 . S
C627 H615 0.930 . S
C627 C628 1.399 . S
C627 C632 1.399 . S
C628 C627 1.399 . S
C628 C629 1.376 . S
C629 H616 0.930 . S
C629 C628 1.376 . S
C629 C630 1.388 . S
C630 H617 0.930 . S
C630 C629 1.388 . S
C630 C631 1.390 . S
C631 C630 1.390 . S
C631 C632 1.394 . S
C631 C637 1.465 . S
C632 C627 1.399 . S
C632 C631 1.394 . S
C632 C633 1.516 . S
C633 C632 1.516 . S
C633 C634 1.502 . S
C633 C635 1.561 . S
C633 C636 1.526 . S
C634 H618 0.959 . S
C634 H619 0.959 . S
C634 H620 0.961 . S
C634 C633 1.502 . S
C635 H621 0.960 . S
C635 H622 0.961 . S
C635 H623 0.959 . S
C635 C633 1.561 . S
C636 C633 1.526 . S
C636 C637 1.396 . S
C636 C641 1.390 . S
C637 C631 1.465 . S
C637 C636 1.396 . S
C637 C638 1.399 . S
C638 H624 0.929 . S
C638 C637 1.399 . S
C638 C639 1.385 . S
C639 H625 0.931 . S
C639 C638 1.385 . S
C639 C640 1.389 . S
C640 C639 1.389 . S
C640 C641 1.387 . S
C641 H626 0.930 . S
C641 C636 1.390 . S
C641 C640 1.387 . S
H642 C654 0.930 . S
H643 C656 0.930 . S
H644 C657 0.930 . S
H645 C661 0.959 . S
H646 C661 0.959 . S
H647 C661 0.961 . S
H648 C662 0.960 . S
H649 C662 0.961 . S
H650 C662 0.959 . S
H651 C665 0.929 . S
H652 C666 0.931 . S
H653 C668 0.930 . S
C654 H642 0.930 . S
C654 C655 1.399 . S
C654 C659 1.399 . S
C655 C654 1.399 . S
C655 C656 1.376 . S
C656 H643 0.930 . S
C656 C655 1.376 . S
C656 C657 1.388 . S
C657 H644 0.930 . S
C657 C656 1.388 . S
C657 C658 1.390 . S
C658 C657 1.390 . S
C658 C659 1.394 . S
C658 C664 1.465 . S
C659 C654 1.399 . S
C659 C658 1.394 . S
C659 C660 1.516 . S
C660 C659 1.516 . S
C660 C661 1.502 . S
C660 C662 1.561 . S
C660 C663 1.526 . S
C661 H645 0.959 . S
C661 H646 0.959 . S
C661 H647 0.961 . S
C661 C660 1.502 . S
C662 H648 0.960 . S
C662 H649 0.961 . S
C662 H650 0.959 . S
C662 C660 1.561 . S
C663 C660 1.526 . S
C663 C664 1.396 . S
C663 C668 1.390 . S
C664 C658 1.465 . S
C664 C663 1.396 . S
C664 C665 1.399 . S
C665 H651 0.929 . S
C665 C664 1.399 . S
C665 C666 1.385 . S
C666 H652 0.931 . S
C666 C665 1.385 . S
C666 C667 1.389 . S
C667 C666 1.389 . S
C667 C668 1.387 . S
C668 H653 0.930 . S
C668 C663 1.390 . S
C668 C667 1.387 . S
H669 C681 0.930 . S
H670 C683 0.930 . S
H671 C684 0.930 . S
H672 C688 0.959 . S
H673 C688 0.959 . S
H674 C688 0.961 . S
H675 C689 0.960 . S
H676 C689 0.961 . S
H677 C689 0.959 . S
H678 C692 0.929 . S
H679 C693 0.931 . S
H680 C695 0.930 . S
C681 H669 0.930 . S
C681 C682 1.399 . S
C681 C686 1.399 . S
C682 C681 1.399 . S
C682 C683 1.376 . S
C683 H670 0.930 . S
C683 C682 1.376 . S
C683 C684 1.388 . S
C684 H671 0.930 . S
C684 C683 1.388 . S
C684 C685 1.390 . S
C685 C684 1.390 . S
C685 C686 1.394 . S
C685 C691 1.465 . S
C686 C681 1.399 . S
C686 C685 1.394 . S
C686 C687 1.516 . S
C687 C686 1.516 . S
C687 C688 1.502 . S
C687 C689 1.561 . S
C687 C690 1.526 . S
C688 H672 0.959 . S
C688 H673 0.959 . S
C688 H674 0.961 . S
C688 C687 1.502 . S
C689 H675 0.960 . S
C689 H676 0.961 . S
C689 H677 0.959 . S
C689 C687 1.561 . S
C690 C687 1.526 . S
C690 C691 1.396 . S
C690 C695 1.390 . S
C691 C685 1.465 . S
C691 C690 1.396 . S
C691 C692 1.399 . S
C692 H678 0.929 . S
C692 C691 1.399 . S
C692 C693 1.385 . S
C693 H679 0.931 . S
C693 C692 1.385 . S
C693 C694 1.389 . S
C694 C693 1.389 . S
C694 C695 1.387 . S
C695 H680 0.930 . S
C695 C690 1.390 . S
C695 C694 1.387 . S
H696 C708 0.930 . S
H697 C710 0.930 . S
H698 C711 0.930 . S
H699 C715 0.959 . S
H700 C715 0.959 . S
H701 C715 0.961 . S
H702 C716 0.960 . S
H703 C716 0.961 . S
H704 C716 0.959 . S
H705 C719 0.929 . S
H706 C720 0.931 . S
H707 C722 0.930 . S
C708 H696 0.930 . S
C708 C709 1.399 . S
C708 C713 1.399 . S
C709 C708 1.399 . S
C709 C710 1.376 . S
C710 H697 0.930 . S
C710 C709 1.376 . S
C710 C711 1.388 . S
C711 H698 0.930 . S
C711 C710 1.388 . S
C711 C712 1.390 . S
C712 C711 1.390 . S
C712 C713 1.394 . S
C712 C718 1.465 . S
C713 C708 1.399 . S
C713 C712 1.394 . S
C713 C714 1.516 . S
C714 C713 1.516 . S
C714 C715 1.502 . S
C714 C716 1.561 . S
C714 C717 1.526 . S
C715 H699 0.959 . S
C715 H700 0.959 . S
C715 H701 0.961 . S
C715 C714 1.502 . S
C716 H702 0.960 . S
C716 H703 0.961 . S
C716 H704 0.959 . S
C716 C714 1.561 . S
C717 C714 1.526 . S
C717 C718 1.396 . S
C717 C722 1.390 . S
C718 C712 1.465 . S
C718 C717 1.396 . S
C718 C719 1.399 . S
C719 H705 0.929 . S
C719 C718 1.399 . S
C719 C720 1.385 . S
C720 H706 0.931 . S
C720 C719 1.385 . S
C720 C721 1.389 . S
C721 C720 1.389 . S
C721 C722 1.387 . S
C722 H707 0.930 . S
C722 C717 1.390 . S
C722 C721 1.387 . S
H723 C735 0.930 . S
H724 C737 0.930 . S
H725 C738 0.930 . S
H726 C742 0.959 . S
H727 C742 0.959 . S
H728 C742 0.961 . S
H729 C743 0.960 . S
H730 C743 0.961 . S
H731 C743 0.959 . S
H732 C746 0.929 . S
H733 C747 0.931 . S
H734 C749 0.930 . S
C735 H723 0.930 . S
C735 C736 1.399 . S
C735 C740 1.399 . S
C736 C735 1.399 . S
C736 C737 1.376 . S
C737 H724 0.930 . S
C737 C736 1.376 . S
C737 C738 1.388 . S
C738 H725 0.930 . S
C738 C737 1.388 . S
C738 C739 1.390 . S
C739 C738 1.390 . S
C739 C740 1.394 . S
C739 C745 1.465 . S
C740 C735 1.399 . S
C740 C739 1.394 . S
C740 C741 1.516 . S
C741 C740 1.516 . S
C741 C742 1.502 . S
C741 C743 1.561 . S
C741 C744 1.526 . S
C742 H726 0.959 . S
C742 H727 0.959 . S
C742 H728 0.961 . S
C742 C741 1.502 . S
C743 H729 0.960 . S
C743 H730 0.961 . S
C743 H731 0.959 . S
C743 C741 1.561 . S
C744 C741 1.526 . S
C744 C745 1.396 . S
C744 C749 1.390 . S
C745 C739 1.465 . S
C745 C744 1.396 . S
C745 C746 1.399 . S
C746 H732 0.929 . S
C746 C745 1.399 . S
C746 C747 1.385 . S
C747 H733 0.931 . S
C747 C746 1.385 . S
C747 C748 1.389 . S
C748 C747 1.389 . S
C748 C749 1.387 . S
C749 H734 0.930 . S
C749 C744 1.390 . S
C749 C748 1.387 . S
H750 C762 0.930 . S
H751 C764 0.930 . S
H752 C765 0.930 . S
H753 C769 0.959 . S
H754 C769 0.959 . S
H755 C769 0.961 . S
H756 C770 0.960 . S
H757 C770 0.961 . S
H758 C770 0.959 . S
H759 C773 0.929 . S
H760 C774 0.931 . S
H761 C776 0.930 . S
C762 H750 0.930 . S
C762 C763 1.399 . S
C762 C767 1.399 . S
C763 C762 1.399 . S
C763 C764 1.376 . S
C764 H751 0.930 . S
C764 C763 1.376 . S
C764 C765 1.388 . S
C765 H752 0.930 . S
C765 C764 1.388 . S
C765 C766 1.390 . S
C766 C765 1.390 . S
C766 C767 1.394 . S
C766 C772 1.465 . S
C767 C762 1.399 . S
C767 C766 1.394 . S
C767 C768 1.516 . S
C768 C767 1.516 . S
C768 C769 1.502 . S
C768 C770 1.561 . S
C768 C771 1.526 . S
C769 H753 0.959 . S
C769 H754 0.959 . S
C769 H755 0.961 . S
C769 C768 1.502 . S
C770 H756 0.960 . S
C770 H757 0.961 . S
C770 H758 0.959 . S
C770 C768 1.561 . S
C771 C768 1.526 . S
C771 C772 1.396 . S
C771 C776 1.390 . S
C772 C766 1.465 . S
C772 C771 1.396 . S
C772 C773 1.399 . S
C773 H759 0.929 . S
C773 C772 1.399 . S
C773 C774 1.385 . S
C774 H760 0.931 . S
C774 C773 1.385 . S
C774 C775 1.389 . S
C775 C774 1.389 . S
C775 C776 1.387 . S
C776 H761 0.930 . S
C776 C771 1.390 . S
C776 C775 1.387 . S
H777 C789 0.930 . S
H778 C791 0.930 . S
H779 C792 0.930 . S
H780 C796 0.959 . S
H781 C796 0.959 . S
H782 C796 0.961 . S
H783 C797 0.960 . S
H784 C797 0.961 . S
H785 C797 0.959 . S
H786 C800 0.929 . S
H787 C801 0.931 . S
H788 C803 0.930 . S
C789 H777 0.930 . S
C789 C790 1.399 . S
C789 C794 1.399 . S
C790 C789 1.399 . S
C790 C791 1.376 . S
C791 H778 0.930 . S
C791 C790 1.376 . S
C791 C792 1.388 . S
C792 H779 0.930 . S
C792 C791 1.388 . S
C792 C793 1.390 . S
C793 C792 1.390 . S
C793 C794 1.394 . S
C793 C799 1.465 . S
C794 C789 1.399 . S
C794 C793 1.394 . S
C794 C795 1.516 . S
C795 C794 1.516 . S
C795 C796 1.502 . S
C795 C797 1.561 . S
C795 C798 1.526 . S
C796 H780 0.959 . S
C796 H781 0.959 . S
C796 H782 0.961 . S
C796 C795 1.502 . S
C797 H783 0.960 . S
C797 H784 0.961 . S
C797 H785 0.959 . S
C797 C795 1.561 . S
C798 C795 1.526 . S
C798 C799 1.396 . S
C798 C803 1.390 . S
C799 C793 1.465 . S
C799 C798 1.396 . S
C799 C800 1.399 . S
C800 H786 0.929 . S
C800 C799 1.399 . S
C800 C801 1.385 . S
C801 H787 0.931 . S
C801 C800 1.385 . S
C801 C802 1.389 . S
C802 C801 1.389 . S
C802 C803 1.387 . S
C803 H788 0.930 . S
C803 C798 1.390 . S
C803 C802 1.387 . S
H804 C816 0.930 . S
H805 C818 0.930 . S
H806 C819 0.930 . S
H807 C823 0.959 1_655 S
H808 C823 0.959 . S
H809 C823 0.961 . S
H810 C824 0.960 . S
H811 C824 0.961 . S
H812 C824 0.959 . S
H813 C827 0.929 . S
H814 C828 0.931 1_556 S
H815 C830 0.930 . S
C816 H804 0.930 . S
C816 C817 1.399 . S
C816 C821 1.399 . S
C817 C816 1.399 . S
C817 C818 1.376 . S
C818 H805 0.930 . S
C818 C817 1.376 . S
C818 C819 1.388 . S
C819 H806 0.930 . S
C819 C818 1.388 . S
C819 C820 1.390 . S
C820 C819 1.390 . S
C820 C821 1.394 . S
C820 C826 1.465 . S
C821 C816 1.399 . S
C821 C820 1.394 . S
C821 C822 1.516 . S
C822 C821 1.516 . S
C822 C823 1.502 . S
C822 C824 1.561 . S
C822 C825 1.526 . S
C823 H807 0.959 1_455 S
C823 H808 0.959 . S
C823 H809 0.961 . S
C823 C822 1.502 . S
C824 H810 0.960 . S
C824 H811 0.961 . S
C824 H812 0.959 . S
C824 C822 1.561 . S
C825 C822 1.526 . S
C825 C826 1.396 . S
C825 C830 1.390 . S
C826 C820 1.465 . S
C826 C825 1.396 . S
C826 C827 1.399 . S
C827 H813 0.929 . S
C827 C826 1.399 . S
C827 C828 1.385 . S
C828 H814 0.931 1_554 S
C828 C827 1.385 . S
C828 C829 1.399 . S
C829 C828 1.399 . S
C829 C830 1.409 . S
C830 H815 0.930 . S
C830 C825 1.390 . S
C830 C829 1.409 . S
H831 C843 0.930 . S
H832 C845 0.930 . S
H833 C846 0.930 . S
H834 C850 0.959 . S
H835 C850 0.959 . S
H836 C850 0.961 . S
H837 C851 0.960 . S
H838 C851 0.961 . S
H839 C851 0.959 . S
H840 C854 0.929 . S
H841 C855 0.931 . S
H842 C857 0.930 . S
C843 H831 0.930 . S
C843 C844 1.399 . S
C843 C848 1.399 . S
C844 C843 1.399 . S
C844 C845 1.376 1_545 S
C845 H832 0.930 . S
C845 C844 1.376 1_565 S
C845 C846 1.388 . S
C846 H833 0.930 . S
C846 C845 1.388 . S
C846 C847 1.390 . S
C847 C846 1.390 . S
C847 C848 1.394 1_565 S
C847 C853 1.467 . S
C848 C843 1.399 . S
C848 C847 1.394 1_545 S
C848 C849 1.516 . S
C849 C848 1.516 . S
C849 C850 1.502 . S
C849 C851 1.561 . S
C849 C852 1.526 . S
C850 H834 0.959 . S
C850 H835 0.959 . S
C850 H836 0.961 . S
C850 C849 1.502 . S
C851 H837 0.960 . S
C851 H838 0.961 . S
C851 H839 0.959 . S
C851 C849 1.561 . S
C852 C849 1.526 . S
C852 C853 1.381 1_545 S
C852 C857 1.390 . S
C853 C847 1.467 . S
C853 C852 1.381 1_565 S
C853 C854 1.410 . S
C854 H840 0.929 . S
C854 C853 1.410 . S
C854 C855 1.385 . S
C855 H841 0.931 . S
C855 C854 1.385 . S
C855 C856 1.389 1_565 S
C856 C855 1.389 1_545 S
C856 C857 1.387 . S
C857 H842 0.930 . S
C857 C852 1.390 . S
C857 C856 1.387 . S
H858 C870 0.930 . S
H859 C872 0.930 . S
H860 C873 0.930 . S
H861 C877 0.959 . S
H862 C877 0.959 . S
H863 C877 0.961 . S
H864 C878 0.960 . S
H865 C878 0.961 . S
H866 C878 0.959 . S
H867 C881 0.929 . S
H868 C882 0.931 . S
H869 C884 0.930 . S
C870 H858 0.930 . S
C870 C871 1.399 . S
C870 C875 1.399 . S
C871 C870 1.399 . S
C871 C872 1.376 . S
C872 H859 0.930 . S
C872 C871 1.376 . S
C872 C873 1.388 . S
C873 H860 0.930 . S
C873 C872 1.388 . S
C873 C874 1.390 . S
C874 C873 1.390 . S
C874 C875 1.394 . S
C874 C880 1.465 . S
C875 C870 1.399 . S
C875 C874 1.394 . S
C875 C876 1.516 . S
C876 C875 1.516 . S
C876 C877 1.502 . S
C876 C878 1.561 . S
C876 C879 1.526 . S
C877 H861 0.959 . S
C877 H862 0.959 . S
C877 H863 0.961 . S
C877 C876 1.502 . S
C878 H864 0.960 . S
C878 H865 0.961 . S
C878 H866 0.959 . S
C878 C876 1.561 . S
C879 C876 1.526 . S
C879 C880 1.396 . S
C879 C884 1.390 . S
C880 C874 1.465 . S
C880 C879 1.396 . S
C880 C881 1.399 . S
C881 H867 0.929 . S
C881 C880 1.399 . S
C881 C882 1.385 . S
C882 H868 0.931 . S
C882 C881 1.385 . S
C882 C883 1.389 . S
C883 C882 1.389 . S
C883 C884 1.387 . S
C884 H869 0.930 . S
C884 C879 1.390 . S
C884 C883 1.387 . S
H885 C897 0.930 . S
H886 C899 0.930 . S
H887 C900 0.930 . S
H888 C904 0.959 . S
H889 C904 0.959 . S
H890 C904 0.961 . S
H891 C905 0.960 . S
H892 C905 0.961 . S
H893 C905 0.959 . S
H894 C908 0.929 . S
H895 C909 0.931 . S
H896 C911 0.930 . S
C897 H885 0.930 . S
C897 C898 1.399 . S
C897 C902 1.399 . S
C898 C897 1.399 . S
C898 C899 1.376 1_545 S
C899 H886 0.930 . S
C899 C898 1.376 1_565 S
C899 C900 1.388 . S
C900 H887 0.930 . S
C900 C899 1.388 . S
C900 C901 1.390 . S
C901 C900 1.390 . S
C901 C902 1.394 1_565 S
C901 C907 1.465 . S
C902 C897 1.399 . S
C902 C901 1.394 1_545 S
C902 C903 1.516 . S
C903 C902 1.516 . S
C903 C904 1.502 . S
C903 C905 1.561 . S
C903 C906 1.526 . S
C904 H888 0.959 . S
C904 H889 0.959 . S
C904 H890 0.961 . S
C904 C903 1.502 . S
C905 H891 0.960 . S
C905 H892 0.961 . S
C905 H893 0.959 . S
C905 C903 1.561 . S
C906 C903 1.526 . S
C906 C907 1.396 1_545 S
C906 C911 1.390 . S
C907 C901 1.465 . S
C907 C906 1.396 1_565 S
C907 C908 1.399 . S
C908 H894 0.929 . S
C908 C907 1.399 . S
C908 C909 1.385 . S
C909 H895 0.931 . S
C909 C908 1.385 . S
C909 C910 1.389 . S
C910 C909 1.389 . S
C910 C911 1.387 1_565 S
C911 H896 0.930 . S
C911 C906 1.390 . S
C911 C910 1.387 1_545 S
H912 C924 0.930 . S
H913 C926 0.930 . S
H914 C927 0.930 . S
H915 C931 0.959 . S
H916 C931 0.959 . S
H917 C931 0.961 . S
H918 C932 0.960 . S
H919 C932 0.961 . S
H920 C932 0.959 . S
H921 C935 0.929 . S
H922 C936 0.931 . S
H923 C938 0.930 . S
C924 H912 0.930 . S
C924 C925 1.399 . S
C924 C929 1.399 . S
C925 C924 1.399 . S
C925 C926 1.376 . S
C926 H913 0.930 . S
C926 C925 1.376 . S
C926 C927 1.388 . S
C927 H914 0.930 . S
C927 C926 1.388 . S
C927 C928 1.390 . S
C928 C927 1.390 . S
C928 C929 1.394 . S
C928 C934 1.465 . S
C929 C924 1.399 . S
C929 C928 1.394 . S
C929 C930 1.516 . S
C930 C929 1.516 . S
C930 C931 1.502 . S
C930 C932 1.561 . S
C930 C933 1.526 . S
C931 H915 0.959 . S
C931 H916 0.959 . S
C931 H917 0.961 . S
C931 C930 1.502 . S
C932 H918 0.960 . S
C932 H919 0.961 . S
C932 H920 0.959 . S
C932 C930 1.561 . S
C933 C930 1.526 . S
C933 C934 1.396 . S
C933 C938 1.390 . S
C934 C928 1.465 . S
C934 C933 1.396 . S
C934 C935 1.399 . S
C935 H921 0.929 . S
C935 C934 1.399 . S
C935 C936 1.385 . S
C936 H922 0.931 . S
C936 C935 1.385 . S
C936 C937 1.389 . S
C937 C936 1.389 . S
C937 C938 1.387 . S
C938 H923 0.930 . S
C938 C933 1.390 . S
C938 C937 1.387 . S
H939 C951 0.930 . S
H940 C953 0.930 . S
H941 C954 0.930 . S
H942 C958 0.959 . S
H943 C958 0.959 . S
H944 C958 0.961 . S
H945 C959 0.960 . S
H946 C959 0.961 . S
H947 C959 0.959 . S
H948 C962 0.929 . S
H949 C963 0.931 . S
H950 C965 0.930 . S
C951 H939 0.930 . S
C951 C952 1.399 . S
C951 C956 1.399 . S
C952 C951 1.399 . S
C952 C953 1.376 1_455 S
C953 H940 0.930 . S
C953 C952 1.376 1_655 S
C953 C954 1.388 . S
C954 H941 0.930 . S
C954 C953 1.388 . S
C954 C955 1.390 . S
C955 C954 1.390 . S
C955 C956 1.394 1_655 S
C955 C961 1.465 . S
C956 C951 1.399 . S
C956 C955 1.394 1_455 S
C956 C957 1.516 . S
C957 C956 1.516 . S
C957 C958 1.502 . S
C957 C959 1.561 . S
C957 C960 1.526 . S
C958 H942 0.959 . S
C958 H943 0.959 . S
C958 H944 0.961 . S
C958 C957 1.502 . S
C959 H945 0.960 . S
C959 H946 0.961 . S
C959 H947 0.959 . S
C959 C957 1.561 . S
C960 C957 1.526 . S
C960 C961 1.396 1_455 S
C960 C965 1.390 . S
C961 C955 1.465 . S
C961 C960 1.396 1_655 S
C961 C962 1.399 . S
C962 H948 0.929 . S
C962 C961 1.399 . S
C962 C963 1.385 . S
C963 H949 0.931 . S
C963 C962 1.385 . S
C963 C964 1.389 . S
C964 C963 1.389 . S
C964 C965 1.387 1_655 S
C965 H950 0.930 . S
C965 C960 1.390 . S
C965 C964 1.387 1_455 S
C493 C7 0.517 . S
C505 C451 0.615 . S
C520 C51 1.918 . S
C532 C301 1.820 . S
C547 C87 1.217 . S
C559 C361 1.177 . S
C574 C16 0.349 . S
C586 C421 0.419 . S
C613 C331 2.055 . S
C601 C42 2.054 . S
C640 C391 1.332 . S
C628 C96 1.335 . S
C655 C47 1.234 . S
C667 C181 1.191 . S
C682 C91 3.102 . S
C694 C271 3.107 . S
C709 C2 2.088 . S
C721 C151 2.098 . S
C748 C211 1.315 . S
C736 C56 1.324 . S
C775 C241 2.846 . S
C763 C82 2.999 . S
C790 C11 1.913 . S
C802 C121 1.752 . S
C829 C260 1.731 1_554 S
C817 C19 1.741 . S
C844 C50 1.301 . S
C856 C140 1.331 . S
C871 C99 1.431 . S
C883 C200 1.446 . S
C910 C380 1.460 . S
C898 C59 1.432 . S
C937 C440 1.069 1_556 S
C925 C90 1.096 . S
C952 C10 1.337 . S
C964 C320 1.364 1_655 S
