# Generated by pormake.
# Topology pyr, (3,6)-cn, num edge types: 1
# Building blocks:
#     Node 0, Type 0, BuildingBlock: INOVEN_clean_linker_0, # of connection points: 3
#     Node 1, Type 0, BuildingBlock: INOVEN_clean_linker_0, # of connection points: 3
#     Node 2, Type 0, BuildingBlock: INOVEN_clean_linker_0, # of connection points: 3
#     Node 3, Type 0, BuildingBlock: INOVEN_clean_linker_0, # of connection points: 3
#     Node 4, Type 0, BuildingBlock: INOVEN_clean_linker_0, # of connection points: 3
#     Node 5, Type 0, BuildingBlock: INOVEN_clean_linker_0, # of connection points: 3
#     Node 6, Type 0, BuildingBlock: INOVEN_clean_linker_0, # of connection points: 3
#     Node 7, Type 0, BuildingBlock: INOVEN_clean_linker_0, # of connection points: 3
#     Node 8, Type 1, BuildingBlock: JUFBIX_clean_sbu_0, # of connection points: 6
#     Node 9, Type 1, BuildingBlock: JUFBIX_clean_sbu_0, # of connection points: 6
#     Node 10, Type 1, BuildingBlock: JUFBIX_clean_sbu_0, # of connection points: 6
#     Node 11, Type 1, BuildingBlock: JUFBIX_clean_sbu_0, # of connection points: 6
#     Edge 12, Type (0, 1), BuildingBlock: CIFDUS_clean_linker_0, # of connection points: 2
#     Edge 13, Type (0, 1), BuildingBlock: CIFDUS_clean_linker_0, # of connection points: 2
#     Edge 14, Type (0, 1), BuildingBlock: CIFDUS_clean_linker_0, # of connection points: 2
#     Edge 15, Type (0, 1), BuildingBlock: CIFDUS_clean_linker_0, # of connection points: 2
#     Edge 16, Type (0, 1), BuildingBlock: CIFDUS_clean_linker_0, # of connection points: 2
#     Edge 17, Type (0, 1), BuildingBlock: CIFDUS_clean_linker_0, # of connection points: 2
#     Edge 18, Type (0, 1), BuildingBlock: CIFDUS_clean_linker_0, # of connection points: 2
#     Edge 19, Type (0, 1), BuildingBlock: CIFDUS_clean_linker_0, # of connection points: 2
#     Edge 20, Type (0, 1), BuildingBlock: CIFDUS_clean_linker_0, # of connection points: 2
#     Edge 21, Type (0, 1), BuildingBlock: CIFDUS_clean_linker_0, # of connection points: 2
#     Edge 22, Type (0, 1), BuildingBlock: CIFDUS_clean_linker_0, # of connection points: 2
#     Edge 23, Type (0, 1), BuildingBlock: CIFDUS_clean_linker_0, # of connection points: 2
#     Edge 24, Type (0, 1), BuildingBlock: CIFDUS_clean_linker_0, # of connection points: 2
#     Edge 25, Type (0, 1), BuildingBlock: CIFDUS_clean_linker_0, # of connection points: 2
#     Edge 26, Type (0, 1), BuildingBlock: CIFDUS_clean_linker_0, # of connection points: 2
#     Edge 27, Type (0, 1), BuildingBlock: CIFDUS_clean_linker_0, # of connection points: 2
#     Edge 28, Type (0, 1), BuildingBlock: CIFDUS_clean_linker_0, # of connection points: 2
#     Edge 29, Type (0, 1), BuildingBlock: CIFDUS_clean_linker_0, # of connection points: 2
#     Edge 30, Type (0, 1), BuildingBlock: CIFDUS_clean_linker_0, # of connection points: 2
#     Edge 31, Type (0, 1), BuildingBlock: CIFDUS_clean_linker_0, # of connection points: 2
#     Edge 32, Type (0, 1), BuildingBlock: CIFDUS_clean_linker_0, # of connection points: 2
#     Edge 33, Type (0, 1), BuildingBlock: CIFDUS_clean_linker_0, # of connection points: 2
#     Edge 34, Type (0, 1), BuildingBlock: CIFDUS_clean_linker_0, # of connection points: 2
#     Edge 35, Type (0, 1), BuildingBlock: CIFDUS_clean_linker_0, # of connection points: 2
# Relax obj value: 0.137
# Max RMSD: 0.203
# Mean RMSD: 0.125
data_MOF--net-pyr--node1-JUFBIX_clean_sbu_0--node2-INOVEN_clean_linker_0--edge1-CIFDUS_clean_linker_0
_symmetry_space_group_name_H-M    P1
_symmetry_Int_Tables_number       1
_symmetry_cell_setting            triclinic
loop_
_symmetry_equiv_pos_as_xyz
'x, y, z'
_cell_length_a     31.285098
_cell_length_b     30.222339
_cell_length_c     33.497256
_cell_angle_alpha  82.619521
_cell_angle_beta   88.07245
_cell_angle_gamma 94.997844
loop_
_atom_site_label
_atom_site_type_symbol
_atom_site_fract_x
_atom_site_fract_y
_atom_site_fract_z
_atom_type_partial_charge
H0 H 0.16177 0.21172 0.25428 0.0
H1 H 0.26223 0.12329 0.25672 0.0
H2 H 0.25921 0.23101 0.15869 0.0
N3 N 0.18603 0.26279 0.18867 0.0
N4 N 0.19528 0.28688 0.15578 0.0
C5 C 0.19008 0.2006 0.24049 0.0
C6 C 0.20934 0.16407 0.26003 0.0
C7 C 0.20734 0.22471 0.20417 0.0
C8 C 0.24525 0.21186 0.1863 0.0
C9 C 0.26602 0.17533 0.20535 0.0
C10 C 0.24732 0.15172 0.2421 0.0
H11 H 0.47938 0.86502 0.6396 0.0
H12 H 0.53782 0.84871 0.75487 0.0
H13 H 0.47649 0.96803 0.71535 0.0
N14 N 0.44407 0.93884 0.65067 0.0
N15 N 0.41459 0.95575 0.66752 0.0
C16 C 0.48892 0.87824 0.6669 0.0
C17 C 0.5118 0.85284 0.6955 0.0
C18 C 0.47529 0.91893 0.6747 0.0
C19 C 0.48674 0.93583 0.71008 0.0
C20 C 0.50821 0.91056 0.73981 0.0
C21 C 0.52182 0.86912 0.73204 0.0
H22 H 0.66479 0.37839 0.89796 0.0
H23 H 0.74598 0.38137 0.99901 0.0
H24 H 0.7717 0.4777 0.89202 0.0
N25 N 0.70197 0.44672 0.85285 0.0
N26 N 0.72023 0.47916 0.82989 0.0
C27 C 0.69189 0.39321 0.91252 0.0
C28 C 0.70143 0.3756 0.95171 0.0
C29 C 0.71647 0.42987 0.89112 0.0
C30 C 0.75278 0.44898 0.90847 0.0
C31 C 0.76401 0.43141 0.94753 0.0
C32 C 0.7379 0.39481 0.96895 0.0
H33 H 0.93923 0.60046 0.49002 0.0
H34 H 0.95592 0.7195 0.54813 0.0
H35 H 0.04469 0.69895 0.45334 0.0
N36 N 1.00117 0.62309 0.43602 0.0
N37 N 1.01887 0.64356 0.40425 0.0
C38 C 0.95863 0.63032 0.4957 0.0
C39 C 0.94346 0.65741 0.52317 0.0
C40 C 0.99471 0.64517 0.47025 0.0
C41 C 1.01797 0.68612 0.47428 0.0
C42 C 1.00466 0.71244 0.50306 0.0
C43 C 0.96789 0.69758 0.52797 0.0
H44 H 0.86082 0.95941 0.83602 0.0
H45 H 0.96129 0.87132 0.84247 0.0
H46 H 0.86667 0.86262 0.94121 0.0
N47 N 0.82226 0.93134 0.9053 0.0
N48 N 0.80717 0.92432 0.94086 0.0
C49 C 0.87672 0.9326 0.85226 0.0
C50 C 0.91307 0.91755 0.83438 0.0
C51 C 0.86026 0.91407 0.89088 0.0
C52 C 0.88028 0.87837 0.91218 0.0
C53 C 0.91659 0.86163 0.89457 0.0
C54 C 0.93321 0.88286 0.85621 0.0
H55 H 0.56415 0.17384 0.4298 0.0
H56 H 0.66218 0.08219 0.43397 0.0
H57 H 0.66801 0.18645 0.50991 0.0
N58 N 0.59717 0.22342 0.48197 0.0
N59 N 0.62115 0.25423 0.49302 0.0
C60 C 0.59273 0.1614 0.44288 0.0
C61 C 0.61017 0.12469 0.42904 0.0
C62 C 0.61352 0.18398 0.47173 0.0
C63 C 0.65142 0.16888 0.48788 0.0
C64 C 0.66855 0.13179 0.47453 0.0
C65 C 0.64781 0.10978 0.44532 0.0
H66 H 0.4438 0.74159 0.21902 0.0
H67 H 0.34517 0.74217 0.13338 0.0
H68 H 0.33509 0.64365 0.2402 0.0
N69 N 0.41322 0.67547 0.26864 0.0
N70 N 0.39745 0.6489 0.29809 0.0
C71 C 0.41377 0.72714 0.2089 0.0
C72 C 0.3976 0.74566 0.17277 0.0
C73 C 0.39188 0.69101 0.23339 0.0
C74 C 0.35195 0.67221 0.22159 0.0
C75 C 0.33489 0.69013 0.18466 0.0
C76 C 0.358 0.72731 0.16108 0.0
H77 H 0.03643 0.38041 0.6568 0.0
H78 H 0.137 0.35355 0.57489 0.0
H79 H 0.1528 0.4674 0.6394 0.0
N80 N 0.07863 0.45214 0.68057 0.0
N81 N 0.09298 0.49175 0.68177 0.0
C82 C 0.06702 0.39048 0.6406 0.0
C83 C 0.08291 0.36379 0.61312 0.0
C84 C 0.0915 0.42911 0.64855 0.0
C85 C 0.13261 0.44001 0.63002 0.0
C86 C 0.14994 0.41242 0.60424 0.0
C87 C 0.12397 0.37547 0.59446 0.0
Co88 Co 1.01842 0.03994 0.5329 0.0
C89 C 0.06344 0.9638 0.53446 0.0
Co90 Co 0.08428 0.04786 0.5533 0.0
C91 C 0.93572 0.05701 0.50151 0.0
C92 C 0.93658 0.99085 0.53315 0.0
N93 N 0.96214 0.02849 0.51968 0.0
N94 N 0.89467 0.03886 0.50397 0.0
C95 C 0.89501 0.99725 0.52372 0.0
H96 H 0.94578 0.09143 0.48935 0.0
H97 H 0.94708 0.96162 0.55089 0.0
C98 C 0.03896 0.12374 0.55212 0.0
N99 N 0.14012 0.05998 0.56633 0.0
C100 C 0.16427 0.0354 0.59143 0.0
C101 C 0.1668 0.09553 0.54954 0.0
N102 N 0.20505 0.05401 0.59038 0.0
C103 C 0.20696 0.09171 0.56406 0.0
C104 C 0.07637 0.06916 0.4688 0.0
O105 O 1.00835 0.0995 0.5399 0.0
O106 O 0.07444 0.10774 0.55932 0.0
O107 O 0.10178 0.0656 0.49758 0.0
O108 O 0.03621 0.05982 0.47698 0.0
O109 O 0.09382 0.98743 0.54798 0.0
H110 H 0.15786 0.12194 0.5273 0.0
H111 H 0.15271 1.00364 0.60881 0.0
O112 O 1.02876 0.98079 0.52559 0.0
O113 O 1.00113 0.01995 0.58931 0.0
O114 O 0.06699 0.0297 0.60865 0.0
C115 C 1.02746 0.01781 0.61759 0.0
H116 H 0.86693 0.97393 0.53215 0.0
H117 H 0.23549 0.11438 0.55563 0.0
Co118 Co 0.52933 0.06748 0.03345 0.0
C119 C 0.49913 0.98694 0.07782 0.0
Co120 Co 0.55237 0.05955 0.0949 0.0
C121 C 0.51514 0.04163 0.95632 0.0
C122 C 0.49022 0.10465 0.96101 0.0
N123 N 0.51155 0.07271 0.98142 0.0
N124 N 0.49671 0.05255 0.9212 0.0
C125 C 0.48074 0.09212 0.9239 0.0
H126 H 0.52932 0.01046 0.96435 0.0
H127 H 0.48124 0.13442 0.97273 0.0
C128 C 0.58295 0.1404 0.05028 0.0
N129 N 0.57005 0.05197 0.14686 0.0
C130 C 0.56544 0.07883 0.17554 0.0
C131 C 0.58737 0.01589 0.16534 0.0
N132 N 0.57884 0.06076 0.21135 0.0
C133 C 0.59289 0.02123 0.20498 0.0
C134 C 0.60789 0.02729 0.04073 0.0
O135 O 0.56027 0.12517 0.0234 0.0
O136 O 0.5842 0.11712 0.08462 0.0
O137 O 0.60191 0.03269 0.07743 0.0
O138 O 0.58021 0.04047 1.01594 0.0
O139 O 0.52137 1.00223 0.10477 0.0
H140 H 0.59467 0.98711 0.1511 0.0
H141 H 0.55126 0.11037 0.17048 0.0
O142 O 0.49788 0.01011 0.04365 0.0
O143 O 0.47896 0.09406 0.05136 0.0
O144 O 0.50188 0.08636 0.1126 0.0
C145 C 0.47328 0.0987 0.08843 0.0
H146 H 0.46308 0.1103 0.90093 0.0
H147 H 0.60627 0.99783 0.2273 0.0
Co148 Co 0.57525 0.58001 0.55823 0.0
C149 C 0.5057 0.58166 0.50724 0.0
Co150 Co 0.51657 0.54007 0.58492 0.0
C151 C 0.66506 0.61323 0.54676 0.0
C152 C 0.62413 0.6548 0.512 0.0
N153 N 0.6237 0.61624 0.53724 0.0
N154 N 0.69121 0.64865 0.5288 0.0
C155 C 0.66545 0.67463 0.50662 0.0
H156 H 0.6755 0.58643 0.5677 0.0
H157 H 0.59601 0.66846 0.49926 0.0
C158 C 0.58425 0.53658 0.63611 0.0
N159 N 0.46788 0.50459 0.60545 0.0
C160 C 0.42705 0.51264 0.59787 0.0
C161 C 0.4651 0.46286 0.62573 0.0
N162 N 0.39883 0.47731 0.6117 0.0
C163 C 0.42264 0.44597 0.62963 0.0
C164 C 0.57188 0.4936 0.54212 0.0
O165 O 0.60415 0.56274 0.6073 0.0
O166 O 0.5453 0.52282 0.63221 0.0
O167 O 0.53618 0.49101 0.56193 0.0
O168 O 0.59504 0.53071 0.53616 0.0
O169 O 0.4878 0.55696 0.53761 0.0
H170 H 0.49232 0.44513 0.63539 0.0
H171 H 0.41848 0.54297 0.5804 0.0
O172 O 0.54495 0.59642 0.50898 0.0
O173 O 0.55602 0.62892 0.58117 0.0
O174 O 0.49758 0.5895 0.60822 0.0
C175 C 0.52173 0.62602 0.60306 0.0
H176 H 0.67554 0.70599 0.48798 0.0
H177 H 0.41047 0.41282 0.64371 0.0
Co178 Co 0.07435 0.58305 1.00884 0.0
C179 C 0.99024 0.54106 1.01297 0.0
Co180 Co 0.04164 0.57745 0.06852 0.0
C181 C 0.09239 0.55742 0.93166 0.0
C182 C 0.12294 0.62256 0.93635 0.0
N183 N 0.09937 0.58743 0.95772 0.0
N184 N 0.10973 0.57258 0.89454 0.0
C185 C 0.12934 0.61354 0.8974 0.0
H186 H 0.07269 0.52604 0.93927 0.0
H187 H 0.1331 0.65346 0.94783 0.0
C188 C 0.12665 0.61789 0.06453 0.0
N189 N 1.01627 0.57228 0.11965 0.0
C190 C 1.02489 0.59913 0.14809 0.0
C191 C 0.98961 0.53785 0.13838 0.0
N192 N 1.00536 0.58253 0.18407 0.0
C193 C 0.9828 0.54407 0.17798 0.0
C194 C 0.08938 0.50465 0.05772 0.0
O195 O 0.12495 0.61274 0.02748 0.0
O196 O 0.09333 0.60591 0.08743 0.0
O197 O 0.06436 0.51998 0.08234 0.0
O198 O 0.09766 0.52701 0.02308 0.0
O199 O 0.99038 0.54843 0.04948 0.0
H200 H 0.9774 0.50911 0.12462 0.0
H201 H 0.04701 0.62907 0.14303 0.0
O202 O 1.0239 0.5531 0.99069 0.0
O203 O 0.05075 0.63892 0.99434 0.0
O204 O 1.01894 0.63538 0.05405 0.0
C205 C 1.02635 0.65575 1.01832 0.0
H206 H 0.14612 0.63592 0.87294 0.0
H207 H 0.96355 0.52146 0.20065 0.0
H208 H 0.12422 0.14254 0.28458 0.0
H209 H 0.25242 0.13447 0.32699 0.0
H210 H 0.22278 0.10361 0.39418 0.0
H211 H 0.16067 0.08231 0.4421 0.0
H212 H 0.03231 0.09075 0.40029 0.0
H213 H 0.06181 0.11853 0.33213 0.0
C214 C 0.14579 0.1341 0.30847 0.0
C215 C 0.19077 0.14116 0.3003 0.0
C216 C 0.12844 0.11672 0.34744 0.0
C217 C 0.21786 0.12909 0.33182 0.0
C218 C 0.20086 0.11175 0.37053 0.0
C219 C 0.13899 0.09006 0.41812 0.0
C220 C 0.09411 0.08453 0.42668 0.0
C221 C 0.15623 0.10593 0.37885 0.0
C222 C 0.06684 0.09462 0.39488 0.0
C223 C 0.08377 0.11057 0.35579 0.0
H224 H 0.44602 0.94385 0.78117 0.0
H225 H 0.5782 0.91432 0.7877 0.0
H226 H 0.58563 0.95403 0.8471 0.0
H227 H 0.55591 1.0038 0.8926 0.0
H228 H 0.4262 0.03935 0.87922 0.0
H229 H 0.41672 0.99203 0.82569 0.0
C230 C 0.47663 0.9462 0.79544 0.0
C231 C 0.51184 0.92708 0.77955 0.0
C232 C 0.4812 0.97102 0.82766 0.0
C233 C 0.55071 0.92891 0.79929 0.0
C234 C 0.55503 0.95203 0.8329 0.0
C235 C 0.52562 1.00088 0.87792 0.0
C236 C 0.49181 0.02515 0.8894 0.0
C237 C 0.52081 0.97433 0.84656 0.0
C238 C 0.45274 0.02151 0.87028 0.0
C239 C 0.44725 0.99422 0.84002 0.0
H240 H 0.64375 0.44895 0.80357 0.0
H241 H 0.75498 0.54308 0.77233 0.0
H242 H 0.72364 0.56976 0.70816 0.0
H243 H 0.66352 0.56621 0.66134 0.0
H244 H 0.55257 0.47185 0.69589 0.0
H245 H 0.58502 0.44544 0.75824 0.0
C246 C 0.66138 0.47522 0.78278 0.0
C247 C 0.70189 0.49399 0.79259 0.0
C248 C 0.64308 0.4904 0.74648 0.0
C249 C 0.72386 0.52817 0.76528 0.0
C250 C 0.70591 0.54335 0.7287 0.0
C251 C 0.64655 0.53984 0.68252 0.0
C252 C 0.60552 0.5212 0.67377 0.0
C253 C 0.66539 0.52474 0.71896 0.0
C254 C 0.584 0.48709 0.70168 0.0
C255 C 0.60256 0.4718 0.73748 0.0
H256 H 0.03684 0.68721 0.33215 0.0
H257 H 1.00401 0.55507 0.39618 0.0
H258 H 0.99803 0.52414 0.33239 0.0
H259 H 0.99835 0.53565 0.25856 0.0
H260 H 1.02655 0.66892 0.19454 0.0
H261 H 0.03833 0.69853 0.25802 0.0
C262 C 1.0291 0.65157 0.33182 0.0
C263 C 1.02096 0.62352 0.36836 0.0
C264 C 1.02439 0.6344 0.29513 0.0
C265 C 1.01041 0.57734 0.36822 0.0
C266 C 1.00677 0.55972 0.3318 0.0
C267 C 1.00661 0.57122 0.25844 0.0
C268 C 1.01134 0.59999 0.22174 0.0
C269 C 1.01279 0.58813 0.2951 0.0
C270 C 1.02304 0.64591 0.22224 0.0
C271 C 1.02968 0.66293 0.25855 0.0
H272 H 0.29177 0.17065 0.12588 0.0
H273 H 0.33618 0.15139 0.24692 0.0
H274 H 0.40312 0.12705 0.222 0.0
H275 H 0.44941 0.10934 0.16621 0.0
H276 H 0.40593 0.12833 0.0449 0.0
H277 H 0.33938 0.15472 0.06939 0.0
C278 C 0.31619 0.16151 0.14681 0.0
C279 C 0.3081 0.16254 0.18853 0.0
C280 C 0.35523 0.14728 0.13218 0.0
C281 C 0.34055 0.15021 0.21488 0.0
C282 C 0.37923 0.13643 0.20058 0.0
C283 C 0.42553 0.11941 0.14499 0.0
C284 C 0.43316 0.11663 0.10357 0.0
C285 C 0.38691 0.13444 0.15935 0.0
C286 C 0.40139 0.12993 0.07686 0.0
C287 C 0.36308 0.14508 0.09091 0.0
H288 H 0.34097 0.96807 0.7005 0.0
H289 H 0.41455 0.98745 0.58774 0.0
H290 H 0.3551 0.02195 0.55367 0.0
H291 H 0.28168 0.04554 0.55654 0.0
H292 H 0.20621 0.02029 0.6683 0.0
H293 H 0.26674 0.98862 0.70281 0.0
C294 C 0.34361 0.97999 0.66847 0.0
C295 C 0.38137 0.97556 0.64651 0.0
C296 C 0.30914 0.99843 0.64925 0.0
C297 C 0.38532 0.99052 0.605 0.0
C298 C 0.35149 0.01021 0.58567 0.0
C299 C 0.27889 0.03326 0.58848 0.0
C300 C 0.24024 0.03536 0.61028 0.0
C301 C 0.31326 0.01421 0.60755 0.0
C302 C 0.23601 0.01874 0.65135 0.0
C303 C 0.27046 1.00085 0.67091 0.0
H304 H 0.84339 0.45806 0.9118 0.0
H305 H 0.77183 0.44966 0.02527 0.0
H306 H 0.83519 0.48167 0.05589 0.0
H307 H 0.91118 0.51308 0.05032 0.0
H308 H 0.98197 0.52154 0.93626 0.0
H309 H 0.91888 0.48897 0.90625 0.0
C310 C 0.8415 0.46356 0.94315 0.0
C311 C 0.80273 0.45139 0.96609 0.0
C312 C 0.8781 0.48208 0.96061 0.0
C313 C 0.80127 0.45817 1.0069 0.0
C314 C 0.8375 0.47672 0.02444 0.0
C315 C 0.91283 0.5077 1.01894 0.0
C316 C 0.95148 0.5199 0.99572 0.0
C317 C 0.87617 0.48884 1.00161 0.0
C318 C 0.95284 0.5126 0.95502 0.0
C319 C 0.91667 0.49395 0.9377 0.0
H320 H 0.88531 0.71861 0.52199 0.0
H321 H 0.89837 0.57785 0.55506 0.0
H322 H 0.82012 0.56277 0.56234 0.0
H323 H 0.74849 0.58873 0.55073 0.0
H324 H 0.7369 0.72995 0.51779 0.0
H325 H 0.81431 0.74558 0.51901 0.0
C326 C 0.87128 0.6848 0.53224 0.0
C327 C 0.89774 0.64939 0.53793 0.0
C328 C 0.82648 0.6763 0.5354 0.0
C329 C 0.87869 0.60567 0.5503 0.0
C330 C 0.83397 0.59702 0.55422 0.0
C331 C 0.76273 0.623 0.54452 0.0
C332 C 0.73672 0.65792 0.53326 0.0
C333 C 0.80754 0.6319 0.54542 0.0
C334 C 0.75601 0.70216 0.52529 0.0
C335 C 0.80036 0.71125 0.52636 0.0
H336 H 0.20183 0.33822 0.0842 0.0
H337 H 0.13552 0.32158 0.20082 0.0
H338 H 0.09639 0.38644 0.18043 0.0
H339 H 0.08121 0.44922 0.12985 0.0
H340 H 0.14659 0.46587 1.01266 0.0
H341 H 0.18512 0.4003 0.03265 0.0
C342 C 0.17875 0.34888 0.105 0.0
C343 C 0.17186 0.32484 0.14388 0.0
C344 C 0.15588 0.38643 0.09296 0.0
C345 C 0.14166 0.33909 0.17062 0.0
C346 C 0.11914 0.37637 0.15899 0.0
C347 C 0.10368 0.43841 0.10855 0.0
C348 C 0.11078 0.46281 0.06972 0.0
C349 C 0.12597 0.40043 0.12026 0.0
C350 C 0.14022 0.44801 0.04272 0.0
C351 C 0.16247 0.41041 0.05417 0.0
H352 H 0.72349 0.30328 1.00345 0.0
H353 H 0.61394 0.36146 0.95023 0.0
H354 H 0.56795 0.29431 0.976 0.0
H355 H 0.55925 0.21669 1.00948 0.0
H356 H 0.66579 0.1606 0.06919 0.0
H357 H 0.71219 0.22941 0.04585 0.0
C358 C 0.68945 0.30176 0.99815 0.0
C359 C 0.67281 0.33712 0.97355 0.0
C360 C 0.66251 0.26321 1.01413 0.0
C361 C 0.62832 0.33426 0.96749 0.0
C362 C 0.60171 0.2959 0.98252 0.0
C363 C 0.59253 0.21985 1.01771 0.0
C364 C 0.60931 0.18369 0.04058 0.0
C365 C 0.61862 0.25974 1.00499 0.0
C366 C 0.65224 0.18819 0.0516 0.0
C367 C 0.67878 0.22742 0.03811 0.0
H368 H 0.04724 0.7538 0.55985 0.0
H369 H 0.99995 0.77639 0.44024 0.0
H370 H 1.01837 0.85693 0.43758 0.0
H371 H 0.04034 0.92119 0.47218 0.0
H372 H 0.09094 0.90016 0.59039 0.0
H373 H 0.07975 0.81866 0.59067 0.0
C374 C 0.04186 0.7765 0.53306 0.0
C375 C 1.02224 0.75965 0.50033 0.0
C376 C 0.05299 0.82282 0.53159 0.0
C377 C 1.01528 0.78894 0.46562 0.0
C378 C 1.0256 0.83489 0.46416 0.0
C379 C 0.04981 0.89862 0.49754 0.0
C380 C 0.06616 0.91614 0.53126 0.0
C381 C 0.04343 0.85224 0.49732 0.0
C382 C 0.07857 0.88704 0.56401 0.0
C383 C 0.07178 0.84058 0.5643 0.0
H384 H 0.4544 0.7841 0.68548 0.0
H385 H 0.59028 0.82238 0.68577 0.0
H386 H 0.60541 0.75396 0.65767 0.0
H387 H 0.57937 0.68749 0.62722 0.0
H388 H 0.44335 0.64837 0.62801 0.0
H389 H 0.42854 0.71332 0.66144 0.0
C390 C 0.4873 0.77679 0.68011 0.0
C391 C 0.52131 0.80787 0.68742 0.0
C392 C 0.49551 0.73797 0.66353 0.0
C393 C 0.56381 0.79853 0.68056 0.0
C394 C 0.57234 0.75979 0.66414 0.0
C395 C 0.54647 0.69323 0.63472 0.0
C396 C 0.51235 0.66391 0.62448 0.0
C397 C 0.53838 0.73004 0.65442 0.0
C398 C 0.46999 0.67087 0.63527 0.0
C399 C 0.46159 0.70787 0.65439 0.0
H400 H 0.9959 0.94206 0.80366 0.0
H401 H 0.86417 0.93538 0.76906 0.0
H402 H 0.8873 0.96592 0.69996 0.0
H403 H 0.94494 0.99413 0.64851 0.0
H404 H 0.07676 1.00168 0.68302 0.0
H405 H 0.05367 0.9713 0.75223 0.0
C406 C 0.97225 0.94709 0.78098 0.0
C407 C 0.92821 0.93645 0.79198 0.0
C408 C 0.98582 0.96497 0.74095 0.0
C409 C 0.89818 0.94374 0.76195 0.0
C410 C 0.91141 0.96105 0.7222 0.0
C411 C 0.96868 0.98927 0.67115 0.0
C412 C 1.01265 1.00036 0.66018 0.0
C413 C 0.95514 0.97184 0.71125 0.0
C414 C 0.04273 0.9937 0.69026 0.0
C415 C 1.02953 0.97617 0.73002 0.0
H416 H 0.59541 0.17016 0.3571 0.0
H417 H 0.58943 0.03677 0.42183 0.0
H418 H 0.57541 1.0048 0.35948 0.0
H419 H 0.57224 0.01511 0.28598 0.0
H420 H 0.58308 0.14862 0.22078 0.0
H421 H 0.58696 0.18043 0.28406 0.0
C422 C 0.58985 0.13414 0.35763 0.0
C423 C 0.59329 0.10571 0.39373 0.0
C424 C 0.58324 0.11614 0.3216 0.0
C425 C 0.58687 0.0591 0.39417 0.0
C426 C 0.57911 0.04091 0.3586 0.0
C427 C 0.57557 0.05114 0.2856 0.0
C428 C 0.57801 0.07943 0.24871 0.0
C429 C 0.57863 0.06913 0.32199 0.0
C430 C 0.58105 0.1261 0.24876 0.0
C431 C 0.58347 0.14432 0.28492 0.0
H432 H 0.37085 0.60408 0.36988 0.0
H433 H 0.4835 0.67002 0.30235 0.0
H434 H 0.52671 0.65577 0.36086 0.0
H435 H 0.53305 0.62553 0.43227 0.0
H436 H 0.42033 0.55945 0.49995 0.0
H437 H 0.3774 0.57287 0.44119 0.0
C438 C 0.40489 0.61497 0.36805 0.0
C439 C 0.4235 0.6381 0.33174 0.0
C440 C 0.42988 0.60693 0.40217 0.0
C441 C 0.46789 0.65225 0.32984 0.0
C442 C 0.49284 0.64417 0.36343 0.0
C443 C 0.4991 0.61419 0.43419 0.0
C444 C 0.48024 0.59159 0.47075 0.0
C445 C 0.47421 0.62182 0.39994 0.0
C446 C 0.43605 0.57698 0.47239 0.0
C447 C 0.41125 0.58457 0.43866 0.0
H448 H 0.07838 0.45151 0.75789 0.0
H449 H 0.10087 0.57933 0.6838 0.0
H450 H 0.10715 0.61726 0.74416 0.0
H451 H 0.11081 0.61292 0.81767 0.0
H452 H 0.09443 0.4837 0.89091 0.0
H453 H 0.08109 0.44728 0.83123 0.0
C454 C 0.0835 0.48775 0.75508 0.0
C455 C 0.08833 0.51303 0.7167 0.0
C456 C 0.08891 0.50883 0.78971 0.0
C457 C 0.09632 0.55968 0.71328 0.0
C458 C 0.10035 0.58115 0.74766 0.0
C459 C 0.10476 0.5768 0.82059 0.0
C460 C 0.10369 0.55119 0.85884 0.0
C461 C 0.09771 0.55592 0.78601 0.0
C462 C 0.09499 0.50437 0.862 0.0
C463 C 0.08743 0.48343 0.82784 0.0
H464 H 0.77707 0.92849 1.01583 0.0
H465 H 0.75022 0.96388 0.89105 0.0
H466 H 0.68605 0.99787 0.91077 0.0
H467 H 0.63736 0.01904 0.96364 0.0
H468 H 0.66565 0.98588 0.08854 0.0
H469 H 0.72859 0.9501 0.06878 0.0
C470 C 0.75703 0.94356 0.99306 0.0
C471 C 0.76878 0.94353 0.9521 0.0
C472 C 0.72016 0.96381 1.00465 0.0
C473 C 0.7424 0.96343 0.92284 0.0
C474 C 0.7055 0.98296 0.93412 0.0
C475 C 0.65725 1.00398 0.98657 0.0
C476 C 0.6464 1.00543 0.02765 0.0
C477 C 0.69406 0.98362 0.97495 0.0
C478 C 0.67293 0.98563 0.05673 0.0
C479 C 0.7091 0.96499 0.04545 0.0
H480 H 0.74327 0.14019 0.43126 0.0
H481 H 0.68475 0.09015 0.54841 0.0
H482 H 0.75084 0.05672 0.5684 0.0
H483 H 0.82365 0.0383 0.55062 0.0
H484 H 0.88326 0.09088 0.43455 0.0
H485 H 0.81835 0.12722 0.41561 0.0
C486 C 0.74547 0.12246 0.46132 0.0
C487 C 0.70973 0.11731 0.48849 0.0
C488 C 0.78338 0.10363 0.4724 0.0
C489 C 0.7123 0.09449 0.52734 0.0
C490 C 0.74983 0.07525 0.53856 0.0
C491 C 0.82216 0.05771 0.52122 0.0
C492 C 0.85746 0.06152 0.49359 0.0
C493 C 0.78523 0.07893 0.51105 0.0
C494 C 0.85608 0.08754 0.45596 0.0
C495 C 0.81912 0.10815 0.44524 0.0
H496 H 0.31628 0.67926 0.10722 0.0
H497 H 0.25922 0.65854 0.22799 0.0
H498 H 0.18976 0.63513 0.20176 0.0
H499 H 0.14448 0.62312 0.14382 0.0
H500 H 0.20261 0.64729 0.0233 0.0
H501 H 0.27183 0.66828 0.05014 0.0
C502 C 0.28867 0.6701 0.12799 0.0
C503 C 0.29324 0.67131 0.16967 0.0
C504 C 0.24866 0.65789 0.11259 0.0
C505 C 0.25705 0.65777 0.19589 0.0
C506 C 0.21712 0.6448 0.1808 0.0
C507 C 0.17221 0.63333 0.12337 0.0
C508 C 0.16799 0.6338 0.08139 0.0
C509 C 0.21237 0.64528 0.1391 0.0
C510 C 0.20455 0.64676 0.05558 0.0
C511 C 0.24434 0.6586 0.07095 0.0
H512 H 0.20264 0.48988 0.58621 0.0
H513 H 0.20393 0.34586 0.60285 0.0
H514 H 0.28185 0.35362 0.60352 0.0
H515 H 0.34883 0.40072 0.60793 0.0
H516 H 0.34665 0.54424 0.59917 0.0
H517 H 0.26999 0.53711 0.5879 0.0
C518 C 0.21994 0.46014 0.58976 0.0
C519 C 0.19711 0.41742 0.59491 0.0
C520 C 0.26467 0.46468 0.59255 0.0
C521 C 0.2203 0.37929 0.59833 0.0
C522 C 0.265 0.38362 0.59944 0.0
C523 C 0.3316 0.43043 0.6039 0.0
C524 C 0.35352 0.47289 0.60488 0.0
C525 C 0.28732 0.42607 0.59816 0.0
C526 C 0.33074 0.51113 0.59843 0.0
C527 C 0.28682 0.5071 0.59204 0.0
H528 H 0.92947 0.83289 0.97581 0.0
H529 H 0.94646 0.79493 0.85663 0.0
H530 H 0.98309 0.7312 0.88389 0.0
H531 H 1.01142 0.6856 0.94065 0.0
H532 H 0.99053 0.71699 0.06124 0.0
H533 H 0.95439 0.78295 0.03455 0.0
C534 C 0.94087 0.81054 0.95581 0.0
C535 C 0.93602 0.82028 0.91371 0.0
C536 C 0.96152 0.77245 0.97196 0.0
C537 C 0.9509 0.79008 0.88876 0.0
C538 C 0.97168 0.75302 0.9044 0.0
C539 C 0.99924 0.70693 0.96126 0.0
C540 C 1.00441 0.69643 1.00298 0.0
C541 C 0.97764 0.74408 0.94579 0.0
C542 C 0.98739 0.7242 0.02901 0.0
C543 C 0.96662 0.762 1.01369 0.0
H544 H 0.36676 0.82022 0.13235 0.0
H545 H 0.48445 0.75943 0.15812 0.0
H546 H 0.52634 0.82863 0.12995 0.0
H547 H 0.52962 0.90864 0.10392 0.0
H548 H 0.4133 0.96822 0.07212 0.0
H549 H 0.37066 0.89706 0.09605 0.0
C550 C 0.40153 0.82167 0.13091 0.0
C551 C 0.4223 0.78499 0.14854 0.0
C552 C 0.42566 0.86147 0.11387 0.0
C553 C 0.46751 0.78762 0.14614 0.0
C554 C 0.4916 0.82713 0.12984 0.0
C555 C 0.49497 0.90562 0.10178 0.0
C556 C 0.4743 0.94317 0.08688 0.0
C557 C 0.47101 0.86463 0.11477 0.0
C558 C 0.42959 0.93934 0.08361 0.0
C559 C 0.40532 0.89883 0.0974 0.0
H560 H 0.05955 0.33184 0.54428 0.0
H561 H 0.05956 0.29622 0.67306 0.0
H562 H 0.04076 0.21753 0.66583 0.0
H563 H 0.03551 0.15801 0.62198 0.0
H564 H 0.03413 0.19312 0.49338 0.0
H565 H 0.04196 0.27304 0.5011 0.0
C566 C 0.05418 0.30687 0.5707 0.0
C567 C 0.06103 0.31944 0.60908 0.0
C568 C 0.04377 0.26172 0.56624 0.0
C569 C 0.05408 0.28715 0.64327 0.0
C570 C 0.04379 0.24216 0.63911 0.0
C571 C 0.03582 0.18338 0.59588 0.0
C572 C 0.03447 0.17042 0.55724 0.0
C573 C 0.04021 0.22892 0.60067 0.0
C574 C 0.03494 0.20292 0.52337 0.0
C575 C 0.03966 0.24841 0.5278 0.0
H576 H 0.66712 0.331 0.49472 0.0
H577 H 0.5385 0.26619 0.51275 0.0
H578 H 0.51175 0.33587 0.52849 0.0
H579 H 0.5252 0.41481 0.53783 0.0
H580 H 0.65342 0.48108 0.51715 0.0
H581 H 0.68009 0.41152 0.50104 0.0
C582 C 0.63332 0.33248 0.50218 0.0
C583 C 0.60489 0.29398 0.50272 0.0
C584 C 0.61812 0.37283 0.51035 0.0
C585 C 0.56096 0.29568 0.51205 0.0
C586 C 0.54568 0.33544 0.52102 0.0
C587 C 0.55895 0.41411 0.52957 0.0
C588 C 0.58733 0.45293 0.52881 0.0
C589 C 0.57399 0.37418 0.52025 0.0
C590 C 0.6309 0.45164 0.51779 0.0
C591 C 0.64622 0.41185 0.50881 0.0
loop_
_geom_bond_atom_site_label_1
_geom_bond_atom_site_label_2
_geom_bond_distance
_geom_bond_site_symmetry_2
_ccdc_geom_bond_type
H0 C5 0.929 . S
H1 C10 0.931 . S
H2 C8 0.930 . S
N3 N4 1.234 . S
N3 C7 1.453 . S
N4 N3 1.234 . S
C5 H0 0.929 . S
C5 C6 1.373 . S
C5 C7 1.368 . S
C6 C5 1.373 . S
C6 C10 1.397 . S
C7 N3 1.453 . S
C7 C5 1.368 . S
C7 C8 1.373 . S
C8 H2 0.930 . S
C8 C7 1.373 . S
C8 C9 1.371 . S
C9 C8 1.371 . S
C9 C10 1.383 . S
C10 H1 0.931 . S
C10 C6 1.397 . S
C10 C9 1.383 . S
H11 C16 0.929 . S
H12 C21 0.931 . S
H13 C19 0.930 . S
N14 N15 1.234 . S
N14 C18 1.453 . S
N15 N14 1.234 . S
C16 H11 0.929 . S
C16 C17 1.373 . S
C16 C18 1.368 . S
C17 C16 1.373 . S
C17 C21 1.397 . S
C18 N14 1.453 . S
C18 C16 1.368 . S
C18 C19 1.373 . S
C19 H13 0.930 . S
C19 C18 1.373 . S
C19 C20 1.371 . S
C20 C19 1.371 . S
C20 C21 1.383 . S
C21 H12 0.931 . S
C21 C17 1.397 . S
C21 C20 1.383 . S
H22 C27 0.929 . S
H23 C32 0.931 . S
H24 C30 0.930 . S
N25 N26 1.234 . S
N25 C29 1.453 . S
N26 N25 1.234 . S
C27 H22 0.929 . S
C27 C28 1.373 . S
C27 C29 1.368 . S
C28 C27 1.373 . S
C28 C32 1.397 . S
C29 N25 1.453 . S
C29 C27 1.368 . S
C29 C30 1.373 . S
C30 H24 0.930 . S
C30 C29 1.373 . S
C30 C31 1.371 . S
C31 C30 1.371 . S
C31 C32 1.383 . S
C32 H23 0.931 . S
C32 C28 1.397 . S
C32 C31 1.383 . S
H33 C38 0.929 . S
H34 C43 0.931 . S
H35 C41 0.930 . S
N36 N37 1.234 . S
N36 C40 1.453 . S
N37 N36 1.234 . S
C38 H33 0.929 . S
C38 C39 1.373 . S
C38 C40 1.368 . S
C39 C38 1.373 . S
C39 C43 1.397 . S
C40 N36 1.453 . S
C40 C38 1.368 . S
C40 C41 1.373 . S
C41 H35 0.930 . S
C41 C40 1.373 . S
C41 C42 1.371 . S
C42 C41 1.371 . S
C42 C43 1.383 . S
C43 H34 0.931 . S
C43 C39 1.397 . S
C43 C42 1.383 . S
H44 C49 0.929 . S
H45 C54 0.931 . S
H46 C52 0.930 . S
N47 N48 1.234 . S
N47 C51 1.453 . S
N48 N47 1.234 . S
C49 H44 0.929 . S
C49 C50 1.373 . S
C49 C51 1.368 . S
C50 C49 1.373 . S
C50 C54 1.397 . S
C51 N47 1.453 . S
C51 C49 1.368 . S
C51 C52 1.373 . S
C52 H46 0.930 . S
C52 C51 1.373 . S
C52 C53 1.371 . S
C53 C52 1.371 . S
C53 C54 1.383 . S
C54 H45 0.931 . S
C54 C50 1.397 . S
C54 C53 1.383 . S
H55 C60 0.929 . S
H56 C65 0.931 . S
H57 C63 0.930 . S
N58 N59 1.234 . S
N58 C62 1.453 . S
N59 N58 1.234 . S
C60 H55 0.929 . S
C60 C61 1.373 . S
C60 C62 1.368 . S
C61 C60 1.373 . S
C61 C65 1.397 . S
C62 N58 1.453 . S
C62 C60 1.368 . S
C62 C63 1.373 . S
C63 H57 0.930 . S
C63 C62 1.373 . S
C63 C64 1.371 . S
C64 C63 1.371 . S
C64 C65 1.383 . S
C65 H56 0.931 . S
C65 C61 1.397 . S
C65 C64 1.383 . S
H66 C71 0.929 . S
H67 C76 0.931 . S
H68 C74 0.930 . S
N69 N70 1.234 . S
N69 C73 1.453 . S
N70 N69 1.234 . S
C71 H66 0.929 . S
C71 C72 1.373 . S
C71 C73 1.368 . S
C72 C71 1.373 . S
C72 C76 1.397 . S
C73 N69 1.453 . S
C73 C71 1.368 . S
C73 C74 1.373 . S
C74 H68 0.930 . S
C74 C73 1.373 . S
C74 C75 1.371 . S
C75 C74 1.371 . S
C75 C76 1.383 . S
C76 H67 0.931 . S
C76 C72 1.397 . S
C76 C75 1.383 . S
H77 C82 0.929 . S
H78 C87 0.931 . S
H79 C85 0.930 . S
N80 N81 1.234 . S
N80 C84 1.453 . S
N81 N80 1.234 . S
C82 H77 0.929 . S
C82 C83 1.373 . S
C82 C84 1.368 . S
C83 C82 1.373 . S
C83 C87 1.397 . S
C84 N80 1.453 . S
C84 C82 1.368 . S
C84 C85 1.373 . S
C85 H79 0.930 . S
C85 C84 1.373 . S
C85 C86 1.371 . S
C86 C85 1.371 . S
C86 C87 1.383 . S
C87 H78 0.931 . S
C87 C83 1.397 . S
C87 C86 1.383 . S
Co88 N93 2.057 . S
Co88 O105 2.021 . S
Co88 O108 2.062 . S
Co88 O112 2.117 1_545 S
Co88 O113 2.020 . S
C89 O109 1.259 1_655 S
C89 O112 1.258 . S
Co90 N99 2.057 . S
Co90 O106 2.117 . S
Co90 O107 2.020 . S
Co90 O109 2.021 1_545 S
Co90 O114 2.062 . S
C91 N93 1.316 . S
C91 N94 1.347 . S
C91 H96 0.931 . S
C92 N93 1.375 . S
C92 C95 1.350 . S
C92 H97 0.930 1_545 S
N93 Co88 2.057 . S
N93 C91 1.316 . S
N93 C92 1.375 . S
N94 C91 1.347 . S
N94 C95 1.373 . S
C95 C92 1.350 . S
C95 N94 1.373 . S
C95 H116 0.931 . S
H96 C91 0.931 . S
H97 C92 0.930 1_565 S
C98 O105 1.259 1_455 S
C98 O106 1.258 . S
N99 Co90 2.057 . S
N99 C100 1.316 1_545 S
N99 C101 1.375 . S
C100 N99 1.316 1_565 S
C100 N102 1.347 . S
C100 H111 0.931 . S
C101 N99 1.375 . S
C101 C103 1.350 . S
C101 H110 0.930 . S
N102 C100 1.347 . S
N102 C103 1.373 1_565 S
C103 C101 1.350 . S
C103 N102 1.373 1_545 S
C103 H117 0.931 . S
C104 O107 1.256 . S
C104 O108 1.255 1_455 S
O105 Co88 2.021 . S
O105 C98 1.259 1_655 S
O106 Co90 2.117 . S
O106 C98 1.258 . S
O107 Co90 2.020 . S
O107 C104 1.256 . S
O108 Co88 2.062 . S
O108 C104 1.255 1_655 S
O109 C89 1.259 1_455 S
O109 Co90 2.021 1_565 S
H110 C101 0.930 . S
H111 C100 0.931 . S
O112 Co88 2.117 1_565 S
O112 C89 1.258 . S
O113 Co88 2.020 . S
O113 C115 1.256 . S
O114 Co90 2.062 . S
O114 C115 1.255 1_455 S
C115 O113 1.256 . S
C115 O114 1.255 1_655 S
H116 C95 0.931 . S
H117 C103 0.931 . S
Co118 N123 2.057 1_544 S
Co118 O135 2.021 1_554 S
Co118 O138 2.062 . S
Co118 O142 2.117 1_545 S
Co118 O143 2.020 . S
C119 O139 1.259 . S
C119 O142 1.258 . S
Co120 N129 2.057 . S
Co120 O136 2.117 . S
Co120 O137 2.020 . S
Co120 O139 2.021 1_545 S
Co120 O144 2.062 . S
C121 N123 1.316 1_545 S
C121 N124 1.347 1_545 S
C121 H126 0.931 . S
C122 N123 1.375 . S
C122 C125 1.350 . S
C122 H127 0.930 . S
N123 Co118 2.057 1_566 S
N123 C121 1.316 1_565 S
N123 C122 1.375 . S
N124 C121 1.347 1_565 S
N124 C125 1.373 . S
C125 C122 1.350 . S
C125 N124 1.373 . S
C125 H146 0.931 . S
H126 C121 0.931 . S
H127 C122 0.930 . S
C128 O135 1.259 1_554 S
C128 O136 1.258 . S
N129 Co120 2.057 . S
N129 C130 1.316 . S
N129 C131 1.375 . S
C130 N129 1.316 . S
C130 N132 1.347 . S
C130 H141 0.931 . S
C131 N129 1.375 . S
C131 C133 1.350 . S
C131 H140 0.930 . S
N132 C130 1.347 . S
N132 C133 1.373 . S
C133 C131 1.350 . S
C133 N132 1.373 . S
C133 H147 0.931 . S
C134 O137 1.256 . S
C134 O138 1.255 . S
O135 Co118 2.021 1_556 S
O135 C128 1.259 1_556 S
O136 Co120 2.117 . S
O136 C128 1.258 . S
O137 Co120 2.020 . S
O137 C134 1.256 . S
O138 Co118 2.062 . S
O138 C134 1.255 . S
O139 C119 1.259 . S
O139 Co120 2.021 1_565 S
H140 C131 0.930 . S
H141 C130 0.931 . S
O142 Co118 2.117 1_565 S
O142 C119 1.258 . S
O143 Co118 2.020 . S
O143 C145 1.256 . S
O144 Co120 2.062 . S
O144 C145 1.255 . S
C145 O143 1.256 . S
C145 O144 1.255 . S
H146 C125 0.931 . S
H147 C133 0.931 . S
Co148 N153 2.057 . S
Co148 O165 2.021 . S
Co148 O168 2.062 . S
Co148 O172 2.117 . S
Co148 O173 2.020 . S
C149 O169 1.259 . S
C149 O172 1.258 . S
Co150 N159 2.057 . S
Co150 O166 2.117 . S
Co150 O167 2.020 . S
Co150 O169 2.021 . S
Co150 O174 2.062 . S
C151 N153 1.316 . S
C151 N154 1.347 . S
C151 H156 0.931 . S
C152 N153 1.375 . S
C152 C155 1.350 . S
C152 H157 0.930 . S
N153 Co148 2.057 . S
N153 C151 1.316 . S
N153 C152 1.375 . S
N154 C151 1.347 . S
N154 C155 1.373 . S
C155 C152 1.350 . S
C155 N154 1.373 . S
C155 H176 0.931 . S
H156 C151 0.931 . S
H157 C152 0.930 . S
C158 O165 1.259 . S
C158 O166 1.258 . S
N159 Co150 2.057 . S
N159 C160 1.316 . S
N159 C161 1.375 . S
C160 N159 1.316 . S
C160 N162 1.347 . S
C160 H171 0.931 . S
C161 N159 1.375 . S
C161 C163 1.350 . S
C161 H170 0.930 . S
N162 C160 1.347 . S
N162 C163 1.373 . S
C163 C161 1.350 . S
C163 N162 1.373 . S
C163 H177 0.931 . S
C164 O167 1.256 . S
C164 O168 1.255 . S
O165 Co148 2.021 . S
O165 C158 1.259 . S
O166 Co150 2.117 . S
O166 C158 1.258 . S
O167 Co150 2.020 . S
O167 C164 1.256 . S
O168 Co148 2.062 . S
O168 C164 1.255 . S
O169 C149 1.259 . S
O169 Co150 2.021 . S
H170 C161 0.930 . S
H171 C160 0.931 . S
O172 Co148 2.117 . S
O172 C149 1.258 . S
O173 Co148 2.020 . S
O173 C175 1.256 . S
O174 Co150 2.062 . S
O174 C175 1.255 . S
C175 O173 1.256 . S
C175 O174 1.255 . S
H176 C155 0.931 . S
H177 C163 0.931 . S
Co178 N183 2.057 . S
Co178 O195 2.021 1_556 S
Co178 O198 2.062 1_556 S
Co178 O202 2.117 1_455 S
Co178 O203 2.020 . S
C179 O199 1.259 . S
C179 O202 1.258 1_554 S
Co180 N189 2.057 . S
Co180 O196 2.117 . S
Co180 O197 2.020 . S
Co180 O199 2.021 1_455 S
Co180 O204 2.062 . S
C181 N183 1.316 . S
C181 N184 1.347 . S
C181 H186 0.931 . S
C182 N183 1.375 . S
C182 C185 1.350 . S
C182 H187 0.930 1_455 S
N183 Co178 2.057 . S
N183 C181 1.316 . S
N183 C182 1.375 . S
N184 C181 1.347 . S
N184 C185 1.373 . S
C185 C182 1.350 . S
C185 N184 1.373 . S
C185 H206 0.931 . S
H186 C181 0.931 . S
H187 C182 0.930 1_655 S
C188 O195 1.259 . S
C188 O196 1.258 . S
N189 Co180 2.057 . S
N189 C190 1.316 1_455 S
N189 C191 1.375 . S
C190 N189 1.316 1_655 S
C190 N192 1.347 . S
C190 H201 0.931 . S
C191 N189 1.375 . S
C191 C193 1.350 . S
C191 H200 0.930 . S
N192 C190 1.347 . S
N192 C193 1.373 1_655 S
C193 C191 1.350 . S
C193 N192 1.373 1_455 S
C193 H207 0.931 . S
C194 O197 1.256 . S
C194 O198 1.255 . S
O195 Co178 2.021 1_554 S
O195 C188 1.259 . S
O196 Co180 2.117 . S
O196 C188 1.258 . S
O197 Co180 2.020 . S
O197 C194 1.256 . S
O198 Co178 2.062 1_554 S
O198 C194 1.255 . S
O199 C179 1.259 . S
O199 Co180 2.021 1_655 S
H200 C191 0.930 . S
H201 C190 0.931 . S
O202 Co178 2.117 1_655 S
O202 C179 1.258 1_556 S
O203 Co178 2.020 . S
O203 C205 1.256 1_556 S
O204 Co180 2.062 . S
O204 C205 1.255 . S
C205 O203 1.256 1_554 S
C205 O204 1.255 . S
H206 C185 0.931 . S
H207 C193 0.931 . S
H208 C214 0.930 . S
H209 C217 0.930 . S
H210 C218 0.930 . S
H211 C219 0.930 . S
H212 C222 0.930 . S
H213 C223 0.930 . S
C214 H208 0.930 . S
C214 C215 1.355 . S
C214 C216 1.415 . S
C215 C214 1.355 . S
C215 C217 1.419 . S
C216 C214 1.415 . S
C216 C221 1.425 . S
C216 C223 1.409 . S
C217 H209 0.930 . S
C217 C215 1.419 . S
C217 C218 1.362 . S
C218 H210 0.930 . S
C218 C217 1.362 . S
C218 C221 1.409 . S
C219 H211 0.930 . S
C219 C220 1.355 . S
C219 C221 1.415 . S
C220 C219 1.355 . S
C220 C222 1.419 . S
C221 C216 1.425 . S
C221 C218 1.409 . S
C221 C219 1.415 . S
C222 H212 0.930 . S
C222 C220 1.419 . S
C222 C223 1.362 . S
C223 H213 0.930 . S
C223 C216 1.409 . S
C223 C222 1.362 . S
H224 C230 0.930 . S
H225 C233 0.930 . S
H226 C234 0.930 1_545 S
H227 C235 0.930 1_545 S
H228 C238 0.930 . S
H229 C239 0.930 . S
C230 H224 0.930 . S
C230 C231 1.355 . S
C230 C232 1.415 . S
C231 C230 1.355 . S
C231 C233 1.419 . S
C232 C230 1.415 . S
C232 C237 1.425 . S
C232 C239 1.409 . S
C233 H225 0.930 . S
C233 C231 1.419 . S
C233 C234 1.362 . S
C234 H226 0.930 1_565 S
C234 C233 1.362 . S
C234 C237 1.409 . S
C235 H227 0.930 1_565 S
C235 C236 1.355 . S
C235 C237 1.415 . S
C236 C235 1.355 . S
C236 C238 1.419 . S
C237 C232 1.425 . S
C237 C234 1.409 . S
C237 C235 1.415 . S
C238 H228 0.930 . S
C238 C236 1.419 . S
C238 C239 1.362 . S
C239 H229 0.930 . S
C239 C232 1.409 . S
C239 C238 1.362 . S
H240 C246 0.930 . S
H241 C249 0.930 . S
H242 C250 0.930 . S
H243 C251 0.930 . S
H244 C254 0.930 . S
H245 C255 0.930 . S
C246 H240 0.930 . S
C246 C247 1.355 . S
C246 C248 1.415 . S
C247 C246 1.355 . S
C247 C249 1.419 . S
C248 C246 1.415 . S
C248 C253 1.425 . S
C248 C255 1.409 . S
C249 H241 0.930 . S
C249 C247 1.419 . S
C249 C250 1.362 . S
C250 H242 0.930 . S
C250 C249 1.362 . S
C250 C253 1.409 . S
C251 H243 0.930 . S
C251 C252 1.355 . S
C251 C253 1.415 . S
C252 C251 1.355 . S
C252 C254 1.419 . S
C253 C248 1.425 . S
C253 C250 1.409 . S
C253 C251 1.415 . S
C254 H244 0.930 . S
C254 C252 1.419 . S
C254 C255 1.362 . S
C255 H245 0.930 . S
C255 C248 1.409 . S
C255 C254 1.362 . S
H256 C262 0.930 1_455 S
H257 C265 0.930 . S
H258 C266 0.930 . S
H259 C267 0.930 . S
H260 C270 0.930 . S
H261 C271 0.930 . S
C262 H256 0.930 1_655 S
C262 C263 1.355 . S
C262 C264 1.415 . S
C263 C262 1.355 . S
C263 C265 1.419 . S
C264 C262 1.415 . S
C264 C269 1.425 . S
C264 C271 1.409 1_655 S
C265 H257 0.930 . S
C265 C263 1.419 . S
C265 C266 1.362 . S
C266 H258 0.930 . S
C266 C265 1.362 . S
C266 C269 1.409 . S
C267 H259 0.930 . S
C267 C268 1.355 . S
C267 C269 1.415 . S
C268 C267 1.355 . S
C268 C270 1.419 1_655 S
C269 C264 1.425 . S
C269 C266 1.409 . S
C269 C267 1.415 . S
C270 H260 0.930 . S
C270 C268 1.419 1_455 S
C270 C271 1.362 . S
C271 H261 0.930 . S
C271 C264 1.409 1_455 S
C271 C270 1.362 . S
H272 C278 0.930 . S
H273 C281 0.930 . S
H274 C282 0.930 . S
H275 C283 0.930 . S
H276 C286 0.930 . S
H277 C287 0.930 . S
C278 H272 0.930 . S
C278 C279 1.355 . S
C278 C280 1.415 . S
C279 C278 1.355 . S
C279 C281 1.419 . S
C280 C278 1.415 . S
C280 C285 1.425 . S
C280 C287 1.409 . S
C281 H273 0.930 . S
C281 C279 1.419 . S
C281 C282 1.362 . S
C282 H274 0.930 . S
C282 C281 1.362 . S
C282 C285 1.409 . S
C283 H275 0.930 . S
C283 C284 1.355 . S
C283 C285 1.415 . S
C284 C283 1.355 . S
C284 C286 1.419 . S
C285 C280 1.425 . S
C285 C282 1.409 . S
C285 C283 1.415 . S
C286 H276 0.930 . S
C286 C284 1.419 . S
C286 C287 1.362 . S
C287 H277 0.930 . S
C287 C280 1.409 . S
C287 C286 1.362 . S
H288 C294 0.930 . S
H289 C297 0.930 . S
H290 C298 0.930 1_545 S
H291 C299 0.930 1_545 S
H292 C302 0.930 . S
H293 C303 0.930 . S
C294 H288 0.930 . S
C294 C295 1.355 . S
C294 C296 1.415 . S
C295 C294 1.355 . S
C295 C297 1.419 . S
C296 C294 1.415 . S
C296 C301 1.425 . S
C296 C303 1.409 . S
C297 H289 0.930 . S
C297 C295 1.419 . S
C297 C298 1.362 . S
C298 H290 0.930 1_565 S
C298 C297 1.362 . S
C298 C301 1.409 . S
C299 H291 0.930 1_565 S
C299 C300 1.355 . S
C299 C301 1.415 . S
C300 C299 1.355 . S
C300 C302 1.419 . S
C301 C296 1.425 . S
C301 C298 1.409 . S
C301 C299 1.415 . S
C302 H292 0.930 . S
C302 C300 1.419 . S
C302 C303 1.362 . S
C303 H293 0.930 . S
C303 C296 1.409 . S
C303 C302 1.362 . S
H304 C310 0.930 . S
H305 C313 0.930 . S
H306 C314 0.930 . S
H307 C315 0.930 . S
H308 C318 0.930 . S
H309 C319 0.930 . S
C310 H304 0.930 . S
C310 C311 1.355 . S
C310 C312 1.415 . S
C311 C310 1.355 . S
C311 C313 1.419 . S
C312 C310 1.415 . S
C312 C317 1.425 . S
C312 C319 1.409 . S
C313 H305 0.930 . S
C313 C311 1.419 . S
C313 C314 1.362 . S
C314 H306 0.930 . S
C314 C313 1.362 . S
C314 C317 1.409 . S
C315 H307 0.930 . S
C315 C316 1.355 . S
C315 C317 1.415 . S
C316 C315 1.355 . S
C316 C318 1.419 . S
C317 C312 1.425 . S
C317 C314 1.409 . S
C317 C315 1.415 . S
C318 H308 0.930 . S
C318 C316 1.419 . S
C318 C319 1.362 . S
C319 H309 0.930 . S
C319 C312 1.409 . S
C319 C318 1.362 . S
H320 C326 0.930 . S
H321 C329 0.930 . S
H322 C330 0.930 . S
H323 C331 0.930 . S
H324 C334 0.930 . S
H325 C335 0.930 . S
C326 H320 0.930 . S
C326 C327 1.355 . S
C326 C328 1.415 . S
C327 C326 1.355 . S
C327 C329 1.419 . S
C328 C326 1.415 . S
C328 C333 1.425 . S
C328 C335 1.409 . S
C329 H321 0.930 . S
C329 C327 1.419 . S
C329 C330 1.362 . S
C330 H322 0.930 . S
C330 C329 1.362 . S
C330 C333 1.409 . S
C331 H323 0.930 . S
C331 C332 1.355 . S
C331 C333 1.415 . S
C332 C331 1.355 . S
C332 C334 1.419 . S
C333 C328 1.425 . S
C333 C330 1.409 . S
C333 C331 1.415 . S
C334 H324 0.930 . S
C334 C332 1.419 . S
C334 C335 1.362 . S
C335 H325 0.930 . S
C335 C328 1.409 . S
C335 C334 1.362 . S
H336 C342 0.930 . S
H337 C345 0.930 . S
H338 C346 0.930 . S
H339 C347 0.930 . S
H340 C350 0.930 . S
H341 C351 0.930 . S
C342 H336 0.930 . S
C342 C343 1.355 . S
C342 C344 1.415 . S
C343 C342 1.355 . S
C343 C345 1.419 . S
C344 C342 1.415 . S
C344 C349 1.425 . S
C344 C351 1.409 . S
C345 H337 0.930 . S
C345 C343 1.419 . S
C345 C346 1.362 . S
C346 H338 0.930 . S
C346 C345 1.362 . S
C346 C349 1.409 . S
C347 H339 0.930 . S
C347 C348 1.355 . S
C347 C349 1.415 . S
C348 C347 1.355 . S
C348 C350 1.419 . S
C349 C344 1.425 . S
C349 C346 1.409 . S
C349 C347 1.415 . S
C350 H340 0.930 . S
C350 C348 1.419 . S
C350 C351 1.362 . S
C351 H341 0.930 . S
C351 C344 1.409 . S
C351 C350 1.362 . S
H352 C358 0.930 . S
H353 C361 0.930 . S
H354 C362 0.930 . S
H355 C363 0.930 . S
H356 C366 0.930 . S
H357 C367 0.930 . S
C358 H352 0.930 . S
C358 C359 1.355 . S
C358 C360 1.415 . S
C359 C358 1.355 . S
C359 C361 1.419 . S
C360 C358 1.415 . S
C360 C365 1.425 . S
C360 C367 1.409 1_556 S
C361 H353 0.930 . S
C361 C359 1.419 . S
C361 C362 1.362 . S
C362 H354 0.930 . S
C362 C361 1.362 . S
C362 C365 1.409 . S
C363 H355 0.930 . S
C363 C364 1.355 1_556 S
C363 C365 1.415 . S
C364 C363 1.355 1_554 S
C364 C366 1.419 . S
C365 C360 1.425 . S
C365 C362 1.409 . S
C365 C363 1.415 . S
C366 H356 0.930 . S
C366 C364 1.419 . S
C366 C367 1.362 . S
C367 H357 0.930 . S
C367 C360 1.409 1_554 S
C367 C366 1.362 . S
H368 C374 0.930 1_455 S
H369 C377 0.930 . S
H370 C378 0.930 . S
H371 C379 0.930 . S
H372 C382 0.930 . S
H373 C383 0.930 . S
C374 H368 0.930 1_655 S
C374 C375 1.355 . S
C374 C376 1.415 . S
C375 C374 1.355 . S
C375 C377 1.419 . S
C376 C374 1.415 . S
C376 C381 1.425 . S
C376 C383 1.409 1_655 S
C377 H369 0.930 . S
C377 C375 1.419 . S
C377 C378 1.362 . S
C378 H370 0.930 . S
C378 C377 1.362 . S
C378 C381 1.409 . S
C379 H371 0.930 . S
C379 C380 1.355 . S
C379 C381 1.415 . S
C380 C379 1.355 . S
C380 C382 1.419 1_655 S
C381 C376 1.425 . S
C381 C378 1.409 . S
C381 C379 1.415 . S
C382 H372 0.930 . S
C382 C380 1.419 1_455 S
C382 C383 1.362 . S
C383 H373 0.930 . S
C383 C376 1.409 1_455 S
C383 C382 1.362 . S
H384 C390 0.930 . S
H385 C393 0.930 . S
H386 C394 0.930 . S
H387 C395 0.930 . S
H388 C398 0.930 . S
H389 C399 0.930 . S
C390 H384 0.930 . S
C390 C391 1.355 . S
C390 C392 1.415 . S
C391 C390 1.355 . S
C391 C393 1.419 . S
C392 C390 1.415 . S
C392 C397 1.425 . S
C392 C399 1.409 . S
C393 H385 0.930 . S
C393 C391 1.419 . S
C393 C394 1.362 . S
C394 H386 0.930 . S
C394 C393 1.362 . S
C394 C397 1.409 . S
C395 H387 0.930 . S
C395 C396 1.355 . S
C395 C397 1.415 . S
C396 C395 1.355 . S
C396 C398 1.419 . S
C397 C392 1.425 . S
C397 C394 1.409 . S
C397 C395 1.415 . S
C398 H388 0.930 . S
C398 C396 1.419 . S
C398 C399 1.362 . S
C399 H389 0.930 . S
C399 C392 1.409 . S
C399 C398 1.362 . S
H400 C406 0.930 . S
H401 C409 0.930 . S
H402 C410 0.930 . S
H403 C411 0.930 . S
H404 C414 0.930 . S
H405 C415 0.930 . S
C406 H400 0.930 . S
C406 C407 1.355 . S
C406 C408 1.415 . S
C407 C406 1.355 . S
C407 C409 1.419 . S
C408 C406 1.415 . S
C408 C413 1.425 . S
C408 C415 1.409 1_665 S
C409 H401 0.930 . S
C409 C407 1.419 . S
C409 C410 1.362 . S
C410 H402 0.930 . S
C410 C409 1.362 . S
C410 C413 1.409 . S
C411 H403 0.930 . S
C411 C412 1.355 . S
C411 C413 1.415 . S
C412 C411 1.355 . S
C412 C414 1.419 1_665 S
C413 C408 1.425 . S
C413 C410 1.409 . S
C413 C411 1.415 . S
C414 H404 0.930 . S
C414 C412 1.419 1_445 S
C414 C415 1.362 . S
C415 H405 0.930 . S
C415 C408 1.409 1_445 S
C415 C414 1.362 . S
H416 C422 0.930 . S
H417 C425 0.930 . S
H418 C426 0.930 . S
H419 C427 0.930 . S
H420 C430 0.930 . S
H421 C431 0.930 . S
C422 H416 0.930 . S
C422 C423 1.355 . S
C422 C424 1.415 . S
C423 C422 1.355 . S
C423 C425 1.419 . S
C424 C422 1.415 . S
C424 C429 1.425 . S
C424 C431 1.409 . S
C425 H417 0.930 . S
C425 C423 1.419 . S
C425 C426 1.362 . S
C426 H418 0.930 . S
C426 C425 1.362 . S
C426 C429 1.409 . S
C427 H419 0.930 . S
C427 C428 1.355 . S
C427 C429 1.415 . S
C428 C427 1.355 . S
C428 C430 1.419 . S
C429 C424 1.425 . S
C429 C426 1.409 . S
C429 C427 1.415 . S
C430 H420 0.930 . S
C430 C428 1.419 . S
C430 C431 1.362 . S
C431 H421 0.930 . S
C431 C424 1.409 . S
C431 C430 1.362 . S
H432 C438 0.930 . S
H433 C441 0.930 . S
H434 C442 0.930 . S
H435 C443 0.930 . S
H436 C446 0.930 . S
H437 C447 0.930 . S
C438 H432 0.930 . S
C438 C439 1.355 . S
C438 C440 1.415 . S
C439 C438 1.355 . S
C439 C441 1.419 . S
C440 C438 1.415 . S
C440 C445 1.425 . S
C440 C447 1.409 . S
C441 H433 0.930 . S
C441 C439 1.419 . S
C441 C442 1.362 . S
C442 H434 0.930 . S
C442 C441 1.362 . S
C442 C445 1.409 . S
C443 H435 0.930 . S
C443 C444 1.355 . S
C443 C445 1.415 . S
C444 C443 1.355 . S
C444 C446 1.419 . S
C445 C440 1.425 . S
C445 C442 1.409 . S
C445 C443 1.415 . S
C446 H436 0.930 . S
C446 C444 1.419 . S
C446 C447 1.362 . S
C447 H437 0.930 . S
C447 C440 1.409 . S
C447 C446 1.362 . S
H448 C454 0.930 . S
H449 C457 0.930 . S
H450 C458 0.930 . S
H451 C459 0.930 . S
H452 C462 0.930 . S
H453 C463 0.930 . S
C454 H448 0.930 . S
C454 C455 1.355 . S
C454 C456 1.415 . S
C455 C454 1.355 . S
C455 C457 1.419 . S
C456 C454 1.415 . S
C456 C461 1.425 . S
C456 C463 1.409 . S
C457 H449 0.930 . S
C457 C455 1.419 . S
C457 C458 1.362 . S
C458 H450 0.930 . S
C458 C457 1.362 . S
C458 C461 1.409 . S
C459 H451 0.930 . S
C459 C460 1.355 . S
C459 C461 1.415 . S
C460 C459 1.355 . S
C460 C462 1.419 . S
C461 C456 1.425 . S
C461 C458 1.409 . S
C461 C459 1.415 . S
C462 H452 0.930 . S
C462 C460 1.419 . S
C462 C463 1.362 . S
C463 H453 0.930 . S
C463 C456 1.409 . S
C463 C462 1.362 . S
H464 C470 0.930 . S
H465 C473 0.930 . S
H466 C474 0.930 . S
H467 C475 0.930 . S
H468 C478 0.930 . S
H469 C479 0.930 . S
C470 H464 0.930 . S
C470 C471 1.355 1_545 S
C470 C472 1.415 . S
C471 C470 1.355 1_565 S
C471 C473 1.419 . S
C472 C470 1.415 . S
C472 C477 1.425 1_545 S
C472 C479 1.409 1_556 S
C473 H465 0.930 . S
C473 C471 1.419 . S
C473 C474 1.362 . S
C474 H466 0.930 . S
C474 C473 1.362 . S
C474 C477 1.409 . S
C475 H467 0.930 . S
C475 C476 1.355 1_566 S
C475 C477 1.415 . S
C476 C475 1.355 1_544 S
C476 C478 1.419 . S
C477 C472 1.425 1_565 S
C477 C474 1.409 . S
C477 C475 1.415 . S
C478 H468 0.930 . S
C478 C476 1.419 . S
C478 C479 1.362 . S
C479 H469 0.930 . S
C479 C472 1.409 1_554 S
C479 C478 1.362 . S
H480 C486 0.930 . S
H481 C489 0.930 . S
H482 C490 0.930 . S
H483 C491 0.930 . S
H484 C494 0.930 . S
H485 C495 0.930 . S
C486 H480 0.930 . S
C486 C487 1.355 . S
C486 C488 1.415 . S
C487 C486 1.355 . S
C487 C489 1.419 . S
C488 C486 1.415 . S
C488 C493 1.425 . S
C488 C495 1.409 . S
C489 H481 0.930 . S
C489 C487 1.419 . S
C489 C490 1.362 . S
C490 H482 0.930 . S
C490 C489 1.362 . S
C490 C493 1.409 . S
C491 H483 0.930 . S
C491 C492 1.355 . S
C491 C493 1.415 . S
C492 C491 1.355 . S
C492 C494 1.419 . S
C493 C488 1.425 . S
C493 C490 1.409 . S
C493 C491 1.415 . S
C494 H484 0.930 . S
C494 C492 1.419 . S
C494 C495 1.362 . S
C495 H485 0.930 . S
C495 C488 1.409 . S
C495 C494 1.362 . S
H496 C502 0.930 . S
H497 C505 0.930 . S
H498 C506 0.930 . S
H499 C507 0.930 . S
H500 C510 0.930 . S
H501 C511 0.930 . S
C502 H496 0.930 . S
C502 C503 1.355 . S
C502 C504 1.415 . S
C503 C502 1.355 . S
C503 C505 1.419 . S
C504 C502 1.415 . S
C504 C509 1.425 . S
C504 C511 1.409 . S
C505 H497 0.930 . S
C505 C503 1.419 . S
C505 C506 1.362 . S
C506 H498 0.930 . S
C506 C505 1.362 . S
C506 C509 1.409 . S
C507 H499 0.930 . S
C507 C508 1.355 . S
C507 C509 1.415 . S
C508 C507 1.355 . S
C508 C510 1.419 . S
C509 C504 1.425 . S
C509 C506 1.409 . S
C509 C507 1.415 . S
C510 H500 0.930 . S
C510 C508 1.419 . S
C510 C511 1.362 . S
C511 H501 0.930 . S
C511 C504 1.409 . S
C511 C510 1.362 . S
H512 C518 0.930 . S
H513 C521 0.930 . S
H514 C522 0.930 . S
H515 C523 0.930 . S
H516 C526 0.930 . S
H517 C527 0.930 . S
C518 H512 0.930 . S
C518 C519 1.355 . S
C518 C520 1.415 . S
C519 C518 1.355 . S
C519 C521 1.419 . S
C520 C518 1.415 . S
C520 C525 1.425 . S
C520 C527 1.409 . S
C521 H513 0.930 . S
C521 C519 1.419 . S
C521 C522 1.362 . S
C522 H514 0.930 . S
C522 C521 1.362 . S
C522 C525 1.409 . S
C523 H515 0.930 . S
C523 C524 1.355 . S
C523 C525 1.415 . S
C524 C523 1.355 . S
C524 C526 1.419 . S
C525 C520 1.425 . S
C525 C522 1.409 . S
C525 C523 1.415 . S
C526 H516 0.930 . S
C526 C524 1.419 . S
C526 C527 1.362 . S
C527 H517 0.930 . S
C527 C520 1.409 . S
C527 C526 1.362 . S
H528 C534 0.930 . S
H529 C537 0.930 . S
H530 C538 0.930 . S
H531 C539 0.930 . S
H532 C542 0.930 . S
H533 C543 0.930 1_554 S
C534 H528 0.930 . S
C534 C535 1.355 . S
C534 C536 1.415 . S
C535 C534 1.355 . S
C535 C537 1.419 . S
C536 C534 1.415 . S
C536 C541 1.425 . S
C536 C543 1.409 1_655 S
C537 H529 0.930 . S
C537 C535 1.419 . S
C537 C538 1.362 . S
C538 H530 0.930 . S
C538 C537 1.362 . S
C538 C541 1.409 . S
C539 H531 0.930 . S
C539 C540 1.355 . S
C539 C541 1.415 . S
C540 C539 1.355 . S
C540 C542 1.419 1_656 S
C541 C536 1.425 . S
C541 C538 1.409 . S
C541 C539 1.415 . S
C542 H532 0.930 . S
C542 C540 1.419 1_454 S
C542 C543 1.362 1_554 S
C543 H533 0.930 1_556 S
C543 C536 1.409 1_455 S
C543 C542 1.362 1_556 S
H544 C550 0.930 . S
H545 C553 0.930 . S
H546 C554 0.930 . S
H547 C555 0.930 . S
H548 C558 0.930 . S
H549 C559 0.930 . S
C550 H544 0.930 . S
C550 C551 1.355 . S
C550 C552 1.415 . S
C551 C550 1.355 . S
C551 C553 1.419 . S
C552 C550 1.415 . S
C552 C557 1.425 . S
C552 C559 1.409 . S
C553 H545 0.930 . S
C553 C551 1.419 . S
C553 C554 1.362 . S
C554 H546 0.930 . S
C554 C553 1.362 . S
C554 C557 1.409 . S
C555 H547 0.930 . S
C555 C556 1.355 . S
C555 C557 1.415 . S
C556 C555 1.355 . S
C556 C558 1.419 . S
C557 C552 1.425 . S
C557 C554 1.409 . S
C557 C555 1.415 . S
C558 H548 0.930 . S
C558 C556 1.419 . S
C558 C559 1.362 . S
C559 H549 0.930 . S
C559 C552 1.409 . S
C559 C558 1.362 . S
H560 C566 0.930 . S
H561 C569 0.930 . S
H562 C570 0.930 . S
H563 C571 0.930 . S
H564 C574 0.930 1_655 S
H565 C575 0.930 1_655 S
C566 H560 0.930 . S
C566 C567 1.355 . S
C566 C568 1.415 . S
C567 C566 1.355 . S
C567 C569 1.419 . S
C568 C566 1.415 . S
C568 C573 1.425 . S
C568 C575 1.409 . S
C569 H561 0.930 . S
C569 C567 1.419 . S
C569 C570 1.362 . S
C570 H562 0.930 . S
C570 C569 1.362 . S
C570 C573 1.409 . S
C571 H563 0.930 . S
C571 C572 1.355 . S
C571 C573 1.415 . S
C572 C571 1.355 . S
C572 C574 1.419 . S
C573 C568 1.425 . S
C573 C570 1.409 . S
C573 C571 1.415 . S
C574 H564 0.930 1_455 S
C574 C572 1.419 . S
C574 C575 1.362 . S
C575 H565 0.930 1_455 S
C575 C568 1.409 . S
C575 C574 1.362 . S
H576 C582 0.930 . S
H577 C585 0.930 . S
H578 C586 0.930 . S
H579 C587 0.930 . S
H580 C590 0.930 . S
H581 C591 0.930 . S
C582 H576 0.930 . S
C582 C583 1.355 . S
C582 C584 1.415 . S
C583 C582 1.355 . S
C583 C585 1.419 . S
C584 C582 1.415 . S
C584 C589 1.425 . S
C584 C591 1.409 . S
C585 H577 0.930 . S
C585 C583 1.419 . S
C585 C586 1.362 . S
C586 H578 0.930 . S
C586 C585 1.362 . S
C586 C589 1.409 . S
C587 H579 0.930 . S
C587 C588 1.355 . S
C587 C589 1.415 . S
C588 C587 1.355 . S
C588 C590 1.419 . S
C589 C584 1.425 . S
C589 C586 1.409 . S
C589 C587 1.415 . S
C590 H580 0.930 . S
C590 C588 1.419 . S
C590 C591 1.362 . S
C591 H581 0.930 . S
C591 C584 1.409 . S
C591 C590 1.362 . S
C215 C6 2.287 . S
C220 C104 2.299 . S
C231 C20 1.383 . S
C236 N124 1.330 . S
C252 C158 1.626 . S
C247 N26 1.599 . S
C263 N37 1.157 . S
C268 N192 1.065 . S
C284 C145 2.681 . S
C279 C9 2.660 . S
C300 N102 0.985 . S
C295 N15 1.006 . S
C316 C179 1.867 1_556 S
C311 C31 1.864 . S
C332 N154 0.919 . S
C327 C39 0.978 . S
C343 N4 1.800 . S
C348 C194 1.809 . S
C364 C128 1.766 . S
C359 C28 1.728 . S
C375 C42 1.122 . S
C380 C89 1.148 . S
C391 C17 1.562 . S
C396 C175 1.563 . S
C412 C115 2.387 1_565 S
C407 C50 2.376 . S
C423 C61 1.198 . S
C428 N132 1.129 . S
C439 N70 1.879 . S
C444 C149 1.883 . S
C455 N81 1.065 . S
C460 N184 1.041 . S
C471 N48 2.084 . S
C476 C134 2.116 . S
C492 N94 1.467 . S
C487 C64 1.474 . S
C508 C188 1.887 . S
C503 C75 1.852 . S
C524 N162 1.005 . S
C519 C86 0.991 . S
C535 C53 2.011 . S
C540 C205 2.036 1_656 S
C556 C119 1.452 . S
C551 C72 1.444 . S
C572 C98 1.448 . S
C567 C83 1.451 . S
C583 N59 1.421 . S
C588 C164 1.417 . S
