# Generated by pormake.
# Topology ssb, (4,4)-cn, num edge types: 1
# Building blocks:
#     Node 0, Type 0, BuildingBlock: NAWXER_clean_linker_0, # of connection points: 4
#     Node 1, Type 0, BuildingBlock: NAWXER_clean_linker_0, # of connection points: 4
#     Node 2, Type 0, BuildingBlock: NAWXER_clean_linker_0, # of connection points: 4
#     Node 3, Type 0, BuildingBlock: NAWXER_clean_linker_0, # of connection points: 4
#     Node 4, Type 0, BuildingBlock: NAWXER_clean_linker_0, # of connection points: 4
#     Node 5, Type 0, BuildingBlock: NAWXER_clean_linker_0, # of connection points: 4
#     Node 6, Type 0, BuildingBlock: NAWXER_clean_linker_0, # of connection points: 4
#     Node 7, Type 0, BuildingBlock: NAWXER_clean_linker_0, # of connection points: 4
#     Node 8, Type 1, BuildingBlock: NAWXER_clean_sbu_0, # of connection points: 4
#     Node 9, Type 1, BuildingBlock: NAWXER_clean_sbu_0, # of connection points: 4
#     Node 10, Type 1, BuildingBlock: NAWXER_clean_sbu_0, # of connection points: 4
#     Node 11, Type 1, BuildingBlock: NAWXER_clean_sbu_0, # of connection points: 4
#     Node 12, Type 1, BuildingBlock: NAWXER_clean_sbu_0, # of connection points: 4
#     Node 13, Type 1, BuildingBlock: NAWXER_clean_sbu_0, # of connection points: 4
#     Node 14, Type 1, BuildingBlock: NAWXER_clean_sbu_0, # of connection points: 4
#     Node 15, Type 1, BuildingBlock: NAWXER_clean_sbu_0, # of connection points: 4
#     Edge 16, Type (0, 1), BuildingBlock: EZIPEK_clean_linker_0, # of connection points: 2
#     Edge 17, Type (0, 1), BuildingBlock: EZIPEK_clean_linker_0, # of connection points: 2
#     Edge 18, Type (0, 1), BuildingBlock: EZIPEK_clean_linker_0, # of connection points: 2
#     Edge 19, Type (0, 1), BuildingBlock: EZIPEK_clean_linker_0, # of connection points: 2
#     Edge 20, Type (0, 1), BuildingBlock: EZIPEK_clean_linker_0, # of connection points: 2
#     Edge 21, Type (0, 1), BuildingBlock: EZIPEK_clean_linker_0, # of connection points: 2
#     Edge 22, Type (0, 1), BuildingBlock: EZIPEK_clean_linker_0, # of connection points: 2
#     Edge 23, Type (0, 1), BuildingBlock: EZIPEK_clean_linker_0, # of connection points: 2
#     Edge 24, Type (0, 1), BuildingBlock: EZIPEK_clean_linker_0, # of connection points: 2
#     Edge 25, Type (0, 1), BuildingBlock: EZIPEK_clean_linker_0, # of connection points: 2
#     Edge 26, Type (0, 1), BuildingBlock: EZIPEK_clean_linker_0, # of connection points: 2
#     Edge 27, Type (0, 1), BuildingBlock: EZIPEK_clean_linker_0, # of connection points: 2
#     Edge 28, Type (0, 1), BuildingBlock: EZIPEK_clean_linker_0, # of connection points: 2
#     Edge 29, Type (0, 1), BuildingBlock: EZIPEK_clean_linker_0, # of connection points: 2
#     Edge 30, Type (0, 1), BuildingBlock: EZIPEK_clean_linker_0, # of connection points: 2
#     Edge 31, Type (0, 1), BuildingBlock: EZIPEK_clean_linker_0, # of connection points: 2
#     Edge 32, Type (0, 1), BuildingBlock: EZIPEK_clean_linker_0, # of connection points: 2
#     Edge 33, Type (0, 1), BuildingBlock: EZIPEK_clean_linker_0, # of connection points: 2
#     Edge 34, Type (0, 1), BuildingBlock: EZIPEK_clean_linker_0, # of connection points: 2
#     Edge 35, Type (0, 1), BuildingBlock: EZIPEK_clean_linker_0, # of connection points: 2
#     Edge 36, Type (0, 1), BuildingBlock: EZIPEK_clean_linker_0, # of connection points: 2
#     Edge 37, Type (0, 1), BuildingBlock: EZIPEK_clean_linker_0, # of connection points: 2
#     Edge 38, Type (0, 1), BuildingBlock: EZIPEK_clean_linker_0, # of connection points: 2
#     Edge 39, Type (0, 1), BuildingBlock: EZIPEK_clean_linker_0, # of connection points: 2
#     Edge 40, Type (0, 1), BuildingBlock: EZIPEK_clean_linker_0, # of connection points: 2
#     Edge 41, Type (0, 1), BuildingBlock: EZIPEK_clean_linker_0, # of connection points: 2
#     Edge 42, Type (0, 1), BuildingBlock: EZIPEK_clean_linker_0, # of connection points: 2
#     Edge 43, Type (0, 1), BuildingBlock: EZIPEK_clean_linker_0, # of connection points: 2
#     Edge 44, Type (0, 1), BuildingBlock: EZIPEK_clean_linker_0, # of connection points: 2
#     Edge 45, Type (0, 1), BuildingBlock: EZIPEK_clean_linker_0, # of connection points: 2
#     Edge 46, Type (0, 1), BuildingBlock: EZIPEK_clean_linker_0, # of connection points: 2
#     Edge 47, Type (0, 1), BuildingBlock: EZIPEK_clean_linker_0, # of connection points: 2
# Relax obj value: 0.000
# Max RMSD: 0.001
# Mean RMSD: 0.001
data_MOF--net-ssb--node1-NAWXER_clean_sbu_0--node2-NAWXER_clean_linker_0--edge1-EZIPEK_clean_linker_0
_symmetry_space_group_name_H-M    P1
_symmetry_Int_Tables_number       1
_symmetry_cell_setting            triclinic
loop_
_symmetry_equiv_pos_as_xyz
'x, y, z'
_cell_length_a     41.654982
_cell_length_b     41.639627
_cell_length_c     36.291181
_cell_angle_alpha  89.945419
_cell_angle_beta   89.977368
_cell_angle_gamma 89.876959
loop_
_atom_site_label
_atom_site_type_symbol
_atom_site_fract_x
_atom_site_fract_y
_atom_site_fract_z
_atom_type_partial_charge
C0 C 0.33478 0.27551 0.16596 0.0
C1 C 0.36618 0.26787 0.17701 0.0
C2 C 0.30963 0.27515 0.19143 0.0
C3 C 0.31555 0.26836 0.22881 0.0
C4 C 0.3718 0.25899 0.21384 0.0
C5 C 0.34668 0.25934 0.23958 0.0
C6 C 0.28978 0.27233 0.25684 0.0
C7 C 0.31169 0.36624 0.20332 0.0
C8 C 0.28603 0.37715 0.18156 0.0
C9 C 0.30667 0.34254 0.23009 0.0
C10 C 0.27606 0.32887 0.23486 0.0
C11 C 0.25515 0.36485 0.18778 0.0
C12 C 0.25018 0.341 0.21432 0.0
C13 C 0.27106 0.3007 0.25933 0.0
C14 C 0.19267 0.27561 0.3971 0.0
C15 C 0.16212 0.28481 0.38466 0.0
C16 C 0.21848 0.27412 0.37247 0.0
C17 C 0.21395 0.28139 0.33495 0.0
C18 C 0.15794 0.29368 0.34766 0.0
C19 C 0.18373 0.29219 0.32304 0.0
C20 C 0.24028 0.27719 0.30783 0.0
C21 C 0.21282 0.17993 0.3502 0.0
C22 C 0.23709 0.16487 0.37076 0.0
C23 C 0.21987 0.20676 0.32835 0.0
C24 C 0.25124 0.2193 0.32706 0.0
C25 C 0.26855 0.17683 0.36883 0.0
C26 C 0.27561 0.20369 0.34698 0.0
C27 C 0.25864 0.24861 0.30509 0.0
H28 H 0.32981 0.28202 0.13762 0.0
H29 H 0.28567 0.28119 0.18212 0.0
H30 H 0.39577 0.25259 0.22282 0.0
H31 H 0.35177 0.25361 0.26811 0.0
H32 H 0.33567 0.37551 0.19895 0.0
H33 H 0.32691 0.33406 0.24615 0.0
H34 H 0.23507 0.37303 0.17126 0.0
H35 H 0.22636 0.33102 0.21765 0.0
H36 H 0.19627 0.26857 0.42555 0.0
H37 H 0.24176 0.26652 0.38253 0.0
H38 H 0.13445 0.30068 0.33761 0.0
H39 H 0.17974 0.29821 0.29435 0.0
H40 H 0.18845 0.17094 0.35116 0.0
H41 H 0.20074 0.21781 0.31256 0.0
H42 H 0.28762 0.16543 0.38439 0.0
H43 H 0.29998 0.21268 0.34624 0.0
N44 N 0.283 0.24744 0.27999 0.0
N45 N 0.24693 0.30191 0.28454 0.0
C46 C 0.68581 0.2622 0.1547 0.0
C47 C 0.67589 0.23412 0.13662 0.0
C48 C 0.71415 0.26233 0.17541 0.0
C49 C 0.73329 0.23452 0.17777 0.0
C50 C 0.69478 0.2063 0.13921 0.0
C51 C 0.72319 0.20649 0.15968 0.0
C52 C 0.76213 0.23328 0.20169 0.0
C53 C 0.78028 0.30992 0.1168 0.0
C54 C 0.78585 0.34034 0.13212 0.0
C55 C 0.7811 0.28249 0.13913 0.0
C56 C 0.78685 0.28527 0.17719 0.0
C57 C 0.79296 0.34297 0.16975 0.0
C58 C 0.79354 0.31567 0.19206 0.0
C59 C 0.78657 0.25695 0.20194 0.0
C60 C 0.88058 0.1977 0.31054 0.0
C61 C 0.88449 0.22312 0.33547 0.0
C62 C 0.85833 0.20028 0.28182 0.0
C63 C 0.83979 0.22833 0.27768 0.0
C64 C 0.86716 0.25171 0.33023 0.0
C65 C 0.84511 0.25438 0.30137 0.0
C66 C 0.81267 0.22944 0.25133 0.0
C67 C 0.78832 0.16498 0.34442 0.0
C68 C 0.78276 0.13294 0.33449 0.0
C69 C 0.78896 0.18889 0.31763 0.0
C70 C 0.78566 0.18103 0.28017 0.0
C71 C 0.77785 0.12515 0.29727 0.0
C72 C 0.77946 0.14907 0.27023 0.0
C73 C 0.78796 0.2063 0.2516 0.0
H74 H 0.67136 0.28382 0.15318 0.0
H75 H 0.72071 0.28394 0.19014 0.0
H76 H 0.6874 0.18441 0.12555 0.0
H77 H 0.73724 0.18462 0.16156 0.0
H78 H 0.7748 0.30751 0.08776 0.0
H79 H 0.7769 0.25924 0.12673 0.0
H80 H 0.79728 0.36629 0.18198 0.0
H81 H 0.7984 0.31842 0.22121 0.0
H82 H 0.89418 0.17569 0.31386 0.0
H83 H 0.85482 0.18001 0.26357 0.0
H84 H 0.8703 0.27172 0.34893 0.0
H85 H 0.83109 0.2762 0.29864 0.0
H86 H 0.79158 0.17153 0.37306 0.0
H87 H 0.79214 0.21355 0.32628 0.0
H88 H 0.773 0.10059 0.28922 0.0
H89 H 0.7762 0.14259 0.24157 0.0
N90 N 0.76394 0.20885 0.2265 0.0
N91 N 0.81083 0.25409 0.22689 0.0
C92 C 0.65589 0.73108 0.17153 0.0
C93 C 0.62352 0.73366 0.18171 0.0
C94 C 0.67986 0.73124 0.19827 0.0
C95 C 0.67194 0.73305 0.23588 0.0
C96 C 0.61546 0.73654 0.21917 0.0
C97 C 0.63958 0.73624 0.24613 0.0
C98 C 0.69766 0.73145 0.26407 0.0
C99 C 0.69024 0.63757 0.20715 0.0
C100 C 0.71643 0.63151 0.1839 0.0
C101 C 0.6923 0.66143 0.2341 0.0
C102 C 0.72043 0.67982 0.23775 0.0
C103 C 0.745 0.64881 0.18858 0.0
C104 C 0.74703 0.67273 0.21543 0.0
C105 C 0.72169 0.70752 0.26327 0.0
C106 C 0.80878 0.74108 0.39113 0.0
C107 C 0.83817 0.73512 0.37336 0.0
C108 C 0.78007 0.74129 0.37099 0.0
C109 C 0.78045 0.73607 0.33269 0.0
C110 C 0.8385 0.72938 0.33532 0.0
C111 C 0.80994 0.72979 0.31522 0.0
C112 C 0.75054 0.73507 0.31045 0.0
C113 C 0.7524 0.83562 0.35858 0.0
C114 C 0.72582 0.84246 0.38104 0.0
C115 C 0.75276 0.80797 0.33666 0.0
C116 C 0.72659 0.78669 0.33708 0.0
C117 C 0.69964 0.82134 0.38141 0.0
C118 C 0.69993 0.79381 0.35936 0.0
C119 C 0.72564 0.75829 0.31252 0.0
H120 H 0.6626 0.72942 0.14274 0.0
H121 H 0.70469 0.72981 0.18953 0.0
H122 H 0.5906 0.73912 0.22744 0.0
H123 H 0.63297 0.73807 0.27492 0.0
H124 H 0.66818 0.62411 0.20411 0.0
H125 H 0.6717 0.66602 0.25155 0.0
H126 H 0.76551 0.64414 0.17099 0.0
H127 H 0.76899 0.68647 0.21789 0.0
H128 H 0.80811 0.74548 0.42053 0.0
H129 H 0.75764 0.74516 0.38542 0.0
H130 H 0.86094 0.72477 0.32117 0.0
H131 H 0.81092 0.72538 0.28582 0.0
H132 H 0.77274 0.85178 0.3579 0.0
H133 H 0.77324 0.80348 0.31897 0.0
H134 H 0.67893 0.82634 0.39853 0.0
H135 H 0.67932 0.77798 0.35976 0.0
N136 N 0.70022 0.7556 0.2891 0.0
N137 N 0.74739 0.71055 0.28598 0.0
C138 C 0.33703 0.75247 0.14055 0.0
C139 C 0.34084 0.78013 0.11883 0.0
C140 C 0.31095 0.74988 0.16468 0.0
C141 C 0.28839 0.7749 0.16714 0.0
C142 C 0.3179 0.8047 0.12057 0.0
C143 C 0.29197 0.80218 0.14474 0.0
C144 C 0.26387 0.77532 0.19644 0.0
C145 C 0.23982 0.69378 0.11992 0.0
C146 C 0.23259 0.66444 0.13715 0.0
C147 C 0.24154 0.72218 0.14048 0.0
C148 C 0.2374 0.72164 0.17901 0.0
C149 C 0.22657 0.66414 0.17521 0.0
C150 C 0.2292 0.69233 0.19591 0.0
C151 C 0.24047 0.75109 0.2022 0.0
C152 C 0.15655 0.81525 0.31683 0.0
C153 C 0.14842 0.78867 0.33862 0.0
C154 C 0.18025 0.81249 0.28972 0.0
C155 C 0.19635 0.78313 0.28405 0.0
C156 C 0.16426 0.75929 0.33293 0.0
C157 C 0.18794 0.75649 0.30573 0.0
C158 C 0.22116 0.78001 0.25485 0.0
C159 C 0.26579 0.84339 0.33996 0.0
C160 C 0.26525 0.87595 0.32991 0.0
C161 C 0.25928 0.8197 0.3139 0.0
C162 C 0.25254 0.82819 0.27729 0.0
C163 C 0.25937 0.88444 0.29306 0.0
C164 C 0.25349 0.86061 0.26677 0.0
C165 C 0.24557 0.80299 0.24992 0.0
H166 H 0.35471 0.73338 0.13954 0.0
H167 H 0.30905 0.72899 0.18236 0.0
H168 H 0.32062 0.82621 0.10405 0.0
H169 H 0.27508 0.82194 0.14667 0.0
H170 H 0.24407 0.69468 0.09048 0.0
H171 H 0.246 0.74446 0.12605 0.0
H172 H 0.2206 0.64187 0.18905 0.0
H173 H 0.22529 0.69107 0.2254 0.0
H174 H 0.14417 0.83794 0.32043 0.0
H175 H 0.18555 0.83319 0.2727 0.0
H176 H 0.15793 0.73841 0.34921 0.0
H177 H 0.19977 0.73357 0.3017 0.0
H178 H 0.27021 0.83642 0.36829 0.0
H179 H 0.25934 0.79473 0.32235 0.0
H180 H 0.25865 0.90946 0.28491 0.0
H181 H 0.24873 0.86751 0.2385 0.0
N182 N 0.26553 0.80007 0.22068 0.0
N183 N 0.21985 0.75468 0.23117 0.0
C184 C 0.16526 0.75376 0.65517 0.0
C185 C 0.1608 0.72492 0.63575 0.0
C186 C 0.19068 0.75702 0.67997 0.0
C187 C 0.21305 0.73202 0.68458 0.0
C188 C 0.18211 0.69931 0.64176 0.0
C189 C 0.20815 0.70293 0.66573 0.0
C190 C 0.2409 0.73519 0.70988 0.0
C191 C 0.24699 0.81586 0.62748 0.0
C192 C 0.24704 0.84669 0.64326 0.0
C193 C 0.2523 0.78861 0.64929 0.0
C194 C 0.25663 0.7915 0.68759 0.0
C195 C 0.2523 0.8497 0.68133 0.0
C196 C 0.257 0.82237 0.70327 0.0
C197 C 0.26106 0.7627 0.71149 0.0
C198 C 0.36841 0.70868 0.80494 0.0
C199 C 0.37197 0.73151 0.83296 0.0
C200 C 0.34346 0.71158 0.77948 0.0
C201 C 0.32143 0.73715 0.78186 0.0
C202 C 0.35089 0.75787 0.8345 0.0
C203 C 0.32581 0.76076 0.80896 0.0
C204 C 0.29235 0.73718 0.75836 0.0
C205 C 0.27671 0.66607 0.8485 0.0
C206 C 0.28248 0.63445 0.83685 0.0
C207 C 0.27281 0.69068 0.82272 0.0
C208 C 0.27444 0.68409 0.7848 0.0
C209 C 0.28424 0.62783 0.79891 0.0
C210 C 0.27984 0.65245 0.77304 0.0
C211 C 0.27151 0.71059 0.75778 0.0
H212 H 0.14872 0.77362 0.65148 0.0
H213 H 0.19283 0.77914 0.69542 0.0
H214 H 0.17876 0.67667 0.6276 0.0
H215 H 0.22464 0.68302 0.66934 0.0
H216 H 0.24352 0.81299 0.59809 0.0
H217 H 0.25292 0.76527 0.63618 0.0
H218 H 0.25297 0.87324 0.694 0.0
H219 H 0.26066 0.82533 0.73262 0.0
H220 H 0.38454 0.68829 0.80329 0.0
H221 H 0.34071 0.69326 0.75854 0.0
H222 H 0.35342 0.77573 0.85597 0.0
H223 H 0.30907 0.78059 0.81133 0.0
H224 H 0.27515 0.67166 0.8776 0.0
H225 H 0.26851 0.71492 0.83236 0.0
H226 H 0.28867 0.60357 0.7894 0.0
H227 H 0.28129 0.64694 0.74392 0.0
N228 N 0.24692 0.71032 0.73328 0.0
N229 N 0.28613 0.76253 0.73571 0.0
C230 C 0.35873 0.23542 0.83366 0.0
C231 C 0.35593 0.23626 0.87218 0.0
C232 C 0.33143 0.23721 0.81148 0.0
C233 C 0.30065 0.2391 0.82726 0.0
C234 C 0.32527 0.23858 0.88809 0.0
C235 C 0.29786 0.23913 0.86584 0.0
C236 C 0.27226 0.23602 0.80286 0.0
C237 C 0.23085 0.31028 0.88633 0.0
C238 C 0.23869 0.34068 0.87202 0.0
C239 C 0.23195 0.28301 0.86381 0.0
C240 C 0.24301 0.28529 0.82736 0.0
C241 C 0.24745 0.34314 0.83466 0.0
C242 C 0.25004 0.31564 0.81272 0.0
C243 C 0.24521 0.25661 0.80347 0.0
C244 C 0.15424 0.19139 0.6977 0.0
C245 C 0.1437 0.21804 0.67724 0.0
C246 C 0.17983 0.1945 0.72245 0.0
C247 C 0.19507 0.22433 0.72717 0.0
C248 C 0.15854 0.24791 0.68246 0.0
C249 C 0.18386 0.25108 0.70742 0.0
C250 C 0.22267 0.22797 0.75254 0.0
C251 C 0.25662 0.16532 0.65859 0.0
C252 C 0.27216 0.13674 0.66888 0.0
C253 C 0.24943 0.18871 0.68498 0.0
C254 C 0.25644 0.18336 0.72243 0.0
C255 C 0.28054 0.13197 0.70591 0.0
C256 C 0.2725 0.15489 0.73243 0.0
C257 C 0.2503 0.20817 0.75106 0.0
H258 H 0.38211 0.23334 0.82078 0.0
H259 H 0.33433 0.23634 0.78182 0.0
H260 H 0.32254 0.23878 0.91778 0.0
H261 H 0.27471 0.23788 0.87901 0.0
H262 H 0.22373 0.3077 0.91488 0.0
H263 H 0.22458 0.26007 0.87501 0.0
H264 H 0.25314 0.36631 0.82276 0.0
H265 H 0.25759 0.31805 0.78428 0.0
H266 H 0.14273 0.16828 0.69438 0.0
H267 H 0.18774 0.17366 0.73789 0.0
H268 H 0.15043 0.26879 0.66722 0.0
H269 H 0.19511 0.27433 0.7108 0.0
H270 H 0.25032 0.16963 0.63004 0.0
H271 H 0.23887 0.21109 0.67583 0.0
H272 H 0.2928 0.1102 0.71435 0.0
H273 H 0.27889 0.15034 0.7609 0.0
N274 N 0.27365 0.21295 0.77651 0.0
N275 N 0.22152 0.25179 0.77824 0.0
C276 C 0.81844 0.24708 0.65078 0.0
C277 C 0.83081 0.27542 0.63525 0.0
C278 C 0.7902 0.24779 0.67171 0.0
C279 C 0.77308 0.27669 0.67643 0.0
C280 C 0.814 0.30433 0.64027 0.0
C281 C 0.7854 0.30492 0.6605 0.0
C282 C 0.74448 0.27876 0.70099 0.0
C283 C 0.72219 0.20302 0.61645 0.0
C284 C 0.71678 0.17257 0.63189 0.0
C285 C 0.72221 0.2304 0.63885 0.0
C286 C 0.71746 0.22759 0.67711 0.0
C287 C 0.7105 0.16996 0.66975 0.0
C288 C 0.71074 0.19723 0.69212 0.0
C289 C 0.71922 0.25582 0.70197 0.0
C290 C 0.63063 0.31979 0.81369 0.0
C291 C 0.62516 0.2945 0.83844 0.0
C292 C 0.65166 0.31572 0.78405 0.0
C293 C 0.66841 0.28663 0.77929 0.0
C294 C 0.64041 0.2648 0.83248 0.0
C295 C 0.66188 0.26089 0.8031 0.0
C296 C 0.69489 0.28419 0.75197 0.0
C297 C 0.72654 0.34654 0.84408 0.0
C298 C 0.72156 0.37889 0.83486 0.0
C299 C 0.72713 0.32315 0.8166 0.0
C300 C 0.72305 0.33183 0.7795 0.0
C301 C 0.71801 0.38765 0.79767 0.0
C302 C 0.71913 0.36425 0.77008 0.0
C303 C 0.72011 0.30665 0.75119 0.0
H304 H 0.83123 0.22457 0.64763 0.0
H305 H 0.78233 0.22589 0.68497 0.0
H306 H 0.82325 0.32651 0.62886 0.0
H307 H 0.7731 0.32764 0.66419 0.0
H308 H 0.72705 0.20547 0.58726 0.0
H309 H 0.7265 0.25365 0.6264 0.0
H310 H 0.70632 0.14665 0.68212 0.0
H311 H 0.70663 0.19444 0.72143 0.0
H312 H 0.61902 0.34283 0.81771 0.0
H313 H 0.65571 0.33572 0.76554 0.0
H314 H 0.6364 0.24496 0.85125 0.0
H315 H 0.67444 0.23824 0.79996 0.0
H316 H 0.72953 0.3394 0.87259 0.0
H317 H 0.73016 0.29818 0.82431 0.0
H318 H 0.71429 0.41256 0.79011 0.0
H319 H 0.71575 0.37127 0.74159 0.0
N320 N 0.74373 0.30333 0.72571 0.0
N321 N 0.69554 0.25939 0.72764 0.0
C322 C 0.84457 0.77736 0.66174 0.0
C323 C 0.87733 0.77771 0.67054 0.0
C324 C 0.8216 0.77628 0.68969 0.0
C325 C 0.83105 0.77575 0.72686 0.0
C326 C 0.88686 0.77657 0.70765 0.0
C327 C 0.86382 0.77539 0.73567 0.0
C328 C 0.80657 0.77724 0.75627 0.0
C329 C 0.81447 0.87188 0.70082 0.0
C330 C 0.78774 0.87792 0.6784 0.0
C331 C 0.813 0.84803 0.72782 0.0
C332 C 0.78483 0.82992 0.73247 0.0
C333 C 0.75928 0.86067 0.68389 0.0
C334 C 0.75778 0.83688 0.71091 0.0
C335 C 0.78401 0.80242 0.7581 0.0
C336 C 0.69094 0.80076 0.87215 0.0
C337 C 0.6696 0.77487 0.86944 0.0
C338 C 0.71954 0.80067 0.85203 0.0
C339 C 0.72755 0.77434 0.8297 0.0
C340 C 0.67734 0.74871 0.8467 0.0
C341 C 0.70621 0.74838 0.82707 0.0
C342 C 0.75679 0.77548 0.80674 0.0
C343 C 0.78727 0.6657 0.84162 0.0
C344 C 0.7798 0.66931 0.87908 0.0
C345 C 0.78749 0.69236 0.81825 0.0
C346 C 0.78015 0.72309 0.83188 0.0
C347 C 0.77322 0.70003 0.89306 0.0
C348 C 0.77371 0.72678 0.86972 0.0
C349 C 0.78046 0.75099 0.80639 0.0
H350 H 0.83684 0.77783 0.63324 0.0
H351 H 0.7964 0.77619 0.68232 0.0
H352 H 0.91211 0.7765 0.71482 0.0
H353 H 0.87152 0.77499 0.76418 0.0
H354 H 0.83645 0.88536 0.69711 0.0
H355 H 0.83397 0.84332 0.74463 0.0
H356 H 0.73838 0.86541 0.66696 0.0
H357 H 0.73586 0.82319 0.71414 0.0
H358 H 0.68531 0.82107 0.88966 0.0
H359 H 0.73551 0.8211 0.854 0.0
H360 H 0.66111 0.72851 0.84441 0.0
H361 H 0.71163 0.72815 0.80934 0.0
H362 H 0.79236 0.64214 0.83039 0.0
H363 H 0.79287 0.68886 0.78932 0.0
H364 H 0.76749 0.70322 0.92195 0.0
H365 H 0.76916 0.75029 0.88133 0.0
N366 N 0.80431 0.75266 0.78077 0.0
N367 N 0.7597 0.80043 0.78285 0.0
C368 C 0.95301 0.26885 0.5577 0.0
C369 C 0.04968 0.27163 0.47882 0.0
O370 O 0.96878 0.29366 0.54816 0.0
Zn371 Zn 1.00215 0.27219 0.51945 0.0
O372 O 0.96312 0.24096 0.54827 0.0
Zn373 Zn 1.00269 0.2209 0.51822 0.0
O374 O 0.0269 0.19762 0.55561 0.0
O375 O 0.03252 0.2502 0.56018 0.0
O376 O 0.0409 0.24345 0.48857 0.0
O377 O 0.0335 0.2958 0.48985 0.0
O378 O 0.97449 0.25148 0.47623 0.0
O379 O 0.9809 0.19891 0.4778 0.0
C380 C 0.03979 0.22181 0.57108 0.0
C381 C 0.96897 0.22377 0.4625 0.0
C382 C 0.72978 0.05437 0.54756 0.0
C383 C 0.72914 0.95776 0.46993 0.0
O384 O 0.75776 0.04535 0.53723 0.0
Zn385 Zn 0.77923 0.00656 0.50758 0.0
O386 O 0.70555 0.03759 0.53847 0.0
Zn387 Zn 0.72809 0.00528 0.50924 0.0
O388 O 0.75118 0.97715 0.55049 0.0
O389 O 0.80351 0.98423 0.54514 0.0
O390 O 0.70471 0.97262 0.48239 0.0
O391 O 0.75748 0.96784 0.47729 0.0
O392 O 0.80154 0.03008 0.46979 0.0
O393 O 0.74864 0.03294 0.46531 0.0
C394 C 0.7798 0.97142 0.56153 0.0
C395 C 0.77662 0.04071 0.45358 0.0
C396 C 0.97031 0.77601 0.55083 0.0
C397 C 0.04642 0.78442 0.44706 0.0
O398 O 0.98413 0.80154 0.5397 0.0
Zn399 Zn 0.00774 0.78245 0.4988 0.0
O400 O 0.9765 0.74945 0.53461 0.0
Zn401 Zn 0.0073 0.73132 0.49225 0.0
O402 O 0.03779 0.70569 0.52101 0.0
O403 O 0.04364 0.75785 0.52938 0.0
O404 O 0.03849 0.7556 0.45515 0.0
O405 O 0.03368 0.80774 0.46444 0.0
O406 O 0.96917 0.76445 0.46546 0.0
O407 O 0.97583 0.71215 0.45932 0.0
C408 C 0.05243 0.72903 0.53616 0.0
C409 C 0.9597 0.73748 0.45243 0.0
C410 C 0.28311 0.04376 0.55266 0.0
C411 C 0.27333 0.96994 0.44774 0.0
O412 O 0.30671 0.03292 0.53402 0.0
Zn413 Zn 0.2811 0.00713 0.50024 0.0
O414 O 0.2544 0.03537 0.54467 0.0
Zn415 Zn 0.22929 0.0067 0.50598 0.0
O416 O 0.21102 0.97205 0.53679 0.0
O417 O 0.26377 0.97153 0.53679 0.0
O418 O 0.24673 0.97969 0.46123 0.0
O419 O 0.29957 0.97971 0.46181 0.0
O420 O 0.25632 0.04368 0.46997 0.0
O421 O 0.20409 0.03954 0.48033 0.0
C422 C 0.23727 0.95949 0.54783 0.0
C423 C 0.22759 0.05369 0.46477 0.0
C424 C 0.45565 0.78357 0.03148 0.0
C425 C 0.55256 0.77354 0.9561 0.0
O426 O 0.47093 0.80682 0.01694 0.0
Zn427 Zn 0.50393 0.78058 0.99444 0.0
O428 O 0.46547 0.75461 0.02748 0.0
Zn429 Zn 0.50353 0.72925 1.00038 0.0
O430 O 0.52807 0.71067 0.04105 0.0
O431 O 0.52806 0.76344 0.04212 0.0
O432 O 0.54111 0.74654 0.96645 0.0
O433 O 0.53866 0.79944 0.96574 0.0
O434 O 0.47608 0.75542 0.95452 0.0
O435 O 0.47875 0.70326 0.96614 0.0
C436 C 0.53673 0.73674 0.05642 0.0
C437 C 0.46797 0.72654 0.94695 0.0
C438 C 0.23747 0.54827 0.04867 0.0
C439 C 0.24198 0.45452 0.96619 0.0
O440 O 0.26614 0.53983 0.04001 0.0
Zn441 Zn 0.28954 0.50325 0.00771 0.0
O442 O 0.21374 0.53217 0.03665 0.0
Zn443 Zn 0.23838 0.50157 0.00762 0.0
O444 O 0.26154 0.47301 0.04959 0.0
O445 O 0.31403 0.47993 0.04454 0.0
O446 O 0.21706 0.46967 0.97671 0.0
O447 O 0.26954 0.46444 0.97682 0.0
O448 O 0.31132 0.52783 0.96929 0.0
O449 O 0.25868 0.53216 0.96665 0.0
C450 C 0.29019 0.46707 0.0607 0.0
C451 C 0.28642 0.53979 0.95428 0.0
C452 C 0.54317 0.29329 0.96552 0.0
C453 C 0.46813 0.27532 0.06757 0.0
O454 O 0.52925 0.31474 0.98472 0.0
Zn455 Zn 0.50672 0.28538 0.01749 0.0
O456 O 0.53869 0.26351 0.97276 0.0
Zn457 Zn 0.51175 0.23476 0.01111 0.0
O458 O 0.48378 0.21112 0.97819 0.0
O459 O 0.4733 0.26314 0.98048 0.0
O460 O 0.47906 0.24911 0.05387 0.0
O461 O 0.47818 0.30208 0.05526 0.0
O462 O 0.54576 0.2644 0.04773 0.0
O463 O 0.54526 0.2121 0.03719 0.0
C464 C 0.46693 0.23505 0.96806 0.0
C465 C 0.55787 0.23639 0.05256 0.0
C466 C 0.72121 0.54055 0.06368 0.0
C467 C 0.72344 0.47124 0.95444 0.0
O468 O 0.74957 0.53513 0.05152 0.0
Zn469 Zn 0.77193 0.5069 0.00957 0.0
O470 O 0.69723 0.52747 0.04804 0.0
Zn471 Zn 0.72075 0.50585 0.00899 0.0
O472 O 0.74291 0.46688 0.03798 0.0
O473 O 0.79516 0.47519 0.03855 0.0
O474 O 0.69865 0.48346 0.96949 0.0
O475 O 0.75129 0.47784 0.96727 0.0
O476 O 0.79421 0.53915 0.9805 0.0
O477 O 0.74162 0.54519 0.97968 0.0
C478 C 0.77112 0.45817 0.04788 0.0
C479 C 0.76956 0.55484 0.97004 0.0
C480 C 0.11346 0.25468 0.4052 0.0
C481 C 0.13376 0.28162 0.40925 0.0
C482 C 0.10168 0.29973 0.46201 0.0
C483 C 0.07865 0.27529 0.45472 0.0
N484 N 0.06086 0.2323 0.41414 0.0
N485 N 0.14515 0.33238 0.43808 0.0
C486 C 0.08407 0.25347 0.42494 0.0
C487 C 0.12721 0.30499 0.43659 0.0
N488 N 0.12266 0.22961 0.3832 0.0
N489 N 0.10061 0.3165 0.49435 0.0
H490 H 0.16439 0.33669 0.42033 0.0
H491 H 0.13928 0.35185 0.45481 0.0
H492 H 0.08394 0.31191 0.51509 0.0
H493 H 0.11856 0.33237 0.5025 0.0
H494 H 0.11073 0.20764 0.38275 0.0
H495 H 0.14395 0.22949 0.36804 0.0
H496 H 0.06222 0.21921 0.38973 0.0
H497 H 0.0389 0.22954 0.42724 0.0
C498 C 0.8034 0.08254 0.36518 0.0
C499 C 0.78077 0.10807 0.36369 0.0
C500 C 0.75975 0.09216 0.4237 0.0
C501 C 0.77921 0.06412 0.42296 0.0
N502 N 0.81494 0.02936 0.38871 0.0
N503 N 0.73203 0.13197 0.38728 0.0
C504 C 0.79983 0.05832 0.3925 0.0
C505 C 0.75723 0.11124 0.39163 0.0
N506 N 0.82893 0.08198 0.34155 0.0
N507 N 0.74503 0.10167 0.45555 0.0
H508 H 0.72867 0.14565 0.36349 0.0
H509 H 0.71274 0.1329 0.40557 0.0
H510 H 0.74831 0.0899 0.48061 0.0
H511 H 0.73287 0.12347 0.45805 0.0
H512 H 0.84779 0.06563 0.34403 0.0
H513 H 0.83286 0.09967 0.32171 0.0
H514 H 0.8277 0.02296 0.36512 0.0
H515 H 0.81204 0.01052 0.40734 0.0
C516 C 0.87686 0.71052 0.41883 0.0
C517 C 0.86896 0.73575 0.39417 0.0
C518 C 0.92195 0.75969 0.40407 0.0
C519 C 0.9288 0.73618 0.43154 0.0
N520 N 0.90834 0.69444 0.47166 0.0
N521 N 0.88114 0.78796 0.36918 0.0
C522 C 0.9051 0.71289 0.44069 0.0
C523 C 0.89069 0.7614 0.38851 0.0
N524 N 0.85775 0.68395 0.42092 0.0
N525 N 0.9455 0.77979 0.3917 0.0
H526 H 0.85833 0.79027 0.35759 0.0
H527 H 0.89466 0.80894 0.36769 0.0
H528 H 0.96874 0.77963 0.40201 0.0
H529 H 0.94278 0.79464 0.36879 0.0
H530 H 0.86425 0.66333 0.43544 0.0
H531 H 0.83678 0.68138 0.40551 0.0
H532 H 0.89022 0.67947 0.48143 0.0
H533 H 0.92741 0.6967 0.49003 0.0
C534 C 0.24333 0.90238 0.38622 0.0
C535 C 0.26751 0.90096 0.35893 0.0
C536 C 0.29388 0.94755 0.38697 0.0
C537 C 0.27238 0.94576 0.4174 0.0
N538 N 0.23111 0.91488 0.44919 0.0
N539 N 0.31899 0.91882 0.3365 0.0
C540 C 0.24834 0.92134 0.41797 0.0
C541 C 0.2938 0.92255 0.36021 0.0
N542 N 0.21504 0.88626 0.38148 0.0
N543 N 0.31305 0.97381 0.38226 0.0
H544 H 0.31981 0.90072 0.31666 0.0
H545 H 0.34023 0.93186 0.33878 0.0
H546 H 0.31249 0.99365 0.39971 0.0
H547 H 0.32686 0.97748 0.35869 0.0
H548 H 0.19537 0.88922 0.39894 0.0
H549 H 0.2099 0.87272 0.35804 0.0
H550 H 0.21605 0.89502 0.45157 0.0
H551 H 0.23423 0.92676 0.47407 0.0
C552 C 0.13749 0.71691 0.57184 0.0
C553 C 0.1329 0.72152 0.61033 0.0
C554 C 0.07584 0.73156 0.59991 0.0
C555 C 0.07958 0.72387 0.562 0.0
N556 N 0.11333 0.70462 0.51265 0.0
N557 N 0.09612 0.72369 0.66162 0.0
C558 C 0.11017 0.71464 0.54831 0.0
C559 C 0.10152 0.72568 0.62454 0.0
N560 N 0.16779 0.71684 0.55738 0.0
N561 N 0.04849 0.74607 0.61234 0.0
H562 H 0.1143 0.7185 0.68051 0.0
H563 H 0.07316 0.72367 0.67305 0.0
H564 H 0.02987 0.75292 0.59498 0.0
H565 H 0.04597 0.75474 0.63912 0.0
H566 H 0.17245 0.71708 0.52919 0.0
H567 H 0.18838 0.7195 0.57339 0.0
H568 H 0.13436 0.69449 0.5023 0.0
H569 H 0.09422 0.70419 0.49411 0.0
C570 C 0.29977 0.11806 0.61084 0.0
C571 C 0.27897 0.11145 0.64094 0.0
C572 C 0.27177 0.05672 0.61804 0.0
C573 C 0.28742 0.06526 0.58476 0.0
N574 N 0.31362 0.10561 0.54762 0.0
N575 N 0.24088 0.07567 0.66996 0.0
C576 C 0.30111 0.09624 0.58071 0.0
C577 C 0.26401 0.08097 0.64392 0.0
N578 N 0.3186 0.14488 0.61129 0.0
N579 N 0.26437 0.02531 0.62485 0.0
H580 H 0.23325 0.09318 0.68853 0.0
H581 H 0.22694 0.05493 0.67068 0.0
H582 H 0.2705 0.00684 0.60671 0.0
H583 H 0.25542 0.01728 0.65004 0.0
H584 H 0.33636 0.14933 0.59172 0.0
H585 H 0.31865 0.16106 0.63322 0.0
H586 H 0.32036 0.12919 0.54197 0.0
H587 H 0.31509 0.09046 0.52485 0.0
C588 C 0.86381 0.28243 0.57717 0.0
C589 C 0.86223 0.27503 0.61537 0.0
C590 C 0.91937 0.26084 0.61476 0.0
C591 C 0.92192 0.27172 0.57778 0.0
N592 N 0.89702 0.29585 0.52441 0.0
N593 N 0.89032 0.26459 0.67231 0.0
C594 C 0.8943 0.28372 0.55928 0.0
C595 C 0.89057 0.26642 0.6347 0.0
N596 N 0.8361 0.28652 0.55753 0.0
N597 N 0.94401 0.24421 0.63066 0.0
H598 H 0.86995 0.26941 0.6881 0.0
H599 H 0.91108 0.26162 0.68797 0.0
H600 H 0.96498 0.23855 0.61658 0.0
H601 H 0.94217 0.23303 0.65627 0.0
H602 H 0.83545 0.28853 0.52894 0.0
H603 H 0.81335 0.28499 0.56941 0.0
H604 H 0.87862 0.30831 0.5112 0.0
H605 H 0.91837 0.29532 0.50941 0.0
C606 C 0.8025 0.89563 0.61452 0.0
C607 C 0.78897 0.90288 0.64944 0.0
C608 C 0.77113 0.95547 0.62742 0.0
C609 C 0.7847 0.94857 0.59231 0.0
N610 N 0.80995 0.91116 0.55049 0.0
N611 N 0.76694 0.94131 0.69205 0.0
C612 C 0.80004 0.91857 0.58546 0.0
C613 C 0.77521 0.9333 0.65672 0.0
N614 N 0.81777 0.86682 0.60944 0.0
N615 N 0.75298 0.98253 0.63239 0.0
H616 H 0.76932 0.92552 0.71423 0.0
H617 H 0.7604 0.96439 0.70015 0.0
H618 H 0.74947 0.9997 0.61201 0.0
H619 H 0.73912 0.98686 0.65574 0.0
H620 H 0.83103 0.86081 0.58618 0.0
H621 H 0.81859 0.84897 0.6296 0.0
H622 H 0.8186 0.88882 0.54242 0.0
H623 H 0.80783 0.92689 0.52827 0.0
C624 C 0.91957 0.74944 0.63364 0.0
C625 C 0.9016 0.77762 0.6406 0.0
C626 C 0.92481 0.80271 0.58571 0.0
C627 C 0.94656 0.77646 0.58183 0.0
N628 N 0.96738 0.72641 0.60771 0.0
N629 N 0.8912 0.83339 0.62732 0.0
C630 C 0.94473 0.75023 0.6073 0.0
C631 C 0.90556 0.80503 0.61794 0.0
N632 N 0.91187 0.72138 0.65117 0.0
N633 N 0.92058 0.8242 0.55762 0.0
H634 H 0.87705 0.83601 0.65087 0.0
H635 H 0.89583 0.85491 0.61364 0.0
H636 H 0.93158 0.82184 0.53199 0.0
H637 H 0.90291 0.84196 0.55805 0.0
H638 H 0.9216 0.69923 0.64378 0.0
H639 H 0.89348 0.7196 0.67056 0.0
H640 H 0.96912 0.70963 0.62895 0.0
H641 H 0.98621 0.72449 0.58918 0.0
C642 C 0.21763 0.89726 0.6231 0.0
C643 C 0.244 0.87582 0.61932 0.0
C644 C 0.26234 0.90619 0.56553 0.0
C645 C 0.23836 0.93016 0.57193 0.0
N646 N 0.19814 0.95143 0.61349 0.0
N647 N 0.29608 0.86534 0.59281 0.0
C648 C 0.21723 0.9265 0.60251 0.0
C649 C 0.26772 0.88193 0.59229 0.0
N650 N 0.1926 0.88949 0.64569 0.0
N651 N 0.27933 0.90543 0.5333 0.0
H652 H 0.30154 0.84802 0.61262 0.0
H653 H 0.31552 0.87132 0.57606 0.0
H654 H 0.27608 0.92163 0.51185 0.0
H655 H 0.29433 0.88636 0.52613 0.0
H656 H 0.17134 0.90271 0.64663 0.0
H657 H 0.19187 0.86821 0.66086 0.0
H658 H 0.18467 0.9509 0.63768 0.0
H659 H 0.19848 0.97394 0.60094 0.0
C660 C 0.086 0.22808 0.66179 0.0
C661 C 0.11621 0.21543 0.65122 0.0
C662 C 0.09526 0.20343 0.58934 0.0
C663 C 0.06539 0.21771 0.59942 0.0
N664 N 0.0342 0.24852 0.64307 0.0
N665 N 0.14936 0.18744 0.60737 0.0
C666 C 0.06124 0.23124 0.63512 0.0
C667 C 0.12071 0.20187 0.6157 0.0
N668 N 0.08069 0.23609 0.69785 0.0
N669 N 0.1001 0.19379 0.55369 0.0
H670 H 0.16896 0.1874 0.62523 0.0
H671 H 0.15358 0.174 0.58373 0.0
H672 H 0.08257 0.1953 0.5333 0.0
H673 H 0.122 0.18609 0.54316 0.0
H674 H 0.05818 0.24188 0.70845 0.0
H675 H 0.09826 0.23409 0.7182 0.0
H676 H 0.03143 0.2624 0.6667 0.0
H677 H 0.01536 0.2513 0.62463 0.0
C678 C 0.69664 0.13461 0.58289 0.0
C679 C 0.72027 0.143 0.60924 0.0
C680 C 0.74829 0.09221 0.59787 0.0
C681 C 0.72622 0.08484 0.56903 0.0
N682 N 0.68473 0.10424 0.52784 0.0
N683 N 0.77269 0.13362 0.63525 0.0
C684 C 0.70176 0.10743 0.55981 0.0
C685 C 0.74732 0.12294 0.61473 0.0
N686 N 0.66901 0.1522 0.5803 0.0
N687 N 0.76944 0.06962 0.61049 0.0
H688 H 0.77312 0.15614 0.64781 0.0
H689 H 0.79457 0.12152 0.6367 0.0
H690 H 0.77148 0.04669 0.59954 0.0
H691 H 0.78306 0.07263 0.63431 0.0
H692 H 0.64946 0.14511 0.56438 0.0
H693 H 0.66457 0.17241 0.59649 0.0
H694 H 0.66894 0.12176 0.51817 0.0
H695 H 0.68899 0.08608 0.50873 0.0
C696 C 0.93708 0.23638 0.36473 0.0
C697 C 0.90722 0.22041 0.36691 0.0
C698 C 0.91892 0.20392 0.4307 0.0
C699 C 0.94828 0.22137 0.42909 0.0
N700 N 0.98224 0.25937 0.39665 0.0
N701 N 0.87049 0.18587 0.39928 0.0
C702 C 0.95657 0.23893 0.39666 0.0
C703 C 0.89843 0.20312 0.39913 0.0
N704 N 0.94738 0.24813 0.33154 0.0
N705 N 0.90948 0.19039 0.46335 0.0
H706 H 0.85425 0.18613 0.37744 0.0
H707 H 0.86378 0.16998 0.41998 0.0
H708 H 0.92308 0.1915 0.4874 0.0
H709 H 0.88729 0.17973 0.46784 0.0
H710 H 0.9706 0.25638 0.32684 0.0
H711 H 0.93371 0.24682 0.3075 0.0
H712 H 0.98673 0.2759 0.37575 0.0
H713 H 0.9978 0.26214 0.41873 0.0
C714 C 0.71269 0.90096 0.38976 0.0
C715 C 0.72532 0.87187 0.40426 0.0
C716 C 0.73532 0.89826 0.46357 0.0
C717 C 0.72551 0.92799 0.44799 0.0
N718 N 0.70834 0.95892 0.3954 0.0
N719 N 0.75172 0.84301 0.45329 0.0
C720 C 0.7149 0.92968 0.41089 0.0
C721 C 0.73746 0.87056 0.44076 0.0
N722 N 0.69823 0.90098 0.35593 0.0
N723 N 0.74165 0.89639 0.5005 0.0
H724 H 0.75286 0.82196 0.43778 0.0
H725 H 0.76439 0.84155 0.47795 0.0
H726 H 0.74001 0.91613 0.51808 0.0
H727 H 0.74585 0.87492 0.51443 0.0
H728 H 0.6854 0.92043 0.34548 0.0
H729 H 0.69709 0.88066 0.3392 0.0
H730 H 0.70416 0.96229 0.36738 0.0
H731 H 0.70927 0.98038 0.41016 0.0
C732 C 0.09083 0.77934 0.35518 0.0
C733 C 0.12155 0.79075 0.36556 0.0
C734 C 0.10176 0.80248 0.42801 0.0
C735 C 0.07129 0.78962 0.41815 0.0
N736 N 0.03758 0.76275 0.37373 0.0
N737 N 0.15549 0.81827 0.40884 0.0
C738 C 0.066 0.77744 0.382 0.0
C739 C 0.12674 0.80395 0.4011 0.0
N740 N 0.08512 0.77146 0.31915 0.0
N741 N 0.10759 0.81087 0.46384 0.0
H742 H 0.17469 0.81852 0.39038 0.0
H743 H 0.15988 0.83175 0.43242 0.0
H744 H 0.09023 0.80988 0.48449 0.0
H745 H 0.13013 0.8168 0.47406 0.0
H746 H 0.06245 0.76665 0.30852 0.0
H747 H 0.10277 0.77223 0.29878 0.0
H748 H 0.03359 0.74946 0.34991 0.0
H749 H 0.01825 0.76204 0.39181 0.0
C750 C 0.22804 0.10536 0.37888 0.0
C751 C 0.22972 0.13657 0.39456 0.0
C752 C 0.22478 0.11348 0.45665 0.0
C753 C 0.22291 0.08233 0.44096 0.0
N754 N 0.21647 0.04862 0.38776 0.0
N755 N 0.2228 0.17121 0.4471 0.0
C756 C 0.2224 0.07834 0.40217 0.0
C757 C 0.22586 0.14088 0.43312 0.0
N758 N 0.23325 0.10145 0.34195 0.0
N759 N 0.22693 0.11673 0.49406 0.0
H760 H 0.22373 0.19176 0.43066 0.0
H761 H 0.21673 0.176 0.47438 0.0
H762 H 0.22487 0.09734 0.51214 0.0
H763 H 0.23247 0.13826 0.50715 0.0
H764 H 0.23601 0.07919 0.32932 0.0
H765 H 0.23688 0.12067 0.32399 0.0
H766 H 0.21281 0.04432 0.35983 0.0
H767 H 0.21249 0.02846 0.40425 0.0
C768 C 0.63846 0.75663 0.92461 0.0
C769 C 0.63957 0.77464 0.89149 0.0
C770 C 0.5829 0.78968 0.89901 0.0
C771 C 0.5825 0.77399 0.93377 0.0
N772 N 0.61087 0.74494 0.98163 0.0
N773 N 0.61452 0.81104 0.84848 0.0
C774 C 0.61048 0.75793 0.94701 0.0
C775 C 0.61229 0.79208 0.87915 0.0
N776 N 0.66407 0.73784 0.93445 0.0
N777 N 0.5548 0.80053 0.88391 0.0
H778 H 0.63506 0.81208 0.83208 0.0
H779 H 0.59683 0.82735 0.8406 0.0
H780 H 0.53262 0.79829 0.897 0.0
H781 H 0.55285 0.80901 0.85701 0.0
H782 H 0.66324 0.72069 0.95532 0.0
H783 H 0.68584 0.73777 0.92024 0.0
H784 H 0.63166 0.73717 0.99485 0.0
H785 H 0.59079 0.74365 0.99855 0.0
C786 C 0.26225 0.58375 0.86678 0.0
C787 C 0.2857 0.6083 0.86469 0.0
C788 C 0.31019 0.58841 0.92183 0.0
C789 C 0.28846 0.56208 0.92211 0.0
N790 N 0.24991 0.5303 0.88809 0.0
N791 N 0.33686 0.62879 0.88477 0.0
C792 C 0.26638 0.55838 0.89248 0.0
C793 C 0.31128 0.60893 0.89048 0.0
N794 N 0.23519 0.58529 0.84556 0.0
N795 N 0.32828 0.59532 0.95219 0.0
H796 H 0.33873 0.64363 0.86167 0.0
H797 H 0.35756 0.62805 0.90088 0.0
H798 H 0.32712 0.58225 0.97663 0.0
H799 H 0.34195 0.61617 0.95446 0.0
H800 H 0.21581 0.56979 0.84906 0.0
H801 H 0.23061 0.60389 0.82703 0.0
H802 H 0.23598 0.5254 0.86492 0.0
H803 H 0.25293 0.51053 0.90532 0.0
C804 C 0.40975 0.25756 0.89188 0.0
C805 C 0.38518 0.23428 0.89573 0.0
C806 C 0.41462 0.20991 0.94731 0.0
C807 C 0.44032 0.23161 0.94116 0.0
N808 N 0.46618 0.26859 0.89962 0.0
N809 N 0.36867 0.18305 0.92069 0.0
C810 C 0.43906 0.25313 0.91094 0.0
C811 C 0.38892 0.2088 0.92153 0.0
N812 N 0.40475 0.28469 0.87144 0.0
N813 N 0.41379 0.19146 0.97844 0.0
H814 H 0.35031 0.18075 0.90135 0.0
H815 H 0.37225 0.16252 0.93662 0.0
H816 H 0.4318 0.19174 0.99834 0.0
H817 H 0.3938 0.17799 0.98605 0.0
H818 H 0.42104 0.30365 0.87074 0.0
H819 H 0.38301 0.28982 0.85845 0.0
H820 H 0.46711 0.28225 0.87555 0.0
H821 H 0.48851 0.26443 0.91176 0.0
C822 C 0.69596 0.40315 0.89115 0.0
C823 C 0.72072 0.40363 0.8643 0.0
C824 C 0.74306 0.45189 0.89267 0.0
C825 C 0.72098 0.44893 0.92248 0.0
N826 N 0.68116 0.41639 0.95368 0.0
N827 N 0.77183 0.42446 0.84414 0.0
C828 C 0.69851 0.42322 0.92268 0.0
C829 C 0.74537 0.42692 0.86629 0.0
N830 N 0.6698 0.38382 0.88638 0.0
N831 N 0.76132 0.4789 0.88873 0.0
H832 H 0.77495 0.4061 0.82493 0.0
H833 H 0.79213 0.43875 0.84741 0.0
H834 H 0.76048 0.49816 0.9069 0.0
H835 H 0.775 0.48359 0.86529 0.0
H836 H 0.64963 0.38481 0.90334 0.0
H837 H 0.66693 0.36904 0.86343 0.0
H838 H 0.66696 0.39593 0.95622 0.0
H839 H 0.68361 0.42892 0.97833 0.0
C840 C 0.61551 0.23383 0.13396 0.0
C841 C 0.64544 0.23365 0.1152 0.0
C842 C 0.61752 0.22966 0.05587 0.0
C843 C 0.5877 0.23313 0.07439 0.0
N844 N 0.55785 0.24184 0.13043 0.0
N845 N 0.6753 0.23627 0.05834 0.0
C846 C 0.58656 0.23622 0.11329 0.0
C847 C 0.64656 0.23272 0.07613 0.0
N848 N 0.61474 0.23057 0.17145 0.0
N849 N 0.61809 0.2234 0.01889 0.0
H850 H 0.69708 0.2388 0.0722 0.0
H851 H 0.67736 0.23949 0.02999 0.0
H852 H 0.59743 0.2223 1.00273 0.0
H853 H 0.63883 0.21704 1.00461 0.0
H854 H 0.59371 0.2271 0.18642 0.0
H855 H 0.63543 0.22865 0.1875 0.0
H856 H 0.55584 0.24819 0.15807 0.0
H857 H 0.53597 0.24206 0.11644 0.0
C858 C 0.69981 0.61492 0.12014 0.0
C859 C 0.71423 0.607 0.15438 0.0
C860 C 0.73271 0.55558 0.12956 0.0
C861 C 0.71706 0.5626 0.09556 0.0
N862 N 0.68308 0.59762 0.05931 0.0
N863 N 0.73813 0.56772 0.1946 0.0
C864 C 0.69947 0.59172 0.09126 0.0
C865 C 0.72872 0.57665 0.15995 0.0
N866 N 0.68786 0.6452 0.11469 0.0
N867 N 0.75225 0.52929 0.13267 0.0
H868 H 0.7358 0.5827 0.21748 0.0
H869 H 0.74546 0.54453 0.20138 0.0
H870 H 0.75545 0.51255 0.11178 0.0
H871 H 0.76738 0.52528 0.15505 0.0
H872 H 0.6805 0.65399 0.08921 0.0
H873 H 0.68712 0.66256 0.13539 0.0
H874 H 0.6666 0.61625 0.05621 0.0
H875 H 0.6846 0.58301 0.0361 0.0
C876 C 0.3986 0.79572 0.11169 0.0
C877 C 0.36979 0.78419 0.09554 0.0
C878 C 0.39614 0.78128 0.03528 0.0
C879 C 0.42576 0.78884 0.05237 0.0
N880 N 0.45644 0.80129 0.10671 0.0
N881 N 0.341 0.7638 0.04295 0.0
C882 C 0.42731 0.79587 0.09051 0.0
C883 C 0.36842 0.7766 0.05749 0.0
N884 N 0.39833 0.80689 0.14712 0.0
N885 N 0.39461 0.77892 0.99774 0.0
H886 H 0.32007 0.76056 0.0583 0.0
H887 H 0.33953 0.75435 0.01647 0.0
H888 H 0.4146 0.78231 0.98083 0.0
H889 H 0.37329 0.77632 0.98311 0.0
H890 H 0.41763 0.81869 0.15923 0.0
H891 H 0.37787 0.80657 0.1637 0.0
H892 H 0.4598 0.80257 0.13509 0.0
H893 H 0.47777 0.80277 0.09173 0.0
C894 C 0.29021 0.38821 0.11379 0.0
C895 C 0.29158 0.39987 0.15049 0.0
C896 C 0.30127 0.4544 0.12716 0.0
C897 C 0.29486 0.4435 0.09091 0.0
N898 N 0.28237 0.40035 0.04905 0.0
N899 N 0.29623 0.44424 0.19279 0.0
C900 C 0.28924 0.41043 0.08402 0.0
C901 C 0.29689 0.433 0.15741 0.0
N902 N 0.29068 0.35584 0.10744 0.0
N903 N 0.31162 0.48514 0.13261 0.0
H904 H 0.29327 0.42928 0.2156 0.0
H905 H 0.29626 0.46854 0.19946 0.0
H906 H 0.315 0.50132 0.11101 0.0
H907 H 0.31955 0.49375 0.15794 0.0
H908 H 0.29299 0.34576 0.08133 0.0
H909 H 0.2917 0.33888 0.1286 0.0
H910 H 0.27392 0.37746 0.0429 0.0
H911 H 0.2836 0.41546 0.02616 0.0
C912 C 0.41823 0.29201 0.15408 0.0
C913 C 0.39303 0.26934 0.14976 0.0
C914 C 0.41478 0.25441 0.08941 0.0
C915 C 0.44217 0.27395 0.09581 0.0
N916 N 0.47282 0.30643 0.13815 0.0
N917 N 0.37157 0.22389 0.11678 0.0
C918 C 0.44473 0.29143 0.12926 0.0
C919 C 0.3926 0.24898 0.11846 0.0
N920 N 0.41634 0.31493 0.18092 0.0
N921 N 0.40888 0.24239 0.05505 0.0
H922 H 0.35546 0.21858 0.13793 0.0
H923 H 0.37244 0.20648 0.09619 0.0
H924 H 0.42328 0.24748 0.03231 0.0
H925 H 0.3877 0.23054 0.0482 0.0
H926 H 0.43243 0.33399 0.18283 0.0
H927 H 0.39699 0.31677 0.19904 0.0
H928 H 0.47697 0.31675 0.16385 0.0
H929 H 0.49311 0.30575 0.12133 0.0
C930 C 0.80507 0.37823 0.08263 0.0
C931 C 0.78192 0.36986 0.10957 0.0
C932 C 0.75371 0.42062 0.09887 0.0
C933 C 0.77517 0.42787 0.06939 0.0
N934 N 0.81589 0.40854 0.02718 0.0
N935 N 0.73008 0.37931 0.13711 0.0
C936 C 0.79948 0.40534 0.0596 0.0
C937 C 0.755 0.38993 0.11581 0.0
N938 N 0.83267 0.36067 0.07942 0.0
N939 N 0.73287 0.4433 0.11197 0.0
H940 H 0.7299 0.3568 0.14976 0.0
H941 H 0.70826 0.39146 0.13919 0.0
H942 H 0.73072 0.46624 0.101 0.0
H943 H 0.71971 0.44034 0.13614 0.0
H944 H 0.85191 0.36776 0.06297 0.0
H945 H 0.83747 0.3405 0.0956 0.0
H946 H 0.8316 0.39109 0.0172 0.0
H947 H 0.81116 0.42665 0.00811 0.0
C948 C 0.59882 0.76245 0.12842 0.0
C949 C 0.59866 0.73569 0.1524 0.0
C950 C 0.5533 0.71324 0.1181 0.0
C951 C 0.5575 0.73687 0.0901 0.0
N952 N 0.59 0.78118 0.0667 0.0
N953 N 0.57848 0.68303 0.16737 0.0
C954 C 0.58168 0.76088 0.09476 0.0
C955 C 0.57664 0.71031 0.14655 0.0
N956 N 0.61512 0.78966 0.13798 0.0
N957 N 0.52625 0.69475 0.1189 0.0
H958 H 0.5952 0.68 0.18848 0.0
H959 H 0.5652 0.66246 0.16154 0.0
H960 H 0.50725 0.69784 0.10056 0.0
H961 H 0.52093 0.67917 0.14054 0.0
H962 H 0.61324 0.8111 0.12326 0.0
H963 H 0.62766 0.79187 0.16273 0.0
H964 H 0.60998 0.79617 0.06797 0.0
H965 H 0.57968 0.78108 0.0407 0.0
C966 C 0.2539 0.60876 0.12424 0.0
C967 C 0.23205 0.63388 0.11554 0.0
C968 C 0.21301 0.60284 0.0623 0.0
C969 C 0.23285 0.57666 0.0731 0.0
N970 N 0.26489 0.55181 0.12058 0.0
N971 N 0.18533 0.65125 0.08154 0.0
C972 C 0.25107 0.57876 0.10602 0.0
C973 C 0.20988 0.62983 0.08615 0.0
N974 N 0.27836 0.61388 0.14861 0.0
N975 N 0.1985 0.6029 0.02854 0.0
H976 H 0.18178 0.67086 0.09895 0.0
H977 H 0.16671 0.64774 0.06281 0.0
H978 H 0.20077 0.58414 0.00973 0.0
H979 H 0.18668 0.62291 0.01783 0.0
H980 H 0.29672 0.59728 0.15305 0.0
H981 H 0.28227 0.6359 0.16149 0.0
H982 H 0.27606 0.55145 0.14627 0.0
H983 H 0.26186 0.52911 0.10897 0.0
C984 C 0.42955 0.73529 0.8533 0.0
C985 C 0.39725 0.72715 0.86146 0.0
C986 C 0.41218 0.71417 0.92521 0.0
C987 C 0.44462 0.72158 0.91676 0.0
N988 N 0.48554 0.73304 0.87188 0.0
N989 N 0.35851 0.70324 0.90249 0.0
C990 C 0.45369 0.73017 0.88041 0.0
C991 C 0.38881 0.71476 0.89661 0.0
N992 N 0.43688 0.74914 0.82017 0.0
N993 N 0.40338 0.70834 0.9609 0.0
H994 H 0.34058 0.70384 0.88242 0.0
H995 H 0.35176 0.69079 0.92614 0.0
H996 H 0.41981 0.70706 0.98252 0.0
H997 H 0.37962 0.7069 0.96964 0.0
H998 H 0.4592 0.75894 0.814 0.0
H999 H 0.41988 0.753 0.79953 0.0
H1000 H 0.49414 0.73634 0.84522 0.0
H1001 H 0.50372 0.72923 0.89121 0.0
C1002 C 0.21145 0.37874 0.91706 0.0
C1003 C 0.23895 0.36978 0.89627 0.0
C1004 C 0.26524 0.41939 0.9158 0.0
C1005 C 0.24003 0.42575 0.9414 0.0
N1006 N 0.19303 0.40465 0.97264 0.0
N1007 N 0.29568 0.37775 0.88553 0.0
C1008 C 0.2141 0.40357 0.94383 0.0
C1009 C 0.26698 0.38892 0.89856 0.0
N1010 N 0.18256 0.36435 0.91073 0.0
N1011 N 0.28682 0.44263 0.90628 0.0
H1012 H 0.29859 0.35474 0.87469 0.0
H1013 H 0.31722 0.38998 0.8896 0.0
H1014 H 0.28531 0.46627 0.91535 0.0
H1015 H 0.30379 0.43937 0.88546 0.0
H1016 H 0.16134 0.37215 0.92309 0.0
H1017 H 0.17922 0.34713 0.89024 0.0
H1018 H 0.17547 0.3872 0.97675 0.0
H1019 H 0.19556 0.42021 0.99489 0.0
C1020 C 0.57098 0.30441 0.86773 0.0
C1021 C 0.60457 0.29943 0.87158 0.0
C1022 C 0.59854 0.29694 0.9388 0.0
C1023 C 0.56502 0.30174 0.93476 0.0
N1024 N 0.52123 0.32045 0.89724 0.0
N1025 N 0.65133 0.3005 0.91075 0.0
C1026 C 0.55189 0.30903 0.89978 0.0
C1027 C 0.6187 0.29868 0.90719 0.0
N1028 N 0.55698 0.30285 0.83373 0.0
N1029 N 0.61097 0.29016 0.97277 0.0
H1030 H 0.66671 0.30252 0.88817 0.0
H1031 H 0.66293 0.30312 0.93597 0.0
H1032 H 0.59713 0.29072 0.99674 0.0
H1033 H 0.63454 0.28261 0.97697 0.0
H1034 H 0.53221 0.30277 0.82981 0.0
H1035 H 0.56995 0.29884 0.80959 0.0
H1036 H 0.51135 0.32912 0.8728 0.0
H1037 H 0.50674 0.32406 0.92032 0.0
C1038 C 0.80025 0.63442 0.93086 0.0
C1039 C 0.77711 0.64051 0.90307 0.0
C1040 C 0.7513 0.58907 0.91642 0.0
C1041 C 0.77251 0.58426 0.94678 0.0
N1042 N 0.81173 0.60722 0.98826 0.0
N1043 N 0.72623 0.6274 0.87529 0.0
C1044 C 0.7956 0.60823 0.95548 0.0
C1045 C 0.75132 0.61895 0.89763 0.0
N1046 N 0.827 0.65322 0.93332 0.0
N1047 N 0.73196 0.56481 0.90425 0.0
H1048 H 0.72512 0.64926 0.86129 0.0
H1049 H 0.70509 0.61415 0.8736 0.0
H1050 H 0.73095 0.54225 0.91642 0.0
H1051 H 0.71909 0.56605 0.87968 0.0
H1052 H 0.84629 0.64775 0.95051 0.0
H1053 H 0.83117 0.67268 0.91586 0.0
H1054 H 0.82647 0.62577 0.99738 0.0
H1055 H 0.80766 0.58976 0.00829 0.0
loop_
_geom_bond_atom_site_label_1
_geom_bond_atom_site_label_2
_geom_bond_distance
_geom_bond_site_symmetry_2
_ccdc_geom_bond_type
C0 C1 1.384 . S
C0 C2 1.384 . S
C0 H28 0.931 . S
C1 C0 1.384 . S
C1 C4 1.382 . S
C2 C0 1.384 . S
C2 C3 1.381 . S
C2 H29 0.930 . S
C3 C2 1.381 . S
C3 C5 1.381 . S
C3 C6 1.487 . S
C4 C1 1.382 . S
C4 C5 1.387 . S
C4 H30 0.930 . S
C5 C3 1.381 . S
C5 C4 1.387 . S
C5 H31 0.931 . S
C6 C3 1.487 . S
C6 C13 1.399 . S
C6 N44 1.343 . S
C7 C8 1.384 . S
C7 C9 1.384 . S
C7 H32 0.931 . S
C8 C7 1.384 . S
C8 C11 1.382 . S
C9 C7 1.384 . S
C9 C10 1.381 . S
C9 H33 0.930 . S
C10 C9 1.381 . S
C10 C12 1.381 . S
C10 C13 1.487 . S
C11 C8 1.382 . S
C11 C12 1.387 . S
C11 H34 0.930 . S
C12 C10 1.381 . S
C12 C11 1.387 . S
C12 H35 0.931 . S
C13 C6 1.399 . S
C13 C10 1.487 . S
C13 N45 1.343 . S
C14 C15 1.384 . S
C14 C16 1.384 . S
C14 H36 0.931 . S
C15 C14 1.384 . S
C15 C18 1.382 . S
C16 C14 1.384 . S
C16 C17 1.381 . S
C16 H37 0.930 . S
C17 C16 1.381 . S
C17 C19 1.381 . S
C17 C20 1.487 . S
C18 C15 1.382 . S
C18 C19 1.387 . S
C18 H38 0.930 . S
C19 C17 1.381 . S
C19 C18 1.387 . S
C19 H39 0.931 . S
C20 C17 1.487 . S
C20 C27 1.399 . S
C20 N45 1.343 . S
C21 C22 1.384 . S
C21 C23 1.384 . S
C21 H40 0.931 . S
C22 C21 1.384 . S
C22 C25 1.382 . S
C23 C21 1.384 . S
C23 C24 1.381 . S
C23 H41 0.930 . S
C24 C23 1.381 . S
C24 C26 1.381 . S
C24 C27 1.487 . S
C25 C22 1.382 . S
C25 C26 1.387 . S
C25 H42 0.930 . S
C26 C24 1.381 . S
C26 C25 1.387 . S
C26 H43 0.931 . S
C27 C20 1.399 . S
C27 C24 1.487 . S
C27 N44 1.343 . S
H28 C0 0.931 . S
H29 C2 0.930 . S
H30 C4 0.930 . S
H31 C5 0.931 . S
H32 C7 0.931 . S
H33 C9 0.930 . S
H34 C11 0.930 . S
H35 C12 0.931 . S
H36 C14 0.931 . S
H37 C16 0.930 . S
H38 C18 0.930 . S
H39 C19 0.931 . S
H40 C21 0.931 . S
H41 C23 0.930 . S
H42 C25 0.930 . S
H43 C26 0.931 . S
N44 C6 1.343 . S
N44 C27 1.343 . S
N45 C13 1.343 . S
N45 C20 1.343 . S
C46 C47 1.384 . S
C46 C48 1.384 . S
C46 H74 0.931 . S
C47 C46 1.384 . S
C47 C50 1.382 . S
C48 C46 1.384 . S
C48 C49 1.381 . S
C48 H75 0.930 . S
C49 C48 1.381 . S
C49 C51 1.381 . S
C49 C52 1.487 . S
C50 C47 1.382 . S
C50 C51 1.387 . S
C50 H76 0.930 . S
C51 C49 1.381 . S
C51 C50 1.387 . S
C51 H77 0.931 . S
C52 C49 1.487 . S
C52 C59 1.399 . S
C52 N90 1.343 . S
C53 C54 1.384 . S
C53 C55 1.384 . S
C53 H78 0.931 . S
C54 C53 1.384 . S
C54 C57 1.382 . S
C55 C53 1.384 . S
C55 C56 1.381 . S
C55 H79 0.930 . S
C56 C55 1.381 . S
C56 C58 1.381 . S
C56 C59 1.487 . S
C57 C54 1.382 . S
C57 C58 1.387 . S
C57 H80 0.930 . S
C58 C56 1.381 . S
C58 C57 1.387 . S
C58 H81 0.931 . S
C59 C52 1.399 . S
C59 C56 1.487 . S
C59 N91 1.343 . S
C60 C61 1.384 . S
C60 C62 1.384 . S
C60 H82 0.931 . S
C61 C60 1.384 . S
C61 C64 1.382 . S
C62 C60 1.384 . S
C62 C63 1.381 . S
C62 H83 0.930 . S
C63 C62 1.381 . S
C63 C65 1.381 . S
C63 C66 1.487 . S
C64 C61 1.382 . S
C64 C65 1.387 . S
C64 H84 0.930 . S
C65 C63 1.381 . S
C65 C64 1.387 . S
C65 H85 0.931 . S
C66 C63 1.487 . S
C66 C73 1.399 . S
C66 N91 1.343 . S
C67 C68 1.384 . S
C67 C69 1.384 . S
C67 H86 0.931 . S
C68 C67 1.384 . S
C68 C71 1.382 . S
C69 C67 1.384 . S
C69 C70 1.381 . S
C69 H87 0.930 . S
C70 C69 1.381 . S
C70 C72 1.381 . S
C70 C73 1.487 . S
C71 C68 1.382 . S
C71 C72 1.387 . S
C71 H88 0.930 . S
C72 C70 1.381 . S
C72 C71 1.387 . S
C72 H89 0.931 . S
C73 C66 1.399 . S
C73 C70 1.487 . S
C73 N90 1.343 . S
H74 C46 0.931 . S
H75 C48 0.930 . S
H76 C50 0.930 . S
H77 C51 0.931 . S
H78 C53 0.931 . S
H79 C55 0.930 . S
H80 C57 0.930 . S
H81 C58 0.931 . S
H82 C60 0.931 . S
H83 C62 0.930 . S
H84 C64 0.930 . S
H85 C65 0.931 . S
H86 C67 0.931 . S
H87 C69 0.930 . S
H88 C71 0.930 . S
H89 C72 0.931 . S
N90 C52 1.343 . S
N90 C73 1.343 . S
N91 C59 1.343 . S
N91 C66 1.343 . S
C92 C93 1.384 . S
C92 C94 1.384 . S
C92 H120 0.931 . S
C93 C92 1.384 . S
C93 C96 1.382 . S
C94 C92 1.384 . S
C94 C95 1.381 . S
C94 H121 0.930 . S
C95 C94 1.381 . S
C95 C97 1.381 . S
C95 C98 1.487 . S
C96 C93 1.382 . S
C96 C97 1.387 . S
C96 H122 0.930 . S
C97 C95 1.381 . S
C97 C96 1.387 . S
C97 H123 0.931 . S
C98 C95 1.487 . S
C98 C105 1.399 . S
C98 N136 1.343 . S
C99 C100 1.384 . S
C99 C101 1.384 . S
C99 H124 0.931 . S
C100 C99 1.384 . S
C100 C103 1.382 . S
C101 C99 1.384 . S
C101 C102 1.381 . S
C101 H125 0.930 . S
C102 C101 1.381 . S
C102 C104 1.381 . S
C102 C105 1.487 . S
C103 C100 1.382 . S
C103 C104 1.387 . S
C103 H126 0.930 . S
C104 C102 1.381 . S
C104 C103 1.387 . S
C104 H127 0.931 . S
C105 C98 1.399 . S
C105 C102 1.487 . S
C105 N137 1.343 . S
C106 C107 1.384 . S
C106 C108 1.384 . S
C106 H128 0.931 . S
C107 C106 1.384 . S
C107 C110 1.382 . S
C108 C106 1.384 . S
C108 C109 1.381 . S
C108 H129 0.930 . S
C109 C108 1.381 . S
C109 C111 1.381 . S
C109 C112 1.487 . S
C110 C107 1.382 . S
C110 C111 1.387 . S
C110 H130 0.930 . S
C111 C109 1.381 . S
C111 C110 1.387 . S
C111 H131 0.931 . S
C112 C109 1.487 . S
C112 C119 1.399 . S
C112 N137 1.343 . S
C113 C114 1.384 . S
C113 C115 1.384 . S
C113 H132 0.931 . S
C114 C113 1.384 . S
C114 C117 1.382 . S
C115 C113 1.384 . S
C115 C116 1.381 . S
C115 H133 0.930 . S
C116 C115 1.381 . S
C116 C118 1.381 . S
C116 C119 1.487 . S
C117 C114 1.382 . S
C117 C118 1.387 . S
C117 H134 0.930 . S
C118 C116 1.381 . S
C118 C117 1.387 . S
C118 H135 0.931 . S
C119 C112 1.399 . S
C119 C116 1.487 . S
C119 N136 1.343 . S
H120 C92 0.931 . S
H121 C94 0.930 . S
H122 C96 0.930 . S
H123 C97 0.931 . S
H124 C99 0.931 . S
H125 C101 0.930 . S
H126 C103 0.930 . S
H127 C104 0.931 . S
H128 C106 0.931 . S
H129 C108 0.930 . S
H130 C110 0.930 . S
H131 C111 0.931 . S
H132 C113 0.931 . S
H133 C115 0.930 . S
H134 C117 0.930 . S
H135 C118 0.931 . S
N136 C98 1.343 . S
N136 C119 1.343 . S
N137 C105 1.343 . S
N137 C112 1.343 . S
C138 C139 1.384 . S
C138 C140 1.384 . S
C138 H166 0.931 . S
C139 C138 1.384 . S
C139 C142 1.382 . S
C140 C138 1.384 . S
C140 C141 1.381 . S
C140 H167 0.930 . S
C141 C140 1.381 . S
C141 C143 1.381 . S
C141 C144 1.487 . S
C142 C139 1.382 . S
C142 C143 1.387 . S
C142 H168 0.930 . S
C143 C141 1.381 . S
C143 C142 1.387 . S
C143 H169 0.931 . S
C144 C141 1.487 . S
C144 C151 1.399 . S
C144 N182 1.343 . S
C145 C146 1.384 . S
C145 C147 1.384 . S
C145 H170 0.931 . S
C146 C145 1.384 . S
C146 C149 1.382 . S
C147 C145 1.384 . S
C147 C148 1.381 . S
C147 H171 0.930 . S
C148 C147 1.381 . S
C148 C150 1.381 . S
C148 C151 1.487 . S
C149 C146 1.382 . S
C149 C150 1.387 . S
C149 H172 0.930 . S
C150 C148 1.381 . S
C150 C149 1.387 . S
C150 H173 0.931 . S
C151 C144 1.399 . S
C151 C148 1.487 . S
C151 N183 1.343 . S
C152 C153 1.384 . S
C152 C154 1.384 . S
C152 H174 0.931 . S
C153 C152 1.384 . S
C153 C156 1.382 . S
C154 C152 1.384 . S
C154 C155 1.381 . S
C154 H175 0.930 . S
C155 C154 1.381 . S
C155 C157 1.381 . S
C155 C158 1.487 . S
C156 C153 1.382 . S
C156 C157 1.387 . S
C156 H176 0.930 . S
C157 C155 1.381 . S
C157 C156 1.387 . S
C157 H177 0.931 . S
C158 C155 1.487 . S
C158 C165 1.399 . S
C158 N183 1.343 . S
C159 C160 1.384 . S
C159 C161 1.384 . S
C159 H178 0.931 . S
C160 C159 1.384 . S
C160 C163 1.382 . S
C161 C159 1.384 . S
C161 C162 1.381 . S
C161 H179 0.930 . S
C162 C161 1.381 . S
C162 C164 1.381 . S
C162 C165 1.487 . S
C163 C160 1.382 . S
C163 C164 1.387 . S
C163 H180 0.930 . S
C164 C162 1.381 . S
C164 C163 1.387 . S
C164 H181 0.931 . S
C165 C158 1.399 . S
C165 C162 1.487 . S
C165 N182 1.343 . S
H166 C138 0.931 . S
H167 C140 0.930 . S
H168 C142 0.930 . S
H169 C143 0.931 . S
H170 C145 0.931 . S
H171 C147 0.930 . S
H172 C149 0.930 . S
H173 C150 0.931 . S
H174 C152 0.931 . S
H175 C154 0.930 . S
H176 C156 0.930 . S
H177 C157 0.931 . S
H178 C159 0.931 . S
H179 C161 0.930 . S
H180 C163 0.930 . S
H181 C164 0.931 . S
N182 C144 1.343 . S
N182 C165 1.343 . S
N183 C151 1.343 . S
N183 C158 1.343 . S
C184 C185 1.384 . S
C184 C186 1.384 . S
C184 H212 0.931 . S
C185 C184 1.384 . S
C185 C188 1.382 . S
C186 C184 1.384 . S
C186 C187 1.381 . S
C186 H213 0.930 . S
C187 C186 1.381 . S
C187 C189 1.381 . S
C187 C190 1.487 . S
C188 C185 1.382 . S
C188 C189 1.387 . S
C188 H214 0.930 . S
C189 C187 1.381 . S
C189 C188 1.387 . S
C189 H215 0.931 . S
C190 C187 1.487 . S
C190 C197 1.399 . S
C190 N228 1.343 . S
C191 C192 1.384 . S
C191 C193 1.384 . S
C191 H216 0.931 . S
C192 C191 1.384 . S
C192 C195 1.382 . S
C193 C191 1.384 . S
C193 C194 1.381 . S
C193 H217 0.930 . S
C194 C193 1.381 . S
C194 C196 1.381 . S
C194 C197 1.487 . S
C195 C192 1.382 . S
C195 C196 1.387 . S
C195 H218 0.930 . S
C196 C194 1.381 . S
C196 C195 1.387 . S
C196 H219 0.931 . S
C197 C190 1.399 . S
C197 C194 1.487 . S
C197 N229 1.343 . S
C198 C199 1.384 . S
C198 C200 1.384 . S
C198 H220 0.931 . S
C199 C198 1.384 . S
C199 C202 1.382 . S
C200 C198 1.384 . S
C200 C201 1.381 . S
C200 H221 0.930 . S
C201 C200 1.381 . S
C201 C203 1.381 . S
C201 C204 1.487 . S
C202 C199 1.382 . S
C202 C203 1.387 . S
C202 H222 0.930 . S
C203 C201 1.381 . S
C203 C202 1.387 . S
C203 H223 0.931 . S
C204 C201 1.487 . S
C204 C211 1.399 . S
C204 N229 1.343 . S
C205 C206 1.384 . S
C205 C207 1.384 . S
C205 H224 0.931 . S
C206 C205 1.384 . S
C206 C209 1.382 . S
C207 C205 1.384 . S
C207 C208 1.381 . S
C207 H225 0.930 . S
C208 C207 1.381 . S
C208 C210 1.381 . S
C208 C211 1.487 . S
C209 C206 1.382 . S
C209 C210 1.387 . S
C209 H226 0.930 . S
C210 C208 1.381 . S
C210 C209 1.387 . S
C210 H227 0.931 . S
C211 C204 1.399 . S
C211 C208 1.487 . S
C211 N228 1.343 . S
H212 C184 0.931 . S
H213 C186 0.930 . S
H214 C188 0.930 . S
H215 C189 0.931 . S
H216 C191 0.931 . S
H217 C193 0.930 . S
H218 C195 0.930 . S
H219 C196 0.931 . S
H220 C198 0.931 . S
H221 C200 0.930 . S
H222 C202 0.930 . S
H223 C203 0.931 . S
H224 C205 0.931 . S
H225 C207 0.930 . S
H226 C209 0.930 . S
H227 C210 0.931 . S
N228 C190 1.343 . S
N228 C211 1.343 . S
N229 C197 1.343 . S
N229 C204 1.343 . S
C230 C231 1.384 . S
C230 C232 1.384 . S
C230 H258 0.931 . S
C231 C230 1.384 . S
C231 C234 1.382 . S
C232 C230 1.384 . S
C232 C233 1.381 . S
C232 H259 0.930 . S
C233 C232 1.381 . S
C233 C235 1.381 . S
C233 C236 1.487 . S
C234 C231 1.382 . S
C234 C235 1.387 . S
C234 H260 0.930 . S
C235 C233 1.381 . S
C235 C234 1.387 . S
C235 H261 0.931 . S
C236 C233 1.487 . S
C236 C243 1.399 . S
C236 N274 1.343 . S
C237 C238 1.384 . S
C237 C239 1.384 . S
C237 H262 0.931 . S
C238 C237 1.384 . S
C238 C241 1.382 . S
C239 C237 1.384 . S
C239 C240 1.381 . S
C239 H263 0.930 . S
C240 C239 1.381 . S
C240 C242 1.381 . S
C240 C243 1.487 . S
C241 C238 1.382 . S
C241 C242 1.387 . S
C241 H264 0.930 . S
C242 C240 1.381 . S
C242 C241 1.387 . S
C242 H265 0.931 . S
C243 C236 1.399 . S
C243 C240 1.487 . S
C243 N275 1.343 . S
C244 C245 1.384 . S
C244 C246 1.384 . S
C244 H266 0.931 . S
C245 C244 1.384 . S
C245 C248 1.382 . S
C246 C244 1.384 . S
C246 C247 1.381 . S
C246 H267 0.930 . S
C247 C246 1.381 . S
C247 C249 1.381 . S
C247 C250 1.487 . S
C248 C245 1.382 . S
C248 C249 1.387 . S
C248 H268 0.930 . S
C249 C247 1.381 . S
C249 C248 1.387 . S
C249 H269 0.931 . S
C250 C247 1.487 . S
C250 C257 1.399 . S
C250 N275 1.343 . S
C251 C252 1.384 . S
C251 C253 1.384 . S
C251 H270 0.931 . S
C252 C251 1.384 . S
C252 C255 1.382 . S
C253 C251 1.384 . S
C253 C254 1.381 . S
C253 H271 0.930 . S
C254 C253 1.381 . S
C254 C256 1.381 . S
C254 C257 1.487 . S
C255 C252 1.382 . S
C255 C256 1.387 . S
C255 H272 0.930 . S
C256 C254 1.381 . S
C256 C255 1.387 . S
C256 H273 0.931 . S
C257 C250 1.399 . S
C257 C254 1.487 . S
C257 N274 1.343 . S
H258 C230 0.931 . S
H259 C232 0.930 . S
H260 C234 0.930 . S
H261 C235 0.931 . S
H262 C237 0.931 . S
H263 C239 0.930 . S
H264 C241 0.930 . S
H265 C242 0.931 . S
H266 C244 0.931 . S
H267 C246 0.930 . S
H268 C248 0.930 . S
H269 C249 0.931 . S
H270 C251 0.931 . S
H271 C253 0.930 . S
H272 C255 0.930 . S
H273 C256 0.931 . S
N274 C236 1.343 . S
N274 C257 1.343 . S
N275 C243 1.343 . S
N275 C250 1.343 . S
C276 C277 1.384 . S
C276 C278 1.384 . S
C276 H304 0.931 . S
C277 C276 1.384 . S
C277 C280 1.382 . S
C278 C276 1.384 . S
C278 C279 1.381 . S
C278 H305 0.930 . S
C279 C278 1.381 . S
C279 C281 1.381 . S
C279 C282 1.487 . S
C280 C277 1.382 . S
C280 C281 1.387 . S
C280 H306 0.930 . S
C281 C279 1.381 . S
C281 C280 1.387 . S
C281 H307 0.931 . S
C282 C279 1.487 . S
C282 C289 1.399 . S
C282 N320 1.343 . S
C283 C284 1.384 . S
C283 C285 1.384 . S
C283 H308 0.931 . S
C284 C283 1.384 . S
C284 C287 1.382 . S
C285 C283 1.384 . S
C285 C286 1.381 . S
C285 H309 0.930 . S
C286 C285 1.381 . S
C286 C288 1.381 . S
C286 C289 1.487 . S
C287 C284 1.382 . S
C287 C288 1.387 . S
C287 H310 0.930 . S
C288 C286 1.381 . S
C288 C287 1.387 . S
C288 H311 0.931 . S
C289 C282 1.399 . S
C289 C286 1.487 . S
C289 N321 1.343 . S
C290 C291 1.384 . S
C290 C292 1.384 . S
C290 H312 0.931 . S
C291 C290 1.384 . S
C291 C294 1.382 . S
C292 C290 1.384 . S
C292 C293 1.381 . S
C292 H313 0.930 . S
C293 C292 1.381 . S
C293 C295 1.381 . S
C293 C296 1.487 . S
C294 C291 1.382 . S
C294 C295 1.387 . S
C294 H314 0.930 . S
C295 C293 1.381 . S
C295 C294 1.387 . S
C295 H315 0.931 . S
C296 C293 1.487 . S
C296 C303 1.399 . S
C296 N321 1.343 . S
C297 C298 1.384 . S
C297 C299 1.384 . S
C297 H316 0.931 . S
C298 C297 1.384 . S
C298 C301 1.382 . S
C299 C297 1.384 . S
C299 C300 1.381 . S
C299 H317 0.930 . S
C300 C299 1.381 . S
C300 C302 1.381 . S
C300 C303 1.487 . S
C301 C298 1.382 . S
C301 C302 1.387 . S
C301 H318 0.930 . S
C302 C300 1.381 . S
C302 C301 1.387 . S
C302 H319 0.931 . S
C303 C296 1.399 . S
C303 C300 1.487 . S
C303 N320 1.343 . S
H304 C276 0.931 . S
H305 C278 0.930 . S
H306 C280 0.930 . S
H307 C281 0.931 . S
H308 C283 0.931 . S
H309 C285 0.930 . S
H310 C287 0.930 . S
H311 C288 0.931 . S
H312 C290 0.931 . S
H313 C292 0.930 . S
H314 C294 0.930 . S
H315 C295 0.931 . S
H316 C297 0.931 . S
H317 C299 0.930 . S
H318 C301 0.930 . S
H319 C302 0.931 . S
N320 C282 1.343 . S
N320 C303 1.343 . S
N321 C289 1.343 . S
N321 C296 1.343 . S
C322 C323 1.384 . S
C322 C324 1.384 . S
C322 H350 0.931 . S
C323 C322 1.384 . S
C323 C326 1.382 . S
C324 C322 1.384 . S
C324 C325 1.381 . S
C324 H351 0.930 . S
C325 C324 1.381 . S
C325 C327 1.381 . S
C325 C328 1.487 . S
C326 C323 1.382 . S
C326 C327 1.387 . S
C326 H352 0.930 . S
C327 C325 1.381 . S
C327 C326 1.387 . S
C327 H353 0.931 . S
C328 C325 1.487 . S
C328 C335 1.399 . S
C328 N366 1.343 . S
C329 C330 1.384 . S
C329 C331 1.384 . S
C329 H354 0.931 . S
C330 C329 1.384 . S
C330 C333 1.382 . S
C331 C329 1.384 . S
C331 C332 1.381 . S
C331 H355 0.930 . S
C332 C331 1.381 . S
C332 C334 1.381 . S
C332 C335 1.487 . S
C333 C330 1.382 . S
C333 C334 1.387 . S
C333 H356 0.930 . S
C334 C332 1.381 . S
C334 C333 1.387 . S
C334 H357 0.931 . S
C335 C328 1.399 . S
C335 C332 1.487 . S
C335 N367 1.343 . S
C336 C337 1.384 . S
C336 C338 1.384 . S
C336 H358 0.931 . S
C337 C336 1.384 . S
C337 C340 1.382 . S
C338 C336 1.384 . S
C338 C339 1.381 . S
C338 H359 0.930 . S
C339 C338 1.381 . S
C339 C341 1.381 . S
C339 C342 1.487 . S
C340 C337 1.382 . S
C340 C341 1.387 . S
C340 H360 0.930 . S
C341 C339 1.381 . S
C341 C340 1.387 . S
C341 H361 0.931 . S
C342 C339 1.487 . S
C342 C349 1.399 . S
C342 N367 1.343 . S
C343 C344 1.384 . S
C343 C345 1.384 . S
C343 H362 0.931 . S
C344 C343 1.384 . S
C344 C347 1.382 . S
C345 C343 1.384 . S
C345 C346 1.381 . S
C345 H363 0.930 . S
C346 C345 1.381 . S
C346 C348 1.381 . S
C346 C349 1.487 . S
C347 C344 1.382 . S
C347 C348 1.387 . S
C347 H364 0.930 . S
C348 C346 1.381 . S
C348 C347 1.387 . S
C348 H365 0.931 . S
C349 C342 1.399 . S
C349 C346 1.487 . S
C349 N366 1.343 . S
H350 C322 0.931 . S
H351 C324 0.930 . S
H352 C326 0.930 . S
H353 C327 0.931 . S
H354 C329 0.931 . S
H355 C331 0.930 . S
H356 C333 0.930 . S
H357 C334 0.931 . S
H358 C336 0.931 . S
H359 C338 0.930 . S
H360 C340 0.930 . S
H361 C341 0.931 . S
H362 C343 0.931 . S
H363 C345 0.930 . S
H364 C347 0.930 . S
H365 C348 0.931 . S
N366 C328 1.343 . S
N366 C349 1.343 . S
N367 C335 1.343 . S
N367 C342 1.343 . S
C368 O370 1.247 . S
C368 O372 1.258 . S
C369 O376 1.247 . S
C369 O377 1.258 . S
O370 C368 1.247 . S
O370 Zn371 2.029 . S
Zn371 O370 2.029 . S
Zn371 O375 2.034 1_655 S
Zn371 O377 2.034 1_655 S
Zn371 O378 2.029 . S
O372 C368 1.258 . S
O372 Zn373 2.028 1_655 S
Zn373 O372 2.028 1_455 S
Zn373 O374 2.035 . S
Zn373 O376 2.035 . S
Zn373 O379 2.028 1_455 S
O374 Zn373 2.035 . S
O374 C380 1.247 . S
O375 Zn371 2.034 1_455 S
O375 C380 1.258 . S
O376 C369 1.247 . S
O376 Zn373 2.035 . S
O377 C369 1.258 . S
O377 Zn371 2.034 1_455 S
O378 Zn371 2.029 . S
O378 C381 1.247 . S
O379 Zn373 2.028 1_655 S
O379 C381 1.258 . S
C380 O374 1.247 . S
C380 O375 1.258 . S
C381 O378 1.247 . S
C381 O379 1.258 . S
C382 O384 1.247 . S
C382 O386 1.258 . S
C383 O390 1.247 . S
C383 O391 1.258 . S
O384 C382 1.247 . S
O384 Zn385 2.035 . S
Zn385 O384 2.035 . S
Zn385 O389 2.028 1_545 S
Zn385 O391 2.028 1_545 S
Zn385 O392 2.035 . S
O386 C382 1.258 . S
O386 Zn387 2.034 1_545 S
Zn387 O386 2.034 1_565 S
Zn387 O388 2.029 . S
Zn387 O390 2.029 . S
Zn387 O393 2.034 1_565 S
O388 Zn387 2.029 . S
O388 C394 1.247 . S
O389 Zn385 2.028 1_565 S
O389 C394 1.258 . S
O390 C383 1.247 . S
O390 Zn387 2.029 . S
O391 C383 1.258 . S
O391 Zn385 2.028 1_565 S
O392 Zn385 2.035 . S
O392 C395 1.247 . S
O393 Zn387 2.034 1_545 S
O393 C395 1.258 . S
C394 O388 1.247 . S
C394 O389 1.258 . S
C395 O392 1.247 . S
C395 O393 1.258 . S
C396 O398 1.247 . S
C396 O400 1.258 . S
C397 O404 1.247 . S
C397 O405 1.258 . S
O398 C396 1.247 . S
O398 Zn399 2.029 . S
Zn399 O398 2.029 . S
Zn399 O403 2.034 1_655 S
Zn399 O405 2.034 1_655 S
Zn399 O406 2.029 . S
O400 C396 1.258 . S
O400 Zn401 2.028 1_655 S
Zn401 O400 2.028 1_455 S
Zn401 O402 2.035 . S
Zn401 O404 2.035 . S
Zn401 O407 2.028 1_455 S
O402 Zn401 2.035 . S
O402 C408 1.247 . S
O403 Zn399 2.034 1_455 S
O403 C408 1.258 . S
O404 C397 1.247 . S
O404 Zn401 2.035 . S
O405 C397 1.258 . S
O405 Zn399 2.034 1_455 S
O406 Zn399 2.029 . S
O406 C409 1.247 . S
O407 Zn401 2.028 1_655 S
O407 C409 1.258 . S
C408 O402 1.247 . S
C408 O403 1.258 . S
C409 O406 1.247 . S
C409 O407 1.258 . S
C410 O412 1.247 . S
C410 O414 1.258 . S
C411 O418 1.247 . S
C411 O419 1.258 . S
O412 C410 1.247 . S
O412 Zn413 2.035 . S
Zn413 O412 2.035 . S
Zn413 O417 2.028 1_545 S
Zn413 O419 2.028 1_545 S
Zn413 O420 2.035 . S
O414 C410 1.258 . S
O414 Zn415 2.034 1_545 S
Zn415 O414 2.034 1_565 S
Zn415 O416 2.029 . S
Zn415 O418 2.029 . S
Zn415 O421 2.034 1_565 S
O416 Zn415 2.029 . S
O416 C422 1.247 . S
O417 Zn413 2.028 1_565 S
O417 C422 1.258 . S
O418 C411 1.247 . S
O418 Zn415 2.029 . S
O419 C411 1.258 . S
O419 Zn413 2.028 1_565 S
O420 Zn413 2.035 . S
O420 C423 1.247 . S
O421 Zn415 2.034 1_545 S
O421 C423 1.258 . S
C422 O416 1.247 . S
C422 O417 1.258 . S
C423 O420 1.247 . S
C423 O421 1.258 . S
C424 O426 1.247 . S
C424 O428 1.258 . S
C425 O432 1.247 . S
C425 O433 1.258 . S
O426 C424 1.247 . S
O426 Zn427 2.028 . S
Zn427 O426 2.028 . S
Zn427 O431 2.035 . S
Zn427 O433 2.035 1_554 S
Zn427 O434 2.028 1_554 S
O428 C424 1.258 . S
O428 Zn429 2.035 . S
Zn429 O428 2.035 . S
Zn429 O430 2.028 . S
Zn429 O432 2.028 1_554 S
Zn429 O435 2.035 1_554 S
O430 Zn429 2.028 . S
O430 C436 1.247 . S
O431 Zn427 2.035 . S
O431 C436 1.258 . S
O432 C425 1.247 . S
O432 Zn429 2.028 1_556 S
O433 C425 1.258 . S
O433 Zn427 2.035 1_556 S
O434 Zn427 2.028 1_556 S
O434 C437 1.247 . S
O435 Zn429 2.035 1_556 S
O435 C437 1.258 . S
C436 O430 1.247 . S
C436 O431 1.258 . S
C437 O434 1.247 . S
C437 O435 1.258 . S
C438 O440 1.247 . S
C438 O442 1.258 . S
C439 O446 1.247 . S
C439 O447 1.258 . S
O440 C438 1.247 . S
O440 Zn441 2.028 . S
Zn441 O440 2.028 . S
Zn441 O445 2.035 . S
Zn441 O447 2.035 1_554 S
Zn441 O448 2.028 1_554 S
O442 C438 1.258 . S
O442 Zn443 2.035 . S
Zn443 O442 2.035 . S
Zn443 O444 2.028 . S
Zn443 O446 2.028 1_554 S
Zn443 O449 2.035 1_554 S
O444 Zn443 2.028 . S
O444 C450 1.247 . S
O445 Zn441 2.035 . S
O445 C450 1.258 . S
O446 C439 1.247 . S
O446 Zn443 2.028 1_556 S
O447 C439 1.258 . S
O447 Zn441 2.035 1_556 S
O448 Zn441 2.028 1_556 S
O448 C451 1.247 . S
O449 Zn443 2.035 1_556 S
O449 C451 1.258 . S
C450 O444 1.247 . S
C450 O445 1.258 . S
C451 O448 1.247 . S
C451 O449 1.258 . S
C452 O454 1.247 . S
C452 O456 1.258 . S
C453 O460 1.247 . S
C453 O461 1.258 . S
O454 C452 1.247 . S
O454 Zn455 2.028 1_556 S
Zn455 O454 2.028 1_554 S
Zn455 O459 2.035 1_554 S
Zn455 O461 2.035 . S
Zn455 O462 2.028 . S
O456 C452 1.258 . S
O456 Zn457 2.035 1_556 S
Zn457 O456 2.035 1_554 S
Zn457 O458 2.028 1_554 S
Zn457 O460 2.028 . S
Zn457 O463 2.035 . S
O458 Zn457 2.028 1_556 S
O458 C464 1.247 . S
O459 Zn455 2.035 1_556 S
O459 C464 1.258 . S
O460 C453 1.247 . S
O460 Zn457 2.028 . S
O461 C453 1.258 . S
O461 Zn455 2.035 . S
O462 Zn455 2.028 . S
O462 C465 1.247 . S
O463 Zn457 2.035 . S
O463 C465 1.258 . S
C464 O458 1.247 . S
C464 O459 1.258 . S
C465 O462 1.247 . S
C465 O463 1.258 . S
C466 O468 1.247 . S
C466 O470 1.258 . S
C467 O474 1.247 . S
C467 O475 1.258 . S
O468 C466 1.247 . S
O468 Zn469 2.028 . S
Zn469 O468 2.028 . S
Zn469 O473 2.035 . S
Zn469 O475 2.035 1_554 S
Zn469 O476 2.028 1_554 S
O470 C466 1.258 . S
O470 Zn471 2.035 . S
Zn471 O470 2.035 . S
Zn471 O472 2.028 . S
Zn471 O474 2.028 1_554 S
Zn471 O477 2.035 1_554 S
O472 Zn471 2.028 . S
O472 C478 1.247 . S
O473 Zn469 2.035 . S
O473 C478 1.258 . S
O474 C467 1.247 . S
O474 Zn471 2.028 1_556 S
O475 C467 1.258 . S
O475 Zn469 2.035 1_556 S
O476 Zn469 2.028 1_556 S
O476 C479 1.247 . S
O477 Zn471 2.035 1_556 S
O477 C479 1.258 . S
C478 O472 1.247 . S
C478 O473 1.258 . S
C479 O476 1.247 . S
C479 O477 1.258 . S
C480 C481 1.363 . S
C480 C486 1.379 . S
C480 N488 1.356 . S
C481 C480 1.363 . S
C481 C487 1.363 . S
C482 C483 1.363 . S
C482 C487 1.379 . S
C482 N489 1.356 . S
C483 C482 1.363 . S
C483 C486 1.363 . S
N484 C486 1.356 . S
N484 H496 0.984 . S
N484 H497 0.985 . S
N485 C487 1.356 . S
N485 H490 0.984 . S
N485 H491 0.985 . S
C486 C480 1.379 . S
C486 C483 1.363 . S
C486 N484 1.356 . S
C487 C481 1.363 . S
C487 C482 1.379 . S
C487 N485 1.356 . S
N488 C480 1.356 . S
N488 H494 0.984 . S
N488 H495 0.984 . S
N489 C482 1.356 . S
N489 H492 0.984 . S
N489 H493 0.985 . S
H490 N485 0.984 . S
H491 N485 0.985 . S
H492 N489 0.984 . S
H493 N489 0.985 . S
H494 N488 0.984 . S
H495 N488 0.984 . S
H496 N484 0.984 . S
H497 N484 0.985 . S
C498 C499 1.363 . S
C498 C504 1.379 . S
C498 N506 1.356 . S
C499 C498 1.363 . S
C499 C505 1.363 . S
C500 C501 1.363 . S
C500 C505 1.379 . S
C500 N507 1.356 . S
C501 C500 1.363 . S
C501 C504 1.363 . S
N502 C504 1.356 . S
N502 H514 0.984 . S
N502 H515 0.985 . S
N503 C505 1.356 . S
N503 H508 0.984 . S
N503 H509 0.985 . S
C504 C498 1.379 . S
C504 C501 1.363 . S
C504 N502 1.356 . S
C505 C499 1.363 . S
C505 C500 1.379 . S
C505 N503 1.356 . S
N506 C498 1.356 . S
N506 H512 0.984 . S
N506 H513 0.984 . S
N507 C500 1.356 . S
N507 H510 0.984 . S
N507 H511 0.985 . S
H508 N503 0.984 . S
H509 N503 0.985 . S
H510 N507 0.984 . S
H511 N507 0.985 . S
H512 N506 0.984 . S
H513 N506 0.984 . S
H514 N502 0.984 . S
H515 N502 0.985 . S
C516 C517 1.363 . S
C516 C522 1.379 . S
C516 N524 1.356 . S
C517 C516 1.363 . S
C517 C523 1.363 . S
C518 C519 1.363 . S
C518 C523 1.379 . S
C518 N525 1.356 . S
C519 C518 1.363 . S
C519 C522 1.363 . S
N520 C522 1.356 . S
N520 H532 0.984 . S
N520 H533 0.985 . S
N521 C523 1.356 . S
N521 H526 0.984 . S
N521 H527 0.985 . S
C522 C516 1.379 . S
C522 C519 1.363 . S
C522 N520 1.356 . S
C523 C517 1.363 . S
C523 C518 1.379 . S
C523 N521 1.356 . S
N524 C516 1.356 . S
N524 H530 0.984 . S
N524 H531 0.984 . S
N525 C518 1.356 . S
N525 H528 0.984 . S
N525 H529 0.985 . S
H526 N521 0.984 . S
H527 N521 0.985 . S
H528 N525 0.984 . S
H529 N525 0.985 . S
H530 N524 0.984 . S
H531 N524 0.984 . S
H532 N520 0.984 . S
H533 N520 0.985 . S
C534 C535 1.363 . S
C534 C540 1.379 . S
C534 N542 1.356 . S
C535 C534 1.363 . S
C535 C541 1.363 . S
C536 C537 1.363 . S
C536 C541 1.379 . S
C536 N543 1.356 . S
C537 C536 1.363 . S
C537 C540 1.363 . S
N538 C540 1.356 . S
N538 H550 0.984 . S
N538 H551 0.985 . S
N539 C541 1.356 . S
N539 H544 0.984 . S
N539 H545 0.985 . S
C540 C534 1.379 . S
C540 C537 1.363 . S
C540 N538 1.356 . S
C541 C535 1.363 . S
C541 C536 1.379 . S
C541 N539 1.356 . S
N542 C534 1.356 . S
N542 H548 0.984 . S
N542 H549 0.984 . S
N543 C536 1.356 . S
N543 H546 0.984 . S
N543 H547 0.985 . S
H544 N539 0.984 . S
H545 N539 0.985 . S
H546 N543 0.984 . S
H547 N543 0.985 . S
H548 N542 0.984 . S
H549 N542 0.984 . S
H550 N538 0.984 . S
H551 N538 0.985 . S
C552 C553 1.363 . S
C552 C558 1.379 . S
C552 N560 1.356 . S
C553 C552 1.363 . S
C553 C559 1.363 . S
C554 C555 1.363 . S
C554 C559 1.379 . S
C554 N561 1.356 . S
C555 C554 1.363 . S
C555 C558 1.363 . S
N556 C558 1.356 . S
N556 H568 0.984 . S
N556 H569 0.985 . S
N557 C559 1.356 . S
N557 H562 0.984 . S
N557 H563 0.985 . S
C558 C552 1.379 . S
C558 C555 1.363 . S
C558 N556 1.356 . S
C559 C553 1.363 . S
C559 C554 1.379 . S
C559 N557 1.356 . S
N560 C552 1.356 . S
N560 H566 0.984 . S
N560 H567 0.984 . S
N561 C554 1.356 . S
N561 H564 0.984 . S
N561 H565 0.985 . S
H562 N557 0.984 . S
H563 N557 0.985 . S
H564 N561 0.984 . S
H565 N561 0.985 . S
H566 N560 0.984 . S
H567 N560 0.984 . S
H568 N556 0.984 . S
H569 N556 0.985 . S
C570 C571 1.363 . S
C570 C576 1.379 . S
C570 N578 1.356 . S
C571 C570 1.363 . S
C571 C577 1.363 . S
C572 C573 1.363 . S
C572 C577 1.379 . S
C572 N579 1.356 . S
C573 C572 1.363 . S
C573 C576 1.363 . S
N574 C576 1.356 . S
N574 H586 0.984 . S
N574 H587 0.985 . S
N575 C577 1.356 . S
N575 H580 0.984 . S
N575 H581 0.985 . S
C576 C570 1.379 . S
C576 C573 1.363 . S
C576 N574 1.356 . S
C577 C571 1.363 . S
C577 C572 1.379 . S
C577 N575 1.356 . S
N578 C570 1.356 . S
N578 H584 0.984 . S
N578 H585 0.984 . S
N579 C572 1.356 . S
N579 H582 0.984 . S
N579 H583 0.985 . S
H580 N575 0.984 . S
H581 N575 0.985 . S
H582 N579 0.984 . S
H583 N579 0.985 . S
H584 N578 0.984 . S
H585 N578 0.984 . S
H586 N574 0.984 . S
H587 N574 0.985 . S
C588 C589 1.363 . S
C588 C594 1.379 . S
C588 N596 1.356 . S
C589 C588 1.363 . S
C589 C595 1.363 . S
C590 C591 1.363 . S
C590 C595 1.379 . S
C590 N597 1.356 . S
C591 C590 1.363 . S
C591 C594 1.363 . S
N592 C594 1.356 . S
N592 H604 0.984 . S
N592 H605 0.985 . S
N593 C595 1.356 . S
N593 H598 0.984 . S
N593 H599 0.985 . S
C594 C588 1.379 . S
C594 C591 1.363 . S
C594 N592 1.356 . S
C595 C589 1.363 . S
C595 C590 1.379 . S
C595 N593 1.356 . S
N596 C588 1.356 . S
N596 H602 0.984 . S
N596 H603 0.984 . S
N597 C590 1.356 . S
N597 H600 0.984 . S
N597 H601 0.985 . S
H598 N593 0.984 . S
H599 N593 0.985 . S
H600 N597 0.984 . S
H601 N597 0.985 . S
H602 N596 0.984 . S
H603 N596 0.984 . S
H604 N592 0.984 . S
H605 N592 0.985 . S
C606 C607 1.363 . S
C606 C612 1.379 . S
C606 N614 1.356 . S
C607 C606 1.363 . S
C607 C613 1.363 . S
C608 C609 1.363 . S
C608 C613 1.379 . S
C608 N615 1.356 . S
C609 C608 1.363 . S
C609 C612 1.363 . S
N610 C612 1.356 . S
N610 H622 0.984 . S
N610 H623 0.985 . S
N611 C613 1.356 . S
N611 H616 0.984 . S
N611 H617 0.985 . S
C612 C606 1.379 . S
C612 C609 1.363 . S
C612 N610 1.356 . S
C613 C607 1.363 . S
C613 C608 1.379 . S
C613 N611 1.356 . S
N614 C606 1.356 . S
N614 H620 0.984 . S
N614 H621 0.984 . S
N615 C608 1.356 . S
N615 H618 0.984 . S
N615 H619 0.985 . S
H616 N611 0.984 . S
H617 N611 0.985 . S
H618 N615 0.984 . S
H619 N615 0.985 . S
H620 N614 0.984 . S
H621 N614 0.984 . S
H622 N610 0.984 . S
H623 N610 0.985 . S
C624 C625 1.363 . S
C624 C630 1.379 . S
C624 N632 1.356 . S
C625 C624 1.363 . S
C625 C631 1.363 . S
C626 C627 1.363 . S
C626 C631 1.379 . S
C626 N633 1.356 . S
C627 C626 1.363 . S
C627 C630 1.363 . S
N628 C630 1.356 . S
N628 H640 0.984 . S
N628 H641 0.985 . S
N629 C631 1.356 . S
N629 H634 0.984 . S
N629 H635 0.985 . S
C630 C624 1.379 . S
C630 C627 1.363 . S
C630 N628 1.356 . S
C631 C625 1.363 . S
C631 C626 1.379 . S
C631 N629 1.356 . S
N632 C624 1.356 . S
N632 H638 0.984 . S
N632 H639 0.984 . S
N633 C626 1.356 . S
N633 H636 0.984 . S
N633 H637 0.985 . S
H634 N629 0.984 . S
H635 N629 0.985 . S
H636 N633 0.984 . S
H637 N633 0.985 . S
H638 N632 0.984 . S
H639 N632 0.984 . S
H640 N628 0.984 . S
H641 N628 0.985 . S
C642 C643 1.363 . S
C642 C648 1.379 . S
C642 N650 1.356 . S
C643 C642 1.363 . S
C643 C649 1.363 . S
C644 C645 1.363 . S
C644 C649 1.379 . S
C644 N651 1.356 . S
C645 C644 1.363 . S
C645 C648 1.363 . S
N646 C648 1.356 . S
N646 H658 0.984 . S
N646 H659 0.985 . S
N647 C649 1.356 . S
N647 H652 0.984 . S
N647 H653 0.985 . S
C648 C642 1.379 . S
C648 C645 1.363 . S
C648 N646 1.356 . S
C649 C643 1.363 . S
C649 C644 1.379 . S
C649 N647 1.356 . S
N650 C642 1.356 . S
N650 H656 0.984 . S
N650 H657 0.984 . S
N651 C644 1.356 . S
N651 H654 0.984 . S
N651 H655 0.985 . S
H652 N647 0.984 . S
H653 N647 0.985 . S
H654 N651 0.984 . S
H655 N651 0.985 . S
H656 N650 0.984 . S
H657 N650 0.984 . S
H658 N646 0.984 . S
H659 N646 0.985 . S
C660 C661 1.363 . S
C660 C666 1.379 . S
C660 N668 1.356 . S
C661 C660 1.363 . S
C661 C667 1.363 . S
C662 C663 1.363 . S
C662 C667 1.379 . S
C662 N669 1.356 . S
C663 C662 1.363 . S
C663 C666 1.363 . S
N664 C666 1.356 . S
N664 H676 0.984 . S
N664 H677 0.985 . S
N665 C667 1.356 . S
N665 H670 0.984 . S
N665 H671 0.985 . S
C666 C660 1.379 . S
C666 C663 1.363 . S
C666 N664 1.356 . S
C667 C661 1.363 . S
C667 C662 1.379 . S
C667 N665 1.356 . S
N668 C660 1.356 . S
N668 H674 0.984 . S
N668 H675 0.984 . S
N669 C662 1.356 . S
N669 H672 0.984 . S
N669 H673 0.985 . S
H670 N665 0.984 . S
H671 N665 0.985 . S
H672 N669 0.984 . S
H673 N669 0.985 . S
H674 N668 0.984 . S
H675 N668 0.984 . S
H676 N664 0.984 . S
H677 N664 0.985 . S
C678 C679 1.363 . S
C678 C684 1.379 . S
C678 N686 1.356 . S
C679 C678 1.363 . S
C679 C685 1.363 . S
C680 C681 1.363 . S
C680 C685 1.379 . S
C680 N687 1.356 . S
C681 C680 1.363 . S
C681 C684 1.363 . S
N682 C684 1.356 . S
N682 H694 0.984 . S
N682 H695 0.985 . S
N683 C685 1.356 . S
N683 H688 0.984 . S
N683 H689 0.985 . S
C684 C678 1.379 . S
C684 C681 1.363 . S
C684 N682 1.356 . S
C685 C679 1.363 . S
C685 C680 1.379 . S
C685 N683 1.356 . S
N686 C678 1.356 . S
N686 H692 0.984 . S
N686 H693 0.984 . S
N687 C680 1.356 . S
N687 H690 0.984 . S
N687 H691 0.985 . S
H688 N683 0.984 . S
H689 N683 0.985 . S
H690 N687 0.984 . S
H691 N687 0.985 . S
H692 N686 0.984 . S
H693 N686 0.984 . S
H694 N682 0.984 . S
H695 N682 0.985 . S
C696 C697 1.363 . S
C696 C702 1.379 . S
C696 N704 1.356 . S
C697 C696 1.363 . S
C697 C703 1.363 . S
C698 C699 1.363 . S
C698 C703 1.379 . S
C698 N705 1.356 . S
C699 C698 1.363 . S
C699 C702 1.363 . S
N700 C702 1.356 . S
N700 H712 0.984 . S
N700 H713 0.985 . S
N701 C703 1.356 . S
N701 H706 0.984 . S
N701 H707 0.985 . S
C702 C696 1.379 . S
C702 C699 1.363 . S
C702 N700 1.356 . S
C703 C697 1.363 . S
C703 C698 1.379 . S
C703 N701 1.356 . S
N704 C696 1.356 . S
N704 H710 0.984 . S
N704 H711 0.984 . S
N705 C698 1.356 . S
N705 H708 0.984 . S
N705 H709 0.985 . S
H706 N701 0.984 . S
H707 N701 0.985 . S
H708 N705 0.984 . S
H709 N705 0.985 . S
H710 N704 0.984 . S
H711 N704 0.984 . S
H712 N700 0.984 . S
H713 N700 0.985 . S
C714 C715 1.363 . S
C714 C720 1.379 . S
C714 N722 1.356 . S
C715 C714 1.363 . S
C715 C721 1.363 . S
C716 C717 1.363 . S
C716 C721 1.379 . S
C716 N723 1.356 . S
C717 C716 1.363 . S
C717 C720 1.363 . S
N718 C720 1.356 . S
N718 H730 0.984 . S
N718 H731 0.985 . S
N719 C721 1.356 . S
N719 H724 0.984 . S
N719 H725 0.985 . S
C720 C714 1.379 . S
C720 C717 1.363 . S
C720 N718 1.356 . S
C721 C715 1.363 . S
C721 C716 1.379 . S
C721 N719 1.356 . S
N722 C714 1.356 . S
N722 H728 0.984 . S
N722 H729 0.984 . S
N723 C716 1.356 . S
N723 H726 0.984 . S
N723 H727 0.985 . S
H724 N719 0.984 . S
H725 N719 0.985 . S
H726 N723 0.984 . S
H727 N723 0.985 . S
H728 N722 0.984 . S
H729 N722 0.984 . S
H730 N718 0.984 . S
H731 N718 0.985 . S
C732 C733 1.363 . S
C732 C738 1.379 . S
C732 N740 1.356 . S
C733 C732 1.363 . S
C733 C739 1.363 . S
C734 C735 1.363 . S
C734 C739 1.379 . S
C734 N741 1.356 . S
C735 C734 1.363 . S
C735 C738 1.363 . S
N736 C738 1.356 . S
N736 H748 0.984 . S
N736 H749 0.985 . S
N737 C739 1.356 . S
N737 H742 0.984 . S
N737 H743 0.985 . S
C738 C732 1.379 . S
C738 C735 1.363 . S
C738 N736 1.356 . S
C739 C733 1.363 . S
C739 C734 1.379 . S
C739 N737 1.356 . S
N740 C732 1.356 . S
N740 H746 0.984 . S
N740 H747 0.984 . S
N741 C734 1.356 . S
N741 H744 0.984 . S
N741 H745 0.985 . S
H742 N737 0.984 . S
H743 N737 0.985 . S
H744 N741 0.984 . S
H745 N741 0.985 . S
H746 N740 0.984 . S
H747 N740 0.984 . S
H748 N736 0.984 . S
H749 N736 0.985 . S
C750 C751 1.363 . S
C750 C756 1.379 . S
C750 N758 1.356 . S
C751 C750 1.363 . S
C751 C757 1.363 . S
C752 C753 1.363 . S
C752 C757 1.379 . S
C752 N759 1.356 . S
C753 C752 1.363 . S
C753 C756 1.363 . S
N754 C756 1.356 . S
N754 H766 0.984 . S
N754 H767 0.985 . S
N755 C757 1.356 . S
N755 H760 0.984 . S
N755 H761 0.985 . S
C756 C750 1.379 . S
C756 C753 1.363 . S
C756 N754 1.356 . S
C757 C751 1.363 . S
C757 C752 1.379 . S
C757 N755 1.356 . S
N758 C750 1.356 . S
N758 H764 0.984 . S
N758 H765 0.984 . S
N759 C752 1.356 . S
N759 H762 0.984 . S
N759 H763 0.985 . S
H760 N755 0.984 . S
H761 N755 0.985 . S
H762 N759 0.984 . S
H763 N759 0.985 . S
H764 N758 0.984 . S
H765 N758 0.984 . S
H766 N754 0.984 . S
H767 N754 0.985 . S
C768 C769 1.363 . S
C768 C774 1.379 . S
C768 N776 1.356 . S
C769 C768 1.363 . S
C769 C775 1.363 . S
C770 C771 1.363 . S
C770 C775 1.379 . S
C770 N777 1.356 . S
C771 C770 1.363 . S
C771 C774 1.363 . S
N772 C774 1.356 . S
N772 H784 0.984 . S
N772 H785 0.985 . S
N773 C775 1.356 . S
N773 H778 0.984 . S
N773 H779 0.985 . S
C774 C768 1.379 . S
C774 C771 1.363 . S
C774 N772 1.356 . S
C775 C769 1.363 . S
C775 C770 1.379 . S
C775 N773 1.356 . S
N776 C768 1.356 . S
N776 H782 0.984 . S
N776 H783 0.984 . S
N777 C770 1.356 . S
N777 H780 0.984 . S
N777 H781 0.985 . S
H778 N773 0.984 . S
H779 N773 0.985 . S
H780 N777 0.984 . S
H781 N777 0.985 . S
H782 N776 0.984 . S
H783 N776 0.984 . S
H784 N772 0.984 . S
H785 N772 0.985 . S
C786 C787 1.363 . S
C786 C792 1.379 . S
C786 N794 1.356 . S
C787 C786 1.363 . S
C787 C793 1.363 . S
C788 C789 1.363 . S
C788 C793 1.379 . S
C788 N795 1.356 . S
C789 C788 1.363 . S
C789 C792 1.363 . S
N790 C792 1.356 . S
N790 H802 0.984 . S
N790 H803 0.985 . S
N791 C793 1.356 . S
N791 H796 0.984 . S
N791 H797 0.985 . S
C792 C786 1.379 . S
C792 C789 1.363 . S
C792 N790 1.356 . S
C793 C787 1.363 . S
C793 C788 1.379 . S
C793 N791 1.356 . S
N794 C786 1.356 . S
N794 H800 0.984 . S
N794 H801 0.984 . S
N795 C788 1.356 . S
N795 H798 0.984 . S
N795 H799 0.985 . S
H796 N791 0.984 . S
H797 N791 0.985 . S
H798 N795 0.984 . S
H799 N795 0.985 . S
H800 N794 0.984 . S
H801 N794 0.984 . S
H802 N790 0.984 . S
H803 N790 0.985 . S
C804 C805 1.363 . S
C804 C810 1.379 . S
C804 N812 1.356 . S
C805 C804 1.363 . S
C805 C811 1.363 . S
C806 C807 1.363 . S
C806 C811 1.379 . S
C806 N813 1.356 . S
C807 C806 1.363 . S
C807 C810 1.363 . S
N808 C810 1.356 . S
N808 H820 0.984 . S
N808 H821 0.985 . S
N809 C811 1.356 . S
N809 H814 0.984 . S
N809 H815 0.985 . S
C810 C804 1.379 . S
C810 C807 1.363 . S
C810 N808 1.356 . S
C811 C805 1.363 . S
C811 C806 1.379 . S
C811 N809 1.356 . S
N812 C804 1.356 . S
N812 H818 0.984 . S
N812 H819 0.984 . S
N813 C806 1.356 . S
N813 H816 0.984 . S
N813 H817 0.985 . S
H814 N809 0.984 . S
H815 N809 0.985 . S
H816 N813 0.984 . S
H817 N813 0.985 . S
H818 N812 0.984 . S
H819 N812 0.984 . S
H820 N808 0.984 . S
H821 N808 0.985 . S
C822 C823 1.363 . S
C822 C828 1.379 . S
C822 N830 1.356 . S
C823 C822 1.363 . S
C823 C829 1.363 . S
C824 C825 1.363 . S
C824 C829 1.379 . S
C824 N831 1.356 . S
C825 C824 1.363 . S
C825 C828 1.363 . S
N826 C828 1.356 . S
N826 H838 0.984 . S
N826 H839 0.985 . S
N827 C829 1.356 . S
N827 H832 0.984 . S
N827 H833 0.985 . S
C828 C822 1.379 . S
C828 C825 1.363 . S
C828 N826 1.356 . S
C829 C823 1.363 . S
C829 C824 1.379 . S
C829 N827 1.356 . S
N830 C822 1.356 . S
N830 H836 0.984 . S
N830 H837 0.984 . S
N831 C824 1.356 . S
N831 H834 0.984 . S
N831 H835 0.985 . S
H832 N827 0.984 . S
H833 N827 0.985 . S
H834 N831 0.984 . S
H835 N831 0.985 . S
H836 N830 0.984 . S
H837 N830 0.984 . S
H838 N826 0.984 . S
H839 N826 0.985 . S
C840 C841 1.363 . S
C840 C846 1.379 . S
C840 N848 1.356 . S
C841 C840 1.363 . S
C841 C847 1.363 . S
C842 C843 1.363 . S
C842 C847 1.379 . S
C842 N849 1.356 . S
C843 C842 1.363 . S
C843 C846 1.363 . S
N844 C846 1.356 . S
N844 H856 0.984 . S
N844 H857 0.985 . S
N845 C847 1.356 . S
N845 H850 0.984 . S
N845 H851 0.985 . S
C846 C840 1.379 . S
C846 C843 1.363 . S
C846 N844 1.356 . S
C847 C841 1.363 . S
C847 C842 1.379 . S
C847 N845 1.356 . S
N848 C840 1.356 . S
N848 H854 0.984 . S
N848 H855 0.984 . S
N849 C842 1.356 . S
N849 H852 0.984 . S
N849 H853 0.985 . S
H850 N845 0.984 . S
H851 N845 0.985 . S
H852 N849 0.984 . S
H853 N849 0.985 . S
H854 N848 0.984 . S
H855 N848 0.984 . S
H856 N844 0.984 . S
H857 N844 0.985 . S
C858 C859 1.363 . S
C858 C864 1.379 . S
C858 N866 1.356 . S
C859 C858 1.363 . S
C859 C865 1.363 . S
C860 C861 1.363 . S
C860 C865 1.379 . S
C860 N867 1.356 . S
C861 C860 1.363 . S
C861 C864 1.363 . S
N862 C864 1.356 . S
N862 H874 0.984 . S
N862 H875 0.985 . S
N863 C865 1.356 . S
N863 H868 0.984 . S
N863 H869 0.985 . S
C864 C858 1.379 . S
C864 C861 1.363 . S
C864 N862 1.356 . S
C865 C859 1.363 . S
C865 C860 1.379 . S
C865 N863 1.356 . S
N866 C858 1.356 . S
N866 H872 0.984 . S
N866 H873 0.984 . S
N867 C860 1.356 . S
N867 H870 0.984 . S
N867 H871 0.985 . S
H868 N863 0.984 . S
H869 N863 0.985 . S
H870 N867 0.984 . S
H871 N867 0.985 . S
H872 N866 0.984 . S
H873 N866 0.984 . S
H874 N862 0.984 . S
H875 N862 0.985 . S
C876 C877 1.363 . S
C876 C882 1.379 . S
C876 N884 1.356 . S
C877 C876 1.363 . S
C877 C883 1.363 . S
C878 C879 1.363 . S
C878 C883 1.379 . S
C878 N885 1.356 . S
C879 C878 1.363 . S
C879 C882 1.363 . S
N880 C882 1.356 . S
N880 H892 0.984 . S
N880 H893 0.985 . S
N881 C883 1.356 . S
N881 H886 0.984 . S
N881 H887 0.985 . S
C882 C876 1.379 . S
C882 C879 1.363 . S
C882 N880 1.356 . S
C883 C877 1.363 . S
C883 C878 1.379 . S
C883 N881 1.356 . S
N884 C876 1.356 . S
N884 H890 0.984 . S
N884 H891 0.984 . S
N885 C878 1.356 . S
N885 H888 0.984 . S
N885 H889 0.985 . S
H886 N881 0.984 . S
H887 N881 0.985 . S
H888 N885 0.984 . S
H889 N885 0.985 . S
H890 N884 0.984 . S
H891 N884 0.984 . S
H892 N880 0.984 . S
H893 N880 0.985 . S
C894 C895 1.363 . S
C894 C900 1.379 . S
C894 N902 1.356 . S
C895 C894 1.363 . S
C895 C901 1.363 . S
C896 C897 1.363 . S
C896 C901 1.379 . S
C896 N903 1.356 . S
C897 C896 1.363 . S
C897 C900 1.363 . S
N898 C900 1.356 . S
N898 H910 0.984 . S
N898 H911 0.985 . S
N899 C901 1.356 . S
N899 H904 0.984 . S
N899 H905 0.985 . S
C900 C894 1.379 . S
C900 C897 1.363 . S
C900 N898 1.356 . S
C901 C895 1.363 . S
C901 C896 1.379 . S
C901 N899 1.356 . S
N902 C894 1.356 . S
N902 H908 0.984 . S
N902 H909 0.984 . S
N903 C896 1.356 . S
N903 H906 0.984 . S
N903 H907 0.985 . S
H904 N899 0.984 . S
H905 N899 0.985 . S
H906 N903 0.984 . S
H907 N903 0.985 . S
H908 N902 0.984 . S
H909 N902 0.984 . S
H910 N898 0.984 . S
H911 N898 0.985 . S
C912 C913 1.363 . S
C912 C918 1.379 . S
C912 N920 1.356 . S
C913 C912 1.363 . S
C913 C919 1.363 . S
C914 C915 1.363 . S
C914 C919 1.379 . S
C914 N921 1.356 . S
C915 C914 1.363 . S
C915 C918 1.363 . S
N916 C918 1.356 . S
N916 H928 0.984 . S
N916 H929 0.985 . S
N917 C919 1.356 . S
N917 H922 0.984 . S
N917 H923 0.985 . S
C918 C912 1.379 . S
C918 C915 1.363 . S
C918 N916 1.356 . S
C919 C913 1.363 . S
C919 C914 1.379 . S
C919 N917 1.356 . S
N920 C912 1.356 . S
N920 H926 0.984 . S
N920 H927 0.984 . S
N921 C914 1.356 . S
N921 H924 0.984 . S
N921 H925 0.985 . S
H922 N917 0.984 . S
H923 N917 0.985 . S
H924 N921 0.984 . S
H925 N921 0.985 . S
H926 N920 0.984 . S
H927 N920 0.984 . S
H928 N916 0.984 . S
H929 N916 0.985 . S
C930 C931 1.363 . S
C930 C936 1.379 . S
C930 N938 1.356 . S
C931 C930 1.363 . S
C931 C937 1.363 . S
C932 C933 1.363 . S
C932 C937 1.379 . S
C932 N939 1.356 . S
C933 C932 1.363 . S
C933 C936 1.363 . S
N934 C936 1.356 . S
N934 H946 0.984 . S
N934 H947 0.985 . S
N935 C937 1.356 . S
N935 H940 0.984 . S
N935 H941 0.985 . S
C936 C930 1.379 . S
C936 C933 1.363 . S
C936 N934 1.356 . S
C937 C931 1.363 . S
C937 C932 1.379 . S
C937 N935 1.356 . S
N938 C930 1.356 . S
N938 H944 0.984 . S
N938 H945 0.984 . S
N939 C932 1.356 . S
N939 H942 0.984 . S
N939 H943 0.985 . S
H940 N935 0.984 . S
H941 N935 0.985 . S
H942 N939 0.984 . S
H943 N939 0.985 . S
H944 N938 0.984 . S
H945 N938 0.984 . S
H946 N934 0.984 . S
H947 N934 0.985 . S
C948 C949 1.363 . S
C948 C954 1.379 . S
C948 N956 1.356 . S
C949 C948 1.363 . S
C949 C955 1.363 . S
C950 C951 1.363 . S
C950 C955 1.379 . S
C950 N957 1.356 . S
C951 C950 1.363 . S
C951 C954 1.363 . S
N952 C954 1.356 . S
N952 H964 0.984 . S
N952 H965 0.985 . S
N953 C955 1.356 . S
N953 H958 0.984 . S
N953 H959 0.985 . S
C954 C948 1.379 . S
C954 C951 1.363 . S
C954 N952 1.356 . S
C955 C949 1.363 . S
C955 C950 1.379 . S
C955 N953 1.356 . S
N956 C948 1.356 . S
N956 H962 0.984 . S
N956 H963 0.984 . S
N957 C950 1.356 . S
N957 H960 0.984 . S
N957 H961 0.985 . S
H958 N953 0.984 . S
H959 N953 0.985 . S
H960 N957 0.984 . S
H961 N957 0.985 . S
H962 N956 0.984 . S
H963 N956 0.984 . S
H964 N952 0.984 . S
H965 N952 0.985 . S
C966 C967 1.363 . S
C966 C972 1.379 . S
C966 N974 1.356 . S
C967 C966 1.363 . S
C967 C973 1.363 . S
C968 C969 1.363 . S
C968 C973 1.379 . S
C968 N975 1.356 . S
C969 C968 1.363 . S
C969 C972 1.363 . S
N970 C972 1.356 . S
N970 H982 0.984 . S
N970 H983 0.985 . S
N971 C973 1.356 . S
N971 H976 0.984 . S
N971 H977 0.985 . S
C972 C966 1.379 . S
C972 C969 1.363 . S
C972 N970 1.356 . S
C973 C967 1.363 . S
C973 C968 1.379 . S
C973 N971 1.356 . S
N974 C966 1.356 . S
N974 H980 0.984 . S
N974 H981 0.984 . S
N975 C968 1.356 . S
N975 H978 0.984 . S
N975 H979 0.985 . S
H976 N971 0.984 . S
H977 N971 0.985 . S
H978 N975 0.984 . S
H979 N975 0.985 . S
H980 N974 0.984 . S
H981 N974 0.984 . S
H982 N970 0.984 . S
H983 N970 0.985 . S
C984 C985 1.363 . S
C984 C990 1.379 . S
C984 N992 1.356 . S
C985 C984 1.363 . S
C985 C991 1.363 . S
C986 C987 1.363 . S
C986 C991 1.379 . S
C986 N993 1.356 . S
C987 C986 1.363 . S
C987 C990 1.363 . S
N988 C990 1.356 . S
N988 H1000 0.984 . S
N988 H1001 0.985 . S
N989 C991 1.356 . S
N989 H994 0.984 . S
N989 H995 0.985 . S
C990 C984 1.379 . S
C990 C987 1.363 . S
C990 N988 1.356 . S
C991 C985 1.363 . S
C991 C986 1.379 . S
C991 N989 1.356 . S
N992 C984 1.356 . S
N992 H998 0.984 . S
N992 H999 0.984 . S
N993 C986 1.356 . S
N993 H996 0.984 . S
N993 H997 0.985 . S
H994 N989 0.984 . S
H995 N989 0.985 . S
H996 N993 0.984 . S
H997 N993 0.985 . S
H998 N992 0.984 . S
H999 N992 0.984 . S
H1000 N988 0.984 . S
H1001 N988 0.985 . S
C1002 C1003 1.363 . S
C1002 C1008 1.379 . S
C1002 N1010 1.356 . S
C1003 C1002 1.363 . S
C1003 C1009 1.363 . S
C1004 C1005 1.363 . S
C1004 C1009 1.379 . S
C1004 N1011 1.356 . S
C1005 C1004 1.363 . S
C1005 C1008 1.363 . S
N1006 C1008 1.356 . S
N1006 H1018 0.984 . S
N1006 H1019 0.985 . S
N1007 C1009 1.356 . S
N1007 H1012 0.984 . S
N1007 H1013 0.985 . S
C1008 C1002 1.379 . S
C1008 C1005 1.363 . S
C1008 N1006 1.356 . S
C1009 C1003 1.363 . S
C1009 C1004 1.379 . S
C1009 N1007 1.356 . S
N1010 C1002 1.356 . S
N1010 H1016 0.984 . S
N1010 H1017 0.984 . S
N1011 C1004 1.356 . S
N1011 H1014 0.984 . S
N1011 H1015 0.985 . S
H1012 N1007 0.984 . S
H1013 N1007 0.985 . S
H1014 N1011 0.984 . S
H1015 N1011 0.985 . S
H1016 N1010 0.984 . S
H1017 N1010 0.984 . S
H1018 N1006 0.984 . S
H1019 N1006 0.985 . S
C1020 C1021 1.363 . S
C1020 C1026 1.379 . S
C1020 N1028 1.356 . S
C1021 C1020 1.363 . S
C1021 C1027 1.363 . S
C1022 C1023 1.363 . S
C1022 C1027 1.379 . S
C1022 N1029 1.356 . S
C1023 C1022 1.363 . S
C1023 C1026 1.363 . S
N1024 C1026 1.356 . S
N1024 H1036 0.984 . S
N1024 H1037 0.985 . S
N1025 C1027 1.356 . S
N1025 H1030 0.984 . S
N1025 H1031 0.985 . S
C1026 C1020 1.379 . S
C1026 C1023 1.363 . S
C1026 N1024 1.356 . S
C1027 C1021 1.363 . S
C1027 C1022 1.379 . S
C1027 N1025 1.356 . S
N1028 C1020 1.356 . S
N1028 H1034 0.984 . S
N1028 H1035 0.984 . S
N1029 C1022 1.356 . S
N1029 H1032 0.984 . S
N1029 H1033 0.985 . S
H1030 N1025 0.984 . S
H1031 N1025 0.985 . S
H1032 N1029 0.984 . S
H1033 N1029 0.985 . S
H1034 N1028 0.984 . S
H1035 N1028 0.984 . S
H1036 N1024 0.984 . S
H1037 N1024 0.985 . S
C1038 C1039 1.363 . S
C1038 C1044 1.379 . S
C1038 N1046 1.356 . S
C1039 C1038 1.363 . S
C1039 C1045 1.363 . S
C1040 C1041 1.363 . S
C1040 C1045 1.379 . S
C1040 N1047 1.356 . S
C1041 C1040 1.363 . S
C1041 C1044 1.363 . S
N1042 C1044 1.356 . S
N1042 H1054 0.984 . S
N1042 H1055 0.985 . S
N1043 C1045 1.356 . S
N1043 H1048 0.984 . S
N1043 H1049 0.985 . S
C1044 C1038 1.379 . S
C1044 C1041 1.363 . S
C1044 N1042 1.356 . S
C1045 C1039 1.363 . S
C1045 C1040 1.379 . S
C1045 N1043 1.356 . S
N1046 C1038 1.356 . S
N1046 H1052 0.984 . S
N1046 H1053 0.984 . S
N1047 C1040 1.356 . S
N1047 H1050 0.984 . S
N1047 H1051 0.985 . S
H1048 N1043 0.984 . S
H1049 N1043 0.985 . S
H1050 N1047 0.984 . S
H1051 N1047 0.985 . S
H1052 N1046 0.984 . S
H1053 N1046 0.984 . S
H1054 N1042 0.984 . S
H1055 N1042 0.985 . S
C483 C369 1.511 . S
C481 C15 1.517 . S
C501 C395 1.511 . S
C499 C68 1.516 . S
C519 C409 1.511 . S
C517 C107 1.518 . S
C537 C411 1.511 . S
C535 C160 1.517 . S
C553 C185 1.516 . S
C555 C408 1.511 . S
C573 C410 1.512 . S
C571 C252 1.517 . S
C591 C368 1.512 . S
C589 C277 1.516 . S
C609 C394 1.512 . S
C607 C330 1.517 . S
C627 C396 1.511 . S
C625 C323 1.518 . S
C645 C422 1.511 . S
C643 C192 1.517 . S
C663 C380 1.511 . S
C661 C245 1.516 . S
C681 C382 1.511 . S
C679 C284 1.516 . S
C699 C381 1.512 . S
C697 C61 1.516 . S
C717 C383 1.512 . S
C715 C114 1.517 . S
C735 C397 1.512 . S
C733 C153 1.515 . S
C753 C423 1.512 . S
C751 C22 1.516 . S
C771 C425 1.511 . S
C769 C337 1.519 . S
C787 C206 1.517 . S
C789 C451 1.513 . S
C805 C231 1.516 . S
C807 C464 1.514 . S
C823 C298 1.517 . S
C825 C467 1.513 . S
C841 C47 1.516 . S
C843 C465 1.509 . S
C859 C100 1.516 . S
C861 C466 1.510 . S
C877 C139 1.516 . S
C879 C424 1.510 . S
C897 C450 1.512 . S
C895 C8 1.514 . S
C915 C453 1.512 . S
C913 C1 1.515 . S
C931 C54 1.517 . S
C933 C478 1.509 . S
C949 C93 1.517 . S
C951 C436 1.509 . S
C967 C146 1.517 . S
C969 C438 1.509 . S
C987 C437 1.512 . S
C985 C199 1.518 . S
C1005 C439 1.512 . S
C1003 C238 1.519 . S
C1021 C291 1.516 . S
C1023 C452 1.513 . S
C1041 C479 1.512 . S
C1039 C344 1.518 . S
