# Generated by pormake.
# Topology rtl, (3,6)-cn, num edge types: 1
# Building blocks:
#     Node 0, Type 0, BuildingBlock: BETDIP_clean_linker_0, # of connection points: 3
#     Node 1, Type 0, BuildingBlock: BETDIP_clean_linker_0, # of connection points: 3
#     Node 2, Type 0, BuildingBlock: BETDIP_clean_linker_0, # of connection points: 3
#     Node 3, Type 0, BuildingBlock: BETDIP_clean_linker_0, # of connection points: 3
#     Node 4, Type 1, BuildingBlock: LEVNOQ01_clean_sbu_1, # of connection points: 6
#     Node 5, Type 1, BuildingBlock: LEVNOQ01_clean_sbu_1, # of connection points: 6
#     Edge 6, Type (0, 1), BuildingBlock: TEMPAE_clean_linker_10, # of connection points: 2
#     Edge 7, Type (0, 1), BuildingBlock: TEMPAE_clean_linker_10, # of connection points: 2
#     Edge 8, Type (0, 1), BuildingBlock: TEMPAE_clean_linker_10, # of connection points: 2
#     Edge 9, Type (0, 1), BuildingBlock: TEMPAE_clean_linker_10, # of connection points: 2
#     Edge 10, Type (0, 1), BuildingBlock: TEMPAE_clean_linker_10, # of connection points: 2
#     Edge 11, Type (0, 1), BuildingBlock: TEMPAE_clean_linker_10, # of connection points: 2
#     Edge 12, Type (0, 1), BuildingBlock: TEMPAE_clean_linker_10, # of connection points: 2
#     Edge 13, Type (0, 1), BuildingBlock: TEMPAE_clean_linker_10, # of connection points: 2
#     Edge 14, Type (0, 1), BuildingBlock: TEMPAE_clean_linker_10, # of connection points: 2
#     Edge 15, Type (0, 1), BuildingBlock: TEMPAE_clean_linker_10, # of connection points: 2
#     Edge 16, Type (0, 1), BuildingBlock: TEMPAE_clean_linker_10, # of connection points: 2
#     Edge 17, Type (0, 1), BuildingBlock: TEMPAE_clean_linker_10, # of connection points: 2
# Relax obj value: 0.017
# Max RMSD: 0.117
# Mean RMSD: 0.089
data_MOF--net-rtl--node1-LEVNOQ01_clean_sbu_1--node2-BETDIP_clean_linker_0--edge1-TEMPAE_clean_linker_10
_symmetry_space_group_name_H-M    P1
_symmetry_Int_Tables_number       1
_symmetry_cell_setting            triclinic
loop_
_symmetry_equiv_pos_as_xyz
'x, y, z'
_cell_length_a     36.480235
_cell_length_b     36.277879
_cell_length_c     22.615172
_cell_angle_alpha  91.016816
_cell_angle_beta   99.23991
_cell_angle_gamma 90.045109
loop_
_atom_site_label
_atom_site_type_symbol
_atom_site_fract_x
_atom_site_fract_y
_atom_site_fract_z
_atom_type_partial_charge
H0 H 0.20916 0.8342 0.98229 0.0
H1 H 0.22429 0.84154 0.17489 0.0
H2 H 0.14717 0.91326 0.06949 0.0
H3 H 0.27982 0.81517 0.16832 0.0
C4 C 0.27395 0.79659 0.12978 0.0
C5 C 0.20267 0.84719 0.02288 0.0
C6 C 0.17567 0.87498 0.0192 0.0
C7 C 0.22098 0.83546 0.07871 0.0
C8 C 0.21182 0.85157 0.13155 0.0
C9 C 0.18484 0.87942 0.12855 0.0
C10 C 0.16737 0.89119 0.0722 0.0
N11 N 0.24689 0.8061 0.07985 0.0
H12 H 0.70934 0.71343 0.69644 0.0
H13 H 0.70056 0.71948 0.50463 0.0
H14 H 0.62291 0.6539 0.58225 0.0
H15 H 0.76491 0.72722 0.5336 0.0
C16 C 0.76478 0.74766 0.56929 0.0
C17 C 0.69548 0.70567 0.65191 0.0
C18 C 0.66446 0.68228 0.64495 0.0
C19 C 0.70891 0.71899 0.60169 0.0
C20 C 0.69089 0.70877 0.54378 0.0
C21 C 0.65952 0.68553 0.53624 0.0
C22 C 0.64645 0.67261 0.58726 0.0
N23 N 0.73976 0.74354 0.61079 0.0
H24 H 0.77492 0.19672 0.86911 0.0
H25 H 0.78634 0.20509 0.06115 0.0
H26 H 0.85527 0.13017 0.97946 0.0
H27 H 0.72288 0.21895 0.03474 0.0
C28 C 0.72431 0.23805 -0.0013 0.0
C29 C 0.788 0.18771 0.91289 0.0
C30 C 0.8164 0.16132 0.91788 0.0
C31 C 0.77642 0.20304 0.96404 0.0
C32 C 0.7941 0.19244 0.02126 0.0
C33 C 0.82315 0.16666 0.02704 0.0
C34 C 0.8337 0.15095 0.97515 0.0
N35 N 0.74824 0.23036 0.95639 0.0
H36 H 0.30711 0.30864 0.38193 0.0
H37 H 0.32781 0.28564 0.57005 0.0
H38 H 0.36854 0.38616 0.50532 0.0
H39 H 0.31453 0.2274 0.53754 0.0
C40 C 0.2929 0.23029 0.49891 0.0
C41 C 0.31897 0.31683 0.4273 0.0
C42 C 0.3391 0.34988 0.43801 0.0
C43 C 0.31496 0.29339 0.47431 0.0
C44 C 0.33097 0.30344 0.5334 0.0
C45 C 0.35084 0.33681 0.54538 0.0
C46 C 0.35436 0.35988 0.49711 0.0
N47 N 0.29334 0.26078 0.46048 0.0
O48 O 0.96744 0.10262 0.58706 0.0
Mg49 Mg 0.01833 0.07546 0.59655 0.0
O50 O 0.95443 0.04419 0.57658 0.0
Mg51 Mg 0.00098 0.02058 0.52285 0.0
O52 O 0.04467 0.07052 0.52355 0.0
O53 O 0.05644 0.11476 0.5951 0.0
O54 O 0.04708 -0.00425 0.46985 0.0
O55 O 0.9679 0.0484 0.43773 0.0
Mg56 Mg 0.97964 0.96567 0.4442 0.0
O57 O 0.95842 0.97034 0.52251 0.0
O58 O 0.03025 0.9387 0.44815 0.0
O59 O 0.96109 0.00182 0.37361 0.0
O60 O 0.93931 0.9289 0.44839 0.0
C61 C 0.04275 0.00709 0.66047 0.0
C62 C 0.94476 0.07681 0.58907 0.0
C63 C 0.06286 0.09997 0.54561 0.0
C64 C 0.05476 0.96343 0.45239 0.0
C65 C 0.95683 0.03566 0.38496 0.0
C66 C 0.93762 0.94241 0.50093 0.0
O67 O 0.0365 0.0408 0.67043 0.0
O68 O 0.0337 0.99359 0.60776 0.0
O69 O 0.53508 0.50652 0.18914 0.0
Mg70 Mg 0.52028 0.46828 0.11812 0.0
O71 O 0.52673 0.55055 0.1235 0.0
Mg72 Mg 0.4951 0.51777 0.03988 0.0
O73 O 0.54088 0.47009 0.03927 0.0
O74 O 0.56424 0.43554 0.11834 0.0
O75 O 0.4646 0.481 0.95564 0.0
O76 O 0.53568 0.54742 0.98566 0.0
Mg77 Mg 0.45341 0.54989 0.95471 0.0
O78 O 0.45411 0.56937 0.04095 0.0
O79 O 0.41349 0.5107 0.92346 0.0
O80 O 0.4964 0.55635 0.90335 0.0
O81 O 0.4296 0.5995 0.95772 0.0
C82 C 0.44695 0.4578 0.11327 0.0
C83 C 0.53761 0.54015 0.17696 0.0
C84 C 0.56413 0.44532 0.06388 0.0
C85 C 0.43267 0.48195 0.92249 0.0
C86 C 0.52925 0.5568 0.9311 0.0
C87 C 0.43572 0.59716 0.01519 0.0
O88 O 0.47356 0.43556 0.11631 0.0
O89 O 0.45139 0.49046 0.09531 0.0
C90 C 0.23407 0.20472 0.43889 0.0
C91 C 0.2612 0.20417 0.49045 0.0
C92 C 0.20171 0.18312 0.43466 0.0
C93 C 0.19616 0.16112 0.48357 0.0
C94 C 0.2247 0.15865 0.53389 0.0
C95 C 0.25698 0.18005 0.53648 0.0
C96 C 0.17241 0.18589 0.37967 0.0
C97 C 0.21992 0.1357 0.58722 0.0
C98 C 0.10133 0.15371 0.52865 0.0
C99 C 0.09269 0.11635 0.51733 0.0
C100 C 0.13388 0.16902 0.51431 0.0
C101 C 0.15857 0.14641 0.48774 0.0
C102 C 0.14869 0.10927 0.47194 0.0
C103 C 0.1156 0.09461 0.48678 0.0
C104 C 0.14306 0.20879 0.53178 0.0
C105 C 0.17388 0.08466 0.44211 0.0
H106 H 0.23748 0.22287 0.4026 0.0
H107 H 0.2781 0.17938 0.5761 0.0
H108 H 0.16 0.15847 0.36628 0.0
H109 H 0.14977 0.20419 0.38972 0.0
H110 H 0.18387 0.19746 0.34127 0.0
H111 H 0.24615 0.13336 0.61951 0.0
H112 H 0.19862 0.14854 0.61088 0.0
H113 H 0.21 0.10759 0.57253 0.0
H114 H 0.08334 0.17074 0.55146 0.0
H115 H 0.10888 0.06572 0.47784 0.0
H116 H 0.15002 0.22403 0.49297 0.0
H117 H 0.16775 0.21002 0.56754 0.0
H118 H 0.11976 0.22317 0.54851 0.0
H119 H 0.17786 0.09647 0.39866 0.0
H120 H 0.16259 0.05625 0.43395 0.0
H121 H 0.20167 0.08314 0.4703 0.0
C122 C 0.33189 0.76146 0.16556 0.0
C123 C 0.29839 0.76437 0.12579 0.0
C124 C 0.357 0.73283 0.15914 0.0
C125 C 0.34805 0.70635 0.11227 0.0
C126 C 0.3132 0.70802 0.07428 0.0
C127 C 0.28891 0.73715 0.08125 0.0
C128 C 0.39388 0.73212 0.20034 0.0
C129 C 0.30229 0.68004 0.02428 0.0
C130 C 0.41966 0.66243 0.03046 0.0
C131 C 0.42 0.62605 0.05017 0.0
C132 C 0.39851 0.68952 0.05396 0.0
C133 C 0.37648 0.6798 0.09744 0.0
C134 C 0.37866 0.64361 0.12052 0.0
C135 C 0.40076 0.61709 0.09683 0.0
C136 C 0.39772 0.72791 0.02895 0.0
C137 C 0.35556 0.63213 0.16676 0.0
H138 H 0.3391 0.78239 0.20032 0.0
H139 H 0.26274 0.73889 0.05104 0.0
H140 H 0.40021 0.70389 0.217 0.0
H141 H 0.41625 0.74022 0.17516 0.0
H142 H 0.39452 0.75131 0.23933 0.0
H143 H 0.27281 0.68286 0.00301 0.0
H144 H 0.3201 0.68357 0.98934 0.0
H145 H 0.30666 0.65165 0.04143 0.0
H146 H 0.43484 0.66938 0.99465 0.0
H147 H 0.40087 0.58885 0.11177 0.0
H148 H 0.40132 0.74887 0.06574 0.0
H149 H 0.37035 0.7328 0.0009 0.0
H150 H 0.41971 0.7321 0.00094 0.0
H151 H 0.35647 0.65347 0.2027 0.0
H152 H 0.36499 0.60547 0.1873 0.0
H153 H 0.32616 0.62903 0.14513 0.0
C154 C 0.81806 0.77921 0.53615 0.0
C155 C 0.79161 0.77863 0.57454 0.0
C156 C 0.84245 0.80912 0.53666 0.0
C157 C 0.84014 0.83942 0.57633 0.0
C158 C 0.81428 0.83846 0.61674 0.0
C159 C 0.79025 0.80798 0.61542 0.0
C160 C 0.86977 0.80885 0.49301 0.0
C161 C 0.81097 0.87019 0.65959 0.0
C162 C 0.92356 0.90246 0.5825 0.0
C163 C 0.911 0.92545 0.53451 0.0
C164 C 0.89961 0.87615 0.60105 0.0
C165 C 0.86254 0.87314 0.57067 0.0
C166 C 0.84896 0.89911 0.52653 0.0
C167 C 0.87352 0.92475 0.50861 0.0
C168 C 0.91509 0.84925 0.64867 0.0
C169 C 0.80956 0.89734 0.49354 0.0
H170 H 0.81922 0.75645 0.50477 0.0
H171 H 0.76982 0.80766 0.6453 0.0
H172 H 0.86274 0.83106 0.46004 0.0
H173 H 0.89828 0.81435 0.51701 0.0
H174 H 0.86977 0.78215 0.46816 0.0
H175 H 0.79318 0.86316 0.69334 0.0
H176 H 0.83877 0.87874 0.68325 0.0
H177 H 0.79866 0.89426 0.63413 0.0
H178 H 0.95276 0.90276 0.60184 0.0
H179 H 0.86406 0.94245 0.47109 0.0
H180 H 0.92116 0.82276 0.62697 0.0
H181 H 0.89466 0.8435 0.67878 0.0
H182 H 0.94122 0.85964 0.676 0.0
H183 H 0.80661 0.87346 0.46174 0.0
H184 H 0.80181 0.92272 0.46774 0.0
H185 H 0.7897 0.89329 0.5252 0.0
C186 C 0.6729 0.27412 0.03051 0.0
C187 C 0.69967 0.27063 0.99294 0.0
C188 C 0.65045 0.30552 0.02918 0.0
C189 C 0.65516 0.33442 0.98964 0.0
C190 C 0.68138 0.33054 0.95011 0.0
C191 C 0.70335 0.29858 0.95213 0.0
C192 C 0.62264 0.30833 0.07188 0.0
C193 C 0.68732 0.36074 0.90756 0.0
C194 C 0.5763 0.403 0.98172 0.0
C195 C 0.58998 0.42614 0.03046 0.0
C196 C 0.59855 0.37461 0.96358 0.0
C197 C 0.63512 0.36978 0.99487 0.0
C198 C 0.65014 0.3959 0.0395 0.0
C199 C 0.62721 0.42356 0.05714 0.0
C200 C 0.58156 0.34759 0.91543 0.0
C201 C 0.68913 0.39229 0.07338 0.0
H202 H 0.66992 0.25243 0.06181 0.0
H203 H 0.72407 0.29603 0.92291 0.0
H204 H 0.63094 0.33087 0.10517 0.0
H205 H 0.59477 0.3152 0.04716 0.0
H206 H 0.62045 0.28236 0.0964 0.0
H207 H 0.70486 0.35151 0.87428 0.0
H208 H 0.66034 0.37057 0.88334 0.0
H209 H 0.70116 0.3846 0.93335 0.0
H210 H 0.54729 0.40478 0.96168 0.0
H211 H 0.6376 0.44146 0.09508 0.0
H212 H 0.57353 0.32211 0.93669 0.0
H213 H 0.60182 0.33972 0.88577 0.0
H214 H 0.55634 0.35899 0.88772 0.0
H215 H 0.69009 0.36916 0.10506 0.0
H216 H 0.69847 0.41779 0.09943 0.0
H217 H 0.70898 0.38597 0.04228 0.0
C218 C 0.1992 0.90441 0.23448 0.0
C219 C 0.17311 0.89498 0.1838 0.0
C220 C 0.18777 0.91891 0.2867 0.0
C221 C 0.14943 0.92381 0.28813 0.0
C222 C 0.1231 0.91464 0.23684 0.0
C223 C 0.13525 0.90025 0.18559 0.0
C224 C 0.21659 0.92824 0.34055 0.0
C225 C 0.08186 0.91922 0.23639 0.0
C226 C 0.10076 0.9196 0.42209 0.0
C227 C 0.08831 0.956 0.42542 0.0
C228 C 0.12457 0.90938 0.38191 0.0
C229 C 0.1358 0.9362 0.34374 0.0
C230 C 0.12679 0.97376 0.35188 0.0
C231 C 0.10321 0.98332 0.39312 0.0
C232 C 0.13401 0.86914 0.37556 0.0
C233 C 0.13864 0.00321 0.31252 0.0
H234 H 0.22853 0.90064 0.23318 0.0
H235 H 0.11489 0.89239 0.14706 0.0
H236 H 0.21176 0.95624 0.35819 0.0
H237 H 0.21435 0.90858 0.37681 0.0
H238 H 0.24528 0.92693 0.32999 0.0
H239 H 0.06523 0.91236 0.19197 0.0
H240 H 0.07267 0.90106 0.2702 0.0
H241 H 0.07566 0.94804 0.24861 0.0
H242 H 0.08968 0.89853 0.44779 0.0
H243 H 0.09376 0.01154 0.3958 0.0
H244 H 0.16336 0.86574 0.36936 0.0
H245 H 0.11626 0.85715 0.33534 0.0
H246 H 0.12926 0.85321 0.41517 0.0
H247 H 0.16849 0.00031 0.30908 0.0
H248 H 0.13375 0.03139 0.32955 0.0
H249 H 0.12267 1e-05 0.26662 0.0
C250 C 0.6151 0.67447 0.70781 0.0
C251 C 0.65112 0.66679 0.69755 0.0
C252 C 0.60036 0.65684 0.75345 0.0
C253 C 0.62189 0.63017 0.78849 0.0
C254 C 0.65883 0.62327 0.77954 0.0
C255 C 0.67317 0.64199 0.73434 0.0
C256 C 0.5611 0.66556 0.76229 0.0
C257 C 0.68239 0.59459 0.81512 0.0
C258 C 0.58221 0.59931 0.9251 0.0
C259 C 0.55884 0.57053 0.90005 0.0
C260 C 0.60459 0.61809 0.8902 0.0
C261 C 0.60404 0.60704 0.82962 0.0
C262 C 0.58272 0.57596 0.806 0.0
C263 C 0.55988 0.55849 0.84124 0.0
C264 C 0.62646 0.65141 0.9167 0.0
C265 C 0.58213 0.56258 0.74223 0.0
H266 H 0.59822 0.69377 0.67922 0.0
H267 H 0.70097 0.63596 0.72581 0.0
H268 H 0.54287 0.64148 0.74794 0.0
H269 H 0.56002 0.6711 0.81039 0.0
H270 H 0.54973 0.6898 0.73618 0.0
H271 H 0.71177 0.59565 0.80785 0.0
H272 H 0.68157 0.59825 0.86368 0.0
H273 H 0.67108 0.56676 0.8016 0.0
H274 H 0.58097 0.60881 0.97047 0.0
H275 H 0.54178 0.53612 0.82211 0.0
H276 H 0.61283 0.67672 0.89708 0.0
H277 H 0.655 0.65088 0.90567 0.0
H278 H 0.6282 0.65326 0.96617 0.0
H279 H 0.56712 0.58275 0.71092 0.0
H280 H 0.56816 0.53535 0.73344 0.0
H281 H 0.61081 0.5603 0.73207 0.0
C282 C 0.82297 0.14447 0.13151 0.0
C283 C 0.84285 0.15572 0.0868 0.0
C284 C 0.84138 0.12932 0.18497 0.0
C285 C 0.88056 0.12563 0.19394 0.0
C286 C 0.90087 0.13925 0.15057 0.0
C287 C 0.88176 0.15398 0.09748 0.0
C288 C 0.8187 0.11505 0.22998 0.0
C289 C 0.94265 0.13623 0.15853 0.0
C290 C 0.93328 0.09745 0.34606 0.0
C291 C 0.93771 0.05945 0.33679 0.0
C292 C 0.91455 0.11952 0.3002 0.0
C293 C 0.89979 0.10313 0.24406 0.0
C294 C 0.90409 0.06481 0.2347 0.0
C295 C 0.92301 0.04357 0.28093 0.0
C296 C 0.91071 0.16033 0.31163 0.0
C297 C 0.88875 0.04613 0.1756 0.0
H298 H 0.7929 0.14574 0.12337 0.0
H299 H 0.89726 0.16326 0.06339 0.0
H300 H 0.81915 0.08446 0.22915 0.0
H301 H 0.83079 0.12437 0.27596 0.0
H302 H 0.78933 0.12422 0.22032 0.0
H303 H 0.95456 0.15227 0.12472 0.0
H304 H 0.95535 0.14609 0.20393 0.0
H305 H 0.95055 0.1069 0.15415 0.0
H306 H 0.94449 0.10997 0.38904 0.0
H307 H 0.92609 0.01425 0.27317 0.0
H308 H 0.88095 0.16812 0.30417 0.0
H309 H 0.92434 0.17608 0.27953 0.0
H310 H 0.92325 0.16878 0.35793 0.0
H311 H 0.85841 0.05095 0.16461 0.0
H312 H 0.89373 0.01592 0.17605 0.0
H313 H 0.90176 0.05809 0.13916 0.0
C314 C 0.40037 0.36898 0.61867 0.0
C315 C 0.36717 0.34849 0.60793 0.0
C316 C 0.41317 0.38519 0.67502 0.0
C317 C 0.39309 0.37973 0.72279 0.0
C318 C 0.36162 0.3562 0.71394 0.0
C319 C 0.34867 0.34136 0.65648 0.0
C320 C 0.44653 0.41051 0.68198 0.0
C321 C 0.34018 0.34859 0.76423 0.0
C322 C 0.43854 0.41915 0.87483 0.0
C323 C 0.42052 0.45328 0.87574 0.0
C324 C 0.42874 0.39385 0.82678 0.0
C325 C 0.40122 0.40352 0.77784 0.0
C326 C 0.38253 0.43759 0.77938 0.0
C327 C 0.39198 0.46165 0.8285 0.0
C328 C 0.44846 0.35728 0.82774 0.0
C329 C 0.3536 0.44955 0.72776 0.0
H330 H 0.41581 0.37359 0.58233 0.0
H331 H 0.32304 0.32564 0.64928 0.0
H332 H 0.43749 0.43934 0.68819 0.0
H333 H 0.46663 0.40344 0.72227 0.0
H334 H 0.46099 0.40928 0.64233 0.0
H335 H 0.32144 0.32437 0.75388 0.0
H336 H 0.3594 0.34363 0.80658 0.0
H337 H 0.32302 0.37293 0.77178 0.0
H338 H 0.46051 0.41241 0.91121 0.0
H339 H 0.37792 0.48796 0.82844 0.0
H340 H 0.46825 0.35743 0.79531 0.0
H341 H 0.42829 0.33459 0.81403 0.0
H342 H 0.46423 0.35136 0.87279 0.0
H343 H 0.36611 0.45078 0.68622 0.0
H344 H 0.34175 0.47702 0.73596 0.0
H345 H 0.33057 0.42921 0.71959 0.0
C346 C 0.60227 0.67184 0.46169 0.0
C347 C 0.64115 0.67308 0.47563 0.0
C348 C 0.58444 0.6552 0.4082 0.0
C349 C 0.606 0.6392 0.36777 0.0
C350 C 0.64522 0.64245 0.37982 0.0
C351 C 0.66233 0.65943 0.43358 0.0
C352 C 0.54258 0.65267 0.39692 0.0
C353 C 0.66925 0.6257 0.33802 0.0
C354 C 0.56648 0.55326 0.28295 0.0
C355 C 0.55424 0.56639 0.22511 0.0
C356 C 0.58326 0.57673 0.32932 0.0
C357 C 0.58797 0.61453 0.31803 0.0
C358 C 0.57544 0.62823 0.25999 0.0
C359 C 0.55873 0.60396 0.21409 0.0
C360 C 0.59614 0.56089 0.39051 0.0
C361 C 0.57984 0.66841 0.24641 0.0
H362 H 0.58575 0.68291 0.49361 0.0
H363 H 0.69238 0.66015 0.44417 0.0
H364 H 0.53143 0.66029 0.3502 0.0
H365 H 0.53394 0.62381 0.40287 0.0
H366 H 0.5298 0.67077 0.42807 0.0
H367 H 0.69866 0.63482 0.34946 0.0
H368 H 0.66833 0.59521 0.34064 0.0
H369 H 0.65867 0.63305 0.29097 0.0
H370 H 0.56318 0.52434 0.29219 0.0
H371 H 0.54936 0.61438 0.16961 0.0
H372 H 0.58197 0.57506 0.42436 0.0
H373 H 0.62642 0.56556 0.40392 0.0
H374 H 0.59052 0.53084 0.39181 0.0
H375 H 0.5658 0.68583 0.27675 0.0
H376 H 0.56816 0.67486 0.19931 0.0
H377 H 0.60969 0.6761 0.25471 0.0
C378 C 0.80316 0.13437 0.81329 0.0
C379 C 0.82891 0.14531 0.86355 0.0
C380 C 0.81503 0.11976 0.76158 0.0
C381 C 0.8535 0.11615 0.76019 0.0
C382 C 0.87954 0.12665 0.81114 0.0
C383 C 0.86693 0.14116 0.862 0.0
C384 C 0.78651 0.10877 0.7082 0.0
C385 C 0.92088 0.1234 0.81152 0.0
C386 C 0.89951 0.05678 0.65428 0.0
C387 C 0.91244 0.08397 0.61939 0.0
C388 C 0.87706 0.06626 0.69722 0.0
C389 C 0.8673 0.10366 0.70478 0.0
C390 C 0.87677 0.13032 0.66483 0.0
C391 C 0.89931 0.12014 0.62267 0.0
C392 C 0.8671 0.03691 0.7384 0.0
C393 C 0.86651 0.17039 0.67064 0.0
H394 H 0.7737 0.1371 0.81451 0.0
H395 H 0.887 0.15004 0.90028 0.0
H396 H 0.78921 0.12675 0.66995 0.0
H397 H 0.79138 0.08004 0.6938 0.0
H398 H 0.75768 0.11092 0.71788 0.0
H399 H 0.93734 0.1313 0.85561 0.0
H400 H 0.92805 0.09467 0.80033 0.0
H401 H 0.92932 0.14143 0.7769 0.0
H402 H 0.90947 0.02873 0.65177 0.0
H403 H 0.90883 0.14115 0.59509 0.0
H404 H 0.83828 0.04052 0.74728 0.0
H405 H 0.88595 0.03925 0.78201 0.0
H406 H 0.86992 0.00876 0.71953 0.0
H407 H 0.83719 0.17318 0.67739 0.0
H408 H 0.87053 0.18625 0.63058 0.0
H409 H 0.88421 0.18295 0.71041 0.0
C410 C 0.38237 0.38556 0.38557 0.0
C411 C 0.3463 0.37277 0.38719 0.0
C412 C 0.39097 0.40393 0.33558 0.0
C413 C 0.36275 0.40992 0.28584 0.0
C414 C 0.32582 0.39889 0.28845 0.0
C415 C 0.31807 0.38012 0.33895 0.0
C416 C 0.43082 0.41504 0.33473 0.0
C417 C 0.29484 0.40543 0.23698 0.0
C418 C 0.39894 0.47335 0.17712 0.0
C419 C 0.41518 0.44747 0.14262 0.0
C420 C 0.37801 0.46169 0.22056 0.0
C421 C 0.3735 0.42344 0.22923 0.0
C422 C 0.38603 0.39763 0.18933 0.0
C423 C 0.40669 0.41 0.14648 0.0
C424 C 0.3641 0.49013 0.26098 0.0
C425 C 0.38146 0.35662 0.19625 0.0
H426 H 0.40437 0.37968 0.42241 0.0
H427 H 0.29001 0.37073 0.34036 0.0
H428 H 0.44202 0.39875 0.29968 0.0
H429 H 0.43241 0.44456 0.32341 0.0
H430 H 0.4489 0.41055 0.37841 0.0
H431 H 0.26708 0.40244 0.25067 0.0
H432 H 0.29708 0.43332 0.21851 0.0
H433 H 0.29682 0.38508 0.20044 0.0
H434 H 0.4053 0.50239 0.17411 0.0
H435 H 0.41879 0.38999 0.11913 0.0
H436 H 0.38371 0.49211 0.30385 0.0
H437 H 0.33653 0.48217 0.27155 0.0
H438 H 0.362 0.5178 0.24044 0.0
H439 H 0.40037 0.34747 0.23672 0.0
H440 H 0.38806 0.34068 0.15692 0.0
H441 H 0.35269 0.34988 0.20243 0.0
C442 C 0.11702 0.89177 0.95196 0.0
C443 C 0.1557 0.88739 0.96051 0.0
C444 C 0.09797 0.90745 0.89963 0.0
C445 C 0.11812 0.9193 0.85488 0.0
C446 C 0.15696 0.91327 0.86194 0.0
C447 C 0.17529 0.89722 0.91466 0.0
C448 C 0.05652 0.91295 0.89362 0.0
C449 C 0.17945 0.92562 0.81535 0.0
C450 C 0.06461 0.9458 0.70274 0.0
C451 C 0.06174 0.98416 0.70981 0.0
C452 C 0.08299 0.92419 0.74941 0.0
C453 C 0.09917 0.94143 0.8041 0.0
C454 C 0.09655 0.98014 0.81124 0.0
C455 C 0.07776 0.00094 0.76423 0.0
C456 C 0.08487 0.88295 0.74042 0.0
C457 C 0.11358 -0.00034 0.8687 0.0
H458 H 0.10171 0.88363 0.98697 0.0
H459 H 0.2052 0.89396 0.92122 0.0
H460 H 0.05038 0.94282 0.89649 0.0
H461 H 0.04245 0.90261 0.84928 0.0
H462 H 0.04446 0.89872 0.92918 0.0
H463 H 0.20851 0.91552 0.82446 0.0
H464 H 0.16647 0.91575 0.77011 0.0
H465 H 0.18 0.95619 0.81459 0.0
H466 H 0.05227 0.93259 0.66088 0.0
H467 H 0.07592 0.03057 0.77008 0.0
H468 H 0.07113 0.86887 0.77417 0.0
H469 H 0.11424 0.87386 0.74723 0.0
H470 H 0.0713 0.87383 0.69499 0.0
H471 H 0.10073 0.98944 0.90658 0.0
H472 H 0.10994 0.03003 0.86648 0.0
H473 H 0.14372 0.99357 0.87882 0.0
loop_
_geom_bond_atom_site_label_1
_geom_bond_atom_site_label_2
_geom_bond_distance
_geom_bond_site_symmetry_2
_ccdc_geom_bond_type
H0 C5 0.930 1_556 S
H1 C8 0.930 . S
H2 C10 0.930 . S
H3 C4 1.016 . S
C4 H3 1.016 . S
C4 N11 1.286 . S
C5 H0 0.930 1_554 S
C5 C6 1.397 . S
C5 C7 1.361 . S
C6 C5 1.397 . S
C6 C10 1.390 . S
C7 C5 1.361 . S
C7 C8 1.393 . S
C7 N11 1.413 . S
C8 H1 0.930 . S
C8 C7 1.393 . S
C8 C9 1.399 . S
C9 C8 1.399 . S
C9 C10 1.381 . S
C10 H2 0.930 . S
C10 C6 1.390 . S
C10 C9 1.381 . S
N11 C4 1.286 . S
N11 C7 1.413 . S
H12 C17 0.930 . S
H13 C20 0.930 . S
H14 C22 0.930 . S
H15 C16 1.016 . S
C16 H15 1.016 . S
C16 N23 1.286 . S
C17 H12 0.930 . S
C17 C18 1.397 . S
C17 C19 1.361 . S
C18 C17 1.397 . S
C18 C22 1.390 . S
C19 C17 1.361 . S
C19 C20 1.393 . S
C19 N23 1.413 . S
C20 H13 0.930 . S
C20 C19 1.393 . S
C20 C21 1.399 . S
C21 C20 1.399 . S
C21 C22 1.381 . S
C22 H14 0.930 . S
C22 C18 1.390 . S
C22 C21 1.381 . S
N23 C16 1.286 . S
N23 C19 1.413 . S
H24 C29 0.930 . S
H25 C32 0.930 . S
H26 C34 0.930 . S
H27 C28 1.016 . S
C28 H27 1.016 . S
C28 N35 1.286 1_554 S
C29 H24 0.930 . S
C29 C30 1.397 . S
C29 C31 1.361 . S
C30 C29 1.397 . S
C30 C34 1.390 1_556 S
C31 C29 1.361 . S
C31 C32 1.393 1_556 S
C31 N35 1.413 . S
C32 H25 0.930 . S
C32 C31 1.393 1_554 S
C32 C33 1.399 . S
C33 C32 1.399 . S
C33 C34 1.381 . S
C34 H26 0.930 . S
C34 C30 1.390 1_554 S
C34 C33 1.381 . S
N35 C28 1.286 1_556 S
N35 C31 1.413 . S
H36 C41 0.930 . S
H37 C44 0.930 . S
H38 C46 0.930 . S
H39 C40 1.016 . S
C40 H39 1.016 . S
C40 N47 1.286 . S
C41 H36 0.930 . S
C41 C42 1.397 . S
C41 C43 1.361 . S
C42 C41 1.397 . S
C42 C46 1.390 . S
C43 C41 1.361 . S
C43 C44 1.393 . S
C43 N47 1.413 . S
C44 H37 0.930 . S
C44 C43 1.393 . S
C44 C45 1.399 . S
C45 C44 1.399 . S
C45 C46 1.381 . S
C46 H38 0.930 . S
C46 C42 1.390 . S
C46 C45 1.381 . S
N47 C40 1.286 . S
N47 C43 1.413 . S
O48 Mg49 1.990 . S
O48 C62 1.253 1_455 S
Mg49 O48 1.990 . S
Mg49 O52 2.180 . S
Mg49 O53 2.117 . S
Mg49 O67 2.030 . S
O50 Mg51 2.072 1_655 S
O50 C62 1.260 . S
Mg51 O50 2.072 1_455 S
Mg51 O52 2.099 . S
Mg51 O54 2.079 1_545 S
Mg51 O55 2.072 1_455 S
Mg51 O57 2.099 1_445 S
Mg51 O68 2.079 1_545 S
O52 Mg49 2.180 . S
O52 Mg51 2.099 . S
O52 C63 1.279 . S
O53 Mg49 2.117 . S
O53 C63 1.250 . S
O54 Mg51 2.079 1_565 S
O54 C64 1.264 . S
O55 Mg51 2.072 1_655 S
O55 C65 1.260 . S
Mg56 O57 2.180 . S
Mg56 O58 2.030 1_655 S
Mg56 O59 1.990 1_565 S
Mg56 O60 2.117 . S
O57 Mg51 2.099 1_665 S
O57 Mg56 2.180 . S
O57 C66 1.279 . S
O58 Mg56 2.030 1_455 S
O58 C64 1.248 . S
O59 Mg56 1.990 1_545 S
O59 C65 1.253 . S
O60 Mg56 2.117 . S
O60 C66 1.250 . S
C61 O67 1.248 1_565 S
C61 O68 1.264 . S
C62 O48 1.253 1_655 S
C62 O50 1.260 . S
C63 O52 1.279 . S
C63 O53 1.250 . S
C64 O54 1.264 . S
C64 O58 1.248 . S
C65 O55 1.260 . S
C65 O59 1.253 . S
C66 O57 1.279 . S
C66 O60 1.250 . S
O67 Mg49 2.030 . S
O67 C61 1.248 1_545 S
O68 Mg51 2.079 1_565 S
O68 C61 1.264 . S
O69 Mg70 1.990 . S
O69 C83 1.253 . S
Mg70 O69 1.990 . S
Mg70 O73 2.180 . S
Mg70 O74 2.117 . S
Mg70 O88 2.030 . S
O71 Mg72 2.072 . S
O71 C83 1.260 . S
Mg72 O71 2.072 . S
Mg72 O73 2.099 . S
Mg72 O75 2.079 1_554 S
Mg72 O76 2.072 1_554 S
Mg72 O78 2.099 . S
Mg72 O89 2.079 . S
O73 Mg70 2.180 . S
O73 Mg72 2.099 . S
O73 C84 1.279 . S
O74 Mg70 2.117 . S
O74 C84 1.250 . S
O75 Mg72 2.079 1_556 S
O75 C85 1.264 . S
O76 Mg72 2.072 1_556 S
O76 C86 1.260 . S
Mg77 O78 2.180 1_556 S
Mg77 O79 2.030 . S
Mg77 O80 1.990 . S
Mg77 O81 2.117 . S
O78 Mg72 2.099 . S
O78 Mg77 2.180 1_554 S
O78 C87 1.279 . S
O79 Mg77 2.030 . S
O79 C85 1.248 . S
O80 Mg77 1.990 . S
O80 C86 1.253 . S
O81 Mg77 2.117 . S
O81 C87 1.250 1_556 S
C82 O88 1.248 . S
C82 O89 1.264 . S
C83 O69 1.253 . S
C83 O71 1.260 . S
C84 O73 1.279 . S
C84 O74 1.250 . S
C85 O75 1.264 . S
C85 O79 1.248 . S
C86 O76 1.260 . S
C86 O80 1.253 . S
C87 O78 1.279 . S
C87 O81 1.250 1_554 S
O88 Mg70 2.030 . S
O88 C82 1.248 . S
O89 Mg72 2.079 . S
O89 C82 1.264 . S
C90 C91 1.391 . S
C90 C92 1.394 . S
C90 H106 0.931 . S
C91 C90 1.391 . S
C91 C95 1.376 . S
C92 C90 1.394 . S
C92 C93 1.369 . S
C92 C96 1.531 . S
C93 C92 1.369 . S
C93 C94 1.410 . S
C93 C101 1.503 . S
C94 C93 1.410 . S
C94 C95 1.392 . S
C94 C97 1.511 . S
C95 C91 1.376 . S
C95 C94 1.392 . S
C95 H107 0.929 . S
C96 C92 1.531 . S
C96 H108 0.960 . S
C96 H109 0.962 . S
C96 H110 0.960 . S
C97 C94 1.511 . S
C97 H111 0.961 . S
C97 H112 0.961 . S
C97 H113 0.961 . S
C98 C99 1.370 . S
C98 C100 1.363 . S
C98 H114 0.931 . S
C99 C98 1.370 . S
C99 C103 1.408 . S
C100 C98 1.363 . S
C100 C101 1.370 . S
C100 C104 1.524 . S
C101 C93 1.503 . S
C101 C100 1.370 . S
C101 C102 1.403 . S
C102 C101 1.403 . S
C102 C103 1.404 . S
C102 C105 1.539 . S
C103 C99 1.408 . S
C103 C102 1.404 . S
C103 H115 0.930 . S
C104 C100 1.524 . S
C104 H116 0.956 . S
C104 H117 0.961 . S
C104 H118 0.961 . S
C105 C102 1.539 . S
C105 H119 0.958 . S
C105 H120 0.961 . S
C105 H121 0.960 . S
H106 C90 0.931 . S
H107 C95 0.929 . S
H108 C96 0.960 . S
H109 C96 0.962 . S
H110 C96 0.960 . S
H111 C97 0.961 . S
H112 C97 0.961 . S
H113 C97 0.961 . S
H114 C98 0.931 . S
H115 C103 0.930 . S
H116 C104 0.956 . S
H117 C104 0.961 . S
H118 C104 0.961 . S
H119 C105 0.958 . S
H120 C105 0.961 . S
H121 C105 0.960 . S
C122 C123 1.391 . S
C122 C124 1.394 . S
C122 H138 0.931 . S
C123 C122 1.391 . S
C123 C127 1.376 . S
C124 C122 1.394 . S
C124 C125 1.369 . S
C124 C128 1.531 . S
C125 C124 1.369 . S
C125 C126 1.410 . S
C125 C133 1.503 . S
C126 C125 1.410 . S
C126 C127 1.392 . S
C126 C129 1.511 . S
C127 C123 1.376 . S
C127 C126 1.392 . S
C127 H139 0.929 . S
C128 C124 1.531 . S
C128 H140 0.960 . S
C128 H141 0.962 . S
C128 H142 0.960 . S
C129 C126 1.511 . S
C129 H143 0.961 . S
C129 H144 0.961 . S
C129 H145 0.961 . S
C130 C131 1.370 . S
C130 C132 1.363 . S
C130 H146 0.931 1_554 S
C131 C130 1.370 . S
C131 C135 1.408 . S
C132 C130 1.363 . S
C132 C133 1.370 . S
C132 C136 1.524 1_554 S
C133 C125 1.503 . S
C133 C132 1.370 . S
C133 C134 1.403 . S
C134 C133 1.403 . S
C134 C135 1.404 . S
C134 C137 1.539 . S
C135 C131 1.408 . S
C135 C134 1.404 . S
C135 H147 0.930 . S
C136 C132 1.524 1_556 S
C136 H148 0.958 . S
C136 H149 0.961 . S
C136 H150 0.961 . S
C137 C134 1.539 . S
C137 H151 0.958 . S
C137 H152 0.961 . S
C137 H153 0.960 . S
H138 C122 0.931 . S
H139 C127 0.929 . S
H140 C128 0.960 . S
H141 C128 0.962 . S
H142 C128 0.960 . S
H143 C129 0.961 . S
H144 C129 0.961 . S
H145 C129 0.961 . S
H146 C130 0.931 1_556 S
H147 C135 0.930 . S
H148 C136 0.958 . S
H149 C136 0.961 . S
H150 C136 0.961 . S
H151 C137 0.958 . S
H152 C137 0.961 . S
H153 C137 0.960 . S
C154 C155 1.391 . S
C154 C156 1.394 . S
C154 H170 0.931 . S
C155 C154 1.391 . S
C155 C159 1.376 . S
C156 C154 1.394 . S
C156 C157 1.369 . S
C156 C160 1.531 . S
C157 C156 1.369 . S
C157 C158 1.410 . S
C157 C165 1.503 . S
C158 C157 1.410 . S
C158 C159 1.392 . S
C158 C161 1.511 . S
C159 C155 1.376 . S
C159 C158 1.392 . S
C159 H171 0.929 . S
C160 C156 1.531 . S
C160 H172 0.960 . S
C160 H173 0.962 . S
C160 H174 0.960 . S
C161 C158 1.511 . S
C161 H175 0.961 . S
C161 H176 0.961 . S
C161 H177 0.961 . S
C162 C163 1.370 . S
C162 C164 1.363 . S
C162 H178 0.931 . S
C163 C162 1.370 . S
C163 C167 1.408 . S
C164 C162 1.363 . S
C164 C165 1.370 . S
C164 C168 1.524 . S
C165 C157 1.503 . S
C165 C164 1.370 . S
C165 C166 1.403 . S
C166 C165 1.403 . S
C166 C167 1.404 . S
C166 C169 1.539 . S
C167 C163 1.408 . S
C167 C166 1.404 . S
C167 H179 0.930 . S
C168 C164 1.524 . S
C168 H180 0.956 . S
C168 H181 0.961 . S
C168 H182 0.961 . S
C169 C166 1.539 . S
C169 H183 0.958 . S
C169 H184 0.961 . S
C169 H185 0.960 . S
H170 C154 0.931 . S
H171 C159 0.929 . S
H172 C160 0.960 . S
H173 C160 0.962 . S
H174 C160 0.960 . S
H175 C161 0.961 . S
H176 C161 0.961 . S
H177 C161 0.961 . S
H178 C162 0.931 . S
H179 C167 0.930 . S
H180 C168 0.956 . S
H181 C168 0.961 . S
H182 C168 0.961 . S
H183 C169 0.958 . S
H184 C169 0.961 . S
H185 C169 0.960 . S
C186 C187 1.391 . S
C186 C188 1.394 . S
C186 H202 0.931 . S
C187 C186 1.391 . S
C187 C191 1.376 . S
C188 C186 1.394 . S
C188 C189 1.369 . S
C188 C192 1.531 . S
C189 C188 1.369 . S
C189 C190 1.410 . S
C189 C197 1.503 . S
C190 C189 1.410 . S
C190 C191 1.392 . S
C190 C193 1.511 . S
C191 C187 1.376 . S
C191 C190 1.392 . S
C191 H203 0.929 . S
C192 C188 1.531 . S
C192 H204 0.960 . S
C192 H205 0.962 1_554 S
C192 H206 0.960 . S
C193 C190 1.511 . S
C193 H207 0.961 . S
C193 H208 0.961 . S
C193 H209 0.961 . S
C194 C195 1.370 1_556 S
C194 C196 1.363 . S
C194 H210 0.931 . S
C195 C194 1.370 1_554 S
C195 C199 1.408 . S
C196 C194 1.363 . S
C196 C197 1.370 1_556 S
C196 C200 1.524 . S
C197 C189 1.503 . S
C197 C196 1.370 1_554 S
C197 C198 1.403 . S
C198 C197 1.403 . S
C198 C199 1.404 . S
C198 C201 1.539 . S
C199 C195 1.408 . S
C199 C198 1.404 . S
C199 H211 0.930 . S
C200 C196 1.524 . S
C200 H212 0.956 . S
C200 H213 0.961 . S
C200 H214 0.961 . S
C201 C198 1.539 . S
C201 H215 0.958 . S
C201 H216 0.961 . S
C201 H217 0.960 . S
H202 C186 0.931 . S
H203 C191 0.929 . S
H204 C192 0.960 . S
H205 C192 0.962 1_556 S
H206 C192 0.960 . S
H207 C193 0.961 . S
H208 C193 0.961 . S
H209 C193 0.961 . S
H210 C194 0.931 . S
H211 C199 0.930 . S
H212 C200 0.956 . S
H213 C200 0.961 . S
H214 C200 0.961 . S
H215 C201 0.958 . S
H216 C201 0.961 . S
H217 C201 0.960 . S
C218 C219 1.391 . S
C218 C220 1.394 . S
C218 H234 0.931 . S
C219 C218 1.391 . S
C219 C223 1.376 . S
C220 C218 1.394 . S
C220 C221 1.369 . S
C220 C224 1.531 . S
C221 C220 1.369 . S
C221 C222 1.410 . S
C221 C229 1.503 . S
C222 C221 1.410 . S
C222 C223 1.392 . S
C222 C225 1.511 . S
C223 C219 1.376 . S
C223 C222 1.392 . S
C223 H235 0.929 . S
C224 C220 1.531 . S
C224 H236 0.960 . S
C224 H237 0.962 . S
C224 H238 0.960 . S
C225 C222 1.511 . S
C225 H239 0.961 . S
C225 H240 0.961 . S
C225 H241 0.961 . S
C226 C227 1.370 . S
C226 C228 1.363 . S
C226 H242 0.931 . S
C227 C226 1.370 . S
C227 C231 1.408 . S
C228 C226 1.363 . S
C228 C229 1.370 . S
C228 C232 1.524 . S
C229 C221 1.503 . S
C229 C228 1.370 . S
C229 C230 1.403 . S
C230 C229 1.403 . S
C230 C231 1.404 . S
C230 C233 1.539 . S
C231 C227 1.408 . S
C231 C230 1.404 . S
C231 H243 0.930 . S
C232 C228 1.524 . S
C232 H244 0.956 . S
C232 H245 0.961 . S
C232 H246 0.961 . S
C233 C230 1.539 . S
C233 H247 0.958 . S
C233 H248 0.961 . S
C233 H249 0.960 . S
H234 C218 0.931 . S
H235 C223 0.929 . S
H236 C224 0.960 . S
H237 C224 0.962 . S
H238 C224 0.960 . S
H239 C225 0.961 . S
H240 C225 0.961 . S
H241 C225 0.961 . S
H242 C226 0.931 . S
H243 C231 0.930 . S
H244 C232 0.956 . S
H245 C232 0.961 . S
H246 C232 0.961 . S
H247 C233 0.958 . S
H248 C233 0.961 . S
H249 C233 0.960 . S
C250 C251 1.391 . S
C250 C252 1.394 . S
C250 H266 0.931 . S
C251 C250 1.391 . S
C251 C255 1.376 . S
C252 C250 1.394 . S
C252 C253 1.369 . S
C252 C256 1.531 . S
C253 C252 1.369 . S
C253 C254 1.410 . S
C253 C261 1.503 . S
C254 C253 1.410 . S
C254 C255 1.392 . S
C254 C257 1.511 . S
C255 C251 1.376 . S
C255 C254 1.392 . S
C255 H267 0.929 . S
C256 C252 1.531 . S
C256 H268 0.960 . S
C256 H269 0.962 . S
C256 H270 0.960 . S
C257 C254 1.511 . S
C257 H271 0.961 . S
C257 H272 0.961 . S
C257 H273 0.961 . S
C258 C259 1.370 . S
C258 C260 1.363 . S
C258 H274 0.931 . S
C259 C258 1.370 . S
C259 C263 1.408 . S
C260 C258 1.363 . S
C260 C261 1.370 . S
C260 C264 1.524 . S
C261 C253 1.503 . S
C261 C260 1.370 . S
C261 C262 1.403 . S
C262 C261 1.403 . S
C262 C263 1.404 . S
C262 C265 1.539 . S
C263 C259 1.408 . S
C263 C262 1.404 . S
C263 H275 0.930 . S
C264 C260 1.524 . S
C264 H276 0.956 . S
C264 H277 0.961 . S
C264 H278 0.961 . S
C265 C262 1.539 . S
C265 H279 0.958 . S
C265 H280 0.961 . S
C265 H281 0.960 . S
H266 C250 0.931 . S
H267 C255 0.929 . S
H268 C256 0.960 . S
H269 C256 0.962 . S
H270 C256 0.960 . S
H271 C257 0.961 . S
H272 C257 0.961 . S
H273 C257 0.961 . S
H274 C258 0.931 . S
H275 C263 0.930 . S
H276 C264 0.956 . S
H277 C264 0.961 . S
H278 C264 0.961 . S
H279 C265 0.958 . S
H280 C265 0.961 . S
H281 C265 0.960 . S
C282 C283 1.391 . S
C282 C284 1.394 . S
C282 H298 0.931 . S
C283 C282 1.391 . S
C283 C287 1.376 . S
C284 C282 1.394 . S
C284 C285 1.369 . S
C284 C288 1.531 . S
C285 C284 1.369 . S
C285 C286 1.410 . S
C285 C293 1.503 . S
C286 C285 1.410 . S
C286 C287 1.392 . S
C286 C289 1.511 . S
C287 C283 1.376 . S
C287 C286 1.392 . S
C287 H299 0.929 . S
C288 C284 1.531 . S
C288 H300 0.960 . S
C288 H301 0.962 . S
C288 H302 0.960 . S
C289 C286 1.511 . S
C289 H303 0.961 . S
C289 H304 0.961 . S
C289 H305 0.961 . S
C290 C291 1.370 . S
C290 C292 1.363 . S
C290 H306 0.931 . S
C291 C290 1.370 . S
C291 C295 1.408 . S
C292 C290 1.363 . S
C292 C293 1.370 . S
C292 C296 1.524 . S
C293 C285 1.503 . S
C293 C292 1.370 . S
C293 C294 1.403 . S
C294 C293 1.403 . S
C294 C295 1.404 . S
C294 C297 1.539 . S
C295 C291 1.408 . S
C295 C294 1.404 . S
C295 H307 0.930 . S
C296 C292 1.524 . S
C296 H308 0.956 . S
C296 H309 0.961 . S
C296 H310 0.961 . S
C297 C294 1.539 . S
C297 H311 0.958 . S
C297 H312 0.961 . S
C297 H313 0.960 . S
H298 C282 0.931 . S
H299 C287 0.929 . S
H300 C288 0.960 . S
H301 C288 0.962 . S
H302 C288 0.960 . S
H303 C289 0.961 . S
H304 C289 0.961 . S
H305 C289 0.961 . S
H306 C290 0.931 . S
H307 C295 0.930 . S
H308 C296 0.956 . S
H309 C296 0.961 . S
H310 C296 0.961 . S
H311 C297 0.958 . S
H312 C297 0.961 . S
H313 C297 0.960 . S
C314 C315 1.391 . S
C314 C316 1.394 . S
C314 H330 0.931 . S
C315 C314 1.391 . S
C315 C319 1.376 . S
C316 C314 1.394 . S
C316 C317 1.369 . S
C316 C320 1.531 . S
C317 C316 1.369 . S
C317 C318 1.410 . S
C317 C325 1.503 . S
C318 C317 1.410 . S
C318 C319 1.392 . S
C318 C321 1.511 . S
C319 C315 1.376 . S
C319 C318 1.392 . S
C319 H331 0.929 . S
C320 C316 1.531 . S
C320 H332 0.960 . S
C320 H333 0.962 . S
C320 H334 0.960 . S
C321 C318 1.511 . S
C321 H335 0.961 . S
C321 H336 0.961 . S
C321 H337 0.961 . S
C322 C323 1.370 . S
C322 C324 1.363 . S
C322 H338 0.931 . S
C323 C322 1.370 . S
C323 C327 1.408 . S
C324 C322 1.363 . S
C324 C325 1.370 . S
C324 C328 1.524 . S
C325 C317 1.503 . S
C325 C324 1.370 . S
C325 C326 1.403 . S
C326 C325 1.403 . S
C326 C327 1.404 . S
C326 C329 1.539 . S
C327 C323 1.408 . S
C327 C326 1.404 . S
C327 H339 0.930 . S
C328 C324 1.524 . S
C328 H340 0.956 . S
C328 H341 0.961 . S
C328 H342 0.961 . S
C329 C326 1.539 . S
C329 H343 0.958 . S
C329 H344 0.961 . S
C329 H345 0.960 . S
H330 C314 0.931 . S
H331 C319 0.929 . S
H332 C320 0.960 . S
H333 C320 0.962 . S
H334 C320 0.960 . S
H335 C321 0.961 . S
H336 C321 0.961 . S
H337 C321 0.961 . S
H338 C322 0.931 . S
H339 C327 0.930 . S
H340 C328 0.956 . S
H341 C328 0.961 . S
H342 C328 0.961 . S
H343 C329 0.958 . S
H344 C329 0.961 . S
H345 C329 0.960 . S
C346 C347 1.391 . S
C346 C348 1.394 . S
C346 H362 0.931 . S
C347 C346 1.391 . S
C347 C351 1.376 . S
C348 C346 1.394 . S
C348 C349 1.369 . S
C348 C352 1.531 . S
C349 C348 1.369 . S
C349 C350 1.410 . S
C349 C357 1.503 . S
C350 C349 1.410 . S
C350 C351 1.392 . S
C350 C353 1.511 . S
C351 C347 1.376 . S
C351 C350 1.392 . S
C351 H363 0.929 . S
C352 C348 1.531 . S
C352 H364 0.960 . S
C352 H365 0.962 . S
C352 H366 0.960 . S
C353 C350 1.511 . S
C353 H367 0.961 . S
C353 H368 0.961 . S
C353 H369 0.961 . S
C354 C355 1.370 . S
C354 C356 1.363 . S
C354 H370 0.931 . S
C355 C354 1.370 . S
C355 C359 1.408 . S
C356 C354 1.363 . S
C356 C357 1.370 . S
C356 C360 1.524 . S
C357 C349 1.503 . S
C357 C356 1.370 . S
C357 C358 1.403 . S
C358 C357 1.403 . S
C358 C359 1.404 . S
C358 C361 1.539 . S
C359 C355 1.408 . S
C359 C358 1.404 . S
C359 H371 0.930 . S
C360 C356 1.524 . S
C360 H372 0.956 . S
C360 H373 0.961 . S
C360 H374 0.961 . S
C361 C358 1.539 . S
C361 H375 0.958 . S
C361 H376 0.961 . S
C361 H377 0.960 . S
H362 C346 0.931 . S
H363 C351 0.929 . S
H364 C352 0.960 . S
H365 C352 0.962 . S
H366 C352 0.960 . S
H367 C353 0.961 . S
H368 C353 0.961 . S
H369 C353 0.961 . S
H370 C354 0.931 . S
H371 C359 0.930 . S
H372 C360 0.956 . S
H373 C360 0.961 . S
H374 C360 0.961 . S
H375 C361 0.958 . S
H376 C361 0.961 . S
H377 C361 0.960 . S
C378 C379 1.391 . S
C378 C380 1.394 . S
C378 H394 0.931 . S
C379 C378 1.391 . S
C379 C383 1.376 . S
C380 C378 1.394 . S
C380 C381 1.369 . S
C380 C384 1.531 . S
C381 C380 1.369 . S
C381 C382 1.410 . S
C381 C389 1.503 . S
C382 C381 1.410 . S
C382 C383 1.392 . S
C382 C385 1.511 . S
C383 C379 1.376 . S
C383 C382 1.392 . S
C383 H395 0.929 . S
C384 C380 1.531 . S
C384 H396 0.960 . S
C384 H397 0.962 . S
C384 H398 0.960 . S
C385 C382 1.511 . S
C385 H399 0.961 . S
C385 H400 0.961 . S
C385 H401 0.961 . S
C386 C387 1.370 . S
C386 C388 1.363 . S
C386 H402 0.931 . S
C387 C386 1.370 . S
C387 C391 1.408 . S
C388 C386 1.363 . S
C388 C389 1.370 . S
C388 C392 1.524 . S
C389 C381 1.503 . S
C389 C388 1.370 . S
C389 C390 1.403 . S
C390 C389 1.403 . S
C390 C391 1.404 . S
C390 C393 1.539 . S
C391 C387 1.408 . S
C391 C390 1.404 . S
C391 H403 0.930 . S
C392 C388 1.524 . S
C392 H404 0.956 . S
C392 H405 0.961 . S
C392 H406 0.961 . S
C393 C390 1.539 . S
C393 H407 0.958 . S
C393 H408 0.961 . S
C393 H409 0.960 . S
H394 C378 0.931 . S
H395 C383 0.929 . S
H396 C384 0.960 . S
H397 C384 0.962 . S
H398 C384 0.960 . S
H399 C385 0.961 . S
H400 C385 0.961 . S
H401 C385 0.961 . S
H402 C386 0.931 . S
H403 C391 0.930 . S
H404 C392 0.956 . S
H405 C392 0.961 . S
H406 C392 0.961 . S
H407 C393 0.958 . S
H408 C393 0.961 . S
H409 C393 0.960 . S
C410 C411 1.391 . S
C410 C412 1.394 . S
C410 H426 0.931 . S
C411 C410 1.391 . S
C411 C415 1.376 . S
C412 C410 1.394 . S
C412 C413 1.369 . S
C412 C416 1.531 . S
C413 C412 1.369 . S
C413 C414 1.410 . S
C413 C421 1.503 . S
C414 C413 1.410 . S
C414 C415 1.392 . S
C414 C417 1.511 . S
C415 C411 1.376 . S
C415 C414 1.392 . S
C415 H427 0.929 . S
C416 C412 1.531 . S
C416 H428 0.960 . S
C416 H429 0.962 . S
C416 H430 0.960 . S
C417 C414 1.511 . S
C417 H431 0.961 . S
C417 H432 0.961 . S
C417 H433 0.961 . S
C418 C419 1.370 . S
C418 C420 1.363 . S
C418 H434 0.931 . S
C419 C418 1.370 . S
C419 C423 1.408 . S
C420 C418 1.363 . S
C420 C421 1.370 . S
C420 C424 1.524 . S
C421 C413 1.503 . S
C421 C420 1.370 . S
C421 C422 1.403 . S
C422 C421 1.403 . S
C422 C423 1.404 . S
C422 C425 1.539 . S
C423 C419 1.408 . S
C423 C422 1.404 . S
C423 H435 0.930 . S
C424 C420 1.524 . S
C424 H436 0.956 . S
C424 H437 0.961 . S
C424 H438 0.961 . S
C425 C422 1.539 . S
C425 H439 0.958 . S
C425 H440 0.961 . S
C425 H441 0.960 . S
H426 C410 0.931 . S
H427 C415 0.929 . S
H428 C416 0.960 . S
H429 C416 0.962 . S
H430 C416 0.960 . S
H431 C417 0.961 . S
H432 C417 0.961 . S
H433 C417 0.961 . S
H434 C418 0.931 . S
H435 C423 0.930 . S
H436 C424 0.956 . S
H437 C424 0.961 . S
H438 C424 0.961 . S
H439 C425 0.958 . S
H440 C425 0.961 . S
H441 C425 0.960 . S
C442 C443 1.391 . S
C442 C444 1.394 . S
C442 H458 0.931 . S
C443 C442 1.391 . S
C443 C447 1.376 . S
C444 C442 1.394 . S
C444 C445 1.369 . S
C444 C448 1.531 . S
C445 C444 1.369 . S
C445 C446 1.410 . S
C445 C453 1.503 . S
C446 C445 1.410 . S
C446 C447 1.392 . S
C446 C449 1.511 . S
C447 C443 1.376 . S
C447 C446 1.392 . S
C447 H459 0.929 . S
C448 C444 1.531 . S
C448 H460 0.960 . S
C448 H461 0.962 . S
C448 H462 0.960 . S
C449 C446 1.511 . S
C449 H463 0.961 . S
C449 H464 0.961 . S
C449 H465 0.961 . S
C450 C451 1.370 . S
C450 C452 1.363 . S
C450 H466 0.931 . S
C451 C450 1.370 . S
C451 C455 1.408 . S
C452 C450 1.363 . S
C452 C453 1.370 . S
C452 C456 1.524 . S
C453 C445 1.503 . S
C453 C452 1.370 . S
C453 C454 1.403 . S
C454 C453 1.403 . S
C454 C455 1.404 . S
C454 C457 1.539 1_565 S
C455 C451 1.408 . S
C455 C454 1.404 . S
C455 H467 0.930 1_565 S
C456 C452 1.524 . S
C456 H468 0.956 . S
C456 H469 0.961 . S
C456 H470 0.961 . S
C457 C454 1.539 1_545 S
C457 H471 0.958 . S
C457 H472 0.961 . S
C457 H473 0.960 1_545 S
H458 C442 0.931 . S
H459 C447 0.929 . S
H460 C448 0.960 . S
H461 C448 0.962 . S
H462 C448 0.960 . S
H463 C449 0.961 . S
H464 C449 0.961 . S
H465 C449 0.961 . S
H466 C450 0.931 . S
H467 C455 0.930 1_545 S
H468 C456 0.956 . S
H469 C456 0.961 . S
H470 C456 0.961 . S
H471 C457 0.958 . S
H472 C457 0.961 . S
H473 C457 0.960 1_565 S
C99 C63 1.263 . S
C91 C40 1.440 . S
C123 C4 1.475 . S
C131 C87 1.308 . S
C155 C16 1.572 . S
C163 C66 1.383 . S
C187 C28 1.571 . S
C195 C84 1.364 . S
C227 C64 1.484 . S
C219 C9 1.480 . S
C259 C86 1.548 . S
C251 C18 1.598 . S
C283 C33 1.576 . S
C291 C65 1.542 . S
C315 C45 1.494 . S
C323 C85 1.448 . S
C355 C83 1.481 . S
C347 C21 1.537 . S
C387 C62 1.476 . S
C379 C30 1.546 . S
C419 C82 1.427 . S
C411 C42 1.464 . S
C443 C6 1.461 1_556 S
C451 C61 1.392 . S
