# Generated by pormake.
# Topology zzz, (3,6)-cn, num edge types: 1
# Building blocks:
#     Node 0, Type 0, BuildingBlock: ESEHIV_clean_linker_0, # of connection points: 3
#     Node 1, Type 0, BuildingBlock: ESEHIV_clean_linker_0, # of connection points: 3
#     Node 2, Type 0, BuildingBlock: ESEHIV_clean_linker_0, # of connection points: 3
#     Node 3, Type 0, BuildingBlock: ESEHIV_clean_linker_0, # of connection points: 3
#     Node 4, Type 0, BuildingBlock: ESEHIV_clean_linker_0, # of connection points: 3
#     Node 5, Type 0, BuildingBlock: ESEHIV_clean_linker_0, # of connection points: 3
#     Node 6, Type 0, BuildingBlock: ESEHIV_clean_linker_0, # of connection points: 3
#     Node 7, Type 0, BuildingBlock: ESEHIV_clean_linker_0, # of connection points: 3
#     Node 8, Type 1, BuildingBlock: LEVNOQ01_clean_sbu_1, # of connection points: 6
#     Node 9, Type 1, BuildingBlock: LEVNOQ01_clean_sbu_1, # of connection points: 6
#     Node 10, Type 1, BuildingBlock: LEVNOQ01_clean_sbu_1, # of connection points: 6
#     Node 11, Type 1, BuildingBlock: LEVNOQ01_clean_sbu_1, # of connection points: 6
#     Edge 12, Type (0, 1), BuildingBlock: TEMPAE_clean_linker_10, # of connection points: 2
#     Edge 13, Type (0, 1), BuildingBlock: TEMPAE_clean_linker_10, # of connection points: 2
#     Edge 14, Type (0, 1), BuildingBlock: TEMPAE_clean_linker_10, # of connection points: 2
#     Edge 15, Type (0, 1), BuildingBlock: TEMPAE_clean_linker_10, # of connection points: 2
#     Edge 16, Type (0, 1), BuildingBlock: TEMPAE_clean_linker_10, # of connection points: 2
#     Edge 17, Type (0, 1), BuildingBlock: TEMPAE_clean_linker_10, # of connection points: 2
#     Edge 18, Type (0, 1), BuildingBlock: TEMPAE_clean_linker_10, # of connection points: 2
#     Edge 19, Type (0, 1), BuildingBlock: TEMPAE_clean_linker_10, # of connection points: 2
#     Edge 20, Type (0, 1), BuildingBlock: TEMPAE_clean_linker_10, # of connection points: 2
#     Edge 21, Type (0, 1), BuildingBlock: TEMPAE_clean_linker_10, # of connection points: 2
#     Edge 22, Type (0, 1), BuildingBlock: TEMPAE_clean_linker_10, # of connection points: 2
#     Edge 23, Type (0, 1), BuildingBlock: TEMPAE_clean_linker_10, # of connection points: 2
#     Edge 24, Type (0, 1), BuildingBlock: TEMPAE_clean_linker_10, # of connection points: 2
#     Edge 25, Type (0, 1), BuildingBlock: TEMPAE_clean_linker_10, # of connection points: 2
#     Edge 26, Type (0, 1), BuildingBlock: TEMPAE_clean_linker_10, # of connection points: 2
#     Edge 27, Type (0, 1), BuildingBlock: TEMPAE_clean_linker_10, # of connection points: 2
#     Edge 28, Type (0, 1), BuildingBlock: TEMPAE_clean_linker_10, # of connection points: 2
#     Edge 29, Type (0, 1), BuildingBlock: TEMPAE_clean_linker_10, # of connection points: 2
#     Edge 30, Type (0, 1), BuildingBlock: TEMPAE_clean_linker_10, # of connection points: 2
#     Edge 31, Type (0, 1), BuildingBlock: TEMPAE_clean_linker_10, # of connection points: 2
#     Edge 32, Type (0, 1), BuildingBlock: TEMPAE_clean_linker_10, # of connection points: 2
#     Edge 33, Type (0, 1), BuildingBlock: TEMPAE_clean_linker_10, # of connection points: 2
#     Edge 34, Type (0, 1), BuildingBlock: TEMPAE_clean_linker_10, # of connection points: 2
#     Edge 35, Type (0, 1), BuildingBlock: TEMPAE_clean_linker_10, # of connection points: 2
# Relax obj value: 0.307
# Max RMSD: 0.219
# Mean RMSD: 0.206
data_MOF--net-zzz--node1-LEVNOQ01_clean_sbu_1--node2-ESEHIV_clean_linker_0--edge1-TEMPAE_clean_linker_10
_symmetry_space_group_name_H-M    P1
_symmetry_Int_Tables_number       1
_symmetry_cell_setting            triclinic
loop_
_symmetry_equiv_pos_as_xyz
'x, y, z'
_cell_length_a     42.520953
_cell_length_b     45.010515
_cell_length_c     16.379834
_cell_angle_alpha  89.975351
_cell_angle_beta   89.907977
_cell_angle_gamma 88.392264
loop_
_atom_site_label
_atom_site_type_symbol
_atom_site_fract_x
_atom_site_fract_y
_atom_site_fract_z
_atom_type_partial_charge
H0 H 0.81881 0.63092 0.18089 0.0
H1 H 0.7365 0.62855 0.034 0.0
H2 H 0.73092 0.60633 0.28846 0.0
C3 C 0.79332 0.63028 0.17791 0.0
C4 C 0.77656 0.62075 0.2465 0.0
C5 C 0.77943 0.63041 0.10087 0.0
C6 C 0.74687 0.62898 0.09453 0.0
C7 C 0.72886 0.6207 0.1621 0.0
C8 C 0.74399 0.61551 0.23802 0.0
H9 H 0.9801 0.8065 0.22934 0.0
H10 H 0.97901 0.73559 0.05533 0.0
H11 H 0.99216 0.71611 0.31159 0.0
C12 C 0.98038 0.78284 0.21611 0.0
C13 C 0.98555 0.76265 0.27977 0.0
C14 C 0.97845 0.77336 0.1354 0.0
C15 C 0.98009 0.743 0.11829 0.0
C16 C 0.98425 0.72213 0.1815 0.0
C17 C 0.98761 0.73194 0.2629 0.0
H18 H 0.69086 0.86932 0.22501 0.0
H19 H 0.76119 0.8718 0.03762 0.0
H20 H 0.76959 0.92516 0.25364 0.0
C21 C 0.71339 0.87621 0.20229 0.0
C22 C 0.72899 0.89727 0.24884 0.0
C23 C 0.72174 0.87149 0.12022 0.0
C24 C 0.75267 0.87798 0.09778 0.0
C25 C 0.77052 0.89725 0.14565 0.0
C26 C 0.75813 0.90757 0.22097 0.0
H27 H 0.4903 0.69652 0.24113 0.0
H28 H 0.50557 0.78652 0.31857 0.0
H29 H 0.50889 0.76277 0.06245 0.0
C30 C 0.49489 0.71958 0.2268 0.0
C31 C 0.49935 0.72755 0.14587 0.0
C32 C 0.49664 0.74048 0.28959 0.0
C33 C 0.50368 0.77016 0.27049 0.0
C34 C 0.50838 0.77823 0.18789 0.0
C35 C 0.50571 0.75678 0.12607 0.0
H36 H 0.18794 0.39308 0.22941 0.0
H37 H 0.26553 0.37973 0.39201 0.0
H38 H 0.28156 0.40558 0.14159 0.0
C39 C 0.21309 0.3906 0.23901 0.0
C40 C 0.23312 0.39736 0.1743 0.0
C41 C 0.22435 0.38453 0.31752 0.0
C42 C 0.25678 0.38366 0.33067 0.0
C43 C 0.27778 0.39118 0.26793 0.0
C44 C 0.2658 0.39859 0.18946 0.0
H45 H 0.9984 0.19614 0.21974 0.0
H46 H 0.00728 0.2639 0.4002 0.0
H47 H 0.03428 0.28116 0.15016 0.0
C48 C 0.0048 0.21863 0.23541 0.0
C49 C 0.01678 0.23719 0.17516 0.0
C50 C 1.00117 0.22827 0.31564 0.0
C51 C 0.01032 0.25657 0.33747 0.0
C52 C 0.02217 0.27592 0.27838 0.0
C53 C 0.02549 0.26629 0.19636 0.0
H54 H 0.32111 0.12642 0.21839 0.0
H55 H 0.25091 0.1198 0.40184 0.0
H56 H 0.22542 0.11051 0.14946 0.0
C57 C 0.29623 0.12648 0.23377 0.0
C58 C 0.27432 0.12039 0.17276 0.0
C59 C 0.28816 0.12353 0.31552 0.0
C60 C 0.25661 0.12267 0.33774 0.0
C61 C 0.23318 0.11939 0.27835 0.0
C62 C 0.24242 0.11663 0.19522 0.0
H63 H 0.52607 0.30844 0.19631 0.0
H64 H 0.48398 0.22307 0.16813 0.0
H65 H 0.52252 0.24904 0.40017 0.0
C66 C 0.52046 0.28684 0.22109 0.0
C67 C 0.52648 0.28096 0.30327 0.0
C68 C 0.50519 0.26631 0.1717 0.0
C69 C 0.49613 0.23899 0.20534 0.0
C70 C 0.50284 0.23266 0.28802 0.0
C71 C 0.51779 0.25378 0.33632 0.0
O72 O 0.062 0.94287 0.76976 0.0
Mg73 Mg 0.06457 0.96895 0.66303 0.0
O74 O 0.02751 0.97395 0.82498 0.0
Mg75 Mg 0.01066 0.00296 0.71842 0.0
O76 O 0.06054 0.01426 0.65922 0.0
O77 O 0.10554 0.98771 0.63661 0.0
O78 O 0.99391 0.03305 0.60887 0.0
O79 O 0.01958 0.04493 0.79958 0.0
Mg80 Mg 0.95722 0.03044 0.72171 0.0
O81 O 0.962 0.99216 0.78922 0.0
O82 O 0.94392 0.02519 0.59975 0.0
O83 O 0.97849 0.07098 0.75667 0.0
O84 O 0.92078 0.0247 0.79673 0.0
C85 C 0.01429 0.9447 0.58136 0.0
C86 C 0.04389 0.95003 0.82806 0.0
C87 C 0.08979 0.01267 0.6338 0.0
C88 C 0.96813 0.03657 0.57025 0.0
C89 C 0.0042 0.0696 0.79528 0.0
C90 C 0.93445 0.00011 0.81898 0.0
O91 O 0.04252 0.94963 0.56347 0.0
O92 O 1.00073 0.95938 0.63917 0.0
O93 O 0.42422 -0.00174 0.77257 0.0
Mg94 Mg 0.44964 0.965 0.70181 0.0
O95 O 0.46421 0.02372 0.82268 0.0
Mg96 Mg 0.50564 0.00641 0.73773 0.0
O97 O 0.49054 0.95832 0.7631 0.0
O98 O 0.45667 0.92225 0.74547 0.0
O99 O 0.54688 0.98935 0.65039 0.0
O100 O 0.53854 0.99512 0.84175 0.0
Mg101 Mg 0.56449 0.04571 0.77077 0.0
O102 O 0.52096 0.05511 0.72195 0.0
O103 O 0.58671 0.01878 0.68022 0.0
O104 O 0.56968 0.02844 0.89098 0.0
O105 O 0.55598 0.08996 0.74559 0.0
C106 C 0.46028 0.00167 0.57045 0.0
C107 C 0.43469 0.01857 0.81863 0.0
C108 C 0.4823 0.93131 0.77786 0.0
C109 C 0.57537 -0.00256 0.63978 0.0
C110 C 0.55934 0.00237 0.89271 0.0
C111 C 0.52968 0.08242 0.71335 0.0
O112 O 0.45814 0.97389 0.57752 0.0
O113 O 0.47295 0.01623 0.62767 0.0
O114 O 0.51577 0.45701 0.91038 0.0
Mg115 Mg 0.54168 0.47722 0.81807 0.0
O116 O 0.48958 0.45335 0.79715 0.0
Mg117 Mg 0.49723 0.50057 0.73247 0.0
O118 O 0.54 0.52224 0.81142 0.0
O119 O 0.57924 0.4948 0.86968 0.0
O120 O 0.50223 0.54757 0.66227 0.0
O121 O 0.46838 0.52164 0.83663 0.0
Mg122 Mg 0.44705 0.52552 0.66046 0.0
O123 O 0.45409 0.48041 0.65573 0.0
O124 O 0.46778 0.54727 0.56273 0.0
O125 O 0.44142 0.55342 0.76295 0.0
O126 O 0.40777 0.50489 0.63225 0.0
C127 C 0.54845 0.45699 0.64628 0.0
C128 C 0.4959 0.44357 0.86853 0.0
C129 C 0.56614 0.52026 0.85364 0.0
C130 C 0.49103 0.55898 0.5963 0.0
C131 C 0.4532 0.54611 0.83079 0.0
C132 C 0.42495 0.48081 0.62962 0.0
O133 O 0.55685 0.45094 0.71853 0.0
O134 O 0.52831 0.47795 0.63335 0.0
O135 O 0.9458 0.47914 0.86102 0.0
Mg136 Mg 0.94381 0.46754 0.73617 0.0
O137 O 0.96969 0.51867 0.8184 0.0
Mg138 Mg 0.00431 0.50686 0.7142 0.0
O139 O 0.98748 0.45936 0.69 0.0
O140 O 0.95226 0.42409 0.69903 0.0
O141 O 0.03818 0.4959 0.61292 0.0
O142 O 0.04442 0.48872 0.80249 0.0
Mg143 Mg 0.06651 0.54818 0.68574 0.0
O144 O 0.02242 0.5529 0.73266 0.0
O145 O 0.06753 0.53116 0.56406 0.0
O146 O 0.08611 0.51595 0.76913 0.0
O147 O 0.05339 0.59115 0.72773 0.0
C148 C 0.93636 0.52031 0.61397 0.0
C149 C 0.95151 0.50637 0.86913 0.0
C150 C 0.9794 0.43242 0.67394 0.0
C151 C 0.0585 0.50454 0.56213 0.0
C152 C 0.07368 0.49498 0.80927 0.0
C153 C 0.02787 0.57977 0.75449 0.0
O154 O 0.92317 0.49961 0.65321 0.0
O155 O 0.96558 0.52583 0.62356 0.0
C156 C 0.18802 0.0851 0.29147 0.0
C157 C 0.20117 0.11253 0.30923 0.0
C158 C 0.1644 0.07348 0.34174 0.0
C159 C 0.15394 0.08956 0.41177 0.0
C160 C 0.16483 0.1186 0.42473 0.0
C161 C 0.18807 0.12981 0.37292 0.0
C162 C 0.15302 0.04267 0.3245 0.0
C163 C 0.15467 0.13657 0.49844 0.0
C164 C 0.08761 0.05613 0.53744 0.0
C165 C 0.10481 0.03776 0.59144 0.0
C166 C 0.10312 0.07411 0.48021 0.0
C167 C 0.13648 0.07398 0.47799 0.0
C168 C 0.15372 0.05721 0.53691 0.0
C169 C 0.13771 0.03926 0.59233 0.0
C170 C 0.08387 0.09188 0.41928 0.0
C171 C 0.18926 0.05678 0.53847 0.0
H172 H 0.19815 0.07149 0.24301 0.0
H173 H 0.19816 0.15108 0.3869 0.0
H174 H 0.16408 0.02675 0.36831 0.0
H175 H 0.12715 0.04183 0.33273 0.0
H176 H 0.1591 0.03526 0.26159 0.0
H177 H 0.16039 0.16038 0.49172 0.0
H178 H 0.12905 0.1349 0.5095 0.0
H179 H 0.16703 0.12769 0.55325 0.0
H180 H 0.06219 0.05485 0.53592 0.0
H181 H 0.15112 0.02516 0.63409 0.0
H182 H 0.05826 0.08965 0.42966 0.0
H183 H 0.08964 0.08432 0.3564 0.0
H184 H 0.08961 0.11572 0.42313 0.0
H185 H 0.19861 0.046 0.48219 0.0
H186 H 0.19899 0.04451 0.59207 0.0
H187 H 0.19796 0.07978 0.53979 0.0
C188 C 0.51775 0.18115 0.32767 0.0
C189 C 0.49514 0.20432 0.32756 0.0
C190 C 0.5172 0.15881 0.38752 0.0
C191 C 0.49352 0.15986 0.44855 0.0
C192 C 0.46869 0.18139 0.4429 0.0
C193 C 0.47005 0.20369 0.38302 0.0
C194 C 0.54345 0.13556 0.38959 0.0
C195 C 0.44209 0.18253 0.50392 0.0
C196 C 0.49538 0.09301 0.59168 0.0
C197 C 0.51387 0.10342 0.65574 0.0
C198 C 0.4871 0.11152 0.52544 0.0
C199 C 0.49737 0.14115 0.52333 0.0
C200 C 0.51414 0.15235 0.59076 0.0
C201 C 0.52206 0.13341 0.65609 0.0
C202 C 0.46857 0.0984 0.45698 0.0
C203 C 0.52567 0.18379 0.59144 0.0
H204 H 0.53734 0.18193 0.28533 0.0
H205 H 0.45275 0.22187 0.38345 0.0
H206 H 0.55802 0.13871 0.44494 0.0
H207 H 0.53355 0.11305 0.39314 0.0
H208 H 0.55891 0.13662 0.33496 0.0
H209 H 0.42048 0.19284 0.47676 0.0
H210 H 0.43662 0.16005 0.52677 0.0
H211 H 0.44891 0.1963 0.55684 0.0
H212 H 0.48901 0.06991 0.59034 0.0
H213 H 0.53622 0.14175 0.7056 0.0
H214 H 0.48279 0.08036 0.42733 0.0
H215 H 0.46091 0.11474 0.40992 0.0
H216 H 0.44748 0.08831 0.48356 0.0
H217 H 0.54246 0.18683 0.54034 0.0
H218 H 0.53761 0.18935 0.64952 0.0
H219 H 0.50569 0.1998 0.58218 0.0
C220 C 0.32684 0.37455 0.34052 0.0
C221 C 0.31092 0.39597 0.29227 0.0
C222 C 0.35206 0.38234 0.39081 0.0
C223 C 0.36143 0.4122 0.39299 0.0
C224 C 0.34828 0.43284 0.3362 0.0
C225 C 0.32306 0.4245 0.28653 0.0
C226 C 0.36657 0.35936 0.44734 0.0
C227 C 0.35872 0.46458 0.33379 0.0
C228 C 0.37953 0.45061 0.592 0.0
C229 C 0.41178 0.45557 0.58465 0.0
C230 C 0.36347 0.43449 0.53282 0.0
C231 C 0.37997 0.42335 0.46354 0.0
C232 C 0.41311 0.42601 0.45944 0.0
C233 C 0.42874 0.44186 0.52084 0.0
C234 C 0.32829 0.43155 0.54132 0.0
C235 C 0.43219 0.41343 0.38921 0.0
H236 H 0.31771 0.35234 0.34443 0.0
H237 H 0.31091 0.44114 0.24942 0.0
H238 H 0.39259 0.36086 0.44716 0.0
H239 H 0.35828 0.36365 0.51065 0.0
H240 H 0.36021 0.33644 0.42997 0.0
H241 H 0.3496 0.47662 0.27913 0.0
H242 H 0.35002 0.47644 0.38916 0.0
H243 H 0.3848 0.46526 0.33384 0.0
H244 H 0.3664 0.46112 0.6415 0.0
H245 H 0.45373 0.44565 0.51489 0.0
H246 H 0.32165 0.40815 0.53178 0.0
H247 H 0.31613 0.44526 0.49398 0.0
H248 H 0.31956 0.43891 0.60222 0.0
H249 H 0.44315 0.39188 0.40845 0.0
H250 H 0.45142 0.42852 0.37288 0.0
H251 H 0.41793 0.4095 0.33385 0.0
C252 C 0.05196 0.3107 0.36332 0.0
C253 C 0.02808 0.30648 0.30603 0.0
C254 C 0.05015 0.33432 0.41925 0.0
C255 C 0.02381 0.35441 0.41724 0.0
C256 C 1.00116 0.35173 0.35422 0.0
C257 C 0.00375 0.32788 0.29897 0.0
C258 C 0.0748 0.33514 0.48539 0.0
C259 C 0.9722 0.3719 0.35089 0.0
C260 C 0.99385 0.38201 0.62291 0.0
C261 C 0.99716 0.41279 0.61669 0.0
C262 C 0.00317 0.36289 0.55926 0.0
C263 C 0.01693 0.3747 0.48769 0.0
C264 C 0.02161 0.40578 0.4825 0.0
C265 C 0.01164 0.42442 0.54719 0.0
C266 C 0.99623 0.33023 0.5668 0.0
C267 C 0.03491 0.42021 0.40723 0.0
H268 H 0.07042 0.29374 0.37003 0.0
H269 H 0.98488 0.32413 0.25601 0.0
H270 H 0.07352 0.3558 0.52211 0.0
H271 H 0.072 0.31589 0.52686 0.0
H272 H 0.09864 0.33261 0.45811 0.0
H273 H 0.95642 0.36636 0.29944 0.0
H274 H 0.95877 0.3702 0.40882 0.0
H275 H 0.97912 0.39532 0.34401 0.0
H276 H 0.98229 0.373 0.67616 0.0
H277 H 0.01322 0.44827 0.54059 0.0
H278 H 0.01856 0.3171 0.57218 0.0
H279 H 0.98381 0.3224 0.51161 0.0
H280 H 0.98157 0.32543 0.62117 0.0
H281 H 0.04289 0.40413 0.35982 0.0
H282 H 0.055 0.43405 0.42426 0.0
H283 H 0.01679 0.43549 0.38028 0.0
C284 C 0.82773 0.91064 0.14193 0.0
C285 C 0.7978 0.9115 0.1064 0.0
C286 C 0.85366 0.92266 0.10095 0.0
C287 C 0.8493 0.93627 0.02332 0.0
C288 C 0.81886 0.93765 0.98835 0.0
C289 C 0.79363 0.92524 0.03013 0.0
C290 C 0.88529 0.92131 0.14253 0.0
C291 C 0.81269 0.9528 0.90734 0.0
C292 C 0.90178 -0.00355 0.94363 0.0
C293 C 0.91795 0.98188 0.87986 0.0
C294 C 0.88098 0.98132 0.99427 0.0
C295 C 0.8757 0.95089 0.98004 0.0
C296 C 0.89321 0.93562 0.91834 0.0
C297 C 0.91452 0.95126 0.86939 0.0
C298 C 0.86314 -0.00158 0.05965 0.0
C299 C 0.88778 0.90332 0.90041 0.0
H300 H 0.83098 0.90016 0.20105 0.0
H301 H 0.77035 0.92643 0.00317 0.0
H302 H 0.9051 0.92336 0.09902 0.0
H303 H 0.88638 0.93981 0.18709 0.0
H304 H 0.88848 0.9002 0.17711 0.0
H305 H 0.78771 0.95154 0.88811 0.0
H306 H 0.8188 0.97656 0.91146 0.0
H307 H 0.82774 0.94252 0.85914 0.0
H308 H 0.90459 0.02012 0.95212 0.0
H309 H 0.92685 0.94 0.81978 0.0
H310 H 0.86572 0.9869 0.11924 0.0
H311 H 0.8377 -0.00059 0.04451 0.0
H312 H 0.87139 0.02149 0.06633 0.0
H313 H 0.88724 0.89027 0.95784 0.0
H314 H 0.90608 0.89364 0.85921 0.0
H315 H 0.8646 0.90111 0.87042 0.0
C316 C 0.49088 0.83034 0.16113 0.0
C317 C 0.51513 0.80874 0.1613 0.0
C318 C 0.49141 0.85432 0.10612 0.0
C319 C 0.51689 0.85658 0.05037 0.0
C320 C 0.54298 0.83638 0.05699 0.0
C321 C 0.54191 0.813 0.11328 0.0
C322 C 0.463 0.87512 0.10128 0.0
C323 C 0.57054 0.83662 -0.00102 0.0
C324 C 0.49555 0.88167 0.83589 0.0
C325 C 0.49766 0.91257 0.8413 0.0
C326 C 0.50265 0.86328 0.9028 0.0
C327 C 0.51314 0.87601 0.97686 0.0
C328 C 0.51712 0.90719 0.98115 0.0
C329 C 0.50885 0.92511 0.91359 0.0
C330 C 0.49716 0.83035 0.89485 0.0
C331 C 0.52834 0.92238 0.05747 0.0
H332 H 0.47005 0.82678 0.19774 0.0
H333 H 0.5606 0.79607 0.11316 0.0
H334 H 0.47016 0.89832 0.11137 0.0
H335 H 0.45234 0.87399 0.03955 0.0
H336 H 0.44477 0.86977 0.14725 0.0
H337 H 0.59292 0.83366 0.03324 0.0
H338 H 0.56931 0.8174 0.95685 0.0
H339 H 0.57126 0.85722 0.96243 0.0
H340 H 0.48668 0.87194 0.78023 0.0
H341 H 0.50964 0.94907 0.9191 0.0
H342 H 0.48489 0.8217 0.94941 0.0
H343 H 0.5201 0.81822 0.8893 0.0
H344 H 0.48301 0.82514 0.84001 0.0
H345 H 0.50928 0.93739 0.08121 0.0
H346 H 0.54843 0.93661 0.04246 0.0
H347 H 0.53572 0.90672 0.10651 0.0
C348 C 0.69217 0.57984 0.13752 0.0
C349 C 0.69685 0.61042 0.14352 0.0
C350 C 0.66702 0.56883 0.09199 0.0
C351 C 0.6457 0.58893 0.0524 0.0
C352 C 0.64922 0.61994 0.06284 0.0
C353 C 0.67477 0.63026 0.10822 0.0
C354 C 0.66498 0.53565 0.08049 0.0
C355 C 0.62684 0.64249 0.02437 0.0
C356 C 0.6082 0.55704 0.86191 0.0
C357 C 0.58015 0.54613 0.89315 0.0
C358 C 0.6288 0.57284 0.9119 0.0
C359 C 0.62142 0.57724 0.99564 0.0
C360 C 0.59219 0.56774 0.02611 0.0
C361 C 0.57178 0.5525 0.97425 0.0
C362 C 0.65964 0.5827 0.87673 0.0
C363 C 0.5838 0.57103 0.11529 0.0
H364 H 0.7098 0.56449 0.16239 0.0
H365 H 0.67872 0.65393 0.11159 0.0
H366 H 0.64096 0.5282 0.09468 0.0
H367 H 0.66988 0.52996 0.0157 0.0
H368 H 0.68202 0.52303 0.11952 0.0
H369 H 0.63863 0.66376 0.0121 0.0
H370 H 0.61666 0.63446 0.96641 0.0
H371 H 0.60723 0.64724 0.06758 0.0
H372 H 0.61513 0.55131 0.80001 0.0
H373 H 0.55056 0.5432 -0.00075 0.0
H374 H 0.6794 0.57019 0.90632 0.0
H375 H 0.66278 0.60665 0.88946 0.0
H376 H 0.66112 0.57908 0.80972 0.0
H377 H 0.59645 0.55351 0.15094 0.0
H378 H 0.55821 0.56858 0.12605 0.0
H379 H 0.5911 0.59282 0.13931 0.0
C380 C 0.95997 0.67704 0.1274 0.0
C381 C 0.98686 0.6906 0.15716 0.0
C382 C 0.96249 0.65341 0.07169 0.0
C383 C 0.99259 0.64331 0.04496 0.0
C384 C 0.01976 0.65453 0.08291 0.0
C385 C 0.01657 0.67824 0.13846 0.0
C386 C 0.93294 0.64228 0.03347 0.0
C387 C 0.05236 0.64401 0.05776 0.0
C388 C 0.00542 0.57921 0.89508 0.0
C389 C 0.01085 0.59472 0.82229 0.0
C390 C 0.99824 0.59453 0.96804 0.0
C391 C 0.9959 0.62598 0.96748 0.0
C392 C 0.99896 0.64147 0.89257 0.0
C393 C 0.00683 0.62566 0.82123 0.0
C394 C 0.99534 0.57729 0.04652 0.0
C395 C 0.99591 0.67496 0.88859 0.0
H396 H 0.937 0.68693 0.141 0.0
H397 H 0.03737 0.68905 0.1606 0.0
H398 H 0.92841 0.65491 0.97635 0.0
H399 H 0.93542 0.6184 0.01758 0.0
H400 H 0.91229 0.64568 0.07441 0.0
H401 H 0.07042 0.6507 0.10258 0.0
H402 H 0.05355 0.61948 0.051 0.0
H403 H 0.05821 0.65383 -0.00235 0.0
H404 H 0.00938 0.55533 0.89659 0.0
H405 H 0.01135 0.63766 0.76517 0.0
H406 H 0.9729 0.58342 0.07756 0.0
H407 H 0.01465 0.58308 0.08856 0.0
H408 H 0.99642 0.55289 0.03626 0.0
H409 H 0.99643 0.68337 0.82484 0.0
H410 H 0.01551 0.6849 0.92282 0.0
H411 H 0.9736 0.68279 0.91765 0.0
C412 C 0.00766 0.19614 0.43727 0.0
C413 C 0.9883 0.20771 0.37548 0.0
C414 C 0.99971 0.16997 0.47758 0.0
C415 C 0.97194 0.15547 0.45457 0.0
C416 C 0.95064 0.1691 0.39904 0.0
C417 C 0.95916 0.19521 0.35983 0.0
C418 C 0.02262 0.15632 0.53814 0.0
C419 C 0.92048 0.15461 0.3746 0.0
C420 C 0.98063 0.07176 0.45888 0.0
C421 C 0.96388 0.06519 0.52956 0.0
C422 C 0.98194 0.10118 0.43135 0.0
C423 C 0.96764 0.12429 0.47858 0.0
C424 C 0.95035 0.11759 0.54943 0.0
C425 C 0.94811 0.08794 0.57308 0.0
C426 C 0.99924 0.10768 0.353 0.0
C427 C 0.93604 0.1417 0.60314 0.0
H428 H 0.03019 0.20601 0.4489 0.0
H429 H 0.94424 0.20458 0.31215 0.0
H430 H 0.01004 0.14648 0.59048 0.0
H431 H 0.03649 0.13819 0.50792 0.0
H432 H 0.03925 0.17289 0.5616 0.0
H433 H 0.90432 0.17029 0.34169 0.0
H434 H 0.92607 0.13549 0.33382 0.0
H435 H 0.90808 0.14591 0.42881 0.0
H436 H 0.99324 0.05407 0.42663 0.0
H437 H 0.93591 0.08273 0.6293 0.0
H438 H 0.01847 0.12328 0.36473 0.0
H439 H 0.98289 0.1187 0.30897 0.0
H440 H 0.00944 0.08724 0.32424 0.0
H441 H 0.95512 0.15371 0.63399 0.0
H442 H 0.92037 0.13259 0.65079 0.0
H443 H 0.92241 0.15821 0.56624 0.0
C444 C 0.31113 0.07528 0.35293 0.0
C445 C 0.31076 0.10613 0.3642 0.0
C446 C 0.3358 0.05743 0.3825 0.0
C447 C 0.36014 0.07077 0.42658 0.0
C448 C 0.35904 0.10185 0.44185 0.0
C449 C 0.33454 0.11941 0.40837 0.0
C450 C 0.33601 0.02442 0.36538 0.0
C451 C 0.38409 0.11696 0.49038 0.0
C452 C 0.40647 0.02181 0.57094 0.0
C453 C 0.43458 0.01705 0.52788 0.0
C454 C 0.38191 0.03897 0.53793 0.0
C455 C 0.38574 0.0517 0.46 0.0
C456 C 0.41348 0.04565 0.41406 0.0
C457 C 0.43792 0.02827 0.44903 0.0
C458 C 0.35224 0.04421 0.58736 0.0
C459 C 0.41775 0.05857 0.32986 0.0
H460 H 0.29274 0.06535 0.31699 0.0
H461 H 0.33431 0.14338 0.41518 0.0
H462 H 0.35789 0.01763 0.33254 0.0
H463 H 0.33571 0.01183 0.42359 0.0
H464 H 0.31554 0.01785 0.3281 0.0
H465 H 0.37473 0.13777 0.51904 0.0
H466 H 0.3941 0.10239 0.53899 0.0
H467 H 0.40329 0.12306 0.44825 0.0
H468 H 0.40394 0.0125 0.63143 0.0
H469 H 0.45977 0.02426 0.41615 0.0
H470 H 0.33116 0.03916 0.55067 0.0
H471 H 0.35026 0.06802 0.60467 0.0
H472 H 0.35185 0.0304 0.64351 0.0
H473 H 0.3991 0.05069 0.28852 0.0
H474 H 0.44107 0.05243 0.30319 0.0
H475 H 0.4153 0.08317 0.33257 0.0
C476 C 0.52271 0.31267 0.42727 0.0
C477 C 0.53873 0.30474 0.35549 0.0
C478 C 0.53037 0.33832 0.47026 0.0
C479 C 0.55479 0.35626 0.44079 0.0
C480 C 0.57233 0.34738 0.37117 0.0
C481 C 0.56395 0.32172 0.32892 0.0
C482 C 0.51111 0.34707 0.54457 0.0
C483 C 0.59891 0.36564 0.3391 0.0
C484 C 0.54044 0.43553 0.50767 0.0
C485 C 0.55729 0.43571 0.58108 0.0
C486 C 0.54174 0.41049 0.45676 0.0
C487 C 0.56015 0.38524 0.4804 0.0
C488 C 0.57985 0.38662 0.54952 0.0
C489 C 0.57835 0.41198 0.59885 0.0
C490 C 0.52118 0.41001 0.38179 0.0
C491 C 0.60008 0.36028 0.57619 0.0
H492 H 0.50299 0.29974 0.4473 0.0
H493 H 0.57649 0.31538 0.27363 0.0
H494 H 0.52675 0.3514 0.59714 0.0
H495 H 0.49744 0.36792 0.53182 0.0
H496 H 0.49441 0.32966 0.56249 0.0
H497 H 0.6132 0.35338 0.2926 0.0
H498 H 0.58913 0.38627 0.31068 0.0
H499 H 0.61456 0.37236 0.38955 0.0
H500 H 0.52437 0.45389 0.4931 0.0
H501 H 0.59189 0.41216 0.65487 0.0
H502 H 0.50213 0.39401 0.39107 0.0
H503 H 0.53504 0.40234 0.32802 0.0
H504 H 0.51042 0.43222 0.36801 0.0
H505 H 0.585 0.34359 0.60552 0.0
H506 H 0.61829 0.36674 0.62087 0.0
H507 H 0.61185 0.34942 0.52311 0.0
C508 C 0.2076 0.40629 0.45071 0.0
C509 C 0.20161 0.38675 0.38613 0.0
C510 C 0.18268 0.42089 0.49148 0.0
C511 C 0.15162 0.41665 0.46411 0.0
C512 C 0.14546 0.39377 0.40787 0.0
C513 C 0.17069 0.37774 0.37324 0.0
C514 C 0.18998 0.44353 0.55614 0.0
C515 C 0.11283 0.38915 0.37526 0.0
C516 C 0.08324 0.45429 0.57273 0.0
C517 C 0.07979 0.48114 0.52899 0.0
C518 C 0.10621 0.43292 0.5519 0.0
C519 C 0.12638 0.43848 0.48568 0.0
C520 C 0.12271 0.46514 0.43985 0.0
C521 C 0.09959 0.48642 0.46277 0.0
C522 C 0.10968 0.40529 0.6039 0.0
C523 C 0.14368 0.47145 0.36775 0.0
H524 H 0.23141 0.41292 0.46324 0.0
H525 H 0.1661 0.36155 0.32599 0.0
H526 H 0.19194 0.4657 0.52719 0.0
H527 H 0.17107 0.4451 0.60277 0.0
H528 H 0.21266 0.43798 0.58691 0.0
H529 H 0.11105 0.3676 0.3428 0.0
H530 H 0.09534 0.39022 0.42527 0.0
H531 H 0.10668 0.40727 0.33163 0.0
H532 H 0.06879 0.4503 0.62603 0.0
H533 H 0.09732 0.50728 0.42993 0.0
H534 H 0.12765 0.40903 0.65151 0.0
H535 H 0.1176 0.38564 0.56776 0.0
H536 H 0.08724 0.40011 0.63502 0.0
H537 H 0.16824 0.47388 0.3889 0.0
H538 H 0.13622 0.49206 0.33493 0.0
H539 H 0.14362 0.45258 0.32413 0.0
C540 C 0.00447 0.7946 0.01391 0.0
C541 C 0.97972 0.7959 0.07039 0.0
C542 C 0.01224 0.81982 0.96891 0.0
C543 C 0.99488 0.84673 0.98148 0.0
C544 C 0.96802 0.84726 0.03248 0.0
C545 C 0.96067 0.8217 0.07621 0.0
C546 C 0.04042 0.81828 0.91268 0.0
C547 C 0.94856 0.87528 0.04703 0.0
C548 C 0.04115 0.91667 0.95 0.0
C549 C 0.03038 0.9255 0.87319 0.0
C550 C 0.02873 0.89151 0.98771 0.0
C551 C 0.00615 0.87463 0.94562 0.0
C552 C 0.99484 0.88409 0.86873 0.0
C553 C 0.00659 0.9099 0.83445 0.0
C554 C 0.04 0.8827 0.07182 0.0
C555 C 0.97118 0.86649 0.8216 0.0
H556 H 0.0193 0.77466 0.00975 0.0
H557 H 0.94138 0.82253 0.11965 0.0
H558 H 0.03434 0.82805 0.85234 0.0
H559 H 0.05961 0.83149 0.93883 0.0
H560 H 0.04939 0.7951 0.90347 0.0
H561 H 0.95953 0.88822 0.09654 0.0
H562 H 0.94723 0.88956 0.99192 0.0
H563 H 0.9243 0.87005 0.06649 0.0
H564 H 0.05922 0.92921 0.97993 0.0
H565 H 0.99768 0.91765 0.77605 0.0
H566 H 0.05234 0.86067 0.06914 0.0
H567 H 0.01959 0.88058 0.11356 0.0
H568 H 0.05623 0.89908 0.09802 0.0
H569 H 0.98232 0.84515 0.80147 0.0
H570 H 0.96225 0.87862 0.76686 0.0
H571 H 0.95101 0.86086 0.86111 0.0
C572 C 0.66445 0.87016 0.08214 0.0
C573 C 0.69587 0.87374 0.05753 0.0
C574 C 0.64053 0.88921 0.05233 0.0
C575 C 0.64719 0.90875 0.98751 0.0
C576 C 0.6768 0.90682 0.94857 0.0
C577 C 0.70099 0.88951 0.98438 0.0
C578 C 0.60957 0.89123 0.09736 0.0
C579 C 0.68395 0.9255 0.87463 0.0
C580 C 0.57921 0.95009 0.88631 0.0
C581 C 0.57941 0.97788 0.92572 0.0
C582 C 0.60098 0.92741 0.90553 0.0
C583 C 0.62407 0.93262 0.96513 0.0
C584 C 0.62494 0.96075 0.00429 0.0
C585 C 0.60249 0.98305 0.98429 0.0
C586 C 0.6 0.89886 0.85721 0.0
C587 C 0.65064 0.96801 0.06373 0.0
H588 H 0.65909 0.85558 0.13251 0.0
H589 H 0.72438 0.89127 0.95928 0.0
H590 H 0.58977 0.89349 0.0539 0.0
H591 H 0.60598 0.87169 0.13739 0.0
H592 H 0.60906 0.91145 0.13615 0.0
H593 H 0.70642 0.91834 0.8449 0.0
H594 H 0.6647 0.92425 0.82924 0.0
H595 H 0.68573 0.94909 0.89325 0.0
H596 H 0.56287 0.94624 0.83699 0.0
H597 H 0.60367 0.0048 0.01234 0.0
H598 H 0.61279 0.88 0.88693 0.0
H599 H 0.61083 0.90252 0.79646 0.0
H600 H 0.57526 0.8926 0.84643 0.0
H601 H 0.65598 0.94896 0.10441 0.0
H602 H 0.64434 0.98778 0.10159 0.0
H603 H 0.67242 0.97271 0.0292 0.0
C604 C 0.51993 0.68073 0.08746 0.0
C605 C 0.4979 0.70428 0.08394 0.0
C606 C 0.51468 0.65422 0.0463 0.0
C607 C 0.48708 0.65169 -0.00085 0.0
C608 C 0.46595 0.67637 0.99026 0.0
C609 C 0.4715 0.70251 0.03373 0.0
C610 C 0.53821 0.62883 0.05633 0.0
C611 C 0.43697 0.67472 0.93753 0.0
C612 C 0.48571 0.58946 0.84632 0.0
C613 C 0.46358 0.57075 0.88097 0.0
C614 C 0.49327 0.61613 0.88343 0.0
C615 C 0.47998 0.62311 0.96014 0.0
C616 C 0.46009 0.60272 -0.0003 0.0
C617 C 0.45142 0.57683 0.95846 0.0
C618 C 0.51481 0.63704 0.83964 0.0
C619 C 0.44807 0.60838 0.08514 0.0
H620 H 0.54036 0.68248 0.12664 0.0
H621 H 0.45443 0.72086 0.03209 0.0
H622 H 0.55135 0.63083 0.11448 0.0
H623 H 0.52681 0.60699 0.05524 0.0
H624 H 0.55549 0.6293 0.00565 0.0
H625 H 0.42436 0.69658 0.93198 0.0
H626 H 0.4435 0.6667 0.87552 0.0
H627 H 0.4206 0.65853 0.96403 0.0
H628 H 0.49656 0.58343 0.78872 0.0
H629 H 0.43508 0.5617 0.98597 0.0
H630 H 0.537 0.63907 0.87423 0.0
H631 H 0.5036 0.65957 0.83569 0.0
H632 H 0.52083 0.62933 0.77701 0.0
H633 H 0.46805 0.61302 0.1264 0.0
H634 H 0.43518 0.58921 0.10981 0.0
H635 H 0.4321 0.6283 0.08559 0.0
C636 C 0.82235 0.62914 0.99665 0.0
C637 C 0.79825 0.61506 0.03814 0.0
C638 C 0.84635 0.61212 0.95873 0.0
C639 C 0.84683 0.58078 0.96791 0.0
C640 C 0.82118 0.56661 0.00442 0.0
C641 C 0.79682 0.58399 0.03757 0.0
C642 C 0.87087 0.62774 0.90929 0.0
C643 C 0.82036 0.53321 0.01349 0.0
C644 C 0.90086 0.53137 0.84305 0.0
C645 C 0.92538 0.52527 0.89802 0.0
C646 C 0.87534 0.5498 0.86459 0.0
C647 C 0.87454 0.56256 0.94304 0.0
C648 C 0.8991 0.55622 -0.00032 0.0
C649 C 0.92454 0.53753 0.97617 0.0
C650 C 0.84915 0.55542 0.80381 0.0
C651 C 0.89782 0.5682 0.08575 0.0
H652 H 0.82308 0.6532 0.99685 0.0
H653 H 0.77811 0.57326 0.07057 0.0
H654 H 0.8941 0.61597 0.91128 0.0
H655 H 0.86323 0.62838 0.84456 0.0
H656 H 0.87341 0.65106 0.92984 0.0
H657 H 0.7973 0.52576 0.03661 0.0
H658 H 0.82526 0.5221 0.95422 0.0
H659 H 0.83893 0.52559 0.05683 0.0
H660 H 0.90158 0.5215 0.78293 0.0
H661 H 0.94338 0.53227 0.01865 0.0
H662 H 0.84968 0.57885 0.78326 0.0
H663 H 0.82582 0.55217 0.83222 0.0
H664 H 0.85121 0.54057 0.74983 0.0
H665 H 0.89129 0.59223 0.08575 0.0
H666 H 0.92054 0.56482 0.11824 0.0
H667 H 0.87937 0.55667 0.12058 0.0
C668 C 0.04835 0.21339 0.06326 0.0
C669 C 0.01919 0.22423 0.09211 0.0
C670 C 0.05009 0.19053 0.00441 0.0
C671 C 0.02202 0.17775 0.97584 0.0
C672 C 0.99258 0.19035 0.00023 0.0
C673 C 0.99159 0.21376 0.05676 0.0
C674 C 0.08194 0.17853 0.9778 0.0
C675 C 0.96199 0.17715 0.97341 0.0
C676 C 0.01456 0.12381 0.79855 0.0
C677 C 0.01445 0.09636 0.839 0.0
C678 C 0.01955 0.15033 0.8414 0.0
C679 C 0.02297 0.14954 0.92739 0.0
C680 C 0.02373 0.12166 0.96817 0.0
C681 C 0.02006 0.09534 0.92313 0.0
C682 C 0.01974 0.17931 0.79507 0.0
C683 C 0.02624 0.11973 0.06 0.0
H684 H 0.06971 0.22097 0.09161 0.0
H685 H 0.96903 0.22174 0.08029 0.0
H686 H 0.08721 0.15717 0.00941 0.0
H687 H 0.08224 0.1741 0.91114 0.0
H688 H 0.10089 0.19414 0.9926 0.0
H689 H 0.94116 0.19064 0.99384 0.0
H690 H 0.96119 0.17511 0.90603 0.0
H691 H 0.96023 0.15443 -0.00084 0.0
H692 H 0.01012 0.12456 0.73341 0.0
H693 H 0.01947 0.07415 0.9545 0.0
H694 H 0.03944 0.19306 0.81594 0.0
H695 H 0.99755 0.19212 0.80698 0.0
H696 H 0.02194 0.17577 0.72818 0.0
H697 H 0.04723 0.13148 0.08159 0.0
H698 H 0.02781 0.09639 0.08202 0.0
H699 H 0.0053 0.13086 0.08833 0.0
C700 C 0.28709 0.07976 0.07429 0.0
C701 C 0.28823 0.11003 0.09389 0.0
C702 C 0.31014 0.06613 0.02376 0.0
C703 C 0.33502 0.08313 0.99231 0.0
C704 C 0.33467 0.11419 0.00617 0.0
C705 C 0.31114 0.12728 0.056 0.0
C706 C 0.3092 0.03306 0.00936 0.0
C707 C 0.36053 0.13326 0.97369 0.0
C708 C 0.41343 0.04229 0.94756 0.0
C709 C 0.41122 0.03743 0.86332 0.0
C710 C 0.3889 0.0573 0.99042 0.0
C711 C 0.36192 0.06825 0.94756 0.0
C712 C 0.36039 0.06444 0.86196 0.0
C713 C 0.38482 0.04883 0.82124 0.0
C714 C 0.39144 0.06074 0.08184 0.0
C715 C 0.33254 0.07625 0.81365 0.0
H716 H 0.26997 0.06615 0.10463 0.0
H717 H 0.31245 0.15059 0.07201 0.0
H718 H 0.31209 0.028 0.94345 0.0
H719 H 0.32902 0.02182 0.04212 0.0
H720 H 0.28683 0.02356 0.031 0.0
H721 H 0.35539 0.15734 0.98353 0.0
H722 H 0.38296 0.12722 0.00485 0.0
H723 H 0.36412 0.12928 0.90746 0.0
H724 H 0.4337 0.03333 0.98032 0.0
H725 H 0.3833 0.04541 0.75597 0.0
H726 H 0.37188 0.0492 0.11219 0.0
H727 H 0.3892 0.08457 0.09876 0.0
H728 H 0.41409 0.05154 0.10599 0.0
H729 H 0.31131 0.06379 0.83031 0.0
H730 H 0.33633 0.07422 0.74689 0.0
H731 H 0.32759 0.09998 0.82839 0.0
C732 C 0.52086 0.28675 0.03833 0.0
C733 C 0.49672 0.27645 0.08845 0.0
C734 C 0.51519 0.31022 0.9835 0.0
C735 C 0.48449 0.32307 0.97753 0.0
C736 C 0.45919 0.30903 0.01691 0.0
C737 C 0.46565 0.28594 0.07293 0.0
C738 C 0.54291 0.32406 0.94196 0.0
C739 C 0.42588 0.32093 0.00844 0.0
C740 C 0.48764 0.40695 0.97959 0.0
C741 C 0.48585 0.41398 0.8964 0.0
C742 C 0.48517 0.37761 0.00684 0.0
C743 C 0.48075 0.35452 0.94939 0.0
C744 C 0.47652 0.36175 0.86581 0.0
C745 C 0.47912 0.39149 0.84022 0.0
C746 C 0.48959 0.37116 0.09681 0.0
C747 C 0.47141 0.33809 0.80241 0.0
H748 H 0.54491 0.27931 0.05029 0.0
H749 H 0.4469 0.27797 0.11141 0.0
H750 H 0.53712 0.3301 0.87801 0.0
H751 H 0.54887 0.34478 0.97458 0.0
H752 H 0.56402 0.30894 0.94204 0.0
H753 H 0.40862 0.30379 0.02454 0.0
H754 H 0.42217 0.34011 0.05024 0.0
H755 H 0.42125 0.3288 0.94524 0.0
H756 H 0.49254 0.4243 0.0233 0.0
H757 H 0.47783 0.39673 0.77567 0.0
H758 H 0.51163 0.35779 0.10605 0.0
H759 H 0.46988 0.358 0.12037 0.0
H760 H 0.49096 0.39177 0.1338 0.0
H761 H 0.49457 0.32909 0.78119 0.0
H762 H 0.45876 0.34736 0.74841 0.0
H763 H 0.45796 0.31939 0.82754 0.0
C764 C 0.19151 0.39044 0.06971 0.0
C765 C 0.21738 0.40663 0.09652 0.0
C766 C 0.16816 0.40346 0.01987 0.0
C767 C 0.17178 0.43272 0.99067 0.0
C768 C 0.1999 0.44772 0.0085 0.0
C769 C 0.22213 0.43477 0.06276 0.0
C770 C 0.13858 0.38666 0.00338 0.0
C771 C 0.20576 0.47805 0.97346 0.0
C772 C 0.11753 0.4578 0.81714 0.0
C773 C 0.0954 0.47603 0.85801 0.0
C774 C 0.14256 0.44368 0.85915 0.0
C775 C 0.14554 0.44786 0.94449 0.0
C776 C 0.12274 0.46586 0.98637 0.0
C777 C 0.09799 0.47988 0.94244 0.0
C778 C 0.16563 0.4244 0.81131 0.0
C779 C 0.12472 0.47059 0.07745 0.0
H780 H 0.18793 0.36847 0.09475 0.0
H781 H 0.24198 0.44746 0.08284 0.0
H782 H 0.11763 0.39999 0.02364 0.0
H783 H 0.13613 0.3828 0.93689 0.0
H784 H 0.13852 0.36484 0.03512 0.0
H785 H 0.23038 0.48484 0.98334 0.0
H786 H 0.20077 0.47829 0.90693 0.0
H787 H 0.18968 0.49475 0.0026 0.0
H788 H 0.11574 0.45525 0.75146 0.0
H789 H 0.08129 0.4946 0.97357 0.0
H790 H 0.15703 0.40137 0.80945 0.0
H791 H 0.18945 0.42381 0.83885 0.0
H792 H 0.1676 0.43228 0.74736 0.0
H793 H 0.1253 0.44884 0.10944 0.0
H794 H 0.10459 0.48428 0.10129 0.0
H795 H 0.14683 0.48184 0.09269 0.0
C796 C 0.96563 0.78542 0.40748 0.0
C797 C 0.99154 0.77606 0.3602 0.0
C798 C 0.96716 0.81074 0.45753 0.0
C799 C 0.99502 0.82725 0.4586 0.0
C800 C 0.0222 0.816 0.41762 0.0
C801 C 0.02022 0.79024 0.36991 0.0
C802 C 0.93798 0.82145 0.50234 0.0
C803 C 0.0524 0.8329 0.41645 0.0
C804 C 0.99132 0.91166 0.47591 0.0
C805 C 0.00242 0.91582 0.55527 0.0
C806 C 0.98723 0.88283 0.44503 0.0
C807 C 0.99498 0.85772 0.49449 0.0
C808 C 0.00537 0.86201 0.57546 0.0
C809 C 0.00907 0.891 0.6046 0.0
C810 C 0.97639 0.87922 0.35792 0.0
C811 C 0.01426 0.83602 0.62981 0.0
H812 H 0.94327 0.77489 0.39866 0.0
H813 H 0.04002 0.78343 0.33176 0.0
H814 H 0.94393 0.82921 0.56458 0.0
H815 H 0.9271 0.84058 0.46902 0.0
H816 H 0.92036 0.80378 0.50727 0.0
H817 H 0.07232 0.81945 0.39053 0.0
H818 H 0.04907 0.85322 0.37868 0.0
H819 H 0.0588 0.84009 0.47885 0.0
H820 H 0.9872 0.93086 0.43698 0.0
H821 H 0.01932 0.89419 0.66425 0.0
H822 H 0.95631 0.86403 0.35528 0.0
H823 H 0.99573 0.86906 0.32083 0.0
H824 H 0.96909 0.90078 0.32968 0.0
H825 H 0.99359 0.82188 0.63888 0.0
H826 H 0.0229 0.8432 0.69043 0.0
H827 H 0.03293 0.822 0.60044 0.0
C828 C 0.68071 0.92694 0.28184 0.0
C829 C 0.70925 0.91405 0.30923 0.0
C830 C 0.65851 0.93929 0.33601 0.0
C831 C 0.66495 0.93904 0.42058 0.0
C832 C 0.69405 0.92663 0.44902 0.0
C833 C 0.71597 0.91421 0.39279 0.0
C834 C 0.62788 0.95205 0.30258 0.0
C835 C 0.70172 0.92613 0.53886 0.0
C836 C 0.62143 -0.002 0.54591 0.0
C837 C 0.59667 0.98217 0.58028 0.0
C838 C 0.64382 0.98412 0.49478 0.0
C839 C 0.64184 0.95342 0.478 0.0
C840 C 0.61671 0.93726 0.51166 0.0
C841 C 0.59422 0.9519 0.56205 0.0
C842 C 0.66943 0.00248 0.45777 0.0
C843 C 0.61367 0.90452 0.49467 0.0
H844 H 0.67534 0.92639 0.21737 0.0
H845 H 0.73777 0.90389 0.4142 0.0
H846 H 0.62344 0.97495 0.32571 0.0
H847 H 0.6276 0.95267 0.23487 0.0
H848 H 0.60812 0.93837 0.32341 0.0
H849 H 0.72497 0.91522 0.55145 0.0
H850 H 0.70178 0.94916 0.56292 0.0
H851 H 0.68333 0.91416 0.57274 0.0
H852 H 0.6233 0.02149 0.55897 0.0
H853 H 0.57531 0.93951 0.58892 0.0
H854 H 0.66748 0.00222 0.39021 0.0
H855 H 0.69289 0.99276 0.47366 0.0
H856 H 0.6682 0.02595 0.47872 0.0
H857 H 0.6097 0.90098 0.42851 0.0
H858 H 0.59394 0.89476 0.52912 0.0
H859 H 0.63583 0.89236 0.511 0.0
C860 C 0.51958 0.72263 0.4201 0.0
C861 C 0.49267 0.72866 0.3731 0.0
C862 C 0.52078 0.69826 0.47402 0.0
C863 C 0.49485 0.67922 0.47855 0.0
C864 C 0.46636 0.68754 0.43894 0.0
C865 C 0.46537 0.71277 0.38871 0.0
C866 C 0.55094 0.69109 0.51901 0.0
C867 C 0.4382 0.6678 0.44059 0.0
C868 C 0.50887 0.59555 0.493 0.0
C869 C 0.49817 0.58961 0.57193 0.0
C870 C 0.50939 0.62486 0.46333 0.0
C871 C 0.49866 0.64875 0.51379 0.0
C872 C 0.48855 0.64283 0.59431 0.0
C873 C 0.48814 0.6133 0.62196 0.0
C874 C 0.51964 0.63007 0.37626 0.0
C875 C 0.47692 0.66751 0.65007 0.0
H876 H 0.54075 0.73478 0.40802 0.0
H877 H 0.44461 0.71737 0.35187 0.0
H878 H 0.54597 0.68298 0.58157 0.0
H879 H 0.56423 0.67318 0.48625 0.0
H880 H 0.56606 0.71077 0.52312 0.0
H881 H 0.41689 0.67901 0.41446 0.0
H882 H 0.44355 0.64744 0.40433 0.0
H883 H 0.43285 0.66069 0.50378 0.0
H884 H 0.51562 0.57713 0.45343 0.0
H885 H 0.47789 0.60866 0.68078 0.0
H886 H 0.53831 0.64678 0.37432 0.0
H887 H 0.49945 0.63907 0.34017 0.0
H888 H 0.5287 0.60938 0.34642 0.0
H889 H 0.49657 0.68241 0.66381 0.0
H890 H 0.46744 0.65894 0.70849 0.0
H891 H 0.45822 0.6812 0.61988 0.0
C892 C 0.79289 0.58101 0.34708 0.0
C893 C 0.79572 0.61012 0.31777 0.0
C894 C 0.81619 0.56786 0.3977 0.0
C895 C 0.84328 0.58394 0.41831 0.0
C896 C 0.84543 0.61381 0.39237 0.0
C897 C 0.82149 0.62662 0.34364 0.0
C898 C 0.81234 0.5364 0.42703 0.0
C899 C 0.87354 0.63195 0.41411 0.0
C900 C 0.89241 0.55729 0.59996 0.0
C901 C 0.91595 0.53974 0.56246 0.0
C902 C 0.86909 0.57235 0.55402 0.0
C903 C 0.86918 0.5697 0.46784 0.0
C904 C 0.89392 0.55304 0.42923 0.0
C905 C 0.91699 0.53812 0.47714 0.0
C906 C 0.84387 0.58997 0.59935 0.0
C907 C 0.89558 0.55046 0.33743 0.0
H908 H 0.77342 0.56789 0.32667 0.0
H909 H 0.82382 0.64917 0.32159 0.0
H910 H 0.83142 0.52184 0.40154 0.0
H911 H 0.81436 0.53555 0.49456 0.0
H912 H 0.78933 0.52734 0.40896 0.0
H913 H 0.872 0.65472 0.38795 0.0
H914 H 0.87555 0.6337 0.48147 0.0
H915 H 0.89541 0.62068 0.39144 0.0
H916 H 0.89195 0.55884 0.66589 0.0
H917 H 0.93512 0.52439 0.44812 0.0
H918 H 0.82654 0.57437 0.62443 0.0
H919 H 0.83109 0.60646 0.5606 0.0
H920 H 0.8543 0.60196 0.6515 0.0
H921 H 0.87476 0.53871 0.31456 0.0
H922 H 0.91718 0.5382 0.31664 0.0
H923 H 0.89504 0.57291 0.3093 0.0
loop_
_geom_bond_atom_site_label_1
_geom_bond_atom_site_label_2
_geom_bond_distance
_geom_bond_site_symmetry_2
_ccdc_geom_bond_type
H0 C3 0.931 . S
H1 C6 0.928 1_556 S
H2 C8 0.930 . S
C3 H0 0.931 . S
C3 C4 1.413 . S
C3 C5 1.360 . S
C4 C3 1.413 . S
C4 C8 1.429 . S
C5 C3 1.360 . S
C5 C6 1.372 . S
C6 H1 0.928 1_554 S
C6 C5 1.372 . S
C6 C7 1.404 . S
C7 C6 1.404 . S
C7 C8 1.391 . S
C8 H2 0.930 . S
C8 C4 1.429 . S
C8 C7 1.391 . S
H9 C12 0.931 . S
H10 C15 0.928 1_556 S
H11 C17 0.930 . S
C12 H9 0.931 . S
C12 C13 1.413 . S
C12 C14 1.360 . S
C13 C12 1.413 . S
C13 C17 1.429 1_655 S
C14 C12 1.360 . S
C14 C15 1.373 . S
C15 H10 0.928 1_554 S
C15 C14 1.373 . S
C15 C16 1.404 . S
C16 C15 1.404 . S
C16 C17 1.390 1_655 S
C17 H11 0.930 . S
C17 C13 1.429 1_455 S
C17 C16 1.390 1_455 S
H18 C21 0.931 . S
H19 C24 0.928 1_556 S
H20 C26 0.930 . S
C21 H18 0.931 . S
C21 C22 1.413 . S
C21 C23 1.360 . S
C22 C21 1.413 . S
C22 C26 1.429 . S
C23 C21 1.360 . S
C23 C24 1.372 . S
C24 H19 0.928 1_554 S
C24 C23 1.372 . S
C24 C25 1.404 . S
C25 C24 1.404 . S
C25 C26 1.391 . S
C26 H20 0.930 . S
C26 C22 1.429 . S
C26 C25 1.391 . S
H27 C30 0.931 . S
H28 C33 0.928 . S
H29 C35 0.930 1_556 S
C30 H27 0.931 . S
C30 C31 1.413 . S
C30 C32 1.360 . S
C31 C30 1.413 . S
C31 C35 1.429 . S
C32 C30 1.360 . S
C32 C33 1.372 . S
C33 H28 0.928 . S
C33 C32 1.372 . S
C33 C34 1.404 . S
C34 C33 1.404 . S
C34 C35 1.391 . S
C35 H29 0.930 1_554 S
C35 C31 1.429 . S
C35 C34 1.391 . S
H36 C39 0.931 . S
H37 C42 0.928 . S
H38 C44 0.930 . S
C39 H36 0.931 . S
C39 C40 1.413 . S
C39 C41 1.360 . S
C40 C39 1.413 . S
C40 C44 1.429 . S
C41 C39 1.360 . S
C41 C42 1.372 . S
C42 H37 0.928 . S
C42 C41 1.372 . S
C42 C43 1.404 . S
C43 C42 1.404 . S
C43 C44 1.391 . S
C44 H38 0.930 . S
C44 C40 1.429 . S
C44 C43 1.391 . S
H45 C48 0.930 . S
H46 C51 0.928 . S
H47 C53 0.929 . S
C48 H45 0.930 . S
C48 C49 1.413 . S
C48 C50 1.360 . S
C49 C48 1.413 . S
C49 C53 1.429 1_655 S
C50 C48 1.360 . S
C50 C51 1.372 . S
C51 H46 0.928 . S
C51 C50 1.372 . S
C51 C52 1.404 . S
C52 C51 1.404 . S
C52 C53 1.391 1_655 S
C53 H47 0.929 . S
C53 C49 1.429 1_455 S
C53 C52 1.391 1_455 S
H54 C57 0.931 . S
H55 C60 0.928 . S
H56 C62 0.930 . S
C57 H54 0.931 . S
C57 C58 1.413 . S
C57 C59 1.360 . S
C58 C57 1.413 . S
C58 C62 1.429 . S
C59 C57 1.360 . S
C59 C60 1.372 . S
C60 H55 0.928 . S
C60 C59 1.372 . S
C60 C61 1.404 . S
C61 C60 1.404 . S
C61 C62 1.391 . S
C62 H56 0.930 . S
C62 C58 1.429 . S
C62 C61 1.391 . S
H63 C66 0.931 . S
H64 C69 0.928 . S
H65 C71 0.930 . S
C66 H63 0.931 . S
C66 C67 1.413 . S
C66 C68 1.360 . S
C67 C66 1.413 . S
C67 C71 1.429 . S
C68 C66 1.360 . S
C68 C69 1.372 . S
C69 H64 0.928 . S
C69 C68 1.372 . S
C69 C70 1.404 . S
C70 C69 1.404 . S
C70 C71 1.391 . S
C71 H65 0.930 . S
C71 C67 1.429 . S
C71 C70 1.391 . S
O72 Mg73 1.990 . S
O72 C86 1.253 . S
Mg73 O72 1.990 . S
Mg73 O76 2.180 1_565 S
Mg73 O77 2.117 . S
Mg73 O91 2.030 . S
O74 Mg75 2.072 1_465 S
O74 C86 1.260 . S
Mg75 O74 2.072 1_645 S
Mg75 O76 2.099 1_655 S
Mg75 O78 2.079 . S
Mg75 O79 2.072 1_655 S
Mg75 O81 2.099 . S
Mg75 O92 2.079 1_545 S
O76 Mg73 2.180 1_545 S
O76 Mg75 2.099 1_455 S
O76 C87 1.279 . S
O77 Mg73 2.117 . S
O77 C87 1.250 1_565 S
O78 Mg75 2.079 . S
O78 C88 1.264 . S
O79 Mg75 2.072 1_455 S
O79 C89 1.260 . S
Mg80 O81 2.180 . S
Mg80 O82 2.030 . S
Mg80 O83 1.990 . S
Mg80 O84 2.117 . S
O81 Mg75 2.099 . S
O81 Mg80 2.180 . S
O81 C90 1.279 . S
O82 Mg80 2.030 . S
O82 C88 1.248 . S
O83 Mg80 1.990 . S
O83 C89 1.253 1_655 S
O84 Mg80 2.117 . S
O84 C90 1.250 . S
C85 O91 1.248 1_655 S
C85 O92 1.264 . S
C86 O72 1.253 . S
C86 O74 1.260 . S
C87 O76 1.279 . S
C87 O77 1.250 1_545 S
C88 O78 1.264 . S
C88 O82 1.248 . S
C89 O79 1.260 . S
C89 O83 1.253 1_455 S
C90 O81 1.279 . S
C90 O84 1.250 . S
O91 Mg73 2.030 . S
O91 C85 1.248 1_455 S
O92 Mg75 2.079 1_565 S
O92 C85 1.264 . S
O93 Mg94 1.990 1_545 S
O93 C107 1.253 . S
Mg94 O93 1.990 1_565 S
Mg94 O97 2.180 . S
Mg94 O98 2.117 . S
Mg94 O112 2.030 1_565 S
O95 Mg96 2.072 . S
O95 C107 1.260 . S
Mg96 O95 2.072 . S
Mg96 O97 2.099 1_545 S
Mg96 O99 2.079 1_545 S
Mg96 O100 2.072 1_545 S
Mg96 O102 2.099 . S
Mg96 O113 2.079 . S
O97 Mg94 2.180 . S
O97 Mg96 2.099 1_565 S
O97 C108 1.279 . S
O98 Mg94 2.117 . S
O98 C108 1.250 . S
O99 Mg96 2.079 1_565 S
O99 C109 1.264 . S
O100 Mg96 2.072 1_565 S
O100 C110 1.260 1_565 S
Mg101 O102 2.180 . S
Mg101 O103 1.995 1_545 S
Mg101 O104 1.990 . S
Mg101 O105 2.117 . S
O102 Mg96 2.099 . S
O102 Mg101 2.180 . S
O102 C111 1.279 . S
O103 Mg101 1.995 1_565 S
O103 C109 1.271 . S
O104 Mg101 1.990 . S
O104 C110 1.253 . S
O105 Mg101 2.117 . S
O105 C111 1.250 . S
C106 O112 1.248 . S
C106 O113 1.264 . S
C107 O93 1.253 . S
C107 O95 1.260 . S
C108 O97 1.279 . S
C108 O98 1.250 . S
C109 O99 1.264 . S
C109 O103 1.271 . S
C110 O100 1.260 1_545 S
C110 O104 1.253 . S
C111 O102 1.279 . S
C111 O105 1.250 . S
O112 Mg94 2.030 1_545 S
O112 C106 1.248 . S
O113 Mg96 2.079 . S
O113 C106 1.264 . S
O114 Mg115 1.990 . S
O114 C128 1.253 . S
Mg115 O114 1.990 . S
Mg115 O118 2.180 . S
Mg115 O119 2.117 . S
Mg115 O133 2.030 . S
O116 Mg117 2.072 . S
O116 C128 1.260 . S
Mg117 O116 2.072 . S
Mg117 O118 2.099 . S
Mg117 O120 2.079 . S
Mg117 O121 2.072 . S
Mg117 O123 2.099 . S
Mg117 O134 2.079 . S
O118 Mg115 2.180 . S
O118 Mg117 2.099 . S
O118 C129 1.279 . S
O119 Mg115 2.117 . S
O119 C129 1.250 . S
O120 Mg117 2.079 . S
O120 C130 1.264 . S
O121 Mg117 2.072 . S
O121 C131 1.260 . S
Mg122 O123 2.180 . S
Mg122 O124 2.030 . S
Mg122 O125 1.990 . S
Mg122 O126 2.117 . S
O123 Mg117 2.099 . S
O123 Mg122 2.180 . S
O123 C132 1.279 . S
O124 Mg122 2.030 . S
O124 C130 1.248 . S
O125 Mg122 1.990 . S
O125 C131 1.253 . S
O126 Mg122 2.117 . S
O126 C132 1.250 . S
C127 O133 1.248 . S
C127 O134 1.264 . S
C128 O114 1.253 . S
C128 O116 1.260 . S
C129 O118 1.279 . S
C129 O119 1.250 . S
C130 O120 1.264 . S
C130 O124 1.248 . S
C131 O121 1.260 . S
C131 O125 1.253 . S
C132 O123 1.279 . S
C132 O126 1.250 . S
O133 Mg115 2.030 . S
O133 C127 1.248 . S
O134 Mg117 2.079 . S
O134 C127 1.264 . S
O135 Mg136 1.990 . S
O135 C149 1.253 . S
Mg136 O135 1.990 . S
Mg136 O139 2.180 . S
Mg136 O140 2.117 . S
Mg136 O154 2.030 . S
O137 Mg138 2.072 1_655 S
O137 C149 1.260 . S
Mg138 O137 2.072 1_455 S
Mg138 O139 2.099 1_455 S
Mg138 O141 2.079 . S
Mg138 O142 2.072 . S
Mg138 O144 2.099 . S
Mg138 O155 2.079 1_455 S
O139 Mg136 2.180 . S
O139 Mg138 2.099 1_655 S
O139 C150 1.279 . S
O140 Mg136 2.117 . S
O140 C150 1.250 . S
O141 Mg138 2.079 . S
O141 C151 1.264 . S
O142 Mg138 2.072 . S
O142 C152 1.260 . S
Mg143 O144 2.180 . S
Mg143 O145 2.030 . S
Mg143 O146 1.990 . S
Mg143 O147 2.117 . S
O144 Mg138 2.099 . S
O144 Mg143 2.180 . S
O144 C153 1.279 . S
O145 Mg143 2.030 . S
O145 C151 1.248 . S
O146 Mg143 1.990 . S
O146 C152 1.253 . S
O147 Mg143 2.117 . S
O147 C153 1.250 . S
C148 O154 1.248 . S
C148 O155 1.264 . S
C149 O135 1.253 . S
C149 O137 1.260 . S
C150 O139 1.279 . S
C150 O140 1.250 . S
C151 O141 1.264 . S
C151 O145 1.248 . S
C152 O142 1.260 . S
C152 O146 1.253 . S
C153 O144 1.279 . S
C153 O147 1.250 . S
O154 Mg136 2.030 . S
O154 C148 1.248 . S
O155 Mg138 2.079 1_655 S
O155 C148 1.264 . S
C156 C157 1.391 . S
C156 C158 1.394 . S
C156 H172 0.931 . S
C157 C156 1.391 . S
C157 C161 1.376 . S
C158 C156 1.394 . S
C158 C159 1.369 . S
C158 C162 1.531 . S
C159 C158 1.369 . S
C159 C160 1.410 . S
C159 C167 1.503 . S
C160 C159 1.410 . S
C160 C161 1.392 . S
C160 C163 1.511 . S
C161 C157 1.376 . S
C161 C160 1.392 . S
C161 H173 0.929 . S
C162 C158 1.531 . S
C162 H174 0.960 . S
C162 H175 0.962 . S
C162 H176 0.960 . S
C163 C160 1.511 . S
C163 H177 0.961 . S
C163 H178 0.961 . S
C163 H179 0.961 . S
C164 C165 1.370 . S
C164 C166 1.363 . S
C164 H180 0.931 . S
C165 C164 1.370 . S
C165 C169 1.408 . S
C166 C164 1.363 . S
C166 C167 1.370 . S
C166 C170 1.524 . S
C167 C159 1.503 . S
C167 C166 1.370 . S
C167 C168 1.403 . S
C168 C167 1.403 . S
C168 C169 1.404 . S
C168 C171 1.539 . S
C169 C165 1.408 . S
C169 C168 1.404 . S
C169 H181 0.930 1_545 S
C170 C166 1.524 . S
C170 H182 0.956 . S
C170 H183 0.961 . S
C170 H184 0.961 . S
C171 C168 1.539 . S
C171 H185 0.958 1_545 S
C171 H186 0.961 1_545 S
C171 H187 0.960 . S
H172 C156 0.931 . S
H173 C161 0.929 . S
H174 C162 0.960 . S
H175 C162 0.962 . S
H176 C162 0.960 . S
H177 C163 0.961 . S
H178 C163 0.961 . S
H179 C163 0.961 . S
H180 C164 0.931 . S
H181 C169 0.930 1_565 S
H182 C170 0.956 . S
H183 C170 0.961 . S
H184 C170 0.961 . S
H185 C171 0.958 1_565 S
H186 C171 0.961 1_565 S
H187 C171 0.960 . S
C188 C189 1.391 . S
C188 C190 1.394 . S
C188 H204 0.931 . S
C189 C188 1.391 . S
C189 C193 1.376 . S
C190 C188 1.394 . S
C190 C191 1.369 . S
C190 C194 1.531 . S
C191 C190 1.369 . S
C191 C192 1.410 . S
C191 C199 1.503 . S
C192 C191 1.410 . S
C192 C193 1.392 . S
C192 C195 1.511 . S
C193 C189 1.376 . S
C193 C192 1.392 . S
C193 H205 0.929 . S
C194 C190 1.531 . S
C194 H206 0.960 . S
C194 H207 0.962 . S
C194 H208 0.960 . S
C195 C192 1.511 . S
C195 H209 0.961 . S
C195 H210 0.961 . S
C195 H211 0.961 . S
C196 C197 1.370 . S
C196 C198 1.363 . S
C196 H212 0.931 . S
C197 C196 1.370 . S
C197 C201 1.408 . S
C198 C196 1.363 . S
C198 C199 1.370 . S
C198 C202 1.524 . S
C199 C191 1.503 . S
C199 C198 1.370 . S
C199 C200 1.403 . S
C200 C199 1.403 . S
C200 C201 1.404 . S
C200 C203 1.539 . S
C201 C197 1.408 . S
C201 C200 1.404 . S
C201 H213 0.930 . S
C202 C198 1.524 . S
C202 H214 0.956 . S
C202 H215 0.961 . S
C202 H216 0.961 . S
C203 C200 1.539 . S
C203 H217 0.958 . S
C203 H218 0.961 . S
C203 H219 0.960 . S
H204 C188 0.931 . S
H205 C193 0.929 . S
H206 C194 0.960 . S
H207 C194 0.962 . S
H208 C194 0.960 . S
H209 C195 0.961 . S
H210 C195 0.961 . S
H211 C195 0.961 . S
H212 C196 0.931 . S
H213 C201 0.930 . S
H214 C202 0.956 . S
H215 C202 0.961 . S
H216 C202 0.961 . S
H217 C203 0.958 . S
H218 C203 0.961 . S
H219 C203 0.960 . S
C220 C221 1.391 . S
C220 C222 1.394 . S
C220 H236 0.931 . S
C221 C220 1.391 . S
C221 C225 1.376 . S
C222 C220 1.394 . S
C222 C223 1.369 . S
C222 C226 1.531 . S
C223 C222 1.369 . S
C223 C224 1.410 . S
C223 C231 1.503 . S
C224 C223 1.410 . S
C224 C225 1.392 . S
C224 C227 1.511 . S
C225 C221 1.376 . S
C225 C224 1.392 . S
C225 H237 0.929 . S
C226 C222 1.531 . S
C226 H238 0.960 . S
C226 H239 0.962 . S
C226 H240 0.960 . S
C227 C224 1.511 . S
C227 H241 0.961 . S
C227 H242 0.961 . S
C227 H243 0.961 . S
C228 C229 1.370 . S
C228 C230 1.363 . S
C228 H244 0.931 . S
C229 C228 1.370 . S
C229 C233 1.408 . S
C230 C228 1.363 . S
C230 C231 1.370 . S
C230 C234 1.524 . S
C231 C223 1.503 . S
C231 C230 1.370 . S
C231 C232 1.403 . S
C232 C231 1.403 . S
C232 C233 1.404 . S
C232 C235 1.539 . S
C233 C229 1.408 . S
C233 C232 1.404 . S
C233 H245 0.930 . S
C234 C230 1.524 . S
C234 H246 0.956 . S
C234 H247 0.961 . S
C234 H248 0.961 . S
C235 C232 1.539 . S
C235 H249 0.958 . S
C235 H250 0.961 . S
C235 H251 0.960 . S
H236 C220 0.931 . S
H237 C225 0.929 . S
H238 C226 0.960 . S
H239 C226 0.962 . S
H240 C226 0.960 . S
H241 C227 0.961 . S
H242 C227 0.961 . S
H243 C227 0.961 . S
H244 C228 0.931 . S
H245 C233 0.930 . S
H246 C234 0.956 . S
H247 C234 0.961 . S
H248 C234 0.961 . S
H249 C235 0.958 . S
H250 C235 0.961 . S
H251 C235 0.960 . S
C252 C253 1.391 1_455 S
C252 C254 1.394 . S
C252 H268 0.931 . S
C253 C252 1.391 1_655 S
C253 C257 1.376 . S
C254 C252 1.394 . S
C254 C255 1.369 1_455 S
C254 C258 1.531 . S
C255 C254 1.369 1_655 S
C255 C256 1.410 . S
C255 C263 1.503 . S
C256 C255 1.410 . S
C256 C257 1.392 . S
C256 C259 1.511 . S
C257 C253 1.376 . S
C257 C256 1.392 . S
C257 H269 0.929 . S
C258 C254 1.531 . S
C258 H270 0.960 . S
C258 H271 0.962 . S
C258 H272 0.960 . S
C259 C256 1.511 . S
C259 H273 0.961 . S
C259 H274 0.961 . S
C259 H275 0.961 . S
C260 C261 1.370 . S
C260 C262 1.363 . S
C260 H276 0.929 1_655 S
C261 C260 1.370 . S
C261 C265 1.408 . S
C262 C260 1.363 . S
C262 C263 1.370 . S
C262 C266 1.524 1_655 S
C263 C255 1.503 . S
C263 C262 1.370 . S
C263 C264 1.403 . S
C264 C263 1.403 . S
C264 C265 1.404 . S
C264 C267 1.539 . S
C265 C261 1.408 . S
C265 C264 1.404 . S
C265 H277 0.930 . S
C266 C262 1.524 1_455 S
C266 H278 0.956 . S
C266 H279 0.961 1_455 S
C266 H280 0.961 . S
C267 C264 1.539 . S
C267 H281 0.958 1_655 S
C267 H282 0.961 . S
C267 H283 0.960 . S
H268 C252 0.931 . S
H269 C257 0.929 . S
H270 C258 0.960 . S
H271 C258 0.962 . S
H272 C258 0.960 . S
H273 C259 0.961 . S
H274 C259 0.961 . S
H275 C259 0.961 . S
H276 C260 0.929 1_455 S
H277 C265 0.930 . S
H278 C266 0.956 . S
H279 C266 0.961 1_655 S
H280 C266 0.961 . S
H281 C267 0.958 1_455 S
H282 C267 0.961 . S
H283 C267 0.960 . S
C284 C285 1.391 . S
C284 C286 1.394 . S
C284 H300 0.931 . S
C285 C284 1.391 . S
C285 C289 1.376 1_554 S
C286 C284 1.394 . S
C286 C287 1.369 1_554 S
C286 C290 1.531 . S
C287 C286 1.369 1_556 S
C287 C288 1.410 . S
C287 C295 1.503 . S
C288 C287 1.410 . S
C288 C289 1.392 . S
C288 C291 1.511 . S
C289 C285 1.376 1_556 S
C289 C288 1.392 . S
C289 H301 0.929 . S
C290 C286 1.531 . S
C290 H302 0.960 . S
C290 H303 0.962 . S
C290 H304 0.960 . S
C291 C288 1.511 . S
C291 H305 0.961 . S
C291 H306 0.961 . S
C291 H307 0.961 . S
C292 C293 1.370 . S
C292 C294 1.363 . S
C292 H308 0.931 1_565 S
C293 C292 1.370 . S
C293 C297 1.408 . S
C294 C292 1.363 . S
C294 C295 1.370 . S
C294 C298 1.524 1_565 S
C295 C287 1.503 . S
C295 C294 1.370 . S
C295 C296 1.403 . S
C296 C295 1.403 . S
C296 C297 1.404 . S
C296 C299 1.539 . S
C297 C293 1.408 . S
C297 C296 1.404 . S
C297 H309 0.930 . S
C298 C294 1.524 1_545 S
C298 H310 0.956 1_546 S
C298 H311 0.961 1_545 S
C298 H312 0.961 . S
C299 C296 1.539 . S
C299 H313 0.958 . S
C299 H314 0.961 . S
C299 H315 0.960 . S
H300 C284 0.931 . S
H301 C289 0.929 . S
H302 C290 0.960 . S
H303 C290 0.962 . S
H304 C290 0.960 . S
H305 C291 0.961 . S
H306 C291 0.961 . S
H307 C291 0.961 . S
H308 C292 0.931 1_545 S
H309 C297 0.930 . S
H310 C298 0.956 1_564 S
H311 C298 0.961 1_565 S
H312 C298 0.961 . S
H313 C299 0.958 . S
H314 C299 0.961 . S
H315 C299 0.960 . S
C316 C317 1.391 . S
C316 C318 1.394 . S
C316 H332 0.931 . S
C317 C316 1.391 . S
C317 C321 1.376 . S
C318 C316 1.394 . S
C318 C319 1.369 1_554 S
C318 C322 1.531 . S
C319 C318 1.369 1_556 S
C319 C320 1.410 . S
C319 C327 1.503 . S
C320 C319 1.410 . S
C320 C321 1.392 1_556 S
C320 C323 1.511 . S
C321 C317 1.376 . S
C321 C320 1.392 1_554 S
C321 H333 0.929 . S
C322 C318 1.531 . S
C322 H334 0.960 . S
C322 H335 0.962 1_554 S
C322 H336 0.960 . S
C323 C320 1.511 . S
C323 H337 0.961 . S
C323 H338 0.961 . S
C323 H339 0.961 . S
C324 C325 1.370 . S
C324 C326 1.363 . S
C324 H340 0.931 . S
C325 C324 1.370 . S
C325 C329 1.408 . S
C326 C324 1.363 . S
C326 C327 1.370 . S
C326 C330 1.524 . S
C327 C319 1.503 . S
C327 C326 1.370 . S
C327 C328 1.403 . S
C328 C327 1.403 . S
C328 C329 1.404 . S
C328 C331 1.539 1_556 S
C329 C325 1.408 . S
C329 C328 1.404 . S
C329 H341 0.930 . S
C330 C326 1.524 . S
C330 H342 0.956 . S
C330 H343 0.961 . S
C330 H344 0.961 . S
C331 C328 1.539 1_554 S
C331 H345 0.958 . S
C331 H346 0.961 . S
C331 H347 0.960 . S
H332 C316 0.931 . S
H333 C321 0.929 . S
H334 C322 0.960 . S
H335 C322 0.962 1_556 S
H336 C322 0.960 . S
H337 C323 0.961 . S
H338 C323 0.961 . S
H339 C323 0.961 . S
H340 C324 0.931 . S
H341 C329 0.930 . S
H342 C330 0.956 . S
H343 C330 0.961 . S
H344 C330 0.961 . S
H345 C331 0.958 . S
H346 C331 0.961 . S
H347 C331 0.960 . S
C348 C349 1.391 . S
C348 C350 1.394 1_554 S
C348 H364 0.931 . S
C349 C348 1.391 . S
C349 C353 1.376 . S
C350 C348 1.394 1_556 S
C350 C351 1.369 . S
C350 C354 1.531 . S
C351 C350 1.369 . S
C351 C352 1.410 . S
C351 C359 1.503 . S
C352 C351 1.410 . S
C352 C353 1.392 1_556 S
C352 C355 1.511 . S
C353 C349 1.376 . S
C353 C352 1.392 1_554 S
C353 H365 0.929 . S
C354 C350 1.531 . S
C354 H366 0.960 . S
C354 H367 0.962 . S
C354 H368 0.960 1_556 S
C355 C352 1.511 . S
C355 H369 0.961 . S
C355 H370 0.961 . S
C355 H371 0.961 1_556 S
C356 C357 1.370 . S
C356 C358 1.363 . S
C356 H372 0.931 . S
C357 C356 1.370 . S
C357 C361 1.408 . S
C358 C356 1.363 . S
C358 C359 1.370 . S
C358 C362 1.524 . S
C359 C351 1.503 . S
C359 C358 1.370 . S
C359 C360 1.403 . S
C360 C359 1.403 . S
C360 C361 1.404 . S
C360 C363 1.539 1_556 S
C361 C357 1.408 . S
C361 C360 1.404 . S
C361 H373 0.930 . S
C362 C358 1.524 . S
C362 H374 0.956 . S
C362 H375 0.961 . S
C362 H376 0.961 . S
C363 C360 1.539 1_554 S
C363 H377 0.958 . S
C363 H378 0.961 . S
C363 H379 0.960 . S
H364 C348 0.931 . S
H365 C353 0.929 . S
H366 C354 0.960 . S
H367 C354 0.962 . S
H368 C354 0.960 1_554 S
H369 C355 0.961 . S
H370 C355 0.961 . S
H371 C355 0.961 1_554 S
H372 C356 0.931 . S
H373 C361 0.930 . S
H374 C362 0.956 . S
H375 C362 0.961 . S
H376 C362 0.961 . S
H377 C363 0.958 . S
H378 C363 0.961 . S
H379 C363 0.960 . S
C380 C381 1.391 1_655 S
C380 C382 1.394 1_554 S
C380 H396 0.931 . S
C381 C380 1.391 1_455 S
C381 C385 1.376 . S
C382 C380 1.394 1_556 S
C382 C383 1.369 1_655 S
C382 C386 1.531 . S
C383 C382 1.369 1_455 S
C383 C384 1.410 1_556 S
C383 C391 1.503 . S
C384 C383 1.410 1_554 S
C384 C385 1.392 . S
C384 C387 1.511 . S
C385 C381 1.376 . S
C385 C384 1.392 . S
C385 H397 0.929 . S
C386 C382 1.531 . S
C386 H398 0.960 . S
C386 H399 0.962 . S
C386 H400 0.960 . S
C387 C384 1.511 . S
C387 H401 0.961 . S
C387 H402 0.961 1_554 S
C387 H403 0.961 1_554 S
C388 C389 1.370 1_655 S
C388 C390 1.363 . S
C388 H404 0.931 . S
C389 C388 1.370 1_455 S
C389 C393 1.408 . S
C390 C388 1.363 . S
C390 C391 1.370 1_655 S
C390 C394 1.524 1_556 S
C391 C383 1.503 . S
C391 C390 1.370 1_455 S
C391 C392 1.403 . S
C392 C391 1.403 . S
C392 C393 1.404 . S
C392 C395 1.539 . S
C393 C389 1.408 . S
C393 C392 1.404 . S
C393 H405 0.930 . S
C394 C390 1.524 1_554 S
C394 H406 0.956 . S
C394 H407 0.961 . S
C394 H408 0.961 . S
C395 C392 1.539 . S
C395 H409 0.958 . S
C395 H410 0.961 . S
C395 H411 0.960 . S
H396 C380 0.931 . S
H397 C385 0.929 . S
H398 C386 0.960 . S
H399 C386 0.962 . S
H400 C386 0.960 . S
H401 C387 0.961 . S
H402 C387 0.961 1_556 S
H403 C387 0.961 1_556 S
H404 C388 0.931 . S
H405 C393 0.930 . S
H406 C394 0.956 . S
H407 C394 0.961 . S
H408 C394 0.961 . S
H409 C395 0.958 . S
H410 C395 0.961 . S
H411 C395 0.960 . S
C412 C413 1.405 . S
C412 C414 1.394 . S
C412 H428 0.931 . S
C413 C412 1.405 . S
C413 C417 1.359 1_455 S
C414 C412 1.394 . S
C414 C415 1.369 1_455 S
C414 C418 1.531 . S
C415 C414 1.369 1_655 S
C415 C416 1.410 . S
C415 C423 1.503 . S
C416 C415 1.410 . S
C416 C417 1.392 . S
C416 C419 1.511 . S
C417 C413 1.359 1_655 S
C417 C416 1.392 . S
C417 H429 0.929 . S
C418 C414 1.531 . S
C418 H430 0.960 . S
C418 H431 0.962 . S
C418 H432 0.960 . S
C419 C416 1.511 . S
C419 H433 0.961 . S
C419 H434 0.961 . S
C419 H435 0.961 . S
C420 C421 1.370 . S
C420 C422 1.363 . S
C420 H436 0.931 . S
C421 C420 1.370 . S
C421 C425 1.408 . S
C422 C420 1.363 . S
C422 C423 1.370 . S
C422 C426 1.529 . S
C423 C415 1.503 . S
C423 C422 1.370 . S
C423 C424 1.403 . S
C424 C423 1.403 . S
C424 C425 1.404 . S
C424 C427 1.539 . S
C425 C421 1.408 . S
C425 C424 1.404 . S
C425 H437 0.930 . S
C426 C422 1.529 . S
C426 H438 0.936 1_655 S
C426 H439 0.974 . S
C426 H440 0.960 . S
C427 C424 1.539 . S
C427 H441 0.958 . S
C427 H442 0.961 . S
C427 H443 0.960 . S
H428 C412 0.931 . S
H429 C417 0.929 . S
H430 C418 0.960 . S
H431 C418 0.962 . S
H432 C418 0.960 . S
H433 C419 0.961 . S
H434 C419 0.961 . S
H435 C419 0.961 . S
H436 C420 0.931 . S
H437 C425 0.930 . S
H438 C426 0.936 1_455 S
H439 C426 0.974 . S
H440 C426 0.960 . S
H441 C427 0.958 . S
H442 C427 0.961 . S
H443 C427 0.960 . S
C444 C445 1.391 . S
C444 C446 1.394 . S
C444 H460 0.931 . S
C445 C444 1.391 . S
C445 C449 1.376 . S
C446 C444 1.394 . S
C446 C447 1.369 . S
C446 C450 1.531 . S
C447 C446 1.369 . S
C447 C448 1.410 . S
C447 C455 1.503 . S
C448 C447 1.410 . S
C448 C449 1.392 . S
C448 C451 1.511 . S
C449 C445 1.376 . S
C449 C448 1.392 . S
C449 H461 0.929 . S
C450 C446 1.531 . S
C450 H462 0.960 . S
C450 H463 0.962 . S
C450 H464 0.960 . S
C451 C448 1.511 . S
C451 H465 0.961 . S
C451 H466 0.961 . S
C451 H467 0.961 . S
C452 C453 1.370 . S
C452 C454 1.363 . S
C452 H468 0.918 1_545 S
C453 C452 1.370 . S
C453 C457 1.408 . S
C454 C452 1.363 . S
C454 C455 1.370 . S
C454 C458 1.524 . S
C455 C447 1.503 . S
C455 C454 1.370 . S
C455 C456 1.403 . S
C456 C455 1.403 . S
C456 C457 1.404 . S
C456 C459 1.539 . S
C457 C453 1.408 . S
C457 C456 1.404 . S
C457 H469 0.930 . S
C458 C454 1.524 . S
C458 H470 0.956 . S
C458 H471 0.961 . S
C458 H472 0.961 . S
C459 C456 1.539 . S
C459 H473 0.958 . S
C459 H474 0.961 . S
C459 H475 0.960 . S
H460 C444 0.931 . S
H461 C449 0.929 . S
H462 C450 0.960 . S
H463 C450 0.962 . S
H464 C450 0.960 . S
H465 C451 0.961 . S
H466 C451 0.961 . S
H467 C451 0.961 . S
H468 C452 0.918 1_565 S
H469 C457 0.930 . S
H470 C458 0.956 . S
H471 C458 0.961 . S
H472 C458 0.961 . S
H473 C459 0.958 . S
H474 C459 0.961 . S
H475 C459 0.960 . S
C476 C477 1.391 . S
C476 C478 1.394 . S
C476 H492 0.931 . S
C477 C476 1.391 . S
C477 C481 1.376 . S
C478 C476 1.394 . S
C478 C479 1.369 . S
C478 C482 1.531 . S
C479 C478 1.369 . S
C479 C480 1.410 . S
C479 C487 1.503 . S
C480 C479 1.410 . S
C480 C481 1.392 . S
C480 C483 1.511 . S
C481 C477 1.376 . S
C481 C480 1.392 . S
C481 H493 0.929 . S
C482 C478 1.531 . S
C482 H494 0.960 . S
C482 H495 0.962 . S
C482 H496 0.960 . S
C483 C480 1.511 . S
C483 H497 0.961 . S
C483 H498 0.961 . S
C483 H499 0.961 . S
C484 C485 1.370 . S
C484 C486 1.363 . S
C484 H500 0.931 . S
C485 C484 1.370 . S
C485 C489 1.408 . S
C486 C484 1.363 . S
C486 C487 1.370 . S
C486 C490 1.524 . S
C487 C479 1.503 . S
C487 C486 1.370 . S
C487 C488 1.403 . S
C488 C487 1.403 . S
C488 C489 1.404 . S
C488 C491 1.539 . S
C489 C485 1.408 . S
C489 C488 1.404 . S
C489 H501 0.930 . S
C490 C486 1.524 . S
C490 H502 0.956 . S
C490 H503 0.961 . S
C490 H504 0.961 . S
C491 C488 1.539 . S
C491 H505 0.958 . S
C491 H506 0.961 . S
C491 H507 0.960 . S
H492 C476 0.931 . S
H493 C481 0.929 . S
H494 C482 0.960 . S
H495 C482 0.962 . S
H496 C482 0.960 . S
H497 C483 0.961 . S
H498 C483 0.961 . S
H499 C483 0.961 . S
H500 C484 0.931 . S
H501 C489 0.930 . S
H502 C490 0.956 . S
H503 C490 0.961 . S
H504 C490 0.961 . S
H505 C491 0.958 . S
H506 C491 0.961 . S
H507 C491 0.960 . S
C508 C509 1.391 . S
C508 C510 1.394 . S
C508 H524 0.931 . S
C509 C508 1.391 . S
C509 C513 1.376 . S
C510 C508 1.394 . S
C510 C511 1.369 . S
C510 C514 1.531 . S
C511 C510 1.369 . S
C511 C512 1.410 . S
C511 C519 1.503 . S
C512 C511 1.410 . S
C512 C513 1.392 . S
C512 C515 1.511 . S
C513 C509 1.376 . S
C513 C512 1.392 . S
C513 H525 0.929 . S
C514 C510 1.531 . S
C514 H526 0.960 . S
C514 H527 0.962 . S
C514 H528 0.960 . S
C515 C512 1.511 . S
C515 H529 0.961 . S
C515 H530 0.961 . S
C515 H531 0.961 . S
C516 C517 1.370 . S
C516 C518 1.363 . S
C516 H532 0.931 . S
C517 C516 1.370 . S
C517 C521 1.408 . S
C518 C516 1.363 . S
C518 C519 1.370 . S
C518 C522 1.524 . S
C519 C511 1.503 . S
C519 C518 1.370 . S
C519 C520 1.403 . S
C520 C519 1.403 . S
C520 C521 1.404 . S
C520 C523 1.539 . S
C521 C517 1.408 . S
C521 C520 1.404 . S
C521 H533 0.930 . S
C522 C518 1.524 . S
C522 H534 0.956 . S
C522 H535 0.961 . S
C522 H536 0.961 . S
C523 C520 1.539 . S
C523 H537 0.958 . S
C523 H538 0.961 . S
C523 H539 0.960 . S
H524 C508 0.931 . S
H525 C513 0.929 . S
H526 C514 0.960 . S
H527 C514 0.962 . S
H528 C514 0.960 . S
H529 C515 0.961 . S
H530 C515 0.961 . S
H531 C515 0.961 . S
H532 C516 0.931 . S
H533 C521 0.930 . S
H534 C522 0.956 . S
H535 C522 0.961 . S
H536 C522 0.961 . S
H537 C523 0.958 . S
H538 C523 0.961 . S
H539 C523 0.960 . S
C540 C541 1.362 1_455 S
C540 C542 1.394 1_554 S
C540 H556 0.931 . S
C541 C540 1.362 1_655 S
C541 C545 1.401 . S
C542 C540 1.394 1_556 S
C542 C543 1.369 . S
C542 C546 1.531 . S
C543 C542 1.369 . S
C543 C544 1.410 1_455 S
C543 C551 1.503 . S
C544 C543 1.410 1_655 S
C544 C545 1.392 1_556 S
C544 C547 1.511 . S
C545 C541 1.401 . S
C545 C544 1.392 1_554 S
C545 H557 0.929 . S
C546 C542 1.531 . S
C546 H558 0.960 . S
C546 H559 0.962 . S
C546 H560 0.960 . S
C547 C544 1.511 . S
C547 H561 0.961 . S
C547 H562 0.961 . S
C547 H563 0.961 . S
C548 C549 1.370 . S
C548 C550 1.363 . S
C548 H564 0.931 . S
C549 C548 1.370 . S
C549 C553 1.408 . S
C550 C548 1.363 . S
C550 C551 1.370 . S
C550 C554 1.524 1_556 S
C551 C543 1.503 . S
C551 C550 1.370 . S
C551 C552 1.403 . S
C552 C551 1.403 . S
C552 C553 1.404 . S
C552 C555 1.539 . S
C553 C549 1.408 . S
C553 C552 1.404 . S
C553 H565 0.930 . S
C554 C550 1.524 1_554 S
C554 H566 0.956 . S
C554 H567 0.961 1_455 S
C554 H568 0.961 . S
C555 C552 1.539 . S
C555 H569 0.958 . S
C555 H570 0.961 1_455 S
C555 H571 0.960 1_455 S
H556 C540 0.931 . S
H557 C545 0.929 . S
H558 C546 0.960 . S
H559 C546 0.962 . S
H560 C546 0.960 . S
H561 C547 0.961 . S
H562 C547 0.961 . S
H563 C547 0.961 . S
H564 C548 0.931 . S
H565 C553 0.930 . S
H566 C554 0.956 . S
H567 C554 0.961 1_655 S
H568 C554 0.961 . S
H569 C555 0.958 . S
H570 C555 0.961 1_655 S
H571 C555 0.960 1_655 S
C572 C573 1.391 . S
C572 C574 1.394 . S
C572 H588 0.931 . S
C573 C572 1.391 . S
C573 C577 1.376 1_554 S
C574 C572 1.394 . S
C574 C575 1.369 1_554 S
C574 C578 1.531 . S
C575 C574 1.369 1_556 S
C575 C576 1.410 . S
C575 C583 1.503 . S
C576 C575 1.410 . S
C576 C577 1.392 . S
C576 C579 1.511 . S
C577 C573 1.376 1_556 S
C577 C576 1.392 . S
C577 H589 0.929 . S
C578 C574 1.531 . S
C578 H590 0.960 . S
C578 H591 0.962 . S
C578 H592 0.960 . S
C579 C576 1.511 . S
C579 H593 0.961 . S
C579 H594 0.961 . S
C579 H595 0.961 . S
C580 C581 1.370 . S
C580 C582 1.363 . S
C580 H596 0.931 . S
C581 C580 1.370 . S
C581 C585 1.408 1_565 S
C582 C580 1.363 . S
C582 C583 1.370 . S
C582 C586 1.524 . S
C583 C575 1.503 . S
C583 C582 1.370 . S
C583 C584 1.403 . S
C584 C583 1.403 . S
C584 C585 1.404 1_565 S
C584 C587 1.539 1_565 S
C585 C581 1.408 1_545 S
C585 C584 1.404 1_545 S
C585 H597 0.930 . S
C586 C582 1.524 . S
C586 H598 0.956 . S
C586 H599 0.961 . S
C586 H600 0.961 . S
C587 C584 1.539 1_545 S
C587 H601 0.958 1_556 S
C587 H602 0.961 . S
C587 H603 0.960 . S
H588 C572 0.931 . S
H589 C577 0.929 . S
H590 C578 0.960 . S
H591 C578 0.962 . S
H592 C578 0.960 . S
H593 C579 0.961 . S
H594 C579 0.961 . S
H595 C579 0.961 . S
H596 C580 0.931 . S
H597 C585 0.930 . S
H598 C586 0.956 . S
H599 C586 0.961 . S
H600 C586 0.961 . S
H601 C587 0.958 1_554 S
H602 C587 0.961 . S
H603 C587 0.960 . S
C604 C605 1.391 . S
C604 C606 1.394 1_554 S
C604 H620 0.931 . S
C605 C604 1.391 . S
C605 C609 1.376 . S
C606 C604 1.394 1_556 S
C606 C607 1.369 . S
C606 C610 1.531 . S
C607 C606 1.369 . S
C607 C608 1.410 . S
C607 C615 1.503 . S
C608 C607 1.410 . S
C608 C609 1.392 1_556 S
C608 C611 1.511 . S
C609 C605 1.376 . S
C609 C608 1.392 1_554 S
C609 H621 0.929 . S
C610 C606 1.531 . S
C610 H622 0.960 . S
C610 H623 0.962 . S
C610 H624 0.960 1_556 S
C611 C608 1.511 . S
C611 H625 0.961 . S
C611 H626 0.961 . S
C611 H627 0.961 1_556 S
C612 C613 1.370 . S
C612 C614 1.363 . S
C612 H628 0.931 . S
C613 C612 1.370 . S
C613 C617 1.408 . S
C614 C612 1.363 . S
C614 C615 1.370 . S
C614 C618 1.524 . S
C615 C607 1.503 . S
C615 C614 1.370 . S
C615 C616 1.403 . S
C616 C615 1.403 . S
C616 C617 1.404 . S
C616 C619 1.539 1_556 S
C617 C613 1.408 . S
C617 C616 1.404 . S
C617 H629 0.930 . S
C618 C614 1.524 . S
C618 H630 0.956 . S
C618 H631 0.961 . S
C618 H632 0.961 . S
C619 C616 1.539 1_554 S
C619 H633 0.958 . S
C619 H634 0.961 . S
C619 H635 0.960 . S
H620 C604 0.931 . S
H621 C609 0.929 . S
H622 C610 0.960 . S
H623 C610 0.962 . S
H624 C610 0.960 1_554 S
H625 C611 0.961 . S
H626 C611 0.961 . S
H627 C611 0.961 1_554 S
H628 C612 0.931 . S
H629 C617 0.930 . S
H630 C618 0.956 . S
H631 C618 0.961 . S
H632 C618 0.961 . S
H633 C619 0.958 . S
H634 C619 0.961 . S
H635 C619 0.960 . S
C636 C637 1.391 1_556 S
C636 C638 1.394 . S
C636 H652 0.931 . S
C637 C636 1.391 1_554 S
C637 C641 1.376 . S
C638 C636 1.394 . S
C638 C639 1.369 . S
C638 C642 1.531 . S
C639 C638 1.369 . S
C639 C640 1.410 1_556 S
C639 C647 1.503 . S
C640 C639 1.410 1_554 S
C640 C641 1.392 . S
C640 C643 1.511 . S
C641 C637 1.376 . S
C641 C640 1.392 . S
C641 H653 0.929 . S
C642 C638 1.531 . S
C642 H654 0.960 . S
C642 H655 0.962 . S
C642 H656 0.960 . S
C643 C640 1.511 . S
C643 H657 0.961 . S
C643 H658 0.961 1_554 S
C643 H659 0.961 . S
C644 C645 1.370 . S
C644 C646 1.363 . S
C644 H660 0.931 . S
C645 C644 1.370 . S
C645 C649 1.408 . S
C646 C644 1.363 . S
C646 C647 1.370 . S
C646 C650 1.524 . S
C647 C639 1.503 . S
C647 C646 1.370 . S
C647 C648 1.403 . S
C648 C647 1.403 . S
C648 C649 1.404 . S
C648 C651 1.539 1_556 S
C649 C645 1.408 . S
C649 C648 1.404 . S
C649 H661 0.930 . S
C650 C646 1.524 . S
C650 H662 0.956 . S
C650 H663 0.961 . S
C650 H664 0.961 . S
C651 C648 1.539 1_554 S
C651 H665 0.958 . S
C651 H666 0.961 . S
C651 H667 0.960 . S
H652 C636 0.931 . S
H653 C641 0.929 . S
H654 C642 0.960 . S
H655 C642 0.962 . S
H656 C642 0.960 . S
H657 C643 0.961 . S
H658 C643 0.961 1_556 S
H659 C643 0.961 . S
H660 C644 0.931 . S
H661 C649 0.930 . S
H662 C650 0.956 . S
H663 C650 0.961 . S
H664 C650 0.961 . S
H665 C651 0.958 . S
H666 C651 0.961 . S
H667 C651 0.960 . S
C668 C669 1.391 . S
C668 C670 1.394 . S
C668 H684 0.931 . S
C669 C668 1.391 . S
C669 C673 1.376 1_455 S
C670 C668 1.394 . S
C670 C671 1.369 . S
C670 C674 1.531 . S
C671 C670 1.369 . S
C671 C672 1.410 1_455 S
C671 C679 1.503 . S
C672 C671 1.410 1_655 S
C672 C673 1.392 . S
C672 C675 1.511 . S
C673 C669 1.376 1_655 S
C673 C672 1.392 . S
C673 H685 0.929 . S
C674 C670 1.531 . S
C674 H686 0.960 . S
C674 H687 0.962 . S
C674 H688 0.960 . S
C675 C672 1.511 . S
C675 H689 0.961 . S
C675 H690 0.961 . S
C675 H691 0.961 . S
C676 C677 1.370 . S
C676 C678 1.363 . S
C676 H692 0.931 . S
C677 C676 1.370 . S
C677 C681 1.408 . S
C678 C676 1.363 . S
C678 C679 1.370 1_556 S
C678 C682 1.524 . S
C679 C671 1.503 . S
C679 C678 1.370 1_554 S
C679 C680 1.403 . S
C680 C679 1.403 . S
C680 C681 1.404 1_554 S
C680 C683 1.542 . S
C681 C677 1.408 . S
C681 C680 1.404 1_556 S
C681 H693 0.930 1_556 S
C682 C678 1.524 . S
C682 H694 0.956 . S
C682 H695 0.961 1_455 S
C682 H696 0.961 . S
C683 C680 1.542 . S
C683 H697 0.971 . S
C683 H698 0.953 1_455 S
C683 H699 0.952 1_455 S
H684 C668 0.931 . S
H685 C673 0.929 . S
H686 C674 0.960 . S
H687 C674 0.962 . S
H688 C674 0.960 . S
H689 C675 0.961 . S
H690 C675 0.961 . S
H691 C675 0.961 . S
H692 C676 0.931 . S
H693 C681 0.930 1_554 S
H694 C682 0.956 . S
H695 C682 0.961 1_655 S
H696 C682 0.961 . S
H697 C683 0.971 . S
H698 C683 0.953 1_655 S
H699 C683 0.952 1_655 S
C700 C701 1.391 . S
C700 C702 1.394 . S
C700 H716 0.931 . S
C701 C700 1.391 . S
C701 C705 1.376 . S
C702 C700 1.394 . S
C702 C703 1.369 . S
C702 C706 1.531 1_554 S
C703 C702 1.369 . S
C703 C704 1.410 . S
C703 C711 1.506 . S
C704 C703 1.410 . S
C704 C705 1.392 . S
C704 C707 1.511 . S
C705 C701 1.376 . S
C705 C704 1.392 . S
C705 H717 0.929 . S
C706 C702 1.531 1_556 S
C706 H718 0.960 . S
C706 H719 0.962 . S
C706 H720 0.960 . S
C707 C704 1.511 . S
C707 H721 0.961 . S
C707 H722 0.961 . S
C707 H723 0.961 . S
C708 C709 1.370 . S
C708 C710 1.363 1_556 S
C708 H724 0.931 . S
C709 C708 1.370 . S
C709 C713 1.408 . S
C710 C708 1.363 1_554 S
C710 C711 1.372 . S
C710 C714 1.524 . S
C711 C703 1.506 . S
C711 C710 1.372 . S
C711 C712 1.398 1_554 S
C712 C711 1.398 1_556 S
C712 C713 1.404 . S
C712 C715 1.539 . S
C713 C709 1.408 . S
C713 C712 1.404 . S
C713 H725 0.930 . S
C714 C710 1.524 . S
C714 H726 0.956 . S
C714 H727 0.961 . S
C714 H728 0.961 . S
C715 C712 1.539 . S
C715 H729 0.958 . S
C715 H730 0.961 . S
C715 H731 0.960 . S
H716 C700 0.931 . S
H717 C705 0.929 . S
H718 C706 0.960 . S
H719 C706 0.962 . S
H720 C706 0.960 . S
H721 C707 0.961 . S
H722 C707 0.961 . S
H723 C707 0.961 . S
H724 C708 0.931 . S
H725 C713 0.930 . S
H726 C714 0.956 . S
H727 C714 0.961 . S
H728 C714 0.961 . S
H729 C715 0.958 . S
H730 C715 0.961 . S
H731 C715 0.960 . S
C732 C733 1.391 . S
C732 C734 1.394 . S
C732 H748 0.931 . S
C733 C732 1.391 . S
C733 C737 1.376 . S
C734 C732 1.394 . S
C734 C735 1.369 . S
C734 C738 1.531 . S
C735 C734 1.369 . S
C735 C736 1.410 . S
C735 C743 1.503 1_554 S
C736 C735 1.410 . S
C736 C737 1.392 . S
C736 C739 1.511 . S
C737 C733 1.376 . S
C737 C736 1.392 . S
C737 H749 0.929 . S
C738 C734 1.531 . S
C738 H750 0.960 . S
C738 H751 0.962 . S
C738 H752 0.960 . S
C739 C736 1.511 . S
C739 H753 0.961 . S
C739 H754 0.961 1_554 S
C739 H755 0.961 1_554 S
C740 C741 1.370 . S
C740 C742 1.363 1_556 S
C740 H756 0.925 1_556 S
C741 C740 1.370 . S
C741 C745 1.408 . S
C742 C740 1.363 1_554 S
C742 C743 1.370 1_554 S
C742 C746 1.524 . S
C743 C735 1.503 1_556 S
C743 C742 1.370 1_556 S
C743 C744 1.403 . S
C744 C743 1.403 . S
C744 C745 1.404 . S
C744 C747 1.539 . S
C745 C741 1.408 . S
C745 C744 1.404 . S
C745 H757 0.930 . S
C746 C742 1.524 . S
C746 H758 0.956 . S
C746 H759 0.961 . S
C746 H760 0.961 . S
C747 C744 1.539 . S
C747 H761 0.958 . S
C747 H762 0.961 . S
C747 H763 0.960 . S
H748 C732 0.931 . S
H749 C737 0.929 . S
H750 C738 0.960 . S
H751 C738 0.962 . S
H752 C738 0.960 . S
H753 C739 0.961 . S
H754 C739 0.961 1_556 S
H755 C739 0.961 1_556 S
H756 C740 0.925 1_554 S
H757 C745 0.930 . S
H758 C746 0.956 . S
H759 C746 0.961 . S
H760 C746 0.961 . S
H761 C747 0.958 . S
H762 C747 0.961 . S
H763 C747 0.960 . S
C764 C765 1.391 . S
C764 C766 1.394 . S
C764 H780 0.931 . S
C765 C764 1.391 . S
C765 C769 1.376 . S
C766 C764 1.394 . S
C766 C767 1.369 . S
C766 C770 1.531 . S
C767 C766 1.369 . S
C767 C768 1.410 . S
C767 C775 1.503 . S
C768 C767 1.410 . S
C768 C769 1.392 . S
C768 C771 1.511 1_554 S
C769 C765 1.376 . S
C769 C768 1.392 . S
C769 H781 0.929 . S
C770 C766 1.531 . S
C770 H782 0.960 . S
C770 H783 0.962 . S
C770 H784 0.960 . S
C771 C768 1.511 1_556 S
C771 H785 0.961 . S
C771 H786 0.961 . S
C771 H787 0.961 . S
C772 C773 1.370 . S
C772 C774 1.363 . S
C772 H788 0.931 . S
C773 C772 1.370 . S
C773 C777 1.408 . S
C774 C772 1.363 . S
C774 C775 1.370 1_556 S
C774 C778 1.524 . S
C775 C767 1.503 . S
C775 C774 1.370 1_554 S
C775 C776 1.403 . S
C776 C775 1.403 . S
C776 C777 1.404 1_554 S
C776 C779 1.539 . S
C777 C773 1.408 . S
C777 C776 1.404 1_556 S
C777 H789 0.930 . S
C778 C774 1.524 . S
C778 H790 0.956 1_556 S
C778 H791 0.961 . S
C778 H792 0.961 . S
C779 C776 1.539 . S
C779 H793 0.958 . S
C779 H794 0.961 . S
C779 H795 0.960 . S
H780 C764 0.931 . S
H781 C769 0.929 . S
H782 C770 0.960 . S
H783 C770 0.962 . S
H784 C770 0.960 . S
H785 C771 0.961 . S
H786 C771 0.961 . S
H787 C771 0.961 . S
H788 C772 0.931 . S
H789 C777 0.930 . S
H790 C778 0.956 1_554 S
H791 C778 0.961 . S
H792 C778 0.961 . S
H793 C779 0.958 . S
H794 C779 0.961 . S
H795 C779 0.960 . S
C796 C797 1.386 1_655 S
C796 C798 1.394 . S
C796 H812 0.931 . S
C797 C796 1.386 1_455 S
C797 C801 1.381 . S
C798 C796 1.394 . S
C798 C799 1.369 . S
C798 C802 1.531 . S
C799 C798 1.369 . S
C799 C800 1.410 1_655 S
C799 C807 1.503 . S
C800 C799 1.410 1_455 S
C800 C801 1.392 . S
C800 C803 1.511 . S
C801 C797 1.381 . S
C801 C800 1.392 . S
C801 H813 0.929 . S
C802 C798 1.531 . S
C802 H814 0.960 . S
C802 H815 0.962 . S
C802 H816 0.960 . S
C803 C800 1.511 . S
C803 H817 0.961 . S
C803 H818 0.961 . S
C803 H819 0.961 . S
C804 C805 1.370 . S
C804 C806 1.363 . S
C804 H820 0.931 . S
C805 C804 1.370 . S
C805 C809 1.408 1_655 S
C806 C804 1.363 . S
C806 C807 1.370 . S
C806 C810 1.524 . S
C807 C799 1.503 . S
C807 C806 1.370 . S
C807 C808 1.403 1_655 S
C808 C807 1.403 1_455 S
C808 C809 1.404 . S
C808 C811 1.539 . S
C809 C805 1.408 1_455 S
C809 C808 1.404 . S
C809 H821 0.930 . S
C810 C806 1.524 . S
C810 H822 0.956 . S
C810 H823 0.961 . S
C810 H824 0.961 . S
C811 C808 1.539 . S
C811 H825 0.958 . S
C811 H826 0.961 . S
C811 H827 0.960 . S
H812 C796 0.931 . S
H813 C801 0.929 . S
H814 C802 0.960 . S
H815 C802 0.962 . S
H816 C802 0.960 . S
H817 C803 0.961 . S
H818 C803 0.961 . S
H819 C803 0.961 . S
H820 C804 0.931 . S
H821 C809 0.930 . S
H822 C810 0.956 . S
H823 C810 0.961 . S
H824 C810 0.961 . S
H825 C811 0.958 . S
H826 C811 0.961 . S
H827 C811 0.960 . S
C828 C829 1.391 . S
C828 C830 1.394 . S
C828 H844 0.931 . S
C829 C828 1.391 . S
C829 C833 1.376 . S
C830 C828 1.394 . S
C830 C831 1.369 . S
C830 C834 1.531 . S
C831 C830 1.369 . S
C831 C832 1.410 . S
C831 C839 1.503 . S
C832 C831 1.410 . S
C832 C833 1.392 . S
C832 C835 1.511 . S
C833 C829 1.376 . S
C833 C832 1.392 . S
C833 H845 0.929 . S
C834 C830 1.531 . S
C834 H846 0.960 . S
C834 H847 0.962 . S
C834 H848 0.960 . S
C835 C832 1.511 . S
C835 H849 0.961 . S
C835 H850 0.961 . S
C835 H851 0.961 . S
C836 C837 1.370 . S
C836 C838 1.363 . S
C836 H852 0.931 1_565 S
C837 C836 1.370 . S
C837 C841 1.408 . S
C838 C836 1.363 . S
C838 C839 1.370 . S
C838 C842 1.524 . S
C839 C831 1.503 . S
C839 C838 1.370 . S
C839 C840 1.403 . S
C840 C839 1.403 . S
C840 C841 1.404 . S
C840 C843 1.539 . S
C841 C837 1.408 . S
C841 C840 1.404 . S
C841 H853 0.930 . S
C842 C838 1.524 . S
C842 H854 0.956 . S
C842 H855 0.961 . S
C842 H856 0.961 1_565 S
C843 C840 1.539 . S
C843 H857 0.958 . S
C843 H858 0.961 . S
C843 H859 0.960 . S
H844 C828 0.931 . S
H845 C833 0.929 . S
H846 C834 0.960 . S
H847 C834 0.962 . S
H848 C834 0.960 . S
H849 C835 0.961 . S
H850 C835 0.961 . S
H851 C835 0.961 . S
H852 C836 0.931 1_545 S
H853 C841 0.930 . S
H854 C842 0.956 . S
H855 C842 0.961 . S
H856 C842 0.961 1_545 S
H857 C843 0.958 . S
H858 C843 0.961 . S
H859 C843 0.960 . S
C860 C861 1.391 . S
C860 C862 1.394 . S
C860 H876 0.931 . S
C861 C860 1.391 . S
C861 C865 1.376 . S
C862 C860 1.394 . S
C862 C863 1.369 . S
C862 C866 1.531 . S
C863 C862 1.369 . S
C863 C864 1.410 . S
C863 C871 1.503 . S
C864 C863 1.410 . S
C864 C865 1.392 . S
C864 C867 1.511 . S
C865 C861 1.376 . S
C865 C864 1.392 . S
C865 H877 0.929 . S
C866 C862 1.531 . S
C866 H878 0.960 . S
C866 H879 0.962 . S
C866 H880 0.960 . S
C867 C864 1.511 . S
C867 H881 0.961 . S
C867 H882 0.961 . S
C867 H883 0.961 . S
C868 C869 1.370 . S
C868 C870 1.363 . S
C868 H884 0.931 . S
C869 C868 1.370 . S
C869 C873 1.408 . S
C870 C868 1.363 . S
C870 C871 1.370 . S
C870 C874 1.524 . S
C871 C863 1.503 . S
C871 C870 1.370 . S
C871 C872 1.403 . S
C872 C871 1.403 . S
C872 C873 1.404 . S
C872 C875 1.539 . S
C873 C869 1.408 . S
C873 C872 1.404 . S
C873 H885 0.930 . S
C874 C870 1.524 . S
C874 H886 0.956 . S
C874 H887 0.961 . S
C874 H888 0.961 . S
C875 C872 1.539 . S
C875 H889 0.958 . S
C875 H890 0.961 . S
C875 H891 0.960 . S
H876 C860 0.931 . S
H877 C865 0.929 . S
H878 C866 0.960 . S
H879 C866 0.962 . S
H880 C866 0.960 . S
H881 C867 0.961 . S
H882 C867 0.961 . S
H883 C867 0.961 . S
H884 C868 0.931 . S
H885 C873 0.930 . S
H886 C874 0.956 . S
H887 C874 0.961 . S
H888 C874 0.961 . S
H889 C875 0.958 . S
H890 C875 0.961 . S
H891 C875 0.960 . S
C892 C893 1.391 . S
C892 C894 1.394 . S
C892 H908 0.931 . S
C893 C892 1.391 . S
C893 C897 1.376 . S
C894 C892 1.394 . S
C894 C895 1.369 . S
C894 C898 1.531 . S
C895 C894 1.369 . S
C895 C896 1.410 . S
C895 C903 1.503 . S
C896 C895 1.410 . S
C896 C897 1.392 . S
C896 C899 1.511 . S
C897 C893 1.376 . S
C897 C896 1.392 . S
C897 H909 0.929 . S
C898 C894 1.531 . S
C898 H910 0.960 . S
C898 H911 0.962 . S
C898 H912 0.960 . S
C899 C896 1.511 . S
C899 H913 0.961 . S
C899 H914 0.961 . S
C899 H915 0.961 . S
C900 C901 1.370 . S
C900 C902 1.363 . S
C900 H916 0.931 . S
C901 C900 1.370 . S
C901 C905 1.408 . S
C902 C900 1.363 . S
C902 C903 1.370 . S
C902 C906 1.524 . S
C903 C895 1.503 . S
C903 C902 1.370 . S
C903 C904 1.403 . S
C904 C903 1.403 . S
C904 C905 1.404 . S
C904 C907 1.539 . S
C905 C901 1.408 . S
C905 C904 1.404 . S
C905 H917 0.930 . S
C906 C902 1.524 . S
C906 H918 0.956 . S
C906 H919 0.961 . S
C906 H920 0.961 . S
C907 C904 1.539 . S
C907 H921 0.958 . S
C907 H922 0.961 . S
C907 H923 0.960 . S
H908 C892 0.931 . S
H909 C897 0.929 . S
H910 C898 0.960 . S
H911 C898 0.962 . S
H912 C898 0.960 . S
H913 C899 0.961 . S
H914 C899 0.961 . S
H915 C899 0.961 . S
H916 C900 0.931 . S
H917 C905 0.930 . S
H918 C906 0.956 . S
H919 C906 0.961 . S
H920 C906 0.961 . S
H921 C907 0.958 . S
H922 C907 0.961 . S
H923 C907 0.960 . S
C157 C61 1.619 . S
C165 C87 1.531 . S
C197 C111 1.295 . S
C189 C70 1.447 . S
C229 C132 1.527 . S
C221 C43 1.668 . S
C261 C150 1.307 . S
C253 C52 1.501 . S
C293 C90 1.476 1_565 S
C285 C25 1.583 . S
C317 C34 1.387 . S
C325 C108 1.214 . S
C349 C7 1.572 . S
C357 C129 1.430 . S
C381 C16 1.349 1_455 S
C389 C153 1.231 . S
C421 C88 0.436 . S
C413 C50 0.504 1_455 S
C453 C106 0.599 . S
C445 C59 0.633 . S
C485 C127 0.454 . S
C477 C67 0.493 . S
C509 C41 0.514 . S
C517 C151 0.596 . S
C541 C14 0.581 . S
C549 C86 0.517 . S
C581 C110 0.650 1_565 S
C573 C23 0.598 . S
C613 C131 0.564 . S
C605 C31 0.495 . S
C637 C5 0.644 . S
C645 C149 0.660 . S
C669 C49 1.511 1_455 S
C677 C89 1.508 . S
C701 C58 1.707 . S
C709 C107 1.665 . S
C741 C128 1.481 . S
C733 C68 1.554 . S
C773 C152 1.663 . S
C765 C40 1.676 . S
C797 C13 1.440 1_455 S
C805 C85 1.370 . S
C837 C109 1.540 . S
C829 C22 1.555 . S
C869 C130 1.342 . S
C861 C32 1.416 . S
C893 C4 1.534 . S
C901 C148 1.553 . S
