# Generated by pormake.
# Topology zzz, (3,6)-cn, num edge types: 1
# Building blocks:
#     Node 0, Type 0, BuildingBlock: BELTOD_clean_linker_0, # of connection points: 3
#     Node 1, Type 0, BuildingBlock: BELTOD_clean_linker_0, # of connection points: 3
#     Node 2, Type 0, BuildingBlock: BELTOD_clean_linker_0, # of connection points: 3
#     Node 3, Type 0, BuildingBlock: BELTOD_clean_linker_0, # of connection points: 3
#     Node 4, Type 0, BuildingBlock: BELTOD_clean_linker_0, # of connection points: 3
#     Node 5, Type 0, BuildingBlock: BELTOD_clean_linker_0, # of connection points: 3
#     Node 6, Type 0, BuildingBlock: BELTOD_clean_linker_0, # of connection points: 3
#     Node 7, Type 0, BuildingBlock: BELTOD_clean_linker_0, # of connection points: 3
#     Node 8, Type 1, BuildingBlock: FUNLAD_clean_sbu_0, # of connection points: 6
#     Node 9, Type 1, BuildingBlock: FUNLAD_clean_sbu_0, # of connection points: 6
#     Node 10, Type 1, BuildingBlock: FUNLAD_clean_sbu_0, # of connection points: 6
#     Node 11, Type 1, BuildingBlock: FUNLAD_clean_sbu_0, # of connection points: 6
#     Edge 12, Type (0, 1), BuildingBlock: AJUNOK_clean_linker_0, # of connection points: 2
#     Edge 13, Type (0, 1), BuildingBlock: AJUNOK_clean_linker_0, # of connection points: 2
#     Edge 14, Type (0, 1), BuildingBlock: AJUNOK_clean_linker_0, # of connection points: 2
#     Edge 15, Type (0, 1), BuildingBlock: AJUNOK_clean_linker_0, # of connection points: 2
#     Edge 16, Type (0, 1), BuildingBlock: AJUNOK_clean_linker_0, # of connection points: 2
#     Edge 17, Type (0, 1), BuildingBlock: AJUNOK_clean_linker_0, # of connection points: 2
#     Edge 18, Type (0, 1), BuildingBlock: AJUNOK_clean_linker_0, # of connection points: 2
#     Edge 19, Type (0, 1), BuildingBlock: AJUNOK_clean_linker_0, # of connection points: 2
#     Edge 20, Type (0, 1), BuildingBlock: AJUNOK_clean_linker_0, # of connection points: 2
#     Edge 21, Type (0, 1), BuildingBlock: AJUNOK_clean_linker_0, # of connection points: 2
#     Edge 22, Type (0, 1), BuildingBlock: AJUNOK_clean_linker_0, # of connection points: 2
#     Edge 23, Type (0, 1), BuildingBlock: AJUNOK_clean_linker_0, # of connection points: 2
#     Edge 24, Type (0, 1), BuildingBlock: AJUNOK_clean_linker_0, # of connection points: 2
#     Edge 25, Type (0, 1), BuildingBlock: AJUNOK_clean_linker_0, # of connection points: 2
#     Edge 26, Type (0, 1), BuildingBlock: AJUNOK_clean_linker_0, # of connection points: 2
#     Edge 27, Type (0, 1), BuildingBlock: AJUNOK_clean_linker_0, # of connection points: 2
#     Edge 28, Type (0, 1), BuildingBlock: AJUNOK_clean_linker_0, # of connection points: 2
#     Edge 29, Type (0, 1), BuildingBlock: AJUNOK_clean_linker_0, # of connection points: 2
#     Edge 30, Type (0, 1), BuildingBlock: AJUNOK_clean_linker_0, # of connection points: 2
#     Edge 31, Type (0, 1), BuildingBlock: AJUNOK_clean_linker_0, # of connection points: 2
#     Edge 32, Type (0, 1), BuildingBlock: AJUNOK_clean_linker_0, # of connection points: 2
#     Edge 33, Type (0, 1), BuildingBlock: AJUNOK_clean_linker_0, # of connection points: 2
#     Edge 34, Type (0, 1), BuildingBlock: AJUNOK_clean_linker_0, # of connection points: 2
#     Edge 35, Type (0, 1), BuildingBlock: AJUNOK_clean_linker_0, # of connection points: 2
# Relax obj value: 0.239
# Max RMSD: 0.227
# Mean RMSD: 0.183
data_MOF--net-zzz--node1-FUNLAD_clean_sbu_0--node2-BELTOD_clean_linker_0--edge1-AJUNOK_clean_linker_0
_symmetry_space_group_name_H-M    P1
_symmetry_Int_Tables_number       1
_symmetry_cell_setting            triclinic
loop_
_symmetry_equiv_pos_as_xyz
'x, y, z'
_cell_length_a     42.264282
_cell_length_b     47.31508
_cell_length_c     16.286892
_cell_angle_alpha  85.544686
_cell_angle_beta   85.415868
_cell_angle_gamma 92.125104
loop_
_atom_site_label
_atom_site_type_symbol
_atom_site_fract_x
_atom_site_fract_y
_atom_site_fract_z
_atom_type_partial_charge
P0 P 0.7978 0.38813 0.27796 0.0
H1 H 0.79889 0.38971 0.45818 0.0
H2 H 0.82963 0.42003 0.541 0.0
H3 H 0.86189 0.47328 0.32071 0.0
H4 H 0.83163 0.44279 0.23824 0.0
H5 H 0.74903 0.35791 0.19878 0.0
H6 H 0.70805 0.37427 0.11043 0.0
H7 H 0.73061 0.46082 0.15926 0.0
H8 H 0.7717 0.44452 0.24592 0.0
H9 H 0.86412 0.375 0.28853 0.0
H10 H 0.80193 0.39324 0.095 0.0
O11 O 0.78932 0.35718 0.33303 0.0
H12 H 0.91023 0.38297 0.18692 0.0
H13 H 0.84765 0.40072 0.99445 0.0
C14 C 0.81315 0.41391 0.3421 0.0
C15 C 0.81183 0.40836 0.42811 0.0
C16 C 0.8292 0.42582 0.47545 0.0
C17 C 0.84806 0.44902 0.43713 0.0
C18 C 0.84752 0.45557 0.35171 0.0
C19 C 0.83022 0.43816 0.30466 0.0
C20 C 0.76321 0.39989 0.2298 0.0
C21 C 0.74456 0.38033 0.19215 0.0
C22 C 0.72125 0.3897 0.14154 0.0
C23 C 0.71617 0.41883 0.12816 0.0
C24 C 0.73424 0.43827 0.16801 0.0
C25 C 0.75761 0.4289 0.21822 0.0
C26 C 0.82957 0.38394 0.1999 0.0
C27 C 0.86027 0.37963 0.22399 0.0
C28 C 0.88656 0.38421 0.16616 0.0
C29 C 0.88231 0.39273 0.08342 0.0
C30 C 0.85144 0.39407 0.05796 0.0
C31 C 0.82522 0.38988 0.11587 0.0
P32 P 0.97455 0.76665 0.19922 0.0
H33 H 0.98595 0.77483 0.36974 0.0
H34 H 0.96637 0.81004 0.45928 0.0
H35 H 0.89384 0.83037 0.29467 0.0
H36 H 0.91336 0.79431 0.20512 0.0
H37 H 0.97166 0.75563 0.0248 0.0
H38 H 0.95684 0.71313 0.96039 0.0
H39 H 0.92333 0.67224 0.19879 0.0
H40 H 0.93673 0.71581 0.26395 0.0
H41 H 0.03478 0.80015 0.17205 0.0
H42 H 0.94307 0.79959 0.07313 0.0
O43 O 0.00613 0.75205 0.2377 0.0
H44 H 0.05156 0.84263 0.08052 0.0
H45 H 0.95957 0.84196 0.98279 0.0
C46 C 0.95131 0.78204 0.2803 0.0
C47 C 0.96486 0.78574 0.35462 0.0
C48 C 0.95354 0.80596 0.40614 0.0
C49 C 0.92858 0.82305 0.38387 0.0
C50 C 0.91311 0.81749 0.31322 0.0
C51 C 0.92424 0.79687 0.26216 0.0
C52 C 0.95448 0.73935 0.14939 0.0
C53 C 0.95936 0.73838 0.06335 0.0
C54 C 0.95103 0.71392 0.02618 0.0
C55 C 0.93875 0.68967 0.07467 0.0
C56 C 0.93232 0.69096 0.16023 0.0
C57 C 0.93996 0.71578 0.19731 0.0
C58 C 0.98799 0.79628 0.12762 0.0
C59 C 0.01845 0.80886 0.12984 0.0
C60 C 0.02796 0.83316 0.07809 0.0
C61 C 0.00705 0.8451 0.02368 0.0
C62 C 0.97641 0.83268 0.02265 0.0
C63 C 0.96692 0.80858 0.07453 0.0
P64 P 0.74935 0.04972 0.17755 0.0
H65 H 0.75014 0.05186 0.35639 0.0
H66 H 0.71036 0.03419 0.46711 0.0
H67 H 0.66694 0.98083 0.30064 0.0
H68 H 0.70717 -0.0017 0.18989 0.0
H69 H 0.80606 0.08211 0.10794 0.0
H70 H 0.85445 0.07006 0.02967 0.0
H71 H 0.82155 0.9822 0.0477 0.0
H72 H 0.77243 0.9945 0.12736 0.0
H73 H 0.68716 0.07269 0.19914 0.0
H74 H 0.74315 0.03556 0.00522 0.0
O75 O 0.7566 0.08147 0.21195 0.0
H76 H 0.64095 0.07141 0.11755 0.0
H77 H 0.69701 0.03486 0.92304 0.0
C78 C 0.73137 0.02683 0.26428 0.0
C79 C 0.73301 0.03542 0.34434 0.0
C80 C 0.71008 0.02544 0.40763 0.0
C81 C 0.68519 0.00653 0.39212 0.0
C82 C 0.68586 0.99531 0.31459 0.0
C83 C 0.70895 0.00529 0.25118 0.0
C84 C 0.78596 0.03909 0.12576 0.0
C85 C 0.8093 0.06012 0.09668 0.0
C86 C 0.83702 0.05323 0.05164 0.0
C87 C 0.84206 0.02512 0.03372 0.0
C88 C 0.81837 0.00401 0.06123 0.0
C89 C 0.7905 0.01095 0.10721 0.0
C90 C 0.71857 0.05429 0.1082 0.0
C91 C 0.68976 0.06503 0.13808 0.0
C92 C 0.66341 0.06426 0.0918 0.0
C93 C 0.6657 0.0531 0.01447 0.0
C94 C 0.69497 0.04377 0.98245 0.0
C95 C 0.72127 0.04415 0.0294 0.0
P96 P 0.49579 0.69793 0.26254 0.0
H97 H 0.49969 0.69368 0.44145 0.0
H98 H 0.52745 0.65967 0.52639 0.0
H99 H 0.58563 0.63963 0.31046 0.0
H100 H 0.55767 0.67385 0.22524 0.0
H101 H 0.45367 0.73539 0.18256 0.0
H102 H 0.46169 0.78045 0.09917 0.0
H103 H 0.56178 0.78121 0.13612 0.0
H104 H 0.55364 0.73516 0.21823 0.0
H105 H 0.47795 0.63785 0.28638 0.0
H106 H 0.50497 0.69937 0.08048 0.0
O107 O 0.46159 0.69837 0.32116 0.0
H108 H 0.47632 0.60023 0.19106 0.0
H109 H 0.50294 0.66201 0.98571 0.0
C110 C 0.52604 0.68567 0.32679 0.0
C111 C 0.51942 0.68305 0.41277 0.0
C112 C 0.53542 0.6636 0.46147 0.0
C113 C 0.5581 0.64653 0.4245 0.0
C114 C 0.56791 0.65229 0.34016 0.0
C115 C 0.55201 0.6719 0.29154 0.0
C116 C 0.50288 0.73242 0.20842 0.0
C117 C 0.47728 0.74544 0.17391 0.0
C118 C 0.48189 0.77121 0.12632 0.0
C119 C 0.51223 0.78469 0.11283 0.0
C120 C 0.5381 0.77136 0.14621 0.0
C121 C 0.53346 0.74526 0.19362 0.0
C122 C 0.49107 0.67145 0.19052 0.0
C123 C 0.48291 0.64334 0.22067 0.0
C124 C 0.48213 0.6219 0.16647 0.0
C125 C 0.48915 0.62841 0.08127 0.0
C126 C 0.49685 0.65663 0.05108 0.0
C127 C 0.498 0.67799 0.10536 0.0
P128 P 0.21407 0.4962 0.20817 0.0
H129 H 0.22649 0.47547 0.04464 0.0
H130 H 0.19439 0.48084 0.92664 0.0
H131 H 0.14745 0.55002 0.03731 0.0
H132 H 0.18199 0.54684 0.14735 0.0
H133 H 0.25496 0.46129 0.30216 0.0
H134 H 0.30062 0.4725 0.37667 0.0
H135 H 0.30319 0.5591 0.27029 0.0
H136 H 0.25731 0.54743 0.19258 0.0
H137 H 0.15029 0.47475 0.26478 0.0
H138 H 0.21105 0.54712 0.30235 0.0
O139 O 0.20845 0.46099 0.21124 0.0
H140 H 0.10694 0.49423 0.34707 0.0
H141 H 0.1673 0.56729 0.38225 0.0
C142 C 0.20576 0.50999 0.10649 0.0
C143 C 0.21067 0.49292 0.04053 0.0
C144 C 0.19182 0.49571 0.97379 0.0
C145 C 0.16742 0.51521 0.97334 0.0
C146 C 0.16593 0.53485 0.034 0.0
C147 C 0.18562 0.53274 0.09864 0.0
C148 C 0.25281 0.5035 0.24152 0.0
C149 C 0.26582 0.4825 0.29227 0.0
C150 C 0.29177 0.48898 0.33564 0.0
C151 C 0.30502 0.51674 0.33019 0.0
C152 C 0.29337 0.53751 0.27528 0.0
C153 C 0.2673 0.53087 0.23092 0.0
C154 C 0.18424 0.50894 0.27961 0.0
C155 C 0.15448 0.49463 0.29172 0.0
C156 C 0.12952 0.50611 0.33734 0.0
C157 C 0.13368 0.53242 0.3706 0.0
C158 C 0.16352 0.54684 0.35815 0.0
C159 C 0.18864 0.53516 0.31305 0.0
P160 P 0.1492 0.21476 0.34231 0.0
H161 H 0.19162 0.17815 0.25303 0.0
H162 H 0.17879 0.14629 0.1482 0.0
H163 H 0.09643 0.19409 0.09967 0.0
H164 H 0.1088 0.2254 0.20516 0.0
H165 H 0.18291 0.26777 0.37234 0.0
H166 H 0.16424 0.3144 0.40292 0.0
H167 H 0.06854 0.2863 0.36332 0.0
H168 H 0.08762 0.24087 0.32751 0.0
H169 H 0.14538 0.15285 0.35422 0.0
H170 H 0.09399 0.21882 0.46756 0.0
O171 O 0.1849 0.21189 0.37843 0.0
H172 H 0.1054 0.11783 0.41575 0.0
H173 H 0.05258 0.18399 0.52417 0.0
C174 C 0.15076 0.20382 0.23866 0.0
C175 C 0.17169 0.18272 0.21703 0.0
C176 C 0.16427 0.16436 0.1574 0.0
C177 C 0.13605 0.16726 0.11833 0.0
C178 C 0.1179 0.19105 0.13087 0.0
C179 C 0.12512 0.20912 0.19105 0.0
C180 C 0.13659 0.25061 0.34895 0.0
C181 C 0.15806 0.27194 0.36805 0.0
C182 C 0.14732 0.29857 0.38594 0.0
C183 C 0.11486 0.3042 0.38576 0.0
C184 C 0.09381 0.2832 0.36196 0.0
C185 C 0.10472 0.25692 0.34209 0.0
C186 C 0.12188 0.18896 0.40109 0.0
C187 C 0.12511 0.16007 0.39026 0.0
C188 C 0.1019 0.13998 0.42474 0.0
C189 C 0.07479 0.14831 0.47082 0.0
C190 C 0.07264 0.17701 0.48657 0.0
C191 C 0.09626 0.19707 0.45313 0.0
P192 P 0.29113 0.03552 0.29273 0.0
H193 H 0.29725 0.06366 0.12493 0.0
H194 H 0.33461 0.05579 0.00757 0.0
H195 H 0.35599 0.97499 0.1283 0.0
H196 H 0.31703 0.98206 0.24173 0.0
H197 H 0.25133 0.06389 0.40885 0.0
H198 H 0.20044 0.05184 0.48607 0.0
H199 H 0.19286 0.97435 0.36412 0.0
H200 H 0.24449 0.98691 0.28488 0.0
H201 H 0.3533 0.05788 0.32428 0.0
H202 H 0.29274 0.98405 0.40638 0.0
O203 O 0.29508 0.07091 0.28416 0.0
H204 H 0.39613 0.03769 0.39802 0.0
H205 H 0.33618 0.96321 0.47881 0.0
C206 C 0.30465 0.02373 0.1933 0.0
C207 C 0.30879 0.04362 0.12437 0.0
C208 C 0.33065 0.03929 0.05769 0.0
C209 C 0.34899 0.01504 0.05885 0.0
C210 C 0.34225 0.99382 0.12415 0.0
C211 C 0.31987 0.99792 0.18986 0.0
C212 C 0.25143 0.02664 0.3396 0.0
C213 C 0.23858 0.04452 0.39713 0.0
C214 C 0.20955 0.03748 0.44208 0.0
C215 C 0.19259 0.01215 0.4314 0.0
C216 C 0.20522 0.9942 0.37294 0.0
C217 C 0.23464 0.00133 0.32764 0.0
C218 C 0.31967 0.02275 0.36123 0.0
C219 C 0.34906 0.03749 0.3593 0.0
C220 C 0.37374 0.02565 0.40003 0.0
C221 C 0.36975 -0.00152 0.44197 0.0
C222 C 0.33993 0.98406 0.44624 0.0
C223 C 0.31506 0.99607 0.40567 0.0
P224 P 0.42035 0.31116 0.31963 0.0
H225 H 0.3816 0.32815 0.18357 0.0
H226 H 0.39433 0.35941 0.05721 0.0
H227 H 0.4934 0.3611 0.10555 0.0
H228 H 0.48076 0.32936 0.22908 0.0
H229 H 0.38322 0.26115 0.39464 0.0
H230 H 0.39819 0.214 0.44309 0.0
H231 H 0.49468 0.23404 0.34082 0.0
H232 H 0.47861 0.28019 0.2848 0.0
H233 H 0.41067 0.36872 0.35989 0.0
H234 H 0.47748 0.3045 0.41512 0.0
O235 O 0.38151 0.31409 0.34338 0.0
H236 H 0.44312 0.4032 0.42366 0.0
H237 H 0.51077 0.33924 0.47456 0.0
C238 C 0.43028 0.32624 0.21552 0.0
C239 C 0.4062 0.33442 0.16525 0.0
C240 C 0.41343 0.35252 0.09349 0.0
C241 C 0.44486 0.36268 0.07111 0.0
C242 C 0.46906 0.35313 0.11954 0.0
C243 C 0.46185 0.33491 0.19056 0.0
C244 C 0.42998 0.27451 0.33773 0.0
C245 C 0.40743 0.25522 0.38077 0.0
C246 C 0.41621 0.22836 0.40997 0.0
C247 C 0.44805 0.22072 0.39981 0.0
C248 C 0.47003 0.2393 0.35089 0.0
C249 C 0.46089 0.2658 0.31892 0.0
C250 C 0.44144 0.33395 0.38243 0.0
C251 C 0.43215 0.36194 0.38623 0.0
C252 C 0.45109 0.38177 0.42108 0.0
C253 C 0.48011 0.37414 0.45129 0.0
C254 C 0.48878 0.34581 0.4506 0.0
C255 C 0.4696 0.32587 0.41638 0.0
C256 C 0.02507 0.95231 0.82784 0.0
N257 N 0.98052 0.96754 0.61131 0.0
C258 C 0.99661 0.94441 0.59038 0.0
C259 C 0.98183 0.92306 0.55151 0.0
C260 C 0.9502 0.92542 0.53355 0.0
C261 C 0.93431 0.94995 0.55181 0.0
C262 C 0.95008 0.97096 0.59154 0.0
Zn263 Zn 0.00272 0.99252 0.68856 0.0
C264 C 0.95914 0.00723 0.83075 0.0
N265 N 0.05179 0.03636 0.86101 0.0
C266 C 0.08125 0.03147 0.8857 0.0
C267 C 0.03631 0.05993 0.8809 0.0
C268 C 0.05048 0.07983 0.92624 0.0
C269 C 0.08082 0.0755 0.95248 0.0
C270 C 0.09638 0.05097 0.9318 0.0
Zn271 Zn 0.02985 0.01167 0.78323 0.0
O272 O 0.01037 0.95504 0.76287 0.0
C273 C 0.07371 0.99788 0.64168 0.0
O274 O 0.03727 0.97421 0.85551 0.0
H275 H 0.01321 0.0638 0.85946 0.0
H276 H 0.02051 0.94171 0.60772 0.0
H277 H 0.09328 0.01277 0.86828 0.0
O278 O 0.04744 0.98936 0.61708 0.0
O279 O 0.07363 0.0079 0.71194 0.0
H280 H 0.93758 0.98935 0.6096 0.0
O281 O 0.02259 0.04881 0.70962 0.0
O282 O 0.99609 0.03031 0.61494 0.0
O283 O 0.98591 0.01512 0.85341 0.0
O284 O 0.9583 0.99669 0.76131 0.0
C285 C 0.00904 0.05186 0.64299 0.0
H286 H 0.9947 0.90434 0.53796 0.0
H287 H 0.90982 0.95228 0.53846 0.0
H288 H 0.03803 0.09883 0.93901 0.0
H289 H 0.11988 0.04702 0.95084 0.0
C290 C 0.4759 0.98267 0.62507 0.0
N291 N 0.50807 0.06603 0.64576 0.0
C292 C 0.50366 0.06767 0.56364 0.0
C293 C 0.49511 0.09302 0.52346 0.0
C294 C 0.49181 0.11727 0.56744 0.0
C295 C 0.49861 0.11542 0.65085 0.0
C296 C 0.50615 0.08938 0.68933 0.0
Zn297 Zn 0.51479 0.02699 0.7042 0.0
C298 C 0.46475 0.01032 0.83829 0.0
N299 N 0.52494 0.94302 0.81246 0.0
C300 C 0.52655 0.91842 0.77445 0.0
C301 C 0.52468 0.94292 0.89611 0.0
C302 C 0.52543 0.91759 0.94505 0.0
C303 C 0.52539 0.89178 0.9083 0.0
C304 C 0.52678 0.89233 0.82163 0.0
Zn305 Zn 0.51966 0.98188 0.75107 0.0
O306 O 0.48343 0.00873 0.62785 0.0
C307 C 0.56917 -0.0012 0.61512 0.0
O308 O 0.48806 0.9641 0.67194 0.0
H309 H 0.5229 0.96252 0.92566 0.0
H310 H 0.50587 0.04907 0.52939 0.0
H311 H 0.52667 0.91894 0.70792 0.0
O312 O 0.5539 0.02142 0.61865 0.0
O313 O 0.55997 0.97715 0.66398 0.0
H314 H 0.50989 0.08773 0.75439 0.0
O315 O 0.55101 0.00054 0.83004 0.0
O316 O 0.54656 0.04462 0.78119 0.0
O317 O 0.47927 0.98734 0.83491 0.0
O318 O 0.47528 0.03201 0.79169 0.0
C319 C 0.55865 0.02675 0.83035 0.0
H320 H 0.49025 0.09335 0.45913 0.0
H321 H 0.49777 0.13378 0.68654 0.0
H322 H 0.52519 0.91818 0.01145 0.0
H323 H 0.52684 0.87282 0.791 0.0
C324 C 0.52704 0.4631 0.6247 0.0
N325 N 0.45138 0.51507 0.65737 0.0
C326 C 0.43231 0.49262 0.64214 0.0
C327 C 0.40717 0.49658 0.59286 0.0
C328 C 0.40186 0.52383 0.55787 0.0
C329 C 0.42133 0.5468 0.57571 0.0
C330 C 0.44603 0.54193 0.62658 0.0
Zn331 Zn 0.49139 0.50663 0.71545 0.0
C332 C 0.48421 0.459 0.83993 0.0
N333 N 0.57803 0.4877 0.81958 0.0
C334 C 0.60586 0.48055 0.7801 0.0
C335 C 0.57337 0.48512 0.90355 0.0
C336 C 0.5966 0.4742 0.95113 0.0
C337 C 0.62487 0.46539 0.91228 0.0
C338 C 0.6299 0.46937 0.82576 0.0
Zn339 Zn 0.53883 0.49778 0.75942 0.0
O340 O 0.5018 0.47663 0.6318 0.0
C341 C 0.5466 0.544 0.63155 0.0
O342 O 0.54905 0.46737 0.67169 0.0
H343 H 0.551 0.49042 0.9341 0.0
H344 H 0.43728 0.4714 0.66572 0.0
H345 H 0.60895 0.48253 0.7133 0.0
O346 O 0.51706 0.53762 0.6343 0.0
O347 O 0.5639 0.53082 0.68085 0.0
H348 H 0.46153 0.55948 0.63928 0.0
O349 O 0.52713 0.5281 0.84672 0.0
O350 O 0.48114 0.53698 0.79898 0.0
O351 O 0.51383 0.46489 0.83494 0.0
O352 O 0.4664 0.47447 0.79806 0.0
C353 C 0.50171 0.54169 0.84942 0.0
H354 H 0.39268 0.47836 0.57975 0.0
H355 H 0.41767 0.56811 0.54997 0.0
H356 H 0.59218 0.47205 0.01782 0.0
H357 H 0.6516 0.46293 0.79386 0.0
C358 C 0.03104 0.52904 0.59837 0.0
N359 N 0.03044 0.44098 0.63145 0.0
C360 C 0.03499 0.44446 0.54749 0.0
C361 C 0.04977 0.42387 0.50315 0.0
C362 C 0.05887 0.39879 0.54502 0.0
C363 C 0.05355 0.39561 0.6317 0.0
C364 C 0.03957 0.41717 0.67389 0.0
Zn365 Zn 0.01047 0.47288 0.69315 0.0
C366 C 0.05295 0.49705 0.80522 0.0
N367 N 0.9711 0.54363 0.80642 0.0
C368 C 0.96245 0.56824 0.76711 0.0
C369 C 0.96991 0.5402 0.89036 0.0
C370 C 0.96023 0.56194 0.93805 0.0
C371 C 0.95323 0.58822 0.89936 0.0
C372 C 0.95358 0.59103 0.81267 0.0
Zn373 Zn 0.98973 0.51131 0.74338 0.0
O374 O 0.03395 0.50245 0.606 0.0
C375 C 0.9485 0.48759 0.62673 0.0
O376 O 0.01231 0.54075 0.64888 0.0
H377 H 0.97752 0.52088 0.92092 0.0
H378 H 0.02742 0.46339 0.51444 0.0
H379 H 0.96353 0.57061 0.70036 0.0
O380 O 0.9716 0.47123 0.6218 0.0
O381 O 0.94859 0.50722 0.67602 0.0
H382 H 0.03602 0.41487 0.7406 0.0
O383 O 0.96815 0.48113 0.83722 0.0
O384 O 0.98647 0.44346 0.78237 0.0
O385 O 0.03121 0.51487 0.80761 0.0
O386 O 0.0498 0.47541 0.76452 0.0
C387 C 0.9701 0.45434 0.83951 0.0
H388 H 0.05433 0.42783 0.43684 0.0
H389 H 0.05999 0.37658 0.66667 0.0
H390 H 0.95928 0.55844 0.00471 0.0
H391 H 0.94834 0.61094 0.78024 0.0
C392 C 0.16163 0.00702 0.56986 0.0
C393 C 0.16242 0.00477 0.48402 0.0
C394 C 0.13306 0.00375 0.62039 0.0
C395 C 0.10391 0.99801 0.58747 0.0
H396 H 0.18329 0.01199 0.59813 0.0
H397 H 0.13383 0.00637 0.6857 0.0
S398 S 0.09307 0.98935 0.36643 0.0
N399 N 0.13167 0.99581 0.36834 0.0
N400 N 0.07787 0.98939 0.46305 0.0
C401 C 0.10447 0.99469 0.50197 0.0
C402 C 0.13371 0.99809 0.4504 0.0
C403 C 0.48083 0.17737 0.40355 0.0
C404 C 0.45868 0.1943 0.44355 0.0
C405 C 0.49166 0.15281 0.44425 0.0
C406 C 0.48062 0.14395 0.52649 0.0
H407 H 0.48977 0.18301 0.33999 0.0
H408 H 0.50901 0.14076 0.41091 0.0
S409 S 0.42257 0.18081 0.65945 0.0
N410 N 0.42707 0.201 0.57175 0.0
N411 N 0.44547 0.15381 0.6457 0.0
C412 C 0.45829 0.16059 0.56708 0.0
C413 C 0.44776 0.18591 0.52624 0.0
C414 C 0.32209 0.51554 0.47276 0.0
C415 C 0.32887 0.52374 0.38807 0.0
C416 C 0.34549 0.51725 0.52824 0.0
C417 C 0.37646 0.52747 0.50125 0.0
H418 H 0.29877 0.50666 0.49578 0.0
H419 H 0.33966 0.5095 0.59224 0.0
S420 S 0.40582 0.55376 0.28735 0.0
N421 N 0.36818 0.54412 0.28065 0.0
N422 N 0.41238 0.54759 0.3857 0.0
C423 C 0.38314 0.53741 0.4178 0.0
C424 C 0.35924 0.53553 0.36094 0.0
C425 C 0.1134 0.33949 0.49261 0.0
C426 C 0.10243 0.33039 0.41925 0.0
C427 C 0.09967 0.36196 0.53146 0.0
C428 C 0.07409 0.37611 0.49929 0.0
H429 H 0.13207 0.32857 0.5221 0.0
H430 H 0.10901 0.36806 0.58786 0.0
S431 S 0.03766 0.36162 0.30572 0.0
N432 N 0.06612 0.33879 0.31223 0.0
N433 N 0.03877 0.3797 0.38819 0.0
C434 C 0.06335 0.3677 0.42477 0.0
C435 C 0.07782 0.34515 0.38425 0.0
C436 C 0.87145 0.00489 0.9122 0.0
C437 C 0.87208 0.01842 0.98607 0.0
C438 C 0.89961 0.00113 0.86253 0.0
C439 C 0.92953 0.01058 0.88517 0.0
H440 H 0.84895 0.99793 0.8914 0.0
H441 H 0.89784 0.99104 0.80551 0.0
S442 S 0.94395 0.04528 0.077 0.0
N443 N 0.90504 0.03975 0.08199 0.0
N444 N 0.95774 0.03285 0.98986 0.0
C445 C 0.93037 0.02337 0.96051 0.0
C446 C 0.90177 0.02725 0.01058 0.0
C447 C 0.53986 0.81685 0.99672 0.0
C448 C 0.51644 0.81252 0.06351 0.0
C449 C 0.54255 0.84242 0.94612 0.0
C450 C 0.52211 0.86461 0.9611 0.0
H451 H 0.55576 0.80014 0.98246 0.0
H452 H 0.56087 0.84493 0.89532 0.0
S453 S 0.45712 0.86395 0.12886 0.0
N454 N 0.47308 0.83283 0.14316 0.0
N455 N 0.47738 0.88032 0.04688 0.0
C456 C 0.49872 0.86052 0.02796 0.0
C457 C 0.49609 0.83465 0.07944 0.0
C458 C 0.70193 0.45132 0.00933 0.0
C459 C 0.69291 0.4292 0.07063 0.0
C460 C 0.68011 0.4623 0.95611 0.0
C461 C 0.64846 0.45168 0.96289 0.0
H462 H 0.72604 0.46032 0.00277 0.0
H463 H 0.68779 0.47976 0.91107 0.0
S464 S 0.61323 0.39293 0.10998 0.0
N465 N 0.65041 0.39654 0.13319 0.0
N466 N 0.60953 0.41683 0.03229 0.0
C467 C 0.63936 0.42904 0.02227 0.0
C468 C 0.66156 0.41785 0.0763 0.0
C469 C 0.91987 0.65627 0.97503 0.0
C470 C 0.93939 0.66213 0.03803 0.0
C471 C 0.92386 0.63193 0.93168 0.0
C472 C 0.9479 0.613 0.94899 0.0
H473 H 0.90186 0.67086 0.95823 0.0
H474 H 0.90831 0.62811 0.88361 0.0
S475 S 0.00692 0.62078 0.1041 0.0
N476 N 0.984 0.648 0.1141 0.0
N477 N 0.99262 0.60307 0.03086 0.0
C478 C 0.96765 0.61895 0.01184 0.0
C479 C 0.96313 0.64333 0.05672 0.0
C480 C 0.0397 0.12674 0.59203 0.0
C481 C 0.05042 0.12661 0.50812 0.0
C482 C 0.02236 0.10344 0.63353 0.0
C483 C 0.01519 0.0791 0.59282 0.0
H484 H 0.04686 0.14392 0.62771 0.0
H485 H 0.01691 0.10351 0.6997 0.0
S486 S 0.03221 0.07048 0.36964 0.0
N487 N 0.04792 0.10216 0.38251 0.0
N488 N 0.01606 0.05793 0.46148 0.0
C489 C 0.02271 0.07992 0.50713 0.0
C490 C 0.04032 0.10374 0.46463 0.0
C491 C 0.39275 0.97645 0.56742 0.0
C492 C 0.39667 0.98608 0.48313 0.0
C493 C 0.41922 0.97133 0.6124 0.0
C494 C 0.45019 0.97566 0.57416 0.0
H495 H 0.36937 0.97521 0.60034 0.0
H496 H 0.4155 0.96676 0.67881 0.0
S497 S 0.4729 0.99515 0.35238 0.0
N498 N 0.43369 0.99498 0.36069 0.0
N499 N 0.48331 0.98638 0.44631 0.0
C500 C 0.45426 0.98251 0.48873 0.0
C501 C 0.42746 0.98744 0.44281 0.0
C502 C 0.51184 0.38999 0.5643 0.0
C503 C 0.5005 0.39567 0.48595 0.0
C504 C 0.52515 0.41185 0.60578 0.0
C505 C 0.52728 0.43992 0.57019 0.0
H506 H 0.50811 0.36909 0.59655 0.0
H507 H 0.53075 0.40725 0.66903 0.0
S508 S 0.50755 0.46474 0.36003 0.0
N509 N 0.49786 0.43043 0.36866 0.0
N510 N 0.52155 0.47161 0.44852 0.0
C511 C 0.51911 0.44528 0.48895 0.0
C512 C 0.50599 0.4231 0.44631 0.0
C513 C 0.07608 0.54137 0.39694 0.0
C514 C 0.10711 0.54328 0.42239 0.0
C515 C 0.04958 0.54208 0.45397 0.0
C516 C 0.05338 0.54514 0.53762 0.0
H517 H 0.07228 0.53651 0.33446 0.0
H518 H 0.02631 0.53672 0.43454 0.0
S519 S 0.129 0.55671 0.63225 0.0
N520 N 0.13983 0.55269 0.53434 0.0
N521 N 0.08978 0.55476 0.64057 0.0
C522 C 0.08393 0.5512 0.56113 0.0
C523 C 0.11099 0.55003 0.50361 0.0
C524 C 0.02705 0.89573 0.00501 0.0
C525 C 0.0163 0.87122 0.97023 0.0
C526 C 0.03149 0.92177 0.95742 0.0
C527 C 0.02529 0.92408 0.87358 0.0
H528 H 0.03054 0.89507 0.0703 0.0
H529 H 0.03836 0.9404 0.98757 0.0
S530 S 1.00155 0.86489 0.75099 0.0
N531 N 0.00312 0.85 0.84557 0.0
N532 N 0.01141 0.89877 0.75578 0.0
C533 C 0.01653 0.89923 0.83705 0.0
C534 C 0.01201 0.87283 0.88551 0.0
C535 C 0.63289 0.06306 0.89525 0.0
C536 C 0.63685 0.04822 0.97154 0.0
C537 C 0.60639 0.0571 0.85173 0.0
C538 C 0.58358 0.03565 0.88244 0.0
H539 H 0.65058 0.07905 0.86871 0.0
H540 H 0.60452 0.06846 0.79205 0.0
S541 S 0.5829 0.99156 0.08109 0.0
N542 N 0.61547 0.01217 0.07769 0.0
N543 N 0.5661 0.00041 0.99517 0.0
C544 C 0.58706 0.02114 0.95955 0.0
C545 C 0.61363 0.02756 0.00433 0.0
C546 C 0.51021 0.58292 0.03746 0.0
C547 C 0.49025 0.60563 0.02417 0.0
C548 C 0.51355 0.56218 0.9809 0.0
C549 C 0.49666 0.56321 0.90974 0.0
H550 H 0.524 0.5816 0.09084 0.0
H551 H 0.5296 0.54529 0.99292 0.0
S552 S 0.4402 0.61786 0.84919 0.0
N553 N 0.45268 0.62766 0.93666 0.0
N554 N 0.45856 0.58854 0.83043 0.0
C555 C 0.47597 0.58548 0.89697 0.0
C556 C 0.4729 0.60676 0.95412 0.0
C557 C 0.91539 0.3956 0.94824 0.0
C558 C 0.90914 0.4053 0.02711 0.0
C559 C 0.93684 0.41069 0.88892 0.0
C560 C 0.95195 0.4363 0.90617 0.0
H561 H 0.90276 0.37683 0.93149 0.0
H562 H 0.9402 0.40314 0.82784 0.0
S563 S 0.94498 0.46967 0.10508 0.0
N564 N 0.921 0.44108 0.12081 0.0
N565 N 0.96093 0.46958 0.0092 0.0
C566 C 0.94687 0.4455 0.98589 0.0
C567 C 0.92553 0.42995 0.04648 0.0
C568 C 0.13988 0.13131 0.01244 0.0
C569 C 0.12255 0.14327 0.07742 0.0
C570 C 0.12673 0.10863 0.97373 0.0
C571 C 0.09599 0.09712 0.99943 0.0
H572 H 0.16339 0.13995 0.99037 0.0
H573 H 0.14027 0.10062 0.92186 0.0
S574 S 0.04295 0.11839 0.17439 0.0
N575 N 0.07451 0.14019 0.17097 0.0
N576 N 0.05001 0.09758 0.09888 0.0
C577 C 0.07917 0.10809 0.06688 0.0
C578 C 0.0924 0.13115 0.10573 0.0
C579 C 0.3977 0.03776 0.9768 0.0
C580 C 0.37731 0.01352 0.99802 0.0
C581 C 0.42572 0.03667 0.92472 0.0
C582 C 0.43491 0.01118 0.89282 0.0
H583 H 0.39242 0.05769 0.00225 0.0
H584 H 0.44065 0.05582 0.91084 0.0
S585 S 0.38875 0.9423 0.92201 0.0
N586 N 0.36728 0.96378 0.97657 0.0
N587 N 0.42041 0.96149 0.88158 0.0
C588 C 0.41457 0.9869 0.9121 0.0
C589 C 0.38574 0.98811 0.96394 0.0
C590 C 0.43393 0.40955 0.99748 0.0
C591 C 0.45229 0.38525 0.00278 0.0
C592 C 0.44341 0.43308 0.94171 0.0
C593 C 0.47178 0.43318 0.89057 0.0
H594 H 0.41293 0.41096 0.03938 0.0
H595 H 0.42936 0.45177 0.94163 0.0
S596 S 0.52543 0.37333 0.87063 0.0
N597 N 0.49773 0.36149 0.94369 0.0
N598 N 0.51617 0.40599 0.84174 0.0
C599 C 0.48932 0.40849 0.89199 0.0
C600 C 0.47942 0.38446 0.94738 0.0
C601 C 0.12846 0.48399 0.9101 0.0
C602 C 0.14041 0.51159 0.92085 0.0
C603 C 0.10037 0.47949 0.87197 0.0
C604 C 0.08254 0.50235 0.84514 0.0
H605 H 0.14015 0.4655 0.93411 0.0
H606 H 0.09207 0.45788 0.86576 0.0
S607 S 0.10446 0.57884 0.85082 0.0
N608 N 0.1336 0.56222 0.89279 0.0
N609 N 0.0794 0.55366 0.82759 0.0
C610 C 0.09431 0.53007 0.85389 0.0
C611 C 0.12356 0.53471 0.89001 0.0
C612 C 0.92712 0.87584 0.37702 0.0
C613 C 0.9236 0.84963 0.42503 0.0
C614 C 0.93255 0.90127 0.41366 0.0
C615 C 0.93438 0.90122 0.4993 0.0
H616 H 0.92859 0.87645 0.31018 0.0
H617 H 0.93796 0.92065 0.37426 0.0
S618 S 0.92113 0.83929 0.6534 0.0
N619 N 0.9178 0.82593 0.56357 0.0
N620 N 0.92831 0.87375 0.63212 0.0
C621 C 0.92788 0.87568 0.54854 0.0
C622 C 0.92234 0.84985 0.51145 0.0
C623 C 0.64133 0.02741 0.47556 0.0
C624 C 0.65612 0.00299 0.45073 0.0
C625 C 0.61324 0.02557 0.52765 0.0
C626 C 0.59866 -0.00083 0.5583 0.0
H627 H 0.6513 0.0483 0.45337 0.0
H628 H 0.60306 0.0452 0.54454 0.0
S629 S 0.62785 0.92863 0.51187 0.0
N630 N 0.6541 0.95146 0.45993 0.0
N631 N 0.60134 0.94786 0.55954 0.0
C632 C 0.61324 0.97445 0.53431 0.0
C633 C 0.64184 0.97638 0.47996 0.0
C634 C 0.57416 0.61806 0.55001 0.0
C635 C 0.56473 0.61908 0.46883 0.0
C636 C 0.57174 0.59253 0.60092 0.0
C637 C 0.55931 0.5675 0.57236 0.0
H638 H 0.58139 0.63745 0.57597 0.0
H639 H 0.57691 0.59297 0.66492 0.0
S640 S 0.53372 0.55826 0.36353 0.0
N641 N 0.54487 0.59215 0.36083 0.0
N642 N 0.53997 0.54457 0.4569 0.0
C643 C 0.55199 0.56781 0.48986 0.0
C644 C 0.55482 0.59354 0.43785 0.0
C645 C 0.90428 0.46363 0.45113 0.0
C646 C 0.8723 0.46316 0.4827 0.0
C647 C 0.92859 0.47301 0.49694 0.0
C648 C 0.92189 0.48268 0.57562 0.0
H649 H 0.91074 0.45533 0.39219 0.0
H650 H 0.95296 0.47183 0.47154 0.0
S651 S 0.84199 0.488 0.68337 0.0
N652 N 0.83499 0.47473 0.59532 0.0
N653 N 0.88098 0.49286 0.68142 0.0
C654 C 0.88998 0.4838 0.6063 0.0
C655 C 0.8651 0.4738 0.55995 0.0
loop_
_geom_bond_atom_site_label_1
_geom_bond_atom_site_label_2
_geom_bond_distance
_geom_bond_site_symmetry_2
_ccdc_geom_bond_type
P0 O11 1.490 . S
P0 C14 1.812 . S
P0 C20 1.803 . S
P0 C26 1.819 . S
H1 C15 0.941 . S
H2 C16 0.939 . S
H3 C18 0.940 . S
H4 C19 0.940 . S
H5 C21 0.939 . S
H6 C22 0.942 . S
H7 C24 0.940 . S
H8 C25 0.939 . S
H9 C27 0.941 . S
H10 C31 0.939 . S
O11 P0 1.490 . S
H12 C28 0.939 . S
H13 C30 0.940 . S
C14 P0 1.812 . S
C14 C15 1.389 . S
C14 C19 1.391 . S
C15 H1 0.941 . S
C15 C14 1.389 . S
C15 C16 1.397 . S
C16 H2 0.939 . S
C16 C15 1.397 . S
C16 C17 1.378 . S
C17 C16 1.378 . S
C17 C18 1.378 . S
C18 H3 0.940 . S
C18 C17 1.378 . S
C18 C19 1.396 . S
C19 H4 0.940 . S
C19 C14 1.391 . S
C19 C18 1.396 . S
C20 P0 1.803 . S
C20 C21 1.378 . S
C20 C25 1.400 . S
C21 H5 0.939 . S
C21 C20 1.378 . S
C21 C22 1.361 . S
C22 H6 0.942 . S
C22 C21 1.361 . S
C22 C23 1.369 . S
C23 C22 1.369 . S
C23 C24 1.404 . S
C24 H7 0.940 . S
C24 C23 1.404 . S
C24 C25 1.389 . S
C25 H8 0.939 . S
C25 C20 1.400 . S
C25 C24 1.389 . S
C26 P0 1.819 . S
C26 C27 1.391 . S
C26 C31 1.391 . S
C27 H9 0.941 . S
C27 C26 1.391 . S
C27 C28 1.396 . S
C28 H12 0.939 . S
C28 C27 1.396 . S
C28 C29 1.397 1_554 S
C29 C28 1.397 1_556 S
C29 C30 1.385 . S
C30 H13 0.940 . S
C30 C29 1.385 . S
C30 C31 1.388 1_556 S
C31 H10 0.939 . S
C31 C26 1.391 . S
C31 C30 1.388 1_554 S
P32 O43 1.497 . S
P32 C46 1.812 1_556 S
P32 C52 1.803 . S
P32 C58 1.819 . S
H33 C47 0.941 . S
H34 C48 0.939 . S
H35 C50 0.940 . S
H36 C51 0.940 . S
H37 C53 0.939 . S
H38 C54 0.942 . S
H39 C56 0.940 1_554 S
H40 C57 0.939 . S
H41 C59 0.941 . S
H42 C63 0.939 . S
O43 P32 1.497 . S
H44 C60 0.939 . S
H45 C62 0.940 . S
C46 P32 1.812 1_554 S
C46 C47 1.389 . S
C46 C51 1.391 . S
C47 H33 0.941 . S
C47 C46 1.389 . S
C47 C48 1.397 . S
C48 H34 0.939 . S
C48 C47 1.397 . S
C48 C49 1.378 . S
C49 C48 1.378 . S
C49 C50 1.378 . S
C50 H35 0.940 . S
C50 C49 1.378 . S
C50 C51 1.396 . S
C51 H36 0.940 . S
C51 C46 1.391 . S
C51 C50 1.396 . S
C52 P32 1.803 . S
C52 C53 1.378 . S
C52 C57 1.400 1_556 S
C53 H37 0.939 . S
C53 C52 1.378 . S
C53 C54 1.361 . S
C54 H38 0.942 . S
C54 C53 1.361 . S
C54 C55 1.369 . S
C55 C54 1.369 . S
C55 C56 1.404 . S
C56 H39 0.940 1_556 S
C56 C55 1.404 . S
C56 C57 1.389 1_556 S
C57 H40 0.939 . S
C57 C52 1.400 1_554 S
C57 C56 1.389 1_554 S
C58 P32 1.819 . S
C58 C59 1.391 . S
C58 C63 1.391 . S
C59 H41 0.941 . S
C59 C58 1.391 . S
C59 C60 1.396 . S
C60 H44 0.939 . S
C60 C59 1.396 . S
C60 C61 1.397 . S
C61 C60 1.397 . S
C61 C62 1.385 . S
C62 H45 0.940 . S
C62 C61 1.385 . S
C62 C63 1.388 . S
C63 H42 0.939 . S
C63 C58 1.391 . S
C63 C62 1.388 . S
P64 O75 1.490 . S
P64 C78 1.812 . S
P64 C84 1.803 . S
P64 C90 1.819 . S
H65 C79 0.941 . S
H66 C80 0.939 . S
H67 C82 0.940 . S
H68 C83 0.951 . S
H69 C85 0.939 . S
H70 C86 0.942 1_556 S
H71 C88 0.940 . S
H72 C89 0.957 . S
H73 C91 0.941 . S
H74 C95 0.928 1_565 S
O75 P64 1.490 . S
H76 C92 0.939 . S
H77 C94 0.940 . S
C78 P64 1.812 . S
C78 C79 1.389 . S
C78 C83 1.376 1_545 S
C79 H65 0.941 . S
C79 C78 1.389 . S
C79 C80 1.397 . S
C80 H66 0.939 . S
C80 C79 1.397 . S
C80 C81 1.378 . S
C81 C80 1.378 . S
C81 C82 1.378 1_545 S
C82 H67 0.940 . S
C82 C81 1.378 1_565 S
C82 C83 1.401 . S
C83 H68 0.951 . S
C83 C78 1.376 1_565 S
C83 C82 1.401 . S
C84 P64 1.803 . S
C84 C85 1.378 . S
C84 C89 1.369 1_545 S
C85 H69 0.939 . S
C85 C84 1.378 . S
C85 C86 1.361 . S
C86 H70 0.942 1_554 S
C86 C85 1.361 . S
C86 C87 1.369 . S
C87 C86 1.369 . S
C87 C88 1.404 1_545 S
C88 H71 0.940 . S
C88 C87 1.404 1_565 S
C88 C89 1.404 . S
C89 H72 0.957 . S
C89 C84 1.369 1_565 S
C89 C88 1.404 . S
C90 P64 1.819 . S
C90 C91 1.391 . S
C90 C95 1.391 1_554 S
C91 H73 0.941 . S
C91 C90 1.391 . S
C91 C92 1.396 1_554 S
C92 H76 0.939 . S
C92 C91 1.396 1_556 S
C92 C93 1.397 . S
C93 C92 1.397 . S
C93 C94 1.385 1_545 S
C94 H77 0.940 . S
C94 C93 1.385 1_565 S
C94 C95 1.388 1_565 S
C95 H74 0.928 1_545 S
C95 C90 1.391 1_556 S
C95 C94 1.388 1_545 S
P96 O107 1.490 . S
P96 C110 1.812 . S
P96 C116 1.803 . S
P96 C122 1.819 . S
H97 C111 0.941 . S
H98 C112 0.939 . S
H99 C114 0.940 . S
H100 C115 0.940 . S
H101 C117 0.939 . S
H102 C118 0.942 . S
H103 C120 0.940 . S
H104 C121 0.939 . S
H105 C123 0.941 . S
H106 C127 0.939 . S
O107 P96 1.490 . S
H108 C124 0.940 1_554 S
H109 C126 0.940 . S
C110 P96 1.812 . S
C110 C111 1.389 . S
C110 C115 1.391 . S
C111 H97 0.941 . S
C111 C110 1.389 . S
C111 C112 1.397 . S
C112 H98 0.939 . S
C112 C111 1.397 . S
C112 C113 1.378 . S
C113 C112 1.378 . S
C113 C114 1.378 . S
C114 H99 0.940 . S
C114 C113 1.378 . S
C114 C115 1.396 . S
C115 H100 0.940 . S
C115 C110 1.391 . S
C115 C114 1.396 . S
C116 P96 1.803 . S
C116 C117 1.378 . S
C116 C121 1.400 . S
C117 H101 0.939 . S
C117 C116 1.378 . S
C117 C118 1.361 . S
C118 H102 0.942 . S
C118 C117 1.361 . S
C118 C119 1.369 . S
C119 C118 1.369 . S
C119 C120 1.404 . S
C120 H103 0.940 . S
C120 C119 1.404 . S
C120 C121 1.389 . S
C121 H104 0.939 . S
C121 C116 1.400 . S
C121 C120 1.389 . S
C122 P96 1.819 . S
C122 C123 1.391 . S
C122 C127 1.391 1_554 S
C123 H105 0.941 . S
C123 C122 1.391 . S
C123 C124 1.391 1_554 S
C124 H108 0.940 1_556 S
C124 C123 1.391 1_556 S
C124 C125 1.403 . S
C125 C124 1.403 . S
C125 C126 1.385 . S
C126 H109 0.940 . S
C126 C125 1.385 . S
C126 C127 1.388 . S
C127 H106 0.939 . S
C127 C122 1.391 1_556 S
C127 C126 1.388 . S
P128 O139 1.490 . S
P128 C142 1.812 . S
P128 C148 1.803 . S
P128 C154 1.819 . S
H129 C143 0.941 . S
H130 C144 0.939 . S
H131 C146 0.940 . S
H132 C147 0.940 . S
H133 C149 0.939 . S
H134 C150 0.942 . S
H135 C152 0.940 . S
H136 C153 0.939 . S
H137 C155 0.941 . S
H138 C159 0.939 . S
O139 P128 1.490 . S
H140 C156 0.939 . S
H141 C158 0.940 . S
C142 P128 1.812 . S
C142 C143 1.389 . S
C142 C147 1.391 . S
C143 H129 0.941 . S
C143 C142 1.389 . S
C143 C144 1.397 . S
C144 H130 0.939 . S
C144 C143 1.397 . S
C144 C145 1.378 . S
C145 C144 1.378 . S
C145 C146 1.378 . S
C146 H131 0.940 . S
C146 C145 1.378 . S
C146 C147 1.396 . S
C147 H132 0.940 . S
C147 C142 1.391 . S
C147 C146 1.396 . S
C148 P128 1.803 . S
C148 C149 1.378 . S
C148 C153 1.400 . S
C149 H133 0.939 . S
C149 C148 1.378 . S
C149 C150 1.361 . S
C150 H134 0.942 . S
C150 C149 1.361 . S
C150 C151 1.369 . S
C151 C150 1.369 . S
C151 C152 1.404 . S
C152 H135 0.940 . S
C152 C151 1.404 . S
C152 C153 1.389 . S
C153 H136 0.939 . S
C153 C148 1.400 . S
C153 C152 1.389 . S
C154 P128 1.819 . S
C154 C155 1.391 . S
C154 C159 1.391 . S
C155 H137 0.941 . S
C155 C154 1.391 . S
C155 C156 1.396 . S
C156 H140 0.939 . S
C156 C155 1.396 . S
C156 C157 1.397 . S
C157 C156 1.397 . S
C157 C158 1.385 . S
C158 H141 0.940 . S
C158 C157 1.385 . S
C158 C159 1.388 . S
C159 H138 0.939 . S
C159 C154 1.391 . S
C159 C158 1.388 . S
P160 O171 1.490 . S
P160 C174 1.812 . S
P160 C180 1.803 . S
P160 C186 1.819 . S
H161 C175 0.941 . S
H162 C176 0.939 . S
H163 C178 0.940 . S
H164 C179 0.940 . S
H165 C181 0.939 . S
H166 C182 0.942 . S
H167 C184 0.940 . S
H168 C185 0.939 . S
H169 C187 0.941 . S
H170 C191 0.939 . S
O171 P160 1.490 . S
H172 C188 0.939 . S
H173 C190 0.940 . S
C174 P160 1.812 . S
C174 C175 1.389 . S
C174 C179 1.391 . S
C175 H161 0.941 . S
C175 C174 1.389 . S
C175 C176 1.397 . S
C176 H162 0.939 . S
C176 C175 1.397 . S
C176 C177 1.378 . S
C177 C176 1.378 . S
C177 C178 1.378 . S
C178 H163 0.940 . S
C178 C177 1.378 . S
C178 C179 1.396 . S
C179 H164 0.940 . S
C179 C174 1.391 . S
C179 C178 1.396 . S
C180 P160 1.803 . S
C180 C181 1.378 . S
C180 C185 1.400 . S
C181 H165 0.939 . S
C181 C180 1.378 . S
C181 C182 1.361 . S
C182 H166 0.942 . S
C182 C181 1.361 . S
C182 C183 1.369 . S
C183 C182 1.369 . S
C183 C184 1.404 . S
C184 H167 0.940 . S
C184 C183 1.404 . S
C184 C185 1.389 . S
C185 H168 0.939 . S
C185 C180 1.400 . S
C185 C184 1.389 . S
C186 P160 1.819 . S
C186 C187 1.391 . S
C186 C191 1.391 . S
C187 H169 0.941 . S
C187 C186 1.391 . S
C187 C188 1.396 . S
C188 H172 0.939 . S
C188 C187 1.396 . S
C188 C189 1.397 . S
C189 C188 1.397 . S
C189 C190 1.385 . S
C190 H173 0.940 . S
C190 C189 1.385 . S
C190 C191 1.388 . S
C191 H170 0.939 . S
C191 C186 1.391 . S
C191 C190 1.388 . S
P192 O203 1.490 . S
P192 C206 1.812 . S
P192 C212 1.803 . S
P192 C218 1.819 . S
H193 C207 0.941 . S
H194 C208 0.939 . S
H195 C210 0.940 . S
H196 C211 0.944 . S
H197 C213 0.939 . S
H198 C214 0.942 . S
H199 C216 0.940 . S
H200 C217 0.955 . S
H201 C219 0.941 . S
H202 C223 0.933 1_565 S
O203 P192 1.490 . S
H204 C220 0.939 . S
H205 C222 0.940 . S
C206 P192 1.812 . S
C206 C207 1.389 . S
C206 C211 1.383 1_545 S
C207 H193 0.941 . S
C207 C206 1.389 . S
C207 C208 1.397 . S
C208 H194 0.939 . S
C208 C207 1.397 . S
C208 C209 1.378 . S
C209 C208 1.378 . S
C209 C210 1.378 1_545 S
C210 H195 0.940 . S
C210 C209 1.378 1_565 S
C210 C211 1.400 . S
C211 H196 0.944 . S
C211 C206 1.383 1_565 S
C211 C210 1.400 . S
C212 P192 1.803 . S
C212 C213 1.378 . S
C212 C217 1.377 1_545 S
C213 H197 0.939 . S
C213 C212 1.378 . S
C213 C214 1.361 . S
C214 H198 0.942 . S
C214 C213 1.361 . S
C214 C215 1.369 . S
C215 C214 1.369 . S
C215 C216 1.404 1_545 S
C216 H199 0.940 . S
C216 C215 1.404 1_565 S
C216 C217 1.397 . S
C217 H200 0.955 . S
C217 C212 1.377 1_565 S
C217 C216 1.397 . S
C218 P192 1.819 . S
C218 C219 1.391 . S
C218 C223 1.391 . S
C219 H201 0.941 . S
C219 C218 1.391 . S
C219 C220 1.396 . S
C220 H204 0.939 . S
C220 C219 1.396 . S
C220 C221 1.397 . S
C221 C220 1.397 . S
C221 C222 1.385 1_545 S
C222 H205 0.940 . S
C222 C221 1.385 1_565 S
C222 C223 1.388 1_565 S
C223 H202 0.933 1_545 S
C223 C218 1.391 . S
C223 C222 1.388 1_545 S
P224 O235 1.490 . S
P224 C238 1.812 . S
P224 C244 1.803 . S
P224 C250 1.819 . S
H225 C239 0.941 . S
H226 C240 0.939 . S
H227 C242 0.940 . S
H228 C243 0.940 . S
H229 C245 0.939 . S
H230 C246 0.942 . S
H231 C248 0.940 . S
H232 C249 0.939 . S
H233 C251 0.941 . S
H234 C255 0.939 . S
O235 P224 1.490 . S
H236 C252 0.939 . S
H237 C254 0.940 . S
C238 P224 1.812 . S
C238 C239 1.389 . S
C238 C243 1.391 . S
C239 H225 0.941 . S
C239 C238 1.389 . S
C239 C240 1.397 . S
C240 H226 0.939 . S
C240 C239 1.397 . S
C240 C241 1.378 . S
C241 C240 1.378 . S
C241 C242 1.378 . S
C242 H227 0.940 . S
C242 C241 1.378 . S
C242 C243 1.396 . S
C243 H228 0.940 . S
C243 C238 1.391 . S
C243 C242 1.396 . S
C244 P224 1.803 . S
C244 C245 1.378 . S
C244 C249 1.400 . S
C245 H229 0.939 . S
C245 C244 1.378 . S
C245 C246 1.361 . S
C246 H230 0.942 . S
C246 C245 1.361 . S
C246 C247 1.369 . S
C247 C246 1.369 . S
C247 C248 1.404 . S
C248 H231 0.940 . S
C248 C247 1.404 . S
C248 C249 1.389 . S
C249 H232 0.939 . S
C249 C244 1.400 . S
C249 C248 1.389 . S
C250 P224 1.819 . S
C250 C251 1.391 . S
C250 C255 1.391 . S
C251 H233 0.941 . S
C251 C250 1.391 . S
C251 C252 1.396 . S
C252 H236 0.939 . S
C252 C251 1.396 . S
C252 C253 1.397 . S
C253 C252 1.397 . S
C253 C254 1.385 . S
C254 H237 0.940 . S
C254 C253 1.385 . S
C254 C255 1.388 . S
C255 H234 0.939 . S
C255 C250 1.391 . S
C255 C254 1.388 . S
C256 O272 1.257 . S
C256 O274 1.245 1_655 S
N257 C258 1.333 . S
N257 C262 1.307 . S
N257 Zn263 2.020 . S
C258 N257 1.333 . S
C258 C259 1.379 . S
C258 H276 0.952 . S
C259 C258 1.379 . S
C259 C260 1.390 . S
C259 H286 0.949 . S
C260 C259 1.390 . S
C260 C261 1.357 . S
C261 C260 1.357 . S
C261 C262 1.370 . S
C261 H287 0.950 . S
C262 N257 1.307 . S
C262 C261 1.370 . S
C262 H280 0.948 1_565 S
Zn263 N257 2.020 . S
Zn263 O272 2.039 . S
Zn263 O278 2.034 1_655 S
Zn263 O282 2.025 1_665 S
Zn263 O284 2.024 1_565 S
C264 O283 1.246 . S
C264 O284 1.249 . S
N265 C266 1.307 . S
N265 C267 1.333 . S
N265 Zn271 2.020 . S
C266 N265 1.307 . S
C266 C270 1.370 1_556 S
C266 H277 0.948 1_545 S
C267 N265 1.333 . S
C267 C268 1.379 . S
C267 H275 0.952 . S
C268 C267 1.379 . S
C268 C269 1.390 1_556 S
C268 H288 0.949 . S
C269 C268 1.390 1_554 S
C269 C270 1.357 . S
C270 C266 1.370 1_554 S
C270 C269 1.357 . S
C270 H289 0.950 . S
Zn271 N265 2.020 . S
Zn271 O274 2.025 1_545 S
Zn271 O279 2.024 . S
Zn271 O281 2.039 . S
Zn271 O283 2.034 1_455 S
O272 C256 1.257 . S
O272 Zn263 2.039 . S
C273 O278 1.246 . S
C273 O279 1.249 1_565 S
O274 C256 1.245 1_455 S
O274 Zn271 2.025 1_565 S
H275 C267 0.952 . S
H276 C258 0.952 . S
H277 C266 0.948 1_565 S
O278 Zn263 2.034 1_455 S
O278 C273 1.246 . S
O279 Zn271 2.024 . S
O279 C273 1.249 1_545 S
H280 C262 0.948 1_545 S
O281 Zn271 2.039 . S
O281 C285 1.251 . S
O282 Zn263 2.025 1_445 S
O282 C285 1.254 . S
O283 C264 1.246 . S
O283 Zn271 2.034 1_655 S
O284 Zn263 2.024 1_545 S
O284 C264 1.249 . S
C285 O281 1.251 . S
C285 O282 1.254 . S
H286 C259 0.949 . S
H287 C261 0.950 . S
H288 C268 0.949 . S
H289 C270 0.950 . S
C290 O306 1.251 1_565 S
C290 O308 1.254 . S
N291 C292 1.333 . S
N291 C296 1.307 . S
N291 Zn297 2.020 . S
C292 N291 1.333 . S
C292 C293 1.379 . S
C292 H310 0.952 . S
C293 C292 1.379 . S
C293 C294 1.390 . S
C293 H320 0.949 . S
C294 C293 1.390 . S
C294 C295 1.357 . S
C295 C294 1.357 . S
C295 C296 1.370 . S
C295 H321 0.950 . S
C296 N291 1.307 . S
C296 C295 1.370 . S
C296 H314 0.948 . S
Zn297 N291 2.020 . S
Zn297 O306 2.039 . S
Zn297 O312 2.034 . S
Zn297 O316 2.025 . S
Zn297 O318 2.024 . S
C298 O317 1.246 1_545 S
C298 O318 1.249 . S
N299 C300 1.307 . S
N299 C301 1.333 . S
N299 Zn305 2.020 . S
C300 N299 1.307 . S
C300 C304 1.370 . S
C300 H311 0.948 . S
C301 N299 1.333 . S
C301 C302 1.379 . S
C301 H309 0.952 . S
C302 C301 1.379 . S
C302 C303 1.390 . S
C302 H322 0.949 . S
C303 C302 1.390 . S
C303 C304 1.357 . S
C304 C300 1.370 . S
C304 C303 1.357 . S
C304 H323 0.950 . S
Zn305 N299 2.020 . S
Zn305 O308 2.025 . S
Zn305 O313 2.024 . S
Zn305 O315 2.039 . S
Zn305 O317 2.034 . S
O306 C290 1.251 1_545 S
O306 Zn297 2.039 . S
C307 O312 1.246 1_565 S
C307 O313 1.249 . S
O308 C290 1.254 . S
O308 Zn305 2.025 . S
H309 C301 0.952 . S
H310 C292 0.952 . S
H311 C300 0.948 . S
O312 Zn297 2.034 . S
O312 C307 1.246 1_545 S
O313 Zn305 2.024 . S
O313 C307 1.249 . S
H314 C296 0.948 . S
O315 Zn305 2.039 . S
O315 C319 1.251 1_565 S
O316 Zn297 2.025 . S
O316 C319 1.254 . S
O317 C298 1.246 1_565 S
O317 Zn305 2.034 . S
O318 Zn297 2.024 . S
O318 C298 1.249 . S
C319 O315 1.251 1_545 S
C319 O316 1.254 . S
H320 C293 0.949 . S
H321 C295 0.950 . S
H322 C302 0.949 . S
H323 C304 0.950 . S
C324 O340 1.251 . S
C324 O342 1.254 . S
N325 C326 1.333 . S
N325 C330 1.307 . S
N325 Zn331 2.020 . S
C326 N325 1.333 . S
C326 C327 1.379 . S
C326 H344 0.952 . S
C327 C326 1.379 . S
C327 C328 1.390 . S
C327 H354 0.949 . S
C328 C327 1.390 . S
C328 C329 1.357 . S
C329 C328 1.357 . S
C329 C330 1.370 . S
C329 H355 0.950 . S
C330 N325 1.307 . S
C330 C329 1.370 . S
C330 H348 0.948 . S
Zn331 N325 2.020 . S
Zn331 O340 2.039 . S
Zn331 O346 2.034 . S
Zn331 O350 2.025 . S
Zn331 O352 2.024 . S
C332 O351 1.246 . S
C332 O352 1.249 . S
N333 C334 1.307 . S
N333 C335 1.333 . S
N333 Zn339 2.020 . S
C334 N333 1.307 . S
C334 C338 1.370 . S
C334 H345 0.948 . S
C335 N333 1.333 . S
C335 C336 1.379 . S
C335 H343 0.952 . S
C336 C335 1.379 . S
C336 C337 1.390 . S
C336 H356 0.949 . S
C337 C336 1.390 . S
C337 C338 1.357 . S
C338 C334 1.370 . S
C338 C337 1.357 . S
C338 H357 0.950 . S
Zn339 N333 2.020 . S
Zn339 O342 2.025 . S
Zn339 O347 2.024 . S
Zn339 O349 2.039 . S
Zn339 O351 2.034 . S
O340 C324 1.251 . S
O340 Zn331 2.039 . S
C341 O346 1.246 . S
C341 O347 1.249 . S
O342 C324 1.254 . S
O342 Zn339 2.025 . S
H343 C335 0.952 . S
H344 C326 0.952 . S
H345 C334 0.948 . S
O346 Zn331 2.034 . S
O346 C341 1.246 . S
O347 Zn339 2.024 . S
O347 C341 1.249 . S
H348 C330 0.948 . S
O349 Zn339 2.039 . S
O349 C353 1.251 . S
O350 Zn331 2.025 . S
O350 C353 1.254 . S
O351 C332 1.246 . S
O351 Zn339 2.034 . S
O352 Zn331 2.024 . S
O352 C332 1.249 . S
C353 O349 1.251 . S
C353 O350 1.254 . S
H354 C327 0.949 . S
H355 C329 0.950 . S
H356 C336 0.949 . S
H357 C338 0.950 . S
C358 O374 1.251 . S
C358 O376 1.254 . S
N359 C360 1.333 . S
N359 C364 1.307 . S
N359 Zn365 2.020 . S
C360 N359 1.333 . S
C360 C361 1.379 . S
C360 H378 0.952 . S
C361 C360 1.379 . S
C361 C362 1.390 . S
C361 H388 0.949 . S
C362 C361 1.390 . S
C362 C363 1.357 . S
C363 C362 1.357 . S
C363 C364 1.370 . S
C363 H389 0.950 . S
C364 N359 1.307 . S
C364 C363 1.370 . S
C364 H382 0.948 . S
Zn365 N359 2.020 . S
Zn365 O374 2.039 . S
Zn365 O380 2.034 1_455 S
Zn365 O384 2.025 1_455 S
Zn365 O386 2.024 . S
C366 O385 1.246 . S
C366 O386 1.249 . S
N367 C368 1.307 . S
N367 C369 1.333 . S
N367 Zn373 2.020 1_655 S
C368 N367 1.307 . S
C368 C372 1.370 . S
C368 H379 0.948 1_655 S
C369 N367 1.333 . S
C369 C370 1.379 . S
C369 H377 0.952 . S
C370 C369 1.379 . S
C370 C371 1.390 . S
C370 H390 0.949 . S
C371 C370 1.390 . S
C371 C372 1.357 . S
C372 C368 1.370 . S
C372 C371 1.357 . S
C372 H391 0.950 . S
Zn373 N367 2.020 1_455 S
Zn373 O376 2.025 . S
Zn373 O381 2.024 1_455 S
Zn373 O383 2.039 1_455 S
Zn373 O385 2.034 . S
O374 C358 1.251 . S
O374 Zn365 2.039 . S
C375 O380 1.246 . S
C375 O381 1.249 . S
O376 C358 1.254 . S
O376 Zn373 2.025 . S
H377 C369 0.952 . S
H378 C360 0.952 . S
H379 C368 0.948 1_455 S
O380 Zn365 2.034 1_655 S
O380 C375 1.246 . S
O381 Zn373 2.024 1_655 S
O381 C375 1.249 . S
H382 C364 0.948 . S
O383 Zn373 2.039 1_655 S
O383 C387 1.251 . S
O384 Zn365 2.025 1_655 S
O384 C387 1.254 . S
O385 C366 1.246 . S
O385 Zn373 2.034 . S
O386 Zn365 2.024 . S
O386 C366 1.249 . S
C387 O383 1.251 . S
C387 O384 1.254 . S
H388 C361 0.949 . S
H389 C363 0.950 . S
H390 C370 0.949 . S
H391 C372 0.950 . S
C392 C393 1.369 1_545 S
C392 C394 1.419 . S
C392 H396 0.930 . S
C393 C392 1.369 1_565 S
C393 C402 1.429 . S
C394 C392 1.419 . S
C394 C395 1.363 1_545 S
C394 H397 0.929 . S
C395 C394 1.363 1_565 S
C395 C401 1.428 . S
H396 C392 0.930 . S
H397 C394 0.929 . S
S398 N399 1.613 . S
S398 N400 1.610 . S
N399 S398 1.613 . S
N399 C402 1.350 . S
N400 S398 1.610 . S
N400 C401 1.351 . S
C401 C395 1.428 . S
C401 N400 1.351 . S
C401 C402 1.434 . S
C402 C393 1.429 . S
C402 N399 1.350 . S
C402 C401 1.434 . S
C403 C404 1.369 . S
C403 C405 1.419 . S
C403 H407 0.930 . S
C404 C403 1.369 . S
C404 C413 1.429 . S
C405 C403 1.419 . S
C405 C406 1.363 . S
C405 H408 0.929 . S
C406 C405 1.363 . S
C406 C412 1.428 . S
H407 C403 0.930 . S
H408 C405 0.929 . S
S409 N410 1.613 . S
S409 N411 1.610 . S
N410 S409 1.613 . S
N410 C413 1.350 . S
N411 S409 1.610 . S
N411 C412 1.351 . S
C412 C406 1.428 . S
C412 N411 1.351 . S
C412 C413 1.434 . S
C413 C404 1.429 . S
C413 N410 1.350 . S
C413 C412 1.434 . S
C414 C415 1.369 . S
C414 C416 1.419 . S
C414 H418 0.930 . S
C415 C414 1.369 . S
C415 C424 1.429 . S
C416 C414 1.419 . S
C416 C417 1.363 . S
C416 H419 0.929 . S
C417 C416 1.363 . S
C417 C423 1.428 . S
H418 C414 0.930 . S
H419 C416 0.929 . S
S420 N421 1.613 . S
S420 N422 1.610 . S
N421 S420 1.613 . S
N421 C424 1.350 . S
N422 S420 1.610 . S
N422 C423 1.351 . S
C423 C417 1.428 . S
C423 N422 1.351 . S
C423 C424 1.434 . S
C424 C415 1.429 . S
C424 N421 1.350 . S
C424 C423 1.434 . S
C425 C426 1.369 . S
C425 C427 1.419 . S
C425 H429 0.930 . S
C426 C425 1.369 . S
C426 C435 1.429 . S
C427 C425 1.419 . S
C427 C428 1.363 . S
C427 H430 0.929 . S
C428 C427 1.363 . S
C428 C434 1.428 . S
H429 C425 0.930 . S
H430 C427 0.929 . S
S431 N432 1.613 . S
S431 N433 1.610 . S
N432 S431 1.613 . S
N432 C435 1.350 . S
N433 S431 1.610 . S
N433 C434 1.351 . S
C434 C428 1.428 . S
C434 N433 1.351 . S
C434 C435 1.434 . S
C435 C426 1.429 . S
C435 N432 1.350 . S
C435 C434 1.434 . S
C436 C437 1.369 1_565 S
C436 C438 1.419 . S
C436 H440 0.930 . S
C437 C436 1.369 1_545 S
C437 C446 1.429 . S
C438 C436 1.419 . S
C438 C439 1.363 1_565 S
C438 H441 0.929 . S
C439 C438 1.363 1_545 S
C439 C445 1.428 . S
H440 C436 0.930 . S
H441 C438 0.929 . S
S442 N443 1.613 . S
S442 N444 1.610 . S
N443 S442 1.613 . S
N443 C446 1.350 . S
N444 S442 1.610 . S
N444 C445 1.351 . S
C445 C439 1.428 . S
C445 N444 1.351 . S
C445 C446 1.434 . S
C446 C437 1.429 . S
C446 N443 1.350 . S
C446 C445 1.434 . S
C447 C448 1.372 . S
C447 C449 1.419 . S
C447 H451 0.930 . S
C448 C447 1.372 . S
C448 C457 1.429 1_556 S
C449 C447 1.419 . S
C449 C450 1.363 . S
C449 H452 0.929 . S
C450 C449 1.363 . S
C450 C456 1.428 . S
H451 C447 0.930 . S
H452 C449 0.929 . S
S453 N454 1.613 . S
S453 N455 1.610 1_554 S
N454 S453 1.613 . S
N454 C457 1.350 . S
N455 S453 1.610 1_556 S
N455 C456 1.351 . S
C456 C450 1.428 . S
C456 N455 1.351 . S
C456 C457 1.434 1_556 S
C457 C448 1.429 1_554 S
C457 N454 1.350 . S
C457 C456 1.434 1_554 S
C458 C459 1.369 . S
C458 C460 1.419 1_554 S
C458 H462 0.930 . S
C459 C458 1.369 . S
C459 C468 1.429 . S
C460 C458 1.419 1_556 S
C460 C461 1.363 . S
C460 H463 0.929 . S
C461 C460 1.363 . S
C461 C467 1.428 . S
H462 C458 0.930 . S
H463 C460 0.929 . S
S464 N465 1.613 . S
S464 N466 1.610 1_554 S
N465 S464 1.613 . S
N465 C468 1.350 . S
N466 S464 1.610 1_556 S
N466 C467 1.351 . S
C467 C461 1.428 . S
C467 N466 1.351 . S
C467 C468 1.434 1_556 S
C468 C459 1.429 . S
C468 N465 1.350 . S
C468 C467 1.434 1_554 S
C469 C470 1.369 . S
C469 C471 1.419 . S
C469 H473 0.930 . S
C470 C469 1.369 . S
C470 C479 1.429 . S
C471 C469 1.419 . S
C471 C472 1.363 . S
C471 H474 0.929 . S
C472 C471 1.363 . S
C472 C478 1.428 . S
H473 C469 0.930 . S
H474 C471 0.929 . S
S475 N476 1.613 . S
S475 N477 1.610 1_554 S
N476 S475 1.613 . S
N476 C479 1.350 1_554 S
N477 S475 1.610 1_556 S
N477 C478 1.351 . S
C478 C472 1.428 . S
C478 N477 1.351 . S
C478 C479 1.434 . S
C479 C470 1.429 . S
C479 N476 1.350 1_556 S
C479 C478 1.434 . S
C480 C481 1.369 . S
C480 C482 1.419 . S
C480 H484 0.930 . S
C481 C480 1.369 . S
C481 C490 1.429 . S
C482 C480 1.419 . S
C482 C483 1.363 . S
C482 H485 0.929 . S
C483 C482 1.363 . S
C483 C489 1.428 . S
H484 C480 0.930 . S
H485 C482 0.929 . S
S486 N487 1.613 . S
S486 N488 1.610 . S
N487 S486 1.613 . S
N487 C490 1.350 . S
N488 S486 1.610 . S
N488 C489 1.351 . S
C489 C483 1.428 . S
C489 N488 1.351 . S
C489 C490 1.434 . S
C490 C481 1.429 . S
C490 N487 1.350 . S
C490 C489 1.434 . S
C491 C492 1.355 1_545 S
C491 C493 1.419 . S
C491 H495 0.930 . S
C492 C491 1.355 1_565 S
C492 C501 1.450 . S
C493 C491 1.419 . S
C493 C494 1.363 1_545 S
C493 H496 0.929 . S
C494 C493 1.363 1_565 S
C494 C500 1.428 . S
H495 C491 0.930 . S
H496 C493 0.929 . S
S497 N498 1.613 . S
S497 N499 1.610 . S
N498 S497 1.613 . S
N498 C501 1.350 . S
N499 S497 1.610 . S
N499 C500 1.351 . S
C500 C494 1.428 . S
C500 N499 1.351 . S
C500 C501 1.434 . S
C501 C492 1.450 . S
C501 N498 1.350 . S
C501 C500 1.434 . S
C502 C503 1.369 . S
C502 C504 1.419 . S
C502 H506 0.930 . S
C503 C502 1.369 . S
C503 C512 1.429 . S
C504 C502 1.419 . S
C504 C505 1.363 . S
C504 H507 0.929 . S
C505 C504 1.363 . S
C505 C511 1.428 . S
H506 C502 0.930 . S
H507 C504 0.929 . S
S508 N509 1.613 . S
S508 N510 1.610 . S
N509 S508 1.613 . S
N509 C512 1.350 . S
N510 S508 1.610 . S
N510 C511 1.351 . S
C511 C505 1.428 . S
C511 N510 1.351 . S
C511 C512 1.434 . S
C512 C503 1.429 . S
C512 N509 1.350 . S
C512 C511 1.434 . S
C513 C514 1.369 . S
C513 C515 1.419 . S
C513 H517 0.930 . S
C514 C513 1.369 . S
C514 C523 1.429 . S
C515 C513 1.419 . S
C515 C516 1.363 . S
C515 H518 0.929 . S
C516 C515 1.363 . S
C516 C522 1.428 . S
H517 C513 0.930 . S
H518 C515 0.929 . S
S519 N520 1.613 . S
S519 N521 1.610 . S
N520 S519 1.613 . S
N520 C523 1.350 . S
N521 S519 1.610 . S
N521 C522 1.351 . S
C522 C516 1.428 . S
C522 N521 1.351 . S
C522 C523 1.434 . S
C523 C514 1.429 . S
C523 N520 1.350 . S
C523 C522 1.434 . S
C524 C525 1.369 . S
C524 C526 1.419 . S
C524 H528 0.930 . S
C525 C524 1.369 . S
C525 C534 1.429 . S
C526 C524 1.419 . S
C526 C527 1.363 . S
C526 H529 0.929 . S
C527 C526 1.363 . S
C527 C533 1.428 . S
H528 C524 0.930 . S
H529 C526 0.929 . S
S530 N531 1.613 1_455 S
S530 N532 1.610 . S
N531 S530 1.613 1_655 S
N531 C534 1.350 . S
N532 S530 1.610 . S
N532 C533 1.351 1_455 S
C533 C527 1.428 . S
C533 N532 1.351 1_655 S
C533 C534 1.434 . S
C534 C525 1.429 . S
C534 N531 1.350 . S
C534 C533 1.434 . S
C535 C536 1.354 1_565 S
C535 C537 1.419 . S
C535 H539 0.930 . S
C536 C535 1.354 1_545 S
C536 C545 1.450 . S
C537 C535 1.419 . S
C537 C538 1.363 1_565 S
C537 H540 0.929 . S
C538 C537 1.363 1_545 S
C538 C544 1.428 . S
H539 C535 0.930 . S
H540 C537 0.929 . S
S541 N542 1.613 . S
S541 N543 1.610 1_554 S
N542 S541 1.613 . S
N542 C545 1.350 1_554 S
N543 S541 1.610 1_556 S
N543 C544 1.351 . S
C544 C538 1.428 . S
C544 N543 1.351 . S
C544 C545 1.434 . S
C545 C536 1.450 . S
C545 N542 1.350 1_556 S
C545 C544 1.434 . S
C546 C547 1.369 . S
C546 C548 1.419 . S
C546 H550 0.930 1_556 S
C547 C546 1.369 . S
C547 C556 1.429 . S
C548 C546 1.419 . S
C548 C549 1.363 . S
C548 H551 0.929 . S
C549 C548 1.363 . S
C549 C555 1.428 . S
H550 C546 0.930 1_554 S
H551 C548 0.929 . S
S552 N553 1.613 . S
S552 N554 1.610 . S
N553 S552 1.613 . S
N553 C556 1.350 . S
N554 S552 1.610 . S
N554 C555 1.351 . S
C555 C549 1.428 . S
C555 N554 1.351 . S
C555 C556 1.434 . S
C556 C547 1.429 . S
C556 N553 1.350 . S
C556 C555 1.434 . S
C557 C558 1.369 . S
C557 C559 1.419 . S
C557 H561 0.930 . S
C558 C557 1.369 . S
C558 C567 1.429 . S
C559 C557 1.419 . S
C559 C560 1.363 . S
C559 H562 0.929 . S
C560 C559 1.363 . S
C560 C566 1.428 . S
H561 C557 0.930 . S
H562 C559 0.929 . S
S563 N564 1.613 . S
S563 N565 1.610 . S
N564 S563 1.613 . S
N564 C567 1.350 . S
N565 S563 1.610 . S
N565 C566 1.351 . S
C566 C560 1.428 . S
C566 N565 1.351 . S
C566 C567 1.434 . S
C567 C558 1.429 . S
C567 N564 1.350 . S
C567 C566 1.434 . S
C568 C569 1.369 . S
C568 C570 1.419 . S
C568 H572 0.930 . S
C569 C568 1.369 . S
C569 C578 1.429 . S
C570 C568 1.419 . S
C570 C571 1.363 . S
C570 H573 0.929 . S
C571 C570 1.363 . S
C571 C577 1.428 . S
H572 C568 0.930 . S
H573 C570 0.929 . S
S574 N575 1.613 . S
S574 N576 1.610 . S
N575 S574 1.613 . S
N575 C578 1.350 . S
N576 S574 1.610 . S
N576 C577 1.351 . S
C577 C571 1.428 . S
C577 N576 1.351 . S
C577 C578 1.434 . S
C578 C569 1.429 . S
C578 N575 1.350 . S
C578 C577 1.434 . S
C579 C580 1.388 . S
C579 C581 1.419 1_554 S
C579 H583 0.930 . S
C580 C579 1.388 . S
C580 C589 1.409 1_544 S
C581 C579 1.419 1_556 S
C581 C582 1.363 . S
C581 H584 0.929 . S
C582 C581 1.363 . S
C582 C588 1.428 1_545 S
H583 C579 0.930 . S
H584 C581 0.929 . S
S585 N586 1.613 1_556 S
S585 N587 1.610 . S
N586 S585 1.613 1_554 S
N586 C589 1.350 1_554 S
N587 S585 1.610 . S
N587 C588 1.351 . S
C588 C582 1.428 1_565 S
C588 N587 1.351 . S
C588 C589 1.434 . S
C589 C580 1.409 1_566 S
C589 N586 1.350 1_556 S
C589 C588 1.434 . S
C590 C591 1.369 . S
C590 C592 1.419 . S
C590 H594 0.930 . S
C591 C590 1.369 . S
C591 C600 1.429 1_554 S
C592 C590 1.419 . S
C592 C593 1.363 1_554 S
C592 H595 0.929 . S
C593 C592 1.363 1_556 S
C593 C599 1.428 . S
H594 C590 0.930 . S
H595 C592 0.929 . S
S596 N597 1.613 . S
S596 N598 1.610 . S
N597 S596 1.613 . S
N597 C600 1.350 . S
N598 S596 1.610 . S
N598 C599 1.351 . S
C599 C593 1.428 . S
C599 N598 1.351 . S
C599 C600 1.434 . S
C600 C591 1.429 1_556 S
C600 N597 1.350 . S
C600 C599 1.434 . S
C601 C602 1.369 . S
C601 C603 1.419 . S
C601 H605 0.930 . S
C602 C601 1.369 . S
C602 C611 1.429 . S
C603 C601 1.419 . S
C603 C604 1.363 . S
C603 H606 0.929 . S
C604 C603 1.363 . S
C604 C610 1.428 . S
H605 C601 0.930 . S
H606 C603 0.929 . S
S607 N608 1.613 . S
S607 N609 1.610 . S
N608 S607 1.613 . S
N608 C611 1.350 . S
N609 S607 1.610 . S
N609 C610 1.351 . S
C610 C604 1.428 . S
C610 N609 1.351 . S
C610 C611 1.434 . S
C611 C602 1.429 . S
C611 N608 1.350 . S
C611 C610 1.434 . S
C612 C613 1.369 . S
C612 C614 1.419 . S
C612 H616 0.930 . S
C613 C612 1.369 . S
C613 C622 1.429 . S
C614 C612 1.419 . S
C614 C615 1.363 . S
C614 H617 0.929 . S
C615 C614 1.363 . S
C615 C621 1.428 . S
H616 C612 0.930 . S
H617 C614 0.929 . S
S618 N619 1.613 . S
S618 N620 1.610 . S
N619 S618 1.613 . S
N619 C622 1.350 . S
N620 S618 1.610 . S
N620 C621 1.351 . S
C621 C615 1.428 . S
C621 N620 1.351 . S
C621 C622 1.434 . S
C622 C613 1.429 . S
C622 N619 1.350 . S
C622 C621 1.434 . S
C623 C624 1.369 1_545 S
C623 C625 1.419 . S
C623 H627 0.930 . S
C624 C623 1.369 1_565 S
C624 C633 1.429 . S
C625 C623 1.419 . S
C625 C626 1.363 1_545 S
C625 H628 0.929 . S
C626 C625 1.363 1_565 S
C626 C632 1.428 . S
H627 C623 0.930 . S
H628 C625 0.929 . S
S629 N630 1.613 . S
S629 N631 1.610 . S
N630 S629 1.613 . S
N630 C633 1.350 . S
N631 S629 1.610 . S
N631 C632 1.351 . S
C632 C626 1.428 . S
C632 N631 1.351 . S
C632 C633 1.434 . S
C633 C624 1.429 . S
C633 N630 1.350 . S
C633 C632 1.434 . S
C634 C635 1.369 . S
C634 C636 1.419 . S
C634 H638 0.930 . S
C635 C634 1.369 . S
C635 C644 1.429 . S
C636 C634 1.419 . S
C636 C637 1.363 . S
C636 H639 0.929 . S
C637 C636 1.363 . S
C637 C643 1.428 . S
H638 C634 0.930 . S
H639 C636 0.929 . S
S640 N641 1.613 . S
S640 N642 1.610 . S
N641 S640 1.613 . S
N641 C644 1.350 . S
N642 S640 1.610 . S
N642 C643 1.351 . S
C643 C637 1.428 . S
C643 N642 1.351 . S
C643 C644 1.434 . S
C644 C635 1.429 . S
C644 N641 1.350 . S
C644 C643 1.434 . S
C645 C646 1.369 . S
C645 C647 1.419 . S
C645 H649 0.930 . S
C646 C645 1.369 . S
C646 C655 1.429 . S
C647 C645 1.419 . S
C647 C648 1.363 . S
C647 H650 0.929 . S
C648 C647 1.363 . S
C648 C654 1.428 . S
H649 C645 0.930 . S
H650 C647 0.929 . S
S651 N652 1.613 . S
S651 N653 1.610 . S
N652 S651 1.613 . S
N652 C655 1.350 . S
N653 S651 1.610 . S
N653 C654 1.351 . S
C654 C648 1.428 . S
C654 N653 1.351 . S
C654 C655 1.434 . S
C655 C646 1.429 . S
C655 N652 1.350 . S
C655 C654 1.434 . S
C393 C215 1.894 1_565 S
C395 C273 1.910 . S
C406 C294 1.692 . S
C404 C247 1.702 . S
C417 C328 1.629 . S
C415 C151 1.572 . S
C428 C362 1.670 . S
C426 C183 1.682 . S
C439 C264 1.912 . S
C437 C87 1.851 1_556 S
C448 C119 1.568 1_556 S
C450 C303 1.697 . S
C459 C23 1.631 . S
C461 C337 1.631 . S
C470 C55 1.538 . S
C472 C371 1.669 . S
C483 C285 1.099 . S
C481 C189 1.097 . S
C494 C290 0.927 . S
C492 C221 0.908 1_565 S
C505 C324 1.002 . S
C503 C253 1.020 . S
C514 C157 0.632 . S
C516 C358 0.499 . S
C525 C61 0.830 . S
C527 C256 1.114 . S
C538 C319 0.927 . S
C536 C93 0.901 . S
C549 C353 0.999 . S
C547 C125 0.909 . S
C558 C29 0.492 . S
C560 C387 0.505 . S
C569 C177 1.631 . S
C571 C269 1.677 . S
C580 C209 1.930 . S
C582 C298 2.038 . S
C593 C332 1.768 . S
C591 C241 1.710 . S
C604 C366 1.839 . S
C602 C145 1.655 1_556 S
C613 C49 1.525 . S
C615 C260 1.677 . S
C626 C307 2.039 . S
C624 C81 1.932 1_565 S
C637 C341 1.768 . S
C635 C113 1.622 . S
C646 C17 1.777 . S
C648 C375 1.838 . S
