# Generated by pormake.
# Topology anh, (6,3)-cn, num edge types: 1
# Building blocks:
#     Node 0, Type 0, BuildingBlock: BETFEN_clean_sbu_0, # of connection points: 6
#     Node 1, Type 0, BuildingBlock: BETFEN_clean_sbu_0, # of connection points: 6
#     Node 2, Type 0, BuildingBlock: BETFEN_clean_sbu_0, # of connection points: 6
#     Node 3, Type 1, BuildingBlock: ESEHIV_clean_linker_0, # of connection points: 3
#     Node 4, Type 1, BuildingBlock: ESEHIV_clean_linker_0, # of connection points: 3
#     Node 5, Type 1, BuildingBlock: ESEHIV_clean_linker_0, # of connection points: 3
#     Node 6, Type 1, BuildingBlock: ESEHIV_clean_linker_0, # of connection points: 3
#     Node 7, Type 1, BuildingBlock: ESEHIV_clean_linker_0, # of connection points: 3
#     Node 8, Type 1, BuildingBlock: ESEHIV_clean_linker_0, # of connection points: 3
#     Edge 9, Type (0, 1), BuildingBlock: KIFKEQ_clean_linker_1, # of connection points: 2
#     Edge 10, Type (0, 1), BuildingBlock: KIFKEQ_clean_linker_1, # of connection points: 2
#     Edge 11, Type (0, 1), BuildingBlock: KIFKEQ_clean_linker_1, # of connection points: 2
#     Edge 12, Type (0, 1), BuildingBlock: KIFKEQ_clean_linker_1, # of connection points: 2
#     Edge 13, Type (0, 1), BuildingBlock: KIFKEQ_clean_linker_1, # of connection points: 2
#     Edge 14, Type (0, 1), BuildingBlock: KIFKEQ_clean_linker_1, # of connection points: 2
#     Edge 15, Type (0, 1), BuildingBlock: KIFKEQ_clean_linker_1, # of connection points: 2
#     Edge 16, Type (0, 1), BuildingBlock: KIFKEQ_clean_linker_1, # of connection points: 2
#     Edge 17, Type (0, 1), BuildingBlock: KIFKEQ_clean_linker_1, # of connection points: 2
#     Edge 18, Type (0, 1), BuildingBlock: KIFKEQ_clean_linker_1, # of connection points: 2
#     Edge 19, Type (0, 1), BuildingBlock: KIFKEQ_clean_linker_1, # of connection points: 2
#     Edge 20, Type (0, 1), BuildingBlock: KIFKEQ_clean_linker_1, # of connection points: 2
#     Edge 21, Type (0, 1), BuildingBlock: KIFKEQ_clean_linker_1, # of connection points: 2
#     Edge 22, Type (0, 1), BuildingBlock: KIFKEQ_clean_linker_1, # of connection points: 2
#     Edge 23, Type (0, 1), BuildingBlock: KIFKEQ_clean_linker_1, # of connection points: 2
#     Edge 24, Type (0, 1), BuildingBlock: KIFKEQ_clean_linker_1, # of connection points: 2
#     Edge 25, Type (0, 1), BuildingBlock: KIFKEQ_clean_linker_1, # of connection points: 2
#     Edge 26, Type (0, 1), BuildingBlock: KIFKEQ_clean_linker_1, # of connection points: 2
# Relax obj value: 0.214
# Max RMSD: 0.223
# Mean RMSD: 0.164
data_MOF--net-anh--node1-BETFEN_clean_sbu_0--node2-ESEHIV_clean_linker_0--edge1-KIFKEQ_clean_linker_1
_symmetry_space_group_name_H-M    P1
_symmetry_Int_Tables_number       1
_symmetry_cell_setting            triclinic
loop_
_symmetry_equiv_pos_as_xyz
'x, y, z'
_cell_length_a     27.745338
_cell_length_b     28.415007
_cell_length_c     53.580128
_cell_angle_alpha  90.505317
_cell_angle_beta   91.6975
_cell_angle_gamma 101.8048
loop_
_atom_site_label
_atom_site_type_symbol
_atom_site_fract_x
_atom_site_fract_y
_atom_site_fract_z
_atom_type_partial_charge
Pr0 Pr 0.05947 0.55281 0.14436 0.0
Pr1 Pr 0.07951 0.65863 0.134 0.0
C2 C 1.02724 0.46329 0.16145 0.0
C3 C 0.98065 0.43015 0.16692 0.0
C4 C 0.97232 0.38267 0.15784 0.0
C5 C 0.929 0.35015 0.16322 0.0
C6 C 0.89321 0.36438 0.17798 0.0
C7 C 0.90142 0.41232 0.18675 0.0
C8 C 0.94461 0.44494 0.18119 0.0
C9 C 0.07252 0.57371 0.09406 0.0
C10 C 0.96485 0.60713 0.1349 0.0
C11 C 0.11427 0.74956 0.11973 0.0
C12 C 0.15839 0.78688 0.12659 0.0
C13 C 0.15346 0.82658 0.14135 0.0
C14 C 0.19502 0.85972 0.15007 0.0
C15 C 0.24262 0.85429 0.144 0.0
C16 C 0.24739 0.81551 0.1284 0.0
C17 C 0.20579 0.78212 0.11984 0.0
C18 C 0.06865 0.63667 0.1844 0.0
C19 C 0.17499 0.60326 0.14124 0.0
O20 O 1.04115 0.50103 0.17611 0.0
O21 O 1.03567 0.47235 0.13794 0.0
O22 O 0.04764 0.59433 0.10837 0.0
O23 O 0.08985 0.54012 0.1053 0.0
O24 O 0.99555 0.64169 0.12386 0.0
O25 O 0.98127 0.57288 0.14694 0.0
O26 O 0.12106 0.71194 0.10708 0.0
O27 O 0.08187 0.73852 0.13707 0.0
O28 O 0.09338 0.61731 0.16952 0.0
O29 O 0.04966 0.66954 0.17359 0.0
O30 O 0.14467 0.56557 0.14997 0.0
O31 O 0.1586 0.64057 0.13247 0.0
H32 H 0.9995 0.37063 0.14665 0.0
H33 H 0.92358 0.31384 0.15576 0.0
H34 H 0.87502 0.42447 0.1984 0.0
H35 H 0.94998 0.48152 0.18829 0.0
H36 H 0.1174 0.83125 0.14679 0.0
H37 H 0.18978 0.88867 0.1623 0.0
H38 H 0.28334 0.81064 0.12294 0.0
H39 H 0.21097 0.7521 0.10835 0.0
Pr40 Pr 0.60909 0.10157 0.50972 0.0
Pr41 Pr 0.49884 0.07965 0.51539 0.0
C42 C 0.70315 0.13387 0.49691 0.0
C43 C 0.73668 0.17889 0.49044 0.0
C44 C 0.78662 0.18574 0.4976 0.0
C45 C 0.81954 0.22756 0.49106 0.0
C46 C 0.80315 0.2633 0.47709 0.0
C47 C 0.75273 0.25661 0.47034 0.0
C48 C 0.71975 0.21485 0.47703 0.0
C49 C 0.57883 0.07862 0.5578 0.0
C50 C 0.55095 0.19386 0.51869 0.0
C51 C 0.40454 1.04329 0.5263 0.0
C52 C 0.36845 0.99868 0.51971 0.0
C53 C 0.32606 1.00143 0.50534 0.0
C54 C 0.29363 0.95964 0.49695 0.0
C55 C 0.30261 0.914 0.50295 0.0
C56 C 0.34433 0.91135 0.51805 0.0
C57 C 0.37699 0.9532 0.52628 0.0
C58 C 0.52772 0.09733 0.46643 0.0
C59 C 0.55794 0.98642 0.51024 0.0
O60 O 0.66748 0.11657 0.48073 0.0
O61 O 0.68967 0.12977 0.52009 0.0
O62 O 0.56131 0.10652 0.54359 0.0
O63 O 0.61486 1.06322 0.54775 0.0
O64 O 0.51308 0.16168 0.52641 0.0
O65 O 0.58917 0.1797 0.50891 0.0
O66 O 0.44185 1.03954 0.54115 0.0
O67 O 0.417 1.07308 0.50804 0.0
O68 O 0.54643 1.07164 0.48147 0.0
O69 O 0.4922 0.11365 0.47631 0.0
O70 O 0.59801 1.01765 0.50419 0.0
O71 O 0.51753 1.00139 0.51635 0.0
H72 H 0.80024 0.15853 0.50815 0.0
H73 H 0.85787 0.23187 0.49699 0.0
H74 H 0.73886 0.28309 0.45937 0.0
H75 H 0.68121 0.2104 0.47146 0.0
H76 H 0.31868 1.03603 0.5 0.0
H77 H 0.26238 0.96323 0.48507 0.0
H78 H 0.35203 0.8769 0.52339 0.0
H79 H 0.4093 0.94982 0.5374 0.0
Pr80 Pr 0.5635 0.57758 0.81728 0.0
Pr81 Pr 0.58044 0.68139 0.82976 0.0
C82 C 0.53833 0.48519 0.80252 0.0
C83 C 0.55481 0.44128 0.80967 0.0
C84 C 0.51976 0.39856 0.8114 0.0
C85 C 0.53407 0.35657 0.81893 0.0
C86 C 0.58383 0.35652 0.82482 0.0
C87 C 0.61891 0.39968 0.82352 0.0
C88 C 0.60441 0.44196 0.8162 0.0
C89 C 0.57623 0.59744 0.86825 0.0
C90 C 0.67892 0.63093 0.82424 0.0
C91 C 0.59565 0.76755 0.85262 0.0
C92 C 0.55935 0.78884 0.86574 0.0
C93 C 0.55911 0.83763 0.8629 0.0
C94 C 0.51708 0.85512 0.8684 0.0
C95 C 0.4744 0.8239 0.87666 0.0
C96 C 0.47693 0.77619 0.88213 0.0
C97 C 0.51901 0.75875 0.87661 0.0
C98 C 0.56873 0.66148 0.77845 0.0
C99 C 0.46704 0.6285 0.82148 0.0
O100 O 0.56921 0.51733 0.7904 0.0
O101 O 0.5152 0.50369 0.81973 0.0
O102 O 0.54968 0.61625 0.85351 0.0
O103 O 0.59733 0.5671 0.85684 0.0
O104 O 0.66182 0.66856 0.83193 0.0
O105 O 0.64904 0.59154 0.81574 0.0
O106 O 0.60792 0.73003 0.86306 0.0
O107 O 0.58711 0.762 0.82851 0.0
O108 O 0.59447 0.64241 0.79348 0.0
O109 O 0.54882 0.69329 0.78953 0.0
O110 O 0.48547 0.59676 0.80864 0.0
O111 O 0.49625 0.6615 0.83526 0.0
H112 H 0.48129 0.3976 0.80672 0.0
H113 H 0.50632 0.32366 0.81914 0.0
H114 H 0.65746 0.40053 0.82785 0.0
H115 H 0.63189 0.475 0.81547 0.0
H116 H 0.58968 0.86127 0.85438 0.0
H117 H 0.51656 0.89198 0.86365 0.0
H118 H 0.44502 0.75136 0.88871 0.0
H119 H 0.51834 0.72079 0.87895 0.0
H120 H 0.49373 1.04282 0.27284 0.0
H121 H 0.62679 0.15126 0.2794 0.0
H122 H 0.56671 0.10083 0.20681 0.0
C123 C 0.52364 1.06724 0.26425 0.0
C124 C 0.52579 1.06839 0.23809 0.0
C125 C 0.56012 0.09671 0.27936 0.0
C126 C 0.5989 0.12777 0.26794 0.0
C127 C 0.60166 0.12937 0.24181 0.0
C128 C 0.56533 0.09908 0.22699 0.0
H129 H 0.56908 0.67897 0.58345 0.0
H130 H 0.54974 0.52629 0.59179 0.0
H131 H 0.55671 0.58744 0.51813 0.0
C132 C 0.56402 0.64322 0.57525 0.0
C133 C 0.56281 0.63845 0.54914 0.0
C134 C 0.55869 0.60321 0.59084 0.0
C135 C 0.55362 0.55727 0.57984 0.0
C136 C 0.55325 0.55039 0.55369 0.0
C137 C 0.55762 0.59166 0.53825 0.0
H138 H 1.00083 0.61696 0.90403 0.0
H139 H 0.15334 0.60775 0.9017 0.0
H140 H 0.07278 0.62524 0.83373 0.0
C141 C 1.0339 0.61776 0.89365 0.0
C142 C 1.03186 0.62328 0.86763 0.0
C143 C 0.0774 0.61238 0.90633 0.0
C144 C 0.11902 0.61076 0.89229 0.0
C145 C 0.11759 0.61457 0.86614 0.0
C146 C 0.07392 0.62135 0.85383 0.0
H147 H 1.01067 0.52817 0.37081 0.0
H148 H 0.11265 0.66385 0.37694 0.0
H149 H 0.06197 0.58781 0.44335 0.0
C150 C 1.03315 0.55633 0.38234 0.0
C151 C 1.0329 0.55278 0.4085 0.0
C152 C 0.06214 0.596 0.37084 0.0
C153 C 0.09054 0.6329 0.38573 0.0
C154 C 0.09032 0.63038 0.41189 0.0
C155 C 0.06183 0.59001 0.42316 0.0
H156 H 0.53057 1.05526 0.73229 0.0
H157 H 0.39369 0.95201 0.72969 0.0
H158 H 0.44463 1.03053 0.79788 0.0
C159 C 0.49801 1.03685 0.74157 0.0
C160 C 0.4915 1.04772 0.76661 0.0
C161 C 0.46261 1.00322 0.72804 0.0
C162 C 0.42051 0.97887 0.73995 0.0
C163 C 0.41417 0.98796 0.76539 0.0
C164 C 0.44943 1.0231 0.77835 0.0
H165 H 0.48761 0.60148 0.05816 0.0
H166 H 0.64128 0.59679 0.05998 0.0
H167 H 0.56582 0.59998 0.12887 0.0
C168 C 0.5214 0.60089 0.06877 0.0
C169 C 0.52123 0.60034 0.095 0.0
C170 C 0.56454 0.59974 0.05609 0.0
C171 C 0.60782 0.59782 0.06976 0.0
C172 C 0.60877 0.59836 0.09594 0.0
C173 C 0.56548 0.6003 0.10864 0.0
H174 H 0.22069 0.52738 0.14829 0.0
H175 H 0.25017 0.67878 0.13127 0.0
H176 H 0.30707 0.52545 0.14195 0.0
H177 H 0.33641 0.67665 0.12492 0.0
H178 H 0.49781 0.66251 0.12988 0.0
H179 H 0.41563 0.66314 0.14572 0.0
H180 H 0.3561 0.53325 0.10329 0.0
H181 H 0.43763 0.53293 0.08756 0.0
C182 C 0.24565 0.56039 0.14354 0.0
C183 C 0.22834 0.60312 0.14006 0.0
C184 C 0.29512 0.55922 0.13983 0.0
C185 C 0.32852 0.60084 0.13283 0.0
C186 C 0.31172 0.64407 0.13051 0.0
C187 C 0.26216 0.64516 0.13397 0.0
C188 C 0.46719 0.63373 0.12441 0.0
C189 C 0.47383 0.59775 0.10749 0.0
C190 C 0.42021 0.63423 0.13329 0.0
C191 C 0.37937 0.59827 0.12572 0.0
C192 C 0.38679 0.56116 0.1097 0.0
C193 C 0.43339 0.56108 0.10059 0.0
H194 H 0.79027 0.35647 0.47467 0.0
H195 H 0.89672 0.26822 0.46091 0.0
H196 H 0.84712 0.42624 0.45913 0.0
H197 H 0.95445 0.33836 0.44674 0.0
H198 H 1.01894 0.45838 0.3939 0.0
H199 H 0.96428 0.38959 0.41144 0.0
H200 H 0.92362 0.48186 0.46823 0.0
H201 H 0.97652 0.55126 0.44982 0.0
C202 C 0.82585 0.35195 0.46844 0.0
C203 C 0.83874 0.3066 0.46895 0.0
C204 C 0.85874 0.39213 0.45984 0.0
C205 C 0.90538 0.38796 0.45162 0.0
C206 C 0.9186 0.3428 0.45259 0.0
C207 C 0.88567 0.30263 0.46106 0.0
C208 C 0.99808 0.4641 0.41002 0.0
C209 C 1.00188 0.51042 0.42033 0.0
C210 C 0.96718 0.4245 0.4203 0.0
C211 C 0.93949 0.4301 0.44128 0.0
C212 C 0.94395 0.47632 0.45189 0.0
C213 C 0.97477 0.51603 0.44153 0.0
H214 H 0.45063 0.9109 0.88766 0.0
H215 H 0.38772 0.76941 0.85776 0.0
H216 H 0.39217 0.94405 0.86271 0.0
H217 H 0.32721 0.80205 0.83376 0.0
H218 H 0.35505 1.01296 0.80154 0.0
H219 H 0.32762 0.96236 0.83702 0.0
H220 H 0.36146 0.84035 0.79752 0.0
H221 H 0.38838 0.89046 0.76264 0.0
C222 C 0.42264 0.88645 0.87674 0.0
C223 C 0.42595 0.83818 0.87341 0.0
C224 C 0.38839 0.90537 0.8625 0.0
C225 C 0.35699 0.87606 0.84483 0.0
C226 C 0.35256 0.82598 0.84626 0.0
C227 C 0.38731 0.80714 0.86023 0.0
C228 C 0.3544 0.97478 0.8001 0.0
C229 C 0.37632 0.95608 0.77994 0.0
C230 C 0.3386 0.94574 0.82043 0.0
C231 C 0.34509 0.89794 0.82083 0.0
C232 C 0.35689 0.87725 0.79837 0.0
C233 C 0.37263 0.90622 0.77811 0.0
H234 H 0.91814 0.67662 0.11708 0.0
H235 H 0.88974 0.53539 0.14964 0.0
H236 H 0.82973 0.67348 0.11312 0.0
H237 H 0.80126 0.53245 0.1457 0.0
H238 H 0.65645 0.52432 0.09601 0.0
H239 H 0.74173 0.52642 0.10954 0.0
H240 H 0.75374 0.67146 0.13763 0.0
H241 H 0.66789 0.66895 0.12404 0.0
C242 C 0.8931 0.64503 0.12355 0.0
C243 C 0.91112 0.60612 0.13349 0.0
C244 C 0.84239 0.64344 0.12149 0.0
C245 C 0.80844 0.60275 0.12914 0.0
C246 C 0.82646 0.56419 0.13951 0.0
C247 C 0.8772 0.56595 0.14179 0.0
C248 C 0.67697 0.55602 0.10579 0.0
C249 C 0.65575 0.59631 0.10922 0.0
C250 C 0.72578 0.55731 0.11351 0.0
C251 C 0.75464 0.59924 0.1245 0.0
C252 C 0.73254 0.6388 0.12901 0.0
C253 C 0.68338 0.63725 0.12153 0.0
H254 H 0.32854 0.83142 0.48605 0.0
H255 H 0.20199 0.89591 0.49605 0.0
H256 H 0.27535 0.76113 0.46638 0.0
H257 H 0.14927 0.82611 0.47565 0.0
H258 H 0.09212 0.72599 0.40717 0.0
H259 H 0.14196 0.79267 0.4314 0.0
H260 H 0.20392 0.69201 0.47565 0.0
H261 H 0.15396 0.6251 0.45127 0.0
C262 C 0.28935 0.8304 0.48444 0.0
C263 C 0.26969 0.86962 0.49256 0.0
C264 C 0.25892 0.79012 0.47308 0.0
C265 C 0.20826 0.78832 0.46936 0.0
C266 C 0.18834 0.82687 0.47798 0.0
C267 C 0.21863 0.86691 0.48957 0.0
C268 C 0.11638 0.71815 0.42209 0.0
C269 C 0.11937 0.67046 0.42731 0.0
C270 C 0.14455 0.75624 0.43608 0.0
C271 C 0.17674 0.74749 0.45542 0.0
C272 C 0.17957 0.69975 0.46076 0.0
C273 C 0.15083 0.66154 0.44695 0.0
H274 H 0.54122 0.28284 0.85447 0.0
H275 H 0.65939 0.32472 0.80342 0.0
H276 H 0.54157 0.19873 0.84621 0.0
H277 H 0.66094 0.24047 0.7958 0.0
H278 H 0.53993 0.13228 0.7475 0.0
H279 H 0.58844 0.20051 0.76966 0.0
H280 H 0.57128 0.12231 0.83869 0.0
H281 H 0.52386 1.05194 0.81602 0.0
C282 C 0.56892 0.27403 0.84244 0.0
C283 C 0.59876 0.31 0.82873 0.0
C284 C 0.56953 0.22577 0.8379 0.0
C285 C 0.60005 0.21315 0.8196 0.0
C286 C 0.63623 0.24937 0.80954 0.0
C287 C 0.63543 0.29767 0.81398 0.0
C288 C 0.54804 0.12845 0.76717 0.0
C289 C 0.52725 0.0866 0.77995 0.0
C290 C 0.57626 0.16782 0.77996 0.0
C291 C 0.58382 0.16683 0.80597 0.0
C292 C 0.56593 0.12403 0.81864 0.0
C293 C 0.5382 0.08408 0.80569 0.0
H294 H 0.63471 0.94085 0.50095 0.0
H295 H 0.4829 0.91104 0.52231 0.0
H296 H 0.63701 0.8558 0.50493 0.0
H297 H 0.48541 0.82626 0.52683 0.0
H298 H 0.49038 0.66813 0.5209 0.0
H299 H 0.48891 0.7506 0.50815 0.0
H300 H 0.63953 0.79639 0.53525 0.0
H301 H 0.64076 0.71414 0.54739 0.0
C302 C 0.60165 0.91625 0.50641 0.0
C303 C 0.55865 0.93348 0.51132 0.0
C304 C 0.60304 0.86715 0.50887 0.0
C305 C 0.56147 0.83328 0.51633 0.0
C306 C 0.51814 0.85048 0.52071 0.0
C307 C 0.51678 0.89958 0.51828 0.0
C308 C 0.52372 0.6955 0.52317 0.0
C309 C 0.56604 0.68406 0.53466 0.0
C310 C 0.52268 0.74323 0.51633 0.0
C311 C 0.56395 0.7811 0.52081 0.0
C312 C 0.60706 0.76881 0.53109 0.0
C313 C 0.60796 0.7213 0.53798 0.0
H314 H 0.72697 0.5561 0.81991 0.0
H315 H 0.75314 0.70982 0.83206 0.0
H316 H 0.81481 0.55824 0.82608 0.0
H317 H 0.84105 0.7123 0.8373 0.0
H318 H 0.97655 0.68649 0.88224 0.0
H319 H 0.89347 0.69021 0.86835 0.0
H320 H 0.89739 0.58183 0.81174 0.0
H321 H 0.98074 0.57694 0.82656 0.0
C322 C 0.75155 0.5905 0.8235 0.0
C323 C 0.73284 0.63271 0.82581 0.0
C324 C 0.80211 0.59179 0.82685 0.0
C325 C 0.8353 0.63541 0.83241 0.0
C326 C 0.81665 0.67787 0.8336 0.0
C327 C 0.76613 0.6765 0.8305 0.0
C328 C 0.9599 0.6638 0.86664 0.0
C329 C 0.98501 0.63104 0.85568 0.0
C330 C 0.91225 0.6662 0.85848 0.0
C331 C 0.88825 0.63612 0.83896 0.0
C332 C 0.91437 0.60503 0.82708 0.0
C333 C 0.96235 0.6026 0.83532 0.0
H334 H 0.33004 0.83268 0.16055 0.0
H335 H 0.25571 0.95168 0.15239 0.0
H336 H 0.40013 0.88622 0.18108 0.0
H337 H 0.32533 1.00466 0.17367 0.0
H338 H 0.42699 1.05961 0.24291 0.0
H339 H 0.36044 1.00947 0.21803 0.0
H340 H 0.46732 0.96005 0.17304 0.0
H341 H 0.53417 1.01033 0.19808 0.0
C342 C 0.32884 0.87033 0.16274 0.0
C343 C 0.28692 0.88769 0.15488 0.0
C344 C 0.36902 0.90095 0.1746 0.0
C345 C 0.36801 0.94949 0.17911 0.0
C346 C 0.32678 0.96721 0.17074 0.0
C347 C 0.28683 0.93676 0.15864 0.0
C348 C 0.43625 1.03799 0.22772 0.0
C349 C 0.48569 1.03865 0.22248 0.0
C350 C 0.39819 1.00965 0.21335 0.0
C351 C 0.40874 0.98097 0.19358 0.0
C352 C 0.45819 0.98168 0.18825 0.0
C353 C 0.49635 1.01058 0.20245 0.0
H354 H 0.47265 0.23576 0.52885 0.0
H355 H 0.62746 0.27274 0.51371 0.0
H356 H 0.47047 0.3204 0.5332 0.0
H357 H 0.62613 0.35803 0.51928 0.0
H358 H 0.60624 0.51471 0.51714 0.0
H359 H 0.60486 0.4302 0.50641 0.0
H360 H 0.48955 0.38603 0.55888 0.0
H361 H 0.48931 0.46935 0.56827 0.0
C362 C 0.50653 0.26194 0.52665 0.0
C363 C 0.55029 0.24674 0.52109 0.0
C364 C 0.50543 0.31106 0.52935 0.0
C365 C 0.54827 0.3473 0.52701 0.0
C366 C 0.59202 0.33201 0.52104 0.0
C367 C 0.59294 0.2827 0.51801 0.0
C368 C 0.57979 0.48687 0.52587 0.0
C369 C 0.54808 0.49943 0.54372 0.0
C370 C 0.57947 0.43804 0.52004 0.0
C371 C 0.54733 0.40007 0.53181 0.0
C372 C 0.51455 0.41317 0.54895 0.0
C373 C 0.51472 0.46157 0.55461 0.0
H374 H 0.42029 0.69952 0.83552 0.0
H375 H 0.3917 0.55265 0.80823 0.0
H376 H 0.33235 0.69418 0.84053 0.0
H377 H 0.30323 0.54729 0.81342 0.0
H378 H 0.17062 0.54409 0.86762 0.0
H379 H 0.25247 0.54658 0.85146 0.0
H380 H 0.25007 0.68418 0.81841 0.0
H381 H 0.16769 0.68139 0.83463 0.0
C382 C 0.39516 0.66623 0.83027 0.0
C383 C 0.41309 0.62637 0.82162 0.0
C384 C 0.34465 0.66333 0.83298 0.0
C385 C 0.31074 0.62031 0.82744 0.0
C386 C 0.32847 0.58087 0.81799 0.0
C387 C 0.37909 0.584 0.81491 0.0
C388 C 0.18718 0.57433 0.8564 0.0
C389 C 0.16291 0.61258 0.85239 0.0
C390 C 0.23397 0.57569 0.84705 0.0
C391 C 0.25797 0.61568 0.83374 0.0
C392 C 0.23269 0.65301 0.82874 0.0
C393 C 0.18544 0.65129 0.83783 0.0
H394 H 0.8856 0.2695 0.18975 0.0
H395 H 0.79889 0.37912 0.18188 0.0
H396 H 0.81291 0.21252 0.2026 0.0
H397 H 0.72647 0.32218 0.19539 0.0
H398 H 0.63303 0.22456 0.25312 0.0
H399 H 0.70168 0.28086 0.23559 0.0
H400 H 0.72936 0.16865 0.18648 0.0
H401 H 0.66074 0.11202 0.20428 0.0
C402 C 0.85095 0.28134 0.1904 0.0
C403 C 0.84826 0.32907 0.18481 0.0
C404 C 0.80931 0.24863 0.19782 0.0
C405 C 0.76408 0.26294 0.20005 0.0
C406 C 0.76104 0.31033 0.19412 0.0
C407 C 0.8026 0.34297 0.18648 0.0
C408 C 0.65381 0.21195 0.23858 0.0
C409 C 0.64185 0.16387 0.23017 0.0
C410 C 0.69276 0.24427 0.22838 0.0
C411 C 0.72087 0.22913 0.20968 0.0
C412 C 0.70851 0.18119 0.201 0.0
C413 C 0.66913 0.14892 0.21105 0.0
H414 H 0.08927 0.51045 0.05878 0.0
H415 H 0.06069 0.65303 0.06823 0.0
H416 H 0.09067 0.52047 0.01385 0.0
H417 H 0.06592 0.66509 0.02331 0.0
H418 H 1.0286 0.65657 0.94057 0.0
H419 H 1.02689 0.64669 0.98529 0.0
H420 H 0.13314 0.55498 0.98068 0.0
H421 H 0.13038 0.56036 0.93563 0.0
C422 C 0.08403 0.54431 0.05117 0.0
C423 C 0.07473 0.58093 0.06689 0.0
C424 C 0.08531 0.55036 0.02535 0.0
C425 C 0.07869 0.59377 0.01462 0.0
C426 C 0.07018 0.63074 0.03061 0.0
C427 C 0.06758 0.62412 0.05643 0.0
C428 C 0.05083 0.63336 0.94894 0.0
C429 C 0.07909 0.60875 0.93415 0.0
C430 C 0.05066 0.62851 0.97486 0.0
C431 C 0.07981 0.59992 0.98694 0.0
C432 C 0.10926 0.57648 0.97222 0.0
C433 C 0.10845 0.58035 0.94622 0.0
H434 H 0.48746 0.14834 0.43194 0.0
H435 H 0.58842 1.05185 0.44009 0.0
H436 H 0.49744 0.14881 0.38695 0.0
H437 H 0.59769 1.05139 0.3948 0.0
H438 H 0.63493 0.09907 0.31428 0.0
H439 H 0.62999 0.10128 0.35969 0.0
H440 H 0.47303 0.09336 0.35226 0.0
H441 H 0.4783 0.09319 0.30701 0.0
C442 C 0.51185 0.12724 0.42407 0.0
C443 C 0.53685 0.09975 0.43945 0.0
C444 C 0.51732 0.12724 0.39828 0.0
C445 C 0.54784 0.09963 0.38723 0.0
C446 C 0.57407 1.07322 0.40273 0.0
C447 C 0.56865 1.07331 0.42863 0.0
C448 C 0.59945 0.09819 0.32237 0.0
C449 C 0.55702 0.09611 0.30701 0.0
C450 C 0.59655 0.09894 0.34839 0.0
C451 C 0.55117 0.09775 0.35961 0.0
C452 C 0.50871 0.09507 0.34423 0.0
C453 C 0.5116 0.09433 0.31827 0.0
H454 H 0.49889 0.67834 0.74472 0.0
H455 H 0.63205 0.62268 0.75093 0.0
H456 H 0.4934 0.66093 0.69998 0.0
H457 H 0.62914 0.60845 0.70606 0.0
H458 H 0.59526 0.55164 0.62778 0.0
H459 H 0.59378 0.56252 0.67264 0.0
H460 H 0.52378 0.68392 0.66196 0.0
H461 H 0.52028 0.66961 0.61738 0.0
C462 C 0.52735 0.66294 0.73638 0.0
C463 C 0.5659 0.65196 0.75123 0.0
C464 C 0.52453 0.65321 0.71064 0.0
C465 C 0.56095 0.63334 0.69901 0.0
C466 C 0.59969 0.62271 0.71411 0.0
C467 C 0.60175 0.63133 0.7399 0.0
C468 C 0.5785 0.58 0.63494 0.0
C469 C 0.55809 0.60978 0.61862 0.0
C470 C 0.5785 0.58691 0.66086 0.0
C471 C 0.55907 0.6245 0.67131 0.0
C472 C 0.53851 0.65412 0.65495 0.0
C473 C 0.53746 0.64649 0.62911 0.0
H474 H 0.50983 0.11185 0.58408 0.0
H475 H 0.59502 1.00064 0.58307 0.0
H476 H 0.474 0.08105 0.62321 0.0
H477 H 0.55781 0.96842 0.6216 0.0
H478 H 0.54389 0.98266 0.70727 0.0
H479 H 0.56638 0.99305 0.66395 0.0
H480 H 0.42122 1.0179 0.64474 0.0
H481 H 0.3996 1.00931 0.68868 0.0
C482 C 0.52044 0.0805 0.59215 0.0
C483 C 0.55583 1.05916 0.58092 0.0
C484 C 0.49946 1.0624 0.61438 0.0
C485 C 0.5131 1.02226 0.62563 0.0
C486 C 0.54711 0.99986 0.6137 0.0
C487 C 0.56849 1.01833 0.59167 0.0
C488 C 0.51644 0.98919 0.69364 0.0
C489 C 0.47031 0.99584 0.70126 0.0
C490 C 0.52917 0.99491 0.66875 0.0
C491 C 0.49586 1.00711 0.65087 0.0
C492 C 0.44806 1.00953 0.65816 0.0
C493 C 0.43538 1.00393 0.6832 0.0
H494 H 0.64142 0.57275 0.90177 0.0
H495 H 0.51024 0.632 0.89628 0.0
H496 H 0.63924 0.57588 0.94711 0.0
H497 H 0.50605 0.63268 0.94169 0.0
H498 H 0.53541 0.66476 0.02502 0.0
H499 H 0.53998 0.66765 0.97958 0.0
H500 H 0.59627 0.53638 0.97993 0.0
H501 H 0.59404 0.53544 0.02531 0.0
C502 C 0.61196 0.58624 0.91036 0.0
C503 C 0.5759 0.6019 0.89563 0.0
C504 C 0.61036 0.58764 0.93635 0.0
C505 C 0.57202 0.60385 0.94822 0.0
C506 C 0.53644 0.62045 0.93333 0.0
C507 C 0.53862 0.61986 0.90729 0.0
C508 C 0.54862 0.63661 0.01522 0.0
C509 C 0.56461 0.60003 0.02852 0.0
C510 C 0.55109 0.63805 -0.0108 0.0
C511 C 0.56884 0.60243 0.97594 0.0
C512 C 0.58366 0.5652 -0.01058 0.0
C513 C 0.58202 0.56431 0.01542 0.0
H514 H 1.01046 0.66923 0.21753 0.0
H515 H 0.12116 0.58299 0.21202 0.0
H516 H 1.00803 0.65654 0.26252 0.0
H517 H 0.11893 0.57048 0.2572 0.0
H518 H 0.14199 0.61747 0.34138 0.0
H519 H 0.14251 0.62425 0.29589 0.0
H520 H 0.98349 0.58812 0.29265 0.0
H521 H 0.98299 0.58157 0.33815 0.0
C522 C 1.03414 0.64745 0.22596 0.0
C523 C 0.06619 0.62729 0.21138 0.0
C524 C 1.03254 0.63998 0.25167 0.0
C525 C 0.06334 0.61263 0.26333 0.0
C526 C 0.09509 0.59208 0.24869 0.0
C527 C 0.09625 0.59905 0.22288 0.0
C528 C 0.10721 0.61104 0.33091 0.0
C529 C 0.06245 0.59912 0.34324 0.0
C530 C 0.10751 0.61449 0.3049 0.0
C531 C 0.06304 0.60668 0.29078 0.0
C532 C 1.01829 0.59458 0.30311 0.0
C533 C 1.01801 0.59055 0.32909 0.0
loop_
_geom_bond_atom_site_label_1
_geom_bond_atom_site_label_2
_geom_bond_distance
_geom_bond_site_symmetry_2
_ccdc_geom_bond_type
Pr0 C2 2.880 . S
Pr0 O20 2.562 . S
Pr0 O21 2.490 . S
Pr0 O22 2.695 1_655 S
Pr0 O23 2.512 . S
Pr0 O25 2.437 . S
Pr0 O28 2.436 . S
Pr0 O30 2.438 1_655 S
Pr1 C11 2.880 . S
Pr1 O22 2.436 . S
Pr1 O24 2.438 1_455 S
Pr1 O26 2.562 . S
Pr1 O27 2.490 . S
Pr1 O28 2.695 1_455 S
Pr1 O29 2.512 . S
Pr1 O31 2.437 . S
C2 Pr0 2.880 . S
C2 C3 1.491 . S
C2 O20 1.254 . S
C2 O21 1.225 . S
C3 C2 1.491 . S
C3 C4 1.392 . S
C3 C8 1.356 . S
C4 C3 1.392 . S
C4 C5 1.368 . S
C4 H32 0.929 . S
C5 C4 1.368 . S
C5 C6 1.386 . S
C5 H33 0.929 . S
C6 C5 1.386 . S
C6 C7 1.373 . S
C7 C6 1.373 . S
C7 C8 1.409 . S
C7 H34 0.931 . S
C8 C3 1.356 . S
C8 C7 1.409 . S
C8 H35 0.930 . S
C9 O22 1.270 . S
C9 O23 1.248 1_455 S
C10 O24 1.267 . S
C10 O25 1.278 . S
C11 Pr1 2.880 . S
C11 C12 1.491 . S
C11 O26 1.254 . S
C11 O27 1.225 . S
C12 C11 1.491 . S
C12 C13 1.392 . S
C12 C17 1.356 . S
C13 C12 1.392 . S
C13 C14 1.368 . S
C13 H36 0.929 . S
C14 C13 1.368 . S
C14 C15 1.386 . S
C14 H37 0.929 . S
C15 C14 1.386 . S
C15 C16 1.373 . S
C16 C15 1.373 . S
C16 C17 1.409 . S
C16 H38 0.931 . S
C17 C12 1.356 . S
C17 C16 1.409 . S
C17 H39 0.930 . S
C18 O28 1.270 1_455 S
C18 O29 1.248 . S
C19 O30 1.267 . S
C19 O31 1.278 . S
O20 Pr0 2.562 . S
O20 C2 1.254 . S
O21 Pr0 2.490 . S
O21 C2 1.225 . S
O22 Pr0 2.695 1_455 S
O22 Pr1 2.436 . S
O22 C9 1.270 . S
O23 Pr0 2.512 . S
O23 C9 1.248 1_655 S
O24 Pr1 2.438 1_655 S
O24 C10 1.267 . S
O25 Pr0 2.437 . S
O25 C10 1.278 . S
O26 Pr1 2.562 . S
O26 C11 1.254 . S
O27 Pr1 2.490 . S
O27 C11 1.225 . S
O28 Pr0 2.436 . S
O28 Pr1 2.695 1_655 S
O28 C18 1.270 1_655 S
O29 Pr1 2.512 . S
O29 C18 1.248 . S
O30 Pr0 2.438 1_455 S
O30 C19 1.267 . S
O31 Pr1 2.437 . S
O31 C19 1.278 . S
H32 C4 0.929 . S
H33 C5 0.929 . S
H34 C7 0.931 . S
H35 C8 0.930 . S
H36 C13 0.929 . S
H37 C14 0.929 . S
H38 C16 0.931 . S
H39 C17 0.930 . S
Pr40 C42 2.880 . S
Pr40 O60 2.562 . S
Pr40 O61 2.490 . S
Pr40 O62 2.696 . S
Pr40 O63 2.512 . S
Pr40 O65 2.437 . S
Pr40 O68 2.436 . S
Pr40 O70 2.438 1_545 S
Pr41 C51 2.880 . S
Pr41 O62 2.436 1_565 S
Pr41 O64 2.438 1_565 S
Pr41 O66 2.562 . S
Pr41 O67 2.490 . S
Pr41 O68 2.695 1_565 S
Pr41 O69 2.512 . S
Pr41 O71 2.437 . S
C42 Pr40 2.880 . S
C42 C43 1.491 . S
C42 O60 1.254 . S
C42 O61 1.225 . S
C43 C42 1.491 . S
C43 C44 1.392 . S
C43 C48 1.356 . S
C44 C43 1.392 . S
C44 C45 1.368 . S
C44 H72 0.929 . S
C45 C44 1.368 . S
C45 C46 1.386 . S
C45 H73 0.929 . S
C46 C45 1.386 . S
C46 C47 1.373 . S
C47 C46 1.373 . S
C47 C48 1.409 . S
C47 H74 0.931 . S
C48 C43 1.356 . S
C48 C47 1.409 . S
C48 H75 0.930 . S
C49 O62 1.272 . S
C49 O63 1.248 . S
C50 O64 1.267 . S
C50 O65 1.278 . S
C51 Pr41 2.880 . S
C51 C52 1.491 . S
C51 O66 1.254 . S
C51 O67 1.225 . S
C52 C51 1.491 . S
C52 C53 1.392 . S
C52 C57 1.356 . S
C53 C52 1.392 . S
C53 C54 1.368 . S
C53 H76 0.929 . S
C54 C53 1.368 . S
C54 C55 1.386 . S
C54 H77 0.929 . S
C55 C54 1.386 . S
C55 C56 1.373 . S
C56 C55 1.373 . S
C56 C57 1.409 . S
C56 H78 0.931 . S
C57 C52 1.356 . S
C57 C56 1.409 . S
C57 H79 0.930 . S
C58 O68 1.270 . S
C58 O69 1.248 1_545 S
C59 O70 1.267 . S
C59 O71 1.278 . S
O60 Pr40 2.562 . S
O60 C42 1.254 . S
O61 Pr40 2.490 . S
O61 C42 1.225 . S
O62 Pr40 2.696 . S
O62 Pr41 2.436 1_545 S
O62 C49 1.272 . S
O63 Pr40 2.512 . S
O63 C49 1.248 . S
O64 Pr41 2.438 1_545 S
O64 C50 1.267 . S
O65 Pr40 2.437 . S
O65 C50 1.278 . S
O66 Pr41 2.562 . S
O66 C51 1.254 . S
O67 Pr41 2.490 . S
O67 C51 1.225 . S
O68 Pr40 2.436 . S
O68 Pr41 2.695 1_545 S
O68 C58 1.270 . S
O69 Pr41 2.512 . S
O69 C58 1.248 1_565 S
O70 Pr40 2.438 1_565 S
O70 C59 1.267 . S
O71 Pr41 2.437 . S
O71 C59 1.278 . S
H72 C44 0.929 . S
H73 C45 0.929 . S
H74 C47 0.931 . S
H75 C48 0.930 . S
H76 C53 0.929 . S
H77 C54 0.929 . S
H78 C56 0.931 . S
H79 C57 0.930 . S
Pr80 C82 2.880 . S
Pr80 O100 2.562 . S
Pr80 O101 2.490 . S
Pr80 O102 2.695 . S
Pr80 O103 2.512 . S
Pr80 O105 2.437 . S
Pr80 O108 2.436 . S
Pr80 O110 2.438 . S
Pr81 C91 2.880 . S
Pr81 O102 2.436 . S
Pr81 O104 2.438 . S
Pr81 O106 2.562 . S
Pr81 O107 2.490 . S
Pr81 O108 2.695 . S
Pr81 O109 2.512 . S
Pr81 O111 2.437 . S
C82 Pr80 2.880 . S
C82 C83 1.491 . S
C82 O100 1.254 . S
C82 O101 1.225 . S
C83 C82 1.491 . S
C83 C84 1.392 . S
C83 C88 1.356 . S
C84 C83 1.392 . S
C84 C85 1.368 . S
C84 H112 0.929 . S
C85 C84 1.368 . S
C85 C86 1.386 . S
C85 H113 0.929 . S
C86 C85 1.386 . S
C86 C87 1.373 . S
C87 C86 1.373 . S
C87 C88 1.409 . S
C87 H114 0.931 . S
C88 C83 1.356 . S
C88 C87 1.409 . S
C88 H115 0.930 . S
C89 O102 1.270 . S
C89 O103 1.248 . S
C90 O104 1.267 . S
C90 O105 1.278 . S
C91 Pr81 2.880 . S
C91 C92 1.491 . S
C91 O106 1.254 . S
C91 O107 1.225 . S
C92 C91 1.491 . S
C92 C93 1.392 . S
C92 C97 1.356 . S
C93 C92 1.392 . S
C93 C94 1.368 . S
C93 H116 0.929 . S
C94 C93 1.368 . S
C94 C95 1.386 . S
C94 H117 0.929 . S
C95 C94 1.386 . S
C95 C96 1.373 . S
C96 C95 1.373 . S
C96 C97 1.409 . S
C96 H118 0.931 . S
C97 C92 1.356 . S
C97 C96 1.409 . S
C97 H119 0.930 . S
C98 O108 1.270 . S
C98 O109 1.248 . S
C99 O110 1.267 . S
C99 O111 1.278 . S
O100 Pr80 2.562 . S
O100 C82 1.254 . S
O101 Pr80 2.490 . S
O101 C82 1.225 . S
O102 Pr80 2.695 . S
O102 Pr81 2.436 . S
O102 C89 1.270 . S
O103 Pr80 2.512 . S
O103 C89 1.248 . S
O104 Pr81 2.438 . S
O104 C90 1.267 . S
O105 Pr80 2.437 . S
O105 C90 1.278 . S
O106 Pr81 2.562 . S
O106 C91 1.254 . S
O107 Pr81 2.490 . S
O107 C91 1.225 . S
O108 Pr80 2.436 . S
O108 Pr81 2.695 . S
O108 C98 1.270 . S
O109 Pr81 2.512 . S
O109 C98 1.248 . S
O110 Pr80 2.438 . S
O110 C99 1.267 . S
O111 Pr81 2.437 . S
O111 C99 1.278 . S
H112 C84 0.929 . S
H113 C85 0.929 . S
H114 C87 0.931 . S
H115 C88 0.930 . S
H116 C93 0.929 . S
H117 C94 0.929 . S
H118 C96 0.931 . S
H119 C97 0.930 . S
H120 C123 0.931 . S
H121 C126 0.928 . S
H122 C128 0.930 . S
C123 H120 0.931 . S
C123 C124 1.413 . S
C123 C125 1.360 1_565 S
C124 C123 1.413 . S
C124 C128 1.429 1_565 S
C125 C123 1.360 1_545 S
C125 C126 1.372 . S
C126 H121 0.928 . S
C126 C125 1.372 . S
C126 C127 1.404 . S
C127 C126 1.404 . S
C127 C128 1.391 . S
C128 H122 0.930 . S
C128 C124 1.429 1_545 S
C128 C127 1.391 . S
H129 C132 0.931 . S
H130 C135 0.928 . S
H131 C137 0.930 . S
C132 H129 0.931 . S
C132 C133 1.413 . S
C132 C134 1.360 . S
C133 C132 1.413 . S
C133 C137 1.429 . S
C134 C132 1.360 . S
C134 C135 1.372 . S
C135 H130 0.928 . S
C135 C134 1.372 . S
C135 C136 1.404 . S
C136 C135 1.404 . S
C136 C137 1.391 . S
C137 H131 0.930 . S
C137 C133 1.429 . S
C137 C136 1.391 . S
H138 C141 0.931 . S
H139 C144 0.928 . S
H140 C146 0.930 . S
C141 H138 0.931 . S
C141 C142 1.413 . S
C141 C143 1.360 1_655 S
C142 C141 1.413 . S
C142 C146 1.429 1_655 S
C143 C141 1.360 1_455 S
C143 C144 1.372 . S
C144 H139 0.928 . S
C144 C143 1.372 . S
C144 C145 1.404 . S
C145 C144 1.404 . S
C145 C146 1.391 . S
C146 H140 0.930 . S
C146 C142 1.429 1_455 S
C146 C145 1.391 . S
H147 C150 0.931 . S
H148 C153 0.928 . S
H149 C155 0.930 . S
C150 H147 0.931 . S
C150 C151 1.413 . S
C150 C152 1.359 . S
C151 C150 1.413 . S
C151 C155 1.429 1_655 S
C152 C150 1.359 . S
C152 C153 1.372 1_655 S
C153 H148 0.928 . S
C153 C152 1.372 1_455 S
C153 C154 1.404 . S
C154 C153 1.404 . S
C154 C155 1.391 . S
C155 H149 0.930 . S
C155 C151 1.429 1_455 S
C155 C154 1.391 . S
H156 C159 0.931 . S
H157 C162 0.928 . S
H158 C164 0.930 . S
C159 H156 0.931 . S
C159 C160 1.413 . S
C159 C161 1.360 . S
C160 C159 1.413 . S
C160 C164 1.429 . S
C161 C159 1.360 . S
C161 C162 1.372 1_545 S
C162 H157 0.928 . S
C162 C161 1.372 1_565 S
C162 C163 1.404 . S
C163 C162 1.404 . S
C163 C164 1.391 1_565 S
C164 H158 0.930 . S
C164 C160 1.429 . S
C164 C163 1.391 1_545 S
H165 C168 0.931 . S
H166 C171 0.928 . S
H167 C173 0.930 . S
C168 H165 0.931 . S
C168 C169 1.413 . S
C168 C170 1.360 . S
C169 C168 1.413 . S
C169 C173 1.429 . S
C170 C168 1.360 . S
C170 C171 1.372 . S
C171 H166 0.928 . S
C171 C170 1.372 . S
C171 C172 1.404 . S
C172 C171 1.404 . S
C172 C173 1.391 . S
C173 H167 0.930 . S
C173 C169 1.429 . S
C173 C172 1.391 . S
H174 C182 0.950 . S
H175 C187 0.950 . S
H176 C184 0.950 . S
H177 C186 0.950 . S
H178 C188 0.950 . S
H179 C190 0.950 . S
H180 C192 0.950 . S
H181 C193 0.950 . S
C182 H174 0.950 . S
C182 C183 1.386 . S
C182 C184 1.391 . S
C183 C182 1.386 . S
C183 C187 1.393 . S
C184 H176 0.950 . S
C184 C182 1.391 . S
C184 C185 1.400 . S
C185 C184 1.400 . S
C185 C186 1.398 . S
C185 C191 1.491 . S
C186 H177 0.950 . S
C186 C185 1.398 . S
C186 C187 1.391 . S
C187 H175 0.950 . S
C187 C183 1.393 . S
C187 C186 1.391 . S
C188 H178 0.950 . S
C188 C189 1.386 . S
C188 C190 1.391 . S
C189 C188 1.386 . S
C189 C193 1.393 . S
C190 H179 0.950 . S
C190 C188 1.391 . S
C190 C191 1.400 . S
C191 C185 1.491 . S
C191 C190 1.400 . S
C191 C192 1.398 . S
C192 H180 0.950 . S
C192 C191 1.398 . S
C192 C193 1.391 . S
C193 H181 0.950 . S
C193 C189 1.393 . S
C193 C192 1.391 . S
H194 C202 0.950 . S
H195 C207 0.950 . S
H196 C204 0.950 . S
H197 C206 0.950 . S
H198 C208 0.950 . S
H199 C210 0.950 . S
H200 C212 0.950 . S
H201 C213 0.950 . S
C202 H194 0.950 . S
C202 C203 1.386 . S
C202 C204 1.391 . S
C203 C202 1.386 . S
C203 C207 1.393 . S
C204 H196 0.950 . S
C204 C202 1.391 . S
C204 C205 1.400 . S
C205 C204 1.400 . S
C205 C206 1.398 . S
C205 C211 1.491 . S
C206 H197 0.950 . S
C206 C205 1.398 . S
C206 C207 1.391 . S
C207 H195 0.950 . S
C207 C203 1.393 . S
C207 C206 1.391 . S
C208 H198 0.950 . S
C208 C209 1.386 . S
C208 C210 1.391 . S
C209 C208 1.386 . S
C209 C213 1.393 . S
C210 H199 0.950 . S
C210 C208 1.391 . S
C210 C211 1.400 . S
C211 C205 1.491 . S
C211 C210 1.400 . S
C211 C212 1.398 . S
C212 H200 0.950 . S
C212 C211 1.398 . S
C212 C213 1.391 . S
C213 H201 0.950 . S
C213 C209 1.393 . S
C213 C212 1.391 . S
H214 C222 0.950 . S
H215 C227 0.950 . S
H216 C224 0.950 . S
H217 C226 0.950 . S
H218 C228 0.950 . S
H219 C230 0.950 . S
H220 C232 0.950 . S
H221 C233 0.950 . S
C222 H214 0.950 . S
C222 C223 1.386 . S
C222 C224 1.391 . S
C223 C222 1.386 . S
C223 C227 1.393 . S
C224 H216 0.950 . S
C224 C222 1.391 . S
C224 C225 1.400 . S
C225 C224 1.400 . S
C225 C226 1.398 . S
C225 C231 1.491 . S
C226 H217 0.950 . S
C226 C225 1.398 . S
C226 C227 1.391 . S
C227 H215 0.950 . S
C227 C223 1.393 . S
C227 C226 1.391 . S
C228 H218 0.950 . S
C228 C229 1.386 . S
C228 C230 1.391 . S
C229 C228 1.386 . S
C229 C233 1.393 . S
C230 H219 0.950 . S
C230 C228 1.391 . S
C230 C231 1.400 . S
C231 C225 1.491 . S
C231 C230 1.400 . S
C231 C232 1.398 . S
C232 H220 0.950 . S
C232 C231 1.398 . S
C232 C233 1.391 . S
C233 H221 0.950 . S
C233 C229 1.393 . S
C233 C232 1.391 . S
H234 C242 0.950 . S
H235 C247 0.950 . S
H236 C244 0.950 . S
H237 C246 0.950 . S
H238 C248 0.950 . S
H239 C250 0.950 . S
H240 C252 0.950 . S
H241 C253 0.950 . S
C242 H234 0.950 . S
C242 C243 1.386 . S
C242 C244 1.391 . S
C243 C242 1.386 . S
C243 C247 1.393 . S
C244 H236 0.950 . S
C244 C242 1.391 . S
C244 C245 1.400 . S
C245 C244 1.400 . S
C245 C246 1.398 . S
C245 C251 1.491 . S
C246 H237 0.950 . S
C246 C245 1.398 . S
C246 C247 1.391 . S
C247 H235 0.950 . S
C247 C243 1.393 . S
C247 C246 1.391 . S
C248 H238 0.950 . S
C248 C249 1.386 . S
C248 C250 1.391 . S
C249 C248 1.386 . S
C249 C253 1.393 . S
C250 H239 0.950 . S
C250 C248 1.391 . S
C250 C251 1.400 . S
C251 C245 1.491 . S
C251 C250 1.400 . S
C251 C252 1.398 . S
C252 H240 0.950 . S
C252 C251 1.398 . S
C252 C253 1.391 . S
C253 H241 0.950 . S
C253 C249 1.393 . S
C253 C252 1.391 . S
H254 C262 0.950 . S
H255 C267 0.950 . S
H256 C264 0.950 . S
H257 C266 0.950 . S
H258 C268 0.950 . S
H259 C270 0.950 . S
H260 C272 0.950 . S
H261 C273 0.950 . S
C262 H254 0.950 . S
C262 C263 1.386 . S
C262 C264 1.391 . S
C263 C262 1.386 . S
C263 C267 1.393 . S
C264 H256 0.950 . S
C264 C262 1.391 . S
C264 C265 1.400 . S
C265 C264 1.400 . S
C265 C266 1.398 . S
C265 C271 1.491 . S
C266 H257 0.950 . S
C266 C265 1.398 . S
C266 C267 1.391 . S
C267 H255 0.950 . S
C267 C263 1.393 . S
C267 C266 1.391 . S
C268 H258 0.950 . S
C268 C269 1.386 . S
C268 C270 1.391 . S
C269 C268 1.386 . S
C269 C273 1.393 . S
C270 H259 0.950 . S
C270 C268 1.391 . S
C270 C271 1.400 . S
C271 C265 1.491 . S
C271 C270 1.400 . S
C271 C272 1.398 . S
C272 H260 0.950 . S
C272 C271 1.398 . S
C272 C273 1.391 . S
C273 H261 0.950 . S
C273 C269 1.393 . S
C273 C272 1.391 . S
H274 C282 0.950 . S
H275 C287 0.950 . S
H276 C284 0.950 . S
H277 C286 0.950 . S
H278 C288 0.950 . S
H279 C290 0.950 . S
H280 C292 0.950 . S
H281 C293 0.950 . S
C282 H274 0.950 . S
C282 C283 1.386 . S
C282 C284 1.391 . S
C283 C282 1.386 . S
C283 C287 1.393 . S
C284 H276 0.950 . S
C284 C282 1.391 . S
C284 C285 1.400 . S
C285 C284 1.400 . S
C285 C286 1.398 . S
C285 C291 1.491 . S
C286 H277 0.950 . S
C286 C285 1.398 . S
C286 C287 1.391 . S
C287 H275 0.950 . S
C287 C283 1.393 . S
C287 C286 1.391 . S
C288 H278 0.950 . S
C288 C289 1.386 . S
C288 C290 1.391 . S
C289 C288 1.386 . S
C289 C293 1.393 . S
C290 H279 0.950 . S
C290 C288 1.391 . S
C290 C291 1.400 . S
C291 C285 1.491 . S
C291 C290 1.400 . S
C291 C292 1.398 . S
C292 H280 0.950 . S
C292 C291 1.398 . S
C292 C293 1.391 . S
C293 H281 0.950 . S
C293 C289 1.393 . S
C293 C292 1.391 . S
H294 C302 0.950 . S
H295 C307 0.950 . S
H296 C304 0.950 . S
H297 C306 0.950 . S
H298 C308 0.950 . S
H299 C310 0.950 . S
H300 C312 0.950 . S
H301 C313 0.950 . S
C302 H294 0.950 . S
C302 C303 1.386 . S
C302 C304 1.391 . S
C303 C302 1.386 . S
C303 C307 1.393 . S
C304 H296 0.950 . S
C304 C302 1.391 . S
C304 C305 1.400 . S
C305 C304 1.400 . S
C305 C306 1.398 . S
C305 C311 1.491 . S
C306 H297 0.950 . S
C306 C305 1.398 . S
C306 C307 1.391 . S
C307 H295 0.950 . S
C307 C303 1.393 . S
C307 C306 1.391 . S
C308 H298 0.950 . S
C308 C309 1.386 . S
C308 C310 1.391 . S
C309 C308 1.386 . S
C309 C313 1.393 . S
C310 H299 0.950 . S
C310 C308 1.391 . S
C310 C311 1.400 . S
C311 C305 1.491 . S
C311 C310 1.400 . S
C311 C312 1.398 . S
C312 H300 0.950 . S
C312 C311 1.398 . S
C312 C313 1.391 . S
C313 H301 0.950 . S
C313 C309 1.393 . S
C313 C312 1.391 . S
H314 C322 0.950 . S
H315 C327 0.950 . S
H316 C324 0.950 . S
H317 C326 0.950 . S
H318 C328 0.950 . S
H319 C330 0.950 . S
H320 C332 0.950 . S
H321 C333 0.950 . S
C322 H314 0.950 . S
C322 C323 1.386 . S
C322 C324 1.391 . S
C323 C322 1.386 . S
C323 C327 1.393 . S
C324 H316 0.950 . S
C324 C322 1.391 . S
C324 C325 1.400 . S
C325 C324 1.400 . S
C325 C326 1.398 . S
C325 C331 1.491 . S
C326 H317 0.950 . S
C326 C325 1.398 . S
C326 C327 1.391 . S
C327 H315 0.950 . S
C327 C323 1.393 . S
C327 C326 1.391 . S
C328 H318 0.950 . S
C328 C329 1.386 . S
C328 C330 1.391 . S
C329 C328 1.386 . S
C329 C333 1.393 . S
C330 H319 0.950 . S
C330 C328 1.391 . S
C330 C331 1.400 . S
C331 C325 1.491 . S
C331 C330 1.400 . S
C331 C332 1.398 . S
C332 H320 0.950 . S
C332 C331 1.398 . S
C332 C333 1.391 . S
C333 H321 0.950 . S
C333 C329 1.393 . S
C333 C332 1.391 . S
H334 C342 0.950 . S
H335 C347 0.950 . S
H336 C344 0.950 . S
H337 C346 0.950 . S
H338 C348 0.950 . S
H339 C350 0.950 . S
H340 C352 0.950 . S
H341 C353 0.950 . S
C342 H334 0.950 . S
C342 C343 1.386 . S
C342 C344 1.391 . S
C343 C342 1.386 . S
C343 C347 1.393 . S
C344 H336 0.950 . S
C344 C342 1.391 . S
C344 C345 1.400 . S
C345 C344 1.400 . S
C345 C346 1.398 . S
C345 C351 1.491 . S
C346 H337 0.950 . S
C346 C345 1.398 . S
C346 C347 1.391 . S
C347 H335 0.950 . S
C347 C343 1.393 . S
C347 C346 1.391 . S
C348 H338 0.950 . S
C348 C349 1.386 . S
C348 C350 1.391 . S
C349 C348 1.386 . S
C349 C353 1.393 . S
C350 H339 0.950 . S
C350 C348 1.391 . S
C350 C351 1.400 . S
C351 C345 1.491 . S
C351 C350 1.400 . S
C351 C352 1.398 . S
C352 H340 0.950 . S
C352 C351 1.398 . S
C352 C353 1.391 . S
C353 H341 0.950 . S
C353 C349 1.393 . S
C353 C352 1.391 . S
H354 C362 0.950 . S
H355 C367 0.950 . S
H356 C364 0.950 . S
H357 C366 0.950 . S
H358 C368 0.950 . S
H359 C370 0.950 . S
H360 C372 0.950 . S
H361 C373 0.950 . S
C362 H354 0.950 . S
C362 C363 1.386 . S
C362 C364 1.391 . S
C363 C362 1.386 . S
C363 C367 1.393 . S
C364 H356 0.950 . S
C364 C362 1.391 . S
C364 C365 1.400 . S
C365 C364 1.400 . S
C365 C366 1.398 . S
C365 C371 1.491 . S
C366 H357 0.950 . S
C366 C365 1.398 . S
C366 C367 1.391 . S
C367 H355 0.950 . S
C367 C363 1.393 . S
C367 C366 1.391 . S
C368 H358 0.950 . S
C368 C369 1.386 . S
C368 C370 1.391 . S
C369 C368 1.386 . S
C369 C373 1.393 . S
C370 H359 0.950 . S
C370 C368 1.391 . S
C370 C371 1.400 . S
C371 C365 1.491 . S
C371 C370 1.400 . S
C371 C372 1.398 . S
C372 H360 0.950 . S
C372 C371 1.398 . S
C372 C373 1.391 . S
C373 H361 0.950 . S
C373 C369 1.393 . S
C373 C372 1.391 . S
H374 C382 0.950 . S
H375 C387 0.950 . S
H376 C384 0.950 . S
H377 C386 0.950 . S
H378 C388 0.950 . S
H379 C390 0.950 . S
H380 C392 0.950 . S
H381 C393 0.950 . S
C382 H374 0.950 . S
C382 C383 1.386 . S
C382 C384 1.391 . S
C383 C382 1.386 . S
C383 C387 1.393 . S
C384 H376 0.950 . S
C384 C382 1.391 . S
C384 C385 1.400 . S
C385 C384 1.400 . S
C385 C386 1.398 . S
C385 C391 1.491 . S
C386 H377 0.950 . S
C386 C385 1.398 . S
C386 C387 1.391 . S
C387 H375 0.950 . S
C387 C383 1.393 . S
C387 C386 1.391 . S
C388 H378 0.950 . S
C388 C389 1.386 . S
C388 C390 1.391 . S
C389 C388 1.386 . S
C389 C393 1.393 . S
C390 H379 0.950 . S
C390 C388 1.391 . S
C390 C391 1.400 . S
C391 C385 1.491 . S
C391 C390 1.400 . S
C391 C392 1.398 . S
C392 H380 0.950 . S
C392 C391 1.398 . S
C392 C393 1.391 . S
C393 H381 0.950 . S
C393 C389 1.393 . S
C393 C392 1.391 . S
H394 C402 0.950 . S
H395 C407 0.950 . S
H396 C404 0.950 . S
H397 C406 0.950 . S
H398 C408 0.950 . S
H399 C410 0.950 . S
H400 C412 0.950 . S
H401 C413 0.950 . S
C402 H394 0.950 . S
C402 C403 1.386 . S
C402 C404 1.391 . S
C403 C402 1.386 . S
C403 C407 1.393 . S
C404 H396 0.950 . S
C404 C402 1.391 . S
C404 C405 1.400 . S
C405 C404 1.400 . S
C405 C406 1.398 . S
C405 C411 1.491 . S
C406 H397 0.950 . S
C406 C405 1.398 . S
C406 C407 1.391 . S
C407 H395 0.950 . S
C407 C403 1.393 . S
C407 C406 1.391 . S
C408 H398 0.950 . S
C408 C409 1.386 . S
C408 C410 1.391 . S
C409 C408 1.386 . S
C409 C413 1.393 . S
C410 H399 0.950 . S
C410 C408 1.391 . S
C410 C411 1.400 . S
C411 C405 1.491 . S
C411 C410 1.400 . S
C411 C412 1.398 . S
C412 H400 0.950 . S
C412 C411 1.398 . S
C412 C413 1.391 . S
C413 H401 0.950 . S
C413 C409 1.393 . S
C413 C412 1.391 . S
H414 C422 0.950 . S
H415 C427 0.950 . S
H416 C424 0.950 . S
H417 C426 0.950 . S
H418 C428 0.950 . S
H419 C430 0.950 . S
H420 C432 0.950 1_655 S
H421 C433 0.950 1_655 S
C422 H414 0.950 . S
C422 C423 1.386 1_655 S
C422 C424 1.391 . S
C423 C422 1.386 1_455 S
C423 C427 1.393 . S
C424 H416 0.950 . S
C424 C422 1.391 . S
C424 C425 1.400 1_655 S
C425 C424 1.400 1_455 S
C425 C426 1.398 . S
C425 C431 1.491 1_554 S
C426 H417 0.950 . S
C426 C425 1.398 . S
C426 C427 1.391 . S
C427 H415 0.950 . S
C427 C423 1.393 . S
C427 C426 1.391 . S
C428 H418 0.950 . S
C428 C429 1.386 . S
C428 C430 1.391 . S
C429 C428 1.386 . S
C429 C433 1.393 . S
C430 H419 0.950 . S
C430 C428 1.391 . S
C430 C431 1.400 . S
C431 C425 1.491 1_556 S
C431 C430 1.400 . S
C431 C432 1.398 . S
C432 H420 0.950 1_455 S
C432 C431 1.398 . S
C432 C433 1.391 . S
C433 H421 0.950 1_455 S
C433 C429 1.393 . S
C433 C432 1.391 . S
H434 C442 0.950 . S
H435 C447 0.950 . S
H436 C444 0.950 . S
H437 C446 0.950 . S
H438 C448 0.950 . S
H439 C450 0.950 . S
H440 C452 0.950 . S
H441 C453 0.950 . S
C442 H434 0.950 . S
C442 C443 1.386 . S
C442 C444 1.391 . S
C443 C442 1.386 . S
C443 C447 1.393 1_545 S
C444 H436 0.950 . S
C444 C442 1.391 . S
C444 C445 1.400 . S
C445 C444 1.400 . S
C445 C446 1.398 1_545 S
C445 C451 1.491 . S
C446 H437 0.950 . S
C446 C445 1.398 1_565 S
C446 C447 1.391 . S
C447 H435 0.950 . S
C447 C443 1.393 1_565 S
C447 C446 1.391 . S
C448 H438 0.950 . S
C448 C449 1.386 1_565 S
C448 C450 1.391 . S
C449 C448 1.386 1_545 S
C449 C453 1.393 . S
C450 H439 0.950 . S
C450 C448 1.391 . S
C450 C451 1.400 1_565 S
C451 C445 1.491 . S
C451 C450 1.400 1_545 S
C451 C452 1.398 . S
C452 H440 0.950 . S
C452 C451 1.398 . S
C452 C453 1.391 . S
C453 H441 0.950 . S
C453 C449 1.393 . S
C453 C452 1.391 . S
H454 C462 0.950 . S
H455 C467 0.950 . S
H456 C464 0.950 . S
H457 C466 0.950 . S
H458 C468 0.950 . S
H459 C470 0.950 . S
H460 C472 0.950 . S
H461 C473 0.950 . S
C462 H454 0.950 . S
C462 C463 1.386 . S
C462 C464 1.391 . S
C463 C462 1.386 . S
C463 C467 1.393 . S
C464 H456 0.950 . S
C464 C462 1.391 . S
C464 C465 1.400 . S
C465 C464 1.400 . S
C465 C466 1.398 . S
C465 C471 1.491 . S
C466 H457 0.950 . S
C466 C465 1.398 . S
C466 C467 1.391 . S
C467 H455 0.950 . S
C467 C463 1.393 . S
C467 C466 1.391 . S
C468 H458 0.950 . S
C468 C469 1.386 . S
C468 C470 1.391 . S
C469 C468 1.386 . S
C469 C473 1.393 . S
C470 H459 0.950 . S
C470 C468 1.391 . S
C470 C471 1.400 . S
C471 C465 1.491 . S
C471 C470 1.400 . S
C471 C472 1.398 . S
C472 H460 0.950 . S
C472 C471 1.398 . S
C472 C473 1.391 . S
C473 H461 0.950 . S
C473 C469 1.393 . S
C473 C472 1.391 . S
H474 C482 0.950 . S
H475 C487 0.950 . S
H476 C484 0.950 . S
H477 C486 0.950 . S
H478 C488 0.950 . S
H479 C490 0.950 . S
H480 C492 0.950 . S
H481 C493 0.950 . S
C482 H474 0.950 . S
C482 C483 1.386 . S
C482 C484 1.391 . S
C483 C482 1.386 . S
C483 C487 1.393 1_545 S
C484 H476 0.950 . S
C484 C482 1.391 . S
C484 C485 1.400 . S
C485 C484 1.400 . S
C485 C486 1.398 1_545 S
C485 C491 1.491 . S
C486 H477 0.950 . S
C486 C485 1.398 1_565 S
C486 C487 1.391 . S
C487 H475 0.950 . S
C487 C483 1.393 1_565 S
C487 C486 1.391 . S
C488 H478 0.950 . S
C488 C489 1.386 1_565 S
C488 C490 1.391 . S
C489 C488 1.386 1_545 S
C489 C493 1.393 . S
C490 H479 0.950 . S
C490 C488 1.391 . S
C490 C491 1.400 1_565 S
C491 C485 1.491 . S
C491 C490 1.400 1_545 S
C491 C492 1.398 . S
C492 H480 0.950 . S
C492 C491 1.398 . S
C492 C493 1.391 . S
C493 H481 0.950 . S
C493 C489 1.393 . S
C493 C492 1.391 . S
H494 C502 0.950 . S
H495 C507 0.950 . S
H496 C504 0.950 . S
H497 C506 0.950 . S
H498 C508 0.950 . S
H499 C510 0.950 . S
H500 C512 0.950 . S
H501 C513 0.950 . S
C502 H494 0.950 . S
C502 C503 1.386 . S
C502 C504 1.391 . S
C503 C502 1.386 . S
C503 C507 1.393 . S
C504 H496 0.950 . S
C504 C502 1.391 . S
C504 C505 1.400 . S
C505 C504 1.400 . S
C505 C506 1.398 . S
C505 C511 1.491 1_556 S
C506 H497 0.950 . S
C506 C505 1.398 . S
C506 C507 1.391 . S
C507 H495 0.950 . S
C507 C503 1.393 . S
C507 C506 1.391 . S
C508 H498 0.950 . S
C508 C509 1.386 . S
C508 C510 1.391 . S
C509 C508 1.386 . S
C509 C513 1.393 . S
C510 H499 0.950 . S
C510 C508 1.391 . S
C510 C511 1.400 . S
C511 C505 1.491 1_554 S
C511 C510 1.400 . S
C511 C512 1.398 . S
C512 H500 0.950 . S
C512 C511 1.398 . S
C512 C513 1.391 . S
C513 H501 0.950 . S
C513 C509 1.393 . S
C513 C512 1.391 . S
H514 C522 0.950 . S
H515 C527 0.950 . S
H516 C524 0.950 . S
H517 C526 0.950 . S
H518 C528 0.950 . S
H519 C530 0.950 . S
H520 C532 0.950 . S
H521 C533 0.950 . S
C522 H514 0.950 . S
C522 C523 1.386 1_655 S
C522 C524 1.391 . S
C523 C522 1.386 1_455 S
C523 C527 1.393 . S
C524 H516 0.950 . S
C524 C522 1.391 . S
C524 C525 1.400 1_655 S
C525 C524 1.400 1_455 S
C525 C526 1.398 . S
C525 C531 1.491 . S
C526 H517 0.950 . S
C526 C525 1.398 . S
C526 C527 1.391 . S
C527 H515 0.950 . S
C527 C523 1.393 . S
C527 C526 1.391 . S
C528 H518 0.950 . S
C528 C529 1.364 1_455 S
C528 C530 1.391 . S
C529 C528 1.364 1_655 S
C529 C533 1.413 . S
C530 H519 0.950 . S
C530 C528 1.391 . S
C530 C531 1.400 . S
C531 C525 1.491 . S
C531 C530 1.400 . S
C531 C532 1.398 1_455 S
C532 H520 0.950 . S
C532 C531 1.398 1_655 S
C532 C533 1.391 . S
C533 H521 0.950 . S
C533 C529 1.413 . S
C533 C532 1.391 . S
C183 C19 1.817 . S
C189 C169 1.803 . S
C203 C46 1.335 . S
C209 C151 1.366 . S
C223 C95 0.575 . S
C229 C163 0.520 . S
C243 C10 1.827 . S
C249 C172 1.832 . S
C269 C154 1.365 . S
C263 C55 1.339 . S
C289 C160 0.659 . S
C283 C86 0.674 . S
C303 C59 2.991 . S
C309 C133 2.960 . S
C323 C90 1.870 . S
C329 C142 1.874 . S
C343 C15 1.356 . S
C349 C124 1.394 . S
C369 C136 2.902 . S
C363 C50 2.887 . S
C389 C145 1.791 . S
C383 C99 1.812 . S
C403 C6 1.246 . S
C409 C127 1.288 . S
C429 C143 1.366 . S
C423 C9 1.319 . S
C443 C58 1.455 . S
C449 C125 1.504 . S
C463 C98 1.706 . S
C469 C134 1.790 . S
C489 C161 1.041 . S
C483 C49 1.042 . S
C509 C170 1.350 . S
C503 C89 1.320 . S
C523 C18 1.443 . S
C529 C152 1.478 . S
