# Generated by pormake.
# Topology wbl, (4,4)-cn, num edge types: 1
# Building blocks:
#     Node 0, Type 0, BuildingBlock: NAWXER_clean_linker_0, # of connection points: 4
#     Node 1, Type 0, BuildingBlock: NAWXER_clean_linker_0, # of connection points: 4
#     Node 2, Type 0, BuildingBlock: NAWXER_clean_linker_0, # of connection points: 4
#     Node 3, Type 0, BuildingBlock: NAWXER_clean_linker_0, # of connection points: 4
#     Node 4, Type 0, BuildingBlock: NAWXER_clean_linker_0, # of connection points: 4
#     Node 5, Type 0, BuildingBlock: NAWXER_clean_linker_0, # of connection points: 4
#     Node 6, Type 0, BuildingBlock: NAWXER_clean_linker_0, # of connection points: 4
#     Node 7, Type 0, BuildingBlock: NAWXER_clean_linker_0, # of connection points: 4
#     Node 8, Type 1, BuildingBlock: QUQFOY_clean_sbu_1, # of connection points: 4
#     Node 9, Type 1, BuildingBlock: QUQFOY_clean_sbu_1, # of connection points: 4
#     Node 10, Type 1, BuildingBlock: QUQFOY_clean_sbu_1, # of connection points: 4
#     Node 11, Type 1, BuildingBlock: QUQFOY_clean_sbu_1, # of connection points: 4
#     Node 12, Type 1, BuildingBlock: QUQFOY_clean_sbu_1, # of connection points: 4
#     Node 13, Type 1, BuildingBlock: QUQFOY_clean_sbu_1, # of connection points: 4
#     Node 14, Type 1, BuildingBlock: QUQFOY_clean_sbu_1, # of connection points: 4
#     Node 15, Type 1, BuildingBlock: QUQFOY_clean_sbu_1, # of connection points: 4
#     Edge 16, Type (0, 1), BuildingBlock: TEMPAE_clean_linker_10, # of connection points: 2
#     Edge 17, Type (0, 1), BuildingBlock: TEMPAE_clean_linker_10, # of connection points: 2
#     Edge 18, Type (0, 1), BuildingBlock: TEMPAE_clean_linker_10, # of connection points: 2
#     Edge 19, Type (0, 1), BuildingBlock: TEMPAE_clean_linker_10, # of connection points: 2
#     Edge 20, Type (0, 1), BuildingBlock: TEMPAE_clean_linker_10, # of connection points: 2
#     Edge 21, Type (0, 1), BuildingBlock: TEMPAE_clean_linker_10, # of connection points: 2
#     Edge 22, Type (0, 1), BuildingBlock: TEMPAE_clean_linker_10, # of connection points: 2
#     Edge 23, Type (0, 1), BuildingBlock: TEMPAE_clean_linker_10, # of connection points: 2
#     Edge 24, Type (0, 1), BuildingBlock: TEMPAE_clean_linker_10, # of connection points: 2
#     Edge 25, Type (0, 1), BuildingBlock: TEMPAE_clean_linker_10, # of connection points: 2
#     Edge 26, Type (0, 1), BuildingBlock: TEMPAE_clean_linker_10, # of connection points: 2
#     Edge 27, Type (0, 1), BuildingBlock: TEMPAE_clean_linker_10, # of connection points: 2
#     Edge 28, Type (0, 1), BuildingBlock: TEMPAE_clean_linker_10, # of connection points: 2
#     Edge 29, Type (0, 1), BuildingBlock: TEMPAE_clean_linker_10, # of connection points: 2
#     Edge 30, Type (0, 1), BuildingBlock: TEMPAE_clean_linker_10, # of connection points: 2
#     Edge 31, Type (0, 1), BuildingBlock: TEMPAE_clean_linker_10, # of connection points: 2
#     Edge 32, Type (0, 1), BuildingBlock: TEMPAE_clean_linker_10, # of connection points: 2
#     Edge 33, Type (0, 1), BuildingBlock: TEMPAE_clean_linker_10, # of connection points: 2
#     Edge 34, Type (0, 1), BuildingBlock: TEMPAE_clean_linker_10, # of connection points: 2
#     Edge 35, Type (0, 1), BuildingBlock: TEMPAE_clean_linker_10, # of connection points: 2
#     Edge 36, Type (0, 1), BuildingBlock: TEMPAE_clean_linker_10, # of connection points: 2
#     Edge 37, Type (0, 1), BuildingBlock: TEMPAE_clean_linker_10, # of connection points: 2
#     Edge 38, Type (0, 1), BuildingBlock: TEMPAE_clean_linker_10, # of connection points: 2
#     Edge 39, Type (0, 1), BuildingBlock: TEMPAE_clean_linker_10, # of connection points: 2
#     Edge 40, Type (0, 1), BuildingBlock: TEMPAE_clean_linker_10, # of connection points: 2
#     Edge 41, Type (0, 1), BuildingBlock: TEMPAE_clean_linker_10, # of connection points: 2
#     Edge 42, Type (0, 1), BuildingBlock: TEMPAE_clean_linker_10, # of connection points: 2
#     Edge 43, Type (0, 1), BuildingBlock: TEMPAE_clean_linker_10, # of connection points: 2
#     Edge 44, Type (0, 1), BuildingBlock: TEMPAE_clean_linker_10, # of connection points: 2
#     Edge 45, Type (0, 1), BuildingBlock: TEMPAE_clean_linker_10, # of connection points: 2
#     Edge 46, Type (0, 1), BuildingBlock: TEMPAE_clean_linker_10, # of connection points: 2
#     Edge 47, Type (0, 1), BuildingBlock: TEMPAE_clean_linker_10, # of connection points: 2
# Relax obj value: 0.183
# Max RMSD: 0.220
# Mean RMSD: 0.163
data_MOF--net-wbl--node1-QUQFOY_clean_sbu_1--node2-NAWXER_clean_linker_0--edge1-TEMPAE_clean_linker_10
_symmetry_space_group_name_H-M    P1
_symmetry_Int_Tables_number       1
_symmetry_cell_setting            triclinic
loop_
_symmetry_equiv_pos_as_xyz
'x, y, z'
_cell_length_a     45.081951
_cell_length_b     45.095697
_cell_length_c     80.438401
_cell_angle_alpha  93.381779
_cell_angle_beta   93.386723
_cell_angle_gamma 90.380108
loop_
_atom_site_label
_atom_site_type_symbol
_atom_site_fract_x
_atom_site_fract_y
_atom_site_fract_z
_atom_type_partial_charge
C0 C 0.21962 0.02625 0.38878 0.0
C1 C 0.23563 0.03947 0.40286 0.0
C2 C 0.20727 0.04375 0.37642 0.0
C3 C 0.21095 0.07478 0.37784 0.0
C4 C 0.24025 0.0704 0.40391 0.0
C5 C 0.22788 0.08787 0.39157 0.0
C6 C 0.19362 0.09391 0.36661 0.0
C7 C 0.25688 0.04454 0.33479 0.0
C8 C 0.24296 0.02298 0.3235 0.0
C9 C 0.24018 0.06625 0.34297 0.0
C10 C 0.20922 0.06698 0.34 0.0
C11 C 0.21199 0.02432 0.32023 0.0
C12 C 0.19534 0.04627 0.3283 0.0
C13 C 0.19125 0.08921 0.34907 0.0
C14 C 0.108 0.18916 0.33034 0.0
C15 C 0.08678 0.17284 0.31997 0.0
C16 C 0.13143 0.17469 0.33853 0.0
C17 C 0.13364 0.14361 0.33672 0.0
C18 C 0.09049 0.14205 0.31717 0.0
C19 C 0.11379 0.1276 0.32544 0.0
C20 C 0.15482 0.12729 0.34745 0.0
C21 C 0.08923 0.17025 0.38172 0.0
C22 C 0.10175 0.18702 0.39575 0.0
C23 C 0.10707 0.15265 0.37157 0.0
C24 C 0.13807 0.15242 0.37473 0.0
C25 C 0.13281 0.18661 0.3989 0.0
C26 C 0.1507 0.16964 0.38848 0.0
C27 C 0.15724 0.13202 0.36504 0.0
H28 H 0.21583 0.00246 0.38758 0.0
H29 H 0.19359 0.03312 0.36623 0.0
H30 H 0.25212 0.08131 0.4147 0.0
H31 H 0.23065 0.11179 0.39305 0.0
H32 H 0.28074 0.04468 0.33732 0.0
H33 H 0.25145 0.08247 0.35165 0.0
H34 H 0.20046 0.00796 0.31176 0.0
H35 H 0.17147 0.04654 0.32577 0.0
H36 H 0.10597 0.21298 0.3325 0.0
H37 H 0.14701 0.18758 0.34686 0.0
H38 H 0.07442 0.12883 0.30935 0.0
H39 H 0.11522 0.10364 0.32376 0.0
H40 H 0.0655 0.17015 0.3787 0.0
H41 H 0.09642 0.13866 0.36153 0.0
H42 H 0.14337 0.19851 0.40977 0.0
H43 H 0.17446 0.16941 0.39142 0.0
N44 N 0.17669 0.11524 0.37384 0.0
N45 N 0.17177 0.10592 0.34016 0.0
C46 C 0.93936 0.60162 0.62845 0.0
C47 C 0.94898 0.58711 0.64275 0.0
C48 C 0.9592 0.61949 0.62058 0.0
C49 C 0.98866 0.62341 0.62715 0.0
C50 C 0.9784 0.59116 0.64925 0.0
C51 C 0.99793 0.60938 0.64163 0.0
C52 C 0.01018 0.64217 0.61926 0.0
C53 C 0.99838 0.55912 0.58642 0.0
C54 C 0.9891 0.5628 0.56967 0.0
C55 C 0.00718 0.58348 0.59704 0.0
C56 C 0.00595 0.61231 0.59138 0.0
C57 C 0.98815 0.59166 0.56392 0.0
C58 C 0.99661 0.61619 0.57469 0.0
C59 C 0.01718 0.63789 0.60239 0.0
C60 C 0.12021 0.69978 0.58433 0.0
C61 C 0.1193 0.73088 0.58629 0.0
C62 C 0.09787 0.68251 0.5904 0.0
C63 C 0.0748 0.69609 0.59892 0.0
C64 C 0.09566 0.74449 0.59431 0.0
C65 C 0.07367 0.72721 0.60069 0.0
C66 C 0.05256 0.6776 0.60636 0.0
C67 C 0.06928 0.72839 0.66235 0.0
C68 C 0.1004 0.72583 0.66314 0.0
C69 C 0.05204 0.71494 0.64893 0.0
C70 C 0.06554 0.69886 0.636 0.0
C71 C 0.11392 0.7106 0.64988 0.0
C72 C 0.09668 0.69697 0.63657 0.0
C73 C 0.047 0.68049 0.62347 0.0
H74 H 0.91669 0.59888 0.62331 0.0
H75 H 0.95154 0.63039 0.6095 0.0
H76 H 0.98617 0.58045 0.66038 0.0
H77 H 0.02052 0.61216 0.64692 0.0
H78 H 0.99898 0.53732 0.59139 0.0
H79 H 0.01559 0.57954 0.60959 0.0
H80 H 0.98143 0.59525 0.55106 0.0
H81 H 0.9961 0.63819 0.56995 0.0
H82 H 0.13821 0.6889 0.57811 0.0
H83 H 0.09909 0.65852 0.58891 0.0
H84 H 0.09461 0.76847 0.59597 0.0
H85 H 0.0559 0.73808 0.60712 0.0
H86 H 0.05812 0.73961 0.67245 0.0
H87 H 0.02805 0.71627 0.64893 0.0
H88 H 0.13784 0.70844 0.65004 0.0
H89 H 0.10775 0.68376 0.62717 0.0
N90 N 0.02569 0.66297 0.62917 0.0
N91 N 0.03778 0.65613 0.59651 0.0
C92 C 0.58153 0.44643 0.87153 0.0
C93 C 0.60029 0.45539 0.88554 0.0
C94 C 0.56529 0.46752 0.86276 0.0
C95 C 0.56739 0.49776 0.86804 0.0
C96 C 0.60314 0.48582 0.89031 0.0
C97 C 0.5867 0.50671 0.88172 0.0
C98 C 0.54728 0.5199 0.86077 0.0
C99 C 0.61517 0.50442 0.82285 0.0
C100 C 0.60479 0.48346 0.81013 0.0
C101 C 0.59565 0.51787 0.83371 0.0
C102 C 0.56525 0.51109 0.83193 0.0
C103 C 0.57409 0.47711 0.80822 0.0
C104 C 0.55443 0.49105 0.81897 0.0
C105 C 0.54513 0.52531 0.84368 0.0
C106 C 0.4785 0.64113 0.84538 0.0
C107 C 0.4595 0.63718 0.83088 0.0
C108 C 0.49601 0.61788 0.85088 0.0
C109 C 0.49403 0.58966 0.84249 0.0
C110 C 0.45925 0.60944 0.82181 0.0
C111 C 0.47624 0.58591 0.82761 0.0
C112 C 0.51078 0.56424 0.84904 0.0
C113 C 0.44983 0.59436 0.88931 0.0
C114 C 0.46539 0.60622 0.9039 0.0
C115 C 0.46492 0.57868 0.87692 0.0
C116 C 0.49578 0.57471 0.87894 0.0
C117 C 0.49619 0.60183 0.90592 0.0
C118 C 0.51117 0.5861 0.89361 0.0
C119 C 0.51238 0.55815 0.86613 0.0
H120 H 0.57891 0.42312 0.86761 0.0
H121 H 0.55013 0.46011 0.85238 0.0
H122 H 0.61699 0.4934 0.90122 0.0
H123 H 0.58846 0.52991 0.88607 0.0
H124 H 0.63847 0.51058 0.82444 0.0
H125 H 0.60428 0.53369 0.8435 0.0
H126 H 0.56532 0.46096 0.79866 0.0
H127 H 0.53093 0.48571 0.81743 0.0
H128 H 0.47936 0.66193 0.85283 0.0
H129 H 0.51071 0.62191 0.86194 0.0
H130 H 0.44571 0.60571 0.8103 0.0
H131 H 0.47497 0.56458 0.82065 0.0
H132 H 0.42608 0.59739 0.88744 0.0
H133 H 0.45252 0.56959 0.86581 0.0
H134 H 0.50867 0.61021 0.91716 0.0
H135 H 0.53493 0.58306 0.89549 0.0
N136 N 0.53081 0.53647 0.87131 0.0
N137 N 0.52705 0.54733 0.8384 0.0
C138 C 0.54722 0.94442 0.08744 0.0
C139 C 0.51953 0.95311 0.08051 0.0
C140 C 0.5683 0.96576 0.0935 0.0
C141 C 0.56215 0.99604 0.09247 0.0
C142 C 0.51354 0.98346 0.07932 0.0
C143 C 0.5349 0.00482 0.08511 0.0
C144 C 0.5834 0.01842 0.10013 0.0
C145 C 0.52864 0.99236 0.14283 0.0
C146 C 0.54461 0.97331 0.15318 0.0
C147 C 0.54303 0.00733 0.13082 0.0
C148 C 0.57365 0.00378 0.12919 0.0
C149 C 0.57512 0.96928 0.15125 0.0
C150 C 0.5896 0.9847 0.13948 0.0
C151 C 0.58939 0.02137 0.11751 0.0
C152 C 0.65823 0.11689 0.14584 0.0
C153 C 0.68789 0.11821 0.14141 0.0
C154 C 0.63752 0.09872 0.13651 0.0
C155 C 0.64588 0.08163 0.12246 0.0
C156 C 0.69611 0.10167 0.12705 0.0
C157 C 0.67527 0.08346 0.11767 0.0
C158 C 0.62437 0.05991 0.11411 0.0
C159 C 0.66386 0.08574 0.063 0.0
C160 C 0.65889 0.11654 0.06476 0.0
C161 C 0.64994 0.0663 0.0731 0.0
C162 C 0.63136 0.07738 0.08533 0.0
C163 C 0.63916 0.12723 0.07662 0.0
C164 C 0.62577 0.10788 0.08689 0.0
C165 C 0.61808 0.05724 0.09667 0.0
H166 H 0.5522 0.92113 0.08859 0.0
H167 H 0.58923 0.95868 0.09922 0.0
H168 H 0.49234 0.99058 0.07397 0.0
H169 H 0.52982 0.02817 0.08435 0.0
H170 H 0.5051 0.99577 0.14411 0.0
H171 H 0.53044 0.02226 0.1231 0.0
H172 H 0.58792 0.9549 0.15921 0.0
H173 H 0.61328 0.98188 0.13844 0.0
H174 H 0.65126 0.12886 0.15699 0.0
H175 H 0.61504 0.09747 0.14052 0.0
H176 H 0.71879 0.10226 0.12332 0.0
H177 H 0.68245 0.06996 0.1071 0.0
H178 H 0.67908 0.07668 0.05414 0.0
H179 H 0.65442 0.04273 0.07173 0.0
H180 H 0.63405 0.15064 0.07804 0.0
H181 H 0.61106 0.11675 0.09609 0.0
N182 N 0.59784 0.03648 0.09024 0.0
N183 N 0.60971 0.04189 0.12388 0.0
C184 C 0.05087 0.71934 0.92178 0.0
C185 C 0.05869 0.7104 0.90561 0.0
C186 C 0.03324 0.70085 0.93064 0.0
C187 C 0.02383 0.67276 0.92364 0.0
C188 C 0.04873 0.68265 0.89851 0.0
C189 C 0.03153 0.66408 0.90741 0.0
C190 C 0.00527 0.65242 0.93267 0.0
C191 C 0.09077 0.65862 0.96414 0.0
C192 C 0.08899 0.67799 0.97843 0.0
C193 C 0.06516 0.64908 0.95476 0.0
C194 C 0.03716 0.65827 0.95957 0.0
C195 C 0.06073 0.68693 0.98329 0.0
C196 C 0.03499 0.67683 0.97404 0.0
C197 C 0.01036 0.64723 0.94975 0.0
C198 C 0.9504 0.54931 0.97433 0.0
C199 C 0.91976 0.54594 0.97036 0.0
C200 C 0.96661 0.57153 0.96739 0.0
C201 C 0.95246 0.59069 0.95635 0.0
C202 C 0.9054 0.566 0.95993 0.0
C203 C 0.92155 0.58835 0.95312 0.0
C204 C 0.97032 0.61216 0.94779 0.0
C205 C 0.91556 0.58909 0.89361 0.0
C206 C 0.91903 0.55812 0.8936 0.0
C207 C 0.93002 0.60777 0.90606 0.0
C208 C 0.94795 0.59584 0.91881 0.0
C209 C 0.9363 0.54619 0.90667 0.0
C210 C 0.95084 0.56486 0.91905 0.0
C211 C 0.96658 0.61579 0.93045 0.0
H212 H 0.05803 0.74077 0.92746 0.0
H213 H 0.02676 0.70871 0.94286 0.0
H214 H 0.05474 0.67501 0.88614 0.0
H215 H 0.02457 0.64264 0.90165 0.0
H216 H 0.11196 0.65047 0.96025 0.0
H217 H 0.06717 0.63417 0.94383 0.0
H218 H 0.05846 0.70203 0.99411 0.0
H219 H 0.01346 0.6839 0.97798 0.0
H220 H 0.962 0.53415 0.98235 0.0
H221 H 0.9904 0.57302 0.97017 0.0
H222 H 0.88167 0.5643 0.95697 0.0
H223 H 0.90995 0.60344 0.94507 0.0
H224 H 0.90279 0.599 0.88358 0.0
H225 H 0.92788 0.63161 0.90547 0.0
H226 H 0.93926 0.52242 0.90706 0.0
H227 H 0.96529 0.55507 0.92842 0.0
N228 N 0.98378 0.63617 0.92368 0.0
N229 N 0.99245 0.62768 0.95673 0.0
C230 C 0.44683 0.52399 0.16187 0.0
C231 C 0.45633 0.53088 0.14621 0.0
C232 C 0.46517 0.50789 0.17266 0.0
C233 C 0.49368 0.49921 0.16817 0.0
C234 C 0.48422 0.52096 0.14145 0.0
C235 C 0.50266 0.50532 0.15229 0.0
C236 C 0.51461 0.48399 0.17975 0.0
C237 C 0.49837 0.57319 0.20436 0.0
C238 C 0.48378 0.57256 0.21929 0.0
C239 C 0.51003 0.54729 0.19713 0.0
C240 C 0.50686 0.52009 0.20451 0.0
C241 C 0.48121 0.54543 0.22689 0.0
C242 C 0.49276 0.5194 0.21957 0.0
C243 C 0.51956 0.49277 0.19688 0.0
C244 C 0.61939 0.44079 0.23092 0.0
C245 C 0.62125 0.40961 0.22965 0.0
C246 C 0.59715 0.45533 0.22175 0.0
C247 C 0.57667 0.43899 0.21097 0.0
C248 C 0.59954 0.39331 0.21957 0.0
C249 C 0.57753 0.40785 0.2103 0.0
C250 C 0.55548 0.45453 0.19982 0.0
C251 C 0.58187 0.39493 0.14925 0.0
C252 C 0.61261 0.40067 0.15132 0.0
C253 C 0.5624 0.40872 0.16011 0.0
C254 C 0.57327 0.42827 0.17332 0.0
C255 C 0.62358 0.41901 0.16508 0.0
C256 C 0.60411 0.43288 0.17587 0.0
C257 C 0.55237 0.44747 0.18245 0.0
H258 H 0.42528 0.53111 0.16577 0.0
H259 H 0.45719 0.50259 0.18458 0.0
H260 H 0.49226 0.5262 0.12952 0.0
H261 H 0.52441 0.49877 0.14843 0.0
H262 H 0.50139 0.59388 0.19844 0.0
H263 H 0.52178 0.54858 0.18583 0.0
H264 H 0.47012 0.54432 0.23843 0.0
H265 H 0.49048 0.4987 0.22559 0.0
H266 H 0.63582 0.45406 0.23845 0.0
H267 H 0.59682 0.47939 0.22248 0.0
H268 H 0.59983 0.36926 0.21862 0.0
H269 H 0.56153 0.39477 0.20234 0.0
H270 H 0.57265 0.38124 0.13865 0.0
H271 H 0.53869 0.40516 0.15773 0.0
H272 H 0.64716 0.42373 0.16706 0.0
H273 H 0.61316 0.44859 0.18558 0.0
N274 N 0.53164 0.46204 0.1732 0.0
N275 N 0.53934 0.47729 0.20634 0.0
C276 C 0.55797 0.96791 0.42377 0.0
C277 C 0.54146 0.9741 0.40901 0.0
C278 C 0.57388 0.99056 0.43313 0.0
C279 C 0.57332 0.01977 0.42793 0.0
C280 C 0.54078 0.00345 0.404 0.0
C281 C 0.55658 0.02597 0.41333 0.0
C282 C 0.59189 0.04364 0.43669 0.0
C283 C 0.52464 0.01815 0.47176 0.0
C284 C 0.53572 0.00915 0.48739 0.0
C285 C 0.54318 0.03173 0.46115 0.0
C286 C 0.57364 0.03555 0.4655 0.0
C287 C 0.56606 0.01399 0.49201 0.0
C288 C 0.5848 0.02703 0.48117 0.0
C289 C 0.59349 0.04978 0.45417 0.0
C290 C 0.6715 0.15976 0.46209 0.0
C291 C 0.69375 0.15077 0.47367 0.0
C292 C 0.64988 0.13951 0.45525 0.0
C293 C 0.65043 0.10991 0.45975 0.0
C294 C 0.69309 0.12154 0.47884 0.0
C295 C 0.67149 0.10135 0.47201 0.0
C296 C 0.63016 0.08732 0.45126 0.0
C297 C 0.6912 0.11825 0.41278 0.0
C298 C 0.67677 0.12625 0.3977 0.0
C299 C 0.67566 0.10371 0.42453 0.0
C300 C 0.64501 0.09797 0.42183 0.0
C301 C 0.64623 0.11971 0.3949 0.0
C302 C 0.6306 0.10598 0.40684 0.0
C303 C 0.62785 0.08179 0.43373 0.0
H304 H 0.55892 0.94553 0.42795 0.0
H305 H 0.58718 0.9851 0.44416 0.0
H306 H 0.52887 0.00891 0.3925 0.0
H307 H 0.55608 0.04827 0.40898 0.0
H308 H 0.50159 0.01448 0.46754 0.0
H309 H 0.53353 0.03929 0.44952 0.0
H310 H 0.57534 0.00795 0.50405 0.0
H311 H 0.60809 0.03031 0.48499 0.0
H312 H 0.67113 0.18228 0.4581 0.0
H313 H 0.63332 0.14669 0.44607 0.0
H314 H 0.71005 0.11384 0.48763 0.0
H315 H 0.67211 0.07863 0.47572 0.0
H316 H 0.71459 0.12301 0.41555 0.0
H317 H 0.68781 0.09665 0.43559 0.0
H318 H 0.63435 0.12453 0.3833 0.0
H319 H 0.60711 0.10133 0.40424 0.0
N320 N 0.60881 0.06012 0.42724 0.0
N321 N 0.61296 0.0711 0.46078 0.0
C322 C 0.23114 0.10169 0.68215 0.0
C323 C 0.22054 0.08456 0.66783 0.0
C324 C 0.2114 0.11867 0.69154 0.0
C325 C 0.18105 0.1191 0.68648 0.0
C326 C 0.19011 0.08477 0.66302 0.0
C327 C 0.17064 0.1021 0.67215 0.0
C328 C 0.15987 0.1382 0.69531 0.0
C329 C 0.17919 0.06157 0.72695 0.0
C330 C 0.18951 0.06893 0.74354 0.0
C331 C 0.16782 0.0833 0.71681 0.0
C332 C 0.16739 0.11316 0.72277 0.0
C333 C 0.18872 0.09881 0.7496 0.0
C334 C 0.17767 0.12069 0.73932 0.0
C335 C 0.15398 0.13605 0.71228 0.0
C336 C 0.04634 0.19522 0.72946 0.0
C337 C 0.0465 0.22615 0.72824 0.0
C338 C 0.07047 0.17834 0.72442 0.0
C339 C 0.09464 0.19212 0.71767 0.0
C340 C 0.07151 0.24008 0.72244 0.0
C341 C 0.09534 0.22315 0.71708 0.0
C342 C 0.11744 0.17382 0.70971 0.0
C343 C 0.1007 0.2218 0.65653 0.0
C344 C 0.06954 0.21898 0.6555 0.0
C345 C 0.11774 0.20853 0.66907 0.0
C346 C 0.10402 0.1923 0.68089 0.0
C347 C 0.05581 0.20341 0.66765 0.0
C348 C 0.07287 0.18989 0.68007 0.0
C349 C 0.12247 0.17497 0.69261 0.0
H350 H 0.25457 0.10195 0.68601 0.0
H351 H 0.21987 0.13193 0.70249 0.0
H352 H 0.18148 0.0721 0.6519 0.0
H353 H 0.14733 0.10225 0.668 0.0
H354 H 0.17979 0.0389 0.72174 0.0
H355 H 0.15881 0.07649 0.70439 0.0
H356 H 0.19609 0.10522 0.76237 0.0
H357 H 0.17701 0.1435 0.74431 0.0
H358 H 0.02729 0.18409 0.73397 0.0
H359 H 0.06954 0.1544 0.72492 0.0
H360 H 0.07202 0.2639 0.72134 0.0
H361 H 0.11387 0.23415 0.71194 0.0
H362 H 0.11206 0.23318 0.64722 0.0
H363 H 0.14175 0.21026 0.66927 0.0
H364 H 0.03186 0.20098 0.66731 0.0
H365 H 0.06167 0.17655 0.68858 0.0
N366 N 0.1437 0.15735 0.68615 0.0
N367 N 0.13313 0.15422 0.71889 0.0
O368 O 0.35973 0.72391 0.00521 0.0
Cd369 Cd 0.34084 0.74371 0.02561 0.0
Cd370 Cd 0.38261 0.71233 0.04371 0.0
O371 O 0.39071 0.69637 0.01975 0.0
O372 O 0.30067 0.75663 0.01796 0.0
O373 O 0.30861 0.72094 0.03551 0.0
C374 C 0.29017 0.73651 0.0268 0.0
C375 C 0.38906 0.67788 0.06431 0.0
C376 C 0.37969 0.70422 0.00578 0.0
C377 C 0.38438 0.77986 0.04742 0.0
O378 O 0.39544 0.75527 0.05145 0.0
O379 O 0.3618 0.78043 0.03726 0.0
O380 O 0.41119 0.68927 0.05746 0.0
O381 O 0.3627 0.68589 0.05939 0.0
O382 O 0.43796 0.83359 0.30947 0.0
Cd383 Cd 0.41224 0.82488 0.28773 0.0
Cd384 Cd 0.46053 0.84112 0.27254 0.0
O385 O 0.47185 0.85737 0.29663 0.0
O386 O 0.3703 0.83323 0.29262 0.0
O387 O 0.39696 0.86112 0.27712 0.0
C388 C 0.37265 0.85689 0.28446 0.0
C389 C 0.47192 0.87067 0.25084 0.0
C390 C 0.46101 0.85003 0.31005 0.0
C391 C 0.44011 0.77704 0.26772 0.0
O392 O 0.46089 0.79594 0.26671 0.0
O393 O 0.41652 0.78455 0.27471 0.0
O394 O 0.49233 0.85744 0.25941 0.0
O395 O 0.44474 0.86749 0.25471 0.0
O396 O 0.30024 0.91343 0.50928 0.0
Cd397 Cd 0.31902 0.89622 0.53041 0.0
Cd398 Cd 0.28704 0.93772 0.54662 0.0
O399 O 0.28277 0.95283 0.52274 0.0
O400 O 0.35856 0.88176 0.52439 0.0
O401 O 0.35203 0.92043 0.54215 0.0
C402 C 0.36974 0.90411 0.53352 0.0
C403 C 0.28897 0.97351 0.56895 0.0
C404 C 0.28797 0.93866 0.5091 0.0
C405 C 0.27238 0.87212 0.5497 0.0
O406 O 0.26533 0.89923 0.55209 0.0
O407 O 0.29504 0.86506 0.54173 0.0
O408 O 0.26521 0.96853 0.55951 0.0
O409 O 0.31242 0.95867 0.56546 0.0
O410 O 0.24153 0.81195 0.76813 0.0
Cd411 Cd 0.26689 0.83142 0.7878 0.0
Cd412 Cd 0.23389 0.79191 0.8062 0.0
O413 O 0.21322 0.78431 0.78259 0.0
O414 O 0.28198 0.86822 0.7788 0.0
O415 O 0.2512 0.86839 0.79926 0.0
C416 C 0.26558 0.883 0.78889 0.0
C417 C 0.20277 0.78444 0.82799 0.0
C418 C 0.21998 0.79391 0.76874 0.0
C419 C 0.30186 0.78698 0.80603 0.0
O420 O 0.27717 0.77821 0.81095 0.0
O421 O 0.30309 0.80848 0.79659 0.0
O422 O 0.21257 0.76274 0.81886 0.0
O423 O 0.21058 0.811 0.82479 0.0
O424 O 0.94032 0.29555 0.5489 0.0
Cd425 Cd 0.91919 0.31133 0.52785 0.0
Cd426 Cd 0.94951 0.26605 0.51214 0.0
O427 O 0.96959 0.26438 0.53578 0.0
O428 O 0.90453 0.35049 0.53601 0.0
O429 O 0.93813 0.34528 0.5171 0.0
C430 C 0.92268 0.36256 0.52656 0.0
C431 C 0.98069 0.25993 0.49008 0.0
C432 C 0.96154 0.27721 0.54923 0.0
C433 C 0.88237 0.26314 0.50985 0.0
O434 O 0.90665 0.24982 0.50742 0.0
O435 O 0.88252 0.28891 0.51712 0.0
O436 O 0.97429 0.23822 0.49897 0.0
O437 O 0.96933 0.28557 0.49366 0.0
O438 O 0.84392 0.41611 0.78599 0.0
Cd439 Cd 0.82897 0.39444 0.76392 0.0
Cd440 Cd 0.86391 0.43325 0.7493 0.0
O441 O 0.86444 0.45237 0.77336 0.0
O442 O 0.78833 0.37937 0.76683 0.0
O443 O 0.79815 0.41633 0.75085 0.0
C444 C 0.77882 0.40027 0.75763 0.0
C445 C 0.86749 0.46677 0.7283 0.0
C446 C 0.8568 0.4413 0.78666 0.0
C447 C 0.87929 0.36742 0.74722 0.0
O448 O 0.88652 0.39406 0.74481 0.0
O449 O 0.85541 0.36178 0.75408 0.0
O450 O 0.88926 0.46229 0.73888 0.0
O451 O 0.84303 0.45227 0.72961 0.0
O452 O 0.74559 0.34947 0.04587 0.0
Cd453 Cd 0.76278 0.33566 0.02352 0.0
Cd454 Cd 0.72141 0.36947 0.0106 0.0
O455 O 0.70393 0.36394 0.03333 0.0
O456 O 0.77651 0.29418 0.02542 0.0
O457 O 0.73641 0.30659 0.0101 0.0
C458 C 0.7528 0.28614 0.01641 0.0
C459 C 0.68967 0.37091 0.9866 0.0
C460 C 0.71884 0.35795 0.0466 0.0
C461 C 0.7852 0.38914 0.0097 0.0
O462 O 0.75812 0.3967 0.00982 0.0
O463 O 0.79265 0.36293 0.01308 0.0
O464 O 0.69022 0.39178 0.99825 0.0
O465 O 0.70634 0.34816 0.98888 0.0
O466 O 0.82067 0.23004 0.24208 0.0
Cd467 Cd 0.83015 0.25535 0.26384 0.0
Cd468 Cd 0.8149 0.20684 0.27904 0.0
O469 O 0.7977 0.19575 0.25504 0.0
O470 O 0.82021 0.29726 0.2596 0.0
O471 O 0.79441 0.26916 0.2754 0.0
C472 C 0.79724 0.29383 0.26821 0.0
C473 C 0.78609 0.19599 0.30116 0.0
C474 C 0.80444 0.20685 0.24157 0.0
C475 C 0.87917 0.22725 0.28276 0.0
O476 O 0.86036 0.20652 0.28415 0.0
O477 O 0.87124 0.25093 0.27598 0.0
O478 O 0.79854 0.17529 0.2924 0.0
O479 O 0.78971 0.2231 0.2973 0.0
C480 C 0.28384 0.98562 0.32485 0.0
C481 C 0.26061 0.99874 0.3156 0.0
C482 C 0.30061 0.96261 0.31776 0.0
C483 C 0.29377 0.95203 0.30105 0.0
C484 C 0.27031 0.96501 0.29161 0.0
C485 C 0.25411 0.98833 0.29897 0.0
C486 C 0.32555 0.94946 0.32825 0.0
C487 C 0.26224 0.95415 0.2738 0.0
C488 C 0.35663 0.90941 0.28173 0.0
C489 C 0.34976 0.88022 0.28542 0.0
C490 C 0.3377 0.93296 0.28588 0.0
C491 C 0.31113 0.92708 0.2937 0.0
C492 C 0.30298 0.89738 0.29622 0.0
C493 C 0.32249 0.87431 0.29215 0.0
C494 C 0.34727 0.96432 0.28306 0.0
C495 C 0.27457 0.89011 0.30423 0.0
H496 H 0.28869 0.99301 0.3378 0.0
H497 H 0.23646 0.99853 0.29163 0.0
H498 H 0.32093 0.92558 0.32969 0.0
H499 H 0.34671 0.95093 0.32195 0.0
H500 H 0.32864 0.96086 0.34087 0.0
H501 H 0.24333 0.96653 0.26816 0.0
H502 H 0.28165 0.95645 0.2661 0.0
H503 H 0.25623 0.9302 0.27327 0.0
H504 H 0.37768 0.91417 0.27655 0.0
H505 H 0.31693 0.85177 0.2949 0.0
H506 H 0.35376 0.97611 0.29524 0.0
H507 H 0.32866 0.97675 0.27721 0.0
H508 H 0.36646 0.9649 0.27502 0.0
H509 H 0.27656 0.89764 0.31764 0.0
H510 H 0.26953 0.8659 0.30325 0.0
H511 H 0.25557 0.90199 0.29838 0.0
C512 C 0.13665 0.77097 0.56904 0.0
C513 C 0.14331 0.74918 0.58033 0.0
C514 C 0.1591 0.78922 0.56372 0.0
C515 C 0.18874 0.78603 0.57021 0.0
C516 C 0.19557 0.76386 0.58156 0.0
C517 C 0.17275 0.74543 0.58634 0.0
C518 C 0.15103 0.8122 0.55135 0.0
C519 C 0.22675 0.76026 0.58904 0.0
C520 C 0.25012 0.82099 0.54723 0.0
C521 C 0.25317 0.84894 0.55577 0.0
C522 C 0.22952 0.8 0.55194 0.0
C523 C 0.21219 0.80695 0.56574 0.0
C524 C 0.21622 0.83465 0.57485 0.0
C525 C 0.23638 0.85545 0.56962 0.0
C526 C 0.22542 0.77092 0.54173 0.0
C527 C 0.19871 0.84261 0.5899 0.0
H528 H 0.11383 0.77365 0.56436 0.0
H529 H 0.17774 0.72866 0.59519 0.0
H530 H 0.15499 0.8348 0.55732 0.0
H531 H 0.16535 0.80984 0.5406 0.0
H532 H 0.12741 0.81036 0.54661 0.0
H533 H 0.22854 0.74127 0.59723 0.0
H534 H 0.2425 0.75683 0.57904 0.0
H535 H 0.23384 0.78084 0.5965 0.0
H536 H 0.26294 0.816 0.53644 0.0
H537 H 0.2389 0.87697 0.57634 0.0
H538 H 0.2026 0.76958 0.53574 0.0
H539 H 0.2279 0.752 0.54989 0.0
H540 H 0.24157 0.76834 0.53185 0.0
H541 H 0.17481 0.84439 0.586 0.0
H542 H 0.20623 0.86401 0.5964 0.0
H543 H 0.20077 0.82488 0.59889 0.0
C544 C 0.44739 0.69143 0.82891 0.0
C545 C 0.43911 0.6614 0.82577 0.0
C546 C 0.42723 0.7143 0.82574 0.0
C547 C 0.3984 0.70708 0.81874 0.0
C548 C 0.39033 0.677 0.81477 0.0
C549 C 0.41056 0.65456 0.81857 0.0
C550 C 0.43643 0.7461 0.83044 0.0
C551 C 0.35997 0.66843 0.80693 0.0
C552 C 0.33196 0.7564 0.8254 0.0
C553 C 0.32885 0.77003 0.8102 0.0
C554 C 0.35561 0.73718 0.82872 0.0
C555 C 0.37599 0.73069 0.8163 0.0
C556 C 0.37346 0.74511 0.80112 0.0
C557 C 0.3501 0.765 0.79835 0.0
C558 C 0.35811 0.72296 0.84527 0.0
C559 C 0.39426 0.73817 0.7874 0.0
H560 H 0.46956 0.69717 0.83407 0.0
H561 H 0.40353 0.63159 0.81633 0.0
H562 H 0.43326 0.75984 0.8195 0.0
H563 H 0.42213 0.75551 0.84016 0.0
H564 H 0.46 0.74808 0.83528 0.0
H565 H 0.35821 0.64436 0.80313 0.0
H566 H 0.34278 0.67385 0.81591 0.0
H567 H 0.35488 0.68128 0.79578 0.0
H568 H 0.31559 0.76045 0.8346 0.0
H569 H 0.3475 0.7753 0.78651 0.0
H570 H 0.38113 0.72531 0.85092 0.0
H571 H 0.35306 0.69886 0.84335 0.0
H572 H 0.3426 0.73289 0.85424 0.0
H573 H 0.41773 0.74014 0.79232 0.0
H574 H 0.39085 0.75305 0.77695 0.0
H575 H 0.39057 0.71487 0.78243 0.0
C576 C 0.50378 0.90663 0.06403 0.0
C577 C 0.49676 0.93037 0.07504 0.0
C578 C 0.48311 0.88379 0.05956 0.0
C579 C 0.45501 0.88451 0.06656 0.0
C580 C 0.44764 0.90874 0.0775 0.0
C581 C 0.46859 0.93158 0.08151 0.0
C582 C 0.49159 0.85858 0.04762 0.0
C583 C 0.41808 0.91 0.0854 0.0
C584 C 0.39586 0.83356 0.04467 0.0
C585 C 0.39949 0.80789 0.05359 0.0
C586 C 0.4131 0.85915 0.04909 0.0
C587 C 0.43401 0.85915 0.06292 0.0
C588 C 0.43652 0.83389 0.07253 0.0
C589 C 0.41942 0.80844 0.06765 0.0
C590 C 0.41006 0.88555 0.03843 0.0
C591 C 0.45816 0.83329 0.08758 0.0
H592 H 0.52556 0.90589 0.05897 0.0
H593 H 0.46337 0.94989 0.09017 0.0
H594 H 0.4924 0.83753 0.0541 0.0
H595 H 0.47459 0.85566 0.03708 0.0
H596 H 0.51357 0.86233 0.04249 0.0
H597 H 0.41524 0.93109 0.09297 0.0
H598 H 0.39961 0.9076 0.07566 0.0
H599 H 0.41618 0.8912 0.09359 0.0
H600 H 0.38057 0.83322 0.03374 0.0
H601 H 0.42209 0.78874 0.07468 0.0
H602 H 0.43075 0.88837 0.03184 0.0
H603 H 0.40703 0.90619 0.04631 0.0
H604 H 0.39108 0.88297 0.02899 0.0
H605 H 0.48125 0.83377 0.08353 0.0
H606 H 0.45527 0.81315 0.09466 0.0
H607 H 0.4554 0.85323 0.09608 0.0
C608 C 0.14234 0.69427 0.97967 0.0
C609 C 0.11664 0.68865 0.98805 0.0
C610 C 0.16915 0.7025 0.98843 0.0
C611 C 0.1702 0.70626 0.00605 0.0
C612 C 0.14418 0.70178 0.01463 0.0
C613 C 0.11777 0.69264 0.00554 0.0
C614 C 0.19647 0.70683 0.97878 0.0
C615 C 0.14432 0.70639 0.03337 0.0
C616 C 0.24827 0.70012 0.02541 0.0
C617 C 0.25811 0.72963 0.02538 0.0
C618 C 0.21887 0.69228 0.02016 0.0
C619 C 0.19884 0.71467 0.01524 0.0
C620 C 0.20801 0.74483 0.01681 0.0
C621 C 0.23774 0.75191 0.02159 0.0
C622 C 0.21015 0.65982 0.01837 0.0
C623 C 0.18706 0.76944 0.01225 0.0
H624 H 0.14159 0.69217 0.96616 0.0
H625 H 0.09819 0.68814 0.0122 0.0
H626 H 0.20463 0.73009 0.98081 0.0
H627 H 0.21455 0.69221 0.98331 0.0
H628 H 0.19213 0.70185 0.96516 0.0
H629 H 0.12175 0.70413 0.03803 0.0
H630 H 0.15904 0.68992 0.03929 0.0
H631 H 0.15335 0.72877 0.03744 0.0
H632 H 0.26409 0.68286 0.02825 0.0
H633 H 0.24533 0.7748 0.02174 0.0
H634 H 0.208 0.65251 0.00493 0.0
H635 H 0.18828 0.65618 0.02357 0.0
H636 H 0.22685 0.64563 0.02469 0.0
H637 H 0.18375 0.76949 0.99847 0.0
H638 H 0.19583 0.7916 0.01702 0.0
H639 H 0.16499 0.7659 0.01727 0.0
C640 C 0.47831 0.60766 0.24419 0.0
C641 C 0.47242 0.6005 0.22712 0.0
C642 C 0.47053 0.63543 0.25137 0.0
C643 C 0.4565 0.65645 0.24121 0.0
C644 C 0.44925 0.64881 0.22413 0.0
C645 C 0.45733 0.62092 0.21728 0.0
C646 C 0.47866 0.6428 0.26963 0.0
C647 C 0.43413 0.67055 0.21291 0.0
C648 C 0.4214 0.72468 0.26172 0.0
C649 C 0.44388 0.74615 0.26087 0.0
C650 C 0.42512 0.69532 0.25537 0.0
C651 C 0.45193 0.68731 0.24805 0.0
C652 C 0.47464 0.70886 0.24714 0.0
C653 C 0.47033 0.73797 0.25354 0.0
C654 C 0.40043 0.67289 0.25651 0.0
C655 C 0.50357 0.70117 0.23941 0.0
H656 H 0.49017 0.59203 0.25181 0.0
H657 H 0.45233 0.61526 0.20412 0.0
H658 H 0.49627 0.66023 0.27092 0.0
H659 H 0.45919 0.65182 0.27598 0.0
H660 H 0.4869 0.62313 0.27613 0.0
H661 H 0.42762 0.66024 0.20032 0.0
H662 H 0.41399 0.67963 0.21856 0.0
H663 H 0.44934 0.68954 0.21146 0.0
H664 H 0.4009 0.73078 0.26736 0.0
H665 H 0.48785 0.75434 0.25282 0.0
H666 H 0.40864 0.65409 0.26374 0.0
H667 H 0.39308 0.66359 0.24384 0.0
H668 H 0.38093 0.68269 0.26254 0.0
H669 H 0.51475 0.68312 0.2461 0.0
H670 H 0.51904 0.72051 0.23975 0.0
H671 H 0.49917 0.69286 0.22623 0.0
C672 C 0.48553 0.00252 0.49867 0.0
C673 C 0.51554 0.99445 0.49853 0.0
C674 C 0.46519 0.98637 0.50715 0.0
C675 C 0.47523 0.96224 0.51639 0.0
C676 C 0.50586 0.95549 0.51752 0.0
C677 C 0.5256 0.97132 0.50835 0.0
C678 C 0.43264 0.9942 0.50543 0.0
C679 C 0.51766 0.93074 0.52781 0.0
C680 C 0.41408 0.93622 0.54251 0.0
C681 C 0.40076 0.91374 0.53173 0.0
C682 C 0.44042 0.95035 0.53854 0.0
C683 C 0.45296 0.94245 0.52318 0.0
C684 C 0.44089 0.91817 0.51295 0.0
C685 C 0.41521 0.90381 0.51751 0.0
C686 C 0.45353 0.97511 0.55018 0.0
C687 C 0.45325 0.90923 0.49636 0.0
H688 H 0.47763 0.02106 0.49172 0.0
H689 H 0.54867 0.96475 0.50841 0.0
H690 H 0.41973 0.97508 0.49933 0.0
H691 H 0.42393 0.99891 0.5179 0.0
H692 H 0.42856 0.01385 0.49793 0.0
H693 H 0.54203 0.93291 0.5306 0.0
H694 H 0.50651 0.93039 0.53973 0.0
H695 H 0.51314 0.90908 0.52083 0.0
H696 H 0.40321 0.94376 0.55364 0.0
H697 H 0.40512 0.88639 0.50913 0.0
H698 H 0.44685 0.99683 0.54545 0.0
H699 H 0.47817 0.97434 0.55085 0.0
H700 H 0.44568 0.97395 0.56297 0.0
H701 H 0.44919 0.9272 0.48767 0.0
H702 H 0.4429 0.88839 0.49057 0.0
H703 H 0.4776 0.90609 0.49782 0.0
C704 C 0.18719 0.01706 0.75291 0.0
C705 C 0.2008 0.04523 0.75432 0.0
C706 C 0.19942 0.99332 0.76134 0.0
C707 C 0.22553 0.99798 0.77186 0.0
C708 C 0.23819 0.02682 0.77435 0.0
C709 C 0.22587 0.05008 0.7654 0.0
C710 C 0.18523 0.96288 0.75825 0.0
C711 C 0.26552 0.03283 0.78584 0.0
C712 C 0.24172 0.93128 0.79732 0.0
C713 C 0.26047 0.91503 0.78694 0.0
C714 C 0.23212 0.95977 0.7934 0.0
C715 C 0.24101 0.97185 0.7786 0.0
C716 C 0.2617 0.95647 0.76881 0.0
C717 C 0.27141 0.92841 0.7732 0.0
C718 C 0.21091 0.97599 0.80448 0.0
C719 C 0.2716 0.96841 0.75284 0.0
H720 H 0.16724 0.01331 0.74484 0.0
H721 H 0.23658 0.07175 0.76661 0.0
H722 H 0.20094 0.94756 0.75209 0.0
H723 H 0.18019 0.95361 0.77024 0.0
H724 H 0.16434 0.96328 0.75022 0.0
H725 H 0.26914 0.05698 0.78888 0.0
H726 H 0.26378 0.02148 0.79762 0.0
H727 H 0.28534 0.02397 0.77976 0.0
H728 H 0.23345 0.92123 0.80808 0.0
H729 H 0.2861 0.91615 0.76517 0.0
H730 H 0.18802 0.97388 0.79865 0.0
H731 H 0.21658 2e-05 0.80601 0.0
H732 H 0.21105 0.96681 0.817 0.0
H733 H 0.2525 0.96813 0.74347 0.0
H734 H 0.28978 0.9551 0.74749 0.0
H735 H 0.27935 0.99177 0.75503 0.0
C736 C 0.65431 0.46039 0.80601 0.0
C737 C 0.62623 0.46812 0.79923 0.0
C738 C 0.67576 0.44784 0.79595 0.0
C739 C 0.66879 0.44192 0.77867 0.0
C740 C 0.64009 0.44835 0.7718 0.0
C741 C 0.61922 0.46172 0.78214 0.0
C742 C 0.70615 0.44143 0.80383 0.0
C743 C 0.6316 0.44171 0.75352 0.0
C744 C 0.73963 0.43871 0.75605 0.0
C745 C 0.74727 0.40889 0.75761 0.0
C746 C 0.71244 0.4495 0.76139 0.0
C747 C 0.69229 0.42978 0.76804 0.0
C748 C 0.69828 0.39898 0.7675 0.0
C749 C 0.72594 0.38891 0.76249 0.0
C750 C 0.70703 0.48252 0.76178 0.0
C751 C 0.67684 0.37705 0.77384 0.0
H752 H 0.65969 0.46431 0.81927 0.0
H753 H 0.59766 0.46771 0.77673 0.0
H754 H 0.71087 0.41736 0.80221 0.0
H755 H 0.72348 0.45349 0.79758 0.0
H756 H 0.70816 0.44807 0.81737 0.0
H757 H 0.60725 0.44335 0.75074 0.0
H758 H 0.64292 0.45775 0.74603 0.0
H759 H 0.63887 0.41913 0.74941 0.0
H760 H 0.75601 0.45425 0.75224 0.0
H761 H 0.7316 0.36572 0.76348 0.0
H762 H 0.71086 0.49203 0.77478 0.0
H763 H 0.68372 0.48721 0.75766 0.0
H764 H 0.72211 0.49404 0.75376 0.0
H765 H 0.67882 0.37819 0.78768 0.0
H766 H 0.6815 0.35391 0.76928 0.0
H767 H 0.65357 0.38244 0.76995 0.0
C768 C 0.68041 0.1304 0.03795 0.0
C769 C 0.67469 0.13768 0.05469 0.0
C770 C 0.6949 0.15065 0.02843 0.0
C771 C 0.70322 0.17904 0.03572 0.0
C772 C 0.69778 0.18637 0.05262 0.0
C773 C 0.68403 0.16551 0.06192 0.0
C774 C 0.70092 0.14182 0.01057 0.0
C775 C 0.70615 0.21648 0.0609 0.0
C776 C 0.76023 0.23292 0.02243 0.0
C777 C 0.7418 0.25514 0.0162 0.0
C778 C 0.74817 0.2061 0.02713 0.0
C779 C 0.71697 0.2018 0.02585 0.0
C780 C 0.69867 0.22275 0.01787 0.0
C781 C 0.71139 0.24909 0.01297 0.0
C782 C 0.76857 0.18382 0.03502 0.0
C783 C 0.66529 0.21912 0.01629 0.0
H784 H 0.67315 0.10907 0.03217 0.0
H785 H 0.68062 0.17111 0.07494 0.0
H786 H 0.68685 0.15505 0.00205 0.0
H787 H 0.72443 0.14664 0.00821 0.0
H788 H 0.69624 0.11788 0.00737 0.0
H789 H 0.69973 0.21887 0.07403 0.0
H790 H 0.73049 0.22014 0.06078 0.0
H791 H 0.69517 0.23425 0.05387 0.0
H792 H 0.78385 0.23727 0.02472 0.0
H793 H 0.69699 0.26607 0.00807 0.0
H794 H 0.7615 0.16078 0.03096 0.0
H795 H 0.76763 0.18627 0.04879 0.0
H796 H 0.79199 0.18715 0.03189 0.0
H797 H 0.65881 0.196 0.0121 0.0
H798 H 0.65482 0.23446 0.00741 0.0
H799 H 0.65624 0.22394 0.02869 0.0
C800 C 0.04312 0.20578 0.32405 0.0
C801 C 0.05926 0.18708 0.31343 0.0
C802 C 0.01483 0.21582 0.31894 0.0
C803 C 0.00244 0.20691 0.30283 0.0
C804 C 0.01934 0.18943 0.29172 0.0
C805 C 0.04755 0.17968 0.29717 0.0
C806 C 0.99751 0.23441 0.33115 0.0
C807 C 0.00697 0.17965 0.27439 0.0
C808 C 0.91883 0.19764 0.29687 0.0
C809 C 0.91061 0.22309 0.28857 0.0
C810 C 0.94859 0.19241 0.30175 0.0
C811 C 0.97077 0.2131 0.29823 0.0
C812 C 0.96266 0.23911 0.29012 0.0
C813 C 0.93263 0.24383 0.28539 0.0
C814 C 0.95632 0.16446 0.31048 0.0
C815 C 0.98575 0.26165 0.28619 0.0
H816 H 0.0519 0.21129 0.3367 0.0
H817 H 0.06013 0.16551 0.28886 0.0
H818 H 0.9878 0.25393 0.32515 0.0
H819 H 0.97881 0.22102 0.33522 0.0
H820 H 0.01152 0.24233 0.34238 0.0
H821 H 0.02399 0.16877 0.26674 0.0
H822 H 0.98836 0.16368 0.27526 0.0
H823 H 0.99792 0.19892 0.26786 0.0
H824 H 0.90201 0.18153 0.29945 0.0
H825 H 0.9265 0.26355 0.27897 0.0
H826 H 0.96837 0.17021 0.32268 0.0
H827 H 0.97133 0.15058 0.30289 0.0
H828 H 0.93635 0.15099 0.31265 0.0
H829 H 0.99884 0.26943 0.29776 0.0
H830 H 0.9757 0.28121 0.28034 0.0
H831 H 0.00152 0.25119 0.27759 0.0
C832 C 0.99615 0.50973 0.56006 0.0
C833 C 0.98055 0.53633 0.55848 0.0
C834 C 0.98586 0.48326 0.55167 0.0
C835 C 0.95976 0.48349 0.541 0.0
C836 C 0.94545 0.51071 0.5381 0.0
C837 C 0.95581 0.53683 0.54705 0.0
C838 C 0.00175 0.4547 0.55522 0.0
C839 C 0.91821 0.512 0.52634 0.0
C840 C 0.94625 0.40897 0.51736 0.0
C841 C 0.92781 0.39505 0.52806 0.0
C842 C 0.95489 0.43888 0.52055 0.0
C843 C 0.94551 0.45474 0.535 0.0
C844 C 0.92538 0.4413 0.54519 0.0
C845 C 0.91651 0.41176 0.54147 0.0
C846 C 0.97543 0.45286 0.50903 0.0
C847 C 0.91506 0.45727 0.56084 0.0
H848 H 0.01593 0.50936 0.56838 0.0
H849 H 0.94366 0.55727 0.54565 0.0
H850 H 0.98702 0.44008 0.56179 0.0
H851 H 0.00713 0.44258 0.5434 0.0
H852 H 0.02267 0.45861 0.56308 0.0
H853 H 0.91377 0.535 0.52268 0.0
H854 H 0.92067 0.49741 0.51491 0.0
H855 H 0.89858 0.50398 0.53252 0.0
H856 H 0.95475 0.39627 0.50684 0.0
H857 H 0.9021 0.40123 0.54975 0.0
H858 H 0.99846 0.45314 0.5147 0.0
H859 H 0.96909 0.4762 0.50708 0.0
H860 H 0.9753 0.44032 0.49671 0.0
H861 H 0.93428 0.46123 0.57 0.0
H862 H 0.89787 0.44441 0.56677 0.0
H863 H 0.9058 0.47924 0.558 0.0
C864 C 0.73286 0.18787 0.46808 0.0
C865 C 0.71882 0.17098 0.47949 0.0
C866 C 0.75847 0.20473 0.47297 0.0
C867 C 0.77037 0.20455 0.48963 0.0
C868 C 0.75574 0.18838 0.50135 0.0
C869 C 0.73008 0.17183 0.49614 0.0
C870 C 0.77342 0.22181 0.46014 0.0
C871 C 0.76776 0.18774 0.51925 0.0
C872 C 0.85305 0.21887 0.49782 0.0
C873 C 0.85371 0.24839 0.50439 0.0
C874 C 0.82604 0.2044 0.49294 0.0
C875 C 0.79906 0.21986 0.49459 0.0
C876 C 0.79952 0.24972 0.50106 0.0
C877 C 0.82685 0.26362 0.50593 0.0
C878 C 0.82638 0.17246 0.48613 0.0
C879 C 0.77116 0.26693 0.50289 0.0
H880 H 0.72452 0.187 0.45514 0.0
H881 H 0.71906 0.15914 0.50505 0.0
H882 H 0.77729 0.24524 0.46481 0.0
H883 H 0.79546 0.21204 0.45789 0.0
H884 H 0.7601 0.22151 0.44806 0.0
H885 H 0.75285 0.17542 0.527 0.0
H886 H 0.78984 0.177 0.51971 0.0
H887 H 0.77091 0.21069 0.52486 0.0
H888 H 0.87365 0.2069 0.49661 0.0
H889 H 0.82714 0.28647 0.51095 0.0
H890 H 0.81542 0.17048 0.47339 0.0
H891 H 0.81363 0.15831 0.49406 0.0
H892 H 0.84928 0.16365 0.48557 0.0
H893 H 0.75865 0.26744 0.49061 0.0
H894 H 0.77538 0.29014 0.50792 0.0
H895 H 0.75672 0.25574 0.51135 0.0
C896 C 0.99262 0.23665 0.72329 0.0
C897 C 0.01991 0.24375 0.73189 0.0
C898 C 0.96776 0.25476 0.7254 0.0
C899 C 0.97024 0.28017 0.73661 0.0
C900 C 0.99753 0.28677 0.74578 0.0
C901 C 0.02218 0.26864 0.74315 0.0
C902 C 0.93925 0.24737 0.71515 0.0
C903 C 0.00089 0.31334 0.7581 0.0
C904 C 0.92084 0.34696 0.73106 0.0
C905 C 0.90018 0.34333 0.74316 0.0
C906 C 0.94296 0.32583 0.7283 0.0
C907 C 0.94488 0.30084 0.73816 0.0
C908 C 0.92356 0.29661 0.75006 0.0
C909 C 0.90122 0.31778 0.75229 0.0
C910 C 0.96484 0.33076 0.7152 0.0
C911 C 0.92519 0.27049 0.76098 0.0
H912 H 0.99106 0.21754 0.71444 0.0
H913 H 0.04334 0.27398 0.74981 0.0
H914 H 0.92044 0.24604 0.72337 0.0
H915 H 0.93417 0.26532 0.70659 0.0
H916 H 0.94055 0.22602 0.70761 0.0
H917 H 0.02287 0.31406 0.76512 0.0
H918 H 0.99828 0.33408 0.75142 0.0
H919 H 0.98323 0.313 0.76713 0.0
H920 H 0.91996 0.36659 0.7239 0.0
H921 H 0.88541 0.31501 0.76175 0.0
H922 H 0.96621 0.31056 0.70672 0.0
H923 H 0.98732 0.33503 0.72128 0.0
H924 H 0.95872 0.34986 0.70763 0.0
H925 H 0.92616 0.24939 0.75323 0.0
H926 H 0.9059 0.26942 0.76891 0.0
H927 H 0.94585 0.27215 0.7692 0.0
C928 C 0.90581 0.51482 0.99356 0.0
C929 C 0.90283 0.52112 0.97669 0.0
C930 C 0.88888 0.49211 0.99973 0.0
C931 C 0.86875 0.47522 0.9887 0.0
C932 C 0.86641 0.48088 0.97156 0.0
C933 C 0.88339 0.50385 0.96577 0.0
C934 C 0.89176 0.48688 0.01811 0.0
C935 C 0.8454 0.46319 0.95938 0.0
C936 C 0.8361 0.4023 0.00112 0.0
C937 C 0.80759 0.4111 0.00534 0.0
C938 C 0.85659 0.42302 0.99598 0.0
C939 C 0.8484 0.45321 0.99523 0.0
C940 C 0.82 0.46232 -2e-05 0.0
C941 C 0.79993 0.44117 0.00489 0.0
C942 C 0.88664 0.41251 0.9909 0.0
C943 C 0.81051 0.49435 0.9995 0.0
H944 H 0.92076 0.52823 0.00202 0.0
H945 H 0.88146 0.50836 0.95266 0.0
H946 H 0.87057 0.4925 0.02385 0.0
H947 H 0.89608 0.46309 0.02 0.0
H948 H 0.90989 0.50046 0.02479 0.0
H949 H 0.84777 0.46898 0.94629 0.0
H950 H 0.84939 0.43906 0.96024 0.0
H951 H 0.82212 0.46737 0.96257 0.0
H952 H 0.84214 0.3791 0.00141 0.0
H953 H 0.77805 0.44824 0.00828 0.0
H954 H 0.90454 0.42581 0.99794 0.0
H955 H 0.88878 0.41584 0.97746 0.0
H956 H 0.8902 0.38866 0.99305 0.0
H957 H 0.8269 0.50901 0.00688 0.0
H958 H 0.78827 0.49805 0.00447 0.0
H959 H 0.80977 0.50122 0.98646 0.0
C960 C 0.65818 0.40372 0.25399 0.0
C961 C 0.64668 0.39418 0.23794 0.0
C962 C 0.68296 0.38986 0.2615 0.0
C963 C 0.69639 0.3658 0.2528 0.0
C964 C 0.68467 0.35587 0.2367 0.0
C965 C 0.66014 0.37026 0.22945 0.0
C966 C 0.69494 0.40111 0.27865 0.0
C967 C 0.6983 0.33023 0.22699 0.0
C968 C 0.77635 0.34239 0.25998 0.0
C969 C 0.77289 0.31569 0.2678 0.0
C970 C 0.7518 0.36027 0.25617 0.0
C971 C 0.72311 0.35109 0.26016 0.0
C972 C 0.71985 0.32542 0.26924 0.0
C973 C 0.74483 0.30808 0.27302 0.0
C974 C 0.7563 0.38774 0.24673 0.0
C975 C 0.68966 0.31486 0.27374 0.0
H976 H 0.64777 0.422 0.2607 0.0
H977 H 0.65188 0.3631 0.21692 0.0
H978 H 0.69511 0.38286 0.28732 0.0
H979 H 0.71826 0.40883 0.2781 0.0
H980 H 0.68166 0.41972 0.28388 0.0
H981 H 0.68592 0.32464 0.21484 0.0
H982 H 0.7216 0.33579 0.22456 0.0
H983 H 0.69881 0.31021 0.23438 0.0
H984 H 0.798 0.34858 0.25604 0.0
H985 H 0.74195 0.28753 0.27912 0.0
H986 H 0.74378 0.40668 0.25216 0.0
H987 H 0.74767 0.38354 0.23359 0.0
H988 H 0.78013 0.3942 0.24676 0.0
H989 H 0.67672 0.33359 0.27907 0.0
H990 H 0.69132 0.29726 0.28284 0.0
H991 H 0.67703 0.30574 0.2623 0.0
C992 C 0.27293 0.02668 0.42567 0.0
C993 C 0.24516 0.0216 0.41713 0.0
C994 C 0.28087 0.01198 0.44015 0.0
C995 C 0.26052 0.99181 0.44625 0.0
C996 C 0.23285 0.9859 0.4374 0.0
C997 C 0.22551 0.00086 0.42295 0.0
C998 C 0.31069 0.01868 0.4492 0.0
C999 C 0.21054 0.96458 0.44353 0.0
C1000 C 0.28828 0.93757 0.47792 0.0
C1001 C 0.28048 0.95195 0.49298 0.0
C1002 C 0.28201 0.9503 0.46261 0.0
C1003 C 0.26751 0.97801 0.46234 0.0
C1004 C 0.25944 0.99257 0.47746 0.0
C1005 C 0.26605 0.97939 0.4926 0.0
C1006 C 0.29097 0.93415 0.44673 0.0
C1007 C 0.24385 0.02212 0.47767 0.0
H1008 H 0.28831 0.04246 0.42112 0.0
H1009 H 0.20384 0.99715 0.41656 0.0
H1010 H 0.30742 0.02944 0.46171 0.0
H1011 H 0.32293 0.99778 0.45112 0.0
H1012 H 0.32464 0.03359 0.44231 0.0
H1013 H 0.1908 0.96107 0.43467 0.0
H1014 H 0.22099 0.94277 0.44551 0.0
H1015 H 0.20294 0.97329 0.45573 0.0
H1016 H 0.29952 0.91641 0.47808 0.0
H1017 H 0.25993 0.99068 0.50415 0.0
H1018 H 0.30622 0.94834 0.44023 0.0
H1019 H 0.27109 0.92952 0.43815 0.0
H1020 H 0.30218 0.91281 0.44908 0.0
H1021 H 0.25778 0.03887 0.47211 0.0
H1022 H 0.23902 0.0305 0.49048 0.0
H1023 H 0.22262 0.02007 0.46997 0.0
C1024 C 0.11214 0.76439 0.68648 0.0
C1025 C 0.1185 0.73706 0.67827 0.0
C1026 C 0.12836 0.77443 0.7012 0.0
C1027 C 0.15154 0.75677 0.70781 0.0
C1028 C 0.15827 0.72934 0.6995 0.0
C1029 C 0.14161 0.71977 0.68488 0.0
C1030 C 0.12056 0.80382 0.70975 0.0
C1031 C 0.18288 0.70991 0.70614 0.0
C1032 C 0.21129 0.79283 0.73769 0.0
C1033 C 0.20238 0.78439 0.75317 0.0
C1034 C 0.19482 0.78419 0.72284 0.0
C1035 C 0.16872 0.76681 0.72348 0.0
C1036 C 0.15946 0.75837 0.73905 0.0
C1037 C 0.17645 0.76719 0.75371 0.0
C1038 C 0.2055 0.79342 0.70644 0.0
C1039 C 0.13164 0.73994 0.74021 0.0
H1040 H 0.09451 0.77799 0.68136 0.0
H1041 H 0.1463 0.69835 0.67882 0.0
H1042 H 0.11421 0.80041 0.72262 0.0
H1043 H 0.1402 0.81891 0.71077 0.0
H1044 H 0.10195 0.81492 0.70298 0.0
H1045 H 0.18577 0.68954 0.69796 0.0
H1046 H 0.2042 0.7225 0.70739 0.0
H1047 H 0.17805 0.7032 0.71876 0.0
H1048 H 0.2313 0.80611 0.73713 0.0
H1049 H 0.1693 0.76068 0.76562 0.0
H1050 H 0.18796 0.80609 0.69979 0.0
H1051 H 0.21009 0.77343 0.69832 0.0
H1052 H 0.226 0.80735 0.70811 0.0
H1053 H 0.11222 0.7513 0.73443 0.0
H1054 H 0.12711 0.73583 0.75331 0.0
H1055 H 0.13376 0.71821 0.73319 0.0
C1056 C 0.4621 0.64881 0.92502 0.0
C1057 C 0.44974 0.62255 0.91726 0.0
C1058 C 0.44916 0.66312 0.9387 0.0
C1059 C 0.42324 0.65081 0.94478 0.0
C1060 C 0.41 0.62492 0.93661 0.0
C1061 C 0.4234 0.6111 0.9229 0.0
C1062 C 0.4638 0.69083 0.94699 0.0
C1063 C 0.38237 0.61116 0.94275 0.0
C1064 C 0.4115 0.66763 0.99065 0.0
C1065 C 0.3903 0.69024 0.9901 0.0
C1066 C 0.42205 0.65437 0.97597 0.0
C1067 C 0.41122 0.66397 0.96033 0.0
C1068 C 0.38964 0.68658 0.95964 0.0
C1069 C 0.3794 0.69944 0.97454 0.0
C1070 C 0.44506 0.63027 0.97722 0.0
C1071 C 0.37763 0.6974 0.94317 0.0
H1072 H 0.48221 0.65798 0.92052 0.0
H1073 H 0.4139 0.59069 0.91701 0.0
H1074 H 0.44739 0.70898 0.94802 0.0
H1075 H 0.47219 0.6864 0.95985 0.0
H1076 H 0.48269 0.69862 0.94007 0.0
H1077 H 0.37357 0.59239 0.93427 0.0
H1078 H 0.38743 0.60281 0.9553 0.0
H1079 H 0.36475 0.62806 0.94401 0.0
H1080 H 0.41999 0.66029 0.0026 0.0
H1081 H 0.36299 0.71686 0.97397 0.0
H1082 H 0.46572 0.63738 0.97168 0.0
H1083 H 0.43689 0.60978 0.97003 0.0
H1084 H 0.45062 0.62481 0.99032 0.0
H1085 H 0.39598 0.70687 0.93649 0.0
H1086 H 0.36034 0.71461 0.94476 0.0
H1087 H 0.36794 0.67853 0.93513 0.0
C1088 C 0.53208 0.92794 0.1678 0.0
C1089 C 0.52995 0.95869 0.16654 0.0
C1090 C 0.52004 0.91408 0.18108 0.0
C1091 C 0.5062 0.93156 0.19358 0.0
C1092 C 0.50351 0.96259 0.19216 0.0
C1093 C 0.51518 0.97576 0.17854 0.0
C1094 C 0.52283 0.88086 0.18197 0.0
C1095 C 0.48948 0.98205 0.20539 0.0
C1096 C 0.45892 0.89239 0.22344 0.0
C1097 C 0.47973 0.88812 0.23671 0.0
C1098 C 0.46709 0.90674 0.20932 0.0
C1099 C 0.49654 0.91761 0.2087 0.0
C1100 C 0.51727 0.91428 0.22237 0.0
C1101 C 0.5087 0.89928 0.23611 0.0
C1102 C 0.44455 0.9094 0.19486 0.0
C1103 C 0.54869 0.92614 0.22236 0.0
H1104 H 0.54336 0.91477 0.15843 0.0
H1105 H 0.51379 -0.0004 0.1776 0.0
H1106 H 0.53788 0.87581 0.19283 0.0
H1107 H 0.50086 0.87073 0.18382 0.0
H1108 H 0.53175 0.87021 0.17053 0.0
H1109 H 0.48755 0.00549 0.20195 0.0
H1110 H 0.46703 0.97351 0.20763 0.0
H1111 H 0.50308 0.98156 0.21733 0.0
H1112 H 0.43655 0.8836 0.22383 0.0
H1113 H 0.52479 0.89621 0.24641 0.0
H1114 H 0.45223 0.89686 0.18366 0.0
H1115 H 0.44234 0.93295 0.19175 0.0
H1116 H 0.42231 0.90073 0.19754 0.0
H1117 H 0.56051 0.91434 0.21226 0.0
H1118 H 0.56147 0.92343 0.2344 0.0
H1119 H 0.54848 0.95007 0.21983 0.0
C1120 C 0.07035 0.73354 0.87928 0.0
C1121 C 0.07787 0.72927 0.89612 0.0
C1122 C 0.09025 0.74734 0.86936 0.0
C1123 C 0.11846 0.75689 0.87643 0.0
C1124 C 0.12537 0.75446 0.8937 0.0
C1125 C 0.1049 0.74071 0.90338 0.0
C1126 C 0.08184 0.74977 0.85104 0.0
C1127 C 0.15518 0.76437 0.90171 0.0
C1128 C 0.17941 0.74926 0.84613 0.0
C1129 C 0.18286 0.77848 0.84143 0.0
C1130 C 0.15931 0.74228 0.85796 0.0
C1131 C 0.14198 0.76505 0.86525 0.0
C1132 C 0.14595 0.7948 0.86098 0.0
C1133 C 0.16648 0.80121 0.84912 0.0
C1134 C 0.15598 0.71029 0.86224 0.0
C1135 C 0.12784 0.81962 0.86851 0.0
H1136 H 0.04922 0.72514 0.87372 0.0
H1137 H 0.11079 0.73738 0.9164 0.0
H1138 H 0.08699 0.77235 0.84717 0.0
H1139 H 0.09505 0.73379 0.84357 0.0
H1140 H 0.05788 0.7449 0.84797 0.0
H1141 H 0.15536 0.76532 0.91555 0.0
H1142 H 0.17245 0.74853 0.89769 0.0
H1143 H 0.16142 0.78656 0.89769 0.0
H1144 H 0.1922 0.7316 0.84038 0.0
H1145 H 0.16907 0.82384 0.84555 0.0
H1146 H 0.13329 0.70204 0.85819 0.0
H1147 H 0.15882 0.70851 0.87593 0.0
H1148 H 0.17233 0.69554 0.85617 0.0
H1149 H 0.10419 0.81664 0.86404 0.0
H1150 H 0.13556 0.84181 0.86515 0.0
H1151 H 0.12886 0.81904 0.8823 0.0
C1152 C 0.42737 0.57703 0.14135 0.0
C1153 C 0.4383 0.54981 0.13512 0.0
C1154 C 0.41477 0.59746 0.13052 0.0
C1155 C 0.41295 0.59035 0.1131 0.0
C1156 C 0.42195 0.56199 0.10689 0.0
C1157 C 0.43464 0.54211 0.11798 0.0
C1158 C 0.40552 0.62748 0.13764 0.0
C1159 C 0.4201 0.55339 0.08843 0.0
C1160 C 0.37095 0.63965 0.083 0.0
C1161 C 0.39431 0.65631 0.07734 0.0
C1162 C 0.37646 0.61832 0.09488 0.0
C1163 C 0.40595 0.61382 0.10126 0.0
C1164 C 0.42944 0.63112 0.09585 0.0
C1165 C 0.42335 0.65201 0.08394 0.0
C1166 C 0.35091 0.60019 0.10033 0.0
C1167 C 0.4612 0.62723 0.10242 0.0
H1168 H 0.4303 0.58311 0.15459 0.0
H1169 H 0.44271 0.52089 0.11316 0.0
H1170 H 0.42193 0.64455 0.13469 0.0
H1171 H 0.38362 0.63377 0.13195 0.0
H1172 H 0.40421 0.62796 0.15141 0.0
H1173 H 0.42418 0.52933 0.08584 0.0
H1174 H 0.39797 0.55887 0.08272 0.0
H1175 H 0.43695 0.56621 0.08224 0.0
H1176 H 0.34846 0.64287 0.07794 0.0
H1177 H 0.44152 0.66494 0.07974 0.0
H1178 H 0.35047 0.6018 0.11412 0.0
H1179 H 0.35394 0.57643 0.09646 0.0
H1180 H 0.32912 0.60747 0.09489 0.0
H1181 H 0.46278 0.63014 0.11624 0.0
H1182 H 0.4767 0.64327 0.09742 0.0
H1183 H 0.46865 0.60439 0.099 0.0
C1184 C 0.49918 0.95498 0.38971 0.0
C1185 C 0.52676 0.95003 0.39803 0.0
C1186 C 0.48758 0.93499 0.37694 0.0
C1187 C 0.50376 0.90918 0.37256 0.0
C1188 C 0.53031 0.90275 0.38188 0.0
C1189 C 0.54162 0.92337 0.39446 0.0
C1190 C 0.45914 0.94266 0.36733 0.0
C1191 C 0.54789 0.87518 0.37778 0.0
C1192 C 0.46371 0.85386 0.34138 0.0
C1193 C 0.47405 0.86268 0.32629 0.0
C1194 C 0.47414 0.86786 0.35671 0.0
C1195 C 0.49502 0.89146 0.35686 0.0
C1196 C 0.50627 0.89973 0.34172 0.0
C1197 C 0.49581 0.88512 0.32666 0.0
C1198 C 0.46211 0.85808 0.37265 0.0
C1199 C 0.52846 0.92492 0.34134 0.0
H1200 H 0.48725 0.97521 0.39269 0.0
H1201 H 0.56298 0.91938 0.4008 0.0
H1202 H 0.46422 0.94832 0.35455 0.0
H1203 H 0.44365 0.92335 0.36607 0.0
H1204 H 0.44773 0.96184 0.37337 0.0
H1205 H 0.56489 0.8708 0.38789 0.0
H1206 H 0.53297 0.85549 0.3756 0.0
H1207 H 0.55938 0.87793 0.36614 0.0
H1208 H 0.44705 0.83639 0.34122 0.0
H1209 H 0.50399 0.89208 0.31508 0.0
H1210 H 0.44768 0.87565 0.37791 0.0
H1211 H 0.48055 0.85475 0.3821 0.0
H1212 H 0.4489 0.83717 0.37061 0.0
H1213 H 0.5184 0.94599 0.34598 0.0
H1214 H 0.53583 0.92783 0.32859 0.0
H1215 H 0.5483 0.92092 0.3497 0.0
C1216 C 0.23418 0.03779 0.65231 0.0
C1217 C 0.24079 0.06754 0.65713 0.0
C1218 C 0.24858 0.02305 0.63931 0.0
C1219 C 0.2699 0.0386 0.63081 0.0
C1220 C 0.27852 0.06785 0.63662 0.0
C1221 C 0.26384 0.08202 0.64979 0.0
C1222 C 0.23901 0.9917 0.63371 0.0
C1223 C 0.3013 0.08509 0.62801 0.0
C1224 C 0.30779 0.99096 0.59788 0.0
C1225 C 0.28806 0.99398 0.58395 0.0
C1226 C 0.30337 0.00676 0.61314 0.0
C1227 C 0.27882 0.02605 0.61435 0.0
C1228 C 0.26025 0.03077 0.59994 0.0
C1229 C 0.26504 0.01459 0.58497 0.0
C1230 C 0.32375 0.00129 0.62818 0.0
C1231 C 0.23406 0.05147 0.60057 0.0
H1232 H 0.21652 0.02655 0.65813 0.0
H1233 H 0.2689 0.10509 0.65351 0.0
H1234 H 0.22563 0.9919 0.62169 0.0
H1235 H 0.25864 0.97757 0.63163 0.0
H1236 H 0.22537 0.98144 0.64294 0.0
H1237 H 0.3098 0.10474 0.63589 0.0
H1238 H 0.3203 0.07083 0.62475 0.0
H1239 H 0.29099 0.09298 0.61623 0.0
H1240 H 0.32564 0.97503 0.59715 0.0
H1241 H 0.24996 0.01729 0.57416 0.0
H1242 H 0.31227 0.9867 0.63645 0.0
H1243 H 0.32942 0.0224 0.63549 0.0
H1244 H 0.34463 0.99031 0.62461 0.0
H1245 H 0.21704 0.04219 0.60829 0.0
H1246 H 0.22358 0.05479 0.58798 0.0
H1247 H 0.24106 0.07344 0.60648 0.0
C1248 C 0.64403 0.43837 0.90285 0.0
C1249 C 0.61478 0.43345 0.89634 0.0
C1250 C 0.65586 0.42216 0.91598 0.0
C1251 C 0.63798 0.40046 0.92273 0.0
C1252 C 0.60947 0.39342 0.91514 0.0
C1253 C 0.59814 0.41009 0.90201 0.0
C1254 C 0.68651 0.43017 0.92357 0.0
C1255 C 0.58992 0.37011 0.92177 0.0
C1256 C 0.678 0.35694 0.95623 0.0
C1257 C 0.67253 0.37471 0.97062 0.0
C1258 C 0.66549 0.3639 0.94051 0.0
C1259 C 0.64723 0.3892 0.93924 0.0
C1260 C 0.6401 0.40594 0.95389 0.0
C1261 C 0.65281 0.39847 0.96937 0.0
C1262 C 0.67325 0.34526 0.92521 0.0
C1263 C 0.62049 0.43294 0.95315 0.0
H1264 H 0.65713 0.45608 0.89827 0.0
H1265 H 0.57548 0.4062 0.89703 0.0
H1266 H 0.68457 0.44204 0.93594 0.0
H1267 H 0.69967 0.40986 0.92556 0.0
H1268 H 0.69887 0.44471 0.91563 0.0
H1269 H 0.57137 0.36313 0.91264 0.0
H1270 H 0.60299 0.35026 0.92497 0.0
H1271 H 0.58029 0.37924 0.93335 0.0
H1272 H 0.69317 0.33848 0.95711 0.0
H1273 H 0.64819 0.41211 0.98046 0.0
H1274 H 0.68973 0.35742 0.91839 0.0
H1275 H 0.65334 0.34105 0.91659 0.0
H1276 H 0.68295 0.32363 0.92846 0.0
H1277 H 0.63172 0.45049 0.94664 0.0
H1278 H 0.61536 0.44221 0.96575 0.0
H1279 H 0.59927 0.42729 0.94594 0.0
C1280 C 0.73753 0.12147 0.15717 0.0
C1281 C 0.71034 0.13469 0.15271 0.0
C1282 C 0.75658 0.13427 0.1701 0.0
C1283 C 0.74808 0.16072 0.17884 0.0
C1284 C 0.72171 0.17526 0.17359 0.0
C1285 C 0.70324 0.16213 0.16054 0.0
C1286 C 0.78474 0.11834 0.17517 0.0
C1287 C 0.71189 0.20357 0.18255 0.0
C1288 C 0.7699 0.1714 0.22499 0.0
C1289 C 0.79187 0.19363 0.22536 0.0
C1290 C 0.75599 0.16014 0.20988 0.0
C1291 C 0.76445 0.17111 0.19471 0.0
C1292 C 0.78733 0.19278 0.1949 0.0
C1293 C 0.80067 0.20394 0.21025 0.0
C1294 C 0.73156 0.1371 0.21022 0.0
C1295 C 0.79721 0.20464 0.17893 0.0
H1296 H 0.74313 0.10019 0.15125 0.0
H1297 H 0.68254 0.17274 0.15691 0.0
H1298 H 0.80362 0.13425 0.1774 0.0
H1299 H 0.78179 0.10756 0.18702 0.0
H1300 H 0.79056 0.10095 0.16557 0.0
H1301 H 0.69263 0.21373 0.17584 0.0
H1302 H 0.70545 0.19871 0.19522 0.0
H1303 H 0.73038 0.22002 0.18407 0.0
H1304 H 0.76293 0.16328 0.23658 0.0
H1305 H 0.81776 0.221 0.21041 0.0
H1306 H 0.73681 0.11705 0.20233 0.0
H1307 H 0.71035 0.14605 0.20498 0.0
H1308 H 0.72818 0.13034 0.22304 0.0
H1309 H 0.80265 0.18603 0.17002 0.0
H1310 H 0.81692 0.21958 0.18112 0.0
H1311 H 0.77884 0.21718 0.17292 0.0
C1312 C 0.05483 0.19095 0.41114 0.0
C1313 C 0.08251 0.20301 0.40778 0.0
C1314 C 0.03775 0.20402 0.42357 0.0
C1315 C 0.04892 0.2293 0.43326 0.0
C1316 C 0.07623 0.2423 0.42958 0.0
C1317 C 0.09249 0.22925 0.41674 0.0
C1318 C 0.00841 0.1898 0.42688 0.0
C1319 C 0.08908 0.26903 0.43978 0.0
C1320 C 0.99539 0.26983 0.46138 0.0
C1321 C 0.0001 0.2549 0.47608 0.0
C1322 C 0.01161 0.26231 0.44735 0.0
C1323 C 0.03349 0.23995 0.4483 0.0
C1324 C 0.03935 0.22604 0.46346 0.0
C1325 C 0.02227 0.23338 0.47707 0.0
C1326 C 0.00427 0.27713 0.4313 0.0
C1327 C 0.06301 0.20266 0.46516 0.0
H1328 H 0.0469 0.17051 0.40458 0.0
H1329 H 0.11342 0.23928 0.41403 0.0
H1330 H 0.0105 0.17896 0.43891 0.0
H1331 H 0.99091 0.20687 0.42792 0.0
H1332 H 0.00107 0.17277 0.41691 0.0
H1333 H 0.10907 0.27816 0.43437 0.0
H1334 H 0.07229 0.2868 0.44082 0.0
H1335 H 0.09539 0.26265 0.45262 0.0
H1336 H 0.97807 0.28634 0.46059 0.0
H1337 H 0.0261 0.22203 0.48851 0.0
H1338 H 0.99393 0.26061 0.4219 0.0
H1339 H 0.02478 0.28552 0.42613 0.0
H1340 H 0.98869 0.2959 0.43302 0.0
H1341 H 0.05642 0.18257 0.45713 0.0
H1342 H 0.06669 0.1961 0.47821 0.0
H1343 H 0.08435 0.21091 0.4609 0.0
C1344 C 0.93686 0.53895 0.65437 0.0
C1345 C 0.92871 0.56813 0.65136 0.0
C1346 C 0.92123 0.52228 0.6652 0.0
C1347 C 0.89719 0.53536 0.67342 0.0
C1348 C 0.88753 0.56408 0.66946 0.0
C1349 C 0.9034 0.58014 0.65837 0.0
C1350 C 0.93199 0.49156 0.66883 0.0
C1351 C 0.86206 0.57881 0.67795 0.0
C1352 C 0.85503 0.48342 0.6995 0.0
C1353 C 0.87148 0.48709 0.71484 0.0
C1354 C 0.86209 0.50003 0.68596 0.0
C1355 C 0.88584 0.52092 0.68798 0.0
C1356 C 0.90112 0.52598 0.70379 0.0
C1357 C 0.8939 0.50887 0.71696 0.0
C1358 C 0.84534 0.49397 0.6693 0.0
C1359 C 0.92627 0.54839 0.7066 0.0
H1360 H 0.95634 0.52966 0.64881 0.0
H1361 H 0.89721 0.60279 0.65605 0.0
H1362 H 0.9431 0.4921 0.68154 0.0
H1363 H 0.91302 0.47571 0.66855 0.0
H1364 H 0.94806 0.4831 0.65977 0.0
H1365 H 0.85394 0.5985 0.67143 0.0
H1366 H 0.84329 0.56297 0.67861 0.0
H1367 H 0.86953 0.58619 0.69094 0.0
H1368 H 0.83769 0.46655 0.69783 0.0
H1369 H 0.90641 0.51205 0.72888 0.0
H1370 H 0.85977 0.48149 0.6607 0.0
H1371 H 0.83933 0.51506 0.66357 0.0
H1372 H 0.82478 0.48068 0.67038 0.0
H1373 H 0.94536 0.54081 0.69942 0.0
H1374 H 0.93396 0.55161 0.71997 0.0
H1375 H 0.91925 0.57018 0.70207 0.0
C1376 C 0.67943 0.1601 0.37395 0.0
C1377 C 0.6935 0.14016 0.3846 0.0
C1378 C 0.69391 0.17108 0.36058 0.0
C1379 C 0.72362 0.16287 0.35809 0.0
C1380 C 0.73854 0.14409 0.36927 0.0
C1381 C 0.72319 0.13259 0.38219 0.0
C1382 C 0.67703 0.19056 0.34873 0.0
C1383 C 0.7705 0.13541 0.36729 0.0
C1384 C 0.75319 0.16156 0.31486 0.0
C1385 C 0.76874 0.18861 0.31537 0.0
C1386 C 0.73762 0.15341 0.3285 0.0
C1387 C 0.73853 0.17232 0.34322 0.0
C1388 C 0.7542 0.19973 0.34379 0.0
C1389 C 0.76874 0.20779 0.32971 0.0
C1390 C 0.7204 0.12443 0.32719 0.0
C1391 C 0.75644 0.22005 0.35942 0.0
H1392 H 0.65684 0.16689 0.37588 0.0
H1393 H 0.73435 0.11694 0.39006 0.0
H1394 H 0.68917 0.21181 0.34782 0.0
H1395 H 0.6752 0.17935 0.33605 0.0
H1396 H 0.65429 0.19558 0.35265 0.0
H1397 H 0.77988 0.12347 0.37806 0.0
H1398 H 0.77206 0.12079 0.35581 0.0
H1399 H 0.7844 0.15542 0.36593 0.0
H1400 H 0.75304 0.14681 0.3037 0.0
H1401 H 0.78103 0.2286 0.33015 0.0
H1402 H 0.69709 0.12836 0.33039 0.0
H1403 H 0.73027 0.10911 0.33624 0.0
H1404 H 0.72028 0.11329 0.31449 0.0
H1405 H 0.73395 0.226 0.36332 0.0
H1406 H 0.76901 0.24081 0.35773 0.0
H1407 H 0.7677 0.20835 0.36975 0.0
C1408 C 0.02831 0.21289 0.63326 0.0
C1409 C 0.05168 0.23021 0.6411 0.0
C1410 C 0.01262 0.22195 0.6189 0.0
C1411 C 0.02069 0.24885 0.61207 0.0
C1412 C 0.04374 0.26683 0.62011 0.0
C1413 C 0.0589 0.25734 0.63457 0.0
C1414 C 0.98806 0.20222 0.61072 0.0
C1415 C 0.05296 0.29566 0.61318 0.0
C1416 C 0.00286 0.25352 0.56564 0.0
C1417 C 0.977 0.27066 0.56535 0.0
C1418 C 0.01758 0.24677 0.58077 0.0
C1419 C 0.00605 0.25722 0.59601 0.0
C1420 C 0.98013 0.27474 0.59583 0.0
C1421 C 0.96596 0.28136 0.5805 0.0
C1422 C 0.04532 0.22818 0.58046 0.0
C1423 C 0.96709 0.28607 0.61184 0.0
H1424 H 0.02286 0.19166 0.63802 0.0
H1425 H 0.07665 0.27105 0.64068 0.0
H1426 H 0.96744 0.21517 0.60877 0.0
H1427 H 0.99449 0.19351 0.59827 0.0
H1428 H 0.98313 0.1831 0.61825 0.0
H1429 H 0.07026 0.3078 0.62138 0.0
H1430 H 0.0618 0.2911 0.60071 0.0
H1431 H 0.03345 0.31027 0.61149 0.0
H1432 H 0.01167 0.2453 0.55401 0.0
H1433 H 0.94598 0.29461 0.5804 0.0
H1434 H 0.04164 0.20715 0.58657 0.0
H1435 H 0.064 0.24015 0.58759 0.0
H1436 H 0.05197 0.22267 0.56757 0.0
H1437 H 0.96048 0.26705 0.619 0.0
H1438 H 0.94734 0.30019 0.60957 0.0
H1439 H 0.984 0.29919 0.61978 0.0
C1440 C 0.92465 0.51627 0.87226 0.0
C1441 C 0.90689 0.5386 0.87925 0.0
C1442 C 0.91476 0.49927 0.85783 0.0
C1443 C 0.88643 0.50477 0.85016 0.0
C1444 C 0.86796 0.52659 0.85744 0.0
C1445 C 0.87845 0.5433 0.87191 0.0
C1446 C 0.93514 0.47625 0.85042 0.0
C1447 C 0.83756 0.53294 0.84965 0.0
C1448 C 0.87781 0.48558 0.80362 0.0
C1449 C 0.86324 0.4579 0.80294 0.0
C1450 C 0.88488 0.50131 0.8189 0.0
C1451 C 0.87718 0.48911 0.8339 0.0
C1452 C 0.86197 0.46148 0.83332 0.0
C1453 C 0.85519 0.44617 0.81783 0.0
C1454 C 0.90112 0.53074 0.81901 0.0
C1455 C 0.85338 0.44786 0.84907 0.0
H1456 H 0.94684 0.51281 0.8777 0.0
H1457 H 0.86451 0.5603 0.87737 0.0
H1458 H 0.92343 0.45452 0.84831 0.0
H1459 H 0.94176 0.483 0.83811 0.0
H1460 H 0.95558 0.47326 0.85854 0.0
H1461 H 0.82508 0.54897 0.85753 0.0
H1462 H 0.83981 0.54225 0.83731 0.0
H1463 H 0.82434 0.51209 0.84749 0.0
H1464 H 0.88403 0.49491 0.7922 0.0
H1465 H 0.84381 0.42487 0.81743 0.0
H1466 H 0.92316 0.52924 0.82581 0.0
H1467 H 0.88853 0.54832 0.82569 0.0
H1468 H 0.90454 0.53765 0.80623 0.0
H1469 H 0.87367 0.44289 0.85685 0.0
H1470 H 0.84025 0.427 0.84644 0.0
H1471 H 0.84015 0.4638 0.85655 0.0
C1472 C 0.65296 0.41071 0.13236 0.0
C1473 C 0.63251 0.39063 0.13808 0.0
C1474 C 0.66918 0.40325 0.11841 0.0
C1475 C 0.66487 0.37502 0.10994 0.0
C1476 C 0.64543 0.35406 0.11613 0.0
C1477 C 0.62938 0.36216 0.13012 0.0
C1478 C 0.6896 0.42628 0.11216 0.0
C1479 C 0.64048 0.32363 0.10752 0.0
C1480 C 0.67613 0.37265 0.06359 0.0
C1481 C 0.70488 0.36113 0.06282 0.0
C1482 C 0.6627 0.37663 0.07881 0.0
C1483 C 0.6783 0.36878 0.09368 0.0
C1484 C 0.70705 0.35653 0.09299 0.0
C1485 C 0.72007 0.35292 0.07756 0.0
C1486 C 0.63201 0.38988 0.07902 0.0
C1487 C 0.72424 0.34775 0.10859 0.0
H1488 H 0.6552 0.4329 0.13826 0.0
H1489 H 0.61385 0.34645 0.1346 0.0
H1490 H 0.71171 0.41663 0.11 0.0
H1491 H 0.68026 0.43368 0.10004 0.0
H1492 H 0.69264 0.44605 0.12103 0.0
H1493 H 0.62746 0.30881 0.11496 0.0
H1494 H 0.62829 0.32574 0.09526 0.0
H1495 H 0.66206 0.31301 0.10509 0.0
H1496 H 0.66416 0.379 0.05228 0.0
H1497 H 0.74222 0.34382 0.07707 0.0
H1498 H 0.63291 0.41131 0.08657 0.0
H1499 H 0.61673 0.37488 0.08495 0.0
H1500 H 0.62251 0.3939 0.0663 0.0
H1501 H 0.72913 0.36773 0.11705 0.0
H1502 H 0.74556 0.33683 0.10582 0.0
H1503 H 0.71073 0.33239 0.11541 0.0
loop_
_geom_bond_atom_site_label_1
_geom_bond_atom_site_label_2
_geom_bond_distance
_geom_bond_site_symmetry_2
_ccdc_geom_bond_type
C0 C1 1.384 1_565 S
C0 C2 1.384 . S
C0 H28 0.931 . S
C1 C0 1.384 1_545 S
C1 C4 1.382 . S
C2 C0 1.384 . S
C2 C3 1.381 1_565 S
C2 H29 0.930 . S
C3 C2 1.381 1_545 S
C3 C5 1.381 . S
C3 C6 1.487 . S
C4 C1 1.382 . S
C4 C5 1.387 . S
C4 H30 0.930 . S
C5 C3 1.381 . S
C5 C4 1.387 . S
C5 H31 0.931 . S
C6 C3 1.487 . S
C6 C13 1.399 . S
C6 N44 1.343 . S
C7 C8 1.384 . S
C7 C9 1.384 1_565 S
C7 H32 0.928 1_565 S
C8 C7 1.384 . S
C8 C11 1.382 . S
C9 C7 1.384 1_545 S
C9 C10 1.381 . S
C9 H33 0.930 . S
C10 C9 1.381 . S
C10 C12 1.381 1_545 S
C10 C13 1.487 . S
C11 C8 1.382 . S
C11 C12 1.387 . S
C11 H34 0.930 . S
C12 C10 1.381 1_565 S
C12 C11 1.387 . S
C12 H35 0.931 . S
C13 C6 1.399 . S
C13 C10 1.487 . S
C13 N45 1.343 . S
C14 C15 1.384 . S
C14 C16 1.384 . S
C14 H36 0.931 . S
C15 C14 1.384 . S
C15 C18 1.382 . S
C16 C14 1.384 . S
C16 C17 1.381 . S
C16 H37 0.930 . S
C17 C16 1.381 . S
C17 C19 1.381 . S
C17 C20 1.487 . S
C18 C15 1.382 . S
C18 C19 1.387 . S
C18 H38 0.930 . S
C19 C17 1.381 . S
C19 C18 1.387 . S
C19 H39 0.931 . S
C20 C17 1.487 . S
C20 C27 1.399 . S
C20 N45 1.343 . S
C21 C22 1.384 . S
C21 C23 1.384 . S
C21 H40 0.931 . S
C22 C21 1.384 . S
C22 C25 1.382 . S
C23 C21 1.384 . S
C23 C24 1.381 . S
C23 H41 0.930 . S
C24 C23 1.381 . S
C24 C26 1.381 . S
C24 C27 1.487 . S
C25 C22 1.382 . S
C25 C26 1.387 . S
C25 H42 0.930 . S
C26 C24 1.381 . S
C26 C25 1.387 . S
C26 H43 0.931 . S
C27 C20 1.399 . S
C27 C24 1.487 . S
C27 N44 1.343 . S
H28 C0 0.931 . S
H29 C2 0.930 . S
H30 C4 0.930 . S
H31 C5 0.931 . S
H32 C7 0.928 1_545 S
H33 C9 0.930 . S
H34 C11 0.930 . S
H35 C12 0.931 . S
H36 C14 0.931 . S
H37 C16 0.930 . S
H38 C18 0.930 . S
H39 C19 0.931 . S
H40 C21 0.931 . S
H41 C23 0.930 . S
H42 C25 0.930 . S
H43 C26 0.931 . S
N44 C6 1.343 . S
N44 C27 1.343 . S
N45 C13 1.343 . S
N45 C20 1.343 . S
C46 C47 1.384 . S
C46 C48 1.384 . S
C46 H74 0.931 . S
C47 C46 1.384 . S
C47 C50 1.382 . S
C48 C46 1.384 . S
C48 C49 1.381 1_655 S
C48 H75 0.930 . S
C49 C48 1.381 1_455 S
C49 C51 1.381 . S
C49 C52 1.487 . S
C50 C47 1.382 . S
C50 C51 1.387 1_655 S
C50 H76 0.930 1_655 S
C51 C49 1.381 . S
C51 C50 1.387 1_455 S
C51 H77 0.931 . S
C52 C49 1.487 . S
C52 C59 1.399 . S
C52 N90 1.343 . S
C53 C54 1.384 1_455 S
C53 C55 1.384 . S
C53 H78 0.931 . S
C54 C53 1.384 1_655 S
C54 C57 1.382 . S
C55 C53 1.384 . S
C55 C56 1.381 . S
C55 H79 0.930 . S
C56 C55 1.381 . S
C56 C58 1.381 . S
C56 C59 1.487 . S
C57 C54 1.382 . S
C57 C58 1.387 1_655 S
C57 H80 0.930 . S
C58 C56 1.381 . S
C58 C57 1.387 1_455 S
C58 H81 0.931 . S
C59 C52 1.399 . S
C59 C56 1.487 . S
C59 N91 1.343 . S
C60 C61 1.384 . S
C60 C62 1.384 . S
C60 H82 0.931 . S
C61 C60 1.384 . S
C61 C64 1.382 . S
C62 C60 1.384 . S
C62 C63 1.381 . S
C62 H83 0.930 . S
C63 C62 1.381 . S
C63 C65 1.381 . S
C63 C66 1.487 . S
C64 C61 1.382 . S
C64 C65 1.387 . S
C64 H84 0.930 . S
C65 C63 1.381 . S
C65 C64 1.387 . S
C65 H85 0.931 . S
C66 C63 1.487 . S
C66 C73 1.399 . S
C66 N91 1.343 . S
C67 C68 1.384 . S
C67 C69 1.384 . S
C67 H86 0.931 . S
C68 C67 1.384 . S
C68 C71 1.382 . S
C69 C67 1.384 . S
C69 C70 1.381 . S
C69 H87 0.930 . S
C70 C69 1.381 . S
C70 C72 1.381 . S
C70 C73 1.487 . S
C71 C68 1.382 . S
C71 C72 1.387 . S
C71 H88 0.930 . S
C72 C70 1.381 . S
C72 C71 1.387 . S
C72 H89 0.931 . S
C73 C66 1.399 . S
C73 C70 1.487 . S
C73 N90 1.343 . S
H74 C46 0.931 . S
H75 C48 0.930 . S
H76 C50 0.930 1_455 S
H77 C51 0.931 . S
H78 C53 0.931 . S
H79 C55 0.930 . S
H80 C57 0.930 . S
H81 C58 0.931 . S
H82 C60 0.931 . S
H83 C62 0.930 . S
H84 C64 0.930 . S
H85 C65 0.931 . S
H86 C67 0.931 . S
H87 C69 0.930 . S
H88 C71 0.930 . S
H89 C72 0.931 . S
N90 C52 1.343 . S
N90 C73 1.343 . S
N91 C59 1.343 . S
N91 C66 1.343 . S
C92 C93 1.384 . S
C92 C94 1.384 . S
C92 H120 0.931 . S
C93 C92 1.384 . S
C93 C96 1.382 . S
C94 C92 1.384 . S
C94 C95 1.381 . S
C94 H121 0.930 . S
C95 C94 1.381 . S
C95 C97 1.381 . S
C95 C98 1.487 . S
C96 C93 1.382 . S
C96 C97 1.387 . S
C96 H122 0.930 . S
C97 C95 1.381 . S
C97 C96 1.387 . S
C97 H123 0.931 . S
C98 C95 1.487 . S
C98 C105 1.399 . S
C98 N136 1.343 . S
C99 C100 1.384 . S
C99 C101 1.384 . S
C99 H124 0.931 . S
C100 C99 1.384 . S
C100 C103 1.382 . S
C101 C99 1.384 . S
C101 C102 1.381 . S
C101 H125 0.930 . S
C102 C101 1.381 . S
C102 C104 1.381 . S
C102 C105 1.487 . S
C103 C100 1.382 . S
C103 C104 1.387 . S
C103 H126 0.930 . S
C104 C102 1.381 . S
C104 C103 1.387 . S
C104 H127 0.931 . S
C105 C98 1.399 . S
C105 C102 1.487 . S
C105 N137 1.343 . S
C106 C107 1.384 . S
C106 C108 1.384 . S
C106 H128 0.931 . S
C107 C106 1.384 . S
C107 C110 1.382 . S
C108 C106 1.384 . S
C108 C109 1.381 . S
C108 H129 0.930 . S
C109 C108 1.381 . S
C109 C111 1.381 . S
C109 C112 1.487 . S
C110 C107 1.382 . S
C110 C111 1.387 . S
C110 H130 0.930 . S
C111 C109 1.381 . S
C111 C110 1.387 . S
C111 H131 0.931 . S
C112 C109 1.487 . S
C112 C119 1.399 . S
C112 N137 1.343 . S
C113 C114 1.384 . S
C113 C115 1.384 . S
C113 H132 0.931 . S
C114 C113 1.384 . S
C114 C117 1.382 . S
C115 C113 1.384 . S
C115 C116 1.381 . S
C115 H133 0.930 . S
C116 C115 1.381 . S
C116 C118 1.381 . S
C116 C119 1.487 . S
C117 C114 1.382 . S
C117 C118 1.387 . S
C117 H134 0.930 . S
C118 C116 1.381 . S
C118 C117 1.387 . S
C118 H135 0.931 . S
C119 C112 1.399 . S
C119 C116 1.487 . S
C119 N136 1.343 . S
H120 C92 0.931 . S
H121 C94 0.930 . S
H122 C96 0.930 . S
H123 C97 0.931 . S
H124 C99 0.931 . S
H125 C101 0.930 . S
H126 C103 0.930 . S
H127 C104 0.931 . S
H128 C106 0.931 . S
H129 C108 0.930 . S
H130 C110 0.930 . S
H131 C111 0.931 . S
H132 C113 0.931 . S
H133 C115 0.930 . S
H134 C117 0.930 . S
H135 C118 0.931 . S
N136 C98 1.343 . S
N136 C119 1.343 . S
N137 C105 1.343 . S
N137 C112 1.343 . S
C138 C139 1.384 . S
C138 C140 1.384 . S
C138 H166 0.931 . S
C139 C138 1.384 . S
C139 C142 1.382 . S
C140 C138 1.384 . S
C140 C141 1.381 . S
C140 H167 0.930 . S
C141 C140 1.381 . S
C141 C143 1.381 . S
C141 C144 1.487 . S
C142 C139 1.382 . S
C142 C143 1.387 . S
C142 H168 0.930 . S
C143 C141 1.381 . S
C143 C142 1.387 . S
C143 H169 0.931 . S
C144 C141 1.487 . S
C144 C151 1.399 . S
C144 N182 1.343 1_565 S
C145 C146 1.384 . S
C145 C147 1.384 . S
C145 H170 0.931 . S
C146 C145 1.384 . S
C146 C149 1.382 . S
C147 C145 1.384 . S
C147 C148 1.381 . S
C147 H171 0.930 . S
C148 C147 1.381 . S
C148 C150 1.381 . S
C148 C151 1.487 . S
C149 C146 1.382 . S
C149 C150 1.387 . S
C149 H172 0.930 . S
C150 C148 1.381 . S
C150 C149 1.387 . S
C150 H173 0.931 . S
C151 C144 1.399 . S
C151 C148 1.487 . S
C151 N183 1.364 . S
C152 C153 1.384 . S
C152 C154 1.384 . S
C152 H174 0.931 . S
C153 C152 1.384 . S
C153 C156 1.382 . S
C154 C152 1.384 . S
C154 C155 1.381 . S
C154 H175 0.930 . S
C155 C154 1.381 . S
C155 C157 1.381 . S
C155 C158 1.487 . S
C156 C153 1.382 . S
C156 C157 1.387 . S
C156 H176 0.930 . S
C157 C155 1.381 . S
C157 C156 1.387 . S
C157 H177 0.931 . S
C158 C155 1.487 . S
C158 C165 1.399 . S
C158 N183 1.318 1_545 S
C159 C160 1.384 . S
C159 C161 1.384 . S
C159 H178 0.931 . S
C160 C159 1.384 . S
C160 C163 1.382 . S
C161 C159 1.384 . S
C161 C162 1.381 . S
C161 H179 0.930 . S
C162 C161 1.381 . S
C162 C164 1.381 . S
C162 C165 1.487 . S
C163 C160 1.382 . S
C163 C164 1.387 . S
C163 H180 0.930 . S
C164 C162 1.381 . S
C164 C163 1.387 . S
C164 H181 0.931 . S
C165 C158 1.399 . S
C165 C162 1.487 . S
C165 N182 1.343 . S
H166 C138 0.931 . S
H167 C140 0.930 . S
H168 C142 0.930 . S
H169 C143 0.931 . S
H170 C145 0.931 . S
H171 C147 0.930 . S
H172 C149 0.930 . S
H173 C150 0.931 . S
H174 C152 0.931 . S
H175 C154 0.930 . S
H176 C156 0.930 . S
H177 C157 0.931 . S
H178 C159 0.931 . S
H179 C161 0.930 . S
H180 C163 0.930 . S
H181 C164 0.931 . S
N182 C144 1.343 1_545 S
N182 C165 1.343 . S
N183 C151 1.364 . S
N183 C158 1.318 1_565 S
C184 C185 1.384 . S
C184 C186 1.384 . S
C184 H212 0.931 . S
C185 C184 1.384 . S
C185 C188 1.382 . S
C186 C184 1.384 . S
C186 C187 1.381 . S
C186 H213 0.930 . S
C187 C186 1.381 . S
C187 C189 1.381 . S
C187 C190 1.487 . S
C188 C185 1.382 . S
C188 C189 1.387 . S
C188 H214 0.930 . S
C189 C187 1.381 . S
C189 C188 1.387 . S
C189 H215 0.931 . S
C190 C187 1.487 . S
C190 C197 1.399 . S
C190 N228 1.345 1_455 S
C191 C192 1.384 . S
C191 C193 1.384 . S
C191 H216 0.931 . S
C192 C191 1.384 . S
C192 C195 1.397 . S
C193 C191 1.384 . S
C193 C194 1.381 . S
C193 H217 0.930 . S
C194 C193 1.381 . S
C194 C196 1.381 . S
C194 C197 1.487 . S
C195 C192 1.397 . S
C195 C196 1.429 . S
C195 H218 0.876 1_556 S
C196 C194 1.381 . S
C196 C195 1.429 . S
C196 H219 0.931 . S
C197 C190 1.399 . S
C197 C194 1.487 . S
C197 N229 1.363 . S
C198 C199 1.384 . S
C198 C200 1.384 . S
C198 H220 0.931 . S
C199 C198 1.384 . S
C199 C202 1.382 . S
C200 C198 1.384 . S
C200 C201 1.381 . S
C200 H221 0.930 . S
C201 C200 1.381 . S
C201 C203 1.381 . S
C201 C204 1.487 . S
C202 C199 1.382 . S
C202 C203 1.387 . S
C202 H222 0.930 . S
C203 C201 1.381 . S
C203 C202 1.387 . S
C203 H223 0.931 . S
C204 C201 1.487 . S
C204 C211 1.399 . S
C204 N229 1.325 1_655 S
C205 C206 1.384 . S
C205 C207 1.384 . S
C205 H224 0.931 . S
C206 C205 1.384 . S
C206 C209 1.382 . S
C207 C205 1.384 . S
C207 C208 1.381 . S
C207 H225 0.930 . S
C208 C207 1.381 . S
C208 C210 1.381 . S
C208 C211 1.487 . S
C209 C206 1.382 . S
C209 C210 1.387 . S
C209 H226 0.930 . S
C210 C208 1.381 . S
C210 C209 1.387 . S
C210 H227 0.931 . S
C211 C204 1.399 . S
C211 C208 1.487 . S
C211 N228 1.341 . S
H212 C184 0.931 . S
H213 C186 0.930 . S
H214 C188 0.930 . S
H215 C189 0.931 . S
H216 C191 0.931 . S
H217 C193 0.930 . S
H218 C195 0.876 1_554 S
H219 C196 0.931 . S
H220 C198 0.931 . S
H221 C200 0.930 . S
H222 C202 0.930 . S
H223 C203 0.931 . S
H224 C205 0.931 . S
H225 C207 0.930 . S
H226 C209 0.930 . S
H227 C210 0.931 . S
N228 C190 1.345 1_655 S
N228 C211 1.341 . S
N229 C197 1.363 . S
N229 C204 1.325 1_455 S
C230 C231 1.384 . S
C230 C232 1.384 . S
C230 H258 0.931 . S
C231 C230 1.384 . S
C231 C234 1.382 . S
C232 C230 1.384 . S
C232 C233 1.381 . S
C232 H259 0.930 . S
C233 C232 1.381 . S
C233 C235 1.381 . S
C233 C236 1.487 . S
C234 C231 1.382 . S
C234 C235 1.387 . S
C234 H260 0.930 . S
C235 C233 1.381 . S
C235 C234 1.387 . S
C235 H261 0.931 . S
C236 C233 1.487 . S
C236 C243 1.399 . S
C236 N274 1.343 . S
C237 C238 1.384 . S
C237 C239 1.384 . S
C237 H262 0.931 . S
C238 C237 1.384 . S
C238 C241 1.382 . S
C239 C237 1.384 . S
C239 C240 1.381 . S
C239 H263 0.930 . S
C240 C239 1.381 . S
C240 C242 1.381 . S
C240 C243 1.487 . S
C241 C238 1.382 . S
C241 C242 1.387 . S
C241 H264 0.930 . S
C242 C240 1.381 . S
C242 C241 1.387 . S
C242 H265 0.931 . S
C243 C236 1.399 . S
C243 C240 1.487 . S
C243 N275 1.343 . S
C244 C245 1.384 . S
C244 C246 1.384 . S
C244 H266 0.931 . S
C245 C244 1.384 . S
C245 C248 1.382 . S
C246 C244 1.384 . S
C246 C247 1.381 . S
C246 H267 0.930 . S
C247 C246 1.381 . S
C247 C249 1.381 . S
C247 C250 1.487 . S
C248 C245 1.382 . S
C248 C249 1.387 . S
C248 H268 0.930 . S
C249 C247 1.381 . S
C249 C248 1.387 . S
C249 H269 0.931 . S
C250 C247 1.487 . S
C250 C257 1.399 . S
C250 N275 1.343 . S
C251 C252 1.384 . S
C251 C253 1.384 . S
C251 H270 0.931 . S
C252 C251 1.384 . S
C252 C255 1.382 . S
C253 C251 1.384 . S
C253 C254 1.381 . S
C253 H271 0.930 . S
C254 C253 1.381 . S
C254 C256 1.381 . S
C254 C257 1.487 . S
C255 C252 1.382 . S
C255 C256 1.387 . S
C255 H272 0.930 . S
C256 C254 1.381 . S
C256 C255 1.387 . S
C256 H273 0.931 . S
C257 C250 1.399 . S
C257 C254 1.487 . S
C257 N274 1.343 . S
H258 C230 0.931 . S
H259 C232 0.930 . S
H260 C234 0.930 . S
H261 C235 0.931 . S
H262 C237 0.931 . S
H263 C239 0.930 . S
H264 C241 0.930 . S
H265 C242 0.931 . S
H266 C244 0.931 . S
H267 C246 0.930 . S
H268 C248 0.930 . S
H269 C249 0.931 . S
H270 C251 0.931 . S
H271 C253 0.930 . S
H272 C255 0.930 . S
H273 C256 0.931 . S
N274 C236 1.343 . S
N274 C257 1.343 . S
N275 C243 1.343 . S
N275 C250 1.343 . S
C276 C277 1.384 . S
C276 C278 1.384 . S
C276 H304 0.931 . S
C277 C276 1.384 . S
C277 C280 1.382 . S
C278 C276 1.384 . S
C278 C279 1.381 . S
C278 H305 0.930 . S
C279 C278 1.381 . S
C279 C281 1.384 . S
C279 C282 1.487 1_565 S
C280 C277 1.382 . S
C280 C281 1.392 . S
C280 H306 0.930 . S
C281 C279 1.384 . S
C281 C280 1.392 . S
C281 H307 0.923 1_565 S
C282 C279 1.487 1_545 S
C282 C289 1.399 . S
C282 N320 1.343 . S
C283 C284 1.384 . S
C283 C285 1.384 1_565 S
C283 H308 0.931 . S
C284 C283 1.384 . S
C284 C287 1.382 . S
C285 C283 1.384 1_545 S
C285 C286 1.381 . S
C285 H309 0.930 . S
C286 C285 1.381 . S
C286 C288 1.381 1_545 S
C286 C289 1.487 . S
C287 C284 1.382 . S
C287 C288 1.387 . S
C287 H310 0.930 . S
C288 C286 1.381 1_565 S
C288 C287 1.387 . S
C288 H311 0.931 . S
C289 C282 1.399 . S
C289 C286 1.487 . S
C289 N321 1.343 . S
C290 C291 1.384 . S
C290 C292 1.384 . S
C290 H312 0.931 . S
C291 C290 1.384 . S
C291 C294 1.382 . S
C292 C290 1.384 . S
C292 C293 1.381 . S
C292 H313 0.930 . S
C293 C292 1.381 . S
C293 C295 1.381 . S
C293 C296 1.487 . S
C294 C291 1.382 . S
C294 C295 1.387 . S
C294 H314 0.930 . S
C295 C293 1.381 . S
C295 C294 1.387 . S
C295 H315 0.931 . S
C296 C293 1.487 . S
C296 C303 1.399 . S
C296 N321 1.343 . S
C297 C298 1.384 . S
C297 C299 1.384 . S
C297 H316 0.931 . S
C298 C297 1.384 . S
C298 C301 1.382 . S
C299 C297 1.384 . S
C299 C300 1.381 . S
C299 H317 0.930 . S
C300 C299 1.381 . S
C300 C302 1.381 . S
C300 C303 1.487 . S
C301 C298 1.382 . S
C301 C302 1.387 . S
C301 H318 0.930 . S
C302 C300 1.381 . S
C302 C301 1.387 . S
C302 H319 0.931 . S
C303 C296 1.399 . S
C303 C300 1.487 . S
C303 N320 1.343 . S
H304 C276 0.931 . S
H305 C278 0.930 . S
H306 C280 0.930 . S
H307 C281 0.923 1_545 S
H308 C283 0.931 . S
H309 C285 0.930 . S
H310 C287 0.930 . S
H311 C288 0.931 . S
H312 C290 0.931 . S
H313 C292 0.930 . S
H314 C294 0.930 . S
H315 C295 0.931 . S
H316 C297 0.931 . S
H317 C299 0.930 . S
H318 C301 0.930 . S
H319 C302 0.931 . S
N320 C282 1.343 . S
N320 C303 1.343 . S
N321 C289 1.343 . S
N321 C296 1.343 . S
C322 C323 1.384 . S
C322 C324 1.384 . S
C322 H350 0.931 . S
C323 C322 1.384 . S
C323 C326 1.382 . S
C324 C322 1.384 . S
C324 C325 1.381 . S
C324 H351 0.930 . S
C325 C324 1.381 . S
C325 C327 1.381 . S
C325 C328 1.487 . S
C326 C323 1.382 . S
C326 C327 1.387 . S
C326 H352 0.930 . S
C327 C325 1.381 . S
C327 C326 1.387 . S
C327 H353 0.931 . S
C328 C325 1.487 . S
C328 C335 1.399 . S
C328 N366 1.343 . S
C329 C330 1.384 . S
C329 C331 1.384 . S
C329 H354 0.931 . S
C330 C329 1.384 . S
C330 C333 1.382 . S
C331 C329 1.384 . S
C331 C332 1.381 . S
C331 H355 0.930 . S
C332 C331 1.381 . S
C332 C334 1.381 . S
C332 C335 1.487 . S
C333 C330 1.382 . S
C333 C334 1.387 . S
C333 H356 0.930 . S
C334 C332 1.381 . S
C334 C333 1.387 . S
C334 H357 0.931 . S
C335 C328 1.399 . S
C335 C332 1.487 . S
C335 N367 1.343 . S
C336 C337 1.384 . S
C336 C338 1.384 . S
C336 H358 0.951 . S
C337 C336 1.384 . S
C337 C340 1.382 . S
C338 C336 1.384 . S
C338 C339 1.381 . S
C338 H359 0.930 . S
C339 C338 1.381 . S
C339 C341 1.381 . S
C339 C342 1.487 . S
C340 C337 1.382 . S
C340 C341 1.387 . S
C340 H360 0.930 . S
C341 C339 1.381 . S
C341 C340 1.387 . S
C341 H361 0.931 . S
C342 C339 1.487 . S
C342 C349 1.399 . S
C342 N367 1.343 . S
C343 C344 1.384 . S
C343 C345 1.384 . S
C343 H362 0.931 . S
C344 C343 1.384 . S
C344 C347 1.382 . S
C345 C343 1.384 . S
C345 C346 1.381 . S
C345 H363 0.930 . S
C346 C345 1.381 . S
C346 C348 1.381 . S
C346 C349 1.487 . S
C347 C344 1.382 . S
C347 C348 1.387 . S
C347 H364 0.930 . S
C348 C346 1.381 . S
C348 C347 1.387 . S
C348 H365 0.931 . S
C349 C342 1.399 . S
C349 C346 1.487 . S
C349 N366 1.343 . S
H350 C322 0.931 . S
H351 C324 0.930 . S
H352 C326 0.930 . S
H353 C327 0.931 . S
H354 C329 0.931 . S
H355 C331 0.930 . S
H356 C333 0.930 . S
H357 C334 0.931 . S
H358 C336 0.951 . S
H359 C338 0.930 . S
H360 C340 0.930 . S
H361 C341 0.931 . S
H362 C343 0.931 . S
H363 C345 0.930 . S
H364 C347 0.930 . S
H365 C348 0.931 . S
N366 C328 1.343 . S
N366 C349 1.343 . S
N367 C335 1.343 . S
N367 C342 1.343 . S
O368 Cd369 2.223 . S
O368 C376 1.315 . S
Cd369 O368 2.223 . S
Cd369 O372 2.297 . S
Cd369 O373 2.439 . S
Cd369 O379 2.240 . S
Cd370 O371 2.240 . S
Cd370 O378 2.223 . S
Cd370 O380 2.297 . S
Cd370 O381 2.439 . S
O371 Cd370 2.240 . S
O371 C376 1.279 . S
O372 Cd369 2.297 . S
O372 C374 1.247 . S
O373 Cd369 2.439 . S
O373 C374 1.208 . S
C374 O372 1.247 . S
C374 O373 1.208 . S
C375 O380 1.247 . S
C375 O381 1.208 . S
C376 O368 1.315 . S
C376 O371 1.279 . S
C377 O378 1.315 . S
C377 O379 1.279 . S
O378 Cd370 2.223 . S
O378 C377 1.315 . S
O379 Cd369 2.240 . S
O379 C377 1.279 . S
O380 Cd370 2.297 . S
O380 C375 1.247 . S
O381 Cd370 2.439 . S
O381 C375 1.208 . S
O382 Cd383 2.223 . S
O382 C390 1.315 . S
Cd383 O382 2.223 . S
Cd383 O386 2.297 . S
Cd383 O387 2.439 . S
Cd383 O393 2.240 . S
Cd384 O385 2.240 . S
Cd384 O392 2.223 . S
Cd384 O394 2.297 . S
Cd384 O395 2.439 . S
O385 Cd384 2.240 . S
O385 C390 1.279 . S
O386 Cd383 2.297 . S
O386 C388 1.247 . S
O387 Cd383 2.439 . S
O387 C388 1.208 . S
C388 O386 1.247 . S
C388 O387 1.208 . S
C389 O394 1.247 . S
C389 O395 1.208 . S
C390 O382 1.315 . S
C390 O385 1.279 . S
C391 O392 1.315 . S
C391 O393 1.279 . S
O392 Cd384 2.223 . S
O392 C391 1.315 . S
O393 Cd383 2.240 . S
O393 C391 1.279 . S
O394 Cd384 2.297 . S
O394 C389 1.247 . S
O395 Cd384 2.439 . S
O395 C389 1.208 . S
O396 Cd397 2.223 . S
O396 C404 1.315 . S
Cd397 O396 2.223 . S
Cd397 O400 2.297 . S
Cd397 O401 2.439 . S
Cd397 O407 2.240 . S
Cd398 O399 2.240 . S
Cd398 O406 2.223 . S
Cd398 O408 2.297 . S
Cd398 O409 2.439 . S
O399 Cd398 2.240 . S
O399 C404 1.279 . S
O400 Cd397 2.297 . S
O400 C402 1.247 . S
O401 Cd397 2.439 . S
O401 C402 1.208 . S
C402 O400 1.247 . S
C402 O401 1.208 . S
C403 O408 1.247 . S
C403 O409 1.208 . S
C404 O396 1.315 . S
C404 O399 1.279 . S
C405 O406 1.315 . S
C405 O407 1.279 . S
O406 Cd398 2.223 . S
O406 C405 1.315 . S
O407 Cd397 2.240 . S
O407 C405 1.279 . S
O408 Cd398 2.297 . S
O408 C403 1.247 . S
O409 Cd398 2.439 . S
O409 C403 1.208 . S
O410 Cd411 2.223 . S
O410 C418 1.315 . S
Cd411 O410 2.223 . S
Cd411 O414 2.297 . S
Cd411 O415 2.439 . S
Cd411 O421 2.240 . S
Cd412 O413 2.240 . S
Cd412 O420 2.223 . S
Cd412 O422 2.297 . S
Cd412 O423 2.439 . S
O413 Cd412 2.240 . S
O413 C418 1.279 . S
O414 Cd411 2.297 . S
O414 C416 1.247 . S
O415 Cd411 2.439 . S
O415 C416 1.208 . S
C416 O414 1.247 . S
C416 O415 1.208 . S
C417 O422 1.247 . S
C417 O423 1.208 . S
C418 O410 1.315 . S
C418 O413 1.279 . S
C419 O420 1.315 . S
C419 O421 1.279 . S
O420 Cd412 2.223 . S
O420 C419 1.315 . S
O421 Cd411 2.240 . S
O421 C419 1.279 . S
O422 Cd412 2.297 . S
O422 C417 1.247 . S
O423 Cd412 2.439 . S
O423 C417 1.208 . S
O424 Cd425 2.223 . S
O424 C432 1.315 . S
Cd425 O424 2.223 . S
Cd425 O428 2.297 . S
Cd425 O429 2.439 . S
Cd425 O435 2.240 . S
Cd426 O427 2.240 . S
Cd426 O434 2.223 . S
Cd426 O436 2.297 . S
Cd426 O437 2.439 . S
O427 Cd426 2.240 . S
O427 C432 1.279 . S
O428 Cd425 2.297 . S
O428 C430 1.247 . S
O429 Cd425 2.439 . S
O429 C430 1.208 . S
C430 O428 1.247 . S
C430 O429 1.208 . S
C431 O436 1.247 . S
C431 O437 1.208 . S
C432 O424 1.315 . S
C432 O427 1.279 . S
C433 O434 1.315 . S
C433 O435 1.279 . S
O434 Cd426 2.223 . S
O434 C433 1.315 . S
O435 Cd425 2.240 . S
O435 C433 1.279 . S
O436 Cd426 2.297 . S
O436 C431 1.247 . S
O437 Cd426 2.439 . S
O437 C431 1.208 . S
O438 Cd439 2.223 . S
O438 C446 1.315 . S
Cd439 O438 2.223 . S
Cd439 O442 2.297 . S
Cd439 O443 2.439 . S
Cd439 O449 2.240 . S
Cd440 O441 2.240 . S
Cd440 O448 2.223 . S
Cd440 O450 2.297 . S
Cd440 O451 2.439 . S
O441 Cd440 2.240 . S
O441 C446 1.279 . S
O442 Cd439 2.297 . S
O442 C444 1.247 . S
O443 Cd439 2.439 . S
O443 C444 1.208 . S
C444 O442 1.247 . S
C444 O443 1.208 . S
C445 O450 1.247 . S
C445 O451 1.208 . S
C446 O438 1.315 . S
C446 O441 1.279 . S
C447 O448 1.315 . S
C447 O449 1.279 . S
O448 Cd440 2.223 . S
O448 C447 1.315 . S
O449 Cd439 2.240 . S
O449 C447 1.279 . S
O450 Cd440 2.297 . S
O450 C445 1.247 . S
O451 Cd440 2.439 . S
O451 C445 1.208 . S
O452 Cd453 2.223 . S
O452 C460 1.315 . S
Cd453 O452 2.223 . S
Cd453 O456 2.297 . S
Cd453 O457 2.439 . S
Cd453 O463 2.240 1_554 S
Cd454 O455 2.190 1_556 S
Cd454 O462 2.224 1_556 S
Cd454 O464 2.354 . S
Cd454 O465 2.481 . S
O455 Cd454 2.190 1_554 S
O455 C460 1.279 . S
O456 Cd453 2.297 . S
O456 C458 1.247 . S
O457 Cd453 2.439 . S
O457 C458 1.208 . S
C458 O456 1.247 . S
C458 O457 1.208 . S
C459 O464 1.247 . S
C459 O465 1.208 . S
C460 O452 1.315 . S
C460 O455 1.279 . S
C461 O462 1.315 1_556 S
C461 O463 1.279 . S
O462 Cd454 2.224 1_554 S
O462 C461 1.315 1_554 S
O463 Cd453 2.240 1_556 S
O463 C461 1.279 . S
O464 Cd454 2.354 . S
O464 C459 1.247 . S
O465 Cd454 2.481 . S
O465 C459 1.208 . S
O466 Cd467 2.223 . S
O466 C474 1.315 . S
Cd467 O466 2.223 . S
Cd467 O470 2.297 . S
Cd467 O471 2.439 . S
Cd467 O477 2.240 . S
Cd468 O469 2.240 . S
Cd468 O476 2.223 . S
Cd468 O478 2.297 . S
Cd468 O479 2.439 . S
O469 Cd468 2.240 . S
O469 C474 1.279 . S
O470 Cd467 2.297 . S
O470 C472 1.247 . S
O471 Cd467 2.439 . S
O471 C472 1.208 . S
C472 O470 1.247 . S
C472 O471 1.208 . S
C473 O478 1.247 . S
C473 O479 1.208 . S
C474 O466 1.315 . S
C474 O469 1.279 . S
C475 O476 1.315 . S
C475 O477 1.279 . S
O476 Cd468 2.223 . S
O476 C475 1.315 . S
O477 Cd467 2.240 . S
O477 C475 1.279 . S
O478 Cd468 2.297 . S
O478 C473 1.247 . S
O479 Cd468 2.439 . S
O479 C473 1.208 . S
C480 C481 1.391 . S
C480 C482 1.394 . S
C480 H496 0.931 . S
C481 C480 1.391 . S
C481 C485 1.376 . S
C482 C480 1.394 . S
C482 C483 1.369 . S
C482 C486 1.531 . S
C483 C482 1.369 . S
C483 C484 1.410 . S
C483 C491 1.503 . S
C484 C483 1.410 . S
C484 C485 1.392 . S
C484 C487 1.511 . S
C485 C481 1.376 . S
C485 C484 1.392 . S
C485 H497 0.929 . S
C486 C482 1.531 . S
C486 H498 0.960 . S
C486 H499 0.962 . S
C486 H500 0.960 . S
C487 C484 1.511 . S
C487 H501 0.961 . S
C487 H502 0.961 . S
C487 H503 0.961 . S
C488 C489 1.370 . S
C488 C490 1.363 . S
C488 H504 0.931 . S
C489 C488 1.370 . S
C489 C493 1.408 . S
C490 C488 1.363 . S
C490 C491 1.370 . S
C490 C494 1.524 . S
C491 C483 1.503 . S
C491 C490 1.370 . S
C491 C492 1.403 . S
C492 C491 1.403 . S
C492 C493 1.404 . S
C492 C495 1.539 . S
C493 C489 1.408 . S
C493 C492 1.404 . S
C493 H505 0.930 . S
C494 C490 1.524 . S
C494 H506 0.956 . S
C494 H507 0.961 . S
C494 H508 0.961 . S
C495 C492 1.539 . S
C495 H509 0.958 . S
C495 H510 0.961 . S
C495 H511 0.960 . S
H496 C480 0.931 . S
H497 C485 0.929 . S
H498 C486 0.960 . S
H499 C486 0.962 . S
H500 C486 0.960 . S
H501 C487 0.961 . S
H502 C487 0.961 . S
H503 C487 0.961 . S
H504 C488 0.931 . S
H505 C493 0.930 . S
H506 C494 0.956 . S
H507 C494 0.961 . S
H508 C494 0.961 . S
H509 C495 0.958 . S
H510 C495 0.961 . S
H511 C495 0.960 . S
C512 C513 1.391 . S
C512 C514 1.394 . S
C512 H528 0.931 . S
C513 C512 1.391 . S
C513 C517 1.376 . S
C514 C512 1.394 . S
C514 C515 1.369 . S
C514 C518 1.531 . S
C515 C514 1.369 . S
C515 C516 1.410 . S
C515 C523 1.503 . S
C516 C515 1.410 . S
C516 C517 1.392 . S
C516 C519 1.511 . S
C517 C513 1.376 . S
C517 C516 1.392 . S
C517 H529 0.929 . S
C518 C514 1.531 . S
C518 H530 0.960 . S
C518 H531 0.962 . S
C518 H532 0.960 . S
C519 C516 1.511 . S
C519 H533 0.961 . S
C519 H534 0.961 . S
C519 H535 0.961 . S
C520 C521 1.370 . S
C520 C522 1.363 . S
C520 H536 0.931 . S
C521 C520 1.370 . S
C521 C525 1.408 . S
C522 C520 1.363 . S
C522 C523 1.370 . S
C522 C526 1.524 . S
C523 C515 1.503 . S
C523 C522 1.370 . S
C523 C524 1.403 . S
C524 C523 1.403 . S
C524 C525 1.404 . S
C524 C527 1.539 . S
C525 C521 1.408 . S
C525 C524 1.404 . S
C525 H537 0.930 . S
C526 C522 1.524 . S
C526 H538 0.956 . S
C526 H539 0.961 . S
C526 H540 0.961 . S
C527 C524 1.539 . S
C527 H541 0.958 . S
C527 H542 0.961 . S
C527 H543 0.960 . S
H528 C512 0.931 . S
H529 C517 0.929 . S
H530 C518 0.960 . S
H531 C518 0.962 . S
H532 C518 0.960 . S
H533 C519 0.961 . S
H534 C519 0.961 . S
H535 C519 0.961 . S
H536 C520 0.931 . S
H537 C525 0.930 . S
H538 C526 0.956 . S
H539 C526 0.961 . S
H540 C526 0.961 . S
H541 C527 0.958 . S
H542 C527 0.961 . S
H543 C527 0.960 . S
C544 C545 1.391 . S
C544 C546 1.394 . S
C544 H560 0.931 . S
C545 C544 1.391 . S
C545 C549 1.376 . S
C546 C544 1.394 . S
C546 C547 1.369 . S
C546 C550 1.531 . S
C547 C546 1.369 . S
C547 C548 1.410 . S
C547 C555 1.503 . S
C548 C547 1.410 . S
C548 C549 1.392 . S
C548 C551 1.511 . S
C549 C545 1.376 . S
C549 C548 1.392 . S
C549 H561 0.929 . S
C550 C546 1.531 . S
C550 H562 0.960 . S
C550 H563 0.962 . S
C550 H564 0.960 . S
C551 C548 1.511 . S
C551 H565 0.961 . S
C551 H566 0.961 . S
C551 H567 0.961 . S
C552 C553 1.370 . S
C552 C554 1.363 . S
C552 H568 0.931 . S
C553 C552 1.370 . S
C553 C557 1.408 . S
C554 C552 1.363 . S
C554 C555 1.370 . S
C554 C558 1.524 . S
C555 C547 1.503 . S
C555 C554 1.370 . S
C555 C556 1.403 . S
C556 C555 1.403 . S
C556 C557 1.404 . S
C556 C559 1.539 . S
C557 C553 1.408 . S
C557 C556 1.404 . S
C557 H569 0.930 . S
C558 C554 1.524 . S
C558 H570 0.956 . S
C558 H571 0.961 . S
C558 H572 0.961 . S
C559 C556 1.539 . S
C559 H573 0.958 . S
C559 H574 0.961 . S
C559 H575 0.960 . S
H560 C544 0.931 . S
H561 C549 0.929 . S
H562 C550 0.960 . S
H563 C550 0.962 . S
H564 C550 0.960 . S
H565 C551 0.961 . S
H566 C551 0.961 . S
H567 C551 0.961 . S
H568 C552 0.931 . S
H569 C557 0.930 . S
H570 C558 0.956 . S
H571 C558 0.961 . S
H572 C558 0.961 . S
H573 C559 0.958 . S
H574 C559 0.961 . S
H575 C559 0.960 . S
C576 C577 1.391 . S
C576 C578 1.394 . S
C576 H592 0.931 . S
C577 C576 1.391 . S
C577 C581 1.376 . S
C578 C576 1.394 . S
C578 C579 1.369 . S
C578 C582 1.531 . S
C579 C578 1.369 . S
C579 C580 1.410 . S
C579 C587 1.503 . S
C580 C579 1.410 . S
C580 C581 1.392 . S
C580 C583 1.511 . S
C581 C577 1.376 . S
C581 C580 1.392 . S
C581 H593 0.929 . S
C582 C578 1.531 . S
C582 H594 0.960 . S
C582 H595 0.962 . S
C582 H596 0.960 . S
C583 C580 1.511 . S
C583 H597 0.961 . S
C583 H598 0.961 . S
C583 H599 0.961 . S
C584 C585 1.370 . S
C584 C586 1.363 . S
C584 H600 0.931 . S
C585 C584 1.370 . S
C585 C589 1.408 . S
C586 C584 1.363 . S
C586 C587 1.370 . S
C586 C590 1.524 . S
C587 C579 1.503 . S
C587 C586 1.370 . S
C587 C588 1.403 . S
C588 C587 1.403 . S
C588 C589 1.404 . S
C588 C591 1.539 . S
C589 C585 1.408 . S
C589 C588 1.404 . S
C589 H601 0.930 . S
C590 C586 1.524 . S
C590 H602 0.956 . S
C590 H603 0.961 . S
C590 H604 0.961 . S
C591 C588 1.539 . S
C591 H605 0.958 . S
C591 H606 0.961 . S
C591 H607 0.960 . S
H592 C576 0.931 . S
H593 C581 0.929 . S
H594 C582 0.960 . S
H595 C582 0.962 . S
H596 C582 0.960 . S
H597 C583 0.961 . S
H598 C583 0.961 . S
H599 C583 0.961 . S
H600 C584 0.931 . S
H601 C589 0.930 . S
H602 C590 0.956 . S
H603 C590 0.961 . S
H604 C590 0.961 . S
H605 C591 0.958 . S
H606 C591 0.961 . S
H607 C591 0.960 . S
C608 C609 1.391 1_556 S
C608 C610 1.394 . S
C608 H624 0.931 . S
C609 C608 1.391 1_554 S
C609 C613 1.376 . S
C610 C608 1.394 . S
C610 C611 1.369 1_556 S
C610 C614 1.531 . S
C611 C610 1.369 1_554 S
C611 C612 1.410 . S
C611 C619 1.503 . S
C612 C611 1.410 . S
C612 C613 1.392 . S
C612 C615 1.511 . S
C613 C609 1.376 . S
C613 C612 1.392 . S
C613 H625 0.929 . S
C614 C610 1.531 . S
C614 H626 0.960 . S
C614 H627 0.962 . S
C614 H628 0.960 . S
C615 C612 1.511 . S
C615 H629 0.961 . S
C615 H630 0.961 . S
C615 H631 0.961 . S
C616 C617 1.370 . S
C616 C618 1.363 . S
C616 H632 0.931 . S
C617 C616 1.370 . S
C617 C621 1.408 . S
C618 C616 1.363 . S
C618 C619 1.370 . S
C618 C622 1.524 . S
C619 C611 1.503 . S
C619 C618 1.370 . S
C619 C620 1.403 . S
C620 C619 1.403 . S
C620 C621 1.404 . S
C620 C623 1.539 . S
C621 C617 1.408 . S
C621 C620 1.404 . S
C621 H633 0.930 . S
C622 C618 1.524 . S
C622 H634 0.956 . S
C622 H635 0.961 . S
C622 H636 0.961 . S
C623 C620 1.539 . S
C623 H637 0.958 . S
C623 H638 0.961 . S
C623 H639 0.960 . S
H624 C608 0.931 . S
H625 C613 0.929 . S
H626 C614 0.960 . S
H627 C614 0.962 . S
H628 C614 0.960 . S
H629 C615 0.961 . S
H630 C615 0.961 . S
H631 C615 0.961 . S
H632 C616 0.931 . S
H633 C621 0.930 . S
H634 C622 0.956 . S
H635 C622 0.961 . S
H636 C622 0.961 . S
H637 C623 0.958 . S
H638 C623 0.961 . S
H639 C623 0.960 . S
C640 C641 1.391 . S
C640 C642 1.394 . S
C640 H656 0.931 . S
C641 C640 1.391 . S
C641 C645 1.376 . S
C642 C640 1.394 . S
C642 C643 1.369 . S
C642 C646 1.531 . S
C643 C642 1.369 . S
C643 C644 1.410 . S
C643 C651 1.503 . S
C644 C643 1.410 . S
C644 C645 1.392 . S
C644 C647 1.511 . S
C645 C641 1.376 . S
C645 C644 1.392 . S
C645 H657 0.929 . S
C646 C642 1.531 . S
C646 H658 0.960 . S
C646 H659 0.962 . S
C646 H660 0.960 . S
C647 C644 1.511 . S
C647 H661 0.961 . S
C647 H662 0.961 . S
C647 H663 0.961 . S
C648 C649 1.370 . S
C648 C650 1.363 . S
C648 H664 0.931 . S
C649 C648 1.370 . S
C649 C653 1.408 . S
C650 C648 1.363 . S
C650 C651 1.370 . S
C650 C654 1.524 . S
C651 C643 1.503 . S
C651 C650 1.370 . S
C651 C652 1.403 . S
C652 C651 1.403 . S
C652 C653 1.404 . S
C652 C655 1.539 . S
C653 C649 1.408 . S
C653 C652 1.404 . S
C653 H665 0.930 . S
C654 C650 1.524 . S
C654 H666 0.956 . S
C654 H667 0.961 . S
C654 H668 0.961 . S
C655 C652 1.539 . S
C655 H669 0.958 . S
C655 H670 0.961 . S
C655 H671 0.960 . S
H656 C640 0.931 . S
H657 C645 0.929 . S
H658 C646 0.960 . S
H659 C646 0.962 . S
H660 C646 0.960 . S
H661 C647 0.961 . S
H662 C647 0.961 . S
H663 C647 0.961 . S
H664 C648 0.931 . S
H665 C653 0.930 . S
H666 C654 0.956 . S
H667 C654 0.961 . S
H668 C654 0.961 . S
H669 C655 0.958 . S
H670 C655 0.961 . S
H671 C655 0.960 . S
C672 C673 1.391 . S
C672 C674 1.394 . S
C672 H688 0.931 . S
C673 C672 1.391 . S
C673 C677 1.376 . S
C674 C672 1.394 . S
C674 C675 1.369 . S
C674 C678 1.531 . S
C675 C674 1.369 . S
C675 C676 1.410 . S
C675 C683 1.503 . S
C676 C675 1.410 . S
C676 C677 1.392 . S
C676 C679 1.511 . S
C677 C673 1.376 . S
C677 C676 1.392 . S
C677 H689 0.929 . S
C678 C674 1.531 . S
C678 H690 0.960 . S
C678 H691 0.962 1_565 S
C678 H692 0.960 . S
C679 C676 1.511 . S
C679 H693 0.961 . S
C679 H694 0.961 . S
C679 H695 0.961 . S
C680 C681 1.370 . S
C680 C682 1.363 . S
C680 H696 0.931 . S
C681 C680 1.370 . S
C681 C685 1.408 . S
C682 C680 1.363 . S
C682 C683 1.370 . S
C682 C686 1.524 . S
C683 C675 1.503 . S
C683 C682 1.370 . S
C683 C684 1.403 . S
C684 C683 1.403 . S
C684 C685 1.404 . S
C684 C687 1.539 . S
C685 C681 1.408 . S
C685 C684 1.404 . S
C685 H697 0.930 . S
C686 C682 1.524 . S
C686 H698 0.956 1_565 S
C686 H699 0.961 . S
C686 H700 0.953 1_565 S
C687 C684 1.539 . S
C687 H701 0.958 . S
C687 H702 0.961 . S
C687 H703 0.960 . S
H688 C672 0.931 . S
H689 C677 0.929 . S
H690 C678 0.960 . S
H691 C678 0.962 1_545 S
H692 C678 0.960 . S
H693 C679 0.961 . S
H694 C679 0.961 . S
H695 C679 0.961 . S
H696 C680 0.931 . S
H697 C685 0.930 . S
H698 C686 0.956 1_545 S
H699 C686 0.961 . S
H700 C686 0.953 1_545 S
H701 C687 0.958 . S
H702 C687 0.961 . S
H703 C687 0.960 . S
C704 C705 1.391 . S
C704 C706 1.394 . S
C704 H720 0.931 . S
C705 C704 1.391 . S
C705 C709 1.376 . S
C706 C704 1.394 . S
C706 C707 1.369 . S
C706 C710 1.531 1_545 S
C707 C706 1.369 . S
C707 C708 1.410 . S
C707 C715 1.503 1_545 S
C708 C707 1.410 . S
C708 C709 1.392 . S
C708 C711 1.511 . S
C709 C705 1.376 . S
C709 C708 1.392 . S
C709 H721 0.929 . S
C710 C706 1.531 1_565 S
C710 H722 0.960 . S
C710 H723 0.962 . S
C710 H724 0.960 . S
C711 C708 1.511 . S
C711 H725 0.961 . S
C711 H726 0.961 . S
C711 H727 0.961 . S
C712 C713 1.370 . S
C712 C714 1.363 . S
C712 H728 0.931 . S
C713 C712 1.370 . S
C713 C717 1.408 . S
C714 C712 1.363 . S
C714 C715 1.370 . S
C714 C718 1.524 . S
C715 C707 1.503 1_565 S
C715 C714 1.370 . S
C715 C716 1.403 . S
C716 C715 1.403 . S
C716 C717 1.404 . S
C716 C719 1.539 . S
C717 C713 1.408 . S
C717 C716 1.404 . S
C717 H729 0.930 . S
C718 C714 1.524 . S
C718 H730 0.956 . S
C718 H731 0.961 1_565 S
C718 H732 0.961 . S
C719 C716 1.539 . S
C719 H733 0.958 . S
C719 H734 0.961 . S
C719 H735 0.960 1_565 S
H720 C704 0.931 . S
H721 C709 0.929 . S
H722 C710 0.960 . S
H723 C710 0.962 . S
H724 C710 0.960 . S
H725 C711 0.961 . S
H726 C711 0.961 . S
H727 C711 0.961 . S
H728 C712 0.931 . S
H729 C717 0.930 . S
H730 C718 0.956 . S
H731 C718 0.961 1_545 S
H732 C718 0.961 . S
H733 C719 0.958 . S
H734 C719 0.961 . S
H735 C719 0.960 1_545 S
C736 C737 1.391 . S
C736 C738 1.394 . S
C736 H752 0.931 . S
C737 C736 1.391 . S
C737 C741 1.376 . S
C738 C736 1.394 . S
C738 C739 1.369 . S
C738 C742 1.531 . S
C739 C738 1.369 . S
C739 C740 1.410 . S
C739 C747 1.503 . S
C740 C739 1.410 . S
C740 C741 1.392 . S
C740 C743 1.511 . S
C741 C737 1.376 . S
C741 C740 1.392 . S
C741 H753 0.929 . S
C742 C738 1.531 . S
C742 H754 0.960 . S
C742 H755 0.962 . S
C742 H756 0.960 . S
C743 C740 1.511 . S
C743 H757 0.961 . S
C743 H758 0.961 . S
C743 H759 0.961 . S
C744 C745 1.370 . S
C744 C746 1.363 . S
C744 H760 0.931 . S
C745 C744 1.370 . S
C745 C749 1.408 . S
C746 C744 1.363 . S
C746 C747 1.370 . S
C746 C750 1.524 . S
C747 C739 1.503 . S
C747 C746 1.370 . S
C747 C748 1.403 . S
C748 C747 1.403 . S
C748 C749 1.404 . S
C748 C751 1.539 . S
C749 C745 1.408 . S
C749 C748 1.404 . S
C749 H761 0.930 . S
C750 C746 1.524 . S
C750 H762 0.956 . S
C750 H763 0.961 . S
C750 H764 0.961 . S
C751 C748 1.539 . S
C751 H765 0.958 . S
C751 H766 0.961 . S
C751 H767 0.960 . S
H752 C736 0.931 . S
H753 C741 0.929 . S
H754 C742 0.960 . S
H755 C742 0.962 . S
H756 C742 0.960 . S
H757 C743 0.961 . S
H758 C743 0.961 . S
H759 C743 0.961 . S
H760 C744 0.931 . S
H761 C749 0.930 . S
H762 C750 0.956 . S
H763 C750 0.961 . S
H764 C750 0.961 . S
H765 C751 0.958 . S
H766 C751 0.961 . S
H767 C751 0.960 . S
C768 C769 1.391 . S
C768 C770 1.394 . S
C768 H784 0.931 . S
C769 C768 1.391 . S
C769 C773 1.376 . S
C770 C768 1.394 . S
C770 C771 1.369 . S
C770 C774 1.531 . S
C771 C770 1.369 . S
C771 C772 1.410 . S
C771 C779 1.503 . S
C772 C771 1.410 . S
C772 C773 1.392 . S
C772 C775 1.511 . S
C773 C769 1.376 . S
C773 C772 1.392 . S
C773 H785 0.929 . S
C774 C770 1.531 . S
C774 H786 0.960 . S
C774 H787 0.962 . S
C774 H788 0.960 . S
C775 C772 1.511 . S
C775 H789 0.961 . S
C775 H790 0.961 . S
C775 H791 0.961 . S
C776 C777 1.370 . S
C776 C778 1.363 . S
C776 H792 0.931 . S
C777 C776 1.370 . S
C777 C781 1.408 . S
C778 C776 1.363 . S
C778 C779 1.370 . S
C778 C782 1.524 . S
C779 C771 1.503 . S
C779 C778 1.370 . S
C779 C780 1.403 . S
C780 C779 1.403 . S
C780 C781 1.404 . S
C780 C783 1.539 . S
C781 C777 1.408 . S
C781 C780 1.404 . S
C781 H793 0.930 . S
C782 C778 1.524 . S
C782 H794 0.956 . S
C782 H795 0.961 . S
C782 H796 0.961 . S
C783 C780 1.539 . S
C783 H797 0.958 . S
C783 H798 0.961 . S
C783 H799 0.960 . S
H784 C768 0.931 . S
H785 C773 0.929 . S
H786 C774 0.960 . S
H787 C774 0.962 . S
H788 C774 0.960 . S
H789 C775 0.961 . S
H790 C775 0.961 . S
H791 C775 0.961 . S
H792 C776 0.931 . S
H793 C781 0.930 . S
H794 C782 0.956 . S
H795 C782 0.961 . S
H796 C782 0.961 . S
H797 C783 0.958 . S
H798 C783 0.961 . S
H799 C783 0.960 . S
C800 C801 1.391 . S
C800 C802 1.394 1_455 S
C800 H816 0.931 . S
C801 C800 1.391 . S
C801 C805 1.376 . S
C802 C800 1.394 1_655 S
C802 C803 1.369 . S
C802 C806 1.531 . S
C803 C802 1.369 . S
C803 C804 1.410 . S
C803 C811 1.503 . S
C804 C803 1.410 . S
C804 C805 1.392 1_655 S
C804 C807 1.511 . S
C805 C801 1.376 . S
C805 C804 1.392 1_455 S
C805 H817 0.929 . S
C806 C802 1.531 . S
C806 H818 0.960 . S
C806 H819 0.962 . S
C806 H820 0.960 . S
C807 C804 1.511 . S
C807 H821 0.961 . S
C807 H822 0.961 . S
C807 H823 0.961 . S
C808 C809 1.370 . S
C808 C810 1.363 . S
C808 H824 0.931 . S
C809 C808 1.370 . S
C809 C813 1.408 . S
C810 C808 1.363 . S
C810 C811 1.370 . S
C810 C814 1.524 . S
C811 C803 1.503 . S
C811 C810 1.370 . S
C811 C812 1.403 . S
C812 C811 1.403 . S
C812 C813 1.404 . S
C812 C815 1.539 . S
C813 C809 1.408 . S
C813 C812 1.404 . S
C813 H825 0.930 . S
C814 C810 1.524 . S
C814 H826 0.956 . S
C814 H827 0.961 . S
C814 H828 0.961 . S
C815 C812 1.539 . S
C815 H829 0.958 . S
C815 H830 0.961 . S
C815 H831 0.960 . S
H816 C800 0.931 . S
H817 C805 0.929 . S
H818 C806 0.960 . S
H819 C806 0.962 . S
H820 C806 0.960 . S
H821 C807 0.961 . S
H822 C807 0.961 . S
H823 C807 0.961 . S
H824 C808 0.931 . S
H825 C813 0.930 . S
H826 C814 0.956 . S
H827 C814 0.961 . S
H828 C814 0.961 . S
H829 C815 0.958 . S
H830 C815 0.961 . S
H831 C815 0.960 . S
C832 C833 1.391 1_455 S
C832 C834 1.394 1_455 S
C832 H848 0.931 . S
C833 C832 1.391 1_655 S
C833 C837 1.376 . S
C834 C832 1.394 1_655 S
C834 C835 1.369 . S
C834 C838 1.531 1_655 S
C835 C834 1.369 . S
C835 C836 1.410 . S
C835 C843 1.503 . S
C836 C835 1.410 . S
C836 C837 1.392 . S
C836 C839 1.511 . S
C837 C833 1.376 . S
C837 C836 1.392 . S
C837 H849 0.929 . S
C838 C834 1.531 1_455 S
C838 H850 0.960 . S
C838 H851 0.962 . S
C838 H852 0.960 . S
C839 C836 1.511 . S
C839 H853 0.961 . S
C839 H854 0.961 . S
C839 H855 0.961 . S
C840 C841 1.370 . S
C840 C842 1.363 . S
C840 H856 0.931 . S
C841 C840 1.370 . S
C841 C845 1.408 . S
C842 C840 1.363 . S
C842 C843 1.370 . S
C842 C846 1.524 . S
C843 C835 1.503 . S
C843 C842 1.370 . S
C843 C844 1.403 . S
C844 C843 1.403 . S
C844 C845 1.404 . S
C844 C847 1.539 . S
C845 C841 1.408 . S
C845 C844 1.404 . S
C845 H857 0.930 . S
C846 C842 1.524 . S
C846 H858 0.972 . S
C846 H859 0.961 . S
C846 H860 0.961 . S
C847 C844 1.539 . S
C847 H861 0.958 . S
C847 H862 0.961 . S
C847 H863 0.960 . S
H848 C832 0.931 . S
H849 C837 0.929 . S
H850 C838 0.960 . S
H851 C838 0.962 . S
H852 C838 0.960 . S
H853 C839 0.961 . S
H854 C839 0.961 . S
H855 C839 0.961 . S
H856 C840 0.931 . S
H857 C845 0.930 . S
H858 C846 0.972 . S
H859 C846 0.961 . S
H860 C846 0.961 . S
H861 C847 0.958 . S
H862 C847 0.961 . S
H863 C847 0.960 . S
C864 C865 1.391 . S
C864 C866 1.394 . S
C864 H880 0.931 . S
C865 C864 1.391 . S
C865 C869 1.376 . S
C866 C864 1.394 . S
C866 C867 1.369 . S
C866 C870 1.531 . S
C867 C866 1.369 . S
C867 C868 1.410 . S
C867 C875 1.503 . S
C868 C867 1.410 . S
C868 C869 1.392 . S
C868 C871 1.511 . S
C869 C865 1.376 . S
C869 C868 1.392 . S
C869 H881 0.929 . S
C870 C866 1.531 . S
C870 H882 0.960 . S
C870 H883 0.962 . S
C870 H884 0.960 . S
C871 C868 1.511 . S
C871 H885 0.961 . S
C871 H886 0.961 . S
C871 H887 0.961 . S
C872 C873 1.370 . S
C872 C874 1.363 . S
C872 H888 0.931 . S
C873 C872 1.370 . S
C873 C877 1.408 . S
C874 C872 1.363 . S
C874 C875 1.370 . S
C874 C878 1.524 . S
C875 C867 1.503 . S
C875 C874 1.370 . S
C875 C876 1.403 . S
C876 C875 1.403 . S
C876 C877 1.404 . S
C876 C879 1.539 . S
C877 C873 1.408 . S
C877 C876 1.404 . S
C877 H889 0.930 . S
C878 C874 1.524 . S
C878 H890 0.956 . S
C878 H891 0.961 . S
C878 H892 0.961 . S
C879 C876 1.539 . S
C879 H893 0.958 . S
C879 H894 0.961 . S
C879 H895 0.960 . S
H880 C864 0.931 . S
H881 C869 0.929 . S
H882 C870 0.960 . S
H883 C870 0.962 . S
H884 C870 0.960 . S
H885 C871 0.961 . S
H886 C871 0.961 . S
H887 C871 0.961 . S
H888 C872 0.931 . S
H889 C877 0.930 . S
H890 C878 0.956 . S
H891 C878 0.961 . S
H892 C878 0.961 . S
H893 C879 0.958 . S
H894 C879 0.961 . S
H895 C879 0.960 . S
C896 C897 1.391 1_655 S
C896 C898 1.394 . S
C896 H912 0.931 1_655 S
C897 C896 1.391 1_455 S
C897 C901 1.376 1_455 S
C898 C896 1.394 . S
C898 C899 1.369 . S
C898 C902 1.531 . S
C899 C898 1.369 . S
C899 C900 1.410 . S
C899 C907 1.503 . S
C900 C899 1.410 . S
C900 C901 1.392 . S
C900 C903 1.511 . S
C901 C897 1.376 1_655 S
C901 C900 1.392 . S
C901 H913 0.929 . S
C902 C898 1.531 . S
C902 H914 0.960 . S
C902 H915 0.962 . S
C902 H916 0.960 . S
C903 C900 1.511 . S
C903 H917 0.961 . S
C903 H918 0.961 . S
C903 H919 0.961 . S
C904 C905 1.370 . S
C904 C906 1.363 . S
C904 H920 0.931 . S
C905 C904 1.370 . S
C905 C909 1.408 . S
C906 C904 1.363 . S
C906 C907 1.370 . S
C906 C910 1.524 . S
C907 C899 1.503 . S
C907 C906 1.370 . S
C907 C908 1.403 . S
C908 C907 1.403 . S
C908 C909 1.404 . S
C908 C911 1.539 . S
C909 C905 1.408 . S
C909 C908 1.404 . S
C909 H921 0.930 . S
C910 C906 1.524 . S
C910 H922 0.956 . S
C910 H923 0.961 . S
C910 H924 0.961 . S
C911 C908 1.539 . S
C911 H925 0.958 . S
C911 H926 0.961 . S
C911 H927 0.960 . S
H912 C896 0.931 1_455 S
H913 C901 0.929 . S
H914 C902 0.960 . S
H915 C902 0.962 . S
H916 C902 0.960 . S
H917 C903 0.961 . S
H918 C903 0.961 . S
H919 C903 0.961 . S
H920 C904 0.931 . S
H921 C909 0.930 . S
H922 C910 0.956 . S
H923 C910 0.961 . S
H924 C910 0.961 . S
H925 C911 0.958 . S
H926 C911 0.961 . S
H927 C911 0.960 . S
C928 C929 1.391 . S
C928 C930 1.394 . S
C928 H944 0.931 . S
C929 C928 1.391 . S
C929 C933 1.376 . S
C930 C928 1.394 . S
C930 C931 1.369 . S
C930 C934 1.538 . S
C931 C930 1.369 . S
C931 C932 1.410 . S
C931 C939 1.503 . S
C932 C931 1.410 . S
C932 C933 1.392 . S
C932 C935 1.511 . S
C933 C929 1.376 . S
C933 C932 1.392 . S
C933 H945 0.929 . S
C934 C930 1.538 . S
C934 H946 0.942 1_556 S
C934 H947 0.983 . S
C934 H948 0.950 1_556 S
C935 C932 1.511 . S
C935 H949 0.961 . S
C935 H950 0.961 . S
C935 H951 0.961 1_556 S
C936 C937 1.370 . S
C936 C938 1.363 . S
C936 H952 0.931 . S
C937 C936 1.370 . S
C937 C941 1.408 1_556 S
C938 C936 1.363 . S
C938 C939 1.370 . S
C938 C942 1.524 . S
C939 C931 1.503 . S
C939 C938 1.370 . S
C939 C940 1.403 1_556 S
C940 C939 1.403 1_554 S
C940 C941 1.404 . S
C940 C943 1.539 . S
C941 C937 1.408 1_554 S
C941 C940 1.404 . S
C941 H953 0.930 . S
C942 C938 1.524 . S
C942 H954 0.956 . S
C942 H955 0.961 . S
C942 H956 0.961 . S
C943 C940 1.539 . S
C943 H957 0.958 . S
C943 H958 0.961 . S
C943 H959 0.960 . S
H944 C928 0.931 . S
H945 C933 0.929 . S
H946 C934 0.942 1_554 S
H947 C934 0.983 . S
H948 C934 0.950 1_554 S
H949 C935 0.961 . S
H950 C935 0.961 . S
H951 C935 0.961 1_554 S
H952 C936 0.931 . S
H953 C941 0.930 . S
H954 C942 0.956 . S
H955 C942 0.961 . S
H956 C942 0.961 . S
H957 C943 0.958 . S
H958 C943 0.961 . S
H959 C943 0.960 . S
C960 C961 1.391 . S
C960 C962 1.394 . S
C960 H976 0.931 . S
C961 C960 1.391 . S
C961 C965 1.376 . S
C962 C960 1.394 . S
C962 C963 1.369 . S
C962 C966 1.531 . S
C963 C962 1.369 . S
C963 C964 1.410 . S
C963 C971 1.503 . S
C964 C963 1.410 . S
C964 C965 1.392 . S
C964 C967 1.511 . S
C965 C961 1.376 . S
C965 C964 1.392 . S
C965 H977 0.929 . S
C966 C962 1.531 . S
C966 H978 0.960 . S
C966 H979 0.962 . S
C966 H980 0.960 . S
C967 C964 1.511 . S
C967 H981 0.961 . S
C967 H982 0.961 . S
C967 H983 0.961 . S
C968 C969 1.370 . S
C968 C970 1.363 . S
C968 H984 0.931 . S
C969 C968 1.370 . S
C969 C973 1.408 . S
C970 C968 1.363 . S
C970 C971 1.370 . S
C970 C974 1.524 . S
C971 C963 1.503 . S
C971 C970 1.370 . S
C971 C972 1.403 . S
C972 C971 1.403 . S
C972 C973 1.404 . S
C972 C975 1.539 . S
C973 C969 1.408 . S
C973 C972 1.404 . S
C973 H985 0.930 . S
C974 C970 1.524 . S
C974 H986 0.956 . S
C974 H987 0.961 . S
C974 H988 0.961 . S
C975 C972 1.539 . S
C975 H989 0.958 . S
C975 H990 0.961 . S
C975 H991 0.960 . S
H976 C960 0.931 . S
H977 C965 0.929 . S
H978 C966 0.960 . S
H979 C966 0.962 . S
H980 C966 0.960 . S
H981 C967 0.961 . S
H982 C967 0.961 . S
H983 C967 0.961 . S
H984 C968 0.931 . S
H985 C973 0.930 . S
H986 C974 0.956 . S
H987 C974 0.961 . S
H988 C974 0.961 . S
H989 C975 0.958 . S
H990 C975 0.961 . S
H991 C975 0.960 . S
C992 C993 1.391 . S
C992 C994 1.394 . S
C992 H1008 0.931 . S
C993 C992 1.391 . S
C993 C997 1.376 . S
C994 C992 1.394 . S
C994 C995 1.369 . S
C994 C998 1.531 . S
C995 C994 1.369 . S
C995 C996 1.410 . S
C995 C1003 1.503 . S
C996 C995 1.410 . S
C996 C997 1.392 . S
C996 C999 1.511 . S
C997 C993 1.376 . S
C997 C996 1.392 . S
C997 H1009 0.929 . S
C998 C994 1.531 . S
C998 H1010 0.960 . S
C998 H1011 0.962 . S
C998 H1012 0.960 . S
C999 C996 1.511 . S
C999 H1013 0.961 . S
C999 H1014 0.961 . S
C999 H1015 0.961 1_565 S
C1000 C1001 1.370 . S
C1000 C1002 1.363 . S
C1000 H1016 0.931 . S
C1001 C1000 1.370 . S
C1001 C1005 1.408 . S
C1002 C1000 1.363 . S
C1002 C1003 1.370 . S
C1002 C1006 1.524 . S
C1003 C995 1.503 . S
C1003 C1002 1.370 . S
C1003 C1004 1.403 . S
C1004 C1003 1.403 . S
C1004 C1005 1.404 . S
C1004 C1007 1.539 1_565 S
C1005 C1001 1.408 . S
C1005 C1004 1.404 . S
C1005 H1017 0.930 . S
C1006 C1002 1.524 . S
C1006 H1018 0.956 . S
C1006 H1019 0.961 . S
C1006 H1020 0.961 . S
C1007 C1004 1.539 1_545 S
C1007 H1021 0.958 . S
C1007 H1022 0.961 . S
C1007 H1023 0.960 . S
H1008 C992 0.931 . S
H1009 C997 0.929 . S
H1010 C998 0.960 . S
H1011 C998 0.962 . S
H1012 C998 0.960 . S
H1013 C999 0.961 . S
H1014 C999 0.961 . S
H1015 C999 0.961 1_545 S
H1016 C1000 0.931 . S
H1017 C1005 0.930 . S
H1018 C1006 0.956 . S
H1019 C1006 0.961 . S
H1020 C1006 0.961 . S
H1021 C1007 0.958 . S
H1022 C1007 0.961 . S
H1023 C1007 0.960 . S
C1024 C1025 1.391 . S
C1024 C1026 1.394 . S
C1024 H1040 0.931 . S
C1025 C1024 1.391 . S
C1025 C1029 1.376 . S
C1026 C1024 1.394 . S
C1026 C1027 1.369 . S
C1026 C1030 1.531 . S
C1027 C1026 1.369 . S
C1027 C1028 1.410 . S
C1027 C1035 1.503 . S
C1028 C1027 1.410 . S
C1028 C1029 1.392 . S
C1028 C1031 1.511 . S
C1029 C1025 1.376 . S
C1029 C1028 1.392 . S
C1029 H1041 0.929 . S
C1030 C1026 1.531 . S
C1030 H1042 0.960 . S
C1030 H1043 0.962 . S
C1030 H1044 0.960 . S
C1031 C1028 1.511 . S
C1031 H1045 0.961 . S
C1031 H1046 0.961 . S
C1031 H1047 0.961 . S
C1032 C1033 1.370 . S
C1032 C1034 1.363 . S
C1032 H1048 0.931 . S
C1033 C1032 1.370 . S
C1033 C1037 1.408 . S
C1034 C1032 1.363 . S
C1034 C1035 1.370 . S
C1034 C1038 1.524 . S
C1035 C1027 1.503 . S
C1035 C1034 1.370 . S
C1035 C1036 1.403 . S
C1036 C1035 1.403 . S
C1036 C1037 1.404 . S
C1036 C1039 1.539 . S
C1037 C1033 1.408 . S
C1037 C1036 1.404 . S
C1037 H1049 0.930 . S
C1038 C1034 1.524 . S
C1038 H1050 0.956 . S
C1038 H1051 0.961 . S
C1038 H1052 0.961 . S
C1039 C1036 1.539 . S
C1039 H1053 0.958 . S
C1039 H1054 0.961 . S
C1039 H1055 0.960 . S
H1040 C1024 0.931 . S
H1041 C1029 0.929 . S
H1042 C1030 0.960 . S
H1043 C1030 0.962 . S
H1044 C1030 0.960 . S
H1045 C1031 0.961 . S
H1046 C1031 0.961 . S
H1047 C1031 0.961 . S
H1048 C1032 0.931 . S
H1049 C1037 0.930 . S
H1050 C1038 0.956 . S
H1051 C1038 0.961 . S
H1052 C1038 0.961 . S
H1053 C1039 0.958 . S
H1054 C1039 0.961 . S
H1055 C1039 0.960 . S
C1056 C1057 1.391 . S
C1056 C1058 1.394 . S
C1056 H1072 0.931 . S
C1057 C1056 1.391 . S
C1057 C1061 1.376 . S
C1058 C1056 1.394 . S
C1058 C1059 1.369 . S
C1058 C1062 1.531 . S
C1059 C1058 1.369 . S
C1059 C1060 1.410 . S
C1059 C1067 1.503 . S
C1060 C1059 1.410 . S
C1060 C1061 1.392 . S
C1060 C1063 1.511 . S
C1061 C1057 1.376 . S
C1061 C1060 1.392 . S
C1061 H1073 0.929 . S
C1062 C1058 1.531 . S
C1062 H1074 0.960 . S
C1062 H1075 0.962 . S
C1062 H1076 0.960 . S
C1063 C1060 1.511 . S
C1063 H1077 0.961 . S
C1063 H1078 0.961 . S
C1063 H1079 0.961 . S
C1064 C1065 1.370 . S
C1064 C1066 1.363 . S
C1064 H1080 0.960 . S
C1065 C1064 1.370 . S
C1065 C1069 1.408 . S
C1066 C1064 1.363 . S
C1066 C1067 1.370 . S
C1066 C1070 1.524 . S
C1067 C1059 1.503 . S
C1067 C1066 1.370 . S
C1067 C1068 1.403 . S
C1068 C1067 1.403 . S
C1068 C1069 1.404 . S
C1068 C1071 1.539 . S
C1069 C1065 1.408 . S
C1069 C1068 1.404 . S
C1069 H1081 0.930 . S
C1070 C1066 1.524 . S
C1070 H1082 0.956 . S
C1070 H1083 0.961 . S
C1070 H1084 0.961 . S
C1071 C1068 1.539 . S
C1071 H1085 0.958 . S
C1071 H1086 0.961 . S
C1071 H1087 0.960 . S
H1072 C1056 0.931 . S
H1073 C1061 0.929 . S
H1074 C1062 0.960 . S
H1075 C1062 0.962 . S
H1076 C1062 0.960 . S
H1077 C1063 0.961 . S
H1078 C1063 0.961 . S
H1079 C1063 0.961 . S
H1080 C1064 0.960 . S
H1081 C1069 0.930 . S
H1082 C1070 0.956 . S
H1083 C1070 0.961 . S
H1084 C1070 0.961 . S
H1085 C1071 0.958 . S
H1086 C1071 0.961 . S
H1087 C1071 0.960 . S
C1088 C1089 1.391 . S
C1088 C1090 1.394 . S
C1088 H1104 0.931 . S
C1089 C1088 1.391 . S
C1089 C1093 1.376 . S
C1090 C1088 1.394 . S
C1090 C1091 1.369 . S
C1090 C1094 1.531 . S
C1091 C1090 1.369 . S
C1091 C1092 1.410 . S
C1091 C1099 1.503 . S
C1092 C1091 1.410 . S
C1092 C1093 1.392 . S
C1092 C1095 1.511 . S
C1093 C1089 1.376 . S
C1093 C1092 1.392 . S
C1093 H1105 0.929 . S
C1094 C1090 1.531 . S
C1094 H1106 0.960 . S
C1094 H1107 0.962 . S
C1094 H1108 0.960 . S
C1095 C1092 1.511 . S
C1095 H1109 0.961 . S
C1095 H1110 0.961 . S
C1095 H1111 0.961 . S
C1096 C1097 1.370 . S
C1096 C1098 1.363 . S
C1096 H1112 0.931 . S
C1097 C1096 1.370 . S
C1097 C1101 1.408 . S
C1098 C1096 1.363 . S
C1098 C1099 1.370 . S
C1098 C1102 1.524 . S
C1099 C1091 1.503 . S
C1099 C1098 1.370 . S
C1099 C1100 1.403 . S
C1100 C1099 1.403 . S
C1100 C1101 1.404 . S
C1100 C1103 1.539 . S
C1101 C1097 1.408 . S
C1101 C1100 1.404 . S
C1101 H1113 0.930 . S
C1102 C1098 1.524 . S
C1102 H1114 0.956 . S
C1102 H1115 0.961 . S
C1102 H1116 0.961 . S
C1103 C1100 1.539 . S
C1103 H1117 0.958 . S
C1103 H1118 0.961 . S
C1103 H1119 0.960 . S
H1104 C1088 0.931 . S
H1105 C1093 0.929 . S
H1106 C1094 0.960 . S
H1107 C1094 0.962 . S
H1108 C1094 0.960 . S
H1109 C1095 0.961 . S
H1110 C1095 0.961 . S
H1111 C1095 0.961 . S
H1112 C1096 0.931 . S
H1113 C1101 0.930 . S
H1114 C1102 0.956 . S
H1115 C1102 0.961 . S
H1116 C1102 0.961 . S
H1117 C1103 0.958 . S
H1118 C1103 0.961 . S
H1119 C1103 0.960 . S
C1120 C1121 1.391 . S
C1120 C1122 1.394 . S
C1120 H1136 0.931 . S
C1121 C1120 1.391 . S
C1121 C1125 1.376 . S
C1122 C1120 1.394 . S
C1122 C1123 1.369 . S
C1122 C1126 1.531 . S
C1123 C1122 1.369 . S
C1123 C1124 1.410 . S
C1123 C1131 1.503 . S
C1124 C1123 1.410 . S
C1124 C1125 1.392 . S
C1124 C1127 1.511 . S
C1125 C1121 1.376 . S
C1125 C1124 1.392 . S
C1125 H1137 0.929 . S
C1126 C1122 1.531 . S
C1126 H1138 0.960 . S
C1126 H1139 0.962 . S
C1126 H1140 0.960 . S
C1127 C1124 1.511 . S
C1127 H1141 0.961 . S
C1127 H1142 0.961 . S
C1127 H1143 0.961 . S
C1128 C1129 1.370 . S
C1128 C1130 1.363 . S
C1128 H1144 0.931 . S
C1129 C1128 1.370 . S
C1129 C1133 1.408 . S
C1130 C1128 1.363 . S
C1130 C1131 1.370 . S
C1130 C1134 1.524 . S
C1131 C1123 1.503 . S
C1131 C1130 1.370 . S
C1131 C1132 1.403 . S
C1132 C1131 1.403 . S
C1132 C1133 1.404 . S
C1132 C1135 1.539 . S
C1133 C1129 1.408 . S
C1133 C1132 1.404 . S
C1133 H1145 0.930 . S
C1134 C1130 1.524 . S
C1134 H1146 0.956 . S
C1134 H1147 0.961 . S
C1134 H1148 0.961 . S
C1135 C1132 1.539 . S
C1135 H1149 0.958 . S
C1135 H1150 0.961 . S
C1135 H1151 0.960 . S
H1136 C1120 0.931 . S
H1137 C1125 0.929 . S
H1138 C1126 0.960 . S
H1139 C1126 0.962 . S
H1140 C1126 0.960 . S
H1141 C1127 0.961 . S
H1142 C1127 0.961 . S
H1143 C1127 0.961 . S
H1144 C1128 0.931 . S
H1145 C1133 0.930 . S
H1146 C1134 0.956 . S
H1147 C1134 0.961 . S
H1148 C1134 0.961 . S
H1149 C1135 0.958 . S
H1150 C1135 0.961 . S
H1151 C1135 0.960 . S
C1152 C1153 1.391 . S
C1152 C1154 1.394 . S
C1152 H1168 0.931 . S
C1153 C1152 1.391 . S
C1153 C1157 1.376 . S
C1154 C1152 1.394 . S
C1154 C1155 1.369 . S
C1154 C1158 1.531 . S
C1155 C1154 1.369 . S
C1155 C1156 1.410 . S
C1155 C1163 1.503 . S
C1156 C1155 1.410 . S
C1156 C1157 1.392 . S
C1156 C1159 1.511 . S
C1157 C1153 1.376 . S
C1157 C1156 1.392 . S
C1157 H1169 0.929 . S
C1158 C1154 1.531 . S
C1158 H1170 0.960 . S
C1158 H1171 0.962 . S
C1158 H1172 0.960 . S
C1159 C1156 1.511 . S
C1159 H1173 0.961 . S
C1159 H1174 0.961 . S
C1159 H1175 0.961 . S
C1160 C1161 1.370 . S
C1160 C1162 1.363 . S
C1160 H1176 0.931 . S
C1161 C1160 1.370 . S
C1161 C1165 1.408 . S
C1162 C1160 1.363 . S
C1162 C1163 1.370 . S
C1162 C1166 1.524 . S
C1163 C1155 1.503 . S
C1163 C1162 1.370 . S
C1163 C1164 1.403 . S
C1164 C1163 1.403 . S
C1164 C1165 1.404 . S
C1164 C1167 1.539 . S
C1165 C1161 1.408 . S
C1165 C1164 1.404 . S
C1165 H1177 0.930 . S
C1166 C1162 1.524 . S
C1166 H1178 0.956 . S
C1166 H1179 0.961 . S
C1166 H1180 0.961 . S
C1167 C1164 1.539 . S
C1167 H1181 0.958 . S
C1167 H1182 0.961 . S
C1167 H1183 0.960 . S
H1168 C1152 0.931 . S
H1169 C1157 0.929 . S
H1170 C1158 0.960 . S
H1171 C1158 0.962 . S
H1172 C1158 0.960 . S
H1173 C1159 0.961 . S
H1174 C1159 0.961 . S
H1175 C1159 0.961 . S
H1176 C1160 0.931 . S
H1177 C1165 0.930 . S
H1178 C1166 0.956 . S
H1179 C1166 0.961 . S
H1180 C1166 0.961 . S
H1181 C1167 0.958 . S
H1182 C1167 0.961 . S
H1183 C1167 0.960 . S
C1184 C1185 1.391 . S
C1184 C1186 1.394 . S
C1184 H1200 0.931 . S
C1185 C1184 1.391 . S
C1185 C1189 1.376 . S
C1186 C1184 1.394 . S
C1186 C1187 1.369 . S
C1186 C1190 1.531 . S
C1187 C1186 1.369 . S
C1187 C1188 1.410 . S
C1187 C1195 1.503 . S
C1188 C1187 1.410 . S
C1188 C1189 1.392 . S
C1188 C1191 1.511 . S
C1189 C1185 1.376 . S
C1189 C1188 1.392 . S
C1189 H1201 0.929 . S
C1190 C1186 1.531 . S
C1190 H1202 0.960 . S
C1190 H1203 0.962 . S
C1190 H1204 0.960 . S
C1191 C1188 1.511 . S
C1191 H1205 0.961 . S
C1191 H1206 0.961 . S
C1191 H1207 0.961 . S
C1192 C1193 1.370 . S
C1192 C1194 1.363 . S
C1192 H1208 0.931 . S
C1193 C1192 1.370 . S
C1193 C1197 1.408 . S
C1194 C1192 1.363 . S
C1194 C1195 1.370 . S
C1194 C1198 1.524 . S
C1195 C1187 1.503 . S
C1195 C1194 1.370 . S
C1195 C1196 1.403 . S
C1196 C1195 1.403 . S
C1196 C1197 1.404 . S
C1196 C1199 1.539 . S
C1197 C1193 1.408 . S
C1197 C1196 1.404 . S
C1197 H1209 0.930 . S
C1198 C1194 1.524 . S
C1198 H1210 0.956 . S
C1198 H1211 0.961 . S
C1198 H1212 0.961 . S
C1199 C1196 1.539 . S
C1199 H1213 0.958 . S
C1199 H1214 0.961 . S
C1199 H1215 0.960 . S
H1200 C1184 0.931 . S
H1201 C1189 0.929 . S
H1202 C1190 0.960 . S
H1203 C1190 0.962 . S
H1204 C1190 0.960 . S
H1205 C1191 0.961 . S
H1206 C1191 0.961 . S
H1207 C1191 0.961 . S
H1208 C1192 0.931 . S
H1209 C1197 0.930 . S
H1210 C1198 0.956 . S
H1211 C1198 0.961 . S
H1212 C1198 0.961 . S
H1213 C1199 0.958 . S
H1214 C1199 0.961 . S
H1215 C1199 0.960 . S
C1216 C1217 1.391 . S
C1216 C1218 1.394 . S
C1216 H1232 0.931 . S
C1217 C1216 1.391 . S
C1217 C1221 1.376 . S
C1218 C1216 1.394 . S
C1218 C1219 1.369 . S
C1218 C1222 1.531 1_545 S
C1219 C1218 1.369 . S
C1219 C1220 1.410 . S
C1219 C1227 1.503 . S
C1220 C1219 1.410 . S
C1220 C1221 1.392 . S
C1220 C1223 1.511 . S
C1221 C1217 1.376 . S
C1221 C1220 1.392 . S
C1221 H1233 0.929 . S
C1222 C1218 1.531 1_565 S
C1222 H1234 0.960 . S
C1222 H1235 0.962 . S
C1222 H1236 0.960 . S
C1223 C1220 1.511 . S
C1223 H1237 0.961 . S
C1223 H1238 0.961 . S
C1223 H1239 0.961 . S
C1224 C1225 1.370 . S
C1224 C1226 1.355 1_565 S
C1224 H1240 0.931 . S
C1225 C1224 1.370 . S
C1225 C1229 1.408 . S
C1226 C1224 1.355 1_545 S
C1226 C1227 1.378 . S
C1226 C1230 1.525 . S
C1227 C1219 1.503 . S
C1227 C1226 1.378 . S
C1227 C1228 1.403 . S
C1228 C1227 1.403 . S
C1228 C1229 1.404 1_545 S
C1228 C1231 1.539 . S
C1229 C1225 1.408 . S
C1229 C1228 1.404 1_565 S
C1229 H1241 0.930 . S
C1230 C1226 1.525 . S
C1230 H1242 0.956 1_545 S
C1230 H1243 0.961 . S
C1230 H1244 0.961 1_545 S
C1231 C1228 1.539 . S
C1231 H1245 0.958 . S
C1231 H1246 0.961 . S
C1231 H1247 0.960 . S
H1232 C1216 0.931 . S
H1233 C1221 0.929 . S
H1234 C1222 0.960 . S
H1235 C1222 0.962 . S
H1236 C1222 0.960 . S
H1237 C1223 0.961 . S
H1238 C1223 0.961 . S
H1239 C1223 0.961 . S
H1240 C1224 0.931 . S
H1241 C1229 0.930 . S
H1242 C1230 0.956 1_565 S
H1243 C1230 0.961 . S
H1244 C1230 0.961 1_565 S
H1245 C1231 0.958 . S
H1246 C1231 0.961 . S
H1247 C1231 0.960 . S
C1248 C1249 1.391 . S
C1248 C1250 1.394 . S
C1248 H1264 0.931 . S
C1249 C1248 1.391 . S
C1249 C1253 1.376 . S
C1250 C1248 1.394 . S
C1250 C1251 1.369 . S
C1250 C1254 1.531 . S
C1251 C1250 1.369 . S
C1251 C1252 1.410 . S
C1251 C1259 1.503 . S
C1252 C1251 1.410 . S
C1252 C1253 1.392 . S
C1252 C1255 1.511 . S
C1253 C1249 1.376 . S
C1253 C1252 1.392 . S
C1253 H1265 0.929 . S
C1254 C1250 1.531 . S
C1254 H1266 0.960 . S
C1254 H1267 0.962 . S
C1254 H1268 0.960 . S
C1255 C1252 1.511 . S
C1255 H1269 0.961 . S
C1255 H1270 0.961 . S
C1255 H1271 0.961 . S
C1256 C1257 1.370 . S
C1256 C1258 1.363 . S
C1256 H1272 0.931 . S
C1257 C1256 1.370 . S
C1257 C1261 1.408 . S
C1258 C1256 1.363 . S
C1258 C1259 1.370 . S
C1258 C1262 1.524 . S
C1259 C1251 1.503 . S
C1259 C1258 1.370 . S
C1259 C1260 1.403 . S
C1260 C1259 1.403 . S
C1260 C1261 1.404 . S
C1260 C1263 1.539 . S
C1261 C1257 1.408 . S
C1261 C1260 1.404 . S
C1261 H1273 0.930 . S
C1262 C1258 1.524 . S
C1262 H1274 0.956 . S
C1262 H1275 0.961 . S
C1262 H1276 0.961 . S
C1263 C1260 1.539 . S
C1263 H1277 0.958 . S
C1263 H1278 0.961 . S
C1263 H1279 0.960 . S
H1264 C1248 0.931 . S
H1265 C1253 0.929 . S
H1266 C1254 0.960 . S
H1267 C1254 0.962 . S
H1268 C1254 0.960 . S
H1269 C1255 0.961 . S
H1270 C1255 0.961 . S
H1271 C1255 0.961 . S
H1272 C1256 0.931 . S
H1273 C1261 0.930 . S
H1274 C1262 0.956 . S
H1275 C1262 0.961 . S
H1276 C1262 0.961 . S
H1277 C1263 0.958 . S
H1278 C1263 0.961 . S
H1279 C1263 0.960 . S
C1280 C1281 1.391 . S
C1280 C1282 1.394 . S
C1280 H1296 0.931 . S
C1281 C1280 1.391 . S
C1281 C1285 1.376 . S
C1282 C1280 1.394 . S
C1282 C1283 1.369 . S
C1282 C1286 1.531 . S
C1283 C1282 1.369 . S
C1283 C1284 1.410 . S
C1283 C1291 1.503 . S
C1284 C1283 1.410 . S
C1284 C1285 1.392 . S
C1284 C1287 1.511 . S
C1285 C1281 1.376 . S
C1285 C1284 1.392 . S
C1285 H1297 0.929 . S
C1286 C1282 1.531 . S
C1286 H1298 0.960 . S
C1286 H1299 0.962 . S
C1286 H1300 0.960 . S
C1287 C1284 1.511 . S
C1287 H1301 0.961 . S
C1287 H1302 0.961 . S
C1287 H1303 0.961 . S
C1288 C1289 1.370 . S
C1288 C1290 1.363 . S
C1288 H1304 0.931 . S
C1289 C1288 1.370 . S
C1289 C1293 1.408 . S
C1290 C1288 1.363 . S
C1290 C1291 1.370 . S
C1290 C1294 1.524 . S
C1291 C1283 1.503 . S
C1291 C1290 1.370 . S
C1291 C1292 1.403 . S
C1292 C1291 1.403 . S
C1292 C1293 1.404 . S
C1292 C1295 1.539 . S
C1293 C1289 1.408 . S
C1293 C1292 1.404 . S
C1293 H1305 0.930 . S
C1294 C1290 1.524 . S
C1294 H1306 0.956 . S
C1294 H1307 0.961 . S
C1294 H1308 0.961 . S
C1295 C1292 1.539 . S
C1295 H1309 0.958 . S
C1295 H1310 0.961 . S
C1295 H1311 0.960 . S
H1296 C1280 0.931 . S
H1297 C1285 0.929 . S
H1298 C1286 0.960 . S
H1299 C1286 0.962 . S
H1300 C1286 0.960 . S
H1301 C1287 0.961 . S
H1302 C1287 0.961 . S
H1303 C1287 0.961 . S
H1304 C1288 0.931 . S
H1305 C1293 0.930 . S
H1306 C1294 0.956 . S
H1307 C1294 0.961 . S
H1308 C1294 0.961 . S
H1309 C1295 0.958 . S
H1310 C1295 0.961 . S
H1311 C1295 0.960 . S
C1312 C1313 1.391 . S
C1312 C1314 1.394 1_455 S
C1312 H1328 0.921 1_455 S
C1313 C1312 1.391 . S
C1313 C1317 1.376 . S
C1314 C1312 1.394 1_655 S
C1314 C1315 1.369 1_655 S
C1314 C1318 1.531 . S
C1315 C1314 1.369 1_455 S
C1315 C1316 1.410 . S
C1315 C1323 1.503 1_455 S
C1316 C1315 1.410 . S
C1316 C1317 1.392 . S
C1316 C1319 1.511 . S
C1317 C1313 1.376 . S
C1317 C1316 1.392 . S
C1317 H1329 0.929 . S
C1318 C1314 1.531 . S
C1318 H1330 0.960 . S
C1318 H1331 0.962 . S
C1318 H1332 0.960 . S
C1319 C1316 1.511 . S
C1319 H1333 0.961 . S
C1319 H1334 0.961 . S
C1319 H1335 0.961 . S
C1320 C1321 1.370 . S
C1320 C1322 1.363 . S
C1320 H1336 0.931 . S
C1321 C1320 1.370 . S
C1321 C1325 1.408 . S
C1322 C1320 1.363 . S
C1322 C1323 1.370 . S
C1322 C1326 1.524 . S
C1323 C1315 1.503 1_655 S
C1323 C1322 1.370 . S
C1323 C1324 1.403 1_655 S
C1324 C1323 1.403 1_455 S
C1324 C1325 1.404 1_455 S
C1324 C1327 1.539 . S
C1325 C1321 1.408 . S
C1325 C1324 1.404 1_655 S
C1325 H1337 0.929 1_655 S
C1326 C1322 1.524 . S
C1326 H1338 0.956 . S
C1326 H1339 0.961 . S
C1326 H1340 0.961 . S
C1327 C1324 1.539 . S
C1327 H1341 0.958 . S
C1327 H1342 0.961 . S
C1327 H1343 0.960 . S
H1328 C1312 0.921 1_655 S
H1329 C1317 0.929 . S
H1330 C1318 0.960 . S
H1331 C1318 0.962 . S
H1332 C1318 0.960 . S
H1333 C1319 0.961 . S
H1334 C1319 0.961 . S
H1335 C1319 0.961 . S
H1336 C1320 0.931 . S
H1337 C1325 0.929 1_455 S
H1338 C1326 0.956 . S
H1339 C1326 0.961 . S
H1340 C1326 0.961 . S
H1341 C1327 0.958 . S
H1342 C1327 0.961 . S
H1343 C1327 0.960 . S
C1344 C1345 1.391 . S
C1344 C1346 1.394 . S
C1344 H1360 0.931 . S
C1345 C1344 1.391 . S
C1345 C1349 1.376 . S
C1346 C1344 1.394 . S
C1346 C1347 1.369 . S
C1346 C1350 1.531 . S
C1347 C1346 1.369 . S
C1347 C1348 1.410 . S
C1347 C1355 1.503 . S
C1348 C1347 1.410 . S
C1348 C1349 1.392 . S
C1348 C1351 1.511 . S
C1349 C1345 1.376 . S
C1349 C1348 1.392 . S
C1349 H1361 0.929 . S
C1350 C1346 1.531 . S
C1350 H1362 0.960 . S
C1350 H1363 0.962 . S
C1350 H1364 0.960 . S
C1351 C1348 1.511 . S
C1351 H1365 0.961 . S
C1351 H1366 0.961 . S
C1351 H1367 0.961 . S
C1352 C1353 1.370 . S
C1352 C1354 1.363 . S
C1352 H1368 0.931 . S
C1353 C1352 1.370 . S
C1353 C1357 1.408 . S
C1354 C1352 1.363 . S
C1354 C1355 1.370 . S
C1354 C1358 1.524 . S
C1355 C1347 1.503 . S
C1355 C1354 1.370 . S
C1355 C1356 1.403 . S
C1356 C1355 1.403 . S
C1356 C1357 1.404 . S
C1356 C1359 1.539 . S
C1357 C1353 1.408 . S
C1357 C1356 1.404 . S
C1357 H1369 0.930 . S
C1358 C1354 1.524 . S
C1358 H1370 0.956 . S
C1358 H1371 0.961 . S
C1358 H1372 0.961 . S
C1359 C1356 1.539 . S
C1359 H1373 0.958 . S
C1359 H1374 0.961 . S
C1359 H1375 0.960 . S
H1360 C1344 0.931 . S
H1361 C1349 0.929 . S
H1362 C1350 0.960 . S
H1363 C1350 0.962 . S
H1364 C1350 0.960 . S
H1365 C1351 0.961 . S
H1366 C1351 0.961 . S
H1367 C1351 0.961 . S
H1368 C1352 0.931 . S
H1369 C1357 0.930 . S
H1370 C1358 0.956 . S
H1371 C1358 0.961 . S
H1372 C1358 0.961 . S
H1373 C1359 0.958 . S
H1374 C1359 0.961 . S
H1375 C1359 0.960 . S
C1376 C1377 1.391 . S
C1376 C1378 1.394 . S
C1376 H1392 0.931 . S
C1377 C1376 1.391 . S
C1377 C1381 1.376 . S
C1378 C1376 1.394 . S
C1378 C1379 1.369 . S
C1378 C1382 1.531 . S
C1379 C1378 1.369 . S
C1379 C1380 1.410 . S
C1379 C1387 1.503 . S
C1380 C1379 1.410 . S
C1380 C1381 1.392 . S
C1380 C1383 1.511 . S
C1381 C1377 1.376 . S
C1381 C1380 1.392 . S
C1381 H1393 0.929 . S
C1382 C1378 1.531 . S
C1382 H1394 0.960 . S
C1382 H1395 0.962 . S
C1382 H1396 0.960 . S
C1383 C1380 1.511 . S
C1383 H1397 0.961 . S
C1383 H1398 0.961 . S
C1383 H1399 0.961 . S
C1384 C1385 1.370 . S
C1384 C1386 1.363 . S
C1384 H1400 0.931 . S
C1385 C1384 1.370 . S
C1385 C1389 1.408 . S
C1386 C1384 1.363 . S
C1386 C1387 1.370 . S
C1386 C1390 1.524 . S
C1387 C1379 1.503 . S
C1387 C1386 1.370 . S
C1387 C1388 1.403 . S
C1388 C1387 1.403 . S
C1388 C1389 1.404 . S
C1388 C1391 1.539 . S
C1389 C1385 1.408 . S
C1389 C1388 1.404 . S
C1389 H1401 0.930 . S
C1390 C1386 1.524 . S
C1390 H1402 0.956 . S
C1390 H1403 0.961 . S
C1390 H1404 0.961 . S
C1391 C1388 1.539 . S
C1391 H1405 0.958 . S
C1391 H1406 0.961 . S
C1391 H1407 0.960 . S
H1392 C1376 0.931 . S
H1393 C1381 0.929 . S
H1394 C1382 0.960 . S
H1395 C1382 0.962 . S
H1396 C1382 0.960 . S
H1397 C1383 0.961 . S
H1398 C1383 0.961 . S
H1399 C1383 0.961 . S
H1400 C1384 0.931 . S
H1401 C1389 0.930 . S
H1402 C1390 0.956 . S
H1403 C1390 0.961 . S
H1404 C1390 0.961 . S
H1405 C1391 0.958 . S
H1406 C1391 0.961 . S
H1407 C1391 0.960 . S
C1408 C1409 1.391 . S
C1408 C1410 1.394 . S
C1408 H1424 0.931 . S
C1409 C1408 1.391 . S
C1409 C1413 1.376 . S
C1410 C1408 1.394 . S
C1410 C1411 1.369 1_455 S
C1410 C1414 1.531 . S
C1411 C1410 1.369 1_655 S
C1411 C1412 1.410 . S
C1411 C1419 1.503 . S
C1412 C1411 1.410 . S
C1412 C1413 1.392 1_655 S
C1412 C1415 1.511 . S
C1413 C1409 1.376 . S
C1413 C1412 1.392 1_455 S
C1413 H1425 0.929 1_455 S
C1414 C1410 1.531 . S
C1414 H1426 0.960 . S
C1414 H1427 0.962 . S
C1414 H1428 0.960 . S
C1415 C1412 1.511 . S
C1415 H1429 0.961 . S
C1415 H1430 0.961 . S
C1415 H1431 0.961 . S
C1416 C1417 1.370 . S
C1416 C1418 1.363 . S
C1416 H1432 0.931 . S
C1417 C1416 1.370 . S
C1417 C1421 1.408 . S
C1418 C1416 1.363 . S
C1418 C1419 1.370 . S
C1418 C1422 1.524 1_655 S
C1419 C1411 1.503 . S
C1419 C1418 1.370 . S
C1419 C1420 1.403 . S
C1420 C1419 1.403 . S
C1420 C1421 1.404 . S
C1420 C1423 1.539 . S
C1421 C1417 1.408 . S
C1421 C1420 1.404 . S
C1421 H1433 0.930 . S
C1422 C1418 1.524 1_455 S
C1422 H1434 0.956 . S
C1422 H1435 0.961 1_455 S
C1422 H1436 0.964 . S
C1423 C1420 1.539 . S
C1423 H1437 0.958 . S
C1423 H1438 0.961 . S
C1423 H1439 0.960 . S
H1424 C1408 0.931 . S
H1425 C1413 0.929 1_655 S
H1426 C1414 0.960 . S
H1427 C1414 0.962 . S
H1428 C1414 0.960 . S
H1429 C1415 0.961 . S
H1430 C1415 0.961 . S
H1431 C1415 0.961 . S
H1432 C1416 0.931 . S
H1433 C1421 0.930 . S
H1434 C1422 0.956 . S
H1435 C1422 0.961 1_655 S
H1436 C1422 0.964 . S
H1437 C1423 0.958 . S
H1438 C1423 0.961 . S
H1439 C1423 0.960 . S
C1440 C1441 1.391 . S
C1440 C1442 1.394 . S
C1440 H1456 0.931 . S
C1441 C1440 1.391 . S
C1441 C1445 1.376 . S
C1442 C1440 1.394 . S
C1442 C1443 1.369 . S
C1442 C1446 1.531 . S
C1443 C1442 1.369 . S
C1443 C1444 1.410 . S
C1443 C1451 1.503 . S
C1444 C1443 1.410 . S
C1444 C1445 1.392 . S
C1444 C1447 1.511 . S
C1445 C1441 1.376 . S
C1445 C1444 1.392 . S
C1445 H1457 0.929 . S
C1446 C1442 1.531 . S
C1446 H1458 0.960 . S
C1446 H1459 0.962 . S
C1446 H1460 0.960 . S
C1447 C1444 1.511 . S
C1447 H1461 0.961 . S
C1447 H1462 0.961 . S
C1447 H1463 0.961 . S
C1448 C1449 1.370 . S
C1448 C1450 1.363 . S
C1448 H1464 0.931 . S
C1449 C1448 1.370 . S
C1449 C1453 1.408 . S
C1450 C1448 1.363 . S
C1450 C1451 1.370 . S
C1450 C1454 1.524 . S
C1451 C1443 1.503 . S
C1451 C1450 1.370 . S
C1451 C1452 1.403 . S
C1452 C1451 1.403 . S
C1452 C1453 1.404 . S
C1452 C1455 1.539 . S
C1453 C1449 1.408 . S
C1453 C1452 1.404 . S
C1453 H1465 0.930 . S
C1454 C1450 1.524 . S
C1454 H1466 0.956 . S
C1454 H1467 0.961 . S
C1454 H1468 0.961 . S
C1455 C1452 1.539 . S
C1455 H1469 0.958 . S
C1455 H1470 0.961 . S
C1455 H1471 0.960 . S
H1456 C1440 0.931 . S
H1457 C1445 0.929 . S
H1458 C1446 0.960 . S
H1459 C1446 0.962 . S
H1460 C1446 0.960 . S
H1461 C1447 0.961 . S
H1462 C1447 0.961 . S
H1463 C1447 0.961 . S
H1464 C1448 0.931 . S
H1465 C1453 0.930 . S
H1466 C1454 0.956 . S
H1467 C1454 0.961 . S
H1468 C1454 0.961 . S
H1469 C1455 0.958 . S
H1470 C1455 0.961 . S
H1471 C1455 0.960 . S
C1472 C1473 1.391 . S
C1472 C1474 1.394 . S
C1472 H1488 0.931 . S
C1473 C1472 1.391 . S
C1473 C1477 1.376 . S
C1474 C1472 1.394 . S
C1474 C1475 1.369 . S
C1474 C1478 1.531 . S
C1475 C1474 1.369 . S
C1475 C1476 1.410 . S
C1475 C1483 1.503 . S
C1476 C1475 1.410 . S
C1476 C1477 1.392 . S
C1476 C1479 1.511 . S
C1477 C1473 1.376 . S
C1477 C1476 1.392 . S
C1477 H1489 0.929 . S
C1478 C1474 1.531 . S
C1478 H1490 0.960 . S
C1478 H1491 0.962 . S
C1478 H1492 0.960 . S
C1479 C1476 1.511 . S
C1479 H1493 0.961 . S
C1479 H1494 0.961 . S
C1479 H1495 0.961 . S
C1480 C1481 1.370 . S
C1480 C1482 1.363 . S
C1480 H1496 0.931 . S
C1481 C1480 1.370 . S
C1481 C1485 1.408 . S
C1482 C1480 1.363 . S
C1482 C1483 1.370 . S
C1482 C1486 1.524 . S
C1483 C1475 1.503 . S
C1483 C1482 1.370 . S
C1483 C1484 1.403 . S
C1484 C1483 1.403 . S
C1484 C1485 1.404 . S
C1484 C1487 1.539 . S
C1485 C1481 1.408 . S
C1485 C1484 1.404 . S
C1485 H1497 0.930 . S
C1486 C1482 1.524 . S
C1486 H1498 0.956 . S
C1486 H1499 0.961 . S
C1486 H1500 0.961 . S
C1487 C1484 1.539 . S
C1487 H1501 0.958 . S
C1487 H1502 0.961 . S
C1487 H1503 0.960 . S
H1488 C1472 0.931 . S
H1489 C1477 0.929 . S
H1490 C1478 0.960 . S
H1491 C1478 0.962 . S
H1492 C1478 0.960 . S
H1493 C1479 0.961 . S
H1494 C1479 0.961 . S
H1495 C1479 0.961 . S
H1496 C1480 0.931 . S
H1497 C1485 0.930 . S
H1498 C1486 0.956 . S
H1499 C1486 0.961 . S
H1500 C1486 0.961 . S
H1501 C1487 0.958 . S
H1502 C1487 0.961 . S
H1503 C1487 0.960 . S
C489 C388 1.331 . S
C481 C8 1.329 . S
C521 C405 1.376 . S
C513 C61 1.420 . S
C553 C419 1.534 . S
C545 C107 1.575 . S
C577 C139 1.292 . S
C585 C377 1.310 . S
C609 C192 1.274 1_554 S
C617 C374 1.291 . S
C641 C238 1.123 . S
C649 C391 1.091 . S
C681 C402 1.523 . S
C673 C284 1.506 . S
C713 C416 1.375 . S
C705 C330 1.347 . S
C737 C100 1.382 . S
C745 C444 1.382 . S
C777 C458 1.540 . S
C769 C160 1.492 . S
C801 C15 1.118 . S
C809 C475 1.122 . S
C841 C430 1.290 . S
C833 C54 1.235 . S
C865 C291 1.324 . S
C873 C433 1.332 . S
C897 C337 1.537 . S
C905 C447 1.543 . S
C937 C461 1.389 . S
C929 C199 1.441 . S
C961 C245 1.323 . S
C969 C472 1.337 . S
C1001 C404 1.919 . S
C993 C1 1.929 1_565 S
C1033 C418 2.035 . S
C1025 C68 2.037 . S
C1057 C114 1.955 . S
C1065 C376 1.978 1_556 S
C1089 C146 1.832 . S
C1097 C389 1.742 . S
C1121 C185 1.631 . S
C1129 C417 1.511 . S
C1161 C375 1.467 . S
C1153 C231 1.615 . S
C1193 C390 1.827 . S
C1185 C277 1.820 . S
C1225 C403 1.600 . S
C1217 C323 1.720 . S
C1257 C459 1.601 . S
C1249 C93 1.721 . S
C1289 C474 1.833 . S
C1281 C153 1.835 . S
C1313 C22 1.584 . S
C1321 C431 1.459 . S
C1353 C445 1.487 . S
C1345 C47 1.623 . S
C1385 C473 1.754 . S
C1377 C298 1.831 . S
C1409 C344 1.935 . S
C1417 C432 1.986 . S
C1449 C446 2.048 . S
C1441 C206 1.998 . S
C1481 C460 1.929 . S
C1473 C252 1.911 . S
