# Generated by pormake.
# Topology zzz, (3,6)-cn, num edge types: 1
# Building blocks:
#     Node 0, Type 0, BuildingBlock: PAMTOO_clean_linker_0, # of connection points: 3
#     Node 1, Type 0, BuildingBlock: PAMTOO_clean_linker_0, # of connection points: 3
#     Node 2, Type 0, BuildingBlock: PAMTOO_clean_linker_0, # of connection points: 3
#     Node 3, Type 0, BuildingBlock: PAMTOO_clean_linker_0, # of connection points: 3
#     Node 4, Type 0, BuildingBlock: PAMTOO_clean_linker_0, # of connection points: 3
#     Node 5, Type 0, BuildingBlock: PAMTOO_clean_linker_0, # of connection points: 3
#     Node 6, Type 0, BuildingBlock: PAMTOO_clean_linker_0, # of connection points: 3
#     Node 7, Type 0, BuildingBlock: PAMTOO_clean_linker_0, # of connection points: 3
#     Node 8, Type 1, BuildingBlock: KUMBUR_clean_sbu_1, # of connection points: 6
#     Node 9, Type 1, BuildingBlock: KUMBUR_clean_sbu_1, # of connection points: 6
#     Node 10, Type 1, BuildingBlock: KUMBUR_clean_sbu_1, # of connection points: 6
#     Node 11, Type 1, BuildingBlock: KUMBUR_clean_sbu_1, # of connection points: 6
#     Edge 12, Type (0, 1), BuildingBlock: MIFKUJ_clean_linker_0, # of connection points: 2
#     Edge 13, Type (0, 1), BuildingBlock: MIFKUJ_clean_linker_0, # of connection points: 2
#     Edge 14, Type (0, 1), BuildingBlock: MIFKUJ_clean_linker_0, # of connection points: 2
#     Edge 15, Type (0, 1), BuildingBlock: MIFKUJ_clean_linker_0, # of connection points: 2
#     Edge 16, Type (0, 1), BuildingBlock: MIFKUJ_clean_linker_0, # of connection points: 2
#     Edge 17, Type (0, 1), BuildingBlock: MIFKUJ_clean_linker_0, # of connection points: 2
#     Edge 18, Type (0, 1), BuildingBlock: MIFKUJ_clean_linker_0, # of connection points: 2
#     Edge 19, Type (0, 1), BuildingBlock: MIFKUJ_clean_linker_0, # of connection points: 2
#     Edge 20, Type (0, 1), BuildingBlock: MIFKUJ_clean_linker_0, # of connection points: 2
#     Edge 21, Type (0, 1), BuildingBlock: MIFKUJ_clean_linker_0, # of connection points: 2
#     Edge 22, Type (0, 1), BuildingBlock: MIFKUJ_clean_linker_0, # of connection points: 2
#     Edge 23, Type (0, 1), BuildingBlock: MIFKUJ_clean_linker_0, # of connection points: 2
#     Edge 24, Type (0, 1), BuildingBlock: MIFKUJ_clean_linker_0, # of connection points: 2
#     Edge 25, Type (0, 1), BuildingBlock: MIFKUJ_clean_linker_0, # of connection points: 2
#     Edge 26, Type (0, 1), BuildingBlock: MIFKUJ_clean_linker_0, # of connection points: 2
#     Edge 27, Type (0, 1), BuildingBlock: MIFKUJ_clean_linker_0, # of connection points: 2
#     Edge 28, Type (0, 1), BuildingBlock: MIFKUJ_clean_linker_0, # of connection points: 2
#     Edge 29, Type (0, 1), BuildingBlock: MIFKUJ_clean_linker_0, # of connection points: 2
#     Edge 30, Type (0, 1), BuildingBlock: MIFKUJ_clean_linker_0, # of connection points: 2
#     Edge 31, Type (0, 1), BuildingBlock: MIFKUJ_clean_linker_0, # of connection points: 2
#     Edge 32, Type (0, 1), BuildingBlock: MIFKUJ_clean_linker_0, # of connection points: 2
#     Edge 33, Type (0, 1), BuildingBlock: MIFKUJ_clean_linker_0, # of connection points: 2
#     Edge 34, Type (0, 1), BuildingBlock: MIFKUJ_clean_linker_0, # of connection points: 2
#     Edge 35, Type (0, 1), BuildingBlock: MIFKUJ_clean_linker_0, # of connection points: 2
# Relax obj value: 0.145
# Max RMSD: 0.091
# Mean RMSD: 0.075
data_MOF--net-zzz--node1-KUMBUR_clean_sbu_1--node2-PAMTOO_clean_linker_0--edge1-MIFKUJ_clean_linker_0
_symmetry_space_group_name_H-M    P1
_symmetry_Int_Tables_number       1
_symmetry_cell_setting            triclinic
loop_
_symmetry_equiv_pos_as_xyz
'x, y, z'
_cell_length_a     65.386171
_cell_length_b     65.450168
_cell_length_c     20.535562
_cell_angle_alpha  90.047693
_cell_angle_beta   90.027881
_cell_angle_gamma 90.490865
loop_
_atom_site_label
_atom_site_type_symbol
_atom_site_fract_x
_atom_site_fract_y
_atom_site_fract_z
_atom_type_partial_charge
H0 H 0.806 0.55621 0.14781 0.0
H1 H 0.74353 0.54966 0.08861 0.0
H2 H 0.76349 0.52169 0.26713 0.0
H3 H 0.71596 0.50157 0.18861 0.0
C4 C 0.72249 0.51248 0.15268 0.0
O5 O 0.73117 0.52885 0.18685 0.0
H6 H 0.73459 0.50392 0.12626 0.0
C7 C 0.79079 0.55038 0.15817 0.0
C8 C 0.78729 0.5384 0.21434 0.0
C9 C 0.77529 0.55398 0.11243 0.0
C10 C 0.75546 0.54696 0.12421 0.0
C11 C 0.75095 0.5354 0.17929 0.0
C12 C 0.76689 0.53099 0.22489 0.0
H13 H 0.9805 0.8184 0.17877 0.0
H14 H 0.98052 0.75925 0.08808 0.0
H15 H 0.01669 0.76997 0.26049 0.0
H16 H 0.03562 0.7359 0.15272 0.0
C17 C 0.02105 0.73644 0.12493 0.0
O18 O 1.0056 0.74223 0.16795 0.0
H19 H 0.02305 0.74817 0.08617 0.0
C20 C 0.98534 0.80259 0.17885 0.0
C21 C 0.99903 0.79603 0.22707 0.0
C22 C 0.97881 0.78963 0.12841 0.0
C23 C 0.98537 0.76931 0.12724 0.0
C24 C 0.99906 0.76199 0.1739 0.0
C25 C 1.0059 0.7754 0.2246 0.0
H26 H 0.72112 0.98719 0.15675 0.0
H27 H 0.78317 0.98845 0.08999 0.0
H28 H 0.76951 1.0072 0.28623 0.0
H29 H 0.81804 0.02501 0.21746 0.0
C30 C 0.81035 0.01777 0.17502 0.0
O31 O 0.79951 1.00067 0.19714 0.0
H32 H 0.79954 0.02934 0.15553 0.0
C33 C 0.73713 0.99016 0.16709 0.0
C34 C 0.743 0.99781 0.22861 0.0
C35 C 0.75142 0.98711 0.11718 0.0
C36 C 0.77215 0.99072 0.12873 0.0
C37 C 0.77892 0.99783 0.18905 0.0
C38 C 0.76433 1.00143 0.2396 0.0
H39 H 0.55645 0.7136 0.16942 0.0
H40 H 0.55311 0.77265 0.07954 0.0
H41 H 0.52351 0.76192 0.2641 0.0
H42 H 0.50233 0.79951 0.16304 0.0
C43 C 0.51578 0.79701 0.13104 0.0
O44 O 0.53182 0.78987 0.16943 0.0
H45 H 0.51094 0.78519 0.09498 0.0
C46 C 0.55174 0.72941 0.17136 0.0
C47 C 0.54015 0.73596 0.2248 0.0
C48 C 0.55609 0.74223 0.11833 0.0
C49 C 0.54961 0.76255 0.11988 0.0
C50 C 0.53773 0.76984 0.17136 0.0
C51 C 0.53266 0.7564 0.22397 0.0
H52 H 0.2186 0.51314 0.13412 0.0
H53 H 0.28058 0.51474 0.2017 0.0
H54 H 0.26829 0.50651 0.99709 0.0
H55 H 0.31523 0.4862 0.06137 0.0
C56 C 0.30996 0.4934 0.10735 0.0
O57 O 0.29785 0.5101 0.0907 0.0
H58 H 0.30071 0.48164 0.13352 0.0
C59 C 0.2348 0.51234 0.12316 0.0
C60 C 0.24119 0.50949 0.05839 0.0
C61 C 0.24885 0.514 0.17452 0.0
C62 C 0.26976 0.51325 0.16194 0.0
C63 C 0.27707 0.51045 0.09888 0.0
C64 C 0.26274 0.50864 0.04626 0.0
H65 H 0.05274 0.22534 0.14713 0.0
H66 H 0.04239 0.28569 0.22114 0.0
H67 H 0.02358 0.27045 0.026 0.0
H68 H 0.0303 0.32508 0.06473 0.0
C69 C 0.03601 0.31769 0.10977 0.0
O70 O 0.02458 0.29985 0.11994 0.0
H71 H 0.05232 0.31383 0.10055 0.0
C72 C 0.04772 0.24086 0.1387 0.0
C73 C 0.03867 0.24584 0.0786 0.0
C74 C 0.04905 0.25501 0.19001 0.0
C75 C 0.04164 0.27478 0.18143 0.0
C76 C 0.03271 0.28067 0.12287 0.0
C77 C 0.03096 0.2661 0.07104 0.0
H78 H 0.3168 0.05399 0.1419 0.0
H79 H 0.25924 0.04542 0.23662 0.0
H80 H 0.26677 0.02508 0.03809 0.0
H81 H 0.21627 0.0366 0.08752 0.0
C82 C 0.22336 0.03944 0.1359 0.0
O83 O 0.24075 0.02731 0.14106 0.0
H84 H 0.22765 0.05595 0.13655 0.0
C85 C 0.30098 0.04905 0.13835 0.0
C86 C 0.29373 0.03974 0.08086 0.0
C87 C 0.28861 0.05145 0.19338 0.0
C88 C 0.26859 0.04398 0.1933 0.0
C89 C 0.26038 0.03473 0.13759 0.0
C90 C 0.273 0.03247 0.08097 0.0
H91 H 0.47231 0.29964 0.07529 0.0
H92 H 0.48155 0.24685 0.19442 0.0
H93 H 0.52096 0.25799 0.02945 0.0
H94 H 0.51174 0.20762 0.06755 0.0
C95 C 0.50446 0.21248 0.11388 0.0
O96 O 0.51181 0.23201 0.12889 0.0
H97 H 0.48767 0.21283 0.10495 0.0
C98 C 0.48036 0.2855 0.0839 0.0
C99 C 0.4971 0.28059 0.04442 0.0
C100 C 0.47478 0.27362 0.13777 0.0
C101 C 0.48559 0.25583 0.15194 0.0
C102 C 0.50179 0.24957 0.11228 0.0
C103 C 0.50793 0.26226 0.05883 0.0
Tb104 Tb 1.00093 0.03011 0.59624 0.0
C105 C 0.05603 0.02888 0.84157 0.0
N106 N 0.05925 0.02472 0.77769 0.0
C107 C 0.09121 0.043 0.78137 0.0
C108 C 0.06986 0.04112 0.87737 0.0
C109 C 0.07702 0.03075 0.748 0.0
C110 C 0.08747 0.04848 0.84609 0.0
C111 C 0.03627 0.02245 0.93907 0.0
C112 C 0.03953 0.01965 0.87178 0.0
C113 C 0.04922 0.03569 0.97432 0.0
C114 C 0.06602 0.04498 0.94354 0.0
Tb115 Tb 0.03576 1.00393 0.72796 0.0
N116 N 0.02792 1.00637 0.83654 0.0
C117 C 0.02087 0.01099 0.96952 0.0
C118 C 0.01414 0.99387 0.86738 0.0
C119 C 0.01001 0.99635 0.93368 0.0
H120 H 0.08009 0.02635 0.69829 0.0
H121 H 0.99884 0.98659 0.95733 0.0
H122 H 0.95394 0.02172 0.66049 0.0
H123 H 0.0288 0.01291 0.35599 0.0
H124 H 1.00677 0.98151 0.84142 0.0
H125 H 0.018 0.01255 0.02122 0.0
H126 H 0.02835 0.0308 0.46213 0.0
H127 H 0.10504 0.04814 0.75726 0.0
H128 H 0.04684 0.03818 0.02593 0.0
H129 H 0.07632 0.05454 0.9718 0.0
H130 H 0.92572 0.99737 0.64452 0.0
H131 H 0.09852 0.05789 0.87192 0.0
H132 H 1.00217 0.98696 0.33055 0.0
N133 N 0.97215 1.00991 0.58322 0.0
C134 C 0.97156 0.99849 0.52781 0.0
C135 C 0.93877 0.99714 0.61212 0.0
C136 C 0.95514 0.98502 0.51445 0.0
C137 C 0.95526 0.01051 0.62246 0.0
C138 C 0.93893 0.98396 0.55869 0.0
N139 N 1.00219 0.01471 0.49669 0.0
C140 C 0.01679 0.01942 0.45151 0.0
C141 C 0.98647 0.99072 0.42259 0.0
C142 C 0.98686 1.00135 0.48225 0.0
C143 C 1.00191 0.99479 0.37704 0.0
C144 C 0.017 1.00939 0.39129 0.0
H145 H 0.926 0.97382 0.55028 0.0
H146 H 0.94268 0.96308 0.44551 0.0
H147 H 0.97022 0.96802 0.36512 0.0
O148 O 1.00704 0.05762 0.54742 0.0
O149 O 0.01598 1.00061 0.57586 0.0
O150 O 0.01362 0.98489 0.67362 0.0
O151 O 0.97618 0.04687 0.55911 0.0
O152 O 0.03404 0.03722 0.58472 0.0
O153 O 0.05047 1.00993 0.63319 0.0
O154 O 0.04763 0.98024 0.78589 0.0
O155 O 0.03692 0.0381 0.72236 0.0
O156 O 1.00486 0.04707 0.68829 0.0
O157 O 0.05877 0.9854 0.68909 0.0
O158 O 1.00225 0.99868 0.7388 0.0
O159 O 0.9879 0.02763 0.69566 0.0
C160 C 0.01402 0.98372 0.60978 0.0
C161 C 0.98265 0.08213 0.57543 0.0
C162 C 0.99394 0.11674 0.60294 0.0
C163 C 0.97745 0.11843 0.64646 0.0
C164 C 0.96618 0.08409 0.61898 0.0
C165 C 0.96353 0.10226 0.65371 0.0
C166 C 0.99596 0.09872 0.56634 0.0
C167 C 0.05007 0.02512 0.59092 0.0
C168 C 0.98779 0.06241 0.54484 0.0
C169 C 0.95506 0.97368 0.45626 0.0
C170 C 0.97068 0.97655 0.41035 0.0
C171 C 0.02196 0.05152 0.71928 0.0
C172 C 0.05636 0.95134 0.72216 0.0
C173 C 0.03643 0.91951 0.72197 0.0
C174 C 0.05095 0.91102 0.6793 0.0
C175 C 0.07083 0.9423 0.6812 0.0
C176 C 0.03934 0.93983 0.74319 0.0
C177 C 0.06816 0.92222 0.66024 0.0
C178 C 0.98752 0.01236 0.73775 0.0
C179 C 0.05871 0.97313 0.73869 0.0
H180 H 0.97546 0.13207 0.67556 0.0
H181 H 0.95569 0.07149 0.62752 0.0
H182 H 0.95096 0.1036 0.68768 0.0
H183 H 1.00821 0.09731 0.53113 0.0
H184 H 0.04905 0.89572 0.66007 0.0
H185 H 0.08405 0.95092 0.66453 0.0
H186 H 0.02846 0.94672 0.7761 0.0
H187 H 0.07936 0.91536 0.62844 0.0
Tb188 Tb 0.52841 0.02831 0.72284 0.0
C189 C 0.50221 0.94811 0.605 0.0
N190 N 0.51579 0.96229 0.58298 0.0
C191 C 0.53976 0.93591 0.55781 0.0
C192 C 0.5073 0.92726 0.6077 0.0
C193 C 0.53406 0.95647 0.55688 0.0
C194 C 0.52644 0.92126 0.5842 0.0
C195 C 0.46814 0.94035 0.6441 0.0
C196 C 0.48295 0.9546 0.62262 0.0
C197 C 0.47348 0.9197 0.65098 0.0
C198 C 0.49301 0.91315 0.63254 0.0
Tb199 Tb 0.50502 0.99531 0.58176 0.0
N200 N 0.47828 0.97459 0.61358 0.0
C201 C 0.4482 0.94711 0.65505 0.0
C202 C 0.45835 0.98068 0.61757 0.0
C203 C 0.44319 0.96728 0.64032 0.0
H204 H 0.54432 0.96779 0.53639 0.0
H205 H 0.42758 0.97242 0.6451 0.0
H206 H 0.48725 0.04133 0.81347 0.0
H207 H 0.59068 0.07455 0.6351 0.0
H208 H 0.45392 0.99578 0.6023 0.0
H209 H 0.43639 0.93664 0.67164 0.0
H210 H 0.57253 0.0424 0.66025 0.0
H211 H 0.55442 0.93137 0.53836 0.0
H212 H 0.46239 0.90856 0.6683 0.0
H213 H 0.49672 0.89709 0.63616 0.0
H214 H 0.46803 0.0724 0.83655 0.0
H215 H 0.53093 0.90537 0.58518 0.0
H216 H 0.57375 0.10757 0.65404 0.0
N217 N 0.50905 0.05611 0.75132 0.0
C218 C 0.51694 0.07454 0.73295 0.0
C219 C 0.48156 0.07319 0.80625 0.0
C220 C 0.50707 0.09297 0.74888 0.0
C221 C 0.49224 0.05539 0.79108 0.0
C222 C 0.48881 0.09205 0.78418 0.0
N223 N 0.54497 0.05703 0.68835 0.0
C224 C 0.56464 0.05668 0.66583 0.0
C225 C 0.54547 0.09381 0.68775 0.0
C226 C 0.53575 0.07504 0.7019 0.0
C227 C 0.56538 0.09353 0.6628 0.0
C228 C 0.57505 0.07489 0.65217 0.0
H229 H 0.48073 0.10584 0.79719 0.0
H230 H 0.5087 0.12603 0.74294 0.0
H231 H 0.54251 0.12675 0.69047 0.0
O232 O 0.55432 0.0177 0.77232 0.0
O233 O 0.52676 0.04205 0.62401 0.0
O234 O 0.49779 0.02813 0.57939 0.0
O235 O 0.53484 0.03993 0.81647 0.0
O236 O 0.55088 0.01049 0.6654 0.0
O237 O 0.53626 1.00688 0.5637 0.0
O238 O 0.48615 0.98647 0.50341 0.0
O239 O 0.52313 0.98036 0.66067 0.0
O240 O 0.51519 0.99872 0.7512 0.0
O241 O 0.5163 0.99842 0.48644 0.0
O242 O 0.48318 0.01473 0.63678 0.0
O243 O 0.49701 0.01609 0.73961 0.0
C244 C 0.5113 0.0431 0.58316 0.0
C245 C 0.57058 0.04553 0.82389 0.0
C246 C 0.60682 0.05199 0.80214 0.0
C247 C 0.60393 0.07283 0.81532 0.0
C248 C 0.56805 0.06643 0.83764 0.0
C249 C 0.58465 0.07994 0.83333 0.0
C250 C 0.59012 0.03844 0.8077 0.0
C251 C 0.55249 1.0081 0.60163 0.0
C252 C 0.55277 0.03156 0.81749 0.0
C253 C 0.51613 0.11173 0.73141 0.0
C254 C 0.53538 0.11216 0.70146 0.0
C255 C 0.51982 0.9812 0.724 0.0
C256 C 0.49089 1.00886 0.41452 0.0
C257 C 0.46756 0.03676 0.39052 0.0
C258 C 0.47806 0.04034 0.33179 0.0
C259 C 0.50105 0.01247 0.35547 0.0
C260 C 0.4743 0.02117 0.43203 0.0
C261 C 0.49471 0.02824 0.31454 0.0
C262 C 0.48092 0.01609 0.70058 0.0
C263 C 0.49885 0.99361 0.46024 0.0
H264 H 0.61653 0.0836 0.81159 0.0
H265 H 0.55316 0.07247 0.84973 0.0
H266 H 0.58251 0.09603 0.84309 0.0
H267 H 0.59226 0.02228 0.79862 0.0
H268 H 0.47307 0.05209 0.29839 0.0
H269 H 0.51411 1.00336 0.34171 0.0
H270 H 0.46669 0.01876 0.47832 0.0
H271 H 0.50266 0.03103 0.26915 0.0
Tb272 Tb 0.53433 0.49628 0.57036 0.0
C273 C 0.4776 0.4826 0.79014 0.0
N274 N 0.47508 0.49107 0.73027 0.0
C275 C 0.44519 0.47026 0.71239 0.0
C276 C 0.46426 0.46713 0.81274 0.0
C277 C 0.4588 0.48556 0.69201 0.0
C278 C 0.44798 0.46092 0.77285 0.0
C279 C 0.49679 0.48103 0.891 0.0
C280 C 0.4938 0.48937 0.82842 0.0
C281 C 0.4837 0.46541 0.91336 0.0
C282 C 0.46754 0.45842 0.87425 0.0
Tb283 Tb 0.49712 0.51715 0.70518 0.0
N284 N 0.50597 0.50476 0.80563 0.0
C285 C 0.51233 0.48919 0.93024 0.0
C286 C 0.5201 0.51369 0.84591 0.0
C287 C 0.52381 0.5058 0.90788 0.0
H288 H 0.45632 0.49287 0.64563 0.0
H289 H 0.53505 0.51304 0.93912 0.0
H290 H 0.57284 0.47084 0.63247 0.0
H291 H 0.52971 0.53842 0.34487 0.0
H292 H 0.52776 0.52762 0.83228 0.0
H293 H 0.51496 0.48342 0.97888 0.0
H294 H 0.51608 0.51883 0.43766 0.0
H295 H 0.43249 0.46574 0.68161 0.0
H296 H 0.48563 0.45894 0.96143 0.0
H297 H 0.4575 0.44646 0.89241 0.0
H298 H 0.61066 0.47148 0.6253 0.0
H299 H 0.43741 0.44906 0.78846 0.0
H300 H 0.56699 0.5451 0.33573 0.0
N301 N 0.56901 0.49423 0.56206 0.0
C302 C 0.57813 0.50642 0.51727 0.0
C303 C 0.6017 0.4815 0.59486 0.0
C304 C 0.59954 0.507 0.51009 0.0
C305 C 0.58033 0.48124 0.59911 0.0
C306 C 0.61138 0.49465 0.55072 0.0
N307 N 0.54525 0.51462 0.48173 0.0
C308 C 0.53235 0.52162 0.43435 0.0
C309 C 0.57426 0.52815 0.42303 0.0
C310 C 0.56575 0.51691 0.47498 0.0
C311 C 0.56105 0.53652 0.37675 0.0
C312 C 0.54003 0.53284 0.38176 0.0
H313 H 0.62791 0.49465 0.54694 0.0
H314 H 0.62473 0.52008 0.455 0.0
H315 H 0.60253 0.53853 0.37827 0.0
O316 O 0.51465 0.47145 0.55243 0.0
O317 O 0.53007 0.52961 0.56181 0.0
O318 O 0.50806 0.54217 0.64148 0.0
O319 O 0.54455 0.47327 0.50712 0.0
O320 O 0.50259 0.50137 0.53664 0.0
O321 O 0.48224 0.51895 0.61021 0.0
O322 O 0.49025 0.53801 0.77997 0.0
O323 O 0.50073 0.48438 0.67863 0.0
O324 O 0.53432 0.47964 0.66344 0.0
O325 O 0.46779 0.52996 0.70846 0.0
O326 O 0.52985 0.52686 0.717 0.0
O327 O 0.54843 0.50136 0.66674 0.0
C328 C 0.51989 0.54461 0.58972 0.0
C329 C 0.51695 0.45978 0.44517 0.0
C330 C 0.49002 0.44214 0.38449 0.0
C331 C 0.49534 0.45349 0.32878 0.0
C332 C 0.52231 0.4707 0.38874 0.0
C333 C 0.51141 0.46765 0.33105 0.0
C334 C 0.50083 0.44557 0.44269 0.0
C335 C 0.48534 0.51038 0.55319 0.0
C336 C 0.52681 0.46396 0.50821 0.0
C337 C 0.60828 0.51924 0.46104 0.0
C338 C 0.59564 0.52977 0.4174 0.0
C339 C 0.51728 0.47381 0.69153 0.0
C340 C 0.46873 0.56423 0.74057 0.0
C341 C 0.48018 0.59976 0.73825 0.0
C342 C 0.4618 0.60523 0.70772 0.0
C343 C 0.45038 0.56996 0.71029 0.0
C344 C 0.48359 0.57924 0.75416 0.0
C345 C 0.44702 0.59035 0.69366 0.0
C346 C 0.54696 0.51629 0.70978 0.0
C347 C 0.47262 0.54253 0.75483 0.0
H348 H 0.48753 0.45098 0.28292 0.0
H349 H 0.5348 0.48164 0.38915 0.0
H350 H 0.51556 0.47616 0.28778 0.0
H351 H 0.49658 0.43731 0.48648 0.0
H352 H 0.45885 0.621 0.69513 0.0
H353 H 0.43873 0.55863 0.69896 0.0
H354 H 0.49768 0.57509 0.7784 0.0
H355 H 0.43288 0.59463 0.67012 0.0
Tb356 Tb 0.02499 0.53892 0.57669 0.0
C357 C 0.02329 0.46926 0.78653 0.0
N358 N 0.01224 0.47132 0.73103 0.0
C359 C 0.01605 0.43548 0.70916 0.0
C360 C 0.03193 0.4504 0.80428 0.0
C361 C 1.00749 0.45446 0.69459 0.0
C362 C 0.02869 0.43352 0.76359 0.0
C363 C 0.03412 0.48395 0.88928 0.0
C364 C 0.02438 0.4857 0.82833 0.0
C365 C 0.04374 0.46556 0.90587 0.0
C366 C 0.04268 0.4488 0.86333 0.0
Tb367 Tb 1.00031 0.50348 0.70923 0.0
N368 N 0.01498 0.50319 0.81027 0.0
C369 C 0.03341 0.50057 0.93216 0.0
C370 C 0.01322 0.51902 0.85329 0.0
C371 C 0.02266 0.51808 0.91439 0.0
H372 H 0.99662 0.45544 0.65544 0.0
H373 H 0.02156 0.53081 0.94784 0.0
H374 H 1.00011 0.58057 0.61899 0.0
H375 H 0.03078 0.50003 0.34396 0.0
H376 H 1.00458 0.53238 0.84064 0.0
H377 H 0.04067 0.49986 0.97953 0.0
H378 H 0.04237 0.50996 0.45344 0.0
H379 H 0.01253 0.4223 0.6792 0.0
H380 H 0.05153 0.46397 0.95214 0.0
H381 H 0.04961 0.4345 0.87755 0.0
H382 H 0.97414 0.60337 0.57111 0.0
H383 H 0.03504 0.41874 0.77542 0.0
H384 H 1.00094 0.51704 0.29443 0.0
N385 N 1.00012 0.56015 0.53827 0.0
C386 C 0.99345 0.55656 0.47666 0.0
C387 C 0.9793 0.59014 0.54427 0.0
C388 C 0.97851 0.56899 0.44765 0.0
C389 C 0.99395 0.5772 0.5713 0.0
C390 C 0.97133 0.58587 0.48252 0.0
N391 N 0.01743 0.52999 0.47097 0.0
C392 C 0.02848 0.51646 0.43469 0.0
C393 C 0.99553 0.53625 0.37844 0.0
C394 C 1.00197 0.54052 0.44264 0.0
C395 C 1.00549 0.52088 0.34371 0.0
C396 C 0.02229 0.51121 0.37158 0.0
H397 H 0.95989 0.59584 0.46186 0.0
H398 H 0.95982 0.57355 0.36177 0.0
H399 H 0.97479 0.54494 0.301 0.0
O400 O 0.04824 0.54987 0.51399 0.0
O401 O 0.99136 0.5367 0.5938 0.0
O402 O 0.98575 0.50332 0.61258 0.0
O403 O 0.03802 0.5676 0.59531 0.0
O404 O 0.03333 0.50615 0.56457 0.0
O405 O 1.00661 0.48872 0.61414 0.0
O406 O 0.97238 0.51573 0.74018 0.0
O407 O 0.03206 0.51435 0.72993 0.0
O408 O 0.04729 0.51975 0.62988 0.0
O409 O 0.97868 0.48373 0.75246 0.0
O410 O 0.99658 0.53706 0.72216 0.0
O411 O 0.02547 0.5509 0.67628 0.0
C412 C 0.98017 0.52022 0.58387 0.0
C413 C 0.07242 0.57091 0.57034 0.0
C414 C 0.10787 0.56122 0.58809 0.0
C415 C 0.11163 0.58036 0.61725 0.0
C416 C 0.07648 0.58994 0.59944 0.0
C417 C 0.09596 0.59456 0.62313 0.0
C418 C 0.08811 0.55653 0.56535 0.0
C419 C 0.02193 0.48947 0.57208 0.0
C420 C 0.05144 0.56611 0.54934 0.0
C421 C 0.97149 0.56435 0.38469 0.0
C422 C 0.97994 0.54797 0.35022 0.0
C423 C 0.0486 0.51602 0.69308 0.0
C424 C 0.9456 0.49301 0.71704 0.0
C425 C 0.91045 0.5022 0.69272 0.0
C426 C 0.91012 0.48827 0.64091 0.0
C427 C 0.94507 0.47884 0.66547 0.0
C428 C 0.92817 0.50446 0.73066 0.0
C429 C 0.92734 0.47644 0.62796 0.0
C430 C 0.0105 0.55175 0.71868 0.0
C431 C 0.96469 0.49773 0.75232 0.0
H432 H 0.12681 0.58461 0.63377 0.0
H433 H 0.06449 0.60117 0.60441 0.0
H434 H 0.09899 0.60926 0.64547 0.0
H435 H 0.08495 0.5417 0.54396 0.0
H436 H 0.89648 0.48629 0.61152 0.0
H437 H 0.95845 0.47001 0.65312 0.0
H438 H 0.92848 0.51545 0.77026 0.0
H439 H 0.92708 0.46561 0.58808 0.0
H440 H 0.19065 0.01217 0.13641 0.0
H441 H 0.16221 1.00969 0.2141 0.0
H442 H 0.1908 0.05599 0.33355 0.0
H443 H 0.21942 0.05814 0.25635 0.0
H444 H 0.17365 0.03009 0.4115 0.0
H445 H 0.14926 0.06552 0.22375 0.0
H446 H 0.14146 0.07108 0.10763 0.0
H447 H 0.10203 0.01828 0.10727 0.0
H448 H 0.10984 0.01222 0.2232 0.0
H449 H 0.05826 0.05509 0.49782 0.0
H450 H 0.08772 0.05764 0.42373 0.0
H451 H 0.11226 1.00235 0.50502 0.0
H452 H 0.08331 0.99988 0.57912 0.0
H453 H 0.10276 0.03536 0.32757 0.0
H454 H 0.16399 1.00225 0.50117 0.0
H455 H 0.17088 1.0004 0.61915 0.0
H456 H 0.13629 0.05504 0.64988 0.0
H457 H 0.1295 0.05742 0.53201 0.0
C458 C 0.19106 0.02157 0.17983 0.0
C459 C 0.20741 0.03542 0.18969 0.0
C460 C 0.17457 0.02034 0.22412 0.0
C461 C 0.17377 0.03301 0.27975 0.0
C462 C 0.19068 0.04608 0.2913 0.0
C463 C 0.20718 0.04727 0.24704 0.0
C464 C 0.15532 0.03296 0.32492 0.0
C465 C 0.1582 0.03116 0.39272 0.0
C466 C 0.13487 0.03482 0.30187 0.0
C467 C 0.13032 0.0383 0.232 0.0
C468 C 0.13908 0.05499 0.19876 0.0
C469 C 0.13463 0.05825 0.133 0.0
C470 C 0.1213 0.04501 0.10004 0.0
C471 C 0.11238 0.0285 0.13282 0.0
C472 C 0.11681 0.02514 0.19856 0.0
C473 C 0.06995 0.0435 0.50019 0.0
C474 C 0.06819 0.02735 0.54542 0.0
C475 C 0.08687 0.04493 0.45737 0.0
C476 C 0.10267 0.03035 0.4586 0.0
C477 C 0.10075 0.01413 0.50324 0.0
C478 C 0.08395 0.01271 0.54591 0.0
C479 C 0.12111 0.03197 0.41376 0.0
C480 C 0.11823 0.03414 0.34616 0.0
C481 C 0.14157 0.03082 0.43704 0.0
C482 C 0.14609 0.02988 0.50778 0.0
C483 C 0.15797 0.01394 0.53304 0.0
C484 C 0.16184 0.01279 0.59991 0.0
C485 C 0.15398 0.02756 0.642 0.0
C486 C 0.14233 0.04358 0.61726 0.0
C487 C 0.13846 0.04483 0.55042 0.0
H488 H 0.15694 0.02661 0.69376 0.0
H489 H 0.11784 0.04758 0.04916 0.0
H490 H 0.51845 0.17323 0.09962 0.0
H491 H 0.51975 0.14557 0.17946 0.0
H492 H 0.49875 0.18669 0.32858 0.0
H493 H 0.49749 0.21459 0.24812 0.0
H494 H 0.52859 0.1613 0.37627 0.0
H495 H 0.46644 0.15163 0.2548 0.0
H496 H 0.44645 0.14796 0.15358 0.0
H497 H 0.47968 0.09378 0.10469 0.0
H498 H 0.50014 0.09732 0.20508 0.0
H499 H 0.50357 0.08362 0.60834 0.0
H500 H 0.50346 0.11245 0.53252 0.0
H501 H 0.5164 0.07134 0.37388 0.0
H502 H 0.51695 0.04259 0.45076 0.0
H503 H 0.49024 0.09715 0.33104 0.0
H504 H 0.554 0.10708 0.43917 0.0
H505 H 0.57943 0.1125 0.52631 0.0
H506 H 0.54664 0.16509 0.59302 0.0
H507 H 0.52105 0.16003 0.50601 0.0
C508 C 0.5145 0.17658 0.14969 0.0
C509 C 0.50831 0.19644 0.1673 0.0
C510 C 0.51501 0.16057 0.19546 0.0
C511 C 0.50909 0.16368 0.26062 0.0
C512 C 0.50341 0.18365 0.27894 0.0
C513 C 0.50281 0.19972 0.23285 0.0
C514 C 0.50852 0.14606 0.30874 0.0
C515 C 0.51984 0.14745 0.36684 0.0
C516 C 0.49778 0.12747 0.29622 0.0
C517 C 0.485 0.12489 0.23707 0.0
C518 C 0.46958 0.139 0.22225 0.0
C519 C 0.45819 0.13697 0.16496 0.0
C520 C 0.46193 0.12076 0.12244 0.0
C521 C 0.47691 0.10642 0.13746 0.0
C522 C 0.48839 0.10841 0.19459 0.0
C523 C 0.50668 0.08073 0.55757 0.0
C524 C 0.51031 0.06067 0.53601 0.0
C525 C 0.5066 0.09734 0.51375 0.0
C526 C 0.51023 0.09449 0.44659 0.0
C527 C 0.51353 0.0743 0.42495 0.0
C528 C 0.5137 0.05772 0.46899 0.0
C529 C 0.51025 0.11237 0.39922 0.0
C530 C 0.49882 0.11104 0.34109 0.0
C531 C 0.52115 0.13092 0.4112 0.0
C532 C 0.53553 0.13307 0.46651 0.0
C533 C 0.55207 0.11964 0.47294 0.0
C534 C 0.5666 0.12275 0.52196 0.0
C535 C 0.56469 0.13919 0.56497 0.0
C536 C 0.54814 0.15242 0.5595 0.0
C537 C 0.53364 0.14947 0.51028 0.0
H538 H 0.57603 0.14167 0.60263 0.0
H539 H 0.45307 0.1192 0.07815 0.0
H540 H 0.31706 0.52585 0.19613 0.0
H541 H 0.34616 0.53043 0.27108 0.0
H542 H 0.37386 0.47604 0.19389 0.0
H543 H 0.34491 0.47144 0.11977 0.0
H544 H 0.37663 0.47528 0.32239 0.0
H545 H 0.39172 0.52633 0.15875 0.0
H546 H 0.38454 0.55672 0.09184 0.0
H547 H 0.37751 0.59287 0.26487 0.0
H548 H 0.3844 0.56262 0.33282 0.0
H549 H 0.47877 0.48515 0.44701 0.0
H550 H 0.44923 0.48391 0.37337 0.0
H551 H 0.42265 0.53493 0.47428 0.0
H552 H 0.4519 0.53587 0.54919 0.0
H553 H 0.41834 0.53868 0.33874 0.0
H554 H 0.40571 0.49014 0.50267 0.0
H555 H 0.41134 0.46071 0.57474 0.0
H556 H 0.41012 0.42036 0.41012 0.0
H557 H 0.40581 0.44967 0.33622 0.0
C558 C 0.32949 0.51506 0.19431 0.0
C559 C 0.32872 0.49851 0.15022 0.0
C560 C 0.34624 0.51767 0.23749 0.0
C561 C 0.36264 0.50371 0.23851 0.0
C562 C 0.36169 0.48716 0.19476 0.0
C563 C 0.3451 0.48463 0.15166 0.0
C564 C 0.38056 0.50581 0.28542 0.0
C565 C 0.3859 0.48906 0.32498 0.0
C566 C 0.39245 0.52399 0.29163 0.0
C567 C 0.38836 0.54217 0.25084 0.0
C568 C 0.38849 0.54073 0.18252 0.0
C569 C 0.3845 0.55793 0.14441 0.0
C570 C 0.38051 0.5767 0.17409 0.0
C571 C 0.38057 0.57831 0.24194 0.0
C572 C 0.38453 0.56115 0.28027 0.0
C573 C 0.46675 0.49621 0.45348 0.0
C574 C 0.46792 0.51057 0.50467 0.0
C575 C 0.44971 0.49545 0.41119 0.0
C576 C 0.43342 0.50929 0.41778 0.0
C577 C 0.43487 0.52406 0.46755 0.0
C578 C 0.45168 0.52454 0.51073 0.0
C579 C 0.41469 0.50795 0.37428 0.0
C580 C 0.40914 0.52483 0.33578 0.0
C581 C 0.40245 0.48996 0.36967 0.0
C582 C 0.40583 0.47225 0.41358 0.0
C583 C 0.40718 0.47507 0.48145 0.0
C584 C 0.41018 0.45839 0.52268 0.0
C585 C 0.4114 0.4387 0.49688 0.0
C586 C 0.40957 0.43566 0.42982 0.0
C587 C 0.40695 0.45233 0.38817 0.0
H588 H 0.4136 0.42578 0.5289 0.0
H589 H 0.37743 0.59 0.1445 0.0
H590 H 0.06391 0.34745 0.13975 0.0
H591 H 0.06197 0.37538 0.21823 0.0
H592 H 1.00324 0.35295 0.28294 0.0
H593 H 1.00494 0.32515 0.20209 0.0
H594 H 1.00123 0.39256 0.27859 0.0
H595 H 0.05057 0.34841 0.37533 0.0
H596 H 0.08165 0.32739 0.3801 0.0
H597 H 0.11875 0.38023 0.3385 0.0
H598 H 0.08786 0.40153 0.33262 0.0
H599 H 0.99467 0.45828 0.54736 0.0
H600 H 0.99881 0.42787 0.48186 0.0
H601 H 0.05802 0.44952 0.41898 0.0
H602 H 0.0553 0.47867 0.49418 0.0
H603 H 0.05971 0.4101 0.4228 0.0
H604 H 1.00867 0.45434 0.32847 0.0
H605 H 0.97817 0.47516 0.34971 0.0
H606 H 0.94356 0.42098 0.39536 0.0
H607 H 0.9741 0.39989 0.37678 0.0
C608 C 0.05071 0.34817 0.17151 0.0
C609 C 0.03492 0.33347 0.16555 0.0
C610 C 0.04961 0.36428 0.21683 0.0
C611 C 0.03267 0.36638 0.25867 0.0
C612 C 0.01665 0.35184 0.25226 0.0
C613 C 0.0177 0.33572 0.20624 0.0
C614 C 0.03164 0.38392 0.3074 0.0
C615 C 0.01401 0.39616 0.31036 0.0
C616 C 0.04827 0.38926 0.34912 0.0
C617 C 0.06688 0.37652 0.35295 0.0
C618 C 0.06535 0.35552 0.36677 0.0
C619 C 0.08293 0.34356 0.36973 0.0
C620 C 0.10216 0.35246 0.35945 0.0
C621 C 0.10385 0.37335 0.34638 0.0
C622 C 0.0863 0.38538 0.34328 0.0
C623 C 1.009 0.45638 0.52197 0.0
C624 C 0.02473 0.47117 0.52771 0.0
C625 C 0.01112 0.43903 0.4823 0.0
C626 C 0.02839 0.43638 0.44227 0.0
C627 C 0.04431 0.45102 0.44812 0.0
C628 C 0.04262 0.46799 0.49068 0.0
C629 C 0.02941 0.41876 0.39367 0.0
C630 C 0.04702 0.40657 0.39058 0.0
C631 C 0.01275 0.41341 0.35199 0.0
C632 C 0.99371 0.42556 0.35174 0.0
C633 C 0.99448 0.44684 0.34212 0.0
C634 C 0.97724 0.45871 0.35436 0.0
C635 C 0.95899 0.4494 0.3744 0.0
C636 C 0.95776 0.42816 0.38024 0.0
C637 C 0.97503 0.41623 0.36892 0.0
H638 H 0.94584 0.45863 0.38586 0.0
H639 H 0.11576 0.34317 0.36175 0.0
H640 H 0.82162 0.04098 0.0699 0.0
H641 H 0.85061 0.03722 0.99641 0.0
H642 H 0.86669 0.98088 0.09144 0.0
H643 H 0.8378 0.98514 0.16717 0.0
H644 H 0.90026 1.00017 0.06973 0.0
H645 H 0.84503 0.98433 0.92779 0.0
H646 H 0.81171 0.98863 0.87329 0.0
H647 H 0.8329 0.04475 0.78761 0.0
H648 H 0.86625 0.04094 0.84226 0.0
H649 H 0.97305 0.97877 0.80825 0.0
H650 H 0.94353 0.97696 0.88212 0.0
H651 H 0.93005 0.03995 0.84139 0.0
H652 H 0.96012 0.04222 0.77083 0.0
H653 H 0.89493 0.01347 0.83268 0.0
H654 H 0.94871 0.02999 0.98682 0.0
H655 H 0.98162 0.02505 0.04299 0.0
H656 H 0.96269 0.96472 0.10068 0.0
H657 H 0.92954 0.96943 0.04524 0.0
C658 C 0.83101 0.0275 0.07439 0.0
C659 C 0.82679 0.01304 0.12355 0.0
C660 C 0.84773 0.02532 0.03189 0.0
C661 C 0.86096 1.00847 0.03635 0.0
C662 C 0.85684 0.99398 0.08575 0.0
C663 C 0.8401 0.99628 0.12885 0.0
C664 C 0.87936 1.00666 0.99135 0.0
C665 C 0.89886 1.00268 0.01774 0.0
C666 C 0.87811 1.01013 0.92299 0.0
C667 C 0.8581 0.01243 0.88964 0.0
C668 C 0.84255 0.99766 0.89768 0.0
C669 C 0.82366 1.0 0.86671 0.0
C670 C 0.82018 0.01699 0.8272 0.0
C671 C 0.83561 0.03162 0.81832 0.0
C672 C 0.85452 0.02936 0.84922 0.0
C673 C 0.96421 0.99243 0.81624 0.0
C674 C 0.96947 0.01076 0.78387 0.0
C675 C 0.94707 0.99131 0.85819 0.0
C676 C 0.93433 1.00833 0.86794 0.0
C677 C 0.93943 0.02653 0.83508 0.0
C678 C 0.95676 0.02779 0.79448 0.0
C679 C 0.91562 1.00729 0.91143 0.0
C680 C 0.89614 0.01073 0.88461 0.0
C681 C 0.91681 1.00301 0.97902 0.0
C682 C 0.93677 0.99999 0.01145 0.0
C683 C 0.95163 0.01563 0.01114 0.0
C684 C 0.97028 0.0129 0.0431 0.0
C685 C 0.97428 0.99456 0.07529 0.0
C686 C 0.95957 0.97894 0.07581 0.0
C687 C 0.94082 0.98165 0.04434 0.0
H688 H 0.98877 0.99244 0.09975 0.0
H689 H 0.80555 0.01882 0.80342 0.0
H690 H 0.53615 0.80194 0.01355 0.0
H691 H 0.53924 0.83276 0.94596 0.0
H692 H 0.50938 0.86778 0.09562 0.0
H693 H 0.50614 0.83692 0.1627 0.0
H694 H 0.49284 0.87737 0.98432 0.0
H695 H 0.56232 0.87277 0.05591 0.0
H696 H 0.59576 0.85655 0.07374 0.0
H697 H 0.60271 0.84798 0.86763 0.0
H698 H 0.56917 0.86391 0.84862 0.0
H699 H 0.50698 0.97591 0.85038 0.0
H700 H 0.50963 0.94577 0.91963 0.0
H701 H 0.53949 0.91328 0.76428 0.0
H702 H 0.53837 0.94419 0.69676 0.0
H703 H 0.55614 0.90182 0.87542 0.0
H704 H 0.48585 0.90662 0.80541 0.0
H705 H 0.45498 0.92746 0.78951 0.0
H706 H 0.45075 0.93723 0.99575 0.0
H707 H 0.4817 0.91662 0.01299 0.0
C708 C 0.53066 0.81631 0.03266 0.0
C709 C 0.52097 0.81684 0.09397 0.0
C710 C 0.53239 0.83404 0.99375 0.0
C711 C 0.52459 0.85297 0.01497 0.0
C712 C 0.51549 0.85357 0.07721 0.0
C713 C 0.5138 0.83587 0.11609 0.0
C714 C 0.52504 0.87183 0.97175 0.0
C715 C 0.50681 0.88271 0.96126 0.0
C716 C 0.54301 0.87898 0.93965 0.0
C717 C 0.56312 0.86932 0.95091 0.0
C718 C 0.57089 0.86726 0.01443 0.0
C719 C 0.58988 0.85815 0.02474 0.0
C720 C 0.60132 0.85118 0.97186 0.0
C721 C 0.59381 0.85335 0.90855 0.0
C722 C 0.57482 0.86243 0.89797 0.0
C723 C 0.51421 0.96242 0.83071 0.0
C724 C 0.52184 0.96247 0.76649 0.0
C725 C 0.51557 0.94496 0.87051 0.0
C726 C 0.52416 0.92664 0.84727 0.0
C727 C 0.53247 0.92689 0.78389 0.0
C728 C 0.53147 0.94455 0.74448 0.0
C729 C 0.52401 0.90732 0.88849 0.0
C730 C 0.5422 0.89634 0.89829 0.0
C731 C 0.50604 0.90002 0.92006 0.0
C732 C 0.48616 0.91024 0.91044 0.0
C733 C 0.47822 0.91306 0.84741 0.0
C734 C 0.46078 0.9249 0.83812 0.0
C735 C 0.4511 0.9338 0.89154 0.0
C736 C 0.45838 0.93038 0.95449 0.0
C737 C 0.47582 0.91858 0.96408 0.0
H738 H 0.43809 0.94353 0.88417 0.0
H739 H 0.61602 0.84414 0.97995 0.0
H740 H 0.71914 0.50415 0.0214 0.0
H741 H 0.68978 0.50833 0.9493 0.0
H742 H 0.65674 0.53792 0.10406 0.0
H743 H 0.68615 0.53305 0.17727 0.0
H744 H 0.63139 0.5135 0.04771 0.0
H745 H 0.67662 0.56368 0.95973 0.0
H746 H 0.70903 0.5775 0.91616 0.0
H747 H 0.70592 0.53521 0.75643 0.0
H748 H 0.67364 0.5209 0.79958 0.0
H749 H 0.55572 0.54843 0.79652 0.0
H750 H 0.58455 0.55132 0.87372 0.0
H751 H 0.60885 0.49477 0.80169 0.0
H752 H 0.57961 0.49089 0.72946 0.0
H753 H 0.63734 0.53675 0.81868 0.0
H754 H 0.59361 0.4847 0.91724 0.0
H755 H 0.56129 0.47164 0.96262 0.0
H756 H 0.56188 0.51934 0.10637 0.0
H757 H 0.59382 0.53332 0.05947 0.0
C758 C 0.70581 0.51198 0.03989 0.0
C759 C 0.70533 0.51863 0.10522 0.0
C760 C 0.68887 0.51441 0.99823 0.0
C761 C 0.67075 0.52379 0.0199 0.0
C762 C 0.67034 0.5307 0.08513 0.0
C763 C 0.68732 0.52813 0.12706 0.0
C764 C 0.65215 0.5255 0.97549 0.0
C765 C 0.6328 0.51897 0.99808 0.0
C766 C 0.65349 0.53239 0.90983 0.0
C767 C 0.67278 0.5411 0.88322 0.0
C768 C 0.6829 0.55724 0.91552 0.0
C769 C 0.70125 0.56516 0.89088 0.0
C770 C 0.70955 0.55721 0.83364 0.0
C771 C 0.69948 0.54134 0.8008 0.0
C772 C 0.68115 0.53333 0.8253 0.0
C773 C 0.56702 0.53644 0.79757 0.0
C774 C 0.56496 0.51936 0.75585 0.0
C775 C 0.58366 0.53819 0.84168 0.0
C776 C 0.59905 0.52323 0.84409 0.0
C777 C 0.59735 0.50658 0.80123 0.0
C778 C 0.58051 0.50451 0.75897 0.0
C779 C 0.61689 0.52457 0.89101 0.0
C780 C 0.63604 0.5316 0.8687 0.0
C781 C 0.61536 0.51831 0.95697 0.0
C782 C 0.59589 0.5103 0.98398 0.0
C783 C 0.58665 0.49268 0.95758 0.0
C784 C 0.56847 0.485 0.98398 0.0
C785 C 0.5596 0.49453 0.0378 0.0
C786 C 0.56878 0.51194 0.06476 0.0
C787 C 0.58687 0.51982 0.03806 0.0
H788 H 0.54558 0.48847 0.05842 0.0
H789 H 0.72376 0.56335 0.81468 0.0
H790 H 0.9847 0.71369 0.10126 0.0
H791 H 0.98078 0.68214 0.03636 0.0
H792 H 0.04572 0.68188 1.00091 0.0
H793 H 0.04963 0.713 0.06583 0.0
H794 H 0.02556 0.67483 0.88915 0.0
H795 H 0.02262 0.64776 0.10695 0.0
H796 H 1.00917 0.64424 0.21857 0.0
H797 H 0.95035 0.62686 0.14254 0.0
H798 H 0.96339 0.63055 0.03036 0.0
H799 H 0.0419 0.57792 0.75048 0.0
H800 H 0.04166 0.60757 0.82223 0.0
H801 H 0.97772 0.59712 0.86251 0.0
H802 H 0.97818 0.56659 0.79243 0.0
H803 H 0.99441 0.6103 0.96964 0.0
H804 H 0.99702 0.63611 0.75231 0.0
H805 H 0.01037 0.63843 0.64024 0.0
H806 H 0.06869 0.65851 0.71356 0.0
H807 H 0.05577 0.65602 0.82619 0.0
C808 C 0.99818 0.70668 0.08076 0.0
C809 C 0.01761 0.71573 0.0906 0.0
C810 C 0.99593 0.68859 0.04325 0.0
C811 C 0.01297 0.67925 0.01344 0.0
C812 C 0.03225 0.68848 0.02296 0.0
C813 C 0.03451 0.7063 0.06078 0.0
C814 C 0.011 0.66029 0.9711 0.0
C815 C 0.01887 0.66071 0.90723 0.0
C816 C 1.0018 0.64178 0.99297 0.0
C817 C 0.99391 0.63968 0.06028 0.0
C818 C 1.00676 0.64339 0.11402 0.0
C819 C 0.99922 0.64132 0.17739 0.0
C820 C 0.9789 0.6354 0.18764 0.0
C821 C 0.96608 0.63149 0.13452 0.0
C822 C 0.97354 0.63356 0.07104 0.0
C823 C 0.02771 0.58184 0.77443 0.0
C824 C 0.00999 0.56978 0.7646 0.0
C825 C 0.02755 0.59905 0.81555 0.0
C826 C 0.00952 0.60532 0.84719 0.0
C827 C 0.99188 0.59298 0.8388 0.0
C828 C 0.99212 0.57545 0.79834 0.0
C829 C 1.0092 0.62477 0.8879 0.0
C830 C 1.00092 0.62446 0.95131 0.0
C831 C 0.01786 0.6435 0.86546 0.0
C832 C 0.02546 0.64575 0.79772 0.0
C833 C 0.0127 0.64099 0.74454 0.0
C834 C 0.0202 0.64231 0.68092 0.0
C835 C 0.04037 0.64858 0.6698 0.0
C836 C 0.05306 0.65365 0.72227 0.0
C837 C 0.04565 0.65231 0.78601 0.0
H838 H 0.04617 0.64954 0.62052 0.0
H839 H 0.9731 0.63378 0.23674 0.0
H840 H 0.08272 0.23244 0.22126 0.0
H841 H 0.08768 0.21335 0.32244 0.0
H842 H 0.03494 0.24262 0.4058 0.0
H843 H 0.03004 0.26178 0.30565 0.0
H844 H 0.0624 0.22909 0.50204 0.0
H845 H 0.0258 0.20364 0.30892 0.0
H846 H 0.02378 0.1959 0.19139 0.0
H847 H 0.07544 0.15619 0.2083 0.0
H848 H 0.07788 0.16391 0.32589 0.0
H849 H 0.98673 0.15802 0.60315 0.0
H850 H 0.00981 0.18484 0.56442 0.0
H851 H 0.05748 0.14059 0.5375 0.0
H852 H 0.03516 0.11389 0.581 0.0
H853 H 0.04344 0.15971 0.42348 0.0
H854 H 0.07 0.17739 0.62962 0.0
H855 H 0.06861 0.18508 0.74688 0.0
H856 H 0.03298 0.2385 0.70815 0.0
H857 H 0.03412 0.23114 0.59035 0.0
C858 C 0.07267 0.23532 0.26212 0.0
C859 C 0.0557 0.24816 0.25521 0.0
C860 C 0.07564 0.22459 0.32002 0.0
C861 C 0.06141 0.2263 0.37089 0.0
C862 C 0.04609 0.2411 0.36711 0.0
C863 C 0.04323 0.25196 0.30954 0.0
C864 C 0.05885 0.20952 0.41821 0.0
C865 C 0.0585 0.21383 0.48526 0.0
C866 C 0.0539 0.18959 0.39604 0.0
C867 C 0.05217 0.18452 0.32583 0.0
C868 C 0.03675 0.1933 0.28745 0.0
C869 C 0.03552 0.18892 0.2209 0.0
C870 C 0.04951 0.17562 0.19236 0.0
C871 C 0.06466 0.16654 0.23044 0.0
C872 C 0.06597 0.1709 0.29703 0.0
C873 C 1.00239 0.15409 0.59189 0.0
C874 C 1.00887 0.13367 0.59331 0.0
C875 C 0.01557 0.16946 0.56975 0.0
C876 C 0.0353 0.16458 0.54816 0.0
C877 C 0.04232 0.14458 0.55431 0.0
C878 C 0.02937 0.12931 0.57794 0.0
C879 C 0.04666 0.17927 0.50738 0.0
C880 C 0.04831 0.17463 0.44104 0.0
C881 C 0.0525 0.1988 0.53042 0.0
C882 C 0.05208 0.20366 0.60105 0.0
C883 C 0.06178 0.19074 0.64605 0.0
C884 C 0.06104 0.19504 0.71267 0.0
C885 C 0.05061 0.2122 0.73506 0.0
C886 C 0.04104 0.2252 0.69074 0.0
C887 C 0.0418 0.22102 0.62396 0.0
H888 H 0.04998 0.21544 0.78672 0.0
H889 H 0.04861 0.17232 0.14078 0.0
H890 H 0.29944 0.03252 0.3052 0.0
H891 H 0.32546 0.04489 0.38113 0.0
H892 H 0.32495 0.10388 0.28725 0.0
H893 H 0.29936 0.09116 0.20989 0.0
H894 H 0.35943 0.08625 0.26943 0.0
H895 H 0.3207 0.09968 0.45691 0.0
H896 H 0.29476 0.09494 0.54268 0.0
H897 H 0.32503 0.04074 0.60804 0.0
H898 H 0.35095 0.04488 0.52197 0.0
H899 H 0.46009 0.0778 0.37659 0.0
H900 H 0.42672 0.09451 0.38287 0.0
H901 H 0.39911 0.03765 0.44501 0.0
H902 H 0.43209 0.02105 0.43891 0.0
H903 H 0.37872 0.06936 0.49636 0.0
H904 H 0.40604 0.04885 0.28503 0.0
H905 H 0.43029 0.04998 0.19314 0.0
H906 H 0.41862 0.11395 0.16755 0.0
H907 H 0.39483 0.11331 0.26073 0.0
C908 C 0.30415 0.04841 0.30311 0.0
C909 C 0.29768 0.06089 0.25182 0.0
C910 C 0.31896 0.05557 0.34679 0.0
C911 C 0.32731 0.07533 0.33974 0.0
C912 C 0.31875 0.08861 0.29362 0.0
C913 C 0.30417 0.08136 0.24944 0.0
C914 C 0.34808 0.0796 0.36583 0.0
C915 C 0.36352 0.0834 0.31982 0.0
C916 C 0.35355 0.07542 0.43113 0.0
C917 C 0.33782 0.07262 0.48271 0.0
C918 C 0.32176 0.08664 0.48917 0.0
C919 C 0.30705 0.08408 0.53795 0.0
C920 C 0.30825 0.06756 0.58079 0.0
C921 C 0.32414 0.05355 0.57488 0.0
C922 C 0.33887 0.05603 0.52614 0.0
C923 C 0.44694 0.06903 0.39276 0.0
C924 C 0.44861 0.04803 0.4059 0.0
C925 C 0.42795 0.07862 0.39698 0.0
C926 C 0.41038 0.06723 0.41345 0.0
C927 C 0.41244 0.04678 0.43244 0.0
C928 C 0.43135 0.03725 0.42859 0.0
C929 C 0.38962 0.07489 0.39906 0.0
C930 C 0.37436 0.07327 0.44699 0.0
C931 C 0.38412 0.08059 0.33503 0.0
C932 C 0.39899 0.08113 0.28057 0.0
C933 C 0.40892 0.06322 0.26045 0.0
C934 C 0.42259 0.06377 0.20816 0.0
C935 C 0.42612 0.08205 0.1748 0.0
C936 C 0.41606 0.09984 0.19384 0.0
C937 C 0.40254 0.09942 0.24653 0.0
H938 H 0.43653 0.08238 0.13386 0.0
H939 H 0.29686 0.06562 0.61858 0.0
H940 H 0.43578 0.28609 0.11304 0.0
H941 H 0.41788 0.31234 0.17541 0.0
H942 H 0.46356 0.3082 0.3265 0.0
H943 H 0.48095 0.28162 0.2655 0.0
H944 H 0.42901 0.32354 0.37591 0.0
H945 H 0.47428 0.3396 0.18425 0.0
H946 H 0.48326 0.33815 0.06745 0.0
H947 H 0.42234 0.35625 0.01659 0.0
H948 H 0.41317 0.35816 0.13319 0.0
H949 H 0.49206 0.40426 0.43827 0.0
H950 H 0.46995 0.37522 0.4172 0.0
H951 H 0.43072 0.41292 0.29929 0.0
H952 H 0.45304 0.4424 0.32072 0.0
H953 H 0.44298 0.38298 0.23262 0.0
H954 H 0.41026 0.38388 0.4383 0.0
H955 H 0.40772 0.38833 0.55735 0.0
H956 H 0.44939 0.33881 0.58614 0.0
H957 H 0.45223 0.33413 0.46767 0.0
C958 C 0.4413 0.29006 0.16122 0.0
C959 C 0.4599 0.28221 0.18415 0.0
C960 C 0.43114 0.30511 0.19663 0.0
C961 C 0.43981 0.31273 0.2544 0.0
C962 C 0.45666 0.30268 0.28176 0.0
C963 C 0.46662 0.28743 0.24687 0.0
C964 C 0.43499 0.33354 0.27792 0.0
C965 C 0.43166 0.33665 0.3447 0.0
C966 C 0.43782 0.3507 0.23683 0.0
C967 C 0.44299 0.34876 0.167 0.0
C968 C 0.46281 0.34316 0.148 0.0
C969 C 0.46795 0.34236 0.08196 0.0
C970 C 0.45334 0.34699 0.03465 0.0
C971 C 0.4336 0.35258 0.05329 0.0
C972 C 0.42845 0.35361 0.11929 0.0
C973 C 0.47831 0.40665 0.40995 0.0
C974 C 0.47443 0.4256 0.38061 0.0
C975 C 0.46548 0.38997 0.39833 0.0
C976 C 0.44836 0.39185 0.35754 0.0
C977 C 0.44376 0.4111 0.3313 0.0
C978 C 0.45662 0.42787 0.34302 0.0
C979 C 0.43845 0.37304 0.33169 0.0
C980 C 0.43898 0.37023 0.26404 0.0
C981 C 0.43344 0.35625 0.37233 0.0
C982 C 0.43143 0.35867 0.44395 0.0
C983 C 0.41893 0.374 0.47007 0.0
C984 C 0.41742 0.37655 0.53751 0.0
C985 C 0.4284 0.36388 0.57937 0.0
C986 C 0.44082 0.34857 0.55385 0.0
C987 C 0.4423 0.3459 0.48651 0.0
H988 H 0.42728 0.36591 0.63156 0.0
H989 H 0.45732 0.34636 0.98357 0.0
H990 H 0.25952 0.4911 0.27983 0.0
H991 H 0.24463 0.49258 0.38958 0.0
H992 H 0.20705 0.54311 0.32975 0.0
H993 H 0.2218 0.54165 0.22059 0.0
H994 H 0.22227 0.54723 0.45774 0.0
H995 H 0.18862 0.49624 0.31291 0.0
H996 H 0.18941 0.46479 0.24658 0.0
H997 H 0.21075 0.43089 0.41186 0.0
H998 H 0.21029 0.46226 0.47888 0.0
H999 H 0.11493 0.53832 0.4796 0.0
H1000 H 0.14605 0.52036 0.45222 0.0
H1001 H 0.17075 0.53374 0.64262 0.0
H1002 H 0.13931 0.55187 0.67011 0.0
H1003 H 0.17257 0.49051 0.49229 0.0
H1004 H 0.2167 0.55119 0.61763 0.0
H1005 H 0.21154 0.58402 0.67464 0.0
H1006 H 0.16506 0.60019 0.53658 0.0
H1007 H 0.17012 0.56753 0.47863 0.0
C1008 C 0.24837 0.50275 0.29082 0.0
C1009 C 0.24155 0.51614 0.24202 0.0
C1010 C 0.23997 0.5036 0.35329 0.0
C1011 C 0.22484 0.51797 0.36752 0.0
C1012 C 0.21887 0.53203 0.31972 0.0
C1013 C 0.22708 0.53105 0.25733 0.0
C1014 C 0.21294 0.51694 0.42836 0.0
C1015 C 0.2119 0.53453 0.46709 0.0
C1016 C 0.1995 0.50035 0.4406 0.0
C1017 C 0.19968 0.48156 0.40053 0.0
C1018 C 0.1936 0.48209 0.33489 0.0
C1019 C 0.19398 0.4643 0.29722 0.0
C1020 C 0.20019 0.44587 0.32493 0.0
C1021 C 0.20599 0.44519 0.39042 0.0
C1022 C 0.2057 0.46296 0.42825 0.0
C1023 C 0.12662 0.53686 0.51664 0.0
C1024 C 0.12491 0.54693 0.57673 0.0
C1025 C 0.14441 0.52644 0.50103 0.0
C1026 C 0.1608 0.52595 0.54511 0.0
C1027 C 0.15835 0.53414 0.60767 0.0
C1028 C 0.14057 0.54475 0.623 0.0
C1029 C 0.18125 0.52119 0.51923 0.0
C1030 C 0.18394 0.50256 0.48677 0.0
C1031 C 0.19606 0.53693 0.51204 0.0
C1032 C 0.19377 0.55702 0.5441 0.0
C1033 C 0.20553 0.56187 0.59925 0.0
C1034 C 0.20259 0.58039 0.63177 0.0
C1035 C 0.18797 0.59417 0.60927 0.0
C1036 C 0.17638 0.58952 0.55391 0.0
C1037 C 0.17932 0.57105 0.52114 0.0
H1038 H 0.18563 0.60845 0.63473 0.0
H1039 H 0.20046 0.4321 0.29572 0.0
H1040 H 0.94584 0.81537 0.12803 0.0
H1041 H 0.9356 0.83753 0.03787 0.0
H1042 H 0.97883 0.80712 0.91263 0.0
H1043 H 0.98848 0.78488 1.00112 0.0
H1044 H 0.9596 0.86411 0.99601 0.0
H1045 H 0.97478 0.81384 0.76061 0.0
H1046 H 0.96233 0.78124 0.71497 0.0
H1047 H 0.9089 0.78402 0.83594 0.0
H1048 H 0.92079 0.81685 0.88163 0.0
H1049 H 0.03507 0.87824 0.74433 0.0
H1050 H 1.00724 0.85807 0.78879 0.0
H1051 H 0.96963 0.91172 0.80033 0.0
H1052 H 0.99742 0.93229 0.75581 0.0
H1053 H 0.966 0.84965 0.7599 0.0
H1054 H 0.94382 0.90744 0.93931 0.0
H1055 H 0.95467 0.94101 0.98287 0.0
H1056 H 0.01753 0.92269 0.97383 0.0
H1057 H 1.00697 0.88901 0.93028 0.0
C1058 C 0.95249 0.81295 0.08036 0.0
C1059 C 0.96812 0.79857 0.07168 0.0
C1060 C 0.94662 0.8256 0.02887 0.0
C1061 C 0.9564 0.82413 0.96813 0.0
C1062 C 0.97058 0.80839 0.95814 0.0
C1063 C 0.97624 0.79564 0.00919 0.0
C1064 C 0.9557 0.84127 0.9207 0.0
C1065 C 0.96012 0.86102 0.94413 0.0
C1066 C 0.95599 0.83766 0.85267 0.0
C1067 C 0.94869 0.81794 0.82456 0.0
C1068 C 0.96025 0.80767 0.77705 0.0
C1069 C 0.95332 0.78909 0.75128 0.0
C1070 C 0.93484 0.78057 0.77252 0.0
C1071 C 0.92323 0.79062 0.81958 0.0
C1072 C 0.93008 0.80922 0.84551 0.0
C1073 C 0.02076 0.88583 0.7541 0.0
C1074 C 0.01868 0.90703 0.74532 0.0
C1075 C 1.00477 0.87417 0.77961 0.0
C1076 C 0.98634 0.88337 0.7976 0.0
C1077 C 0.98374 0.90432 0.78665 0.0
C1078 C 0.99981 0.91607 0.76132 0.0
C1079 C 0.97159 0.87132 0.83669 0.0
C1080 C 0.96423 0.85274 0.81147 0.0
C1081 C 0.9681 0.87608 0.90283 0.0
C1082 C 0.97462 0.89583 0.93149 0.0
C1083 C 0.95993 0.91058 0.94707 0.0
C1084 C 0.96603 0.92962 0.97159 0.0
C1085 C 0.98678 0.93399 0.98113 0.0
C1086 C 1.00147 0.91929 0.96642 0.0
C1087 C 0.99544 0.90022 0.94187 0.0
H1088 H 0.99147 0.94876 0.99995 0.0
H1089 H 0.92951 0.76617 0.75254 0.0
H1090 H 0.72802 0.95504 0.07359 0.0
H1091 H 0.71 0.9531 0.96902 0.0
H1092 H 0.73908 1.00974 0.91036 0.0
H1093 H 0.75798 0.01067 0.01175 0.0
H1094 H 0.68259 0.97615 0.94498 0.0
H1095 H 0.73505 0.02396 0.76321 0.0
H1096 H 0.7701 0.02187 0.72004 0.0
H1097 H 0.77241 0.95832 0.77075 0.0
H1098 H 0.73723 0.95986 0.81321 0.0
H1099 H 0.64299 0.06202 0.86034 0.0
H1100 H 0.67396 0.04168 0.85923 0.0
H1101 H 0.64798 1.00246 0.71163 0.0
H1102 H 0.617 0.02327 0.71091 0.0
H1103 H 0.70076 0.01173 0.73947 0.0
H1104 H 0.63726 0.97656 0.80656 0.0
H1105 H 0.60172 0.97889 0.84624 0.0
H1106 H 0.62252 0.01139 0.01588 0.0
H1107 H 0.65815 1.00947 0.9766 0.0
C1108 C 0.73111 0.96651 0.03681 0.0
C1109 C 0.74419 0.98307 0.05038 0.0
C1110 C 0.72085 0.96544 0.97713 0.0
C1111 C 0.72303 0.98128 0.9312 0.0
C1112 C 0.73739 0.99695 0.94334 0.0
C1113 C 0.74807 0.99767 1.00198 0.0
C1114 C 0.70732 0.98431 0.87968 0.0
C1115 C 0.68672 0.98302 0.89874 0.0
C1116 C 0.71227 0.99305 0.81832 0.0
C1117 C 0.73337 0.99203 0.79142 0.0
C1118 C 0.74288 1.00945 0.76449 0.0
C1119 C 0.76283 1.00838 0.7403 0.0
C1120 C 0.77346 0.98997 0.7426 0.0
C1121 C 0.76416 0.97258 0.76904 0.0
C1122 C 0.74421 0.97355 0.79325 0.0
C1123 C 0.64421 0.04975 0.82518 0.0
C1124 C 0.62735 0.04382 0.78712 0.0
C1125 C 0.66199 0.03819 0.8243 0.0
C1126 C 0.66308 0.0205 0.78584 0.0
C1127 C 0.6474 0.0161 0.74147 0.0
C1128 C 0.62961 0.02778 0.74197 0.0
C1129 C 0.67697 1.00429 0.80768 0.0
C1130 C 0.69697 1.00345 0.78358 0.0
C1131 C 0.67148 0.99271 0.86297 0.0
C1132 C 0.65029 0.99287 0.88868 0.0
C1133 C 0.63422 0.98415 0.85239 0.0
C1134 C 0.61407 0.98544 0.87471 0.0
C1135 C 0.60986 0.99528 0.93354 0.0
C1136 C 0.62581 1.00375 0.97035 0.0
C1137 C 0.64598 1.00254 0.94814 0.0
H1138 H 0.59425 0.99635 0.9506 0.0
H1139 H 0.78892 0.9892 0.72398 0.0
H1140 H 0.54267 0.74872 0.99453 0.0
H1141 H 0.54472 0.72394 0.90686 0.0
H1142 H 0.58842 0.68914 0.0169 0.0
H1143 H 0.587 0.71434 0.10462 0.0
H1144 H 0.57045 0.69661 0.82801 0.0
H1145 H 0.56394 0.64703 0.04833 0.0
H1146 H 0.55645 0.64795 0.16634 0.0
H1147 H 0.51478 0.69742 0.13624 0.0
H1148 H 0.52211 0.69678 0.01825 0.0
H1149 H 0.52171 0.59976 0.72112 0.0
H1150 H 0.54664 0.6235 0.77053 0.0
H1151 H 0.49714 0.65825 0.85256 0.0
H1152 H 0.47232 0.63472 0.80383 0.0
H1153 H 0.52753 0.6452 0.94335 0.0
H1154 H 0.51992 0.6758 0.73014 0.0
H1155 H 0.52176 0.67308 0.61159 0.0
H1156 H 0.58662 0.66374 0.62237 0.0
H1157 H 0.58491 0.66526 0.74248 0.0
C1158 C 0.55371 0.73654 0.99868 0.0
C1159 C 0.56409 0.73303 0.05753 0.0
C1160 C 0.55489 0.72235 0.9482 0.0
C1161 C 0.56629 0.7045 0.95637 0.0
C1162 C 0.57938 0.70277 0.01016 0.0
C1163 C 0.57837 0.71708 0.06047 0.0
C1164 C 0.55951 0.68601 0.92114 0.0
C1165 C 0.56157 0.68499 0.8532 0.0
C1166 C 0.54765 0.67106 0.95402 0.0
C1167 C 0.54372 0.67198 0.02494 0.0
C1168 C 0.55327 0.65814 0.06711 0.0
C1169 C 0.54904 0.65861 0.13387 0.0
C1170 C 0.53515 0.67273 0.15871 0.0
C1171 C 0.52552 0.68648 0.1169 0.0
C1172 C 0.52977 0.68614 0.05019 0.0
C1173 C 0.51624 0.61264 0.74915 0.0
C1174 C 0.49515 0.61546 0.75898 0.0
C1175 C 0.53044 0.6261 0.7772 0.0
C1176 C 0.52364 0.64239 0.81563 0.0
C1177 C 0.5026 0.64562 0.8234 0.0
C1178 C 0.48846 0.63234 0.79501 0.0
C1179 C 0.53814 0.65595 0.85017 0.0
C1180 C 0.53734 0.65608 0.91821 0.0
C1181 C 0.5509 0.67008 0.81716 0.0
C1182 C 0.55223 0.67033 0.74524 0.0
C1183 C 0.53456 0.67298 0.70737 0.0
C1184 C 0.5356 0.67166 0.63971 0.0
C1185 C 0.55433 0.66832 0.60895 0.0
C1186 C 0.5721 0.66629 0.64616 0.0
C1187 C 0.57109 0.66727 0.71415 0.0
H1188 H 0.55507 0.66729 0.5564 0.0
H1189 H 0.53182 0.673 0.21027 0.0
H1190 H 0.76925 0.53384 1.00002 0.0
H1191 H 0.78692 0.53982 0.89815 0.0
H1192 H 0.81063 0.59709 0.97253 0.0
H1193 H 0.79412 0.59007 0.07767 0.0
H1194 H 0.79484 0.56124 0.80044 0.0
H1195 H 0.85809 0.60296 0.93092 0.0
H1196 H 0.87077 0.61123 0.04131 0.0
H1197 H 0.84753 0.55388 0.1122 0.0
H1198 H 0.83471 0.5453 1.00223 0.0
H1199 H 0.89156 0.53304 0.62599 0.0
H1200 H 0.86401 0.55513 0.66816 0.0
H1201 H 0.86137 0.51863 0.84297 0.0
H1202 H 0.88875 0.49713 0.80192 0.0
H1203 H 0.86809 0.56093 0.86256 0.0
H1204 H 0.82889 0.5136 0.72643 0.0
H1205 H 0.81682 0.49958 0.62196 0.0
H1206 H 0.79084 0.55753 0.57235 0.0
H1207 H 0.80343 0.57216 0.6757 0.0
C1208 C 0.77775 0.54801 0.99401 0.0
C1209 C 0.7808 0.56127 0.04681 0.0
C1210 C 0.78777 0.55154 0.93535 0.0
C1211 C 0.80078 0.56859 0.92815 0.0
C1212 C 0.80128 0.58346 0.97772 0.0
C1213 C 0.79182 0.57952 0.03759 0.0
C1214 C 0.81668 0.56786 0.87649 0.0
C1215 C 0.81093 0.56161 0.81339 0.0
C1216 C 0.83774 0.56863 0.89274 0.0
C1217 C 0.84525 0.57367 0.95886 0.0
C1218 C 0.85567 0.59217 0.9702 0.0
C1219 C 0.86286 0.5969 0.03262 0.0
C1220 C 0.85985 0.58313 0.08381 0.0
C1221 C 0.84973 0.56456 0.07261 0.0
C1222 C 0.84251 0.55976 0.01031 0.0
C1223 C 0.88469 0.52967 0.67279 0.0
C1224 C 0.89209 0.51357 0.7112 0.0
C1225 C 0.86911 0.54224 0.6967 0.0
C1226 C 0.86087 0.53854 0.75874 0.0
C1227 C 0.8677 0.52182 0.79523 0.0
C1228 C 0.88321 0.5095 0.7718 0.0
C1229 C 0.846 0.55233 0.78958 0.0
C1230 C 0.85211 0.56152 0.84816 0.0
C1231 C 0.82527 0.55321 0.77018 0.0
C1232 C 0.81778 0.54422 0.70803 0.0
C1233 C 0.82108 0.52355 0.6927 0.0
C1234 C 0.81403 0.51544 0.63373 0.0
C1235 C 0.80325 0.52771 0.5902 0.0
C1236 C 0.7993 0.54806 0.60592 0.0
C1237 C 0.80645 0.55628 0.66462 0.0
H1238 H 0.79783 0.52141 0.54453 0.0
H1239 H 0.86542 0.58681 0.13208 0.0
H1240 H 1.0054 0.2338 1.00157 0.0
H1241 H 1.00202 0.2027 0.93459 0.0
H1242 H 0.06458 0.18742 0.9776 0.0
H1243 H 0.06816 0.21858 0.04157 0.0
H1244 H 0.0588 0.17593 0.86263 0.0
H1245 H 0.01998 0.16465 0.05592 0.0
H1246 H 0.99356 0.17152 0.13853 0.0
H1247 H 0.94675 0.16597 0.99264 0.0
H1248 H 0.97296 0.15932 0.90895 0.0
H1249 H 0.05581 0.06961 0.77862 0.0
H1250 H 0.05832 0.10235 0.83537 0.0
H1251 H 0.99538 0.11458 0.78779 0.0
H1252 H 0.99248 0.08097 0.73631 0.0
H1253 H 1.00064 0.1285 0.90133 0.0
H1254 H 0.04331 0.13583 0.7095 0.0
H1255 H 0.07214 0.12666 0.63754 0.0
H1256 H 0.11459 0.13861 0.79235 0.0
H1257 H 0.0861 0.1469 0.86605 0.0
C1258 C 0.01858 0.22408 0.99546 0.0
C1259 C 0.03704 0.22894 0.02778 0.0
C1260 C 0.01656 0.20597 0.95779 0.0
C1261 C 0.03289 0.19202 0.95144 0.0
C1262 C 0.05157 0.19749 0.98113 0.0
C1263 C 0.0536 0.2155 0.01827 0.0
C1264 C 0.03075 0.17164 0.91559 0.0
C1265 C 0.04609 0.16556 0.8716 0.0
C1266 C 0.01423 0.15775 0.92604 0.0
C1267 C 0.99844 0.16174 0.97607 0.0
C1268 C 1.00406 0.16506 0.04138 0.0
C1269 C 0.98913 0.16889 0.08841 0.0
C1270 C 0.96849 0.16925 0.0708 0.0
C1271 C 0.96275 0.16573 1.00616 0.0
C1272 C 0.97763 0.16192 0.95892 0.0
C1273 C 0.04239 0.07901 0.78115 0.0
C1274 C 0.02392 0.07219 0.75274 0.0
C1275 C 0.04392 0.09818 0.81282 0.0
C1276 C 0.0272 0.11172 0.81538 0.0
C1277 C 1.0087 0.10486 0.787 0.0
C1278 C 1.00708 0.08552 0.75666 0.0
C1279 C 0.02872 0.13272 0.84799 0.0
C1280 C 0.01325 0.13892 0.89158 0.0
C1281 C 0.04542 0.14655 0.83824 0.0
C1282 C 0.06252 0.14179 0.79341 0.0
C1283 C 0.05878 0.13635 0.72823 0.0
C1284 C 0.07504 0.13132 0.68717 0.0
C1285 C 0.09512 0.13218 0.7102 0.0
C1286 C 0.09902 0.13796 0.77452 0.0
C1287 C 0.08282 0.14273 0.81604 0.0
H1288 H 0.10767 0.12833 0.67823 0.0
H1289 H 0.95694 0.17221 0.10727 0.0
H1290 H 0.32387 0.06691 0.04242 0.0
H1291 H 0.35259 0.06138 0.97146 0.0
H1292 H 0.32649 1.00367 0.91081 0.0
H1293 H 0.29861 1.00806 0.98984 0.0
H1294 H 0.36211 0.99665 0.90916 0.0
H1295 H 0.3322 0.053 0.80886 0.0
H1296 H 0.31625 0.08674 0.79534 0.0
H1297 H 0.37106 0.11607 0.86487 0.0
H1298 H 0.38727 0.08249 0.87941 0.0
H1299 H 0.44576 0.03284 0.64865 0.0
H1300 H 0.41165 0.03529 0.69813 0.0
H1301 H 0.43359 1.00424 0.86906 0.0
H1302 H 0.46771 1.002 0.81995 0.0
H1303 H 0.39692 0.05418 0.79697 0.0
H1304 H 0.39153 0.97519 0.93977 0.0
H1305 H 0.39726 0.93862 0.91874 0.0
H1306 H 0.40283 0.95063 0.71412 0.0
H1307 H 0.39651 0.98714 0.73335 0.0
C1308 C 0.32412 0.05281 0.01485 0.0
C1309 C 0.30877 0.03772 0.02428 0.0
C1310 C 0.34063 0.04986 0.97219 0.0
C1311 C 0.34216 0.0322 0.93333 0.0
C1312 C 0.32622 0.01749 0.93975 0.0
C1313 C 0.30989 0.02014 0.9846 0.0
C1314 C 0.36082 0.02888 0.88954 0.0
C1315 C 0.36968 1.00935 0.88512 0.0
C1316 C 0.37056 0.04495 0.85391 0.0
C1317 C 0.36088 0.0652 0.84575 0.0
C1318 C 0.3408 0.06664 0.82169 0.0
C1319 C 0.33173 0.08574 0.81376 0.0
C1320 C 0.34262 0.10353 0.8294 0.0
C1321 C 0.36263 0.10227 0.85283 0.0
C1322 C 0.37179 0.08321 0.86082 0.0
C1323 C 0.44333 0.02646 0.6967 0.0
C1324 C 0.45971 0.01727 0.73007 0.0
C1325 C 0.42371 0.02791 0.72528 0.0
C1326 C 0.4196 0.01989 0.78783 0.0
C1327 C 0.43594 0.01043 0.82072 0.0
C1328 C 0.45563 1.00928 0.7926 0.0
C1329 C 0.39871 0.0222 0.81982 0.0
C1330 C 0.38944 0.04154 0.82174 0.0
C1331 C 0.3879 1.00567 0.84933 0.0
C1332 C 0.39389 0.98409 0.8383 0.0
C1333 C 0.39411 0.97009 0.89028 0.0
C1334 C 0.39726 0.94932 0.87857 0.0
C1335 C 0.40054 0.94234 0.81515 0.0
C1336 C 0.40058 0.95611 0.76329 0.0
C1337 C 0.39719 0.97687 0.7746 0.0
H1338 H 0.40306 0.92625 0.80623 0.0
H1339 H 0.33556 0.11831 0.82324 0.0
H1340 H 0.47208 0.29749 0.95291 0.0
H1341 H 0.47744 0.32861 0.89074 0.0
H1342 H 0.54012 0.33128 0.9558 0.0
H1343 H 0.53426 0.30037 0.02181 0.0
H1344 H 0.52693 0.36726 0.96403 0.0
H1345 H 0.52236 0.32141 0.78171 0.0
H1346 H 0.50711 0.29352 0.71633 0.0
H1347 H 0.45125 0.32713 0.69953 0.0
H1348 H 0.46624 0.35531 0.76406 0.0
H1349 H 0.54786 0.45435 0.75904 0.0
H1350 H 0.54683 0.42109 0.81381 0.0
H1351 H 0.48352 0.41373 0.75898 0.0
H1352 H 0.48499 0.44643 0.70125 0.0
H1353 H 0.49938 0.37938 0.74277 0.0
H1354 H 0.50287 0.42303 0.93584 0.0
H1355 H 0.51667 0.44821 0.01469 0.0
H1356 H 0.5746 0.41798 0.01321 0.0
H1357 H 0.56104 0.39234 0.93587 0.0
C1358 C 0.48724 0.30432 0.95274 0.0
C1359 C 0.50277 0.29603 0.99228 0.0
C1360 C 0.49036 0.3223 0.91653 0.0
C1361 C 0.50934 0.33266 0.91675 0.0
C1362 C 0.52525 0.32389 0.95397 0.0
C1363 C 0.52203 0.30588 0.9911 0.0
C1364 C 0.51199 0.35313 0.88201 0.0
C1365 C 0.52125 0.36966 0.91503 0.0
C1366 C 0.5042 0.35701 0.81849 0.0
C1367 C 0.49539 0.3404 0.77791 0.0
C1368 C 0.50684 0.32285 0.7639 0.0
C1369 C 0.49826 0.30703 0.72684 0.0
C1370 C 0.47825 0.30859 0.70356 0.0
C1371 C 0.4668 0.32602 0.71706 0.0
C1372 C 0.47536 0.34196 0.75362 0.0
C1373 C 0.53368 0.44566 0.75875 0.0
C1374 C 0.51638 0.45346 0.72645 0.0
C1375 C 0.533 0.42659 0.79107 0.0
C1376 C 0.51495 0.41458 0.79259 0.0
C1377 C 0.49771 0.42238 0.75966 0.0
C1378 C 0.49846 0.44136 0.72701 0.0
C1379 C 0.51418 0.39361 0.82509 0.0
C1380 C 0.50524 0.37695 0.79155 0.0
C1381 C 0.52237 0.3896 0.88799 0.0
C1382 C 0.53103 0.40598 0.92956 0.0
C1383 C 0.51863 0.42197 0.95164 0.0
C1384 C 0.52636 0.43622 0.99631 0.0
C1385 C 0.54648 0.43475 0.01857 0.0
C1386 C 0.559 0.4191 0.99595 0.0
C1387 C 0.55129 0.40465 0.95197 0.0
H1388 H 0.55235 0.44569 0.05358 0.0
H1389 H 0.4716 0.29628 0.67516 0.0
H1390 H 0.20694 0.48521 0.06244 0.0
H1391 H 0.1765 0.4864 0.99461 0.0
H1392 H 0.20609 0.53028 0.86888 0.0
H1393 H 0.23662 0.52979 0.93957 0.0
H1394 H 0.16903 0.54238 0.88417 0.0
H1395 H 0.19436 0.47721 0.82428 0.0
H1396 H 0.2079 0.44252 0.84014 0.0
H1397 H 0.15284 0.4248 0.93988 0.0
H1398 H 0.13907 0.45947 0.92536 0.0
H1399 H 0.08719 0.5153 0.63571 0.0
H1400 H 0.12085 0.51406 0.68919 0.0
H1401 H 0.09166 0.51278 0.87659 0.0
H1402 H 0.05818 0.5147 0.82405 0.0
H1403 H 0.12983 0.48037 0.82016 0.0
H1404 H 0.10526 0.54903 0.87256 0.0
H1405 H 0.09351 0.58336 0.84272 0.0
H1406 H 0.1506 0.59538 0.74636 0.0
H1407 H 0.16235 0.56074 0.77315 0.0
C1408 C 0.20722 0.49495 0.01982 0.0
C1409 C 0.22455 0.50736 0.00698 0.0
C1410 C 0.18963 0.49553 0.98036 0.0
C1411 C 0.18859 0.50825 0.92516 0.0
C1412 C 0.20615 0.52024 0.91077 0.0
C1413 C 0.22386 0.51976 0.95086 0.0
C1414 C 0.16895 0.50951 0.88509 0.0
C1415 C 0.16068 0.52874 0.86956 0.0
C1416 C 0.15757 0.49189 0.86547 0.0
C1417 C 0.16576 0.471 0.87418 0.0
C1418 C 0.18519 0.46596 0.84997 0.0
C1419 C 0.1929 0.44629 0.85867 0.0
C1420 C 0.18126 0.43148 0.89112 0.0
C1421 C 0.16185 0.43629 0.9148 0.0
C1422 C 0.15408 0.45594 0.90627 0.0
C1423 C 0.08783 0.51504 0.68836 0.0
C1424 C 0.06955 0.51506 0.7251 0.0
C1425 C 0.10724 0.51448 0.719 0.0
C1426 C 0.10911 0.51406 0.78735 0.0
C1427 C 0.09091 0.51351 0.82395 0.0
C1428 C 0.07158 0.51436 0.79352 0.0
C1429 C 0.12982 0.51318 0.82061 0.0
C1430 C 0.13827 0.49398 0.83462 0.0
C1431 C 0.14149 0.53086 0.83778 0.0
C1432 C 0.13435 0.55183 0.82255 0.0
C1433 C 0.11507 0.55866 0.84317 0.0
C1434 C 0.10847 0.5783 0.82728 0.0
C1435 C 0.12121 0.59148 0.79205 0.0
C1436 C 0.14068 0.58513 0.77337 0.0
C1437 C 0.1473 0.56547 0.7889 0.0
H1438 H 0.11605 0.60666 0.77967 0.0
H1439 H 0.18725 0.41626 0.89782 0.0
H1440 H 0.99598 0.79643 0.36233 0.0
H1441 H 1.00089 0.82603 0.43514 0.0
H1442 H 0.02135 0.86221 0.2719 0.0
H1443 H 0.01725 0.83267 0.20059 0.0
H1444 H 0.04196 0.87451 0.36784 0.0
H1445 H 0.96948 0.86228 0.34246 0.0
H1446 H 0.93744 0.84224 0.34989 0.0
H1447 H 0.94541 0.83655 0.55668 0.0
H1448 H 0.97764 0.85636 0.55031 0.0
H1449 H 0.02572 0.9751 0.48403 0.0
H1450 H 0.02427 0.94267 0.42586 0.0
H1451 H 1.00244 0.91277 0.59986 0.0
H1452 H 1.00194 0.946 0.65579 0.0
H1453 H 0.98392 0.89567 0.5068 0.0
H1454 H 0.05556 0.91066 0.53085 0.0
H1455 H 0.08686 0.93192 0.52116 0.0
H1456 H 0.08005 0.93286 0.31331 0.0
H1457 H 0.04857 0.91199 0.32198 0.0
C1458 C 1.00213 0.81052 0.34251 0.0
C1459 C 1.0063 0.81199 0.27535 0.0
C1460 C 1.00459 0.82768 0.38404 0.0
C1461 C 0.01103 0.8469 0.35948 0.0
C1462 C 0.01628 0.84789 0.29306 0.0
C1463 C 0.01396 0.83083 0.25197 0.0
C1464 C 0.01181 0.86617 0.4011 0.0
C1465 C 0.02912 0.87912 0.39771 0.0
C1466 C 0.99543 0.87243 0.44189 0.0
C1467 C 0.97607 0.86058 0.44579 0.0
C1468 C 0.96446 0.85663 0.38943 0.0
C1469 C 0.94626 0.84533 0.39347 0.0
C1470 C 0.93943 0.83807 0.45369 0.0
C1471 C 0.95074 0.84215 0.51004 0.0
C1472 C 0.96897 0.85341 0.50626 0.0
C1473 C 0.02031 0.96173 0.50987 0.0
C1474 C 0.01396 0.96333 0.57524 0.0
C1475 C 0.01986 0.94288 0.47664 0.0
C1476 C 0.01384 0.92465 0.50819 0.0
C1477 C 1.00737 0.92628 0.5736 0.0
C1478 C 1.00734 0.9453 0.60626 0.0
C1479 C 0.01397 0.90415 0.4729 0.0
C1480 C 0.99684 0.89099 0.47742 0.0
C1481 C 0.03048 0.89775 0.43275 0.0
C1482 C 0.04965 0.90991 0.42726 0.0
C1483 C 0.06074 0.9155 0.48324 0.0
C1484 C 0.07848 0.92747 0.4779 0.0
C1485 C 0.08541 0.93374 0.4167 0.0
C1486 C 0.07466 0.928 0.3607 0.0
C1487 C 0.05687 0.9161 0.36581 0.0
H1488 H 0.09913 0.94302 0.41267 0.0
H1489 H 0.92533 0.82933 0.45671 0.0
H1490 H 0.74143 0.99039 0.36297 0.0
H1491 H 0.71184 0.99387 0.43618 0.0
H1492 H 0.67616 0.01763 0.27712 0.0
H1493 H 0.70571 0.01551 0.20614 0.0
H1494 H 0.66388 0.03638 0.37319 0.0
H1495 H 0.67464 0.96392 0.34391 0.0
H1496 H 0.69401 0.93179 0.34955 0.0
H1497 H 0.70046 0.93892 0.55647 0.0
H1498 H 0.68131 0.97122 0.5519 0.0
H1499 H 0.56224 0.0132 0.47233 0.0
H1500 H 0.59581 0.01288 0.42021 0.0
H1501 H 0.62424 1.00109 0.60549 0.0
H1502 H 0.59042 1.00141 0.65833 0.0
H1503 H 0.64173 0.97765 0.50889 0.0
H1504 H 0.6272 0.04881 0.53631 0.0
H1505 H 0.60628 0.07988 0.52747 0.0
H1506 H 0.60541 0.07394 0.31935 0.0
H1507 H 0.62624 0.04277 0.32682 0.0
C1508 C 0.7274 0.99672 0.34394 0.0
C1509 C 0.72614 1.00226 0.27768 0.0
C1510 C 0.71022 0.99841 0.3858 0.0
C1511 C 0.69111 1.00548 0.36263 0.0
C1512 C 0.69031 0.01194 0.29732 0.0
C1513 C 0.70741 0.01051 0.2561 0.0
C1514 C 0.67183 1.00603 0.40457 0.0
C1515 C 0.6591 0.02335 0.40217 0.0
C1516 C 0.66529 0.98946 0.44461 0.0
C1517 C 0.67677 0.97008 0.44744 0.0
C1518 C 0.68031 0.95869 0.39052 0.0
C1519 C 0.69123 0.94044 0.39354 0.0
C1520 C 0.69852 0.93335 0.4533 0.0
C1521 C 0.69485 0.94446 0.5102 0.0
C1522 C 0.68395 0.96273 0.50744 0.0
C1523 C 0.57556 0.0105 0.50238 0.0
C1524 C 0.57338 1.00745 0.57007 0.0
C1525 C 0.59492 0.01043 0.47228 0.0
C1526 C 0.61292 1.00723 0.50853 0.0
C1527 C 0.61079 1.00372 0.57598 0.0
C1528 C 0.59136 1.00399 0.60635 0.0
C1529 C 0.63374 1.00769 0.47572 0.0
C1530 C 0.64669 0.99065 0.48006 0.0
C1531 C 0.64039 0.02441 0.43684 0.0
C1532 C 0.62818 0.04336 0.43216 0.0
C1533 C 0.62247 0.05407 0.48866 0.0
C1534 C 0.61063 0.0717 0.48392 0.0
C1535 C 0.60444 0.07882 0.42296 0.0
C1536 C 0.6102 0.06839 0.36656 0.0
C1537 C 0.62207 0.05078 0.37099 0.0
H1538 H 0.59524 0.09244 0.41943 0.0
H1539 H 0.70697 0.91922 0.45554 0.0
H1540 H 0.5033 0.72292 0.28036 0.0
H1541 H 0.4976 0.69206 0.34753 0.0
H1542 H 0.56249 0.68146 0.35126 0.0
H1543 H 0.56823 0.71224 0.28656 0.0
H1544 H 0.53878 0.6467 0.30987 0.0
H1545 H 0.53849 0.69779 0.48126 0.0
H1546 H 0.52514 0.72795 0.53851 0.0
H1547 H 0.46688 0.69804 0.56111 0.0
H1548 H 0.47977 0.66779 0.50289 0.0
H1549 H 0.55043 0.56061 0.51164 0.0
H1550 H 0.55213 0.5937 0.45748 0.0
H1551 H 0.49357 0.60948 0.53919 0.0
H1552 H 0.49249 0.57669 0.59664 0.0
H1553 H 0.51065 0.6423 0.53346 0.0
H1554 H 0.50386 0.59578 0.35926 0.0
H1555 H 0.50954 0.56672 0.28516 0.0
H1556 H 0.57121 0.58719 0.2517 0.0
H1557 H 0.56579 0.61657 0.325 0.0
C1558 C 0.51638 0.71441 0.29741 0.0
C1559 C 0.53626 0.72033 0.27799 0.0
C1560 C 0.51311 0.69656 0.3353 0.0
C1561 C 0.5296 0.68407 0.35436 0.0
C1562 C 0.54943 0.69051 0.33719 0.0
C1563 C 0.5527 0.70833 0.30037 0.0
C1564 C 0.52659 0.66392 0.38968 0.0
C1565 C 0.53286 0.6458 0.35914 0.0
C1566 C 0.5178 0.6623 0.45259 0.0
C1567 C 0.51002 0.68061 0.48682 0.0
C1568 C 0.52273 0.69775 0.49743 0.0
C1569 C 0.51527 0.71484 0.53037 0.0
C1570 C 0.49515 0.71494 0.55322 0.0
C1571 C 0.48245 0.69795 0.54326 0.0
C1572 C 0.48983 0.68083 0.51031 0.0
C1573 C 0.53786 0.57107 0.51822 0.0
C1574 C 0.52124 0.5656 0.55855 0.0
C1575 C 0.5387 0.59015 0.48623 0.0
C1576 C 0.52267 0.60443 0.49136 0.0
C1577 C 0.50624 0.59912 0.53306 0.0
C1578 C 0.5056 0.58016 0.56625 0.0
C1579 C 0.52324 0.62473 0.45417 0.0
C1580 C 0.51654 0.64297 0.48419 0.0
C1581 C 0.53068 0.62641 0.38912 0.0
C1582 C 0.53449 0.6082 0.34818 0.0
C1583 C 0.51869 0.59396 0.33658 0.0
C1584 C 0.52181 0.57755 0.29432 0.0
C1585 C 0.54073 0.5751 0.26379 0.0
C1586 C 0.55656 0.58911 0.27536 0.0
C1587 C 0.55345 0.6057 0.31703 0.0
H1588 H 0.54314 0.56232 0.23129 0.0
H1589 H 0.48942 0.72817 0.57881 0.0
H1590 H 0.79036 0.53533 0.35077 0.0
H1591 H 0.82149 0.53067 0.41667 0.0
H1592 H 0.85728 0.5272 0.24056 0.0
H1593 H 0.82651 0.52954 0.17628 0.0
H1594 H 0.87503 0.50532 0.30785 0.0
H1595 H 0.85177 0.57055 0.35501 0.0
H1596 H 0.8313 0.59975 0.39182 0.0
H1597 H 0.83422 0.57801 0.58853 0.0
H1598 H 0.85321 0.54767 0.55229 0.0
H1599 H 0.95483 0.55315 0.56523 0.0
H1600 H 0.92323 0.55513 0.50257 0.0
H1601 H 0.9264 0.49039 0.46393 0.0
H1602 H 0.95925 0.48908 0.52096 0.0
H1603 H 0.88874 0.54609 0.50608 0.0
H1604 H 0.89612 0.47449 0.33131 0.0
H1605 H 0.92134 0.45838 0.25888 0.0
H1606 H 0.96025 0.51126 0.27384 0.0
H1607 H 0.93495 0.52812 0.34434 0.0
C1608 C 0.80482 0.53315 0.32618 0.0
C1609 C 0.80563 0.5334 0.25743 0.0
C1610 C 0.82286 0.53081 0.36415 0.0
C1611 C 0.8424 0.52898 0.33474 0.0
C1612 C 0.84288 0.52853 0.26613 0.0
C1613 C 0.825 0.53031 0.2287 0.0
C1614 C 0.86235 0.52744 0.37361 0.0
C1615 C 0.87786 0.51429 0.35133 0.0
C1616 C 0.86698 0.53956 0.42943 0.0
C1617 C 0.85364 0.55656 0.45062 0.0
C1618 C 0.84748 0.57158 0.40583 0.0
C1619 C 0.83606 0.58832 0.4266 0.0
C1620 C 0.83116 0.59054 0.49238 0.0
C1621 C 0.83757 0.57597 0.53743 0.0
C1622 C 0.84851 0.5589 0.51671 0.0
C1623 C 0.94914 0.53945 0.54176 0.0
C1624 C 0.96008 0.5211 0.54727 0.0
C1625 C 0.93063 0.54045 0.50655 0.0
C1626 C 0.92188 0.52298 0.47661 0.0
C1627 C 0.93262 0.50443 0.48386 0.0
C1628 C 0.95146 0.50359 0.51769 0.0
C1629 C 0.90156 0.5242 0.43959 0.0
C1630 C 0.8859 0.53708 0.46269 0.0
C1631 C 0.89745 0.51324 0.38095 0.0
C1632 C 0.9137 0.50247 0.3441 0.0
C1633 C 0.91008 0.4827 0.31939 0.0
C1634 C 0.92429 0.47353 0.27803 0.0
C1635 C 0.94233 0.48386 0.26161 0.0
C1636 C 0.94625 0.50333 0.28673 0.0
C1637 C 0.93197 0.51271 0.32737 0.0
H1638 H 0.95335 0.47671 0.22977 0.0
H1639 H 0.82258 0.60367 0.50857 0.0
loop_
_geom_bond_atom_site_label_1
_geom_bond_atom_site_label_2
_geom_bond_distance
_geom_bond_site_symmetry_2
_ccdc_geom_bond_type
H0 C7 0.929 . S
H1 C10 0.930 . S
H2 C12 0.929 . S
H3 C4 0.969 . S
C4 H3 0.969 . S
C4 O5 1.550 . S
C4 H6 0.973 . S
O5 C4 1.550 . S
O5 C11 1.412 . S
H6 C4 0.973 . S
C7 H0 0.929 . S
C7 C8 1.400 . S
C7 C9 1.364 . S
C8 C7 1.400 . S
C8 C12 1.377 . S
C9 C7 1.364 . S
C9 C10 1.374 . S
C10 H1 0.930 . S
C10 C9 1.374 . S
C10 C11 1.383 . S
C11 O5 1.412 . S
C11 C10 1.383 . S
C11 C12 1.394 . S
C12 H2 0.929 . S
C12 C8 1.377 . S
C12 C11 1.394 . S
H13 C20 0.929 . S
H14 C23 0.930 . S
H15 C25 0.929 . S
H16 C17 0.969 . S
C17 H16 0.969 . S
C17 O18 1.550 . S
C17 H19 0.973 . S
O18 C17 1.550 . S
O18 C24 1.412 . S
H19 C17 0.973 . S
C20 H13 0.929 . S
C20 C21 1.400 . S
C20 C22 1.364 . S
C21 C20 1.400 . S
C21 C25 1.377 . S
C22 C20 1.364 . S
C22 C23 1.374 . S
C23 H14 0.930 . S
C23 C22 1.374 . S
C23 C24 1.383 . S
C24 O18 1.412 . S
C24 C23 1.383 . S
C24 C25 1.394 . S
C25 H15 0.929 . S
C25 C21 1.377 . S
C25 C24 1.394 . S
H26 C33 0.929 . S
H27 C36 0.930 . S
H28 C38 0.929 . S
H29 C30 0.969 . S
C30 H29 0.969 . S
C30 O31 1.550 . S
C30 H32 0.973 . S
O31 C30 1.550 . S
O31 C37 1.412 . S
H32 C30 0.973 . S
C33 H26 0.929 . S
C33 C34 1.400 . S
C33 C35 1.364 . S
C34 C33 1.400 . S
C34 C38 1.377 . S
C35 C33 1.364 . S
C35 C36 1.374 . S
C36 H27 0.930 . S
C36 C35 1.374 . S
C36 C37 1.383 . S
C37 O31 1.412 . S
C37 C36 1.383 . S
C37 C38 1.394 . S
C38 H28 0.929 . S
C38 C34 1.377 . S
C38 C37 1.394 . S
H39 C46 0.929 . S
H40 C49 0.930 . S
H41 C51 0.929 . S
H42 C43 0.969 . S
C43 H42 0.969 . S
C43 O44 1.550 . S
C43 H45 0.973 . S
O44 C43 1.550 . S
O44 C50 1.412 . S
H45 C43 0.973 . S
C46 H39 0.929 . S
C46 C47 1.400 . S
C46 C48 1.364 . S
C47 C46 1.400 . S
C47 C51 1.377 . S
C48 C46 1.364 . S
C48 C49 1.374 . S
C49 H40 0.930 . S
C49 C48 1.374 . S
C49 C50 1.383 . S
C50 O44 1.412 . S
C50 C49 1.383 . S
C50 C51 1.394 . S
C51 H41 0.929 . S
C51 C47 1.377 . S
C51 C50 1.394 . S
H52 C59 0.929 . S
H53 C62 0.930 . S
H54 C64 0.929 . S
H55 C56 0.969 . S
C56 H55 0.969 . S
C56 O57 1.550 . S
C56 H58 0.973 . S
O57 C56 1.550 . S
O57 C63 1.412 . S
H58 C56 0.973 . S
C59 H52 0.929 . S
C59 C60 1.400 1_554 S
C59 C61 1.364 . S
C60 C59 1.400 1_556 S
C60 C64 1.377 . S
C61 C59 1.364 . S
C61 C62 1.374 . S
C62 H53 0.930 . S
C62 C61 1.374 . S
C62 C63 1.383 . S
C63 O57 1.412 . S
C63 C62 1.383 . S
C63 C64 1.394 1_554 S
C64 H54 0.929 . S
C64 C60 1.377 . S
C64 C63 1.394 1_556 S
H65 C72 0.929 . S
H66 C75 0.930 . S
H67 C77 0.929 . S
H68 C69 0.969 . S
C69 H68 0.969 . S
C69 O70 1.550 . S
C69 H71 0.973 . S
O70 C69 1.550 . S
O70 C76 1.412 . S
H71 C69 0.973 . S
C72 H65 0.929 . S
C72 C73 1.400 1_554 S
C72 C74 1.364 . S
C73 C72 1.400 1_556 S
C73 C77 1.377 . S
C74 C72 1.364 . S
C74 C75 1.374 . S
C75 H66 0.930 . S
C75 C74 1.374 . S
C75 C76 1.383 . S
C76 O70 1.412 . S
C76 C75 1.383 . S
C76 C77 1.394 1_554 S
C77 H67 0.929 . S
C77 C73 1.377 . S
C77 C76 1.394 1_556 S
H78 C85 0.929 . S
H79 C88 0.930 . S
H80 C90 0.929 . S
H81 C82 0.969 . S
C82 H81 0.969 . S
C82 O83 1.550 . S
C82 H84 0.973 . S
O83 C82 1.550 . S
O83 C89 1.412 . S
H84 C82 0.973 . S
C85 H78 0.929 . S
C85 C86 1.400 1_554 S
C85 C87 1.364 . S
C86 C85 1.400 1_556 S
C86 C90 1.377 . S
C87 C85 1.364 . S
C87 C88 1.374 . S
C88 H79 0.930 . S
C88 C87 1.374 . S
C88 C89 1.383 . S
C89 O83 1.412 . S
C89 C88 1.383 . S
C89 C90 1.394 1_554 S
C90 H80 0.929 . S
C90 C86 1.377 . S
C90 C89 1.394 1_556 S
H91 C98 0.929 . S
H92 C101 0.930 . S
H93 C103 0.929 . S
H94 C95 0.969 . S
C95 H94 0.969 . S
C95 O96 1.550 . S
C95 H97 0.973 . S
O96 C95 1.550 . S
O96 C102 1.412 . S
H97 C95 0.973 . S
C98 H91 0.929 . S
C98 C99 1.400 1_554 S
C98 C100 1.364 . S
C99 C98 1.400 1_556 S
C99 C103 1.377 . S
C100 C98 1.364 . S
C100 C101 1.374 . S
C101 H92 0.930 . S
C101 C100 1.374 . S
C101 C102 1.383 . S
C102 O96 1.412 . S
C102 C101 1.383 . S
C102 C103 1.394 1_554 S
C103 H93 0.929 . S
C103 C99 1.377 . S
C103 C102 1.394 1_556 S
Tb104 N133 2.617 . S
Tb104 N139 2.572 . S
Tb104 O148 2.465 1_655 S
Tb104 O149 2.387 1_545 S
Tb104 O151 2.428 . S
Tb104 O152 2.308 1_655 S
Tb104 O156 2.349 1_655 S
Tb104 O159 2.393 . S
Tb104 C168 2.802 . S
C105 N106 1.379 . S
C105 C108 1.416 . S
C105 C112 1.424 . S
N106 C105 1.379 . S
N106 C109 1.339 . S
N106 Tb115 2.617 1_545 S
C107 C109 1.403 . S
C107 C110 1.339 . S
C107 H127 0.930 . S
C108 C105 1.416 . S
C108 C110 1.416 . S
C108 C114 1.448 . S
C109 N106 1.339 . S
C109 C107 1.403 . S
C109 H120 0.913 1_545 S
C110 C107 1.339 . S
C110 C108 1.416 . S
C110 H131 0.930 . S
C111 C112 1.413 . S
C111 C113 1.427 . S
C111 C117 1.416 . S
C112 C105 1.424 . S
C112 C111 1.413 . S
C112 N116 1.361 . S
C113 C111 1.427 . S
C113 C114 1.328 . S
C113 H128 0.929 . S
C114 C108 1.448 . S
C114 C113 1.328 . S
C114 H129 0.930 . S
Tb115 N106 2.617 1_565 S
Tb115 N116 2.572 1_565 S
Tb115 O150 2.349 . S
Tb115 O153 2.393 . S
Tb115 O154 2.465 . S
Tb115 O155 2.387 1_565 S
Tb115 O157 2.428 . S
Tb115 O158 2.308 1_465 S
Tb115 C179 2.802 . S
N116 C112 1.361 . S
N116 Tb115 2.572 1_545 S
N116 C118 1.340 . S
C117 C111 1.416 . S
C117 C119 1.332 . S
C117 H125 0.931 . S
C118 N116 1.340 . S
C118 C119 1.407 . S
C118 H124 0.930 1_455 S
C119 C117 1.332 . S
C119 C118 1.407 . S
C119 H121 0.929 1_455 S
H120 C109 0.913 1_565 S
H121 C119 0.929 1_655 S
H122 C137 0.930 . S
H123 C144 0.934 . S
H124 C118 0.930 1_655 S
H125 C117 0.931 . S
H126 C140 0.930 . S
H127 C107 0.930 . S
H128 C113 0.929 . S
H129 C114 0.930 . S
H130 C135 0.930 . S
H131 C110 0.930 . S
H132 C143 0.931 . S
N133 Tb104 2.617 . S
N133 C134 1.379 . S
N133 C137 1.334 . S
C134 N133 1.379 . S
C134 C136 1.416 1_545 S
C134 C142 1.424 . S
C135 H130 0.930 . S
C135 C137 1.390 . S
C135 C138 1.337 1_545 S
C136 C134 1.416 1_565 S
C136 C138 1.417 . S
C136 C169 1.448 . S
C137 H122 0.930 . S
C137 N133 1.334 . S
C137 C135 1.390 . S
C138 C135 1.337 1_565 S
C138 C136 1.417 . S
C138 H145 0.932 . S
N139 Tb104 2.572 . S
N139 C140 1.340 1_655 S
N139 C142 1.361 . S
C140 H126 0.930 . S
C140 N139 1.340 1_455 S
C140 C144 1.390 1_545 S
C141 C142 1.413 1_565 S
C141 C143 1.416 . S
C141 C170 1.427 . S
C142 C134 1.424 . S
C142 N139 1.361 . S
C142 C141 1.413 1_545 S
C143 H132 0.931 . S
C143 C141 1.416 . S
C143 C144 1.347 1_655 S
C144 H123 0.934 . S
C144 C140 1.390 1_565 S
C144 C143 1.347 1_455 S
H145 C138 0.932 . S
H146 C169 0.930 . S
H147 C170 0.929 . S
O148 Tb104 2.465 1_455 S
O148 C168 1.264 1_455 S
O149 Tb104 2.387 1_565 S
O149 C160 1.264 . S
O150 Tb115 2.349 . S
O150 C160 1.243 1_455 S
O151 Tb104 2.428 . S
O151 C168 1.256 . S
O152 Tb104 2.308 1_455 S
O152 C167 1.266 . S
O153 Tb115 2.393 . S
O153 C167 1.248 1_565 S
O154 Tb115 2.465 . S
O154 C179 1.264 . S
O155 Tb115 2.387 1_545 S
O155 C171 1.264 . S
O156 Tb104 2.349 1_455 S
O156 C171 1.243 . S
O157 Tb115 2.428 . S
O157 C179 1.256 . S
O158 Tb115 2.308 1_645 S
O158 C178 1.266 . S
O159 Tb104 2.393 . S
O159 C178 1.248 . S
C160 O149 1.264 . S
C160 O150 1.243 1_655 S
C161 C164 1.399 . S
C161 C166 1.348 1_655 S
C161 C168 1.496 . S
C162 C163 1.399 . S
C162 C166 1.386 1_655 S
C163 C162 1.399 . S
C163 C165 1.380 . S
C163 H180 0.929 . S
C164 C161 1.399 . S
C164 C165 1.392 . S
C164 H181 0.929 . S
C165 C163 1.380 . S
C165 C164 1.392 . S
C165 H182 0.929 . S
C166 C161 1.348 1_455 S
C166 C162 1.386 1_455 S
C166 H183 0.972 . S
C167 O152 1.266 . S
C167 O153 1.248 1_545 S
C168 Tb104 2.802 . S
C168 O148 1.264 1_655 S
C168 O151 1.256 . S
C168 C161 1.496 . S
C169 C136 1.448 . S
C169 H146 0.930 . S
C169 C170 1.328 . S
C170 C141 1.427 . S
C170 H147 0.929 . S
C170 C169 1.328 . S
C171 O155 1.264 . S
C171 O156 1.243 . S
C172 C175 1.399 . S
C172 C176 1.383 . S
C172 C179 1.496 . S
C173 C174 1.399 . S
C173 C176 1.389 . S
C174 C173 1.399 . S
C174 C177 1.380 . S
C174 H184 0.929 . S
C175 C172 1.399 . S
C175 C177 1.392 . S
C175 H185 0.929 . S
C176 C172 1.383 . S
C176 C173 1.389 . S
C176 H186 0.892 1_455 S
C177 C174 1.380 . S
C177 C175 1.392 . S
C177 H187 0.929 . S
C178 O158 1.266 . S
C178 O159 1.248 . S
C179 Tb115 2.802 . S
C179 O154 1.264 . S
C179 O157 1.256 . S
C179 C172 1.496 . S
H180 C163 0.929 . S
H181 C164 0.929 . S
H182 C165 0.929 . S
H183 C166 0.972 . S
H184 C174 0.929 . S
H185 C175 0.929 . S
H186 C176 0.892 1_655 S
H187 C177 0.929 . S
Tb188 N217 2.617 . S
Tb188 N223 2.572 . S
Tb188 O232 2.465 . S
Tb188 O233 2.387 . S
Tb188 O235 2.428 . S
Tb188 O236 2.308 . S
Tb188 O240 2.349 1_545 S
Tb188 O243 2.393 . S
Tb188 C252 2.802 . S
C189 N190 1.379 . S
C189 C192 1.416 . S
C189 C196 1.424 . S
N190 C189 1.379 . S
N190 C193 1.334 . S
N190 Tb199 2.617 . S
C191 C193 1.390 . S
C191 C194 1.339 . S
C191 H211 0.930 . S
C192 C189 1.416 . S
C192 C194 1.416 . S
C192 C198 1.448 . S
C193 N190 1.334 . S
C193 C191 1.390 . S
C193 H204 0.930 . S
C194 C191 1.339 . S
C194 C192 1.416 . S
C194 H215 0.930 . S
C195 C196 1.413 . S
C195 C197 1.427 . S
C195 C201 1.416 . S
C196 C189 1.424 . S
C196 C195 1.413 . S
C196 N200 1.361 . S
C197 C195 1.427 . S
C197 C198 1.328 . S
C197 H212 0.929 . S
C198 C192 1.448 . S
C198 C197 1.328 . S
C198 H213 0.930 . S
Tb199 N190 2.617 . S
Tb199 N200 2.572 . S
Tb199 O234 2.349 1_565 S
Tb199 O237 2.393 . S
Tb199 O238 2.472 . S
Tb199 O239 2.387 . S
Tb199 O241 2.428 . S
Tb199 O242 2.308 1_565 S
Tb199 C263 2.802 . S
N200 C196 1.361 . S
N200 Tb199 2.572 . S
N200 C202 1.340 . S
C201 C195 1.416 . S
C201 C203 1.332 . S
C201 H209 0.931 . S
C202 N200 1.340 . S
C202 C203 1.407 . S
C202 H208 0.930 . S
C203 C201 1.332 . S
C203 C202 1.407 . S
C203 H205 0.929 . S
H204 C193 0.930 . S
H205 C203 0.929 . S
H206 C221 0.930 . S
H207 C228 0.929 . S
H208 C202 0.930 . S
H209 C201 0.931 . S
H210 C224 0.930 . S
H211 C191 0.930 . S
H212 C197 0.929 . S
H213 C198 0.930 . S
H214 C219 0.930 . S
H215 C194 0.930 . S
H216 C227 0.931 . S
N217 Tb188 2.617 . S
N217 C218 1.379 . S
N217 C221 1.334 . S
C218 N217 1.379 . S
C218 C220 1.416 . S
C218 C226 1.424 . S
C219 H214 0.930 . S
C219 C221 1.390 . S
C219 C222 1.339 . S
C220 C218 1.416 . S
C220 C222 1.416 . S
C220 C253 1.448 . S
C221 H206 0.930 . S
C221 N217 1.334 . S
C221 C219 1.390 . S
C222 C219 1.339 . S
C222 C220 1.416 . S
C222 H229 0.930 . S
N223 Tb188 2.572 . S
N223 C224 1.340 . S
N223 C226 1.361 . S
C224 H210 0.930 . S
C224 N223 1.340 . S
C224 C228 1.407 . S
C225 C226 1.413 . S
C225 C227 1.416 . S
C225 C254 1.427 . S
C226 C218 1.424 . S
C226 N223 1.361 . S
C226 C225 1.413 . S
C227 H216 0.931 . S
C227 C225 1.416 . S
C227 C228 1.332 . S
C228 H207 0.929 . S
C228 C224 1.407 . S
C228 C227 1.332 . S
H229 C222 0.930 . S
H230 C253 0.930 . S
H231 C254 0.929 . S
O232 Tb188 2.465 . S
O232 C252 1.264 . S
O233 Tb188 2.387 . S
O233 C244 1.264 . S
O234 Tb199 2.349 1_545 S
O234 C244 1.243 . S
O235 Tb188 2.428 . S
O235 C252 1.256 . S
O236 Tb188 2.308 . S
O236 C251 1.266 . S
O237 Tb199 2.393 . S
O237 C251 1.248 1_565 S
O238 Tb199 2.472 . S
O238 C263 1.268 . S
O239 Tb199 2.387 . S
O239 C255 1.264 . S
O240 Tb188 2.349 1_565 S
O240 C255 1.243 . S
O241 Tb199 2.428 . S
O241 C263 1.256 . S
O242 Tb199 2.308 1_545 S
O242 C262 1.266 . S
O243 Tb188 2.393 . S
O243 C262 1.248 . S
C244 O233 1.264 . S
C244 O234 1.243 . S
C245 C248 1.399 . S
C245 C250 1.383 . S
C245 C252 1.496 . S
C246 C247 1.399 . S
C246 C250 1.389 . S
C247 C246 1.399 . S
C247 C249 1.380 . S
C247 H264 0.929 . S
C248 C245 1.399 . S
C248 C249 1.392 . S
C248 H265 0.929 . S
C249 C247 1.380 . S
C249 C248 1.392 . S
C249 H266 0.929 1_556 S
C250 C245 1.383 . S
C250 C246 1.389 . S
C250 H267 0.931 . S
C251 O236 1.266 . S
C251 O237 1.248 1_545 S
C252 Tb188 2.802 . S
C252 O232 1.264 . S
C252 O235 1.256 . S
C252 C245 1.496 . S
C253 C220 1.448 . S
C253 H230 0.930 . S
C253 C254 1.328 . S
C254 C225 1.427 . S
C254 H231 0.929 . S
C254 C253 1.328 . S
C255 O239 1.264 . S
C255 O240 1.243 . S
C256 C259 1.405 . S
C256 C260 1.376 1_565 S
C256 C263 1.499 . S
C257 C258 1.399 . S
C257 C260 1.389 . S
C258 C257 1.399 . S
C258 C261 1.380 1_545 S
C258 H268 0.929 . S
C259 C256 1.405 . S
C259 C261 1.392 . S
C259 H269 0.929 . S
C260 C256 1.376 1_545 S
C260 C257 1.389 . S
C260 H270 0.931 . S
C261 C258 1.380 1_565 S
C261 C259 1.392 . S
C261 H271 0.929 . S
C262 O242 1.266 . S
C262 O243 1.248 . S
C263 Tb199 2.802 . S
C263 O238 1.268 . S
C263 O241 1.256 . S
C263 C256 1.499 . S
H264 C247 0.929 . S
H265 C248 0.929 . S
H266 C249 0.929 1_554 S
H267 C250 0.931 . S
H268 C258 0.929 . S
H269 C259 0.929 . S
H270 C260 0.931 . S
H271 C261 0.929 . S
Tb272 N301 2.617 . S
Tb272 N307 2.572 . S
Tb272 O316 2.465 . S
Tb272 O317 2.387 . S
Tb272 O319 2.428 . S
Tb272 O320 2.308 . S
Tb272 O324 2.349 . S
Tb272 O327 2.393 . S
Tb272 C336 2.802 . S
C273 N274 1.379 . S
C273 C276 1.416 . S
C273 C280 1.424 . S
N274 C273 1.379 . S
N274 C277 1.334 . S
N274 Tb283 2.617 . S
C275 C277 1.390 . S
C275 C278 1.339 . S
C275 H295 0.930 . S
C276 C273 1.416 . S
C276 C278 1.416 . S
C276 C282 1.448 . S
C277 N274 1.334 . S
C277 C275 1.390 . S
C277 H288 0.930 . S
C278 C275 1.339 . S
C278 C276 1.416 . S
C278 H299 0.930 . S
C279 C280 1.413 . S
C279 C281 1.427 . S
C279 C285 1.416 . S
C280 C273 1.424 . S
C280 C279 1.413 . S
C280 N284 1.361 . S
C281 C279 1.427 . S
C281 C282 1.328 . S
C281 H296 0.929 . S
C282 C276 1.448 . S
C282 C281 1.328 . S
C282 H297 0.930 . S
Tb283 N274 2.617 . S
Tb283 N284 2.572 . S
Tb283 O318 2.349 . S
Tb283 O321 2.393 . S
Tb283 O322 2.465 . S
Tb283 O323 2.387 . S
Tb283 O325 2.428 . S
Tb283 O326 2.308 . S
Tb283 C347 2.802 . S
N284 C280 1.361 . S
N284 Tb283 2.572 . S
N284 C286 1.340 . S
C285 C279 1.416 . S
C285 C287 1.332 . S
C285 H293 0.931 . S
C286 N284 1.340 . S
C286 C287 1.407 . S
C286 H292 0.930 . S
C287 C285 1.332 . S
C287 C286 1.407 . S
C287 H289 0.929 . S
H288 C277 0.930 . S
H289 C287 0.929 . S
H290 C305 0.930 . S
H291 C312 0.929 . S
H292 C286 0.930 . S
H293 C285 0.931 . S
H294 C308 0.930 . S
H295 C275 0.930 . S
H296 C281 0.929 . S
H297 C282 0.930 . S
H298 C303 0.930 . S
H299 C278 0.930 . S
H300 C311 0.931 . S
N301 Tb272 2.617 . S
N301 C302 1.379 . S
N301 C305 1.334 . S
C302 N301 1.379 . S
C302 C304 1.416 . S
C302 C310 1.424 . S
C303 H298 0.930 . S
C303 C305 1.390 . S
C303 C306 1.339 . S
C304 C302 1.416 . S
C304 C306 1.416 . S
C304 C337 1.448 . S
C305 H290 0.930 . S
C305 N301 1.334 . S
C305 C303 1.390 . S
C306 C303 1.339 . S
C306 C304 1.416 . S
C306 H313 0.930 . S
N307 Tb272 2.572 . S
N307 C308 1.340 . S
N307 C310 1.361 . S
C308 H294 0.930 . S
C308 N307 1.340 . S
C308 C312 1.407 . S
C309 C310 1.413 . S
C309 C311 1.416 . S
C309 C338 1.427 . S
C310 C302 1.424 . S
C310 N307 1.361 . S
C310 C309 1.413 . S
C311 H300 0.931 . S
C311 C309 1.416 . S
C311 C312 1.332 . S
C312 H291 0.929 . S
C312 C308 1.407 . S
C312 C311 1.332 . S
H313 C306 0.930 . S
H314 C337 0.930 . S
H315 C338 0.929 . S
O316 Tb272 2.465 . S
O316 C336 1.264 . S
O317 Tb272 2.387 . S
O317 C328 1.264 . S
O318 Tb283 2.349 . S
O318 C328 1.243 . S
O319 Tb272 2.428 . S
O319 C336 1.256 . S
O320 Tb272 2.308 . S
O320 C335 1.266 . S
O321 Tb283 2.393 . S
O321 C335 1.248 . S
O322 Tb283 2.465 . S
O322 C347 1.264 . S
O323 Tb283 2.387 . S
O323 C339 1.264 . S
O324 Tb272 2.349 . S
O324 C339 1.243 . S
O325 Tb283 2.428 . S
O325 C347 1.256 . S
O326 Tb283 2.308 . S
O326 C346 1.266 . S
O327 Tb272 2.393 . S
O327 C346 1.248 . S
C328 O317 1.264 . S
C328 O318 1.243 . S
C329 C332 1.399 . S
C329 C334 1.383 . S
C329 C336 1.496 . S
C330 C331 1.399 . S
C330 C334 1.389 . S
C331 C330 1.399 . S
C331 C333 1.380 . S
C331 H348 0.929 . S
C332 C329 1.399 . S
C332 C333 1.392 . S
C332 H349 0.929 . S
C333 C331 1.380 . S
C333 C332 1.392 . S
C333 H350 0.929 . S
C334 C329 1.383 . S
C334 C330 1.389 . S
C334 H351 0.931 . S
C335 O320 1.266 . S
C335 O321 1.248 . S
C336 Tb272 2.802 . S
C336 O316 1.264 . S
C336 O319 1.256 . S
C336 C329 1.496 . S
C337 C304 1.448 . S
C337 H314 0.930 . S
C337 C338 1.328 . S
C338 C309 1.427 . S
C338 H315 0.929 . S
C338 C337 1.328 . S
C339 O323 1.264 . S
C339 O324 1.243 . S
C340 C343 1.399 . S
C340 C344 1.383 . S
C340 C347 1.496 . S
C341 C342 1.399 . S
C341 C344 1.389 . S
C342 C341 1.399 . S
C342 C345 1.380 . S
C342 H352 0.929 . S
C343 C340 1.399 . S
C343 C345 1.392 . S
C343 H353 0.929 . S
C344 C340 1.383 . S
C344 C341 1.389 . S
C344 H354 0.931 . S
C345 C342 1.380 . S
C345 C343 1.392 . S
C345 H355 0.929 . S
C346 O326 1.266 . S
C346 O327 1.248 . S
C347 Tb283 2.802 . S
C347 O322 1.264 . S
C347 O325 1.256 . S
C347 C340 1.496 . S
H348 C331 0.929 . S
H349 C332 0.929 . S
H350 C333 0.929 . S
H351 C334 0.931 . S
H352 C342 0.929 . S
H353 C343 0.929 . S
H354 C344 0.931 . S
H355 C345 0.929 . S
Tb356 N385 2.617 . S
Tb356 N391 2.572 . S
Tb356 O400 2.465 . S
Tb356 O401 2.387 1_455 S
Tb356 O403 2.428 . S
Tb356 O404 2.308 . S
Tb356 O408 2.349 . S
Tb356 O411 2.393 . S
Tb356 C420 2.802 . S
C357 N358 1.365 1_455 S
C357 C360 1.416 . S
C357 C364 1.424 . S
N358 C357 1.365 1_655 S
N358 C361 1.338 . S
N358 Tb367 2.625 . S
C359 C361 1.390 1_455 S
C359 C362 1.339 . S
C359 H379 0.930 . S
C360 C357 1.416 . S
C360 C362 1.416 . S
C360 C366 1.448 . S
C361 N358 1.338 . S
C361 C359 1.390 1_655 S
C361 H372 0.930 . S
C362 C359 1.339 . S
C362 C360 1.416 . S
C362 H383 0.930 . S
C363 C364 1.413 . S
C363 C365 1.427 . S
C363 C369 1.416 . S
C364 C357 1.424 . S
C364 C363 1.413 . S
C364 N368 1.361 . S
C365 C363 1.427 . S
C365 C366 1.328 . S
C365 H380 0.929 . S
C366 C360 1.448 . S
C366 C365 1.328 . S
C366 H381 0.930 . S
Tb367 N358 2.625 . S
Tb367 N368 2.572 1_655 S
Tb367 O402 2.349 . S
Tb367 O405 2.393 . S
Tb367 O406 2.465 . S
Tb367 O407 2.387 1_655 S
Tb367 O409 2.428 . S
Tb367 O410 2.308 1_655 S
Tb367 C431 2.802 . S
N368 C364 1.361 . S
N368 Tb367 2.572 1_455 S
N368 C370 1.340 . S
C369 C363 1.416 . S
C369 C371 1.332 . S
C369 H377 0.931 . S
C370 N368 1.340 . S
C370 C371 1.407 . S
C370 H376 0.943 . S
C371 C369 1.332 . S
C371 C370 1.407 . S
C371 H373 0.929 . S
H372 C361 0.930 . S
H373 C371 0.929 . S
H374 C389 0.930 . S
H375 C396 0.929 . S
H376 C370 0.943 . S
H377 C369 0.931 . S
H378 C392 0.930 . S
H379 C359 0.930 . S
H380 C365 0.929 . S
H381 C366 0.930 . S
H382 C387 0.930 . S
H383 C362 0.930 . S
H384 C395 0.931 . S
N385 Tb356 2.617 . S
N385 C386 1.379 . S
N385 C389 1.334 . S
C386 N385 1.379 . S
C386 C388 1.416 1_455 S
C386 C394 1.424 . S
C387 H382 0.930 . S
C387 C389 1.390 . S
C387 C390 1.339 1_455 S
C388 C386 1.416 1_655 S
C388 C390 1.416 . S
C388 C421 1.448 . S
C389 H374 0.930 . S
C389 N385 1.334 . S
C389 C387 1.390 . S
C390 C387 1.339 1_655 S
C390 C388 1.416 . S
C390 H397 0.930 . S
N391 Tb356 2.572 . S
N391 C392 1.340 . S
N391 C394 1.361 . S
C392 H378 0.930 . S
C392 N391 1.340 . S
C392 C396 1.407 1_455 S
C393 C394 1.413 1_655 S
C393 C395 1.416 . S
C393 C422 1.427 . S
C394 C386 1.424 . S
C394 N391 1.361 . S
C394 C393 1.413 1_455 S
C395 H384 0.931 . S
C395 C393 1.416 . S
C395 C396 1.332 . S
C396 H375 0.929 . S
C396 C392 1.407 1_655 S
C396 C395 1.332 . S
H397 C390 0.930 . S
H398 C421 0.930 . S
H399 C422 0.929 . S
O400 Tb356 2.465 . S
O400 C420 1.264 . S
O401 Tb356 2.387 1_655 S
O401 C412 1.264 . S
O402 Tb367 2.349 . S
O402 C412 1.243 . S
O403 Tb356 2.428 . S
O403 C420 1.256 . S
O404 Tb356 2.308 . S
O404 C419 1.266 . S
O405 Tb367 2.393 . S
O405 C419 1.248 1_655 S
O406 Tb367 2.465 . S
O406 C431 1.264 . S
O407 Tb367 2.387 1_455 S
O407 C423 1.264 . S
O408 Tb356 2.349 . S
O408 C423 1.243 . S
O409 Tb367 2.428 . S
O409 C431 1.256 . S
O410 Tb367 2.308 1_455 S
O410 C430 1.266 . S
O411 Tb356 2.393 . S
O411 C430 1.248 . S
C412 O401 1.264 . S
C412 O402 1.243 . S
C413 C416 1.399 . S
C413 C418 1.383 . S
C413 C420 1.496 . S
C414 C415 1.399 . S
C414 C418 1.389 . S
C415 C414 1.399 . S
C415 C417 1.380 . S
C415 H432 0.929 . S
C416 C413 1.399 . S
C416 C417 1.392 . S
C416 H433 0.929 . S
C417 C415 1.380 . S
C417 C416 1.392 . S
C417 H434 0.929 . S
C418 C413 1.383 . S
C418 C414 1.389 . S
C418 H435 0.931 . S
C419 O404 1.266 . S
C419 O405 1.248 1_455 S
C420 Tb356 2.802 . S
C420 O400 1.264 . S
C420 O403 1.256 . S
C420 C413 1.496 . S
C421 C388 1.448 . S
C421 H398 0.930 . S
C421 C422 1.328 . S
C422 C393 1.427 . S
C422 H399 0.929 . S
C422 C421 1.328 . S
C423 O407 1.264 . S
C423 O408 1.243 . S
C424 C427 1.399 . S
C424 C428 1.383 . S
C424 C431 1.496 . S
C425 C426 1.399 . S
C425 C428 1.389 . S
C426 C425 1.399 . S
C426 C429 1.380 . S
C426 H436 0.929 . S
C427 C424 1.399 . S
C427 C429 1.392 . S
C427 H437 0.929 . S
C428 C424 1.383 . S
C428 C425 1.389 . S
C428 H438 0.931 . S
C429 C426 1.380 . S
C429 C427 1.392 . S
C429 H439 0.929 . S
C430 O410 1.266 . S
C430 O411 1.248 . S
C431 Tb367 2.802 . S
C431 O406 1.264 . S
C431 O409 1.256 . S
C431 C424 1.496 . S
H432 C415 0.929 . S
H433 C416 0.929 . S
H434 C417 0.929 . S
H435 C418 0.931 . S
H436 C426 0.929 . S
H437 C427 0.929 . S
H438 C428 0.931 . S
H439 C429 0.929 . S
H440 C458 0.951 . S
H441 C460 0.951 . S
H442 C462 0.950 . S
H443 C463 0.950 . S
H444 C465 0.950 . S
H445 C468 0.950 . S
H446 C469 0.950 . S
H447 C471 0.950 . S
H448 C472 0.950 . S
H449 C473 0.951 . S
H450 C475 0.951 . S
H451 C477 0.929 1_565 S
H452 C478 0.950 1_565 S
H453 C480 0.950 . S
H454 C483 0.950 1_565 S
H455 C484 0.950 . S
H456 C486 0.950 . S
H457 C487 0.950 . S
C458 H440 0.951 . S
C458 C459 1.366 . S
C458 C460 1.388 . S
C459 C458 1.366 . S
C459 C463 1.385 . S
C460 H441 0.951 . S
C460 C458 1.388 . S
C460 C461 1.366 . S
C461 C460 1.366 . S
C461 C462 1.414 . S
C461 C464 1.499 . S
C462 H442 0.950 . S
C462 C461 1.414 . S
C462 C463 1.374 . S
C463 H443 0.950 . S
C463 C459 1.385 . S
C463 C462 1.374 . S
C464 C461 1.499 . S
C464 C465 1.373 . S
C464 C466 1.389 . S
C465 H444 0.950 . S
C465 C464 1.373 . S
C465 C481 1.377 . S
C466 C464 1.389 . S
C466 C467 1.524 . S
C466 C480 1.377 . S
C467 C466 1.524 . S
C467 C468 1.397 . S
C467 C472 1.363 . S
C468 H445 0.950 . S
C468 C467 1.397 . S
C468 C469 1.334 . S
C469 H446 0.950 . S
C469 C468 1.334 . S
C469 C470 1.287 . S
C470 C469 1.287 . S
C470 C471 1.524 . S
C470 H489 0.913 . S
C471 H447 0.950 . S
C471 C470 1.524 . S
C471 C472 1.415 . S
C472 H448 0.950 . S
C472 C467 1.363 . S
C472 C471 1.415 . S
C473 H449 0.951 . S
C473 C474 1.366 . S
C473 C475 1.388 . S
C474 C473 1.366 . S
C474 C478 1.385 . S
C475 H450 0.951 . S
C475 C473 1.388 . S
C475 C476 1.366 . S
C476 C475 1.366 . S
C476 C477 1.414 . S
C476 C479 1.499 . S
C477 H451 0.929 1_545 S
C477 C476 1.414 . S
C477 C478 1.374 . S
C478 H452 0.950 1_545 S
C478 C474 1.385 . S
C478 C477 1.374 . S
C479 C476 1.499 . S
C479 C480 1.373 . S
C479 C481 1.389 . S
C480 H453 0.950 . S
C480 C466 1.377 . S
C480 C479 1.373 . S
C481 C465 1.377 . S
C481 C479 1.389 . S
C481 C482 1.524 . S
C482 C481 1.524 . S
C482 C483 1.397 . S
C482 C487 1.363 . S
C483 H454 0.950 1_545 S
C483 C482 1.397 . S
C483 C484 1.334 1_545 S
C484 H455 0.950 . S
C484 C483 1.334 1_565 S
C484 C485 1.287 1_565 S
C485 C484 1.287 1_545 S
C485 C486 1.524 . S
C485 H488 0.999 . S
C486 H456 0.950 . S
C486 C485 1.524 . S
C486 C487 1.415 . S
C487 H457 0.950 . S
C487 C482 1.363 . S
C487 C486 1.415 . S
H488 C485 0.999 . S
H489 C470 0.913 . S
H490 C508 0.951 . S
H491 C510 0.951 . S
H492 C512 0.950 . S
H493 C513 0.950 . S
H494 C515 0.950 . S
H495 C518 0.950 . S
H496 C519 0.950 . S
H497 C521 0.950 . S
H498 C522 0.950 . S
H499 C523 0.951 . S
H500 C525 0.951 . S
H501 C527 0.950 . S
H502 C528 0.950 . S
H503 C530 0.950 . S
H504 C533 0.950 . S
H505 C534 0.950 . S
H506 C536 0.950 . S
H507 C537 0.950 . S
C508 H490 0.951 . S
C508 C509 1.366 . S
C508 C510 1.388 . S
C509 C508 1.366 . S
C509 C513 1.385 . S
C510 H491 0.951 . S
C510 C508 1.388 . S
C510 C511 1.366 . S
C511 C510 1.366 . S
C511 C512 1.414 . S
C511 C514 1.499 . S
C512 H492 0.950 . S
C512 C511 1.414 . S
C512 C513 1.374 . S
C513 H493 0.950 . S
C513 C509 1.385 . S
C513 C512 1.374 . S
C514 C511 1.499 . S
C514 C515 1.373 . S
C514 C516 1.389 . S
C515 H494 0.950 . S
C515 C514 1.373 . S
C515 C531 1.377 . S
C516 C514 1.389 . S
C516 C517 1.524 . S
C516 C530 1.377 . S
C517 C516 1.524 . S
C517 C518 1.397 . S
C517 C522 1.363 . S
C518 H495 0.950 . S
C518 C517 1.397 . S
C518 C519 1.334 . S
C519 H496 0.950 . S
C519 C518 1.334 . S
C519 C520 1.287 . S
C520 C519 1.287 . S
C520 C521 1.524 . S
C520 H539 0.913 . S
C521 H497 0.950 . S
C521 C520 1.524 . S
C521 C522 1.415 . S
C522 H498 0.950 . S
C522 C517 1.363 . S
C522 C521 1.415 . S
C523 H499 0.951 . S
C523 C524 1.366 . S
C523 C525 1.388 . S
C524 C523 1.366 . S
C524 C528 1.385 . S
C525 H500 0.951 . S
C525 C523 1.388 . S
C525 C526 1.366 . S
C526 C525 1.366 . S
C526 C527 1.414 . S
C526 C529 1.499 . S
C527 H501 0.950 . S
C527 C526 1.414 . S
C527 C528 1.374 . S
C528 H502 0.950 . S
C528 C524 1.385 . S
C528 C527 1.374 . S
C529 C526 1.499 . S
C529 C530 1.373 . S
C529 C531 1.389 . S
C530 H503 0.950 . S
C530 C516 1.377 . S
C530 C529 1.373 . S
C531 C515 1.377 . S
C531 C529 1.389 . S
C531 C532 1.524 . S
C532 C531 1.524 . S
C532 C533 1.397 . S
C532 C537 1.363 . S
C533 H504 0.950 . S
C533 C532 1.397 . S
C533 C534 1.334 . S
C534 H505 0.950 . S
C534 C533 1.334 . S
C534 C535 1.287 . S
C535 C534 1.287 . S
C535 C536 1.524 . S
C535 H538 0.999 . S
C536 H506 0.950 . S
C536 C535 1.524 . S
C536 C537 1.415 . S
C537 H507 0.950 . S
C537 C532 1.363 . S
C537 C536 1.415 . S
H538 C535 0.999 . S
H539 C520 0.913 . S
H540 C558 0.951 . S
H541 C560 0.951 . S
H542 C562 0.950 . S
H543 C563 0.950 . S
H544 C565 0.950 . S
H545 C568 0.950 . S
H546 C569 0.950 . S
H547 C571 0.950 . S
H548 C572 0.950 . S
H549 C573 0.951 . S
H550 C575 0.951 . S
H551 C577 0.950 . S
H552 C578 0.950 . S
H553 C580 0.950 . S
H554 C583 0.950 . S
H555 C584 0.950 . S
H556 C586 0.950 . S
H557 C587 0.950 . S
C558 H540 0.951 . S
C558 C559 1.366 . S
C558 C560 1.388 . S
C559 C558 1.366 . S
C559 C563 1.385 . S
C560 H541 0.951 . S
C560 C558 1.388 . S
C560 C561 1.366 . S
C561 C560 1.366 . S
C561 C562 1.414 . S
C561 C564 1.499 . S
C562 H542 0.950 . S
C562 C561 1.414 . S
C562 C563 1.374 . S
C563 H543 0.950 . S
C563 C559 1.385 . S
C563 C562 1.374 . S
C564 C561 1.499 . S
C564 C565 1.373 . S
C564 C566 1.389 . S
C565 H544 0.950 . S
C565 C564 1.373 . S
C565 C581 1.377 . S
C566 C564 1.389 . S
C566 C567 1.524 . S
C566 C580 1.377 . S
C567 C566 1.524 . S
C567 C568 1.397 . S
C567 C572 1.363 . S
C568 H545 0.950 . S
C568 C567 1.397 . S
C568 C569 1.334 . S
C569 H546 0.950 . S
C569 C568 1.334 . S
C569 C570 1.287 . S
C570 C569 1.287 . S
C570 C571 1.524 . S
C570 H589 0.913 . S
C571 H547 0.950 . S
C571 C570 1.524 . S
C571 C572 1.415 . S
C572 H548 0.950 . S
C572 C567 1.363 . S
C572 C571 1.415 . S
C573 H549 0.951 . S
C573 C574 1.366 . S
C573 C575 1.388 . S
C574 C573 1.366 . S
C574 C578 1.385 . S
C575 H550 0.951 . S
C575 C573 1.388 . S
C575 C576 1.366 . S
C576 C575 1.366 . S
C576 C577 1.414 . S
C576 C579 1.499 . S
C577 H551 0.950 . S
C577 C576 1.414 . S
C577 C578 1.374 . S
C578 H552 0.950 . S
C578 C574 1.385 . S
C578 C577 1.374 . S
C579 C576 1.499 . S
C579 C580 1.373 . S
C579 C581 1.389 . S
C580 H553 0.950 . S
C580 C566 1.377 . S
C580 C579 1.373 . S
C581 C565 1.377 . S
C581 C579 1.389 . S
C581 C582 1.524 . S
C582 C581 1.524 . S
C582 C583 1.397 . S
C582 C587 1.363 . S
C583 H554 0.950 . S
C583 C582 1.397 . S
C583 C584 1.334 . S
C584 H555 0.950 . S
C584 C583 1.334 . S
C584 C585 1.287 . S
C585 C584 1.287 . S
C585 C586 1.524 . S
C585 H588 0.999 . S
C586 H556 0.950 . S
C586 C585 1.524 . S
C586 C587 1.415 . S
C587 H557 0.950 . S
C587 C582 1.363 . S
C587 C586 1.415 . S
H588 C585 0.999 . S
H589 C570 0.913 . S
H590 C608 0.951 . S
H591 C610 0.951 . S
H592 C612 0.950 . S
H593 C613 0.950 . S
H594 C615 0.950 . S
H595 C618 0.950 . S
H596 C619 0.950 . S
H597 C621 0.950 . S
H598 C622 0.950 . S
H599 C623 0.951 . S
H600 C625 0.951 . S
H601 C627 0.950 . S
H602 C628 0.950 . S
H603 C630 0.950 . S
H604 C633 0.950 . S
H605 C634 0.950 . S
H606 C636 0.950 . S
H607 C637 0.950 . S
C608 H590 0.951 . S
C608 C609 1.366 . S
C608 C610 1.388 . S
C609 C608 1.366 . S
C609 C613 1.385 . S
C610 H591 0.951 . S
C610 C608 1.388 . S
C610 C611 1.366 . S
C611 C610 1.366 . S
C611 C612 1.414 . S
C611 C614 1.499 . S
C612 H592 0.950 . S
C612 C611 1.414 . S
C612 C613 1.374 . S
C613 H593 0.950 . S
C613 C609 1.385 . S
C613 C612 1.374 . S
C614 C611 1.499 . S
C614 C615 1.373 . S
C614 C616 1.389 . S
C615 H594 0.950 . S
C615 C614 1.373 . S
C615 C631 1.377 . S
C616 C614 1.389 . S
C616 C617 1.524 . S
C616 C630 1.377 . S
C617 C616 1.524 . S
C617 C618 1.397 . S
C617 C622 1.363 . S
C618 H595 0.950 . S
C618 C617 1.397 . S
C618 C619 1.334 . S
C619 H596 0.950 . S
C619 C618 1.334 . S
C619 C620 1.287 . S
C620 C619 1.287 . S
C620 C621 1.524 . S
C620 H639 0.913 . S
C621 H597 0.950 . S
C621 C620 1.524 . S
C621 C622 1.415 . S
C622 H598 0.950 . S
C622 C617 1.363 . S
C622 C621 1.415 . S
C623 H599 0.951 . S
C623 C624 1.366 . S
C623 C625 1.388 . S
C624 C623 1.366 . S
C624 C628 1.385 . S
C625 H600 0.951 . S
C625 C623 1.388 . S
C625 C626 1.366 . S
C626 C625 1.366 . S
C626 C627 1.414 . S
C626 C629 1.499 . S
C627 H601 0.950 . S
C627 C626 1.414 . S
C627 C628 1.374 . S
C628 H602 0.950 . S
C628 C624 1.385 . S
C628 C627 1.374 . S
C629 C626 1.499 . S
C629 C630 1.373 . S
C629 C631 1.389 . S
C630 H603 0.950 . S
C630 C616 1.377 . S
C630 C629 1.373 . S
C631 C615 1.377 . S
C631 C629 1.389 . S
C631 C632 1.524 1_455 S
C632 C631 1.524 1_655 S
C632 C633 1.397 . S
C632 C637 1.363 . S
C633 H604 0.950 . S
C633 C632 1.397 . S
C633 C634 1.334 . S
C634 H605 0.950 . S
C634 C633 1.334 . S
C634 C635 1.287 . S
C635 C634 1.287 . S
C635 C636 1.524 . S
C635 H638 0.999 . S
C636 H606 0.950 . S
C636 C635 1.524 . S
C636 C637 1.415 . S
C637 H607 0.950 . S
C637 C632 1.363 . S
C637 C636 1.415 . S
H638 C635 0.999 . S
H639 C620 0.913 . S
H640 C658 0.951 . S
H641 C660 0.948 1_556 S
H642 C662 0.950 . S
H643 C663 0.950 . S
H644 C665 0.950 . S
H645 C668 0.950 . S
H646 C669 0.950 . S
H647 C671 0.950 . S
H648 C672 0.950 . S
H649 C673 0.951 . S
H650 C675 0.951 . S
H651 C677 0.950 . S
H652 C678 0.950 . S
H653 C680 0.950 . S
H654 C683 0.950 . S
H655 C684 0.950 . S
H656 C686 0.950 . S
H657 C687 0.921 1_565 S
C658 H640 0.951 . S
C658 C659 1.366 . S
C658 C660 1.388 . S
C659 C658 1.366 . S
C659 C663 1.385 . S
C660 H641 0.948 1_554 S
C660 C658 1.388 . S
C660 C661 1.366 . S
C661 C660 1.366 . S
C661 C662 1.414 . S
C661 C664 1.499 1_554 S
C662 H642 0.950 . S
C662 C661 1.414 . S
C662 C663 1.374 . S
C663 H643 0.950 . S
C663 C659 1.385 . S
C663 C662 1.374 . S
C664 C661 1.499 1_556 S
C664 C665 1.373 1_556 S
C664 C666 1.389 . S
C665 H644 0.950 . S
C665 C664 1.373 1_554 S
C665 C681 1.377 1_554 S
C666 C664 1.389 . S
C666 C667 1.524 . S
C666 C680 1.377 . S
C667 C666 1.524 . S
C667 C668 1.397 . S
C667 C672 1.363 . S
C668 H645 0.950 . S
C668 C667 1.397 . S
C668 C669 1.334 . S
C669 H646 0.950 . S
C669 C668 1.334 . S
C669 C670 1.287 . S
C670 C669 1.287 . S
C670 C671 1.524 . S
C670 H689 0.913 . S
C671 H647 0.950 . S
C671 C670 1.524 . S
C671 C672 1.415 . S
C672 H648 0.950 . S
C672 C667 1.363 . S
C672 C671 1.415 . S
C673 H649 0.951 . S
C673 C674 1.364 1_565 S
C673 C675 1.388 . S
C674 C673 1.364 1_545 S
C674 C678 1.386 . S
C675 H650 0.951 . S
C675 C673 1.388 . S
C675 C676 1.366 . S
C676 C675 1.366 . S
C676 C677 1.414 1_565 S
C676 C679 1.499 . S
C677 H651 0.950 . S
C677 C676 1.414 1_545 S
C677 C678 1.374 . S
C678 H652 0.950 . S
C678 C674 1.386 . S
C678 C677 1.374 . S
C679 C676 1.499 . S
C679 C680 1.373 . S
C679 C681 1.389 . S
C680 H653 0.950 . S
C680 C666 1.377 . S
C680 C679 1.373 . S
C681 C665 1.377 1_556 S
C681 C679 1.389 . S
C681 C682 1.524 1_565 S
C682 C681 1.524 1_545 S
C682 C683 1.397 . S
C682 C687 1.375 1_556 S
C683 H654 0.950 . S
C683 C682 1.397 . S
C683 C684 1.334 . S
C684 H655 0.950 . S
C684 C683 1.334 . S
C684 C685 1.287 1_556 S
C685 C684 1.287 1_554 S
C685 C686 1.524 . S
C685 H688 0.999 . S
C686 H656 0.950 . S
C686 C685 1.524 . S
C686 C687 1.432 . S
C687 H657 0.921 1_545 S
C687 C682 1.375 1_554 S
C687 C686 1.432 . S
H688 C685 0.999 . S
H689 C670 0.913 . S
H690 C708 0.951 . S
H691 C710 0.951 1_556 S
H692 C712 0.950 . S
H693 C713 0.950 . S
H694 C715 0.950 . S
H695 C718 0.950 . S
H696 C719 0.950 . S
H697 C721 0.950 . S
H698 C722 0.950 . S
H699 C723 0.951 . S
H700 C725 0.951 . S
H701 C727 0.950 . S
H702 C728 0.950 . S
H703 C730 0.950 . S
H704 C733 0.950 . S
H705 C734 0.950 . S
H706 C736 0.950 . S
H707 C737 0.950 . S
C708 H690 0.951 . S
C708 C709 1.366 . S
C708 C710 1.388 . S
C709 C708 1.366 . S
C709 C713 1.385 . S
C710 H691 0.951 1_554 S
C710 C708 1.388 . S
C710 C711 1.366 . S
C711 C710 1.366 . S
C711 C712 1.414 . S
C711 C714 1.499 . S
C712 H692 0.950 . S
C712 C711 1.414 . S
C712 C713 1.374 . S
C713 H693 0.950 . S
C713 C709 1.385 . S
C713 C712 1.374 . S
C714 C711 1.499 . S
C714 C715 1.373 . S
C714 C716 1.389 1_554 S
C715 H694 0.950 . S
C715 C714 1.373 . S
C715 C731 1.377 1_554 S
C716 C714 1.389 1_556 S
C716 C717 1.524 . S
C716 C730 1.377 . S
C717 C716 1.524 . S
C717 C718 1.397 1_556 S
C717 C722 1.363 . S
C718 H695 0.950 . S
C718 C717 1.397 1_554 S
C718 C719 1.334 . S
C719 H696 0.950 . S
C719 C718 1.334 . S
C719 C720 1.287 1_554 S
C720 C719 1.287 1_556 S
C720 C721 1.524 . S
C720 H739 0.913 . S
C721 H697 0.950 . S
C721 C720 1.524 . S
C721 C722 1.415 . S
C722 H698 0.950 . S
C722 C717 1.363 . S
C722 C721 1.415 . S
C723 H699 0.951 . S
C723 C724 1.366 . S
C723 C725 1.388 . S
C724 C723 1.366 . S
C724 C728 1.385 . S
C725 H700 0.951 . S
C725 C723 1.388 . S
C725 C726 1.366 . S
C726 C725 1.366 . S
C726 C727 1.414 . S
C726 C729 1.499 . S
C727 H701 0.950 . S
C727 C726 1.414 . S
C727 C728 1.374 . S
C728 H702 0.950 . S
C728 C724 1.385 . S
C728 C727 1.374 . S
C729 C726 1.499 . S
C729 C730 1.373 . S
C729 C731 1.389 . S
C730 H703 0.950 . S
C730 C716 1.377 . S
C730 C729 1.373 . S
C731 C715 1.377 1_556 S
C731 C729 1.389 . S
C731 C732 1.524 . S
C732 C731 1.524 . S
C732 C733 1.397 . S
C732 C737 1.363 1_556 S
C733 H704 0.950 . S
C733 C732 1.397 . S
C733 C734 1.334 . S
C734 H705 0.950 . S
C734 C733 1.334 . S
C734 C735 1.287 . S
C735 C734 1.287 . S
C735 C736 1.524 1_556 S
C735 H738 0.999 . S
C736 H706 0.950 . S
C736 C735 1.524 1_554 S
C736 C737 1.415 . S
C737 H707 0.950 . S
C737 C732 1.363 1_554 S
C737 C736 1.415 . S
H738 C735 0.999 . S
H739 C720 0.913 . S
H740 C758 0.951 . S
H741 C760 0.951 1_556 S
H742 C762 0.950 . S
H743 C763 0.950 . S
H744 C765 0.950 . S
H745 C768 0.941 1_554 S
H746 C769 0.950 . S
H747 C771 0.950 . S
H748 C772 0.950 . S
H749 C773 0.951 . S
H750 C775 0.951 . S
H751 C777 0.950 . S
H752 C778 0.950 . S
H753 C780 0.950 . S
H754 C783 0.950 . S
H755 C784 0.950 . S
H756 C786 0.950 . S
H757 C787 0.950 . S
C758 H740 0.951 . S
C758 C759 1.366 . S
C758 C760 1.388 . S
C759 C758 1.366 . S
C759 C763 1.385 . S
C760 H741 0.951 1_554 S
C760 C758 1.388 . S
C760 C761 1.366 . S
C761 C760 1.366 . S
C761 C762 1.414 . S
C761 C764 1.500 . S
C762 H742 0.950 . S
C762 C761 1.414 . S
C762 C763 1.374 . S
C763 H743 0.950 . S
C763 C759 1.385 . S
C763 C762 1.374 . S
C764 C761 1.500 . S
C764 C765 1.374 . S
C764 C766 1.388 1_554 S
C765 H744 0.950 . S
C765 C764 1.374 . S
C765 C781 1.377 1_554 S
C766 C764 1.388 1_556 S
C766 C767 1.524 . S
C766 C780 1.377 . S
C767 C766 1.524 . S
C767 C768 1.397 . S
C767 C772 1.363 . S
C768 H745 0.941 1_556 S
C768 C767 1.397 . S
C768 C769 1.334 . S
C769 H746 0.950 . S
C769 C768 1.334 . S
C769 C770 1.287 . S
C770 C769 1.287 . S
C770 C771 1.524 . S
C770 H789 0.913 . S
C771 H747 0.950 . S
C771 C770 1.524 . S
C771 C772 1.415 . S
C772 H748 0.950 . S
C772 C767 1.363 . S
C772 C771 1.415 . S
C773 H749 0.951 . S
C773 C774 1.366 . S
C773 C775 1.388 . S
C774 C773 1.366 . S
C774 C778 1.385 . S
C775 H750 0.951 . S
C775 C773 1.388 . S
C775 C776 1.366 . S
C776 C775 1.366 . S
C776 C777 1.414 . S
C776 C779 1.499 . S
C777 H751 0.950 . S
C777 C776 1.414 . S
C777 C778 1.374 . S
C778 H752 0.950 . S
C778 C774 1.385 . S
C778 C777 1.374 . S
C779 C776 1.499 . S
C779 C780 1.373 . S
C779 C781 1.389 . S
C780 H753 0.950 . S
C780 C766 1.377 . S
C780 C779 1.373 . S
C781 C765 1.377 1_556 S
C781 C779 1.389 . S
C781 C782 1.524 . S
C782 C781 1.524 . S
C782 C783 1.397 . S
C782 C787 1.363 1_556 S
C783 H754 0.950 . S
C783 C782 1.397 . S
C783 C784 1.334 . S
C784 H755 0.950 . S
C784 C783 1.334 . S
C784 C785 1.287 1_556 S
C785 C784 1.287 1_554 S
C785 C786 1.524 . S
C785 H788 0.999 . S
C786 H756 0.950 . S
C786 C785 1.524 . S
C786 C787 1.415 . S
C787 H757 0.950 . S
C787 C782 1.363 1_554 S
C787 C786 1.415 . S
H788 C785 0.999 . S
H789 C770 0.913 . S
H790 C808 0.951 . S
H791 C810 0.951 . S
H792 C812 0.950 1_455 S
H793 C813 0.950 1_455 S
H794 C815 0.950 . S
H795 C818 0.950 1_455 S
H796 C819 0.950 . S
H797 C821 0.950 . S
H798 C822 0.950 . S
H799 C823 0.951 . S
H800 C825 0.951 . S
H801 C827 0.950 . S
H802 C828 0.950 . S
H803 C830 0.950 . S
H804 C833 0.950 . S
H805 C834 0.950 . S
H806 C836 0.950 . S
H807 C837 0.950 . S
C808 H790 0.951 . S
C808 C809 1.366 . S
C808 C810 1.388 . S
C809 C808 1.366 . S
C809 C813 1.385 . S
C810 H791 0.951 . S
C810 C808 1.388 . S
C810 C811 1.366 . S
C811 C810 1.366 . S
C811 C812 1.414 . S
C811 C814 1.503 . S
C812 H792 0.950 1_655 S
C812 C811 1.414 . S
C812 C813 1.374 . S
C813 H793 0.950 1_655 S
C813 C809 1.385 . S
C813 C812 1.374 . S
C814 C811 1.503 . S
C814 C815 1.368 1_554 S
C814 C816 1.390 . S
C815 H794 0.950 . S
C815 C814 1.368 1_556 S
C815 C831 1.377 . S
C816 C814 1.390 . S
C816 C817 1.524 . S
C816 C830 1.377 1_554 S
C817 C816 1.524 . S
C817 C818 1.397 . S
C817 C822 1.363 . S
C818 H795 0.950 1_655 S
C818 C817 1.397 . S
C818 C819 1.334 . S
C819 H796 0.950 . S
C819 C818 1.334 . S
C819 C820 1.287 . S
C820 C819 1.287 . S
C820 C821 1.524 . S
C820 H839 0.913 . S
C821 H797 0.950 . S
C821 C820 1.524 . S
C821 C822 1.415 . S
C822 H798 0.950 . S
C822 C817 1.363 . S
C822 C821 1.415 . S
C823 H799 0.951 . S
C823 C824 1.366 1_455 S
C823 C825 1.388 . S
C824 C823 1.366 1_655 S
C824 C828 1.385 . S
C825 H800 0.951 . S
C825 C823 1.388 . S
C825 C826 1.366 1_455 S
C826 C825 1.366 1_655 S
C826 C827 1.414 . S
C826 C829 1.499 . S
C827 H801 0.950 . S
C827 C826 1.414 . S
C827 C828 1.374 . S
C828 H802 0.950 . S
C828 C824 1.385 . S
C828 C827 1.374 . S
C829 C826 1.499 . S
C829 C830 1.373 . S
C829 C831 1.389 . S
C830 H803 0.950 . S
C830 C816 1.377 1_556 S
C830 C829 1.373 . S
C831 C815 1.377 . S
C831 C829 1.389 . S
C831 C832 1.524 . S
C832 C831 1.524 . S
C832 C833 1.397 . S
C832 C837 1.363 1_655 S
C833 H804 0.950 . S
C833 C832 1.397 . S
C833 C834 1.334 . S
C834 H805 0.950 . S
C834 C833 1.334 . S
C834 C835 1.306 . S
C835 C834 1.306 . S
C835 C836 1.506 1_655 S
C835 H838 0.995 1_655 S
C836 H806 0.950 . S
C836 C835 1.506 1_455 S
C836 C837 1.415 . S
C837 H807 0.950 . S
C837 C832 1.363 1_455 S
C837 C836 1.415 . S
H838 C835 0.995 1_455 S
H839 C820 0.913 . S
H840 C858 0.951 . S
H841 C860 0.951 . S
H842 C862 0.950 . S
H843 C863 0.950 . S
H844 C865 0.950 1_655 S
H845 C868 0.950 . S
H846 C869 0.950 . S
H847 C871 0.950 . S
H848 C872 0.950 . S
H849 C873 0.951 . S
H850 C875 0.951 . S
H851 C877 0.950 . S
H852 C878 0.950 . S
H853 C880 0.950 . S
H854 C883 0.950 . S
H855 C884 0.950 . S
H856 C886 0.950 . S
H857 C887 0.950 . S
C858 H840 0.951 . S
C858 C859 1.366 . S
C858 C860 1.388 . S
C859 C858 1.366 . S
C859 C863 1.385 . S
C860 H841 0.951 . S
C860 C858 1.388 . S
C860 C861 1.366 . S
C861 C860 1.366 . S
C861 C862 1.414 . S
C861 C864 1.499 . S
C862 H842 0.950 . S
C862 C861 1.414 . S
C862 C863 1.374 . S
C863 H843 0.950 . S
C863 C859 1.385 . S
C863 C862 1.374 . S
C864 C861 1.499 . S
C864 C865 1.373 . S
C864 C866 1.389 . S
C865 H844 0.950 1_455 S
C865 C864 1.373 . S
C865 C881 1.377 . S
C866 C864 1.389 . S
C866 C867 1.524 . S
C866 C880 1.377 . S
C867 C866 1.524 . S
C867 C868 1.397 . S
C867 C872 1.363 . S
C868 H845 0.950 . S
C868 C867 1.397 . S
C868 C869 1.334 . S
C869 H846 0.950 . S
C869 C868 1.334 . S
C869 C870 1.287 . S
C870 C869 1.287 . S
C870 C871 1.524 . S
C870 H889 0.913 . S
C871 H847 0.950 . S
C871 C870 1.524 . S
C871 C872 1.415 . S
C872 H848 0.950 . S
C872 C867 1.363 . S
C872 C871 1.415 . S
C873 H849 0.951 . S
C873 C874 1.366 1_655 S
C873 C875 1.388 . S
C874 C873 1.366 1_455 S
C874 C878 1.385 . S
C875 H850 0.951 . S
C875 C873 1.388 . S
C875 C876 1.366 1_655 S
C876 C875 1.366 1_455 S
C876 C877 1.414 . S
C876 C879 1.499 . S
C877 H851 0.950 . S
C877 C876 1.414 . S
C877 C878 1.374 . S
C878 H852 0.950 . S
C878 C874 1.385 . S
C878 C877 1.374 . S
C879 C876 1.499 . S
C879 C880 1.373 . S
C879 C881 1.389 . S
C880 H853 0.950 . S
C880 C866 1.377 . S
C880 C879 1.373 . S
C881 C865 1.377 . S
C881 C879 1.389 . S
C881 C882 1.524 1_455 S
C882 C881 1.524 1_655 S
C882 C883 1.397 . S
C882 C887 1.363 . S
C883 H854 0.950 . S
C883 C882 1.397 . S
C883 C884 1.334 . S
C884 H855 0.950 . S
C884 C883 1.334 . S
C884 C885 1.287 . S
C885 C884 1.287 . S
C885 C886 1.524 . S
C885 H888 0.999 . S
C886 H856 0.950 . S
C886 C885 1.524 . S
C886 C887 1.415 . S
C887 H857 0.950 . S
C887 C882 1.363 . S
C887 C886 1.415 . S
H888 C885 0.999 . S
H889 C870 0.913 . S
H890 C908 0.951 . S
H891 C910 0.951 . S
H892 C912 0.950 . S
H893 C913 0.950 . S
H894 C915 0.950 . S
H895 C918 0.950 . S
H896 C919 0.950 . S
H897 C921 0.950 . S
H898 C922 0.950 . S
H899 C923 0.951 . S
H900 C925 0.951 . S
H901 C927 0.950 1_565 S
H902 C928 0.950 . S
H903 C930 0.950 . S
H904 C933 0.954 . S
H905 C934 0.950 . S
H906 C936 0.950 . S
H907 C937 0.950 . S
C908 H890 0.951 . S
C908 C909 1.366 . S
C908 C910 1.388 . S
C909 C908 1.366 . S
C909 C913 1.385 . S
C910 H891 0.951 . S
C910 C908 1.388 . S
C910 C911 1.366 . S
C911 C910 1.366 . S
C911 C912 1.414 . S
C911 C914 1.499 . S
C912 H892 0.950 . S
C912 C911 1.414 . S
C912 C913 1.374 . S
C913 H893 0.950 . S
C913 C909 1.385 . S
C913 C912 1.374 . S
C914 C911 1.499 . S
C914 C915 1.373 . S
C914 C916 1.389 . S
C915 H894 0.950 . S
C915 C914 1.373 . S
C915 C931 1.377 . S
C916 C914 1.389 . S
C916 C917 1.524 . S
C916 C930 1.377 . S
C917 C916 1.524 . S
C917 C918 1.397 . S
C917 C922 1.363 . S
C918 H895 0.950 . S
C918 C917 1.397 . S
C918 C919 1.334 . S
C919 H896 0.950 . S
C919 C918 1.334 . S
C919 C920 1.287 . S
C920 C919 1.287 . S
C920 C921 1.524 . S
C920 H939 0.913 . S
C921 H897 0.950 . S
C921 C920 1.524 . S
C921 C922 1.415 . S
C922 H898 0.950 . S
C922 C917 1.363 . S
C922 C921 1.415 . S
C923 H899 0.951 . S
C923 C924 1.366 . S
C923 C925 1.388 . S
C924 C923 1.366 . S
C924 C928 1.385 1_545 S
C925 H900 0.951 . S
C925 C923 1.388 . S
C925 C926 1.366 . S
C926 C925 1.366 . S
C926 C927 1.414 . S
C926 C929 1.499 . S
C927 H901 0.950 1_545 S
C927 C926 1.414 . S
C927 C928 1.374 1_545 S
C928 H902 0.950 . S
C928 C924 1.385 1_565 S
C928 C927 1.374 1_565 S
C929 C926 1.499 . S
C929 C930 1.373 . S
C929 C931 1.389 . S
C930 H903 0.950 . S
C930 C916 1.377 . S
C930 C929 1.373 . S
C931 C915 1.377 . S
C931 C929 1.389 . S
C931 C932 1.524 . S
C932 C931 1.524 . S
C932 C933 1.390 1_545 S
C932 C937 1.363 . S
C933 H904 0.954 . S
C933 C932 1.390 1_565 S
C933 C934 1.336 . S
C934 H905 0.950 . S
C934 C933 1.336 . S
C934 C935 1.287 1_565 S
C935 C934 1.287 1_545 S
C935 C936 1.524 . S
C935 H938 0.999 . S
C936 H906 0.950 . S
C936 C935 1.524 . S
C936 C937 1.415 . S
C937 H907 0.950 . S
C937 C932 1.363 . S
C937 C936 1.415 . S
H938 C935 0.999 . S
H939 C920 0.913 . S
H940 C958 0.951 . S
H941 C960 0.951 . S
H942 C962 0.950 . S
H943 C963 0.950 . S
H944 C965 0.950 . S
H945 C968 0.950 . S
H946 C969 0.950 . S
H947 C971 0.950 1_556 S
H948 C972 0.950 . S
H949 C973 0.951 . S
H950 C975 0.951 . S
H951 C977 0.950 . S
H952 C978 0.950 . S
H953 C980 0.950 . S
H954 C983 0.950 . S
H955 C984 0.950 . S
H956 C986 0.950 . S
H957 C987 0.950 . S
C958 H940 0.951 . S
C958 C959 1.366 . S
C958 C960 1.388 . S
C959 C958 1.366 . S
C959 C963 1.385 . S
C960 H941 0.951 . S
C960 C958 1.388 . S
C960 C961 1.366 . S
C961 C960 1.366 . S
C961 C962 1.414 . S
C961 C964 1.499 . S
C962 H942 0.950 . S
C962 C961 1.414 . S
C962 C963 1.374 . S
C963 H943 0.950 . S
C963 C959 1.385 . S
C963 C962 1.374 . S
C964 C961 1.499 . S
C964 C965 1.373 . S
C964 C966 1.389 . S
C965 H944 0.950 . S
C965 C964 1.373 . S
C965 C981 1.377 . S
C966 C964 1.389 . S
C966 C967 1.524 . S
C966 C980 1.377 . S
C967 C966 1.524 . S
C967 C968 1.397 . S
C967 C972 1.363 . S
C968 H945 0.950 . S
C968 C967 1.397 . S
C968 C969 1.334 . S
C969 H946 0.950 . S
C969 C968 1.334 . S
C969 C970 1.287 1_554 S
C970 C969 1.287 1_556 S
C970 C971 1.524 1_556 S
C970 H989 0.913 . S
C971 H947 0.950 1_554 S
C971 C970 1.524 1_554 S
C971 C972 1.415 . S
C972 H948 0.950 . S
C972 C967 1.363 . S
C972 C971 1.415 . S
C973 H949 0.951 . S
C973 C974 1.366 . S
C973 C975 1.388 . S
C974 C973 1.366 . S
C974 C978 1.385 . S
C975 H950 0.951 . S
C975 C973 1.388 . S
C975 C976 1.366 . S
C976 C975 1.366 . S
C976 C977 1.414 . S
C976 C979 1.499 . S
C977 H951 0.950 . S
C977 C976 1.414 . S
C977 C978 1.374 . S
C978 H952 0.950 . S
C978 C974 1.385 . S
C978 C977 1.374 . S
C979 C976 1.499 . S
C979 C980 1.373 . S
C979 C981 1.389 . S
C980 H953 0.950 . S
C980 C966 1.377 . S
C980 C979 1.373 . S
C981 C965 1.377 . S
C981 C979 1.389 . S
C981 C982 1.524 . S
C982 C981 1.524 . S
C982 C983 1.397 . S
C982 C987 1.363 . S
C983 H954 0.950 . S
C983 C982 1.397 . S
C983 C984 1.334 . S
C984 H955 0.950 . S
C984 C983 1.334 . S
C984 C985 1.287 . S
C985 C984 1.287 . S
C985 C986 1.524 . S
C985 H988 0.999 . S
C986 H956 0.950 . S
C986 C985 1.524 . S
C986 C987 1.415 . S
C987 H957 0.950 . S
C987 C982 1.363 . S
C987 C986 1.415 . S
H988 C985 0.999 . S
H989 C970 0.913 . S
H990 C1008 0.951 . S
H991 C1010 0.951 . S
H992 C1012 0.950 . S
H993 C1013 0.950 . S
H994 C1015 0.950 . S
H995 C1018 0.950 . S
H996 C1019 0.950 . S
H997 C1021 0.950 . S
H998 C1022 0.950 . S
H999 C1023 0.951 . S
H1000 C1025 0.951 . S
H1001 C1027 0.950 . S
H1002 C1028 0.950 . S
H1003 C1030 0.950 . S
H1004 C1033 0.950 . S
H1005 C1034 0.950 . S
H1006 C1036 0.950 . S
H1007 C1037 0.950 . S
C1008 H990 0.951 . S
C1008 C1009 1.366 . S
C1008 C1010 1.388 . S
C1009 C1008 1.366 . S
C1009 C1013 1.385 . S
C1010 H991 0.951 . S
C1010 C1008 1.388 . S
C1010 C1011 1.366 . S
C1011 C1010 1.366 . S
C1011 C1012 1.414 . S
C1011 C1014 1.499 . S
C1012 H992 0.950 . S
C1012 C1011 1.414 . S
C1012 C1013 1.374 . S
C1013 H993 0.950 . S
C1013 C1009 1.385 . S
C1013 C1012 1.374 . S
C1014 C1011 1.499 . S
C1014 C1015 1.373 . S
C1014 C1016 1.389 . S
C1015 H994 0.950 . S
C1015 C1014 1.373 . S
C1015 C1031 1.377 . S
C1016 C1014 1.389 . S
C1016 C1017 1.524 . S
C1016 C1030 1.377 . S
C1017 C1016 1.524 . S
C1017 C1018 1.397 . S
C1017 C1022 1.363 . S
C1018 H995 0.950 . S
C1018 C1017 1.397 . S
C1018 C1019 1.334 . S
C1019 H996 0.950 . S
C1019 C1018 1.334 . S
C1019 C1020 1.287 . S
C1020 C1019 1.287 . S
C1020 C1021 1.524 . S
C1020 H1039 0.913 . S
C1021 H997 0.950 . S
C1021 C1020 1.524 . S
C1021 C1022 1.415 . S
C1022 H998 0.950 . S
C1022 C1017 1.363 . S
C1022 C1021 1.415 . S
C1023 H999 0.951 . S
C1023 C1024 1.366 . S
C1023 C1025 1.388 . S
C1024 C1023 1.366 . S
C1024 C1028 1.385 . S
C1025 H1000 0.951 . S
C1025 C1023 1.388 . S
C1025 C1026 1.366 . S
C1026 C1025 1.366 . S
C1026 C1027 1.414 . S
C1026 C1029 1.499 . S
C1027 H1001 0.950 . S
C1027 C1026 1.414 . S
C1027 C1028 1.374 . S
C1028 H1002 0.950 . S
C1028 C1024 1.385 . S
C1028 C1027 1.374 . S
C1029 C1026 1.499 . S
C1029 C1030 1.373 . S
C1029 C1031 1.389 . S
C1030 H1003 0.950 . S
C1030 C1016 1.377 . S
C1030 C1029 1.373 . S
C1031 C1015 1.377 . S
C1031 C1029 1.389 . S
C1031 C1032 1.524 . S
C1032 C1031 1.524 . S
C1032 C1033 1.397 . S
C1032 C1037 1.363 . S
C1033 H1004 0.950 . S
C1033 C1032 1.397 . S
C1033 C1034 1.334 . S
C1034 H1005 0.950 . S
C1034 C1033 1.334 . S
C1034 C1035 1.287 . S
C1035 C1034 1.287 . S
C1035 C1036 1.524 . S
C1035 H1038 0.999 . S
C1036 H1006 0.950 . S
C1036 C1035 1.524 . S
C1036 C1037 1.415 . S
C1037 H1007 0.950 . S
C1037 C1032 1.363 . S
C1037 C1036 1.415 . S
H1038 C1035 0.999 . S
H1039 C1020 0.913 . S
H1040 C1058 0.951 . S
H1041 C1060 0.951 . S
H1042 C1062 0.950 1_455 S
H1043 C1063 0.950 1_455 S
H1044 C1065 0.950 1_455 S
H1045 C1068 0.950 . S
H1046 C1069 0.950 . S
H1047 C1071 0.950 . S
H1048 C1072 0.950 . S
H1049 C1073 0.951 . S
H1050 C1075 0.951 . S
H1051 C1077 0.950 . S
H1052 C1078 0.950 . S
H1053 C1080 0.950 . S
H1054 C1083 0.950 1_655 S
H1055 C1084 0.950 . S
H1056 C1086 0.950 . S
H1057 C1087 0.950 . S
C1058 H1040 0.951 . S
C1058 C1059 1.366 . S
C1058 C1060 1.388 . S
C1059 C1058 1.366 . S
C1059 C1063 1.385 . S
C1060 H1041 0.951 . S
C1060 C1058 1.388 . S
C1060 C1061 1.366 . S
C1061 C1060 1.366 . S
C1061 C1062 1.414 . S
C1061 C1064 1.499 . S
C1062 H1042 0.950 1_655 S
C1062 C1061 1.414 . S
C1062 C1063 1.374 . S
C1063 H1043 0.950 1_655 S
C1063 C1059 1.385 . S
C1063 C1062 1.374 . S
C1064 C1061 1.499 . S
C1064 C1065 1.373 . S
C1064 C1066 1.389 1_554 S
C1065 H1044 0.950 1_655 S
C1065 C1064 1.373 . S
C1065 C1081 1.377 1_655 S
C1066 C1064 1.389 1_556 S
C1066 C1067 1.524 . S
C1066 C1080 1.377 . S
C1067 C1066 1.524 . S
C1067 C1068 1.397 . S
C1067 C1072 1.363 . S
C1068 H1045 0.950 . S
C1068 C1067 1.397 . S
C1068 C1069 1.334 . S
C1069 H1046 0.950 . S
C1069 C1068 1.334 . S
C1069 C1070 1.287 . S
C1070 C1069 1.287 . S
C1070 C1071 1.524 . S
C1070 H1089 0.913 . S
C1071 H1047 0.950 . S
C1071 C1070 1.524 . S
C1071 C1072 1.415 . S
C1072 H1048 0.950 . S
C1072 C1067 1.363 . S
C1072 C1071 1.415 . S
C1073 H1049 0.951 . S
C1073 C1074 1.366 . S
C1073 C1075 1.388 . S
C1074 C1073 1.366 . S
C1074 C1078 1.385 1_455 S
C1075 H1050 0.951 . S
C1075 C1073 1.388 . S
C1075 C1076 1.366 1_455 S
C1076 C1075 1.366 1_655 S
C1076 C1077 1.414 . S
C1076 C1079 1.499 . S
C1077 H1051 0.950 . S
C1077 C1076 1.414 . S
C1077 C1078 1.374 . S
C1078 H1052 0.950 . S
C1078 C1074 1.385 1_655 S
C1078 C1077 1.374 . S
C1079 C1076 1.499 . S
C1079 C1080 1.373 . S
C1079 C1081 1.389 1_656 S
C1080 H1053 0.950 . S
C1080 C1066 1.377 . S
C1080 C1079 1.373 . S
C1081 C1065 1.377 1_455 S
C1081 C1079 1.389 1_454 S
C1081 C1082 1.524 . S
C1082 C1081 1.524 . S
C1082 C1083 1.397 . S
C1082 C1087 1.363 . S
C1083 H1054 0.950 1_455 S
C1083 C1082 1.397 . S
C1083 C1084 1.334 . S
C1084 H1055 0.950 . S
C1084 C1083 1.334 . S
C1084 C1085 1.287 . S
C1085 C1084 1.287 . S
C1085 C1086 1.524 . S
C1085 H1088 0.999 . S
C1086 H1056 0.950 . S
C1086 C1085 1.524 . S
C1086 C1087 1.415 . S
C1087 H1057 0.950 . S
C1087 C1082 1.363 . S
C1087 C1086 1.415 . S
H1088 C1085 0.999 . S
H1089 C1070 0.913 . S
H1090 C1108 0.951 . S
H1091 C1110 0.951 . S
H1092 C1112 0.950 . S
H1093 C1113 0.950 . S
H1094 C1115 0.950 . S
H1095 C1118 0.950 . S
H1096 C1119 0.950 . S
H1097 C1121 0.950 . S
H1098 C1122 0.950 . S
H1099 C1123 0.951 . S
H1100 C1125 0.951 1_554 S
H1101 C1127 0.950 . S
H1102 C1128 0.950 . S
H1103 C1130 0.950 . S
H1104 C1133 0.950 1_556 S
H1105 C1134 0.950 1_556 S
H1106 C1136 0.950 . S
H1107 C1137 0.950 . S
C1108 H1090 0.951 . S
C1108 C1109 1.366 . S
C1108 C1110 1.388 . S
C1109 C1108 1.366 . S
C1109 C1113 1.385 . S
C1110 H1091 0.951 . S
C1110 C1108 1.388 . S
C1110 C1111 1.366 . S
C1111 C1110 1.366 . S
C1111 C1112 1.414 . S
C1111 C1114 1.499 . S
C1112 H1092 0.950 . S
C1112 C1111 1.414 . S
C1112 C1113 1.374 . S
C1113 H1093 0.950 . S
C1113 C1109 1.385 . S
C1113 C1112 1.374 . S
C1114 C1111 1.499 . S
C1114 C1115 1.373 . S
C1114 C1116 1.374 1_565 S
C1115 H1094 0.950 . S
C1115 C1114 1.373 . S
C1115 C1131 1.377 . S
C1116 C1114 1.374 1_545 S
C1116 C1117 1.538 1_554 S
C1116 C1130 1.380 1_554 S
C1117 C1116 1.538 1_556 S
C1117 C1118 1.397 1_556 S
C1117 C1122 1.363 . S
C1118 H1095 0.950 . S
C1118 C1117 1.397 1_554 S
C1118 C1119 1.334 . S
C1119 H1096 0.950 . S
C1119 C1118 1.334 . S
C1119 C1120 1.287 1_554 S
C1120 C1119 1.287 1_556 S
C1120 C1121 1.524 . S
C1120 H1139 0.913 . S
C1121 H1097 0.950 . S
C1121 C1120 1.524 . S
C1121 C1122 1.415 . S
C1122 H1098 0.950 . S
C1122 C1117 1.363 . S
C1122 C1121 1.415 . S
C1123 H1099 0.951 . S
C1123 C1124 1.366 . S
C1123 C1125 1.388 . S
C1124 C1123 1.366 . S
C1124 C1128 1.385 . S
C1125 H1100 0.951 1_556 S
C1125 C1123 1.388 . S
C1125 C1126 1.366 1_545 S
C1126 C1125 1.366 1_565 S
C1126 C1127 1.414 . S
C1126 C1129 1.499 . S
C1127 H1101 0.950 . S
C1127 C1126 1.414 . S
C1127 C1128 1.374 1_565 S
C1128 H1102 0.950 . S
C1128 C1124 1.385 . S
C1128 C1127 1.374 1_545 S
C1129 C1126 1.499 . S
C1129 C1130 1.373 1_565 S
C1129 C1131 1.389 1_556 S
C1130 H1103 0.950 . S
C1130 C1116 1.380 1_556 S
C1130 C1129 1.373 1_545 S
C1131 C1115 1.377 . S
C1131 C1129 1.389 1_554 S
C1131 C1132 1.524 . S
C1132 C1131 1.524 . S
C1132 C1133 1.397 . S
C1132 C1137 1.363 . S
C1133 H1104 0.950 1_554 S
C1133 C1132 1.397 . S
C1133 C1134 1.334 . S
C1134 H1105 0.950 1_554 S
C1134 C1133 1.334 . S
C1134 C1135 1.287 . S
C1135 C1134 1.287 . S
C1135 C1136 1.524 . S
C1135 H1138 0.999 . S
C1136 H1106 0.950 . S
C1136 C1135 1.524 . S
C1136 C1137 1.415 . S
C1137 H1107 0.950 . S
C1137 C1132 1.363 . S
C1137 C1136 1.415 . S
H1138 C1135 0.999 . S
H1139 C1120 0.913 . S
H1140 C1158 0.951 . S
H1141 C1160 0.951 . S
H1142 C1162 0.950 . S
H1143 C1163 0.950 . S
H1144 C1165 0.950 . S
H1145 C1168 0.950 . S
H1146 C1169 0.950 . S
H1147 C1171 0.950 . S
H1148 C1172 0.950 . S
H1149 C1173 0.951 . S
H1150 C1175 0.951 . S
H1151 C1177 0.950 . S
H1152 C1178 0.950 . S
H1153 C1180 0.950 . S
H1154 C1183 0.950 . S
H1155 C1184 0.950 . S
H1156 C1186 0.950 . S
H1157 C1187 0.950 . S
C1158 H1140 0.951 . S
C1158 C1159 1.366 . S
C1158 C1160 1.388 . S
C1159 C1158 1.366 . S
C1159 C1163 1.385 . S
C1160 H1141 0.951 . S
C1160 C1158 1.388 . S
C1160 C1161 1.366 . S
C1161 C1160 1.366 . S
C1161 C1162 1.414 . S
C1161 C1164 1.499 . S
C1162 H1142 0.950 . S
C1162 C1161 1.414 . S
C1162 C1163 1.374 . S
C1163 H1143 0.950 . S
C1163 C1159 1.385 . S
C1163 C1162 1.374 . S
C1164 C1161 1.499 . S
C1164 C1165 1.373 1_554 S
C1164 C1166 1.389 . S
C1165 H1144 0.950 . S
C1165 C1164 1.373 1_556 S
C1165 C1181 1.377 . S
C1166 C1164 1.389 . S
C1166 C1167 1.524 . S
C1166 C1180 1.377 . S
C1167 C1166 1.524 . S
C1167 C1168 1.397 . S
C1167 C1172 1.363 . S
C1168 H1145 0.950 . S
C1168 C1167 1.397 . S
C1168 C1169 1.334 . S
C1169 H1146 0.950 . S
C1169 C1168 1.334 . S
C1169 C1170 1.287 . S
C1170 C1169 1.287 . S
C1170 C1171 1.524 . S
C1170 H1189 0.913 . S
C1171 H1147 0.950 . S
C1171 C1170 1.524 . S
C1171 C1172 1.415 . S
C1172 H1148 0.950 . S
C1172 C1167 1.363 . S
C1172 C1171 1.415 . S
C1173 H1149 0.951 . S
C1173 C1174 1.366 . S
C1173 C1175 1.388 . S
C1174 C1173 1.366 . S
C1174 C1178 1.385 . S
C1175 H1150 0.951 . S
C1175 C1173 1.388 . S
C1175 C1176 1.366 . S
C1176 C1175 1.366 . S
C1176 C1177 1.414 . S
C1176 C1179 1.499 . S
C1177 H1151 0.950 . S
C1177 C1176 1.414 . S
C1177 C1178 1.374 . S
C1178 H1152 0.950 . S
C1178 C1174 1.385 . S
C1178 C1177 1.374 . S
C1179 C1176 1.499 . S
C1179 C1180 1.373 1_556 S
C1179 C1181 1.389 . S
C1180 H1153 0.950 . S
C1180 C1166 1.377 . S
C1180 C1179 1.373 1_554 S
C1181 C1165 1.377 . S
C1181 C1179 1.389 . S
C1181 C1182 1.524 . S
C1182 C1181 1.524 . S
C1182 C1183 1.397 . S
C1182 C1187 1.363 . S
C1183 H1154 0.950 . S
C1183 C1182 1.397 . S
C1183 C1184 1.334 . S
C1184 H1155 0.950 . S
C1184 C1183 1.334 . S
C1184 C1185 1.287 . S
C1185 C1184 1.287 . S
C1185 C1186 1.524 . S
C1185 H1188 0.999 . S
C1186 H1156 0.950 . S
C1186 C1185 1.524 . S
C1186 C1187 1.415 . S
C1187 H1157 0.950 . S
C1187 C1182 1.363 . S
C1187 C1186 1.415 . S
H1188 C1185 0.999 . S
H1189 C1170 0.913 . S
H1190 C1208 0.951 . S
H1191 C1210 0.951 . S
H1192 C1212 0.950 . S
H1193 C1213 0.950 . S
H1194 C1215 0.950 1_556 S
H1195 C1218 0.950 . S
H1196 C1219 0.950 . S
H1197 C1221 0.950 . S
H1198 C1222 0.950 . S
H1199 C1223 0.951 . S
H1200 C1225 0.951 . S
H1201 C1227 0.950 1_554 S
H1202 C1228 0.950 . S
H1203 C1230 0.950 . S
H1204 C1233 0.950 . S
H1205 C1234 0.950 . S
H1206 C1236 0.950 . S
H1207 C1237 0.950 . S
C1208 H1190 0.951 . S
C1208 C1209 1.366 . S
C1208 C1210 1.388 . S
C1209 C1208 1.366 . S
C1209 C1213 1.385 . S
C1210 H1191 0.951 . S
C1210 C1208 1.388 . S
C1210 C1211 1.366 . S
C1211 C1210 1.366 . S
C1211 C1212 1.414 . S
C1211 C1214 1.499 . S
C1212 H1192 0.950 . S
C1212 C1211 1.414 . S
C1212 C1213 1.374 . S
C1213 H1193 0.950 . S
C1213 C1209 1.385 . S
C1213 C1212 1.374 . S
C1214 C1211 1.499 . S
C1214 C1215 1.373 . S
C1214 C1216 1.389 . S
C1215 H1194 0.950 1_554 S
C1215 C1214 1.373 . S
C1215 C1231 1.377 1_554 S
C1216 C1214 1.389 . S
C1216 C1217 1.524 . S
C1216 C1230 1.377 . S
C1217 C1216 1.524 . S
C1217 C1218 1.397 . S
C1217 C1222 1.363 . S
C1218 H1195 0.950 . S
C1218 C1217 1.397 . S
C1218 C1219 1.334 . S
C1219 H1196 0.950 . S
C1219 C1218 1.334 . S
C1219 C1220 1.287 . S
C1220 C1219 1.287 . S
C1220 C1221 1.524 . S
C1220 H1239 0.913 . S
C1221 H1197 0.950 . S
C1221 C1220 1.524 . S
C1221 C1222 1.415 . S
C1222 H1198 0.950 . S
C1222 C1217 1.363 . S
C1222 C1221 1.415 . S
C1223 H1199 0.951 . S
C1223 C1224 1.366 . S
C1223 C1225 1.388 . S
C1224 C1223 1.366 . S
C1224 C1228 1.385 . S
C1225 H1200 0.951 . S
C1225 C1223 1.388 . S
C1225 C1226 1.366 . S
C1226 C1225 1.366 . S
C1226 C1227 1.414 . S
C1226 C1229 1.499 . S
C1227 H1201 0.950 1_556 S
C1227 C1226 1.414 . S
C1227 C1228 1.374 . S
C1228 H1202 0.950 . S
C1228 C1224 1.385 . S
C1228 C1227 1.374 . S
C1229 C1226 1.499 . S
C1229 C1230 1.373 1_556 S
C1229 C1231 1.389 . S
C1230 H1203 0.950 . S
C1230 C1216 1.377 . S
C1230 C1229 1.373 1_554 S
C1231 C1215 1.377 1_556 S
C1231 C1229 1.389 . S
C1231 C1232 1.524 . S
C1232 C1231 1.524 . S
C1232 C1233 1.397 . S
C1232 C1237 1.363 . S
C1233 H1204 0.950 . S
C1233 C1232 1.397 . S
C1233 C1234 1.334 . S
C1234 H1205 0.950 . S
C1234 C1233 1.334 . S
C1234 C1235 1.287 . S
C1235 C1234 1.287 . S
C1235 C1236 1.524 . S
C1235 H1238 0.999 . S
C1236 H1206 0.950 . S
C1236 C1235 1.524 . S
C1236 C1237 1.415 . S
C1237 H1207 0.950 . S
C1237 C1232 1.363 . S
C1237 C1236 1.415 . S
H1238 C1235 0.999 . S
H1239 C1220 0.913 . S
H1240 C1258 0.951 . S
H1241 C1260 0.951 . S
H1242 C1262 0.950 . S
H1243 C1263 0.950 . S
H1244 C1265 0.950 . S
H1245 C1268 0.950 . S
H1246 C1269 0.950 . S
H1247 C1271 0.950 . S
H1248 C1272 0.950 . S
H1249 C1273 0.951 . S
H1250 C1275 0.951 . S
H1251 C1277 0.950 1_655 S
H1252 C1278 0.950 1_655 S
H1253 C1280 0.950 . S
H1254 C1283 0.950 . S
H1255 C1284 0.950 . S
H1256 C1286 0.950 . S
H1257 C1287 0.950 . S
C1258 H1240 0.951 . S
C1258 C1259 1.366 . S
C1258 C1260 1.388 . S
C1259 C1258 1.366 . S
C1259 C1263 1.385 . S
C1260 H1241 0.951 . S
C1260 C1258 1.388 . S
C1260 C1261 1.366 . S
C1261 C1260 1.366 . S
C1261 C1262 1.414 . S
C1261 C1264 1.499 . S
C1262 H1242 0.950 . S
C1262 C1261 1.414 . S
C1262 C1263 1.374 . S
C1263 H1243 0.950 . S
C1263 C1259 1.385 . S
C1263 C1262 1.374 . S
C1264 C1261 1.499 . S
C1264 C1265 1.373 . S
C1264 C1266 1.389 . S
C1265 H1244 0.950 . S
C1265 C1264 1.373 . S
C1265 C1281 1.377 . S
C1266 C1264 1.389 . S
C1266 C1267 1.524 . S
C1266 C1280 1.377 . S
C1267 C1266 1.524 . S
C1267 C1268 1.397 . S
C1267 C1272 1.363 1_455 S
C1268 H1245 0.950 . S
C1268 C1267 1.397 . S
C1268 C1269 1.334 1_556 S
C1269 H1246 0.950 . S
C1269 C1268 1.334 1_554 S
C1269 C1270 1.287 . S
C1270 C1269 1.287 . S
C1270 C1271 1.524 1_455 S
C1270 H1289 0.913 . S
C1271 H1247 0.950 . S
C1271 C1270 1.524 1_655 S
C1271 C1272 1.415 1_554 S
C1272 H1248 0.950 . S
C1272 C1267 1.363 1_655 S
C1272 C1271 1.415 1_556 S
C1273 H1249 0.951 . S
C1273 C1274 1.366 . S
C1273 C1275 1.388 . S
C1274 C1273 1.366 . S
C1274 C1278 1.385 . S
C1275 H1250 0.951 . S
C1275 C1273 1.388 . S
C1275 C1276 1.366 . S
C1276 C1275 1.366 . S
C1276 C1277 1.414 . S
C1276 C1279 1.499 . S
C1277 H1251 0.950 1_455 S
C1277 C1276 1.414 . S
C1277 C1278 1.374 . S
C1278 H1252 0.950 1_455 S
C1278 C1274 1.385 . S
C1278 C1277 1.374 . S
C1279 C1276 1.499 . S
C1279 C1280 1.373 . S
C1279 C1281 1.389 . S
C1280 H1253 0.950 . S
C1280 C1266 1.377 . S
C1280 C1279 1.373 . S
C1281 C1265 1.377 . S
C1281 C1279 1.389 . S
C1281 C1282 1.524 . S
C1282 C1281 1.524 . S
C1282 C1283 1.397 . S
C1282 C1287 1.363 . S
C1283 H1254 0.950 . S
C1283 C1282 1.397 . S
C1283 C1284 1.334 . S
C1284 H1255 0.950 . S
C1284 C1283 1.334 . S
C1284 C1285 1.287 . S
C1285 C1284 1.287 . S
C1285 C1286 1.524 . S
C1285 H1288 0.999 . S
C1286 H1256 0.950 . S
C1286 C1285 1.524 . S
C1286 C1287 1.415 . S
C1287 H1257 0.950 . S
C1287 C1282 1.363 . S
C1287 C1286 1.415 . S
H1288 C1285 0.999 . S
H1289 C1270 0.913 . S
H1290 C1308 0.951 . S
H1291 C1310 0.951 . S
H1292 C1312 0.950 . S
H1293 C1313 0.950 . S
H1294 C1315 0.950 . S
H1295 C1318 0.950 . S
H1296 C1319 0.950 . S
H1297 C1321 0.950 . S
H1298 C1322 0.950 . S
H1299 C1323 0.951 . S
H1300 C1325 0.951 . S
H1301 C1327 0.950 . S
H1302 C1328 0.950 . S
H1303 C1330 0.950 . S
H1304 C1333 0.950 . S
H1305 C1334 0.950 . S
H1306 C1336 0.950 . S
H1307 C1337 0.950 . S
C1308 H1290 0.951 . S
C1308 C1309 1.366 . S
C1308 C1310 1.388 . S
C1309 C1308 1.366 . S
C1309 C1313 1.385 . S
C1310 H1291 0.951 . S
C1310 C1308 1.388 . S
C1310 C1311 1.366 . S
C1311 C1310 1.366 . S
C1311 C1312 1.414 . S
C1311 C1314 1.499 . S
C1312 H1292 0.950 . S
C1312 C1311 1.414 . S
C1312 C1313 1.374 . S
C1313 H1293 0.950 . S
C1313 C1309 1.385 . S
C1313 C1312 1.374 . S
C1314 C1311 1.499 . S
C1314 C1315 1.373 . S
C1314 C1316 1.389 . S
C1315 H1294 0.950 . S
C1315 C1314 1.373 . S
C1315 C1331 1.377 . S
C1316 C1314 1.389 . S
C1316 C1317 1.524 . S
C1316 C1330 1.377 . S
C1317 C1316 1.524 . S
C1317 C1318 1.397 . S
C1317 C1322 1.363 . S
C1318 H1295 0.950 . S
C1318 C1317 1.397 . S
C1318 C1319 1.334 . S
C1319 H1296 0.950 . S
C1319 C1318 1.334 . S
C1319 C1320 1.287 . S
C1320 C1319 1.287 . S
C1320 C1321 1.524 . S
C1320 H1339 0.913 . S
C1321 H1297 0.950 . S
C1321 C1320 1.524 . S
C1321 C1322 1.415 . S
C1322 H1298 0.950 . S
C1322 C1317 1.363 . S
C1322 C1321 1.415 . S
C1323 H1299 0.951 . S
C1323 C1324 1.366 . S
C1323 C1325 1.388 . S
C1324 C1323 1.366 . S
C1324 C1328 1.385 . S
C1325 H1300 0.951 . S
C1325 C1323 1.388 . S
C1325 C1326 1.366 . S
C1326 C1325 1.366 . S
C1326 C1327 1.414 . S
C1326 C1329 1.499 . S
C1327 H1301 0.950 . S
C1327 C1326 1.414 . S
C1327 C1328 1.374 . S
C1328 H1302 0.950 . S
C1328 C1324 1.385 . S
C1328 C1327 1.374 . S
C1329 C1326 1.499 . S
C1329 C1330 1.373 . S
C1329 C1331 1.389 . S
C1330 H1303 0.950 . S
C1330 C1316 1.377 . S
C1330 C1329 1.373 . S
C1331 C1315 1.377 . S
C1331 C1329 1.389 . S
C1331 C1332 1.524 1_545 S
C1332 C1331 1.524 1_565 S
C1332 C1333 1.397 . S
C1332 C1337 1.363 . S
C1333 H1304 0.950 . S
C1333 C1332 1.397 . S
C1333 C1334 1.334 . S
C1334 H1305 0.950 . S
C1334 C1333 1.334 . S
C1334 C1335 1.287 . S
C1335 C1334 1.287 . S
C1335 C1336 1.524 . S
C1335 H1338 0.999 . S
C1336 H1306 0.950 . S
C1336 C1335 1.524 . S
C1336 C1337 1.415 . S
C1337 H1307 0.950 . S
C1337 C1332 1.363 . S
C1337 C1336 1.415 . S
H1338 C1335 0.999 . S
H1339 C1320 0.913 . S
H1340 C1358 0.951 . S
H1341 C1360 0.951 . S
H1342 C1362 0.950 . S
H1343 C1363 0.950 . S
H1344 C1365 0.950 . S
H1345 C1368 0.950 . S
H1346 C1369 0.950 . S
H1347 C1371 0.950 . S
H1348 C1372 0.950 . S
H1349 C1373 0.951 . S
H1350 C1375 0.951 . S
H1351 C1377 0.950 . S
H1352 C1378 0.950 . S
H1353 C1380 0.950 . S
H1354 C1383 0.950 . S
H1355 C1384 0.950 . S
H1356 C1386 0.950 . S
H1357 C1387 0.950 . S
C1358 H1340 0.951 . S
C1358 C1359 1.366 . S
C1358 C1360 1.388 . S
C1359 C1358 1.366 . S
C1359 C1363 1.385 . S
C1360 H1341 0.951 . S
C1360 C1358 1.388 . S
C1360 C1361 1.366 . S
C1361 C1360 1.366 . S
C1361 C1362 1.414 . S
C1361 C1364 1.499 . S
C1362 H1342 0.950 . S
C1362 C1361 1.414 . S
C1362 C1363 1.374 . S
C1363 H1343 0.950 . S
C1363 C1359 1.385 . S
C1363 C1362 1.374 . S
C1364 C1361 1.499 . S
C1364 C1365 1.373 . S
C1364 C1366 1.389 . S
C1365 H1344 0.950 . S
C1365 C1364 1.373 . S
C1365 C1381 1.377 . S
C1366 C1364 1.389 . S
C1366 C1367 1.524 . S
C1366 C1380 1.377 . S
C1367 C1366 1.524 . S
C1367 C1368 1.397 . S
C1367 C1372 1.363 . S
C1368 H1345 0.950 . S
C1368 C1367 1.397 . S
C1368 C1369 1.334 . S
C1369 H1346 0.950 . S
C1369 C1368 1.334 . S
C1369 C1370 1.287 . S
C1370 C1369 1.287 . S
C1370 C1371 1.524 . S
C1370 H1389 0.913 . S
C1371 H1347 0.950 . S
C1371 C1370 1.524 . S
C1371 C1372 1.415 . S
C1372 H1348 0.950 . S
C1372 C1367 1.363 . S
C1372 C1371 1.415 . S
C1373 H1349 0.951 . S
C1373 C1374 1.366 . S
C1373 C1375 1.388 . S
C1374 C1373 1.366 . S
C1374 C1378 1.385 . S
C1375 H1350 0.951 . S
C1375 C1373 1.388 . S
C1375 C1376 1.366 . S
C1376 C1375 1.366 . S
C1376 C1377 1.414 . S
C1376 C1379 1.499 . S
C1377 H1351 0.950 . S
C1377 C1376 1.414 . S
C1377 C1378 1.374 . S
C1378 H1352 0.950 . S
C1378 C1374 1.385 . S
C1378 C1377 1.374 . S
C1379 C1376 1.499 . S
C1379 C1380 1.373 . S
C1379 C1381 1.389 . S
C1380 H1353 0.950 . S
C1380 C1366 1.377 . S
C1380 C1379 1.373 . S
C1381 C1365 1.377 . S
C1381 C1379 1.389 . S
C1381 C1382 1.524 . S
C1382 C1381 1.524 . S
C1382 C1383 1.397 . S
C1382 C1387 1.363 . S
C1383 H1354 0.950 . S
C1383 C1382 1.397 . S
C1383 C1384 1.334 . S
C1384 H1355 0.950 . S
C1384 C1383 1.334 . S
C1384 C1385 1.287 . S
C1385 C1384 1.287 . S
C1385 C1386 1.524 . S
C1385 H1388 0.999 1_556 S
C1386 H1356 0.950 . S
C1386 C1385 1.524 . S
C1386 C1387 1.415 . S
C1387 H1357 0.950 . S
C1387 C1382 1.363 . S
C1387 C1386 1.415 . S
H1388 C1385 0.999 1_554 S
H1389 C1370 0.913 . S
H1390 C1408 0.951 . S
H1391 C1410 0.951 . S
H1392 C1412 0.950 . S
H1393 C1413 0.950 . S
H1394 C1415 0.950 . S
H1395 C1418 0.950 . S
H1396 C1419 0.950 . S
H1397 C1421 0.950 . S
H1398 C1422 0.950 . S
H1399 C1423 0.951 . S
H1400 C1425 0.951 . S
H1401 C1427 0.950 . S
H1402 C1428 0.950 . S
H1403 C1430 0.950 . S
H1404 C1433 0.950 . S
H1405 C1434 0.950 . S
H1406 C1436 0.950 . S
H1407 C1437 0.950 . S
C1408 H1390 0.951 . S
C1408 C1409 1.366 . S
C1408 C1410 1.388 . S
C1409 C1408 1.366 . S
C1409 C1413 1.385 . S
C1410 H1391 0.951 . S
C1410 C1408 1.388 . S
C1410 C1411 1.366 . S
C1411 C1410 1.366 . S
C1411 C1412 1.414 . S
C1411 C1414 1.499 . S
C1412 H1392 0.950 . S
C1412 C1411 1.414 . S
C1412 C1413 1.374 . S
C1413 H1393 0.950 . S
C1413 C1409 1.385 . S
C1413 C1412 1.374 . S
C1414 C1411 1.499 . S
C1414 C1415 1.373 . S
C1414 C1416 1.389 . S
C1415 H1394 0.950 . S
C1415 C1414 1.373 . S
C1415 C1431 1.377 . S
C1416 C1414 1.389 . S
C1416 C1417 1.524 . S
C1416 C1430 1.377 . S
C1417 C1416 1.524 . S
C1417 C1418 1.397 . S
C1417 C1422 1.363 . S
C1418 H1395 0.950 . S
C1418 C1417 1.397 . S
C1418 C1419 1.334 . S
C1419 H1396 0.950 . S
C1419 C1418 1.334 . S
C1419 C1420 1.287 . S
C1420 C1419 1.287 . S
C1420 C1421 1.524 . S
C1420 H1439 0.913 . S
C1421 H1397 0.950 . S
C1421 C1420 1.524 . S
C1421 C1422 1.415 . S
C1422 H1398 0.950 . S
C1422 C1417 1.363 . S
C1422 C1421 1.415 . S
C1423 H1399 0.951 . S
C1423 C1424 1.366 . S
C1423 C1425 1.388 . S
C1424 C1423 1.366 . S
C1424 C1428 1.385 . S
C1425 H1400 0.951 . S
C1425 C1423 1.388 . S
C1425 C1426 1.366 . S
C1426 C1425 1.366 . S
C1426 C1427 1.414 . S
C1426 C1429 1.499 . S
C1427 H1401 0.950 . S
C1427 C1426 1.414 . S
C1427 C1428 1.374 . S
C1428 H1402 0.950 . S
C1428 C1424 1.385 . S
C1428 C1427 1.374 . S
C1429 C1426 1.499 . S
C1429 C1430 1.373 . S
C1429 C1431 1.389 . S
C1430 H1403 0.950 . S
C1430 C1416 1.377 . S
C1430 C1429 1.373 . S
C1431 C1415 1.377 . S
C1431 C1429 1.389 . S
C1431 C1432 1.524 . S
C1432 C1431 1.524 . S
C1432 C1433 1.397 . S
C1432 C1437 1.363 . S
C1433 H1404 0.950 . S
C1433 C1432 1.397 . S
C1433 C1434 1.334 . S
C1434 H1405 0.950 . S
C1434 C1433 1.334 . S
C1434 C1435 1.287 . S
C1435 C1434 1.287 . S
C1435 C1436 1.524 . S
C1435 H1438 0.999 . S
C1436 H1406 0.950 . S
C1436 C1435 1.524 . S
C1436 C1437 1.415 . S
C1437 H1407 0.950 . S
C1437 C1432 1.363 . S
C1437 C1436 1.415 . S
H1438 C1435 0.999 . S
H1439 C1420 0.913 . S
H1440 C1458 0.951 . S
H1441 C1460 0.951 . S
H1442 C1462 0.950 . S
H1443 C1463 0.950 . S
H1444 C1465 0.950 1_455 S
H1445 C1468 0.950 . S
H1446 C1469 0.950 . S
H1447 C1471 0.950 . S
H1448 C1472 0.950 . S
H1449 C1473 0.951 . S
H1450 C1475 0.951 . S
H1451 C1477 0.950 . S
H1452 C1478 0.950 . S
H1453 C1480 0.950 . S
H1454 C1483 0.950 . S
H1455 C1484 0.950 . S
H1456 C1486 0.950 . S
H1457 C1487 0.950 . S
C1458 H1440 0.951 . S
C1458 C1459 1.366 . S
C1458 C1460 1.388 . S
C1459 C1458 1.366 . S
C1459 C1463 1.385 . S
C1460 H1441 0.951 . S
C1460 C1458 1.388 . S
C1460 C1461 1.366 . S
C1461 C1460 1.366 . S
C1461 C1462 1.414 . S
C1461 C1464 1.499 . S
C1462 H1442 0.950 . S
C1462 C1461 1.414 . S
C1462 C1463 1.374 . S
C1463 H1443 0.950 . S
C1463 C1459 1.385 . S
C1463 C1462 1.374 . S
C1464 C1461 1.499 . S
C1464 C1465 1.373 . S
C1464 C1466 1.389 . S
C1465 H1444 0.950 1_655 S
C1465 C1464 1.373 . S
C1465 C1481 1.374 1_655 S
C1466 C1464 1.389 . S
C1466 C1467 1.524 . S
C1466 C1480 1.377 . S
C1467 C1466 1.524 . S
C1467 C1468 1.397 . S
C1467 C1472 1.363 . S
C1468 H1445 0.950 . S
C1468 C1467 1.397 . S
C1468 C1469 1.334 . S
C1469 H1446 0.950 . S
C1469 C1468 1.334 . S
C1469 C1470 1.287 . S
C1470 C1469 1.287 . S
C1470 C1471 1.524 . S
C1470 H1489 0.913 . S
C1471 H1447 0.950 . S
C1471 C1470 1.524 . S
C1471 C1472 1.415 . S
C1472 H1448 0.950 . S
C1472 C1467 1.363 . S
C1472 C1471 1.415 . S
C1473 H1449 0.951 . S
C1473 C1474 1.366 . S
C1473 C1475 1.388 . S
C1474 C1473 1.366 . S
C1474 C1478 1.385 . S
C1475 H1450 0.951 . S
C1475 C1473 1.388 . S
C1475 C1476 1.366 . S
C1476 C1475 1.366 . S
C1476 C1477 1.414 . S
C1476 C1479 1.499 . S
C1477 H1451 0.950 . S
C1477 C1476 1.414 . S
C1477 C1478 1.374 . S
C1478 H1452 0.950 . S
C1478 C1474 1.385 . S
C1478 C1477 1.374 . S
C1479 C1476 1.499 . S
C1479 C1480 1.373 . S
C1479 C1481 1.382 1_655 S
C1480 H1453 0.950 . S
C1480 C1466 1.377 . S
C1480 C1479 1.373 . S
C1481 C1465 1.374 1_455 S
C1481 C1479 1.382 1_455 S
C1481 C1482 1.535 . S
C1482 C1481 1.535 . S
C1482 C1483 1.397 . S
C1482 C1487 1.363 . S
C1483 H1454 0.950 . S
C1483 C1482 1.397 . S
C1483 C1484 1.334 . S
C1484 H1455 0.950 . S
C1484 C1483 1.334 . S
C1484 C1485 1.287 . S
C1485 C1484 1.287 . S
C1485 C1486 1.524 . S
C1485 H1488 0.999 . S
C1486 H1456 0.950 . S
C1486 C1485 1.524 . S
C1486 C1487 1.415 . S
C1487 H1457 0.950 . S
C1487 C1482 1.363 . S
C1487 C1486 1.415 . S
H1488 C1485 0.999 . S
H1489 C1470 0.913 . S
H1490 C1508 0.951 . S
H1491 C1510 0.951 . S
H1492 C1512 0.950 . S
H1493 C1513 0.950 . S
H1494 C1515 0.950 1_545 S
H1495 C1518 0.950 . S
H1496 C1519 0.950 . S
H1497 C1521 0.950 . S
H1498 C1522 0.950 . S
H1499 C1523 0.951 . S
H1500 C1525 0.951 . S
H1501 C1527 0.950 . S
H1502 C1528 0.950 . S
H1503 C1530 0.950 . S
H1504 C1533 0.950 . S
H1505 C1534 0.950 . S
H1506 C1536 0.950 . S
H1507 C1537 0.950 . S
C1508 H1490 0.951 . S
C1508 C1509 1.366 . S
C1508 C1510 1.388 . S
C1509 C1508 1.366 . S
C1509 C1513 1.385 . S
C1510 H1491 0.951 . S
C1510 C1508 1.388 . S
C1510 C1511 1.366 . S
C1511 C1510 1.366 . S
C1511 C1512 1.414 . S
C1511 C1514 1.499 . S
C1512 H1492 0.950 . S
C1512 C1511 1.414 . S
C1512 C1513 1.374 . S
C1513 H1493 0.950 . S
C1513 C1509 1.385 . S
C1513 C1512 1.374 . S
C1514 C1511 1.499 . S
C1514 C1515 1.373 . S
C1514 C1516 1.389 . S
C1515 H1494 0.950 1_565 S
C1515 C1514 1.373 . S
C1515 C1531 1.377 1_565 S
C1516 C1514 1.389 . S
C1516 C1517 1.524 . S
C1516 C1530 1.377 . S
C1517 C1516 1.524 . S
C1517 C1518 1.397 . S
C1517 C1522 1.363 . S
C1518 H1495 0.950 . S
C1518 C1517 1.397 . S
C1518 C1519 1.334 . S
C1519 H1496 0.950 . S
C1519 C1518 1.334 . S
C1519 C1520 1.287 . S
C1520 C1519 1.287 . S
C1520 C1521 1.524 . S
C1520 H1539 0.913 . S
C1521 H1497 0.950 . S
C1521 C1520 1.524 . S
C1521 C1522 1.415 . S
C1522 H1498 0.950 . S
C1522 C1517 1.363 . S
C1522 C1521 1.415 . S
C1523 H1499 0.951 . S
C1523 C1524 1.366 . S
C1523 C1525 1.388 . S
C1524 C1523 1.366 . S
C1524 C1528 1.385 . S
C1525 H1500 0.951 . S
C1525 C1523 1.388 . S
C1525 C1526 1.366 . S
C1526 C1525 1.366 . S
C1526 C1527 1.414 . S
C1526 C1529 1.499 . S
C1527 H1501 0.950 . S
C1527 C1526 1.414 . S
C1527 C1528 1.374 . S
C1528 H1502 0.950 . S
C1528 C1524 1.385 . S
C1528 C1527 1.374 . S
C1529 C1526 1.499 . S
C1529 C1530 1.373 . S
C1529 C1531 1.389 1_565 S
C1530 H1503 0.950 . S
C1530 C1516 1.377 . S
C1530 C1529 1.373 . S
C1531 C1515 1.377 1_545 S
C1531 C1529 1.389 1_545 S
C1531 C1532 1.524 . S
C1532 C1531 1.524 . S
C1532 C1533 1.397 . S
C1532 C1537 1.363 . S
C1533 H1504 0.950 . S
C1533 C1532 1.397 . S
C1533 C1534 1.334 . S
C1534 H1505 0.950 . S
C1534 C1533 1.334 . S
C1534 C1535 1.287 . S
C1535 C1534 1.287 . S
C1535 C1536 1.524 . S
C1535 H1538 0.999 . S
C1536 H1506 0.950 . S
C1536 C1535 1.524 . S
C1536 C1537 1.415 . S
C1537 H1507 0.950 . S
C1537 C1532 1.363 . S
C1537 C1536 1.415 . S
H1538 C1535 0.999 . S
H1539 C1520 0.913 . S
H1540 C1558 0.951 . S
H1541 C1560 0.951 . S
H1542 C1562 0.950 . S
H1543 C1563 0.950 . S
H1544 C1565 0.950 . S
H1545 C1568 0.950 . S
H1546 C1569 0.950 . S
H1547 C1571 0.950 . S
H1548 C1572 0.950 . S
H1549 C1573 0.951 . S
H1550 C1575 0.951 . S
H1551 C1577 0.950 . S
H1552 C1578 0.950 . S
H1553 C1580 0.950 . S
H1554 C1583 0.950 . S
H1555 C1584 0.950 . S
H1556 C1586 0.950 . S
H1557 C1587 0.950 . S
C1558 H1540 0.951 . S
C1558 C1559 1.366 . S
C1558 C1560 1.388 . S
C1559 C1558 1.366 . S
C1559 C1563 1.385 . S
C1560 H1541 0.951 . S
C1560 C1558 1.388 . S
C1560 C1561 1.366 . S
C1561 C1560 1.366 . S
C1561 C1562 1.414 . S
C1561 C1564 1.499 . S
C1562 H1542 0.950 . S
C1562 C1561 1.414 . S
C1562 C1563 1.374 . S
C1563 H1543 0.950 . S
C1563 C1559 1.385 . S
C1563 C1562 1.374 . S
C1564 C1561 1.499 . S
C1564 C1565 1.373 . S
C1564 C1566 1.389 . S
C1565 H1544 0.950 . S
C1565 C1564 1.373 . S
C1565 C1581 1.377 . S
C1566 C1564 1.389 . S
C1566 C1567 1.524 . S
C1566 C1580 1.377 . S
C1567 C1566 1.524 . S
C1567 C1568 1.397 . S
C1567 C1572 1.363 . S
C1568 H1545 0.950 . S
C1568 C1567 1.397 . S
C1568 C1569 1.334 . S
C1569 H1546 0.950 . S
C1569 C1568 1.334 . S
C1569 C1570 1.287 . S
C1570 C1569 1.287 . S
C1570 C1571 1.524 . S
C1570 H1589 0.913 . S
C1571 H1547 0.950 . S
C1571 C1570 1.524 . S
C1571 C1572 1.415 . S
C1572 H1548 0.950 . S
C1572 C1567 1.363 . S
C1572 C1571 1.415 . S
C1573 H1549 0.951 . S
C1573 C1574 1.366 . S
C1573 C1575 1.388 . S
C1574 C1573 1.366 . S
C1574 C1578 1.385 . S
C1575 H1550 0.951 . S
C1575 C1573 1.388 . S
C1575 C1576 1.366 . S
C1576 C1575 1.366 . S
C1576 C1577 1.414 . S
C1576 C1579 1.499 . S
C1577 H1551 0.950 . S
C1577 C1576 1.414 . S
C1577 C1578 1.374 . S
C1578 H1552 0.950 . S
C1578 C1574 1.385 . S
C1578 C1577 1.374 . S
C1579 C1576 1.499 . S
C1579 C1580 1.373 . S
C1579 C1581 1.389 . S
C1580 H1553 0.950 . S
C1580 C1566 1.377 . S
C1580 C1579 1.373 . S
C1581 C1565 1.377 . S
C1581 C1579 1.389 . S
C1581 C1582 1.524 . S
C1582 C1581 1.524 . S
C1582 C1583 1.397 . S
C1582 C1587 1.363 . S
C1583 H1554 0.950 . S
C1583 C1582 1.397 . S
C1583 C1584 1.334 . S
C1584 H1555 0.950 . S
C1584 C1583 1.334 . S
C1584 C1585 1.287 . S
C1585 C1584 1.287 . S
C1585 C1586 1.524 . S
C1585 H1588 0.999 . S
C1586 H1556 0.950 . S
C1586 C1585 1.524 . S
C1586 C1587 1.415 . S
C1587 H1557 0.950 . S
C1587 C1582 1.363 . S
C1587 C1586 1.415 . S
H1588 C1585 0.999 . S
H1589 C1570 0.913 . S
H1590 C1608 0.951 . S
H1591 C1610 0.951 . S
H1592 C1612 0.950 . S
H1593 C1613 0.950 . S
H1594 C1615 0.950 . S
H1595 C1618 0.950 . S
H1596 C1619 0.950 . S
H1597 C1621 0.950 . S
H1598 C1622 0.950 . S
H1599 C1623 0.951 . S
H1600 C1625 0.951 . S
H1601 C1627 0.950 . S
H1602 C1628 0.950 . S
H1603 C1630 0.950 . S
H1604 C1633 0.950 . S
H1605 C1634 0.950 . S
H1606 C1636 0.950 . S
H1607 C1637 0.950 . S
C1608 H1590 0.951 . S
C1608 C1609 1.366 . S
C1608 C1610 1.388 . S
C1609 C1608 1.366 . S
C1609 C1613 1.385 . S
C1610 H1591 0.951 . S
C1610 C1608 1.388 . S
C1610 C1611 1.366 . S
C1611 C1610 1.366 . S
C1611 C1612 1.414 . S
C1611 C1614 1.499 . S
C1612 H1592 0.950 . S
C1612 C1611 1.414 . S
C1612 C1613 1.374 . S
C1613 H1593 0.950 . S
C1613 C1609 1.385 . S
C1613 C1612 1.374 . S
C1614 C1611 1.499 . S
C1614 C1615 1.373 . S
C1614 C1616 1.389 . S
C1615 H1594 0.950 . S
C1615 C1614 1.373 . S
C1615 C1631 1.377 . S
C1616 C1614 1.389 . S
C1616 C1617 1.524 . S
C1616 C1630 1.377 . S
C1617 C1616 1.524 . S
C1617 C1618 1.397 . S
C1617 C1622 1.363 . S
C1618 H1595 0.950 . S
C1618 C1617 1.397 . S
C1618 C1619 1.334 . S
C1619 H1596 0.950 . S
C1619 C1618 1.334 . S
C1619 C1620 1.287 . S
C1620 C1619 1.287 . S
C1620 C1621 1.524 . S
C1620 H1639 0.913 . S
C1621 H1597 0.950 . S
C1621 C1620 1.524 . S
C1621 C1622 1.415 . S
C1622 H1598 0.950 . S
C1622 C1617 1.363 . S
C1622 C1621 1.415 . S
C1623 H1599 0.951 . S
C1623 C1624 1.366 . S
C1623 C1625 1.388 . S
C1624 C1623 1.366 . S
C1624 C1628 1.385 . S
C1625 H1600 0.951 . S
C1625 C1623 1.388 . S
C1625 C1626 1.366 . S
C1626 C1625 1.366 . S
C1626 C1627 1.414 . S
C1626 C1629 1.499 . S
C1627 H1601 0.950 . S
C1627 C1626 1.414 . S
C1627 C1628 1.374 . S
C1628 H1602 0.950 . S
C1628 C1624 1.385 . S
C1628 C1627 1.374 . S
C1629 C1626 1.499 . S
C1629 C1630 1.373 . S
C1629 C1631 1.389 . S
C1630 H1603 0.950 . S
C1630 C1616 1.377 . S
C1630 C1629 1.373 . S
C1631 C1615 1.377 . S
C1631 C1629 1.389 . S
C1631 C1632 1.524 . S
C1632 C1631 1.524 . S
C1632 C1633 1.397 . S
C1632 C1637 1.363 . S
C1633 H1604 0.950 . S
C1633 C1632 1.397 . S
C1633 C1634 1.334 . S
C1634 H1605 0.950 . S
C1634 C1633 1.334 . S
C1634 C1635 1.287 . S
C1635 C1634 1.287 . S
C1635 C1636 1.524 . S
C1635 H1638 0.999 . S
C1636 H1606 0.950 . S
C1636 C1635 1.524 . S
C1636 C1637 1.415 . S
C1637 H1607 0.950 . S
C1637 C1632 1.363 . S
C1637 C1636 1.415 . S
H1638 C1635 0.999 . S
H1639 C1620 0.913 . S
C459 C82 1.728 . S
C474 C167 1.926 . S
C524 C244 1.945 . S
C509 C95 1.734 . S
C574 C335 1.914 . S
C559 C56 1.714 . S
C624 C419 1.904 . S
C609 C69 1.707 . S
C674 C178 1.927 . S
C659 C30 1.690 . S
C709 C43 1.694 . S
C724 C255 1.945 . S
C759 C4 1.677 . S
C774 C346 1.914 . S
C809 C17 1.670 . S
C824 C430 1.904 1_655 S
C874 C162 0.558 1_455 S
C859 C74 0.479 . S
C924 C257 0.555 . S
C909 C87 0.449 . S
C974 C330 0.554 . S
C959 C100 0.482 . S
C1009 C61 0.462 . S
C1024 C414 0.548 . S
C1059 C22 0.480 . S
C1074 C173 0.555 . S
C1124 C246 0.554 . S
C1109 C35 0.454 . S
C1174 C341 0.556 . S
C1159 C48 0.485 . S
C1209 C9 0.465 . S
C1224 C425 0.547 . S
C1259 C73 1.853 . S
C1274 C171 1.999 . S
C1309 C86 1.847 . S
C1324 C262 1.992 . S
C1374 C339 2.018 . S
C1359 C99 1.869 . S
C1424 C423 2.024 . S
C1409 C60 1.876 . S
C1459 C21 1.849 . S
C1474 C160 1.999 . S
C1524 C251 1.993 1_565 S
C1509 C34 1.844 . S
C1574 C328 2.018 . S
C1559 C47 1.865 . S
C1609 C8 1.872 . S
C1624 C412 2.023 . S
