# Generated by pormake.
# Topology apo, (3,6)-cn, num edge types: 1
# Building blocks:
#     Node 0, Type 0, BuildingBlock: BETDAH_clean_linker_0, # of connection points: 3
#     Node 1, Type 0, BuildingBlock: BETDAH_clean_linker_0, # of connection points: 3
#     Node 2, Type 0, BuildingBlock: BETDAH_clean_linker_0, # of connection points: 3
#     Node 3, Type 0, BuildingBlock: BETDAH_clean_linker_0, # of connection points: 3
#     Node 4, Type 0, BuildingBlock: BETDAH_clean_linker_0, # of connection points: 3
#     Node 5, Type 0, BuildingBlock: BETDAH_clean_linker_0, # of connection points: 3
#     Node 6, Type 0, BuildingBlock: BETDAH_clean_linker_0, # of connection points: 3
#     Node 7, Type 0, BuildingBlock: BETDAH_clean_linker_0, # of connection points: 3
#     Node 8, Type 1, BuildingBlock: KUMBOL_clean_sbu_1, # of connection points: 6
#     Node 9, Type 1, BuildingBlock: KUMBOL_clean_sbu_1, # of connection points: 6
#     Node 10, Type 1, BuildingBlock: KUMBOL_clean_sbu_1, # of connection points: 6
#     Node 11, Type 1, BuildingBlock: KUMBOL_clean_sbu_1, # of connection points: 6
#     Edge 12, Type (0, 1), BuildingBlock: MIFKUJ_clean_linker_0, # of connection points: 2
#     Edge 13, Type (0, 1), BuildingBlock: MIFKUJ_clean_linker_0, # of connection points: 2
#     Edge 14, Type (0, 1), BuildingBlock: MIFKUJ_clean_linker_0, # of connection points: 2
#     Edge 15, Type (0, 1), BuildingBlock: MIFKUJ_clean_linker_0, # of connection points: 2
#     Edge 16, Type (0, 1), BuildingBlock: MIFKUJ_clean_linker_0, # of connection points: 2
#     Edge 17, Type (0, 1), BuildingBlock: MIFKUJ_clean_linker_0, # of connection points: 2
#     Edge 18, Type (0, 1), BuildingBlock: MIFKUJ_clean_linker_0, # of connection points: 2
#     Edge 19, Type (0, 1), BuildingBlock: MIFKUJ_clean_linker_0, # of connection points: 2
#     Edge 20, Type (0, 1), BuildingBlock: MIFKUJ_clean_linker_0, # of connection points: 2
#     Edge 21, Type (0, 1), BuildingBlock: MIFKUJ_clean_linker_0, # of connection points: 2
#     Edge 22, Type (0, 1), BuildingBlock: MIFKUJ_clean_linker_0, # of connection points: 2
#     Edge 23, Type (0, 1), BuildingBlock: MIFKUJ_clean_linker_0, # of connection points: 2
#     Edge 24, Type (0, 1), BuildingBlock: MIFKUJ_clean_linker_0, # of connection points: 2
#     Edge 25, Type (0, 1), BuildingBlock: MIFKUJ_clean_linker_0, # of connection points: 2
#     Edge 26, Type (0, 1), BuildingBlock: MIFKUJ_clean_linker_0, # of connection points: 2
#     Edge 27, Type (0, 1), BuildingBlock: MIFKUJ_clean_linker_0, # of connection points: 2
#     Edge 28, Type (0, 1), BuildingBlock: MIFKUJ_clean_linker_0, # of connection points: 2
#     Edge 29, Type (0, 1), BuildingBlock: MIFKUJ_clean_linker_0, # of connection points: 2
#     Edge 30, Type (0, 1), BuildingBlock: MIFKUJ_clean_linker_0, # of connection points: 2
#     Edge 31, Type (0, 1), BuildingBlock: MIFKUJ_clean_linker_0, # of connection points: 2
#     Edge 32, Type (0, 1), BuildingBlock: MIFKUJ_clean_linker_0, # of connection points: 2
#     Edge 33, Type (0, 1), BuildingBlock: MIFKUJ_clean_linker_0, # of connection points: 2
#     Edge 34, Type (0, 1), BuildingBlock: MIFKUJ_clean_linker_0, # of connection points: 2
#     Edge 35, Type (0, 1), BuildingBlock: MIFKUJ_clean_linker_0, # of connection points: 2
# Relax obj value: 0.037
# Max RMSD: 0.208
# Mean RMSD: 0.149
data_MOF--net-apo--node1-KUMBOL_clean_sbu_1--node2-BETDAH_clean_linker_0--edge1-MIFKUJ_clean_linker_0
_symmetry_space_group_name_H-M    P1
_symmetry_Int_Tables_number       1
_symmetry_cell_setting            triclinic
loop_
_symmetry_equiv_pos_as_xyz
'x, y, z'
_cell_length_a     35.36617
_cell_length_b     54.806398
_cell_length_c     64.91397
_cell_angle_alpha  89.581768
_cell_angle_beta   90.086024
_cell_angle_gamma 90.494646
loop_
_atom_site_label
_atom_site_type_symbol
_atom_site_fract_x
_atom_site_fract_y
_atom_site_fract_z
_atom_type_partial_charge
H0 H 0.34908 0.4108 0.42749 0.0
H1 H 0.28481 0.37172 0.38157 0.0
H2 H 0.29031 0.34446 0.44361 0.0
C3 C 0.33083 0.39568 0.4232 0.0
C4 C 0.32142 0.37793 0.43807 0.0
C5 C 0.31781 0.3937 0.40272 0.0
C6 C 0.29528 0.37339 0.39718 0.0
C7 C 0.28558 0.35558 0.41204 0.0
C8 C 0.29859 0.35809 0.43226 0.0
N9 N 0.26242 0.33497 0.40765 0.0
C10 C 0.24811 0.32838 0.38851 0.0
H11 H 0.1504 0.10398 0.92277 0.0
H12 H 0.22414 0.14195 0.88035 0.0
H13 H 0.22553 0.16038 0.94453 0.0
C14 C 0.17181 0.11784 0.91984 0.0
C15 C 0.1858 0.13188 0.93626 0.0
C16 C 0.18565 0.12117 0.89967 0.0
C17 C 0.21337 0.13926 0.89582 0.0
C18 C 0.2272 0.15369 0.91208 0.0
C19 C 0.21367 0.14966 0.9321 0.0
N20 N 0.25543 0.17202 0.90932 0.0
C21 C 0.26786 0.1818 0.89066 0.0
H22 H 0.86204 0.1156 0.5939 0.0
H23 H 0.78633 0.15498 0.63343 0.0
H24 H 0.79415 0.17352 0.56921 0.0
C25 C 0.84151 0.1299 0.59611 0.0
C26 C 0.83072 0.14438 0.5792 0.0
C27 C 0.8257 0.13348 0.61578 0.0
C28 C 0.79869 0.15199 0.61841 0.0
C29 C 0.78763 0.16653 0.60152 0.0
C30 C 0.80358 0.16252 0.58215 0.0
N31 N 0.75998 0.18505 0.60296 0.0
C32 C 0.74403 0.19398 0.62091 0.0
H33 H 0.67249 0.41219 0.09161 0.0
H34 H 0.75766 0.38796 0.13467 0.0
H35 H 0.75982 0.3635 0.07211 0.0
C36 C 0.6972 0.40137 0.09516 0.0
C37 C 0.71382 0.38756 0.07951 0.0
C38 C 0.71301 0.40207 0.1151 0.0
C39 C 0.74463 0.38744 0.11956 0.0
C40 C 0.76135 0.37354 0.10397 0.0
C41 C 0.74633 0.37405 0.08404 0.0
N42 N 0.7954 0.36071 0.10735 0.0
C43 C 0.80102 0.34453 0.12362 0.0
H44 H 0.65781 0.60614 0.58853 0.0
H45 H 0.73746 0.64047 0.62971 0.0
H46 H 0.74157 0.65625 0.56487 0.0
C47 C 0.68081 0.61896 0.59114 0.0
C48 C 0.6973 0.63116 0.57426 0.0
C49 C 0.69521 0.62199 0.61119 0.0
C50 C 0.72591 0.6381 0.61438 0.0
C51 C 0.74246 0.65049 0.59757 0.0
C52 C 0.72841 0.64666 0.57769 0.0
N53 N 0.77471 0.66579 0.59977 0.0
C54 C 0.78174 0.68085 0.6165 0.0
H55 H 0.8424 0.91805 0.08687 0.0
H56 H 0.7899 0.85059 0.06885 0.0
H57 H 0.78291 0.87407 0.13182 0.0
C58 C 0.82602 0.90186 0.09078 0.0
C59 C 0.81353 0.8983 0.11115 0.0
C60 C 0.81765 0.88487 0.07538 0.0
C61 C 0.7964 0.86402 0.08054 0.0
C62 C 0.78386 0.8599 0.10073 0.0
C63 C 0.79262 0.87703 0.11618 0.0
N64 N 0.76257 0.83825 0.10451 0.0
C65 C 0.74717 0.83064 0.12319 0.0
H66 H 0.15994 0.90497 0.42923 0.0
H67 H 0.23622 0.87928 0.38253 0.0
H68 H 0.24597 0.85284 0.44457 0.0
C69 C 0.18342 0.89363 0.42472 0.0
C70 C 0.20068 0.87844 0.43944 0.0
C71 C 0.19618 0.89432 0.40416 0.0
C72 C 0.22558 0.87869 0.39817 0.0
C73 C 0.24326 0.86365 0.41285 0.0
C74 C 0.23113 0.86393 0.43333 0.0
N75 N 0.2756 0.84972 0.40806 0.0
C76 C 0.27989 0.83613 0.39025 0.0
H77 H 0.36172 0.61398 0.92101 0.0
H78 H 0.29613 0.67508 0.94048 0.0
H79 H 0.28858 0.65101 0.87775 0.0
C80 C 0.34185 0.62835 0.91738 0.0
C81 C 0.32686 0.63054 0.89732 0.0
C82 C 0.33133 0.64458 0.93288 0.0
C83 C 0.30495 0.66274 0.92845 0.0
C84 C 0.28946 0.66519 0.90873 0.0
C85 C 0.30056 0.64917 0.89304 0.0
N86 N 0.26167 0.68339 0.9058 0.0
C87 C 0.25162 0.69422 0.88719 0.0
C88 C 0.89561 0.09297 0.26144 0.0
C89 C 0.89606 0.04944 0.26877 0.0
C90 C 0.91354 0.07261 0.26952 0.0
C91 C 0.86088 0.04682 0.25895 0.0
C92 C 0.85955 0.09055 0.25234 0.0
C93 C 0.8427 0.06732 0.25071 0.0
N94 N 0.91255 0.11522 0.26341 0.0
C95 C 0.89315 0.13592 0.25853 0.0
C96 C 0.84098 0.11165 0.2457 0.0
C97 C 0.85758 0.13445 0.24917 0.0
Gd98 Gd 0.05039 0.11935 0.2316 0.0
Gd99 Gd 0.97361 0.11525 0.27809 0.0
N100 N 0.94808 0.07559 0.27841 0.0
C101 C 0.91435 0.02965 0.27811 0.0
C102 C 0.96513 0.0567 0.28853 0.0
C103 C 0.94881 0.03337 0.28824 0.0
H104 H 0.99156 0.05968 0.29653 0.0
H105 H 0.96282 0.01826 0.29577 0.0
H106 H 0.01713 0.16081 0.19753 0.0
H107 H 0.90456 0.15367 0.26219 0.0
H108 H 0.03114 0.20319 0.18687 0.0
H109 H 0.90185 0.01154 0.27785 0.0
H110 H 0.8472 0.0291 0.25795 0.0
H111 H 0.12778 0.09867 0.25478 0.0
H112 H 0.81326 0.11058 0.23863 0.0
H113 H 0.84274 0.15093 0.24492 0.0
H114 H 0.14817 0.22204 0.22101 0.0
H115 H 0.81519 0.06511 0.24357 0.0
H116 H 0.20866 0.15724 0.25824 0.0
H117 H 0.19062 0.1143 0.26561 0.0
N118 N 0.11057 0.13258 0.24195 0.0
C119 C 0.12065 0.15576 0.23678 0.0
C120 C 0.13556 0.11742 0.25156 0.0
C121 C 0.18119 0.15046 0.25344 0.0
C122 C 0.17109 0.1262 0.25765 0.0
C123 C 0.15602 0.1655 0.24268 0.0
H124 H 0.19211 0.19767 0.24202 0.0
N125 N 0.0631 0.15879 0.21858 0.0
C126 C 0.09584 0.16943 0.22502 0.0
C127 C 0.08161 0.20581 0.20538 0.0
C128 C 0.10583 0.19332 0.21877 0.0
C129 C 0.0409 0.17021 0.20432 0.0
C130 C 0.04928 0.19405 0.19788 0.0
O131 O 0.98306 0.08512 0.25487 0.0
O132 O 0.99127 0.10636 0.22517 0.0
O133 O 0.07245 0.11787 0.20006 0.0
O134 O 0.06982 0.08498 0.21941 0.0
O135 O 0.032 0.10141 0.28523 0.0
O136 O 0.0559 0.0875 0.25416 0.0
O137 O 0.06447 0.13515 0.26288 0.0
O138 O 0.00855 0.14997 0.27542 0.0
O139 O 0.98568 0.1118 0.3109 0.0
O140 O 0.93336 0.12781 0.30084 0.0
O141 O 0.99285 0.13679 0.22624 0.0
O142 O 0.97172 0.14946 0.2582 0.0
C143 C 0.97744 0.08748 0.23502 0.0
C144 C 0.05276 0.08632 0.27444 0.0
C145 C 0.09523 0.07982 0.18499 0.0
C146 C 0.11132 0.07386 0.14866 0.0
C147 C 0.12629 0.04269 0.17427 0.0
C148 C 0.11051 0.05689 0.1897 0.0
C149 C 0.12683 0.05107 0.15394 0.0
C150 C 0.09569 0.08826 0.16442 0.0
C151 C 0.07875 0.09456 0.20164 0.0
C152 C 0.14022 0.2036 0.22546 0.0
C153 C 0.16529 0.18971 0.23738 0.0
H154 H 0.0884 0.22413 0.20011 0.0
C155 C 0.04532 0.15191 0.27263 0.0
C156 C 0.97375 0.15194 0.23799 0.0
C157 C 0.93222 0.10538 0.33202 0.0
C158 C 0.91637 0.09682 0.36804 0.0
C159 C 0.88881 0.07233 0.34064 0.0
C160 C 0.90795 0.08636 0.32596 0.0
C161 C 0.89289 0.07748 0.36152 0.0
C162 C 0.93632 0.1106 0.35309 0.0
C163 C 0.95292 0.12002 0.3165 0.0
H164 H 0.13828 0.02513 0.17809 0.0
H165 H 0.11054 0.04996 0.20537 0.0
H166 H 0.1399 0.03976 0.1424 0.0
H167 H 0.08329 0.10575 0.16067 0.0
H168 H 0.8702 0.05767 0.33579 0.0
H169 H 0.90329 0.08252 0.30992 0.0
H170 H 0.8767 0.06676 0.37253 0.0
H171 H 0.95487 0.12539 0.3578 0.0
C172 C 0.62801 0.42518 0.76727 0.0
C173 C 0.62441 0.46914 0.77099 0.0
C174 C 0.60759 0.44577 0.77263 0.0
C175 C 0.66145 0.47158 0.76343 0.0
C176 C 0.66533 0.42756 0.75983 0.0
C177 C 0.68183 0.45085 0.75785 0.0
N178 N 0.61108 0.40289 0.76891 0.0
C179 C 0.63029 0.38221 0.76417 0.0
C180 C 0.68488 0.40644 0.75446 0.0
C181 C 0.66733 0.38366 0.75676 0.0
Gd182 Gd 0.46279 0.39529 0.74078 0.0
Gd183 Gd 0.5488 0.40243 0.78118 0.0
N184 N 0.57132 0.44295 0.77935 0.0
C185 C 0.60364 0.48939 0.77719 0.0
C186 C 0.55199 0.46249 0.78664 0.0
C187 C 0.56747 0.486 0.78531 0.0
H188 H 0.52527 0.46014 0.7942 0.0
H189 H 0.55172 0.50143 0.79093 0.0
H190 H 0.48831 0.33813 0.72714 0.0
H191 H 0.6174 0.36457 0.7666 0.0
H192 H 0.46511 0.29615 0.73188 0.0
H193 H 0.61569 0.50761 0.7763 0.0
H194 H 0.67466 0.48941 0.76194 0.0
H195 H 0.39368 0.43159 0.75702 0.0
H196 H 0.71358 0.4075 0.74868 0.0
H197 H 0.68241 0.36719 0.75295 0.0
H198 H 0.34415 0.30544 0.76397 0.0
H199 H 0.7104 0.45303 0.75208 0.0
H200 H 0.30146 0.38653 0.77751 0.0
H201 H 0.32984 0.42751 0.77208 0.0
N202 N 0.40163 0.39336 0.75448 0.0
C203 C 0.38636 0.37067 0.75698 0.0
C204 C 0.38177 0.41363 0.75962 0.0
C205 C 0.32955 0.38821 0.77098 0.0
C206 C 0.34551 0.41138 0.76801 0.0
C207 C 0.3499 0.36749 0.76538 0.0
H208 H 0.30712 0.341 0.77448 0.0
N209 N 0.44288 0.35424 0.74337 0.0
C210 C 0.40763 0.35054 0.75133 0.0
C211 C 0.41398 0.30701 0.74712 0.0
C212 C 0.39246 0.32679 0.75365 0.0
C213 C 0.46264 0.33513 0.73561 0.0
C214 C 0.44896 0.31124 0.73778 0.0
O215 O 0.557 0.41739 0.74866 0.0
O216 O 0.49804 0.42962 0.73795 0.0
O217 O 0.46571 0.38762 0.70801 0.0
O218 O 0.42122 0.4104 0.71963 0.0
O219 O 0.49291 0.42096 0.78834 0.0
O220 O 0.46523 0.43133 0.75713 0.0
O221 O 0.45532 0.38286 0.77403 0.0
O222 O 0.51313 0.36806 0.78337 0.0
O223 O 0.54445 0.41028 0.81387 0.0
O224 O 0.59045 0.38842 0.80266 0.0
O225 O 0.51946 0.37819 0.73324 0.0
O226 O 0.54637 0.36671 0.76425 0.0
C227 C 0.53506 0.43183 0.73778 0.0
C228 C 0.47008 0.43457 0.77705 0.0
C229 C 0.4074 0.3862 0.69049 0.0
C230 C 0.38475 0.37525 0.65618 0.0
C231 C 0.35523 0.35751 0.68665 0.0
C232 C 0.37985 0.37074 0.6992 0.0
C233 C 0.35773 0.35962 0.66527 0.0
C234 C 0.40953 0.38862 0.66892 0.0
C235 C 0.43472 0.39925 0.70366 0.0
C236 C 0.3562 0.32355 0.76209 0.0
C237 C 0.33503 0.34382 0.76799 0.0
H238 H 0.40338 0.28848 0.74868 0.0
C239 C 0.4761 0.36725 0.78434 0.0
C240 C 0.54248 0.36439 0.74418 0.0
C241 C 0.56764 0.37951 0.83584 0.0
C242 C 0.5734 0.36929 0.87231 0.0
C243 C 0.54536 0.34023 0.8485 0.0
C244 C 0.5509 0.35664 0.83226 0.0
C245 C 0.55645 0.34652 0.86842 0.0
C246 C 0.57909 0.38576 0.85586 0.0
C247 C 0.5734 0.39688 0.81879 0.0
H248 H 0.33413 0.34557 0.69353 0.0
H249 H 0.37729 0.36887 0.71565 0.0
H250 H 0.33814 0.34928 0.65583 0.0
H251 H 0.43079 0.40051 0.66208 0.0
H252 H 0.53271 0.32254 0.84557 0.0
H253 H 0.54248 0.35138 0.8169 0.0
H254 H 0.55256 0.33344 0.88081 0.0
H255 H 0.5921 0.40342 0.85865 0.0
C256 C 0.87958 0.87511 0.76495 0.0
C257 C 0.8797 0.83179 0.77316 0.0
C258 C 0.89791 0.85476 0.77274 0.0
C259 C 0.84319 0.82937 0.76485 0.0
C260 C 0.84231 0.87292 0.75738 0.0
C261 C 0.82457 0.84988 0.75694 0.0
N262 N 0.89746 0.89718 0.76574 0.0
C263 C 0.87804 0.91799 0.76119 0.0
C264 C 0.82354 0.89405 0.75105 0.0
C265 C 0.84125 0.91672 0.75333 0.0
Gd266 Gd 0.03226 0.90097 0.72948 0.0
Gd267 Gd 0.96044 0.89664 0.7779 0.0
N268 N 0.93369 0.85749 0.78003 0.0
C269 C 0.89867 0.812 0.78208 0.0
C270 C 0.95171 0.83862 0.78962 0.0
C271 C 0.93464 0.81552 0.79059 0.0
H272 H 0.97952 0.84141 0.79617 0.0
H273 H 0.94926 0.80044 0.79782 0.0
H274 H 0.9981 0.94218 0.69589 0.0
H275 H 0.89032 0.93574 0.76397 0.0
H276 H 0.01422 0.9834 0.68306 0.0
H277 H 0.88561 0.79406 0.78272 0.0
H278 H 0.82889 0.8118 0.76477 0.0
H279 H 0.10998 0.87953 0.75235 0.0
H280 H 0.7949 0.89315 0.74513 0.0
H281 H 0.82636 0.93327 0.74935 0.0
H282 H 0.13612 0.99977 0.71237 0.0
H283 H 0.7961 0.84783 0.75097 0.0
H284 H 0.19454 0.93594 0.75164 0.0
H285 H 0.17426 0.89404 0.76127 0.0
N286 N 0.09365 0.91321 0.73871 0.0
C287 C 0.10477 0.93583 0.73241 0.0
C288 C 0.11843 0.89793 0.74836 0.0
C289 C 0.16623 0.92971 0.74783 0.0
C290 C 0.15489 0.90605 0.75332 0.0
C291 C 0.14127 0.94482 0.737 0.0
H292 H 0.1798 0.97558 0.73368 0.0
N293 N 0.04577 0.93982 0.71566 0.0
C294 C 0.0799 0.94966 0.72075 0.0
C295 C 0.06665 0.98531 0.69993 0.0
C296 C 0.09115 0.97275 0.71313 0.0
C297 C 0.02301 0.95124 0.70169 0.0
C298 C 0.03263 0.97434 0.69397 0.0
O299 O 0.96613 0.86634 0.7546 0.0
O300 O 0.97234 0.88805 0.72497 0.0
O301 O 0.04947 0.89994 0.69735 0.0
O302 O 0.05007 0.86696 0.71582 0.0
O303 O 0.01961 0.88249 0.78289 0.0
O304 O 0.03893 0.86862 0.75098 0.0
O305 O 0.0495 0.91813 0.75999 0.0
O306 O 0.99377 0.93159 0.77381 0.0
O307 O 0.97701 0.89242 0.80989 0.0
O308 O 0.92317 0.90845 0.80245 0.0
O309 O 0.97473 0.91875 0.7255 0.0
O310 O 0.95603 0.93092 0.75805 0.0
C311 C 0.95924 0.86897 0.73491 0.0
C312 C 0.03917 0.86757 0.77128 0.0
C313 C 0.09474 0.8704 0.68863 0.0
C314 C 0.13228 0.86577 0.65739 0.0
C315 C 0.15833 0.85423 0.69073 0.0
C316 C 0.12484 0.86114 0.70037 0.0
C317 C 0.16204 0.85639 0.66936 0.0
C318 C 0.09873 0.87281 0.66719 0.0
C319 C 0.05852 0.87703 0.69816 0.0
C320 C 0.12702 0.98213 0.71819 0.0
C321 C 0.15196 0.96827 0.7302 0.0
H322 H 0.07431 1.00306 0.69369 0.0
C323 C 0.03026 0.9342 0.77054 0.0
C324 C 0.9566 0.93373 0.73781 0.0
C325 C 0.9534 0.92137 0.83291 0.0
C326 C 0.9472 0.93402 0.8687 0.0
C327 C 0.98069 0.95985 0.84397 0.0
C328 C 0.97359 0.94286 0.82847 0.0
C329 C 0.96768 0.95548 0.864 0.0
C330 C 0.94017 0.91703 0.85296 0.0
C331 C 0.94694 0.9029 0.81701 0.0
H332 H 0.18142 0.84706 0.69984 0.0
H333 H 0.12244 0.85904 0.71692 0.0
H334 H 0.18827 0.85097 0.6622 0.0
H335 H 0.07535 0.87971 0.65809 0.0
H336 H 0.99639 0.97641 0.84046 0.0
H337 H 0.98399 0.94635 0.8131 0.0
H338 H 0.9733 0.96898 0.87574 0.0
H339 H 0.92509 0.90018 0.85638 0.0
C340 C 0.61144 0.65646 0.27377 0.0
C341 C 0.59622 0.69582 0.2882 0.0
C342 C 0.58595 0.67151 0.28366 0.0
C343 C 0.63162 0.70497 0.28189 0.0
C344 C 0.6475 0.6653 0.26804 0.0
C345 C 0.65717 0.68976 0.2718 0.0
N346 N 0.60111 0.63299 0.26999 0.0
C347 C 0.62618 0.61689 0.26189 0.0
C348 C 0.67289 0.64918 0.25888 0.0
C349 C 0.6623 0.62481 0.25598 0.0
Gd350 Gd 0.46576 0.61762 0.23369 0.0
Gd351 Gd 0.54063 0.62105 0.28076 0.0
N352 N 0.55214 0.662 0.2899 0.0
C353 C 0.57116 0.70996 0.29961 0.0
C354 C 0.52911 0.67516 0.30244 0.0
C355 C 0.53768 0.69948 0.30694 0.0
H356 H 0.50454 0.66688 0.30951 0.0
H357 H 0.51887 0.71002 0.31643 0.0
H358 H 0.47793 0.56212 0.21477 0.0
H359 H 0.61815 0.59801 0.25984 0.0
H360 H 0.44432 0.52218 0.21449 0.0
H361 H 0.57806 0.72863 0.30358 0.0
H362 H 0.6399 0.72362 0.28516 0.0
H363 H 0.39921 0.65919 0.24678 0.0
H364 H 0.70085 0.65528 0.25424 0.0
H365 H 0.68193 0.61213 0.24922 0.0
H366 H 0.32901 0.53735 0.25121 0.0
H367 H 0.68459 0.69697 0.26732 0.0
H368 H 0.30261 0.62006 0.26936 0.0
H369 H 0.33623 0.65911 0.26282 0.0
N370 N 0.40366 0.62042 0.24668 0.0
C371 C 0.38441 0.59893 0.24858 0.0
C372 C 0.38587 0.64194 0.25054 0.0
C373 C 0.3308 0.61993 0.26285 0.0
C374 C 0.34971 0.64201 0.25923 0.0
C375 C 0.34763 0.59806 0.25694 0.0
H376 H 0.30021 0.57455 0.26498 0.0
N377 N 0.43549 0.57952 0.23233 0.0
C378 C 0.40047 0.57794 0.24079 0.0
C379 C 0.39678 0.53526 0.23188 0.0
C380 C 0.38045 0.5556 0.24119 0.0
C381 C 0.45076 0.56019 0.22224 0.0
C382 C 0.43182 0.53767 0.22207 0.0
O383 O 0.55566 0.63534 0.24878 0.0
O384 O 0.50058 0.652 0.23715 0.0
O385 O 0.48345 0.61706 0.20161 0.0
O386 O 0.42648 0.62723 0.20934 0.0
O387 O 0.48204 0.63655 0.28582 0.0
O388 O 0.46463 0.65134 0.25381 0.0
O389 O 0.47255 0.58635 0.25642 0.0
O390 O 0.48214 0.6059 0.2868 0.0
O391 O 0.56254 0.62428 0.31193 0.0
O392 O 0.56318 0.58939 0.29675 0.0
O393 O 0.52238 0.59981 0.2282 0.0
O394 O 0.54648 0.58799 0.26019 0.0
C395 C 0.53757 0.65249 0.23864 0.0
C396 C 0.46352 0.65209 0.27407 0.0
C397 C 0.45313 0.64543 0.17989 0.0
C398 C 0.4455 0.66021 0.1445 0.0
C399 C 0.46035 0.68853 0.17225 0.0
C400 C 0.4604 0.6693 0.18646 0.0
C401 C 0.45269 0.68411 0.15147 0.0
C402 C 0.44617 0.6409 0.15898 0.0
C403 C 0.45132 0.62517 0.19475 0.0
C404 C 0.34465 0.55442 0.25048 0.0
C405 C 0.3283 0.5756 0.25838 0.0
H406 H 0.38228 0.51777 0.23183 0.0
C407 C 0.46755 0.58774 0.27636 0.0
C408 C 0.54361 0.58567 0.23998 0.0
C409 C 0.55244 0.58971 0.33282 0.0
C410 C 0.55132 0.58657 0.37044 0.0
C411 C 0.50491 0.56456 0.34984 0.0
C412 C 0.52125 0.57375 0.33182 0.0
C413 C 0.51984 0.57079 0.369 0.0
C414 C 0.56746 0.59598 0.35216 0.0
C415 C 0.56823 0.60101 0.31399 0.0
H416 H 0.46572 0.70698 0.17741 0.0
H417 H 0.46559 0.67306 0.20257 0.0
H418 H 0.45168 0.69955 0.141 0.0
H419 H 0.44127 0.62227 0.15409 0.0
H420 H 0.48041 0.55269 0.349 0.0
H421 H 0.50935 0.56855 0.31713 0.0
H422 H 0.50692 0.56304 0.38271 0.0
H423 H 0.59116 0.60862 0.35296 0.0
H424 H 0.17557 0.88804 0.36364 0.0
H425 H 0.15011 0.91882 0.33987 0.0
H426 H 0.15669 0.97276 0.38786 0.0
H427 H 0.18164 0.94219 0.41159 0.0
H428 H 0.09199 0.97678 0.36825 0.0
H429 H 0.22285 0.96948 0.34835 0.0
H430 H 0.27951 0.94751 0.33682 0.0
H431 H 0.22145 0.92556 0.28175 0.0
H432 H 0.16426 0.94715 0.29309 0.0
H433 H 0.07811 0.08698 0.31395 0.0
H434 H 0.1027 0.05288 0.33412 0.0
H435 H 0.09204 1.00602 0.28124 0.0
H436 H 0.06884 0.04054 0.26068 0.0
H437 H 0.15451 0.99574 0.3016 0.0
H438 H 0.02446 1.00721 0.32105 0.0
H439 H 0.96989 0.03103 0.33309 0.0
H440 H 0.02786 0.04662 0.38964 0.0
H441 H 0.08293 0.02317 0.37793 0.0
C442 C 0.17164 0.90649 0.36906 0.0
C443 C 0.18044 0.91264 0.38952 0.0
C444 C 0.15711 0.92407 0.35548 0.0
C445 C 0.15168 0.9482 0.36202 0.0
C446 C 0.16035 0.95427 0.38246 0.0
C447 C 0.17457 0.93673 0.39603 0.0
C448 C 0.1373 0.96735 0.34772 0.0
C449 C 0.10583 0.98103 0.35374 0.0
C450 C 0.15475 0.97257 0.32855 0.0
C451 C 0.18916 0.95969 0.32168 0.0
C452 C 0.22208 0.95981 0.33385 0.0
C453 C 0.2543 0.94745 0.32735 0.0
C454 C 0.25404 0.93508 0.3086 0.0
C455 C 0.22159 0.93511 0.29629 0.0
C456 C 0.18927 0.94741 0.30274 0.0
C457 C 0.0814 0.06947 0.30656 0.0
C458 C 0.07142 0.06634 0.28579 0.0
C459 C 0.09519 0.04993 0.31814 0.0
C460 C 0.0982 0.02667 0.30938 0.0
C461 C 0.08968 0.02374 0.28838 0.0
C462 C 0.07654 0.04346 0.27664 0.0
C463 C 0.10961 1.00544 0.3223 0.0
C464 C 0.1404 0.99133 0.316 0.0
C465 C 0.09161 0.99991 0.34129 0.0
C466 C 0.05798 0.01351 0.34854 0.0
C467 C 0.02565 0.01578 0.33602 0.0
C468 C 0.99464 0.02923 0.34277 0.0
C469 C 0.99548 0.04037 0.36205 0.0
C470 C 0.02726 0.03799 0.37469 0.0
C471 C 0.05835 0.02458 0.36803 0.0
H472 H 0.97149 0.05081 0.36721 0.0
H473 H 0.27901 0.92552 0.30359 0.0
H474 H 0.39805 0.61433 0.88912 0.0
H475 H 0.41663 0.58269 0.86499 0.0
H476 H 0.30094 0.5754 0.84465 0.0
H477 H 0.28192 0.60673 0.86927 0.0
H478 H 0.33107 0.53156 0.85216 0.0
H479 H 0.3672 0.60241 0.81379 0.0
H480 H 0.39788 0.64233 0.8075 0.0
H481 H 0.50669 0.61089 0.81916 0.0
H482 H 0.47663 0.57085 0.82584 0.0
H483 H 0.43839 0.47457 0.75865 0.0
H484 H 0.40796 0.50907 0.77546 0.0
H485 H 0.42699 0.47546 0.83482 0.0
H486 H 0.4572 0.44086 0.81816 0.0
H487 H 0.43742 0.54125 0.80291 0.0
H488 H 0.35341 0.48896 0.86631 0.0
H489 H 0.3211 0.44923 0.87091 0.0
H490 H 0.30309 0.44462 0.80563 0.0
H491 H 0.33489 0.48443 0.80064 0.0
C492 C 0.37653 0.60604 0.87949 0.0
C493 C 0.33846 0.61297 0.88119 0.0
C494 C 0.38726 0.58809 0.86556 0.0
C495 C 0.36025 0.57677 0.85287 0.0
C496 C 0.32229 0.58393 0.85425 0.0
C497 C 0.31151 0.60196 0.8682 0.0
C498 C 0.37162 0.55671 0.83894 0.0
C499 C 0.35416 0.53374 0.8413 0.0
C500 C 0.40137 0.55959 0.82451 0.0
C501 C 0.41959 0.58365 0.82047 0.0
C502 C 0.39764 0.60404 0.81518 0.0
C503 C 0.41493 0.62669 0.81152 0.0
C504 C 0.4542 0.62916 0.81297 0.0
C505 C 0.47627 0.60896 0.81805 0.0
C506 C 0.45912 0.58628 0.82176 0.0
C507 C 0.43572 0.47439 0.77527 0.0
C508 C 0.45009 0.45493 0.78708 0.0
C509 C 0.41852 0.49419 0.78485 0.0
C510 C 0.41494 0.49475 0.80636 0.0
C511 C 0.429 0.47526 0.81817 0.0
C512 C 0.4464 0.45554 0.80863 0.0
C513 C 0.39763 0.51604 0.81662 0.0
C514 C 0.41405 0.53918 0.81361 0.0
C515 C 0.36663 0.5134 0.83024 0.0
C516 C 0.34681 0.48962 0.83311 0.0
C517 C 0.34239 0.47953 0.85295 0.0
C518 C 0.32422 0.45697 0.85561 0.0
C519 C 0.31019 0.44437 0.83856 0.0
C520 C 0.31416 0.45434 0.81881 0.0
C521 C 0.33229 0.4769 0.81605 0.0
H522 H 0.29616 0.4269 0.84065 0.0
H523 H 0.46753 0.64671 0.81013 0.0
H524 H 0.73441 0.59447 0.63907 0.0
H525 H 0.70855 0.56432 0.66346 0.0
H526 H 0.59534 0.58424 0.64569 0.0
H527 H 0.62104 0.61441 0.62129 0.0
H528 H 0.60356 0.57548 0.68856 0.0
H529 H 0.63203 0.53728 0.62372 0.0
H530 H 0.67325 0.52655 0.59461 0.0
H531 H 0.74915 0.49014 0.63612 0.0
H532 H 0.70863 0.50099 0.66553 0.0
H533 H 0.49961 0.47137 0.72084 0.0
H534 H 0.52803 0.50526 0.70172 0.0
H535 H 0.63826 0.4732 0.70943 0.0
H536 H 0.60942 0.43818 0.72689 0.0
H537 H 0.63397 0.48934 0.67306 0.0
H538 H 0.6049 0.52637 0.73822 0.0
H539 H 0.56461 0.53824 0.76748 0.0
H540 H 0.49075 0.57664 0.72626 0.0
H541 H 0.53063 0.56519 0.69677 0.0
C542 C 0.70402 0.59282 0.64073 0.0
C543 C 0.67972 0.6067 0.62823 0.0
C544 C 0.68929 0.5755 0.65456 0.0
C545 C 0.65004 0.57188 0.65621 0.0
C546 C 0.62571 0.58672 0.64463 0.0
C547 C 0.64041 0.60386 0.63066 0.0
C548 C 0.63437 0.55144 0.66878 0.0
C549 C 0.60998 0.55661 0.68516 0.0
C550 C 0.6433 0.52688 0.66452 0.0
C551 C 0.66753 0.52019 0.64684 0.0
C552 C 0.65768 0.52717 0.62666 0.0
C553 C 0.68088 0.52103 0.6101 0.0
C554 C 0.71386 0.50773 0.61352 0.0
C555 C 0.72364 0.50048 0.6335 0.0
C556 C 0.70055 0.50661 0.65012 0.0
C557 C 0.52989 0.47143 0.71838 0.0
C558 C 0.55236 0.45225 0.72585 0.0
C559 C 0.54624 0.49108 0.70767 0.0
C560 C 0.58556 0.49232 0.7046 0.0
C561 C 0.60793 0.47294 0.71176 0.0
C562 C 0.59146 0.45301 0.72202 0.0
C563 C 0.60314 0.5132 0.69315 0.0
C564 C 0.6278 0.50815 0.6768 0.0
C565 C 0.59458 0.53787 0.69755 0.0
C566 C 0.57059 0.54476 0.71528 0.0
C567 C 0.57995 0.53723 0.73539 0.0
C568 C 0.55722 0.54389 0.75201 0.0
C569 C 0.52504 0.558 0.74871 0.0
C570 C 0.51565 0.56566 0.72879 0.0
C571 C 0.53838 0.55919 0.71213 0.0
H572 H 0.50747 0.56308 0.7616 0.0
H573 H 0.73179 0.50299 0.60068 0.0
H574 H 0.84262 0.89139 0.15001 0.0
H575 H 0.86781 0.92288 0.17315 0.0
H576 H 0.83261 0.9788 0.13032 0.0
H577 H 0.80721 0.9476 0.10737 0.0
H578 H 0.90661 0.98395 0.14095 0.0
H579 H 0.78758 0.97086 0.17547 0.0
H580 H 0.73797 0.94653 0.19288 0.0
H581 H 0.81728 0.92505 0.23961 0.0
H582 H 0.86754 0.94899 0.22231 0.0
H583 H 0.93933 0.09092 0.19868 0.0
H584 H 0.90917 0.05782 0.17935 0.0
H585 H 0.94504 1.00601 0.22563 0.0
H586 H 0.97542 0.03905 0.24489 0.0
H587 H 0.87275 0.99738 0.21411 0.0
H588 H 0.99133 0.01104 0.18069 0.0
H589 H 0.04152 0.03536 0.1638 0.0
H590 H 0.96497 0.05487 0.11513 0.0
H591 H 0.914 0.03104 0.13195 0.0
C592 C 0.83949 0.91042 0.1458 0.0
C593 C 0.82329 0.91702 0.12679 0.0
C594 C 0.85403 0.92839 0.15897 0.0
C595 C 0.85235 0.9532 0.15337 0.0
C596 C 0.83459 0.95979 0.13485 0.0
C597 C 0.82006 0.94193 0.12177 0.0
C598 C 0.87084 0.97233 0.16609 0.0
C599 C 0.89888 0.98708 0.15688 0.0
C600 C 0.86161 0.9759 0.18704 0.0
C601 C 0.83144 0.96149 0.19745 0.0
C602 C 0.79454 0.96076 0.18935 0.0
C603 C 0.76628 0.94708 0.19922 0.0
C604 C 0.77449 0.93419 0.2173 0.0
C605 C 0.81097 0.935 0.22558 0.0
C606 C 0.83935 0.94864 0.21575 0.0
C607 C 0.94087 0.07244 0.20466 0.0
C608 C 0.95947 0.06752 0.22332 0.0
C609 C 0.92362 0.05356 0.19364 0.0
C610 C 0.92511 0.0294 0.20096 0.0
C611 C 0.94343 0.02451 0.21972 0.0
C612 C 0.96068 0.04339 0.23073 0.0
C613 C 0.90808 0.0092 0.18887 0.0
C614 C 0.88051 0.99421 0.19819 0.0
C615 C 0.91793 1.00529 0.16803 0.0
C616 C 0.94868 0.01943 0.15771 0.0
C617 C 0.98507 0.02067 0.16647 0.0
C618 C 0.01369 0.03437 0.1569 0.0
C619 C 0.00642 0.04672 0.13844 0.0
C620 C 0.97053 0.04533 0.12946 0.0
C621 C 0.94176 0.03172 0.13901 0.0
H622 H 0.02859 0.05733 0.13106 0.0
H623 H 0.75257 0.92361 0.22493 0.0
H624 H 0.89654 0.1176 0.62584 0.0
H625 H 0.91342 0.08607 0.65086 0.0
H626 H 0.79717 0.08116 0.6706 0.0
H627 H 0.77977 0.11208 0.64494 0.0
H628 H 0.91098 0.07937 0.69118 0.0
H629 H 0.7759 0.02128 0.68064 0.0
H630 H 0.72552 0.01439 0.65491 0.0
H631 H 0.80156 0.03566 0.60636 0.0
H632 H 0.85247 0.04235 0.63176 0.0
H633 H 0.93492 0.97599 0.75655 0.0
H634 H 0.90589 0.01171 0.74041 0.0
H635 H 0.90551 0.97489 0.68183 0.0
H636 H 0.93135 0.93857 0.69824 0.0
H637 H 0.84588 0.99937 0.68375 0.0
H638 H 0.97736 0.01849 0.69924 0.0
H639 H 0.03215 0.02388 0.72249 0.0
H640 H 0.97225 0.07845 0.75607 0.0
H641 H 0.9169 0.07313 0.73329 0.0
C642 C 0.87453 0.10986 0.63554 0.0
C643 C 0.83668 0.11707 0.63313 0.0
C644 C 0.88431 0.092 0.65 0.0
C645 C 0.8565 0.08094 0.66242 0.0
C646 C 0.81904 0.08916 0.66097 0.0
C647 C 0.80918 0.107 0.64641 0.0
C648 C 0.86652 0.05965 0.67563 0.0
C649 C 0.89658 0.06191 0.68968 0.0
C650 C 0.84807 0.03677 0.67355 0.0
C651 C 0.81778 0.03261 0.65813 0.0
C652 C 0.78184 0.02443 0.66446 0.0
C653 C 0.75322 0.02056 0.64994 0.0
C654 C 0.76029 0.02468 0.62902 0.0
C655 C 0.79606 0.03258 0.62257 0.0
C656 C 0.8248 0.03643 0.63702 0.0
C657 C 0.92808 0.97541 0.74029 0.0
C658 C 0.93641 0.95468 0.72853 0.0
C659 C 0.91184 0.99595 0.73102 0.0
C660 C 0.90449 0.99638 0.70973 0.0
C661 C 0.9112 0.97523 0.69823 0.0
C662 C 0.9265 0.95453 0.70758 0.0
C663 C 0.89091 0.01885 0.69909 0.0
C664 C 0.86003 0.01687 0.68554 0.0
C665 C 0.90933 0.0418 0.70123 0.0
C666 C 0.94287 0.04522 0.71469 0.0
C667 C 0.97583 0.03154 0.71165 0.0
C668 C 0.00696 0.03457 0.72473 0.0
C669 C 0.00563 0.05143 0.74074 0.0
C670 C 0.97321 0.06536 0.74368 0.0
C671 C 0.94196 0.06234 0.7307 0.0
H672 H 0.02976 0.05377 0.75083 0.0
H673 H 0.73808 0.02169 0.61781 0.0
H674 H 0.70253 0.39507 0.15684 0.0
H675 H 0.67863 0.42457 0.18181 0.0
H676 H 0.66564 0.4778 0.13308 0.0
H677 H 0.69073 0.44899 0.10838 0.0
H678 H 0.69601 0.49862 0.16553 0.0
H679 H 0.58997 0.44445 0.15308 0.0
H680 H 0.55662 0.40477 0.15211 0.0
H681 H 0.57482 0.3953 0.21709 0.0
H682 H 0.60874 0.43481 0.21838 0.0
H683 H 0.55893 0.5812 0.19902 0.0
H684 H 0.59227 0.54829 0.18193 0.0
H685 H 0.60903 0.51214 0.2404 0.0
H686 H 0.57567 0.54522 0.2578 0.0
H687 H 0.58262 0.48087 0.20818 0.0
H688 H 0.68147 0.53879 0.22059 0.0
H689 H 0.71083 0.57975 0.22065 0.0
H690 H 0.70354 0.583 0.15465 0.0
H691 H 0.67348 0.54223 0.15421 0.0
C692 C 0.69479 0.41312 0.1515 0.0
C693 C 0.69814 0.41954 0.13054 0.0
C694 C 0.68087 0.4299 0.16576 0.0
C695 C 0.66996 0.45336 0.15931 0.0
C696 C 0.67378 0.45983 0.13846 0.0
C697 C 0.68772 0.44318 0.12428 0.0
C698 C 0.6544 0.4714 0.17401 0.0
C699 C 0.67113 0.49472 0.17478 0.0
C700 C 0.62253 0.4662 0.18655 0.0
C701 C 0.60232 0.44241 0.18577 0.0
C702 C 0.58717 0.43379 0.16712 0.0
C703 C 0.5681 0.41136 0.16652 0.0
C704 C 0.56373 0.39748 0.18452 0.0
C705 C 0.57832 0.40604 0.20316 0.0
C706 C 0.59746 0.42845 0.20383 0.0
C707 C 0.56973 0.56632 0.20832 0.0
C708 C 0.56475 0.56591 0.2298 0.0
C709 C 0.58888 0.54754 0.19851 0.0
C710 C 0.60333 0.52788 0.20992 0.0
C711 C 0.59815 0.5272 0.23135 0.0
C712 C 0.57928 0.54618 0.24125 0.0
C713 C 0.62368 0.50813 0.1992 0.0
C714 C 0.6079 0.48455 0.19919 0.0
C715 C 0.65624 0.51313 0.18723 0.0
C716 C 0.67499 0.53749 0.18738 0.0
C717 C 0.6859 0.5483 0.20609 0.0
C718 C 0.70268 0.57148 0.20619 0.0
C719 C 0.70899 0.58399 0.18767 0.0
C720 C 0.69862 0.5733 0.16899 0.0
C721 C 0.68174 0.55013 0.16881 0.0
H722 H 0.72197 0.60194 0.18778 0.0
H723 H 0.54893 0.38012 0.18403 0.0
H724 H 0.31925 0.44311 0.40825 0.0
H725 H 0.3405 0.47461 0.38412 0.0
H726 H 0.35983 0.41984 0.33801 0.0
H727 H 0.33985 0.38797 0.36247 0.0
H728 H 0.41832 0.45054 0.33996 0.0
H729 H 0.28484 0.45934 0.33422 0.0
H730 H 0.21935 0.46406 0.34643 0.0
H731 H 0.24925 0.53236 0.37434 0.0
H732 H 0.31508 0.52789 0.36255 0.0
H733 H 0.46029 0.54041 0.26424 0.0
H734 H 0.42927 0.50677 0.28256 0.0
H735 H 0.40313 0.5551 0.33267 0.0
H736 H 0.43219 0.5892 0.3137 0.0
H737 H 0.34518 0.52565 0.32566 0.0
H738 H 0.47986 0.51415 0.3343 0.0
H739 H 0.54517 0.5099 0.32164 0.0
H740 H 0.51219 0.44608 0.28781 0.0
H741 H 0.44651 0.45034 0.30005 0.0
C742 C 0.3281 0.4377 0.393 0.0
C743 C 0.32803 0.41296 0.38735 0.0
C744 C 0.33985 0.4558 0.37911 0.0
C745 C 0.3514 0.44968 0.35914 0.0
C746 C 0.35092 0.42503 0.35331 0.0
C747 C 0.3392 0.40685 0.36725 0.0
C748 C 0.36553 0.46898 0.34478 0.0
C749 C 0.402 0.46675 0.33652 0.0
C750 C 0.3446 0.49037 0.34055 0.0
C751 C 0.30499 0.49317 0.34763 0.0
C752 C 0.27753 0.47528 0.34309 0.0
C753 C 0.24033 0.47793 0.34992 0.0
C754 C 0.23016 0.49847 0.36119 0.0
C755 C 0.25717 0.51644 0.36562 0.0
C756 C 0.29442 0.51388 0.35885 0.0
C757 C 0.44723 0.54398 0.27895 0.0
C758 C 0.44842 0.56747 0.28746 0.0
C759 C 0.42996 0.52464 0.28957 0.0
C760 C 0.41439 0.52824 0.3092 0.0
C761 C 0.41497 0.55182 0.31757 0.0
C762 C 0.43178 0.57127 0.30679 0.0
C763 C 0.39818 0.50741 0.3212 0.0
C764 C 0.36131 0.50934 0.32897 0.0
C765 C 0.4187 0.48571 0.32495 0.0
C766 C 0.45826 0.48279 0.3179 0.0
C767 C 0.48654 0.49937 0.32404 0.0
C768 C 0.5236 0.49693 0.31696 0.0
C769 C 0.53281 0.47776 0.30387 0.0
C770 C 0.50499 0.46095 0.29792 0.0
C771 C 0.46785 0.46338 0.30494 0.0
H772 H 0.56151 0.47589 0.29837 0.0
H773 H 0.20134 0.50049 0.36646 0.0
H774 H 0.11248 0.11024 0.88985 0.0
H775 H 0.08953 0.07982 0.86536 0.0
H776 H 0.20447 0.06411 0.848 0.0
H777 H 0.22747 0.09511 0.87219 0.0
H778 H 0.16113 0.0622 0.81515 0.0
H779 H 0.15453 0.02802 0.88263 0.0
H780 H 0.13752 0.02524 0.91939 0.0
H781 H 0.01962 0.02496 0.90349 0.0
H782 H 0.0359 0.02822 0.86663 0.0
H783 H 0.10601 0.93995 0.77918 0.0
H784 H 0.13636 0.97379 0.79769 0.0
H785 H 0.02842 0.00899 0.80347 0.0
H786 H 0.99838 0.97613 0.78406 0.0
H787 H 0.07227 0.9991 0.84201 0.0
H788 H 0.08164 0.03484 0.77391 0.0
H789 H 0.10116 0.03711 0.7375 0.0
H790 H 0.21761 0.0313 0.75554 0.0
H791 H 0.19872 0.02866 0.79207 0.0
C792 C 0.13281 0.10045 0.88066 0.0
C793 C 0.17176 0.10489 0.88303 0.0
C794 C 0.11971 0.08298 0.86673 0.0
C795 C 0.14528 0.06917 0.85518 0.0
C796 C 0.18416 0.07439 0.85681 0.0
C797 C 0.19729 0.09214 0.87059 0.0
C798 C 0.13137 0.04884 0.84197 0.0
C799 C 0.14215 0.04822 0.82114 0.0
C800 C 0.1064 0.03055 0.84967 0.0
C801 C 0.09646 0.02865 0.87185 0.0
C802 C 0.12497 0.0276 0.88697 0.0
C803 C 0.11545 0.02592 0.90783 0.0
C804 C 0.07751 0.025 0.91377 0.0
C805 C 0.049 0.02573 0.89886 0.0
C806 C 0.05836 0.0275 0.87798 0.0
C807 C 0.08897 0.95521 0.78387 0.0
C808 C 0.04977 0.95525 0.78022 0.0
C809 C 0.10629 0.97444 0.79457 0.0
C810 C 0.08454 0.99378 0.80201 0.0
C811 C 0.04564 0.99416 0.79792 0.0
C812 C 0.02853 0.97529 0.7869 0.0
C813 C 0.10153 0.01285 0.81528 0.0
C814 C 0.09142 0.01307 0.83614 0.0
C815 C 0.12748 0.03046 0.80769 0.0
C816 C 0.13874 0.03131 0.78571 0.0
C817 C 0.11137 0.03373 0.7701 0.0
C818 C 0.12233 0.03521 0.74945 0.0
C819 C 0.16062 0.03443 0.74423 0.0
C820 C 0.18798 0.03196 0.75962 0.0
C821 C 0.17716 0.03049 0.7803 0.0
H822 H 0.1691 0.03575 0.72825 0.0
H823 H 0.07021 0.02367 0.92993 0.0
H824 H 0.17256 0.1659 0.96626 0.0
H825 H 0.15448 0.15865 1.00213 0.0
H826 H 0.14915 0.08126 0.99099 0.0
H827 H 0.16836 0.08819 0.95526 0.0
H828 H 0.08801 0.09848 0.01462 0.0
H829 H 0.22464 0.10384 0.0135 0.0
H830 H 0.28586 0.12364 1.00562 0.0
H831 H 0.25585 0.18491 0.04287 0.0
H832 H 0.19418 0.16561 0.05074 0.0
H833 H 0.09991 0.0467 0.1139 0.0
H834 H 0.10728 0.05946 0.07817 0.0
H835 H 0.12969 0.1333 0.09764 0.0
H836 H 0.12465 0.12028 0.13368 0.0
H837 H 0.17851 0.12154 0.06977 0.0
H838 H 0.04462 0.1152 0.07395 0.0
H839 H 0.98338 0.09582 0.08242 0.0
H840 H 0.00586 0.0382 0.03982 0.0
H841 H 0.06761 0.05696 0.03137 0.0
C842 C 0.16781 0.14729 0.97142 0.0
C843 C 0.17228 0.12763 0.9578 0.0
C844 C 0.15722 0.14322 0.99192 0.0
C845 C 0.1507 0.11941 0.99926 0.0
C846 C 0.15389 0.0998 0.98562 0.0
C847 C 0.16477 0.10383 0.96514 0.0
C848 C 0.14212 0.11482 0.02137 0.0
C849 C 0.10785 0.10333 0.0267 0.0
C850 C 0.16752 0.12185 0.03716 0.0
C851 C 0.20465 0.13341 0.03251 0.0
C852 C 0.23097 0.12163 0.01987 0.0
C853 C 0.26577 0.13274 0.01543 0.0
C854 C 0.2747 0.15555 0.02369 0.0
C855 C 0.24887 0.16727 0.03646 0.0
C856 C 0.214 0.15624 0.04092 0.0
C857 C 0.10664 0.06565 0.11067 0.0
C858 C 0.11205 0.08239 0.12678 0.0
C859 C 0.11028 0.07302 0.09012 0.0
C860 C 0.11859 0.09744 0.08508 0.0
C861 C 0.12317 0.11436 0.10109 0.0
C862 C 0.1199 0.10693 0.12172 0.0
C863 C 0.12442 0.10489 0.06317 0.0
C864 C 0.15828 0.11692 0.05781 0.0
C865 C 0.09841 0.09855 0.0474 0.0
C866 C 0.06093 0.08742 0.05213 0.0
C867 C 0.03663 0.09832 0.06647 0.0
C868 C 1.00181 0.08744 0.07127 0.0
C869 C 0.99077 0.06577 0.06169 0.0
C870 C 0.01447 0.05498 0.04724 0.0
C871 C 0.04938 0.06574 0.04242 0.0
H872 H 0.96382 0.05736 0.06545 0.0
H873 H 0.30166 0.16413 0.02024 0.0
H874 H 0.34882 0.3417 0.46295 0.0
H875 H 0.36486 0.34406 0.49948 0.0
H876 H 0.34107 0.42109 0.49892 0.0
H877 H 0.32447 0.41884 0.46227 0.0
H878 H 0.40549 0.40908 0.52254 0.0
H879 H 0.27559 0.38401 0.51636 0.0
H880 H 0.22273 0.35885 0.50332 0.0
H881 H 0.27272 0.29476 0.52985 0.0
H882 H 0.3262 0.3195 0.54279 0.0
H883 H 0.38446 0.41692 0.63269 0.0
H884 H 0.37945 0.41996 0.59507 0.0
H885 H 0.38444 0.34148 0.59089 0.0
H886 H 0.38824 0.33845 0.6284 0.0
H887 H 0.32831 0.35689 0.5693 0.0
H888 H 0.45886 0.38151 0.57529 0.0
H889 H 0.51248 0.40636 0.58785 0.0
H890 H 0.46256 0.47076 0.56184 0.0
H891 H 0.40837 0.44635 0.54936 0.0
C892 C 0.34698 0.35917 0.47056 0.0
C893 C 0.33481 0.38001 0.45975 0.0
C894 C 0.35634 0.3605 0.49142 0.0
C895 C 0.35365 0.38267 0.50197 0.0
C896 C 0.34331 0.40379 0.49105 0.0
C897 C 0.33388 0.40248 0.47012 0.0
C898 C 0.35939 0.38329 0.52462 0.0
C899 C 0.38838 0.39792 0.53285 0.0
C900 C 0.33738 0.36846 0.53799 0.0
C901 C 0.30507 0.35358 0.53039 0.0
C902 C 0.27545 0.36452 0.51929 0.0
C903 C 0.24536 0.35034 0.51193 0.0
C904 C 0.24441 0.32522 0.51572 0.0
C905 C 0.27351 0.31423 0.52691 0.0
C906 C 0.30371 0.32832 0.53428 0.0
C907 C 0.38511 0.4004 0.62365 0.0
C908 C 0.38651 0.37745 0.63341 0.0
C909 C 0.38234 0.40213 0.60216 0.0
C910 C 0.38168 0.38094 0.59005 0.0
C911 C 0.38463 0.35808 0.59984 0.0
C912 C 0.38684 0.35635 0.62127 0.0
C913 C 0.37518 0.38223 0.56739 0.0
C914 C 0.34566 0.36805 0.55911 0.0
C915 C 0.39683 0.39743 0.55405 0.0
C916 C 0.42936 0.41213 0.56158 0.0
C917 C 0.45915 0.40101 0.5724 0.0
C918 C 0.48968 0.41501 0.57948 0.0
C919 C 0.49087 0.44013 0.5757 0.0
C920 C 0.46157 0.45131 0.56479 0.0
C921 C 0.43096 0.43739 0.55769 0.0
H922 H 0.51454 0.45094 0.58118 0.0
H923 H 0.22109 0.31427 0.51001 0.0
H924 H 0.75209 0.39298 0.04319 0.0
H925 H 0.72614 0.39252 0.00823 0.0
H926 H 0.61387 0.38238 0.03288 0.0
H927 H 0.63975 0.38256 0.06795 0.0
H928 H 0.62998 0.35071 1.00093 0.0
H929 H 0.63905 0.43675 0.01431 0.0
H930 H 0.67149 0.47476 0.02463 0.0
H931 H 0.75068 0.46679 0.97511 0.0
H932 H 0.71903 0.42854 0.96466 0.0
H933 H 0.53204 0.36579 0.90757 0.0
H934 H 0.55382 0.37223 0.94291 0.0
H935 H 0.66473 0.39185 0.92023 0.0
H936 H 0.6425 0.38628 0.88476 0.0
H937 H 0.64821 0.41947 0.95167 0.0
H938 H 0.64301 0.33349 0.93885 0.0
H939 H 0.61292 0.2949 0.92799 0.0
H940 H 0.53036 0.30143 0.97602 0.0
H941 H 0.55961 0.34027 0.98697 0.0
C942 C 0.72189 0.39056 0.04116 0.0
C943 C 0.69794 0.38776 0.05831 0.0
C944 C 0.70708 0.3905 0.02119 0.0
C945 C 0.66805 0.38761 0.01797 0.0
C946 C 0.64406 0.38471 0.03504 0.0
C947 C 0.65884 0.38496 0.05504 0.0
C948 C 0.65242 0.38704 0.99675 0.0
C949 C 0.63342 0.36588 0.99025 0.0
C950 C 0.65795 0.40657 0.98265 0.0
C951 C 0.67686 0.42966 0.98882 0.0
C952 C 0.66356 0.443 1.00572 0.0
C953 C 0.68178 0.46461 0.01158 0.0
C954 C 0.71318 0.47315 1.00057 0.0
C955 C 0.72638 0.46014 0.98364 0.0
C956 C 0.70828 0.43851 0.97773 0.0
C957 C 0.56096 0.3717 0.91016 0.0
C958 C 0.58571 0.37536 0.8935 0.0
C959 C 0.57344 0.37528 0.93034 0.0
C960 C 0.6112 0.38196 0.93429 0.0
C961 C 0.63553 0.3866 0.91759 0.0
C962 C 0.62285 0.38342 0.89735 0.0
C963 C 0.62566 0.38312 0.9558 0.0
C964 C 0.64457 0.40433 0.96236 0.0
C965 C 0.6205 0.3635 0.9699 0.0
C966 C 0.60329 0.3399 0.96361 0.0
C967 C 0.61831 0.32676 0.94703 0.0
C968 C 0.60141 0.30484 0.94086 0.0
C969 C 0.56969 0.29575 0.95128 0.0
C970 C 0.5549 0.30851 0.96795 0.0
C971 C 0.57164 0.33047 0.97415 0.0
H972 H 0.55662 0.2788 0.94646 0.0
H973 H 0.72725 0.48988 1.00513 0.0
H974 H 0.85298 0.17878 0.5508 0.0
H975 H 0.87494 0.17219 0.51562 0.0
H976 H 0.8676 0.09435 0.52512 0.0
H977 H 0.84498 0.10076 0.56027 0.0
H978 H 0.93253 0.10839 0.50379 0.0
H979 H 0.79826 0.12258 0.50042 0.0
H980 H 0.73975 0.14543 0.50687 0.0
H981 H 0.7843 0.20678 0.47298 0.0
H982 H 0.84334 0.1844 0.46658 0.0
H983 H 0.92019 0.06566 0.40114 0.0
H984 H 0.91349 0.07572 0.43749 0.0
H985 H 0.91059 0.15234 0.42185 0.0
H986 H 0.91557 0.1423 0.3853 0.0
H987 H 0.85446 0.14127 0.44658 0.0
H988 H 0.98698 0.12624 0.44748 0.0
H989 H 0.0455 0.10351 0.4408 0.0
H990 H 0.00555 0.04443 0.47897 0.0
H991 H 0.94651 0.06665 0.48565 0.0
C992 C 0.85592 0.16024 0.54541 0.0
C993 C 0.84684 0.1403 0.55833 0.0
C994 C 0.86866 0.15652 0.52532 0.0
C995 C 0.87253 0.13278 0.51768 0.0
C996 C 0.86487 0.11282 0.53073 0.0
C997 C 0.85203 0.11653 0.55084 0.0
C998 C 0.88284 0.12881 0.4958 0.0
C999 C 0.91534 0.11538 0.49125 0.0
C1000 C 0.86092 0.13849 0.47947 0.0
C1001 C 0.82537 0.15192 0.48322 0.0
C1002 C 0.7957 0.14102 0.49449 0.0
C1003 C 0.76242 0.15387 0.49811 0.0
C1004 C 0.75836 0.17757 0.4904 0.0
C1005 C 0.78752 0.18844 0.47898 0.0
C1006 C 0.82089 0.17568 0.47534 0.0
C1007 C 0.9183 0.08467 0.40543 0.0
C1008 C 0.91807 0.10316 0.39028 0.0
C1009 C 0.91491 0.09043 0.42627 0.0
C1010 C 0.91175 0.11482 0.43248 0.0
C1011 C 0.913 0.13338 0.41745 0.0
C1012 C 0.91621 0.12763 0.39656 0.0
C1013 C 0.90422 0.12074 0.45443 0.0
C1014 C 0.87204 0.13448 0.45904 0.0
C1015 C 0.92656 0.11141 0.47078 0.0
C1016 C 0.96216 0.09804 0.46693 0.0
C1017 C 0.99054 0.10832 0.45433 0.0
C1018 C 0.02383 0.09554 0.45056 0.0
C1019 C 0.0292 0.07252 0.45942 0.0
C1020 C 1.00134 0.06226 0.47211 0.0
C1021 C 0.96797 0.07495 0.47591 0.0
H1022 H 0.05499 0.06265 0.45648 0.0
H1023 H 0.73257 0.18749 0.49321 0.0
H1024 H 0.88751 0.90071 0.06284 0.0
H1025 H 0.90897 0.90885 0.02766 0.0
H1026 H 0.79994 0.88645 1.00427 0.0
H1027 H 0.77824 0.8783 0.03947 0.0
H1028 H 0.85658 0.86781 0.98164 0.0
H1029 H 0.82354 0.94658 0.00766 0.0
H1030 H 0.82517 0.98063 0.03228 0.0
H1031 H 0.94452 0.98963 0.02239 0.0
H1032 H 0.9437 0.95538 0.99792 0.0
H1033 H 0.87803 0.91625 0.8806 0.0
H1034 H 0.85604 0.90747 0.91558 0.0
H1035 H 0.9634 0.93189 0.93987 0.0
H1036 H 0.98547 0.94085 0.9049 0.0
H1037 H 0.90705 0.94947 0.96204 0.0
H1038 H 0.94053 0.87069 0.9363 0.0
H1039 H 0.93943 0.83636 0.91196 0.0
H1040 H 0.82002 0.82715 0.92147 0.0
H1041 H 0.82031 0.86166 0.94567 0.0
C1042 C 0.86802 0.89767 0.05021 0.0
C1043 C 0.83108 0.88902 0.05395 0.0
C1044 C 0.88033 0.9023 0.03012 0.0
C1045 C 0.85588 0.89858 0.01336 0.0
C1046 C 0.81926 0.88947 0.01698 0.0
C1047 C 0.80694 0.88476 0.03709 0.0
C1048 C 0.86851 0.90429 0.99205 0.0
C1049 C 0.86713 0.88576 0.97726 0.0
C1050 C 0.8831 0.92756 0.98649 0.0
C1051 C 0.88361 0.94826 1.00111 0.0
C1052 C 0.85019 0.9557 0.01085 0.0
C1053 C 0.85096 0.97505 0.02476 0.0
C1054 C 0.88494 0.98724 0.02893 0.0
C1055 C 0.91822 0.98015 0.01916 0.0
C1056 C 0.91761 0.96077 1.00526 0.0
C1057 C 0.89704 0.9196 0.89339 0.0
C1058 C 0.93355 0.92915 0.88998 0.0
C1059 C 0.88444 0.91456 0.91337 0.0
C1060 C 0.90825 0.91869 0.93035 0.0
C1061 C 0.94454 0.92854 0.92701 0.0
C1062 C 0.95708 0.93372 0.90703 0.0
C1063 C 0.89523 0.91297 0.9516 0.0
C1064 C 0.8965 0.93152 0.96639 0.0
C1065 C 0.88062 0.8897 0.95717 0.0
C1066 C 0.88039 0.86892 0.94264 0.0
C1067 C 0.91398 0.86147 0.93307 0.0
C1068 C 0.91352 0.84196 0.91932 0.0
C1069 C 0.87966 0.82962 0.91513 0.0
C1070 C 0.84622 0.83674 0.92471 0.0
C1071 C 0.84652 0.85627 0.93846 0.0
H1072 H 0.87936 0.81451 0.90448 0.0
H1073 H 0.88548 1.00222 0.03971 0.0
H1074 H 0.62349 0.62878 0.56161 0.0
H1075 H 0.59953 0.62208 0.52672 0.0
H1076 H 0.71387 0.61817 0.50401 0.0
H1077 H 0.73803 0.62479 0.53886 0.0
H1078 H 0.67081 0.64541 0.47879 0.0
H1079 H 0.66129 0.56679 0.51107 0.0
H1080 H 0.64247 0.53717 0.53801 0.0
H1081 H 0.52546 0.55267 0.52659 0.0
H1082 H 0.54361 0.58269 0.49978 0.0
H1083 H 0.6258 0.59076 0.38188 0.0
H1084 H 0.65111 0.59987 0.41611 0.0
H1085 H 0.53769 0.60599 0.43972 0.0
H1086 H 0.51218 0.59725 0.40555 0.0
H1087 H 0.58121 0.5775 0.46429 0.0
H1088 H 0.59156 0.65629 0.43171 0.0
H1089 H 0.6112 0.68558 0.4047 0.0
H1090 H 0.72777 0.66906 0.41641 0.0
H1091 H 0.70879 0.63938 0.44331 0.0
C1092 C 0.64353 0.62631 0.54921 0.0
C1093 C 0.68267 0.62726 0.55303 0.0
C1094 C 0.62981 0.62253 0.52927 0.0
C1095 C 0.65492 0.61939 0.51278 0.0
C1096 C 0.69398 0.62061 0.51649 0.0
C1097 C 0.70773 0.62445 0.53642 0.0
C1098 C 0.64043 0.61468 0.49167 0.0
C1099 C 0.6516 0.63037 0.47556 0.0
C1100 C 0.61486 0.59531 0.48752 0.0
C1101 C 0.60383 0.57717 0.50356 0.0
C1102 C 0.63155 0.56403 0.51441 0.0
C1103 C 0.621 0.54714 0.52964 0.0
C1104 C 0.5828 0.54309 0.53404 0.0
C1105 C 0.55505 0.55586 0.52318 0.0
C1106 C 0.56545 0.5728 0.50796 0.0
C1107 C 0.60624 0.5944 0.39428 0.0
C1108 C 0.56695 0.59317 0.39097 0.0
C1109 C 0.62076 0.59954 0.41385 0.0
C1110 C 0.59628 0.60368 0.43046 0.0
C1111 C 0.55709 0.60273 0.42715 0.0
C1112 C 0.54257 0.59763 0.40762 0.0
C1113 C 0.61139 0.60832 0.45143 0.0
C1114 C 0.60039 0.59256 0.46752 0.0
C1115 C 0.63724 0.62755 0.45552 0.0
C1116 C 0.64872 0.64542 0.43938 0.0
C1117 C 0.62137 0.65874 0.42841 0.0
C1118 C 0.63238 0.67545 0.41314 0.0
C1119 C 0.6707 0.67913 0.4088 0.0
C1120 C 0.69809 0.66616 0.41976 0.0
C1121 C 0.68722 0.64941 0.43503 0.0
H1122 H 0.67918 0.69208 0.39697 0.0
H1123 H 0.57468 0.53 0.54584 0.0
H1124 H 0.32837 0.60572 0.95938 0.0
H1125 H 0.35077 0.60437 0.9953 0.0
H1126 H 0.39344 0.678 0.98911 0.0
H1127 H 0.37027 0.67961 0.95348 0.0
H1128 H 0.44408 0.64132 0.00965 0.0
H1129 H 0.31605 0.67408 0.01051 0.0
H1130 H 0.24783 0.67209 1.00271 0.0
H1131 H 0.23793 0.60522 0.03724 0.0
H1132 H 0.30628 0.60663 0.04497 0.0
H1133 H 0.47366 0.68394 0.11022 0.0
H1134 H 0.45638 0.67772 0.07436 0.0
H1135 H 0.38201 0.61845 0.09225 0.0
H1136 H 0.39651 0.62599 0.12833 0.0
H1137 H 0.34809 0.64305 0.06528 0.0
H1138 H 0.47165 0.61008 0.06764 0.0
H1139 H 0.53995 0.60846 0.07515 0.0
H1140 H 0.55963 0.66961 0.03474 0.0
H1141 H 0.49136 0.67183 0.0272 0.0
C1142 C 0.34292 0.62145 0.96569 0.0
C1143 C 0.34762 0.64278 0.95382 0.0
C1144 C 0.35559 0.6207 0.98613 0.0
C1145 C 0.37369 0.6411 0.99478 0.0
C1146 C 0.37963 0.66207 0.98266 0.0
C1147 C 0.36631 0.66301 0.96241 0.0
C1148 C 0.38473 0.64123 0.01677 0.0
C1149 C 0.42323 0.64185 0.02188 0.0
C1150 C 0.35741 0.64103 0.03262 0.0
C1151 C 0.31632 0.6403 0.02809 0.0
C1152 C 0.2994 0.65883 0.01626 0.0
C1153 C 0.2607 0.65784 0.01189 0.0
C1154 C 0.23858 0.6385 0.01942 0.0
C1155 C 0.25511 0.62016 0.03139 0.0
C1156 C 0.29381 0.62105 0.03577 0.0
C1157 C 0.45325 0.66976 0.10664 0.0
C1158 C 0.43655 0.65552 0.12237 0.0
C1159 C 0.44389 0.66591 0.08599 0.0
C1160 C 0.41842 0.64726 0.08043 0.0
C1161 C 0.40191 0.63288 0.09605 0.0
C1162 C 0.41067 0.63704 0.11675 0.0
C1163 C 0.40781 0.64349 0.05845 0.0
C1164 C 0.36925 0.64221 0.05323 0.0
C1165 C 0.43519 0.6425 0.04253 0.0
C1166 C 0.47632 0.64124 0.04699 0.0
C1167 C 0.4905 0.6233 0.06047 0.0
C1168 C 0.52922 0.62226 0.06471 0.0
C1169 C 0.5541 0.63896 0.05547 0.0
C1170 C 0.54032 0.6567 0.04191 0.0
C1171 C 0.50162 0.65784 0.03762 0.0
H1172 H 0.58407 0.63812 0.05877 0.0
H1173 H 0.20862 0.63777 0.01603 0.0
H1174 H 0.19413 0.83903 0.4654 0.0
H1175 H 0.17755 0.83875 0.50182 0.0
H1176 H 0.1602 0.91655 0.49945 0.0
H1177 H 0.17872 0.91716 0.46316 0.0
H1178 H 0.19906 0.90566 0.53226 0.0
H1179 H 0.08509 0.87528 0.5031 0.0
H1180 H 0.04431 0.84929 0.48142 0.0
H1181 H 0.08009 0.78577 0.51502 0.0
H1182 H 0.12154 0.81134 0.53673 0.0
H1183 H 0.11556 0.9051 0.63301 0.0
H1184 H 0.12229 0.90873 0.5955 0.0
H1185 H 0.16371 0.83503 0.59308 0.0
H1186 H 0.1572 0.83134 0.63057 0.0
H1187 H 0.10754 0.84652 0.56266 0.0
H1188 H 0.22505 0.8788 0.59018 0.0
H1189 H 0.26327 0.9063 0.61192 0.0
H1190 H 0.21597 0.96855 0.58105 0.0
H1191 H 0.17703 0.94139 0.55931 0.0
C1192 C 0.18697 0.85613 0.47261 0.0
C1193 C 0.18792 0.87813 0.46131 0.0
C1194 C 0.17698 0.8559 0.49342 0.0
C1195 C 0.1671 0.87759 0.50338 0.0
C1196 C 0.16756 0.89956 0.4921 0.0
C1197 C 0.17782 0.89984 0.47128 0.0
C1198 C 0.15808 0.87737 0.52576 0.0
C1199 C 0.1785 0.89302 0.53882 0.0
C1200 C 0.13158 0.86072 0.53445 0.0
C1201 C 0.10669 0.84523 0.52143 0.0
C1202 C 0.08451 0.85575 0.50577 0.0
C1203 C 0.06122 0.84109 0.49349 0.0
C1204 C 0.05967 0.81589 0.49681 0.0
C1205 C 0.08134 0.8053 0.51245 0.0
C1206 C 0.10471 0.81987 0.52477 0.0
C1207 C 0.12593 0.88966 0.62444 0.0
C1208 C 0.13603 0.86797 0.63468 0.0
C1209 C 0.12986 0.89178 0.60306 0.0
C1210 C 0.1436 0.87217 0.59156 0.0
C1211 C 0.15305 0.85036 0.6017 0.0
C1212 C 0.14959 0.84834 0.6231 0.0
C1213 C 0.14889 0.8745 0.56898 0.0
C1214 C 0.12777 0.85926 0.55596 0.0
C1215 C 0.1743 0.89177 0.5603 0.0
C1216 C 0.19782 0.90808 0.57329 0.0
C1217 C 0.22255 0.89836 0.58816 0.0
C1218 C 0.24439 0.91388 0.60045 0.0
C1219 C 0.24197 0.93916 0.59791 0.0
C1220 C 0.21777 0.94896 0.58303 0.0
C1221 C 0.19583 0.93352 0.57071 0.0
H1222 H 0.25891 0.95114 0.60744 0.0
H1223 H 0.04162 0.80458 0.48729 0.0
H1224 H 0.27649 0.2923 0.36556 0.0
H1225 H 0.24117 0.26654 0.34143 0.0
H1226 H 0.1428 0.31159 0.34937 0.0
H1227 H 0.17817 0.3371 0.37383 0.0
H1228 H 0.12515 0.26532 0.35533 0.0
H1229 H 0.19138 0.3095 0.30291 0.0
H1230 H 0.24652 0.32744 0.28501 0.0
H1231 H 0.29331 0.25607 0.27719 0.0
H1232 H 0.2387 0.23772 0.29531 0.0
H1233 H 0.01745 0.19661 0.28267 0.0
H1234 H 0.05159 0.2307 0.29867 0.0
H1235 H 0.15359 0.18813 0.29972 0.0
H1236 H 0.11936 0.15385 0.28438 0.0
H1237 H 0.16642 0.23612 0.28686 0.0
H1238 H 0.10406 0.19279 0.34214 0.0
H1239 H 0.0493 0.17436 0.36006 0.0
H1240 H 0.99583 0.24432 0.36246 0.0
H1241 H 0.05007 0.26311 0.34425 0.0
C1242 C 0.24768 0.29707 0.36161 0.0
C1243 C 0.23002 0.31674 0.3712 0.0
C1244 C 0.22749 0.28237 0.34783 0.0
C1245 C 0.18931 0.28718 0.34343 0.0
C1246 C 0.1722 0.30754 0.35247 0.0
C1247 C 0.19243 0.32221 0.36628 0.0
C1248 C 0.16641 0.2696 0.33112 0.0
C1249 C 0.13379 0.25938 0.34016 0.0
C1250 C 0.17812 0.26128 0.31154 0.0
C1251 C 0.21106 0.27225 0.30064 0.0
C1252 C 0.21357 0.29764 0.29753 0.0
C1253 C 0.24471 0.30788 0.28731 0.0
C1254 C 0.27344 0.29291 0.28001 0.0
C1255 C 0.27105 0.26765 0.28287 0.0
C1256 C 0.23998 0.25732 0.2931 0.0
C1257 C 0.04713 0.19452 0.28636 0.0
C1258 C 0.06587 0.17263 0.28207 0.0
C1259 C 0.06662 0.21403 0.29541 0.0
C1260 C 0.10514 0.21195 0.30038 0.0
C1261 C 0.12398 0.19022 0.29585 0.0
C1262 C 0.10443 0.17068 0.28698 0.0
C1263 C 0.12549 0.23194 0.31116 0.0
C1264 C 0.15762 0.24245 0.30189 0.0
C1265 C 0.11343 0.24053 0.33055 0.0
C1266 C 0.08092 0.2293 0.34162 0.0
C1267 C 0.08048 0.20421 0.34633 0.0
C1268 C 0.04957 0.1937 0.35656 0.0
C1269 C 0.01905 0.20814 0.36234 0.0
C1270 C 0.01945 0.23315 0.35794 0.0
C1271 C 0.05028 0.24374 0.34767 0.0
H1272 H 0.99514 0.19997 0.37026 0.0
H1273 H 0.29752 0.30088 0.27209 0.0
H1274 H 0.24155 0.22335 0.87381 0.0
H1275 H 0.27727 0.25208 0.85203 0.0
H1276 H 0.37008 0.20152 0.85001 0.0
H1277 H 0.33438 0.17298 0.87207 0.0
H1278 H 0.3936 0.24467 0.86227 0.0
H1279 H 0.3177 0.21648 0.80652 0.0
H1280 H 0.2593 0.20594 0.78769 0.0
H1281 H 0.223 0.28036 0.79102 0.0
H1282 H 0.28089 0.2913 0.81017 0.0
H1283 H 0.50314 0.32187 0.79414 0.0
H1284 H 0.46868 0.2881 0.81081 0.0
H1285 H 0.37093 0.33395 0.81717 0.0
H1286 H 0.40549 0.36781 0.80104 0.0
H1287 H 0.3519 0.2908 0.80051 0.0
H1288 H 0.42144 0.31742 0.86017 0.0
H1289 H 0.47439 0.32695 0.88365 0.0
H1290 H 0.52038 0.2557 0.87397 0.0
H1291 H 0.46763 0.24573 0.85049 0.0
C1292 C 0.26909 0.21813 0.86812 0.0
C1293 C 0.28521 0.19597 0.87431 0.0
C1294 C 0.28951 0.23452 0.85567 0.0
C1295 C 0.3264 0.22898 0.84924 0.0
C1296 C 0.34169 0.20621 0.85471 0.0
C1297 C 0.32125 0.18985 0.86717 0.0
C1298 C 0.35047 0.24795 0.83901 0.0
C1299 C 0.38487 0.25434 0.84844 0.0
C1300 C 0.33855 0.2612 0.82139 0.0
C1301 C 0.30351 0.25465 0.81 0.0
C1302 C 0.2971 0.23056 0.80344 0.0
C1303 C 0.26411 0.22452 0.79266 0.0
C1304 C 0.2374 0.24246 0.78822 0.0
C1305 C 0.24368 0.26648 0.7945 0.0
C1306 C 0.27659 0.27261 0.80531 0.0
C1307 C 0.47456 0.32487 0.79947 0.0
C1308 C 0.4569 0.34744 0.79611 0.0
C1309 C 0.45485 0.30554 0.80896 0.0
C1310 C 0.41714 0.30844 0.81525 0.0
C1311 C 0.3999 0.33119 0.81238 0.0
C1312 C 0.41965 0.35052 0.80308 0.0
C1313 C 0.3949 0.28753 0.82385 0.0
C1314 C 0.36086 0.28083 0.81412 0.0
C1315 C 0.40703 0.27401 0.84124 0.0
C1316 C 0.44085 0.28094 0.85342 0.0
C1317 C 0.4432 0.30395 0.86277 0.0
C1318 C 0.47297 0.30933 0.87624 0.0
C1319 C 0.50061 0.29188 0.88037 0.0
C1320 C 0.4989 0.26916 0.87079 0.0
C1321 C 0.46906 0.26363 0.85744 0.0
H1322 H 0.52333 0.29588 0.89104 0.0
H1323 H 0.2119 0.23775 0.77986 0.0
H1324 H 0.68798 0.2246 0.61296 0.0
H1325 H 0.65601 0.25144 0.63721 0.0
H1326 H 0.72233 0.2217 0.68711 0.0
H1327 H 0.75469 0.19467 0.66258 0.0
H1328 H 0.6415 0.22916 0.69606 0.0
H1329 H 0.74994 0.27314 0.67023 0.0
H1330 H 0.7927 0.28872 0.64311 0.0
H1331 H 0.7013 0.32866 0.61577 0.0
H1332 H 0.65784 0.31303 0.64257 0.0
H1333 H 0.58276 0.32655 0.76116 0.0
H1334 H 0.6201 0.2961 0.74314 0.0
H1335 H 0.58657 0.32742 0.68479 0.0
H1336 H 0.55117 0.35873 0.70269 0.0
H1337 H 0.65739 0.31805 0.68334 0.0
H1338 H 0.54766 0.27236 0.70595 0.0
H1339 H 0.50218 0.25626 0.73153 0.0
H1340 H 0.59192 0.21945 0.76332 0.0
H1341 H 0.63802 0.2355 0.73802 0.0
C1342 C 0.69537 0.22362 0.62916 0.0
C1343 C 0.72358 0.20774 0.63605 0.0
C1344 C 0.67721 0.23895 0.64296 0.0
C1345 C 0.68704 0.2387 0.66391 0.0
C1346 C 0.71438 0.22214 0.67099 0.0
C1347 C 0.73281 0.20679 0.65706 0.0
C1348 C 0.66982 0.25676 0.67791 0.0
C1349 C 0.64544 0.24861 0.69359 0.0
C1350 C 0.6744 0.2821 0.67434 0.0
C1351 C 0.70059 0.29177 0.65834 0.0
C1352 C 0.7389 0.28511 0.65836 0.0
C1353 C 0.76327 0.29397 0.64305 0.0
C1354 C 0.74971 0.30963 0.6277 0.0
C1355 C 0.71176 0.31652 0.62767 0.0
C1356 C 0.68726 0.30769 0.64293 0.0
C1357 C 0.58371 0.32715 0.74449 0.0
C1358 C 0.56437 0.34534 0.7334 0.0
C1359 C 0.60472 0.3095 0.73419 0.0
C1360 C 0.60595 0.30924 0.71255 0.0
C1361 C 0.58627 0.32723 0.70148 0.0
C1362 C 0.56583 0.3451 0.71176 0.0
C1363 C 0.62809 0.29059 0.70127 0.0
C1364 C 0.65357 0.29863 0.68606 0.0
C1365 C 0.62408 0.26519 0.70514 0.0
C1366 C 0.59634 0.25533 0.72022 0.0
C1367 C 0.55773 0.26096 0.71847 0.0
C1368 C 0.53183 0.25183 0.73291 0.0
C1369 C 0.54417 0.23694 0.74909 0.0
C1370 C 0.58241 0.23103 0.7508 0.0
C1371 C 0.60843 0.2401 0.7364 0.0
H1372 H 0.52408 0.22991 0.76026 0.0
H1373 H 0.76862 0.31646 0.61586 0.0
H1374 H 0.8189 0.29916 0.11307 0.0
H1375 H 0.84185 0.2666 0.13568 0.0
H1376 H 0.82939 0.31365 0.18826 0.0
H1377 H 0.80706 0.34658 0.16533 0.0
H1378 H 0.89604 0.29192 0.18919 0.0
H1379 H 0.76903 0.26425 0.18032 0.0
H1380 H 0.71104 0.25327 0.16127 0.0
H1381 H 0.77084 0.19708 0.12948 0.0
H1382 H 0.82935 0.20793 0.14812 0.0
H1383 H 0.94849 0.19388 0.25561 0.0
H1384 H 0.91251 0.22665 0.23929 0.0
H1385 H 0.91469 0.18806 0.1816 0.0
H1386 H 0.94872 0.15461 0.19814 0.0
H1387 H 0.8477 0.20673 0.18709 0.0
H1388 H 0.97612 0.23792 0.19334 0.0
H1389 H 0.03397 0.24912 0.21248 0.0
H1390 H 0.97057 0.29865 0.24958 0.0
H1391 H 0.91225 0.28766 0.23076 0.0
C1392 C 0.8206 0.30237 0.12951 0.0
C1393 C 0.81108 0.3251 0.13762 0.0
C1394 C 0.83354 0.28375 0.14243 0.0
C1395 C 0.83685 0.28749 0.16375 0.0
C1396 C 0.82689 0.31029 0.17189 0.0
C1397 C 0.81403 0.32901 0.15887 0.0
C1398 C 0.85282 0.26799 0.17716 0.0
C1399 C 0.88498 0.27339 0.18905 0.0
C1400 C 0.83887 0.24369 0.17674 0.0
C1401 C 0.80367 0.23703 0.16554 0.0
C1402 C 0.76989 0.24966 0.16916 0.0
C1403 C 0.73691 0.24344 0.15845 0.0
C1404 C 0.73727 0.22452 0.14415 0.0
C1405 C 0.77061 0.21174 0.14056 0.0
C1406 C 0.80368 0.21789 0.15122 0.0
C1407 C 0.9411 0.19232 0.23947 0.0
C1408 C 0.95197 0.17181 0.22808 0.0
C1409 C 0.92076 0.21116 0.23012 0.0
C1410 C 0.91148 0.21011 0.20909 0.0
C1411 C 0.92168 0.1894 0.19781 0.0
C1412 C 0.94154 0.1704 0.20723 0.0
C1413 C 0.89142 0.23055 0.19868 0.0
C1414 C 0.85847 0.22532 0.1874 0.0
C1415 C 0.90463 0.255 0.19966 0.0
C1416 C 0.93978 0.2618 0.21078 0.0
C1417 C 0.97449 0.2511 0.20565 0.0
C1418 C 0.00735 0.25741 0.21643 0.0
C1419 C 0.00592 0.27448 0.23228 0.0
C1420 C 0.97163 0.28539 0.23732 0.0
C1421 C 0.93868 0.27917 0.22658 0.0
H1422 H 0.03141 0.2793 0.24062 0.0
H1423 H 0.71171 0.21973 0.13587 0.0
H1424 H 0.8084 0.67496 0.65545 0.0
H1425 H 0.83523 0.70722 0.67744 0.0
H1426 H 0.8087 0.76096 0.6308 0.0
H1427 H 0.7821 0.72879 0.60895 0.0
H1428 H 0.88165 0.76456 0.6434 0.0
H1429 H 0.75914 0.75834 0.67505 0.0
H1430 H 0.70558 0.73745 0.69213 0.0
H1431 H 0.77809 0.716 0.74207 0.0
H1432 H 0.83225 0.73649 0.72513 0.0
H1433 H 0.92185 0.8729 0.69826 0.0
H1434 H 0.88845 0.84055 0.67957 0.0
H1435 H 0.91759 0.7889 0.72736 0.0
H1436 H 0.95155 0.82105 0.74586 0.0
H1437 H 0.84365 0.78365 0.71501 0.0
H1438 H 0.96589 0.78941 0.68386 0.0
H1439 H 0.01985 0.81067 0.66748 0.0
H1440 H 0.94889 0.83226 0.61693 0.0
H1441 H 0.89428 0.81151 0.63321 0.0
C1442 C 0.80775 0.69376 0.65019 0.0
C1443 C 0.79309 0.69963 0.63072 0.0
C1444 C 0.82304 0.71213 0.66269 0.0
C1445 C 0.82391 0.73653 0.65577 0.0
C1446 C 0.80838 0.7423 0.63644 0.0
C1447 C 0.79302 0.72399 0.62405 0.0
C1448 C 0.84288 0.75589 0.66803 0.0
C1449 C 0.87298 0.76894 0.65896 0.0
C1450 C 0.83233 0.76113 0.68854 0.0
C1451 C 0.79985 0.7487 0.6987 0.0
C1452 C 0.76376 0.74896 0.68957 0.0
C1453 C 0.73327 0.73724 0.69925 0.0
C1454 C 0.73846 0.72534 0.71814 0.0
C1455 C 0.77413 0.72519 0.72741 0.0
C1456 C 0.80473 0.73686 0.71779 0.0
C1457 C 0.9212 0.85463 0.70473 0.0
C1458 C 0.93904 0.84952 0.7236 0.0
C1459 C 0.90205 0.83619 0.69409 0.0
C1460 C 0.90067 0.81229 0.70204 0.0
C1461 C 0.91811 0.80723 0.721 0.0
C1462 C 0.93741 0.82563 0.73158 0.0
C1463 C 0.88204 0.79241 0.69027 0.0
C1464 C 0.85222 0.77923 0.69944 0.0
C1465 C 0.89297 0.78692 0.66987 0.0
C1466 C 0.92589 0.7991 0.65986 0.0
C1467 C 0.96171 0.79884 0.66932 0.0
C1468 C 0.99242 0.81079 0.66005 0.0
C1469 C 0.98778 0.82286 0.6412 0.0
C1470 C 0.95243 0.82293 0.63155 0.0
C1471 C 0.92158 0.81108 0.64079 0.0
H1472 H 0.01159 0.8321 0.63405 0.0
H1473 H 0.71481 0.71628 0.72561 0.0
H1474 H 0.7769 0.79622 0.14796 0.0
H1475 H 0.74152 0.76814 0.17056 0.0
H1476 H 0.63863 0.8068 0.15681 0.0
H1477 H 0.67422 0.83502 0.13437 0.0
H1478 H 0.64065 0.79138 0.19716 0.0
H1479 H 0.65987 0.75689 0.1302 0.0
H1480 H 0.69729 0.7438 0.10029 0.0
H1481 H 0.75891 0.69402 0.13883 0.0
H1482 H 0.72219 0.70708 0.16905 0.0
H1483 H 0.51136 0.69652 0.22484 0.0
H1484 H 0.54682 0.72877 0.20707 0.0
H1485 H 0.64834 0.68588 0.21177 0.0
H1486 H 0.61207 0.65273 0.22763 0.0
H1487 H 0.64667 0.7046 0.17628 0.0
H1488 H 0.62761 0.73989 0.24376 0.0
H1489 H 0.59016 0.75389 0.27341 0.0
H1490 H 0.52719 0.80161 0.2338 0.0
H1491 H 0.56445 0.78812 0.20392 0.0
C1492 C 0.74694 0.79909 0.15031 0.0
C1493 C 0.72816 0.81776 0.1397 0.0
C1494 C 0.7267 0.78296 0.16304 0.0
C1495 C 0.6873 0.78513 0.16512 0.0
C1496 C 0.66896 0.80476 0.15544 0.0
C1497 C 0.68926 0.8209 0.1427 0.0
C1498 C 0.66491 0.76589 0.17598 0.0
C1499 C 0.64173 0.77241 0.19254 0.0
C1500 C 0.66656 0.7411 0.17008 0.0
C1501 C 0.68857 0.73316 0.15192 0.0
C1502 C 0.68161 0.7433 0.13233 0.0
C1503 C 0.70265 0.73586 0.11531 0.0
C1504 C 0.73053 0.71814 0.11767 0.0
C1505 C 0.73735 0.70777 0.13704 0.0
C1506 C 0.71642 0.71518 0.15411 0.0
C1507 C 0.54119 0.6939 0.22194 0.0
C1508 C 0.5591 0.67221 0.22804 0.0
C1509 C 0.56164 0.71256 0.21205 0.0
C1510 C 0.60067 0.7102 0.20852 0.0
C1511 C 0.6184 0.68838 0.21445 0.0
C1512 C 0.59775 0.66952 0.22383 0.0
C1513 C 0.62283 0.72987 0.19789 0.0
C1514 C 0.64579 0.72348 0.18116 0.0
C1515 C 0.62094 0.75475 0.20367 0.0
C1516 C 0.59858 0.76284 0.22161 0.0
C1517 C 0.60564 0.75327 0.24138 0.0
C1518 C 0.58447 0.76111 0.25821 0.0
C1519 C 0.55614 0.77845 0.25548 0.0
C1520 C 0.54909 0.78814 0.2359 0.0
C1521 C 0.57031 0.78049 0.21902 0.0
H1522 H 0.53977 0.78444 0.26854 0.0
H1523 H 0.74679 0.7124 0.10448 0.0
H1524 H 0.31866 0.84419 0.35485 0.0
H1525 H 0.34429 0.81265 0.33212 0.0
H1526 H 0.28943 0.7569 0.36896 0.0
H1527 H 0.26393 0.78838 0.39157 0.0
H1528 H 0.36523 0.74917 0.36439 0.0
H1529 H 0.25924 0.76819 0.32077 0.0
H1530 H 0.2178 0.7952 0.30047 0.0
H1531 H 0.31154 0.81604 0.26203 0.0
H1532 H 0.35368 0.78939 0.28229 0.0
H1533 H 0.41858 0.64653 0.30763 0.0
H1534 H 0.38148 0.67779 0.32485 0.0
H1535 H 0.42133 0.73157 0.28083 0.0
H1536 H 0.45649 0.69979 0.26281 0.0
H1537 H 0.35236 0.74089 0.28866 0.0
H1538 H 0.45923 0.72489 0.33248 0.0
H1539 H 0.5029 0.69931 0.35288 0.0
H1540 H 0.41078 0.6751 0.39106 0.0
H1541 H 0.36657 0.70034 0.37081 0.0
C1542 C 0.31133 0.82522 0.35765 0.0
C1543 C 0.28917 0.81852 0.3747 0.0
C1544 C 0.32596 0.80724 0.34473 0.0
C1545 C 0.31873 0.7824 0.34884 0.0
C1546 C 0.29534 0.77592 0.3655 0.0
C1547 C 0.28062 0.79386 0.3783 0.0
C1548 C 0.33821 0.76309 0.33704 0.0
C1549 C 0.36199 0.74712 0.34786 0.0
C1550 C 0.33501 0.76098 0.3154 0.0
C1551 C 0.30969 0.77697 0.30318 0.0
C1552 C 0.2711 0.77869 0.3081 0.0
C1553 C 0.24746 0.79391 0.29658 0.0
C1554 C 0.26205 0.80738 0.28001 0.0
C1555 C 0.30029 0.80562 0.27489 0.0
C1556 C 0.32405 0.79044 0.28638 0.0
C1557 C 0.41921 0.66503 0.30164 0.0
C1558 C 0.4405 0.6709 0.28406 0.0
C1559 C 0.39823 0.68295 0.31154 0.0
C1560 C 0.39933 0.70729 0.30453 0.0
C1561 C 0.42005 0.713 0.28663 0.0
C1562 C 0.44019 0.69489 0.27637 0.0
C1563 C 0.37935 0.72679 0.31603 0.0
C1564 C 0.35562 0.74288 0.30519 0.0
C1565 C 0.38298 0.72929 0.33767 0.0
C1566 C 0.40959 0.7143 0.35 0.0
C1567 C 0.44831 0.71398 0.34515 0.0
C1568 C 0.47313 0.69957 0.35668 0.0
C1569 C 0.45959 0.68552 0.37318 0.0
C1570 C 0.42122 0.68595 0.37825 0.0
C1571 C 0.39628 0.70033 0.36678 0.0
H1572 H 0.47885 0.67436 0.38207 0.0
H1573 H 0.24371 0.81915 0.2711 0.0
H1574 H 0.24639 0.7424 0.89021 0.0
H1575 H 0.21258 0.77003 0.86696 0.0
H1576 H 0.18875 0.71015 0.82606 0.0
H1577 H 0.22247 0.68221 0.84965 0.0
H1578 H 0.21104 0.76014 0.80691 0.0
H1579 H 0.12249 0.72064 0.85352 0.0
H1580 H 0.10064 0.70679 0.88775 0.0
H1581 H 0.10196 0.78076 0.90911 0.0
H1582 H 0.12441 0.79501 0.87508 0.0
H1583 H 0.06498 0.82513 0.7548 0.0
H1584 H 0.10248 0.79362 0.77184 0.0
H1585 H 0.10457 0.83626 0.8275 0.0
H1586 H 0.06568 0.86727 0.8108 0.0
H1587 H 0.09239 0.79154 0.83724 0.0
H1588 H 0.18158 0.83205 0.79266 0.0
H1589 H 0.20466 0.8479 0.75928 0.0
H1590 H 0.20531 0.77522 0.73503 0.0
H1591 H 0.18155 0.75897 0.76817 0.0
C1592 C 0.23464 0.73527 0.87602 0.0
C1593 C 0.23697 0.71037 0.87154 0.0
C1594 C 0.21535 0.75102 0.8628 0.0
C1595 C 0.19811 0.74209 0.84486 0.0
C1596 C 0.20207 0.71735 0.83979 0.0
C1597 C 0.22122 0.70147 0.8532 0.0
C1598 C 0.17308 0.75833 0.83275 0.0
C1599 C 0.18474 0.76673 0.8133 0.0
C1600 C 0.13935 0.76735 0.84141 0.0
C1601 C 0.12545 0.75885 0.86181 0.0
C1602 C 0.11843 0.73392 0.86557 0.0
C1603 C 0.10588 0.72601 0.88493 0.0
C1604 C 0.1 0.74288 0.90061 0.0
C1605 C 0.10656 0.76771 0.89695 0.0
C1606 C 0.11916 0.77572 0.87763 0.0
C1607 C 0.07352 0.8278 0.77066 0.0
C1608 C 0.06248 0.84872 0.78145 0.0
C1609 C 0.09512 0.80981 0.78037 0.0
C1610 C 0.10694 0.81267 0.80089 0.0
C1611 C 0.09582 0.83357 0.81167 0.0
C1612 C 0.07365 0.85133 0.80209 0.0
C1613 C 0.1304 0.79384 0.81134 0.0
C1614 C 0.11847 0.7849 0.83061 0.0
C1615 C 0.16412 0.78467 0.80259 0.0
C1616 C 0.17944 0.79432 0.78284 0.0
C1617 C 0.18647 0.81946 0.78018 0.0
C1618 C 0.19965 0.82852 0.7613 0.0
C1619 C 0.20635 0.81258 0.74503 0.0
C1620 C 0.20004 0.78754 0.74764 0.0
C1621 C 0.18674 0.7784 0.76647 0.0
H1622 H 0.2165 0.81963 0.73041 0.0
H1623 H 0.09028 0.73671 0.91559 0.0
loop_
_geom_bond_atom_site_label_1
_geom_bond_atom_site_label_2
_geom_bond_distance
_geom_bond_site_symmetry_2
_ccdc_geom_bond_type
H0 C3 0.929 . S
H1 C6 0.929 . S
H2 C8 0.930 . S
C3 H0 0.929 . S
C3 C4 1.398 . S
C3 C5 1.396 . S
C4 C3 1.398 . S
C4 C8 1.407 . S
C5 C3 1.396 . S
C5 C6 1.394 . S
C6 H1 0.929 . S
C6 C5 1.394 . S
C6 C7 1.382 . S
C7 C6 1.382 . S
C7 C8 1.392 . S
C7 N9 1.420 . S
C8 H2 0.930 . S
C8 C4 1.407 . S
C8 C7 1.392 . S
N9 C7 1.420 . S
N9 C10 1.244 . S
C10 N9 1.244 . S
H11 C14 0.929 . S
H12 C17 0.929 . S
H13 C19 0.930 . S
C14 H11 0.929 . S
C14 C15 1.398 . S
C14 C16 1.396 . S
C15 C14 1.398 . S
C15 C19 1.407 . S
C16 C14 1.396 . S
C16 C17 1.394 . S
C17 H12 0.929 . S
C17 C16 1.394 . S
C17 C18 1.382 . S
C18 C17 1.382 . S
C18 C19 1.392 . S
C18 N20 1.420 . S
C19 H13 0.930 . S
C19 C15 1.407 . S
C19 C18 1.392 . S
N20 C18 1.420 . S
N20 C21 1.244 . S
C21 N20 1.244 . S
H22 C25 0.929 . S
H23 C28 0.929 . S
H24 C30 0.930 . S
C25 H22 0.929 . S
C25 C26 1.398 . S
C25 C27 1.396 . S
C26 C25 1.398 . S
C26 C30 1.407 . S
C27 C25 1.396 . S
C27 C28 1.394 . S
C28 H23 0.929 . S
C28 C27 1.394 . S
C28 C29 1.382 . S
C29 C28 1.382 . S
C29 C30 1.392 . S
C29 N31 1.420 . S
C30 H24 0.930 . S
C30 C26 1.407 . S
C30 C29 1.392 . S
N31 C29 1.420 . S
N31 C32 1.244 . S
C32 N31 1.244 . S
H33 C36 0.929 . S
H34 C39 0.929 . S
H35 C41 0.930 . S
C36 H33 0.929 . S
C36 C37 1.398 . S
C36 C38 1.396 . S
C37 C36 1.398 . S
C37 C41 1.407 . S
C38 C36 1.396 . S
C38 C39 1.394 . S
C39 H34 0.929 . S
C39 C38 1.394 . S
C39 C40 1.382 . S
C40 C39 1.382 . S
C40 C41 1.392 . S
C40 N42 1.420 . S
C41 H35 0.930 . S
C41 C37 1.407 . S
C41 C40 1.392 . S
N42 C40 1.420 . S
N42 C43 1.244 . S
C43 N42 1.244 . S
H44 C47 0.929 . S
H45 C50 0.929 . S
H46 C52 0.930 . S
C47 H44 0.929 . S
C47 C48 1.398 . S
C47 C49 1.396 . S
C48 C47 1.398 . S
C48 C52 1.407 . S
C49 C47 1.396 . S
C49 C50 1.394 . S
C50 H45 0.929 . S
C50 C49 1.394 . S
C50 C51 1.382 . S
C51 C50 1.382 . S
C51 C52 1.392 . S
C51 N53 1.420 . S
C52 H46 0.930 . S
C52 C48 1.407 . S
C52 C51 1.392 . S
N53 C51 1.420 . S
N53 C54 1.244 . S
C54 N53 1.244 . S
H55 C58 0.929 . S
H56 C61 0.929 . S
H57 C63 0.930 . S
C58 H55 0.929 . S
C58 C59 1.398 . S
C58 C60 1.396 . S
C59 C58 1.398 . S
C59 C63 1.407 . S
C60 C58 1.396 . S
C60 C61 1.394 . S
C61 H56 0.929 . S
C61 C60 1.394 . S
C61 C62 1.382 . S
C62 C61 1.382 . S
C62 C63 1.392 . S
C62 N64 1.420 . S
C63 H57 0.930 . S
C63 C59 1.407 . S
C63 C62 1.392 . S
N64 C62 1.420 . S
N64 C65 1.244 . S
C65 N64 1.244 . S
H66 C69 0.929 . S
H67 C72 0.929 . S
H68 C74 0.930 . S
C69 H66 0.929 . S
C69 C70 1.398 . S
C69 C71 1.396 . S
C70 C69 1.398 . S
C70 C74 1.407 . S
C71 C69 1.396 . S
C71 C72 1.394 . S
C72 H67 0.929 . S
C72 C71 1.394 . S
C72 C73 1.382 . S
C73 C72 1.382 . S
C73 C74 1.392 . S
C73 N75 1.420 . S
C74 H68 0.930 . S
C74 C70 1.407 . S
C74 C73 1.392 . S
N75 C73 1.420 . S
N75 C76 1.244 . S
C76 N75 1.244 . S
H77 C80 0.929 . S
H78 C83 0.929 . S
H79 C85 0.930 . S
C80 H77 0.929 . S
C80 C81 1.398 . S
C80 C82 1.396 . S
C81 C80 1.398 . S
C81 C85 1.407 . S
C82 C80 1.396 . S
C82 C83 1.394 . S
C83 H78 0.929 . S
C83 C82 1.394 . S
C83 C84 1.382 . S
C84 C83 1.382 . S
C84 C85 1.392 . S
C84 N86 1.420 . S
C85 H79 0.930 . S
C85 C81 1.407 . S
C85 C84 1.392 . S
N86 C84 1.420 . S
N86 C87 1.244 . S
C87 N86 1.244 . S
C88 C90 1.422 . S
C88 C92 1.415 . S
C88 N94 1.369 . S
C89 C90 1.421 . S
C89 C91 1.417 . S
C89 C101 1.422 . S
C90 C88 1.422 . S
C90 C89 1.421 . S
C90 N100 1.359 . S
C91 C89 1.417 . S
C91 C93 1.329 . S
C91 H110 0.930 . S
C92 C88 1.415 . S
C92 C93 1.437 . S
C92 C96 1.413 . S
C93 C91 1.329 . S
C93 C92 1.437 . S
C93 H115 0.929 . S
N94 C88 1.369 . S
N94 C95 1.338 . S
N94 Gd99 2.622 . S
C95 N94 1.338 . S
C95 C97 1.378 . S
C95 H107 0.929 . S
C96 C92 1.413 . S
C96 C97 1.348 . S
C96 H112 0.931 . S
C97 C95 1.378 . S
C97 C96 1.348 . S
C97 H113 0.930 . S
Gd98 N118 2.622 . S
Gd98 N125 2.570 . S
Gd98 O132 2.353 . S
Gd98 O133 2.468 . S
Gd98 O134 2.427 . S
Gd98 O136 2.388 . S
Gd98 O137 2.386 . S
Gd98 O141 2.307 . S
Gd98 C151 2.805 . S
Gd99 N94 2.622 . S
Gd99 N100 2.570 . S
Gd99 O131 2.386 . S
Gd99 O135 2.307 1_655 S
Gd99 O138 2.353 1_655 S
Gd99 O139 2.468 . S
Gd99 O140 2.427 . S
Gd99 O142 2.388 . S
Gd99 C163 2.805 . S
N100 C90 1.359 . S
N100 Gd99 2.570 . S
N100 C102 1.343 . S
C101 C89 1.422 . S
C101 C103 1.321 . S
C101 H109 0.931 . S
C102 N100 1.343 . S
C102 C103 1.390 . S
C102 H104 0.931 . S
C103 C101 1.321 . S
C103 C102 1.390 . S
C103 H105 0.930 . S
H104 C102 0.931 . S
H105 C103 0.930 . S
H106 C129 0.931 . S
H107 C95 0.929 . S
H108 C130 0.930 . S
H109 C101 0.931 . S
H110 C91 0.930 . S
H111 C120 0.929 . S
H112 C96 0.931 . S
H113 C97 0.930 . S
H114 C152 0.930 . S
H115 C93 0.929 . S
H116 C121 0.931 . S
H117 C122 0.930 . S
N118 Gd98 2.622 . S
N118 C119 1.369 . S
N118 C120 1.338 . S
C119 N118 1.369 . S
C119 C123 1.415 . S
C119 C126 1.422 . S
C120 H111 0.929 . S
C120 N118 1.338 . S
C120 C122 1.378 . S
C121 H116 0.931 . S
C121 C122 1.348 . S
C121 C123 1.413 . S
C122 H117 0.930 . S
C122 C120 1.378 . S
C122 C121 1.348 . S
C123 C119 1.415 . S
C123 C121 1.413 . S
C123 C153 1.437 . S
H124 C153 0.929 . S
N125 Gd98 2.570 . S
N125 C126 1.359 . S
N125 C129 1.343 . S
C126 C119 1.422 . S
C126 N125 1.359 . S
C126 C128 1.421 . S
C127 C128 1.422 . S
C127 C130 1.321 . S
C127 H154 0.931 . S
C128 C126 1.421 . S
C128 C127 1.422 . S
C128 C152 1.417 . S
C129 H106 0.931 . S
C129 N125 1.343 . S
C129 C130 1.390 . S
C130 H108 0.930 . S
C130 C127 1.321 . S
C130 C129 1.390 . S
O131 Gd99 2.386 . S
O131 C143 1.265 . S
O132 Gd98 2.353 . S
O132 C143 1.242 1_455 S
O133 Gd98 2.468 . S
O133 C151 1.263 . S
O134 Gd98 2.427 . S
O134 C151 1.252 . S
O135 Gd99 2.307 1_455 S
O135 C144 1.261 . S
O136 Gd98 2.388 . S
O136 C144 1.252 . S
O137 Gd98 2.386 . S
O137 C155 1.265 . S
O138 Gd99 2.353 1_455 S
O138 C155 1.242 . S
O139 Gd99 2.468 . S
O139 C163 1.263 . S
O140 Gd99 2.427 . S
O140 C163 1.252 . S
O141 Gd98 2.307 . S
O141 C156 1.261 1_455 S
O142 Gd99 2.388 . S
O142 C156 1.252 . S
C143 O131 1.265 . S
C143 O132 1.242 1_655 S
C144 O135 1.261 . S
C144 O136 1.252 . S
C145 C148 1.394 . S
C145 C150 1.370 . S
C145 C151 1.500 . S
C146 C149 1.383 . S
C146 C150 1.395 . S
C147 C148 1.396 . S
C147 C149 1.365 . S
C147 H164 0.929 . S
C148 C145 1.394 . S
C148 C147 1.396 . S
C148 H165 0.930 . S
C149 C146 1.383 . S
C149 C147 1.365 . S
C149 H166 0.931 . S
C150 C145 1.370 . S
C150 C146 1.395 . S
C150 H167 0.930 . S
C151 Gd98 2.805 . S
C151 O133 1.263 . S
C151 O134 1.252 . S
C151 C145 1.500 . S
C152 H114 0.930 . S
C152 C128 1.417 . S
C152 C153 1.329 . S
C153 C123 1.437 . S
C153 H124 0.929 . S
C153 C152 1.329 . S
H154 C127 0.931 . S
C155 O137 1.265 . S
C155 O138 1.242 . S
C156 O141 1.261 1_655 S
C156 O142 1.252 . S
C157 C160 1.394 . S
C157 C162 1.370 . S
C157 C163 1.500 . S
C158 C161 1.383 . S
C158 C162 1.395 . S
C159 C160 1.396 . S
C159 C161 1.365 . S
C159 H168 0.929 . S
C160 C157 1.394 . S
C160 C159 1.396 . S
C160 H169 0.930 . S
C161 C158 1.383 . S
C161 C159 1.365 . S
C161 H170 0.931 . S
C162 C157 1.370 . S
C162 C158 1.395 . S
C162 H171 0.930 . S
C163 Gd99 2.805 . S
C163 O139 1.263 . S
C163 O140 1.252 . S
C163 C157 1.500 . S
H164 C147 0.929 . S
H165 C148 0.930 . S
H166 C149 0.931 . S
H167 C150 0.930 . S
H168 C159 0.929 . S
H169 C160 0.930 . S
H170 C161 0.931 . S
H171 C162 0.930 . S
C172 C174 1.422 . S
C172 C176 1.415 . S
C172 N178 1.369 . S
C173 C174 1.421 . S
C173 C175 1.417 . S
C173 C185 1.422 . S
C174 C172 1.422 . S
C174 C173 1.421 . S
C174 N184 1.359 . S
C175 C173 1.417 . S
C175 C177 1.329 . S
C175 H194 0.930 . S
C176 C172 1.415 . S
C176 C177 1.437 . S
C176 C180 1.413 . S
C177 C175 1.329 . S
C177 C176 1.437 . S
C177 H199 0.929 . S
N178 C172 1.369 . S
N178 C179 1.338 . S
N178 Gd183 2.622 . S
C179 N178 1.338 . S
C179 C181 1.378 . S
C179 H191 0.929 . S
C180 C176 1.413 . S
C180 C181 1.348 . S
C180 H196 0.931 . S
C181 C179 1.378 . S
C181 C180 1.348 . S
C181 H197 0.930 . S
Gd182 N202 2.622 . S
Gd182 N209 2.570 . S
Gd182 O216 2.353 . S
Gd182 O217 2.468 . S
Gd182 O218 2.427 . S
Gd182 O220 2.388 . S
Gd182 O221 2.386 . S
Gd182 O225 2.307 . S
Gd182 C235 2.805 . S
Gd183 N178 2.622 . S
Gd183 N184 2.570 . S
Gd183 O215 2.386 . S
Gd183 O219 2.307 . S
Gd183 O222 2.353 . S
Gd183 O223 2.468 . S
Gd183 O224 2.427 . S
Gd183 O226 2.388 . S
Gd183 C247 2.805 . S
N184 C174 1.359 . S
N184 Gd183 2.570 . S
N184 C186 1.343 . S
C185 C173 1.422 . S
C185 C187 1.321 . S
C185 H193 0.931 . S
C186 N184 1.343 . S
C186 C187 1.390 . S
C186 H188 0.931 . S
C187 C185 1.321 . S
C187 C186 1.390 . S
C187 H189 0.930 . S
H188 C186 0.931 . S
H189 C187 0.930 . S
H190 C213 0.931 . S
H191 C179 0.929 . S
H192 C214 0.930 . S
H193 C185 0.931 . S
H194 C175 0.930 . S
H195 C204 0.929 . S
H196 C180 0.931 . S
H197 C181 0.930 . S
H198 C236 0.930 . S
H199 C177 0.929 . S
H200 C205 0.931 . S
H201 C206 0.930 . S
N202 Gd182 2.622 . S
N202 C203 1.369 . S
N202 C204 1.338 . S
C203 N202 1.369 . S
C203 C207 1.415 . S
C203 C210 1.422 . S
C204 H195 0.929 . S
C204 N202 1.338 . S
C204 C206 1.378 . S
C205 H200 0.931 . S
C205 C206 1.348 . S
C205 C207 1.413 . S
C206 H201 0.930 . S
C206 C204 1.378 . S
C206 C205 1.348 . S
C207 C203 1.415 . S
C207 C205 1.413 . S
C207 C237 1.437 . S
H208 C237 0.929 . S
N209 Gd182 2.570 . S
N209 C210 1.359 . S
N209 C213 1.343 . S
C210 C203 1.422 . S
C210 N209 1.359 . S
C210 C212 1.421 . S
C211 C212 1.422 . S
C211 C214 1.321 . S
C211 H238 0.931 . S
C212 C210 1.421 . S
C212 C211 1.422 . S
C212 C236 1.417 . S
C213 H190 0.931 . S
C213 N209 1.343 . S
C213 C214 1.390 . S
C214 H192 0.930 . S
C214 C211 1.321 . S
C214 C213 1.390 . S
O215 Gd183 2.386 . S
O215 C227 1.265 . S
O216 Gd182 2.353 . S
O216 C227 1.242 . S
O217 Gd182 2.468 . S
O217 C235 1.263 . S
O218 Gd182 2.427 . S
O218 C235 1.252 . S
O219 Gd183 2.307 . S
O219 C228 1.261 . S
O220 Gd182 2.388 . S
O220 C228 1.252 . S
O221 Gd182 2.386 . S
O221 C239 1.265 . S
O222 Gd183 2.353 . S
O222 C239 1.242 . S
O223 Gd183 2.468 . S
O223 C247 1.263 . S
O224 Gd183 2.427 . S
O224 C247 1.252 . S
O225 Gd182 2.307 . S
O225 C240 1.261 . S
O226 Gd183 2.388 . S
O226 C240 1.252 . S
C227 O215 1.265 . S
C227 O216 1.242 . S
C228 O219 1.261 . S
C228 O220 1.252 . S
C229 C232 1.394 . S
C229 C234 1.370 . S
C229 C235 1.500 . S
C230 C233 1.383 . S
C230 C234 1.395 . S
C231 C232 1.396 . S
C231 C233 1.365 . S
C231 H248 0.929 . S
C232 C229 1.394 . S
C232 C231 1.396 . S
C232 H249 0.930 . S
C233 C230 1.383 . S
C233 C231 1.365 . S
C233 H250 0.931 . S
C234 C229 1.370 . S
C234 C230 1.395 . S
C234 H251 0.930 . S
C235 Gd182 2.805 . S
C235 O217 1.263 . S
C235 O218 1.252 . S
C235 C229 1.500 . S
C236 H198 0.930 . S
C236 C212 1.417 . S
C236 C237 1.329 . S
C237 C207 1.437 . S
C237 H208 0.929 . S
C237 C236 1.329 . S
H238 C211 0.931 . S
C239 O221 1.265 . S
C239 O222 1.242 . S
C240 O225 1.261 . S
C240 O226 1.252 . S
C241 C244 1.394 . S
C241 C246 1.370 . S
C241 C247 1.500 . S
C242 C245 1.383 . S
C242 C246 1.395 . S
C243 C244 1.396 . S
C243 C245 1.365 . S
C243 H252 0.929 . S
C244 C241 1.394 . S
C244 C243 1.396 . S
C244 H253 0.930 . S
C245 C242 1.383 . S
C245 C243 1.365 . S
C245 H254 0.931 . S
C246 C241 1.370 . S
C246 C242 1.395 . S
C246 H255 0.930 . S
C247 Gd183 2.805 . S
C247 O223 1.263 . S
C247 O224 1.252 . S
C247 C241 1.500 . S
H248 C231 0.929 . S
H249 C232 0.930 . S
H250 C233 0.931 . S
H251 C234 0.930 . S
H252 C243 0.929 . S
H253 C244 0.930 . S
H254 C245 0.931 . S
H255 C246 0.930 . S
C256 C258 1.422 . S
C256 C260 1.415 . S
C256 N262 1.369 . S
C257 C258 1.421 . S
C257 C259 1.417 . S
C257 C269 1.422 . S
C258 C256 1.422 . S
C258 C257 1.421 . S
C258 N268 1.359 . S
C259 C257 1.417 . S
C259 C261 1.329 . S
C259 H278 0.930 . S
C260 C256 1.415 . S
C260 C261 1.437 . S
C260 C264 1.413 . S
C261 C259 1.329 . S
C261 C260 1.437 . S
C261 H283 0.929 . S
N262 C256 1.369 . S
N262 C263 1.338 . S
N262 Gd267 2.622 . S
C263 N262 1.338 . S
C263 C265 1.378 . S
C263 H275 0.929 . S
C264 C260 1.413 . S
C264 C265 1.348 . S
C264 H280 0.931 . S
C265 C263 1.378 . S
C265 C264 1.348 . S
C265 H281 0.930 . S
Gd266 N286 2.622 . S
Gd266 N293 2.570 . S
Gd266 O300 2.371 . S
Gd266 O301 2.468 . S
Gd266 O302 2.427 . S
Gd266 O304 2.388 . S
Gd266 O305 2.386 . S
Gd266 O309 2.329 . S
Gd266 C319 2.805 . S
Gd267 N262 2.622 . S
Gd267 N268 2.570 . S
Gd267 O299 2.386 . S
Gd267 O303 2.307 1_655 S
Gd267 O306 2.353 1_655 S
Gd267 O307 2.468 . S
Gd267 O308 2.427 . S
Gd267 O310 2.388 . S
Gd267 C331 2.805 . S
N268 C258 1.359 . S
N268 Gd267 2.570 . S
N268 C270 1.343 . S
C269 C257 1.422 . S
C269 C271 1.321 . S
C269 H277 0.931 . S
C270 N268 1.343 . S
C270 C271 1.390 . S
C270 H272 0.931 . S
C271 C269 1.321 . S
C271 C270 1.390 . S
C271 H273 0.930 . S
H272 C270 0.931 . S
H273 C271 0.930 . S
H274 C297 0.931 . S
H275 C263 0.929 . S
H276 C298 0.930 . S
H277 C269 0.931 . S
H278 C259 0.930 . S
H279 C288 0.929 . S
H280 C264 0.931 . S
H281 C265 0.930 . S
H282 C320 0.930 . S
H283 C261 0.929 . S
H284 C289 0.931 . S
H285 C290 0.930 . S
N286 Gd266 2.622 . S
N286 C287 1.369 . S
N286 C288 1.338 . S
C287 N286 1.369 . S
C287 C291 1.415 . S
C287 C294 1.422 . S
C288 H279 0.929 . S
C288 N286 1.338 . S
C288 C290 1.378 . S
C289 H284 0.931 . S
C289 C290 1.348 . S
C289 C291 1.413 . S
C290 H285 0.930 . S
C290 C288 1.378 . S
C290 C289 1.348 . S
C291 C287 1.415 . S
C291 C289 1.413 . S
C291 C321 1.437 . S
H292 C321 0.929 . S
N293 Gd266 2.570 . S
N293 C294 1.359 . S
N293 C297 1.343 . S
C294 C287 1.422 . S
C294 N293 1.359 . S
C294 C296 1.421 . S
C295 C296 1.422 . S
C295 C298 1.321 . S
C295 H322 0.931 . S
C296 C294 1.421 . S
C296 C295 1.422 . S
C296 C320 1.417 . S
C297 H274 0.931 . S
C297 N293 1.343 . S
C297 C298 1.390 . S
C298 H276 0.930 . S
C298 C295 1.321 . S
C298 C297 1.390 . S
O299 Gd267 2.386 . S
O299 C311 1.265 . S
O300 Gd266 2.371 . S
O300 C311 1.219 1_455 S
O301 Gd266 2.468 . S
O301 C319 1.263 . S
O302 Gd266 2.427 . S
O302 C319 1.252 . S
O303 Gd267 2.307 1_455 S
O303 C312 1.261 . S
O304 Gd266 2.388 . S
O304 C312 1.252 . S
O305 Gd266 2.386 . S
O305 C323 1.265 . S
O306 Gd267 2.353 1_455 S
O306 C323 1.242 . S
O307 Gd267 2.468 . S
O307 C331 1.263 . S
O308 Gd267 2.427 . S
O308 C331 1.252 . S
O309 Gd266 2.329 . S
O309 C324 1.235 1_455 S
O310 Gd267 2.388 . S
O310 C324 1.252 . S
C311 O299 1.265 . S
C311 O300 1.219 1_655 S
C312 O303 1.261 . S
C312 O304 1.252 . S
C313 C316 1.394 . S
C313 C318 1.370 . S
C313 C319 1.500 . S
C314 C317 1.383 . S
C314 C318 1.395 . S
C315 C316 1.396 . S
C315 C317 1.365 . S
C315 H332 0.929 . S
C316 C313 1.394 . S
C316 C315 1.396 . S
C316 H333 0.930 . S
C317 C314 1.383 . S
C317 C315 1.365 . S
C317 H334 0.931 . S
C318 C313 1.370 . S
C318 C314 1.395 . S
C318 H335 0.930 . S
C319 Gd266 2.805 . S
C319 O301 1.263 . S
C319 O302 1.252 . S
C319 C313 1.500 . S
C320 H282 0.930 . S
C320 C296 1.417 . S
C320 C321 1.329 . S
C321 C291 1.437 . S
C321 H292 0.929 . S
C321 C320 1.329 . S
H322 C295 0.931 . S
C323 O305 1.265 . S
C323 O306 1.242 . S
C324 O309 1.235 1_655 S
C324 O310 1.252 . S
C325 C328 1.394 . S
C325 C330 1.370 . S
C325 C331 1.500 . S
C326 C329 1.383 . S
C326 C330 1.395 . S
C327 C328 1.396 . S
C327 C329 1.365 . S
C327 H336 0.929 . S
C328 C325 1.394 . S
C328 C327 1.396 . S
C328 H337 0.930 . S
C329 C326 1.383 . S
C329 C327 1.365 . S
C329 H338 0.931 . S
C330 C325 1.370 . S
C330 C326 1.395 . S
C330 H339 0.930 . S
C331 Gd267 2.805 . S
C331 O307 1.263 . S
C331 O308 1.252 . S
C331 C325 1.500 . S
H332 C315 0.929 . S
H333 C316 0.930 . S
H334 C317 0.931 . S
H335 C318 0.930 . S
H336 C327 0.929 . S
H337 C328 0.930 . S
H338 C329 0.931 . S
H339 C330 0.930 . S
C340 C342 1.422 . S
C340 C344 1.415 . S
C340 N346 1.369 . S
C341 C342 1.421 . S
C341 C343 1.417 . S
C341 C353 1.422 . S
C342 C340 1.422 . S
C342 C341 1.421 . S
C342 N352 1.359 . S
C343 C341 1.417 . S
C343 C345 1.329 . S
C343 H362 0.930 . S
C344 C340 1.415 . S
C344 C345 1.437 . S
C344 C348 1.413 . S
C345 C343 1.329 . S
C345 C344 1.437 . S
C345 H367 0.929 . S
N346 C340 1.369 . S
N346 C347 1.338 . S
N346 Gd351 2.622 . S
C347 N346 1.338 . S
C347 C349 1.378 . S
C347 H359 0.929 . S
C348 C344 1.413 . S
C348 C349 1.348 . S
C348 H364 0.931 . S
C349 C347 1.378 . S
C349 C348 1.348 . S
C349 H365 0.930 . S
Gd350 N370 2.622 . S
Gd350 N377 2.570 . S
Gd350 O384 2.353 . S
Gd350 O385 2.468 . S
Gd350 O386 2.427 . S
Gd350 O388 2.388 . S
Gd350 O389 2.386 . S
Gd350 O393 2.307 . S
Gd350 C403 2.805 . S
Gd351 N346 2.622 . S
Gd351 N352 2.570 . S
Gd351 O383 2.386 . S
Gd351 O387 2.307 . S
Gd351 O390 2.353 . S
Gd351 O391 2.468 . S
Gd351 O392 2.427 . S
Gd351 O394 2.388 . S
Gd351 C415 2.805 . S
N352 C342 1.359 . S
N352 Gd351 2.570 . S
N352 C354 1.343 . S
C353 C341 1.422 . S
C353 C355 1.321 . S
C353 H361 0.931 . S
C354 N352 1.343 . S
C354 C355 1.390 . S
C354 H356 0.931 . S
C355 C353 1.321 . S
C355 C354 1.390 . S
C355 H357 0.930 . S
H356 C354 0.931 . S
H357 C355 0.930 . S
H358 C381 0.931 . S
H359 C347 0.929 . S
H360 C382 0.930 . S
H361 C353 0.931 . S
H362 C343 0.930 . S
H363 C372 0.929 . S
H364 C348 0.931 . S
H365 C349 0.930 . S
H366 C404 0.930 . S
H367 C345 0.929 . S
H368 C373 0.931 . S
H369 C374 0.930 . S
N370 Gd350 2.622 . S
N370 C371 1.369 . S
N370 C372 1.338 . S
C371 N370 1.369 . S
C371 C375 1.415 . S
C371 C378 1.422 . S
C372 H363 0.929 . S
C372 N370 1.338 . S
C372 C374 1.378 . S
C373 H368 0.931 . S
C373 C374 1.348 . S
C373 C375 1.413 . S
C374 H369 0.930 . S
C374 C372 1.378 . S
C374 C373 1.348 . S
C375 C371 1.415 . S
C375 C373 1.413 . S
C375 C405 1.437 . S
H376 C405 0.929 . S
N377 Gd350 2.570 . S
N377 C378 1.359 . S
N377 C381 1.343 . S
C378 C371 1.422 . S
C378 N377 1.359 . S
C378 C380 1.421 . S
C379 C380 1.422 . S
C379 C382 1.321 . S
C379 H406 0.931 . S
C380 C378 1.421 . S
C380 C379 1.422 . S
C380 C404 1.417 . S
C381 H358 0.931 . S
C381 N377 1.343 . S
C381 C382 1.390 . S
C382 H360 0.930 . S
C382 C379 1.321 . S
C382 C381 1.390 . S
O383 Gd351 2.386 . S
O383 C395 1.265 . S
O384 Gd350 2.353 . S
O384 C395 1.242 . S
O385 Gd350 2.468 . S
O385 C403 1.263 . S
O386 Gd350 2.427 . S
O386 C403 1.252 . S
O387 Gd351 2.307 . S
O387 C396 1.261 . S
O388 Gd350 2.388 . S
O388 C396 1.252 . S
O389 Gd350 2.386 . S
O389 C407 1.265 . S
O390 Gd351 2.353 . S
O390 C407 1.242 . S
O391 Gd351 2.468 . S
O391 C415 1.263 . S
O392 Gd351 2.427 . S
O392 C415 1.252 . S
O393 Gd350 2.307 . S
O393 C408 1.261 . S
O394 Gd351 2.388 . S
O394 C408 1.252 . S
C395 O383 1.265 . S
C395 O384 1.242 . S
C396 O387 1.261 . S
C396 O388 1.252 . S
C397 C400 1.394 . S
C397 C402 1.370 . S
C397 C403 1.500 . S
C398 C401 1.383 . S
C398 C402 1.395 . S
C399 C400 1.396 . S
C399 C401 1.365 . S
C399 H416 0.929 . S
C400 C397 1.394 . S
C400 C399 1.396 . S
C400 H417 0.930 . S
C401 C398 1.383 . S
C401 C399 1.365 . S
C401 H418 0.931 . S
C402 C397 1.370 . S
C402 C398 1.395 . S
C402 H419 0.930 . S
C403 Gd350 2.805 . S
C403 O385 1.263 . S
C403 O386 1.252 . S
C403 C397 1.500 . S
C404 H366 0.930 . S
C404 C380 1.417 . S
C404 C405 1.329 . S
C405 C375 1.437 . S
C405 H376 0.929 . S
C405 C404 1.329 . S
H406 C379 0.931 . S
C407 O389 1.265 . S
C407 O390 1.242 . S
C408 O393 1.261 . S
C408 O394 1.252 . S
C409 C412 1.394 . S
C409 C414 1.370 . S
C409 C415 1.500 . S
C410 C413 1.383 . S
C410 C414 1.395 . S
C411 C412 1.396 . S
C411 C413 1.365 . S
C411 H420 0.929 . S
C412 C409 1.394 . S
C412 C411 1.396 . S
C412 H421 0.930 . S
C413 C410 1.383 . S
C413 C411 1.365 . S
C413 H422 0.931 . S
C414 C409 1.370 . S
C414 C410 1.395 . S
C414 H423 0.930 . S
C415 Gd351 2.805 . S
C415 O391 1.263 . S
C415 O392 1.252 . S
C415 C409 1.500 . S
H416 C399 0.929 . S
H417 C400 0.930 . S
H418 C401 0.931 . S
H419 C402 0.930 . S
H420 C411 0.929 . S
H421 C412 0.930 . S
H422 C413 0.931 . S
H423 C414 0.930 . S
H424 C442 0.951 . S
H425 C444 0.951 . S
H426 C446 0.950 . S
H427 C447 0.950 . S
H428 C449 0.950 . S
H429 C452 0.950 . S
H430 C453 0.950 . S
H431 C455 0.950 . S
H432 C456 0.950 . S
H433 C457 0.951 . S
H434 C459 0.951 . S
H435 C461 0.950 . S
H436 C462 0.950 . S
H437 C464 0.950 . S
H438 C467 0.950 . S
H439 C468 0.950 . S
H440 C470 0.950 . S
H441 C471 0.950 . S
C442 H424 0.951 . S
C442 C443 1.366 . S
C442 C444 1.388 . S
C443 C442 1.366 . S
C443 C447 1.385 . S
C444 H425 0.951 . S
C444 C442 1.388 . S
C444 C445 1.366 . S
C445 C444 1.366 . S
C445 C446 1.414 . S
C445 C448 1.499 . S
C446 H426 0.950 . S
C446 C445 1.414 . S
C446 C447 1.374 . S
C447 H427 0.950 . S
C447 C443 1.385 . S
C447 C446 1.374 . S
C448 C445 1.499 . S
C448 C449 1.373 . S
C448 C450 1.389 . S
C449 H428 0.950 . S
C449 C448 1.373 . S
C449 C465 1.377 . S
C450 C448 1.389 . S
C450 C451 1.524 . S
C450 C464 1.377 . S
C451 C450 1.524 . S
C451 C452 1.397 . S
C451 C456 1.363 . S
C452 H429 0.950 . S
C452 C451 1.397 . S
C452 C453 1.334 . S
C453 H430 0.950 . S
C453 C452 1.334 . S
C453 C454 1.287 . S
C454 C453 1.287 . S
C454 C455 1.524 . S
C454 H473 0.913 . S
C455 H431 0.950 . S
C455 C454 1.524 . S
C455 C456 1.415 . S
C456 H432 0.950 . S
C456 C451 1.363 . S
C456 C455 1.415 . S
C457 H433 0.951 . S
C457 C458 1.366 . S
C457 C459 1.388 . S
C458 C457 1.366 . S
C458 C462 1.385 . S
C459 H434 0.951 . S
C459 C457 1.388 . S
C459 C460 1.366 . S
C460 C459 1.366 . S
C460 C461 1.414 . S
C460 C463 1.499 1_545 S
C461 H435 0.950 . S
C461 C460 1.414 . S
C461 C462 1.374 . S
C462 H436 0.950 . S
C462 C458 1.385 . S
C462 C461 1.374 . S
C463 C460 1.499 1_565 S
C463 C464 1.373 . S
C463 C465 1.389 . S
C464 H437 0.950 . S
C464 C450 1.377 . S
C464 C463 1.373 . S
C465 C449 1.377 . S
C465 C463 1.389 . S
C465 C466 1.524 . S
C466 C465 1.524 . S
C466 C467 1.397 . S
C466 C471 1.363 . S
C467 H438 0.950 . S
C467 C466 1.397 . S
C467 C468 1.334 1_455 S
C468 H439 0.950 . S
C468 C467 1.334 1_655 S
C468 C469 1.287 . S
C469 C468 1.287 . S
C469 C470 1.524 . S
C469 H472 0.999 . S
C470 H440 0.950 . S
C470 C469 1.524 . S
C470 C471 1.415 1_655 S
C471 H441 0.950 . S
C471 C466 1.363 . S
C471 C470 1.415 1_455 S
H472 C469 0.999 . S
H473 C454 0.913 . S
H474 C492 0.951 . S
H475 C494 0.951 . S
H476 C496 0.950 . S
H477 C497 0.950 . S
H478 C499 0.950 . S
H479 C502 0.950 . S
H480 C503 0.950 . S
H481 C505 0.950 . S
H482 C506 0.950 . S
H483 C507 0.951 . S
H484 C509 0.951 . S
H485 C511 0.950 . S
H486 C512 0.950 . S
H487 C514 0.950 . S
H488 C517 0.950 . S
H489 C518 0.950 . S
H490 C520 0.950 . S
H491 C521 0.950 . S
C492 H474 0.951 . S
C492 C493 1.366 . S
C492 C494 1.388 . S
C493 C492 1.366 . S
C493 C497 1.385 . S
C494 H475 0.951 . S
C494 C492 1.388 . S
C494 C495 1.366 . S
C495 C494 1.366 . S
C495 C496 1.414 . S
C495 C498 1.499 . S
C496 H476 0.950 . S
C496 C495 1.414 . S
C496 C497 1.374 . S
C497 H477 0.950 . S
C497 C493 1.385 . S
C497 C496 1.374 . S
C498 C495 1.499 . S
C498 C499 1.373 . S
C498 C500 1.389 . S
C499 H478 0.950 . S
C499 C498 1.373 . S
C499 C515 1.377 . S
C500 C498 1.389 . S
C500 C501 1.524 . S
C500 C514 1.377 . S
C501 C500 1.524 . S
C501 C502 1.397 . S
C501 C506 1.363 . S
C502 H479 0.950 . S
C502 C501 1.397 . S
C502 C503 1.334 . S
C503 H480 0.950 . S
C503 C502 1.334 . S
C503 C504 1.287 . S
C504 C503 1.287 . S
C504 C505 1.524 . S
C504 H523 0.913 . S
C505 H481 0.950 . S
C505 C504 1.524 . S
C505 C506 1.415 . S
C506 H482 0.950 . S
C506 C501 1.363 . S
C506 C505 1.415 . S
C507 H483 0.951 . S
C507 C508 1.366 . S
C507 C509 1.388 . S
C508 C507 1.366 . S
C508 C512 1.385 . S
C509 H484 0.951 . S
C509 C507 1.388 . S
C509 C510 1.366 . S
C510 C509 1.366 . S
C510 C511 1.414 . S
C510 C513 1.499 . S
C511 H485 0.950 . S
C511 C510 1.414 . S
C511 C512 1.374 . S
C512 H486 0.950 . S
C512 C508 1.385 . S
C512 C511 1.374 . S
C513 C510 1.499 . S
C513 C514 1.373 . S
C513 C515 1.389 . S
C514 H487 0.950 . S
C514 C500 1.377 . S
C514 C513 1.373 . S
C515 C499 1.377 . S
C515 C513 1.389 . S
C515 C516 1.524 . S
C516 C515 1.524 . S
C516 C517 1.397 . S
C516 C521 1.363 . S
C517 H488 0.950 . S
C517 C516 1.397 . S
C517 C518 1.334 . S
C518 H489 0.950 . S
C518 C517 1.334 . S
C518 C519 1.287 . S
C519 C518 1.287 . S
C519 C520 1.524 . S
C519 H522 0.999 . S
C520 H490 0.950 . S
C520 C519 1.524 . S
C520 C521 1.415 . S
C521 H491 0.950 . S
C521 C516 1.363 . S
C521 C520 1.415 . S
H522 C519 0.999 . S
H523 C504 0.913 . S
H524 C542 0.951 . S
H525 C544 0.951 . S
H526 C546 0.950 . S
H527 C547 0.950 . S
H528 C549 0.950 . S
H529 C552 0.950 . S
H530 C553 0.950 . S
H531 C555 0.950 . S
H532 C556 0.950 . S
H533 C557 0.951 . S
H534 C559 0.951 . S
H535 C561 0.950 . S
H536 C562 0.950 . S
H537 C564 0.950 . S
H538 C567 0.950 . S
H539 C568 0.950 . S
H540 C570 0.950 . S
H541 C571 0.950 . S
C542 H524 0.951 . S
C542 C543 1.366 . S
C542 C544 1.388 . S
C543 C542 1.366 . S
C543 C547 1.385 . S
C544 H525 0.951 . S
C544 C542 1.388 . S
C544 C545 1.366 . S
C545 C544 1.366 . S
C545 C546 1.414 . S
C545 C548 1.499 . S
C546 H526 0.950 . S
C546 C545 1.414 . S
C546 C547 1.374 . S
C547 H527 0.950 . S
C547 C543 1.385 . S
C547 C546 1.374 . S
C548 C545 1.499 . S
C548 C549 1.373 . S
C548 C550 1.389 . S
C549 H528 0.950 . S
C549 C548 1.373 . S
C549 C565 1.377 . S
C550 C548 1.389 . S
C550 C551 1.524 . S
C550 C564 1.377 . S
C551 C550 1.524 . S
C551 C552 1.397 . S
C551 C556 1.363 . S
C552 H529 0.950 . S
C552 C551 1.397 . S
C552 C553 1.334 . S
C553 H530 0.950 . S
C553 C552 1.334 . S
C553 C554 1.287 . S
C554 C553 1.287 . S
C554 C555 1.524 . S
C554 H573 0.913 . S
C555 H531 0.950 . S
C555 C554 1.524 . S
C555 C556 1.415 . S
C556 H532 0.950 . S
C556 C551 1.363 . S
C556 C555 1.415 . S
C557 H533 0.951 . S
C557 C558 1.366 . S
C557 C559 1.388 . S
C558 C557 1.366 . S
C558 C562 1.385 . S
C559 H534 0.951 . S
C559 C557 1.388 . S
C559 C560 1.366 . S
C560 C559 1.366 . S
C560 C561 1.414 . S
C560 C563 1.499 . S
C561 H535 0.950 . S
C561 C560 1.414 . S
C561 C562 1.374 . S
C562 H536 0.950 . S
C562 C558 1.385 . S
C562 C561 1.374 . S
C563 C560 1.499 . S
C563 C564 1.373 . S
C563 C565 1.389 . S
C564 H537 0.950 . S
C564 C550 1.377 . S
C564 C563 1.373 . S
C565 C549 1.377 . S
C565 C563 1.389 . S
C565 C566 1.524 . S
C566 C565 1.524 . S
C566 C567 1.397 . S
C566 C571 1.363 . S
C567 H538 0.950 . S
C567 C566 1.397 . S
C567 C568 1.334 . S
C568 H539 0.950 . S
C568 C567 1.334 . S
C568 C569 1.287 . S
C569 C568 1.287 . S
C569 C570 1.524 . S
C569 H572 0.999 . S
C570 H540 0.950 . S
C570 C569 1.524 . S
C570 C571 1.415 . S
C571 H541 0.950 . S
C571 C566 1.363 . S
C571 C570 1.415 . S
H572 C569 0.999 . S
H573 C554 0.913 . S
H574 C592 0.951 . S
H575 C594 0.951 . S
H576 C596 0.950 . S
H577 C597 0.950 . S
H578 C599 0.950 . S
H579 C602 0.950 . S
H580 C603 0.950 . S
H581 C605 0.950 . S
H582 C606 0.950 . S
H583 C607 0.951 . S
H584 C609 0.951 . S
H585 C611 0.951 1_565 S
H586 C612 0.950 . S
H587 C614 0.950 . S
H588 C617 0.950 . S
H589 C618 0.950 . S
H590 C620 0.950 1_455 S
H591 C621 0.950 . S
C592 H574 0.951 . S
C592 C593 1.366 . S
C592 C594 1.388 . S
C593 C592 1.366 . S
C593 C597 1.385 . S
C594 H575 0.951 . S
C594 C592 1.388 . S
C594 C595 1.366 . S
C595 C594 1.366 . S
C595 C596 1.414 . S
C595 C598 1.499 . S
C596 H576 0.950 . S
C596 C595 1.414 . S
C596 C597 1.374 . S
C597 H577 0.950 . S
C597 C593 1.385 . S
C597 C596 1.374 . S
C598 C595 1.499 . S
C598 C599 1.373 . S
C598 C600 1.389 . S
C599 H578 0.950 . S
C599 C598 1.373 . S
C599 C615 1.377 . S
C600 C598 1.389 . S
C600 C601 1.524 . S
C600 C614 1.377 . S
C601 C600 1.524 . S
C601 C602 1.397 . S
C601 C606 1.363 . S
C602 H579 0.950 . S
C602 C601 1.397 . S
C602 C603 1.334 . S
C603 H580 0.950 . S
C603 C602 1.334 . S
C603 C604 1.287 . S
C604 C603 1.287 . S
C604 C605 1.524 . S
C604 H623 0.913 . S
C605 H581 0.950 . S
C605 C604 1.524 . S
C605 C606 1.415 . S
C606 H582 0.950 . S
C606 C601 1.363 . S
C606 C605 1.415 . S
C607 H583 0.951 . S
C607 C608 1.366 . S
C607 C609 1.388 . S
C608 C607 1.366 . S
C608 C612 1.385 . S
C609 H584 0.951 . S
C609 C607 1.388 . S
C609 C610 1.366 . S
C610 C609 1.366 . S
C610 C611 1.414 . S
C610 C613 1.475 1_545 S
C611 H585 0.951 1_545 S
C611 C610 1.414 . S
C611 C612 1.374 . S
C612 H586 0.950 . S
C612 C608 1.385 . S
C612 C611 1.374 . S
C613 C610 1.475 1_565 S
C613 C614 1.385 . S
C613 C615 1.401 . S
C614 H587 0.950 . S
C614 C600 1.377 . S
C614 C613 1.385 . S
C615 C599 1.377 . S
C615 C613 1.401 . S
C615 C616 1.524 . S
C616 C615 1.524 . S
C616 C617 1.397 . S
C616 C621 1.363 1_565 S
C617 H588 0.950 . S
C617 C616 1.397 . S
C617 C618 1.334 1_655 S
C618 H589 0.950 . S
C618 C617 1.334 1_455 S
C618 C619 1.287 1_565 S
C619 C618 1.287 1_545 S
C619 C620 1.524 1_455 S
C619 H622 0.999 . S
C620 H590 0.950 1_655 S
C620 C619 1.524 1_655 S
C620 C621 1.415 . S
C621 H591 0.950 . S
C621 C616 1.363 1_545 S
C621 C620 1.415 . S
H622 C619 0.999 . S
H623 C604 0.913 . S
H624 C642 0.951 . S
H625 C644 0.951 . S
H626 C646 0.950 . S
H627 C647 0.950 . S
H628 C649 0.950 . S
H629 C652 0.950 . S
H630 C653 0.950 . S
H631 C655 0.950 . S
H632 C656 0.950 . S
H633 C657 0.951 . S
H634 C659 0.951 . S
H635 C661 0.950 . S
H636 C662 0.950 . S
H637 C664 0.949 1_565 S
H638 C667 0.950 . S
H639 C668 0.950 . S
H640 C670 0.950 . S
H641 C671 0.950 . S
C642 H624 0.951 . S
C642 C643 1.366 . S
C642 C644 1.388 . S
C643 C642 1.366 . S
C643 C647 1.385 . S
C644 H625 0.951 . S
C644 C642 1.388 . S
C644 C645 1.366 . S
C645 C644 1.366 . S
C645 C646 1.414 . S
C645 C648 1.499 . S
C646 H626 0.950 . S
C646 C645 1.414 . S
C646 C647 1.374 . S
C647 H627 0.950 . S
C647 C643 1.385 . S
C647 C646 1.374 . S
C648 C645 1.499 . S
C648 C649 1.373 . S
C648 C650 1.389 . S
C649 H628 0.950 . S
C649 C648 1.373 . S
C649 C665 1.377 . S
C650 C648 1.389 . S
C650 C651 1.524 . S
C650 C664 1.377 . S
C651 C650 1.524 . S
C651 C652 1.397 . S
C651 C656 1.363 1_545 S
C652 H629 0.950 . S
C652 C651 1.397 . S
C652 C653 1.334 . S
C653 H630 0.950 . S
C653 C652 1.334 . S
C653 C654 1.287 1_545 S
C654 C653 1.287 1_565 S
C654 C655 1.524 . S
C654 H673 0.913 . S
C655 H631 0.950 . S
C655 C654 1.524 . S
C655 C656 1.415 . S
C656 H632 0.950 . S
C656 C651 1.363 1_565 S
C656 C655 1.415 . S
C657 H633 0.951 . S
C657 C658 1.366 . S
C657 C659 1.388 . S
C658 C657 1.366 . S
C658 C662 1.385 . S
C659 H634 0.951 . S
C659 C657 1.388 . S
C659 C660 1.366 . S
C660 C659 1.366 . S
C660 C661 1.414 . S
C660 C663 1.499 1_565 S
C661 H635 0.950 . S
C661 C660 1.414 . S
C661 C662 1.374 . S
C662 H636 0.950 . S
C662 C658 1.385 . S
C662 C661 1.374 . S
C663 C660 1.499 1_545 S
C663 C664 1.374 . S
C663 C665 1.389 . S
C664 H637 0.949 1_545 S
C664 C650 1.377 . S
C664 C663 1.374 . S
C665 C649 1.377 . S
C665 C663 1.389 . S
C665 C666 1.524 . S
C666 C665 1.524 . S
C666 C667 1.397 . S
C666 C671 1.363 . S
C667 H638 0.950 . S
C667 C666 1.397 . S
C667 C668 1.334 . S
C668 H639 0.950 . S
C668 C667 1.334 . S
C668 C669 1.287 . S
C669 C668 1.287 . S
C669 C670 1.524 . S
C669 H672 0.999 . S
C670 H640 0.950 . S
C670 C669 1.524 . S
C670 C671 1.415 . S
C671 H641 0.950 . S
C671 C666 1.363 . S
C671 C670 1.415 . S
H672 C669 0.999 . S
H673 C654 0.913 . S
H674 C692 0.951 . S
H675 C694 0.951 . S
H676 C696 0.950 . S
H677 C697 0.950 . S
H678 C699 0.950 . S
H679 C702 0.950 . S
H680 C703 0.950 . S
H681 C705 0.950 . S
H682 C706 0.950 . S
H683 C707 0.951 . S
H684 C709 0.951 . S
H685 C711 0.950 . S
H686 C712 0.950 . S
H687 C714 0.950 . S
H688 C717 0.950 . S
H689 C718 0.950 . S
H690 C720 0.950 . S
H691 C721 0.950 . S
C692 H674 0.951 . S
C692 C693 1.366 . S
C692 C694 1.388 . S
C693 C692 1.366 . S
C693 C697 1.385 . S
C694 H675 0.951 . S
C694 C692 1.388 . S
C694 C695 1.366 . S
C695 C694 1.366 . S
C695 C696 1.414 . S
C695 C698 1.499 . S
C696 H676 0.950 . S
C696 C695 1.414 . S
C696 C697 1.374 . S
C697 H677 0.950 . S
C697 C693 1.385 . S
C697 C696 1.374 . S
C698 C695 1.499 . S
C698 C699 1.373 . S
C698 C700 1.389 . S
C699 H678 0.950 . S
C699 C698 1.373 . S
C699 C715 1.377 . S
C700 C698 1.389 . S
C700 C701 1.524 . S
C700 C714 1.377 . S
C701 C700 1.524 . S
C701 C702 1.397 . S
C701 C706 1.363 . S
C702 H679 0.950 . S
C702 C701 1.397 . S
C702 C703 1.334 . S
C703 H680 0.950 . S
C703 C702 1.334 . S
C703 C704 1.287 . S
C704 C703 1.287 . S
C704 C705 1.524 . S
C704 H723 0.913 . S
C705 H681 0.950 . S
C705 C704 1.524 . S
C705 C706 1.415 . S
C706 H682 0.950 . S
C706 C701 1.363 . S
C706 C705 1.415 . S
C707 H683 0.951 . S
C707 C708 1.366 . S
C707 C709 1.388 . S
C708 C707 1.366 . S
C708 C712 1.385 . S
C709 H684 0.951 . S
C709 C707 1.388 . S
C709 C710 1.366 . S
C710 C709 1.366 . S
C710 C711 1.414 . S
C710 C713 1.499 . S
C711 H685 0.950 . S
C711 C710 1.414 . S
C711 C712 1.374 . S
C712 H686 0.950 . S
C712 C708 1.385 . S
C712 C711 1.374 . S
C713 C710 1.499 . S
C713 C714 1.373 . S
C713 C715 1.389 . S
C714 H687 0.950 . S
C714 C700 1.377 . S
C714 C713 1.373 . S
C715 C699 1.377 . S
C715 C713 1.389 . S
C715 C716 1.524 . S
C716 C715 1.524 . S
C716 C717 1.397 . S
C716 C721 1.363 . S
C717 H688 0.950 . S
C717 C716 1.397 . S
C717 C718 1.334 . S
C718 H689 0.950 . S
C718 C717 1.334 . S
C718 C719 1.287 . S
C719 C718 1.287 . S
C719 C720 1.524 . S
C719 H722 0.999 . S
C720 H690 0.950 . S
C720 C719 1.524 . S
C720 C721 1.415 . S
C721 H691 0.950 . S
C721 C716 1.363 . S
C721 C720 1.415 . S
H722 C719 0.999 . S
H723 C704 0.913 . S
H724 C742 0.951 . S
H725 C744 0.951 . S
H726 C746 0.950 . S
H727 C747 0.950 . S
H728 C749 0.950 . S
H729 C752 0.950 . S
H730 C753 0.950 . S
H731 C755 0.950 . S
H732 C756 0.950 . S
H733 C757 0.951 . S
H734 C759 0.951 . S
H735 C761 0.950 . S
H736 C762 0.950 . S
H737 C764 0.950 . S
H738 C767 0.950 . S
H739 C768 0.950 . S
H740 C770 0.950 . S
H741 C771 0.950 . S
C742 H724 0.951 . S
C742 C743 1.366 . S
C742 C744 1.388 . S
C743 C742 1.366 . S
C743 C747 1.385 . S
C744 H725 0.951 . S
C744 C742 1.388 . S
C744 C745 1.366 . S
C745 C744 1.366 . S
C745 C746 1.414 . S
C745 C748 1.499 . S
C746 H726 0.950 . S
C746 C745 1.414 . S
C746 C747 1.374 . S
C747 H727 0.950 . S
C747 C743 1.385 . S
C747 C746 1.374 . S
C748 C745 1.499 . S
C748 C749 1.373 . S
C748 C750 1.389 . S
C749 H728 0.950 . S
C749 C748 1.373 . S
C749 C765 1.377 . S
C750 C748 1.389 . S
C750 C751 1.524 . S
C750 C764 1.377 . S
C751 C750 1.524 . S
C751 C752 1.397 . S
C751 C756 1.363 . S
C752 H729 0.950 . S
C752 C751 1.397 . S
C752 C753 1.334 . S
C753 H730 0.950 . S
C753 C752 1.334 . S
C753 C754 1.287 . S
C754 C753 1.287 . S
C754 C755 1.524 . S
C754 H773 0.913 . S
C755 H731 0.950 . S
C755 C754 1.524 . S
C755 C756 1.415 . S
C756 H732 0.950 . S
C756 C751 1.363 . S
C756 C755 1.415 . S
C757 H733 0.951 . S
C757 C758 1.366 . S
C757 C759 1.388 . S
C758 C757 1.366 . S
C758 C762 1.385 . S
C759 H734 0.951 . S
C759 C757 1.388 . S
C759 C760 1.366 . S
C760 C759 1.366 . S
C760 C761 1.414 . S
C760 C763 1.499 . S
C761 H735 0.950 . S
C761 C760 1.414 . S
C761 C762 1.374 . S
C762 H736 0.950 . S
C762 C758 1.385 . S
C762 C761 1.374 . S
C763 C760 1.499 . S
C763 C764 1.373 . S
C763 C765 1.389 . S
C764 H737 0.950 . S
C764 C750 1.377 . S
C764 C763 1.373 . S
C765 C749 1.377 . S
C765 C763 1.389 . S
C765 C766 1.524 . S
C766 C765 1.524 . S
C766 C767 1.397 . S
C766 C771 1.363 . S
C767 H738 0.950 . S
C767 C766 1.397 . S
C767 C768 1.334 . S
C768 H739 0.950 . S
C768 C767 1.334 . S
C768 C769 1.287 . S
C769 C768 1.287 . S
C769 C770 1.524 . S
C769 H772 0.999 . S
C770 H740 0.950 . S
C770 C769 1.524 . S
C770 C771 1.415 . S
C771 H741 0.950 . S
C771 C766 1.363 . S
C771 C770 1.415 . S
H772 C769 0.999 . S
H773 C754 0.913 . S
H774 C792 0.951 . S
H775 C794 0.951 . S
H776 C796 0.950 . S
H777 C797 0.950 . S
H778 C799 0.950 . S
H779 C802 0.950 . S
H780 C803 0.950 . S
H781 C805 0.950 . S
H782 C806 0.950 . S
H783 C807 0.951 . S
H784 C809 0.951 . S
H785 C811 0.950 1_545 S
H786 C812 0.950 . S
H787 C814 0.950 . S
H788 C817 0.950 . S
H789 C818 0.950 . S
H790 C820 0.950 . S
H791 C821 0.950 . S
C792 H774 0.951 . S
C792 C793 1.366 . S
C792 C794 1.388 . S
C793 C792 1.366 . S
C793 C797 1.385 . S
C794 H775 0.951 . S
C794 C792 1.388 . S
C794 C795 1.366 . S
C795 C794 1.366 . S
C795 C796 1.414 . S
C795 C798 1.499 . S
C796 H776 0.950 . S
C796 C795 1.414 . S
C796 C797 1.374 . S
C797 H777 0.950 . S
C797 C793 1.385 . S
C797 C796 1.374 . S
C798 C795 1.499 . S
C798 C799 1.373 . S
C798 C800 1.389 . S
C799 H778 0.950 . S
C799 C798 1.373 . S
C799 C815 1.377 . S
C800 C798 1.389 . S
C800 C801 1.524 . S
C800 C814 1.377 . S
C801 C800 1.524 . S
C801 C802 1.397 . S
C801 C806 1.363 . S
C802 H779 0.950 . S
C802 C801 1.397 . S
C802 C803 1.334 . S
C803 H780 0.950 . S
C803 C802 1.334 . S
C803 C804 1.287 . S
C804 C803 1.287 . S
C804 C805 1.524 . S
C804 H823 0.913 . S
C805 H781 0.950 . S
C805 C804 1.524 . S
C805 C806 1.415 . S
C806 H782 0.950 . S
C806 C801 1.363 . S
C806 C805 1.415 . S
C807 H783 0.951 . S
C807 C808 1.366 . S
C807 C809 1.388 . S
C808 C807 1.366 . S
C808 C812 1.385 . S
C809 H784 0.951 . S
C809 C807 1.388 . S
C809 C810 1.366 . S
C810 C809 1.366 . S
C810 C811 1.414 . S
C810 C813 1.499 1_565 S
C811 H785 0.950 1_565 S
C811 C810 1.414 . S
C811 C812 1.374 . S
C812 H786 0.950 . S
C812 C808 1.385 . S
C812 C811 1.374 . S
C813 C810 1.499 1_545 S
C813 C814 1.373 . S
C813 C815 1.389 . S
C814 H787 0.950 . S
C814 C800 1.377 . S
C814 C813 1.373 . S
C815 C799 1.377 . S
C815 C813 1.389 . S
C815 C816 1.524 . S
C816 C815 1.524 . S
C816 C817 1.397 . S
C816 C821 1.363 1_545 S
C817 H788 0.950 . S
C817 C816 1.397 . S
C817 C818 1.334 . S
C818 H789 0.950 . S
C818 C817 1.334 . S
C818 C819 1.287 1_545 S
C819 C818 1.287 1_565 S
C819 C820 1.524 . S
C819 H822 0.999 . S
C820 H790 0.950 . S
C820 C819 1.524 . S
C820 C821 1.415 . S
C821 H791 0.950 . S
C821 C816 1.363 1_565 S
C821 C820 1.415 . S
H822 C819 0.999 . S
H823 C804 0.913 . S
H824 C842 0.951 . S
H825 C844 0.951 . S
H826 C846 0.950 . S
H827 C847 0.950 . S
H828 C849 0.950 . S
H829 C852 0.950 . S
H830 C853 0.950 . S
H831 C855 0.950 . S
H832 C856 0.950 . S
H833 C857 0.951 . S
H834 C859 0.951 . S
H835 C861 0.950 . S
H836 C862 0.950 . S
H837 C864 0.950 . S
H838 C867 0.950 . S
H839 C868 0.950 1_655 S
H840 C870 0.950 . S
H841 C871 0.950 . S
C842 H824 0.951 . S
C842 C843 1.366 . S
C842 C844 1.388 . S
C843 C842 1.366 . S
C843 C847 1.385 . S
C844 H825 0.951 . S
C844 C842 1.388 . S
C844 C845 1.366 . S
C845 C844 1.366 . S
C845 C846 1.414 . S
C845 C848 1.499 1_556 S
C846 H826 0.950 . S
C846 C845 1.414 . S
C846 C847 1.374 . S
C847 H827 0.950 . S
C847 C843 1.385 . S
C847 C846 1.374 . S
C848 C845 1.499 1_554 S
C848 C849 1.373 . S
C848 C850 1.389 . S
C849 H828 0.950 . S
C849 C848 1.373 . S
C849 C865 1.377 . S
C850 C848 1.389 . S
C850 C851 1.524 . S
C850 C864 1.377 . S
C851 C850 1.524 . S
C851 C852 1.397 . S
C851 C856 1.363 . S
C852 H829 0.950 . S
C852 C851 1.397 . S
C852 C853 1.334 . S
C853 H830 0.950 . S
C853 C852 1.334 . S
C853 C854 1.287 . S
C854 C853 1.287 . S
C854 C855 1.524 . S
C854 H873 0.913 . S
C855 H831 0.950 . S
C855 C854 1.524 . S
C855 C856 1.415 . S
C856 H832 0.950 . S
C856 C851 1.363 . S
C856 C855 1.415 . S
C857 H833 0.951 . S
C857 C858 1.366 . S
C857 C859 1.388 . S
C858 C857 1.366 . S
C858 C862 1.385 . S
C859 H834 0.951 . S
C859 C857 1.388 . S
C859 C860 1.366 . S
C860 C859 1.366 . S
C860 C861 1.414 . S
C860 C863 1.499 . S
C861 H835 0.950 . S
C861 C860 1.414 . S
C861 C862 1.374 . S
C862 H836 0.950 . S
C862 C858 1.385 . S
C862 C861 1.374 . S
C863 C860 1.499 . S
C863 C864 1.373 . S
C863 C865 1.389 . S
C864 H837 0.950 . S
C864 C850 1.377 . S
C864 C863 1.373 . S
C865 C849 1.377 . S
C865 C863 1.389 . S
C865 C866 1.524 . S
C866 C865 1.524 . S
C866 C867 1.397 . S
C866 C871 1.363 . S
C867 H838 0.950 . S
C867 C866 1.397 . S
C867 C868 1.334 . S
C868 H839 0.950 1_455 S
C868 C867 1.334 . S
C868 C869 1.287 . S
C869 C868 1.287 . S
C869 C870 1.524 . S
C869 H872 0.999 1_455 S
C870 H840 0.950 . S
C870 C869 1.524 . S
C870 C871 1.415 . S
C871 H841 0.950 . S
C871 C866 1.363 . S
C871 C870 1.415 . S
H872 C869 0.999 1_655 S
H873 C854 0.913 . S
H874 C892 0.951 . S
H875 C894 0.951 . S
H876 C896 0.950 . S
H877 C897 0.950 . S
H878 C899 0.950 . S
H879 C902 0.950 . S
H880 C903 0.950 . S
H881 C905 0.950 . S
H882 C906 0.950 . S
H883 C907 0.951 . S
H884 C909 0.951 . S
H885 C911 0.950 . S
H886 C912 0.950 . S
H887 C914 0.950 . S
H888 C917 0.950 . S
H889 C918 0.950 . S
H890 C920 0.950 . S
H891 C921 0.950 . S
C892 H874 0.951 . S
C892 C893 1.366 . S
C892 C894 1.388 . S
C893 C892 1.366 . S
C893 C897 1.385 . S
C894 H875 0.951 . S
C894 C892 1.388 . S
C894 C895 1.366 . S
C895 C894 1.366 . S
C895 C896 1.414 . S
C895 C898 1.499 . S
C896 H876 0.950 . S
C896 C895 1.414 . S
C896 C897 1.374 . S
C897 H877 0.950 . S
C897 C893 1.385 . S
C897 C896 1.374 . S
C898 C895 1.499 . S
C898 C899 1.373 . S
C898 C900 1.389 . S
C899 H878 0.950 . S
C899 C898 1.373 . S
C899 C915 1.377 . S
C900 C898 1.389 . S
C900 C901 1.524 . S
C900 C914 1.377 . S
C901 C900 1.524 . S
C901 C902 1.397 . S
C901 C906 1.363 . S
C902 H879 0.950 . S
C902 C901 1.397 . S
C902 C903 1.334 . S
C903 H880 0.950 . S
C903 C902 1.334 . S
C903 C904 1.287 . S
C904 C903 1.287 . S
C904 C905 1.524 . S
C904 H923 0.913 . S
C905 H881 0.950 . S
C905 C904 1.524 . S
C905 C906 1.415 . S
C906 H882 0.950 . S
C906 C901 1.363 . S
C906 C905 1.415 . S
C907 H883 0.951 . S
C907 C908 1.366 . S
C907 C909 1.388 . S
C908 C907 1.366 . S
C908 C912 1.385 . S
C909 H884 0.951 . S
C909 C907 1.388 . S
C909 C910 1.366 . S
C910 C909 1.366 . S
C910 C911 1.414 . S
C910 C913 1.499 . S
C911 H885 0.950 . S
C911 C910 1.414 . S
C911 C912 1.374 . S
C912 H886 0.950 . S
C912 C908 1.385 . S
C912 C911 1.374 . S
C913 C910 1.499 . S
C913 C914 1.373 . S
C913 C915 1.389 . S
C914 H887 0.950 . S
C914 C900 1.377 . S
C914 C913 1.373 . S
C915 C899 1.377 . S
C915 C913 1.389 . S
C915 C916 1.524 . S
C916 C915 1.524 . S
C916 C917 1.397 . S
C916 C921 1.363 . S
C917 H888 0.950 . S
C917 C916 1.397 . S
C917 C918 1.334 . S
C918 H889 0.950 . S
C918 C917 1.334 . S
C918 C919 1.287 . S
C919 C918 1.287 . S
C919 C920 1.524 . S
C919 H922 0.999 . S
C920 H890 0.950 . S
C920 C919 1.524 . S
C920 C921 1.415 . S
C921 H891 0.950 . S
C921 C916 1.363 . S
C921 C920 1.415 . S
H922 C919 0.999 . S
H923 C904 0.913 . S
H924 C942 0.951 . S
H925 C944 0.951 1_556 S
H926 C946 0.950 . S
H927 C947 0.950 . S
H928 C949 0.950 . S
H929 C952 0.950 1_554 S
H930 C953 0.950 . S
H931 C955 0.950 . S
H932 C956 0.950 . S
H933 C957 0.951 . S
H934 C959 0.951 . S
H935 C961 0.950 . S
H936 C962 0.950 . S
H937 C964 0.950 . S
H938 C967 0.950 . S
H939 C968 0.950 . S
H940 C970 0.950 . S
H941 C971 0.950 . S
C942 H924 0.951 . S
C942 C943 1.366 . S
C942 C944 1.388 . S
C943 C942 1.366 . S
C943 C947 1.385 . S
C944 H925 0.951 1_554 S
C944 C942 1.388 . S
C944 C945 1.366 . S
C945 C944 1.366 . S
C945 C946 1.414 . S
C945 C948 1.499 1_554 S
C946 H926 0.950 . S
C946 C945 1.414 . S
C946 C947 1.374 . S
C947 H927 0.950 . S
C947 C943 1.385 . S
C947 C946 1.374 . S
C948 C945 1.499 1_556 S
C948 C949 1.373 . S
C948 C950 1.389 . S
C949 H928 0.950 . S
C949 C948 1.373 . S
C949 C965 1.377 . S
C950 C948 1.389 . S
C950 C951 1.524 . S
C950 C964 1.377 . S
C951 C950 1.524 . S
C951 C952 1.397 . S
C951 C956 1.363 . S
C952 H929 0.950 1_556 S
C952 C951 1.397 . S
C952 C953 1.334 1_556 S
C953 H930 0.950 . S
C953 C952 1.334 1_554 S
C953 C954 1.287 1_554 S
C954 C953 1.287 1_556 S
C954 C955 1.524 . S
C954 H973 0.927 . S
C955 H931 0.950 . S
C955 C954 1.524 . S
C955 C956 1.415 . S
C956 H932 0.950 . S
C956 C951 1.363 . S
C956 C955 1.415 . S
C957 H933 0.951 . S
C957 C958 1.366 . S
C957 C959 1.388 . S
C958 C957 1.366 . S
C958 C962 1.385 . S
C959 H934 0.951 . S
C959 C957 1.388 . S
C959 C960 1.366 . S
C960 C959 1.366 . S
C960 C961 1.414 . S
C960 C963 1.499 . S
C961 H935 0.950 . S
C961 C960 1.414 . S
C961 C962 1.374 . S
C962 H936 0.950 . S
C962 C958 1.385 . S
C962 C961 1.374 . S
C963 C960 1.499 . S
C963 C964 1.373 . S
C963 C965 1.389 . S
C964 H937 0.950 . S
C964 C950 1.377 . S
C964 C963 1.373 . S
C965 C949 1.377 . S
C965 C963 1.389 . S
C965 C966 1.524 . S
C966 C965 1.524 . S
C966 C967 1.397 . S
C966 C971 1.363 . S
C967 H938 0.950 . S
C967 C966 1.397 . S
C967 C968 1.334 . S
C968 H939 0.950 . S
C968 C967 1.334 . S
C968 C969 1.287 . S
C969 C968 1.287 . S
C969 C970 1.524 . S
C969 H972 0.999 . S
C970 H940 0.950 . S
C970 C969 1.524 . S
C970 C971 1.415 . S
C971 H941 0.950 . S
C971 C966 1.363 . S
C971 C970 1.415 . S
H972 C969 0.999 . S
H973 C954 0.927 . S
H974 C992 0.951 . S
H975 C994 0.951 . S
H976 C996 0.950 . S
H977 C997 0.950 . S
H978 C999 0.950 . S
H979 C1002 0.950 . S
H980 C1003 0.950 . S
H981 C1005 0.950 . S
H982 C1006 0.950 . S
H983 C1007 0.951 . S
H984 C1009 0.951 . S
H985 C1011 0.950 . S
H986 C1012 0.950 . S
H987 C1014 0.950 . S
H988 C1017 0.950 . S
H989 C1018 0.950 . S
H990 C1020 0.950 . S
H991 C1021 0.950 . S
C992 H974 0.951 . S
C992 C993 1.366 . S
C992 C994 1.388 . S
C993 C992 1.366 . S
C993 C997 1.385 . S
C994 H975 0.951 . S
C994 C992 1.388 . S
C994 C995 1.366 . S
C995 C994 1.366 . S
C995 C996 1.414 . S
C995 C998 1.499 . S
C996 H976 0.950 . S
C996 C995 1.414 . S
C996 C997 1.374 . S
C997 H977 0.950 . S
C997 C993 1.385 . S
C997 C996 1.374 . S
C998 C995 1.499 . S
C998 C999 1.373 . S
C998 C1000 1.389 . S
C999 H978 0.950 . S
C999 C998 1.373 . S
C999 C1015 1.377 . S
C1000 C998 1.389 . S
C1000 C1001 1.524 . S
C1000 C1014 1.377 . S
C1001 C1000 1.524 . S
C1001 C1002 1.397 . S
C1001 C1006 1.363 . S
C1002 H979 0.950 . S
C1002 C1001 1.397 . S
C1002 C1003 1.334 . S
C1003 H980 0.950 . S
C1003 C1002 1.334 . S
C1003 C1004 1.287 . S
C1004 C1003 1.287 . S
C1004 C1005 1.524 . S
C1004 H1023 0.913 . S
C1005 H981 0.950 . S
C1005 C1004 1.524 . S
C1005 C1006 1.415 . S
C1006 H982 0.950 . S
C1006 C1001 1.363 . S
C1006 C1005 1.415 . S
C1007 H983 0.951 . S
C1007 C1008 1.366 . S
C1007 C1009 1.388 . S
C1008 C1007 1.366 . S
C1008 C1012 1.385 . S
C1009 H984 0.951 . S
C1009 C1007 1.388 . S
C1009 C1010 1.366 . S
C1010 C1009 1.366 . S
C1010 C1011 1.414 . S
C1010 C1013 1.499 . S
C1011 H985 0.950 . S
C1011 C1010 1.414 . S
C1011 C1012 1.374 . S
C1012 H986 0.950 . S
C1012 C1008 1.385 . S
C1012 C1011 1.374 . S
C1013 C1010 1.499 . S
C1013 C1014 1.373 . S
C1013 C1015 1.389 . S
C1014 H987 0.950 . S
C1014 C1000 1.377 . S
C1014 C1013 1.373 . S
C1015 C999 1.377 . S
C1015 C1013 1.389 . S
C1015 C1016 1.524 . S
C1016 C1015 1.524 . S
C1016 C1017 1.397 . S
C1016 C1021 1.363 . S
C1017 H988 0.950 . S
C1017 C1016 1.397 . S
C1017 C1018 1.334 1_655 S
C1018 H989 0.950 . S
C1018 C1017 1.334 1_455 S
C1018 C1019 1.287 . S
C1019 C1018 1.287 . S
C1019 C1020 1.524 1_455 S
C1019 H1022 0.999 . S
C1020 H990 0.950 . S
C1020 C1019 1.524 1_655 S
C1020 C1021 1.415 . S
C1021 H991 0.950 . S
C1021 C1016 1.363 . S
C1021 C1020 1.415 . S
H1022 C1019 0.999 . S
H1023 C1004 0.913 . S
H1024 C1042 0.951 . S
H1025 C1044 0.951 . S
H1026 C1046 0.950 1_556 S
H1027 C1047 0.950 . S
H1028 C1049 0.950 . S
H1029 C1052 0.950 . S
H1030 C1053 0.950 . S
H1031 C1055 0.950 . S
H1032 C1056 0.950 1_556 S
H1033 C1057 0.951 . S
H1034 C1059 0.951 . S
H1035 C1061 0.950 . S
H1036 C1062 0.950 . S
H1037 C1064 0.950 . S
H1038 C1067 0.950 . S
H1039 C1068 0.950 . S
H1040 C1070 0.950 . S
H1041 C1071 0.950 . S
C1042 H1024 0.951 . S
C1042 C1043 1.366 . S
C1042 C1044 1.388 . S
C1043 C1042 1.366 . S
C1043 C1047 1.385 . S
C1044 H1025 0.951 . S
C1044 C1042 1.388 . S
C1044 C1045 1.366 . S
C1045 C1044 1.366 . S
C1045 C1046 1.414 . S
C1045 C1048 1.499 1_554 S
C1046 H1026 0.950 1_554 S
C1046 C1045 1.414 . S
C1046 C1047 1.374 . S
C1047 H1027 0.950 . S
C1047 C1043 1.385 . S
C1047 C1046 1.374 . S
C1048 C1045 1.499 1_556 S
C1048 C1049 1.373 . S
C1048 C1050 1.389 . S
C1049 H1028 0.950 . S
C1049 C1048 1.373 . S
C1049 C1065 1.377 . S
C1050 C1048 1.389 . S
C1050 C1051 1.547 . S
C1050 C1064 1.377 . S
C1051 C1050 1.547 . S
C1051 C1052 1.384 1_556 S
C1051 C1056 1.357 1_556 S
C1052 H1029 0.950 . S
C1052 C1051 1.384 1_554 S
C1052 C1053 1.334 . S
C1053 H1030 0.950 . S
C1053 C1052 1.334 . S
C1053 C1054 1.287 . S
C1054 C1053 1.287 . S
C1054 C1055 1.524 . S
C1054 H1073 0.913 . S
C1055 H1031 0.950 . S
C1055 C1054 1.524 . S
C1055 C1056 1.415 . S
C1056 H1032 0.950 1_554 S
C1056 C1051 1.357 1_554 S
C1056 C1055 1.415 . S
C1057 H1033 0.951 . S
C1057 C1058 1.366 . S
C1057 C1059 1.388 . S
C1058 C1057 1.366 . S
C1058 C1062 1.385 . S
C1059 H1034 0.951 . S
C1059 C1057 1.388 . S
C1059 C1060 1.366 . S
C1060 C1059 1.366 . S
C1060 C1061 1.414 . S
C1060 C1063 1.499 . S
C1061 H1035 0.950 . S
C1061 C1060 1.414 . S
C1061 C1062 1.374 . S
C1062 H1036 0.950 . S
C1062 C1058 1.385 . S
C1062 C1061 1.374 . S
C1063 C1060 1.499 . S
C1063 C1064 1.373 . S
C1063 C1065 1.389 . S
C1064 H1037 0.950 . S
C1064 C1050 1.377 . S
C1064 C1063 1.373 . S
C1065 C1049 1.377 . S
C1065 C1063 1.389 . S
C1065 C1066 1.524 . S
C1066 C1065 1.524 . S
C1066 C1067 1.397 . S
C1066 C1071 1.363 . S
C1067 H1038 0.950 . S
C1067 C1066 1.397 . S
C1067 C1068 1.334 . S
C1068 H1039 0.950 . S
C1068 C1067 1.334 . S
C1068 C1069 1.287 . S
C1069 C1068 1.287 . S
C1069 C1070 1.524 . S
C1069 H1072 0.999 . S
C1070 H1040 0.950 . S
C1070 C1069 1.524 . S
C1070 C1071 1.415 . S
C1071 H1041 0.950 . S
C1071 C1066 1.363 . S
C1071 C1070 1.415 . S
H1072 C1069 0.999 . S
H1073 C1054 0.913 . S
H1074 C1092 0.951 . S
H1075 C1094 0.951 . S
H1076 C1096 0.950 . S
H1077 C1097 0.950 . S
H1078 C1099 0.950 . S
H1079 C1102 0.950 . S
H1080 C1103 0.950 . S
H1081 C1105 0.950 . S
H1082 C1106 0.950 . S
H1083 C1107 0.951 . S
H1084 C1109 0.951 . S
H1085 C1111 0.950 . S
H1086 C1112 0.950 . S
H1087 C1114 0.950 . S
H1088 C1117 0.950 . S
H1089 C1118 0.950 . S
H1090 C1120 0.950 . S
H1091 C1121 0.950 . S
C1092 H1074 0.951 . S
C1092 C1093 1.366 . S
C1092 C1094 1.388 . S
C1093 C1092 1.366 . S
C1093 C1097 1.385 . S
C1094 H1075 0.951 . S
C1094 C1092 1.388 . S
C1094 C1095 1.366 . S
C1095 C1094 1.366 . S
C1095 C1096 1.414 . S
C1095 C1098 1.499 . S
C1096 H1076 0.950 . S
C1096 C1095 1.414 . S
C1096 C1097 1.374 . S
C1097 H1077 0.950 . S
C1097 C1093 1.385 . S
C1097 C1096 1.374 . S
C1098 C1095 1.499 . S
C1098 C1099 1.373 . S
C1098 C1100 1.389 . S
C1099 H1078 0.950 . S
C1099 C1098 1.373 . S
C1099 C1115 1.377 . S
C1100 C1098 1.389 . S
C1100 C1101 1.524 . S
C1100 C1114 1.377 . S
C1101 C1100 1.524 . S
C1101 C1102 1.397 . S
C1101 C1106 1.363 . S
C1102 H1079 0.950 . S
C1102 C1101 1.397 . S
C1102 C1103 1.334 . S
C1103 H1080 0.950 . S
C1103 C1102 1.334 . S
C1103 C1104 1.287 . S
C1104 C1103 1.287 . S
C1104 C1105 1.524 . S
C1104 H1123 0.913 . S
C1105 H1081 0.950 . S
C1105 C1104 1.524 . S
C1105 C1106 1.415 . S
C1106 H1082 0.950 . S
C1106 C1101 1.363 . S
C1106 C1105 1.415 . S
C1107 H1083 0.951 . S
C1107 C1108 1.366 . S
C1107 C1109 1.388 . S
C1108 C1107 1.366 . S
C1108 C1112 1.385 . S
C1109 H1084 0.951 . S
C1109 C1107 1.388 . S
C1109 C1110 1.366 . S
C1110 C1109 1.366 . S
C1110 C1111 1.414 . S
C1110 C1113 1.499 . S
C1111 H1085 0.950 . S
C1111 C1110 1.414 . S
C1111 C1112 1.374 . S
C1112 H1086 0.950 . S
C1112 C1108 1.385 . S
C1112 C1111 1.374 . S
C1113 C1110 1.499 . S
C1113 C1114 1.373 . S
C1113 C1115 1.389 . S
C1114 H1087 0.950 . S
C1114 C1100 1.377 . S
C1114 C1113 1.373 . S
C1115 C1099 1.377 . S
C1115 C1113 1.389 . S
C1115 C1116 1.524 . S
C1116 C1115 1.524 . S
C1116 C1117 1.397 . S
C1116 C1121 1.363 . S
C1117 H1088 0.950 . S
C1117 C1116 1.397 . S
C1117 C1118 1.334 . S
C1118 H1089 0.950 . S
C1118 C1117 1.334 . S
C1118 C1119 1.287 . S
C1119 C1118 1.287 . S
C1119 C1120 1.524 . S
C1119 H1122 0.999 . S
C1120 H1090 0.950 . S
C1120 C1119 1.524 . S
C1120 C1121 1.415 . S
C1121 H1091 0.950 . S
C1121 C1116 1.363 . S
C1121 C1120 1.415 . S
H1122 C1119 0.999 . S
H1123 C1104 0.913 . S
H1124 C1142 0.951 . S
H1125 C1144 0.951 . S
H1126 C1146 0.950 . S
H1127 C1147 0.950 . S
H1128 C1149 0.950 . S
H1129 C1152 0.950 . S
H1130 C1153 0.950 . S
H1131 C1155 0.950 . S
H1132 C1156 0.950 . S
H1133 C1157 0.951 . S
H1134 C1159 0.951 . S
H1135 C1161 0.950 . S
H1136 C1162 0.950 . S
H1137 C1164 0.950 . S
H1138 C1167 0.950 . S
H1139 C1168 0.950 . S
H1140 C1170 0.950 . S
H1141 C1171 0.950 . S
C1142 H1124 0.951 . S
C1142 C1143 1.366 . S
C1142 C1144 1.388 . S
C1143 C1142 1.366 . S
C1143 C1147 1.385 . S
C1144 H1125 0.951 . S
C1144 C1142 1.388 . S
C1144 C1145 1.366 . S
C1145 C1144 1.366 . S
C1145 C1146 1.414 . S
C1145 C1148 1.499 1_556 S
C1146 H1126 0.950 . S
C1146 C1145 1.414 . S
C1146 C1147 1.374 . S
C1147 H1127 0.950 . S
C1147 C1143 1.385 . S
C1147 C1146 1.374 . S
C1148 C1145 1.499 1_554 S
C1148 C1149 1.373 . S
C1148 C1150 1.389 . S
C1149 H1128 0.950 . S
C1149 C1148 1.373 . S
C1149 C1165 1.377 . S
C1150 C1148 1.389 . S
C1150 C1151 1.524 . S
C1150 C1164 1.377 . S
C1151 C1150 1.524 . S
C1151 C1152 1.397 . S
C1151 C1156 1.363 . S
C1152 H1129 0.950 . S
C1152 C1151 1.397 . S
C1152 C1153 1.334 . S
C1153 H1130 0.950 . S
C1153 C1152 1.334 . S
C1153 C1154 1.287 . S
C1154 C1153 1.287 . S
C1154 C1155 1.524 . S
C1154 H1173 0.913 . S
C1155 H1131 0.950 . S
C1155 C1154 1.524 . S
C1155 C1156 1.415 . S
C1156 H1132 0.950 . S
C1156 C1151 1.363 . S
C1156 C1155 1.415 . S
C1157 H1133 0.951 . S
C1157 C1158 1.366 . S
C1157 C1159 1.388 . S
C1158 C1157 1.366 . S
C1158 C1162 1.385 . S
C1159 H1134 0.951 . S
C1159 C1157 1.388 . S
C1159 C1160 1.366 . S
C1160 C1159 1.366 . S
C1160 C1161 1.414 . S
C1160 C1163 1.499 . S
C1161 H1135 0.950 . S
C1161 C1160 1.414 . S
C1161 C1162 1.374 . S
C1162 H1136 0.950 . S
C1162 C1158 1.385 . S
C1162 C1161 1.374 . S
C1163 C1160 1.499 . S
C1163 C1164 1.373 . S
C1163 C1165 1.389 . S
C1164 H1137 0.950 . S
C1164 C1150 1.377 . S
C1164 C1163 1.373 . S
C1165 C1149 1.377 . S
C1165 C1163 1.389 . S
C1165 C1166 1.524 . S
C1166 C1165 1.524 . S
C1166 C1167 1.397 . S
C1166 C1171 1.363 . S
C1167 H1138 0.950 . S
C1167 C1166 1.397 . S
C1167 C1168 1.334 . S
C1168 H1139 0.950 . S
C1168 C1167 1.334 . S
C1168 C1169 1.287 . S
C1169 C1168 1.287 . S
C1169 C1170 1.524 . S
C1169 H1172 0.999 . S
C1170 H1140 0.950 . S
C1170 C1169 1.524 . S
C1170 C1171 1.415 . S
C1171 H1141 0.950 . S
C1171 C1166 1.363 . S
C1171 C1170 1.415 . S
H1172 C1169 0.999 . S
H1173 C1154 0.913 . S
H1174 C1192 0.951 . S
H1175 C1194 0.951 . S
H1176 C1196 0.950 . S
H1177 C1197 0.950 . S
H1178 C1199 0.950 . S
H1179 C1202 0.950 . S
H1180 C1203 0.950 . S
H1181 C1205 0.950 . S
H1182 C1206 0.950 . S
H1183 C1207 0.951 . S
H1184 C1209 0.951 . S
H1185 C1211 0.950 . S
H1186 C1212 0.950 . S
H1187 C1214 0.950 . S
H1188 C1217 0.950 . S
H1189 C1218 0.950 . S
H1190 C1220 0.950 . S
H1191 C1221 0.950 . S
C1192 H1174 0.951 . S
C1192 C1193 1.366 . S
C1192 C1194 1.388 . S
C1193 C1192 1.366 . S
C1193 C1197 1.385 . S
C1194 H1175 0.951 . S
C1194 C1192 1.388 . S
C1194 C1195 1.366 . S
C1195 C1194 1.366 . S
C1195 C1196 1.414 . S
C1195 C1198 1.499 . S
C1196 H1176 0.950 . S
C1196 C1195 1.414 . S
C1196 C1197 1.374 . S
C1197 H1177 0.950 . S
C1197 C1193 1.385 . S
C1197 C1196 1.374 . S
C1198 C1195 1.499 . S
C1198 C1199 1.373 . S
C1198 C1200 1.389 . S
C1199 H1178 0.950 . S
C1199 C1198 1.373 . S
C1199 C1215 1.377 . S
C1200 C1198 1.389 . S
C1200 C1201 1.524 . S
C1200 C1214 1.377 . S
C1201 C1200 1.524 . S
C1201 C1202 1.397 . S
C1201 C1206 1.363 . S
C1202 H1179 0.950 . S
C1202 C1201 1.397 . S
C1202 C1203 1.334 . S
C1203 H1180 0.950 . S
C1203 C1202 1.334 . S
C1203 C1204 1.287 . S
C1204 C1203 1.287 . S
C1204 C1205 1.524 . S
C1204 H1223 0.913 . S
C1205 H1181 0.950 . S
C1205 C1204 1.524 . S
C1205 C1206 1.415 . S
C1206 H1182 0.950 . S
C1206 C1201 1.363 . S
C1206 C1205 1.415 . S
C1207 H1183 0.951 . S
C1207 C1208 1.366 . S
C1207 C1209 1.388 . S
C1208 C1207 1.366 . S
C1208 C1212 1.385 . S
C1209 H1184 0.951 . S
C1209 C1207 1.388 . S
C1209 C1210 1.366 . S
C1210 C1209 1.366 . S
C1210 C1211 1.414 . S
C1210 C1213 1.499 . S
C1211 H1185 0.950 . S
C1211 C1210 1.414 . S
C1211 C1212 1.374 . S
C1212 H1186 0.950 . S
C1212 C1208 1.385 . S
C1212 C1211 1.374 . S
C1213 C1210 1.499 . S
C1213 C1214 1.373 . S
C1213 C1215 1.389 . S
C1214 H1187 0.950 . S
C1214 C1200 1.377 . S
C1214 C1213 1.373 . S
C1215 C1199 1.377 . S
C1215 C1213 1.389 . S
C1215 C1216 1.524 . S
C1216 C1215 1.524 . S
C1216 C1217 1.397 . S
C1216 C1221 1.363 . S
C1217 H1188 0.950 . S
C1217 C1216 1.397 . S
C1217 C1218 1.334 . S
C1218 H1189 0.950 . S
C1218 C1217 1.334 . S
C1218 C1219 1.287 . S
C1219 C1218 1.287 . S
C1219 C1220 1.524 . S
C1219 H1222 0.999 . S
C1220 H1190 0.950 . S
C1220 C1219 1.524 . S
C1220 C1221 1.415 . S
C1221 H1191 0.950 . S
C1221 C1216 1.363 . S
C1221 C1220 1.415 . S
H1222 C1219 0.999 . S
H1223 C1204 0.913 . S
H1224 C1242 0.951 . S
H1225 C1244 0.951 . S
H1226 C1246 0.950 . S
H1227 C1247 0.950 . S
H1228 C1249 0.950 . S
H1229 C1252 0.950 . S
H1230 C1253 0.950 . S
H1231 C1255 0.950 . S
H1232 C1256 0.950 . S
H1233 C1257 0.951 . S
H1234 C1259 0.951 . S
H1235 C1261 0.950 . S
H1236 C1262 0.950 . S
H1237 C1264 0.950 . S
H1238 C1267 0.950 . S
H1239 C1268 0.950 . S
H1240 C1270 0.950 . S
H1241 C1271 0.950 . S
C1242 H1224 0.951 . S
C1242 C1243 1.366 . S
C1242 C1244 1.388 . S
C1243 C1242 1.366 . S
C1243 C1247 1.385 . S
C1244 H1225 0.951 . S
C1244 C1242 1.388 . S
C1244 C1245 1.366 . S
C1245 C1244 1.366 . S
C1245 C1246 1.414 . S
C1245 C1248 1.499 . S
C1246 H1226 0.950 . S
C1246 C1245 1.414 . S
C1246 C1247 1.374 . S
C1247 H1227 0.950 . S
C1247 C1243 1.385 . S
C1247 C1246 1.374 . S
C1248 C1245 1.499 . S
C1248 C1249 1.373 . S
C1248 C1250 1.389 . S
C1249 H1228 0.950 . S
C1249 C1248 1.373 . S
C1249 C1265 1.377 . S
C1250 C1248 1.389 . S
C1250 C1251 1.524 . S
C1250 C1264 1.377 . S
C1251 C1250 1.524 . S
C1251 C1252 1.397 . S
C1251 C1256 1.363 . S
C1252 H1229 0.950 . S
C1252 C1251 1.397 . S
C1252 C1253 1.334 . S
C1253 H1230 0.950 . S
C1253 C1252 1.334 . S
C1253 C1254 1.287 . S
C1254 C1253 1.287 . S
C1254 C1255 1.524 . S
C1254 H1273 0.913 . S
C1255 H1231 0.950 . S
C1255 C1254 1.524 . S
C1255 C1256 1.415 . S
C1256 H1232 0.950 . S
C1256 C1251 1.363 . S
C1256 C1255 1.415 . S
C1257 H1233 0.951 . S
C1257 C1258 1.366 . S
C1257 C1259 1.388 . S
C1258 C1257 1.366 . S
C1258 C1262 1.385 . S
C1259 H1234 0.951 . S
C1259 C1257 1.388 . S
C1259 C1260 1.366 . S
C1260 C1259 1.366 . S
C1260 C1261 1.414 . S
C1260 C1263 1.499 . S
C1261 H1235 0.950 . S
C1261 C1260 1.414 . S
C1261 C1262 1.374 . S
C1262 H1236 0.950 . S
C1262 C1258 1.385 . S
C1262 C1261 1.374 . S
C1263 C1260 1.499 . S
C1263 C1264 1.373 . S
C1263 C1265 1.389 . S
C1264 H1237 0.950 . S
C1264 C1250 1.377 . S
C1264 C1263 1.373 . S
C1265 C1249 1.377 . S
C1265 C1263 1.389 . S
C1265 C1266 1.524 . S
C1266 C1265 1.524 . S
C1266 C1267 1.397 . S
C1266 C1271 1.363 . S
C1267 H1238 0.950 . S
C1267 C1266 1.397 . S
C1267 C1268 1.334 . S
C1268 H1239 0.950 . S
C1268 C1267 1.334 . S
C1268 C1269 1.287 . S
C1269 C1268 1.287 . S
C1269 C1270 1.524 . S
C1269 H1272 0.999 . S
C1270 H1240 0.950 . S
C1270 C1269 1.524 . S
C1270 C1271 1.415 . S
C1271 H1241 0.950 . S
C1271 C1266 1.363 . S
C1271 C1270 1.415 . S
H1272 C1269 0.999 . S
H1273 C1254 0.913 . S
H1274 C1292 0.951 . S
H1275 C1294 0.951 . S
H1276 C1296 0.950 . S
H1277 C1297 0.950 . S
H1278 C1299 0.950 . S
H1279 C1302 0.950 . S
H1280 C1303 0.950 . S
H1281 C1305 0.950 . S
H1282 C1306 0.950 . S
H1283 C1307 0.951 . S
H1284 C1309 0.951 . S
H1285 C1311 0.950 . S
H1286 C1312 0.950 . S
H1287 C1314 0.950 . S
H1288 C1317 0.950 . S
H1289 C1318 0.950 . S
H1290 C1320 0.950 . S
H1291 C1321 0.950 . S
C1292 H1274 0.951 . S
C1292 C1293 1.366 . S
C1292 C1294 1.388 . S
C1293 C1292 1.366 . S
C1293 C1297 1.385 . S
C1294 H1275 0.951 . S
C1294 C1292 1.388 . S
C1294 C1295 1.366 . S
C1295 C1294 1.366 . S
C1295 C1296 1.414 . S
C1295 C1298 1.499 . S
C1296 H1276 0.950 . S
C1296 C1295 1.414 . S
C1296 C1297 1.374 . S
C1297 H1277 0.950 . S
C1297 C1293 1.385 . S
C1297 C1296 1.374 . S
C1298 C1295 1.499 . S
C1298 C1299 1.373 . S
C1298 C1300 1.389 . S
C1299 H1278 0.950 . S
C1299 C1298 1.373 . S
C1299 C1315 1.377 . S
C1300 C1298 1.389 . S
C1300 C1301 1.524 . S
C1300 C1314 1.377 . S
C1301 C1300 1.524 . S
C1301 C1302 1.397 . S
C1301 C1306 1.363 . S
C1302 H1279 0.950 . S
C1302 C1301 1.397 . S
C1302 C1303 1.334 . S
C1303 H1280 0.950 . S
C1303 C1302 1.334 . S
C1303 C1304 1.287 . S
C1304 C1303 1.287 . S
C1304 C1305 1.524 . S
C1304 H1323 0.913 . S
C1305 H1281 0.950 . S
C1305 C1304 1.524 . S
C1305 C1306 1.415 . S
C1306 H1282 0.950 . S
C1306 C1301 1.363 . S
C1306 C1305 1.415 . S
C1307 H1283 0.951 . S
C1307 C1308 1.366 . S
C1307 C1309 1.388 . S
C1308 C1307 1.366 . S
C1308 C1312 1.385 . S
C1309 H1284 0.951 . S
C1309 C1307 1.388 . S
C1309 C1310 1.366 . S
C1310 C1309 1.366 . S
C1310 C1311 1.414 . S
C1310 C1313 1.499 . S
C1311 H1285 0.950 . S
C1311 C1310 1.414 . S
C1311 C1312 1.374 . S
C1312 H1286 0.950 . S
C1312 C1308 1.385 . S
C1312 C1311 1.374 . S
C1313 C1310 1.499 . S
C1313 C1314 1.373 . S
C1313 C1315 1.389 . S
C1314 H1287 0.950 . S
C1314 C1300 1.377 . S
C1314 C1313 1.373 . S
C1315 C1299 1.377 . S
C1315 C1313 1.389 . S
C1315 C1316 1.524 . S
C1316 C1315 1.524 . S
C1316 C1317 1.397 . S
C1316 C1321 1.363 . S
C1317 H1288 0.950 . S
C1317 C1316 1.397 . S
C1317 C1318 1.334 . S
C1318 H1289 0.950 . S
C1318 C1317 1.334 . S
C1318 C1319 1.287 . S
C1319 C1318 1.287 . S
C1319 C1320 1.524 . S
C1319 H1322 0.999 . S
C1320 H1290 0.950 . S
C1320 C1319 1.524 . S
C1320 C1321 1.415 . S
C1321 H1291 0.950 . S
C1321 C1316 1.363 . S
C1321 C1320 1.415 . S
H1322 C1319 0.999 . S
H1323 C1304 0.913 . S
H1324 C1342 0.951 . S
H1325 C1344 0.951 . S
H1326 C1346 0.950 . S
H1327 C1347 0.950 . S
H1328 C1349 0.950 . S
H1329 C1352 0.950 . S
H1330 C1353 0.950 . S
H1331 C1355 0.950 . S
H1332 C1356 0.950 . S
H1333 C1357 0.951 . S
H1334 C1359 0.951 . S
H1335 C1361 0.950 . S
H1336 C1362 0.950 . S
H1337 C1364 0.950 . S
H1338 C1367 0.950 . S
H1339 C1368 0.950 . S
H1340 C1370 0.950 . S
H1341 C1371 0.950 . S
C1342 H1324 0.951 . S
C1342 C1343 1.366 . S
C1342 C1344 1.388 . S
C1343 C1342 1.366 . S
C1343 C1347 1.385 . S
C1344 H1325 0.951 . S
C1344 C1342 1.388 . S
C1344 C1345 1.366 . S
C1345 C1344 1.366 . S
C1345 C1346 1.414 . S
C1345 C1348 1.499 . S
C1346 H1326 0.950 . S
C1346 C1345 1.414 . S
C1346 C1347 1.374 . S
C1347 H1327 0.950 . S
C1347 C1343 1.385 . S
C1347 C1346 1.374 . S
C1348 C1345 1.499 . S
C1348 C1349 1.373 . S
C1348 C1350 1.389 . S
C1349 H1328 0.950 . S
C1349 C1348 1.373 . S
C1349 C1365 1.377 . S
C1350 C1348 1.389 . S
C1350 C1351 1.524 . S
C1350 C1364 1.377 . S
C1351 C1350 1.524 . S
C1351 C1352 1.397 . S
C1351 C1356 1.363 . S
C1352 H1329 0.950 . S
C1352 C1351 1.397 . S
C1352 C1353 1.334 . S
C1353 H1330 0.950 . S
C1353 C1352 1.334 . S
C1353 C1354 1.287 . S
C1354 C1353 1.287 . S
C1354 C1355 1.524 . S
C1354 H1373 0.913 . S
C1355 H1331 0.950 . S
C1355 C1354 1.524 . S
C1355 C1356 1.415 . S
C1356 H1332 0.950 . S
C1356 C1351 1.363 . S
C1356 C1355 1.415 . S
C1357 H1333 0.951 . S
C1357 C1358 1.366 . S
C1357 C1359 1.388 . S
C1358 C1357 1.366 . S
C1358 C1362 1.385 . S
C1359 H1334 0.951 . S
C1359 C1357 1.388 . S
C1359 C1360 1.366 . S
C1360 C1359 1.366 . S
C1360 C1361 1.414 . S
C1360 C1363 1.499 . S
C1361 H1335 0.950 . S
C1361 C1360 1.414 . S
C1361 C1362 1.374 . S
C1362 H1336 0.950 . S
C1362 C1358 1.385 . S
C1362 C1361 1.374 . S
C1363 C1360 1.499 . S
C1363 C1364 1.373 . S
C1363 C1365 1.389 . S
C1364 H1337 0.950 . S
C1364 C1350 1.377 . S
C1364 C1363 1.373 . S
C1365 C1349 1.377 . S
C1365 C1363 1.389 . S
C1365 C1366 1.524 . S
C1366 C1365 1.524 . S
C1366 C1367 1.397 . S
C1366 C1371 1.363 . S
C1367 H1338 0.950 . S
C1367 C1366 1.397 . S
C1367 C1368 1.334 . S
C1368 H1339 0.950 . S
C1368 C1367 1.334 . S
C1368 C1369 1.287 . S
C1369 C1368 1.287 . S
C1369 C1370 1.524 . S
C1369 H1372 0.999 . S
C1370 H1340 0.950 . S
C1370 C1369 1.524 . S
C1370 C1371 1.415 . S
C1371 H1341 0.950 . S
C1371 C1366 1.363 . S
C1371 C1370 1.415 . S
H1372 C1369 0.999 . S
H1373 C1354 0.913 . S
H1374 C1392 0.951 . S
H1375 C1394 0.951 . S
H1376 C1396 0.950 . S
H1377 C1397 0.950 . S
H1378 C1399 0.950 . S
H1379 C1402 0.950 . S
H1380 C1403 0.950 . S
H1381 C1405 0.950 . S
H1382 C1406 0.950 . S
H1383 C1407 0.951 . S
H1384 C1409 0.951 . S
H1385 C1411 0.950 . S
H1386 C1412 0.950 1_455 S
H1387 C1414 0.950 . S
H1388 C1417 0.950 . S
H1389 C1418 0.950 . S
H1390 C1420 0.950 . S
H1391 C1421 0.950 . S
C1392 H1374 0.951 . S
C1392 C1393 1.366 . S
C1392 C1394 1.388 . S
C1393 C1392 1.366 . S
C1393 C1397 1.385 . S
C1394 H1375 0.951 . S
C1394 C1392 1.388 . S
C1394 C1395 1.366 . S
C1395 C1394 1.366 . S
C1395 C1396 1.414 . S
C1395 C1398 1.499 . S
C1396 H1376 0.950 . S
C1396 C1395 1.414 . S
C1396 C1397 1.374 . S
C1397 H1377 0.950 . S
C1397 C1393 1.385 . S
C1397 C1396 1.374 . S
C1398 C1395 1.499 . S
C1398 C1399 1.373 . S
C1398 C1400 1.389 . S
C1399 H1378 0.950 . S
C1399 C1398 1.373 . S
C1399 C1415 1.377 . S
C1400 C1398 1.389 . S
C1400 C1401 1.524 . S
C1400 C1414 1.377 . S
C1401 C1400 1.524 . S
C1401 C1402 1.397 . S
C1401 C1406 1.363 . S
C1402 H1379 0.950 . S
C1402 C1401 1.397 . S
C1402 C1403 1.334 . S
C1403 H1380 0.950 . S
C1403 C1402 1.334 . S
C1403 C1404 1.287 . S
C1404 C1403 1.287 . S
C1404 C1405 1.524 . S
C1404 H1423 0.913 . S
C1405 H1381 0.950 . S
C1405 C1404 1.524 . S
C1405 C1406 1.415 . S
C1406 H1382 0.950 . S
C1406 C1401 1.363 . S
C1406 C1405 1.415 . S
C1407 H1383 0.951 . S
C1407 C1408 1.366 . S
C1407 C1409 1.388 . S
C1408 C1407 1.366 . S
C1408 C1412 1.385 . S
C1409 H1384 0.951 . S
C1409 C1407 1.388 . S
C1409 C1410 1.366 . S
C1410 C1409 1.366 . S
C1410 C1411 1.414 . S
C1410 C1413 1.499 . S
C1411 H1385 0.950 . S
C1411 C1410 1.414 . S
C1411 C1412 1.374 . S
C1412 H1386 0.950 1_655 S
C1412 C1408 1.385 . S
C1412 C1411 1.374 . S
C1413 C1410 1.499 . S
C1413 C1414 1.373 . S
C1413 C1415 1.389 . S
C1414 H1387 0.950 . S
C1414 C1400 1.377 . S
C1414 C1413 1.373 . S
C1415 C1399 1.377 . S
C1415 C1413 1.389 . S
C1415 C1416 1.524 . S
C1416 C1415 1.524 . S
C1416 C1417 1.397 . S
C1416 C1421 1.363 . S
C1417 H1388 0.950 . S
C1417 C1416 1.397 . S
C1417 C1418 1.334 . S
C1418 H1389 0.950 . S
C1418 C1417 1.334 . S
C1418 C1419 1.287 . S
C1419 C1418 1.287 . S
C1419 C1420 1.524 . S
C1419 H1422 0.999 . S
C1420 H1390 0.950 . S
C1420 C1419 1.524 . S
C1420 C1421 1.415 . S
C1421 H1391 0.950 . S
C1421 C1416 1.363 . S
C1421 C1420 1.415 . S
H1422 C1419 0.999 . S
H1423 C1404 0.913 . S
H1424 C1442 0.951 . S
H1425 C1444 0.951 . S
H1426 C1446 0.950 . S
H1427 C1447 0.950 . S
H1428 C1449 0.950 . S
H1429 C1452 0.950 . S
H1430 C1453 0.950 . S
H1431 C1455 0.950 . S
H1432 C1456 0.950 . S
H1433 C1457 0.951 . S
H1434 C1459 0.951 . S
H1435 C1461 0.950 . S
H1436 C1462 0.950 . S
H1437 C1464 0.950 . S
H1438 C1467 0.950 . S
H1439 C1468 0.950 . S
H1440 C1470 0.950 . S
H1441 C1471 0.950 . S
C1442 H1424 0.951 . S
C1442 C1443 1.366 . S
C1442 C1444 1.388 . S
C1443 C1442 1.366 . S
C1443 C1447 1.385 . S
C1444 H1425 0.951 . S
C1444 C1442 1.388 . S
C1444 C1445 1.366 . S
C1445 C1444 1.366 . S
C1445 C1446 1.414 . S
C1445 C1448 1.499 . S
C1446 H1426 0.950 . S
C1446 C1445 1.414 . S
C1446 C1447 1.374 . S
C1447 H1427 0.950 . S
C1447 C1443 1.385 . S
C1447 C1446 1.374 . S
C1448 C1445 1.499 . S
C1448 C1449 1.373 . S
C1448 C1450 1.389 . S
C1449 H1428 0.950 . S
C1449 C1448 1.373 . S
C1449 C1465 1.377 . S
C1450 C1448 1.389 . S
C1450 C1451 1.524 . S
C1450 C1464 1.377 . S
C1451 C1450 1.524 . S
C1451 C1452 1.397 . S
C1451 C1456 1.363 . S
C1452 H1429 0.950 . S
C1452 C1451 1.397 . S
C1452 C1453 1.334 . S
C1453 H1430 0.950 . S
C1453 C1452 1.334 . S
C1453 C1454 1.287 . S
C1454 C1453 1.287 . S
C1454 C1455 1.524 . S
C1454 H1473 0.913 . S
C1455 H1431 0.950 . S
C1455 C1454 1.524 . S
C1455 C1456 1.415 . S
C1456 H1432 0.950 . S
C1456 C1451 1.363 . S
C1456 C1455 1.415 . S
C1457 H1433 0.951 . S
C1457 C1458 1.366 . S
C1457 C1459 1.388 . S
C1458 C1457 1.366 . S
C1458 C1462 1.385 . S
C1459 H1434 0.951 . S
C1459 C1457 1.388 . S
C1459 C1460 1.366 . S
C1460 C1459 1.366 . S
C1460 C1461 1.414 . S
C1460 C1463 1.499 . S
C1461 H1435 0.950 . S
C1461 C1460 1.414 . S
C1461 C1462 1.374 . S
C1462 H1436 0.950 . S
C1462 C1458 1.385 . S
C1462 C1461 1.374 . S
C1463 C1460 1.499 . S
C1463 C1464 1.373 . S
C1463 C1465 1.389 . S
C1464 H1437 0.950 . S
C1464 C1450 1.377 . S
C1464 C1463 1.373 . S
C1465 C1449 1.377 . S
C1465 C1463 1.389 . S
C1465 C1466 1.524 . S
C1466 C1465 1.524 . S
C1466 C1467 1.397 . S
C1466 C1471 1.363 . S
C1467 H1438 0.950 . S
C1467 C1466 1.397 . S
C1467 C1468 1.334 1_655 S
C1468 H1439 0.950 . S
C1468 C1467 1.334 1_455 S
C1468 C1469 1.287 . S
C1469 C1468 1.287 . S
C1469 C1470 1.524 1_455 S
C1469 H1472 0.999 . S
C1470 H1440 0.950 . S
C1470 C1469 1.524 1_655 S
C1470 C1471 1.415 . S
C1471 H1441 0.950 . S
C1471 C1466 1.363 . S
C1471 C1470 1.415 . S
H1472 C1469 0.999 . S
H1473 C1454 0.913 . S
H1474 C1492 0.951 . S
H1475 C1494 0.951 . S
H1476 C1496 0.950 . S
H1477 C1497 0.950 . S
H1478 C1499 0.950 . S
H1479 C1502 0.950 . S
H1480 C1503 0.950 . S
H1481 C1505 0.950 . S
H1482 C1506 0.950 . S
H1483 C1507 0.951 . S
H1484 C1509 0.951 . S
H1485 C1511 0.950 . S
H1486 C1512 0.950 . S
H1487 C1514 0.950 . S
H1488 C1517 0.950 . S
H1489 C1518 0.950 . S
H1490 C1520 0.950 . S
H1491 C1521 0.950 . S
C1492 H1474 0.951 . S
C1492 C1493 1.366 . S
C1492 C1494 1.388 . S
C1493 C1492 1.366 . S
C1493 C1497 1.385 . S
C1494 H1475 0.951 . S
C1494 C1492 1.388 . S
C1494 C1495 1.366 . S
C1495 C1494 1.366 . S
C1495 C1496 1.414 . S
C1495 C1498 1.499 . S
C1496 H1476 0.950 . S
C1496 C1495 1.414 . S
C1496 C1497 1.374 . S
C1497 H1477 0.950 . S
C1497 C1493 1.385 . S
C1497 C1496 1.374 . S
C1498 C1495 1.499 . S
C1498 C1499 1.373 . S
C1498 C1500 1.389 . S
C1499 H1478 0.950 . S
C1499 C1498 1.373 . S
C1499 C1515 1.377 . S
C1500 C1498 1.389 . S
C1500 C1501 1.524 . S
C1500 C1514 1.377 . S
C1501 C1500 1.524 . S
C1501 C1502 1.397 . S
C1501 C1506 1.363 . S
C1502 H1479 0.950 . S
C1502 C1501 1.397 . S
C1502 C1503 1.334 . S
C1503 H1480 0.950 . S
C1503 C1502 1.334 . S
C1503 C1504 1.287 . S
C1504 C1503 1.287 . S
C1504 C1505 1.524 . S
C1504 H1523 0.913 . S
C1505 H1481 0.950 . S
C1505 C1504 1.524 . S
C1505 C1506 1.415 . S
C1506 H1482 0.950 . S
C1506 C1501 1.363 . S
C1506 C1505 1.415 . S
C1507 H1483 0.951 . S
C1507 C1508 1.366 . S
C1507 C1509 1.388 . S
C1508 C1507 1.366 . S
C1508 C1512 1.385 . S
C1509 H1484 0.951 . S
C1509 C1507 1.388 . S
C1509 C1510 1.366 . S
C1510 C1509 1.366 . S
C1510 C1511 1.414 . S
C1510 C1513 1.499 . S
C1511 H1485 0.950 . S
C1511 C1510 1.414 . S
C1511 C1512 1.374 . S
C1512 H1486 0.950 . S
C1512 C1508 1.385 . S
C1512 C1511 1.374 . S
C1513 C1510 1.499 . S
C1513 C1514 1.373 . S
C1513 C1515 1.389 . S
C1514 H1487 0.950 . S
C1514 C1500 1.377 . S
C1514 C1513 1.373 . S
C1515 C1499 1.377 . S
C1515 C1513 1.389 . S
C1515 C1516 1.524 . S
C1516 C1515 1.524 . S
C1516 C1517 1.397 . S
C1516 C1521 1.363 . S
C1517 H1488 0.950 . S
C1517 C1516 1.397 . S
C1517 C1518 1.334 . S
C1518 H1489 0.950 . S
C1518 C1517 1.334 . S
C1518 C1519 1.287 . S
C1519 C1518 1.287 . S
C1519 C1520 1.524 . S
C1519 H1522 0.999 . S
C1520 H1490 0.950 . S
C1520 C1519 1.524 . S
C1520 C1521 1.415 . S
C1521 H1491 0.950 . S
C1521 C1516 1.363 . S
C1521 C1520 1.415 . S
H1522 C1519 0.999 . S
H1523 C1504 0.913 . S
H1524 C1542 0.951 . S
H1525 C1544 0.951 . S
H1526 C1546 0.950 . S
H1527 C1547 0.950 . S
H1528 C1549 0.950 . S
H1529 C1552 0.950 . S
H1530 C1553 0.950 . S
H1531 C1555 0.950 . S
H1532 C1556 0.950 . S
H1533 C1557 0.951 . S
H1534 C1559 0.951 . S
H1535 C1561 0.950 . S
H1536 C1562 0.950 . S
H1537 C1564 0.950 . S
H1538 C1567 0.950 . S
H1539 C1568 0.950 . S
H1540 C1570 0.950 . S
H1541 C1571 0.950 . S
C1542 H1524 0.951 . S
C1542 C1543 1.366 . S
C1542 C1544 1.388 . S
C1543 C1542 1.366 . S
C1543 C1547 1.385 . S
C1544 H1525 0.951 . S
C1544 C1542 1.388 . S
C1544 C1545 1.366 . S
C1545 C1544 1.366 . S
C1545 C1546 1.414 . S
C1545 C1548 1.499 . S
C1546 H1526 0.950 . S
C1546 C1545 1.414 . S
C1546 C1547 1.374 . S
C1547 H1527 0.950 . S
C1547 C1543 1.385 . S
C1547 C1546 1.374 . S
C1548 C1545 1.499 . S
C1548 C1549 1.373 . S
C1548 C1550 1.389 . S
C1549 H1528 0.950 . S
C1549 C1548 1.373 . S
C1549 C1565 1.377 . S
C1550 C1548 1.389 . S
C1550 C1551 1.524 . S
C1550 C1564 1.377 . S
C1551 C1550 1.524 . S
C1551 C1552 1.397 . S
C1551 C1556 1.363 . S
C1552 H1529 0.950 . S
C1552 C1551 1.397 . S
C1552 C1553 1.334 . S
C1553 H1530 0.950 . S
C1553 C1552 1.334 . S
C1553 C1554 1.287 . S
C1554 C1553 1.287 . S
C1554 C1555 1.524 . S
C1554 H1573 0.913 . S
C1555 H1531 0.950 . S
C1555 C1554 1.524 . S
C1555 C1556 1.415 . S
C1556 H1532 0.950 . S
C1556 C1551 1.363 . S
C1556 C1555 1.415 . S
C1557 H1533 0.951 . S
C1557 C1558 1.366 . S
C1557 C1559 1.388 . S
C1558 C1557 1.366 . S
C1558 C1562 1.385 . S
C1559 H1534 0.951 . S
C1559 C1557 1.388 . S
C1559 C1560 1.366 . S
C1560 C1559 1.366 . S
C1560 C1561 1.414 . S
C1560 C1563 1.499 . S
C1561 H1535 0.950 . S
C1561 C1560 1.414 . S
C1561 C1562 1.374 . S
C1562 H1536 0.950 . S
C1562 C1558 1.385 . S
C1562 C1561 1.374 . S
C1563 C1560 1.499 . S
C1563 C1564 1.373 . S
C1563 C1565 1.389 . S
C1564 H1537 0.950 . S
C1564 C1550 1.377 . S
C1564 C1563 1.373 . S
C1565 C1549 1.377 . S
C1565 C1563 1.389 . S
C1565 C1566 1.524 . S
C1566 C1565 1.524 . S
C1566 C1567 1.397 . S
C1566 C1571 1.363 . S
C1567 H1538 0.950 . S
C1567 C1566 1.397 . S
C1567 C1568 1.334 . S
C1568 H1539 0.950 . S
C1568 C1567 1.334 . S
C1568 C1569 1.287 . S
C1569 C1568 1.287 . S
C1569 C1570 1.524 . S
C1569 H1572 0.999 . S
C1570 H1540 0.950 . S
C1570 C1569 1.524 . S
C1570 C1571 1.415 . S
C1571 H1541 0.950 . S
C1571 C1566 1.363 . S
C1571 C1570 1.415 . S
H1572 C1569 0.999 . S
H1573 C1554 0.913 . S
H1574 C1592 0.951 . S
H1575 C1594 0.951 . S
H1576 C1596 0.950 . S
H1577 C1597 0.950 . S
H1578 C1599 0.950 . S
H1579 C1602 0.950 . S
H1580 C1603 0.950 . S
H1581 C1605 0.950 . S
H1582 C1606 0.950 . S
H1583 C1607 0.951 . S
H1584 C1609 0.951 . S
H1585 C1611 0.950 . S
H1586 C1612 0.950 . S
H1587 C1614 0.950 . S
H1588 C1617 0.950 . S
H1589 C1618 0.950 . S
H1590 C1620 0.950 . S
H1591 C1621 0.950 . S
C1592 H1574 0.951 . S
C1592 C1593 1.366 . S
C1592 C1594 1.388 . S
C1593 C1592 1.366 . S
C1593 C1597 1.385 . S
C1594 H1575 0.951 . S
C1594 C1592 1.388 . S
C1594 C1595 1.366 . S
C1595 C1594 1.366 . S
C1595 C1596 1.414 . S
C1595 C1598 1.499 . S
C1596 H1576 0.950 . S
C1596 C1595 1.414 . S
C1596 C1597 1.374 . S
C1597 H1577 0.950 . S
C1597 C1593 1.385 . S
C1597 C1596 1.374 . S
C1598 C1595 1.499 . S
C1598 C1599 1.373 . S
C1598 C1600 1.389 . S
C1599 H1578 0.950 . S
C1599 C1598 1.373 . S
C1599 C1615 1.377 . S
C1600 C1598 1.389 . S
C1600 C1601 1.524 . S
C1600 C1614 1.377 . S
C1601 C1600 1.524 . S
C1601 C1602 1.397 . S
C1601 C1606 1.363 . S
C1602 H1579 0.950 . S
C1602 C1601 1.397 . S
C1602 C1603 1.334 . S
C1603 H1580 0.950 . S
C1603 C1602 1.334 . S
C1603 C1604 1.287 . S
C1604 C1603 1.287 . S
C1604 C1605 1.524 . S
C1604 H1623 0.913 . S
C1605 H1581 0.950 . S
C1605 C1604 1.524 . S
C1605 C1606 1.415 . S
C1606 H1582 0.950 . S
C1606 C1601 1.363 . S
C1606 C1605 1.415 . S
C1607 H1583 0.951 . S
C1607 C1608 1.366 . S
C1607 C1609 1.388 . S
C1608 C1607 1.366 . S
C1608 C1612 1.385 . S
C1609 H1584 0.951 . S
C1609 C1607 1.388 . S
C1609 C1610 1.366 . S
C1610 C1609 1.366 . S
C1610 C1611 1.414 . S
C1610 C1613 1.499 . S
C1611 H1585 0.950 . S
C1611 C1610 1.414 . S
C1611 C1612 1.374 . S
C1612 H1586 0.950 . S
C1612 C1608 1.385 . S
C1612 C1611 1.374 . S
C1613 C1610 1.499 . S
C1613 C1614 1.373 . S
C1613 C1615 1.389 . S
C1614 H1587 0.950 . S
C1614 C1600 1.377 . S
C1614 C1613 1.373 . S
C1615 C1599 1.377 . S
C1615 C1613 1.389 . S
C1615 C1616 1.524 . S
C1616 C1615 1.524 . S
C1616 C1617 1.397 . S
C1616 C1621 1.363 . S
C1617 H1588 0.950 . S
C1617 C1616 1.397 . S
C1617 C1618 1.334 . S
C1618 H1589 0.950 . S
C1618 C1617 1.334 . S
C1618 C1619 1.287 . S
C1619 C1618 1.287 . S
C1619 C1620 1.524 . S
C1619 H1622 0.999 . S
C1620 H1590 0.950 . S
C1620 C1619 1.524 . S
C1620 C1621 1.415 . S
C1621 H1591 0.950 . S
C1621 C1616 1.363 . S
C1621 C1620 1.415 . S
H1622 C1619 0.999 . S
H1623 C1604 0.913 . S
C443 C71 1.681 . S
C458 C144 1.662 . S
C508 C228 1.631 . S
C493 C81 1.648 . S
C558 C227 1.671 . S
C543 C49 1.670 . S
C593 C59 1.639 . S
C608 C143 1.640 . S
C658 C324 1.663 . S
C643 C27 1.678 . S
C708 C408 1.707 . S
C693 C38 1.724 . S
C743 C5 1.667 . S
C758 C407 1.670 . S
C793 C16 1.714 . S
C808 C323 1.719 . S
C858 C146 1.414 . S
C843 C15 1.573 . S
C908 C230 1.428 . S
C893 C4 1.586 . S
C958 C242 1.389 . S
C943 C37 1.586 . S
C1008 C158 1.396 . S
C993 C26 1.598 . S
C1058 C326 1.480 . S
C1043 C60 1.629 . S
C1093 C48 1.663 . S
C1108 C410 1.498 . S
C1158 C398 1.445 . S
C1143 C82 1.641 . S
C1193 C70 1.675 . S
C1208 C314 1.461 . S
C1258 C155 1.513 . S
C1243 C10 1.504 . S
C1308 C239 1.572 . S
C1293 C21 1.564 . S
C1343 C32 1.497 . S
C1358 C240 1.481 . S
C1408 C156 1.538 . S
C1393 C43 1.557 . S
C1458 C311 1.624 . S
C1443 C54 1.610 . S
C1493 C65 1.565 . S
C1508 C395 1.563 . S
C1543 C76 1.608 . S
C1558 C396 1.596 . S
C1593 C87 1.557 . S
C1608 C312 1.531 . S
