# Generated by pormake.
# Topology nom, (4,4)-cn, num edge types: 1
# Building blocks:
#     Node 0, Type 0, BuildingBlock: KUFVIS_clean_linker_0, # of connection points: 4
#     Node 1, Type 0, BuildingBlock: KUFVIS_clean_linker_0, # of connection points: 4
#     Node 2, Type 0, BuildingBlock: KUFVIS_clean_linker_0, # of connection points: 4
#     Node 3, Type 0, BuildingBlock: KUFVIS_clean_linker_0, # of connection points: 4
#     Node 4, Type 0, BuildingBlock: KUFVIS_clean_linker_0, # of connection points: 4
#     Node 5, Type 0, BuildingBlock: KUFVIS_clean_linker_0, # of connection points: 4
#     Node 6, Type 1, BuildingBlock: NAHDIM_clean_sbu_0, # of connection points: 4
#     Node 7, Type 1, BuildingBlock: NAHDIM_clean_sbu_0, # of connection points: 4
#     Node 8, Type 1, BuildingBlock: NAHDIM_clean_sbu_0, # of connection points: 4
#     Node 9, Type 1, BuildingBlock: NAHDIM_clean_sbu_0, # of connection points: 4
#     Node 10, Type 1, BuildingBlock: NAHDIM_clean_sbu_0, # of connection points: 4
#     Node 11, Type 1, BuildingBlock: NAHDIM_clean_sbu_0, # of connection points: 4
#     Edge 12, Type (0, 1), BuildingBlock: TEMPAE_clean_linker_10, # of connection points: 2
#     Edge 13, Type (0, 1), BuildingBlock: TEMPAE_clean_linker_10, # of connection points: 2
#     Edge 14, Type (0, 1), BuildingBlock: TEMPAE_clean_linker_10, # of connection points: 2
#     Edge 15, Type (0, 1), BuildingBlock: TEMPAE_clean_linker_10, # of connection points: 2
#     Edge 16, Type (0, 1), BuildingBlock: TEMPAE_clean_linker_10, # of connection points: 2
#     Edge 17, Type (0, 1), BuildingBlock: TEMPAE_clean_linker_10, # of connection points: 2
#     Edge 18, Type (0, 1), BuildingBlock: TEMPAE_clean_linker_10, # of connection points: 2
#     Edge 19, Type (0, 1), BuildingBlock: TEMPAE_clean_linker_10, # of connection points: 2
#     Edge 20, Type (0, 1), BuildingBlock: TEMPAE_clean_linker_10, # of connection points: 2
#     Edge 21, Type (0, 1), BuildingBlock: TEMPAE_clean_linker_10, # of connection points: 2
#     Edge 22, Type (0, 1), BuildingBlock: TEMPAE_clean_linker_10, # of connection points: 2
#     Edge 23, Type (0, 1), BuildingBlock: TEMPAE_clean_linker_10, # of connection points: 2
#     Edge 24, Type (0, 1), BuildingBlock: TEMPAE_clean_linker_10, # of connection points: 2
#     Edge 25, Type (0, 1), BuildingBlock: TEMPAE_clean_linker_10, # of connection points: 2
#     Edge 26, Type (0, 1), BuildingBlock: TEMPAE_clean_linker_10, # of connection points: 2
#     Edge 27, Type (0, 1), BuildingBlock: TEMPAE_clean_linker_10, # of connection points: 2
#     Edge 28, Type (0, 1), BuildingBlock: TEMPAE_clean_linker_10, # of connection points: 2
#     Edge 29, Type (0, 1), BuildingBlock: TEMPAE_clean_linker_10, # of connection points: 2
#     Edge 30, Type (0, 1), BuildingBlock: TEMPAE_clean_linker_10, # of connection points: 2
#     Edge 31, Type (0, 1), BuildingBlock: TEMPAE_clean_linker_10, # of connection points: 2
#     Edge 32, Type (0, 1), BuildingBlock: TEMPAE_clean_linker_10, # of connection points: 2
#     Edge 33, Type (0, 1), BuildingBlock: TEMPAE_clean_linker_10, # of connection points: 2
#     Edge 34, Type (0, 1), BuildingBlock: TEMPAE_clean_linker_10, # of connection points: 2
#     Edge 35, Type (0, 1), BuildingBlock: TEMPAE_clean_linker_10, # of connection points: 2
# Relax obj value: 0.021
# Max RMSD: 0.123
# Mean RMSD: 0.082
data_MOF--net-nom--node1-NAHDIM_clean_sbu_0--node2-KUFVIS_clean_linker_0--edge1-TEMPAE_clean_linker_10
_symmetry_space_group_name_H-M    P1
_symmetry_Int_Tables_number       1
_symmetry_cell_setting            triclinic
loop_
_symmetry_equiv_pos_as_xyz
'x, y, z'
_cell_length_a     45.703143
_cell_length_b     47.104237
_cell_length_c     47.129286
_cell_angle_alpha  89.99841
_cell_angle_beta   90.574851
_cell_angle_gamma 120.97631
loop_
_atom_site_label
_atom_site_type_symbol
_atom_site_fract_x
_atom_site_fract_y
_atom_site_fract_z
_atom_type_partial_charge
H0 H 0.12675 0.61708 0.32901 0.0
H1 H 0.05105 0.56974 0.26351 0.0
H2 H 0.02595 0.5401 0.35113 0.0
H3 H 0.97445 0.53164 0.33603 0.0
H4 H 0.90444 0.46235 0.27435 0.0
H5 H 0.01116 0.51561 0.25682 0.0
C6 C 0.10055 0.59948 0.32279 0.0
C7 C 0.07703 0.57982 0.34342 0.0
C8 C 0.09144 0.59551 0.29406 0.0
C9 C 0.0579 0.57197 0.2858 0.0
C10 C 0.03345 0.55196 0.30627 0.0
C11 C 0.04368 0.55584 0.33508 0.0
C12 C 0.9976 0.52678 0.29769 0.0
C13 C 0.96996 0.51896 0.31587 0.0
C14 C 0.93628 0.49499 0.30799 0.0
C15 C 0.93039 0.47947 0.28146 0.0
C16 C 0.95717 0.48705 0.26304 0.0
C17 C 0.99069 0.51048 0.27118 0.0
H18 H 0.55688 0.12769 0.50849 0.0
H19 H 0.49957 0.05276 0.4457 0.0
H20 H 0.51938 0.026 0.52856 0.0
H21 H 0.46372 0.98134 0.51867 0.0
H22 H 0.4405 0.90575 0.45688 0.0
H23 H 0.50772 0.00753 0.43481 0.0
C24 C 0.54322 0.1018 0.50215 0.0
C25 C 0.53989 0.07785 0.52144 0.0
C26 C 0.5287 0.09296 0.47498 0.0
C27 C 0.51099 0.05949 0.46672 0.0
C28 C 0.50707 0.03478 0.48604 0.0
C29 C 0.5216 0.04437 0.5135 0.0
C30 C 0.48804 0.99909 0.47773 0.0
C31 C 0.46708 0.97451 0.49753 0.0
C32 C 0.44986 0.94095 0.48984 0.0
C33 C 0.45383 0.93182 0.46267 0.0
C34 C 0.47464 0.95557 0.44286 0.0
C35 C 0.49137 0.98926 0.4502 0.0
H36 H 0.56763 0.45879 0.6185 0.0
H37 H 0.50504 0.47268 0.6772 0.0
H38 H 0.52569 0.51838 0.59424 0.0
H39 H 0.47293 0.5121 0.60232 0.0
H40 H 0.44956 0.56363 0.66465 0.0
H41 H 0.5112 0.52333 0.68867 0.0
C42 C 0.55276 0.47007 0.6237 0.0
C43 C 0.54801 0.48892 0.60336 0.0
C44 C 0.53748 0.46428 0.65024 0.0
C45 C 0.51721 0.47779 0.65671 0.0
C46 C 0.51303 0.49802 0.63682 0.0
C47 C 0.52826 0.50295 0.60991 0.0
C48 C 0.49429 0.51517 0.64451 0.0
C49 C 0.47546 0.52126 0.62382 0.0
C50 C 0.46011 0.53962 0.63081 0.0
C51 C 0.46258 0.55071 0.65874 0.0
C52 C 0.48073 0.54481 0.67952 0.0
C53 C 0.49649 0.527 0.67249 0.0
H54 H 0.1291 0.54008 0.7965 0.0
H55 H 0.04213 0.48699 0.84994 0.0
H56 H 0.02945 0.50794 0.76257 0.0
H57 H 0.9789 0.4576 0.76841 0.0
H58 H 0.89524 0.43993 0.82076 0.0
H59 H 0.99721 0.49594 0.85444 0.0
C60 C 0.10166 0.5275 0.79934 0.0
C61 C 0.0807 0.52513 0.77665 0.0
C62 C 0.08787 0.51388 0.82565 0.0
C63 C 0.05247 0.4977 0.82947 0.0
C64 C 0.0307 0.49513 0.80675 0.0
C65 C 0.04529 0.50887 0.78023 0.0
C66 C 0.99308 0.47915 0.81082 0.0
C67 C 0.96988 0.46126 0.78846 0.0
C68 C 0.93475 0.44784 0.792 0.0
C69 C 0.92258 0.45145 0.81796 0.0
C70 C 0.94484 0.46824 0.84065 0.0
C71 C 0.98008 0.48222 0.83699 0.0
H72 H 0.46316 0.90092 0.00216 0.0
H73 H 0.52391 0.98001 0.94492 0.0
H74 H 0.50305 1.00133 0.02919 0.0
H75 H 0.55911 0.04597 0.02217 0.0
H76 H 0.58527 0.1262 0.96519 0.0
H77 H 0.51724 0.02647 0.93669 0.0
C78 C 0.47737 0.92725 -0.00236 0.0
C79 C 0.48129 0.94991 0.01865 0.0
C80 C 0.49258 0.93796 0.9712 0.0
C81 C 0.51178 0.97194 0.96536 0.0
C82 C 0.5158 0.99533 0.9862 0.0
C83 C 0.50055 0.98392 0.01294 0.0
C84 C 0.53563 0.03152 0.98017 0.0
C85 C 0.55638 0.05444 0.00149 0.0
C86 C 0.57418 0.08849 -0.00405 0.0
C87 C 0.57121 0.09978 0.96935 0.0
C88 C 0.55083 0.07764 0.94796 0.0
C89 C 0.53332 0.04349 0.95326 0.0
H90 H 0.49749 0.60431 0.11591 0.0
H91 H 0.53524 0.56599 0.17988 0.0
H92 H 0.51344 0.52517 0.09459 0.0
H93 H 0.56066 0.52197 0.10414 0.0
H94 H 0.56785 0.45718 0.16373 0.0
H95 H 0.52301 0.51343 0.18963 0.0
C96 C 0.50622 0.58766 0.1221 0.0
C97 C 0.50539 0.56538 0.10221 0.0
C98 C 0.5162 0.58747 0.15021 0.0
C99 C 0.52685 0.56539 0.15821 0.0
C100 C 0.52712 0.54321 0.13805 0.0
C101 C 0.51526 0.54291 0.11019 0.0
C102 C 0.53927 0.52011 0.14565 0.0
C103 C 0.55538 0.51101 0.12505 0.0
C104 C 0.56484 0.48769 0.13127 0.0
C105 C 0.55933 0.47423 0.15846 0.0
C106 C 0.54503 0.48401 0.17955 0.0
C107 C 0.53478 0.50673 0.1732 0.0
C108 C 0.62601 0.32453 0.41414 0.0
O109 O 0.65314 0.34463 0.42943 0.0
O110 O 0.68683 0.40793 0.38983 0.0
Zn111 Zn 0.63571 0.38663 0.3951 0.0
O112 O 0.62662 0.40424 0.43067 0.0
C113 C 0.61697 0.39487 0.33718 0.0
O114 O 0.63607 0.38309 0.32892 0.0
O115 O 0.61355 0.33686 0.39741 0.0
C116 C 0.63052 0.43299 0.42996 0.0
O117 O 0.64195 0.45052 0.40667 0.0
C118 C 0.70414 0.43286 0.37399 0.0
O119 O 0.68877 0.44601 0.36043 0.0
O120 O 0.6136 0.39795 0.36349 0.0
C121 C 0.31762 0.70624 0.53977 0.0
O122 O 0.32025 0.68868 0.51937 0.0
O123 O 0.29871 0.62161 0.55697 0.0
Zn124 Zn 0.26832 0.64123 0.55826 0.0
O125 O 0.23803 0.62739 0.52349 0.0
C126 C 0.24495 0.62028 0.61693 0.0
O127 O 0.27599 0.62664 0.62253 0.0
O128 O 0.29682 0.69117 0.55971 0.0
C129 C 0.20907 0.62498 0.52511 0.0
O130 O 0.20008 0.63214 0.54921 0.0
C131 C 0.28852 0.59256 0.56597 0.0
O132 O 0.25752 0.57471 0.57601 0.0
O133 O 0.23739 0.62486 0.59204 0.0
C134 C 0.60581 0.30447 0.7052 0.0
O135 O 0.61648 0.29587 0.68285 0.0
O136 O 0.68005 0.29364 0.73792 0.0
Zn137 Zn 0.62886 0.265 0.73273 0.0
O138 O 0.61751 0.23626 0.69805 0.0
C139 C 0.62613 0.23106 0.78479 0.0
O140 O 0.65947 0.25045 0.78412 0.0
O141 O 0.60838 0.29409 0.72945 0.0
C142 C 0.62212 0.21184 0.69842 0.0
O143 O 0.63552 0.20669 0.7212 0.0
C144 C 0.70148 0.30164 0.71801 0.0
O145 O 0.69036 0.29128 0.69205 0.0
O146 O 0.60797 0.23376 0.76563 0.0
C147 C 0.40648 0.70688 0.91682 0.0
O148 O 0.38716 0.68704 0.93703 0.0
O149 O 0.34052 0.62243 0.88693 0.0
Zn150 Zn 0.39157 0.64491 0.89288 0.0
O151 O 0.40257 0.62846 0.92851 0.0
C152 C 0.39651 0.61565 0.84007 0.0
O153 O 0.36352 0.60388 0.83814 0.0
O154 O 0.41219 0.6944 0.89521 0.0
C155 C 0.40609 0.60341 0.927 0.0
O156 O 0.40103 0.58808 0.90256 0.0
C157 C 0.31856 0.60533 0.90565 0.0
O158 O 0.32898 0.60175 0.93074 0.0
O159 O 0.41336 0.63447 0.86076 0.0
C160 C 0.71178 0.4111 0.04782 0.0
O161 O 0.7132 0.40325 0.02133 0.0
O162 O 0.72679 0.33626 0.0533 0.0
Zn163 Zn 0.75716 0.38573 0.05912 0.0
O164 O 0.78893 0.3959 0.09232 0.0
C165 C 0.7882 0.39045 0.00472 0.0
O166 O 0.76821 0.35809 0.00486 0.0
O167 O 0.7283 0.40578 0.06684 0.0
C168 C 0.81627 0.39521 0.09007 0.0
O169 O 0.823 0.38604 0.06587 0.0
C170 C 0.72262 0.31476 0.07171 0.0
O171 O 0.73854 0.32463 0.09632 0.0
O172 O 0.78684 0.40731 0.02515 0.0
C173 C 0.4137 0.71606 0.2096 0.0
O174 O 0.39002 0.71173 0.19109 0.0
O175 O 0.34763 0.73341 0.23584 0.0
Zn176 Zn 0.39855 0.76401 0.23057 0.0
O177 O 0.40804 0.7906 0.19487 0.0
C178 C 0.40071 0.80063 0.28088 0.0
O179 O 0.36748 0.7804 0.28024 0.0
O180 O 0.42195 0.73751 0.22917 0.0
C181 C 0.40233 0.81433 0.19447 0.0
O182 O 0.38888 0.81966 0.21686 0.0
C183 C 0.32514 0.72743 0.21684 0.0
O184 O 0.33482 0.74113 0.19177 0.0
O185 O 0.41892 0.7974 0.26247 0.0
C186 C 0.12943 0.59843 0.25521 0.0
C187 C 0.11857 0.61473 0.27325 0.0
C188 C 0.16105 0.61603 0.24151 0.0
C189 C 0.18195 0.65067 0.24593 0.0
C190 C 0.1695 0.66752 0.26208 0.0
C191 C 0.13803 0.64928 0.27571 0.0
C192 C 0.17333 0.59713 0.22446 0.0
C193 C 0.19067 0.70445 0.26701 0.0
C194 C 0.27816 0.68987 0.24947 0.0
C195 C 0.28833 0.70629 0.22339 0.0
C196 C 0.24357 0.67098 0.25662 0.0
C197 C 0.2184 0.66855 0.2373 0.0
C198 C 0.22838 0.68448 0.2107 0.0
C199 C 0.26325 0.70312 0.20402 0.0
C200 C 0.23401 0.65419 0.28517 0.0
C201 C 0.20232 0.68256 0.18963 0.0
H202 H 0.11452 0.57164 0.25361 0.0
H203 H 0.12958 0.6618 0.28979 0.0
H204 H 0.18525 0.61023 0.20447 0.0
H205 H 0.19307 0.59535 0.23688 0.0
H206 H 0.15226 0.57165 0.21923 0.0
H207 H 0.1755 0.71432 0.27649 0.0
H208 H 0.21222 0.71017 0.28164 0.0
H209 H 0.20169 0.71757 0.24682 0.0
H210 H 0.2973 0.69201 0.26452 0.0
H211 H 0.27084 0.71571 0.18381 0.0
H212 H 0.21536 0.62734 0.2824 0.0
H213 H 0.22159 0.66466 0.29809 0.0
H214 H 0.2565 0.65722 0.29718 0.0
H215 H 0.18237 0.65636 0.1855 0.0
H216 H 0.214 0.69447 0.16914 0.0
H217 H 0.18939 0.69499 0.19858 0.0
C218 C 0.51975 0.13959 0.46512 0.0
C219 C 0.53263 0.1198 0.45621 0.0
C220 C 0.53169 0.17101 0.4535 0.0
C221 C 0.5572 0.1829 0.43248 0.0
C222 C 0.56782 0.16165 0.42148 0.0
C223 C 0.55543 0.13023 0.43359 0.0
C224 C 0.5195 0.19267 0.46583 0.0
C225 C 0.59457 0.17318 0.3988 0.0
C226 C 0.58164 0.26626 0.40004 0.0
C227 C 0.60952 0.2881 0.4173 0.0
C228 C 0.56503 0.23177 0.40391 0.0
C229 C 0.57638 0.21891 0.4257 0.0
C230 C 0.60501 0.24083 0.44269 0.0
C231 C 0.62126 0.27506 0.43821 0.0
C232 C 0.53485 0.2092 0.38519 0.0
C233 C 0.61789 0.22819 0.46629 0.0
H234 H 0.50225 0.13147 0.48277 0.0
H235 H 0.56563 0.11502 0.42695 0.0
H236 H 0.54001 0.21215 0.4794 0.0
H237 H 0.51369 0.20528 0.44875 0.0
H238 H 0.49639 0.17832 0.47897 0.0
H239 H 0.59521 0.15213 0.38883 0.0
H240 H 0.58994 0.18701 0.38205 0.0
H241 H 0.62004 0.19024 0.40837 0.0
H242 H 0.57252 0.27609 0.38369 0.0
H243 H 0.64282 0.29167 0.4516 0.0
H244 H 0.51127 0.19725 0.39798 0.0
H245 H 0.538 0.18915 0.37625 0.0
H246 H 0.53135 0.22273 0.36744 0.0
H247 H 0.59781 0.2156 0.4825 0.0
H248 H 0.64121 0.24836 0.47686 0.0
H249 H 0.62371 0.20968 0.45784 0.0
C250 C 0.41385 0.52235 0.59377 0.0
C251 C 0.44055 0.54735 0.61002 0.0
C252 C 0.38974 0.52803 0.58019 0.0
C253 C 0.39208 0.55905 0.58367 0.0
C254 C 0.4208 0.58515 0.59784 0.0
C255 C 0.44499 0.57913 0.61029 0.0
C256 C 0.36045 0.50012 0.56395 0.0
C257 C 0.4243 0.61852 0.60246 0.0
C258 C 0.33755 0.58846 0.54788 0.0
C259 C 0.31265 0.58066 0.56848 0.0
C260 C 0.36206 0.57912 0.55134 0.0
C261 C 0.36257 0.56309 0.57661 0.0
C262 C 0.33685 0.55446 0.5971 0.0
C263 C 0.31181 0.56279 0.59249 0.0
C264 C 0.38804 0.58743 0.52842 0.0
C265 C 0.33693 0.53825 0.62475 0.0
H266 H 0.41043 0.49781 0.59328 0.0
H267 H 0.46613 0.59875 0.62227 0.0
H268 H 0.33745 0.48831 0.57744 0.0
H269 H 0.35419 0.50951 0.54463 0.0
H270 H 0.36631 0.48085 0.55765 0.0
H271 H 0.42153 0.62872 0.58211 0.0
H272 H 0.40367 0.61568 0.6166 0.0
H273 H 0.44925 0.63676 0.6123 0.0
H274 H 0.33793 0.60197 0.52913 0.0
H275 H 0.29264 0.55689 0.60848 0.0
H276 H 0.39283 0.56682 0.52524 0.0
H277 H 0.41259 0.60967 0.53477 0.0
H278 H 0.37966 0.59273 0.5079 0.0
H279 H 0.33664 0.51495 0.6206 0.0
H280 H 0.31468 0.53251 0.63813 0.0
H281 H 0.36064 0.55491 0.63695 0.0
C282 C 0.89789 0.39503 0.76612 0.0
C283 C 0.90935 0.42868 0.76961 0.0
C284 C 0.86633 0.37365 0.7528 0.0
C285 C 0.84597 0.38642 0.74296 0.0
C286 C 0.85916 0.42098 0.74402 0.0
C287 C 0.89068 0.4417 0.75751 0.0
C288 C 0.85335 0.33702 0.75194 0.0
C289 C 0.83851 0.43572 0.73361 0.0
C290 C 0.76261 0.33226 0.70241 0.0
C291 C 0.73859 0.3226 0.72418 0.0
C292 C 0.79778 0.3526 0.70814 0.0
C293 C 0.80912 0.36353 0.73627 0.0
C294 C 0.78501 0.3535 0.75835 0.0
C295 C 0.75013 0.3332 0.75204 0.0
C296 C 0.82273 0.36275 0.6841 0.0
C297 C 0.79601 0.36458 0.78869 0.0
H298 H 0.91217 0.38498 0.77594 0.0
H299 H 0.89947 0.46771 0.76063 0.0
H300 H 0.8341 0.32447 0.76878 0.0
H301 H 0.84067 0.32605 0.7313 0.0
H302 H 0.87422 0.33183 0.75551 0.0
H303 H 0.85437 0.46308 0.73164 0.0
H304 H 0.82643 0.42503 0.71273 0.0
H305 H 0.81776 0.42977 0.74882 0.0
H306 H 0.75396 0.32413 0.68082 0.0
H307 H 0.73184 0.3258 0.76904 0.0
H308 H 0.84217 0.35598 0.68899 0.0
H309 H 0.83649 0.39003 0.68157 0.0
H310 H 0.80996 0.35098 0.66363 0.0
H311 H 0.81427 0.35713 0.7959 0.0
H312 H 0.77412 0.35398 0.80346 0.0
H313 H 0.80936 0.39198 0.79012 0.0
C314 C 0.50938 0.89884 0.95411 0.0
C315 C 0.48858 0.91241 0.95089 0.0
C316 C 0.499 0.86721 0.94337 0.0
C317 C 0.46701 0.84885 0.92925 0.0
C318 C 0.44767 0.86398 0.92345 0.0
C319 C 0.45862 0.89561 0.93456 0.0
C320 C 0.5205 0.85213 0.94996 0.0
C321 C 0.41365 0.84548 0.90819 0.0
C322 C 0.44111 0.76458 0.89748 0.0
C323 C 0.4217 0.74321 0.91948 0.0
C324 C 0.45584 0.79906 0.9001 0.0
C325 C 0.45117 0.81244 0.92535 0.0
C326 C 0.43149 0.79096 0.94755 0.0
C327 C 0.41698 0.75668 0.9443 0.0
C328 C 0.4765 0.82117 0.87598 0.0
C329 C 0.42594 0.8042 0.97491 0.0
H330 H 0.53224 0.9117 0.96723 0.0
H331 H 0.44231 0.90598 0.93257 0.0
H332 H 0.5087 0.83417 0.96753 0.0
H333 H 0.52174 0.83843 0.93132 0.0
H334 H 0.54689 0.87119 0.95652 0.0
H335 H 0.40506 0.86243 0.90074 0.0
H336 H 0.41489 0.83157 0.88972 0.0
H337 H 0.39418 0.82726 0.92285 0.0
H338 H 0.44484 0.75438 0.87818 0.0
H339 H 0.40206 0.74043 0.96141 0.0
H340 H 0.50311 0.83841 0.88324 0.0
H341 H 0.46579 0.83652 0.86902 0.0
H342 H 0.47703 0.80686 0.85746 0.0
H343 H 0.45086 0.82127 0.98533 0.0
H344 H 0.40991 0.78417 0.99004 0.0
H345 H 0.41339 0.81858 0.9704 0.0
C346 C 0.57097 0.44462 0.10605 0.0
C347 C 0.58239 0.47819 0.11042 0.0
C348 C 0.59102 0.43485 0.0916 0.0
C349 C 0.62337 0.45928 0.0814 0.0
C350 C 0.63382 0.49322 0.0838 0.0
C351 C 0.6131 0.50231 0.0983 0.0
C352 C 0.57872 0.3984 0.08928 0.0
C353 C 0.66802 0.52 0.07306 0.0
C354 C 0.68988 0.43411 0.08407 0.0
C355 C 0.69048 0.42518 0.05579 0.0
C356 C 0.66887 0.44613 0.0924 0.0
C357 C 0.64783 0.44933 0.07197 0.0
C358 C 0.64886 0.44116 0.04324 0.0
C359 C 0.6702 0.42916 0.03547 0.0
C360 C 0.66857 0.45461 0.12329 0.0
C361 C 0.62681 0.44429 0.0209 0.0
H362 H 0.54705 0.42599 0.11527 0.0
H363 H 0.62202 0.52828 0.10181 0.0
H364 H 0.58221 0.39198 0.06744 0.0
H365 H 0.59404 0.39242 0.10381 0.0
H366 H 0.55139 0.38261 0.09494 0.0
H367 H 0.67001 0.54451 0.07245 0.0
H368 H 0.68851 0.52195 0.08725 0.0
H369 H 0.67267 0.51383 0.0515 0.0
H370 H 0.70557 0.43132 0.09991 0.0
H371 H 0.67056 0.42243 0.01355 0.0
H372 H 0.64287 0.438 0.13218 0.0
H373 H 0.67404 0.48037 0.12537 0.0
H374 H 0.68758 0.45217 0.13625 0.0
H375 H 0.59952 0.42649 0.02531 0.0
H376 H 0.63249 0.43937 -0.00081 0.0
H377 H 0.63049 0.46947 0.0215 0.0
C378 C 0.39311 0.89452 0.50336 0.0
C379 C 0.42804 0.91409 0.50952 0.0
C380 C 0.37375 0.86224 0.5139 0.0
C381 C 0.38992 0.84928 0.53082 0.0
C382 C 0.42436 0.87028 0.53956 0.0
C383 C 0.44312 0.90256 0.52868 0.0
C384 C 0.33708 0.84089 0.50421 0.0
C385 C 0.44247 0.85762 0.55781 0.0
C386 C 0.33417 0.7621 0.55987 0.0
C387 C 0.33745 0.74296 0.53869 0.0
C388 C 0.35175 0.79687 0.55812 0.0
C389 C 0.37295 0.81278 0.5346 0.0
C390 C 0.37689 0.79359 0.51351 0.0
C391 C 0.35917 0.75901 0.51585 0.0
C392 C 0.34706 0.81649 0.58105 0.0
C393 C 0.39925 0.80954 0.48802 0.0
H394 H 0.38167 0.90342 0.48821 0.0
H395 H 0.4703 0.91759 0.53305 0.0
H396 H 0.33541 0.82355 0.48744 0.0
H397 H 0.32071 0.82582 0.52196 0.0
H398 H 0.32679 0.85592 0.49539 0.0
H399 H 0.4664 0.87821 0.56728 0.0
H400 H 0.42576 0.84177 0.57511 0.0
H401 H 0.44909 0.84224 0.54463 0.0
H402 H 0.31751 0.74992 0.57765 0.0
H403 H 0.36199 0.74451 0.49943 0.0
H404 H 0.33372 0.82864 0.5721 0.0
H405 H 0.37222 0.8364 0.58921 0.0
H406 H 0.33199 0.8007 0.59908 0.0
H407 H 0.3894 0.82282 0.47541 0.0
H408 H 0.40038 0.7912 0.47398 0.0
H409 H 0.4256 0.82809 0.49502 0.0
C410 C 0.57616 0.4532 0.67897 0.0
C411 C 0.54284 0.44313 0.67016 0.0
C412 C 0.5842 0.43034 0.68993 0.0
C413 C 0.55827 0.39657 0.69184 0.0
C414 C 0.52397 0.38692 0.68549 0.0
C415 C 0.51664 0.41042 0.67464 0.0
C416 C 0.62104 0.44183 0.69665 0.0
C417 C 0.49554 0.35125 0.68748 0.0
C418 C 0.58833 0.33699 0.67503 0.0
C419 C 0.59185 0.32665 0.70209 0.0
C420 C 0.57654 0.35899 0.67151 0.0
C421 C 0.56802 0.37109 0.69565 0.0
C422 C 0.57073 0.36021 0.72301 0.0
C423 C 0.58263 0.3381 0.72593 0.0
C424 C 0.57398 0.36991 0.64189 0.0
C425 C 0.56185 0.37253 0.74921 0.0
H426 H 0.59641 0.47852 0.67525 0.0
H427 H 0.49095 0.40263 0.66746 0.0
H428 H 0.62325 0.43088 0.7168 0.0
H429 H 0.63147 0.43348 0.67955 0.0
H430 H 0.63701 0.46924 0.69834 0.0
H431 H 0.47003 0.34881 0.68702 0.0
H432 H 0.49699 0.33713 0.66925 0.0
H433 H 0.49806 0.33975 0.70717 0.0
H434 H 0.59519 0.32818 0.65648 0.0
H435 H 0.58518 0.33018 0.74693 0.0
H436 H 0.59167 0.39701 0.63989 0.0
H437 H 0.54778 0.36483 0.63772 0.0
H438 H 0.58032 0.35722 0.62531 0.0
H439 H 0.58004 0.39949 0.75188 0.0
H440 H 0.56274 0.35973 0.76871 0.0
H441 H 0.53597 0.36892 0.74691 0.0
C442 C 0.12505 0.54605 0.86623 0.0
C443 C 0.11189 0.51812 0.84863 0.0
C444 C 0.15621 0.55781 0.88076 0.0
C445 C 0.17445 0.54117 0.87738 0.0
C446 C 0.15937 0.51101 0.86191 0.0
C447 C 0.12829 0.49995 0.84753 0.0
C448 C 0.17125 0.58993 0.89714 0.0
C449 C 0.17772 0.49231 0.85796 0.0
C450 C 0.2708 0.59425 0.87242 0.0
C451 C 0.28159 0.58932 0.89895 0.0
C452 C 0.23603 0.57899 0.86542 0.0
C453 C 0.21127 0.55812 0.88538 0.0
C454 C 0.22189 0.55318 0.91229 0.0
C455 C 0.25696 0.56888 0.91879 0.0
C456 C 0.22581 0.58501 0.83645 0.0
C457 C 0.19625 0.53106 0.93405 0.0
H458 H 0.11256 0.56036 0.86659 0.0
H459 H 0.11824 0.47862 0.83349 0.0
H460 H 0.18332 0.58861 0.91723 0.0
H461 H 0.19139 0.61019 0.88429 0.0
H462 H 0.15167 0.59641 0.90212 0.0
H463 H 0.16033 0.4668 0.84979 0.0
H464 H 0.19861 0.50563 0.84253 0.0
H465 H 0.18941 0.49085 0.87823 0.0
H466 H 0.28957 0.61003 0.85697 0.0
H467 H 0.26505 0.56491 0.93935 0.0
H468 H 0.2089 0.59531 0.83868 0.0
H469 H 0.2112 0.56126 0.82464 0.0
H470 H 0.24818 0.60241 0.8236 0.0
H471 H 0.17815 0.53954 0.93846 0.0
H472 H 0.2086 0.5306 0.95433 0.0
H473 H 0.18103 0.50542 0.92561 0.0
C474 C 0.58193 0.12651 0.0355 0.0
C475 C 0.59614 0.11349 0.01729 0.0
C476 C 0.60262 0.15721 0.04905 0.0
C477 C 0.63821 0.17514 0.04401 0.0
C478 C 0.6529 0.16054 0.0276 0.0
C479 C 0.63158 0.12989 0.01427 0.0
C480 C 0.58594 0.1718 0.06644 0.0
C481 C 0.6907 0.17864 0.02184 0.0
C482 C 0.68247 0.26869 0.0393 0.0
C483 C 0.7004 0.27895 0.06519 0.0
C484 C 0.66184 0.235 0.03245 0.0
C485 C 0.65908 0.21083 0.05191 0.0
C486 C 0.67682 0.22093 0.0782 0.0
C487 C 0.69726 0.2549 0.08456 0.0
C488 C 0.64325 0.22528 0.00417 0.0
C489 C 0.67454 0.19588 0.09942 0.0
H490 H 0.5544 0.11399 0.03732 0.0
H491 H 0.64236 0.11994 -0.00026 0.0
H492 H 0.60089 0.18351 0.08611 0.0
H493 H 0.5851 0.19137 0.05399 0.0
H494 H 0.55943 0.15283 0.07226 0.0
H495 H 0.69869 0.16202 0.0126 0.0
H496 H 0.69718 0.199 0.00665 0.0
H497 H 0.70564 0.18992 0.0416 0.0
H498 H 0.68463 0.28704 0.02423 0.0
H499 H 0.71102 0.26258 0.10463 0.0
H500 H 0.61543 0.20881 0.00745 0.0
H501 H 0.65194 0.21124 0.99143 0.0
H502 H 0.64748 0.24708 0.99172 0.0
H503 H 0.64748 0.17827 0.10474 0.0
H504 H 0.68896 0.20771 0.11932 0.0
H505 H 0.68477 0.18119 0.09001 0.0
C506 C 0.48611 0.59441 0.19083 0.0
C507 C 0.51212 0.60886 0.17077 0.0
C508 C 0.47294 0.6127 0.20304 0.0
C509 C 0.48621 0.64607 0.19487 0.0
C510 C 0.51513 0.66167 0.17717 0.0
C511 C 0.5277 0.64281 0.16527 0.0
C512 C 0.44246 0.59525 0.22217 0.0
C513 C 0.53036 0.69723 0.1681 0.0
C514 C 0.42394 0.67573 0.18374 0.0
C515 C 0.43126 0.69704 0.20696 0.0
C516 C 0.44119 0.65855 0.18003 0.0
C517 C 0.46633 0.66256 0.20014 0.0
C518 C 0.47329 0.68337 0.22404 0.0
C519 C 0.45576 0.70049 0.22712 0.0
C520 C 0.43299 0.63665 0.15415 0.0
C521 C 0.4997 0.68806 0.246 0.0
H522 H 0.47386 0.56807 0.19487 0.0
H523 H 0.54777 0.65389 0.14965 0.0
H524 H 0.4444 0.61161 0.23993 0.0
H525 H 0.41896 0.58864 0.20983 0.0
H526 H 0.43971 0.57215 0.23103 0.0
H527 H 0.55587 0.70715 0.15844 0.0
H528 H 0.51323 0.69884 0.15217 0.0
H529 H 0.53282 0.71317 0.18637 0.0
H530 H 0.40505 0.67282 0.16808 0.0
H531 H 0.46148 0.7168 0.24522 0.0
H532 H 0.42532 0.61113 0.16066 0.0
H533 H 0.45603 0.64605 0.14084 0.0
H534 H 0.41214 0.63553 0.14095 0.0
H535 H 0.49476 0.66369 0.25357 0.0
H536 H 0.50006 0.7028 0.26454 0.0
H537 H 0.52538 0.70092 0.23635 0.0
C538 C 0.90352 0.51191 0.33954 0.0
C539 C 0.90641 0.4869 0.32609 0.0
C540 C 0.87266 0.50488 0.35204 0.0
C541 C 0.84391 0.47231 0.3504 0.0
C542 C 0.84744 0.44664 0.33856 0.0
C543 C 0.87876 0.45415 0.32707 0.0
C544 C 0.87028 0.53269 0.36547 0.0
C545 C 0.81745 0.41162 0.33603 0.0
C546 C 0.76082 0.44189 0.38989 0.0
C547 C 0.74071 0.44537 0.36913 0.0
C548 C 0.7952 0.45238 0.38478 0.0
C549 C 0.8093 0.4655 0.35792 0.0
C550 C 0.78916 0.46954 0.33709 0.0
C551 C 0.7553 0.4599 0.34313 0.0
C552 C 0.81616 0.44876 0.40787 0.0
C553 C 0.80287 0.48264 0.30792 0.0
H554 H 0.92468 0.53727 0.33899 0.0
H555 H 0.88108 0.43449 0.31748 0.0
H556 H 0.8561 0.54012 0.35103 0.0
H557 H 0.85605 0.52451 0.38567 0.0
H558 H 0.89589 0.55475 0.36975 0.0
H559 H 0.82495 0.39418 0.32783 0.0
H560 H 0.80519 0.40262 0.35691 0.0
H561 H 0.798 0.41109 0.32138 0.0
H562 H 0.74968 0.43098 0.41015 0.0
H563 H 0.73977 0.46249 0.32698 0.0
H564 H 0.8412 0.47204 0.41033 0.0
H565 H 0.8213 0.42895 0.40201 0.0
H566 H 0.80299 0.44241 0.42861 0.0
H567 H 0.82647 0.50733 0.30964 0.0
H568 H 0.78414 0.48485 0.29433 0.0
H569 H 0.80967 0.46586 0.29721 0.0
C570 C 0.10851 0.61553 0.38506 0.0
C571 C 0.08868 0.5837 0.37336 0.0
C572 C 0.12502 0.62048 0.41135 0.0
C573 C 0.12142 0.59286 0.42636 0.0
C574 C 0.09967 0.56046 0.41552 0.0
C575 C 0.08351 0.55625 0.38904 0.0
C576 C 0.14785 0.65541 0.42224 0.0
C577 C 0.09498 0.53043 0.4311 0.0
C578 C 0.19699 0.6113 0.47345 0.0
C579 C 0.18593 0.61487 0.50013 0.0
C580 C 0.1758 0.6032 0.44939 0.0
C581 C 0.14269 0.59834 0.45213 0.0
C582 C 0.13098 0.60092 0.47913 0.0
C583 C 0.1528 0.60928 0.5028 0.0
C584 C 0.18924 0.6008 0.42089 0.0
C585 C 0.09575 0.59566 0.48286 0.0
H586 H 0.11216 0.63674 0.37307 0.0
H587 H 0.06835 0.53164 0.37993 0.0
H588 H 0.14136 0.6576 0.44443 0.0
H589 H 0.1748 0.66163 0.42227 0.0
H590 H 0.14582 0.67391 0.40908 0.0
H591 H 0.07414 0.50698 0.42165 0.0
H592 H 0.11902 0.53001 0.4304 0.0
H593 H 0.08926 0.53151 0.45376 0.0
H594 H 0.2225 0.6155 0.47122 0.0
H595 H 0.14395 0.61172 0.5234 0.0
H596 H 0.19083 0.62027 0.40661 0.0
H597 H 0.17149 0.57652 0.41078 0.0
H598 H 0.21493 0.60376 0.42258 0.0
H599 H 0.09387 0.61535 0.4716 0.0
H600 H 0.08957 0.59604 0.50555 0.0
H601 H 0.07624 0.57162 0.47334 0.0
C602 C 0.58885 0.11365 0.55341 0.0
C603 C 0.55453 0.08872 0.55022 0.0
C604 C 0.60141 0.13034 0.57933 0.0
C605 C 0.57893 0.12203 0.60243 0.0
C606 C 0.54493 0.09502 0.59994 0.0
C607 C 0.53311 0.07853 0.57376 0.0
C608 C 0.63794 0.15867 0.58118 0.0
C609 C 0.52021 0.08539 0.62411 0.0
C610 C 0.61593 0.16156 0.67433 0.0
C611 C 0.61134 0.18883 0.67391 0.0
C612 C 0.60524 0.13931 0.65134 0.0
C613 C 0.5896 0.14448 0.62746 0.0
C614 C 0.58484 0.17191 0.62696 0.0
C615 C 0.5958 0.19375 0.65016 0.0
C616 C 0.61085 0.11042 0.65251 0.0
C617 C 0.56827 0.17832 0.60183 0.0
H618 H 0.60536 0.12136 0.53511 0.0
H619 H 0.50649 0.05938 0.57114 0.0
H620 H 0.63844 0.18248 0.5813 0.0
H621 H 0.65026 0.15747 0.60118 0.0
H622 H 0.65326 0.15876 0.56299 0.0
H623 H 0.49658 0.06105 0.6203 0.0
H624 H 0.5322 0.08431 0.64434 0.0
H625 H 0.513 0.10441 0.62669 0.0
H626 H 0.62787 0.15754 0.69264 0.0
H627 H 0.5921 0.2147 0.64966 0.0
H628 H 0.62747 0.11204 0.63482 0.0
H629 H 0.58617 0.08683 0.64975 0.0
H630 H 0.62282 0.10952 0.67286 0.0
H631 H 0.58355 0.18222 0.58251 0.0
H632 H 0.56581 0.20035 0.60506 0.0
H633 H 0.54248 0.15647 0.59781 0.0
C634 C 0.4655 0.53453 0.73062 0.0
C635 C 0.48156 0.55702 0.70854 0.0
C636 C 0.45626 0.54435 0.75547 0.0
C637 C 0.46321 0.57725 0.75795 0.0
C638 C 0.48258 0.60075 0.7369 0.0
C639 C 0.49161 0.59032 0.71245 0.0
C640 C 0.43624 0.51874 0.77773 0.0
C641 C 0.49065 0.63609 0.7387 0.0
C642 C 0.39729 0.59072 0.79358 0.0
C643 C 0.4136 0.60563 0.81929 0.0
C644 C 0.41307 0.58098 0.77367 0.0
C645 C 0.44578 0.58584 0.77981 0.0
C646 C 0.46213 0.60031 0.80597 0.0
C647 C 0.44594 0.61029 0.82534 0.0
C648 C 0.39493 0.56596 0.74583 0.0
C649 C 0.49676 0.60546 0.81337 0.0
H650 H 0.45761 0.50874 0.72748 0.0
H651 H 0.50414 0.60766 0.69529 0.0
H652 H 0.44488 0.52922 0.79937 0.0
H653 H 0.40886 0.51079 0.77566 0.0
H654 H 0.43861 0.49653 0.77544 0.0
H655 H 0.50996 0.65221 0.72288 0.0
H656 H 0.467 0.63668 0.73468 0.0
H657 H 0.50021 0.64656 0.76019 0.0
H658 H 0.37232 0.58705 0.7888 0.0
H659 H 0.45852 0.62146 0.84535 0.0
H660 H 0.39162 0.5411 0.74294 0.0
H661 H 0.41055 0.58158 0.72796 0.0
H662 H 0.36943 0.56348 0.74453 0.0
H663 H 0.49626 0.58175 0.81138 0.0
H664 H 0.50514 0.61528 0.83525 0.0
H665 H 0.51601 0.62307 0.79826 0.0
C666 C 0.93842 0.45676 0.89266 0.0
C667 C 0.93012 0.46852 0.86843 0.0
C668 C 0.91849 0.44873 0.91716 0.0
C669 C 0.88968 0.45254 0.91723 0.0
C670 C 0.88316 0.46725 0.89373 0.0
C671 C 0.90356 0.47517 0.86963 0.0
C672 C 0.92655 0.43357 0.94198 0.0
C673 C 0.85286 0.47192 0.89298 0.0
C674 C 0.81243 0.38891 0.95793 0.0
C675 C 0.8137 0.40683 0.9821 0.0
C676 C 0.83705 0.40361 0.93673 0.0
C677 C 0.8638 0.437 0.93988 0.0
C678 C 0.86526 0.45529 0.96421 0.0
C679 C 0.84007 0.44002 0.985 0.0
C680 C 0.8344 0.38336 0.91091 0.0
C681 C 0.89352 0.49084 0.96834 0.0
H682 H 0.95887 0.45151 0.89175 0.0
H683 H 0.89743 0.4847 0.85099 0.0
H684 H 0.92459 0.44434 0.96229 0.0
H685 H 0.90772 0.40658 0.9425 0.0
H686 H 0.95251 0.43719 0.94054 0.0
H687 H 0.85414 0.48782 0.87504 0.0
H688 H 0.82908 0.44743 0.89061 0.0
H689 H 0.85109 0.48313 0.91309 0.0
H690 H 0.79212 0.36331 0.95551 0.0
H691 H 0.84134 0.45398 0.00374 0.0
H692 H 0.85779 0.38192 0.90911 0.0
H693 H 0.83237 0.39549 0.89142 0.0
H694 H 0.81196 0.35777 0.91166 0.0
H695 H 0.91862 0.49246 0.96842 0.0
H696 H 0.89103 0.50162 0.98848 0.0
H697 H 0.89353 0.50612 0.95043 0.0
C698 C 0.48788 0.94749 0.07105 0.0
C699 C 0.46669 0.9372 0.04693 0.0
C700 C 0.47634 0.93027 0.09672 0.0
C701 C 0.44283 0.90235 0.09814 0.0
C702 C 0.42053 0.89359 0.07443 0.0
C703 C 0.43279 0.9111 0.04906 0.0
C704 C 0.50084 0.9404 0.12158 0.0
C705 C 0.38452 0.86425 0.07517 0.0
C706 C 0.42813 0.83194 0.14646 0.0
C707 C 0.41206 0.83655 0.16967 0.0
C708 C 0.43844 0.85336 0.12318 0.0
C709 C 0.43243 0.88001 0.12305 0.0
C710 C 0.41607 0.88475 0.14632 0.0
C711 C 0.40609 0.86296 0.1694 0.0
C712 C 0.45579 0.84746 0.09869 0.0
C713 C 0.4091 0.91279 0.14681 0.0
H714 H 0.51417 0.96753 0.06932 0.0
H715 H 0.41636 0.90334 0.03038 0.0
H716 H 0.48842 0.94124 0.1414 0.0
H717 H 0.50854 0.92176 0.12459 0.0
H718 H 0.52421 0.96497 0.11835 0.0
H719 H 0.3692 0.8634 0.05638 0.0
H720 H 0.38519 0.84104 0.07559 0.0
H721 H 0.37144 0.86487 0.09465 0.0
H722 H 0.43289 0.81164 0.1465 0.0
H723 H 0.39369 0.86673 0.18726 0.0
H724 H 0.48133 0.86972 0.0953 0.0
H725 H 0.44068 0.84307 0.07889 0.0
H726 H 0.45898 0.82588 0.10227 0.0
H727 H 0.43337 0.93684 0.14488 0.0
H728 H 0.39625 0.91317 0.16657 0.0
H729 H 0.39275 0.9106 0.12838 0.0
C730 C 0.52552 0.43807 0.21395 0.0
C731 C 0.54434 0.47211 0.20858 0.0
C732 C 0.53278 0.42487 0.23781 0.0
C733 C 0.55996 0.44627 0.25625 0.0
C734 C 0.57705 0.48097 0.25216 0.0
C735 C 0.56885 0.49353 0.22834 0.0
C736 C 0.51346 0.38781 0.24175 0.0
C737 C 0.60628 0.50463 0.27125 0.0
C738 C 0.57646 0.41392 0.32475 0.0
C739 C 0.60132 0.4067 0.31626 0.0
C740 C 0.56233 0.42639 0.30541 0.0
C741 C 0.5737 0.4322 0.27706 0.0
C742 C 0.59865 0.4248 0.26834 0.0
C743 C 0.61197 0.4119 0.288 0.0
C744 C 0.5354 0.43348 0.31533 0.0
C745 C 0.61168 0.43094 0.23829 0.0
H746 H 0.5068 0.42158 0.19839 0.0
H747 H 0.58373 0.51981 0.22382 0.0
H748 H 0.52977 0.37787 0.23531 0.0
H749 H 0.50688 0.38139 0.26436 0.0
H750 H 0.48962 0.37534 0.22876 0.0
H751 H 0.61351 0.53076 0.26774 0.0
H752 H 0.59969 0.49847 0.29388 0.0
H753 H 0.62884 0.50237 0.26696 0.0
H754 H 0.56799 0.40981 0.34657 0.0
H755 H 0.63127 0.40655 0.28135 0.0
H756 H 0.51201 0.41963 0.30201 0.0
H757 H 0.5446 0.4602 0.31288 0.0
H758 H 0.52857 0.42662 0.33788 0.0
H759 H 0.59025 0.41638 0.22318 0.0
H760 H 0.63138 0.42418 0.23501 0.0
H761 H 0.62284 0.45748 0.23296 0.0
C762 C 0.48631 0.91944 0.41282 0.0
C763 C 0.4775 0.94381 0.41457 0.0
C764 C 0.47898 0.90001 0.38834 0.0
C765 C 0.46265 0.90531 0.36502 0.0
C766 C 0.45712 0.93229 0.36559 0.0
C767 C 0.46455 0.95127 0.39053 0.0
C768 C 0.48542 0.87161 0.38868 0.0
C769 C 0.44037 0.93913 0.34094 0.0
C770 C 0.45002 0.85452 0.29842 0.0
C771 C 0.41662 0.82777 0.30205 0.0
C772 C 0.46512 0.88059 0.31826 0.0
C773 C 0.44656 0.87955 0.34247 0.0
C774 C 0.41279 0.85268 0.34614 0.0
C775 C 0.39816 0.82727 0.32578 0.0
C776 C 0.50098 0.90904 0.31349 0.0
C777 C 0.39226 0.85042 0.3719 0.0
H778 H 0.49645 0.91384 0.43149 0.0
H779 H 0.45762 0.97005 0.39198 0.0
H780 H 0.46079 0.84798 0.39111 0.0
H781 H 0.49674 0.87018 0.36843 0.0
H782 H 0.50267 0.87385 0.40644 0.0
H783 H 0.44379 0.96421 0.34242 0.0
H784 H 0.45086 0.93687 0.32049 0.0
H785 H 0.41261 0.9206 0.34072 0.0
H786 H 0.4643 0.85523 0.27994 0.0
H787 H 0.37238 0.80669 0.32871 0.0
H788 H 0.51818 0.90965 0.33057 0.0
H789 H 0.50163 0.9329 0.31445 0.0
H790 H 0.51115 0.90718 0.29271 0.0
H791 H 0.40551 0.84953 0.39144 0.0
H792 H 0.36617 0.82817 0.37132 0.0
H793 H 0.39005 0.87274 0.37344 0.0
C794 C 0.54099 0.4787 0.55122 0.0
C795 C 0.56261 0.49185 0.57494 0.0
C796 C 0.55296 0.47312 0.52573 0.0
C797 C 0.58734 0.48115 0.52411 0.0
C798 C 0.60992 0.49712 0.54729 0.0
C799 C 0.59721 0.50214 0.57251 0.0
C800 C 0.52812 0.45611 0.50146 0.0
C801 C 0.64684 0.50648 0.5463 0.0
C802 C 0.60612 0.42624 0.47844 0.0
C803 C 0.62034 0.44578 0.45429 0.0
C804 C 0.59516 0.43749 0.50119 0.0
C805 C 0.59858 0.46911 0.49981 0.0
C806 C 0.61312 0.48908 0.4756 0.0
C807 C 0.62382 0.47716 0.45309 0.0
C808 C 0.5798 0.41545 0.52671 0.0
C809 C 0.61733 0.52297 0.47349 0.0
H810 H 0.51416 0.4705 0.55325 0.0
H811 H 0.61388 0.51238 0.59095 0.0
H812 H 0.53947 0.46853 0.48109 0.0
H813 H 0.52218 0.43017 0.49966 0.0
H814 H 0.50385 0.45573 0.50454 0.0
H815 H 0.66199 0.52279 0.56436 0.0
H816 H 0.64835 0.48373 0.54714 0.0
H817 H 0.65866 0.51929 0.52617 0.0
H818 H 0.60329 0.40196 0.47953 0.0
H819 H 0.63476 0.49243 0.43449 0.0
H820 H 0.55359 0.41047 0.53018 0.0
H821 H 0.59511 0.42812 0.54602 0.0
H822 H 0.5786 0.39141 0.52431 0.0
H823 H 0.59212 0.52092 0.47523 0.0
H824 H 0.62915 0.53544 0.45321 0.0
H825 H 0.63346 0.53885 0.49134 0.0
C826 C 0.1203 0.57395 0.74806 0.0
C827 C 0.0969 0.53987 0.7494 0.0
C828 C 0.14192 0.5877 0.72479 0.0
C829 C 0.1404 0.56667 0.70264 0.0
C830 C 0.11541 0.53244 0.70318 0.0
C831 C 0.09376 0.51942 0.72662 0.0
C832 C 0.1678 0.62438 0.7248 0.0
C833 C 0.11314 0.50922 0.68004 0.0
C834 C 0.1873 0.60549 0.6343 0.0
C835 C 0.21835 0.60676 0.63896 0.0
C836 C 0.1616 0.59243 0.65478 0.0
C837 C 0.16695 0.58002 0.68038 0.0
C838 C 0.19813 0.58102 0.68514 0.0
C839 C 0.22356 0.59458 0.66443 0.0
C840 C 0.12889 0.59221 0.64915 0.0
C841 C 0.20465 0.56775 0.71214 0.0
H842 H 0.12274 0.58959 0.76592 0.0
H843 H 0.07593 0.49298 0.728 0.0
H844 H 0.19375 0.62842 0.72813 0.0
H845 H 0.16761 0.63534 0.70401 0.0
H846 H 0.16295 0.63777 0.74177 0.0
H847 H 0.09015 0.48412 0.68207 0.0
H848 H 0.1126 0.5192 0.65885 0.0
H849 H 0.13611 0.50693 0.68101 0.0
H850 H 0.18312 0.61497 0.61468 0.0
H851 H 0.24738 0.59529 0.66809 0.0
H852 H 0.12544 0.60699 0.66566 0.0
H853 H 0.10673 0.56656 0.65037 0.0
H854 H 0.12858 0.60247 0.628 0.0
H855 H 0.20374 0.58177 0.73068 0.0
H856 H 0.22982 0.56946 0.71219 0.0
H857 H 0.1844 0.54145 0.71498 0.0
C858 C 0.56081 0.08295 0.89576 0.0
C859 C 0.54945 0.09129 0.92007 0.0
C860 C 0.56844 0.10213 0.87108 0.0
C861 C 0.56456 0.13012 0.87097 0.0
C862 C 0.55005 0.13662 0.89463 0.0
C863 C 0.54265 0.11708 0.91892 0.0
C864 C 0.58344 0.09416 0.84611 0.0
C865 C 0.54527 0.16604 0.89537 0.0
C866 C 0.62918 0.20582 0.83043 0.0
C867 C 0.61008 0.2052 0.80675 0.0
C868 C 0.61464 0.18131 0.85127 0.0
C869 C 0.58024 0.15528 0.84822 0.0
C870 C 0.56087 0.15426 0.82423 0.0
C871 C 0.57597 0.17938 0.80382 0.0
C872 C 0.63605 0.1835 0.87676 0.0
C873 C 0.52424 0.12674 0.82018 0.0
H874 H 0.56618 0.06307 0.89674 0.0
H875 H 0.5336 0.1233 0.93775 0.0
H876 H 0.5721 0.09629 0.82589 0.0
H877 H 0.6113 0.1122 0.84542 0.0
H878 H 0.57943 0.06885 0.84755 0.0
H879 H 0.52932 0.16488 0.91348 0.0
H880 H 0.57057 0.18911 0.89743 0.0
H881 H 0.53324 0.16769 0.87538 0.0
H882 H 0.65551 0.2257 0.83284 0.0
H883 H 0.56114 0.17859 0.78542 0.0
H884 H 0.63729 0.16064 0.87839 0.0
H885 H 0.62412 0.18552 0.89646 0.0
H886 H 0.6625 0.20511 0.87576 0.0
H887 H 0.52257 0.10239 0.82058 0.0
H888 H 0.51304 0.12892 0.79986 0.0
H889 H 0.50857 0.12697 0.8379 0.0
C890 C 0.5111 0.59296 0.05612 0.0
C891 C 0.49266 0.56531 0.07341 0.0
C892 C 0.49682 0.59629 0.03083 0.0
C893 C 0.46304 0.57168 0.02313 0.0
C894 C 0.44486 0.543 0.04002 0.0
C895 C 0.46006 0.54007 0.06501 0.0
C896 C 0.51724 0.62696 0.01313 0.0
C897 C 0.40868 0.51645 0.03267 0.0
C898 C 0.41618 0.6036 0.97919 0.0
C899 C 0.41833 0.59319 0.95185 0.0
C900 C 0.42954 0.59564 0.00273 0.0
C901 C 0.44599 0.5774 -0.00129 0.0
C902 C 0.44768 0.56631 0.97122 0.0
C903 C 0.43354 0.5741 0.94812 0.0
C904 C 0.42674 0.60742 0.03183 0.0
C905 C 0.4655 0.54729 0.96609 0.0
H906 H 0.53626 0.61251 0.06295 0.0
H907 H 0.44578 0.51896 0.07878 0.0
H908 H 0.5168 0.62011 0.99054 0.0
H909 H 0.50564 0.64262 0.01424 0.0
H910 H 0.54423 0.64194 0.02047 0.0
H911 H 0.39932 0.49435 0.04643 0.0
H912 H 0.3916 0.52653 0.03518 0.0
H913 H 0.40672 0.5086 0.0102 0.0
H914 H 0.40421 0.61814 0.98217 0.0
H915 H 0.43542 0.56614 0.92699 0.0
H916 H 0.45256 0.6256 0.04016 0.0
H917 H 0.4152 0.58632 0.04681 0.0
H918 H 0.41109 0.61927 0.0316 0.0
H919 H 0.49304 0.56317 0.97143 0.0
H920 H 0.46298 0.5389 0.94369 0.0
H921 H 0.455 0.52533 0.98008 0.0
C922 C 0.92782 0.43776 0.23133 0.0
C923 C 0.94864 0.47217 0.23435 0.0
C924 C 0.91085 0.42362 0.20562 0.0
C925 C 0.91457 0.44453 0.18264 0.0
C926 C 0.93824 0.47902 0.18478 0.0
C927 C 0.95516 0.49247 0.21071 0.0
C928 C 0.8863 0.3867 0.2041 0.0
C929 C 0.94298 0.50215 0.16076 0.0
C930 C 0.8719 0.40695 0.11155 0.0
C931 C 0.84114 0.40666 0.11394 0.0
C932 C 0.89617 0.4191 0.13375 0.0
C933 C 0.8895 0.43129 0.15877 0.0
C934 C 0.85839 0.43079 0.16134 0.0
C935 C 0.8346 0.41842 0.13895 0.0
C936 C 0.92896 0.41906 0.1304 0.0
C937 C 0.85026 0.44358 0.18773 0.0
H938 H 0.92291 0.42213 0.24971 0.0
H939 H 0.9711 0.51911 0.21318 0.0
H940 H 0.85979 0.38149 0.2059 0.0
H941 H 0.88824 0.37651 0.18345 0.0
H942 H 0.89097 0.37352 0.22147 0.0
H943 H 0.9662 0.52697 0.16387 0.0
H944 H 0.94478 0.4918 0.14016 0.0
H945 H 0.92051 0.50524 0.15948 0.0
H946 H 0.87715 0.39791 0.09228 0.0
H947 H 0.81094 0.41831 0.141 0.0
H948 H 0.93186 0.40489 0.14788 0.0
H949 H 0.95107 0.44476 0.13183 0.0
H950 H 0.92997 0.4081 0.10983 0.0
H951 H 0.8503 0.4294 0.20651 0.0
H952 H 0.82502 0.44166 0.18623 0.0
H953 H 0.87014 0.4699 0.19145 0.0
loop_
_geom_bond_atom_site_label_1
_geom_bond_atom_site_label_2
_geom_bond_distance
_geom_bond_site_symmetry_2
_ccdc_geom_bond_type
H0 C6 0.930 . S
H1 C9 0.931 . S
H2 C11 0.931 . S
H3 C13 0.930 . S
H4 C15 0.930 . S
H5 C17 0.931 . S
C6 H0 0.930 . S
C6 C7 1.380 . S
C6 C8 1.394 . S
C7 C6 1.380 . S
C7 C11 1.382 . S
C8 C6 1.394 . S
C8 C9 1.400 . S
C9 H1 0.931 . S
C9 C8 1.400 . S
C9 C10 1.375 . S
C10 C9 1.375 . S
C10 C11 1.415 . S
C10 C12 1.501 1_455 S
C11 H2 0.931 . S
C11 C7 1.382 . S
C11 C10 1.415 . S
C12 C10 1.501 1_655 S
C12 C13 1.384 . S
C12 C17 1.408 . S
C13 H3 0.930 . S
C13 C12 1.384 . S
C13 C14 1.389 . S
C14 C13 1.389 . S
C14 C15 1.405 . S
C15 H4 0.930 . S
C15 C14 1.405 . S
C15 C16 1.364 . S
C16 C15 1.364 . S
C16 C17 1.400 . S
C17 H5 0.931 . S
C17 C12 1.408 . S
C17 C16 1.400 . S
H18 C24 0.930 . S
H19 C27 0.931 . S
H20 C29 0.931 . S
H21 C31 0.930 . S
H22 C33 0.930 . S
H23 C35 0.931 1_545 S
C24 H18 0.930 . S
C24 C25 1.380 . S
C24 C26 1.394 . S
C25 C24 1.380 . S
C25 C29 1.382 . S
C26 C24 1.394 . S
C26 C27 1.400 . S
C27 H19 0.931 . S
C27 C26 1.400 . S
C27 C28 1.375 . S
C28 C27 1.375 . S
C28 C29 1.415 . S
C28 C30 1.501 1_545 S
C29 H20 0.931 . S
C29 C25 1.382 . S
C29 C28 1.415 . S
C30 C28 1.501 1_565 S
C30 C31 1.384 . S
C30 C35 1.408 . S
C31 H21 0.930 . S
C31 C30 1.384 . S
C31 C32 1.389 . S
C32 C31 1.389 . S
C32 C33 1.405 . S
C33 H22 0.930 . S
C33 C32 1.405 . S
C33 C34 1.364 . S
C34 C33 1.364 . S
C34 C35 1.400 . S
C35 H23 0.931 1_565 S
C35 C30 1.408 . S
C35 C34 1.400 . S
H36 C42 0.930 . S
H37 C45 0.931 . S
H38 C47 0.931 . S
H39 C49 0.930 . S
H40 C51 0.930 . S
H41 C53 0.931 . S
C42 H36 0.930 . S
C42 C43 1.380 . S
C42 C44 1.394 . S
C43 C42 1.380 . S
C43 C47 1.382 . S
C44 C42 1.394 . S
C44 C45 1.400 . S
C45 H37 0.931 . S
C45 C44 1.400 . S
C45 C46 1.375 . S
C46 C45 1.375 . S
C46 C47 1.415 . S
C46 C48 1.501 . S
C47 H38 0.931 . S
C47 C43 1.382 . S
C47 C46 1.415 . S
C48 C46 1.501 . S
C48 C49 1.384 . S
C48 C53 1.408 . S
C49 H39 0.930 . S
C49 C48 1.384 . S
C49 C50 1.389 . S
C50 C49 1.389 . S
C50 C51 1.405 . S
C51 H40 0.930 . S
C51 C50 1.405 . S
C51 C52 1.364 . S
C52 C51 1.364 . S
C52 C53 1.400 . S
C53 H41 0.931 . S
C53 C48 1.408 . S
C53 C52 1.400 . S
H54 C60 0.930 . S
H55 C63 0.931 . S
H56 C65 0.931 . S
H57 C67 0.930 . S
H58 C69 0.930 . S
H59 C71 0.931 . S
C60 H54 0.930 . S
C60 C61 1.380 . S
C60 C62 1.394 . S
C61 C60 1.380 . S
C61 C65 1.382 . S
C62 C60 1.394 . S
C62 C63 1.400 . S
C63 H55 0.931 . S
C63 C62 1.400 . S
C63 C64 1.375 . S
C64 C63 1.375 . S
C64 C65 1.415 . S
C64 C66 1.501 1_455 S
C65 H56 0.931 . S
C65 C61 1.382 . S
C65 C64 1.415 . S
C66 C64 1.501 1_655 S
C66 C67 1.384 . S
C66 C71 1.408 . S
C67 H57 0.930 . S
C67 C66 1.384 . S
C67 C68 1.389 . S
C68 C67 1.389 . S
C68 C69 1.405 . S
C69 H58 0.930 . S
C69 C68 1.405 . S
C69 C70 1.364 . S
C70 C69 1.364 . S
C70 C71 1.400 . S
C71 H59 0.931 . S
C71 C66 1.408 . S
C71 C70 1.400 . S
H72 C78 0.930 . S
H73 C81 0.931 . S
H74 C83 0.931 . S
H75 C85 0.930 . S
H76 C87 0.930 . S
H77 C89 0.931 . S
C78 H72 0.930 . S
C78 C79 1.380 . S
C78 C80 1.394 1_554 S
C79 C78 1.380 . S
C79 C83 1.382 . S
C80 C78 1.394 1_556 S
C80 C81 1.400 . S
C81 H73 0.931 . S
C81 C80 1.400 . S
C81 C82 1.375 . S
C82 C81 1.375 . S
C82 C83 1.415 1_556 S
C82 C84 1.501 1_565 S
C83 H74 0.931 . S
C83 C79 1.382 . S
C83 C82 1.415 1_554 S
C84 C82 1.501 1_545 S
C84 C85 1.384 1_556 S
C84 C89 1.408 . S
C85 H75 0.930 . S
C85 C84 1.384 1_554 S
C85 C86 1.389 1_554 S
C86 C85 1.389 1_556 S
C86 C87 1.405 . S
C87 H76 0.930 . S
C87 C86 1.405 . S
C87 C88 1.364 . S
C88 C87 1.364 . S
C88 C89 1.400 . S
C89 H77 0.931 . S
C89 C84 1.408 . S
C89 C88 1.400 . S
H90 C96 0.930 . S
H91 C99 0.931 . S
H92 C101 0.931 . S
H93 C103 0.930 . S
H94 C105 0.930 . S
H95 C107 0.931 . S
C96 H90 0.930 . S
C96 C97 1.380 . S
C96 C98 1.394 . S
C97 C96 1.380 . S
C97 C101 1.382 . S
C98 C96 1.394 . S
C98 C99 1.400 . S
C99 H91 0.931 . S
C99 C98 1.400 . S
C99 C100 1.375 . S
C100 C99 1.375 . S
C100 C101 1.415 . S
C100 C102 1.501 . S
C101 H92 0.931 . S
C101 C97 1.382 . S
C101 C100 1.415 . S
C102 C100 1.501 . S
C102 C103 1.384 . S
C102 C107 1.408 . S
C103 H93 0.930 . S
C103 C102 1.384 . S
C103 C104 1.389 . S
C104 C103 1.389 . S
C104 C105 1.405 . S
C105 H94 0.930 . S
C105 C104 1.405 . S
C105 C106 1.364 . S
C106 C105 1.364 . S
C106 C107 1.400 . S
C107 H95 0.931 . S
C107 C102 1.408 . S
C107 C106 1.400 . S
C108 O109 1.160 . S
C108 O115 1.185 . S
O109 C108 1.160 . S
O110 Zn111 1.899 . S
O110 C118 1.284 . S
Zn111 O110 1.899 . S
Zn111 O112 2.032 . S
Zn111 O115 2.086 . S
Zn111 O120 1.977 . S
O112 Zn111 2.032 . S
O112 C116 1.278 . S
C113 O114 1.203 . S
C113 O120 1.267 . S
O114 C113 1.203 . S
O115 C108 1.185 . S
O115 Zn111 2.086 . S
C116 O112 1.278 . S
C116 O117 1.211 . S
O117 C116 1.211 . S
C118 O110 1.284 . S
C118 O119 1.273 . S
O119 C118 1.273 . S
O120 Zn111 1.977 . S
O120 C113 1.267 . S
C121 O122 1.160 . S
C121 O128 1.185 . S
O122 C121 1.160 . S
O123 Zn124 1.899 . S
O123 C131 1.284 . S
Zn124 O123 1.899 . S
Zn124 O125 2.032 . S
Zn124 O128 2.086 . S
Zn124 O133 1.977 . S
O125 Zn124 2.032 . S
O125 C129 1.278 . S
C126 O127 1.203 . S
C126 O133 1.267 . S
O127 C126 1.203 . S
O128 C121 1.185 . S
O128 Zn124 2.086 . S
C129 O125 1.278 . S
C129 O130 1.211 . S
O130 C129 1.211 . S
C131 O123 1.284 . S
C131 O132 1.273 . S
O132 C131 1.273 . S
O133 Zn124 1.977 . S
O133 C126 1.267 . S
C134 O135 1.160 . S
C134 O141 1.185 . S
O135 C134 1.160 . S
O136 Zn137 1.899 . S
O136 C144 1.284 . S
Zn137 O136 1.899 . S
Zn137 O138 2.032 . S
Zn137 O141 2.086 . S
Zn137 O146 1.977 . S
O138 Zn137 2.032 . S
O138 C142 1.278 . S
C139 O140 1.203 . S
C139 O146 1.267 . S
O140 C139 1.203 . S
O141 C134 1.185 . S
O141 Zn137 2.086 . S
C142 O138 1.278 . S
C142 O143 1.211 . S
O143 C142 1.211 . S
C144 O136 1.284 . S
C144 O145 1.273 . S
O145 C144 1.273 . S
O146 Zn137 1.977 . S
O146 C139 1.267 . S
C147 O148 1.160 . S
C147 O154 1.185 . S
O148 C147 1.160 . S
O149 Zn150 1.899 . S
O149 C157 1.284 . S
Zn150 O149 1.899 . S
Zn150 O151 2.032 . S
Zn150 O154 2.086 . S
Zn150 O159 1.977 . S
O151 Zn150 2.032 . S
O151 C155 1.278 . S
C152 O153 1.203 . S
C152 O159 1.267 . S
O153 C152 1.203 . S
O154 C147 1.185 . S
O154 Zn150 2.086 . S
C155 O151 1.278 . S
C155 O156 1.211 . S
O156 C155 1.211 . S
C157 O149 1.284 . S
C157 O158 1.273 . S
O158 C157 1.273 . S
O159 Zn150 1.977 . S
O159 C152 1.267 . S
C160 O161 1.160 . S
C160 O167 1.185 . S
O161 C160 1.160 . S
O162 Zn163 1.899 . S
O162 C170 1.284 . S
Zn163 O162 1.899 . S
Zn163 O164 2.032 . S
Zn163 O167 2.086 . S
Zn163 O172 1.977 . S
O164 Zn163 2.032 . S
O164 C168 1.278 . S
C165 O166 1.203 . S
C165 O172 1.267 . S
O166 C165 1.203 . S
O167 C160 1.185 . S
O167 Zn163 2.086 . S
C168 O164 1.278 . S
C168 O169 1.211 . S
O169 C168 1.211 . S
C170 O162 1.284 . S
C170 O171 1.273 . S
O171 C170 1.273 . S
O172 Zn163 1.977 . S
O172 C165 1.267 . S
C173 O174 1.160 . S
C173 O180 1.185 . S
O174 C173 1.160 . S
O175 Zn176 1.899 . S
O175 C183 1.284 . S
Zn176 O175 1.899 . S
Zn176 O177 2.032 . S
Zn176 O180 2.086 . S
Zn176 O185 1.977 . S
O177 Zn176 2.032 . S
O177 C181 1.278 . S
C178 O179 1.203 . S
C178 O185 1.267 . S
O179 C178 1.203 . S
O180 C173 1.185 . S
O180 Zn176 2.086 . S
C181 O177 1.278 . S
C181 O182 1.211 . S
O182 C181 1.211 . S
C183 O175 1.284 . S
C183 O184 1.273 . S
O184 C183 1.273 . S
O185 Zn176 1.977 . S
O185 C178 1.267 . S
C186 C187 1.391 . S
C186 C188 1.394 . S
C186 H202 0.931 . S
C187 C186 1.391 . S
C187 C191 1.376 . S
C188 C186 1.394 . S
C188 C189 1.369 . S
C188 C192 1.531 . S
C189 C188 1.369 . S
C189 C190 1.410 . S
C189 C197 1.503 . S
C190 C189 1.410 . S
C190 C191 1.392 . S
C190 C193 1.511 . S
C191 C187 1.376 . S
C191 C190 1.392 . S
C191 H203 0.929 . S
C192 C188 1.531 . S
C192 H204 0.960 . S
C192 H205 0.962 . S
C192 H206 0.960 . S
C193 C190 1.511 . S
C193 H207 0.961 . S
C193 H208 0.961 . S
C193 H209 0.961 . S
C194 C195 1.370 . S
C194 C196 1.363 . S
C194 H210 0.931 . S
C195 C194 1.370 . S
C195 C199 1.408 . S
C196 C194 1.363 . S
C196 C197 1.370 . S
C196 C200 1.524 . S
C197 C189 1.503 . S
C197 C196 1.370 . S
C197 C198 1.403 . S
C198 C197 1.403 . S
C198 C199 1.404 . S
C198 C201 1.539 . S
C199 C195 1.408 . S
C199 C198 1.404 . S
C199 H211 0.930 . S
C200 C196 1.524 . S
C200 H212 0.956 . S
C200 H213 0.961 . S
C200 H214 0.961 . S
C201 C198 1.539 . S
C201 H215 0.958 . S
C201 H216 0.961 . S
C201 H217 0.960 . S
H202 C186 0.931 . S
H203 C191 0.929 . S
H204 C192 0.960 . S
H205 C192 0.962 . S
H206 C192 0.960 . S
H207 C193 0.961 . S
H208 C193 0.961 . S
H209 C193 0.961 . S
H210 C194 0.931 . S
H211 C199 0.930 . S
H212 C200 0.956 . S
H213 C200 0.961 . S
H214 C200 0.961 . S
H215 C201 0.958 . S
H216 C201 0.961 . S
H217 C201 0.960 . S
C218 C219 1.391 . S
C218 C220 1.394 . S
C218 H234 0.931 . S
C219 C218 1.391 . S
C219 C223 1.376 . S
C220 C218 1.394 . S
C220 C221 1.369 . S
C220 C224 1.531 . S
C221 C220 1.369 . S
C221 C222 1.410 . S
C221 C229 1.503 . S
C222 C221 1.410 . S
C222 C223 1.392 . S
C222 C225 1.511 . S
C223 C219 1.376 . S
C223 C222 1.392 . S
C223 H235 0.929 . S
C224 C220 1.531 . S
C224 H236 0.960 . S
C224 H237 0.962 . S
C224 H238 0.960 . S
C225 C222 1.511 . S
C225 H239 0.961 . S
C225 H240 0.961 . S
C225 H241 0.961 . S
C226 C227 1.370 . S
C226 C228 1.363 . S
C226 H242 0.931 . S
C227 C226 1.370 . S
C227 C231 1.408 . S
C228 C226 1.363 . S
C228 C229 1.370 . S
C228 C232 1.524 . S
C229 C221 1.503 . S
C229 C228 1.370 . S
C229 C230 1.403 . S
C230 C229 1.403 . S
C230 C231 1.404 . S
C230 C233 1.539 . S
C231 C227 1.408 . S
C231 C230 1.404 . S
C231 H243 0.930 . S
C232 C228 1.524 . S
C232 H244 0.956 . S
C232 H245 0.961 . S
C232 H246 0.961 . S
C233 C230 1.539 . S
C233 H247 0.958 . S
C233 H248 0.961 . S
C233 H249 0.960 . S
H234 C218 0.931 . S
H235 C223 0.929 . S
H236 C224 0.960 . S
H237 C224 0.962 . S
H238 C224 0.960 . S
H239 C225 0.961 . S
H240 C225 0.961 . S
H241 C225 0.961 . S
H242 C226 0.931 . S
H243 C231 0.930 . S
H244 C232 0.956 . S
H245 C232 0.961 . S
H246 C232 0.961 . S
H247 C233 0.958 . S
H248 C233 0.961 . S
H249 C233 0.960 . S
C250 C251 1.391 . S
C250 C252 1.394 . S
C250 H266 0.931 . S
C251 C250 1.391 . S
C251 C255 1.376 . S
C252 C250 1.394 . S
C252 C253 1.369 . S
C252 C256 1.531 . S
C253 C252 1.369 . S
C253 C254 1.410 . S
C253 C261 1.503 . S
C254 C253 1.410 . S
C254 C255 1.392 . S
C254 C257 1.511 . S
C255 C251 1.376 . S
C255 C254 1.392 . S
C255 H267 0.929 . S
C256 C252 1.531 . S
C256 H268 0.960 . S
C256 H269 0.962 . S
C256 H270 0.960 . S
C257 C254 1.511 . S
C257 H271 0.961 . S
C257 H272 0.961 . S
C257 H273 0.961 . S
C258 C259 1.370 . S
C258 C260 1.363 . S
C258 H274 0.931 . S
C259 C258 1.370 . S
C259 C263 1.408 . S
C260 C258 1.363 . S
C260 C261 1.370 . S
C260 C264 1.524 . S
C261 C253 1.503 . S
C261 C260 1.370 . S
C261 C262 1.403 . S
C262 C261 1.403 . S
C262 C263 1.404 . S
C262 C265 1.539 . S
C263 C259 1.408 . S
C263 C262 1.404 . S
C263 H275 0.930 . S
C264 C260 1.524 . S
C264 H276 0.956 . S
C264 H277 0.961 . S
C264 H278 0.961 . S
C265 C262 1.539 . S
C265 H279 0.958 . S
C265 H280 0.961 . S
C265 H281 0.960 . S
H266 C250 0.931 . S
H267 C255 0.929 . S
H268 C256 0.960 . S
H269 C256 0.962 . S
H270 C256 0.960 . S
H271 C257 0.961 . S
H272 C257 0.961 . S
H273 C257 0.961 . S
H274 C258 0.931 . S
H275 C263 0.930 . S
H276 C264 0.956 . S
H277 C264 0.961 . S
H278 C264 0.961 . S
H279 C265 0.958 . S
H280 C265 0.961 . S
H281 C265 0.960 . S
C282 C283 1.391 . S
C282 C284 1.394 . S
C282 H298 0.931 . S
C283 C282 1.391 . S
C283 C287 1.376 . S
C284 C282 1.394 . S
C284 C285 1.369 . S
C284 C288 1.531 . S
C285 C284 1.369 . S
C285 C286 1.410 . S
C285 C293 1.503 . S
C286 C285 1.410 . S
C286 C287 1.392 . S
C286 C289 1.511 . S
C287 C283 1.376 . S
C287 C286 1.392 . S
C287 H299 0.929 . S
C288 C284 1.531 . S
C288 H300 0.960 . S
C288 H301 0.962 . S
C288 H302 0.960 . S
C289 C286 1.511 . S
C289 H303 0.961 . S
C289 H304 0.961 . S
C289 H305 0.961 . S
C290 C291 1.370 . S
C290 C292 1.363 . S
C290 H306 0.931 . S
C291 C290 1.370 . S
C291 C295 1.408 . S
C292 C290 1.363 . S
C292 C293 1.370 . S
C292 C296 1.524 . S
C293 C285 1.503 . S
C293 C292 1.370 . S
C293 C294 1.403 . S
C294 C293 1.403 . S
C294 C295 1.404 . S
C294 C297 1.539 . S
C295 C291 1.408 . S
C295 C294 1.404 . S
C295 H307 0.930 . S
C296 C292 1.524 . S
C296 H308 0.956 . S
C296 H309 0.961 . S
C296 H310 0.961 . S
C297 C294 1.539 . S
C297 H311 0.958 . S
C297 H312 0.961 . S
C297 H313 0.960 . S
H298 C282 0.931 . S
H299 C287 0.929 . S
H300 C288 0.960 . S
H301 C288 0.962 . S
H302 C288 0.960 . S
H303 C289 0.961 . S
H304 C289 0.961 . S
H305 C289 0.961 . S
H306 C290 0.931 . S
H307 C295 0.930 . S
H308 C296 0.956 . S
H309 C296 0.961 . S
H310 C296 0.961 . S
H311 C297 0.958 . S
H312 C297 0.961 . S
H313 C297 0.960 . S
C314 C315 1.391 . S
C314 C316 1.394 . S
C314 H330 0.931 . S
C315 C314 1.391 . S
C315 C319 1.376 . S
C316 C314 1.394 . S
C316 C317 1.369 . S
C316 C320 1.531 . S
C317 C316 1.369 . S
C317 C318 1.410 . S
C317 C325 1.503 . S
C318 C317 1.410 . S
C318 C319 1.392 . S
C318 C321 1.511 . S
C319 C315 1.376 . S
C319 C318 1.392 . S
C319 H331 0.929 . S
C320 C316 1.531 . S
C320 H332 0.960 . S
C320 H333 0.962 . S
C320 H334 0.960 . S
C321 C318 1.511 . S
C321 H335 0.961 . S
C321 H336 0.961 . S
C321 H337 0.961 . S
C322 C323 1.370 . S
C322 C324 1.363 . S
C322 H338 0.931 . S
C323 C322 1.370 . S
C323 C327 1.408 . S
C324 C322 1.363 . S
C324 C325 1.370 . S
C324 C328 1.524 . S
C325 C317 1.503 . S
C325 C324 1.370 . S
C325 C326 1.403 . S
C326 C325 1.403 . S
C326 C327 1.404 . S
C326 C329 1.539 . S
C327 C323 1.408 . S
C327 C326 1.404 . S
C327 H339 0.930 . S
C328 C324 1.524 . S
C328 H340 0.956 . S
C328 H341 0.961 . S
C328 H342 0.961 . S
C329 C326 1.539 . S
C329 H343 0.958 1_556 S
C329 H344 0.961 . S
C329 H345 0.960 . S
H330 C314 0.931 . S
H331 C319 0.929 . S
H332 C320 0.960 . S
H333 C320 0.962 . S
H334 C320 0.960 . S
H335 C321 0.961 . S
H336 C321 0.961 . S
H337 C321 0.961 . S
H338 C322 0.931 . S
H339 C327 0.930 . S
H340 C328 0.956 . S
H341 C328 0.961 . S
H342 C328 0.961 . S
H343 C329 0.958 1_554 S
H344 C329 0.961 . S
H345 C329 0.960 . S
C346 C347 1.391 . S
C346 C348 1.394 . S
C346 H362 0.931 . S
C347 C346 1.391 . S
C347 C351 1.376 . S
C348 C346 1.394 . S
C348 C349 1.369 . S
C348 C352 1.531 . S
C349 C348 1.369 . S
C349 C350 1.410 . S
C349 C357 1.503 . S
C350 C349 1.410 . S
C350 C351 1.392 . S
C350 C353 1.511 . S
C351 C347 1.376 . S
C351 C350 1.392 . S
C351 H363 0.929 . S
C352 C348 1.531 . S
C352 H364 0.960 . S
C352 H365 0.962 . S
C352 H366 0.960 . S
C353 C350 1.511 . S
C353 H367 0.961 . S
C353 H368 0.961 . S
C353 H369 0.961 . S
C354 C355 1.370 . S
C354 C356 1.363 . S
C354 H370 0.931 . S
C355 C354 1.370 . S
C355 C359 1.408 . S
C356 C354 1.363 . S
C356 C357 1.370 . S
C356 C360 1.524 . S
C357 C349 1.503 . S
C357 C356 1.370 . S
C357 C358 1.403 . S
C358 C357 1.403 . S
C358 C359 1.404 . S
C358 C361 1.539 . S
C359 C355 1.408 . S
C359 C358 1.404 . S
C359 H371 0.930 . S
C360 C356 1.524 . S
C360 H372 0.956 . S
C360 H373 0.961 . S
C360 H374 0.961 . S
C361 C358 1.539 . S
C361 H375 0.958 . S
C361 H376 0.961 . S
C361 H377 0.960 . S
H362 C346 0.931 . S
H363 C351 0.929 . S
H364 C352 0.960 . S
H365 C352 0.962 . S
H366 C352 0.960 . S
H367 C353 0.961 . S
H368 C353 0.961 . S
H369 C353 0.961 . S
H370 C354 0.931 . S
H371 C359 0.930 . S
H372 C360 0.956 . S
H373 C360 0.961 . S
H374 C360 0.961 . S
H375 C361 0.958 . S
H376 C361 0.961 . S
H377 C361 0.960 . S
C378 C379 1.391 . S
C378 C380 1.394 . S
C378 H394 0.931 . S
C379 C378 1.391 . S
C379 C383 1.376 . S
C380 C378 1.394 . S
C380 C381 1.369 . S
C380 C384 1.531 . S
C381 C380 1.369 . S
C381 C382 1.410 . S
C381 C389 1.503 . S
C382 C381 1.410 . S
C382 C383 1.392 . S
C382 C385 1.511 . S
C383 C379 1.376 . S
C383 C382 1.392 . S
C383 H395 0.929 . S
C384 C380 1.531 . S
C384 H396 0.960 . S
C384 H397 0.962 . S
C384 H398 0.960 . S
C385 C382 1.511 . S
C385 H399 0.961 . S
C385 H400 0.961 . S
C385 H401 0.961 . S
C386 C387 1.370 . S
C386 C388 1.363 . S
C386 H402 0.931 . S
C387 C386 1.370 . S
C387 C391 1.408 . S
C388 C386 1.363 . S
C388 C389 1.370 . S
C388 C392 1.524 . S
C389 C381 1.503 . S
C389 C388 1.370 . S
C389 C390 1.403 . S
C390 C389 1.403 . S
C390 C391 1.404 . S
C390 C393 1.539 . S
C391 C387 1.408 . S
C391 C390 1.404 . S
C391 H403 0.930 . S
C392 C388 1.524 . S
C392 H404 0.956 . S
C392 H405 0.961 . S
C392 H406 0.961 . S
C393 C390 1.539 . S
C393 H407 0.958 . S
C393 H408 0.961 . S
C393 H409 0.960 . S
H394 C378 0.931 . S
H395 C383 0.929 . S
H396 C384 0.960 . S
H397 C384 0.962 . S
H398 C384 0.960 . S
H399 C385 0.961 . S
H400 C385 0.961 . S
H401 C385 0.961 . S
H402 C386 0.931 . S
H403 C391 0.930 . S
H404 C392 0.956 . S
H405 C392 0.961 . S
H406 C392 0.961 . S
H407 C393 0.958 . S
H408 C393 0.961 . S
H409 C393 0.960 . S
C410 C411 1.391 . S
C410 C412 1.394 . S
C410 H426 0.931 . S
C411 C410 1.391 . S
C411 C415 1.376 . S
C412 C410 1.394 . S
C412 C413 1.369 . S
C412 C416 1.531 . S
C413 C412 1.369 . S
C413 C414 1.410 . S
C413 C421 1.503 . S
C414 C413 1.410 . S
C414 C415 1.392 . S
C414 C417 1.511 . S
C415 C411 1.376 . S
C415 C414 1.392 . S
C415 H427 0.929 . S
C416 C412 1.531 . S
C416 H428 0.960 . S
C416 H429 0.962 . S
C416 H430 0.960 . S
C417 C414 1.511 . S
C417 H431 0.961 . S
C417 H432 0.961 . S
C417 H433 0.961 . S
C418 C419 1.370 . S
C418 C420 1.363 . S
C418 H434 0.931 . S
C419 C418 1.370 . S
C419 C423 1.408 . S
C420 C418 1.363 . S
C420 C421 1.370 . S
C420 C424 1.524 . S
C421 C413 1.503 . S
C421 C420 1.370 . S
C421 C422 1.403 . S
C422 C421 1.403 . S
C422 C423 1.404 . S
C422 C425 1.539 . S
C423 C419 1.408 . S
C423 C422 1.404 . S
C423 H435 0.930 . S
C424 C420 1.524 . S
C424 H436 0.956 . S
C424 H437 0.961 . S
C424 H438 0.961 . S
C425 C422 1.539 . S
C425 H439 0.958 . S
C425 H440 0.961 . S
C425 H441 0.960 . S
H426 C410 0.931 . S
H427 C415 0.929 . S
H428 C416 0.960 . S
H429 C416 0.962 . S
H430 C416 0.960 . S
H431 C417 0.961 . S
H432 C417 0.961 . S
H433 C417 0.961 . S
H434 C418 0.931 . S
H435 C423 0.930 . S
H436 C424 0.956 . S
H437 C424 0.961 . S
H438 C424 0.961 . S
H439 C425 0.958 . S
H440 C425 0.961 . S
H441 C425 0.960 . S
C442 C443 1.391 . S
C442 C444 1.394 . S
C442 H458 0.931 . S
C443 C442 1.391 . S
C443 C447 1.376 . S
C444 C442 1.394 . S
C444 C445 1.369 . S
C444 C448 1.531 . S
C445 C444 1.369 . S
C445 C446 1.410 . S
C445 C453 1.503 . S
C446 C445 1.410 . S
C446 C447 1.392 . S
C446 C449 1.511 . S
C447 C443 1.376 . S
C447 C446 1.392 . S
C447 H459 0.929 . S
C448 C444 1.531 . S
C448 H460 0.960 . S
C448 H461 0.962 . S
C448 H462 0.960 . S
C449 C446 1.511 . S
C449 H463 0.961 . S
C449 H464 0.961 . S
C449 H465 0.961 . S
C450 C451 1.370 . S
C450 C452 1.363 . S
C450 H466 0.931 . S
C451 C450 1.370 . S
C451 C455 1.408 . S
C452 C450 1.363 . S
C452 C453 1.370 . S
C452 C456 1.524 . S
C453 C445 1.503 . S
C453 C452 1.370 . S
C453 C454 1.403 . S
C454 C453 1.403 . S
C454 C455 1.404 . S
C454 C457 1.539 . S
C455 C451 1.408 . S
C455 C454 1.404 . S
C455 H467 0.930 . S
C456 C452 1.524 . S
C456 H468 0.956 . S
C456 H469 0.961 . S
C456 H470 0.961 . S
C457 C454 1.539 . S
C457 H471 0.958 . S
C457 H472 0.961 . S
C457 H473 0.960 . S
H458 C442 0.931 . S
H459 C447 0.929 . S
H460 C448 0.960 . S
H461 C448 0.962 . S
H462 C448 0.960 . S
H463 C449 0.961 . S
H464 C449 0.961 . S
H465 C449 0.961 . S
H466 C450 0.931 . S
H467 C455 0.930 . S
H468 C456 0.956 . S
H469 C456 0.961 . S
H470 C456 0.961 . S
H471 C457 0.958 . S
H472 C457 0.961 . S
H473 C457 0.960 . S
C474 C475 1.391 . S
C474 C476 1.394 . S
C474 H490 0.931 . S
C475 C474 1.391 . S
C475 C479 1.376 . S
C476 C474 1.394 . S
C476 C477 1.369 . S
C476 C480 1.531 . S
C477 C476 1.369 . S
C477 C478 1.410 . S
C477 C485 1.503 . S
C478 C477 1.410 . S
C478 C479 1.392 . S
C478 C481 1.511 1_554 S
C479 C475 1.376 . S
C479 C478 1.392 . S
C479 H491 0.929 1_554 S
C480 C476 1.531 . S
C480 H492 0.960 . S
C480 H493 0.962 . S
C480 H494 0.960 . S
C481 C478 1.511 1_556 S
C481 H495 0.961 . S
C481 H496 0.961 . S
C481 H497 0.961 1_556 S
C482 C483 1.370 . S
C482 C484 1.363 . S
C482 H498 0.931 . S
C483 C482 1.370 . S
C483 C487 1.408 . S
C484 C482 1.363 . S
C484 C485 1.370 . S
C484 C488 1.547 . S
C485 C477 1.503 . S
C485 C484 1.370 . S
C485 C486 1.403 . S
C486 C485 1.403 . S
C486 C487 1.404 . S
C486 C489 1.539 . S
C487 C483 1.408 . S
C487 C486 1.404 . S
C487 H499 0.930 . S
C488 C484 1.547 . S
C488 H500 0.968 . S
C488 H501 0.941 1_554 S
C488 H502 0.947 1_554 S
C489 C486 1.539 . S
C489 H503 0.958 . S
C489 H504 0.961 . S
C489 H505 0.960 . S
H490 C474 0.931 . S
H491 C479 0.929 1_556 S
H492 C480 0.960 . S
H493 C480 0.962 . S
H494 C480 0.960 . S
H495 C481 0.961 . S
H496 C481 0.961 . S
H497 C481 0.961 1_554 S
H498 C482 0.931 . S
H499 C487 0.930 . S
H500 C488 0.968 . S
H501 C488 0.941 1_556 S
H502 C488 0.947 1_556 S
H503 C489 0.958 . S
H504 C489 0.961 . S
H505 C489 0.960 . S
C506 C507 1.391 . S
C506 C508 1.394 . S
C506 H522 0.931 . S
C507 C506 1.391 . S
C507 C511 1.376 . S
C508 C506 1.394 . S
C508 C509 1.369 . S
C508 C512 1.531 . S
C509 C508 1.369 . S
C509 C510 1.410 . S
C509 C517 1.503 . S
C510 C509 1.410 . S
C510 C511 1.392 . S
C510 C513 1.511 . S
C511 C507 1.376 . S
C511 C510 1.392 . S
C511 H523 0.929 . S
C512 C508 1.531 . S
C512 H524 0.960 . S
C512 H525 0.962 . S
C512 H526 0.960 . S
C513 C510 1.511 . S
C513 H527 0.961 . S
C513 H528 0.961 . S
C513 H529 0.961 . S
C514 C515 1.370 . S
C514 C516 1.363 . S
C514 H530 0.931 . S
C515 C514 1.370 . S
C515 C519 1.408 . S
C516 C514 1.363 . S
C516 C517 1.370 . S
C516 C520 1.524 . S
C517 C509 1.503 . S
C517 C516 1.370 . S
C517 C518 1.403 . S
C518 C517 1.403 . S
C518 C519 1.404 . S
C518 C521 1.539 . S
C519 C515 1.408 . S
C519 C518 1.404 . S
C519 H531 0.930 . S
C520 C516 1.524 . S
C520 H532 0.956 . S
C520 H533 0.961 . S
C520 H534 0.961 . S
C521 C518 1.539 . S
C521 H535 0.958 . S
C521 H536 0.961 . S
C521 H537 0.960 . S
H522 C506 0.931 . S
H523 C511 0.929 . S
H524 C512 0.960 . S
H525 C512 0.962 . S
H526 C512 0.960 . S
H527 C513 0.961 . S
H528 C513 0.961 . S
H529 C513 0.961 . S
H530 C514 0.931 . S
H531 C519 0.930 . S
H532 C520 0.956 . S
H533 C520 0.961 . S
H534 C520 0.961 . S
H535 C521 0.958 . S
H536 C521 0.961 . S
H537 C521 0.960 . S
C538 C539 1.391 . S
C538 C540 1.394 . S
C538 H554 0.931 . S
C539 C538 1.391 . S
C539 C543 1.376 . S
C540 C538 1.394 . S
C540 C541 1.369 . S
C540 C544 1.531 . S
C541 C540 1.369 . S
C541 C542 1.410 . S
C541 C549 1.503 . S
C542 C541 1.410 . S
C542 C543 1.392 . S
C542 C545 1.511 . S
C543 C539 1.376 . S
C543 C542 1.392 . S
C543 H555 0.929 . S
C544 C540 1.531 . S
C544 H556 0.960 . S
C544 H557 0.962 . S
C544 H558 0.960 . S
C545 C542 1.511 . S
C545 H559 0.961 . S
C545 H560 0.961 . S
C545 H561 0.961 . S
C546 C547 1.370 . S
C546 C548 1.363 . S
C546 H562 0.931 . S
C547 C546 1.370 . S
C547 C551 1.408 . S
C548 C546 1.363 . S
C548 C549 1.370 . S
C548 C552 1.524 . S
C549 C541 1.503 . S
C549 C548 1.370 . S
C549 C550 1.403 . S
C550 C549 1.403 . S
C550 C551 1.404 . S
C550 C553 1.539 . S
C551 C547 1.408 . S
C551 C550 1.404 . S
C551 H563 0.930 . S
C552 C548 1.524 . S
C552 H564 0.956 . S
C552 H565 0.961 . S
C552 H566 0.961 . S
C553 C550 1.539 . S
C553 H567 0.958 . S
C553 H568 0.961 . S
C553 H569 0.960 . S
H554 C538 0.931 . S
H555 C543 0.929 . S
H556 C544 0.960 . S
H557 C544 0.962 . S
H558 C544 0.960 . S
H559 C545 0.961 . S
H560 C545 0.961 . S
H561 C545 0.961 . S
H562 C546 0.931 . S
H563 C551 0.930 . S
H564 C552 0.956 . S
H565 C552 0.961 . S
H566 C552 0.961 . S
H567 C553 0.958 . S
H568 C553 0.961 . S
H569 C553 0.960 . S
C570 C571 1.391 . S
C570 C572 1.394 . S
C570 H586 0.931 . S
C571 C570 1.391 . S
C571 C575 1.376 . S
C572 C570 1.394 . S
C572 C573 1.369 . S
C572 C576 1.531 . S
C573 C572 1.369 . S
C573 C574 1.410 . S
C573 C581 1.503 . S
C574 C573 1.410 . S
C574 C575 1.392 . S
C574 C577 1.511 . S
C575 C571 1.376 . S
C575 C574 1.392 . S
C575 H587 0.929 . S
C576 C572 1.531 . S
C576 H588 0.960 . S
C576 H589 0.962 . S
C576 H590 0.960 . S
C577 C574 1.511 . S
C577 H591 0.961 . S
C577 H592 0.961 . S
C577 H593 0.961 . S
C578 C579 1.370 . S
C578 C580 1.363 . S
C578 H594 0.931 . S
C579 C578 1.370 . S
C579 C583 1.408 . S
C580 C578 1.363 . S
C580 C581 1.370 . S
C580 C584 1.524 . S
C581 C573 1.503 . S
C581 C580 1.370 . S
C581 C582 1.403 . S
C582 C581 1.403 . S
C582 C583 1.404 . S
C582 C585 1.539 . S
C583 C579 1.408 . S
C583 C582 1.404 . S
C583 H595 0.930 . S
C584 C580 1.524 . S
C584 H596 0.956 . S
C584 H597 0.961 . S
C584 H598 0.961 . S
C585 C582 1.539 . S
C585 H599 0.958 . S
C585 H600 0.961 . S
C585 H601 0.960 . S
H586 C570 0.931 . S
H587 C575 0.929 . S
H588 C576 0.960 . S
H589 C576 0.962 . S
H590 C576 0.960 . S
H591 C577 0.961 . S
H592 C577 0.961 . S
H593 C577 0.961 . S
H594 C578 0.931 . S
H595 C583 0.930 . S
H596 C584 0.956 . S
H597 C584 0.961 . S
H598 C584 0.961 . S
H599 C585 0.958 . S
H600 C585 0.961 . S
H601 C585 0.960 . S
C602 C603 1.391 . S
C602 C604 1.394 . S
C602 H618 0.931 . S
C603 C602 1.391 . S
C603 C607 1.376 . S
C604 C602 1.394 . S
C604 C605 1.369 . S
C604 C608 1.531 . S
C605 C604 1.369 . S
C605 C606 1.410 . S
C605 C613 1.503 . S
C606 C605 1.410 . S
C606 C607 1.392 . S
C606 C609 1.511 . S
C607 C603 1.376 . S
C607 C606 1.392 . S
C607 H619 0.929 . S
C608 C604 1.531 . S
C608 H620 0.960 . S
C608 H621 0.962 . S
C608 H622 0.960 . S
C609 C606 1.511 . S
C609 H623 0.961 . S
C609 H624 0.961 . S
C609 H625 0.961 . S
C610 C611 1.370 . S
C610 C612 1.363 . S
C610 H626 0.931 . S
C611 C610 1.370 . S
C611 C615 1.408 . S
C612 C610 1.363 . S
C612 C613 1.370 . S
C612 C616 1.524 . S
C613 C605 1.503 . S
C613 C612 1.370 . S
C613 C614 1.403 . S
C614 C613 1.403 . S
C614 C615 1.404 . S
C614 C617 1.539 . S
C615 C611 1.408 . S
C615 C614 1.404 . S
C615 H627 0.930 . S
C616 C612 1.524 . S
C616 H628 0.956 . S
C616 H629 0.961 . S
C616 H630 0.961 . S
C617 C614 1.539 . S
C617 H631 0.958 . S
C617 H632 0.961 . S
C617 H633 0.960 . S
H618 C602 0.931 . S
H619 C607 0.929 . S
H620 C608 0.960 . S
H621 C608 0.962 . S
H622 C608 0.960 . S
H623 C609 0.961 . S
H624 C609 0.961 . S
H625 C609 0.961 . S
H626 C610 0.931 . S
H627 C615 0.930 . S
H628 C616 0.956 . S
H629 C616 0.961 . S
H630 C616 0.961 . S
H631 C617 0.958 . S
H632 C617 0.961 . S
H633 C617 0.960 . S
C634 C635 1.391 . S
C634 C636 1.394 . S
C634 H650 0.931 . S
C635 C634 1.391 . S
C635 C639 1.376 . S
C636 C634 1.394 . S
C636 C637 1.369 . S
C636 C640 1.531 . S
C637 C636 1.369 . S
C637 C638 1.410 . S
C637 C645 1.503 . S
C638 C637 1.410 . S
C638 C639 1.392 . S
C638 C641 1.511 . S
C639 C635 1.376 . S
C639 C638 1.392 . S
C639 H651 0.929 . S
C640 C636 1.531 . S
C640 H652 0.960 . S
C640 H653 0.962 . S
C640 H654 0.960 . S
C641 C638 1.511 . S
C641 H655 0.961 . S
C641 H656 0.961 . S
C641 H657 0.961 . S
C642 C643 1.370 . S
C642 C644 1.363 . S
C642 H658 0.931 . S
C643 C642 1.370 . S
C643 C647 1.408 . S
C644 C642 1.363 . S
C644 C645 1.370 . S
C644 C648 1.524 . S
C645 C637 1.503 . S
C645 C644 1.370 . S
C645 C646 1.403 . S
C646 C645 1.403 . S
C646 C647 1.404 . S
C646 C649 1.539 . S
C647 C643 1.408 . S
C647 C646 1.404 . S
C647 H659 0.930 . S
C648 C644 1.524 . S
C648 H660 0.956 . S
C648 H661 0.961 . S
C648 H662 0.961 . S
C649 C646 1.539 . S
C649 H663 0.958 . S
C649 H664 0.961 . S
C649 H665 0.960 . S
H650 C634 0.931 . S
H651 C639 0.929 . S
H652 C640 0.960 . S
H653 C640 0.962 . S
H654 C640 0.960 . S
H655 C641 0.961 . S
H656 C641 0.961 . S
H657 C641 0.961 . S
H658 C642 0.931 . S
H659 C647 0.930 . S
H660 C648 0.956 . S
H661 C648 0.961 . S
H662 C648 0.961 . S
H663 C649 0.958 . S
H664 C649 0.961 . S
H665 C649 0.960 . S
C666 C667 1.391 . S
C666 C668 1.394 . S
C666 H682 0.931 . S
C667 C666 1.391 . S
C667 C671 1.376 . S
C668 C666 1.394 . S
C668 C669 1.369 . S
C668 C672 1.531 . S
C669 C668 1.369 . S
C669 C670 1.410 . S
C669 C677 1.503 . S
C670 C669 1.410 . S
C670 C671 1.392 . S
C670 C673 1.511 . S
C671 C667 1.376 . S
C671 C670 1.392 . S
C671 H683 0.929 . S
C672 C668 1.531 . S
C672 H684 0.960 . S
C672 H685 0.962 . S
C672 H686 0.960 . S
C673 C670 1.511 . S
C673 H687 0.961 . S
C673 H688 0.961 . S
C673 H689 0.961 . S
C674 C675 1.370 . S
C674 C676 1.363 . S
C674 H690 0.931 . S
C675 C674 1.370 . S
C675 C679 1.408 . S
C676 C674 1.363 . S
C676 C677 1.370 . S
C676 C680 1.524 . S
C677 C669 1.503 . S
C677 C676 1.370 . S
C677 C678 1.403 . S
C678 C677 1.403 . S
C678 C679 1.404 . S
C678 C681 1.539 . S
C679 C675 1.408 . S
C679 C678 1.404 . S
C679 H691 0.930 . S
C680 C676 1.524 . S
C680 H692 0.956 . S
C680 H693 0.961 . S
C680 H694 0.961 . S
C681 C678 1.539 . S
C681 H695 0.958 . S
C681 H696 0.961 . S
C681 H697 0.960 . S
H682 C666 0.931 . S
H683 C671 0.929 . S
H684 C672 0.960 . S
H685 C672 0.962 . S
H686 C672 0.960 . S
H687 C673 0.961 . S
H688 C673 0.961 . S
H689 C673 0.961 . S
H690 C674 0.931 . S
H691 C679 0.930 . S
H692 C680 0.956 . S
H693 C680 0.961 . S
H694 C680 0.961 . S
H695 C681 0.958 . S
H696 C681 0.961 . S
H697 C681 0.960 . S
C698 C699 1.391 . S
C698 C700 1.394 . S
C698 H714 0.931 . S
C699 C698 1.391 . S
C699 C703 1.376 . S
C700 C698 1.394 . S
C700 C701 1.369 . S
C700 C704 1.531 . S
C701 C700 1.369 . S
C701 C702 1.410 . S
C701 C709 1.503 . S
C702 C701 1.410 . S
C702 C703 1.392 . S
C702 C705 1.511 . S
C703 C699 1.376 . S
C703 C702 1.392 . S
C703 H715 0.929 . S
C704 C700 1.531 . S
C704 H716 0.960 . S
C704 H717 0.962 . S
C704 H718 0.960 . S
C705 C702 1.511 . S
C705 H719 0.961 . S
C705 H720 0.961 . S
C705 H721 0.961 . S
C706 C707 1.370 . S
C706 C708 1.363 . S
C706 H722 0.931 . S
C707 C706 1.370 . S
C707 C711 1.408 . S
C708 C706 1.363 . S
C708 C709 1.370 . S
C708 C712 1.524 . S
C709 C701 1.503 . S
C709 C708 1.370 . S
C709 C710 1.403 . S
C710 C709 1.403 . S
C710 C711 1.404 . S
C710 C713 1.539 . S
C711 C707 1.408 . S
C711 C710 1.404 . S
C711 H723 0.930 . S
C712 C708 1.524 . S
C712 H724 0.956 . S
C712 H725 0.961 . S
C712 H726 0.961 . S
C713 C710 1.539 . S
C713 H727 0.958 . S
C713 H728 0.961 . S
C713 H729 0.960 . S
H714 C698 0.931 . S
H715 C703 0.929 . S
H716 C704 0.960 . S
H717 C704 0.962 . S
H718 C704 0.960 . S
H719 C705 0.961 . S
H720 C705 0.961 . S
H721 C705 0.961 . S
H722 C706 0.931 . S
H723 C711 0.930 . S
H724 C712 0.956 . S
H725 C712 0.961 . S
H726 C712 0.961 . S
H727 C713 0.958 . S
H728 C713 0.961 . S
H729 C713 0.960 . S
C730 C731 1.391 . S
C730 C732 1.394 . S
C730 H746 0.931 . S
C731 C730 1.391 . S
C731 C735 1.376 . S
C732 C730 1.394 . S
C732 C733 1.369 . S
C732 C736 1.531 . S
C733 C732 1.369 . S
C733 C734 1.410 . S
C733 C741 1.503 . S
C734 C733 1.410 . S
C734 C735 1.392 . S
C734 C737 1.511 . S
C735 C731 1.376 . S
C735 C734 1.392 . S
C735 H747 0.929 . S
C736 C732 1.531 . S
C736 H748 0.960 . S
C736 H749 0.962 . S
C736 H750 0.960 . S
C737 C734 1.511 . S
C737 H751 0.961 . S
C737 H752 0.961 . S
C737 H753 0.961 . S
C738 C739 1.370 . S
C738 C740 1.363 . S
C738 H754 0.931 . S
C739 C738 1.370 . S
C739 C743 1.408 . S
C740 C738 1.363 . S
C740 C741 1.370 . S
C740 C744 1.524 . S
C741 C733 1.503 . S
C741 C740 1.370 . S
C741 C742 1.403 . S
C742 C741 1.403 . S
C742 C743 1.404 . S
C742 C745 1.539 . S
C743 C739 1.408 . S
C743 C742 1.404 . S
C743 H755 0.930 . S
C744 C740 1.524 . S
C744 H756 0.956 . S
C744 H757 0.961 . S
C744 H758 0.961 . S
C745 C742 1.539 . S
C745 H759 0.958 . S
C745 H760 0.961 . S
C745 H761 0.960 . S
H746 C730 0.931 . S
H747 C735 0.929 . S
H748 C736 0.960 . S
H749 C736 0.962 . S
H750 C736 0.960 . S
H751 C737 0.961 . S
H752 C737 0.961 . S
H753 C737 0.961 . S
H754 C738 0.931 . S
H755 C743 0.930 . S
H756 C744 0.956 . S
H757 C744 0.961 . S
H758 C744 0.961 . S
H759 C745 0.958 . S
H760 C745 0.961 . S
H761 C745 0.960 . S
C762 C763 1.391 . S
C762 C764 1.394 . S
C762 H778 0.931 . S
C763 C762 1.391 . S
C763 C767 1.376 . S
C764 C762 1.394 . S
C764 C765 1.369 . S
C764 C768 1.531 . S
C765 C764 1.369 . S
C765 C766 1.410 . S
C765 C773 1.503 . S
C766 C765 1.410 . S
C766 C767 1.392 . S
C766 C769 1.511 . S
C767 C763 1.376 . S
C767 C766 1.392 . S
C767 H779 0.929 . S
C768 C764 1.531 . S
C768 H780 0.960 . S
C768 H781 0.962 . S
C768 H782 0.960 . S
C769 C766 1.511 . S
C769 H783 0.961 . S
C769 H784 0.961 . S
C769 H785 0.961 . S
C770 C771 1.370 . S
C770 C772 1.363 . S
C770 H786 0.931 . S
C771 C770 1.370 . S
C771 C775 1.408 . S
C772 C770 1.363 . S
C772 C773 1.370 . S
C772 C776 1.524 . S
C773 C765 1.503 . S
C773 C772 1.370 . S
C773 C774 1.403 . S
C774 C773 1.403 . S
C774 C775 1.404 . S
C774 C777 1.539 . S
C775 C771 1.408 . S
C775 C774 1.404 . S
C775 H787 0.930 . S
C776 C772 1.524 . S
C776 H788 0.956 . S
C776 H789 0.961 . S
C776 H790 0.961 . S
C777 C774 1.539 . S
C777 H791 0.958 . S
C777 H792 0.961 . S
C777 H793 0.960 . S
H778 C762 0.931 . S
H779 C767 0.929 . S
H780 C768 0.960 . S
H781 C768 0.962 . S
H782 C768 0.960 . S
H783 C769 0.961 . S
H784 C769 0.961 . S
H785 C769 0.961 . S
H786 C770 0.931 . S
H787 C775 0.930 . S
H788 C776 0.956 . S
H789 C776 0.961 . S
H790 C776 0.961 . S
H791 C777 0.958 . S
H792 C777 0.961 . S
H793 C777 0.960 . S
C794 C795 1.391 . S
C794 C796 1.394 . S
C794 H810 0.931 . S
C795 C794 1.391 . S
C795 C799 1.376 . S
C796 C794 1.394 . S
C796 C797 1.369 . S
C796 C800 1.531 . S
C797 C796 1.369 . S
C797 C798 1.410 . S
C797 C805 1.503 . S
C798 C797 1.410 . S
C798 C799 1.392 . S
C798 C801 1.511 . S
C799 C795 1.376 . S
C799 C798 1.392 . S
C799 H811 0.929 . S
C800 C796 1.531 . S
C800 H812 0.960 . S
C800 H813 0.962 . S
C800 H814 0.960 . S
C801 C798 1.511 . S
C801 H815 0.961 . S
C801 H816 0.961 . S
C801 H817 0.961 . S
C802 C803 1.370 . S
C802 C804 1.363 . S
C802 H818 0.931 . S
C803 C802 1.370 . S
C803 C807 1.408 . S
C804 C802 1.363 . S
C804 C805 1.370 . S
C804 C808 1.524 . S
C805 C797 1.503 . S
C805 C804 1.370 . S
C805 C806 1.403 . S
C806 C805 1.403 . S
C806 C807 1.404 . S
C806 C809 1.539 . S
C807 C803 1.408 . S
C807 C806 1.404 . S
C807 H819 0.930 . S
C808 C804 1.524 . S
C808 H820 0.956 . S
C808 H821 0.961 . S
C808 H822 0.961 . S
C809 C806 1.539 . S
C809 H823 0.958 . S
C809 H824 0.961 . S
C809 H825 0.960 . S
H810 C794 0.931 . S
H811 C799 0.929 . S
H812 C800 0.960 . S
H813 C800 0.962 . S
H814 C800 0.960 . S
H815 C801 0.961 . S
H816 C801 0.961 . S
H817 C801 0.961 . S
H818 C802 0.931 . S
H819 C807 0.930 . S
H820 C808 0.956 . S
H821 C808 0.961 . S
H822 C808 0.961 . S
H823 C809 0.958 . S
H824 C809 0.961 . S
H825 C809 0.960 . S
C826 C827 1.391 . S
C826 C828 1.394 . S
C826 H842 0.931 . S
C827 C826 1.391 . S
C827 C831 1.376 . S
C828 C826 1.394 . S
C828 C829 1.369 . S
C828 C832 1.531 . S
C829 C828 1.369 . S
C829 C830 1.410 . S
C829 C837 1.503 . S
C830 C829 1.410 . S
C830 C831 1.392 . S
C830 C833 1.511 . S
C831 C827 1.376 . S
C831 C830 1.392 . S
C831 H843 0.929 . S
C832 C828 1.531 . S
C832 H844 0.960 . S
C832 H845 0.962 . S
C832 H846 0.960 . S
C833 C830 1.511 . S
C833 H847 0.961 . S
C833 H848 0.961 . S
C833 H849 0.961 . S
C834 C835 1.370 . S
C834 C836 1.363 . S
C834 H850 0.931 . S
C835 C834 1.370 . S
C835 C839 1.408 . S
C836 C834 1.363 . S
C836 C837 1.370 . S
C836 C840 1.524 . S
C837 C829 1.503 . S
C837 C836 1.370 . S
C837 C838 1.403 . S
C838 C837 1.403 . S
C838 C839 1.404 . S
C838 C841 1.539 . S
C839 C835 1.408 . S
C839 C838 1.404 . S
C839 H851 0.930 . S
C840 C836 1.524 . S
C840 H852 0.956 . S
C840 H853 0.961 . S
C840 H854 0.961 . S
C841 C838 1.539 . S
C841 H855 0.958 . S
C841 H856 0.961 . S
C841 H857 0.960 . S
H842 C826 0.931 . S
H843 C831 0.929 . S
H844 C832 0.960 . S
H845 C832 0.962 . S
H846 C832 0.960 . S
H847 C833 0.961 . S
H848 C833 0.961 . S
H849 C833 0.961 . S
H850 C834 0.931 . S
H851 C839 0.930 . S
H852 C840 0.956 . S
H853 C840 0.961 . S
H854 C840 0.961 . S
H855 C841 0.958 . S
H856 C841 0.961 . S
H857 C841 0.960 . S
C858 C859 1.391 . S
C858 C860 1.394 . S
C858 H874 0.931 . S
C859 C858 1.391 . S
C859 C863 1.376 . S
C860 C858 1.394 . S
C860 C861 1.369 . S
C860 C864 1.531 . S
C861 C860 1.369 . S
C861 C862 1.410 . S
C861 C869 1.503 . S
C862 C861 1.410 . S
C862 C863 1.392 . S
C862 C865 1.511 . S
C863 C859 1.376 . S
C863 C862 1.392 . S
C863 H875 0.929 . S
C864 C860 1.531 . S
C864 H876 0.960 . S
C864 H877 0.962 . S
C864 H878 0.960 . S
C865 C862 1.511 . S
C865 H879 0.961 . S
C865 H880 0.961 . S
C865 H881 0.961 . S
C866 C867 1.370 . S
C866 C868 1.363 . S
C866 H882 0.931 . S
C867 C866 1.370 . S
C867 C871 1.408 . S
C868 C866 1.363 . S
C868 C869 1.370 . S
C868 C872 1.524 . S
C869 C861 1.503 . S
C869 C868 1.370 . S
C869 C870 1.403 . S
C870 C869 1.403 . S
C870 C871 1.404 . S
C870 C873 1.539 . S
C871 C867 1.408 . S
C871 C870 1.404 . S
C871 H883 0.930 . S
C872 C868 1.524 . S
C872 H884 0.956 . S
C872 H885 0.961 . S
C872 H886 0.961 . S
C873 C870 1.539 . S
C873 H887 0.958 . S
C873 H888 0.961 . S
C873 H889 0.960 . S
H874 C858 0.931 . S
H875 C863 0.929 . S
H876 C864 0.960 . S
H877 C864 0.962 . S
H878 C864 0.960 . S
H879 C865 0.961 . S
H880 C865 0.961 . S
H881 C865 0.961 . S
H882 C866 0.931 . S
H883 C871 0.930 . S
H884 C872 0.956 . S
H885 C872 0.961 . S
H886 C872 0.961 . S
H887 C873 0.958 . S
H888 C873 0.961 . S
H889 C873 0.960 . S
C890 C891 1.391 . S
C890 C892 1.394 . S
C890 H906 0.931 . S
C891 C890 1.391 . S
C891 C895 1.376 . S
C892 C890 1.394 . S
C892 C893 1.369 . S
C892 C896 1.531 . S
C893 C892 1.369 . S
C893 C894 1.410 . S
C893 C901 1.503 . S
C894 C893 1.410 . S
C894 C895 1.392 . S
C894 C897 1.511 1_554 S
C895 C891 1.376 . S
C895 C894 1.392 . S
C895 H907 0.929 . S
C896 C892 1.531 . S
C896 H908 0.960 . S
C896 H909 0.962 . S
C896 H910 0.960 . S
C897 C894 1.511 1_556 S
C897 H911 0.961 . S
C897 H912 0.961 . S
C897 H913 0.961 . S
C898 C899 1.370 . S
C898 C900 1.363 1_556 S
C898 H914 0.931 . S
C899 C898 1.370 . S
C899 C903 1.408 . S
C900 C898 1.363 1_554 S
C900 C901 1.370 . S
C900 C904 1.524 . S
C901 C893 1.503 . S
C901 C900 1.370 . S
C901 C902 1.403 1_554 S
C902 C901 1.403 1_556 S
C902 C903 1.404 . S
C902 C905 1.539 . S
C903 C899 1.408 . S
C903 C902 1.404 . S
C903 H915 0.930 . S
C904 C900 1.524 . S
C904 H916 0.956 . S
C904 H917 0.961 . S
C904 H918 0.961 . S
C905 C902 1.539 . S
C905 H919 0.958 . S
C905 H920 0.961 . S
C905 H921 0.960 . S
H906 C890 0.931 . S
H907 C895 0.929 . S
H908 C896 0.960 . S
H909 C896 0.962 . S
H910 C896 0.960 . S
H911 C897 0.961 . S
H912 C897 0.961 . S
H913 C897 0.961 . S
H914 C898 0.931 . S
H915 C903 0.930 . S
H916 C904 0.956 . S
H917 C904 0.961 . S
H918 C904 0.961 . S
H919 C905 0.958 . S
H920 C905 0.961 . S
H921 C905 0.960 . S
C922 C923 1.391 . S
C922 C924 1.394 . S
C922 H938 0.931 . S
C923 C922 1.391 . S
C923 C927 1.376 . S
C924 C922 1.394 . S
C924 C925 1.369 . S
C924 C928 1.531 . S
C925 C924 1.369 . S
C925 C926 1.410 . S
C925 C933 1.503 . S
C926 C925 1.410 . S
C926 C927 1.392 . S
C926 C929 1.511 . S
C927 C923 1.376 . S
C927 C926 1.392 . S
C927 H939 0.929 . S
C928 C924 1.531 . S
C928 H940 0.960 . S
C928 H941 0.962 . S
C928 H942 0.960 . S
C929 C926 1.511 . S
C929 H943 0.961 . S
C929 H944 0.961 . S
C929 H945 0.961 . S
C930 C931 1.370 . S
C930 C932 1.363 . S
C930 H946 0.931 . S
C931 C930 1.370 . S
C931 C935 1.408 . S
C932 C930 1.363 . S
C932 C933 1.370 . S
C932 C936 1.524 . S
C933 C925 1.503 . S
C933 C932 1.370 . S
C933 C934 1.403 . S
C934 C933 1.403 . S
C934 C935 1.404 . S
C934 C937 1.539 . S
C935 C931 1.408 . S
C935 C934 1.404 . S
C935 H947 0.930 . S
C936 C932 1.524 . S
C936 H948 0.956 . S
C936 H949 0.961 . S
C936 H950 0.961 . S
C937 C934 1.539 . S
C937 H951 0.958 . S
C937 H952 0.961 . S
C937 H953 0.960 . S
H938 C922 0.931 . S
H939 C927 0.929 . S
H940 C928 0.960 . S
H941 C928 0.962 . S
H942 C928 0.960 . S
H943 C929 0.961 . S
H944 C929 0.961 . S
H945 C929 0.961 . S
H946 C930 0.931 . S
H947 C935 0.930 . S
H948 C936 0.956 . S
H949 C936 0.961 . S
H950 C936 0.961 . S
H951 C937 0.958 . S
H952 C937 0.961 . S
H953 C937 0.960 . S
C195 C183 1.552 . S
C187 C8 1.525 . S
C219 C26 1.482 . S
C227 C108 1.465 . S
C251 C50 1.492 . S
C259 C131 1.573 . S
C283 C68 1.395 . S
C291 C144 1.473 . S
C323 C147 1.496 . S
C315 C80 1.490 . S
C347 C104 1.443 . S
C355 C160 1.427 . S
C379 C32 1.420 . S
C387 C121 1.432 . S
C411 C44 1.537 . S
C419 C134 1.505 . S
C443 C62 1.443 . S
C451 C157 1.465 . S
C483 C170 1.566 . S
C475 C86 1.521 1_554 S
C515 C173 1.486 . S
C507 C98 1.496 . S
C547 C118 1.558 . S
C539 C14 1.484 . S
C571 C7 1.458 . S
C579 C129 1.457 . S
C603 C25 1.402 . S
C611 C142 1.456 . S
C643 C152 1.483 . S
C635 C52 1.466 . S
C667 C70 1.435 . S
C675 C165 1.460 1_556 S
C707 C181 1.479 . S
C699 C79 1.475 . S
C739 C113 1.439 . S
C731 C106 1.394 . S
C771 C178 1.431 . S
C763 C34 1.414 . S
C795 C43 1.498 . S
C803 C116 1.467 . S
C835 C126 1.437 . S
C827 C61 1.432 . S
C859 C88 1.489 . S
C867 C139 1.477 . S
C891 C97 1.445 . S
C899 C155 1.437 . S
C923 C16 1.425 . S
C931 C168 1.474 . S
