# Generated by pormake.
# Topology apo, (3,6)-cn, num edge types: 1
# Building blocks:
#     Node 0, Type 0, BuildingBlock: CUQRIR_clean_linker_1, # of connection points: 3
#     Node 1, Type 0, BuildingBlock: CUQRIR_clean_linker_1, # of connection points: 3
#     Node 2, Type 0, BuildingBlock: CUQRIR_clean_linker_1, # of connection points: 3
#     Node 3, Type 0, BuildingBlock: CUQRIR_clean_linker_1, # of connection points: 3
#     Node 4, Type 0, BuildingBlock: CUQRIR_clean_linker_1, # of connection points: 3
#     Node 5, Type 0, BuildingBlock: CUQRIR_clean_linker_1, # of connection points: 3
#     Node 6, Type 0, BuildingBlock: CUQRIR_clean_linker_1, # of connection points: 3
#     Node 7, Type 0, BuildingBlock: CUQRIR_clean_linker_1, # of connection points: 3
#     Node 8, Type 1, BuildingBlock: KUMBOL_clean_sbu_1, # of connection points: 6
#     Node 9, Type 1, BuildingBlock: KUMBOL_clean_sbu_1, # of connection points: 6
#     Node 10, Type 1, BuildingBlock: KUMBOL_clean_sbu_1, # of connection points: 6
#     Node 11, Type 1, BuildingBlock: KUMBOL_clean_sbu_1, # of connection points: 6
#     Edge 12, Type (0, 1), BuildingBlock: MIFKUJ_clean_linker_0, # of connection points: 2
#     Edge 13, Type (0, 1), BuildingBlock: MIFKUJ_clean_linker_0, # of connection points: 2
#     Edge 14, Type (0, 1), BuildingBlock: MIFKUJ_clean_linker_0, # of connection points: 2
#     Edge 15, Type (0, 1), BuildingBlock: MIFKUJ_clean_linker_0, # of connection points: 2
#     Edge 16, Type (0, 1), BuildingBlock: MIFKUJ_clean_linker_0, # of connection points: 2
#     Edge 17, Type (0, 1), BuildingBlock: MIFKUJ_clean_linker_0, # of connection points: 2
#     Edge 18, Type (0, 1), BuildingBlock: MIFKUJ_clean_linker_0, # of connection points: 2
#     Edge 19, Type (0, 1), BuildingBlock: MIFKUJ_clean_linker_0, # of connection points: 2
#     Edge 20, Type (0, 1), BuildingBlock: MIFKUJ_clean_linker_0, # of connection points: 2
#     Edge 21, Type (0, 1), BuildingBlock: MIFKUJ_clean_linker_0, # of connection points: 2
#     Edge 22, Type (0, 1), BuildingBlock: MIFKUJ_clean_linker_0, # of connection points: 2
#     Edge 23, Type (0, 1), BuildingBlock: MIFKUJ_clean_linker_0, # of connection points: 2
#     Edge 24, Type (0, 1), BuildingBlock: MIFKUJ_clean_linker_0, # of connection points: 2
#     Edge 25, Type (0, 1), BuildingBlock: MIFKUJ_clean_linker_0, # of connection points: 2
#     Edge 26, Type (0, 1), BuildingBlock: MIFKUJ_clean_linker_0, # of connection points: 2
#     Edge 27, Type (0, 1), BuildingBlock: MIFKUJ_clean_linker_0, # of connection points: 2
#     Edge 28, Type (0, 1), BuildingBlock: MIFKUJ_clean_linker_0, # of connection points: 2
#     Edge 29, Type (0, 1), BuildingBlock: MIFKUJ_clean_linker_0, # of connection points: 2
#     Edge 30, Type (0, 1), BuildingBlock: MIFKUJ_clean_linker_0, # of connection points: 2
#     Edge 31, Type (0, 1), BuildingBlock: MIFKUJ_clean_linker_0, # of connection points: 2
#     Edge 32, Type (0, 1), BuildingBlock: MIFKUJ_clean_linker_0, # of connection points: 2
#     Edge 33, Type (0, 1), BuildingBlock: MIFKUJ_clean_linker_0, # of connection points: 2
#     Edge 34, Type (0, 1), BuildingBlock: MIFKUJ_clean_linker_0, # of connection points: 2
#     Edge 35, Type (0, 1), BuildingBlock: MIFKUJ_clean_linker_0, # of connection points: 2
# Relax obj value: 0.047
# Max RMSD: 0.213
# Mean RMSD: 0.169
data_MOF--net-apo--node1-KUMBOL_clean_sbu_1--node2-CUQRIR_clean_linker_1--edge1-MIFKUJ_clean_linker_0
_symmetry_space_group_name_H-M    P1
_symmetry_Int_Tables_number       1
_symmetry_cell_setting            triclinic
loop_
_symmetry_equiv_pos_as_xyz
'x, y, z'
_cell_length_a     33.866729
_cell_length_b     52.499982
_cell_length_c     60.764308
_cell_angle_alpha  90.007499
_cell_angle_beta   89.965296
_cell_angle_gamma 90.323404
loop_
_atom_site_label
_atom_site_type_symbol
_atom_site_fract_x
_atom_site_fract_y
_atom_site_fract_z
_atom_type_partial_charge
C0 C 0.28779 0.34543 0.41703 0.0
N1 N 0.30757 0.36738 0.42148 0.0
N2 N 0.27212 0.34606 0.39652 0.0
C3 C 0.2813 0.3242 0.43328 0.0
C4 C 0.2829 0.36924 0.3887 0.0
N5 N 0.30403 0.38232 0.40395 0.0
C6 C 0.27488 0.37845 0.36569 0.0
H7 H 0.30714 0.31131 0.43282 0.0
H8 H 0.2544 0.31299 0.42923 0.0
H9 H 0.27855 0.33181 0.45025 0.0
H10 H 0.24796 0.3904 0.36586 0.0
H11 H 0.27 0.36225 0.35426 0.0
H12 H 0.29979 0.39027 0.35952 0.0
C13 C 0.22847 0.15963 0.9242 0.0
N14 N 0.20824 0.13748 0.92727 0.0
N15 N 0.24252 0.16116 0.90338 0.0
C16 C 0.23509 0.17962 0.94158 0.0
C17 C 0.23054 0.13913 0.89391 0.0
N18 N 0.2102 0.12456 0.90846 0.0
C19 C 0.23823 0.1319 0.87032 0.0
H20 H 0.20858 0.19188 0.94258 0.0
H21 H 0.26088 0.19189 0.93761 0.0
H22 H 0.23964 0.17062 0.9579 0.0
H23 H 0.24897 0.14827 0.86044 0.0
H24 H 0.21092 0.12406 0.86277 0.0
H25 H 0.26095 0.11677 0.86987 0.0
C26 C 0.7873 0.17566 0.60878 0.0
N27 N 0.80898 0.15416 0.60674 0.0
N28 N 0.77212 0.17759 0.62938 0.0
C29 C 0.77829 0.19358 0.59015 0.0
C30 C 0.78537 0.15642 0.63973 0.0
N31 N 0.80727 0.14204 0.6259 0.0
C32 C 0.77961 0.15078 0.66382 0.0
H33 H 0.80145 0.2086 0.58955 0.0
H34 H 0.74922 0.20282 0.59253 0.0
H35 H 0.77829 0.1834 0.57414 0.0
H36 H 0.75304 0.13855 0.66588 0.0
H37 H 0.77538 0.16857 0.67336 0.0
H38 H 0.80536 0.14041 0.67058 0.0
C39 C 0.71476 0.33751 0.10865 0.0
N40 N 0.6931 0.35889 0.10532 0.0
N41 N 0.73114 0.3377 0.12898 0.0
C42 C 0.72289 0.31752 0.09152 0.0
C43 C 0.71892 0.35987 0.13789 0.0
N44 N 0.69621 0.37284 0.12351 0.0
C45 C 0.72742 0.36832 0.16108 0.0
H46 H 0.69846 0.30336 0.09162 0.0
H47 H 0.75087 0.30741 0.09502 0.0
H48 H 0.72462 0.32616 0.07488 0.0
H49 H 0.73651 0.35214 0.17163 0.0
H50 H 0.70087 0.37733 0.16831 0.0
H51 H 0.75151 0.38273 0.16081 0.0
C52 C 0.73038 0.65969 0.60488 0.0
N53 N 0.70912 0.63789 0.60217 0.0
N54 N 0.74688 0.6605 0.62517 0.0
C55 C 0.73769 0.67932 0.58729 0.0
C56 C 0.73517 0.63844 0.63471 0.0
N57 N 0.71261 0.62454 0.62068 0.0
C58 C 0.74312 0.63148 0.65834 0.0
H59 H 0.76604 0.68949 0.59013 0.0
H60 H 0.71356 0.69351 0.58768 0.0
H61 H 0.7383 0.67037 0.57076 0.0
H62 H 0.71779 0.62085 0.66549 0.0
H63 H 0.74896 0.64867 0.66847 0.0
H64 H 0.7695 0.61907 0.65901 0.0
C65 C 0.78523 0.84904 0.10374 0.0
N66 N 0.80922 0.86959 0.10104 0.0
N67 N 0.77837 0.84466 0.12538 0.0
C68 C 0.76933 0.83282 0.08534 0.0
C69 C 0.79899 0.86326 0.13576 0.0
N70 N 0.81788 0.87834 0.12101 0.0
C71 C 0.79844 0.86792 0.16018 0.0
H72 H 0.74178 0.8415 0.07904 0.0
H73 H 0.76238 0.81328 0.09119 0.0
H74 H 0.79085 0.83184 0.07159 0.0
H75 H 0.79088 0.8504 0.16947 0.0
H76 H 0.77589 0.88256 0.16389 0.0
H77 H 0.82752 0.87532 0.16577 0.0
C78 C 0.21354 0.83641 0.41555 0.0
N79 N 0.1894 0.85686 0.41747 0.0
N80 N 0.22667 0.83397 0.39456 0.0
C81 C 0.22761 0.82051 0.43458 0.0
C82 C 0.20974 0.8537 0.38384 0.0
N83 N 0.18758 0.86775 0.39776 0.0
C84 C 0.21271 0.85849 0.35947 0.0
H85 H 0.25741 0.8127 0.4313 0.0
H86 H 0.20681 0.80435 0.43703 0.0
H87 H 0.2286 0.83188 0.44996 0.0
H88 H 0.2189 0.84065 0.35034 0.0
H89 H 0.23692 0.87234 0.35629 0.0
H90 H 0.18485 0.86679 0.35321 0.0
C91 C 0.28481 0.67361 0.91819 0.0
N92 N 0.30703 0.65243 0.92087 0.0
N93 N 0.27631 0.67726 0.89665 0.0
C94 C 0.27328 0.69152 0.93637 0.0
C95 C 0.29407 0.65755 0.88632 0.0
N96 N 0.31299 0.64261 0.90101 0.0
C97 C 0.29146 0.6523 0.86201 0.0
H98 H 0.2452 0.68477 0.94382 0.0
H99 H 0.26872 0.71107 0.92994 0.0
H100 H 0.2962 0.69202 0.94941 0.0
H101 H 0.31644 0.66203 0.85363 0.0
H102 H 0.26346 0.65971 0.85509 0.0
H103 H 0.29354 0.63162 0.8585 0.0
C104 C 0.87888 0.10154 0.27134 0.0
C105 C 0.87271 0.05619 0.27862 0.0
C106 C 0.89493 0.07897 0.27901 0.0
C107 C 0.83483 0.05615 0.26925 0.0
C108 C 0.84017 0.10176 0.26277 0.0
C109 C 0.81866 0.07885 0.26125 0.0
N110 N 0.90003 0.1235 0.27363 0.0
C111 C 0.88267 0.14645 0.26963 0.0
C112 C 0.82365 0.12512 0.25678 0.0
C113 C 0.84477 0.1476 0.26058 0.0
Gd114 Gd 0.04991 0.12288 0.24043 0.0
Gd115 Gd 0.96424 0.11912 0.288 0.0
N116 N 0.93191 0.07952 0.28769 0.0
C117 C 0.88895 0.03429 0.28809 0.0
C118 C 0.94712 0.05861 0.29798 0.0
C119 C 0.92614 0.03558 0.29802 0.0
H120 H 0.97548 0.05978 0.30604 0.0
H121 H 0.93859 0.01887 0.30571 0.0
H122 H 0.0212 0.17766 0.21533 0.0
H123 H 0.89752 0.164 0.27381 0.0
H124 H 0.04187 0.22254 0.21451 0.0
H125 H 0.87276 0.01643 0.28815 0.0
H126 H 0.81746 0.03877 0.26854 0.0
H127 H 0.12297 0.09127 0.26454 0.0
H128 H 0.79404 0.12609 0.2501 0.0
H129 H 0.83157 0.16586 0.25697 0.0
H130 H 0.16654 0.22344 0.25183 0.0
H131 H 0.78902 0.07864 0.25455 0.0
H132 H 0.21617 0.14414 0.27914 0.0
H133 H 0.18913 0.10025 0.28004 0.0
N134 N 0.11285 0.12968 0.25526 0.0
C135 C 0.12768 0.15372 0.25384 0.0
C136 C 0.13455 0.11047 0.26418 0.0
C137 C 0.18729 0.14027 0.27221 0.0
C138 C 0.17205 0.11548 0.27284 0.0
C139 C 0.16507 0.15977 0.26264 0.0
H140 H 0.20723 0.19015 0.26885 0.0
N141 N 0.06886 0.16583 0.23569 0.0
C142 C 0.10465 0.17244 0.24421 0.0
C143 C 0.0952 0.21607 0.23283 0.0
C144 C 0.11861 0.19778 0.24318 0.0
C145 C 0.0474 0.18324 0.22415 0.0
C146 C 0.05967 0.20868 0.22305 0.0
O147 O 0.96867 0.0875 0.26229 0.0
O148 O 0.98829 0.11011 0.23233 0.0
O149 O 0.06876 0.12869 0.20662 0.0
O150 O 0.07545 0.09168 0.22173 0.0
O151 O 0.02299 0.10031 0.29428 0.0
O152 O 0.04794 0.08643 0.2607 0.0
O153 O 0.06142 0.13594 0.27539 0.0
O154 O 0.00332 0.15422 0.28609 0.0
O155 O 0.97873 0.11465 0.32276 0.0
O156 O 0.92446 0.13277 0.31348 0.0
O157 O 0.99097 0.14166 0.23333 0.0
O158 O 0.96582 0.15499 0.2669 0.0
C159 C 0.97224 0.08972 0.24085 0.0
C160 C 0.04206 0.08362 0.2821 0.0
C161 C 0.11973 0.10285 0.1927 0.0
C162 C 0.15627 0.10249 0.15791 0.0
C163 C 0.19025 0.09509 0.19262 0.0
C164 C 0.15479 0.09776 0.20411 0.0
C165 C 0.19107 0.09738 0.16971 0.0
C166 C 0.12066 0.1053 0.16965 0.0
C167 C 0.08173 0.1056 0.20429 0.0
C168 C 0.15553 0.20402 0.25231 0.0
C169 C 0.17877 0.18505 0.26194 0.0
H170 H 0.10472 0.23577 0.23181 0.0
C171 C 0.04212 0.15404 0.28559 0.0
C172 C 0.96866 0.15689 0.24529 0.0
C173 C 0.92411 0.10903 0.34657 0.0
C174 C 0.90988 0.09949 0.38522 0.0
C175 C 0.8788 0.07473 0.35615 0.0
C176 C 0.89781 0.08958 0.34034 0.0
C177 C 0.88484 0.07954 0.37844 0.0
C178 C 0.92971 0.11417 0.36914 0.0
C179 C 0.94546 0.12399 0.32966 0.0
H180 H 0.21724 0.09121 0.20152 0.0
H181 H 0.1548 0.09574 0.2218 0.0
H182 H 0.21905 0.09542 0.16124 0.0
H183 H 0.09345 0.10898 0.16083 0.0
H184 H 0.85881 0.05967 0.35109 0.0
H185 H 0.89144 0.08603 0.32327 0.0
H186 H 0.86895 0.06813 0.39042 0.0
H187 H 0.94927 0.12952 0.37415 0.0
C188 C 0.62412 0.39928 0.77074 0.0
C189 C 0.63443 0.44483 0.77513 0.0
C190 C 0.60993 0.42313 0.77665 0.0
C191 C 0.67337 0.44225 0.76751 0.0
C192 C 0.66325 0.39659 0.76323 0.0
C193 C 0.68772 0.41821 0.76155 0.0
N194 N 0.59974 0.37873 0.77257 0.0
C195 C 0.61296 0.35485 0.76789 0.0
C196 C 0.67664 0.37221 0.75772 0.0
C197 C 0.65143 0.35124 0.76016 0.0
Gd198 Gd 0.445 0.39093 0.74103 0.0
Gd199 Gd 0.53538 0.38691 0.7848 0.0
N200 N 0.57167 0.4251 0.78331 0.0
C201 C 0.61894 0.46848 0.78122 0.0
C202 C 0.55679 0.44792 0.78992 0.0
C203 C 0.58004 0.46999 0.78878 0.0
H204 H 0.52705 0.44918 0.79603 0.0
H205 H 0.56798 0.48814 0.79378 0.0
H206 H 0.4734 0.33786 0.71309 0.0
H207 H 0.59391 0.33852 0.77032 0.0
H208 H 0.44865 0.29476 0.70634 0.0
H209 H 0.63681 0.48563 0.78027 0.0
H210 H 0.69262 0.45872 0.76615 0.0
H211 H 0.3733 0.42126 0.76767 0.0
H212 H 0.70648 0.36935 0.75181 0.0
H213 H 0.66167 0.33229 0.75622 0.0
H214 H 0.31948 0.29449 0.73826 0.0
H215 H 0.71785 0.41652 0.75575 0.0
H216 H 0.27482 0.37029 0.77393 0.0
H217 H 0.30524 0.41258 0.78048 0.0
N218 N 0.38161 0.38403 0.75496 0.0
C219 C 0.36552 0.36069 0.75106 0.0
C220 C 0.3605 0.40263 0.7652 0.0
C221 C 0.30482 0.37393 0.76852 0.0
C222 C 0.32191 0.39781 0.77229 0.0
C223 C 0.32653 0.35505 0.75772 0.0
H224 H 0.28046 0.32626 0.7582 0.0
N225 N 0.42573 0.34848 0.73405 0.0
C226 C 0.38829 0.34237 0.74052 0.0
C227 C 0.39439 0.30069 0.72397 0.0
C228 C 0.3718 0.31823 0.73577 0.0
C229 C 0.44644 0.33208 0.721 0.0
C230 C 0.43171 0.30776 0.71638 0.0
O231 O 0.5459 0.40945 0.75315 0.0
O232 O 0.48526 0.42501 0.74282 0.0
O233 O 0.44259 0.39006 0.70516 0.0
O234 O 0.4039 0.41492 0.72327 0.0
O235 O 0.48116 0.40908 0.79513 0.0
O236 O 0.44883 0.42461 0.76414 0.0
O237 O 0.43302 0.37292 0.77451 0.0
O238 O 0.49218 0.35414 0.78245 0.0
O239 O 0.53111 0.39468 0.81999 0.0
O240 O 0.5689 0.36462 0.80828 0.0
O241 O 0.50393 0.37419 0.73056 0.0
O242 O 0.52426 0.35401 0.76201 0.0
C243 C 0.52389 0.42535 0.74181 0.0
C244 C 0.45772 0.42553 0.78531 0.0
C245 C 0.37934 0.39746 0.68992 0.0
C246 C 0.35179 0.39063 0.65313 0.0
C247 C 0.31108 0.38386 0.68561 0.0
C248 C 0.34262 0.39078 0.69911 0.0
C249 C 0.31549 0.38388 0.66279 0.0
C250 C 0.38388 0.39712 0.66686 0.0
C251 C 0.41266 0.40543 0.70411 0.0
C252 C 0.33287 0.31267 0.74222 0.0
C253 C 0.31044 0.33091 0.75334 0.0
H254 H 0.38274 0.28204 0.71987 0.0
C255 C 0.45379 0.35572 0.78507 0.0
C256 C 0.52551 0.35697 0.74061 0.0
C257 C 0.5891 0.38621 0.84052 0.0
C258 C 0.61586 0.38951 0.87778 0.0
C259 C 0.65508 0.40329 0.84645 0.0
C260 C 0.62449 0.39646 0.83227 0.0
C261 C 0.65096 0.3997 0.86905 0.0
C262 C 0.58465 0.38304 0.86344 0.0
C263 C 0.55763 0.37785 0.82525 0.0
H264 H 0.28295 0.37869 0.69287 0.0
H265 H 0.33803 0.39118 0.7167 0.0
H266 H 0.29048 0.3785 0.65266 0.0
H267 H 0.41196 0.40254 0.65962 0.0
H268 H 0.68227 0.41111 0.83987 0.0
H269 H 0.62884 0.39882 0.81485 0.0
H270 H 0.67525 0.40489 0.87979 0.0
H271 H 0.5576 0.37492 0.87001 0.0
C272 C 0.86939 0.87268 0.76948 0.0
C273 C 0.86855 0.82648 0.77165 0.0
C274 C 0.88875 0.84991 0.77379 0.0
C275 C 0.82879 0.82624 0.76508 0.0
C276 C 0.82947 0.8725 0.76292 0.0
C277 C 0.80931 0.84918 0.76074 0.0
N278 N 0.88986 0.89495 0.77121 0.0
C279 C 0.87203 0.91771 0.76726 0.0
C280 C 0.81108 0.89578 0.75855 0.0
C281 C 0.83243 0.91848 0.76081 0.0
Gd282 Gd 0.04512 0.89019 0.73699 0.0
Gd283 Gd 0.95614 0.89158 0.78153 0.0
N284 N 0.92771 0.85067 0.77934 0.0
C285 C 0.88899 0.80396 0.77605 0.0
C286 C 0.94718 0.82887 0.78468 0.0
C287 C 0.92834 0.80519 0.78281 0.0
H288 H 0.97699 0.82955 0.79062 0.0
H289 H 0.94413 0.78791 0.78674 0.0
H290 H 0.0302 0.95051 0.72116 0.0
H291 H 0.88821 0.93531 0.76936 0.0
H292 H 0.06694 0.99099 0.7197 0.0
H293 H 0.87455 0.78557 0.77454 0.0
H294 H 0.81286 0.80841 0.76326 0.0
H295 H 0.11046 0.84593 0.75226 0.0
H296 H 0.78043 0.89644 0.75348 0.0
H297 H 0.81837 0.93657 0.75764 0.0
H298 H 0.19417 0.97053 0.74941 0.0
H299 H 0.77866 0.84867 0.75565 0.0
H300 H 0.21935 0.88344 0.76789 0.0
H301 H 0.17933 0.84396 0.76545 0.0
N302 N 0.11043 0.88617 0.74926 0.0
C303 C 0.13215 0.90802 0.75002 0.0
C304 C 0.12708 0.86332 0.75429 0.0
C305 C 0.18881 0.88446 0.7627 0.0
C306 C 0.1663 0.86213 0.76136 0.0
C307 C 0.17195 0.90775 0.75678 0.0
H308 H 0.22447 0.93071 0.76209 0.0
N309 N 0.07645 0.93017 0.73656 0.0
C310 C 0.11487 0.93062 0.74313 0.0
C311 C 0.1194 0.97536 0.73429 0.0
C312 C 0.13715 0.95336 0.74257 0.0
C313 C 0.05944 0.95137 0.7279 0.0
C314 C 0.08048 0.97431 0.72679 0.0
O315 O 0.94488 0.8738 0.74795 0.0
O316 O 0.00429 0.85614 0.73853 0.0
O317 O 0.03933 0.89711 0.70177 0.0
O318 O 0.08131 0.86951 0.71357 0.0
O319 O 0.0152 0.87418 0.79071 0.0
O320 O 0.03875 0.85592 0.75892 0.0
O321 O 0.05532 0.91178 0.76913 0.0
O322 O 0.99464 0.92665 0.78053 0.0
O323 O 0.95793 0.87961 0.81569 0.0
O324 O 0.92173 0.91152 0.80645 0.0
O325 O 0.98815 0.91031 0.72806 0.0
O326 O 0.95934 0.92652 0.75975 0.0
C327 C 0.9657 0.85704 0.73692 0.0
C328 C 0.037 0.8572 0.78049 0.0
C329 C 0.09832 0.89236 0.6813 0.0
C330 C 0.12056 0.90194 0.6438 0.0
C331 C 0.16192 0.91277 0.67522 0.0
C332 C 0.1337 0.90267 0.68947 0.0
C333 C 0.1555 0.91244 0.65258 0.0
C334 C 0.0919 0.89191 0.65838 0.0
C335 C 0.06826 0.88198 0.69657 0.0
C336 C 0.17658 0.95325 0.74971 0.0
C337 C 0.19387 0.93054 0.75689 0.0
H338 H 0.13582 0.99302 0.73297 0.0
C339 C 0.03335 0.9282 0.77993 0.0
C340 C 0.96626 0.92729 0.73835 0.0
C341 C 0.95005 0.91182 0.84211 0.0
C342 C 0.94967 0.91949 0.8819 0.0
C343 C 0.99805 0.94064 0.85842 0.0
C344 C 0.98244 0.92834 0.84002 0.0
C345 C 0.98191 0.93624 0.87922 0.0
C346 C 0.93353 0.90749 0.86309 0.0
C347 C 0.93529 0.89789 0.82266 0.0
H348 H 0.18913 0.92062 0.68174 0.0
H349 H 0.13987 0.90267 0.70683 0.0
H350 H 0.17843 0.91987 0.64189 0.0
H351 H 0.0647 0.88388 0.65195 0.0
H352 H 0.02304 0.95342 0.85658 0.0
H353 H 0.99593 0.93138 0.82417 0.0
H354 H 0.99463 0.94602 0.89326 0.0
H355 H 0.90902 0.89428 0.86485 0.0
C356 C 0.64 0.64501 0.2747 0.0
C357 C 0.63676 0.69086 0.27973 0.0
C358 C 0.61846 0.66666 0.28015 0.0
C359 C 0.6766 0.69305 0.27356 0.0
C360 C 0.67999 0.64719 0.26845 0.0
C361 C 0.69814 0.67129 0.26794 0.0
N362 N 0.62145 0.62197 0.27473 0.0
C363 C 0.64118 0.60033 0.26912 0.0
C364 C 0.7004 0.62508 0.26257 0.0
C365 C 0.68092 0.60156 0.26294 0.0
Gd366 Gd 0.46972 0.62138 0.23902 0.0
Gd367 Gd 0.55507 0.6221 0.28532 0.0
N368 N 0.57947 0.6641 0.28533 0.0
C369 C 0.61447 0.71217 0.28554 0.0
C370 C 0.55825 0.68467 0.2921 0.0
C371 C 0.57517 0.70902 0.29196 0.0
H372 H 0.52871 0.68245 0.29822 0.0
H373 H 0.55802 0.72532 0.2971 0.0
H374 H 0.48482 0.55929 0.22997 0.0
H375 H 0.62651 0.58203 0.26973 0.0
H376 H 0.44668 0.51913 0.23116 0.0
H377 H 0.62756 0.73104 0.28554 0.0
H378 H 0.69104 0.71151 0.27305 0.0
H379 H 0.40527 0.6683 0.24908 0.0
H380 H 0.73114 0.62598 0.25766 0.0
H381 H 0.69652 0.58437 0.25851 0.0
H382 H 0.31695 0.54487 0.25379 0.0
H383 H 0.7288 0.67334 0.26312 0.0
H384 H 0.29358 0.634 0.26438 0.0
H385 H 0.33537 0.67251 0.26009 0.0
N386 N 0.40355 0.62784 0.24855 0.0
C387 C 0.38103 0.60642 0.25054 0.0
C388 C 0.38757 0.65137 0.25156 0.0
C389 C 0.32439 0.63202 0.25994 0.0
C390 C 0.34789 0.65382 0.25754 0.0
C391 C 0.34074 0.60796 0.25619 0.0
H392 H 0.28699 0.58636 0.26196 0.0
N393 N 0.43733 0.58194 0.24135 0.0
C394 C 0.39819 0.58283 0.24655 0.0
C395 C 0.39308 0.53731 0.24183 0.0
C396 C 0.37522 0.56042 0.24734 0.0
C397 C 0.45461 0.55959 0.23542 0.0
C398 C 0.4329 0.53688 0.23584 0.0
O399 O 0.56765 0.64013 0.25191 0.0
O400 O 0.50834 0.65652 0.24051 0.0
O401 O 0.4833 0.61309 0.20482 0.0
O402 O 0.43347 0.63686 0.21259 0.0
O403 O 0.49489 0.63911 0.29299 0.0
O404 O 0.474 0.6563 0.26018 0.0
O405 O 0.45861 0.59991 0.27127 0.0
O406 O 0.51882 0.58613 0.28417 0.0
O407 O 0.54752 0.6295 0.32035 0.0
O408 O 0.59476 0.60529 0.30925 0.0
O409 O 0.52793 0.60217 0.23173 0.0
O410 O 0.55415 0.58659 0.26421 0.0
C411 C 0.54714 0.65634 0.24008 0.0
C412 C 0.47278 0.65503 0.28174 0.0
C413 C 0.42892 0.61085 0.1807 0.0
C414 C 0.41158 0.60156 0.14245 0.0
C415 C 0.3834 0.57632 0.17207 0.0
C416 C 0.40394 0.59093 0.18742 0.0
C417 C 0.38727 0.58149 0.14971 0.0
C418 C 0.43235 0.61635 0.15807 0.0
C419 C 0.45265 0.62503 0.19711 0.0
C420 C 0.33511 0.56189 0.25306 0.0
C421 C 0.318 0.58556 0.25765 0.0
H422 H 0.37616 0.51982 0.24152 0.0
C423 C 0.48023 0.5842 0.28303 0.0
C424 C 0.54919 0.58558 0.24269 0.0
C425 C 0.5674 0.59635 0.34415 0.0
C426 C 0.5691 0.58524 0.38337 0.0
C427 C 0.54367 0.55502 0.35628 0.0
C428 C 0.55115 0.57239 0.33942 0.0
C429 C 0.55277 0.56125 0.37804 0.0
C430 C 0.57608 0.60281 0.36613 0.0
C431 C 0.57611 0.61444 0.32619 0.0
H432 H 0.36439 0.56092 0.17753 0.0
H433 H 0.40027 0.58654 0.20448 0.0
H434 H 0.37076 0.57001 0.13805 0.0
H435 H 0.4515 0.63172 0.15263 0.0
H436 H 0.53131 0.53648 0.35244 0.0
H437 H 0.54478 0.56704 0.32264 0.0
H438 H 0.54776 0.54696 0.39059 0.0
H439 H 0.58819 0.6215 0.36968 0.0
H440 H 0.10935 0.87541 0.39313 0.0
H441 H 0.07882 0.91206 0.37439 0.0
H442 H 0.19303 0.94858 0.37005 0.0
H443 H 0.22309 0.9119 0.38837 0.0
H444 H 0.07418 0.96464 0.3798 0.0
H445 H 0.20618 0.9706 0.31963 0.0
H446 H 0.25647 0.9423 0.30354 0.0
H447 H 0.17845 0.87817 0.31125 0.0
H448 H 0.12773 0.90608 0.32742 0.0
H449 H 0.06934 0.08131 0.32396 0.0
H450 H 0.08989 0.04366 0.34435 0.0
H451 H 0.06896 0.99709 0.28691 0.0
H452 H 0.04987 0.03518 0.26609 0.0
H453 H 0.13258 0.98185 0.30628 0.0
H454 H 0.00228 1.00055 0.33147 0.0
H455 H 0.94936 0.02784 0.34624 0.0
H456 H 0.01574 0.03947 0.40554 0.0
H457 H 0.06934 0.0126 0.39108 0.0
C458 C 0.12739 0.89173 0.38875 0.0
C459 C 0.16831 0.89117 0.39216 0.0
C460 C 0.11014 0.91252 0.37798 0.0
C461 C 0.13381 0.93282 0.37045 0.0
C462 C 0.1743 0.93296 0.37539 0.0
C463 C 0.19141 0.91223 0.38601 0.0
C464 C 0.1173 0.95286 0.35591 0.0
C465 C 0.08677 0.96841 0.3637 0.0
C466 C 0.13304 0.95732 0.33465 0.0
C467 C 0.1633 0.94041 0.32485 0.0
C468 C 0.19975 0.95047 0.31784 0.0
C469 C 0.22835 0.93448 0.30877 0.0
C470 C 0.22071 0.90844 0.30646 0.0
C471 C 0.1844 0.89833 0.31316 0.0
C472 C 0.15577 0.9142 0.32235 0.0
C473 C 0.06945 0.06306 0.31562 0.0
C474 C 0.058 0.0611 0.29347 0.0
C475 C 0.08085 0.0415 0.32736 0.0
C476 C 0.07995 0.01738 0.3174 0.0
C477 C 0.06964 0.01547 0.29502 0.0
C478 C 0.05892 0.03721 0.2831 0.0
C479 C 0.09021 0.99431 0.33039 0.0
C480 C 0.11959 0.97809 0.32228 0.0
C481 C 0.07274 0.98899 0.35115 0.0
C482 C 0.03998 0.00461 0.36012 0.0
C483 C 0.00569 0.00899 0.34763 0.0
C484 C 0.97559 0.0244 0.35593 0.0
C485 C 0.97927 0.0354 0.37676 0.0
C486 C 0.01297 0.03094 0.38939 0.0
C487 C 0.04319 0.01558 0.38118 0.0
H488 H 0.95599 0.04733 0.38313 0.0
H489 H 0.24289 0.89609 0.29943 0.0
H490 H 0.38782 0.63482 0.88831 0.0
H491 H 0.4141 0.59545 0.87225 0.0
H492 H 0.30241 0.55788 0.88432 0.0
H493 H 0.27731 0.597 0.90139 0.0
H494 H 0.35748 0.5244 0.88803 0.0
H495 H 0.32459 0.58679 0.83413 0.0
H496 H 0.32605 0.62897 0.8163 0.0
H497 H 0.45066 0.62174 0.80502 0.0
H498 H 0.45003 0.5796 0.82303 0.0
H499 H 0.406 0.46295 0.77267 0.0
H500 H 0.3799 0.49761 0.79503 0.0
H501 H 0.4486 0.47179 0.85041 0.0
H502 H 0.47314 0.43637 0.82859 0.0
H503 H 0.41128 0.53634 0.81274 0.0
H504 H 0.40634 0.48714 0.89867 0.0
H505 H 0.39454 0.44434 0.91417 0.0
H506 H 0.32726 0.42355 0.85699 0.0
H507 H 0.33815 0.46633 0.84129 0.0
C508 C 0.36968 0.61777 0.8882 0.0
C509 C 0.33092 0.61855 0.89618 0.0
C510 C 0.38436 0.59543 0.8788 0.0
C511 C 0.35991 0.57382 0.87654 0.0
C512 C 0.32186 0.57423 0.8858 0.0
C513 C 0.30753 0.59646 0.89559 0.0
C514 C 0.37263 0.55173 0.86293 0.0
C515 C 0.36941 0.52701 0.87161 0.0
C516 C 0.38688 0.55495 0.84116 0.0
C517 C 0.38732 0.58015 0.83011 0.0
C518 C 0.35234 0.59425 0.82795 0.0
C519 C 0.35301 0.61815 0.81781 0.0
C520 C 0.38844 0.62806 0.80959 0.0
C521 C 0.42325 0.61405 0.81143 0.0
C522 C 0.42275 0.59015 0.82158 0.0
C523 C 0.41513 0.46436 0.78971 0.0
C524 C 0.44135 0.44658 0.79884 0.0
C525 C 0.40036 0.48436 0.80246 0.0
C526 C 0.4118 0.48723 0.82456 0.0
C527 C 0.43845 0.46971 0.8336 0.0
C528 C 0.45268 0.44948 0.821 0.0
C529 C 0.39681 0.50894 0.83793 0.0
C530 C 0.39953 0.53364 0.82919 0.0
C531 C 0.3806 0.50556 0.85927 0.0
C532 C 0.37344 0.47987 0.86872 0.0
C533 C 0.38889 0.47347 0.88945 0.0
C534 C 0.38238 0.44921 0.89826 0.0
C535 C 0.36028 0.43121 0.88654 0.0
C536 C 0.3445 0.43748 0.86602 0.0
C537 C 0.35087 0.46172 0.85715 0.0
H538 H 0.35531 0.41243 0.89338 0.0
H539 H 0.38891 0.64658 0.80176 0.0
H540 H 0.63399 0.61659 0.62145 0.0
H541 H 0.59976 0.58006 0.63838 0.0
H542 H 0.71198 0.54397 0.65 0.0
H543 H 0.74586 0.58042 0.63292 0.0
H544 H 0.65356 0.5088 0.63939 0.0
H545 H 0.67326 0.57888 0.68924 0.0
H546 H 0.66849 0.62361 0.70127 0.0
H547 H 0.54196 0.61896 0.69858 0.0
H548 H 0.54599 0.57428 0.68619 0.0
H549 H 0.60171 0.42835 0.72921 0.0
H550 H 0.63302 0.46088 0.70621 0.0
H551 H 0.52114 0.4989 0.69919 0.0
H552 H 0.48996 0.46703 0.72281 0.0
H553 H 0.57849 0.53269 0.7064 0.0
H554 H 0.55928 0.46129 0.65798 0.0
H555 H 0.5652 0.41632 0.6468 0.0
H556 H 0.69161 0.42303 0.64744 0.0
H557 H 0.68645 0.46797 0.65895 0.0
C558 C 0.65102 0.60043 0.62702 0.0
C559 C 0.69237 0.60116 0.62606 0.0
C560 C 0.63161 0.57971 0.63682 0.0
C561 C 0.65339 0.55946 0.64579 0.0
C562 C 0.69459 0.55936 0.64326 0.0
C563 C 0.71391 0.58011 0.63356 0.0
C564 C 0.63386 0.53981 0.65974 0.0
C565 C 0.63733 0.51398 0.6541 0.0
C566 C 0.61245 0.54656 0.67888 0.0
C567 C 0.60993 0.57333 0.68656 0.0
C568 C 0.64442 0.58746 0.69106 0.0
C569 C 0.64186 0.61279 0.69796 0.0
C570 C 0.60495 0.62415 0.70063 0.0
C571 C 0.57052 0.61015 0.69647 0.0
C572 C 0.57293 0.58482 0.68951 0.0
C573 C 0.58385 0.44381 0.72305 0.0
C574 C 0.54334 0.44513 0.72804 0.0
C575 C 0.60172 0.46226 0.70966 0.0
C576 C 0.57935 0.48221 0.7007 0.0
C577 C 0.53903 0.4837 0.70586 0.0
C578 C 0.5212 0.46535 0.71932 0.0
C579 C 0.5978 0.5016 0.68598 0.0
C580 C 0.59435 0.52744 0.69157 0.0
C581 C 0.6193 0.4948 0.66686 0.0
C582 C 0.62248 0.46794 0.65951 0.0
C583 C 0.58835 0.45314 0.65585 0.0
C584 C 0.59156 0.42766 0.64945 0.0
C585 C 0.62876 0.41681 0.64646 0.0
C586 C 0.66282 0.43145 0.64978 0.0
C587 C 0.65977 0.45694 0.65623 0.0
H588 H 0.63119 0.39706 0.64153 0.0
H589 H 0.60302 0.64377 0.70597 0.0
H590 H 0.78321 0.92233 0.13141 0.0
H591 H 0.81507 0.95989 0.1476 0.0
H592 H 0.92894 0.92451 0.1393 0.0
H593 H 0.89627 0.88638 0.12431 0.0
H594 H 0.9267 0.94254 0.17762 0.0
H595 H 0.8976 0.97874 0.10835 0.0
H596 H 0.85771 0.98992 0.07587 0.0
H597 H 0.7803 0.03419 0.11652 0.0
H598 H 0.81937 0.02297 0.14932 0.0
H599 H 0.97582 0.08821 0.1958 0.0
H600 H 0.95585 0.05342 0.17147 0.0
H601 H 0.91751 0.00969 0.2278 0.0
H602 H 0.94066 0.04338 0.25208 0.0
H603 H 0.89149 0.03209 0.16106 0.0
H604 H 0.92458 0.94775 0.22047 0.0
H605 H 0.97123 0.93798 0.25042 0.0
H606 H 0.05509 0.99112 0.22349 0.0
H607 H 0.00926 1.00089 0.19316 0.0
C608 C 0.8151 0.92305 0.13253 0.0
C609 C 0.83752 0.90196 0.12612 0.0
C610 C 0.83339 0.94447 0.14175 0.0
C611 C 0.87465 0.94538 0.14442 0.0
C612 C 0.89715 0.92445 0.13734 0.0
C613 C 0.87867 0.90284 0.12845 0.0
C614 C 0.89367 0.96723 0.15616 0.0
C615 C 0.9192 0.96211 0.17384 0.0
C616 C 0.88485 0.99292 0.15103 0.0
C617 C 0.8613 0.99986 0.13133 0.0
C618 C 0.87192 0.99072 0.1104 0.0
C619 C 0.84947 0.99709 0.09192 0.0
C620 C 0.81646 0.01272 0.09413 0.0
C621 C 0.80588 0.02207 0.11483 0.0
C622 C 0.8282 0.01574 0.13337 0.0
C623 C 0.96336 0.07111 0.20304 0.0
C624 C 0.95935 0.06877 0.22602 0.0
C625 C 0.95172 0.05124 0.18905 0.0
C626 C 0.9355 0.02866 0.19769 0.0
C627 C 0.93072 0.02658 0.22061 0.0
C628 C 0.94329 0.04615 0.23458 0.0
C629 C 0.92355 0.00731 0.18285 0.0
C630 C 0.89936 0.01252 0.16463 0.0
C631 C 0.93483 0.98178 0.18695 0.0
C632 C 0.96331 0.97517 0.20461 0.0
C633 C 0.95311 0.95718 0.22081 0.0
C634 C 0.97939 0.95168 0.23789 0.0
C635 C 0.01605 0.96397 0.23889 0.0
C636 C 0.02665 0.98165 0.22272 0.0
C637 C 1.00054 0.98717 0.20558 0.0
H638 H 0.03627 0.95978 0.25218 0.0
H639 H 0.79911 0.01762 0.07981 0.0
H640 H 0.88514 0.13167 0.62517 0.0
H641 H 0.91693 0.09335 0.64032 0.0
H642 H 0.80211 0.06128 0.65461 0.0
H643 H 0.7708 0.09939 0.63938 0.0
H644 H 0.91166 0.07671 0.6827 0.0
H645 H 0.80622 0.99682 0.6508 0.0
H646 H 0.76755 0.98702 0.61744 0.0
H647 H 0.84595 0.03344 0.57874 0.0
H648 H 0.88549 0.04316 0.61176 0.0
H649 H 0.92629 0.96971 0.75266 0.0
H650 H 0.90137 0.00486 0.73038 0.0
H651 H 0.94558 0.96849 0.67171 0.0
H652 H 0.9684 0.93272 0.69362 0.0
H653 H 0.87872 0.98752 0.66255 0.0
H654 H 0.9949 0.02057 0.69829 0.0
H655 H 0.03807 0.03119 0.72977 0.0
H656 H 0.94756 0.07853 0.75708 0.0
H657 H 0.9038 0.06823 0.72584 0.0
C658 C 0.86698 0.11606 0.63108 0.0
C659 C 0.82573 0.11821 0.63119 0.0
C660 C 0.885 0.09437 0.63988 0.0
C661 C 0.86189 0.07445 0.64862 0.0
C662 C 0.82056 0.07625 0.64779 0.0
C663 C 0.80268 0.09794 0.63914 0.0
C664 C 0.88052 0.05248 0.6599 0.0
C665 C 0.90471 0.05719 0.67822 0.0
C666 C 0.87187 0.02702 0.65388 0.0
C667 C 0.84863 0.02089 0.63383 0.0
C668 C 0.81535 0.00482 0.63516 0.0
C669 C 0.79325 0.99929 0.6163 0.0
C670 C 0.80422 0.00965 0.596 0.0
C671 C 0.83741 0.02549 0.59449 0.0
C672 C 0.85965 0.03103 0.61328 0.0
C673 C 0.93013 0.96896 0.73499 0.0
C674 C 0.9493 0.94827 0.725 0.0
C675 C 0.91633 0.98929 0.72226 0.0
C676 C 0.92225 0.98965 0.69934 0.0
C677 C 0.94068 0.96878 0.68933 0.0
C678 C 0.95386 0.9483 0.70196 0.0
C679 C 0.9093 0.01169 0.68572 0.0
C680 C 0.88603 0.007 0.66698 0.0
C681 C 0.91955 0.03716 0.69108 0.0
C682 C 0.94597 0.04348 0.7098 0.0
C683 C 0.98413 0.03315 0.71107 0.0
C684 C 0.00871 0.0391 0.72885 0.0
C685 C 0.99549 0.05539 0.74544 0.0
C686 C 0.95774 0.06588 0.74423 0.0
C687 C 0.93308 0.06006 0.72647 0.0
H688 H 0.01456 0.05992 0.75921 0.0
H689 H 0.78704 0.00537 0.58143 0.0
H690 H 0.73139 0.41841 0.12666 0.0
H691 H 0.70365 0.45634 0.14431 0.0
H692 H 0.59144 0.41765 0.15073 0.0
H693 H 0.61934 0.38001 0.13236 0.0
H694 H 0.58013 0.46765 0.14408 0.0
H695 H 0.65699 0.41712 0.1944 0.0
H696 H 0.71569 0.39407 0.20764 0.0
H697 H 0.78507 0.46253 0.20269 0.0
H698 H 0.72666 0.48605 0.18966 0.0
H699 H 0.57142 0.5385 0.25746 0.0
H700 H 0.59394 0.50249 0.23511 0.0
H701 H 0.5904 0.54967 0.177 0.0
H702 H 0.56684 0.58529 0.19903 0.0
H703 H 0.65553 0.49334 0.21061 0.0
H704 H 0.56331 0.51515 0.13248 0.0
H705 H 0.50128 0.53691 0.12285 0.0
H706 H 0.45535 0.52182 0.18742 0.0
H707 H 0.51679 0.49959 0.19736 0.0
C708 C 0.70043 0.41855 0.13111 0.0
C709 C 0.67723 0.39665 0.12809 0.0
C710 C 0.68471 0.43999 0.14142 0.0
C711 C 0.64573 0.43961 0.14936 0.0
C712 C 0.62162 0.41835 0.14484 0.0
C713 C 0.63735 0.39697 0.13425 0.0
C714 C 0.63147 0.46036 0.16397 0.0
C715 C 0.5966 0.47331 0.1586 0.0
C716 C 0.65238 0.46737 0.18326 0.0
C717 C 0.68759 0.45326 0.19089 0.0
C718 C 0.68482 0.42721 0.19605 0.0
C719 C 0.71799 0.4141 0.20359 0.0
C720 C 0.75413 0.42679 0.20588 0.0
C721 C 0.75708 0.4527 0.20085 0.0
C722 C 0.72393 0.46596 0.1935 0.0
C723 C 0.57584 0.54121 0.23995 0.0
C724 C 0.5671 0.56462 0.22996 0.0
C725 C 0.58859 0.52063 0.22718 0.0
C726 C 0.59303 0.5232 0.20428 0.0
C727 C 0.58615 0.54698 0.19451 0.0
C728 C 0.57291 0.56739 0.20717 0.0
C729 C 0.60463 0.50106 0.19052 0.0
C730 C 0.63898 0.48777 0.19608 0.0
C731 C 0.58266 0.49341 0.17175 0.0
C732 C 0.54486 0.50585 0.1657 0.0
C733 C 0.53987 0.51628 0.14457 0.0
C734 C 0.50483 0.52874 0.13908 0.0
C735 C 0.47447 0.53079 0.15454 0.0
C736 C 0.47896 0.52027 0.1755 0.0
C737 C 0.51388 0.50772 0.18106 0.0
H738 H 0.44743 0.54047 0.15026 0.0
H739 H 0.7798 0.41656 0.21162 0.0
H740 H 0.38209 0.39162 0.4018 0.0
H741 H 0.41314 0.42943 0.38531 0.0
H742 H 0.299 0.46528 0.38104 0.0
H743 H 0.26827 0.42709 0.39695 0.0
H744 H 0.33048 0.46374 0.34246 0.0
H745 H 0.38155 0.49871 0.41158 0.0
H746 H 0.41729 0.49973 0.44692 0.0
H747 H 0.51887 0.46653 0.41616 0.0
H748 H 0.48429 0.46644 0.38037 0.0
H749 H 0.40295 0.58087 0.29631 0.0
H750 H 0.37222 0.54721 0.31848 0.0
H751 H 0.48225 0.50625 0.31925 0.0
H752 H 0.51273 0.53937 0.29655 0.0
H753 H 0.45277 0.51172 0.36034 0.0
H754 H 0.4031 0.47607 0.29202 0.0
H755 H 0.36914 0.47475 0.25613 0.0
H756 H 0.26614 0.50829 0.28517 0.0
H757 H 0.29917 0.50902 0.32142 0.0
C758 C 0.3641 0.40806 0.39813 0.0
C759 C 0.32296 0.40664 0.40056 0.0
C760 C 0.38176 0.42971 0.38872 0.0
C761 C 0.35849 0.45036 0.38183 0.0
C762 C 0.31766 0.44965 0.38609 0.0
C763 C 0.30008 0.42796 0.39529 0.0
C764 C 0.37522 0.47046 0.36709 0.0
C765 C 0.35673 0.47463 0.3467 0.0
C766 C 0.41042 0.48398 0.37191 0.0
C767 C 0.43017 0.48216 0.39349 0.0
C768 C 0.41133 0.49134 0.41245 0.0
C769 C 0.43148 0.49195 0.4325 0.0
C770 C 0.4701 0.48284 0.43389 0.0
C771 C 0.48888 0.47343 0.41511 0.0
C772 C 0.46916 0.47331 0.3949 0.0
C773 C 0.42041 0.56449 0.3009 0.0
C774 C 0.46052 0.56305 0.29503 0.0
C775 C 0.40279 0.54522 0.31355 0.0
C776 C 0.42496 0.5242 0.32061 0.0
C777 C 0.46463 0.52236 0.31415 0.0
C778 C 0.48209 0.54144 0.30132 0.0
C779 C 0.40771 0.50507 0.33597 0.0
C780 C 0.42624 0.501 0.35632 0.0
C781 C 0.37263 0.49154 0.33112 0.0
C782 C 0.35369 0.49287 0.30926 0.0
C783 C 0.37333 0.48335 0.29067 0.0
C784 C 0.3541 0.48244 0.27035 0.0
C785 C 0.31554 0.49149 0.26836 0.0
C786 C 0.29601 0.5013 0.28674 0.0
C787 C 0.31485 0.50179 0.3072 0.0
H788 H 0.30082 0.49095 0.25256 0.0
H789 H 0.48554 0.48323 0.44947 0.0
H790 H 0.13198 0.11592 0.90567 0.0
H791 H 0.10057 0.07991 0.88644 0.0
H792 H 0.21448 0.04449 0.87897 0.0
H793 H 0.24547 0.0806 0.89804 0.0
H794 H 0.17924 0.04963 0.84015 0.0
H795 H 0.14083 0.01747 0.91084 0.0
H796 H 0.11037 0.01745 0.94754 0.0
H797 H 0.99719 0.03328 0.91891 0.0
H798 H 0.02721 0.03364 0.88191 0.0
H799 H 0.11107 0.9323 0.79249 0.0
H800 H 0.14113 0.96544 0.81545 0.0
H801 H 0.02928 1.00402 0.81936 0.0
H802 H 0.99931 0.97149 0.79589 0.0
H803 H 0.063 0.99666 0.86016 0.0
H804 H 0.09944 0.03301 0.79103 0.0
H805 H 0.12754 0.03509 0.75365 0.0
H806 H 0.24058 0.01243 0.7787 0.0
H807 H 0.21314 0.0105 0.81633 0.0
C808 C 0.14983 0.09987 0.90068 0.0
C809 C 0.19095 0.10078 0.90333 0.0
C810 C 0.13202 0.07938 0.88959 0.0
C811 C 0.15518 0.05948 0.8811 0.0
C812 C 0.19599 0.05963 0.88523 0.0
C813 C 0.21366 0.08008 0.89627 0.0
C814 C 0.13786 0.04012 0.8659 0.0
C815 C 0.15428 0.03771 0.84475 0.0
C816 C 0.10428 0.02525 0.87142 0.0
C817 C 0.08638 0.0259 0.89365 0.0
C818 C 0.10955 0.02129 0.91239 0.0
C819 C 0.09229 0.02114 0.93326 0.0
C820 C 0.05182 0.02548 0.9356 0.0
C821 C 0.02854 0.02999 0.91707 0.0
C822 C 0.04566 0.03014 0.89614 0.0
C823 C 0.09304 0.9481 0.79783 0.0
C824 C 0.05271 0.94914 0.7924 0.0
C825 C 0.11025 0.967 0.81103 0.0
C826 C 0.08739 0.98717 0.81919 0.0
C827 C 0.04741 0.98857 0.81336 0.0
C828 C 0.03036 0.96992 0.79992 0.0
C829 C 0.10465 0.00612 0.83465 0.0
C830 C 0.08813 0.00849 0.85573 0.0
C831 C 0.13783 0.02118 0.82902 0.0
C832 C 0.15419 0.02139 0.80642 0.0
C833 C 0.13021 0.02827 0.78853 0.0
C834 C 0.14607 0.02959 0.76734 0.0
C835 C 0.18583 0.02388 0.7638 0.0
C836 C 0.20981 0.01689 0.78148 0.0
C837 C 0.19417 0.01578 0.80276 0.0
H838 H 0.19802 0.02482 0.74735 0.0
H839 H 0.03842 0.0253 0.95174 0.0
H840 H 0.22543 0.09456 0.94968 0.0
H841 H 0.20748 0.08535 0.98812 0.0
H842 H 0.13518 0.15274 0.98949 0.0
H843 H 0.15284 0.16158 0.9511 0.0
H844 H 0.18816 0.15389 0.0218 0.0
H845 H 0.09245 0.09466 0.99616 0.0
H846 H 0.06069 0.05814 0.97782 0.0
H847 H 0.14057 0.007 1.01002 0.0
H848 H 0.17296 0.04333 0.02854 0.0
H849 H 0.11902 0.13773 0.13193 0.0
H850 H 0.12154 0.14162 0.09178 0.0
H851 H 0.19855 0.07659 0.08843 0.0
H852 H 0.19558 0.0723 0.12849 0.0
H853 H 0.14035 0.07447 0.05726 0.0
H854 H 0.23549 0.13618 0.0831 0.0
H855 H 0.258 0.17311 0.10491 0.0
H856 H 0.1727 0.22052 0.07279 0.0
H857 H 0.14931 0.18376 0.05099 0.0
C858 C 0.20464 0.10681 0.95804 0.0
C859 C 0.19077 0.12888 0.94764 0.0
C860 C 0.19446 0.10163 0.98 0.0
C861 C 0.17022 0.11849 0.99183 0.0
C862 C 0.15417 0.13956 0.98083 0.0
C863 C 0.16417 0.1446 0.95892 0.0
C864 C 0.16549 0.11599 0.01615 0.0
C865 C 0.17709 0.13661 0.02948 0.0
C866 C 0.15196 0.09332 0.02634 0.0
C867 C 0.13539 0.07175 0.01355 0.0
C868 C 0.10376 0.07569 0.99901 0.0
C869 C 0.08545 0.05498 0.98869 0.0
C870 C 0.09852 0.03023 0.9928 0.0
C871 C 0.1304 0.02617 1.00691 0.0
C872 C 0.14873 0.04681 0.01733 0.0
C873 C 0.13623 0.12413 0.12263 0.0
C874 C 0.15723 0.10476 0.13345 0.0
C875 C 0.1379 0.1265 0.09969 0.0
C876 C 0.16058 0.10955 0.08708 0.0
C877 C 0.18098 0.08994 0.0978 0.0
C878 C 0.1795 0.08764 0.12073 0.0
C879 C 0.16316 0.11224 0.06273 0.0
C880 C 0.1514 0.09168 0.04946 0.0
C881 C 0.17622 0.13503 0.05256 0.0
C882 C 0.19039 0.15716 0.06558 0.0
C883 C 0.22133 0.15443 0.08081 0.0
C884 C 0.23428 0.17534 0.09315 0.0
C885 C 0.21672 0.19913 0.09028 0.0
C886 C 0.18624 0.20207 0.07502 0.0
C887 C 0.17314 0.18121 0.06266 0.0
H888 H 0.22679 0.2153 0.09985 0.0
H889 H 0.08389 0.01415 0.98513 0.0
H890 H 0.28046 0.40438 0.44779 0.0
H891 H 0.29747 0.41099 0.48657 0.0
H892 H 0.38679 0.35286 0.48158 0.0
H893 H 0.36806 0.34563 0.44301 0.0
H894 H 0.34754 0.34405 0.51613 0.0
H895 H 0.40859 0.41967 0.48944 0.0
H896 H 0.41476 0.45971 0.4688 0.0
H897 H 0.31959 0.49192 0.50617 0.0
H898 H 0.31268 0.45181 0.527 0.0
H899 H 0.40927 0.3693 0.62725 0.0
H900 H 0.41143 0.36772 0.58681 0.0
H901 H 0.30439 0.41169 0.58378 0.0
H902 H 0.30209 0.41327 0.62399 0.0
H903 H 0.36144 0.42769 0.55337 0.0
H904 H 0.29922 0.34925 0.57801 0.0
H905 H 0.29666 0.30909 0.59903 0.0
H906 H 0.39984 0.28251 0.56515 0.0
H907 H 0.40331 0.3227 0.54414 0.0
C908 C 0.30443 0.39361 0.45494 0.0
C909 C 0.32329 0.37472 0.44257 0.0
C910 C 0.31425 0.39734 0.47709 0.0
C911 C 0.34381 0.38261 0.48716 0.0
C912 C 0.36387 0.36447 0.47435 0.0
C913 C 0.35352 0.36048 0.4523 0.0
C914 C 0.3515 0.38472 0.51134 0.0
C915 C 0.35145 0.36237 0.52412 0.0
C916 C 0.35601 0.40853 0.52208 0.0
C917 C 0.35993 0.43267 0.50964 0.0
C918 C 0.38879 0.43522 0.49315 0.0
C919 C 0.39243 0.45798 0.48143 0.0
C920 C 0.36746 0.4784 0.48608 0.0
C921 C 0.33888 0.47609 0.50256 0.0
C922 C 0.33514 0.45336 0.51436 0.0
C923 C 0.38652 0.37886 0.6179 0.0
C924 C 0.35536 0.39125 0.62875 0.0
C925 C 0.38766 0.37785 0.59485 0.0
C926 C 0.35787 0.38942 0.58229 0.0
C927 C 0.32763 0.4026 0.59312 0.0
C928 C 0.32623 0.40336 0.61608 0.0
C929 C 0.35705 0.38715 0.55789 0.0
C930 C 0.35819 0.40944 0.54518 0.0
C931 C 0.35406 0.36329 0.54719 0.0
C932 C 0.35179 0.33908 0.5597 0.0
C933 C 0.32155 0.33492 0.57518 0.0
C934 C 0.3199 0.31214 0.58706 0.0
C935 C 0.34814 0.29329 0.58348 0.0
C936 C 0.37803 0.29715 0.56794 0.0
C937 C 0.37984 0.31992 0.55603 0.0
H938 H 0.34681 0.27567 0.59269 0.0
H939 H 0.37027 0.49604 0.47701 0.0
H940 H 0.70316 0.40312 0.0833 0.0
H941 H 0.67868 0.41324 0.04639 0.0
H942 H 0.6187 0.3405 0.044 0.0
H943 H 0.64121 0.33128 0.08139 0.0
H944 H 0.6974 0.39191 1.01079 0.0
H945 H 0.54505 0.33919 1.00712 0.0
H946 H 0.48756 0.33161 0.03122 0.0
H947 H 0.51675 0.3984 0.06874 0.0
H948 H 0.57406 0.40661 0.04469 0.0
H949 H 0.66217 0.35883 0.9024 0.0
H950 H 0.66552 0.35631 0.94253 0.0
H951 H 0.56892 0.40924 0.94766 0.0
H952 H 0.56463 0.41098 0.90723 0.0
H953 H 0.56402 0.37538 0.98004 0.0
H954 H 0.66471 0.42988 0.95234 0.0
H955 H 0.72033 0.44269 0.92851 0.0
H956 H 0.79097 0.38248 0.9552 0.0
H957 H 0.73554 0.36904 0.97894 0.0
C958 C 0.68357 0.38978 0.07515 0.0
C959 C 0.67408 0.36642 0.08511 0.0
C960 C 0.66994 0.39539 0.05395 0.0
C961 C 0.64671 0.37768 0.04225 0.0
C962 C 0.63594 0.35475 0.05266 0.0
C963 C 0.64914 0.34932 0.07394 0.0
C964 C 0.63715 0.38196 0.01855 0.0
C965 C 0.66811 0.38845 1.00419 0.0
C966 C 0.59879 0.37803 1.00977 0.0
C967 C 0.56407 0.37338 0.02418 0.0
C968 C 0.5391 0.35234 0.02043 0.0
C969 C 0.50655 0.34792 0.03411 0.0
C970 C 0.49857 0.36448 0.05153 0.0
C971 C 0.52304 0.38554 0.05529 0.0
C972 C 0.5556 0.39006 0.04165 0.0
C973 C 0.64117 0.36952 0.91213 0.0
C974 C 0.61327 0.38518 0.90183 0.0
C975 C 0.64324 0.36823 0.93504 0.0
C976 C 0.61818 0.38311 0.94818 0.0
C977 C 0.58875 0.39771 0.9379 0.0
C978 C 0.58625 0.39868 0.91486 0.0
C979 C 0.62457 0.38444 0.97244 0.0
C980 C 0.59313 0.37903 0.98681 0.0
C981 C 0.66223 0.39016 0.98138 0.0
C982 C 0.69586 0.39835 0.96732 0.0
C983 C 0.69203 0.41928 0.95304 0.0
C984 C 0.72352 0.42666 0.93955 0.0
C985 C 0.75914 0.41338 0.94031 0.0
C986 C 0.76336 0.39274 0.95461 0.0
C987 C 0.73192 0.38525 0.96811 0.0
H988 H 0.78349 0.41912 0.92985 0.0
H989 H 0.47337 0.36101 0.06211 0.0
H990 H 0.78961 0.11189 0.58408 0.0
H991 H 0.81448 0.09967 0.54747 0.0
H992 H 0.89407 0.16411 0.54827 0.0
H993 H 0.86853 0.17645 0.58465 0.0
H994 H 0.81015 0.13207 0.50962 0.0
H995 H 0.97945 0.14264 0.51995 0.0
H996 H 0.02963 0.13723 0.54897 0.0
H997 H 0.9554 0.08237 0.58153 0.0
H998 H 0.90515 0.08708 0.55252 0.0
H999 H 0.89823 0.14541 0.40516 0.0
H1000 H 0.88948 0.15331 0.44467 0.0
H1001 H 0.91771 0.07495 0.45848 0.0
H1002 H 0.92616 0.06692 0.41902 0.0
H1003 H 0.94857 0.11067 0.49042 0.0
H1004 H 0.8269 0.08729 0.45405 0.0
H1005 H 0.7759 0.09125 0.42533 0.0
H1006 H 0.75262 0.16795 0.44597 0.0
H1007 H 0.80401 0.16457 0.47459 0.0
C1008 C 0.81292 0.12304 0.5765 0.0
C1009 C 0.82741 0.14498 0.58696 0.0
C1010 C 0.8269 0.11622 0.55563 0.0
C1011 C 0.8561 0.131 0.54518 0.0
C1012 C 0.87172 0.15237 0.5561 0.0
C1013 C 0.85727 0.15939 0.57678 0.0
C1014 C 0.86848 0.12515 0.52229 0.0
C1015 C 0.84041 0.12736 0.50545 0.0
C1016 C 0.90789 0.11887 0.51688 0.0
C1017 C 0.93835 0.11544 0.53415 0.0
C1018 C 0.97393 0.12933 0.53324 0.0
C1019 C 0.00239 0.12638 0.54969 0.0
C1020 C 0.99566 0.10953 0.56711 0.0
C1021 C 0.96053 0.09549 0.56807 0.0
C1022 C 0.93203 0.09832 0.55163 0.0
C1023 C 0.90366 0.13008 0.41668 0.0
C1024 C 0.91266 0.10553 0.40905 0.0
C1025 C 0.89848 0.13457 0.43922 0.0
C1026 C 0.9026 0.11464 0.45448 0.0
C1027 C 0.91441 0.09058 0.447 0.0
C1028 C 0.91909 0.086 0.42447 0.0
C1029 C 0.89038 0.11812 0.47778 0.0
C1030 C 0.91839 0.11546 0.49464 0.0
C1031 C 0.85079 0.12379 0.48331 0.0
C1032 C 0.81956 0.12576 0.46631 0.0
C1033 C 0.81112 0.10506 0.45235 0.0
C1034 C 0.78212 0.1072 0.4361 0.0
C1035 C 0.7611 0.12986 0.43379 0.0
C1036 C 0.76897 0.15042 0.44776 0.0
C1037 C 0.79802 0.1484 0.464 0.0
H1038 H 0.73865 0.13148 0.42121 0.0
H1039 H 0.0177 0.10732 0.57985 0.0
H1040 H 0.76496 0.88835 0.06808 0.0
H1041 H 0.78769 0.89978 0.03092 0.0
H1042 H 0.9077 0.884 0.05017 0.0
H1043 H 0.88466 0.87243 0.08718 0.0
H1044 H 0.90388 0.92596 0.02371 0.0
H1045 H 0.85408 0.84014 0.02304 0.0
H1046 H 0.80417 0.80661 0.02954 0.0
H1047 H 0.72484 0.84345 0.98474 0.0
H1048 H 0.77406 0.87748 0.97827 0.0
H1049 H 0.99145 0.90909 0.91922 0.0
H1050 H 0.96644 0.90287 0.95653 0.0
H1051 H 0.84725 0.91259 0.93308 0.0
H1052 H 0.87227 0.91824 0.89548 0.0
H1053 H 0.84867 0.87552 0.96177 0.0
H1054 H 0.90103 0.96079 0.96125 0.0
H1055 H 0.95126 0.99444 0.95584 0.0
H1056 H 0.02652 0.95859 1.00334 0.0
H1057 H 0.97708 0.92449 1.00876 0.0
C1058 C 0.79621 0.88779 0.06435 0.0
C1059 C 0.82319 0.8798 0.08042 0.0
C1060 C 0.80919 0.89418 0.04317 0.0
C1061 C 0.8494 0.89245 0.03763 0.0
C1062 C 0.87658 0.88556 0.05403 0.0
C1063 C 0.86353 0.87915 0.07521 0.0
C1064 C 0.86288 0.89641 0.01451 0.0
C1065 C 0.89209 0.91479 1.01018 0.0
C1066 C 0.84698 0.88216 0.99676 0.0
C1067 C 0.8176 0.8615 1.00034 0.0
C1068 C 0.82589 0.84119 0.01468 0.0
C1069 C 0.79774 0.82208 0.01836 0.0
C1070 C 0.76132 0.82293 1.0076 0.0
C1071 C 0.75304 0.84285 0.99309 0.0
C1072 C 0.78106 0.86204 0.98941 0.0
C1073 C 0.9599 0.90997 0.92201 0.0
C1074 C 0.93386 0.91441 0.9044 0.0
C1075 C 0.9456 0.90651 0.9434 0.0
C1076 C 0.90494 0.90786 0.94785 0.0
C1077 C 0.87876 0.91161 0.93018 0.0
C1078 C 0.89306 0.91478 0.90866 0.0
C1079 C 0.88986 0.90514 0.97086 0.0
C1080 C 0.86034 0.88689 0.97521 0.0
C1081 C 0.9056 0.91949 0.98864 0.0
C1082 C 0.93544 0.93996 0.98528 0.0
C1083 C 0.92842 0.95996 0.97041 0.0
C1084 C 0.95674 0.97913 0.96736 0.0
C1085 C 0.99205 0.97862 0.97923 0.0
C1086 C 0.99916 0.95894 0.99415 0.0
C1087 C 0.971 0.9397 0.99722 0.0
H1088 H 0.01387 0.99349 0.97696 0.0
H1089 H 0.73955 0.80813 1.01047 0.0
H1090 H 0.65667 0.66507 0.57854 0.0
H1091 H 0.62941 0.65413 0.54249 0.0
H1092 H 0.6866 0.58092 0.54562 0.0
H1093 H 0.716 0.59276 0.58112 0.0
H1094 H 0.69817 0.59881 0.50741 0.0
H1095 H 0.58286 0.5892 0.55085 0.0
H1096 H 0.5321 0.60081 0.57811 0.0
H1097 H 0.49774 0.66442 0.5382 0.0
H1098 H 0.54873 0.65343 0.51084 0.0
H1099 H 0.53069 0.57049 0.42133 0.0
H1100 H 0.55164 0.57683 0.45926 0.0
H1101 H 0.65059 0.62197 0.43686 0.0
H1102 H 0.63169 0.61402 0.39877 0.0
H1103 H 0.55901 0.61357 0.48573 0.0
H1104 H 0.7284 0.61703 0.47028 0.0
H1105 H 0.77713 0.59913 0.44442 0.0
H1106 H 0.69928 0.5362 0.43097 0.0
H1107 H 0.65033 0.55354 0.45695 0.0
C1108 C 0.66331 0.64665 0.57148 0.0
C1109 C 0.6887 0.62985 0.58246 0.0
C1110 C 0.64736 0.64025 0.55098 0.0
C1111 C 0.65557 0.61656 0.54124 0.0
C1112 C 0.67981 0.59934 0.55266 0.0
C1113 C 0.69626 0.60595 0.57306 0.0
C1114 C 0.64069 0.61043 0.51869 0.0
C1115 C 0.66767 0.60196 0.50275 0.0
C1116 C 0.60071 0.61395 0.51252 0.0
C1117 C 0.56985 0.6206 0.52887 0.0
C1118 C 0.56467 0.60577 0.54796 0.0
C1119 C 0.53583 0.61223 0.56342 0.0
C1120 C 0.51176 0.63337 0.55991 0.0
C1121 C 0.51643 0.64807 0.5409 0.0
C1122 C 0.54527 0.64171 0.5254 0.0
C1123 C 0.55731 0.58145 0.42435 0.0
C1124 C 0.57977 0.59133 0.40673 0.0
C1125 C 0.569 0.58534 0.44619 0.0
C1126 C 0.60321 0.59947 0.45108 0.0
C1127 C 0.62464 0.61043 0.43361 0.0
C1128 C 0.61336 0.60618 0.41173 0.0
C1129 C 0.61667 0.60242 0.47439 0.0
C1130 C 0.58945 0.61033 0.49044 0.0
C1131 C 0.6561 0.59746 0.48087 0.0
C1132 C 0.68557 0.58673 0.4654 0.0
C1133 C 0.72176 0.59932 0.46187 0.0
C1134 C 0.7494 0.58928 0.44717 0.0
C1135 C 0.74125 0.56659 0.43601 0.0
C1136 C 0.7055 0.55382 0.43957 0.0
C1137 C 0.67779 0.56376 0.45426 0.0
H1138 H 0.76267 0.55887 0.42463 0.0
H1139 H 0.48944 0.63834 0.5719 0.0
H1140 H 0.38359 0.6448 0.93073 0.0
H1141 H 0.4108 0.63284 0.96677 0.0
H1142 H 0.29264 0.62822 0.99319 0.0
H1143 H 0.26575 0.63948 0.95704 0.0
H1144 H 0.40661 0.65761 1.00498 0.0
H1145 H 0.28773 0.58398 0.03316 0.0
H1146 H 0.24516 0.55082 0.01669 0.0
H1147 H 0.32663 0.54264 0.96301 0.0
H1148 H 0.37 0.57544 0.97933 0.0
H1149 H 0.39631 0.64643 0.12155 0.0
H1150 H 0.38791 0.65299 0.08191 0.0
H1151 H 0.42295 0.57527 0.06993 0.0
H1152 H 0.43004 0.56854 0.10958 0.0
H1153 H 0.35962 0.58354 0.04858 0.0
H1154 H 0.48162 0.62838 0.05475 0.0
H1155 H 0.52925 0.65945 0.06989 0.0
H1156 H 0.45199 0.72082 0.05256 0.0
H1157 H 0.40362 0.6901 0.03759 0.0
C1158 C 0.36362 0.64058 0.94417 0.0
C1159 C 0.3227 0.64283 0.94125 0.0
C1160 C 0.37909 0.63406 0.96476 0.0
C1161 C 0.35379 0.62952 0.9827 0.0
C1162 C 0.31277 0.63129 0.97958 0.0
C1163 C 0.2974 0.6378 0.95902 0.0
C1164 C 0.37003 0.62392 1.00491 0.0
C1165 C 0.39654 0.64134 0.0145 0.0
C1166 C 0.35759 0.6024 0.01717 0.0
C1167 C 0.33196 0.58234 1.00741 0.0
C1168 C 0.29668 0.57501 0.01791 0.0
C1169 C 0.27238 0.55629 1.00859 0.0
C1170 C 0.28313 0.54468 0.98879 0.0
C1171 C 0.31827 0.5517 0.97831 0.0
C1172 C 0.3427 0.57038 0.98758 0.0
C1173 C 0.40312 0.631 0.11036 0.0
C1174 C 0.41377 0.607 0.11855 0.0
C1175 C 0.39834 0.63472 0.0877 0.0
C1176 C 0.40489 0.61464 0.0728 0.0
C1177 C 0.41746 0.59102 0.08101 0.0
C1178 C 0.4217 0.58721 0.10365 0.0
C1179 C 0.39557 0.61758 0.04896 0.0
C1180 C 0.37015 0.59969 0.03906 0.0
C1181 C 0.40979 0.63834 0.03627 0.0
C1182 C 0.43886 0.6569 0.04518 0.0
C1183 C 0.47466 0.64849 0.0543 0.0
C1184 C 0.50181 0.66604 0.06283 0.0
C1185 C 0.49362 0.69208 0.06223 0.0
C1186 C 0.45829 0.70064 0.05303 0.0
C1187 C 0.43102 0.68316 0.04449 0.0
H1188 H 0.51468 0.70564 0.06884 0.0
H1189 H 0.26426 0.53022 0.98159 0.0
H1190 H 0.19543 0.90362 0.43592 0.0
H1191 H 0.17229 0.91594 0.47269 0.0
H1192 H 0.12018 0.84136 0.48116 0.0
H1193 H 0.14187 0.82961 0.44405 0.0
H1194 H 0.07575 0.87572 0.50131 0.0
H1195 H 0.21364 0.85503 0.4994 0.0
H1196 H 0.28242 0.85869 0.48641 0.0
H1197 H 0.28649 0.93679 0.50734 0.0
H1198 H 0.21744 0.93371 0.52013 0.0
H1199 H 0.09304 0.86207 0.61877 0.0
H1200 H 0.09422 0.8584 0.57856 0.0
H1201 H 0.1388 0.9353 0.57364 0.0
H1202 H 0.13737 0.93916 0.61369 0.0
H1203 H 0.18429 0.90234 0.5512 0.0
H1204 H 0.04573 0.92026 0.5566 0.0
H1205 H 0.97787 0.91402 0.57038 0.0
H1206 H 0.9762 0.83805 0.5442 0.0
H1207 H 0.04429 0.84371 0.53052 0.0
C1208 C 0.17794 0.89025 0.44541 0.0
C1209 C 0.17059 0.86564 0.43734 0.0
C1210 C 0.16507 0.89714 0.46649 0.0
C1211 C 0.1452 0.87938 0.47994 0.0
C1212 C 0.13558 0.85538 0.47121 0.0
C1213 C 0.14813 0.8486 0.4501 0.0
C1214 C 0.13773 0.88479 0.50365 0.0
C1215 C 0.0995 0.88144 0.51224 0.0
C1216 C 0.16862 0.89239 0.51797 0.0
C1217 C 0.21025 0.89422 0.5105 0.0
C1218 C 0.22912 0.87303 0.5011 0.0
C1219 C 0.26815 0.875 0.49378 0.0
C1220 C 0.28878 0.89798 0.496 0.0
C1221 C 0.27045 0.91902 0.50559 0.0
C1222 C 0.23136 0.91718 0.51288 0.0
C1223 C 0.10214 0.8784 0.60909 0.0
C1224 C 0.11548 0.90081 0.61946 0.0
C1225 C 0.10288 0.87627 0.5861 0.0
C1226 C 0.11669 0.89657 0.57305 0.0
C1227 C 0.12828 0.91933 0.58335 0.0
C1228 C 0.12753 0.92148 0.60626 0.0
C1229 C 0.12226 0.89346 0.54889 0.0
C1230 C 0.16034 0.89702 0.54024 0.0
C1231 C 0.09134 0.88571 0.53467 0.0
C1232 C 0.05026 0.88234 0.5427 0.0
C1233 C 0.03101 0.90216 0.55392 0.0
C1234 C 0.99248 0.89873 0.56169 0.0
C1235 C 0.97277 0.87563 0.55821 0.0
C1236 C 0.99152 0.85593 0.5469 0.0
C1237 C 0.03006 0.85925 0.53911 0.0
H1238 H 0.94295 0.87301 0.56425 0.0
H1239 H 0.31901 0.89946 0.49033 0.0
H1240 H 0.29175 0.2971 0.38903 0.0
H1241 H 0.2518 0.26465 0.36997 0.0
H1242 H 0.15923 0.31969 0.36043 0.0
H1243 H 0.19917 0.35195 0.37969 0.0
H1244 H 0.12982 0.27382 0.37406 0.0
H1245 H 0.21912 0.30417 0.31865 0.0
H1246 H 0.28398 0.31474 0.30252 0.0
H1247 H 0.31883 0.23645 0.30759 0.0
H1248 H 0.25438 0.22547 0.3241 0.0
H1249 H 0.01947 0.20283 0.29467 0.0
H1250 H 0.05802 0.23606 0.31339 0.0
H1251 H 0.15414 0.18338 0.32191 0.0
H1252 H 0.11562 0.15017 0.30344 0.0
H1253 H 0.18114 0.22883 0.30825 0.0
H1254 H 0.09324 0.1985 0.36453 0.0
H1255 H 0.02856 0.18751 0.38071 0.0
H1256 H 0.99147 0.26522 0.37418 0.0
H1257 H 0.05576 0.2766 0.35765 0.0
C1258 C 0.26279 0.30209 0.38291 0.0
C1259 C 0.24843 0.32691 0.38568 0.0
C1260 C 0.24009 0.28367 0.37194 0.0
C1261 C 0.20262 0.28979 0.36356 0.0
C1262 C 0.18804 0.31453 0.36669 0.0
C1263 C 0.21084 0.33295 0.37755 0.0
C1264 C 0.17864 0.27042 0.35154 0.0
C1265 C 0.14084 0.26423 0.3595 0.0
C1266 C 0.19328 0.2575 0.33279 0.0
C1267 C 0.23206 0.26405 0.32285 0.0
C1268 C 0.24074 0.28924 0.31652 0.0
C1269 C 0.27741 0.2953 0.30728 0.0
C1270 C 0.30555 0.27629 0.30409 0.0
C1271 C 0.29703 0.25116 0.3101 0.0
C1272 C 0.26043 0.24501 0.3194 0.0
C1273 C 0.0487 0.19833 0.30071 0.0
C1274 C 0.06465 0.17397 0.29749 0.0
C1275 C 0.07074 0.21732 0.31136 0.0
C1276 C 0.10895 0.2122 0.3192 0.0
C1277 C 0.12483 0.18785 0.31596 0.0
C1278 C 0.10281 0.16889 0.30536 0.0
C1279 C 0.13243 0.23213 0.33085 0.0
C1280 C 0.17012 0.23844 0.32281 0.0
C1281 C 0.11774 0.24509 0.34956 0.0
C1282 C 0.07916 0.23834 0.35964 0.0
C1283 C 0.07118 0.2132 0.36639 0.0
C1284 C 0.03461 0.20691 0.37565 0.0
C1285 C 0.00588 0.22564 0.37842 0.0
C1286 C 0.01372 0.25072 0.37199 0.0
C1287 C 0.05023 0.25711 0.36269 0.0
H1288 H 0.97759 0.22073 0.38559 0.0
H1289 H 0.33392 0.28102 0.29692 0.0
H1290 H 0.31918 0.17305 0.90914 0.0
H1291 H 0.35665 0.20691 0.89024 0.0
H1292 H 0.25084 0.22923 0.85584 0.0
H1293 H 0.21388 0.19512 0.87464 0.0
H1294 H 0.31133 0.22568 0.82813 0.0
H1295 H 0.28959 0.26489 0.89846 0.0
H1296 H 0.29168 0.26779 0.93895 0.0
H1297 H 0.41817 0.26288 0.93754 0.0
H1298 H 0.41681 0.25956 0.89704 0.0
H1299 H 0.37503 0.35287 0.79577 0.0
H1300 H 0.34066 0.3187 0.81546 0.0
H1301 H 0.45159 0.28123 0.82691 0.0
H1302 H 0.48594 0.31429 0.80573 0.0
H1303 H 0.3909 0.29201 0.86607 0.0
H1304 H 0.4126 0.25228 0.79602 0.0
H1305 H 0.41049 0.24564 0.75591 0.0
H1306 H 0.28392 0.24946 0.75713 0.0
H1307 H 0.28533 0.25707 0.79717 0.0
C1308 C 0.30416 0.18546 0.89768 0.0
C1309 C 0.26389 0.18181 0.89328 0.0
C1310 C 0.32538 0.20478 0.88695 0.0
C1311 C 0.30651 0.22082 0.87173 0.0
C1312 C 0.26606 0.21715 0.8675 0.0
C1313 C 0.24494 0.19783 0.87823 0.0
C1314 C 0.32909 0.24078 0.85956 0.0
C1315 C 0.32823 0.24041 0.83646 0.0
C1316 C 0.35216 0.25957 0.87039 0.0
C1317 C 0.35306 0.26172 0.89473 0.0
C1318 C 0.31784 0.26423 0.90679 0.0
C1319 C 0.31889 0.26598 0.92974 0.0
C1320 C 0.35503 0.26546 0.94081 0.0
C1321 C 0.3902 0.26325 0.92894 0.0
C1322 C 0.3893 0.26145 0.90599 0.0
C1323 C 0.39204 0.33702 0.80184 0.0
C1324 C 0.4331 0.33597 0.79841 0.0
C1325 C 0.37238 0.31766 0.81336 0.0
C1326 C 0.39356 0.29731 0.82238 0.0
C1327 C 0.43471 0.29668 0.81987 0.0
C1328 C 0.45425 0.31565 0.80778 0.0
C1329 C 0.37265 0.27694 0.83473 0.0
C1330 C 0.37384 0.2773 0.85782 0.0
C1331 C 0.34986 0.25811 0.82391 0.0
C1332 C 0.34913 0.25568 0.79959 0.0
C1333 C 0.38437 0.25237 0.78769 0.0
C1334 C 0.38328 0.24823 0.76497 0.0
C1335 C 0.34708 0.24698 0.75401 0.0
C1336 C 0.31193 0.25031 0.76567 0.0
C1337 C 0.31287 0.2547 0.78835 0.0
H1338 H 0.34626 0.24352 0.73646 0.0
H1339 H 0.35578 0.26682 0.95858 0.0
H1340 H 0.78246 0.22867 0.62711 0.0
H1341 H 0.73964 0.26143 0.64292 0.0
H1342 H 0.66259 0.20271 0.66858 0.0
H1343 H 0.70374 0.17025 0.65126 0.0
H1344 H 0.61929 0.23857 0.65557 0.0
H1345 H 0.7353 0.23613 0.70053 0.0
H1346 H 0.80652 0.23797 0.70884 0.0
H1347 H 0.81218 0.31477 0.68468 0.0
H1348 H 0.74105 0.31326 0.67595 0.0
H1349 H 0.53883 0.30666 0.74747 0.0
H1350 H 0.58087 0.27824 0.72573 0.0
H1351 H 0.61185 0.3407 0.68289 0.0
H1352 H 0.56886 0.36912 0.70428 0.0
H1353 H 0.67797 0.30595 0.70281 0.0
H1354 H 0.55635 0.30648 0.66063 0.0
H1355 H 0.48404 0.30256 0.65709 0.0
H1356 H 0.48883 0.2259 0.68151 0.0
H1357 H 0.56114 0.22953 0.6856 0.0
C1358 C 0.756 0.2229 0.63583 0.0
C1359 C 0.74652 0.19698 0.63816 0.0
C1360 C 0.7318 0.24157 0.64512 0.0
C1361 C 0.69821 0.23462 0.65742 0.0
C1362 C 0.68835 0.20867 0.65929 0.0
C1363 C 0.71208 0.19009 0.64962 0.0
C1364 C 0.67354 0.25418 0.66862 0.0
C1365 C 0.6323 0.25315 0.66597 0.0
C1366 C 0.6902 0.2735 0.68212 0.0
C1367 C 0.73296 0.27447 0.68734 0.0
C1368 C 0.7518 0.25334 0.69683 0.0
C1369 C 0.79214 0.25433 0.70164 0.0
C1370 C 0.81389 0.27645 0.69723 0.0
C1371 C 0.79531 0.29763 0.68805 0.0
C1372 C 0.75499 0.29672 0.68317 0.0
C1373 C 0.55461 0.31427 0.7334 0.0
C1374 C 0.55069 0.33997 0.72745 0.0
C1375 C 0.57852 0.29808 0.72103 0.0
C1376 C 0.59935 0.30745 0.70277 0.0
C1377 C 0.59594 0.3332 0.69696 0.0
C1378 C 0.5713 0.34931 0.70905 0.0
C1379 C 0.6243 0.29007 0.68968 0.0
C1380 C 0.66537 0.29148 0.69211 0.0
C1381 C 0.6075 0.27074 0.67645 0.0
C1382 C 0.56413 0.26836 0.67359 0.0
C1383 C 0.54196 0.28886 0.66542 0.0
C1384 C 0.50098 0.28667 0.66327 0.0
C1385 C 0.48186 0.264 0.66908 0.0
C1386 C 0.50369 0.24345 0.67701 0.0
C1387 C 0.54467 0.24555 0.67923 0.0
H1388 H 0.45012 0.26236 0.66744 0.0
H1389 H 0.84512 0.27718 0.70097 0.0
H1390 H 0.71381 0.28869 0.13791 0.0
H1391 H 0.75587 0.25814 0.15767 0.0
H1392 H 0.84799 0.31503 0.16205 0.0
H1393 H 0.8057 0.34546 0.14247 0.0
H1394 H 0.87603 0.26679 0.15038 0.0
H1395 H 0.79342 0.30571 0.2049 0.0
H1396 H 0.72998 0.31889 0.22109 0.0
H1397 H 0.69299 0.24067 0.22527 0.0
H1398 H 0.75599 0.22704 0.20872 0.0
H1399 H 0.94091 0.20241 0.26098 0.0
H1400 H 0.9024 0.23428 0.24084 0.0
H1401 H 0.9041 0.18645 0.18311 0.0
H1402 H 0.94276 0.15486 0.20298 0.0
H1403 H 0.83117 0.23252 0.22235 0.0
H1404 H 0.90476 0.22052 0.13774 0.0
H1405 H 0.96951 0.21007 0.12153 0.0
H1406 H 0.02797 0.23935 0.1789 0.0
H1407 H 0.96351 0.24959 0.19567 0.0
C1408 C 0.74323 0.29438 0.14294 0.0
C1409 C 0.75679 0.31921 0.13883 0.0
C1410 C 0.76709 0.2771 0.15426 0.0
C1411 C 0.80493 0.28442 0.16145 0.0
C1412 C 0.81892 0.30902 0.15664 0.0
C1413 C 0.7949 0.32634 0.14556 0.0
C1414 C 0.82955 0.26673 0.17454 0.0
C1415 C 0.86622 0.25924 0.16609 0.0
C1416 C 0.817 0.25726 0.1952 0.0
C1417 C 0.77927 0.26538 0.20537 0.0
C1418 C 0.77163 0.29133 0.2091 0.0
C1419 C 0.73577 0.29888 0.21837 0.0
C1420 C 0.70743 0.28063 0.22416 0.0
C1421 C 0.71495 0.25479 0.22075 0.0
C1422 C 0.75073 0.24714 0.21143 0.0
C1423 C 0.93293 0.19873 0.24401 0.0
C1424 C 0.94486 0.17617 0.23355 0.0
C1425 C 0.91101 0.21693 0.23251 0.0
C1426 C 0.90082 0.21295 0.21034 0.0
C1427 C 0.91231 0.19025 0.20002 0.0
C1428 C 0.9343 0.17215 0.21144 0.0
C1429 C 0.87757 0.23223 0.19806 0.0
C1430 C 0.84106 0.24002 0.20664 0.0
C1431 C 0.89046 0.24221 0.1776 0.0
C1432 C 0.92933 0.23564 0.16798 0.0
C1433 C 0.93144 0.22464 0.14693 0.0
C1434 C 0.96806 0.21866 0.1377 0.0
C1435 C 0.0028 0.22385 0.14929 0.0
C1436 C 0.00098 0.23502 0.17013 0.0
C1437 C 0.96442 0.24082 0.17954 0.0
H1438 H 0.03114 0.21934 0.14207 0.0
H1439 H 0.67969 0.28652 0.23134 0.0
H1440 H 0.82079 0.65673 0.641 0.0
H1441 H 0.85974 0.69042 0.65892 0.0
H1442 H 0.76354 0.74296 0.64964 0.0
H1443 H 0.72536 0.70931 0.63106 0.0
H1444 H 0.82983 0.76665 0.64204 0.0
H1445 H 0.78276 0.71261 0.69997 0.0
H1446 H 0.77221 0.6719 0.7194 0.0
H1447 H 0.89754 0.66251 0.72588 0.0
H1448 H 0.90887 0.70297 0.70614 0.0
H1449 H 0.88958 0.85802 0.72214 0.0
H1450 H 0.85354 0.82446 0.70264 0.0
H1451 H 0.95702 0.777 0.70411 0.0
H1452 H 0.99325 0.81045 0.72386 0.0
H1453 H 0.88795 0.75092 0.71571 0.0
H1454 H 0.93362 0.80609 0.65764 0.0
H1455 H 0.9423 0.84731 0.63874 0.0
H1456 H 0.8165 0.85533 0.63387 0.0
H1457 H 0.80706 0.8143 0.65302 0.0
C1458 C 0.80829 0.67556 0.64276 0.0
C1459 C 0.77026 0.68059 0.63481 0.0
C1460 C 0.83034 0.69475 0.65307 0.0
C1461 C 0.81435 0.7192 0.65605 0.0
C1462 C 0.77656 0.72431 0.64761 0.0
C1463 C 0.75475 0.70517 0.63703 0.0
C1464 C 0.83675 0.7393 0.66819 0.0
C1465 C 0.84208 0.76325 0.65826 0.0
C1466 C 0.8534 0.73488 0.68925 0.0
C1467 C 0.84666 0.71071 0.70139 0.0
C1468 C 0.80808 0.70179 0.70541 0.0
C1469 C 0.80196 0.67876 0.71649 0.0
C1470 C 0.83419 0.6646 0.72382 0.0
C1471 C 0.8726 0.67348 0.72016 0.0
C1472 C 0.8789 0.69647 0.70903 0.0
C1473 C 0.90471 0.84044 0.71833 0.0
C1474 C 0.94433 0.83693 0.72451 0.0
C1475 C 0.88409 0.82131 0.7071 0.0
C1476 C 0.90269 0.7983 0.70174 0.0
C1477 C 0.94213 0.79463 0.70804 0.0
C1478 C 0.96287 0.81384 0.71919 0.0
C1479 C 0.88094 0.7781 0.68952 0.0
C1480 C 0.8757 0.7542 0.69947 0.0
C1481 C 0.86403 0.78264 0.6686 0.0
C1482 C 0.86964 0.80723 0.65693 0.0
C1483 C 0.90781 0.81673 0.65268 0.0
C1484 C 0.91286 0.84005 0.6419 0.0
C1485 C 0.87997 0.85396 0.63515 0.0
C1486 C 0.84195 0.84455 0.63913 0.0
C1487 C 0.83673 0.82125 0.64992 0.0
H1488 H 0.88394 0.87201 0.62681 0.0
H1489 H 0.82939 0.64678 0.73239 0.0
H1490 H 0.80204 0.80473 0.14952 0.0
H1491 H 0.75978 0.77254 0.16737 0.0
H1492 H 0.65647 0.80948 0.14117 0.0
H1493 H 0.69911 0.84159 0.12328 0.0
H1494 H 0.64927 0.79727 0.18587 0.0
H1495 H 0.68561 0.75584 0.11861 0.0
H1496 H 0.73181 0.74029 0.09033 0.0
H1497 H 0.78777 0.69236 0.13818 0.0
H1498 H 0.74229 0.70793 0.16684 0.0
H1499 H 0.51722 0.69801 0.21851 0.0
H1500 H 0.55365 0.72991 0.19716 0.0
H1501 H 0.6626 0.69073 0.21084 0.0
H1502 H 0.62611 0.65796 0.23068 0.0
H1503 H 0.66391 0.70497 0.17068 0.0
H1504 H 0.63084 0.74769 0.23852 0.0
H1505 H 0.58612 0.76388 0.26735 0.0
H1506 H 0.52578 0.80944 0.21952 0.0
H1507 H 0.56982 0.79341 0.19034 0.0
C1508 C 0.7703 0.80575 0.14758 0.0
C1509 C 0.75356 0.82541 0.13515 0.0
C1510 C 0.74621 0.78744 0.15769 0.0
C1511 C 0.70493 0.78853 0.15554 0.0
C1512 C 0.6882 0.80827 0.14307 0.0
C1513 C 0.7124 0.82647 0.1328 0.0
C1514 C 0.67938 0.76913 0.16644 0.0
C1515 C 0.65202 0.7771 0.18235 0.0
C1516 C 0.68355 0.74279 0.16217 0.0
C1517 C 0.71075 0.73323 0.14492 0.0
C1518 C 0.70796 0.74213 0.12315 0.0
C1519 C 0.73399 0.73329 0.10704 0.0
C1520 C 0.76276 0.71539 0.11246 0.0
C1521 C 0.7655 0.70624 0.134 0.0
C1522 C 0.73958 0.71506 0.15018 0.0
C1523 C 0.54891 0.69613 0.21688 0.0
C1524 C 0.5688 0.67565 0.22678 0.0
C1525 C 0.56981 0.71455 0.20482 0.0
C1526 C 0.61114 0.71316 0.20273 0.0
C1527 C 0.63083 0.69244 0.21227 0.0
C1528 C 0.60991 0.67382 0.22393 0.0
C1529 C 0.63404 0.73299 0.19047 0.0
C1530 C 0.66096 0.72512 0.17425 0.0
C1531 C 0.62968 0.75942 0.19461 0.0
C1532 C 0.60339 0.76917 0.2122 0.0
C1533 C 0.60788 0.76104 0.23412 0.0
C1534 C 0.58268 0.77019 0.25052 0.0
C1535 C 0.55308 0.78757 0.24525 0.0
C1536 C 0.54868 0.79594 0.22357 0.0
C1537 C 0.57378 0.78687 0.2071 0.0
H1538 H 0.5336 0.79461 0.25798 0.0
H1539 H 0.78289 0.70856 0.09997 0.0
H1540 H 0.29167 0.84331 0.37012 0.0
H1541 H 0.334 0.81175 0.35213 0.0
H1542 H 0.26613 0.75116 0.38189 0.0
H1543 H 0.22245 0.78279 0.39903 0.0
H1544 H 0.35893 0.74901 0.38224 0.0
H1545 H 0.24248 0.7583 0.33553 0.0
H1546 H 0.19485 0.78478 0.31524 0.0
H1547 H 0.28908 0.81612 0.27624 0.0
H1548 H 0.33737 0.79014 0.2966 0.0
H1549 H 0.43274 0.64619 0.31981 0.0
H1550 H 0.39037 0.67575 0.33994 0.0
H1551 H 0.41485 0.73409 0.29164 0.0
H1552 H 0.45532 0.704 0.27086 0.0
H1553 H 0.34314 0.73768 0.30162 0.0
H1554 H 0.4597 0.73142 0.34505 0.0
H1555 H 0.51275 0.70995 0.36556 0.0
H1556 H 0.4274 0.67882 0.41056 0.0
H1557 H 0.37372 0.6998 0.3901 0.0
C1558 C 0.28576 0.82325 0.37271 0.0
C1559 C 0.25358 0.81541 0.3857 0.0
C1560 C 0.31006 0.8053 0.36261 0.0
C1561 C 0.30304 0.7792 0.36568 0.0
C1562 C 0.27203 0.77126 0.37944 0.0
C1563 C 0.24723 0.78926 0.38922 0.0
C1564 C 0.3267 0.7603 0.35342 0.0
C1565 C 0.35522 0.74615 0.36468 0.0
C1566 C 0.32271 0.75746 0.33041 0.0
C1567 C 0.29355 0.77246 0.31772 0.0
C1568 C 0.25307 0.77098 0.32274 0.0
C1569 C 0.22595 0.78588 0.31122 0.0
C1570 C 0.23895 0.80217 0.2945 0.0
C1571 C 0.27907 0.80351 0.28921 0.0
C1572 C 0.30631 0.78869 0.30073 0.0
C1573 C 0.42899 0.66534 0.31355 0.0
C1574 C 0.44734 0.67291 0.29389 0.0
C1575 C 0.40495 0.68229 0.32511 0.0
C1576 C 0.39996 0.70743 0.31763 0.0
C1577 C 0.41814 0.71487 0.29782 0.0
C1578 C 0.44135 0.69771 0.28597 0.0
C1579 C 0.37574 0.72595 0.33037 0.0
C1580 C 0.34704 0.74023 0.3192 0.0
C1581 C 0.38041 0.72941 0.3534 0.0
C1582 C 0.41264 0.71698 0.36591 0.0
C1583 C 0.45221 0.71986 0.35924 0.0
C1584 C 0.4824 0.70779 0.37086 0.0
C1585 C 0.47344 0.69297 0.38932 0.0
C1586 C 0.43428 0.69027 0.39623 0.0
C1587 C 0.40396 0.70227 0.38464 0.0
H1588 H 0.49686 0.68363 0.39829 0.0
H1589 H 0.21792 0.81372 0.28562 0.0
H1590 H 0.20062 0.68794 0.90627 0.0
H1591 H 0.1586 0.71972 0.88815 0.0
H1592 H 0.25652 0.74207 0.84684 0.0
H1593 H 0.29838 0.71033 0.86509 0.0
H1594 H 0.21427 0.78356 0.86269 0.0
H1595 H 0.18972 0.70336 0.82671 0.0
H1596 H 0.17177 0.65782 0.82525 0.0
H1597 H 0.05792 0.67449 0.85269 0.0
H1598 H 0.07547 0.72013 0.85464 0.0
H1599 H 0.06828 0.81193 0.76694 0.0
H1600 H 0.10866 0.7825 0.78823 0.0
H1601 H 0.09448 0.82972 0.84579 0.0
H1602 H 0.05557 0.85991 0.82428 0.0
H1603 H 0.09533 0.75366 0.82238 0.0
H1604 H 0.17587 0.82555 0.87811 0.0
H1605 H 0.19641 0.87072 0.87819 0.0
H1606 H 0.20322 0.87008 0.8077 0.0
H1607 H 0.18292 0.82485 0.80714 0.0
C1608 C 0.21305 0.69991 0.89349 0.0
C1609 C 0.25246 0.69684 0.88694 0.0
C1610 C 0.18915 0.71791 0.88311 0.0
C1611 C 0.20441 0.73313 0.86606 0.0
C1612 C 0.24419 0.73054 0.85997 0.0
C1613 C 0.26796 0.71241 0.87025 0.0
C1614 C 0.17857 0.75105 0.85396 0.0
C1615 C 0.18817 0.77707 0.85394 0.0
C1616 C 0.14478 0.74251 0.84236 0.0
C1617 C 0.13406 0.71512 0.84103 0.0
C1618 C 0.16097 0.69729 0.8326 0.0
C1619 C 0.15086 0.67147 0.83166 0.0
C1620 C 0.11376 0.66326 0.83892 0.0
C1621 C 0.08667 0.68088 0.84709 0.0
C1622 C 0.09668 0.70673 0.84812 0.0
C1623 C 0.07415 0.81624 0.78407 0.0
C1624 C 0.05951 0.83858 0.79377 0.0
C1625 C 0.09694 0.79925 0.79629 0.0
C1626 C 0.10524 0.80407 0.81854 0.0
C1627 C 0.08927 0.82585 0.82853 0.0
C1628 C 0.06678 0.84301 0.81624 0.0
C1629 C 0.13086 0.78633 0.8311 0.0
C1630 C 0.12123 0.76027 0.83125 0.0
C1631 C 0.16491 0.79481 0.84258 0.0
C1632 C 0.17753 0.8219 0.8426 0.0
C1633 C 0.18185 0.83504 0.86262 0.0
C1634 C 0.19337 0.86065 0.86274 0.0
C1635 C 0.20091 0.87328 0.84293 0.0
C1636 C 0.19709 0.86029 0.82297 0.0
C1637 C 0.18554 0.83468 0.82275 0.0
H1638 H 0.20982 0.89311 0.84304 0.0
H1639 H 0.10598 0.64325 0.83818 0.0
loop_
_geom_bond_atom_site_label_1
_geom_bond_atom_site_label_2
_geom_bond_distance
_geom_bond_site_symmetry_2
_ccdc_geom_bond_type
C0 N1 1.317 . S
C0 N2 1.348 . S
C0 C3 1.485 . S
N1 C0 1.317 . S
N1 N5 1.370 . S
N2 C0 1.348 . S
N2 C4 1.346 . S
C3 C0 1.485 . S
C3 H7 0.960 . S
C3 H8 0.961 . S
C3 H9 0.960 . S
C4 N2 1.346 . S
C4 N5 1.307 . S
C4 C6 1.486 . S
N5 N1 1.370 . S
N5 C4 1.307 . S
C6 C4 1.486 . S
C6 H10 0.960 . S
C6 H11 0.960 . S
C6 H12 0.959 . S
H7 C3 0.960 . S
H8 C3 0.961 . S
H9 C3 0.960 . S
H10 C6 0.960 . S
H11 C6 0.960 . S
H12 C6 0.959 . S
C13 N14 1.317 . S
C13 N15 1.348 . S
C13 C16 1.485 . S
N14 C13 1.317 . S
N14 N18 1.370 . S
N15 C13 1.348 . S
N15 C17 1.346 . S
C16 C13 1.485 . S
C16 H20 0.960 . S
C16 H21 0.961 . S
C16 H22 0.960 . S
C17 N15 1.346 . S
C17 N18 1.307 . S
C17 C19 1.486 . S
N18 N14 1.370 . S
N18 C17 1.307 . S
C19 C17 1.486 . S
C19 H23 0.960 . S
C19 H24 0.960 . S
C19 H25 0.959 . S
H20 C16 0.960 . S
H21 C16 0.961 . S
H22 C16 0.960 . S
H23 C19 0.960 . S
H24 C19 0.960 . S
H25 C19 0.959 . S
C26 N27 1.317 . S
C26 N28 1.348 . S
C26 C29 1.485 . S
N27 C26 1.317 . S
N27 N31 1.370 . S
N28 C26 1.348 . S
N28 C30 1.346 . S
C29 C26 1.485 . S
C29 H33 0.960 . S
C29 H34 0.961 . S
C29 H35 0.960 . S
C30 N28 1.346 . S
C30 N31 1.307 . S
C30 C32 1.486 . S
N31 N27 1.370 . S
N31 C30 1.307 . S
C32 C30 1.486 . S
C32 H36 0.960 . S
C32 H37 0.960 . S
C32 H38 0.959 . S
H33 C29 0.960 . S
H34 C29 0.961 . S
H35 C29 0.960 . S
H36 C32 0.960 . S
H37 C32 0.960 . S
H38 C32 0.959 . S
C39 N40 1.317 . S
C39 N41 1.348 . S
C39 C42 1.485 . S
N40 C39 1.317 . S
N40 N44 1.370 . S
N41 C39 1.348 . S
N41 C43 1.346 . S
C42 C39 1.485 . S
C42 H46 0.960 . S
C42 H47 0.961 . S
C42 H48 0.960 . S
C43 N41 1.346 . S
C43 N44 1.307 . S
C43 C45 1.486 . S
N44 N40 1.370 . S
N44 C43 1.307 . S
C45 C43 1.486 . S
C45 H49 0.960 . S
C45 H50 0.960 . S
C45 H51 0.959 . S
H46 C42 0.960 . S
H47 C42 0.961 . S
H48 C42 0.960 . S
H49 C45 0.960 . S
H50 C45 0.960 . S
H51 C45 0.959 . S
C52 N53 1.317 . S
C52 N54 1.348 . S
C52 C55 1.485 . S
N53 C52 1.317 . S
N53 N57 1.370 . S
N54 C52 1.348 . S
N54 C56 1.346 . S
C55 C52 1.485 . S
C55 H59 0.960 . S
C55 H60 0.961 . S
C55 H61 0.960 . S
C56 N54 1.346 . S
C56 N57 1.307 . S
C56 C58 1.486 . S
N57 N53 1.370 . S
N57 C56 1.307 . S
C58 C56 1.486 . S
C58 H62 0.960 . S
C58 H63 0.960 . S
C58 H64 0.959 . S
H59 C55 0.960 . S
H60 C55 0.961 . S
H61 C55 0.960 . S
H62 C58 0.960 . S
H63 C58 0.960 . S
H64 C58 0.959 . S
C65 N66 1.317 . S
C65 N67 1.348 . S
C65 C68 1.485 . S
N66 C65 1.317 . S
N66 N70 1.370 . S
N67 C65 1.348 . S
N67 C69 1.346 . S
C68 C65 1.485 . S
C68 H72 0.960 . S
C68 H73 0.961 . S
C68 H74 0.960 . S
C69 N67 1.346 . S
C69 N70 1.307 . S
C69 C71 1.486 . S
N70 N66 1.370 . S
N70 C69 1.307 . S
C71 C69 1.486 . S
C71 H75 0.960 . S
C71 H76 0.960 . S
C71 H77 0.959 . S
H72 C68 0.960 . S
H73 C68 0.961 . S
H74 C68 0.960 . S
H75 C71 0.960 . S
H76 C71 0.960 . S
H77 C71 0.959 . S
C78 N79 1.317 . S
C78 N80 1.348 . S
C78 C81 1.485 . S
N79 C78 1.317 . S
N79 N83 1.370 . S
N80 C78 1.348 . S
N80 C82 1.346 . S
C81 C78 1.485 . S
C81 H85 0.960 . S
C81 H86 0.961 . S
C81 H87 0.960 . S
C82 N80 1.346 . S
C82 N83 1.307 . S
C82 C84 1.486 . S
N83 N79 1.370 . S
N83 C82 1.307 . S
C84 C82 1.486 . S
C84 H88 0.960 . S
C84 H89 0.960 . S
C84 H90 0.959 . S
H85 C81 0.960 . S
H86 C81 0.961 . S
H87 C81 0.960 . S
H88 C84 0.960 . S
H89 C84 0.960 . S
H90 C84 0.959 . S
C91 N92 1.317 . S
C91 N93 1.348 . S
C91 C94 1.485 . S
N92 C91 1.317 . S
N92 N96 1.370 . S
N93 C91 1.348 . S
N93 C95 1.346 . S
C94 C91 1.485 . S
C94 H98 0.960 . S
C94 H99 0.961 . S
C94 H100 0.960 . S
C95 N93 1.346 . S
C95 N96 1.307 . S
C95 C97 1.486 . S
N96 N92 1.370 . S
N96 C95 1.307 . S
C97 C95 1.486 . S
C97 H101 0.960 . S
C97 H102 0.960 . S
C97 H103 0.959 . S
H98 C94 0.960 . S
H99 C94 0.961 . S
H100 C94 0.960 . S
H101 C97 0.960 . S
H102 C97 0.960 . S
H103 C97 0.959 . S
C104 C106 1.422 . S
C104 C108 1.415 . S
C104 N110 1.369 . S
C105 C106 1.421 . S
C105 C107 1.417 . S
C105 C117 1.422 . S
C106 C104 1.422 . S
C106 C105 1.421 . S
C106 N116 1.359 . S
C107 C105 1.417 . S
C107 C109 1.329 . S
C107 H126 0.930 . S
C108 C104 1.415 . S
C108 C109 1.437 . S
C108 C112 1.413 . S
C109 C107 1.329 . S
C109 C108 1.437 . S
C109 H131 0.929 . S
N110 C104 1.369 . S
N110 C111 1.338 . S
N110 Gd115 2.622 . S
C111 N110 1.338 . S
C111 C113 1.378 . S
C111 H123 0.929 . S
C112 C108 1.413 . S
C112 C113 1.348 . S
C112 H128 0.931 . S
C113 C111 1.378 . S
C113 C112 1.348 . S
C113 H129 0.930 . S
Gd114 N134 2.622 . S
Gd114 N141 2.570 . S
Gd114 O148 2.353 . S
Gd114 O149 2.468 . S
Gd114 O150 2.427 . S
Gd114 O152 2.388 . S
Gd114 O153 2.386 . S
Gd114 O157 2.307 . S
Gd114 C167 2.805 . S
Gd115 N110 2.622 . S
Gd115 N116 2.570 . S
Gd115 O147 2.386 . S
Gd115 O151 2.307 1_655 S
Gd115 O154 2.353 1_655 S
Gd115 O155 2.468 . S
Gd115 O156 2.427 . S
Gd115 O158 2.388 . S
Gd115 C179 2.805 . S
N116 C106 1.359 . S
N116 Gd115 2.570 . S
N116 C118 1.343 . S
C117 C105 1.422 . S
C117 C119 1.321 . S
C117 H125 0.931 . S
C118 N116 1.343 . S
C118 C119 1.390 . S
C118 H120 0.931 . S
C119 C117 1.321 . S
C119 C118 1.390 . S
C119 H121 0.930 . S
H120 C118 0.931 . S
H121 C119 0.930 . S
H122 C145 0.931 . S
H123 C111 0.929 . S
H124 C146 0.930 . S
H125 C117 0.931 . S
H126 C107 0.930 . S
H127 C136 0.929 . S
H128 C112 0.931 . S
H129 C113 0.930 . S
H130 C168 0.930 . S
H131 C109 0.929 . S
H132 C137 0.931 . S
H133 C138 0.930 . S
N134 Gd114 2.622 . S
N134 C135 1.369 . S
N134 C136 1.338 . S
C135 N134 1.369 . S
C135 C139 1.415 . S
C135 C142 1.422 . S
C136 H127 0.929 . S
C136 N134 1.338 . S
C136 C138 1.378 . S
C137 H132 0.931 . S
C137 C138 1.348 . S
C137 C139 1.413 . S
C138 H133 0.930 . S
C138 C136 1.378 . S
C138 C137 1.348 . S
C139 C135 1.415 . S
C139 C137 1.413 . S
C139 C169 1.437 . S
H140 C169 0.929 . S
N141 Gd114 2.570 . S
N141 C142 1.359 . S
N141 C145 1.343 . S
C142 C135 1.422 . S
C142 N141 1.359 . S
C142 C144 1.421 . S
C143 C144 1.422 . S
C143 C146 1.321 . S
C143 H170 0.931 . S
C144 C142 1.421 . S
C144 C143 1.422 . S
C144 C168 1.417 . S
C145 H122 0.931 . S
C145 N141 1.343 . S
C145 C146 1.390 . S
C146 H124 0.930 . S
C146 C143 1.321 . S
C146 C145 1.390 . S
O147 Gd115 2.386 . S
O147 C159 1.265 . S
O148 Gd114 2.353 . S
O148 C159 1.242 1_455 S
O149 Gd114 2.468 . S
O149 C167 1.263 . S
O150 Gd114 2.427 . S
O150 C167 1.252 . S
O151 Gd115 2.307 1_455 S
O151 C160 1.261 . S
O152 Gd114 2.388 . S
O152 C160 1.252 . S
O153 Gd114 2.386 . S
O153 C171 1.265 . S
O154 Gd115 2.353 1_455 S
O154 C171 1.242 . S
O155 Gd115 2.468 . S
O155 C179 1.263 . S
O156 Gd115 2.427 . S
O156 C179 1.252 . S
O157 Gd114 2.307 . S
O157 C172 1.261 1_455 S
O158 Gd115 2.388 . S
O158 C172 1.252 . S
C159 O147 1.265 . S
C159 O148 1.242 1_655 S
C160 O151 1.261 . S
C160 O152 1.252 . S
C161 C164 1.394 . S
C161 C166 1.370 . S
C161 C167 1.500 . S
C162 C165 1.383 . S
C162 C166 1.395 . S
C163 C164 1.396 . S
C163 C165 1.365 . S
C163 H180 0.929 . S
C164 C161 1.394 . S
C164 C163 1.396 . S
C164 H181 0.930 . S
C165 C162 1.383 . S
C165 C163 1.365 . S
C165 H182 0.931 . S
C166 C161 1.370 . S
C166 C162 1.395 . S
C166 H183 0.930 . S
C167 Gd114 2.805 . S
C167 O149 1.263 . S
C167 O150 1.252 . S
C167 C161 1.500 . S
C168 H130 0.930 . S
C168 C144 1.417 . S
C168 C169 1.329 . S
C169 C139 1.437 . S
C169 H140 0.929 . S
C169 C168 1.329 . S
H170 C143 0.931 . S
C171 O153 1.265 . S
C171 O154 1.242 . S
C172 O157 1.261 1_655 S
C172 O158 1.252 . S
C173 C176 1.394 . S
C173 C178 1.370 . S
C173 C179 1.500 . S
C174 C177 1.383 . S
C174 C178 1.395 . S
C175 C176 1.396 . S
C175 C177 1.365 . S
C175 H184 0.929 . S
C176 C173 1.394 . S
C176 C175 1.396 . S
C176 H185 0.930 . S
C177 C174 1.383 . S
C177 C175 1.365 . S
C177 H186 0.931 . S
C178 C173 1.370 . S
C178 C174 1.395 . S
C178 H187 0.930 . S
C179 Gd115 2.805 . S
C179 O155 1.263 . S
C179 O156 1.252 . S
C179 C173 1.500 . S
H180 C163 0.929 . S
H181 C164 0.930 . S
H182 C165 0.931 . S
H183 C166 0.930 . S
H184 C175 0.929 . S
H185 C176 0.930 . S
H186 C177 0.931 . S
H187 C178 0.930 . S
C188 C190 1.422 . S
C188 C192 1.415 . S
C188 N194 1.369 . S
C189 C190 1.421 . S
C189 C191 1.417 . S
C189 C201 1.422 . S
C190 C188 1.422 . S
C190 C189 1.421 . S
C190 N200 1.359 . S
C191 C189 1.417 . S
C191 C193 1.329 . S
C191 H210 0.930 . S
C192 C188 1.415 . S
C192 C193 1.437 . S
C192 C196 1.413 . S
C193 C191 1.329 . S
C193 C192 1.437 . S
C193 H215 0.929 . S
N194 C188 1.369 . S
N194 C195 1.338 . S
N194 Gd199 2.622 . S
C195 N194 1.338 . S
C195 C197 1.378 . S
C195 H207 0.929 . S
C196 C192 1.413 . S
C196 C197 1.348 . S
C196 H212 0.931 . S
C197 C195 1.378 . S
C197 C196 1.348 . S
C197 H213 0.930 . S
Gd198 N218 2.622 . S
Gd198 N225 2.570 . S
Gd198 O232 2.353 . S
Gd198 O233 2.468 . S
Gd198 O234 2.427 . S
Gd198 O236 2.388 . S
Gd198 O237 2.386 . S
Gd198 O241 2.307 . S
Gd198 C251 2.805 . S
Gd199 N194 2.622 . S
Gd199 N200 2.570 . S
Gd199 O231 2.386 . S
Gd199 O235 2.307 . S
Gd199 O238 2.353 . S
Gd199 O239 2.468 . S
Gd199 O240 2.427 . S
Gd199 O242 2.388 . S
Gd199 C263 2.805 . S
N200 C190 1.359 . S
N200 Gd199 2.570 . S
N200 C202 1.343 . S
C201 C189 1.422 . S
C201 C203 1.321 . S
C201 H209 0.931 . S
C202 N200 1.343 . S
C202 C203 1.390 . S
C202 H204 0.931 . S
C203 C201 1.321 . S
C203 C202 1.390 . S
C203 H205 0.930 . S
H204 C202 0.931 . S
H205 C203 0.930 . S
H206 C229 0.931 . S
H207 C195 0.929 . S
H208 C230 0.930 . S
H209 C201 0.931 . S
H210 C191 0.930 . S
H211 C220 0.929 . S
H212 C196 0.931 . S
H213 C197 0.930 . S
H214 C252 0.930 . S
H215 C193 0.929 . S
H216 C221 0.931 . S
H217 C222 0.930 . S
N218 Gd198 2.622 . S
N218 C219 1.369 . S
N218 C220 1.338 . S
C219 N218 1.369 . S
C219 C223 1.415 . S
C219 C226 1.422 . S
C220 H211 0.929 . S
C220 N218 1.338 . S
C220 C222 1.378 . S
C221 H216 0.931 . S
C221 C222 1.348 . S
C221 C223 1.413 . S
C222 H217 0.930 . S
C222 C220 1.378 . S
C222 C221 1.348 . S
C223 C219 1.415 . S
C223 C221 1.413 . S
C223 C253 1.437 . S
H224 C253 0.929 . S
N225 Gd198 2.570 . S
N225 C226 1.359 . S
N225 C229 1.343 . S
C226 C219 1.422 . S
C226 N225 1.359 . S
C226 C228 1.421 . S
C227 C228 1.422 . S
C227 C230 1.321 . S
C227 H254 0.931 . S
C228 C226 1.421 . S
C228 C227 1.422 . S
C228 C252 1.417 . S
C229 H206 0.931 . S
C229 N225 1.343 . S
C229 C230 1.390 . S
C230 H208 0.930 . S
C230 C227 1.321 . S
C230 C229 1.390 . S
O231 Gd199 2.386 . S
O231 C243 1.265 . S
O232 Gd198 2.353 . S
O232 C243 1.242 . S
O233 Gd198 2.468 . S
O233 C251 1.263 . S
O234 Gd198 2.427 . S
O234 C251 1.252 . S
O235 Gd199 2.307 . S
O235 C244 1.261 . S
O236 Gd198 2.388 . S
O236 C244 1.252 . S
O237 Gd198 2.386 . S
O237 C255 1.265 . S
O238 Gd199 2.353 . S
O238 C255 1.242 . S
O239 Gd199 2.468 . S
O239 C263 1.263 . S
O240 Gd199 2.427 . S
O240 C263 1.252 . S
O241 Gd198 2.307 . S
O241 C256 1.261 . S
O242 Gd199 2.388 . S
O242 C256 1.252 . S
C243 O231 1.265 . S
C243 O232 1.242 . S
C244 O235 1.261 . S
C244 O236 1.252 . S
C245 C248 1.394 . S
C245 C250 1.370 . S
C245 C251 1.500 . S
C246 C249 1.383 . S
C246 C250 1.395 . S
C247 C248 1.396 . S
C247 C249 1.365 . S
C247 H264 0.929 . S
C248 C245 1.394 . S
C248 C247 1.396 . S
C248 H265 0.930 . S
C249 C246 1.383 . S
C249 C247 1.365 . S
C249 H266 0.931 . S
C250 C245 1.370 . S
C250 C246 1.395 . S
C250 H267 0.930 . S
C251 Gd198 2.805 . S
C251 O233 1.263 . S
C251 O234 1.252 . S
C251 C245 1.500 . S
C252 H214 0.930 . S
C252 C228 1.417 . S
C252 C253 1.329 . S
C253 C223 1.437 . S
C253 H224 0.929 . S
C253 C252 1.329 . S
H254 C227 0.931 . S
C255 O237 1.265 . S
C255 O238 1.242 . S
C256 O241 1.261 . S
C256 O242 1.252 . S
C257 C260 1.394 . S
C257 C262 1.370 . S
C257 C263 1.500 . S
C258 C261 1.383 . S
C258 C262 1.395 . S
C259 C260 1.396 . S
C259 C261 1.365 . S
C259 H268 0.929 . S
C260 C257 1.394 . S
C260 C259 1.396 . S
C260 H269 0.930 . S
C261 C258 1.383 . S
C261 C259 1.365 . S
C261 H270 0.931 . S
C262 C257 1.370 . S
C262 C258 1.395 . S
C262 H271 0.930 . S
C263 Gd199 2.805 . S
C263 O239 1.263 . S
C263 O240 1.252 . S
C263 C257 1.500 . S
H264 C247 0.929 . S
H265 C248 0.930 . S
H266 C249 0.931 . S
H267 C250 0.930 . S
H268 C259 0.929 . S
H269 C260 0.930 . S
H270 C261 0.931 . S
H271 C262 0.930 . S
C272 C274 1.422 . S
C272 C276 1.415 . S
C272 N278 1.369 . S
C273 C274 1.421 . S
C273 C275 1.417 . S
C273 C285 1.422 . S
C274 C272 1.422 . S
C274 C273 1.421 . S
C274 N284 1.359 . S
C275 C273 1.417 . S
C275 C277 1.329 . S
C275 H294 0.930 . S
C276 C272 1.415 . S
C276 C277 1.437 . S
C276 C280 1.413 . S
C277 C275 1.329 . S
C277 C276 1.437 . S
C277 H299 0.929 . S
N278 C272 1.369 . S
N278 C279 1.338 . S
N278 Gd283 2.622 . S
C279 N278 1.338 . S
C279 C281 1.378 . S
C279 H291 0.929 . S
C280 C276 1.413 . S
C280 C281 1.348 . S
C280 H296 0.931 . S
C281 C279 1.378 . S
C281 C280 1.348 . S
C281 H297 0.930 . S
Gd282 N302 2.622 . S
Gd282 N309 2.570 . S
Gd282 O316 2.353 . S
Gd282 O317 2.468 . S
Gd282 O318 2.427 . S
Gd282 O320 2.388 . S
Gd282 O321 2.386 . S
Gd282 O325 2.307 . S
Gd282 C335 2.805 . S
Gd283 N278 2.622 . S
Gd283 N284 2.570 . S
Gd283 O315 2.386 . S
Gd283 O319 2.307 1_655 S
Gd283 O322 2.353 1_655 S
Gd283 O323 2.468 . S
Gd283 O324 2.427 . S
Gd283 O326 2.388 . S
Gd283 C347 2.805 . S
N284 C274 1.359 . S
N284 Gd283 2.570 . S
N284 C286 1.343 . S
C285 C273 1.422 . S
C285 C287 1.321 . S
C285 H293 0.931 . S
C286 N284 1.343 . S
C286 C287 1.390 . S
C286 H288 0.931 . S
C287 C285 1.321 . S
C287 C286 1.390 . S
C287 H289 0.930 . S
H288 C286 0.931 . S
H289 C287 0.930 . S
H290 C313 0.931 . S
H291 C279 0.929 . S
H292 C314 0.930 . S
H293 C285 0.931 . S
H294 C275 0.930 . S
H295 C304 0.929 . S
H296 C280 0.931 . S
H297 C281 0.930 . S
H298 C336 0.930 . S
H299 C277 0.929 . S
H300 C305 0.931 . S
H301 C306 0.930 . S
N302 Gd282 2.622 . S
N302 C303 1.369 . S
N302 C304 1.338 . S
C303 N302 1.369 . S
C303 C307 1.415 . S
C303 C310 1.422 . S
C304 H295 0.929 . S
C304 N302 1.338 . S
C304 C306 1.378 . S
C305 H300 0.931 . S
C305 C306 1.348 . S
C305 C307 1.413 . S
C306 H301 0.930 . S
C306 C304 1.378 . S
C306 C305 1.348 . S
C307 C303 1.415 . S
C307 C305 1.413 . S
C307 C337 1.437 . S
H308 C337 0.929 . S
N309 Gd282 2.570 . S
N309 C310 1.359 . S
N309 C313 1.343 . S
C310 C303 1.422 . S
C310 N309 1.359 . S
C310 C312 1.421 . S
C311 C312 1.422 . S
C311 C314 1.321 . S
C311 H338 0.931 . S
C312 C310 1.421 . S
C312 C311 1.422 . S
C312 C336 1.417 . S
C313 H290 0.931 . S
C313 N309 1.343 . S
C313 C314 1.390 . S
C314 H292 0.930 . S
C314 C311 1.321 . S
C314 C313 1.390 . S
O315 Gd283 2.386 . S
O315 C327 1.265 . S
O316 Gd282 2.353 . S
O316 C327 1.242 1_455 S
O317 Gd282 2.468 . S
O317 C335 1.263 . S
O318 Gd282 2.427 . S
O318 C335 1.252 . S
O319 Gd283 2.307 1_455 S
O319 C328 1.261 . S
O320 Gd282 2.388 . S
O320 C328 1.252 . S
O321 Gd282 2.386 . S
O321 C339 1.265 . S
O322 Gd283 2.353 1_455 S
O322 C339 1.242 . S
O323 Gd283 2.468 . S
O323 C347 1.263 . S
O324 Gd283 2.427 . S
O324 C347 1.252 . S
O325 Gd282 2.307 . S
O325 C340 1.261 1_455 S
O326 Gd283 2.388 . S
O326 C340 1.252 . S
C327 O315 1.265 . S
C327 O316 1.242 1_655 S
C328 O319 1.261 . S
C328 O320 1.252 . S
C329 C332 1.394 . S
C329 C334 1.370 . S
C329 C335 1.500 . S
C330 C333 1.383 . S
C330 C334 1.395 . S
C331 C332 1.396 . S
C331 C333 1.365 . S
C331 H348 0.929 . S
C332 C329 1.394 . S
C332 C331 1.396 . S
C332 H349 0.930 . S
C333 C330 1.383 . S
C333 C331 1.365 . S
C333 H350 0.931 . S
C334 C329 1.370 . S
C334 C330 1.395 . S
C334 H351 0.930 . S
C335 Gd282 2.805 . S
C335 O317 1.263 . S
C335 O318 1.252 . S
C335 C329 1.500 . S
C336 H298 0.930 . S
C336 C312 1.417 . S
C336 C337 1.329 . S
C337 C307 1.437 . S
C337 H308 0.929 . S
C337 C336 1.329 . S
H338 C311 0.931 . S
C339 O321 1.265 . S
C339 O322 1.242 . S
C340 O325 1.261 1_655 S
C340 O326 1.252 . S
C341 C344 1.394 . S
C341 C346 1.370 . S
C341 C347 1.500 . S
C342 C345 1.383 . S
C342 C346 1.395 . S
C343 C344 1.396 . S
C343 C345 1.365 . S
C343 H352 0.929 . S
C344 C341 1.394 . S
C344 C343 1.396 . S
C344 H353 0.930 . S
C345 C342 1.383 . S
C345 C343 1.365 . S
C345 H354 0.931 . S
C346 C341 1.370 . S
C346 C342 1.395 . S
C346 H355 0.930 . S
C347 Gd283 2.805 . S
C347 O323 1.263 . S
C347 O324 1.252 . S
C347 C341 1.500 . S
H348 C331 0.929 . S
H349 C332 0.930 . S
H350 C333 0.931 . S
H351 C334 0.930 . S
H352 C343 0.929 . S
H353 C344 0.930 . S
H354 C345 0.931 . S
H355 C346 0.930 . S
C356 C358 1.422 . S
C356 C360 1.415 . S
C356 N362 1.369 . S
C357 C358 1.421 . S
C357 C359 1.417 . S
C357 C369 1.422 . S
C358 C356 1.422 . S
C358 C357 1.421 . S
C358 N368 1.359 . S
C359 C357 1.417 . S
C359 C361 1.329 . S
C359 H378 0.930 . S
C360 C356 1.415 . S
C360 C361 1.437 . S
C360 C364 1.413 . S
C361 C359 1.329 . S
C361 C360 1.437 . S
C361 H383 0.929 . S
N362 C356 1.369 . S
N362 C363 1.338 . S
N362 Gd367 2.622 . S
C363 N362 1.338 . S
C363 C365 1.378 . S
C363 H375 0.929 . S
C364 C360 1.413 . S
C364 C365 1.348 . S
C364 H380 0.931 . S
C365 C363 1.378 . S
C365 C364 1.348 . S
C365 H381 0.930 . S
Gd366 N386 2.622 . S
Gd366 N393 2.570 . S
Gd366 O400 2.353 . S
Gd366 O401 2.468 . S
Gd366 O402 2.427 . S
Gd366 O404 2.388 . S
Gd366 O405 2.386 . S
Gd366 O409 2.307 . S
Gd366 C419 2.805 . S
Gd367 N362 2.622 . S
Gd367 N368 2.570 . S
Gd367 O399 2.386 . S
Gd367 O403 2.307 . S
Gd367 O406 2.353 . S
Gd367 O407 2.468 . S
Gd367 O408 2.427 . S
Gd367 O410 2.388 . S
Gd367 C431 2.805 . S
N368 C358 1.359 . S
N368 Gd367 2.570 . S
N368 C370 1.343 . S
C369 C357 1.422 . S
C369 C371 1.321 . S
C369 H377 0.931 . S
C370 N368 1.343 . S
C370 C371 1.390 . S
C370 H372 0.931 . S
C371 C369 1.321 . S
C371 C370 1.390 . S
C371 H373 0.930 . S
H372 C370 0.931 . S
H373 C371 0.930 . S
H374 C397 0.931 . S
H375 C363 0.929 . S
H376 C398 0.930 . S
H377 C369 0.931 . S
H378 C359 0.930 . S
H379 C388 0.929 . S
H380 C364 0.931 . S
H381 C365 0.930 . S
H382 C420 0.930 . S
H383 C361 0.929 . S
H384 C389 0.931 . S
H385 C390 0.930 . S
N386 Gd366 2.622 . S
N386 C387 1.369 . S
N386 C388 1.338 . S
C387 N386 1.369 . S
C387 C391 1.415 . S
C387 C394 1.422 . S
C388 H379 0.929 . S
C388 N386 1.338 . S
C388 C390 1.378 . S
C389 H384 0.931 . S
C389 C390 1.348 . S
C389 C391 1.413 . S
C390 H385 0.930 . S
C390 C388 1.378 . S
C390 C389 1.348 . S
C391 C387 1.415 . S
C391 C389 1.413 . S
C391 C421 1.437 . S
H392 C421 0.929 . S
N393 Gd366 2.570 . S
N393 C394 1.359 . S
N393 C397 1.343 . S
C394 C387 1.422 . S
C394 N393 1.359 . S
C394 C396 1.421 . S
C395 C396 1.422 . S
C395 C398 1.321 . S
C395 H422 0.931 . S
C396 C394 1.421 . S
C396 C395 1.422 . S
C396 C420 1.417 . S
C397 H374 0.931 . S
C397 N393 1.343 . S
C397 C398 1.390 . S
C398 H376 0.930 . S
C398 C395 1.321 . S
C398 C397 1.390 . S
O399 Gd367 2.386 . S
O399 C411 1.265 . S
O400 Gd366 2.353 . S
O400 C411 1.242 . S
O401 Gd366 2.468 . S
O401 C419 1.263 . S
O402 Gd366 2.427 . S
O402 C419 1.252 . S
O403 Gd367 2.307 . S
O403 C412 1.261 . S
O404 Gd366 2.388 . S
O404 C412 1.252 . S
O405 Gd366 2.386 . S
O405 C423 1.265 . S
O406 Gd367 2.353 . S
O406 C423 1.242 . S
O407 Gd367 2.468 . S
O407 C431 1.263 . S
O408 Gd367 2.427 . S
O408 C431 1.252 . S
O409 Gd366 2.307 . S
O409 C424 1.261 . S
O410 Gd367 2.388 . S
O410 C424 1.252 . S
C411 O399 1.265 . S
C411 O400 1.242 . S
C412 O403 1.261 . S
C412 O404 1.252 . S
C413 C416 1.394 . S
C413 C418 1.370 . S
C413 C419 1.500 . S
C414 C417 1.383 . S
C414 C418 1.395 . S
C415 C416 1.396 . S
C415 C417 1.365 . S
C415 H432 0.929 . S
C416 C413 1.394 . S
C416 C415 1.396 . S
C416 H433 0.930 . S
C417 C414 1.383 . S
C417 C415 1.365 . S
C417 H434 0.931 . S
C418 C413 1.370 . S
C418 C414 1.395 . S
C418 H435 0.930 . S
C419 Gd366 2.805 . S
C419 O401 1.263 . S
C419 O402 1.252 . S
C419 C413 1.500 . S
C420 H382 0.930 . S
C420 C396 1.417 . S
C420 C421 1.329 . S
C421 C391 1.437 . S
C421 H392 0.929 . S
C421 C420 1.329 . S
H422 C395 0.931 . S
C423 O405 1.265 . S
C423 O406 1.242 . S
C424 O409 1.261 . S
C424 O410 1.252 . S
C425 C428 1.394 . S
C425 C430 1.370 . S
C425 C431 1.500 . S
C426 C429 1.383 . S
C426 C430 1.395 . S
C427 C428 1.396 . S
C427 C429 1.365 . S
C427 H436 0.929 . S
C428 C425 1.394 . S
C428 C427 1.396 . S
C428 H437 0.930 . S
C429 C426 1.383 . S
C429 C427 1.365 . S
C429 H438 0.931 . S
C430 C425 1.370 . S
C430 C426 1.395 . S
C430 H439 0.930 . S
C431 Gd367 2.805 . S
C431 O407 1.263 . S
C431 O408 1.252 . S
C431 C425 1.500 . S
H432 C415 0.929 . S
H433 C416 0.930 . S
H434 C417 0.931 . S
H435 C418 0.930 . S
H436 C427 0.929 . S
H437 C428 0.930 . S
H438 C429 0.931 . S
H439 C430 0.930 . S
H440 C458 0.951 . S
H441 C460 0.951 . S
H442 C462 0.950 . S
H443 C463 0.950 . S
H444 C465 0.950 . S
H445 C468 0.950 . S
H446 C469 0.950 . S
H447 C471 0.950 . S
H448 C472 0.950 . S
H449 C473 0.951 . S
H450 C475 0.951 . S
H451 C477 0.950 1_565 S
H452 C478 0.950 . S
H453 C480 0.950 . S
H454 C483 0.950 . S
H455 C484 0.950 . S
H456 C486 0.950 . S
H457 C487 0.950 . S
C458 H440 0.951 . S
C458 C459 1.366 . S
C458 C460 1.388 . S
C459 C458 1.366 . S
C459 C463 1.385 . S
C460 H441 0.951 . S
C460 C458 1.388 . S
C460 C461 1.366 . S
C461 C460 1.366 . S
C461 C462 1.414 . S
C461 C464 1.499 . S
C462 H442 0.950 . S
C462 C461 1.414 . S
C462 C463 1.374 . S
C463 H443 0.950 . S
C463 C459 1.385 . S
C463 C462 1.374 . S
C464 C461 1.499 . S
C464 C465 1.373 . S
C464 C466 1.389 . S
C465 H444 0.950 . S
C465 C464 1.373 . S
C465 C481 1.377 . S
C466 C464 1.389 . S
C466 C467 1.524 . S
C466 C480 1.377 . S
C467 C466 1.524 . S
C467 C468 1.397 . S
C467 C472 1.363 . S
C468 H445 0.950 . S
C468 C467 1.397 . S
C468 C469 1.334 . S
C469 H446 0.950 . S
C469 C468 1.334 . S
C469 C470 1.287 . S
C470 C469 1.287 . S
C470 C471 1.524 . S
C470 H489 0.913 . S
C471 H447 0.950 . S
C471 C470 1.524 . S
C471 C472 1.415 . S
C472 H448 0.950 . S
C472 C467 1.363 . S
C472 C471 1.415 . S
C473 H449 0.951 . S
C473 C474 1.366 . S
C473 C475 1.388 . S
C474 C473 1.366 . S
C474 C478 1.385 . S
C475 H450 0.951 . S
C475 C473 1.388 . S
C475 C476 1.366 . S
C476 C475 1.366 . S
C476 C477 1.414 . S
C476 C479 1.499 1_545 S
C477 H451 0.950 1_545 S
C477 C476 1.414 . S
C477 C478 1.374 . S
C478 H452 0.950 . S
C478 C474 1.385 . S
C478 C477 1.374 . S
C479 C476 1.499 1_565 S
C479 C480 1.373 . S
C479 C481 1.389 . S
C480 H453 0.950 . S
C480 C466 1.377 . S
C480 C479 1.373 . S
C481 C465 1.377 . S
C481 C479 1.389 . S
C481 C482 1.524 1_565 S
C482 C481 1.524 1_545 S
C482 C483 1.397 . S
C482 C487 1.363 . S
C483 H454 0.950 . S
C483 C482 1.397 . S
C483 C484 1.334 . S
C484 H455 0.950 . S
C484 C483 1.334 . S
C484 C485 1.287 . S
C485 C484 1.287 . S
C485 C486 1.524 . S
C485 H488 0.999 . S
C486 H456 0.950 . S
C486 C485 1.524 . S
C486 C487 1.415 . S
C487 H457 0.950 . S
C487 C482 1.363 . S
C487 C486 1.415 . S
H488 C485 0.999 . S
H489 C470 0.913 . S
H490 C508 0.951 . S
H491 C510 0.951 . S
H492 C512 0.950 . S
H493 C513 0.950 . S
H494 C515 0.950 . S
H495 C518 0.950 . S
H496 C519 0.950 . S
H497 C521 0.950 . S
H498 C522 0.950 . S
H499 C523 0.951 . S
H500 C525 0.951 . S
H501 C527 0.950 . S
H502 C528 0.950 . S
H503 C530 0.950 . S
H504 C533 0.950 . S
H505 C534 0.950 . S
H506 C536 0.950 . S
H507 C537 0.950 . S
C508 H490 0.951 . S
C508 C509 1.366 . S
C508 C510 1.388 . S
C509 C508 1.366 . S
C509 C513 1.385 . S
C510 H491 0.951 . S
C510 C508 1.388 . S
C510 C511 1.366 . S
C511 C510 1.366 . S
C511 C512 1.414 . S
C511 C514 1.499 . S
C512 H492 0.950 . S
C512 C511 1.414 . S
C512 C513 1.374 . S
C513 H493 0.950 . S
C513 C509 1.385 . S
C513 C512 1.374 . S
C514 C511 1.499 . S
C514 C515 1.373 . S
C514 C516 1.389 . S
C515 H494 0.950 . S
C515 C514 1.373 . S
C515 C531 1.377 . S
C516 C514 1.389 . S
C516 C517 1.524 . S
C516 C530 1.377 . S
C517 C516 1.524 . S
C517 C518 1.397 . S
C517 C522 1.363 . S
C518 H495 0.950 . S
C518 C517 1.397 . S
C518 C519 1.334 . S
C519 H496 0.950 . S
C519 C518 1.334 . S
C519 C520 1.287 . S
C520 C519 1.287 . S
C520 C521 1.524 . S
C520 H539 0.913 . S
C521 H497 0.950 . S
C521 C520 1.524 . S
C521 C522 1.415 . S
C522 H498 0.950 . S
C522 C517 1.363 . S
C522 C521 1.415 . S
C523 H499 0.951 . S
C523 C524 1.366 . S
C523 C525 1.388 . S
C524 C523 1.366 . S
C524 C528 1.385 . S
C525 H500 0.951 . S
C525 C523 1.388 . S
C525 C526 1.366 . S
C526 C525 1.366 . S
C526 C527 1.414 . S
C526 C529 1.499 . S
C527 H501 0.950 . S
C527 C526 1.414 . S
C527 C528 1.374 . S
C528 H502 0.950 . S
C528 C524 1.385 . S
C528 C527 1.374 . S
C529 C526 1.499 . S
C529 C530 1.373 . S
C529 C531 1.389 . S
C530 H503 0.950 . S
C530 C516 1.377 . S
C530 C529 1.373 . S
C531 C515 1.377 . S
C531 C529 1.389 . S
C531 C532 1.524 . S
C532 C531 1.524 . S
C532 C533 1.397 . S
C532 C537 1.363 . S
C533 H504 0.950 . S
C533 C532 1.397 . S
C533 C534 1.334 . S
C534 H505 0.950 . S
C534 C533 1.334 . S
C534 C535 1.287 . S
C535 C534 1.287 . S
C535 C536 1.524 . S
C535 H538 0.999 . S
C536 H506 0.950 . S
C536 C535 1.524 . S
C536 C537 1.415 . S
C537 H507 0.950 . S
C537 C532 1.363 . S
C537 C536 1.415 . S
H538 C535 0.999 . S
H539 C520 0.913 . S
H540 C558 0.951 . S
H541 C560 0.951 . S
H542 C562 0.950 . S
H543 C563 0.950 . S
H544 C565 0.950 . S
H545 C568 0.950 . S
H546 C569 0.950 . S
H547 C571 0.950 . S
H548 C572 0.950 . S
H549 C573 0.951 . S
H550 C575 0.951 . S
H551 C577 0.950 . S
H552 C578 0.950 . S
H553 C580 0.950 . S
H554 C583 0.950 . S
H555 C584 0.950 . S
H556 C586 0.950 . S
H557 C587 0.950 . S
C558 H540 0.951 . S
C558 C559 1.366 . S
C558 C560 1.388 . S
C559 C558 1.366 . S
C559 C563 1.385 . S
C560 H541 0.951 . S
C560 C558 1.388 . S
C560 C561 1.366 . S
C561 C560 1.366 . S
C561 C562 1.414 . S
C561 C564 1.499 . S
C562 H542 0.950 . S
C562 C561 1.414 . S
C562 C563 1.374 . S
C563 H543 0.950 . S
C563 C559 1.385 . S
C563 C562 1.374 . S
C564 C561 1.499 . S
C564 C565 1.373 . S
C564 C566 1.389 . S
C565 H544 0.950 . S
C565 C564 1.373 . S
C565 C581 1.377 . S
C566 C564 1.389 . S
C566 C567 1.524 . S
C566 C580 1.377 . S
C567 C566 1.524 . S
C567 C568 1.397 . S
C567 C572 1.363 . S
C568 H545 0.950 . S
C568 C567 1.397 . S
C568 C569 1.334 . S
C569 H546 0.950 . S
C569 C568 1.334 . S
C569 C570 1.287 . S
C570 C569 1.287 . S
C570 C571 1.524 . S
C570 H589 0.913 . S
C571 H547 0.950 . S
C571 C570 1.524 . S
C571 C572 1.415 . S
C572 H548 0.950 . S
C572 C567 1.363 . S
C572 C571 1.415 . S
C573 H549 0.951 . S
C573 C574 1.366 . S
C573 C575 1.388 . S
C574 C573 1.366 . S
C574 C578 1.385 . S
C575 H550 0.951 . S
C575 C573 1.388 . S
C575 C576 1.366 . S
C576 C575 1.366 . S
C576 C577 1.414 . S
C576 C579 1.499 . S
C577 H551 0.950 . S
C577 C576 1.414 . S
C577 C578 1.374 . S
C578 H552 0.950 . S
C578 C574 1.385 . S
C578 C577 1.374 . S
C579 C576 1.499 . S
C579 C580 1.373 . S
C579 C581 1.389 . S
C580 H553 0.950 . S
C580 C566 1.377 . S
C580 C579 1.373 . S
C581 C565 1.377 . S
C581 C579 1.389 . S
C581 C582 1.524 . S
C582 C581 1.524 . S
C582 C583 1.397 . S
C582 C587 1.363 . S
C583 H554 0.950 . S
C583 C582 1.397 . S
C583 C584 1.334 . S
C584 H555 0.950 . S
C584 C583 1.334 . S
C584 C585 1.287 . S
C585 C584 1.287 . S
C585 C586 1.524 . S
C585 H588 0.999 . S
C586 H556 0.950 . S
C586 C585 1.524 . S
C586 C587 1.415 . S
C587 H557 0.950 . S
C587 C582 1.363 . S
C587 C586 1.415 . S
H588 C585 0.999 . S
H589 C570 0.913 . S
H590 C608 0.951 . S
H591 C610 0.951 . S
H592 C612 0.950 . S
H593 C613 0.950 . S
H594 C615 0.950 . S
H595 C618 0.950 . S
H596 C619 0.950 . S
H597 C621 0.950 . S
H598 C622 0.950 . S
H599 C623 0.951 . S
H600 C625 0.951 . S
H601 C627 0.950 . S
H602 C628 0.950 . S
H603 C630 0.950 1_545 S
H604 C633 0.950 . S
H605 C634 0.950 . S
H606 C636 0.950 . S
H607 C637 0.950 . S
C608 H590 0.951 . S
C608 C609 1.366 . S
C608 C610 1.388 . S
C609 C608 1.366 . S
C609 C613 1.385 . S
C610 H591 0.951 . S
C610 C608 1.388 . S
C610 C611 1.366 . S
C611 C610 1.366 . S
C611 C612 1.414 . S
C611 C614 1.499 . S
C612 H592 0.950 . S
C612 C611 1.414 . S
C612 C613 1.374 . S
C613 H593 0.950 . S
C613 C609 1.385 . S
C613 C612 1.374 . S
C614 C611 1.499 . S
C614 C615 1.373 . S
C614 C616 1.389 . S
C615 H594 0.950 . S
C615 C614 1.373 . S
C615 C631 1.377 . S
C616 C614 1.389 . S
C616 C617 1.524 . S
C616 C630 1.377 . S
C617 C616 1.524 . S
C617 C618 1.397 . S
C617 C622 1.363 . S
C618 H595 0.950 . S
C618 C617 1.397 . S
C618 C619 1.334 . S
C619 H596 0.950 . S
C619 C618 1.334 . S
C619 C620 1.287 . S
C620 C619 1.287 . S
C620 C621 1.524 . S
C620 H639 0.913 . S
C621 H597 0.950 . S
C621 C620 1.524 . S
C621 C622 1.415 . S
C622 H598 0.950 . S
C622 C617 1.363 . S
C622 C621 1.415 . S
C623 H599 0.951 . S
C623 C624 1.366 . S
C623 C625 1.388 . S
C624 C623 1.366 . S
C624 C628 1.385 . S
C625 H600 0.951 . S
C625 C623 1.388 . S
C625 C626 1.366 . S
C626 C625 1.366 . S
C626 C627 1.414 . S
C626 C629 1.499 1_545 S
C627 H601 0.950 . S
C627 C626 1.414 . S
C627 C628 1.374 . S
C628 H602 0.950 . S
C628 C624 1.385 . S
C628 C627 1.374 . S
C629 C626 1.499 1_565 S
C629 C630 1.373 . S
C629 C631 1.389 . S
C630 H603 0.950 1_565 S
C630 C616 1.377 . S
C630 C629 1.373 . S
C631 C615 1.377 . S
C631 C629 1.389 . S
C631 C632 1.524 . S
C632 C631 1.524 . S
C632 C633 1.397 . S
C632 C637 1.363 . S
C633 H604 0.950 . S
C633 C632 1.397 . S
C633 C634 1.334 1_655 S
C634 H605 0.950 . S
C634 C633 1.334 1_455 S
C634 C635 1.287 . S
C635 C634 1.287 . S
C635 C636 1.524 . S
C635 H638 0.999 . S
C636 H606 0.950 . S
C636 C635 1.524 . S
C636 C637 1.415 1_455 S
C637 H607 0.950 . S
C637 C632 1.363 . S
C637 C636 1.415 1_655 S
H638 C635 0.999 . S
H639 C620 0.913 . S
H640 C658 0.951 . S
H641 C660 0.951 . S
H642 C662 0.950 . S
H643 C663 0.950 . S
H644 C665 0.950 . S
H645 C668 0.950 . S
H646 C669 0.950 . S
H647 C671 0.950 . S
H648 C672 0.950 . S
H649 C673 0.951 . S
H650 C675 0.951 . S
H651 C677 0.950 . S
H652 C678 0.950 . S
H653 C680 0.950 1_565 S
H654 C683 0.950 . S
H655 C684 0.950 . S
H656 C686 0.950 . S
H657 C687 0.950 . S
C658 H640 0.951 . S
C658 C659 1.366 . S
C658 C660 1.388 . S
C659 C658 1.366 . S
C659 C663 1.385 . S
C660 H641 0.951 . S
C660 C658 1.388 . S
C660 C661 1.366 . S
C661 C660 1.366 . S
C661 C662 1.414 . S
C661 C664 1.499 . S
C662 H642 0.950 . S
C662 C661 1.414 . S
C662 C663 1.374 . S
C663 H643 0.950 . S
C663 C659 1.385 . S
C663 C662 1.374 . S
C664 C661 1.499 . S
C664 C665 1.373 . S
C664 C666 1.389 . S
C665 H644 0.950 . S
C665 C664 1.373 . S
C665 C681 1.377 . S
C666 C664 1.389 . S
C666 C667 1.524 . S
C666 C680 1.377 . S
C667 C666 1.524 . S
C667 C668 1.397 . S
C667 C672 1.363 . S
C668 H645 0.950 . S
C668 C667 1.397 . S
C668 C669 1.334 . S
C669 H646 0.950 . S
C669 C668 1.334 . S
C669 C670 1.287 . S
C670 C669 1.287 . S
C670 C671 1.524 1_545 S
C670 H689 0.913 1_545 S
C671 H647 0.950 . S
C671 C670 1.524 1_565 S
C671 C672 1.414 1_565 S
C672 H648 0.950 . S
C672 C667 1.363 . S
C672 C671 1.414 1_545 S
C673 H649 0.951 . S
C673 C674 1.366 . S
C673 C675 1.388 . S
C674 C673 1.366 . S
C674 C678 1.385 . S
C675 H650 0.951 . S
C675 C673 1.388 . S
C675 C676 1.366 . S
C676 C675 1.366 . S
C676 C677 1.414 . S
C676 C679 1.499 1_565 S
C677 H651 0.950 . S
C677 C676 1.414 . S
C677 C678 1.374 . S
C678 H652 0.950 . S
C678 C674 1.385 . S
C678 C677 1.374 . S
C679 C676 1.499 1_545 S
C679 C680 1.373 . S
C679 C681 1.389 . S
C680 H653 0.950 1_545 S
C680 C666 1.377 . S
C680 C679 1.373 . S
C681 C665 1.377 . S
C681 C679 1.389 . S
C681 C682 1.524 . S
C682 C681 1.524 . S
C682 C683 1.397 . S
C682 C687 1.363 . S
C683 H654 0.950 . S
C683 C682 1.397 . S
C683 C684 1.334 . S
C684 H655 0.950 . S
C684 C683 1.334 . S
C684 C685 1.287 . S
C685 C684 1.287 . S
C685 C686 1.524 . S
C685 H688 0.999 . S
C686 H656 0.950 . S
C686 C685 1.524 . S
C686 C687 1.415 . S
C687 H657 0.950 . S
C687 C682 1.363 . S
C687 C686 1.415 . S
H688 C685 0.999 . S
H689 C670 0.913 1_565 S
H690 C708 0.951 . S
H691 C710 0.951 . S
H692 C712 0.950 . S
H693 C713 0.950 . S
H694 C715 0.950 . S
H695 C718 0.950 . S
H696 C719 0.950 . S
H697 C721 0.950 . S
H698 C722 0.950 . S
H699 C723 0.951 . S
H700 C725 0.951 . S
H701 C727 0.950 . S
H702 C728 0.950 . S
H703 C730 0.950 . S
H704 C733 0.950 . S
H705 C734 0.950 . S
H706 C736 0.950 . S
H707 C737 0.950 . S
C708 H690 0.951 . S
C708 C709 1.366 . S
C708 C710 1.388 . S
C709 C708 1.366 . S
C709 C713 1.385 . S
C710 H691 0.951 . S
C710 C708 1.388 . S
C710 C711 1.366 . S
C711 C710 1.366 . S
C711 C712 1.414 . S
C711 C714 1.499 . S
C712 H692 0.950 . S
C712 C711 1.414 . S
C712 C713 1.374 . S
C713 H693 0.950 . S
C713 C709 1.385 . S
C713 C712 1.374 . S
C714 C711 1.499 . S
C714 C715 1.373 . S
C714 C716 1.389 . S
C715 H694 0.950 . S
C715 C714 1.373 . S
C715 C731 1.377 . S
C716 C714 1.389 . S
C716 C717 1.524 . S
C716 C730 1.377 . S
C717 C716 1.524 . S
C717 C718 1.397 . S
C717 C722 1.363 . S
C718 H695 0.950 . S
C718 C717 1.397 . S
C718 C719 1.334 . S
C719 H696 0.950 . S
C719 C718 1.334 . S
C719 C720 1.287 . S
C720 C719 1.287 . S
C720 C721 1.524 . S
C720 H739 0.913 . S
C721 H697 0.950 . S
C721 C720 1.524 . S
C721 C722 1.415 . S
C722 H698 0.950 . S
C722 C717 1.363 . S
C722 C721 1.415 . S
C723 H699 0.951 . S
C723 C724 1.366 . S
C723 C725 1.388 . S
C724 C723 1.366 . S
C724 C728 1.385 . S
C725 H700 0.951 . S
C725 C723 1.388 . S
C725 C726 1.366 . S
C726 C725 1.366 . S
C726 C727 1.414 . S
C726 C729 1.499 . S
C727 H701 0.950 . S
C727 C726 1.414 . S
C727 C728 1.374 . S
C728 H702 0.950 . S
C728 C724 1.385 . S
C728 C727 1.374 . S
C729 C726 1.499 . S
C729 C730 1.373 . S
C729 C731 1.389 . S
C730 H703 0.950 . S
C730 C716 1.377 . S
C730 C729 1.373 . S
C731 C715 1.377 . S
C731 C729 1.389 . S
C731 C732 1.524 . S
C732 C731 1.524 . S
C732 C733 1.397 . S
C732 C737 1.363 . S
C733 H704 0.950 . S
C733 C732 1.397 . S
C733 C734 1.334 . S
C734 H705 0.950 . S
C734 C733 1.334 . S
C734 C735 1.287 . S
C735 C734 1.287 . S
C735 C736 1.524 . S
C735 H738 0.999 . S
C736 H706 0.950 . S
C736 C735 1.524 . S
C736 C737 1.415 . S
C737 H707 0.950 . S
C737 C732 1.363 . S
C737 C736 1.415 . S
H738 C735 0.999 . S
H739 C720 0.913 . S
H740 C758 0.951 . S
H741 C760 0.951 . S
H742 C762 0.950 . S
H743 C763 0.950 . S
H744 C765 0.950 . S
H745 C768 0.950 . S
H746 C769 0.950 . S
H747 C771 0.950 . S
H748 C772 0.950 . S
H749 C773 0.951 . S
H750 C775 0.951 . S
H751 C777 0.950 . S
H752 C778 0.950 . S
H753 C780 0.950 . S
H754 C783 0.950 . S
H755 C784 0.950 . S
H756 C786 0.950 . S
H757 C787 0.950 . S
C758 H740 0.951 . S
C758 C759 1.366 . S
C758 C760 1.388 . S
C759 C758 1.366 . S
C759 C763 1.385 . S
C760 H741 0.951 . S
C760 C758 1.388 . S
C760 C761 1.366 . S
C761 C760 1.366 . S
C761 C762 1.414 . S
C761 C764 1.499 . S
C762 H742 0.950 . S
C762 C761 1.414 . S
C762 C763 1.374 . S
C763 H743 0.950 . S
C763 C759 1.385 . S
C763 C762 1.374 . S
C764 C761 1.499 . S
C764 C765 1.373 . S
C764 C766 1.389 . S
C765 H744 0.950 . S
C765 C764 1.373 . S
C765 C781 1.377 . S
C766 C764 1.389 . S
C766 C767 1.524 . S
C766 C780 1.377 . S
C767 C766 1.524 . S
C767 C768 1.397 . S
C767 C772 1.363 . S
C768 H745 0.950 . S
C768 C767 1.397 . S
C768 C769 1.334 . S
C769 H746 0.950 . S
C769 C768 1.334 . S
C769 C770 1.287 . S
C770 C769 1.287 . S
C770 C771 1.524 . S
C770 H789 0.913 . S
C771 H747 0.950 . S
C771 C770 1.524 . S
C771 C772 1.415 . S
C772 H748 0.950 . S
C772 C767 1.363 . S
C772 C771 1.415 . S
C773 H749 0.951 . S
C773 C774 1.366 . S
C773 C775 1.388 . S
C774 C773 1.366 . S
C774 C778 1.385 . S
C775 H750 0.951 . S
C775 C773 1.388 . S
C775 C776 1.366 . S
C776 C775 1.366 . S
C776 C777 1.414 . S
C776 C779 1.499 . S
C777 H751 0.950 . S
C777 C776 1.414 . S
C777 C778 1.374 . S
C778 H752 0.950 . S
C778 C774 1.385 . S
C778 C777 1.374 . S
C779 C776 1.499 . S
C779 C780 1.373 . S
C779 C781 1.389 . S
C780 H753 0.950 . S
C780 C766 1.377 . S
C780 C779 1.373 . S
C781 C765 1.377 . S
C781 C779 1.389 . S
C781 C782 1.524 . S
C782 C781 1.524 . S
C782 C783 1.397 . S
C782 C787 1.363 . S
C783 H754 0.950 . S
C783 C782 1.397 . S
C783 C784 1.334 . S
C784 H755 0.950 . S
C784 C783 1.334 . S
C784 C785 1.287 . S
C785 C784 1.287 . S
C785 C786 1.524 . S
C785 H788 0.999 . S
C786 H756 0.950 . S
C786 C785 1.524 . S
C786 C787 1.415 . S
C787 H757 0.950 . S
C787 C782 1.363 . S
C787 C786 1.415 . S
H788 C785 0.999 . S
H789 C770 0.913 . S
H790 C808 0.951 . S
H791 C810 0.951 . S
H792 C812 0.950 . S
H793 C813 0.950 . S
H794 C815 0.950 . S
H795 C818 0.950 . S
H796 C819 0.950 . S
H797 C821 0.950 . S
H798 C822 0.950 . S
H799 C823 0.951 . S
H800 C825 0.951 . S
H801 C827 0.950 1_545 S
H802 C828 0.950 . S
H803 C830 0.950 . S
H804 C833 0.950 . S
H805 C834 0.950 . S
H806 C836 0.950 . S
H807 C837 0.950 . S
C808 H790 0.951 . S
C808 C809 1.366 . S
C808 C810 1.388 . S
C809 C808 1.366 . S
C809 C813 1.385 . S
C810 H791 0.951 . S
C810 C808 1.388 . S
C810 C811 1.366 . S
C811 C810 1.366 . S
C811 C812 1.414 . S
C811 C814 1.499 . S
C812 H792 0.950 . S
C812 C811 1.414 . S
C812 C813 1.374 . S
C813 H793 0.950 . S
C813 C809 1.385 . S
C813 C812 1.374 . S
C814 C811 1.499 . S
C814 C815 1.373 . S
C814 C816 1.389 . S
C815 H794 0.950 . S
C815 C814 1.373 . S
C815 C831 1.377 . S
C816 C814 1.389 . S
C816 C817 1.524 . S
C816 C830 1.377 . S
C817 C816 1.524 . S
C817 C818 1.397 . S
C817 C822 1.363 . S
C818 H795 0.950 . S
C818 C817 1.397 . S
C818 C819 1.334 . S
C819 H796 0.950 . S
C819 C818 1.334 . S
C819 C820 1.287 . S
C820 C819 1.287 . S
C820 C821 1.524 . S
C820 H839 0.913 . S
C821 H797 0.950 . S
C821 C820 1.524 . S
C821 C822 1.415 . S
C822 H798 0.950 . S
C822 C817 1.363 . S
C822 C821 1.415 . S
C823 H799 0.951 . S
C823 C824 1.366 . S
C823 C825 1.388 . S
C824 C823 1.366 . S
C824 C828 1.385 . S
C825 H800 0.951 . S
C825 C823 1.388 . S
C825 C826 1.366 . S
C826 C825 1.366 . S
C826 C827 1.414 . S
C826 C829 1.499 1_565 S
C827 H801 0.950 1_565 S
C827 C826 1.414 . S
C827 C828 1.374 . S
C828 H802 0.950 . S
C828 C824 1.385 . S
C828 C827 1.374 . S
C829 C826 1.499 1_545 S
C829 C830 1.373 . S
C829 C831 1.389 . S
C830 H803 0.950 . S
C830 C816 1.377 . S
C830 C829 1.373 . S
C831 C815 1.377 . S
C831 C829 1.389 . S
C831 C832 1.524 . S
C832 C831 1.524 . S
C832 C833 1.397 . S
C832 C837 1.363 1_545 S
C833 H804 0.950 . S
C833 C832 1.397 . S
C833 C834 1.334 . S
C834 H805 0.950 . S
C834 C833 1.334 . S
C834 C835 1.287 1_545 S
C835 C834 1.287 1_565 S
C835 C836 1.524 . S
C835 H838 0.999 . S
C836 H806 0.950 . S
C836 C835 1.524 . S
C836 C837 1.415 . S
C837 H807 0.950 . S
C837 C832 1.363 1_565 S
C837 C836 1.415 . S
H838 C835 0.999 . S
H839 C820 0.913 . S
H840 C858 0.951 . S
H841 C860 0.951 . S
H842 C862 0.950 . S
H843 C863 0.950 . S
H844 C865 0.950 . S
H845 C868 0.950 . S
H846 C869 0.950 . S
H847 C871 0.950 . S
H848 C872 0.950 1_554 S
H849 C873 0.951 . S
H850 C875 0.951 . S
H851 C877 0.950 . S
H852 C878 0.950 . S
H853 C880 0.950 . S
H854 C883 0.950 . S
H855 C884 0.950 . S
H856 C886 0.950 . S
H857 C887 0.950 . S
C858 H840 0.951 . S
C858 C859 1.366 . S
C858 C860 1.388 . S
C859 C858 1.366 . S
C859 C863 1.385 . S
C860 H841 0.951 . S
C860 C858 1.388 . S
C860 C861 1.366 . S
C861 C860 1.366 . S
C861 C862 1.414 . S
C861 C864 1.499 1_556 S
C862 H842 0.950 . S
C862 C861 1.414 . S
C862 C863 1.374 . S
C863 H843 0.950 . S
C863 C859 1.385 . S
C863 C862 1.374 . S
C864 C861 1.499 1_554 S
C864 C865 1.373 . S
C864 C866 1.389 . S
C865 H844 0.950 . S
C865 C864 1.373 . S
C865 C881 1.377 . S
C866 C864 1.389 . S
C866 C867 1.524 1_554 S
C866 C880 1.377 . S
C867 C866 1.524 1_556 S
C867 C868 1.397 . S
C867 C872 1.363 . S
C868 H845 0.950 . S
C868 C867 1.397 . S
C868 C869 1.334 . S
C869 H846 0.950 . S
C869 C868 1.334 . S
C869 C870 1.287 . S
C870 C869 1.287 . S
C870 C871 1.524 . S
C870 H889 0.913 . S
C871 H847 0.950 . S
C871 C870 1.524 . S
C871 C872 1.415 . S
C872 H848 0.950 1_556 S
C872 C867 1.363 . S
C872 C871 1.415 . S
C873 H849 0.951 . S
C873 C874 1.366 . S
C873 C875 1.388 . S
C874 C873 1.366 . S
C874 C878 1.385 . S
C875 H850 0.951 . S
C875 C873 1.388 . S
C875 C876 1.366 . S
C876 C875 1.366 . S
C876 C877 1.414 . S
C876 C879 1.499 . S
C877 H851 0.950 . S
C877 C876 1.414 . S
C877 C878 1.374 . S
C878 H852 0.950 . S
C878 C874 1.385 . S
C878 C877 1.374 . S
C879 C876 1.499 . S
C879 C880 1.373 . S
C879 C881 1.389 . S
C880 H853 0.950 . S
C880 C866 1.377 . S
C880 C879 1.373 . S
C881 C865 1.377 . S
C881 C879 1.389 . S
C881 C882 1.524 . S
C882 C881 1.524 . S
C882 C883 1.397 . S
C882 C887 1.363 . S
C883 H854 0.950 . S
C883 C882 1.397 . S
C883 C884 1.334 . S
C884 H855 0.950 . S
C884 C883 1.334 . S
C884 C885 1.287 . S
C885 C884 1.287 . S
C885 C886 1.524 . S
C885 H888 0.999 . S
C886 H856 0.950 . S
C886 C885 1.524 . S
C886 C887 1.415 . S
C887 H857 0.950 . S
C887 C882 1.363 . S
C887 C886 1.415 . S
H888 C885 0.999 . S
H889 C870 0.913 . S
H890 C908 0.951 . S
H891 C910 0.951 . S
H892 C912 0.950 . S
H893 C913 0.950 . S
H894 C915 0.950 . S
H895 C918 0.950 . S
H896 C919 0.950 . S
H897 C921 0.950 . S
H898 C922 0.950 . S
H899 C923 0.951 . S
H900 C925 0.951 . S
H901 C927 0.950 . S
H902 C928 0.950 . S
H903 C930 0.950 . S
H904 C933 0.950 . S
H905 C934 0.950 . S
H906 C936 0.950 . S
H907 C937 0.950 . S
C908 H890 0.951 . S
C908 C909 1.366 . S
C908 C910 1.388 . S
C909 C908 1.366 . S
C909 C913 1.385 . S
C910 H891 0.951 . S
C910 C908 1.388 . S
C910 C911 1.366 . S
C911 C910 1.366 . S
C911 C912 1.414 . S
C911 C914 1.499 . S
C912 H892 0.950 . S
C912 C911 1.414 . S
C912 C913 1.374 . S
C913 H893 0.950 . S
C913 C909 1.385 . S
C913 C912 1.374 . S
C914 C911 1.499 . S
C914 C915 1.373 . S
C914 C916 1.389 . S
C915 H894 0.950 . S
C915 C914 1.373 . S
C915 C931 1.377 . S
C916 C914 1.389 . S
C916 C917 1.524 . S
C916 C930 1.377 . S
C917 C916 1.524 . S
C917 C918 1.397 . S
C917 C922 1.363 . S
C918 H895 0.950 . S
C918 C917 1.397 . S
C918 C919 1.334 . S
C919 H896 0.950 . S
C919 C918 1.334 . S
C919 C920 1.287 . S
C920 C919 1.287 . S
C920 C921 1.524 . S
C920 H939 0.913 . S
C921 H897 0.950 . S
C921 C920 1.524 . S
C921 C922 1.415 . S
C922 H898 0.950 . S
C922 C917 1.363 . S
C922 C921 1.415 . S
C923 H899 0.951 . S
C923 C924 1.366 . S
C923 C925 1.388 . S
C924 C923 1.366 . S
C924 C928 1.385 . S
C925 H900 0.951 . S
C925 C923 1.388 . S
C925 C926 1.366 . S
C926 C925 1.366 . S
C926 C927 1.414 . S
C926 C929 1.499 . S
C927 H901 0.950 . S
C927 C926 1.414 . S
C927 C928 1.374 . S
C928 H902 0.950 . S
C928 C924 1.385 . S
C928 C927 1.374 . S
C929 C926 1.499 . S
C929 C930 1.373 . S
C929 C931 1.389 . S
C930 H903 0.950 . S
C930 C916 1.377 . S
C930 C929 1.373 . S
C931 C915 1.377 . S
C931 C929 1.389 . S
C931 C932 1.524 . S
C932 C931 1.524 . S
C932 C933 1.397 . S
C932 C937 1.363 . S
C933 H904 0.950 . S
C933 C932 1.397 . S
C933 C934 1.334 . S
C934 H905 0.950 . S
C934 C933 1.334 . S
C934 C935 1.287 . S
C935 C934 1.287 . S
C935 C936 1.524 . S
C935 H938 0.999 . S
C936 H906 0.950 . S
C936 C935 1.524 . S
C936 C937 1.415 . S
C937 H907 0.950 . S
C937 C932 1.363 . S
C937 C936 1.415 . S
H938 C935 0.999 . S
H939 C920 0.913 . S
H940 C958 0.951 . S
H941 C960 0.951 . S
H942 C962 0.950 . S
H943 C963 0.950 . S
H944 C965 0.950 . S
H945 C968 0.950 . S
H946 C969 0.950 . S
H947 C971 0.950 . S
H948 C972 0.950 . S
H949 C973 0.951 . S
H950 C975 0.951 . S
H951 C977 0.950 . S
H952 C978 0.950 . S
H953 C980 0.950 . S
H954 C983 0.950 . S
H955 C984 0.950 . S
H956 C986 0.950 . S
H957 C987 0.950 . S
C958 H940 0.951 . S
C958 C959 1.366 . S
C958 C960 1.388 . S
C959 C958 1.366 . S
C959 C963 1.385 . S
C960 H941 0.951 . S
C960 C958 1.388 . S
C960 C961 1.366 . S
C961 C960 1.366 . S
C961 C962 1.414 . S
C961 C964 1.475 1_554 S
C962 H942 0.950 . S
C962 C961 1.414 . S
C962 C963 1.374 . S
C963 H943 0.950 . S
C963 C959 1.385 . S
C963 C962 1.374 . S
C964 C961 1.475 1_556 S
C964 C965 1.394 . S
C964 C966 1.393 . S
C965 H944 0.950 . S
C965 C964 1.394 . S
C965 C981 1.377 . S
C966 C964 1.393 . S
C966 C967 1.524 1_556 S
C966 C980 1.377 . S
C967 C966 1.524 1_554 S
C967 C968 1.397 . S
C967 C972 1.363 . S
C968 H945 0.950 . S
C968 C967 1.397 . S
C968 C969 1.334 . S
C969 H946 0.950 . S
C969 C968 1.334 . S
C969 C970 1.287 . S
C970 C969 1.287 . S
C970 C971 1.524 . S
C970 H989 0.913 . S
C971 H947 0.950 . S
C971 C970 1.524 . S
C971 C972 1.415 . S
C972 H948 0.950 . S
C972 C967 1.363 . S
C972 C971 1.415 . S
C973 H949 0.951 . S
C973 C974 1.366 . S
C973 C975 1.388 . S
C974 C973 1.366 . S
C974 C978 1.385 . S
C975 H950 0.951 . S
C975 C973 1.388 . S
C975 C976 1.366 . S
C976 C975 1.366 . S
C976 C977 1.414 . S
C976 C979 1.499 . S
C977 H951 0.950 . S
C977 C976 1.414 . S
C977 C978 1.374 . S
C978 H952 0.950 . S
C978 C974 1.385 . S
C978 C977 1.374 . S
C979 C976 1.499 . S
C979 C980 1.373 . S
C979 C981 1.389 . S
C980 H953 0.950 . S
C980 C966 1.377 . S
C980 C979 1.373 . S
C981 C965 1.377 . S
C981 C979 1.389 . S
C981 C982 1.524 . S
C982 C981 1.524 . S
C982 C983 1.397 . S
C982 C987 1.363 . S
C983 H954 0.950 . S
C983 C982 1.397 . S
C983 C984 1.334 . S
C984 H955 0.950 . S
C984 C983 1.334 . S
C984 C985 1.287 . S
C985 C984 1.287 . S
C985 C986 1.524 . S
C985 H988 0.999 . S
C986 H956 0.950 . S
C986 C985 1.524 . S
C986 C987 1.415 . S
C987 H957 0.950 . S
C987 C982 1.363 . S
C987 C986 1.415 . S
H988 C985 0.999 . S
H989 C970 0.913 . S
H990 C1008 0.951 . S
H991 C1010 0.951 . S
H992 C1012 0.950 . S
H993 C1013 0.950 . S
H994 C1015 0.950 . S
H995 C1018 0.950 . S
H996 C1019 0.950 . S
H997 C1021 0.950 . S
H998 C1022 0.950 . S
H999 C1023 0.951 . S
H1000 C1025 0.951 . S
H1001 C1027 0.950 . S
H1002 C1028 0.950 . S
H1003 C1030 0.950 . S
H1004 C1033 0.950 . S
H1005 C1034 0.950 . S
H1006 C1036 0.950 . S
H1007 C1037 0.950 . S
C1008 H990 0.951 . S
C1008 C1009 1.366 . S
C1008 C1010 1.388 . S
C1009 C1008 1.366 . S
C1009 C1013 1.385 . S
C1010 H991 0.951 . S
C1010 C1008 1.388 . S
C1010 C1011 1.366 . S
C1011 C1010 1.366 . S
C1011 C1012 1.414 . S
C1011 C1014 1.499 . S
C1012 H992 0.950 . S
C1012 C1011 1.414 . S
C1012 C1013 1.374 . S
C1013 H993 0.950 . S
C1013 C1009 1.385 . S
C1013 C1012 1.374 . S
C1014 C1011 1.499 . S
C1014 C1015 1.373 . S
C1014 C1016 1.389 . S
C1015 H994 0.950 . S
C1015 C1014 1.373 . S
C1015 C1031 1.377 . S
C1016 C1014 1.389 . S
C1016 C1017 1.524 . S
C1016 C1030 1.377 . S
C1017 C1016 1.524 . S
C1017 C1018 1.397 . S
C1017 C1022 1.363 . S
C1018 H995 0.950 . S
C1018 C1017 1.397 . S
C1018 C1019 1.334 . S
C1019 H996 0.950 . S
C1019 C1018 1.334 . S
C1019 C1020 1.287 . S
C1020 C1019 1.287 . S
C1020 C1021 1.524 . S
C1020 H1039 0.913 . S
C1021 H997 0.950 . S
C1021 C1020 1.524 . S
C1021 C1022 1.415 . S
C1022 H998 0.950 . S
C1022 C1017 1.363 . S
C1022 C1021 1.415 . S
C1023 H999 0.951 . S
C1023 C1024 1.366 . S
C1023 C1025 1.388 . S
C1024 C1023 1.366 . S
C1024 C1028 1.385 . S
C1025 H1000 0.951 . S
C1025 C1023 1.388 . S
C1025 C1026 1.366 . S
C1026 C1025 1.366 . S
C1026 C1027 1.414 . S
C1026 C1029 1.499 . S
C1027 H1001 0.950 . S
C1027 C1026 1.414 . S
C1027 C1028 1.374 . S
C1028 H1002 0.950 . S
C1028 C1024 1.385 . S
C1028 C1027 1.374 . S
C1029 C1026 1.499 . S
C1029 C1030 1.373 . S
C1029 C1031 1.389 . S
C1030 H1003 0.950 . S
C1030 C1016 1.377 . S
C1030 C1029 1.373 . S
C1031 C1015 1.377 . S
C1031 C1029 1.389 . S
C1031 C1032 1.524 . S
C1032 C1031 1.524 . S
C1032 C1033 1.397 . S
C1032 C1037 1.363 . S
C1033 H1004 0.950 . S
C1033 C1032 1.397 . S
C1033 C1034 1.334 . S
C1034 H1005 0.950 . S
C1034 C1033 1.334 . S
C1034 C1035 1.287 . S
C1035 C1034 1.287 . S
C1035 C1036 1.524 . S
C1035 H1038 0.999 . S
C1036 H1006 0.950 . S
C1036 C1035 1.524 . S
C1036 C1037 1.415 . S
C1037 H1007 0.950 . S
C1037 C1032 1.363 . S
C1037 C1036 1.415 . S
H1038 C1035 0.999 . S
H1039 C1020 0.913 . S
H1040 C1058 0.951 . S
H1041 C1060 0.951 . S
H1042 C1062 0.950 . S
H1043 C1063 0.950 . S
H1044 C1065 0.950 1_554 S
H1045 C1068 0.961 . S
H1046 C1069 0.950 . S
H1047 C1071 0.950 . S
H1048 C1072 0.950 . S
H1049 C1073 0.951 . S
H1050 C1075 0.951 . S
H1051 C1077 0.950 . S
H1052 C1078 0.950 . S
H1053 C1080 0.950 . S
H1054 C1083 0.950 . S
H1055 C1084 0.950 . S
H1056 C1086 0.950 . S
H1057 C1087 0.950 . S
C1058 H1040 0.951 . S
C1058 C1059 1.366 . S
C1058 C1060 1.388 . S
C1059 C1058 1.366 . S
C1059 C1063 1.385 . S
C1060 H1041 0.951 . S
C1060 C1058 1.388 . S
C1060 C1061 1.366 . S
C1061 C1060 1.366 . S
C1061 C1062 1.414 . S
C1061 C1064 1.499 1_554 S
C1062 H1042 0.950 . S
C1062 C1061 1.414 . S
C1062 C1063 1.374 . S
C1063 H1043 0.950 . S
C1063 C1059 1.385 . S
C1063 C1062 1.374 . S
C1064 C1061 1.499 1_556 S
C1064 C1065 1.373 . S
C1064 C1066 1.389 . S
C1065 H1044 0.950 1_556 S
C1065 C1064 1.373 . S
C1065 C1081 1.377 . S
C1066 C1064 1.389 . S
C1066 C1067 1.524 . S
C1066 C1080 1.377 . S
C1067 C1066 1.524 . S
C1067 C1068 1.382 1_556 S
C1067 C1072 1.363 . S
C1068 H1045 0.961 . S
C1068 C1067 1.382 1_554 S
C1068 C1069 1.338 . S
C1069 H1046 0.950 . S
C1069 C1068 1.338 . S
C1069 C1070 1.287 1_554 S
C1070 C1069 1.287 1_556 S
C1070 C1071 1.524 . S
C1070 H1089 0.913 . S
C1071 H1047 0.950 . S
C1071 C1070 1.524 . S
C1071 C1072 1.415 . S
C1072 H1048 0.950 . S
C1072 C1067 1.363 . S
C1072 C1071 1.415 . S
C1073 H1049 0.951 . S
C1073 C1074 1.366 . S
C1073 C1075 1.388 . S
C1074 C1073 1.366 . S
C1074 C1078 1.385 . S
C1075 H1050 0.951 . S
C1075 C1073 1.388 . S
C1075 C1076 1.366 . S
C1076 C1075 1.366 . S
C1076 C1077 1.414 . S
C1076 C1079 1.499 . S
C1077 H1051 0.950 . S
C1077 C1076 1.414 . S
C1077 C1078 1.374 . S
C1078 H1052 0.950 . S
C1078 C1074 1.385 . S
C1078 C1077 1.374 . S
C1079 C1076 1.499 . S
C1079 C1080 1.373 . S
C1079 C1081 1.389 . S
C1080 H1053 0.950 . S
C1080 C1066 1.377 . S
C1080 C1079 1.373 . S
C1081 C1065 1.377 . S
C1081 C1079 1.389 . S
C1081 C1082 1.524 . S
C1082 C1081 1.524 . S
C1082 C1083 1.397 . S
C1082 C1087 1.363 . S
C1083 H1054 0.950 . S
C1083 C1082 1.397 . S
C1083 C1084 1.334 . S
C1084 H1055 0.950 . S
C1084 C1083 1.334 . S
C1084 C1085 1.287 . S
C1085 C1084 1.287 . S
C1085 C1086 1.524 . S
C1085 H1088 0.999 . S
C1086 H1056 0.950 . S
C1086 C1085 1.524 . S
C1086 C1087 1.415 . S
C1087 H1057 0.950 . S
C1087 C1082 1.363 . S
C1087 C1086 1.415 . S
H1088 C1085 0.999 . S
H1089 C1070 0.913 . S
H1090 C1108 0.951 . S
H1091 C1110 0.951 . S
H1092 C1112 0.950 . S
H1093 C1113 0.950 . S
H1094 C1115 0.950 . S
H1095 C1118 0.950 . S
H1096 C1119 0.950 . S
H1097 C1121 0.950 . S
H1098 C1122 0.950 . S
H1099 C1123 0.951 . S
H1100 C1125 0.951 . S
H1101 C1127 0.950 . S
H1102 C1128 0.950 . S
H1103 C1130 0.950 . S
H1104 C1133 0.950 . S
H1105 C1134 0.950 . S
H1106 C1136 0.950 . S
H1107 C1137 0.950 . S
C1108 H1090 0.951 . S
C1108 C1109 1.366 . S
C1108 C1110 1.388 . S
C1109 C1108 1.366 . S
C1109 C1113 1.385 . S
C1110 H1091 0.951 . S
C1110 C1108 1.388 . S
C1110 C1111 1.366 . S
C1111 C1110 1.366 . S
C1111 C1112 1.414 . S
C1111 C1114 1.499 . S
C1112 H1092 0.950 . S
C1112 C1111 1.414 . S
C1112 C1113 1.374 . S
C1113 H1093 0.950 . S
C1113 C1109 1.385 . S
C1113 C1112 1.374 . S
C1114 C1111 1.499 . S
C1114 C1115 1.373 . S
C1114 C1116 1.389 . S
C1115 H1094 0.950 . S
C1115 C1114 1.373 . S
C1115 C1131 1.377 . S
C1116 C1114 1.389 . S
C1116 C1117 1.524 . S
C1116 C1130 1.377 . S
C1117 C1116 1.524 . S
C1117 C1118 1.397 . S
C1117 C1122 1.363 . S
C1118 H1095 0.950 . S
C1118 C1117 1.397 . S
C1118 C1119 1.334 . S
C1119 H1096 0.950 . S
C1119 C1118 1.334 . S
C1119 C1120 1.287 . S
C1120 C1119 1.287 . S
C1120 C1121 1.524 . S
C1120 H1139 0.913 . S
C1121 H1097 0.950 . S
C1121 C1120 1.524 . S
C1121 C1122 1.415 . S
C1122 H1098 0.950 . S
C1122 C1117 1.363 . S
C1122 C1121 1.415 . S
C1123 H1099 0.951 . S
C1123 C1124 1.366 . S
C1123 C1125 1.388 . S
C1124 C1123 1.366 . S
C1124 C1128 1.385 . S
C1125 H1100 0.951 . S
C1125 C1123 1.388 . S
C1125 C1126 1.366 . S
C1126 C1125 1.366 . S
C1126 C1127 1.414 . S
C1126 C1129 1.499 . S
C1127 H1101 0.950 . S
C1127 C1126 1.414 . S
C1127 C1128 1.374 . S
C1128 H1102 0.950 . S
C1128 C1124 1.385 . S
C1128 C1127 1.374 . S
C1129 C1126 1.499 . S
C1129 C1130 1.373 . S
C1129 C1131 1.389 . S
C1130 H1103 0.950 . S
C1130 C1116 1.377 . S
C1130 C1129 1.373 . S
C1131 C1115 1.377 . S
C1131 C1129 1.389 . S
C1131 C1132 1.524 . S
C1132 C1131 1.524 . S
C1132 C1133 1.397 . S
C1132 C1137 1.363 . S
C1133 H1104 0.950 . S
C1133 C1132 1.397 . S
C1133 C1134 1.334 . S
C1134 H1105 0.950 . S
C1134 C1133 1.334 . S
C1134 C1135 1.287 . S
C1135 C1134 1.287 . S
C1135 C1136 1.524 . S
C1135 H1138 0.999 . S
C1136 H1106 0.950 . S
C1136 C1135 1.524 . S
C1136 C1137 1.415 . S
C1137 H1107 0.950 . S
C1137 C1132 1.363 . S
C1137 C1136 1.415 . S
H1138 C1135 0.999 . S
H1139 C1120 0.913 . S
H1140 C1158 0.951 . S
H1141 C1160 0.951 . S
H1142 C1162 0.950 . S
H1143 C1163 0.950 . S
H1144 C1165 0.950 . S
H1145 C1168 0.950 . S
H1146 C1169 0.950 . S
H1147 C1171 0.950 . S
H1148 C1172 0.959 . S
H1149 C1173 0.951 . S
H1150 C1175 0.951 . S
H1151 C1177 0.950 . S
H1152 C1178 0.950 . S
H1153 C1180 0.950 . S
H1154 C1183 0.950 . S
H1155 C1184 0.950 . S
H1156 C1186 0.950 . S
H1157 C1187 0.950 . S
C1158 H1140 0.951 . S
C1158 C1159 1.366 . S
C1158 C1160 1.388 . S
C1159 C1158 1.366 . S
C1159 C1163 1.385 . S
C1160 H1141 0.951 . S
C1160 C1158 1.388 . S
C1160 C1161 1.366 . S
C1161 C1160 1.366 . S
C1161 C1162 1.414 . S
C1161 C1164 1.499 1_556 S
C1162 H1142 0.950 . S
C1162 C1161 1.414 . S
C1162 C1163 1.374 . S
C1163 H1143 0.950 . S
C1163 C1159 1.385 . S
C1163 C1162 1.374 . S
C1164 C1161 1.499 1_554 S
C1164 C1165 1.373 . S
C1164 C1166 1.389 . S
C1165 H1144 0.950 . S
C1165 C1164 1.373 . S
C1165 C1181 1.377 . S
C1166 C1164 1.389 . S
C1166 C1167 1.524 . S
C1166 C1180 1.377 . S
C1167 C1166 1.524 . S
C1167 C1168 1.397 1_554 S
C1167 C1172 1.365 . S
C1168 H1145 0.950 . S
C1168 C1167 1.397 1_556 S
C1168 C1169 1.334 . S
C1169 H1146 0.950 . S
C1169 C1168 1.334 . S
C1169 C1170 1.287 . S
C1170 C1169 1.287 . S
C1170 C1171 1.524 . S
C1170 H1189 0.913 . S
C1171 H1147 0.950 . S
C1171 C1170 1.524 . S
C1171 C1172 1.405 1_556 S
C1172 H1148 0.959 . S
C1172 C1167 1.365 . S
C1172 C1171 1.405 1_554 S
C1173 H1149 0.951 . S
C1173 C1174 1.366 . S
C1173 C1175 1.388 . S
C1174 C1173 1.366 . S
C1174 C1178 1.385 . S
C1175 H1150 0.951 . S
C1175 C1173 1.388 . S
C1175 C1176 1.366 . S
C1176 C1175 1.366 . S
C1176 C1177 1.414 . S
C1176 C1179 1.499 . S
C1177 H1151 0.950 . S
C1177 C1176 1.414 . S
C1177 C1178 1.374 . S
C1178 H1152 0.950 . S
C1178 C1174 1.385 . S
C1178 C1177 1.374 . S
C1179 C1176 1.499 . S
C1179 C1180 1.373 . S
C1179 C1181 1.389 . S
C1180 H1153 0.950 . S
C1180 C1166 1.377 . S
C1180 C1179 1.373 . S
C1181 C1165 1.377 . S
C1181 C1179 1.389 . S
C1181 C1182 1.524 . S
C1182 C1181 1.524 . S
C1182 C1183 1.397 . S
C1182 C1187 1.363 . S
C1183 H1154 0.950 . S
C1183 C1182 1.397 . S
C1183 C1184 1.334 . S
C1184 H1155 0.950 . S
C1184 C1183 1.334 . S
C1184 C1185 1.287 . S
C1185 C1184 1.287 . S
C1185 C1186 1.524 . S
C1185 H1188 0.999 . S
C1186 H1156 0.950 . S
C1186 C1185 1.524 . S
C1186 C1187 1.415 . S
C1187 H1157 0.950 . S
C1187 C1182 1.363 . S
C1187 C1186 1.415 . S
H1188 C1185 0.999 . S
H1189 C1170 0.913 . S
H1190 C1208 0.951 . S
H1191 C1210 0.951 . S
H1192 C1212 0.950 . S
H1193 C1213 0.950 . S
H1194 C1215 0.950 . S
H1195 C1218 0.950 . S
H1196 C1219 0.950 . S
H1197 C1221 0.950 . S
H1198 C1222 0.950 . S
H1199 C1223 0.951 . S
H1200 C1225 0.951 . S
H1201 C1227 0.950 . S
H1202 C1228 0.950 . S
H1203 C1230 0.950 . S
H1204 C1233 0.950 . S
H1205 C1234 0.950 1_655 S
H1206 C1236 0.950 . S
H1207 C1237 0.950 . S
C1208 H1190 0.951 . S
C1208 C1209 1.366 . S
C1208 C1210 1.388 . S
C1209 C1208 1.366 . S
C1209 C1213 1.385 . S
C1210 H1191 0.951 . S
C1210 C1208 1.388 . S
C1210 C1211 1.366 . S
C1211 C1210 1.366 . S
C1211 C1212 1.414 . S
C1211 C1214 1.499 . S
C1212 H1192 0.950 . S
C1212 C1211 1.414 . S
C1212 C1213 1.374 . S
C1213 H1193 0.950 . S
C1213 C1209 1.385 . S
C1213 C1212 1.374 . S
C1214 C1211 1.499 . S
C1214 C1215 1.373 . S
C1214 C1216 1.389 . S
C1215 H1194 0.950 . S
C1215 C1214 1.373 . S
C1215 C1231 1.377 . S
C1216 C1214 1.389 . S
C1216 C1217 1.524 . S
C1216 C1230 1.377 . S
C1217 C1216 1.524 . S
C1217 C1218 1.397 . S
C1217 C1222 1.363 . S
C1218 H1195 0.950 . S
C1218 C1217 1.397 . S
C1218 C1219 1.334 . S
C1219 H1196 0.950 . S
C1219 C1218 1.334 . S
C1219 C1220 1.287 . S
C1220 C1219 1.287 . S
C1220 C1221 1.524 . S
C1220 H1239 0.913 . S
C1221 H1197 0.950 . S
C1221 C1220 1.524 . S
C1221 C1222 1.415 . S
C1222 H1198 0.950 . S
C1222 C1217 1.363 . S
C1222 C1221 1.415 . S
C1223 H1199 0.951 . S
C1223 C1224 1.366 . S
C1223 C1225 1.388 . S
C1224 C1223 1.366 . S
C1224 C1228 1.385 . S
C1225 H1200 0.951 . S
C1225 C1223 1.388 . S
C1225 C1226 1.366 . S
C1226 C1225 1.366 . S
C1226 C1227 1.414 . S
C1226 C1229 1.499 . S
C1227 H1201 0.950 . S
C1227 C1226 1.414 . S
C1227 C1228 1.374 . S
C1228 H1202 0.950 . S
C1228 C1224 1.385 . S
C1228 C1227 1.374 . S
C1229 C1226 1.499 . S
C1229 C1230 1.373 . S
C1229 C1231 1.389 . S
C1230 H1203 0.950 . S
C1230 C1216 1.377 . S
C1230 C1229 1.373 . S
C1231 C1215 1.377 . S
C1231 C1229 1.389 . S
C1231 C1232 1.524 . S
C1232 C1231 1.524 . S
C1232 C1233 1.397 . S
C1232 C1237 1.363 . S
C1233 H1204 0.950 . S
C1233 C1232 1.397 . S
C1233 C1234 1.334 . S
C1234 H1205 0.950 1_455 S
C1234 C1233 1.334 . S
C1234 C1235 1.287 . S
C1235 C1234 1.287 . S
C1235 C1236 1.524 . S
C1235 H1238 0.999 1_455 S
C1236 H1206 0.950 . S
C1236 C1235 1.524 . S
C1236 C1237 1.415 . S
C1237 H1207 0.950 . S
C1237 C1232 1.363 . S
C1237 C1236 1.415 . S
H1238 C1235 0.999 1_655 S
H1239 C1220 0.913 . S
H1240 C1258 0.951 . S
H1241 C1260 0.951 . S
H1242 C1262 0.950 . S
H1243 C1263 0.950 . S
H1244 C1265 0.950 . S
H1245 C1268 0.950 . S
H1246 C1269 0.950 . S
H1247 C1271 0.950 . S
H1248 C1272 0.950 . S
H1249 C1273 0.951 . S
H1250 C1275 0.951 . S
H1251 C1277 0.950 . S
H1252 C1278 0.950 . S
H1253 C1280 0.950 . S
H1254 C1283 0.950 . S
H1255 C1284 0.950 . S
H1256 C1286 0.950 . S
H1257 C1287 0.950 . S
C1258 H1240 0.951 . S
C1258 C1259 1.366 . S
C1258 C1260 1.388 . S
C1259 C1258 1.366 . S
C1259 C1263 1.385 . S
C1260 H1241 0.951 . S
C1260 C1258 1.388 . S
C1260 C1261 1.366 . S
C1261 C1260 1.366 . S
C1261 C1262 1.414 . S
C1261 C1264 1.499 . S
C1262 H1242 0.950 . S
C1262 C1261 1.414 . S
C1262 C1263 1.374 . S
C1263 H1243 0.950 . S
C1263 C1259 1.385 . S
C1263 C1262 1.374 . S
C1264 C1261 1.499 . S
C1264 C1265 1.373 . S
C1264 C1266 1.389 . S
C1265 H1244 0.950 . S
C1265 C1264 1.373 . S
C1265 C1281 1.377 . S
C1266 C1264 1.389 . S
C1266 C1267 1.524 . S
C1266 C1280 1.377 . S
C1267 C1266 1.524 . S
C1267 C1268 1.397 . S
C1267 C1272 1.363 . S
C1268 H1245 0.950 . S
C1268 C1267 1.397 . S
C1268 C1269 1.334 . S
C1269 H1246 0.950 . S
C1269 C1268 1.334 . S
C1269 C1270 1.287 . S
C1270 C1269 1.287 . S
C1270 C1271 1.524 . S
C1270 H1289 0.913 . S
C1271 H1247 0.950 . S
C1271 C1270 1.524 . S
C1271 C1272 1.415 . S
C1272 H1248 0.950 . S
C1272 C1267 1.363 . S
C1272 C1271 1.415 . S
C1273 H1249 0.951 . S
C1273 C1274 1.366 . S
C1273 C1275 1.388 . S
C1274 C1273 1.366 . S
C1274 C1278 1.385 . S
C1275 H1250 0.951 . S
C1275 C1273 1.388 . S
C1275 C1276 1.366 . S
C1276 C1275 1.366 . S
C1276 C1277 1.414 . S
C1276 C1279 1.499 . S
C1277 H1251 0.950 . S
C1277 C1276 1.414 . S
C1277 C1278 1.374 . S
C1278 H1252 0.950 . S
C1278 C1274 1.385 . S
C1278 C1277 1.374 . S
C1279 C1276 1.499 . S
C1279 C1280 1.373 . S
C1279 C1281 1.389 . S
C1280 H1253 0.950 . S
C1280 C1266 1.377 . S
C1280 C1279 1.373 . S
C1281 C1265 1.377 . S
C1281 C1279 1.389 . S
C1281 C1282 1.524 . S
C1282 C1281 1.524 . S
C1282 C1283 1.397 . S
C1282 C1287 1.363 . S
C1283 H1254 0.950 . S
C1283 C1282 1.397 . S
C1283 C1284 1.334 1_455 S
C1284 H1255 0.950 . S
C1284 C1283 1.334 1_655 S
C1284 C1285 1.287 . S
C1285 C1284 1.287 . S
C1285 C1286 1.524 . S
C1285 H1288 0.999 . S
C1286 H1256 0.950 . S
C1286 C1285 1.524 . S
C1286 C1287 1.415 1_655 S
C1287 H1257 0.950 . S
C1287 C1282 1.363 . S
C1287 C1286 1.415 1_455 S
H1288 C1285 0.999 . S
H1289 C1270 0.913 . S
H1290 C1308 0.951 . S
H1291 C1310 0.951 . S
H1292 C1312 0.950 . S
H1293 C1313 0.950 . S
H1294 C1315 0.950 . S
H1295 C1318 0.950 . S
H1296 C1319 0.950 . S
H1297 C1321 0.950 . S
H1298 C1322 0.950 . S
H1299 C1323 0.951 . S
H1300 C1325 0.951 . S
H1301 C1327 0.950 . S
H1302 C1328 0.950 . S
H1303 C1330 0.950 . S
H1304 C1333 0.950 . S
H1305 C1334 0.950 . S
H1306 C1336 0.950 . S
H1307 C1337 0.950 . S
C1308 H1290 0.951 . S
C1308 C1309 1.366 . S
C1308 C1310 1.388 . S
C1309 C1308 1.366 . S
C1309 C1313 1.385 . S
C1310 H1291 0.951 . S
C1310 C1308 1.388 . S
C1310 C1311 1.366 . S
C1311 C1310 1.366 . S
C1311 C1312 1.414 . S
C1311 C1314 1.499 . S
C1312 H1292 0.950 . S
C1312 C1311 1.414 . S
C1312 C1313 1.374 . S
C1313 H1293 0.950 . S
C1313 C1309 1.385 . S
C1313 C1312 1.374 . S
C1314 C1311 1.499 . S
C1314 C1315 1.373 . S
C1314 C1316 1.389 . S
C1315 H1294 0.950 . S
C1315 C1314 1.373 . S
C1315 C1331 1.377 . S
C1316 C1314 1.389 . S
C1316 C1317 1.524 . S
C1316 C1330 1.377 . S
C1317 C1316 1.524 . S
C1317 C1318 1.397 . S
C1317 C1322 1.363 . S
C1318 H1295 0.950 . S
C1318 C1317 1.397 . S
C1318 C1319 1.334 . S
C1319 H1296 0.950 . S
C1319 C1318 1.334 . S
C1319 C1320 1.287 . S
C1320 C1319 1.287 . S
C1320 C1321 1.524 . S
C1320 H1339 0.913 . S
C1321 H1297 0.950 . S
C1321 C1320 1.524 . S
C1321 C1322 1.415 . S
C1322 H1298 0.950 . S
C1322 C1317 1.363 . S
C1322 C1321 1.415 . S
C1323 H1299 0.951 . S
C1323 C1324 1.366 . S
C1323 C1325 1.388 . S
C1324 C1323 1.366 . S
C1324 C1328 1.385 . S
C1325 H1300 0.951 . S
C1325 C1323 1.388 . S
C1325 C1326 1.366 . S
C1326 C1325 1.366 . S
C1326 C1327 1.414 . S
C1326 C1329 1.499 . S
C1327 H1301 0.950 . S
C1327 C1326 1.414 . S
C1327 C1328 1.374 . S
C1328 H1302 0.950 . S
C1328 C1324 1.385 . S
C1328 C1327 1.374 . S
C1329 C1326 1.499 . S
C1329 C1330 1.373 . S
C1329 C1331 1.389 . S
C1330 H1303 0.950 . S
C1330 C1316 1.377 . S
C1330 C1329 1.373 . S
C1331 C1315 1.377 . S
C1331 C1329 1.389 . S
C1331 C1332 1.524 . S
C1332 C1331 1.524 . S
C1332 C1333 1.397 . S
C1332 C1337 1.363 . S
C1333 H1304 0.950 . S
C1333 C1332 1.397 . S
C1333 C1334 1.334 . S
C1334 H1305 0.950 . S
C1334 C1333 1.334 . S
C1334 C1335 1.287 . S
C1335 C1334 1.287 . S
C1335 C1336 1.524 . S
C1335 H1338 0.999 . S
C1336 H1306 0.950 . S
C1336 C1335 1.524 . S
C1336 C1337 1.415 . S
C1337 H1307 0.950 . S
C1337 C1332 1.363 . S
C1337 C1336 1.415 . S
H1338 C1335 0.999 . S
H1339 C1320 0.913 . S
H1340 C1358 0.951 . S
H1341 C1360 0.951 . S
H1342 C1362 0.950 . S
H1343 C1363 0.950 . S
H1344 C1365 0.950 . S
H1345 C1368 0.950 . S
H1346 C1369 0.950 . S
H1347 C1371 0.950 . S
H1348 C1372 0.950 . S
H1349 C1373 0.951 . S
H1350 C1375 0.951 . S
H1351 C1377 0.950 . S
H1352 C1378 0.950 . S
H1353 C1380 0.950 . S
H1354 C1383 0.950 . S
H1355 C1384 0.950 . S
H1356 C1386 0.950 . S
H1357 C1387 0.950 . S
C1358 H1340 0.951 . S
C1358 C1359 1.366 . S
C1358 C1360 1.388 . S
C1359 C1358 1.366 . S
C1359 C1363 1.385 . S
C1360 H1341 0.951 . S
C1360 C1358 1.388 . S
C1360 C1361 1.366 . S
C1361 C1360 1.366 . S
C1361 C1362 1.414 . S
C1361 C1364 1.499 . S
C1362 H1342 0.950 . S
C1362 C1361 1.414 . S
C1362 C1363 1.374 . S
C1363 H1343 0.950 . S
C1363 C1359 1.385 . S
C1363 C1362 1.374 . S
C1364 C1361 1.499 . S
C1364 C1365 1.373 . S
C1364 C1366 1.389 . S
C1365 H1344 0.950 . S
C1365 C1364 1.373 . S
C1365 C1381 1.377 . S
C1366 C1364 1.389 . S
C1366 C1367 1.524 . S
C1366 C1380 1.377 . S
C1367 C1366 1.524 . S
C1367 C1368 1.397 . S
C1367 C1372 1.363 . S
C1368 H1345 0.950 . S
C1368 C1367 1.397 . S
C1368 C1369 1.334 . S
C1369 H1346 0.950 . S
C1369 C1368 1.334 . S
C1369 C1370 1.287 . S
C1370 C1369 1.287 . S
C1370 C1371 1.524 . S
C1370 H1389 0.913 . S
C1371 H1347 0.950 . S
C1371 C1370 1.524 . S
C1371 C1372 1.415 . S
C1372 H1348 0.950 . S
C1372 C1367 1.363 . S
C1372 C1371 1.415 . S
C1373 H1349 0.951 . S
C1373 C1374 1.366 . S
C1373 C1375 1.388 . S
C1374 C1373 1.366 . S
C1374 C1378 1.385 . S
C1375 H1350 0.951 . S
C1375 C1373 1.388 . S
C1375 C1376 1.366 . S
C1376 C1375 1.366 . S
C1376 C1377 1.414 . S
C1376 C1379 1.499 . S
C1377 H1351 0.950 . S
C1377 C1376 1.414 . S
C1377 C1378 1.374 . S
C1378 H1352 0.950 . S
C1378 C1374 1.385 . S
C1378 C1377 1.374 . S
C1379 C1376 1.499 . S
C1379 C1380 1.373 . S
C1379 C1381 1.389 . S
C1380 H1353 0.950 . S
C1380 C1366 1.377 . S
C1380 C1379 1.373 . S
C1381 C1365 1.377 . S
C1381 C1379 1.389 . S
C1381 C1382 1.524 . S
C1382 C1381 1.524 . S
C1382 C1383 1.397 . S
C1382 C1387 1.363 . S
C1383 H1354 0.950 . S
C1383 C1382 1.397 . S
C1383 C1384 1.334 . S
C1384 H1355 0.950 . S
C1384 C1383 1.334 . S
C1384 C1385 1.287 . S
C1385 C1384 1.287 . S
C1385 C1386 1.524 . S
C1385 H1388 0.999 . S
C1386 H1356 0.950 . S
C1386 C1385 1.524 . S
C1386 C1387 1.415 . S
C1387 H1357 0.950 . S
C1387 C1382 1.363 . S
C1387 C1386 1.415 . S
H1388 C1385 0.999 . S
H1389 C1370 0.913 . S
H1390 C1408 0.951 . S
H1391 C1410 0.951 . S
H1392 C1412 0.950 . S
H1393 C1413 0.950 . S
H1394 C1415 0.950 . S
H1395 C1418 0.950 . S
H1396 C1419 0.950 . S
H1397 C1421 0.950 . S
H1398 C1422 0.950 . S
H1399 C1423 0.951 . S
H1400 C1425 0.951 . S
H1401 C1427 0.950 . S
H1402 C1428 0.950 . S
H1403 C1430 0.950 . S
H1404 C1433 0.950 . S
H1405 C1434 0.950 . S
H1406 C1436 0.950 . S
H1407 C1437 0.950 . S
C1408 H1390 0.951 . S
C1408 C1409 1.366 . S
C1408 C1410 1.388 . S
C1409 C1408 1.366 . S
C1409 C1413 1.385 . S
C1410 H1391 0.951 . S
C1410 C1408 1.388 . S
C1410 C1411 1.366 . S
C1411 C1410 1.366 . S
C1411 C1412 1.414 . S
C1411 C1414 1.499 . S
C1412 H1392 0.950 . S
C1412 C1411 1.414 . S
C1412 C1413 1.374 . S
C1413 H1393 0.950 . S
C1413 C1409 1.385 . S
C1413 C1412 1.374 . S
C1414 C1411 1.499 . S
C1414 C1415 1.373 . S
C1414 C1416 1.389 . S
C1415 H1394 0.950 . S
C1415 C1414 1.373 . S
C1415 C1431 1.377 . S
C1416 C1414 1.389 . S
C1416 C1417 1.524 . S
C1416 C1430 1.377 . S
C1417 C1416 1.524 . S
C1417 C1418 1.397 . S
C1417 C1422 1.363 . S
C1418 H1395 0.950 . S
C1418 C1417 1.397 . S
C1418 C1419 1.334 . S
C1419 H1396 0.950 . S
C1419 C1418 1.334 . S
C1419 C1420 1.287 . S
C1420 C1419 1.287 . S
C1420 C1421 1.524 . S
C1420 H1439 0.913 . S
C1421 H1397 0.950 . S
C1421 C1420 1.524 . S
C1421 C1422 1.415 . S
C1422 H1398 0.950 . S
C1422 C1417 1.363 . S
C1422 C1421 1.415 . S
C1423 H1399 0.951 . S
C1423 C1424 1.366 . S
C1423 C1425 1.388 . S
C1424 C1423 1.366 . S
C1424 C1428 1.385 . S
C1425 H1400 0.951 . S
C1425 C1423 1.388 . S
C1425 C1426 1.366 . S
C1426 C1425 1.366 . S
C1426 C1427 1.414 . S
C1426 C1429 1.499 . S
C1427 H1401 0.950 . S
C1427 C1426 1.414 . S
C1427 C1428 1.374 . S
C1428 H1402 0.950 . S
C1428 C1424 1.385 . S
C1428 C1427 1.374 . S
C1429 C1426 1.499 . S
C1429 C1430 1.373 . S
C1429 C1431 1.389 . S
C1430 H1403 0.950 . S
C1430 C1416 1.377 . S
C1430 C1429 1.373 . S
C1431 C1415 1.377 . S
C1431 C1429 1.389 . S
C1431 C1432 1.524 . S
C1432 C1431 1.524 . S
C1432 C1433 1.397 . S
C1432 C1437 1.363 . S
C1433 H1404 0.950 . S
C1433 C1432 1.397 . S
C1433 C1434 1.334 1_655 S
C1434 H1405 0.950 . S
C1434 C1433 1.334 1_455 S
C1434 C1435 1.287 . S
C1435 C1434 1.287 . S
C1435 C1436 1.524 . S
C1435 H1438 0.999 . S
C1436 H1406 0.950 . S
C1436 C1435 1.524 . S
C1436 C1437 1.415 1_455 S
C1437 H1407 0.950 . S
C1437 C1432 1.363 . S
C1437 C1436 1.415 1_655 S
H1438 C1435 0.999 . S
H1439 C1420 0.913 . S
H1440 C1458 0.951 . S
H1441 C1460 0.951 . S
H1442 C1462 0.950 . S
H1443 C1463 0.950 . S
H1444 C1465 0.950 . S
H1445 C1468 0.950 . S
H1446 C1469 0.950 . S
H1447 C1471 0.950 . S
H1448 C1472 0.950 . S
H1449 C1473 0.951 . S
H1450 C1475 0.951 . S
H1451 C1477 0.950 . S
H1452 C1478 0.926 1_455 S
H1453 C1480 0.950 . S
H1454 C1483 0.950 . S
H1455 C1484 0.950 . S
H1456 C1486 0.950 . S
H1457 C1487 0.950 . S
C1458 H1440 0.951 . S
C1458 C1459 1.366 . S
C1458 C1460 1.388 . S
C1459 C1458 1.366 . S
C1459 C1463 1.385 . S
C1460 H1441 0.951 . S
C1460 C1458 1.388 . S
C1460 C1461 1.366 . S
C1461 C1460 1.366 . S
C1461 C1462 1.414 . S
C1461 C1464 1.499 . S
C1462 H1442 0.950 . S
C1462 C1461 1.414 . S
C1462 C1463 1.374 . S
C1463 H1443 0.950 . S
C1463 C1459 1.385 . S
C1463 C1462 1.374 . S
C1464 C1461 1.499 . S
C1464 C1465 1.373 . S
C1464 C1466 1.389 . S
C1465 H1444 0.950 . S
C1465 C1464 1.373 . S
C1465 C1481 1.377 . S
C1466 C1464 1.389 . S
C1466 C1467 1.524 . S
C1466 C1480 1.377 . S
C1467 C1466 1.524 . S
C1467 C1468 1.397 . S
C1467 C1472 1.363 . S
C1468 H1445 0.950 . S
C1468 C1467 1.397 . S
C1468 C1469 1.334 . S
C1469 H1446 0.950 . S
C1469 C1468 1.334 . S
C1469 C1470 1.287 . S
C1470 C1469 1.287 . S
C1470 C1471 1.524 . S
C1470 H1489 0.913 . S
C1471 H1447 0.950 . S
C1471 C1470 1.524 . S
C1471 C1472 1.415 . S
C1472 H1448 0.950 . S
C1472 C1467 1.363 . S
C1472 C1471 1.415 . S
C1473 H1449 0.951 . S
C1473 C1474 1.366 . S
C1473 C1475 1.388 . S
C1474 C1473 1.366 . S
C1474 C1478 1.385 . S
C1475 H1450 0.951 . S
C1475 C1473 1.388 . S
C1475 C1476 1.366 . S
C1476 C1475 1.366 . S
C1476 C1477 1.414 . S
C1476 C1479 1.499 . S
C1477 H1451 0.950 . S
C1477 C1476 1.414 . S
C1477 C1478 1.374 . S
C1478 H1452 0.926 1_655 S
C1478 C1474 1.385 . S
C1478 C1477 1.374 . S
C1479 C1476 1.499 . S
C1479 C1480 1.373 . S
C1479 C1481 1.389 . S
C1480 H1453 0.950 . S
C1480 C1466 1.377 . S
C1480 C1479 1.373 . S
C1481 C1465 1.377 . S
C1481 C1479 1.389 . S
C1481 C1482 1.524 . S
C1482 C1481 1.524 . S
C1482 C1483 1.397 . S
C1482 C1487 1.363 . S
C1483 H1454 0.950 . S
C1483 C1482 1.397 . S
C1483 C1484 1.334 . S
C1484 H1455 0.950 . S
C1484 C1483 1.334 . S
C1484 C1485 1.287 . S
C1485 C1484 1.287 . S
C1485 C1486 1.524 . S
C1485 H1488 0.999 . S
C1486 H1456 0.950 . S
C1486 C1485 1.524 . S
C1486 C1487 1.415 . S
C1487 H1457 0.950 . S
C1487 C1482 1.363 . S
C1487 C1486 1.415 . S
H1488 C1485 0.999 . S
H1489 C1470 0.913 . S
H1490 C1508 0.951 . S
H1491 C1510 0.951 . S
H1492 C1512 0.950 . S
H1493 C1513 0.950 . S
H1494 C1515 0.950 . S
H1495 C1518 0.950 . S
H1496 C1519 0.950 . S
H1497 C1521 0.950 . S
H1498 C1522 0.950 . S
H1499 C1523 0.951 . S
H1500 C1525 0.951 . S
H1501 C1527 0.950 . S
H1502 C1528 0.950 . S
H1503 C1530 0.950 . S
H1504 C1533 0.950 . S
H1505 C1534 0.950 . S
H1506 C1536 0.950 . S
H1507 C1537 0.950 . S
C1508 H1490 0.951 . S
C1508 C1509 1.366 . S
C1508 C1510 1.388 . S
C1509 C1508 1.366 . S
C1509 C1513 1.385 . S
C1510 H1491 0.951 . S
C1510 C1508 1.388 . S
C1510 C1511 1.366 . S
C1511 C1510 1.366 . S
C1511 C1512 1.414 . S
C1511 C1514 1.499 . S
C1512 H1492 0.950 . S
C1512 C1511 1.414 . S
C1512 C1513 1.374 . S
C1513 H1493 0.950 . S
C1513 C1509 1.385 . S
C1513 C1512 1.374 . S
C1514 C1511 1.499 . S
C1514 C1515 1.373 . S
C1514 C1516 1.389 . S
C1515 H1494 0.950 . S
C1515 C1514 1.373 . S
C1515 C1531 1.377 . S
C1516 C1514 1.389 . S
C1516 C1517 1.524 . S
C1516 C1530 1.377 . S
C1517 C1516 1.524 . S
C1517 C1518 1.397 . S
C1517 C1522 1.363 . S
C1518 H1495 0.950 . S
C1518 C1517 1.397 . S
C1518 C1519 1.334 . S
C1519 H1496 0.950 . S
C1519 C1518 1.334 . S
C1519 C1520 1.287 . S
C1520 C1519 1.287 . S
C1520 C1521 1.524 . S
C1520 H1539 0.913 . S
C1521 H1497 0.950 . S
C1521 C1520 1.524 . S
C1521 C1522 1.415 . S
C1522 H1498 0.950 . S
C1522 C1517 1.363 . S
C1522 C1521 1.415 . S
C1523 H1499 0.951 . S
C1523 C1524 1.366 . S
C1523 C1525 1.388 . S
C1524 C1523 1.366 . S
C1524 C1528 1.385 . S
C1525 H1500 0.951 . S
C1525 C1523 1.388 . S
C1525 C1526 1.366 . S
C1526 C1525 1.366 . S
C1526 C1527 1.414 . S
C1526 C1529 1.499 . S
C1527 H1501 0.950 . S
C1527 C1526 1.414 . S
C1527 C1528 1.374 . S
C1528 H1502 0.950 . S
C1528 C1524 1.385 . S
C1528 C1527 1.374 . S
C1529 C1526 1.499 . S
C1529 C1530 1.373 . S
C1529 C1531 1.389 . S
C1530 H1503 0.950 . S
C1530 C1516 1.377 . S
C1530 C1529 1.373 . S
C1531 C1515 1.377 . S
C1531 C1529 1.389 . S
C1531 C1532 1.524 . S
C1532 C1531 1.524 . S
C1532 C1533 1.397 . S
C1532 C1537 1.363 . S
C1533 H1504 0.950 . S
C1533 C1532 1.397 . S
C1533 C1534 1.334 . S
C1534 H1505 0.950 . S
C1534 C1533 1.334 . S
C1534 C1535 1.287 . S
C1535 C1534 1.287 . S
C1535 C1536 1.524 . S
C1535 H1538 0.999 . S
C1536 H1506 0.950 . S
C1536 C1535 1.524 . S
C1536 C1537 1.415 . S
C1537 H1507 0.950 . S
C1537 C1532 1.363 . S
C1537 C1536 1.415 . S
H1538 C1535 0.999 . S
H1539 C1520 0.913 . S
H1540 C1558 0.951 . S
H1541 C1560 0.951 . S
H1542 C1562 0.950 . S
H1543 C1563 0.950 . S
H1544 C1565 0.950 . S
H1545 C1568 0.950 . S
H1546 C1569 0.950 . S
H1547 C1571 0.950 . S
H1548 C1572 0.950 . S
H1549 C1573 0.951 . S
H1550 C1575 0.951 . S
H1551 C1577 0.950 . S
H1552 C1578 0.950 . S
H1553 C1580 0.950 . S
H1554 C1583 0.950 . S
H1555 C1584 0.950 . S
H1556 C1586 0.950 . S
H1557 C1587 0.950 . S
C1558 H1540 0.951 . S
C1558 C1559 1.366 . S
C1558 C1560 1.388 . S
C1559 C1558 1.366 . S
C1559 C1563 1.385 . S
C1560 H1541 0.951 . S
C1560 C1558 1.388 . S
C1560 C1561 1.366 . S
C1561 C1560 1.366 . S
C1561 C1562 1.414 . S
C1561 C1564 1.499 . S
C1562 H1542 0.950 . S
C1562 C1561 1.414 . S
C1562 C1563 1.374 . S
C1563 H1543 0.950 . S
C1563 C1559 1.385 . S
C1563 C1562 1.374 . S
C1564 C1561 1.499 . S
C1564 C1565 1.373 . S
C1564 C1566 1.389 . S
C1565 H1544 0.950 . S
C1565 C1564 1.373 . S
C1565 C1581 1.377 . S
C1566 C1564 1.389 . S
C1566 C1567 1.524 . S
C1566 C1580 1.377 . S
C1567 C1566 1.524 . S
C1567 C1568 1.397 . S
C1567 C1572 1.363 . S
C1568 H1545 0.950 . S
C1568 C1567 1.397 . S
C1568 C1569 1.334 . S
C1569 H1546 0.950 . S
C1569 C1568 1.334 . S
C1569 C1570 1.287 . S
C1570 C1569 1.287 . S
C1570 C1571 1.524 . S
C1570 H1589 0.913 . S
C1571 H1547 0.950 . S
C1571 C1570 1.524 . S
C1571 C1572 1.415 . S
C1572 H1548 0.950 . S
C1572 C1567 1.363 . S
C1572 C1571 1.415 . S
C1573 H1549 0.951 . S
C1573 C1574 1.366 . S
C1573 C1575 1.388 . S
C1574 C1573 1.366 . S
C1574 C1578 1.385 . S
C1575 H1550 0.951 . S
C1575 C1573 1.388 . S
C1575 C1576 1.366 . S
C1576 C1575 1.366 . S
C1576 C1577 1.414 . S
C1576 C1579 1.499 . S
C1577 H1551 0.950 . S
C1577 C1576 1.414 . S
C1577 C1578 1.374 . S
C1578 H1552 0.950 . S
C1578 C1574 1.385 . S
C1578 C1577 1.374 . S
C1579 C1576 1.499 . S
C1579 C1580 1.373 . S
C1579 C1581 1.389 . S
C1580 H1553 0.950 . S
C1580 C1566 1.377 . S
C1580 C1579 1.373 . S
C1581 C1565 1.377 . S
C1581 C1579 1.389 . S
C1581 C1582 1.524 . S
C1582 C1581 1.524 . S
C1582 C1583 1.397 . S
C1582 C1587 1.363 . S
C1583 H1554 0.950 . S
C1583 C1582 1.397 . S
C1583 C1584 1.334 . S
C1584 H1555 0.950 . S
C1584 C1583 1.334 . S
C1584 C1585 1.287 . S
C1585 C1584 1.287 . S
C1585 C1586 1.524 . S
C1585 H1588 0.999 . S
C1586 H1556 0.950 . S
C1586 C1585 1.524 . S
C1586 C1587 1.415 . S
C1587 H1557 0.950 . S
C1587 C1582 1.363 . S
C1587 C1586 1.415 . S
H1588 C1585 0.999 . S
H1589 C1570 0.913 . S
H1590 C1608 0.951 . S
H1591 C1610 0.951 . S
H1592 C1612 0.950 . S
H1593 C1613 0.950 . S
H1594 C1615 0.950 . S
H1595 C1618 0.950 . S
H1596 C1619 0.950 . S
H1597 C1621 0.950 . S
H1598 C1622 0.950 . S
H1599 C1623 0.951 . S
H1600 C1625 0.951 . S
H1601 C1627 0.950 . S
H1602 C1628 0.950 . S
H1603 C1630 0.950 . S
H1604 C1633 0.950 . S
H1605 C1634 0.950 . S
H1606 C1636 0.950 . S
H1607 C1637 0.950 . S
C1608 H1590 0.951 . S
C1608 C1609 1.366 . S
C1608 C1610 1.388 . S
C1609 C1608 1.366 . S
C1609 C1613 1.385 . S
C1610 H1591 0.951 . S
C1610 C1608 1.388 . S
C1610 C1611 1.366 . S
C1611 C1610 1.366 . S
C1611 C1612 1.414 . S
C1611 C1614 1.499 . S
C1612 H1592 0.950 . S
C1612 C1611 1.414 . S
C1612 C1613 1.374 . S
C1613 H1593 0.950 . S
C1613 C1609 1.385 . S
C1613 C1612 1.374 . S
C1614 C1611 1.499 . S
C1614 C1615 1.373 . S
C1614 C1616 1.389 . S
C1615 H1594 0.950 . S
C1615 C1614 1.373 . S
C1615 C1631 1.377 . S
C1616 C1614 1.389 . S
C1616 C1617 1.524 . S
C1616 C1630 1.377 . S
C1617 C1616 1.524 . S
C1617 C1618 1.397 . S
C1617 C1622 1.363 . S
C1618 H1595 0.950 . S
C1618 C1617 1.397 . S
C1618 C1619 1.334 . S
C1619 H1596 0.950 . S
C1619 C1618 1.334 . S
C1619 C1620 1.287 . S
C1620 C1619 1.287 . S
C1620 C1621 1.524 . S
C1620 H1639 0.913 . S
C1621 H1597 0.950 . S
C1621 C1620 1.524 . S
C1621 C1622 1.415 . S
C1622 H1598 0.950 . S
C1622 C1617 1.363 . S
C1622 C1621 1.415 . S
C1623 H1599 0.951 . S
C1623 C1624 1.366 . S
C1623 C1625 1.388 . S
C1624 C1623 1.366 . S
C1624 C1628 1.385 . S
C1625 H1600 0.951 . S
C1625 C1623 1.388 . S
C1625 C1626 1.366 . S
C1626 C1625 1.366 . S
C1626 C1627 1.414 . S
C1626 C1629 1.499 . S
C1627 H1601 0.950 . S
C1627 C1626 1.414 . S
C1627 C1628 1.374 . S
C1628 H1602 0.950 . S
C1628 C1624 1.385 . S
C1628 C1627 1.374 . S
C1629 C1626 1.499 . S
C1629 C1630 1.373 . S
C1629 C1631 1.389 . S
C1630 H1603 0.950 . S
C1630 C1616 1.377 . S
C1630 C1629 1.373 . S
C1631 C1615 1.377 . S
C1631 C1629 1.389 . S
C1631 C1632 1.524 . S
C1632 C1631 1.524 . S
C1632 C1633 1.397 . S
C1632 C1637 1.363 . S
C1633 H1604 0.950 . S
C1633 C1632 1.397 . S
C1633 C1634 1.334 . S
C1634 H1605 0.950 . S
C1634 C1633 1.334 . S
C1634 C1635 1.287 . S
C1635 C1634 1.287 . S
C1635 C1636 1.524 . S
C1635 H1638 0.999 . S
C1636 H1606 0.950 . S
C1636 C1635 1.524 . S
C1636 C1637 1.415 . S
C1637 H1607 0.950 . S
C1637 C1632 1.363 . S
C1637 C1636 1.415 . S
H1638 C1635 0.999 . S
H1639 C1620 0.913 . S
C459 N83 1.659 . S
C474 C160 1.655 . S
C524 C244 1.655 . S
C509 N96 1.659 . S
C574 C243 1.669 . S
C559 N57 1.647 . S
C609 N70 1.646 . S
C624 C159 1.669 . S
C674 C340 1.655 . S
C659 N31 1.660 . S
C724 C424 1.655 . S
C709 N44 1.661 . S
C759 N5 1.648 . S
C774 C423 1.669 . S
C809 N18 1.648 . S
C824 C339 1.669 . S
C874 C162 1.466 . S
C859 N14 1.629 . S
C924 C246 1.466 . S
C909 N1 1.629 . S
C974 C258 1.419 . S
C959 N40 1.636 . S
C1024 C174 1.419 . S
C1009 N27 1.636 . S
C1074 C342 1.466 . S
C1059 N66 1.620 . S
C1109 N53 1.620 . S
C1124 C426 1.466 . S
C1174 C414 1.419 . S
C1159 N92 1.629 . S
C1209 N79 1.629 . S
C1224 C330 1.418 . S
C1274 C171 1.569 . S
C1259 N2 1.570 . S
C1324 C255 1.569 . S
C1309 N15 1.570 . S
C1359 N28 1.566 . S
C1374 C256 1.538 . S
C1424 C172 1.538 . S
C1409 N41 1.566 . S
C1474 C327 1.570 . S
C1459 N54 1.565 . S
C1509 N67 1.565 . S
C1524 C411 1.569 . S
C1559 N80 1.562 . S
C1574 C412 1.538 . S
C1609 N93 1.561 . S
C1624 C328 1.538 . S
