# Generated by pormake.
# Topology the, (3,8)-cn, num edge types: 1
# Building blocks:
#     Node 0, Type 0, BuildingBlock: QEWDON_clean_linker_0, # of connection points: 3
#     Node 1, Type 0, BuildingBlock: QEWDON_clean_linker_0, # of connection points: 3
#     Node 2, Type 0, BuildingBlock: QEWDON_clean_linker_0, # of connection points: 3
#     Node 3, Type 0, BuildingBlock: QEWDON_clean_linker_0, # of connection points: 3
#     Node 4, Type 0, BuildingBlock: QEWDON_clean_linker_0, # of connection points: 3
#     Node 5, Type 0, BuildingBlock: QEWDON_clean_linker_0, # of connection points: 3
#     Node 6, Type 0, BuildingBlock: QEWDON_clean_linker_0, # of connection points: 3
#     Node 7, Type 0, BuildingBlock: QEWDON_clean_linker_0, # of connection points: 3
#     Node 8, Type 1, BuildingBlock: GIZVER_clean_sbu_0, # of connection points: 8
#     Node 9, Type 1, BuildingBlock: GIZVER_clean_sbu_0, # of connection points: 8
#     Node 10, Type 1, BuildingBlock: GIZVER_clean_sbu_0, # of connection points: 8
#     Edge 11, Type (0, 1), BuildingBlock: CIFDUS_clean_linker_0, # of connection points: 2
#     Edge 12, Type (0, 1), BuildingBlock: CIFDUS_clean_linker_0, # of connection points: 2
#     Edge 13, Type (0, 1), BuildingBlock: CIFDUS_clean_linker_0, # of connection points: 2
#     Edge 14, Type (0, 1), BuildingBlock: CIFDUS_clean_linker_0, # of connection points: 2
#     Edge 15, Type (0, 1), BuildingBlock: CIFDUS_clean_linker_0, # of connection points: 2
#     Edge 16, Type (0, 1), BuildingBlock: CIFDUS_clean_linker_0, # of connection points: 2
#     Edge 17, Type (0, 1), BuildingBlock: CIFDUS_clean_linker_0, # of connection points: 2
#     Edge 18, Type (0, 1), BuildingBlock: CIFDUS_clean_linker_0, # of connection points: 2
#     Edge 19, Type (0, 1), BuildingBlock: CIFDUS_clean_linker_0, # of connection points: 2
#     Edge 20, Type (0, 1), BuildingBlock: CIFDUS_clean_linker_0, # of connection points: 2
#     Edge 21, Type (0, 1), BuildingBlock: CIFDUS_clean_linker_0, # of connection points: 2
#     Edge 22, Type (0, 1), BuildingBlock: CIFDUS_clean_linker_0, # of connection points: 2
#     Edge 23, Type (0, 1), BuildingBlock: CIFDUS_clean_linker_0, # of connection points: 2
#     Edge 24, Type (0, 1), BuildingBlock: CIFDUS_clean_linker_0, # of connection points: 2
#     Edge 25, Type (0, 1), BuildingBlock: CIFDUS_clean_linker_0, # of connection points: 2
#     Edge 26, Type (0, 1), BuildingBlock: CIFDUS_clean_linker_0, # of connection points: 2
#     Edge 27, Type (0, 1), BuildingBlock: CIFDUS_clean_linker_0, # of connection points: 2
#     Edge 28, Type (0, 1), BuildingBlock: CIFDUS_clean_linker_0, # of connection points: 2
#     Edge 29, Type (0, 1), BuildingBlock: CIFDUS_clean_linker_0, # of connection points: 2
#     Edge 30, Type (0, 1), BuildingBlock: CIFDUS_clean_linker_0, # of connection points: 2
#     Edge 31, Type (0, 1), BuildingBlock: CIFDUS_clean_linker_0, # of connection points: 2
#     Edge 32, Type (0, 1), BuildingBlock: CIFDUS_clean_linker_0, # of connection points: 2
#     Edge 33, Type (0, 1), BuildingBlock: CIFDUS_clean_linker_0, # of connection points: 2
#     Edge 34, Type (0, 1), BuildingBlock: CIFDUS_clean_linker_0, # of connection points: 2
# Relax obj value: 0.102
# Max RMSD: 0.271
# Mean RMSD: 0.179
data_MOF--net-the--node1-GIZVER_clean_sbu_0--node2-QEWDON_clean_linker_0--edge1-CIFDUS_clean_linker_0
_symmetry_space_group_name_H-M    P1
_symmetry_Int_Tables_number       1
_symmetry_cell_setting            triclinic
loop_
_symmetry_equiv_pos_as_xyz
'x, y, z'
_cell_length_a     36.725659
_cell_length_b     34.393027
_cell_length_c     33.265733
_cell_angle_alpha  87.035004
_cell_angle_beta   94.822056
_cell_angle_gamma 112.91309
loop_
_atom_site_label
_atom_site_type_symbol
_atom_site_fract_x
_atom_site_fract_y
_atom_site_fract_z
_atom_type_partial_charge
H0 H 0.3593 0.22888 0.42512 0.0
C1 C 0.37003 0.24738 0.39805 0.0
C2 C 0.40639 0.25099 0.38423 0.0
C3 C 0.34646 0.26615 0.37667 0.0
H4 H 0.44701 0.2777 0.33713 0.0
C5 C 0.41963 0.27543 0.34895 0.0
C6 C 0.39596 0.29441 0.32722 0.0
C7 C 0.35956 0.28979 0.34146 0.0
C8 C 0.30587 0.2561 0.38829 0.0
H9 H 0.34067 0.30317 0.3242 0.0
C10 C 0.29451 0.28752 0.40178 0.0
C11 C 0.25541 0.2772 0.41256 0.0
C12 C 0.27821 0.21434 0.38551 0.0
H13 H 0.28656 0.1898 0.37514 0.0
C14 C 0.2394 0.20404 0.39531 0.0
H15 H 0.31633 0.31952 0.40465 0.0
C16 C 0.22794 0.23514 0.40845 0.0
H17 H 0.19729 0.22613 0.41491 0.0
H18 H 0.21802 0.17186 0.39248 0.0
H19 H 0.81521 0.35996 0.33256 0.0
C20 C 0.79406 0.32764 0.3352 0.0
C21 C 0.80557 0.29814 0.3572 0.0
C22 C 0.75467 0.31714 0.32028 0.0
H23 H 0.78847 0.23399 0.37704 0.0
C24 C 0.77841 0.25647 0.36083 0.0
C25 C 0.73831 0.24499 0.34688 0.0
C26 C 0.72689 0.27576 0.32607 0.0
C27 C 0.74219 0.35109 0.30329 0.0
H28 H 0.69602 0.26875 0.317 0.0
C29 C 0.71681 0.34499 0.26804 0.0
C30 C 0.70747 0.3785 0.25115 0.0
C31 C 0.75658 0.39051 0.3222 0.0
H32 H 0.77526 0.39581 0.35002 0.0
C33 C 0.747 0.42359 0.30553 0.0
H34 H 0.70537 0.31486 0.25315 0.0
C35 C 0.72283 0.41779 0.26999 0.0
H36 H 0.71563 0.44385 0.25742 0.0
H37 H 0.75837 0.4538 0.32019 0.0
H38 H 0.83442 0.71693 0.38484 0.0
C39 C 0.81647 0.70431 0.35737 0.0
C40 C 0.81633 0.66725 0.34118 0.0
C41 C 0.79368 0.72552 0.33833 0.0
H42 H 0.79492 0.62495 0.29117 0.0
C43 C 0.79353 0.65225 0.30471 0.0
C44 C 0.77037 0.67306 0.2849 0.0
C45 C 0.77037 0.7095 0.30267 0.0
C46 C 0.79919 0.76788 0.35213 0.0
H47 H 0.75298 0.72627 0.28844 0.0
C48 C 0.77074 0.77484 0.37364 0.0
C49 C 0.77711 0.81612 0.38571 0.0
C50 C 0.83379 0.8021 0.3427 0.0
H51 H 0.85589 0.79736 0.32618 0.0
C52 C 0.83993 0.84277 0.35375 0.0
H53 H 0.74433 0.7482 0.38139 0.0
C54 C 0.81188 0.84983 0.37474 0.0
H55 H 0.81737 0.88208 0.38183 0.0
H56 H 0.86649 0.86906 0.34574 0.0
H57 H 0.41256 0.76467 0.31374 0.0
C58 C 0.38521 0.74454 0.32673 0.0
C59 C 0.37814 0.75163 0.36603 0.0
C60 C 0.35707 0.71171 0.30389 0.0
H61 H 0.33752 0.73049 0.41281 0.0
C62 C 0.34246 0.72524 0.3823 0.0
C63 C 0.313 0.69315 0.35933 0.0
C64 C 0.32096 0.68663 0.31997 0.0
C65 C 0.36346 0.70707 0.26137 0.0
H66 H 0.29865 0.66328 0.3009 0.0
C67 C 0.37351 0.67393 0.24935 0.0
C68 C 0.37933 0.67037 0.20843 0.0
C69 C 0.35936 0.73649 0.23249 0.0
H70 H 0.35172 0.76214 0.24124 0.0
C71 C 0.36484 0.73299 0.19211 0.0
H72 H 0.37677 0.65122 0.27168 0.0
C73 C 0.37475 0.70031 0.18012 0.0
H74 H 0.37967 0.69902 0.14865 0.0
H75 H 0.36165 0.75588 0.17001 0.0
H76 H 0.43255 0.72701 0.73401 0.0
C77 C 0.4007 0.71564 0.72786 0.0
C78 C 0.38355 0.74157 0.70648 0.0
C79 C 0.37733 0.67335 0.73728 0.0
H80 H 0.32882 0.74379 0.67884 0.0
C81 C 0.34249 0.72477 0.696 0.0
C82 C 0.31919 0.68247 0.70466 0.0
C83 C 0.33655 0.65734 0.72624 0.0
C84 C 0.39584 0.64306 0.75006 0.0
H85 H 0.31904 0.62403 0.73115 0.0
C86 C 0.41428 0.64325 0.78899 0.0
C87 C 0.4279 0.61104 0.80093 0.0
C88 C 0.39267 0.61167 0.72298 0.0
H89 H 0.37873 0.61115 0.69286 0.0
C90 C 0.40696 0.58046 0.73453 0.0
H91 H 0.41666 0.66718 0.81017 0.0
C92 C 0.42418 0.57989 0.77334 0.0
H93 H 0.43486 0.55514 0.78186 0.0
H94 H 0.40431 0.55639 0.71347 0.0
H95 H 0.3902 0.32693 0.77447 0.0
C96 C 0.40295 0.30939 0.75813 0.0
C97 C 0.44313 0.31602 0.76593 0.0
C98 C 0.37895 0.28018 0.72934 0.0
H99 H 0.48982 0.29739 0.75034 0.0
C100 C 0.45904 0.29289 0.74402 0.0
C101 C 0.43539 0.26333 0.71482 0.0
C102 C 0.39513 0.25711 0.70809 0.0
C103 C 0.33607 0.27134 0.72377 0.0
H104 H 0.3763 0.2348 0.68585 0.0
C105 C 0.32182 0.2997 0.70246 0.0
C106 C 0.28071 0.29122 0.69856 0.0
C107 C 0.30925 0.23436 0.741 0.0
H108 H 0.31971 0.21227 0.75749 0.0
C109 C 0.26885 0.22602 0.73789 0.0
H110 H 0.34275 0.32777 0.68855 0.0
C111 C 0.25468 0.2542 0.71723 0.0
H112 H 0.22322 0.24705 0.71649 0.0
H113 H 0.2484 0.1977 0.7519 0.0
H114 H 0.85867 0.34553 0.77703 0.0
C115 C 0.84044 0.31808 0.75958 0.0
C116 C 0.84788 0.31534 0.7193 0.0
C117 C 0.80954 0.28561 0.77772 0.0
H118 H 0.82807 0.27765 0.66566 0.0
C119 C 0.82344 0.27958 0.69713 0.0
C120 C 0.79221 0.24681 0.71509 0.0
C121 C 0.78594 0.24982 0.7557 0.0
C122 C 0.79972 0.29082 0.8186 0.0
H123 H 0.76124 0.22544 0.76956 0.0
C124 C 0.78517 0.32192 0.82527 0.0
C125 C 0.77405 0.32637 0.86364 0.0
C126 C 0.80363 0.26425 0.85058 0.0
H127 H 0.8146 0.23993 0.84579 0.0
C128 C 0.79361 0.26918 0.88904 0.0
H129 H 0.78194 0.3422 0.80034 0.0
C130 C 0.77887 0.3 0.89563 0.0
H131 H 0.77024 0.30242 0.92544 0.0
H132 H 0.79678 0.24871 0.91372 0.0
H133 H 0.87504 0.73263 0.64469 0.0
C134 C 0.855 0.71219 0.66612 0.0
C135 C 0.85322 0.67091 0.6736 0.0
C136 C 0.83342 0.72848 0.68799 0.0
H137 H 0.82821 0.61414 0.71019 0.0
C138 C 0.82846 0.64532 0.70293 0.0
C139 C 0.80711 0.66175 0.72563 0.0
C140 C 0.80936 0.70314 0.71741 0.0
C141 C 0.84273 0.77428 0.68618 0.0
H142 H 0.79414 0.71653 0.73561 0.0
C143 C 0.81636 0.79119 0.66687 0.0
C144 C 0.82631 0.83527 0.66601 0.0
C145 C 0.87883 0.8013 0.70473 0.0
H146 H 0.89936 0.78869 0.71975 0.0
C147 C 0.88851 0.84463 0.70464 0.0
H148 H 0.78877 0.77018 0.65209 0.0
C149 C 0.86249 0.86151 0.6857 0.0
H150 H 0.87065 0.89528 0.687 0.0
H151 H 0.9162 0.86522 0.71951 0.0
Co152 Co 0.13529 0.45681 0.54935 0.0
Co153 Co 0.09857 0.44046 0.47828 0.0
Co154 Co 0.06778 0.50047 0.51779 0.0
O155 O 0.08437 0.45188 0.52626 0.0
H156 H 0.0635 0.42681 0.53598 0.0
O157 O 0.04855 0.54791 0.51028 0.0
Co158 Co 0.99443 0.53758 0.4888 0.0
Co159 Co 0.0315 0.55579 0.55929 0.0
H160 H 0.06824 0.57366 0.50008 0.0
O161 O 0.09682 0.38797 0.46879 0.0
O162 O 0.14878 0.44337 0.49592 0.0
O163 O 0.1032 0.48032 0.43475 0.0
O164 O 0.10783 0.53082 0.4762 0.0
O165 O 0.02889 0.46886 0.4744 0.0
O166 O 0.94697 0.53322 0.46699 0.0
O167 O 1.00229 0.59207 0.4747 0.0
O168 O 0.97859 0.47817 0.49832 0.0
O169 O 0.02846 0.4693 0.55889 0.0
O170 O 0.03006 0.51609 0.60296 0.0
O171 O 0.97875 0.54524 0.54326 0.0
O172 O 0.02503 0.60424 0.57094 0.0
C173 C 0.15878 0.41649 0.57879 0.0
C174 C 0.14505 0.53983 0.55779 0.0
C175 C 0.1156 0.51908 0.44309 0.0
C176 C 0.134 0.4054 0.4812 0.0
C177 C 0.96509 0.57375 0.4615 0.0
C178 C 0.9919 0.45815 0.47635 0.0
C179 C 0.02097 0.47818 0.5932 0.0
C180 C 0.98807 0.58096 0.56153 0.0
O181 O 0.1809 0.45615 0.57278 0.0
O182 O 0.12154 0.40223 0.56541 0.0
O183 O 0.10842 0.53237 0.5606 0.0
O184 O 0.15585 0.51597 0.5377 0.0
Co185 Co 0.61341 0.93322 0.53166 0.0
Co186 Co 0.62852 0.96692 0.60228 0.0
Co187 Co 0.57091 1.00339 0.55077 0.0
O188 O 0.6167 0.98564 0.55193 0.0
H189 H 0.6402 0.00866 0.54358 0.0
O190 O 0.52603 0.02334 0.5495 0.0
Co191 Co 0.5357 0.08033 0.56604 0.0
Co192 Co 0.51609 0.04216 0.49808 0.0
H193 H 0.50227 1.00219 0.5596 0.0
O194 O 0.67882 0.96893 0.61708 0.0
O195 O 0.6278 0.91546 0.5868 0.0
O196 O 0.5899 0.95575 0.6413 0.0
O197 O 0.54452 0.96419 0.5967 0.0
O198 O 0.60354 0.04931 0.58865 0.0
O199 O 0.54076 0.13042 0.58352 0.0
O200 O 0.48636 0.07028 0.58239 0.0
O201 O 0.58949 0.09886 0.55394 0.0
O202 O 0.59736 0.0414 0.50492 0.0
O203 O 0.55375 0.04938 0.45822 0.0
O204 O 0.5199 0.09595 0.51014 0.0
O205 O 0.4671 0.04203 0.48251 0.0
C206 C 0.65217 0.91239 0.50668 0.0
C207 C 0.53369 0.91844 0.5185 0.0
C208 C 0.55432 0.95048 0.63074 0.0
C209 C 0.6635 0.93045 0.60431 0.0
C210 C 0.50419 0.11005 0.59217 0.0
C211 C 0.61251 0.0881 0.57866 0.0
C212 C 0.58889 0.05394 0.46996 0.0
C213 C 0.48439 0.0816 0.49184 0.0
O214 O 0.6155 0.8869 0.51067 0.0
O215 O 0.66433 0.95108 0.51919 0.0
O216 O 0.53866 0.95719 0.51247 0.0
O217 O 0.5586 0.90819 0.54084 0.0
Co218 Co 0.53566 0.52074 0.10773 0.0
Co219 Co 0.51366 0.44623 0.07671 0.0
Co220 Co 0.58431 0.51636 0.02622 0.0
O221 O 0.5336 0.50127 0.05396 0.0
H222 H 0.51334 0.50592 0.0363 0.0
O223 O 0.63566 0.53112 1.00088 0.0
Co224 Co 0.63935 0.50383 0.95443 0.0
Co225 Co 0.65433 0.57965 0.97071 0.0
H226 H 0.65624 0.53186 0.0213 0.0
O227 O 0.46287 0.41694 0.0976 0.0
O228 O 0.51692 0.46286 0.12995 0.0
O229 O 0.54931 0.41732 0.0767 0.0
O230 O 0.601 0.47436 0.05871 0.0
O231 O 0.55362 0.47167 0.98469 0.0
O232 O 0.64673 0.47646 0.91392 0.0
O233 O 0.6865 0.50173 0.96987 0.0
O234 O 0.58974 0.50189 0.93338 0.0
O235 O 0.5674 0.55843 0.99251 0.0
O236 O 0.61681 0.60506 0.95864 0.0
O237 O 0.66438 0.55841 0.92438 0.0
O238 O 0.70781 0.6093 0.96422 0.0
C239 C 0.49888 0.5382 0.13949 0.0
C240 C 0.6169 0.55041 0.10505 0.0
C241 C 0.58624 0.43673 0.07318 0.0
C242 C 0.48148 0.43424 0.13102 0.0
C243 C 0.67847 0.4803 0.93682 0.0
C244 C 0.55849 0.47443 0.94677 0.0
C245 C 0.5813 0.59069 0.96876 0.0
C246 C 0.69925 0.58841 0.93092 0.0
O247 O 0.53309 0.54012 0.15557 0.0
O248 O 0.48667 0.52221 0.10367 0.0
O249 O 0.61597 0.5606 0.06763 0.0
O250 O 0.58683 0.52228 0.11944 0.0
H251 H 0.20326 0.26704 0.46958 0.0
H252 H 0.2789 0.36114 0.38942 0.0
H253 H 0.2525 0.41187 0.40923 0.0
H254 H 0.20183 0.42677 0.44308 0.0
H255 H 0.11929 0.32796 0.51332 0.0
H256 H 0.15415 0.2818 0.50371 0.0
C257 C 0.21385 0.29849 0.45603 0.0
C258 C 0.24261 0.30977 0.42744 0.0
C259 C 0.19712 0.32675 0.46589 0.0
C260 C 0.25693 0.35136 0.4116 0.0
C261 C 0.24157 0.38039 0.42265 0.0
C262 C 0.19219 0.3954 0.45683 0.0
C263 C 0.15866 0.38076 0.47948 0.0
C264 C 0.21088 0.36808 0.44893 0.0
C265 C 0.14551 0.33985 0.49637 0.0
C266 C 0.16521 0.31342 0.4906 0.0
H267 H 0.74125 0.19868 0.41546 0.0
H268 H 0.66544 0.1975 0.30832 0.0
H269 H 0.61255 0.13602 0.33557 0.0
H270 H 0.58641 0.08637 0.3929 0.0
H271 H 0.66685 0.08556 0.49539 0.0
H272 H 0.72016 0.14275 0.4651 0.0
C273 C 0.71409 0.18445 0.3967 0.0
C274 C 0.70782 0.20357 0.35972 0.0
C275 C 0.68441 0.14838 0.41168 0.0
C276 C 0.67118 0.18453 0.33736 0.0
C277 C 0.64089 0.14902 0.35276 0.0
C278 C 0.6158 0.09815 0.40817 0.0
C279 C 0.62222 0.08205 0.44674 0.0
C280 C 0.6469 0.13128 0.39042 0.0
C281 C 0.66069 0.09736 0.46586 0.0
C282 C 0.69134 0.13036 0.44868 0.0
H283 H 0.89171 0.70005 0.37818 0.0
H284 H 0.79381 0.58201 0.35206 0.0
H285 H 0.83096 0.54334 0.38666 0.0
H286 H 0.89075 0.54258 0.42468 0.0
H287 H 0.98922 0.65992 0.45132 0.0
H288 H 0.95216 0.69918 0.4167 0.0
C289 C 0.87835 0.66588 0.3803 0.0
C290 C 0.83985 0.6441 0.36229 0.0
C291 C 0.89997 0.64364 0.40048 0.0
C292 C 0.82345 0.59972 0.36499 0.0
C293 C 0.84462 0.57751 0.38506 0.0
C294 C 0.90423 0.57678 0.42307 0.0
C295 C 0.94286 0.59817 0.44073 0.0
C296 C 0.88286 0.59909 0.40292 0.0
C297 C 0.95966 0.64252 0.43802 0.0
C298 C 0.93842 0.66501 0.41821 0.0
H299 H 0.40494 0.75127 0.44492 0.0
H300 H 0.41616 0.83314 0.34002 0.0
H301 H 0.46283 0.89291 0.37871 0.0
H302 H 0.50188 0.92169 0.44217 0.0
H303 H 0.49266 0.83888 0.54603 0.0
H304 H 0.44314 0.78007 0.5084 0.0
C305 C 0.41741 0.78226 0.43063 0.0
C306 C 0.40716 0.78767 0.3896 0.0
C307 C 0.44437 0.81645 0.45302 0.0
C308 C 0.42397 0.82797 0.37139 0.0
C309 C 0.45043 0.86224 0.39359 0.0
C310 C 0.48854 0.89088 0.45664 0.0
C311 C 0.5007 0.88459 0.49681 0.0
C312 C 0.46096 0.85686 0.4344 0.0
C313 C 0.48375 0.84439 0.51508 0.0
C314 C 0.45555 0.81075 0.49356 0.0
H315 H 0.30191 0.68189 0.62474 0.0
H316 H 0.24908 0.63484 0.73731 0.0
H317 H 0.18706 0.5904 0.70065 0.0
H318 H 0.15125 0.55865 0.63657 0.0
H319 H 0.20825 0.5999 0.5252 0.0
H320 H 0.26512 0.65348 0.56101 0.0
C321 C 0.27638 0.66277 0.64114 0.0
C322 C 0.27963 0.66185 0.68352 0.0
C323 C 0.2418 0.63603 0.61995 0.0
C324 C 0.2469 0.63615 0.70463 0.0
C325 C 0.21164 0.61067 0.68368 0.0
C326 C 0.17583 0.58013 0.62025 0.0
C327 C 0.17583 0.57582 0.5785 0.0
C328 C 0.20918 0.60941 0.64136 0.0
C329 C 0.20792 0.60296 0.55743 0.0
C330 C 0.24036 0.63341 0.57787 0.0
H331 H 0.40192 0.18045 0.69015 0.0
H332 H 0.50861 0.29331 0.68462 0.0
H333 H 0.53829 0.25625 0.64625 0.0
H334 H 0.53475 0.19219 0.61452 0.0
H335 H 0.42847 0.07896 0.61831 0.0
H336 H 0.39773 0.11605 0.65623 0.0
C337 C 0.43154 0.19714 0.68028 0.0
C338 C 0.45297 0.23983 0.69087 0.0
C339 C 0.44854 0.17559 0.65765 0.0
C340 C 0.49153 0.26042 0.67793 0.0
C341 C 0.50851 0.23929 0.65558 0.0
C342 C 0.50476 0.17544 0.62341 0.0
C343 C 0.48408 0.1326 0.61346 0.0
C344 C 0.4874 0.19689 0.64538 0.0
C345 C 0.4452 0.11181 0.62541 0.0
C346 C 0.42763 0.13306 0.64723 0.0
H347 H 0.90135 0.31019 0.66986 0.0
H348 H 0.86698 0.39994 0.72594 0.0
H349 H 0.92012 0.45823 0.69528 0.0
H350 H 0.97429 0.48383 0.65005 0.0
H351 H 1.0069 0.39434 0.59117 0.0
H352 H 0.9567 0.33598 0.62552 0.0
C353 C 0.90539 0.34251 0.67518 0.0
C354 C 0.88024 0.35062 0.70023 0.0
C355 C 0.93582 0.37599 0.6571 0.0
C356 C 0.8862 0.39274 0.70723 0.0
C357 C 0.91651 0.42615 0.68958 0.0
C358 C 0.97092 0.45161 0.64525 0.0
C359 C 0.99444 0.4435 0.61819 0.0
C360 C 0.94137 0.41816 0.66432 0.0
C361 C 0.98921 0.40148 0.61188 0.0
C362 C 0.96039 0.36806 0.63137 0.0
H363 H 0.74476 0.80443 0.66174 0.0
H364 H 0.8473 0.90968 0.62291 0.0
H365 H 0.80567 0.94756 0.59908 0.0
H366 H 0.74131 0.95395 0.59522 0.0
H367 H 0.63747 0.84736 0.62763 0.0
H368 H 0.67829 0.80652 0.64732 0.0
C369 C 0.75797 0.83524 0.64732 0.0
C370 C 0.79946 0.85463 0.64554 0.0
C371 C 0.73366 0.85679 0.63278 0.0
C372 C 0.81575 0.89454 0.62632 0.0
C373 C 0.79193 0.91624 0.61235 0.0
C374 C 0.72764 0.92158 0.60616 0.0
C375 C 0.68674 0.90379 0.61069 0.0
C376 C 0.75109 0.89824 0.61659 0.0
C377 C 0.66905 0.86165 0.62409 0.0
C378 C 0.69239 0.83842 0.63548 0.0
H379 H 0.37469 0.17046 0.41298 0.0
H380 H 0.48687 0.27484 0.40186 0.0
H381 H 0.52118 0.23295 0.43711 0.0
H382 H 0.51895 0.16541 0.47 0.0
H383 H 0.40566 0.06211 0.4795 0.0
H384 H 0.37207 0.10544 0.44735 0.0
C385 C 0.40662 0.1845 0.4188 0.0
C386 C 0.42807 0.226 0.40509 0.0
C387 C 0.42594 0.16045 0.4392 0.0
C388 C 0.46958 0.24294 0.41187 0.0
C389 C 0.48917 0.21908 0.43229 0.0
C390 C 0.48689 0.15273 0.46558 0.0
C391 C 0.46481 0.11055 0.47715 0.0
C392 C 0.46763 0.17769 0.44608 0.0
C393 C 0.42333 0.09437 0.47076 0.0
C394 C 0.40408 0.11908 0.45224 0.0
H395 H 0.88068 0.34614 0.33773 0.0
H396 H 0.81044 0.28749 0.43817 0.0
H397 H 0.86361 0.33079 0.48525 0.0
H398 H 0.92576 0.3929 0.49674 0.0
H399 H 0.99751 0.4498 0.39702 0.0
H400 H 0.94814 0.39991 0.35061 0.0
C401 C 0.87771 0.34201 0.37001 0.0
C402 C 0.84183 0.31398 0.38453 0.0
C403 C 0.90819 0.36743 0.39688 0.0
C404 C 0.83804 0.30866 0.42637 0.0
C405 C 0.86817 0.33383 0.45327 0.0
C406 C 0.93059 0.39386 0.4649 0.0
C407 C 0.96442 0.42516 0.44987 0.0
C408 C 0.9026 0.36458 0.4387 0.0
C409 C 0.97125 0.42594 0.4089 0.0
C410 C 0.94312 0.39751 0.38245 0.0
H411 H 0.79269 0.87505 0.44393 0.0
H412 H 0.69536 0.77753 0.38017 0.0
H413 H 0.6483 0.79673 0.41393 0.0
H414 H 0.63468 0.84461 0.4582 0.0
H415 H 0.73279 0.94614 0.51612 0.0
H416 H 0.77945 0.92256 0.4873 0.0
C417 C 0.76122 0.85815 0.43683 0.0
C418 C 0.74793 0.82509 0.40886 0.0
C419 C 0.73431 0.87042 0.45514 0.0
C420 C 0.7068 0.80284 0.4016 0.0
C421 C 0.67975 0.81412 0.42066 0.0
C422 C 0.66628 0.86147 0.4646 0.0
C423 C 0.68016 0.89721 0.48929 0.0
C424 C 0.69315 0.84834 0.44697 0.0
C425 C 0.72123 0.91875 0.4971 0.0
C426 C 0.74798 0.90521 0.48066 0.0
H427 H 0.26356 0.61124 0.34257 0.0
H428 H 0.27279 0.7167 0.41392 0.0
H429 H 0.21201 0.67324 0.44482 0.0
H430 H 0.15732 0.60403 0.45399 0.0
H431 H 0.14525 0.50175 0.37688 0.0
H432 H 0.20473 0.54619 0.34461 0.0
C433 C 0.25212 0.62544 0.36406 0.0
C434 C 0.2739 0.66732 0.37619 0.0
C435 C 0.21604 0.60087 0.38059 0.0
C436 C 0.25806 0.68421 0.40479 0.0
C437 C 0.22274 0.65951 0.42222 0.0
C438 C 0.16721 0.5917 0.42958 0.0
C439 C 0.14684 0.54929 0.41842 0.0
C440 C 0.20168 0.61758 0.41073 0.0
C441 C 0.16022 0.53409 0.38651 0.0
C442 C 0.19452 0.55944 0.36805 0.0
H443 H 0.45007 0.80233 0.74221 0.0
H444 H 0.37492 0.77472 0.63158 0.0
H445 H 0.41776 0.84059 0.60134 0.0
H446 H 0.47965 0.90237 0.60325 0.0
H447 H 0.55901 0.9278 0.71065 0.0
H448 H 0.51142 0.86691 0.74511 0.0
C449 C 0.44299 0.81084 0.71157 0.0
C450 C 0.40891 0.78355 0.68958 0.0
C451 C 0.46856 0.84851 0.69363 0.0
C452 C 0.40022 0.79533 0.64986 0.0
C453 C 0.42496 0.83297 0.63224 0.0
C454 C 0.48618 0.89533 0.63455 0.0
C455 C 0.52278 0.91971 0.65437 0.0
C456 C 0.45951 0.85942 0.65356 0.0
C457 C 0.53099 0.90957 0.69472 0.0
C458 C 0.5039 0.87458 0.71434 0.0
H459 H 0.20932 0.27111 0.65461 0.0
H460 H 0.31541 0.37812 0.69078 0.0
H461 H 0.28791 0.42567 0.65568 0.0
H462 H 0.23267 0.43735 0.61679 0.0
H463 H 0.12427 0.33056 0.58729 0.0
H464 H 0.15347 0.28277 0.61865 0.0
C465 C 0.22642 0.30484 0.65559 0.0
C466 C 0.26457 0.3206 0.6758 0.0
C467 C 0.20984 0.33225 0.63662 0.0
C468 C 0.28633 0.36458 0.67518 0.0
C469 C 0.27041 0.392 0.65539 0.0
C470 C 0.21538 0.40362 0.61722 0.0
C471 C 0.17636 0.38765 0.5992 0.0
C472 C 0.23206 0.37623 0.63629 0.0
C473 C 0.1544 0.34384 0.60048 0.0
C474 C 0.1711 0.31641 0.6185 0.0
H475 H 0.75463 0.25129 0.64235 0.0
H476 H 0.76512 0.16265 0.73448 0.0
H477 H 0.71217 0.10484 0.69875 0.0
H478 H 0.6596 0.08052 0.64396 0.0
H479 H 0.6475 0.17019 0.55354 0.0
H480 H 0.70453 0.22637 0.58567 0.0
C481 C 0.74583 0.21917 0.65414 0.0
C482 C 0.76373 0.21118 0.69093 0.0
C483 C 0.71481 0.18632 0.63393 0.0
C484 C 0.75159 0.16954 0.70627 0.0
C485 C 0.72132 0.13653 0.68589 0.0
C486 C 0.66968 0.11226 0.63106 0.0
C487 C 0.64905 0.12115 0.59659 0.0
C488 C 0.70215 0.14469 0.65011 0.0
C489 C 0.66253 0.1625 0.58029 0.0
C490 C 0.69521 0.1947 0.59861 0.0
H491 H 0.83921 0.60096 0.62847 0.0
H492 H 0.93248 0.71267 0.67735 0.0
H493 H 0.9817 0.69599 0.64527 0.0
H494 H 0.9987 0.65014 0.60398 0.0
H495 H 0.90703 0.53778 0.55409 0.0
H496 H 0.85682 0.55452 0.58521 0.0
C497 C 0.87035 0.62135 0.63215 0.0
C498 C 0.88221 0.65806 0.65515 0.0
C499 C 0.89875 0.61173 0.61313 0.0
C500 C 0.92262 0.68443 0.65955 0.0
C501 C 0.95079 0.67494 0.6412 0.0
C502 C 0.96774 0.6293 0.59957 0.0
C503 C 0.95681 0.59267 0.57674 0.0
C504 C 0.93923 0.63884 0.61784 0.0
C505 C 0.9164 0.56624 0.57147 0.0
C506 C 0.88765 0.57569 0.58945 0.0
H507 H 0.45723 0.3683 0.31182 0.0
H508 H 0.35788 0.26838 0.25424 0.0
H509 H 0.37354 0.30375 0.18836 0.0
H510 H 0.41667 0.3625 0.14685 0.0
H511 H 0.51476 0.46377 0.20531 0.0
H512 H 0.49807 0.42912 0.27075 0.0
C513 C 0.43927 0.35435 0.28472 0.0
C514 C 0.40684 0.31567 0.28757 0.0
C515 C 0.44797 0.37535 0.24708 0.0
C516 C 0.38322 0.29806 0.25251 0.0
C517 C 0.39206 0.31833 0.21493 0.0
C518 C 0.43406 0.37729 0.17393 0.0
C519 C 0.46707 0.41564 0.17088 0.0
C520 C 0.42443 0.35701 0.21178 0.0
C521 C 0.48925 0.43422 0.20649 0.0
C522 C 0.47988 0.41431 0.24409 0.0
H523 H 0.49656 0.66715 0.83538 0.0
H524 H 0.40067 0.54817 0.8566 0.0
H525 H 0.43774 0.53473 0.91653 0.0
H526 H 0.50143 0.55121 0.95538 0.0
H527 H 0.59954 0.66777 0.93096 0.0
H528 H 0.55759 0.68822 0.88064 0.0
C529 C 0.48345 0.63902 0.85401 0.0
C530 C 0.44612 0.60865 0.84184 0.0
C531 C 0.50559 0.63082 0.88757 0.0
C532 C 0.42944 0.57193 0.86564 0.0
C533 C 0.4507 0.56416 0.89971 0.0
C534 C 0.51335 0.58167 0.93997 0.0
C535 C 0.5537 0.60766 0.94663 0.0
C536 C 0.48945 0.59254 0.90997 0.0
C537 C 0.56866 0.64693 0.92613 0.0
C538 C 0.54473 0.6586 0.89718 0.0
H539 H 0.42667 0.32894 0.84232 0.0
H540 H 0.51736 0.37534 0.75724 0.0
H541 H 0.55972 0.42843 0.80497 0.0
H542 H 0.57142 0.46174 0.87027 0.0
H543 H 0.48299 0.41517 0.95768 0.0
H544 H 0.43921 0.36249 0.90947 0.0
C545 C 0.45565 0.35081 0.8342 0.0
C546 C 0.46876 0.34793 0.79607 0.0
C547 C 0.4802 0.38135 0.86213 0.0
C548 C 0.50661 0.37632 0.78636 0.0
C549 C 0.53081 0.40693 0.81361 0.0
C550 C 0.5425 0.4403 0.87901 0.0
C551 C 0.53057 0.4428 0.91775 0.0
C552 C 0.51795 0.40973 0.85151 0.0
C553 C 0.49304 0.4142 0.9282 0.0
C554 C 0.46801 0.384 0.90058 0.0
H555 H 0.78929 0.38035 0.92584 0.0
H556 H 0.71679 0.34042 0.8149 0.0
H557 H 0.68321 0.38732 0.82605 0.0
H558 H 0.6714 0.43606 0.8693 0.0
H559 H 0.74278 0.47529 0.98105 0.0
H560 H 0.77992 0.43251 0.96746 0.0
C561 C 0.76615 0.38198 0.90415 0.0
C562 C 0.75548 0.35683 0.86969 0.0
C563 C 0.74671 0.40884 0.91087 0.0
C564 C 0.72584 0.35972 0.84149 0.0
C565 C 0.70645 0.38637 0.84794 0.0
C566 C 0.69533 0.43563 0.89054 0.0
C567 C 0.70406 0.45862 0.92628 0.0
C568 C 0.71627 0.41062 0.88278 0.0
C569 C 0.73535 0.45785 0.95331 0.0
C570 C 0.75652 0.43323 0.94566 0.0
H571 H 0.82089 0.68804 0.80237 0.0
H572 H 0.74677 0.58344 0.72858 0.0
H573 H 0.70802 0.54949 0.78661 0.0
H574 H 0.69237 0.55281 0.85718 0.0
H575 H 0.76819 0.65806 0.93011 0.0
H576 H 0.80924 0.68821 0.87376 0.0
C577 C 0.79639 0.65764 0.79913 0.0
C578 C 0.78627 0.63845 0.76125 0.0
C579 C 0.77447 0.63854 0.83245 0.0
C580 C 0.75496 0.59878 0.75748 0.0
C581 C 0.73277 0.57954 0.79059 0.0
C582 C 0.71809 0.58213 0.86087 0.0
C583 C 0.72673 0.60335 0.89787 0.0
C584 C 0.74177 0.59957 0.82808 0.0
C585 C 0.76052 0.64107 0.9021 0.0
C586 C 0.78405 0.6585 0.86978 0.0
H587 H 0.73372 0.59116 0.25931 0.0
H588 H 0.75388 0.71928 0.22055 0.0
H589 H 0.71182 0.69351 0.15915 0.0
H590 H 0.66477 0.63375 0.11816 0.0
H591 H 0.64752 0.50656 0.15671 0.0
H592 H 0.69433 0.53295 0.21497 0.0
C593 C 0.72986 0.61378 0.23723 0.0
C594 C 0.74678 0.65729 0.24558 0.0
C595 C 0.70627 0.59884 0.20128 0.0
C596 C 0.74046 0.68554 0.21617 0.0
C597 C 0.71667 0.67085 0.18054 0.0
C598 C 0.67231 0.61204 0.13866 0.0
C599 C 0.65277 0.56827 0.13302 0.0
C600 C 0.69883 0.62747 0.17296 0.0
C601 C 0.66224 0.54041 0.16033 0.0
C602 C 0.68877 0.55546 0.19391 0.0
H603 H 0.43589 0.64394 0.24392 0.0
H604 H 0.35091 0.62211 0.14134 0.0
H605 H 0.37806 0.57622 0.11237 0.0
H606 H 0.43025 0.54793 0.11278 0.0
H607 H 0.51549 0.57017 0.21532 0.0
H608 H 0.48361 0.60935 0.24771 0.0
C609 C 0.42274 0.62839 0.21569 0.0
C610 C 0.39173 0.63701 0.19464 0.0
C611 C 0.43881 0.60227 0.19888 0.0
C612 C 0.37526 0.6167 0.15789 0.0
C613 C 0.39074 0.59037 0.14127 0.0
C614 C 0.4415 0.56077 0.14248 0.0
C615 C 0.47557 0.55642 0.16123 0.0
C616 C 0.42325 0.58384 0.16092 0.0
C617 C 0.48955 0.57324 0.19986 0.0
C618 C 0.47136 0.5958 0.21849 0.0
H619 H 0.72646 0.4206 0.18071 0.0
H620 H 0.63014 0.32569 0.23975 0.0
H621 H 0.58328 0.32958 0.18418 0.0
H622 H 0.56912 0.36929 0.1256 0.0
H623 H 0.66616 0.46577 0.06793 0.0
H624 H 0.71349 0.45118 0.11557 0.0
C625 C 0.69532 0.40005 0.18069 0.0
C626 C 0.68137 0.37331 0.21407 0.0
C627 C 0.66875 0.40303 0.14915 0.0
C628 C 0.64122 0.34649 0.2141 0.0
C629 C 0.61452 0.34895 0.18254 0.0
C630 C 0.60063 0.38629 0.12267 0.0
C631 C 0.614 0.41933 0.09389 0.0
C632 C 0.62778 0.37845 0.1508 0.0
C633 C 0.65498 0.44071 0.09029 0.0
C634 C 0.68214 0.43255 0.11763 0.0
loop_
_geom_bond_atom_site_label_1
_geom_bond_atom_site_label_2
_geom_bond_distance
_geom_bond_site_symmetry_2
_ccdc_geom_bond_type
H0 C1 0.949 . S
C1 H0 0.949 . S
C1 C2 1.395 . S
C1 C3 1.391 . S
C2 C1 1.395 . S
C2 C5 1.390 . S
C3 C1 1.391 . S
C3 C7 1.387 . S
C3 C8 1.491 . S
H4 C5 0.950 . S
C5 C2 1.390 . S
C5 H4 0.950 . S
C5 C6 1.378 . S
C6 C5 1.378 . S
C6 C7 1.409 . S
C7 C3 1.387 . S
C7 C6 1.409 . S
C7 H9 0.951 . S
C8 C3 1.491 . S
C8 C10 1.382 . S
C8 C12 1.404 . S
H9 C7 0.951 . S
C10 C8 1.382 . S
C10 C11 1.390 . S
C10 H15 0.949 . S
C11 C10 1.390 . S
C11 C16 1.399 . S
C12 C8 1.404 . S
C12 H13 0.950 . S
C12 C14 1.375 . S
H13 C12 0.950 . S
C14 C12 1.375 . S
C14 C16 1.382 . S
C14 H18 0.950 . S
H15 C10 0.949 . S
C16 C11 1.399 . S
C16 C14 1.382 . S
C16 H17 0.952 . S
H17 C16 0.952 . S
H18 C14 0.950 . S
H19 C20 0.949 . S
C20 H19 0.949 . S
C20 C21 1.395 . S
C20 C22 1.391 . S
C21 C20 1.395 . S
C21 C24 1.390 . S
C22 C20 1.391 . S
C22 C26 1.387 . S
C22 C27 1.491 . S
H23 C24 0.950 . S
C24 C21 1.390 . S
C24 H23 0.950 . S
C24 C25 1.378 . S
C25 C24 1.378 . S
C25 C26 1.409 . S
C26 C22 1.387 . S
C26 C25 1.409 . S
C26 H28 0.951 . S
C27 C22 1.491 . S
C27 C29 1.382 . S
C27 C31 1.404 . S
H28 C26 0.951 . S
C29 C27 1.382 . S
C29 C30 1.390 . S
C29 H34 0.949 . S
C30 C29 1.390 . S
C30 C35 1.399 . S
C31 C27 1.404 . S
C31 H32 0.950 . S
C31 C33 1.375 . S
H32 C31 0.950 . S
C33 C31 1.375 . S
C33 C35 1.382 . S
C33 H37 0.950 . S
H34 C29 0.949 . S
C35 C30 1.399 . S
C35 C33 1.382 . S
C35 H36 0.952 . S
H36 C35 0.952 . S
H37 C33 0.950 . S
H38 C39 0.949 . S
C39 H38 0.949 . S
C39 C40 1.395 . S
C39 C41 1.391 . S
C40 C39 1.395 . S
C40 C43 1.390 . S
C41 C39 1.391 . S
C41 C45 1.387 . S
C41 C46 1.491 . S
H42 C43 0.950 . S
C43 C40 1.390 . S
C43 H42 0.950 . S
C43 C44 1.378 . S
C44 C43 1.378 . S
C44 C45 1.409 . S
C45 C41 1.387 . S
C45 C44 1.409 . S
C45 H47 0.951 . S
C46 C41 1.491 . S
C46 C48 1.382 . S
C46 C50 1.404 . S
H47 C45 0.951 . S
C48 C46 1.382 . S
C48 C49 1.390 . S
C48 H53 0.949 . S
C49 C48 1.390 . S
C49 C54 1.399 . S
C50 C46 1.404 . S
C50 H51 0.950 . S
C50 C52 1.375 . S
H51 C50 0.950 . S
C52 C50 1.375 . S
C52 C54 1.382 . S
C52 H56 0.950 . S
H53 C48 0.949 . S
C54 C49 1.399 . S
C54 C52 1.382 . S
C54 H55 0.952 . S
H55 C54 0.952 . S
H56 C52 0.950 . S
H57 C58 0.949 . S
C58 H57 0.949 . S
C58 C59 1.395 . S
C58 C60 1.391 . S
C59 C58 1.395 . S
C59 C62 1.390 . S
C60 C58 1.391 . S
C60 C64 1.387 . S
C60 C65 1.491 . S
H61 C62 0.950 . S
C62 C59 1.390 . S
C62 H61 0.950 . S
C62 C63 1.378 . S
C63 C62 1.378 . S
C63 C64 1.409 . S
C64 C60 1.387 . S
C64 C63 1.409 . S
C64 H66 0.951 . S
C65 C60 1.491 . S
C65 C67 1.382 . S
C65 C69 1.404 . S
H66 C64 0.951 . S
C67 C65 1.382 . S
C67 C68 1.390 . S
C67 H72 0.949 . S
C68 C67 1.390 . S
C68 C73 1.399 . S
C69 C65 1.404 . S
C69 H70 0.950 . S
C69 C71 1.375 . S
H70 C69 0.950 . S
C71 C69 1.375 . S
C71 C73 1.382 . S
C71 H75 0.950 . S
H72 C67 0.949 . S
C73 C68 1.399 . S
C73 C71 1.382 . S
C73 H74 0.952 . S
H74 C73 0.952 . S
H75 C71 0.950 . S
H76 C77 0.949 . S
C77 H76 0.949 . S
C77 C78 1.395 . S
C77 C79 1.391 . S
C78 C77 1.395 . S
C78 C81 1.390 . S
C79 C77 1.391 . S
C79 C83 1.387 . S
C79 C84 1.491 . S
H80 C81 0.950 . S
C81 C78 1.390 . S
C81 H80 0.950 . S
C81 C82 1.378 . S
C82 C81 1.378 . S
C82 C83 1.409 . S
C83 C79 1.387 . S
C83 C82 1.409 . S
C83 H85 0.951 . S
C84 C79 1.491 . S
C84 C86 1.382 . S
C84 C88 1.404 . S
H85 C83 0.951 . S
C86 C84 1.382 . S
C86 C87 1.390 . S
C86 H91 0.949 . S
C87 C86 1.390 . S
C87 C92 1.399 . S
C88 C84 1.404 . S
C88 H89 0.950 . S
C88 C90 1.375 . S
H89 C88 0.950 . S
C90 C88 1.375 . S
C90 C92 1.382 . S
C90 H94 0.950 . S
H91 C86 0.949 . S
C92 C87 1.399 . S
C92 C90 1.382 . S
C92 H93 0.952 . S
H93 C92 0.952 . S
H94 C90 0.950 . S
H95 C96 0.949 . S
C96 H95 0.949 . S
C96 C97 1.395 . S
C96 C98 1.391 . S
C97 C96 1.395 . S
C97 C100 1.390 . S
C98 C96 1.391 . S
C98 C102 1.387 . S
C98 C103 1.491 . S
H99 C100 0.950 . S
C100 C97 1.390 . S
C100 H99 0.950 . S
C100 C101 1.378 . S
C101 C100 1.378 . S
C101 C102 1.409 . S
C102 C98 1.387 . S
C102 C101 1.409 . S
C102 H104 0.951 . S
C103 C98 1.491 . S
C103 C105 1.382 . S
C103 C107 1.404 . S
H104 C102 0.951 . S
C105 C103 1.382 . S
C105 C106 1.390 . S
C105 H110 0.949 . S
C106 C105 1.390 . S
C106 C111 1.399 . S
C107 C103 1.404 . S
C107 H108 0.950 . S
C107 C109 1.375 . S
H108 C107 0.950 . S
C109 C107 1.375 . S
C109 C111 1.382 . S
C109 H113 0.950 . S
H110 C105 0.949 . S
C111 C106 1.399 . S
C111 C109 1.382 . S
C111 H112 0.952 . S
H112 C111 0.952 . S
H113 C109 0.950 . S
H114 C115 0.949 . S
C115 H114 0.949 . S
C115 C116 1.395 . S
C115 C117 1.391 . S
C116 C115 1.395 . S
C116 C119 1.390 . S
C117 C115 1.391 . S
C117 C121 1.387 . S
C117 C122 1.491 . S
H118 C119 0.950 . S
C119 C116 1.390 . S
C119 H118 0.950 . S
C119 C120 1.378 . S
C120 C119 1.378 . S
C120 C121 1.409 . S
C121 C117 1.387 . S
C121 C120 1.409 . S
C121 H123 0.951 . S
C122 C117 1.491 . S
C122 C124 1.382 . S
C122 C126 1.404 . S
H123 C121 0.951 . S
C124 C122 1.382 . S
C124 C125 1.390 . S
C124 H129 0.949 . S
C125 C124 1.390 . S
C125 C130 1.399 . S
C126 C122 1.404 . S
C126 H127 0.950 . S
C126 C128 1.375 . S
H127 C126 0.950 . S
C128 C126 1.375 . S
C128 C130 1.382 . S
C128 H132 0.950 . S
H129 C124 0.949 . S
C130 C125 1.399 . S
C130 C128 1.382 . S
C130 H131 0.952 . S
H131 C130 0.952 . S
H132 C128 0.950 . S
H133 C134 0.949 . S
C134 H133 0.949 . S
C134 C135 1.395 . S
C134 C136 1.391 . S
C135 C134 1.395 . S
C135 C138 1.390 . S
C136 C134 1.391 . S
C136 C140 1.387 . S
C136 C141 1.491 . S
H137 C138 0.950 . S
C138 C135 1.390 . S
C138 H137 0.950 . S
C138 C139 1.378 . S
C139 C138 1.378 . S
C139 C140 1.409 . S
C140 C136 1.387 . S
C140 C139 1.409 . S
C140 H142 0.951 . S
C141 C136 1.491 . S
C141 C143 1.382 . S
C141 C145 1.404 . S
H142 C140 0.951 . S
C143 C141 1.382 . S
C143 C144 1.390 . S
C143 H148 0.949 . S
C144 C143 1.390 . S
C144 C149 1.399 . S
C145 C141 1.404 . S
C145 H146 0.950 . S
C145 C147 1.375 . S
H146 C145 0.950 . S
C147 C145 1.375 . S
C147 C149 1.382 . S
C147 H151 0.950 . S
H148 C143 0.949 . S
C149 C144 1.399 . S
C149 C147 1.382 . S
C149 H150 0.952 . S
H150 C149 0.952 . S
H151 C147 0.950 . S
Co152 O155 2.042 . S
Co152 O162 2.264 . S
Co152 O181 2.286 . S
Co152 O182 2.069 . S
Co152 O184 2.015 . S
Co153 O155 2.122 . S
Co153 O161 2.073 . S
Co153 O162 2.327 . S
Co153 O163 1.976 . S
Co154 O155 2.087 . S
Co154 O157 2.087 . S
Co154 O164 2.111 . S
Co154 O165 2.143 1_455 S
Co154 O169 2.111 . S
Co154 O183 2.143 . S
O155 Co152 2.042 . S
O155 Co153 2.122 . S
O155 Co154 2.087 . S
O155 H156 0.980 . S
H156 O155 0.980 . S
O157 Co154 2.087 . S
O157 Co158 2.042 1_455 S
O157 Co159 2.122 1_455 S
O157 H160 0.980 . S
Co158 O157 2.042 1_655 S
Co158 O166 2.286 . S
Co158 O167 2.069 . S
Co158 O168 2.015 . S
Co158 O171 2.264 . S
Co159 O157 2.122 1_655 S
Co159 O170 1.976 . S
Co159 O171 2.327 . S
Co159 O172 2.066 . S
H160 O157 0.980 . S
O161 Co153 2.073 . S
O161 C176 1.245 . S
O162 Co152 2.264 . S
O162 Co153 2.327 . S
O162 C176 1.257 . S
O163 Co153 1.976 . S
O163 C175 1.251 . S
O164 Co154 2.111 . S
O164 C175 1.274 . S
O165 Co154 2.143 1_655 S
O165 C178 1.246 . S
O166 Co158 2.286 . S
O166 C177 1.259 . S
O167 Co158 2.069 . S
O167 C177 1.289 . S
O168 Co158 2.015 . S
O168 C178 1.257 . S
O169 Co154 2.111 . S
O169 C179 1.274 1_455 S
O170 Co159 1.976 . S
O170 C179 1.251 . S
O171 Co158 2.264 . S
O171 Co159 2.327 . S
O171 C180 1.257 . S
O172 Co159 2.066 . S
O172 C180 1.263 . S
C173 O181 1.259 . S
C173 O182 1.289 . S
C174 O183 1.246 . S
C174 O184 1.257 . S
C175 O163 1.251 . S
C175 O164 1.274 . S
C176 O161 1.245 . S
C176 O162 1.257 . S
C177 O166 1.259 . S
C177 O167 1.289 . S
C178 O165 1.246 . S
C178 O168 1.257 . S
C179 O169 1.274 1_655 S
C179 O170 1.251 . S
C180 O171 1.257 . S
C180 O172 1.263 . S
O181 Co152 2.286 . S
O181 C173 1.259 . S
O182 Co152 2.069 . S
O182 C173 1.289 . S
O183 Co154 2.143 . S
O183 C174 1.246 . S
O184 Co152 2.015 . S
O184 C174 1.257 . S
Co185 O188 2.042 . S
Co185 O195 2.264 . S
Co185 O214 2.286 . S
Co185 O215 2.069 . S
Co185 O217 2.015 . S
Co186 O188 2.122 . S
Co186 O194 2.073 . S
Co186 O195 2.327 . S
Co186 O196 1.976 . S
Co187 O188 2.087 1_545 S
Co187 O190 2.087 . S
Co187 O197 2.111 1_545 S
Co187 O198 2.143 . S
Co187 O202 2.111 . S
Co187 O216 2.143 1_545 S
O188 Co185 2.042 . S
O188 Co186 2.122 . S
O188 Co187 2.087 1_565 S
O188 H189 0.980 1_565 S
H189 O188 0.980 1_545 S
O190 Co187 2.087 . S
O190 Co191 2.042 . S
O190 Co192 2.122 . S
O190 H193 0.980 . S
Co191 O190 2.042 . S
Co191 O199 2.286 . S
Co191 O200 2.069 . S
Co191 O201 2.015 . S
Co191 O204 2.264 . S
Co192 O190 2.122 . S
Co192 O203 1.976 . S
Co192 O204 2.327 . S
Co192 O205 2.073 . S
H193 O190 0.980 . S
O194 Co186 2.073 . S
O194 C209 1.245 . S
O195 Co185 2.264 . S
O195 Co186 2.327 . S
O195 C209 1.257 . S
O196 Co186 1.976 . S
O196 C208 1.251 . S
O197 Co187 2.111 1_565 S
O197 C208 1.274 . S
O198 Co187 2.143 . S
O198 C211 1.246 . S
O199 Co191 2.286 . S
O199 C210 1.259 . S
O200 Co191 2.069 . S
O200 C210 1.289 . S
O201 Co191 2.015 . S
O201 C211 1.257 . S
O202 Co187 2.111 . S
O202 C212 1.274 . S
O203 Co192 1.976 . S
O203 C212 1.251 . S
O204 Co191 2.264 . S
O204 Co192 2.327 . S
O204 C213 1.257 . S
O205 Co192 2.073 . S
O205 C213 1.245 . S
C206 O214 1.259 . S
C206 O215 1.289 . S
C207 O216 1.246 . S
C207 O217 1.257 . S
C208 O196 1.251 . S
C208 O197 1.274 . S
C209 O194 1.245 . S
C209 O195 1.257 . S
C210 O199 1.259 . S
C210 O200 1.289 . S
C211 O198 1.246 . S
C211 O201 1.257 . S
C212 O202 1.274 . S
C212 O203 1.251 . S
C213 O204 1.257 . S
C213 O205 1.245 . S
O214 Co185 2.286 . S
O214 C206 1.259 . S
O215 Co185 2.069 . S
O215 C206 1.289 . S
O216 Co187 2.143 1_565 S
O216 C207 1.246 . S
O217 Co185 2.015 . S
O217 C207 1.257 . S
Co218 O221 2.042 . S
Co218 O228 2.264 . S
Co218 O247 2.286 . S
Co218 O248 2.069 . S
Co218 O250 2.015 . S
Co219 O221 2.122 . S
Co219 O227 2.073 . S
Co219 O228 2.327 . S
Co219 O229 1.976 . S
Co220 O221 2.087 . S
Co220 O223 2.087 1_554 S
Co220 O230 2.111 . S
Co220 O231 2.143 1_554 S
Co220 O235 2.111 1_554 S
Co220 O249 2.143 . S
O221 Co218 2.042 . S
O221 Co219 2.122 . S
O221 Co220 2.087 . S
O221 H222 0.980 . S
H222 O221 0.980 . S
O223 Co220 2.087 1_556 S
O223 Co224 2.042 . S
O223 Co225 2.122 . S
O223 H226 0.980 . S
Co224 O223 2.042 . S
Co224 O232 2.286 . S
Co224 O233 2.069 . S
Co224 O234 2.015 . S
Co224 O237 2.264 . S
Co225 O223 2.122 . S
Co225 O236 1.976 . S
Co225 O237 2.327 . S
Co225 O238 2.073 . S
H226 O223 0.980 . S
O227 Co219 2.073 . S
O227 C242 1.245 . S
O228 Co218 2.264 . S
O228 Co219 2.327 . S
O228 C242 1.257 . S
O229 Co219 1.976 . S
O229 C241 1.251 . S
O230 Co220 2.111 . S
O230 C241 1.274 . S
O231 Co220 2.143 1_556 S
O231 C244 1.246 . S
O232 Co224 2.286 . S
O232 C243 1.259 . S
O233 Co224 2.069 . S
O233 C243 1.289 . S
O234 Co224 2.015 . S
O234 C244 1.257 . S
O235 Co220 2.111 1_556 S
O235 C245 1.274 . S
O236 Co225 1.976 . S
O236 C245 1.251 . S
O237 Co224 2.264 . S
O237 Co225 2.327 . S
O237 C246 1.257 . S
O238 Co225 2.073 . S
O238 C246 1.245 . S
C239 O247 1.259 . S
C239 O248 1.289 . S
C240 O249 1.246 . S
C240 O250 1.257 . S
C241 O229 1.251 . S
C241 O230 1.274 . S
C242 O227 1.245 . S
C242 O228 1.257 . S
C243 O232 1.259 . S
C243 O233 1.289 . S
C244 O231 1.246 . S
C244 O234 1.257 . S
C245 O235 1.274 . S
C245 O236 1.251 . S
C246 O237 1.257 . S
C246 O238 1.245 . S
O247 Co218 2.286 . S
O247 C239 1.259 . S
O248 Co218 2.069 . S
O248 C239 1.289 . S
O249 Co220 2.143 . S
O249 C240 1.246 . S
O250 Co218 2.015 . S
O250 C240 1.257 . S
H251 C257 0.930 . S
H252 C260 0.930 . S
H253 C261 0.930 . S
H254 C262 0.930 . S
H255 C265 0.930 . S
H256 C266 0.930 . S
C257 H251 0.930 . S
C257 C258 1.355 . S
C257 C259 1.415 . S
C258 C257 1.355 . S
C258 C260 1.419 . S
C259 C257 1.415 . S
C259 C264 1.425 . S
C259 C266 1.409 . S
C260 H252 0.930 . S
C260 C258 1.419 . S
C260 C261 1.362 . S
C261 H253 0.930 . S
C261 C260 1.362 . S
C261 C264 1.409 . S
C262 H254 0.930 . S
C262 C263 1.355 . S
C262 C264 1.415 . S
C263 C262 1.355 . S
C263 C265 1.419 . S
C264 C259 1.425 . S
C264 C261 1.409 . S
C264 C262 1.415 . S
C265 H255 0.930 . S
C265 C263 1.419 . S
C265 C266 1.362 . S
C266 H256 0.930 . S
C266 C259 1.409 . S
C266 C265 1.362 . S
H267 C273 0.930 . S
H268 C276 0.930 . S
H269 C277 0.930 . S
H270 C278 0.930 . S
H271 C281 0.930 . S
H272 C282 0.930 . S
C273 H267 0.930 . S
C273 C274 1.355 . S
C273 C275 1.415 . S
C274 C273 1.355 . S
C274 C276 1.419 . S
C275 C273 1.415 . S
C275 C280 1.425 . S
C275 C282 1.409 . S
C276 H268 0.930 . S
C276 C274 1.419 . S
C276 C277 1.362 . S
C277 H269 0.930 . S
C277 C276 1.362 . S
C277 C280 1.409 . S
C278 H270 0.930 . S
C278 C279 1.355 . S
C278 C280 1.415 . S
C279 C278 1.355 . S
C279 C281 1.419 . S
C280 C275 1.425 . S
C280 C277 1.409 . S
C280 C278 1.415 . S
C281 H271 0.930 . S
C281 C279 1.419 . S
C281 C282 1.362 . S
C282 H272 0.930 . S
C282 C275 1.409 . S
C282 C281 1.362 . S
H283 C289 0.930 . S
H284 C292 0.930 . S
H285 C293 0.930 . S
H286 C294 0.930 . S
H287 C297 0.930 . S
H288 C298 0.930 . S
C289 H283 0.930 . S
C289 C290 1.355 . S
C289 C291 1.415 . S
C290 C289 1.355 . S
C290 C292 1.419 . S
C291 C289 1.415 . S
C291 C296 1.425 . S
C291 C298 1.409 . S
C292 H284 0.930 . S
C292 C290 1.419 . S
C292 C293 1.362 . S
C293 H285 0.930 . S
C293 C292 1.362 . S
C293 C296 1.409 . S
C294 H286 0.930 . S
C294 C295 1.355 . S
C294 C296 1.415 . S
C295 C294 1.355 . S
C295 C297 1.419 . S
C296 C291 1.425 . S
C296 C293 1.409 . S
C296 C294 1.415 . S
C297 H287 0.930 . S
C297 C295 1.419 . S
C297 C298 1.362 . S
C298 H288 0.930 . S
C298 C291 1.409 . S
C298 C297 1.362 . S
H299 C305 0.930 . S
H300 C308 0.930 . S
H301 C309 0.930 . S
H302 C310 0.930 . S
H303 C313 0.930 . S
H304 C314 0.930 . S
C305 H299 0.930 . S
C305 C306 1.355 . S
C305 C307 1.415 . S
C306 C305 1.355 . S
C306 C308 1.419 . S
C307 C305 1.415 . S
C307 C312 1.425 . S
C307 C314 1.409 . S
C308 H300 0.930 . S
C308 C306 1.419 . S
C308 C309 1.362 . S
C309 H301 0.930 . S
C309 C308 1.362 . S
C309 C312 1.409 . S
C310 H302 0.930 . S
C310 C311 1.355 . S
C310 C312 1.415 . S
C311 C310 1.355 . S
C311 C313 1.419 . S
C312 C307 1.425 . S
C312 C309 1.409 . S
C312 C310 1.415 . S
C313 H303 0.930 . S
C313 C311 1.419 . S
C313 C314 1.362 . S
C314 H304 0.930 . S
C314 C307 1.409 . S
C314 C313 1.362 . S
H315 C321 0.930 . S
H316 C324 0.930 . S
H317 C325 0.930 . S
H318 C326 0.930 . S
H319 C329 0.930 . S
H320 C330 0.930 . S
C321 H315 0.930 . S
C321 C322 1.355 . S
C321 C323 1.415 . S
C322 C321 1.355 . S
C322 C324 1.419 . S
C323 C321 1.415 . S
C323 C328 1.425 . S
C323 C330 1.409 . S
C324 H316 0.930 . S
C324 C322 1.419 . S
C324 C325 1.362 . S
C325 H317 0.930 . S
C325 C324 1.362 . S
C325 C328 1.409 . S
C326 H318 0.930 . S
C326 C327 1.355 . S
C326 C328 1.415 . S
C327 C326 1.355 . S
C327 C329 1.419 . S
C328 C323 1.425 . S
C328 C325 1.409 . S
C328 C326 1.415 . S
C329 H319 0.930 . S
C329 C327 1.419 . S
C329 C330 1.362 . S
C330 H320 0.930 . S
C330 C323 1.409 . S
C330 C329 1.362 . S
H331 C337 0.930 . S
H332 C340 0.930 . S
H333 C341 0.930 . S
H334 C342 0.930 . S
H335 C345 0.930 . S
H336 C346 0.930 . S
C337 H331 0.930 . S
C337 C338 1.355 . S
C337 C339 1.415 . S
C338 C337 1.355 . S
C338 C340 1.419 . S
C339 C337 1.415 . S
C339 C344 1.425 . S
C339 C346 1.409 . S
C340 H332 0.930 . S
C340 C338 1.419 . S
C340 C341 1.362 . S
C341 H333 0.930 . S
C341 C340 1.362 . S
C341 C344 1.409 . S
C342 H334 0.930 . S
C342 C343 1.355 . S
C342 C344 1.415 . S
C343 C342 1.355 . S
C343 C345 1.419 . S
C344 C339 1.425 . S
C344 C341 1.409 . S
C344 C342 1.415 . S
C345 H335 0.930 . S
C345 C343 1.419 . S
C345 C346 1.362 . S
C346 H336 0.930 . S
C346 C339 1.409 . S
C346 C345 1.362 . S
H347 C353 0.930 . S
H348 C356 0.930 . S
H349 C357 0.930 . S
H350 C358 0.930 . S
H351 C361 0.930 . S
H352 C362 0.930 . S
C353 H347 0.930 . S
C353 C354 1.355 . S
C353 C355 1.415 . S
C354 C353 1.355 . S
C354 C356 1.419 . S
C355 C353 1.415 . S
C355 C360 1.425 . S
C355 C362 1.409 . S
C356 H348 0.930 . S
C356 C354 1.419 . S
C356 C357 1.362 . S
C357 H349 0.930 . S
C357 C356 1.362 . S
C357 C360 1.409 . S
C358 H350 0.930 . S
C358 C359 1.355 . S
C358 C360 1.415 . S
C359 C358 1.355 . S
C359 C361 1.419 . S
C360 C355 1.425 . S
C360 C357 1.409 . S
C360 C358 1.415 . S
C361 H351 0.930 . S
C361 C359 1.419 . S
C361 C362 1.362 . S
C362 H352 0.930 . S
C362 C355 1.409 . S
C362 C361 1.362 . S
H363 C369 0.930 . S
H364 C372 0.930 . S
H365 C373 0.930 . S
H366 C374 0.930 . S
H367 C377 0.930 . S
H368 C378 0.930 . S
C369 H363 0.930 . S
C369 C370 1.355 . S
C369 C371 1.415 . S
C370 C369 1.355 . S
C370 C372 1.419 . S
C371 C369 1.415 . S
C371 C376 1.425 . S
C371 C378 1.409 . S
C372 H364 0.930 . S
C372 C370 1.419 . S
C372 C373 1.362 . S
C373 H365 0.930 . S
C373 C372 1.362 . S
C373 C376 1.409 . S
C374 H366 0.930 . S
C374 C375 1.355 . S
C374 C376 1.415 . S
C375 C374 1.355 . S
C375 C377 1.419 . S
C376 C371 1.425 . S
C376 C373 1.409 . S
C376 C374 1.415 . S
C377 H367 0.930 . S
C377 C375 1.419 . S
C377 C378 1.362 . S
C378 H368 0.930 . S
C378 C371 1.409 . S
C378 C377 1.362 . S
H379 C385 0.930 . S
H380 C388 0.930 . S
H381 C389 0.930 . S
H382 C390 0.930 . S
H383 C393 0.930 . S
H384 C394 0.930 . S
C385 H379 0.930 . S
C385 C386 1.355 . S
C385 C387 1.415 . S
C386 C385 1.355 . S
C386 C388 1.419 . S
C387 C385 1.415 . S
C387 C392 1.425 . S
C387 C394 1.409 . S
C388 H380 0.930 . S
C388 C386 1.419 . S
C388 C389 1.362 . S
C389 H381 0.930 . S
C389 C388 1.362 . S
C389 C392 1.409 . S
C390 H382 0.930 . S
C390 C391 1.355 . S
C390 C392 1.415 . S
C391 C390 1.355 . S
C391 C393 1.419 . S
C392 C387 1.425 . S
C392 C389 1.409 . S
C392 C390 1.415 . S
C393 H383 0.930 . S
C393 C391 1.419 . S
C393 C394 1.362 . S
C394 H384 0.930 . S
C394 C387 1.409 . S
C394 C393 1.362 . S
H395 C401 0.930 . S
H396 C404 0.930 . S
H397 C405 0.930 . S
H398 C406 0.930 . S
H399 C409 0.930 . S
H400 C410 0.930 . S
C401 H395 0.930 . S
C401 C402 1.355 . S
C401 C403 1.415 . S
C402 C401 1.355 . S
C402 C404 1.419 . S
C403 C401 1.415 . S
C403 C408 1.425 . S
C403 C410 1.409 . S
C404 H396 0.930 . S
C404 C402 1.419 . S
C404 C405 1.362 . S
C405 H397 0.930 . S
C405 C404 1.362 . S
C405 C408 1.409 . S
C406 H398 0.930 . S
C406 C407 1.355 . S
C406 C408 1.415 . S
C407 C406 1.355 . S
C407 C409 1.419 . S
C408 C403 1.425 . S
C408 C405 1.409 . S
C408 C406 1.415 . S
C409 H399 0.930 . S
C409 C407 1.419 . S
C409 C410 1.362 . S
C410 H400 0.930 . S
C410 C403 1.409 . S
C410 C409 1.362 . S
H411 C417 0.930 . S
H412 C420 0.930 . S
H413 C421 0.930 . S
H414 C422 0.930 . S
H415 C425 0.930 . S
H416 C426 0.930 . S
C417 H411 0.930 . S
C417 C418 1.355 . S
C417 C419 1.415 . S
C418 C417 1.355 . S
C418 C420 1.419 . S
C419 C417 1.415 . S
C419 C424 1.425 . S
C419 C426 1.409 . S
C420 H412 0.930 . S
C420 C418 1.419 . S
C420 C421 1.362 . S
C421 H413 0.930 . S
C421 C420 1.362 . S
C421 C424 1.409 . S
C422 H414 0.930 . S
C422 C423 1.355 . S
C422 C424 1.415 . S
C423 C422 1.355 . S
C423 C425 1.419 . S
C424 C419 1.425 . S
C424 C421 1.409 . S
C424 C422 1.415 . S
C425 H415 0.930 . S
C425 C423 1.419 . S
C425 C426 1.362 . S
C426 H416 0.930 . S
C426 C419 1.409 . S
C426 C425 1.362 . S
H427 C433 0.930 . S
H428 C436 0.930 . S
H429 C437 0.930 . S
H430 C438 0.930 . S
H431 C441 0.930 . S
H432 C442 0.930 . S
C433 H427 0.930 . S
C433 C434 1.355 . S
C433 C435 1.415 . S
C434 C433 1.355 . S
C434 C436 1.419 . S
C435 C433 1.415 . S
C435 C440 1.425 . S
C435 C442 1.409 . S
C436 H428 0.930 . S
C436 C434 1.419 . S
C436 C437 1.362 . S
C437 H429 0.930 . S
C437 C436 1.362 . S
C437 C440 1.409 . S
C438 H430 0.930 . S
C438 C439 1.355 . S
C438 C440 1.415 . S
C439 C438 1.355 . S
C439 C441 1.419 . S
C440 C435 1.425 . S
C440 C437 1.409 . S
C440 C438 1.415 . S
C441 H431 0.930 . S
C441 C439 1.419 . S
C441 C442 1.362 . S
C442 H432 0.930 . S
C442 C435 1.409 . S
C442 C441 1.362 . S
H443 C449 0.930 . S
H444 C452 0.930 . S
H445 C453 0.930 . S
H446 C454 0.930 . S
H447 C457 0.930 . S
H448 C458 0.930 . S
C449 H443 0.930 . S
C449 C450 1.355 . S
C449 C451 1.415 . S
C450 C449 1.355 . S
C450 C452 1.419 . S
C451 C449 1.415 . S
C451 C456 1.425 . S
C451 C458 1.409 . S
C452 H444 0.930 . S
C452 C450 1.419 . S
C452 C453 1.362 . S
C453 H445 0.930 . S
C453 C452 1.362 . S
C453 C456 1.409 . S
C454 H446 0.930 . S
C454 C455 1.355 . S
C454 C456 1.415 . S
C455 C454 1.355 . S
C455 C457 1.419 . S
C456 C451 1.425 . S
C456 C453 1.409 . S
C456 C454 1.415 . S
C457 H447 0.930 . S
C457 C455 1.419 . S
C457 C458 1.362 . S
C458 H448 0.930 . S
C458 C451 1.409 . S
C458 C457 1.362 . S
H459 C465 0.930 . S
H460 C468 0.930 . S
H461 C469 0.930 . S
H462 C470 0.930 . S
H463 C473 0.930 . S
H464 C474 0.930 . S
C465 H459 0.930 . S
C465 C466 1.355 . S
C465 C467 1.415 . S
C466 C465 1.355 . S
C466 C468 1.419 . S
C467 C465 1.415 . S
C467 C472 1.425 . S
C467 C474 1.409 . S
C468 H460 0.930 . S
C468 C466 1.419 . S
C468 C469 1.362 . S
C469 H461 0.930 . S
C469 C468 1.362 . S
C469 C472 1.409 . S
C470 H462 0.930 . S
C470 C471 1.355 . S
C470 C472 1.415 . S
C471 C470 1.355 . S
C471 C473 1.419 . S
C472 C467 1.425 . S
C472 C469 1.409 . S
C472 C470 1.415 . S
C473 H463 0.930 . S
C473 C471 1.419 . S
C473 C474 1.362 . S
C474 H464 0.930 . S
C474 C467 1.409 . S
C474 C473 1.362 . S
H475 C481 0.930 . S
H476 C484 0.930 . S
H477 C485 0.930 . S
H478 C486 0.930 . S
H479 C489 0.930 . S
H480 C490 0.930 . S
C481 H475 0.930 . S
C481 C482 1.355 . S
C481 C483 1.415 . S
C482 C481 1.355 . S
C482 C484 1.419 . S
C483 C481 1.415 . S
C483 C488 1.425 . S
C483 C490 1.409 . S
C484 H476 0.930 . S
C484 C482 1.419 . S
C484 C485 1.362 . S
C485 H477 0.930 . S
C485 C484 1.362 . S
C485 C488 1.409 . S
C486 H478 0.930 . S
C486 C487 1.355 . S
C486 C488 1.415 . S
C487 C486 1.355 . S
C487 C489 1.419 . S
C488 C483 1.425 . S
C488 C485 1.409 . S
C488 C486 1.415 . S
C489 H479 0.930 . S
C489 C487 1.419 . S
C489 C490 1.362 . S
C490 H480 0.930 . S
C490 C483 1.409 . S
C490 C489 1.362 . S
H491 C497 0.930 . S
H492 C500 0.930 . S
H493 C501 0.930 . S
H494 C502 0.930 . S
H495 C505 0.930 . S
H496 C506 0.930 . S
C497 H491 0.930 . S
C497 C498 1.355 . S
C497 C499 1.415 . S
C498 C497 1.355 . S
C498 C500 1.419 . S
C499 C497 1.415 . S
C499 C504 1.425 . S
C499 C506 1.409 . S
C500 H492 0.930 . S
C500 C498 1.419 . S
C500 C501 1.362 . S
C501 H493 0.930 . S
C501 C500 1.362 . S
C501 C504 1.409 . S
C502 H494 0.930 . S
C502 C503 1.355 . S
C502 C504 1.415 . S
C503 C502 1.355 . S
C503 C505 1.419 . S
C504 C499 1.425 . S
C504 C501 1.409 . S
C504 C502 1.415 . S
C505 H495 0.930 . S
C505 C503 1.419 . S
C505 C506 1.362 . S
C506 H496 0.930 . S
C506 C499 1.409 . S
C506 C505 1.362 . S
H507 C513 0.930 . S
H508 C516 0.930 . S
H509 C517 0.930 . S
H510 C518 0.930 . S
H511 C521 0.930 . S
H512 C522 0.930 . S
C513 H507 0.930 . S
C513 C514 1.355 . S
C513 C515 1.415 . S
C514 C513 1.355 . S
C514 C516 1.419 . S
C515 C513 1.415 . S
C515 C520 1.425 . S
C515 C522 1.409 . S
C516 H508 0.930 . S
C516 C514 1.419 . S
C516 C517 1.362 . S
C517 H509 0.930 . S
C517 C516 1.362 . S
C517 C520 1.409 . S
C518 H510 0.930 . S
C518 C519 1.355 . S
C518 C520 1.415 . S
C519 C518 1.355 . S
C519 C521 1.419 . S
C520 C515 1.425 . S
C520 C517 1.409 . S
C520 C518 1.415 . S
C521 H511 0.930 . S
C521 C519 1.419 . S
C521 C522 1.362 . S
C522 H512 0.930 . S
C522 C515 1.409 . S
C522 C521 1.362 . S
H523 C529 0.930 . S
H524 C532 0.930 . S
H525 C533 0.930 . S
H526 C534 0.930 . S
H527 C537 0.930 . S
H528 C538 0.930 . S
C529 H523 0.930 . S
C529 C530 1.355 . S
C529 C531 1.415 . S
C530 C529 1.355 . S
C530 C532 1.419 . S
C531 C529 1.415 . S
C531 C536 1.425 . S
C531 C538 1.409 . S
C532 H524 0.930 . S
C532 C530 1.419 . S
C532 C533 1.362 . S
C533 H525 0.930 . S
C533 C532 1.362 . S
C533 C536 1.409 . S
C534 H526 0.930 . S
C534 C535 1.355 . S
C534 C536 1.415 . S
C535 C534 1.355 . S
C535 C537 1.419 . S
C536 C531 1.425 . S
C536 C533 1.409 . S
C536 C534 1.415 . S
C537 H527 0.930 . S
C537 C535 1.419 . S
C537 C538 1.362 . S
C538 H528 0.930 . S
C538 C531 1.409 . S
C538 C537 1.362 . S
H539 C545 0.930 . S
H540 C548 0.930 . S
H541 C549 0.930 . S
H542 C550 0.930 . S
H543 C553 0.930 . S
H544 C554 0.930 . S
C545 H539 0.930 . S
C545 C546 1.355 . S
C545 C547 1.415 . S
C546 C545 1.355 . S
C546 C548 1.419 . S
C547 C545 1.415 . S
C547 C552 1.425 . S
C547 C554 1.409 . S
C548 H540 0.930 . S
C548 C546 1.419 . S
C548 C549 1.362 . S
C549 H541 0.930 . S
C549 C548 1.362 . S
C549 C552 1.409 . S
C550 H542 0.930 . S
C550 C551 1.355 . S
C550 C552 1.415 . S
C551 C550 1.355 . S
C551 C553 1.419 . S
C552 C547 1.425 . S
C552 C549 1.409 . S
C552 C550 1.415 . S
C553 H543 0.930 . S
C553 C551 1.419 . S
C553 C554 1.362 . S
C554 H544 0.930 . S
C554 C547 1.409 . S
C554 C553 1.362 . S
H555 C561 0.930 . S
H556 C564 0.930 . S
H557 C565 0.930 . S
H558 C566 0.930 . S
H559 C569 0.930 . S
H560 C570 0.930 . S
C561 H555 0.930 . S
C561 C562 1.355 . S
C561 C563 1.415 . S
C562 C561 1.355 . S
C562 C564 1.419 . S
C563 C561 1.415 . S
C563 C568 1.425 . S
C563 C570 1.409 . S
C564 H556 0.930 . S
C564 C562 1.419 . S
C564 C565 1.362 . S
C565 H557 0.930 . S
C565 C564 1.362 . S
C565 C568 1.409 . S
C566 H558 0.930 . S
C566 C567 1.355 . S
C566 C568 1.415 . S
C567 C566 1.355 . S
C567 C569 1.419 . S
C568 C563 1.425 . S
C568 C565 1.409 . S
C568 C566 1.415 . S
C569 H559 0.930 . S
C569 C567 1.419 . S
C569 C570 1.362 . S
C570 H560 0.930 . S
C570 C563 1.409 . S
C570 C569 1.362 . S
H571 C577 0.930 . S
H572 C580 0.930 . S
H573 C581 0.930 . S
H574 C582 0.930 . S
H575 C585 0.930 . S
H576 C586 0.930 . S
C577 H571 0.930 . S
C577 C578 1.355 . S
C577 C579 1.415 . S
C578 C577 1.355 . S
C578 C580 1.419 . S
C579 C577 1.415 . S
C579 C584 1.425 . S
C579 C586 1.409 . S
C580 H572 0.930 . S
C580 C578 1.419 . S
C580 C581 1.362 . S
C581 H573 0.930 . S
C581 C580 1.362 . S
C581 C584 1.409 . S
C582 H574 0.930 . S
C582 C583 1.355 . S
C582 C584 1.415 . S
C583 C582 1.355 . S
C583 C585 1.419 . S
C584 C579 1.425 . S
C584 C581 1.409 . S
C584 C582 1.415 . S
C585 H575 0.930 . S
C585 C583 1.419 . S
C585 C586 1.362 . S
C586 H576 0.930 . S
C586 C579 1.409 . S
C586 C585 1.362 . S
H587 C593 0.930 . S
H588 C596 0.930 . S
H589 C597 0.930 . S
H590 C598 0.930 . S
H591 C601 0.930 . S
H592 C602 0.930 . S
C593 H587 0.930 . S
C593 C594 1.355 . S
C593 C595 1.415 . S
C594 C593 1.355 . S
C594 C596 1.419 . S
C595 C593 1.415 . S
C595 C600 1.425 . S
C595 C602 1.409 . S
C596 H588 0.930 . S
C596 C594 1.419 . S
C596 C597 1.362 . S
C597 H589 0.930 . S
C597 C596 1.362 . S
C597 C600 1.409 . S
C598 H590 0.930 . S
C598 C599 1.355 . S
C598 C600 1.415 . S
C599 C598 1.355 . S
C599 C601 1.419 . S
C600 C595 1.425 . S
C600 C597 1.409 . S
C600 C598 1.415 . S
C601 H591 0.930 . S
C601 C599 1.419 . S
C601 C602 1.362 . S
C602 H592 0.930 . S
C602 C595 1.409 . S
C602 C601 1.362 . S
H603 C609 0.930 . S
H604 C612 0.930 . S
H605 C613 0.930 . S
H606 C614 0.930 . S
H607 C617 0.930 . S
H608 C618 0.930 . S
C609 H603 0.930 . S
C609 C610 1.355 . S
C609 C611 1.415 . S
C610 C609 1.355 . S
C610 C612 1.419 . S
C611 C609 1.415 . S
C611 C616 1.425 . S
C611 C618 1.409 . S
C612 H604 0.930 . S
C612 C610 1.419 . S
C612 C613 1.362 . S
C613 H605 0.930 . S
C613 C612 1.362 . S
C613 C616 1.409 . S
C614 H606 0.930 . S
C614 C615 1.355 . S
C614 C616 1.415 . S
C615 C614 1.355 . S
C615 C617 1.419 . S
C616 C611 1.425 . S
C616 C613 1.409 . S
C616 C614 1.415 . S
C617 H607 0.930 . S
C617 C615 1.419 . S
C617 C618 1.362 . S
C618 H608 0.930 . S
C618 C611 1.409 . S
C618 C617 1.362 . S
H619 C625 0.930 . S
H620 C628 0.930 . S
H621 C629 0.930 . S
H622 C630 0.930 . S
H623 C633 0.930 . S
H624 C634 0.930 . S
C625 H619 0.930 . S
C625 C626 1.355 . S
C625 C627 1.415 . S
C626 C625 1.355 . S
C626 C628 1.419 . S
C627 C625 1.415 . S
C627 C632 1.425 . S
C627 C634 1.409 . S
C628 H620 0.930 . S
C628 C626 1.419 . S
C628 C629 1.362 . S
C629 H621 0.930 . S
C629 C628 1.362 . S
C629 C632 1.409 . S
C630 H622 0.930 . S
C630 C631 1.355 . S
C630 C632 1.415 . S
C631 C630 1.355 . S
C631 C633 1.419 . S
C632 C627 1.425 . S
C632 C629 1.409 . S
C632 C630 1.415 . S
C633 H623 0.930 . S
C633 C631 1.419 . S
C633 C634 1.362 . S
C634 H624 0.930 . S
C634 C627 1.409 . S
C634 C633 1.362 . S
C263 C176 1.479 . S
C258 C11 1.460 . S
C279 C212 1.318 . S
C274 C25 1.324 . S
C295 C177 1.792 . S
C290 C40 1.771 . S
C311 C207 1.559 . S
C306 C59 1.655 . S
C327 C174 1.411 . S
C322 C82 1.501 . S
C338 C101 2.019 . S
C343 C210 2.034 . S
C354 C116 0.630 . S
C359 C179 0.755 . S
C375 C209 1.542 . S
C370 C144 1.368 . S
C391 C213 1.930 . S
C386 C2 1.938 . S
C407 C178 1.006 . S
C402 C21 1.002 . S
C423 C206 1.657 . S
C418 C49 1.318 . S
C439 C175 1.170 . S
C434 C63 1.348 . S
C455 C208 1.767 . S
C450 C78 1.916 . S
C466 C106 1.351 . S
C471 C173 1.377 . S
C482 C120 1.071 . S
C487 C211 1.120 . S
C503 C180 1.673 . S
C498 C135 1.742 . S
C519 C242 1.926 . S
C514 C6 2.046 . S
C530 C87 1.666 . S
C535 C245 1.716 . S
C551 C244 2.177 . S
C546 C97 2.190 . S
C562 C125 0.992 . S
C567 C243 1.029 . S
C583 C246 1.996 . S
C578 C139 2.126 . S
C594 C44 2.022 . S
C599 C240 1.920 . S
C615 C239 1.919 . S
C610 C68 1.831 . S
C626 C30 0.834 . S
C631 C241 0.892 . S
