# Generated by pormake.
# Topology pts, (4,4)-cn, num edge types: 1
# Building blocks:
#     Node 0, Type 0, BuildingBlock: NAHDIM_clean_linker_0, # of connection points: 4
#     Node 1, Type 0, BuildingBlock: NAHDIM_clean_linker_0, # of connection points: 4
#     Node 2, Type 1, BuildingBlock: UXUYUI_clean_sbu_0, # of connection points: 4
#     Node 3, Type 1, BuildingBlock: UXUYUI_clean_sbu_0, # of connection points: 4
#     Edge 4, Type (0, 1), BuildingBlock: OJICUG_clean_linker_0, # of connection points: 2
#     Edge 5, Type (0, 1), BuildingBlock: OJICUG_clean_linker_0, # of connection points: 2
#     Edge 6, Type (0, 1), BuildingBlock: OJICUG_clean_linker_0, # of connection points: 2
#     Edge 7, Type (0, 1), BuildingBlock: OJICUG_clean_linker_0, # of connection points: 2
#     Edge 8, Type (0, 1), BuildingBlock: OJICUG_clean_linker_0, # of connection points: 2
#     Edge 9, Type (0, 1), BuildingBlock: OJICUG_clean_linker_0, # of connection points: 2
#     Edge 10, Type (0, 1), BuildingBlock: OJICUG_clean_linker_0, # of connection points: 2
#     Edge 11, Type (0, 1), BuildingBlock: OJICUG_clean_linker_0, # of connection points: 2
# Relax obj value: 0.022
# Max RMSD: 0.066
# Mean RMSD: 0.065
data_MOF--net-pts--node1-UXUYUI_clean_sbu_0--node2-NAHDIM_clean_linker_0--edge1-OJICUG_clean_linker_0
_symmetry_space_group_name_H-M    P1
_symmetry_Int_Tables_number       1
_symmetry_cell_setting            triclinic
loop_
_symmetry_equiv_pos_as_xyz
'x, y, z'
_cell_length_a     31.864055
_cell_length_b     31.880502
_cell_length_c     51.750799
_cell_angle_alpha  90.478987
_cell_angle_beta   89.504817
_cell_angle_gamma 90.005485
loop_
_atom_site_label
_atom_site_type_symbol
_atom_site_fract_x
_atom_site_fract_y
_atom_site_fract_z
_atom_type_partial_charge
C0 C 0.67327 0.08403 0.17582 0.0
C1 C 0.69558 0.04861 0.16103 0.0
C2 C 0.67066 0.04433 0.11685 0.0
C3 C 0.65938 0.00188 0.11506 0.0
C4 C 0.62867 0.98855 0.09754 0.0
C5 C 0.60904 0.01836 0.08155 0.0
C6 C 0.62225 0.06076 0.08227 0.0
C7 C 0.65344 0.07306 0.09974 0.0
C8 C 0.61614 0.94294 0.09674 0.0
C9 C 0.60202 0.09342 0.0655 0.0
C10 C 0.2749 0.03467 0.1376 0.0
C11 C 0.31279 0.04369 0.12167 0.0
C12 C 0.38152 0.0134 0.11181 0.0
C13 C 0.39423 0.0447 0.09446 0.0
C14 C 0.43149 0.04049 0.08007 0.0
C15 C 0.45576 0.00352 0.08237 0.0
C16 C 0.4429 0.97184 0.09971 0.0
C17 C 0.40617 0.97752 0.11447 0.0
C18 C 0.44499 0.07583 0.06259 0.0
C19 C 0.46793 0.93201 0.10266 0.0
C20 C 0.37992 0.98442 0.91781 0.0
C21 C 0.39887 0.02035 0.92856 0.0
C22 C 0.43741 0.01774 0.94129 0.0
C23 C 0.45714 0.97826 0.94393 0.0
C24 C 0.43853 0.94208 0.93296 0.0
C25 C 0.40024 0.94573 0.91988 0.0
C26 C 0.45671 0.05732 0.95223 0.0
C27 C 0.45871 0.89954 0.93547 0.0
C28 C 0.78182 0.95872 0.92529 0.0
C29 C 0.7575 0.9563 0.89987 0.0
C30 C 0.68781 0.98144 0.91404 0.0
C31 C 0.66221 0.01693 0.91569 0.0
C32 C 0.62469 0.01661 0.93007 0.0
C33 C 0.6121 0.97943 0.94271 0.0
C34 C 0.63724 0.94299 0.94059 0.0
C35 C 0.67503 0.94442 0.92649 0.0
C36 C 0.59872 0.05613 0.93195 0.0
C37 C 0.62427 0.90254 0.95335 0.0
C38 C 0.57127 0.00642 0.06665 0.0
C39 C 0.53295 0.00677 0.07996 0.0
C40 C 0.4953 -0.00121 0.06727 0.0
C41 C 0.49563 0.98985 0.04048 0.0
C42 C 0.45829 0.98153 0.02711 0.0
C43 C 0.45858 0.97596 0.00044 0.0
C44 C 0.49631 0.97782 0.9862 0.0
C45 C 0.49655 0.9752 0.95892 0.0
C46 C 0.53471 0.97485 0.94541 0.0
C47 C 0.57286 0.97881 0.95838 0.0
C48 C 0.5731 0.98398 0.98558 0.0
C49 C 0.61067 0.99054 0.99915 0.0
C50 C 0.61029 0.99723 0.02579 0.0
C51 C 0.57234 0.99767 0.03983 0.0
C52 C 0.53426 0.98986 0.02666 0.0
C53 C 0.53462 0.98337 0.9995 0.0
C54 C 0.29122 0.02662 0.92884 0.0
C55 C 0.31556 0.01969 0.90346 0.0
O56 O 0.69775 0.05847 0.135 0.0
O57 O 0.72439 0.98454 0.90041 0.0
O58 O 0.34225 0.98552 0.90554 0.0
O59 O 0.34597 0.01674 0.12635 0.0
H60 H 0.67672 0.01968 0.16417 0.0
H61 H 0.64064 0.08728 0.16872 0.0
H62 H 0.68976 0.11439 0.17302 0.0
H63 H 0.67189 0.07692 0.1968 0.0
H64 H 0.67422 0.97925 0.12752 0.0
H65 H 0.66307 0.10562 0.10099 0.0
H66 H 0.58425 0.93944 0.10528 0.0
H67 H 0.63817 0.92287 0.10767 0.0
H68 H 0.61486 0.93156 0.07642 0.0
H69 H 0.61588 0.12507 0.06842 0.0
H70 H 0.56787 0.09509 0.06987 0.0
H71 H 0.60562 0.08443 0.04484 0.0
H72 H 0.32206 0.0774 0.12132 0.0
H73 H 0.27029 0.06344 0.15008 0.0
H74 H 0.28545 0.01432 0.15403 0.0
H75 H 0.23043 0.01489 0.11042 0.0
H76 H 0.37565 0.07283 0.09232 0.0
H77 H 0.39613 0.95359 0.12794 0.0
H78 H 0.44027 0.06639 0.04214 0.0
H79 H 0.47886 0.08284 0.06511 0.0
H80 H 0.42676 0.10498 0.06634 0.0
H81 H 0.45103 0.90834 0.11446 0.0
H82 H 0.49817 0.93938 0.11218 0.0
H83 H 0.47527 0.91814 0.08339 0.0
H84 H 0.33408 0.04834 0.89904 0.0
H85 H 0.38394 0.05068 0.92734 0.0
H86 H 0.38559 0.91816 0.91152 0.0
H87 H 0.45378 0.05716 0.97362 0.0
H88 H 0.44114 0.08605 0.945 0.0
H89 H 0.49064 0.0589 0.94727 0.0
H90 H 0.43923 0.87412 0.92697 0.0
H91 H 0.4641 0.89262 0.95618 0.0
H92 H 0.48978 0.89961 0.9256 0.0
H93 H 0.74534 0.92393 0.89695 0.0
H94 H 0.80867 0.93649 0.9248 0.0
H95 H 0.7612 0.95021 0.94182 0.0
H96 H 0.7939 0.99101 0.9286 0.0
H97 H 0.67217 0.04526 0.90596 0.0
H98 H 0.69417 0.91648 0.92536 0.0
H99 H 0.59169 0.06377 0.95251 0.0
H100 H 0.56832 0.05109 0.92207 0.0
H101 H 0.61474 0.08339 0.92298 0.0
H102 H 0.64491 0.87588 0.94766 0.0
H103 H 0.59141 0.89463 0.94824 0.0
H104 H 0.6255 0.90647 0.97466 0.0
H105 H 0.5323 0.01454 0.10042 0.0
H106 H 0.42831 0.98004 0.03706 0.0
H107 H 0.4288 0.97047 0.99108 0.0
H108 H 0.53466 0.97285 0.92447 0.0
H109 H 0.64075 0.99118 0.98928 0.0
H110 H 0.64004 0.00253 0.03523 0.0
H111 H 0.26937 0.05359 0.92703 0.0
H112 H 0.31311 0.03367 0.94486 0.0
H113 H 0.2729 0.99817 0.93396 0.0
C114 C 0.12617 0.37539 0.68067 0.0
C115 C 0.09095 0.35578 0.6647 0.0
C116 C 0.08822 0.38136 0.62054 0.0
C117 C 0.04546 0.39126 0.61866 0.0
C118 C 0.03162 0.42081 0.60067 0.0
C119 C 0.06121 0.4407 0.58432 0.0
C120 C 0.10406 0.42904 0.58531 0.0
C121 C 0.11686 0.39893 0.6032 0.0
C122 C 0.98559 0.43168 0.59963 0.0
C123 C 0.1366 0.44965 0.56826 0.0
C124 C 0.06639 0.77544 0.63548 0.0
C125 C 0.07558 0.7379 0.6192 0.0
C126 C 0.04675 0.66866 0.60936 0.0
C127 C 0.07939 0.65609 0.59257 0.0
C128 C 0.07706 0.61814 0.57878 0.0
C129 C 0.04056 0.59302 0.58098 0.0
C130 C 0.0074 0.60585 0.59762 0.0
C131 C 0.01125 0.64328 0.61187 0.0
C132 C 0.114 0.60481 0.56213 0.0
C133 C 0.96801 0.57996 0.60045 0.0
C134 C 0.03751 0.65617 0.41293 0.0
C135 C 0.07282 0.64018 0.42567 0.0
C136 C 0.07022 0.60308 0.43993 0.0
C137 C 0.03133 0.58182 0.44196 0.0
C138 C 0.99584 0.59748 0.42898 0.0
C139 C -0.00046 0.63434 0.41445 0.0
C140 C 0.10911 0.5868 0.45301 0.0
C141 C 0.95395 0.57562 0.43076 0.0
C142 C 0.04311 0.25448 0.43404 0.0
C143 C 0.02871 0.27639 0.40943 0.0
C144 C 0.04602 0.35008 0.41842 0.0
C145 C 0.08106 0.37572 0.42206 0.0
C146 C 0.0778 0.41401 0.43549 0.0
C147 C 0.03818 0.42736 0.44496 0.0
C148 C 0.00229 0.40232 0.44059 0.0
C149 C 0.00655 0.36383 0.42749 0.0
C150 C 0.11673 0.44001 0.4398 0.0
C151 C 0.95939 0.41634 0.44977 0.0
C152 C 0.04834 0.47684 0.56836 0.0
C153 C 0.04593 0.51593 0.58067 0.0
C154 C 0.0381 0.55243 0.56681 0.0
C155 C 0.0322 0.55007 0.53979 0.0
C156 C 0.02434 0.58618 0.5252 0.0
C157 C 0.02223 0.58403 0.49839 0.0
C158 C 0.02716 0.54555 0.48523 0.0
C159 C 0.02818 0.54346 0.45793 0.0
C160 C 0.03098 0.50452 0.44544 0.0
C161 C 0.03427 0.46745 0.45952 0.0
C162 C 0.03555 0.46909 0.48683 0.0
C163 C 0.04101 0.43262 0.50157 0.0
C164 C 0.0444 0.43492 0.52836 0.0
C165 C 0.04237 0.47374 0.54138 0.0
C166 C 0.03502 0.51065 0.527 0.0
C167 C 0.03205 0.50836 0.49969 0.0
C168 C 0.07092 0.74729 0.42389 0.0
C169 C 0.07044 0.72199 0.39854 0.0
O170 O 0.10282 0.35508 0.63886 0.0
O171 O 0.05163 0.31288 0.4058 0.0
O172 O 0.03851 0.69239 0.39918 0.0
O173 O 0.04848 0.70463 0.62359 0.0
H174 H 0.06265 0.3757 0.66788 0.0
H175 H 0.13163 0.40819 0.67438 0.0
H176 H 0.15587 0.35751 0.67809 0.0
H177 H 0.1174 0.37592 0.7015 0.0
H178 H 0.02294 0.37613 0.63131 0.0
H179 H 0.14968 0.39036 0.60454 0.0
H180 H 0.98074 0.46378 0.60758 0.0
H181 H 0.96597 0.40949 0.61094 0.0
H182 H 0.97478 0.43161 0.57928 0.0
H183 H 0.16885 0.4383 0.57222 0.0
H184 H 0.13577 0.4842 0.57117 0.0
H185 H 0.12943 0.4432 0.54766 0.0
H186 H 0.10933 0.72868 0.61876 0.0
H187 H 0.09491 0.77966 0.64794 0.0
H188 H 0.04561 0.76457 0.65185 0.0
H189 H 0.04738 0.82054 0.60873 0.0
H190 H 0.1072 0.67523 0.59046 0.0
H191 H 0.98625 0.65319 0.62488 0.0
H192 H 0.10624 0.60926 0.54148 0.0
H193 H 0.12122 0.57109 0.56495 0.0
H194 H 0.14261 0.62343 0.56642 0.0
H195 H 0.94295 0.59701 0.61128 0.0
H196 H 0.97537 0.5507 0.61097 0.0
H197 H 0.95592 0.57085 0.58114 0.0
H198 H 0.10119 0.70607 0.39564 0.0
H199 H 0.1026 0.65632 0.42468 0.0
H200 H 0.97248 0.64674 0.40451 0.0
H201 H 0.1059 0.59127 0.47422 0.0
H202 H 0.13796 0.60331 0.44647 0.0
H203 H 0.113 0.5527 0.44916 0.0
H204 H 0.92873 0.59326 0.4209 0.0
H205 H 0.94491 0.57144 0.45135 0.0
H206 H 0.95643 0.54393 0.42182 0.0
H207 H 0.99479 0.2835 0.41154 0.0
H208 H 0.02552 0.22472 0.43678 0.0
H209 H 0.03706 0.27502 0.4511 0.0
H210 H 0.07725 0.24747 0.43302 0.0
H211 H 0.11127 0.36513 0.41476 0.0
H212 H 0.97871 0.34538 0.42407 0.0
H213 H 0.12048 0.44669 0.46075 0.0
H214 H 0.11347 0.47058 0.42989 0.0
H215 H 0.14554 0.42417 0.43243 0.0
H216 H 0.93419 0.39443 0.44363 0.0
H217 H 0.9524 0.44802 0.44213 0.0
H218 H 0.95895 0.41869 0.47118 0.0
H219 H 0.05175 0.51817 0.60128 0.0
H220 H 0.02065 0.61667 0.53432 0.0
H221 H 0.01707 0.61295 0.48807 0.0
H222 H 0.03184 0.50313 0.42449 0.0
H223 H 0.04345 0.40196 0.49253 0.0
H224 H 0.04916 0.40598 0.53874 0.0
H225 H 0.0963 0.77118 0.42338 0.0
H226 H 0.07674 0.72643 0.44053 0.0
H227 H 0.04033 0.76337 0.42706 0.0
Li228 Li 0.04344 0.04132 0.26881 0.0
Li229 Li 0.03684 0.96465 0.26536 0.0
Li230 Li 0.06942 0.00333 0.23012 0.0
Li231 Li 0.99426 0.0075 0.23997 0.0
C232 C 0.11226 0.99171 0.28771 0.0
N233 N 0.1577 0.97564 0.33177 0.0
C234 C 0.09173 0.98771 0.31156 0.0
C235 C 0.15586 0.98751 0.28628 0.0
C236 C 0.11527 0.97955 0.33361 0.0
C237 C 0.17829 0.97947 0.30878 0.0
C238 C 0.95299 0.00812 0.28372 0.0
C239 C 0.88347 0.97807 0.28265 0.0
N240 N 0.86756 0.01412 0.29298 0.0
C241 C 0.93598 0.0446 0.29471 0.0
C242 C 0.92656 0.97435 0.27801 0.0
C243 C 0.89273 0.04711 0.29912 0.0
C244 C 0.02145 0.12017 0.2874 0.0
N245 N 0.05104 0.0899 0.29021 0.0
C246 C 0.08157 0.12767 0.32546 0.0
C247 C 0.08196 0.09397 0.30803 0.0
C248 C 0.04931 0.15761 0.32431 0.0
C249 C 0.01983 0.15433 0.30438 0.0
H250 H 0.99795 0.11679 0.27255 0.0
H251 H 0.10632 0.07068 0.30933 0.0
C252 C 0.07255 0.88745 0.28182 0.0
N253 N 0.04035 0.91489 0.28549 0.0
C254 C 0.0769 0.85296 0.29807 0.0
C255 C 0.01526 0.87604 0.32172 0.0
C256 C 0.01192 0.90976 0.30491 0.0
C257 C 0.04824 0.84714 0.31857 0.0
H258 H 0.09534 0.89284 0.26661 0.0
H259 H 0.98746 0.93271 0.30799 0.0
C260 C 0.05554 0.08938 0.22554 0.0
N261 N 0.10099 0.1597 0.21189 0.0
C262 C 0.03705 0.12064 0.2107 0.0
C263 C 0.09712 0.09394 0.23355 0.0
C264 C 0.06056 0.15596 0.20397 0.0
C265 C 0.11958 0.1297 0.2264 0.0
C266 C 0.0308 0.91583 0.22434 0.0
C267 C 0.06736 0.8992 0.21321 0.0
C268 C -0.00121 0.88871 0.2323 0.0
C269 C 0.07163 0.85574 0.21067 0.0
C270 C 0.00427 0.84543 0.22949 0.0
N271 N 0.0403 0.82997 0.21884 0.0
C272 C 0.14809 0.98558 0.20626 0.0
C273 C 0.10088 0.02591 0.18145 0.0
C274 C 0.17835 0.98756 0.18662 0.0
N275 N 0.11032 0.00469 0.20332 0.0
C276 C 0.13056 0.02957 0.16164 0.0
C277 C 0.16974 0.01022 0.16419 0.0
H278 H 0.15457 0.96869 0.22381 0.0
H279 H 0.07039 0.04038 0.17952 0.0
C280 C 0.9226 0.05295 0.22604 0.0
N281 N 0.9411 0.0146 0.22456 0.0
C282 C 0.88302 0.0592 0.21539 0.0
C283 C 0.88253 0.9864 0.20182 0.0
C284 C 0.9222 0.98164 0.2126 0.0
C285 C 0.86243 0.02558 0.20319 0.0
H286 H 0.93851 0.07853 0.23573 0.0
H287 H 0.93786 0.95162 0.21154 0.0
O288 O 0.0898 -0.00152 0.26573 0.0
O289 O 0.99523 0.00535 0.2787 0.0
O290 O 0.03276 0.05468 0.23225 0.0
O291 O 0.02627 0.95836 0.22724 0.0
H292 H 0.05803 0.99111 0.31307 0.0
H293 H 0.17224 0.99051 0.26799 0.0
H294 H 0.09981 0.97637 0.35218 0.0
H295 H 0.21207 0.9762 0.30795 0.0
H296 H 0.86268 0.95232 0.27801 0.0
H297 H 0.95584 0.07063 0.29997 0.0
H298 H 0.93913 0.94572 0.26981 0.0
H299 H 0.87918 0.07529 0.30748 0.0
H300 H 0.1051 0.1291 0.34042 0.0
H301 H 0.99506 0.1773 0.30236 0.0
H302 H 0.10268 0.83141 0.29476 0.0
H303 H 0.99307 0.87361 0.3376 0.0
H304 H 0.00485 0.1176 0.20443 0.0
H305 H 0.11197 0.07016 0.24511 0.0
H306 H 0.04666 0.18039 0.19246 0.0
H307 H 0.15179 0.1336 0.23241 0.0
H308 H 0.09226 0.91952 0.20664 0.0
H309 H 0.97014 0.90082 0.24075 0.0
H310 H 0.09989 0.8425 0.20221 0.0
H311 H 0.97988 0.82414 0.23578 0.0
H312 H 0.20847 0.97252 0.18926 0.0
H313 H 0.12271 0.04689 0.14443 0.0
H314 H 0.8684 0.08978 0.21708 0.0
H315 H 0.86791 0.95985 0.19231 0.0
Li316 Li 0.99707 0.01217 0.76528 0.0
Li317 Li 0.0744 0.00695 0.768 0.0
Li318 Li 0.04004 0.05562 0.73973 0.0
Li319 Li 0.03651 0.98054 0.729 0.0
C320 C 0.04372 0.09575 0.78319 0.0
N321 N 0.05738 0.18046 0.79122 0.0
C322 C 0.0836 0.11028 0.78986 0.0
C323 C 0.01067 0.12428 0.7809 0.0
C324 C 0.08989 0.15322 0.7938 0.0
C325 C 0.01824 0.16699 0.78494 0.0
C326 C 0.03029 0.9286 0.78191 0.0
C327 C 0.04021 0.85569 0.79239 0.0
N328 N 0.0245 0.8632 0.8165 0.0
C329 C 0.01424 0.93557 0.80681 0.0
C330 C 0.04333 0.88832 0.77462 0.0
C331 C 0.01158 0.90212 0.82401 0.0
C332 C 0.9217 0.97287 0.78151 0.0
N333 N 0.9473 0.00634 0.78556 0.0
C334 C 0.90681 0.02764 0.82243 0.0
C335 C 0.94033 0.03378 0.80536 0.0
C336 C 0.88023 0.99284 0.81912 0.0
C337 C 0.88764 0.96566 0.79802 0.0
H338 H 0.92849 0.95112 0.76588 0.0
H339 H 0.96177 0.05952 0.80851 0.0
C340 C 0.15896 0.01683 0.78276 0.0
N341 N 0.12165 -0.00014 0.79021 0.0
C342 C 0.19317 0.01666 0.7994 0.0
C343 C 0.15031 0.98111 0.8311 0.0
C344 C 0.11689 0.98204 0.81383 0.0
C345 C 0.1889 -0.00077 0.82411 0.0
H346 H 0.16179 0.0321 0.76427 0.0
H347 H 0.08677 0.97006 0.81979 0.0
C348 C 0.94854 0.02061 0.72508 0.0
N349 N 0.86229 0.01419 0.72136 0.0
C350 C 0.93046 0.98574 0.71299 0.0
C351 C 0.92274 0.05246 0.735 0.0
C352 C 0.8868 0.98302 0.71137 0.0
C353 C 0.87922 0.04856 0.73303 0.0
C354 C 0.12212 0.99503 0.72316 0.0
C355 C 0.15114 0.01275 0.70604 0.0
C356 C 0.12842 0.95425 0.73205 0.0
C357 C 0.186 0.98928 0.69805 0.0
C358 C 0.16366 0.9318 0.72361 0.0
N359 N 0.19148 0.94963 0.70692 0.0
C360 C 0.08673 0.12534 0.7242 0.0
C361 C 0.01421 0.13038 0.71478 0.0
C362 C 0.09405 0.16493 0.71382 0.0
N363 N 0.04729 0.10914 0.72464 0.0
C364 C 0.02008 0.17015 0.70424 0.0
C365 C 0.06043 0.18793 0.70373 0.0
H366 H 0.1124 0.10759 0.7322 0.0
H367 H 0.98328 0.11653 0.71516 0.0
C368 C 0.01671 0.90274 0.7048 0.0
N369 N 0.03727 0.93983 0.70207 0.0
C370 C 0.01853 0.87254 0.68509 0.0
C371 C 0.06268 0.91931 0.66031 0.0
C372 C 0.05929 0.94888 0.68021 0.0
C373 C 0.04228 0.88061 0.66274 0.0
H374 H -0.00101 0.89664 0.72228 0.0
H375 H 0.07454 0.979 0.6783 0.0
O376 O 0.03723 0.05394 0.77851 0.0
O377 O 0.03215 0.96064 0.76448 0.0
O378 O 0.99123 0.02356 0.72714 0.0
O379 O 0.08768 0.01764 0.73094 0.0
H380 H 0.10951 0.08872 0.79178 0.0
H381 H 0.97962 0.11366 0.77571 0.0
H382 H 0.12066 0.1649 0.79882 0.0
H383 H 0.99304 0.18944 0.78298 0.0
H384 H 0.05022 0.82438 0.78699 0.0
H385 H 0.0046 0.9666 0.81299 0.0
H386 H 0.05578 0.88226 0.75543 0.0
H387 H -0.00064 0.90714 0.84336 0.0
H388 H 0.90291 0.04897 0.83866 0.0
H389 H 0.86776 0.93868 0.79454 0.0
H390 H 0.22239 0.03089 0.7932 0.0
H391 H 0.14536 0.96811 0.85015 0.0
H392 H 0.94988 0.96098 0.70501 0.0
H393 H 0.93612 0.07962 0.74446 0.0
H394 H 0.8724 0.9561 0.70217 0.0
H395 H 0.85889 0.07281 0.74082 0.0
H396 H 0.14668 0.04429 0.69897 0.0
H397 H 0.10644 0.94008 0.74536 0.0
H398 H 0.20869 0.00258 0.68478 0.0
H399 H 0.16889 0.90021 0.73033 0.0
H400 H 0.12555 0.17766 0.7141 0.0
H401 H 0.99342 0.18661 0.69636 0.0
H402 H 0.00255 0.84286 0.68763 0.0
H403 H 0.08068 0.92689 0.64313 0.0
C404 C 0.27596 0.97479 0.11192 0.0
C405 C 0.28696 0.02959 0.10153 0.0
H406 H 0.22967 0.94043 0.14516 0.0
C407 C 0.2472 0.07219 0.10358 0.0
H408 H 0.29787 0.94945 0.10829 0.0
C409 C 0.20676 0.06425 0.12749 0.0
C410 C 0.20182 0.01459 0.14385 0.0
H411 H 0.25296 0.1029 0.09555 0.0
H412 H 0.18586 0.08984 0.13246 0.0
C413 C 0.23463 0.97011 0.13565 0.0
C414 C 0.04647 0.30342 0.68911 0.0
C415 C 0.08197 0.3117 0.6737 0.0
H416 H 0.01192 0.25788 0.71076 0.0
C417 C 0.1101 0.27891 0.66797 0.0
H418 H 0.02459 0.32826 0.69409 0.0
C419 C 0.10289 0.23866 0.67747 0.0
C420 C 0.06745 0.23037 0.69298 0.0
H421 H 0.13789 0.28457 0.65631 0.0
H422 H 0.12502 0.21398 0.67262 0.0
C423 C 0.03918 0.26314 0.69857 0.0
C424 C 0.77074 0.07234 0.1672 0.0
C425 C 0.73931 0.04214 0.17132 0.0
H426 H 0.83442 0.09064 0.17391 0.0
C427 C 0.74868 0.00645 0.18592 0.0
H428 H 0.76426 0.10019 0.15607 0.0
C429 C 0.78872 0.00095 0.19611 0.0
C430 C 0.82011 0.03123 0.19208 0.0
H431 H 0.72493 0.98288 0.18959 0.0
H432 H 0.79491 0.97335 0.20752 0.0
C433 C 0.81073 0.06698 0.17752 0.0
C434 C 0.00693 0.7753 0.61004 0.0
C435 C 0.06188 0.76415 0.59932 0.0
H436 H 0.97229 0.82122 0.64374 0.0
C437 C 0.10472 0.80354 0.60151 0.0
H438 H 0.98149 0.75365 0.60634 0.0
C439 C 0.09668 0.84352 0.62575 0.0
C440 C 0.04675 0.84854 0.64235 0.0
H441 H 0.13554 0.79775 0.59329 0.0
H442 H 0.12237 0.86414 0.63072 0.0
C443 C 0.00213 0.8162 0.6341 0.0
C444 C 0.27591 0.04565 0.86471 0.0
C445 C 0.28516 0.01265 0.88155 0.0
H446 H 0.23841 0.06728 0.83351 0.0
C447 C 0.26335 0.97452 0.8789 0.0
H448 H 0.29167 0.07562 0.8666 0.0
C449 C 0.23271 0.9697 0.85989 0.0
C450 C 0.22328 0.00291 0.84319 0.0
H451 H 0.2695 0.94876 0.89185 0.0
H452 H 0.21621 0.94009 0.85837 0.0
C453 C 0.2455 0.04079 0.8457 0.0
C454 C -0.00057 0.22688 0.37579 0.0
C455 C 0.03433 0.2476 0.38627 0.0
H456 H 0.97686 0.18239 0.34815 0.0
C457 C 0.0744 0.23934 0.37581 0.0
H458 H 0.96828 0.23214 0.38372 0.0
C459 C 0.07938 0.21081 0.3553 0.0
C460 C 0.04438 0.18999 0.34491 0.0
H461 H 0.10188 0.25459 0.38371 0.0
H462 H 0.11059 0.20495 0.34766 0.0
C463 C 0.00436 0.19856 0.35531 0.0
C464 C 0.79436 0.00759 0.86983 0.0
C465 C 0.78679 0.96604 0.87752 0.0
H466 H 0.8286 0.04854 0.84478 0.0
C467 C 0.80956 0.93346 0.86553 0.0
H468 H 0.77791 0.03347 0.87907 0.0
C469 C 0.83912 0.9421 0.84623 0.0
C470 C 0.84676 0.98362 0.83848 0.0
H471 H 0.80506 0.90128 0.8715 0.0
H472 H 0.85694 0.91627 0.83798 0.0
C473 C 0.82373 0.01624 0.85037 0.0
C474 C 0.02394 0.76263 0.36783 0.0
C475 C 0.0643 0.75149 0.37612 0.0
H476 H 0.98728 0.80016 0.34248 0.0
C477 C 0.09931 0.77111 0.3648 0.0
H478 H 0.99628 0.74867 0.37651 0.0
C479 C 0.09417 0.80131 0.34569 0.0
C480 C 0.05382 0.81268 0.33745 0.0
H481 H 0.1307 0.76378 0.37124 0.0
H482 H 0.12182 0.81677 0.33806 0.0
C483 C 0.0188 0.79252 0.34852 0.0
loop_
_geom_bond_atom_site_label_1
_geom_bond_atom_site_label_2
_geom_bond_distance
_geom_bond_site_symmetry_2
_ccdc_geom_bond_type
C0 C1 1.560 . S
C0 H61 0.959 . S
C0 H62 0.959 . S
C0 H63 0.960 . S
C1 C0 1.560 . S
C1 O56 1.426 . S
C1 H60 0.980 . S
C2 C3 1.407 1_545 S
C2 C7 1.418 . S
C2 O56 1.334 . S
C3 C2 1.407 1_565 S
C3 C4 1.360 . S
C3 H64 0.929 . S
C4 C3 1.360 . S
C4 C5 1.401 1_565 S
C4 C8 1.527 . S
C5 C4 1.401 1_545 S
C5 C6 1.405 . S
C5 C38 1.587 1_545 S
C6 C5 1.405 . S
C6 C7 1.332 . S
C6 C9 1.496 . S
C7 C2 1.418 . S
C7 C6 1.332 . S
C7 H65 0.929 . S
C8 C4 1.527 . S
C8 H66 0.959 . S
C8 H67 0.961 . S
C8 H68 0.961 . S
C9 C6 1.496 . S
C9 H69 0.960 . S
C9 H70 0.960 . S
C9 H71 0.961 . S
C10 C11 1.517 . S
C10 H73 0.969 . S
C10 H74 0.960 . S
C10 H75 0.959 . S
C11 C10 1.517 . S
C11 O59 1.468 . S
C11 H72 0.980 1_565 S
C12 C13 1.368 . S
C12 C17 1.367 . S
C12 O59 1.408 . S
C13 C12 1.368 . S
C13 C14 1.404 1_565 S
C13 H76 0.914 1_565 S
C14 C13 1.404 1_545 S
C14 C15 1.449 1_545 S
C14 C18 1.535 . S
C15 C14 1.449 1_565 S
C15 C16 1.384 . S
C15 C40 1.553 . S
C16 C15 1.384 . S
C16 C17 1.364 . S
C16 C19 1.450 . S
C17 C12 1.367 . S
C17 C16 1.364 . S
C17 H77 0.931 . S
C18 C14 1.535 . S
C18 H78 0.959 . S
C18 H79 0.961 . S
C18 H80 0.959 . S
C19 C16 1.450 . S
C19 H81 0.960 . S
C19 H82 0.960 . S
C19 H83 0.960 . S
C20 C21 1.309 1_565 S
C20 C25 1.304 . S
C20 O58 1.435 . S
C21 C20 1.309 1_545 S
C21 C22 1.476 . S
C21 H85 0.930 . S
C22 C21 1.476 . S
C22 C23 1.400 1_545 S
C22 C26 1.567 . S
C23 C22 1.400 1_565 S
C23 C24 1.373 . S
C23 C45 1.432 . S
C24 C23 1.373 . S
C24 C25 1.339 . S
C24 C27 1.530 . S
C25 C20 1.304 . S
C25 C24 1.339 . S
C25 H86 0.930 . S
C26 C22 1.567 . S
C26 H87 0.961 . S
C26 H88 0.960 . S
C26 H89 0.958 . S
C27 C24 1.530 . S
C27 H90 0.961 . S
C27 H91 0.960 . S
C27 H92 0.960 . S
C28 C29 1.530 . S
C28 H94 0.961 . S
C28 H95 0.961 . S
C28 H96 0.959 . S
C29 C28 1.530 . S
C29 O57 1.412 . S
C29 H93 0.980 . S
C30 C31 1.288 . S
C30 C35 1.377 1_545 S
C30 O57 1.393 . S
C31 C30 1.288 . S
C31 C32 1.369 . S
C31 H97 0.932 . S
C32 C31 1.369 . S
C32 C33 1.398 . S
C32 C36 1.527 . S
C33 C32 1.398 . S
C33 C34 1.380 1_545 S
C33 C47 1.497 . S
C34 C33 1.380 1_565 S
C34 C35 1.383 . S
C34 C37 1.603 . S
C35 C30 1.377 1_565 S
C35 C34 1.383 . S
C35 H98 0.929 . S
C36 C32 1.527 . S
C36 H99 0.961 . S
C36 H100 0.959 . S
C36 H101 0.959 . S
C37 C34 1.603 . S
C37 H102 0.960 . S
C37 H103 0.962 . S
C37 H104 0.961 . S
C38 C5 1.587 1_565 S
C38 C39 1.360 . S
C38 C51 1.412 . S
C39 C38 1.360 . S
C39 C40 1.365 . S
C39 H105 0.929 . S
C40 C15 1.553 . S
C40 C39 1.365 . S
C40 C41 1.404 . S
C41 C40 1.404 . S
C41 C42 1.395 . S
C41 C52 1.451 . S
C42 C41 1.395 . S
C42 C43 1.322 . S
C42 H106 0.930 . S
C43 C42 1.322 . S
C43 C44 1.459 1_554 S
C43 H107 0.929 1_554 S
C44 C43 1.459 1_556 S
C44 C45 1.445 . S
C44 C53 1.397 1_556 S
C45 C23 1.432 . S
C45 C44 1.445 . S
C45 C46 1.370 . S
C46 C45 1.370 . S
C46 C47 1.438 1_565 S
C46 H108 0.930 . S
C47 C33 1.497 . S
C47 C46 1.438 1_545 S
C47 C48 1.360 1_545 S
C48 C47 1.360 1_565 S
C48 C49 1.402 1_565 S
C48 C53 1.448 1_556 S
C49 C48 1.402 1_545 S
C49 C50 1.345 1_556 S
C49 H109 0.930 . S
C50 C49 1.345 1_554 S
C50 C51 1.453 1_545 S
C50 H110 0.932 . S
C51 C38 1.412 . S
C51 C50 1.453 1_565 S
C51 C52 1.331 . S
C52 C41 1.451 . S
C52 C51 1.331 . S
C52 C53 1.492 . S
C53 C44 1.397 1_554 S
C53 C48 1.448 1_554 S
C53 C52 1.492 . S
C54 C55 1.593 . S
C54 H111 0.962 . S
C54 H112 0.959 . S
C54 H113 0.958 . S
C55 C54 1.593 . S
C55 O58 1.475 . S
C55 H84 0.973 1_565 S
O56 C1 1.426 . S
O56 C2 1.334 . S
O57 C29 1.412 . S
O57 C30 1.393 . S
O58 C20 1.435 . S
O58 C55 1.475 . S
O59 C11 1.468 . S
O59 C12 1.408 . S
H60 C1 0.980 . S
H61 C0 0.959 . S
H62 C0 0.959 . S
H63 C0 0.960 . S
H64 C3 0.929 . S
H65 C7 0.929 . S
H66 C8 0.959 . S
H67 C8 0.961 . S
H68 C8 0.961 . S
H69 C9 0.960 . S
H70 C9 0.960 . S
H71 C9 0.961 . S
H72 C11 0.980 1_545 S
H73 C10 0.969 . S
H74 C10 0.960 . S
H75 C10 0.959 . S
H76 C13 0.914 1_545 S
H77 C17 0.931 . S
H78 C18 0.959 . S
H79 C18 0.961 . S
H80 C18 0.959 . S
H81 C19 0.960 . S
H82 C19 0.960 . S
H83 C19 0.960 . S
H84 C55 0.973 1_545 S
H85 C21 0.930 . S
H86 C25 0.930 . S
H87 C26 0.961 . S
H88 C26 0.960 . S
H89 C26 0.958 . S
H90 C27 0.961 . S
H91 C27 0.960 . S
H92 C27 0.960 . S
H93 C29 0.980 . S
H94 C28 0.961 . S
H95 C28 0.961 . S
H96 C28 0.959 . S
H97 C31 0.932 . S
H98 C35 0.929 . S
H99 C36 0.961 . S
H100 C36 0.959 . S
H101 C36 0.959 . S
H102 C37 0.960 . S
H103 C37 0.962 . S
H104 C37 0.961 . S
H105 C39 0.929 . S
H106 C42 0.930 . S
H107 C43 0.929 1_556 S
H108 C46 0.930 . S
H109 C49 0.930 . S
H110 C50 0.932 . S
H111 C54 0.962 . S
H112 C54 0.959 . S
H113 C54 0.958 . S
C114 C115 1.560 . S
C114 H175 0.959 . S
C114 H176 0.959 . S
C114 H177 0.960 . S
C115 C114 1.560 . S
C115 O170 1.426 . S
C115 H174 0.980 . S
C116 C117 1.407 . S
C116 C121 1.418 . S
C116 O170 1.334 . S
C117 C116 1.407 . S
C117 C118 1.360 . S
C117 H178 0.929 . S
C118 C117 1.360 . S
C118 C119 1.401 . S
C118 C122 1.527 1_455 S
C119 C118 1.401 . S
C119 C120 1.405 . S
C119 C152 1.587 . S
C120 C119 1.405 . S
C120 C121 1.332 . S
C120 C123 1.496 . S
C121 C116 1.418 . S
C121 C120 1.332 . S
C121 H179 0.929 . S
C122 C118 1.527 1_655 S
C122 H180 0.959 . S
C122 H181 0.961 . S
C122 H182 0.961 . S
C123 C120 1.496 . S
C123 H183 0.960 . S
C123 H184 0.960 . S
C123 H185 0.961 . S
C124 C125 1.517 . S
C124 H187 0.961 . S
C124 H188 0.960 1_455 S
C124 H189 0.959 . S
C125 C124 1.517 . S
C125 O173 1.468 1_455 S
C125 H186 0.980 . S
C126 C127 1.349 1_655 S
C126 C131 1.367 . S
C126 O173 1.408 . S
C127 C126 1.349 1_455 S
C127 C128 1.407 . S
C127 H190 0.930 . S
C128 C127 1.407 . S
C128 C129 1.449 . S
C128 C132 1.535 . S
C129 C128 1.449 . S
C129 C130 1.384 1_455 S
C129 C154 1.553 . S
C130 C129 1.384 1_655 S
C130 C131 1.364 . S
C130 C133 1.450 . S
C131 C126 1.367 . S
C131 C130 1.364 . S
C131 H191 0.931 . S
C132 C128 1.535 . S
C132 H192 0.959 . S
C132 H193 0.961 . S
C132 H194 0.959 . S
C133 C130 1.450 . S
C133 H195 0.960 . S
C133 H196 0.960 . S
C133 H197 0.960 . S
C134 C135 1.309 . S
C134 C139 1.304 1_455 S
C134 O172 1.435 . S
C135 C134 1.309 . S
C135 C136 1.476 . S
C135 H199 0.930 . S
C136 C135 1.476 . S
C136 C137 1.400 . S
C136 C140 1.567 . S
C137 C136 1.400 . S
C137 C138 1.373 1_455 S
C137 C159 1.432 . S
C138 C137 1.373 1_655 S
C138 C139 1.339 . S
C138 C141 1.530 . S
C139 C134 1.304 1_655 S
C139 C138 1.339 . S
C139 H200 0.930 . S
C140 C136 1.567 . S
C140 H201 0.961 . S
C140 H202 0.960 . S
C140 H203 0.958 . S
C141 C138 1.530 . S
C141 H204 0.961 . S
C141 H205 0.960 . S
C141 H206 0.960 . S
C142 C143 1.530 . S
C142 H208 0.961 . S
C142 H209 0.961 . S
C142 H210 0.959 . S
C143 C142 1.530 . S
C143 O171 1.412 . S
C143 H207 0.980 . S
C144 C145 1.288 . S
C144 C149 1.377 . S
C144 O171 1.393 . S
C145 C144 1.288 . S
C145 C146 1.369 . S
C145 H211 0.932 . S
C146 C145 1.369 . S
C146 C147 1.398 . S
C146 C150 1.527 . S
C147 C146 1.398 . S
C147 C148 1.380 . S
C147 C161 1.497 . S
C148 C147 1.380 . S
C148 C149 1.383 . S
C148 C151 1.603 1_455 S
C149 C144 1.377 . S
C149 C148 1.383 . S
C149 H212 0.929 . S
C150 C146 1.527 . S
C150 H213 0.961 . S
C150 H214 0.959 . S
C150 H215 0.959 . S
C151 C148 1.603 1_655 S
C151 H216 0.960 . S
C151 H217 0.962 . S
C151 H218 0.961 . S
C152 C119 1.587 . S
C152 C153 1.360 . S
C152 C165 1.412 . S
C153 C152 1.360 . S
C153 C154 1.365 . S
C153 H219 0.929 . S
C154 C129 1.553 . S
C154 C153 1.365 . S
C154 C155 1.404 . S
C155 C154 1.404 . S
C155 C156 1.395 . S
C155 C166 1.451 . S
C156 C155 1.395 . S
C156 C157 1.322 . S
C156 H220 0.930 . S
C157 C156 1.322 . S
C157 C158 1.459 . S
C157 H221 0.929 . S
C158 C157 1.459 . S
C158 C159 1.445 . S
C158 C167 1.395 . S
C159 C137 1.432 . S
C159 C158 1.445 . S
C159 C160 1.370 . S
C160 C159 1.370 . S
C160 C161 1.438 . S
C160 H222 0.930 . S
C161 C147 1.497 . S
C161 C160 1.438 . S
C161 C162 1.360 . S
C162 C161 1.360 . S
C162 C163 1.401 . S
C162 C167 1.446 . S
C163 C162 1.401 . S
C163 C164 1.347 . S
C163 H223 0.929 . S
C164 C163 1.347 . S
C164 C165 1.455 . S
C164 H224 0.930 . S
C165 C152 1.412 . S
C165 C164 1.455 . S
C165 C166 1.331 . S
C166 C155 1.451 . S
C166 C165 1.331 . S
C166 C167 1.497 . S
C167 C158 1.395 . S
C167 C162 1.446 . S
C167 C166 1.497 . S
C168 C169 1.582 . S
C168 H225 0.962 . S
C168 H226 0.959 . S
C168 H227 0.958 1_455 S
C169 C168 1.582 . S
C169 O172 1.458 . S
C169 H198 0.980 . S
O170 C115 1.426 . S
O170 C116 1.334 . S
O171 C143 1.412 . S
O171 C144 1.393 . S
O172 C134 1.435 . S
O172 C169 1.458 . S
O173 C125 1.468 1_655 S
O173 C126 1.408 . S
H174 C115 0.980 . S
H175 C114 0.959 . S
H176 C114 0.959 . S
H177 C114 0.960 . S
H178 C117 0.929 . S
H179 C121 0.929 . S
H180 C122 0.959 . S
H181 C122 0.961 . S
H182 C122 0.961 . S
H183 C123 0.960 . S
H184 C123 0.960 . S
H185 C123 0.961 . S
H186 C125 0.980 . S
H187 C124 0.961 . S
H188 C124 0.960 1_655 S
H189 C124 0.959 . S
H190 C127 0.930 . S
H191 C131 0.931 . S
H192 C132 0.959 . S
H193 C132 0.961 . S
H194 C132 0.959 . S
H195 C133 0.960 . S
H196 C133 0.960 . S
H197 C133 0.960 . S
H198 C169 0.980 . S
H199 C135 0.930 . S
H200 C139 0.930 . S
H201 C140 0.961 . S
H202 C140 0.960 . S
H203 C140 0.958 . S
H204 C141 0.961 . S
H205 C141 0.960 . S
H206 C141 0.960 . S
H207 C143 0.980 . S
H208 C142 0.961 . S
H209 C142 0.961 . S
H210 C142 0.959 . S
H211 C145 0.932 . S
H212 C149 0.929 . S
H213 C150 0.961 . S
H214 C150 0.959 . S
H215 C150 0.959 . S
H216 C151 0.960 . S
H217 C151 0.962 . S
H218 C151 0.961 . S
H219 C153 0.929 . S
H220 C156 0.930 . S
H221 C157 0.929 . S
H222 C160 0.930 . S
H223 C163 0.929 . S
H224 C164 0.930 . S
H225 C168 0.962 . S
H226 C168 0.959 . S
H227 C168 0.958 1_655 S
Li228 N245 1.990 . S
Li228 O288 1.956 . S
Li228 O289 1.968 1_455 S
Li228 O290 1.961 . S
Li229 N253 1.990 . S
Li229 O288 1.970 1_565 S
Li229 O289 1.954 1_465 S
Li229 O291 1.961 . S
Li230 N275 1.990 . S
Li230 O288 1.961 . S
Li230 O290 1.956 . S
Li230 O291 1.970 1_545 S
Li231 N281 1.990 1_455 S
Li231 O289 1.961 1_455 S
Li231 O290 1.970 . S
Li231 O291 1.956 1_545 S
C232 C234 1.348 1_545 S
C232 C235 1.356 . S
C232 O288 1.325 . S
N233 C236 1.314 1_545 S
N233 C237 1.279 . S
C234 C232 1.348 1_565 S
C234 C236 1.353 . S
C234 H292 0.929 . S
C235 C232 1.356 . S
C235 C237 1.358 . S
C235 H293 0.930 . S
C236 N233 1.314 1_565 S
C236 C234 1.353 . S
C236 H294 0.930 . S
C237 N233 1.279 . S
C237 C235 1.358 . S
C237 H295 0.930 . S
C238 C241 1.348 . S
C238 C242 1.356 1_545 S
C238 O289 1.327 . S
C239 N240 1.279 1_565 S
C239 C242 1.358 . S
C239 H296 0.930 . S
N240 C239 1.279 1_545 S
N240 C243 1.314 . S
C241 C238 1.348 . S
C241 C243 1.353 . S
C241 H297 0.929 . S
C242 C238 1.356 1_565 S
C242 C239 1.358 . S
C242 H298 0.930 . S
C243 N240 1.314 . S
C243 C241 1.353 . S
C243 H299 0.930 . S
C244 N245 1.314 . S
C244 C249 1.353 . S
C244 H250 0.930 . S
N245 Li228 1.990 . S
N245 C244 1.314 . S
N245 C247 1.279 . S
C246 C247 1.358 . S
C246 C248 1.356 . S
C246 H300 0.930 . S
C247 N245 1.279 . S
C247 C246 1.358 . S
C247 H251 0.930 . S
C248 C246 1.356 . S
C248 C249 1.348 . S
C249 C244 1.353 . S
C249 C248 1.348 . S
C249 H301 0.929 . S
H250 C244 0.930 . S
H251 C247 0.930 . S
C252 N253 1.314 . S
C252 C254 1.353 . S
C252 H258 0.930 . S
N253 Li229 1.990 . S
N253 C252 1.314 . S
N253 C256 1.279 . S
C254 C252 1.353 . S
C254 C257 1.348 . S
C254 H302 0.929 . S
C255 C256 1.358 . S
C255 C257 1.356 . S
C255 H303 0.924 1_455 S
C256 N253 1.279 . S
C256 C255 1.358 . S
C256 H259 0.927 1_455 S
C257 C254 1.348 . S
C257 C255 1.356 . S
H258 C252 0.930 . S
H259 C256 0.927 1_655 S
C260 C262 1.348 . S
C260 C263 1.356 . S
C260 O290 1.325 . S
N261 C264 1.314 . S
N261 C265 1.279 . S
C262 C260 1.348 . S
C262 C264 1.353 . S
C262 H304 0.929 . S
C263 C260 1.356 . S
C263 C265 1.358 . S
C263 H305 0.930 . S
C264 N261 1.314 . S
C264 C262 1.353 . S
C264 H306 0.930 . S
C265 N261 1.279 . S
C265 C263 1.358 . S
C265 H307 0.930 . S
C266 C267 1.348 . S
C266 C268 1.356 . S
C266 O291 1.325 . S
C267 C266 1.348 . S
C267 C269 1.353 . S
C267 H308 0.929 . S
C268 C266 1.356 . S
C268 C270 1.358 . S
C268 H309 0.924 1_455 S
C269 C267 1.353 . S
C269 N271 1.314 . S
C269 H310 0.930 . S
C270 C268 1.358 . S
C270 N271 1.279 . S
C270 H311 0.927 1_455 S
N271 C269 1.314 . S
N271 C270 1.279 . S
C272 C274 1.353 . S
C272 N275 1.314 1_565 S
C272 H278 0.930 . S
C273 N275 1.279 . S
C273 C276 1.358 . S
C273 H279 0.930 . S
C274 C272 1.353 . S
C274 C277 1.348 1_565 S
C274 H312 0.929 . S
N275 Li230 1.990 . S
N275 C272 1.314 1_545 S
N275 C273 1.279 . S
C276 C273 1.358 . S
C276 C277 1.356 . S
C276 H313 0.930 . S
C277 C274 1.348 1_545 S
C277 C276 1.356 . S
H278 C272 0.930 . S
H279 C273 0.930 . S
C280 N281 1.314 . S
C280 C282 1.353 . S
C280 H286 0.930 . S
N281 Li231 1.990 1_655 S
N281 C280 1.314 . S
N281 C284 1.279 1_545 S
C282 C280 1.353 . S
C282 C285 1.348 . S
C282 H314 0.929 . S
C283 C284 1.358 . S
C283 C285 1.356 1_565 S
C283 H315 0.930 . S
C284 N281 1.279 1_565 S
C284 C283 1.358 . S
C284 H287 0.930 . S
C285 C282 1.348 . S
C285 C283 1.356 1_545 S
H286 C280 0.930 . S
H287 C284 0.930 . S
O288 Li228 1.956 . S
O288 Li229 1.970 1_545 S
O288 Li230 1.961 . S
O288 C232 1.325 . S
O289 Li228 1.968 1_655 S
O289 Li229 1.954 1_645 S
O289 Li231 1.961 1_655 S
O289 C238 1.327 . S
O290 Li228 1.961 . S
O290 Li230 1.956 . S
O290 Li231 1.970 . S
O290 C260 1.325 . S
O291 Li229 1.961 . S
O291 Li230 1.970 1_565 S
O291 Li231 1.956 1_565 S
O291 C266 1.325 . S
H292 C234 0.929 . S
H293 C235 0.930 . S
H294 C236 0.930 . S
H295 C237 0.930 . S
H296 C239 0.930 . S
H297 C241 0.929 . S
H298 C242 0.930 . S
H299 C243 0.930 . S
H300 C246 0.930 . S
H301 C249 0.929 . S
H302 C254 0.929 . S
H303 C255 0.924 1_655 S
H304 C262 0.929 . S
H305 C263 0.930 . S
H306 C264 0.930 . S
H307 C265 0.930 . S
H308 C267 0.929 . S
H309 C268 0.924 1_655 S
H310 C269 0.930 . S
H311 C270 0.927 1_655 S
H312 C274 0.929 . S
H313 C276 0.930 . S
H314 C282 0.929 . S
H315 C283 0.930 . S
Li316 N333 1.990 . S
Li316 O376 1.956 1_655 S
Li316 O377 1.970 1_645 S
Li316 O378 1.961 . S
Li317 N341 1.990 . S
Li317 O376 1.970 . S
Li317 O377 1.956 1_545 S
Li317 O379 1.961 . S
Li318 N363 1.990 . S
Li318 O376 1.961 . S
Li318 O378 1.956 1_455 S
Li318 O379 1.970 . S
Li319 N369 1.990 . S
Li319 O377 1.961 . S
Li319 O378 1.970 1_465 S
Li319 O379 1.956 1_565 S
C320 C322 1.348 . S
C320 C323 1.356 . S
C320 O376 1.325 . S
N321 C324 1.314 . S
N321 C325 1.279 . S
C322 C320 1.348 . S
C322 C324 1.353 . S
C322 H380 0.929 . S
C323 C320 1.356 . S
C323 C325 1.358 . S
C323 H381 0.930 1_455 S
C324 N321 1.314 . S
C324 C322 1.353 . S
C324 H382 0.930 . S
C325 N321 1.279 . S
C325 C323 1.358 . S
C325 H383 0.930 1_455 S
C326 C329 1.348 . S
C326 C330 1.356 . S
C326 O377 1.325 . S
C327 N328 1.279 . S
C327 C330 1.358 . S
C327 H384 0.930 . S
N328 C327 1.279 . S
N328 C331 1.314 . S
C329 C326 1.348 . S
C329 C331 1.353 . S
C329 H385 0.930 . S
C330 C326 1.356 . S
C330 C327 1.358 . S
C330 H386 0.930 . S
C331 N328 1.314 . S
C331 C329 1.353 . S
C331 H387 0.930 . S
C332 N333 1.314 1_565 S
C332 C337 1.353 . S
C332 H338 0.930 . S
N333 Li316 1.990 . S
N333 C332 1.314 1_545 S
N333 C335 1.279 . S
C334 C335 1.358 . S
C334 C336 1.356 . S
C334 H388 0.930 . S
C335 N333 1.279 . S
C335 C334 1.358 . S
C335 H339 0.930 . S
C336 C334 1.356 . S
C336 C337 1.348 1_545 S
C337 C332 1.353 . S
C337 C336 1.348 1_565 S
C337 H389 0.929 . S
H338 C332 0.930 . S
H339 C335 0.930 . S
C340 N341 1.314 . S
C340 C342 1.353 . S
C340 H346 0.930 . S
N341 Li317 1.990 . S
N341 C340 1.314 . S
N341 C344 1.279 1_545 S
C342 C340 1.353 . S
C342 C345 1.348 . S
C342 H390 0.929 . S
C343 C344 1.358 . S
C343 C345 1.356 1_565 S
C343 H391 0.930 . S
C344 N341 1.279 1_565 S
C344 C343 1.358 . S
C344 H347 0.930 . S
C345 C342 1.348 . S
C345 C343 1.356 1_545 S
H346 C340 0.930 . S
H347 C344 0.930 . S
C348 C350 1.348 1_545 S
C348 C351 1.356 . S
C348 O378 1.325 . S
N349 C352 1.314 1_545 S
N349 C353 1.279 . S
C350 C348 1.348 1_565 S
C350 C352 1.353 . S
C350 H392 0.929 . S
C351 C348 1.356 . S
C351 C353 1.358 . S
C351 H393 0.930 . S
C352 N349 1.314 1_565 S
C352 C350 1.353 . S
C352 H394 0.930 . S
C353 N349 1.279 . S
C353 C351 1.358 . S
C353 H395 0.930 . S
C354 C355 1.348 . S
C354 C356 1.356 1_545 S
C354 O379 1.325 . S
C355 C354 1.348 . S
C355 C357 1.353 . S
C355 H396 0.929 . S
C356 C354 1.356 1_565 S
C356 C358 1.358 . S
C356 H397 0.930 . S
C357 C355 1.353 . S
C357 N359 1.314 . S
C357 H398 0.930 . S
C358 C356 1.358 . S
C358 N359 1.279 1_565 S
C358 H399 0.930 . S
N359 C357 1.314 . S
N359 C358 1.279 1_545 S
C360 C362 1.353 . S
C360 N363 1.314 . S
C360 H366 0.930 . S
C361 N363 1.279 . S
C361 C364 1.358 . S
C361 H367 0.930 1_455 S
C362 C360 1.353 . S
C362 C365 1.348 . S
C362 H400 0.929 . S
N363 Li318 1.990 . S
N363 C360 1.314 . S
N363 C361 1.279 . S
C364 C361 1.358 . S
C364 C365 1.356 . S
C364 H401 0.930 1_455 S
C365 C362 1.348 . S
C365 C364 1.356 . S
H366 C360 0.930 . S
H367 C361 0.930 1_655 S
C368 N369 1.314 . S
C368 C370 1.353 . S
C368 H374 0.930 . S
N369 Li319 1.990 . S
N369 C368 1.314 . S
N369 C372 1.279 . S
C370 C368 1.353 . S
C370 C373 1.348 . S
C370 H402 0.929 . S
C371 C372 1.358 . S
C371 C373 1.356 . S
C371 H403 0.930 . S
C372 N369 1.279 . S
C372 C371 1.358 . S
C372 H375 0.930 . S
C373 C370 1.348 . S
C373 C371 1.356 . S
H374 C368 0.930 . S
H375 C372 0.930 . S
O376 Li316 1.956 1_455 S
O376 Li317 1.970 . S
O376 Li318 1.961 . S
O376 C320 1.325 . S
O377 Li316 1.970 1_465 S
O377 Li317 1.956 1_565 S
O377 Li319 1.961 . S
O377 C326 1.325 . S
O378 Li316 1.961 . S
O378 Li318 1.956 1_655 S
O378 Li319 1.970 1_645 S
O378 C348 1.325 . S
O379 Li317 1.961 . S
O379 Li318 1.970 . S
O379 Li319 1.956 1_545 S
O379 C354 1.325 . S
H380 C322 0.929 . S
H381 C323 0.930 1_655 S
H382 C324 0.930 . S
H383 C325 0.930 1_655 S
H384 C327 0.930 . S
H385 C329 0.930 . S
H386 C330 0.930 . S
H387 C331 0.930 . S
H388 C334 0.930 . S
H389 C337 0.929 . S
H390 C342 0.929 . S
H391 C343 0.930 . S
H392 C350 0.929 . S
H393 C351 0.930 . S
H394 C352 0.930 . S
H395 C353 0.930 . S
H396 C355 0.929 . S
H397 C356 0.930 . S
H398 C357 0.930 . S
H399 C358 0.930 . S
H400 C362 0.929 . S
H401 C364 0.930 1_655 S
H402 C370 0.929 . S
H403 C371 0.930 . S
C404 C405 1.387 1_565 S
C404 H408 0.950 . S
C404 C413 1.390 . S
C405 C404 1.387 1_545 S
C405 C407 1.387 . S
H406 C413 0.950 . S
C407 C405 1.387 . S
C407 C409 1.390 . S
C407 H411 0.950 . S
H408 C404 0.950 . S
C409 C407 1.390 . S
C409 C410 1.387 . S
C409 H412 0.950 . S
C410 C409 1.387 . S
C410 C413 1.387 1_545 S
H411 C407 0.950 . S
H412 C409 0.950 . S
C413 C404 1.390 . S
C413 H406 0.950 . S
C413 C410 1.387 1_565 S
C414 C415 1.387 . S
C414 H418 0.950 1_455 S
C414 C423 1.390 . S
C415 C414 1.387 . S
C415 C417 1.387 . S
H416 C423 0.950 1_655 S
C417 C415 1.387 . S
C417 C419 1.390 . S
C417 H421 0.950 . S
H418 C414 0.950 1_655 S
C419 C417 1.390 . S
C419 C420 1.387 . S
C419 H422 0.950 . S
C420 C419 1.387 . S
C420 C423 1.387 . S
H421 C417 0.950 . S
H422 C419 0.950 . S
C423 C414 1.390 . S
C423 H416 0.950 1_455 S
C423 C420 1.387 . S
C424 C425 1.387 . S
C424 H428 0.950 . S
C424 C433 1.390 . S
C425 C424 1.387 . S
C425 C427 1.387 1_545 S
H426 C433 0.950 . S
C427 C425 1.387 1_565 S
C427 C429 1.390 . S
C427 H431 0.950 . S
H428 C424 0.950 . S
C429 C427 1.390 . S
C429 C430 1.387 1_565 S
C429 H432 0.950 . S
C430 C429 1.387 1_545 S
C430 C433 1.387 . S
H431 C427 0.950 . S
H432 C429 0.950 . S
C433 C424 1.390 . S
C433 H426 0.950 . S
C433 C430 1.387 . S
C434 C435 1.398 . S
C434 H438 0.939 1_455 S
C434 C443 1.391 . S
C435 C434 1.398 . S
C435 C437 1.387 . S
H436 C443 0.950 1_655 S
C437 C435 1.387 . S
C437 C439 1.390 . S
C437 H441 0.950 . S
H438 C434 0.939 1_655 S
C439 C437 1.390 . S
C439 C440 1.387 . S
C439 H442 0.950 . S
C440 C439 1.387 . S
C440 C443 1.387 . S
H441 C437 0.950 . S
H442 C439 0.950 . S
C443 C434 1.391 . S
C443 H436 0.950 1_455 S
C443 C440 1.387 . S
C444 C445 1.387 . S
C444 H448 0.950 . S
C444 C453 1.390 . S
C445 C444 1.387 . S
C445 C447 1.387 1_545 S
H446 C453 0.950 . S
C447 C445 1.387 1_565 S
C447 C449 1.390 . S
C447 H451 0.950 . S
H448 C444 0.950 . S
C449 C447 1.390 . S
C449 C450 1.387 1_565 S
C449 H452 0.950 . S
C450 C449 1.387 1_545 S
C450 C453 1.387 . S
H451 C447 0.950 . S
H452 C449 0.950 . S
C453 C444 1.390 . S
C453 H446 0.950 . S
C453 C450 1.387 . S
C454 C455 1.387 . S
C454 H458 0.950 1_455 S
C454 C463 1.390 . S
C455 C454 1.387 . S
C455 C457 1.387 . S
H456 C463 0.950 1_655 S
C457 C455 1.387 . S
C457 C459 1.390 . S
C457 H461 0.950 . S
H458 C454 0.950 1_655 S
C459 C457 1.390 . S
C459 C460 1.387 . S
C459 H462 0.950 . S
C460 C459 1.387 . S
C460 C463 1.387 . S
H461 C457 0.950 . S
H462 C459 0.950 . S
C463 C454 1.390 . S
C463 H456 0.950 1_455 S
C463 C460 1.387 . S
C464 C465 1.387 . S
C464 H468 0.950 . S
C464 C473 1.390 . S
C465 C464 1.387 . S
C465 C467 1.387 1_545 S
H466 C473 0.950 . S
C467 C465 1.387 1_565 S
C467 C469 1.390 . S
C467 H471 0.950 . S
H468 C464 0.950 . S
C469 C467 1.390 . S
C469 C470 1.387 1_565 S
C469 H472 0.950 . S
C470 C469 1.387 1_545 S
C470 C473 1.387 . S
H471 C467 0.950 . S
H472 C469 0.950 . S
C473 C464 1.390 . S
C473 H466 0.950 . S
C473 C470 1.387 . S
C474 C475 1.387 . S
C474 H478 0.950 1_455 S
C474 C483 1.390 . S
C475 C474 1.387 . S
C475 C477 1.387 . S
H476 C483 0.950 1_655 S
C477 C475 1.387 . S
C477 C479 1.390 . S
C477 H481 0.950 . S
H478 C474 0.950 1_655 S
C479 C477 1.390 . S
C479 C480 1.387 . S
C479 H482 0.950 . S
C480 C479 1.387 . S
C480 C483 1.387 . S
H481 C477 0.950 . S
H482 C479 0.950 . S
C483 C474 1.390 . S
C483 H476 0.950 1_455 S
C483 C480 1.387 . S
C410 C277 1.492 . S
C405 C11 0.913 1_545 S
C420 C365 1.347 . S
C415 C115 1.090 . S
C430 C285 1.343 . S
C425 C1 1.086 . S
C440 C373 1.488 . S
C435 C125 0.898 . S
C450 C345 1.571 . S
C445 C55 1.134 1_545 S
C460 C248 1.434 . S
C455 C143 1.116 . S
C470 C336 1.438 . S
C465 C29 1.114 . S
C475 C169 1.141 . S
C480 C257 1.574 . S
