# Generated by pormake.
# Topology zzz, (3,6)-cn, num edge types: 1
# Building blocks:
#     Node 0, Type 0, BuildingBlock: BETDAH_clean_linker_0, # of connection points: 3
#     Node 1, Type 0, BuildingBlock: BETDAH_clean_linker_0, # of connection points: 3
#     Node 2, Type 0, BuildingBlock: BETDAH_clean_linker_0, # of connection points: 3
#     Node 3, Type 0, BuildingBlock: BETDAH_clean_linker_0, # of connection points: 3
#     Node 4, Type 0, BuildingBlock: BETDAH_clean_linker_0, # of connection points: 3
#     Node 5, Type 0, BuildingBlock: BETDAH_clean_linker_0, # of connection points: 3
#     Node 6, Type 0, BuildingBlock: BETDAH_clean_linker_0, # of connection points: 3
#     Node 7, Type 0, BuildingBlock: BETDAH_clean_linker_0, # of connection points: 3
#     Node 8, Type 1, BuildingBlock: KUMBUR_clean_sbu_1, # of connection points: 6
#     Node 9, Type 1, BuildingBlock: KUMBUR_clean_sbu_1, # of connection points: 6
#     Node 10, Type 1, BuildingBlock: KUMBUR_clean_sbu_1, # of connection points: 6
#     Node 11, Type 1, BuildingBlock: KUMBUR_clean_sbu_1, # of connection points: 6
#     Edge 12, Type (0, 1), BuildingBlock: UVAHIK_clean_linker_0, # of connection points: 2
#     Edge 13, Type (0, 1), BuildingBlock: UVAHIK_clean_linker_0, # of connection points: 2
#     Edge 14, Type (0, 1), BuildingBlock: UVAHIK_clean_linker_0, # of connection points: 2
#     Edge 15, Type (0, 1), BuildingBlock: UVAHIK_clean_linker_0, # of connection points: 2
#     Edge 16, Type (0, 1), BuildingBlock: UVAHIK_clean_linker_0, # of connection points: 2
#     Edge 17, Type (0, 1), BuildingBlock: UVAHIK_clean_linker_0, # of connection points: 2
#     Edge 18, Type (0, 1), BuildingBlock: UVAHIK_clean_linker_0, # of connection points: 2
#     Edge 19, Type (0, 1), BuildingBlock: UVAHIK_clean_linker_0, # of connection points: 2
#     Edge 20, Type (0, 1), BuildingBlock: UVAHIK_clean_linker_0, # of connection points: 2
#     Edge 21, Type (0, 1), BuildingBlock: UVAHIK_clean_linker_0, # of connection points: 2
#     Edge 22, Type (0, 1), BuildingBlock: UVAHIK_clean_linker_0, # of connection points: 2
#     Edge 23, Type (0, 1), BuildingBlock: UVAHIK_clean_linker_0, # of connection points: 2
#     Edge 24, Type (0, 1), BuildingBlock: UVAHIK_clean_linker_0, # of connection points: 2
#     Edge 25, Type (0, 1), BuildingBlock: UVAHIK_clean_linker_0, # of connection points: 2
#     Edge 26, Type (0, 1), BuildingBlock: UVAHIK_clean_linker_0, # of connection points: 2
#     Edge 27, Type (0, 1), BuildingBlock: UVAHIK_clean_linker_0, # of connection points: 2
#     Edge 28, Type (0, 1), BuildingBlock: UVAHIK_clean_linker_0, # of connection points: 2
#     Edge 29, Type (0, 1), BuildingBlock: UVAHIK_clean_linker_0, # of connection points: 2
#     Edge 30, Type (0, 1), BuildingBlock: UVAHIK_clean_linker_0, # of connection points: 2
#     Edge 31, Type (0, 1), BuildingBlock: UVAHIK_clean_linker_0, # of connection points: 2
#     Edge 32, Type (0, 1), BuildingBlock: UVAHIK_clean_linker_0, # of connection points: 2
#     Edge 33, Type (0, 1), BuildingBlock: UVAHIK_clean_linker_0, # of connection points: 2
#     Edge 34, Type (0, 1), BuildingBlock: UVAHIK_clean_linker_0, # of connection points: 2
#     Edge 35, Type (0, 1), BuildingBlock: UVAHIK_clean_linker_0, # of connection points: 2
# Relax obj value: 0.148
# Max RMSD: 0.091
# Mean RMSD: 0.077
data_MOF--net-zzz--node1-KUMBUR_clean_sbu_1--node2-BETDAH_clean_linker_0--edge1-UVAHIK_clean_linker_0
_symmetry_space_group_name_H-M    P1
_symmetry_Int_Tables_number       1
_symmetry_cell_setting            triclinic
loop_
_symmetry_equiv_pos_as_xyz
'x, y, z'
_cell_length_a     65.0635
_cell_length_b     65.048222
_cell_length_c     20.435081
_cell_angle_alpha  90.222712
_cell_angle_beta   89.958621
_cell_angle_gamma 90.307595
loop_
_atom_site_label
_atom_site_type_symbol
_atom_site_fract_x
_atom_site_fract_y
_atom_site_fract_z
_atom_type_partial_charge
H0 H 0.79665 0.56028 0.25638 0.0
H1 H 0.73719 0.55239 0.16999 0.0
H2 H 0.74891 0.52988 0.36532 0.0
C3 C 0.78069 0.5556 0.26136 0.0
C4 C 0.77457 0.54554 0.31853 0.0
C5 C 0.76743 0.55785 0.20798 0.0
C6 C 0.74714 0.5508 0.21213 0.0
C7 C 0.74004 0.54086 0.26869 0.0
C8 C 0.75401 0.53795 0.32196 0.0
N9 N 0.71932 0.53317 0.27166 0.0
C10 C 0.70481 0.53408 0.22031 0.0
H11 H 0.97328 0.80049 0.24708 0.0
H12 H 0.98241 0.74079 0.16388 0.0
H13 H 1.00053 0.75301 0.36399 0.0
C14 C 0.97779 0.78457 0.25341 0.0
C15 C 0.9865 0.77854 0.31283 0.0
C16 C 0.97649 0.77111 0.20004 0.0
C17 C 0.98326 0.75087 0.20611 0.0
C18 C 0.99167 0.74392 0.26526 0.0
C19 C 0.9936 0.758 0.31864 0.0
N20 N 0.9987 0.72317 0.27104 0.0
C21 C 0.99824 0.70854 0.22005 0.0
H22 H 0.73179 0.97774 0.24362 0.0
H23 H 0.7921 0.98572 0.16357 0.0
H24 H 0.7795 1.00477 0.36241 0.0
C25 C 0.7478 0.98199 0.25083 0.0
C26 C 0.7538 0.99089 0.3103 0.0
C27 C 0.76149 0.98048 0.19818 0.0
C28 C 0.78191 0.98675 0.20538 0.0
C29 C 0.78886 0.99521 0.2646 0.0
C30 C 0.77456 0.9976 0.31713 0.0
N31 N 0.80976 1.00206 0.27086 0.0
C32 C 0.82449 1.00156 0.22014 0.0
H33 H 0.55424 0.73537 0.24904 0.0
H34 H 0.54543 0.79437 0.16282 0.0
H35 H 0.53145 0.78511 0.36792 0.0
C36 C 0.55032 0.75146 0.25537 0.0
C37 C 0.54325 0.75835 0.31618 0.0
C38 C 0.55102 0.76432 0.20093 0.0
C39 C 0.54504 0.78482 0.20612 0.0
C40 C 0.53826 0.7928 0.26623 0.0
C41 C 0.53706 0.77931 0.32152 0.0
N42 N 0.53235 0.81401 0.27124 0.0
C43 C 0.53228 0.82823 0.21902 0.0
H44 H 0.23013 0.48316 0.03438 0.0
H45 H 0.28941 0.49005 0.12198 0.0
H46 H 0.28182 0.49988 0.9139 0.0
C47 C 0.2465 0.48595 0.02842 0.0
C48 C 0.25415 0.49118 0.96678 0.0
C49 C 0.25911 0.48556 0.08362 0.0
C50 C 0.28003 0.49008 0.07825 0.0
C51 C 0.28864 0.4949 0.01707 0.0
C52 C 0.27548 0.49579 0.96112 0.0
N53 N 0.31023 0.49914 0.01125 0.0
C54 C 0.32445 0.49889 0.06331 0.0
H55 H 0.05824 0.23545 0.03041 0.0
H56 H 0.04986 0.29476 0.11811 0.0
H57 H 0.02744 0.28275 0.92248 0.0
C58 C 0.05336 0.25132 0.02603 0.0
C59 C 0.04323 0.2574 0.96906 0.0
C60 C 0.0555 0.26457 0.07979 0.0
C61 C 0.04829 0.28476 0.0759 0.0
C62 C 0.03838 0.29172 0.01918 0.0
C63 C 0.03557 0.27778 0.96581 0.0
N64 N 0.03064 0.31228 0.01586 0.0
C65 C 0.0316 0.32691 0.06686 0.0
H66 H 0.29901 0.0479 0.04706 0.0
H67 H 0.23799 0.0474 0.12552 0.0
H68 H 0.24731 0.04605 0.9157 0.0
C69 C 0.28253 0.04785 0.03868 0.0
C70 C 0.27505 0.04718 0.97466 0.0
C71 C 0.26918 0.04783 0.09231 0.0
C72 C 0.24795 0.04749 0.08303 0.0
C73 C 0.23972 0.04698 0.01948 0.0
C74 C 0.25343 0.04674 0.96494 0.0
N75 N 0.21792 0.04641 0.00981 0.0
C76 C 0.20332 0.04567 0.06067 0.0
H77 H 0.47208 0.30188 0.02694 0.0
H78 H 0.47758 0.24312 0.12009 0.0
H79 H 0.50264 0.25263 0.92657 0.0
C80 C 0.47647 0.28582 0.02456 0.0
C81 C 0.48708 0.27887 0.96942 0.0
C82 C 0.47333 0.27318 0.07914 0.0
C83 C 0.47993 0.2527 0.07746 0.0
C84 C 0.49028 0.24488 0.02244 0.0
C85 C 0.49409 0.25822 0.96843 0.0
N86 N 0.49759 0.2241 0.02148 0.0
C87 C 0.49632 0.21002 0.07372 0.0
Tb88 Tb 0.99439 0.03029 0.5784 0.0
C89 C 0.06501 0.02999 0.78282 0.0
N90 N 0.06402 0.02117 0.72251 0.0
C91 C 0.09866 0.03186 0.70023 0.0
C92 C 0.08291 0.04036 0.80392 0.0
C93 C 0.0806 0.02171 0.68149 0.0
C94 C 0.0998 0.04133 0.76157 0.0
C95 C 0.04882 0.03663 0.8876 0.0
C96 C 0.04804 0.02837 0.8237 0.0
C97 C 0.06646 0.04733 0.90843 0.0
C98 C 0.08345 0.04921 0.86668 0.0
Tb99 Tb 0.03372 1.00526 0.69743 0.0
N100 N 0.03121 0.01784 0.80201 0.0
C101 C 0.03216 0.03322 0.92949 0.0
C102 C 0.01597 0.01273 0.84512 0.0
C103 C 0.01585 0.02086 0.90854 0.0
H104 H 0.08021 0.01387 0.63502 0.0
H105 H 1.00345 0.01709 0.94183 0.0
H106 H 0.94836 0.02678 0.64987 0.0
H107 H 0.02325 1.00169 0.34682 0.0
H108 H 1.00427 1.0017 0.83257 0.0
H109 H 0.03218 0.03925 0.979 0.0
H110 H 0.02506 0.02099 0.44937 0.0
H111 H 0.11176 0.03221 0.66758 0.0
H112 H 0.06729 0.05384 0.95725 0.0
H113 H 0.09706 0.05726 0.88376 0.0
H114 H 0.91496 0.01064 0.62554 0.0
H115 H 0.11385 0.0491 0.77606 0.0
H116 H 0.99109 0.98378 0.31577 0.0
N117 N 0.96277 0.01574 0.56296 0.0
C118 C 0.96028 1.00531 0.5057 0.0
C119 C 0.92762 1.0089 0.59164 0.0
C120 C 0.94128 0.99615 0.48932 0.0
C121 C 0.94674 0.01777 0.60576 0.0
C122 C 0.92487 0.99804 0.53321 0.0
N123 N 0.9952 0.01231 0.48188 0.0
C124 C 0.01142 0.01232 0.43942 0.0
C125 C 0.975 0.99286 0.40395 0.0
C126 C 0.977 1.00357 0.46377 0.0
C127 C 0.99201 0.99181 0.36225 0.0
C128 C 0.01023 1.00177 0.37981 0.0
H129 H 0.91001 0.99126 0.52232 0.0
H130 H 0.92476 0.97834 0.41635 0.0
H131 H 0.95424 0.97554 0.3415 0.0
O132 O 1.0009 0.05495 0.51558 0.0
O133 O 0.99404 0.99619 0.58621 0.0
O134 O 0.02783 0.98995 0.60399 0.0
O135 O 0.97016 0.05067 0.5567 0.0
O136 O 0.02752 0.03665 0.55861 0.0
O137 O 0.04497 1.00846 0.5969 0.0
O138 O 0.02708 0.97608 0.73397 0.0
O139 O 0.03442 0.0395 0.69391 0.0
O140 O 1.00132 0.04808 0.66703 0.0
O141 O 0.05849 0.98595 0.7213 0.0
O142 O 1.00029 1.00079 0.71784 0.0
O143 O 0.98431 0.02993 0.68086 0.0
C144 C 0.00963 0.98341 0.58608 0.0
C145 C 0.97524 0.08001 0.48513 0.0
C146 C 0.98353 0.11169 0.42826 0.0
C147 C 0.9625 0.11519 0.41818 0.0
C148 C 0.95423 0.08377 0.47576 0.0
C149 C 0.94792 0.1013 0.44223 0.0
C150 C 0.98981 0.09408 0.46164 0.0
C151 C 0.04396 0.02481 0.55925 0.0
C152 C 0.9821 0.06161 0.51963 0.0
C153 C 0.93926 0.98542 0.42989 0.0
C154 C 0.95607 0.98379 0.38732 0.0
C155 C 0.01943 0.05303 0.69097 0.0
C156 C 0.05122 0.96195 0.80588 0.0
C157 C 0.04286 0.93483 0.88339 0.0
C158 C 0.06087 0.93957 0.91854 0.0
C159 C 0.06918 0.96656 0.84115 0.0
C160 C 0.03806 0.94642 0.82798 0.0
C161 C 0.07385 0.95546 0.89762 0.0
C162 C 0.98505 0.01411 0.72069 0.0
C163 C 0.04634 0.97165 0.74315 0.0
H164 H 0.95736 0.12878 0.39262 0.0
H165 H 0.94273 0.07311 0.4939 0.0
H166 H 0.93171 0.10414 0.4349 0.0
H167 H 1.00608 0.09132 0.469 0.0
H168 H 0.06517 0.93073 0.96112 0.0
H169 H 0.07967 0.97846 0.8248 0.0
H170 H 0.02408 0.94313 0.80095 0.0
H171 H 0.08778 0.9589 0.92451 0.0
Tb172 Tb 0.52393 0.03559 0.70776 0.0
C173 C 0.51403 0.95151 0.58202 0.0
N174 N 0.52289 0.96907 0.55931 0.0
C175 C 0.55111 0.94965 0.51613 0.0
C176 C 0.52398 0.93241 0.57554 0.0
C177 C 0.54065 0.96821 0.52376 0.0
C178 C 0.54289 0.9317 0.54296 0.0
C179 C 0.48498 0.93479 0.63419 0.0
C180 C 0.49471 0.95272 0.61073 0.0
C181 C 0.49513 0.91582 0.6298 0.0
C182 C 0.51454 0.91462 0.60036 0.0
Tb183 Tb 0.50372 0.9981 0.57028 0.0
N184 N 0.48518 0.97132 0.61325 0.0
C185 C 0.46508 0.93634 0.65952 0.0
C186 C 0.46519 0.97253 0.63324 0.0
C187 C 0.45504 0.95523 0.65811 0.0
H188 H 0.54652 0.98159 0.49909 0.0
H189 H 0.43929 0.9564 0.67474 0.0
H190 H 0.48358 0.05288 0.79503 0.0
H191 H 0.58893 0.07603 0.60605 0.0
H192 H 0.4566 0.98649 0.62773 0.0
H193 H 0.45706 0.92292 0.67797 0.0
H194 H 0.56967 0.04583 0.64464 0.0
H195 H 0.56529 0.94915 0.48847 0.0
H196 H 0.48789 0.90189 0.64769 0.0
H197 H 0.52198 0.89981 0.59604 0.0
H198 H 0.4678 0.08609 0.81987 0.0
H199 H 0.55096 0.9173 0.53652 0.0
H200 H 0.57391 0.11072 0.61745 0.0
N201 N 0.50687 0.06546 0.7328 0.0
C202 C 0.51618 0.08307 0.71219 0.0
C203 C 0.48119 0.08544 0.78849 0.0
C204 C 0.50801 0.10256 0.7276 0.0
C205 C 0.48998 0.06649 0.77273 0.0
C206 C 0.4901 0.10354 0.76525 0.0
N207 N 0.54285 0.06267 0.66975 0.0
C208 C 0.56243 0.06062 0.64644 0.0
C209 C 0.5457 0.09951 0.66134 0.0
C210 C 0.53485 0.08164 0.67998 0.0
C211 C 0.5651 0.09737 0.63253 0.0
C212 C 0.57361 0.07783 0.62583 0.0
H213 H 0.48345 0.11821 0.77858 0.0
H214 H 0.51237 0.1355 0.71877 0.0
H215 H 0.5453 0.13281 0.66022 0.0
O216 O 0.54944 0.02501 0.76102 0.0
O217 O 0.5227 0.04758 0.60651 0.0
O218 O 0.49509 0.03074 0.56142 0.0
O219 O 0.52842 0.04763 0.8026 0.0
O220 O 0.54652 0.0154 0.65866 0.0
O221 O 0.53419 0.01224 0.55389 0.0
O222 O 0.48244 0.98501 0.50514 0.0
O223 O 0.51956 0.98561 0.65814 0.0
O224 O 0.5086 1.00713 0.73846 0.0
O225 O 0.51004 0.99945 0.46933 0.0
O226 O 0.47843 0.01538 0.61834 0.0
O227 O 0.49114 0.02694 0.71881 0.0
C228 C 0.50764 0.04668 0.56352 0.0
C229 C 0.55701 0.03741 0.87078 0.0
C230 C 0.58891 0.03013 0.92727 0.0
C231 C 0.5814 0.0401 0.98339 0.0
C232 C 0.54951 0.04722 0.92722 0.0
C233 C 0.56168 0.04848 0.98337 0.0
C234 C 0.57662 0.02875 0.87131 0.0
C235 C 0.54968 0.01281 0.5954 0.0
C236 C 0.54482 0.03673 0.81062 0.0
C237 C 0.51843 0.12042 0.70741 0.0
C238 C 0.5372 0.1189 0.67416 0.0
C239 C 0.51458 0.9888 0.71983 0.0
C240 C 0.48115 0.99975 0.40002 0.0
C241 C 0.45116 0.01741 0.35732 0.0
C242 C 0.45905 0.01508 0.29363 0.0
C243 C 0.48876 0.99758 0.33621 0.0
C244 C 0.46229 1.00971 0.41063 0.0
C245 C 0.47775 1.00524 0.28329 0.0
C246 C 0.47583 0.02319 0.67783 0.0
C247 C 0.49278 0.99054 0.45374 0.0
H248 H 0.59067 0.04116 0.02731 0.0
H249 H 0.53432 0.05396 0.92787 0.0
H250 H 0.55586 0.05603 0.02682 0.0
H251 H 0.58259 0.02132 0.82767 0.0
H252 H 0.45051 0.02046 0.25161 0.0
H253 H 0.50315 0.98973 0.3273 0.0
H254 H 0.45624 0.01136 0.45982 0.0
H255 H 0.48359 1.00331 0.23405 0.0
Tb256 Tb 0.53225 0.50856 0.58145 0.0
C257 C 0.46182 0.50101 0.79237 0.0
N258 N 0.46276 0.51149 0.73494 0.0
C259 C 0.42719 0.50339 0.71446 0.0
C260 C 0.44375 0.4905 0.81142 0.0
C261 C 0.44531 0.51376 0.69805 0.0
C262 C 0.42649 0.49142 0.77083 0.0
C263 C 0.4778 0.49197 0.89565 0.0
C264 C 0.47853 0.5019 0.83443 0.0
C265 C 0.46018 0.48079 0.91342 0.0
C266 C 0.44318 0.48008 0.87148 0.0
Tb267 Tb 0.49334 0.52837 0.71586 0.0
N268 N 0.49536 0.51293 0.81596 0.0
C269 C 0.49467 0.49389 0.93772 0.0
C270 C 0.51135 0.5158 0.85851 0.0
C271 C 0.51142 0.50604 0.9193 0.0
H272 H 0.44518 0.52381 0.65602 0.0
H273 H 0.52426 0.50818 0.95233 0.0
H274 H 0.57707 0.51718 0.65752 0.0
H275 H 0.51155 0.51681 0.32591 0.0
H276 H 0.52383 0.526 0.84658 0.0
H277 H 0.4947 0.48649 0.98513 0.0
H278 H 0.50786 0.50331 0.43755 0.0
H279 H 0.41365 0.50495 0.68416 0.0
H280 H 0.45936 0.47299 0.96013 0.0
H281 H 0.42947 0.47185 0.88666 0.0
H282 H 0.60898 0.53612 0.63579 0.0
H283 H 0.41232 0.48363 0.78389 0.0
H284 H 0.54113 0.53913 0.29784 0.0
N285 N 0.56317 0.52473 0.5664 0.0
C286 C 0.56618 0.53314 0.50635 0.0
C287 C 0.59695 0.53567 0.59926 0.0
C288 C 0.58456 0.54367 0.49105 0.0
C289 C 0.57854 0.52526 0.61199 0.0
C290 C 0.5999 0.54512 0.5388 0.0
N291 N 0.53399 0.51948 0.47498 0.0
C292 C 0.52046 0.51367 0.42691 0.0
C293 C 0.55409 0.53809 0.39534 0.0
C294 C 0.55105 0.53053 0.45929 0.0
C295 C 0.53935 0.53361 0.3475 0.0
C296 C 0.52263 0.52105 0.36313 0.0
H297 H 0.61426 0.55302 0.52888 0.0
H298 H 0.60123 0.56019 0.41576 0.0
H299 H 0.57458 0.55522 0.33183 0.0
O300 O 0.52768 0.48241 0.52366 0.0
O301 O 0.53403 0.54211 0.59861 0.0
O302 O 0.50141 0.55012 0.63594 0.0
O303 O 0.55711 0.48767 0.57302 0.0
O304 O 0.50279 0.52022 0.54404 0.0
O305 O 0.47965 0.51418 0.62697 0.0
O306 O 0.49272 0.54995 0.79226 0.0
O307 O 0.50598 0.49752 0.73259 0.0
O308 O 0.50982 0.48715 0.62677 0.0
O309 O 0.46906 0.54948 0.71944 0.0
O310 O 0.52629 0.5363 0.72788 0.0
O311 O 0.54207 0.50776 0.68483 0.0
C312 C 0.51909 0.55549 0.60841 0.0
C313 C 0.55363 0.45668 0.50551 0.0
C314 C 0.54611 0.42484 0.44734 0.0
C315 C 0.56725 0.42083 0.44306 0.0
C316 C 0.5747 0.45239 0.50197 0.0
C317 C 0.58145 0.4345 0.47076 0.0
C318 C 0.53941 0.44274 0.47873 0.0
C319 C 0.48399 0.51639 0.56435 0.0
C320 C 0.54629 0.47602 0.53398 0.0
C321 C 0.58725 0.55198 0.4283 0.0
C322 C 0.57206 0.54919 0.38055 0.0
C323 C 0.50777 0.4827 0.6892 0.0
C324 C 0.47752 0.58165 0.76544 0.0
C325 C 0.49363 0.61397 0.79593 0.0
C326 C 0.47968 0.62459 0.75642 0.0
C327 C 0.46326 0.59245 0.72708 0.0
C328 C 0.49247 0.59262 0.80078 0.0
C329 C 0.46444 0.61383 0.72247 0.0
C330 C 0.54177 0.52323 0.7268 0.0
C331 C 0.47652 0.55913 0.76984 0.0
H332 H 0.57273 0.40704 0.41899 0.0
H333 H 0.58593 0.463 0.52222 0.0
H334 H 0.59773 0.43129 0.46766 0.0
H335 H 0.52308 0.44596 0.48112 0.0
H336 H 0.48042 0.64119 0.75273 0.0
H337 H 0.45131 0.58437 0.70033 0.0
H338 H 0.50334 0.58465 0.83173 0.0
H339 H 0.45352 0.62206 0.6926 0.0
Tb340 Tb 0.02541 0.53879 0.57503 0.0
C341 C 0.03169 0.4643 0.76617 0.0
N342 N 0.02041 0.4676 0.71118 0.0
C343 C 0.026 0.43264 0.67744 0.0
C344 C 0.04098 0.44514 0.77811 0.0
C345 C 0.0168 0.45179 0.66825 0.0
C346 C 0.03828 0.42934 0.73229 0.0
C347 C 0.04448 0.47711 0.87039 0.0
C348 C 0.03344 0.48003 0.81186 0.0
C349 C 0.05401 0.45817 0.88194 0.0
C350 C 0.05228 0.44223 0.8359 0.0
Tb351 Tb 1.00522 0.49924 0.70541 0.0
N352 N 0.02432 0.49826 0.79867 0.0
C353 C 0.04537 0.49324 0.91588 0.0
C354 C 0.0241 0.5136 0.84458 0.0
C355 C 0.03496 0.5115 0.90314 0.0
H356 H 1.00623 0.45342 0.62804 0.0
H357 H 0.03502 0.52385 0.93882 0.0
H358 H 0.012 0.58274 0.64226 0.0
H359 H 0.00916 0.5053 0.33634 0.0
H360 H 0.0154 0.52736 0.83663 0.0
H361 H 0.05366 0.4916 0.9615 0.0
H362 H 0.02778 0.50852 0.43972 0.0
H363 H 0.02321 0.42028 0.64292 0.0
H364 H 0.06257 0.45562 0.92661 0.0
H365 H 0.05951 0.42761 0.84587 0.0
H366 H 0.9899 0.61213 0.61498 0.0
H367 H 0.04514 0.41439 0.7397 0.0
H368 H 0.98324 0.5312 0.30591 0.0
N369 N 1.00393 0.56558 0.55731 0.0
C370 C 0.99412 0.56566 0.4987 0.0
C371 C 0.9907 0.59903 0.58227 0.0
C372 C 0.98146 0.58221 0.48064 0.0
C373 C 1.00298 0.5822 0.59814 0.0
C374 C 0.97975 0.59897 0.5235 0.0
N375 N 0.01022 0.53398 0.47464 0.0
C376 C 0.01537 0.51898 0.43056 0.0
C377 C 0.98681 0.54857 0.39577 0.0
C378 C 0.99689 0.54906 0.45684 0.0
C379 C 0.99073 0.53219 0.35317 0.0
C380 C 1.00528 0.51749 0.37032 0.0
H381 H 0.97029 0.61206 0.51123 0.0
H382 H 0.96125 0.5941 0.40576 0.0
H383 H 0.96581 0.56459 0.33158 0.0
O384 O 0.04311 0.55029 0.49724 0.0
O385 O 0.99195 0.53826 0.59919 0.0
O386 O 0.98553 0.50436 0.61954 0.0
O387 O 0.04648 0.56259 0.59445 0.0
O388 O 0.03214 0.50605 0.55339 0.0
O389 O 1.00529 0.48866 0.60249 0.0
O390 O 0.98162 0.50703 0.77024 0.0
O391 O 0.03773 0.5095 0.71535 0.0
O392 O 0.04882 0.51737 0.61126 0.0
O393 O 0.98637 0.47552 0.74172 0.0
O394 O 0.99896 0.53201 0.7237 0.0
O395 O 0.02674 0.54851 0.67838 0.0
C396 C 0.97926 0.52237 0.59866 0.0
C397 C 0.07632 0.5607 0.53081 0.0
C398 C 0.10718 0.54261 0.49658 0.0
C399 C 0.1192 0.55716 0.53053 0.0
C400 C 0.08856 0.57523 0.56378 0.0
C401 C 0.1099 0.57339 0.56376 0.0
C402 C 0.08573 0.54443 0.49684 0.0
C403 C 0.02018 0.48968 0.55884 0.0
C404 C 0.05386 0.56224 0.53533 0.0
C405 C 0.97111 0.58157 0.42044 0.0
C406 C 0.97369 0.56473 0.37828 0.0
C407 C 0.05262 0.51213 0.67224 0.0
C408 C 0.95238 0.48638 0.76264 0.0
C409 C 0.91831 0.49774 0.79373 0.0
C410 C 0.90984 0.48593 0.74263 0.0
C411 C 0.94387 0.47452 0.71172 0.0
C412 C 0.93954 0.49771 0.80373 0.0
C413 C 0.92261 0.47428 0.70207 0.0
C414 C 0.01192 0.54761 0.72218 0.0
C415 C 0.97455 0.48832 0.77264 0.0
H416 H 0.13581 0.55622 0.53013 0.0
H417 H 0.08157 0.58783 0.59031 0.0
H418 H 0.11926 0.58461 0.58943 0.0
H419 H 0.07647 0.53303 0.47139 0.0
H420 H 0.8934 0.48564 0.73438 0.0
H421 H 0.95357 0.46574 0.67899 0.0
H422 H 0.9462 0.5071 0.84237 0.0
H423 H 0.91604 0.46522 0.66271 0.0
C424 C 0.17491 0.06131 0.12602 0.0
C425 C 0.18774 0.04453 0.11237 0.0
C426 C 0.15965 0.06001 0.17487 0.0
C427 C 0.1438 0.02894 0.32153 0.0
H428 H 0.09119 0.05544 0.29693 0.0
C429 C 0.07506 0.0126 0.496 0.0
C430 C 0.06085 0.02828 0.51004 0.0
C431 C 0.09053 0.01531 0.44877 0.0
C432 C 0.10585 0.04814 0.30538 0.0
H433 H 0.19466 0.01321 0.13894 0.0
H434 H 0.16807 0.01072 0.22342 0.0
H435 H 0.11778 0.05873 0.21342 0.0
H436 H 0.05199 0.05925 0.48418 0.0
H437 H 0.07916 0.06418 0.40273 0.0
H438 H 0.132 0.01841 0.41343 0.0
C439 C 0.16983 0.02509 0.19746 0.0
C440 C 0.12122 0.05002 0.25706 0.0
C441 C 0.18505 0.02643 0.14864 0.0
C442 C 0.06263 0.04681 0.475 0.0
C443 C 0.07821 0.04957 0.42773 0.0
C444 C 0.12849 0.0271 0.36984 0.0
C445 C 0.15681 0.04185 0.21155 0.0
C446 C 0.14044 0.04032 0.26399 0.0
C447 C 0.09247 0.03385 0.41367 0.0
C448 C 0.10913 0.03652 0.36256 0.0
H449 H 0.17665 0.07549 0.09885 0.0
H450 H 0.15026 0.07338 0.18436 0.0
H451 H 0.15843 0.02157 0.32991 0.0
H452 H 0.07409 0.99796 0.52088 0.0
H453 H 0.10074 1.00258 0.43896 0.0
C454 C 0.51463 0.18987 0.15928 0.0
C455 C 0.49648 0.19416 0.12489 0.0
C456 C 0.51528 0.17404 0.20614 0.0
C457 C 0.4814 0.1386 0.30723 0.0
H458 H 0.53266 0.10977 0.33371 0.0
C459 C 0.48802 0.06521 0.47353 0.0
C460 C 0.50563 0.06351 0.51336 0.0
C461 C 0.48638 0.08093 0.42633 0.0
C462 C 0.51821 0.11773 0.32763 0.0
H463 H 0.46471 0.1851 0.11271 0.0
H464 H 0.46574 0.15733 0.19335 0.0
H465 H 0.53075 0.13684 0.25225 0.0
H466 H 0.53548 0.07716 0.53264 0.0
H467 H 0.53264 0.10431 0.4514 0.0
H468 H 0.46885 0.119 0.38206 0.0
C469 C 0.47954 0.16635 0.18549 0.0
C470 C 0.5171 0.13348 0.28064 0.0
C471 C 0.47891 0.18227 0.13872 0.0
C472 C 0.52156 0.07797 0.5039 0.0
C473 C 0.52001 0.09353 0.45644 0.0
C474 C 0.48247 0.12266 0.35385 0.0
C475 C 0.49779 0.16179 0.22004 0.0
C476 C 0.49873 0.14443 0.26973 0.0
C477 C 0.5024 0.09533 0.41666 0.0
C478 C 0.50096 0.11204 0.36536 0.0
H479 H 0.52845 0.19872 0.14967 0.0
H480 H 0.52958 0.17159 0.23184 0.0
H481 H 0.46697 0.14661 0.30175 0.0
H482 H 0.47542 0.05439 0.47882 0.0
H483 H 0.47264 0.08154 0.39653 0.0
C484 C 0.33695 0.49095 0.17654 0.0
C485 C 0.3404 0.49936 0.11422 0.0
C486 C 0.35232 0.49179 0.22523 0.0
C487 C 0.40921 0.50234 0.24975 0.0
H488 H 0.39344 0.5083 0.43169 0.0
C489 C 0.46876 0.52381 0.45275 0.0
C490 C 0.46713 0.51424 0.51428 0.0
C491 C 0.45343 0.52127 0.40475 0.0
C492 C 0.39821 0.50643 0.38125 0.0
H493 H 0.36276 0.51505 0.05393 0.0
H494 H 0.38931 0.51696 0.1382 0.0
H495 H 0.367 0.50511 0.34777 0.0
H496 H 0.44767 0.49434 0.57263 0.0
H497 H 0.42071 0.4904 0.49006 0.0
H498 H 0.44044 0.50405 0.2834 0.0
C499 C 0.37496 0.50936 0.15007 0.0
C500 C 0.38293 0.50453 0.33266 0.0
C501 C 0.35961 0.50845 0.10152 0.0
C502 C 0.44941 0.5023 0.52653 0.0
C503 C 0.43392 0.49995 0.47877 0.0
C504 C 0.42447 0.50441 0.29827 0.0
C505 C 0.37164 0.50112 0.21314 0.0
C506 C 0.38808 0.50255 0.26577 0.0
C507 C 0.43571 0.50928 0.41676 0.0
C508 C 0.41927 0.5066 0.36493 0.0
H509 H 0.32235 0.4837 0.18777 0.0
H510 H 0.34905 0.48489 0.27223 0.0
H511 H 0.41411 0.50037 0.19951 0.0
H512 H 0.48187 0.5335 0.44168 0.0
H513 H 0.45535 0.52904 0.35837 0.0
C514 C 0.04532 0.34327 0.16942 0.0
C515 C 0.03139 0.34318 0.11692 0.0
C516 C 0.04495 0.35909 0.21693 0.0
C517 C 0.02244 0.41211 0.2497 0.0
H518 H 0.04016 0.40142 0.42729 0.0
C519 C 1.005 0.46651 0.47202 0.0
C520 C 0.02208 0.47274 0.50946 0.0
C521 C 1.00681 0.45104 0.424 0.0
C522 C 0.03525 0.40469 0.3778 0.0
H523 H 1.00615 0.35956 0.07306 0.0
H524 H 1.00492 0.38659 0.15583 0.0
H525 H 0.04171 0.37404 0.34532 0.0
H526 H 0.05434 0.46718 0.52699 0.0
H527 H 0.05728 0.43932 0.4455 0.0
H528 H 0.01516 0.44257 0.28372 0.0
C529 C 0.01659 0.37492 0.16053 0.0
C530 C 0.03625 0.38896 0.3302 0.0
C531 C 0.0171 0.35921 0.11297 0.0
C532 C 0.04094 0.46278 0.49871 0.0
C533 C 0.04259 0.44679 0.4522 0.0
C534 C 0.02102 0.42766 0.29764 0.0
C535 C 0.03052 0.37528 0.21365 0.0
C536 C 0.02983 0.39229 0.26498 0.0
C537 C 0.0256 0.44083 0.4136 0.0
C538 C 0.0274 0.42421 0.36241 0.0
H539 H 0.05659 0.33115 0.17369 0.0
H540 H 0.05624 0.35867 0.25573 0.0
H541 H 0.01784 0.41585 0.20032 0.0
H542 H 0.9903 0.47396 0.47891 0.0
H543 H 0.99341 0.44685 0.3954 0.0
C544 C 0.84582 0.98415 0.13411 0.0
C545 C 0.84038 1.00198 0.16897 0.0
C546 C 0.86144 0.98467 0.08608 0.0
C547 C 0.9054 0.01817 0.02471 0.0
H548 H 0.904 0.98116 0.87573 0.0
C549 C 0.95853 0.02922 0.79722 0.0
C550 C 0.96844 0.01178 0.77141 0.0
C551 C 0.94329 0.02737 0.84578 0.0
C552 C 0.90475 0.99152 0.91727 0.0
H553 H 0.8469 0.03438 0.18024 0.0
H554 H 0.87351 0.03562 0.09614 0.0
H555 H 0.87687 0.97938 0.95824 0.0
H556 H 0.9696 0.97857 0.77629 0.0
H557 H 0.94254 0.97525 0.85972 0.0
H558 H 0.93298 0.03068 0.98236 0.0
C559 C 0.86628 0.02096 0.10623 0.0
C560 C 0.88913 0.99047 0.96517 0.0
C561 C 0.85078 0.02036 0.15436 0.0
C562 C 0.96237 0.99235 0.79505 0.0
C563 C 0.94676 0.99045 0.84275 0.0
C564 C 0.92079 0.01942 0.97637 0.0
C565 C 0.87208 1.00311 0.07119 0.0
C566 C 0.88905 1.00385 0.0199 0.0
C567 C 0.93708 1.00796 0.86937 0.0
C568 C 0.92073 1.00618 0.92168 0.0
H569 H 0.83809 0.96971 0.14432 0.0
H570 H 0.86536 0.97045 0.06154 0.0
H571 H 0.90655 0.02844 0.06634 0.0
H572 H 0.9628 0.04445 0.78053 0.0
H573 H 0.93615 0.04121 0.86442 0.0
C574 C 0.51243 0.84825 0.13632 0.0
C575 C 0.53122 0.84385 0.16694 0.0
C576 C 0.51105 0.86365 0.08807 0.0
C577 C 0.54294 0.89654 0.97344 0.0
H578 H 0.49256 0.92772 0.96022 0.0
C579 C 0.5276 0.95376 0.75672 0.0
C580 C 0.51669 0.97198 0.77008 0.0
C581 C 0.52973 0.93827 0.80453 0.0
C582 C 0.50686 0.91935 0.96313 0.0
H583 H 0.56339 0.85228 0.17058 0.0
H584 H 0.56109 0.87921 0.08713 0.0
H585 H 0.49584 0.90147 0.04394 0.0
H586 H 0.49951 0.98786 0.84558 0.0
H587 H 0.5032 0.96118 0.9282 0.0
H588 H 0.55406 0.91483 0.89324 0.0
C589 C 0.54732 0.87063 0.09939 0.0
C590 C 0.50867 0.90393 0.0111 0.0
C591 C 0.54867 0.85519 0.14774 0.0
C592 C 0.508 0.97412 0.83294 0.0
C593 C 0.51001 0.95863 0.88053 0.0
C594 C 0.5411 0.91196 0.92525 0.0
C595 C 0.52842 0.87528 0.06868 0.0
C596 C 0.52671 0.89211 0.01729 0.0
C597 C 0.52093 0.94036 0.86746 0.0
C598 C 0.52301 0.92369 0.91904 0.0
H599 H 0.49869 0.83981 0.14987 0.0
H600 H 0.49625 0.86624 0.0655 0.0
H601 H 0.55708 0.88788 0.9755 0.0
H602 H 0.53473 0.9515 0.70939 0.0
H603 H 0.5381 0.9245 0.79167 0.0
C604 C 0.67843 0.51541 0.1538 0.0
C605 C 0.68876 0.53379 0.16939 0.0
C606 C 0.66273 0.51491 0.10628 0.0
C607 C 0.63882 0.54608 0.96881 0.0
H608 H 0.59588 0.50482 0.98295 0.0
C609 C 0.56465 0.54448 0.80255 0.0
C610 C 0.55876 0.52523 0.7766 0.0
C611 C 0.58054 0.54616 0.84938 0.0
C612 C 0.60781 0.51638 0.97779 0.0
H613 H 0.69061 0.56619 0.1471 0.0
H614 H 0.66304 0.56562 0.06546 0.0
H615 H 0.62258 0.50684 0.06604 0.0
H616 H 0.56505 0.49261 0.78089 0.0
H617 H 0.59216 0.49543 0.86354 0.0
H618 H 0.62337 0.55593 0.88122 0.0
C619 C 0.66717 0.55131 0.08868 0.0
C620 C 0.62337 0.51751 0.02564 0.0
C621 C 0.683 0.55174 0.1361 0.0
C622 C 0.56916 0.50771 0.79936 0.0
C623 C 0.58468 0.50933 0.84722 0.0
C624 C 0.62301 0.54515 0.92146 0.0
C625 C 0.65661 0.53286 0.07275 0.0
C626 C 0.63942 0.53221 0.02197 0.0
C627 C 0.59071 0.52858 0.87305 0.0
C628 C 0.60734 0.53013 0.92473 0.0
H629 H 0.68249 0.50129 0.17849 0.0
H630 H 0.6556 0.50023 0.09546 0.0
H631 H 0.65081 0.55749 0.96264 0.0
H632 H 0.55706 0.55833 0.78619 0.0
H633 H 0.5846 0.56125 0.86807 0.0
C634 C 0.01445 0.69255 0.12192 0.0
C635 C 0.99843 0.69299 0.1679 0.0
C636 C 0.01511 0.67727 0.07297 0.0
C637 C 0.99356 0.62516 0.02848 0.0
H638 H 0.01679 0.63776 0.85858 0.0
C639 C 0.99251 0.56549 0.81374 0.0
C640 C 0.00966 0.56468 0.77159 0.0
C641 C 0.99051 0.58124 0.86075 0.0
C642 C 0.01046 0.6338 0.90591 0.0
H643 H 0.97034 0.67792 0.19831 0.0
H644 H 0.97116 0.65146 0.11261 0.0
H645 H 0.01427 0.66465 0.94128 0.0
H646 H 0.03815 0.5802 0.74674 0.0
H647 H 0.03478 0.60743 0.82846 0.0
H648 H 0.98971 0.5943 0.99286 0.0
C649 C 0.98353 0.66264 0.11454 0.0
C650 C 0.00901 0.64934 0.95379 0.0
C651 C 0.98293 0.67793 0.16357 0.0
C652 C 0.02467 0.58025 0.77786 0.0
C653 C 0.02265 0.59602 0.8248 0.0
C654 C 0.99496 0.60962 0.98049 0.0
C655 C 0.9997 0.66194 0.06835 0.0
C656 C 1.00066 0.64533 0.01625 0.0
C657 C 1.00556 0.5968 0.86733 0.0
C658 C 1.00357 0.61359 0.91839 0.0
H659 H 0.02666 0.70393 0.12419 0.0
H660 H 0.02802 0.67728 0.03954 0.0
H661 H 0.9873 0.62116 0.07586 0.0
H662 H 0.98053 0.5539 0.81051 0.0
H663 H 0.97695 0.5813 0.89149 0.0
C664 C 0.07795 0.24169 0.14598 0.0
C665 C 0.06156 0.25563 0.14306 0.0
C666 C 0.07878 0.22725 0.19616 0.0
C667 C 0.05116 0.2083 0.34459 0.0
H668 H 0.05028 0.15695 0.24734 0.0
C669 C 0.01391 0.13452 0.44701 0.0
C670 C 0.99901 0.12641 0.40426 0.0
C671 C 0.02805 0.14911 0.42479 0.0
C672 C 0.05073 0.17111 0.27542 0.0
H673 H 0.03495 0.2674 0.19449 0.0
H674 H 0.03629 0.24231 0.28149 0.0
H675 H 0.06558 0.18734 0.19824 0.0
H676 H 0.98765 0.12621 0.30476 0.0
H677 H 0.01238 0.15172 0.2656 0.0
H678 H 0.03472 0.19227 0.41955 0.0
C679 C 0.04858 0.24241 0.24574 0.0
C680 C 0.05975 0.18849 0.24777 0.0
C681 C 0.0478 0.25687 0.19575 0.0
C682 C 0.99888 0.13249 0.33859 0.0
C683 C 0.01317 0.14685 0.31618 0.0
C684 C 0.04215 0.19087 0.37229 0.0
C685 C 0.06321 0.22659 0.24378 0.0
C686 C 0.05924 0.20749 0.28088 0.0
C687 C 0.02768 0.15551 0.3593 0.0
C688 C 0.04108 0.1724 0.33664 0.0
H689 H 0.08888 0.24065 0.10609 0.0
H690 H 0.09047 0.21547 0.19426 0.0
H691 H 0.05065 0.22271 0.37129 0.0
H692 H 0.01425 0.12997 0.49794 0.0
H693 H 0.03911 0.15557 0.45883 0.0
C694 C 0.2846 0.02814 0.18237 0.0
C695 C 0.27809 0.04711 0.15794 0.0
C696 C 0.29919 0.02752 0.2322 0.0
C697 C 0.33139 0.04308 0.35311 0.0
H698 H 0.37711 0.04529 0.23113 0.0
C699 C 0.4151 0.01607 0.3998 0.0
C700 C 0.4307 0.02673 0.3663 0.0
C701 C 0.39464 0.02235 0.39422 0.0
C702 C 0.36459 0.04511 0.26612 0.0
H703 H 0.2799 0.08014 0.16877 0.0
H704 H 0.30572 0.07906 0.25603 0.0
H705 H 0.34218 0.04811 0.19052 0.0
H706 H 0.43777 0.05359 0.30805 0.0
H707 H 0.40216 0.06467 0.29882 0.0
H708 H 0.35404 0.03952 0.42876 0.0
C709 C 0.29921 0.06478 0.23788 0.0
C710 C 0.34466 0.04657 0.24275 0.0
C711 C 0.28459 0.0654 0.18804 0.0
C712 C 0.42591 0.04493 0.33324 0.0
C713 C 0.40558 0.05125 0.32804 0.0
C714 C 0.35154 0.04159 0.37682 0.0
C715 C 0.30735 0.04587 0.2576 0.0
C716 C 0.32799 0.04548 0.28589 0.0
C717 C 0.38967 0.03937 0.3553 0.0
C718 C 0.3683 0.04257 0.3333 0.0
H719 H 0.27996 0.01393 0.15859 0.0
H720 H 0.30572 0.01284 0.24573 0.0
H721 H 0.31855 0.0421 0.38675 0.0
H722 H 0.41846 1.00199 0.42573 0.0
H723 H 0.38265 0.01292 0.41568 0.0
C724 C 0.45159 0.29802 0.14145 0.0
C725 C 0.46705 0.28301 0.14125 0.0
C726 C 0.45106 0.31287 0.19085 0.0
C727 C 0.47696 0.33071 0.34372 0.0
H728 H 0.48328 0.38157 0.24694 0.0
C729 C 0.51448 0.40313 0.45661 0.0
C730 C 0.53094 0.41051 0.41871 0.0
C731 C 0.50052 0.38902 0.43013 0.0
C732 C 0.48132 0.36755 0.27481 0.0
H733 H 0.49208 0.26991 0.1969 0.0
H734 H 0.49113 0.2956 0.28285 0.0
H735 H 0.4674 0.35189 0.19427 0.0
H736 H 0.54526 0.40992 0.32306 0.0
H737 H 0.52082 0.38526 0.27647 0.0
H738 H 0.49231 0.34609 0.42264 0.0
C739 C 0.47942 0.29607 0.24525 0.0
C740 C 0.47198 0.35061 0.24505 0.0
C741 C 0.47995 0.28126 0.19589 0.0
C742 C 0.53283 0.40418 0.35335 0.0
C743 C 0.51872 0.39031 0.32661 0.0
C744 C 0.48624 0.34771 0.3736 0.0
C745 C 0.46592 0.31281 0.24069 0.0
C746 C 0.47046 0.33177 0.27831 0.0
C747 C 0.50263 0.38238 0.36507 0.0
C748 C 0.48923 0.36599 0.33841 0.0
H749 H 0.44127 0.29948 0.10017 0.0
H750 H 0.44023 0.3254 0.18692 0.0
H751 H 0.47595 0.3164 0.37048 0.0
H752 H 0.51273 0.4079 0.50717 0.0
H753 H 0.4882 0.38315 0.4606 0.0
C754 C 0.24636 0.50091 0.1858 0.0
C755 C 0.24906 0.48327 0.14735 0.0
C756 C 0.23019 0.50179 0.23036 0.0
C757 C 0.18969 0.4741 0.31734 0.0
H758 H 0.15761 0.52204 0.27122 0.0
C759 C 0.13347 0.51514 0.48557 0.0
C760 C 0.11729 0.52634 0.45809 0.0
C761 C 0.1461 0.5032 0.44583 0.0
C762 C 0.1661 0.50832 0.28376 0.0
H763 H 0.23895 0.452 0.12961 0.0
H764 H 0.21089 0.45331 0.2094 0.0
H765 H 0.18945 0.51506 0.2135 0.0
H766 H 0.1001 0.53219 0.36932 0.0
H767 H 0.12228 0.51126 0.29949 0.0
H768 H 0.16647 0.46773 0.38906 0.0
C769 C 0.22106 0.46645 0.20469 0.0
C770 C 0.18453 0.50458 0.25159 0.0
C771 C 0.23713 0.46565 0.15958 0.0
C772 C 0.11259 0.52376 0.3915 0.0
C773 C 0.12529 0.51187 0.35161 0.0
C774 C 0.17124 0.47795 0.35013 0.0
C775 C 0.21674 0.48496 0.23714 0.0
C776 C 0.19677 0.48783 0.26955 0.0
C777 C 0.14278 0.50238 0.37796 0.0
C778 C 0.15958 0.49543 0.33476 0.0
H779 H 0.25524 0.51473 0.1763 0.0
H780 H 0.22722 0.51613 0.25571 0.0
H781 H 0.1988 0.46091 0.33102 0.0
H782 H 0.13711 0.51665 0.53711 0.0
H783 H 0.15949 0.49612 0.4675 0.0
C784 C 0.98706 0.77983 0.0876 0.0
C785 C 0.97168 0.77979 0.13559 0.0
C786 C 0.98677 0.79448 0.03817 0.0
C787 C 0.97059 0.84745 0.033 0.0
H788 H 1.00377 0.84664 0.87559 0.0
C789 C 0.02536 0.91302 0.96798 0.0
C790 C 0.02932 0.91743 0.90201 0.0
C791 C 0.01265 0.89652 0.98478 0.0
C792 C 0.99408 0.84727 0.91862 0.0
H793 H 0.94239 0.79254 0.16464 0.0
H794 H 0.9414 0.81774 0.07643 0.0
H795 H 0.9887 0.81484 0.91544 0.0
H796 H 0.02301 0.90785 0.80182 0.0
H797 H 1.00014 0.8799 0.83119 0.0
H798 H 0.9762 0.87982 0.03671 0.0
C799 C 0.95404 0.80698 0.07811 0.0
C800 C 0.98557 0.82897 0.9417 0.0
C801 C 0.95448 0.79248 0.12813 0.0
C802 C 0.02004 0.90517 0.85323 0.0
C803 C 1.0071 0.88893 0.86998 0.0
C804 C 0.97887 0.86577 0.00945 0.0
C805 C 0.97096 0.80914 0.03585 0.0
C806 C 0.97459 0.82871 1.00087 0.0
C807 C 1.00348 0.88424 0.93589 0.0
C808 C 0.99149 0.8657 0.95377 0.0
H809 H 1.00055 0.77026 0.09275 0.0
H810 H 1.00013 0.79569 0.00676 0.0
H811 H 0.96241 0.84787 0.07913 0.0
H812 H 0.03205 0.92231 0.00665 0.0
H813 H 0.01047 0.8931 0.03614 0.0
C814 C 0.74155 0.95897 0.11946 0.0
C815 C 0.75305 0.97674 0.13268 0.0
C816 C 0.72811 0.95852 0.06629 0.0
C817 C 0.70535 0.99321 0.93751 0.0
H818 H 0.65477 0.9716 0.01121 0.0
C819 C 0.62668 0.03276 0.94543 0.0
C820 C 0.60952 0.02102 0.92661 0.0
C821 C 0.64612 0.02387 0.94634 0.0
C822 C 0.66881 0.97737 0.98916 0.0
H823 H 0.76138 1.00709 0.0985 0.0
H824 H 0.73724 1.00704 0.00913 0.0
H825 H 0.68726 0.96005 0.05381 0.0
H826 H 0.599 0.9912 0.89223 0.0
H827 H 0.63308 0.97541 0.89638 0.0
H828 H 0.68618 0.0124 0.87832 0.0
C829 C 0.73878 0.99303 0.037 0.0
C830 C 0.68757 0.97062 0.01305 0.0
C831 C 0.75265 0.99317 0.08869 0.0
C832 C 0.61209 1.00048 0.907 0.0
C833 C 0.63147 0.99151 0.909 0.0
C834 C 0.68648 1.00041 0.91497 0.0
C835 C 0.72534 0.97623 0.02778 0.0
C836 C 0.70614 0.97906 0.98953 0.0
C837 C 0.64853 1.0031 0.92933 0.0
C838 C 0.66816 0.99295 0.94224 0.0
H839 H 0.74182 0.94609 0.1529 0.0
H840 H 0.71863 0.94498 0.05907 0.0
H841 H 0.71927 0.99967 0.91686 0.0
H842 H 0.62499 0.0487 0.95997 0.0
H843 H 0.65911 0.03294 0.96319 0.0
C844 C 0.57335 0.74375 0.12799 0.0
C845 C 0.55513 0.75484 0.13723 0.0
C846 C 0.5744 0.72871 0.07943 0.0
C847 C 0.55766 0.68679 0.03137 0.0
H848 H 0.53919 0.6904 0.85159 0.0
C849 C 0.50741 0.62719 0.9011 0.0
C850 C 0.50922 0.62529 0.83304 0.0
C851 C 0.52036 0.6406 0.93512 0.0
C852 C 0.54488 0.68905 0.90117 0.0
H853 H 0.52439 0.76031 0.10112 0.0
H854 H 0.52633 0.73423 0.0152 0.0
H855 H 0.54873 0.72162 0.9104 0.0
H856 H 0.52681 0.63375 0.74743 0.0
H857 H 0.54987 0.65702 0.80708 0.0
H858 H 0.55237 0.65433 0.02371 0.0
C859 C 0.53981 0.73728 0.04486 0.0
C860 C 0.55021 0.70693 0.93469 0.0
C861 C 0.53874 0.75225 0.09354 0.0
C862 C 0.5251 0.63543 0.79993 0.0
C863 C 0.53822 0.64861 0.83397 0.0
C864 C 0.5521 0.66886 0.99801 0.0
C865 C 0.55729 0.72482 0.03961 0.0
C866 C 0.5561 0.70595 1.00037 0.0
C867 C 0.53532 0.65206 0.90122 0.0
C868 C 0.54513 0.66994 0.93313 0.0
H869 H 0.58604 0.7455 0.16191 0.0
H870 H 0.58799 0.71921 0.07578 0.0
H871 H 0.56185 0.68582 0.08259 0.0
H872 H 0.49521 0.61928 0.92717 0.0
H873 H 0.51766 0.64309 0.98686 0.0
C874 C 0.79128 0.57914 0.14083 0.0
C875 C 0.77661 0.56321 0.1444 0.0
C876 C 0.80691 0.57825 0.09416 0.0
C877 C 0.83578 0.53666 0.03554 0.0
H878 H 0.86283 0.57247 0.9107 0.0
C879 C 0.90785 0.51025 0.90433 0.0
C880 C 0.90526 0.51054 0.83608 0.0
C881 C 0.89501 0.52184 0.94446 0.0
C882 C 0.85548 0.56248 0.94608 0.0
H883 H 0.7645 0.53606 0.0957 0.0
H884 H 0.79152 0.53478 0.01373 0.0
H885 H 0.83142 0.58411 0.96647 0.0
H886 H 0.88841 0.52409 0.75586 0.0
H887 H 0.86555 0.54398 0.82614 0.0
H888 H 0.85924 0.51485 0.01494 0.0
C889 C 0.7912 0.54764 0.0476 0.0
C890 C 0.83761 0.56909 0.9775 0.0
C891 C 0.77562 0.54852 0.09408 0.0
C892 C 0.89036 0.52332 0.80843 0.0
C893 C 0.87759 0.53497 0.84853 0.0
C894 C 0.85365 0.53018 1.00489 0.0
C895 C 0.80772 0.56154 0.05084 0.0
C896 C 0.8273 0.55585 0.02044 0.0
C897 C 0.87947 0.5339 0.91684 0.0
C898 C 0.86327 0.54274 0.95835 0.0
H899 H 0.79214 0.59073 0.17897 0.0
H900 H 0.8195 0.58918 0.09694 0.0
H901 H 0.82829 0.52646 0.07006 0.0
H902 H 0.91936 0.50057 0.92672 0.0
H903 H 0.89676 0.52083 0.99709 0.0
C904 C 0.02022 0.23284 0.90621 0.0
C905 C 0.03992 0.24105 0.91788 0.0
C906 C 0.01773 0.21356 0.8751 0.0
C907 C 0.04671 0.17139 0.78483 0.0
H908 H 1.0026 0.13708 0.85114 0.0
C909 C 0.04188 0.08257 0.73251 0.0
C910 C 0.0223 0.0744 0.71789 0.0
C911 C 0.04418 0.10305 0.75465 0.0
C912 C 0.01494 0.14644 0.83147 0.0
H913 H 0.07237 0.23569 0.90315 0.0
H914 H 0.06823 0.20252 0.8494 0.0
H915 H 1.0057 0.17253 0.88831 0.0
H916 H 0.98978 0.08166 0.71671 0.0
H917 H 0.99377 0.11684 0.75537 0.0
H918 H 0.05615 0.14495 0.72913 0.0
C919 C 0.05451 0.21082 0.86314 0.0
C920 C 0.01667 0.16699 0.85263 0.0
C921 C 0.05694 0.23004 0.89394 0.0
C922 C 1.00515 0.08724 0.72721 0.0
C923 C 1.00742 0.10754 0.7499 0.0
C924 C 0.04508 0.15074 0.76413 0.0
C925 C 0.0349 0.20182 0.85503 0.0
C926 C 0.03257 0.17995 0.82976 0.0
C927 C 0.02695 0.1159 0.7637 0.0
C928 C 0.02913 0.1379 0.78698 0.0
H929 H 1.00678 0.24065 0.92506 0.0
H930 H 1.0023 0.2076 0.86873 0.0
H931 H 0.05903 0.18068 0.76485 0.0
H932 H 0.05548 0.07326 0.72589 0.0
H933 H 0.05948 0.10877 0.76523 0.0
C934 C 0.30162 0.06359 0.9016 0.0
C935 C 0.29076 0.04588 0.92114 0.0
C936 C 0.32039 0.0621 0.86736 0.0
C937 C 0.35609 0.0239 0.78402 0.0
H938 H 0.39751 0.06528 0.82213 0.0
C939 C 0.44316 0.01068 0.73188 0.0
C940 C 0.45439 0.02666 0.70224 0.0
C941 C 0.42291 0.01376 0.75394 0.0
C942 C 0.38611 0.05365 0.81038 0.0
H943 H 0.29133 0.0127 0.91996 0.0
H944 H 0.32377 1.0099 0.86111 0.0
H945 H 0.3628 0.06918 0.86551 0.0
H946 H 0.45359 0.05891 0.67723 0.0
H947 H 0.41849 0.0646 0.71817 0.0
H948 H 0.37975 1.00806 0.73085 0.0
C949 C 0.31772 0.02511 0.86998 0.0
C950 C 0.36599 0.05592 0.83511 0.0
C951 C 0.29888 0.02665 0.90363 0.0
C952 C 0.4452 0.04615 0.6985 0.0
C953 C 0.42508 0.04941 0.72225 0.0
C954 C 0.37626 0.0215 0.76017 0.0
C955 C 0.32919 0.0428 0.85261 0.0
C956 C 0.35055 0.041 0.82287 0.0
C957 C 0.41345 0.03316 0.74941 0.0
C958 C 0.39168 0.03625 0.77326 0.0
H959 H 0.29612 0.07865 0.91592 0.0
H960 H 0.32825 0.07619 0.85416 0.0
H961 H 0.34484 0.01222 0.77159 0.0
H962 H 0.45007 0.99575 0.73856 0.0
H963 H 0.41476 1.00096 0.77588 0.0
C964 C 0.51091 0.30534 0.92088 0.0
C965 C 0.49203 0.29474 0.91846 0.0
C966 C 0.5135 0.32441 0.88926 0.0
C967 C 0.48974 0.36102 0.76797 0.0
H968 H 0.52018 0.40194 0.86696 0.0
C969 C 0.50578 0.44413 0.66642 0.0
C970 C 0.50617 0.46065 0.71133 0.0
C971 C 0.5043 0.42357 0.68806 0.0
C972 C 0.51146 0.39086 0.83852 0.0
H973 H 0.46115 0.29595 0.87968 0.0
H974 H 0.46574 0.32873 0.823 0.0
H975 H 0.51735 0.36704 0.90812 0.0
H976 H 0.5057 0.46792 0.81485 0.0
H977 H 0.50242 0.43269 0.85212 0.0
H978 H 0.48342 0.38508 0.69916 0.0
C979 C 0.47873 0.32232 0.84876 0.0
C980 C 0.5101 0.37056 0.86187 0.0
C981 C 0.47611 0.30333 0.88087 0.0
C982 C 0.50512 0.45585 0.77843 0.0
C983 C 0.50354 0.4354 0.80001 0.0
C984 C 0.49116 0.38136 0.74443 0.0
C985 C 0.49726 0.33358 0.85416 0.0
C986 C 0.4992 0.35521 0.82722 0.0
C987 C 0.5032 0.41878 0.75541 0.0
C988 C 0.50196 0.39675 0.77945 0.0
H989 H 0.52328 0.29955 0.95099 0.0
H990 H 0.52812 0.33229 0.89412 0.0
H991 H 0.48128 0.34978 0.73934 0.0
H992 H 0.5067 0.44705 0.61435 0.0
H993 H 0.50437 0.4114 0.65178 0.0
C994 C 0.22515 0.47531 0.90292 0.0
C995 C 0.2386 0.49214 0.91226 0.0
C996 C 0.20644 0.4775 0.86955 0.0
C997 C 0.17544 0.5097 0.75704 0.0
H998 H 0.12941 0.48771 0.85514 0.0
C999 C 0.09 0.52361 0.67442 0.0
C1000 C 0.07458 0.50962 0.69373 0.0
C1001 C 0.11042 0.52173 0.69705 0.0
C1002 C 0.14191 0.49363 0.82569 0.0
H1003 H 0.24315 0.52429 0.88948 0.0
H1004 H 0.21076 0.52793 0.82826 0.0
H1005 H 0.16405 0.48357 0.89625 0.0
H1006 H 0.06938 0.48176 0.74821 0.0
H1007 H 0.10427 0.47807 0.78655 0.0
H1008 H 0.15344 0.51922 0.68526 0.0
C1009 C 0.21472 0.51302 0.84778 0.0
C1010 C 0.16199 0.49134 0.84995 0.0
C1011 C 0.23345 0.51089 0.88226 0.0
C1012 C 0.08041 0.49334 0.73451 0.0
C1013 C 0.10076 0.49125 0.75654 0.0
C1014 C 0.15531 0.51166 0.73191 0.0
C1015 C 0.20053 0.49654 0.84333 0.0
C1016 C 0.17913 0.49928 0.81614 0.0
C1017 C 0.11624 0.50558 0.73928 0.0
C1018 C 0.13805 0.50363 0.76569 0.0
H1019 H 0.22846 0.46069 0.92571 0.0
H1020 H 0.1962 0.46435 0.86634 0.0
H1021 H 0.1882 0.51597 0.72935 0.0
H1022 H 0.08614 0.5364 0.64326 0.0
H1023 H 0.12144 0.53333 0.68235 0.0
C1024 C 0.97154 0.80688 0.38129 0.0
C1025 C 0.98878 0.79496 0.36435 0.0
C1026 C 0.97375 0.82605 0.41234 0.0
C1027 C 0.01009 0.86119 0.50119 0.0
H1028 H 0.97616 0.90381 0.42593 0.0
C1029 C 0.02384 0.94803 0.56175 0.0
C1030 C 1.007 0.96158 0.56293 0.0
C1031 C 0.02156 0.92752 0.54082 0.0
C1032 C 0.98558 0.89218 0.44865 0.0
H1033 H 0.02192 0.79364 0.37058 0.0
H1034 H 0.02585 0.82694 0.42661 0.0
H1035 H 0.97239 0.86849 0.38852 0.0
H1036 H 0.97437 0.96364 0.5433 0.0
H1037 H 0.97029 0.92805 0.50763 0.0
H1038 H 0.02315 0.88485 0.56186 0.0
C1039 C 0.01051 0.82142 0.41552 0.0
C1040 C 0.98342 0.87174 0.42689 0.0
C1041 C 1.00828 0.80216 0.38392 0.0
C1042 C 0.98777 0.95386 0.54262 0.0
C1043 C 0.98547 0.9333 0.52174 0.0
C1044 C 0.01213 0.88165 0.52346 0.0
C1045 C 0.99331 0.83404 0.42785 0.0
C1046 C 0.99563 0.85585 0.45266 0.0
C1047 C 1.00233 0.91968 0.5204 0.0
C1048 C 0.99995 0.89759 0.49747 0.0
H1049 H 0.95629 0.80192 0.36661 0.0
H1050 H 0.96007 0.83495 0.42223 0.0
H1051 H 0.01966 0.84947 0.52282 0.0
H1052 H 0.03892 0.95328 0.57699 0.0
H1053 H 0.03508 0.9179 0.53979 0.0
C1054 C 0.72836 0.01394 0.36802 0.0
C1055 C 0.73713 0.99436 0.36013 0.0
C1056 C 0.70912 0.01639 0.39908 0.0
C1057 C 0.66914 0.98922 0.50241 0.0
H1058 H 0.63213 0.02857 0.42419 0.0
C1059 C 0.58774 1.00607 0.61324 0.0
C1060 C 0.5714 0.01054 0.5704 0.0
C1061 C 0.60808 1.00417 0.59013 0.0
C1062 C 0.6421 0.01735 0.44662 0.0
H1063 H 0.73247 0.96205 0.38006 0.0
H1064 H 0.69944 0.96623 0.43549 0.0
H1065 H 0.66706 0.02533 0.38268 0.0
H1066 H 0.5641 0.01658 0.46889 0.0
H1067 H 0.59924 0.01301 0.42857 0.0
H1068 H 0.644 0.98089 0.56531 0.0
C1069 C 0.70737 0.97986 0.41834 0.0
C1070 C 0.66242 0.0157 0.42324 0.0
C1071 C 0.72649 0.97742 0.3868 0.0
C1072 C 0.57614 0.01306 0.50359 0.0
C1073 C 0.59648 0.01118 0.48046 0.0
C1074 C 0.64882 0.99092 0.52596 0.0
C1075 C 0.69799 0.99931 0.4234 0.0
C1076 C 0.67637 1.00157 0.45051 0.0
C1077 C 0.6129 1.00675 0.52325 0.0
C1078 C 0.63483 1.00498 0.49839 0.0
H1079 H 0.73578 0.02725 0.34655 0.0
H1080 H 0.70274 0.03168 0.40252 0.0
H1081 H 0.67924 0.97822 0.52538 0.0
H1082 H 0.58484 1.00404 0.66502 0.0
H1083 H 0.6201 1.00101 0.62522 0.0
C1084 C 0.52304 0.73668 0.39838 0.0
C1085 C 0.54192 0.74228 0.36946 0.0
C1086 C 0.52078 0.71772 0.43175 0.0
C1087 C 0.54328 0.66509 0.43096 0.0
H1088 H 0.51232 0.65595 0.59014 0.0
C1089 C 0.53956 0.58347 0.54965 0.0
C1090 C 0.5219 0.57737 0.58473 0.0
C1091 C 0.54206 0.60379 0.52693 0.0
C1092 C 0.52077 0.658 0.545 0.0
H1093 H 0.57354 0.73264 0.35768 0.0
H1094 H 0.56962 0.70003 0.41474 0.0
H1095 H 0.51615 0.6908 0.54714 0.0
H1096 H 0.49306 0.58863 0.62331 0.0
H1097 H 0.49722 0.62372 0.58404 0.0
H1098 H 0.54746 0.63248 0.42693 0.0
C1099 C 0.55642 0.71004 0.41128 0.0
C1100 C 0.52304 0.67819 0.52043 0.0
C1101 C 0.55873 0.72898 0.37914 0.0
C1102 C 0.50691 0.59252 0.59671 0.0
C1103 C 0.50941 0.61289 0.57423 0.0
C1104 C 0.54078 0.64493 0.45488 0.0
C1105 C 0.53726 0.70369 0.43631 0.0
C1106 C 0.53446 0.68213 0.46314 0.0
C1107 C 0.527 0.619 0.53841 0.0
C1108 C 0.52956 0.64087 0.51268 0.0
H1109 H 0.50965 0.74623 0.39127 0.0
H1110 H 0.50578 0.71351 0.4505 0.0
H1111 H 0.55188 0.66727 0.3861 0.0
H1112 H 0.55162 0.57254 0.53954 0.0
H1113 H 0.55607 0.60755 0.50097 0.0
C1114 C 0.79839 0.52287 0.3858 0.0
C1115 C 0.79106 0.54255 0.36966 0.0
C1116 C 0.81764 0.52039 0.41717 0.0
C1117 C 0.86794 0.54846 0.43796 0.0
H1118 H 0.8807 0.50569 0.56249 0.0
C1119 C 0.94883 0.54412 0.56225 0.0
C1120 C 0.9573 0.5247 0.57576 0.0
C1121 C 0.92842 0.54614 0.53993 0.0
C1122 C 0.8776 0.51761 0.5271 0.0
H1123 H 0.79805 0.57504 0.37757 0.0
H1124 H 0.83096 0.57085 0.43257 0.0
H1125 H 0.8456 0.50912 0.52139 0.0
H1126 H 0.95014 0.49213 0.5772 0.0
H1127 H 0.91477 0.49557 0.53966 0.0
H1128 H 0.89984 0.55682 0.44257 0.0
C1129 C 0.82218 0.55719 0.42025 0.0
C1130 C 0.85728 0.5196 0.50349 0.0
C1131 C 0.80301 0.55963 0.38955 0.0
C1132 C 0.94437 0.5074 0.56752 0.0
C1133 C 0.92388 0.50941 0.54598 0.0
C1134 C 0.88822 0.54642 0.46125 0.0
C1135 C 0.83025 0.53753 0.43276 0.0
C1136 C 0.85201 0.53514 0.45863 0.0
C1137 C 0.91547 0.52882 0.53119 0.0
C1138 C 0.89352 0.53098 0.50645 0.0
H1139 H 0.78994 0.50933 0.37016 0.0
H1140 H 0.82314 0.50496 0.42573 0.0
H1141 H 0.86486 0.56037 0.40247 0.0
H1142 H 0.95787 0.5579 0.56982 0.0
H1143 H 0.9227 0.56145 0.53068 0.0
loop_
_geom_bond_atom_site_label_1
_geom_bond_atom_site_label_2
_geom_bond_distance
_geom_bond_site_symmetry_2
_ccdc_geom_bond_type
H0 C3 0.929 . S
H1 C6 0.929 . S
H2 C8 0.930 . S
C3 H0 0.929 . S
C3 C4 1.398 . S
C3 C5 1.396 . S
C4 C3 1.398 . S
C4 C8 1.407 . S
C5 C3 1.396 . S
C5 C6 1.394 . S
C6 H1 0.929 . S
C6 C5 1.394 . S
C6 C7 1.382 . S
C7 C6 1.382 . S
C7 C8 1.392 . S
C7 N9 1.420 . S
C8 H2 0.930 . S
C8 C4 1.407 . S
C8 C7 1.392 . S
N9 C7 1.420 . S
N9 C10 1.244 . S
C10 N9 1.244 . S
H11 C14 0.929 . S
H12 C17 0.929 . S
H13 C19 0.930 . S
C14 H11 0.929 . S
C14 C15 1.398 . S
C14 C16 1.396 . S
C15 C14 1.398 . S
C15 C19 1.407 . S
C16 C14 1.396 . S
C16 C17 1.394 . S
C17 H12 0.929 . S
C17 C16 1.394 . S
C17 C18 1.382 . S
C18 C17 1.382 . S
C18 C19 1.392 . S
C18 N20 1.420 . S
C19 H13 0.930 . S
C19 C15 1.407 . S
C19 C18 1.392 . S
N20 C18 1.420 . S
N20 C21 1.244 . S
C21 N20 1.244 . S
H22 C25 0.929 . S
H23 C28 0.929 . S
H24 C30 0.930 . S
C25 H22 0.929 . S
C25 C26 1.398 . S
C25 C27 1.396 . S
C26 C25 1.398 . S
C26 C30 1.407 . S
C27 C25 1.396 . S
C27 C28 1.394 . S
C28 H23 0.929 . S
C28 C27 1.394 . S
C28 C29 1.382 . S
C29 C28 1.382 . S
C29 C30 1.392 . S
C29 N31 1.420 . S
C30 H24 0.930 . S
C30 C26 1.407 . S
C30 C29 1.392 . S
N31 C29 1.420 . S
N31 C32 1.244 . S
C32 N31 1.244 . S
H33 C36 0.929 . S
H34 C39 0.929 . S
H35 C41 0.930 . S
C36 H33 0.929 . S
C36 C37 1.398 . S
C36 C38 1.396 . S
C37 C36 1.398 . S
C37 C41 1.407 . S
C38 C36 1.396 . S
C38 C39 1.394 . S
C39 H34 0.929 . S
C39 C38 1.394 . S
C39 C40 1.382 . S
C40 C39 1.382 . S
C40 C41 1.392 . S
C40 N42 1.420 . S
C41 H35 0.930 . S
C41 C37 1.407 . S
C41 C40 1.392 . S
N42 C40 1.420 . S
N42 C43 1.244 . S
C43 N42 1.244 . S
H44 C47 0.929 . S
H45 C50 0.929 . S
H46 C52 0.930 . S
C47 H44 0.929 . S
C47 C48 1.398 1_554 S
C47 C49 1.396 . S
C48 C47 1.398 1_556 S
C48 C52 1.407 . S
C49 C47 1.396 . S
C49 C50 1.394 . S
C50 H45 0.929 . S
C50 C49 1.394 . S
C50 C51 1.382 . S
C51 C50 1.382 . S
C51 C52 1.392 1_554 S
C51 N53 1.420 . S
C52 H46 0.930 . S
C52 C48 1.407 . S
C52 C51 1.392 1_556 S
N53 C51 1.420 . S
N53 C54 1.244 . S
C54 N53 1.244 . S
H55 C58 0.929 . S
H56 C61 0.929 . S
H57 C63 0.930 . S
C58 H55 0.929 . S
C58 C59 1.398 1_554 S
C58 C60 1.396 . S
C59 C58 1.398 1_556 S
C59 C63 1.407 . S
C60 C58 1.396 . S
C60 C61 1.394 . S
C61 H56 0.929 . S
C61 C60 1.394 . S
C61 C62 1.382 . S
C62 C61 1.382 . S
C62 C63 1.392 1_554 S
C62 N64 1.420 . S
C63 H57 0.930 . S
C63 C59 1.407 . S
C63 C62 1.392 1_556 S
N64 C62 1.420 . S
N64 C65 1.244 . S
C65 N64 1.244 . S
H66 C69 0.929 . S
H67 C72 0.929 . S
H68 C74 0.930 . S
C69 H66 0.929 . S
C69 C70 1.398 1_554 S
C69 C71 1.396 . S
C70 C69 1.398 1_556 S
C70 C74 1.407 . S
C71 C69 1.396 . S
C71 C72 1.394 . S
C72 H67 0.929 . S
C72 C71 1.394 . S
C72 C73 1.382 . S
C73 C72 1.382 . S
C73 C74 1.392 1_554 S
C73 N75 1.420 . S
C74 H68 0.930 . S
C74 C70 1.407 . S
C74 C73 1.392 1_556 S
N75 C73 1.420 . S
N75 C76 1.244 . S
C76 N75 1.244 . S
H77 C80 0.929 . S
H78 C83 0.929 . S
H79 C85 0.930 . S
C80 H77 0.929 . S
C80 C81 1.398 1_554 S
C80 C82 1.396 . S
C81 C80 1.398 1_556 S
C81 C85 1.407 . S
C82 C80 1.396 . S
C82 C83 1.394 . S
C83 H78 0.929 . S
C83 C82 1.394 . S
C83 C84 1.382 . S
C84 C83 1.382 . S
C84 C85 1.392 1_554 S
C84 N86 1.420 . S
C85 H79 0.930 . S
C85 C81 1.407 . S
C85 C84 1.392 1_556 S
N86 C84 1.420 . S
N86 C87 1.244 . S
C87 N86 1.244 . S
Tb88 N117 2.617 . S
Tb88 N123 2.572 . S
Tb88 O132 2.465 1_655 S
Tb88 O133 2.387 1_545 S
Tb88 O135 2.428 . S
Tb88 O136 2.308 1_655 S
Tb88 O140 2.349 1_655 S
Tb88 O143 2.393 . S
Tb88 C152 2.802 . S
C89 N90 1.379 . S
C89 C92 1.416 . S
C89 C96 1.424 . S
N90 C89 1.379 . S
N90 C93 1.338 . S
N90 Tb99 2.617 1_545 S
C91 C93 1.402 . S
C91 C94 1.339 . S
C91 H111 0.930 . S
C92 C89 1.416 . S
C92 C94 1.416 . S
C92 C98 1.448 . S
C93 N90 1.338 . S
C93 C91 1.402 . S
C93 H104 0.915 1_545 S
C94 C91 1.339 . S
C94 C92 1.416 . S
C94 H115 0.930 . S
C95 C96 1.413 . S
C95 C97 1.427 . S
C95 C101 1.416 . S
C96 C89 1.424 . S
C96 C95 1.413 . S
C96 N100 1.361 . S
C97 C95 1.427 . S
C97 C98 1.328 . S
C97 H112 0.929 . S
C98 C92 1.448 . S
C98 C97 1.328 . S
C98 H113 0.930 . S
Tb99 N90 2.617 1_565 S
Tb99 N100 2.572 1_565 S
Tb99 O134 2.349 . S
Tb99 O137 2.393 . S
Tb99 O138 2.465 . S
Tb99 O139 2.387 1_565 S
Tb99 O141 2.428 . S
Tb99 O142 2.308 1_465 S
Tb99 C163 2.802 . S
N100 C96 1.361 . S
N100 Tb99 2.572 1_545 S
N100 C102 1.340 . S
C101 C95 1.416 . S
C101 C103 1.332 . S
C101 H109 0.931 . S
C102 N100 1.340 . S
C102 C103 1.407 . S
C102 H108 0.930 1_455 S
C103 C101 1.332 . S
C103 C102 1.407 . S
C103 H105 0.929 1_455 S
H104 C93 0.915 1_565 S
H105 C103 0.929 1_655 S
H106 C121 0.930 . S
H107 C128 0.936 . S
H108 C102 0.930 1_655 S
H109 C101 0.931 . S
H110 C124 0.930 . S
H111 C91 0.930 . S
H112 C97 0.929 . S
H113 C98 0.930 . S
H114 C119 0.930 . S
H115 C94 0.930 . S
H116 C127 0.931 . S
N117 Tb88 2.617 . S
N117 C118 1.379 . S
N117 C121 1.334 . S
C118 N117 1.379 . S
C118 C120 1.416 1_545 S
C118 C126 1.424 . S
C119 H114 0.930 . S
C119 C121 1.390 . S
C119 C122 1.331 1_545 S
C120 C118 1.416 1_565 S
C120 C122 1.418 . S
C120 C153 1.448 . S
C121 H106 0.930 . S
C121 N117 1.334 . S
C121 C119 1.390 . S
C122 C119 1.331 1_565 S
C122 C120 1.418 . S
C122 H129 0.937 . S
N123 Tb88 2.572 . S
N123 C124 1.340 1_655 S
N123 C126 1.361 . S
C124 H110 0.930 . S
C124 N123 1.340 1_455 S
C124 C128 1.385 1_545 S
C125 C126 1.413 1_565 S
C125 C127 1.416 . S
C125 C154 1.427 . S
C126 C118 1.424 . S
C126 N123 1.361 . S
C126 C125 1.413 1_545 S
C127 H116 0.931 . S
C127 C125 1.416 . S
C127 C128 1.352 1_655 S
C128 H107 0.936 . S
C128 C124 1.385 1_565 S
C128 C127 1.352 1_455 S
H129 C122 0.937 . S
H130 C153 0.930 . S
H131 C154 0.929 . S
O132 Tb88 2.465 1_455 S
O132 C152 1.264 1_455 S
O133 Tb88 2.387 1_565 S
O133 C144 1.264 . S
O134 Tb99 2.349 . S
O134 C144 1.243 1_455 S
O135 Tb88 2.428 . S
O135 C152 1.256 . S
O136 Tb88 2.308 1_455 S
O136 C151 1.266 . S
O137 Tb99 2.393 . S
O137 C151 1.248 1_565 S
O138 Tb99 2.465 . S
O138 C163 1.264 . S
O139 Tb99 2.387 1_545 S
O139 C155 1.264 . S
O140 Tb88 2.349 1_455 S
O140 C155 1.243 . S
O141 Tb99 2.428 . S
O141 C163 1.256 . S
O142 Tb99 2.308 1_645 S
O142 C162 1.266 . S
O143 Tb88 2.393 . S
O143 C162 1.248 . S
C144 O133 1.264 . S
C144 O134 1.243 1_655 S
C145 C148 1.399 . S
C145 C150 1.354 1_655 S
C145 C152 1.496 . S
C146 C147 1.399 . S
C146 C150 1.386 1_655 S
C147 C146 1.399 . S
C147 C149 1.380 . S
C147 H164 0.929 . S
C148 C145 1.399 . S
C148 C149 1.392 . S
C148 H165 0.929 . S
C149 C147 1.380 . S
C149 C148 1.392 . S
C149 H166 0.929 . S
C150 C145 1.354 1_455 S
C150 C146 1.386 1_455 S
C150 H167 0.964 . S
C151 O136 1.266 . S
C151 O137 1.248 1_545 S
C152 Tb88 2.802 . S
C152 O132 1.264 1_655 S
C152 O135 1.256 . S
C152 C145 1.496 . S
C153 C120 1.448 . S
C153 H130 0.930 . S
C153 C154 1.328 . S
C154 C125 1.427 . S
C154 H131 0.929 . S
C154 C153 1.328 . S
C155 O139 1.264 . S
C155 O140 1.243 . S
C156 C159 1.399 . S
C156 C160 1.383 . S
C156 C163 1.496 . S
C157 C158 1.399 . S
C157 C160 1.389 . S
C158 C157 1.399 . S
C158 C161 1.380 . S
C158 H168 0.929 . S
C159 C156 1.399 . S
C159 C161 1.392 . S
C159 H169 0.929 . S
C160 C156 1.383 . S
C160 C157 1.389 . S
C160 H170 0.895 1_455 S
C161 C158 1.380 . S
C161 C159 1.392 . S
C161 H171 0.929 . S
C162 O142 1.266 . S
C162 O143 1.248 . S
C163 Tb99 2.802 . S
C163 O138 1.264 . S
C163 O141 1.256 . S
C163 C156 1.496 . S
H164 C147 0.929 . S
H165 C148 0.929 . S
H166 C149 0.929 . S
H167 C150 0.964 . S
H168 C158 0.929 . S
H169 C159 0.929 . S
H170 C160 0.895 1_655 S
H171 C161 0.929 . S
Tb172 N201 2.617 . S
Tb172 N207 2.572 . S
Tb172 O216 2.465 . S
Tb172 O217 2.387 . S
Tb172 O219 2.428 . S
Tb172 O220 2.308 . S
Tb172 O224 2.349 1_545 S
Tb172 O227 2.393 . S
Tb172 C236 2.802 . S
C173 N174 1.379 . S
C173 C176 1.416 . S
C173 C180 1.424 . S
N174 C173 1.379 . S
N174 C177 1.334 . S
N174 Tb183 2.617 . S
C175 C177 1.390 . S
C175 C178 1.339 . S
C175 H195 0.930 . S
C176 C173 1.416 . S
C176 C178 1.416 . S
C176 C182 1.448 . S
C177 N174 1.334 . S
C177 C175 1.390 . S
C177 H188 0.930 . S
C178 C175 1.339 . S
C178 C176 1.416 . S
C178 H199 0.930 . S
C179 C180 1.413 . S
C179 C181 1.427 . S
C179 C185 1.416 . S
C180 C173 1.424 . S
C180 C179 1.413 . S
C180 N184 1.361 . S
C181 C179 1.427 . S
C181 C182 1.328 . S
C181 H196 0.929 . S
C182 C176 1.448 . S
C182 C181 1.328 . S
C182 H197 0.930 . S
Tb183 N174 2.617 . S
Tb183 N184 2.572 . S
Tb183 O218 2.349 1_565 S
Tb183 O221 2.393 . S
Tb183 O222 2.475 . S
Tb183 O223 2.387 . S
Tb183 O225 2.428 . S
Tb183 O226 2.308 1_565 S
Tb183 C247 2.802 . S
N184 C180 1.361 . S
N184 Tb183 2.572 . S
N184 C186 1.340 . S
C185 C179 1.416 . S
C185 C187 1.332 . S
C185 H193 0.931 . S
C186 N184 1.340 . S
C186 C187 1.407 . S
C186 H192 0.930 . S
C187 C185 1.332 . S
C187 C186 1.407 . S
C187 H189 0.929 . S
H188 C177 0.930 . S
H189 C187 0.929 . S
H190 C205 0.930 . S
H191 C212 0.929 . S
H192 C186 0.930 . S
H193 C185 0.931 . S
H194 C208 0.930 . S
H195 C175 0.930 . S
H196 C181 0.929 . S
H197 C182 0.930 . S
H198 C203 0.930 . S
H199 C178 0.930 . S
H200 C211 0.931 . S
N201 Tb172 2.617 . S
N201 C202 1.379 . S
N201 C205 1.334 . S
C202 N201 1.379 . S
C202 C204 1.416 . S
C202 C210 1.424 . S
C203 H198 0.930 . S
C203 C205 1.390 . S
C203 C206 1.339 . S
C204 C202 1.416 . S
C204 C206 1.416 . S
C204 C237 1.448 . S
C205 H190 0.930 . S
C205 N201 1.334 . S
C205 C203 1.390 . S
C206 C203 1.339 . S
C206 C204 1.416 . S
C206 H213 0.930 . S
N207 Tb172 2.572 . S
N207 C208 1.340 . S
N207 C210 1.361 . S
C208 H194 0.930 . S
C208 N207 1.340 . S
C208 C212 1.407 . S
C209 C210 1.413 . S
C209 C211 1.416 . S
C209 C238 1.427 . S
C210 C202 1.424 . S
C210 N207 1.361 . S
C210 C209 1.413 . S
C211 H200 0.931 . S
C211 C209 1.416 . S
C211 C212 1.332 . S
C212 H191 0.929 . S
C212 C208 1.407 . S
C212 C211 1.332 . S
H213 C206 0.930 . S
H214 C237 0.930 . S
H215 C238 0.929 . S
O216 Tb172 2.465 . S
O216 C236 1.264 . S
O217 Tb172 2.387 . S
O217 C228 1.264 . S
O218 Tb183 2.349 1_545 S
O218 C228 1.243 . S
O219 Tb172 2.428 . S
O219 C236 1.256 . S
O220 Tb172 2.308 . S
O220 C235 1.266 . S
O221 Tb183 2.393 . S
O221 C235 1.248 1_565 S
O222 Tb183 2.475 . S
O222 C247 1.270 . S
O223 Tb183 2.387 . S
O223 C239 1.264 . S
O224 Tb172 2.349 1_565 S
O224 C239 1.243 . S
O225 Tb183 2.428 . S
O225 C247 1.256 . S
O226 Tb183 2.308 1_545 S
O226 C246 1.266 . S
O227 Tb172 2.393 . S
O227 C246 1.248 . S
C228 O217 1.264 . S
C228 O218 1.243 . S
C229 C232 1.399 . S
C229 C234 1.383 . S
C229 C236 1.496 . S
C230 C231 1.399 . S
C230 C234 1.389 . S
C231 C230 1.399 . S
C231 C233 1.380 . S
C231 H248 0.929 . S
C232 C229 1.399 . S
C232 C233 1.392 . S
C232 H249 0.929 . S
C233 C231 1.380 . S
C233 C232 1.392 . S
C233 H250 0.929 1_556 S
C234 C229 1.383 . S
C234 C230 1.389 . S
C234 H251 0.931 . S
C235 O220 1.266 . S
C235 O221 1.248 1_545 S
C236 Tb172 2.802 . S
C236 O216 1.264 . S
C236 O219 1.256 . S
C236 C229 1.496 . S
C237 C204 1.448 . S
C237 H214 0.930 . S
C237 C238 1.328 . S
C238 C209 1.427 . S
C238 H215 0.929 . S
C238 C237 1.328 . S
C239 O223 1.264 . S
C239 O224 1.243 . S
C240 C243 1.408 . S
C240 C244 1.371 1_565 S
C240 C247 1.501 . S
C241 C242 1.399 . S
C241 C244 1.389 . S
C242 C241 1.399 . S
C242 C245 1.380 1_545 S
C242 H252 0.929 . S
C243 C240 1.408 . S
C243 C245 1.392 . S
C243 H253 0.929 . S
C244 C240 1.371 1_545 S
C244 C241 1.389 . S
C244 H254 0.931 . S
C245 C242 1.380 1_565 S
C245 C243 1.392 . S
C245 H255 0.929 . S
C246 O226 1.266 . S
C246 O227 1.248 . S
C247 Tb183 2.802 . S
C247 O222 1.270 . S
C247 O225 1.256 . S
C247 C240 1.501 . S
H248 C231 0.929 . S
H249 C232 0.929 . S
H250 C233 0.929 1_554 S
H251 C234 0.931 . S
H252 C242 0.929 . S
H253 C243 0.929 . S
H254 C244 0.931 . S
H255 C245 0.929 . S
Tb256 N285 2.617 . S
Tb256 N291 2.572 . S
Tb256 O300 2.465 . S
Tb256 O301 2.387 . S
Tb256 O303 2.428 . S
Tb256 O304 2.308 . S
Tb256 O308 2.349 . S
Tb256 O311 2.393 . S
Tb256 C320 2.802 . S
C257 N258 1.379 . S
C257 C260 1.416 . S
C257 C264 1.424 . S
N258 C257 1.379 . S
N258 C261 1.334 . S
N258 Tb267 2.617 . S
C259 C261 1.390 . S
C259 C262 1.339 . S
C259 H279 0.930 . S
C260 C257 1.416 . S
C260 C262 1.416 . S
C260 C266 1.448 . S
C261 N258 1.334 . S
C261 C259 1.390 . S
C261 H272 0.930 . S
C262 C259 1.339 . S
C262 C260 1.416 . S
C262 H283 0.930 . S
C263 C264 1.413 . S
C263 C265 1.427 . S
C263 C269 1.416 . S
C264 C257 1.424 . S
C264 C263 1.413 . S
C264 N268 1.361 . S
C265 C263 1.427 . S
C265 C266 1.328 . S
C265 H280 0.929 . S
C266 C260 1.448 . S
C266 C265 1.328 . S
C266 H281 0.930 . S
Tb267 N258 2.617 . S
Tb267 N268 2.572 . S
Tb267 O302 2.349 . S
Tb267 O305 2.393 . S
Tb267 O306 2.465 . S
Tb267 O307 2.387 . S
Tb267 O309 2.428 . S
Tb267 O310 2.308 . S
Tb267 C331 2.802 . S
N268 C264 1.361 . S
N268 Tb267 2.572 . S
N268 C270 1.340 . S
C269 C263 1.416 . S
C269 C271 1.332 . S
C269 H277 0.931 . S
C270 N268 1.340 . S
C270 C271 1.407 . S
C270 H276 0.930 . S
C271 C269 1.332 . S
C271 C270 1.407 . S
C271 H273 0.929 . S
H272 C261 0.930 . S
H273 C271 0.929 . S
H274 C289 0.930 . S
H275 C296 0.929 . S
H276 C270 0.930 . S
H277 C269 0.931 . S
H278 C292 0.930 . S
H279 C259 0.930 . S
H280 C265 0.929 . S
H281 C266 0.930 . S
H282 C287 0.930 . S
H283 C262 0.930 . S
H284 C295 0.931 . S
N285 Tb256 2.617 . S
N285 C286 1.379 . S
N285 C289 1.334 . S
C286 N285 1.379 . S
C286 C288 1.416 . S
C286 C294 1.424 . S
C287 H282 0.930 . S
C287 C289 1.390 . S
C287 C290 1.339 . S
C288 C286 1.416 . S
C288 C290 1.416 . S
C288 C321 1.448 . S
C289 H274 0.930 . S
C289 N285 1.334 . S
C289 C287 1.390 . S
C290 C287 1.339 . S
C290 C288 1.416 . S
C290 H297 0.930 . S
N291 Tb256 2.572 . S
N291 C292 1.340 . S
N291 C294 1.361 . S
C292 H278 0.930 . S
C292 N291 1.340 . S
C292 C296 1.407 . S
C293 C294 1.413 . S
C293 C295 1.416 . S
C293 C322 1.427 . S
C294 C286 1.424 . S
C294 N291 1.361 . S
C294 C293 1.413 . S
C295 H284 0.931 . S
C295 C293 1.416 . S
C295 C296 1.332 . S
C296 H275 0.929 . S
C296 C292 1.407 . S
C296 C295 1.332 . S
H297 C290 0.930 . S
H298 C321 0.930 . S
H299 C322 0.929 . S
O300 Tb256 2.465 . S
O300 C320 1.264 . S
O301 Tb256 2.387 . S
O301 C312 1.264 . S
O302 Tb267 2.349 . S
O302 C312 1.243 . S
O303 Tb256 2.428 . S
O303 C320 1.256 . S
O304 Tb256 2.308 . S
O304 C319 1.266 . S
O305 Tb267 2.393 . S
O305 C319 1.248 . S
O306 Tb267 2.465 . S
O306 C331 1.264 . S
O307 Tb267 2.387 . S
O307 C323 1.264 . S
O308 Tb256 2.349 . S
O308 C323 1.243 . S
O309 Tb267 2.428 . S
O309 C331 1.256 . S
O310 Tb267 2.308 . S
O310 C330 1.266 . S
O311 Tb256 2.393 . S
O311 C330 1.248 . S
C312 O301 1.264 . S
C312 O302 1.243 . S
C313 C316 1.399 . S
C313 C318 1.383 . S
C313 C320 1.496 . S
C314 C315 1.399 . S
C314 C318 1.389 . S
C315 C314 1.399 . S
C315 C317 1.380 . S
C315 H332 0.929 . S
C316 C313 1.399 . S
C316 C317 1.392 . S
C316 H333 0.929 . S
C317 C315 1.380 . S
C317 C316 1.392 . S
C317 H334 0.929 . S
C318 C313 1.383 . S
C318 C314 1.389 . S
C318 H335 0.931 . S
C319 O304 1.266 . S
C319 O305 1.248 . S
C320 Tb256 2.802 . S
C320 O300 1.264 . S
C320 O303 1.256 . S
C320 C313 1.496 . S
C321 C288 1.448 . S
C321 H298 0.930 . S
C321 C322 1.328 . S
C322 C293 1.427 . S
C322 H299 0.929 . S
C322 C321 1.328 . S
C323 O307 1.264 . S
C323 O308 1.243 . S
C324 C327 1.399 . S
C324 C328 1.383 . S
C324 C331 1.496 . S
C325 C326 1.399 . S
C325 C328 1.389 . S
C326 C325 1.399 . S
C326 C329 1.380 . S
C326 H336 0.929 . S
C327 C324 1.399 . S
C327 C329 1.392 . S
C327 H337 0.929 . S
C328 C324 1.383 . S
C328 C325 1.389 . S
C328 H338 0.931 . S
C329 C326 1.380 . S
C329 C327 1.392 . S
C329 H339 0.929 . S
C330 O310 1.266 . S
C330 O311 1.248 . S
C331 Tb267 2.802 . S
C331 O306 1.264 . S
C331 O309 1.256 . S
C331 C324 1.496 . S
H332 C315 0.929 . S
H333 C316 0.929 . S
H334 C317 0.929 . S
H335 C318 0.931 . S
H336 C326 0.929 . S
H337 C327 0.929 . S
H338 C328 0.931 . S
H339 C329 0.929 . S
Tb340 N369 2.617 . S
Tb340 N375 2.572 . S
Tb340 O384 2.465 . S
Tb340 O385 2.387 1_455 S
Tb340 O387 2.428 . S
Tb340 O388 2.308 . S
Tb340 O392 2.349 . S
Tb340 O395 2.393 . S
Tb340 C404 2.802 . S
C341 N342 1.365 1_455 S
C341 C344 1.416 . S
C341 C348 1.424 . S
N342 C341 1.365 1_655 S
N342 C345 1.338 . S
N342 Tb351 2.625 . S
C343 C345 1.390 1_455 S
C343 C346 1.339 . S
C343 H363 0.930 . S
C344 C341 1.416 . S
C344 C346 1.416 . S
C344 C350 1.448 . S
C345 N342 1.338 . S
C345 C343 1.390 1_655 S
C345 H356 0.930 . S
C346 C343 1.339 . S
C346 C344 1.416 . S
C346 H367 0.930 . S
C347 C348 1.413 . S
C347 C349 1.427 . S
C347 C353 1.416 . S
C348 C341 1.424 . S
C348 C347 1.413 . S
C348 N352 1.361 . S
C349 C347 1.427 . S
C349 C350 1.328 . S
C349 H364 0.929 . S
C350 C344 1.448 . S
C350 C349 1.328 . S
C350 H365 0.930 . S
Tb351 N342 2.625 . S
Tb351 N352 2.572 1_655 S
Tb351 O386 2.349 . S
Tb351 O389 2.393 . S
Tb351 O390 2.465 . S
Tb351 O391 2.387 1_655 S
Tb351 O393 2.428 . S
Tb351 O394 2.308 1_655 S
Tb351 C415 2.802 . S
N352 C348 1.361 . S
N352 Tb351 2.572 1_455 S
N352 C354 1.340 . S
C353 C347 1.416 . S
C353 C355 1.332 . S
C353 H361 0.931 . S
C354 N352 1.340 . S
C354 C355 1.407 . S
C354 H360 0.944 . S
C355 C353 1.332 . S
C355 C354 1.407 . S
C355 H357 0.929 . S
H356 C345 0.930 . S
H357 C355 0.929 . S
H358 C373 0.930 . S
H359 C380 0.929 . S
H360 C354 0.944 . S
H361 C353 0.931 . S
H362 C376 0.930 . S
H363 C343 0.930 . S
H364 C349 0.929 . S
H365 C350 0.930 . S
H366 C371 0.930 . S
H367 C346 0.930 . S
H368 C379 0.931 . S
N369 Tb340 2.617 . S
N369 C370 1.379 . S
N369 C373 1.334 . S
C370 N369 1.379 . S
C370 C372 1.416 1_455 S
C370 C378 1.424 . S
C371 H366 0.930 . S
C371 C373 1.390 . S
C371 C374 1.339 1_455 S
C372 C370 1.416 1_655 S
C372 C374 1.416 . S
C372 C405 1.448 . S
C373 H358 0.930 . S
C373 N369 1.334 . S
C373 C371 1.390 . S
C374 C371 1.339 1_655 S
C374 C372 1.416 . S
C374 H381 0.930 . S
N375 Tb340 2.572 . S
N375 C376 1.340 . S
N375 C378 1.361 . S
C376 H362 0.930 . S
C376 N375 1.340 . S
C376 C380 1.407 1_455 S
C377 C378 1.413 1_655 S
C377 C379 1.416 . S
C377 C406 1.427 . S
C378 C370 1.424 . S
C378 N375 1.361 . S
C378 C377 1.413 1_455 S
C379 H368 0.931 . S
C379 C377 1.416 . S
C379 C380 1.332 . S
C380 H359 0.929 . S
C380 C376 1.407 1_655 S
C380 C379 1.332 . S
H381 C374 0.930 . S
H382 C405 0.930 . S
H383 C406 0.929 . S
O384 Tb340 2.465 . S
O384 C404 1.264 . S
O385 Tb340 2.387 1_655 S
O385 C396 1.264 . S
O386 Tb351 2.349 . S
O386 C396 1.243 . S
O387 Tb340 2.428 . S
O387 C404 1.256 . S
O388 Tb340 2.308 . S
O388 C403 1.266 . S
O389 Tb351 2.393 . S
O389 C403 1.248 1_655 S
O390 Tb351 2.465 . S
O390 C415 1.264 . S
O391 Tb351 2.387 1_455 S
O391 C407 1.264 . S
O392 Tb340 2.349 . S
O392 C407 1.243 . S
O393 Tb351 2.428 . S
O393 C415 1.256 . S
O394 Tb351 2.308 1_455 S
O394 C414 1.266 . S
O395 Tb340 2.393 . S
O395 C414 1.248 . S
C396 O385 1.264 . S
C396 O386 1.243 . S
C397 C400 1.399 . S
C397 C402 1.383 . S
C397 C404 1.496 . S
C398 C399 1.399 . S
C398 C402 1.389 . S
C399 C398 1.399 . S
C399 C401 1.380 . S
C399 H416 0.929 . S
C400 C397 1.399 . S
C400 C401 1.392 . S
C400 H417 0.929 . S
C401 C399 1.380 . S
C401 C400 1.392 . S
C401 H418 0.929 . S
C402 C397 1.383 . S
C402 C398 1.389 . S
C402 H419 0.931 . S
C403 O388 1.266 . S
C403 O389 1.248 1_455 S
C404 Tb340 2.802 . S
C404 O384 1.264 . S
C404 O387 1.256 . S
C404 C397 1.496 . S
C405 C372 1.448 . S
C405 H382 0.930 . S
C405 C406 1.328 . S
C406 C377 1.427 . S
C406 H383 0.929 . S
C406 C405 1.328 . S
C407 O391 1.264 . S
C407 O392 1.243 . S
C408 C411 1.399 . S
C408 C412 1.383 . S
C408 C415 1.496 . S
C409 C410 1.399 . S
C409 C412 1.389 . S
C410 C409 1.399 . S
C410 C413 1.380 . S
C410 H420 0.929 . S
C411 C408 1.399 . S
C411 C413 1.392 . S
C411 H421 0.929 . S
C412 C408 1.383 . S
C412 C409 1.389 . S
C412 H422 0.931 . S
C413 C410 1.380 . S
C413 C411 1.392 . S
C413 H423 0.929 . S
C414 O394 1.266 . S
C414 O395 1.248 . S
C415 Tb351 2.802 . S
C415 O390 1.264 . S
C415 O393 1.256 . S
C415 C408 1.496 . S
H416 C399 0.929 . S
H417 C400 0.929 . S
H418 C401 0.929 . S
H419 C402 0.931 . S
H420 C410 0.929 . S
H421 C411 0.929 . S
H422 C412 0.931 . S
H423 C413 0.929 . S
C424 C425 1.349 . S
C424 C426 1.327 . S
C424 H449 0.950 . S
C425 C424 1.349 . S
C425 C441 1.349 . S
C426 C424 1.327 . S
C426 C445 1.429 . S
C426 H450 0.950 . S
C427 C444 1.574 . S
C427 C446 1.368 . S
C427 H451 0.949 . S
H428 C432 0.949 . S
C429 C430 1.349 . S
C429 C431 1.327 . S
C429 H452 0.950 1_545 S
C430 C429 1.349 . S
C430 C442 1.349 . S
C431 C429 1.327 . S
C431 C447 1.429 . S
C431 H453 0.950 1_545 S
C432 H428 0.949 . S
C432 C440 1.574 . S
C432 C448 1.368 . S
H433 C441 0.950 . S
H434 C439 0.950 . S
H435 C440 0.949 . S
H436 C442 0.950 . S
H437 C443 0.950 . S
H438 C444 0.949 1_565 S
C439 H434 0.950 . S
C439 C441 1.327 . S
C439 C445 1.429 . S
C440 C432 1.574 . S
C440 H435 0.949 . S
C440 C446 1.368 . S
C441 C425 1.349 . S
C441 H433 0.950 . S
C441 C439 1.327 . S
C442 C430 1.349 . S
C442 H436 0.950 . S
C442 C443 1.327 . S
C443 H437 0.950 . S
C443 C442 1.327 . S
C443 C447 1.429 . S
C444 C427 1.574 . S
C444 H438 0.949 1_545 S
C444 C448 1.368 . S
C445 C426 1.429 . S
C445 C439 1.429 . S
C445 C446 1.523 . S
C446 C427 1.368 . S
C446 C440 1.368 . S
C446 C445 1.523 . S
C447 C431 1.429 . S
C447 C443 1.429 . S
C447 C448 1.523 . S
C448 C432 1.368 . S
C448 C444 1.368 . S
C448 C447 1.523 . S
H449 C424 0.950 . S
H450 C426 0.950 . S
H451 C427 0.949 . S
H452 C429 0.950 1_565 S
H453 C431 0.950 1_565 S
C454 C455 1.349 . S
C454 C456 1.327 . S
C454 H479 0.950 . S
C455 C454 1.349 . S
C455 C471 1.349 . S
C456 C454 1.327 . S
C456 C475 1.429 . S
C456 H480 0.950 . S
C457 C474 1.574 . S
C457 C476 1.368 . S
C457 H481 0.949 . S
H458 C462 0.949 . S
C459 C460 1.349 . S
C459 C461 1.327 . S
C459 H482 0.950 . S
C460 C459 1.349 . S
C460 C472 1.349 . S
C461 C459 1.327 . S
C461 C477 1.429 . S
C461 H483 0.950 . S
C462 H458 0.949 . S
C462 C470 1.574 . S
C462 C478 1.368 . S
H463 C471 0.950 . S
H464 C469 0.950 . S
H465 C470 0.949 . S
H466 C472 0.950 . S
H467 C473 0.950 . S
H468 C474 0.949 . S
C469 H464 0.950 . S
C469 C471 1.327 . S
C469 C475 1.429 . S
C470 C462 1.574 . S
C470 H465 0.949 . S
C470 C476 1.368 . S
C471 C455 1.349 . S
C471 H463 0.950 . S
C471 C469 1.327 . S
C472 C460 1.349 . S
C472 H466 0.950 . S
C472 C473 1.327 . S
C473 H467 0.950 . S
C473 C472 1.327 . S
C473 C477 1.429 . S
C474 C457 1.574 . S
C474 H468 0.949 . S
C474 C478 1.368 . S
C475 C456 1.429 . S
C475 C469 1.429 . S
C475 C476 1.523 . S
C476 C457 1.368 . S
C476 C470 1.368 . S
C476 C475 1.523 . S
C477 C461 1.429 . S
C477 C473 1.429 . S
C477 C478 1.523 . S
C478 C462 1.368 . S
C478 C474 1.368 . S
C478 C477 1.523 . S
H479 C454 0.950 . S
H480 C456 0.950 . S
H481 C457 0.949 . S
H482 C459 0.950 . S
H483 C461 0.950 . S
C484 C485 1.349 . S
C484 C486 1.327 . S
C484 H509 0.950 . S
C485 C484 1.349 . S
C485 C501 1.349 . S
C486 C484 1.327 . S
C486 C505 1.429 . S
C486 H510 0.950 . S
C487 C504 1.574 . S
C487 C506 1.368 . S
C487 H511 0.949 . S
H488 C492 0.949 . S
C489 C490 1.349 . S
C489 C491 1.327 . S
C489 H512 0.950 . S
C490 C489 1.349 . S
C490 C502 1.349 . S
C491 C489 1.327 . S
C491 C507 1.429 . S
C491 H513 0.950 . S
C492 H488 0.949 . S
C492 C500 1.574 . S
C492 C508 1.368 . S
H493 C501 0.950 . S
H494 C499 0.950 . S
H495 C500 0.949 . S
H496 C502 0.950 . S
H497 C503 0.950 . S
H498 C504 0.949 . S
C499 H494 0.950 . S
C499 C501 1.327 . S
C499 C505 1.429 . S
C500 C492 1.574 . S
C500 H495 0.949 . S
C500 C506 1.368 . S
C501 C485 1.349 . S
C501 H493 0.950 . S
C501 C499 1.327 . S
C502 C490 1.349 . S
C502 H496 0.950 . S
C502 C503 1.327 . S
C503 H497 0.950 . S
C503 C502 1.327 . S
C503 C507 1.429 . S
C504 C487 1.574 . S
C504 H498 0.949 . S
C504 C508 1.368 . S
C505 C486 1.429 . S
C505 C499 1.429 . S
C505 C506 1.523 . S
C506 C487 1.368 . S
C506 C500 1.368 . S
C506 C505 1.523 . S
C507 C491 1.429 . S
C507 C503 1.429 . S
C507 C508 1.523 . S
C508 C492 1.368 . S
C508 C504 1.368 . S
C508 C507 1.523 . S
H509 C484 0.950 . S
H510 C486 0.950 . S
H511 C487 0.949 . S
H512 C489 0.950 . S
H513 C491 0.950 . S
C514 C515 1.349 . S
C514 C516 1.327 . S
C514 H539 0.950 . S
C515 C514 1.349 . S
C515 C531 1.349 . S
C516 C514 1.327 . S
C516 C535 1.429 . S
C516 H540 0.950 . S
C517 C534 1.574 . S
C517 C536 1.368 . S
C517 H541 0.949 . S
H518 C522 0.949 . S
C519 C520 1.349 . S
C519 C521 1.327 . S
C519 H542 0.950 . S
C520 C519 1.349 . S
C520 C532 1.349 . S
C521 C519 1.327 . S
C521 C537 1.429 . S
C521 H543 0.950 . S
C522 H518 0.949 . S
C522 C530 1.574 . S
C522 C538 1.368 . S
H523 C531 0.950 . S
H524 C529 0.950 . S
H525 C530 0.949 . S
H526 C532 0.950 . S
H527 C533 0.950 . S
H528 C534 0.949 . S
C529 H524 0.950 . S
C529 C531 1.327 . S
C529 C535 1.429 . S
C530 C522 1.574 . S
C530 H525 0.949 . S
C530 C536 1.368 . S
C531 C515 1.349 . S
C531 H523 0.950 . S
C531 C529 1.327 . S
C532 C520 1.349 . S
C532 H526 0.950 . S
C532 C533 1.327 . S
C533 H527 0.950 . S
C533 C532 1.327 . S
C533 C537 1.429 . S
C534 C517 1.574 . S
C534 H528 0.949 . S
C534 C538 1.368 . S
C535 C516 1.429 . S
C535 C529 1.429 . S
C535 C536 1.523 . S
C536 C517 1.368 . S
C536 C530 1.368 . S
C536 C535 1.523 . S
C537 C521 1.429 . S
C537 C533 1.429 . S
C537 C538 1.523 . S
C538 C522 1.368 . S
C538 C534 1.368 . S
C538 C537 1.523 . S
H539 C514 0.950 . S
H540 C516 0.950 . S
H541 C517 0.949 . S
H542 C519 0.950 . S
H543 C521 0.950 . S
C544 C545 1.349 . S
C544 C546 1.327 . S
C544 H569 0.950 . S
C545 C544 1.349 . S
C545 C561 1.349 . S
C546 C544 1.327 . S
C546 C565 1.429 . S
C546 H570 0.950 . S
C547 C564 1.574 1_554 S
C547 C566 1.368 1_544 S
C547 H571 0.949 . S
H548 C552 0.949 . S
C549 C550 1.347 . S
C549 C551 1.327 . S
C549 H572 0.950 . S
C550 C549 1.347 . S
C550 C562 1.351 1_545 S
C551 C549 1.327 . S
C551 C567 1.429 1_545 S
C551 H573 0.950 . S
C552 H548 0.949 . S
C552 C560 1.574 . S
C552 C568 1.368 . S
H553 C561 0.950 1_545 S
H554 C559 0.950 1_545 S
H555 C560 0.949 . S
H556 C562 0.950 . S
H557 C563 0.950 . S
H558 C564 0.949 . S
C559 H554 0.950 1_565 S
C559 C561 1.327 . S
C559 C565 1.429 . S
C560 C552 1.574 . S
C560 H555 0.949 . S
C560 C566 1.368 . S
C561 C545 1.349 . S
C561 H553 0.950 1_565 S
C561 C559 1.327 . S
C562 C550 1.351 1_565 S
C562 H556 0.950 . S
C562 C563 1.327 . S
C563 H557 0.950 . S
C563 C562 1.327 . S
C563 C567 1.429 . S
C564 C547 1.574 1_556 S
C564 H558 0.949 . S
C564 C568 1.368 1_545 S
C565 C546 1.429 . S
C565 C559 1.429 . S
C565 C566 1.523 1_554 S
C566 C547 1.368 1_566 S
C566 C560 1.368 . S
C566 C565 1.523 1_556 S
C567 C551 1.429 1_565 S
C567 C563 1.429 . S
C567 C568 1.523 . S
C568 C552 1.368 . S
C568 C564 1.368 1_565 S
C568 C567 1.523 . S
H569 C544 0.950 . S
H570 C546 0.950 . S
H571 C547 0.949 . S
H572 C549 0.950 . S
H573 C551 0.950 . S
C574 C575 1.349 . S
C574 C576 1.327 . S
C574 H599 0.950 . S
C575 C574 1.349 . S
C575 C591 1.349 . S
C576 C574 1.327 . S
C576 C595 1.429 . S
C576 H600 0.950 . S
C577 C594 1.574 . S
C577 C596 1.368 1_556 S
C577 H601 0.949 . S
H578 C582 0.949 . S
C579 C580 1.349 . S
C579 C581 1.327 . S
C579 H602 0.950 . S
C580 C579 1.349 . S
C580 C592 1.349 . S
C581 C579 1.327 . S
C581 C597 1.429 . S
C581 H603 0.950 . S
C582 H578 0.949 . S
C582 C590 1.574 . S
C582 C598 1.368 . S
H583 C591 0.950 . S
H584 C589 0.950 . S
H585 C590 0.949 1_554 S
H586 C592 0.950 . S
H587 C593 0.950 . S
H588 C594 0.949 . S
C589 H584 0.950 . S
C589 C591 1.327 . S
C589 C595 1.429 . S
C590 C582 1.574 . S
C590 H585 0.949 1_556 S
C590 C596 1.368 1_556 S
C591 C575 1.349 . S
C591 H583 0.950 . S
C591 C589 1.327 . S
C592 C580 1.349 . S
C592 H586 0.950 . S
C592 C593 1.327 . S
C593 H587 0.950 . S
C593 C592 1.327 . S
C593 C597 1.429 . S
C594 C577 1.574 . S
C594 H588 0.949 . S
C594 C598 1.368 . S
C595 C576 1.429 . S
C595 C589 1.429 . S
C595 C596 1.523 . S
C596 C577 1.368 1_554 S
C596 C590 1.368 1_554 S
C596 C595 1.523 . S
C597 C581 1.429 . S
C597 C593 1.429 . S
C597 C598 1.523 . S
C598 C582 1.368 . S
C598 C594 1.368 . S
C598 C597 1.523 . S
H599 C574 0.950 . S
H600 C576 0.950 . S
H601 C577 0.949 . S
H602 C579 0.950 . S
H603 C581 0.950 . S
C604 C605 1.349 . S
C604 C606 1.327 . S
C604 H629 0.950 . S
C605 C604 1.349 . S
C605 C621 1.349 . S
C606 C604 1.327 . S
C606 C625 1.429 . S
C606 H630 0.950 . S
C607 C624 1.574 . S
C607 C626 1.366 1_556 S
C607 H631 0.949 . S
H608 C612 0.949 . S
C609 C610 1.349 . S
C609 C611 1.327 . S
C609 H632 0.950 . S
C610 C609 1.349 . S
C610 C622 1.349 . S
C611 C609 1.327 . S
C611 C627 1.429 . S
C611 H633 0.950 . S
C612 H608 0.949 . S
C612 C620 1.574 1_556 S
C612 C628 1.368 . S
H613 C621 0.950 . S
H614 C619 0.950 . S
H615 C620 0.949 . S
H616 C622 0.950 . S
H617 C623 0.950 . S
H618 C624 0.949 . S
C619 H614 0.950 . S
C619 C621 1.327 . S
C619 C625 1.429 . S
C620 C612 1.574 1_554 S
C620 H615 0.949 . S
C620 C626 1.369 . S
C621 C605 1.349 . S
C621 H613 0.950 . S
C621 C619 1.327 . S
C622 C610 1.349 . S
C622 H616 0.950 . S
C622 C623 1.327 . S
C623 H617 0.950 . S
C623 C622 1.327 . S
C623 C627 1.429 . S
C624 C607 1.574 . S
C624 H618 0.949 . S
C624 C628 1.368 . S
C625 C606 1.429 . S
C625 C619 1.429 . S
C625 C626 1.525 . S
C626 C607 1.366 1_554 S
C626 C620 1.369 . S
C626 C625 1.525 . S
C627 C611 1.429 . S
C627 C623 1.429 . S
C627 C628 1.523 . S
C628 C612 1.368 . S
C628 C624 1.368 . S
C628 C627 1.523 . S
H629 C604 0.950 . S
H630 C606 0.950 . S
H631 C607 0.949 . S
H632 C609 0.950 . S
H633 C611 0.950 . S
C634 C635 1.349 . S
C634 C636 1.327 . S
C634 H659 0.950 . S
C635 C634 1.349 . S
C635 C651 1.349 . S
C636 C634 1.327 . S
C636 C655 1.429 . S
C636 H660 0.950 1_655 S
C637 C654 1.574 1_554 S
C637 C656 1.366 1_554 S
C637 H661 0.949 . S
H638 C642 0.949 . S
C639 C640 1.349 . S
C639 C641 1.327 . S
C639 H662 0.950 . S
C640 C639 1.349 . S
C640 C652 1.349 1_655 S
C641 C639 1.327 . S
C641 C657 1.429 . S
C641 H663 0.950 . S
C642 H638 0.949 . S
C642 C650 1.574 1_455 S
C642 C658 1.368 1_455 S
H643 C651 0.950 . S
H644 C649 0.950 . S
H645 C650 0.949 1_455 S
H646 C652 0.950 . S
H647 C653 0.950 . S
H648 C654 0.949 . S
C649 H644 0.950 . S
C649 C651 1.327 . S
C649 C655 1.429 . S
C650 C642 1.574 1_655 S
C650 H645 0.949 1_655 S
C650 C656 1.380 . S
C651 C635 1.349 . S
C651 H643 0.950 . S
C651 C649 1.327 . S
C652 C640 1.349 1_455 S
C652 H646 0.950 . S
C652 C653 1.327 . S
C653 H647 0.950 . S
C653 C652 1.327 . S
C653 C657 1.429 1_455 S
C654 C637 1.574 1_556 S
C654 H648 0.949 . S
C654 C658 1.368 . S
C655 C636 1.429 . S
C655 C649 1.429 . S
C655 C656 1.511 1_554 S
C656 C637 1.366 1_556 S
C656 C650 1.380 . S
C656 C655 1.511 1_556 S
C657 C641 1.429 . S
C657 C653 1.429 1_655 S
C657 C658 1.523 . S
C658 C642 1.368 1_655 S
C658 C654 1.368 . S
C658 C657 1.523 . S
H659 C634 0.950 . S
H660 C636 0.950 1_455 S
H661 C637 0.949 . S
H662 C639 0.950 . S
H663 C641 0.950 . S
C664 C665 1.349 . S
C664 C666 1.327 . S
C664 H689 0.950 . S
C665 C664 1.349 . S
C665 C681 1.349 . S
C666 C664 1.327 . S
C666 C685 1.429 . S
C666 H690 0.950 . S
C667 C684 1.574 . S
C667 C686 1.368 . S
C667 H691 0.949 . S
H668 C672 0.949 . S
C669 C670 1.349 . S
C669 C671 1.327 . S
C669 H692 0.950 1_455 S
C670 C669 1.349 . S
C670 C682 1.349 . S
C671 C669 1.327 . S
C671 C687 1.429 . S
C671 H693 0.935 1_455 S
C672 H668 0.949 . S
C672 C680 1.574 . S
C672 C688 1.368 . S
H673 C681 0.950 . S
H674 C679 0.950 . S
H675 C680 0.949 . S
H676 C682 0.950 . S
H677 C683 0.950 . S
H678 C684 0.949 . S
C679 H674 0.950 . S
C679 C681 1.327 . S
C679 C685 1.429 . S
C680 C672 1.574 . S
C680 H675 0.949 . S
C680 C686 1.368 . S
C681 C665 1.349 . S
C681 H673 0.950 . S
C681 C679 1.327 . S
C682 C670 1.349 . S
C682 H676 0.950 . S
C682 C683 1.327 . S
C683 H677 0.950 . S
C683 C682 1.327 . S
C683 C687 1.429 . S
C684 C667 1.574 . S
C684 H678 0.949 . S
C684 C688 1.368 . S
C685 C666 1.429 . S
C685 C679 1.429 . S
C685 C686 1.523 . S
C686 C667 1.368 . S
C686 C680 1.368 . S
C686 C685 1.523 . S
C687 C671 1.429 . S
C687 C683 1.429 . S
C687 C688 1.523 . S
C688 C672 1.368 . S
C688 C684 1.368 . S
C688 C687 1.523 . S
H689 C664 0.950 . S
H690 C666 0.950 . S
H691 C667 0.949 . S
H692 C669 0.950 1_655 S
H693 C671 0.935 1_655 S
C694 C695 1.349 . S
C694 C696 1.327 . S
C694 H719 0.950 . S
C695 C694 1.349 . S
C695 C711 1.349 . S
C696 C694 1.327 . S
C696 C715 1.429 . S
C696 H720 0.950 . S
C697 C714 1.574 . S
C697 C716 1.368 . S
C697 H721 0.949 . S
H698 C702 0.949 . S
C699 C700 1.349 . S
C699 C701 1.327 . S
C699 H722 0.950 . S
C700 C699 1.349 . S
C700 C712 1.349 . S
C701 C699 1.327 . S
C701 C717 1.429 . S
C701 H723 0.950 . S
C702 H698 0.949 . S
C702 C710 1.574 . S
C702 C718 1.368 . S
H703 C711 0.950 . S
H704 C709 0.950 . S
H705 C710 0.949 . S
H706 C712 0.950 . S
H707 C713 0.950 . S
H708 C714 0.949 . S
C709 H704 0.950 . S
C709 C711 1.327 . S
C709 C715 1.429 . S
C710 C702 1.574 . S
C710 H705 0.949 . S
C710 C716 1.368 . S
C711 C695 1.349 . S
C711 H703 0.950 . S
C711 C709 1.327 . S
C712 C700 1.349 . S
C712 H706 0.950 . S
C712 C713 1.327 . S
C713 H707 0.950 . S
C713 C712 1.327 . S
C713 C717 1.429 . S
C714 C697 1.574 . S
C714 H708 0.949 . S
C714 C718 1.368 . S
C715 C696 1.429 . S
C715 C709 1.429 . S
C715 C716 1.523 . S
C716 C697 1.368 . S
C716 C710 1.368 . S
C716 C715 1.523 . S
C717 C701 1.429 . S
C717 C713 1.429 . S
C717 C718 1.523 . S
C718 C702 1.368 . S
C718 C714 1.368 . S
C718 C717 1.523 . S
H719 C694 0.950 . S
H720 C696 0.950 . S
H721 C697 0.949 . S
H722 C699 0.950 . S
H723 C701 0.950 . S
C724 C725 1.349 . S
C724 C726 1.327 . S
C724 H749 0.950 . S
C725 C724 1.349 . S
C725 C741 1.349 . S
C726 C724 1.327 . S
C726 C745 1.429 . S
C726 H750 0.950 . S
C727 C744 1.574 . S
C727 C746 1.368 . S
C727 H751 0.949 . S
H728 C732 0.949 . S
C729 C730 1.349 . S
C729 C731 1.327 . S
C729 H752 0.950 . S
C730 C729 1.349 . S
C730 C742 1.349 . S
C731 C729 1.327 . S
C731 C747 1.429 . S
C731 H753 0.950 . S
C732 H728 0.949 . S
C732 C740 1.574 . S
C732 C748 1.368 . S
H733 C741 0.950 . S
H734 C739 0.950 . S
H735 C740 0.949 . S
H736 C742 0.950 . S
H737 C743 0.950 . S
H738 C744 0.949 . S
C739 H734 0.950 . S
C739 C741 1.327 . S
C739 C745 1.429 . S
C740 C732 1.574 . S
C740 H735 0.949 . S
C740 C746 1.368 . S
C741 C725 1.349 . S
C741 H733 0.950 . S
C741 C739 1.327 . S
C742 C730 1.349 . S
C742 H736 0.950 . S
C742 C743 1.327 . S
C743 H737 0.950 . S
C743 C742 1.327 . S
C743 C747 1.429 . S
C744 C727 1.574 . S
C744 H738 0.949 . S
C744 C748 1.368 . S
C745 C726 1.429 . S
C745 C739 1.429 . S
C745 C746 1.523 . S
C746 C727 1.368 . S
C746 C740 1.368 . S
C746 C745 1.523 . S
C747 C731 1.429 . S
C747 C743 1.429 . S
C747 C748 1.523 . S
C748 C732 1.368 . S
C748 C744 1.368 . S
C748 C747 1.523 . S
H749 C724 0.950 . S
H750 C726 0.950 . S
H751 C727 0.949 . S
H752 C729 0.950 . S
H753 C731 0.950 . S
C754 C755 1.349 . S
C754 C756 1.327 . S
C754 H779 0.950 . S
C755 C754 1.349 . S
C755 C771 1.349 . S
C756 C754 1.327 . S
C756 C775 1.429 . S
C756 H780 0.950 . S
C757 C774 1.574 . S
C757 C776 1.368 . S
C757 H781 0.949 . S
H758 C762 0.949 . S
C759 C760 1.349 . S
C759 C761 1.327 . S
C759 H782 0.950 . S
C760 C759 1.349 . S
C760 C772 1.349 . S
C761 C759 1.327 . S
C761 C777 1.429 . S
C761 H783 0.950 . S
C762 H758 0.949 . S
C762 C770 1.574 . S
C762 C778 1.368 . S
H763 C771 0.950 . S
H764 C769 0.950 . S
H765 C770 0.949 . S
H766 C772 0.950 . S
H767 C773 0.950 . S
H768 C774 0.949 . S
C769 H764 0.950 . S
C769 C771 1.327 . S
C769 C775 1.429 . S
C770 C762 1.574 . S
C770 H765 0.949 . S
C770 C776 1.368 . S
C771 C755 1.349 . S
C771 H763 0.950 . S
C771 C769 1.327 . S
C772 C760 1.349 . S
C772 H766 0.950 . S
C772 C773 1.327 . S
C773 H767 0.950 . S
C773 C772 1.327 . S
C773 C777 1.429 . S
C774 C757 1.574 . S
C774 H768 0.949 . S
C774 C778 1.368 . S
C775 C756 1.429 . S
C775 C769 1.429 . S
C775 C776 1.523 . S
C776 C757 1.368 . S
C776 C770 1.368 . S
C776 C775 1.523 . S
C777 C761 1.429 . S
C777 C773 1.429 . S
C777 C778 1.523 . S
C778 C762 1.368 . S
C778 C774 1.368 . S
C778 C777 1.523 . S
H779 C754 0.950 . S
H780 C756 0.950 . S
H781 C757 0.949 . S
H782 C759 0.950 . S
H783 C761 0.950 . S
C784 C785 1.349 . S
C784 C786 1.327 . S
C784 H809 0.950 . S
C785 C784 1.349 . S
C785 C801 1.349 . S
C786 C784 1.327 . S
C786 C805 1.429 . S
C786 H810 0.945 1_655 S
C787 C804 1.574 . S
C787 C806 1.368 . S
C787 H811 0.949 . S
H788 C792 0.949 . S
C789 C790 1.349 1_655 S
C789 C791 1.327 . S
C789 H812 0.950 . S
C790 C789 1.349 1_455 S
C790 C802 1.349 . S
C791 C789 1.327 . S
C791 C807 1.429 . S
C791 H813 0.950 . S
C792 H788 0.949 . S
C792 C800 1.570 1_456 S
C792 C808 1.368 1_455 S
H793 C801 0.950 . S
H794 C799 0.950 . S
H795 C800 0.939 1_455 S
H796 C802 0.950 . S
H797 C803 0.950 . S
H798 C804 0.949 . S
C799 H794 0.950 . S
C799 C801 1.327 . S
C799 C805 1.429 . S
C800 C792 1.570 1_654 S
C800 H795 0.939 1_655 S
C800 C806 1.384 . S
C801 C785 1.349 . S
C801 H793 0.950 . S
C801 C799 1.327 . S
C802 C790 1.349 . S
C802 H796 0.950 . S
C802 C803 1.327 . S
C803 H797 0.950 . S
C803 C802 1.327 . S
C803 C807 1.429 1_455 S
C804 C787 1.574 . S
C804 H798 0.949 . S
C804 C808 1.368 1_554 S
C805 C786 1.429 . S
C805 C799 1.429 . S
C805 C806 1.523 . S
C806 C787 1.368 . S
C806 C800 1.384 . S
C806 C805 1.523 . S
C807 C791 1.429 . S
C807 C803 1.429 1_655 S
C807 C808 1.523 . S
C808 C792 1.368 1_655 S
C808 C804 1.368 1_556 S
C808 C807 1.523 . S
H809 C784 0.950 . S
H810 C786 0.945 1_455 S
H811 C787 0.949 . S
H812 C789 0.950 . S
H813 C791 0.950 . S
C814 C815 1.349 . S
C814 C816 1.327 . S
C814 H839 0.950 . S
C815 C814 1.349 . S
C815 C831 1.349 . S
C816 C814 1.327 . S
C816 C835 1.429 . S
C816 H840 0.950 . S
C817 C834 1.574 1_554 S
C817 C836 1.368 1_545 S
C817 H841 0.949 . S
H818 C822 0.949 . S
C819 C820 1.349 . S
C819 C821 1.327 . S
C819 H842 0.950 . S
C820 C819 1.349 . S
C820 C832 1.349 1_545 S
C821 C819 1.327 . S
C821 C837 1.377 1_545 S
C821 H843 0.950 . S
C822 H818 0.949 . S
C822 C830 1.574 . S
C822 C838 1.368 1_554 S
H823 C831 0.950 1_545 S
H824 C829 0.950 1_545 S
H825 C830 0.949 . S
H826 C832 0.950 . S
H827 C833 0.950 . S
H828 C834 0.949 . S
C829 H824 0.950 1_565 S
C829 C831 1.327 . S
C829 C835 1.429 . S
C830 C822 1.574 . S
C830 H825 0.949 . S
C830 C836 1.368 . S
C831 C815 1.349 . S
C831 H823 0.950 1_565 S
C831 C829 1.327 . S
C832 C820 1.349 1_565 S
C832 H826 0.950 . S
C832 C833 1.327 . S
C833 H827 0.950 . S
C833 C832 1.327 . S
C833 C837 1.468 . S
C834 C817 1.574 1_556 S
C834 H828 0.949 . S
C834 C838 1.368 1_545 S
C835 C816 1.429 . S
C835 C829 1.429 . S
C835 C836 1.523 . S
C836 C817 1.368 1_565 S
C836 C830 1.368 . S
C836 C835 1.523 . S
C837 C821 1.377 1_565 S
C837 C833 1.468 . S
C837 C838 1.536 . S
C838 C822 1.368 1_556 S
C838 C834 1.368 1_565 S
C838 C837 1.536 . S
H839 C814 0.950 . S
H840 C816 0.950 . S
H841 C817 0.949 . S
H842 C819 0.950 . S
H843 C821 0.950 . S
C844 C845 1.349 . S
C844 C846 1.327 . S
C844 H869 0.950 . S
C845 C844 1.349 . S
C845 C861 1.349 . S
C846 C844 1.327 . S
C846 C865 1.429 . S
C846 H870 0.950 . S
C847 C864 1.574 . S
C847 C866 1.368 . S
C847 H871 0.949 . S
H848 C852 0.949 . S
C849 C850 1.349 . S
C849 C851 1.327 . S
C849 H872 0.950 . S
C850 C849 1.349 . S
C850 C862 1.349 . S
C851 C849 1.327 . S
C851 C867 1.429 . S
C851 H873 0.950 1_556 S
C852 H848 0.949 . S
C852 C860 1.574 . S
C852 C868 1.368 . S
H853 C861 0.950 . S
H854 C859 0.950 . S
H855 C860 0.949 . S
H856 C862 0.950 . S
H857 C863 0.950 . S
H858 C864 0.949 . S
C859 H854 0.950 . S
C859 C861 1.327 . S
C859 C865 1.429 . S
C860 C852 1.574 . S
C860 H855 0.949 . S
C860 C866 1.368 1_556 S
C861 C845 1.349 . S
C861 H853 0.950 . S
C861 C859 1.327 . S
C862 C850 1.349 . S
C862 H856 0.950 . S
C862 C863 1.327 . S
C863 H857 0.950 . S
C863 C862 1.327 . S
C863 C867 1.429 . S
C864 C847 1.574 . S
C864 H858 0.949 . S
C864 C868 1.368 1_554 S
C865 C846 1.429 . S
C865 C859 1.429 . S
C865 C866 1.523 . S
C866 C847 1.368 . S
C866 C860 1.368 1_554 S
C866 C865 1.523 . S
C867 C851 1.429 . S
C867 C863 1.429 . S
C867 C868 1.523 . S
C868 C852 1.368 . S
C868 C864 1.368 1_556 S
C868 C867 1.523 . S
H869 C844 0.950 . S
H870 C846 0.950 . S
H871 C847 0.949 . S
H872 C849 0.950 . S
H873 C851 0.950 1_554 S
C874 C875 1.349 . S
C874 C876 1.327 . S
C874 H899 0.950 . S
C875 C874 1.349 . S
C875 C891 1.349 . S
C876 C874 1.327 . S
C876 C895 1.429 . S
C876 H900 0.950 . S
C877 C894 1.574 . S
C877 C896 1.368 . S
C877 H901 0.949 . S
H878 C882 0.949 . S
C879 C880 1.349 . S
C879 C881 1.327 . S
C879 H902 0.950 . S
C880 C879 1.349 . S
C880 C892 1.349 . S
C881 C879 1.327 . S
C881 C897 1.429 . S
C881 H903 0.950 . S
C882 H878 0.949 . S
C882 C890 1.574 1_556 S
C882 C898 1.368 . S
H883 C891 0.950 . S
H884 C889 0.950 . S
H885 C890 0.949 . S
H886 C892 0.950 . S
H887 C893 0.950 . S
H888 C894 0.949 . S
C889 H884 0.950 . S
C889 C891 1.327 . S
C889 C895 1.429 . S
C890 C882 1.574 1_554 S
C890 H885 0.949 . S
C890 C896 1.368 . S
C891 C875 1.349 . S
C891 H883 0.950 . S
C891 C889 1.327 . S
C892 C880 1.349 . S
C892 H886 0.950 . S
C892 C893 1.327 . S
C893 H887 0.950 . S
C893 C892 1.327 . S
C893 C897 1.429 . S
C894 C877 1.574 . S
C894 H888 0.949 . S
C894 C898 1.368 1_554 S
C895 C876 1.429 . S
C895 C889 1.429 . S
C895 C896 1.523 . S
C896 C877 1.368 . S
C896 C890 1.368 . S
C896 C895 1.523 . S
C897 C881 1.429 . S
C897 C893 1.429 . S
C897 C898 1.523 . S
C898 C882 1.368 . S
C898 C894 1.368 1_556 S
C898 C897 1.523 . S
H899 C874 0.950 . S
H900 C876 0.950 . S
H901 C877 0.949 . S
H902 C879 0.950 . S
H903 C881 0.950 . S
C904 C905 1.349 . S
C904 C906 1.327 . S
C904 H929 0.950 . S
C905 C904 1.349 . S
C905 C921 1.349 . S
C906 C904 1.327 . S
C906 C925 1.429 . S
C906 H930 0.950 . S
C907 C924 1.574 . S
C907 C926 1.368 . S
C907 H931 0.949 . S
H908 C912 0.949 1_655 S
C909 C910 1.349 . S
C909 C911 1.327 . S
C909 H932 0.950 . S
C910 C909 1.349 . S
C910 C922 1.349 . S
C911 C909 1.327 . S
C911 C927 1.429 . S
C911 H933 0.950 . S
C912 H908 0.949 1_455 S
C912 C920 1.574 . S
C912 C928 1.368 . S
H913 C921 0.950 . S
H914 C919 0.950 . S
H915 C920 0.949 . S
H916 C922 0.950 1_655 S
H917 C923 0.950 1_655 S
H918 C924 0.949 . S
C919 H914 0.950 . S
C919 C921 1.327 . S
C919 C925 1.429 . S
C920 C912 1.574 . S
C920 H915 0.949 . S
C920 C926 1.368 . S
C921 C905 1.349 . S
C921 H913 0.950 . S
C921 C919 1.327 . S
C922 C910 1.349 . S
C922 H916 0.950 1_455 S
C922 C923 1.327 . S
C923 H917 0.950 1_455 S
C923 C922 1.327 . S
C923 C927 1.429 . S
C924 C907 1.574 . S
C924 H918 0.949 . S
C924 C928 1.368 . S
C925 C906 1.429 . S
C925 C919 1.429 . S
C925 C926 1.523 . S
C926 C907 1.368 . S
C926 C920 1.368 . S
C926 C925 1.523 . S
C927 C911 1.429 . S
C927 C923 1.429 . S
C927 C928 1.523 . S
C928 C912 1.368 . S
C928 C924 1.368 . S
C928 C927 1.523 . S
H929 C904 0.950 . S
H930 C906 0.950 . S
H931 C907 0.949 . S
H932 C909 0.950 . S
H933 C911 0.950 . S
C934 C935 1.349 . S
C934 C936 1.327 . S
C934 H959 0.950 . S
C935 C934 1.349 . S
C935 C951 1.349 . S
C936 C934 1.327 . S
C936 C955 1.429 . S
C936 H960 0.950 . S
C937 C954 1.574 . S
C937 C956 1.368 . S
C937 H961 0.949 . S
H938 C942 0.949 . S
C939 C940 1.349 . S
C939 C941 1.327 . S
C939 H962 0.950 1_545 S
C940 C939 1.349 . S
C940 C952 1.349 . S
C941 C939 1.327 . S
C941 C957 1.429 . S
C941 H963 0.950 1_545 S
C942 H938 0.949 . S
C942 C950 1.574 . S
C942 C958 1.368 . S
H943 C951 0.950 . S
H944 C949 0.950 . S
H945 C950 0.949 . S
H946 C952 0.950 . S
H947 C953 0.950 . S
H948 C954 0.949 1_565 S
C949 H944 0.950 . S
C949 C951 1.327 . S
C949 C955 1.429 . S
C950 C942 1.574 . S
C950 H945 0.949 . S
C950 C956 1.368 . S
C951 C935 1.349 . S
C951 H943 0.950 . S
C951 C949 1.327 . S
C952 C940 1.349 . S
C952 H946 0.950 . S
C952 C953 1.327 . S
C953 H947 0.950 . S
C953 C952 1.327 . S
C953 C957 1.429 . S
C954 C937 1.574 . S
C954 H948 0.949 1_545 S
C954 C958 1.368 . S
C955 C936 1.429 . S
C955 C949 1.429 . S
C955 C956 1.523 . S
C956 C937 1.368 . S
C956 C950 1.368 . S
C956 C955 1.523 . S
C957 C941 1.429 . S
C957 C953 1.429 . S
C957 C958 1.523 . S
C958 C942 1.368 . S
C958 C954 1.368 . S
C958 C957 1.523 . S
H959 C934 0.950 . S
H960 C936 0.950 . S
H961 C937 0.949 . S
H962 C939 0.950 1_565 S
H963 C941 0.950 1_565 S
C964 C965 1.349 . S
C964 C966 1.327 . S
C964 H989 0.950 . S
C965 C964 1.349 . S
C965 C981 1.349 . S
C966 C964 1.327 . S
C966 C985 1.429 . S
C966 H990 0.950 . S
C967 C984 1.574 . S
C967 C986 1.368 . S
C967 H991 0.949 . S
H968 C972 0.949 . S
C969 C970 1.349 . S
C969 C971 1.327 . S
C969 H992 0.950 . S
C970 C969 1.349 . S
C970 C982 1.349 . S
C971 C969 1.327 . S
C971 C987 1.429 . S
C971 H993 0.950 . S
C972 H968 0.949 . S
C972 C980 1.574 . S
C972 C988 1.368 . S
H973 C981 0.950 . S
H974 C979 0.950 . S
H975 C980 0.949 . S
H976 C982 0.950 . S
H977 C983 0.950 . S
H978 C984 0.949 . S
C979 H974 0.950 . S
C979 C981 1.327 . S
C979 C985 1.429 . S
C980 C972 1.574 . S
C980 H975 0.949 . S
C980 C986 1.368 . S
C981 C965 1.349 . S
C981 H973 0.950 . S
C981 C979 1.327 . S
C982 C970 1.349 . S
C982 H976 0.950 . S
C982 C983 1.327 . S
C983 H977 0.950 . S
C983 C982 1.327 . S
C983 C987 1.429 . S
C984 C967 1.574 . S
C984 H978 0.949 . S
C984 C988 1.368 . S
C985 C966 1.429 . S
C985 C979 1.429 . S
C985 C986 1.523 . S
C986 C967 1.368 . S
C986 C980 1.368 . S
C986 C985 1.523 . S
C987 C971 1.429 . S
C987 C983 1.429 . S
C987 C988 1.523 . S
C988 C972 1.368 . S
C988 C984 1.368 . S
C988 C987 1.523 . S
H989 C964 0.950 . S
H990 C966 0.950 . S
H991 C967 0.949 . S
H992 C969 0.950 . S
H993 C971 0.950 . S
C994 C995 1.349 . S
C994 C996 1.327 . S
C994 H1019 0.950 . S
C995 C994 1.349 . S
C995 C1011 1.349 . S
C996 C994 1.327 . S
C996 C1015 1.429 . S
C996 H1020 0.950 . S
C997 C1014 1.574 . S
C997 C1016 1.368 . S
C997 H1021 0.949 . S
H998 C1002 0.949 . S
C999 C1000 1.349 . S
C999 C1001 1.327 . S
C999 H1022 0.950 . S
C1000 C999 1.349 . S
C1000 C1012 1.349 . S
C1001 C999 1.327 . S
C1001 C1017 1.429 . S
C1001 H1023 0.950 . S
C1002 H998 0.949 . S
C1002 C1010 1.574 . S
C1002 C1018 1.368 . S
H1003 C1011 0.950 . S
H1004 C1009 0.950 . S
H1005 C1010 0.949 . S
H1006 C1012 0.950 . S
H1007 C1013 0.950 . S
H1008 C1014 0.949 . S
C1009 H1004 0.950 . S
C1009 C1011 1.327 . S
C1009 C1015 1.429 . S
C1010 C1002 1.574 . S
C1010 H1005 0.949 . S
C1010 C1016 1.368 . S
C1011 C995 1.349 . S
C1011 H1003 0.950 . S
C1011 C1009 1.327 . S
C1012 C1000 1.349 . S
C1012 H1006 0.950 . S
C1012 C1013 1.327 . S
C1013 H1007 0.950 . S
C1013 C1012 1.327 . S
C1013 C1017 1.429 . S
C1014 C997 1.574 . S
C1014 H1008 0.949 . S
C1014 C1018 1.368 . S
C1015 C996 1.429 . S
C1015 C1009 1.429 . S
C1015 C1016 1.523 . S
C1016 C997 1.368 . S
C1016 C1010 1.368 . S
C1016 C1015 1.523 . S
C1017 C1001 1.429 . S
C1017 C1013 1.429 . S
C1017 C1018 1.523 . S
C1018 C1002 1.368 . S
C1018 C1014 1.368 . S
C1018 C1017 1.523 . S
H1019 C994 0.950 . S
H1020 C996 0.950 . S
H1021 C997 0.949 . S
H1022 C999 0.950 . S
H1023 C1001 0.950 . S
C1024 C1025 1.349 . S
C1024 C1026 1.327 . S
C1024 H1049 0.950 . S
C1025 C1024 1.349 . S
C1025 C1041 1.349 . S
C1026 C1024 1.327 . S
C1026 C1045 1.429 . S
C1026 H1050 0.950 . S
C1027 C1044 1.571 1_655 S
C1027 C1046 1.368 . S
C1027 H1051 0.949 1_655 S
H1028 C1032 0.949 . S
C1029 C1030 1.349 1_455 S
C1029 C1031 1.327 . S
C1029 H1052 0.950 . S
C1030 C1029 1.349 1_655 S
C1030 C1042 1.349 . S
C1031 C1029 1.327 . S
C1031 C1047 1.429 1_455 S
C1031 H1053 0.950 . S
C1032 H1028 0.949 . S
C1032 C1040 1.574 . S
C1032 C1048 1.368 . S
H1033 C1041 0.950 . S
H1034 C1039 0.950 1_455 S
H1035 C1040 0.949 . S
H1036 C1042 0.950 . S
H1037 C1043 0.950 . S
H1038 C1044 0.972 . S
C1039 H1034 0.950 1_655 S
C1039 C1041 1.327 . S
C1039 C1045 1.429 . S
C1040 C1032 1.574 . S
C1040 H1035 0.949 . S
C1040 C1046 1.368 . S
C1041 C1025 1.349 . S
C1041 H1033 0.950 . S
C1041 C1039 1.327 . S
C1042 C1030 1.349 . S
C1042 H1036 0.950 . S
C1042 C1043 1.327 . S
C1043 H1037 0.950 . S
C1043 C1042 1.327 . S
C1043 C1047 1.429 . S
C1044 C1027 1.571 1_455 S
C1044 H1038 0.972 . S
C1044 C1048 1.347 1_455 S
C1045 C1026 1.429 . S
C1045 C1039 1.429 . S
C1045 C1046 1.523 . S
C1046 C1027 1.368 . S
C1046 C1040 1.368 . S
C1046 C1045 1.523 . S
C1047 C1031 1.429 1_655 S
C1047 C1043 1.429 . S
C1047 C1048 1.523 . S
C1048 C1032 1.368 . S
C1048 C1044 1.347 1_655 S
C1048 C1047 1.523 . S
H1049 C1024 0.950 . S
H1050 C1026 0.950 . S
H1051 C1027 0.949 1_455 S
H1052 C1029 0.950 . S
H1053 C1031 0.950 . S
C1054 C1055 1.349 . S
C1054 C1056 1.327 . S
C1054 H1079 0.950 . S
C1055 C1054 1.349 . S
C1055 C1071 1.349 . S
C1056 C1054 1.327 . S
C1056 C1075 1.429 . S
C1056 H1080 0.950 1_565 S
C1057 C1074 1.574 . S
C1057 C1076 1.368 . S
C1057 H1081 0.949 . S
H1058 C1062 0.949 . S
C1059 C1060 1.349 . S
C1059 C1061 1.327 . S
C1059 H1082 0.950 . S
C1060 C1059 1.349 . S
C1060 C1072 1.349 1_565 S
C1061 C1059 1.327 . S
C1061 C1077 1.429 . S
C1061 H1083 0.950 . S
C1062 H1058 0.949 . S
C1062 C1070 1.574 1_545 S
C1062 C1078 1.368 1_545 S
H1063 C1071 0.950 . S
H1064 C1069 0.950 . S
H1065 C1070 0.949 1_545 S
H1066 C1072 0.950 . S
H1067 C1073 0.950 . S
H1068 C1074 0.949 . S
C1069 H1064 0.950 . S
C1069 C1071 1.327 . S
C1069 C1075 1.429 . S
C1070 C1062 1.574 1_565 S
C1070 H1065 0.949 1_565 S
C1070 C1076 1.368 . S
C1071 C1055 1.349 . S
C1071 H1063 0.950 . S
C1071 C1069 1.327 . S
C1072 C1060 1.349 1_545 S
C1072 H1066 0.950 . S
C1072 C1073 1.327 . S
C1073 H1067 0.950 . S
C1073 C1072 1.327 . S
C1073 C1077 1.429 1_545 S
C1074 C1057 1.574 . S
C1074 H1068 0.949 . S
C1074 C1078 1.368 . S
C1075 C1056 1.429 . S
C1075 C1069 1.429 . S
C1075 C1076 1.523 . S
C1076 C1057 1.368 . S
C1076 C1070 1.368 . S
C1076 C1075 1.523 . S
C1077 C1061 1.429 . S
C1077 C1073 1.429 1_565 S
C1077 C1078 1.523 . S
C1078 C1062 1.368 1_565 S
C1078 C1074 1.368 . S
C1078 C1077 1.523 . S
H1079 C1054 0.950 . S
H1080 C1056 0.950 1_545 S
H1081 C1057 0.949 . S
H1082 C1059 0.950 . S
H1083 C1061 0.950 . S
C1084 C1085 1.349 . S
C1084 C1086 1.327 . S
C1084 H1109 0.950 . S
C1085 C1084 1.349 . S
C1085 C1101 1.349 . S
C1086 C1084 1.327 . S
C1086 C1105 1.429 . S
C1086 H1110 0.950 . S
C1087 C1104 1.574 . S
C1087 C1106 1.368 . S
C1087 H1111 0.949 . S
H1088 C1092 0.949 . S
C1089 C1090 1.349 . S
C1089 C1091 1.327 . S
C1089 H1112 0.950 . S
C1090 C1089 1.349 . S
C1090 C1102 1.349 . S
C1091 C1089 1.327 . S
C1091 C1107 1.429 . S
C1091 H1113 0.950 . S
C1092 H1088 0.949 . S
C1092 C1100 1.574 . S
C1092 C1108 1.368 . S
H1093 C1101 0.950 . S
H1094 C1099 0.950 . S
H1095 C1100 0.949 . S
H1096 C1102 0.950 . S
H1097 C1103 0.950 . S
H1098 C1104 0.949 . S
C1099 H1094 0.950 . S
C1099 C1101 1.327 . S
C1099 C1105 1.429 . S
C1100 C1092 1.574 . S
C1100 H1095 0.949 . S
C1100 C1106 1.368 . S
C1101 C1085 1.349 . S
C1101 H1093 0.950 . S
C1101 C1099 1.327 . S
C1102 C1090 1.349 . S
C1102 H1096 0.950 . S
C1102 C1103 1.327 . S
C1103 H1097 0.950 . S
C1103 C1102 1.327 . S
C1103 C1107 1.429 . S
C1104 C1087 1.574 . S
C1104 H1098 0.949 . S
C1104 C1108 1.368 . S
C1105 C1086 1.429 . S
C1105 C1099 1.429 . S
C1105 C1106 1.523 . S
C1106 C1087 1.368 . S
C1106 C1100 1.368 . S
C1106 C1105 1.523 . S
C1107 C1091 1.429 . S
C1107 C1103 1.429 . S
C1107 C1108 1.523 . S
C1108 C1092 1.368 . S
C1108 C1104 1.368 . S
C1108 C1107 1.523 . S
H1109 C1084 0.950 . S
H1110 C1086 0.950 . S
H1111 C1087 0.949 . S
H1112 C1089 0.950 . S
H1113 C1091 0.950 . S
C1114 C1115 1.349 . S
C1114 C1116 1.327 . S
C1114 H1139 0.950 . S
C1115 C1114 1.349 . S
C1115 C1131 1.349 . S
C1116 C1114 1.327 . S
C1116 C1135 1.429 . S
C1116 H1140 0.950 . S
C1117 C1134 1.574 . S
C1117 C1136 1.368 . S
C1117 H1141 0.949 . S
H1118 C1122 0.949 . S
C1119 C1120 1.349 . S
C1119 C1121 1.327 . S
C1119 H1142 0.950 . S
C1120 C1119 1.349 . S
C1120 C1132 1.349 . S
C1121 C1119 1.327 . S
C1121 C1137 1.429 . S
C1121 H1143 0.950 . S
C1122 H1118 0.949 . S
C1122 C1130 1.574 . S
C1122 C1138 1.368 . S
H1123 C1131 0.950 . S
H1124 C1129 0.950 . S
H1125 C1130 0.949 . S
H1126 C1132 0.950 . S
H1127 C1133 0.950 . S
H1128 C1134 0.949 . S
C1129 H1124 0.950 . S
C1129 C1131 1.327 . S
C1129 C1135 1.429 . S
C1130 C1122 1.574 . S
C1130 H1125 0.949 . S
C1130 C1136 1.368 . S
C1131 C1115 1.349 . S
C1131 H1123 0.950 . S
C1131 C1129 1.327 . S
C1132 C1120 1.349 . S
C1132 H1126 0.950 . S
C1132 C1133 1.327 . S
C1133 H1127 0.950 . S
C1133 C1132 1.327 . S
C1133 C1137 1.429 . S
C1134 C1117 1.574 . S
C1134 H1128 0.949 . S
C1134 C1138 1.368 . S
C1135 C1116 1.429 . S
C1135 C1129 1.429 . S
C1135 C1136 1.523 . S
C1136 C1117 1.368 . S
C1136 C1130 1.368 . S
C1136 C1135 1.523 . S
C1137 C1121 1.429 . S
C1137 C1133 1.429 . S
C1137 C1138 1.523 . S
C1138 C1122 1.368 . S
C1138 C1134 1.368 . S
C1138 C1137 1.523 . S
H1139 C1114 0.950 . S
H1140 C1116 0.950 . S
H1141 C1117 0.949 . S
H1142 C1119 0.950 . S
H1143 C1121 0.950 . S
C425 C76 1.841 . S
C430 C151 1.932 . S
C460 C228 1.951 . S
C455 C87 1.847 . S
C490 C319 1.921 . S
C485 C54 1.829 . S
C520 C403 1.911 . S
C515 C65 1.821 . S
C550 C162 1.932 . S
C545 C32 1.847 . S
C575 C43 1.852 . S
C580 C239 1.951 . S
C605 C10 1.834 . S
C610 C330 1.920 . S
C635 C21 1.826 . S
C640 C414 1.911 1_655 S
C670 C146 0.553 1_455 S
C665 C60 0.476 . S
C700 C241 0.551 . S
C695 C71 0.448 . S
C730 C314 0.552 . S
C725 C82 0.478 . S
C755 C49 0.459 . S
C760 C398 0.543 . S
C785 C16 0.482 . S
C790 C157 0.553 . S
C820 C230 0.551 . S
C815 C27 0.456 . S
C850 C325 0.552 . S
C845 C38 0.485 . S
C875 C5 0.466 . S
C880 C409 0.543 . S
C905 C59 1.852 . S
C910 C155 2.006 . S
C935 C70 1.847 . S
C940 C246 2.000 . S
C970 C323 2.025 . S
C965 C81 1.870 . S
C1000 C407 2.031 . S
C995 C48 1.876 . S
C1025 C15 1.847 . S
C1030 C144 2.006 . S
C1060 C235 2.000 1_565 S
C1055 C26 1.841 . S
C1090 C312 2.025 . S
C1085 C37 1.863 . S
C1115 C4 1.870 . S
C1120 C396 2.031 . S
