# Generated by pormake.
# Topology eea, (3,6)-cn, num edge types: 1
# Building blocks:
#     Node 0, Type 0, BuildingBlock: KAKCAD_clean_linker_0, # of connection points: 3
#     Node 1, Type 0, BuildingBlock: KAKCAD_clean_linker_0, # of connection points: 3
#     Node 2, Type 0, BuildingBlock: KAKCAD_clean_linker_0, # of connection points: 3
#     Node 3, Type 0, BuildingBlock: KAKCAD_clean_linker_0, # of connection points: 3
#     Node 4, Type 0, BuildingBlock: KAKCAD_clean_linker_0, # of connection points: 3
#     Node 5, Type 0, BuildingBlock: KAKCAD_clean_linker_0, # of connection points: 3
#     Node 6, Type 0, BuildingBlock: KAKCAD_clean_linker_0, # of connection points: 3
#     Node 7, Type 0, BuildingBlock: KAKCAD_clean_linker_0, # of connection points: 3
#     Node 8, Type 0, BuildingBlock: KAKCAD_clean_linker_0, # of connection points: 3
#     Node 9, Type 0, BuildingBlock: KAKCAD_clean_linker_0, # of connection points: 3
#     Node 10, Type 0, BuildingBlock: KAKCAD_clean_linker_0, # of connection points: 3
#     Node 11, Type 0, BuildingBlock: KAKCAD_clean_linker_0, # of connection points: 3
#     Node 12, Type 0, BuildingBlock: KAKCAD_clean_linker_0, # of connection points: 3
#     Node 13, Type 0, BuildingBlock: KAKCAD_clean_linker_0, # of connection points: 3
#     Node 14, Type 0, BuildingBlock: KAKCAD_clean_linker_0, # of connection points: 3
#     Node 15, Type 0, BuildingBlock: KAKCAD_clean_linker_0, # of connection points: 3
#     Node 16, Type 0, BuildingBlock: KAKCAD_clean_linker_0, # of connection points: 3
#     Node 17, Type 0, BuildingBlock: KAKCAD_clean_linker_0, # of connection points: 3
#     Node 18, Type 1, BuildingBlock: CIFDUS_clean_sbu_1, # of connection points: 6
#     Node 19, Type 1, BuildingBlock: CIFDUS_clean_sbu_1, # of connection points: 6
#     Node 20, Type 1, BuildingBlock: CIFDUS_clean_sbu_1, # of connection points: 6
#     Node 21, Type 1, BuildingBlock: CIFDUS_clean_sbu_1, # of connection points: 6
#     Node 22, Type 1, BuildingBlock: CIFDUS_clean_sbu_1, # of connection points: 6
#     Node 23, Type 1, BuildingBlock: CIFDUS_clean_sbu_1, # of connection points: 6
#     Node 24, Type 1, BuildingBlock: CIFDUS_clean_sbu_1, # of connection points: 6
#     Node 25, Type 1, BuildingBlock: CIFDUS_clean_sbu_1, # of connection points: 6
#     Node 26, Type 1, BuildingBlock: CIFDUS_clean_sbu_1, # of connection points: 6
#     Edge 27, Type (0, 1), BuildingBlock: ZUJKAS_clean_linker_0, # of connection points: 2
#     Edge 28, Type (0, 1), BuildingBlock: ZUJKAS_clean_linker_0, # of connection points: 2
#     Edge 29, Type (0, 1), BuildingBlock: ZUJKAS_clean_linker_0, # of connection points: 2
#     Edge 30, Type (0, 1), BuildingBlock: ZUJKAS_clean_linker_0, # of connection points: 2
#     Edge 31, Type (0, 1), BuildingBlock: ZUJKAS_clean_linker_0, # of connection points: 2
#     Edge 32, Type (0, 1), BuildingBlock: ZUJKAS_clean_linker_0, # of connection points: 2
#     Edge 33, Type (0, 1), BuildingBlock: ZUJKAS_clean_linker_0, # of connection points: 2
#     Edge 34, Type (0, 1), BuildingBlock: ZUJKAS_clean_linker_0, # of connection points: 2
#     Edge 35, Type (0, 1), BuildingBlock: ZUJKAS_clean_linker_0, # of connection points: 2
#     Edge 36, Type (0, 1), BuildingBlock: ZUJKAS_clean_linker_0, # of connection points: 2
#     Edge 37, Type (0, 1), BuildingBlock: ZUJKAS_clean_linker_0, # of connection points: 2
#     Edge 38, Type (0, 1), BuildingBlock: ZUJKAS_clean_linker_0, # of connection points: 2
#     Edge 39, Type (0, 1), BuildingBlock: ZUJKAS_clean_linker_0, # of connection points: 2
#     Edge 40, Type (0, 1), BuildingBlock: ZUJKAS_clean_linker_0, # of connection points: 2
#     Edge 41, Type (0, 1), BuildingBlock: ZUJKAS_clean_linker_0, # of connection points: 2
#     Edge 42, Type (0, 1), BuildingBlock: ZUJKAS_clean_linker_0, # of connection points: 2
#     Edge 43, Type (0, 1), BuildingBlock: ZUJKAS_clean_linker_0, # of connection points: 2
#     Edge 44, Type (0, 1), BuildingBlock: ZUJKAS_clean_linker_0, # of connection points: 2
#     Edge 45, Type (0, 1), BuildingBlock: ZUJKAS_clean_linker_0, # of connection points: 2
#     Edge 46, Type (0, 1), BuildingBlock: ZUJKAS_clean_linker_0, # of connection points: 2
#     Edge 47, Type (0, 1), BuildingBlock: ZUJKAS_clean_linker_0, # of connection points: 2
#     Edge 48, Type (0, 1), BuildingBlock: ZUJKAS_clean_linker_0, # of connection points: 2
#     Edge 49, Type (0, 1), BuildingBlock: ZUJKAS_clean_linker_0, # of connection points: 2
#     Edge 50, Type (0, 1), BuildingBlock: ZUJKAS_clean_linker_0, # of connection points: 2
#     Edge 51, Type (0, 1), BuildingBlock: ZUJKAS_clean_linker_0, # of connection points: 2
#     Edge 52, Type (0, 1), BuildingBlock: ZUJKAS_clean_linker_0, # of connection points: 2
#     Edge 53, Type (0, 1), BuildingBlock: ZUJKAS_clean_linker_0, # of connection points: 2
#     Edge 54, Type (0, 1), BuildingBlock: ZUJKAS_clean_linker_0, # of connection points: 2
#     Edge 55, Type (0, 1), BuildingBlock: ZUJKAS_clean_linker_0, # of connection points: 2
#     Edge 56, Type (0, 1), BuildingBlock: ZUJKAS_clean_linker_0, # of connection points: 2
#     Edge 57, Type (0, 1), BuildingBlock: ZUJKAS_clean_linker_0, # of connection points: 2
#     Edge 58, Type (0, 1), BuildingBlock: ZUJKAS_clean_linker_0, # of connection points: 2
#     Edge 59, Type (0, 1), BuildingBlock: ZUJKAS_clean_linker_0, # of connection points: 2
#     Edge 60, Type (0, 1), BuildingBlock: ZUJKAS_clean_linker_0, # of connection points: 2
#     Edge 61, Type (0, 1), BuildingBlock: ZUJKAS_clean_linker_0, # of connection points: 2
#     Edge 62, Type (0, 1), BuildingBlock: ZUJKAS_clean_linker_0, # of connection points: 2
#     Edge 63, Type (0, 1), BuildingBlock: ZUJKAS_clean_linker_0, # of connection points: 2
#     Edge 64, Type (0, 1), BuildingBlock: ZUJKAS_clean_linker_0, # of connection points: 2
#     Edge 65, Type (0, 1), BuildingBlock: ZUJKAS_clean_linker_0, # of connection points: 2
#     Edge 66, Type (0, 1), BuildingBlock: ZUJKAS_clean_linker_0, # of connection points: 2
#     Edge 67, Type (0, 1), BuildingBlock: ZUJKAS_clean_linker_0, # of connection points: 2
#     Edge 68, Type (0, 1), BuildingBlock: ZUJKAS_clean_linker_0, # of connection points: 2
#     Edge 69, Type (0, 1), BuildingBlock: ZUJKAS_clean_linker_0, # of connection points: 2
#     Edge 70, Type (0, 1), BuildingBlock: ZUJKAS_clean_linker_0, # of connection points: 2
#     Edge 71, Type (0, 1), BuildingBlock: ZUJKAS_clean_linker_0, # of connection points: 2
#     Edge 72, Type (0, 1), BuildingBlock: ZUJKAS_clean_linker_0, # of connection points: 2
#     Edge 73, Type (0, 1), BuildingBlock: ZUJKAS_clean_linker_0, # of connection points: 2
#     Edge 74, Type (0, 1), BuildingBlock: ZUJKAS_clean_linker_0, # of connection points: 2
#     Edge 75, Type (0, 1), BuildingBlock: ZUJKAS_clean_linker_0, # of connection points: 2
#     Edge 76, Type (0, 1), BuildingBlock: ZUJKAS_clean_linker_0, # of connection points: 2
#     Edge 77, Type (0, 1), BuildingBlock: ZUJKAS_clean_linker_0, # of connection points: 2
#     Edge 78, Type (0, 1), BuildingBlock: ZUJKAS_clean_linker_0, # of connection points: 2
#     Edge 79, Type (0, 1), BuildingBlock: ZUJKAS_clean_linker_0, # of connection points: 2
#     Edge 80, Type (0, 1), BuildingBlock: ZUJKAS_clean_linker_0, # of connection points: 2
# Relax obj value: 0.099
# Max RMSD: 0.184
# Mean RMSD: 0.093
data_MOF--net-eea--node1-CIFDUS_clean_sbu_1--node2-KAKCAD_clean_linker_0--edge1-ZUJKAS_clean_linker_0
_symmetry_space_group_name_H-M    P1
_symmetry_Int_Tables_number       1
_symmetry_cell_setting            triclinic
loop_
_symmetry_equiv_pos_as_xyz
'x, y, z'
_cell_length_a     83.254598
_cell_length_b     82.342376
_cell_length_c     84.093067
_cell_angle_alpha  90.32753
_cell_angle_beta   90.089134
_cell_angle_gamma 120.01068
loop_
_atom_site_label
_atom_site_type_symbol
_atom_site_fract_x
_atom_site_fract_y
_atom_site_fract_z
_atom_type_partial_charge
C0 C 0.27241 0.14757 0.46305 0.0
C1 C 0.28726 0.145 0.46761 0.0
C2 C 0.26625 0.14479 0.44727 0.0
C3 C 0.27465 0.13916 0.43569 0.0
C4 C 0.28949 0.13661 0.44016 0.0
C5 C 0.29581 0.13961 0.45591 0.0
C6 C 0.26776 0.13579 0.41903 0.0
C7 C 0.26463 0.14896 0.41128 0.0
C8 C 0.25701 0.14554 0.39585 0.0
C9 C 0.25333 0.12888 0.38796 0.0
C10 C 0.25658 0.1155 0.39544 0.0
C11 C 0.26369 0.11912 0.41109 0.0
C12 C 0.25181 0.09739 0.38731 0.0
C13 C 0.23676 0.08873 0.3766 0.0
C14 C 0.26186 0.08821 0.39061 0.0
C15 C 0.25639 0.0705 0.38417 0.0
C16 C 0.24099 0.06159 0.37387 0.0
C17 C 0.25208 0.15894 0.38841 0.0
C18 C 0.24605 0.16893 0.39798 0.0
C19 C 0.25278 0.16153 0.37179 0.0
C20 C 0.2473 0.17352 0.36501 0.0
C21 C 0.24151 0.1835 0.37473 0.0
C22 C 0.24108 0.18121 0.39124 0.0
C23 C 0.23162 0.07126 0.36981 0.0
H24 H 0.26521 0.15133 0.47174 0.0
H25 H 0.25463 0.14663 0.44418 0.0
H26 H 0.29632 0.13246 0.43142 0.0
H27 H 0.30747 0.1378 0.45889 0.0
H28 H 0.26823 0.16198 0.41738 0.0
H29 H 0.26546 0.10871 0.41742 0.0
H30 H 0.24762 0.12618 0.37605 0.0
H31 H 0.22845 0.09508 0.37378 0.0
H32 H 0.27384 0.09452 0.39841 0.0
H33 H 0.26395 0.06358 0.38777 0.0
H34 H 0.24469 0.16699 0.41073 0.0
H35 H 0.25761 0.15439 0.36399 0.0
H36 H 0.22 0.06519 0.36162 0.0
H37 H 0.23634 0.18855 0.39894 0.0
H38 H 0.24772 0.17511 0.35221 0.0
C39 C 0.8634 0.15822 0.45582 0.0
C40 C 0.85475 0.14296 0.46629 0.0
C41 C 0.86605 0.15539 0.43982 0.0
C42 C 0.86029 0.13725 0.43393 0.0
C43 C 0.85176 0.12205 0.44445 0.0
C44 C 0.84885 0.12484 0.46032 0.0
C45 C 0.86325 0.13408 0.41696 0.0
C46 C 0.87946 0.14687 0.40894 0.0
C47 C 0.88273 0.14351 0.39314 0.0
C48 C 0.86955 0.12685 0.38545 0.0
C49 C 0.8536 0.11367 0.39349 0.0
C50 C 0.85031 0.11766 0.40898 0.0
C51 C 0.84115 0.09487 0.38656 0.0
C52 C 0.83358 0.09254 0.3712 0.0
C53 C 0.83662 0.07894 0.39568 0.0
C54 C 0.82433 0.06108 0.38986 0.0
C55 C 0.81607 0.05862 0.37479 0.0
C56 C 0.90061 0.15671 0.38533 0.0
C57 C 0.90929 0.17614 0.38836 0.0
C58 C 0.90983 0.1499 0.37572 0.0
C59 C 0.92754 0.16209 0.36986 0.0
C60 C 0.93641 0.18124 0.37363 0.0
C61 C 0.92712 0.18827 0.3827 0.0
C62 C 0.82106 0.07453 0.36537 0.0
H63 H 0.86833 0.17241 0.45998 0.0
H64 H 0.87251 0.16743 0.43207 0.0
H65 H 0.84745 0.1079 0.44052 0.0
H66 H 0.84184 0.11267 0.46788 0.0
H67 H 0.88998 0.15905 0.41529 0.0
H68 H 0.83765 0.10767 0.4149 0.0
H69 H 0.87196 0.12376 0.37344 0.0
H70 H 0.83695 0.10463 0.36392 0.0
H71 H 0.84263 0.08031 0.40739 0.0
H72 H 0.82133 0.04915 0.39722 0.0
H73 H 0.90249 0.18196 0.39543 0.0
H74 H 0.90379 0.13504 0.3733 0.0
H75 H 0.81497 0.07309 0.35369 0.0
H76 H 0.93382 0.20306 0.38569 0.0
H77 H 0.93464 0.15647 0.36295 0.0
C78 C 0.86765 0.72249 0.46388 0.0
C79 C 0.85132 0.70611 0.46831 0.0
C80 C 0.87056 0.72839 0.44811 0.0
C81 C 0.8571 0.71822 0.43643 0.0
C82 C 0.84071 0.70197 0.44076 0.0
C83 C 0.8379 0.69588 0.45653 0.0
C84 C 0.86039 0.72469 0.41979 0.0
C85 C 0.8772 0.72913 0.4125 0.0
C86 C 0.8814 0.73685 0.39722 0.0
C87 C 0.86844 0.74002 0.38917 0.0
C88 C 0.85149 0.73561 0.39632 0.0
C89 C 0.84742 0.72765 0.41155 0.0
C90 C 0.83887 0.74097 0.38854 0.0
C91 C 0.84596 0.7592 0.38269 0.0
C92 C 0.81969 0.72836 0.38759 0.0
C93 C 0.80782 0.73397 0.38097 0.0
C94 C 0.81488 0.75239 0.37537 0.0
C95 C 0.89972 0.74246 0.39013 0.0
C96 C 0.91584 0.75168 0.39953 0.0
C97 C 0.9013 0.73865 0.37407 0.0
C98 C 0.91867 0.74377 0.36762 0.0
C99 C 0.93477 0.75284 0.37711 0.0
C100 C 0.93313 0.7568 0.3931 0.0
C101 C 0.83412 0.76487 0.37628 0.0
H102 H 0.8781 0.73101 0.47263 0.0
H103 H 0.88322 0.74112 0.44508 0.0
H104 H 0.83021 0.69385 0.4319 0.0
H105 H 0.82527 0.68307 0.45944 0.0
H106 H 0.88709 0.7266 0.41883 0.0
H107 H 0.83466 0.72477 0.41737 0.0
H108 H 0.87176 0.74643 0.37752 0.0
H109 H 0.86064 0.76931 0.38355 0.0
H110 H 0.81391 0.71419 0.39198 0.0
H111 H 0.79312 0.7239 0.38029 0.0
H112 H 0.91513 0.75519 0.41184 0.0
H113 H 0.88909 0.73145 0.36658 0.0
H114 H 0.84007 0.7793 0.37252 0.0
H115 H 0.94528 0.7642 0.40064 0.0
H116 H 0.91946 0.74042 0.35528 0.0
C117 C 0.14461 0.27853 0.54343 0.0
C118 C 0.14222 0.29343 0.53849 0.0
C119 C 0.14256 0.27339 0.55939 0.0
C120 C 0.13784 0.28291 0.5707 0.0
C121 C 0.13542 0.29782 0.56577 0.0
C122 C 0.13777 0.30317 0.5498 0.0
C123 C 0.13494 0.27676 0.58749 0.0
C124 C 0.14762 0.27286 0.59508 0.0
C125 C 0.14402 0.26487 0.6103 0.0
C126 C 0.12766 0.26132 0.61811 0.0
C127 C 0.11494 0.26545 0.61076 0.0
C128 C 0.11877 0.2733 0.59548 0.0
C129 C 0.09685 0.26006 0.6183 0.0
C130 C 0.0862 0.24218 0.625 0.0
C131 C 0.08952 0.27219 0.61787 0.0
C132 C 0.07172 0.26636 0.62364 0.0
C133 C 0.0609 0.24824 0.62973 0.0
C134 C 0.15663 0.25889 0.61735 0.0
C135 C 0.16419 0.25045 0.60763 0.0
C136 C 0.16079 0.26097 0.63373 0.0
C137 C 0.17213 0.25458 0.64023 0.0
C138 C 0.17925 0.24583 0.63046 0.0
C139 C 0.17534 0.24398 0.61413 0.0
C140 C 0.06833 0.23628 0.63055 0.0
H141 H 0.14817 0.27091 0.53492 0.0
H142 H 0.14431 0.2617 0.56283 0.0
H143 H 0.1318 0.30538 0.57428 0.0
H144 H 0.13582 0.31469 0.54622 0.0
H145 H 0.16024 0.27583 0.58896 0.0
H146 H 0.10865 0.27569 0.58942 0.0
H147 H 0.12453 0.2548 0.62971 0.0
H148 H 0.09136 0.23244 0.62533 0.0
H149 H 0.09746 0.28607 0.61283 0.0
H150 H 0.06614 0.27573 0.62283 0.0
H151 H 0.16109 0.24834 0.59503 0.0
H152 H 0.15529 0.26752 0.64152 0.0
H153 H 0.06014 0.22223 0.63522 0.0
H154 H 0.18079 0.23732 0.6064 0.0
H155 H 0.17497 0.25606 0.65289 0.0
C156 C 0.69587 0.83781 0.55092 0.0
C157 C 0.70554 0.85207 0.53971 0.0
C158 C 0.70157 0.84043 0.56687 0.0
C159 C 0.71689 0.85742 0.57195 0.0
C160 C 0.72671 0.87151 0.56075 0.0
C161 C 0.72119 0.86883 0.54483 0.0
C162 C 0.7227 0.86065 0.58889 0.0
C163 C 0.7257 0.84767 0.59716 0.0
C164 C 0.73242 0.85127 0.61292 0.0
C165 C 0.73597 0.86813 0.62035 0.0
C166 C 0.73323 0.88138 0.61214 0.0
C167 C 0.72632 0.87734 0.59649 0.0
C168 C 0.73885 0.90001 0.61939 0.0
C169 C 0.73592 0.90188 0.63564 0.0
C170 C 0.74785 0.91626 0.61005 0.0
C171 C 0.75387 0.93389 0.61676 0.0
C172 C 0.75111 0.93569 0.63293 0.0
C173 C 0.73705 0.83808 0.62105 0.0
C174 C 0.72632 0.81863 0.61826 0.0
C175 C 0.75303 0.84489 0.6307 0.0
C176 C 0.75858 0.83267 0.63671 0.0
C177 C 0.74841 0.8135 0.63303 0.0
C178 C 0.73207 0.80649 0.62404 0.0
C179 C 0.74202 0.91964 0.64237 0.0
H180 H 0.68367 0.82478 0.54747 0.0
H181 H 0.69375 0.82936 0.57531 0.0
H182 H 0.7388 0.8846 0.5643 0.0
H183 H 0.72932 0.87992 0.5365 0.0
H184 H 0.72365 0.83519 0.59097 0.0
H185 H 0.72384 0.88729 0.59011 0.0
H186 H 0.74141 0.87121 0.63237 0.0
H187 H 0.72892 0.88965 0.64314 0.0
H188 H 0.75068 0.91544 0.5976 0.0
H189 H 0.76094 0.94621 0.60935 0.0
H190 H 0.71373 0.81281 0.6112 0.0
H191 H 0.76182 0.85976 0.63296 0.0
H192 H 0.73984 0.92087 0.65491 0.0
H193 H 0.72409 0.79169 0.62108 0.0
H194 H 0.77136 0.83831 0.6435 0.0
C195 C 0.12759 0.84756 0.54166 0.0
C196 C 0.14486 0.85053 0.53647 0.0
C197 C 0.12481 0.85007 0.55762 0.0
C198 C 0.13928 0.85571 0.56877 0.0
C199 C 0.15654 0.85851 0.56362 0.0
C200 C 0.15926 0.85581 0.54762 0.0
C201 C 0.13628 0.85908 0.58557 0.0
C202 C 0.11976 0.84644 0.5932 0.0
C203 C 0.11543 0.85042 0.60835 0.0
C204 C 0.12839 0.86707 0.61615 0.0
C205 C 0.14533 0.87966 0.6089 0.0
C206 C 0.14913 0.87551 0.59359 0.0
C207 C 0.15858 0.89771 0.61682 0.0
C208 C 0.15219 0.90863 0.62445 0.0
C209 C 0.1778 0.90461 0.61611 0.0
C210 C 0.19033 0.92229 0.62238 0.0
C211 C 0.18397 0.93353 0.62946 0.0
C212 C 0.09699 0.83758 0.61552 0.0
C213 C 0.08109 0.82839 0.60579 0.0
C214 C 0.095 0.83451 0.63204 0.0
C215 C 0.07754 0.82266 0.63861 0.0
C216 C 0.06179 0.81341 0.62879 0.0
C217 C 0.06376 0.81634 0.61232 0.0
C218 C 0.16473 0.92632 0.6307 0.0
H219 H 0.11622 0.84335 0.53333 0.0
H220 H 0.11142 0.84799 0.56119 0.0
H221 H 0.1679 0.86278 0.57197 0.0
H222 H 0.17275 0.85829 0.54388 0.0
H223 H 0.11015 0.83349 0.58716 0.0
H224 H 0.16169 0.88554 0.58756 0.0
H225 H 0.12518 0.87045 0.62776 0.0
H226 H 0.1375 0.90386 0.62503 0.0
H227 H 0.18316 0.8964 0.61055 0.0
H228 H 0.20505 0.92727 0.62146 0.0
H229 H 0.08188 0.83073 0.59309 0.0
H230 H 0.10693 0.84113 0.63989 0.0
H231 H 0.15933 0.93469 0.63588 0.0
H232 H 0.05179 0.80966 0.6045 0.0
H233 H 0.07638 0.82055 0.65135 0.0
C234 C 0.93934 0.48077 0.79645 0.0
C235 C 0.95329 0.47715 0.80145 0.0
C236 C 0.93429 0.47893 0.78041 0.0
C237 C 0.94297 0.47319 0.76916 0.0
C238 C 0.957 0.46961 0.77425 0.0
C239 C 0.96221 0.47172 0.79028 0.0
C240 C 0.93691 0.47039 0.75229 0.0
C241 C 0.93375 0.48361 0.74464 0.0
C242 C 0.92611 0.48024 0.72923 0.0
C243 C 0.92253 0.46375 0.72117 0.0
C244 C 0.92602 0.45051 0.72852 0.0
C245 C 0.93311 0.45394 0.74414 0.0
C246 C 0.9212 0.43252 0.7204 0.0
C247 C 0.90487 0.42284 0.71122 0.0
C248 C 0.93236 0.42433 0.72257 0.0
C249 C 0.92682 0.40648 0.7165 0.0
C250 C 0.91022 0.39666 0.70788 0.0
C251 C 0.9203 0.49308 0.72225 0.0
C252 C 0.91265 0.50127 0.73213 0.0
C253 C 0.92136 0.49654 0.70577 0.0
C254 C 0.91446 0.50753 0.69936 0.0
C255 C 0.90636 0.51517 0.70931 0.0
C256 C 0.90593 0.51227 0.72576 0.0
C257 C 0.8995 0.40509 0.70493 0.0
H258 H 0.93229 0.48493 0.80497 0.0
H259 H 0.92328 0.48156 0.77688 0.0
H260 H 0.96394 0.46523 0.76582 0.0
H261 H 0.97296 0.46879 0.794 0.0
H262 H 0.93703 0.49647 0.75086 0.0
H263 H 0.9349 0.44341 0.75027 0.0
H264 H 0.91655 0.46095 0.70934 0.0
H265 H 0.89577 0.42855 0.70949 0.0
H266 H 0.9452 0.43154 0.72928 0.0
H267 H 0.93524 0.40012 0.71889 0.0
H268 H 0.91126 0.49875 0.74481 0.0
H269 H 0.92738 0.49066 0.69783 0.0
H270 H 0.88651 0.39755 0.69845 0.0
H271 H 0.90011 0.51832 0.73376 0.0
H272 H 0.91502 0.50964 0.68662 0.0
C273 C 0.52738 0.49151 0.78904 0.0
C274 C 0.5214 0.47696 0.80018 0.0
C275 C 0.53009 0.48843 0.77311 0.0
C276 C 0.52664 0.47068 0.76798 0.0
C277 C 0.52061 0.45615 0.77913 0.0
C278 C 0.51806 0.45926 0.79503 0.0
C279 C 0.52952 0.46723 0.75113 0.0
C280 C 0.54568 0.47997 0.74305 0.0
C281 C 0.54913 0.47603 0.72754 0.0
C282 C 0.53612 0.45916 0.72009 0.0
C283 C 0.51983 0.44625 0.72795 0.0
C284 C 0.51657 0.45061 0.74339 0.0
C285 C 0.50675 0.42778 0.72049 0.0
C286 C 0.50312 0.42601 0.70399 0.0
C287 C 0.49804 0.41157 0.72992 0.0
C288 C 0.48582 0.39418 0.72313 0.0
C289 C 0.48227 0.3925 0.70675 0.0
C290 C 0.56699 0.48885 0.71966 0.0
C291 C 0.57475 0.50843 0.7207 0.0
C292 C 0.5769 0.48155 0.71174 0.0
C293 C 0.59445 0.49353 0.70556 0.0
C294 C 0.60236 0.51302 0.70704 0.0
C295 C 0.59227 0.52043 0.71436 0.0
C296 C 0.49106 0.40845 0.69716 0.0
H297 H 0.53018 0.50533 0.79268 0.0
H298 H 0.5347 0.49988 0.76478 0.0
H299 H 0.51806 0.44239 0.7756 0.0
H300 H 0.51327 0.44772 0.80328 0.0
H301 H 0.55601 0.49253 0.74915 0.0
H302 H 0.5039 0.441 0.74948 0.0
H303 H 0.53895 0.4559 0.70829 0.0
H304 H 0.50943 0.43818 0.69638 0.0
H305 H 0.50085 0.4122 0.74255 0.0
H306 H 0.47931 0.38193 0.73067 0.0
H307 H 0.56738 0.51446 0.72662 0.0
H308 H 0.57143 0.46656 0.71086 0.0
H309 H 0.48845 0.40735 0.68447 0.0
H310 H 0.59825 0.53546 0.7157 0.0
H311 H 0.60207 0.48759 0.69993 0.0
C312 C 0.53619 0.05139 0.79675 0.0
C313 C 0.51804 0.03944 0.80201 0.0
C314 C 0.53947 0.05736 0.78098 0.0
C315 C 0.52468 0.05126 0.77008 0.0
C316 C 0.50653 0.03899 0.77535 0.0
C317 C 0.50324 0.03326 0.7912 0.0
C318 C 0.52818 0.0582 0.75344 0.0
C319 C 0.54417 0.0611 0.74542 0.0
C320 C 0.54862 0.06939 0.73031 0.0
C321 C 0.53603 0.07361 0.72278 0.0
C322 C 0.51961 0.07025 0.73038 0.0
C323 C 0.51601 0.06283 0.74582 0.0
C324 C 0.50665 0.07539 0.72268 0.0
C325 C 0.51345 0.09168 0.71344 0.0
C326 C 0.48738 0.06446 0.72506 0.0
C327 C 0.47534 0.07012 0.71896 0.0
C328 C 0.48224 0.08673 0.71015 0.0
C329 C 0.56688 0.07468 0.72291 0.0
C330 C 0.58275 0.08057 0.73254 0.0
C331 C 0.5689 0.07467 0.70627 0.0
C332 C 0.58635 0.08085 0.6995 0.0
C333 C 0.60201 0.08668 0.70923 0.0
C334 C 0.60003 0.08626 0.72578 0.0
C335 C 0.50139 0.09717 0.70714 0.0
H336 H 0.5478 0.05654 0.80495 0.0
H337 H 0.55358 0.06712 0.77746 0.0
H338 H 0.49485 0.03379 0.76724 0.0
H339 H 0.48913 0.02392 0.795 0.0
H340 H 0.55325 0.05696 0.75107 0.0
H341 H 0.50406 0.06135 0.75218 0.0
H342 H 0.53918 0.07988 0.71111 0.0
H343 H 0.52817 0.10059 0.71144 0.0
H344 H 0.48158 0.05163 0.73184 0.0
H345 H 0.4607 0.06175 0.72161 0.0
H346 H 0.58202 0.08133 0.74536 0.0
H347 H 0.55705 0.06992 0.69842 0.0
H348 H 0.50716 0.10983 0.70012 0.0
H349 H 0.61201 0.09091 0.7335 0.0
H350 H 0.58761 0.08098 0.68667 0.0
C351 C 0.81165 0.61378 0.87681 0.0
C352 C 0.80876 0.62833 0.87172 0.0
C353 C 0.80961 0.60873 0.89278 0.0
C354 C 0.80445 0.61798 0.904 0.0
C355 C 0.80139 0.63244 0.89892 0.0
C356 C 0.80373 0.63772 0.88291 0.0
C357 C 0.8018 0.61192 0.92081 0.0
C358 C 0.81509 0.60894 0.92838 0.0
C359 C 0.81147 0.59971 0.94311 0.0
C360 C 0.79455 0.59483 0.95072 0.0
C361 C 0.78152 0.5988 0.94369 0.0
C362 C 0.78525 0.60724 0.92866 0.0
C363 C 0.76329 0.59274 0.95131 0.0
C364 C 0.75331 0.57496 0.9583 0.0
C365 C 0.75522 0.60421 0.95075 0.0
C366 C 0.7373 0.59775 0.9565 0.0
C367 C 0.72707 0.57966 0.96287 0.0
C368 C 0.8247 0.59405 0.94978 0.0
C369 C 0.83657 0.59125 0.93962 0.0
C370 C 0.82526 0.59067 0.96615 0.0
C371 C 0.83673 0.58408 0.97197 0.0
C372 C 0.84844 0.58121 0.96168 0.0
C373 C 0.84851 0.58542 0.94551 0.0
C374 C 0.7354 0.5685 0.96402 0.0
H375 H 0.81566 0.60642 0.86844 0.0
H376 H 0.8118 0.59736 0.89634 0.0
H377 H 0.79735 0.63974 0.90735 0.0
H378 H 0.80136 0.64894 0.87923 0.0
H379 H 0.82815 0.61358 0.9224 0.0
H380 H 0.77481 0.60918 0.92264 0.0
H381 H 0.79117 0.58753 0.96193 0.0
H382 H 0.75901 0.56569 0.95881 0.0
H383 H 0.76265 0.61807 0.9456 0.0
H384 H 0.7312 0.60663 0.95542 0.0
H385 H 0.83652 0.59303 0.9269 0.0
H386 H 0.81679 0.59296 0.97459 0.0
H387 H 0.72791 0.55459 0.96908 0.0
H388 H 0.85765 0.58402 0.93718 0.0
H389 H 0.83607 0.58089 0.98449 0.0
C390 C 0.36446 0.16892 0.88352 0.0
C391 C 0.37063 0.18396 0.87294 0.0
C392 C 0.37045 0.17211 0.8994 0.0
C393 C 0.38297 0.19038 0.90491 0.0
C394 C 0.38926 0.20534 0.89411 0.0
C395 C 0.38302 0.20218 0.87836 0.0
C396 C 0.38962 0.1939 0.92175 0.0
C397 C 0.39344 0.18126 0.92974 0.0
C398 C 0.40031 0.18477 0.94546 0.0
C399 C 0.40378 0.20153 0.95305 0.0
C400 C 0.40041 0.21456 0.94515 0.0
C401 C 0.39287 0.21033 0.9297 0.0
C402 C 0.40578 0.23311 0.9525 0.0
C403 C 0.40334 0.23495 0.96887 0.0
C404 C 0.41389 0.24935 0.94308 0.0
C405 C 0.41935 0.26689 0.94977 0.0
C406 C 0.41697 0.26866 0.96603 0.0
C407 C 0.40481 0.17136 0.95344 0.0
C408 C 0.39382 0.15193 0.95064 0.0
C409 C 0.4207 0.17786 0.96313 0.0
C410 C 0.42594 0.16537 0.96916 0.0
C411 C 0.41556 0.14616 0.96545 0.0
C412 C 0.39922 0.13951 0.95645 0.0
C413 C 0.40894 0.25264 0.97559 0.0
H414 H 0.35482 0.15476 0.87955 0.0
H415 H 0.36511 0.16028 0.90738 0.0
H416 H 0.39923 0.21953 0.89775 0.0
H417 H 0.38809 0.21394 0.87031 0.0
H418 H 0.39175 0.16898 0.92345 0.0
H419 H 0.38954 0.21995 0.92381 0.0
H420 H 0.40949 0.20463 0.96498 0.0
H421 H 0.39704 0.22276 0.97645 0.0
H422 H 0.4164 0.24859 0.93054 0.0
H423 H 0.42572 0.27918 0.94226 0.0
H424 H 0.38122 0.14632 0.94362 0.0
H425 H 0.42964 0.1927 0.96546 0.0
H426 H 0.4071 0.25383 0.98821 0.0
H427 H 0.39084 0.12472 0.95359 0.0
H428 H 0.43868 0.17088 0.97598 0.0
C429 C 0.79488 0.17834 0.87561 0.0
C430 C 0.81284 0.18403 0.87025 0.0
C431 C 0.79189 0.18126 0.89143 0.0
C432 C 0.80678 0.18961 0.90233 0.0
C433 C 0.82475 0.19501 0.89693 0.0
C434 C 0.82776 0.19239 0.88101 0.0
C435 C 0.80347 0.19292 0.91913 0.0
C436 C 0.78701 0.18007 0.92674 0.0
C437 C 0.78271 0.18372 0.94198 0.0
C438 C 0.79564 0.20005 0.95012 0.0
C439 C 0.81246 0.21299 0.94288 0.0
C440 C 0.81616 0.20932 0.92734 0.0
C441 C 0.82557 0.23105 0.95089 0.0
C442 C 0.81886 0.24138 0.95909 0.0
C443 C 0.84489 0.23878 0.9494 0.0
C444 C 0.85713 0.25678 0.95526 0.0
C445 C 0.85027 0.26729 0.96276 0.0
C446 C 0.76414 0.1709 0.94874 0.0
C447 C 0.74831 0.16413 0.93901 0.0
C448 C 0.76199 0.16524 0.9647 0.0
C449 C 0.74436 0.15277 0.97069 0.0
C450 C 0.72854 0.14582 0.96084 0.0
C451 C 0.73077 0.15179 0.94497 0.0
C452 C 0.83112 0.25936 0.96492 0.0
H453 H 0.78321 0.17216 0.86744 0.0
H454 H 0.77793 0.17735 0.89498 0.0
H455 H 0.83649 0.20123 0.90501 0.0
H456 H 0.84175 0.19685 0.87708 0.0
H457 H 0.77732 0.16714 0.92071 0.0
H458 H 0.82855 0.21971 0.92135 0.0
H459 H 0.79238 0.20291 0.96191 0.0
H460 H 0.8041 0.236 0.9603 0.0
H461 H 0.85052 0.23111 0.94333 0.0
H462 H 0.8719 0.26278 0.95339 0.0
H463 H 0.74944 0.16857 0.92676 0.0
H464 H 0.77396 0.17018 0.97245 0.0
H465 H 0.82561 0.2674 0.97056 0.0
H466 H 0.7189 0.14719 0.93716 0.0
H467 H 0.74315 0.14841 0.98296 0.0
C468 C 0.60964 0.81795 0.12804 0.0
C469 C 0.62082 0.81107 0.13405 0.0
C470 C 0.60414 0.81519 0.11212 0.0
C471 C 0.60989 0.8057 0.10165 0.0
C472 C 0.62122 0.79893 0.1076 0.0
C473 C 0.62659 0.80156 0.12362 0.0
C474 C 0.60359 0.80261 0.08475 0.0
C475 C 0.60179 0.81648 0.07672 0.0
C476 C 0.59269 0.81287 0.06191 0.0
C477 C 0.58735 0.79557 0.05429 0.0
C478 C 0.59047 0.78199 0.06156 0.0
C479 C 0.59812 0.78549 0.07699 0.0
C480 C 0.5851 0.76378 0.05349 0.0
C481 C 0.56859 0.75421 0.04456 0.0
C482 C 0.59624 0.7555 0.05517 0.0
C483 C 0.59065 0.73777 0.04872 0.0
C484 C 0.57383 0.72788 0.04029 0.0
C485 C 0.58762 0.82661 0.05527 0.0
C486 C 0.58473 0.83843 0.06562 0.0
C487 C 0.5848 0.82764 0.03885 0.0
C488 C 0.5786 0.83955 0.03314 0.0
C489 C 0.57548 0.85107 0.04364 0.0
C490 C 0.57926 0.85073 0.05987 0.0
C491 C 0.56307 0.73651 0.03799 0.0
H492 H 0.6051 0.82554 0.13563 0.0
H493 H 0.59511 0.82028 0.10808 0.0
H494 H 0.62597 0.79165 0.09987 0.0
H495 H 0.635 0.79583 0.12787 0.0
H496 H 0.60723 0.8301 0.08233 0.0
H497 H 0.59917 0.77457 0.08321 0.0
H498 H 0.58054 0.79248 0.04281 0.0
H499 H 0.55959 0.76006 0.04308 0.0
H500 H 0.60921 0.7626 0.0617 0.0
H501 H 0.59923 0.73156 0.0509 0.0
H502 H 0.58612 0.83797 0.07837 0.0
H503 H 0.58715 0.81916 0.03035 0.0
H504 H 0.55018 0.72945 0.03135 0.0
H505 H 0.57763 0.85973 0.06835 0.0
H506 H 0.57579 0.83931 0.02054 0.0
C507 C 0.19555 0.82517 0.12165 0.0
C508 C 0.18733 0.81019 0.13231 0.0
C509 C 0.19868 0.82203 0.10588 0.0
C510 C 0.19387 0.80387 0.10061 0.0
C511 C 0.18599 0.78901 0.11154 0.0
C512 C 0.18261 0.79213 0.12719 0.0
C513 C 0.19693 0.80033 0.08381 0.0
C514 C 0.21296 0.81318 0.07565 0.0
C515 C 0.21618 0.80973 0.05986 0.0
C516 C 0.20309 0.79283 0.05236 0.0
C517 C 0.18729 0.77956 0.06058 0.0
C518 C 0.18412 0.78369 0.07607 0.0
C519 C 0.17463 0.76069 0.05377 0.0
C520 C 0.16706 0.75827 0.0384 0.0
C521 C 0.16961 0.74481 0.06313 0.0
C522 C 0.15685 0.72697 0.05755 0.0
C523 C 0.14864 0.72445 0.04246 0.0
C524 C 0.23391 0.82322 0.0519 0.0
C525 C 0.24252 0.84259 0.05524 0.0
C526 C 0.24313 0.81677 0.0419 0.0
C527 C 0.26078 0.82922 0.03601 0.0
C528 C 0.2697 0.84827 0.04024 0.0
C529 C 0.26033 0.85493 0.04967 0.0
C530 C 0.15412 0.74027 0.03279 0.0
H531 H 0.19925 0.83921 0.12546 0.0
H532 H 0.20459 0.83375 0.09777 0.0
H533 H 0.18255 0.77495 0.10805 0.0
H534 H 0.17644 0.78045 0.13535 0.0
H535 H 0.22335 0.82553 0.08192 0.0
H536 H 0.1716 0.77371 0.08217 0.0
H537 H 0.20539 0.78969 0.04034 0.0
H538 H 0.17074 0.7703 0.03094 0.0
H539 H 0.17557 0.74619 0.07488 0.0
H540 H 0.15346 0.71508 0.06511 0.0
H541 H 0.23569 0.84823 0.06251 0.0
H542 H 0.23718 0.80199 0.03919 0.0
H543 H 0.14809 0.73879 0.02108 0.0
H544 H 0.26694 0.86964 0.05294 0.0
H545 H 0.26786 0.8238 0.02882 0.0
C546 C 0.20173 0.38545 0.12972 0.0
C547 C 0.18382 0.37319 0.1352 0.0
C548 C 0.2046 0.39069 0.11378 0.0
C549 C 0.18959 0.38353 0.103 0.0
C550 C 0.17166 0.37098 0.10855 0.0
C551 C 0.16879 0.36594 0.12457 0.0
C552 C 0.19269 0.38973 0.08618 0.0
C553 C 0.20872 0.39264 0.0783 0.0
C554 C 0.21322 0.40087 0.0632 0.0
C555 C 0.20073 0.40501 0.05546 0.0
C556 C 0.18426 0.40167 0.06297 0.0
C557 C 0.18045 0.39413 0.07838 0.0
C558 C 0.17175 0.40747 0.05544 0.0
C559 C 0.17912 0.42464 0.04741 0.0
C560 C 0.15238 0.39644 0.05705 0.0
C561 C 0.14072 0.40277 0.0513 0.0
C562 C 0.14818 0.42026 0.04381 0.0
C563 C 0.2318 0.40682 0.05642 0.0
C564 C 0.24748 0.41493 0.06645 0.0
C565 C 0.23425 0.40518 0.04006 0.0
C566 C 0.25204 0.41175 0.03388 0.0
C567 C 0.26765 0.4202 0.04395 0.0
C568 C 0.26514 0.42146 0.0603 0.0
C569 C 0.16747 0.43093 0.04163 0.0
H570 H 0.21343 0.39132 0.13787 0.0
H571 H 0.21852 0.40071 0.11001 0.0
H572 H 0.15986 0.3651 0.10052 0.0
H573 H 0.15486 0.35644 0.12868 0.0
H574 H 0.21802 0.3889 0.08412 0.0
H575 H 0.16841 0.39261 0.08465 0.0
H576 H 0.20413 0.41142 0.04383 0.0
H577 H 0.19396 0.43359 0.04607 0.0
H578 H 0.14624 0.38304 0.063 0.0
H579 H 0.12593 0.39425 0.05322 0.0
H580 H 0.24619 0.41672 0.07907 0.0
H581 H 0.22244 0.39888 0.03205 0.0
H582 H 0.17362 0.44433 0.03567 0.0
H583 H 0.27692 0.42769 0.06836 0.0
H584 H 0.25365 0.41067 0.0212 0.0
C585 C 0.48417 0.94976 0.21147 0.0
C586 C 0.47674 0.96035 0.20509 0.0
C587 C 0.48139 0.94438 0.22736 0.0
C588 C 0.47158 0.94991 0.23756 0.0
C589 C 0.46446 0.96087 0.2313 0.0
C590 C 0.46687 0.96588 0.21524 0.0
C591 C 0.46836 0.94366 0.25445 0.0
C592 C 0.48149 0.94082 0.26261 0.0
C593 C 0.4776 0.93229 0.2776 0.0
C594 C 0.46087 0.92795 0.2851 0.0
C595 C 0.44794 0.93158 0.27751 0.0
C596 C 0.45168 0.93918 0.26213 0.0
C597 C 0.42993 0.92633 0.28507 0.0
C598 C 0.41921 0.90857 0.29189 0.0
C599 C 0.42293 0.93872 0.28481 0.0
C600 C 0.40538 0.93329 0.29096 0.0
C601 C 0.39441 0.91531 0.29739 0.0
C602 C 0.49033 0.92643 0.28454 0.0
C603 C 0.4981 0.91837 0.27463 0.0
C604 C 0.49444 0.92823 0.30092 0.0
C605 C 0.50601 0.92201 0.3072 0.0
C606 C 0.5134 0.91365 0.29723 0.0
C607 C 0.50948 0.91207 0.28089 0.0
C608 C 0.40163 0.90309 0.29793 0.0
H609 H 0.49222 0.94556 0.20422 0.0
H610 H 0.48674 0.93558 0.2315 0.0
H611 H 0.45701 0.96561 0.23877 0.0
H612 H 0.46073 0.97386 0.21077 0.0
H613 H 0.49472 0.94487 0.25714 0.0
H614 H 0.44113 0.94074 0.25591 0.0
H615 H 0.45768 0.92131 0.29665 0.0
H616 H 0.42413 0.89862 0.29202 0.0
H617 H 0.43101 0.95257 0.27976 0.0
H618 H 0.40036 0.94314 0.29055 0.0
H619 H 0.49502 0.91647 0.26201 0.0
H620 H 0.48872 0.93445 0.30884 0.0
H621 H 0.39343 0.88901 0.3025 0.0
H622 H 0.51511 0.90577 0.27296 0.0
H623 H 0.5088 0.92328 0.31987 0.0
C624 C 0.02956 0.50532 0.21755 0.0
C625 C 0.03951 0.51967 0.20648 0.0
C626 C 0.03517 0.5076 0.23353 0.0
C627 C 0.05068 0.52434 0.23875 0.0
C628 C 0.06076 0.53853 0.22768 0.0
C629 C 0.05533 0.53618 0.21175 0.0
C630 C 0.0564 0.52735 0.25572 0.0
C631 C 0.0593 0.51426 0.26393 0.0
C632 C 0.06617 0.51783 0.27968 0.0
C633 C 0.07004 0.53484 0.28709 0.0
C634 C 0.06744 0.5482 0.27889 0.0
C635 C 0.06022 0.54407 0.26334 0.0
C636 C 0.07334 0.56703 0.28593 0.0
C637 C 0.07076 0.56937 0.30215 0.0
C638 C 0.0818 0.58299 0.27622 0.0
C639 C 0.08703 0.60069 0.28238 0.0
C640 C 0.08423 0.60302 0.29847 0.0
C641 C 0.07069 0.50445 0.28771 0.0
C642 C 0.06011 0.48504 0.28458 0.0
C643 C 0.08648 0.51106 0.29758 0.0
C644 C 0.092 0.49873 0.30345 0.0
C645 C 0.08207 0.47966 0.29937 0.0
C646 C 0.06589 0.47282 0.29016 0.0
C647 C 0.07627 0.58725 0.3084 0.0
H648 H 0.01723 0.49248 0.21397 0.0
H649 H 0.02714 0.49648 0.24186 0.0
H650 H 0.07299 0.55144 0.23135 0.0
H651 H 0.06366 0.54733 0.20354 0.0
H652 H 0.05709 0.50176 0.25769 0.0
H653 H 0.05772 0.55401 0.25699 0.0
H654 H 0.07559 0.53794 0.29907 0.0
H655 H 0.06424 0.55738 0.30996 0.0
H656 H 0.08461 0.5819 0.26381 0.0
H657 H 0.09358 0.61266 0.27454 0.0
H658 H 0.04761 0.4793 0.27741 0.0
H659 H 0.09519 0.52587 0.30012 0.0
H660 H 0.07403 0.58872 0.32088 0.0
H661 H 0.058 0.4581 0.28694 0.0
H662 H 0.10464 0.50428 0.31043 0.0
C663 C 0.46181 0.51258 0.20874 0.0
C664 C 0.47961 0.51796 0.2032 0.0
C665 C 0.45905 0.5149 0.22476 0.0
C666 C 0.47408 0.52263 0.23553 0.0
C667 C 0.49189 0.52775 0.22993 0.0
C668 C 0.49463 0.52544 0.21386 0.0
C669 C 0.47106 0.52586 0.25238 0.0
C670 C 0.45534 0.51238 0.26036 0.0
C671 C 0.45038 0.5162 0.27531 0.0
C672 C 0.46277 0.53324 0.28301 0.0
C673 C 0.47933 0.54663 0.27559 0.0
C674 C 0.48301 0.54289 0.26005 0.0
C675 C 0.49244 0.56487 0.28359 0.0
C676 C 0.48602 0.57373 0.29409 0.0
C677 C 0.51158 0.57392 0.28036 0.0
C678 C 0.52372 0.59167 0.28667 0.0
C679 C 0.51724 0.60078 0.2968 0.0
C680 C 0.43165 0.50302 0.28203 0.0
C681 C 0.41661 0.49208 0.27173 0.0
C682 C 0.42824 0.5017 0.29852 0.0
C683 C 0.41028 0.49034 0.3044 0.0
C684 C 0.39533 0.47966 0.29399 0.0
C685 C 0.39891 0.48033 0.27763 0.0
C686 C 0.49827 0.59128 0.30077 0.0
H687 H 0.45013 0.507 0.20059 0.0
H688 H 0.44521 0.51112 0.22863 0.0
H689 H 0.50369 0.53361 0.23796 0.0
H690 H 0.50849 0.52974 0.20969 0.0
H691 H 0.44672 0.49895 0.2546 0.0
H692 H 0.4948 0.55353 0.2536 0.0
H693 H 0.45938 0.53627 0.29463 0.0
H694 H 0.47144 0.56749 0.29686 0.0
H695 H 0.51727 0.56744 0.27272 0.0
H696 H 0.5381 0.59843 0.28309 0.0
H697 H 0.41819 0.49284 0.25895 0.0
H698 H 0.43935 0.50952 0.30695 0.0
H699 H 0.49271 0.5975 0.30883 0.0
H700 H 0.38795 0.47197 0.26921 0.0
H701 H 0.4081 0.4903 0.31709 0.0
O702 O 0.4731 0.97581 0.00406 0.0
Mn703 Mn 0.49897 0.00044 0.00386 0.0
O704 O 0.45654 0.98224 0.02116 0.0
Mn705 Mn 0.47172 0.00792 0.02167 0.0
O706 O 0.52554 0.02549 0.0035 0.0
O707 O 0.51046 0.98319 0.00307 0.0
Mn708 Mn 0.52957 -0.00215 0.99059 0.0
O709 O 0.49654 0.00092 0.97924 0.0
O710 O 0.54594 0.01564 0.00418 0.0
O711 O 0.50111 0.00031 0.0291 0.0
O712 O 0.48751 0.016 0.03869 0.0
O713 O 0.52564 0.9749 0.98641 0.0
O714 O 0.52468 0.00698 0.9723 0.0
C715 C 0.47672 0.02258 -0.00033 0.0
C716 C 0.4586 0.97085 0.01246 0.0
C717 C 0.54219 0.02863 0.00597 0.0
C718 C 0.51128 0.96971 0.99541 0.0
C719 C 0.50906 0.00504 0.96876 0.0
C720 C 0.49764 0.00861 0.04062 0.0
O721 O 0.48789 0.01757 0.00581 0.0
O722 O 0.4632 0.01976 0.00894 0.0
O723 O 0.01979 0.49516 0.00191 0.0
Mn724 Mn -0.004 0.49752 0.00338 0.0
O725 O 0.01603 0.47556 0.02144 0.0
Mn726 Mn 0.9906 0.46461 0.02259 0.0
O727 O 0.97207 0.50039 0.00406 0.0
O728 O 0.01317 0.52527 -0.00078 0.0
Mn729 Mn 0.00175 0.53231 0.98562 0.0
O730 O 0.99222 0.49195 0.97877 0.0
O731 O 0.98089 0.52942 0.99541 0.0
O732 O -0.0007 0.50242 0.02877 0.0
O733 O 0.98332 0.47353 0.03908 0.0
O734 O 0.0238 0.55342 0.98906 0.0
O735 O -0.00176 0.51896 0.96714 0.0
C736 C 0.97442 0.45323 0.00145 0.0
C737 C 0.02599 0.4872 0.01103 0.0
C738 C 0.96897 0.51402 0.0015 0.0
C739 C 0.02653 0.54259 -0.00155 0.0
C740 C 0.99407 0.50187 0.96641 0.0
C741 C 0.9917 0.49125 0.04079 0.0
O742 O 0.97905 0.46965 0.00722 0.0
O743 O 0.97888 0.44347 0.01052 0.0
O744 O 0.52337 0.5029 -0.00054 0.0
Mn745 Mn 0.49642 0.49803 0.00104 0.0
O746 O 0.53684 0.52576 0.98109 0.0
Mn747 Mn 0.51744 0.5306 0.97816 0.0
O748 O 0.46932 0.49346 0.00235 0.0
O749 O 0.48737 0.4706 0.00566 0.0
Mn750 Mn 0.47308 0.46451 0.02253 0.0
O751 O 0.50092 0.50557 0.02547 0.0
O752 O 0.45317 0.46721 0.01681 0.0
O753 O 0.49197 0.49029 0.97653 0.0
O754 O 0.49997 0.51658 0.96315 0.0
O755 O 0.47295 0.44306 0.01724 0.0
O756 O 0.48734 0.47872 0.03923 0.0
C757 C 0.51172 0.54332 0.99756 0.0
C758 C 0.53717 0.51405 0.9908 0.0
C759 C 0.45416 0.48049 0.00843 0.0
C760 C 0.48328 0.45317 0.00565 0.0
C761 C 0.49755 0.4964 0.03857 0.0
C762 C 0.49226 0.49889 0.96366 0.0
O763 O 0.50608 0.52553 0.9966 0.0
O764 O 0.52019 0.55289 0.98508 0.0
O765 O 0.13853 0.30957 0.33623 0.0
Mn766 Mn 0.1651 0.33281 0.33661 0.0
O767 O 0.12541 0.31527 0.35691 0.0
Mn768 Mn 0.14104 0.34102 0.35757 0.0
O769 O 0.19216 0.35588 0.33642 0.0
O770 O 0.17475 0.31481 0.3332 0.0
Mn771 Mn 0.19006 0.32289 0.31702 0.0
O772 O 0.16246 0.33567 0.31186 0.0
O773 O 0.2092 0.34636 0.32253 0.0
O774 O 0.16766 0.3301 0.36155 0.0
O775 O 0.15828 0.34834 0.37341 0.0
O776 O 0.19021 0.30191 0.32344 0.0
O777 O 0.17635 0.3217 0.29962 0.0
C778 C 0.14408 0.35629 0.33631 0.0
C779 C 0.12545 0.30434 0.3463 0.0
C780 C 0.20757 0.35863 0.33052 0.0
C781 C 0.17869 0.30145 0.33401 0.0
C782 C 0.16636 0.32932 0.29927 0.0
C783 C 0.1666 0.33896 0.37391 0.0
O784 O 0.15585 0.35122 0.34081 0.0
O785 O 0.13149 0.35325 0.34675 0.0
O786 O 0.68304 0.82327 0.33803 0.0
Mn787 Mn 0.66127 0.82943 0.33701 0.0
O788 O 0.66989 0.79413 0.34798 0.0
Mn789 Mn 0.64803 0.79246 0.35409 0.0
O790 O 0.63912 0.83515 0.33693 0.0
O791 O 0.68155 0.85743 0.33443 0.0
Mn792 Mn 0.67113 0.8637 0.31882 0.0
O793 O 0.65876 0.8242 0.31233 0.0
O794 O 0.64989 0.86299 0.32534 0.0
O795 O 0.66349 0.8336 0.36227 0.0
O796 O 0.64898 0.80459 0.37241 0.0
O797 O 0.69186 0.88516 0.32224 0.0
O798 O 0.66987 0.85169 0.30011 0.0
C799 C 0.62767 0.78487 0.33684 0.0
C800 C 0.68388 0.80882 0.34268 0.0
C801 C 0.63729 0.84908 0.33262 0.0
C802 C 0.69438 0.87517 0.33277 0.0
C803 C 0.66333 0.83417 0.29971 0.0
C804 C 0.65747 0.82224 0.37422 0.0
O805 O 0.64144 0.80192 0.33869 0.0
O806 O 0.62635 0.77282 0.34737 0.0
O807 O 0.18996 0.83639 0.3314 0.0
Mn808 Mn 0.16267 0.8318 0.33342 0.0
O809 O 0.20538 0.86383 0.31835 0.0
Mn810 Mn 0.18541 0.86633 0.31303 0.0
O811 O 0.13576 0.82794 0.33473 0.0
O812 O 0.15338 0.80394 0.33689 0.0
Mn813 Mn 0.13743 0.79731 0.35273 0.0
O814 O 0.16651 0.83779 0.35808 0.0
O815 O 0.11795 0.80066 0.34711 0.0
O816 O 0.15906 0.82538 0.30892 0.0
O817 O 0.17242 0.8525 0.29561 0.0
O818 O 0.13705 0.77583 0.34764 0.0
O819 O 0.15027 0.81012 0.37048 0.0
C820 C 0.17523 0.87682 0.33049 0.0
C821 C 0.20475 0.84966 0.32495 0.0
C822 C 0.12008 0.8152 0.3401 0.0
C823 C 0.1492 0.78642 0.33721 0.0
C824 C 0.16143 0.82766 0.37072 0.0
C825 C 0.16316 0.83474 0.29593 0.0
O826 O 0.1713 0.8594 0.32992 0.0
O827 O 0.18517 0.88739 0.31891 0.0
O828 O 0.80414 0.64527 0.67032 0.0
Mn829 Mn 0.83172 0.66603 0.67013 0.0
O830 O 0.79619 0.65009 0.69408 0.0
Mn831 Mn 0.81302 0.67575 0.69378 0.0
O832 O 0.85984 0.68595 0.6681 0.0
O833 O 0.83788 0.64595 0.66472 0.0
Mn834 Mn 0.8475 0.65027 0.64567 0.0
O835 O 0.82826 0.67095 0.64605 0.0
O836 O 0.86859 0.67386 0.64781 0.0
O837 O 0.83602 0.66203 0.69475 0.0
O838 O 0.83168 0.68297 0.708 0.0
O839 O 0.84789 0.62938 0.65248 0.0
O840 O 0.82944 0.64857 0.63212 0.0
C841 C 0.81262 0.6911 0.6742 0.0
C842 C 0.79296 0.63985 0.68191 0.0
C843 C 0.87193 0.68685 0.65799 0.0
C844 C 0.84123 0.63227 0.6654 0.0
C845 C 0.82561 0.66158 0.63309 0.0
C846 C 0.83812 0.67196 0.70744 0.0
O847 O 0.82552 0.68658 0.67586 0.0
O848 O 0.80192 0.68798 0.68633 0.0
O849 O 0.34942 0.15691 0.671 0.0
Mn850 Mn 0.32882 0.16399 0.67052 0.0
O851 O 0.34294 0.14018 0.69327 0.0
Mn852 Mn 0.31823 0.13394 0.69492 0.0
O853 O 0.30848 0.1717 0.66923 0.0
O854 O 0.34845 0.19063 0.6648 0.0
Mn855 Mn 0.34181 0.19534 0.64635 0.0
O856 O 0.32289 0.1548 0.64647 0.0
O857 O 0.31903 0.1937 0.64998 0.0
O858 O 0.33414 0.17286 0.69488 0.0
O859 O 0.31414 0.14822 0.70918 0.0
O860 O 0.36305 0.21687 0.65135 0.0
O861 O 0.34256 0.1791 0.63186 0.0
C862 C 0.3026 0.11972 0.67475 0.0
C863 C 0.35353 0.14863 0.68167 0.0
C864 C 0.30689 0.18341 0.66021 0.0
C865 C 0.36213 0.20781 0.66417 0.0
C866 C 0.33075 0.16188 0.63312 0.0
C867 C 0.32555 0.16564 0.70805 0.0
O868 O 0.30904 0.13759 0.67703 0.0
O869 O 0.30308 0.11062 0.68709 0.0
O870 O 0.85795 0.17191 0.66759 0.0
Mn871 Mn 0.83055 0.16582 0.66728 0.0
O872 O 0.86784 0.18744 0.6452 0.0
Mn873 Mn 0.85164 0.19672 0.64629 0.0
O874 O 0.80262 0.15831 0.6689 0.0
O875 O 0.82307 0.13823 0.6697 0.0
Mn876 Mn 0.81391 0.13327 0.68895 0.0
O877 O 0.83285 0.17205 0.6921 0.0
O878 O 0.79358 0.1369 0.68849 0.0
O879 O 0.82723 0.1601 0.64205 0.0
O880 O 0.83421 0.18727 0.63084 0.0
O881 O 0.81134 0.11121 0.68249 0.0
O882 O 0.83304 0.14777 0.70239 0.0
C883 C 0.85073 0.21043 0.66712 0.0
C884 C 0.86992 0.1788 0.6566 0.0
C885 C 0.79039 0.14692 0.67881 0.0
C886 C 0.81877 0.12068 0.66969 0.0
C887 C 0.83516 0.16388 0.70412 0.0
C888 C 0.82681 0.16961 0.62995 0.0
O889 O 0.83781 0.19329 0.66375 0.0
O890 O 0.86275 0.21914 0.65604 0.0
H891 H 0.29887 0.86654 0.06037 0.0
H892 H 0.33186 0.88519 0.0535 0.0
H893 H 0.31755 0.87668 0.00364 0.0
H894 H 0.28451 0.85765 0.01052 0.0
H895 H 0.35119 0.8704 0.03241 0.0
H896 H 0.35366 0.93562 0.01148 0.0
H897 H 0.33605 0.91943 0.02488 0.0
H898 H 0.33486 0.9137 0.00415 0.0
C899 C 0.30281 0.86887 0.04796 0.0
C900 C 0.28929 0.86078 0.03594 0.0
C901 C 0.32158 0.87942 0.04406 0.0
C902 C 0.32706 0.88231 0.02808 0.0
C903 C 0.31353 0.87464 0.01604 0.0
H904 H 0.43628 0.9525 0.98716 0.0
H905 H 0.40384 0.92724 0.98935 0.0
C906 C 0.29475 0.8638 0.01995 0.0
C907 C 0.34699 0.89265 0.02403 0.0
H908 H 0.38093 0.93389 0.00877 0.0
C909 C 0.35773 0.88425 0.02717 0.0
C910 C 0.35538 0.91069 0.01725 0.0
C911 C 0.34451 0.92055 0.0143 0.0
C912 C 0.37673 0.89342 0.0236 0.0
C913 C 0.3852 0.91154 0.01689 0.0
C914 C 0.37437 0.91986 0.01365 0.0
C915 C 0.40554 0.92298 0.01454 0.0
C916 C 0.38755 0.88362 0.02705 0.0
C917 C 0.41744 0.92825 0.02777 0.0
C918 C 0.43589 0.94246 0.02647 0.0
C919 C 0.44277 0.95165 0.01195 0.0
C920 C 0.4314 0.94527 0.99838 0.0
C921 C 0.41283 0.93104 -0.00032 0.0
H922 H 0.37835 0.86814 0.02728 0.0
H923 H 0.39856 0.88716 0.01807 0.0
H924 H 0.39423 0.88814 0.03892 0.0
H925 H 0.4121 0.92256 0.0394 0.0
H926 H 0.44433 0.94748 0.03716 0.0
H927 H 0.15487 0.45601 0.04771 0.0
H928 H 0.13516 0.46878 0.03994 0.0
H929 H 0.09423 0.41461 0.02154 0.0
H930 H 0.11399 0.40168 0.02923 0.0
H931 H 0.12254 0.47011 0.00943 0.0
H932 H 0.06401 0.42942 0.05083 0.0
H933 H 0.08639 0.43119 0.05324 0.0
H934 H 0.07035 0.41563 0.03851 0.0
C935 C 0.14175 0.44682 0.04189 0.0
C936 C 0.13605 0.42785 0.039 0.0
C937 C 0.13046 0.45412 0.03755 0.0
C938 C 0.11319 0.44261 0.0303 0.0
C939 C 0.10738 0.42365 0.02738 0.0
H940 H 0.03167 0.46607 0.99012 0.0
H941 H 0.05492 0.45642 0.99341 0.0
C942 C 0.11869 0.41631 0.03175 0.0
C943 C 0.10163 0.45076 0.02546 0.0
H944 H 0.06029 0.44885 0.03226 0.0
C945 C 0.10893 0.46546 0.01442 0.0
C946 C 0.08392 0.44471 0.03206 0.0
C947 C 0.07571 0.42948 0.04442 0.0
C948 C 0.09893 0.47421 0.00974 0.0
C949 C 0.08129 0.46813 0.0163 0.0
C950 C 0.0739 0.45341 0.02728 0.0
C951 C 0.07013 0.47679 0.01188 0.0
C952 C 0.10715 0.48991 0.99787 0.0
C953 C 0.07161 0.492 0.0207 0.0
C954 C 0.05834 0.49755 0.01881 0.0
C955 C 0.04367 0.48805 0.00795 0.0
C956 C 0.04325 0.474 0.99815 0.0
C957 C 0.05633 0.4683 0.00018 0.0
H958 H 0.12077 0.49254 0.99335 0.0
H959 H 0.09748 0.48652 0.98766 0.0
H960 H 0.109 0.50297 0.00351 0.0
H961 H 0.08218 0.49863 0.02982 0.0
H962 H 0.05858 0.50803 0.0268 0.0
H963 H 0.59384 0.71228 0.02816 0.0
H964 H 0.58279 0.679 0.02305 0.0
H965 H 0.52725 0.66553 0.03532 0.0
H966 H 0.53814 0.6985 0.04093 0.0
H967 H 0.56395 0.65003 0.04729 0.0
H968 H 0.52158 0.63692 0.99265 0.0
H969 H 0.53965 0.66007 -0.00141 0.0
H970 H 0.51744 0.64949 0.00814 0.0
C971 C 0.57926 0.70226 0.02974 0.0
C972 C 0.56692 0.70813 0.03507 0.0
C973 C 0.57297 0.68326 0.02672 0.0
C974 C 0.5542 0.66985 0.02877 0.0
C975 C 0.54175 0.67571 0.03347 0.0
H976 H 0.48703 0.55163 0.01117 0.0
H977 H 0.49733 0.58234 0.0234 0.0
C978 C 0.54802 0.69463 0.0366 0.0
C979 C 0.54771 0.64957 0.02719 0.0
H980 H 0.51785 0.6103 0.00635 0.0
C981 C 0.55389 0.64126 0.03833 0.0
C982 C 0.53461 0.63827 0.01553 0.0
C983 C 0.52801 0.64661 0.00294 0.0
C984 C 0.5468 0.62177 0.03849 0.0
C985 C 0.53346 0.61031 0.02689 0.0
C986 C 0.52767 0.61885 0.01552 0.0
C987 C 0.52617 0.58973 0.02534 0.0
C988 C 0.55341 0.61377 0.05136 0.0
C989 C 0.53847 0.58281 0.02388 0.0
C990 C 0.53229 0.56481 0.01779 0.0
C991 C 0.51396 0.55383 0.01229 0.0
C992 C 0.50115 0.55968 0.01557 0.0
C993 C 0.50718 0.57746 0.02223 0.0
H994 H 0.55731 0.62258 0.06231 0.0
H995 H 0.54269 0.59925 0.05445 0.0
H996 H 0.56602 0.61369 0.0472 0.0
H997 H 0.55321 0.59189 0.02575 0.0
H998 H 0.54252 0.56075 0.01505 0.0
H999 H 0.85689 0.29641 0.94418 0.0
H1000 H 0.87643 0.32995 0.95013 0.0
H1001 H 0.8908 0.31666 0.99564 0.0
H1002 H 0.87126 0.28292 0.98956 0.0
H1003 H 0.87241 0.34953 0.97705 0.0
H1004 H 0.94145 0.35416 0.97491 0.0
H1005 H 0.92095 0.3347 0.96622 0.0
H1006 H 0.92412 0.33639 0.9874 0.0
C1007 C 0.86434 0.30073 0.9554 0.0
C1008 C 0.86272 0.2873 0.96643 0.0
C1009 C 0.87542 0.3198 0.9588 0.0
C1010 C 0.88509 0.32577 0.97328 0.0
C1011 C 0.88359 0.31232 0.98432 0.0
H1012 H 0.94058 0.43711 0.01397 0.0
H1013 H 0.91626 0.40591 0.00606 0.0
C1014 C 0.87247 0.29314 0.98089 0.0
C1015 C 0.89641 0.34612 0.97672 0.0
H1016 H 0.941 0.3819 0.98082 0.0
C1017 C 0.88741 0.35666 0.97789 0.0
C1018 C 0.91595 0.3553 0.97778 0.0
C1019 C 0.92629 0.34466 0.97643 0.0
C1020 C 0.89748 0.37623 0.97996 0.0
C1021 C 0.91706 0.38547 0.98082 0.0
C1022 C 0.926 0.37485 0.97985 0.0
C1023 C 0.9287 0.406 0.98346 0.0
C1024 C 0.88713 0.38689 0.98089 0.0
C1025 C 0.94345 0.41687 0.97311 0.0
C1026 C 0.95763 0.43468 0.9778 0.0
C1027 C 0.95702 0.44191 0.99276 0.0
C1028 C 0.94104 0.43209 0.00212 0.0
C1029 C 0.92716 0.41411 0.99767 0.0
H1030 H 0.87269 0.37842 0.97634 0.0
H1031 H 0.88641 0.39056 0.99349 0.0
H1032 H 0.89439 0.40011 0.97405 0.0
H1033 H 0.94485 0.41089 0.96205 0.0
H1034 H 0.96997 0.44181 0.97055 0.0
H1035 H 0.69796 0.54525 0.95545 0.0
H1036 H 0.66537 0.5324 0.96242 0.0
H1037 H 0.67904 0.58363 0.98746 0.0
H1038 H 0.71175 0.5967 0.98033 0.0
H1039 H 0.64903 0.52571 0.99161 0.0
H1040 H 0.63719 0.5768 0.95822 0.0
H1041 H 0.65757 0.57472 0.95541 0.0
H1042 H 0.65606 0.58754 0.97219 0.0
C1043 C 0.69404 0.55374 0.96253 0.0
C1044 C 0.70739 0.57195 0.96741 0.0
C1045 C 0.67542 0.54641 0.96646 0.0
C1046 C 0.66977 0.55712 0.97532 0.0
C1047 C 0.68307 0.57527 0.98034 0.0
H1048 H 0.56449 0.53704 0.01067 0.0
H1049 H 0.59714 0.54538 0.00899 0.0
C1050 C 0.70173 0.58269 0.97631 0.0
C1051 C 0.64995 0.54911 0.9794 0.0
H1052 H 0.61295 0.55585 0.97508 0.0
C1053 C 0.64112 0.53227 0.98798 0.0
C1054 C 0.63965 0.55762 0.9745 0.0
C1055 C 0.64802 0.57506 0.96444 0.0
C1056 C 0.62228 0.52386 0.99198 0.0
C1057 C 0.61216 0.53258 0.98732 0.0
C1058 C 0.62092 0.54935 0.97874 0.0
C1059 C 0.59232 0.52457 0.99096 0.0
C1060 C 0.61327 0.50586 0.00125 0.0
C1061 C 0.57886 0.50971 0.98172 0.0
C1062 C 0.56025 0.50498 0.98266 0.0
C1063 C 0.55502 0.51498 0.99293 0.0
C1064 C 0.56829 0.52896 0.00291 0.0
C1065 C 0.58687 0.53375 0.00192 0.0
H1066 H 0.62349 0.50182 0.00533 0.0
H1067 H 0.60599 0.50727 0.01175 0.0
H1068 H 0.60274 0.49439 0.99365 0.0
H1069 H 0.58292 0.50268 0.97305 0.0
H1070 H 0.55018 0.49441 0.97466 0.0
H1071 H 0.4196 0.12245 0.94553 0.0
H1072 H 0.4342 0.10366 0.95116 0.0
H1073 H 0.44283 0.12262 -4e-05 0.0
H1074 H 0.42828 0.14168 0.99433 0.0
H1075 H 0.47315 0.12083 0.96514 0.0
H1076 H 0.41723 0.06251 -0.00014 0.0
H1077 H 0.41233 0.07641 0.98626 0.0
H1078 H 0.42355 0.08629 0.00489 0.0
C1079 C 0.42433 0.12239 0.95752 0.0
C1080 C 0.42279 0.13349 0.9695 0.0
C1081 C 0.43277 0.11176 0.96069 0.0
C1082 C 0.43961 0.11181 0.97594 0.0
C1083 C 0.43762 0.12242 0.9881 0.0
H1084 H 0.50132 0.0583 0.0075 0.0
H1085 H 0.49535 0.08363 0.00061 0.0
C1086 C 0.42936 0.13329 0.98488 0.0
C1087 C 0.44948 0.1013 0.97875 0.0
H1088 H 0.44419 0.0609 0.99469 0.0
C1089 C 0.46693 0.1078 0.97172 0.0
C1090 C 0.44128 0.08436 0.98734 0.0
C1091 C 0.42253 0.07681 0.99501 0.0
C1092 C 0.47626 0.09757 0.97283 0.0
C1093 C 0.46779 0.08036 0.98097 0.0
C1094 C 0.45055 0.07409 0.98833 0.0
C1095 C 0.47612 0.06814 0.98161 0.0
C1096 C 0.49485 0.10486 0.96501 0.0
C1097 C 0.46834 0.05163 0.97244 0.0
C1098 C 0.4718 0.03717 0.97632 0.0
C1099 C 0.48302 0.03903 0.98946 0.0
C1100 C 0.49298 0.05664 0.99705 0.0
C1101 C 0.4893 0.07103 0.99333 0.0
H1102 H 0.49954 0.11846 0.95897 0.0
H1103 H 0.50536 0.10672 0.97409 0.0
H1104 H 0.49409 0.09444 0.95615 0.0
H1105 H 0.45817 0.04921 0.9633 0.0
H1106 H 0.46371 0.02367 0.97047 0.0
H1107 H 0.69986 0.11566 0.94571 0.0
H1108 H 0.66767 0.09745 0.95434 0.0
H1109 H 0.68235 0.12754 -0.00097 0.0
H1110 H 0.71436 0.14663 0.9901 0.0
H1111 H 0.64965 0.07437 0.9781 0.0
H1112 H 0.64252 0.13755 0.98356 0.0
H1113 H 0.66253 0.1382 0.97472 0.0
H1114 H 0.66063 0.13884 0.99602 0.0
C1115 C 0.69623 0.11853 0.95733 0.0
C1116 C 0.70963 0.13295 0.96704 0.0
C1117 C 0.67784 0.10797 0.96231 0.0
C1118 C 0.67247 0.11154 0.97713 0.0
C1119 C 0.68606 0.12497 0.98732 0.0
H1120 H 0.56934 0.04932 0.02741 0.0
H1121 H 0.60151 0.07162 0.02001 0.0
C1122 C 0.70444 0.1357 0.98229 0.0
C1123 C 0.65259 0.10167 0.98164 0.0
H1124 H 0.61746 0.10909 0.99346 0.0
C1125 C 0.64263 0.08197 0.98144 0.0
C1126 C 0.64329 0.1116 0.98565 0.0
C1127 C 0.65273 0.1327 0.98484 0.0
C1128 C 0.62379 0.07199 0.98556 0.0
C1129 C 0.61479 0.08197 0.99016 0.0
C1130 C 0.62457 0.10158 0.99012 0.0
C1131 C 0.59519 0.07207 0.99513 0.0
C1132 C 0.6135 0.05083 0.98494 0.0
C1133 C 0.581 0.06607 0.98375 0.0
C1134 C 0.5626 0.05392 0.98807 0.0
C1135 C 0.55824 0.04738 0.00377 0.0
C1136 C 0.57229 0.05461 0.01537 0.0
C1137 C 0.59067 0.06704 0.01109 0.0
H1138 H 0.62271 0.04515 0.98179 0.0
H1139 H 0.60699 0.04508 0.99661 0.0
H1140 H 0.60219 0.04584 0.97595 0.0
H1141 H 0.58431 0.06974 0.97135 0.0
H1142 H 0.55211 0.04798 0.9788 0.0
H1143 H 0.85839 0.55847 0.94546 0.0
H1144 H 0.87756 0.54582 0.95465 0.0
H1145 H 0.88311 0.57155 0.00058 0.0
H1146 H 0.86486 0.5855 0.99126 0.0
H1147 H 0.91777 0.57088 0.97363 0.0
H1148 H 0.85875 0.50814 0.00146 0.0
H1149 H 0.85533 0.51982 0.98476 0.0
H1150 H 0.86073 0.53089 0.00395 0.0
C1151 C 0.86397 0.56195 0.95741 0.0
C1152 C 0.86007 0.57328 0.96752 0.0
C1153 C 0.8748 0.55447 0.96268 0.0
C1154 C 0.88166 0.55774 0.97825 0.0
C1155 C 0.87786 0.56889 0.98848 0.0
H1156 H 0.95341 0.52411 0.02519 0.0
H1157 H 0.92982 0.53322 0.02056 0.0
C1158 C 0.86725 0.57669 0.98315 0.0
C1159 C 0.89248 0.54908 0.98378 0.0
H1160 H 0.88805 0.5102 0.00227 0.0
C1161 C 0.91136 0.55771 0.98002 0.0
C1162 C 0.88393 0.53181 0.99191 0.0
C1163 C 0.86355 0.52196 0.99579 0.0
C1164 C 0.92196 0.54943 0.98421 0.0
C1165 C 0.91338 0.53209 0.99228 0.0
C1166 C 0.89453 0.52353 0.99614 0.0
C1167 C 0.92393 0.52262 0.99642 0.0
C1168 C 0.94223 0.55911 0.97983 0.0
C1169 C 0.92745 0.51264 0.98471 0.0
C1170 C 0.94041 0.50692 0.98753 0.0
C1171 C 0.9502 0.51131 0.00201 0.0
C1172 C 0.94558 0.51999 0.01416 0.0
C1173 C 0.93236 0.52546 0.01143 0.0
H1174 H 0.94729 0.5735 0.97527 0.0
H1175 H 0.95075 0.55994 0.9903 0.0
H1176 H 0.94435 0.5508 0.97048 0.0
H1177 H 0.92118 0.51048 0.97302 0.0
H1178 H 0.94427 0.50092 0.97777 0.0
H1179 H 0.39823 0.28771 0.96853 0.0
H1180 H 0.41174 0.3214 0.97432 0.0
H1181 H 0.46473 0.32572 0.98352 0.0
H1182 H 0.45124 0.29212 0.97773 0.0
H1183 H 0.4346 0.3465 0.00154 0.0
H1184 H 0.47123 0.35966 0.94371 0.0
H1185 H 0.45165 0.33717 0.94881 0.0
H1186 H 0.47415 0.34434 0.95707 0.0
C1187 C 0.41261 0.29582 0.97224 0.0
C1188 C 0.42377 0.28752 0.97278 0.0
C1189 C 0.42031 0.31499 0.9755 0.0
C1190 C 0.43927 0.32601 0.97912 0.0
C1191 C 0.45011 0.31743 0.98062 0.0
H1192 H 0.50807 0.44127 0.00538 0.0
H1193 H 0.49803 0.40934 0.99625 0.0
C1194 C 0.44241 0.2983 0.97741 0.0
C1195 C 0.44817 0.34669 0.97974 0.0
H1196 H 0.47871 0.38627 0.95977 0.0
C1197 C 0.4442 0.35521 0.99242 0.0
C1198 C 0.46052 0.35795 0.96768 0.0
C1199 C 0.46458 0.34938 0.95345 0.0
C1200 C 0.4527 0.37483 0.99355 0.0
C1201 C 0.46534 0.38605 0.98164 0.0
C1202 C 0.46907 0.37755 0.96886 0.0
C1203 C 0.47484 0.40671 0.98258 0.0
C1204 C 0.44824 0.38354 0.00746 0.0
C1205 C 0.46617 0.41627 0.97659 0.0
C1206 C 0.47228 0.43474 0.98143 0.0
C1207 C 0.48666 0.44346 0.99267 0.0
C1208 C 0.4971 0.43491 0.99656 0.0
C1209 C 0.49111 0.41651 0.99164 0.0
H1210 H 0.43824 0.37285 0.01579 0.0
H1211 H 0.46115 0.39307 0.0141 0.0
H1212 H 0.44228 0.3921 0.00307 0.0
H1213 H 0.45362 0.40888 0.96952 0.0
H1214 H 0.46384 0.44093 0.97846 0.0
H1215 H 0.12068 0.6971 0.05991 0.0
H1216 H 0.10095 0.66414 0.05281 0.0
H1217 H 0.12394 0.67528 0.00557 0.0
H1218 H 0.14449 0.70829 0.01285 0.0
H1219 H 0.07466 0.64466 0.02987 0.0
H1220 H 0.13622 0.63615 0.02101 0.0
H1221 H 0.13805 0.65712 0.02963 0.0
H1222 H 0.13508 0.65314 0.00851 0.0
C1223 C 0.12161 0.69257 0.048 0.0
C1224 C 0.13458 0.70523 0.0371 0.0
C1225 C 0.11019 0.67373 0.04392 0.0
C1226 C 0.11139 0.66713 0.02883 0.0
C1227 C 0.12322 0.67999 0.01745 0.0
H1228 H 0.06097 0.55791 0.98655 0.0
H1229 H 0.08394 0.58896 0.99598 0.0
C1230 C 0.1348 0.69889 0.02157 0.0
C1231 C 0.10103 0.64666 0.02551 0.0
H1232 H 0.10694 0.60933 0.01726 0.0
C1233 C 0.08167 0.63689 0.0271 0.0
C1234 C 0.11024 0.63659 0.02189 0.0
C1235 C 0.13105 0.64622 0.02027 0.0
C1236 C 0.07121 0.61737 0.0249 0.0
C1237 C 0.0805 0.60718 0.02167 0.0
C1238 C 0.09986 0.61703 0.02002 0.0
C1239 C 0.07024 0.58663 0.01845 0.0
C1240 C 0.05032 0.60809 0.02548 0.0
C1241 C 0.05626 0.57405 0.02872 0.0
C1242 C 0.04303 0.55619 0.02323 0.0
C1243 C 0.04383 0.55092 0.00752 0.0
C1244 C 0.06 0.56183 -0.0013 0.0
C1245 C 0.07298 0.57979 0.00398 0.0
H1246 H 0.04552 0.61837 0.02376 0.0
H1247 H 0.04369 0.597 0.01621 0.0
H1248 H 0.0454 0.60161 0.03731 0.0
H1249 H 0.05446 0.57865 0.04033 0.0
H1250 H 0.03074 0.54792 0.03029 0.0
H1251 H 0.29711 0.45453 0.05066 0.0
H1252 H 0.32909 0.46757 0.04166 0.0
H1253 H 0.31326 0.41741 0.0141 0.0
H1254 H 0.28106 0.40424 0.02306 0.0
H1255 H 0.35157 0.45133 0.04663 0.0
H1256 H 0.34254 0.46039 0.98238 0.0
H1257 H 0.32542 0.45718 0.9971 0.0
H1258 H 0.32726 0.43747 0.99026 0.0
C1259 C 0.30044 0.4463 0.04264 0.0
C1260 C 0.28667 0.42836 0.03757 0.0
C1261 C 0.31867 0.45379 0.03749 0.0
C1262 C 0.32346 0.44353 0.02712 0.0
C1263 C 0.30973 0.42568 0.02187 0.0
H1264 H 0.42433 0.45424 0.99262 0.0
H1265 H 0.39246 0.44765 0.99596 0.0
C1266 C 0.2914 0.41818 0.02699 0.0
C1267 C 0.34304 0.4513 0.02246 0.0
H1268 H 0.37217 0.46602 0.9906 0.0
C1269 C 0.35614 0.4547 0.03441 0.0
C1270 C 0.34884 0.45559 0.0065 0.0
C1271 C 0.33534 0.45263 0.99329 0.0
C1272 C 0.37492 0.4619 0.03078 0.0
C1273 C 0.38076 0.46624 0.0148 0.0
C1274 C 0.36766 0.46293 0.00286 0.0
C1275 C 0.4001 0.4725 0.01014 0.0
C1276 C 0.38819 0.46412 0.04399 0.0
C1277 C 0.41497 0.48924 0.01622 0.0
C1278 C 0.43324 0.49312 0.01414 0.0
C1279 C 0.43668 0.48031 0.00595 0.0
C1280 C 0.42191 0.46441 -0.00121 0.0
C1281 C 0.40374 0.46059 0.00078 0.0
H1282 H 0.3808 0.45654 0.05491 0.0
H1283 H 0.39752 0.45883 0.04018 0.0
H1284 H 0.39691 0.4792 0.04707 0.0
H1285 H 0.4124 0.49871 0.02332 0.0
H1286 H 0.44446 0.50527 0.02 0.0
H1287 H 0.58058 0.86928 0.01488 0.0
H1288 H 0.56617 0.88745 0.00606 0.0
H1289 H 0.53828 0.87784 0.05104 0.0
H1290 H 0.55147 0.85891 0.05964 0.0
H1291 H 0.51962 0.87004 0.01183 0.0
H1292 H 0.57188 0.93942 0.03703 0.0
H1293 H 0.57825 0.92273 0.0297 0.0
H1294 H 0.56605 0.91851 0.04812 0.0
C1295 C 0.57125 0.87086 0.02286 0.0
C1296 C 0.56738 0.86265 0.03807 0.0
C1297 C 0.56318 0.88138 0.01783 0.0
C1298 C 0.55132 0.88402 0.02799 0.0
C1299 C 0.54754 0.87604 0.04312 0.0
H1300 H 0.50796 0.95939 0.02665 0.0
H1301 H 0.51385 0.93457 0.03548 0.0
C1302 C 0.55532 0.86536 0.04805 0.0
C1303 C 0.54209 0.89446 0.02288 0.0
H1304 H 0.5442 0.93665 0.02702 0.0
C1305 C 0.52497 0.88465 0.01501 0.0
C1306 C 0.54905 0.91334 0.02735 0.0
C1307 C 0.56735 0.92427 0.03598 0.0
C1308 C 0.51432 0.89316 0.01173 0.0
C1309 C 0.52126 0.91218 0.01614 0.0
C1310 C 0.53862 0.92201 0.02385 0.0
C1311 C 0.51165 0.92276 0.01193 0.0
C1312 C 0.49555 0.88137 0.00404 0.0
C1313 C 0.50668 0.92331 0.99607 0.0
C1314 C 0.50237 0.93685 0.99122 0.0
C1315 C 0.50398 0.95077 0.00193 0.0
C1316 C 0.50648 0.94878 0.01815 0.0
C1317 C 0.51028 0.93482 0.02313 0.0
H1318 H 0.48941 0.86638 0.00732 0.0
H1319 H 0.48572 0.88617 0.00747 0.0
H1320 H 0.49716 0.8822 0.99092 0.0
H1321 H 0.50795 0.91459 0.98706 0.0
H1322 H 0.50063 0.9382 0.9786 0.0
H1323 H 0.96612 0.1924 0.39282 0.0
H1324 H -0.00099 0.21129 0.38567 0.0
H1325 H 0.98338 0.2162 0.33777 0.0
H1326 H 0.95041 0.1971 0.34491 0.0
H1327 H 0.01704 0.20207 0.36023 0.0
H1328 H 0.02115 0.27118 0.35308 0.0
H1329 H 0.00304 0.25226 0.36429 0.0
H1330 H 0.0022 0.25167 0.34296 0.0
C1331 C 0.9698 0.19769 0.38082 0.0
C1332 C 0.95597 0.19349 0.36938 0.0
C1333 C 0.98849 0.20837 0.37675 0.0
C1334 C 0.99355 0.21517 0.36123 0.0
C1335 C 0.97969 0.21119 0.34983 0.0
H1336 H 0.10226 0.28901 0.32095 0.0
H1337 H 0.06969 0.26389 0.32253 0.0
C1338 C 0.96097 0.20031 0.35387 0.0
C1339 C 0.01336 0.22593 0.3569 0.0
H1340 H 0.04774 0.26947 0.34627 0.0
C1341 C 0.02377 0.21679 0.35709 0.0
C1342 C 0.02203 0.24511 0.35293 0.0
C1343 C 0.01164 0.25576 0.35339 0.0
C1344 C 0.04272 0.22638 0.35333 0.0
C1345 C 0.05139 0.24556 0.34935 0.0
C1346 C 0.04092 0.25464 0.34903 0.0
C1347 C 0.07164 0.25707 0.34701 0.0
C1348 C 0.05336 0.21599 0.35371 0.0
C1349 C 0.08358 0.26092 0.36003 0.0
C1350 C 0.10202 0.27523 0.35915 0.0
C1351 C 0.10881 0.28576 0.34521 0.0
C1352 C 0.09736 0.2808 0.3317 0.0
C1353 C 0.07878 0.26661 0.33265 0.0
H1354 H 0.04396 0.20057 0.35296 0.0
H1355 H 0.06344 0.22045 0.34379 0.0
H1356 H 0.06124 0.21923 0.36505 0.0
H1357 H 0.07828 0.25393 0.37128 0.0
H1358 H 0.11061 0.27904 0.36975 0.0
H1359 H 0.82116 0.77698 0.35109 0.0
H1360 H 0.80286 0.79158 0.34415 0.0
H1361 H 0.76122 0.75664 0.37809 0.0
H1362 H 0.78001 0.74286 0.38596 0.0
H1363 H 0.76821 0.77879 0.33267 0.0
H1364 H 0.77391 0.8082 0.39328 0.0
H1365 H 0.78727 0.79747 0.3872 0.0
H1366 H 0.76337 0.78316 0.39289 0.0
C1367 C 0.8082 0.7725 0.35723 0.0
C1368 C 0.80235 0.75907 0.3694 0.0
C1369 C 0.79767 0.78075 0.35312 0.0
C1370 C 0.781 0.77564 0.36096 0.0
C1371 C 0.77438 0.76125 0.37226 0.0
H1372 H 0.69095 0.78901 0.36381 0.0
H1373 H 0.71812 0.78638 0.36693 0.0
C1374 C 0.78503 0.75316 0.37656 0.0
C1375 C 0.77084 0.78575 0.3576 0.0
H1376 H 0.75276 0.81029 0.37545 0.0
C1377 C 0.76499 0.7859 0.34195 0.0
C1378 C 0.76698 0.79528 0.36971 0.0
C1379 C 0.77336 0.7962 0.38668 0.0
C1380 C 0.75417 0.79411 0.3383 0.0
C1381 C 0.74949 0.80278 0.35059 0.0
C1382 C 0.75648 0.80377 0.366 0.0
C1383 C 0.73398 0.8066 0.34878 0.0
C1384 C 0.74679 0.79232 0.3216 0.0
C1385 C 0.7338 0.81924 0.33761 0.0
C1386 C 0.71771 0.82062 0.33552 0.0
C1387 C 0.70179 0.80928 0.34456 0.0
C1388 C 0.70265 0.79752 0.3562 0.0
C1389 C 0.71838 0.79615 0.35821 0.0
H1390 H 0.75003 0.7833 0.31394 0.0
H1391 H 0.73152 0.78632 0.32174 0.0
H1392 H 0.75309 0.80643 0.31617 0.0
H1393 H 0.7459 0.82775 0.33042 0.0
H1394 H 0.71758 0.83006 0.32668 0.0
H1395 H 0.20483 0.03422 0.36834 0.0
H1396 H 0.19294 0.0013 0.36201 0.0
H1397 H 0.24854 0.01031 0.36166 0.0
H1398 H 0.2609 0.04374 0.36712 0.0
H1399 H 0.20908 0.98368 0.33447 0.0
H1400 H 0.21158 0.96921 0.39884 0.0
H1401 H 0.20914 0.98882 0.39257 0.0
H1402 H 0.23069 0.98934 0.38963 0.0
C1403 C 0.21471 0.02952 0.36647 0.0
C1404 C 0.23392 0.04184 0.3684 0.0
C1405 C 0.2078 0.01057 0.36298 0.0
C1406 C 0.21986 0.00344 0.36155 0.0
C1407 C 0.23904 0.01563 0.36283 0.0
H1408 H 0.19563 0.88859 0.35724 0.0
H1409 H 0.20615 0.92043 0.36671 0.0
C1410 C 0.24603 0.0347 0.36612 0.0
C1411 C 0.21209 0.98299 0.3598 0.0
H1412 H 0.19734 0.94317 0.38155 0.0
C1413 C 0.20654 0.97476 0.34471 0.0
C1414 C 0.20911 0.97157 0.37318 0.0
C1415 C 0.21539 0.98004 0.38954 0.0
C1416 C 0.19785 0.95523 0.34266 0.0
C1417 C 0.19386 0.9436 0.35621 0.0
C1418 C 0.19993 0.95199 0.37125 0.0
C1419 C 0.18436 0.92281 0.35478 0.0
C1420 C 0.19354 0.94737 0.32593 0.0
C1421 C 0.16744 0.9128 0.34654 0.0
C1422 C 0.16144 0.89455 0.34112 0.0
C1423 C 0.1722 0.88612 0.34405 0.0
C1424 C 0.18702 0.89475 0.3549 0.0
C1425 C 0.19328 0.91316 0.36004 0.0
H1426 H 0.2022 0.95812 0.31703 0.0
H1427 H 0.19586 0.93527 0.32461 0.0
H1428 H 0.1788 0.94256 0.32312 0.0
H1429 H 0.15986 0.9197 0.34294 0.0
H1430 H 0.15 0.88822 0.33273 0.0
H1431 H 0.55494 0.6185 0.30327 0.0
H1432 H 0.57594 0.65197 0.30821 0.0
H1433 H 0.52948 0.66134 0.3084 0.0
H1434 H 0.50851 0.62842 0.30242 0.0
H1435 H 0.5742 0.68169 0.28523 0.0
H1436 H 0.5652 0.68867 0.34991 0.0
H1437 H 0.56224 0.6673 0.34098 0.0
H1438 H 0.5445 0.67343 0.33873 0.0
C1439 C 0.5491 0.62762 0.30426 0.0
C1440 C 0.52989 0.62056 0.30219 0.0
C1441 C 0.56116 0.64673 0.30726 0.0
C1442 C 0.55419 0.65903 0.30865 0.0
C1443 C 0.53506 0.65198 0.30746 0.0
H1444 H 0.59127 0.77281 0.3318 0.0
H1445 H 0.57264 0.74098 0.3214 0.0
C1446 C 0.52305 0.63302 0.30416 0.0
C1447 C 0.56676 0.67952 0.30992 0.0
H1448 H 0.57933 0.71665 0.33493 0.0
C1449 C 0.57552 0.68944 0.2961 0.0
C1450 C 0.56841 0.68941 0.32412 0.0
C1451 C 0.55973 0.67924 0.33936 0.0
C1452 C 0.5851 0.70915 0.29587 0.0
C1453 C 0.58618 0.71917 0.30996 0.0
C1454 C 0.57811 0.70909 0.32398 0.0
C1455 C 0.59587 0.74005 0.31081 0.0
C1456 C 0.59329 0.7189 0.28037 0.0
C1457 C 0.61466 0.75094 0.30667 0.0
C1458 C 0.62503 0.76962 0.31178 0.0
C1459 C 0.6171 0.77704 0.32218 0.0
C1460 C 0.59776 0.7674 0.32386 0.0
C1461 C 0.5872 0.74893 0.31832 0.0
H1462 H 0.58602 0.70965 0.27002 0.0
H1463 H 0.59264 0.73198 0.27923 0.0
H1464 H 0.60803 0.72253 0.27984 0.0
H1465 H 0.62186 0.74457 0.30105 0.0
H1466 H 0.63996 0.77677 0.3103 0.0
H1467 H 0.36857 0.9219 0.28324 0.0
H1468 H 0.33581 0.90812 0.29005 0.0
H1469 H 0.34344 0.87937 0.32949 0.0
H1470 H 0.37637 0.89367 0.32319 0.0
H1471 H 0.31173 0.86946 0.28981 0.0
H1472 H 0.31219 0.89984 0.34902 0.0
H1473 H 0.33206 0.90995 0.33604 0.0
H1474 H 0.3268 0.88961 0.34763 0.0
C1475 C 0.36343 0.91308 0.29364 0.0
C1476 C 0.37509 0.90878 0.30261 0.0
C1477 C 0.34467 0.90511 0.29744 0.0
C1478 C 0.33723 0.89278 0.3103 0.0
C1479 C 0.34895 0.88905 0.31965 0.0
H1480 H 0.22272 0.83719 0.34548 0.0
H1481 H 0.25442 0.84247 0.34158 0.0
C1482 C 0.36772 0.89705 0.3159 0.0
C1483 C 0.31696 0.88243 0.31297 0.0
H1484 H 0.28345 0.87501 0.33991 0.0
C1485 C 0.30551 0.8706 0.30078 0.0
C1486 C 0.30896 0.88375 0.32738 0.0
C1487 C 0.3206 0.89659 0.34073 0.0
C1488 C 0.28622 0.8601 0.30253 0.0
C1489 C 0.27804 0.86188 0.31675 0.0
C1490 C 0.28961 0.87338 0.32911 0.0
C1491 C 0.25776 0.85455 0.31811 0.0
C1492 C 0.27496 0.84727 0.289 0.0
C1493 C 0.2489 0.85885 0.30608 0.0
C1494 C 0.23092 0.85524 0.30805 0.0
C1495 C 0.22151 0.84818 0.32246 0.0
C1496 C 0.22972 0.84272 0.33429 0.0
C1497 C 0.24783 0.84588 0.33209 0.0
H1498 H 0.28266 0.84115 0.28308 0.0
H1499 H 0.26138 0.83566 0.29304 0.0
H1500 H 0.27256 0.85554 0.27987 0.0
H1501 H 0.25621 0.86617 0.29547 0.0
H1502 H 0.22483 0.85929 0.29857 0.0
H1503 H 0.09498 0.46422 0.27829 0.0
H1504 H 0.10969 0.44543 0.28384 0.0
H1505 H 0.1014 0.44884 0.33409 0.0
H1506 H 0.08696 0.4681 0.32853 0.0
H1507 H 0.14284 0.45781 0.30726 0.0
H1508 H 0.07829 0.39042 0.32006 0.0
H1509 H 0.07791 0.40855 0.30833 0.0
H1510 H 0.08159 0.41165 0.32939 0.0
C1511 C 0.0962 0.46082 0.29049 0.0
C1512 C 0.08983 0.46744 0.303 0.0
C1513 C 0.10466 0.45022 0.29365 0.0
C1514 C 0.10662 0.44581 0.30934 0.0
C1515 C 0.1 0.45215 0.3219 0.0
H1516 H 0.16503 0.39193 0.34587 0.0
H1517 H 0.15859 0.41651 0.33785 0.0
C1518 C 0.09178 0.46307 0.31874 0.0
C1519 C 0.11572 0.43462 0.31238 0.0
H1520 H 0.10645 0.39028 0.32064 0.0
C1521 C 0.13497 0.44306 0.31026 0.0
C1522 C 0.10531 0.41543 0.31624 0.0
C1523 C 0.08461 0.40582 0.31861 0.0
C1524 C 0.1441 0.43267 0.31177 0.0
C1525 C 0.13364 0.41336 0.31531 0.0
C1526 C 0.11441 0.40503 0.31764 0.0
C1527 C 0.1422 0.40141 0.31725 0.0
C1528 C 0.16477 0.44228 0.30923 0.0
C1529 C 0.13595 0.38513 0.30789 0.0
C1530 C 0.1395 0.37093 0.31258 0.0
C1531 C 0.14949 0.37296 0.32659 0.0
C1532 C 0.1578 0.39028 0.33472 0.0
C1533 C 0.15394 0.4043 0.33024 0.0
H1534 H 0.17027 0.45636 0.30386 0.0
H1535 H 0.17183 0.44407 0.32085 0.0
H1536 H 0.16832 0.4336 0.30145 0.0
H1537 H 0.1269 0.38267 0.29779 0.0
H1538 H 0.13265 0.3576 0.30632 0.0
H1539 H 0.36334 0.47362 0.2793 0.0
H1540 H 0.33157 0.45453 0.28838 0.0
H1541 H 0.35104 0.44192 0.33149 0.0
H1542 H 0.38311 0.46022 0.32216 0.0
H1543 H 0.31453 0.41279 0.30021 0.0
H1544 H 0.31512 0.46589 0.34201 0.0
H1545 H 0.33046 0.47251 0.32511 0.0
H1546 H 0.33456 0.46189 0.342 0.0
C1547 C 0.36101 0.46655 0.29059 0.0
C1548 C 0.37594 0.46838 0.2999 0.0
C1549 C 0.34279 0.4558 0.29581 0.0
C1550 C 0.33907 0.44695 0.31058 0.0
C1551 C 0.35376 0.44879 0.32006 0.0
H1552 H 0.23319 0.37149 0.35425 0.0
H1553 H 0.266 0.39531 0.35076 0.0
C1554 C 0.37207 0.45937 0.31474 0.0
C1555 C 0.31968 0.43566 0.31587 0.0
H1556 H 0.28699 0.43721 0.3393 0.0
C1557 C 0.3085 0.41803 0.30883 0.0
C1558 C 0.31197 0.4427 0.32703 0.0
C1559 C 0.32353 0.46182 0.33451 0.0
C1560 C 0.28966 0.40719 0.31265 0.0
C1561 C 0.28185 0.41436 0.32363 0.0
C1562 C 0.29309 0.43187 0.33087 0.0
C1563 C 0.26191 0.40369 0.32747 0.0
C1564 C 0.2782 0.38817 0.30492 0.0
C1565 C 0.24877 0.40147 0.31594 0.0
C1566 C 0.2301 0.38817 0.31804 0.0
C1567 C 0.22438 0.377 0.33169 0.0
C1568 C 0.23727 0.38036 0.34384 0.0
C1569 C 0.25598 0.39376 0.34178 0.0
H1570 H 0.28698 0.3833 0.299 0.0
H1571 H 0.26932 0.3776 0.31384 0.0
H1572 H 0.26895 0.38893 0.2958 0.0
H1573 H 0.25314 0.40903 0.30483 0.0
H1574 H 0.22044 0.38539 0.30835 0.0
H1575 H 0.54464 0.9311 0.31589 0.0
H1576 H 0.56416 0.91811 0.32463 0.0
H1577 H 0.52638 0.8654 0.30192 0.0
H1578 H 0.50717 0.87836 0.29299 0.0
H1579 H 0.55503 0.88595 0.3433 0.0
H1580 H 0.57651 0.8787 0.28246 0.0
H1581 H 0.56649 0.89322 0.28691 0.0
H1582 H 0.55188 0.86825 0.2848 0.0
C1583 C 0.54051 0.91671 0.31291 0.0
C1584 C 0.52454 0.90574 0.30368 0.0
C1585 C 0.55165 0.90934 0.31783 0.0
C1586 C 0.54687 0.89091 0.31364 0.0
C1587 C 0.53056 0.87979 0.30493 0.0
H1588 H 0.60205 0.8251 0.32194 0.0
H1589 H 0.5774 0.83316 0.31945 0.0
C1590 C 0.51957 0.88717 0.29991 0.0
C1591 C 0.55878 0.88309 0.31834 0.0
H1592 H 0.58362 0.86391 0.30318 0.0
C1593 C 0.56133 0.88115 0.33456 0.0
C1594 C 0.56696 0.87686 0.30688 0.0
C1595 C 0.5655 0.8795 0.28929 0.0
C1596 C 0.57154 0.87275 0.33966 0.0
C1597 C 0.57963 0.86639 0.32821 0.0
C1598 C 0.57711 0.86843 0.31197 0.0
C1599 C 0.59228 0.85927 0.33265 0.0
C1600 C 0.57331 0.87057 0.35727 0.0
C1601 C 0.60844 0.87086 0.34139 0.0
C1602 C 0.62226 0.86613 0.34298 0.0
C1603 C 0.6203 0.84981 0.33578 0.0
C1604 C 0.60364 0.83749 0.32796 0.0
C1605 C 0.5897 0.84223 0.32637 0.0
H1606 H 0.56142 0.86983 0.36389 0.0
H1607 H 0.57413 0.8578 0.35986 0.0
H1608 H 0.58612 0.88298 0.3618 0.0
H1609 H 0.61105 0.88429 0.34597 0.0
H1610 H 0.63519 0.87604 0.34875 0.0
H1611 H 0.10555 0.62049 0.32476 0.0
H1612 H 0.11965 0.65387 0.33189 0.0
H1613 H 0.0909 0.66189 0.2927 0.0
H1614 H 0.07664 0.6287 0.28575 0.0
H1615 H 0.14306 0.68228 0.31154 0.0
H1616 H 0.08375 0.69131 0.32815 0.0
H1617 H 0.0822 0.66865 0.32761 0.0
H1618 H 0.07983 0.67899 0.3096 0.0
C1619 C 0.10187 0.62931 0.31798 0.0
C1620 C 0.09016 0.62211 0.30463 0.0
C1621 C 0.11 0.64836 0.32199 0.0
C1622 C 0.10628 0.66034 0.31285 0.0
C1623 C 0.09377 0.65288 0.30006 0.0
H1624 H 0.13958 0.77631 0.30646 0.0
H1625 H 0.13247 0.74498 0.29787 0.0
C1626 C 0.08575 0.63395 0.29602 0.0
C1627 C 0.11684 0.68093 0.3154 0.0
H1628 H 0.11148 0.71906 0.32028 0.0
C1629 C 0.13621 0.69036 0.31361 0.0
C1630 C 0.10788 0.6914 0.31812 0.0
C1631 C 0.08729 0.68205 0.32115 0.0
C1632 C 0.14677 0.71005 0.31378 0.0
C1633 C 0.1377 0.72054 0.31589 0.0
C1634 C 0.11839 0.71104 0.31818 0.0
C1635 C 0.14782 0.74134 0.31697 0.0
C1636 C 0.16744 0.7194 0.31135 0.0
C1637 C 0.16036 0.7504 0.32951 0.0
C1638 C 0.16489 0.76855 0.33406 0.0
C1639 C 0.15638 0.77751 0.32652 0.0
C1640 C 0.14644 0.76976 0.31238 0.0
C1641 C 0.14204 0.75166 0.30769 0.0
H1642 H 0.17136 0.70994 0.30516 0.0
H1643 H 0.17265 0.73249 0.30439 0.0
H1644 H 0.17448 0.72307 0.32312 0.0
H1645 H 0.16487 0.74276 0.33699 0.0
H1646 H 0.17242 0.77416 0.34512 0.0
H1647 H 0.81211 0.04308 0.34492 0.0
H1648 H 0.7917 0.01017 0.33717 0.0
H1649 H 0.76942 -0.00217 0.38467 0.0
H1650 H 0.78887 0.03057 0.3922 0.0
H1651 H 0.79332 0.9809 0.34997 0.0
H1652 H 0.7229 0.96988 0.35895 0.0
H1653 H 0.74309 0.99301 0.35811 0.0
H1654 H 0.73696 0.97991 0.37635 0.0
C1655 C 0.80249 0.03344 0.35356 0.0
C1656 C 0.80231 0.0394 0.36925 0.0
C1657 C 0.79092 0.01463 0.34915 0.0
C1658 C 0.77894 0.00154 0.36032 0.0
C1659 C 0.77826 0.00768 0.37575 0.0
H1660 H 0.69974 0.88407 0.36438 0.0
H1661 H 0.7247 0.91497 0.3729 0.0
C1662 C 0.78964 0.02639 0.38011 0.0
C1663 C 0.76849 0.98119 0.35654 0.0
H1664 H 0.72566 0.94232 0.35909 0.0
C1665 C 0.77848 0.97241 0.35185 0.0
C1666 C 0.74917 0.97017 0.359 0.0
C1667 C 0.7374 0.97878 0.36322 0.0
C1668 C 0.76988 0.95282 0.35029 0.0
C1669 C 0.75057 0.94166 0.35319 0.0
C1670 C 0.74053 0.95063 0.35735 0.0
C1671 C 0.73996 0.92089 0.3508 0.0
C1672 C 0.78184 0.94447 0.34601 0.0
C1673 C 0.74127 0.91302 0.33635 0.0
C1674 C 0.72774 0.89486 0.33207 0.0
C1675 C 0.71194 0.88478 0.34156 0.0
C1676 C 0.71186 0.89144 0.35691 0.0
C1677 C 0.72592 0.90937 0.36157 0.0
H1678 H 0.79625 0.95339 0.35049 0.0
H1679 H 0.77626 0.93015 0.35087 0.0
H1680 H 0.78264 0.94382 0.33287 0.0
H1681 H 0.75146 0.92146 0.32755 0.0
H1682 H 0.72798 0.8901 0.32007 0.0
H1683 H 0.94837 0.7683 0.34796 0.0
H1684 H 0.97996 0.78052 0.33809 0.0
H1685 H 0.99498 0.76385 0.38163 0.0
H1686 H 0.9633 0.75079 0.39121 0.0
H1687 H 0.01118 0.80899 0.35139 0.0
H1688 H 0.01713 0.74494 0.34927 0.0
H1689 H -0.00492 0.74391 0.35147 0.0
H1690 H 0.01008 0.74867 0.36843 0.0
C1691 C 0.95827 0.7668 0.35525 0.0
C1692 C 0.95335 0.75867 0.37041 0.0
C1693 C 0.97635 0.77392 0.34965 0.0
C1694 C 0.98979 0.77297 0.35907 0.0
C1695 C 0.98478 0.76445 0.37402 0.0
H1696 H 0.10572 0.82213 0.36589 0.0
H1697 H 0.07384 0.81567 0.36864 0.0
C1698 C 0.96671 0.75721 0.37958 0.0
C1699 C 0.00933 0.78205 0.35379 0.0
H1700 H 0.04561 0.77435 0.34854 0.0
C1701 C 0.01864 0.80136 0.35051 0.0
C1702 C 0.01905 0.77207 0.35272 0.0
C1703 C 0.00976 0.75122 0.35551 0.0
C1704 C 0.03758 0.81106 0.34671 0.0
C1705 C 0.0473 0.80115 0.34607 0.0
C1706 C 0.03796 0.78182 0.34897 0.0
C1707 C 0.06749 0.81056 0.34355 0.0
C1708 C 0.0473 0.83187 0.34378 0.0
C1709 C 0.07462 0.81066 0.32841 0.0
C1710 C 0.09293 0.81445 0.32679 0.0
C1711 C 0.10406 0.81805 0.34036 0.0
C1712 C 0.09738 0.81962 0.35527 0.0
C1713 C 0.0792 0.81591 0.35686 0.0
H1714 H 0.03762 0.83747 0.34419 0.0
H1715 H 0.05832 0.83927 0.35289 0.0
H1716 H 0.05414 0.83497 0.33198 0.0
H1717 H 0.06562 0.80638 0.31805 0.0
H1718 H 0.09777 0.8129 0.31525 0.0
H1719 H 0.21301 0.17379 0.35389 0.0
H1720 H 0.19862 0.19261 0.34689 0.0
H1721 H 0.24082 0.23927 0.37382 0.0
H1722 H 0.25506 0.22048 0.38092 0.0
H1723 H 0.18527 0.20745 0.37137 0.0
H1724 H 0.23621 0.26318 0.33197 0.0
H1725 H 0.23557 0.24113 0.33483 0.0
H1726 H 0.24629 0.25948 0.34951 0.0
C1727 C 0.21944 0.18823 0.35791 0.0
C1728 C 0.23507 0.19576 0.36794 0.0
C1729 C 0.2112 0.19891 0.35399 0.0
C1730 C 0.2187 0.21731 0.35982 0.0
C1731 C 0.23494 0.22516 0.36907 0.0
H1732 H 0.19401 0.30582 0.36303 0.0
H1733 H 0.20122 0.28211 0.37232 0.0
C1734 C 0.24302 0.21444 0.37315 0.0
C1735 C 0.2086 0.22771 0.35781 0.0
H1736 H 0.21335 0.26868 0.34388 0.0
C1737 C 0.19128 0.22075 0.36522 0.0
C1738 C 0.21651 0.24501 0.34979 0.0
C1739 C 0.23459 0.2526 0.34093 0.0
C1740 C 0.18195 0.23102 0.36525 0.0
C1741 C 0.19018 0.24861 0.35772 0.0
C1742 C 0.20727 0.25533 0.34996 0.0
C1743 C 0.18111 0.26012 0.357 0.0
C1744 C 0.16362 0.22331 0.37364 0.0
C1745 C 0.16628 0.25507 0.34644 0.0
C1746 C 0.16201 0.26859 0.3413 0.0
C1747 C 0.1728 0.2873 0.34642 0.0
C1748 C 0.18536 0.29145 0.35902 0.0
C1749 C 0.18975 0.27798 0.36411 0.0
H1750 H 0.16037 0.21079 0.38086 0.0
H1751 H 0.16366 0.23422 0.38151 0.0
H1752 H 0.15241 0.21928 0.36469 0.0
H1753 H 0.15949 0.24137 0.34077 0.0
H1754 H 0.15242 0.26512 0.33143 0.0
H1755 H 0.61551 0.54056 0.68462 0.0
H1756 H 0.64805 0.56061 0.67655 0.0
H1757 H 0.66502 0.53379 0.71138 0.0
H1758 H 0.63263 0.51345 0.71898 0.0
H1759 H 0.67815 0.58569 0.69447 0.0
H1760 H 0.68987 0.52919 0.67168 0.0
H1761 H 0.66696 0.52562 0.67535 0.0
H1762 H 0.68083 0.52499 0.69151 0.0
C1763 C 0.62627 0.53898 0.69042 0.0
C1764 C 0.62174 0.52541 0.70223 0.0
C1765 C 0.64476 0.55035 0.68583 0.0
C1766 C 0.65887 0.54833 0.69311 0.0
C1767 C 0.6543 0.53513 0.70524 0.0
H1768 H 0.77591 0.6123 0.70362 0.0
H1769 H 0.74288 0.58838 0.70401 0.0
C1770 C 0.63587 0.52363 0.70964 0.0
C1771 C 0.67849 0.5604 0.6885 0.0
H1772 H 0.71706 0.55893 0.67689 0.0
C1773 C 0.68659 0.57988 0.69037 0.0
C1774 C 0.68946 0.55274 0.68316 0.0
C1775 C 0.6813 0.532 0.68015 0.0
C1776 C 0.70557 0.59186 0.68768 0.0
C1777 C 0.7166 0.58412 0.68286 0.0
C1778 C 0.70847 0.56473 0.68058 0.0
C1779 C 0.73683 0.59602 0.68114 0.0
C1780 C 0.71394 0.61266 0.69051 0.0
C1781 C 0.74433 0.6075 0.66779 0.0
C1782 C 0.76322 0.62083 0.6674 0.0
C1783 C 0.77463 0.623 0.68048 0.0
C1784 C 0.76729 0.61078 0.69341 0.0
C1785 C 0.74851 0.59721 0.69366 0.0
H1786 H 0.70379 0.61625 0.69562 0.0
H1787 H 0.726 0.61783 0.69873 0.0
H1788 H 0.71907 0.62018 0.67909 0.0
H1789 H 0.73542 0.60673 0.65807 0.0
H1790 H 0.7686 0.63034 0.65742 0.0
H1791 H 0.44629 0.06629 0.69905 0.0
H1792 H 0.42551 0.07812 0.69176 0.0
H1793 H 0.46901 0.13463 0.70182 0.0
H1794 H 0.48964 0.12304 0.70966 0.0
H1795 H 0.41659 0.10188 0.71289 0.0
H1796 H 0.44937 0.13536 0.65556 0.0
H1797 H 0.45202 0.11684 0.66432 0.0
H1798 H 0.46484 0.14026 0.67217 0.0
C1799 C 0.45144 0.08123 0.69978 0.0
C1800 C 0.46972 0.09371 0.70486 0.0
C1801 C 0.43958 0.08795 0.69552 0.0
C1802 C 0.44587 0.10724 0.69608 0.0
C1803 C 0.46406 0.11972 0.70104 0.0
H1804 H 0.38931 0.17189 0.69108 0.0
H1805 H 0.41347 0.16301 0.6934 0.0
C1806 C 0.47585 0.11304 0.70543 0.0
C1807 C 0.43327 0.1144 0.69214 0.0
H1808 H 0.42613 0.14132 0.66546 0.0
C1809 C 0.41861 0.11044 0.70251 0.0
C1810 C 0.43606 0.1256 0.6786 0.0
C1811 C 0.45133 0.12972 0.66691 0.0
C1812 C 0.40675 0.11763 0.69977 0.0
C1813 C 0.40959 0.12888 0.68627 0.0
C1814 C 0.42419 0.1328 0.67586 0.0
C1815 C 0.39672 0.1357 0.68247 0.0
C1816 C 0.39121 0.11321 0.71127 0.0
C1817 C 0.37977 0.1235 0.67508 0.0
C1818 C 0.36619 0.12858 0.67365 0.0
C1819 C 0.36944 0.14592 0.67955 0.0
C1820 C 0.38676 0.1586 0.68619 0.0
C1821 C 0.40043 0.15351 0.68759 0.0
H1822 H 0.39195 0.10576 0.72197 0.0
H1823 H 0.39163 0.12634 0.7151 0.0
H1824 H 0.37768 0.10426 0.70524 0.0
H1825 H 0.37669 0.10967 0.67117 0.0
H1826 H 0.35273 0.11851 0.66879 0.0
H1827 H 0.90548 0.38101 0.67825 0.0
H1828 H 0.89233 0.34742 0.67185 0.0
H1829 H 0.88524 0.33454 0.72188 0.0
H1830 H 0.89864 0.36795 0.72827 0.0
H1831 H 0.90538 0.32099 0.68648 0.0
H1832 H 0.83236 0.30251 0.69753 0.0
H1833 H 0.85031 0.32588 0.69225 0.0
H1834 H 0.84923 0.31754 0.71211 0.0
C1835 C 0.90116 0.37092 0.6878 0.0
C1836 C 0.90301 0.37683 0.70372 0.0
C1837 C 0.89371 0.35187 0.68417 0.0
C1838 C 0.88773 0.33863 0.69643 0.0
C1839 C 0.88972 0.34461 0.71231 0.0
H1840 H 0.86425 0.22401 0.69663 0.0
H1841 H 0.87127 0.25534 0.70557 0.0
C1842 C 0.89739 0.3636 0.71593 0.0
C1843 C 0.87922 0.31844 0.69287 0.0
H1844 H 0.83814 0.27719 0.6947 0.0
C1845 C 0.89069 0.31137 0.68821 0.0
C1846 C 0.86004 0.30611 0.69497 0.0
C1847 C 0.84716 0.31332 0.69937 0.0
C1848 C 0.88347 0.29205 0.68599 0.0
C1849 C 0.86438 0.27957 0.6888 0.0
C1850 C 0.85283 0.28676 0.69296 0.0
C1851 C 0.85606 0.25912 0.68643 0.0
C1852 C 0.89624 0.28515 0.68034 0.0
C1853 C 0.8437 0.25031 0.67377 0.0
C1854 C 0.83902 0.23217 0.66915 0.0
C1855 C 0.84695 0.2228 0.67695 0.0
C1856 C 0.85766 0.23081 0.69068 0.0
C1857 C 0.86201 0.24884 0.69553 0.0
H1858 H 0.90975 0.29679 0.67615 0.0
H1859 H 0.89904 0.27807 0.69027 0.0
H1860 H 0.88965 0.2748 0.67051 0.0
H1861 H 0.83898 0.25802 0.66659 0.0
H1862 H 0.83121 0.22649 0.65822 0.0
H1863 H 0.18284 0.95264 0.65601 0.0
H1864 H 0.20268 0.98617 0.66199 0.0
H1865 H 0.23501 0.99237 0.62011 0.0
H1866 H 0.21508 0.95916 0.61382 0.0
H1867 H 0.24259 0.00974 0.66595 0.0
H1868 H 0.21518 0.02923 0.61366 0.0
H1869 H 0.20387 0.00582 0.62171 0.0
H1870 H 0.22389 0.01367 0.60925 0.0
C1871 C 0.1942 0.96115 0.6481 0.0
C1872 C 0.19723 0.95324 0.63433 0.0
C1873 C 0.20558 0.98026 0.65158 0.0
C1874 C 0.22007 0.99179 0.64131 0.0
C1875 C 0.2237 0.98376 0.62804 0.0
H1876 H 0.3099 0.10565 0.6484 0.0
H1877 H 0.28799 0.07416 0.63827 0.0
C1878 C 0.21239 0.96471 0.62456 0.0
C1879 C 0.23089 0.01237 0.64394 0.0
H1880 H 0.24103 0.05413 0.62706 0.0
C1881 C 0.24221 0.01945 0.6575 0.0
C1882 C 0.23019 0.02499 0.63297 0.0
C1883 C 0.21751 0.0181 0.61864 0.0
C1884 C 0.25326 0.03887 0.6601 0.0
C1885 C 0.25292 0.05145 0.64889 0.0
C1886 C 0.24135 0.04441 0.63552 0.0
C1887 C 0.26454 0.07199 0.65112 0.0
C1888 C 0.26536 0.04594 0.67478 0.0
C1889 C 0.25818 0.08163 0.66063 0.0
C1890 C 0.27056 0.09982 0.66601 0.0
C1891 C 0.28948 0.10841 0.66219 0.0
C1892 C 0.29531 0.09956 0.65117 0.0
C1893 C 0.28288 0.08142 0.64564 0.0
H1894 H 0.26455 0.03434 0.68206 0.0
H1895 H 0.28003 0.05535 0.67133 0.0
H1896 H 0.26105 0.05428 0.68221 0.0
H1897 H 0.24408 0.07452 0.66501 0.0
H1898 H 0.26585 0.10607 0.67488 0.0
H1899 H 0.04754 0.2607 0.65366 0.0
H1900 H 0.01488 0.24752 0.66152 0.0
H1901 H -0.00195 0.20747 0.62292 0.0
H1902 H 0.03056 0.22016 0.61545 0.0
H1903 H 0.98417 0.24346 0.64461 0.0
H1904 H 0.97415 0.17388 0.66103 0.0
H1905 H -0.00318 0.19414 0.65817 0.0
H1906 H 0.98304 0.18092 0.64132 0.0
C1907 C 0.03678 0.24908 0.64693 0.0
C1908 C 0.0414 0.24119 0.63413 0.0
C1909 C 0.01821 0.24158 0.65139 0.0
C1910 C 0.00411 0.22622 0.64303 0.0
C1911 C 0.00875 0.21892 0.62983 0.0
H1912 H 0.8868 0.16831 0.63474 0.0
H1913 H 0.92002 0.17874 0.63381 0.0
C1914 C 0.02726 0.22621 0.62553 0.0
C1915 C 0.98448 0.21772 0.64798 0.0
H1916 H 0.94665 0.17595 0.65809 0.0
C1917 C 0.97602 0.22878 0.64781 0.0
C1918 C 0.97391 0.19856 0.65216 0.0
C1919 C 0.98247 0.18622 0.65335 0.0
C1920 C 0.95704 0.22097 0.65105 0.0
C1921 C 0.9464 0.20169 0.65473 0.0
C1922 C 0.95492 0.19074 0.6553 0.0
C1923 C 0.92612 0.19248 0.65682 0.0
C1924 C 0.94827 0.23313 0.64991 0.0
C1925 C 0.91854 0.19591 0.67045 0.0
C1926 C 0.89952 0.18956 0.67116 0.0
C1927 C 0.88802 0.17999 0.65813 0.0
C1928 C 0.89545 0.17552 0.64496 0.0
C1929 C 0.91437 0.18156 0.64439 0.0
H1930 H 0.95799 0.24726 0.64513 0.0
H1931 H 0.93577 0.22632 0.64215 0.0
H1932 H 0.94376 0.23486 0.6619 0.0
H1933 H 0.92747 0.20431 0.68016 0.0
H1934 H 0.89409 0.19346 0.68128 0.0
H1935 H 0.74954 0.79856 0.6617 0.0
H1936 H 0.76322 0.77858 0.66716 0.0
H1937 H 0.77856 0.78175 0.61782 0.0
H1938 H 0.76471 0.80135 0.61235 0.0
H1939 H 0.75413 0.74233 0.64929 0.0
H1940 H 0.82749 0.79991 0.64615 0.0
H1941 H 0.80854 0.80396 0.65054 0.0
H1942 H 0.81236 0.79917 0.63049 0.0
C1943 C 0.75581 0.79487 0.6521 0.0
C1944 C 0.75614 0.80131 0.63663 0.0
C1945 C 0.76356 0.78352 0.65519 0.0
C1946 C 0.77198 0.77888 0.64288 0.0
C1947 C 0.77222 0.78532 0.62745 0.0
H1948 H 0.80024 0.69003 0.64391 0.0
H1949 H 0.79195 0.71289 0.63379 0.0
C1950 C 0.7643 0.7964 0.62434 0.0
C1951 C 0.78055 0.76725 0.64597 0.0
H1952 H 0.82233 0.76894 0.64709 0.0
C1953 C 0.76902 0.74807 0.64882 0.0
C1954 C 0.79998 0.77494 0.64548 0.0
C1955 C 0.81291 0.79565 0.64312 0.0
C1956 C 0.77646 0.73624 0.65103 0.0
C1957 C 0.79592 0.74382 0.65005 0.0
C1958 C 0.80742 0.76309 0.64743 0.0
C1959 C 0.80465 0.73234 0.65347 0.0
C1960 C 0.76348 0.71589 0.65493 0.0
C1961 C 0.81605 0.73664 0.66693 0.0
C1962 C 0.82142 0.72407 0.67226 0.0
C1963 C 0.81523 0.70685 0.66437 0.0
C1964 C 0.80543 0.70336 0.65001 0.0
C1965 C 0.80035 0.7162 0.64446 0.0
H1966 H 0.74933 0.7131 0.6579 0.0
H1967 H 0.76232 0.70702 0.64452 0.0
H1968 H 0.76894 0.71154 0.66512 0.0
H1969 H 0.81954 0.74899 0.67406 0.0
H1970 H 0.82855 0.7268 0.68361 0.0
H1971 H 0.0359 0.77831 0.61888 0.0
H1972 H 0.00402 0.75925 0.62838 0.0
H1973 H 0.0137 0.80172 0.66339 0.0
H1974 H 0.04563 0.82094 0.65384 0.0
H1975 H 0.99015 0.74547 0.65988 0.0
H1976 H 0.96825 0.79465 0.63659 0.0
H1977 H 0.98922 0.79524 0.63018 0.0
H1978 H 0.98841 0.80459 0.64929 0.0
C1979 C 0.03123 0.78353 0.62865 0.0
C1980 C 0.04315 0.80114 0.63557 0.0
C1981 C 0.01308 0.77263 0.63409 0.0
C1982 C 0.00648 0.77922 0.64644 0.0
C1983 C 0.01851 0.79651 0.65373 0.0
H1984 H 0.89089 0.71262 0.68199 0.0
H1985 H 0.92393 0.73721 0.68183 0.0
C1986 C 0.03675 0.80738 0.64836 0.0
C1987 C 0.9868 0.76816 0.65122 0.0
H1988 H 0.94531 0.76708 0.64872 0.0
C1989 C 0.98039 0.75032 0.65774 0.0
C1990 C 0.97411 0.77448 0.6482 0.0
C1991 C 0.98021 0.79322 0.64058 0.0
C1992 C 0.96151 0.73845 0.66097 0.0
C1993 C 0.9488 0.74461 0.65762 0.0
C1994 C 0.95523 0.76263 0.65156 0.0
C1995 C 0.92864 0.73132 0.65773 0.0
C1996 C 0.95503 0.719 0.66716 0.0
C1997 C 0.92049 0.72038 0.64414 0.0
C1998 C 0.90189 0.70652 0.64418 0.0
C1999 C 0.89096 0.70326 0.65784 0.0
C2000 C 0.89894 0.71482 0.6713 0.0
C2001 C 0.91776 0.72878 0.67125 0.0
H2002 H 0.96678 0.7171 0.67092 0.0
H2003 H 0.94557 0.71603 0.67739 0.0
H2004 H 0.9471 0.70855 0.65768 0.0
H2005 H 0.92869 0.72223 0.6336 0.0
H2006 H 0.89618 0.69806 0.63353 0.0
H2007 H 0.16995 0.20936 0.63015 0.0
H2008 H 0.18897 0.19591 0.63868 0.0
H2009 H 0.23236 0.25087 0.65337 0.0
H2010 H 0.21305 0.26426 0.64519 0.0
H2011 H 0.22325 0.20545 0.62628 0.0
H2012 H 0.22844 0.21845 0.69144 0.0
H2013 H 0.21111 0.21948 0.67923 0.0
H2014 H 0.23455 0.23878 0.67958 0.0
C2015 C 0.18344 0.21846 0.63546 0.0
C2016 C 0.19009 0.23775 0.63714 0.0
C2017 C 0.19427 0.21081 0.64029 0.0
C2018 C 0.21198 0.22234 0.64681 0.0
C2019 C 0.21855 0.24164 0.64872 0.0
H2020 H 0.30833 0.2159 0.66712 0.0
H2021 H 0.28322 0.22301 0.66503 0.0
C2022 C 0.2076 0.24929 0.64402 0.0
C2023 C 0.22397 0.21431 0.65054 0.0
H2024 H 0.2486 0.20873 0.68036 0.0
C2025 C 0.22862 0.20594 0.63814 0.0
C2026 C 0.23095 0.21502 0.66602 0.0
C2027 C 0.2259 0.22326 0.67988 0.0
C2028 C 0.24061 0.19884 0.64069 0.0
C2029 C 0.24783 0.19982 0.65612 0.0
C2030 C 0.24288 0.20784 0.66858 0.0
C2031 C 0.26215 0.19456 0.65917 0.0
C2032 C 0.24612 0.19113 0.62671 0.0
C2033 C 0.25846 0.17603 0.65713 0.0
C2034 C 0.27283 0.17189 0.65855 0.0
C2035 C 0.29096 0.1863 0.66193 0.0
C2036 C 0.29439 0.20459 0.66462 0.0
C2037 C 0.28009 0.20865 0.66338 0.0
H2038 H 0.24196 0.19448 0.61517 0.0
H2039 H 0.26135 0.19682 0.62664 0.0
H2040 H 0.23927 0.17565 0.62768 0.0
H2041 H 0.24464 0.16493 0.654 0.0
H2042 H 0.27 0.15775 0.6562 0.0
H2043 H 0.78633 0.95935 0.64233 0.0
H2044 H 0.80025 0.993 0.64806 0.0
H2045 H 0.74649 0.98833 0.64314 0.0
H2046 H 0.73257 0.95461 0.6376 0.0
H2047 H 0.79877 0.01673 0.62524 0.0
H2048 H 0.76881 0.0226 0.68246 0.0
H2049 H 0.76922 0.00168 0.67656 0.0
H2050 H 0.75203 0.00643 0.66845 0.0
C2051 C 0.77748 0.96548 0.64302 0.0
C2052 C 0.75845 0.95459 0.63971 0.0
C2053 C 0.7854 0.98463 0.64619 0.0
C2054 C 0.77438 0.99311 0.64608 0.0
C2055 C 0.75517 0.98199 0.64356 0.0
H2056 H 0.79292 0.10516 0.64676 0.0
H2057 H 0.78289 0.07323 0.63764 0.0
C2058 C 0.74723 0.9628 0.6404 0.0
C2059 C 0.78326 0.01379 0.64659 0.0
H2060 H 0.7841 0.05023 0.66679 0.0
C2061 C 0.79567 0.02409 0.63438 0.0
C2062 C 0.77918 0.02328 0.65854 0.0
C2063 C 0.76672 0.01299 0.67234 0.0
C2064 C 0.80383 0.04366 0.63365 0.0
C2065 C 0.7994 0.05306 0.64535 0.0
C2066 C 0.78719 0.04283 0.65767 0.0
C2067 C 0.80781 0.07365 0.64554 0.0
C2068 C 0.81692 0.05423 0.6203 0.0
C2069 C 0.82572 0.08483 0.65178 0.0
C2070 C 0.83152 0.10314 0.65684 0.0
C2071 C 0.81937 0.11027 0.65585 0.0
C2072 C 0.80268 0.10009 0.64735 0.0
C2073 C 0.79677 0.08171 0.64243 0.0
H2074 H 0.8175 0.04468 0.61123 0.0
H2075 H 0.81259 0.0635 0.61445 0.0
H2076 H 0.83107 0.0633 0.62522 0.0
H2077 H 0.83438 0.07878 0.65431 0.0
H2078 H 0.84427 0.11059 0.66365 0.0
H2079 H 0.44494 0.37279 0.70974 0.0
H2080 H 0.42435 0.33948 0.70332 0.0
H2081 H 0.47052 0.33674 0.68308 0.0
H2082 H 0.49111 0.37018 0.68937 0.0
H2083 H 0.41707 0.3168 0.67339 0.0
H2084 H 0.45123 0.29965 0.72221 0.0
H2085 H 0.45331 0.32246 0.72035 0.0
H2086 H 0.4662 0.31581 0.70741 0.0
C2087 C 0.45051 0.36513 0.70354 0.0
C2088 C 0.46947 0.37385 0.7 0.0
C2089 C 0.43881 0.34617 0.69992 0.0
C2090 C 0.44601 0.33566 0.69296 0.0
C2091 C 0.46478 0.34464 0.68858 0.0
H2092 H 0.39853 0.2198 0.66753 0.0
H2093 H 0.41996 0.25142 0.6774 0.0
C2094 C 0.47646 0.36368 0.69206 0.0
C2095 C 0.43424 0.31504 0.69165 0.0
H2096 H 0.42765 0.27413 0.70776 0.0
C2097 C 0.41933 0.30745 0.6809 0.0
C2098 C 0.43725 0.30295 0.70154 0.0
C2099 C 0.45277 0.31054 0.71364 0.0
C2100 C 0.40745 0.28797 0.67962 0.0
C2101 C 0.41039 0.27588 0.6896 0.0
C2102 C 0.42535 0.28348 0.70029 0.0
C2103 C 0.39857 0.25524 0.68829 0.0
C2104 C 0.39208 0.28042 0.66736 0.0
C2105 C 0.37976 0.24637 0.69248 0.0
C2106 C 0.36758 0.22806 0.68721 0.0
C2107 C 0.37407 0.21865 0.67749 0.0
C2108 C 0.39325 0.22661 0.67528 0.0
C2109 C 0.40546 0.24483 0.68065 0.0
H2110 H 0.39359 0.29138 0.65887 0.0
H2111 H 0.3918 0.26868 0.66055 0.0
H2112 H 0.37854 0.27489 0.67345 0.0
H2113 H 0.37424 0.25416 0.69852 0.0
H2114 H 0.3528 0.22241 0.68877 0.0
H2115 H 0.62038 0.11657 0.68964 0.0
H2116 H 0.65258 0.13039 0.68033 0.0
H2117 H 0.65755 0.08685 0.70413 0.0
H2118 H 0.62556 0.07324 0.7137 0.0
H2119 H 0.68544 0.14135 0.70313 0.0
H2120 H 0.67558 0.08946 0.65605 0.0
H2121 H 0.65694 0.09299 0.66282 0.0
H2122 H 0.66435 0.07986 0.6747 0.0
C2123 C 0.62833 0.10986 0.69266 0.0
C2124 C 0.62061 0.09386 0.7023 0.0
C2125 C 0.64666 0.11778 0.68742 0.0
C2126 C 0.65732 0.10956 0.6915 0.0
C2127 C 0.64945 0.0933 0.7008 0.0
H2128 H 0.7602 0.11824 0.69253 0.0
H2129 H 0.72886 0.11274 0.6937 0.0
C2130 C 0.63126 0.08557 0.70625 0.0
C2131 C 0.67697 0.11831 0.6867 0.0
H2132 H 0.70657 0.10997 0.66484 0.0
C2133 C 0.69011 0.1348 0.69449 0.0
C2134 C 0.68289 0.10962 0.67549 0.0
C2135 C 0.66923 0.09206 0.66666 0.0
C2136 C 0.70921 0.14221 0.692 0.0
C2137 C 0.71515 0.13304 0.68127 0.0
C2138 C 0.70193 0.11709 0.67291 0.0
C2139 C 0.73472 0.1376 0.68062 0.0
C2140 C 0.72296 0.15898 0.7016 0.0
C2141 C 0.74854 0.15356 0.67285 0.0
C2142 C 0.7668 0.15683 0.67206 0.0
C2143 C 0.77137 0.14421 0.67915 0.0
C2144 C 0.75736 0.12838 0.68698 0.0
C2145 C 0.73932 0.12513 0.68767 0.0
H2146 H 0.71606 0.16421 0.70978 0.0
H2147 H 0.73188 0.15525 0.70872 0.0
H2148 H 0.73213 0.17048 0.69348 0.0
H2149 H 0.74515 0.16331 0.66729 0.0
H2150 H 0.77728 0.16917 0.66601 0.0
H2151 H 0.87273 0.51058 0.71676 0.0
H2152 H 0.86068 0.53132 0.71024 0.0
H2153 H 0.90835 0.56445 0.68083 0.0
H2154 H 0.92075 0.54372 0.68752 0.0
H2155 H 0.88563 0.57293 0.71775 0.0
H2156 H 0.85876 0.55482 0.65557 0.0
H2157 H 0.86035 0.538 0.66822 0.0
H2158 H 0.88103 0.55736 0.66041 0.0
C2159 C 0.88057 0.52216 0.70876 0.0
C2160 C 0.89785 0.52581 0.7029 0.0
C2161 C 0.87363 0.53391 0.705 0.0
C2162 C 0.88373 0.54943 0.69521 0.0
C2163 C 0.9004 0.55248 0.68842 0.0
H2164 H 0.87043 0.64586 0.68503 0.0
H2165 H 0.88108 0.62533 0.69552 0.0
C2166 C 0.90742 0.54065 0.69221 0.0
C2167 C 0.87752 0.56325 0.69366 0.0
H2168 H 0.85479 0.57774 0.66898 0.0
C2169 C 0.87895 0.57412 0.70708 0.0
C2170 C 0.86884 0.56458 0.67973 0.0
C2171 C 0.86702 0.55308 0.66511 0.0
C2172 C 0.87156 0.58613 0.70705 0.0
C2173 C 0.86254 0.58724 0.69323 0.0
C2174 C 0.86145 0.5766 0.67968 0.0
C2175 C 0.85472 0.59985 0.69213 0.0
C2176 C 0.87304 0.59716 0.7219 0.0
C2177 C 0.83604 0.59249 0.68778 0.0
C2178 C 0.82998 0.60428 0.68172 0.0
C2179 C 0.84256 0.62346 0.67996 0.0
C2180 C 0.86038 0.63113 0.68663 0.0
C2181 C 0.86656 0.61935 0.69245 0.0
H2182 H 0.87666 0.59162 0.7325 0.0
H2183 H 0.88407 0.61197 0.72031 0.0
H2184 H 0.8598 0.59695 0.72419 0.0
H2185 H 0.82668 0.57746 0.68755 0.0
H2186 H 0.81628 0.59805 0.67641 0.0
H2187 H 0.4812 0.99256 0.19115 0.0
H2188 H 0.48565 0.00071 0.16302 0.0
H2189 H 0.48417 0.94872 0.15217 0.0
H2190 H 0.47804 0.93967 0.17989 0.0
H2191 H 0.51336 0.00683 0.14439 0.0
H2192 H 0.44954 0.94724 0.11901 0.0
H2193 H 0.45267 0.95189 0.1401 0.0
H2194 H 0.46258 0.93941 0.13037 0.0
C2195 C 0.48131 0.98259 0.18276 0.0
C2196 C 0.47923 0.96541 0.18792 0.0
C2197 C 0.48406 0.98739 0.16667 0.0
C2198 C 0.48495 0.9752 0.15542 0.0
C2199 C 0.48304 0.95815 0.16053 0.0
H2200 H 0.50476 0.98206 0.0531 0.0
H2201 H 0.50419 0.97461 0.08141 0.0
C2202 C 0.47991 0.95317 0.17652 0.0
C2203 C 0.48879 0.98069 0.13848 0.0
H2204 H 0.47338 0.9659 0.10058 0.0
C2205 C 0.50456 -0.00209 0.13482 0.0
C2206 C 0.4773 0.96905 0.12598 0.0
C2207 C 0.45948 0.95097 0.12907 0.0
C2208 C 0.50932 0.00369 0.11903 0.0
C2209 C 0.49798 0.99194 0.10655 0.0
C2210 C 0.48224 0.97472 0.11018 0.0
C2211 C 0.50125 -0.00209 0.08973 0.0
C2212 C 0.52649 0.02229 0.11585 0.0
C2213 C 0.50028 0.01371 0.08512 0.0
C2214 C 0.50083 0.01809 0.06909 0.0
C2215 C 0.50205 0.00659 0.05727 0.0
C2216 C 0.50404 0.99131 0.06192 0.0
C2217 C 0.50353 0.98694 0.07806 0.0
H2218 H 0.53646 0.02675 0.12595 0.0
H2219 H 0.53357 0.02169 0.10487 0.0
H2220 H 0.52248 0.03317 0.11428 0.0
H2221 H 0.49813 0.02214 0.09387 0.0
H2222 H 0.4992 0.02993 0.06593 0.0
H2223 H 0.04066 0.54677 0.18695 0.0
H2224 H 0.03266 0.5441 0.15875 0.0
H2225 H 0.01602 0.48545 0.15928 0.0
H2226 H 0.02468 0.48804 0.18745 0.0
H2227 H 0.04781 0.5264 0.1329 0.0
H2228 H 0.97131 0.49346 0.14035 0.0
H2229 H 0.98736 0.50791 0.15577 0.0
H2230 H 0.9837 0.48486 0.15194 0.0
C2231 C 0.03553 0.53331 0.18109 0.0
C2232 C 0.03354 0.51766 0.1895 0.0
C2233 C 0.03086 0.53183 0.16498 0.0
C2234 C 0.02386 0.51464 0.15699 0.0
C2235 C 0.02143 0.49885 0.16531 0.0
H2236 H 0.97928 0.46941 0.06697 0.0
H2237 H 0.98868 0.4776 0.09413 0.0
C2238 C 0.02626 0.50034 0.18143 0.0
C2239 C 0.0192 0.51334 0.13988 0.0
H2240 H 0.9827 0.4983 0.11424 0.0
C2241 C 0.03361 0.52037 0.12873 0.0
C2242 C 0.00067 0.50538 0.13463 0.0
C2243 C 0.98477 0.49749 0.14623 0.0
C2244 C 0.02989 0.51914 0.1123 0.0
C2245 C 0.0113 0.51128 0.107 0.0
C2246 C -0.00303 0.50461 0.11829 0.0
C2247 C 0.00599 0.50731 0.08992 0.0
C2248 C 0.04575 0.52537 0.1008 0.0
C2249 C 0.01246 0.52138 0.07822 0.0
C2250 C 0.00736 0.51665 0.06213 0.0
C2251 C -0.00452 0.49783 0.05765 0.0
C2252 C 0.98849 0.48411 0.06968 0.0
C2253 C 0.99385 0.48874 0.08542 0.0
H2254 H 0.05875 0.52805 0.10682 0.0
H2255 H 0.04226 0.51459 0.09137 0.0
H2256 H 0.04839 0.53853 0.09499 0.0
H2257 H 0.02152 0.53593 0.08149 0.0
H2258 H 0.01297 0.52755 0.05326 0.0
H2259 H 0.4889 0.54551 0.18188 0.0
H2260 H 0.49347 0.54426 0.15316 0.0
H2261 H 0.48176 0.48716 0.15755 0.0
H2262 H 0.47692 0.48838 0.18632 0.0
H2263 H 0.5195 0.53727 0.13819 0.0
H2264 H 0.44732 0.48411 0.12108 0.0
H2265 H 0.45295 0.49621 0.14003 0.0
H2266 H 0.45736 0.47722 0.13671 0.0
C2267 C 0.48731 0.53274 0.17663 0.0
C2268 C 0.48265 0.51706 0.1861 0.0
C2269 C 0.48988 0.53201 0.1603 0.0
C2270 C 0.48775 0.51557 0.15322 0.0
C2271 C 0.48315 0.49987 0.16275 0.0
H2272 H 0.51143 0.48617 0.06292 0.0
H2273 H 0.51068 0.49365 0.09094 0.0
C2274 C 0.48053 0.50059 0.17911 0.0
C2275 C 0.49102 0.51522 0.13596 0.0
H2276 H 0.47027 0.49365 0.10096 0.0
C2277 C 0.5087 0.52784 0.13003 0.0
C2278 C 0.47687 0.50291 0.12537 0.0
C2279 C 0.4575 0.48943 0.13104 0.0
C2280 C 0.51271 0.5282 0.11379 0.0
C2281 C 0.49867 0.51579 0.10327 0.0
C2282 C 0.48093 0.5033 0.10913 0.0
C2283 C 0.50254 0.51432 0.08637 0.0
C2284 C 0.53197 0.54153 0.1079 0.0
C2285 C 0.49906 0.5242 0.07457 0.0
C2286 C 0.49971 0.52011 0.05844 0.0
C2287 C 0.50362 0.50595 0.05409 0.0
C2288 C 0.50856 0.49727 0.06597 0.0
C2289 C 0.50798 0.50139 0.08196 0.0
H2290 H 0.54125 0.55077 0.11753 0.0
H2291 H 0.5381 0.53342 0.10273 0.0
H2292 H 0.53128 0.55038 0.09831 0.0
H2293 H 0.49484 0.53425 0.07786 0.0
H2294 H 0.49554 0.52674 0.04953 0.0
H2295 H 0.9329 0.45285 0.82455 0.0
H2296 H 0.94047 0.4549 0.85301 0.0
H2297 H 0.99176 0.5064 0.84487 0.0
H2298 H 0.98425 0.50422 0.81633 0.0
H2299 H 0.9736 0.45748 0.8675 0.0
H2300 H 0.96467 0.51876 0.88077 0.0
H2301 H 0.95538 0.50463 0.863 0.0
H2302 H 0.97967 0.52154 0.86439 0.0
C2303 C 0.94577 0.46456 0.82891 0.0
C2304 C 0.95803 0.4784 0.81844 0.0
C2305 C 0.95009 0.46571 0.84508 0.0
C2306 C 0.96658 0.48086 0.851 0.0
C2307 C 0.97889 0.49469 0.84051 0.0
H2308 H 0.01753 0.51774 0.9422 0.0
H2309 H 0.01087 0.5103 0.914 0.0
C2310 C 0.97466 0.49342 0.82429 0.0
C2311 C 0.97085 0.48213 0.86818 0.0
H2312 H 0.97636 0.50823 0.90152 0.0
C2313 C 0.97411 0.46849 0.87499 0.0
C2314 C 0.97147 0.49653 0.87785 0.0
C2315 C 0.96748 0.51115 0.87122 0.0
C2316 C 0.97833 0.46911 0.89124 0.0
C2317 C 0.97905 0.48355 0.90084 0.0
C2318 C 0.97569 0.49712 0.89406 0.0
C2319 C 0.98418 0.48556 0.91784 0.0
C2320 C 0.98248 0.45469 0.89802 0.0
C2321 C 0.97163 0.47362 0.92933 0.0
C2322 C 0.97549 0.47779 0.94557 0.0
C2323 C 0.99185 0.49401 0.95031 0.0
C2324 C 0.00485 0.50512 0.93878 0.0
C2325 C 0.00104 0.50095 0.9227 0.0
H2326 H 0.98333 0.4456 0.88863 0.0
H2327 H -0.0042 0.46174 0.90471 0.0
H2328 H 0.97141 0.4457 0.9065 0.0
H2329 H 0.95845 0.46176 0.92572 0.0
H2330 H 0.96515 0.46924 0.95427 0.0
H2331 H 0.50386 0.49501 0.81217 0.0
H2332 H 0.49768 0.49834 0.84018 0.0
H2333 H 0.52593 0.46886 0.85436 0.0
H2334 H 0.53236 0.4657 0.8265 0.0
H2335 H 0.4774 0.46824 0.86148 0.0
H2336 H 0.54892 0.51569 0.88347 0.0
H2337 H 0.54275 0.51322 0.86264 0.0
H2338 H 0.54644 0.49592 0.87226 0.0
C2339 C 0.50901 0.48951 0.82128 0.0
C2340 C 0.51856 0.48005 0.81713 0.0
C2341 C 0.50539 0.49135 0.83726 0.0
C2342 C 0.5115 0.484 0.84935 0.0
C2343 C 0.52132 0.47487 0.84524 0.0
H2344 H 0.50257 0.4744 0.95222 0.0
H2345 H 0.50561 0.46893 0.9239 0.0
C2346 C 0.52483 0.47291 0.82931 0.0
C2347 C 0.5067 0.48482 0.86622 0.0
H2348 H 0.52567 0.50013 0.90314 0.0
C2349 C 0.48794 0.4753 0.87059 0.0
C2350 C 0.52047 0.49409 0.87806 0.0
C2351 C 0.54077 0.50547 0.8739 0.0
C2352 C 0.48258 0.47432 0.88656 0.0
C2353 C 0.49636 0.4832 0.89846 0.0
C2354 C 0.51513 0.49299 0.89405 0.0
C2355 C 0.49161 0.48342 0.91546 0.0
C2356 C 0.46224 0.46349 0.89061 0.0
C2357 C 0.4821 0.4927 0.9201 0.0
C2358 C 0.48022 0.49566 0.93619 0.0
C2359 C 0.48784 0.48944 0.94799 0.0
C2360 C 0.49613 0.4789 0.94341 0.0
C2361 C 0.49815 0.47606 0.92723 0.0
H2362 H 0.4539 0.45359 0.88093 0.0
H2363 H 0.45992 0.45548 0.90177 0.0
H2364 H 0.45709 0.47346 0.8924 0.0
H2365 H 0.47721 0.49878 0.91127 0.0
H2366 H 0.47412 0.50416 0.93939 0.0
H2367 H 0.53433 0.02418 0.81996 0.0
H2368 H 0.52953 0.0164 0.84829 0.0
H2369 H 0.48994 0.03564 0.85047 0.0
H2370 H 0.49426 0.04281 0.82206 0.0
H2371 H 0.53651 0.03988 0.87275 0.0
H2372 H 0.46177 0.98623 0.87283 0.0
H2373 H 0.4752 0.99393 0.85481 0.0
H2374 H 0.46638 0.0078 0.86376 0.0
C2375 C 0.52447 0.02653 0.8265 0.0
C2376 C 0.51456 0.03395 0.81889 0.0
C2377 C 0.52172 0.02209 0.84263 0.0
C2378 C 0.50913 0.02515 0.85144 0.0
C2379 C 0.49928 0.03262 0.84383 0.0
H2380 H 0.49046 0.02106 0.95461 0.0
H2381 H 0.48912 0.02608 0.92581 0.0
C2382 C 0.50182 0.0368 0.82764 0.0
C2383 C 0.50722 0.02163 0.86878 0.0
H2384 H 0.47588 -0.00203 0.89814 0.0
C2385 C 0.52325 0.03069 0.87827 0.0
C2386 C 0.4899 0.00963 0.87598 0.0
C2387 C 0.47236 -0.00131 0.86631 0.0
C2388 C 0.52244 0.02816 0.89477 0.0
C2389 C 0.50513 0.01623 0.90195 0.0
C2390 C 0.48905 0.0073 0.89255 0.0
C2391 C 0.50391 0.01173 0.91903 0.0
C2392 C 0.54013 0.03819 0.90441 0.0
C2393 C 0.51205 0.00149 0.92451 0.0
C2394 C 0.5129 -0.00122 0.94071 0.0
C2395 C 0.50544 0.00604 0.95177 0.0
C2396 C 0.49625 0.01532 0.94628 0.0
C2397 C 0.49555 0.01821 0.92992 0.0
H2398 H 0.55136 0.05007 0.89778 0.0
H2399 H 0.53776 0.04361 0.91576 0.0
H2400 H 0.54495 0.02819 0.90731 0.0
H2401 H 0.51826 0.99609 0.91626 0.0
H2402 H 0.51982 0.99131 0.94464 0.0
H2403 H 0.12468 0.27062 0.5132 0.0
H2404 H 0.12957 0.27871 0.48491 0.0
H2405 H 0.16951 0.33591 0.49734 0.0
H2406 H 0.16454 0.3279 0.5257 0.0
H2407 H 0.12679 0.30877 0.46767 0.0
H2408 H 0.19691 0.31598 0.46752 0.0
H2409 H 0.18014 0.30364 0.48292 0.0
H2410 H 0.1927 0.32881 0.48276 0.0
C2411 C 0.13443 0.28493 0.50985 0.0
C2412 C 0.14432 0.29864 0.52153 0.0
C2413 C 0.13715 0.28953 0.49375 0.0
C2414 C 0.15001 0.30784 0.48911 0.0
C2415 C 0.15961 0.32167 0.50075 0.0
H2416 H 0.18583 0.36238 0.39825 0.0
H2417 H 0.18196 0.35422 0.42655 0.0
C2418 C 0.15672 0.31713 0.51688 0.0
C2419 C 0.15382 0.31226 0.47205 0.0
H2420 H 0.18704 0.32354 0.44374 0.0
C2421 C 0.13992 0.31196 0.4624 0.0
C2422 C 0.17095 0.31631 0.46528 0.0
C2423 C 0.18604 0.3161 0.47508 0.0
C2424 C 0.14287 0.31593 0.44609 0.0
C2425 C 0.16004 0.32003 0.43936 0.0
C2426 C 0.1739 0.32032 0.44901 0.0
C2427 C 0.16402 0.32451 0.42235 0.0
C2428 C 0.12778 0.31602 0.43619 0.0
C2429 C 0.15592 0.31034 0.41073 0.0
C2430 C 0.15862 0.31491 0.39459 0.0
C2431 C 0.16925 0.33372 0.38993 0.0
C2432 C 0.17799 0.34776 0.4016 0.0
C2433 C 0.17557 0.34315 0.41771 0.0
H2434 H 0.11624 0.3149 0.44361 0.0
H2435 H 0.13355 0.32907 0.42911 0.0
H2436 H 0.12208 0.304 0.42773 0.0
H2437 H 0.14696 0.29588 0.41416 0.0
H2438 H 0.15121 0.30394 0.38581 0.0
H2439 H 0.69089 0.82021 0.52093 0.0
H2440 H 0.68176 0.81716 0.49284 0.0
H2441 H 0.69742 0.87555 0.49199 0.0
H2442 H 0.70587 0.87866 0.52009 0.0
H2443 H 0.65515 0.83044 0.47791 0.0
H2444 H 0.72753 0.86409 0.45527 0.0
H2445 H 0.72088 0.8521 0.47411 0.0
H2446 H 0.72298 0.87475 0.47215 0.0
C2447 C 0.69216 0.83236 0.51486 0.0
C2448 C 0.69934 0.84975 0.52279 0.0
C2449 C 0.68705 0.8306 0.49879 0.0
C2450 C 0.68918 0.84621 0.49037 0.0
C2451 C 0.69593 0.86343 0.49828 0.0
H2452 H 0.67759 0.85856 0.38708 0.0
H2453 H 0.68479 0.86674 0.41558 0.0
C2454 C 0.70088 0.86518 0.51432 0.0
C2455 C 0.68444 0.84471 0.47328 0.0
H2456 H 0.70378 0.85614 0.43633 0.0
C2457 C 0.66574 0.8361 0.4688 0.0
C2458 C 0.69834 0.85227 0.46151 0.0
C2459 C 0.7186 0.86127 0.46587 0.0
C2460 C 0.66052 0.83481 0.45276 0.0
C2461 C 0.67442 0.84201 0.44086 0.0
C2462 C 0.69316 0.85091 0.44542 0.0
C2463 C 0.66966 0.83799 0.42371 0.0
C2464 C 0.64012 0.82564 0.44877 0.0
C2465 C 0.65907 0.8193 0.41889 0.0
C2466 C 0.65468 0.81472 0.40301 0.0
C2467 C 0.66122 0.82864 0.39113 0.0
C2468 C 0.67211 0.84752 0.39585 0.0
C2469 C 0.6763 0.85217 0.41209 0.0
H2470 H 0.63226 0.82744 0.45862 0.0
H2471 H 0.63768 0.83144 0.43774 0.0
H2472 H 0.63444 0.81034 0.44705 0.0
H2473 H 0.6544 0.80805 0.42745 0.0
H2474 H 0.64644 0.79993 0.40013 0.0
H2475 H 0.16056 0.83158 0.5227 0.0
H2476 H 0.16546 0.829 0.49417 0.0
H2477 H 0.14089 0.86297 0.4833 0.0
H2478 H 0.13599 0.86562 0.51165 0.0
H2479 H 0.13623 0.81556 0.46813 0.0
H2480 H 0.1939 0.88905 0.46186 0.0
H2481 H 0.18742 0.87724 0.48078 0.0
H2482 H 0.17359 0.88601 0.47203 0.0
C2483 C 0.1563 0.83855 0.51419 0.0
C2484 C 0.14792 0.84882 0.51934 0.0
C2485 C 0.15901 0.83699 0.49795 0.0
C2486 C 0.15366 0.84594 0.48672 0.0
C2487 C 0.14522 0.8561 0.49183 0.0
H2488 H 0.15601 0.8549 0.38371 0.0
H2489 H 0.15454 0.85995 0.41243 0.0
C2490 C 0.14235 0.85751 0.508 0.0
C2491 C 0.15691 0.84482 0.46959 0.0
H2492 H 0.18191 0.87143 0.43812 0.0
C2493 C 0.14629 0.8277 0.46156 0.0
C2494 C 0.16994 0.86076 0.4611 0.0
C2495 C 0.182 0.87931 0.46935 0.0
C2496 C 0.14819 0.8262 0.44511 0.0
C2497 C 0.1613 0.84218 0.43663 0.0
C2498 C 0.17188 0.85926 0.44468 0.0
C2499 C 0.16449 0.84125 0.41944 0.0
C2500 C 0.13589 0.80767 0.43687 0.0
C2501 C 0.17153 0.82995 0.414 0.0
C2502 C 0.17258 0.82727 0.39774 0.0
C2503 C 0.16679 0.83601 0.38665 0.0
C2504 C 0.16107 0.84847 0.39205 0.0
C2505 C 0.15994 0.85109 0.4084 0.0
H2506 H 0.12385 0.79812 0.44433 0.0
H2507 H 0.13065 0.80983 0.42538 0.0
H2508 H 0.14403 0.80064 0.43434 0.0
H2509 H 0.17542 0.82251 0.42234 0.0
H2510 H 0.1767 0.81733 0.39382 0.0
H2511 H 0.65398 0.81855 0.14747 0.0
H2512 H 0.66178 0.82085 0.17577 0.0
H2513 H 0.60781 0.81245 0.18771 0.0
H2514 H 0.59951 0.80911 0.1596 0.0
H2515 H 0.66286 0.84506 0.19964 0.0
H2516 H 0.60969 0.77146 0.21276 0.0
H2517 H 0.61609 0.77993 0.19271 0.0
H2518 H 0.60049 0.78482 0.20378 0.0
C2519 C 0.64367 0.81695 0.15611 0.0
C2520 C 0.62603 0.81342 0.15121 0.0
C2521 C 0.64823 0.81845 0.17227 0.0
C2522 C 0.63524 0.81645 0.18383 0.0
C2523 C 0.61789 0.81362 0.17899 0.0
H2524 H 0.63001 0.81935 0.28562 0.0
H2525 H 0.62393 0.81437 0.25701 0.0
C2526 C 0.61326 0.81196 0.16287 0.0
C2527 C 0.63966 0.81695 0.20096 0.0
H2528 H 0.62511 0.79113 0.23493 0.0
C2529 C 0.65473 0.83324 0.20736 0.0
C2530 C 0.62898 0.8015 0.21098 0.0
C2531 C 0.61301 0.78337 0.2047 0.0
C2532 C 0.65908 0.83469 0.22365 0.0
C2533 C 0.64832 0.81923 0.23368 0.0
C2534 C 0.63339 0.8029 0.22721 0.0
C2535 C 0.65157 0.82006 0.25108 0.0
C2536 C 0.67469 0.85302 0.23004 0.0
C2537 C 0.66884 0.82403 0.25732 0.0
C2538 C 0.67231 0.82695 0.27367 0.0
C2539 C 0.65838 0.82536 0.28397 0.0
C2540 C 0.64075 0.82007 0.27788 0.0
C2541 C 0.63736 0.81746 0.26155 0.0
H2542 H 0.67849 0.86473 0.22162 0.0
H2543 H 0.67086 0.85672 0.24159 0.0
H2544 H 0.68715 0.85166 0.23196 0.0
H2545 H 0.67985 0.82562 0.24949 0.0
H2546 H 0.68613 0.83143 0.27815 0.0
H2547 H 0.15384 0.79929 0.14556 0.0
H2548 H 0.14734 0.80259 0.17351 0.0
H2549 H 0.20593 0.83003 0.18415 0.0
H2550 H 0.21241 0.82734 0.1561 0.0
H2551 H 0.15433 0.78764 0.1992 0.0
H2552 H 0.19193 0.86504 0.20551 0.0
H2553 H 0.18677 0.85343 0.18637 0.0
H2554 H 0.20633 0.85636 0.19785 0.0
C2555 C 0.16528 0.80627 0.1539 0.0
C2556 C 0.1836 0.81323 0.14883 0.0
C2557 C 0.16159 0.80811 0.16981 0.0
C2558 C 0.17616 0.8168 0.18088 0.0
C2559 C 0.19451 0.82375 0.17575 0.0
H2560 H 0.18969 0.83084 0.28167 0.0
H2561 H 0.19111 0.82434 0.25342 0.0
C2562 C 0.19821 0.82214 0.1598 0.0
C2563 C 0.17212 0.81762 0.19794 0.0
H2564 H 0.18309 0.84747 0.22964 0.0
C2565 C 0.16043 0.80074 0.20582 0.0
C2566 C 0.18005 0.83475 0.20655 0.0
C2567 C 0.19181 0.85343 0.19861 0.0
C2568 C 0.15698 0.80049 0.22218 0.0
C2569 C 0.1654 0.81751 0.23082 0.0
C2570 C 0.17676 0.83442 0.22293 0.0
C2571 C 0.16316 0.81815 0.2482 0.0
C2572 C 0.14487 0.78204 0.23031 0.0
C2573 C 0.14674 0.81623 0.25465 0.0
C2574 C 0.1459 0.81992 0.27083 0.0
C2575 C 0.1614 0.82535 0.28065 0.0
C2576 C 0.1774 0.82619 0.27434 0.0
C2577 C 0.1783 0.82267 0.25822 0.0
H2578 H 0.14056 0.76988 0.22215 0.0
H2579 H 0.15237 0.78055 0.24062 0.0
H2580 H 0.13225 0.78175 0.23493 0.0
H2581 H 0.135 0.81293 0.24701 0.0
H2582 H 0.13365 0.81971 0.27542 0.0
H2583 H 0.16941 0.38691 0.15656 0.0
H2584 H 0.16509 0.38041 0.18516 0.0
H2585 H 0.1866 0.34259 0.18028 0.0
H2586 H 0.1915 0.34964 0.15175 0.0
H2587 H 0.1435 0.34705 0.20001 0.0
H2588 H 0.21742 0.37579 0.21691 0.0
H2589 H 0.21051 0.38041 0.19788 0.0
H2590 H 0.20951 0.3584 0.20139 0.0
C2591 C 0.1732 0.37725 0.16169 0.0
C2592 C 0.18075 0.36873 0.15218 0.0
C2593 C 0.17078 0.37356 0.17795 0.0
C2594 C 0.17579 0.36125 0.18487 0.0
C2595 C 0.18307 0.35249 0.17525 0.0
H2596 H 0.15915 0.30696 0.27355 0.0
H2597 H 0.15996 0.31575 0.24583 0.0
C2598 C 0.18572 0.35637 0.15901 0.0
C2599 C 0.17283 0.35721 0.20207 0.0
H2600 H 0.19488 0.35852 0.23672 0.0
C2601 C 0.15477 0.34975 0.20807 0.0
C2602 C 0.18758 0.36078 0.21254 0.0
C2603 C 0.20737 0.36944 0.20692 0.0
C2604 C 0.151 0.34534 0.22421 0.0
C2605 C 0.16564 0.34859 0.23455 0.0
C2606 C 0.18374 0.35625 0.22867 0.0
C2607 C 0.16223 0.3425 0.25125 0.0
C2608 C 0.13137 0.33677 0.23015 0.0
C2609 C 0.16252 0.35442 0.2634 0.0
C2610 C 0.16198 0.3494 0.27939 0.0
C2611 C 0.16132 0.3325 0.28324 0.0
C2612 C 0.15968 0.32009 0.27093 0.0
C2613 C 0.16023 0.32509 0.25509 0.0
H2614 H 0.1215 0.33536 0.2206 0.0
H2615 H 0.12691 0.32267 0.23509 0.0
H2616 H 0.13073 0.34555 0.23992 0.0
H2617 H 0.16406 0.36793 0.26053 0.0
H2618 H 0.16349 0.35929 0.28863 0.0
H2619 H 0.82953 0.66327 0.85912 0.0
H2620 H 0.8354 0.67145 0.83083 0.0
H2621 H 0.79948 0.61341 0.81793 0.0
H2622 H 0.79365 0.60517 0.8461 0.0
H2623 H 0.85074 0.65488 0.80912 0.0
H2624 H 0.78213 0.64361 0.78957 0.0
H2625 H 0.78973 0.64791 0.81007 0.0
H2626 H 0.78138 0.6251 0.80138 0.0
C2627 C 0.82268 0.65235 0.8502 0.0
C2628 C 0.81115 0.63361 0.85473 0.0
C2629 C 0.82608 0.65701 0.83411 0.0
C2630 C 0.81773 0.64305 0.82233 0.0
C2631 C 0.80586 0.62441 0.82684 0.0
H2632 H 0.82306 0.63675 0.71952 0.0
H2633 H 0.81889 0.62931 0.748 0.0
C2634 C 0.80264 0.61971 0.8429 0.0
C2635 C 0.82234 0.64763 0.80536 0.0
H2636 H 0.80345 0.64715 0.76917 0.0
C2637 C 0.84046 0.65331 0.80038 0.0
C2638 C 0.80886 0.64556 0.79405 0.0
C2639 C 0.78945 0.64037 0.79898 0.0
C2640 C 0.84535 0.65654 0.78427 0.0
C2641 C 0.83181 0.65412 0.7729 0.0
C2642 C 0.81373 0.64868 0.7779 0.0
C2643 C 0.83641 0.65803 0.75582 0.0
C2644 C 0.86489 0.66219 0.77944 0.0
C2645 C 0.84818 0.67649 0.75086 0.0
C2646 C 0.85076 0.68069 0.73469 0.0
C2647 C 0.84157 0.66652 0.72316 0.0
C2648 C 0.83079 0.64783 0.72812 0.0
C2649 C 0.8281 0.64364 0.74437 0.0
H2650 H 0.87253 0.65965 0.78905 0.0
H2651 H 0.86484 0.6544 0.7686 0.0
H2652 H 0.87253 0.67738 0.77666 0.0
H2653 H 0.85451 0.68782 0.75949 0.0
H2654 H 0.8587 0.69526 0.73118 0.0
H2655 H 0.34939 0.19598 0.85837 0.0
H2656 H 0.34082 0.19294 0.83013 0.0
H2657 H 0.37033 0.16308 0.82152 0.0
H2658 H 0.3782 0.16546 0.84991 0.0
H2659 H 0.36391 0.20754 0.8057 0.0
H2660 H 0.32317 0.13037 0.7974 0.0
H2661 H 0.32868 0.1413 0.81683 0.0
H2662 H 0.34564 0.1383 0.80598 0.0
C2663 C 0.35373 0.1885 0.85044 0.0
C2664 C 0.36432 0.18084 0.8562 0.0
C2665 C 0.34889 0.18679 0.83434 0.0
C2666 C 0.35472 0.17758 0.82369 0.0
C2667 C 0.36521 0.16979 0.82953 0.0
H2668 H 0.35776 0.17207 0.72085 0.0
H2669 H 0.3654 0.17597 0.74931 0.0
C2670 C 0.3698 0.17123 0.8457 0.0
C2671 C 0.35099 0.17742 0.80636 0.0
H2672 H 0.33241 0.14882 0.77381 0.0
C2673 C 0.35689 0.19467 0.79879 0.0
C2674 C 0.34184 0.16062 0.79728 0.0
C2675 C 0.3343 0.14159 0.8048 0.0
C2676 C 0.35413 0.1956 0.78241 0.0
C2677 C 0.34528 0.1789 0.77336 0.0
C2678 C 0.3393 0.16162 0.78084 0.0
C2679 C 0.34205 0.17911 0.75606 0.0
C2680 C 0.36085 0.2144 0.77475 0.0
C2681 C 0.32672 0.18017 0.75044 0.0
C2682 C 0.32231 0.17789 0.73419 0.0
C2683 C 0.33343 0.17498 0.72334 0.0
C2684 C 0.34942 0.1751 0.72891 0.0
C2685 C 0.35361 0.17699 0.74516 0.0
H2686 H 0.36881 0.22623 0.78317 0.0
H2687 H 0.36976 0.21594 0.7644 0.0
H2688 H 0.34876 0.21527 0.77024 0.0
H2689 H 0.31762 0.18174 0.75872 0.0
H2690 H 0.30958 0.17719 0.73024 0.0
H2691 H 0.79613 0.15251 0.85166 0.0
H2692 H 0.80007 0.15023 0.82294 0.0
H2693 H 0.8396 0.20957 0.82182 0.0
H2694 H 0.83621 0.21168 0.85052 0.0
H2695 H 0.7926 0.16683 0.79911 0.0
H2696 H 0.8673 0.1893 0.7978 0.0
H2697 H 0.8541 0.18291 0.81595 0.0
H2698 H 0.86319 0.20609 0.80792 0.0
C2699 C 0.80584 0.16496 0.84525 0.0
C2700 C 0.81602 0.18224 0.85322 0.0
C2701 C 0.80805 0.16368 0.82889 0.0
C2702 C 0.82035 0.17969 0.82027 0.0
C2703 C 0.83046 0.19693 0.82829 0.0
H2704 H 0.84759 0.19873 0.71842 0.0
H2705 H 0.8425 0.20445 0.7464 0.0
C2706 C 0.82848 0.19816 0.84465 0.0
C2707 C 0.82201 0.17865 0.8028 0.0
H2708 H 0.85344 0.1892 0.77299 0.0
C2709 C 0.80591 0.17171 0.79341 0.0
C2710 C 0.83934 0.18489 0.79536 0.0
C2711 C 0.85692 0.19102 0.80479 0.0
C2712 C 0.80673 0.17111 0.77676 0.0
C2713 C 0.82414 0.17774 0.76935 0.0
C2714 C 0.84021 0.18469 0.77871 0.0
C2715 C 0.82575 0.175 0.75216 0.0
C2716 C 0.78896 0.16323 0.76727 0.0
C2717 C 0.8181 0.1567 0.74633 0.0
C2718 C 0.82122 0.15349 0.73074 0.0
C2719 C 0.83216 0.1685 0.72049 0.0
C2720 C 0.83934 0.18695 0.7261 0.0
C2721 C 0.83636 0.19018 0.74198 0.0
H2722 H 0.77791 0.16402 0.77403 0.0
H2723 H 0.79119 0.17076 0.75585 0.0
H2724 H 0.78391 0.14823 0.76453 0.0
H2725 H 0.81015 0.1448 0.75401 0.0
H2726 H 0.81501 0.13904 0.72677 0.0
H2727 H 0.2989 0.12417 0.4843 0.0
H2728 H 0.30702 0.12669 0.51249 0.0
H2729 H 0.29688 0.17285 0.51787 0.0
H2730 H 0.28936 0.17097 0.48952 0.0
H2731 H 0.33498 0.16271 0.53217 0.0
H2732 H 0.26036 0.12766 0.54894 0.0
H2733 H 0.26766 0.12501 0.52934 0.0
H2734 H 0.26904 0.14669 0.53501 0.0
C2735 C 0.29877 0.13515 0.49134 0.0
C2736 C 0.29334 0.14729 0.48458 0.0
C2737 C 0.30334 0.13649 0.50748 0.0
C2738 C 0.30241 0.14985 0.51722 0.0
C2739 C 0.29754 0.16236 0.51052 0.0
H2740 H 0.30509 0.16649 0.61842 0.0
H2741 H 0.29852 0.16301 0.58999 0.0
C2742 C 0.2931 0.16114 0.49434 0.0
C2743 C 0.30541 0.14987 0.53456 0.0
H2744 H 0.28208 0.13629 0.56968 0.0
C2745 C 0.32348 0.15693 0.54044 0.0
C2746 C 0.29035 0.1425 0.54522 0.0
C2747 C 0.2707 0.13493 0.53941 0.0
C2748 C 0.32692 0.15704 0.55683 0.0
C2749 C 0.31175 0.14911 0.56753 0.0
C2750 C 0.29369 0.1421 0.56153 0.0
C2751 C 0.31428 0.14913 0.58507 0.0
C2752 C 0.3468 0.16632 0.56252 0.0
C2753 C 0.32464 0.14173 0.59202 0.0
C2754 C 0.32864 0.14398 0.60838 0.0
C2755 C 0.32169 0.15299 0.61803 0.0
C2756 C 0.31009 0.15894 0.61127 0.0
C2757 C 0.30654 0.15717 0.59497 0.0
H2758 H 0.35654 0.17603 0.55349 0.0
H2759 H 0.34872 0.17434 0.57371 0.0
H2760 H 0.3506 0.15541 0.56482 0.0
H2761 H 0.33027 0.13491 0.58472 0.0
H2762 H 0.33799 0.13972 0.61328 0.0
H2763 H 0.8461 0.16841 0.47928 0.0
H2764 H 0.84075 0.17234 0.50725 0.0
H2765 H 0.8501 0.12701 0.51978 0.0
H2766 H 0.85673 0.12384 0.49215 0.0
H2767 H 0.81411 0.14795 0.52634 0.0
H2768 H 0.88206 0.1654 0.55223 0.0
H2769 H 0.87845 0.16561 0.53109 0.0
H2770 H 0.87192 0.14389 0.54108 0.0
C2771 C 0.84747 0.15956 0.48801 0.0
C2772 C 0.85188 0.1458 0.48336 0.0
C2773 C 0.84424 0.16172 0.504 0.0
C2774 C 0.8453 0.15016 0.51568 0.0
C2775 C 0.84964 0.13641 0.51108 0.0
H2776 H 0.82749 0.13855 0.61833 0.0
H2777 H 0.82984 0.13192 0.59014 0.0
C2778 C 0.8531 0.1344 0.49516 0.0
C2779 C 0.84087 0.15172 0.53254 0.0
H2780 H 0.85722 0.15659 0.57057 0.0
C2781 C 0.82357 0.14992 0.536 0.0
C2782 C 0.85324 0.15434 0.54516 0.0
C2783 C 0.87252 0.15762 0.54221 0.0
C2784 C 0.81809 0.15021 0.55174 0.0
C2785 C 0.83032 0.15249 0.56439 0.0
C2786 C 0.84769 0.15444 0.56091 0.0
C2787 C 0.82601 0.15438 0.58122 0.0
C2788 C 0.79913 0.1478 0.5546 0.0
C2789 C 0.82248 0.16876 0.58552 0.0
C2790 C 0.82066 0.1722 0.60145 0.0
C2791 C 0.82291 0.16176 0.61358 0.0
C2792 C 0.82545 0.14668 0.6093 0.0
C2793 C 0.82705 0.14306 0.59321 0.0
H2794 H 0.78945 0.14007 0.54465 0.0
H2795 H 0.79302 0.1402 0.56583 0.0
H2796 H 0.80035 0.16184 0.55542 0.0
H2797 H 0.82211 0.17802 0.57662 0.0
H2798 H 0.8188 0.184 0.60432 0.0
H2799 H 0.81857 0.69027 0.4848 0.0
H2800 H 0.81386 0.68246 0.51303 0.0
H2801 H 0.87204 0.70133 0.51867 0.0
H2802 H 0.87689 0.70847 0.49029 0.0
H2803 H 0.8306 0.65895 0.53275 0.0
H2804 H 0.85224 0.7328 0.54932 0.0
H2805 H 0.84209 0.72315 0.5301 0.0
H2806 H 0.86516 0.72811 0.53458 0.0
C2807 C 0.83034 0.69239 0.4919 0.0
C2808 C 0.84815 0.70015 0.48523 0.0
C2809 C 0.8276 0.68802 0.50805 0.0
C2810 C 0.84263 0.69147 0.51783 0.0
C2811 C 0.86032 0.69869 0.51124 0.0
H2812 H 0.85438 0.69144 0.61997 0.0
H2813 H 0.85832 0.69896 0.59164 0.0
C2814 C 0.86306 0.70291 0.49506 0.0
C2815 C 0.83992 0.68836 0.53509 0.0
H2816 H 0.84296 0.71092 0.57006 0.0
C2817 C 0.83324 0.67024 0.54097 0.0
C2818 C 0.84368 0.70325 0.54564 0.0
C2819 C 0.85117 0.72298 0.53971 0.0
C2820 C 0.83018 0.66658 0.5573 0.0
C2821 C 0.8333 0.68137 0.56787 0.0
C2822 C 0.84028 0.69956 0.56193 0.0
C2823 C 0.83009 0.67838 0.58522 0.0
C2824 C 0.82419 0.64705 0.56309 0.0
C2825 C 0.81268 0.66494 0.59114 0.0
C2826 C 0.81048 0.66052 0.60733 0.0
C2827 C 0.82547 0.66999 0.61785 0.0
C2828 C 0.84245 0.68443 0.61212 0.0
C2829 C 0.84477 0.68855 0.59592 0.0
H2830 H 0.82724 0.63889 0.55423 0.0
H2831 H 0.83121 0.64751 0.57446 0.0
H2832 H 0.80899 0.63943 0.56512 0.0
H2833 H 0.80102 0.6573 0.58315 0.0
H2834 H 0.79742 0.64905 0.61147 0.0
loop_
_geom_bond_atom_site_label_1
_geom_bond_atom_site_label_2
_geom_bond_distance
_geom_bond_site_symmetry_2
_ccdc_geom_bond_type
C0 C1 1.386 . S
C0 C2 1.397 . S
C0 H24 0.931 . S
C1 C0 1.386 . S
C1 C5 1.397 . S
C2 C0 1.397 . S
C2 C3 1.384 . S
C2 H25 0.930 . S
C3 C2 1.384 . S
C3 C4 1.377 . S
C3 C6 1.481 . S
C4 C3 1.377 . S
C4 C5 1.389 . S
C4 H26 0.929 . S
C5 C1 1.397 . S
C5 C4 1.389 . S
C5 H27 0.931 . S
C6 C3 1.481 . S
C6 C7 1.387 . S
C6 C11 1.390 . S
C7 C6 1.387 . S
C7 C8 1.401 . S
C7 H28 0.930 . S
C8 C7 1.401 . S
C8 C9 1.376 . S
C8 C17 1.511 . S
C9 C8 1.376 . S
C9 C10 1.392 . S
C9 H30 0.931 . S
C10 C9 1.392 . S
C10 C11 1.361 . S
C10 C12 1.500 . S
C11 C6 1.390 . S
C11 C10 1.361 . S
C11 H29 0.931 . S
C12 C10 1.500 . S
C12 C13 1.371 . S
C12 C14 1.365 . S
C13 C12 1.371 . S
C13 C23 1.386 . S
C13 H31 0.931 . S
C14 C12 1.365 . S
C14 C15 1.409 . S
C14 H32 0.929 . S
C15 C14 1.409 . S
C15 C16 1.380 . S
C15 H33 0.930 . S
C16 C15 1.380 . S
C16 C23 1.357 . S
C17 C8 1.511 . S
C17 C18 1.341 . S
C17 C19 1.371 . S
C18 C17 1.341 . S
C18 C22 1.394 . S
C18 H34 0.930 . S
C19 C17 1.371 . S
C19 C20 1.392 . S
C19 H35 0.931 . S
C20 C19 1.392 . S
C20 C21 1.331 . S
C20 H38 0.932 . S
C21 C20 1.331 . S
C21 C22 1.336 . S
C22 C18 1.394 . S
C22 C21 1.336 . S
C22 H37 0.929 . S
C23 C13 1.386 . S
C23 C16 1.357 . S
C23 H36 0.928 . S
H24 C0 0.931 . S
H25 C2 0.930 . S
H26 C4 0.929 . S
H27 C5 0.931 . S
H28 C7 0.930 . S
H29 C11 0.931 . S
H30 C9 0.931 . S
H31 C13 0.931 . S
H32 C14 0.929 . S
H33 C15 0.930 . S
H34 C18 0.930 . S
H35 C19 0.931 . S
H36 C23 0.928 . S
H37 C22 0.929 . S
H38 C20 0.932 . S
C39 C40 1.386 . S
C39 C41 1.397 . S
C39 H63 0.931 . S
C40 C39 1.386 . S
C40 C44 1.397 . S
C41 C39 1.397 . S
C41 C42 1.384 . S
C41 H64 0.930 . S
C42 C41 1.384 . S
C42 C43 1.377 . S
C42 C45 1.481 . S
C43 C42 1.377 . S
C43 C44 1.389 . S
C43 H65 0.929 . S
C44 C40 1.397 . S
C44 C43 1.389 . S
C44 H66 0.931 . S
C45 C42 1.481 . S
C45 C46 1.387 . S
C45 C50 1.390 . S
C46 C45 1.387 . S
C46 C47 1.401 . S
C46 H67 0.930 . S
C47 C46 1.401 . S
C47 C48 1.376 . S
C47 C56 1.511 . S
C48 C47 1.376 . S
C48 C49 1.392 . S
C48 H69 0.931 . S
C49 C48 1.392 . S
C49 C50 1.361 . S
C49 C51 1.500 . S
C50 C45 1.390 . S
C50 C49 1.361 . S
C50 H68 0.931 . S
C51 C49 1.500 . S
C51 C52 1.371 . S
C51 C53 1.365 . S
C52 C51 1.371 . S
C52 C62 1.386 . S
C52 H70 0.931 . S
C53 C51 1.365 . S
C53 C54 1.409 . S
C53 H71 0.929 . S
C54 C53 1.409 . S
C54 C55 1.380 . S
C54 H72 0.930 . S
C55 C54 1.380 . S
C55 C62 1.357 . S
C56 C47 1.511 . S
C56 C57 1.341 . S
C56 C58 1.371 . S
C57 C56 1.341 . S
C57 C61 1.394 . S
C57 H73 0.930 . S
C58 C56 1.371 . S
C58 C59 1.392 . S
C58 H74 0.931 . S
C59 C58 1.392 . S
C59 C60 1.331 . S
C59 H77 0.932 . S
C60 C59 1.331 . S
C60 C61 1.336 . S
C61 C57 1.394 . S
C61 C60 1.336 . S
C61 H76 0.929 . S
C62 C52 1.386 . S
C62 C55 1.357 . S
C62 H75 0.928 . S
H63 C39 0.931 . S
H64 C41 0.930 . S
H65 C43 0.929 . S
H66 C44 0.931 . S
H67 C46 0.930 . S
H68 C50 0.931 . S
H69 C48 0.931 . S
H70 C52 0.931 . S
H71 C53 0.929 . S
H72 C54 0.930 . S
H73 C57 0.930 . S
H74 C58 0.931 . S
H75 C62 0.928 . S
H76 C61 0.929 . S
H77 C59 0.932 . S
C78 C79 1.386 . S
C78 C80 1.397 . S
C78 H102 0.931 . S
C79 C78 1.386 . S
C79 C83 1.397 . S
C80 C78 1.397 . S
C80 C81 1.384 . S
C80 H103 0.930 . S
C81 C80 1.384 . S
C81 C82 1.377 . S
C81 C84 1.481 . S
C82 C81 1.377 . S
C82 C83 1.389 . S
C82 H104 0.929 . S
C83 C79 1.397 . S
C83 C82 1.389 . S
C83 H105 0.931 . S
C84 C81 1.481 . S
C84 C85 1.387 . S
C84 C89 1.390 . S
C85 C84 1.387 . S
C85 C86 1.401 . S
C85 H106 0.930 . S
C86 C85 1.401 . S
C86 C87 1.376 . S
C86 C95 1.511 . S
C87 C86 1.376 . S
C87 C88 1.392 . S
C87 H108 0.931 . S
C88 C87 1.392 . S
C88 C89 1.361 . S
C88 C90 1.500 . S
C89 C84 1.390 . S
C89 C88 1.361 . S
C89 H107 0.931 . S
C90 C88 1.500 . S
C90 C91 1.371 . S
C90 C92 1.365 . S
C91 C90 1.371 . S
C91 C101 1.386 . S
C91 H109 0.931 . S
C92 C90 1.365 . S
C92 C93 1.409 . S
C92 H110 0.929 . S
C93 C92 1.409 . S
C93 C94 1.380 . S
C93 H111 0.930 . S
C94 C93 1.380 . S
C94 C101 1.357 . S
C95 C86 1.511 . S
C95 C96 1.341 . S
C95 C97 1.371 . S
C96 C95 1.341 . S
C96 C100 1.394 . S
C96 H112 0.930 . S
C97 C95 1.371 . S
C97 C98 1.392 . S
C97 H113 0.931 . S
C98 C97 1.392 . S
C98 C99 1.331 . S
C98 H116 0.932 . S
C99 C98 1.331 . S
C99 C100 1.336 . S
C100 C96 1.394 . S
C100 C99 1.336 . S
C100 H115 0.929 . S
C101 C91 1.386 . S
C101 C94 1.357 . S
C101 H114 0.928 . S
H102 C78 0.931 . S
H103 C80 0.930 . S
H104 C82 0.929 . S
H105 C83 0.931 . S
H106 C85 0.930 . S
H107 C89 0.931 . S
H108 C87 0.931 . S
H109 C91 0.931 . S
H110 C92 0.929 . S
H111 C93 0.930 . S
H112 C96 0.930 . S
H113 C97 0.931 . S
H114 C101 0.928 . S
H115 C100 0.929 . S
H116 C98 0.932 . S
C117 C118 1.386 . S
C117 C119 1.397 . S
C117 H141 0.931 . S
C118 C117 1.386 . S
C118 C122 1.397 . S
C119 C117 1.397 . S
C119 C120 1.384 . S
C119 H142 0.930 . S
C120 C119 1.384 . S
C120 C121 1.377 . S
C120 C123 1.481 . S
C121 C120 1.377 . S
C121 C122 1.389 . S
C121 H143 0.929 . S
C122 C118 1.397 . S
C122 C121 1.389 . S
C122 H144 0.931 . S
C123 C120 1.481 . S
C123 C124 1.387 . S
C123 C128 1.390 . S
C124 C123 1.387 . S
C124 C125 1.401 . S
C124 H145 0.930 . S
C125 C124 1.401 . S
C125 C126 1.376 . S
C125 C134 1.511 . S
C126 C125 1.376 . S
C126 C127 1.392 . S
C126 H147 0.931 . S
C127 C126 1.392 . S
C127 C128 1.361 . S
C127 C129 1.500 . S
C128 C123 1.390 . S
C128 C127 1.361 . S
C128 H146 0.931 . S
C129 C127 1.500 . S
C129 C130 1.371 . S
C129 C131 1.365 . S
C130 C129 1.371 . S
C130 C140 1.386 . S
C130 H148 0.931 . S
C131 C129 1.365 . S
C131 C132 1.409 . S
C131 H149 0.929 . S
C132 C131 1.409 . S
C132 C133 1.380 . S
C132 H150 0.930 . S
C133 C132 1.380 . S
C133 C140 1.357 . S
C134 C125 1.511 . S
C134 C135 1.341 . S
C134 C136 1.371 . S
C135 C134 1.341 . S
C135 C139 1.394 . S
C135 H151 0.930 . S
C136 C134 1.371 . S
C136 C137 1.392 . S
C136 H152 0.931 . S
C137 C136 1.392 . S
C137 C138 1.331 . S
C137 H155 0.932 . S
C138 C137 1.331 . S
C138 C139 1.336 . S
C139 C135 1.394 . S
C139 C138 1.336 . S
C139 H154 0.929 . S
C140 C130 1.386 . S
C140 C133 1.357 . S
C140 H153 0.928 . S
H141 C117 0.931 . S
H142 C119 0.930 . S
H143 C121 0.929 . S
H144 C122 0.931 . S
H145 C124 0.930 . S
H146 C128 0.931 . S
H147 C126 0.931 . S
H148 C130 0.931 . S
H149 C131 0.929 . S
H150 C132 0.930 . S
H151 C135 0.930 . S
H152 C136 0.931 . S
H153 C140 0.928 . S
H154 C139 0.929 . S
H155 C137 0.932 . S
C156 C157 1.386 . S
C156 C158 1.397 . S
C156 H180 0.931 . S
C157 C156 1.386 . S
C157 C161 1.397 . S
C158 C156 1.397 . S
C158 C159 1.384 . S
C158 H181 0.930 . S
C159 C158 1.384 . S
C159 C160 1.377 . S
C159 C162 1.481 . S
C160 C159 1.377 . S
C160 C161 1.389 . S
C160 H182 0.929 . S
C161 C157 1.397 . S
C161 C160 1.389 . S
C161 H183 0.931 . S
C162 C159 1.481 . S
C162 C163 1.387 . S
C162 C167 1.390 . S
C163 C162 1.387 . S
C163 C164 1.401 . S
C163 H184 0.930 . S
C164 C163 1.401 . S
C164 C165 1.376 . S
C164 C173 1.511 . S
C165 C164 1.376 . S
C165 C166 1.392 . S
C165 H186 0.931 . S
C166 C165 1.392 . S
C166 C167 1.361 . S
C166 C168 1.500 . S
C167 C162 1.390 . S
C167 C166 1.361 . S
C167 H185 0.931 . S
C168 C166 1.500 . S
C168 C169 1.371 . S
C168 C170 1.365 . S
C169 C168 1.371 . S
C169 C179 1.386 . S
C169 H187 0.931 . S
C170 C168 1.365 . S
C170 C171 1.409 . S
C170 H188 0.929 . S
C171 C170 1.409 . S
C171 C172 1.380 . S
C171 H189 0.930 . S
C172 C171 1.380 . S
C172 C179 1.357 . S
C173 C164 1.511 . S
C173 C174 1.341 . S
C173 C175 1.371 . S
C174 C173 1.341 . S
C174 C178 1.394 . S
C174 H190 0.930 . S
C175 C173 1.371 . S
C175 C176 1.392 . S
C175 H191 0.931 . S
C176 C175 1.392 . S
C176 C177 1.331 . S
C176 H194 0.932 . S
C177 C176 1.331 . S
C177 C178 1.336 . S
C178 C174 1.394 . S
C178 C177 1.336 . S
C178 H193 0.929 . S
C179 C169 1.386 . S
C179 C172 1.357 . S
C179 H192 0.928 . S
H180 C156 0.931 . S
H181 C158 0.930 . S
H182 C160 0.929 . S
H183 C161 0.931 . S
H184 C163 0.930 . S
H185 C167 0.931 . S
H186 C165 0.931 . S
H187 C169 0.931 . S
H188 C170 0.929 . S
H189 C171 0.930 . S
H190 C174 0.930 . S
H191 C175 0.931 . S
H192 C179 0.928 . S
H193 C178 0.929 . S
H194 C176 0.932 . S
C195 C196 1.386 . S
C195 C197 1.397 . S
C195 H219 0.931 . S
C196 C195 1.386 . S
C196 C200 1.397 . S
C197 C195 1.397 . S
C197 C198 1.384 . S
C197 H220 0.930 . S
C198 C197 1.384 . S
C198 C199 1.377 . S
C198 C201 1.481 . S
C199 C198 1.377 . S
C199 C200 1.389 . S
C199 H221 0.929 . S
C200 C196 1.397 . S
C200 C199 1.389 . S
C200 H222 0.931 . S
C201 C198 1.481 . S
C201 C202 1.387 . S
C201 C206 1.390 . S
C202 C201 1.387 . S
C202 C203 1.401 . S
C202 H223 0.930 . S
C203 C202 1.401 . S
C203 C204 1.376 . S
C203 C212 1.511 . S
C204 C203 1.376 . S
C204 C205 1.392 . S
C204 H225 0.931 . S
C205 C204 1.392 . S
C205 C206 1.361 . S
C205 C207 1.500 . S
C206 C201 1.390 . S
C206 C205 1.361 . S
C206 H224 0.931 . S
C207 C205 1.500 . S
C207 C208 1.371 . S
C207 C209 1.365 . S
C208 C207 1.371 . S
C208 C218 1.386 . S
C208 H226 0.931 . S
C209 C207 1.365 . S
C209 C210 1.409 . S
C209 H227 0.929 . S
C210 C209 1.409 . S
C210 C211 1.380 . S
C210 H228 0.930 . S
C211 C210 1.380 . S
C211 C218 1.357 . S
C212 C203 1.511 . S
C212 C213 1.341 . S
C212 C214 1.371 . S
C213 C212 1.341 . S
C213 C217 1.394 . S
C213 H229 0.930 . S
C214 C212 1.371 . S
C214 C215 1.392 . S
C214 H230 0.931 . S
C215 C214 1.392 . S
C215 C216 1.331 . S
C215 H233 0.932 . S
C216 C215 1.331 . S
C216 C217 1.336 . S
C217 C213 1.394 . S
C217 C216 1.336 . S
C217 H232 0.929 . S
C218 C208 1.386 . S
C218 C211 1.357 . S
C218 H231 0.928 . S
H219 C195 0.931 . S
H220 C197 0.930 . S
H221 C199 0.929 . S
H222 C200 0.931 . S
H223 C202 0.930 . S
H224 C206 0.931 . S
H225 C204 0.931 . S
H226 C208 0.931 . S
H227 C209 0.929 . S
H228 C210 0.930 . S
H229 C213 0.930 . S
H230 C214 0.931 . S
H231 C218 0.928 . S
H232 C217 0.929 . S
H233 C215 0.932 . S
C234 C235 1.386 . S
C234 C236 1.397 . S
C234 H258 0.931 . S
C235 C234 1.386 . S
C235 C239 1.397 . S
C236 C234 1.397 . S
C236 C237 1.384 . S
C236 H259 0.930 . S
C237 C236 1.384 . S
C237 C238 1.377 . S
C237 C240 1.481 . S
C238 C237 1.377 . S
C238 C239 1.389 . S
C238 H260 0.929 . S
C239 C235 1.397 . S
C239 C238 1.389 . S
C239 H261 0.931 . S
C240 C237 1.481 . S
C240 C241 1.387 . S
C240 C245 1.390 . S
C241 C240 1.387 . S
C241 C242 1.401 . S
C241 H262 0.930 . S
C242 C241 1.401 . S
C242 C243 1.376 . S
C242 C251 1.511 . S
C243 C242 1.376 . S
C243 C244 1.392 . S
C243 H264 0.931 . S
C244 C243 1.392 . S
C244 C245 1.361 . S
C244 C246 1.500 . S
C245 C240 1.390 . S
C245 C244 1.361 . S
C245 H263 0.931 . S
C246 C244 1.500 . S
C246 C247 1.371 . S
C246 C248 1.365 . S
C247 C246 1.371 . S
C247 C257 1.386 . S
C247 H265 0.931 . S
C248 C246 1.365 . S
C248 C249 1.409 . S
C248 H266 0.929 . S
C249 C248 1.409 . S
C249 C250 1.380 . S
C249 H267 0.930 . S
C250 C249 1.380 . S
C250 C257 1.357 . S
C251 C242 1.511 . S
C251 C252 1.341 . S
C251 C253 1.371 . S
C252 C251 1.341 . S
C252 C256 1.394 . S
C252 H268 0.930 . S
C253 C251 1.371 . S
C253 C254 1.392 . S
C253 H269 0.931 . S
C254 C253 1.392 . S
C254 C255 1.331 . S
C254 H272 0.932 . S
C255 C254 1.331 . S
C255 C256 1.336 . S
C256 C252 1.394 . S
C256 C255 1.336 . S
C256 H271 0.929 . S
C257 C247 1.386 . S
C257 C250 1.357 . S
C257 H270 0.928 . S
H258 C234 0.931 . S
H259 C236 0.930 . S
H260 C238 0.929 . S
H261 C239 0.931 . S
H262 C241 0.930 . S
H263 C245 0.931 . S
H264 C243 0.931 . S
H265 C247 0.931 . S
H266 C248 0.929 . S
H267 C249 0.930 . S
H268 C252 0.930 . S
H269 C253 0.931 . S
H270 C257 0.928 . S
H271 C256 0.929 . S
H272 C254 0.932 . S
C273 C274 1.386 . S
C273 C275 1.397 . S
C273 H297 0.931 . S
C274 C273 1.386 . S
C274 C278 1.397 . S
C275 C273 1.397 . S
C275 C276 1.384 . S
C275 H298 0.930 . S
C276 C275 1.384 . S
C276 C277 1.377 . S
C276 C279 1.481 . S
C277 C276 1.377 . S
C277 C278 1.389 . S
C277 H299 0.929 . S
C278 C274 1.397 . S
C278 C277 1.389 . S
C278 H300 0.931 . S
C279 C276 1.481 . S
C279 C280 1.387 . S
C279 C284 1.390 . S
C280 C279 1.387 . S
C280 C281 1.401 . S
C280 H301 0.930 . S
C281 C280 1.401 . S
C281 C282 1.376 . S
C281 C290 1.511 . S
C282 C281 1.376 . S
C282 C283 1.392 . S
C282 H303 0.931 . S
C283 C282 1.392 . S
C283 C284 1.361 . S
C283 C285 1.500 . S
C284 C279 1.390 . S
C284 C283 1.361 . S
C284 H302 0.931 . S
C285 C283 1.500 . S
C285 C286 1.371 . S
C285 C287 1.365 . S
C286 C285 1.371 . S
C286 C296 1.386 . S
C286 H304 0.931 . S
C287 C285 1.365 . S
C287 C288 1.409 . S
C287 H305 0.929 . S
C288 C287 1.409 . S
C288 C289 1.380 . S
C288 H306 0.930 . S
C289 C288 1.380 . S
C289 C296 1.357 . S
C290 C281 1.511 . S
C290 C291 1.341 . S
C290 C292 1.371 . S
C291 C290 1.341 . S
C291 C295 1.394 . S
C291 H307 0.930 . S
C292 C290 1.371 . S
C292 C293 1.392 . S
C292 H308 0.931 . S
C293 C292 1.392 . S
C293 C294 1.331 . S
C293 H311 0.932 . S
C294 C293 1.331 . S
C294 C295 1.336 . S
C295 C291 1.394 . S
C295 C294 1.336 . S
C295 H310 0.929 . S
C296 C286 1.386 . S
C296 C289 1.357 . S
C296 H309 0.928 . S
H297 C273 0.931 . S
H298 C275 0.930 . S
H299 C277 0.929 . S
H300 C278 0.931 . S
H301 C280 0.930 . S
H302 C284 0.931 . S
H303 C282 0.931 . S
H304 C286 0.931 . S
H305 C287 0.929 . S
H306 C288 0.930 . S
H307 C291 0.930 . S
H308 C292 0.931 . S
H309 C296 0.928 . S
H310 C295 0.929 . S
H311 C293 0.932 . S
C312 C313 1.386 . S
C312 C314 1.397 . S
C312 H336 0.931 . S
C313 C312 1.386 . S
C313 C317 1.397 . S
C314 C312 1.397 . S
C314 C315 1.384 . S
C314 H337 0.930 . S
C315 C314 1.384 . S
C315 C316 1.377 . S
C315 C318 1.481 . S
C316 C315 1.377 . S
C316 C317 1.389 . S
C316 H338 0.929 . S
C317 C313 1.397 . S
C317 C316 1.389 . S
C317 H339 0.931 . S
C318 C315 1.481 . S
C318 C319 1.387 . S
C318 C323 1.390 . S
C319 C318 1.387 . S
C319 C320 1.401 . S
C319 H340 0.930 . S
C320 C319 1.401 . S
C320 C321 1.376 . S
C320 C329 1.511 . S
C321 C320 1.376 . S
C321 C322 1.392 . S
C321 H342 0.931 . S
C322 C321 1.392 . S
C322 C323 1.361 . S
C322 C324 1.500 . S
C323 C318 1.390 . S
C323 C322 1.361 . S
C323 H341 0.931 . S
C324 C322 1.500 . S
C324 C325 1.371 . S
C324 C326 1.365 . S
C325 C324 1.371 . S
C325 C335 1.386 . S
C325 H343 0.931 . S
C326 C324 1.365 . S
C326 C327 1.409 . S
C326 H344 0.929 . S
C327 C326 1.409 . S
C327 C328 1.380 . S
C327 H345 0.930 . S
C328 C327 1.380 . S
C328 C335 1.357 . S
C329 C320 1.511 . S
C329 C330 1.341 . S
C329 C331 1.371 . S
C330 C329 1.341 . S
C330 C334 1.394 . S
C330 H346 0.930 . S
C331 C329 1.371 . S
C331 C332 1.392 . S
C331 H347 0.931 . S
C332 C331 1.392 . S
C332 C333 1.331 . S
C332 H350 0.932 . S
C333 C332 1.331 . S
C333 C334 1.336 . S
C334 C330 1.394 . S
C334 C333 1.336 . S
C334 H349 0.929 . S
C335 C325 1.386 . S
C335 C328 1.357 . S
C335 H348 0.928 . S
H336 C312 0.931 . S
H337 C314 0.930 . S
H338 C316 0.929 . S
H339 C317 0.931 . S
H340 C319 0.930 . S
H341 C323 0.931 . S
H342 C321 0.931 . S
H343 C325 0.931 . S
H344 C326 0.929 . S
H345 C327 0.930 . S
H346 C330 0.930 . S
H347 C331 0.931 . S
H348 C335 0.928 . S
H349 C334 0.929 . S
H350 C332 0.932 . S
C351 C352 1.386 . S
C351 C353 1.397 . S
C351 H375 0.931 . S
C352 C351 1.386 . S
C352 C356 1.397 . S
C353 C351 1.397 . S
C353 C354 1.384 . S
C353 H376 0.930 . S
C354 C353 1.384 . S
C354 C355 1.377 . S
C354 C357 1.481 . S
C355 C354 1.377 . S
C355 C356 1.389 . S
C355 H377 0.929 . S
C356 C352 1.397 . S
C356 C355 1.389 . S
C356 H378 0.931 . S
C357 C354 1.481 . S
C357 C358 1.387 . S
C357 C362 1.390 . S
C358 C357 1.387 . S
C358 C359 1.401 . S
C358 H379 0.930 . S
C359 C358 1.401 . S
C359 C360 1.376 . S
C359 C368 1.511 . S
C360 C359 1.376 . S
C360 C361 1.392 . S
C360 H381 0.931 . S
C361 C360 1.392 . S
C361 C362 1.361 . S
C361 C363 1.500 . S
C362 C357 1.390 . S
C362 C361 1.361 . S
C362 H380 0.931 . S
C363 C361 1.500 . S
C363 C364 1.371 . S
C363 C365 1.365 . S
C364 C363 1.371 . S
C364 C374 1.386 . S
C364 H382 0.931 . S
C365 C363 1.365 . S
C365 C366 1.409 . S
C365 H383 0.929 . S
C366 C365 1.409 . S
C366 C367 1.380 . S
C366 H384 0.930 . S
C367 C366 1.380 . S
C367 C374 1.357 . S
C368 C359 1.511 . S
C368 C369 1.341 . S
C368 C370 1.371 . S
C369 C368 1.341 . S
C369 C373 1.394 . S
C369 H385 0.930 . S
C370 C368 1.371 . S
C370 C371 1.392 . S
C370 H386 0.931 . S
C371 C370 1.392 . S
C371 C372 1.331 . S
C371 H389 0.932 . S
C372 C371 1.331 . S
C372 C373 1.336 . S
C373 C369 1.394 . S
C373 C372 1.336 . S
C373 H388 0.929 . S
C374 C364 1.386 . S
C374 C367 1.357 . S
C374 H387 0.928 . S
H375 C351 0.931 . S
H376 C353 0.930 . S
H377 C355 0.929 . S
H378 C356 0.931 . S
H379 C358 0.930 . S
H380 C362 0.931 . S
H381 C360 0.931 . S
H382 C364 0.931 . S
H383 C365 0.929 . S
H384 C366 0.930 . S
H385 C369 0.930 . S
H386 C370 0.931 . S
H387 C374 0.928 . S
H388 C373 0.929 . S
H389 C371 0.932 . S
C390 C391 1.386 . S
C390 C392 1.397 . S
C390 H414 0.931 . S
C391 C390 1.386 . S
C391 C395 1.397 . S
C392 C390 1.397 . S
C392 C393 1.384 . S
C392 H415 0.930 . S
C393 C392 1.384 . S
C393 C394 1.377 . S
C393 C396 1.481 . S
C394 C393 1.377 . S
C394 C395 1.389 . S
C394 H416 0.929 . S
C395 C391 1.397 . S
C395 C394 1.389 . S
C395 H417 0.931 . S
C396 C393 1.481 . S
C396 C397 1.387 . S
C396 C401 1.390 . S
C397 C396 1.387 . S
C397 C398 1.401 . S
C397 H418 0.930 . S
C398 C397 1.401 . S
C398 C399 1.376 . S
C398 C407 1.511 . S
C399 C398 1.376 . S
C399 C400 1.392 . S
C399 H420 0.931 . S
C400 C399 1.392 . S
C400 C401 1.361 . S
C400 C402 1.500 . S
C401 C396 1.390 . S
C401 C400 1.361 . S
C401 H419 0.931 . S
C402 C400 1.500 . S
C402 C403 1.371 . S
C402 C404 1.365 . S
C403 C402 1.371 . S
C403 C413 1.386 . S
C403 H421 0.931 . S
C404 C402 1.365 . S
C404 C405 1.409 . S
C404 H422 0.929 . S
C405 C404 1.409 . S
C405 C406 1.380 . S
C405 H423 0.930 . S
C406 C405 1.380 . S
C406 C413 1.357 . S
C407 C398 1.511 . S
C407 C408 1.341 . S
C407 C409 1.371 . S
C408 C407 1.341 . S
C408 C412 1.394 . S
C408 H424 0.930 . S
C409 C407 1.371 . S
C409 C410 1.392 . S
C409 H425 0.931 . S
C410 C409 1.392 . S
C410 C411 1.331 . S
C410 H428 0.932 . S
C411 C410 1.331 . S
C411 C412 1.336 . S
C412 C408 1.394 . S
C412 C411 1.336 . S
C412 H427 0.929 . S
C413 C403 1.386 . S
C413 C406 1.357 . S
C413 H426 0.928 . S
H414 C390 0.931 . S
H415 C392 0.930 . S
H416 C394 0.929 . S
H417 C395 0.931 . S
H418 C397 0.930 . S
H419 C401 0.931 . S
H420 C399 0.931 . S
H421 C403 0.931 . S
H422 C404 0.929 . S
H423 C405 0.930 . S
H424 C408 0.930 . S
H425 C409 0.931 . S
H426 C413 0.928 . S
H427 C412 0.929 . S
H428 C410 0.932 . S
C429 C430 1.386 . S
C429 C431 1.397 . S
C429 H453 0.931 . S
C430 C429 1.386 . S
C430 C434 1.397 . S
C431 C429 1.397 . S
C431 C432 1.384 . S
C431 H454 0.930 . S
C432 C431 1.384 . S
C432 C433 1.377 . S
C432 C435 1.481 . S
C433 C432 1.377 . S
C433 C434 1.389 . S
C433 H455 0.929 . S
C434 C430 1.397 . S
C434 C433 1.389 . S
C434 H456 0.931 . S
C435 C432 1.481 . S
C435 C436 1.387 . S
C435 C440 1.390 . S
C436 C435 1.387 . S
C436 C437 1.401 . S
C436 H457 0.930 . S
C437 C436 1.401 . S
C437 C438 1.376 . S
C437 C446 1.511 . S
C438 C437 1.376 . S
C438 C439 1.392 . S
C438 H459 0.931 . S
C439 C438 1.392 . S
C439 C440 1.361 . S
C439 C441 1.500 . S
C440 C435 1.390 . S
C440 C439 1.361 . S
C440 H458 0.931 . S
C441 C439 1.500 . S
C441 C442 1.371 . S
C441 C443 1.365 . S
C442 C441 1.371 . S
C442 C452 1.386 . S
C442 H460 0.931 . S
C443 C441 1.365 . S
C443 C444 1.409 . S
C443 H461 0.929 . S
C444 C443 1.409 . S
C444 C445 1.380 . S
C444 H462 0.930 . S
C445 C444 1.380 . S
C445 C452 1.357 . S
C446 C437 1.511 . S
C446 C447 1.341 . S
C446 C448 1.371 . S
C447 C446 1.341 . S
C447 C451 1.394 . S
C447 H463 0.930 . S
C448 C446 1.371 . S
C448 C449 1.392 . S
C448 H464 0.931 . S
C449 C448 1.392 . S
C449 C450 1.331 . S
C449 H467 0.932 . S
C450 C449 1.331 . S
C450 C451 1.336 . S
C451 C447 1.394 . S
C451 C450 1.336 . S
C451 H466 0.929 . S
C452 C442 1.386 . S
C452 C445 1.357 . S
C452 H465 0.928 . S
H453 C429 0.931 . S
H454 C431 0.930 . S
H455 C433 0.929 . S
H456 C434 0.931 . S
H457 C436 0.930 . S
H458 C440 0.931 . S
H459 C438 0.931 . S
H460 C442 0.931 . S
H461 C443 0.929 . S
H462 C444 0.930 . S
H463 C447 0.930 . S
H464 C448 0.931 . S
H465 C452 0.928 . S
H466 C451 0.929 . S
H467 C449 0.932 . S
C468 C469 1.386 . S
C468 C470 1.397 . S
C468 H492 0.931 . S
C469 C468 1.386 . S
C469 C473 1.397 . S
C470 C468 1.397 . S
C470 C471 1.384 . S
C470 H493 0.930 . S
C471 C470 1.384 . S
C471 C472 1.377 . S
C471 C474 1.481 . S
C472 C471 1.377 . S
C472 C473 1.389 . S
C472 H494 0.929 . S
C473 C469 1.397 . S
C473 C472 1.389 . S
C473 H495 0.931 . S
C474 C471 1.481 . S
C474 C475 1.387 . S
C474 C479 1.390 . S
C475 C474 1.387 . S
C475 C476 1.401 . S
C475 H496 0.930 . S
C476 C475 1.401 . S
C476 C477 1.376 . S
C476 C485 1.511 . S
C477 C476 1.376 . S
C477 C478 1.392 . S
C477 H498 0.931 . S
C478 C477 1.392 . S
C478 C479 1.361 . S
C478 C480 1.500 . S
C479 C474 1.390 . S
C479 C478 1.361 . S
C479 H497 0.931 . S
C480 C478 1.500 . S
C480 C481 1.371 . S
C480 C482 1.365 . S
C481 C480 1.371 . S
C481 C491 1.386 . S
C481 H499 0.931 . S
C482 C480 1.365 . S
C482 C483 1.409 . S
C482 H500 0.929 . S
C483 C482 1.409 . S
C483 C484 1.380 . S
C483 H501 0.930 . S
C484 C483 1.380 . S
C484 C491 1.357 . S
C485 C476 1.511 . S
C485 C486 1.341 . S
C485 C487 1.371 . S
C486 C485 1.341 . S
C486 C490 1.394 . S
C486 H502 0.930 . S
C487 C485 1.371 . S
C487 C488 1.392 . S
C487 H503 0.931 . S
C488 C487 1.392 . S
C488 C489 1.331 . S
C488 H506 0.932 . S
C489 C488 1.331 . S
C489 C490 1.336 . S
C490 C486 1.394 . S
C490 C489 1.336 . S
C490 H505 0.929 . S
C491 C481 1.386 . S
C491 C484 1.357 . S
C491 H504 0.928 . S
H492 C468 0.931 . S
H493 C470 0.930 . S
H494 C472 0.929 . S
H495 C473 0.931 . S
H496 C475 0.930 . S
H497 C479 0.931 . S
H498 C477 0.931 . S
H499 C481 0.931 . S
H500 C482 0.929 . S
H501 C483 0.930 . S
H502 C486 0.930 . S
H503 C487 0.931 . S
H504 C491 0.928 . S
H505 C490 0.929 . S
H506 C488 0.932 . S
C507 C508 1.386 . S
C507 C509 1.397 . S
C507 H531 0.931 . S
C508 C507 1.386 . S
C508 C512 1.397 . S
C509 C507 1.397 . S
C509 C510 1.384 . S
C509 H532 0.930 . S
C510 C509 1.384 . S
C510 C511 1.377 . S
C510 C513 1.481 . S
C511 C510 1.377 . S
C511 C512 1.389 . S
C511 H533 0.929 . S
C512 C508 1.397 . S
C512 C511 1.389 . S
C512 H534 0.931 . S
C513 C510 1.481 . S
C513 C514 1.387 . S
C513 C518 1.390 . S
C514 C513 1.387 . S
C514 C515 1.401 . S
C514 H535 0.930 . S
C515 C514 1.401 . S
C515 C516 1.376 . S
C515 C524 1.511 . S
C516 C515 1.376 . S
C516 C517 1.392 . S
C516 H537 0.931 . S
C517 C516 1.392 . S
C517 C518 1.361 . S
C517 C519 1.500 . S
C518 C513 1.390 . S
C518 C517 1.361 . S
C518 H536 0.931 . S
C519 C517 1.500 . S
C519 C520 1.371 . S
C519 C521 1.365 . S
C520 C519 1.371 . S
C520 C530 1.386 . S
C520 H538 0.931 . S
C521 C519 1.365 . S
C521 C522 1.409 . S
C521 H539 0.929 . S
C522 C521 1.409 . S
C522 C523 1.380 . S
C522 H540 0.930 . S
C523 C522 1.380 . S
C523 C530 1.357 . S
C524 C515 1.511 . S
C524 C525 1.341 . S
C524 C526 1.371 . S
C525 C524 1.341 . S
C525 C529 1.394 . S
C525 H541 0.930 . S
C526 C524 1.371 . S
C526 C527 1.392 . S
C526 H542 0.931 . S
C527 C526 1.392 . S
C527 C528 1.331 . S
C527 H545 0.932 . S
C528 C527 1.331 . S
C528 C529 1.336 . S
C529 C525 1.394 . S
C529 C528 1.336 . S
C529 H544 0.929 . S
C530 C520 1.386 . S
C530 C523 1.357 . S
C530 H543 0.928 . S
H531 C507 0.931 . S
H532 C509 0.930 . S
H533 C511 0.929 . S
H534 C512 0.931 . S
H535 C514 0.930 . S
H536 C518 0.931 . S
H537 C516 0.931 . S
H538 C520 0.931 . S
H539 C521 0.929 . S
H540 C522 0.930 . S
H541 C525 0.930 . S
H542 C526 0.931 . S
H543 C530 0.928 . S
H544 C529 0.929 . S
H545 C527 0.932 . S
C546 C547 1.386 . S
C546 C548 1.397 . S
C546 H570 0.931 . S
C547 C546 1.386 . S
C547 C551 1.397 . S
C548 C546 1.397 . S
C548 C549 1.384 . S
C548 H571 0.930 . S
C549 C548 1.384 . S
C549 C550 1.377 . S
C549 C552 1.481 . S
C550 C549 1.377 . S
C550 C551 1.389 . S
C550 H572 0.929 . S
C551 C547 1.397 . S
C551 C550 1.389 . S
C551 H573 0.931 . S
C552 C549 1.481 . S
C552 C553 1.387 . S
C552 C557 1.390 . S
C553 C552 1.387 . S
C553 C554 1.401 . S
C553 H574 0.930 . S
C554 C553 1.401 . S
C554 C555 1.376 . S
C554 C563 1.511 . S
C555 C554 1.376 . S
C555 C556 1.392 . S
C555 H576 0.931 . S
C556 C555 1.392 . S
C556 C557 1.361 . S
C556 C558 1.500 . S
C557 C552 1.390 . S
C557 C556 1.361 . S
C557 H575 0.931 . S
C558 C556 1.500 . S
C558 C559 1.371 . S
C558 C560 1.365 . S
C559 C558 1.371 . S
C559 C569 1.386 . S
C559 H577 0.931 . S
C560 C558 1.365 . S
C560 C561 1.409 . S
C560 H578 0.929 . S
C561 C560 1.409 . S
C561 C562 1.380 . S
C561 H579 0.930 . S
C562 C561 1.380 . S
C562 C569 1.357 . S
C563 C554 1.511 . S
C563 C564 1.341 . S
C563 C565 1.371 . S
C564 C563 1.341 . S
C564 C568 1.394 . S
C564 H580 0.930 . S
C565 C563 1.371 . S
C565 C566 1.392 . S
C565 H581 0.931 . S
C566 C565 1.392 . S
C566 C567 1.331 . S
C566 H584 0.932 . S
C567 C566 1.331 . S
C567 C568 1.336 . S
C568 C564 1.394 . S
C568 C567 1.336 . S
C568 H583 0.929 . S
C569 C559 1.386 . S
C569 C562 1.357 . S
C569 H582 0.928 . S
H570 C546 0.931 . S
H571 C548 0.930 . S
H572 C550 0.929 . S
H573 C551 0.931 . S
H574 C553 0.930 . S
H575 C557 0.931 . S
H576 C555 0.931 . S
H577 C559 0.931 . S
H578 C560 0.929 . S
H579 C561 0.930 . S
H580 C564 0.930 . S
H581 C565 0.931 . S
H582 C569 0.928 . S
H583 C568 0.929 . S
H584 C566 0.932 . S
C585 C586 1.386 . S
C585 C587 1.397 . S
C585 H609 0.931 . S
C586 C585 1.386 . S
C586 C590 1.397 . S
C587 C585 1.397 . S
C587 C588 1.384 . S
C587 H610 0.930 . S
C588 C587 1.384 . S
C588 C589 1.377 . S
C588 C591 1.481 . S
C589 C588 1.377 . S
C589 C590 1.389 . S
C589 H611 0.929 . S
C590 C586 1.397 . S
C590 C589 1.389 . S
C590 H612 0.931 . S
C591 C588 1.481 . S
C591 C592 1.387 . S
C591 C596 1.390 . S
C592 C591 1.387 . S
C592 C593 1.401 . S
C592 H613 0.930 . S
C593 C592 1.401 . S
C593 C594 1.376 . S
C593 C602 1.511 . S
C594 C593 1.376 . S
C594 C595 1.392 . S
C594 H615 0.931 . S
C595 C594 1.392 . S
C595 C596 1.361 . S
C595 C597 1.500 . S
C596 C591 1.390 . S
C596 C595 1.361 . S
C596 H614 0.931 . S
C597 C595 1.500 . S
C597 C598 1.371 . S
C597 C599 1.365 . S
C598 C597 1.371 . S
C598 C608 1.386 . S
C598 H616 0.931 . S
C599 C597 1.365 . S
C599 C600 1.409 . S
C599 H617 0.929 . S
C600 C599 1.409 . S
C600 C601 1.380 . S
C600 H618 0.930 . S
C601 C600 1.380 . S
C601 C608 1.357 . S
C602 C593 1.511 . S
C602 C603 1.341 . S
C602 C604 1.371 . S
C603 C602 1.341 . S
C603 C607 1.394 . S
C603 H619 0.930 . S
C604 C602 1.371 . S
C604 C605 1.392 . S
C604 H620 0.931 . S
C605 C604 1.392 . S
C605 C606 1.331 . S
C605 H623 0.932 . S
C606 C605 1.331 . S
C606 C607 1.336 . S
C607 C603 1.394 . S
C607 C606 1.336 . S
C607 H622 0.929 . S
C608 C598 1.386 . S
C608 C601 1.357 . S
C608 H621 0.928 . S
H609 C585 0.931 . S
H610 C587 0.930 . S
H611 C589 0.929 . S
H612 C590 0.931 . S
H613 C592 0.930 . S
H614 C596 0.931 . S
H615 C594 0.931 . S
H616 C598 0.931 . S
H617 C599 0.929 . S
H618 C600 0.930 . S
H619 C603 0.930 . S
H620 C604 0.931 . S
H621 C608 0.928 . S
H622 C607 0.929 . S
H623 C605 0.932 . S
C624 C625 1.386 . S
C624 C626 1.397 . S
C624 H648 0.931 . S
C625 C624 1.386 . S
C625 C629 1.397 . S
C626 C624 1.397 . S
C626 C627 1.384 . S
C626 H649 0.930 . S
C627 C626 1.384 . S
C627 C628 1.377 . S
C627 C630 1.481 . S
C628 C627 1.377 . S
C628 C629 1.389 . S
C628 H650 0.929 . S
C629 C625 1.397 . S
C629 C628 1.389 . S
C629 H651 0.931 . S
C630 C627 1.481 . S
C630 C631 1.387 . S
C630 C635 1.390 . S
C631 C630 1.387 . S
C631 C632 1.401 . S
C631 H652 0.930 . S
C632 C631 1.401 . S
C632 C633 1.376 . S
C632 C641 1.511 . S
C633 C632 1.376 . S
C633 C634 1.392 . S
C633 H654 0.931 . S
C634 C633 1.392 . S
C634 C635 1.361 . S
C634 C636 1.500 . S
C635 C630 1.390 . S
C635 C634 1.361 . S
C635 H653 0.931 . S
C636 C634 1.500 . S
C636 C637 1.371 . S
C636 C638 1.365 . S
C637 C636 1.371 . S
C637 C647 1.386 . S
C637 H655 0.931 . S
C638 C636 1.365 . S
C638 C639 1.409 . S
C638 H656 0.929 . S
C639 C638 1.409 . S
C639 C640 1.380 . S
C639 H657 0.930 . S
C640 C639 1.380 . S
C640 C647 1.357 . S
C641 C632 1.511 . S
C641 C642 1.341 . S
C641 C643 1.371 . S
C642 C641 1.341 . S
C642 C646 1.394 . S
C642 H658 0.930 . S
C643 C641 1.371 . S
C643 C644 1.392 . S
C643 H659 0.931 . S
C644 C643 1.392 . S
C644 C645 1.331 . S
C644 H662 0.932 . S
C645 C644 1.331 . S
C645 C646 1.336 . S
C646 C642 1.394 . S
C646 C645 1.336 . S
C646 H661 0.929 . S
C647 C637 1.386 . S
C647 C640 1.357 . S
C647 H660 0.928 . S
H648 C624 0.931 . S
H649 C626 0.930 . S
H650 C628 0.929 . S
H651 C629 0.931 . S
H652 C631 0.930 . S
H653 C635 0.931 . S
H654 C633 0.931 . S
H655 C637 0.931 . S
H656 C638 0.929 . S
H657 C639 0.930 . S
H658 C642 0.930 . S
H659 C643 0.931 . S
H660 C647 0.928 . S
H661 C646 0.929 . S
H662 C644 0.932 . S
C663 C664 1.386 . S
C663 C665 1.397 . S
C663 H687 0.931 . S
C664 C663 1.386 . S
C664 C668 1.397 . S
C665 C663 1.397 . S
C665 C666 1.384 . S
C665 H688 0.930 . S
C666 C665 1.384 . S
C666 C667 1.377 . S
C666 C669 1.481 . S
C667 C666 1.377 . S
C667 C668 1.389 . S
C667 H689 0.929 . S
C668 C664 1.397 . S
C668 C667 1.389 . S
C668 H690 0.931 . S
C669 C666 1.481 . S
C669 C670 1.387 . S
C669 C674 1.390 . S
C670 C669 1.387 . S
C670 C671 1.401 . S
C670 H691 0.930 . S
C671 C670 1.401 . S
C671 C672 1.376 . S
C671 C680 1.511 . S
C672 C671 1.376 . S
C672 C673 1.392 . S
C672 H693 0.931 . S
C673 C672 1.392 . S
C673 C674 1.361 . S
C673 C675 1.500 . S
C674 C669 1.390 . S
C674 C673 1.361 . S
C674 H692 0.931 . S
C675 C673 1.500 . S
C675 C676 1.371 . S
C675 C677 1.365 . S
C676 C675 1.371 . S
C676 C686 1.386 . S
C676 H694 0.931 . S
C677 C675 1.365 . S
C677 C678 1.409 . S
C677 H695 0.929 . S
C678 C677 1.409 . S
C678 C679 1.380 . S
C678 H696 0.930 . S
C679 C678 1.380 . S
C679 C686 1.357 . S
C680 C671 1.511 . S
C680 C681 1.341 . S
C680 C682 1.371 . S
C681 C680 1.341 . S
C681 C685 1.394 . S
C681 H697 0.930 . S
C682 C680 1.371 . S
C682 C683 1.392 . S
C682 H698 0.931 . S
C683 C682 1.392 . S
C683 C684 1.331 . S
C683 H701 0.932 . S
C684 C683 1.331 . S
C684 C685 1.336 . S
C685 C681 1.394 . S
C685 C684 1.336 . S
C685 H700 0.929 . S
C686 C676 1.386 . S
C686 C679 1.357 . S
C686 H699 0.928 . S
H687 C663 0.931 . S
H688 C665 0.930 . S
H689 C667 0.929 . S
H690 C668 0.931 . S
H691 C670 0.930 . S
H692 C674 0.931 . S
H693 C672 0.931 . S
H694 C676 0.931 . S
H695 C677 0.929 . S
H696 C678 0.930 . S
H697 C681 0.930 . S
H698 C682 0.931 . S
H699 C686 0.928 . S
H700 C685 0.929 . S
H701 C683 0.932 . S
O702 Mn703 2.163 1_565 S
O702 C716 1.244 . S
Mn703 O702 2.163 1_545 S
Mn703 O706 2.160 . S
Mn703 O707 2.221 1_545 S
Mn703 O709 2.163 1_554 S
Mn703 O711 2.160 . S
Mn703 O721 2.221 . S
O704 Mn705 2.087 1_565 S
O704 C716 1.256 . S
Mn705 O704 2.087 1_545 S
Mn705 O712 2.089 . S
Mn705 O721 2.290 . S
Mn705 O722 2.251 . S
O706 Mn703 2.160 . S
O706 C717 1.239 1_554 S
O707 Mn703 2.221 1_565 S
O707 Mn708 2.290 1_554 S
O707 C718 1.278 . S
Mn708 O707 2.290 1_556 S
Mn708 O710 2.089 1_565 S
Mn708 O713 2.251 . S
Mn708 O714 2.087 . S
O709 Mn703 2.163 1_556 S
O709 C719 1.244 . S
O710 Mn708 2.089 1_545 S
O710 C717 1.256 . S
O711 Mn703 2.160 . S
O711 C720 1.239 . S
O712 Mn705 2.089 . S
O712 C720 1.256 . S
O713 Mn708 2.251 . S
O713 C718 1.241 1_556 S
O714 Mn708 2.087 . S
O714 C719 1.256 1_565 S
C715 O721 1.278 . S
C715 O722 1.241 . S
C716 O702 1.244 . S
C716 O704 1.256 . S
C717 O706 1.239 1_556 S
C717 O710 1.256 . S
C718 O707 1.278 . S
C718 O713 1.241 1_554 S
C719 O709 1.244 . S
C719 O714 1.256 1_545 S
C720 O711 1.239 . S
C720 O712 1.256 . S
O721 Mn703 2.221 . S
O721 Mn705 2.290 . S
O721 C715 1.278 . S
O722 Mn705 2.251 . S
O722 C715 1.241 . S
O723 Mn724 2.134 1_455 S
O723 C737 1.244 . S
Mn724 O723 2.134 1_655 S
Mn724 O727 2.188 . S
Mn724 O728 2.219 1_655 S
Mn724 O730 2.162 1_554 S
Mn724 O732 2.162 . S
Mn724 O742 2.226 . S
O725 Mn726 2.087 1_455 S
O725 C737 1.256 . S
Mn726 O725 2.087 1_655 S
Mn726 O733 2.089 1_655 S
Mn726 O742 2.290 . S
Mn726 O743 2.251 . S
O727 Mn724 2.188 . S
O727 C738 1.239 1_554 S
O728 Mn724 2.219 1_455 S
O728 Mn729 2.290 1_554 S
O728 C739 1.278 . S
Mn729 O728 2.290 1_556 S
Mn729 O731 2.089 1_455 S
Mn729 O734 2.251 . S
Mn729 O735 2.087 . S
O730 Mn724 2.162 1_556 S
O730 C740 1.249 1_655 S
O731 Mn729 2.089 1_655 S
O731 C738 1.256 . S
O732 Mn724 2.162 . S
O732 C741 1.239 1_655 S
O733 Mn726 2.089 1_455 S
O733 C741 1.256 . S
O734 Mn729 2.251 . S
O734 C739 1.241 1_556 S
O735 Mn729 2.087 . S
O735 C740 1.254 . S
C736 O742 1.278 . S
C736 O743 1.241 . S
C737 O723 1.244 . S
C737 O725 1.256 . S
C738 O727 1.239 1_556 S
C738 O731 1.256 . S
C739 O728 1.278 . S
C739 O734 1.241 1_554 S
C740 O730 1.249 1_455 S
C740 O735 1.254 . S
C741 O732 1.239 1_455 S
C741 O733 1.256 . S
O742 Mn724 2.226 . S
O742 Mn726 2.290 . S
O742 C736 1.278 . S
O743 Mn726 2.251 . S
O743 C736 1.241 . S
O744 Mn745 2.158 1_556 S
O744 C758 1.267 . S
Mn745 O744 2.158 1_554 S
Mn745 O748 2.162 . S
Mn745 O749 2.225 . S
Mn745 O751 2.207 . S
Mn745 O753 2.115 1_554 S
Mn745 O763 2.216 1_554 S
O746 Mn747 2.087 . S
O746 C758 1.256 . S
Mn747 O746 2.087 . S
Mn747 O754 2.089 . S
Mn747 O763 2.290 . S
Mn747 O764 2.251 1_556 S
O748 Mn745 2.162 . S
O748 C759 1.239 . S
O749 Mn745 2.225 . S
O749 Mn750 2.290 . S
O749 C760 1.278 . S
Mn750 O749 2.290 . S
Mn750 O752 2.089 . S
Mn750 O755 2.251 . S
Mn750 O756 2.087 . S
O751 Mn745 2.207 . S
O751 C761 1.244 . S
O752 Mn750 2.089 . S
O752 C759 1.256 . S
O753 Mn745 2.115 1_556 S
O753 C762 1.239 . S
O754 Mn747 2.089 . S
O754 C762 1.256 . S
O755 Mn750 2.251 . S
O755 C760 1.241 . S
O756 Mn750 2.087 . S
O756 C761 1.256 . S
C757 O763 1.278 1_554 S
C757 O764 1.241 . S
C758 O744 1.267 . S
C758 O746 1.256 . S
C759 O748 1.239 . S
C759 O752 1.256 . S
C760 O749 1.278 . S
C760 O755 1.241 . S
C761 O751 1.244 . S
C761 O756 1.256 . S
C762 O753 1.239 . S
C762 O754 1.256 . S
O763 Mn745 2.216 1_556 S
O763 Mn747 2.290 . S
O763 C757 1.278 1_556 S
O764 Mn747 2.251 1_554 S
O764 C757 1.241 . S
O765 Mn766 2.163 . S
O765 C779 1.244 . S
Mn766 O765 2.163 . S
Mn766 O769 2.160 . S
Mn766 O770 2.221 . S
Mn766 O772 2.163 . S
Mn766 O774 2.160 . S
Mn766 O784 2.221 . S
O767 Mn768 2.087 . S
O767 C779 1.256 . S
Mn768 O767 2.087 . S
Mn768 O775 2.089 . S
Mn768 O784 2.290 . S
Mn768 O785 2.251 . S
O769 Mn766 2.160 . S
O769 C780 1.239 . S
O770 Mn766 2.221 . S
O770 Mn771 2.290 . S
O770 C781 1.278 . S
Mn771 O770 2.290 . S
Mn771 O773 2.089 . S
Mn771 O776 2.251 . S
Mn771 O777 2.087 . S
O772 Mn766 2.163 . S
O772 C782 1.244 . S
O773 Mn771 2.089 . S
O773 C780 1.256 . S
O774 Mn766 2.160 . S
O774 C783 1.239 . S
O775 Mn768 2.089 . S
O775 C783 1.256 . S
O776 Mn771 2.251 . S
O776 C781 1.241 . S
O777 Mn771 2.087 . S
O777 C782 1.256 . S
C778 O784 1.278 . S
C778 O785 1.241 . S
C779 O765 1.244 . S
C779 O767 1.256 . S
C780 O769 1.239 . S
C780 O773 1.256 . S
C781 O770 1.278 . S
C781 O776 1.241 . S
C782 O772 1.244 . S
C782 O777 1.256 . S
C783 O774 1.239 . S
C783 O775 1.256 . S
O784 Mn766 2.221 . S
O784 Mn768 2.290 . S
O784 C778 1.278 . S
O785 Mn768 2.251 . S
O785 C778 1.241 . S
O786 Mn787 2.163 . S
O786 C800 1.244 . S
Mn787 O786 2.163 . S
Mn787 O790 2.160 . S
Mn787 O791 2.221 . S
Mn787 O793 2.163 . S
Mn787 O795 2.160 . S
Mn787 O805 2.221 . S
O788 Mn789 2.087 . S
O788 C800 1.256 . S
Mn789 O788 2.087 . S
Mn789 O796 2.089 . S
Mn789 O805 2.290 . S
Mn789 O806 2.251 . S
O790 Mn787 2.160 . S
O790 C801 1.239 . S
O791 Mn787 2.221 . S
O791 Mn792 2.290 . S
O791 C802 1.278 . S
Mn792 O791 2.290 . S
Mn792 O794 2.089 . S
Mn792 O797 2.251 . S
Mn792 O798 2.087 . S
O793 Mn787 2.163 . S
O793 C803 1.244 . S
O794 Mn792 2.089 . S
O794 C801 1.256 . S
O795 Mn787 2.160 . S
O795 C804 1.239 . S
O796 Mn789 2.089 . S
O796 C804 1.256 . S
O797 Mn792 2.251 . S
O797 C802 1.241 . S
O798 Mn792 2.087 . S
O798 C803 1.256 . S
C799 O805 1.278 . S
C799 O806 1.241 . S
C800 O786 1.244 . S
C800 O788 1.256 . S
C801 O790 1.239 . S
C801 O794 1.256 . S
C802 O791 1.278 . S
C802 O797 1.241 . S
C803 O793 1.244 . S
C803 O798 1.256 . S
C804 O795 1.239 . S
C804 O796 1.256 . S
O805 Mn787 2.221 . S
O805 Mn789 2.290 . S
O805 C799 1.278 . S
O806 Mn789 2.251 . S
O806 C799 1.241 . S
O807 Mn808 2.163 . S
O807 C821 1.244 . S
Mn808 O807 2.163 . S
Mn808 O811 2.160 . S
Mn808 O812 2.221 . S
Mn808 O814 2.163 . S
Mn808 O816 2.160 . S
Mn808 O826 2.221 . S
O809 Mn810 2.087 . S
O809 C821 1.256 . S
Mn810 O809 2.087 . S
Mn810 O817 2.089 . S
Mn810 O826 2.290 . S
Mn810 O827 2.251 . S
O811 Mn808 2.160 . S
O811 C822 1.239 . S
O812 Mn808 2.221 . S
O812 Mn813 2.290 . S
O812 C823 1.278 . S
Mn813 O812 2.290 . S
Mn813 O815 2.089 . S
Mn813 O818 2.251 . S
Mn813 O819 2.087 . S
O814 Mn808 2.163 . S
O814 C824 1.244 . S
O815 Mn813 2.089 . S
O815 C822 1.256 . S
O816 Mn808 2.160 . S
O816 C825 1.239 . S
O817 Mn810 2.089 . S
O817 C825 1.256 . S
O818 Mn813 2.251 . S
O818 C823 1.241 . S
O819 Mn813 2.087 . S
O819 C824 1.256 . S
C820 O826 1.278 . S
C820 O827 1.241 . S
C821 O807 1.244 . S
C821 O809 1.256 . S
C822 O811 1.239 . S
C822 O815 1.256 . S
C823 O812 1.278 . S
C823 O818 1.241 . S
C824 O814 1.244 . S
C824 O819 1.256 . S
C825 O816 1.239 . S
C825 O817 1.256 . S
O826 Mn808 2.221 . S
O826 Mn810 2.290 . S
O826 C820 1.278 . S
O827 Mn810 2.251 . S
O827 C820 1.241 . S
O828 Mn829 2.163 . S
O828 C842 1.244 . S
Mn829 O828 2.163 . S
Mn829 O832 2.160 . S
Mn829 O833 2.221 . S
Mn829 O835 2.163 . S
Mn829 O837 2.160 . S
Mn829 O847 2.221 . S
O830 Mn831 2.087 . S
O830 C842 1.256 . S
Mn831 O830 2.087 . S
Mn831 O838 2.089 . S
Mn831 O847 2.290 . S
Mn831 O848 2.251 . S
O832 Mn829 2.160 . S
O832 C843 1.239 . S
O833 Mn829 2.221 . S
O833 Mn834 2.290 . S
O833 C844 1.278 . S
Mn834 O833 2.290 . S
Mn834 O836 2.089 . S
Mn834 O839 2.251 . S
Mn834 O840 2.087 . S
O835 Mn829 2.163 . S
O835 C845 1.244 . S
O836 Mn834 2.089 . S
O836 C843 1.256 . S
O837 Mn829 2.160 . S
O837 C846 1.239 . S
O838 Mn831 2.089 . S
O838 C846 1.256 . S
O839 Mn834 2.251 . S
O839 C844 1.241 . S
O840 Mn834 2.087 . S
O840 C845 1.256 . S
C841 O847 1.278 . S
C841 O848 1.241 . S
C842 O828 1.244 . S
C842 O830 1.256 . S
C843 O832 1.239 . S
C843 O836 1.256 . S
C844 O833 1.278 . S
C844 O839 1.241 . S
C845 O835 1.244 . S
C845 O840 1.256 . S
C846 O837 1.239 . S
C846 O838 1.256 . S
O847 Mn829 2.221 . S
O847 Mn831 2.290 . S
O847 C841 1.278 . S
O848 Mn831 2.251 . S
O848 C841 1.241 . S
O849 Mn850 2.163 . S
O849 C863 1.244 . S
Mn850 O849 2.163 . S
Mn850 O853 2.160 . S
Mn850 O854 2.221 . S
Mn850 O856 2.163 . S
Mn850 O858 2.160 . S
Mn850 O868 2.221 . S
O851 Mn852 2.087 . S
O851 C863 1.256 . S
Mn852 O851 2.087 . S
Mn852 O859 2.089 . S
Mn852 O868 2.290 . S
Mn852 O869 2.251 . S
O853 Mn850 2.160 . S
O853 C864 1.239 . S
O854 Mn850 2.221 . S
O854 Mn855 2.290 . S
O854 C865 1.278 . S
Mn855 O854 2.290 . S
Mn855 O857 2.089 . S
Mn855 O860 2.251 . S
Mn855 O861 2.087 . S
O856 Mn850 2.163 . S
O856 C866 1.244 . S
O857 Mn855 2.089 . S
O857 C864 1.256 . S
O858 Mn850 2.160 . S
O858 C867 1.239 . S
O859 Mn852 2.089 . S
O859 C867 1.256 . S
O860 Mn855 2.251 . S
O860 C865 1.241 . S
O861 Mn855 2.087 . S
O861 C866 1.256 . S
C862 O868 1.278 . S
C862 O869 1.241 . S
C863 O849 1.244 . S
C863 O851 1.256 . S
C864 O853 1.239 . S
C864 O857 1.256 . S
C865 O854 1.278 . S
C865 O860 1.241 . S
C866 O856 1.244 . S
C866 O861 1.256 . S
C867 O858 1.239 . S
C867 O859 1.256 . S
O868 Mn850 2.221 . S
O868 Mn852 2.290 . S
O868 C862 1.278 . S
O869 Mn852 2.251 . S
O869 C862 1.241 . S
O870 Mn871 2.163 . S
O870 C884 1.244 . S
Mn871 O870 2.163 . S
Mn871 O874 2.160 . S
Mn871 O875 2.221 . S
Mn871 O877 2.163 . S
Mn871 O879 2.160 . S
Mn871 O889 2.221 . S
O872 Mn873 2.087 . S
O872 C884 1.256 . S
Mn873 O872 2.087 . S
Mn873 O880 2.089 . S
Mn873 O889 2.290 . S
Mn873 O890 2.251 . S
O874 Mn871 2.160 . S
O874 C885 1.239 . S
O875 Mn871 2.221 . S
O875 Mn876 2.290 . S
O875 C886 1.278 . S
Mn876 O875 2.290 . S
Mn876 O878 2.089 . S
Mn876 O881 2.251 . S
Mn876 O882 2.087 . S
O877 Mn871 2.163 . S
O877 C887 1.244 . S
O878 Mn876 2.089 . S
O878 C885 1.256 . S
O879 Mn871 2.160 . S
O879 C888 1.239 . S
O880 Mn873 2.089 . S
O880 C888 1.256 . S
O881 Mn876 2.251 . S
O881 C886 1.241 . S
O882 Mn876 2.087 . S
O882 C887 1.256 . S
C883 O889 1.278 . S
C883 O890 1.241 . S
C884 O870 1.244 . S
C884 O872 1.256 . S
C885 O874 1.239 . S
C885 O878 1.256 . S
C886 O875 1.278 . S
C886 O881 1.241 . S
C887 O877 1.244 . S
C887 O882 1.256 . S
C888 O879 1.239 . S
C888 O880 1.256 . S
O889 Mn871 2.221 . S
O889 Mn873 2.290 . S
O889 C883 1.278 . S
O890 Mn873 2.251 . S
O890 C883 1.241 . S
H891 C899 0.929 . S
H892 C901 0.930 . S
H893 C903 0.930 . S
H894 C906 0.929 . S
H895 C909 0.930 . S
H896 C911 0.960 . S
H897 C911 0.960 . S
H898 C911 0.960 . S
C899 H891 0.929 . S
C899 C900 1.377 . S
C899 C901 1.384 . S
C900 C899 1.377 . S
C900 C906 1.390 . S
C901 H892 0.930 . S
C901 C899 1.384 . S
C901 C902 1.372 . S
C902 C901 1.372 . S
C902 C903 1.400 . S
C902 C907 1.490 . S
C903 H893 0.930 . S
C903 C902 1.400 . S
C903 C906 1.386 . S
H904 C920 0.930 1_556 S
H905 C921 0.931 1_556 S
C906 H894 0.929 . S
C906 C900 1.390 . S
C906 C903 1.386 . S
C907 C902 1.490 . S
C907 C909 1.395 . S
C907 C910 1.403 . S
H908 C914 0.930 . S
C909 H895 0.930 . S
C909 C907 1.395 . S
C909 C912 1.403 . S
C910 C907 1.403 . S
C910 C911 1.524 . S
C910 C914 1.400 . S
C911 H896 0.960 . S
C911 H897 0.960 . S
C911 H898 0.960 . S
C911 C910 1.524 . S
C912 C909 1.403 . S
C912 C913 1.392 . S
C912 C916 1.495 . S
C913 C912 1.392 . S
C913 C914 1.385 . S
C913 C915 1.478 . S
C914 H908 0.930 . S
C914 C910 1.400 . S
C914 C913 1.385 . S
C915 C913 1.478 . S
C915 C917 1.381 . S
C915 C921 1.383 . S
C916 C912 1.495 . S
C916 H922 0.959 . S
C916 H923 0.961 . S
C916 H924 0.960 . S
C917 C915 1.381 . S
C917 C918 1.394 . S
C917 H925 0.930 . S
C918 C917 1.394 . S
C918 C919 1.383 . S
C918 H926 0.929 . S
C919 C918 1.383 . S
C919 C920 1.377 . S
C920 H904 0.930 1_554 S
C920 C919 1.377 . S
C920 C921 1.379 . S
C921 H905 0.931 1_554 S
C921 C915 1.383 . S
C921 C920 1.379 . S
H922 C916 0.959 . S
H923 C916 0.961 . S
H924 C916 0.960 . S
H925 C917 0.930 . S
H926 C918 0.929 . S
H927 C935 0.929 . S
H928 C937 0.930 . S
H929 C939 0.930 . S
H930 C942 0.929 . S
H931 C945 0.930 . S
H932 C947 0.960 . S
H933 C947 0.960 . S
H934 C947 0.960 . S
C935 H927 0.929 . S
C935 C936 1.377 . S
C935 C937 1.384 . S
C936 C935 1.377 . S
C936 C942 1.390 . S
C937 H928 0.930 . S
C937 C935 1.384 . S
C937 C938 1.372 . S
C938 C937 1.372 . S
C938 C939 1.400 . S
C938 C943 1.490 . S
C939 H929 0.930 . S
C939 C938 1.400 . S
C939 C942 1.386 . S
H940 C956 0.930 . S
H941 C957 0.931 . S
C942 H930 0.929 . S
C942 C936 1.390 . S
C942 C939 1.386 . S
C943 C938 1.490 . S
C943 C945 1.395 . S
C943 C946 1.403 . S
H944 C950 0.930 . S
C945 H931 0.930 . S
C945 C943 1.395 . S
C945 C948 1.403 . S
C946 C943 1.403 . S
C946 C947 1.524 . S
C946 C950 1.400 . S
C947 H932 0.960 . S
C947 H933 0.960 . S
C947 H934 0.960 . S
C947 C946 1.524 . S
C948 C945 1.403 . S
C948 C949 1.392 . S
C948 C952 1.495 . S
C949 C948 1.392 . S
C949 C950 1.385 . S
C949 C951 1.478 . S
C950 H944 0.930 . S
C950 C946 1.400 . S
C950 C949 1.385 . S
C951 C949 1.478 . S
C951 C953 1.381 . S
C951 C957 1.383 . S
C952 C948 1.495 . S
C952 H958 0.943 1_554 S
C952 H959 0.961 1_554 S
C952 H960 0.960 . S
C953 C951 1.381 . S
C953 C954 1.394 . S
C953 H961 0.930 . S
C954 C953 1.394 . S
C954 C955 1.383 . S
C954 H962 0.929 . S
C955 C954 1.383 . S
C955 C956 1.377 . S
C956 H940 0.930 . S
C956 C955 1.377 . S
C956 C957 1.379 . S
C957 H941 0.931 . S
C957 C951 1.383 . S
C957 C956 1.379 . S
H958 C952 0.943 1_556 S
H959 C952 0.961 1_556 S
H960 C952 0.960 . S
H961 C953 0.930 . S
H962 C954 0.929 . S
H963 C971 0.929 . S
H964 C973 0.930 . S
H965 C975 0.930 . S
H966 C978 0.929 . S
H967 C981 0.930 . S
H968 C983 0.960 1_556 S
H969 C983 0.960 1_556 S
H970 C983 0.960 . S
C971 H963 0.929 . S
C971 C972 1.377 . S
C971 C973 1.384 . S
C972 C971 1.377 . S
C972 C978 1.390 . S
C973 H964 0.930 . S
C973 C971 1.384 . S
C973 C974 1.372 . S
C974 C973 1.372 . S
C974 C975 1.400 . S
C974 C979 1.490 . S
C975 H965 0.930 . S
C975 C974 1.400 . S
C975 C978 1.386 . S
H976 C992 0.930 . S
H977 C993 0.931 . S
C978 H966 0.929 . S
C978 C972 1.390 . S
C978 C975 1.386 . S
C979 C974 1.490 . S
C979 C981 1.395 . S
C979 C982 1.403 . S
H980 C986 0.930 . S
C981 H967 0.930 . S
C981 C979 1.395 . S
C981 C984 1.403 . S
C982 C979 1.403 . S
C982 C983 1.524 . S
C982 C986 1.400 . S
C983 H968 0.960 1_554 S
C983 H969 0.960 1_554 S
C983 H970 0.960 . S
C983 C982 1.524 . S
C984 C981 1.403 . S
C984 C985 1.392 . S
C984 C988 1.495 . S
C985 C984 1.392 . S
C985 C986 1.385 . S
C985 C987 1.478 . S
C986 H980 0.930 . S
C986 C982 1.400 . S
C986 C985 1.385 . S
C987 C985 1.478 . S
C987 C989 1.381 . S
C987 C993 1.383 . S
C988 C984 1.495 . S
C988 H994 0.959 . S
C988 H995 0.961 . S
C988 H996 0.960 . S
C989 C987 1.381 . S
C989 C990 1.394 . S
C989 H997 0.930 . S
C990 C989 1.394 . S
C990 C991 1.383 . S
C990 H998 0.929 . S
C991 C990 1.383 . S
C991 C992 1.377 . S
C992 H976 0.930 . S
C992 C991 1.377 . S
C992 C993 1.379 . S
C993 H977 0.931 . S
C993 C987 1.383 . S
C993 C992 1.379 . S
H994 C988 0.959 . S
H995 C988 0.961 . S
H996 C988 0.960 . S
H997 C989 0.930 . S
H998 C990 0.929 . S
H999 C1007 0.929 . S
H1000 C1009 0.930 . S
H1001 C1011 0.930 . S
H1002 C1014 0.929 . S
H1003 C1017 0.930 . S
H1004 C1019 0.960 . S
H1005 C1019 0.960 . S
H1006 C1019 0.960 . S
C1007 H999 0.929 . S
C1007 C1008 1.377 . S
C1007 C1009 1.384 . S
C1008 C1007 1.377 . S
C1008 C1014 1.390 . S
C1009 H1000 0.930 . S
C1009 C1007 1.384 . S
C1009 C1010 1.372 . S
C1010 C1009 1.372 . S
C1010 C1011 1.400 . S
C1010 C1015 1.490 . S
C1011 H1001 0.930 . S
C1011 C1010 1.400 . S
C1011 C1014 1.386 . S
H1012 C1028 0.930 . S
H1013 C1029 0.931 . S
C1014 H1002 0.929 . S
C1014 C1008 1.390 . S
C1014 C1011 1.386 . S
C1015 C1010 1.490 . S
C1015 C1017 1.395 . S
C1015 C1018 1.403 . S
H1016 C1022 0.930 . S
C1017 H1003 0.930 . S
C1017 C1015 1.395 . S
C1017 C1020 1.403 . S
C1018 C1015 1.403 . S
C1018 C1019 1.524 . S
C1018 C1022 1.400 . S
C1019 H1004 0.960 . S
C1019 H1005 0.960 . S
C1019 H1006 0.960 . S
C1019 C1018 1.524 . S
C1020 C1017 1.403 . S
C1020 C1021 1.392 . S
C1020 C1024 1.495 . S
C1021 C1020 1.392 . S
C1021 C1022 1.385 . S
C1021 C1023 1.478 . S
C1022 H1016 0.930 . S
C1022 C1018 1.400 . S
C1022 C1021 1.385 . S
C1023 C1021 1.478 . S
C1023 C1025 1.381 . S
C1023 C1029 1.383 1_556 S
C1024 C1020 1.495 . S
C1024 H1030 0.959 . S
C1024 H1031 0.961 . S
C1024 H1032 0.960 . S
C1025 C1023 1.381 . S
C1025 C1026 1.394 . S
C1025 H1033 0.930 . S
C1026 C1025 1.394 . S
C1026 C1027 1.383 . S
C1026 H1034 0.929 . S
C1027 C1026 1.383 . S
C1027 C1028 1.377 1_556 S
C1028 H1012 0.930 . S
C1028 C1027 1.377 1_554 S
C1028 C1029 1.379 . S
C1029 H1013 0.931 . S
C1029 C1023 1.383 1_554 S
C1029 C1028 1.379 . S
H1030 C1024 0.959 . S
H1031 C1024 0.961 . S
H1032 C1024 0.960 . S
H1033 C1025 0.930 . S
H1034 C1026 0.929 . S
H1035 C1043 0.929 . S
H1036 C1045 0.930 . S
H1037 C1047 0.930 . S
H1038 C1050 0.929 . S
H1039 C1053 0.930 . S
H1040 C1055 0.960 . S
H1041 C1055 0.960 . S
H1042 C1055 0.960 . S
C1043 H1035 0.929 . S
C1043 C1044 1.377 . S
C1043 C1045 1.384 . S
C1044 C1043 1.377 . S
C1044 C1050 1.390 . S
C1045 H1036 0.930 . S
C1045 C1043 1.384 . S
C1045 C1046 1.372 . S
C1046 C1045 1.372 . S
C1046 C1047 1.400 . S
C1046 C1051 1.490 . S
C1047 H1037 0.930 . S
C1047 C1046 1.400 . S
C1047 C1050 1.386 . S
H1048 C1064 0.930 . S
H1049 C1065 0.904 1_554 S
C1050 H1038 0.929 . S
C1050 C1044 1.390 . S
C1050 C1047 1.386 . S
C1051 C1046 1.490 . S
C1051 C1053 1.395 . S
C1051 C1054 1.403 . S
H1052 C1058 0.930 . S
C1053 H1039 0.930 . S
C1053 C1051 1.395 . S
C1053 C1056 1.403 . S
C1054 C1051 1.403 . S
C1054 C1055 1.524 . S
C1054 C1058 1.400 . S
C1055 H1040 0.960 . S
C1055 H1041 0.960 . S
C1055 H1042 0.960 . S
C1055 C1054 1.524 . S
C1056 C1053 1.403 . S
C1056 C1057 1.392 . S
C1056 C1060 1.473 1_556 S
C1057 C1056 1.392 . S
C1057 C1058 1.385 . S
C1057 C1059 1.478 . S
C1058 H1052 0.930 . S
C1058 C1054 1.400 . S
C1058 C1057 1.385 . S
C1059 C1057 1.478 . S
C1059 C1061 1.381 . S
C1059 C1065 1.421 . S
C1060 C1056 1.473 1_554 S
C1060 H1066 0.969 . S
C1060 H1067 0.998 . S
C1060 H1068 0.938 1_554 S
C1061 C1059 1.381 . S
C1061 C1062 1.394 . S
C1061 H1069 0.930 . S
C1062 C1061 1.394 . S
C1062 C1063 1.383 . S
C1062 H1070 0.929 . S
C1063 C1062 1.383 . S
C1063 C1064 1.377 1_556 S
C1064 H1048 0.930 . S
C1064 C1063 1.377 1_554 S
C1064 C1065 1.372 1_554 S
C1065 H1049 0.904 1_556 S
C1065 C1059 1.421 . S
C1065 C1064 1.372 1_556 S
H1066 C1060 0.969 . S
H1067 C1060 0.998 . S
H1068 C1060 0.938 1_556 S
H1069 C1061 0.930 . S
H1070 C1062 0.929 . S
H1071 C1079 0.929 . S
H1072 C1081 0.930 . S
H1073 C1083 0.930 1_554 S
H1074 C1086 0.929 . S
H1075 C1089 0.930 . S
H1076 C1091 0.960 1_554 S
H1077 C1091 0.960 . S
H1078 C1091 0.960 1_554 S
C1079 H1071 0.929 . S
C1079 C1080 1.377 . S
C1079 C1081 1.384 . S
C1080 C1079 1.377 . S
C1080 C1086 1.390 . S
C1081 H1072 0.930 . S
C1081 C1079 1.384 . S
C1081 C1082 1.372 . S
C1082 C1081 1.372 . S
C1082 C1083 1.400 . S
C1082 C1087 1.490 . S
C1083 H1073 0.930 1_556 S
C1083 C1082 1.400 . S
C1083 C1086 1.386 . S
H1084 C1100 0.930 . S
H1085 C1101 0.931 . S
C1086 H1074 0.929 . S
C1086 C1080 1.390 . S
C1086 C1083 1.386 . S
C1087 C1082 1.490 . S
C1087 C1089 1.395 . S
C1087 C1090 1.403 . S
H1088 C1094 0.930 . S
C1089 H1075 0.930 . S
C1089 C1087 1.395 . S
C1089 C1092 1.403 . S
C1090 C1087 1.403 . S
C1090 C1091 1.524 . S
C1090 C1094 1.400 . S
C1091 H1076 0.960 1_556 S
C1091 H1077 0.960 . S
C1091 H1078 0.960 1_556 S
C1091 C1090 1.524 . S
C1092 C1089 1.403 . S
C1092 C1093 1.392 . S
C1092 C1096 1.495 . S
C1093 C1092 1.392 . S
C1093 C1094 1.385 . S
C1093 C1095 1.478 . S
C1094 H1088 0.930 . S
C1094 C1090 1.400 . S
C1094 C1093 1.385 . S
C1095 C1093 1.478 . S
C1095 C1097 1.381 . S
C1095 C1101 1.383 1_556 S
C1096 C1092 1.495 . S
C1096 H1102 0.959 . S
C1096 H1103 0.961 . S
C1096 H1104 0.960 . S
C1097 C1095 1.381 . S
C1097 C1098 1.394 . S
C1097 H1105 0.930 . S
C1098 C1097 1.394 . S
C1098 C1099 1.383 . S
C1098 H1106 0.929 . S
C1099 C1098 1.383 . S
C1099 C1100 1.377 1_556 S
C1100 H1084 0.930 . S
C1100 C1099 1.377 1_554 S
C1100 C1101 1.379 . S
C1101 H1085 0.931 . S
C1101 C1095 1.383 1_554 S
C1101 C1100 1.379 . S
H1102 C1096 0.959 . S
H1103 C1096 0.961 . S
H1104 C1096 0.960 . S
H1105 C1097 0.930 . S
H1106 C1098 0.929 . S
H1107 C1115 0.929 . S
H1108 C1117 0.930 . S
H1109 C1119 0.930 . S
H1110 C1122 0.929 . S
H1111 C1125 0.930 . S
H1112 C1127 0.960 . S
H1113 C1127 0.960 . S
H1114 C1127 0.960 . S
C1115 H1107 0.929 . S
C1115 C1116 1.377 . S
C1115 C1117 1.384 . S
C1116 C1115 1.377 . S
C1116 C1122 1.390 . S
C1117 H1108 0.930 . S
C1117 C1115 1.384 . S
C1117 C1118 1.372 . S
C1118 C1117 1.372 . S
C1118 C1119 1.400 . S
C1118 C1123 1.490 . S
C1119 H1109 0.930 . S
C1119 C1118 1.400 . S
C1119 C1122 1.386 . S
H1120 C1136 0.930 . S
H1121 C1137 0.931 . S
C1122 H1110 0.929 . S
C1122 C1116 1.390 . S
C1122 C1119 1.386 . S
C1123 C1118 1.490 . S
C1123 C1125 1.395 . S
C1123 C1126 1.403 . S
H1124 C1130 0.930 . S
C1125 H1111 0.930 . S
C1125 C1123 1.395 . S
C1125 C1128 1.403 . S
C1126 C1123 1.403 . S
C1126 C1127 1.524 . S
C1126 C1130 1.400 . S
C1127 H1112 0.960 . S
C1127 H1113 0.960 . S
C1127 H1114 0.960 . S
C1127 C1126 1.524 . S
C1128 C1125 1.403 . S
C1128 C1129 1.392 . S
C1128 C1132 1.495 . S
C1129 C1128 1.392 . S
C1129 C1130 1.385 . S
C1129 C1131 1.478 . S
C1130 H1124 0.930 . S
C1130 C1126 1.400 . S
C1130 C1129 1.385 . S
C1131 C1129 1.478 . S
C1131 C1133 1.381 . S
C1131 C1137 1.383 1_556 S
C1132 C1128 1.495 . S
C1132 H1138 0.959 . S
C1132 H1139 0.961 . S
C1132 H1140 0.960 . S
C1133 C1131 1.381 . S
C1133 C1134 1.394 . S
C1133 H1141 0.930 . S
C1134 C1133 1.394 . S
C1134 C1135 1.383 . S
C1134 H1142 0.929 . S
C1135 C1134 1.383 . S
C1135 C1136 1.377 1_556 S
C1136 H1120 0.930 . S
C1136 C1135 1.377 1_554 S
C1136 C1137 1.379 . S
C1137 H1121 0.931 . S
C1137 C1131 1.383 1_554 S
C1137 C1136 1.379 . S
H1138 C1132 0.959 . S
H1139 C1132 0.961 . S
H1140 C1132 0.960 . S
H1141 C1133 0.930 . S
H1142 C1134 0.929 . S
H1143 C1151 0.929 . S
H1144 C1153 0.930 . S
H1145 C1155 0.930 1_554 S
H1146 C1158 0.929 . S
H1147 C1161 0.930 . S
H1148 C1163 0.960 . S
H1149 C1163 0.960 . S
H1150 C1163 0.932 1_554 S
C1151 H1143 0.929 . S
C1151 C1152 1.377 . S
C1151 C1153 1.384 . S
C1152 C1151 1.377 . S
C1152 C1158 1.390 . S
C1153 H1144 0.930 . S
C1153 C1151 1.384 . S
C1153 C1154 1.372 . S
C1154 C1153 1.372 . S
C1154 C1155 1.400 . S
C1154 C1159 1.490 . S
C1155 H1145 0.930 1_556 S
C1155 C1154 1.400 . S
C1155 C1158 1.386 . S
H1156 C1172 0.930 . S
H1157 C1173 0.931 . S
C1158 H1146 0.929 . S
C1158 C1152 1.390 . S
C1158 C1155 1.386 . S
C1159 C1154 1.490 . S
C1159 C1161 1.395 . S
C1159 C1162 1.403 . S
H1160 C1166 0.930 . S
C1161 H1147 0.930 . S
C1161 C1159 1.395 . S
C1161 C1164 1.403 . S
C1162 C1159 1.403 . S
C1162 C1163 1.524 . S
C1162 C1166 1.400 . S
C1163 H1148 0.960 . S
C1163 H1149 0.960 . S
C1163 H1150 0.932 1_556 S
C1163 C1162 1.524 . S
C1164 C1161 1.403 . S
C1164 C1165 1.392 . S
C1164 C1168 1.495 . S
C1165 C1164 1.392 . S
C1165 C1166 1.385 . S
C1165 C1167 1.478 . S
C1166 H1160 0.930 . S
C1166 C1162 1.400 . S
C1166 C1165 1.385 . S
C1167 C1165 1.478 . S
C1167 C1169 1.381 . S
C1167 C1173 1.383 1_556 S
C1168 C1164 1.495 . S
C1168 H1174 0.959 . S
C1168 H1175 0.961 . S
C1168 H1176 0.960 . S
C1169 C1167 1.381 . S
C1169 C1170 1.394 . S
C1169 H1177 0.930 . S
C1170 C1169 1.394 . S
C1170 C1171 1.383 . S
C1170 H1178 0.929 . S
C1171 C1170 1.383 . S
C1171 C1172 1.377 1_556 S
C1172 H1156 0.930 . S
C1172 C1171 1.377 1_554 S
C1172 C1173 1.379 . S
C1173 H1157 0.931 . S
C1173 C1167 1.383 1_554 S
C1173 C1172 1.379 . S
H1174 C1168 0.959 . S
H1175 C1168 0.961 . S
H1176 C1168 0.960 . S
H1177 C1169 0.930 . S
H1178 C1170 0.929 . S
H1179 C1187 0.929 . S
H1180 C1189 0.930 . S
H1181 C1191 0.930 . S
H1182 C1194 0.929 . S
H1183 C1197 0.930 1_554 S
H1184 C1199 0.960 . S
H1185 C1199 0.960 . S
H1186 C1199 0.960 . S
C1187 H1179 0.929 . S
C1187 C1188 1.377 . S
C1187 C1189 1.384 . S
C1188 C1187 1.377 . S
C1188 C1194 1.390 . S
C1189 H1180 0.930 . S
C1189 C1187 1.384 . S
C1189 C1190 1.372 . S
C1190 C1189 1.372 . S
C1190 C1191 1.400 . S
C1190 C1195 1.490 . S
C1191 H1181 0.930 . S
C1191 C1190 1.400 . S
C1191 C1194 1.386 . S
H1192 C1208 0.926 1_554 S
H1193 C1209 0.931 . S
C1194 H1182 0.929 . S
C1194 C1188 1.390 . S
C1194 C1191 1.386 . S
C1195 C1190 1.490 . S
C1195 C1197 1.395 . S
C1195 C1198 1.403 . S
H1196 C1202 0.930 . S
C1197 H1183 0.930 1_556 S
C1197 C1195 1.395 . S
C1197 C1200 1.388 1_556 S
C1198 C1195 1.403 . S
C1198 C1199 1.524 . S
C1198 C1202 1.400 . S
C1199 H1184 0.960 . S
C1199 H1185 0.960 . S
C1199 H1186 0.960 . S
C1199 C1198 1.524 . S
C1200 C1197 1.388 1_554 S
C1200 C1201 1.350 1_554 S
C1200 C1204 1.555 . S
C1201 C1200 1.350 1_556 S
C1201 C1202 1.385 . S
C1201 C1203 1.478 . S
C1202 H1196 0.930 . S
C1202 C1198 1.400 . S
C1202 C1201 1.385 . S
C1203 C1201 1.478 . S
C1203 C1205 1.381 . S
C1203 C1209 1.383 . S
C1204 C1200 1.555 . S
C1204 H1210 0.959 . S
C1204 H1211 0.961 . S
C1204 H1212 0.960 . S
C1205 C1203 1.381 . S
C1205 C1206 1.394 . S
C1205 H1213 0.930 . S
C1206 C1205 1.394 . S
C1206 C1207 1.383 . S
C1206 H1214 0.929 . S
C1207 C1206 1.383 . S
C1207 C1208 1.378 . S
C1208 H1192 0.926 1_556 S
C1208 C1207 1.378 . S
C1208 C1209 1.382 . S
C1209 H1193 0.931 . S
C1209 C1203 1.383 . S
C1209 C1208 1.382 . S
H1210 C1204 0.959 . S
H1211 C1204 0.961 . S
H1212 C1204 0.960 . S
H1213 C1205 0.930 . S
H1214 C1206 0.929 . S
H1215 C1223 0.929 . S
H1216 C1225 0.930 . S
H1217 C1227 0.930 . S
H1218 C1230 0.929 . S
H1219 C1233 0.930 . S
H1220 C1235 0.960 . S
H1221 C1235 0.960 . S
H1222 C1235 0.960 . S
C1223 H1215 0.929 . S
C1223 C1224 1.377 . S
C1223 C1225 1.384 . S
C1224 C1223 1.377 . S
C1224 C1230 1.390 . S
C1225 H1216 0.930 . S
C1225 C1223 1.384 . S
C1225 C1226 1.372 . S
C1226 C1225 1.372 . S
C1226 C1227 1.400 . S
C1226 C1231 1.490 . S
C1227 H1217 0.930 . S
C1227 C1226 1.400 . S
C1227 C1230 1.386 . S
H1228 C1244 0.930 . S
H1229 C1245 0.931 1_556 S
C1230 H1218 0.929 . S
C1230 C1224 1.390 . S
C1230 C1227 1.386 . S
C1231 C1226 1.490 . S
C1231 C1233 1.395 . S
C1231 C1234 1.403 . S
H1232 C1238 0.930 . S
C1233 H1219 0.930 . S
C1233 C1231 1.395 . S
C1233 C1236 1.403 . S
C1234 C1231 1.403 . S
C1234 C1235 1.524 . S
C1234 C1238 1.400 . S
C1235 H1220 0.960 . S
C1235 H1221 0.960 . S
C1235 H1222 0.960 . S
C1235 C1234 1.524 . S
C1236 C1233 1.403 . S
C1236 C1237 1.392 . S
C1236 C1240 1.495 . S
C1237 C1236 1.392 . S
C1237 C1238 1.385 . S
C1237 C1239 1.478 . S
C1238 H1232 0.930 . S
C1238 C1234 1.400 . S
C1238 C1237 1.385 . S
C1239 C1237 1.478 . S
C1239 C1241 1.381 . S
C1239 C1245 1.383 . S
C1240 C1236 1.495 . S
C1240 H1246 0.959 . S
C1240 H1247 0.961 . S
C1240 H1248 0.960 . S
C1241 C1239 1.381 . S
C1241 C1242 1.394 . S
C1241 H1249 0.930 . S
C1242 C1241 1.394 . S
C1242 C1243 1.383 . S
C1242 H1250 0.929 . S
C1243 C1242 1.383 . S
C1243 C1244 1.377 1_554 S
C1244 H1228 0.930 . S
C1244 C1243 1.377 1_556 S
C1244 C1245 1.379 1_556 S
C1245 H1229 0.931 1_554 S
C1245 C1239 1.383 . S
C1245 C1244 1.379 1_554 S
H1246 C1240 0.959 . S
H1247 C1240 0.961 . S
H1248 C1240 0.960 . S
H1249 C1241 0.930 . S
H1250 C1242 0.929 . S
H1251 C1259 0.929 . S
H1252 C1261 0.930 . S
H1253 C1263 0.930 . S
H1254 C1266 0.929 . S
H1255 C1269 0.930 . S
H1256 C1271 0.960 . S
H1257 C1271 0.960 . S
H1258 C1271 0.960 . S
C1259 H1251 0.929 . S
C1259 C1260 1.377 . S
C1259 C1261 1.384 . S
C1260 C1259 1.377 . S
C1260 C1266 1.390 . S
C1261 H1252 0.930 . S
C1261 C1259 1.384 . S
C1261 C1262 1.372 . S
C1262 C1261 1.372 . S
C1262 C1263 1.400 . S
C1262 C1267 1.490 . S
C1263 H1253 0.930 . S
C1263 C1262 1.400 . S
C1263 C1266 1.386 . S
H1264 C1280 0.948 . S
H1265 C1281 0.931 . S
C1266 H1254 0.929 . S
C1266 C1260 1.390 . S
C1266 C1263 1.386 . S
C1267 C1262 1.490 . S
C1267 C1269 1.395 . S
C1267 C1270 1.403 . S
H1268 C1274 0.949 . S
C1269 H1255 0.930 . S
C1269 C1267 1.395 . S
C1269 C1272 1.403 . S
C1270 C1267 1.403 . S
C1270 C1271 1.524 1_554 S
C1270 C1274 1.400 . S
C1271 H1256 0.960 . S
C1271 H1257 0.960 . S
C1271 H1258 0.960 . S
C1271 C1270 1.524 1_556 S
C1272 C1269 1.403 . S
C1272 C1273 1.392 . S
C1272 C1276 1.495 . S
C1273 C1272 1.392 . S
C1273 C1274 1.385 . S
C1273 C1275 1.478 . S
C1274 H1268 0.949 . S
C1274 C1270 1.400 . S
C1274 C1273 1.385 . S
C1275 C1273 1.478 . S
C1275 C1277 1.381 . S
C1275 C1281 1.383 . S
C1276 C1272 1.495 . S
C1276 H1282 0.959 . S
C1276 H1283 0.961 . S
C1276 H1284 0.960 . S
C1277 C1275 1.381 . S
C1277 C1278 1.394 . S
C1277 H1285 0.930 . S
C1278 C1277 1.394 . S
C1278 C1279 1.383 . S
C1278 H1286 0.929 . S
C1279 C1278 1.383 . S
C1279 C1280 1.377 . S
C1280 H1264 0.948 . S
C1280 C1279 1.377 . S
C1280 C1281 1.379 . S
C1281 H1265 0.931 . S
C1281 C1275 1.383 . S
C1281 C1280 1.379 . S
H1282 C1276 0.959 . S
H1283 C1276 0.961 . S
H1284 C1276 0.960 . S
H1285 C1277 0.930 . S
H1286 C1278 0.929 . S
H1287 C1295 0.929 . S
H1288 C1297 0.930 . S
H1289 C1299 0.930 . S
H1290 C1302 0.929 . S
H1291 C1305 0.930 . S
H1292 C1307 0.960 . S
H1293 C1307 0.960 . S
H1294 C1307 0.960 . S
C1295 H1287 0.929 . S
C1295 C1296 1.377 . S
C1295 C1297 1.384 . S
C1296 C1295 1.377 . S
C1296 C1302 1.390 . S
C1297 H1288 0.930 . S
C1297 C1295 1.384 . S
C1297 C1298 1.372 . S
C1298 C1297 1.372 . S
C1298 C1299 1.400 . S
C1298 C1303 1.490 . S
C1299 H1289 0.930 . S
C1299 C1298 1.400 . S
C1299 C1302 1.386 . S
H1300 C1316 0.930 . S
H1301 C1317 0.931 . S
C1302 H1290 0.929 . S
C1302 C1296 1.390 . S
C1302 C1299 1.386 . S
C1303 C1298 1.490 . S
C1303 C1305 1.395 . S
C1303 C1306 1.403 . S
H1304 C1310 0.930 . S
C1305 H1291 0.930 . S
C1305 C1303 1.395 . S
C1305 C1308 1.403 . S
C1306 C1303 1.403 . S
C1306 C1307 1.524 . S
C1306 C1310 1.400 . S
C1307 H1292 0.960 . S
C1307 H1293 0.960 . S
C1307 H1294 0.960 . S
C1307 C1306 1.524 . S
C1308 C1305 1.403 . S
C1308 C1309 1.392 . S
C1308 C1312 1.495 . S
C1309 C1308 1.392 . S
C1309 C1310 1.385 . S
C1309 C1311 1.478 . S
C1310 H1304 0.930 . S
C1310 C1306 1.400 . S
C1310 C1309 1.385 . S
C1311 C1309 1.478 . S
C1311 C1313 1.336 1_554 S
C1311 C1317 1.383 . S
C1312 C1308 1.495 . S
C1312 H1318 0.959 1_554 S
C1312 H1319 0.961 . S
C1312 H1320 0.960 1_554 S
C1313 C1311 1.336 1_556 S
C1313 C1314 1.403 . S
C1313 H1321 0.968 . S
C1314 C1313 1.403 . S
C1314 C1315 1.383 1_556 S
C1314 H1322 0.929 . S
C1315 C1314 1.383 1_554 S
C1315 C1316 1.377 . S
C1316 H1300 0.930 . S
C1316 C1315 1.377 . S
C1316 C1317 1.379 . S
C1317 H1301 0.931 . S
C1317 C1311 1.383 . S
C1317 C1316 1.379 . S
H1318 C1312 0.959 1_556 S
H1319 C1312 0.961 . S
H1320 C1312 0.960 1_556 S
H1321 C1313 0.968 . S
H1322 C1314 0.929 . S
H1323 C1331 0.929 . S
H1324 C1333 0.973 . S
H1325 C1335 0.930 . S
H1326 C1338 0.929 . S
H1327 C1341 0.930 . S
H1328 C1343 0.960 . S
H1329 C1343 0.960 . S
H1330 C1343 0.960 . S
C1331 H1323 0.929 . S
C1331 C1332 1.377 . S
C1331 C1333 1.384 . S
C1332 C1331 1.377 . S
C1332 C1338 1.390 . S
C1333 H1324 0.973 . S
C1333 C1331 1.384 . S
C1333 C1334 1.372 . S
C1334 C1333 1.372 . S
C1334 C1335 1.400 . S
C1334 C1339 1.490 1_655 S
C1335 H1325 0.930 . S
C1335 C1334 1.400 . S
C1335 C1338 1.386 . S
H1336 C1352 0.930 . S
H1337 C1353 0.931 . S
C1338 H1326 0.929 . S
C1338 C1332 1.390 . S
C1338 C1335 1.386 . S
C1339 C1334 1.490 1_455 S
C1339 C1341 1.395 . S
C1339 C1342 1.403 . S
H1340 C1346 0.930 . S
C1341 H1327 0.930 . S
C1341 C1339 1.395 . S
C1341 C1344 1.403 . S
C1342 C1339 1.403 . S
C1342 C1343 1.524 . S
C1342 C1346 1.400 . S
C1343 H1328 0.960 . S
C1343 H1329 0.960 . S
C1343 H1330 0.960 . S
C1343 C1342 1.524 . S
C1344 C1341 1.403 . S
C1344 C1345 1.392 . S
C1344 C1348 1.495 . S
C1345 C1344 1.392 . S
C1345 C1346 1.385 . S
C1345 C1347 1.478 . S
C1346 H1340 0.930 . S
C1346 C1342 1.400 . S
C1346 C1345 1.385 . S
C1347 C1345 1.478 . S
C1347 C1349 1.381 . S
C1347 C1353 1.383 . S
C1348 C1344 1.495 . S
C1348 H1354 0.959 . S
C1348 H1355 0.961 . S
C1348 H1356 0.960 . S
C1349 C1347 1.381 . S
C1349 C1350 1.394 . S
C1349 H1357 0.930 . S
C1350 C1349 1.394 . S
C1350 C1351 1.383 . S
C1350 H1358 0.929 . S
C1351 C1350 1.383 . S
C1351 C1352 1.377 . S
C1352 H1336 0.930 . S
C1352 C1351 1.377 . S
C1352 C1353 1.379 . S
C1353 H1337 0.931 . S
C1353 C1347 1.383 . S
C1353 C1352 1.379 . S
H1354 C1348 0.959 . S
H1355 C1348 0.961 . S
H1356 C1348 0.960 . S
H1357 C1349 0.930 . S
H1358 C1350 0.929 . S
H1359 C1367 0.929 . S
H1360 C1369 0.930 . S
H1361 C1371 0.930 . S
H1362 C1374 0.929 . S
H1363 C1377 0.930 . S
H1364 C1379 0.960 . S
H1365 C1379 0.960 . S
H1366 C1379 0.960 . S
C1367 H1359 0.929 . S
C1367 C1368 1.377 . S
C1367 C1369 1.384 . S
C1368 C1367 1.377 . S
C1368 C1374 1.390 . S
C1369 H1360 0.930 . S
C1369 C1367 1.384 . S
C1369 C1370 1.372 . S
C1370 C1369 1.372 . S
C1370 C1371 1.400 . S
C1370 C1375 1.490 . S
C1371 H1361 0.930 . S
C1371 C1370 1.400 . S
C1371 C1374 1.386 . S
H1372 C1388 0.930 . S
H1373 C1389 0.931 . S
C1374 H1362 0.929 . S
C1374 C1368 1.390 . S
C1374 C1371 1.386 . S
C1375 C1370 1.490 . S
C1375 C1377 1.395 . S
C1375 C1378 1.403 . S
H1376 C1382 0.930 . S
C1377 H1363 0.930 . S
C1377 C1375 1.395 . S
C1377 C1380 1.403 . S
C1378 C1375 1.403 . S
C1378 C1379 1.524 . S
C1378 C1382 1.400 . S
C1379 H1364 0.960 . S
C1379 H1365 0.960 . S
C1379 H1366 0.960 . S
C1379 C1378 1.524 . S
C1380 C1377 1.403 . S
C1380 C1381 1.392 . S
C1380 C1384 1.495 . S
C1381 C1380 1.392 . S
C1381 C1382 1.385 . S
C1381 C1383 1.478 . S
C1382 H1376 0.930 . S
C1382 C1378 1.400 . S
C1382 C1381 1.385 . S
C1383 C1381 1.478 . S
C1383 C1385 1.381 . S
C1383 C1389 1.383 . S
C1384 C1380 1.495 . S
C1384 H1390 0.959 . S
C1384 H1391 0.961 . S
C1384 H1392 0.960 . S
C1385 C1383 1.381 . S
C1385 C1386 1.394 . S
C1385 H1393 0.930 . S
C1386 C1385 1.394 . S
C1386 C1387 1.383 . S
C1386 H1394 0.929 . S
C1387 C1386 1.383 . S
C1387 C1388 1.377 . S
C1388 H1372 0.930 . S
C1388 C1387 1.377 . S
C1388 C1389 1.379 . S
C1389 H1373 0.931 . S
C1389 C1383 1.383 . S
C1389 C1388 1.379 . S
H1390 C1384 0.959 . S
H1391 C1384 0.961 . S
H1392 C1384 0.960 . S
H1393 C1385 0.930 . S
H1394 C1386 0.929 . S
H1395 C1403 0.929 . S
H1396 C1405 0.930 . S
H1397 C1407 0.930 . S
H1398 C1410 0.929 . S
H1399 C1413 0.930 . S
H1400 C1415 0.960 . S
H1401 C1415 0.960 . S
H1402 C1415 0.960 . S
C1403 H1395 0.929 . S
C1403 C1404 1.377 . S
C1403 C1405 1.384 . S
C1404 C1403 1.377 . S
C1404 C1410 1.390 . S
C1405 H1396 0.930 . S
C1405 C1403 1.384 . S
C1405 C1406 1.372 . S
C1406 C1405 1.372 . S
C1406 C1407 1.400 . S
C1406 C1411 1.490 1_545 S
C1407 H1397 0.930 . S
C1407 C1406 1.400 . S
C1407 C1410 1.386 . S
H1408 C1424 0.930 . S
H1409 C1425 0.931 . S
C1410 H1398 0.929 . S
C1410 C1404 1.390 . S
C1410 C1407 1.386 . S
C1411 C1406 1.490 1_565 S
C1411 C1413 1.395 . S
C1411 C1414 1.403 . S
H1412 C1418 0.930 . S
C1413 H1399 0.930 . S
C1413 C1411 1.395 . S
C1413 C1416 1.403 . S
C1414 C1411 1.403 . S
C1414 C1415 1.524 . S
C1414 C1418 1.400 . S
C1415 H1400 0.960 . S
C1415 H1401 0.960 . S
C1415 H1402 0.960 . S
C1415 C1414 1.524 . S
C1416 C1413 1.403 . S
C1416 C1417 1.392 . S
C1416 C1420 1.495 . S
C1417 C1416 1.392 . S
C1417 C1418 1.385 . S
C1417 C1419 1.478 . S
C1418 H1412 0.930 . S
C1418 C1414 1.400 . S
C1418 C1417 1.385 . S
C1419 C1417 1.478 . S
C1419 C1421 1.381 . S
C1419 C1425 1.383 . S
C1420 C1416 1.495 . S
C1420 H1426 0.959 . S
C1420 H1427 0.961 . S
C1420 H1428 0.960 . S
C1421 C1419 1.381 . S
C1421 C1422 1.394 . S
C1421 H1429 0.930 . S
C1422 C1421 1.394 . S
C1422 C1423 1.383 . S
C1422 H1430 0.929 . S
C1423 C1422 1.383 . S
C1423 C1424 1.377 . S
C1424 H1408 0.930 . S
C1424 C1423 1.377 . S
C1424 C1425 1.379 . S
C1425 H1409 0.931 . S
C1425 C1419 1.383 . S
C1425 C1424 1.379 . S
H1426 C1420 0.959 . S
H1427 C1420 0.961 . S
H1428 C1420 0.960 . S
H1429 C1421 0.930 . S
H1430 C1422 0.929 . S
H1431 C1439 0.929 . S
H1432 C1441 0.930 . S
H1433 C1443 0.930 . S
H1434 C1446 0.929 . S
H1435 C1449 0.930 . S
H1436 C1451 0.960 . S
H1437 C1451 0.960 . S
H1438 C1451 0.960 . S
C1439 H1431 0.929 . S
C1439 C1440 1.377 . S
C1439 C1441 1.384 . S
C1440 C1439 1.377 . S
C1440 C1446 1.390 . S
C1441 H1432 0.930 . S
C1441 C1439 1.384 . S
C1441 C1442 1.372 . S
C1442 C1441 1.372 . S
C1442 C1443 1.400 . S
C1442 C1447 1.490 . S
C1443 H1433 0.930 . S
C1443 C1442 1.400 . S
C1443 C1446 1.386 . S
H1444 C1460 0.930 . S
H1445 C1461 0.931 . S
C1446 H1434 0.929 . S
C1446 C1440 1.390 . S
C1446 C1443 1.386 . S
C1447 C1442 1.490 . S
C1447 C1449 1.395 . S
C1447 C1450 1.403 . S
H1448 C1454 0.930 . S
C1449 H1435 0.930 . S
C1449 C1447 1.395 . S
C1449 C1452 1.403 . S
C1450 C1447 1.403 . S
C1450 C1451 1.524 . S
C1450 C1454 1.400 . S
C1451 H1436 0.960 . S
C1451 H1437 0.960 . S
C1451 H1438 0.960 . S
C1451 C1450 1.524 . S
C1452 C1449 1.403 . S
C1452 C1453 1.392 . S
C1452 C1456 1.495 . S
C1453 C1452 1.392 . S
C1453 C1454 1.385 . S
C1453 C1455 1.478 . S
C1454 H1448 0.930 . S
C1454 C1450 1.400 . S
C1454 C1453 1.385 . S
C1455 C1453 1.478 . S
C1455 C1457 1.381 . S
C1455 C1461 1.383 . S
C1456 C1452 1.495 . S
C1456 H1462 0.959 . S
C1456 H1463 0.961 . S
C1456 H1464 0.960 . S
C1457 C1455 1.381 . S
C1457 C1458 1.394 . S
C1457 H1465 0.930 . S
C1458 C1457 1.394 . S
C1458 C1459 1.383 . S
C1458 H1466 0.929 . S
C1459 C1458 1.383 . S
C1459 C1460 1.377 . S
C1460 H1444 0.930 . S
C1460 C1459 1.377 . S
C1460 C1461 1.379 . S
C1461 H1445 0.931 . S
C1461 C1455 1.383 . S
C1461 C1460 1.379 . S
H1462 C1456 0.959 . S
H1463 C1456 0.961 . S
H1464 C1456 0.960 . S
H1465 C1457 0.930 . S
H1466 C1458 0.929 . S
H1467 C1475 0.929 . S
H1468 C1477 0.930 . S
H1469 C1479 0.930 . S
H1470 C1482 0.929 . S
H1471 C1485 0.930 . S
H1472 C1487 0.960 . S
H1473 C1487 0.960 . S
H1474 C1487 0.960 . S
C1475 H1467 0.929 . S
C1475 C1476 1.377 . S
C1475 C1477 1.384 . S
C1476 C1475 1.377 . S
C1476 C1482 1.390 . S
C1477 H1468 0.930 . S
C1477 C1475 1.384 . S
C1477 C1478 1.372 . S
C1478 C1477 1.372 . S
C1478 C1479 1.400 . S
C1478 C1483 1.490 . S
C1479 H1469 0.930 . S
C1479 C1478 1.400 . S
C1479 C1482 1.386 . S
H1480 C1496 0.930 . S
H1481 C1497 0.931 . S
C1482 H1470 0.929 . S
C1482 C1476 1.390 . S
C1482 C1479 1.386 . S
C1483 C1478 1.490 . S
C1483 C1485 1.395 . S
C1483 C1486 1.403 . S
H1484 C1490 0.930 . S
C1485 H1471 0.930 . S
C1485 C1483 1.395 . S
C1485 C1488 1.403 . S
C1486 C1483 1.403 . S
C1486 C1487 1.524 . S
C1486 C1490 1.400 . S
C1487 H1472 0.960 . S
C1487 H1473 0.960 . S
C1487 H1474 0.960 . S
C1487 C1486 1.524 . S
C1488 C1485 1.403 . S
C1488 C1489 1.392 . S
C1488 C1492 1.495 . S
C1489 C1488 1.392 . S
C1489 C1490 1.385 . S
C1489 C1491 1.478 . S
C1490 H1484 0.930 . S
C1490 C1486 1.400 . S
C1490 C1489 1.385 . S
C1491 C1489 1.478 . S
C1491 C1493 1.381 . S
C1491 C1497 1.383 . S
C1492 C1488 1.495 . S
C1492 H1498 0.959 . S
C1492 H1499 0.961 . S
C1492 H1500 0.960 . S
C1493 C1491 1.381 . S
C1493 C1494 1.394 . S
C1493 H1501 0.930 . S
C1494 C1493 1.394 . S
C1494 C1495 1.383 . S
C1494 H1502 0.929 . S
C1495 C1494 1.383 . S
C1495 C1496 1.377 . S
C1496 H1480 0.930 . S
C1496 C1495 1.377 . S
C1496 C1497 1.379 . S
C1497 H1481 0.931 . S
C1497 C1491 1.383 . S
C1497 C1496 1.379 . S
H1498 C1492 0.959 . S
H1499 C1492 0.961 . S
H1500 C1492 0.960 . S
H1501 C1493 0.930 . S
H1502 C1494 0.929 . S
H1503 C1511 0.929 . S
H1504 C1513 0.930 . S
H1505 C1515 0.930 . S
H1506 C1518 0.929 . S
H1507 C1521 0.930 . S
H1508 C1523 0.960 . S
H1509 C1523 0.960 . S
H1510 C1523 0.960 . S
C1511 H1503 0.929 . S
C1511 C1512 1.377 . S
C1511 C1513 1.384 . S
C1512 C1511 1.377 . S
C1512 C1518 1.390 . S
C1513 H1504 0.930 . S
C1513 C1511 1.384 . S
C1513 C1514 1.372 . S
C1514 C1513 1.372 . S
C1514 C1515 1.400 . S
C1514 C1519 1.490 . S
C1515 H1505 0.930 . S
C1515 C1514 1.400 . S
C1515 C1518 1.386 . S
H1516 C1532 0.930 . S
H1517 C1533 0.931 . S
C1518 H1506 0.929 . S
C1518 C1512 1.390 . S
C1518 C1515 1.386 . S
C1519 C1514 1.490 . S
C1519 C1521 1.395 . S
C1519 C1522 1.403 . S
H1520 C1526 0.930 . S
C1521 H1507 0.930 . S
C1521 C1519 1.395 . S
C1521 C1524 1.403 . S
C1522 C1519 1.403 . S
C1522 C1523 1.524 . S
C1522 C1526 1.400 . S
C1523 H1508 0.960 . S
C1523 H1509 0.960 . S
C1523 H1510 0.960 . S
C1523 C1522 1.524 . S
C1524 C1521 1.403 . S
C1524 C1525 1.392 . S
C1524 C1528 1.495 . S
C1525 C1524 1.392 . S
C1525 C1526 1.385 . S
C1525 C1527 1.478 . S
C1526 H1520 0.930 . S
C1526 C1522 1.400 . S
C1526 C1525 1.385 . S
C1527 C1525 1.478 . S
C1527 C1529 1.381 . S
C1527 C1533 1.383 . S
C1528 C1524 1.495 . S
C1528 H1534 0.959 . S
C1528 H1535 0.961 . S
C1528 H1536 0.960 . S
C1529 C1527 1.381 . S
C1529 C1530 1.394 . S
C1529 H1537 0.930 . S
C1530 C1529 1.394 . S
C1530 C1531 1.383 . S
C1530 H1538 0.929 . S
C1531 C1530 1.383 . S
C1531 C1532 1.377 . S
C1532 H1516 0.930 . S
C1532 C1531 1.377 . S
C1532 C1533 1.379 . S
C1533 H1517 0.931 . S
C1533 C1527 1.383 . S
C1533 C1532 1.379 . S
H1534 C1528 0.959 . S
H1535 C1528 0.961 . S
H1536 C1528 0.960 . S
H1537 C1529 0.930 . S
H1538 C1530 0.929 . S
H1539 C1547 0.929 . S
H1540 C1549 0.930 . S
H1541 C1551 0.930 . S
H1542 C1554 0.929 . S
H1543 C1557 0.930 . S
H1544 C1559 0.960 . S
H1545 C1559 0.960 . S
H1546 C1559 0.960 . S
C1547 H1539 0.929 . S
C1547 C1548 1.377 . S
C1547 C1549 1.384 . S
C1548 C1547 1.377 . S
C1548 C1554 1.390 . S
C1549 H1540 0.930 . S
C1549 C1547 1.384 . S
C1549 C1550 1.372 . S
C1550 C1549 1.372 . S
C1550 C1551 1.400 . S
C1550 C1555 1.490 . S
C1551 H1541 0.930 . S
C1551 C1550 1.400 . S
C1551 C1554 1.386 . S
H1552 C1568 0.930 . S
H1553 C1569 0.931 . S
C1554 H1542 0.929 . S
C1554 C1548 1.390 . S
C1554 C1551 1.386 . S
C1555 C1550 1.490 . S
C1555 C1557 1.395 . S
C1555 C1558 1.403 . S
H1556 C1562 0.930 . S
C1557 H1543 0.930 . S
C1557 C1555 1.395 . S
C1557 C1560 1.403 . S
C1558 C1555 1.403 . S
C1558 C1559 1.524 . S
C1558 C1562 1.400 . S
C1559 H1544 0.960 . S
C1559 H1545 0.960 . S
C1559 H1546 0.960 . S
C1559 C1558 1.524 . S
C1560 C1557 1.403 . S
C1560 C1561 1.392 . S
C1560 C1564 1.495 . S
C1561 C1560 1.392 . S
C1561 C1562 1.385 . S
C1561 C1563 1.478 . S
C1562 H1556 0.930 . S
C1562 C1558 1.400 . S
C1562 C1561 1.385 . S
C1563 C1561 1.478 . S
C1563 C1565 1.381 . S
C1563 C1569 1.383 . S
C1564 C1560 1.495 . S
C1564 H1570 0.959 . S
C1564 H1571 0.961 . S
C1564 H1572 0.960 . S
C1565 C1563 1.381 . S
C1565 C1566 1.394 . S
C1565 H1573 0.930 . S
C1566 C1565 1.394 . S
C1566 C1567 1.383 . S
C1566 H1574 0.929 . S
C1567 C1566 1.383 . S
C1567 C1568 1.377 . S
C1568 H1552 0.930 . S
C1568 C1567 1.377 . S
C1568 C1569 1.379 . S
C1569 H1553 0.931 . S
C1569 C1563 1.383 . S
C1569 C1568 1.379 . S
H1570 C1564 0.959 . S
H1571 C1564 0.961 . S
H1572 C1564 0.960 . S
H1573 C1565 0.930 . S
H1574 C1566 0.929 . S
H1575 C1583 0.929 . S
H1576 C1585 0.930 . S
H1577 C1587 0.930 . S
H1578 C1590 0.929 . S
H1579 C1593 0.930 . S
H1580 C1595 0.960 . S
H1581 C1595 0.960 . S
H1582 C1595 0.960 . S
C1583 H1575 0.929 . S
C1583 C1584 1.377 . S
C1583 C1585 1.384 . S
C1584 C1583 1.377 . S
C1584 C1590 1.390 . S
C1585 H1576 0.930 . S
C1585 C1583 1.384 . S
C1585 C1586 1.372 . S
C1586 C1585 1.372 . S
C1586 C1587 1.400 . S
C1586 C1591 1.490 . S
C1587 H1577 0.930 . S
C1587 C1586 1.400 . S
C1587 C1590 1.386 . S
H1588 C1604 0.930 . S
H1589 C1605 0.931 . S
C1590 H1578 0.929 . S
C1590 C1584 1.390 . S
C1590 C1587 1.386 . S
C1591 C1586 1.490 . S
C1591 C1593 1.395 . S
C1591 C1594 1.403 . S
H1592 C1598 0.930 . S
C1593 H1579 0.930 . S
C1593 C1591 1.395 . S
C1593 C1596 1.403 . S
C1594 C1591 1.403 . S
C1594 C1595 1.524 . S
C1594 C1598 1.400 . S
C1595 H1580 0.960 . S
C1595 H1581 0.960 . S
C1595 H1582 0.960 . S
C1595 C1594 1.524 . S
C1596 C1593 1.403 . S
C1596 C1597 1.392 . S
C1596 C1600 1.495 . S
C1597 C1596 1.392 . S
C1597 C1598 1.385 . S
C1597 C1599 1.478 . S
C1598 H1592 0.930 . S
C1598 C1594 1.400 . S
C1598 C1597 1.385 . S
C1599 C1597 1.478 . S
C1599 C1601 1.381 . S
C1599 C1605 1.383 . S
C1600 C1596 1.495 . S
C1600 H1606 0.959 . S
C1600 H1607 0.961 . S
C1600 H1608 0.960 . S
C1601 C1599 1.381 . S
C1601 C1602 1.394 . S
C1601 H1609 0.930 . S
C1602 C1601 1.394 . S
C1602 C1603 1.383 . S
C1602 H1610 0.929 . S
C1603 C1602 1.383 . S
C1603 C1604 1.377 . S
C1604 H1588 0.930 . S
C1604 C1603 1.377 . S
C1604 C1605 1.379 . S
C1605 H1589 0.931 . S
C1605 C1599 1.383 . S
C1605 C1604 1.379 . S
H1606 C1600 0.959 . S
H1607 C1600 0.961 . S
H1608 C1600 0.960 . S
H1609 C1601 0.930 . S
H1610 C1602 0.929 . S
H1611 C1619 0.929 . S
H1612 C1621 0.930 . S
H1613 C1623 0.930 . S
H1614 C1626 0.929 . S
H1615 C1629 0.930 . S
H1616 C1631 0.960 . S
H1617 C1631 0.960 . S
H1618 C1631 0.960 . S
C1619 H1611 0.929 . S
C1619 C1620 1.377 . S
C1619 C1621 1.384 . S
C1620 C1619 1.377 . S
C1620 C1626 1.390 . S
C1621 H1612 0.930 . S
C1621 C1619 1.384 . S
C1621 C1622 1.372 . S
C1622 C1621 1.372 . S
C1622 C1623 1.400 . S
C1622 C1627 1.490 . S
C1623 H1613 0.930 . S
C1623 C1622 1.400 . S
C1623 C1626 1.386 . S
H1624 C1640 0.930 . S
H1625 C1641 0.931 . S
C1626 H1614 0.929 . S
C1626 C1620 1.390 . S
C1626 C1623 1.386 . S
C1627 C1622 1.490 . S
C1627 C1629 1.395 . S
C1627 C1630 1.403 . S
H1628 C1634 0.930 . S
C1629 H1615 0.930 . S
C1629 C1627 1.395 . S
C1629 C1632 1.403 . S
C1630 C1627 1.403 . S
C1630 C1631 1.524 . S
C1630 C1634 1.400 . S
C1631 H1616 0.960 . S
C1631 H1617 0.960 . S
C1631 H1618 0.960 . S
C1631 C1630 1.524 . S
C1632 C1629 1.403 . S
C1632 C1633 1.392 . S
C1632 C1636 1.495 . S
C1633 C1632 1.392 . S
C1633 C1634 1.385 . S
C1633 C1635 1.478 . S
C1634 H1628 0.930 . S
C1634 C1630 1.400 . S
C1634 C1633 1.385 . S
C1635 C1633 1.478 . S
C1635 C1637 1.381 . S
C1635 C1641 1.383 . S
C1636 C1632 1.495 . S
C1636 H1642 0.959 . S
C1636 H1643 0.961 . S
C1636 H1644 0.960 . S
C1637 C1635 1.381 . S
C1637 C1638 1.394 . S
C1637 H1645 0.930 . S
C1638 C1637 1.394 . S
C1638 C1639 1.383 . S
C1638 H1646 0.929 . S
C1639 C1638 1.383 . S
C1639 C1640 1.377 . S
C1640 H1624 0.930 . S
C1640 C1639 1.377 . S
C1640 C1641 1.379 . S
C1641 H1625 0.931 . S
C1641 C1635 1.383 . S
C1641 C1640 1.379 . S
H1642 C1636 0.959 . S
H1643 C1636 0.961 . S
H1644 C1636 0.960 . S
H1645 C1637 0.930 . S
H1646 C1638 0.929 . S
H1647 C1655 0.929 . S
H1648 C1657 0.930 . S
H1649 C1659 0.930 . S
H1650 C1662 0.929 . S
H1651 C1665 0.930 . S
H1652 C1667 0.960 . S
H1653 C1667 0.960 . S
H1654 C1667 0.960 . S
C1655 H1647 0.929 . S
C1655 C1656 1.377 . S
C1655 C1657 1.384 . S
C1656 C1655 1.377 . S
C1656 C1662 1.390 . S
C1657 H1648 0.930 . S
C1657 C1655 1.384 . S
C1657 C1658 1.372 . S
C1658 C1657 1.372 . S
C1658 C1659 1.400 . S
C1658 C1663 1.490 1_545 S
C1659 H1649 0.930 . S
C1659 C1658 1.400 . S
C1659 C1662 1.386 . S
H1660 C1676 0.930 . S
H1661 C1677 0.931 . S
C1662 H1650 0.929 . S
C1662 C1656 1.390 . S
C1662 C1659 1.386 . S
C1663 C1658 1.490 1_565 S
C1663 C1665 1.395 . S
C1663 C1666 1.403 . S
H1664 C1670 0.930 . S
C1665 H1651 0.930 . S
C1665 C1663 1.395 . S
C1665 C1668 1.403 . S
C1666 C1663 1.403 . S
C1666 C1667 1.524 . S
C1666 C1670 1.400 . S
C1667 H1652 0.960 . S
C1667 H1653 0.960 . S
C1667 H1654 0.960 . S
C1667 C1666 1.524 . S
C1668 C1665 1.403 . S
C1668 C1669 1.392 . S
C1668 C1672 1.495 . S
C1669 C1668 1.392 . S
C1669 C1670 1.385 . S
C1669 C1671 1.478 . S
C1670 H1664 0.930 . S
C1670 C1666 1.400 . S
C1670 C1669 1.385 . S
C1671 C1669 1.478 . S
C1671 C1673 1.381 . S
C1671 C1677 1.383 . S
C1672 C1668 1.495 . S
C1672 H1678 0.959 . S
C1672 H1679 0.961 . S
C1672 H1680 0.960 . S
C1673 C1671 1.381 . S
C1673 C1674 1.394 . S
C1673 H1681 0.930 . S
C1674 C1673 1.394 . S
C1674 C1675 1.383 . S
C1674 H1682 0.929 . S
C1675 C1674 1.383 . S
C1675 C1676 1.377 . S
C1676 H1660 0.930 . S
C1676 C1675 1.377 . S
C1676 C1677 1.379 . S
C1677 H1661 0.931 . S
C1677 C1671 1.383 . S
C1677 C1676 1.379 . S
H1678 C1672 0.959 . S
H1679 C1672 0.961 . S
H1680 C1672 0.960 . S
H1681 C1673 0.930 . S
H1682 C1674 0.929 . S
H1683 C1691 0.929 . S
H1684 C1693 0.930 . S
H1685 C1695 0.930 . S
H1686 C1698 0.929 . S
H1687 C1701 0.930 . S
H1688 C1703 0.960 . S
H1689 C1703 0.960 . S
H1690 C1703 0.960 . S
C1691 H1683 0.929 . S
C1691 C1692 1.377 . S
C1691 C1693 1.384 . S
C1692 C1691 1.377 . S
C1692 C1698 1.390 . S
C1693 H1684 0.930 . S
C1693 C1691 1.384 . S
C1693 C1694 1.372 . S
C1694 C1693 1.372 . S
C1694 C1695 1.400 . S
C1694 C1699 1.490 1_655 S
C1695 H1685 0.930 . S
C1695 C1694 1.400 . S
C1695 C1698 1.386 . S
H1696 C1712 0.930 . S
H1697 C1713 0.931 . S
C1698 H1686 0.929 . S
C1698 C1692 1.390 . S
C1698 C1695 1.386 . S
C1699 C1694 1.490 1_455 S
C1699 C1701 1.395 . S
C1699 C1702 1.403 . S
H1700 C1706 0.930 . S
C1701 H1687 0.930 . S
C1701 C1699 1.395 . S
C1701 C1704 1.403 . S
C1702 C1699 1.403 . S
C1702 C1703 1.524 . S
C1702 C1706 1.400 . S
C1703 H1688 0.960 . S
C1703 H1689 0.960 . S
C1703 H1690 0.960 . S
C1703 C1702 1.524 . S
C1704 C1701 1.403 . S
C1704 C1705 1.392 . S
C1704 C1708 1.495 . S
C1705 C1704 1.392 . S
C1705 C1706 1.385 . S
C1705 C1707 1.478 . S
C1706 H1700 0.930 . S
C1706 C1702 1.400 . S
C1706 C1705 1.385 . S
C1707 C1705 1.478 . S
C1707 C1709 1.381 . S
C1707 C1713 1.383 . S
C1708 C1704 1.495 . S
C1708 H1714 0.959 . S
C1708 H1715 0.961 . S
C1708 H1716 0.960 . S
C1709 C1707 1.381 . S
C1709 C1710 1.394 . S
C1709 H1717 0.930 . S
C1710 C1709 1.394 . S
C1710 C1711 1.383 . S
C1710 H1718 0.929 . S
C1711 C1710 1.383 . S
C1711 C1712 1.377 . S
C1712 H1696 0.930 . S
C1712 C1711 1.377 . S
C1712 C1713 1.379 . S
C1713 H1697 0.931 . S
C1713 C1707 1.383 . S
C1713 C1712 1.379 . S
H1714 C1708 0.959 . S
H1715 C1708 0.961 . S
H1716 C1708 0.960 . S
H1717 C1709 0.930 . S
H1718 C1710 0.929 . S
H1719 C1727 0.929 . S
H1720 C1729 0.930 . S
H1721 C1731 0.930 . S
H1722 C1734 0.929 . S
H1723 C1737 0.930 . S
H1724 C1739 0.960 . S
H1725 C1739 0.960 . S
H1726 C1739 0.960 . S
C1727 H1719 0.929 . S
C1727 C1728 1.377 . S
C1727 C1729 1.384 . S
C1728 C1727 1.377 . S
C1728 C1734 1.390 . S
C1729 H1720 0.930 . S
C1729 C1727 1.384 . S
C1729 C1730 1.372 . S
C1730 C1729 1.372 . S
C1730 C1731 1.400 . S
C1730 C1735 1.490 . S
C1731 H1721 0.930 . S
C1731 C1730 1.400 . S
C1731 C1734 1.386 . S
H1732 C1748 0.930 . S
H1733 C1749 0.931 . S
C1734 H1722 0.929 . S
C1734 C1728 1.390 . S
C1734 C1731 1.386 . S
C1735 C1730 1.490 . S
C1735 C1737 1.395 . S
C1735 C1738 1.403 . S
H1736 C1742 0.930 . S
C1737 H1723 0.930 . S
C1737 C1735 1.395 . S
C1737 C1740 1.403 . S
C1738 C1735 1.403 . S
C1738 C1739 1.524 . S
C1738 C1742 1.400 . S
C1739 H1724 0.960 . S
C1739 H1725 0.960 . S
C1739 H1726 0.960 . S
C1739 C1738 1.524 . S
C1740 C1737 1.403 . S
C1740 C1741 1.392 . S
C1740 C1744 1.495 . S
C1741 C1740 1.392 . S
C1741 C1742 1.385 . S
C1741 C1743 1.478 . S
C1742 H1736 0.930 . S
C1742 C1738 1.400 . S
C1742 C1741 1.385 . S
C1743 C1741 1.478 . S
C1743 C1745 1.381 . S
C1743 C1749 1.383 . S
C1744 C1740 1.495 . S
C1744 H1750 0.959 . S
C1744 H1751 0.961 . S
C1744 H1752 0.960 . S
C1745 C1743 1.381 . S
C1745 C1746 1.394 . S
C1745 H1753 0.930 . S
C1746 C1745 1.394 . S
C1746 C1747 1.383 . S
C1746 H1754 0.929 . S
C1747 C1746 1.383 . S
C1747 C1748 1.377 . S
C1748 H1732 0.930 . S
C1748 C1747 1.377 . S
C1748 C1749 1.379 . S
C1749 H1733 0.931 . S
C1749 C1743 1.383 . S
C1749 C1748 1.379 . S
H1750 C1744 0.959 . S
H1751 C1744 0.961 . S
H1752 C1744 0.960 . S
H1753 C1745 0.930 . S
H1754 C1746 0.929 . S
H1755 C1763 0.929 . S
H1756 C1765 0.930 . S
H1757 C1767 0.930 . S
H1758 C1770 0.929 . S
H1759 C1773 0.930 . S
H1760 C1775 0.960 . S
H1761 C1775 0.960 . S
H1762 C1775 0.960 . S
C1763 H1755 0.929 . S
C1763 C1764 1.377 . S
C1763 C1765 1.384 . S
C1764 C1763 1.377 . S
C1764 C1770 1.390 . S
C1765 H1756 0.930 . S
C1765 C1763 1.384 . S
C1765 C1766 1.372 . S
C1766 C1765 1.372 . S
C1766 C1767 1.400 . S
C1766 C1771 1.490 . S
C1767 H1757 0.930 . S
C1767 C1766 1.400 . S
C1767 C1770 1.386 . S
H1768 C1784 0.930 . S
H1769 C1785 0.931 . S
C1770 H1758 0.929 . S
C1770 C1764 1.390 . S
C1770 C1767 1.386 . S
C1771 C1766 1.490 . S
C1771 C1773 1.395 . S
C1771 C1774 1.403 . S
H1772 C1778 0.930 . S
C1773 H1759 0.930 . S
C1773 C1771 1.395 . S
C1773 C1776 1.403 . S
C1774 C1771 1.403 . S
C1774 C1775 1.524 . S
C1774 C1778 1.400 . S
C1775 H1760 0.960 . S
C1775 H1761 0.960 . S
C1775 H1762 0.960 . S
C1775 C1774 1.524 . S
C1776 C1773 1.403 . S
C1776 C1777 1.392 . S
C1776 C1780 1.495 . S
C1777 C1776 1.392 . S
C1777 C1778 1.385 . S
C1777 C1779 1.478 . S
C1778 H1772 0.930 . S
C1778 C1774 1.400 . S
C1778 C1777 1.385 . S
C1779 C1777 1.478 . S
C1779 C1781 1.381 . S
C1779 C1785 1.383 . S
C1780 C1776 1.495 . S
C1780 H1786 0.959 . S
C1780 H1787 0.961 . S
C1780 H1788 0.960 . S
C1781 C1779 1.381 . S
C1781 C1782 1.394 . S
C1781 H1789 0.930 . S
C1782 C1781 1.394 . S
C1782 C1783 1.383 . S
C1782 H1790 0.929 . S
C1783 C1782 1.383 . S
C1783 C1784 1.377 . S
C1784 H1768 0.930 . S
C1784 C1783 1.377 . S
C1784 C1785 1.379 . S
C1785 H1769 0.931 . S
C1785 C1779 1.383 . S
C1785 C1784 1.379 . S
H1786 C1780 0.959 . S
H1787 C1780 0.961 . S
H1788 C1780 0.960 . S
H1789 C1781 0.930 . S
H1790 C1782 0.929 . S
H1791 C1799 0.929 . S
H1792 C1801 0.930 . S
H1793 C1803 0.930 . S
H1794 C1806 0.929 . S
H1795 C1809 0.930 . S
H1796 C1811 0.960 . S
H1797 C1811 0.960 . S
H1798 C1811 0.960 . S
C1799 H1791 0.929 . S
C1799 C1800 1.377 . S
C1799 C1801 1.384 . S
C1800 C1799 1.377 . S
C1800 C1806 1.390 . S
C1801 H1792 0.930 . S
C1801 C1799 1.384 . S
C1801 C1802 1.372 . S
C1802 C1801 1.372 . S
C1802 C1803 1.400 . S
C1802 C1807 1.490 . S
C1803 H1793 0.930 . S
C1803 C1802 1.400 . S
C1803 C1806 1.386 . S
H1804 C1820 0.930 . S
H1805 C1821 0.931 . S
C1806 H1794 0.929 . S
C1806 C1800 1.390 . S
C1806 C1803 1.386 . S
C1807 C1802 1.490 . S
C1807 C1809 1.395 . S
C1807 C1810 1.403 . S
H1808 C1814 0.930 . S
C1809 H1795 0.930 . S
C1809 C1807 1.395 . S
C1809 C1812 1.403 . S
C1810 C1807 1.403 . S
C1810 C1811 1.524 . S
C1810 C1814 1.400 . S
C1811 H1796 0.960 . S
C1811 H1797 0.960 . S
C1811 H1798 0.960 . S
C1811 C1810 1.524 . S
C1812 C1809 1.403 . S
C1812 C1813 1.392 . S
C1812 C1816 1.495 . S
C1813 C1812 1.392 . S
C1813 C1814 1.385 . S
C1813 C1815 1.478 . S
C1814 H1808 0.930 . S
C1814 C1810 1.400 . S
C1814 C1813 1.385 . S
C1815 C1813 1.478 . S
C1815 C1817 1.381 . S
C1815 C1821 1.383 . S
C1816 C1812 1.495 . S
C1816 H1822 0.959 . S
C1816 H1823 0.961 . S
C1816 H1824 0.960 . S
C1817 C1815 1.381 . S
C1817 C1818 1.394 . S
C1817 H1825 0.930 . S
C1818 C1817 1.394 . S
C1818 C1819 1.383 . S
C1818 H1826 0.929 . S
C1819 C1818 1.383 . S
C1819 C1820 1.377 . S
C1820 H1804 0.930 . S
C1820 C1819 1.377 . S
C1820 C1821 1.379 . S
C1821 H1805 0.931 . S
C1821 C1815 1.383 . S
C1821 C1820 1.379 . S
H1822 C1816 0.959 . S
H1823 C1816 0.961 . S
H1824 C1816 0.960 . S
H1825 C1817 0.930 . S
H1826 C1818 0.929 . S
H1827 C1835 0.929 . S
H1828 C1837 0.930 . S
H1829 C1839 0.930 . S
H1830 C1842 0.929 . S
H1831 C1845 0.930 . S
H1832 C1847 0.960 . S
H1833 C1847 0.960 . S
H1834 C1847 0.960 . S
C1835 H1827 0.929 . S
C1835 C1836 1.377 . S
C1835 C1837 1.384 . S
C1836 C1835 1.377 . S
C1836 C1842 1.390 . S
C1837 H1828 0.930 . S
C1837 C1835 1.384 . S
C1837 C1838 1.372 . S
C1838 C1837 1.372 . S
C1838 C1839 1.400 . S
C1838 C1843 1.490 . S
C1839 H1829 0.930 . S
C1839 C1838 1.400 . S
C1839 C1842 1.386 . S
H1840 C1856 0.930 . S
H1841 C1857 0.931 . S
C1842 H1830 0.929 . S
C1842 C1836 1.390 . S
C1842 C1839 1.386 . S
C1843 C1838 1.490 . S
C1843 C1845 1.395 . S
C1843 C1846 1.403 . S
H1844 C1850 0.930 . S
C1845 H1831 0.930 . S
C1845 C1843 1.395 . S
C1845 C1848 1.403 . S
C1846 C1843 1.403 . S
C1846 C1847 1.524 . S
C1846 C1850 1.400 . S
C1847 H1832 0.960 . S
C1847 H1833 0.960 . S
C1847 H1834 0.960 . S
C1847 C1846 1.524 . S
C1848 C1845 1.403 . S
C1848 C1849 1.392 . S
C1848 C1852 1.495 . S
C1849 C1848 1.392 . S
C1849 C1850 1.385 . S
C1849 C1851 1.478 . S
C1850 H1844 0.930 . S
C1850 C1846 1.400 . S
C1850 C1849 1.385 . S
C1851 C1849 1.478 . S
C1851 C1853 1.381 . S
C1851 C1857 1.383 . S
C1852 C1848 1.495 . S
C1852 H1858 0.959 . S
C1852 H1859 0.961 . S
C1852 H1860 0.960 . S
C1853 C1851 1.381 . S
C1853 C1854 1.394 . S
C1853 H1861 0.930 . S
C1854 C1853 1.394 . S
C1854 C1855 1.383 . S
C1854 H1862 0.929 . S
C1855 C1854 1.383 . S
C1855 C1856 1.377 . S
C1856 H1840 0.930 . S
C1856 C1855 1.377 . S
C1856 C1857 1.379 . S
C1857 H1841 0.931 . S
C1857 C1851 1.383 . S
C1857 C1856 1.379 . S
H1858 C1852 0.959 . S
H1859 C1852 0.961 . S
H1860 C1852 0.960 . S
H1861 C1853 0.930 . S
H1862 C1854 0.929 . S
H1863 C1871 0.929 . S
H1864 C1873 0.930 . S
H1865 C1875 0.930 . S
H1866 C1878 0.929 . S
H1867 C1881 0.930 . S
H1868 C1883 0.960 . S
H1869 C1883 0.960 . S
H1870 C1883 0.960 . S
C1871 H1863 0.929 . S
C1871 C1872 1.377 . S
C1871 C1873 1.384 . S
C1872 C1871 1.377 . S
C1872 C1878 1.390 . S
C1873 H1864 0.930 . S
C1873 C1871 1.384 . S
C1873 C1874 1.372 . S
C1874 C1873 1.372 . S
C1874 C1875 1.400 . S
C1874 C1879 1.490 1_565 S
C1875 H1865 0.930 . S
C1875 C1874 1.400 . S
C1875 C1878 1.386 . S
H1876 C1892 0.930 . S
H1877 C1893 0.931 . S
C1878 H1866 0.929 . S
C1878 C1872 1.390 . S
C1878 C1875 1.386 . S
C1879 C1874 1.490 1_545 S
C1879 C1881 1.395 . S
C1879 C1882 1.403 . S
H1880 C1886 0.930 . S
C1881 H1867 0.930 . S
C1881 C1879 1.395 . S
C1881 C1884 1.403 . S
C1882 C1879 1.403 . S
C1882 C1883 1.524 . S
C1882 C1886 1.400 . S
C1883 H1868 0.960 . S
C1883 H1869 0.960 . S
C1883 H1870 0.960 . S
C1883 C1882 1.524 . S
C1884 C1881 1.403 . S
C1884 C1885 1.392 . S
C1884 C1888 1.495 . S
C1885 C1884 1.392 . S
C1885 C1886 1.385 . S
C1885 C1887 1.478 . S
C1886 H1880 0.930 . S
C1886 C1882 1.400 . S
C1886 C1885 1.385 . S
C1887 C1885 1.478 . S
C1887 C1889 1.381 . S
C1887 C1893 1.383 . S
C1888 C1884 1.495 . S
C1888 H1894 0.959 . S
C1888 H1895 0.961 . S
C1888 H1896 0.960 . S
C1889 C1887 1.381 . S
C1889 C1890 1.394 . S
C1889 H1897 0.930 . S
C1890 C1889 1.394 . S
C1890 C1891 1.383 . S
C1890 H1898 0.929 . S
C1891 C1890 1.383 . S
C1891 C1892 1.377 . S
C1892 H1876 0.930 . S
C1892 C1891 1.377 . S
C1892 C1893 1.379 . S
C1893 H1877 0.931 . S
C1893 C1887 1.383 . S
C1893 C1892 1.379 . S
H1894 C1888 0.959 . S
H1895 C1888 0.961 . S
H1896 C1888 0.960 . S
H1897 C1889 0.930 . S
H1898 C1890 0.929 . S
H1899 C1907 0.929 . S
H1900 C1909 0.930 . S
H1901 C1911 0.930 . S
H1902 C1914 0.929 . S
H1903 C1917 0.930 . S
H1904 C1919 0.960 . S
H1905 C1919 0.960 . S
H1906 C1919 0.960 . S
C1907 H1899 0.929 . S
C1907 C1908 1.377 . S
C1907 C1909 1.384 . S
C1908 C1907 1.377 . S
C1908 C1914 1.390 . S
C1909 H1900 0.930 . S
C1909 C1907 1.384 . S
C1909 C1910 1.372 . S
C1910 C1909 1.372 . S
C1910 C1911 1.400 . S
C1910 C1915 1.490 1_455 S
C1911 H1901 0.930 . S
C1911 C1910 1.400 . S
C1911 C1914 1.386 . S
H1912 C1928 0.930 . S
H1913 C1929 0.931 . S
C1914 H1902 0.929 . S
C1914 C1908 1.390 . S
C1914 C1911 1.386 . S
C1915 C1910 1.490 1_655 S
C1915 C1917 1.395 . S
C1915 C1918 1.403 . S
H1916 C1922 0.930 . S
C1917 H1903 0.930 . S
C1917 C1915 1.395 . S
C1917 C1920 1.403 . S
C1918 C1915 1.403 . S
C1918 C1919 1.524 . S
C1918 C1922 1.400 . S
C1919 H1904 0.960 . S
C1919 H1905 0.960 . S
C1919 H1906 0.960 . S
C1919 C1918 1.524 . S
C1920 C1917 1.403 . S
C1920 C1921 1.392 . S
C1920 C1924 1.495 . S
C1921 C1920 1.392 . S
C1921 C1922 1.385 . S
C1921 C1923 1.478 . S
C1922 H1916 0.930 . S
C1922 C1918 1.400 . S
C1922 C1921 1.385 . S
C1923 C1921 1.478 . S
C1923 C1925 1.381 . S
C1923 C1929 1.383 . S
C1924 C1920 1.495 . S
C1924 H1930 0.959 . S
C1924 H1931 0.961 . S
C1924 H1932 0.960 . S
C1925 C1923 1.381 . S
C1925 C1926 1.394 . S
C1925 H1933 0.930 . S
C1926 C1925 1.394 . S
C1926 C1927 1.383 . S
C1926 H1934 0.929 . S
C1927 C1926 1.383 . S
C1927 C1928 1.377 . S
C1928 H1912 0.930 . S
C1928 C1927 1.377 . S
C1928 C1929 1.379 . S
C1929 H1913 0.931 . S
C1929 C1923 1.383 . S
C1929 C1928 1.379 . S
H1930 C1924 0.959 . S
H1931 C1924 0.961 . S
H1932 C1924 0.960 . S
H1933 C1925 0.930 . S
H1934 C1926 0.929 . S
H1935 C1943 0.929 . S
H1936 C1945 0.930 . S
H1937 C1947 0.930 . S
H1938 C1950 0.929 . S
H1939 C1953 0.930 . S
H1940 C1955 0.960 . S
H1941 C1955 0.960 . S
H1942 C1955 0.960 . S
C1943 H1935 0.929 . S
C1943 C1944 1.377 . S
C1943 C1945 1.384 . S
C1944 C1943 1.377 . S
C1944 C1950 1.390 . S
C1945 H1936 0.930 . S
C1945 C1943 1.384 . S
C1945 C1946 1.372 . S
C1946 C1945 1.372 . S
C1946 C1947 1.400 . S
C1946 C1951 1.490 . S
C1947 H1937 0.930 . S
C1947 C1946 1.400 . S
C1947 C1950 1.386 . S
H1948 C1964 0.930 . S
H1949 C1965 0.931 . S
C1950 H1938 0.929 . S
C1950 C1944 1.390 . S
C1950 C1947 1.386 . S
C1951 C1946 1.490 . S
C1951 C1953 1.395 . S
C1951 C1954 1.403 . S
H1952 C1958 0.930 . S
C1953 H1939 0.930 . S
C1953 C1951 1.395 . S
C1953 C1956 1.403 . S
C1954 C1951 1.403 . S
C1954 C1955 1.524 . S
C1954 C1958 1.400 . S
C1955 H1940 0.960 . S
C1955 H1941 0.960 . S
C1955 H1942 0.960 . S
C1955 C1954 1.524 . S
C1956 C1953 1.403 . S
C1956 C1957 1.392 . S
C1956 C1960 1.495 . S
C1957 C1956 1.392 . S
C1957 C1958 1.385 . S
C1957 C1959 1.478 . S
C1958 H1952 0.930 . S
C1958 C1954 1.400 . S
C1958 C1957 1.385 . S
C1959 C1957 1.478 . S
C1959 C1961 1.381 . S
C1959 C1965 1.383 . S
C1960 C1956 1.495 . S
C1960 H1966 0.959 . S
C1960 H1967 0.961 . S
C1960 H1968 0.960 . S
C1961 C1959 1.381 . S
C1961 C1962 1.394 . S
C1961 H1969 0.930 . S
C1962 C1961 1.394 . S
C1962 C1963 1.383 . S
C1962 H1970 0.929 . S
C1963 C1962 1.383 . S
C1963 C1964 1.377 . S
C1964 H1948 0.930 . S
C1964 C1963 1.377 . S
C1964 C1965 1.379 . S
C1965 H1949 0.931 . S
C1965 C1959 1.383 . S
C1965 C1964 1.379 . S
H1966 C1960 0.959 . S
H1967 C1960 0.961 . S
H1968 C1960 0.960 . S
H1969 C1961 0.930 . S
H1970 C1962 0.929 . S
H1971 C1979 0.929 . S
H1972 C1981 0.930 . S
H1973 C1983 0.930 . S
H1974 C1986 0.929 . S
H1975 C1989 0.930 . S
H1976 C1991 0.960 . S
H1977 C1991 0.960 . S
H1978 C1991 0.960 . S
C1979 H1971 0.929 . S
C1979 C1980 1.377 . S
C1979 C1981 1.384 . S
C1980 C1979 1.377 . S
C1980 C1986 1.390 . S
C1981 H1972 0.930 . S
C1981 C1979 1.384 . S
C1981 C1982 1.372 . S
C1982 C1981 1.372 . S
C1982 C1983 1.400 . S
C1982 C1987 1.490 1_455 S
C1983 H1973 0.930 . S
C1983 C1982 1.400 . S
C1983 C1986 1.386 . S
H1984 C2000 0.930 . S
H1985 C2001 0.931 . S
C1986 H1974 0.929 . S
C1986 C1980 1.390 . S
C1986 C1983 1.386 . S
C1987 C1982 1.490 1_655 S
C1987 C1989 1.395 . S
C1987 C1990 1.403 . S
H1988 C1994 0.930 . S
C1989 H1975 0.930 . S
C1989 C1987 1.395 . S
C1989 C1992 1.403 . S
C1990 C1987 1.403 . S
C1990 C1991 1.524 . S
C1990 C1994 1.400 . S
C1991 H1976 0.960 . S
C1991 H1977 0.960 . S
C1991 H1978 0.960 . S
C1991 C1990 1.524 . S
C1992 C1989 1.403 . S
C1992 C1993 1.392 . S
C1992 C1996 1.495 . S
C1993 C1992 1.392 . S
C1993 C1994 1.385 . S
C1993 C1995 1.478 . S
C1994 H1988 0.930 . S
C1994 C1990 1.400 . S
C1994 C1993 1.385 . S
C1995 C1993 1.478 . S
C1995 C1997 1.381 . S
C1995 C2001 1.383 . S
C1996 C1992 1.495 . S
C1996 H2002 0.959 . S
C1996 H2003 0.961 . S
C1996 H2004 0.960 . S
C1997 C1995 1.381 . S
C1997 C1998 1.394 . S
C1997 H2005 0.930 . S
C1998 C1997 1.394 . S
C1998 C1999 1.383 . S
C1998 H2006 0.929 . S
C1999 C1998 1.383 . S
C1999 C2000 1.377 . S
C2000 H1984 0.930 . S
C2000 C1999 1.377 . S
C2000 C2001 1.379 . S
C2001 H1985 0.931 . S
C2001 C1995 1.383 . S
C2001 C2000 1.379 . S
H2002 C1996 0.959 . S
H2003 C1996 0.961 . S
H2004 C1996 0.960 . S
H2005 C1997 0.930 . S
H2006 C1998 0.929 . S
H2007 C2015 0.929 . S
H2008 C2017 0.930 . S
H2009 C2019 0.930 . S
H2010 C2022 0.929 . S
H2011 C2025 0.930 . S
H2012 C2027 0.960 . S
H2013 C2027 0.960 . S
H2014 C2027 0.960 . S
C2015 H2007 0.929 . S
C2015 C2016 1.377 . S
C2015 C2017 1.384 . S
C2016 C2015 1.377 . S
C2016 C2022 1.390 . S
C2017 H2008 0.930 . S
C2017 C2015 1.384 . S
C2017 C2018 1.372 . S
C2018 C2017 1.372 . S
C2018 C2019 1.400 . S
C2018 C2023 1.490 . S
C2019 H2009 0.930 . S
C2019 C2018 1.400 . S
C2019 C2022 1.386 . S
H2020 C2036 0.930 . S
H2021 C2037 0.931 . S
C2022 H2010 0.929 . S
C2022 C2016 1.390 . S
C2022 C2019 1.386 . S
C2023 C2018 1.490 . S
C2023 C2025 1.395 . S
C2023 C2026 1.403 . S
H2024 C2030 0.930 . S
C2025 H2011 0.930 . S
C2025 C2023 1.395 . S
C2025 C2028 1.403 . S
C2026 C2023 1.403 . S
C2026 C2027 1.524 . S
C2026 C2030 1.400 . S
C2027 H2012 0.960 . S
C2027 H2013 0.960 . S
C2027 H2014 0.960 . S
C2027 C2026 1.524 . S
C2028 C2025 1.403 . S
C2028 C2029 1.392 . S
C2028 C2032 1.495 . S
C2029 C2028 1.392 . S
C2029 C2030 1.385 . S
C2029 C2031 1.478 . S
C2030 H2024 0.930 . S
C2030 C2026 1.400 . S
C2030 C2029 1.385 . S
C2031 C2029 1.478 . S
C2031 C2033 1.381 . S
C2031 C2037 1.383 . S
C2032 C2028 1.495 . S
C2032 H2038 0.959 . S
C2032 H2039 0.961 . S
C2032 H2040 0.960 . S
C2033 C2031 1.381 . S
C2033 C2034 1.394 . S
C2033 H2041 0.930 . S
C2034 C2033 1.394 . S
C2034 C2035 1.383 . S
C2034 H2042 0.929 . S
C2035 C2034 1.383 . S
C2035 C2036 1.377 . S
C2036 H2020 0.930 . S
C2036 C2035 1.377 . S
C2036 C2037 1.379 . S
C2037 H2021 0.931 . S
C2037 C2031 1.383 . S
C2037 C2036 1.379 . S
H2038 C2032 0.959 . S
H2039 C2032 0.961 . S
H2040 C2032 0.960 . S
H2041 C2033 0.930 . S
H2042 C2034 0.929 . S
H2043 C2051 0.929 . S
H2044 C2053 0.930 . S
H2045 C2055 0.930 . S
H2046 C2058 0.929 . S
H2047 C2061 0.930 . S
H2048 C2063 0.960 . S
H2049 C2063 0.960 . S
H2050 C2063 0.960 . S
C2051 H2043 0.929 . S
C2051 C2052 1.377 . S
C2051 C2053 1.384 . S
C2052 C2051 1.377 . S
C2052 C2058 1.390 . S
C2053 H2044 0.930 . S
C2053 C2051 1.384 . S
C2053 C2054 1.372 . S
C2054 C2053 1.372 . S
C2054 C2055 1.400 . S
C2054 C2059 1.490 1_565 S
C2055 H2045 0.930 . S
C2055 C2054 1.400 . S
C2055 C2058 1.386 . S
H2056 C2072 0.930 . S
H2057 C2073 0.931 . S
C2058 H2046 0.929 . S
C2058 C2052 1.390 . S
C2058 C2055 1.386 . S
C2059 C2054 1.490 1_545 S
C2059 C2061 1.395 . S
C2059 C2062 1.403 . S
H2060 C2066 0.930 . S
C2061 H2047 0.930 . S
C2061 C2059 1.395 . S
C2061 C2064 1.403 . S
C2062 C2059 1.403 . S
C2062 C2063 1.524 . S
C2062 C2066 1.400 . S
C2063 H2048 0.960 . S
C2063 H2049 0.960 . S
C2063 H2050 0.960 . S
C2063 C2062 1.524 . S
C2064 C2061 1.403 . S
C2064 C2065 1.392 . S
C2064 C2068 1.495 . S
C2065 C2064 1.392 . S
C2065 C2066 1.385 . S
C2065 C2067 1.478 . S
C2066 H2060 0.930 . S
C2066 C2062 1.400 . S
C2066 C2065 1.385 . S
C2067 C2065 1.478 . S
C2067 C2069 1.381 . S
C2067 C2073 1.383 . S
C2068 C2064 1.495 . S
C2068 H2074 0.959 . S
C2068 H2075 0.961 . S
C2068 H2076 0.960 . S
C2069 C2067 1.381 . S
C2069 C2070 1.394 . S
C2069 H2077 0.930 . S
C2070 C2069 1.394 . S
C2070 C2071 1.383 . S
C2070 H2078 0.929 . S
C2071 C2070 1.383 . S
C2071 C2072 1.377 . S
C2072 H2056 0.930 . S
C2072 C2071 1.377 . S
C2072 C2073 1.379 . S
C2073 H2057 0.931 . S
C2073 C2067 1.383 . S
C2073 C2072 1.379 . S
H2074 C2068 0.959 . S
H2075 C2068 0.961 . S
H2076 C2068 0.960 . S
H2077 C2069 0.930 . S
H2078 C2070 0.929 . S
H2079 C2087 0.929 . S
H2080 C2089 0.930 . S
H2081 C2091 0.930 . S
H2082 C2094 0.929 . S
H2083 C2097 0.930 . S
H2084 C2099 0.960 . S
H2085 C2099 0.960 . S
H2086 C2099 0.960 . S
C2087 H2079 0.929 . S
C2087 C2088 1.377 . S
C2087 C2089 1.384 . S
C2088 C2087 1.377 . S
C2088 C2094 1.390 . S
C2089 H2080 0.930 . S
C2089 C2087 1.384 . S
C2089 C2090 1.372 . S
C2090 C2089 1.372 . S
C2090 C2091 1.400 . S
C2090 C2095 1.490 . S
C2091 H2081 0.930 . S
C2091 C2090 1.400 . S
C2091 C2094 1.386 . S
H2092 C2108 0.930 . S
H2093 C2109 0.931 . S
C2094 H2082 0.929 . S
C2094 C2088 1.390 . S
C2094 C2091 1.386 . S
C2095 C2090 1.490 . S
C2095 C2097 1.395 . S
C2095 C2098 1.403 . S
H2096 C2102 0.930 . S
C2097 H2083 0.930 . S
C2097 C2095 1.395 . S
C2097 C2100 1.403 . S
C2098 C2095 1.403 . S
C2098 C2099 1.524 . S
C2098 C2102 1.400 . S
C2099 H2084 0.960 . S
C2099 H2085 0.960 . S
C2099 H2086 0.960 . S
C2099 C2098 1.524 . S
C2100 C2097 1.403 . S
C2100 C2101 1.392 . S
C2100 C2104 1.495 . S
C2101 C2100 1.392 . S
C2101 C2102 1.385 . S
C2101 C2103 1.478 . S
C2102 H2096 0.930 . S
C2102 C2098 1.400 . S
C2102 C2101 1.385 . S
C2103 C2101 1.478 . S
C2103 C2105 1.381 . S
C2103 C2109 1.383 . S
C2104 C2100 1.495 . S
C2104 H2110 0.959 . S
C2104 H2111 0.961 . S
C2104 H2112 0.960 . S
C2105 C2103 1.381 . S
C2105 C2106 1.394 . S
C2105 H2113 0.930 . S
C2106 C2105 1.394 . S
C2106 C2107 1.383 . S
C2106 H2114 0.929 . S
C2107 C2106 1.383 . S
C2107 C2108 1.377 . S
C2108 H2092 0.930 . S
C2108 C2107 1.377 . S
C2108 C2109 1.379 . S
C2109 H2093 0.931 . S
C2109 C2103 1.383 . S
C2109 C2108 1.379 . S
H2110 C2104 0.959 . S
H2111 C2104 0.961 . S
H2112 C2104 0.960 . S
H2113 C2105 0.930 . S
H2114 C2106 0.929 . S
H2115 C2123 0.929 . S
H2116 C2125 0.930 . S
H2117 C2127 0.930 . S
H2118 C2130 0.929 . S
H2119 C2133 0.930 . S
H2120 C2135 0.960 . S
H2121 C2135 0.960 . S
H2122 C2135 0.960 . S
C2123 H2115 0.929 . S
C2123 C2124 1.377 . S
C2123 C2125 1.384 . S
C2124 C2123 1.377 . S
C2124 C2130 1.390 . S
C2125 H2116 0.930 . S
C2125 C2123 1.384 . S
C2125 C2126 1.372 . S
C2126 C2125 1.372 . S
C2126 C2127 1.400 . S
C2126 C2131 1.490 . S
C2127 H2117 0.930 . S
C2127 C2126 1.400 . S
C2127 C2130 1.386 . S
H2128 C2144 0.930 . S
H2129 C2145 0.931 . S
C2130 H2118 0.929 . S
C2130 C2124 1.390 . S
C2130 C2127 1.386 . S
C2131 C2126 1.490 . S
C2131 C2133 1.395 . S
C2131 C2134 1.403 . S
H2132 C2138 0.930 . S
C2133 H2119 0.930 . S
C2133 C2131 1.395 . S
C2133 C2136 1.403 . S
C2134 C2131 1.403 . S
C2134 C2135 1.524 . S
C2134 C2138 1.400 . S
C2135 H2120 0.960 . S
C2135 H2121 0.960 . S
C2135 H2122 0.960 . S
C2135 C2134 1.524 . S
C2136 C2133 1.403 . S
C2136 C2137 1.392 . S
C2136 C2140 1.495 . S
C2137 C2136 1.392 . S
C2137 C2138 1.385 . S
C2137 C2139 1.478 . S
C2138 H2132 0.930 . S
C2138 C2134 1.400 . S
C2138 C2137 1.385 . S
C2139 C2137 1.478 . S
C2139 C2141 1.381 . S
C2139 C2145 1.383 . S
C2140 C2136 1.495 . S
C2140 H2146 0.959 . S
C2140 H2147 0.961 . S
C2140 H2148 0.960 . S
C2141 C2139 1.381 . S
C2141 C2142 1.394 . S
C2141 H2149 0.930 . S
C2142 C2141 1.394 . S
C2142 C2143 1.383 . S
C2142 H2150 0.929 . S
C2143 C2142 1.383 . S
C2143 C2144 1.377 . S
C2144 H2128 0.930 . S
C2144 C2143 1.377 . S
C2144 C2145 1.379 . S
C2145 H2129 0.931 . S
C2145 C2139 1.383 . S
C2145 C2144 1.379 . S
H2146 C2140 0.959 . S
H2147 C2140 0.961 . S
H2148 C2140 0.960 . S
H2149 C2141 0.930 . S
H2150 C2142 0.929 . S
H2151 C2159 0.929 . S
H2152 C2161 0.930 . S
H2153 C2163 0.930 . S
H2154 C2166 0.929 . S
H2155 C2169 0.930 . S
H2156 C2171 0.960 . S
H2157 C2171 0.960 . S
H2158 C2171 0.960 . S
C2159 H2151 0.929 . S
C2159 C2160 1.377 . S
C2159 C2161 1.384 . S
C2160 C2159 1.377 . S
C2160 C2166 1.390 . S
C2161 H2152 0.930 . S
C2161 C2159 1.384 . S
C2161 C2162 1.372 . S
C2162 C2161 1.372 . S
C2162 C2163 1.400 . S
C2162 C2167 1.490 . S
C2163 H2153 0.930 . S
C2163 C2162 1.400 . S
C2163 C2166 1.386 . S
H2164 C2180 0.930 . S
H2165 C2181 0.931 . S
C2166 H2154 0.929 . S
C2166 C2160 1.390 . S
C2166 C2163 1.386 . S
C2167 C2162 1.490 . S
C2167 C2169 1.395 . S
C2167 C2170 1.403 . S
H2168 C2174 0.930 . S
C2169 H2155 0.930 . S
C2169 C2167 1.395 . S
C2169 C2172 1.403 . S
C2170 C2167 1.403 . S
C2170 C2171 1.524 . S
C2170 C2174 1.400 . S
C2171 H2156 0.960 . S
C2171 H2157 0.960 . S
C2171 H2158 0.960 . S
C2171 C2170 1.524 . S
C2172 C2169 1.403 . S
C2172 C2173 1.392 . S
C2172 C2176 1.495 . S
C2173 C2172 1.392 . S
C2173 C2174 1.385 . S
C2173 C2175 1.478 . S
C2174 H2168 0.930 . S
C2174 C2170 1.400 . S
C2174 C2173 1.385 . S
C2175 C2173 1.478 . S
C2175 C2177 1.381 . S
C2175 C2181 1.383 . S
C2176 C2172 1.495 . S
C2176 H2182 0.959 . S
C2176 H2183 0.961 . S
C2176 H2184 0.960 . S
C2177 C2175 1.381 . S
C2177 C2178 1.394 . S
C2177 H2185 0.930 . S
C2178 C2177 1.394 . S
C2178 C2179 1.383 . S
C2178 H2186 0.929 . S
C2179 C2178 1.383 . S
C2179 C2180 1.377 . S
C2180 H2164 0.930 . S
C2180 C2179 1.377 . S
C2180 C2181 1.379 . S
C2181 H2165 0.931 . S
C2181 C2175 1.383 . S
C2181 C2180 1.379 . S
H2182 C2176 0.959 . S
H2183 C2176 0.961 . S
H2184 C2176 0.960 . S
H2185 C2177 0.930 . S
H2186 C2178 0.929 . S
H2187 C2195 0.929 . S
H2188 C2197 0.966 . S
H2189 C2199 0.930 . S
H2190 C2202 0.929 . S
H2191 C2205 0.952 . S
H2192 C2207 0.960 . S
H2193 C2207 0.960 . S
H2194 C2207 0.960 . S
C2195 H2187 0.929 . S
C2195 C2196 1.377 . S
C2195 C2197 1.384 . S
C2196 C2195 1.377 . S
C2196 C2202 1.390 . S
C2197 H2188 0.966 . S
C2197 C2195 1.384 . S
C2197 C2198 1.372 . S
C2198 C2197 1.372 . S
C2198 C2199 1.400 . S
C2198 C2203 1.490 . S
C2199 H2189 0.930 . S
C2199 C2198 1.400 . S
C2199 C2202 1.386 . S
H2200 C2216 0.930 . S
H2201 C2217 0.931 . S
C2202 H2190 0.929 . S
C2202 C2196 1.390 . S
C2202 C2199 1.386 . S
C2203 C2198 1.490 . S
C2203 C2205 1.365 1_565 S
C2203 C2206 1.403 . S
H2204 C2210 0.930 . S
C2205 H2191 0.952 . S
C2205 C2203 1.365 1_545 S
C2205 C2208 1.414 . S
C2206 C2203 1.403 . S
C2206 C2207 1.524 . S
C2206 C2210 1.400 . S
C2207 H2192 0.960 . S
C2207 H2193 0.960 . S
C2207 H2194 0.960 . S
C2207 C2206 1.524 . S
C2208 C2205 1.414 . S
C2208 C2209 1.392 1_545 S
C2208 C2212 1.495 . S
C2209 C2208 1.392 1_565 S
C2209 C2210 1.385 . S
C2209 C2211 1.478 . S
C2210 H2204 0.930 . S
C2210 C2206 1.400 . S
C2210 C2209 1.385 . S
C2211 C2209 1.478 . S
C2211 C2213 1.381 1_565 S
C2211 C2217 1.383 . S
C2212 C2208 1.495 . S
C2212 H2218 0.959 . S
C2212 H2219 0.961 . S
C2212 H2220 0.960 . S
C2213 C2211 1.381 1_545 S
C2213 C2214 1.394 . S
C2213 H2221 0.930 . S
C2214 C2213 1.394 . S
C2214 C2215 1.383 . S
C2214 H2222 0.929 . S
C2215 C2214 1.383 . S
C2215 C2216 1.377 1_545 S
C2216 H2200 0.930 . S
C2216 C2215 1.377 1_565 S
C2216 C2217 1.379 . S
C2217 H2201 0.931 . S
C2217 C2211 1.383 . S
C2217 C2216 1.379 . S
H2218 C2212 0.959 . S
H2219 C2212 0.961 . S
H2220 C2212 0.960 . S
H2221 C2213 0.930 . S
H2222 C2214 0.929 . S
H2223 C2231 0.929 . S
H2224 C2233 0.930 . S
H2225 C2235 0.930 . S
H2226 C2238 0.929 . S
H2227 C2241 0.930 . S
H2228 C2243 0.960 . S
H2229 C2243 0.960 . S
H2230 C2243 0.960 . S
C2231 H2223 0.929 . S
C2231 C2232 1.377 . S
C2231 C2233 1.384 . S
C2232 C2231 1.377 . S
C2232 C2238 1.390 . S
C2233 H2224 0.930 . S
C2233 C2231 1.384 . S
C2233 C2234 1.372 . S
C2234 C2233 1.372 . S
C2234 C2235 1.400 . S
C2234 C2239 1.490 . S
C2235 H2225 0.930 . S
C2235 C2234 1.400 . S
C2235 C2238 1.386 . S
H2236 C2252 0.930 1_655 S
H2237 C2253 0.931 . S
C2238 H2226 0.929 . S
C2238 C2232 1.390 . S
C2238 C2235 1.386 . S
C2239 C2234 1.490 . S
C2239 C2241 1.395 . S
C2239 C2242 1.403 . S
H2240 C2246 0.930 1_655 S
C2241 H2227 0.930 . S
C2241 C2239 1.395 . S
C2241 C2244 1.403 . S
C2242 C2239 1.403 . S
C2242 C2243 1.524 1_455 S
C2242 C2246 1.400 . S
C2243 H2228 0.960 . S
C2243 H2229 0.960 . S
C2243 H2230 0.960 . S
C2243 C2242 1.524 1_655 S
C2244 C2241 1.403 . S
C2244 C2245 1.392 . S
C2244 C2248 1.495 . S
C2245 C2244 1.392 . S
C2245 C2246 1.385 . S
C2245 C2247 1.478 . S
C2246 H2240 0.930 1_455 S
C2246 C2242 1.400 . S
C2246 C2245 1.385 . S
C2247 C2245 1.478 . S
C2247 C2249 1.381 . S
C2247 C2253 1.383 . S
C2248 C2244 1.495 . S
C2248 H2254 0.959 . S
C2248 H2255 0.961 . S
C2248 H2256 0.960 . S
C2249 C2247 1.381 . S
C2249 C2250 1.394 . S
C2249 H2257 0.930 . S
C2250 C2249 1.394 . S
C2250 C2251 1.383 . S
C2250 H2258 0.929 . S
C2251 C2250 1.383 . S
C2251 C2252 1.377 . S
C2252 H2236 0.930 1_455 S
C2252 C2251 1.377 . S
C2252 C2253 1.379 . S
C2253 H2237 0.931 . S
C2253 C2247 1.383 . S
C2253 C2252 1.379 . S
H2254 C2248 0.959 . S
H2255 C2248 0.961 . S
H2256 C2248 0.960 . S
H2257 C2249 0.930 . S
H2258 C2250 0.929 . S
H2259 C2267 0.929 . S
H2260 C2269 0.930 . S
H2261 C2271 0.930 . S
H2262 C2274 0.929 . S
H2263 C2277 0.930 . S
H2264 C2279 0.960 . S
H2265 C2279 0.960 . S
H2266 C2279 0.960 . S
C2267 H2259 0.929 . S
C2267 C2268 1.377 . S
C2267 C2269 1.384 . S
C2268 C2267 1.377 . S
C2268 C2274 1.390 . S
C2269 H2260 0.930 . S
C2269 C2267 1.384 . S
C2269 C2270 1.372 . S
C2270 C2269 1.372 . S
C2270 C2271 1.400 . S
C2270 C2275 1.490 . S
C2271 H2261 0.930 . S
C2271 C2270 1.400 . S
C2271 C2274 1.386 . S
H2272 C2288 0.930 . S
H2273 C2289 0.931 . S
C2274 H2262 0.929 . S
C2274 C2268 1.390 . S
C2274 C2271 1.386 . S
C2275 C2270 1.490 . S
C2275 C2277 1.395 . S
C2275 C2278 1.403 . S
H2276 C2282 0.930 . S
C2277 H2263 0.930 . S
C2277 C2275 1.395 . S
C2277 C2280 1.403 . S
C2278 C2275 1.403 . S
C2278 C2279 1.524 . S
C2278 C2282 1.400 . S
C2279 H2264 0.960 . S
C2279 H2265 0.960 . S
C2279 H2266 0.960 . S
C2279 C2278 1.524 . S
C2280 C2277 1.403 . S
C2280 C2281 1.392 . S
C2280 C2284 1.495 . S
C2281 C2280 1.392 . S
C2281 C2282 1.385 . S
C2281 C2283 1.478 . S
C2282 H2276 0.930 . S
C2282 C2278 1.400 . S
C2282 C2281 1.385 . S
C2283 C2281 1.478 . S
C2283 C2285 1.381 . S
C2283 C2289 1.383 . S
C2284 C2280 1.495 . S
C2284 H2290 0.959 . S
C2284 H2291 0.961 . S
C2284 H2292 0.960 . S
C2285 C2283 1.381 . S
C2285 C2286 1.394 . S
C2285 H2293 0.930 . S
C2286 C2285 1.394 . S
C2286 C2287 1.383 . S
C2286 H2294 0.929 . S
C2287 C2286 1.383 . S
C2287 C2288 1.377 . S
C2288 H2272 0.930 . S
C2288 C2287 1.377 . S
C2288 C2289 1.379 . S
C2289 H2273 0.931 . S
C2289 C2283 1.383 . S
C2289 C2288 1.379 . S
H2290 C2284 0.959 . S
H2291 C2284 0.961 . S
H2292 C2284 0.960 . S
H2293 C2285 0.930 . S
H2294 C2286 0.929 . S
H2295 C2303 0.929 . S
H2296 C2305 0.930 . S
H2297 C2307 0.930 . S
H2298 C2310 0.929 . S
H2299 C2313 0.930 . S
H2300 C2315 0.960 . S
H2301 C2315 0.960 . S
H2302 C2315 0.960 . S
C2303 H2295 0.929 . S
C2303 C2304 1.377 . S
C2303 C2305 1.384 . S
C2304 C2303 1.377 . S
C2304 C2310 1.390 . S
C2305 H2296 0.930 . S
C2305 C2303 1.384 . S
C2305 C2306 1.372 . S
C2306 C2305 1.372 . S
C2306 C2307 1.400 . S
C2306 C2311 1.490 . S
C2307 H2297 0.930 . S
C2307 C2306 1.400 . S
C2307 C2310 1.386 . S
H2308 C2324 0.930 . S
H2309 C2325 0.931 . S
C2310 H2298 0.929 . S
C2310 C2304 1.390 . S
C2310 C2307 1.386 . S
C2311 C2306 1.490 . S
C2311 C2313 1.395 . S
C2311 C2314 1.403 . S
H2312 C2318 0.930 . S
C2313 H2299 0.930 . S
C2313 C2311 1.395 . S
C2313 C2316 1.403 . S
C2314 C2311 1.403 . S
C2314 C2315 1.524 . S
C2314 C2318 1.400 . S
C2315 H2300 0.960 . S
C2315 H2301 0.960 . S
C2315 H2302 0.960 . S
C2315 C2314 1.524 . S
C2316 C2313 1.403 . S
C2316 C2317 1.392 . S
C2316 C2320 1.495 . S
C2317 C2316 1.392 . S
C2317 C2318 1.385 . S
C2317 C2319 1.478 . S
C2318 H2312 0.930 . S
C2318 C2314 1.400 . S
C2318 C2317 1.385 . S
C2319 C2317 1.478 . S
C2319 C2321 1.381 . S
C2319 C2325 1.383 1_655 S
C2320 C2316 1.495 . S
C2320 H2326 0.959 . S
C2320 H2327 0.928 1_655 S
C2320 H2328 0.960 . S
C2321 C2319 1.381 . S
C2321 C2322 1.394 . S
C2321 H2329 0.930 . S
C2322 C2321 1.394 . S
C2322 C2323 1.383 . S
C2322 H2330 0.929 . S
C2323 C2322 1.383 . S
C2323 C2324 1.377 1_655 S
C2324 H2308 0.930 . S
C2324 C2323 1.377 1_455 S
C2324 C2325 1.379 . S
C2325 H2309 0.931 . S
C2325 C2319 1.383 1_455 S
C2325 C2324 1.379 . S
H2326 C2320 0.959 . S
H2327 C2320 0.928 1_455 S
H2328 C2320 0.960 . S
H2329 C2321 0.930 . S
H2330 C2322 0.929 . S
H2331 C2339 0.929 . S
H2332 C2341 0.930 . S
H2333 C2343 0.930 . S
H2334 C2346 0.929 . S
H2335 C2349 0.930 . S
H2336 C2351 0.960 . S
H2337 C2351 0.960 . S
H2338 C2351 0.960 . S
C2339 H2331 0.929 . S
C2339 C2340 1.377 . S
C2339 C2341 1.384 . S
C2340 C2339 1.377 . S
C2340 C2346 1.390 . S
C2341 H2332 0.930 . S
C2341 C2339 1.384 . S
C2341 C2342 1.372 . S
C2342 C2341 1.372 . S
C2342 C2343 1.400 . S
C2342 C2347 1.490 . S
C2343 H2333 0.930 . S
C2343 C2342 1.400 . S
C2343 C2346 1.386 . S
H2344 C2360 0.930 . S
H2345 C2361 0.931 . S
C2346 H2334 0.929 . S
C2346 C2340 1.390 . S
C2346 C2343 1.386 . S
C2347 C2342 1.490 . S
C2347 C2349 1.395 . S
C2347 C2350 1.403 . S
H2348 C2354 0.930 . S
C2349 H2335 0.930 . S
C2349 C2347 1.395 . S
C2349 C2352 1.403 . S
C2350 C2347 1.403 . S
C2350 C2351 1.524 . S
C2350 C2354 1.400 . S
C2351 H2336 0.960 . S
C2351 H2337 0.960 . S
C2351 H2338 0.960 . S
C2351 C2350 1.524 . S
C2352 C2349 1.403 . S
C2352 C2353 1.392 . S
C2352 C2356 1.495 . S
C2353 C2352 1.392 . S
C2353 C2354 1.385 . S
C2353 C2355 1.478 . S
C2354 H2348 0.930 . S
C2354 C2350 1.400 . S
C2354 C2353 1.385 . S
C2355 C2353 1.478 . S
C2355 C2357 1.381 . S
C2355 C2361 1.383 . S
C2356 C2352 1.495 . S
C2356 H2362 0.959 . S
C2356 H2363 0.961 . S
C2356 H2364 0.960 . S
C2357 C2355 1.381 . S
C2357 C2358 1.394 . S
C2357 H2365 0.930 . S
C2358 C2357 1.394 . S
C2358 C2359 1.383 . S
C2358 H2366 0.929 . S
C2359 C2358 1.383 . S
C2359 C2360 1.377 . S
C2360 H2344 0.930 . S
C2360 C2359 1.377 . S
C2360 C2361 1.379 . S
C2361 H2345 0.931 . S
C2361 C2355 1.383 . S
C2361 C2360 1.379 . S
H2362 C2356 0.959 . S
H2363 C2356 0.961 . S
H2364 C2356 0.960 . S
H2365 C2357 0.930 . S
H2366 C2358 0.929 . S
H2367 C2375 0.929 . S
H2368 C2377 0.930 . S
H2369 C2379 0.930 . S
H2370 C2382 0.929 . S
H2371 C2385 0.930 . S
H2372 C2387 0.960 1_565 S
H2373 C2387 0.960 1_565 S
H2374 C2387 0.960 . S
C2375 H2367 0.929 . S
C2375 C2376 1.377 . S
C2375 C2377 1.384 . S
C2376 C2375 1.377 . S
C2376 C2382 1.390 . S
C2377 H2368 0.930 . S
C2377 C2375 1.384 . S
C2377 C2378 1.372 . S
C2378 C2377 1.372 . S
C2378 C2379 1.400 . S
C2378 C2383 1.490 . S
C2379 H2369 0.930 . S
C2379 C2378 1.400 . S
C2379 C2382 1.386 . S
H2380 C2396 0.930 . S
H2381 C2397 0.931 . S
C2382 H2370 0.929 . S
C2382 C2376 1.390 . S
C2382 C2379 1.386 . S
C2383 C2378 1.490 . S
C2383 C2385 1.395 . S
C2383 C2386 1.403 . S
H2384 C2390 0.930 . S
C2385 H2371 0.930 . S
C2385 C2383 1.395 . S
C2385 C2388 1.403 . S
C2386 C2383 1.403 . S
C2386 C2387 1.524 . S
C2386 C2390 1.400 . S
C2387 H2372 0.960 1_545 S
C2387 H2373 0.960 1_545 S
C2387 H2374 0.960 . S
C2387 C2386 1.524 . S
C2388 C2385 1.403 . S
C2388 C2389 1.392 . S
C2388 C2392 1.495 . S
C2389 C2388 1.392 . S
C2389 C2390 1.385 . S
C2389 C2391 1.478 . S
C2390 H2384 0.930 . S
C2390 C2386 1.400 . S
C2390 C2389 1.385 . S
C2391 C2389 1.478 . S
C2391 C2393 1.381 . S
C2391 C2397 1.383 . S
C2392 C2388 1.495 . S
C2392 H2398 0.959 . S
C2392 H2399 0.961 . S
C2392 H2400 0.960 . S
C2393 C2391 1.381 . S
C2393 C2394 1.394 . S
C2393 H2401 0.930 . S
C2394 C2393 1.394 . S
C2394 C2395 1.383 . S
C2394 H2402 0.929 1_545 S
C2395 C2394 1.383 . S
C2395 C2396 1.377 . S
C2396 H2380 0.930 . S
C2396 C2395 1.377 . S
C2396 C2397 1.379 . S
C2397 H2381 0.931 . S
C2397 C2391 1.383 . S
C2397 C2396 1.379 . S
H2398 C2392 0.959 . S
H2399 C2392 0.961 . S
H2400 C2392 0.960 . S
H2401 C2393 0.930 . S
H2402 C2394 0.929 1_565 S
H2403 C2411 0.929 . S
H2404 C2413 0.930 . S
H2405 C2415 0.930 . S
H2406 C2418 0.929 . S
H2407 C2421 0.930 . S
H2408 C2423 0.960 . S
H2409 C2423 0.960 . S
H2410 C2423 0.960 . S
C2411 H2403 0.929 . S
C2411 C2412 1.377 . S
C2411 C2413 1.384 . S
C2412 C2411 1.377 . S
C2412 C2418 1.390 . S
C2413 H2404 0.930 . S
C2413 C2411 1.384 . S
C2413 C2414 1.372 . S
C2414 C2413 1.372 . S
C2414 C2415 1.400 . S
C2414 C2419 1.490 . S
C2415 H2405 0.930 . S
C2415 C2414 1.400 . S
C2415 C2418 1.386 . S
H2416 C2432 0.930 . S
H2417 C2433 0.931 . S
C2418 H2406 0.929 . S
C2418 C2412 1.390 . S
C2418 C2415 1.386 . S
C2419 C2414 1.490 . S
C2419 C2421 1.395 . S
C2419 C2422 1.403 . S
H2420 C2426 0.930 . S
C2421 H2407 0.930 . S
C2421 C2419 1.395 . S
C2421 C2424 1.403 . S
C2422 C2419 1.403 . S
C2422 C2423 1.524 . S
C2422 C2426 1.400 . S
C2423 H2408 0.960 . S
C2423 H2409 0.960 . S
C2423 H2410 0.960 . S
C2423 C2422 1.524 . S
C2424 C2421 1.403 . S
C2424 C2425 1.392 . S
C2424 C2428 1.495 . S
C2425 C2424 1.392 . S
C2425 C2426 1.385 . S
C2425 C2427 1.478 . S
C2426 H2420 0.930 . S
C2426 C2422 1.400 . S
C2426 C2425 1.385 . S
C2427 C2425 1.478 . S
C2427 C2429 1.381 . S
C2427 C2433 1.383 . S
C2428 C2424 1.495 . S
C2428 H2434 0.959 . S
C2428 H2435 0.961 . S
C2428 H2436 0.960 . S
C2429 C2427 1.381 . S
C2429 C2430 1.394 . S
C2429 H2437 0.930 . S
C2430 C2429 1.394 . S
C2430 C2431 1.383 . S
C2430 H2438 0.929 . S
C2431 C2430 1.383 . S
C2431 C2432 1.377 . S
C2432 H2416 0.930 . S
C2432 C2431 1.377 . S
C2432 C2433 1.379 . S
C2433 H2417 0.931 . S
C2433 C2427 1.383 . S
C2433 C2432 1.379 . S
H2434 C2428 0.959 . S
H2435 C2428 0.961 . S
H2436 C2428 0.960 . S
H2437 C2429 0.930 . S
H2438 C2430 0.929 . S
H2439 C2447 0.929 . S
H2440 C2449 0.930 . S
H2441 C2451 0.930 . S
H2442 C2454 0.929 . S
H2443 C2457 0.930 . S
H2444 C2459 0.960 . S
H2445 C2459 0.960 . S
H2446 C2459 0.960 . S
C2447 H2439 0.929 . S
C2447 C2448 1.377 . S
C2447 C2449 1.384 . S
C2448 C2447 1.377 . S
C2448 C2454 1.390 . S
C2449 H2440 0.930 . S
C2449 C2447 1.384 . S
C2449 C2450 1.372 . S
C2450 C2449 1.372 . S
C2450 C2451 1.400 . S
C2450 C2455 1.490 . S
C2451 H2441 0.930 . S
C2451 C2450 1.400 . S
C2451 C2454 1.386 . S
H2452 C2468 0.930 . S
H2453 C2469 0.931 . S
C2454 H2442 0.929 . S
C2454 C2448 1.390 . S
C2454 C2451 1.386 . S
C2455 C2450 1.490 . S
C2455 C2457 1.395 . S
C2455 C2458 1.403 . S
H2456 C2462 0.930 . S
C2457 H2443 0.930 . S
C2457 C2455 1.395 . S
C2457 C2460 1.403 . S
C2458 C2455 1.403 . S
C2458 C2459 1.524 . S
C2458 C2462 1.400 . S
C2459 H2444 0.960 . S
C2459 H2445 0.960 . S
C2459 H2446 0.960 . S
C2459 C2458 1.524 . S
C2460 C2457 1.403 . S
C2460 C2461 1.392 . S
C2460 C2464 1.495 . S
C2461 C2460 1.392 . S
C2461 C2462 1.385 . S
C2461 C2463 1.478 . S
C2462 H2456 0.930 . S
C2462 C2458 1.400 . S
C2462 C2461 1.385 . S
C2463 C2461 1.478 . S
C2463 C2465 1.381 . S
C2463 C2469 1.383 . S
C2464 C2460 1.495 . S
C2464 H2470 0.959 . S
C2464 H2471 0.961 . S
C2464 H2472 0.960 . S
C2465 C2463 1.381 . S
C2465 C2466 1.394 . S
C2465 H2473 0.930 . S
C2466 C2465 1.394 . S
C2466 C2467 1.383 . S
C2466 H2474 0.929 . S
C2467 C2466 1.383 . S
C2467 C2468 1.377 . S
C2468 H2452 0.930 . S
C2468 C2467 1.377 . S
C2468 C2469 1.379 . S
C2469 H2453 0.931 . S
C2469 C2463 1.383 . S
C2469 C2468 1.379 . S
H2470 C2464 0.959 . S
H2471 C2464 0.961 . S
H2472 C2464 0.960 . S
H2473 C2465 0.930 . S
H2474 C2466 0.929 . S
H2475 C2483 0.929 . S
H2476 C2485 0.930 . S
H2477 C2487 0.930 . S
H2478 C2490 0.929 . S
H2479 C2493 0.930 . S
H2480 C2495 0.960 . S
H2481 C2495 0.960 . S
H2482 C2495 0.960 . S
C2483 H2475 0.929 . S
C2483 C2484 1.377 . S
C2483 C2485 1.384 . S
C2484 C2483 1.377 . S
C2484 C2490 1.390 . S
C2485 H2476 0.930 . S
C2485 C2483 1.384 . S
C2485 C2486 1.372 . S
C2486 C2485 1.372 . S
C2486 C2487 1.400 . S
C2486 C2491 1.490 . S
C2487 H2477 0.930 . S
C2487 C2486 1.400 . S
C2487 C2490 1.386 . S
H2488 C2504 0.930 . S
H2489 C2505 0.931 . S
C2490 H2478 0.929 . S
C2490 C2484 1.390 . S
C2490 C2487 1.386 . S
C2491 C2486 1.490 . S
C2491 C2493 1.395 . S
C2491 C2494 1.403 . S
H2492 C2498 0.930 . S
C2493 H2479 0.930 . S
C2493 C2491 1.395 . S
C2493 C2496 1.403 . S
C2494 C2491 1.403 . S
C2494 C2495 1.524 . S
C2494 C2498 1.400 . S
C2495 H2480 0.960 . S
C2495 H2481 0.960 . S
C2495 H2482 0.960 . S
C2495 C2494 1.524 . S
C2496 C2493 1.403 . S
C2496 C2497 1.392 . S
C2496 C2500 1.495 . S
C2497 C2496 1.392 . S
C2497 C2498 1.385 . S
C2497 C2499 1.478 . S
C2498 H2492 0.930 . S
C2498 C2494 1.400 . S
C2498 C2497 1.385 . S
C2499 C2497 1.478 . S
C2499 C2501 1.381 . S
C2499 C2505 1.383 . S
C2500 C2496 1.495 . S
C2500 H2506 0.959 . S
C2500 H2507 0.961 . S
C2500 H2508 0.960 . S
C2501 C2499 1.381 . S
C2501 C2502 1.394 . S
C2501 H2509 0.930 . S
C2502 C2501 1.394 . S
C2502 C2503 1.383 . S
C2502 H2510 0.929 . S
C2503 C2502 1.383 . S
C2503 C2504 1.377 . S
C2504 H2488 0.930 . S
C2504 C2503 1.377 . S
C2504 C2505 1.379 . S
C2505 H2489 0.931 . S
C2505 C2499 1.383 . S
C2505 C2504 1.379 . S
H2506 C2500 0.959 . S
H2507 C2500 0.961 . S
H2508 C2500 0.960 . S
H2509 C2501 0.930 . S
H2510 C2502 0.929 . S
H2511 C2519 0.929 . S
H2512 C2521 0.930 . S
H2513 C2523 0.930 . S
H2514 C2526 0.929 . S
H2515 C2529 0.930 . S
H2516 C2531 0.960 . S
H2517 C2531 0.960 . S
H2518 C2531 0.960 . S
C2519 H2511 0.929 . S
C2519 C2520 1.377 . S
C2519 C2521 1.384 . S
C2520 C2519 1.377 . S
C2520 C2526 1.390 . S
C2521 H2512 0.930 . S
C2521 C2519 1.384 . S
C2521 C2522 1.372 . S
C2522 C2521 1.372 . S
C2522 C2523 1.400 . S
C2522 C2527 1.490 . S
C2523 H2513 0.930 . S
C2523 C2522 1.400 . S
C2523 C2526 1.386 . S
H2524 C2540 0.930 . S
H2525 C2541 0.931 . S
C2526 H2514 0.929 . S
C2526 C2520 1.390 . S
C2526 C2523 1.386 . S
C2527 C2522 1.490 . S
C2527 C2529 1.395 . S
C2527 C2530 1.403 . S
H2528 C2534 0.930 . S
C2529 H2515 0.930 . S
C2529 C2527 1.395 . S
C2529 C2532 1.403 . S
C2530 C2527 1.403 . S
C2530 C2531 1.524 . S
C2530 C2534 1.400 . S
C2531 H2516 0.960 . S
C2531 H2517 0.960 . S
C2531 H2518 0.960 . S
C2531 C2530 1.524 . S
C2532 C2529 1.403 . S
C2532 C2533 1.392 . S
C2532 C2536 1.495 . S
C2533 C2532 1.392 . S
C2533 C2534 1.385 . S
C2533 C2535 1.478 . S
C2534 H2528 0.930 . S
C2534 C2530 1.400 . S
C2534 C2533 1.385 . S
C2535 C2533 1.478 . S
C2535 C2537 1.381 . S
C2535 C2541 1.383 . S
C2536 C2532 1.495 . S
C2536 H2542 0.959 . S
C2536 H2543 0.961 . S
C2536 H2544 0.960 . S
C2537 C2535 1.381 . S
C2537 C2538 1.394 . S
C2537 H2545 0.930 . S
C2538 C2537 1.394 . S
C2538 C2539 1.383 . S
C2538 H2546 0.929 . S
C2539 C2538 1.383 . S
C2539 C2540 1.377 . S
C2540 H2524 0.930 . S
C2540 C2539 1.377 . S
C2540 C2541 1.379 . S
C2541 H2525 0.931 . S
C2541 C2535 1.383 . S
C2541 C2540 1.379 . S
H2542 C2536 0.959 . S
H2543 C2536 0.961 . S
H2544 C2536 0.960 . S
H2545 C2537 0.930 . S
H2546 C2538 0.929 . S
H2547 C2555 0.929 . S
H2548 C2557 0.930 . S
H2549 C2559 0.930 . S
H2550 C2562 0.929 . S
H2551 C2565 0.930 . S
H2552 C2567 0.960 . S
H2553 C2567 0.960 . S
H2554 C2567 0.960 . S
C2555 H2547 0.929 . S
C2555 C2556 1.377 . S
C2555 C2557 1.384 . S
C2556 C2555 1.377 . S
C2556 C2562 1.390 . S
C2557 H2548 0.930 . S
C2557 C2555 1.384 . S
C2557 C2558 1.372 . S
C2558 C2557 1.372 . S
C2558 C2559 1.400 . S
C2558 C2563 1.490 . S
C2559 H2549 0.930 . S
C2559 C2558 1.400 . S
C2559 C2562 1.386 . S
H2560 C2576 0.930 . S
H2561 C2577 0.931 . S
C2562 H2550 0.929 . S
C2562 C2556 1.390 . S
C2562 C2559 1.386 . S
C2563 C2558 1.490 . S
C2563 C2565 1.395 . S
C2563 C2566 1.403 . S
H2564 C2570 0.930 . S
C2565 H2551 0.930 . S
C2565 C2563 1.395 . S
C2565 C2568 1.403 . S
C2566 C2563 1.403 . S
C2566 C2567 1.524 . S
C2566 C2570 1.400 . S
C2567 H2552 0.960 . S
C2567 H2553 0.960 . S
C2567 H2554 0.960 . S
C2567 C2566 1.524 . S
C2568 C2565 1.403 . S
C2568 C2569 1.392 . S
C2568 C2572 1.495 . S
C2569 C2568 1.392 . S
C2569 C2570 1.385 . S
C2569 C2571 1.478 . S
C2570 H2564 0.930 . S
C2570 C2566 1.400 . S
C2570 C2569 1.385 . S
C2571 C2569 1.478 . S
C2571 C2573 1.381 . S
C2571 C2577 1.383 . S
C2572 C2568 1.495 . S
C2572 H2578 0.959 . S
C2572 H2579 0.961 . S
C2572 H2580 0.960 . S
C2573 C2571 1.381 . S
C2573 C2574 1.394 . S
C2573 H2581 0.930 . S
C2574 C2573 1.394 . S
C2574 C2575 1.383 . S
C2574 H2582 0.929 . S
C2575 C2574 1.383 . S
C2575 C2576 1.377 . S
C2576 H2560 0.930 . S
C2576 C2575 1.377 . S
C2576 C2577 1.379 . S
C2577 H2561 0.931 . S
C2577 C2571 1.383 . S
C2577 C2576 1.379 . S
H2578 C2572 0.959 . S
H2579 C2572 0.961 . S
H2580 C2572 0.960 . S
H2581 C2573 0.930 . S
H2582 C2574 0.929 . S
H2583 C2591 0.929 . S
H2584 C2593 0.930 . S
H2585 C2595 0.930 . S
H2586 C2598 0.929 . S
H2587 C2601 0.930 . S
H2588 C2603 0.960 . S
H2589 C2603 0.960 . S
H2590 C2603 0.960 . S
C2591 H2583 0.929 . S
C2591 C2592 1.377 . S
C2591 C2593 1.384 . S
C2592 C2591 1.377 . S
C2592 C2598 1.390 . S
C2593 H2584 0.930 . S
C2593 C2591 1.384 . S
C2593 C2594 1.372 . S
C2594 C2593 1.372 . S
C2594 C2595 1.400 . S
C2594 C2599 1.490 . S
C2595 H2585 0.930 . S
C2595 C2594 1.400 . S
C2595 C2598 1.386 . S
H2596 C2612 0.930 . S
H2597 C2613 0.931 . S
C2598 H2586 0.929 . S
C2598 C2592 1.390 . S
C2598 C2595 1.386 . S
C2599 C2594 1.490 . S
C2599 C2601 1.395 . S
C2599 C2602 1.403 . S
H2600 C2606 0.930 . S
C2601 H2587 0.930 . S
C2601 C2599 1.395 . S
C2601 C2604 1.403 . S
C2602 C2599 1.403 . S
C2602 C2603 1.524 . S
C2602 C2606 1.400 . S
C2603 H2588 0.960 . S
C2603 H2589 0.960 . S
C2603 H2590 0.960 . S
C2603 C2602 1.524 . S
C2604 C2601 1.403 . S
C2604 C2605 1.392 . S
C2604 C2608 1.495 . S
C2605 C2604 1.392 . S
C2605 C2606 1.385 . S
C2605 C2607 1.478 . S
C2606 H2600 0.930 . S
C2606 C2602 1.400 . S
C2606 C2605 1.385 . S
C2607 C2605 1.478 . S
C2607 C2609 1.381 . S
C2607 C2613 1.383 . S
C2608 C2604 1.495 . S
C2608 H2614 0.959 . S
C2608 H2615 0.961 . S
C2608 H2616 0.960 . S
C2609 C2607 1.381 . S
C2609 C2610 1.394 . S
C2609 H2617 0.930 . S
C2610 C2609 1.394 . S
C2610 C2611 1.383 . S
C2610 H2618 0.929 . S
C2611 C2610 1.383 . S
C2611 C2612 1.377 . S
C2612 H2596 0.930 . S
C2612 C2611 1.377 . S
C2612 C2613 1.379 . S
C2613 H2597 0.931 . S
C2613 C2607 1.383 . S
C2613 C2612 1.379 . S
H2614 C2608 0.959 . S
H2615 C2608 0.961 . S
H2616 C2608 0.960 . S
H2617 C2609 0.930 . S
H2618 C2610 0.929 . S
H2619 C2627 0.929 . S
H2620 C2629 0.930 . S
H2621 C2631 0.930 . S
H2622 C2634 0.929 . S
H2623 C2637 0.930 . S
H2624 C2639 0.960 . S
H2625 C2639 0.960 . S
H2626 C2639 0.960 . S
C2627 H2619 0.929 . S
C2627 C2628 1.377 . S
C2627 C2629 1.384 . S
C2628 C2627 1.377 . S
C2628 C2634 1.390 . S
C2629 H2620 0.930 . S
C2629 C2627 1.384 . S
C2629 C2630 1.372 . S
C2630 C2629 1.372 . S
C2630 C2631 1.400 . S
C2630 C2635 1.490 . S
C2631 H2621 0.930 . S
C2631 C2630 1.400 . S
C2631 C2634 1.386 . S
H2632 C2648 0.930 . S
H2633 C2649 0.931 . S
C2634 H2622 0.929 . S
C2634 C2628 1.390 . S
C2634 C2631 1.386 . S
C2635 C2630 1.490 . S
C2635 C2637 1.395 . S
C2635 C2638 1.403 . S
H2636 C2642 0.930 . S
C2637 H2623 0.930 . S
C2637 C2635 1.395 . S
C2637 C2640 1.403 . S
C2638 C2635 1.403 . S
C2638 C2639 1.524 . S
C2638 C2642 1.400 . S
C2639 H2624 0.960 . S
C2639 H2625 0.960 . S
C2639 H2626 0.960 . S
C2639 C2638 1.524 . S
C2640 C2637 1.403 . S
C2640 C2641 1.392 . S
C2640 C2644 1.495 . S
C2641 C2640 1.392 . S
C2641 C2642 1.385 . S
C2641 C2643 1.478 . S
C2642 H2636 0.930 . S
C2642 C2638 1.400 . S
C2642 C2641 1.385 . S
C2643 C2641 1.478 . S
C2643 C2645 1.381 . S
C2643 C2649 1.383 . S
C2644 C2640 1.495 . S
C2644 H2650 0.959 . S
C2644 H2651 0.961 . S
C2644 H2652 0.960 . S
C2645 C2643 1.381 . S
C2645 C2646 1.394 . S
C2645 H2653 0.930 . S
C2646 C2645 1.394 . S
C2646 C2647 1.383 . S
C2646 H2654 0.929 . S
C2647 C2646 1.383 . S
C2647 C2648 1.377 . S
C2648 H2632 0.930 . S
C2648 C2647 1.377 . S
C2648 C2649 1.379 . S
C2649 H2633 0.931 . S
C2649 C2643 1.383 . S
C2649 C2648 1.379 . S
H2650 C2644 0.959 . S
H2651 C2644 0.961 . S
H2652 C2644 0.960 . S
H2653 C2645 0.930 . S
H2654 C2646 0.929 . S
H2655 C2663 0.929 . S
H2656 C2665 0.930 . S
H2657 C2667 0.930 . S
H2658 C2670 0.929 . S
H2659 C2673 0.930 . S
H2660 C2675 0.960 . S
H2661 C2675 0.960 . S
H2662 C2675 0.960 . S
C2663 H2655 0.929 . S
C2663 C2664 1.377 . S
C2663 C2665 1.384 . S
C2664 C2663 1.377 . S
C2664 C2670 1.390 . S
C2665 H2656 0.930 . S
C2665 C2663 1.384 . S
C2665 C2666 1.372 . S
C2666 C2665 1.372 . S
C2666 C2667 1.400 . S
C2666 C2671 1.490 . S
C2667 H2657 0.930 . S
C2667 C2666 1.400 . S
C2667 C2670 1.386 . S
H2668 C2684 0.930 . S
H2669 C2685 0.931 . S
C2670 H2658 0.929 . S
C2670 C2664 1.390 . S
C2670 C2667 1.386 . S
C2671 C2666 1.490 . S
C2671 C2673 1.395 . S
C2671 C2674 1.403 . S
H2672 C2678 0.930 . S
C2673 H2659 0.930 . S
C2673 C2671 1.395 . S
C2673 C2676 1.403 . S
C2674 C2671 1.403 . S
C2674 C2675 1.524 . S
C2674 C2678 1.400 . S
C2675 H2660 0.960 . S
C2675 H2661 0.960 . S
C2675 H2662 0.960 . S
C2675 C2674 1.524 . S
C2676 C2673 1.403 . S
C2676 C2677 1.392 . S
C2676 C2680 1.495 . S
C2677 C2676 1.392 . S
C2677 C2678 1.385 . S
C2677 C2679 1.478 . S
C2678 H2672 0.930 . S
C2678 C2674 1.400 . S
C2678 C2677 1.385 . S
C2679 C2677 1.478 . S
C2679 C2681 1.381 . S
C2679 C2685 1.383 . S
C2680 C2676 1.495 . S
C2680 H2686 0.959 . S
C2680 H2687 0.961 . S
C2680 H2688 0.960 . S
C2681 C2679 1.381 . S
C2681 C2682 1.394 . S
C2681 H2689 0.930 . S
C2682 C2681 1.394 . S
C2682 C2683 1.383 . S
C2682 H2690 0.929 . S
C2683 C2682 1.383 . S
C2683 C2684 1.377 . S
C2684 H2668 0.930 . S
C2684 C2683 1.377 . S
C2684 C2685 1.379 . S
C2685 H2669 0.931 . S
C2685 C2679 1.383 . S
C2685 C2684 1.379 . S
H2686 C2680 0.959 . S
H2687 C2680 0.961 . S
H2688 C2680 0.960 . S
H2689 C2681 0.930 . S
H2690 C2682 0.929 . S
H2691 C2699 0.929 . S
H2692 C2701 0.930 . S
H2693 C2703 0.930 . S
H2694 C2706 0.929 . S
H2695 C2709 0.930 . S
H2696 C2711 0.960 . S
H2697 C2711 0.960 . S
H2698 C2711 0.960 . S
C2699 H2691 0.929 . S
C2699 C2700 1.377 . S
C2699 C2701 1.384 . S
C2700 C2699 1.377 . S
C2700 C2706 1.390 . S
C2701 H2692 0.930 . S
C2701 C2699 1.384 . S
C2701 C2702 1.372 . S
C2702 C2701 1.372 . S
C2702 C2703 1.400 . S
C2702 C2707 1.490 . S
C2703 H2693 0.930 . S
C2703 C2702 1.400 . S
C2703 C2706 1.386 . S
H2704 C2720 0.930 . S
H2705 C2721 0.931 . S
C2706 H2694 0.929 . S
C2706 C2700 1.390 . S
C2706 C2703 1.386 . S
C2707 C2702 1.490 . S
C2707 C2709 1.395 . S
C2707 C2710 1.403 . S
H2708 C2714 0.930 . S
C2709 H2695 0.930 . S
C2709 C2707 1.395 . S
C2709 C2712 1.403 . S
C2710 C2707 1.403 . S
C2710 C2711 1.524 . S
C2710 C2714 1.400 . S
C2711 H2696 0.960 . S
C2711 H2697 0.960 . S
C2711 H2698 0.960 . S
C2711 C2710 1.524 . S
C2712 C2709 1.403 . S
C2712 C2713 1.392 . S
C2712 C2716 1.495 . S
C2713 C2712 1.392 . S
C2713 C2714 1.385 . S
C2713 C2715 1.478 . S
C2714 H2708 0.930 . S
C2714 C2710 1.400 . S
C2714 C2713 1.385 . S
C2715 C2713 1.478 . S
C2715 C2717 1.381 . S
C2715 C2721 1.383 . S
C2716 C2712 1.495 . S
C2716 H2722 0.959 . S
C2716 H2723 0.961 . S
C2716 H2724 0.960 . S
C2717 C2715 1.381 . S
C2717 C2718 1.394 . S
C2717 H2725 0.930 . S
C2718 C2717 1.394 . S
C2718 C2719 1.383 . S
C2718 H2726 0.929 . S
C2719 C2718 1.383 . S
C2719 C2720 1.377 . S
C2720 H2704 0.930 . S
C2720 C2719 1.377 . S
C2720 C2721 1.379 . S
C2721 H2705 0.931 . S
C2721 C2715 1.383 . S
C2721 C2720 1.379 . S
H2722 C2716 0.959 . S
H2723 C2716 0.961 . S
H2724 C2716 0.960 . S
H2725 C2717 0.930 . S
H2726 C2718 0.929 . S
H2727 C2735 0.929 . S
H2728 C2737 0.930 . S
H2729 C2739 0.930 . S
H2730 C2742 0.929 . S
H2731 C2745 0.930 . S
H2732 C2747 0.960 . S
H2733 C2747 0.960 . S
H2734 C2747 0.960 . S
C2735 H2727 0.929 . S
C2735 C2736 1.377 . S
C2735 C2737 1.384 . S
C2736 C2735 1.377 . S
C2736 C2742 1.390 . S
C2737 H2728 0.930 . S
C2737 C2735 1.384 . S
C2737 C2738 1.372 . S
C2738 C2737 1.372 . S
C2738 C2739 1.400 . S
C2738 C2743 1.490 . S
C2739 H2729 0.930 . S
C2739 C2738 1.400 . S
C2739 C2742 1.386 . S
H2740 C2756 0.930 . S
H2741 C2757 0.931 . S
C2742 H2730 0.929 . S
C2742 C2736 1.390 . S
C2742 C2739 1.386 . S
C2743 C2738 1.490 . S
C2743 C2745 1.395 . S
C2743 C2746 1.403 . S
H2744 C2750 0.930 . S
C2745 H2731 0.930 . S
C2745 C2743 1.395 . S
C2745 C2748 1.403 . S
C2746 C2743 1.403 . S
C2746 C2747 1.524 . S
C2746 C2750 1.400 . S
C2747 H2732 0.960 . S
C2747 H2733 0.960 . S
C2747 H2734 0.960 . S
C2747 C2746 1.524 . S
C2748 C2745 1.403 . S
C2748 C2749 1.392 . S
C2748 C2752 1.495 . S
C2749 C2748 1.392 . S
C2749 C2750 1.385 . S
C2749 C2751 1.478 . S
C2750 H2744 0.930 . S
C2750 C2746 1.400 . S
C2750 C2749 1.385 . S
C2751 C2749 1.478 . S
C2751 C2753 1.381 . S
C2751 C2757 1.383 . S
C2752 C2748 1.495 . S
C2752 H2758 0.959 . S
C2752 H2759 0.961 . S
C2752 H2760 0.960 . S
C2753 C2751 1.381 . S
C2753 C2754 1.394 . S
C2753 H2761 0.930 . S
C2754 C2753 1.394 . S
C2754 C2755 1.383 . S
C2754 H2762 0.929 . S
C2755 C2754 1.383 . S
C2755 C2756 1.377 . S
C2756 H2740 0.930 . S
C2756 C2755 1.377 . S
C2756 C2757 1.379 . S
C2757 H2741 0.931 . S
C2757 C2751 1.383 . S
C2757 C2756 1.379 . S
H2758 C2752 0.959 . S
H2759 C2752 0.961 . S
H2760 C2752 0.960 . S
H2761 C2753 0.930 . S
H2762 C2754 0.929 . S
H2763 C2771 0.929 . S
H2764 C2773 0.930 . S
H2765 C2775 0.930 . S
H2766 C2778 0.929 . S
H2767 C2781 0.930 . S
H2768 C2783 0.960 . S
H2769 C2783 0.960 . S
H2770 C2783 0.960 . S
C2771 H2763 0.929 . S
C2771 C2772 1.377 . S
C2771 C2773 1.384 . S
C2772 C2771 1.377 . S
C2772 C2778 1.390 . S
C2773 H2764 0.930 . S
C2773 C2771 1.384 . S
C2773 C2774 1.372 . S
C2774 C2773 1.372 . S
C2774 C2775 1.400 . S
C2774 C2779 1.490 . S
C2775 H2765 0.930 . S
C2775 C2774 1.400 . S
C2775 C2778 1.386 . S
H2776 C2792 0.930 . S
H2777 C2793 0.931 . S
C2778 H2766 0.929 . S
C2778 C2772 1.390 . S
C2778 C2775 1.386 . S
C2779 C2774 1.490 . S
C2779 C2781 1.395 . S
C2779 C2782 1.403 . S
H2780 C2786 0.930 . S
C2781 H2767 0.930 . S
C2781 C2779 1.395 . S
C2781 C2784 1.403 . S
C2782 C2779 1.403 . S
C2782 C2783 1.524 . S
C2782 C2786 1.400 . S
C2783 H2768 0.960 . S
C2783 H2769 0.960 . S
C2783 H2770 0.960 . S
C2783 C2782 1.524 . S
C2784 C2781 1.403 . S
C2784 C2785 1.392 . S
C2784 C2788 1.495 . S
C2785 C2784 1.392 . S
C2785 C2786 1.385 . S
C2785 C2787 1.478 . S
C2786 H2780 0.930 . S
C2786 C2782 1.400 . S
C2786 C2785 1.385 . S
C2787 C2785 1.478 . S
C2787 C2789 1.381 . S
C2787 C2793 1.383 . S
C2788 C2784 1.495 . S
C2788 H2794 0.959 . S
C2788 H2795 0.961 . S
C2788 H2796 0.960 . S
C2789 C2787 1.381 . S
C2789 C2790 1.394 . S
C2789 H2797 0.930 . S
C2790 C2789 1.394 . S
C2790 C2791 1.383 . S
C2790 H2798 0.929 . S
C2791 C2790 1.383 . S
C2791 C2792 1.377 . S
C2792 H2776 0.930 . S
C2792 C2791 1.377 . S
C2792 C2793 1.379 . S
C2793 H2777 0.931 . S
C2793 C2787 1.383 . S
C2793 C2792 1.379 . S
H2794 C2788 0.959 . S
H2795 C2788 0.961 . S
H2796 C2788 0.960 . S
H2797 C2789 0.930 . S
H2798 C2790 0.929 . S
H2799 C2807 0.929 . S
H2800 C2809 0.930 . S
H2801 C2811 0.930 . S
H2802 C2814 0.929 . S
H2803 C2817 0.930 . S
H2804 C2819 0.960 . S
H2805 C2819 0.960 . S
H2806 C2819 0.960 . S
C2807 H2799 0.929 . S
C2807 C2808 1.377 . S
C2807 C2809 1.384 . S
C2808 C2807 1.377 . S
C2808 C2814 1.390 . S
C2809 H2800 0.930 . S
C2809 C2807 1.384 . S
C2809 C2810 1.372 . S
C2810 C2809 1.372 . S
C2810 C2811 1.400 . S
C2810 C2815 1.490 . S
C2811 H2801 0.930 . S
C2811 C2810 1.400 . S
C2811 C2814 1.386 . S
H2812 C2828 0.930 . S
H2813 C2829 0.931 . S
C2814 H2802 0.929 . S
C2814 C2808 1.390 . S
C2814 C2811 1.386 . S
C2815 C2810 1.490 . S
C2815 C2817 1.395 . S
C2815 C2818 1.403 . S
H2816 C2822 0.930 . S
C2817 H2803 0.930 . S
C2817 C2815 1.395 . S
C2817 C2820 1.403 . S
C2818 C2815 1.403 . S
C2818 C2819 1.524 . S
C2818 C2822 1.400 . S
C2819 H2804 0.960 . S
C2819 H2805 0.960 . S
C2819 H2806 0.960 . S
C2819 C2818 1.524 . S
C2820 C2817 1.403 . S
C2820 C2821 1.392 . S
C2820 C2824 1.495 . S
C2821 C2820 1.392 . S
C2821 C2822 1.385 . S
C2821 C2823 1.478 . S
C2822 H2816 0.930 . S
C2822 C2818 1.400 . S
C2822 C2821 1.385 . S
C2823 C2821 1.478 . S
C2823 C2825 1.381 . S
C2823 C2829 1.383 . S
C2824 C2820 1.495 . S
C2824 H2830 0.959 . S
C2824 H2831 0.961 . S
C2824 H2832 0.960 . S
C2825 C2823 1.381 . S
C2825 C2826 1.394 . S
C2825 H2833 0.930 . S
C2826 C2825 1.394 . S
C2826 C2827 1.383 . S
C2826 H2834 0.929 . S
C2827 C2826 1.383 . S
C2827 C2828 1.377 . S
C2828 H2812 0.930 . S
C2828 C2827 1.377 . S
C2828 C2829 1.379 . S
C2829 H2813 0.931 . S
C2829 C2823 1.383 . S
C2829 C2828 1.379 . S
H2830 C2824 0.959 . S
H2831 C2824 0.961 . S
H2832 C2824 0.960 . S
H2833 C2825 0.930 . S
H2834 C2826 0.929 . S
C900 C528 1.364 . S
C919 C716 1.331 . S
C936 C562 1.396 . S
C955 C737 1.356 . S
C972 C484 1.308 . S
C991 C757 1.126 . S
C1008 C445 1.331 . S
C1027 C736 1.173 1_556 S
C1063 C758 1.387 . S
C1044 C367 1.428 . S
C1080 C411 1.328 . S
C1099 C715 1.185 1_556 S
C1135 C717 1.215 . S
C1116 C450 1.318 . S
C1171 C738 1.213 . S
C1152 C372 1.310 . S
C1188 C406 1.365 . S
C1207 C760 1.099 1_556 S
C1224 C523 1.304 . S
C1243 C739 1.088 . S
C1260 C567 1.273 . S
C1279 C759 1.188 . S
C1315 C718 1.157 . S
C1296 C489 1.335 . S
C1351 C779 1.333 . S
C1332 C60 1.364 . S
C1368 C94 1.397 . S
C1387 C800 1.327 . S
C1404 C16 1.300 . S
C1423 C820 1.076 . S
C1440 C679 1.337 . S
C1459 C799 1.170 . S
C1476 C601 1.434 . S
C1495 C821 1.364 . S
C1512 C645 1.326 . S
C1531 C778 1.175 . S
C1548 C684 1.319 . S
C1567 C780 1.214 . S
C1584 C606 1.315 . S
C1603 C801 1.269 . S
C1639 C823 1.208 . S
C1620 C640 1.370 . S
C1656 C55 1.312 . S
C1675 C802 1.144 . S
C1711 C822 1.250 . S
C1692 C99 1.278 . S
C1728 C21 1.334 . S
C1747 C781 1.198 . S
C1783 C842 1.260 . S
C1764 C294 1.369 . S
C1800 C328 1.403 . S
C1819 C863 1.305 . S
C1855 C883 1.066 . S
C1836 C250 1.305 . S
C1891 C862 1.072 . S
C1872 C211 1.332 . S
C1927 C884 1.317 . S
C1908 C133 1.434 . S
C1944 C177 1.330 . S
C1963 C841 1.081 . S
C1980 C216 1.319 . S
C1999 C843 1.226 . S
C2016 C138 1.314 . S
C2035 C864 1.241 . S
C2071 C886 1.212 . S
C2052 C172 1.368 . S
C2088 C289 1.306 . S
C2107 C865 1.056 . S
C2124 C333 1.276 . S
C2143 C885 1.225 . S
C2160 C255 1.329 . S
C2179 C844 1.161 . S
C2196 C586 1.391 . S
C2215 C720 1.369 . S
C2251 C741 1.363 . S
C2232 C625 1.409 . S
C2268 C664 1.484 . S
C2287 C761 1.477 . S
C2304 C235 1.534 . S
C2323 C740 1.523 1_655 S
C2340 C274 1.424 . S
C2359 C762 1.405 . S
C2395 C719 1.464 . S
C2376 C313 1.506 . S
C2412 C118 1.388 . S
C2431 C783 1.326 . S
C2448 C157 1.407 . S
C2467 C804 1.375 . S
C2484 C196 1.488 . S
C2503 C824 1.436 . S
C2520 C469 1.537 . S
C2539 C803 1.488 . S
C2575 C825 1.400 . S
C2556 C508 1.425 . S
C2592 C547 1.501 . S
C2611 C782 1.492 . S
C2628 C352 1.393 . S
C2647 C846 1.380 . S
C2664 C391 1.410 . S
C2683 C867 1.390 . S
C2719 C887 1.447 . S
C2700 C430 1.489 . S
C2736 C1 1.536 . S
C2755 C866 1.501 . S
C2772 C40 1.423 . S
C2791 C888 1.400 . S
C2808 C79 1.503 . S
C2827 C845 1.465 . S
