# Generated by pormake.
# Topology nom, (4,4)-cn, num edge types: 1
# Building blocks:
#     Node 0, Type 0, BuildingBlock: NAWXER_clean_linker_0, # of connection points: 4
#     Node 1, Type 0, BuildingBlock: NAWXER_clean_linker_0, # of connection points: 4
#     Node 2, Type 0, BuildingBlock: NAWXER_clean_linker_0, # of connection points: 4
#     Node 3, Type 0, BuildingBlock: NAWXER_clean_linker_0, # of connection points: 4
#     Node 4, Type 0, BuildingBlock: NAWXER_clean_linker_0, # of connection points: 4
#     Node 5, Type 0, BuildingBlock: NAWXER_clean_linker_0, # of connection points: 4
#     Node 6, Type 1, BuildingBlock: AZAVOO_clean_sbu_0, # of connection points: 4
#     Node 7, Type 1, BuildingBlock: AZAVOO_clean_sbu_0, # of connection points: 4
#     Node 8, Type 1, BuildingBlock: AZAVOO_clean_sbu_0, # of connection points: 4
#     Node 9, Type 1, BuildingBlock: AZAVOO_clean_sbu_0, # of connection points: 4
#     Node 10, Type 1, BuildingBlock: AZAVOO_clean_sbu_0, # of connection points: 4
#     Node 11, Type 1, BuildingBlock: AZAVOO_clean_sbu_0, # of connection points: 4
#     Edge 12, Type (0, 1), BuildingBlock: AJUNOK_clean_linker_0, # of connection points: 2
#     Edge 13, Type (0, 1), BuildingBlock: AJUNOK_clean_linker_0, # of connection points: 2
#     Edge 14, Type (0, 1), BuildingBlock: AJUNOK_clean_linker_0, # of connection points: 2
#     Edge 15, Type (0, 1), BuildingBlock: AJUNOK_clean_linker_0, # of connection points: 2
#     Edge 16, Type (0, 1), BuildingBlock: AJUNOK_clean_linker_0, # of connection points: 2
#     Edge 17, Type (0, 1), BuildingBlock: AJUNOK_clean_linker_0, # of connection points: 2
#     Edge 18, Type (0, 1), BuildingBlock: AJUNOK_clean_linker_0, # of connection points: 2
#     Edge 19, Type (0, 1), BuildingBlock: AJUNOK_clean_linker_0, # of connection points: 2
#     Edge 20, Type (0, 1), BuildingBlock: AJUNOK_clean_linker_0, # of connection points: 2
#     Edge 21, Type (0, 1), BuildingBlock: AJUNOK_clean_linker_0, # of connection points: 2
#     Edge 22, Type (0, 1), BuildingBlock: AJUNOK_clean_linker_0, # of connection points: 2
#     Edge 23, Type (0, 1), BuildingBlock: AJUNOK_clean_linker_0, # of connection points: 2
#     Edge 24, Type (0, 1), BuildingBlock: AJUNOK_clean_linker_0, # of connection points: 2
#     Edge 25, Type (0, 1), BuildingBlock: AJUNOK_clean_linker_0, # of connection points: 2
#     Edge 26, Type (0, 1), BuildingBlock: AJUNOK_clean_linker_0, # of connection points: 2
#     Edge 27, Type (0, 1), BuildingBlock: AJUNOK_clean_linker_0, # of connection points: 2
#     Edge 28, Type (0, 1), BuildingBlock: AJUNOK_clean_linker_0, # of connection points: 2
#     Edge 29, Type (0, 1), BuildingBlock: AJUNOK_clean_linker_0, # of connection points: 2
#     Edge 30, Type (0, 1), BuildingBlock: AJUNOK_clean_linker_0, # of connection points: 2
#     Edge 31, Type (0, 1), BuildingBlock: AJUNOK_clean_linker_0, # of connection points: 2
#     Edge 32, Type (0, 1), BuildingBlock: AJUNOK_clean_linker_0, # of connection points: 2
#     Edge 33, Type (0, 1), BuildingBlock: AJUNOK_clean_linker_0, # of connection points: 2
#     Edge 34, Type (0, 1), BuildingBlock: AJUNOK_clean_linker_0, # of connection points: 2
#     Edge 35, Type (0, 1), BuildingBlock: AJUNOK_clean_linker_0, # of connection points: 2
# Relax obj value: 0.044
# Max RMSD: 0.158
# Mean RMSD: 0.131
data_MOF--net-nom--node1-AZAVOO_clean_sbu_0--node2-NAWXER_clean_linker_0--edge1-AJUNOK_clean_linker_0
_symmetry_space_group_name_H-M    P1
_symmetry_Int_Tables_number       1
_symmetry_cell_setting            triclinic
loop_
_symmetry_equiv_pos_as_xyz
'x, y, z'
_cell_length_a     41.152708
_cell_length_b     41.510633
_cell_length_c     43.4841
_cell_angle_alpha  91.347598
_cell_angle_beta   91.439905
_cell_angle_gamma 120.00982
loop_
_atom_site_label
_atom_site_type_symbol
_atom_site_fract_x
_atom_site_fract_y
_atom_site_fract_z
_atom_type_partial_charge
C0 C 0.88121 0.50091 0.34801 0.0
C1 C 0.85567 0.46659 0.36008 0.0
C2 C 0.91788 0.50961 0.3429 0.0
C3 C 0.92999 0.48461 0.35049 0.0
C4 C 0.86847 0.44245 0.36933 0.0
C5 C 0.90566 0.45163 0.36482 0.0
C6 C 0.96785 0.49319 0.34238 0.0
C7 C 0.89222 0.43749 0.25805 0.0
C8 C 0.90198 0.45841 0.2315 0.0
C9 C 0.91665 0.44974 0.28416 0.0
C10 C 0.95091 0.48371 0.28455 0.0
C11 C 0.93622 0.49215 0.23173 0.0
C12 C 0.96032 0.50472 0.25798 0.0
C13 C 0.97831 0.49641 0.31146 0.0
C14 C 0.14736 0.56147 0.32178 0.0
C15 C 0.15616 0.58889 0.30011 0.0
C16 C 0.11033 0.53998 0.33096 0.0
C17 C 0.08214 0.54662 0.31921 0.0
C18 C 0.12783 0.59461 0.2877 0.0
C19 C 0.09121 0.57376 0.29721 0.0
C20 C 0.04283 0.52562 0.3287 0.0
C21 C 0.11519 0.57977 0.41559 0.0
C22 C 0.10839 0.55509 0.43946 0.0
C23 C 0.09032 0.56908 0.38984 0.0
C24 C 0.059 0.53292 0.38674 0.0
C25 C 0.07633 0.51937 0.43667 0.0
C26 C 0.05203 0.50845 0.41065 0.0
C27 C 0.03209 0.52053 0.35971 0.0
H28 H 0.87255 0.5207 0.34181 0.0
H29 H 0.93668 0.53561 0.33247 0.0
H30 H 0.84941 0.41596 0.37891 0.0
H31 H 0.91489 0.43229 0.37112 0.0
H32 H 0.86638 0.41094 0.25816 0.0
H33 H 0.90923 0.4319 0.30354 0.0
H34 H 0.94446 0.50865 0.21144 0.0
H35 H 0.98659 0.53081 0.25739 0.0
H36 H 0.16897 0.55651 0.3313 0.0
H37 H 0.10382 0.51845 0.34725 0.0
H38 H 0.1342 0.61561 0.27088 0.0
H39 H 0.06997 0.57923 0.28761 0.0
H40 H 0.13985 0.60726 0.41661 0.0
H41 H 0.0957 0.58911 0.37236 0.0
H42 H 0.06978 0.49983 0.45478 0.0
H43 H 0.02771 0.48067 0.40916 0.0
N44 N 0.99489 0.50471 0.36527 0.0
N45 N 0.01546 0.51302 0.30596 0.0
C46 C 0.39615 0.88487 0.50527 0.0
C47 C 0.40607 0.86827 0.52865 0.0
C48 C 0.42135 0.921 0.49697 0.0
C49 C 0.45719 0.94117 0.51164 0.0
C50 C 0.44182 0.88848 0.54351 0.0
C51 C 0.46711 0.92474 0.53517 0.0
C52 C 0.48288 0.98027 0.50395 0.0
C53 C 0.47526 0.91164 0.42028 0.0
C54 C 0.46224 0.91918 0.3928 0.0
C55 C 0.48371 0.93512 0.44647 0.0
C56 C 0.47815 0.96596 0.44597 0.0
C57 C 0.45704 0.9501 0.39207 0.0
C58 C 0.46486 0.97323 0.4184 0.0
C59 C 0.48834 0.99199 0.47333 0.0
C60 C 0.57558 0.15971 0.48305 0.0
C61 C 0.54895 0.16644 0.4681 0.0
C62 C 0.56577 0.12356 0.49118 0.0
C63 C 0.52932 0.09383 0.48425 0.0
C64 C 0.51276 0.13647 0.4609 0.0
C65 C 0.50313 0.10054 0.46877 0.0
C66 C 0.51751 0.05527 0.49217 0.0
C67 C 0.54329 0.12371 0.58161 0.0
C68 C 0.56566 0.1177 0.60313 0.0
C69 C 0.52666 0.09971 0.55562 0.0
C70 C 0.53291 0.06976 0.5501 0.0
C71 C 0.57041 0.08672 0.59819 0.0
C72 C 0.55445 0.06324 0.57196 0.0
C73 C 0.51611 0.04375 0.52272 0.0
H74 H 0.3687 0.86999 0.49359 0.0
H75 H 0.41247 0.93343 0.47945 0.0
H76 H 0.44983 0.87661 0.5621 0.0
H77 H 0.49433 0.94002 0.54717 0.0
H78 H 0.48 0.88825 0.42118 0.0
H79 H 0.49537 0.92952 0.46687 0.0
H80 H 0.44705 0.95642 0.37105 0.0
H81 H 0.46063 0.99692 0.41716 0.0
H82 H 0.60378 0.1824 0.48852 0.0
H83 H 0.58651 0.11878 0.50276 0.0
H84 H 0.49204 0.14076 0.44871 0.0
H85 H 0.47497 0.07789 0.46296 0.0
H86 H 0.53859 0.14698 0.58485 0.0
H87 H 0.50868 0.10449 0.5401 0.0
H88 H 0.58602 0.08016 0.61485 0.0
H89 H 0.559 0.03985 0.56873 0.0
N90 N 0.49815 0.00653 0.52738 0.0
N91 N 0.5043 0.02902 0.46873 0.0
C92 C 0.6032 0.49687 0.55765 0.0
C93 C 0.57687 0.47405 0.53433 0.0
C94 C 0.59161 0.50837 0.5836 0.0
C95 C 0.55357 0.49752 0.58642 0.0
C96 C 0.53888 0.46323 0.5372 0.0
C97 C 0.5274 0.47512 0.56288 0.0
C98 C 0.54094 0.51047 0.61314 0.0
C99 C 0.56728 0.42697 0.65261 0.0
C100 C 0.58998 0.43766 0.67979 0.0
C101 C 0.55578 0.45051 0.64018 0.0
C102 C 0.56816 0.48607 0.65379 0.0
C103 C 0.60326 0.47357 0.69294 0.0
C104 C 0.5925 0.49752 0.68004 0.0
C105 C 0.55126 0.5087 0.64402 0.0
C106 C 0.45997 0.55145 0.72104 0.0
C107 C 0.48786 0.57978 0.74064 0.0
C108 C 0.46977 0.53855 0.69485 0.0
C109 C 0.50762 0.55406 0.68762 0.0
C110 C 0.52571 0.59513 0.73339 0.0
C111 C 0.5355 0.58211 0.70728 0.0
C112 C 0.51871 0.5397 0.66083 0.0
C113 C 0.44936 0.58834 0.62584 0.0
C114 C 0.4184 0.56291 0.60688 0.0
C115 C 0.47872 0.58151 0.63282 0.0
C116 C 0.47716 0.54879 0.62137 0.0
C117 C 0.41833 0.5317 0.5937 0.0
C118 C 0.44731 0.52466 0.60097 0.0
C119 C 0.50577 0.5386 0.63016 0.0
H120 H 0.63268 0.50576 0.55575 0.0
H121 H 0.6124 0.52618 0.60122 0.0
H122 H 0.51819 0.44616 0.51924 0.0
H123 H 0.49797 0.46664 0.56446 0.0
H124 H 0.55734 0.39988 0.64144 0.0
H125 H 0.53567 0.43986 0.62083 0.0
H126 H 0.62069 0.48262 0.71397 0.0
H127 H 0.60206 0.52451 0.69131 0.0
H128 H 0.43054 0.53947 0.72586 0.0
H129 H 0.44784 0.51636 0.68034 0.0
H130 H 0.54774 0.61689 0.74814 0.0
H131 H 0.5649 0.59407 0.70232 0.0
H132 H 0.45029 0.61286 0.63603 0.0
H133 H 0.50216 0.60141 0.64758 0.0
H134 H 0.39541 0.51224 0.57827 0.0
H135 H 0.44575 0.4996 0.5913 0.0
N136 N 0.51795 0.52455 0.60755 0.0
N137 N 0.54057 0.52435 0.66651 0.0
C138 C 0.8762 0.42744 0.82323 0.0
C139 C 0.85995 0.43202 0.79609 0.0
C140 C 0.91094 0.45576 0.83503 0.0
C141 C 0.92997 0.48981 0.82042 0.0
C142 C 0.87874 0.46612 0.78151 0.0
C143 C 0.91343 0.49472 0.79357 0.0
C144 C 0.96943 0.51741 0.82991 0.0
C145 C 0.90529 0.51119 0.91361 0.0
C146 C 0.914 0.49669 0.93939 0.0
C147 C 0.92764 0.52066 0.88797 0.0
C148 C 0.95886 0.51547 0.88763 0.0
C149 C 0.94562 0.49222 0.93924 0.0
C150 C 0.96796 0.50175 0.9137 0.0
C151 C 0.98319 0.52561 0.86092 0.0
C152 C 0.15291 0.60871 0.84867 0.0
C153 C 0.16037 0.58584 0.8675 0.0
C154 C 0.11584 0.59993 0.8419 0.0
C155 C 0.08576 0.56772 0.85337 0.0
C156 C 0.13028 0.55508 0.88044 0.0
C157 C 0.09342 0.54618 0.87351 0.0
C158 C 0.04609 0.55468 0.84417 0.0
C159 C 0.10477 0.56039 0.75618 0.0
C160 C 0.10091 0.58297 0.73446 0.0
C161 C 0.08247 0.54928 0.7818 0.0
C162 C 0.05656 0.56132 0.78654 0.0
C163 C 0.07383 0.59365 0.73861 0.0
C164 C 0.05187 0.58292 0.76445 0.0
C165 C 0.03238 0.54967 0.81325 0.0
H166 H 0.86235 0.40152 0.83504 0.0
H167 H 0.92355 0.45018 0.85484 0.0
H168 H 0.86732 0.47025 0.76024 0.0
H169 H 0.92792 0.52032 0.78139 0.0
H170 H 0.88073 0.51439 0.91302 0.0
H171 H 0.92052 0.53201 0.86844 0.0
H172 H 0.9529 0.4811 0.95886 0.0
H173 H 0.99207 0.49779 0.91412 0.0
H174 H 0.17557 0.63244 0.83816 0.0
H175 H 0.11068 0.61754 0.82696 0.0
H176 H 0.13524 0.53723 0.89527 0.0
H177 H 0.07075 0.52144 0.88296 0.0
H178 H 0.12532 0.55159 0.75351 0.0
H179 H 0.08556 0.53139 0.79792 0.0
H180 H 0.06943 0.61009 0.72181 0.0
H181 H 0.03128 0.59164 0.76728 0.0
N182 N 0.99465 0.53088 0.80739 0.0
N183 N 0.02089 0.54304 0.86671 0.0
C184 C 0.45529 0.88243 0.98005 0.0
C185 C 0.42843 0.86695 0.95548 0.0
C186 C 0.46472 0.91699 0.99372 0.0
C187 C 0.44739 0.93672 0.98317 0.0
C188 C 0.40956 0.88576 0.94617 0.0
C189 C 0.41936 0.92057 0.95959 0.0
C190 C 0.46271 0.97618 0.99323 0.0
C191 C 0.40836 0.91196 0.07647 0.0
C192 C 0.43389 0.91745 0.10079 0.0
C193 C 0.42026 0.93498 0.05135 0.0
C194 C 0.4578 0.96376 0.05039 0.0
C195 C 0.47108 0.9468 0.10019 0.0
C196 C 0.48288 0.96989 0.07528 0.0
C197 C 0.47101 0.9888 0.02438 0.0
C198 C 0.56372 0.15675 0.02113 0.0
C199 C 0.59392 0.16102 0.04016 0.0
C200 C 0.53534 0.12125 0.01066 0.0
C201 C 0.53706 0.08957 0.01869 0.0
C202 C 0.59515 0.12919 0.04851 0.0
C203 C 0.567 0.09391 0.03797 0.0
C204 C 0.50741 0.0514 0.00893 0.0
C205 C 0.55431 0.08958 0.91106 0.0
C206 C 0.53489 0.10693 0.89953 0.0
C207 C 0.54228 0.06829 0.93715 0.0
C208 C 0.51069 0.06397 0.95209 0.0
C209 C 0.50327 0.10259 0.91479 0.0
C210 C 0.49094 0.08077 0.94058 0.0
C211 C 0.49638 0.03907 0.97793 0.0
H212 H 0.47046 0.86877 0.98766 0.0
H213 H 0.48716 0.92922 0.01132 0.0
H214 H 0.38798 0.87408 0.92787 0.0
H215 H 0.40578 0.93537 0.95097 0.0
H216 H 0.37955 0.88934 0.07658 0.0
H217 H 0.40018 0.93036 0.03277 0.0
H218 H 0.49112 0.95148 0.11884 0.0
H219 H 0.51185 0.99216 0.07519 0.0
H220 H 0.56229 0.18085 0.01401 0.0
H221 H 0.51192 0.11866 0.99679 0.0
H222 H 0.61794 0.1316 0.06326 0.0
H223 H 0.56877 0.06986 0.04477 0.0
H224 H 0.57863 0.09222 0.89974 0.0
H225 H 0.55737 0.05482 0.94547 0.0
H226 H 0.4883 0.11639 0.90707 0.0
H227 H 0.46611 0.07718 0.95167 0.0
N228 N 0.47509 0.00191 0.97119 0.0
N229 N 0.49372 0.02577 0.03093 0.0
C230 C 0.46472 0.61394 0.16839 0.0
C231 C 0.44111 0.60489 0.19341 0.0
C232 C 0.46857 0.5865 0.15254 0.0
C233 C 0.44818 0.54924 0.16094 0.0
C234 C 0.41958 0.56747 0.20102 0.0
C235 C 0.42321 0.53994 0.18501 0.0
C236 C 0.45838 0.52179 0.1494 0.0
C237 C 0.41541 0.54797 0.06225 0.0
C238 C 0.43956 0.55941 0.03756 0.0
C239 C 0.42486 0.53598 0.08917 0.0
C240 C 0.45906 0.53602 0.09209 0.0
C241 C 0.47402 0.56033 0.04072 0.0
C242 C 0.48368 0.54884 0.06767 0.0
C243 C 0.46795 0.51933 0.11869 0.0
C244 C 0.53134 0.41499 0.12887 0.0
C245 C 0.56563 0.4372 0.11493 0.0
C246 C 0.50721 0.42885 0.13469 0.0
C247 C 0.51721 0.46525 0.12692 0.0
C248 C 0.57505 0.4732 0.1065 0.0
C249 C 0.55097 0.48699 0.11227 0.0
C250 C 0.49387 0.48187 0.13496 0.0
C251 C 0.53721 0.46277 0.22487 0.0
C252 C 0.50861 0.43717 0.24306 0.0
C253 C 0.52853 0.47712 0.1993 0.0
C254 C 0.49102 0.46583 0.19122 0.0
C255 C 0.47108 0.42618 0.2352 0.0
C256 C 0.46238 0.44065 0.20955 0.0
C257 C 0.48187 0.48223 0.16499 0.0
H258 H 0.48088 0.64245 0.16145 0.0
H259 H 0.48898 0.59487 0.13484 0.0
H260 H 0.40096 0.55969 0.22006 0.0
H261 H 0.40761 0.51151 0.19226 0.0
H262 H 0.38851 0.54671 0.06016 0.0
H263 H 0.40471 0.52527 0.10707 0.0
H264 H 0.49316 0.56922 0.02201 0.0
H265 H 0.51018 0.5492 0.06911 0.0
H266 H 0.52352 0.38719 0.13572 0.0
H267 H 0.48103 0.41135 0.14561 0.0
H268 H 0.60111 0.49071 0.09541 0.0
H269 H 0.55922 0.5151 0.106 0.0
H270 H 0.56639 0.47166 0.23042 0.0
H271 H 0.55115 0.49734 0.18601 0.0
H272 H 0.4486 0.40694 0.24914 0.0
H273 H 0.43331 0.43217 0.20398 0.0
N274 N 0.46497 0.5024 0.17103 0.0
N275 N 0.48596 0.49996 0.11295 0.0
Mg276 Mg 0.61179 0.36871 0.36845 0.0
O277 O 0.60759 0.40025 0.41075 0.0
O278 O 0.62987 0.45936 0.3984 0.0
Mg279 Mg 0.64387 0.46472 0.34736 0.0
C280 C 0.61604 0.43366 0.4178 0.0
C281 C 0.57749 0.30459 0.41487 0.0
O282 O 0.55224 0.3151 0.41541 0.0
O283 O 0.6755 0.39801 0.37527 0.0
O284 O 0.69236 0.45367 0.35629 0.0
O285 O 0.55358 0.3533 0.35086 0.0
O286 O 0.60534 0.40466 0.34 0.0
C287 C 0.70044 0.42993 0.36677 0.0
C288 C 0.56939 0.38469 0.33728 0.0
O289 O 0.60529 0.32137 0.39785 0.0
Mg290 Mg 0.26429 0.6488 0.60519 0.0
O291 O 0.22501 0.62215 0.56213 0.0
O292 O 0.18865 0.56168 0.57086 0.0
Mg293 Mg 0.20068 0.551 0.62019 0.0
C294 C 0.19921 0.58932 0.55353 0.0
C295 C 0.29569 0.72405 0.57245 0.0
O296 O 0.26262 0.71883 0.57964 0.0
O297 O 0.2977 0.62021 0.59392 0.0
O298 O 0.2595 0.56243 0.6084 0.0
O299 O 0.22386 0.663 0.62627 0.0
O300 O 0.22351 0.61034 0.63277 0.0
C301 C 0.29107 0.58732 0.59889 0.0
C302 C 0.20868 0.63067 0.6383 0.0
O303 O 0.3041 0.69938 0.57894 0.0
Mg304 Mg 0.62369 0.26742 0.76854 0.0
O305 O 0.61468 0.2293 0.72623 0.0
O306 O 0.64481 0.19826 0.73626 0.0
Mg307 Mg 0.66821 0.21263 0.78636 0.0
C308 C 0.62513 0.20622 0.7182 0.0
C309 C 0.62375 0.33687 0.74566 0.0
O310 O 0.64996 0.35113 0.76781 0.0
O311 O 0.68557 0.30588 0.75928 0.0
O312 O 0.71153 0.27285 0.77526 0.0
O313 O 0.57108 0.22292 0.78822 0.0
O314 O 0.6275 0.2305 0.7976 0.0
C315 C 0.71446 0.30298 0.7655 0.0
C316 C 0.59203 0.21198 0.80183 0.0
O317 O 0.60654 0.30194 0.73987 0.0
Mg318 Mg 0.40141 0.65928 0.87301 0.0
O319 O 0.40673 0.62816 0.91454 0.0
O320 O 0.37852 0.56806 0.89915 0.0
Mg321 Mg 0.35658 0.56076 0.84902 0.0
C322 C 0.39646 0.5942 0.91959 0.0
C323 C 0.40781 0.73336 0.88982 0.0
O324 O 0.39432 0.72545 0.86122 0.0
O325 O 0.3395 0.63657 0.88048 0.0
O326 O 0.31337 0.57802 0.86194 0.0
O327 O 0.45557 0.66813 0.85411 0.0
O328 O 0.40012 0.61888 0.84279 0.0
C329 C 0.31059 0.60522 0.87319 0.0
C330 C 0.43586 0.63606 0.83972 0.0
O331 O 0.41518 0.71067 0.90314 0.0
Mg332 Mg 0.74798 0.39923 0.06617 0.0
O333 O 0.78633 0.40932 0.10952 0.0
O334 O 0.82328 0.38634 0.09676 0.0
Mg335 Mg 0.81029 0.36335 0.04685 0.0
C336 C 0.8127 0.40247 0.11615 0.0
C337 C 0.67382 0.39275 0.08183 0.0
O338 O 0.6659 0.36952 0.05806 0.0
O339 O 0.71329 0.33717 0.07377 0.0
O340 O 0.75069 0.31664 0.05688 0.0
O341 O 0.78989 0.45391 0.04737 0.0
O342 O 0.78839 0.40088 0.03777 0.0
C343 C 0.71911 0.31056 0.06658 0.0
C344 C 0.80417 0.43603 0.03379 0.0
O345 O 0.70751 0.41054 0.09273 0.0
Mg346 Mg 0.36994 0.75906 0.23423 0.0
O347 O 0.40048 0.8007 0.27516 0.0
O348 O 0.46035 0.83515 0.26271 0.0
Mg349 Mg 0.46797 0.81749 0.21445 0.0
C350 C 0.43408 0.82697 0.28132 0.0
C351 C 0.30036 0.68988 0.25164 0.0
O352 O 0.31011 0.68092 0.22567 0.0
O353 O 0.39689 0.72455 0.24574 0.0
O354 O 0.45424 0.75892 0.22782 0.0
O355 O 0.35724 0.79945 0.21061 0.0
O356 O 0.40778 0.7951 0.20402 0.0
C357 C 0.42876 0.72887 0.2389 0.0
C358 C 0.38865 0.81077 0.19711 0.0
O359 O 0.32028 0.72286 0.26296 0.0
C360 C 0.20257 0.60776 0.25927 0.0
C361 C 0.19469 0.61185 0.28984 0.0
C362 C 0.23737 0.63249 0.24752 0.0
C363 C 0.26521 0.66266 0.26577 0.0
H364 H 0.18129 0.58579 0.24415 0.0
H365 H 0.24189 0.62863 0.22361 0.0
S366 S 0.25844 0.68412 0.34792 0.0
N367 N 0.21744 0.64683 0.33863 0.0
N368 N 0.28296 0.694 0.31653 0.0
C369 C 0.2579 0.66641 0.29671 0.0
C370 C 0.22257 0.64079 0.30876 0.0
C371 C 0.5893 0.22365 0.43948 0.0
C372 C 0.55886 0.20414 0.45841 0.0
C373 C 0.59584 0.25679 0.42634 0.0
C374 C 0.57218 0.27166 0.43168 0.0
H375 H 0.6072 0.21237 0.43368 0.0
H376 H 0.61892 0.27011 0.41105 0.0
S377 S 0.49176 0.23354 0.48331 0.0
N378 N 0.50718 0.20371 0.48451 0.0
N379 N 0.5193 0.26597 0.45993 0.0
C380 C 0.54287 0.25338 0.45202 0.0
C381 C 0.53624 0.21963 0.46533 0.0
C382 C 0.3898 0.60222 0.59399 0.0
C383 C 0.38527 0.56773 0.60225 0.0
C384 C 0.35891 0.60776 0.59139 0.0
C385 C 0.32229 0.57908 0.59719 0.0
H386 H 0.4175 0.62523 0.58984 0.0
H387 H 0.36408 0.63516 0.58571 0.0
S388 S 0.29564 0.48308 0.61898 0.0
N389 N 0.34158 0.50432 0.61588 0.0
N390 N 0.28347 0.51424 0.61048 0.0
C391 C 0.31737 0.54403 0.60455 0.0
C392 C 0.34884 0.5385 0.60725 0.0
C393 C 0.81917 0.36446 0.78132 0.0
C394 C 0.82403 0.4005 0.78297 0.0
C395 C 0.7842 0.33332 0.77323 0.0
C396 C 0.75249 0.33684 0.76643 0.0
H397 H 0.84236 0.36011 0.78733 0.0
H398 H 0.78174 0.30612 0.77377 0.0
S399 S 0.7517 0.42589 0.76332 0.0
N400 N 0.79525 0.43848 0.77439 0.0
N401 N 0.72964 0.38013 0.75834 0.0
C402 C 0.75775 0.37311 0.76554 0.0
C403 C 0.79345 0.40488 0.77405 0.0
C404 C 0.41843 0.80195 0.95434 0.0
C405 C 0.42218 0.83268 0.93836 0.0
C406 C 0.41416 0.77005 0.93856 0.0
C407 C 0.41326 0.76759 0.90618 0.0
H408 H 0.41863 0.80247 0.97927 0.0
H409 H 0.4111 0.74701 0.95183 0.0
S410 S 0.42488 0.84148 0.85356 0.0
N411 N 0.42711 0.85942 0.88834 0.0
N412 N 0.4181 0.79933 0.85873 0.0
C413 C 0.41726 0.79822 0.88994 0.0
C414 C 0.42193 0.83076 0.90599 0.0
C415 C 0.63001 0.44513 0.1183 0.0
C416 C 0.59186 0.42327 0.10895 0.0
C417 C 0.65608 0.43422 0.11065 0.0
C418 C 0.64505 0.40123 0.09302 0.0
H419 H 0.63988 0.47122 0.13124 0.0
H420 H 0.6853 0.4525 0.11769 0.0
S421 S 0.54787 0.33306 0.06448 0.0
N422 N 0.54393 0.36636 0.08242 0.0
N423 N 0.59276 0.34566 0.068 0.0
C424 C 0.60667 0.37844 0.08448 0.0
C425 C 0.58011 0.38948 0.09248 0.0
C426 C 0.34185 0.82297 0.54532 0.0
C427 C 0.37823 0.83073 0.53854 0.0
C428 C 0.31521 0.78817 0.55561 0.0
C429 C 0.32385 0.75967 0.55949 0.0
H430 H 0.33411 0.84426 0.54327 0.0
H431 H 0.28782 0.78391 0.56102 0.0
S432 S 0.41456 0.76521 0.5425 0.0
N433 N 0.42106 0.80671 0.53468 0.0
N434 N 0.37119 0.74119 0.55416 0.0
C435 C 0.35997 0.76683 0.55203 0.0
C436 C 0.38712 0.80238 0.5416 0.0
C437 C 0.63457 0.42277 0.70781 0.0
C438 C 0.59823 0.41089 0.69539 0.0
C439 C 0.64256 0.39855 0.72392 0.0
C440 C 0.61467 0.3614 0.72786 0.0
H441 H 0.65705 0.45105 0.70509 0.0
H442 H 0.6709 0.40898 0.73321 0.0
S443 S 0.5146 0.31683 0.70144 0.0
N444 N 0.53358 0.35981 0.68965 0.0
N445 N 0.54915 0.31398 0.71881 0.0
C446 C 0.57832 0.34898 0.71541 0.0
C447 C 0.56997 0.37379 0.69945 0.0
C448 C 0.20466 0.56138 0.86599 0.0
C449 C 0.19887 0.59162 0.87145 0.0
C450 C 0.24067 0.56589 0.86777 0.0
C451 C 0.27257 0.60087 0.87509 0.0
H452 H 0.18121 0.53409 0.8594 0.0
H453 H 0.24346 0.54175 0.86263 0.0
S454 S 0.27203 0.68848 0.89387 0.0
N455 N 0.22743 0.65724 0.88632 0.0
N456 N 0.29548 0.6661 0.88953 0.0
C457 C 0.26701 0.63121 0.88164 0.0
C458 C 0.23014 0.62652 0.87973 0.0
C459 C 0.6625 0.20707 0.0463 0.0
C460 C 0.62524 0.19851 0.0501 0.0
C461 C 0.6927 0.24279 0.05349 0.0
C462 C 0.687 0.27162 0.06475 0.0
H463 H 0.66837 0.18631 0.03662 0.0
H464 H 0.72067 0.24804 0.04899 0.0
S465 S 0.59473 0.26199 0.08267 0.0
N466 N 0.58422 0.22041 0.0687 0.0
N467 N 0.64089 0.28785 0.08208 0.0
C468 C 0.64984 0.26283 0.07023 0.0
C469 C 0.61902 0.2263 0.06282 0.0
C470 C 0.40354 0.63059 0.217 0.0
C471 C 0.43877 0.63455 0.21117 0.0
C472 C 0.4006 0.66046 0.22933 0.0
C473 C 0.43282 0.69547 0.23602 0.0
H474 H 0.37798 0.60501 0.21019 0.0
H475 H 0.37277 0.65683 0.23122 0.0
S476 S 0.53166 0.71735 0.23167 0.0
N477 N 0.50654 0.67382 0.21823 0.0
N478 N 0.50104 0.73034 0.24072 0.0
C479 C 0.46822 0.6986 0.23309 0.0
C480 C 0.47119 0.66809 0.22074 0.0
C481 C 0.79549 0.44078 0.38815 0.0
C482 C 0.8155 0.45562 0.3614 0.0
C483 C 0.75787 0.43192 0.38986 0.0
C484 C 0.73951 0.43823 0.36506 0.0
H485 H 0.80918 0.43665 0.40803 0.0
H486 H 0.74339 0.42092 0.41088 0.0
S487 S 0.77755 0.47135 0.28851 0.0
N488 N 0.81251 0.47191 0.30841 0.0
N489 N 0.74265 0.45686 0.31218 0.0
C490 C 0.75879 0.4519 0.33795 0.0
C491 C 0.7966 0.46019 0.33598 0.0
C492 C 0.14319 0.5402 0.47971 0.0
C493 C 0.13425 0.56602 0.46732 0.0
C494 C 0.16495 0.54835 0.50715 0.0
C495 C 0.17933 0.58293 0.52313 0.0
H496 H 0.13295 0.51318 0.46827 0.0
H497 H 0.17034 0.52722 0.51604 0.0
S498 S 0.1644 0.66045 0.50088 0.0
N499 N 0.14135 0.62769 0.47367 0.0
N500 N 0.18354 0.64346 0.52456 0.0
C501 C 0.1717 0.60952 0.51064 0.0
C502 C 0.14891 0.60099 0.48292 0.0
C503 C 0.56138 0.15444 0.64814 0.0
C504 C 0.58261 0.1426 0.63131 0.0
C505 C 0.57583 0.17601 0.67568 0.0
C506 C 0.61188 0.18617 0.68777 0.0
H507 H 0.53291 0.14612 0.64049 0.0
H508 H 0.55807 0.18369 0.68815 0.0
S509 S 0.68072 0.16638 0.651 0.0
N510 N 0.64323 0.14617 0.62734 0.0
N511 N 0.66961 0.18528 0.67973 0.0
C512 C 0.63385 0.1755 0.67082 0.0
C513 C 0.61942 0.1541 0.64249 0.0
C514 C 0.49138 0.63228 0.77308 0.0
C515 C 0.4774 0.59384 0.7682 0.0
C516 C 0.47939 0.64591 0.79752 0.0
C517 C 0.45293 0.62158 0.81785 0.0
H518 H 0.51061 0.65184 0.75719 0.0
H519 H 0.4895 0.67553 0.79957 0.0
S520 S 0.41337 0.51939 0.81855 0.0
N521 N 0.43953 0.53222 0.78809 0.0
N522 N 0.41726 0.55792 0.83407 0.0
C523 C 0.44059 0.5834 0.81438 0.0
C524 C 0.45275 0.5695 0.78952 0.0
C525 C 0.87513 0.44715 0.97512 0.0
C526 C 0.88871 0.48357 0.9655 0.0
C527 C 0.84899 0.43269 0.99809 0.0
C528 C 0.83551 0.45414 0.01261 0.0
H529 H 0.88376 0.42915 0.96402 0.0
H530 H 0.83847 0.404 0.00369 0.0
S531 S 0.86516 0.55258 0.99751 0.0
N532 N 0.88896 0.54181 0.97337 0.0
N533 N 0.83971 0.51475 0.01682 0.0
C534 C 0.85007 0.49124 0.00404 0.0
C535 C 0.87661 0.50589 0.98038 0.0
C536 C 0.39379 0.88533 0.14499 0.0
C537 C 0.42284 0.8909 0.12564 0.0
C538 C 0.38333 0.85992 0.16862 0.0
C539 C 0.40143 0.83916 0.1734 0.0
H540 H 0.37926 0.90082 0.14191 0.0
H541 H 0.36077 0.85637 0.18304 0.0
S542 S 0.47722 0.84189 0.12664 0.0
N543 N 0.46836 0.87293 0.11157 0.0
N544 N 0.44848 0.82466 0.1552 0.0
C545 C 0.43021 0.84431 0.15368 0.0
C546 C 0.44095 0.87031 0.12997 0.0
C547 C 0.54724 0.44766 0.29126 0.0
C548 C 0.51867 0.42263 0.27027 0.0
C549 C 0.56157 0.43492 0.31448 0.0
C550 C 0.54797 0.39669 0.31758 0.0
H551 H 0.55949 0.47742 0.28907 0.0
H552 H 0.5843 0.45531 0.32946 0.0
S553 S 0.47096 0.31959 0.27021 0.0
N554 N 0.47532 0.35775 0.25536 0.0
N555 N 0.50227 0.33374 0.29928 0.0
C556 C 0.51763 0.37124 0.29813 0.0
C557 C 0.50301 0.38424 0.27435 0.0
C558 C 0.42847 0.85776 0.3633 0.0
C559 C 0.45575 0.89581 0.36452 0.0
C560 C 0.42158 0.83553 0.33633 0.0
C561 C 0.44241 0.85044 0.30996 0.0
H562 H 0.41196 0.84527 0.38315 0.0
H563 H 0.39996 0.80646 0.33621 0.0
S564 S 0.51758 0.94862 0.30199 0.0
N565 N 0.5038 0.94744 0.33749 0.0
N566 N 0.49161 0.90587 0.28707 0.0
C567 C 0.47019 0.88843 0.31122 0.0
C568 C 0.47665 0.91107 0.33842 0.0
C569 C 0.61546 0.4901 0.48774 0.0
C570 C 0.58898 0.46281 0.50627 0.0
C571 C 0.62463 0.48032 0.45952 0.0
C572 C 0.608 0.44282 0.44894 0.0
H573 H 0.62825 0.51931 0.49463 0.0
H574 H 0.64455 0.50245 0.44573 0.0
S575 S 0.53903 0.36071 0.49058 0.0
N576 N 0.54772 0.39685 0.51326 0.0
N577 N 0.56506 0.37815 0.46046 0.0
C578 C 0.58251 0.41518 0.46801 0.0
C579 C 0.57291 0.42526 0.49657 0.0
C580 C 0.13143 0.56958 0.69087 0.0
C581 C 0.12537 0.5953 0.70769 0.0
C582 C 0.1571 0.58101 0.66741 0.0
C583 C 0.17759 0.61857 0.65968 0.0
H584 H 0.11672 0.54043 0.69627 0.0
H585 H 0.16146 0.56025 0.65582 0.0
S586 S 0.17106 0.69682 0.69611 0.0
N587 N 0.14129 0.65994 0.71462 0.0
N588 N 0.18895 0.68134 0.67 0.0
C589 C 0.17059 0.64437 0.67541 0.0
C590 C 0.14464 0.63276 0.69954 0.0
C591 C 0.58736 0.15653 0.87097 0.0
C592 C 0.54876 0.13093 0.87258 0.0
C593 C 0.60113 0.18136 0.8471 0.0
C594 C 0.57684 0.18194 0.82406 0.0
H595 H 0.60705 0.15834 0.88888 0.0
H596 H 0.63096 0.2013 0.84752 0.0
S597 S 0.47403 0.11752 0.81541 0.0
N598 N 0.48689 0.105 0.84715 0.0
N599 N 0.51275 0.15272 0.8028 0.0
C600 C 0.53838 0.1556 0.82463 0.0
C601 C 0.52435 0.12989 0.84878 0.0
C602 C 0.42081 0.59744 0.00529 0.0
C603 C 0.42784 0.56772 0.00764 0.0
C604 C 0.41092 0.6061 0.97671 0.0
C605 C 0.40687 0.58478 0.94967 0.0
H606 H 0.42358 0.61442 0.02557 0.0
H607 H 0.40606 0.62943 0.97585 0.0
S608 S 0.42171 0.50364 0.94402 0.0
N609 N 0.42995 0.51691 0.98084 0.0
N610 N 0.41082 0.53255 0.92739 0.0
C611 C 0.41342 0.55468 0.95197 0.0
C612 C 0.42404 0.54633 0.98087 0.0
C613 C 0.89337 0.43835 0.17593 0.0
C614 C 0.87809 0.44382 0.20273 0.0
C615 C 0.87172 0.42442 0.14837 0.0
C616 C 0.834 0.41597 0.14627 0.0
H617 H 0.9223 0.44463 0.17634 0.0
H618 H 0.88497 0.42086 0.12838 0.0
S619 S 0.78081 0.42551 0.21012 0.0
N620 N 0.823 0.43951 0.22581 0.0
N621 N 0.78231 0.41404 0.17375 0.0
C622 C 0.81838 0.42147 0.17296 0.0
C623 C 0.84037 0.43511 0.20125 0.0
loop_
_geom_bond_atom_site_label_1
_geom_bond_atom_site_label_2
_geom_bond_distance
_geom_bond_site_symmetry_2
_ccdc_geom_bond_type
C0 C1 1.384 . S
C0 C2 1.384 . S
C0 H28 0.931 . S
C1 C0 1.384 . S
C1 C4 1.382 . S
C2 C0 1.384 . S
C2 C3 1.381 . S
C2 H29 0.930 . S
C3 C2 1.381 . S
C3 C5 1.381 . S
C3 C6 1.487 . S
C4 C1 1.382 . S
C4 C5 1.387 . S
C4 H30 0.930 . S
C5 C3 1.381 . S
C5 C4 1.387 . S
C5 H31 0.931 . S
C6 C3 1.487 . S
C6 C13 1.399 . S
C6 N44 1.343 . S
C7 C8 1.384 . S
C7 C9 1.384 . S
C7 H32 0.931 . S
C8 C7 1.384 . S
C8 C11 1.382 . S
C9 C7 1.384 . S
C9 C10 1.381 . S
C9 H33 0.930 . S
C10 C9 1.381 . S
C10 C12 1.381 . S
C10 C13 1.487 . S
C11 C8 1.382 . S
C11 C12 1.387 . S
C11 H34 0.930 . S
C12 C10 1.381 . S
C12 C11 1.387 . S
C12 H35 0.931 . S
C13 C6 1.399 . S
C13 C10 1.487 . S
C13 N45 1.343 1_655 S
C14 C15 1.384 . S
C14 C16 1.384 . S
C14 H36 0.931 . S
C15 C14 1.384 . S
C15 C18 1.382 . S
C16 C14 1.384 . S
C16 C17 1.381 . S
C16 H37 0.930 . S
C17 C16 1.381 . S
C17 C19 1.381 . S
C17 C20 1.487 . S
C18 C15 1.382 . S
C18 C19 1.387 . S
C18 H38 0.930 . S
C19 C17 1.381 . S
C19 C18 1.387 . S
C19 H39 0.931 . S
C20 C17 1.487 . S
C20 C27 1.399 . S
C20 N45 1.343 . S
C21 C22 1.384 . S
C21 C23 1.384 . S
C21 H40 0.931 . S
C22 C21 1.384 . S
C22 C25 1.382 . S
C23 C21 1.384 . S
C23 C24 1.381 . S
C23 H41 0.930 . S
C24 C23 1.381 . S
C24 C26 1.381 . S
C24 C27 1.487 . S
C25 C22 1.382 . S
C25 C26 1.387 . S
C25 H42 0.930 . S
C26 C24 1.381 . S
C26 C25 1.387 . S
C26 H43 0.931 . S
C27 C20 1.399 . S
C27 C24 1.487 . S
C27 N44 1.343 1_455 S
H28 C0 0.931 . S
H29 C2 0.930 . S
H30 C4 0.930 . S
H31 C5 0.931 . S
H32 C7 0.931 . S
H33 C9 0.930 . S
H34 C11 0.930 . S
H35 C12 0.931 . S
H36 C14 0.931 . S
H37 C16 0.930 . S
H38 C18 0.930 . S
H39 C19 0.931 . S
H40 C21 0.931 . S
H41 C23 0.930 . S
H42 C25 0.930 . S
H43 C26 0.931 . S
N44 C6 1.343 . S
N44 C27 1.343 1_655 S
N45 C13 1.343 1_455 S
N45 C20 1.343 . S
C46 C47 1.384 . S
C46 C48 1.384 . S
C46 H74 0.931 . S
C47 C46 1.384 . S
C47 C50 1.382 . S
C48 C46 1.384 . S
C48 C49 1.381 . S
C48 H75 0.930 . S
C49 C48 1.381 . S
C49 C51 1.381 . S
C49 C52 1.487 . S
C50 C47 1.382 . S
C50 C51 1.387 . S
C50 H76 0.930 . S
C51 C49 1.381 . S
C51 C50 1.387 . S
C51 H77 0.931 . S
C52 C49 1.487 . S
C52 C59 1.399 . S
C52 N90 1.343 1_565 S
C53 C54 1.384 . S
C53 C55 1.384 . S
C53 H78 0.931 . S
C54 C53 1.384 . S
C54 C57 1.382 . S
C55 C53 1.384 . S
C55 C56 1.381 . S
C55 H79 0.930 . S
C56 C55 1.381 . S
C56 C58 1.381 . S
C56 C59 1.487 . S
C57 C54 1.382 . S
C57 C58 1.387 . S
C57 H80 0.930 . S
C58 C56 1.381 . S
C58 C57 1.387 . S
C58 H81 0.931 . S
C59 C52 1.399 . S
C59 C56 1.487 . S
C59 N91 1.343 1_565 S
C60 C61 1.384 . S
C60 C62 1.384 . S
C60 H82 0.931 . S
C61 C60 1.384 . S
C61 C64 1.382 . S
C62 C60 1.384 . S
C62 C63 1.381 . S
C62 H83 0.930 . S
C63 C62 1.381 . S
C63 C65 1.381 . S
C63 C66 1.487 . S
C64 C61 1.382 . S
C64 C65 1.387 . S
C64 H84 0.930 . S
C65 C63 1.381 . S
C65 C64 1.387 . S
C65 H85 0.931 . S
C66 C63 1.487 . S
C66 C73 1.399 . S
C66 N91 1.343 . S
C67 C68 1.384 . S
C67 C69 1.384 . S
C67 H86 0.931 . S
C68 C67 1.384 . S
C68 C71 1.382 . S
C69 C67 1.384 . S
C69 C70 1.381 . S
C69 H87 0.930 . S
C70 C69 1.381 . S
C70 C72 1.381 . S
C70 C73 1.487 . S
C71 C68 1.382 . S
C71 C72 1.387 . S
C71 H88 0.930 . S
C72 C70 1.381 . S
C72 C71 1.387 . S
C72 H89 0.931 . S
C73 C66 1.399 . S
C73 C70 1.487 . S
C73 N90 1.343 . S
H74 C46 0.931 . S
H75 C48 0.930 . S
H76 C50 0.930 . S
H77 C51 0.931 . S
H78 C53 0.931 . S
H79 C55 0.930 . S
H80 C57 0.930 . S
H81 C58 0.931 . S
H82 C60 0.931 . S
H83 C62 0.930 . S
H84 C64 0.930 . S
H85 C65 0.931 . S
H86 C67 0.931 . S
H87 C69 0.930 . S
H88 C71 0.930 . S
H89 C72 0.931 . S
N90 C52 1.343 1_545 S
N90 C73 1.343 . S
N91 C59 1.343 1_545 S
N91 C66 1.343 . S
C92 C93 1.384 . S
C92 C94 1.384 . S
C92 H120 0.931 . S
C93 C92 1.384 . S
C93 C96 1.382 . S
C94 C92 1.384 . S
C94 C95 1.381 . S
C94 H121 0.930 . S
C95 C94 1.381 . S
C95 C97 1.381 . S
C95 C98 1.487 . S
C96 C93 1.382 . S
C96 C97 1.387 . S
C96 H122 0.930 . S
C97 C95 1.381 . S
C97 C96 1.387 . S
C97 H123 0.931 . S
C98 C95 1.487 . S
C98 C105 1.399 . S
C98 N136 1.343 . S
C99 C100 1.384 . S
C99 C101 1.384 . S
C99 H124 0.931 . S
C100 C99 1.384 . S
C100 C103 1.382 . S
C101 C99 1.384 . S
C101 C102 1.381 . S
C101 H125 0.930 . S
C102 C101 1.381 . S
C102 C104 1.381 . S
C102 C105 1.487 . S
C103 C100 1.382 . S
C103 C104 1.387 . S
C103 H126 0.930 . S
C104 C102 1.381 . S
C104 C103 1.387 . S
C104 H127 0.931 . S
C105 C98 1.399 . S
C105 C102 1.487 . S
C105 N137 1.343 . S
C106 C107 1.384 . S
C106 C108 1.384 . S
C106 H128 0.931 . S
C107 C106 1.384 . S
C107 C110 1.382 . S
C108 C106 1.384 . S
C108 C109 1.381 . S
C108 H129 0.930 . S
C109 C108 1.381 . S
C109 C111 1.381 . S
C109 C112 1.487 . S
C110 C107 1.382 . S
C110 C111 1.387 . S
C110 H130 0.930 . S
C111 C109 1.381 . S
C111 C110 1.387 . S
C111 H131 0.931 . S
C112 C109 1.487 . S
C112 C119 1.399 . S
C112 N137 1.343 . S
C113 C114 1.384 . S
C113 C115 1.384 . S
C113 H132 0.931 . S
C114 C113 1.384 . S
C114 C117 1.382 . S
C115 C113 1.384 . S
C115 C116 1.381 . S
C115 H133 0.930 . S
C116 C115 1.381 . S
C116 C118 1.381 . S
C116 C119 1.487 . S
C117 C114 1.382 . S
C117 C118 1.387 . S
C117 H134 0.930 . S
C118 C116 1.381 . S
C118 C117 1.387 . S
C118 H135 0.931 . S
C119 C112 1.399 . S
C119 C116 1.487 . S
C119 N136 1.343 . S
H120 C92 0.931 . S
H121 C94 0.930 . S
H122 C96 0.930 . S
H123 C97 0.931 . S
H124 C99 0.931 . S
H125 C101 0.930 . S
H126 C103 0.930 . S
H127 C104 0.931 . S
H128 C106 0.931 . S
H129 C108 0.930 . S
H130 C110 0.930 . S
H131 C111 0.931 . S
H132 C113 0.931 . S
H133 C115 0.930 . S
H134 C117 0.930 . S
H135 C118 0.931 . S
N136 C98 1.343 . S
N136 C119 1.343 . S
N137 C105 1.343 . S
N137 C112 1.343 . S
C138 C139 1.384 . S
C138 C140 1.384 . S
C138 H166 0.931 . S
C139 C138 1.384 . S
C139 C142 1.382 . S
C140 C138 1.384 . S
C140 C141 1.381 . S
C140 H167 0.930 . S
C141 C140 1.381 . S
C141 C143 1.381 . S
C141 C144 1.487 . S
C142 C139 1.382 . S
C142 C143 1.387 . S
C142 H168 0.930 . S
C143 C141 1.381 . S
C143 C142 1.387 . S
C143 H169 0.931 . S
C144 C141 1.487 . S
C144 C151 1.399 . S
C144 N182 1.343 . S
C145 C146 1.384 . S
C145 C147 1.384 . S
C145 H170 0.931 . S
C146 C145 1.384 . S
C146 C149 1.382 . S
C147 C145 1.384 . S
C147 C148 1.381 . S
C147 H171 0.930 . S
C148 C147 1.381 . S
C148 C150 1.381 . S
C148 C151 1.487 . S
C149 C146 1.382 . S
C149 C150 1.387 . S
C149 H172 0.930 . S
C150 C148 1.381 . S
C150 C149 1.387 . S
C150 H173 0.931 . S
C151 C144 1.399 . S
C151 C148 1.487 . S
C151 N183 1.343 1_655 S
C152 C153 1.384 . S
C152 C154 1.384 . S
C152 H174 0.931 . S
C153 C152 1.384 . S
C153 C156 1.382 . S
C154 C152 1.384 . S
C154 C155 1.381 . S
C154 H175 0.930 . S
C155 C154 1.381 . S
C155 C157 1.381 . S
C155 C158 1.487 . S
C156 C153 1.382 . S
C156 C157 1.387 . S
C156 H176 0.930 . S
C157 C155 1.381 . S
C157 C156 1.387 . S
C157 H177 0.931 . S
C158 C155 1.487 . S
C158 C165 1.399 . S
C158 N183 1.343 . S
C159 C160 1.384 . S
C159 C161 1.384 . S
C159 H178 0.931 . S
C160 C159 1.384 . S
C160 C163 1.382 . S
C161 C159 1.384 . S
C161 C162 1.381 . S
C161 H179 0.930 . S
C162 C161 1.381 . S
C162 C164 1.381 . S
C162 C165 1.487 . S
C163 C160 1.382 . S
C163 C164 1.387 . S
C163 H180 0.930 . S
C164 C162 1.381 . S
C164 C163 1.387 . S
C164 H181 0.931 . S
C165 C158 1.399 . S
C165 C162 1.487 . S
C165 N182 1.343 1_455 S
H166 C138 0.931 . S
H167 C140 0.930 . S
H168 C142 0.930 . S
H169 C143 0.931 . S
H170 C145 0.931 . S
H171 C147 0.930 . S
H172 C149 0.930 . S
H173 C150 0.931 . S
H174 C152 0.931 . S
H175 C154 0.930 . S
H176 C156 0.930 . S
H177 C157 0.931 . S
H178 C159 0.931 . S
H179 C161 0.930 . S
H180 C163 0.930 . S
H181 C164 0.931 . S
N182 C144 1.343 . S
N182 C165 1.343 1_655 S
N183 C151 1.343 1_455 S
N183 C158 1.343 . S
C184 C185 1.384 . S
C184 C186 1.384 . S
C184 H212 0.931 . S
C185 C184 1.384 . S
C185 C188 1.382 . S
C186 C184 1.384 . S
C186 C187 1.381 . S
C186 H213 0.930 1_556 S
C187 C186 1.381 . S
C187 C189 1.381 . S
C187 C190 1.487 . S
C188 C185 1.382 . S
C188 C189 1.387 . S
C188 H214 0.930 . S
C189 C187 1.381 . S
C189 C188 1.387 . S
C189 H215 0.931 . S
C190 C187 1.487 . S
C190 C197 1.399 1_556 S
C190 N228 1.343 1_565 S
C191 C192 1.384 . S
C191 C193 1.384 . S
C191 H216 0.931 . S
C192 C191 1.384 . S
C192 C195 1.382 . S
C193 C191 1.384 . S
C193 C194 1.381 . S
C193 H217 0.930 . S
C194 C193 1.381 . S
C194 C196 1.381 . S
C194 C197 1.487 . S
C195 C192 1.382 . S
C195 C196 1.387 . S
C195 H218 0.930 . S
C196 C194 1.381 . S
C196 C195 1.387 . S
C196 H219 0.932 1_565 S
C197 C190 1.399 1_554 S
C197 C194 1.487 . S
C197 N229 1.343 1_565 S
C198 C199 1.384 . S
C198 C200 1.384 1_554 S
C198 H220 0.931 . S
C199 C198 1.384 . S
C199 C202 1.382 . S
C200 C198 1.384 1_556 S
C200 C201 1.381 1_556 S
C200 H221 0.930 . S
C201 C200 1.381 1_554 S
C201 C203 1.381 . S
C201 C204 1.484 1_554 S
C202 C199 1.382 . S
C202 C203 1.387 . S
C202 H222 0.930 . S
C203 C201 1.381 . S
C203 C202 1.387 . S
C203 H223 0.931 . S
C204 C201 1.484 1_556 S
C204 C211 1.408 . S
C204 N229 1.335 1_556 S
C205 C206 1.384 . S
C205 C207 1.384 . S
C205 H224 0.931 . S
C206 C205 1.384 . S
C206 C209 1.382 . S
C207 C205 1.384 . S
C207 C208 1.381 . S
C207 H225 0.930 . S
C208 C207 1.381 . S
C208 C210 1.381 . S
C208 C211 1.487 . S
C209 C206 1.382 . S
C209 C210 1.387 . S
C209 H226 0.930 . S
C210 C208 1.381 . S
C210 C209 1.387 . S
C210 H227 0.931 . S
C211 C204 1.408 . S
C211 C208 1.487 . S
C211 N228 1.343 . S
H212 C184 0.931 . S
H213 C186 0.930 1_554 S
H214 C188 0.930 . S
H215 C189 0.931 . S
H216 C191 0.931 . S
H217 C193 0.930 . S
H218 C195 0.930 . S
H219 C196 0.932 1_545 S
H220 C198 0.931 . S
H221 C200 0.930 . S
H222 C202 0.930 . S
H223 C203 0.931 . S
H224 C205 0.931 . S
H225 C207 0.930 . S
H226 C209 0.930 . S
H227 C210 0.931 . S
N228 C190 1.343 1_545 S
N228 C211 1.343 . S
N229 C197 1.343 1_545 S
N229 C204 1.335 1_554 S
C230 C231 1.384 . S
C230 C232 1.384 . S
C230 H258 0.931 . S
C231 C230 1.384 . S
C231 C234 1.382 . S
C232 C230 1.384 . S
C232 C233 1.381 . S
C232 H259 0.930 . S
C233 C232 1.381 . S
C233 C235 1.381 . S
C233 C236 1.487 . S
C234 C231 1.382 . S
C234 C235 1.387 . S
C234 H260 0.930 . S
C235 C233 1.381 . S
C235 C234 1.387 . S
C235 H261 0.931 . S
C236 C233 1.487 . S
C236 C243 1.399 . S
C236 N274 1.343 . S
C237 C238 1.384 . S
C237 C239 1.384 . S
C237 H262 0.931 . S
C238 C237 1.384 . S
C238 C241 1.382 . S
C239 C237 1.384 . S
C239 C240 1.381 . S
C239 H263 0.930 . S
C240 C239 1.381 . S
C240 C242 1.381 . S
C240 C243 1.487 . S
C241 C238 1.382 . S
C241 C242 1.387 . S
C241 H264 0.930 . S
C242 C240 1.381 . S
C242 C241 1.387 . S
C242 H265 0.931 . S
C243 C236 1.399 . S
C243 C240 1.487 . S
C243 N275 1.343 . S
C244 C245 1.384 . S
C244 C246 1.384 . S
C244 H266 0.931 . S
C245 C244 1.384 . S
C245 C248 1.382 . S
C246 C244 1.384 . S
C246 C247 1.381 . S
C246 H267 0.930 . S
C247 C246 1.381 . S
C247 C249 1.381 . S
C247 C250 1.487 . S
C248 C245 1.382 . S
C248 C249 1.387 . S
C248 H268 0.930 . S
C249 C247 1.381 . S
C249 C248 1.387 . S
C249 H269 0.931 . S
C250 C247 1.487 . S
C250 C257 1.399 . S
C250 N275 1.343 . S
C251 C252 1.384 . S
C251 C253 1.384 . S
C251 H270 0.931 . S
C252 C251 1.384 . S
C252 C255 1.382 . S
C253 C251 1.384 . S
C253 C254 1.381 . S
C253 H271 0.930 . S
C254 C253 1.381 . S
C254 C256 1.381 . S
C254 C257 1.487 . S
C255 C252 1.382 . S
C255 C256 1.387 . S
C255 H272 0.930 . S
C256 C254 1.381 . S
C256 C255 1.387 . S
C256 H273 0.931 . S
C257 C250 1.399 . S
C257 C254 1.487 . S
C257 N274 1.343 . S
H258 C230 0.931 . S
H259 C232 0.930 . S
H260 C234 0.930 . S
H261 C235 0.931 . S
H262 C237 0.931 . S
H263 C239 0.930 . S
H264 C241 0.930 . S
H265 C242 0.931 . S
H266 C244 0.931 . S
H267 C246 0.930 . S
H268 C248 0.930 . S
H269 C249 0.931 . S
H270 C251 0.931 . S
H271 C253 0.930 . S
H272 C255 0.930 . S
H273 C256 0.931 . S
N274 C236 1.343 . S
N274 C257 1.343 . S
N275 C243 1.343 . S
N275 C250 1.343 . S
Mg276 O277 2.028 . S
Mg276 O283 1.986 . S
Mg276 O285 2.114 . S
Mg276 O286 2.251 . S
Mg276 O289 2.010 . S
O277 Mg276 2.028 . S
O277 C280 1.250 . S
O278 Mg279 2.028 . S
O278 C280 1.248 . S
Mg279 O278 2.028 . S
Mg279 O284 2.032 . S
Mg279 O286 2.079 . S
C280 O277 1.250 . S
C280 O278 1.248 . S
C281 O282 1.264 . S
C281 O289 1.249 . S
O282 C281 1.264 . S
O283 Mg276 1.986 . S
O283 C287 1.246 . S
O284 Mg279 2.032 . S
O284 C287 1.259 . S
O285 Mg276 2.114 . S
O285 C288 1.252 . S
O286 Mg276 2.251 . S
O286 Mg279 2.079 . S
O286 C288 1.273 . S
C287 O283 1.246 . S
C287 O284 1.259 . S
C288 O285 1.252 . S
C288 O286 1.273 . S
O289 Mg276 2.010 . S
O289 C281 1.249 . S
Mg290 O291 2.028 . S
Mg290 O297 1.986 . S
Mg290 O299 2.114 . S
Mg290 O300 2.251 . S
Mg290 O303 2.010 . S
O291 Mg290 2.028 . S
O291 C294 1.250 . S
O292 Mg293 2.028 . S
O292 C294 1.248 . S
Mg293 O292 2.028 . S
Mg293 O298 2.032 . S
Mg293 O300 2.079 . S
C294 O291 1.250 . S
C294 O292 1.248 . S
C295 O296 1.264 . S
C295 O303 1.249 . S
O296 C295 1.264 . S
O297 Mg290 1.986 . S
O297 C301 1.246 . S
O298 Mg293 2.032 . S
O298 C301 1.259 . S
O299 Mg290 2.114 . S
O299 C302 1.252 . S
O300 Mg290 2.251 . S
O300 Mg293 2.079 . S
O300 C302 1.273 . S
C301 O297 1.246 . S
C301 O298 1.259 . S
C302 O299 1.252 . S
C302 O300 1.273 . S
O303 Mg290 2.010 . S
O303 C295 1.249 . S
Mg304 O305 2.028 . S
Mg304 O311 1.986 . S
Mg304 O313 2.114 . S
Mg304 O314 2.251 . S
Mg304 O317 2.010 . S
O305 Mg304 2.028 . S
O305 C308 1.250 . S
O306 Mg307 2.028 . S
O306 C308 1.248 . S
Mg307 O306 2.028 . S
Mg307 O312 2.032 . S
Mg307 O314 2.079 . S
C308 O305 1.250 . S
C308 O306 1.248 . S
C309 O310 1.264 . S
C309 O317 1.249 . S
O310 C309 1.264 . S
O311 Mg304 1.986 . S
O311 C315 1.246 . S
O312 Mg307 2.032 . S
O312 C315 1.259 . S
O313 Mg304 2.114 . S
O313 C316 1.252 . S
O314 Mg304 2.251 . S
O314 Mg307 2.079 . S
O314 C316 1.273 . S
C315 O311 1.246 . S
C315 O312 1.259 . S
C316 O313 1.252 . S
C316 O314 1.273 . S
O317 Mg304 2.010 . S
O317 C309 1.249 . S
Mg318 O319 2.028 . S
Mg318 O325 1.986 . S
Mg318 O327 2.114 . S
Mg318 O328 2.251 . S
Mg318 O331 2.010 . S
O319 Mg318 2.028 . S
O319 C322 1.250 . S
O320 Mg321 2.028 . S
O320 C322 1.248 . S
Mg321 O320 2.028 . S
Mg321 O326 2.032 . S
Mg321 O328 2.079 . S
C322 O319 1.250 . S
C322 O320 1.248 . S
C323 O324 1.264 . S
C323 O331 1.249 . S
O324 C323 1.264 . S
O325 Mg318 1.986 . S
O325 C329 1.246 . S
O326 Mg321 2.032 . S
O326 C329 1.259 . S
O327 Mg318 2.114 . S
O327 C330 1.252 . S
O328 Mg318 2.251 . S
O328 Mg321 2.079 . S
O328 C330 1.273 . S
C329 O325 1.246 . S
C329 O326 1.259 . S
C330 O327 1.252 . S
C330 O328 1.273 . S
O331 Mg318 2.010 . S
O331 C323 1.249 . S
Mg332 O333 2.028 . S
Mg332 O339 1.986 . S
Mg332 O341 2.114 . S
Mg332 O342 2.251 . S
Mg332 O345 2.010 . S
O333 Mg332 2.028 . S
O333 C336 1.250 . S
O334 Mg335 2.028 . S
O334 C336 1.248 . S
Mg335 O334 2.028 . S
Mg335 O340 2.032 . S
Mg335 O342 2.079 . S
C336 O333 1.250 . S
C336 O334 1.248 . S
C337 O338 1.264 . S
C337 O345 1.249 . S
O338 C337 1.264 . S
O339 Mg332 1.986 . S
O339 C343 1.246 . S
O340 Mg335 2.032 . S
O340 C343 1.259 . S
O341 Mg332 2.114 . S
O341 C344 1.252 . S
O342 Mg332 2.251 . S
O342 Mg335 2.079 . S
O342 C344 1.273 . S
C343 O339 1.246 . S
C343 O340 1.259 . S
C344 O341 1.252 . S
C344 O342 1.273 . S
O345 Mg332 2.010 . S
O345 C337 1.249 . S
Mg346 O347 2.028 . S
Mg346 O353 1.986 . S
Mg346 O355 2.114 . S
Mg346 O356 2.251 . S
Mg346 O359 2.010 . S
O347 Mg346 2.028 . S
O347 C350 1.250 . S
O348 Mg349 2.028 . S
O348 C350 1.248 . S
Mg349 O348 2.028 . S
Mg349 O354 2.032 . S
Mg349 O356 2.079 . S
C350 O347 1.250 . S
C350 O348 1.248 . S
C351 O352 1.264 . S
C351 O359 1.249 . S
O352 C351 1.264 . S
O353 Mg346 1.986 . S
O353 C357 1.246 . S
O354 Mg349 2.032 . S
O354 C357 1.259 . S
O355 Mg346 2.114 . S
O355 C358 1.252 . S
O356 Mg346 2.251 . S
O356 Mg349 2.079 . S
O356 C358 1.273 . S
C357 O353 1.246 . S
C357 O354 1.259 . S
C358 O355 1.252 . S
C358 O356 1.273 . S
O359 Mg346 2.010 . S
O359 C351 1.249 . S
C360 C361 1.369 . S
C360 C362 1.419 . S
C360 H364 0.930 . S
C361 C360 1.369 . S
C361 C370 1.429 . S
C362 C360 1.419 . S
C362 C363 1.363 . S
C362 H365 0.929 . S
C363 C362 1.363 . S
C363 C369 1.428 . S
H364 C360 0.930 . S
H365 C362 0.929 . S
S366 N367 1.613 . S
S366 N368 1.610 . S
N367 S366 1.613 . S
N367 C370 1.350 . S
N368 S366 1.610 . S
N368 C369 1.351 . S
C369 C363 1.428 . S
C369 N368 1.351 . S
C369 C370 1.434 . S
C370 C361 1.429 . S
C370 N367 1.350 . S
C370 C369 1.434 . S
C371 C372 1.369 . S
C371 C373 1.419 . S
C371 H375 0.930 . S
C372 C371 1.369 . S
C372 C381 1.429 . S
C373 C371 1.419 . S
C373 C374 1.363 . S
C373 H376 0.929 . S
C374 C373 1.363 . S
C374 C380 1.428 . S
H375 C371 0.930 . S
H376 C373 0.929 . S
S377 N378 1.613 . S
S377 N379 1.610 . S
N378 S377 1.613 . S
N378 C381 1.350 . S
N379 S377 1.610 . S
N379 C380 1.351 . S
C380 C374 1.428 . S
C380 N379 1.351 . S
C380 C381 1.434 . S
C381 C372 1.429 . S
C381 N378 1.350 . S
C381 C380 1.434 . S
C382 C383 1.369 . S
C382 C384 1.419 . S
C382 H386 0.930 . S
C383 C382 1.369 . S
C383 C392 1.429 . S
C384 C382 1.419 . S
C384 C385 1.363 . S
C384 H387 0.929 . S
C385 C384 1.363 . S
C385 C391 1.428 . S
H386 C382 0.930 . S
H387 C384 0.929 . S
S388 N389 1.613 . S
S388 N390 1.610 . S
N389 S388 1.613 . S
N389 C392 1.350 . S
N390 S388 1.610 . S
N390 C391 1.351 . S
C391 C385 1.428 . S
C391 N390 1.351 . S
C391 C392 1.434 . S
C392 C383 1.429 . S
C392 N389 1.350 . S
C392 C391 1.434 . S
C393 C394 1.369 . S
C393 C395 1.419 . S
C393 H397 0.930 . S
C394 C393 1.369 . S
C394 C403 1.429 . S
C395 C393 1.419 . S
C395 C396 1.363 . S
C395 H398 0.929 . S
C396 C395 1.363 . S
C396 C402 1.428 . S
H397 C393 0.930 . S
H398 C395 0.929 . S
S399 N400 1.613 . S
S399 N401 1.610 . S
N400 S399 1.613 . S
N400 C403 1.350 . S
N401 S399 1.610 . S
N401 C402 1.351 . S
C402 C396 1.428 . S
C402 N401 1.351 . S
C402 C403 1.434 . S
C403 C394 1.429 . S
C403 N400 1.350 . S
C403 C402 1.434 . S
C404 C405 1.369 . S
C404 C406 1.419 . S
C404 H408 0.930 . S
C405 C404 1.369 . S
C405 C414 1.429 . S
C406 C404 1.419 . S
C406 C407 1.363 . S
C406 H409 0.929 . S
C407 C406 1.363 . S
C407 C413 1.428 . S
H408 C404 0.930 . S
H409 C406 0.929 . S
S410 N411 1.613 . S
S410 N412 1.610 . S
N411 S410 1.613 . S
N411 C414 1.350 . S
N412 S410 1.610 . S
N412 C413 1.351 . S
C413 C407 1.428 . S
C413 N412 1.351 . S
C413 C414 1.434 . S
C414 C405 1.429 . S
C414 N411 1.350 . S
C414 C413 1.434 . S
C415 C416 1.369 . S
C415 C417 1.419 . S
C415 H419 0.930 . S
C416 C415 1.369 . S
C416 C425 1.429 . S
C417 C415 1.419 . S
C417 C418 1.363 . S
C417 H420 0.929 . S
C418 C417 1.363 . S
C418 C424 1.428 . S
H419 C415 0.930 . S
H420 C417 0.929 . S
S421 N422 1.613 . S
S421 N423 1.610 . S
N422 S421 1.613 . S
N422 C425 1.350 . S
N423 S421 1.610 . S
N423 C424 1.351 . S
C424 C418 1.428 . S
C424 N423 1.351 . S
C424 C425 1.434 . S
C425 C416 1.429 . S
C425 N422 1.350 . S
C425 C424 1.434 . S
C426 C427 1.369 . S
C426 C428 1.419 . S
C426 H430 0.930 . S
C427 C426 1.369 . S
C427 C436 1.429 . S
C428 C426 1.419 . S
C428 C429 1.363 . S
C428 H431 0.929 . S
C429 C428 1.363 . S
C429 C435 1.428 . S
H430 C426 0.930 . S
H431 C428 0.929 . S
S432 N433 1.613 . S
S432 N434 1.610 . S
N433 S432 1.613 . S
N433 C436 1.350 . S
N434 S432 1.610 . S
N434 C435 1.351 . S
C435 C429 1.428 . S
C435 N434 1.351 . S
C435 C436 1.434 . S
C436 C427 1.429 . S
C436 N433 1.350 . S
C436 C435 1.434 . S
C437 C438 1.369 . S
C437 C439 1.419 . S
C437 H441 0.930 . S
C438 C437 1.369 . S
C438 C447 1.429 . S
C439 C437 1.419 . S
C439 C440 1.363 . S
C439 H442 0.929 . S
C440 C439 1.363 . S
C440 C446 1.428 . S
H441 C437 0.930 . S
H442 C439 0.929 . S
S443 N444 1.613 . S
S443 N445 1.610 . S
N444 S443 1.613 . S
N444 C447 1.350 . S
N445 S443 1.610 . S
N445 C446 1.351 . S
C446 C440 1.428 . S
C446 N445 1.351 . S
C446 C447 1.434 . S
C447 C438 1.429 . S
C447 N444 1.350 . S
C447 C446 1.434 . S
C448 C449 1.369 . S
C448 C450 1.419 . S
C448 H452 0.930 . S
C449 C448 1.369 . S
C449 C458 1.429 . S
C450 C448 1.419 . S
C450 C451 1.363 . S
C450 H453 0.929 . S
C451 C450 1.363 . S
C451 C457 1.428 . S
H452 C448 0.930 . S
H453 C450 0.929 . S
S454 N455 1.613 . S
S454 N456 1.610 . S
N455 S454 1.613 . S
N455 C458 1.350 . S
N456 S454 1.610 . S
N456 C457 1.351 . S
C457 C451 1.428 . S
C457 N456 1.351 . S
C457 C458 1.434 . S
C458 C449 1.429 . S
C458 N455 1.350 . S
C458 C457 1.434 . S
C459 C460 1.369 . S
C459 C461 1.419 . S
C459 H463 0.930 . S
C460 C459 1.369 . S
C460 C469 1.429 . S
C461 C459 1.419 . S
C461 C462 1.363 . S
C461 H464 0.929 . S
C462 C461 1.363 . S
C462 C468 1.428 . S
H463 C459 0.930 . S
H464 C461 0.929 . S
S465 N466 1.613 . S
S465 N467 1.610 . S
N466 S465 1.613 . S
N466 C469 1.350 . S
N467 S465 1.610 . S
N467 C468 1.351 . S
C468 C462 1.428 . S
C468 N467 1.351 . S
C468 C469 1.434 . S
C469 C460 1.429 . S
C469 N466 1.350 . S
C469 C468 1.434 . S
C470 C471 1.369 . S
C470 C472 1.419 . S
C470 H474 0.930 . S
C471 C470 1.369 . S
C471 C480 1.429 . S
C472 C470 1.419 . S
C472 C473 1.363 . S
C472 H475 0.929 . S
C473 C472 1.363 . S
C473 C479 1.428 . S
H474 C470 0.930 . S
H475 C472 0.929 . S
S476 N477 1.613 . S
S476 N478 1.610 . S
N477 S476 1.613 . S
N477 C480 1.350 . S
N478 S476 1.610 . S
N478 C479 1.351 . S
C479 C473 1.428 . S
C479 N478 1.351 . S
C479 C480 1.434 . S
C480 C471 1.429 . S
C480 N477 1.350 . S
C480 C479 1.434 . S
C481 C482 1.369 . S
C481 C483 1.419 . S
C481 H485 0.930 . S
C482 C481 1.369 . S
C482 C491 1.429 . S
C483 C481 1.419 . S
C483 C484 1.363 . S
C483 H486 0.929 . S
C484 C483 1.363 . S
C484 C490 1.428 . S
H485 C481 0.930 . S
H486 C483 0.929 . S
S487 N488 1.613 . S
S487 N489 1.610 . S
N488 S487 1.613 . S
N488 C491 1.350 . S
N489 S487 1.610 . S
N489 C490 1.351 . S
C490 C484 1.428 . S
C490 N489 1.351 . S
C490 C491 1.434 . S
C491 C482 1.429 . S
C491 N488 1.350 . S
C491 C490 1.434 . S
C492 C493 1.369 . S
C492 C494 1.419 . S
C492 H496 0.930 . S
C493 C492 1.369 . S
C493 C502 1.429 . S
C494 C492 1.419 . S
C494 C495 1.363 . S
C494 H497 0.929 . S
C495 C494 1.363 . S
C495 C501 1.428 . S
H496 C492 0.930 . S
H497 C494 0.929 . S
S498 N499 1.613 . S
S498 N500 1.610 . S
N499 S498 1.613 . S
N499 C502 1.350 . S
N500 S498 1.610 . S
N500 C501 1.351 . S
C501 C495 1.428 . S
C501 N500 1.351 . S
C501 C502 1.434 . S
C502 C493 1.429 . S
C502 N499 1.350 . S
C502 C501 1.434 . S
C503 C504 1.369 . S
C503 C505 1.419 . S
C503 H507 0.930 . S
C504 C503 1.369 . S
C504 C513 1.429 . S
C505 C503 1.419 . S
C505 C506 1.363 . S
C505 H508 0.929 . S
C506 C505 1.363 . S
C506 C512 1.428 . S
H507 C503 0.930 . S
H508 C505 0.929 . S
S509 N510 1.613 . S
S509 N511 1.610 . S
N510 S509 1.613 . S
N510 C513 1.350 . S
N511 S509 1.610 . S
N511 C512 1.351 . S
C512 C506 1.428 . S
C512 N511 1.351 . S
C512 C513 1.434 . S
C513 C504 1.429 . S
C513 N510 1.350 . S
C513 C512 1.434 . S
C514 C515 1.369 . S
C514 C516 1.419 . S
C514 H518 0.930 . S
C515 C514 1.369 . S
C515 C524 1.429 . S
C516 C514 1.419 . S
C516 C517 1.363 . S
C516 H519 0.929 . S
C517 C516 1.363 . S
C517 C523 1.428 . S
H518 C514 0.930 . S
H519 C516 0.929 . S
S520 N521 1.613 . S
S520 N522 1.610 . S
N521 S520 1.613 . S
N521 C524 1.350 . S
N522 S520 1.610 . S
N522 C523 1.351 . S
C523 C517 1.428 . S
C523 N522 1.351 . S
C523 C524 1.434 . S
C524 C515 1.429 . S
C524 N521 1.350 . S
C524 C523 1.434 . S
C525 C526 1.369 . S
C525 C527 1.419 . S
C525 H529 0.930 . S
C526 C525 1.369 . S
C526 C535 1.429 . S
C527 C525 1.419 . S
C527 C528 1.363 1_556 S
C527 H530 0.929 . S
C528 C527 1.363 1_554 S
C528 C534 1.428 . S
H529 C525 0.930 . S
H530 C527 0.929 . S
S531 N532 1.613 1_554 S
S531 N533 1.610 . S
N532 S531 1.613 1_556 S
N532 C535 1.350 . S
N533 S531 1.610 . S
N533 C534 1.351 . S
C534 C528 1.428 . S
C534 N533 1.351 . S
C534 C535 1.434 1_554 S
C535 C526 1.429 . S
C535 N532 1.350 . S
C535 C534 1.434 1_556 S
C536 C537 1.369 . S
C536 C538 1.419 . S
C536 H540 0.930 . S
C537 C536 1.369 . S
C537 C546 1.429 . S
C538 C536 1.419 . S
C538 C539 1.363 . S
C538 H541 0.929 . S
C539 C538 1.363 . S
C539 C545 1.428 . S
H540 C536 0.930 . S
H541 C538 0.929 . S
S542 N543 1.613 . S
S542 N544 1.610 . S
N543 S542 1.613 . S
N543 C546 1.350 . S
N544 S542 1.610 . S
N544 C545 1.351 . S
C545 C539 1.428 . S
C545 N544 1.351 . S
C545 C546 1.434 . S
C546 C537 1.429 . S
C546 N543 1.350 . S
C546 C545 1.434 . S
C547 C548 1.369 . S
C547 C549 1.419 . S
C547 H551 0.930 . S
C548 C547 1.369 . S
C548 C557 1.429 . S
C549 C547 1.419 . S
C549 C550 1.363 . S
C549 H552 0.929 . S
C550 C549 1.363 . S
C550 C556 1.428 . S
H551 C547 0.930 . S
H552 C549 0.929 . S
S553 N554 1.613 . S
S553 N555 1.610 . S
N554 S553 1.613 . S
N554 C557 1.350 . S
N555 S553 1.610 . S
N555 C556 1.351 . S
C556 C550 1.428 . S
C556 N555 1.351 . S
C556 C557 1.434 . S
C557 C548 1.429 . S
C557 N554 1.350 . S
C557 C556 1.434 . S
C558 C559 1.369 . S
C558 C560 1.419 . S
C558 H562 0.930 . S
C559 C558 1.369 . S
C559 C568 1.429 . S
C560 C558 1.419 . S
C560 C561 1.363 . S
C560 H563 0.929 . S
C561 C560 1.363 . S
C561 C567 1.428 . S
H562 C558 0.930 . S
H563 C560 0.929 . S
S564 N565 1.613 . S
S564 N566 1.610 . S
N565 S564 1.613 . S
N565 C568 1.350 . S
N566 S564 1.610 . S
N566 C567 1.351 . S
C567 C561 1.428 . S
C567 N566 1.351 . S
C567 C568 1.434 . S
C568 C559 1.429 . S
C568 N565 1.350 . S
C568 C567 1.434 . S
C569 C570 1.369 . S
C569 C571 1.419 . S
C569 H573 0.930 . S
C570 C569 1.369 . S
C570 C579 1.429 . S
C571 C569 1.419 . S
C571 C572 1.363 . S
C571 H574 0.929 . S
C572 C571 1.363 . S
C572 C578 1.428 . S
H573 C569 0.930 . S
H574 C571 0.929 . S
S575 N576 1.613 . S
S575 N577 1.610 . S
N576 S575 1.613 . S
N576 C579 1.350 . S
N577 S575 1.610 . S
N577 C578 1.351 . S
C578 C572 1.428 . S
C578 N577 1.351 . S
C578 C579 1.434 . S
C579 C570 1.429 . S
C579 N576 1.350 . S
C579 C578 1.434 . S
C580 C581 1.369 . S
C580 C582 1.419 . S
C580 H584 0.930 . S
C581 C580 1.369 . S
C581 C590 1.429 . S
C582 C580 1.419 . S
C582 C583 1.363 . S
C582 H585 0.929 . S
C583 C582 1.363 . S
C583 C589 1.428 . S
H584 C580 0.930 . S
H585 C582 0.929 . S
S586 N587 1.613 . S
S586 N588 1.610 . S
N587 S586 1.613 . S
N587 C590 1.350 . S
N588 S586 1.610 . S
N588 C589 1.351 . S
C589 C583 1.428 . S
C589 N588 1.351 . S
C589 C590 1.434 . S
C590 C581 1.429 . S
C590 N587 1.350 . S
C590 C589 1.434 . S
C591 C592 1.369 . S
C591 C593 1.419 . S
C591 H595 0.930 . S
C592 C591 1.369 . S
C592 C601 1.429 . S
C593 C591 1.419 . S
C593 C594 1.363 . S
C593 H596 0.929 . S
C594 C593 1.363 . S
C594 C600 1.428 . S
H595 C591 0.930 . S
H596 C593 0.929 . S
S597 N598 1.613 . S
S597 N599 1.610 . S
N598 S597 1.613 . S
N598 C601 1.350 . S
N599 S597 1.610 . S
N599 C600 1.351 . S
C600 C594 1.428 . S
C600 N599 1.351 . S
C600 C601 1.434 . S
C601 C592 1.429 . S
C601 N598 1.350 . S
C601 C600 1.434 . S
C602 C603 1.369 . S
C602 C604 1.399 1_554 S
C602 H606 0.930 . S
C603 C602 1.369 . S
C603 C612 1.429 1_554 S
C604 C602 1.399 1_556 S
C604 C605 1.387 . S
C604 H607 0.925 1_556 S
C605 C604 1.387 . S
C605 C611 1.428 . S
H606 C602 0.930 . S
H607 C604 0.925 1_554 S
S608 N609 1.613 . S
S608 N610 1.610 . S
N609 S608 1.613 . S
N609 C612 1.350 . S
N610 S608 1.610 . S
N610 C611 1.351 . S
C611 C605 1.428 . S
C611 N610 1.351 . S
C611 C612 1.434 . S
C612 C603 1.429 1_556 S
C612 N609 1.350 . S
C612 C611 1.434 . S
C613 C614 1.369 . S
C613 C615 1.419 . S
C613 H617 0.930 . S
C614 C613 1.369 . S
C614 C623 1.429 . S
C615 C613 1.419 . S
C615 C616 1.363 . S
C615 H618 0.929 . S
C616 C615 1.363 . S
C616 C622 1.428 . S
H617 C613 0.930 . S
H618 C615 0.929 . S
S619 N620 1.613 . S
S619 N621 1.610 . S
N620 S619 1.613 . S
N620 C623 1.350 . S
N621 S619 1.610 . S
N621 C622 1.351 . S
C622 C616 1.428 . S
C622 N621 1.351 . S
C622 C623 1.434 . S
C623 C614 1.429 . S
C623 N620 1.350 . S
C623 C622 1.434 . S
C363 C351 1.323 . S
C361 C15 1.568 . S
C372 C61 1.599 . S
C374 C281 1.342 . S
C383 C114 1.576 . S
C385 C301 1.644 . S
C394 C139 1.547 . S
C396 C315 1.580 . S
C407 C323 1.279 . S
C405 C185 1.573 . S
C416 C245 1.558 . S
C418 C337 1.282 . S
C427 C47 1.612 . S
C429 C295 1.325 . S
C438 C100 1.567 . S
C440 C309 1.302 . S
C449 C153 1.518 . S
C451 C329 1.571 . S
C462 C343 1.621 . S
C460 C199 1.558 . S
C473 C357 1.624 . S
C471 C231 1.582 . S
C484 C287 1.640 . S
C482 C1 1.596 . S
C493 C22 1.465 . S
C495 C294 1.451 . S
C504 C68 1.471 . S
C506 C308 1.452 . S
C517 C330 1.468 . S
C515 C107 1.470 . S
C526 C146 1.482 . S
C528 C344 1.478 . S
C539 C358 1.444 . S
C537 C192 1.445 . S
C550 C288 1.439 . S
C548 C252 1.432 . S
C561 C350 1.438 . S
C559 C54 1.463 . S
C570 C93 1.466 . S
C572 C280 1.448 . S
C583 C302 1.468 . S
C581 C160 1.461 . S
C592 C206 1.466 . S
C594 C316 1.467 . S
C603 C238 1.506 . S
C605 C322 1.486 . S
C614 C8 1.491 . S
C616 C336 1.475 . S
