# Generated by pormake.
# Topology ptr, (4,4)-cn, num edge types: 1
# Building blocks:
#     Node 0, Type 0, BuildingBlock: QUQFOY_clean_sbu_1, # of connection points: 4
#     Node 1, Type 0, BuildingBlock: QUQFOY_clean_sbu_1, # of connection points: 4
#     Node 2, Type 0, BuildingBlock: QUQFOY_clean_sbu_1, # of connection points: 4
#     Node 3, Type 0, BuildingBlock: QUQFOY_clean_sbu_1, # of connection points: 4
#     Node 4, Type 0, BuildingBlock: QUQFOY_clean_sbu_1, # of connection points: 4
#     Node 5, Type 0, BuildingBlock: QUQFOY_clean_sbu_1, # of connection points: 4
#     Node 6, Type 0, BuildingBlock: QUQFOY_clean_sbu_1, # of connection points: 4
#     Node 7, Type 0, BuildingBlock: QUQFOY_clean_sbu_1, # of connection points: 4
#     Node 8, Type 0, BuildingBlock: QUQFOY_clean_sbu_1, # of connection points: 4
#     Node 9, Type 0, BuildingBlock: QUQFOY_clean_sbu_1, # of connection points: 4
#     Node 10, Type 0, BuildingBlock: QUQFOY_clean_sbu_1, # of connection points: 4
#     Node 11, Type 0, BuildingBlock: QUQFOY_clean_sbu_1, # of connection points: 4
#     Node 12, Type 0, BuildingBlock: QUQFOY_clean_sbu_1, # of connection points: 4
#     Node 13, Type 0, BuildingBlock: QUQFOY_clean_sbu_1, # of connection points: 4
#     Node 14, Type 0, BuildingBlock: QUQFOY_clean_sbu_1, # of connection points: 4
#     Node 15, Type 0, BuildingBlock: QUQFOY_clean_sbu_1, # of connection points: 4
#     Node 16, Type 0, BuildingBlock: QUQFOY_clean_sbu_1, # of connection points: 4
#     Node 17, Type 0, BuildingBlock: QUQFOY_clean_sbu_1, # of connection points: 4
#     Node 18, Type 1, BuildingBlock: NAHDIM_clean_linker_0, # of connection points: 4
#     Node 19, Type 1, BuildingBlock: NAHDIM_clean_linker_0, # of connection points: 4
#     Node 20, Type 1, BuildingBlock: NAHDIM_clean_linker_0, # of connection points: 4
#     Node 21, Type 1, BuildingBlock: NAHDIM_clean_linker_0, # of connection points: 4
#     Node 22, Type 1, BuildingBlock: NAHDIM_clean_linker_0, # of connection points: 4
#     Node 23, Type 1, BuildingBlock: NAHDIM_clean_linker_0, # of connection points: 4
#     Node 24, Type 1, BuildingBlock: NAHDIM_clean_linker_0, # of connection points: 4
#     Node 25, Type 1, BuildingBlock: NAHDIM_clean_linker_0, # of connection points: 4
#     Node 26, Type 1, BuildingBlock: NAHDIM_clean_linker_0, # of connection points: 4
#     Node 27, Type 1, BuildingBlock: NAHDIM_clean_linker_0, # of connection points: 4
#     Node 28, Type 1, BuildingBlock: NAHDIM_clean_linker_0, # of connection points: 4
#     Node 29, Type 1, BuildingBlock: NAHDIM_clean_linker_0, # of connection points: 4
#     Node 30, Type 1, BuildingBlock: NAHDIM_clean_linker_0, # of connection points: 4
#     Node 31, Type 1, BuildingBlock: NAHDIM_clean_linker_0, # of connection points: 4
#     Node 32, Type 1, BuildingBlock: NAHDIM_clean_linker_0, # of connection points: 4
#     Node 33, Type 1, BuildingBlock: NAHDIM_clean_linker_0, # of connection points: 4
#     Node 34, Type 1, BuildingBlock: NAHDIM_clean_linker_0, # of connection points: 4
#     Node 35, Type 1, BuildingBlock: NAHDIM_clean_linker_0, # of connection points: 4
#     Edge 36, Type (0, 1), BuildingBlock: AJUNOK_clean_linker_0, # of connection points: 2
#     Edge 37, Type (0, 1), BuildingBlock: AJUNOK_clean_linker_0, # of connection points: 2
#     Edge 38, Type (0, 1), BuildingBlock: AJUNOK_clean_linker_0, # of connection points: 2
#     Edge 39, Type (0, 1), BuildingBlock: AJUNOK_clean_linker_0, # of connection points: 2
#     Edge 40, Type (0, 1), BuildingBlock: AJUNOK_clean_linker_0, # of connection points: 2
#     Edge 41, Type (0, 1), BuildingBlock: AJUNOK_clean_linker_0, # of connection points: 2
#     Edge 42, Type (0, 1), BuildingBlock: AJUNOK_clean_linker_0, # of connection points: 2
#     Edge 43, Type (0, 1), BuildingBlock: AJUNOK_clean_linker_0, # of connection points: 2
#     Edge 44, Type (0, 1), BuildingBlock: AJUNOK_clean_linker_0, # of connection points: 2
#     Edge 45, Type (0, 1), BuildingBlock: AJUNOK_clean_linker_0, # of connection points: 2
#     Edge 46, Type (0, 1), BuildingBlock: AJUNOK_clean_linker_0, # of connection points: 2
#     Edge 47, Type (0, 1), BuildingBlock: AJUNOK_clean_linker_0, # of connection points: 2
#     Edge 48, Type (0, 1), BuildingBlock: AJUNOK_clean_linker_0, # of connection points: 2
#     Edge 49, Type (0, 1), BuildingBlock: AJUNOK_clean_linker_0, # of connection points: 2
#     Edge 50, Type (0, 1), BuildingBlock: AJUNOK_clean_linker_0, # of connection points: 2
#     Edge 51, Type (0, 1), BuildingBlock: AJUNOK_clean_linker_0, # of connection points: 2
#     Edge 52, Type (0, 1), BuildingBlock: AJUNOK_clean_linker_0, # of connection points: 2
#     Edge 53, Type (0, 1), BuildingBlock: AJUNOK_clean_linker_0, # of connection points: 2
#     Edge 54, Type (0, 1), BuildingBlock: AJUNOK_clean_linker_0, # of connection points: 2
#     Edge 55, Type (0, 1), BuildingBlock: AJUNOK_clean_linker_0, # of connection points: 2
#     Edge 56, Type (0, 1), BuildingBlock: AJUNOK_clean_linker_0, # of connection points: 2
#     Edge 57, Type (0, 1), BuildingBlock: AJUNOK_clean_linker_0, # of connection points: 2
#     Edge 58, Type (0, 1), BuildingBlock: AJUNOK_clean_linker_0, # of connection points: 2
#     Edge 59, Type (0, 1), BuildingBlock: AJUNOK_clean_linker_0, # of connection points: 2
#     Edge 60, Type (0, 1), BuildingBlock: AJUNOK_clean_linker_0, # of connection points: 2
#     Edge 61, Type (0, 1), BuildingBlock: AJUNOK_clean_linker_0, # of connection points: 2
#     Edge 62, Type (0, 1), BuildingBlock: AJUNOK_clean_linker_0, # of connection points: 2
#     Edge 63, Type (0, 1), BuildingBlock: AJUNOK_clean_linker_0, # of connection points: 2
#     Edge 64, Type (0, 1), BuildingBlock: AJUNOK_clean_linker_0, # of connection points: 2
#     Edge 65, Type (0, 1), BuildingBlock: AJUNOK_clean_linker_0, # of connection points: 2
#     Edge 66, Type (0, 1), BuildingBlock: AJUNOK_clean_linker_0, # of connection points: 2
#     Edge 67, Type (0, 1), BuildingBlock: AJUNOK_clean_linker_0, # of connection points: 2
#     Edge 68, Type (0, 1), BuildingBlock: AJUNOK_clean_linker_0, # of connection points: 2
#     Edge 69, Type (0, 1), BuildingBlock: AJUNOK_clean_linker_0, # of connection points: 2
#     Edge 70, Type (0, 1), BuildingBlock: AJUNOK_clean_linker_0, # of connection points: 2
#     Edge 71, Type (0, 1), BuildingBlock: AJUNOK_clean_linker_0, # of connection points: 2
#     Edge 72, Type (0, 1), BuildingBlock: AJUNOK_clean_linker_0, # of connection points: 2
#     Edge 73, Type (0, 1), BuildingBlock: AJUNOK_clean_linker_0, # of connection points: 2
#     Edge 74, Type (0, 1), BuildingBlock: AJUNOK_clean_linker_0, # of connection points: 2
#     Edge 75, Type (0, 1), BuildingBlock: AJUNOK_clean_linker_0, # of connection points: 2
#     Edge 76, Type (0, 1), BuildingBlock: AJUNOK_clean_linker_0, # of connection points: 2
#     Edge 77, Type (0, 1), BuildingBlock: AJUNOK_clean_linker_0, # of connection points: 2
#     Edge 78, Type (0, 1), BuildingBlock: AJUNOK_clean_linker_0, # of connection points: 2
#     Edge 79, Type (0, 1), BuildingBlock: AJUNOK_clean_linker_0, # of connection points: 2
#     Edge 80, Type (0, 1), BuildingBlock: AJUNOK_clean_linker_0, # of connection points: 2
#     Edge 81, Type (0, 1), BuildingBlock: AJUNOK_clean_linker_0, # of connection points: 2
#     Edge 82, Type (0, 1), BuildingBlock: AJUNOK_clean_linker_0, # of connection points: 2
#     Edge 83, Type (0, 1), BuildingBlock: AJUNOK_clean_linker_0, # of connection points: 2
#     Edge 84, Type (0, 1), BuildingBlock: AJUNOK_clean_linker_0, # of connection points: 2
#     Edge 85, Type (0, 1), BuildingBlock: AJUNOK_clean_linker_0, # of connection points: 2
#     Edge 86, Type (0, 1), BuildingBlock: AJUNOK_clean_linker_0, # of connection points: 2
#     Edge 87, Type (0, 1), BuildingBlock: AJUNOK_clean_linker_0, # of connection points: 2
#     Edge 88, Type (0, 1), BuildingBlock: AJUNOK_clean_linker_0, # of connection points: 2
#     Edge 89, Type (0, 1), BuildingBlock: AJUNOK_clean_linker_0, # of connection points: 2
#     Edge 90, Type (0, 1), BuildingBlock: AJUNOK_clean_linker_0, # of connection points: 2
#     Edge 91, Type (0, 1), BuildingBlock: AJUNOK_clean_linker_0, # of connection points: 2
#     Edge 92, Type (0, 1), BuildingBlock: AJUNOK_clean_linker_0, # of connection points: 2
#     Edge 93, Type (0, 1), BuildingBlock: AJUNOK_clean_linker_0, # of connection points: 2
#     Edge 94, Type (0, 1), BuildingBlock: AJUNOK_clean_linker_0, # of connection points: 2
#     Edge 95, Type (0, 1), BuildingBlock: AJUNOK_clean_linker_0, # of connection points: 2
#     Edge 96, Type (0, 1), BuildingBlock: AJUNOK_clean_linker_0, # of connection points: 2
#     Edge 97, Type (0, 1), BuildingBlock: AJUNOK_clean_linker_0, # of connection points: 2
#     Edge 98, Type (0, 1), BuildingBlock: AJUNOK_clean_linker_0, # of connection points: 2
#     Edge 99, Type (0, 1), BuildingBlock: AJUNOK_clean_linker_0, # of connection points: 2
#     Edge 100, Type (0, 1), BuildingBlock: AJUNOK_clean_linker_0, # of connection points: 2
#     Edge 101, Type (0, 1), BuildingBlock: AJUNOK_clean_linker_0, # of connection points: 2
#     Edge 102, Type (0, 1), BuildingBlock: AJUNOK_clean_linker_0, # of connection points: 2
#     Edge 103, Type (0, 1), BuildingBlock: AJUNOK_clean_linker_0, # of connection points: 2
#     Edge 104, Type (0, 1), BuildingBlock: AJUNOK_clean_linker_0, # of connection points: 2
#     Edge 105, Type (0, 1), BuildingBlock: AJUNOK_clean_linker_0, # of connection points: 2
#     Edge 106, Type (0, 1), BuildingBlock: AJUNOK_clean_linker_0, # of connection points: 2
#     Edge 107, Type (0, 1), BuildingBlock: AJUNOK_clean_linker_0, # of connection points: 2
# Relax obj value: 0.009
# Max RMSD: 0.099
# Mean RMSD: 0.054
data_MOF--net-ptr--node1-QUQFOY_clean_sbu_1--node2-NAHDIM_clean_linker_0--edge1-AJUNOK_clean_linker_0
_symmetry_space_group_name_H-M    P1
_symmetry_Int_Tables_number       1
_symmetry_cell_setting            triclinic
loop_
_symmetry_equiv_pos_as_xyz
'x, y, z'
_cell_length_a     78.729465
_cell_length_b     78.314466
_cell_length_c     67.033279
_cell_angle_alpha  91.000266
_cell_angle_beta   90.397498
_cell_angle_gamma 119.92396
loop_
_atom_site_label
_atom_site_type_symbol
_atom_site_fract_x
_atom_site_fract_y
_atom_site_fract_z
_atom_type_partial_charge
O0 O 0.00632 0.3638 0.0375 0.0
Cd1 Cd 0.01974 0.35507 0.01671 0.0
Cd2 Cd 0.98333 0.33693 0.00158 0.0
O3 O 0.97548 0.34467 0.02819 0.0
O4 O 0.04324 0.35812 0.03148 0.0
O5 O 0.01902 0.32931 0.02036 0.0
C6 C 0.03524 0.3392 0.03039 0.0
C7 C 0.96769 0.30526 0.98758 0.0
C8 C 0.98821 0.35733 0.04034 0.0
C9 C 0.01503 0.37061 0.97858 0.0
O10 O 0.99687 0.35897 0.98128 0.0
O11 O 0.02768 0.37057 0.99048 0.0
O12 O 0.95969 0.31615 0.98685 0.0
O13 O 0.98408 0.31189 0.99728 0.0
O14 O 0.62796 0.62496 0.03957 0.0
Cd15 Cd 0.63755 0.64887 0.02139 0.0
Cd16 Cd 0.65763 0.63362 0.00427 0.0
O17 O 0.64863 0.61565 0.02884 0.0
O18 O 0.63375 0.66936 0.0353 0.0
O19 O 0.66285 0.67387 0.02709 0.0
C20 C 0.6525 0.6808 0.03491 0.0
C21 C 0.69051 0.64992 0.99503 0.0
C22 C 0.6352 0.61369 0.04058 0.0
C23 C 0.62497 0.63312 0.98005 0.0
O24 O 0.6372 0.62707 0.98151 0.0
O25 O 0.62358 0.64339 0.99413 0.0
O26 O 0.6794 0.63121 0.99202 0.0
O27 O 0.683 0.65939 0.00374 0.0
O28 O 0.36606 0.01245 0.98204 0.0
Cd29 Cd 0.35664 0.02313 0.00518 0.0
Cd30 Cd 0.33816 0.98541 0.01571 0.0
O31 O 0.34768 0.98094 0.98847 0.0
O32 O 0.35853 0.04824 0.99627 0.0
O33 O 0.33048 0.02136 0.00239 0.0
C34 C 0.33963 0.03934 0.99657 0.0
C35 C 0.30525 0.96749 0.02466 0.0
C36 C 0.36006 0.99447 0.97753 0.0
C37 C 0.37038 0.01448 0.04324 0.0
O38 O 0.35856 0.99648 0.03876 0.0
O39 O 0.37117 0.02796 0.0323 0.0
O40 O 0.31624 0.9596 0.02464 0.0
O41 O 0.31289 0.98548 0.01904 0.0
O42 O 0.98524 0.63138 0.97912 0.0
Cd43 Cd 0.97272 0.63881 0.00213 0.0
Cd44 Cd 0.01044 0.65935 0.01574 0.0
O45 O 0.01614 0.65012 0.98878 0.0
O46 O 0.94785 0.63718 0.99223 0.0
O47 O 0.97441 0.66511 0.00112 0.0
C48 C 0.95661 0.65613 0.99429 0.0
C49 C 0.02689 0.69227 0.02665 0.0
C50 C 0.00341 0.63799 0.97627 0.0
C51 C 0.98129 0.62639 0.04112 0.0
O52 O 0.99903 0.63924 0.03815 0.0
O53 O 0.96793 0.624 0.02871 0.0
O54 O 0.03519 0.68165 0.02752 0.0
O55 O 0.00957 0.68441 0.01871 0.0
O56 O 0.37328 0.37299 0.97074 0.0
Cd57 Cd 0.36823 0.35295 0.99279 0.0
Cd58 Cd 0.34988 0.37096 0.01021 0.0
O59 O 0.35663 0.38616 0.98374 0.0
O60 O 0.36984 0.33016 0.98092 0.0
O61 O 0.34236 0.32787 0.99187 0.0
C62 C 0.35123 0.31952 0.98371 0.0
C63 C 0.31798 0.35411 0.02224 0.0
C64 C 0.36678 0.38493 0.96967 0.0
C65 C 0.38411 0.37289 0.03275 0.0
O66 O 0.37156 0.37853 0.03161 0.0
O67 O 0.38512 0.36217 0.01885 0.0
O68 O 0.32856 0.37303 0.02415 0.0
O69 O 0.32525 0.34487 0.01268 0.0
O70 O 0.63759 0.99424 0.03856 0.0
Cd71 Cd 0.6463 0.98301 0.01531 0.0
Cd72 Cd 0.66702 0.02116 0.00567 0.0
O73 O 0.65742 0.02572 0.03291 0.0
O74 O 0.64137 0.95658 0.02373 0.0
O75 O 0.67106 0.98189 0.01938 0.0
C76 C 0.66012 0.96385 0.02462 0.0
C77 C 0.70009 0.03774 0.9971 0.0
C78 C 0.64441 0.01227 0.04347 0.0
C79 C 0.63502 0.99407 0.97691 0.0
O80 O 0.64739 0.01172 0.98205 0.0
O81 O 0.63287 0.97989 0.98765 0.0
O82 O 0.68999 0.0466 0.99754 0.0
O83 O 0.69152 0.01952 0.00223 0.0
O84 O 0.66525 0.69618 0.37238 0.0
Cd85 Cd 0.68233 0.69169 0.35197 0.0
Cd86 Cd 0.64927 0.67929 0.33031 0.0
O87 O 0.63687 0.682 0.35625 0.0
O88 O 0.70401 0.69363 0.36928 0.0
O89 O 0.68343 0.66649 0.35227 0.0
C90 C 0.69789 0.6754 0.36482 0.0
C91 C 0.63627 0.64952 0.31254 0.0
C92 C 0.6471 0.69072 0.37179 0.0
C93 C 0.6851 0.71624 0.31749 0.0
O94 O 0.66661 0.70535 0.31595 0.0
O95 O 0.69495 0.71243 0.32993 0.0
O96 O 0.62853 0.66061 0.31109 0.0
O97 O 0.65129 0.65521 0.3243 0.0
O98 O 0.30137 0.96828 0.38143 0.0
Cd99 Cd 0.31024 0.99063 0.36132 0.0
Cd100 Cd 0.32281 0.96837 0.34178 0.0
O101 O 0.31277 0.95089 0.36653 0.0
O102 O 0.31006 0.01235 0.37703 0.0
O103 O 0.33702 0.01473 0.36424 0.0
C104 C 0.32874 0.02242 0.37475 0.0
C105 C 0.35456 0.97908 0.33084 0.0
C106 C 0.304 0.95354 0.38107 0.0
C107 C 0.2922 0.97463 0.32105 0.0
O108 O 0.30261 0.9664 0.32078 0.0
O109 O 0.29315 0.98541 0.33592 0.0
O110 O 0.34061 0.96124 0.32747 0.0
O111 O 0.35045 0.9908 0.34079 0.0
O112 O 0.03433 0.3334 0.30487 0.0
Cd113 Cd 0.03167 0.34948 0.32812 0.0
Cd114 Cd 0.01575 0.3136 0.34579 0.0
O115 O 0.02217 0.30449 0.3191 0.0
O116 O 0.03733 0.3748 0.31595 0.0
O117 O 0.00852 0.35379 0.32818 0.0
C118 C 0.01948 0.3702 0.31942 0.0
C119 C 0.98346 0.29912 0.35669 0.0
C120 C 0.02977 0.3154 0.3042 0.0
C121 C 0.05071 0.34687 0.3665 0.0
O122 O 0.03805 0.32861 0.36655 0.0
O123 O 0.05049 0.35759 0.35259 0.0
O124 O 0.9937 0.29052 0.35881 0.0
O125 O 0.99158 0.31594 0.34804 0.0
O126 O 0.66134 0.95722 0.30989 0.0
Cd127 Cd 0.64366 0.9606 0.33026 0.0
Cd128 Cd 0.67738 0.98014 0.35203 0.0
O129 O 0.68885 0.97324 0.32754 0.0
O130 O 0.61986 0.95748 0.31613 0.0
O131 O 0.64242 0.98552 0.33039 0.0
C132 C 0.62599 0.97575 0.32065 0.0
C133 C 0.69262 0.01249 0.36465 0.0
C134 C 0.67964 0.96361 0.31184 0.0
C135 C 0.64389 0.9446 0.37052 0.0
O136 O 0.6615 0.95859 0.37229 0.0
O137 O 0.63404 0.94267 0.3547 0.0
O138 O 0.69974 0.00112 0.36801 0.0
O139 O 0.67706 0.00567 0.35349 0.0
O140 O 0.04224 0.71422 0.315 0.0
Cd141 Cd 0.03444 0.69071 0.3333 0.0
Cd142 Cd 0.01467 0.70674 0.35165 0.0
O143 O 0.02311 0.72474 0.3271 0.0
O144 O 0.04044 0.67354 0.31605 0.0
O145 O 0.01033 0.66507 0.32536 0.0
C146 C 0.02186 0.66142 0.31478 0.0
C147 C 0.98175 0.69051 0.36071 0.0
C148 C 0.03518 0.72563 0.3141 0.0
C149 C 0.04689 0.70535 0.37531 0.0
O150 O 0.03495 0.71179 0.37405 0.0
O151 O 0.04845 0.69552 0.36081 0.0
O152 O 0.99305 0.70912 0.36428 0.0
O153 O 0.98911 0.68105 0.35167 0.0
O154 O 0.2994 0.33756 0.37187 0.0
Cd155 Cd 0.30639 0.32348 0.34994 0.0
Cd156 Cd 0.32296 0.35956 0.33344 0.0
O157 O 0.31478 0.36747 0.35989 0.0
O158 O 0.30435 0.29989 0.3631 0.0
O159 O 0.33225 0.32436 0.35232 0.0
C160 C 0.32308 0.30781 0.36134 0.0
C161 C 0.35575 0.37639 0.32386 0.0
C162 C 0.30476 0.35574 0.37354 0.0
C163 C 0.29044 0.32576 0.30991 0.0
O164 O 0.30209 0.34426 0.31134 0.0
O165 O 0.29009 0.31456 0.32362 0.0
O166 O 0.34456 0.38391 0.32153 0.0
O167 O 0.34829 0.35931 0.33187 0.0
O168 O 0.32985 0.04142 0.70106 0.0
Cd169 Cd 0.3469 0.03405 0.68347 0.0
Cd170 Cd 0.31349 0.01635 0.66195 0.0
O171 O 0.3011 0.02158 0.68665 0.0
O172 O 0.37044 0.04003 0.7001 0.0
O173 O 0.34952 0.01017 0.68839 0.0
C174 C 0.36538 0.02167 0.69843 0.0
C175 C 0.3007 0.98493 0.64748 0.0
C176 C 0.31136 0.03406 0.70028 0.0
C177 C 0.34767 0.05218 0.64496 0.0
O178 O 0.32925 0.04061 0.64425 0.0
O179 O 0.35815 0.0507 0.6585 0.0
O180 O 0.29252 0.99541 0.64443 0.0
O181 O 0.31598 0.99208 0.65911 0.0
O182 O 0.96192 0.29461 0.70642 0.0
Cd183 Cd 0.97157 0.31862 0.6883 0.0
Cd184 Cd 0.99146 0.30311 0.67028 0.0
O185 O 0.9821 0.28496 0.69484 0.0
O186 O 0.96686 0.33881 0.70151 0.0
O187 O 0.9965 0.3439 0.69445 0.0
C188 C 0.98556 0.35049 0.70142 0.0
C189 C 0.02451 0.31965 0.66135 0.0
C190 C 0.969 0.28318 0.70699 0.0
C191 C 0.95933 0.30384 0.64639 0.0
O192 O 0.97135 0.29748 0.64733 0.0
O193 O 0.95791 0.31352 0.661 0.0
O194 O 0.01341 0.30098 0.65793 0.0
O195 O 0.0169 0.32885 0.67045 0.0
O196 O 0.69456 0.66939 0.64492 0.0
Cd197 Cd 0.68863 0.68431 0.66694 0.0
Cd198 Cd 0.67339 0.64871 0.68455 0.0
O199 O 0.6789 0.63958 0.65724 0.0
O200 O 0.6922 0.70866 0.65424 0.0
O201 O 0.66371 0.68558 0.6654 0.0
C202 C 0.67383 0.70233 0.6569 0.0
C203 C 0.64461 0.63011 0.70252 0.0
C204 C 0.68892 0.65111 0.64342 0.0
C205 C 0.70882 0.68329 0.70431 0.0
O206 O 0.69737 0.66476 0.7033 0.0
O207 O 0.7071 0.69425 0.69167 0.0
O208 O 0.65752 0.62471 0.70038 0.0
O209 O 0.64725 0.64549 0.69312 0.0
O210 O 0.32946 0.29904 0.64624 0.0
Cd211 Cd 0.31583 0.30592 0.6686 0.0
Cd212 Cd 0.35231 0.32466 0.68549 0.0
O213 O 0.35914 0.31445 0.65979 0.0
O214 O 0.2909 0.30302 0.65731 0.0
O215 O 0.31588 0.33153 0.66768 0.0
C216 C 0.2984 0.32178 0.66005 0.0
C217 C 0.36951 0.35838 0.69346 0.0
C218 C 0.34749 0.30402 0.64567 0.0
C219 C 0.32074 0.29196 0.70878 0.0
O220 O 0.33875 0.30507 0.7081 0.0
O221 O 0.30907 0.28997 0.69453 0.0
O222 O 0.37722 0.34743 0.69642 0.0
O223 O 0.35199 0.35011 0.6859 0.0
O224 O 0.70915 0.03991 0.63678 0.0
Cd225 Cd 0.70373 0.01913 0.65809 0.0
Cd226 Cd 0.68864 0.03891 0.67821 0.0
O227 O 0.69544 0.0549 0.65232 0.0
O228 O 0.70326 0.99594 0.64464 0.0
O229 O 0.67716 0.99472 0.65819 0.0
C230 C 0.68488 0.98583 0.64871 0.0
C231 C 0.65822 0.02745 0.69305 0.0
C232 C 0.70425 0.05314 0.63727 0.0
C233 C 0.72279 0.03765 0.69752 0.0
O234 O 0.71081 0.04404 0.69816 0.0
O235 O 0.72239 0.02702 0.68277 0.0
O236 O 0.67154 0.04579 0.69413 0.0
O237 O 0.6618 0.01564 0.68257 0.0
O238 O 0.96137 0.66651 0.70833 0.0
Cd239 Cd 0.96534 0.65009 0.68636 0.0
Cd240 Cd 0.98608 0.68631 0.66887 0.0
O241 O 0.97794 0.69548 0.6944 0.0
O242 O 0.957 0.62398 0.69824 0.0
O243 O 0.98746 0.64428 0.68932 0.0
C244 C 0.97484 0.62769 0.69682 0.0
C245 C 0.01921 0.70328 0.66041 0.0
C246 C 0.96774 0.68496 0.70867 0.0
C247 C 0.95159 0.65476 0.64558 0.0
O248 O 0.96558 0.67251 0.64615 0.0
O249 O 0.94918 0.64352 0.66003 0.0
O250 O 0.008 0.71066 0.6575 0.0
O251 O 0.01152 0.68602 0.66809 0.0
C252 C 0.25031 0.29823 0.08204 0.0
C253 C 0.24589 0.31045 0.06743 0.0
C254 C 0.22507 0.31896 0.08801 0.0
C255 C 0.22517 0.33415 0.09933 0.0
C256 C 0.2088 0.33102 0.11029 0.0
C257 C 0.19182 0.31213 0.10989 0.0
C258 C 0.19153 0.29664 0.09843 0.0
C259 C 0.20815 0.30019 0.08755 0.0
C260 C 0.20963 0.34793 0.12226 0.0
C261 C 0.17363 0.27634 0.0977 0.0
C262 C 0.0691 0.32106 0.04799 0.0
C263 C 0.07844 0.31134 0.05897 0.0
C264 C 0.10652 0.3205 0.0816 0.0
C265 C 0.10136 0.30114 0.08651 0.0
C266 C 0.11307 0.29756 0.09982 0.0
C267 C 0.13008 0.31364 0.10856 0.0
C268 C 0.13488 0.33314 0.10414 0.0
C269 C 0.12309 0.33628 0.09062 0.0
C270 C 0.10759 0.27659 0.10408 0.0
C271 C 0.15281 0.35068 0.11326 0.0
C272 C 0.08783 0.29135 0.23739 0.0
C273 C 0.08748 0.27439 0.23004 0.0
C274 C 0.103 0.27563 0.21876 0.0
C275 C 0.11954 0.29432 0.21531 0.0
C276 C 0.12028 0.31152 0.22336 0.0
C277 C 0.10435 0.30986 0.23426 0.0
C278 C 0.10168 0.25698 0.21042 0.0
C279 C 0.13792 0.33161 0.22051 0.0
C280 C 0.24667 0.27336 0.23093 0.0
C281 C 0.24116 0.28843 0.23863 0.0
C282 C 0.20797 0.28292 0.23441 0.0
C283 C 0.18933 0.26732 0.22947 0.0
C284 C 0.17542 0.2706 0.2197 0.0
C285 C 0.18017 0.29011 0.21534 0.0
C286 C 0.19865 0.30609 0.22144 0.0
C287 C 0.21243 0.30231 0.2308 0.0
C288 C 0.15579 0.25319 0.21376 0.0
C289 C 0.20396 0.32713 0.21781 0.0
C290 C 0.17423 0.30887 0.12102 0.0
C291 C 0.16011 0.31135 0.11083 0.0
C292 C 0.14395 0.31017 0.12063 0.0
C293 C 0.14177 0.30645 0.14132 0.0
C294 C 0.126 0.30563 0.15183 0.0
C295 C 0.12408 0.30206 0.17223 0.0
C296 C 0.13794 0.2993 0.18293 0.0
C297 C 0.13621 0.29577 0.20368 0.0
C298 C 0.15031 0.29313 0.21379 0.0
C299 C 0.16608 0.29368 0.20377 0.0
C300 C 0.16802 0.29712 0.18302 0.0
C301 C 0.1836 0.29761 0.17241 0.0
C302 C 0.18566 0.30143 0.15212 0.0
C303 C 0.17204 0.30462 0.14156 0.0
C304 C 0.15588 0.30363 0.1518 0.0
C305 C 0.15395 0.30004 0.17261 0.0
C306 C 0.05738 0.30649 0.26406 0.0
C307 C 0.06386 0.30126 0.24519 0.0
O308 O 0.2416 0.32323 0.07791 0.0
O309 O 0.22128 0.27877 0.24262 0.0
O310 O 0.07216 0.2894 0.24761 0.0
O311 O 0.09616 0.32467 0.06814 0.0
H312 H 0.23322 0.30052 0.05757 0.0
H313 H 0.25379 0.28796 0.07378 0.0
H314 H 0.23746 0.28929 0.09146 0.0
H315 H 0.26296 0.30804 0.09198 0.0
H316 H 0.23826 0.34856 0.09958 0.0
H317 H 0.20774 0.28827 0.07878 0.0
H318 H 0.19746 0.35034 0.11753 0.0
H319 H 0.22373 0.36187 0.12055 0.0
H320 H 0.20769 0.34427 0.13831 0.0
H321 H 0.17599 0.2656 0.08887 0.0
H322 H 0.1611 0.27711 0.09098 0.0
H323 H 0.16951 0.27087 0.11308 0.0
H324 H 0.07908 0.29931 0.05047 0.0
H325 H 0.0688 0.31663 0.03187 0.0
H326 H 0.08081 0.33686 0.04598 0.0
H327 H 0.04357 0.31307 0.06392 0.0
H328 H 0.08849 0.28878 0.07972 0.0
H329 H 0.12688 0.35116 0.08685 0.0
H330 H 0.11969 0.27399 0.09962 0.0
H331 H 0.09394 0.26568 0.09605 0.0
H332 H 0.10551 0.27407 0.12034 0.0
H333 H 0.15291 0.36471 0.1107 0.0
H334 H 0.16614 0.35173 0.10654 0.0
H335 H 0.15363 0.34886 0.12957 0.0
H336 H 0.07186 0.31355 0.23466 0.0
H337 H 0.07475 0.26017 0.23276 0.0
H338 H 0.10491 0.32297 0.24055 0.0
H339 H 0.10425 0.25822 0.19411 0.0
H340 H 0.08721 0.24377 0.21312 0.0
H341 H 0.11327 0.25485 0.21745 0.0
H342 H 0.13659 0.34347 0.2284 0.0
H343 H 0.13983 0.33484 0.20436 0.0
H344 H 0.15134 0.3318 0.22607 0.0
H345 H 0.24451 0.29897 0.22635 0.0
H346 H 0.26258 0.28075 0.22772 0.0
H347 H 0.23835 0.26622 0.21689 0.0
H348 H 0.24314 0.26173 0.24202 0.0
H349 H 0.18593 0.25243 0.23268 0.0
H350 H 0.22663 0.31449 0.23534 0.0
H351 H 0.15249 0.2539 0.19776 0.0
H352 H 0.14418 0.25364 0.22265 0.0
H353 H 0.15518 0.23891 0.2163 0.0
H354 H 0.21762 0.33786 0.22594 0.0
H355 H 0.19186 0.32964 0.22249 0.0
H356 H 0.20614 0.33002 0.20162 0.0
H357 H 0.16193 0.31464 0.09506 0.0
H358 H 0.11497 0.30776 0.14438 0.0
H359 H 0.11162 0.30156 0.17954 0.0
H360 H 0.14887 0.2904 0.22968 0.0
H361 H 0.1945 0.29517 0.17968 0.0
H362 H 0.19804 0.3018 0.14478 0.0
H363 H 0.02689 0.29217 0.26051 0.0
H364 H 0.06672 0.32298 0.26568 0.0
H365 H 0.06489 0.30332 0.27665 0.0
C366 C 0.70446 0.91313 0.03881 0.0
C367 C 0.69099 0.91442 0.05438 0.0
C368 C 0.70114 0.90905 0.08677 0.0
C369 C 0.68365 0.89389 0.09436 0.0
C370 C 0.6839 0.88059 0.10798 0.0
C371 C 0.70203 0.88244 0.11401 0.0
C372 C 0.71975 0.8983 0.10705 0.0
C373 C 0.71906 0.91161 0.0937 0.0
C374 C 0.66473 0.86418 0.11544 0.0
C375 C 0.73933 0.90072 0.11309 0.0
C376 C 0.69515 0.7758 0.04615 0.0
C377 C 0.69132 0.76281 0.06434 0.0
C378 C 0.68523 0.78227 0.08975 0.0
C379 C 0.7047 0.7977 0.09216 0.0
C380 C 0.70916 0.8145 0.10393 0.0
C381 C 0.69389 0.81585 0.11346 0.0
C382 C 0.67434 0.8002 0.11131 0.0
C383 C 0.67031 0.78356 0.09957 0.0
C384 C 0.73018 0.83085 0.10615 0.0
C385 C 0.65768 0.80113 0.12128 0.0
C386 C 0.7006 0.78721 0.24115 0.0
C387 C 0.71937 0.80333 0.23797 0.0
C388 C 0.72172 0.81997 0.22792 0.0
C389 C 0.70496 0.82061 0.22118 0.0
C390 C 0.68604 0.80456 0.22481 0.0
C391 C 0.68415 0.78799 0.23452 0.0
C392 C 0.7421 0.83677 0.22429 0.0
C393 C 0.6678 0.80484 0.21827 0.0
C394 C 0.7368 0.97455 0.23827 0.0
C395 C 0.72144 0.95387 0.24459 0.0
C396 C 0.72551 0.92505 0.24076 0.0
C397 C 0.74033 0.92066 0.23691 0.0
C398 C 0.73614 0.90287 0.22734 0.0
C399 C 0.7165 0.88894 0.22199 0.0
C400 C 0.70126 0.89275 0.22708 0.0
C401 C 0.70593 0.91084 0.23633 0.0
C402 C 0.75273 0.89919 0.22245 0.0
C403 C 0.6801 0.87791 0.22232 0.0
C404 C 0.70228 0.86667 0.12587 0.0
C405 C 0.69902 0.84962 0.11551 0.0
C406 C 0.69827 0.83374 0.12546 0.0
C407 C 0.70095 0.8348 0.1464 0.0
C408 C 0.70036 0.81911 0.15685 0.0
C409 C 0.70254 0.82007 0.17751 0.0
C410 C 0.7054 0.83676 0.18856 0.0
C411 C 0.70714 0.83764 0.20963 0.0
C412 C 0.71055 0.85471 0.2201 0.0
C413 C 0.71212 0.87097 0.21008 0.0
C414 C 0.70989 0.87013 0.18904 0.0
C415 C 0.71095 0.88603 0.17848 0.0
C416 C 0.70834 0.8849 0.15783 0.0
C417 C 0.705 0.86802 0.14686 0.0
C418 C 0.70422 0.85196 0.15716 0.0
C419 C 0.70652 0.85296 0.17827 0.0
C420 C 0.70248 0.75087 0.27437 0.0
C421 C 0.71145 0.76845 0.26138 0.0
O422 O 0.701 0.92112 0.07253 0.0
O423 O 0.73062 0.9431 0.24866 0.0
O424 O 0.69765 0.7707 0.25051 0.0
O425 O 0.68004 0.76594 0.07812 0.0
H426 H 0.67831 0.89923 0.05581 0.0
H427 H 0.70892 0.90239 0.04355 0.0
H428 H 0.71791 0.92765 0.03703 0.0
H429 H 0.69668 0.90802 0.02415 0.0
H430 H 0.6698 0.89236 0.08946 0.0
H431 H 0.73249 0.92355 0.08793 0.0
H432 H 0.66187 0.84998 0.10855 0.0
H433 H 0.65221 0.86641 0.11171 0.0
H434 H 0.66553 0.86302 0.13187 0.0
H435 H 0.75176 0.91375 0.10626 0.0
H436 H 0.73994 0.88733 0.10854 0.0
H437 H 0.74117 0.90235 0.12956 0.0
H438 H 0.70555 0.76635 0.07147 0.0
H439 H 0.70371 0.77279 0.03493 0.0
H440 H 0.70373 0.79164 0.05054 0.0
H441 H 0.68112 0.77294 0.03912 0.0
H442 H 0.71647 0.79682 0.08492 0.0
H443 H 0.65537 0.77154 0.09773 0.0
H444 H 0.73174 0.84454 0.09976 0.0
H445 H 0.74051 0.8272 0.09855 0.0
H446 H 0.73437 0.83394 0.12221 0.0
H447 H 0.64321 0.78804 0.11752 0.0
H448 H 0.65747 0.81459 0.1167 0.0
H449 H 0.65991 0.80212 0.13772 0.0
H450 H 0.7239 0.77008 0.2522 0.0
H451 H 0.73223 0.8029 0.24305 0.0
H452 H 0.66973 0.77554 0.23714 0.0
H453 H 0.74389 0.84019 0.20817 0.0
H454 H 0.75363 0.83345 0.22918 0.0
H455 H 0.74431 0.85015 0.23255 0.0
H456 H 0.6543 0.79243 0.22444 0.0
H457 H 0.66652 0.80377 0.20174 0.0
H458 H 0.66873 0.81894 0.22304 0.0
H459 H 0.71113 0.94718 0.23159 0.0
H460 H 0.72973 0.98344 0.23495 0.0
H461 H 0.74412 0.9735 0.22457 0.0
H462 H 0.74817 0.98225 0.25014 0.0
H463 H 0.75534 0.93159 0.24075 0.0
H464 H 0.69432 0.91388 0.24006 0.0
H465 H 0.75268 0.89625 0.20618 0.0
H466 H 0.75065 0.88591 0.23026 0.0
H467 H 0.76727 0.91184 0.22693 0.0
H468 H 0.66987 0.88199 0.22943 0.0
H469 H 0.67662 0.8631 0.22738 0.0
H470 H 0.67759 0.87686 0.20592 0.0
H471 H 0.69677 0.84857 0.09944 0.0
H472 H 0.69813 0.80585 0.14916 0.0
H473 H 0.70191 0.80751 0.18471 0.0
H474 H 0.71201 0.85537 0.23624 0.0
H475 H 0.71364 0.89948 0.18608 0.0
H476 H 0.70906 0.89747 0.15053 0.0
H477 H 0.70787 0.74095 0.26833 0.0
H478 H 0.68694 0.74113 0.2688 0.0
H479 H 0.70936 0.76315 0.30328 0.0
C480 C 0.21073 0.91559 0.04018 0.0
C481 C 0.22589 0.92714 0.05682 0.0
C482 C 0.21025 0.90528 0.0852 0.0
C483 C 0.195 0.90949 0.0879 0.0
C484 C 0.17972 0.89851 0.10108 0.0
C485 C 0.17972 0.8831 0.11177 0.0
C486 C 0.19541 0.87931 0.1096 0.0
C487 C 0.21052 0.89055 0.09642 0.0
C488 C 0.16333 0.90308 0.10328 0.0
C489 C 0.19592 0.863 0.12078 0.0
C490 C 0.04268 0.76322 0.08681 0.0
C491 C 0.05852 0.76698 0.0715 0.0
C492 C 0.08857 0.78834 0.09149 0.0
C493 C 0.10379 0.78832 0.10226 0.0
C494 C 0.11744 0.80498 0.11332 0.0
C495 C 0.1158 0.82216 0.11358 0.0
C496 C 0.10046 0.82238 0.10267 0.0
C497 C 0.08699 0.80546 0.09167 0.0
C498 C 0.13372 0.80426 0.12462 0.0
C499 C 0.09841 0.84053 0.1026 0.0
C500 C 0.07766 0.80937 0.24135 0.0
C501 C 0.09177 0.8043 0.23584 0.0
C502 C 0.10856 0.81757 0.22551 0.0
C503 C 0.11112 0.83618 0.2204 0.0
C504 C 0.09723 0.84156 0.22661 0.0
C505 C 0.08079 0.82813 0.23726 0.0
C506 C 0.12346 0.81164 0.21991 0.0
C507 C 0.09959 0.86135 0.2217 0.0
C508 C 0.23999 0.97041 0.24157 0.0
C509 C 0.23313 0.95489 0.25779 0.0
C510 C 0.21174 0.92308 0.24016 0.0
C511 C 0.21036 0.90523 0.23432 0.0
C512 C 0.19371 0.89051 0.22417 0.0
C513 C 0.1781 0.89389 0.21948 0.0
C514 C 0.17925 0.91185 0.2255 0.0
C515 C 0.19604 0.92627 0.23587 0.0
C516 C 0.19288 0.87141 0.21827 0.0
C517 C 0.16284 0.91587 0.22073 0.0
C518 C 0.16259 0.86992 0.12395 0.0
C519 C 0.14699 0.8537 0.11421 0.0
C520 C 0.13066 0.84009 0.12465 0.0
C521 C 0.12954 0.84287 0.1454 0.0
C522 C 0.11307 0.82978 0.15626 0.0
C523 C 0.11238 0.83228 0.1768 0.0
C524 C 0.12831 0.84775 0.18732 0.0
C525 C 0.12813 0.84992 0.20833 0.0
C526 C 0.1444 0.86527 0.2183 0.0
C527 C 0.16084 0.87876 0.20785 0.0
C528 C 0.1611 0.8771 0.18682 0.0
C529 C 0.17723 0.89068 0.1758 0.0
C530 C 0.17764 0.88855 0.15517 0.0
C531 C 0.16201 0.87268 0.1448 0.0
C532 C 0.14542 0.85905 0.15555 0.0
C533 C 0.1449 0.86136 0.17657 0.0
C534 C 0.02934 0.77241 0.23853 0.0
C535 C 0.04955 0.77662 0.24586 0.0
O536 O 0.22481 0.91472 0.07187 0.0
O537 O 0.22857 0.93669 0.24961 0.0
O538 O 0.06095 0.79654 0.25067 0.0
O539 O 0.07592 0.77153 0.08124 0.0
H540 H 0.22304 0.93869 0.06315 0.0
H541 H 0.19562 0.90909 0.0459 0.0
H542 H 0.21275 0.90345 0.03407 0.0
H543 H 0.21219 0.92556 0.02789 0.0
H544 H 0.19474 0.9211 0.07965 0.0
H545 H 0.22242 0.88753 0.09439 0.0
H546 H 0.14945 0.89043 0.09737 0.0
H547 H 0.1662 0.9165 0.09519 0.0
H548 H 0.1612 0.90518 0.11931 0.0
H549 H 0.20937 0.86221 0.11775 0.0
H550 H 0.18293 0.84864 0.11644 0.0
H551 H 0.19518 0.86528 0.13707 0.0
H552 H 0.06093 0.77937 0.06184 0.0
H553 H 0.02865 0.75949 0.07915 0.0
H554 H 0.04711 0.77654 0.09638 0.0
H555 H 0.04021 0.75088 0.09656 0.0
H556 H 0.10491 0.77508 0.10198 0.0
H557 H 0.07538 0.8058 0.08327 0.0
H558 H 0.13267 0.80681 0.1408 0.0
H559 H 0.14814 0.81618 0.11962 0.0
H560 H 0.1332 0.7899 0.12252 0.0
H561 H 0.08511 0.83805 0.09423 0.0
H562 H 0.1115 0.8528 0.09571 0.0
H563 H 0.09772 0.84521 0.11817 0.0
H564 H 0.05594 0.77256 0.23314 0.0
H565 H 0.08972 0.79003 0.2397 0.0
H566 H 0.06996 0.832 0.2419 0.0
H567 H 0.12313 0.80943 0.20348 0.0
H568 H 0.12059 0.79779 0.22708 0.0
H569 H 0.13844 0.82353 0.22427 0.0
H570 H 0.08682 0.86274 0.22638 0.0
H571 H 0.10152 0.86371 0.20539 0.0
H572 H 0.11296 0.87319 0.22934 0.0
H573 H 0.21996 0.95383 0.26501 0.0
H574 H 0.24393 0.98503 0.24829 0.0
H575 H 0.25293 0.9716 0.23379 0.0
H576 H 0.22813 0.96645 0.23031 0.0
H577 H 0.22252 0.90288 0.23774 0.0
H578 H 0.19682 0.93999 0.24031 0.0
H579 H 0.19297 0.87013 0.20176 0.0
H580 H 0.17905 0.85871 0.22347 0.0
H581 H 0.20546 0.87042 0.22452 0.0
H582 H 0.16623 0.93085 0.22579 0.0
H583 H 0.14923 0.90483 0.22803 0.0
H584 H 0.15988 0.91432 0.20438 0.0
H585 H 0.1478 0.85135 0.09832 0.0
H586 H 0.10051 0.81743 0.14899 0.0
H587 H 0.09931 0.82174 0.18436 0.0
H588 H 0.14435 0.86663 0.23443 0.0
H589 H 0.18976 0.90308 0.18301 0.0
H590 H 0.19046 0.89937 0.14748 0.0
H591 H 0.02206 0.77675 0.25007 0.0
H592 H 0.01989 0.75647 0.23475 0.0
H593 H 0.03091 0.78091 0.2249 0.0
C594 C 0.29529 0.09011 0.98238 0.0
C595 C 0.2994 0.07951 0.96525 0.0
C596 C 0.30676 0.10287 0.9379 0.0
C597 C 0.2875 0.09902 0.93445 0.0
C598 C 0.28369 0.11034 0.92103 0.0
C599 C 0.2994 0.12578 0.91089 0.0
C600 C 0.31871 0.12932 0.91395 0.0
C601 C 0.32208 0.11772 0.92734 0.0
C602 C 0.26292 0.10604 0.91789 0.0
C603 C 0.33584 0.14568 0.90343 0.0
C604 C 0.29769 0.22403 0.98286 0.0
C605 C 0.31031 0.2348 0.96502 0.0
C606 C 0.29775 0.21599 0.93396 0.0
C607 C 0.31478 0.21717 0.92618 0.0
C608 C 0.31365 0.20242 0.91314 0.0
C609 C 0.29508 0.18618 0.90779 0.0
C610 C 0.27785 0.18554 0.91475 0.0
C611 C 0.27942 0.20065 0.9276 0.0
C612 C 0.33231 0.20385 0.90559 0.0
C613 C 0.25784 0.16854 0.9092 0.0
C614 C 0.28293 0.20536 0.77916 0.0
C615 C 0.30146 0.20888 0.78546 0.0
C616 C 0.3035 0.19443 0.79558 0.0
C617 C 0.28661 0.17616 0.79958 0.0
C618 C 0.26804 0.17227 0.79238 0.0
C619 C 0.2665 0.18689 0.78202 0.0
C620 C 0.32362 0.19881 0.80234 0.0
C621 C 0.24978 0.15287 0.79608 0.0
C622 C 0.2941 0.04912 0.74648 0.0
C623 C 0.2849 0.05696 0.76064 0.0
C624 C 0.29591 0.08591 0.7829 0.0
C625 C 0.31252 0.10261 0.79062 0.0
C626 C 0.31109 0.11786 0.80031 0.0
C627 C 0.29243 0.11608 0.8028 0.0
C628 C 0.2755 0.09912 0.79515 0.0
C629 C 0.2774 0.08424 0.78518 0.0
C630 C 0.32954 0.13586 0.80791 0.0
C631 C 0.25538 0.09668 0.79763 0.0
C632 C 0.29592 0.13909 0.89814 0.0
C633 C 0.29577 0.15508 0.90753 0.0
C634 C 0.29388 0.16907 0.89655 0.0
C635 C 0.29193 0.16705 0.87553 0.0
C636 C 0.29004 0.18084 0.864 0.0
C637 C 0.28851 0.17892 0.84329 0.0
C638 C 0.28912 0.16328 0.83327 0.0
C639 C 0.28823 0.16157 0.81217 0.0
C640 C 0.28911 0.14595 0.80272 0.0
C641 C 0.29068 0.13178 0.81378 0.0
C642 C 0.29129 0.13312 0.83489 0.0
C643 C 0.29255 0.11897 0.8465 0.0
C644 C 0.29386 0.12078 0.86722 0.0
C645 C 0.29391 0.13676 0.87715 0.0
C646 C 0.29207 0.15089 0.86579 0.0
C647 C 0.29075 0.14905 0.84463 0.0
C648 C 0.27372 0.24268 0.78608 0.0
C649 C 0.28919 0.23901 0.77639 0.0
O650 O 0.31141 0.09295 0.95135 0.0
O651 O 0.29842 0.07193 0.77322 0.0
O652 O 0.28048 0.2194 0.77015 0.0
O653 O 0.29866 0.22929 0.94783 0.0
H654 H 0.28536 0.06855 0.95784 0.0
H655 H 0.28743 0.09756 0.97678 0.0
H656 H 0.30923 0.10138 0.98971 0.0
H657 H 0.28595 0.07935 0.99367 0.0
H658 H 0.27541 0.0874 0.94227 0.0
H659 H 0.33685 0.12049 0.92998 0.0
H660 H 0.26159 0.11869 0.92367 0.0
H661 H 0.25212 0.09253 0.92555 0.0
H662 H 0.2592 0.10427 0.90169 0.0
H663 H 0.35 0.1467 0.90767 0.0
H664 H 0.33675 0.16 0.90706 0.0
H665 H 0.33365 0.1432 0.88704 0.0
H666 H 0.32153 0.23014 0.96392 0.0
H667 H 0.30677 0.22858 0.99679 0.0
H668 H 0.29131 0.20788 0.98056 0.0
H669 H 0.28547 0.22712 0.98468 0.0
H670 H 0.32896 0.22951 0.93051 0.0
H671 H 0.26636 0.20009 0.93345 0.0
H672 H 0.33128 0.20127 0.88917 0.0
H673 H 0.33444 0.19225 0.91248 0.0
H674 H 0.34537 0.21842 0.90919 0.0
H675 H 0.24585 0.1705 0.91537 0.0
H676 H 0.2564 0.15465 0.91488 0.0
H677 H 0.25608 0.16691 0.89271 0.0
H678 H 0.30061 0.24242 0.78807 0.0
H679 H 0.31434 0.22289 0.78244 0.0
H680 H 0.25232 0.1842 0.77672 0.0
H681 H 0.32477 0.2003 0.81886 0.0
H682 H 0.33543 0.21263 0.79599 0.0
H683 H 0.32602 0.18644 0.79795 0.0
H684 H 0.23636 0.15237 0.79005 0.0
H685 H 0.24809 0.15023 0.81236 0.0
H686 H 0.25114 0.1407 0.78901 0.0
H687 H 0.27187 0.04562 0.76863 0.0
H688 H 0.28799 0.03325 0.75054 0.0
H689 H 0.30926 0.05402 0.75258 0.0
H690 H 0.28906 0.05746 0.71852 0.0
H691 H 0.32673 0.10379 0.78874 0.0
H692 H 0.26441 0.07128 0.77937 0.0
H693 H 0.32974 0.13625 0.82447 0.0
H694 H 0.32987 0.14945 0.80285 0.0
H695 H 0.34299 0.136 0.80277 0.0
H696 H 0.24355 0.08206 0.79206 0.0
H697 H 0.2544 0.10832 0.78933 0.0
H698 H 0.25289 0.09852 0.81362 0.0
H699 H 0.29757 0.1569 0.92363 0.0
H700 H 0.28974 0.1933 0.87089 0.0
H701 H 0.28705 0.18998 0.83522 0.0
H702 H 0.28872 0.1449 0.78655 0.0
H703 H 0.29266 0.10639 0.83969 0.0
H704 H 0.29496 0.10955 0.87539 0.0
H705 H 0.28037 0.25833 0.79116 0.0
H706 H 0.26768 0.23322 0.79927 0.0
H707 H 0.26147 0.23913 0.77542 0.0
C708 C 0.79325 0.07132 0.98142 0.0
C709 C 0.78071 0.07648 0.96801 0.0
C710 C 0.79195 0.08349 0.93419 0.0
C711 C 0.78791 0.0982 0.92842 0.0
C712 C 0.8001 0.11269 0.91506 0.0
C713 C 0.8169 0.11264 0.90769 0.0
C714 C 0.82051 0.09725 0.9129 0.0
C715 C 0.80773 0.08264 0.92588 0.0
C716 C 0.79548 0.12854 0.90954 0.0
C717 C 0.83837 0.09682 0.90559 0.0
C718 C 0.93378 0.25218 0.97179 0.0
C719 C 0.9243 0.23241 0.96152 0.0
C720 C 0.89513 0.21154 0.9407 0.0
C721 C 0.90145 0.19855 0.93395 0.0
C722 C 0.89 0.18314 0.92027 0.0
C723 C 0.87196 0.18073 0.91312 0.0
C724 C 0.86572 0.19395 0.91969 0.0
C725 C 0.87738 0.20914 0.93346 0.0
C726 C 0.89704 0.16925 0.91361 0.0
C727 C 0.84662 0.19189 0.91232 0.0
C728 C 0.90982 0.21751 0.78565 0.0
C729 C 0.91432 0.20324 0.7922 0.0
C730 C 0.90028 0.18638 0.80194 0.0
C731 C 0.88137 0.1837 0.80518 0.0
C732 C 0.87681 0.19805 0.79862 0.0
C733 C 0.89115 0.21482 0.78903 0.0
C734 C 0.90566 0.17142 0.80885 0.0
C735 C 0.85677 0.19562 0.80171 0.0
C736 C 0.76952 0.03036 0.77393 0.0
C737 C 0.77268 0.05049 0.76791 0.0
C738 C 0.80374 0.08028 0.77597 0.0
C739 C 0.82288 0.08527 0.78122 0.0
C740 C 0.83478 0.1021 0.79312 0.0
C741 C 0.82744 0.11449 0.79946 0.0
C742 C 0.8084 0.11005 0.7933 0.0
C743 C 0.7967 0.09293 0.78167 0.0
C744 C 0.8551 0.10648 0.79913 0.0
C745 C 0.80038 0.12333 0.79912 0.0
C746 C 0.83193 0.12999 0.89686 0.0
C747 C 0.84471 0.14663 0.9084 0.0
C748 C 0.8591 0.16377 0.89965 0.0
C749 C 0.86092 0.16449 0.87866 0.0
C750 C 0.87509 0.18158 0.86933 0.0
C751 C 0.87686 0.18212 0.84868 0.0
C752 C 0.86455 0.16558 0.83654 0.0
C753 C 0.86638 0.16595 0.81554 0.0
C754 C 0.85395 0.1492 0.80394 0.0
C755 C 0.83965 0.13194 0.8127 0.0
C756 C 0.83751 0.13134 0.83369 0.0
C757 C 0.82322 0.11429 0.84306 0.0
C758 C 0.82119 0.11388 0.86371 0.0
C759 C 0.83363 0.13034 0.87584 0.0
C760 C 0.8482 0.14767 0.86672 0.0
C761 C 0.85006 0.14821 0.84563 0.0
C762 C 0.94899 0.25348 0.75342 0.0
C763 C 0.94079 0.23754 0.76843 0.0
O764 O 0.78129 0.07062 0.94849 0.0
O765 O 0.79253 0.06329 0.76531 0.0
O766 O 0.92292 0.23392 0.77594 0.0
O767 O 0.90562 0.2265 0.95411 0.0
H768 H 0.78753 0.09281 0.96913 0.0
H769 H 0.80878 0.07959 0.97674 0.0
H770 H 0.78826 0.05532 0.98034 0.0
H771 H 0.79256 0.07546 0.99721 0.0
H772 H 0.77544 0.09854 0.93474 0.0
H773 H 0.81061 0.0711 0.93042 0.0
H774 H 0.80569 0.14241 0.91777 0.0
H775 H 0.78024 0.12452 0.91336 0.0
H776 H 0.79756 0.13144 0.89333 0.0
H777 H 0.83922 0.08401 0.91124 0.0
H778 H 0.85183 0.11057 0.91046 0.0
H779 H 0.83816 0.09616 0.88904 0.0
H780 H 0.92512 0.22062 0.96983 0.0
H781 H 0.93587 0.24932 0.98777 0.0
H782 H 0.92173 0.25556 0.97512 0.0
H783 H 0.95729 0.26965 0.95341 0.0
H784 H 0.91517 0.20022 0.93945 0.0
H785 H 0.87265 0.21925 0.93869 0.0
H786 H 0.88607 0.15393 0.91749 0.0
H787 H 0.91138 0.17304 0.92057 0.0
H788 H 0.8985 0.16961 0.89714 0.0
H789 H 0.8446 0.20428 0.91759 0.0
H790 H 0.83425 0.1779 0.91767 0.0
H791 H 0.84597 0.19119 0.89575 0.0
H792 H 0.95133 0.23868 0.78028 0.0
H793 H 0.92876 0.2052 0.78981 0.0
H794 H 0.88779 0.22587 0.78392 0.0
H795 H 0.90399 0.16988 0.82526 0.0
H796 H 0.92094 0.17555 0.8051 0.0
H797 H 0.89552 0.1568 0.80185 0.0
H798 H 0.85552 0.2081 0.79575 0.0
H799 H 0.85353 0.19444 0.81789 0.0
H800 H 0.84548 0.18174 0.79424 0.0
H801 H 0.76716 0.05567 0.78055 0.0
H802 H 0.75366 0.01985 0.77588 0.0
H803 H 0.77727 0.03188 0.78834 0.0
H804 H 0.77531 0.0242 0.76256 0.0
H805 H 0.82829 0.07558 0.77643 0.0
H806 H 0.78214 0.08952 0.77692 0.0
H807 H 0.85697 0.10825 0.81561 0.0
H808 H 0.86612 0.12058 0.79258 0.0
H809 H 0.85813 0.09469 0.79409 0.0
H810 H 0.78608 0.11883 0.79164 0.0
H811 H 0.81097 0.13878 0.79528 0.0
H812 H 0.79838 0.12298 0.81551 0.0
H813 H 0.8434 0.14625 0.92452 0.0
H814 H 0.88499 0.19473 0.87792 0.0
H815 H 0.88806 0.19567 0.84234 0.0
H816 H 0.85552 0.14955 0.78786 0.0
H817 H 0.81336 0.10109 0.83452 0.0
H818 H 0.80984 0.10043 0.87009 0.0
H819 H 0.94806 0.2385 0.72685 0.0
H820 H 0.96311 0.26544 0.76034 0.0
H821 H 0.94097 0.26196 0.75523 0.0
C822 C 0.78511 0.69604 0.98056 0.0
C823 C 0.77018 0.69223 0.96377 0.0
C824 C 0.78742 0.68739 0.93548 0.0
C825 C 0.80203 0.70721 0.93348 0.0
C826 C 0.81806 0.71233 0.921 0.0
C827 C 0.81954 0.69736 0.91037 0.0
C828 C 0.80455 0.67748 0.9119 0.0
C829 C 0.78859 0.67281 0.92429 0.0
C830 C 0.83364 0.7337 0.91946 0.0
C831 C 0.80567 0.6611 0.9009 0.0
C832 C 0.9241 0.71786 0.99211 0.0
C833 C 0.91933 0.70275 0.97511 0.0
C834 C 0.91386 0.71106 0.94193 0.0
C835 C 0.89901 0.69268 0.9347 0.0
C836 C 0.88555 0.69137 0.92005 0.0
C837 C 0.88688 0.70884 0.91271 0.0
C838 C 0.90245 0.72741 0.91934 0.0
C839 C 0.91599 0.72825 0.93366 0.0
C840 C 0.86948 0.6713 0.913 0.0
C841 C 0.90424 0.74635 0.91205 0.0
C842 C 0.92706 0.72619 0.78537 0.0
C843 C 0.91264 0.70679 0.78949 0.0
C844 C 0.8953 0.70292 0.79907 0.0
C845 C 0.89238 0.71879 0.80465 0.0
C846 C 0.90655 0.73826 0.79976 0.0
C847 C 0.92364 0.74166 0.78997 0.0
C848 C 0.88016 0.68192 0.80341 0.0
C849 C 0.90379 0.75549 0.80518 0.0
C850 C 0.76108 0.71835 0.78616 0.0
C851 C 0.76987 0.71489 0.76721 0.0
C852 C 0.79235 0.70435 0.78087 0.0
C853 C 0.7947 0.68802 0.78378 0.0
C854 C 0.8108 0.6897 0.79462 0.0
C855 C 0.82497 0.70827 0.80271 0.0
C856 C 0.82296 0.72499 0.79949 0.0
C857 C 0.80667 0.72288 0.78863 0.0
C858 C 0.81253 0.67158 0.79768 0.0
C859 C 0.83794 0.74504 0.80778 0.0
C860 C 0.83747 0.70227 0.89897 0.0
C861 C 0.85359 0.70404 0.90963 0.0
C862 C 0.87072 0.70762 0.90002 0.0
C863 C 0.87191 0.70956 0.87906 0.0
C864 C 0.88876 0.71286 0.86882 0.0
C865 C 0.88979 0.71483 0.84818 0.0
C866 C 0.8739 0.71331 0.83695 0.0
C867 C 0.87472 0.71508 0.81594 0.0
C868 C 0.85862 0.71344 0.80528 0.0
C869 C 0.8416 0.71008 0.815 0.0
C870 C 0.84051 0.70828 0.83598 0.0
C871 C 0.8236 0.70487 0.84624 0.0
C872 C 0.82261 0.70302 0.86687 0.0
C873 C 0.83845 0.70443 0.87804 0.0
C874 C 0.85572 0.70802 0.86805 0.0
C875 C 0.85672 0.70989 0.84698 0.0
C876 C 0.97512 0.73581 0.78881 0.0
C877 C 0.95489 0.72098 0.78014 0.0
O878 O 0.77213 0.68155 0.94809 0.0
O879 O 0.77604 0.70139 0.77069 0.0
O880 O 0.94431 0.73051 0.77682 0.0
O881 O 0.92587 0.71255 0.9573 0.0
H882 H 0.77262 0.70658 0.95824 0.0
H883 H 0.8003 0.70531 0.9753 0.0
H884 H 0.7835 0.68194 0.98584 0.0
H885 H 0.78296 0.70396 0.99333 0.0
H886 H 0.80115 0.71873 0.94172 0.0
H887 H 0.77717 0.65759 0.92579 0.0
H888 H 0.84747 0.73604 0.92651 0.0
H889 H 0.82938 0.74375 0.92691 0.0
H890 H 0.83666 0.73768 0.90354 0.0
H891 H 0.79306 0.64634 0.90411 0.0
H892 H 0.81944 0.66132 0.90514 0.0
H893 H 0.80598 0.66339 0.88459 0.0
H894 H 0.90306 0.69344 0.97477 0.0
H895 H 0.91945 0.71034 0.00661 0.0
H896 H 0.9161 0.72599 0.98956 0.0
H897 H 0.94003 0.72874 0.99295 0.0
H898 H 0.89777 0.67938 0.94076 0.0
H899 H 0.92768 0.74237 0.93923 0.0
H900 H 0.86773 0.67081 0.8965 0.0
H901 H 0.8554 0.66835 0.91958 0.0
H902 H 0.87242 0.6594 0.91743 0.0
H903 H 0.9168 0.75958 0.91919 0.0
H904 H 0.89056 0.74667 0.91519 0.0
H905 H 0.90618 0.74716 0.89565 0.0
H906 H 0.94776 0.70953 0.79162 0.0
H907 H 0.91482 0.69466 0.78513 0.0
H908 H 0.9347 0.75654 0.78637 0.0
H909 H 0.87896 0.67994 0.8198 0.0
H910 H 0.88388 0.67114 0.79673 0.0
H911 H 0.86557 0.67862 0.79756 0.0
H912 H 0.9165 0.7698 0.80094 0.0
H913 H 0.90162 0.75585 0.8215 0.0
H914 H 0.89043 0.7537 0.79754 0.0
H915 H 0.78256 0.72904 0.76257 0.0
H916 H 0.75594 0.72898 0.7833 0.0
H917 H 0.77221 0.72455 0.79842 0.0
H918 H 0.74851 0.70428 0.79116 0.0
H919 H 0.78366 0.67381 0.77769 0.0
H920 H 0.80524 0.73575 0.78644 0.0
H921 H 0.81277 0.66902 0.81389 0.0
H922 H 0.82656 0.67391 0.7915 0.0
H923 H 0.80026 0.65819 0.79043 0.0
H924 H 0.83476 0.75676 0.80328 0.0
H925 H 0.85276 0.74889 0.80257 0.0
H926 H 0.83825 0.74471 0.82432 0.0
H927 H 0.8527 0.70236 0.92569 0.0
H928 H 0.90137 0.71401 0.87667 0.0
H929 H 0.9032 0.71748 0.84114 0.0
H930 H 0.85934 0.71478 0.78918 0.0
H931 H 0.81091 0.70357 0.83843 0.0
H932 H 0.80924 0.70043 0.87397 0.0
H933 H 0.98322 0.74823 0.77858 0.0
H934 H 0.98387 0.72848 0.79153 0.0
H935 H 0.97344 0.74193 0.80327 0.0
C936 C 0.88635 0.64034 0.36512 0.0
C937 C 0.89907 0.65351 0.38257 0.0
C938 C 0.88174 0.6422 0.4136 0.0
C939 C 0.88374 0.65962 0.42205 0.0
C940 C 0.86957 0.6591 0.43502 0.0
C941 C 0.85302 0.64076 0.43954 0.0
C942 C 0.85151 0.6231 0.43179 0.0
C943 C 0.86609 0.62406 0.41909 0.0
C944 C 0.87196 0.6782 0.44338 0.0
C945 C 0.83411 0.60329 0.4363 0.0
C946 C 0.73414 0.65956 0.37922 0.0
C947 C 0.74437 0.6496 0.38789 0.0
C948 C 0.77162 0.65721 0.41109 0.0
C949 C 0.76691 0.63754 0.41363 0.0
C950 C 0.77827 0.63297 0.42636 0.0
C951 C 0.79462 0.64834 0.43673 0.0
C952 C 0.79924 0.6681 0.43437 0.0
C953 C 0.78766 0.67225 0.42156 0.0
C954 C 0.77295 0.61174 0.42859 0.0
C955 C 0.81657 0.68486 0.4452 0.0
C956 C 0.75201 0.63519 0.56443 0.0
C957 C 0.74975 0.61697 0.55791 0.0
C958 C 0.76477 0.61606 0.54754 0.0
C959 C 0.78245 0.63365 0.54376 0.0
C960 C 0.78488 0.65194 0.55058 0.0
C961 C 0.76959 0.65244 0.56074 0.0
C962 C 0.76173 0.5963 0.54052 0.0
C963 C 0.80361 0.67098 0.54706 0.0
C964 C 0.90682 0.61118 0.56247 0.0
C965 C 0.90206 0.62565 0.57319 0.0
C966 C 0.86895 0.62003 0.56745 0.0
C967 C 0.85061 0.60414 0.56205 0.0
C968 C 0.83681 0.607 0.55148 0.0
C969 C 0.84138 0.62634 0.54665 0.0
C970 C 0.85952 0.6426 0.55309 0.0
C971 C 0.87316 0.63927 0.56341 0.0
C972 C 0.81752 0.58935 0.5451 0.0
C973 C 0.8646 0.66346 0.54884 0.0
C974 C 0.83651 0.64026 0.4507 0.0
C975 C 0.82312 0.64344 0.4399 0.0
C976 C 0.80754 0.64389 0.44923 0.0
C977 C 0.80497 0.64088 0.46999 0.0
C978 C 0.78938 0.64112 0.47985 0.0
C979 C 0.78714 0.63841 0.50035 0.0
C980 C 0.80044 0.63543 0.5118 0.0
C981 C 0.79844 0.63295 0.53269 0.0
C982 C 0.81198 0.63003 0.54358 0.0
C983 C 0.82753 0.62949 0.53419 0.0
C984 C 0.82975 0.63195 0.51332 0.0
C985 C 0.84522 0.63147 0.50338 0.0
C986 C 0.84749 0.63423 0.4829 0.0
C987 C 0.83427 0.63733 0.47151 0.0
C988 C 0.81844 0.63766 0.48118 0.0
C989 C 0.81619 0.63498 0.50211 0.0
C990 C 0.70545 0.61544 0.56064 0.0
C991 C 0.71913 0.62222 0.57905 0.0
O992 O 0.89451 0.64262 0.39982 0.0
O993 O 0.8821 0.61633 0.57677 0.0
O994 O 0.7378 0.63697 0.57415 0.0
O995 O 0.76121 0.66235 0.39875 0.0
H996 H 0.89543 0.6655 0.38423 0.0
H997 H 0.87066 0.63503 0.36815 0.0
H998 H 0.88822 0.6273 0.36294 0.0
H999 H 0.89019 0.64879 0.35112 0.0
H1000 H 0.89627 0.67363 0.4183 0.0
H1001 H 0.86485 0.61067 0.41268 0.0
H1002 H 0.86102 0.68119 0.43615 0.0
H1003 H 0.88683 0.69087 0.44079 0.0
H1004 H 0.86921 0.67708 0.45966 0.0
H1005 H 0.83513 0.59093 0.42917 0.0
H1006 H 0.82043 0.60269 0.43095 0.0
H1007 H 0.83297 0.60123 0.45267 0.0
H1008 H 0.74658 0.63974 0.37734 0.0
H1009 H 0.7076 0.64709 0.39434 0.0
H1010 H 0.73491 0.65795 0.36257 0.0
H1011 H 0.74499 0.67586 0.37974 0.0
H1012 H 0.75451 0.62572 0.40563 0.0
H1013 H 0.79115 0.68736 0.41957 0.0
H1014 H 0.7851 0.60968 0.42312 0.0
H1015 H 0.7593 0.6014 0.4202 0.0
H1016 H 0.77098 0.60792 0.44461 0.0
H1017 H 0.81796 0.69939 0.44209 0.0
H1018 H 0.83025 0.68517 0.44065 0.0
H1019 H 0.81514 0.68254 0.46153 0.0
H1020 H 0.71993 0.60943 0.58491 0.0
H1021 H 0.73634 0.60342 0.56072 0.0
H1022 H 0.77128 0.66642 0.56587 0.0
H1023 H 0.7638 0.59635 0.52415 0.0
H1024 H 0.74691 0.58401 0.54402 0.0
H1025 H 0.77286 0.59357 0.54773 0.0
H1026 H 0.8035 0.68392 0.55398 0.0
H1027 H 0.80582 0.67328 0.53077 0.0
H1028 H 0.81629 0.67013 0.55324 0.0
H1029 H 0.90645 0.63818 0.56297 0.0
H1030 H 0.92276 0.61836 0.55949 0.0
H1031 H 0.89871 0.60636 0.54796 0.0
H1032 H 0.90249 0.59792 0.57152 0.0
H1033 H 0.84738 0.58938 0.56562 0.0
H1034 H 0.88701 0.65169 0.56841 0.0
H1035 H 0.81555 0.58919 0.52866 0.0
H1036 H 0.80531 0.59039 0.55207 0.0
H1037 H 0.8165 0.57523 0.54938 0.0
H1038 H 0.87835 0.67452 0.5566 0.0
H1039 H 0.85248 0.66595 0.55352 0.0
H1040 H 0.86641 0.66586 0.53254 0.0
H1041 H 0.82503 0.64587 0.42398 0.0
H1042 H 0.77874 0.64343 0.47182 0.0
H1043 H 0.77486 0.63875 0.50712 0.0
H1044 H 0.81043 0.62822 0.55959 0.0
H1045 H 0.85582 0.62906 0.51133 0.0
H1046 H 0.85975 0.63388 0.47608 0.0
H1047 H 0.69046 0.60391 0.56476 0.0
H1048 H 0.71075 0.60906 0.54901 0.0
H1049 H 0.70468 0.62798 0.55411 0.0
C1050 C 0.37773 0.29094 0.42021 0.0
C1051 C 0.36547 0.27543 0.40402 0.0
C1052 C 0.35599 0.2445 0.42165 0.0
C1053 C 0.34044 0.2289 0.4312 0.0
C1054 C 0.34291 0.2146 0.44097 0.0
C1055 C 0.36153 0.21598 0.44121 0.0
C1056 C 0.37738 0.23166 0.43146 0.0
C1057 C 0.37446 0.24577 0.4217 0.0
C1058 C 0.32561 0.19802 0.45109 0.0
C1059 C 0.3974 0.23353 0.43149 0.0
C1060 C 0.34854 0.07626 0.38443 0.0
C1061 C 0.35887 0.09707 0.39216 0.0
C1062 C 0.35062 0.11898 0.41118 0.0
C1063 C 0.37003 0.13361 0.41575 0.0
C1064 C 0.37399 0.14992 0.42811 0.0
C1065 C 0.35824 0.15151 0.43613 0.0
C1066 C 0.33871 0.13673 0.43161 0.0
C1067 C 0.33519 0.12073 0.41909 0.0
C1068 C 0.39497 0.16548 0.43259 0.0
C1069 C 0.32155 0.13786 0.43999 0.0
C1070 C 0.36339 0.11766 0.56293 0.0
C1071 C 0.38201 0.13427 0.56051 0.0
C1072 C 0.38411 0.15101 0.55092 0.0
C1073 C 0.36724 0.15121 0.54383 0.0
C1074 C 0.34845 0.13457 0.54647 0.0
C1075 C 0.34683 0.1179 0.55573 0.0
C1076 C 0.40435 0.16843 0.54825 0.0
C1077 C 0.33008 0.13439 0.53954 0.0
C1078 C 0.38973 0.2976 0.56481 0.0
C1079 C 0.37488 0.2792 0.57568 0.0
C1080 C 0.38031 0.25138 0.57041 0.0
C1081 C 0.39638 0.24897 0.56641 0.0
C1082 C 0.39413 0.23257 0.5553 0.0
C1083 C 0.37522 0.21804 0.54846 0.0
C1084 C 0.35874 0.21987 0.55346 0.0
C1085 C 0.36146 0.23656 0.56437 0.0
C1086 C 0.41199 0.23097 0.55053 0.0
C1087 C 0.33828 0.2043 0.54707 0.0
C1088 C 0.36419 0.20079 0.45146 0.0
C1089 C 0.36191 0.18463 0.44009 0.0
C1090 C 0.36209 0.16873 0.44905 0.0
C1091 C 0.36458 0.16887 0.46999 0.0
C1092 C 0.36434 0.15292 0.47956 0.0
C1093 C 0.36613 0.15292 0.50023 0.0
C1094 C 0.36814 0.16882 0.51215 0.0
C1095 C 0.36921 0.16859 0.53321 0.0
C1096 C 0.37157 0.18481 0.54459 0.0
C1097 C 0.37277 0.20132 0.53551 0.0
C1098 C 0.37137 0.20164 0.51446 0.0
C1099 C 0.37222 0.21785 0.5048 0.0
C1100 C 0.37004 0.21769 0.48417 0.0
C1101 C 0.3672 0.20143 0.47235 0.0
C1102 C 0.36708 0.18527 0.48168 0.0
C1103 C 0.36896 0.18528 0.50277 0.0
C1104 C 0.3652 0.08346 0.5989 0.0
C1105 C 0.37426 0.10025 0.58494 0.0
O1106 O 0.35235 0.25783 0.41273 0.0
O1107 O 0.38341 0.26795 0.58043 0.0
O1108 O 0.36073 0.10132 0.57241 0.0
O1109 O 0.34606 0.10296 0.39932 0.0
H1110 H 0.37525 0.27295 0.39396 0.0
H1111 H 0.38635 0.28607 0.4292 0.0
H1112 H 0.36807 0.29346 0.4304 0.0
H1113 H 0.38819 0.30512 0.41333 0.0
H1114 H 0.32626 0.22803 0.43104 0.0
H1115 H 0.38663 0.25766 0.41424 0.0
H1116 H 0.32339 0.1836 0.44552 0.0
H1117 H 0.31186 0.19843 0.44854 0.0
H1118 H 0.32858 0.19897 0.4674 0.0
H1119 H 0.40845 0.24703 0.424 0.0
H1120 H 0.39655 0.22047 0.42374 0.0
H1121 H 0.40242 0.23382 0.44708 0.0
H1122 H 0.37016 0.10802 0.38216 0.0
H1123 H 0.35784 0.06193 0.40399 0.0
H1124 H 0.35172 0.07735 0.36801 0.0
H1125 H 0.33264 0.0718 0.38224 0.0
H1126 H 0.38211 0.13244 0.40964 0.0
H1127 H 0.32028 0.10935 0.4155 0.0
H1128 H 0.39744 0.18009 0.42798 0.0
H1129 H 0.40559 0.16236 0.42485 0.0
H1130 H 0.39789 0.16642 0.44891 0.0
H1131 H 0.30729 0.12453 0.43612 0.0
H1132 H 0.32143 0.15095 0.43404 0.0
H1133 H 0.32303 0.1397 0.45649 0.0
H1134 H 0.38736 0.10196 0.57692 0.0
H1135 H 0.39496 0.13419 0.56592 0.0
H1136 H 0.33253 0.10506 0.55775 0.0
H1137 H 0.40659 0.17254 0.53232 0.0
H1138 H 0.41607 0.16542 0.55325 0.0
H1139 H 0.40581 0.18129 0.55698 0.0
H1140 H 0.31659 0.12137 0.54491 0.0
H1141 H 0.32947 0.13413 0.52299 0.0
H1142 H 0.33025 0.14798 0.54488 0.0
H1143 H 0.36222 0.27096 0.56519 0.0
H1144 H 0.38317 0.30686 0.56101 0.0
H1145 H 0.39402 0.29319 0.55073 0.0
H1146 H 0.40315 0.30651 0.57413 0.0
H1147 H 0.41081 0.26031 0.57153 0.0
H1148 H 0.34887 0.23792 0.56828 0.0
H1149 H 0.41305 0.22965 0.53412 0.0
H1150 H 0.41056 0.21744 0.55716 0.0
H1151 H 0.42575 0.24388 0.55631 0.0
H1152 H 0.32689 0.20686 0.55385 0.0
H1153 H 0.33556 0.1895 0.55127 0.0
H1154 H 0.33679 0.20422 0.53058 0.0
H1155 H 0.35938 0.18414 0.42411 0.0
H1156 H 0.36261 0.14019 0.47119 0.0
H1157 H 0.36577 0.14019 0.50675 0.0
H1158 H 0.37232 0.18452 0.56074 0.0
H1159 H 0.37432 0.23076 0.51311 0.0
H1160 H 0.37056 0.23047 0.47758 0.0
H1161 H 0.37135 0.07369 0.59453 0.0
H1162 H 0.35001 0.07299 0.59287 0.0
H1163 H 0.37044 0.09741 0.62704 0.0
C1164 C 0.88922 0.25058 0.36798 0.0
C1165 C 0.90287 0.26058 0.38612 0.0
C1166 C 0.88449 0.23613 0.41187 0.0
C1167 C 0.86913 0.24028 0.41389 0.0
C1168 C 0.85277 0.2284 0.42555 0.0
C1169 C 0.85177 0.21211 0.43543 0.0
C1170 C 0.86744 0.20821 0.43382 0.0
C1171 C 0.88361 0.22034 0.42214 0.0
C1172 C 0.83644 0.23312 0.4272 0.0
C1173 C 0.86694 0.19102 0.44418 0.0
C1174 C 0.71384 0.09114 0.41785 0.0
C1175 C 0.72718 0.09173 0.40095 0.0
C1176 C 0.75933 0.11545 0.41636 0.0
C1177 C 0.77524 0.11634 0.42661 0.0
C1178 C 0.7894 0.13377 0.43619 0.0
C1179 C 0.78759 0.15084 0.43541 0.0
C1180 C 0.77182 0.15026 0.42456 0.0
C1181 C 0.75784 0.13255 0.41503 0.0
C1182 C 0.80611 0.13384 0.44745 0.0
C1183 C 0.76961 0.16827 0.42338 0.0
C1184 C 0.74618 0.13491 0.56156 0.0
C1185 C 0.76093 0.13053 0.5567 0.0
C1186 C 0.77784 0.14425 0.54683 0.0
C1187 C 0.77998 0.16268 0.54168 0.0
C1188 C 0.76547 0.16739 0.54728 0.0
C1189 C 0.74884 0.15349 0.55735 0.0
C1190 C 0.79336 0.13902 0.54177 0.0
C1191 C 0.76739 0.18699 0.54231 0.0
C1192 C 0.91502 0.29364 0.55983 0.0
C1193 C 0.90496 0.28118 0.578 0.0
C1194 C 0.88122 0.24837 0.56384 0.0
C1195 C 0.87767 0.22917 0.56085 0.0
C1196 C 0.8609 0.21493 0.55046 0.0
C1197 C 0.84722 0.22004 0.54299 0.0
C1198 C 0.85041 0.23931 0.54635 0.0
C1199 C 0.86747 0.25336 0.5566 0.0
C1200 C 0.85794 0.1945 0.54717 0.0
C1201 C 0.83595 0.24511 0.53877 0.0
C1202 C 0.83408 0.19873 0.44688 0.0
C1203 C 0.81865 0.18276 0.4366 0.0
C1204 C 0.80198 0.16899 0.44654 0.0
C1205 C 0.80025 0.17146 0.46724 0.0
C1206 C 0.7834 0.15823 0.47756 0.0
C1207 C 0.78219 0.16022 0.49809 0.0
C1208 C 0.79792 0.17531 0.50915 0.0
C1209 C 0.79722 0.17689 0.53017 0.0
C1210 C 0.8133 0.19188 0.54071 0.0
C1211 C 0.83012 0.20545 0.53082 0.0
C1212 C 0.83095 0.20432 0.50979 0.0
C1213 C 0.84759 0.21788 0.49937 0.0
C1214 C 0.84848 0.21635 0.47873 0.0
C1215 C 0.83294 0.20099 0.46775 0.0
C1216 C 0.81594 0.18729 0.47794 0.0
C1217 C 0.81487 0.18907 0.49896 0.0
C1218 C 0.69897 0.09608 0.55746 0.0
C1219 C 0.71894 0.10158 0.56669 0.0
O1220 O 0.90029 0.24667 0.40015 0.0
O1221 O 0.89813 0.26144 0.57356 0.0
O1222 O 0.72941 0.12175 0.57058 0.0
O1223 O 0.74592 0.09775 0.40814 0.0
H1224 H 0.89961 0.27161 0.39304 0.0
H1225 H 0.87364 0.24333 0.37236 0.0
H1226 H 0.89207 0.23924 0.36115 0.0
H1227 H 0.89153 0.26166 0.35661 0.0
H1228 H 0.86969 0.25265 0.40635 0.0
H1229 H 0.89557 0.21732 0.42064 0.0
H1230 H 0.8227 0.22068 0.42077 0.0
H1231 H 0.83974 0.24678 0.41933 0.0
H1232 H 0.83379 0.23488 0.44316 0.0
H1233 H 0.8804 0.19012 0.44164 0.0
H1234 H 0.85406 0.17707 0.43869 0.0
H1235 H 0.86528 0.19229 0.46048 0.0
H1236 H 0.72792 0.10213 0.38943 0.0
H1237 H 0.69865 0.08542 0.41204 0.0
H1238 H 0.719 0.10611 0.42429 0.0
H1239 H 0.71357 0.08154 0.42999 0.0
H1240 H 0.77634 0.1031 0.42736 0.0
H1241 H 0.74582 0.13216 0.40672 0.0
H1242 H 0.80506 0.13649 0.4636 0.0
H1243 H 0.82032 0.14599 0.44229 0.0
H1244 H 0.80608 0.1197 0.44555 0.0
H1245 H 0.75654 0.16547 0.41437 0.0
H1246 H 0.78288 0.18049 0.41668 0.0
H1247 H 0.76834 0.17321 0.43865 0.0
H1248 H 0.72645 0.09723 0.55537 0.0
H1249 H 0.75936 0.1165 0.56077 0.0
H1250 H 0.73754 0.15686 0.56153 0.0
H1251 H 0.79413 0.13779 0.52532 0.0
H1252 H 0.79034 0.12485 0.54831 0.0
H1253 H 0.80793 0.15086 0.54726 0.0
H1254 H 0.75449 0.18813 0.54707 0.0
H1255 H 0.76915 0.18924 0.52598 0.0
H1256 H 0.78073 0.19906 0.54979 0.0
H1257 H 0.8925 0.28327 0.58229 0.0
H1258 H 0.9206 0.30949 0.5634 0.0
H1259 H 0.90446 0.28923 0.5471 0.0
H1260 H 0.92746 0.29165 0.55519 0.0
H1261 H 0.88832 0.22544 0.56651 0.0
H1262 H 0.86993 0.26815 0.55864 0.0
H1263 H 0.85672 0.19093 0.53093 0.0
H1264 H 0.84402 0.18352 0.55402 0.0
H1265 H 0.87013 0.19297 0.55366 0.0
H1266 H 0.83973 0.26018 0.54392 0.0
H1267 H 0.82099 0.23448 0.54386 0.0
H1268 H 0.83558 0.24455 0.52221 0.0
H1269 H 0.81993 0.18064 0.42075 0.0
H1270 H 0.77094 0.14615 0.46988 0.0
H1271 H 0.76886 0.14957 0.50522 0.0
H1272 H 0.81284 0.1928 0.55685 0.0
H1273 H 0.86015 0.22983 0.50705 0.0
H1274 H 0.86166 0.22718 0.47153 0.0
H1275 H 0.69032 0.07995 0.55425 0.0
H1276 H 0.70107 0.10386 0.54321 0.0
H1277 H 0.69054 0.10033 0.56761 0.0
C1278 C 0.99221 0.43586 0.31068 0.0
C1279 C 0.99164 0.42312 0.29277 0.0
C1280 C 1.00024 0.44686 0.26565 0.0
C1281 C 0.98188 0.4457 0.26383 0.0
C1282 C 0.97929 0.45853 0.25145 0.0
C1283 C 0.9954 0.47301 0.24088 0.0
C1284 C 0.01386 0.47412 0.24254 0.0
C1285 C 0.01594 0.46084 0.25473 0.0
C1286 C 0.95934 0.45677 0.24985 0.0
C1287 C 0.03142 0.4895 0.23168 0.0
C1288 C 0.01366 0.6174 0.28318 0.0
C1289 C 0.00839 0.60257 0.26659 0.0
C1290 C 0.99633 0.56745 0.26197 0.0
C1291 C 0.01287 0.56819 0.25326 0.0
C1292 C 0.01126 0.55203 0.24224 0.0
C1293 C 0.99281 0.53465 0.24012 0.0
C1294 C 0.97625 0.53362 0.24942 0.0
C1295 C 0.97827 0.55003 0.26036 0.0
C1296 C 0.02931 0.55347 0.23291 0.0
C1297 C 0.95642 0.51521 0.24769 0.0
C1298 C 0.95919 0.54508 0.11447 0.0
C1299 C 0.97898 0.55111 0.11817 0.0
C1300 C 0.98436 0.53858 0.12762 0.0
C1301 C 0.96958 0.51979 0.13377 0.0
C1302 C 0.94965 0.51347 0.12936 0.0
C1303 C 0.94476 0.52613 0.11948 0.0
C1304 C 0.00579 0.54549 0.13123 0.0
C1305 C 0.93348 0.49345 0.13533 0.0
C1306 C 0.96153 0.38392 0.12286 0.0
C1307 C 0.96492 0.39441 0.10293 0.0
C1308 C 0.97824 0.42916 0.11396 0.0
C1309 C 0.99541 0.44744 0.11565 0.0
C1310 C 0.99562 0.46357 0.12536 0.0
C1311 C 0.97816 0.4613 0.13361 0.0
C1312 C 0.96057 0.44299 0.13151 0.0
C1313 C 0.96075 0.4271 0.12166 0.0
C1314 C 0.01459 0.48294 0.12715 0.0
C1315 C 0.94166 0.44013 0.14004 0.0
C1316 C 0.99303 0.48742 0.22876 0.0
C1317 C 0.99396 0.5037 0.23873 0.0
C1318 C 0.99101 0.51745 0.22854 0.0
C1319 C 0.98686 0.5149 0.20778 0.0
C1320 C 0.98319 0.52808 0.19716 0.0
C1321 C 0.97902 0.52539 0.17675 0.0
C1322 C 0.9788 0.50965 0.16605 0.0
C1323 C 0.9748 0.50691 0.14524 0.0
C1324 C 0.9749 0.49118 0.1351 0.0
C1325 C 0.97848 0.4778 0.14523 0.0
C1326 C 0.98214 0.4801 0.16608 0.0
C1327 C 0.98534 0.46664 0.17681 0.0
C1328 C 0.98874 0.4689 0.19734 0.0
C1329 C 0.98942 0.4849 0.20791 0.0
C1330 C 0.98629 0.49868 0.1974 0.0
C1331 C 0.98247 0.49618 0.17648 0.0
C1332 C 0.94468 0.57848 0.12258 0.0
C1333 C 0.96063 0.57671 0.11141 0.0
O1334 O 0.00356 0.43502 0.27779 0.0
O1335 O 0.97941 0.41405 0.10502 0.0
O1336 O 0.9536 0.55713 0.10591 0.0
O1337 O 0.99742 0.58308 0.27226 0.0
H1338 H 0.97636 0.41417 0.28694 0.0
H1339 H 0.98661 0.44577 0.30628 0.0
H1340 H 0.00747 0.44504 0.31651 0.0
H1341 H 0.98285 0.42642 0.32279 0.0
H1342 H 0.96948 0.43491 0.27201 0.0
H1343 H 0.03003 0.46161 0.25614 0.0
H1344 H 0.95994 0.47001 0.25687 0.0
H1345 H 0.94786 0.4435 0.2573 0.0
H1346 H 0.95503 0.45613 0.23392 0.0
H1347 H 0.045 0.48913 0.23541 0.0
H1348 H 0.0338 0.50441 0.23547 0.0
H1349 H 0.02868 0.4871 0.21533 0.0
H1350 H 0.0206 0.60548 0.25637 0.0
H1351 H 0.03011 0.62512 0.2845 0.0
H1352 H 0.01109 0.6092 0.2975 0.0
H1353 H 0.99851 0.632 0.27545 0.0
H1354 H 0.02713 0.58122 0.25529 0.0
H1355 H 0.96566 0.54946 0.26741 0.0
H1356 H 0.02693 0.55078 0.21654 0.0
H1357 H 0.03203 0.54191 0.23895 0.0
H1358 H 0.04257 0.56809 0.23572 0.0
H1359 H 0.94493 0.5168 0.25563 0.0
H1360 H 0.95726 0.50262 0.25396 0.0
H1361 H 0.95201 0.51159 0.23172 0.0
H1362 H 0.97328 0.58195 0.122 0.0
H1363 H 0.99022 0.56553 0.11354 0.0
H1364 H 0.92956 0.52151 0.11619 0.0
H1365 H 0.00926 0.5484 0.14744 0.0
H1366 H 0.01545 0.5592 0.12318 0.0
H1367 H 0.00913 0.53385 0.12644 0.0
H1368 H 0.91869 0.4915 0.13252 0.0
H1369 H 0.93499 0.49118 0.15142 0.0
H1370 H 0.93467 0.48186 0.12672 0.0
H1371 H 0.95101 0.39349 0.09781 0.0
H1372 H 0.95036 0.36807 0.12089 0.0
H1373 H 0.95611 0.39047 0.13416 0.0
H1374 H 0.97533 0.38514 0.12874 0.0
H1375 H 0.00879 0.44896 0.10954 0.0
H1376 H 0.94725 0.41315 0.12027 0.0
H1377 H 0.01873 0.4868 0.14315 0.0
H1378 H 0.01262 0.49484 0.12075 0.0
H1379 H 0.0268 0.48249 0.1194 0.0
H1380 H 0.92908 0.42518 0.13664 0.0
H1381 H 0.93832 0.45124 0.13395 0.0
H1382 H 0.94329 0.44245 0.15649 0.0
H1383 H 0.99695 0.50567 0.25468 0.0
H1384 H 0.98334 0.54056 0.20456 0.0
H1385 H 0.9761 0.5359 0.16945 0.0
H1386 H 0.97188 0.48918 0.11915 0.0
H1387 H 0.98515 0.45412 0.16947 0.0
H1388 H 0.99095 0.458 0.20481 0.0
H1389 H 0.93123 0.57299 0.11312 0.0
H1390 H 0.94999 0.59409 0.12707 0.0
H1391 H 0.94084 0.5696 0.13628 0.0
C1392 C 0.45035 0.4135 0.31795 0.0
C1393 C 0.43867 0.41737 0.30205 0.0
C1394 C 0.45363 0.42418 0.26964 0.0
C1395 C 0.45082 0.43949 0.26306 0.0
C1396 C 0.4641 0.45362 0.25005 0.0
C1397 C 0.48068 0.45253 0.24374 0.0
C1398 C 0.48306 0.43657 0.24972 0.0
C1399 C 0.46926 0.42238 0.26238 0.0
C1400 C 0.46075 0.47008 0.24362 0.0
C1401 C 0.50058 0.43496 0.24342 0.0
C1402 C 0.60263 0.59659 0.29816 0.0
C1403 C 0.59285 0.57636 0.28893 0.0
C1404 C 0.56253 0.55357 0.27064 0.0
C1405 C 0.56818 0.53958 0.26577 0.0
C1406 C 0.55587 0.52273 0.25404 0.0
C1407 C 0.53768 0.51992 0.24685 0.0
C1408 C 0.53203 0.53403 0.25166 0.0
C1409 C 0.5445 0.55061 0.26359 0.0
C1410 C 0.56229 0.50793 0.24927 0.0
C1411 C 0.51284 0.53162 0.24413 0.0
C1412 C 0.5777 0.5504 0.12061 0.0
C1413 C 0.58039 0.53463 0.12599 0.0
C1414 C 0.56548 0.51818 0.13549 0.0
C1415 C 0.54751 0.51743 0.13956 0.0
C1416 C 0.54472 0.53322 0.134 0.0
C1417 C 0.55995 0.54959 0.12476 0.0
C1418 C 0.56899 0.50167 0.14139 0.0
C1419 C 0.5257 0.53284 0.13795 0.0
C1420 C 0.42882 0.36731 0.11118 0.0
C1421 C 0.43269 0.38758 0.10474 0.0
C1422 C 0.46473 0.41623 0.11231 0.0
C1423 C 0.4835 0.41988 0.11737 0.0
C1424 C 0.49631 0.4364 0.1292 0.0
C1425 C 0.49032 0.44987 0.13565 0.0
C1426 C 0.47165 0.44674 0.12974 0.0
C1427 C 0.45899 0.42987 0.11821 0.0
C1428 C 0.51618 0.43936 0.13495 0.0
C1429 C 0.46506 0.46118 0.13563 0.0
C1430 C 0.49636 0.46904 0.23254 0.0
C1431 C 0.50963 0.48591 0.24353 0.0
C1432 C 0.52457 0.5023 0.23422 0.0
C1433 C 0.52654 0.5019 0.2133 0.0
C1434 C 0.54141 0.51812 0.20346 0.0
C1435 C 0.54326 0.51764 0.18288 0.0
C1436 C 0.53019 0.50099 0.17128 0.0
C1437 C 0.5319 0.50049 0.15031 0.0
C1438 C 0.51865 0.48373 0.1392 0.0
C1439 C 0.50366 0.46727 0.14845 0.0
C1440 C 0.50173 0.46751 0.16945 0.0
C1441 C 0.48688 0.45126 0.17933 0.0
C1442 C 0.48499 0.45175 0.19996 0.0
C1443 C 0.49807 0.46839 0.21155 0.0
C1444 C 0.51324 0.48489 0.20193 0.0
C1445 C 0.51505 0.48446 0.18086 0.0
C1446 C 0.61667 0.5842 0.08723 0.0
C1447 C 0.60826 0.56825 0.10218 0.0
O1448 O 0.44177 0.41143 0.28347 0.0
O1449 O 0.45259 0.39955 0.10161 0.0
O1450 O 0.59172 0.56654 0.11131 0.0
O1451 O 0.57394 0.57005 0.282 0.0
H1452 H 0.44465 0.4336 0.30265 0.0
H1453 H 0.46629 0.42286 0.31526 0.0
H1454 H 0.44675 0.39787 0.31745 0.0
H1455 H 0.44728 0.41725 0.33306 0.0
H1456 H 0.43838 0.4405 0.26837 0.0
H1457 H 0.47115 0.41035 0.26744 0.0
H1458 H 0.4713 0.48389 0.25172 0.0
H1459 H 0.44566 0.46698 0.24687 0.0
H1460 H 0.46333 0.47258 0.22739 0.0
H1461 H 0.5006 0.422 0.24987 0.0
H1462 H 0.51429 0.44851 0.24817 0.0
H1463 H 0.50067 0.43371 0.22691 0.0
H1464 H 0.59398 0.56509 0.29787 0.0
H1465 H 0.60518 0.59455 0.31427 0.0
H1466 H 0.59071 0.60018 0.30137 0.0
H1467 H 0.62559 0.61301 0.27883 0.0
H1468 H 0.58211 0.54168 0.2711 0.0
H1469 H 0.54027 0.56146 0.26739 0.0
H1470 H 0.55089 0.49304 0.25388 0.0
H1471 H 0.5764 0.5117 0.25679 0.0
H1472 H 0.56401 0.50719 0.2329 0.0
H1473 H 0.51112 0.5445 0.24817 0.0
H1474 H 0.50053 0.51824 0.25055 0.0
H1475 H 0.51173 0.52956 0.22765 0.0
H1476 H 0.61901 0.56807 0.11295 0.0
H1477 H 0.59414 0.53518 0.12299 0.0
H1478 H 0.55801 0.5618 0.12051 0.0
H1479 H 0.56694 0.49936 0.15769 0.0
H1480 H 0.58394 0.50467 0.13763 0.0
H1481 H 0.55809 0.48777 0.13366 0.0
H1482 H 0.52538 0.54568 0.13156 0.0
H1483 H 0.52351 0.53289 0.15429 0.0
H1484 H 0.51322 0.51908 0.13152 0.0
H1485 H 0.42791 0.3935 0.11736 0.0
H1486 H 0.4129 0.35738 0.1136 0.0
H1487 H 0.43682 0.36884 0.12542 0.0
H1488 H 0.43389 0.36049 0.09975 0.0
H1489 H 0.48789 0.40941 0.11245 0.0
H1490 H 0.44473 0.42747 0.11362 0.0
H1491 H 0.51858 0.44172 0.15135 0.0
H1492 H 0.52774 0.45274 0.12774 0.0
H1493 H 0.5179 0.42661 0.13033 0.0
H1494 H 0.45098 0.45766 0.12823 0.0
H1495 H 0.47642 0.47636 0.13176 0.0
H1496 H 0.46316 0.46099 0.15203 0.0
H1497 H 0.5082 0.48637 0.2596 0.0
H1498 H 0.55184 0.53139 0.21157 0.0
H1499 H 0.55506 0.53056 0.17618 0.0
H1500 H 0.52005 0.48347 0.12312 0.0
H1501 H 0.47648 0.43799 0.1712 0.0
H1502 H 0.47318 0.43889 0.20673 0.0
H1503 H 0.61218 0.56882 0.06001 0.0
H1504 H 0.63172 0.59508 0.09328 0.0
H1505 H 0.61035 0.59407 0.09038 0.0
C1506 C 0.44458 0.00076 0.31389 0.0
C1507 C 0.43233 0.00417 0.29827 0.0
C1508 C 0.44521 0.99727 0.26776 0.0
C1509 C 0.46125 0.01626 0.26512 0.0
C1510 C 0.47634 0.01935 0.25207 0.0
C1511 C 0.47559 0.0031 0.24169 0.0
C1512 C 0.45925 0.98402 0.24392 0.0
C1513 C 0.44411 0.98143 0.2567 0.0
C1514 C 0.49329 0.03999 0.24966 0.0
C1515 C 0.45807 0.96632 0.23327 0.0
C1516 C 0.58451 0.02973 0.32083 0.0
C1517 C 0.58052 0.01463 0.30401 0.0
C1518 C 0.57208 0.02067 0.27101 0.0
C1519 C 0.55794 0.00146 0.26499 0.0
C1520 C 0.54336 0.99819 0.25081 0.0
C1521 C 0.54288 0.0145 0.24264 0.0
C1522 C 0.55772 0.0339 0.24804 0.0
C1523 C 0.57236 0.0367 0.26194 0.0
C1524 C 0.52812 0.97733 0.24501 0.0
C1525 C 0.55764 0.05168 0.23981 0.0
C1526 C 0.58286 0.03338 0.11714 0.0
C1527 C 0.5681 0.01377 0.11974 0.0
C1528 C 0.55031 0.00942 0.12862 0.0
C1529 C 0.54729 0.025 0.13502 0.0
C1530 C 0.56178 0.04474 0.13149 0.0
C1531 C 0.57932 0.04864 0.12237 0.0
C1532 C 0.53489 0.98819 0.1315 0.0
C1533 C 0.55894 0.06172 0.13783 0.0
C1534 C 0.41843 0.03154 0.1285 0.0
C1535 C 0.42744 0.03192 0.1082 0.0
C1536 C 0.44923 0.01856 0.11596 0.0
C1537 C 0.45089 0.00162 0.11481 0.0
C1538 C 0.46656 0.00094 0.12416 0.0
C1539 C 0.48104 0.01778 0.13475 0.0
C1540 C 0.47987 0.03523 0.13539 0.0
C1541 C 0.46391 0.03542 0.12613 0.0
C1542 C 0.46738 0.98212 0.12313 0.0
C1543 C 0.49528 0.0536 0.14623 0.0
C1544 C 0.4926 0.00597 0.22971 0.0
C1545 C 0.50881 0.00756 0.24005 0.0
C1546 C 0.52585 0.01133 0.23015 0.0
C1547 C 0.52668 0.01311 0.20918 0.0
C1548 C 0.54341 0.01644 0.19868 0.0
C1549 C 0.54434 0.01883 0.17812 0.0
C1550 C 0.52853 0.01791 0.16724 0.0
C1551 C 0.5295 0.02075 0.14639 0.0
C1552 C 0.51369 0.02023 0.13614 0.0
C1553 C 0.4968 0.01686 0.14617 0.0
C1554 C 0.49541 0.01356 0.16694 0.0
C1555 C 0.47851 0.00982 0.17744 0.0
C1556 C 0.4775 0.00723 0.19796 0.0
C1557 C 0.49331 0.00818 0.20879 0.0
C1558 C 0.51041 0.01171 0.19849 0.0
C1559 C 0.5114 0.01427 0.17752 0.0
C1560 C 0.62799 0.04292 0.12904 0.0
C1561 C 0.61163 0.02942 0.11428 0.0
O1562 O 0.43067 0.99356 0.28083 0.0
O1563 O 0.43318 0.01781 0.10725 0.0
O1564 O 0.60051 0.03805 0.10935 0.0
O1565 O 0.58524 0.02411 0.28591 0.0
H1566 H 0.43953 0.02012 0.2951 0.0
H1567 H 0.45963 0.00605 0.30837 0.0
H1568 H 0.43779 0.98481 0.31705 0.0
H1569 H 0.44578 0.00899 0.32799 0.0
H1570 H 0.46218 0.02881 0.2731 0.0
H1571 H 0.43162 0.96685 0.25867 0.0
H1572 H 0.50663 0.04127 0.25686 0.0
H1573 H 0.49043 0.05131 0.25652 0.0
H1574 H 0.4964 0.04317 0.2336 0.0
H1575 H 0.4447 0.95238 0.23712 0.0
H1576 H 0.47116 0.96512 0.23716 0.0
H1577 H 0.45805 0.96817 0.21689 0.0
H1578 H 0.56451 0.00394 0.30458 0.0
H1579 H 0.58163 0.02258 0.33556 0.0
H1580 H 0.57465 0.03595 0.31894 0.0
H1581 H 0.59987 0.0421 0.32066 0.0
H1582 H 0.55817 0.98904 0.27156 0.0
H1583 H 0.58353 0.05147 0.26654 0.0
H1584 H 0.51386 0.97386 0.25156 0.0
H1585 H 0.53214 0.96644 0.25035 0.0
H1586 H 0.52606 0.97573 0.22854 0.0
H1587 H 0.56951 0.06573 0.24647 0.0
H1588 H 0.54333 0.05077 0.24267 0.0
H1589 H 0.55952 0.05199 0.22341 0.0
H1590 H 0.6026 0.01532 0.12203 0.0
H1591 H 0.57038 0.00185 0.11477 0.0
H1592 H 0.59065 0.06371 0.11987 0.0
H1593 H 0.5333 0.98507 0.14768 0.0
H1594 H 0.53861 0.97778 0.12393 0.0
H1595 H 0.52048 0.98546 0.12566 0.0
H1596 H 0.57182 0.07624 0.13446 0.0
H1597 H 0.55625 0.06118 0.15411 0.0
H1598 H 0.54584 0.06042 0.13004 0.0
H1599 H 0.44037 0.04673 0.106 0.0
H1600 H 0.41361 0.04267 0.12916 0.0
H1601 H 0.42936 0.03507 0.1407 0.0
H1602 H 0.40561 0.01673 0.13108 0.0
H1603 H 0.43959 0.98872 0.10685 0.0
H1604 H 0.46302 0.04874 0.12712 0.0
H1605 H 0.4674 0.97696 0.13845 0.0
H1606 H 0.48122 0.98492 0.11605 0.0
H1607 H 0.45483 0.97021 0.1145 0.0
H1608 H 0.49357 0.06659 0.14335 0.0
H1609 H 0.51015 0.05698 0.14165 0.0
H1610 H 0.49425 0.05109 0.16253 0.0
H1611 H 0.50833 0.00633 0.25616 0.0
H1612 H 0.55602 0.01734 0.20629 0.0
H1613 H 0.55768 0.02156 0.17089 0.0
H1614 H 0.51467 0.02279 0.12023 0.0
H1615 H 0.46587 0.00893 0.16991 0.0
H1616 H 0.4642 0.00457 0.20527 0.0
H1617 H 0.63746 0.05769 0.12275 0.0
H1618 H 0.63718 0.03631 0.13292 0.0
H1619 H 0.62148 0.04482 0.14297 0.0
C1620 C 0.5895 0.98356 0.75677 0.0
C1621 C 0.5866 0.99495 0.73991 0.0
C1622 C 0.56714 0.00717 0.75758 0.0
C1623 C 0.56854 0.02374 0.76734 0.0
C1624 C 0.55289 0.02254 0.7783 0.0
C1625 C 0.53533 0.00425 0.77945 0.0
C1626 C 0.53363 0.98744 0.76934 0.0
C1627 C 0.54953 0.98907 0.75842 0.0
C1628 C 0.55516 0.0408 0.78878 0.0
C1629 C 0.51503 0.96775 0.77017 0.0
C1630 C 0.42789 0.99241 0.71256 0.0
C1631 C 0.41757 0.99514 0.73066 0.0
C1632 C 0.44437 0.00714 0.75583 0.0
C1633 C 0.4433 0.98892 0.75903 0.0
C1634 C 0.45746 0.98778 0.77088 0.0
C1635 C 0.47305 0.00516 0.77967 0.0
C1636 C 0.47402 0.02346 0.77676 0.0
C1637 C 0.45956 0.02417 0.76498 0.0
C1638 C 0.45587 0.96797 0.77389 0.0
C1639 C 0.49041 0.04227 0.78595 0.0
C1640 C 0.4342 0.98998 0.9054 0.0
C1641 C 0.43189 0.9731 0.89515 0.0
C1642 C 0.44785 0.9732 0.88583 0.0
C1643 C 0.46641 0.99059 0.88646 0.0
C1644 C 0.4689 0.00741 0.8972 0.0
C1645 C 0.45275 0.00681 0.90664 0.0
C1646 C 0.44478 0.95483 0.87489 0.0
C1647 C 0.48849 0.02617 0.89826 0.0
C1648 C 0.58694 0.9629 0.89214 0.0
C1649 C 0.58483 0.97757 0.90578 0.0
C1650 C 0.55255 0.97457 0.90329 0.0
C1651 C 0.53378 0.95959 0.89768 0.0
C1652 C 0.52034 0.96391 0.88848 0.0
C1653 C 0.52571 0.98381 0.88534 0.0
C1654 C 0.5443 0.9991 0.8921 0.0
C1655 C 0.55758 0.99431 0.90093 0.0
C1656 C 0.50056 0.94721 0.88175 0.0
C1657 C 0.55022 0.02047 0.88972 0.0
C1658 C 0.51875 0.00276 0.79125 0.0
C1659 C 0.50435 0.00501 0.7813 0.0
C1660 C 0.48853 0.00412 0.79152 0.0
C1661 C 0.48721 0.00141 0.81238 0.0
C1662 C 0.47186 0.00111 0.82323 0.0
C1663 C 0.47059 0.99824 0.84371 0.0
C1664 C 0.48439 0.99513 0.85408 0.0
C1665 C 0.48284 0.99156 0.8748 0.0
C1666 C 0.49669 0.98833 0.88461 0.0
C1667 C 0.51214 0.98848 0.87426 0.0
C1668 C 0.51401 0.99218 0.85355 0.0
C1669 C 0.52935 0.99247 0.84264 0.0
C1670 C 0.53105 0.99611 0.82229 0.0
C1671 C 0.51729 0.99927 0.81197 0.0
C1672 C 0.50156 0.99879 0.8226 0.0
C1673 C 0.50003 0.99545 0.84345 0.0
C1674 C 0.39089 0.97812 0.89233 0.0
C1675 C 0.39922 0.9771 0.91273 0.0
O1676 O 0.58313 0.00944 0.74767 0.0
O1677 O 0.56536 0.96954 0.91111 0.0
O1678 O 0.41907 0.99086 0.91413 0.0
O1679 O 0.4313 0.00905 0.74399 0.0
H1680 H 0.57394 0.98456 0.73027 0.0
H1681 H 0.57604 0.97574 0.76569 0.0
H1682 H 0.60176 0.99375 0.76692 0.0
H1683 H 0.59281 0.97235 0.75045 0.0
H1684 H 0.58213 0.03766 0.76652 0.0
H1685 H 0.54806 0.97616 0.75067 0.0
H1686 H 0.54325 0.04355 0.78388 0.0
H1687 H 0.56951 0.05407 0.78583 0.0
H1688 H 0.55383 0.03853 0.80512 0.0
H1689 H 0.51628 0.95588 0.76219 0.0
H1690 H 0.50274 0.96887 0.76338 0.0
H1691 H 0.51131 0.96356 0.78596 0.0
H1692 H 0.40902 0.98089 0.73828 0.0
H1693 H 0.41697 0.98146 0.70175 0.0
H1694 H 0.43784 0.98694 0.71722 0.0
H1695 H 0.43669 0.00664 0.70496 0.0
H1696 H 0.43156 0.97553 0.75231 0.0
H1697 H 0.46024 0.03814 0.76256 0.0
H1698 H 0.4688 0.96796 0.76742 0.0
H1699 H 0.44238 0.9557 0.76683 0.0
H1700 H 0.45587 0.96523 0.79009 0.0
H1701 H 0.4892 0.05536 0.78212 0.0
H1702 H 0.50474 0.04452 0.78077 0.0
H1703 H 0.49032 0.0411 0.80244 0.0
H1704 H 0.39707 0.9621 0.91469 0.0
H1705 H 0.41772 0.95985 0.89413 0.0
H1706 H 0.45446 0.01971 0.91469 0.0
H1707 H 0.44578 0.95731 0.85859 0.0
H1708 H 0.43026 0.94183 0.87795 0.0
H1709 H 0.45642 0.95146 0.87921 0.0
H1710 H 0.48795 0.03807 0.907 0.0
H1711 H 0.49344 0.0314 0.88296 0.0
H1712 H 0.49958 0.02324 0.90525 0.0
H1713 H 0.58956 0.99105 0.89696 0.0
H1714 H 0.60249 0.96899 0.88785 0.0
H1715 H 0.57795 0.96004 0.87833 0.0
H1716 H 0.58188 0.94866 0.89966 0.0
H1717 H 0.52993 0.94441 0.89994 0.0
H1718 H 0.57183 0.00597 0.90609 0.0
H1719 H 0.49818 0.94841 0.86561 0.0
H1720 H 0.48887 0.9482 0.88996 0.0
H1721 H 0.49904 0.93254 0.88434 0.0
H1722 H 0.56418 0.03056 0.89778 0.0
H1723 H 0.53854 0.02322 0.89534 0.0
H1724 H 0.55208 0.02405 0.87365 0.0
H1725 H 0.50538 0.0073 0.76533 0.0
H1726 H 0.4607 0.00319 0.81602 0.0
H1727 H 0.45852 0.99831 0.85126 0.0
H1728 H 0.49526 0.98538 0.90045 0.0
H1729 H 0.54027 0.98993 0.8497 0.0
H1730 H 0.5432 0.99623 0.81471 0.0
H1731 H 0.3932 0.99315 0.88998 0.0
H1732 H 0.37494 0.96731 0.89132 0.0
H1733 H 0.3982 0.97456 0.88019 0.0
C1734 C 0.00438 0.56353 0.70381 0.0
C1735 C 0.99371 0.56734 0.72083 0.0
C1736 C 0.00423 0.55909 0.75166 0.0
C1737 C 0.98638 0.54396 0.75872 0.0
C1738 C 0.98598 0.53007 0.77198 0.0
C1739 C 0.00379 0.5314 0.77834 0.0
C1740 C 0.02183 0.54706 0.77175 0.0
C1741 C 0.0218 0.56087 0.75868 0.0
C1742 C 0.96652 0.51387 0.77911 0.0
C1743 C 0.04111 0.54897 0.77823 0.0
C1744 C 1.00072 0.39256 0.73762 0.0
C1745 C 0.00854 0.41213 0.74793 0.0
C1746 C 0.99626 0.43185 0.76459 0.0
C1747 C 0.01458 0.4492 0.76633 0.0
C1748 C 0.01626 0.4664 0.77511 0.0
C1749 C 0.99931 0.46629 0.78216 0.0
C1750 C 0.98079 0.44901 0.77993 0.0
C1751 C 0.97955 0.43197 0.77125 0.0
C1752 C 0.03623 0.48461 0.77726 0.0
C1753 C 0.96241 0.44845 0.78711 0.0
C1754 C 0.0193 0.44947 0.908 0.0
C1755 C 0.03581 0.46484 0.89901 0.0
C1756 C 0.03456 0.47998 0.88939 0.0
C1757 C 0.01646 0.47975 0.88872 0.0
C1758 C 1.00002 0.46468 0.89834 0.0
C1759 C 0.00169 0.44976 0.90789 0.0
C1760 C 0.05244 0.49594 0.87942 0.0
C1761 C 0.98054 0.46401 0.89797 0.0
C1762 C 0.03861 0.62864 0.89148 0.0
C1763 C 0.02559 0.61088 0.90417 0.0
C1764 C 0.03037 0.58235 0.9016 0.0
C1765 C 0.04535 0.5785 0.89668 0.0
C1766 C 0.04112 0.56018 0.88843 0.0
C1767 C 0.02134 0.54522 0.88549 0.0
C1768 C 0.00609 0.54862 0.89163 0.0
C1769 C 0.01076 0.5672 0.89962 0.0
C1770 C 0.05777 0.55697 0.88242 0.0
C1771 C 0.98488 0.53275 0.88939 0.0
C1772 C 0.00352 0.51602 0.79124 0.0
C1773 C 0.00096 0.49873 0.78194 0.0
C1774 C 0.00117 0.48386 0.79299 0.0
C1775 C 0.00389 0.48614 0.81394 0.0
C1776 C 0.00424 0.47148 0.82547 0.0
C1777 C 0.00741 0.47402 0.84599 0.0
C1778 C 0.01047 0.49137 0.85582 0.0
C1779 C 0.01441 0.49435 0.8766 0.0
C1780 C 0.01735 0.51175 0.88594 0.0
C1781 C 0.01671 0.52649 0.87498 0.0
C1782 C 0.0129 0.5238 0.85414 0.0
C1783 C 0.01236 0.53838 0.84261 0.0
C1784 C 0.00902 0.53576 0.82206 0.0
C1785 C 0.0063 0.51857 0.8122 0.0
C1786 C 0.00656 0.50359 0.82356 0.0
C1787 C 0.00983 0.5062 0.84455 0.0
C1788 C 0.03595 0.42131 0.89642 0.0
C1789 C 0.03443 0.42944 0.9169 0.0
O1790 O 0.00496 0.57225 0.73825 0.0
O1791 O 0.0354 0.60074 0.9084 0.0
O1792 O 0.01948 0.43397 0.91667 0.0
O1793 O 0.99407 0.41473 0.75673 0.0
H1794 H 0.97959 0.55341 0.7226 0.0
H1795 H 0.00627 0.55077 0.70737 0.0
H1796 H 0.01911 0.57653 0.70159 0.0
H1797 H 0.99569 0.56002 0.68969 0.0
H1798 H 0.97276 0.54305 0.75405 0.0
H1799 H 0.03551 0.5728 0.75339 0.0
H1800 H 0.96408 0.49941 0.7734 0.0
H1801 H 0.95408 0.51572 0.77403 0.0
H1802 H 0.96663 0.51354 0.79567 0.0
H1803 H 0.05381 0.5615 0.77111 0.0
H1804 H 0.04122 0.53517 0.77442 0.0
H1805 H 0.04292 0.55119 0.79467 0.0
H1806 H 0.02147 0.41648 0.758 0.0
H1807 H 0.00655 0.39965 0.70756 0.0
H1808 H 0.98546 0.38285 0.74326 0.0
H1809 H 0.0073 0.3849 0.74609 0.0
H1810 H 0.02764 0.44936 0.76113 0.0
H1811 H 0.96547 0.41856 0.76973 0.0
H1812 H 0.03617 0.49709 0.76974 0.0
H1813 H 0.04798 0.48241 0.7708 0.0
H1814 H 0.03973 0.4888 0.7933 0.0
H1815 H 0.94899 0.43432 0.78306 0.0
H1816 H 0.96118 0.46076 0.78064 0.0
H1817 H 0.96323 0.4505 0.80359 0.0
H1818 H 0.04855 0.44294 0.9208 0.0
H1819 H 0.04964 0.46505 0.89915 0.0
H1820 H 0.98907 0.43794 0.91499 0.0
H1821 H 0.04992 0.49468 0.86301 0.0
H1822 H 0.06581 0.49503 0.8827 0.0
H1823 H 0.05504 0.51067 0.88438 0.0
H1824 H 0.96928 0.45162 0.90665 0.0
H1825 H 0.97518 0.46241 0.8823 0.0
H1826 H 0.98233 0.47807 0.90417 0.0
H1827 H 0.01212 0.60154 0.89499 0.0
H1828 H 0.03104 0.63703 0.88804 0.0
H1829 H 0.04179 0.62351 0.87717 0.0
H1830 H 0.05275 0.63862 0.89928 0.0
H1831 H 0.06044 0.59017 0.89871 0.0
H1832 H 0.99911 0.5698 0.90436 0.0
H1833 H 0.05614 0.55243 0.86642 0.0
H1834 H 0.05732 0.54488 0.89122 0.0
H1835 H 0.07232 0.5704 0.88486 0.0
H1836 H 0.97487 0.53697 0.89678 0.0
H1837 H 0.98268 0.51882 0.89581 0.0
H1838 H 0.98081 0.5298 0.87329 0.0
H1839 H 0.99904 0.49693 0.76585 0.0
H1840 H 0.00215 0.45788 0.81876 0.0
H1841 H 0.00757 0.46223 0.85402 0.0
H1842 H 0.02059 0.51404 0.90183 0.0
H1843 H 0.01459 0.55204 0.8493 0.0
H1844 H 0.00877 0.54748 0.81397 0.0
H1845 H 0.04763 0.41728 0.89679 0.0
H1846 H 0.03971 0.43251 0.88482 0.0
H1847 H 0.02181 0.40804 0.89205 0.0
C1848 C 0.60747 0.57626 0.73505 0.0
C1849 C 0.58931 0.57929 0.74036 0.0
C1850 C 0.56011 0.55785 0.76055 0.0
C1851 C 0.54781 0.56544 0.75574 0.0
C1852 C 0.52844 0.55637 0.76282 0.0
C1853 C 0.52133 0.53931 0.77457 0.0
C1854 C 0.53364 0.53138 0.77871 0.0
C1855 C 0.55292 0.54101 0.77198 0.0
C1856 C 0.51576 0.56526 0.75827 0.0
C1857 C 0.52664 0.51289 0.79059 0.0
C1858 C 0.4142 0.45352 0.68764 0.0
C1859 C 0.41613 0.44386 0.70653 0.0
C1860 C 0.4237 0.46299 0.73757 0.0
C1861 C 0.43759 0.4589 0.74603 0.0
C1862 C 0.45142 0.47187 0.76022 0.0
C1863 C 0.45139 0.48935 0.76596 0.0
C1864 C 0.43687 0.49308 0.75804 0.0
C1865 C 0.423 0.47965 0.74413 0.0
C1866 C 0.46627 0.46707 0.76879 0.0
C1867 C 0.43633 0.51149 0.76388 0.0
C1868 C 0.40571 0.46461 0.89322 0.0
C1869 C 0.41956 0.45922 0.88751 0.0
C1870 C 0.43676 0.47258 0.87779 0.0
C1871 C 0.44014 0.49169 0.87364 0.0
C1872 C 0.42644 0.49731 0.87988 0.0
C1873 C 0.4095 0.48373 0.88978 0.0
C1874 C 0.4514 0.46633 0.87209 0.0
C1875 C 0.42969 0.51764 0.87601 0.0
C1876 C 0.57603 0.61858 0.89528 0.0
C1877 C 0.5672 0.60732 0.91446 0.0
C1878 C 0.54228 0.5744 0.90154 0.0
C1879 C 0.53838 0.5551 0.89831 0.0
C1880 C 0.52163 0.54124 0.88758 0.0
C1881 C 0.50838 0.54687 0.88 0.0
C1882 C 0.51178 0.56614 0.88388 0.0
C1883 C 0.52873 0.57977 0.89456 0.0
C1884 C 0.51839 0.52077 0.88381 0.0
C1885 C 0.49775 0.57248 0.87622 0.0
C1886 C 0.50136 0.52986 0.78326 0.0
C1887 C 0.48546 0.5165 0.7713 0.0
C1888 C 0.46711 0.50409 0.77952 0.0
C1889 C 0.46449 0.5049 0.80033 0.0
C1890 C 0.4466 0.49196 0.8093 0.0
C1891 C 0.44443 0.49244 0.82989 0.0
C1892 C 0.46008 0.50582 0.84233 0.0
C1893 C 0.45828 0.506 0.86335 0.0
C1894 C 0.47415 0.51967 0.87518 0.0
C1895 C 0.49189 0.53312 0.86664 0.0
C1896 C 0.49405 0.53299 0.84572 0.0
C1897 C 0.51186 0.5461 0.83673 0.0
C1898 C 0.51413 0.54537 0.81624 0.0
C1899 C 0.49869 0.53156 0.80391 0.0
C1900 C 0.48034 0.51874 0.81254 0.0
C1901 C 0.4781 0.51928 0.83353 0.0
C1902 C 0.3571 0.42669 0.89163 0.0
C1903 C 0.37769 0.43176 0.89854 0.0
O1904 O 0.57929 0.56668 0.75572 0.0
O1905 O 0.55935 0.58724 0.91116 0.0
O1906 O 0.38877 0.45192 0.90231 0.0
O1907 O 0.41099 0.45123 0.72296 0.0
H1908 H 0.5794 0.57589 0.7271 0.0
H1909 H 0.60077 0.55982 0.73638 0.0
H1910 H 0.63969 0.60187 0.755 0.0
H1911 H 0.60769 0.57637 0.71825 0.0
H1912 H 0.55347 0.57867 0.74709 0.0
H1913 H 0.56262 0.53537 0.77565 0.0
H1914 H 0.5026 0.55446 0.74953 0.0
H1915 H 0.52365 0.579 0.74969 0.0
H1916 H 0.5106 0.56859 0.77241 0.0
H1917 H 0.53656 0.50668 0.78917 0.0
H1918 H 0.51166 0.50145 0.78565 0.0
H1919 H 0.52606 0.51636 0.8066 0.0
H1920 H 0.43186 0.44799 0.70758 0.0
H1921 H 0.41795 0.44753 0.67429 0.0
H1922 H 0.42449 0.46966 0.68867 0.0
H1923 H 0.39912 0.45104 0.68568 0.0
H1924 H 0.43765 0.44558 0.74149 0.0
H1925 H 0.412 0.48249 0.73771 0.0
H1926 H 0.46723 0.46907 0.78528 0.0
H1927 H 0.48094 0.47734 0.7628 0.0
H1928 H 0.46265 0.45174 0.76498 0.0
H1929 H 0.42461 0.51264 0.75574 0.0
H1930 H 0.45067 0.52471 0.76083 0.0
H1931 H 0.4338 0.51159 0.78014 0.0
H1932 H 0.38385 0.42732 0.88592 0.0
H1933 H 0.41711 0.4447 0.8909 0.0
H1934 H 0.39888 0.48786 0.89454 0.0
H1935 H 0.45254 0.46617 0.8556 0.0
H1936 H 0.44726 0.45146 0.87753 0.0
H1937 H 0.46613 0.47711 0.87828 0.0
H1938 H 0.41699 0.51925 0.88048 0.0
H1939 H 0.43244 0.52091 0.85992 0.0
H1940 H 0.44288 0.52876 0.88449 0.0
H1941 H 0.55548 0.61032 0.91949 0.0
H1942 H 0.58276 0.63469 0.89821 0.0
H1943 H 0.56449 0.61422 0.88356 0.0
H1944 H 0.5874 0.61545 0.88947 0.0
H1945 H 0.54882 0.55105 0.90388 0.0
H1946 H 0.53134 0.59456 0.89707 0.0
H1947 H 0.51851 0.51805 0.86751 0.0
H1948 H 0.50378 0.50968 0.88931 0.0
H1949 H 0.52977 0.51853 0.89123 0.0
H1950 H 0.5016 0.58744 0.88181 0.0
H1951 H 0.48259 0.56183 0.88076 0.0
H1952 H 0.49788 0.57248 0.85966 0.0
H1953 H 0.48764 0.51505 0.75553 0.0
H1954 H 0.43412 0.48117 0.80051 0.0
H1955 H 0.43037 0.48206 0.83597 0.0
H1956 H 0.47275 0.5197 0.89127 0.0
H1957 H 0.52436 0.55693 0.84544 0.0
H1958 H 0.52822 0.55572 0.81018 0.0
H1959 H 0.34994 0.43129 0.90308 0.0
H1960 H 0.34788 0.41057 0.88863 0.0
H1961 H 0.35799 0.43446 0.87763 0.0
C1962 C 0.63282 0.75637 0.64547 0.0
C1963 C 0.6366 0.74617 0.62769 0.0
C1964 C 0.64353 0.7706 0.60155 0.0
C1965 C 0.62421 0.76675 0.59862 0.0
C1966 C 0.6202 0.77862 0.58618 0.0
C1967 C 0.63578 0.79463 0.5765 0.0
C1968 C 0.65517 0.79834 0.57918 0.0
C1969 C 0.65874 0.78617 0.59158 0.0
C1970 C 0.59933 0.77414 0.58342 0.0
C1971 C 0.67215 0.81527 0.56909 0.0
C1972 C 0.62027 0.89132 0.64377 0.0
C1973 C 0.63691 0.90133 0.62885 0.0
C1974 C 0.62892 0.88386 0.59716 0.0
C1975 C 0.64647 0.8855 0.59049 0.0
C1976 C 0.64637 0.87054 0.57855 0.0
C1977 C 0.6283 0.85348 0.57344 0.0
C1978 C 0.61052 0.85203 0.57983 0.0
C1979 C 0.61107 0.86744 0.59141 0.0
C1980 C 0.66557 0.87279 0.57168 0.0
C1981 C 0.59102 0.83399 0.5749 0.0
C1982 C 0.60297 0.86421 0.44579 0.0
C1983 C 0.62258 0.86978 0.45002 0.0
C1984 C 0.62728 0.85704 0.46003 0.0
C1985 C 0.61204 0.83846 0.46607 0.0
C1986 C 0.59234 0.8325 0.46098 0.0
C1987 C 0.58811 0.84541 0.45066 0.0
C1988 C 0.64849 0.86354 0.4645 0.0
C1989 C 0.57574 0.81269 0.46687 0.0
C1990 C 0.60648 0.70344 0.4526 0.0
C1991 C 0.61362 0.71721 0.43479 0.0
C1992 C 0.62538 0.75045 0.44967 0.0
C1993 C 0.64216 0.7686 0.45383 0.0
C1994 C 0.64098 0.78408 0.4633 0.0
C1995 C 0.62248 0.78123 0.46894 0.0
C1996 C 0.60536 0.76298 0.46457 0.0
C1997 C 0.60695 0.74778 0.45489 0.0
C1998 C 0.65952 0.80342 0.46749 0.0
C1999 C 0.58541 0.75948 0.47038 0.0
C2000 C 0.63186 0.80775 0.56388 0.0
C2001 C 0.63139 0.82359 0.57325 0.0
C2002 C 0.62811 0.83677 0.56233 0.0
C2003 C 0.62511 0.83406 0.54141 0.0
C2004 C 0.62165 0.84692 0.52995 0.0
C2005 C 0.61862 0.84407 0.50939 0.0
C2006 C 0.61933 0.82848 0.49941 0.0
C2007 C 0.61655 0.82563 0.47846 0.0
C2008 C 0.61762 0.81013 0.46902 0.0
C2009 C 0.62115 0.79714 0.47996 0.0
C2010 C 0.62363 0.79956 0.50094 0.0
C2011 C 0.62685 0.78655 0.51244 0.0
C2012 C 0.62943 0.78912 0.53306 0.0
C2013 C 0.62899 0.80486 0.54297 0.0
C2014 C 0.62562 0.81809 0.5317 0.0
C2015 C 0.62287 0.81538 0.51067 0.0
C2016 C 0.59186 0.90227 0.44727 0.0
C2017 C 0.60703 0.89679 0.44032 0.0
O2018 O 0.64828 0.75989 0.61382 0.0
O2019 O 0.62784 0.73606 0.44087 0.0
O2020 O 0.59787 0.87656 0.43706 0.0
O2021 O 0.62908 0.89775 0.60964 0.0
H2022 H 0.62237 0.73535 0.62049 0.0
H2023 H 0.62464 0.76375 0.64058 0.0
H2024 H 0.64687 0.76765 0.65258 0.0
H2025 H 0.62389 0.74537 0.65675 0.0
H2026 H 0.6122 0.75459 0.60598 0.0
H2027 H 0.67357 0.78896 0.59382 0.0
H2028 H 0.59795 0.78676 0.58921 0.0
H2029 H 0.58872 0.76065 0.59125 0.0
H2030 H 0.59536 0.77221 0.56728 0.0
H2031 H 0.68643 0.81647 0.57309 0.0
H2032 H 0.67271 0.82932 0.57333 0.0
H2033 H 0.67 0.81331 0.55265 0.0
H2034 H 0.64608 0.89429 0.63087 0.0
H2035 H 0.62609 0.89532 0.65933 0.0
H2036 H 0.61318 0.87506 0.64178 0.0
H2037 H 0.60885 0.89547 0.64137 0.0
H2038 H 0.66022 0.89845 0.59479 0.0
H2039 H 0.5976 0.8664 0.59665 0.0
H2040 H 0.66492 0.86991 0.55533 0.0
H2041 H 0.66824 0.86176 0.57911 0.0
H2042 H 0.67813 0.88773 0.57518 0.0
H2043 H 0.57858 0.83484 0.58158 0.0
H2044 H 0.59093 0.82065 0.5804 0.0
H2045 H 0.58875 0.83218 0.55847 0.0
H2046 H 0.61807 0.90148 0.45272 0.0
H2047 H 0.6342 0.88405 0.44549 0.0
H2048 H 0.57306 0.84114 0.44697 0.0
H2049 H 0.65134 0.8661 0.48082 0.0
H2050 H 0.65866 0.87734 0.45683 0.0
H2051 H 0.65174 0.8518 0.45987 0.0
H2052 H 0.56116 0.81065 0.46261 0.0
H2053 H 0.57622 0.81102 0.48325 0.0
H2054 H 0.57742 0.80082 0.45953 0.0
H2055 H 0.60095 0.71768 0.42796 0.0
H2056 H 0.59542 0.68828 0.44751 0.0
H2057 H 0.59951 0.70855 0.46371 0.0
H2058 H 0.61884 0.70298 0.46013 0.0
H2059 H 0.6563 0.77056 0.4497 0.0
H2060 H 0.59377 0.73389 0.45171 0.0
H2061 H 0.66187 0.80606 0.48386 0.0
H2062 H 0.6581 0.81571 0.46128 0.0
H2063 H 0.67262 0.8037 0.46104 0.0
H2064 H 0.57353 0.74432 0.46639 0.0
H2065 H 0.58236 0.77019 0.46281 0.0
H2066 H 0.58519 0.76197 0.48672 0.0
H2067 H 0.63373 0.82577 0.58928 0.0
H2068 H 0.62114 0.85929 0.53678 0.0
H2069 H 0.61585 0.85436 0.50141 0.0
H2070 H 0.61562 0.80813 0.45294 0.0
H2071 H 0.62739 0.77419 0.50564 0.0
H2072 H 0.63184 0.77864 0.54112 0.0
H2073 H 0.59892 0.91845 0.45 0.0
H2074 H 0.58536 0.89481 0.46145 0.0
H2075 H 0.57987 0.89765 0.436 0.0
C2076 C 0.11426 0.74267 0.66113 0.0
C2077 C 0.10352 0.74688 0.64449 0.0
C2078 C 0.1203 0.75532 0.61292 0.0
C2079 C 0.11757 0.77085 0.60691 0.0
C2080 C 0.13083 0.78523 0.59407 0.0
C2081 C 0.14728 0.78414 0.58729 0.0
C2082 C 0.14971 0.76811 0.5929 0.0
C2083 C 0.13594 0.75369 0.60539 0.0
C2084 C 0.12745 0.80179 0.58807 0.0
C2085 C 0.16711 0.76651 0.58616 0.0
C2086 C 0.26788 0.93086 0.63629 0.0
C2087 C 0.25834 0.91021 0.62805 0.0
C2088 C 0.2285 0.88673 0.60931 0.0
C2089 C 0.23409 0.87244 0.6059 0.0
C2090 C 0.22188 0.85505 0.5948 0.0
C2091 C 0.20383 0.85196 0.58682 0.0
C2092 C 0.19829 0.8664 0.5901 0.0
C2093 C 0.21068 0.88354 0.60136 0.0
C2094 C 0.22823 0.83997 0.59155 0.0
C2095 C 0.17926 0.86372 0.58168 0.0
C2096 C 0.24052 0.87529 0.45876 0.0
C2097 C 0.24299 0.85961 0.46508 0.0
C2098 C 0.22814 0.84389 0.47547 0.0
C2099 C 0.21045 0.84374 0.47947 0.0
C2100 C 0.20776 0.85925 0.47273 0.0
C2101 C 0.22289 0.87486 0.46253 0.0
C2102 C 0.23144 0.82753 0.48243 0.0
C2103 C 0.189 0.85946 0.47655 0.0
C2104 C 0.08682 0.69515 0.45558 0.0
C2105 C 0.09227 0.71584 0.44893 0.0
C2106 C 0.12508 0.74336 0.45663 0.0
C2107 C 0.14362 0.74628 0.46157 0.0
C2108 C 0.15711 0.76287 0.47292 0.0
C2109 C 0.15204 0.77712 0.47906 0.0
C2110 C 0.13357 0.77465 0.47336 0.0
C2111 C 0.12025 0.75775 0.46225 0.0
C2112 C 0.17675 0.76511 0.47844 0.0
C2113 C 0.12796 0.78991 0.47895 0.0
C2114 C 0.16242 0.80029 0.57526 0.0
C2115 C 0.17605 0.81764 0.58537 0.0
C2116 C 0.19061 0.83359 0.57515 0.0
C2117 C 0.19189 0.83215 0.55421 0.0
C2118 C 0.20654 0.84775 0.54348 0.0
C2119 C 0.20766 0.84626 0.52287 0.0
C2120 C 0.19404 0.82919 0.51214 0.0
C2121 C 0.19497 0.82764 0.49117 0.0
C2122 C 0.18108 0.81058 0.48092 0.0
C2123 C 0.16622 0.79479 0.49105 0.0
C2124 C 0.16516 0.79598 0.51208 0.0
C2125 C 0.15056 0.78034 0.52283 0.0
C2126 C 0.14956 0.78174 0.54349 0.0
C2127 C 0.16325 0.79875 0.55425 0.0
C2128 C 0.17811 0.8147 0.54372 0.0
C2129 C 0.1791 0.81329 0.52263 0.0
C2130 C 0.28711 0.90251 0.46241 0.0
C2131 C 0.27326 0.89506 0.44411 0.0
O2132 O 0.10819 0.74193 0.62617 0.0
O2133 O 0.11236 0.72668 0.44625 0.0
O2134 O 0.25465 0.89118 0.44922 0.0
O2135 O 0.23972 0.90368 0.62009 0.0
H2136 H 0.10911 0.76302 0.64568 0.0
H2137 H 0.13033 0.75241 0.65965 0.0
H2138 H 0.11102 0.72716 0.66029 0.0
H2139 H 0.10998 0.74567 0.67599 0.0
H2140 H 0.1051 0.77174 0.61233 0.0
H2141 H 0.13777 0.7415 0.60999 0.0
H2142 H 0.13846 0.81564 0.59579 0.0
H2143 H 0.1126 0.79894 0.59204 0.0
H2144 H 0.12936 0.80408 0.57175 0.0
H2145 H 0.16764 0.75396 0.59302 0.0
H2146 H 0.18092 0.78034 0.59003 0.0
H2147 H 0.16647 0.76446 0.56969 0.0
H2148 H 0.25902 0.89933 0.63807 0.0
H2149 H 0.29177 0.94621 0.61772 0.0
H2150 H 0.26965 0.92951 0.65277 0.0
H2151 H 0.25595 0.93471 0.63802 0.0
H2152 H 0.24788 0.87473 0.61192 0.0
H2153 H 0.20652 0.89465 0.60398 0.0
H2154 H 0.21701 0.82558 0.59746 0.0
H2155 H 0.24257 0.8444 0.59892 0.0
H2156 H 0.22939 0.83778 0.57532 0.0
H2157 H 0.17731 0.87656 0.58511 0.0
H2158 H 0.16678 0.85034 0.58791 0.0
H2159 H 0.17875 0.86149 0.56524 0.0
H2160 H 0.27247 0.88135 0.43807 0.0
H2161 H 0.25645 0.85957 0.46218 0.0
H2162 H 0.22107 0.88695 0.45753 0.0
H2163 H 0.23003 0.82638 0.49889 0.0
H2164 H 0.2461 0.82988 0.47836 0.0
H2165 H 0.22003 0.81326 0.47573 0.0
H2166 H 0.18883 0.87212 0.46952 0.0
H2167 H 0.1871 0.86027 0.49287 0.0
H2168 H 0.17628 0.84556 0.47069 0.0
H2169 H 0.08785 0.72234 0.46133 0.0
H2170 H 0.07073 0.6861 0.4576 0.0
H2171 H 0.09425 0.69614 0.47006 0.0
H2172 H 0.09145 0.68766 0.44445 0.0
H2173 H 0.14733 0.73525 0.45687 0.0
H2174 H 0.1062 0.75595 0.45773 0.0
H2175 H 0.17947 0.76781 0.49478 0.0
H2176 H 0.1885 0.77808 0.47088 0.0
H2177 H 0.17777 0.75191 0.47407 0.0
H2178 H 0.11369 0.78656 0.47212 0.0
H2179 H 0.13946 0.80468 0.47415 0.0
H2180 H 0.12691 0.79064 0.49541 0.0
H2181 H 0.17518 0.81883 0.60145 0.0
H2182 H 0.21736 0.86129 0.55091 0.0
H2183 H 0.21931 0.85873 0.51545 0.0
H2184 H 0.18186 0.80957 0.46482 0.0
H2185 H 0.13969 0.76685 0.51537 0.0
H2186 H 0.13791 0.76929 0.55094 0.0
H2187 H 0.30209 0.90601 0.45807 0.0
H2188 H 0.28199 0.8911 0.47396 0.0
H2189 H 0.28786 0.91594 0.46913 0.0
C2190 C 0.11888 0.36177 0.64946 0.0
C2191 C 0.10512 0.35915 0.63189 0.0
C2192 C 0.12244 0.35301 0.60453 0.0
C2193 C 0.13788 0.37253 0.60287 0.0
C2194 C 0.154 0.37695 0.59074 0.0
C2195 C 0.15479 0.36158 0.58012 0.0
C2196 C 0.13907 0.342 0.58142 0.0
C2197 C 0.12302 0.33804 0.59344 0.0
C2198 C 0.17037 0.39803 0.5895 0.0
C2199 C 0.13945 0.32518 0.57049 0.0
C2200 C 0.25913 0.3777 0.66069 0.0
C2201 C 0.2556 0.36351 0.64308 0.0
C2202 C 0.24911 0.37299 0.6109 0.0
C2203 C 0.23422 0.35479 0.60329 0.0
C2204 C 0.22053 0.35386 0.58916 0.0
C2205 C 0.22169 0.37152 0.58266 0.0
C2206 C 0.23722 0.38992 0.58972 0.0
C2207 C 0.25096 0.3904 0.60354 0.0
C2208 C 0.20448 0.33399 0.5816 0.0
C2209 C 0.23886 0.40904 0.58327 0.0
C2210 C 0.26283 0.39259 0.45366 0.0
C2211 C 0.24929 0.37305 0.45841 0.0
C2212 C 0.23221 0.36857 0.46888 0.0
C2213 C 0.22869 0.38396 0.47483 0.0
C2214 C 0.24211 0.40359 0.46962 0.0
C2215 C 0.25889 0.40759 0.45887 0.0
C2216 C 0.21786 0.34739 0.47351 0.0
C2217 C 0.23876 0.42036 0.47546 0.0
C2218 C 0.0997 0.38579 0.4493 0.0
C2219 C 0.10869 0.37984 0.43222 0.0
C2220 C 0.12909 0.3686 0.4494 0.0
C2221 C 0.13051 0.35201 0.45391 0.0
C2222 C 0.1463 0.35364 0.46528 0.0
C2223 C 0.16102 0.3724 0.47242 0.0
C2224 C 0.1598 0.38933 0.46783 0.0
C2225 C 0.14387 0.38729 0.45635 0.0
C2226 C 0.1472 0.3353 0.46981 0.0
C2227 C 0.17529 0.40955 0.4752 0.0
C2228 C 0.1726 0.36579 0.56877 0.0
C2229 C 0.18852 0.36712 0.57949 0.0
C2230 C 0.20568 0.37063 0.56998 0.0
C2231 C 0.20714 0.37293 0.54906 0.0
C2232 C 0.22413 0.37641 0.53896 0.0
C2233 C 0.22545 0.37878 0.51838 0.0
C2234 C 0.20969 0.3774 0.50704 0.0
C2235 C 0.21077 0.37955 0.48607 0.0
C2236 C 0.1947 0.37784 0.4753 0.0
C2237 C 0.17756 0.37427 0.48488 0.0
C2238 C 0.17629 0.37237 0.50584 0.0
C2239 C 0.15936 0.36909 0.51597 0.0
C2240 C 0.15817 0.36708 0.53658 0.0
C2241 C 0.1738 0.36814 0.54785 0.0
C2242 C 0.19111 0.37165 0.53797 0.0
C2243 C 0.19237 0.37381 0.51693 0.0
C2244 C 0.3117 0.40516 0.45415 0.0
C2245 C 0.2914 0.3891 0.4468 0.0
O2246 O 0.10689 0.34786 0.6167 0.0
O2247 O 0.11319 0.36576 0.43851 0.0
O2248 O 0.27965 0.39743 0.44388 0.0
O2249 O 0.26155 0.37409 0.62565 0.0
H2250 H 0.1089 0.37381 0.62607 0.0
H2251 H 0.1344 0.3697 0.64479 0.0
H2252 H 0.11551 0.3472 0.6552 0.0
H2253 H 0.11729 0.37055 0.66174 0.0
H2254 H 0.13761 0.38438 0.61109 0.0
H2255 H 0.11102 0.32305 0.59467 0.0
H2256 H 0.18379 0.39958 0.59681 0.0
H2257 H 0.16667 0.40854 0.59688 0.0
H2258 H 0.17383 0.40209 0.57365 0.0
H2259 H 0.12646 0.31069 0.57371 0.0
H2260 H 0.15291 0.3248 0.57475 0.0
H2261 H 0.13986 0.32747 0.55417 0.0
H2262 H 0.2395 0.35314 0.64262 0.0
H2263 H 0.25507 0.3696 0.6749 0.0
H2264 H 0.24993 0.38465 0.65872 0.0
H2265 H 0.27471 0.3896 0.6617 0.0
H2266 H 0.23322 0.34132 0.60857 0.0
H2267 H 0.26268 0.40437 0.60937 0.0
H2268 H 0.20314 0.33388 0.56509 0.0
H2269 H 0.19027 0.33106 0.58786 0.0
H2270 H 0.20714 0.32188 0.58593 0.0
H2271 H 0.25143 0.42209 0.59064 0.0
H2272 H 0.22516 0.40917 0.58681 0.0
H2273 H 0.24071 0.41036 0.56687 0.0
H2274 H 0.28553 0.3782 0.45892 0.0
H2275 H 0.25192 0.36128 0.4537 0.0
H2276 H 0.26928 0.42257 0.45485 0.0
H2277 H 0.21713 0.34552 0.48991 0.0
H2278 H 0.22202 0.33701 0.46665 0.0
H2279 H 0.20296 0.34342 0.46804 0.0
H2280 H 0.25142 0.43495 0.47185 0.0
H2281 H 0.236 0.42011 0.49171 0.0
H2282 H 0.22556 0.41856 0.46745 0.0
H2283 H 0.12226 0.39303 0.42725 0.0
H2284 H 0.096 0.397 0.44422 0.0
H2285 H 0.1102 0.39227 0.46207 0.0
H2286 H 0.08617 0.37276 0.45459 0.0
H2287 H 0.11909 0.33768 0.44849 0.0
H2288 H 0.14308 0.40034 0.45305 0.0
H2289 H 0.14669 0.33328 0.48619 0.0
H2290 H 0.16129 0.33693 0.46461 0.0
H2291 H 0.13493 0.32187 0.46262 0.0
H2292 H 0.17206 0.42124 0.47071 0.0
H2293 H 0.18973 0.41301 0.46917 0.0
H2294 H 0.17652 0.4098 0.49172 0.0
H2295 H 0.18748 0.36526 0.59553 0.0
H2296 H 0.23664 0.37742 0.54689 0.0
H2297 H 0.23894 0.38157 0.51143 0.0
H2298 H 0.19557 0.37938 0.45922 0.0
H2299 H 0.14682 0.36804 0.50807 0.0
H2300 H 0.1448 0.36461 0.54358 0.0
H2301 H 0.32145 0.39885 0.45646 0.0
H2302 H 0.31041 0.41153 0.46861 0.0
H2303 H 0.3185 0.41722 0.44328 0.0
C2304 C 0.96299 0.36248 0.05793 0.0
C2305 C 0.98222 0.36564 0.0572 0.0
C2306 C 0.95753 0.37163 0.07273 0.0
C2307 C 0.9711 0.38438 0.08733 0.0
H2308 H 0.95213 0.3532 0.04675 0.0
H2309 H 0.94263 0.36892 0.07258 0.0
S2310 S 0.02276 0.39613 0.0933 0.0
N2311 N 0.01449 0.38139 0.07339 0.0
N2312 N 0.0042 0.39855 0.10101 0.0
C2313 C 0.99016 0.38708 0.08723 0.0
C2314 C 0.99572 0.37777 0.07221 0.0
C2315 C 0.59988 0.58488 0.05704 0.0
C2316 C 0.62615 0.5967 0.05356 0.0
C2317 C 0.58727 0.56263 0.07126 0.0
C2318 C 0.60389 0.55603 0.08506 0.0
H2319 H 0.5916 0.59096 0.05031 0.0
H2320 H 0.57188 0.55615 0.07459 0.0
S2321 S 0.66344 0.578 0.07525 0.0
N2322 N 0.6598 0.59368 0.06132 0.0
N2323 N 0.64255 0.56027 0.08521 0.0
C2324 C 0.62944 0.5645 0.07723 0.0
C2325 C 0.64038 0.5862 0.06294 0.0
C2326 C 0.38456 0.00425 0.07102 0.0
C2327 C 0.38416 0.01949 0.06051 0.0
C2328 C 0.39834 0.00833 0.08634 0.0
C2329 C 0.41249 0.02783 0.09169 0.0
H2330 H 0.37433 0.98895 0.06722 0.0
H2331 H 0.39803 0.99608 0.09392 0.0
S2332 S 0.41651 0.07316 0.07058 0.0
N2333 N 0.39827 0.05498 0.05778 0.0
N2334 N 0.42416 0.06257 0.08659 0.0
C2335 C 0.41176 0.04323 0.08196 0.0
C2336 C 0.39768 0.03909 0.06635 0.0
C2337 C 0.38452 0.0048 0.95018 0.0
C2338 C 0.36871 0.98955 0.96024 0.0
C2339 C 0.3941 0.00072 0.93489 0.0
C2340 C 0.38846 0.9812 0.92915 0.0
H2341 H 0.38982 0.02009 0.95431 0.0
H2342 H 0.4062 0.01297 0.92767 0.0
S2343 S 0.34657 0.93594 0.94895 0.0
N2344 N 0.34682 0.9541 0.96208 0.0
N2345 N 0.36492 0.94652 0.93335 0.0
C2346 C 0.37215 0.96583 0.93842 0.0
C2347 C 0.36232 0.96997 0.95399 0.0
C2348 C 0.00632 0.38435 0.94941 0.0
C2349 C 0.02091 0.38493 0.96218 0.0
C2350 C 0.01083 0.39852 0.93487 0.0
C2351 C 0.03011 0.41407 0.93256 0.0
H2352 H 0.99112 0.37299 0.95076 0.0
H2353 H 0.99903 0.39741 0.9255 0.0
S2354 S 0.07414 0.42129 0.96053 0.0
N2355 N 0.0558 0.40161 0.97041 0.0
N2356 N 0.06423 0.42827 0.94298 0.0
C2357 C 0.04502 0.41439 0.94456 0.0
C2358 C 0.04043 0.39988 0.9594 0.0
C2359 C 0.5973 0.63336 0.96167 0.0
C2360 C 0.61141 0.6273 0.9625 0.0
C2361 C 0.58336 0.62704 0.94611 0.0
C2362 C 0.58283 0.61429 0.93079 0.0
H2363 H 0.59677 0.64287 0.97328 0.0
H2364 H 0.57274 0.63199 0.94624 0.0
S2365 S 0.61729 0.59521 0.92498 0.0
N2366 N 0.62457 0.60861 0.94586 0.0
N2367 N 0.59833 0.59675 0.91667 0.0
C2368 C 0.59722 0.60862 0.93102 0.0
C2369 C 0.61146 0.61507 0.94686 0.0
C2370 C 0.99605 0.62152 0.94247 0.0
C2371 C 0.00958 0.63127 0.95828 0.0
C2372 C 0.00129 0.61487 0.92533 0.0
C2373 C 0.0202 0.61746 0.92334 0.0
H2374 H 0.98129 0.61914 0.9432 0.0
H2375 H 0.99044 0.6077 0.91347 0.0
S2376 S 0.06107 0.6417 0.96045 0.0
N2377 N 0.04278 0.64301 0.97084 0.0
N2378 N 0.05252 0.63035 0.93864 0.0
C2379 C 0.03388 0.62709 0.93904 0.0
C2380 C 0.0286 0.63401 0.95647 0.0
C2381 C 0.36786 0.41359 0.95229 0.0
C2382 C 0.37076 0.39724 0.95174 0.0
C2383 C 0.37079 0.42501 0.93539 0.0
C2384 C 0.3766 0.42047 0.91716 0.0
H2385 H 0.36315 0.41758 0.96587 0.0
H2386 H 0.36809 0.43727 0.93646 0.0
S2387 S 0.38633 0.37933 0.90767 0.0
N2388 N 0.38012 0.37732 0.93134 0.0
N2389 N 0.38534 0.39861 0.89962 0.0
C2390 C 0.37979 0.40433 0.91644 0.0
C2391 C 0.37697 0.39279 0.93369 0.0
C2392 C 0.60537 0.97188 0.95575 0.0
C2393 C 0.62268 0.99015 0.95864 0.0
C2394 C 0.59315 0.96809 0.93896 0.0
C2395 C 0.59777 0.98236 0.92431 0.0
H2396 H 0.60108 0.96044 0.96664 0.0
H2397 H 0.57999 0.95381 0.93736 0.0
S2398 S 0.64179 0.03228 0.92427 0.0
N2399 N 0.64402 0.02253 0.94506 0.0
N2400 N 0.62116 0.01528 0.91351 0.0
C2401 C 0.61514 0.00059 0.92688 0.0
C2402 C 0.62753 0.00452 0.94403 0.0
C2403 C 0.62653 0.00293 0.07571 0.0
C2404 C 0.63671 0.01736 0.0614 0.0
C2405 C 0.61852 0.00695 0.09251 0.0
C2406 C 0.62009 0.0255 0.09562 0.0
H2407 H 0.6248 0.98836 0.074 0.0
H2408 H 0.611 0.9954 0.10316 0.0
S2409 S 0.64503 0.06841 0.06263 0.0
N2410 N 0.64789 0.05105 0.05152 0.0
N2411 N 0.63257 0.05849 0.083 0.0
C2412 C 0.63022 0.0401 0.08147 0.0
C2413 C 0.63858 0.03607 0.06442 0.0
C2414 C 0.95865 0.59593 0.05965 0.0
C2415 C 0.97633 0.61402 0.05906 0.0
C2416 C 0.9539 0.58385 0.0763 0.0
C2417 C 0.96659 0.58942 0.09308 0.0
H2418 H 0.94845 0.59094 0.04709 0.0
H2419 H 0.9401 0.57009 0.07614 0.0
S2420 S 0.01417 0.63583 0.09957 0.0
N2421 N 0.00631 0.63718 0.07709 0.0
N2422 N 0.99724 0.61459 0.10835 0.0
C2423 C 0.98417 0.60759 0.09279 0.0
C2424 C 0.98909 0.61982 0.07581 0.0
C2425 C 0.41367 0.3758 0.05053 0.0
C2426 C 0.39706 0.37815 0.05077 0.0
C2427 C 0.42545 0.37957 0.06769 0.0
C2428 C 0.421 0.38565 0.08586 0.0
H2429 H 0.41753 0.37082 0.03703 0.0
H2430 H 0.43791 0.37727 0.06687 0.0
S2431 S 0.37941 0.39438 0.09449 0.0
N2432 N 0.37709 0.38745 0.07077 0.0
N2433 N 0.39906 0.39422 0.10295 0.0
C2434 C 0.40467 0.38839 0.08623 0.0
C2435 C 0.39276 0.38474 0.06874 0.0
C2436 C 0.61937 0.6935 0.38665 0.0
C2437 C 0.63829 0.69596 0.38871 0.0
C2438 C 0.61148 0.7001 0.40161 0.0
C2439 C 0.6222 0.70951 0.41919 0.0
H2440 H 0.6107 0.68684 0.37318 0.0
H2441 H 0.59697 0.69812 0.39922 0.0
S2442 S 0.6716 0.71789 0.43291 0.0
N2443 N 0.66697 0.70724 0.41054 0.0
N2444 N 0.65214 0.71966 0.43848 0.0
C2445 C 0.6408 0.71134 0.42182 0.0
C2446 C 0.64884 0.70462 0.40663 0.0
C2447 C 0.29812 0.92212 0.3965 0.0
C2448 C 0.29642 0.93919 0.39749 0.0
C2449 C 0.29067 0.90808 0.4115 0.0
C2450 C 0.28108 0.91045 0.42805 0.0
H2451 H 0.30519 0.91945 0.38398 0.0
H2452 H 0.29235 0.89521 0.41008 0.0
S2453 S 0.27359 0.95292 0.43849 0.0
N2454 N 0.28498 0.95794 0.41698 0.0
N2455 N 0.27102 0.93156 0.44504 0.0
C2456 C 0.2796 0.92761 0.42947 0.0
C2457 C 0.2872 0.94192 0.41422 0.0
C2458 C 0.06518 0.34394 0.39882 0.0
C2459 C 0.06574 0.35565 0.38283 0.0
C2460 C 0.07902 0.35174 0.4145 0.0
C2461 C 0.09423 0.37153 0.41475 0.0
H2462 H 0.05385 0.3286 0.39938 0.0
H2463 H 0.07776 0.34219 0.42659 0.0
S2464 S 0.10197 0.40878 0.37708 0.0
N2465 N 0.0826 0.38837 0.36864 0.0
N2466 N 0.10858 0.4029 0.39812 0.0
C2467 C 0.09485 0.38349 0.39906 0.0
C2468 C 0.0807 0.37559 0.38309 0.0
C2469 C 0.03193 0.28354 0.28573 0.0
C2470 C 0.03275 0.30714 0.28563 0.0
C2471 C 0.03533 0.27297 0.26283 0.0
C2472 C 0.04363 0.29004 0.24122 0.0
H2473 H 0.02939 0.2757 0.29951 0.0
H2474 H 0.03635 0.25969 0.26287 0.0
S2475 S 0.04144 0.34193 0.23652 0.0
N2476 N 0.0365 0.33764 0.26097 0.0
N2477 N 0.0434 0.32379 0.22477 0.0
C2478 C 0.0391 0.3111 0.23967 0.0
C2479 C 0.03565 0.32018 0.26282 0.0
C2480 C 0.7206 0.74607 0.30107 0.0
C2481 C 0.6947 0.73469 0.3066 0.0
C2482 C 0.73313 0.7698 0.28919 0.0
C2483 C 0.71655 0.77877 0.27984 0.0
H2484 H 0.72867 0.73875 0.30502 0.0
H2485 H 0.74808 0.77598 0.28431 0.0
S2486 S 0.65854 0.75819 0.29617 0.0
N2487 N 0.66193 0.74026 0.30565 0.0
N2488 N 0.67906 0.7764 0.28615 0.0
C2489 C 0.69183 0.77026 0.29029 0.0
C2490 C 0.68092 0.74701 0.3018 0.0
C2491 C 0.2622 0.9739 0.30709 0.0
C2492 C 0.27821 0.97084 0.30432 0.0
C2493 C 0.24796 0.96898 0.29201 0.0
C2494 C 0.24916 0.96083 0.27356 0.0
H2495 H 0.26036 0.97968 0.3212 0.0
H2496 H 0.23573 0.97129 0.29493 0.0
S2497 S 0.28934 0.95202 0.25787 0.0
N2498 N 0.29523 0.96059 0.28106 0.0
N2499 N 0.26856 0.95151 0.25275 0.0
C2500 C 0.26556 0.95853 0.27027 0.0
C2501 C 0.28 0.96343 0.28564 0.0
C2502 C 0.68147 0.95435 0.2763 0.0
C2503 C 0.69029 0.96024 0.29541 0.0
C2504 C 0.69143 0.95192 0.26025 0.0
C2505 C 0.71053 0.95502 0.26267 0.0
H2506 H 0.66688 0.952 0.27354 0.0
H2507 H 0.68421 0.94785 0.24573 0.0
S2508 S 0.73992 0.96957 0.30978 0.0
N2509 N 0.71914 0.96846 0.31594 0.0
N2510 N 0.73773 0.9637 0.28576 0.0
C2511 C 0.7194 0.96048 0.28177 0.0
C2512 C 0.70932 0.96312 0.29812 0.0
C2513 C 0.03739 0.75555 0.29842 0.0
C2514 C 0.04028 0.73922 0.29714 0.0
C2515 C 0.0411 0.76791 0.28215 0.0
C2516 C 0.04762 0.76431 0.26388 0.0
H2517 H 0.03207 0.75874 0.31204 0.0
H2518 H 0.03842 0.78016 0.28373 0.0
S2519 S 0.05747 0.7235 0.25267 0.0
N2520 N 0.05031 0.72027 0.27606 0.0
N2521 N 0.05695 0.7433 0.24553 0.0
C2522 C 0.0508 0.74819 0.26247 0.0
C2523 C 0.04723 0.73572 0.27907 0.0
C2524 C 0.26164 0.29761 0.29221 0.0
C2525 C 0.27746 0.31709 0.29198 0.0
C2526 C 0.24966 0.28876 0.27526 0.0
C2527 C 0.25308 0.29897 0.25731 0.0
H2528 H 0.25852 0.28902 0.30557 0.0
H2529 H 0.23785 0.27365 0.27606 0.0
S2530 S 0.29243 0.35029 0.24871 0.0
N2531 N 0.29567 0.34641 0.2722 0.0
N2532 N 0.2733 0.32964 0.24035 0.0
C2533 C 0.26867 0.31851 0.25691 0.0
C2534 C 0.28079 0.3276 0.27422 0.0
C2535 C 0.30229 0.38241 0.39241 0.0
C2536 C 0.29994 0.36336 0.39187 0.0
C2537 C 0.29882 0.39029 0.40986 0.0
C2538 C 0.29302 0.37952 0.42755 0.0
H2539 H 0.30705 0.39143 0.3793 0.0
H2540 H 0.30112 0.40512 0.40965 0.0
S2541 S 0.28439 0.32886 0.4341 0.0
N2542 N 0.29094 0.33374 0.41063 0.0
N2543 N 0.28472 0.34869 0.44335 0.0
C2544 C 0.29028 0.36035 0.42714 0.0
C2545 C 0.29365 0.35224 0.40935 0.0
C2546 C 0.64449 0.93567 0.4061 0.0
C2547 C 0.63465 0.93118 0.38745 0.0
C2548 C 0.6357 0.9242 0.42278 0.0
C2549 C 0.61679 0.90761 0.42151 0.0
H2550 H 0.65895 0.94848 0.40805 0.0
H2551 H 0.64366 0.92859 0.43691 0.0
S2552 S 0.58503 0.88873 0.37605 0.0
N2553 N 0.60508 0.90841 0.36861 0.0
N2554 N 0.58867 0.88683 0.39999 0.0
C2555 C 0.60694 0.9026 0.40288 0.0
C2556 C 0.61585 0.91435 0.38587 0.0
C2557 C 0.07431 0.70497 0.39434 0.0
C2558 C 0.05884 0.70911 0.39391 0.0
C2559 C 0.08539 0.70779 0.41185 0.0
C2560 C 0.08135 0.71471 0.42972 0.0
H2561 H 0.07788 0.69937 0.38109 0.0
H2562 H 0.09699 0.70417 0.41151 0.0
S2563 S 0.04283 0.72831 0.43661 0.0
N2564 N 0.04047 0.72108 0.41298 0.0
N2565 N 0.06112 0.7261 0.4458 0.0
C2566 C 0.06617 0.71923 0.42944 0.0
C2567 C 0.05497 0.71651 0.41159 0.0
C2568 C 0.31721 0.06817 0.72097 0.0
C2569 C 0.30232 0.04249 0.71316 0.0
C2570 C 0.30646 0.08059 0.73444 0.0
C2571 C 0.28089 0.06388 0.74301 0.0
H2572 H 0.33252 0.07631 0.71715 0.0
H2573 H 0.31536 0.09549 0.74029 0.0
S2574 S 0.24285 0.00638 0.72244 0.0
N2575 N 0.26387 0.00993 0.71219 0.0
N2576 N 0.24557 0.0267 0.73453 0.0
C2577 C 0.26437 0.03961 0.73063 0.0
C2578 C 0.27629 0.02883 0.7174 0.0
C2579 C 0.93372 0.25221 0.72145 0.0
C2580 C 0.96025 0.26625 0.7201 0.0
C2581 C 0.92176 0.2299 0.73569 0.0
C2582 C 0.9388 0.22557 0.7517 0.0
H2583 H 0.92494 0.257 0.71341 0.0
H2584 H 0.90607 0.2221 0.73775 0.0
S2585 S 0.9996 0.25299 0.74717 0.0
N2586 N 0.99519 0.26725 0.73182 0.0
N2587 N 0.97885 0.23397 0.75591 0.0
C2588 C 0.96527 0.23641 0.74617 0.0
C2589 C 0.97552 0.258 0.73172 0.0
C2590 C 0.72598 0.6794 0.73401 0.0
C2591 C 0.72438 0.69188 0.72016 0.0
C2592 C 0.74061 0.68684 0.74895 0.0
C2593 C 0.7545 0.70707 0.75053 0.0
H2594 H 0.71582 0.66367 0.73341 0.0
H2595 H 0.74102 0.67663 0.75936 0.0
S2596 S 0.7562 0.74631 0.71894 0.0
N2597 N 0.73758 0.72575 0.70965 0.0
N2598 N 0.76509 0.73964 0.73773 0.0
C2599 C 0.75286 0.7198 0.73709 0.0
C2600 C 0.73789 0.71224 0.72189 0.0
C2601 C 0.69339 0.62469 0.6266 0.0
C2602 C 0.6954 0.6436 0.6262 0.0
C2603 C 0.70098 0.61797 0.61142 0.0
C2604 C 0.711 0.62989 0.59524 0.0
H2605 H 0.68624 0.61509 0.63895 0.0
H2606 H 0.69917 0.60337 0.61248 0.0
S2607 S 0.71869 0.67984 0.58597 0.0
N2608 N 0.70707 0.67363 0.60734 0.0
N2609 N 0.72127 0.66097 0.57897 0.0
C2610 C 0.7125 0.64853 0.59425 0.0
C2611 C 0.70478 0.65539 0.60968 0.0
C2612 C 0.38278 0.08126 0.62776 0.0
C2613 C 0.3566 0.06921 0.63202 0.0
C2614 C 0.39502 0.10423 0.61456 0.0
C2615 C 0.37812 0.11157 0.60267 0.0
H2616 H 0.39123 0.07491 0.63346 0.0
H2617 H 0.41026 0.11076 0.61054 0.0
S2618 S 0.31916 0.08983 0.61595 0.0
N2619 N 0.32297 0.07304 0.62755 0.0
N2620 N 0.3397 0.10788 0.60578 0.0
C2621 C 0.35277 0.10263 0.61158 0.0
C2622 C 0.34218 0.08017 0.62455 0.0
C2623 C 0.94552 0.28599 0.61368 0.0
C2624 C 0.94626 0.29923 0.6286 0.0
C2625 C 0.93243 0.28043 0.59739 0.0
C2626 C 0.91935 0.2877 0.59548 0.0
H2627 H 0.95493 0.2796 0.61468 0.0
H2628 H 0.93237 0.27015 0.58633 0.0
S2629 S 0.9168 0.32442 0.62913 0.0
N2630 N 0.93376 0.32072 0.63943 0.0
N2631 N 0.90915 0.31012 0.60887 0.0
C2632 C 0.92049 0.30156 0.6098 0.0
C2633 C 0.93385 0.30729 0.62637 0.0
C2634 C 0.34289 0.28939 0.61115 0.0
C2635 C 0.35483 0.29757 0.62837 0.0
C2636 C 0.34937 0.28331 0.59451 0.0
C2637 C 0.36798 0.28492 0.59442 0.0
H2638 H 0.32845 0.28786 0.61036 0.0
H2639 H 0.33975 0.27742 0.58152 0.0
S2640 S 0.40492 0.30496 0.63574 0.0
N2641 N 0.38625 0.30676 0.6443 0.0
N2642 N 0.3983 0.29519 0.61303 0.0
C2643 C 0.38006 0.29294 0.61155 0.0
C2644 C 0.37352 0.29927 0.62849 0.0
C2645 C 0.71539 0.06217 0.60213 0.0
C2646 C 0.70863 0.0663 0.61997 0.0
C2647 C 0.71906 0.07385 0.58533 0.0
C2648 C 0.71635 0.09029 0.58568 0.0
H2649 H 0.71757 0.04959 0.60093 0.0
H2650 H 0.72382 0.06979 0.57183 0.0
S2651 S 0.69946 0.10799 0.62874 0.0
N2652 N 0.69977 0.08841 0.63701 0.0
N2653 N 0.70678 0.11034 0.60542 0.0
C2654 C 0.70988 0.09481 0.60347 0.0
C2655 C 0.70602 0.08285 0.62059 0.0
C2656 C 0.94248 0.65887 0.61079 0.0
C2657 C 0.93824 0.64715 0.62777 0.0
C2658 C 0.93056 0.65197 0.59357 0.0
C2659 C 0.91376 0.63314 0.59261 0.0
H2660 H 0.9553 0.67345 0.61063 0.0
H2661 H 0.93467 0.6614 0.58077 0.0
S2662 S 0.89576 0.59663 0.63294 0.0
N2663 N 0.91571 0.61571 0.64253 0.0
N2664 N 0.89336 0.60286 0.61013 0.0
C2665 C 0.90918 0.6213 0.6095 0.0
C2666 C 0.92136 0.62828 0.62706 0.0
C2667 C 0.95692 0.68374 0.74393 0.0
C2668 C 0.96364 0.69422 0.72614 0.0
C2669 C 0.95374 0.69231 0.76097 0.0
C2670 C 0.95687 0.71163 0.76091 0.0
H2671 H 0.9545 0.6689 0.7449 0.0
H2672 H 0.94905 0.68382 0.77443 0.0
S2673 S 0.97343 0.74513 0.71796 0.0
N2674 N 0.97268 0.72487 0.70938 0.0
N2675 N 0.96649 0.74085 0.74139 0.0
C2676 C 0.96316 0.72216 0.74313 0.0
C2677 C 0.96657 0.7135 0.72578 0.0
C2678 C 0.29471 0.26151 0.72484 0.0
C2679 C 0.31328 0.27868 0.72607 0.0
C2680 C 0.28728 0.24866 0.74086 0.0
C2681 C 0.2981 0.25242 0.75879 0.0
H2682 H 0.28578 0.25788 0.71137 0.0
H2683 H 0.27284 0.23575 0.73927 0.0
S2684 S 0.34716 0.29562 0.7701 0.0
N2685 N 0.34216 0.29889 0.747 0.0
N2686 N 0.32809 0.27481 0.77707 0.0
C2687 C 0.31661 0.26957 0.76031 0.0
C2688 C 0.32424 0.28263 0.74397 0.0
C2689 C 0.73231 0.04734 0.73334 0.0
C2690 C 0.7365 0.04191 0.71466 0.0
C2691 C 0.74426 0.05048 0.75016 0.0
C2692 C 0.7611 0.04863 0.74899 0.0
H2693 H 0.71936 0.04868 0.73518 0.0
H2694 H 0.74009 0.0541 0.76429 0.0
S2695 S 0.77947 0.03613 0.70335 0.0
N2696 N 0.75921 0.03564 0.69583 0.0
N2697 N 0.78192 0.04195 0.72741 0.0
C2698 C 0.76583 0.0438 0.73029 0.0
C2699 C 0.75349 0.04034 0.71317 0.0
C2700 C 0.03505 0.30333 0.03676 0.0
C2701 C 0.0432 0.32913 0.04219 0.0
C2702 C 0.04277 0.2898 0.05261 0.0
C2703 C 0.0623 0.30542 0.07151 0.0
H2704 H 0.0253 0.29588 0.02416 0.0
H2705 H 0.03933 0.27495 0.04869 0.0
S2706 S 0.07838 0.36279 0.0901 0.0
N2707 N 0.06452 0.36054 0.06981 0.0
N2708 N 0.07866 0.34185 0.09487 0.0
C2709 C 0.06631 0.3298 0.08051 0.0
C2710 C 0.05803 0.34175 0.06405 0.0
C2711 C 0.6822 0.71207 0.04664 0.0
C2712 C 0.66185 0.70135 0.04289 0.0
C2713 C 0.69143 0.73164 0.05385 0.0
C2714 C 0.68069 0.74128 0.0576 0.0
H2715 H 0.69113 0.70532 0.04399 0.0
H2716 H 0.70716 0.73936 0.05637 0.0
S2717 S 0.62719 0.7202 0.04899 0.0
N2718 N 0.6313 0.7021 0.04282 0.0
N2719 N 0.64869 0.7389 0.056 0.0
C2720 C 0.66036 0.73083 0.05358 0.0
C2721 C 0.65093 0.71086 0.04641 0.0
C2722 C 0.27455 0.96678 0.03562 0.0
C2723 C 0.2848 0.95662 0.03185 0.0
C2724 C 0.2557 0.9572 0.04362 0.0
C2725 C 0.24635 0.9371 0.04825 0.0
H2726 H 0.28123 0.98235 0.03267 0.0
H2727 H 0.24844 0.96565 0.04636 0.0
S2728 S 0.26603 0.90332 0.0395 0.0
N2729 N 0.28362 0.92497 0.03223 0.0
N2730 N 0.24818 0.907 0.04709 0.0
C2731 C 0.25615 0.9266 0.0439 0.0
C2732 C 0.27537 0.93635 0.03582 0.0
C2733 C 0.33944 0.06923 0.98427 0.0
C2734 C 0.32889 0.0493 0.9896 0.0
C2735 C 0.32991 0.07882 0.97659 0.0
C2736 C 0.30943 0.06879 0.97355 0.0
H2737 H 0.35525 0.07754 0.98594 0.0
H2738 H 0.3387 0.0942 0.97288 0.0
S2739 S 0.27478 0.01701 0.98651 0.0
N2740 N 0.29659 0.0202 0.99239 0.0
N2741 N 0.27876 0.03826 0.97779 0.0
C2742 C 0.29862 0.04907 0.97939 0.0
C2743 C 0.30831 0.0393 0.98737 0.0
C2744 C 0.94206 0.28288 0.95582 0.0
C2745 C 0.95934 0.28676 0.97589 0.0
C2746 C 0.9328 0.26139 0.93935 0.0
C2747 C 0.93907 0.24241 0.94753 0.0
H2748 H 0.93749 0.29362 0.95342 0.0
H2749 H 0.92154 0.25818 0.9282 0.0
S2750 S 0.98214 0.25059 0.98939 0.0
N2751 N 0.98159 0.27163 0.99356 0.0
N2752 N 0.96721 0.23683 0.9703 0.0
C2753 C 0.96051 0.24864 0.96412 0.0
C2754 C 0.96877 0.2702 0.97938 0.0
C2755 C 0.72087 0.6809 0.9857 0.0
C2756 C 0.71097 0.66033 0.98787 0.0
C2757 C 0.73979 0.69095 0.97786 0.0
C2758 C 0.74956 0.68084 0.97186 0.0
H2759 H 0.71386 0.68932 0.98977 0.0
H2760 H 0.7468 0.70677 0.97639 0.0
S2761 S 0.73087 0.62719 0.97632 0.0
N2762 N 0.71289 0.63034 0.98455 0.0
N2763 N 0.74848 0.64925 0.97013 0.0
C2764 C 0.74009 0.66035 0.97463 0.0
C2765 C 0.72079 0.65009 0.98248 0.0
C2766 C 0.95802 0.68783 0.98589 0.0
C2767 C 0.94676 0.6674 0.98879 0.0
C2768 C 0.94918 0.69894 0.98088 0.0
C2769 C 0.92867 0.69016 0.97899 0.0
H2770 H 0.97385 0.69536 0.98742 0.0
H2771 H 0.95846 0.71461 0.97878 0.0
S2772 S 0.89255 0.63706 0.98449 0.0
N2773 N 0.91401 0.6387 0.98874 0.0
N2774 N 0.89737 0.65965 0.9798 0.0
C2775 C 0.91725 0.66968 0.98154 0.0
C2776 C 0.92628 0.65831 0.98636 0.0
C2777 C 0.35075 0.28784 0.97673 0.0
C2778 C 0.34053 0.29828 0.97805 0.0
C2779 C 0.34095 0.26757 0.9722 0.0
C2780 C 0.32059 0.25698 0.96844 0.0
H2781 H 0.3664 0.29526 0.9797 0.0
H2782 H 0.34939 0.26009 0.97188 0.0
S2783 S 0.2873 0.27776 0.96835 0.0
N2784 N 0.30903 0.29672 0.97433 0.0
N2785 N 0.29071 0.25872 0.96527 0.0
C2786 C 0.31028 0.26738 0.96909 0.0
C2787 C 0.32022 0.28798 0.97403 0.0
C2788 C 0.72908 0.03684 0.98309 0.0
C2789 C 0.7206 0.04791 0.99005 0.0
C2790 C 0.74816 0.04607 0.97559 0.0
C2791 C 0.75968 0.06676 0.9751 0.0
H2792 H 0.72083 0.02089 0.98315 0.0
H2793 H 0.75399 0.03693 0.97025 0.0
S2794 S 0.74436 0.1025 0.99158 0.0
N2795 N 0.72516 0.08071 0.99578 0.0
N2796 N 0.76108 0.09802 0.9821 0.0
C2797 C 0.75134 0.07799 0.98197 0.0
C2798 C 0.73184 0.06859 0.98937 0.0
C2799 C 0.65661 0.93129 0.03317 0.0
C2800 C 0.6686 0.95186 0.032 0.0
C2801 C 0.6639 0.91953 0.04058 0.0
C2802 C 0.68343 0.92784 0.04744 0.0
H2803 H 0.64143 0.92412 0.02818 0.0
H2804 H 0.65413 0.90374 0.04087 0.0
S2805 S 0.7209 0.981 0.04805 0.0
N2806 N 0.70107 0.9801 0.0385 0.0
N2807 N 0.71466 0.95798 0.05271 0.0
C2808 C 0.6956 0.94841 0.04647 0.0
C2809 C 0.68823 0.96041 0.0387 0.0
C2810 C 0.04989 0.71684 0.05189 0.0
C2811 C 0.03618 0.71214 0.03623 0.0
C2812 C 0.05729 0.73454 0.06292 0.0
C2813 C 0.05173 0.7486 0.05836 0.0
H2814 H 0.05437 0.70639 0.05626 0.0
H2815 H 0.06715 0.73697 0.07535 0.0
S2816 S 0.01684 0.74378 0.01818 0.0
N2817 N 0.01757 0.7231 0.01642 0.0
N2818 N 0.03196 0.75671 0.03677 0.0
C2819 C 0.0384 0.74429 0.04237 0.0
C2820 C 0.03057 0.72605 0.03137 0.0
C2821 C 0.29495 0.35209 0.0487 0.0
C2822 C 0.29882 0.34328 0.03221 0.0
C2823 C 0.27788 0.34167 0.05976 0.0
C2824 C 0.26363 0.32214 0.05444 0.0
H2825 H 0.30554 0.36696 0.05362 0.0
H2826 H 0.27605 0.34893 0.07278 0.0
S2827 S 0.26644 0.2925 0.01215 0.0
N2828 N 0.28692 0.31392 0.01093 0.0
N2829 N 0.25453 0.2945 0.03141 0.0
C2830 C 0.26716 0.31329 0.03773 0.0
C2831 C 0.28475 0.32381 0.02666 0.0
C2832 C 0.71964 0.67542 0.39843 0.0
C2833 C 0.70618 0.66479 0.37516 0.0
C2834 C 0.7291 0.6625 0.41279 0.0
C2835 C 0.72754 0.64045 0.39964 0.0
H2836 H 0.72185 0.68946 0.40392 0.0
H2837 H 0.73829 0.66922 0.42593 0.0
S2838 S 0.6936 0.61127 0.34903 0.0
N2839 N 0.69117 0.63151 0.34918 0.0
N2840 N 0.70639 0.61062 0.369 0.0
C2841 C 0.70945 0.62687 0.37914 0.0
C2842 C 0.70071 0.64068 0.3662 0.0
C2843 C 0.36543 0.05804 0.37754 0.0
C2844 C 0.34025 0.04174 0.38473 0.0
C2845 C 0.38001 0.08193 0.38993 0.0
C2846 C 0.36583 0.08933 0.40687 0.0
H2847 H 0.3718 0.05354 0.36577 0.0
H2848 H 0.39438 0.09247 0.38467 0.0
S2849 S 0.31029 0.05235 0.42951 0.0
N2850 N 0.31107 0.03709 0.4119 0.0
N2851 N 0.33146 0.07404 0.4315 0.0
C2852 C 0.3424 0.07098 0.41821 0.0
C2853 C 0.32936 0.04801 0.40515 0.0
C2854 C 0.95387 0.27037 0.37087 0.0
C2855 C 0.96307 0.28986 0.36414 0.0
C2856 C 0.93471 0.26114 0.37806 0.0
C2857 C 0.92402 0.27115 0.37927 0.0
H2858 H 0.96143 0.262 0.37039 0.0
H2859 H 0.92819 0.24598 0.38262 0.0
S2860 S 0.94101 0.32214 0.36298 0.0
N2861 N 0.95972 0.3187 0.35865 0.0
N2862 N 0.92379 0.30139 0.37241 0.0
C2863 C 0.93295 0.29057 0.37241 0.0
C2864 C 0.95243 0.29993 0.36488 0.0
C2865 C 0.02497 0.40179 0.30508 0.0
C2866 C 0.01197 0.38334 0.31313 0.0
C2867 C 0.01843 0.41446 0.29855 0.0
C2868 C 0.99851 0.40905 0.29939 0.0
H2869 H 0.04042 0.40661 0.30386 0.0
H2870 H 0.02911 0.42859 0.29278 0.0
S2871 S 0.9586 0.36294 0.3202 0.0
N2872 N 0.97831 0.36072 0.3224 0.0
N2873 N 0.96601 0.38447 0.30988 0.0
C2874 C 0.98541 0.39083 0.30776 0.0
C2875 C 0.9921 0.37798 0.3146 0.0
C2876 C 0.61064 0.62656 0.28081 0.0
C2877 C 0.62846 0.6312 0.30057 0.0
C2878 C 0.60074 0.60432 0.26534 0.0
C2879 C 0.60709 0.5856 0.27426 0.0
H2880 H 0.60591 0.63714 0.27817 0.0
H2881 H 0.5891 0.60066 0.25451 0.0
S2882 S 0.65075 0.59498 0.31575 0.0
N2883 N 0.65068 0.61638 0.31892 0.0
N2884 N 0.63545 0.58062 0.29718 0.0
C2885 C 0.62897 0.5924 0.29034 0.0
C2886 C 0.63782 0.61464 0.30465 0.0
C2887 C 0.37817 0.97257 0.31195 0.0
C2888 C 0.3745 0.9858 0.32307 0.0
C2889 C 0.39665 0.97848 0.30398 0.0
C2890 C 0.41219 0.99799 0.3065 0.0
H2891 H 0.36667 0.95745 0.30933 0.0
H2892 H 0.39876 0.96767 0.29575 0.0
S2893 S 0.41081 0.03805 0.33553 0.0
N2894 N 0.38838 0.01909 0.33703 0.0
N2895 N 0.42305 0.03018 0.32193 0.0
C2896 C 0.40887 0.01123 0.31797 0.0
C2897 C 0.39007 0.00519 0.3262 0.0
C2898 C 0.62356 0.00569 0.31345 0.0
C2899 C 0.61431 0.98512 0.31528 0.0
C2900 C 0.61271 0.01499 0.30917 0.0
C2901 C 0.59213 0.00415 0.30715 0.0
H2902 H 0.63931 0.0147 0.3153 0.0
H2903 H 0.62049 0.03085 0.30776 0.0
S2904 S 0.56097 0.94979 0.30983 0.0
N2905 N 0.58348 0.95407 0.31387 0.0
N2906 N 0.56305 0.97158 0.30647 0.0
C2907 C 0.58277 0.98351 0.30851 0.0
C2908 C 0.59385 0.97401 0.31248 0.0
C2909 C 0.991 0.62324 0.30253 0.0
C2910 C 0.01405 0.64592 0.29921 0.0
C2911 C 0.98015 0.60513 0.28221 0.0
C2912 C 0.99647 0.61011 0.26019 0.0
H2913 H 0.98349 0.62063 0.31656 0.0
H2914 H 0.96715 0.59098 0.28427 0.0
S2915 S 0.04644 0.66342 0.24746 0.0
N2916 N 0.04293 0.66831 0.27122 0.0
N2917 N 0.02867 0.64111 0.239 0.0
C2918 C 0.01681 0.63519 0.25477 0.0
C2919 C 0.02621 0.65184 0.27552 0.0
C2920 C 0.38679 0.37666 0.31514 0.0
C2921 C 0.37649 0.38696 0.31751 0.0
C2922 C 0.4065 0.38634 0.3095 0.0
C2923 C 0.41689 0.40682 0.30653 0.0
H2924 H 0.37957 0.36096 0.3176 0.0
H2925 H 0.41372 0.37773 0.30778 0.0
S2926 S 0.39637 0.44039 0.30964 0.0
N2927 N 0.3779 0.41862 0.31535 0.0
N2928 N 0.41499 0.43684 0.30523 0.0
C2929 C 0.4066 0.41717 0.30831 0.0
C2930 C 0.38644 0.40727 0.31375 0.0
C2931 C 0.32493 0.28563 0.3864 0.0
C2932 C 0.33373 0.29882 0.37078 0.0
C2933 C 0.33505 0.27801 0.39684 0.0
C2934 C 0.35424 0.28281 0.39172 0.0
H2935 H 0.31029 0.28159 0.3911 0.0
H2936 H 0.32778 0.26848 0.40919 0.0
S2937 S 0.38382 0.31655 0.35177 0.0
N2938 N 0.3628 0.31642 0.35065 0.0
N2939 N 0.38166 0.30166 0.36996 0.0
C2940 C 0.36313 0.29582 0.37595 0.0
C2941 C 0.35292 0.30387 0.36552 0.0
C2942 C 0.69873 0.04715 0.36534 0.0
C2943 C 0.70172 0.03254 0.37386 0.0
C2944 C 0.70714 0.06616 0.37399 0.0
C2945 C 0.71876 0.07124 0.39153 0.0
H2946 H 0.68993 0.04392 0.35183 0.0
H2947 H 0.70447 0.07697 0.36694 0.0
S2948 S 0.72945 0.03771 0.42074 0.0
N2949 N 0.71624 0.02411 0.40141 0.0
N2950 N 0.73159 0.05958 0.41787 0.0
C2951 C 0.72137 0.05655 0.40048 0.0
C2952 C 0.71304 0.03731 0.39156 0.0
C2953 C 0.95159 0.6918 0.36925 0.0
C2954 C 0.96093 0.6806 0.36669 0.0
C2955 C 0.93188 0.68298 0.37464 0.0
C2956 C 0.92074 0.66264 0.37806 0.0
H2957 H 0.95946 0.7075 0.3667 0.0
H2958 H 0.92527 0.6922 0.37597 0.0
S2959 S 0.93867 0.62694 0.37476 0.0
N2960 N 0.95777 0.64817 0.36869 0.0
N2961 N 0.92083 0.63167 0.37941 0.0
C2962 C 0.93005 0.65133 0.37607 0.0
C2963 C 0.95008 0.66027 0.37023 0.0
C2964 C 0.39695 0.02807 0.71424 0.0
C2965 C 0.37788 0.01442 0.7073 0.0
C2966 C 0.40951 0.02187 0.72198 0.0
C2967 C 0.40339 0.00172 0.72357 0.0
H2968 H 0.40245 0.04376 0.71332 0.0
H2969 H 0.42421 0.03301 0.72655 0.0
S2970 S 0.35501 0.95994 0.7074 0.0
N2971 N 0.35358 0.97975 0.70234 0.0
N2972 N 0.37711 0.96811 0.71719 0.0
C2973 C 0.38435 0.9879 0.71673 0.0
C2974 C 0.37161 0.99422 0.70861 0.0
C2975 C 0.01999 0.38537 0.71438 0.0
C2976 C 0.99398 0.371 0.70829 0.0
C2977 C 0.03084 0.41088 0.72278 0.0
C2978 C 0.0127 0.41908 0.72835 0.0
H2979 H 0.02909 0.37868 0.71307 0.0
H2980 H 0.04588 0.41908 0.72812 0.0
S2981 S 0.95385 0.39067 0.71028 0.0
N2982 N 0.95912 0.37273 0.7047 0.0
N2983 N 0.97365 0.41165 0.71867 0.0
C2984 C 0.98763 0.40668 0.71697 0.0
C2985 C 0.97841 0.38183 0.70898 0.0
C2986 C 0.61336 0.62418 0.71982 0.0
C2987 C 0.62914 0.62063 0.71759 0.0
C2988 C 0.59828 0.614 0.7339 0.0
C2989 C 0.59846 0.60046 0.7476 0.0
H2990 H 0.61169 0.63373 0.70948 0.0
H2991 H 0.58504 0.61487 0.73247 0.0
S2992 S 0.63291 0.5739 0.75225 0.0
N2993 N 0.63985 0.59406 0.72874 0.0
N2994 N 0.61642 0.58516 0.767 0.0
C2995 C 0.61626 0.60359 0.75444 0.0
C2996 C 0.63071 0.60902 0.73188 0.0
C2997 C 0.64433 0.70447 0.64639 0.0
C2998 C 0.66468 0.71383 0.64998 0.0
C2999 C 0.63552 0.71493 0.63906 0.0
C3000 C 0.6467 0.73517 0.63506 0.0
H3001 H 0.63514 0.68887 0.64898 0.0
H3002 H 0.6198 0.70711 0.63647 0.0
S3003 S 0.70031 0.76699 0.64387 0.0
N3004 N 0.69563 0.74478 0.65013 0.0
N3005 N 0.67905 0.76446 0.63676 0.0
C3006 C 0.66699 0.74483 0.63924 0.0
C3007 C 0.67598 0.73415 0.64651 0.0
C3008 C 0.30267 0.94971 0.64453 0.0
C3009 C 0.29326 0.96571 0.63723 0.0
C3010 C 0.29444 0.92625 0.6316 0.0
C3011 C 0.27324 0.91871 0.61389 0.0
H3012 H 0.3133 0.95418 0.65664 0.0
H3013 H 0.29863 0.91587 0.63686 0.0
S3014 S 0.25343 0.95511 0.59115 0.0
N3015 N 0.26876 0.97021 0.60936 0.0
N3016 N 0.25377 0.9338 0.58891 0.0
C3017 C 0.26762 0.93692 0.60259 0.0
C3018 C 0.27654 0.95953 0.61621 0.0
C3019 C 0.05336 0.31917 0.64638 0.0
C3020 C 0.04511 0.33009 0.65442 0.0
C3021 C 0.0725 0.3285 0.63909 0.0
C3022 C 0.0841 0.3492 0.63912 0.0
H3023 H 0.04501 0.30322 0.64575 0.0
H3024 H 0.07823 0.31939 0.63338 0.0
S3025 S 0.06995 0.38465 0.65941 0.0
N3026 N 0.05046 0.36282 0.66269 0.0
N3027 N 0.08632 0.3803 0.64879 0.0
C3028 C 0.07619 0.36029 0.64745 0.0
C3029 C 0.05674 0.35078 0.65506 0.0
C3030 C 0.29721 0.3525 0.65308 0.0
C3031 C 0.28731 0.33187 0.65476 0.0
C3032 C 0.28704 0.36247 0.64865 0.0
C3033 C 0.2665 0.35228 0.64617 0.0
H3034 H 0.31297 0.36106 0.6552 0.0
H3035 H 0.29531 0.37835 0.6475 0.0
S3036 S 0.23371 0.29809 0.64817 0.0
N3037 N 0.25583 0.30148 0.65271 0.0
N3038 N 0.23673 0.32026 0.64486 0.0
C3039 C 0.25648 0.3316 0.64736 0.0
C3040 C 0.26686 0.32141 0.65159 0.0
C3041 C 0.65246 0.95534 0.6419 0.0
C3042 C 0.67304 0.96464 0.6428 0.0
C3043 C 0.64093 0.93523 0.63678 0.0
C3044 C 0.6495 0.92343 0.633 0.0
H3045 H 0.64515 0.96366 0.64508 0.0
H3046 H 0.62518 0.92889 0.6361 0.0
S3047 S 0.70285 0.94095 0.63197 0.0
N3048 N 0.70158 0.96076 0.63819 0.0
N3049 N 0.67995 0.92297 0.62912 0.0
C3050 C 0.6701 0.93273 0.63321 0.0
C3051 C 0.68184 0.95327 0.63808 0.0
C3052 C 0.05115 0.70466 0.65343 0.0
C3053 C 0.04032 0.71444 0.65535 0.0
C3054 C 0.07123 0.71501 0.64921 0.0
C3055 C 0.08142 0.73564 0.64729 0.0
H3056 H 0.04407 0.68886 0.65517 0.0
H3057 H 0.07889 0.7068 0.64781 0.0
S3058 S 0.05962 0.76811 0.64977 0.0
N3059 N 0.04111 0.74587 0.65387 0.0
N3060 N 0.07883 0.76529 0.64646 0.0
C3061 C 0.07063 0.74551 0.6486 0.0
C3062 C 0.05013 0.73494 0.65257 0.0
C3063 C 0.96555 0.59321 0.70519 0.0
C3064 C 0.98029 0.61302 0.70334 0.0
C3065 C 0.97003 0.57881 0.71103 0.0
C3066 C 0.9894 0.58361 0.7156 0.0
H3067 H 0.95038 0.58866 0.70177 0.0
H3068 H 0.95818 0.56371 0.71184 0.0
S3069 S 0.03334 0.63352 0.71409 0.0
N3070 N 0.01507 0.63682 0.70702 0.0
N3071 N 0.02344 0.60977 0.71844 0.0
C3072 C 0.00429 0.60344 0.71416 0.0
C3073 C 0.99974 0.61811 0.70793 0.0
C3074 C 0.40133 0.38956 0.69939 0.0
C3075 C 0.38074 0.37986 0.69805 0.0
C3076 C 0.41247 0.41 0.70258 0.0
C3077 C 0.40349 0.42157 0.7049 0.0
H3078 H 0.40898 0.38138 0.69741 0.0
H3079 H 0.42829 0.41685 0.70292 0.0
S3080 S 0.34995 0.40314 0.70443 0.0
N3081 N 0.35172 0.38323 0.70032 0.0
N3082 N 0.37268 0.42162 0.70686 0.0
C3083 C 0.38287 0.41197 0.70434 0.0
C3084 C 0.37151 0.39115 0.70077 0.0
C3085 C 0.62314 0.00211 0.69887 0.0
C3086 C 0.63988 0.02006 0.70443 0.0
C3087 C 0.60597 0.99445 0.71007 0.0
C3088 C 0.60489 0.00439 0.7273 0.0
H3089 H 0.62332 0.99384 0.68582 0.0
H3090 H 0.5935 0.98047 0.70536 0.0
S3091 S 0.64523 0.05124 0.74907 0.0
N3092 N 0.65456 0.04725 0.72874 0.0
N3093 N 0.62255 0.03265 0.74998 0.0
C3094 C 0.62168 0.02223 0.73318 0.0
C3095 C 0.63905 0.03014 0.72166 0.0
loop_
_geom_bond_atom_site_label_1
_geom_bond_atom_site_label_2
_geom_bond_distance
_geom_bond_site_symmetry_2
_ccdc_geom_bond_type
O0 Cd1 2.223 . S
O0 C8 1.315 . S
Cd1 O0 2.223 . S
Cd1 O4 2.297 . S
Cd1 O5 2.439 . S
Cd1 O11 2.240 1_554 S
Cd2 O3 2.240 . S
Cd2 O10 2.223 1_554 S
Cd2 O12 2.297 1_554 S
Cd2 O13 2.439 1_554 S
O3 Cd2 2.240 . S
O3 C8 1.279 1_655 S
O4 Cd1 2.297 . S
O4 C6 1.247 . S
O5 Cd1 2.439 . S
O5 C6 1.208 . S
C6 O4 1.247 . S
C6 O5 1.208 . S
C7 O12 1.247 . S
C7 O13 1.208 . S
C8 O0 1.315 . S
C8 O3 1.279 1_455 S
C9 O10 1.315 1_455 S
C9 O11 1.279 . S
O10 Cd2 2.223 1_556 S
O10 C9 1.315 1_655 S
O11 Cd1 2.240 1_556 S
O11 C9 1.279 . S
O12 Cd2 2.297 1_556 S
O12 C7 1.247 . S
O13 Cd2 2.439 1_556 S
O13 C7 1.208 . S
O14 Cd15 2.223 . S
O14 C22 1.315 . S
Cd15 O14 2.223 . S
Cd15 O18 2.297 . S
Cd15 O19 2.439 . S
Cd15 O25 2.240 1_554 S
Cd16 O17 2.240 . S
Cd16 O24 2.223 1_554 S
Cd16 O26 2.297 1_554 S
Cd16 O27 2.439 1_554 S
O17 Cd16 2.240 . S
O17 C22 1.279 . S
O18 Cd15 2.297 . S
O18 C20 1.247 . S
O19 Cd15 2.439 . S
O19 C20 1.208 . S
C20 O18 1.247 . S
C20 O19 1.208 . S
C21 O26 1.247 . S
C21 O27 1.208 . S
C22 O14 1.315 . S
C22 O17 1.279 . S
C23 O24 1.315 . S
C23 O25 1.279 . S
O24 Cd16 2.223 1_556 S
O24 C23 1.315 . S
O25 Cd15 2.240 1_556 S
O25 C23 1.279 . S
O26 Cd16 2.297 1_556 S
O26 C21 1.247 . S
O27 Cd16 2.439 1_556 S
O27 C21 1.208 . S
O28 Cd29 2.223 1_556 S
O28 C36 1.315 . S
Cd29 O28 2.223 1_554 S
Cd29 O32 2.297 1_554 S
Cd29 O33 2.439 1_554 S
Cd29 O39 2.240 . S
Cd30 O31 2.240 1_554 S
Cd30 O38 2.223 . S
Cd30 O40 2.297 . S
Cd30 O41 2.439 . S
O31 Cd30 2.240 1_556 S
O31 C36 1.279 1_565 S
O32 Cd29 2.297 1_556 S
O32 C34 1.247 . S
O33 Cd29 2.439 1_556 S
O33 C34 1.208 . S
C34 O32 1.247 . S
C34 O33 1.208 . S
C35 O40 1.247 . S
C35 O41 1.208 . S
C36 O28 1.315 . S
C36 O31 1.279 1_545 S
C37 O38 1.315 1_545 S
C37 O39 1.279 . S
O38 Cd30 2.223 . S
O38 C37 1.315 1_565 S
O39 Cd29 2.240 . S
O39 C37 1.279 . S
O40 Cd30 2.297 . S
O40 C35 1.247 . S
O41 Cd30 2.439 . S
O41 C35 1.208 . S
O42 Cd43 2.223 1_556 S
O42 C50 1.349 . S
Cd43 O42 2.223 1_554 S
Cd43 O46 2.297 1_554 S
Cd43 O47 2.439 1_554 S
Cd43 O53 2.240 . S
Cd44 O45 2.240 1_554 S
Cd44 O52 2.223 . S
Cd44 O54 2.297 . S
Cd44 O55 2.439 . S
O45 Cd44 2.240 1_556 S
O45 C50 1.281 1_455 S
O46 Cd43 2.297 1_556 S
O46 C48 1.247 . S
O47 Cd43 2.439 1_556 S
O47 C48 1.208 . S
C48 O46 1.247 . S
C48 O47 1.208 . S
C49 O54 1.247 . S
C49 O55 1.208 . S
C50 O42 1.349 . S
C50 O45 1.281 1_655 S
C51 O52 1.369 . S
C51 O53 1.230 1_455 S
O52 Cd44 2.223 . S
O52 C51 1.369 . S
O53 Cd43 2.240 . S
O53 C51 1.230 1_655 S
O54 Cd44 2.297 . S
O54 C49 1.247 . S
O55 Cd44 2.439 . S
O55 C49 1.208 . S
O56 Cd57 2.223 . S
O56 C64 1.315 . S
Cd57 O56 2.223 . S
Cd57 O60 2.297 . S
Cd57 O61 2.439 . S
Cd57 O67 2.240 1_556 S
Cd58 O59 2.240 1_554 S
Cd58 O66 2.223 . S
Cd58 O68 2.297 . S
Cd58 O69 2.439 . S
O59 Cd58 2.240 1_556 S
O59 C64 1.279 . S
O60 Cd57 2.297 . S
O60 C62 1.247 . S
O61 Cd57 2.439 . S
O61 C62 1.208 . S
C62 O60 1.247 . S
C62 O61 1.208 . S
C63 O68 1.247 . S
C63 O69 1.208 . S
C64 O56 1.315 . S
C64 O59 1.279 . S
C65 O66 1.315 . S
C65 O67 1.279 . S
O66 Cd58 2.223 . S
O66 C65 1.315 . S
O67 Cd57 2.240 1_554 S
O67 C65 1.279 . S
O68 Cd58 2.297 . S
O68 C63 1.247 . S
O69 Cd58 2.439 . S
O69 C63 1.208 . S
O70 Cd71 2.223 . S
O70 C78 1.320 1_565 S
Cd71 O70 2.223 . S
Cd71 O74 2.297 . S
Cd71 O75 2.439 . S
Cd71 O81 2.240 1_554 S
Cd72 O73 2.240 . S
Cd72 O80 2.223 1_554 S
Cd72 O82 2.297 1_554 S
Cd72 O83 2.439 1_554 S
O73 Cd72 2.240 . S
O73 C78 1.279 . S
O74 Cd71 2.297 . S
O74 C76 1.247 . S
O75 Cd71 2.439 . S
O75 C76 1.208 . S
C76 O74 1.247 . S
C76 O75 1.208 . S
C77 O82 1.247 . S
C77 O83 1.208 . S
C78 O70 1.320 1_545 S
C78 O73 1.279 . S
C79 O80 1.352 . S
C79 O81 1.245 1_545 S
O80 Cd72 2.223 1_556 S
O80 C79 1.352 . S
O81 Cd71 2.240 1_556 S
O81 C79 1.245 1_565 S
O82 Cd72 2.297 1_556 S
O82 C77 1.247 . S
O83 Cd72 2.439 1_556 S
O83 C77 1.208 . S
O84 Cd85 2.223 . S
O84 C92 1.315 . S
Cd85 O84 2.223 . S
Cd85 O88 2.297 . S
Cd85 O89 2.439 . S
Cd85 O95 2.240 . S
Cd86 O87 2.240 . S
Cd86 O94 2.223 . S
Cd86 O96 2.297 . S
Cd86 O97 2.439 . S
O87 Cd86 2.240 . S
O87 C92 1.279 . S
O88 Cd85 2.297 . S
O88 C90 1.247 . S
O89 Cd85 2.439 . S
O89 C90 1.208 . S
C90 O88 1.247 . S
C90 O89 1.208 . S
C91 O96 1.247 . S
C91 O97 1.208 . S
C92 O84 1.315 . S
C92 O87 1.279 . S
C93 O94 1.315 . S
C93 O95 1.279 . S
O94 Cd86 2.223 . S
O94 C93 1.315 . S
O95 Cd85 2.240 . S
O95 C93 1.279 . S
O96 Cd86 2.297 . S
O96 C91 1.247 . S
O97 Cd86 2.439 . S
O97 C91 1.208 . S
O98 Cd99 2.223 . S
O98 C106 1.315 . S
Cd99 O98 2.223 . S
Cd99 O102 2.297 1_565 S
Cd99 O103 2.439 1_565 S
Cd99 O109 2.240 . S
Cd100 O101 2.240 . S
Cd100 O108 2.223 . S
Cd100 O110 2.297 . S
Cd100 O111 2.439 . S
O101 Cd100 2.240 . S
O101 C106 1.279 . S
O102 Cd99 2.297 1_545 S
O102 C104 1.247 . S
O103 Cd99 2.439 1_545 S
O103 C104 1.208 . S
C104 O102 1.247 . S
C104 O103 1.208 . S
C105 O110 1.247 . S
C105 O111 1.208 . S
C106 O98 1.315 . S
C106 O101 1.279 . S
C107 O108 1.315 . S
C107 O109 1.279 . S
O108 Cd100 2.223 . S
O108 C107 1.315 . S
O109 Cd99 2.240 . S
O109 C107 1.279 . S
O110 Cd100 2.297 . S
O110 C105 1.247 . S
O111 Cd100 2.439 . S
O111 C105 1.208 . S
O112 Cd113 2.223 . S
O112 C120 1.315 . S
Cd113 O112 2.223 . S
Cd113 O116 2.297 . S
Cd113 O117 2.439 . S
Cd113 O123 2.240 . S
Cd114 O115 2.240 . S
Cd114 O122 2.223 . S
Cd114 O124 2.297 1_455 S
Cd114 O125 2.439 1_455 S
O115 Cd114 2.240 . S
O115 C120 1.279 . S
O116 Cd113 2.297 . S
O116 C118 1.247 . S
O117 Cd113 2.439 . S
O117 C118 1.208 . S
C118 O116 1.247 . S
C118 O117 1.208 . S
C119 O124 1.247 . S
C119 O125 1.208 . S
C120 O112 1.315 . S
C120 O115 1.279 . S
C121 O122 1.315 . S
C121 O123 1.279 . S
O122 Cd114 2.223 . S
O122 C121 1.315 . S
O123 Cd113 2.240 . S
O123 C121 1.279 . S
O124 Cd114 2.297 1_655 S
O124 C119 1.247 . S
O125 Cd114 2.439 1_655 S
O125 C119 1.208 . S
O126 Cd127 2.223 . S
O126 C134 1.315 . S
Cd127 O126 2.223 . S
Cd127 O130 2.297 . S
Cd127 O131 2.439 . S
Cd127 O137 2.240 . S
Cd128 O129 2.240 . S
Cd128 O136 2.223 . S
Cd128 O138 2.297 1_565 S
Cd128 O139 2.439 1_565 S
O129 Cd128 2.240 . S
O129 C134 1.279 . S
O130 Cd127 2.297 . S
O130 C132 1.247 . S
O131 Cd127 2.439 . S
O131 C132 1.208 . S
C132 O130 1.247 . S
C132 O131 1.208 . S
C133 O138 1.247 . S
C133 O139 1.208 . S
C134 O126 1.315 . S
C134 O129 1.279 . S
C135 O136 1.315 . S
C135 O137 1.279 . S
O136 Cd128 2.223 . S
O136 C135 1.315 . S
O137 Cd127 2.240 . S
O137 C135 1.279 . S
O138 Cd128 2.297 1_545 S
O138 C133 1.247 . S
O139 Cd128 2.439 1_545 S
O139 C133 1.208 . S
O140 Cd141 2.223 . S
O140 C148 1.315 . S
Cd141 O140 2.223 . S
Cd141 O144 2.297 . S
Cd141 O145 2.439 . S
Cd141 O151 2.240 . S
Cd142 O143 2.240 . S
Cd142 O150 2.223 . S
Cd142 O152 2.297 1_455 S
Cd142 O153 2.439 1_455 S
O143 Cd142 2.240 . S
O143 C148 1.279 . S
O144 Cd141 2.297 . S
O144 C146 1.247 . S
O145 Cd141 2.439 . S
O145 C146 1.208 . S
C146 O144 1.247 . S
C146 O145 1.208 . S
C147 O152 1.247 . S
C147 O153 1.208 . S
C148 O140 1.315 . S
C148 O143 1.279 . S
C149 O150 1.315 . S
C149 O151 1.279 . S
O150 Cd142 2.223 . S
O150 C149 1.315 . S
O151 Cd141 2.240 . S
O151 C149 1.279 . S
O152 Cd142 2.297 1_655 S
O152 C147 1.247 . S
O153 Cd142 2.439 1_655 S
O153 C147 1.208 . S
O154 Cd155 2.223 . S
O154 C162 1.315 . S
Cd155 O154 2.223 . S
Cd155 O158 2.297 . S
Cd155 O159 2.439 . S
Cd155 O165 2.240 . S
Cd156 O157 2.240 . S
Cd156 O164 2.223 . S
Cd156 O166 2.297 . S
Cd156 O167 2.439 . S
O157 Cd156 2.240 . S
O157 C162 1.279 . S
O158 Cd155 2.297 . S
O158 C160 1.247 . S
O159 Cd155 2.439 . S
O159 C160 1.208 . S
C160 O158 1.247 . S
C160 O159 1.208 . S
C161 O166 1.247 . S
C161 O167 1.208 . S
C162 O154 1.315 . S
C162 O157 1.279 . S
C163 O164 1.315 . S
C163 O165 1.279 . S
O164 Cd156 2.223 . S
O164 C163 1.315 . S
O165 Cd155 2.240 . S
O165 C163 1.279 . S
O166 Cd156 2.297 . S
O166 C161 1.247 . S
O167 Cd156 2.439 . S
O167 C161 1.208 . S
O168 Cd169 2.223 . S
O168 C176 1.315 . S
Cd169 O168 2.223 . S
Cd169 O172 2.297 . S
Cd169 O173 2.439 . S
Cd169 O179 2.240 . S
Cd170 O171 2.240 . S
Cd170 O178 2.223 . S
Cd170 O180 2.297 1_545 S
Cd170 O181 2.439 1_545 S
O171 Cd170 2.240 . S
O171 C176 1.279 . S
O172 Cd169 2.297 . S
O172 C174 1.247 . S
O173 Cd169 2.439 . S
O173 C174 1.208 . S
C174 O172 1.247 . S
C174 O173 1.208 . S
C175 O180 1.247 . S
C175 O181 1.208 . S
C176 O168 1.315 . S
C176 O171 1.279 . S
C177 O178 1.315 . S
C177 O179 1.279 . S
O178 Cd170 2.223 . S
O178 C177 1.315 . S
O179 Cd169 2.240 . S
O179 C177 1.279 . S
O180 Cd170 2.297 1_565 S
O180 C175 1.247 . S
O181 Cd170 2.439 1_565 S
O181 C175 1.208 . S
O182 Cd183 2.223 . S
O182 C190 1.315 . S
Cd183 O182 2.223 . S
Cd183 O186 2.297 . S
Cd183 O187 2.439 . S
Cd183 O193 2.240 . S
Cd184 O185 2.240 . S
Cd184 O192 2.223 . S
Cd184 O194 2.297 1_655 S
Cd184 O195 2.439 1_655 S
O185 Cd184 2.240 . S
O185 C190 1.279 . S
O186 Cd183 2.297 . S
O186 C188 1.247 . S
O187 Cd183 2.439 . S
O187 C188 1.208 . S
C188 O186 1.247 . S
C188 O187 1.208 . S
C189 O194 1.247 . S
C189 O195 1.208 . S
C190 O182 1.315 . S
C190 O185 1.279 . S
C191 O192 1.315 . S
C191 O193 1.279 . S
O192 Cd184 2.223 . S
O192 C191 1.315 . S
O193 Cd183 2.240 . S
O193 C191 1.279 . S
O194 Cd184 2.297 1_455 S
O194 C189 1.247 . S
O195 Cd184 2.439 1_455 S
O195 C189 1.208 . S
O196 Cd197 2.223 . S
O196 C204 1.315 . S
Cd197 O196 2.223 . S
Cd197 O200 2.297 . S
Cd197 O201 2.439 . S
Cd197 O207 2.240 . S
Cd198 O199 2.240 . S
Cd198 O206 2.223 . S
Cd198 O208 2.297 . S
Cd198 O209 2.439 . S
O199 Cd198 2.240 . S
O199 C204 1.279 . S
O200 Cd197 2.297 . S
O200 C202 1.247 . S
O201 Cd197 2.439 . S
O201 C202 1.208 . S
C202 O200 1.247 . S
C202 O201 1.208 . S
C203 O208 1.247 . S
C203 O209 1.208 . S
C204 O196 1.315 . S
C204 O199 1.279 . S
C205 O206 1.315 . S
C205 O207 1.279 . S
O206 Cd198 2.223 . S
O206 C205 1.315 . S
O207 Cd197 2.240 . S
O207 C205 1.279 . S
O208 Cd198 2.297 . S
O208 C203 1.247 . S
O209 Cd198 2.439 . S
O209 C203 1.208 . S
O210 Cd211 2.223 . S
O210 C218 1.315 . S
Cd211 O210 2.223 . S
Cd211 O214 2.297 . S
Cd211 O215 2.439 . S
Cd211 O221 2.240 . S
Cd212 O213 2.240 . S
Cd212 O220 2.223 . S
Cd212 O222 2.297 . S
Cd212 O223 2.439 . S
O213 Cd212 2.240 . S
O213 C218 1.279 . S
O214 Cd211 2.297 . S
O214 C216 1.247 . S
O215 Cd211 2.439 . S
O215 C216 1.208 . S
C216 O214 1.247 . S
C216 O215 1.208 . S
C217 O222 1.247 . S
C217 O223 1.208 . S
C218 O210 1.315 . S
C218 O213 1.279 . S
C219 O220 1.315 . S
C219 O221 1.279 . S
O220 Cd212 2.223 . S
O220 C219 1.315 . S
O221 Cd211 2.240 . S
O221 C219 1.279 . S
O222 Cd212 2.297 . S
O222 C217 1.247 . S
O223 Cd212 2.439 . S
O223 C217 1.208 . S
O224 Cd225 2.223 . S
O224 C232 1.315 . S
Cd225 O224 2.223 . S
Cd225 O228 2.297 1_545 S
Cd225 O229 2.439 1_545 S
Cd225 O235 2.240 . S
Cd226 O227 2.240 . S
Cd226 O234 2.223 . S
Cd226 O236 2.297 . S
Cd226 O237 2.439 . S
O227 Cd226 2.240 . S
O227 C232 1.279 . S
O228 Cd225 2.297 1_565 S
O228 C230 1.247 . S
O229 Cd225 2.439 1_565 S
O229 C230 1.208 . S
C230 O228 1.247 . S
C230 O229 1.208 . S
C231 O236 1.247 . S
C231 O237 1.208 . S
C232 O224 1.315 . S
C232 O227 1.279 . S
C233 O234 1.315 . S
C233 O235 1.279 . S
O234 Cd226 2.223 . S
O234 C233 1.315 . S
O235 Cd225 2.240 . S
O235 C233 1.279 . S
O236 Cd226 2.297 . S
O236 C231 1.247 . S
O237 Cd226 2.439 . S
O237 C231 1.208 . S
O238 Cd239 2.223 . S
O238 C246 1.315 . S
Cd239 O238 2.223 . S
Cd239 O242 2.297 . S
Cd239 O243 2.439 . S
Cd239 O249 2.240 . S
Cd240 O241 2.240 . S
Cd240 O248 2.223 . S
Cd240 O250 2.297 1_655 S
Cd240 O251 2.439 1_655 S
O241 Cd240 2.240 . S
O241 C246 1.279 . S
O242 Cd239 2.297 . S
O242 C244 1.247 . S
O243 Cd239 2.439 . S
O243 C244 1.208 . S
C244 O242 1.247 . S
C244 O243 1.208 . S
C245 O250 1.247 . S
C245 O251 1.208 . S
C246 O238 1.315 . S
C246 O241 1.279 . S
C247 O248 1.315 . S
C247 O249 1.279 . S
O248 Cd240 2.223 . S
O248 C247 1.315 . S
O249 Cd239 2.240 . S
O249 C247 1.279 . S
O250 Cd240 2.297 1_455 S
O250 C245 1.247 . S
O251 Cd240 2.439 1_455 S
O251 C245 1.208 . S
C252 C253 1.560 . S
C252 H313 0.959 . S
C252 H314 0.959 . S
C252 H315 0.960 . S
C253 C252 1.560 . S
C253 O308 1.426 . S
C253 H312 0.980 . S
C254 C255 1.407 . S
C254 C259 1.418 . S
C254 O308 1.334 . S
C255 C254 1.407 . S
C255 C256 1.360 . S
C255 H316 0.929 . S
C256 C255 1.360 . S
C256 C257 1.401 . S
C256 C260 1.527 . S
C257 C256 1.401 . S
C257 C258 1.405 . S
C257 C290 1.587 . S
C258 C257 1.405 . S
C258 C259 1.332 . S
C258 C261 1.496 . S
C259 C254 1.418 . S
C259 C258 1.332 . S
C259 H317 0.929 . S
C260 C256 1.527 . S
C260 H318 0.959 . S
C260 H319 0.961 . S
C260 H320 0.961 . S
C261 C258 1.496 . S
C261 H321 0.960 . S
C261 H322 0.960 . S
C261 H323 0.961 . S
C262 C263 1.517 . S
C262 H325 0.961 . S
C262 H326 0.960 . S
C262 H327 0.959 . S
C263 C262 1.517 . S
C263 O311 1.468 . S
C263 H324 0.980 . S
C264 C265 1.349 . S
C264 C269 1.367 . S
C264 O311 1.408 . S
C265 C264 1.349 . S
C265 C266 1.407 . S
C265 H328 0.930 . S
C266 C265 1.407 . S
C266 C267 1.449 . S
C266 C270 1.535 . S
C267 C266 1.449 . S
C267 C268 1.384 . S
C267 C292 1.553 . S
C268 C267 1.384 . S
C268 C269 1.364 . S
C268 C271 1.450 . S
C269 C264 1.367 . S
C269 C268 1.364 . S
C269 H329 0.931 . S
C270 C266 1.535 . S
C270 H330 0.959 . S
C270 H331 0.961 . S
C270 H332 0.959 . S
C271 C268 1.450 . S
C271 H333 0.960 . S
C271 H334 0.960 . S
C271 H335 0.960 . S
C272 C273 1.309 . S
C272 C277 1.304 . S
C272 O310 1.435 . S
C273 C272 1.309 . S
C273 C274 1.476 . S
C273 H337 0.930 . S
C274 C273 1.476 . S
C274 C275 1.400 . S
C274 C278 1.567 . S
C275 C274 1.400 . S
C275 C276 1.373 . S
C275 C297 1.432 . S
C276 C275 1.373 . S
C276 C277 1.339 . S
C276 C279 1.530 . S
C277 C272 1.304 . S
C277 C276 1.339 . S
C277 H338 0.930 . S
C278 C274 1.567 . S
C278 H339 0.961 . S
C278 H340 0.960 . S
C278 H341 0.958 . S
C279 C276 1.530 . S
C279 H342 0.961 . S
C279 H343 0.960 . S
C279 H344 0.960 . S
C280 C281 1.530 . S
C280 H346 0.961 . S
C280 H347 0.961 . S
C280 H348 0.959 . S
C281 C280 1.530 . S
C281 O309 1.412 . S
C281 H345 0.980 . S
C282 C283 1.288 . S
C282 C287 1.377 . S
C282 O309 1.393 . S
C283 C282 1.288 . S
C283 C284 1.369 . S
C283 H349 0.932 . S
C284 C283 1.369 . S
C284 C285 1.398 . S
C284 C288 1.527 . S
C285 C284 1.398 . S
C285 C286 1.380 . S
C285 C299 1.497 . S
C286 C285 1.380 . S
C286 C287 1.383 . S
C286 C289 1.603 . S
C287 C282 1.377 . S
C287 C286 1.383 . S
C287 H350 0.929 . S
C288 C284 1.527 . S
C288 H351 0.961 . S
C288 H352 0.959 . S
C288 H353 0.959 . S
C289 C286 1.603 . S
C289 H354 0.960 . S
C289 H355 0.962 . S
C289 H356 0.961 . S
C290 C257 1.587 . S
C290 C291 1.360 . S
C290 C303 1.412 . S
C291 C290 1.360 . S
C291 C292 1.365 . S
C291 H357 0.929 . S
C292 C267 1.553 . S
C292 C291 1.365 . S
C292 C293 1.404 . S
C293 C292 1.404 . S
C293 C294 1.395 . S
C293 C304 1.451 . S
C294 C293 1.395 . S
C294 C295 1.322 . S
C294 H358 0.930 . S
C295 C294 1.322 . S
C295 C296 1.459 . S
C295 H359 0.929 . S
C296 C295 1.459 . S
C296 C297 1.445 . S
C296 C305 1.395 . S
C297 C275 1.432 . S
C297 C296 1.445 . S
C297 C298 1.370 . S
C298 C297 1.370 . S
C298 C299 1.438 . S
C298 H360 0.930 . S
C299 C285 1.497 . S
C299 C298 1.438 . S
C299 C300 1.360 . S
C300 C299 1.360 . S
C300 C301 1.401 . S
C300 C305 1.446 . S
C301 C300 1.401 . S
C301 C302 1.347 . S
C301 H361 0.929 . S
C302 C301 1.347 . S
C302 C303 1.455 . S
C302 H362 0.930 . S
C303 C290 1.412 . S
C303 C302 1.455 . S
C303 C304 1.331 . S
C304 C293 1.451 . S
C304 C303 1.331 . S
C304 C305 1.497 . S
C305 C296 1.395 . S
C305 C300 1.446 . S
C305 C304 1.497 . S
C306 C307 1.582 . S
C306 H363 0.962 . S
C306 H364 0.959 . S
C306 H365 0.958 . S
C307 C306 1.582 . S
C307 O310 1.458 . S
C307 H336 0.980 . S
O308 C253 1.426 . S
O308 C254 1.334 . S
O309 C281 1.412 . S
O309 C282 1.393 . S
O310 C272 1.435 . S
O310 C307 1.458 . S
O311 C263 1.468 . S
O311 C264 1.408 . S
H312 C253 0.980 . S
H313 C252 0.959 . S
H314 C252 0.959 . S
H315 C252 0.960 . S
H316 C255 0.929 . S
H317 C259 0.929 . S
H318 C260 0.959 . S
H319 C260 0.961 . S
H320 C260 0.961 . S
H321 C261 0.960 . S
H322 C261 0.960 . S
H323 C261 0.961 . S
H324 C263 0.980 . S
H325 C262 0.961 . S
H326 C262 0.960 . S
H327 C262 0.959 . S
H328 C265 0.930 . S
H329 C269 0.931 . S
H330 C270 0.959 . S
H331 C270 0.961 . S
H332 C270 0.959 . S
H333 C271 0.960 . S
H334 C271 0.960 . S
H335 C271 0.960 . S
H336 C307 0.980 . S
H337 C273 0.930 . S
H338 C277 0.930 . S
H339 C278 0.961 . S
H340 C278 0.960 . S
H341 C278 0.958 . S
H342 C279 0.961 . S
H343 C279 0.960 . S
H344 C279 0.960 . S
H345 C281 0.980 . S
H346 C280 0.961 . S
H347 C280 0.961 . S
H348 C280 0.959 . S
H349 C283 0.932 . S
H350 C287 0.929 . S
H351 C288 0.961 . S
H352 C288 0.959 . S
H353 C288 0.959 . S
H354 C289 0.960 . S
H355 C289 0.962 . S
H356 C289 0.961 . S
H357 C291 0.929 . S
H358 C294 0.930 . S
H359 C295 0.929 . S
H360 C298 0.930 . S
H361 C301 0.929 . S
H362 C302 0.930 . S
H363 C306 0.962 . S
H364 C306 0.959 . S
H365 C306 0.958 . S
C366 C367 1.560 . S
C366 H427 0.959 . S
C366 H428 0.959 . S
C366 H429 0.960 . S
C367 C366 1.560 . S
C367 O422 1.426 . S
C367 H426 0.980 . S
C368 C369 1.407 . S
C368 C373 1.418 . S
C368 O422 1.334 . S
C369 C368 1.407 . S
C369 C370 1.360 . S
C369 H430 0.929 . S
C370 C369 1.360 . S
C370 C371 1.401 . S
C370 C374 1.527 . S
C371 C370 1.401 . S
C371 C372 1.405 . S
C371 C404 1.587 . S
C372 C371 1.405 . S
C372 C373 1.332 . S
C372 C375 1.496 . S
C373 C368 1.418 . S
C373 C372 1.332 . S
C373 H431 0.929 . S
C374 C370 1.527 . S
C374 H432 0.959 . S
C374 H433 0.961 . S
C374 H434 0.961 . S
C375 C372 1.496 . S
C375 H435 0.960 . S
C375 H436 0.960 . S
C375 H437 0.961 . S
C376 C377 1.517 . S
C376 H439 0.961 . S
C376 H440 0.960 . S
C376 H441 0.959 . S
C377 C376 1.517 . S
C377 O425 1.468 . S
C377 H438 0.980 . S
C378 C379 1.349 . S
C378 C383 1.367 . S
C378 O425 1.408 . S
C379 C378 1.349 . S
C379 C380 1.407 . S
C379 H442 0.930 . S
C380 C379 1.407 . S
C380 C381 1.449 . S
C380 C384 1.535 . S
C381 C380 1.449 . S
C381 C382 1.384 . S
C381 C406 1.553 . S
C382 C381 1.384 . S
C382 C383 1.364 . S
C382 C385 1.450 . S
C383 C378 1.367 . S
C383 C382 1.364 . S
C383 H443 0.931 . S
C384 C380 1.535 . S
C384 H444 0.959 . S
C384 H445 0.961 . S
C384 H446 0.959 . S
C385 C382 1.450 . S
C385 H447 0.960 . S
C385 H448 0.960 . S
C385 H449 0.960 . S
C386 C387 1.309 . S
C386 C391 1.304 . S
C386 O424 1.435 . S
C387 C386 1.309 . S
C387 C388 1.476 . S
C387 H451 0.930 . S
C388 C387 1.476 . S
C388 C389 1.400 . S
C388 C392 1.567 . S
C389 C388 1.400 . S
C389 C390 1.373 . S
C389 C411 1.432 . S
C390 C389 1.373 . S
C390 C391 1.339 . S
C390 C393 1.530 . S
C391 C386 1.304 . S
C391 C390 1.339 . S
C391 H452 0.930 . S
C392 C388 1.567 . S
C392 H453 0.961 . S
C392 H454 0.960 . S
C392 H455 0.958 . S
C393 C390 1.530 . S
C393 H456 0.961 . S
C393 H457 0.960 . S
C393 H458 0.960 . S
C394 C395 1.530 . S
C394 H460 0.961 . S
C394 H461 0.961 . S
C394 H462 0.959 . S
C395 C394 1.530 . S
C395 O423 1.412 . S
C395 H459 0.980 . S
C396 C397 1.288 . S
C396 C401 1.377 . S
C396 O423 1.393 . S
C397 C396 1.288 . S
C397 C398 1.369 . S
C397 H463 0.932 . S
C398 C397 1.369 . S
C398 C399 1.398 . S
C398 C402 1.527 . S
C399 C398 1.398 . S
C399 C400 1.380 . S
C399 C413 1.497 . S
C400 C399 1.380 . S
C400 C401 1.383 . S
C400 C403 1.603 . S
C401 C396 1.377 . S
C401 C400 1.383 . S
C401 H464 0.929 . S
C402 C398 1.527 . S
C402 H465 0.961 . S
C402 H466 0.959 . S
C402 H467 0.959 . S
C403 C400 1.603 . S
C403 H468 0.960 . S
C403 H469 0.962 . S
C403 H470 0.961 . S
C404 C371 1.587 . S
C404 C405 1.360 . S
C404 C417 1.412 . S
C405 C404 1.360 . S
C405 C406 1.365 . S
C405 H471 0.929 . S
C406 C381 1.553 . S
C406 C405 1.365 . S
C406 C407 1.404 . S
C407 C406 1.404 . S
C407 C408 1.395 . S
C407 C418 1.451 . S
C408 C407 1.395 . S
C408 C409 1.322 . S
C408 H472 0.930 . S
C409 C408 1.322 . S
C409 C410 1.459 . S
C409 H473 0.929 . S
C410 C409 1.459 . S
C410 C411 1.445 . S
C410 C419 1.395 . S
C411 C389 1.432 . S
C411 C410 1.445 . S
C411 C412 1.370 . S
C412 C411 1.370 . S
C412 C413 1.438 . S
C412 H474 0.930 . S
C413 C399 1.497 . S
C413 C412 1.438 . S
C413 C414 1.360 . S
C414 C413 1.360 . S
C414 C415 1.401 . S
C414 C419 1.446 . S
C415 C414 1.401 . S
C415 C416 1.347 . S
C415 H475 0.929 . S
C416 C415 1.347 . S
C416 C417 1.455 . S
C416 H476 0.930 . S
C417 C404 1.412 . S
C417 C416 1.455 . S
C417 C418 1.331 . S
C418 C407 1.451 . S
C418 C417 1.331 . S
C418 C419 1.497 . S
C419 C410 1.395 . S
C419 C414 1.446 . S
C419 C418 1.497 . S
C420 C421 1.582 . S
C420 H477 0.962 . S
C420 H478 0.959 . S
C420 H479 0.958 . S
C421 C420 1.582 . S
C421 O424 1.458 . S
C421 H450 0.980 . S
O422 C367 1.426 . S
O422 C368 1.334 . S
O423 C395 1.412 . S
O423 C396 1.393 . S
O424 C386 1.435 . S
O424 C421 1.458 . S
O425 C377 1.468 . S
O425 C378 1.408 . S
H426 C367 0.980 . S
H427 C366 0.959 . S
H428 C366 0.959 . S
H429 C366 0.960 . S
H430 C369 0.929 . S
H431 C373 0.929 . S
H432 C374 0.959 . S
H433 C374 0.961 . S
H434 C374 0.961 . S
H435 C375 0.960 . S
H436 C375 0.960 . S
H437 C375 0.961 . S
H438 C377 0.980 . S
H439 C376 0.961 . S
H440 C376 0.960 . S
H441 C376 0.959 . S
H442 C379 0.930 . S
H443 C383 0.931 . S
H444 C384 0.959 . S
H445 C384 0.961 . S
H446 C384 0.959 . S
H447 C385 0.960 . S
H448 C385 0.960 . S
H449 C385 0.960 . S
H450 C421 0.980 . S
H451 C387 0.930 . S
H452 C391 0.930 . S
H453 C392 0.961 . S
H454 C392 0.960 . S
H455 C392 0.958 . S
H456 C393 0.961 . S
H457 C393 0.960 . S
H458 C393 0.960 . S
H459 C395 0.980 . S
H460 C394 0.961 . S
H461 C394 0.961 . S
H462 C394 0.959 . S
H463 C397 0.932 . S
H464 C401 0.929 . S
H465 C402 0.961 . S
H466 C402 0.959 . S
H467 C402 0.959 . S
H468 C403 0.960 . S
H469 C403 0.962 . S
H470 C403 0.961 . S
H471 C405 0.929 . S
H472 C408 0.930 . S
H473 C409 0.929 . S
H474 C412 0.930 . S
H475 C415 0.929 . S
H476 C416 0.930 . S
H477 C420 0.962 . S
H478 C420 0.959 . S
H479 C420 0.958 . S
C480 C481 1.560 . S
C480 H541 0.959 . S
C480 H542 0.959 . S
C480 H543 0.960 . S
C481 C480 1.560 . S
C481 O536 1.426 . S
C481 H540 0.980 . S
C482 C483 1.407 . S
C482 C487 1.418 . S
C482 O536 1.334 . S
C483 C482 1.407 . S
C483 C484 1.360 . S
C483 H544 0.929 . S
C484 C483 1.360 . S
C484 C485 1.401 . S
C484 C488 1.527 . S
C485 C484 1.401 . S
C485 C486 1.405 . S
C485 C518 1.587 . S
C486 C485 1.405 . S
C486 C487 1.332 . S
C486 C489 1.496 . S
C487 C482 1.418 . S
C487 C486 1.332 . S
C487 H545 0.929 . S
C488 C484 1.527 . S
C488 H546 0.959 . S
C488 H547 0.961 . S
C488 H548 0.961 . S
C489 C486 1.496 . S
C489 H549 0.960 . S
C489 H550 0.960 . S
C489 H551 0.961 . S
C490 C491 1.517 . S
C490 H553 0.961 . S
C490 H554 0.960 . S
C490 H555 0.959 . S
C491 C490 1.517 . S
C491 O539 1.468 . S
C491 H552 0.980 . S
C492 C493 1.349 . S
C492 C497 1.367 . S
C492 O539 1.408 . S
C493 C492 1.349 . S
C493 C494 1.407 . S
C493 H556 0.930 . S
C494 C493 1.407 . S
C494 C495 1.449 . S
C494 C498 1.535 . S
C495 C494 1.449 . S
C495 C496 1.384 . S
C495 C520 1.553 . S
C496 C495 1.384 . S
C496 C497 1.364 . S
C496 C499 1.450 . S
C497 C492 1.367 . S
C497 C496 1.364 . S
C497 H557 0.931 . S
C498 C494 1.535 . S
C498 H558 0.959 . S
C498 H559 0.961 . S
C498 H560 0.959 . S
C499 C496 1.450 . S
C499 H561 0.960 . S
C499 H562 0.960 . S
C499 H563 0.960 . S
C500 C501 1.309 . S
C500 C505 1.304 . S
C500 O538 1.435 . S
C501 C500 1.309 . S
C501 C502 1.476 . S
C501 H565 0.930 . S
C502 C501 1.476 . S
C502 C503 1.400 . S
C502 C506 1.567 . S
C503 C502 1.400 . S
C503 C504 1.373 . S
C503 C525 1.432 . S
C504 C503 1.373 . S
C504 C505 1.339 . S
C504 C507 1.530 . S
C505 C500 1.304 . S
C505 C504 1.339 . S
C505 H566 0.930 . S
C506 C502 1.567 . S
C506 H567 0.961 . S
C506 H568 0.960 . S
C506 H569 0.958 . S
C507 C504 1.530 . S
C507 H570 0.961 . S
C507 H571 0.960 . S
C507 H572 0.960 . S
C508 C509 1.530 . S
C508 H574 0.961 . S
C508 H575 0.961 . S
C508 H576 0.959 . S
C509 C508 1.530 . S
C509 O537 1.412 . S
C509 H573 0.980 . S
C510 C511 1.288 . S
C510 C515 1.377 . S
C510 O537 1.393 . S
C511 C510 1.288 . S
C511 C512 1.369 . S
C511 H577 0.932 . S
C512 C511 1.369 . S
C512 C513 1.398 . S
C512 C516 1.527 . S
C513 C512 1.398 . S
C513 C514 1.380 . S
C513 C527 1.497 . S
C514 C513 1.380 . S
C514 C515 1.383 . S
C514 C517 1.603 . S
C515 C510 1.377 . S
C515 C514 1.383 . S
C515 H578 0.929 . S
C516 C512 1.527 . S
C516 H579 0.961 . S
C516 H580 0.959 . S
C516 H581 0.959 . S
C517 C514 1.603 . S
C517 H582 0.960 . S
C517 H583 0.962 . S
C517 H584 0.961 . S
C518 C485 1.587 . S
C518 C519 1.360 . S
C518 C531 1.412 . S
C519 C518 1.360 . S
C519 C520 1.365 . S
C519 H585 0.929 . S
C520 C495 1.553 . S
C520 C519 1.365 . S
C520 C521 1.404 . S
C521 C520 1.404 . S
C521 C522 1.395 . S
C521 C532 1.451 . S
C522 C521 1.395 . S
C522 C523 1.322 . S
C522 H586 0.930 . S
C523 C522 1.322 . S
C523 C524 1.459 . S
C523 H587 0.929 . S
C524 C523 1.459 . S
C524 C525 1.445 . S
C524 C533 1.395 . S
C525 C503 1.432 . S
C525 C524 1.445 . S
C525 C526 1.370 . S
C526 C525 1.370 . S
C526 C527 1.438 . S
C526 H588 0.930 . S
C527 C513 1.497 . S
C527 C526 1.438 . S
C527 C528 1.360 . S
C528 C527 1.360 . S
C528 C529 1.401 . S
C528 C533 1.446 . S
C529 C528 1.401 . S
C529 C530 1.347 . S
C529 H589 0.929 . S
C530 C529 1.347 . S
C530 C531 1.455 . S
C530 H590 0.930 . S
C531 C518 1.412 . S
C531 C530 1.455 . S
C531 C532 1.331 . S
C532 C521 1.451 . S
C532 C531 1.331 . S
C532 C533 1.497 . S
C533 C524 1.395 . S
C533 C528 1.446 . S
C533 C532 1.497 . S
C534 C535 1.582 . S
C534 H591 0.962 . S
C534 H592 0.959 . S
C534 H593 0.958 . S
C535 C534 1.582 . S
C535 O538 1.458 . S
C535 H564 0.980 . S
O536 C481 1.426 . S
O536 C482 1.334 . S
O537 C509 1.412 . S
O537 C510 1.393 . S
O538 C500 1.435 . S
O538 C535 1.458 . S
O539 C491 1.468 . S
O539 C492 1.408 . S
H540 C481 0.980 . S
H541 C480 0.959 . S
H542 C480 0.959 . S
H543 C480 0.960 . S
H544 C483 0.929 . S
H545 C487 0.929 . S
H546 C488 0.959 . S
H547 C488 0.961 . S
H548 C488 0.961 . S
H549 C489 0.960 . S
H550 C489 0.960 . S
H551 C489 0.961 . S
H552 C491 0.980 . S
H553 C490 0.961 . S
H554 C490 0.960 . S
H555 C490 0.959 . S
H556 C493 0.930 . S
H557 C497 0.931 . S
H558 C498 0.959 . S
H559 C498 0.961 . S
H560 C498 0.959 . S
H561 C499 0.960 . S
H562 C499 0.960 . S
H563 C499 0.960 . S
H564 C535 0.980 . S
H565 C501 0.930 . S
H566 C505 0.930 . S
H567 C506 0.961 . S
H568 C506 0.960 . S
H569 C506 0.958 . S
H570 C507 0.961 . S
H571 C507 0.960 . S
H572 C507 0.960 . S
H573 C509 0.980 . S
H574 C508 0.961 . S
H575 C508 0.961 . S
H576 C508 0.959 . S
H577 C511 0.932 . S
H578 C515 0.929 . S
H579 C516 0.961 . S
H580 C516 0.959 . S
H581 C516 0.959 . S
H582 C517 0.960 . S
H583 C517 0.962 . S
H584 C517 0.961 . S
H585 C519 0.929 . S
H586 C522 0.930 . S
H587 C523 0.929 . S
H588 C526 0.930 . S
H589 C529 0.929 . S
H590 C530 0.930 . S
H591 C534 0.962 . S
H592 C534 0.959 . S
H593 C534 0.958 . S
C594 C595 1.560 . S
C594 H655 0.959 . S
C594 H656 0.959 . S
C594 H657 0.960 . S
C595 C594 1.560 . S
C595 O650 1.426 . S
C595 H654 0.980 . S
C596 C597 1.407 . S
C596 C601 1.418 . S
C596 O650 1.334 . S
C597 C596 1.407 . S
C597 C598 1.360 . S
C597 H658 0.929 . S
C598 C597 1.360 . S
C598 C599 1.401 . S
C598 C602 1.527 . S
C599 C598 1.401 . S
C599 C600 1.405 . S
C599 C632 1.587 . S
C600 C599 1.405 . S
C600 C601 1.332 . S
C600 C603 1.496 . S
C601 C596 1.418 . S
C601 C600 1.332 . S
C601 H659 0.929 . S
C602 C598 1.527 . S
C602 H660 0.959 . S
C602 H661 0.961 . S
C602 H662 0.961 . S
C603 C600 1.496 . S
C603 H663 0.960 . S
C603 H664 0.960 . S
C603 H665 0.961 . S
C604 C605 1.517 . S
C604 H667 0.961 . S
C604 H668 0.960 . S
C604 H669 0.959 . S
C605 C604 1.517 . S
C605 O653 1.468 . S
C605 H666 0.980 . S
C606 C607 1.349 . S
C606 C611 1.367 . S
C606 O653 1.408 . S
C607 C606 1.349 . S
C607 C608 1.407 . S
C607 H670 0.930 . S
C608 C607 1.407 . S
C608 C609 1.449 . S
C608 C612 1.535 . S
C609 C608 1.449 . S
C609 C610 1.384 . S
C609 C634 1.553 . S
C610 C609 1.384 . S
C610 C611 1.364 . S
C610 C613 1.450 . S
C611 C606 1.367 . S
C611 C610 1.364 . S
C611 H671 0.931 . S
C612 C608 1.535 . S
C612 H672 0.959 . S
C612 H673 0.961 . S
C612 H674 0.959 . S
C613 C610 1.450 . S
C613 H675 0.960 . S
C613 H676 0.960 . S
C613 H677 0.960 . S
C614 C615 1.309 . S
C614 C619 1.304 . S
C614 O652 1.435 . S
C615 C614 1.309 . S
C615 C616 1.476 . S
C615 H679 0.930 . S
C616 C615 1.476 . S
C616 C617 1.400 . S
C616 C620 1.567 . S
C617 C616 1.400 . S
C617 C618 1.373 . S
C617 C639 1.432 . S
C618 C617 1.373 . S
C618 C619 1.339 . S
C618 C621 1.530 . S
C619 C614 1.304 . S
C619 C618 1.339 . S
C619 H680 0.930 . S
C620 C616 1.567 . S
C620 H681 0.961 . S
C620 H682 0.960 . S
C620 H683 0.958 . S
C621 C618 1.530 . S
C621 H684 0.961 . S
C621 H685 0.960 . S
C621 H686 0.960 . S
C622 C623 1.530 . S
C622 H688 0.961 . S
C622 H689 0.961 . S
C622 H690 0.959 . S
C623 C622 1.530 . S
C623 O651 1.412 . S
C623 H687 0.980 . S
C624 C625 1.288 . S
C624 C629 1.377 . S
C624 O651 1.393 . S
C625 C624 1.288 . S
C625 C626 1.369 . S
C625 H691 0.932 . S
C626 C625 1.369 . S
C626 C627 1.398 . S
C626 C630 1.527 . S
C627 C626 1.398 . S
C627 C628 1.380 . S
C627 C641 1.497 . S
C628 C627 1.380 . S
C628 C629 1.383 . S
C628 C631 1.603 . S
C629 C624 1.377 . S
C629 C628 1.383 . S
C629 H692 0.929 . S
C630 C626 1.527 . S
C630 H693 0.961 . S
C630 H694 0.959 . S
C630 H695 0.959 . S
C631 C628 1.603 . S
C631 H696 0.960 . S
C631 H697 0.962 . S
C631 H698 0.961 . S
C632 C599 1.587 . S
C632 C633 1.360 . S
C632 C645 1.412 . S
C633 C632 1.360 . S
C633 C634 1.365 . S
C633 H699 0.929 . S
C634 C609 1.553 . S
C634 C633 1.365 . S
C634 C635 1.404 . S
C635 C634 1.404 . S
C635 C636 1.395 . S
C635 C646 1.451 . S
C636 C635 1.395 . S
C636 C637 1.322 . S
C636 H700 0.930 . S
C637 C636 1.322 . S
C637 C638 1.459 . S
C637 H701 0.929 . S
C638 C637 1.459 . S
C638 C639 1.445 . S
C638 C647 1.395 . S
C639 C617 1.432 . S
C639 C638 1.445 . S
C639 C640 1.370 . S
C640 C639 1.370 . S
C640 C641 1.438 . S
C640 H702 0.930 . S
C641 C627 1.497 . S
C641 C640 1.438 . S
C641 C642 1.360 . S
C642 C641 1.360 . S
C642 C643 1.401 . S
C642 C647 1.446 . S
C643 C642 1.401 . S
C643 C644 1.347 . S
C643 H703 0.929 . S
C644 C643 1.347 . S
C644 C645 1.455 . S
C644 H704 0.930 . S
C645 C632 1.412 . S
C645 C644 1.455 . S
C645 C646 1.331 . S
C646 C635 1.451 . S
C646 C645 1.331 . S
C646 C647 1.497 . S
C647 C638 1.395 . S
C647 C642 1.446 . S
C647 C646 1.497 . S
C648 C649 1.582 . S
C648 H705 0.962 . S
C648 H706 0.959 . S
C648 H707 0.958 . S
C649 C648 1.582 . S
C649 O652 1.458 . S
C649 H678 0.980 . S
O650 C595 1.426 . S
O650 C596 1.334 . S
O651 C623 1.412 . S
O651 C624 1.393 . S
O652 C614 1.435 . S
O652 C649 1.458 . S
O653 C605 1.468 . S
O653 C606 1.408 . S
H654 C595 0.980 . S
H655 C594 0.959 . S
H656 C594 0.959 . S
H657 C594 0.960 . S
H658 C597 0.929 . S
H659 C601 0.929 . S
H660 C602 0.959 . S
H661 C602 0.961 . S
H662 C602 0.961 . S
H663 C603 0.960 . S
H664 C603 0.960 . S
H665 C603 0.961 . S
H666 C605 0.980 . S
H667 C604 0.961 . S
H668 C604 0.960 . S
H669 C604 0.959 . S
H670 C607 0.930 . S
H671 C611 0.931 . S
H672 C612 0.959 . S
H673 C612 0.961 . S
H674 C612 0.959 . S
H675 C613 0.960 . S
H676 C613 0.960 . S
H677 C613 0.960 . S
H678 C649 0.980 . S
H679 C615 0.930 . S
H680 C619 0.930 . S
H681 C620 0.961 . S
H682 C620 0.960 . S
H683 C620 0.958 . S
H684 C621 0.961 . S
H685 C621 0.960 . S
H686 C621 0.960 . S
H687 C623 0.980 . S
H688 C622 0.961 . S
H689 C622 0.961 . S
H690 C622 0.959 . S
H691 C625 0.932 . S
H692 C629 0.929 . S
H693 C630 0.961 . S
H694 C630 0.959 . S
H695 C630 0.959 . S
H696 C631 0.960 . S
H697 C631 0.962 . S
H698 C631 0.961 . S
H699 C633 0.929 . S
H700 C636 0.930 . S
H701 C637 0.929 . S
H702 C640 0.930 . S
H703 C643 0.929 . S
H704 C644 0.930 . S
H705 C648 0.962 . S
H706 C648 0.959 . S
H707 C648 0.958 . S
C708 C709 1.560 . S
C708 H769 0.959 . S
C708 H770 0.959 . S
C708 H771 0.960 . S
C709 C708 1.560 . S
C709 O764 1.426 . S
C709 H768 0.980 . S
C710 C711 1.407 . S
C710 C715 1.418 . S
C710 O764 1.334 . S
C711 C710 1.407 . S
C711 C712 1.360 . S
C711 H772 0.929 . S
C712 C711 1.360 . S
C712 C713 1.401 . S
C712 C716 1.527 . S
C713 C712 1.401 . S
C713 C714 1.405 . S
C713 C746 1.587 . S
C714 C713 1.405 . S
C714 C715 1.332 . S
C714 C717 1.496 . S
C715 C710 1.418 . S
C715 C714 1.332 . S
C715 H773 0.929 . S
C716 C712 1.527 . S
C716 H774 0.959 . S
C716 H775 0.961 . S
C716 H776 0.961 . S
C717 C714 1.496 . S
C717 H777 0.960 . S
C717 H778 0.960 . S
C717 H779 0.961 . S
C718 C719 1.517 . S
C718 H781 0.961 . S
C718 H782 0.960 . S
C718 H783 0.959 . S
C719 C718 1.517 . S
C719 O767 1.468 . S
C719 H780 0.980 . S
C720 C721 1.349 . S
C720 C725 1.367 . S
C720 O767 1.408 . S
C721 C720 1.349 . S
C721 C722 1.407 . S
C721 H784 0.930 . S
C722 C721 1.407 . S
C722 C723 1.449 . S
C722 C726 1.535 . S
C723 C722 1.449 . S
C723 C724 1.384 . S
C723 C748 1.553 . S
C724 C723 1.384 . S
C724 C725 1.364 . S
C724 C727 1.450 . S
C725 C720 1.367 . S
C725 C724 1.364 . S
C725 H785 0.931 . S
C726 C722 1.535 . S
C726 H786 0.959 . S
C726 H787 0.961 . S
C726 H788 0.959 . S
C727 C724 1.450 . S
C727 H789 0.960 . S
C727 H790 0.960 . S
C727 H791 0.960 . S
C728 C729 1.309 . S
C728 C733 1.304 . S
C728 O766 1.435 . S
C729 C728 1.309 . S
C729 C730 1.476 . S
C729 H793 0.930 . S
C730 C729 1.476 . S
C730 C731 1.400 . S
C730 C734 1.567 . S
C731 C730 1.400 . S
C731 C732 1.373 . S
C731 C753 1.432 . S
C732 C731 1.373 . S
C732 C733 1.339 . S
C732 C735 1.530 . S
C733 C728 1.304 . S
C733 C732 1.339 . S
C733 H794 0.930 . S
C734 C730 1.567 . S
C734 H795 0.961 . S
C734 H796 0.960 . S
C734 H797 0.958 . S
C735 C732 1.530 . S
C735 H798 0.961 . S
C735 H799 0.960 . S
C735 H800 0.960 . S
C736 C737 1.530 . S
C736 H802 0.961 . S
C736 H803 0.961 . S
C736 H804 0.959 . S
C737 C736 1.530 . S
C737 O765 1.412 . S
C737 H801 0.980 . S
C738 C739 1.288 . S
C738 C743 1.377 . S
C738 O765 1.393 . S
C739 C738 1.288 . S
C739 C740 1.369 . S
C739 H805 0.932 . S
C740 C739 1.369 . S
C740 C741 1.398 . S
C740 C744 1.527 . S
C741 C740 1.398 . S
C741 C742 1.380 . S
C741 C755 1.497 . S
C742 C741 1.380 . S
C742 C743 1.383 . S
C742 C745 1.603 . S
C743 C738 1.377 . S
C743 C742 1.383 . S
C743 H806 0.929 . S
C744 C740 1.527 . S
C744 H807 0.961 . S
C744 H808 0.959 . S
C744 H809 0.959 . S
C745 C742 1.603 . S
C745 H810 0.960 . S
C745 H811 0.962 . S
C745 H812 0.961 . S
C746 C713 1.587 . S
C746 C747 1.360 . S
C746 C759 1.412 . S
C747 C746 1.360 . S
C747 C748 1.365 . S
C747 H813 0.929 . S
C748 C723 1.553 . S
C748 C747 1.365 . S
C748 C749 1.404 . S
C749 C748 1.404 . S
C749 C750 1.395 . S
C749 C760 1.451 . S
C750 C749 1.395 . S
C750 C751 1.322 . S
C750 H814 0.930 . S
C751 C750 1.322 . S
C751 C752 1.459 . S
C751 H815 0.929 . S
C752 C751 1.459 . S
C752 C753 1.445 . S
C752 C761 1.395 . S
C753 C731 1.432 . S
C753 C752 1.445 . S
C753 C754 1.370 . S
C754 C753 1.370 . S
C754 C755 1.438 . S
C754 H816 0.930 . S
C755 C741 1.497 . S
C755 C754 1.438 . S
C755 C756 1.360 . S
C756 C755 1.360 . S
C756 C757 1.401 . S
C756 C761 1.446 . S
C757 C756 1.401 . S
C757 C758 1.347 . S
C757 H817 0.929 . S
C758 C757 1.347 . S
C758 C759 1.455 . S
C758 H818 0.930 . S
C759 C746 1.412 . S
C759 C758 1.455 . S
C759 C760 1.331 . S
C760 C749 1.451 . S
C760 C759 1.331 . S
C760 C761 1.497 . S
C761 C752 1.395 . S
C761 C756 1.446 . S
C761 C760 1.497 . S
C762 C763 1.582 . S
C762 H819 0.962 . S
C762 H820 0.959 . S
C762 H821 0.958 . S
C763 C762 1.582 . S
C763 O766 1.458 . S
C763 H792 0.980 . S
O764 C709 1.426 . S
O764 C710 1.334 . S
O765 C737 1.412 . S
O765 C738 1.393 . S
O766 C728 1.435 . S
O766 C763 1.458 . S
O767 C719 1.468 . S
O767 C720 1.408 . S
H768 C709 0.980 . S
H769 C708 0.959 . S
H770 C708 0.959 . S
H771 C708 0.960 . S
H772 C711 0.929 . S
H773 C715 0.929 . S
H774 C716 0.959 . S
H775 C716 0.961 . S
H776 C716 0.961 . S
H777 C717 0.960 . S
H778 C717 0.960 . S
H779 C717 0.961 . S
H780 C719 0.980 . S
H781 C718 0.961 . S
H782 C718 0.960 . S
H783 C718 0.959 . S
H784 C721 0.930 . S
H785 C725 0.931 . S
H786 C726 0.959 . S
H787 C726 0.961 . S
H788 C726 0.959 . S
H789 C727 0.960 . S
H790 C727 0.960 . S
H791 C727 0.960 . S
H792 C763 0.980 . S
H793 C729 0.930 . S
H794 C733 0.930 . S
H795 C734 0.961 . S
H796 C734 0.960 . S
H797 C734 0.958 . S
H798 C735 0.961 . S
H799 C735 0.960 . S
H800 C735 0.960 . S
H801 C737 0.980 . S
H802 C736 0.961 . S
H803 C736 0.961 . S
H804 C736 0.959 . S
H805 C739 0.932 . S
H806 C743 0.929 . S
H807 C744 0.961 . S
H808 C744 0.959 . S
H809 C744 0.959 . S
H810 C745 0.960 . S
H811 C745 0.962 . S
H812 C745 0.961 . S
H813 C747 0.929 . S
H814 C750 0.930 . S
H815 C751 0.929 . S
H816 C754 0.930 . S
H817 C757 0.929 . S
H818 C758 0.930 . S
H819 C762 0.962 . S
H820 C762 0.959 . S
H821 C762 0.958 . S
C822 C823 1.560 . S
C822 H883 0.959 . S
C822 H884 0.959 . S
C822 H885 0.960 . S
C823 C822 1.560 . S
C823 O878 1.426 . S
C823 H882 0.980 . S
C824 C825 1.407 . S
C824 C829 1.418 . S
C824 O878 1.334 . S
C825 C824 1.407 . S
C825 C826 1.360 . S
C825 H886 0.929 . S
C826 C825 1.360 . S
C826 C827 1.401 . S
C826 C830 1.527 . S
C827 C826 1.401 . S
C827 C828 1.405 . S
C827 C860 1.587 . S
C828 C827 1.405 . S
C828 C829 1.332 . S
C828 C831 1.496 . S
C829 C824 1.418 . S
C829 C828 1.332 . S
C829 H887 0.929 . S
C830 C826 1.527 . S
C830 H888 0.959 . S
C830 H889 0.961 . S
C830 H890 0.961 . S
C831 C828 1.496 . S
C831 H891 0.960 . S
C831 H892 0.960 . S
C831 H893 0.961 . S
C832 C833 1.517 . S
C832 H895 0.961 . S
C832 H896 0.960 . S
C832 H897 0.959 . S
C833 C832 1.517 . S
C833 O881 1.468 . S
C833 H894 0.980 . S
C834 C835 1.349 . S
C834 C839 1.367 . S
C834 O881 1.408 . S
C835 C834 1.349 . S
C835 C836 1.407 . S
C835 H898 0.930 . S
C836 C835 1.407 . S
C836 C837 1.449 . S
C836 C840 1.535 . S
C837 C836 1.449 . S
C837 C838 1.384 . S
C837 C862 1.553 . S
C838 C837 1.384 . S
C838 C839 1.364 . S
C838 C841 1.450 . S
C839 C834 1.367 . S
C839 C838 1.364 . S
C839 H899 0.931 . S
C840 C836 1.535 . S
C840 H900 0.959 . S
C840 H901 0.961 . S
C840 H902 0.959 . S
C841 C838 1.450 . S
C841 H903 0.960 . S
C841 H904 0.960 . S
C841 H905 0.960 . S
C842 C843 1.309 . S
C842 C847 1.304 . S
C842 O880 1.435 . S
C843 C842 1.309 . S
C843 C844 1.476 . S
C843 H907 0.930 . S
C844 C843 1.476 . S
C844 C845 1.400 . S
C844 C848 1.567 . S
C845 C844 1.400 . S
C845 C846 1.373 . S
C845 C867 1.432 . S
C846 C845 1.373 . S
C846 C847 1.339 . S
C846 C849 1.530 . S
C847 C842 1.304 . S
C847 C846 1.339 . S
C847 H908 0.930 . S
C848 C844 1.567 . S
C848 H909 0.961 . S
C848 H910 0.960 . S
C848 H911 0.958 . S
C849 C846 1.530 . S
C849 H912 0.961 . S
C849 H913 0.960 . S
C849 H914 0.960 . S
C850 C851 1.530 . S
C850 H916 0.961 . S
C850 H917 0.961 . S
C850 H918 0.959 . S
C851 C850 1.530 . S
C851 O879 1.412 . S
C851 H915 0.980 . S
C852 C853 1.288 . S
C852 C857 1.377 . S
C852 O879 1.393 . S
C853 C852 1.288 . S
C853 C854 1.369 . S
C853 H919 0.932 . S
C854 C853 1.369 . S
C854 C855 1.398 . S
C854 C858 1.527 . S
C855 C854 1.398 . S
C855 C856 1.380 . S
C855 C869 1.497 . S
C856 C855 1.380 . S
C856 C857 1.383 . S
C856 C859 1.603 . S
C857 C852 1.377 . S
C857 C856 1.383 . S
C857 H920 0.929 . S
C858 C854 1.527 . S
C858 H921 0.961 . S
C858 H922 0.959 . S
C858 H923 0.959 . S
C859 C856 1.603 . S
C859 H924 0.960 . S
C859 H925 0.962 . S
C859 H926 0.961 . S
C860 C827 1.587 . S
C860 C861 1.360 . S
C860 C873 1.412 . S
C861 C860 1.360 . S
C861 C862 1.365 . S
C861 H927 0.929 . S
C862 C837 1.553 . S
C862 C861 1.365 . S
C862 C863 1.404 . S
C863 C862 1.404 . S
C863 C864 1.395 . S
C863 C874 1.451 . S
C864 C863 1.395 . S
C864 C865 1.322 . S
C864 H928 0.930 . S
C865 C864 1.322 . S
C865 C866 1.459 . S
C865 H929 0.929 . S
C866 C865 1.459 . S
C866 C867 1.445 . S
C866 C875 1.395 . S
C867 C845 1.432 . S
C867 C866 1.445 . S
C867 C868 1.370 . S
C868 C867 1.370 . S
C868 C869 1.438 . S
C868 H930 0.930 . S
C869 C855 1.497 . S
C869 C868 1.438 . S
C869 C870 1.360 . S
C870 C869 1.360 . S
C870 C871 1.401 . S
C870 C875 1.446 . S
C871 C870 1.401 . S
C871 C872 1.347 . S
C871 H931 0.929 . S
C872 C871 1.347 . S
C872 C873 1.455 . S
C872 H932 0.930 . S
C873 C860 1.412 . S
C873 C872 1.455 . S
C873 C874 1.331 . S
C874 C863 1.451 . S
C874 C873 1.331 . S
C874 C875 1.497 . S
C875 C866 1.395 . S
C875 C870 1.446 . S
C875 C874 1.497 . S
C876 C877 1.582 . S
C876 H933 0.962 . S
C876 H934 0.959 . S
C876 H935 0.958 . S
C877 C876 1.582 . S
C877 O880 1.458 . S
C877 H906 0.980 . S
O878 C823 1.426 . S
O878 C824 1.334 . S
O879 C851 1.412 . S
O879 C852 1.393 . S
O880 C842 1.435 . S
O880 C877 1.458 . S
O881 C833 1.468 . S
O881 C834 1.408 . S
H882 C823 0.980 . S
H883 C822 0.959 . S
H884 C822 0.959 . S
H885 C822 0.960 . S
H886 C825 0.929 . S
H887 C829 0.929 . S
H888 C830 0.959 . S
H889 C830 0.961 . S
H890 C830 0.961 . S
H891 C831 0.960 . S
H892 C831 0.960 . S
H893 C831 0.961 . S
H894 C833 0.980 . S
H895 C832 0.961 . S
H896 C832 0.960 . S
H897 C832 0.959 . S
H898 C835 0.930 . S
H899 C839 0.931 . S
H900 C840 0.959 . S
H901 C840 0.961 . S
H902 C840 0.959 . S
H903 C841 0.960 . S
H904 C841 0.960 . S
H905 C841 0.960 . S
H906 C877 0.980 . S
H907 C843 0.930 . S
H908 C847 0.930 . S
H909 C848 0.961 . S
H910 C848 0.960 . S
H911 C848 0.958 . S
H912 C849 0.961 . S
H913 C849 0.960 . S
H914 C849 0.960 . S
H915 C851 0.980 . S
H916 C850 0.961 . S
H917 C850 0.961 . S
H918 C850 0.959 . S
H919 C853 0.932 . S
H920 C857 0.929 . S
H921 C858 0.961 . S
H922 C858 0.959 . S
H923 C858 0.959 . S
H924 C859 0.960 . S
H925 C859 0.962 . S
H926 C859 0.961 . S
H927 C861 0.929 . S
H928 C864 0.930 . S
H929 C865 0.929 . S
H930 C868 0.930 . S
H931 C871 0.929 . S
H932 C872 0.930 . S
H933 C876 0.962 . S
H934 C876 0.959 . S
H935 C876 0.958 . S
C936 C937 1.560 . S
C936 H997 0.959 . S
C936 H998 0.959 . S
C936 H999 0.960 . S
C937 C936 1.560 . S
C937 O992 1.426 . S
C937 H996 0.980 . S
C938 C939 1.407 . S
C938 C943 1.418 . S
C938 O992 1.334 . S
C939 C938 1.407 . S
C939 C940 1.360 . S
C939 H1000 0.929 . S
C940 C939 1.360 . S
C940 C941 1.401 . S
C940 C944 1.527 . S
C941 C940 1.401 . S
C941 C942 1.405 . S
C941 C974 1.587 . S
C942 C941 1.405 . S
C942 C943 1.332 . S
C942 C945 1.496 . S
C943 C938 1.418 . S
C943 C942 1.332 . S
C943 H1001 0.929 . S
C944 C940 1.527 . S
C944 H1002 0.959 . S
C944 H1003 0.961 . S
C944 H1004 0.961 . S
C945 C942 1.496 . S
C945 H1005 0.960 . S
C945 H1006 0.960 . S
C945 H1007 0.961 . S
C946 C947 1.517 . S
C946 H1009 0.961 . S
C946 H1010 0.960 . S
C946 H1011 0.959 . S
C947 C946 1.517 . S
C947 O995 1.468 . S
C947 H1008 0.980 . S
C948 C949 1.349 . S
C948 C953 1.367 . S
C948 O995 1.408 . S
C949 C948 1.349 . S
C949 C950 1.407 . S
C949 H1012 0.930 . S
C950 C949 1.407 . S
C950 C951 1.449 . S
C950 C954 1.535 . S
C951 C950 1.449 . S
C951 C952 1.384 . S
C951 C976 1.553 . S
C952 C951 1.384 . S
C952 C953 1.364 . S
C952 C955 1.450 . S
C953 C948 1.367 . S
C953 C952 1.364 . S
C953 H1013 0.931 . S
C954 C950 1.535 . S
C954 H1014 0.959 . S
C954 H1015 0.961 . S
C954 H1016 0.959 . S
C955 C952 1.450 . S
C955 H1017 0.960 . S
C955 H1018 0.960 . S
C955 H1019 0.960 . S
C956 C957 1.309 . S
C956 C961 1.304 . S
C956 O994 1.435 . S
C957 C956 1.309 . S
C957 C958 1.476 . S
C957 H1021 0.930 . S
C958 C957 1.476 . S
C958 C959 1.400 . S
C958 C962 1.567 . S
C959 C958 1.400 . S
C959 C960 1.373 . S
C959 C981 1.432 . S
C960 C959 1.373 . S
C960 C961 1.339 . S
C960 C963 1.530 . S
C961 C956 1.304 . S
C961 C960 1.339 . S
C961 H1022 0.930 . S
C962 C958 1.567 . S
C962 H1023 0.961 . S
C962 H1024 0.960 . S
C962 H1025 0.958 . S
C963 C960 1.530 . S
C963 H1026 0.961 . S
C963 H1027 0.960 . S
C963 H1028 0.960 . S
C964 C965 1.530 . S
C964 H1030 0.961 . S
C964 H1031 0.961 . S
C964 H1032 0.959 . S
C965 C964 1.530 . S
C965 O993 1.412 . S
C965 H1029 0.980 . S
C966 C967 1.288 . S
C966 C971 1.377 . S
C966 O993 1.393 . S
C967 C966 1.288 . S
C967 C968 1.369 . S
C967 H1033 0.932 . S
C968 C967 1.369 . S
C968 C969 1.398 . S
C968 C972 1.527 . S
C969 C968 1.398 . S
C969 C970 1.380 . S
C969 C983 1.497 . S
C970 C969 1.380 . S
C970 C971 1.383 . S
C970 C973 1.603 . S
C971 C966 1.377 . S
C971 C970 1.383 . S
C971 H1034 0.929 . S
C972 C968 1.527 . S
C972 H1035 0.961 . S
C972 H1036 0.959 . S
C972 H1037 0.959 . S
C973 C970 1.603 . S
C973 H1038 0.960 . S
C973 H1039 0.962 . S
C973 H1040 0.961 . S
C974 C941 1.587 . S
C974 C975 1.360 . S
C974 C987 1.412 . S
C975 C974 1.360 . S
C975 C976 1.365 . S
C975 H1041 0.929 . S
C976 C951 1.553 . S
C976 C975 1.365 . S
C976 C977 1.404 . S
C977 C976 1.404 . S
C977 C978 1.395 . S
C977 C988 1.451 . S
C978 C977 1.395 . S
C978 C979 1.322 . S
C978 H1042 0.930 . S
C979 C978 1.322 . S
C979 C980 1.459 . S
C979 H1043 0.929 . S
C980 C979 1.459 . S
C980 C981 1.445 . S
C980 C989 1.395 . S
C981 C959 1.432 . S
C981 C980 1.445 . S
C981 C982 1.370 . S
C982 C981 1.370 . S
C982 C983 1.438 . S
C982 H1044 0.930 . S
C983 C969 1.497 . S
C983 C982 1.438 . S
C983 C984 1.360 . S
C984 C983 1.360 . S
C984 C985 1.401 . S
C984 C989 1.446 . S
C985 C984 1.401 . S
C985 C986 1.347 . S
C985 H1045 0.929 . S
C986 C985 1.347 . S
C986 C987 1.455 . S
C986 H1046 0.930 . S
C987 C974 1.412 . S
C987 C986 1.455 . S
C987 C988 1.331 . S
C988 C977 1.451 . S
C988 C987 1.331 . S
C988 C989 1.497 . S
C989 C980 1.395 . S
C989 C984 1.446 . S
C989 C988 1.497 . S
C990 C991 1.582 . S
C990 H1047 0.962 . S
C990 H1048 0.959 . S
C990 H1049 0.958 . S
C991 C990 1.582 . S
C991 O994 1.458 . S
C991 H1020 0.980 . S
O992 C937 1.426 . S
O992 C938 1.334 . S
O993 C965 1.412 . S
O993 C966 1.393 . S
O994 C956 1.435 . S
O994 C991 1.458 . S
O995 C947 1.468 . S
O995 C948 1.408 . S
H996 C937 0.980 . S
H997 C936 0.959 . S
H998 C936 0.959 . S
H999 C936 0.960 . S
H1000 C939 0.929 . S
H1001 C943 0.929 . S
H1002 C944 0.959 . S
H1003 C944 0.961 . S
H1004 C944 0.961 . S
H1005 C945 0.960 . S
H1006 C945 0.960 . S
H1007 C945 0.961 . S
H1008 C947 0.980 . S
H1009 C946 0.961 . S
H1010 C946 0.960 . S
H1011 C946 0.959 . S
H1012 C949 0.930 . S
H1013 C953 0.931 . S
H1014 C954 0.959 . S
H1015 C954 0.961 . S
H1016 C954 0.959 . S
H1017 C955 0.960 . S
H1018 C955 0.960 . S
H1019 C955 0.960 . S
H1020 C991 0.980 . S
H1021 C957 0.930 . S
H1022 C961 0.930 . S
H1023 C962 0.961 . S
H1024 C962 0.960 . S
H1025 C962 0.958 . S
H1026 C963 0.961 . S
H1027 C963 0.960 . S
H1028 C963 0.960 . S
H1029 C965 0.980 . S
H1030 C964 0.961 . S
H1031 C964 0.961 . S
H1032 C964 0.959 . S
H1033 C967 0.932 . S
H1034 C971 0.929 . S
H1035 C972 0.961 . S
H1036 C972 0.959 . S
H1037 C972 0.959 . S
H1038 C973 0.960 . S
H1039 C973 0.962 . S
H1040 C973 0.961 . S
H1041 C975 0.929 . S
H1042 C978 0.930 . S
H1043 C979 0.929 . S
H1044 C982 0.930 . S
H1045 C985 0.929 . S
H1046 C986 0.930 . S
H1047 C990 0.962 . S
H1048 C990 0.959 . S
H1049 C990 0.958 . S
C1050 C1051 1.560 . S
C1050 H1111 0.959 . S
C1050 H1112 0.959 . S
C1050 H1113 0.960 . S
C1051 C1050 1.560 . S
C1051 O1106 1.426 . S
C1051 H1110 0.980 . S
C1052 C1053 1.407 . S
C1052 C1057 1.418 . S
C1052 O1106 1.334 . S
C1053 C1052 1.407 . S
C1053 C1054 1.360 . S
C1053 H1114 0.929 . S
C1054 C1053 1.360 . S
C1054 C1055 1.401 . S
C1054 C1058 1.527 . S
C1055 C1054 1.401 . S
C1055 C1056 1.405 . S
C1055 C1088 1.587 . S
C1056 C1055 1.405 . S
C1056 C1057 1.332 . S
C1056 C1059 1.496 . S
C1057 C1052 1.418 . S
C1057 C1056 1.332 . S
C1057 H1115 0.929 . S
C1058 C1054 1.527 . S
C1058 H1116 0.959 . S
C1058 H1117 0.961 . S
C1058 H1118 0.961 . S
C1059 C1056 1.496 . S
C1059 H1119 0.960 . S
C1059 H1120 0.960 . S
C1059 H1121 0.961 . S
C1060 C1061 1.517 . S
C1060 H1123 0.961 . S
C1060 H1124 0.960 . S
C1060 H1125 0.959 . S
C1061 C1060 1.517 . S
C1061 O1109 1.468 . S
C1061 H1122 0.980 . S
C1062 C1063 1.349 . S
C1062 C1067 1.367 . S
C1062 O1109 1.408 . S
C1063 C1062 1.349 . S
C1063 C1064 1.407 . S
C1063 H1126 0.930 . S
C1064 C1063 1.407 . S
C1064 C1065 1.449 . S
C1064 C1068 1.535 . S
C1065 C1064 1.449 . S
C1065 C1066 1.384 . S
C1065 C1090 1.553 . S
C1066 C1065 1.384 . S
C1066 C1067 1.364 . S
C1066 C1069 1.450 . S
C1067 C1062 1.367 . S
C1067 C1066 1.364 . S
C1067 H1127 0.931 . S
C1068 C1064 1.535 . S
C1068 H1128 0.959 . S
C1068 H1129 0.961 . S
C1068 H1130 0.959 . S
C1069 C1066 1.450 . S
C1069 H1131 0.960 . S
C1069 H1132 0.960 . S
C1069 H1133 0.960 . S
C1070 C1071 1.309 . S
C1070 C1075 1.304 . S
C1070 O1108 1.435 . S
C1071 C1070 1.309 . S
C1071 C1072 1.476 . S
C1071 H1135 0.930 . S
C1072 C1071 1.476 . S
C1072 C1073 1.400 . S
C1072 C1076 1.567 . S
C1073 C1072 1.400 . S
C1073 C1074 1.373 . S
C1073 C1095 1.432 . S
C1074 C1073 1.373 . S
C1074 C1075 1.339 . S
C1074 C1077 1.530 . S
C1075 C1070 1.304 . S
C1075 C1074 1.339 . S
C1075 H1136 0.930 . S
C1076 C1072 1.567 . S
C1076 H1137 0.961 . S
C1076 H1138 0.960 . S
C1076 H1139 0.958 . S
C1077 C1074 1.530 . S
C1077 H1140 0.961 . S
C1077 H1141 0.960 . S
C1077 H1142 0.960 . S
C1078 C1079 1.530 . S
C1078 H1144 0.961 . S
C1078 H1145 0.961 . S
C1078 H1146 0.959 . S
C1079 C1078 1.530 . S
C1079 O1107 1.412 . S
C1079 H1143 0.980 . S
C1080 C1081 1.288 . S
C1080 C1085 1.377 . S
C1080 O1107 1.393 . S
C1081 C1080 1.288 . S
C1081 C1082 1.369 . S
C1081 H1147 0.932 . S
C1082 C1081 1.369 . S
C1082 C1083 1.398 . S
C1082 C1086 1.527 . S
C1083 C1082 1.398 . S
C1083 C1084 1.380 . S
C1083 C1097 1.497 . S
C1084 C1083 1.380 . S
C1084 C1085 1.383 . S
C1084 C1087 1.603 . S
C1085 C1080 1.377 . S
C1085 C1084 1.383 . S
C1085 H1148 0.929 . S
C1086 C1082 1.527 . S
C1086 H1149 0.961 . S
C1086 H1150 0.959 . S
C1086 H1151 0.959 . S
C1087 C1084 1.603 . S
C1087 H1152 0.960 . S
C1087 H1153 0.962 . S
C1087 H1154 0.961 . S
C1088 C1055 1.587 . S
C1088 C1089 1.360 . S
C1088 C1101 1.412 . S
C1089 C1088 1.360 . S
C1089 C1090 1.365 . S
C1089 H1155 0.929 . S
C1090 C1065 1.553 . S
C1090 C1089 1.365 . S
C1090 C1091 1.404 . S
C1091 C1090 1.404 . S
C1091 C1092 1.395 . S
C1091 C1102 1.451 . S
C1092 C1091 1.395 . S
C1092 C1093 1.322 . S
C1092 H1156 0.930 . S
C1093 C1092 1.322 . S
C1093 C1094 1.459 . S
C1093 H1157 0.929 . S
C1094 C1093 1.459 . S
C1094 C1095 1.445 . S
C1094 C1103 1.395 . S
C1095 C1073 1.432 . S
C1095 C1094 1.445 . S
C1095 C1096 1.370 . S
C1096 C1095 1.370 . S
C1096 C1097 1.438 . S
C1096 H1158 0.930 . S
C1097 C1083 1.497 . S
C1097 C1096 1.438 . S
C1097 C1098 1.360 . S
C1098 C1097 1.360 . S
C1098 C1099 1.401 . S
C1098 C1103 1.446 . S
C1099 C1098 1.401 . S
C1099 C1100 1.347 . S
C1099 H1159 0.929 . S
C1100 C1099 1.347 . S
C1100 C1101 1.455 . S
C1100 H1160 0.930 . S
C1101 C1088 1.412 . S
C1101 C1100 1.455 . S
C1101 C1102 1.331 . S
C1102 C1091 1.451 . S
C1102 C1101 1.331 . S
C1102 C1103 1.497 . S
C1103 C1094 1.395 . S
C1103 C1098 1.446 . S
C1103 C1102 1.497 . S
C1104 C1105 1.582 . S
C1104 H1161 0.962 . S
C1104 H1162 0.959 . S
C1104 H1163 0.958 . S
C1105 C1104 1.582 . S
C1105 O1108 1.458 . S
C1105 H1134 0.980 . S
O1106 C1051 1.426 . S
O1106 C1052 1.334 . S
O1107 C1079 1.412 . S
O1107 C1080 1.393 . S
O1108 C1070 1.435 . S
O1108 C1105 1.458 . S
O1109 C1061 1.468 . S
O1109 C1062 1.408 . S
H1110 C1051 0.980 . S
H1111 C1050 0.959 . S
H1112 C1050 0.959 . S
H1113 C1050 0.960 . S
H1114 C1053 0.929 . S
H1115 C1057 0.929 . S
H1116 C1058 0.959 . S
H1117 C1058 0.961 . S
H1118 C1058 0.961 . S
H1119 C1059 0.960 . S
H1120 C1059 0.960 . S
H1121 C1059 0.961 . S
H1122 C1061 0.980 . S
H1123 C1060 0.961 . S
H1124 C1060 0.960 . S
H1125 C1060 0.959 . S
H1126 C1063 0.930 . S
H1127 C1067 0.931 . S
H1128 C1068 0.959 . S
H1129 C1068 0.961 . S
H1130 C1068 0.959 . S
H1131 C1069 0.960 . S
H1132 C1069 0.960 . S
H1133 C1069 0.960 . S
H1134 C1105 0.980 . S
H1135 C1071 0.930 . S
H1136 C1075 0.930 . S
H1137 C1076 0.961 . S
H1138 C1076 0.960 . S
H1139 C1076 0.958 . S
H1140 C1077 0.961 . S
H1141 C1077 0.960 . S
H1142 C1077 0.960 . S
H1143 C1079 0.980 . S
H1144 C1078 0.961 . S
H1145 C1078 0.961 . S
H1146 C1078 0.959 . S
H1147 C1081 0.932 . S
H1148 C1085 0.929 . S
H1149 C1086 0.961 . S
H1150 C1086 0.959 . S
H1151 C1086 0.959 . S
H1152 C1087 0.960 . S
H1153 C1087 0.962 . S
H1154 C1087 0.961 . S
H1155 C1089 0.929 . S
H1156 C1092 0.930 . S
H1157 C1093 0.929 . S
H1158 C1096 0.930 . S
H1159 C1099 0.929 . S
H1160 C1100 0.930 . S
H1161 C1104 0.962 . S
H1162 C1104 0.959 . S
H1163 C1104 0.958 . S
C1164 C1165 1.560 . S
C1164 H1225 0.959 . S
C1164 H1226 0.959 . S
C1164 H1227 0.960 . S
C1165 C1164 1.560 . S
C1165 O1220 1.426 . S
C1165 H1224 0.980 . S
C1166 C1167 1.407 . S
C1166 C1171 1.418 . S
C1166 O1220 1.334 . S
C1167 C1166 1.407 . S
C1167 C1168 1.360 . S
C1167 H1228 0.929 . S
C1168 C1167 1.360 . S
C1168 C1169 1.401 . S
C1168 C1172 1.527 . S
C1169 C1168 1.401 . S
C1169 C1170 1.405 . S
C1169 C1202 1.587 . S
C1170 C1169 1.405 . S
C1170 C1171 1.332 . S
C1170 C1173 1.496 . S
C1171 C1166 1.418 . S
C1171 C1170 1.332 . S
C1171 H1229 0.929 . S
C1172 C1168 1.527 . S
C1172 H1230 0.959 . S
C1172 H1231 0.961 . S
C1172 H1232 0.961 . S
C1173 C1170 1.496 . S
C1173 H1233 0.960 . S
C1173 H1234 0.960 . S
C1173 H1235 0.961 . S
C1174 C1175 1.517 . S
C1174 H1237 0.961 . S
C1174 H1238 0.960 . S
C1174 H1239 0.959 . S
C1175 C1174 1.517 . S
C1175 O1223 1.468 . S
C1175 H1236 0.980 . S
C1176 C1177 1.349 . S
C1176 C1181 1.367 . S
C1176 O1223 1.408 . S
C1177 C1176 1.349 . S
C1177 C1178 1.407 . S
C1177 H1240 0.930 . S
C1178 C1177 1.407 . S
C1178 C1179 1.449 . S
C1178 C1182 1.535 . S
C1179 C1178 1.449 . S
C1179 C1180 1.384 . S
C1179 C1204 1.553 . S
C1180 C1179 1.384 . S
C1180 C1181 1.364 . S
C1180 C1183 1.450 . S
C1181 C1176 1.367 . S
C1181 C1180 1.364 . S
C1181 H1241 0.931 . S
C1182 C1178 1.535 . S
C1182 H1242 0.959 . S
C1182 H1243 0.961 . S
C1182 H1244 0.959 . S
C1183 C1180 1.450 . S
C1183 H1245 0.960 . S
C1183 H1246 0.960 . S
C1183 H1247 0.960 . S
C1184 C1185 1.309 . S
C1184 C1189 1.304 . S
C1184 O1222 1.435 . S
C1185 C1184 1.309 . S
C1185 C1186 1.476 . S
C1185 H1249 0.930 . S
C1186 C1185 1.476 . S
C1186 C1187 1.400 . S
C1186 C1190 1.567 . S
C1187 C1186 1.400 . S
C1187 C1188 1.373 . S
C1187 C1209 1.432 . S
C1188 C1187 1.373 . S
C1188 C1189 1.339 . S
C1188 C1191 1.530 . S
C1189 C1184 1.304 . S
C1189 C1188 1.339 . S
C1189 H1250 0.930 . S
C1190 C1186 1.567 . S
C1190 H1251 0.961 . S
C1190 H1252 0.960 . S
C1190 H1253 0.958 . S
C1191 C1188 1.530 . S
C1191 H1254 0.961 . S
C1191 H1255 0.960 . S
C1191 H1256 0.960 . S
C1192 C1193 1.530 . S
C1192 H1258 0.961 . S
C1192 H1259 0.961 . S
C1192 H1260 0.959 . S
C1193 C1192 1.530 . S
C1193 O1221 1.412 . S
C1193 H1257 0.980 . S
C1194 C1195 1.288 . S
C1194 C1199 1.377 . S
C1194 O1221 1.393 . S
C1195 C1194 1.288 . S
C1195 C1196 1.369 . S
C1195 H1261 0.932 . S
C1196 C1195 1.369 . S
C1196 C1197 1.398 . S
C1196 C1200 1.527 . S
C1197 C1196 1.398 . S
C1197 C1198 1.380 . S
C1197 C1211 1.497 . S
C1198 C1197 1.380 . S
C1198 C1199 1.383 . S
C1198 C1201 1.603 . S
C1199 C1194 1.377 . S
C1199 C1198 1.383 . S
C1199 H1262 0.929 . S
C1200 C1196 1.527 . S
C1200 H1263 0.961 . S
C1200 H1264 0.959 . S
C1200 H1265 0.959 . S
C1201 C1198 1.603 . S
C1201 H1266 0.960 . S
C1201 H1267 0.962 . S
C1201 H1268 0.961 . S
C1202 C1169 1.587 . S
C1202 C1203 1.360 . S
C1202 C1215 1.412 . S
C1203 C1202 1.360 . S
C1203 C1204 1.365 . S
C1203 H1269 0.929 . S
C1204 C1179 1.553 . S
C1204 C1203 1.365 . S
C1204 C1205 1.404 . S
C1205 C1204 1.404 . S
C1205 C1206 1.395 . S
C1205 C1216 1.451 . S
C1206 C1205 1.395 . S
C1206 C1207 1.322 . S
C1206 H1270 0.930 . S
C1207 C1206 1.322 . S
C1207 C1208 1.459 . S
C1207 H1271 0.929 . S
C1208 C1207 1.459 . S
C1208 C1209 1.445 . S
C1208 C1217 1.395 . S
C1209 C1187 1.432 . S
C1209 C1208 1.445 . S
C1209 C1210 1.370 . S
C1210 C1209 1.370 . S
C1210 C1211 1.438 . S
C1210 H1272 0.930 . S
C1211 C1197 1.497 . S
C1211 C1210 1.438 . S
C1211 C1212 1.360 . S
C1212 C1211 1.360 . S
C1212 C1213 1.401 . S
C1212 C1217 1.446 . S
C1213 C1212 1.401 . S
C1213 C1214 1.347 . S
C1213 H1273 0.929 . S
C1214 C1213 1.347 . S
C1214 C1215 1.455 . S
C1214 H1274 0.930 . S
C1215 C1202 1.412 . S
C1215 C1214 1.455 . S
C1215 C1216 1.331 . S
C1216 C1205 1.451 . S
C1216 C1215 1.331 . S
C1216 C1217 1.497 . S
C1217 C1208 1.395 . S
C1217 C1212 1.446 . S
C1217 C1216 1.497 . S
C1218 C1219 1.582 . S
C1218 H1275 0.962 . S
C1218 H1276 0.959 . S
C1218 H1277 0.958 . S
C1219 C1218 1.582 . S
C1219 O1222 1.458 . S
C1219 H1248 0.980 . S
O1220 C1165 1.426 . S
O1220 C1166 1.334 . S
O1221 C1193 1.412 . S
O1221 C1194 1.393 . S
O1222 C1184 1.435 . S
O1222 C1219 1.458 . S
O1223 C1175 1.468 . S
O1223 C1176 1.408 . S
H1224 C1165 0.980 . S
H1225 C1164 0.959 . S
H1226 C1164 0.959 . S
H1227 C1164 0.960 . S
H1228 C1167 0.929 . S
H1229 C1171 0.929 . S
H1230 C1172 0.959 . S
H1231 C1172 0.961 . S
H1232 C1172 0.961 . S
H1233 C1173 0.960 . S
H1234 C1173 0.960 . S
H1235 C1173 0.961 . S
H1236 C1175 0.980 . S
H1237 C1174 0.961 . S
H1238 C1174 0.960 . S
H1239 C1174 0.959 . S
H1240 C1177 0.930 . S
H1241 C1181 0.931 . S
H1242 C1182 0.959 . S
H1243 C1182 0.961 . S
H1244 C1182 0.959 . S
H1245 C1183 0.960 . S
H1246 C1183 0.960 . S
H1247 C1183 0.960 . S
H1248 C1219 0.980 . S
H1249 C1185 0.930 . S
H1250 C1189 0.930 . S
H1251 C1190 0.961 . S
H1252 C1190 0.960 . S
H1253 C1190 0.958 . S
H1254 C1191 0.961 . S
H1255 C1191 0.960 . S
H1256 C1191 0.960 . S
H1257 C1193 0.980 . S
H1258 C1192 0.961 . S
H1259 C1192 0.961 . S
H1260 C1192 0.959 . S
H1261 C1195 0.932 . S
H1262 C1199 0.929 . S
H1263 C1200 0.961 . S
H1264 C1200 0.959 . S
H1265 C1200 0.959 . S
H1266 C1201 0.960 . S
H1267 C1201 0.962 . S
H1268 C1201 0.961 . S
H1269 C1203 0.929 . S
H1270 C1206 0.930 . S
H1271 C1207 0.929 . S
H1272 C1210 0.930 . S
H1273 C1213 0.929 . S
H1274 C1214 0.930 . S
H1275 C1218 0.962 . S
H1276 C1218 0.959 . S
H1277 C1218 0.958 . S
C1278 C1279 1.560 . S
C1278 H1339 0.959 . S
C1278 H1340 0.959 . S
C1278 H1341 0.960 . S
C1279 C1278 1.560 . S
C1279 O1334 1.426 . S
C1279 H1338 0.980 . S
C1280 C1281 1.407 1_455 S
C1280 C1285 1.418 . S
C1280 O1334 1.334 . S
C1281 C1280 1.407 1_655 S
C1281 C1282 1.360 . S
C1281 H1342 0.929 . S
C1282 C1281 1.360 . S
C1282 C1283 1.401 1_655 S
C1282 C1286 1.527 . S
C1283 C1282 1.401 1_455 S
C1283 C1284 1.405 . S
C1283 C1316 1.587 1_455 S
C1284 C1283 1.405 . S
C1284 C1285 1.332 . S
C1284 C1287 1.496 . S
C1285 C1280 1.418 . S
C1285 C1284 1.332 . S
C1285 H1343 0.929 . S
C1286 C1282 1.527 . S
C1286 H1344 0.959 . S
C1286 H1345 0.961 . S
C1286 H1346 0.961 . S
C1287 C1284 1.496 . S
C1287 H1347 0.960 . S
C1287 H1348 0.960 . S
C1287 H1349 0.961 . S
C1288 C1289 1.517 . S
C1288 H1351 0.995 . S
C1288 H1352 0.960 . S
C1288 H1353 0.959 . S
C1289 C1288 1.517 . S
C1289 O1337 1.468 . S
C1289 H1350 0.980 1_655 S
C1290 C1291 1.349 . S
C1290 C1295 1.367 . S
C1290 O1337 1.408 . S
C1291 C1290 1.349 . S
C1291 C1292 1.376 1_655 S
C1291 H1354 0.930 1_655 S
C1292 C1291 1.376 1_455 S
C1292 C1293 1.422 1_455 S
C1292 C1296 1.589 . S
C1293 C1292 1.422 1_655 S
C1293 C1294 1.384 . S
C1293 C1318 1.553 . S
C1294 C1293 1.384 . S
C1294 C1295 1.364 . S
C1294 C1297 1.450 . S
C1295 C1290 1.367 . S
C1295 C1294 1.364 . S
C1295 H1355 0.931 . S
C1296 C1292 1.589 . S
C1296 H1356 0.959 . S
C1296 H1357 0.961 . S
C1296 H1358 0.959 . S
C1297 C1294 1.450 . S
C1297 H1359 0.960 . S
C1297 H1360 0.960 . S
C1297 H1361 0.960 . S
C1298 C1299 1.309 . S
C1298 C1303 1.304 . S
C1298 O1336 1.435 . S
C1299 C1298 1.309 . S
C1299 C1300 1.449 1_655 S
C1299 H1363 0.930 1_655 S
C1300 C1299 1.449 1_455 S
C1300 C1301 1.383 1_455 S
C1300 C1304 1.611 . S
C1301 C1300 1.383 1_655 S
C1301 C1302 1.373 . S
C1301 C1323 1.432 . S
C1302 C1301 1.373 . S
C1302 C1303 1.339 . S
C1302 C1305 1.530 . S
C1303 C1298 1.304 . S
C1303 C1302 1.339 . S
C1303 H1364 0.930 . S
C1304 C1300 1.611 . S
C1304 H1365 0.961 . S
C1304 H1366 0.960 . S
C1304 H1367 0.958 . S
C1305 C1302 1.530 . S
C1305 H1368 0.961 . S
C1305 H1369 0.960 . S
C1305 H1370 0.960 . S
C1306 C1307 1.534 1_455 S
C1306 H1372 0.961 . S
C1306 H1373 0.961 . S
C1306 H1374 0.959 . S
C1307 C1306 1.534 1_655 S
C1307 O1335 1.413 1_655 S
C1307 H1371 0.979 . S
C1308 C1309 1.288 . S
C1308 C1313 1.377 1_455 S
C1308 O1335 1.393 . S
C1309 C1308 1.288 . S
C1309 C1310 1.369 . S
C1309 H1375 0.932 . S
C1310 C1309 1.369 . S
C1310 C1311 1.398 1_455 S
C1310 C1314 1.527 . S
C1311 C1310 1.398 1_655 S
C1311 C1312 1.380 . S
C1311 C1325 1.497 . S
C1312 C1311 1.380 . S
C1312 C1313 1.383 . S
C1312 C1315 1.603 . S
C1313 C1308 1.377 1_655 S
C1313 C1312 1.383 . S
C1313 H1376 0.929 . S
C1314 C1310 1.527 . S
C1314 H1377 0.961 . S
C1314 H1378 0.959 . S
C1314 H1379 0.959 . S
C1315 C1312 1.603 . S
C1315 H1380 0.960 . S
C1315 H1381 0.962 . S
C1315 H1382 0.961 . S
C1316 C1283 1.587 1_655 S
C1316 C1317 1.360 . S
C1316 C1329 1.412 . S
C1317 C1316 1.360 . S
C1317 C1318 1.365 . S
C1317 H1383 0.929 . S
C1318 C1293 1.553 . S
C1318 C1317 1.365 . S
C1318 C1319 1.404 . S
C1319 C1318 1.404 . S
C1319 C1320 1.395 . S
C1319 C1330 1.451 . S
C1320 C1319 1.395 . S
C1320 C1321 1.322 . S
C1320 H1384 0.930 . S
C1321 C1320 1.322 . S
C1321 C1322 1.459 . S
C1321 H1385 0.929 . S
C1322 C1321 1.459 . S
C1322 C1323 1.445 . S
C1322 C1331 1.395 . S
C1323 C1301 1.432 . S
C1323 C1322 1.445 . S
C1323 C1324 1.370 . S
C1324 C1323 1.370 . S
C1324 C1325 1.438 . S
C1324 H1386 0.930 . S
C1325 C1311 1.497 . S
C1325 C1324 1.438 . S
C1325 C1326 1.360 . S
C1326 C1325 1.360 . S
C1326 C1327 1.401 . S
C1326 C1331 1.446 . S
C1327 C1326 1.401 . S
C1327 C1328 1.347 . S
C1327 H1387 0.929 . S
C1328 C1327 1.347 . S
C1328 C1329 1.455 . S
C1328 H1388 0.930 . S
C1329 C1316 1.412 . S
C1329 C1328 1.455 . S
C1329 C1330 1.331 . S
C1330 C1319 1.451 . S
C1330 C1329 1.331 . S
C1330 C1331 1.497 . S
C1331 C1322 1.395 . S
C1331 C1326 1.446 . S
C1331 C1330 1.497 . S
C1332 C1333 1.582 . S
C1332 H1389 0.962 . S
C1332 H1390 0.959 . S
C1332 H1391 0.958 . S
C1333 C1332 1.582 . S
C1333 O1336 1.458 . S
C1333 H1362 0.980 . S
O1334 C1279 1.426 . S
O1334 C1280 1.334 . S
O1335 C1307 1.413 1_455 S
O1335 C1308 1.393 . S
O1336 C1298 1.435 . S
O1336 C1333 1.458 . S
O1337 C1289 1.468 . S
O1337 C1290 1.408 . S
H1338 C1279 0.980 . S
H1339 C1278 0.959 . S
H1340 C1278 0.959 . S
H1341 C1278 0.960 . S
H1342 C1281 0.929 . S
H1343 C1285 0.929 . S
H1344 C1286 0.959 . S
H1345 C1286 0.961 . S
H1346 C1286 0.961 . S
H1347 C1287 0.960 . S
H1348 C1287 0.960 . S
H1349 C1287 0.961 . S
H1350 C1289 0.980 1_455 S
H1351 C1288 0.995 . S
H1352 C1288 0.960 . S
H1353 C1288 0.959 . S
H1354 C1291 0.930 1_455 S
H1355 C1295 0.931 . S
H1356 C1296 0.959 . S
H1357 C1296 0.961 . S
H1358 C1296 0.959 . S
H1359 C1297 0.960 . S
H1360 C1297 0.960 . S
H1361 C1297 0.960 . S
H1362 C1333 0.980 . S
H1363 C1299 0.930 1_455 S
H1364 C1303 0.930 . S
H1365 C1304 0.961 . S
H1366 C1304 0.960 . S
H1367 C1304 0.958 . S
H1368 C1305 0.961 . S
H1369 C1305 0.960 . S
H1370 C1305 0.960 . S
H1371 C1307 0.979 . S
H1372 C1306 0.961 . S
H1373 C1306 0.961 . S
H1374 C1306 0.959 . S
H1375 C1309 0.932 . S
H1376 C1313 0.929 . S
H1377 C1314 0.961 . S
H1378 C1314 0.959 . S
H1379 C1314 0.959 . S
H1380 C1315 0.960 . S
H1381 C1315 0.962 . S
H1382 C1315 0.961 . S
H1383 C1317 0.929 . S
H1384 C1320 0.930 . S
H1385 C1321 0.929 . S
H1386 C1324 0.930 . S
H1387 C1327 0.929 . S
H1388 C1328 0.930 . S
H1389 C1332 0.962 . S
H1390 C1332 0.959 . S
H1391 C1332 0.958 . S
C1392 C1393 1.560 . S
C1392 H1453 0.959 . S
C1392 H1454 0.959 . S
C1392 H1455 0.960 . S
C1393 C1392 1.560 . S
C1393 O1448 1.426 . S
C1393 H1452 0.980 . S
C1394 C1395 1.407 . S
C1394 C1399 1.418 . S
C1394 O1448 1.334 . S
C1395 C1394 1.407 . S
C1395 C1396 1.360 . S
C1395 H1456 0.929 . S
C1396 C1395 1.360 . S
C1396 C1397 1.401 . S
C1396 C1400 1.527 . S
C1397 C1396 1.401 . S
C1397 C1398 1.405 . S
C1397 C1430 1.587 . S
C1398 C1397 1.405 . S
C1398 C1399 1.332 . S
C1398 C1401 1.496 . S
C1399 C1394 1.418 . S
C1399 C1398 1.332 . S
C1399 H1457 0.929 . S
C1400 C1396 1.527 . S
C1400 H1458 0.959 . S
C1400 H1459 0.961 . S
C1400 H1460 0.961 . S
C1401 C1398 1.496 . S
C1401 H1461 0.960 . S
C1401 H1462 0.960 . S
C1401 H1463 0.961 . S
C1402 C1403 1.517 . S
C1402 H1465 0.961 . S
C1402 H1466 0.960 . S
C1402 H1467 0.959 . S
C1403 C1402 1.517 . S
C1403 O1451 1.468 . S
C1403 H1464 0.980 . S
C1404 C1405 1.349 . S
C1404 C1409 1.367 . S
C1404 O1451 1.408 . S
C1405 C1404 1.349 . S
C1405 C1406 1.407 . S
C1405 H1468 0.930 . S
C1406 C1405 1.407 . S
C1406 C1407 1.449 . S
C1406 C1410 1.535 . S
C1407 C1406 1.449 . S
C1407 C1408 1.384 . S
C1407 C1432 1.553 . S
C1408 C1407 1.384 . S
C1408 C1409 1.364 . S
C1408 C1411 1.450 . S
C1409 C1404 1.367 . S
C1409 C1408 1.364 . S
C1409 H1469 0.931 . S
C1410 C1406 1.535 . S
C1410 H1470 0.959 . S
C1410 H1471 0.961 . S
C1410 H1472 0.959 . S
C1411 C1408 1.450 . S
C1411 H1473 0.960 . S
C1411 H1474 0.960 . S
C1411 H1475 0.960 . S
C1412 C1413 1.309 . S
C1412 C1417 1.304 . S
C1412 O1450 1.435 . S
C1413 C1412 1.309 . S
C1413 C1414 1.476 . S
C1413 H1477 0.930 . S
C1414 C1413 1.476 . S
C1414 C1415 1.400 . S
C1414 C1418 1.567 . S
C1415 C1414 1.400 . S
C1415 C1416 1.373 . S
C1415 C1437 1.432 . S
C1416 C1415 1.373 . S
C1416 C1417 1.339 . S
C1416 C1419 1.530 . S
C1417 C1412 1.304 . S
C1417 C1416 1.339 . S
C1417 H1478 0.930 . S
C1418 C1414 1.567 . S
C1418 H1479 0.961 . S
C1418 H1480 0.960 . S
C1418 H1481 0.958 . S
C1419 C1416 1.530 . S
C1419 H1482 0.961 . S
C1419 H1483 0.960 . S
C1419 H1484 0.960 . S
C1420 C1421 1.530 . S
C1420 H1486 0.961 . S
C1420 H1487 0.961 . S
C1420 H1488 0.959 . S
C1421 C1420 1.530 . S
C1421 O1449 1.412 . S
C1421 H1485 0.980 . S
C1422 C1423 1.288 . S
C1422 C1427 1.377 . S
C1422 O1449 1.393 . S
C1423 C1422 1.288 . S
C1423 C1424 1.369 . S
C1423 H1489 0.932 . S
C1424 C1423 1.369 . S
C1424 C1425 1.398 . S
C1424 C1428 1.527 . S
C1425 C1424 1.398 . S
C1425 C1426 1.380 . S
C1425 C1439 1.497 . S
C1426 C1425 1.380 . S
C1426 C1427 1.383 . S
C1426 C1429 1.603 . S
C1427 C1422 1.377 . S
C1427 C1426 1.383 . S
C1427 H1490 0.929 . S
C1428 C1424 1.527 . S
C1428 H1491 0.961 . S
C1428 H1492 0.959 . S
C1428 H1493 0.959 . S
C1429 C1426 1.603 . S
C1429 H1494 0.960 . S
C1429 H1495 0.962 . S
C1429 H1496 0.961 . S
C1430 C1397 1.587 . S
C1430 C1431 1.360 . S
C1430 C1443 1.412 . S
C1431 C1430 1.360 . S
C1431 C1432 1.365 . S
C1431 H1497 0.929 . S
C1432 C1407 1.553 . S
C1432 C1431 1.365 . S
C1432 C1433 1.404 . S
C1433 C1432 1.404 . S
C1433 C1434 1.395 . S
C1433 C1444 1.451 . S
C1434 C1433 1.395 . S
C1434 C1435 1.322 . S
C1434 H1498 0.930 . S
C1435 C1434 1.322 . S
C1435 C1436 1.459 . S
C1435 H1499 0.929 . S
C1436 C1435 1.459 . S
C1436 C1437 1.445 . S
C1436 C1445 1.395 . S
C1437 C1415 1.432 . S
C1437 C1436 1.445 . S
C1437 C1438 1.370 . S
C1438 C1437 1.370 . S
C1438 C1439 1.438 . S
C1438 H1500 0.930 . S
C1439 C1425 1.497 . S
C1439 C1438 1.438 . S
C1439 C1440 1.360 . S
C1440 C1439 1.360 . S
C1440 C1441 1.401 . S
C1440 C1445 1.446 . S
C1441 C1440 1.401 . S
C1441 C1442 1.347 . S
C1441 H1501 0.929 . S
C1442 C1441 1.347 . S
C1442 C1443 1.455 . S
C1442 H1502 0.930 . S
C1443 C1430 1.412 . S
C1443 C1442 1.455 . S
C1443 C1444 1.331 . S
C1444 C1433 1.451 . S
C1444 C1443 1.331 . S
C1444 C1445 1.497 . S
C1445 C1436 1.395 . S
C1445 C1440 1.446 . S
C1445 C1444 1.497 . S
C1446 C1447 1.582 . S
C1446 H1503 0.962 . S
C1446 H1504 0.959 . S
C1446 H1505 0.958 . S
C1447 C1446 1.582 . S
C1447 O1450 1.458 . S
C1447 H1476 0.980 . S
O1448 C1393 1.426 . S
O1448 C1394 1.334 . S
O1449 C1421 1.412 . S
O1449 C1422 1.393 . S
O1450 C1412 1.435 . S
O1450 C1447 1.458 . S
O1451 C1403 1.468 . S
O1451 C1404 1.408 . S
H1452 C1393 0.980 . S
H1453 C1392 0.959 . S
H1454 C1392 0.959 . S
H1455 C1392 0.960 . S
H1456 C1395 0.929 . S
H1457 C1399 0.929 . S
H1458 C1400 0.959 . S
H1459 C1400 0.961 . S
H1460 C1400 0.961 . S
H1461 C1401 0.960 . S
H1462 C1401 0.960 . S
H1463 C1401 0.961 . S
H1464 C1403 0.980 . S
H1465 C1402 0.961 . S
H1466 C1402 0.960 . S
H1467 C1402 0.959 . S
H1468 C1405 0.930 . S
H1469 C1409 0.931 . S
H1470 C1410 0.959 . S
H1471 C1410 0.961 . S
H1472 C1410 0.959 . S
H1473 C1411 0.960 . S
H1474 C1411 0.960 . S
H1475 C1411 0.960 . S
H1476 C1447 0.980 . S
H1477 C1413 0.930 . S
H1478 C1417 0.930 . S
H1479 C1418 0.961 . S
H1480 C1418 0.960 . S
H1481 C1418 0.958 . S
H1482 C1419 0.961 . S
H1483 C1419 0.960 . S
H1484 C1419 0.960 . S
H1485 C1421 0.980 . S
H1486 C1420 0.961 . S
H1487 C1420 0.961 . S
H1488 C1420 0.959 . S
H1489 C1423 0.932 . S
H1490 C1427 0.929 . S
H1491 C1428 0.961 . S
H1492 C1428 0.959 . S
H1493 C1428 0.959 . S
H1494 C1429 0.960 . S
H1495 C1429 0.962 . S
H1496 C1429 0.961 . S
H1497 C1431 0.929 . S
H1498 C1434 0.930 . S
H1499 C1435 0.929 . S
H1500 C1438 0.930 . S
H1501 C1441 0.929 . S
H1502 C1442 0.930 . S
H1503 C1446 0.962 . S
H1504 C1446 0.959 . S
H1505 C1446 0.958 . S
C1506 C1507 1.560 . S
C1506 H1567 0.959 . S
C1506 H1568 0.959 . S
C1506 H1569 0.960 . S
C1507 C1506 1.560 . S
C1507 O1562 1.426 . S
C1507 H1566 0.980 . S
C1508 C1509 1.407 1_565 S
C1508 C1513 1.418 . S
C1508 O1562 1.334 . S
C1509 C1508 1.407 1_545 S
C1509 C1510 1.360 . S
C1509 H1570 0.929 . S
C1510 C1509 1.360 . S
C1510 C1511 1.401 1_545 S
C1510 C1514 1.527 . S
C1511 C1510 1.401 1_565 S
C1511 C1512 1.405 . S
C1511 C1544 1.587 1_565 S
C1512 C1511 1.405 . S
C1512 C1513 1.332 . S
C1512 C1515 1.496 . S
C1513 C1508 1.418 . S
C1513 C1512 1.332 . S
C1513 H1571 0.929 . S
C1514 C1510 1.527 . S
C1514 H1572 0.959 . S
C1514 H1573 0.961 . S
C1514 H1574 0.961 . S
C1515 C1512 1.496 . S
C1515 H1575 0.960 . S
C1515 H1576 0.960 . S
C1515 H1577 0.961 . S
C1516 C1517 1.517 . S
C1516 H1579 0.963 1_545 S
C1516 H1580 0.960 . S
C1516 H1581 0.959 . S
C1517 C1516 1.517 . S
C1517 O1565 1.468 . S
C1517 H1578 0.980 1_545 S
C1518 C1519 1.349 . S
C1518 C1523 1.367 . S
C1518 O1565 1.408 . S
C1519 C1518 1.349 . S
C1519 C1520 1.407 1_545 S
C1519 H1582 0.930 1_545 S
C1520 C1519 1.407 1_565 S
C1520 C1521 1.449 1_565 S
C1520 C1524 1.535 . S
C1521 C1520 1.449 1_545 S
C1521 C1522 1.384 . S
C1521 C1546 1.553 . S
C1522 C1521 1.384 . S
C1522 C1523 1.364 . S
C1522 C1525 1.450 . S
C1523 C1518 1.367 . S
C1523 C1522 1.364 . S
C1523 H1583 0.931 . S
C1524 C1520 1.535 . S
C1524 H1584 0.959 . S
C1524 H1585 0.961 . S
C1524 H1586 0.959 . S
C1525 C1522 1.450 . S
C1525 H1587 0.960 . S
C1525 H1588 0.960 . S
C1525 H1589 0.960 . S
C1526 C1527 1.309 . S
C1526 C1531 1.304 . S
C1526 O1564 1.435 . S
C1527 C1526 1.309 . S
C1527 C1528 1.497 1_545 S
C1527 H1591 0.930 1_545 S
C1528 C1527 1.497 1_565 S
C1528 C1529 1.332 1_565 S
C1528 C1532 1.614 . S
C1529 C1528 1.332 1_545 S
C1529 C1530 1.373 . S
C1529 C1551 1.432 . S
C1530 C1529 1.373 . S
C1530 C1531 1.339 . S
C1530 C1533 1.530 . S
C1531 C1526 1.304 . S
C1531 C1530 1.339 . S
C1531 H1592 0.930 . S
C1532 C1528 1.614 . S
C1532 H1593 0.961 . S
C1532 H1594 0.960 . S
C1532 H1595 0.958 . S
C1533 C1530 1.530 . S
C1533 H1596 0.961 . S
C1533 H1597 0.960 . S
C1533 H1598 0.960 . S
C1534 C1535 1.523 1_565 S
C1534 H1600 0.961 . S
C1534 H1601 0.961 . S
C1534 H1602 0.959 . S
C1535 C1534 1.523 1_545 S
C1535 O1563 1.356 1_545 S
C1535 H1599 1.010 . S
C1536 C1537 1.288 . S
C1536 C1541 1.377 1_565 S
C1536 O1563 1.393 . S
C1537 C1536 1.288 . S
C1537 C1538 1.369 . S
C1537 H1603 0.932 . S
C1538 C1537 1.369 . S
C1538 C1539 1.398 1_565 S
C1538 C1542 1.527 . S
C1539 C1538 1.398 1_545 S
C1539 C1540 1.380 . S
C1539 C1553 1.497 . S
C1540 C1539 1.380 . S
C1540 C1541 1.383 . S
C1540 C1543 1.603 . S
C1541 C1536 1.377 1_545 S
C1541 C1540 1.383 . S
C1541 H1604 0.929 . S
C1542 C1538 1.527 . S
C1542 H1605 0.961 . S
C1542 H1606 0.959 . S
C1542 H1607 0.959 . S
C1543 C1540 1.603 . S
C1543 H1608 0.960 . S
C1543 H1609 0.962 . S
C1543 H1610 0.961 . S
C1544 C1511 1.587 1_545 S
C1544 C1545 1.360 . S
C1544 C1557 1.412 . S
C1545 C1544 1.360 . S
C1545 C1546 1.365 . S
C1545 H1611 0.929 . S
C1546 C1521 1.553 . S
C1546 C1545 1.365 . S
C1546 C1547 1.404 . S
C1547 C1546 1.404 . S
C1547 C1548 1.395 . S
C1547 C1558 1.451 . S
C1548 C1547 1.395 . S
C1548 C1549 1.322 . S
C1548 H1612 0.930 . S
C1549 C1548 1.322 . S
C1549 C1550 1.459 . S
C1549 H1613 0.929 . S
C1550 C1549 1.459 . S
C1550 C1551 1.445 . S
C1550 C1559 1.395 . S
C1551 C1529 1.432 . S
C1551 C1550 1.445 . S
C1551 C1552 1.370 . S
C1552 C1551 1.370 . S
C1552 C1553 1.438 . S
C1552 H1614 0.930 . S
C1553 C1539 1.497 . S
C1553 C1552 1.438 . S
C1553 C1554 1.360 . S
C1554 C1553 1.360 . S
C1554 C1555 1.401 . S
C1554 C1559 1.446 . S
C1555 C1554 1.401 . S
C1555 C1556 1.347 . S
C1555 H1615 0.929 . S
C1556 C1555 1.347 . S
C1556 C1557 1.455 . S
C1556 H1616 0.930 . S
C1557 C1544 1.412 . S
C1557 C1556 1.455 . S
C1557 C1558 1.331 . S
C1558 C1547 1.451 . S
C1558 C1557 1.331 . S
C1558 C1559 1.497 . S
C1559 C1550 1.395 . S
C1559 C1554 1.446 . S
C1559 C1558 1.497 . S
C1560 C1561 1.582 . S
C1560 H1617 0.962 . S
C1560 H1618 0.959 . S
C1560 H1619 0.958 . S
C1561 C1560 1.582 . S
C1561 O1564 1.458 . S
C1561 H1590 0.980 . S
O1562 C1507 1.426 . S
O1562 C1508 1.334 . S
O1563 C1535 1.356 1_565 S
O1563 C1536 1.393 . S
O1564 C1526 1.435 . S
O1564 C1561 1.458 . S
O1565 C1517 1.468 . S
O1565 C1518 1.408 . S
H1566 C1507 0.980 . S
H1567 C1506 0.959 . S
H1568 C1506 0.959 . S
H1569 C1506 0.960 . S
H1570 C1509 0.929 . S
H1571 C1513 0.929 . S
H1572 C1514 0.959 . S
H1573 C1514 0.961 . S
H1574 C1514 0.961 . S
H1575 C1515 0.960 . S
H1576 C1515 0.960 . S
H1577 C1515 0.961 . S
H1578 C1517 0.980 1_565 S
H1579 C1516 0.963 1_565 S
H1580 C1516 0.960 . S
H1581 C1516 0.959 . S
H1582 C1519 0.930 1_565 S
H1583 C1523 0.931 . S
H1584 C1524 0.959 . S
H1585 C1524 0.961 . S
H1586 C1524 0.959 . S
H1587 C1525 0.960 . S
H1588 C1525 0.960 . S
H1589 C1525 0.960 . S
H1590 C1561 0.980 . S
H1591 C1527 0.930 1_565 S
H1592 C1531 0.930 . S
H1593 C1532 0.961 . S
H1594 C1532 0.960 . S
H1595 C1532 0.958 . S
H1596 C1533 0.961 . S
H1597 C1533 0.960 . S
H1598 C1533 0.960 . S
H1599 C1535 1.010 . S
H1600 C1534 0.961 . S
H1601 C1534 0.961 . S
H1602 C1534 0.959 . S
H1603 C1537 0.932 . S
H1604 C1541 0.929 . S
H1605 C1542 0.961 . S
H1606 C1542 0.959 . S
H1607 C1542 0.959 . S
H1608 C1543 0.960 . S
H1609 C1543 0.962 . S
H1610 C1543 0.961 . S
H1611 C1545 0.929 . S
H1612 C1548 0.930 . S
H1613 C1549 0.929 . S
H1614 C1552 0.930 . S
H1615 C1555 0.929 . S
H1616 C1556 0.930 . S
H1617 C1560 0.962 . S
H1618 C1560 0.959 . S
H1619 C1560 0.958 . S
C1620 C1621 1.560 . S
C1620 H1681 0.959 . S
C1620 H1682 0.959 . S
C1620 H1683 0.960 . S
C1621 C1620 1.560 . S
C1621 O1676 1.426 . S
C1621 H1680 0.980 1_565 S
C1622 C1623 1.407 1_565 S
C1622 C1627 1.418 . S
C1622 O1676 1.334 . S
C1623 C1622 1.407 1_545 S
C1623 C1624 1.360 . S
C1623 H1684 0.929 . S
C1624 C1623 1.360 . S
C1624 C1625 1.401 . S
C1624 C1628 1.527 . S
C1625 C1624 1.401 . S
C1625 C1626 1.405 1_545 S
C1625 C1658 1.587 . S
C1626 C1625 1.405 1_565 S
C1626 C1627 1.332 . S
C1626 C1629 1.496 . S
C1627 C1622 1.418 . S
C1627 C1626 1.332 . S
C1627 H1685 0.929 . S
C1628 C1624 1.527 . S
C1628 H1686 0.959 . S
C1628 H1687 0.961 . S
C1628 H1688 0.961 . S
C1629 C1626 1.496 . S
C1629 H1689 0.960 . S
C1629 H1690 0.960 . S
C1629 H1691 0.961 . S
C1630 C1631 1.517 . S
C1630 H1693 0.961 . S
C1630 H1694 0.960 . S
C1630 H1695 0.959 . S
C1631 C1630 1.517 . S
C1631 O1679 1.468 . S
C1631 H1692 0.980 . S
C1632 C1633 1.349 . S
C1632 C1637 1.367 . S
C1632 O1679 1.408 . S
C1633 C1632 1.349 . S
C1633 C1634 1.407 . S
C1633 H1696 0.910 1_545 S
C1634 C1633 1.407 . S
C1634 C1635 1.449 . S
C1634 C1638 1.535 1_545 S
C1635 C1634 1.449 . S
C1635 C1636 1.384 . S
C1635 C1660 1.553 . S
C1636 C1635 1.384 . S
C1636 C1637 1.364 . S
C1636 C1639 1.450 . S
C1637 C1632 1.367 . S
C1637 C1636 1.364 . S
C1637 H1697 0.931 . S
C1638 C1634 1.535 1_565 S
C1638 H1698 0.959 . S
C1638 H1699 0.961 . S
C1638 H1700 0.959 . S
C1639 C1636 1.450 . S
C1639 H1701 0.960 . S
C1639 H1702 0.960 . S
C1639 H1703 0.960 . S
C1640 C1641 1.309 1_545 S
C1640 C1645 1.304 . S
C1640 O1678 1.435 . S
C1641 C1640 1.309 1_565 S
C1641 C1642 1.476 . S
C1641 H1705 0.930 . S
C1642 C1641 1.476 . S
C1642 C1643 1.400 1_565 S
C1642 C1646 1.567 . S
C1643 C1642 1.400 1_545 S
C1643 C1644 1.373 . S
C1643 C1665 1.432 . S
C1644 C1643 1.373 . S
C1644 C1645 1.339 . S
C1644 C1647 1.530 . S
C1645 C1640 1.304 . S
C1645 C1644 1.339 . S
C1645 H1706 0.930 . S
C1646 C1642 1.567 . S
C1646 H1707 0.961 . S
C1646 H1708 0.960 . S
C1646 H1709 0.958 . S
C1647 C1644 1.530 . S
C1647 H1710 0.961 . S
C1647 H1711 0.960 . S
C1647 H1712 0.960 . S
C1648 C1649 1.530 . S
C1648 H1714 0.961 . S
C1648 H1715 0.961 . S
C1648 H1716 0.959 . S
C1649 C1648 1.530 . S
C1649 O1677 1.412 . S
C1649 H1713 0.980 . S
C1650 C1651 1.288 . S
C1650 C1655 1.377 1_565 S
C1650 O1677 1.393 . S
C1651 C1650 1.288 . S
C1651 C1652 1.369 . S
C1651 H1717 0.932 . S
C1652 C1651 1.369 . S
C1652 C1653 1.398 . S
C1652 C1656 1.527 . S
C1653 C1652 1.398 . S
C1653 C1654 1.380 1_565 S
C1653 C1667 1.497 1_565 S
C1654 C1653 1.380 1_545 S
C1654 C1655 1.383 . S
C1654 C1657 1.603 . S
C1655 C1650 1.377 1_545 S
C1655 C1654 1.383 . S
C1655 H1718 0.929 . S
C1656 C1652 1.527 . S
C1656 H1719 0.961 . S
C1656 H1720 0.959 . S
C1656 H1721 0.959 . S
C1657 C1654 1.603 . S
C1657 H1722 0.960 . S
C1657 H1723 0.962 . S
C1657 H1724 0.961 . S
C1658 C1625 1.587 . S
C1658 C1659 1.360 . S
C1658 C1671 1.412 . S
C1659 C1658 1.360 . S
C1659 C1660 1.365 . S
C1659 H1725 0.929 . S
C1660 C1635 1.553 . S
C1660 C1659 1.365 . S
C1660 C1661 1.404 . S
C1661 C1660 1.404 . S
C1661 C1662 1.395 . S
C1661 C1672 1.451 . S
C1662 C1661 1.395 . S
C1662 C1663 1.322 . S
C1662 H1726 0.930 . S
C1663 C1662 1.322 . S
C1663 C1664 1.459 . S
C1663 H1727 0.929 . S
C1664 C1663 1.459 . S
C1664 C1665 1.445 . S
C1664 C1673 1.395 . S
C1665 C1643 1.432 . S
C1665 C1664 1.445 . S
C1665 C1666 1.370 . S
C1666 C1665 1.370 . S
C1666 C1667 1.438 . S
C1666 H1728 0.930 . S
C1667 C1653 1.497 1_545 S
C1667 C1666 1.438 . S
C1667 C1668 1.360 . S
C1668 C1667 1.360 . S
C1668 C1669 1.401 . S
C1668 C1673 1.446 . S
C1669 C1668 1.401 . S
C1669 C1670 1.347 . S
C1669 H1729 0.929 . S
C1670 C1669 1.347 . S
C1670 C1671 1.455 . S
C1670 H1730 0.930 . S
C1671 C1658 1.412 . S
C1671 C1670 1.455 . S
C1671 C1672 1.331 . S
C1672 C1661 1.451 . S
C1672 C1671 1.331 . S
C1672 C1673 1.497 . S
C1673 C1664 1.395 . S
C1673 C1668 1.446 . S
C1673 C1672 1.497 . S
C1674 C1675 1.582 . S
C1674 H1731 0.962 . S
C1674 H1732 0.959 . S
C1674 H1733 0.958 . S
C1675 C1674 1.582 . S
C1675 O1678 1.458 . S
C1675 H1704 0.980 1_545 S
O1676 C1621 1.426 . S
O1676 C1622 1.334 . S
O1677 C1649 1.412 . S
O1677 C1650 1.393 . S
O1678 C1640 1.435 . S
O1678 C1675 1.458 . S
O1679 C1631 1.468 . S
O1679 C1632 1.408 . S
H1680 C1621 0.980 1_545 S
H1681 C1620 0.959 . S
H1682 C1620 0.959 . S
H1683 C1620 0.960 . S
H1684 C1623 0.929 . S
H1685 C1627 0.929 . S
H1686 C1628 0.959 . S
H1687 C1628 0.961 . S
H1688 C1628 0.961 . S
H1689 C1629 0.960 . S
H1690 C1629 0.960 . S
H1691 C1629 0.961 . S
H1692 C1631 0.980 . S
H1693 C1630 0.961 . S
H1694 C1630 0.960 . S
H1695 C1630 0.959 . S
H1696 C1633 0.910 1_565 S
H1697 C1637 0.931 . S
H1698 C1638 0.959 . S
H1699 C1638 0.961 . S
H1700 C1638 0.959 . S
H1701 C1639 0.960 . S
H1702 C1639 0.960 . S
H1703 C1639 0.960 . S
H1704 C1675 0.980 1_565 S
H1705 C1641 0.930 . S
H1706 C1645 0.930 . S
H1707 C1646 0.961 . S
H1708 C1646 0.960 . S
H1709 C1646 0.958 . S
H1710 C1647 0.961 . S
H1711 C1647 0.960 . S
H1712 C1647 0.960 . S
H1713 C1649 0.980 . S
H1714 C1648 0.961 . S
H1715 C1648 0.961 . S
H1716 C1648 0.959 . S
H1717 C1651 0.932 . S
H1718 C1655 0.929 . S
H1719 C1656 0.961 . S
H1720 C1656 0.959 . S
H1721 C1656 0.959 . S
H1722 C1657 0.960 . S
H1723 C1657 0.962 . S
H1724 C1657 0.961 . S
H1725 C1659 0.929 . S
H1726 C1662 0.930 . S
H1727 C1663 0.929 . S
H1728 C1666 0.930 . S
H1729 C1669 0.929 . S
H1730 C1670 0.930 . S
H1731 C1674 0.962 . S
H1732 C1674 0.959 . S
H1733 C1674 0.958 . S
C1734 C1735 1.560 . S
C1734 H1795 0.959 . S
C1734 H1796 0.959 . S
C1734 H1797 0.960 . S
C1735 C1734 1.560 . S
C1735 O1790 1.426 . S
C1735 H1794 0.980 1_455 S
C1736 C1737 1.407 1_455 S
C1736 C1741 1.418 . S
C1736 O1790 1.334 . S
C1737 C1736 1.407 1_655 S
C1737 C1738 1.360 . S
C1737 H1798 0.929 . S
C1738 C1737 1.360 . S
C1738 C1739 1.401 . S
C1738 C1742 1.527 . S
C1739 C1738 1.401 . S
C1739 C1740 1.405 1_655 S
C1739 C1772 1.587 . S
C1740 C1739 1.405 1_455 S
C1740 C1741 1.332 . S
C1740 C1743 1.496 . S
C1741 C1736 1.418 . S
C1741 C1740 1.332 . S
C1741 H1799 0.929 . S
C1742 C1738 1.527 . S
C1742 H1800 0.959 . S
C1742 H1801 0.961 . S
C1742 H1802 0.961 . S
C1743 C1740 1.496 . S
C1743 H1803 0.960 . S
C1743 H1804 0.960 . S
C1743 H1805 0.961 . S
C1744 C1745 1.517 . S
C1744 H1807 0.961 . S
C1744 H1808 0.960 . S
C1744 H1809 0.959 . S
C1745 C1744 1.517 . S
C1745 O1793 1.468 . S
C1745 H1806 0.980 . S
C1746 C1747 1.349 . S
C1746 C1751 1.367 . S
C1746 O1793 1.408 . S
C1747 C1746 1.349 . S
C1747 C1748 1.407 . S
C1747 H1810 0.883 1_655 S
C1748 C1747 1.407 . S
C1748 C1749 1.449 . S
C1748 C1752 1.535 1_655 S
C1749 C1748 1.449 . S
C1749 C1750 1.384 . S
C1749 C1774 1.553 . S
C1750 C1749 1.384 . S
C1750 C1751 1.364 . S
C1750 C1753 1.450 . S
C1751 C1746 1.367 . S
C1751 C1750 1.364 . S
C1751 H1811 0.931 . S
C1752 C1748 1.535 1_455 S
C1752 H1812 0.959 . S
C1752 H1813 0.961 . S
C1752 H1814 0.959 . S
C1753 C1750 1.450 . S
C1753 H1815 0.960 . S
C1753 H1816 0.960 . S
C1753 H1817 0.960 . S
C1754 C1755 1.309 1_655 S
C1754 C1759 1.304 . S
C1754 O1792 1.435 . S
C1755 C1754 1.309 1_455 S
C1755 C1756 1.476 . S
C1755 H1819 0.930 . S
C1756 C1755 1.476 . S
C1756 C1757 1.400 1_455 S
C1756 C1760 1.567 . S
C1757 C1756 1.400 1_655 S
C1757 C1758 1.373 . S
C1757 C1779 1.432 . S
C1758 C1757 1.373 . S
C1758 C1759 1.339 . S
C1758 C1761 1.530 . S
C1759 C1754 1.304 . S
C1759 C1758 1.339 . S
C1759 H1820 0.930 . S
C1760 C1756 1.567 . S
C1760 H1821 0.961 . S
C1760 H1822 0.960 . S
C1760 H1823 0.958 . S
C1761 C1758 1.530 . S
C1761 H1824 0.961 . S
C1761 H1825 0.960 . S
C1761 H1826 0.960 . S
C1762 C1763 1.530 . S
C1762 H1828 0.961 . S
C1762 H1829 0.961 . S
C1762 H1830 0.959 . S
C1763 C1762 1.530 . S
C1763 O1791 1.412 . S
C1763 H1827 0.978 1_455 S
C1764 C1765 1.288 . S
C1764 C1769 1.377 1_455 S
C1764 O1791 1.393 . S
C1765 C1764 1.288 . S
C1765 C1766 1.369 . S
C1765 H1831 0.932 . S
C1766 C1765 1.369 . S
C1766 C1767 1.398 . S
C1766 C1770 1.527 . S
C1767 C1766 1.398 . S
C1767 C1768 1.380 1_455 S
C1767 C1781 1.497 1_455 S
C1768 C1767 1.380 1_655 S
C1768 C1769 1.383 . S
C1768 C1771 1.603 . S
C1769 C1764 1.377 1_655 S
C1769 C1768 1.383 . S
C1769 H1832 0.929 . S
C1770 C1766 1.527 . S
C1770 H1833 0.961 . S
C1770 H1834 0.959 . S
C1770 H1835 0.959 . S
C1771 C1768 1.603 . S
C1771 H1836 0.960 . S
C1771 H1837 0.962 . S
C1771 H1838 0.961 . S
C1772 C1739 1.587 . S
C1772 C1773 1.360 . S
C1772 C1785 1.412 . S
C1773 C1772 1.360 . S
C1773 C1774 1.365 . S
C1773 H1839 0.929 . S
C1774 C1749 1.553 . S
C1774 C1773 1.365 . S
C1774 C1775 1.404 . S
C1775 C1774 1.404 . S
C1775 C1776 1.395 . S
C1775 C1786 1.451 . S
C1776 C1775 1.395 . S
C1776 C1777 1.322 . S
C1776 H1840 0.930 . S
C1777 C1776 1.322 . S
C1777 C1778 1.459 . S
C1777 H1841 0.929 . S
C1778 C1777 1.459 . S
C1778 C1779 1.445 . S
C1778 C1787 1.395 . S
C1779 C1757 1.432 . S
C1779 C1778 1.445 . S
C1779 C1780 1.370 . S
C1780 C1779 1.370 . S
C1780 C1781 1.438 . S
C1780 H1842 0.930 . S
C1781 C1767 1.497 1_655 S
C1781 C1780 1.438 . S
C1781 C1782 1.360 . S
C1782 C1781 1.360 . S
C1782 C1783 1.401 . S
C1782 C1787 1.446 . S
C1783 C1782 1.401 . S
C1783 C1784 1.347 . S
C1783 H1843 0.929 . S
C1784 C1783 1.347 . S
C1784 C1785 1.455 . S
C1784 H1844 0.930 . S
C1785 C1772 1.412 . S
C1785 C1784 1.455 . S
C1785 C1786 1.331 . S
C1786 C1775 1.451 . S
C1786 C1785 1.331 . S
C1786 C1787 1.497 . S
C1787 C1778 1.395 . S
C1787 C1782 1.446 . S
C1787 C1786 1.497 . S
C1788 C1789 1.582 . S
C1788 H1845 0.962 . S
C1788 H1846 0.959 . S
C1788 H1847 0.958 . S
C1789 C1788 1.582 . S
C1789 O1792 1.459 . S
C1789 H1818 0.980 1_655 S
O1790 C1735 1.426 . S
O1790 C1736 1.334 . S
O1791 C1763 1.412 . S
O1791 C1764 1.393 . S
O1792 C1754 1.435 . S
O1792 C1789 1.459 . S
O1793 C1745 1.468 . S
O1793 C1746 1.408 . S
H1794 C1735 0.980 1_655 S
H1795 C1734 0.959 . S
H1796 C1734 0.959 . S
H1797 C1734 0.960 . S
H1798 C1737 0.929 . S
H1799 C1741 0.929 . S
H1800 C1742 0.959 . S
H1801 C1742 0.961 . S
H1802 C1742 0.961 . S
H1803 C1743 0.960 . S
H1804 C1743 0.960 . S
H1805 C1743 0.961 . S
H1806 C1745 0.980 . S
H1807 C1744 0.961 . S
H1808 C1744 0.960 . S
H1809 C1744 0.959 . S
H1810 C1747 0.883 1_455 S
H1811 C1751 0.931 . S
H1812 C1752 0.959 . S
H1813 C1752 0.961 . S
H1814 C1752 0.959 . S
H1815 C1753 0.960 . S
H1816 C1753 0.960 . S
H1817 C1753 0.960 . S
H1818 C1789 0.980 1_455 S
H1819 C1755 0.930 . S
H1820 C1759 0.930 . S
H1821 C1760 0.961 . S
H1822 C1760 0.960 . S
H1823 C1760 0.958 . S
H1824 C1761 0.961 . S
H1825 C1761 0.960 . S
H1826 C1761 0.960 . S
H1827 C1763 0.978 1_655 S
H1828 C1762 0.961 . S
H1829 C1762 0.961 . S
H1830 C1762 0.959 . S
H1831 C1765 0.932 . S
H1832 C1769 0.929 . S
H1833 C1770 0.961 . S
H1834 C1770 0.959 . S
H1835 C1770 0.959 . S
H1836 C1771 0.960 . S
H1837 C1771 0.962 . S
H1838 C1771 0.961 . S
H1839 C1773 0.929 . S
H1840 C1776 0.930 . S
H1841 C1777 0.929 . S
H1842 C1780 0.930 . S
H1843 C1783 0.929 . S
H1844 C1784 0.930 . S
H1845 C1788 0.962 . S
H1846 C1788 0.959 . S
H1847 C1788 0.958 . S
C1848 C1849 1.560 . S
C1848 H1909 0.959 . S
C1848 H1910 0.959 . S
C1848 H1911 0.960 . S
C1849 C1848 1.560 . S
C1849 O1904 1.426 . S
C1849 H1908 0.980 . S
C1850 C1851 1.407 . S
C1850 C1855 1.418 . S
C1850 O1904 1.334 . S
C1851 C1850 1.407 . S
C1851 C1852 1.360 . S
C1851 H1912 0.929 . S
C1852 C1851 1.360 . S
C1852 C1853 1.401 . S
C1852 C1856 1.527 . S
C1853 C1852 1.401 . S
C1853 C1854 1.405 . S
C1853 C1886 1.587 . S
C1854 C1853 1.405 . S
C1854 C1855 1.332 . S
C1854 C1857 1.496 . S
C1855 C1850 1.418 . S
C1855 C1854 1.332 . S
C1855 H1913 0.929 . S
C1856 C1852 1.527 . S
C1856 H1914 0.959 . S
C1856 H1915 0.961 . S
C1856 H1916 0.961 . S
C1857 C1854 1.496 . S
C1857 H1917 0.960 . S
C1857 H1918 0.960 . S
C1857 H1919 0.961 . S
C1858 C1859 1.517 . S
C1858 H1921 0.961 . S
C1858 H1922 0.960 . S
C1858 H1923 0.959 . S
C1859 C1858 1.517 . S
C1859 O1907 1.468 . S
C1859 H1920 0.980 . S
C1860 C1861 1.349 . S
C1860 C1865 1.367 . S
C1860 O1907 1.408 . S
C1861 C1860 1.349 . S
C1861 C1862 1.407 . S
C1861 H1924 0.930 . S
C1862 C1861 1.407 . S
C1862 C1863 1.449 . S
C1862 C1866 1.535 . S
C1863 C1862 1.449 . S
C1863 C1864 1.384 . S
C1863 C1888 1.553 . S
C1864 C1863 1.384 . S
C1864 C1865 1.364 . S
C1864 C1867 1.450 . S
C1865 C1860 1.367 . S
C1865 C1864 1.364 . S
C1865 H1925 0.931 . S
C1866 C1862 1.535 . S
C1866 H1926 0.959 . S
C1866 H1927 0.961 . S
C1866 H1928 0.959 . S
C1867 C1864 1.450 . S
C1867 H1929 0.960 . S
C1867 H1930 0.960 . S
C1867 H1931 0.960 . S
C1868 C1869 1.309 . S
C1868 C1873 1.304 . S
C1868 O1906 1.435 . S
C1869 C1868 1.309 . S
C1869 C1870 1.476 . S
C1869 H1933 0.930 . S
C1870 C1869 1.476 . S
C1870 C1871 1.400 . S
C1870 C1874 1.567 . S
C1871 C1870 1.400 . S
C1871 C1872 1.373 . S
C1871 C1893 1.432 . S
C1872 C1871 1.373 . S
C1872 C1873 1.339 . S
C1872 C1875 1.530 . S
C1873 C1868 1.304 . S
C1873 C1872 1.339 . S
C1873 H1934 0.930 . S
C1874 C1870 1.567 . S
C1874 H1935 0.961 . S
C1874 H1936 0.960 . S
C1874 H1937 0.958 . S
C1875 C1872 1.530 . S
C1875 H1938 0.961 . S
C1875 H1939 0.960 . S
C1875 H1940 0.960 . S
C1876 C1877 1.530 . S
C1876 H1942 0.961 . S
C1876 H1943 0.961 . S
C1876 H1944 0.959 . S
C1877 C1876 1.530 . S
C1877 O1905 1.412 . S
C1877 H1941 0.980 . S
C1878 C1879 1.288 . S
C1878 C1883 1.377 . S
C1878 O1905 1.393 . S
C1879 C1878 1.288 . S
C1879 C1880 1.369 . S
C1879 H1945 0.932 . S
C1880 C1879 1.369 . S
C1880 C1881 1.398 . S
C1880 C1884 1.527 . S
C1881 C1880 1.398 . S
C1881 C1882 1.380 . S
C1881 C1895 1.497 . S
C1882 C1881 1.380 . S
C1882 C1883 1.383 . S
C1882 C1885 1.603 . S
C1883 C1878 1.377 . S
C1883 C1882 1.383 . S
C1883 H1946 0.929 . S
C1884 C1880 1.527 . S
C1884 H1947 0.961 . S
C1884 H1948 0.959 . S
C1884 H1949 0.959 . S
C1885 C1882 1.603 . S
C1885 H1950 0.960 . S
C1885 H1951 0.962 . S
C1885 H1952 0.961 . S
C1886 C1853 1.587 . S
C1886 C1887 1.360 . S
C1886 C1899 1.412 . S
C1887 C1886 1.360 . S
C1887 C1888 1.365 . S
C1887 H1953 0.929 . S
C1888 C1863 1.553 . S
C1888 C1887 1.365 . S
C1888 C1889 1.404 . S
C1889 C1888 1.404 . S
C1889 C1890 1.395 . S
C1889 C1900 1.451 . S
C1890 C1889 1.395 . S
C1890 C1891 1.322 . S
C1890 H1954 0.930 . S
C1891 C1890 1.322 . S
C1891 C1892 1.459 . S
C1891 H1955 0.929 . S
C1892 C1891 1.459 . S
C1892 C1893 1.445 . S
C1892 C1901 1.395 . S
C1893 C1871 1.432 . S
C1893 C1892 1.445 . S
C1893 C1894 1.370 . S
C1894 C1893 1.370 . S
C1894 C1895 1.438 . S
C1894 H1956 0.930 . S
C1895 C1881 1.497 . S
C1895 C1894 1.438 . S
C1895 C1896 1.360 . S
C1896 C1895 1.360 . S
C1896 C1897 1.401 . S
C1896 C1901 1.446 . S
C1897 C1896 1.401 . S
C1897 C1898 1.347 . S
C1897 H1957 0.929 . S
C1898 C1897 1.347 . S
C1898 C1899 1.455 . S
C1898 H1958 0.930 . S
C1899 C1886 1.412 . S
C1899 C1898 1.455 . S
C1899 C1900 1.331 . S
C1900 C1889 1.451 . S
C1900 C1899 1.331 . S
C1900 C1901 1.497 . S
C1901 C1892 1.395 . S
C1901 C1896 1.446 . S
C1901 C1900 1.497 . S
C1902 C1903 1.582 . S
C1902 H1959 0.962 . S
C1902 H1960 0.959 . S
C1902 H1961 0.958 . S
C1903 C1902 1.582 . S
C1903 O1906 1.458 . S
C1903 H1932 0.980 . S
O1904 C1849 1.426 . S
O1904 C1850 1.334 . S
O1905 C1877 1.412 . S
O1905 C1878 1.393 . S
O1906 C1868 1.435 . S
O1906 C1903 1.458 . S
O1907 C1859 1.468 . S
O1907 C1860 1.408 . S
H1908 C1849 0.980 . S
H1909 C1848 0.959 . S
H1910 C1848 0.959 . S
H1911 C1848 0.960 . S
H1912 C1851 0.929 . S
H1913 C1855 0.929 . S
H1914 C1856 0.959 . S
H1915 C1856 0.961 . S
H1916 C1856 0.961 . S
H1917 C1857 0.960 . S
H1918 C1857 0.960 . S
H1919 C1857 0.961 . S
H1920 C1859 0.980 . S
H1921 C1858 0.961 . S
H1922 C1858 0.960 . S
H1923 C1858 0.959 . S
H1924 C1861 0.930 . S
H1925 C1865 0.931 . S
H1926 C1866 0.959 . S
H1927 C1866 0.961 . S
H1928 C1866 0.959 . S
H1929 C1867 0.960 . S
H1930 C1867 0.960 . S
H1931 C1867 0.960 . S
H1932 C1903 0.980 . S
H1933 C1869 0.930 . S
H1934 C1873 0.930 . S
H1935 C1874 0.961 . S
H1936 C1874 0.960 . S
H1937 C1874 0.958 . S
H1938 C1875 0.961 . S
H1939 C1875 0.960 . S
H1940 C1875 0.960 . S
H1941 C1877 0.980 . S
H1942 C1876 0.961 . S
H1943 C1876 0.961 . S
H1944 C1876 0.959 . S
H1945 C1879 0.932 . S
H1946 C1883 0.929 . S
H1947 C1884 0.961 . S
H1948 C1884 0.959 . S
H1949 C1884 0.959 . S
H1950 C1885 0.960 . S
H1951 C1885 0.962 . S
H1952 C1885 0.961 . S
H1953 C1887 0.929 . S
H1954 C1890 0.930 . S
H1955 C1891 0.929 . S
H1956 C1894 0.930 . S
H1957 C1897 0.929 . S
H1958 C1898 0.930 . S
H1959 C1902 0.962 . S
H1960 C1902 0.959 . S
H1961 C1902 0.958 . S
C1962 C1963 1.560 . S
C1962 H2023 0.959 . S
C1962 H2024 0.959 . S
C1962 H2025 0.960 . S
C1963 C1962 1.560 . S
C1963 O2018 1.426 . S
C1963 H2022 0.980 . S
C1964 C1965 1.407 . S
C1964 C1969 1.418 . S
C1964 O2018 1.334 . S
C1965 C1964 1.407 . S
C1965 C1966 1.360 . S
C1965 H2026 0.929 . S
C1966 C1965 1.360 . S
C1966 C1967 1.401 . S
C1966 C1970 1.527 . S
C1967 C1966 1.401 . S
C1967 C1968 1.405 . S
C1967 C2000 1.587 . S
C1968 C1967 1.405 . S
C1968 C1969 1.332 . S
C1968 C1971 1.496 . S
C1969 C1964 1.418 . S
C1969 C1968 1.332 . S
C1969 H2027 0.929 . S
C1970 C1966 1.527 . S
C1970 H2028 0.959 . S
C1970 H2029 0.961 . S
C1970 H2030 0.961 . S
C1971 C1968 1.496 . S
C1971 H2031 0.960 . S
C1971 H2032 0.960 . S
C1971 H2033 0.961 . S
C1972 C1973 1.517 . S
C1972 H2035 0.961 . S
C1972 H2036 0.960 . S
C1972 H2037 0.959 . S
C1973 C1972 1.517 . S
C1973 O2021 1.468 . S
C1973 H2034 0.980 . S
C1974 C1975 1.349 . S
C1974 C1979 1.367 . S
C1974 O2021 1.408 . S
C1975 C1974 1.349 . S
C1975 C1976 1.407 . S
C1975 H2038 0.930 . S
C1976 C1975 1.407 . S
C1976 C1977 1.449 . S
C1976 C1980 1.535 . S
C1977 C1976 1.449 . S
C1977 C1978 1.384 . S
C1977 C2002 1.553 . S
C1978 C1977 1.384 . S
C1978 C1979 1.364 . S
C1978 C1981 1.450 . S
C1979 C1974 1.367 . S
C1979 C1978 1.364 . S
C1979 H2039 0.931 . S
C1980 C1976 1.535 . S
C1980 H2040 0.959 . S
C1980 H2041 0.961 . S
C1980 H2042 0.959 . S
C1981 C1978 1.450 . S
C1981 H2043 0.960 . S
C1981 H2044 0.960 . S
C1981 H2045 0.960 . S
C1982 C1983 1.309 . S
C1982 C1987 1.304 . S
C1982 O2020 1.435 . S
C1983 C1982 1.309 . S
C1983 C1984 1.476 . S
C1983 H2047 0.930 . S
C1984 C1983 1.476 . S
C1984 C1985 1.400 . S
C1984 C1988 1.567 . S
C1985 C1984 1.400 . S
C1985 C1986 1.373 . S
C1985 C2007 1.432 . S
C1986 C1985 1.373 . S
C1986 C1987 1.339 . S
C1986 C1989 1.530 . S
C1987 C1982 1.304 . S
C1987 C1986 1.339 . S
C1987 H2048 0.930 . S
C1988 C1984 1.567 . S
C1988 H2049 0.961 . S
C1988 H2050 0.960 . S
C1988 H2051 0.958 . S
C1989 C1986 1.530 . S
C1989 H2052 0.961 . S
C1989 H2053 0.960 . S
C1989 H2054 0.960 . S
C1990 C1991 1.530 . S
C1990 H2056 0.961 . S
C1990 H2057 0.961 . S
C1990 H2058 0.959 . S
C1991 C1990 1.530 . S
C1991 O2019 1.412 . S
C1991 H2055 0.980 . S
C1992 C1993 1.288 . S
C1992 C1997 1.377 . S
C1992 O2019 1.393 . S
C1993 C1992 1.288 . S
C1993 C1994 1.369 . S
C1993 H2059 0.932 . S
C1994 C1993 1.369 . S
C1994 C1995 1.398 . S
C1994 C1998 1.527 . S
C1995 C1994 1.398 . S
C1995 C1996 1.380 . S
C1995 C2009 1.497 . S
C1996 C1995 1.380 . S
C1996 C1997 1.383 . S
C1996 C1999 1.603 . S
C1997 C1992 1.377 . S
C1997 C1996 1.383 . S
C1997 H2060 0.929 . S
C1998 C1994 1.527 . S
C1998 H2061 0.961 . S
C1998 H2062 0.959 . S
C1998 H2063 0.959 . S
C1999 C1996 1.603 . S
C1999 H2064 0.960 . S
C1999 H2065 0.962 . S
C1999 H2066 0.961 . S
C2000 C1967 1.587 . S
C2000 C2001 1.360 . S
C2000 C2013 1.412 . S
C2001 C2000 1.360 . S
C2001 C2002 1.365 . S
C2001 H2067 0.929 . S
C2002 C1977 1.553 . S
C2002 C2001 1.365 . S
C2002 C2003 1.404 . S
C2003 C2002 1.404 . S
C2003 C2004 1.395 . S
C2003 C2014 1.451 . S
C2004 C2003 1.395 . S
C2004 C2005 1.322 . S
C2004 H2068 0.930 . S
C2005 C2004 1.322 . S
C2005 C2006 1.459 . S
C2005 H2069 0.929 . S
C2006 C2005 1.459 . S
C2006 C2007 1.445 . S
C2006 C2015 1.395 . S
C2007 C1985 1.432 . S
C2007 C2006 1.445 . S
C2007 C2008 1.370 . S
C2008 C2007 1.370 . S
C2008 C2009 1.438 . S
C2008 H2070 0.930 . S
C2009 C1995 1.497 . S
C2009 C2008 1.438 . S
C2009 C2010 1.360 . S
C2010 C2009 1.360 . S
C2010 C2011 1.401 . S
C2010 C2015 1.446 . S
C2011 C2010 1.401 . S
C2011 C2012 1.347 . S
C2011 H2071 0.929 . S
C2012 C2011 1.347 . S
C2012 C2013 1.455 . S
C2012 H2072 0.930 . S
C2013 C2000 1.412 . S
C2013 C2012 1.455 . S
C2013 C2014 1.331 . S
C2014 C2003 1.451 . S
C2014 C2013 1.331 . S
C2014 C2015 1.497 . S
C2015 C2006 1.395 . S
C2015 C2010 1.446 . S
C2015 C2014 1.497 . S
C2016 C2017 1.582 . S
C2016 H2073 0.962 . S
C2016 H2074 0.959 . S
C2016 H2075 0.958 . S
C2017 C2016 1.582 . S
C2017 O2020 1.458 . S
C2017 H2046 0.980 . S
O2018 C1963 1.426 . S
O2018 C1964 1.334 . S
O2019 C1991 1.412 . S
O2019 C1992 1.393 . S
O2020 C1982 1.435 . S
O2020 C2017 1.458 . S
O2021 C1973 1.468 . S
O2021 C1974 1.408 . S
H2022 C1963 0.980 . S
H2023 C1962 0.959 . S
H2024 C1962 0.959 . S
H2025 C1962 0.960 . S
H2026 C1965 0.929 . S
H2027 C1969 0.929 . S
H2028 C1970 0.959 . S
H2029 C1970 0.961 . S
H2030 C1970 0.961 . S
H2031 C1971 0.960 . S
H2032 C1971 0.960 . S
H2033 C1971 0.961 . S
H2034 C1973 0.980 . S
H2035 C1972 0.961 . S
H2036 C1972 0.960 . S
H2037 C1972 0.959 . S
H2038 C1975 0.930 . S
H2039 C1979 0.931 . S
H2040 C1980 0.959 . S
H2041 C1980 0.961 . S
H2042 C1980 0.959 . S
H2043 C1981 0.960 . S
H2044 C1981 0.960 . S
H2045 C1981 0.960 . S
H2046 C2017 0.980 . S
H2047 C1983 0.930 . S
H2048 C1987 0.930 . S
H2049 C1988 0.961 . S
H2050 C1988 0.960 . S
H2051 C1988 0.958 . S
H2052 C1989 0.961 . S
H2053 C1989 0.960 . S
H2054 C1989 0.960 . S
H2055 C1991 0.980 . S
H2056 C1990 0.961 . S
H2057 C1990 0.961 . S
H2058 C1990 0.959 . S
H2059 C1993 0.932 . S
H2060 C1997 0.929 . S
H2061 C1998 0.961 . S
H2062 C1998 0.959 . S
H2063 C1998 0.959 . S
H2064 C1999 0.960 . S
H2065 C1999 0.962 . S
H2066 C1999 0.961 . S
H2067 C2001 0.929 . S
H2068 C2004 0.930 . S
H2069 C2005 0.929 . S
H2070 C2008 0.930 . S
H2071 C2011 0.929 . S
H2072 C2012 0.930 . S
H2073 C2016 0.962 . S
H2074 C2016 0.959 . S
H2075 C2016 0.958 . S
C2076 C2077 1.560 . S
C2076 H2137 0.959 . S
C2076 H2138 0.959 . S
C2076 H2139 0.960 . S
C2077 C2076 1.560 . S
C2077 O2132 1.426 . S
C2077 H2136 0.980 . S
C2078 C2079 1.407 . S
C2078 C2083 1.418 . S
C2078 O2132 1.334 . S
C2079 C2078 1.407 . S
C2079 C2080 1.360 . S
C2079 H2140 0.929 . S
C2080 C2079 1.360 . S
C2080 C2081 1.401 . S
C2080 C2084 1.527 . S
C2081 C2080 1.401 . S
C2081 C2082 1.405 . S
C2081 C2114 1.587 . S
C2082 C2081 1.405 . S
C2082 C2083 1.332 . S
C2082 C2085 1.496 . S
C2083 C2078 1.418 . S
C2083 C2082 1.332 . S
C2083 H2141 0.929 . S
C2084 C2080 1.527 . S
C2084 H2142 0.959 . S
C2084 H2143 0.961 . S
C2084 H2144 0.961 . S
C2085 C2082 1.496 . S
C2085 H2145 0.960 . S
C2085 H2146 0.960 . S
C2085 H2147 0.961 . S
C2086 C2087 1.517 . S
C2086 H2149 0.961 . S
C2086 H2150 0.960 . S
C2086 H2151 0.959 . S
C2087 C2086 1.517 . S
C2087 O2135 1.468 . S
C2087 H2148 0.980 . S
C2088 C2089 1.349 . S
C2088 C2093 1.367 . S
C2088 O2135 1.408 . S
C2089 C2088 1.349 . S
C2089 C2090 1.407 . S
C2089 H2152 0.930 . S
C2090 C2089 1.407 . S
C2090 C2091 1.449 . S
C2090 C2094 1.535 . S
C2091 C2090 1.449 . S
C2091 C2092 1.384 . S
C2091 C2116 1.553 . S
C2092 C2091 1.384 . S
C2092 C2093 1.364 . S
C2092 C2095 1.450 . S
C2093 C2088 1.367 . S
C2093 C2092 1.364 . S
C2093 H2153 0.931 . S
C2094 C2090 1.535 . S
C2094 H2154 0.959 . S
C2094 H2155 0.961 . S
C2094 H2156 0.959 . S
C2095 C2092 1.450 . S
C2095 H2157 0.960 . S
C2095 H2158 0.960 . S
C2095 H2159 0.960 . S
C2096 C2097 1.309 . S
C2096 C2101 1.304 . S
C2096 O2134 1.435 . S
C2097 C2096 1.309 . S
C2097 C2098 1.476 . S
C2097 H2161 0.930 . S
C2098 C2097 1.476 . S
C2098 C2099 1.400 . S
C2098 C2102 1.567 . S
C2099 C2098 1.400 . S
C2099 C2100 1.373 . S
C2099 C2121 1.432 . S
C2100 C2099 1.373 . S
C2100 C2101 1.339 . S
C2100 C2103 1.530 . S
C2101 C2096 1.304 . S
C2101 C2100 1.339 . S
C2101 H2162 0.930 . S
C2102 C2098 1.567 . S
C2102 H2163 0.961 . S
C2102 H2164 0.960 . S
C2102 H2165 0.958 . S
C2103 C2100 1.530 . S
C2103 H2166 0.961 . S
C2103 H2167 0.960 . S
C2103 H2168 0.960 . S
C2104 C2105 1.530 . S
C2104 H2170 0.961 . S
C2104 H2171 0.961 . S
C2104 H2172 0.959 . S
C2105 C2104 1.530 . S
C2105 O2133 1.412 . S
C2105 H2169 0.980 . S
C2106 C2107 1.288 . S
C2106 C2111 1.377 . S
C2106 O2133 1.393 . S
C2107 C2106 1.288 . S
C2107 C2108 1.369 . S
C2107 H2173 0.932 . S
C2108 C2107 1.369 . S
C2108 C2109 1.398 . S
C2108 C2112 1.527 . S
C2109 C2108 1.398 . S
C2109 C2110 1.380 . S
C2109 C2123 1.497 . S
C2110 C2109 1.380 . S
C2110 C2111 1.383 . S
C2110 C2113 1.603 . S
C2111 C2106 1.377 . S
C2111 C2110 1.383 . S
C2111 H2174 0.929 . S
C2112 C2108 1.527 . S
C2112 H2175 0.961 . S
C2112 H2176 0.959 . S
C2112 H2177 0.959 . S
C2113 C2110 1.603 . S
C2113 H2178 0.960 . S
C2113 H2179 0.962 . S
C2113 H2180 0.961 . S
C2114 C2081 1.587 . S
C2114 C2115 1.360 . S
C2114 C2127 1.412 . S
C2115 C2114 1.360 . S
C2115 C2116 1.365 . S
C2115 H2181 0.929 . S
C2116 C2091 1.553 . S
C2116 C2115 1.365 . S
C2116 C2117 1.404 . S
C2117 C2116 1.404 . S
C2117 C2118 1.395 . S
C2117 C2128 1.451 . S
C2118 C2117 1.395 . S
C2118 C2119 1.322 . S
C2118 H2182 0.930 . S
C2119 C2118 1.322 . S
C2119 C2120 1.459 . S
C2119 H2183 0.929 . S
C2120 C2119 1.459 . S
C2120 C2121 1.445 . S
C2120 C2129 1.395 . S
C2121 C2099 1.432 . S
C2121 C2120 1.445 . S
C2121 C2122 1.370 . S
C2122 C2121 1.370 . S
C2122 C2123 1.438 . S
C2122 H2184 0.930 . S
C2123 C2109 1.497 . S
C2123 C2122 1.438 . S
C2123 C2124 1.360 . S
C2124 C2123 1.360 . S
C2124 C2125 1.401 . S
C2124 C2129 1.446 . S
C2125 C2124 1.401 . S
C2125 C2126 1.347 . S
C2125 H2185 0.929 . S
C2126 C2125 1.347 . S
C2126 C2127 1.455 . S
C2126 H2186 0.930 . S
C2127 C2114 1.412 . S
C2127 C2126 1.455 . S
C2127 C2128 1.331 . S
C2128 C2117 1.451 . S
C2128 C2127 1.331 . S
C2128 C2129 1.497 . S
C2129 C2120 1.395 . S
C2129 C2124 1.446 . S
C2129 C2128 1.497 . S
C2130 C2131 1.582 . S
C2130 H2187 0.962 . S
C2130 H2188 0.959 . S
C2130 H2189 0.958 . S
C2131 C2130 1.582 . S
C2131 O2134 1.458 . S
C2131 H2160 0.980 . S
O2132 C2077 1.426 . S
O2132 C2078 1.334 . S
O2133 C2105 1.412 . S
O2133 C2106 1.393 . S
O2134 C2096 1.435 . S
O2134 C2131 1.458 . S
O2135 C2087 1.468 . S
O2135 C2088 1.408 . S
H2136 C2077 0.980 . S
H2137 C2076 0.959 . S
H2138 C2076 0.959 . S
H2139 C2076 0.960 . S
H2140 C2079 0.929 . S
H2141 C2083 0.929 . S
H2142 C2084 0.959 . S
H2143 C2084 0.961 . S
H2144 C2084 0.961 . S
H2145 C2085 0.960 . S
H2146 C2085 0.960 . S
H2147 C2085 0.961 . S
H2148 C2087 0.980 . S
H2149 C2086 0.961 . S
H2150 C2086 0.960 . S
H2151 C2086 0.959 . S
H2152 C2089 0.930 . S
H2153 C2093 0.931 . S
H2154 C2094 0.959 . S
H2155 C2094 0.961 . S
H2156 C2094 0.959 . S
H2157 C2095 0.960 . S
H2158 C2095 0.960 . S
H2159 C2095 0.960 . S
H2160 C2131 0.980 . S
H2161 C2097 0.930 . S
H2162 C2101 0.930 . S
H2163 C2102 0.961 . S
H2164 C2102 0.960 . S
H2165 C2102 0.958 . S
H2166 C2103 0.961 . S
H2167 C2103 0.960 . S
H2168 C2103 0.960 . S
H2169 C2105 0.980 . S
H2170 C2104 0.961 . S
H2171 C2104 0.961 . S
H2172 C2104 0.959 . S
H2173 C2107 0.932 . S
H2174 C2111 0.929 . S
H2175 C2112 0.961 . S
H2176 C2112 0.959 . S
H2177 C2112 0.959 . S
H2178 C2113 0.960 . S
H2179 C2113 0.962 . S
H2180 C2113 0.961 . S
H2181 C2115 0.929 . S
H2182 C2118 0.930 . S
H2183 C2119 0.929 . S
H2184 C2122 0.930 . S
H2185 C2125 0.929 . S
H2186 C2126 0.930 . S
H2187 C2130 0.962 . S
H2188 C2130 0.959 . S
H2189 C2130 0.958 . S
C2190 C2191 1.560 . S
C2190 H2251 0.959 . S
C2190 H2252 0.959 . S
C2190 H2253 0.960 . S
C2191 C2190 1.560 . S
C2191 O2246 1.426 . S
C2191 H2250 0.980 . S
C2192 C2193 1.407 . S
C2192 C2197 1.418 . S
C2192 O2246 1.334 . S
C2193 C2192 1.407 . S
C2193 C2194 1.360 . S
C2193 H2254 0.929 . S
C2194 C2193 1.360 . S
C2194 C2195 1.401 . S
C2194 C2198 1.527 . S
C2195 C2194 1.401 . S
C2195 C2196 1.405 . S
C2195 C2228 1.587 . S
C2196 C2195 1.405 . S
C2196 C2197 1.332 . S
C2196 C2199 1.496 . S
C2197 C2192 1.418 . S
C2197 C2196 1.332 . S
C2197 H2255 0.929 . S
C2198 C2194 1.527 . S
C2198 H2256 0.959 . S
C2198 H2257 0.961 . S
C2198 H2258 0.961 . S
C2199 C2196 1.496 . S
C2199 H2259 0.960 . S
C2199 H2260 0.960 . S
C2199 H2261 0.961 . S
C2200 C2201 1.517 . S
C2200 H2263 0.961 . S
C2200 H2264 0.960 . S
C2200 H2265 0.959 . S
C2201 C2200 1.517 . S
C2201 O2249 1.468 . S
C2201 H2262 0.980 . S
C2202 C2203 1.349 . S
C2202 C2207 1.367 . S
C2202 O2249 1.408 . S
C2203 C2202 1.349 . S
C2203 C2204 1.407 . S
C2203 H2266 0.930 . S
C2204 C2203 1.407 . S
C2204 C2205 1.449 . S
C2204 C2208 1.535 . S
C2205 C2204 1.449 . S
C2205 C2206 1.384 . S
C2205 C2230 1.553 . S
C2206 C2205 1.384 . S
C2206 C2207 1.364 . S
C2206 C2209 1.450 . S
C2207 C2202 1.367 . S
C2207 C2206 1.364 . S
C2207 H2267 0.931 . S
C2208 C2204 1.535 . S
C2208 H2268 0.959 . S
C2208 H2269 0.961 . S
C2208 H2270 0.959 . S
C2209 C2206 1.450 . S
C2209 H2271 0.960 . S
C2209 H2272 0.960 . S
C2209 H2273 0.960 . S
C2210 C2211 1.309 . S
C2210 C2215 1.304 . S
C2210 O2248 1.435 . S
C2211 C2210 1.309 . S
C2211 C2212 1.476 . S
C2211 H2275 0.930 . S
C2212 C2211 1.476 . S
C2212 C2213 1.400 . S
C2212 C2216 1.567 . S
C2213 C2212 1.400 . S
C2213 C2214 1.373 . S
C2213 C2235 1.432 . S
C2214 C2213 1.373 . S
C2214 C2215 1.339 . S
C2214 C2217 1.530 . S
C2215 C2210 1.304 . S
C2215 C2214 1.339 . S
C2215 H2276 0.930 . S
C2216 C2212 1.567 . S
C2216 H2277 0.961 . S
C2216 H2278 0.960 . S
C2216 H2279 0.958 . S
C2217 C2214 1.530 . S
C2217 H2280 0.961 . S
C2217 H2281 0.960 . S
C2217 H2282 0.960 . S
C2218 C2219 1.530 . S
C2218 H2284 0.961 . S
C2218 H2285 0.961 . S
C2218 H2286 0.959 . S
C2219 C2218 1.530 . S
C2219 O2247 1.412 . S
C2219 H2283 0.980 . S
C2220 C2221 1.288 . S
C2220 C2225 1.377 . S
C2220 O2247 1.393 . S
C2221 C2220 1.288 . S
C2221 C2222 1.369 . S
C2221 H2287 0.932 . S
C2222 C2221 1.369 . S
C2222 C2223 1.398 . S
C2222 C2226 1.527 . S
C2223 C2222 1.398 . S
C2223 C2224 1.380 . S
C2223 C2237 1.497 . S
C2224 C2223 1.380 . S
C2224 C2225 1.383 . S
C2224 C2227 1.603 . S
C2225 C2220 1.377 . S
C2225 C2224 1.383 . S
C2225 H2288 0.929 . S
C2226 C2222 1.527 . S
C2226 H2289 0.961 . S
C2226 H2290 0.959 . S
C2226 H2291 0.959 . S
C2227 C2224 1.603 . S
C2227 H2292 0.960 . S
C2227 H2293 0.962 . S
C2227 H2294 0.961 . S
C2228 C2195 1.587 . S
C2228 C2229 1.360 . S
C2228 C2241 1.412 . S
C2229 C2228 1.360 . S
C2229 C2230 1.365 . S
C2229 H2295 0.929 . S
C2230 C2205 1.553 . S
C2230 C2229 1.365 . S
C2230 C2231 1.404 . S
C2231 C2230 1.404 . S
C2231 C2232 1.395 . S
C2231 C2242 1.451 . S
C2232 C2231 1.395 . S
C2232 C2233 1.322 . S
C2232 H2296 0.930 . S
C2233 C2232 1.322 . S
C2233 C2234 1.459 . S
C2233 H2297 0.929 . S
C2234 C2233 1.459 . S
C2234 C2235 1.445 . S
C2234 C2243 1.395 . S
C2235 C2213 1.432 . S
C2235 C2234 1.445 . S
C2235 C2236 1.370 . S
C2236 C2235 1.370 . S
C2236 C2237 1.438 . S
C2236 H2298 0.930 . S
C2237 C2223 1.497 . S
C2237 C2236 1.438 . S
C2237 C2238 1.360 . S
C2238 C2237 1.360 . S
C2238 C2239 1.401 . S
C2238 C2243 1.446 . S
C2239 C2238 1.401 . S
C2239 C2240 1.347 . S
C2239 H2299 0.929 . S
C2240 C2239 1.347 . S
C2240 C2241 1.455 . S
C2240 H2300 0.930 . S
C2241 C2228 1.412 . S
C2241 C2240 1.455 . S
C2241 C2242 1.331 . S
C2242 C2231 1.451 . S
C2242 C2241 1.331 . S
C2242 C2243 1.497 . S
C2243 C2234 1.395 . S
C2243 C2238 1.446 . S
C2243 C2242 1.497 . S
C2244 C2245 1.582 . S
C2244 H2301 0.962 . S
C2244 H2302 0.959 . S
C2244 H2303 0.958 . S
C2245 C2244 1.582 . S
C2245 O2248 1.458 . S
C2245 H2274 0.980 . S
O2246 C2191 1.426 . S
O2246 C2192 1.334 . S
O2247 C2219 1.412 . S
O2247 C2220 1.393 . S
O2248 C2210 1.435 . S
O2248 C2245 1.458 . S
O2249 C2201 1.468 . S
O2249 C2202 1.408 . S
H2250 C2191 0.980 . S
H2251 C2190 0.959 . S
H2252 C2190 0.959 . S
H2253 C2190 0.960 . S
H2254 C2193 0.929 . S
H2255 C2197 0.929 . S
H2256 C2198 0.959 . S
H2257 C2198 0.961 . S
H2258 C2198 0.961 . S
H2259 C2199 0.960 . S
H2260 C2199 0.960 . S
H2261 C2199 0.961 . S
H2262 C2201 0.980 . S
H2263 C2200 0.961 . S
H2264 C2200 0.960 . S
H2265 C2200 0.959 . S
H2266 C2203 0.930 . S
H2267 C2207 0.931 . S
H2268 C2208 0.959 . S
H2269 C2208 0.961 . S
H2270 C2208 0.959 . S
H2271 C2209 0.960 . S
H2272 C2209 0.960 . S
H2273 C2209 0.960 . S
H2274 C2245 0.980 . S
H2275 C2211 0.930 . S
H2276 C2215 0.930 . S
H2277 C2216 0.961 . S
H2278 C2216 0.960 . S
H2279 C2216 0.958 . S
H2280 C2217 0.961 . S
H2281 C2217 0.960 . S
H2282 C2217 0.960 . S
H2283 C2219 0.980 . S
H2284 C2218 0.961 . S
H2285 C2218 0.961 . S
H2286 C2218 0.959 . S
H2287 C2221 0.932 . S
H2288 C2225 0.929 . S
H2289 C2226 0.961 . S
H2290 C2226 0.959 . S
H2291 C2226 0.959 . S
H2292 C2227 0.960 . S
H2293 C2227 0.962 . S
H2294 C2227 0.961 . S
H2295 C2229 0.929 . S
H2296 C2232 0.930 . S
H2297 C2233 0.929 . S
H2298 C2236 0.930 . S
H2299 C2239 0.929 . S
H2300 C2240 0.930 . S
H2301 C2244 0.962 . S
H2302 C2244 0.959 . S
H2303 C2244 0.958 . S
C2304 C2305 1.369 . S
C2304 C2306 1.419 . S
C2304 H2308 0.930 . S
C2305 C2304 1.369 . S
C2305 C2314 1.429 1_655 S
C2306 C2304 1.419 . S
C2306 C2307 1.363 . S
C2306 H2309 0.929 . S
C2307 C2306 1.363 . S
C2307 C2313 1.428 1_655 S
H2308 C2304 0.930 . S
H2309 C2306 0.929 . S
S2310 N2311 1.613 . S
S2310 N2312 1.610 . S
N2311 S2310 1.613 . S
N2311 C2314 1.350 . S
N2312 S2310 1.610 . S
N2312 C2313 1.351 . S
C2313 C2307 1.428 1_455 S
C2313 N2312 1.351 . S
C2313 C2314 1.434 . S
C2314 C2305 1.429 1_455 S
C2314 N2311 1.350 . S
C2314 C2313 1.434 . S
C2315 C2316 1.369 . S
C2315 C2317 1.419 . S
C2315 H2319 0.930 . S
C2316 C2315 1.369 . S
C2316 C2325 1.429 . S
C2317 C2315 1.419 . S
C2317 C2318 1.363 . S
C2317 H2320 0.929 . S
C2318 C2317 1.363 . S
C2318 C2324 1.428 . S
H2319 C2315 0.930 . S
H2320 C2317 0.929 . S
S2321 N2322 1.613 . S
S2321 N2323 1.610 . S
N2322 S2321 1.613 . S
N2322 C2325 1.350 . S
N2323 S2321 1.610 . S
N2323 C2324 1.351 . S
C2324 C2318 1.428 . S
C2324 N2323 1.351 . S
C2324 C2325 1.434 . S
C2325 C2316 1.429 . S
C2325 N2322 1.350 . S
C2325 C2324 1.434 . S
C2326 C2327 1.369 1_565 S
C2326 C2328 1.419 . S
C2326 H2330 0.930 . S
C2327 C2326 1.369 1_545 S
C2327 C2336 1.429 . S
C2328 C2326 1.419 . S
C2328 C2329 1.363 1_565 S
C2328 H2331 0.929 . S
C2329 C2328 1.363 1_545 S
C2329 C2335 1.428 . S
H2330 C2326 0.930 . S
H2331 C2328 0.929 . S
S2332 N2333 1.613 . S
S2332 N2334 1.610 . S
N2333 S2332 1.613 . S
N2333 C2336 1.350 . S
N2334 S2332 1.610 . S
N2334 C2335 1.351 . S
C2335 C2329 1.428 . S
C2335 N2334 1.351 . S
C2335 C2336 1.434 . S
C2336 C2327 1.429 . S
C2336 N2333 1.350 . S
C2336 C2335 1.434 . S
C2337 C2338 1.369 . S
C2337 C2339 1.419 . S
C2337 H2341 0.930 . S
C2338 C2337 1.369 . S
C2338 C2347 1.429 . S
C2339 C2337 1.419 . S
C2339 C2340 1.363 . S
C2339 H2342 0.929 . S
C2340 C2339 1.363 . S
C2340 C2346 1.428 . S
H2341 C2337 0.930 . S
H2342 C2339 0.929 . S
S2343 N2344 1.613 . S
S2343 N2345 1.610 . S
N2344 S2343 1.613 . S
N2344 C2347 1.350 . S
N2345 S2343 1.610 . S
N2345 C2346 1.351 . S
C2346 C2340 1.428 . S
C2346 N2345 1.351 . S
C2346 C2347 1.434 . S
C2347 C2338 1.429 . S
C2347 N2344 1.350 . S
C2347 C2346 1.434 . S
C2348 C2349 1.369 1_655 S
C2348 C2350 1.419 . S
C2348 H2352 0.930 . S
C2349 C2348 1.369 1_455 S
C2349 C2358 1.429 . S
C2350 C2348 1.419 . S
C2350 C2351 1.363 1_655 S
C2350 H2353 0.929 . S
C2351 C2350 1.363 1_455 S
C2351 C2357 1.428 . S
H2352 C2348 0.930 . S
H2353 C2350 0.929 . S
S2354 N2355 1.613 . S
S2354 N2356 1.610 . S
N2355 S2354 1.613 . S
N2355 C2358 1.350 . S
N2356 S2354 1.610 . S
N2356 C2357 1.351 . S
C2357 C2351 1.428 . S
C2357 N2356 1.351 . S
C2357 C2358 1.434 . S
C2358 C2349 1.429 . S
C2358 N2355 1.350 . S
C2358 C2357 1.434 . S
C2359 C2360 1.369 . S
C2359 C2361 1.419 . S
C2359 H2363 0.930 . S
C2360 C2359 1.369 . S
C2360 C2369 1.429 . S
C2361 C2359 1.419 . S
C2361 C2362 1.363 . S
C2361 H2364 0.929 . S
C2362 C2361 1.363 . S
C2362 C2368 1.428 . S
H2363 C2359 0.930 . S
H2364 C2361 0.929 . S
S2365 N2366 1.613 . S
S2365 N2367 1.610 . S
N2366 S2365 1.613 . S
N2366 C2369 1.350 . S
N2367 S2365 1.610 . S
N2367 C2368 1.351 . S
C2368 C2362 1.428 . S
C2368 N2367 1.351 . S
C2368 C2369 1.434 . S
C2369 C2360 1.429 . S
C2369 N2366 1.350 . S
C2369 C2368 1.434 . S
C2370 C2371 1.369 1_655 S
C2370 C2372 1.419 . S
C2370 H2374 0.930 . S
C2371 C2370 1.369 1_455 S
C2371 C2380 1.429 . S
C2372 C2370 1.419 . S
C2372 C2373 1.363 1_655 S
C2372 H2375 0.929 . S
C2373 C2372 1.363 1_455 S
C2373 C2379 1.428 . S
H2374 C2370 0.930 . S
H2375 C2372 0.929 . S
S2376 N2377 1.613 . S
S2376 N2378 1.610 . S
N2377 S2376 1.613 . S
N2377 C2380 1.350 . S
N2378 S2376 1.610 . S
N2378 C2379 1.351 . S
C2379 C2373 1.428 . S
C2379 N2378 1.351 . S
C2379 C2380 1.434 . S
C2380 C2371 1.429 . S
C2380 N2377 1.350 . S
C2380 C2379 1.434 . S
C2381 C2382 1.369 . S
C2381 C2383 1.419 . S
C2381 H2385 0.930 . S
C2382 C2381 1.369 . S
C2382 C2391 1.429 . S
C2383 C2381 1.419 . S
C2383 C2384 1.363 . S
C2383 H2386 0.929 . S
C2384 C2383 1.363 . S
C2384 C2390 1.428 . S
H2385 C2381 0.930 . S
H2386 C2383 0.929 . S
S2387 N2388 1.613 . S
S2387 N2389 1.610 . S
N2388 S2387 1.613 . S
N2388 C2391 1.350 . S
N2389 S2387 1.610 . S
N2389 C2390 1.351 . S
C2390 C2384 1.428 . S
C2390 N2389 1.351 . S
C2390 C2391 1.434 . S
C2391 C2382 1.429 . S
C2391 N2388 1.350 . S
C2391 C2390 1.434 . S
C2392 C2393 1.369 . S
C2392 C2394 1.419 . S
C2392 H2396 0.930 . S
C2393 C2392 1.369 . S
C2393 C2402 1.429 1_565 S
C2394 C2392 1.419 . S
C2394 C2395 1.363 . S
C2394 H2397 0.929 . S
C2395 C2394 1.363 . S
C2395 C2401 1.428 1_565 S
H2396 C2392 0.930 . S
H2397 C2394 0.929 . S
S2398 N2399 1.613 . S
S2398 N2400 1.610 . S
N2399 S2398 1.613 . S
N2399 C2402 1.350 . S
N2400 S2398 1.610 . S
N2400 C2401 1.351 . S
C2401 C2395 1.428 1_545 S
C2401 N2400 1.351 . S
C2401 C2402 1.434 . S
C2402 C2393 1.429 1_545 S
C2402 N2399 1.350 . S
C2402 C2401 1.434 . S
C2403 C2404 1.369 1_565 S
C2403 C2405 1.419 . S
C2403 H2407 0.930 . S
C2404 C2403 1.369 1_545 S
C2404 C2413 1.429 . S
C2405 C2403 1.419 . S
C2405 C2406 1.363 1_565 S
C2405 H2408 0.929 . S
C2406 C2405 1.363 1_545 S
C2406 C2412 1.428 . S
H2407 C2403 0.930 . S
H2408 C2405 0.929 . S
S2409 N2410 1.613 . S
S2409 N2411 1.610 . S
N2410 S2409 1.613 . S
N2410 C2413 1.350 . S
N2411 S2409 1.610 . S
N2411 C2412 1.351 . S
C2412 C2406 1.428 . S
C2412 N2411 1.351 . S
C2412 C2413 1.434 . S
C2413 C2404 1.429 . S
C2413 N2410 1.350 . S
C2413 C2412 1.434 . S
C2414 C2415 1.369 1_455 S
C2414 C2416 1.419 . S
C2414 H2418 0.930 . S
C2415 C2414 1.369 1_655 S
C2415 C2424 1.429 . S
C2416 C2414 1.419 . S
C2416 C2417 1.363 1_455 S
C2416 H2419 0.929 . S
C2417 C2416 1.363 1_655 S
C2417 C2423 1.428 . S
H2418 C2414 0.930 . S
H2419 C2416 0.929 . S
S2420 N2421 1.613 . S
S2420 N2422 1.610 . S
N2421 S2420 1.613 . S
N2421 C2424 1.350 . S
N2422 S2420 1.610 . S
N2422 C2423 1.351 . S
C2423 C2417 1.428 . S
C2423 N2422 1.351 . S
C2423 C2424 1.434 . S
C2424 C2415 1.429 . S
C2424 N2421 1.350 . S
C2424 C2423 1.434 . S
C2425 C2426 1.369 . S
C2425 C2427 1.419 . S
C2425 H2429 0.930 . S
C2426 C2425 1.369 . S
C2426 C2435 1.429 . S
C2427 C2425 1.419 . S
C2427 C2428 1.363 . S
C2427 H2430 0.929 . S
C2428 C2427 1.363 . S
C2428 C2434 1.428 . S
H2429 C2425 0.930 . S
H2430 C2427 0.929 . S
S2431 N2432 1.613 . S
S2431 N2433 1.610 . S
N2432 S2431 1.613 . S
N2432 C2435 1.350 . S
N2433 S2431 1.610 . S
N2433 C2434 1.351 . S
C2434 C2428 1.428 . S
C2434 N2433 1.351 . S
C2434 C2435 1.434 . S
C2435 C2426 1.429 . S
C2435 N2432 1.350 . S
C2435 C2434 1.434 . S
C2436 C2437 1.369 . S
C2436 C2438 1.419 . S
C2436 H2440 0.930 . S
C2437 C2436 1.369 . S
C2437 C2446 1.429 . S
C2438 C2436 1.419 . S
C2438 C2439 1.363 . S
C2438 H2441 0.929 . S
C2439 C2438 1.363 . S
C2439 C2445 1.428 . S
H2440 C2436 0.930 . S
H2441 C2438 0.929 . S
S2442 N2443 1.613 . S
S2442 N2444 1.610 . S
N2443 S2442 1.613 . S
N2443 C2446 1.350 . S
N2444 S2442 1.610 . S
N2444 C2445 1.351 . S
C2445 C2439 1.428 . S
C2445 N2444 1.351 . S
C2445 C2446 1.434 . S
C2446 C2437 1.429 . S
C2446 N2443 1.350 . S
C2446 C2445 1.434 . S
C2447 C2448 1.369 . S
C2447 C2449 1.419 . S
C2447 H2451 0.930 . S
C2448 C2447 1.369 . S
C2448 C2457 1.429 . S
C2449 C2447 1.419 . S
C2449 C2450 1.363 . S
C2449 H2452 0.929 . S
C2450 C2449 1.363 . S
C2450 C2456 1.428 . S
H2451 C2447 0.930 . S
H2452 C2449 0.929 . S
S2453 N2454 1.613 . S
S2453 N2455 1.610 . S
N2454 S2453 1.613 . S
N2454 C2457 1.350 . S
N2455 S2453 1.610 . S
N2455 C2456 1.351 . S
C2456 C2450 1.428 . S
C2456 N2455 1.351 . S
C2456 C2457 1.434 . S
C2457 C2448 1.429 . S
C2457 N2454 1.350 . S
C2457 C2456 1.434 . S
C2458 C2459 1.369 . S
C2458 C2460 1.419 . S
C2458 H2462 0.930 . S
C2459 C2458 1.369 . S
C2459 C2468 1.429 . S
C2460 C2458 1.419 . S
C2460 C2461 1.363 . S
C2460 H2463 0.929 . S
C2461 C2460 1.363 . S
C2461 C2467 1.428 . S
H2462 C2458 0.930 . S
H2463 C2460 0.929 . S
S2464 N2465 1.613 . S
S2464 N2466 1.610 . S
N2465 S2464 1.613 . S
N2465 C2468 1.350 . S
N2466 S2464 1.610 . S
N2466 C2467 1.351 . S
C2467 C2461 1.428 . S
C2467 N2466 1.351 . S
C2467 C2468 1.434 . S
C2468 C2459 1.429 . S
C2468 N2465 1.350 . S
C2468 C2467 1.434 . S
C2469 C2470 1.369 . S
C2469 C2471 1.419 . S
C2469 H2473 0.930 . S
C2470 C2469 1.369 . S
C2470 C2479 1.429 . S
C2471 C2469 1.419 . S
C2471 C2472 1.363 . S
C2471 H2474 0.929 . S
C2472 C2471 1.363 . S
C2472 C2478 1.428 . S
H2473 C2469 0.930 . S
H2474 C2471 0.929 . S
S2475 N2476 1.613 . S
S2475 N2477 1.610 . S
N2476 S2475 1.613 . S
N2476 C2479 1.350 . S
N2477 S2475 1.610 . S
N2477 C2478 1.351 . S
C2478 C2472 1.428 . S
C2478 N2477 1.351 . S
C2478 C2479 1.434 . S
C2479 C2470 1.429 . S
C2479 N2476 1.350 . S
C2479 C2478 1.434 . S
C2480 C2481 1.369 . S
C2480 C2482 1.419 . S
C2480 H2484 0.930 . S
C2481 C2480 1.369 . S
C2481 C2490 1.429 . S
C2482 C2480 1.419 . S
C2482 C2483 1.363 . S
C2482 H2485 0.929 . S
C2483 C2482 1.363 . S
C2483 C2489 1.428 . S
H2484 C2480 0.930 . S
H2485 C2482 0.929 . S
S2486 N2487 1.613 . S
S2486 N2488 1.610 . S
N2487 S2486 1.613 . S
N2487 C2490 1.350 . S
N2488 S2486 1.610 . S
N2488 C2489 1.351 . S
C2489 C2483 1.428 . S
C2489 N2488 1.351 . S
C2489 C2490 1.434 . S
C2490 C2481 1.429 . S
C2490 N2487 1.350 . S
C2490 C2489 1.434 . S
C2491 C2492 1.369 . S
C2491 C2493 1.419 . S
C2491 H2495 0.930 . S
C2492 C2491 1.369 . S
C2492 C2501 1.429 . S
C2493 C2491 1.419 . S
C2493 C2494 1.363 . S
C2493 H2496 0.929 . S
C2494 C2493 1.363 . S
C2494 C2500 1.428 . S
H2495 C2491 0.930 . S
H2496 C2493 0.929 . S
S2497 N2498 1.613 . S
S2497 N2499 1.610 . S
N2498 S2497 1.613 . S
N2498 C2501 1.350 . S
N2499 S2497 1.610 . S
N2499 C2500 1.351 . S
C2500 C2494 1.428 . S
C2500 N2499 1.351 . S
C2500 C2501 1.434 . S
C2501 C2492 1.429 . S
C2501 N2498 1.350 . S
C2501 C2500 1.434 . S
C2502 C2503 1.369 . S
C2502 C2504 1.419 . S
C2502 H2506 0.930 . S
C2503 C2502 1.369 . S
C2503 C2512 1.429 . S
C2504 C2502 1.419 . S
C2504 C2505 1.363 . S
C2504 H2507 0.929 . S
C2505 C2504 1.363 . S
C2505 C2511 1.428 . S
H2506 C2502 0.930 . S
H2507 C2504 0.929 . S
S2508 N2509 1.613 . S
S2508 N2510 1.610 . S
N2509 S2508 1.613 . S
N2509 C2512 1.350 . S
N2510 S2508 1.610 . S
N2510 C2511 1.351 . S
C2511 C2505 1.428 . S
C2511 N2510 1.351 . S
C2511 C2512 1.434 . S
C2512 C2503 1.429 . S
C2512 N2509 1.350 . S
C2512 C2511 1.434 . S
C2513 C2514 1.369 . S
C2513 C2515 1.419 . S
C2513 H2517 0.930 . S
C2514 C2513 1.369 . S
C2514 C2523 1.429 . S
C2515 C2513 1.419 . S
C2515 C2516 1.363 . S
C2515 H2518 0.929 . S
C2516 C2515 1.363 . S
C2516 C2522 1.428 . S
H2517 C2513 0.930 . S
H2518 C2515 0.929 . S
S2519 N2520 1.613 . S
S2519 N2521 1.610 . S
N2520 S2519 1.613 . S
N2520 C2523 1.350 . S
N2521 S2519 1.610 . S
N2521 C2522 1.351 . S
C2522 C2516 1.428 . S
C2522 N2521 1.351 . S
C2522 C2523 1.434 . S
C2523 C2514 1.429 . S
C2523 N2520 1.350 . S
C2523 C2522 1.434 . S
C2524 C2525 1.369 . S
C2524 C2526 1.419 . S
C2524 H2528 0.930 . S
C2525 C2524 1.369 . S
C2525 C2534 1.429 . S
C2526 C2524 1.419 . S
C2526 C2527 1.363 . S
C2526 H2529 0.929 . S
C2527 C2526 1.363 . S
C2527 C2533 1.428 . S
H2528 C2524 0.930 . S
H2529 C2526 0.929 . S
S2530 N2531 1.613 . S
S2530 N2532 1.610 . S
N2531 S2530 1.613 . S
N2531 C2534 1.350 . S
N2532 S2530 1.610 . S
N2532 C2533 1.351 . S
C2533 C2527 1.428 . S
C2533 N2532 1.351 . S
C2533 C2534 1.434 . S
C2534 C2525 1.429 . S
C2534 N2531 1.350 . S
C2534 C2533 1.434 . S
C2535 C2536 1.369 . S
C2535 C2537 1.419 . S
C2535 H2539 0.930 . S
C2536 C2535 1.369 . S
C2536 C2545 1.429 . S
C2537 C2535 1.419 . S
C2537 C2538 1.363 . S
C2537 H2540 0.929 . S
C2538 C2537 1.363 . S
C2538 C2544 1.428 . S
H2539 C2535 0.930 . S
H2540 C2537 0.929 . S
S2541 N2542 1.613 . S
S2541 N2543 1.610 . S
N2542 S2541 1.613 . S
N2542 C2545 1.350 . S
N2543 S2541 1.610 . S
N2543 C2544 1.351 . S
C2544 C2538 1.428 . S
C2544 N2543 1.351 . S
C2544 C2545 1.434 . S
C2545 C2536 1.429 . S
C2545 N2542 1.350 . S
C2545 C2544 1.434 . S
C2546 C2547 1.369 . S
C2546 C2548 1.419 . S
C2546 H2550 0.930 . S
C2547 C2546 1.369 . S
C2547 C2556 1.429 . S
C2548 C2546 1.419 . S
C2548 C2549 1.363 . S
C2548 H2551 0.929 . S
C2549 C2548 1.363 . S
C2549 C2555 1.428 . S
H2550 C2546 0.930 . S
H2551 C2548 0.929 . S
S2552 N2553 1.613 . S
S2552 N2554 1.610 . S
N2553 S2552 1.613 . S
N2553 C2556 1.350 . S
N2554 S2552 1.610 . S
N2554 C2555 1.351 . S
C2555 C2549 1.428 . S
C2555 N2554 1.351 . S
C2555 C2556 1.434 . S
C2556 C2547 1.429 . S
C2556 N2553 1.350 . S
C2556 C2555 1.434 . S
C2557 C2558 1.369 . S
C2557 C2559 1.419 . S
C2557 H2561 0.930 . S
C2558 C2557 1.369 . S
C2558 C2567 1.429 . S
C2559 C2557 1.419 . S
C2559 C2560 1.363 . S
C2559 H2562 0.929 . S
C2560 C2559 1.363 . S
C2560 C2566 1.428 . S
H2561 C2557 0.930 . S
H2562 C2559 0.929 . S
S2563 N2564 1.613 . S
S2563 N2565 1.610 . S
N2564 S2563 1.613 . S
N2564 C2567 1.350 . S
N2565 S2563 1.610 . S
N2565 C2566 1.351 . S
C2566 C2560 1.428 . S
C2566 N2565 1.351 . S
C2566 C2567 1.434 . S
C2567 C2558 1.429 . S
C2567 N2564 1.350 . S
C2567 C2566 1.434 . S
C2568 C2569 1.369 . S
C2568 C2570 1.419 . S
C2568 H2572 0.930 . S
C2569 C2568 1.369 . S
C2569 C2578 1.429 . S
C2570 C2568 1.419 . S
C2570 C2571 1.363 . S
C2570 H2573 0.929 . S
C2571 C2570 1.363 . S
C2571 C2577 1.428 . S
H2572 C2568 0.930 . S
H2573 C2570 0.929 . S
S2574 N2575 1.613 . S
S2574 N2576 1.610 . S
N2575 S2574 1.613 . S
N2575 C2578 1.350 . S
N2576 S2574 1.610 . S
N2576 C2577 1.351 . S
C2577 C2571 1.428 . S
C2577 N2576 1.351 . S
C2577 C2578 1.434 . S
C2578 C2569 1.429 . S
C2578 N2575 1.350 . S
C2578 C2577 1.434 . S
C2579 C2580 1.369 . S
C2579 C2581 1.419 . S
C2579 H2583 0.930 . S
C2580 C2579 1.369 . S
C2580 C2589 1.429 . S
C2581 C2579 1.419 . S
C2581 C2582 1.363 . S
C2581 H2584 0.929 . S
C2582 C2581 1.363 . S
C2582 C2588 1.428 . S
H2583 C2579 0.930 . S
H2584 C2581 0.929 . S
S2585 N2586 1.613 . S
S2585 N2587 1.610 . S
N2586 S2585 1.613 . S
N2586 C2589 1.350 . S
N2587 S2585 1.610 . S
N2587 C2588 1.351 . S
C2588 C2582 1.428 . S
C2588 N2587 1.351 . S
C2588 C2589 1.434 . S
C2589 C2580 1.429 . S
C2589 N2586 1.350 . S
C2589 C2588 1.434 . S
C2590 C2591 1.369 . S
C2590 C2592 1.419 . S
C2590 H2594 0.930 . S
C2591 C2590 1.369 . S
C2591 C2600 1.429 . S
C2592 C2590 1.419 . S
C2592 C2593 1.363 . S
C2592 H2595 0.929 . S
C2593 C2592 1.363 . S
C2593 C2599 1.428 . S
H2594 C2590 0.930 . S
H2595 C2592 0.929 . S
S2596 N2597 1.613 . S
S2596 N2598 1.610 . S
N2597 S2596 1.613 . S
N2597 C2600 1.350 . S
N2598 S2596 1.610 . S
N2598 C2599 1.351 . S
C2599 C2593 1.428 . S
C2599 N2598 1.351 . S
C2599 C2600 1.434 . S
C2600 C2591 1.429 . S
C2600 N2597 1.350 . S
C2600 C2599 1.434 . S
C2601 C2602 1.369 . S
C2601 C2603 1.419 . S
C2601 H2605 0.930 . S
C2602 C2601 1.369 . S
C2602 C2611 1.429 . S
C2603 C2601 1.419 . S
C2603 C2604 1.363 . S
C2603 H2606 0.929 . S
C2604 C2603 1.363 . S
C2604 C2610 1.428 . S
H2605 C2601 0.930 . S
H2606 C2603 0.929 . S
S2607 N2608 1.613 . S
S2607 N2609 1.610 . S
N2608 S2607 1.613 . S
N2608 C2611 1.350 . S
N2609 S2607 1.610 . S
N2609 C2610 1.351 . S
C2610 C2604 1.428 . S
C2610 N2609 1.351 . S
C2610 C2611 1.434 . S
C2611 C2602 1.429 . S
C2611 N2608 1.350 . S
C2611 C2610 1.434 . S
C2612 C2613 1.369 . S
C2612 C2614 1.419 . S
C2612 H2616 0.930 . S
C2613 C2612 1.369 . S
C2613 C2622 1.429 . S
C2614 C2612 1.419 . S
C2614 C2615 1.363 . S
C2614 H2617 0.929 . S
C2615 C2614 1.363 . S
C2615 C2621 1.428 . S
H2616 C2612 0.930 . S
H2617 C2614 0.929 . S
S2618 N2619 1.613 . S
S2618 N2620 1.610 . S
N2619 S2618 1.613 . S
N2619 C2622 1.350 . S
N2620 S2618 1.610 . S
N2620 C2621 1.351 . S
C2621 C2615 1.428 . S
C2621 N2620 1.351 . S
C2621 C2622 1.434 . S
C2622 C2613 1.429 . S
C2622 N2619 1.350 . S
C2622 C2621 1.434 . S
C2623 C2624 1.369 . S
C2623 C2625 1.419 . S
C2623 H2627 0.930 . S
C2624 C2623 1.369 . S
C2624 C2633 1.429 . S
C2625 C2623 1.419 . S
C2625 C2626 1.363 . S
C2625 H2628 0.929 . S
C2626 C2625 1.363 . S
C2626 C2632 1.428 . S
H2627 C2623 0.930 . S
H2628 C2625 0.929 . S
S2629 N2630 1.613 . S
S2629 N2631 1.610 . S
N2630 S2629 1.613 . S
N2630 C2633 1.350 . S
N2631 S2629 1.610 . S
N2631 C2632 1.351 . S
C2632 C2626 1.428 . S
C2632 N2631 1.351 . S
C2632 C2633 1.434 . S
C2633 C2624 1.429 . S
C2633 N2630 1.350 . S
C2633 C2632 1.434 . S
C2634 C2635 1.369 . S
C2634 C2636 1.419 . S
C2634 H2638 0.930 . S
C2635 C2634 1.369 . S
C2635 C2644 1.429 . S
C2636 C2634 1.419 . S
C2636 C2637 1.363 . S
C2636 H2639 0.929 . S
C2637 C2636 1.363 . S
C2637 C2643 1.428 . S
H2638 C2634 0.930 . S
H2639 C2636 0.929 . S
S2640 N2641 1.613 . S
S2640 N2642 1.610 . S
N2641 S2640 1.613 . S
N2641 C2644 1.350 . S
N2642 S2640 1.610 . S
N2642 C2643 1.351 . S
C2643 C2637 1.428 . S
C2643 N2642 1.351 . S
C2643 C2644 1.434 . S
C2644 C2635 1.429 . S
C2644 N2641 1.350 . S
C2644 C2643 1.434 . S
C2645 C2646 1.369 . S
C2645 C2647 1.419 . S
C2645 H2649 0.930 . S
C2646 C2645 1.369 . S
C2646 C2655 1.429 . S
C2647 C2645 1.419 . S
C2647 C2648 1.363 . S
C2647 H2650 0.929 . S
C2648 C2647 1.363 . S
C2648 C2654 1.428 . S
H2649 C2645 0.930 . S
H2650 C2647 0.929 . S
S2651 N2652 1.613 . S
S2651 N2653 1.610 . S
N2652 S2651 1.613 . S
N2652 C2655 1.350 . S
N2653 S2651 1.610 . S
N2653 C2654 1.351 . S
C2654 C2648 1.428 . S
C2654 N2653 1.351 . S
C2654 C2655 1.434 . S
C2655 C2646 1.429 . S
C2655 N2652 1.350 . S
C2655 C2654 1.434 . S
C2656 C2657 1.369 . S
C2656 C2658 1.419 . S
C2656 H2660 0.930 . S
C2657 C2656 1.369 . S
C2657 C2666 1.429 . S
C2658 C2656 1.419 . S
C2658 C2659 1.363 . S
C2658 H2661 0.929 . S
C2659 C2658 1.363 . S
C2659 C2665 1.428 . S
H2660 C2656 0.930 . S
H2661 C2658 0.929 . S
S2662 N2663 1.613 . S
S2662 N2664 1.610 . S
N2663 S2662 1.613 . S
N2663 C2666 1.350 . S
N2664 S2662 1.610 . S
N2664 C2665 1.351 . S
C2665 C2659 1.428 . S
C2665 N2664 1.351 . S
C2665 C2666 1.434 . S
C2666 C2657 1.429 . S
C2666 N2663 1.350 . S
C2666 C2665 1.434 . S
C2667 C2668 1.369 . S
C2667 C2669 1.419 . S
C2667 H2671 0.930 . S
C2668 C2667 1.369 . S
C2668 C2677 1.429 . S
C2669 C2667 1.419 . S
C2669 C2670 1.363 . S
C2669 H2672 0.929 . S
C2670 C2669 1.363 . S
C2670 C2676 1.428 . S
H2671 C2667 0.930 . S
H2672 C2669 0.929 . S
S2673 N2674 1.613 . S
S2673 N2675 1.610 . S
N2674 S2673 1.613 . S
N2674 C2677 1.350 . S
N2675 S2673 1.610 . S
N2675 C2676 1.351 . S
C2676 C2670 1.428 . S
C2676 N2675 1.351 . S
C2676 C2677 1.434 . S
C2677 C2668 1.429 . S
C2677 N2674 1.350 . S
C2677 C2676 1.434 . S
C2678 C2679 1.369 . S
C2678 C2680 1.419 . S
C2678 H2682 0.930 . S
C2679 C2678 1.369 . S
C2679 C2688 1.429 . S
C2680 C2678 1.419 . S
C2680 C2681 1.363 . S
C2680 H2683 0.929 . S
C2681 C2680 1.363 . S
C2681 C2687 1.428 . S
H2682 C2678 0.930 . S
H2683 C2680 0.929 . S
S2684 N2685 1.613 . S
S2684 N2686 1.610 . S
N2685 S2684 1.613 . S
N2685 C2688 1.350 . S
N2686 S2684 1.610 . S
N2686 C2687 1.351 . S
C2687 C2681 1.428 . S
C2687 N2686 1.351 . S
C2687 C2688 1.434 . S
C2688 C2679 1.429 . S
C2688 N2685 1.350 . S
C2688 C2687 1.434 . S
C2689 C2690 1.369 . S
C2689 C2691 1.419 . S
C2689 H2693 0.930 . S
C2690 C2689 1.369 . S
C2690 C2699 1.429 . S
C2691 C2689 1.419 . S
C2691 C2692 1.363 . S
C2691 H2694 0.929 . S
C2692 C2691 1.363 . S
C2692 C2698 1.428 . S
H2693 C2689 0.930 . S
H2694 C2691 0.929 . S
S2695 N2696 1.613 . S
S2695 N2697 1.610 . S
N2696 S2695 1.613 . S
N2696 C2699 1.350 . S
N2697 S2695 1.610 . S
N2697 C2698 1.351 . S
C2698 C2692 1.428 . S
C2698 N2697 1.351 . S
C2698 C2699 1.434 . S
C2699 C2690 1.429 . S
C2699 N2696 1.350 . S
C2699 C2698 1.434 . S
C2700 C2701 1.369 . S
C2700 C2702 1.419 . S
C2700 H2704 0.930 . S
C2701 C2700 1.369 . S
C2701 C2710 1.429 . S
C2702 C2700 1.419 . S
C2702 C2703 1.363 . S
C2702 H2705 0.929 . S
C2703 C2702 1.363 . S
C2703 C2709 1.428 . S
H2704 C2700 0.930 . S
H2705 C2702 0.929 . S
S2706 N2707 1.613 . S
S2706 N2708 1.610 . S
N2707 S2706 1.613 . S
N2707 C2710 1.350 . S
N2708 S2706 1.610 . S
N2708 C2709 1.351 . S
C2709 C2703 1.428 . S
C2709 N2708 1.351 . S
C2709 C2710 1.434 . S
C2710 C2701 1.429 . S
C2710 N2707 1.350 . S
C2710 C2709 1.434 . S
C2711 C2712 1.369 . S
C2711 C2713 1.419 . S
C2711 H2715 0.930 . S
C2712 C2711 1.369 . S
C2712 C2721 1.429 . S
C2713 C2711 1.419 . S
C2713 C2714 1.363 . S
C2713 H2716 0.929 . S
C2714 C2713 1.363 . S
C2714 C2720 1.428 . S
H2715 C2711 0.930 . S
H2716 C2713 0.929 . S
S2717 N2718 1.613 . S
S2717 N2719 1.610 . S
N2718 S2717 1.613 . S
N2718 C2721 1.350 . S
N2719 S2717 1.610 . S
N2719 C2720 1.351 . S
C2720 C2714 1.428 . S
C2720 N2719 1.351 . S
C2720 C2721 1.434 . S
C2721 C2712 1.429 . S
C2721 N2718 1.350 . S
C2721 C2720 1.434 . S
C2722 C2723 1.369 . S
C2722 C2724 1.419 . S
C2722 H2726 0.930 . S
C2723 C2722 1.369 . S
C2723 C2732 1.429 . S
C2724 C2722 1.419 . S
C2724 C2725 1.363 . S
C2724 H2727 0.929 . S
C2725 C2724 1.363 . S
C2725 C2731 1.428 . S
H2726 C2722 0.930 . S
H2727 C2724 0.929 . S
S2728 N2729 1.613 . S
S2728 N2730 1.610 . S
N2729 S2728 1.613 . S
N2729 C2732 1.350 . S
N2730 S2728 1.610 . S
N2730 C2731 1.351 . S
C2731 C2725 1.428 . S
C2731 N2730 1.351 . S
C2731 C2732 1.434 . S
C2732 C2723 1.429 . S
C2732 N2729 1.350 . S
C2732 C2731 1.434 . S
C2733 C2734 1.369 . S
C2733 C2735 1.419 . S
C2733 H2737 0.930 . S
C2734 C2733 1.369 . S
C2734 C2743 1.429 . S
C2735 C2733 1.419 . S
C2735 C2736 1.363 . S
C2735 H2738 0.929 . S
C2736 C2735 1.363 . S
C2736 C2742 1.428 . S
H2737 C2733 0.930 . S
H2738 C2735 0.929 . S
S2739 N2740 1.613 . S
S2739 N2741 1.610 . S
N2740 S2739 1.613 . S
N2740 C2743 1.350 . S
N2741 S2739 1.610 . S
N2741 C2742 1.351 . S
C2742 C2736 1.428 . S
C2742 N2741 1.351 . S
C2742 C2743 1.434 . S
C2743 C2734 1.429 . S
C2743 N2740 1.350 . S
C2743 C2742 1.434 . S
C2744 C2745 1.369 . S
C2744 C2746 1.419 . S
C2744 H2748 0.930 . S
C2745 C2744 1.369 . S
C2745 C2754 1.429 . S
C2746 C2744 1.419 . S
C2746 C2747 1.363 . S
C2746 H2749 0.929 . S
C2747 C2746 1.363 . S
C2747 C2753 1.428 . S
H2748 C2744 0.930 . S
H2749 C2746 0.929 . S
S2750 N2751 1.581 1_455 S
S2750 N2752 1.585 1_455 S
N2751 S2750 1.581 1_655 S
N2751 C2754 1.350 . S
N2752 S2750 1.585 1_655 S
N2752 C2753 1.351 . S
C2753 C2747 1.428 . S
C2753 N2752 1.351 . S
C2753 C2754 1.434 . S
C2754 C2745 1.429 . S
C2754 N2751 1.350 . S
C2754 C2753 1.434 . S
C2755 C2756 1.369 . S
C2755 C2757 1.419 . S
C2755 H2759 0.930 . S
C2756 C2755 1.369 . S
C2756 C2765 1.429 . S
C2757 C2755 1.419 . S
C2757 C2758 1.363 . S
C2757 H2760 0.929 . S
C2758 C2757 1.363 . S
C2758 C2764 1.428 . S
H2759 C2755 0.930 . S
H2760 C2757 0.929 . S
S2761 N2762 1.613 . S
S2761 N2763 1.610 . S
N2762 S2761 1.613 . S
N2762 C2765 1.350 . S
N2763 S2761 1.610 . S
N2763 C2764 1.351 . S
C2764 C2758 1.428 . S
C2764 N2763 1.351 . S
C2764 C2765 1.434 . S
C2765 C2756 1.429 . S
C2765 N2762 1.350 . S
C2765 C2764 1.434 . S
C2766 C2767 1.369 . S
C2766 C2768 1.419 . S
C2766 H2770 0.930 . S
C2767 C2766 1.369 . S
C2767 C2776 1.429 . S
C2768 C2766 1.419 . S
C2768 C2769 1.363 . S
C2768 H2771 0.929 . S
C2769 C2768 1.363 . S
C2769 C2775 1.428 . S
H2770 C2766 0.930 . S
H2771 C2768 0.929 . S
S2772 N2773 1.613 . S
S2772 N2774 1.610 . S
N2773 S2772 1.613 . S
N2773 C2776 1.350 . S
N2774 S2772 1.610 . S
N2774 C2775 1.351 . S
C2775 C2769 1.428 . S
C2775 N2774 1.351 . S
C2775 C2776 1.434 . S
C2776 C2767 1.429 . S
C2776 N2773 1.350 . S
C2776 C2775 1.434 . S
C2777 C2778 1.369 . S
C2777 C2779 1.419 . S
C2777 H2781 0.930 . S
C2778 C2777 1.369 . S
C2778 C2787 1.429 . S
C2779 C2777 1.419 . S
C2779 C2780 1.363 . S
C2779 H2782 0.929 . S
C2780 C2779 1.363 . S
C2780 C2786 1.428 . S
H2781 C2777 0.930 . S
H2782 C2779 0.929 . S
S2783 N2784 1.613 . S
S2783 N2785 1.610 . S
N2784 S2783 1.613 . S
N2784 C2787 1.350 . S
N2785 S2783 1.610 . S
N2785 C2786 1.351 . S
C2786 C2780 1.428 . S
C2786 N2785 1.351 . S
C2786 C2787 1.434 . S
C2787 C2778 1.429 . S
C2787 N2784 1.350 . S
C2787 C2786 1.434 . S
C2788 C2789 1.369 . S
C2788 C2790 1.419 . S
C2788 H2792 0.930 . S
C2789 C2788 1.369 . S
C2789 C2798 1.429 . S
C2790 C2788 1.419 . S
C2790 C2791 1.363 . S
C2790 H2793 0.929 . S
C2791 C2790 1.363 . S
C2791 C2797 1.428 . S
H2792 C2788 0.930 . S
H2793 C2790 0.929 . S
S2794 N2795 1.613 . S
S2794 N2796 1.610 . S
N2795 S2794 1.613 . S
N2795 C2798 1.350 . S
N2796 S2794 1.610 . S
N2796 C2797 1.351 . S
C2797 C2791 1.428 . S
C2797 N2796 1.351 . S
C2797 C2798 1.434 . S
C2798 C2789 1.429 . S
C2798 N2795 1.350 . S
C2798 C2797 1.434 . S
C2799 C2800 1.369 . S
C2799 C2801 1.419 . S
C2799 H2803 0.930 . S
C2800 C2799 1.369 . S
C2800 C2809 1.429 . S
C2801 C2799 1.419 . S
C2801 C2802 1.363 . S
C2801 H2804 0.929 . S
C2802 C2801 1.363 . S
C2802 C2808 1.428 . S
H2803 C2799 0.930 . S
H2804 C2801 0.929 . S
S2805 N2806 1.613 . S
S2805 N2807 1.610 . S
N2806 S2805 1.613 . S
N2806 C2809 1.350 . S
N2807 S2805 1.610 . S
N2807 C2808 1.351 . S
C2808 C2802 1.428 . S
C2808 N2807 1.351 . S
C2808 C2809 1.434 . S
C2809 C2800 1.429 . S
C2809 N2806 1.350 . S
C2809 C2808 1.434 . S
C2810 C2811 1.369 . S
C2810 C2812 1.419 . S
C2810 H2814 0.930 . S
C2811 C2810 1.369 . S
C2811 C2820 1.429 . S
C2812 C2810 1.419 . S
C2812 C2813 1.363 . S
C2812 H2815 0.929 . S
C2813 C2812 1.363 . S
C2813 C2819 1.428 . S
H2814 C2810 0.930 . S
H2815 C2812 0.929 . S
S2816 N2817 1.613 . S
S2816 N2818 1.610 . S
N2817 S2816 1.613 . S
N2817 C2820 1.350 . S
N2818 S2816 1.610 . S
N2818 C2819 1.351 . S
C2819 C2813 1.428 . S
C2819 N2818 1.351 . S
C2819 C2820 1.434 . S
C2820 C2811 1.429 . S
C2820 N2817 1.350 . S
C2820 C2819 1.434 . S
C2821 C2822 1.369 . S
C2821 C2823 1.419 . S
C2821 H2825 0.930 . S
C2822 C2821 1.369 . S
C2822 C2831 1.429 . S
C2823 C2821 1.419 . S
C2823 C2824 1.363 . S
C2823 H2826 0.929 . S
C2824 C2823 1.363 . S
C2824 C2830 1.428 . S
H2825 C2821 0.930 . S
H2826 C2823 0.929 . S
S2827 N2828 1.613 . S
S2827 N2829 1.610 . S
N2828 S2827 1.613 . S
N2828 C2831 1.350 . S
N2829 S2827 1.610 . S
N2829 C2830 1.351 . S
C2830 C2824 1.428 . S
C2830 N2829 1.351 . S
C2830 C2831 1.434 . S
C2831 C2822 1.429 . S
C2831 N2828 1.350 . S
C2831 C2830 1.434 . S
C2832 C2833 1.369 . S
C2832 C2834 1.419 . S
C2832 H2836 0.930 . S
C2833 C2832 1.369 . S
C2833 C2842 1.429 . S
C2834 C2832 1.419 . S
C2834 C2835 1.363 . S
C2834 H2837 0.929 . S
C2835 C2834 1.363 . S
C2835 C2841 1.428 . S
H2836 C2832 0.930 . S
H2837 C2834 0.929 . S
S2838 N2839 1.613 . S
S2838 N2840 1.610 . S
N2839 S2838 1.613 . S
N2839 C2842 1.350 . S
N2840 S2838 1.610 . S
N2840 C2841 1.351 . S
C2841 C2835 1.428 . S
C2841 N2840 1.351 . S
C2841 C2842 1.434 . S
C2842 C2833 1.429 . S
C2842 N2839 1.350 . S
C2842 C2841 1.434 . S
C2843 C2844 1.369 . S
C2843 C2845 1.419 . S
C2843 H2847 0.930 . S
C2844 C2843 1.369 . S
C2844 C2853 1.429 . S
C2845 C2843 1.419 . S
C2845 C2846 1.363 . S
C2845 H2848 0.929 . S
C2846 C2845 1.363 . S
C2846 C2852 1.428 . S
H2847 C2843 0.930 . S
H2848 C2845 0.929 . S
S2849 N2850 1.613 . S
S2849 N2851 1.610 . S
N2850 S2849 1.613 . S
N2850 C2853 1.350 . S
N2851 S2849 1.610 . S
N2851 C2852 1.351 . S
C2852 C2846 1.428 . S
C2852 N2851 1.351 . S
C2852 C2853 1.434 . S
C2853 C2844 1.429 . S
C2853 N2850 1.350 . S
C2853 C2852 1.434 . S
C2854 C2855 1.369 . S
C2854 C2856 1.419 . S
C2854 H2858 0.930 . S
C2855 C2854 1.369 . S
C2855 C2864 1.429 . S
C2856 C2854 1.419 . S
C2856 C2857 1.363 . S
C2856 H2859 0.929 . S
C2857 C2856 1.363 . S
C2857 C2863 1.428 . S
H2858 C2854 0.930 . S
H2859 C2856 0.929 . S
S2860 N2861 1.613 . S
S2860 N2862 1.610 . S
N2861 S2860 1.613 . S
N2861 C2864 1.350 . S
N2862 S2860 1.610 . S
N2862 C2863 1.351 . S
C2863 C2857 1.428 . S
C2863 N2862 1.351 . S
C2863 C2864 1.434 . S
C2864 C2855 1.429 . S
C2864 N2861 1.350 . S
C2864 C2863 1.434 . S
C2865 C2866 1.368 1_655 S
C2865 C2867 1.412 . S
C2865 H2869 0.930 . S
C2866 C2865 1.368 1_455 S
C2866 C2875 1.429 . S
C2867 C2865 1.412 . S
C2867 C2868 1.363 1_655 S
C2867 H2870 0.937 . S
C2868 C2867 1.363 1_455 S
C2868 C2874 1.428 . S
H2869 C2865 0.930 . S
H2870 C2867 0.937 . S
S2871 N2872 1.613 . S
S2871 N2873 1.610 . S
N2872 S2871 1.613 . S
N2872 C2875 1.350 . S
N2873 S2871 1.610 . S
N2873 C2874 1.351 . S
C2874 C2868 1.428 . S
C2874 N2873 1.351 . S
C2874 C2875 1.434 . S
C2875 C2866 1.429 . S
C2875 N2872 1.350 . S
C2875 C2874 1.434 . S
C2876 C2877 1.369 . S
C2876 C2878 1.419 . S
C2876 H2880 0.930 . S
C2877 C2876 1.369 . S
C2877 C2886 1.429 . S
C2878 C2876 1.419 . S
C2878 C2879 1.363 . S
C2878 H2881 0.929 . S
C2879 C2878 1.363 . S
C2879 C2885 1.428 . S
H2880 C2876 0.930 . S
H2881 C2878 0.929 . S
S2882 N2883 1.613 . S
S2882 N2884 1.610 . S
N2883 S2882 1.613 . S
N2883 C2886 1.350 . S
N2884 S2882 1.610 . S
N2884 C2885 1.351 . S
C2885 C2879 1.428 . S
C2885 N2884 1.351 . S
C2885 C2886 1.434 . S
C2886 C2877 1.429 . S
C2886 N2883 1.350 . S
C2886 C2885 1.434 . S
C2887 C2888 1.364 1_545 S
C2887 C2889 1.419 . S
C2887 H2891 0.941 . S
C2888 C2887 1.364 1_565 S
C2888 C2897 1.429 . S
C2889 C2887 1.419 . S
C2889 C2890 1.351 1_545 S
C2889 H2892 0.936 . S
C2890 C2889 1.351 1_565 S
C2890 C2896 1.428 . S
H2891 C2887 0.941 . S
H2892 C2889 0.936 . S
S2893 N2894 1.613 . S
S2893 N2895 1.610 . S
N2894 S2893 1.613 . S
N2894 C2897 1.350 . S
N2895 S2893 1.610 . S
N2895 C2896 1.351 . S
C2896 C2890 1.428 . S
C2896 N2895 1.351 . S
C2896 C2897 1.434 . S
C2897 C2888 1.429 . S
C2897 N2894 1.350 . S
C2897 C2896 1.434 . S
C2898 C2899 1.369 1_545 S
C2898 C2900 1.419 . S
C2898 H2902 0.930 . S
C2899 C2898 1.369 1_565 S
C2899 C2908 1.429 . S
C2900 C2898 1.419 . S
C2900 C2901 1.363 1_545 S
C2900 H2903 0.929 . S
C2901 C2900 1.363 1_565 S
C2901 C2907 1.428 . S
H2902 C2898 0.930 . S
H2903 C2900 0.929 . S
S2904 N2905 1.613 . S
S2904 N2906 1.610 . S
N2905 S2904 1.613 . S
N2905 C2908 1.350 . S
N2906 S2904 1.610 . S
N2906 C2907 1.351 . S
C2907 C2901 1.428 . S
C2907 N2906 1.351 . S
C2907 C2908 1.434 . S
C2908 C2899 1.429 . S
C2908 N2905 1.350 . S
C2908 C2907 1.434 . S
C2909 C2910 1.369 1_655 S
C2909 C2911 1.419 . S
C2909 H2913 0.930 . S
C2910 C2909 1.369 1_455 S
C2910 C2919 1.429 . S
C2911 C2909 1.419 . S
C2911 C2912 1.363 1_655 S
C2911 H2914 0.929 . S
C2912 C2911 1.363 1_455 S
C2912 C2918 1.428 . S
H2913 C2909 0.930 . S
H2914 C2911 0.929 . S
S2915 N2916 1.613 . S
S2915 N2917 1.610 . S
N2916 S2915 1.613 . S
N2916 C2919 1.350 . S
N2917 S2915 1.610 . S
N2917 C2918 1.351 . S
C2918 C2912 1.428 . S
C2918 N2917 1.351 . S
C2918 C2919 1.434 . S
C2919 C2910 1.429 . S
C2919 N2916 1.350 . S
C2919 C2918 1.434 . S
C2920 C2921 1.369 . S
C2920 C2922 1.419 . S
C2920 H2924 0.930 . S
C2921 C2920 1.369 . S
C2921 C2930 1.429 . S
C2922 C2920 1.419 . S
C2922 C2923 1.363 . S
C2922 H2925 0.929 . S
C2923 C2922 1.363 . S
C2923 C2929 1.428 . S
H2924 C2920 0.930 . S
H2925 C2922 0.929 . S
S2926 N2927 1.613 . S
S2926 N2928 1.610 . S
N2927 S2926 1.613 . S
N2927 C2930 1.350 . S
N2928 S2926 1.610 . S
N2928 C2929 1.351 . S
C2929 C2923 1.428 . S
C2929 N2928 1.351 . S
C2929 C2930 1.434 . S
C2930 C2921 1.429 . S
C2930 N2927 1.350 . S
C2930 C2929 1.434 . S
C2931 C2932 1.369 . S
C2931 C2933 1.419 . S
C2931 H2935 0.930 . S
C2932 C2931 1.369 . S
C2932 C2941 1.429 . S
C2933 C2931 1.419 . S
C2933 C2934 1.363 . S
C2933 H2936 0.929 . S
C2934 C2933 1.363 . S
C2934 C2940 1.428 . S
H2935 C2931 0.930 . S
H2936 C2933 0.929 . S
S2937 N2938 1.613 . S
S2937 N2939 1.610 . S
N2938 S2937 1.613 . S
N2938 C2941 1.350 . S
N2939 S2937 1.610 . S
N2939 C2940 1.351 . S
C2940 C2934 1.428 . S
C2940 N2939 1.351 . S
C2940 C2941 1.434 . S
C2941 C2932 1.429 . S
C2941 N2938 1.350 . S
C2941 C2940 1.434 . S
C2942 C2943 1.369 . S
C2942 C2944 1.419 . S
C2942 H2946 0.930 . S
C2943 C2942 1.369 . S
C2943 C2952 1.429 . S
C2944 C2942 1.419 . S
C2944 C2945 1.363 . S
C2944 H2947 0.929 . S
C2945 C2944 1.363 . S
C2945 C2951 1.428 . S
H2946 C2942 0.930 . S
H2947 C2944 0.929 . S
S2948 N2949 1.613 . S
S2948 N2950 1.610 . S
N2949 S2948 1.613 . S
N2949 C2952 1.350 . S
N2950 S2948 1.610 . S
N2950 C2951 1.351 . S
C2951 C2945 1.428 . S
C2951 N2950 1.351 . S
C2951 C2952 1.434 . S
C2952 C2943 1.429 . S
C2952 N2949 1.350 . S
C2952 C2951 1.434 . S
C2953 C2954 1.369 . S
C2953 C2955 1.419 . S
C2953 H2957 0.930 . S
C2954 C2953 1.369 . S
C2954 C2963 1.429 . S
C2955 C2953 1.419 . S
C2955 C2956 1.363 . S
C2955 H2958 0.929 . S
C2956 C2955 1.363 . S
C2956 C2962 1.428 . S
H2957 C2953 0.930 . S
H2958 C2955 0.929 . S
S2959 N2960 1.613 . S
S2959 N2961 1.610 . S
N2960 S2959 1.613 . S
N2960 C2963 1.350 . S
N2961 S2959 1.610 . S
N2961 C2962 1.351 . S
C2962 C2956 1.428 . S
C2962 N2961 1.351 . S
C2962 C2963 1.434 . S
C2963 C2954 1.429 . S
C2963 N2960 1.350 . S
C2963 C2962 1.434 . S
C2964 C2965 1.369 . S
C2964 C2966 1.419 . S
C2964 H2968 0.930 . S
C2965 C2964 1.369 . S
C2965 C2974 1.429 1_545 S
C2966 C2964 1.419 . S
C2966 C2967 1.363 . S
C2966 H2969 0.929 . S
C2967 C2966 1.363 . S
C2967 C2973 1.428 1_545 S
H2968 C2964 0.930 . S
H2969 C2966 0.929 . S
S2970 N2971 1.613 . S
S2970 N2972 1.610 . S
N2971 S2970 1.613 . S
N2971 C2974 1.350 . S
N2972 S2970 1.610 . S
N2972 C2973 1.351 . S
C2973 C2967 1.428 1_565 S
C2973 N2972 1.351 . S
C2973 C2974 1.434 . S
C2974 C2965 1.429 1_565 S
C2974 N2971 1.350 . S
C2974 C2973 1.434 . S
C2975 C2976 1.369 1_455 S
C2975 C2977 1.419 . S
C2975 H2979 0.930 . S
C2976 C2975 1.369 1_655 S
C2976 C2985 1.429 . S
C2977 C2975 1.419 . S
C2977 C2978 1.363 1_455 S
C2977 H2980 0.929 . S
C2978 C2977 1.363 1_655 S
C2978 C2984 1.428 . S
H2979 C2975 0.930 . S
H2980 C2977 0.929 . S
S2981 N2982 1.613 . S
S2981 N2983 1.610 . S
N2982 S2981 1.613 . S
N2982 C2985 1.350 . S
N2983 S2981 1.610 . S
N2983 C2984 1.351 . S
C2984 C2978 1.428 . S
C2984 N2983 1.351 . S
C2984 C2985 1.434 . S
C2985 C2976 1.429 . S
C2985 N2982 1.350 . S
C2985 C2984 1.434 . S
C2986 C2987 1.369 . S
C2986 C2988 1.419 . S
C2986 H2990 0.930 . S
C2987 C2986 1.369 . S
C2987 C2996 1.429 . S
C2988 C2986 1.419 . S
C2988 C2989 1.363 . S
C2988 H2991 0.929 . S
C2989 C2988 1.363 . S
C2989 C2995 1.428 . S
H2990 C2986 0.930 . S
H2991 C2988 0.929 . S
S2992 N2993 1.613 . S
S2992 N2994 1.610 . S
N2993 S2992 1.613 . S
N2993 C2996 1.350 . S
N2994 S2992 1.610 . S
N2994 C2995 1.351 . S
C2995 C2989 1.428 . S
C2995 N2994 1.351 . S
C2995 C2996 1.434 . S
C2996 C2987 1.429 . S
C2996 N2993 1.350 . S
C2996 C2995 1.434 . S
C2997 C2998 1.369 . S
C2997 C2999 1.419 . S
C2997 H3001 0.930 . S
C2998 C2997 1.369 . S
C2998 C3007 1.429 . S
C2999 C2997 1.419 . S
C2999 C3000 1.363 . S
C2999 H3002 0.929 . S
C3000 C2999 1.363 . S
C3000 C3006 1.428 . S
H3001 C2997 0.930 . S
H3002 C2999 0.929 . S
S3003 N3004 1.613 . S
S3003 N3005 1.610 . S
N3004 S3003 1.613 . S
N3004 C3007 1.350 . S
N3005 S3003 1.610 . S
N3005 C3006 1.351 . S
C3006 C3000 1.428 . S
C3006 N3005 1.351 . S
C3006 C3007 1.434 . S
C3007 C2998 1.429 . S
C3007 N3004 1.350 . S
C3007 C3006 1.434 . S
C3008 C3009 1.369 . S
C3008 C3010 1.419 . S
C3008 H3012 0.930 . S
C3009 C3008 1.369 . S
C3009 C3018 1.429 . S
C3010 C3008 1.419 . S
C3010 C3011 1.363 . S
C3010 H3013 0.929 . S
C3011 C3010 1.363 . S
C3011 C3017 1.428 . S
H3012 C3008 0.930 . S
H3013 C3010 0.929 . S
S3014 N3015 1.613 . S
S3014 N3016 1.610 . S
N3015 S3014 1.613 . S
N3015 C3018 1.350 . S
N3016 S3014 1.610 . S
N3016 C3017 1.351 . S
C3017 C3011 1.428 . S
C3017 N3016 1.351 . S
C3017 C3018 1.434 . S
C3018 C3009 1.429 . S
C3018 N3015 1.350 . S
C3018 C3017 1.434 . S
C3019 C3020 1.369 . S
C3019 C3021 1.419 . S
C3019 H3023 0.930 . S
C3020 C3019 1.369 . S
C3020 C3029 1.429 . S
C3021 C3019 1.419 . S
C3021 C3022 1.363 . S
C3021 H3024 0.929 . S
C3022 C3021 1.363 . S
C3022 C3028 1.428 . S
H3023 C3019 0.930 . S
H3024 C3021 0.929 . S
S3025 N3026 1.613 . S
S3025 N3027 1.610 . S
N3026 S3025 1.613 . S
N3026 C3029 1.350 . S
N3027 S3025 1.610 . S
N3027 C3028 1.351 . S
C3028 C3022 1.428 . S
C3028 N3027 1.351 . S
C3028 C3029 1.434 . S
C3029 C3020 1.429 . S
C3029 N3026 1.350 . S
C3029 C3028 1.434 . S
C3030 C3031 1.369 . S
C3030 C3032 1.419 . S
C3030 H3034 0.930 . S
C3031 C3030 1.369 . S
C3031 C3040 1.429 . S
C3032 C3030 1.419 . S
C3032 C3033 1.363 . S
C3032 H3035 0.929 . S
C3033 C3032 1.363 . S
C3033 C3039 1.428 . S
H3034 C3030 0.930 . S
H3035 C3032 0.929 . S
S3036 N3037 1.613 . S
S3036 N3038 1.610 . S
N3037 S3036 1.613 . S
N3037 C3040 1.350 . S
N3038 S3036 1.610 . S
N3038 C3039 1.351 . S
C3039 C3033 1.428 . S
C3039 N3038 1.351 . S
C3039 C3040 1.434 . S
C3040 C3031 1.429 . S
C3040 N3037 1.350 . S
C3040 C3039 1.434 . S
C3041 C3042 1.369 . S
C3041 C3043 1.419 . S
C3041 H3045 0.930 . S
C3042 C3041 1.369 . S
C3042 C3051 1.429 . S
C3043 C3041 1.419 . S
C3043 C3044 1.363 . S
C3043 H3046 0.929 . S
C3044 C3043 1.363 . S
C3044 C3050 1.428 . S
H3045 C3041 0.930 . S
H3046 C3043 0.929 . S
S3047 N3048 1.613 . S
S3047 N3049 1.610 . S
N3048 S3047 1.613 . S
N3048 C3051 1.350 . S
N3049 S3047 1.610 . S
N3049 C3050 1.351 . S
C3050 C3044 1.428 . S
C3050 N3049 1.351 . S
C3050 C3051 1.434 . S
C3051 C3042 1.429 . S
C3051 N3048 1.350 . S
C3051 C3050 1.434 . S
C3052 C3053 1.369 . S
C3052 C3054 1.419 . S
C3052 H3056 0.930 . S
C3053 C3052 1.369 . S
C3053 C3062 1.429 . S
C3054 C3052 1.419 . S
C3054 C3055 1.363 . S
C3054 H3057 0.929 . S
C3055 C3054 1.363 . S
C3055 C3061 1.428 . S
H3056 C3052 0.930 . S
H3057 C3054 0.929 . S
S3058 N3059 1.613 . S
S3058 N3060 1.610 . S
N3059 S3058 1.613 . S
N3059 C3062 1.350 . S
N3060 S3058 1.610 . S
N3060 C3061 1.351 . S
C3061 C3055 1.428 . S
C3061 N3060 1.351 . S
C3061 C3062 1.434 . S
C3062 C3053 1.429 . S
C3062 N3059 1.350 . S
C3062 C3061 1.434 . S
C3063 C3064 1.369 . S
C3063 C3065 1.419 . S
C3063 H3067 0.930 . S
C3064 C3063 1.369 . S
C3064 C3073 1.429 1_655 S
C3065 C3063 1.419 . S
C3065 C3066 1.363 . S
C3065 H3068 0.929 . S
C3066 C3065 1.363 . S
C3066 C3072 1.428 1_655 S
H3067 C3063 0.930 . S
H3068 C3065 0.929 . S
S3069 N3070 1.613 . S
S3069 N3071 1.610 . S
N3070 S3069 1.613 . S
N3070 C3073 1.350 . S
N3071 S3069 1.610 . S
N3071 C3072 1.351 . S
C3072 C3066 1.428 1_455 S
C3072 N3071 1.351 . S
C3072 C3073 1.434 . S
C3073 C3064 1.429 1_455 S
C3073 N3070 1.350 . S
C3073 C3072 1.434 . S
C3074 C3075 1.369 . S
C3074 C3076 1.419 . S
C3074 H3078 0.930 . S
C3075 C3074 1.369 . S
C3075 C3084 1.429 . S
C3076 C3074 1.419 . S
C3076 C3077 1.363 . S
C3076 H3079 0.929 . S
C3077 C3076 1.363 . S
C3077 C3083 1.428 . S
H3078 C3074 0.930 . S
H3079 C3076 0.929 . S
S3080 N3081 1.613 . S
S3080 N3082 1.610 . S
N3081 S3080 1.613 . S
N3081 C3084 1.350 . S
N3082 S3080 1.610 . S
N3082 C3083 1.351 . S
C3083 C3077 1.428 . S
C3083 N3082 1.351 . S
C3083 C3084 1.434 . S
C3084 C3075 1.429 . S
C3084 N3081 1.350 . S
C3084 C3083 1.434 . S
C3085 C3086 1.369 1_565 S
C3085 C3087 1.419 . S
C3085 H3089 0.930 . S
C3086 C3085 1.369 1_545 S
C3086 C3095 1.429 . S
C3087 C3085 1.419 . S
C3087 C3088 1.363 1_565 S
C3087 H3090 0.929 . S
C3088 C3087 1.363 1_545 S
C3088 C3094 1.428 . S
H3089 C3085 0.930 . S
H3090 C3087 0.929 . S
S3091 N3092 1.613 . S
S3091 N3093 1.610 . S
N3092 S3091 1.613 . S
N3092 C3095 1.350 . S
N3093 S3091 1.610 . S
N3093 C3094 1.351 . S
C3094 C3088 1.428 . S
C3094 N3093 1.351 . S
C3094 C3095 1.434 . S
C3095 C3086 1.429 . S
C3095 N3092 1.350 . S
C3095 C3094 1.434 . S
C2305 C8 1.393 1_655 S
C2307 C1307 1.077 . S
C2316 C22 1.776 . S
C2318 C1447 1.060 . S
C2329 C1535 1.192 . S
C2327 C37 1.423 . S
C2338 C36 1.469 1_565 S
C2340 C1675 1.067 1_565 S
C2349 C9 1.426 . S
C2351 C1789 1.048 1_455 S
C2360 C23 1.800 . S
C2362 C1877 1.245 . S
C2371 C50 1.330 1_455 S
C2373 C1763 1.077 . S
C2384 C1903 1.402 . S
C2382 C64 1.651 . S
C2395 C1649 1.173 . S
C2393 C79 1.415 1_565 S
C2404 C78 1.426 . S
C2406 C1561 1.078 . S
C2417 C1333 1.059 . S
C2415 C51 1.423 1_655 S
C2426 C65 1.670 . S
C2428 C1421 1.505 . S
C2437 C92 1.840 . S
C2439 C1991 1.258 . S
C2448 C106 1.870 . S
C2450 C2131 1.141 . S
C2461 C2219 1.270 . S
C2459 C121 1.810 . S
C2470 C120 1.822 . S
C2472 C307 1.110 . S
C2481 C93 1.827 . S
C2483 C421 1.092 . S
C2492 C107 1.861 . S
C2494 C509 1.293 . S
C2503 C134 1.601 . S
C2505 C395 1.421 . S
C2514 C148 1.713 . S
C2516 C535 1.496 . S
C2527 C281 1.505 . S
C2525 C163 1.673 . S
C2538 C2245 1.581 . S
C2536 C162 1.806 . S
C2549 C2017 1.479 . S
C2547 C135 1.711 . S
C2560 C2105 1.614 . S
C2558 C149 1.758 . S
C2569 C176 1.738 . S
C2571 C623 1.165 . S
C2580 C190 1.846 . S
C2582 C763 1.109 . S
C2591 C205 1.802 . S
C2593 C851 1.261 . S
C2602 C204 1.925 . S
C2604 C991 1.205 . S
C2615 C1105 1.098 . S
C2613 C177 1.842 . S
C2626 C1193 1.334 . S
C2624 C191 1.888 . S
C2637 C1079 1.523 . S
C2635 C218 1.711 . S
C2648 C1219 1.517 . S
C2646 C232 1.741 . S
C2657 C247 1.676 . S
C2659 C965 1.508 . S
C2670 C877 1.476 . S
C2668 C246 1.696 . S
C2679 C219 1.701 . S
C2681 C649 1.466 . S
C2692 C737 1.580 . S
C2690 C233 1.725 . S
C2703 C263 0.894 . S
C2701 C6 1.779 . S
C2712 C20 1.615 . S
C2714 C377 0.863 . S
C2725 C481 1.177 . S
C2723 C35 1.705 . S
C2736 C595 1.159 . S
C2734 C34 1.625 . S
C2747 C719 0.914 . S
C2745 C7 1.746 . S
C2758 C823 1.161 . S
C2756 C21 1.635 . S
C2767 C48 1.894 . S
C2769 C833 1.402 . S
C2778 C62 1.732 . S
C2780 C605 1.323 . S
C2789 C77 1.837 . S
C2791 C709 1.591 . S
C2800 C76 1.755 . S
C2802 C367 1.548 . S
C2813 C491 1.420 . S
C2811 C49 1.873 . S
C2822 C63 1.753 . S
C2824 C253 1.526 . S
C2835 C947 0.920 . S
C2833 C90 1.704 . S
C2844 C104 1.701 . S
C2846 C1061 0.969 . S
C2855 C119 1.686 . S
C2857 C1165 1.267 . S
C2868 C1279 1.120 . S
C2866 C118 1.320 . S
C2877 C91 1.663 . S
C2879 C1403 0.914 . S
C2888 C105 1.409 . S
C2890 C1507 1.158 . S
C2899 C132 1.509 . S
C2901 C1517 0.956 1_565 S
C2910 C146 1.434 . S
C2912 C1289 0.959 1_455 S
C2923 C1393 1.526 . S
C2921 C161 1.747 . S
C2932 C160 1.699 . S
C2934 C1051 1.520 . S
C2943 C133 1.824 . S
C2945 C1175 1.416 . S
C2956 C937 1.599 . S
C2954 C147 1.825 . S
C2967 C1631 0.967 . S
C2965 C174 1.499 . S
C2976 C188 1.403 . S
C2978 C1745 0.932 . S
C2987 C203 1.626 . S
C2989 C1849 1.170 . S
C3000 C1963 1.172 . S
C2998 C202 1.573 . S
C3011 C2087 0.990 . S
C3009 C175 1.717 . S
C3020 C189 1.709 . S
C3022 C2191 1.252 . S
C3031 C216 1.820 . S
C3033 C2201 1.367 . S
C3042 C230 1.808 . S
C3044 C1973 1.382 . S
C3055 C2077 1.597 . S
C3053 C245 1.795 . S
C3066 C1735 1.126 1_655 S
C3064 C244 1.338 . S
C3077 C1859 1.342 . S
C3075 C217 1.778 . S
C3086 C231 1.443 . S
C3088 C1621 1.193 1_545 S
