# Generated by pormake.
# Topology tbo, (3,4)-cn, num edge types: 1
# Building blocks:
#     Node 0, Type 0, BuildingBlock: ESEHIV_clean_linker_0, # of connection points: 3
#     Node 1, Type 0, BuildingBlock: ESEHIV_clean_linker_0, # of connection points: 3
#     Node 2, Type 0, BuildingBlock: ESEHIV_clean_linker_0, # of connection points: 3
#     Node 3, Type 0, BuildingBlock: ESEHIV_clean_linker_0, # of connection points: 3
#     Node 4, Type 0, BuildingBlock: ESEHIV_clean_linker_0, # of connection points: 3
#     Node 5, Type 0, BuildingBlock: ESEHIV_clean_linker_0, # of connection points: 3
#     Node 6, Type 0, BuildingBlock: ESEHIV_clean_linker_0, # of connection points: 3
#     Node 7, Type 0, BuildingBlock: ESEHIV_clean_linker_0, # of connection points: 3
#     Node 8, Type 0, BuildingBlock: ESEHIV_clean_linker_0, # of connection points: 3
#     Node 9, Type 0, BuildingBlock: ESEHIV_clean_linker_0, # of connection points: 3
#     Node 10, Type 0, BuildingBlock: ESEHIV_clean_linker_0, # of connection points: 3
#     Node 11, Type 0, BuildingBlock: ESEHIV_clean_linker_0, # of connection points: 3
#     Node 12, Type 0, BuildingBlock: ESEHIV_clean_linker_0, # of connection points: 3
#     Node 13, Type 0, BuildingBlock: ESEHIV_clean_linker_0, # of connection points: 3
#     Node 14, Type 0, BuildingBlock: ESEHIV_clean_linker_0, # of connection points: 3
#     Node 15, Type 0, BuildingBlock: ESEHIV_clean_linker_0, # of connection points: 3
#     Node 16, Type 0, BuildingBlock: ESEHIV_clean_linker_0, # of connection points: 3
#     Node 17, Type 0, BuildingBlock: ESEHIV_clean_linker_0, # of connection points: 3
#     Node 18, Type 0, BuildingBlock: ESEHIV_clean_linker_0, # of connection points: 3
#     Node 19, Type 0, BuildingBlock: ESEHIV_clean_linker_0, # of connection points: 3
#     Node 20, Type 0, BuildingBlock: ESEHIV_clean_linker_0, # of connection points: 3
#     Node 21, Type 0, BuildingBlock: ESEHIV_clean_linker_0, # of connection points: 3
#     Node 22, Type 0, BuildingBlock: ESEHIV_clean_linker_0, # of connection points: 3
#     Node 23, Type 0, BuildingBlock: ESEHIV_clean_linker_0, # of connection points: 3
#     Node 24, Type 0, BuildingBlock: ESEHIV_clean_linker_0, # of connection points: 3
#     Node 25, Type 0, BuildingBlock: ESEHIV_clean_linker_0, # of connection points: 3
#     Node 26, Type 0, BuildingBlock: ESEHIV_clean_linker_0, # of connection points: 3
#     Node 27, Type 0, BuildingBlock: ESEHIV_clean_linker_0, # of connection points: 3
#     Node 28, Type 0, BuildingBlock: ESEHIV_clean_linker_0, # of connection points: 3
#     Node 29, Type 0, BuildingBlock: ESEHIV_clean_linker_0, # of connection points: 3
#     Node 30, Type 0, BuildingBlock: ESEHIV_clean_linker_0, # of connection points: 3
#     Node 31, Type 0, BuildingBlock: ESEHIV_clean_linker_0, # of connection points: 3
#     Node 32, Type 1, BuildingBlock: ESEHIV_clean_sbu_0, # of connection points: 4
#     Node 33, Type 1, BuildingBlock: ESEHIV_clean_sbu_0, # of connection points: 4
#     Node 34, Type 1, BuildingBlock: ESEHIV_clean_sbu_0, # of connection points: 4
#     Node 35, Type 1, BuildingBlock: ESEHIV_clean_sbu_0, # of connection points: 4
#     Node 36, Type 1, BuildingBlock: ESEHIV_clean_sbu_0, # of connection points: 4
#     Node 37, Type 1, BuildingBlock: ESEHIV_clean_sbu_0, # of connection points: 4
#     Node 38, Type 1, BuildingBlock: ESEHIV_clean_sbu_0, # of connection points: 4
#     Node 39, Type 1, BuildingBlock: ESEHIV_clean_sbu_0, # of connection points: 4
#     Node 40, Type 1, BuildingBlock: ESEHIV_clean_sbu_0, # of connection points: 4
#     Node 41, Type 1, BuildingBlock: ESEHIV_clean_sbu_0, # of connection points: 4
#     Node 42, Type 1, BuildingBlock: ESEHIV_clean_sbu_0, # of connection points: 4
#     Node 43, Type 1, BuildingBlock: ESEHIV_clean_sbu_0, # of connection points: 4
#     Node 44, Type 1, BuildingBlock: ESEHIV_clean_sbu_0, # of connection points: 4
#     Node 45, Type 1, BuildingBlock: ESEHIV_clean_sbu_0, # of connection points: 4
#     Node 46, Type 1, BuildingBlock: ESEHIV_clean_sbu_0, # of connection points: 4
#     Node 47, Type 1, BuildingBlock: ESEHIV_clean_sbu_0, # of connection points: 4
#     Node 48, Type 1, BuildingBlock: ESEHIV_clean_sbu_0, # of connection points: 4
#     Node 49, Type 1, BuildingBlock: ESEHIV_clean_sbu_0, # of connection points: 4
#     Node 50, Type 1, BuildingBlock: ESEHIV_clean_sbu_0, # of connection points: 4
#     Node 51, Type 1, BuildingBlock: ESEHIV_clean_sbu_0, # of connection points: 4
#     Node 52, Type 1, BuildingBlock: ESEHIV_clean_sbu_0, # of connection points: 4
#     Node 53, Type 1, BuildingBlock: ESEHIV_clean_sbu_0, # of connection points: 4
#     Node 54, Type 1, BuildingBlock: ESEHIV_clean_sbu_0, # of connection points: 4
#     Node 55, Type 1, BuildingBlock: ESEHIV_clean_sbu_0, # of connection points: 4
#     Edge 56, Type (0, 1), BuildingBlock: ZUJKAS_clean_linker_0, # of connection points: 2
#     Edge 57, Type (0, 1), BuildingBlock: ZUJKAS_clean_linker_0, # of connection points: 2
#     Edge 58, Type (0, 1), BuildingBlock: ZUJKAS_clean_linker_0, # of connection points: 2
#     Edge 59, Type (0, 1), BuildingBlock: ZUJKAS_clean_linker_0, # of connection points: 2
#     Edge 60, Type (0, 1), BuildingBlock: ZUJKAS_clean_linker_0, # of connection points: 2
#     Edge 61, Type (0, 1), BuildingBlock: ZUJKAS_clean_linker_0, # of connection points: 2
#     Edge 62, Type (0, 1), BuildingBlock: ZUJKAS_clean_linker_0, # of connection points: 2
#     Edge 63, Type (0, 1), BuildingBlock: ZUJKAS_clean_linker_0, # of connection points: 2
#     Edge 64, Type (0, 1), BuildingBlock: ZUJKAS_clean_linker_0, # of connection points: 2
#     Edge 65, Type (0, 1), BuildingBlock: ZUJKAS_clean_linker_0, # of connection points: 2
#     Edge 66, Type (0, 1), BuildingBlock: ZUJKAS_clean_linker_0, # of connection points: 2
#     Edge 67, Type (0, 1), BuildingBlock: ZUJKAS_clean_linker_0, # of connection points: 2
#     Edge 68, Type (0, 1), BuildingBlock: ZUJKAS_clean_linker_0, # of connection points: 2
#     Edge 69, Type (0, 1), BuildingBlock: ZUJKAS_clean_linker_0, # of connection points: 2
#     Edge 70, Type (0, 1), BuildingBlock: ZUJKAS_clean_linker_0, # of connection points: 2
#     Edge 71, Type (0, 1), BuildingBlock: ZUJKAS_clean_linker_0, # of connection points: 2
#     Edge 72, Type (0, 1), BuildingBlock: ZUJKAS_clean_linker_0, # of connection points: 2
#     Edge 73, Type (0, 1), BuildingBlock: ZUJKAS_clean_linker_0, # of connection points: 2
#     Edge 74, Type (0, 1), BuildingBlock: ZUJKAS_clean_linker_0, # of connection points: 2
#     Edge 75, Type (0, 1), BuildingBlock: ZUJKAS_clean_linker_0, # of connection points: 2
#     Edge 76, Type (0, 1), BuildingBlock: ZUJKAS_clean_linker_0, # of connection points: 2
#     Edge 77, Type (0, 1), BuildingBlock: ZUJKAS_clean_linker_0, # of connection points: 2
#     Edge 78, Type (0, 1), BuildingBlock: ZUJKAS_clean_linker_0, # of connection points: 2
#     Edge 79, Type (0, 1), BuildingBlock: ZUJKAS_clean_linker_0, # of connection points: 2
#     Edge 80, Type (0, 1), BuildingBlock: ZUJKAS_clean_linker_0, # of connection points: 2
#     Edge 81, Type (0, 1), BuildingBlock: ZUJKAS_clean_linker_0, # of connection points: 2
#     Edge 82, Type (0, 1), BuildingBlock: ZUJKAS_clean_linker_0, # of connection points: 2
#     Edge 83, Type (0, 1), BuildingBlock: ZUJKAS_clean_linker_0, # of connection points: 2
#     Edge 84, Type (0, 1), BuildingBlock: ZUJKAS_clean_linker_0, # of connection points: 2
#     Edge 85, Type (0, 1), BuildingBlock: ZUJKAS_clean_linker_0, # of connection points: 2
#     Edge 86, Type (0, 1), BuildingBlock: ZUJKAS_clean_linker_0, # of connection points: 2
#     Edge 87, Type (0, 1), BuildingBlock: ZUJKAS_clean_linker_0, # of connection points: 2
#     Edge 88, Type (0, 1), BuildingBlock: ZUJKAS_clean_linker_0, # of connection points: 2
#     Edge 89, Type (0, 1), BuildingBlock: ZUJKAS_clean_linker_0, # of connection points: 2
#     Edge 90, Type (0, 1), BuildingBlock: ZUJKAS_clean_linker_0, # of connection points: 2
#     Edge 91, Type (0, 1), BuildingBlock: ZUJKAS_clean_linker_0, # of connection points: 2
#     Edge 92, Type (0, 1), BuildingBlock: ZUJKAS_clean_linker_0, # of connection points: 2
#     Edge 93, Type (0, 1), BuildingBlock: ZUJKAS_clean_linker_0, # of connection points: 2
#     Edge 94, Type (0, 1), BuildingBlock: ZUJKAS_clean_linker_0, # of connection points: 2
#     Edge 95, Type (0, 1), BuildingBlock: ZUJKAS_clean_linker_0, # of connection points: 2
#     Edge 96, Type (0, 1), BuildingBlock: ZUJKAS_clean_linker_0, # of connection points: 2
#     Edge 97, Type (0, 1), BuildingBlock: ZUJKAS_clean_linker_0, # of connection points: 2
#     Edge 98, Type (0, 1), BuildingBlock: ZUJKAS_clean_linker_0, # of connection points: 2
#     Edge 99, Type (0, 1), BuildingBlock: ZUJKAS_clean_linker_0, # of connection points: 2
#     Edge 100, Type (0, 1), BuildingBlock: ZUJKAS_clean_linker_0, # of connection points: 2
#     Edge 101, Type (0, 1), BuildingBlock: ZUJKAS_clean_linker_0, # of connection points: 2
#     Edge 102, Type (0, 1), BuildingBlock: ZUJKAS_clean_linker_0, # of connection points: 2
#     Edge 103, Type (0, 1), BuildingBlock: ZUJKAS_clean_linker_0, # of connection points: 2
#     Edge 104, Type (0, 1), BuildingBlock: ZUJKAS_clean_linker_0, # of connection points: 2
#     Edge 105, Type (0, 1), BuildingBlock: ZUJKAS_clean_linker_0, # of connection points: 2
#     Edge 106, Type (0, 1), BuildingBlock: ZUJKAS_clean_linker_0, # of connection points: 2
#     Edge 107, Type (0, 1), BuildingBlock: ZUJKAS_clean_linker_0, # of connection points: 2
#     Edge 108, Type (0, 1), BuildingBlock: ZUJKAS_clean_linker_0, # of connection points: 2
#     Edge 109, Type (0, 1), BuildingBlock: ZUJKAS_clean_linker_0, # of connection points: 2
#     Edge 110, Type (0, 1), BuildingBlock: ZUJKAS_clean_linker_0, # of connection points: 2
#     Edge 111, Type (0, 1), BuildingBlock: ZUJKAS_clean_linker_0, # of connection points: 2
#     Edge 112, Type (0, 1), BuildingBlock: ZUJKAS_clean_linker_0, # of connection points: 2
#     Edge 113, Type (0, 1), BuildingBlock: ZUJKAS_clean_linker_0, # of connection points: 2
#     Edge 114, Type (0, 1), BuildingBlock: ZUJKAS_clean_linker_0, # of connection points: 2
#     Edge 115, Type (0, 1), BuildingBlock: ZUJKAS_clean_linker_0, # of connection points: 2
#     Edge 116, Type (0, 1), BuildingBlock: ZUJKAS_clean_linker_0, # of connection points: 2
#     Edge 117, Type (0, 1), BuildingBlock: ZUJKAS_clean_linker_0, # of connection points: 2
#     Edge 118, Type (0, 1), BuildingBlock: ZUJKAS_clean_linker_0, # of connection points: 2
#     Edge 119, Type (0, 1), BuildingBlock: ZUJKAS_clean_linker_0, # of connection points: 2
#     Edge 120, Type (0, 1), BuildingBlock: ZUJKAS_clean_linker_0, # of connection points: 2
#     Edge 121, Type (0, 1), BuildingBlock: ZUJKAS_clean_linker_0, # of connection points: 2
#     Edge 122, Type (0, 1), BuildingBlock: ZUJKAS_clean_linker_0, # of connection points: 2
#     Edge 123, Type (0, 1), BuildingBlock: ZUJKAS_clean_linker_0, # of connection points: 2
#     Edge 124, Type (0, 1), BuildingBlock: ZUJKAS_clean_linker_0, # of connection points: 2
#     Edge 125, Type (0, 1), BuildingBlock: ZUJKAS_clean_linker_0, # of connection points: 2
#     Edge 126, Type (0, 1), BuildingBlock: ZUJKAS_clean_linker_0, # of connection points: 2
#     Edge 127, Type (0, 1), BuildingBlock: ZUJKAS_clean_linker_0, # of connection points: 2
#     Edge 128, Type (0, 1), BuildingBlock: ZUJKAS_clean_linker_0, # of connection points: 2
#     Edge 129, Type (0, 1), BuildingBlock: ZUJKAS_clean_linker_0, # of connection points: 2
#     Edge 130, Type (0, 1), BuildingBlock: ZUJKAS_clean_linker_0, # of connection points: 2
#     Edge 131, Type (0, 1), BuildingBlock: ZUJKAS_clean_linker_0, # of connection points: 2
#     Edge 132, Type (0, 1), BuildingBlock: ZUJKAS_clean_linker_0, # of connection points: 2
#     Edge 133, Type (0, 1), BuildingBlock: ZUJKAS_clean_linker_0, # of connection points: 2
#     Edge 134, Type (0, 1), BuildingBlock: ZUJKAS_clean_linker_0, # of connection points: 2
#     Edge 135, Type (0, 1), BuildingBlock: ZUJKAS_clean_linker_0, # of connection points: 2
#     Edge 136, Type (0, 1), BuildingBlock: ZUJKAS_clean_linker_0, # of connection points: 2
#     Edge 137, Type (0, 1), BuildingBlock: ZUJKAS_clean_linker_0, # of connection points: 2
#     Edge 138, Type (0, 1), BuildingBlock: ZUJKAS_clean_linker_0, # of connection points: 2
#     Edge 139, Type (0, 1), BuildingBlock: ZUJKAS_clean_linker_0, # of connection points: 2
#     Edge 140, Type (0, 1), BuildingBlock: ZUJKAS_clean_linker_0, # of connection points: 2
#     Edge 141, Type (0, 1), BuildingBlock: ZUJKAS_clean_linker_0, # of connection points: 2
#     Edge 142, Type (0, 1), BuildingBlock: ZUJKAS_clean_linker_0, # of connection points: 2
#     Edge 143, Type (0, 1), BuildingBlock: ZUJKAS_clean_linker_0, # of connection points: 2
#     Edge 144, Type (0, 1), BuildingBlock: ZUJKAS_clean_linker_0, # of connection points: 2
#     Edge 145, Type (0, 1), BuildingBlock: ZUJKAS_clean_linker_0, # of connection points: 2
#     Edge 146, Type (0, 1), BuildingBlock: ZUJKAS_clean_linker_0, # of connection points: 2
#     Edge 147, Type (0, 1), BuildingBlock: ZUJKAS_clean_linker_0, # of connection points: 2
#     Edge 148, Type (0, 1), BuildingBlock: ZUJKAS_clean_linker_0, # of connection points: 2
#     Edge 149, Type (0, 1), BuildingBlock: ZUJKAS_clean_linker_0, # of connection points: 2
#     Edge 150, Type (0, 1), BuildingBlock: ZUJKAS_clean_linker_0, # of connection points: 2
#     Edge 151, Type (0, 1), BuildingBlock: ZUJKAS_clean_linker_0, # of connection points: 2
# Relax obj value: 0.002
# Max RMSD: 0.117
# Mean RMSD: 0.047
data_MOF--net-tbo--node1-ESEHIV_clean_sbu_0--node2-ESEHIV_clean_linker_0--edge1-ZUJKAS_clean_linker_0
_symmetry_space_group_name_H-M    P1
_symmetry_Int_Tables_number       1
_symmetry_cell_setting            triclinic
loop_
_symmetry_equiv_pos_as_xyz
'x, y, z'
_cell_length_a     91.814351
_cell_length_b     91.68158
_cell_length_c     91.754103
_cell_angle_alpha  90.143914
_cell_angle_beta   92.02389
_cell_angle_gamma 90.865253
loop_
_atom_site_label
_atom_site_type_symbol
_atom_site_fract_x
_atom_site_fract_y
_atom_site_fract_z
_atom_type_partial_charge
H0 H 0.16511 0.20059 0.17666 0.0
H1 H 0.2023 0.1733 0.17111 0.0
H2 H 0.17192 0.16338 0.20433 0.0
C3 C 0.17151 0.19123 0.17987 0.0
C4 C 0.16718 0.18262 0.19168 0.0
C5 C 0.18407 0.18787 0.1722 0.0
C6 C 0.19235 0.17573 0.17658 0.0
C7 C 0.18814 0.16692 0.18826 0.0
C8 C 0.1755 0.17041 0.19564 0.0
H9 H 0.86354 0.16674 0.20336 0.0
H10 H 0.8593 0.20043 0.17121 0.0
H11 H 0.82649 0.16657 0.17314 0.0
C12 C 0.85746 0.1716 0.19434 0.0
C13 C 0.84436 0.16495 0.18906 0.0
C14 C 0.8628 0.18452 0.1881 0.0
C15 C 0.85497 0.19073 0.17634 0.0
C16 C 0.84192 0.18433 0.1708 0.0
C17 C 0.8367 0.17139 0.17717 0.0
H18 H 0.82371 0.85774 0.15427 0.0
H19 H 0.85719 0.82554 0.1537 0.0
H20 H 0.85532 0.8551 0.18999 0.0
C21 C 0.83301 0.85252 0.15952 0.0
C22 C 0.83847 0.85774 0.17313 0.0
C23 C 0.83975 0.84099 0.15235 0.0
C24 C 0.85215 0.83468 0.15895 0.0
C25 C 0.85794 0.83974 0.17245 0.0
C26 C 0.85097 0.85121 0.17954 0.0
H27 H 0.14982 0.85874 0.20008 0.0
H28 H 0.18558 0.86308 0.17143 0.0
H29 H 0.15541 0.82672 0.16652 0.0
C30 C 0.15574 0.85484 0.19086 0.0
C31 C 0.1511 0.84192 0.18379 0.0
C32 C 0.16816 0.86252 0.18652 0.0
C33 C 0.17598 0.85716 0.17482 0.0
C34 C 0.17149 0.84428 0.16742 0.0
C35 C 0.1591 0.83657 0.17215 0.0
H36 H 0.17433 0.86584 0.82949 0.0
H37 H 0.16802 0.82958 0.85848 0.0
H38 H 0.20472 0.85882 0.86538 0.0
C39 C 0.17785 0.85945 0.83885 0.0
C40 C 0.19054 0.8637 0.84688 0.0
C41 C 0.16966 0.84709 0.84287 0.0
C42 C 0.17429 0.83905 0.85522 0.0
C43 C 0.18685 0.84325 0.8635 0.0
C44 C 0.19498 0.85552 0.85914 0.0
H45 H 0.1882 0.20594 0.87389 0.0
H46 H 0.2181 0.17093 0.8682 0.0
H47 H 0.18213 0.17661 0.83748 0.0
C48 C 0.19183 0.19677 0.86759 0.0
C49 C 0.1838 0.19245 0.85492 0.0
C50 C 0.20422 0.18911 0.8725 0.0
C51 C 0.20842 0.17675 0.86465 0.0
C52 C 0.20049 0.17209 0.85201 0.0
C53 C 0.18825 0.18008 0.84722 0.0
H54 H 0.8422 0.17885 0.8546 0.0
H55 H 0.8712 0.17741 0.81887 0.0
H56 H 0.87834 0.209 0.85333 0.0
C57 C 0.85166 0.18305 0.84915 0.0
C58 C 0.85962 0.19483 0.85537 0.0
C59 C 0.85576 0.17662 0.83603 0.0
C60 C 0.86815 0.1821 0.82915 0.0
C61 C 0.87639 0.19383 0.83524 0.0
C62 C 0.87195 0.20017 0.84834 0.0
H63 H 0.82895 0.87664 0.8374 0.0
H64 H 0.85784 0.84083 0.84494 0.0
H65 H 0.86487 0.87038 0.80936 0.0
C66 C 0.83851 0.87062 0.83454 0.0
C67 C 0.84663 0.87521 0.82264 0.0
C68 C 0.84236 0.85814 0.84256 0.0
C69 C 0.85452 0.85016 0.83848 0.0
C70 C 0.86274 0.85441 0.82649 0.0
C71 C 0.85865 0.86696 0.8186 0.0
H72 H 0.17283 0.71259 0.65562 0.0
H73 H 0.20897 0.68403 0.6498 0.0
H74 H 0.18148 0.67817 0.68635 0.0
C75 C 0.17947 0.70358 0.65935 0.0
C76 C 0.17578 0.69599 0.67205 0.0
C77 C 0.19134 0.69925 0.65113 0.0
C78 C 0.19961 0.68723 0.65586 0.0
C79 C 0.19617 0.67958 0.66858 0.0
C80 C 0.18424 0.68405 0.67657 0.0
H81 H 0.87505 0.68604 0.69312 0.0
H82 H 0.86785 0.71411 0.65619 0.0
H83 H 0.83753 0.67908 0.66444 0.0
C84 C 0.86864 0.68899 0.68346 0.0
C85 C 0.85587 0.68098 0.67971 0.0
C86 C 0.87301 0.70102 0.67511 0.0
C87 C 0.86435 0.70508 0.66288 0.0
C88 C 0.85151 0.69721 0.65891 0.0
C89 C 0.84738 0.6852 0.66742 0.0
H90 H 0.83172 0.36891 0.66697 0.0
H91 H 0.86742 0.33967 0.67432 0.0
H92 H 0.86215 0.37612 0.70312 0.0
C93 C 0.84144 0.36583 0.6732 0.0
C94 C 0.84604 0.37413 0.68549 0.0
C95 C 0.84899 0.35329 0.66917 0.0
C96 C 0.86134 0.34911 0.67758 0.0
C97 C 0.8662 0.35729 0.68984 0.0
C98 C 0.85847 0.36977 0.69368 0.0
H99 H 0.16848 0.3705 0.71033 0.0
H100 H 0.20317 0.37595 0.68051 0.0
H101 H 0.17324 0.33962 0.67548 0.0
C102 C 0.1741 0.36689 0.70082 0.0
C103 C 0.16917 0.35425 0.69329 0.0
C104 C 0.18651 0.37467 0.69644 0.0
C105 C 0.19394 0.36969 0.68429 0.0
C106 C 0.18934 0.35701 0.67669 0.0
C107 C 0.17692 0.34937 0.68128 0.0
H108 H 0.16184 0.35027 0.33614 0.0
H109 H 0.16163 0.31944 0.37135 0.0
H110 H 0.19679 0.35088 0.3685 0.0
C111 C 0.16677 0.34598 0.34611 0.0
C112 C 0.17992 0.35215 0.35163 0.0
C113 C 0.16011 0.33414 0.35306 0.0
C114 C 0.1669 0.32832 0.3657 0.0
C115 C 0.18014 0.33428 0.37143 0.0
C116 C 0.18661 0.34618 0.36424 0.0
H117 H 0.17543 0.68148 0.34613 0.0
H118 H 0.20878 0.64927 0.35071 0.0
H119 H 0.17575 0.64485 0.31661 0.0
C120 C 0.18028 0.67147 0.34249 0.0
C121 C 0.17416 0.66399 0.33022 0.0
C122 C 0.19261 0.66606 0.35013 0.0
C123 C 0.19896 0.65318 0.34522 0.0
C124 C 0.19304 0.64547 0.33311 0.0
C125 C 0.18062 0.65096 0.3257 0.0
H126 H 0.83121 0.67303 0.35777 0.0
H127 H 0.86342 0.66919 0.32501 0.0
H128 H 0.86547 0.7052 0.35515 0.0
C129 C 0.84074 0.67726 0.35245 0.0
C130 C 0.84777 0.68994 0.35796 0.0
C131 C 0.84623 0.66968 0.34051 0.0
C132 C 0.85903 0.67498 0.33413 0.0
C133 C 0.86622 0.68768 0.33949 0.0
C134 C 0.86035 0.69512 0.35128 0.0
H135 H 0.82411 0.36398 0.35907 0.0
H136 H 0.8519 0.32731 0.36673 0.0
H137 H 0.8598 0.35614 0.33093 0.0
C138 C 0.83334 0.35755 0.35605 0.0
C139 C 0.84133 0.36152 0.34379 0.0
C140 C 0.83726 0.34539 0.36456 0.0
C141 C 0.84914 0.33698 0.36051 0.0
C142 C 0.85726 0.34067 0.34832 0.0
C143 C 0.85328 0.35298 0.34006 0.0
H144 H 0.6757 0.2046 0.66079 0.0
H145 H 0.70729 0.17177 0.65211 0.0
H146 H 0.67917 0.16675 0.68824 0.0
C147 C 0.68065 0.19424 0.66342 0.0
C148 C 0.67592 0.18625 0.6755 0.0
C149 C 0.69205 0.18919 0.65496 0.0
C150 C 0.69876 0.17595 0.65876 0.0
C151 C 0.69421 0.16779 0.67076 0.0
C152 C 0.68277 0.17303 0.67902 0.0
H153 H 0.37604 0.1834 0.70151 0.0
H154 H 0.37016 0.21359 0.66613 0.0
H155 H 0.33788 0.18005 0.67304 0.0
C156 C 0.36959 0.1873 0.69225 0.0
C157 C 0.3564 0.18011 0.6882 0.0
C158 C 0.37458 0.19949 0.68447 0.0
C159 C 0.36619 0.20446 0.67241 0.0
C160 C 0.35302 0.19739 0.66806 0.0
C161 C 0.34821 0.18526 0.67606 0.0
H162 H 0.32042 0.87449 0.66567 0.0
H163 H 0.35602 0.84494 0.67181 0.0
H164 H 0.35116 0.88039 0.70182 0.0
C165 C 0.33004 0.87107 0.67183 0.0
C166 C 0.33461 0.87877 0.68455 0.0
C167 C 0.33788 0.859 0.66699 0.0
C168 C 0.35028 0.85455 0.67517 0.0
C169 C 0.3551 0.8621 0.68782 0.0
C170 C 0.34722 0.87423 0.69236 0.0
H171 H 0.65165 0.85609 0.69855 0.0
H172 H 0.68655 0.86237 0.66919 0.0
H173 H 0.65601 0.82678 0.66222 0.0
C174 C 0.65732 0.8527 0.68898 0.0
C175 C 0.6523 0.84039 0.68096 0.0
C176 C 0.66954 0.86079 0.68469 0.0
C177 C 0.6769 0.85637 0.67232 0.0
C178 C 0.6722 0.84404 0.66421 0.0
C179 C 0.65991 0.83607 0.66864 0.0
H180 H 0.65813 0.84661 0.32852 0.0
H181 H 0.65594 0.81272 0.36085 0.0
H182 H 0.69162 0.84351 0.36238 0.0
C183 C 0.66279 0.84111 0.33799 0.0
C184 C 0.67579 0.8466 0.34474 0.0
C185 C 0.65544 0.82892 0.34379 0.0
C186 C 0.66144 0.82212 0.35632 0.0
C187 C 0.67435 0.82742 0.3632 0.0
C188 C 0.68145 0.83961 0.3573 0.0
H189 H 0.67741 0.18339 0.35478 0.0
H190 H 0.70616 0.14715 0.35045 0.0
H191 H 0.66949 0.152 0.32043 0.0
C192 C 0.68031 0.1734 0.34933 0.0
C193 C 0.67174 0.16846 0.33725 0.0
C194 C 0.69278 0.16586 0.3542 0.0
C195 C 0.69679 0.15326 0.34659 0.0
C196 C 0.68852 0.14819 0.33431 0.0
C197 C 0.67598 0.15586 0.32979 0.0
H198 H 0.33159 0.17958 0.37149 0.0
H199 H 0.35903 0.16795 0.33645 0.0
H200 H 0.37021 0.20511 0.36355 0.0
C201 C 0.34122 0.1816 0.36525 0.0
C202 C 0.3505 0.1935 0.36894 0.0
C203 C 0.3442 0.17234 0.35355 0.0
C204 C 0.3567 0.17503 0.34552 0.0
C205 C 0.36619 0.1868 0.34904 0.0
C206 C 0.36299 0.19598 0.36078 0.0
H207 H 0.32236 0.87225 0.357 0.0
H208 H 0.3546 0.83858 0.35745 0.0
H209 H 0.35467 0.87163 0.32429 0.0
C210 C 0.33175 0.86725 0.35234 0.0
C211 C 0.33793 0.87357 0.34001 0.0
C212 C 0.3376 0.85458 0.35874 0.0
C213 C 0.34978 0.84816 0.35249 0.0
C214 C 0.35614 0.85438 0.34018 0.0
C215 C 0.35008 0.86703 0.33403 0.0
H216 H 0.66337 0.70995 0.15668 0.0
H217 H 0.6972 0.67842 0.15344 0.0
H218 H 0.66649 0.67504 0.1878 0.0
C219 C 0.6689 0.7004 0.1609 0.0
C220 C 0.66362 0.6933 0.17323 0.0
C221 C 0.68089 0.69503 0.15362 0.0
C222 C 0.6877 0.68236 0.15883 0.0
C223 C 0.68267 0.67506 0.17121 0.0
C224 C 0.67054 0.68059 0.17831 0.0
H225 H 0.35536 0.66141 0.19249 0.0
H226 H 0.35605 0.69729 0.16225 0.0
H227 H 0.32276 0.66389 0.15793 0.0
C228 C 0.35078 0.66702 0.18306 0.0
C229 C 0.33834 0.6611 0.17573 0.0
C230 C 0.35736 0.68005 0.17826 0.0
C231 C 0.35111 0.68726 0.16605 0.0
C232 C 0.33853 0.68158 0.1587 0.0
C233 C 0.33234 0.66845 0.1636 0.0
H234 H 0.34332 0.35574 0.17594 0.0
H235 H 0.37773 0.32437 0.1771 0.0
H236 H 0.37512 0.35616 0.21143 0.0
C237 C 0.35293 0.3512 0.18127 0.0
C238 C 0.35861 0.35762 0.19427 0.0
C239 C 0.35963 0.33905 0.17507 0.0
C240 C 0.3722 0.33337 0.18208 0.0
C241 C 0.378 0.33955 0.19515 0.0
C242 C 0.37102 0.35159 0.20116 0.0
H243 H 0.66713 0.36889 0.20025 0.0
H244 H 0.70056 0.37475 0.16881 0.0
H245 H 0.67022 0.33877 0.1646 0.0
C246 C 0.67257 0.3653 0.19061 0.0
C247 C 0.66719 0.35292 0.18297 0.0
C248 C 0.68458 0.37336 0.18557 0.0
C249 C 0.69127 0.36872 0.17278 0.0
C250 C 0.68599 0.35638 0.16502 0.0
C251 C 0.67402 0.34857 0.17027 0.0
H252 H 0.67787 0.3669 0.83036 0.0
H253 H 0.67425 0.33357 0.86317 0.0
H254 H 0.71031 0.3641 0.86504 0.0
C255 C 0.68191 0.3617 0.84027 0.0
C256 C 0.69486 0.36696 0.84714 0.0
C257 C 0.67446 0.34947 0.8458 0.0
C258 C 0.68009 0.34271 0.85855 0.0
C259 C 0.69295 0.348 0.86568 0.0
C260 C 0.7003 0.36003 0.85976 0.0
H261 H 0.67841 0.70083 0.85156 0.0
H262 H 0.70904 0.66631 0.84678 0.0
H263 H 0.67258 0.67021 0.81621 0.0
C264 C 0.68208 0.69138 0.84567 0.0
C265 C 0.67407 0.68649 0.83323 0.0
C266 C 0.69464 0.68413 0.85072 0.0
C267 C 0.69932 0.67191 0.84297 0.0
C268 C 0.69145 0.66675 0.83049 0.0
C269 C 0.67881 0.67413 0.82572 0.0
H270 H 0.33151 0.67671 0.86092 0.0
H271 H 0.36157 0.67128 0.82649 0.0
H272 H 0.36574 0.7085 0.85498 0.0
C273 C 0.34071 0.68068 0.85491 0.0
C274 C 0.34802 0.69362 0.85943 0.0
C275 C 0.34553 0.67251 0.84306 0.0
C276 C 0.35778 0.6775 0.83563 0.0
C277 C 0.36526 0.69039 0.83992 0.0
C278 C 0.36026 0.69837 0.85182 0.0
H279 H 0.33788 0.36823 0.85805 0.0
H280 H 0.36703 0.33262 0.86587 0.0
H281 H 0.37212 0.36019 0.82843 0.0
C282 C 0.3471 0.36187 0.85487 0.0
C283 C 0.35463 0.36582 0.84235 0.0
C284 C 0.35138 0.34979 0.86332 0.0
C285 C 0.36341 0.34165 0.85913 0.0
C286 C 0.37109 0.34535 0.84662 0.0
C287 C 0.36657 0.35746 0.8383 0.0
Cu288 Cu 0.26669 0.27887 0.02279 0.0
N289 N 0.26779 0.29502 0.01036 0.0
N290 N 0.27488 0.30839 0.99141 0.0
C291 C 0.27552 0.29532 0.99816 0.0
C292 C 0.26638 0.31664 0.99975 0.0
C293 C 0.26202 0.30838 0.01141 0.0
O294 O 0.26558 0.26181 0.00994 0.0
C295 C 0.28378 0.29157 0.04446 0.0
O296 O 0.27377 0.30143 0.04198 0.0
H297 H 0.28178 0.28618 0.99454 0.0
H298 H 0.25534 0.31198 0.02015 0.0
N299 N 0.24999 0.27864 0.03394 0.0
N300 N 0.23492 0.27146 0.05125 0.0
C301 C 0.2478 0.26932 0.04498 0.0
C302 C 0.23803 0.28697 0.0331 0.0
C303 C 0.22874 0.2826 0.04383 0.0
C304 C 0.25396 0.26121 1.00189 0.0
O305 O 0.24426 0.27145 1.00338 0.0
H306 H 0.25564 0.26122 0.04844 0.0
H307 H 0.23607 0.29545 0.02516 0.0
O308 O 0.28323 0.27991 0.03683 0.0
H309 H 0.26347 0.32785 0.9976 0.0
H310 H 0.21815 0.28708 0.04581 0.0
Cu311 Cu 0.77103 0.26421 0.01539 0.0
N312 N 0.75386 0.2691 0.02632 0.0
N313 N 0.74 0.27972 0.04269 0.0
C314 C 0.75312 0.27965 0.03647 0.0
C315 C 0.73219 0.26882 0.03604 0.0
C316 C 0.74081 0.26226 0.02595 0.0
O317 O 0.77944 0.25361 0.03326 0.0
C318 C 0.76108 0.28751 0.99561 0.0
O319 O 0.7663 0.29624 1.00598 0.0
H320 H 0.76204 0.2871 0.03924 0.0
H321 H 0.73788 0.253 0.01907 0.0
N322 N 0.78848 0.25974 1.00467 0.0
N323 N 0.80337 0.2534 0.98704 0.0
C324 C 0.78937 0.25415 0.99112 0.0
C325 C 0.80228 0.2626 0.00931 0.0
C326 C 0.81148 0.25866 0.99851 0.0
C327 C 0.78591 0.26012 0.04397 0.0
O328 O 0.78778 0.27434 0.04351 0.0
H329 H 0.77995 0.2511 0.9843 0.0
H330 H 0.80543 0.26738 0.01975 0.0
O331 O 0.76204 0.27379 0.99725 0.0
H332 H 0.72122 0.2655 0.03859 0.0
H333 H 0.82324 0.25957 0.99913 0.0
Cu334 Cu 0.75365 0.78152 0.99603 0.0
N335 N 0.75311 0.79736 0.98325 0.0
N336 N 0.7595 0.81122 0.96443 0.0
C337 C 0.76143 0.79848 0.97152 0.0
C338 C 0.74951 0.81842 0.97204 0.0
C339 C 0.74556 0.80982 0.98363 0.0
O340 O 0.75449 0.76416 0.98378 0.0
C341 C 0.76901 0.79611 0.01755 0.0
O342 O 0.75798 0.80476 0.01479 0.0
H343 H 0.76909 0.79022 0.96854 0.0
H344 H 0.73795 0.8126 0.99189 0.0
N345 N 0.73712 0.77983 1.00726 0.0
N346 N 0.72333 0.77167 0.02523 0.0
C347 C 0.73657 0.77151 0.01927 0.0
C348 C 0.72378 0.78559 1.0055 0.0
C349 C 0.71524 0.78057 0.01658 0.0
C350 C 0.7429 0.76178 0.97601 0.0
O351 O 0.73196 0.77071 0.97725 0.0
H352 H 0.74582 0.76551 0.02354 0.0
H353 H 0.7204 0.79266 0.99664 0.0
O354 O 0.76993 0.7845 0.00999 0.0
H355 H 0.74537 0.82913 0.96944 0.0
H356 H 0.70388 0.78304 0.01792 0.0
Cu357 Cu 0.26936 0.77672 0.01454 0.0
N358 N 0.26765 0.79205 0.02792 0.0
N359 N 0.259 0.80424 0.04689 0.0
C360 C 0.25869 0.79161 0.03924 0.0
C361 C 0.2686 0.81296 0.04007 0.0
C362 C 0.27392 0.80541 0.0284 0.0
O363 O 0.27204 0.75924 0.02641 0.0
C364 C 0.25046 0.78912 0.99486 0.0
O365 O 0.25928 0.80003 0.99855 0.0
H366 H 0.25179 0.78229 0.04154 0.0
H367 H 0.28155 0.80953 0.02066 0.0
N368 N 0.28531 0.77849 1.00243 0.0
N369 N 0.29926 0.77321 0.98364 0.0
C370 C 0.28657 0.77051 0.99022 0.0
C371 C 0.29763 0.78661 1.00367 0.0
C372 C 0.30627 0.78336 0.9921 0.0
C373 C 0.2843 0.75893 0.03339 0.0
O374 O 0.29365 0.7697 0.03157 0.0
H375 H 0.27845 0.76254 0.9865 0.0
H376 H 0.30033 0.7941 0.0125 0.0
O377 O 0.25235 0.77685 1.00113 0.0
H378 H 0.27157 0.82401 0.04325 0.0
H379 H 0.31689 0.78807 0.99012 0.0
Cu380 Cu 0.01057 0.24476 0.28321 0.0
N381 N 0.02302 0.22881 0.28235 0.0
N382 N 0.04145 0.21572 0.27423 0.0
C383 C 0.03351 0.2279 0.27253 0.0
C384 C 0.03572 0.20866 0.28563 0.0
C385 C 0.02429 0.21673 0.29059 0.0
O386 O 0.0234 0.26159 0.28671 0.0
C387 C 0.99259 0.23273 0.26211 0.0
O388 O 0.99541 0.22153 0.27059 0.0
H389 H 0.03546 0.23625 0.26448 0.0
H390 H 0.01745 0.21394 0.29953 0.0
N391 N 0.99716 0.24413 0.29812 0.0
N392 N 0.97782 0.25125 0.31039 0.0
C393 C 0.98528 0.25256 0.29803 0.0
C394 C 0.99725 0.23714 0.31101 0.0
C395 C 0.98533 0.24153 0.31861 0.0
C396 C 0.03039 0.261 0.29895 0.0
O397 O 0.02781 0.24991 0.30757 0.0
H398 H 0.98255 0.26001 0.28925 0.0
H399 H 1.00561 0.2298 0.31489 0.0
O400 O 0.99871 0.24498 0.26521 0.0
H401 H 0.03944 0.19835 0.28999 0.0
H402 H 0.98256 0.23798 0.32942 0.0
Cu403 Cu 0.77047 1.00024 0.26663 0.0
N404 N 0.78668 0.01301 0.26672 0.0
N405 N 0.80012 0.03231 0.26007 0.0
C406 C 0.78764 0.02456 0.25773 0.0
C407 C 0.80734 0.02534 0.271 0.0
C408 C 0.79906 0.0134 0.27505 0.0
O409 O 0.75372 0.01314 0.26787 0.0
C410 C 0.78386 0.98087 0.24927 0.0
O411 O 0.79361 0.98347 0.25981 0.0
H412 H 0.77914 0.02735 0.24979 0.0
H413 H 0.80195 1.00556 0.28338 0.0
N414 N 0.7698 0.98747 0.28258 0.0
N415 N 0.76161 0.96887 0.29602 0.0
C416 C 0.76069 0.97582 0.28306 0.0
C417 C 0.77681 0.98792 0.29572 0.0
C418 C 0.77178 0.97647 0.30401 0.0
C419 C 0.75422 0.02055 0.2797 0.0
O420 O 0.76508 0.0183 0.28909 0.0
H421 H 0.75318 0.97284 0.27416 0.0
H422 H 0.78469 0.99618 0.29922 0.0
O423 O 0.77175 0.98755 0.24951 0.0
H424 H 0.81793 0.02851 0.27562 0.0
H425 H 0.77532 0.97402 0.3151 0.0
Cu426 Cu 0.01365 0.74628 0.25058 0.0
N427 N 1.00164 0.74907 0.23389 0.0
N428 N 0.9833 0.75796 0.21994 0.0
C429 C 0.9886 0.75565 0.23366 0.0
C430 C 0.99341 0.75244 0.21119 0.0
C431 C 1.00471 0.74701 0.21982 0.0
O432 O 1.00112 0.74178 0.26661 0.0
C433 C 0.02577 0.77481 0.24628 0.0
O434 O 0.01335 0.77778 0.23948 0.0
H435 H 0.98354 0.75948 0.24338 0.0
H436 H 0.01471 0.74245 0.21608 0.0
N437 N 0.02598 0.73039 0.24891 0.0
N438 N 0.04487 0.71602 0.25453 0.0
C439 C 0.03736 0.72796 0.2582 0.0
C440 C 0.0262 0.71959 0.23896 0.0
C441 C 0.0379 0.71073 0.24238 0.0
C442 C 0.99276 0.75041 0.27311 0.0
O443 O 0.99342 0.76445 0.27033 0.0
H444 H 0.04023 0.73505 0.26733 0.0
H445 H 0.01847 0.71826 0.22988 0.0
O446 O 0.02701 0.76285 0.25321 0.0
H447 H 0.99292 0.75259 0.1994 0.0
H448 H 0.04092 0.70108 0.23645 0.0
Cu449 Cu 0.24436 0.02018 0.27859 0.0
N450 N 0.24449 0.03272 0.29466 0.0
N451 N 0.25186 0.05144 0.30888 0.0
C452 C 0.25315 0.04464 0.29594 0.0
C453 C 0.24194 0.04343 0.31604 0.0
C454 C 0.23738 0.03189 0.30722 0.0
O455 O 0.24456 0.03257 0.26141 0.0
C456 C 0.26055 0.9995 0.29246 0.0
O457 O 0.24975 1.00127 0.30129 0.0
H458 H 0.26065 0.04793 0.28768 0.0
H459 H 0.22973 0.02333 0.30993 0.0
N460 N 0.22781 0.0081 0.27712 0.0
N461 N 0.21371 0.98942 0.26923 0.0
C462 C 0.22693 0.99599 0.26884 0.0
C463 C 0.21467 0.00931 0.28304 0.0
C464 C 0.20592 0.99779 0.27816 0.0
C465 C 0.23313 0.04014 0.25956 0.0
O466 O 0.22267 0.03861 0.26887 0.0
H467 H 0.23579 0.99232 0.26234 0.0
H468 H 0.21158 0.01805 0.29017 0.0
O469 O 0.26086 1.00725 0.28097 0.0
H470 H 0.23829 0.04568 0.3269 0.0
H471 H 0.19473 0.99575 0.28098 0.0
Cu472 Cu 0.0217 0.76617 0.76317 0.0
N473 N 0.03425 0.75026 0.76277 0.0
N474 N 0.05311 0.73718 0.75554 0.0
C475 C 0.04624 0.75009 0.75474 0.0
C476 C 0.04509 0.72888 0.76449 0.0
C477 C 0.03347 0.73697 0.76894 0.0
O478 O 0.03446 0.78319 0.76628 0.0
C479 C 1.00338 0.75388 0.74225 0.0
O480 O 1.00607 0.74274 0.75085 0.0
H481 H 0.04953 0.75917 0.74804 0.0
H482 H 0.02486 0.73321 0.77578 0.0
N483 N 0.00832 0.76562 0.77811 0.0
N484 N 0.98899 0.77246 0.79049 0.0
C485 C 0.99719 0.77494 0.7788 0.0
C486 C 1.0072 0.7569 0.78982 0.0
C487 C 0.99522 0.76106 0.79744 0.0
C488 C 0.04013 0.78429 0.77913 0.0
O489 O 0.03635 0.77469 0.78896 0.0
H490 H 0.99507 0.78331 0.77073 0.0
H491 H 0.01464 0.74831 0.79279 0.0
O492 O 0.0097 0.76607 0.74517 0.0
H493 H 0.04735 0.71773 0.76753 0.0
H494 H 0.99157 0.75627 0.80747 0.0
Cu495 Cu 0.27826 0.02469 0.77777 0.0
N496 N 0.2949 0.03673 0.77717 0.0
N497 N 0.30927 0.05491 0.76957 0.0
C498 C 0.29646 0.04764 0.76753 0.0
C499 C 0.31606 0.04828 0.78099 0.0
C500 C 0.30719 0.03703 0.78562 0.0
O501 O 0.26195 0.03798 0.77975 0.0
C502 C 0.28953 1.00471 0.75964 0.0
O503 O 0.29982 1.00655 0.76984 0.0
H504 H 0.28818 0.05034 0.75933 0.0
H505 H 0.3096 0.02959 0.79446 0.0
N506 N 0.27831 0.01175 0.79361 0.0
N507 N 0.27152 0.99243 0.80674 0.0
C508 C 0.27058 0.99914 0.79368 0.0
C509 C 0.28449 0.013 0.8071 0.0
C510 C 0.28025 1.00112 0.81525 0.0
C511 C 0.26266 0.04528 0.79163 0.0
O512 O 0.27363 0.043 0.80087 0.0
H513 H 0.26393 0.99526 0.78445 0.0
H514 H 0.29124 0.02207 0.81093 0.0
O515 O 0.27801 0.01225 0.76043 0.0
H516 H 0.32673 0.05123 0.78555 0.0
H517 H 0.28325 0.99911 0.82658 0.0
Cu518 Cu 0.02574 0.28323 0.77936 0.0
N519 N 0.01323 0.29922 0.77944 0.0
N520 N 0.99411 0.31278 0.77255 0.0
C521 C 1.00082 0.29986 0.77121 0.0
C522 C 1.00267 0.32059 0.78207 0.0
C523 C 0.01444 0.3122 0.78631 0.0
O524 O 0.01292 0.26611 0.77986 0.0
C525 C 0.04488 0.29702 0.76179 0.0
O526 O 0.04301 0.30679 0.77203 0.0
H527 H 0.99708 0.29112 0.764 0.0
H528 H 0.02341 0.31553 0.79356 0.0
N529 N 0.03882 0.28237 0.79548 0.0
N530 N 0.05784 0.2746 0.80913 0.0
C531 C 0.04996 0.27299 0.79651 0.0
C532 C 0.03961 0.29019 0.80793 0.0
C533 C 0.05138 0.28546 0.81635 0.0
C534 C 1.00627 0.26482 0.79178 0.0
O535 O 0.00921 0.27436 0.80222 0.0
H536 H 0.05232 0.26524 0.78802 0.0
H537 H 0.03209 0.29857 0.81082 0.0
O538 O 0.03785 0.28495 0.76238 0.0
H539 H 1.00065 0.3316 0.78567 0.0
H540 H 0.05475 0.28951 0.82705 0.0
Cu541 Cu 0.75696 0.02104 0.76043 0.0
N542 N 0.75936 0.03398 0.77614 0.0
N543 N 0.76862 0.05272 0.78924 0.0
C544 C 0.76915 0.04505 0.7767 0.0
C545 C 0.75805 0.04621 0.79688 0.0
C546 C 0.75239 0.0346 0.78879 0.0
O547 O 0.7549 0.03315 0.74306 0.0
C548 C 0.77656 1.00203 0.77281 0.0
O549 O 0.76875 1.00533 0.78404 0.0
H550 H 0.77642 0.0475 0.76797 0.0
H551 H 0.74398 0.02704 0.79205 0.0
N552 N 0.74039 0.00903 0.76169 0.0
N553 N 0.72536 0.99003 0.75685 0.0
C554 C 0.73867 0.99607 0.75488 0.0
C555 C 0.72776 0.01131 0.76828 0.0
C556 C 0.71849 0.99962 0.76533 0.0
C557 C 0.7434 0.04077 0.74234 0.0
O558 O 0.73404 0.03951 0.75277 0.0
H559 H 0.74708 0.99127 0.74852 0.0
H560 H 0.72525 0.02099 0.7744 0.0
O561 O 0.77359 0.00808 0.7606 0.0
H562 H 0.75484 0.04943 0.80765 0.0
H563 H 0.70737 0.99857 0.76877 0.0
Cu564 Cu 0.27298 0.76392 0.5049 0.0
N565 N 0.28819 0.76517 0.51901 0.0
N566 N 0.30032 0.77321 0.53914 0.0
C567 C 0.28778 0.77363 0.531 0.0
C568 C 0.30897 0.76407 0.53193 0.0
C569 C 0.30146 0.75912 0.51953 0.0
O570 O 0.25522 0.76346 0.51604 0.0
C571 C 0.28718 0.77991 0.48472 0.0
O572 O 0.29638 0.76946 0.48787 0.0
H573 H 0.27855 0.7803 0.53344 0.0
H574 H 0.30554 0.75187 0.51136 0.0
N575 N 0.27322 0.74704 0.49333 0.0
N576 N 0.26665 0.73169 0.47516 0.0
C577 C 0.26472 0.74493 0.48122 0.0
C578 C 0.28088 0.73471 0.49501 0.0
C579 C 0.27683 0.72522 0.48384 0.0
C580 C 0.25295 0.75142 0.5226 0.0
O581 O 0.26194 0.74065 0.52066 0.0
H582 H 0.257 0.75289 0.47718 0.0
H583 H 0.28863 0.73264 0.50387 0.0
O584 O 0.27522 0.78016 0.49139 0.0
H585 H 0.31995 0.76117 0.53533 0.0
H586 H 0.28107 0.71441 0.48224 0.0
Cu587 Cu 0.76925 0.77539 0.51259 0.0
N588 N 0.7845 0.77687 0.49967 0.0
N589 N 0.79792 0.77045 0.48087 0.0
C590 C 0.78563 0.76789 0.48817 0.0
C591 C 0.80476 0.7816 0.48807 0.0
C592 C 0.79647 0.78552 0.4997 0.0
O593 O 0.75158 0.77383 0.50024 0.0
C594 C 0.78551 0.75999 0.53233 0.0
O595 O 0.79391 0.77137 0.52983 0.0
H596 H 0.77755 0.75956 0.48531 0.0
H597 H 0.79926 0.79375 0.50782 0.0
N598 N 0.76756 0.79152 0.52491 0.0
N599 N 0.75902 0.80458 0.5433 0.0
C600 C 0.75895 0.79152 0.53647 0.0
C601 C 0.77336 0.80507 0.52435 0.0
C602 C 0.76809 0.81317 0.53568 0.0
C603 C 0.74834 0.7856 0.49358 0.0
O604 O 0.75653 0.79727 0.49612 0.0
H605 H 0.75241 0.78216 0.5395 0.0
H606 H 0.78059 0.80894 0.51611 0.0
O607 O 0.77323 0.75892 0.52545 0.0
H608 H 0.81524 0.78628 0.48546 0.0
H609 H 0.7707 0.82449 0.53806 0.0
Cu610 Cu 0.777 0.25687 0.50991 0.0
N611 N 0.77816 0.24044 0.49781 0.0
N612 N 0.77222 0.22506 0.47948 0.0
C613 C 0.76903 0.23763 0.4863 0.0
C614 C 0.78385 0.21974 0.48703 0.0
C615 C 0.78745 0.22921 0.49836 0.0
O616 O 0.77632 0.27367 0.49688 0.0
C617 C 0.75998 0.24239 0.52915 0.0
O618 O 0.77051 0.23309 0.52727 0.0
H619 H 0.76027 0.24478 0.48294 0.0
H620 H 0.79606 0.22783 0.50655 0.0
N621 N 0.79304 0.25935 0.52298 0.0
N622 N 0.80612 0.26836 0.54216 0.0
C623 C 0.79291 0.26758 0.53516 0.0
C624 C 0.80681 0.25467 0.52221 0.0
C625 C 0.81488 0.26018 0.534 0.0
C626 C 0.78807 0.27602 0.4902 0.0
O627 O 0.79915 0.26742 0.49283 0.0
H628 H 0.78324 0.27297 0.53869 0.0
H629 H 0.81088 0.24816 0.51345 0.0
O630 O 0.76013 0.2543 0.52201 0.0
H631 H 0.78917 0.20958 0.48473 0.0
H632 H 0.82643 0.25866 0.53607 0.0
Cu633 Cu 0.27955 0.28477 0.52179 0.0
N634 N 0.27788 0.30104 0.53395 0.0
N635 N 0.2696 0.31459 0.5521 0.0
C636 C 0.26853 0.30175 0.54489 0.0
C637 C 0.28008 0.32228 0.54542 0.0
C638 C 0.28513 0.31392 0.53418 0.0
O639 O 0.28218 0.26808 0.53478 0.0
C640 C 0.26067 0.29578 0.50117 0.0
O641 O 0.26974 0.30678 0.50375 0.0
H642 H 0.26122 0.29287 0.54762 0.0
H643 H 0.29337 0.3171 0.52664 0.0
N644 N 0.29563 0.2858 0.50982 0.0
N645 N 0.30958 0.27985 0.49126 0.0
C646 C 0.29659 0.27795 0.49749 0.0
C647 C 0.30848 0.29298 0.5115 0.0
C648 C 0.31712 0.28932 0.50007 0.0
C649 C 0.29382 0.2689 0.54279 0.0
O650 O 0.30246 0.28032 0.54137 0.0
H651 H 0.28804 0.27057 0.49348 0.0
H652 H 0.31155 0.30006 0.52057 0.0
O653 O 0.2625 0.28407 0.50845 0.0
H654 H 0.28368 0.33325 0.54829 0.0
H655 H 0.32812 0.29324 0.49845 0.0
Cu656 Cu 0.78219 0.52313 0.76809 0.0
N657 N 0.79812 0.5361 0.76825 0.0
N658 N 0.81169 0.55531 0.76169 0.0
C659 C 0.79882 0.5481 0.75987 0.0
C660 C 0.8194 0.54749 0.77166 0.0
C661 C 0.81099 0.53567 0.77572 0.0
O662 O 0.76488 0.53527 0.76798 0.0
C663 C 0.79555 0.50269 0.75177 0.0
O664 O 0.80518 0.50518 0.76245 0.0
H665 H 0.79013 0.55123 0.75228 0.0
H666 H 0.81413 0.52725 0.78338 0.0
N667 N 0.78191 0.51123 0.78463 0.0
N668 N 0.77482 0.49294 0.79891 0.0
C669 C 0.774 0.4988 0.78545 0.0
C670 C 0.78807 0.51327 0.79803 0.0
C671 C 0.78364 0.50202 0.8069 0.0
C672 C 0.76358 0.54265 0.77966 0.0
O673 O 0.77348 0.54123 0.79022 0.0
H674 H 0.76733 0.49444 0.77644 0.0
H675 H 0.79493 0.52249 0.80127 0.0
O676 O 0.78377 0.50989 0.75154 0.0
H677 H 0.83033 0.55012 0.77577 0.0
H678 H 0.78656 0.50069 0.81835 0.0
Cu679 Cu 0.28062 0.52388 0.75268 0.0
N680 N 0.29661 0.51141 0.75366 0.0
N681 N 0.31019 0.49247 0.76084 0.0
C682 C 0.2973 0.49926 0.76185 0.0
C683 C 0.31791 0.50074 0.75161 0.0
C684 C 0.30951 0.5124 0.74719 0.0
O685 O 0.26335 0.51123 0.75179 0.0
C686 C 0.29397 0.54438 0.77056 0.0
O687 O 0.30405 0.54201 0.76107 0.0
H688 H 0.28856 0.49568 0.76868 0.0
H689 H 0.31271 0.52107 0.73997 0.0
N690 N 0.28026 0.53567 0.73603 0.0
N691 N 0.27363 0.55393 0.7212 0.0
C692 C 0.27214 0.54769 0.7344 0.0
C693 C 0.28717 0.53419 0.72343 0.0
C694 C 0.28313 0.54547 0.71427 0.0
C695 C 0.26224 0.50325 0.7404 0.0
O696 O 0.27222 0.50463 0.73057 0.0
H697 H 0.2653 0.55178 0.74281 0.0
H698 H 0.29437 0.52538 0.72092 0.0
O699 O 0.28202 0.53715 0.76933 0.0
H700 H 0.32884 0.49854 0.74822 0.0
H701 H 0.28664 0.54706 0.70324 0.0
Cu702 Cu 0.26444 0.49957 0.25598 0.0
N703 N 0.2476 0.48807 0.25707 0.0
N704 N 0.23288 0.47024 0.26474 0.0
C705 C 0.24667 0.47556 0.26463 0.0
C706 C 0.22485 0.47977 0.25676 0.0
C707 C 0.23397 0.49077 0.25204 0.0
O708 O 0.28062 0.48601 0.25631 0.0
C709 C 0.25692 0.51337 0.28263 0.0
O710 O 0.2499 0.50116 0.28534 0.0
H711 H 0.25585 0.47092 0.27059 0.0
H712 H 0.23085 0.50026 0.24576 0.0
N713 N 0.26427 0.51031 0.23876 0.0
N714 N 0.26938 0.52868 0.22369 0.0
C715 C 0.27047 0.52361 0.23748 0.0
C716 C 0.25895 0.50677 0.22535 0.0
C717 C 0.26211 0.5181 0.216 0.0
C718 C 0.29134 0.48701 0.24792 0.0
O719 O 0.29303 0.49887 0.24014 0.0
H720 H 0.27615 0.52917 0.24646 0.0
H721 H 0.25338 0.49662 0.22255 0.0
O722 O 0.26489 0.51409 0.27156 0.0
H723 H 0.21319 0.47902 0.25467 0.0
H724 H 0.25929 0.51845 0.20446 0.0
Cu725 Cu 0.7741 0.5214 0.25256 0.0
N726 N 0.78957 0.50827 0.25308 0.0
N727 N 0.80247 0.48899 0.26058 0.0
C728 C 0.79037 0.4969 0.26232 0.0
C729 C 0.80959 0.49565 0.24976 0.0
C730 C 0.80164 0.50759 0.24519 0.0
O731 O 0.75654 0.50904 0.25177 0.0
C732 C 0.78907 0.54082 0.27031 0.0
O733 O 0.79878 0.53752 0.26071 0.0
H734 H 0.78209 0.49441 0.27009 0.0
H735 H 0.80462 0.5153 0.2369 0.0
N736 N 0.77346 0.53371 0.23625 0.0
N737 N 0.76581 0.55216 0.22211 0.0
C738 C 0.76499 0.54556 0.23521 0.0
C739 C 0.77993 0.53276 0.22335 0.0
C740 C 0.77523 0.54411 0.21461 0.0
C741 C 0.75444 0.50232 0.23967 0.0
O742 O 0.76354 0.50477 0.2292 0.0
H743 H 0.758 0.54896 0.2438 0.0
H744 H 0.78719 0.5242 0.2203 0.0
O745 O 0.7766 0.53448 0.26935 0.0
H746 H 0.81993 0.49233 0.24564 0.0
H747 H 0.77845 0.54619 0.20357 0.0
Cu748 Cu 0.52658 0.25945 0.77327 0.0
N749 N 0.51417 0.2585 0.78904 0.0
N750 N 0.49559 0.26491 0.80271 0.0
C751 C 0.50268 0.26731 0.79029 0.0
C752 C 0.5029 0.2541 0.80956 0.0
C753 C 0.51442 0.25022 0.80114 0.0
O754 O 0.51357 0.25985 0.75597 0.0
C755 C 0.5469 0.27594 0.78842 0.0
O756 O 0.54474 0.26487 0.79719 0.0
H757 H 0.49961 0.27534 0.78217 0.0
H758 H 0.52256 0.24222 0.80392 0.0
N759 N 0.5389 0.24344 0.77155 0.0
N760 N 0.55694 0.23025 0.76275 0.0
C761 C 0.54972 0.24296 0.76204 0.0
C762 C 0.53921 0.23053 0.77851 0.0
C763 C 0.55038 0.2224 0.77315 0.0
C764 C 0.50697 0.24774 0.75328 0.0
O765 O 0.50998 0.23651 0.76166 0.0
H766 H 0.5523 0.25187 0.7548 0.0
H767 H 0.53169 0.22707 0.78664 0.0
O768 O 0.53954 0.27634 0.77637 0.0
H769 H 0.50037 0.24962 0.8201 0.0
H770 H 0.55322 0.21143 0.77639 0.0
Cu771 Cu 0.50892 0.77211 0.76877 0.0
N772 N 0.52142 0.7693 0.78501 0.0
N773 N 0.54066 0.76118 0.79806 0.0
C774 C 0.53491 0.76378 0.78459 0.0
C775 C 0.53037 0.76533 0.80733 0.0
C776 C 0.51851 0.77032 0.79924 0.0
O777 O 0.52114 0.77417 0.75193 0.0
C778 C 0.49512 0.74467 0.77487 0.0
O779 O 0.50735 0.74149 0.78193 0.0
H780 H 0.54004 0.76096 0.77454 0.0
H781 H 0.50827 0.77387 0.80341 0.0
N782 N 0.49794 0.78898 0.77052 0.0
N783 N 0.4805 0.80511 0.76529 0.0
C784 C 0.48725 0.79294 0.76099 0.0
C785 C 0.49803 0.79901 0.78126 0.0
C786 C 0.48725 0.80897 0.77807 0.0
C787 C 0.52798 0.78631 0.75099 0.0
O788 O 0.52594 0.7964 0.76087 0.0
H789 H 0.48421 0.78669 0.75129 0.0
H790 H 0.5053 0.799 0.79079 0.0
O791 O 0.49444 0.75636 0.76742 0.0
H792 H 0.53121 0.76453 0.81909 0.0
H793 H 0.4846 0.81832 0.78465 0.0
Cu794 Cu 0.50414 0.76567 0.25453 0.0
N795 N 0.49337 0.78274 0.25514 0.0
N796 N 0.47594 0.79789 0.26191 0.0
C797 C 0.48094 0.78412 0.26234 0.0
C798 C 0.48562 0.80545 0.25398 0.0
C799 C 0.49635 0.79606 0.2498 0.0
O800 O 0.48964 0.74981 0.25382 0.0
C801 C 0.51897 0.77484 0.28109 0.0
O802 O 0.50793 0.78359 0.28254 0.0
H803 H 0.47607 0.77526 0.26834 0.0
H804 H 0.50582 0.7988 0.24361 0.0
N805 N 0.5152 0.765 0.23788 0.0
N806 N 0.53331 0.75832 0.2237 0.0
C807 C 0.52823 0.75855 0.23734 0.0
C808 C 0.51187 0.76919 0.22414 0.0
C809 C 0.52305 0.76512 0.21536 0.0
C810 C 0.48995 0.73913 0.24491 0.0
O811 O 0.50179 0.737 0.23762 0.0
H812 H 0.5337 0.75385 0.24681 0.0
H813 H 0.50183 0.77439 0.2207 0.0
O814 O 0.51847 0.7654 0.27084 0.0
H815 H 0.48509 0.81696 0.25146 0.0
H816 H 0.52331 0.76655 0.20367 0.0
Cu817 Cu 0.52379 0.2449 0.25621 0.0
N818 N 0.51013 0.22955 0.25566 0.0
N819 N 0.49023 0.21722 0.26225 0.0
C820 C 0.49831 0.22955 0.26389 0.0
C821 C 0.4973 0.20906 0.25255 0.0
C822 C 0.50956 0.21674 0.24844 0.0
O823 O 0.51207 0.2625 0.2561 0.0
C824 C 0.54369 0.22966 0.27222 0.0
O825 O 0.5405 0.22099 0.26111 0.0
H826 H 0.49595 0.23835 0.2713 0.0
H827 H 0.5176 0.2131 0.24096 0.0
N828 N 0.53558 0.246 0.24005 0.0
N829 N 0.55326 0.25505 0.22641 0.0
C830 C 0.54689 0.25543 0.23942 0.0
C831 C 0.53471 0.2393 0.22698 0.0
C832 C 0.54562 0.2449 0.2185 0.0
C833 C 0.5045 0.2637 0.24424 0.0
O834 O 0.50587 0.25372 0.2341 0.0
H835 H 0.55002 0.26283 0.24823 0.0
H836 H 0.52653 0.23124 0.22368 0.0
O837 O 0.53715 0.24181 0.27291 0.0
H838 H 0.49387 0.19833 0.24872 0.0
H839 H 0.54766 0.24184 0.20737 0.0
H840 H 0.19547 0.1788 0.14652 0.0
H841 H 0.2037 0.19379 0.12637 0.0
H842 H 0.19042 0.23254 0.14875 0.0
H843 H 0.18292 0.21771 0.16934 0.0
H844 H 0.18899 0.21162 0.1082 0.0
H845 H 0.2315 0.24371 0.13914 0.0
H846 H 0.22282 0.22774 0.1466 0.0
H847 H 0.21376 0.24501 0.14658 0.0
C848 C 0.19452 0.19053 0.1473 0.0
C849 C 0.18864 0.19702 0.15968 0.0
C850 C 0.19911 0.19908 0.13569 0.0
C851 C 0.19793 0.21433 0.13613 0.0
C852 C 0.19177 0.22084 0.14829 0.0
H853 H 0.217 0.28151 0.07177 0.0
H854 H 0.20733 0.26779 0.09233 0.0
C855 C 0.18728 0.2123 0.15998 0.0
C856 C 0.20295 0.22331 0.12373 0.0
H857 H 0.22612 0.25119 0.1148 0.0
C858 C 0.19713 0.22025 0.10966 0.0
C859 C 0.21361 0.23456 0.12561 0.0
C860 C 0.2209 0.23788 0.14027 0.0
C861 C 0.20161 0.22816 0.09748 0.0
C862 C 0.21219 0.23941 0.09939 0.0
C863 C 0.21793 0.2426 0.11342 0.0
C864 C 0.21782 0.24764 0.08685 0.0
C865 C 0.19498 0.22452 0.08261 0.0
C866 C 0.22696 0.24085 0.07706 0.0
C867 C 0.23254 0.24866 0.06538 0.0
C868 C 0.22903 0.2634 0.06323 0.0
C869 C 0.21979 0.27015 0.07304 0.0
C870 C 0.21432 0.26236 0.08482 0.0
H871 H 0.18517 0.21734 0.08328 0.0
H872 H 0.19193 0.23464 0.0767 0.0
H873 H 0.20313 0.21881 0.07612 0.0
H874 H 0.22986 0.22952 0.07852 0.0
H875 H 0.2395 0.24311 0.05795 0.0
H876 H 0.82927 0.17117 0.14642 0.0
H877 H 0.81863 0.18317 0.12472 0.0
H878 H 0.82623 0.22516 0.14507 0.0
H879 H 0.83667 0.21332 0.16676 0.0
H880 H 0.79482 0.20403 0.12141 0.0
H881 H 0.84841 0.22726 0.10632 0.0
H882 H 0.84671 0.21245 0.11912 0.0
H883 H 0.8435 0.23088 0.12476 0.0
C884 C 0.82846 0.18294 0.14636 0.0
C885 C 0.83401 0.19129 0.15824 0.0
C886 C 0.82244 0.18978 0.13393 0.0
C887 C 0.82192 0.20506 0.13319 0.0
C888 C 0.82682 0.21337 0.14529 0.0
H889 H 0.79853 0.2707 0.06941 0.0
H890 H 0.80669 0.25686 0.09086 0.0
C891 C 0.83279 0.20657 0.15768 0.0
C892 C 0.81668 0.21245 0.11966 0.0
H893 H 0.82762 0.23575 0.09305 0.0
C894 C 0.80198 0.21088 0.11512 0.0
C895 C 0.82607 0.2214 0.11151 0.0
C896 C 0.84209 0.22304 0.11556 0.0
C897 C 0.79632 0.21839 0.10287 0.0
C898 C 0.80569 0.22746 0.0948 0.0
C899 C 0.82043 0.22885 0.09926 0.0
C900 C 0.80045 0.23577 0.08179 0.0
C901 C 0.78026 0.2169 0.09897 0.0
C902 C 0.79438 0.22852 0.06947 0.0
C903 C 0.78967 0.23641 0.05719 0.0
C904 C 0.79105 0.25173 0.05693 0.0
C905 C 0.79729 0.25894 0.06923 0.0
C906 C 0.80196 0.25103 0.08151 0.0
H907 H 0.774 0.21277 0.10828 0.0
H908 H 0.7757 0.22752 0.09543 0.0
H909 H 0.77868 0.20903 0.08983 0.0
H910 H 0.79342 0.21674 0.06928 0.0
H911 H 0.785 0.23049 0.04788 0.0
H912 H 0.85522 0.8327 0.12872 0.0
H913 H 0.84574 0.82322 0.10529 0.0
H914 H 0.8018 0.82785 0.11954 0.0
H915 H 0.81119 0.83678 0.14326 0.0
H916 H 0.80612 0.80143 0.10569 0.0
H917 H 0.8271 0.84747 0.07281 0.0
H918 H 0.84073 0.83836 0.08379 0.0
H919 H 0.82661 0.84822 0.09244 0.0
C920 C 0.84353 0.83159 0.12694 0.0
C921 C 0.83396 0.83554 0.13791 0.0
C922 C 0.83813 0.82631 0.11346 0.0
C923 C 0.82306 0.82501 0.11057 0.0
C924 C 0.81348 0.82882 0.1215 0.0
H925 H 0.77106 0.8216 0.03257 0.0
H926 H 0.78572 0.82718 0.05449 0.0
C927 C 0.81886 0.83406 0.13502 0.0
C928 C 0.81722 0.81971 0.09617 0.0
H929 H 0.81545 0.82805 0.05989 0.0
C930 C 0.80822 0.80718 0.09565 0.0
C931 C 0.81994 0.82729 0.08309 0.0
C932 C 0.82901 0.84115 0.083 0.0
C933 C 0.80163 0.80219 0.08246 0.0
C934 C 0.8043 0.80979 0.0694 0.0
C935 C 0.81355 0.82214 0.06988 0.0
C936 C 0.79625 0.80625 0.05548 0.0
C937 C 0.79134 0.7892 0.08272 0.0
C938 C 0.7975 0.79267 0.04849 0.0
C939 C 0.78903 0.78938 0.03582 0.0
C940 C 0.77921 0.79965 0.02999 0.0
C941 C 0.77842 0.81338 0.03678 0.0
C942 C 0.78684 0.81663 0.04934 0.0
H943 H 0.78844 0.78621 0.09399 0.0
H944 H 0.78116 0.79143 0.07627 0.0
H945 H 0.7966 0.77967 0.07774 0.0
H946 H 0.80489 0.78458 0.05291 0.0
H947 H 0.7899 0.77873 0.03083 0.0
H948 H 0.18254 0.86075 0.14545 0.0
H949 H 0.19718 0.85274 0.1253 0.0
H950 H 0.19372 0.80828 0.14014 0.0
H951 H 0.17913 0.81625 0.1605 0.0
H952 H 0.224 0.8384 0.12745 0.0
H953 H 0.18228 0.80516 0.09644 0.0
H954 H 0.17758 0.81807 0.11034 0.0
H955 H 0.18476 0.80061 0.1154 0.0
C956 C 0.18491 0.84926 0.14449 0.0
C957 C 0.17971 0.83915 0.15468 0.0
C958 C 0.19323 0.84469 0.1329 0.0
C959 C 0.19647 0.8299 0.13113 0.0
C960 C 0.19116 0.81972 0.14114 0.0
H961 H 0.24768 0.78537 0.06646 0.0
H962 H 0.23285 0.79133 0.08722 0.0
C963 C 0.18281 0.82429 0.15277 0.0
C964 C 0.20587 0.82535 0.1191 0.0
H965 H 0.20624 0.80506 0.08782 0.0
C966 C 0.22012 0.83111 0.11878 0.0
C967 C 0.20082 0.81578 0.10784 0.0
C968 C 0.18549 0.80961 0.10738 0.0
C969 C 0.22946 0.82754 0.10754 0.0
C970 C 0.22434 0.81819 0.09612 0.0
C971 C 0.21016 0.81225 0.09655 0.0
C972 C 0.23344 0.81462 0.08352 0.0
C973 C 0.24483 0.83366 0.10815 0.0
C974 C 0.2386 0.8257 0.07441 0.0
C975 C 0.24707 0.82233 0.06251 0.0
C976 C 0.25047 0.80776 0.05934 0.0
C977 C 0.24518 0.79668 0.06844 0.0
C978 C 0.23673 0.80007 0.08037 0.0
H979 H 0.24831 0.83702 0.1194 0.0
H980 H 0.25266 0.82556 0.10417 0.0
H981 H 0.24537 0.84344 0.10109 0.0
H982 H 0.23592 0.83698 0.0764 0.0
H983 H 0.25071 0.83112 0.05562 0.0
H984 H 0.18779 0.81357 0.86756 0.0
H985 H 0.19494 0.80042 0.88991 0.0
H986 H 0.20318 0.84139 0.91207 0.0
H987 H 0.19586 0.85456 0.88995 0.0
H988 H 0.22213 0.80222 0.90592 0.0
H989 H 0.17645 0.81894 0.93972 0.0
H990 H 0.17585 0.82043 0.92008 0.0
H991 H 0.18535 0.83402 0.9311 0.0
C992 C 0.19099 0.81977 0.87725 0.0
C993 C 0.19125 0.83513 0.87697 0.0
C994 C 0.19512 0.81224 0.88998 0.0
C995 C 0.19937 0.81992 0.90272 0.0
C996 C 0.19969 0.83523 0.90245 0.0
H997 H 0.23945 0.81472 0.98543 0.0
H998 H 0.22519 0.81938 0.96312 0.0
C999 C 0.19566 0.84275 0.88974 0.0
C1000 C 0.20403 0.81209 0.91623 0.0
H1001 H 0.19766 0.80991 0.95261 0.0
C1002 C 0.21664 0.80362 0.9161 0.0
C1003 C 0.19679 0.81387 0.92945 0.0
C1004 C 0.18277 0.82219 0.93012 0.0
C1005 C 0.22277 0.79776 0.92904 0.0
C1006 C 0.21595 0.80023 0.94241 0.0
C1007 C 0.20289 0.80801 0.94237 0.0
C1008 C 0.22322 0.7967 0.95668 0.0
C1009 C 0.23699 0.78977 0.92844 0.0
C1010 C 0.22647 0.7823 0.9608 0.0
C1011 C 0.23468 0.77957 0.97371 0.0
C1012 C 0.23975 0.79122 0.9826 0.0
C1013 C 0.23581 0.8055 0.97877 0.0
C1014 C 0.22762 0.8082 0.96601 0.0
H1015 H 0.24193 0.79069 0.91759 0.0
H1016 H 0.24493 0.79409 0.93686 0.0
H1017 H 0.23506 0.77804 0.93073 0.0
H1018 H 0.22298 0.77324 0.95387 0.0
H1019 H 0.23758 0.76846 0.97637 0.0
H1020 H 0.21114 0.21715 0.88088 0.0
H1021 H 0.22329 0.22547 0.90352 0.0
H1022 H 0.22899 0.18085 0.91705 0.0
H1023 H 0.21626 0.17241 0.89458 0.0
H1024 H 0.21842 0.1969 0.93853 0.0
H1025 H 0.26555 0.22655 0.9166 0.0
H1026 H 0.24881 0.23279 0.90831 0.0
H1027 H 0.25427 0.21421 0.90557 0.0
C1028 C 0.21497 0.20907 0.88865 0.0
C1029 C 0.21264 0.19409 0.88589 0.0
C1030 C 0.22213 0.21386 0.90153 0.0
C1031 C 0.22734 0.20381 0.91192 0.0
C1032 C 0.22521 0.18883 0.90914 0.0
H1033 H 0.27362 0.24265 0.98957 0.0
H1034 H 0.26886 0.22602 0.96873 0.0
C1035 C 0.218 0.18401 0.89624 0.0
C1036 C 0.23393 0.20906 0.92609 0.0
H1037 H 0.25869 0.23361 0.94087 0.0
C1038 C 0.22742 0.20472 0.93904 0.0
C1039 C 0.24587 0.21903 0.9269 0.0
C1040 C 0.25413 0.22328 0.9136 0.0
C1041 C 0.23184 0.21082 0.95258 0.0
C1042 C 0.24288 0.22177 0.95319 0.0
C1043 C 0.2501 0.22536 0.94042 0.0
C1044 C 0.24586 0.23077 0.96653 0.0
C1045 C 0.22437 0.2057 0.96608 0.0
C1046 C 0.23457 0.23894 0.97219 0.0
C1047 C 0.23725 0.24837 0.98396 0.0
C1048 C 0.25133 0.24997 0.99038 0.0
C1049 C 0.26264 0.24157 0.98494 0.0
C1050 C 0.25994 0.23212 0.97301 0.0
H1051 H 0.2203 0.19428 0.9648 0.0
H1052 H 0.23183 0.20638 0.97586 0.0
H1053 H 0.21484 0.21269 0.96792 0.0
H1054 H 0.2237 0.23837 0.9672 0.0
H1055 H 0.22826 0.25465 0.98783 0.0
H1056 H 0.85746 0.22384 0.86209 0.0
H1057 H 0.84844 0.2346 0.88451 0.0
H1058 H 0.84171 0.19155 0.9021 0.0
H1059 H 0.85095 0.18076 0.87992 0.0
H1060 H 0.82046 0.22977 0.89644 0.0
H1061 H 0.86535 0.21327 0.93474 0.0
H1062 H 0.86709 0.21325 0.91519 0.0
H1063 H 0.8575 0.19863 0.92388 0.0
C1064 C 0.85426 0.21669 0.87083 0.0
C1065 C 0.85492 0.20145 0.86923 0.0
C1066 C 0.84902 0.22284 0.88357 0.0
C1067 C 0.84452 0.21387 0.895 0.0
C1068 C 0.8453 0.19868 0.8935 0.0
H1069 H 0.79008 0.23426 0.96793 0.0
H1070 H 0.7997 0.22517 0.94513 0.0
C1071 C 0.85047 0.19253 0.88076 0.0
C1072 C 0.83859 0.22034 0.90836 0.0
H1073 H 0.84418 0.22272 0.94528 0.0
C1074 C 0.82566 0.2283 0.90712 0.0
C1075 C 0.84547 0.21849 0.92225 0.0
C1076 C 0.85969 0.21056 0.92415 0.0
C1077 C 0.81928 0.23424 0.91947 0.0
C1078 C 0.82594 0.23202 0.93341 0.0
C1079 C 0.83901 0.22429 0.9346 0.0
C1080 C 0.81974 0.23789 0.94691 0.0
C1081 C 0.80558 0.24301 0.91748 0.0
C1082 C 0.82785 0.24794 0.95554 0.0
C1083 C 0.82239 0.25315 0.96855 0.0
C1084 C 0.80871 0.24835 0.9733 0.0
C1085 C 0.80055 0.23834 0.96455 0.0
C1086 C 0.80604 0.23313 0.9515 0.0
H1087 H 0.80382 0.2466 0.906 0.0
H1088 H 0.79607 0.23617 0.92045 0.0
H1089 H 0.80599 0.25277 0.92467 0.0
H1090 H 0.83844 0.25177 0.9522 0.0
H1091 H 0.82889 0.26102 0.97483 0.0
H1092 H 0.83413 0.83037 0.85014 0.0
H1093 H 0.8197 0.82284 0.87082 0.0
H1094 H 0.81642 0.86774 0.88421 0.0
H1095 H 0.83099 0.87537 0.86368 0.0
H1096 H 0.8257 0.8278 0.90095 0.0
H1097 H 0.77374 0.85315 0.88231 0.0
H1098 H 0.78859 0.85028 0.87029 0.0
H1099 H 0.78931 0.86526 0.88297 0.0
C1100 C 0.83043 0.83865 0.85753 0.0
C1101 C 0.83367 0.85349 0.8552 0.0
C1102 C 0.82212 0.83432 0.8693 0.0
C1103 C 0.81679 0.84474 0.87891 0.0
C1104 C 0.82014 0.85954 0.87673 0.0
H1105 H 0.76542 0.83924 0.95677 0.0
H1106 H 0.77936 0.84747 0.93597 0.0
C1107 C 0.82847 0.86388 0.86499 0.0
C1108 C 0.80802 0.84009 0.89139 0.0
H1109 H 0.7745 0.84304 0.90606 0.0
C1110 C 0.81449 0.83108 0.90205 0.0
C1111 C 0.79342 0.84445 0.89283 0.0
C1112 C 0.78577 0.85372 0.88145 0.0
C1113 C 0.80681 0.82646 0.91422 0.0
C1114 C 0.79216 0.83072 0.91561 0.0
C1115 C 0.78572 0.83979 0.90498 0.0
C1116 C 0.78332 0.82574 0.92793 0.0
C1117 C 0.81455 0.81731 0.92565 0.0
C1118 C 0.78061 0.81081 0.93011 0.0
C1119 C 0.77264 0.80609 0.94195 0.0
C1120 C 0.76709 0.81619 0.95182 0.0
C1121 C 0.76945 0.83117 0.94935 0.0
C1122 C 0.77747 0.83589 0.93751 0.0
H1123 H 0.82659 0.81838 0.92506 0.0
H1124 H 0.81137 0.82042 0.93678 0.0
H1125 H 0.81153 0.80566 0.92384 0.0
H1126 H 0.78468 0.8028 0.92263 0.0
H1127 H 0.77076 0.7945 0.94333 0.0
H1128 H 0.16375 0.18096 0.22118 0.0
H1129 H 0.14195 0.18586 0.23473 0.0
H1130 H 0.11922 0.19831 0.19486 0.0
H1131 H 0.14076 0.19269 0.18107 0.0
H1132 H 0.12729 0.21062 0.23827 0.0
H1133 H 0.0906 0.16945 0.21117 0.0
H1134 H 0.11003 0.16978 0.20884 0.0
H1135 H 0.09848 0.18208 0.19868 0.0
C1136 C 0.15405 0.18451 0.21522 0.0
C1137 C 0.154 0.18625 0.19997 0.0
C1138 C 0.14162 0.18743 0.22302 0.0
C1139 C 0.12883 0.19219 0.2158 0.0
C1140 C 0.12883 0.1943 0.20064 0.0
H1141 H 0.04574 0.22177 0.24582 0.0
H1142 H 0.06706 0.2158 0.23179 0.0
C1143 C 0.14125 0.19129 0.19279 0.0
C1144 C 0.11567 0.1952 0.22425 0.0
H1145 H 0.07959 0.18622 0.2271 0.0
C1146 C 0.11689 0.20522 0.23587 0.0
C1147 C 0.10208 0.18812 0.22115 0.0
C1148 C 0.10021 0.17665 0.20938 0.0
C1149 C 0.10488 0.2085 0.24429 0.0
C1150 C 0.09131 0.20154 0.24109 0.0
C1151 C 0.09003 0.19155 0.2295 0.0
C1152 C 0.07826 0.20468 0.24955 0.0
C1153 C 0.1067 0.21959 0.25643 0.0
C1154 C 0.07741 0.20019 0.26412 0.0
C1155 C 0.06521 0.20355 0.27216 0.0
C1156 C 0.05369 0.21155 0.26579 0.0
C1157 C 0.05451 0.21579 0.2511 0.0
C1158 C 0.06664 0.21232 0.24305 0.0
H1159 H 0.11716 0.22579 0.25591 0.0
H1160 H 0.09757 0.22741 0.25599 0.0
H1161 H 0.1065 0.21391 0.26709 0.0
H1162 H 0.08623 0.19416 0.26928 0.0
H1163 H 0.06495 0.2002 0.28345 0.0
H1164 H 0.83118 0.14087 0.17597 0.0
H1165 H 0.82256 0.11851 0.18767 0.0
H1166 H 0.83697 0.1356 0.22965 0.0
H1167 H 0.84488 0.15819 0.21821 0.0
H1168 H 0.83763 0.09849 0.20318 0.0
H1169 H 0.7964 0.12234 0.23839 0.0
H1170 H 0.80455 0.13249 0.22387 0.0
H1171 H 0.81402 0.13076 0.2413 0.0
C1172 C 0.83226 0.14 0.18773 0.0
C1173 C 0.83874 0.1514 0.19611 0.0
C1174 C 0.82743 0.12714 0.19439 0.0
C1175 C 0.8289 0.12542 0.20959 0.0
C1176 C 0.83539 0.13675 0.21796 0.0
H1177 H 0.81719 0.05452 0.2709 0.0
H1178 H 0.82429 0.07691 0.25822 0.0
C1179 C 0.84013 0.14962 0.21134 0.0
C1180 C 0.82418 0.11158 0.21666 0.0
H1181 H 0.80348 0.09791 0.24389 0.0
C1182 C 0.83005 0.09837 0.21198 0.0
C1183 C 0.81427 0.11137 0.22816 0.0
C1184 C 0.80683 0.12498 0.23313 0.0
C1185 C 0.82658 0.08505 0.21872 0.0
C1186 C 0.81695 0.08492 0.2304 0.0
C1187 C 0.81096 0.09807 0.235 0.0
C1188 C 0.81288 0.07121 0.23794 0.0
C1189 C 0.83347 0.07123 0.21352 0.0
C1190 C 0.80405 0.06062 0.23077 0.0
C1191 C 0.79993 0.04786 0.23799 0.0
C1192 C 0.80461 0.04538 0.25255 0.0
C1193 C 0.81354 0.056 0.25967 0.0
C1194 C 0.81754 0.06883 0.25247 0.0
H1195 H 0.84258 0.07349 0.20616 0.0
H1196 H 0.83763 0.06474 0.22294 0.0
H1197 H 0.82512 0.06449 0.20748 0.0
H1198 H 0.80023 0.0623 0.2196 0.0
H1199 H 0.79317 0.03987 0.23214 0.0
H1200 H 0.88286 0.83303 0.15871 0.0
H1201 H 0.90393 0.81977 0.1685 0.0
H1202 H 0.88451 0.81773 0.21056 0.0
H1203 H 0.86319 0.83085 0.20074 0.0
H1204 H 0.92351 0.82654 0.19255 0.0
H1205 H 0.89284 0.77454 0.20058 0.0
H1206 H 0.8857 0.78915 0.18941 0.0
H1207 H 0.88558 0.79051 0.20892 0.0
C1208 C 0.88305 0.82975 0.17005 0.0
C1209 C 0.87128 0.83286 0.17891 0.0
C1210 C 0.89513 0.82223 0.17564 0.0
C1211 C 0.8957 0.81755 0.19019 0.0
C1212 C 0.88419 0.82104 0.19923 0.0
H1213 H 0.95944 0.76262 0.23603 0.0
H1214 H 0.93841 0.77755 0.22946 0.0
C1215 C 0.87209 0.82866 0.19365 0.0
C1216 C 0.90828 0.80886 0.19569 0.0
H1217 H 0.91783 0.77483 0.20739 0.0
C1218 C 0.92227 0.81525 0.19585 0.0
C1219 C 0.90664 0.79413 0.20001 0.0
C1220 C 0.89192 0.78658 0.19966 0.0
C1221 C 0.93467 0.80733 0.20021 0.0
C1222 C 0.93309 0.79248 0.20419 0.0
C1223 C 0.91905 0.78617 0.20429 0.0
C1224 C 0.94588 0.78327 0.20809 0.0
C1225 C 0.94932 0.81503 0.20071 0.0
C1226 C 0.95697 0.78122 0.19817 0.0
C1227 C 0.96911 0.77277 0.20194 0.0
C1228 C 0.97039 0.76606 0.2157 0.0
C1229 C 0.95902 0.7678 0.22545 0.0
C1230 C 0.94691 0.77629 0.22168 0.0
H1231 H 0.94819 0.82704 0.20164 0.0
H1232 H 0.95628 0.81119 0.21003 0.0
H1233 H 0.95497 0.81274 0.19048 0.0
H1234 H 0.95627 0.78618 0.18747 0.0
H1235 H 0.9776 0.77178 0.19413 0.0
H1236 H 0.19591 0.87084 0.19534 0.0
H1237 H 0.20346 0.89264 0.20932 0.0
H1238 H 0.15882 0.90658 0.20943 0.0
H1239 H 0.1512 0.8849 0.19541 0.0
H1240 H 0.19978 0.92243 0.20275 0.0
H1241 H 0.17119 0.90682 0.25285 0.0
H1242 H 0.17433 0.89402 0.23835 0.0
H1243 H 0.15978 0.90687 0.23655 0.0
C1244 C 0.18773 0.87862 0.19822 0.0
C1245 C 0.17294 0.87608 0.19437 0.0
C1246 C 0.19204 0.89102 0.20627 0.0
C1247 C 0.18166 0.90107 0.21065 0.0
C1248 C 0.16696 0.89878 0.20647 0.0
H1249 H 0.18601 0.982 0.2604 0.0
H1250 H 0.1782 0.96054 0.24605 0.0
C1251 C 0.16263 0.88639 0.19845 0.0
C1252 C 0.1862 0.91399 0.21953 0.0
H1253 H 0.18161 0.93063 0.25237 0.0
C1254 C 0.19586 0.92421 0.21362 0.0
C1255 C 0.18104 0.91628 0.23369 0.0
C1256 C 0.17111 0.90537 0.24082 0.0
C1257 C 0.20033 0.93679 0.22142 0.0
C1258 C 0.19518 0.93907 0.2356 0.0
C1259 C 0.1855 0.92887 0.24149 0.0
C1260 C 0.19988 0.95188 0.24456 0.0
C1261 C 0.21028 0.94769 0.21431 0.0
C1262 C 0.21461 0.95393 0.24876 0.0
C1263 C 0.21909 0.96613 0.257 0.0
C1264 C 0.20892 0.9765 0.26129 0.0
C1265 C 0.19411 0.9742 0.25737 0.0
C1266 C 0.18963 0.96199 0.24911 0.0
H1267 H 0.21014 0.9463 0.20227 0.0
H1268 H 0.20715 0.95904 0.21686 0.0
H1269 H 0.22162 0.9461 0.21852 0.0
H1270 H 0.22264 0.94607 0.24569 0.0
H1271 H 0.23052 0.96737 0.2601 0.0
H1272 H 0.14352 0.83768 0.85325 0.0
H1273 H 0.12156 0.83006 0.83924 0.0
H1274 H 0.14295 0.83949 0.79918 0.0
H1275 H 0.16516 0.8467 0.81311 0.0
H1276 H 0.10437 0.84606 0.81915 0.0
H1277 H 0.1281 0.79746 0.79298 0.0
H1278 H 0.13693 0.80664 0.80839 0.0
H1279 H 0.13769 0.81445 0.7905 0.0
C1280 C 0.14364 0.83797 0.84145 0.0
C1281 C 0.15617 0.84269 0.83432 0.0
C1282 C 0.13103 0.83373 0.83346 0.0
C1283 C 0.13066 0.83404 0.81816 0.0
C1284 C 0.14305 0.83894 0.81097 0.0
H1285 H 0.05914 0.79829 0.76104 0.0
H1286 H 0.08086 0.81289 0.7686 0.0
C1287 C 0.15569 0.8432 0.81897 0.0
C1288 C 0.11724 0.82918 0.80985 0.0
H1289 H 0.10351 0.80231 0.78717 0.0
C1290 C 0.10421 0.83657 0.81205 0.0
C1291 C 0.11706 0.81688 0.80048 0.0
C1292 C 0.13064 0.80829 0.79798 0.0
C1293 C 0.09094 0.83174 0.80548 0.0
C1294 C 0.09064 0.81907 0.79664 0.0
C1295 C 0.10376 0.81206 0.79391 0.0
C1296 C 0.07672 0.81188 0.79166 0.0
C1297 C 0.07731 0.84015 0.80824 0.0
C1298 C 0.06715 0.80661 0.80207 0.0
C1299 C 0.05488 0.79829 0.7978 0.0
C1300 C 0.05186 0.79502 0.78302 0.0
C1301 C 0.06111 0.80077 0.77249 0.0
C1302 C 0.07354 0.80903 0.77681 0.0
H1303 H 0.0799 0.85175 0.81091 0.0
H1304 H 0.06961 0.83973 0.79863 0.0
H1305 H 0.07179 0.8353 0.81768 0.0
H1306 H 0.0695 0.8084 0.81359 0.0
H1307 H 0.04799 0.79402 0.80618 0.0
H1308 H 0.20099 0.16797 0.82231 0.0
H1309 H 0.20775 0.14597 0.80911 0.0
H1310 H 0.21731 0.1244 0.84997 0.0
H1311 H 0.21008 0.1461 0.86323 0.0
H1312 H 0.2338 0.13189 0.80913 0.0
H1313 H 0.19116 0.09446 0.82906 0.0
H1314 H 0.19033 0.114 0.83126 0.0
H1315 H 0.2013 0.10329 0.84373 0.0
C1316 C 0.20432 0.15847 0.82851 0.0
C1317 C 0.20489 0.15881 0.84387 0.0
C1318 C 0.20827 0.14593 0.82093 0.0
C1319 C 0.21277 0.13341 0.82852 0.0
C1320 C 0.21354 0.13379 0.84384 0.0
H1321 H 0.25606 0.05447 0.81854 0.0
H1322 H 0.24189 0.07558 0.82513 0.0
C1323 C 0.20959 0.1463 0.85142 0.0
C1324 C 0.21724 0.12014 0.82053 0.0
H1325 H 0.21191 0.08319 0.81865 0.0
C1326 C 0.22884 0.12128 0.81098 0.0
C1327 C 0.21068 0.10629 0.82283 0.0
C1328 C 0.19758 0.10444 0.83216 0.0
C1329 C 0.23464 0.10884 0.80444 0.0
C1330 C 0.22858 0.09492 0.80739 0.0
C1331 C 0.21655 0.09387 0.81638 0.0
C1332 C 0.23578 0.08128 0.80292 0.0
C1333 C 0.24774 0.11057 0.79508 0.0
C1334 C 0.23669 0.07716 0.7882 0.0
C1335 C 0.24477 0.0649 0.78435 0.0
C1336 C 0.25213 0.05674 0.7952 0.0
C1337 C 0.25061 0.06059 0.80991 0.0
C1338 C 0.24248 0.07265 0.81372 0.0
H1339 H 0.25219 0.12191 0.79528 0.0
H1340 H 0.25648 0.10307 0.79882 0.0
H1341 H 0.24461 0.10768 0.78364 0.0
H1342 H 0.23145 0.0836 0.7797 0.0
H1343 H 0.24581 0.06223 0.77294 0.0
H1344 H 0.88588 0.2222 0.83238 0.0
H1345 H 0.90829 0.23103 0.82163 0.0
H1346 H 0.91936 0.18692 0.81057 0.0
H1347 H 0.89728 0.17791 0.82191 0.0
H1348 H 0.94219 0.20106 0.82302 0.0
H1349 H 0.91841 0.23586 0.77954 0.0
H1350 H 0.91176 0.2406 0.79704 0.0
H1351 H 0.90762 0.22284 0.78941 0.0
C1352 C 0.89308 0.21434 0.82771 0.0
C1353 C 0.88972 0.19932 0.82803 0.0
C1354 C 0.90581 0.21944 0.82134 0.0
C1355 C 0.91539 0.20968 0.81499 0.0
C1356 C 0.91207 0.19468 0.81524 0.0
H1357 H 0.991 0.24833 0.77097 0.0
H1358 H 0.96965 0.23242 0.77489 0.0
C1359 C 0.89937 0.18956 0.82166 0.0
C1360 C 0.92933 0.21507 0.809 0.0
H1361 H 0.94362 0.24082 0.78651 0.0
C1362 C 0.94248 0.20959 0.81485 0.0
C1363 C 0.92979 0.22597 0.79811 0.0
C1364 C 0.91613 0.23154 0.79054 0.0
C1365 C 0.95601 0.21534 0.8108 0.0
C1366 C 0.95642 0.22708 0.80082 0.0
C1367 C 0.94332 0.23194 0.79428 0.0
C1368 C 0.97008 0.23547 0.7983 0.0
C1369 C 0.96974 0.20893 0.81745 0.0
C1370 C 0.9774 0.24239 0.81013 0.0
C1371 C 0.98949 0.2514 0.80793 0.0
C1372 C 0.99454 0.25381 0.79383 0.0
C1373 C 0.98745 0.24659 0.78197 0.0
C1374 C 0.97523 0.23757 0.78419 0.0
H1375 H 0.96801 0.19732 0.82047 0.0
H1376 H 0.97888 0.20966 0.80986 0.0
H1377 H 0.97291 0.21503 0.82756 0.0
H1378 H 0.97347 0.24123 0.82106 0.0
H1379 H 0.99466 0.25679 0.81732 0.0
H1380 H 0.83871 0.90128 0.83411 0.0
H1381 H 0.83042 0.923 0.82111 0.0
H1382 H 0.83728 0.90174 0.78 0.0
H1383 H 0.84526 0.87972 0.79298 0.0
H1384 H 0.84476 0.94078 0.80067 0.0
H1385 H 0.79438 0.91438 0.77659 0.0
H1386 H 0.80486 0.90621 0.79136 0.0
H1387 H 0.81139 0.90575 0.77316 0.0
C1388 C 0.83838 0.90117 0.8223 0.0
C1389 C 0.84248 0.88869 0.81459 0.0
C1390 C 0.83375 0.91364 0.81488 0.0
C1391 C 0.83306 0.91393 0.79959 0.0
C1392 C 0.83753 0.90167 0.79181 0.0
H1393 H 0.78833 0.98494 0.75159 0.0
H1394 H 0.80449 0.964 0.75548 0.0
C1395 C 0.84221 0.88915 0.79924 0.0
C1396 C 0.82728 0.92704 0.79202 0.0
H1397 H 0.79743 0.93951 0.77285 0.0
C1398 C 0.83452 0.94047 0.7944 0.0
C1399 C 0.81397 0.92661 0.78374 0.0
C1400 C 0.80559 0.91251 0.78108 0.0
C1401 C 0.8285 0.95356 0.78926 0.0
C1402 C 0.81478 0.95323 0.78174 0.0
C1403 C 0.80796 0.93973 0.77861 0.0
C1404 C 0.80643 0.96673 0.7789 0.0
C1405 C 0.83671 0.96769 0.79227 0.0
C1406 C 0.80224 0.9752 0.79074 0.0
C1407 C 0.79302 0.987 0.78858 0.0
C1408 C 0.78775 0.99063 0.77451 0.0
C1409 C 0.79232 0.98247 0.76254 0.0
C1410 C 0.80149 0.9705 0.76475 0.0
H1411 H 0.84863 0.96588 0.79353 0.0
H1412 H 0.83469 0.97571 0.7834 0.0
H1413 H 0.83302 0.97245 0.80262 0.0
H1414 H 0.80566 0.97234 0.80178 0.0
H1415 H 0.78972 0.99306 0.79803 0.0
H1416 H 0.19496 0.15785 0.21602 0.0
H1417 H 0.20744 0.13571 0.22357 0.0
H1418 H 0.21407 0.12479 0.17855 0.0
H1419 H 0.20096 0.14671 0.17086 0.0
H1420 H 0.20342 0.10202 0.19277 0.0
H1421 H 0.24963 0.12489 0.22579 0.0
H1422 H 0.23285 0.13216 0.23178 0.0
H1423 H 0.23864 0.13598 0.21359 0.0
C1424 C 0.19907 0.15077 0.2077 0.0
C1425 C 0.19687 0.15403 0.19282 0.0
C1426 C 0.20644 0.13821 0.21205 0.0
C1427 C 0.21198 0.12871 0.20165 0.0
C1428 C 0.21004 0.13205 0.18678 0.0
H1429 H 0.25446 0.05237 0.24277 0.0
H1430 H 0.25154 0.0727 0.22547 0.0
C1431 C 0.20261 0.14461 0.1824 0.0
C1432 C 0.2185 0.11468 0.2064 0.0
H1433 H 0.24187 0.10018 0.23206 0.0
C1434 C 0.21207 0.10162 0.20112 0.0
C1435 C 0.23003 0.11405 0.21703 0.0
C1436 C 0.23828 0.12754 0.22223 0.0
C1437 C 0.21599 0.08809 0.20708 0.0
C1438 C 0.2264 0.08763 0.21881 0.0
C1439 C 0.23373 0.10054 0.22322 0.0
C1440 C 0.22827 0.0744 0.22793 0.0
C1441 C 0.20858 0.07445 0.20106 0.0
C1442 C 0.21619 0.06864 0.23501 0.0
C1443 C 0.21782 0.05717 0.24483 0.0
C1444 C 0.2316 0.0512 0.2479 0.0
C1445 C 0.24369 0.05668 0.24055 0.0
C1446 C 0.24205 0.0683 0.2307 0.0
H1447 H 0.20545 0.07576 0.18933 0.0
H1448 H 0.2157 0.06482 0.2023 0.0
H1449 H 0.19845 0.07234 0.20701 0.0
H1450 H 0.20552 0.07337 0.23335 0.0
H1451 H 0.20827 0.05322 0.25029 0.0
H1452 H 0.21988 0.86607 0.84316 0.0
H1453 H 0.23388 0.88777 0.83625 0.0
H1454 H 0.19443 0.9128 0.83457 0.0
H1455 H 0.18035 0.89096 0.84094 0.0
H1456 H 0.21002 0.91935 0.81225 0.0
H1457 H 0.24666 0.92131 0.86141 0.0
H1458 H 0.24788 0.90435 0.8518 0.0
H1459 H 0.23103 0.9092 0.85993 0.0
C1460 C 0.21423 0.87623 0.84137 0.0
C1461 C 0.19904 0.87685 0.84264 0.0
C1462 C 0.22225 0.88866 0.83752 0.0
C1463 C 0.21529 0.90206 0.83521 0.0
C1464 C 0.20008 0.90263 0.83635 0.0
H1465 H 0.2605 0.98628 0.83305 0.0
H1466 H 0.24665 0.96442 0.83973 0.0
C1467 C 0.19203 0.89015 0.83997 0.0
C1468 C 0.22377 0.91541 0.83129 0.0
H1469 H 0.25309 0.93685 0.84178 0.0
C1470 C 0.21939 0.92321 0.81876 0.0
C1471 C 0.23588 0.92064 0.83989 0.0
C1472 C 0.24055 0.91353 0.85408 0.0
C1473 C 0.22682 0.93594 0.81452 0.0
C1474 C 0.23935 0.94077 0.82273 0.0
C1475 C 0.24363 0.93307 0.83535 0.0
C1476 C 0.24798 0.95396 0.81863 0.0
C1477 C 0.22087 0.94426 0.8015 0.0
C1478 C 0.2536 0.95533 0.80464 0.0
C1479 C 0.26135 0.96792 0.80076 0.0
C1480 C 0.26395 0.97926 0.8109 0.0
C1481 C 0.25875 0.97769 0.82504 0.0
C1482 C 0.2508 0.9652 0.82885 0.0
H1483 H 0.20907 0.94189 0.79942 0.0
H1484 H 0.22238 0.95621 0.80303 0.0
H1485 H 0.22668 0.94093 0.79165 0.0
H1486 H 0.25204 0.94664 0.7967 0.0
H1487 H 0.26544 0.96873 0.78987 0.0
H1488 H 0.18013 0.22212 0.85527 0.0
H1489 H 0.15846 0.23576 0.84792 0.0
H1490 H 0.13647 0.19568 0.83489 0.0
H1491 H 0.15779 0.18185 0.84299 0.0
H1492 H 0.14469 0.23872 0.82197 0.0
H1493 H 0.10657 0.21323 0.86027 0.0
H1494 H 0.126 0.21063 0.86178 0.0
H1495 H 0.11498 0.20018 0.84879 0.0
C1496 C 0.17061 0.21614 0.85107 0.0
C1497 C 0.17072 0.20082 0.84989 0.0
C1498 C 0.15825 0.22399 0.84675 0.0
C1499 C 0.1457 0.21675 0.8411 0.0
C1500 C 0.14587 0.20151 0.83956 0.0
H1501 H 0.0637 0.24654 0.80239 0.0
H1502 H 0.08521 0.23267 0.81012 0.0
C1503 C 0.15819 0.19362 0.84399 0.0
C1504 C 0.13257 0.22522 0.8366 0.0
H1505 H 0.09605 0.22842 0.84183 0.0
C1506 C 0.13408 0.2365 0.82639 0.0
C1507 C 0.1187 0.22239 0.84239 0.0
C1508 C 0.11646 0.21105 0.85402 0.0
C1509 C 0.1221 0.24485 0.82167 0.0
C1510 C 0.10825 0.24186 0.82731 0.0
C1511 C 0.10669 0.23062 0.83749 0.0
C1512 C 0.09524 0.25032 0.82272 0.0
C1513 C 0.12423 0.25668 0.81052 0.0
C1514 C 0.0937 0.26479 0.82737 0.0
C1515 C 0.08138 0.27273 0.82302 0.0
C1516 C 0.07043 0.26637 0.81385 0.0
C1517 C 0.07202 0.25183 0.80928 0.0
C1518 C 0.08426 0.24386 0.81375 0.0
H1519 H 0.13512 0.25622 0.80564 0.0
H1520 H 0.1157 0.25579 0.80166 0.0
H1521 H 0.12316 0.26749 0.81581 0.0
H1522 H 0.10203 0.26993 0.83438 0.0
H1523 H 0.08055 0.28392 0.82664 0.0
H1524 H 0.82605 0.17299 0.8347 0.0
H1525 H 0.81195 0.15167 0.82618 0.0
H1526 H 0.85148 0.13094 0.81365 0.0
H1527 H 0.86579 0.15193 0.8229 0.0
H1528 H 0.80858 0.13896 0.7998 0.0
H1529 H 0.83384 0.09987 0.83889 0.0
H1530 H 0.83663 0.11933 0.84054 0.0
H1531 H 0.84674 0.10902 0.82771 0.0
C1532 C 0.8318 0.16383 0.83031 0.0
C1533 C 0.8471 0.16411 0.82971 0.0
C1534 C 0.82369 0.15169 0.82532 0.0
C1535 C 0.83067 0.13956 0.81956 0.0
C1536 C 0.84588 0.14001 0.8184 0.0
H1537 H 0.79644 0.05831 0.78183 0.0
H1538 H 0.81157 0.0796 0.78886 0.0
C1539 C 0.85403 0.15212 0.8235 0.0
C1540 C 0.82195 0.1265 0.81483 0.0
H1541 H 0.81755 0.08991 0.8207 0.0
C1542 C 0.81054 0.12825 0.8044 0.0
C1543 C 0.82445 0.11252 0.82089 0.0
C1544 C 0.83598 0.11005 0.83273 0.0
C1545 C 0.80165 0.11639 0.7998 0.0
C1546 C 0.80423 0.10246 0.80579 0.0
C1547 C 0.81568 0.10064 0.81611 0.0
C1548 C 0.79504 0.08965 0.80156 0.0
C1549 C 0.7896 0.11875 0.78848 0.0
C1550 C 0.78081 0.08824 0.80651 0.0
C1551 C 0.77216 0.07607 0.80257 0.0
C1552 C 0.77758 0.06516 0.79352 0.0
C1553 C 0.79188 0.06662 0.78864 0.0
C1554 C 0.80056 0.07872 0.7927 0.0
H1555 H 0.79034 0.12971 0.78339 0.0
H1556 H 0.78993 0.11031 0.7798 0.0
H1557 H 0.77891 0.1177 0.79369 0.0
H1558 H 0.77641 0.09656 0.81344 0.0
H1559 H 0.76117 0.07531 0.80641 0.0
H1560 H 0.86579 0.82468 0.82661 0.0
H1561 H 0.8874 0.81072 0.8212 0.0
H1562 H 0.9104 0.85055 0.81098 0.0
H1563 H 0.8891 0.86467 0.81713 0.0
H1564 H 0.90204 0.80794 0.7965 0.0
H1565 H 0.93892 0.83214 0.83946 0.0
H1566 H 0.91951 0.83495 0.83895 0.0
H1567 H 0.9311 0.84554 0.82745 0.0
C1568 C 0.8755 0.83052 0.82342 0.0
C1569 C 0.8757 0.84585 0.82247 0.0
C1570 C 0.88783 0.82249 0.82022 0.0
C1571 C 0.90064 0.82958 0.81596 0.0
C1572 C 0.90077 0.84484 0.8146 0.0
H1573 H 0.98359 0.80098 0.78539 0.0
H1574 H 0.96188 0.81444 0.79175 0.0
C1575 C 0.88848 0.8529 0.8179 0.0
C1576 C 0.91375 0.82097 0.81273 0.0
H1577 H 0.94997 0.81728 0.82173 0.0
C1578 C 0.91248 0.80992 0.8021 0.0
C1579 C 0.92739 0.8235 0.82008 0.0
C1580 C 0.92931 0.83457 0.83222 0.0
C1581 C 0.92453 0.80157 0.79841 0.0
C1582 C 0.93818 0.8043 0.80557 0.0
C1583 C 0.93947 0.81527 0.81624 0.0
C1584 C 0.95133 0.79605 0.80191 0.0
C1585 C 0.9227 0.79008 0.78666 0.0
C1586 C 0.95264 0.78129 0.80569 0.0
C1587 C 0.96507 0.77357 0.80211 0.0
C1588 C 0.97635 0.78046 0.7946 0.0
C1589 C 0.97501 0.7953 0.79097 0.0
C1590 C 0.96266 0.80303 0.79467 0.0
H1591 H 0.91205 0.79086 0.7806 0.0
H1592 H 0.93159 0.79105 0.77881 0.0
H1593 H 0.92336 0.77911 0.79171 0.0
H1594 H 0.94405 0.77576 0.81141 0.0
H1595 H 0.96574 0.76215 0.80498 0.0
H1596 H 0.85141 0.88118 0.18743 0.0
H1597 H 0.83955 0.90205 0.19842 0.0
H1598 H 0.79743 0.88388 0.18563 0.0
H1599 H 0.80916 0.86276 0.17502 0.0
H1600 H 0.82109 0.92219 0.18461 0.0
H1601 H 0.79256 0.89321 0.22874 0.0
H1602 H 0.80702 0.88498 0.21889 0.0
H1603 H 0.78901 0.88608 0.21068 0.0
C1604 C 0.83961 0.88147 0.18717 0.0
C1605 C 0.83127 0.87022 0.18037 0.0
C1606 C 0.83284 0.89349 0.19336 0.0
C1607 C 0.81758 0.89449 0.193 0.0
C1608 C 0.8092 0.88327 0.18627 0.0
H1609 H 0.76483 0.96348 0.23255 0.0
H1610 H 0.77137 0.94288 0.21682 0.0
C1611 C 0.81596 0.87126 0.18006 0.0
C1612 C 0.81052 0.9075 0.19931 0.0
H1613 H 0.78824 0.91841 0.22626 0.0
C1614 C 0.81386 0.92134 0.19368 0.0
C1615 C 0.80093 0.90641 0.21103 0.0
C1616 C 0.79722 0.89191 0.2178 0.0
C1617 C 0.80812 0.93409 0.19961 0.0
C1618 C 0.79896 0.93306 0.21166 0.0
C1619 C 0.79519 0.9192 0.21697 0.0
C1620 C 0.79467 0.9462 0.21997 0.0
C1621 C 0.81202 0.94861 0.19297 0.0
C1622 C 0.80553 0.95492 0.22686 0.0
C1623 C 0.80185 0.96653 0.2358 0.0
C1624 C 0.78718 0.96977 0.2381 0.0
C1625 C 0.77622 0.96135 0.23085 0.0
C1626 C 0.77995 0.94954 0.22195 0.0
H1627 H 0.81495 0.94739 0.18139 0.0
H1628 H 0.80289 0.95637 0.19357 0.0
H1629 H 0.82162 0.95339 0.19906 0.0
H1630 H 0.81694 0.95244 0.22575 0.0
H1631 H 0.81057 0.97277 0.24122 0.0
H1632 H 0.14782 0.81306 0.19092 0.0
H1633 H 0.12659 0.80133 0.20198 0.0
H1634 H 0.10348 0.84185 0.19925 0.0
H1635 H 0.12458 0.85361 0.18833 0.0
H1636 H 0.112 0.81589 0.23 0.0
H1637 H 0.07647 0.80619 0.18035 0.0
H1638 H 0.09613 0.80655 0.17974 0.0
H1639 H 0.08649 0.82321 0.18194 0.0
C1640 C 0.13811 0.81936 0.19247 0.0
C1641 C 0.13783 0.83424 0.1888 0.0
C1642 C 0.12606 0.8127 0.19885 0.0
C1643 C 0.11352 0.82076 0.20143 0.0
C1644 C 0.11306 0.83546 0.19733 0.0
H1645 H 0.02742 0.80115 0.23242 0.0
H1646 H 0.04916 0.81294 0.22288 0.0
C1647 C 0.1251 0.84215 0.19111 0.0
C1648 C 0.10106 0.81411 0.20894 0.0
H1649 H 0.06624 0.80136 0.20307 0.0
C1650 C 0.102 0.8126 0.22415 0.0
C1651 C 0.08803 0.81007 0.20126 0.0
C1652 C 0.08661 0.81148 0.1849 0.0
C1653 C 0.09011 0.80733 0.23195 0.0
C1654 C 0.07705 0.80313 0.22426 0.0
C1655 C 0.0762 0.80461 0.209 0.0
C1656 C 0.06419 0.79698 0.23168 0.0
C1657 C 0.09152 0.80674 0.24837 0.0
C1658 C 0.06539 0.78427 0.24013 0.0
C1659 C 0.05299 0.77762 0.24578 0.0
C1660 C 0.03907 0.78339 0.24287 0.0
C1661 C 0.03796 0.79642 0.23489 0.0
C1662 C 0.05038 0.80314 0.22936 0.0
H1663 H 0.1001 0.81443 0.25269 0.0
H1664 H 0.08107 0.80938 0.25343 0.0
H1665 H 0.09466 0.79557 0.25175 0.0
H1666 H 0.07584 0.7791 0.24183 0.0
H1667 H 0.05427 0.76751 0.25174 0.0
H1668 H 0.86821 0.2136 0.19304 0.0
H1669 H 0.89095 0.22527 0.20207 0.0
H1670 H 0.91105 0.18316 0.20553 0.0
H1671 H 0.8885 0.17144 0.19614 0.0
H1672 H 0.90562 0.22095 0.22861 0.0
H1673 H 0.94079 0.20695 0.183 0.0
H1674 H 0.92115 0.2056 0.18153 0.0
H1675 H 0.93151 0.19135 0.19025 0.0
C1676 C 0.87753 0.20684 0.19555 0.0
C1677 C 0.87656 0.19159 0.1938 0.0
C1678 C 0.89049 0.21352 0.20076 0.0
C1679 C 0.90277 0.20512 0.20422 0.0
C1680 C 0.9018 0.18989 0.20262 0.0
H1681 H 0.98372 0.2076 0.24888 0.0
H1682 H 0.96226 0.20354 0.23295 0.0
C1683 C 0.88884 0.18319 0.19744 0.0
C1684 C 0.9164 0.21213 0.21017 0.0
H1685 H 0.95308 0.21442 0.20539 0.0
C1686 C 0.91597 0.21977 0.22342 0.0
C1687 C 0.92986 0.21067 0.20331 0.0
C1688 C 0.93087 0.20332 0.18866 0.0
C1689 C 0.92879 0.22517 0.23047 0.0
C1690 C 0.94234 0.22307 0.22395 0.0
C1691 C 0.94267 0.21604 0.21036 0.0
C1692 C 0.95635 0.22627 0.23197 0.0
C1693 C 0.92781 0.23231 0.24524 0.0
C1694 C 0.96049 0.24051 0.23628 0.0
C1695 C 0.97287 0.2429 0.24543 0.0
C1696 C 0.9812 0.23104 0.2504 0.0
C1697 C 0.97746 0.21695 0.24534 0.0
C1698 C 0.96521 0.2146 0.2362 0.0
H1699 H 0.91677 0.2311 0.24972 0.0
H1700 H 0.93587 0.22755 0.25312 0.0
H1701 H 0.93037 0.24413 0.2443 0.0
H1702 H 0.9539 0.2497 0.23294 0.0
H1703 H 0.97549 0.25387 0.24918 0.0
H1704 H 0.19907 0.68759 0.62508 0.0
H1705 H 0.20588 0.70052 0.60301 0.0
H1706 H 0.1984 0.7417 0.62405 0.0
H1707 H 0.19188 0.72883 0.64636 0.0
H1708 H 0.18927 0.7208 0.58566 0.0
H1709 H 0.24044 0.74575 0.60954 0.0
H1710 H 0.2312 0.7307 0.6181 0.0
H1711 H 0.224 0.74875 0.61914 0.0
C1712 C 0.19899 0.6994 0.62508 0.0
C1713 C 0.19505 0.70717 0.63755 0.0
C1714 C 0.20277 0.70678 0.61241 0.0
C1715 C 0.20279 0.72208 0.61193 0.0
C1716 C 0.19863 0.72989 0.62424 0.0
H1717 H 0.24126 0.77222 0.5403 0.0
H1718 H 0.22624 0.76758 0.56158 0.0
C1719 C 0.1948 0.72251 0.63694 0.0
C1720 C 0.20737 0.72969 0.59853 0.0
H1721 H 0.2352 0.74992 0.58471 0.0
C1722 C 0.19922 0.72732 0.58548 0.0
C1723 C 0.22027 0.73832 0.59832 0.0
C1724 C 0.22959 0.74101 0.61197 0.0
C1725 C 0.20389 0.73292 0.57216 0.0
C1726 C 0.21721 0.74085 0.57182 0.0
C1727 C 0.22497 0.74387 0.58498 0.0
C1728 C 0.22431 0.74428 0.55789 0.0
C1729 C 0.19463 0.73003 0.55852 0.0
C1730 C 0.22802 0.73281 0.54866 0.0
C1731 C 0.23655 0.73542 0.53665 0.0
C1732 C 0.24161 0.74957 0.53354 0.0
C1733 C 0.23734 0.76123 0.54233 0.0
C1734 C 0.22885 0.75857 0.55452 0.0
H1735 H 0.18294 0.72871 0.56107 0.0
H1736 H 0.19575 0.73898 0.55049 0.0
H1737 H 0.19813 0.71973 0.55342 0.0
H1738 H 0.22495 0.72166 0.55118 0.0
H1739 H 0.23971 0.72621 0.53011 0.0
H1740 H 0.84455 0.72474 0.64963 0.0
H1741 H 0.8304 0.73162 0.62773 0.0
H1742 H 0.82357 0.68622 0.61672 0.0
H1743 H 0.83821 0.67924 0.63831 0.0
H1744 H 0.83185 0.70189 0.5935 0.0
H1745 H 0.78677 0.73002 0.61968 0.0
H1746 H 0.80422 0.73719 0.62579 0.0
H1747 H 0.79935 0.71855 0.62975 0.0
C1748 C 0.84009 0.7162 0.64254 0.0
C1749 C 0.84251 0.70142 0.64578 0.0
C1750 C 0.8318 0.72015 0.63012 0.0
C1751 C 0.82564 0.70943 0.62073 0.0
C1752 C 0.82806 0.69468 0.62389 0.0
H1753 H 0.76889 0.74016 0.5474 0.0
H1754 H 0.77715 0.72502 0.56816 0.0
C1755 C 0.83637 0.69071 0.6363 0.0
C1756 C 0.81746 0.7137 0.60716 0.0
H1757 H 0.79012 0.73559 0.59432 0.0
C1758 C 0.82258 0.70906 0.5937 0.0
C1759 C 0.80515 0.7228 0.60736 0.0
C1760 C 0.79845 0.7273 0.62143 0.0
C1761 C 0.81631 0.71403 0.58047 0.0
C1762 C 0.80478 0.72409 0.58071 0.0
C1763 C 0.79905 0.72799 0.59413 0.0
C1764 C 0.79974 0.73197 0.56738 0.0
C1765 C 0.82232 0.7087 0.56636 0.0
C1766 C 0.80968 0.74082 0.56008 0.0
C1767 C 0.80502 0.74942 0.54836 0.0
C1768 C 0.79028 0.74944 0.54366 0.0
C1769 C 0.78033 0.74028 0.5507 0.0
C1770 C 0.78502 0.73169 0.56258 0.0
H1771 H 0.82724 0.69777 0.5677 0.0
H1772 H 0.81372 0.7081 0.55755 0.0
H1773 H 0.83101 0.71637 0.56292 0.0
H1774 H 0.82102 0.74147 0.56375 0.0
H1775 H 0.81298 0.75634 0.5432 0.0
H1776 H 0.84011 0.3632 0.64218 0.0
H1777 H 0.83225 0.34872 0.62074 0.0
H1778 H 0.8391 0.30916 0.64516 0.0
H1779 H 0.84678 0.32354 0.66669 0.0
H1780 H 0.84879 0.32665 0.60631 0.0
H1781 H 0.79682 0.30491 0.62745 0.0
H1782 H 0.80622 0.32065 0.63532 0.0
H1783 H 0.81265 0.30264 0.63928 0.0
C1784 C 0.83979 0.35142 0.64303 0.0
C1785 C 0.84404 0.34453 0.65616 0.0
C1786 C 0.83538 0.34317 0.63075 0.0
C1787 C 0.83495 0.32787 0.6314 0.0
C1788 C 0.83917 0.32095 0.64447 0.0
H1789 H 0.82994 0.2648 0.56031 0.0
H1790 H 0.83704 0.27939 0.58177 0.0
C1791 C 0.84368 0.32919 0.65672 0.0
C1792 C 0.83041 0.31915 0.61831 0.0
H1793 H 0.80431 0.29517 0.60501 0.0
C1794 C 0.83906 0.31978 0.60601 0.0
C1795 C 0.81765 0.31029 0.61791 0.0
C1796 C 0.80769 0.30962 0.63063 0.0
C1797 C 0.8354 0.31161 0.59338 0.0
C1798 C 0.8228 0.30251 0.59309 0.0
C1799 C 0.81403 0.30206 0.60531 0.0
C1800 C 0.81845 0.29356 0.5801 0.0
C1801 C 0.84491 0.31291 0.58036 0.0
C1802 C 0.80551 0.29651 0.57216 0.0
C1803 C 0.80144 0.28826 0.55978 0.0
C1804 C 0.81017 0.27674 0.55513 0.0
C1805 C 0.82304 0.27369 0.56332 0.0
C1806 C 0.82713 0.28202 0.57565 0.0
H1807 H 0.85236 0.32256 0.58121 0.0
H1808 H 0.85164 0.303 0.5796 0.0
H1809 H 0.83815 0.31373 0.57012 0.0
H1810 H 0.79864 0.30537 0.57542 0.0
H1811 H 0.79157 0.29112 0.55377 0.0
H1812 H 0.17832 0.34546 0.65081 0.0
H1813 H 0.19185 0.33737 0.62985 0.0
H1814 H 0.23227 0.34973 0.65222 0.0
H1815 H 0.21893 0.35709 0.67348 0.0
H1816 H 0.20923 0.35281 0.61237 0.0
H1817 H 0.24145 0.30915 0.63911 0.0
H1818 H 0.22621 0.31746 0.64762 0.0
H1819 H 0.24382 0.32639 0.64822 0.0
C1820 C 0.1901 0.34619 0.65141 0.0
C1821 C 0.19751 0.35188 0.66391 0.0
C1822 C 0.19782 0.34167 0.63935 0.0
C1823 C 0.21311 0.34271 0.63952 0.0
C1824 C 0.22052 0.34849 0.65193 0.0
H1825 H 0.27839 0.33285 0.5741 0.0
H1826 H 0.26436 0.3399 0.59521 0.0
C1827 C 0.21283 0.35291 0.66402 0.0
C1828 C 0.22126 0.33827 0.62656 0.0
H1829 H 0.2489 0.31668 0.61557 0.0
C1830 C 0.21782 0.34483 0.61307 0.0
C1831 C 0.23247 0.32781 0.62743 0.0
C1832 C 0.23611 0.31969 0.64134 0.0
C1833 C 0.22547 0.34143 0.60053 0.0
C1834 C 0.23684 0.33125 0.60152 0.0
C1835 C 0.24024 0.3246 0.61493 0.0
C1836 C 0.24519 0.3272 0.58865 0.0
C1837 C 0.22154 0.34886 0.58632 0.0
C1838 C 0.23904 0.31771 0.57805 0.0
C1839 C 0.24703 0.31362 0.56604 0.0
C1840 C 0.2613 0.31902 0.56438 0.0
C1841 C 0.26738 0.32863 0.57499 0.0
C1842 C 0.25942 0.33261 0.58708 0.0
H1843 H 0.21354 0.35769 0.5877 0.0
H1844 H 0.23148 0.35355 0.58146 0.0
H1845 H 0.21676 0.3407 0.5785 0.0
H1846 H 0.22807 0.31341 0.57912 0.0
H1847 H 0.24197 0.30634 0.55799 0.0
H1848 H 0.18301 0.30559 0.3795 0.0
H1849 H 0.19382 0.296 0.40227 0.0
H1850 H 0.20389 0.33984 0.41689 0.0
H1851 H 0.19279 0.34952 0.39441 0.0
H1852 H 0.2223 0.29948 0.41382 0.0
H1853 H 0.18263 0.32243 0.45135 0.0
H1854 H 0.17914 0.32131 0.43188 0.0
H1855 H 0.19025 0.33593 0.43957 0.0
C1856 C 0.18738 0.3132 0.38763 0.0
C1857 C 0.18698 0.32834 0.38512 0.0
C1858 C 0.19363 0.30769 0.40061 0.0
C1859 C 0.19945 0.3172 0.4114 0.0
C1860 C 0.19921 0.3323 0.40885 0.0
H1861 H 0.25094 0.32079 0.48888 0.0
H1862 H 0.2347 0.32364 0.46759 0.0
C1863 C 0.19302 0.33781 0.39589 0.0
C1864 C 0.20618 0.31145 0.42517 0.0
H1865 H 0.20531 0.31455 0.46224 0.0
C1866 C 0.21845 0.30255 0.42442 0.0
C1867 C 0.20107 0.31536 0.43899 0.0
C1868 C 0.18746 0.32416 0.44054 0.0
C1869 C 0.22628 0.29823 0.43711 0.0
C1870 C 0.22158 0.30276 0.45091 0.0
C1871 C 0.20891 0.31109 0.45166 0.0
C1872 C 0.23057 0.30054 0.4645 0.0
C1873 C 0.23998 0.28954 0.43564 0.0
C1874 C 0.23341 0.28656 0.47012 0.0
C1875 C 0.24275 0.28487 0.48245 0.0
C1876 C 0.24942 0.29714 0.48926 0.0
C1877 C 0.24609 0.31109 0.48386 0.0
C1878 C 0.23676 0.31276 0.47168 0.0
H1879 H 0.24328 0.28873 0.42414 0.0
H1880 H 0.24911 0.29457 0.44225 0.0
H1881 H 0.23814 0.27833 0.4398 0.0
H1882 H 0.22857 0.27698 0.46486 0.0
H1883 H 0.24511 0.27399 0.48635 0.0
H1884 H 0.19723 0.69553 0.35441 0.0
H1885 H 0.2094 0.70763 0.37553 0.0
H1886 H 0.21474 0.66597 0.39656 0.0
H1887 H 0.20249 0.65386 0.37569 0.0
H1888 H 0.20268 0.70698 0.40614 0.0
H1889 H 0.25663 0.68327 0.39573 0.0
H1890 H 0.24193 0.68344 0.38212 0.0
H1891 H 0.24195 0.67014 0.39648 0.0
C1892 C 0.20084 0.68897 0.36361 0.0
C1893 C 0.19905 0.6737 0.36327 0.0
C1894 C 0.20785 0.69589 0.37563 0.0
C1895 C 0.21323 0.68766 0.38747 0.0
C1896 C 0.21098 0.6725 0.38739 0.0
H1897 H 0.26148 0.70306 0.46888 0.0
H1898 H 0.24829 0.69295 0.44745 0.0
C1899 C 0.20398 0.66559 0.37543 0.0
C1900 C 0.22133 0.6948 0.39991 0.0
H1901 H 0.25433 0.69551 0.41833 0.0
C1902 C 0.21401 0.70458 0.40877 0.0
C1903 C 0.2361 0.69162 0.40331 0.0
C1904 C 0.24469 0.68165 0.39385 0.0
C1905 C 0.22094 0.71093 0.4212 0.0
C1906 C 0.23568 0.70764 0.42469 0.0
C1907 C 0.24303 0.698 0.4157 0.0
C1908 C 0.24365 0.71391 0.43769 0.0
C1909 C 0.21227 0.72075 0.43075 0.0
C1910 C 0.24565 0.72905 0.43925 0.0
C1911 C 0.25321 0.73487 0.45149 0.0
C1912 C 0.25907 0.72566 0.46239 0.0
C1913 C 0.25725 0.71048 0.46067 0.0
C1914 C 0.24964 0.70468 0.44844 0.0
H1915 H 0.20034 0.71912 0.42879 0.0
H1916 H 0.21495 0.71881 0.44247 0.0
H1917 H 0.21498 0.7323 0.42828 0.0
H1918 H 0.24147 0.73638 0.43092 0.0
H1919 H 0.25464 0.74658 0.45229 0.0
H1920 H 0.8194 0.69603 0.36405 0.0
H1921 H 0.81061 0.70957 0.38499 0.0
H1922 H 0.85482 0.71538 0.40166 0.0
H1923 H 0.86363 0.70148 0.3811 0.0
H1924 H 0.836 0.70711 0.42289 0.0
H1925 H 0.81393 0.75374 0.39103 0.0
H1926 H 0.80686 0.73621 0.38525 0.0
H1927 H 0.82587 0.74051 0.38336 0.0
C1928 C 0.82723 0.70009 0.37224 0.0
C1929 C 0.84223 0.69778 0.37082 0.0
C1930 C 0.82221 0.70797 0.38411 0.0
C1931 C 0.83209 0.71373 0.39474 0.0
C1932 C 0.84701 0.71115 0.39352 0.0
H1933 H 0.81656 0.77992 0.46042 0.0
H1934 H 0.82516 0.76605 0.43964 0.0
C1935 C 0.85204 0.70329 0.3817 0.0
C1936 C 0.82695 0.72228 0.40727 0.0
H1937 H 0.80911 0.7533 0.41627 0.0
C1938 C 0.83012 0.71721 0.42144 0.0
C1939 C 0.81949 0.73557 0.40537 0.0
C1940 C 0.81644 0.74194 0.39045 0.0
C1941 C 0.82588 0.72498 0.43376 0.0
C1942 C 0.81803 0.73804 0.43185 0.0
C1943 C 0.81503 0.74322 0.4177 0.0
C1944 C 0.81281 0.74646 0.44444 0.0
C1945 C 0.83006 0.71925 0.44871 0.0
C1946 C 0.80291 0.74011 0.45393 0.0
C1947 C 0.79807 0.74796 0.46585 0.0
C1948 C 0.80293 0.7624 0.46849 0.0
C1949 C 0.81274 0.76879 0.45884 0.0
C1950 C 0.81759 0.7609 0.4469 0.0
H1951 H 0.83925 0.71153 0.44833 0.0
H1952 H 0.8332 0.7283 0.4563 0.0
H1953 H 0.82059 0.71333 0.45319 0.0
H1954 H 0.7989 0.72907 0.4521 0.0
H1955 H 0.79066 0.74259 0.47308 0.0
H1956 H 0.84856 0.33709 0.39112 0.0
H1957 H 0.83544 0.32918 0.41246 0.0
H1958 H 0.79448 0.33719 0.38966 0.0
H1959 H 0.80759 0.34479 0.36801 0.0
H1960 H 0.8151 0.34421 0.42929 0.0
H1961 H 0.7906 0.29438 0.40288 0.0
H1962 H 0.80549 0.30438 0.39507 0.0
H1963 H 0.78739 0.31149 0.39389 0.0
C1964 C 0.83676 0.33709 0.39058 0.0
C1965 C 0.82913 0.34141 0.37779 0.0
C1966 C 0.82927 0.33267 0.40284 0.0
C1967 C 0.81398 0.33242 0.40261 0.0
C1968 C 0.80628 0.3371 0.39001 0.0
H1969 H 0.76644 0.28855 0.47299 0.0
H1970 H 0.76993 0.30489 0.45206 0.0
C1971 C 0.81379 0.34156 0.3777 0.0
C1972 C 0.80633 0.3269 0.41554 0.0
H1973 H 0.78703 0.29754 0.42785 0.0
C1974 C 0.80876 0.33413 0.42893 0.0
C1975 C 0.79796 0.31381 0.41505 0.0
C1976 C 0.79522 0.30545 0.401 0.0
C1977 C 0.80361 0.32826 0.44194 0.0
C1978 C 0.79604 0.31471 0.44159 0.0
C1979 C 0.79282 0.30794 0.42809 0.0
C1980 C 0.79339 0.30636 0.45511 0.0
C1981 C 0.80672 0.33642 0.45603 0.0
C1982 C 0.80537 0.30186 0.46377 0.0
C1983 C 0.80342 0.29254 0.47554 0.0
C1984 C 0.78944 0.28748 0.47898 0.0
C1985 C 0.77732 0.29239 0.47067 0.0
C1986 C 0.77931 0.30166 0.4587 0.0
H1987 H 0.80797 0.34832 0.45411 0.0
H1988 H 0.79791 0.33458 0.46385 0.0
H1989 H 0.8171 0.33252 0.46111 0.0
H1990 H 0.81635 0.30509 0.46107 0.0
H1991 H 0.81298 0.28896 0.48172 0.0
H1992 H 0.16754 0.72362 0.67937 0.0
H1993 H 0.14688 0.73065 0.69392 0.0
H1994 H 0.1345 0.68537 0.69838 0.0
H1995 H 0.15506 0.67827 0.68387 0.0
H1996 H 0.11719 0.72548 0.68903 0.0
H1997 H 0.13644 0.69949 0.7406 0.0
H1998 H 0.14814 0.70237 0.72544 0.0
H1999 H 0.13539 0.68728 0.72526 0.0
C2000 C 0.16037 0.71517 0.68339 0.0
C2001 C 0.16304 0.70037 0.68056 0.0
C2002 C 0.14861 0.7192 0.69175 0.0
C2003 C 0.13931 0.70852 0.69749 0.0
C2004 C 0.14175 0.69378 0.69441 0.0
H2005 H 0.06101 0.70979 0.74793 0.0
H2006 H 0.08205 0.703 0.7339 0.0
C2007 C 0.15351 0.68974 0.68609 0.0
C2008 C 0.12689 0.71281 0.70644 0.0
H2009 H 0.11222 0.70834 0.73989 0.0
C2010 C 0.11614 0.72181 0.70018 0.0
C2011 C 0.12553 0.70799 0.72099 0.0
C2012 C 0.13705 0.69886 0.72854 0.0
C2013 C 0.10393 0.72587 0.70797 0.0
C2014 C 0.10254 0.721 0.72248 0.0
C2015 C 0.1133 0.71203 0.72875 0.0
C2016 C 0.09002 0.72513 0.73134 0.0
C2017 C 0.09244 0.73508 0.70047 0.0
C2018 C 0.0877 0.7398 0.73485 0.0
C2019 C 0.07573 0.74371 0.74294 0.0
C2020 C 0.06583 0.73303 0.74776 0.0
C2021 C 0.06842 0.7183 0.74452 0.0
C2022 C 0.08041 0.71439 0.73642 0.0
H2023 H 0.09328 0.73486 0.68842 0.0
H2024 H 0.08133 0.73131 0.70326 0.0
H2025 H 0.09385 0.74656 0.70417 0.0
H2026 H 0.09517 0.74823 0.73134 0.0
H2027 H 0.07429 0.75512 0.74548 0.0
H2028 H 0.8284 0.67317 0.68802 0.0
H2029 H 0.82121 0.65198 0.70242 0.0
H2030 H 0.86602 0.63866 0.70602 0.0
H2031 H 0.8733 0.65969 0.69148 0.0
H2032 H 0.82547 0.62212 0.69622 0.0
H2033 H 0.85323 0.63862 0.74858 0.0
H2034 H 0.84993 0.65127 0.73382 0.0
H2035 H 0.8647 0.63868 0.73312 0.0
C2036 C 0.83673 0.6657 0.6918 0.0
C2037 C 0.85144 0.66818 0.68862 0.0
C2038 C 0.8326 0.65364 0.70009 0.0
C2039 C 0.8431 0.64387 0.70547 0.0
C2040 C 0.85778 0.64624 0.70225 0.0
H2041 H 0.83939 0.56368 0.75586 0.0
H2042 H 0.84699 0.58522 0.74218 0.0
C2043 C 0.86191 0.65828 0.69394 0.0
C2044 C 0.83863 0.63097 0.71409 0.0
H2045 H 0.84292 0.61476 0.74743 0.0
C2046 C 0.82922 0.62053 0.70743 0.0
C2047 C 0.84361 0.6289 0.7287 0.0
C2048 C 0.85333 0.64 0.73656 0.0
C2049 C 0.82483 0.60796 0.71492 0.0
C2050 C 0.82973 0.60591 0.72956 0.0
C2051 C 0.83917 0.61634 0.73621 0.0
C2052 C 0.82511 0.59306 0.73819 0.0
C2053 C 0.81523 0.59681 0.70695 0.0
C2054 C 0.81032 0.59048 0.74076 0.0
C2055 C 0.80595 0.5782 0.74858 0.0
C2056 C 0.81629 0.56828 0.75411 0.0
C2057 C 0.83115 0.57111 0.75185 0.0
C2058 C 0.83551 0.58339 0.74397 0.0
H2059 H 0.81576 0.59798 0.69493 0.0
H2060 H 0.81839 0.58554 0.70997 0.0
H2061 H 0.80375 0.59836 0.70994 0.0
H2062 H 0.80213 0.598 0.73674 0.0
H2063 H 0.79446 0.57654 0.75038 0.0
H2064 H 0.87411 0.32967 0.69806 0.0
H2065 H 0.89574 0.32242 0.71247 0.0
H2066 H 0.90975 0.36742 0.71592 0.0
H2067 H 0.88825 0.37477 0.70141 0.0
H2068 H 0.92522 0.32695 0.70661 0.0
H2069 H 0.9113 0.35386 0.75846 0.0
H2070 H 0.8981 0.3509 0.74366 0.0
H2071 H 0.91111 0.3657 0.7429 0.0
C2072 C 0.88183 0.33803 0.70181 0.0
C2073 C 0.87938 0.35283 0.69862 0.0
C2074 C 0.89415 0.33387 0.71011 0.0
C2075 C 0.90424 0.34439 0.71548 0.0
C2076 C 0.90194 0.35914 0.71219 0.0
H2077 H 0.98624 0.34053 0.7659 0.0
H2078 H 0.96441 0.34814 0.75204 0.0
C2079 C 0.88962 0.36332 0.70389 0.0
C2080 C 0.91737 0.33989 0.7242 0.0
H2081 H 0.93492 0.34386 0.75748 0.0
C2082 C 0.92732 0.33059 0.71776 0.0
C2083 C 0.92011 0.34469 0.73873 0.0
C2084 C 0.90955 0.35424 0.74643 0.0
C2085 C 0.94005 0.32614 0.72535 0.0
C2086 C 0.94277 0.3309 0.7399 0.0
C2087 C 0.93283 0.34023 0.74634 0.0
C2088 C 0.95583 0.32625 0.74863 0.0
C2089 C 0.95063 0.31666 0.7176 0.0
C2090 C 0.95813 0.31143 0.75161 0.0
C2091 C 0.97058 0.30705 0.75956 0.0
C2092 C 0.98098 0.31739 0.76482 0.0
C2093 C 0.97845 0.33227 0.76213 0.0
C2094 C 0.96599 0.33664 0.75414 0.0
H2095 H 0.94899 0.31725 0.70556 0.0
H2096 H 0.96208 0.31988 0.72051 0.0
H2097 H 0.94895 0.30514 0.7209 0.0
H2098 H 0.95026 0.30324 0.7478 0.0
H2099 H 0.97199 0.29554 0.76168 0.0
H2100 H 0.21469 0.38283 0.70349 0.0
H2101 H 0.22348 0.40552 0.71483 0.0
H2102 H 0.17919 0.41945 0.71924 0.0
H2103 H 0.17028 0.39692 0.70731 0.0
H2104 H 0.19564 0.44056 0.70776 0.0
H2105 H 0.22492 0.41925 0.75655 0.0
H2106 H 0.23089 0.41052 0.74036 0.0
H2107 H 0.21228 0.40815 0.74564 0.0
C2108 C 0.20679 0.3907 0.70687 0.0
C2109 C 0.19176 0.38805 0.70441 0.0
C2110 C 0.21184 0.4036 0.71358 0.0
C2111 C 0.20201 0.4141 0.71817 0.0
C2112 C 0.18698 0.41143 0.71593 0.0
H2113 H 0.24351 0.49192 0.76054 0.0
H2114 H 0.22611 0.47143 0.75681 0.0
C2115 C 0.1819 0.39851 0.70918 0.0
C2116 C 0.20756 0.42832 0.72414 0.0
H2117 H 0.23269 0.44322 0.7484 0.0
C2118 C 0.20352 0.44116 0.71684 0.0
C2119 C 0.21761 0.42922 0.73618 0.0
C2120 C 0.22155 0.41605 0.74523 0.0
C2121 C 0.21005 0.45468 0.72058 0.0
C2122 C 0.2211 0.45533 0.73172 0.0
C2123 C 0.22436 0.4427 0.73973 0.0
C2124 C 0.23056 0.4685 0.73398 0.0
C2125 C 0.2053 0.46807 0.71228 0.0
C2126 C 0.23883 0.47361 0.72245 0.0
C2127 C 0.2487 0.48518 0.72454 0.0
C2128 C 0.25065 0.49192 0.73827 0.0
C2129 C 0.24218 0.48702 0.74982 0.0
C2130 C 0.23228 0.4753 0.74771 0.0
H2131 H 0.19381 0.46693 0.70816 0.0
H2132 H 0.20636 0.47803 0.71918 0.0
H2133 H 0.21223 0.46952 0.70271 0.0
H2134 H 0.23797 0.46834 0.71186 0.0
H2135 H 0.25505 0.48864 0.7154 0.0
H2136 H 0.13665 0.34912 0.34192 0.0
H2137 H 0.11398 0.33915 0.331 0.0
H2138 H 0.12863 0.29551 0.33999 0.0
H2139 H 0.15165 0.30539 0.35045 0.0
H2140 H 0.1167 0.29873 0.31186 0.0
H2141 H 0.0802 0.32154 0.35292 0.0
H2142 H 0.09161 0.33479 0.34431 0.0
H2143 H 0.09973 0.32105 0.35578 0.0
C2144 C 0.13512 0.33738 0.3415 0.0
C2145 C 0.146 0.32804 0.34706 0.0
C2146 C 0.12207 0.33172 0.33539 0.0
C2147 C 0.11954 0.3166 0.33483 0.0
C2148 C 0.13035 0.30723 0.34036 0.0
H2149 H 0.04318 0.26428 0.32581 0.0
H2150 H 0.0642 0.2794 0.33297 0.0
C2151 C 0.14344 0.31289 0.34645 0.0
C2152 C 0.10567 0.31052 0.32841 0.0
H2153 H 0.0689 0.30923 0.33282 0.0
C2154 C 0.10622 0.30107 0.31638 0.0
C2155 C 0.09203 0.31358 0.33436 0.0
C2156 C 0.09079 0.32319 0.34763 0.0
C2157 C 0.09354 0.29436 0.31031 0.0
C2158 C 0.07991 0.29738 0.3163 0.0
C2159 C 0.07934 0.30708 0.32813 0.0
C2160 C 0.06644 0.2892 0.31173 0.0
C2161 C 0.0949 0.28361 0.29797 0.0
C2162 C 0.06043 0.28994 0.29744 0.0
C2163 C 0.0483 0.2812 0.29325 0.0
C2164 C 0.04205 0.27163 0.30331 0.0
C2165 C 0.04778 0.27142 0.31773 0.0
C2166 C 0.0598 0.28011 0.32188 0.0
H2167 H 0.10641 0.28061 0.29633 0.0
H2168 H 0.08849 0.27351 0.30005 0.0
H2169 H 0.09051 0.28851 0.28771 0.0
H2170 H 0.06526 0.29708 0.2895 0.0
H2171 H 0.04411 0.28161 0.28208 0.0
H2172 H 0.19741 0.63608 0.30515 0.0
H2173 H 0.20915 0.61364 0.2975 0.0
H2174 H 0.21621 0.60139 0.34249 0.0
H2175 H 0.20425 0.6236 0.35025 0.0
H2176 H 0.24138 0.59896 0.32463 0.0
H2177 H 0.19189 0.57152 0.3002 0.0
H2178 H 0.19537 0.58978 0.29399 0.0
H2179 H 0.19096 0.58673 0.31266 0.0
C2180 C 0.20127 0.62853 0.31342 0.0
C2181 C 0.19987 0.63168 0.32833 0.0
C2182 C 0.20803 0.61573 0.30903 0.0
C2183 C 0.21348 0.60582 0.31943 0.0
C2184 C 0.21212 0.60892 0.33429 0.0
H2185 H 0.23812 0.51624 0.30489 0.0
H2186 H 0.2287 0.53885 0.31479 0.0
C2187 C 0.20533 0.62166 0.33869 0.0
C2188 C 0.22068 0.59225 0.31487 0.0
H2189 H 0.21439 0.55988 0.2971 0.0
C2190 C 0.2355 0.5904 0.31862 0.0
C2191 C 0.21293 0.58105 0.30717 0.0
C2192 C 0.19688 0.58224 0.30334 0.0
C2193 C 0.24283 0.5777 0.31468 0.0
C2194 C 0.23514 0.56662 0.30674 0.0
C2195 C 0.22028 0.56841 0.30315 0.0
C2196 C 0.24222 0.55304 0.30199 0.0
C2197 C 0.25868 0.57613 0.31922 0.0
C2198 C 0.2532 0.55351 0.29172 0.0
C2199 C 0.25864 0.54059 0.28602 0.0
C2200 C 0.25315 0.52693 0.29045 0.0
C2201 C 0.24262 0.52653 0.30123 0.0
C2202 C 0.23717 0.53945 0.30688 0.0
H2203 H 0.26206 0.58393 0.32803 0.0
H2204 H 0.2609 0.56486 0.32303 0.0
H2205 H 0.2655 0.57832 0.3097 0.0
H2206 H 0.25712 0.56388 0.28765 0.0
H2207 H 0.26668 0.54132 0.27769 0.0
H2208 H 0.87316 0.68852 0.31053 0.0
H2209 H 0.89535 0.69849 0.30005 0.0
H2210 H 0.91194 0.7104 0.34307 0.0
H2211 H 0.89031 0.69972 0.35367 0.0
H2212 H 0.90593 0.72576 0.30034 0.0
H2213 H 0.94652 0.69015 0.32775 0.0
H2214 H 0.92719 0.68637 0.32799 0.0
H2215 H 0.93555 0.6994 0.34054 0.0
C2216 C 0.88166 0.69298 0.3178 0.0
C2217 C 0.87989 0.69329 0.33297 0.0
C2218 C 0.8943 0.6988 0.31177 0.0
C2219 C 0.90544 0.70504 0.32078 0.0
C2220 C 0.90369 0.70538 0.3359 0.0
H2221 H 0.9724 0.765 0.28865 0.0
H2222 H 0.95148 0.75444 0.30096 0.0
C2223 C 0.89116 0.69944 0.34193 0.0
C2224 C 0.91866 0.71165 0.31435 0.0
H2225 H 0.95589 0.71135 0.31608 0.0
C2226 C 0.91686 0.72255 0.30373 0.0
C2227 C 0.93293 0.70738 0.31864 0.0
C2228 C 0.93568 0.69508 0.32924 0.0
C2229 C 0.9289 0.72937 0.29739 0.0
C2230 C 0.94318 0.72549 0.3021 0.0
C2231 C 0.94497 0.7145 0.31262 0.0
C2232 C 0.95641 0.73206 0.29564 0.0
C2233 C 0.92615 0.74035 0.28541 0.0
C2234 C 0.96658 0.723 0.28922 0.0
C2235 C 0.97868 0.72897 0.28246 0.0
C2236 C 0.98089 0.74419 0.28188 0.0
C2237 C 0.97099 0.75325 0.2888 0.0
C2238 C 0.95893 0.74723 0.29571 0.0
H2239 H 0.915 0.73909 0.28039 0.0
H2240 H 0.92717 0.75152 0.29004 0.0
H2241 H 0.93417 0.73928 0.2767 0.0
H2242 H 0.96496 0.71127 0.28909 0.0
H2243 H 0.98606 0.72163 0.27728 0.0
H2244 H 0.84182 0.36499 0.31406 0.0
H2245 H 0.83614 0.3868 0.29984 0.0
H2246 H 0.82532 0.40943 0.33917 0.0
H2247 H 0.83176 0.38798 0.35357 0.0
H2248 H 0.81122 0.40136 0.296 0.0
H2249 H 0.85285 0.43844 0.32177 0.0
H2250 H 0.85287 0.41899 0.3247 0.0
H2251 H 0.841 0.43044 0.33476 0.0
C2252 C 0.83847 0.37467 0.31975 0.0
C2253 C 0.83738 0.37469 0.33502 0.0
C2254 C 0.8351 0.38712 0.31156 0.0
C2255 C 0.83056 0.39989 0.31844 0.0
C2256 C 0.82915 0.39986 0.33363 0.0
H2257 H 0.79656 0.48261 0.2886 0.0
H2258 H 0.80356 0.46074 0.30225 0.0
C2259 C 0.83263 0.38746 0.34184 0.0
C2260 C 0.82698 0.41309 0.30967 0.0
H2261 H 0.83466 0.44955 0.30645 0.0
C2262 C 0.81644 0.41186 0.29822 0.0
C2263 C 0.83382 0.42682 0.31251 0.0
C2264 C 0.84587 0.42875 0.324 0.0
C2265 C 0.81235 0.42401 0.28979 0.0
C2266 C 0.81897 0.43774 0.29285 0.0
C2267 C 0.82956 0.439 0.30419 0.0
C2268 C 0.81487 0.45098 0.2845 0.0
C2269 C 0.80075 0.4222 0.27784 0.0
C2270 C 0.81905 0.45278 0.27004 0.0
C2271 C 0.81511 0.46531 0.26222 0.0
C2272 C 0.80683 0.4762 0.26869 0.0
C2273 C 0.80275 0.47435 0.28323 0.0
C2274 C 0.80681 0.4619 0.29107 0.0
H2275 H 0.79525 0.41133 0.27816 0.0
H2276 H 0.79243 0.43079 0.27871 0.0
H2277 H 0.8058 0.42343 0.26709 0.0
H2278 H 0.82536 0.4445 0.26482 0.0
H2279 H 0.81834 0.46635 0.25104 0.0
H2280 H 0.20657 0.65736 0.65199 0.0
H2281 H 0.22045 0.63615 0.66033 0.0
H2282 H 0.21931 0.65167 0.70466 0.0
H2283 H 0.20574 0.67307 0.69639 0.0
H2284 H 0.24699 0.64193 0.69662 0.0
H2285 H 0.20316 0.6013 0.68263 0.0
H2286 H 0.20818 0.61307 0.66794 0.0
H2287 H 0.19985 0.62063 0.68363 0.0
C2288 C 0.20938 0.65633 0.6635 0.0
C2289 C 0.20496 0.66687 0.67353 0.0
C2290 C 0.21719 0.64413 0.66826 0.0
C2291 C 0.22072 0.64222 0.68314 0.0
C2292 C 0.21661 0.65288 0.69314 0.0
H2293 H 0.24755 0.56434 0.72918 0.0
H2294 H 0.23525 0.58602 0.71984 0.0
C2295 C 0.20877 0.66505 0.6884 0.0
C2296 C 0.22866 0.62913 0.68835 0.0
H2297 H 0.22588 0.59202 0.69093 0.0
C2298 C 0.2424 0.63101 0.69536 0.0
C2299 C 0.22256 0.61491 0.68684 0.0
C2300 C 0.20758 0.61229 0.67997 0.0
C2301 C 0.25027 0.61904 0.70081 0.0
C2302 C 0.24428 0.60481 0.69907 0.0
C2303 C 0.2305 0.60294 0.69215 0.0
C2304 C 0.25195 0.59173 0.70474 0.0
C2305 C 0.26476 0.62176 0.7087 0.0
C2306 C 0.26539 0.58765 0.69926 0.0
C2307 C 0.2725 0.57527 0.70464 0.0
C2308 C 0.26631 0.5667 0.71559 0.0
C2309 C 0.25277 0.57079 0.72094 0.0
C2310 C 0.24566 0.58313 0.71553 0.0
H2311 H 0.26624 0.63336 0.71202 0.0
H2312 H 0.26584 0.6148 0.71856 0.0
H2313 H 0.27366 0.61897 0.70136 0.0
H2314 H 0.27034 0.59401 0.69077 0.0
H2315 H 0.28293 0.57251 0.70032 0.0
H2316 H 0.20844 0.35656 0.34453 0.0
H2317 H 0.21861 0.37691 0.33056 0.0
H2318 H 0.17621 0.39648 0.32744 0.0
H2319 H 0.16607 0.37642 0.34154 0.0
H2320 H 0.20928 0.38518 0.30179 0.0
H2321 H 0.20316 0.43038 0.34131 0.0
H2322 H 0.20253 0.41142 0.34659 0.0
H2323 H 0.18685 0.41966 0.33793 0.0
C2324 C 0.20136 0.36534 0.34108 0.0
C2325 C 0.18646 0.36488 0.34411 0.0
C2326 C 0.20716 0.3769 0.33304 0.0
C2327 C 0.19819 0.38827 0.32809 0.0
C2328 C 0.18337 0.38794 0.33133 0.0
H2329 H 0.20569 0.46549 0.27478 0.0
H2330 H 0.19757 0.44503 0.28963 0.0
C2331 C 0.17757 0.3764 0.33928 0.0
C2332 C 0.20405 0.40012 0.31889 0.0
H2333 H 0.20836 0.43712 0.31698 0.0
C2334 C 0.20923 0.39653 0.30515 0.0
C2335 C 0.20387 0.41491 0.32328 0.0
C2336 C 0.19893 0.41936 0.33813 0.0
C2337 C 0.21384 0.40738 0.29548 0.0
C2338 C 0.21354 0.4222 0.29981 0.0
C2339 C 0.20853 0.42577 0.31364 0.0
C2340 C 0.21836 0.43421 0.29018 0.0
C2341 C 0.21857 0.40291 0.28055 0.0
C2342 C 0.23274 0.43493 0.28552 0.0
C2343 C 0.23738 0.44655 0.27691 0.0
C2344 C 0.22779 0.4578 0.27287 0.0
C2345 C 0.21334 0.45697 0.27748 0.0
C2346 C 0.2087 0.44532 0.28609 0.0
H2347 H 0.21447 0.39181 0.27753 0.0
H2348 H 0.21466 0.41072 0.2721 0.0
H2349 H 0.23065 0.40281 0.28052 0.0
H2350 H 0.24046 0.42663 0.28875 0.0
H2351 H 0.24853 0.44672 0.27346 0.0
H2352 H 0.15006 0.67675 0.34156 0.0
H2353 H 0.12831 0.68555 0.32835 0.0
H2354 H 0.14628 0.67257 0.28763 0.0
H2355 H 0.16822 0.66406 0.30067 0.0
H2356 H 0.12651 0.70703 0.30516 0.0
H2357 H 0.10531 0.65248 0.28741 0.0
H2358 H 0.11881 0.65483 0.30207 0.0
H2359 H 0.124 0.6564 0.28345 0.0
C2360 C 0.14949 0.6759 0.32978 0.0
C2361 C 0.16093 0.66961 0.32222 0.0
C2362 C 0.13699 0.68086 0.32225 0.0
C2363 C 0.13557 0.67952 0.30702 0.0
C2364 C 0.14701 0.67345 0.29941 0.0
H2365 H 0.06664 0.70054 0.24281 0.0
H2366 H 0.08881 0.69186 0.25544 0.0
C2367 C 0.15954 0.66855 0.30691 0.0
C2368 C 0.12222 0.68466 0.29909 0.0
H2369 H 0.0928 0.67299 0.2781 0.0
C2370 C 0.11911 0.69959 0.29928 0.0
C2371 C 0.11263 0.67495 0.29133 0.0
C2372 C 0.11523 0.65874 0.29109 0.0
C2373 C 0.10677 0.70512 0.29177 0.0
C2374 C 0.09705 0.69539 0.28416 0.0
C2375 C 0.10022 0.68045 0.28392 0.0
C2376 C 0.08345 0.70047 0.27653 0.0
C2377 C 0.10448 0.72139 0.29179 0.0
C2378 C 0.07288 0.70793 0.28422 0.0
C2379 C 0.06023 0.71292 0.27702 0.0
C2380 C 0.05774 0.71042 0.26199 0.0
C2381 C 0.06815 0.70259 0.25439 0.0
C2382 C 0.08087 0.69767 0.26159 0.0
H2383 H 0.11483 0.7275 0.29421 0.0
H2384 H 0.09985 0.72514 0.28113 0.0
H2385 H 0.09676 0.72417 0.30036 0.0
H2386 H 0.07438 0.70984 0.29583 0.0
H2387 H 0.05232 0.71861 0.28329 0.0
H2388 H 0.81682 0.66427 0.33683 0.0
H2389 H 0.80458 0.64185 0.32805 0.0
H2390 H 0.84632 0.62218 0.32212 0.0
H2391 H 0.85862 0.6443 0.33139 0.0
H2392 H 0.8059 0.62824 0.30162 0.0
H2393 H 0.82554 0.59101 0.34515 0.0
H2394 H 0.82715 0.6106 0.34678 0.0
H2395 H 0.84019 0.60056 0.33671 0.0
C2396 C 0.82341 0.6551 0.33386 0.0
C2397 C 0.83874 0.65611 0.33491 0.0
C2398 C 0.81638 0.64231 0.32876 0.0
C2399 C 0.8245 0.63021 0.32467 0.0
C2400 C 0.83979 0.63124 0.32553 0.0
H2401 H 0.81599 0.5503 0.27925 0.0
H2402 H 0.82251 0.5717 0.294 0.0
C2403 C 0.84683 0.644 0.33064 0.0
C2404 C 0.81706 0.6167 0.31898 0.0
H2405 H 0.81572 0.57968 0.32324 0.0
C2406 C 0.80784 0.61764 0.30648 0.0
C2407 C 0.8195 0.60287 0.32539 0.0
C2408 C 0.82852 0.60119 0.33934 0.0
C2409 C 0.80168 0.60507 0.29976 0.0
C2410 C 0.80467 0.5912 0.3058 0.0
C2411 C 0.81342 0.59031 0.31862 0.0
C2412 C 0.80027 0.57748 0.29806 0.0
C2413 C 0.79263 0.60665 0.28582 0.0
C2414 C 0.78555 0.57332 0.29578 0.0
C2415 C 0.78174 0.56093 0.28734 0.0
C2416 C 0.79263 0.55261 0.28101 0.0
C2417 C 0.80733 0.55652 0.28387 0.0
C2418 C 0.81109 0.56875 0.29234 0.0
H2419 H 0.79307 0.61794 0.28146 0.0
H2420 H 0.79641 0.59904 0.27736 0.0
H2421 H 0.78109 0.60383 0.28791 0.0
H2422 H 0.77702 0.57982 0.30026 0.0
H2423 H 0.77033 0.55822 0.2853 0.0
H2424 H 0.86503 0.33211 0.32099 0.0
H2425 H 0.88539 0.31664 0.3146 0.0
H2426 H 0.89835 0.31324 0.36007 0.0
H2427 H 0.87816 0.32878 0.36655 0.0
H2428 H 0.91556 0.32076 0.32034 0.0
H2429 H 0.89507 0.27047 0.34683 0.0
H2430 H 0.88367 0.28601 0.34316 0.0
H2431 H 0.89633 0.28618 0.35856 0.0
C2432 C 0.87228 0.32817 0.32963 0.0
C2433 C 0.86988 0.33161 0.3443 0.0
C2434 C 0.88386 0.31926 0.32596 0.0
C2435 C 0.89322 0.31356 0.33688 0.0
C2436 C 0.89105 0.31722 0.35149 0.0
H2437 H 0.96958 0.25851 0.33761 0.0
H2438 H 0.94893 0.27359 0.34391 0.0
C2439 C 0.87949 0.32611 0.35517 0.0
C2440 C 0.9054 0.30396 0.33298 0.0
H2441 H 0.91906 0.2698 0.33807 0.0
C2442 C 0.9163 0.30959 0.32414 0.0
C2443 C 0.90636 0.28941 0.338 0.0
C2444 C 0.89468 0.28258 0.34706 0.0
C2445 C 0.92828 0.30116 0.32041 0.0
C2446 C 0.92923 0.28659 0.32542 0.0
C2447 C 0.91832 0.28096 0.33426 0.0
C2448 C 0.94146 0.27703 0.32158 0.0
C2449 C 0.93999 0.30804 0.31144 0.0
C2450 C 0.94391 0.27363 0.30695 0.0
C2451 C 0.95567 0.26499 0.30332 0.0
C2452 C 0.9652 0.25945 0.31425 0.0
C2453 C 0.96243 0.2625 0.32893 0.0
C2454 C 0.95067 0.27118 0.33255 0.0
H2455 H 0.93965 0.32015 0.31181 0.0
H2456 H 0.95099 0.30453 0.31528 0.0
H2457 H 0.93831 0.30459 0.29989 0.0
H2458 H 0.93671 0.27768 0.29832 0.0
H2459 H 0.95727 0.26261 0.29194 0.0
H2460 H 0.83957 0.38293 0.71307 0.0
H2461 H 0.82753 0.40519 0.72034 0.0
H2462 H 0.82147 0.41736 0.67519 0.0
H2463 H 0.83411 0.39534 0.66782 0.0
H2464 H 0.83208 0.4398 0.69125 0.0
H2465 H 0.78511 0.41582 0.71909 0.0
H2466 H 0.80194 0.40865 0.72626 0.0
H2467 H 0.79642 0.40518 0.70751 0.0
C2468 C 0.83572 0.39034 0.70466 0.0
C2469 C 0.83788 0.38733 0.68985 0.0
C2470 C 0.82861 0.40298 0.70883 0.0
C2471 C 0.8233 0.41285 0.69831 0.0
C2472 C 0.82532 0.40984 0.68351 0.0
H2473 H 0.7762 0.48869 0.73245 0.0
H2474 H 0.7813 0.4677 0.71669 0.0
C2475 C 0.83248 0.3972 0.67931 0.0
C2476 C 0.81665 0.42676 0.70292 0.0
H2477 H 0.79169 0.4407 0.72574 0.0
C2478 C 0.82307 0.43998 0.69858 0.0
C2479 C 0.80468 0.42711 0.71223 0.0
C2480 C 0.79654 0.41342 0.71641 0.0
C2481 C 0.81852 0.45342 0.70407 0.0
C2482 C 0.80742 0.45365 0.7144 0.0
C2483 C 0.80032 0.44054 0.71796 0.0
C2484 C 0.80427 0.46704 0.72283 0.0
C2485 C 0.82588 0.46723 0.699 0.0
C2486 C 0.81543 0.4736 0.73148 0.0
C2487 C 0.81256 0.48545 0.74042 0.0
C2488 C 0.79841 0.49105 0.74103 0.0
C2489 C 0.78723 0.4847 0.73214 0.0
C2490 C 0.79012 0.47269 0.72319 0.0
H2491 H 0.83005 0.46589 0.68786 0.0
H2492 H 0.81832 0.47658 0.69898 0.0
H2493 H 0.83533 0.46986 0.70647 0.0
H2494 H 0.82634 0.46926 0.73168 0.0
H2495 H 0.82145 0.49004 0.74712 0.0
H2496 H 0.16474 0.32459 0.69508 0.0
H2497 H 0.14283 0.3115 0.70268 0.0
H2498 H 0.12193 0.35251 0.71019 0.0
H2499 H 0.14352 0.36564 0.70214 0.0
H2500 H 0.12985 0.31231 0.72902 0.0
H2501 H 0.0909 0.33079 0.68587 0.0
H2502 H 0.11038 0.33299 0.68449 0.0
H2503 H 0.10022 0.34582 0.69483 0.0
C2504 C 0.15539 0.33082 0.69812 0.0
C2505 C 0.15589 0.34618 0.69793 0.0
C2506 C 0.1429 0.32332 0.70254 0.0
C2507 C 0.13062 0.33101 0.70674 0.0
C2508 C 0.13113 0.34632 0.70666 0.0
H2509 H 0.05438 0.32357 0.75318 0.0
H2510 H 0.07473 0.32929 0.73776 0.0
C2511 C 0.14358 0.35383 0.70225 0.0
C2512 C 0.11752 0.32314 0.71196 0.0
H2513 H 0.08041 0.32141 0.70776 0.0
C2514 C 0.11907 0.31404 0.72419 0.0
C2515 C 0.10345 0.3253 0.70559 0.0
C2516 C 0.10114 0.33414 0.69187 0.0
C2517 C 0.10685 0.30786 0.7308 0.0
C2518 C 0.09273 0.31074 0.72492 0.0
C2519 C 0.09124 0.31922 0.71225 0.0
C2520 C 0.07945 0.3068 0.73288 0.0
C2521 C 0.10904 0.29902 0.74453 0.0
C2522 C 0.07503 0.29221 0.73491 0.0
C2523 C 0.06323 0.28887 0.74372 0.0
C2524 C 0.05582 0.30009 0.75068 0.0
C2525 C 0.05993 0.31466 0.74806 0.0
C2526 C 0.07155 0.31797 0.73921 0.0
H2527 H 0.12058 0.29916 0.74859 0.0
H2528 H 0.10215 0.30325 0.75326 0.0
H2529 H 0.10566 0.28753 0.74234 0.0
H2530 H 0.08092 0.28344 0.72998 0.0
H2531 H 0.06033 0.27755 0.74558 0.0
H2532 H 0.89938 0.68987 0.68375 0.0
H2533 H 0.92162 0.70322 0.69137 0.0
H2534 H 0.9002 0.744 0.68287 0.0
H2535 H 0.87772 0.7307 0.6755 0.0
H2536 H 0.93841 0.72416 0.67541 0.0
H2537 H 0.91579 0.74773 0.72572 0.0
H2538 H 0.90709 0.73257 0.7161 0.0
H2539 H 0.90575 0.75067 0.70882 0.0
C2540 C 0.89934 0.70168 0.68359 0.0
C2541 C 0.88672 0.70922 0.67915 0.0
C2542 C 0.9121 0.70929 0.68784 0.0
C2543 C 0.91252 0.7246 0.68783 0.0
C2544 C 0.90006 0.73219 0.68313 0.0
H2545 H 0.98538 0.77475 0.73017 0.0
H2546 H 0.96366 0.77028 0.71416 0.0
C2547 C 0.88727 0.72457 0.67881 0.0
C2548 C 0.92601 0.73243 0.69303 0.0
H2549 H 0.94056 0.75217 0.72178 0.0
C2550 C 0.93885 0.73046 0.68545 0.0
C2551 C 0.92654 0.74077 0.70604 0.0
C2552 C 0.91312 0.74305 0.71475 0.0
C2553 C 0.9523 0.73611 0.69082 0.0
C2554 C 0.95299 0.7437 0.70428 0.0
C2555 C 0.94002 0.74638 0.71145 0.0
C2556 C 0.9671 0.74707 0.71211 0.0
C2557 C 0.96571 0.73362 0.68217 0.0
C2558 C 0.97631 0.73558 0.7161 0.0
C2559 C 0.98857 0.73809 0.7252 0.0
C2560 C 0.99195 0.75215 0.73056 0.0
C2561 C 0.98314 0.76383 0.72606 0.0
C2562 C 0.9707 0.76127 0.71699 0.0
H2563 H 0.96289 0.73258 0.67033 0.0
H2564 H 0.97382 0.74264 0.6838 0.0
H2565 H 0.97083 0.72329 0.68576 0.0
H2566 H 0.97362 0.72449 0.71277 0.0
H2567 H 0.99513 0.72885 0.72849 0.0
H2568 H 0.71998 0.19425 0.64644 0.0
H2569 H 0.72784 0.20679 0.62456 0.0
H2570 H 0.68312 0.21603 0.6125 0.0
H2571 H 0.67509 0.20304 0.63417 0.0
H2572 H 0.69771 0.20489 0.58983 0.0
H2573 H 0.73032 0.24994 0.61524 0.0
H2574 H 0.7358 0.23252 0.62218 0.0
H2575 H 0.71774 0.23893 0.62537 0.0
C2576 C 0.71179 0.19894 0.63915 0.0
C2577 C 0.69689 0.1976 0.64207 0.0
C2578 C 0.71633 0.2063 0.62673 0.0
C2579 C 0.7061 0.2126 0.61701 0.0
C2580 C 0.69122 0.21139 0.61993 0.0
H2581 H 0.74183 0.26138 0.54283 0.0
H2582 H 0.72603 0.25577 0.56329 0.0
C2583 C 0.68666 0.20402 0.63236 0.0
C2584 C 0.71095 0.21951 0.60332 0.0
H2585 H 0.73545 0.2442 0.59025 0.0
C2586 C 0.70578 0.21366 0.58993 0.0
C2587 C 0.72126 0.23116 0.60338 0.0
C2588 C 0.72648 0.23861 0.61732 0.0
C2589 C 0.71133 0.21848 0.57668 0.0
C2590 C 0.72251 0.22929 0.57683 0.0
C2591 C 0.72699 0.23582 0.59013 0.0
C2592 C 0.73081 0.23272 0.56363 0.0
C2593 C 0.70541 0.21172 0.56264 0.0
C2594 C 0.73866 0.22166 0.55704 0.0
C2595 C 0.74765 0.22482 0.54549 0.0
C2596 C 0.74905 0.23916 0.54024 0.0
C2597 C 0.74088 0.25022 0.54656 0.0
C2598 C 0.73191 0.24704 0.55827 0.0
H2599 H 0.69405 0.20762 0.56377 0.0
H2600 H 0.7056 0.21964 0.55352 0.0
H2601 H 0.71222 0.20229 0.55981 0.0
H2602 H 0.73824 0.2106 0.56116 0.0
H2603 H 0.75379 0.21604 0.54089 0.0
H2604 H 0.34739 0.22562 0.66009 0.0
H2605 H 0.33411 0.23418 0.63829 0.0
H2606 H 0.32545 0.18968 0.6249 0.0
H2607 H 0.33912 0.18101 0.64651 0.0
H2608 H 0.33561 0.20643 0.60274 0.0
H2609 H 0.29051 0.23473 0.62879 0.0
H2610 H 0.30804 0.24067 0.63598 0.0
H2611 H 0.30214 0.22207 0.63854 0.0
C2612 C 0.34268 0.21764 0.65252 0.0
C2613 C 0.34435 0.20262 0.65508 0.0
C2614 C 0.33491 0.22255 0.64014 0.0
C2615 C 0.32853 0.21258 0.63007 0.0
C2616 C 0.33014 0.19758 0.63259 0.0
H2617 H 0.27605 0.24851 0.55584 0.0
H2618 H 0.2829 0.23223 0.57624 0.0
C2619 C 0.3379 0.19265 0.645 0.0
C2620 C 0.32104 0.21789 0.61649 0.0
H2621 H 0.29498 0.24143 0.60393 0.0
C2622 C 0.32657 0.21389 0.603 0.0
C2623 C 0.30905 0.22741 0.61675 0.0
C2624 C 0.30198 0.23135 0.63079 0.0
C2625 C 0.32105 0.21987 0.58988 0.0
C2626 C 0.30982 0.23026 0.59026 0.0
C2627 C 0.30367 0.23356 0.60364 0.0
C2628 C 0.3056 0.23905 0.57724 0.0
C2629 C 0.32753 0.21527 0.57574 0.0
C2630 C 0.31604 0.24823 0.57107 0.0
C2631 C 0.31216 0.25749 0.5596 0.0
C2632 C 0.29773 0.25784 0.55396 0.0
C2633 C 0.28728 0.2484 0.55988 0.0
C2634 C 0.29116 0.23916 0.57154 0.0
H2635 H 0.3323 0.20422 0.57662 0.0
H2636 H 0.31924 0.21525 0.56664 0.0
H2637 H 0.33641 0.22304 0.57304 0.0
H2638 H 0.32716 0.24855 0.57544 0.0
H2639 H 0.3205 0.2646 0.55532 0.0
H2640 H 0.3552 0.84874 0.6457 0.0
H2641 H 0.34795 0.8343 0.62416 0.0
H2642 H 0.30297 0.83639 0.63592 0.0
H2643 H 0.31016 0.85079 0.65762 0.0
H2644 H 0.33355 0.80718 0.62351 0.0
H2645 H 0.30148 0.84874 0.59292 0.0
H2646 H 0.31379 0.85341 0.60805 0.0
H2647 H 0.29611 0.84569 0.61132 0.0
C2648 C 0.34375 0.84612 0.64374 0.0
C2649 C 0.33327 0.8509 0.65344 0.0
C2650 C 0.33963 0.83791 0.63138 0.0
C2651 C 0.32491 0.83437 0.62834 0.0
C2652 C 0.31437 0.83923 0.63789 0.0
H2653 H 0.2814 0.78341 0.55873 0.0
H2654 H 0.28728 0.79786 0.58064 0.0
C2655 C 0.31849 0.84746 0.65029 0.0
C2656 C 0.32077 0.82513 0.61546 0.0
H2657 H 0.30121 0.82485 0.58307 0.0
C2658 C 0.3265 0.81105 0.61465 0.0
C2659 C 0.31152 0.83017 0.60394 0.0
C2660 C 0.30544 0.84537 0.60397 0.0
C2661 C 0.32315 0.80182 0.6027 0.0
C2662 C 0.31405 0.80692 0.59109 0.0
C2663 C 0.3082 0.82095 0.59196 0.0
C2664 C 0.31057 0.79792 0.57787 0.0
C2665 C 0.32919 0.7866 0.60275 0.0
C2666 C 0.3217 0.79322 0.56893 0.0
C2667 C 0.31837 0.78497 0.55635 0.0
C2668 C 0.30382 0.78135 0.55236 0.0
C2669 C 0.29271 0.78612 0.56134 0.0
C2670 C 0.29605 0.79434 0.57393 0.0
H2671 H 0.33244 0.78304 0.61395 0.0
H2672 H 0.3211 0.77863 0.59803 0.0
H2673 H 0.33902 0.78642 0.59606 0.0
H2674 H 0.33297 0.79612 0.57156 0.0
H2675 H 0.32719 0.78172 0.5496 0.0
H2676 H 0.68001 0.8165 0.65608 0.0
H2677 H 0.69467 0.80962 0.63538 0.0
H2678 H 0.69719 0.85466 0.62219 0.0
H2679 H 0.68257 0.86161 0.64277 0.0
H2680 H 0.69002 0.81376 0.60525 0.0
H2681 H 0.74004 0.8431 0.62556 0.0
H2682 H 0.72477 0.83949 0.63694 0.0
H2683 H 0.7242 0.85432 0.62415 0.0
C2684 C 0.68357 0.82491 0.64868 0.0
C2685 C 0.68026 0.83962 0.65116 0.0
C2686 C 0.692 0.82098 0.63691 0.0
C2687 C 0.69728 0.83167 0.62744 0.0
C2688 C 0.69356 0.84628 0.62959 0.0
H2689 H 0.75006 0.83166 0.55072 0.0
H2690 H 0.73499 0.83806 0.5712 0.0
C2691 C 0.68518 0.85023 0.64135 0.0
C2692 C 0.70668 0.82759 0.61528 0.0
H2693 H 0.7403 0.83366 0.60144 0.0
C2694 C 0.70104 0.81803 0.60445 0.0
C2695 C 0.72106 0.8332 0.61426 0.0
C2696 C 0.72795 0.84299 0.62591 0.0
C2697 C 0.70929 0.81417 0.59246 0.0
C2698 C 0.72363 0.81985 0.5914 0.0
C2699 C 0.72928 0.82937 0.60225 0.0
C2700 C 0.73299 0.81596 0.57916 0.0
C2701 C 0.70246 0.80431 0.58084 0.0
C2702 C 0.73713 0.80147 0.57704 0.0
C2703 C 0.7458 0.79779 0.56541 0.0
C2704 C 0.75058 0.80854 0.55566 0.0
C2705 C 0.74668 0.82312 0.55804 0.0
C2706 C 0.738 0.82679 0.5697 0.0
H2707 H 0.69039 0.80389 0.58135 0.0
H2708 H 0.70542 0.80799 0.56979 0.0
H2709 H 0.70654 0.79308 0.58244 0.0
H2710 H 0.73369 0.79299 0.58443 0.0
H2711 H 0.74884 0.78651 0.56413 0.0
H2712 H 0.68508 0.84088 0.38801 0.0
H2713 H 0.69469 0.82953 0.41037 0.0
H2714 H 0.68618 0.78691 0.39174 0.0
H2715 H 0.67679 0.79819 0.36916 0.0
H2716 H 0.67972 0.80902 0.42892 0.0
H2717 H 0.72982 0.78618 0.40567 0.0
H2718 H 0.71959 0.80044 0.39668 0.0
H2719 H 0.7127 0.78202 0.39632 0.0
C2720 C 0.6854 0.82909 0.38859 0.0
C2721 C 0.68025 0.82045 0.37676 0.0
C2722 C 0.69079 0.82262 0.40142 0.0
C2723 C 0.69125 0.80739 0.40267 0.0
C2724 C 0.68606 0.79869 0.39094 0.0
H2725 H 0.73649 0.76334 0.47652 0.0
H2726 H 0.72008 0.766 0.45489 0.0
C2727 C 0.6806 0.80516 0.3781 0.0
C2728 C 0.69717 0.80076 0.41633 0.0
H2729 H 0.7268 0.78311 0.43078 0.0
C2730 C 0.68993 0.8032 0.42931 0.0
C2731 C 0.71038 0.79301 0.41679 0.0
C2732 C 0.71869 0.79028 0.40317 0.0
C2733 C 0.69583 0.79857 0.44282 0.0
C2734 C 0.70947 0.79158 0.44339 0.0
C2735 C 0.71633 0.78845 0.43033 0.0
C2736 C 0.71773 0.78932 0.4574 0.0
C2737 C 0.68752 0.80148 0.45639 0.0
C2738 C 0.72171 0.80148 0.46602 0.0
C2739 C 0.73103 0.8 0.47822 0.0
C2740 C 0.73664 0.78631 0.48211 0.0
C2741 C 0.73221 0.77398 0.47386 0.0
C2742 C 0.72291 0.77551 0.46149 0.0
H2743 H 0.67561 0.80194 0.45389 0.0
H2744 H 0.68957 0.79297 0.46478 0.0
H2745 H 0.69105 0.8122 0.46103 0.0
H2746 H 0.71814 0.81229 0.46293 0.0
H2747 H 0.73426 0.80971 0.48434 0.0
H2748 H 0.68285 0.17758 0.37949 0.0
H2749 H 0.69714 0.1873 0.40034 0.0
H2750 H 0.73679 0.17517 0.37993 0.0
H2751 H 0.72261 0.16612 0.35864 0.0
H2752 H 0.71547 0.17435 0.41947 0.0
H2753 H 0.74574 0.21719 0.3899 0.0
H2754 H 0.73034 0.2074 0.38171 0.0
H2755 H 0.74804 0.19921 0.38266 0.0
C2756 C 0.69462 0.17718 0.37929 0.0
C2757 C 0.70155 0.1712 0.36724 0.0
C2758 C 0.70278 0.18264 0.39131 0.0
C2759 C 0.71807 0.18225 0.39163 0.0
C2760 C 0.72503 0.17594 0.37981 0.0
H2761 H 0.78357 0.20789 0.45872 0.0
H2762 H 0.77059 0.19697 0.43746 0.0
C2763 C 0.71688 0.17057 0.36771 0.0
C2764 C 0.72662 0.18825 0.40444 0.0
H2765 H 0.7531 0.21327 0.41463 0.0
C2766 C 0.72367 0.18289 0.41839 0.0
C2767 C 0.73732 0.19942 0.40308 0.0
C2768 C 0.74048 0.20626 0.38856 0.0
C2769 C 0.73116 0.1883 0.43094 0.0
C2770 C 0.74185 0.19941 0.42954 0.0
C2771 C 0.74494 0.2047 0.41563 0.0
C2772 C 0.74969 0.20593 0.44246 0.0
C2773 C 0.72768 0.18204 0.44562 0.0
C2774 C 0.74226 0.21468 0.45223 0.0
C2775 C 0.74965 0.22097 0.46433 0.0
C2776 C 0.76462 0.21859 0.46695 0.0
C2777 C 0.77202 0.2098 0.45712 0.0
C2778 C 0.76464 0.20363 0.44493 0.0
H2779 H 0.72127 0.17169 0.44461 0.0
H2780 H 0.73785 0.18001 0.45217 0.0
H2781 H 0.72119 0.19001 0.45167 0.0
H2782 H 0.73074 0.2167 0.45044 0.0
H2783 H 0.74359 0.22755 0.47174 0.0
H2784 H 0.3692 0.205 0.39013 0.0
H2785 H 0.36313 0.22044 0.41085 0.0
H2786 H 0.31796 0.21958 0.39633 0.0
H2787 H 0.32392 0.20432 0.37557 0.0
H2788 H 0.34937 0.24812 0.41145 0.0
H2789 H 0.31689 0.20534 0.43881 0.0
H2790 H 0.32909 0.20126 0.42439 0.0
H2791 H 0.31135 0.20846 0.42012 0.0
C2792 C 0.358 0.20821 0.39128 0.0
C2793 C 0.34702 0.2033 0.38126 0.0
C2794 C 0.35455 0.21698 0.40315 0.0
C2795 C 0.34006 0.22094 0.40526 0.0
C2796 C 0.32915 0.21638 0.39509 0.0
H2797 H 0.29289 0.26944 0.4685 0.0
H2798 H 0.30101 0.2557 0.44752 0.0
C2799 C 0.33258 0.20763 0.38324 0.0
C2800 C 0.33628 0.2298 0.4181 0.0
H2801 H 0.31559 0.22938 0.4483 0.0
C2802 C 0.34206 0.24402 0.41957 0.0
C2803 C 0.32677 0.22439 0.42869 0.0
C2804 C 0.32075 0.20899 0.42805 0.0
C2805 C 0.33823 0.25313 0.43113 0.0
C2806 C 0.32855 0.24778 0.4416 0.0
C2807 C 0.32294 0.23349 0.44022 0.0
C2808 C 0.32388 0.25682 0.454 0.0
C2809 C 0.34422 0.26854 0.4318 0.0
C2810 C 0.33404 0.26204 0.46464 0.0
C2811 C 0.32942 0.26988 0.4767 0.0
C2812 C 0.31451 0.27254 0.47843 0.0
C2813 C 0.30441 0.26742 0.46764 0.0
C2814 C 0.30904 0.25962 0.45559 0.0
H2815 H 0.34848 0.27207 0.42116 0.0
H2816 H 0.33572 0.27629 0.43505 0.0
H2817 H 0.35332 0.26917 0.44006 0.0
H2818 H 0.34552 0.25974 0.4638 0.0
H2819 H 0.33747 0.27347 0.48489 0.0
H2820 H 0.33314 0.82566 0.36539 0.0
H2821 H 0.32245 0.81544 0.38724 0.0
H2822 H 0.31607 0.85883 0.40383 0.0
H2823 H 0.32732 0.86912 0.38236 0.0
H2824 H 0.32747 0.84153 0.42453 0.0
H2825 H 0.2801 0.81311 0.39775 0.0
H2826 H 0.29703 0.80773 0.39034 0.0
H2827 H 0.29114 0.82628 0.38835 0.0
C2828 C 0.32955 0.83304 0.37372 0.0
C2829 C 0.33104 0.84824 0.37203 0.0
C2830 C 0.32322 0.82717 0.38612 0.0
C2831 C 0.31812 0.83636 0.39706 0.0
C2832 C 0.31974 0.85151 0.39548 0.0
H2833 H 0.26913 0.79934 0.47012 0.0
H2834 H 0.27546 0.81505 0.44945 0.0
C2835 C 0.3261 0.85739 0.38312 0.0
C2836 C 0.31178 0.83017 0.41046 0.0
H2837 H 0.28605 0.80611 0.42244 0.0
C2838 C 0.31829 0.83392 0.42406 0.0
C2839 C 0.29961 0.82047 0.40995 0.0
C2840 C 0.29146 0.81678 0.39582 0.0
C2841 C 0.31345 0.82771 0.43704 0.0
C2842 C 0.30195 0.81725 0.43642 0.0
C2843 C 0.29495 0.81404 0.42292 0.0
C2844 C 0.29803 0.80855 0.4494 0.0
C2845 C 0.32083 0.83231 0.45131 0.0
C2846 C 0.30856 0.79969 0.45616 0.0
C2847 C 0.305 0.7908 0.46785 0.0
C2848 C 0.29077 0.79044 0.47306 0.0
C2849 C 0.2802 0.79946 0.46643 0.0
C2850 C 0.2838 0.80838 0.4546 0.0
H2851 H 0.32573 0.84343 0.45058 0.0
H2852 H 0.31306 0.83216 0.46032 0.0
H2853 H 0.32975 0.82464 0.45407 0.0
H2854 H 0.31952 0.79939 0.45217 0.0
H2855 H 0.31343 0.784 0.47265 0.0
H2856 H 0.67356 0.18497 0.70522 0.0
H2857 H 0.6531 0.19237 0.71967 0.0
H2858 H 0.63069 0.20788 0.68076 0.0
H2859 H 0.65076 0.19976 0.66609 0.0
H2860 H 0.6414 0.21851 0.72423 0.0
H2861 H 0.59965 0.18214 0.69746 0.0
H2862 H 0.61885 0.18037 0.69448 0.0
H2863 H 0.60845 0.19406 0.68492 0.0
C2864 C 0.66419 0.18974 0.69967 0.0
C2865 C 0.66377 0.19156 0.68442 0.0
C2866 C 0.65254 0.1941 0.70798 0.0
C2867 C 0.6402 0.20042 0.70129 0.0
C2868 C 0.63992 0.20269 0.68614 0.0
H2869 H 0.5621 0.23853 0.73505 0.0
H2870 H 0.58255 0.2314 0.72029 0.0
C2871 C 0.65153 0.19822 0.67779 0.0
C2872 C 0.62775 0.20476 0.71022 0.0
H2873 H 0.59107 0.19984 0.71397 0.0
C2874 C 0.63042 0.21436 0.72201 0.0
C2875 C 0.61339 0.1993 0.70739 0.0
C2876 C 0.60991 0.18829 0.69547 0.0
C2877 C 0.61912 0.2188 0.73088 0.0
C2878 C 0.6048 0.21349 0.72792 0.0
C2879 C 0.60208 0.20392 0.71615 0.0
C2880 C 0.59248 0.21777 0.73693 0.0
C2881 C 0.62248 0.2293 0.74328 0.0
C2882 C 0.59125 0.21234 0.75113 0.0
C2883 C 0.57954 0.21635 0.75958 0.0
C2884 C 0.56892 0.22594 0.75401 0.0
C2885 C 0.5702 0.2313 0.73974 0.0
C2886 C 0.58182 0.22718 0.73126 0.0
H2887 H 0.63366 0.23406 0.74283 0.0
H2888 H 0.61451 0.23829 0.7431 0.0
H2889 H 0.62153 0.22347 0.7538 0.0
H2890 H 0.59934 0.20498 0.75565 0.0
H2891 H 0.57892 0.21212 0.77054 0.0
H2892 H 0.34301 0.15496 0.67781 0.0
H2893 H 0.33458 0.13397 0.69177 0.0
H2894 H 0.35041 0.15468 0.73162 0.0
H2895 H 0.35814 0.176 0.71788 0.0
H2896 H 0.34976 0.11524 0.70874 0.0
H2897 H 0.30975 0.14332 0.74238 0.0
H2898 H 0.31774 0.15182 0.72679 0.0
H2899 H 0.32764 0.15141 0.74407 0.0
C2900 C 0.34446 0.15519 0.68957 0.0
C2901 C 0.35121 0.16727 0.69669 0.0
C2902 C 0.33974 0.14311 0.69754 0.0
C2903 C 0.34163 0.14281 0.71279 0.0
C2904 C 0.3485 0.15476 0.71991 0.0
H2905 H 0.32715 0.07697 0.77927 0.0
H2906 H 0.3354 0.09815 0.76532 0.0
C2907 C 0.35313 0.16688 0.71198 0.0
C2908 C 0.33682 0.12982 0.72119 0.0
H2909 H 0.31581 0.11909 0.74942 0.0
C2910 C 0.34226 0.11609 0.71757 0.0
C2911 C 0.32701 0.13089 0.73273 0.0
C2912 C 0.32008 0.14513 0.73664 0.0
C2913 C 0.33838 0.10347 0.7253 0.0
C2914 C 0.32875 0.1046 0.73692 0.0
C2915 C 0.32328 0.11829 0.74056 0.0
C2916 C 0.324 0.09163 0.74526 0.0
C2917 C 0.34475 0.08904 0.72115 0.0
C2918 C 0.31481 0.08101 0.73863 0.0
C2919 C 0.31005 0.06895 0.74657 0.0
C2920 C 0.31443 0.06723 0.76132 0.0
C2921 C 0.32371 0.07788 0.76791 0.0
C2922 C 0.32837 0.09002 0.75998 0.0
H2923 H 0.35407 0.09041 0.71385 0.0
H2924 H 0.34847 0.08299 0.73104 0.0
H2925 H 0.33622 0.08229 0.71537 0.0
H2926 H 0.31122 0.08212 0.72732 0.0
H2927 H 0.30303 0.0609 0.74113 0.0
H2928 H 0.35957 0.86113 0.71757 0.0
H2929 H 0.3813 0.85312 0.73132 0.0
H2930 H 0.40206 0.84342 0.69107 0.0
H2931 H 0.3807 0.85204 0.67724 0.0
H2932 H 0.39371 0.82652 0.732 0.0
H2933 H 0.43351 0.86723 0.7122 0.0
H2934 H 0.4141 0.86912 0.70922 0.0
H2935 H 0.42422 0.85741 0.69763 0.0
C2936 C 0.36886 0.85755 0.71162 0.0
C2937 C 0.36837 0.85731 0.69627 0.0
C2938 C 0.38124 0.85287 0.71951 0.0
C2939 C 0.39343 0.84789 0.71225 0.0
C2940 C 0.39294 0.84753 0.69694 0.0
H2941 H 0.47399 0.80539 0.73627 0.0
H2942 H 0.45268 0.81621 0.72397 0.0
C2943 C 0.3806 0.85227 0.68904 0.0
C2944 C 0.40642 0.84253 0.72066 0.0
H2945 H 0.44339 0.84671 0.72491 0.0
C2946 C 0.40455 0.83104 0.73056 0.0
C2947 C 0.42057 0.84844 0.7188 0.0
C2948 C 0.42323 0.86133 0.709 0.0
C2949 C 0.41649 0.82503 0.7383 0.0
C2950 C 0.43065 0.83074 0.7362 0.0
C2951 C 0.43252 0.84233 0.72645 0.0
C2952 C 0.4437 0.82455 0.74374 0.0
C2953 C 0.41394 0.81234 0.74839 0.0
C2954 C 0.44581 0.82585 0.75892 0.0
C2955 C 0.458 0.81969 0.76598 0.0
C2956 C 0.46826 0.81205 0.758 0.0
C2957 C 0.46619 0.811 0.74276 0.0
C2958 C 0.45407 0.81724 0.7357 0.0
H2959 H 0.40283 0.8075 0.74675 0.0
H2960 H 0.42208 0.80371 0.74671 0.0
H2961 H 0.41521 0.81614 0.75986 0.0
H2962 H 0.43801 0.83159 0.7653 0.0
H2963 H 0.45921 0.82062 0.77772 0.0
H2964 H 0.67755 0.88733 0.67385 0.0
H2965 H 0.68655 0.90883 0.68746 0.0
H2966 H 0.68185 0.88566 0.72789 0.0
H2967 H 0.67297 0.86401 0.71433 0.0
H2968 H 0.67189 0.92444 0.71068 0.0
H2969 H 0.72528 0.9011 0.72829 0.0
H2970 H 0.71432 0.89367 0.71322 0.0
H2971 H 0.70926 0.89022 0.73162 0.0
C2972 C 0.67851 0.88678 0.68563 0.0
C2973 C 0.67463 0.87395 0.69302 0.0
C2974 C 0.68357 0.89909 0.69338 0.0
C2975 C 0.68497 0.89877 0.70865 0.0
C2976 C 0.68096 0.88606 0.71609 0.0
H2977 H 0.70231 0.97387 0.76604 0.0
H2978 H 0.69205 0.95159 0.75485 0.0
C2979 C 0.6758 0.87375 0.70835 0.0
C2980 C 0.69069 0.91178 0.7167 0.0
H2981 H 0.72022 0.92479 0.73666 0.0
C2982 C 0.68241 0.92452 0.71644 0.0
C2983 C 0.70448 0.91183 0.72407 0.0
C2984 C 0.71396 0.89853 0.7243 0.0
C2985 C 0.68758 0.93736 0.72337 0.0
C2986 C 0.70134 0.9374 0.73078 0.0
C2987 C 0.70962 0.92466 0.73105 0.0
C2988 C 0.70762 0.95078 0.73775 0.0
C2989 C 0.67847 0.95091 0.72241 0.0
C2990 C 0.71989 0.95757 0.73195 0.0
C2991 C 0.72573 0.97037 0.73822 0.0
C2992 C 0.71949 0.97661 0.75055 0.0
C2993 C 0.70729 0.96959 0.75645 0.0
C2994 C 0.70141 0.9568 0.7501 0.0
H2995 H 0.66931 0.94976 0.71422 0.0
H2996 H 0.67384 0.95309 0.7332 0.0
H2997 H 0.68529 0.96051 0.71952 0.0
H2998 H 0.72482 0.95308 0.7224 0.0
H2999 H 0.73497 0.97548 0.7332 0.0
H3000 H 0.64776 0.82562 0.31468 0.0
H3001 H 0.62485 0.81561 0.304 0.0
H3002 H 0.60848 0.80944 0.34704 0.0
H3003 H 0.63114 0.8196 0.35778 0.0
H3004 H 0.6047 0.78468 0.32848 0.0
H3005 H 0.58466 0.83547 0.30215 0.0
H3006 H 0.6028 0.83029 0.29776 0.0
H3007 H 0.59904 0.83557 0.31609 0.0
C3008 C 0.63921 0.82231 0.32187 0.0
C3009 C 0.64135 0.82337 0.3371 0.0
C3010 C 0.62614 0.81655 0.31574 0.0
C3011 C 0.61492 0.81183 0.32472 0.0
C3012 C 0.617 0.81295 0.3399 0.0
H3013 H 0.52396 0.79488 0.30286 0.0
H3014 H 0.54741 0.80278 0.31378 0.0
C3015 C 0.63001 0.81872 0.34602 0.0
C3016 C 0.60105 0.80556 0.31842 0.0
H3017 H 0.57066 0.81398 0.29776 0.0
C3018 C 0.59726 0.79106 0.32172 0.0
C3019 C 0.5913 0.81395 0.30974 0.0
C3020 C 0.59453 0.82972 0.30628 0.0
C3021 C 0.58401 0.78472 0.31655 0.0
C3022 C 0.57433 0.79307 0.30775 0.0
C3023 C 0.57812 0.80757 0.30447 0.0
C3024 C 0.56005 0.78716 0.30209 0.0
C3025 C 0.58031 0.76926 0.32081 0.0
C3026 C 0.55929 0.77554 0.29207 0.0
C3027 C 0.54584 0.77094 0.2858 0.0
C3028 C 0.53289 0.77794 0.28938 0.0
C3029 C 0.53367 0.78922 0.29983 0.0
C3030 C 0.5471 0.7938 0.30606 0.0
H3031 H 0.58727 0.76549 0.33017 0.0
H3032 H 0.5687 0.76825 0.32374 0.0
H3033 H 0.58202 0.76191 0.31143 0.0
H3034 H 0.56915 0.77037 0.28869 0.0
H3035 H 0.54568 0.76231 0.27771 0.0
H3036 H 0.71611 0.14011 0.32745 0.0
H3037 H 0.7235 0.11794 0.31508 0.0
H3038 H 0.67853 0.10399 0.3102 0.0
H3039 H 0.67107 0.12592 0.32307 0.0
H3040 H 0.69545 0.08221 0.32012 0.0
H3041 H 0.72096 0.10708 0.27233 0.0
H3042 H 0.72843 0.11458 0.2891 0.0
H3043 H 0.7095 0.11724 0.28417 0.0
C3044 C 0.70777 0.13232 0.32379 0.0
C3045 C 0.69298 0.13485 0.32629 0.0
C3046 C 0.712 0.11973 0.31651 0.0
C3047 C 0.70156 0.10939 0.31141 0.0
C3048 C 0.68679 0.11186 0.31387 0.0
H3049 H 0.73419 0.0343 0.26123 0.0
H3050 H 0.71873 0.05508 0.26737 0.0
C3051 C 0.68253 0.12447 0.32117 0.0
C3052 C 0.7062 0.09561 0.30438 0.0
H3053 H 0.72787 0.08236 0.27799 0.0
C3054 C 0.70234 0.08226 0.31075 0.0
C3055 C 0.71494 0.09555 0.29195 0.0
C3056 C 0.71856 0.10938 0.28389 0.0
C3057 C 0.70771 0.06898 0.30564 0.0
C3058 C 0.71744 0.06904 0.29399 0.0
C3059 C 0.72055 0.08229 0.28701 0.0
C3060 C 0.72578 0.05585 0.29013 0.0
C3061 C 0.70313 0.05503 0.31298 0.0
C3062 C 0.73486 0.04942 0.30081 0.0
C3063 C 0.74358 0.03768 0.29737 0.0
C3064 C 0.7436 0.03205 0.28308 0.0
C3065 C 0.73433 0.0383 0.27235 0.0
C3066 C 0.72556 0.05019 0.27583 0.0
H3067 H 0.6922 0.05605 0.31767 0.0
H3068 H 0.70286 0.04567 0.30527 0.0
H3069 H 0.71101 0.05264 0.32208 0.0
H3070 H 0.73554 0.05376 0.31181 0.0
H3071 H 0.75057 0.03321 0.30594 0.0
H3072 H 0.37682 0.21302 0.33936 0.0
H3073 H 0.39795 0.21735 0.32433 0.0
H3074 H 0.40629 0.1712 0.32375 0.0
H3075 H 0.38528 0.16678 0.33889 0.0
H3076 H 0.42744 0.21014 0.33008 0.0
H3077 H 0.40492 0.18214 0.28025 0.0
H3078 H 0.39368 0.18734 0.2951 0.0
H3079 H 0.40477 0.1714 0.2966 0.0
C3080 C 0.38322 0.2038 0.33614 0.0
C3081 C 0.3793 0.18954 0.34027 0.0
C3082 C 0.39524 0.20628 0.32748 0.0
C3083 C 0.40353 0.19457 0.32271 0.0
C3084 C 0.39983 0.18036 0.32702 0.0
H3085 H 0.48047 0.19015 0.26952 0.0
H3086 H 0.45935 0.18425 0.28419 0.0
C3087 C 0.38782 0.17786 0.33568 0.0
C3088 C 0.4162 0.19728 0.31343 0.0
H3089 H 0.4295 0.19032 0.27983 0.0
C3090 C 0.42788 0.20584 0.31908 0.0
C3091 C 0.41678 0.19158 0.29911 0.0
C3092 C 0.40433 0.1827 0.29231 0.0
C3093 C 0.44018 0.20879 0.31084 0.0
C3094 C 0.44068 0.20325 0.29645 0.0
C3095 C 0.42908 0.19455 0.29085 0.0
C3096 C 0.45303 0.2067 0.28696 0.0
C3097 C 0.45264 0.2176 0.31772 0.0
C3098 C 0.4562 0.22122 0.2833 0.0
C3099 C 0.4682 0.2246 0.27493 0.0
C3100 C 0.47725 0.21352 0.26994 0.0
C3101 C 0.47371 0.19892 0.27314 0.0
C3102 C 0.46169 0.19554 0.28157 0.0
H3103 H 0.45236 0.21753 0.32982 0.0
H3104 H 0.46331 0.21339 0.31442 0.0
H3105 H 0.45181 0.2291 0.31406 0.0
H3106 H 0.44944 0.22997 0.287 0.0
H3107 H 0.4704 0.23592 0.27237 0.0
H3108 H 0.35273 0.89734 0.3296 0.0
H3109 H 0.34254 0.91952 0.31886 0.0
H3110 H 0.29908 0.90274 0.32507 0.0
H3111 H 0.30915 0.88029 0.33533 0.0
H3112 H 0.3026 0.91557 0.29766 0.0
H3113 H 0.32387 0.95172 0.34256 0.0
H3114 H 0.33728 0.9411 0.3337 0.0
H3115 H 0.32357 0.9321 0.34406 0.0
C3116 C 0.34099 0.89829 0.32854 0.0
C3117 C 0.33175 0.88706 0.33341 0.0
C3118 C 0.3352 0.91104 0.32253 0.0
C3119 C 0.32006 0.91286 0.32135 0.0
C3120 C 0.3108 0.90158 0.32594 0.0
H3121 H 0.26384 0.98432 0.31764 0.0
H3122 H 0.28003 0.96416 0.32296 0.0
C3123 C 0.31658 0.88882 0.33193 0.0
C3124 C 0.31376 0.9266 0.31562 0.0
H3125 H 0.3105 0.96282 0.32339 0.0
C3126 C 0.30442 0.92594 0.30317 0.0
C3127 C 0.31615 0.94009 0.3229 0.0
C3128 C 0.32566 0.94136 0.33661 0.0
C3129 C 0.29706 0.93835 0.29805 0.0
C3130 C 0.29926 0.95178 0.30547 0.0
C3131 C 0.30896 0.95253 0.31764 0.0
C3132 C 0.29019 0.96466 0.30205 0.0
C3133 C 0.28643 0.93684 0.28519 0.0
C3134 C 0.29069 0.97186 0.28857 0.0
C3135 C 0.28135 0.98352 0.28544 0.0
C3136 C 0.27139 0.98807 0.29577 0.0
C3137 C 0.27129 0.98106 0.30938 0.0
C3138 C 0.28058 0.96953 0.31248 0.0
H3139 H 0.28434 0.92525 0.2821 0.0
H3140 H 0.27589 0.94192 0.28765 0.0
H3141 H 0.29091 0.94257 0.27566 0.0
H3142 H 0.29819 0.96839 0.28044 0.0
H3143 H 0.2817 0.98872 0.27487 0.0
H3144 H 0.72338 0.16152 0.67127 0.0
H3145 H 0.73502 0.13872 0.67876 0.0
H3146 H 0.69287 0.11984 0.68729 0.0
H3147 H 0.68116 0.14231 0.67934 0.0
H3148 H 0.73458 0.12586 0.70535 0.0
H3149 H 0.71074 0.08763 0.66413 0.0
H3150 H 0.70992 0.10718 0.66201 0.0
H3151 H 0.69689 0.09766 0.67289 0.0
C3152 C 0.71657 0.15241 0.67447 0.0
C3153 C 0.70132 0.15376 0.67471 0.0
C3154 C 0.72325 0.13941 0.67881 0.0
C3155 C 0.71482 0.12746 0.68336 0.0
C3156 C 0.6996 0.12876 0.68351 0.0
H3157 H 0.71746 0.0523 0.73402 0.0
H3158 H 0.71293 0.07265 0.71754 0.0
C3159 C 0.69293 0.14171 0.67915 0.0
C3160 C 0.72185 0.11399 0.68898 0.0
H3161 H 0.71986 0.07681 0.68664 0.0
C3162 C 0.73164 0.11514 0.70106 0.0
C3163 C 0.71809 0.10001 0.68331 0.0
C3164 C 0.70845 0.09804 0.66977 0.0
C3165 C 0.73695 0.10267 0.70823 0.0
C3166 C 0.73243 0.0887 0.7031 0.0
C3167 C 0.72329 0.08754 0.69057 0.0
C3168 C 0.73543 0.07537 0.71176 0.0
C3169 C 0.74661 0.10449 0.72178 0.0
C3170 C 0.74957 0.06987 0.71367 0.0
C3171 C 0.75222 0.05807 0.72308 0.0
C3172 C 0.74075 0.05176 0.73079 0.0
C3173 C 0.72655 0.05698 0.72834 0.0
C3174 C 0.72392 0.06859 0.71888 0.0
H3175 H 0.74794 0.1161 0.72513 0.0
H3176 H 0.74203 0.09824 0.73094 0.0
H3177 H 0.75755 0.10009 0.71973 0.0
H3178 H 0.75859 0.0749 0.70815 0.0
H3179 H 0.76327 0.0543 0.72479 0.0
H3180 H 0.68833 0.86942 0.36015 0.0
H3181 H 0.70236 0.89004 0.3509 0.0
H3182 H 0.69486 0.87423 0.30694 0.0
H3183 H 0.68084 0.85344 0.31614 0.0
H3184 H 0.72767 0.88885 0.3352 0.0
H3185 H 0.68403 0.9173 0.30348 0.0
H3186 H 0.68015 0.9034 0.31677 0.0
H3187 H 0.68599 0.89836 0.29898 0.0
C3188 C 0.68965 0.87029 0.3485 0.0
C3189 C 0.6835 0.8597 0.3389 0.0
C3190 C 0.69764 0.88214 0.34323 0.0
C3191 C 0.69959 0.88378 0.32822 0.0
C3192 C 0.69329 0.87337 0.31855 0.0
H3193 H 0.74853 0.94808 0.27863 0.0
H3194 H 0.73371 0.92725 0.28625 0.0
C3195 C 0.68527 0.86147 0.32383 0.0
C3196 C 0.70876 0.89606 0.32286 0.0
H3197 H 0.7081 0.92656 0.30148 0.0
C3198 C 0.72338 0.89711 0.32785 0.0
C3199 C 0.70318 0.9068 0.31321 0.0
C3200 C 0.68745 0.90654 0.30787 0.0
C3201 C 0.73259 0.90852 0.32339 0.0
C3202 C 0.72698 0.91939 0.3139 0.0
C3203 C 0.7124 0.91825 0.30877 0.0
C3204 C 0.73602 0.93209 0.30931 0.0
C3205 C 0.74834 0.90868 0.3287 0.0
C3206 C 0.74213 0.94189 0.3197 0.0
C3207 C 0.7506 0.95384 0.31537 0.0
C3208 C 0.75305 0.95637 0.30052 0.0
C3209 C 0.74678 0.9466 0.29013 0.0
C3210 C 0.73834 0.93462 0.29448 0.0
H3211 H 0.75187 0.89771 0.33237 0.0
H3212 H 0.75562 0.91249 0.32003 0.0
H3213 H 0.7497 0.91626 0.33812 0.0
H3214 H 0.74022 0.94038 0.33118 0.0
H3215 H 0.75498 0.96125 0.32367 0.0
H3216 H 0.66178 0.17439 0.30931 0.0
H3217 H 0.63975 0.18736 0.30168 0.0
H3218 H 0.62966 0.19426 0.3467 0.0
H3219 H 0.65133 0.18075 0.35443 0.0
H3220 H 0.60605 0.18512 0.33103 0.0
H3221 H 0.63225 0.23068 0.30195 0.0
H3222 H 0.63778 0.21329 0.29528 0.0
H3223 H 0.64242 0.21854 0.31381 0.0
C3224 C 0.65484 0.17858 0.31761 0.0
C3225 C 0.6584 0.17654 0.3325 0.0
C3226 C 0.64235 0.18621 0.31322 0.0
C3227 C 0.63319 0.19209 0.32361 0.0
C3228 C 0.63663 0.18998 0.33848 0.0
H3229 H 0.56022 0.2469 0.29148 0.0
H3230 H 0.58142 0.23921 0.30665 0.0
C3231 C 0.6491 0.18232 0.34287 0.0
C3232 C 0.61964 0.19976 0.31894 0.0
H3233 H 0.60665 0.22664 0.29647 0.0
C3234 C 0.60622 0.19434 0.32364 0.0
C3235 C 0.6198 0.21202 0.30957 0.0
C3236 C 0.63385 0.21908 0.30499 0.0
C3237 C 0.59296 0.20025 0.31855 0.0
C3238 C 0.5931 0.21174 0.30827 0.0
C3239 C 0.60652 0.21775 0.30425 0.0
C3240 C 0.57958 0.21647 0.30035 0.0
C3241 C 0.57892 0.19396 0.32405 0.0
C3242 C 0.57153 0.20627 0.29186 0.0
C3243 C 0.55955 0.2106 0.28327 0.0
C3244 C 0.55533 0.22528 0.28286 0.0
C3245 C 0.56313 0.2355 0.29166 0.0
C3246 C 0.57527 0.23113 0.30026 0.0
H3247 H 0.58056 0.18922 0.33511 0.0
H3248 H 0.57034 0.20235 0.32444 0.0
H3249 H 0.57498 0.18506 0.31662 0.0
H3250 H 0.57479 0.19497 0.29147 0.0
H3251 H 0.5538 0.20243 0.27663 0.0
H3252 H 0.33454 0.16366 0.32628 0.0
H3253 H 0.31824 0.14314 0.31979 0.0
H3254 H 0.31486 0.13244 0.36529 0.0
H3255 H 0.33123 0.15291 0.37189 0.0
H3256 H 0.32223 0.11358 0.32588 0.0
H3257 H 0.27213 0.13395 0.35086 0.0
H3258 H 0.28772 0.1456 0.34768 0.0
H3259 H 0.28793 0.13336 0.36295 0.0
C3260 C 0.33038 0.1569 0.33491 0.0
C3261 C 0.33417 0.15994 0.34961 0.0
C3262 C 0.32101 0.14523 0.33119 0.0
C3263 C 0.31517 0.13639 0.34207 0.0
C3264 C 0.31898 0.13932 0.35674 0.0
H3265 H 0.25892 0.0587 0.33703 0.0
H3266 H 0.27422 0.07935 0.34556 0.0
C3267 C 0.32835 0.15101 0.36049 0.0
C3268 C 0.30548 0.12385 0.33795 0.0
H3269 H 0.271 0.10996 0.34118 0.0
C3270 C 0.31102 0.1128 0.3292 0.0
C3271 C 0.29089 0.12282 0.34238 0.0
C3272 C 0.28423 0.13461 0.35139 0.0
C3273 C 0.30238 0.10073 0.32478 0.0
C3274 C 0.28772 0.0998 0.32901 0.0
C3275 C 0.28223 0.11073 0.33794 0.0
C3276 C 0.27787 0.08773 0.32395 0.0
C3277 C 0.30906 0.08896 0.31575 0.0
C3278 C 0.27454 0.08584 0.30903 0.0
C3279 C 0.26577 0.07412 0.30414 0.0
C3280 C 0.26009 0.06406 0.31408 0.0
C3281 C 0.26304 0.06627 0.32909 0.0
C3282 C 0.27184 0.07802 0.33398 0.0
H3283 H 0.32116 0.08933 0.31671 0.0
H3284 H 0.30518 0.07797 0.31906 0.0
H3285 H 0.30582 0.09056 0.3041 0.0
H3286 H 0.27879 0.09342 0.30113 0.0
H3287 H 0.26345 0.07296 0.29255 0.0
H3288 H 0.36093 0.82552 0.33429 0.0
H3289 H 0.38164 0.81512 0.32184 0.0
H3290 H 0.401 0.85805 0.31834 0.0
H3291 H 0.38057 0.86845 0.33096 0.0
H3292 H 0.39049 0.8226 0.29335 0.0
H3293 H 0.43477 0.83341 0.33486 0.0
H3294 H 0.41571 0.83376 0.3391 0.0
H3295 H 0.42404 0.84906 0.33023 0.0
C3296 C 0.36974 0.83269 0.33109 0.0
C3297 C 0.3691 0.84781 0.33359 0.0
C3298 C 0.3815 0.82675 0.32391 0.0
C3299 C 0.39293 0.83579 0.31929 0.0
C3300 C 0.39243 0.85084 0.32199 0.0
H3301 H 0.47144 0.8258 0.27065 0.0
H3302 H 0.45083 0.83478 0.28405 0.0
C3303 C 0.38067 0.85678 0.32909 0.0
C3304 C 0.40501 0.82968 0.31097 0.0
H3305 H 0.44203 0.8263 0.31128 0.0
C3306 C 0.40175 0.82328 0.29731 0.0
C3307 C 0.4197 0.83068 0.31612 0.0
C3308 C 0.4238 0.83698 0.33094 0.0
C3309 C 0.41281 0.81818 0.28848 0.0
C3310 C 0.42752 0.81925 0.2936 0.0
C3311 C 0.43076 0.82554 0.30733 0.0
C3312 C 0.43972 0.81384 0.28494 0.0
C3313 C 0.40867 0.8121 0.27359 0.0
C3314 C 0.44036 0.79908 0.28098 0.0
C3315 C 0.45207 0.79393 0.27319 0.0
C3316 C 0.4635 0.80341 0.26931 0.0
C3317 C 0.46278 0.81822 0.27325 0.0
C3318 C 0.45104 0.82336 0.28103 0.0
H3319 H 0.39771 0.81574 0.26974 0.0
H3320 H 0.41674 0.81542 0.26544 0.0
H3321 H 0.40839 0.80001 0.27412 0.0
H3322 H 0.4319 0.79146 0.28409 0.0
H3323 H 0.45214 0.78251 0.27024 0.0
H3324 H 0.32182 0.90059 0.66815 0.0
H3325 H 0.30984 0.92244 0.67694 0.0
H3326 H 0.31749 0.90841 0.72133 0.0
H3327 H 0.32877 0.88625 0.71266 0.0
H3328 H 0.29056 0.92006 0.71737 0.0
H3329 H 0.33247 0.95688 0.69422 0.0
H3330 H 0.32274 0.94536 0.68123 0.0
H3331 H 0.33456 0.93738 0.69496 0.0
C3332 C 0.32074 0.90202 0.67977 0.0
C3333 C 0.32646 0.8917 0.68969 0.0
C3334 C 0.31403 0.91463 0.68479 0.0
C3335 C 0.31302 0.91725 0.69982 0.0
C3336 C 0.31821 0.90671 0.70969 0.0
H3337 H 0.31442 0.99068 0.7539 0.0
H3338 H 0.31779 0.9704 0.73739 0.0
C3339 C 0.32482 0.89409 0.7047 0.0
C3340 C 0.30717 0.93117 0.70546 0.0
H3341 H 0.31436 0.9678 0.70773 0.0
C3342 C 0.29563 0.93054 0.71512 0.0
C3343 C 0.31384 0.94484 0.70257 0.0
C3344 C 0.32666 0.94623 0.69278 0.0
C3345 C 0.29099 0.94307 0.72242 0.0
C3346 C 0.29791 0.95667 0.7198 0.0
C3347 C 0.30899 0.9574 0.70964 0.0
C3348 C 0.29547 0.96973 0.72903 0.0
C3349 C 0.27935 0.9415 0.73353 0.0
C3350 C 0.28179 0.97641 0.72968 0.0
C3351 C 0.27978 0.98814 0.73928 0.0
C3352 C 0.29142 0.99335 0.74833 0.0
C3353 C 0.30516 0.98692 0.7472 0.0
C3354 C 0.30714 0.97531 0.73769 0.0
H3355 H 0.27677 0.92989 0.73593 0.0
H3356 H 0.2828 0.94706 0.74388 0.0
H3357 H 0.26922 0.94671 0.72931 0.0
H3358 H 0.27267 0.97245 0.72291 0.0
H3359 H 0.26908 0.99287 0.73987 0.0
H3360 H 0.62691 0.85177 0.69038 0.0
H3361 H 0.60548 0.83867 0.69879 0.0
H3362 H 0.62552 0.79766 0.68929 0.0
H3363 H 0.64735 0.81071 0.68136 0.0
H3364 H 0.58656 0.81925 0.68437 0.0
H3365 H 0.61474 0.79263 0.73176 0.0
H3366 H 0.62302 0.80738 0.72185 0.0
H3367 H 0.62222 0.7893 0.71425 0.0
C3368 C 0.62687 0.83995 0.69022 0.0
C3369 C 0.63896 0.8323 0.68538 0.0
C3370 C 0.61453 0.83248 0.69491 0.0
C3371 C 0.61396 0.81718 0.69487 0.0
C3372 C 0.62582 0.80946 0.68966 0.0
H3373 H 0.5435 0.76632 0.73562 0.0
H3374 H 0.56383 0.77159 0.71952 0.0
C3375 C 0.63823 0.81695 0.68499 0.0
C3376 C 0.60095 0.80951 0.70051 0.0
H3377 H 0.5895 0.78856 0.72879 0.0
C3378 C 0.58723 0.81239 0.69397 0.0
C3379 C 0.60182 0.80047 0.713 0.0
C3380 C 0.6162 0.7973 0.72073 0.0
C3381 C 0.57435 0.80696 0.69991 0.0
C3382 C 0.57519 0.79854 0.71279 0.0
C3383 C 0.58891 0.79499 0.71888 0.0
C3384 C 0.56206 0.79505 0.72116 0.0
C3385 C 0.55991 0.81059 0.69256 0.0
C3386 C 0.55435 0.80646 0.72734 0.0
C3387 C 0.54292 0.8035 0.73655 0.0
C3388 C 0.53889 0.78904 0.73978 0.0
C3389 C 0.54628 0.77756 0.73322 0.0
C3390 C 0.55791 0.78055 0.72408 0.0
H3391 H 0.56112 0.81311 0.68082 0.0
H3392 H 0.55193 0.80145 0.69355 0.0
H3393 H 0.55543 0.82036 0.69787 0.0
H3394 H 0.55751 0.81771 0.72544 0.0
H3395 H 0.53745 0.81258 0.74144 0.0
H3396 H 0.40043 0.18696 0.69285 0.0
H3397 H 0.42308 0.19913 0.70127 0.0
H3398 H 0.40339 0.24104 0.69427 0.0
H3399 H 0.38051 0.22893 0.68616 0.0
H3400 H 0.44097 0.21964 0.68664 0.0
H3401 H 0.41858 0.24301 0.7371 0.0
H3402 H 0.40927 0.22866 0.72679 0.0
H3403 H 0.40898 0.24708 0.72021 0.0
C3404 C 0.40085 0.19877 0.6932 0.0
C3405 C 0.38858 0.20696 0.68896 0.0
C3406 C 0.41385 0.20571 0.69791 0.0
C3407 C 0.41488 0.22099 0.69857 0.0
C3408 C 0.40278 0.22924 0.69405 0.0
H3409 H 0.48915 0.2689 0.74136 0.0
H3410 H 0.46715 0.26481 0.72562 0.0
C3411 C 0.38975 0.22229 0.6893 0.0
C3412 C 0.42861 0.22813 0.70419 0.0
H3413 H 0.44346 0.2471 0.73333 0.0
C3414 C 0.44149 0.22579 0.69676 0.0
C3415 C 0.42927 0.23627 0.71733 0.0
C3416 C 0.41584 0.23887 0.72593 0.0
C3417 C 0.45505 0.23095 0.70236 0.0
C3418 C 0.45582 0.23843 0.71589 0.0
C3419 C 0.44286 0.24141 0.72295 0.0
C3420 C 0.46996 0.24148 0.7238 0.0
C3421 C 0.46849 0.22812 0.69385 0.0
C3422 C 0.47887 0.22979 0.72788 0.0
C3423 C 0.49129 0.23209 0.73683 0.0
C3424 C 0.49513 0.24613 0.74196 0.0
C3425 C 0.48655 0.25798 0.73744 0.0
C3426 C 0.47396 0.25565 0.72853 0.0
H3427 H 0.46577 0.22705 0.682 0.0
H3428 H 0.47676 0.23698 0.69552 0.0
H3429 H 0.47336 0.2177 0.69757 0.0
H3430 H 0.47588 0.21874 0.72466 0.0
H3431 H 0.49765 0.22272 0.74013 0.0
H3432 H 0.68828 0.68306 0.12758 0.0
H3433 H 0.69599 0.69591 0.10566 0.0
H3434 H 0.69278 0.73708 0.12804 0.0
H3435 H 0.68522 0.72434 0.15 0.0
H3436 H 0.67949 0.71871 0.09021 0.0
H3437 H 0.73441 0.7373 0.11072 0.0
H3438 H 0.72456 0.72242 0.11894 0.0
H3439 H 0.7196 0.74093 0.12246 0.0
C3440 C 0.6894 0.69483 0.12788 0.0
C3441 C 0.68616 0.70269 0.14051 0.0
C3442 C 0.69371 0.70215 0.11534 0.0
C3443 C 0.69504 0.71742 0.11529 0.0
C3444 C 0.69195 0.72528 0.12791 0.0
H3445 H 0.70059 0.77763 0.04245 0.0
H3446 H 0.69329 0.76421 0.06409 0.0
C3447 C 0.68754 0.718 0.14041 0.0
C3448 C 0.69928 0.72519 0.10192 0.0
H3449 H 0.72608 0.74662 0.08791 0.0
C3450 C 0.68968 0.72479 0.08967 0.0
C3451 C 0.71261 0.73303 0.10127 0.0
C3452 C 0.72348 0.73341 0.11399 0.0
C3453 C 0.693 0.73223 0.07681 0.0
C3454 C 0.70621 0.7403 0.07625 0.0
C3455 C 0.7159 0.74052 0.08843 0.0
C3456 C 0.71037 0.7483 0.06298 0.0
C3457 C 0.68247 0.73125 0.06384 0.0
C3458 C 0.72244 0.74386 0.05528 0.0
C3459 C 0.72659 0.75143 0.04286 0.0
C3460 C 0.71883 0.76372 0.03794 0.0
C3461 C 0.70671 0.76814 0.04575 0.0
C3462 C 0.70253 0.76049 0.05815 0.0
H3463 H 0.67423 0.72238 0.06506 0.0
H3464 H 0.67664 0.74172 0.06265 0.0
H3465 H 0.68838 0.72935 0.05367 0.0
H3466 H 0.72862 0.73446 0.05883 0.0
H3467 H 0.73581 0.74749 0.03707 0.0
H3468 H 0.35228 0.69469 0.13594 0.0
H3469 H 0.34104 0.70616 0.11433 0.0
H3470 H 0.29837 0.6964 0.13027 0.0
H3471 H 0.30948 0.68546 0.15212 0.0
H3472 H 0.32244 0.69356 0.0933 0.0
H3473 H 0.29517 0.73939 0.12048 0.0
H3474 H 0.30898 0.72863 0.12966 0.0
H3475 H 0.29062 0.72169 0.12746 0.0
C3476 C 0.34051 0.69522 0.13498 0.0
C3477 C 0.3318 0.68915 0.1458 0.0
C3478 C 0.33409 0.70167 0.12256 0.0
C3479 C 0.31885 0.70229 0.12073 0.0
C3480 C 0.31014 0.69629 0.13153 0.0
H3481 H 0.26582 0.74203 0.04961 0.0
H3482 H 0.27286 0.72617 0.07025 0.0
C3483 C 0.31653 0.68988 0.14395 0.0
C3484 C 0.31211 0.70883 0.10734 0.0
H3485 H 0.29012 0.73635 0.0952 0.0
C3486 C 0.31535 0.7029 0.09373 0.0
C3487 C 0.30274 0.72094 0.10789 0.0
C3488 C 0.29925 0.72814 0.12214 0.0
C3489 C 0.30964 0.70884 0.08067 0.0
C3490 C 0.30057 0.72115 0.08121 0.0
C3491 C 0.29698 0.72683 0.09482 0.0
C3492 C 0.29607 0.72927 0.06785 0.0
C3493 C 0.31343 0.70194 0.06638 0.0
C3494 C 0.30675 0.73612 0.05962 0.0
C3495 C 0.30278 0.74516 0.04799 0.0
C3496 C 0.28803 0.74756 0.04427 0.0
C3497 C 0.27727 0.74026 0.05213 0.0
C3498 C 0.28128 0.73128 0.06395 0.0
H3499 H 0.31662 0.69038 0.06783 0.0
H3500 H 0.30413 0.70242 0.05833 0.0
H3501 H 0.32281 0.70796 0.06184 0.0
H3502 H 0.3182 0.73494 0.06255 0.0
H3503 H 0.31133 0.75064 0.04215 0.0
H3504 H 0.35702 0.31 0.16778 0.0
H3505 H 0.34736 0.29926 0.14488 0.0
H3506 H 0.33848 0.34226 0.12822 0.0
H3507 H 0.3486 0.35309 0.15078 0.0
H3508 H 0.32008 0.30089 0.13221 0.0
H3509 H 0.36017 0.32455 0.09503 0.0
H3510 H 0.36303 0.32471 0.1146 0.0
H3511 H 0.35182 0.33826 0.10578 0.0
C3512 C 0.35322 0.31719 0.15916 0.0
C3513 C 0.35367 0.33244 0.16115 0.0
C3514 C 0.34762 0.31102 0.1461 0.0
C3515 C 0.34243 0.31994 0.1347 0.0
C3516 C 0.34272 0.33514 0.1367 0.0
H3517 H 0.29164 0.31759 0.05658 0.0
H3518 H 0.30741 0.3223 0.07801 0.0
C3519 C 0.34833 0.34132 0.14972 0.0
C3520 C 0.33615 0.31343 0.12092 0.0
H3521 H 0.33778 0.31538 0.08381 0.0
C3522 C 0.32411 0.30384 0.12163 0.0
C3523 C 0.34147 0.31717 0.10709 0.0
C3524 C 0.35493 0.32661 0.10556 0.0
C3525 C 0.31674 0.29862 0.10891 0.0
C3526 C 0.32163 0.30298 0.09511 0.0
C3527 C 0.33403 0.31205 0.09439 0.0
C3528 C 0.31302 0.29972 0.08142 0.0
C3529 C 0.3033 0.28911 0.11029 0.0
C3530 C 0.31119 0.28544 0.07594 0.0
C3531 C 0.30216 0.28267 0.0635 0.0
C3532 C 0.29477 0.29416 0.05648 0.0
C3533 C 0.29707 0.30846 0.06177 0.0
C3534 C 0.30612 0.3112 0.07403 0.0
H3535 H 0.29992 0.2882 0.12176 0.0
H3536 H 0.2941 0.29354 0.10357 0.0
H3537 H 0.30552 0.278 0.10619 0.0
H3538 H 0.31655 0.27643 0.0814 0.0
H3539 H 0.30058 0.27155 0.05971 0.0
H3540 H 0.71513 0.35367 0.15994 0.0
H3541 H 0.72607 0.34318 0.13832 0.0
H3542 H 0.68327 0.33672 0.11827 0.0
H3543 H 0.67234 0.34749 0.13955 0.0
H3544 H 0.72124 0.3151 0.12793 0.0
H3545 H 0.70543 0.35499 0.08526 0.0
H3546 H 0.70468 0.35904 0.10448 0.0
H3547 H 0.69023 0.34866 0.09539 0.0
C3548 C 0.70809 0.35031 0.15077 0.0
C3549 C 0.69287 0.35138 0.15147 0.0
C3550 C 0.71435 0.34424 0.13848 0.0
C3551 C 0.7055 0.33931 0.1266 0.0
C3552 C 0.69034 0.34069 0.12715 0.0
H3553 H 0.71244 0.28733 0.04894 0.0
H3554 H 0.70495 0.30223 0.06947 0.0
C3555 C 0.68409 0.34671 0.13941 0.0
C3556 C 0.71192 0.3317 0.11409 0.0
H3557 H 0.71293 0.33156 0.07689 0.0
C3558 C 0.71961 0.31881 0.11679 0.0
C3559 C 0.70973 0.33651 0.09954 0.0
C3560 C 0.70219 0.35064 0.09598 0.0
C3561 C 0.72468 0.3103 0.10531 0.0
C3562 C 0.72218 0.31494 0.09075 0.0
C3563 C 0.71477 0.32799 0.08806 0.0
C3564 C 0.72686 0.30619 0.07815 0.0
C3565 C 0.73219 0.29615 0.10884 0.0
C3566 C 0.74168 0.30364 0.07611 0.0
C3567 C 0.74599 0.29507 0.06444 0.0
C3568 C 0.73557 0.28891 0.05451 0.0
C3569 C 0.72074 0.29171 0.05647 0.0
C3570 C 0.71644 0.30031 0.06814 0.0
H3571 H 0.73033 0.29256 0.12019 0.0
H3572 H 0.72833 0.28736 0.10122 0.0
H3573 H 0.7441 0.29763 0.10764 0.0
H3574 H 0.74992 0.30824 0.08359 0.0
H3575 H 0.75748 0.29305 0.06338 0.0
H3576 H 0.70393 0.36167 0.89031 0.0
H3577 H 0.71489 0.35058 0.91218 0.0
H3578 H 0.70574 0.30777 0.89423 0.0
H3579 H 0.69509 0.31882 0.87207 0.0
H3580 H 0.70291 0.3312 0.93216 0.0
H3581 H 0.74957 0.30657 0.90459 0.0
H3582 H 0.73826 0.32028 0.89604 0.0
H3583 H 0.73189 0.30168 0.8969 0.0
C3584 C 0.70434 0.34989 0.89095 0.0
C3585 C 0.69878 0.34114 0.87935 0.0
C3586 C 0.71053 0.34357 0.9035 0.0
C3587 C 0.71136 0.32836 0.90475 0.0
C3588 C 0.70546 0.31955 0.89339 0.0
H3589 H 0.74928 0.27239 0.97218 0.0
H3590 H 0.73684 0.2822 0.95042 0.0
C3591 C 0.69924 0.32587 0.8808 0.0
C3592 C 0.71843 0.32182 0.91796 0.0
H3593 H 0.74727 0.30121 0.92959 0.0
C3594 C 0.71261 0.32465 0.93161 0.0
C3595 C 0.7311 0.31327 0.91722 0.0
C3596 C 0.73818 0.31034 0.90293 0.0
C3597 C 0.71902 0.31905 0.94452 0.0
C3598 C 0.73177 0.31062 0.9438 0.0
C3599 C 0.73751 0.30768 0.93013 0.0
C3600 C 0.73933 0.30477 0.95708 0.0
C3601 C 0.71193 0.32201 0.9588 0.0
C3602 C 0.74508 0.31421 0.96799 0.0
C3603 C 0.7522 0.30864 0.98048 0.0
C3604 C 0.75379 0.29351 0.98227 0.0
C3605 C 0.74821 0.2841 0.9712 0.0
C3606 C 0.7411 0.28968 0.95873 0.0
H3607 H 0.70035 0.32514 0.95712 0.0
H3608 H 0.71242 0.3123 0.966 0.0
H3609 H 0.7178 0.33116 0.96449 0.0
H3610 H 0.74413 0.32591 0.96681 0.0
H3611 H 0.75643 0.3162 0.98873 0.0
H3612 H 0.72423 0.68722 0.85574 0.0
H3613 H 0.73708 0.69622 0.87799 0.0
H3614 H 0.69588 0.70182 0.8983 0.0
H3615 H 0.68306 0.69253 0.87638 0.0
H3616 H 0.73456 0.72333 0.89102 0.0
H3617 H 0.71921 0.68004 0.92959 0.0
H3618 H 0.71728 0.67773 0.91005 0.0
H3619 H 0.70358 0.68712 0.91987 0.0
C3620 C 0.71794 0.69016 0.86504 0.0
C3621 C 0.70262 0.68917 0.86428 0.0
C3622 C 0.72529 0.69535 0.87772 0.0
C3623 C 0.71746 0.69946 0.8899 0.0
C3624 C 0.70219 0.69841 0.88916 0.0
H3625 H 0.71793 0.74956 0.96491 0.0
H3626 H 0.7149 0.73252 0.94461 0.0
C3627 C 0.69485 0.69328 0.87653 0.0
C3628 C 0.72502 0.70575 0.90312 0.0
H3629 H 0.72622 0.70338 0.94029 0.0
C3630 C 0.73307 0.71879 0.90178 0.0
C3631 C 0.72316 0.69976 0.91715 0.0
C3632 C 0.71546 0.6853 0.91926 0.0
C3633 C 0.73831 0.72659 0.91416 0.0
C3634 C 0.73554 0.72109 0.9282 0.0
C3635 C 0.7283 0.70759 0.92951 0.0
C3636 C 0.73799 0.7302 0.94148 0.0
C3637 C 0.74588 0.74113 0.91217 0.0
C3638 C 0.75204 0.73426 0.94676 0.0
C3639 C 0.75383 0.74403 0.95854 0.0
C3640 C 0.74158 0.74992 0.96505 0.0
C3641 C 0.7276 0.74532 0.96007 0.0
C3642 C 0.72583 0.73553 0.94848 0.0
H3643 H 0.74593 0.7445 0.90055 0.0
H3644 H 0.74046 0.7497 0.91851 0.0
H3645 H 0.75733 0.74048 0.91636 0.0
H3646 H 0.76157 0.73014 0.94158 0.0
H3647 H 0.76473 0.74742 0.96213 0.0
H3648 H 0.3647 0.70687 0.88121 0.0
H3649 H 0.3564 0.72075 0.90208 0.0
H3650 H 0.31174 0.71348 0.88743 0.0
H3651 H 0.31993 0.69967 0.86646 0.0
H3652 H 0.33952 0.74598 0.9026 0.0
H3653 H 0.31182 0.69985 0.9299 0.0
H3654 H 0.32437 0.69718 0.91546 0.0
H3655 H 0.30594 0.70252 0.91124 0.0
C3656 C 0.3531 0.70829 0.88236 0.0
C3657 C 0.34298 0.70209 0.87216 0.0
C3658 C 0.34838 0.71618 0.89434 0.0
C3659 C 0.33345 0.71798 0.89644 0.0
C3660 C 0.32331 0.71196 0.88621 0.0
H3661 H 0.28277 0.76103 0.96155 0.0
H3662 H 0.29135 0.74814 0.94023 0.0
C3663 C 0.32802 0.70406 0.87423 0.0
C3664 C 0.3285 0.72633 0.90923 0.0
H3665 H 0.30835 0.72343 0.93972 0.0
C3666 C 0.33275 0.74105 0.91076 0.0
C3667 C 0.31967 0.71987 0.91986 0.0
C3668 C 0.31527 0.70395 0.91916 0.0
C3669 C 0.32818 0.74956 0.92247 0.0
C3670 C 0.31932 0.74311 0.93308 0.0
C3671 C 0.31511 0.72838 0.93156 0.0
C3672 C 0.31425 0.75142 0.94584 0.0
C3673 C 0.33258 0.76548 0.92318 0.0
C3674 C 0.32425 0.75754 0.95615 0.0
C3675 C 0.31937 0.7649 0.9684 0.0
C3676 C 0.30436 0.76618 0.97069 0.0
C3677 C 0.29439 0.7601 0.96028 0.0
C3678 C 0.29928 0.75277 0.94803 0.0
H3679 H 0.336 0.7696 0.91242 0.0
H3680 H 0.32349 0.77225 0.92691 0.0
H3681 H 0.34193 0.76691 0.93107 0.0
H3682 H 0.33586 0.75637 0.95487 0.0
H3683 H 0.32736 0.76924 0.97628 0.0
H3684 H 0.3433 0.32241 0.87217 0.0
H3685 H 0.32996 0.31568 0.89385 0.0
H3686 H 0.32788 0.36102 0.90607 0.0
H3687 H 0.34125 0.36784 0.88445 0.0
H3688 H 0.33737 0.32068 0.92304 0.0
H3689 H 0.28537 0.34765 0.90765 0.0
H3690 H 0.29941 0.34455 0.89476 0.0
H3691 H 0.30109 0.35952 0.90743 0.0
C3692 C 0.34006 0.33095 0.8795 0.0
C3693 C 0.34329 0.34568 0.87653 0.0
C3694 C 0.33238 0.32709 0.89185 0.0
C3695 C 0.32771 0.33786 0.90145 0.0
C3696 C 0.33106 0.35255 0.89863 0.0
H3697 H 0.28265 0.33585 0.98326 0.0
H3698 H 0.29549 0.34292 0.96141 0.0
C3699 C 0.33871 0.35643 0.88627 0.0
C3700 C 0.31966 0.33366 0.91461 0.0
H3701 H 0.28755 0.33823 0.93169 0.0
C3702 C 0.32646 0.32446 0.92491 0.0
C3703 C 0.30542 0.33863 0.91704 0.0
C3704 C 0.29731 0.34802 0.90609 0.0
C3705 C 0.3195 0.32027 0.93767 0.0
C3706 C 0.30526 0.32524 0.94009 0.0
C3707 C 0.29847 0.33446 0.92982 0.0
C3708 C 0.29721 0.32091 0.95319 0.0
C3709 C 0.32757 0.31082 0.9486 0.0
C3710 C 0.29366 0.30621 0.9557 0.0
C3711 C 0.28625 0.30213 0.96814 0.0
C3712 C 0.28217 0.31268 0.97834 0.0
C3713 C 0.2855 0.32744 0.97563 0.0
C3714 C 0.29291 0.33151 0.96316 0.0
H3715 H 0.3395 0.31105 0.94697 0.0
H3716 H 0.32557 0.31436 0.95993 0.0
H3717 H 0.32364 0.29937 0.94732 0.0
H3718 H 0.29657 0.29788 0.94797 0.0
H3719 H 0.28362 0.29071 0.96968 0.0
H3720 H 0.65849 0.72166 0.18029 0.0
H3721 H 0.63635 0.7318 0.19004 0.0
H3722 H 0.61737 0.68859 0.19228 0.0
H3723 H 0.63949 0.67835 0.18228 0.0
H3724 H 0.59921 0.70962 0.17818 0.0
H3725 H 0.62123 0.72965 0.23179 0.0
H3726 H 0.63158 0.73542 0.21652 0.0
H3727 H 0.63052 0.71639 0.22104 0.0
C3728 C 0.64964 0.7143 0.18294 0.0
C3729 C 0.65072 0.6992 0.18049 0.0
C3730 C 0.63704 0.7201 0.18862 0.0
C3731 C 0.62527 0.71094 0.19201 0.0
C3732 C 0.62638 0.69584 0.1898 0.0
H3733 H 0.54817 0.73651 0.23737 0.0
H3734 H 0.57028 0.7249 0.22953 0.0
C3735 C 0.63904 0.69 0.18418 0.0
C3736 C 0.61157 0.71728 0.19713 0.0
H3737 H 0.59769 0.7379 0.22426 0.0
C3738 C 0.59884 0.71573 0.1883 0.0
C3739 C 0.6111 0.72516 0.21037 0.0
C3740 C 0.62429 0.72668 0.22057 0.0
C3741 C 0.58571 0.72212 0.1922 0.0
C3742 C 0.58537 0.73041 0.20521 0.0
C3743 C 0.59802 0.73168 0.21421 0.0
C3744 C 0.57191 0.73762 0.20984 0.0
C3745 C 0.57228 0.71984 0.18246 0.0
C3746 C 0.56554 0.74877 0.20143 0.0
C3747 C 0.55289 0.75557 0.20595 0.0
C3748 C 0.5464 0.75139 0.21901 0.0
C3749 C 0.55291 0.74024 0.22739 0.0
C3750 C 0.56554 0.73349 0.22289 0.0
H3751 H 0.57348 0.71054 0.17484 0.0
H3752 H 0.56253 0.71783 0.18903 0.0
H3753 H 0.57038 0.72982 0.17588 0.0
H3754 H 0.57043 0.75232 0.19145 0.0
H3755 H 0.54834 0.76423 0.19932 0.0
H3756 H 0.32885 0.63788 0.15902 0.0
H3757 H 0.31673 0.61547 0.16705 0.0
H3758 H 0.32055 0.63038 0.21164 0.0
H3759 H 0.33247 0.65296 0.20367 0.0
H3760 H 0.32743 0.59425 0.18775 0.0
H3761 H 0.27651 0.62032 0.20494 0.0
H3762 H 0.28919 0.6293 0.19317 0.0
H3763 H 0.29317 0.62825 0.21244 0.0
C3764 C 0.32702 0.63643 0.17053 0.0
C3765 C 0.33153 0.64724 0.1807 0.0
C3766 C 0.32017 0.6236 0.1751 0.0
C3767 C 0.31757 0.62137 0.1899 0.0
C3768 C 0.32227 0.632 0.20013 0.0
H3769 H 0.276 0.55324 0.23933 0.0
H3770 H 0.28782 0.57543 0.23073 0.0
C3771 C 0.32919 0.64482 0.19558 0.0
C3772 C 0.31004 0.60785 0.19462 0.0
H3773 H 0.27908 0.59523 0.21021 0.0
C3774 C 0.31683 0.59442 0.19261 0.0
C3775 C 0.29624 0.60816 0.20096 0.0
C3776 C 0.28825 0.62225 0.20293 0.0
C3777 C 0.31032 0.58128 0.19708 0.0
C3778 C 0.29647 0.58156 0.20339 0.0
C3779 C 0.28967 0.59501 0.20534 0.0
C3780 C 0.28902 0.56807 0.20839 0.0
C3781 C 0.31853 0.56728 0.19537 0.0
C3782 C 0.28547 0.55663 0.19864 0.0
C3783 C 0.27883 0.54379 0.20357 0.0
C3784 C 0.2755 0.54219 0.21835 0.0
C3785 C 0.27867 0.55391 0.22796 0.0
C3786 C 0.28534 0.56668 0.22304 0.0
H3787 H 0.33037 0.56936 0.19405 0.0
H3788 H 0.31715 0.56003 0.20491 0.0
H3789 H 0.31424 0.56143 0.18548 0.0
H3790 H 0.28789 0.55758 0.18722 0.0
H3791 H 0.27661 0.53504 0.19585 0.0
H3792 H 0.40051 0.35473 0.2091 0.0
H3793 H 0.42245 0.345 0.22104 0.0
H3794 H 0.40846 0.30135 0.20909 0.0
H3795 H 0.38605 0.31089 0.19785 0.0
H3796 H 0.41968 0.30259 0.23693 0.0
H3797 H 0.45717 0.33088 0.19969 0.0
H3798 H 0.44557 0.3428 0.2094 0.0
H3799 H 0.43772 0.3301 0.19625 0.0
C3800 C 0.40196 0.34303 0.20917 0.0
C3801 C 0.39146 0.33361 0.20242 0.0
C3802 C 0.41464 0.3375 0.21586 0.0
C3803 C 0.41726 0.32246 0.21574 0.0
C3804 C 0.40672 0.31301 0.20925 0.0
H3805 H 0.49231 0.27168 0.21832 0.0
H3806 H 0.47193 0.28776 0.21372 0.0
C3807 C 0.39397 0.31851 0.20267 0.0
C3808 C 0.43105 0.3165 0.22213 0.0
H3809 H 0.46794 0.31673 0.21838 0.0
C3810 C 0.43025 0.30576 0.23298 0.0
C3811 C 0.44484 0.32064 0.21693 0.0
C3812 C 0.44644 0.33163 0.20484 0.0
C3813 C 0.4428 0.29868 0.2384 0.0
C3814 C 0.45656 0.30267 0.23303 0.0
C3815 C 0.4574 0.3138 0.2226 0.0
C3816 C 0.46981 0.29396 0.2363 0.0
C3817 C 0.44112 0.28644 0.24921 0.0
C3818 C 0.47575 0.29234 0.25055 0.0
C3819 C 0.48754 0.28299 0.25328 0.0
C3820 C 0.49349 0.27517 0.24176 0.0
C3821 C 0.48791 0.27741 0.22748 0.0
C3822 C 0.47625 0.28667 0.2248 0.0
H3823 H 0.42953 0.28314 0.2504 0.0
H3824 H 0.44729 0.27675 0.24584 0.0
H3825 H 0.44557 0.29005 0.26005 0.0
H3826 H 0.47111 0.29808 0.25958 0.0
H3827 H 0.49162 0.28149 0.26438 0.0
H3828 H 0.69334 0.3994 0.1739 0.0
H3829 H 0.70234 0.42128 0.18679 0.0
H3830 H 0.6964 0.39992 0.22801 0.0
H3831 H 0.6878 0.37778 0.21518 0.0
H3832 H 0.68818 0.43856 0.20724 0.0
H3833 H 0.73884 0.41462 0.23142 0.0
H3834 H 0.72837 0.40584 0.21678 0.0
H3835 H 0.7221 0.40513 0.23508 0.0
C3836 C 0.69412 0.39926 0.18571 0.0
C3837 C 0.68995 0.38675 0.19348 0.0
C3838 C 0.69915 0.41183 0.19306 0.0
C3839 C 0.70021 0.4122 0.20836 0.0
C3840 C 0.6959 0.39983 0.2162 0.0
H3841 H 0.74202 0.48417 0.25986 0.0
H3842 H 0.7264 0.46256 0.25453 0.0
C3843 C 0.69085 0.38722 0.20884 0.0
C3844 C 0.7058 0.42562 0.21596 0.0
H3845 H 0.73473 0.43935 0.23638 0.0
C3846 C 0.69828 0.4387 0.21373 0.0
C3847 C 0.71891 0.42579 0.22456 0.0
C3848 C 0.72763 0.41214 0.22707 0.0
C3849 C 0.70375 0.45199 0.21947 0.0
C3850 C 0.71722 0.45228 0.22746 0.0
C3851 C 0.72438 0.43911 0.2303 0.0
C3852 C 0.72498 0.46622 0.23123 0.0
C3853 C 0.69518 0.46567 0.2167 0.0
C3854 C 0.72922 0.47549 0.21996 0.0
C3855 C 0.7381 0.48767 0.22296 0.0
C3856 C 0.74299 0.49092 0.23731 0.0
C3857 C 0.73826 0.48203 0.24873 0.0
C3858 C 0.72943 0.46965 0.24568 0.0
H3859 H 0.68336 0.46315 0.21499 0.0
H3860 H 0.69664 0.47351 0.2259 0.0
H3861 H 0.69902 0.47101 0.20667 0.0
H3862 H 0.72619 0.47294 0.20871 0.0
H3863 H 0.74159 0.49429 0.21392 0.0
H3864 H 0.66614 0.32093 0.84108 0.0
H3865 H 0.64382 0.31161 0.82885 0.0
H3866 H 0.62984 0.35562 0.8207 0.0
H3867 H 0.65193 0.36506 0.83339 0.0
H3868 H 0.60807 0.33863 0.83116 0.0
H3869 H 0.63338 0.3101 0.78551 0.0
H3870 H 0.6408 0.30452 0.80293 0.0
H3871 H 0.64332 0.32308 0.79704 0.0
C3872 C 0.6583 0.32865 0.83677 0.0
C3873 C 0.66088 0.34376 0.83822 0.0
C3874 C 0.64562 0.32329 0.82958 0.0
C3875 C 0.63527 0.3329 0.82357 0.0
C3876 C 0.63774 0.34799 0.8251 0.0
H3877 H 0.56077 0.29592 0.77092 0.0
H3878 H 0.58145 0.31214 0.77812 0.0
C3879 C 0.65042 0.35336 0.8323 0.0
C3880 C 0.62158 0.32717 0.81634 0.0
H3881 H 0.60857 0.30328 0.79016 0.0
C3882 C 0.60819 0.33106 0.82206 0.0
C3883 C 0.62164 0.31752 0.80426 0.0
C3884 C 0.63555 0.31367 0.79697 0.0
C3885 C 0.59497 0.32494 0.81658 0.0
C3886 C 0.59514 0.31447 0.80522 0.0
C3887 C 0.60844 0.3112 0.79894 0.0
C3888 C 0.58195 0.3057 0.80082 0.0
C3889 C 0.58094 0.32956 0.82319 0.0
C3890 C 0.57539 0.29674 0.81114 0.0
C3891 C 0.56372 0.28753 0.80708 0.0
C3892 C 0.5583 0.28697 0.79255 0.0
C3893 C 0.56463 0.29618 0.78221 0.0
C3894 C 0.57646 0.3054 0.7863 0.0
H3895 H 0.582 0.34068 0.82799 0.0
H3896 H 0.57178 0.32942 0.81495 0.0
H3897 H 0.57821 0.3219 0.83206 0.0
H3898 H 0.57959 0.29655 0.82232 0.0
H3899 H 0.55913 0.28059 0.81534 0.0
H3900 H 0.70171 0.64133 0.84227 0.0
H3901 H 0.71047 0.61995 0.82949 0.0
H3902 H 0.70046 0.64042 0.78816 0.0
H3903 H 0.69209 0.66212 0.80089 0.0
H3904 H 0.69576 0.60138 0.80932 0.0
H3905 H 0.74326 0.62916 0.78469 0.0
H3906 H 0.73342 0.63727 0.79927 0.0
H3907 H 0.72575 0.63712 0.78099 0.0
C3908 C 0.70151 0.64139 0.83046 0.0
C3909 C 0.69633 0.65353 0.82262 0.0
C3910 C 0.70641 0.62909 0.82317 0.0
C3911 C 0.70629 0.62864 0.80787 0.0
C3912 C 0.70086 0.64061 0.79997 0.0
H3913 H 0.74872 0.55865 0.75867 0.0
H3914 H 0.73215 0.57903 0.76302 0.0
C3915 C 0.69595 0.65295 0.80727 0.0
C3916 C 0.712 0.61563 0.80038 0.0
H3917 H 0.74039 0.604 0.78046 0.0
C3918 C 0.70541 0.60198 0.80285 0.0
C3919 C 0.72453 0.61642 0.79183 0.0
C3920 C 0.73226 0.63074 0.78907 0.0
C3921 C 0.71132 0.58907 0.79749 0.0
C3922 C 0.72428 0.58979 0.78962 0.0
C3923 C 0.73043 0.60348 0.78645 0.0
C3924 C 0.73274 0.57653 0.78649 0.0
C3925 C 0.70384 0.57471 0.80062 0.0
C3926 C 0.73845 0.56835 0.79819 0.0
C3927 C 0.74789 0.55691 0.79575 0.0
C3928 C 0.75186 0.55332 0.78154 0.0
C3929 C 0.74571 0.56109 0.76972 0.0
C3930 C 0.73633 0.57275 0.77219 0.0
H3931 H 0.69203 0.57616 0.8023 0.0
H3932 H 0.70517 0.56678 0.79161 0.0
H3933 H 0.70874 0.57003 0.81077 0.0
H3934 H 0.73608 0.57121 0.80931 0.0
H3935 H 0.75245 0.55113 0.80509 0.0
H3936 H 0.36934 0.69037 0.81041 0.0
H3937 H 0.39103 0.69824 0.79762 0.0
H3938 H 0.41243 0.70983 0.83869 0.0
H3939 H 0.39086 0.70184 0.85159 0.0
H3940 H 0.41473 0.73138 0.81731 0.0
H3941 H 0.43022 0.67719 0.7961 0.0
H3942 H 0.41175 0.6823 0.79181 0.0
H3943 H 0.41747 0.67927 0.81047 0.0
C3944 C 0.37872 0.69443 0.81675 0.0
C3945 C 0.37836 0.69541 0.83205 0.0
C3946 C 0.39112 0.69892 0.80941 0.0
C3947 C 0.40343 0.70442 0.81721 0.0
C3948 C 0.40306 0.70558 0.83245 0.0
H3949 H 0.49203 0.7208 0.79245 0.0
H3950 H 0.46934 0.7105 0.80144 0.0
C3951 C 0.39068 0.70108 0.8398 0.0
C3952 C 0.41659 0.70936 0.80951 0.0
H3953 H 0.44374 0.69765 0.78795 0.0
C3954 C 0.42105 0.72402 0.81087 0.0
C3955 C 0.4249 0.69969 0.80122 0.0
C3956 C 0.42096 0.6837 0.79987 0.0
C3957 C 0.43357 0.7293 0.80413 0.0
C3958 C 0.44175 0.71971 0.79562 0.0
C3959 C 0.43735 0.70502 0.79432 0.0
C3960 C 0.45531 0.72466 0.78863 0.0
C3961 C 0.43815 0.74504 0.8065 0.0
C3962 C 0.45493 0.73561 0.77797 0.0
C3963 C 0.46789 0.74153 0.77279 0.0
C3964 C 0.48149 0.73658 0.77815 0.0
C3965 C 0.48178 0.72493 0.78812 0.0
C3966 C 0.46881 0.71902 0.79329 0.0
H3967 H 0.43262 0.75002 0.81582 0.0
H3968 H 0.45012 0.74602 0.80854 0.0
H3969 H 0.43527 0.75139 0.79656 0.0
H3970 H 0.44461 0.73993 0.77402 0.0
H3971 H 0.46723 0.75043 0.76506 0.0
H3972 H 0.37201 0.38681 0.83029 0.0
H3973 H 0.36442 0.40816 0.81614 0.0
H3974 H 0.31938 0.39534 0.82024 0.0
H3975 H 0.32687 0.37395 0.83435 0.0
H3976 H 0.34812 0.4098 0.78996 0.0
H3977 H 0.32 0.43757 0.83458 0.0
H3978 H 0.33212 0.42251 0.83783 0.0
H3979 H 0.31373 0.4192 0.83113 0.0
C3980 C 0.36049 0.38848 0.82811 0.0
C3981 C 0.35004 0.3787 0.83354 0.0
C3982 C 0.35617 0.40072 0.82007 0.0
C3983 C 0.34133 0.40348 0.81734 0.0
C3984 C 0.33088 0.39362 0.82252 0.0
H3985 H 0.29293 0.47084 0.7713 0.0
H3986 H 0.30073 0.44912 0.78463 0.0
C3987 C 0.33518 0.38139 0.83058 0.0
C3988 C 0.33679 0.41658 0.80892 0.0
H3989 H 0.31708 0.44779 0.81095 0.0
C3990 C 0.34139 0.41815 0.79456 0.0
C3991 C 0.328 0.42745 0.81494 0.0
C3992 C 0.32327 0.42672 0.83051 0.0
C3993 C 0.3372 0.43016 0.78597 0.0
C3994 C 0.32838 0.441 0.79198 0.0
C3995 C 0.3238 0.43944 0.80634 0.0
C3996 C 0.32377 0.45408 0.78359 0.0
C3997 C 0.34199 0.43096 0.77043 0.0
C3998 C 0.33412 0.46417 0.77867 0.0
C3999 C 0.3297 0.47667 0.77109 0.0
C4000 C 0.3148 0.4794 0.76836 0.0
C4001 C 0.30447 0.46924 0.77334 0.0
C4002 C 0.30891 0.45675 0.78091 0.0
H4003 H 0.34544 0.42017 0.76637 0.0
H4004 H 0.33309 0.43504 0.76308 0.0
H4005 H 0.3514 0.43864 0.76984 0.0
H4006 H 0.34564 0.46251 0.78089 0.0
H4007 H 0.33796 0.48434 0.76766 0.0
H4008 H 0.69331 0.65239 0.15542 0.0
H4009 H 0.70706 0.63143 0.16447 0.0
H4010 H 0.70325 0.64681 0.20859 0.0
H4011 H 0.68958 0.66788 0.19963 0.0
H4012 H 0.73345 0.63184 0.18045 0.0
H4013 H 0.69021 0.60406 0.21137 0.0
H4014 H 0.68629 0.61819 0.1982 0.0
H4015 H 0.6933 0.62289 0.21617 0.0
C4016 C 0.69539 0.65133 0.16706 0.0
C4017 C 0.69032 0.66185 0.17679 0.0
C4018 C 0.70321 0.63931 0.17221 0.0
C4019 C 0.70605 0.63745 0.18722 0.0
C4020 C 0.70093 0.64784 0.19699 0.0
H4021 H 0.75475 0.57373 0.2386 0.0
H4022 H 0.74052 0.59456 0.23005 0.0
C4023 C 0.6931 0.65989 0.19184 0.0
C4024 C 0.71489 0.62495 0.19253 0.0
H4025 H 0.71409 0.59471 0.21421 0.0
C4026 C 0.7292 0.62368 0.18778 0.0
C4027 C 0.70936 0.61435 0.20215 0.0
C4028 C 0.69391 0.61481 0.2072 0.0
C4029 C 0.73818 0.61223 0.19253 0.0
C4030 C 0.73263 0.60158 0.20209 0.0
C4031 C 0.71834 0.60288 0.20689 0.0
C4032 C 0.74143 0.58898 0.20719 0.0
C4033 C 0.75364 0.61182 0.18752 0.0
C4034 C 0.74659 0.57882 0.1972 0.0
C4035 C 0.7547 0.56685 0.20205 0.0
C4036 C 0.75774 0.56471 0.21704 0.0
C4037 C 0.7525 0.57491 0.22701 0.0
C4038 C 0.7444 0.58687 0.22214 0.0
H4039 H 0.75738 0.62265 0.18357 0.0
H4040 H 0.76124 0.60824 0.19645 0.0
H4041 H 0.75425 0.60394 0.17837 0.0
H4042 H 0.74416 0.58002 0.18563 0.0
H4043 H 0.75832 0.55912 0.19407 0.0
H4044 H 0.72376 0.36929 0.84148 0.0
H4045 H 0.73709 0.39076 0.83297 0.0
H4046 H 0.69724 0.41516 0.83151 0.0
H4047 H 0.68378 0.3935 0.83955 0.0
H4048 H 0.71255 0.42109 0.80842 0.0
H4049 H 0.74946 0.42526 0.85728 0.0
H4050 H 0.75073 0.40792 0.8484 0.0
H4051 H 0.73389 0.41303 0.85638 0.0
C4052 C 0.71786 0.37925 0.83933 0.0
C4053 C 0.70277 0.37978 0.84128 0.0
C4054 C 0.7255 0.39155 0.83457 0.0
C4055 C 0.71826 0.40473 0.83198 0.0
C4056 C 0.7031 0.40516 0.83355 0.0
H4057 H 0.76364 0.48861 0.82549 0.0
H4058 H 0.74943 0.46742 0.83339 0.0
C4059 C 0.69541 0.39279 0.83811 0.0
C4060 C 0.72648 0.41801 0.82751 0.0
H4061 H 0.75578 0.43989 0.83692 0.0
C4062 C 0.72196 0.42525 0.81471 0.0
C4063 C 0.73859 0.42364 0.83585 0.0
C4064 C 0.74336 0.41715 0.85032 0.0
C4065 C 0.72935 0.43776 0.80985 0.0
C4066 C 0.74193 0.44292 0.81777 0.0
C4067 C 0.74628 0.43584 0.83073 0.0
C4068 C 0.75065 0.45573 0.81294 0.0
C4069 C 0.72336 0.44549 0.79648 0.0
C4070 C 0.75633 0.45615 0.79892 0.0
C4071 C 0.76429 0.46832 0.79435 0.0
C4072 C 0.76705 0.48019 0.80382 0.0
C4073 C 0.76177 0.47958 0.818 0.0
C4074 C 0.75361 0.4675 0.82249 0.0
H4075 H 0.71154 0.4431 0.7946 0.0
H4076 H 0.72496 0.45748 0.79742 0.0
H4077 H 0.72907 0.44162 0.78677 0.0
H4078 H 0.75464 0.44703 0.7915 0.0
H4079 H 0.76844 0.4684 0.78346 0.0
H4080 H 0.6701 0.71588 0.83054 0.0
H4081 H 0.64754 0.72858 0.82413 0.0
H4082 H 0.6249 0.68725 0.81879 0.0
H4083 H 0.64751 0.67446 0.82504 0.0
H4084 H 0.6174 0.70627 0.79714 0.0
H4085 H 0.61383 0.73346 0.85088 0.0
H4086 H 0.63065 0.73729 0.84218 0.0
H4087 H 0.62639 0.71894 0.84771 0.0
C4088 C 0.66031 0.70949 0.82803 0.0
C4089 C 0.66057 0.69416 0.82842 0.0
C4090 C 0.6474 0.71677 0.82442 0.0
C4091 C 0.63443 0.70889 0.8213 0.0
C4092 C 0.63475 0.69357 0.82124 0.0
H4093 H 0.54706 0.7443 0.82163 0.0
H4094 H 0.56979 0.7315 0.82701 0.0
C4095 C 0.64769 0.68627 0.82476 0.0
C4096 C 0.62054 0.71661 0.81813 0.0
H4097 H 0.59731 0.74139 0.83211 0.0
C4098 C 0.61298 0.71392 0.8048 0.0
C4099 C 0.61464 0.72642 0.82822 0.0
C4100 C 0.62171 0.72911 0.84311 0.0
C4101 C 0.59983 0.72093 0.80119 0.0
C4102 C 0.59424 0.73117 0.81105 0.0
C4103 C 0.60168 0.73368 0.82447 0.0
C4104 C 0.58053 0.73919 0.80779 0.0
C4105 C 0.59191 0.71704 0.78698 0.0
C4106 C 0.57907 0.74802 0.79536 0.0
C4107 C 0.56606 0.75533 0.79225 0.0
C4108 C 0.55429 0.75413 0.80161 0.0
C4109 C 0.55593 0.74558 0.81426 0.0
C4110 C 0.56891 0.73819 0.81731 0.0
H4111 H 0.5953 0.70627 0.7828 0.0
H4112 H 0.57993 0.71677 0.78824 0.0
H4113 H 0.59451 0.72537 0.77868 0.0
H4114 H 0.58801 0.7493 0.78807 0.0
H4115 H 0.56525 0.76202 0.78256 0.0
H4116 H 0.31606 0.66682 0.84071 0.0
H4117 H 0.30374 0.6442 0.83245 0.0
H4118 H 0.34546 0.62455 0.82626 0.0
H4119 H 0.3578 0.64683 0.83495 0.0
H4120 H 0.30511 0.63089 0.80588 0.0
H4121 H 0.32477 0.59306 0.84875 0.0
H4122 H 0.32631 0.61263 0.85074 0.0
H4123 H 0.33956 0.60277 0.84074 0.0
C4124 C 0.3226 0.65758 0.83784 0.0
C4125 C 0.33793 0.65866 0.83849 0.0
C4126 C 0.31554 0.64469 0.83305 0.0
C4127 C 0.32366 0.63258 0.82897 0.0
C4128 C 0.33894 0.63362 0.82967 0.0
H4129 H 0.32003 0.55586 0.77981 0.0
H4130 H 0.32471 0.57678 0.7958 0.0
C4131 C 0.34599 0.64646 0.83444 0.0
C4132 C 0.31631 0.61913 0.82308 0.0
H4133 H 0.31631 0.58198 0.82599 0.0
C4134 C 0.30728 0.62021 0.81046 0.0
C4135 C 0.31906 0.6052 0.82911 0.0
C4136 C 0.32783 0.60334 0.84317 0.0
C4137 C 0.30176 0.60769 0.80316 0.0
C4138 C 0.30527 0.59375 0.80871 0.0
C4139 C 0.31365 0.59269 0.82174 0.0
C4140 C 0.30203 0.58026 0.80015 0.0
C4141 C 0.29296 0.6094 0.78909 0.0
C4142 C 0.2877 0.57502 0.79756 0.0
C4143 C 0.28496 0.5629 0.78842 0.0
C4144 C 0.29653 0.55598 0.78167 0.0
C4145 C 0.31086 0.561 0.78474 0.0
C4146 C 0.31357 0.57295 0.79392 0.0
H4147 H 0.29245 0.62094 0.78548 0.0
H4148 H 0.29771 0.6028 0.78032 0.0
H4149 H 0.28167 0.60532 0.79057 0.0
H4150 H 0.27864 0.58046 0.80238 0.0
H4151 H 0.27381 0.5593 0.78623 0.0
H4152 H 0.39675 0.35521 0.83535 0.0
H4153 H 0.41744 0.34084 0.82796 0.0
H4154 H 0.39553 0.30147 0.8415 0.0
H4155 H 0.37446 0.31564 0.84817 0.0
H4156 H 0.43548 0.32381 0.84387 0.0
H4157 H 0.40693 0.29012 0.80114 0.0
H4158 H 0.39878 0.30592 0.80907 0.0
H4159 H 0.39878 0.28877 0.81858 0.0
C4160 C 0.39619 0.34346 0.83652 0.0
C4161 C 0.38383 0.33661 0.84227 0.0
C4162 C 0.4081 0.33527 0.8324 0.0
C4163 C 0.40797 0.32003 0.83393 0.0
C4164 C 0.39578 0.31316 0.83988 0.0
H4165 H 0.47416 0.2544 0.81958 0.0
H4166 H 0.45287 0.26764 0.8278 0.0
C4167 C 0.3838 0.32133 0.8439 0.0
C4168 C 0.42076 0.31143 0.82965 0.0
H4169 H 0.43115 0.28338 0.80786 0.0
C4170 C 0.43452 0.31501 0.83596 0.0
C4171 C 0.41953 0.29992 0.81931 0.0
C4172 C 0.40524 0.29603 0.81152 0.0
C4173 C 0.44703 0.30735 0.83231 0.0
C4174 C 0.44576 0.29585 0.82205 0.0
C4175 C 0.43203 0.29216 0.81581 0.0
C4176 C 0.45868 0.28787 0.81727 0.0
C4177 C 0.46153 0.31153 0.8395 0.0
C4178 C 0.4689 0.29485 0.80856 0.0
C4179 C 0.48099 0.28732 0.80381 0.0
C4180 C 0.48314 0.27266 0.80773 0.0
C4181 C 0.47289 0.26571 0.81651 0.0
C4182 C 0.4607 0.27322 0.82115 0.0
H4183 H 0.46027 0.31873 0.84911 0.0
H4184 H 0.46753 0.30164 0.84301 0.0
H4185 H 0.46825 0.31743 0.83153 0.0
H4186 H 0.46748 0.30612 0.80537 0.0
H4187 H 0.48875 0.29304 0.79721 0.0
H4188 H 0.37228 0.38179 0.20624 0.0
H4189 H 0.36118 0.40322 0.21685 0.0
H4190 H 0.31842 0.38493 0.20704 0.0
H4191 H 0.32944 0.3633 0.19652 0.0
H4192 H 0.32144 0.4141 0.19877 0.0
H4193 H 0.34117 0.40625 0.25602 0.0
H4194 H 0.35531 0.40597 0.24299 0.0
H4195 H 0.34144 0.39192 0.2425 0.0
C4196 C 0.36051 0.3822 0.20651 0.0
C4197 C 0.35176 0.37074 0.20061 0.0
C4198 C 0.35419 0.39448 0.2126 0.0
C4199 C 0.33898 0.39557 0.21297 0.0
C4200 C 0.33019 0.38427 0.20693 0.0
H4201 H 0.28863 0.45952 0.25944 0.0
H4202 H 0.30058 0.43732 0.25147 0.0
C4203 C 0.33651 0.37196 0.20085 0.0
C4204 C 0.33227 0.40875 0.2192 0.0
H4205 H 0.33051 0.42916 0.25032 0.0
C4206 C 0.32338 0.41736 0.21005 0.0
C4207 C 0.33467 0.41291 0.23398 0.0
C4208 C 0.34355 0.40372 0.2445 0.0
C4209 C 0.31708 0.43017 0.21518 0.0
C4210 C 0.31991 0.43462 0.22981 0.0
C4211 C 0.32852 0.42584 0.23906 0.0
C4212 C 0.3138 0.44826 0.23566 0.0
C4213 C 0.3073 0.43877 0.20493 0.0
C4214 C 0.31769 0.46184 0.22982 0.0
C4215 C 0.31092 0.47456 0.23436 0.0
C4216 C 0.30014 0.47395 0.24489 0.0
C4217 C 0.29685 0.46041 0.2513 0.0
C4218 C 0.30365 0.44769 0.24674 0.0
H4219 H 0.30345 0.43216 0.19534 0.0
H4220 H 0.29767 0.44281 0.21061 0.0
H4221 H 0.31345 0.44836 0.20087 0.0
H4222 H 0.32571 0.46256 0.22146 0.0
H4223 H 0.31379 0.48478 0.22924 0.0
H4224 H 0.6441 0.34197 0.1666 0.0
H4225 H 0.62448 0.32584 0.17448 0.0
H4226 H 0.64188 0.32813 0.21871 0.0
H4227 H 0.66166 0.34426 0.21087 0.0
H4228 H 0.62827 0.29853 0.18755 0.0
H4229 H 0.59828 0.33588 0.22317 0.0
H4230 H 0.61122 0.34239 0.21022 0.0
H4231 H 0.61751 0.33484 0.22732 0.0
C4232 C 0.64373 0.3391 0.17803 0.0
C4233 C 0.65449 0.34433 0.18811 0.0
C4234 C 0.63248 0.32991 0.18251 0.0
C4235 C 0.63166 0.32585 0.19718 0.0
C4236 C 0.64217 0.33133 0.20737 0.0
H4237 H 0.5748 0.26712 0.24363 0.0
H4238 H 0.59403 0.28397 0.23627 0.0
C4239 C 0.65345 0.34054 0.20288 0.0
C4240 C 0.62028 0.31524 0.20159 0.0
H4241 H 0.591 0.31097 0.2232 0.0
C4242 C 0.62008 0.30125 0.19531 0.0
C4243 C 0.60965 0.31882 0.21174 0.0
C4244 C 0.60904 0.33383 0.21844 0.0
C4245 C 0.60966 0.29066 0.19904 0.0
C4246 C 0.59898 0.29425 0.20914 0.0
C4247 C 0.5992 0.30824 0.21545 0.0
C4248 C 0.58751 0.28365 0.21339 0.0
C4249 C 0.6104 0.27563 0.1924 0.0
C4250 C 0.57743 0.27785 0.20296 0.0
C4251 C 0.56639 0.26819 0.20715 0.0
C4252 C 0.56513 0.26428 0.22187 0.0
C4253 C 0.57533 0.27004 0.23224 0.0
C4254 C 0.58637 0.27965 0.22805 0.0
H4255 H 0.62131 0.27351 0.18805 0.0
H4256 H 0.60788 0.26708 0.20052 0.0
H4257 H 0.60224 0.27468 0.18322 0.0
H4258 H 0.57792 0.28102 0.19163 0.0
H4259 H 0.55861 0.26414 0.19893 0.0
H4260 H 0.38082 0.66491 0.18933 0.0
H4261 H 0.40262 0.67455 0.20228 0.0
H4262 H 0.38652 0.71824 0.19738 0.0
H4263 H 0.36449 0.70868 0.18464 0.0
H4264 H 0.41589 0.71506 0.18976 0.0
H4265 H 0.40598 0.69123 0.24414 0.0
H4266 H 0.40491 0.67835 0.22933 0.0
H4267 H 0.39181 0.69267 0.23007 0.0
C4268 C 0.38177 0.67656 0.19118 0.0
C4269 C 0.37079 0.68599 0.18599 0.0
C4270 C 0.39427 0.68205 0.19859 0.0
C4271 C 0.39611 0.6971 0.20101 0.0
C4272 C 0.3853 0.70658 0.1957 0.0
H4273 H 0.46246 0.74285 0.25517 0.0
H4274 H 0.43955 0.73225 0.24514 0.0
C4275 C 0.37275 0.70109 0.18833 0.0
C4276 C 0.40954 0.70295 0.20863 0.0
H4277 H 0.42942 0.70193 0.24085 0.0
C4278 C 0.41881 0.71224 0.20095 0.0
C4279 C 0.41328 0.69938 0.22328 0.0
C4280 C 0.40343 0.68997 0.23227 0.0
C4281 C 0.43188 0.71776 0.20739 0.0
C4282 C 0.43586 0.7138 0.22188 0.0
C4283 C 0.42642 0.70481 0.2297 0.0
C4284 C 0.44979 0.719 0.22901 0.0
C4285 C 0.44129 0.7279 0.19869 0.0
C4286 C 0.46316 0.71464 0.22363 0.0
C4287 C 0.47627 0.72059 0.22937 0.0
C4288 C 0.47628 0.73106 0.24063 0.0
C4289 C 0.46288 0.73483 0.24651 0.0
C4290 C 0.44976 0.72881 0.24077 0.0
H4291 H 0.43522 0.73242 0.18907 0.0
H4292 H 0.44558 0.73709 0.20557 0.0
H4293 H 0.45072 0.7218 0.1947 0.0
H4294 H 0.46345 0.7069 0.21471 0.0
H4295 H 0.48635 0.71737 0.2246 0.0
loop_
_geom_bond_atom_site_label_1
_geom_bond_atom_site_label_2
_geom_bond_distance
_geom_bond_site_symmetry_2
_ccdc_geom_bond_type
H0 C3 0.931 . S
H1 C6 0.928 . S
H2 C8 0.930 . S
C3 H0 0.931 . S
C3 C4 1.413 . S
C3 C5 1.360 . S
C4 C3 1.413 . S
C4 C8 1.429 . S
C5 C3 1.360 . S
C5 C6 1.372 . S
C6 H1 0.928 . S
C6 C5 1.372 . S
C6 C7 1.404 . S
C7 C6 1.404 . S
C7 C8 1.391 . S
C8 H2 0.930 . S
C8 C4 1.429 . S
C8 C7 1.391 . S
H9 C12 0.931 . S
H10 C15 0.928 . S
H11 C17 0.930 . S
C12 H9 0.931 . S
C12 C13 1.413 . S
C12 C14 1.360 . S
C13 C12 1.413 . S
C13 C17 1.429 . S
C14 C12 1.360 . S
C14 C15 1.372 . S
C15 H10 0.928 . S
C15 C14 1.372 . S
C15 C16 1.404 . S
C16 C15 1.404 . S
C16 C17 1.391 . S
C17 H11 0.930 . S
C17 C13 1.429 . S
C17 C16 1.391 . S
H18 C21 0.931 . S
H19 C24 0.928 . S
H20 C26 0.930 . S
C21 H18 0.931 . S
C21 C22 1.413 . S
C21 C23 1.360 . S
C22 C21 1.413 . S
C22 C26 1.429 . S
C23 C21 1.360 . S
C23 C24 1.372 . S
C24 H19 0.928 . S
C24 C23 1.372 . S
C24 C25 1.404 . S
C25 C24 1.404 . S
C25 C26 1.391 . S
C26 H20 0.930 . S
C26 C22 1.429 . S
C26 C25 1.391 . S
H27 C30 0.931 . S
H28 C33 0.928 . S
H29 C35 0.930 . S
C30 H27 0.931 . S
C30 C31 1.413 . S
C30 C32 1.360 . S
C31 C30 1.413 . S
C31 C35 1.429 . S
C32 C30 1.360 . S
C32 C33 1.372 . S
C33 H28 0.928 . S
C33 C32 1.372 . S
C33 C34 1.404 . S
C34 C33 1.404 . S
C34 C35 1.391 . S
C35 H29 0.930 . S
C35 C31 1.429 . S
C35 C34 1.391 . S
H36 C39 0.931 . S
H37 C42 0.928 . S
H38 C44 0.930 . S
C39 H36 0.931 . S
C39 C40 1.413 . S
C39 C41 1.360 . S
C40 C39 1.413 . S
C40 C44 1.429 . S
C41 C39 1.360 . S
C41 C42 1.372 . S
C42 H37 0.928 . S
C42 C41 1.372 . S
C42 C43 1.404 . S
C43 C42 1.404 . S
C43 C44 1.391 . S
C44 H38 0.930 . S
C44 C40 1.429 . S
C44 C43 1.391 . S
H45 C48 0.931 . S
H46 C51 0.928 . S
H47 C53 0.930 . S
C48 H45 0.931 . S
C48 C49 1.413 . S
C48 C50 1.360 . S
C49 C48 1.413 . S
C49 C53 1.429 . S
C50 C48 1.360 . S
C50 C51 1.372 . S
C51 H46 0.928 . S
C51 C50 1.372 . S
C51 C52 1.404 . S
C52 C51 1.404 . S
C52 C53 1.391 . S
C53 H47 0.930 . S
C53 C49 1.429 . S
C53 C52 1.391 . S
H54 C57 0.931 . S
H55 C60 0.928 . S
H56 C62 0.930 . S
C57 H54 0.931 . S
C57 C58 1.413 . S
C57 C59 1.360 . S
C58 C57 1.413 . S
C58 C62 1.429 . S
C59 C57 1.360 . S
C59 C60 1.372 . S
C60 H55 0.928 . S
C60 C59 1.372 . S
C60 C61 1.404 . S
C61 C60 1.404 . S
C61 C62 1.391 . S
C62 H56 0.930 . S
C62 C58 1.429 . S
C62 C61 1.391 . S
H63 C66 0.931 . S
H64 C69 0.928 . S
H65 C71 0.930 . S
C66 H63 0.931 . S
C66 C67 1.413 . S
C66 C68 1.360 . S
C67 C66 1.413 . S
C67 C71 1.429 . S
C68 C66 1.360 . S
C68 C69 1.372 . S
C69 H64 0.928 . S
C69 C68 1.372 . S
C69 C70 1.404 . S
C70 C69 1.404 . S
C70 C71 1.391 . S
C71 H65 0.930 . S
C71 C67 1.429 . S
C71 C70 1.391 . S
H72 C75 0.931 . S
H73 C78 0.928 . S
H74 C80 0.930 . S
C75 H72 0.931 . S
C75 C76 1.413 . S
C75 C77 1.360 . S
C76 C75 1.413 . S
C76 C80 1.429 . S
C77 C75 1.360 . S
C77 C78 1.372 . S
C78 H73 0.928 . S
C78 C77 1.372 . S
C78 C79 1.404 . S
C79 C78 1.404 . S
C79 C80 1.391 . S
C80 H74 0.930 . S
C80 C76 1.429 . S
C80 C79 1.391 . S
H81 C84 0.931 . S
H82 C87 0.928 . S
H83 C89 0.930 . S
C84 H81 0.931 . S
C84 C85 1.413 . S
C84 C86 1.360 . S
C85 C84 1.413 . S
C85 C89 1.429 . S
C86 C84 1.360 . S
C86 C87 1.372 . S
C87 H82 0.928 . S
C87 C86 1.372 . S
C87 C88 1.404 . S
C88 C87 1.404 . S
C88 C89 1.391 . S
C89 H83 0.930 . S
C89 C85 1.429 . S
C89 C88 1.391 . S
H90 C93 0.931 . S
H91 C96 0.928 . S
H92 C98 0.930 . S
C93 H90 0.931 . S
C93 C94 1.413 . S
C93 C95 1.360 . S
C94 C93 1.413 . S
C94 C98 1.429 . S
C95 C93 1.360 . S
C95 C96 1.372 . S
C96 H91 0.928 . S
C96 C95 1.372 . S
C96 C97 1.404 . S
C97 C96 1.404 . S
C97 C98 1.391 . S
C98 H92 0.930 . S
C98 C94 1.429 . S
C98 C97 1.391 . S
H99 C102 0.931 . S
H100 C105 0.928 . S
H101 C107 0.930 . S
C102 H99 0.931 . S
C102 C103 1.413 . S
C102 C104 1.360 . S
C103 C102 1.413 . S
C103 C107 1.429 . S
C104 C102 1.360 . S
C104 C105 1.372 . S
C105 H100 0.928 . S
C105 C104 1.372 . S
C105 C106 1.404 . S
C106 C105 1.404 . S
C106 C107 1.391 . S
C107 H101 0.930 . S
C107 C103 1.429 . S
C107 C106 1.391 . S
H108 C111 0.931 . S
H109 C114 0.928 . S
H110 C116 0.930 . S
C111 H108 0.931 . S
C111 C112 1.413 . S
C111 C113 1.360 . S
C112 C111 1.413 . S
C112 C116 1.429 . S
C113 C111 1.360 . S
C113 C114 1.372 . S
C114 H109 0.928 . S
C114 C113 1.372 . S
C114 C115 1.404 . S
C115 C114 1.404 . S
C115 C116 1.391 . S
C116 H110 0.930 . S
C116 C112 1.429 . S
C116 C115 1.391 . S
H117 C120 0.931 . S
H118 C123 0.928 . S
H119 C125 0.930 . S
C120 H117 0.931 . S
C120 C121 1.413 . S
C120 C122 1.360 . S
C121 C120 1.413 . S
C121 C125 1.429 . S
C122 C120 1.360 . S
C122 C123 1.372 . S
C123 H118 0.928 . S
C123 C122 1.372 . S
C123 C124 1.404 . S
C124 C123 1.404 . S
C124 C125 1.391 . S
C125 H119 0.930 . S
C125 C121 1.429 . S
C125 C124 1.391 . S
H126 C129 0.931 . S
H127 C132 0.928 . S
H128 C134 0.930 . S
C129 H126 0.931 . S
C129 C130 1.413 . S
C129 C131 1.360 . S
C130 C129 1.413 . S
C130 C134 1.429 . S
C131 C129 1.360 . S
C131 C132 1.372 . S
C132 H127 0.928 . S
C132 C131 1.372 . S
C132 C133 1.404 . S
C133 C132 1.404 . S
C133 C134 1.391 . S
C134 H128 0.930 . S
C134 C130 1.429 . S
C134 C133 1.391 . S
H135 C138 0.931 . S
H136 C141 0.928 . S
H137 C143 0.930 . S
C138 H135 0.931 . S
C138 C139 1.413 . S
C138 C140 1.360 . S
C139 C138 1.413 . S
C139 C143 1.429 . S
C140 C138 1.360 . S
C140 C141 1.372 . S
C141 H136 0.928 . S
C141 C140 1.372 . S
C141 C142 1.404 . S
C142 C141 1.404 . S
C142 C143 1.391 . S
C143 H137 0.930 . S
C143 C139 1.429 . S
C143 C142 1.391 . S
H144 C147 0.931 . S
H145 C150 0.928 . S
H146 C152 0.930 . S
C147 H144 0.931 . S
C147 C148 1.413 . S
C147 C149 1.360 . S
C148 C147 1.413 . S
C148 C152 1.429 . S
C149 C147 1.360 . S
C149 C150 1.372 . S
C150 H145 0.928 . S
C150 C149 1.372 . S
C150 C151 1.404 . S
C151 C150 1.404 . S
C151 C152 1.391 . S
C152 H146 0.930 . S
C152 C148 1.429 . S
C152 C151 1.391 . S
H153 C156 0.931 . S
H154 C159 0.928 . S
H155 C161 0.930 . S
C156 H153 0.931 . S
C156 C157 1.413 . S
C156 C158 1.360 . S
C157 C156 1.413 . S
C157 C161 1.429 . S
C158 C156 1.360 . S
C158 C159 1.372 . S
C159 H154 0.928 . S
C159 C158 1.372 . S
C159 C160 1.404 . S
C160 C159 1.404 . S
C160 C161 1.391 . S
C161 H155 0.930 . S
C161 C157 1.429 . S
C161 C160 1.391 . S
H162 C165 0.931 . S
H163 C168 0.928 . S
H164 C170 0.930 . S
C165 H162 0.931 . S
C165 C166 1.413 . S
C165 C167 1.360 . S
C166 C165 1.413 . S
C166 C170 1.429 . S
C167 C165 1.360 . S
C167 C168 1.372 . S
C168 H163 0.928 . S
C168 C167 1.372 . S
C168 C169 1.404 . S
C169 C168 1.404 . S
C169 C170 1.391 . S
C170 H164 0.930 . S
C170 C166 1.429 . S
C170 C169 1.391 . S
H171 C174 0.931 . S
H172 C177 0.928 . S
H173 C179 0.930 . S
C174 H171 0.931 . S
C174 C175 1.413 . S
C174 C176 1.360 . S
C175 C174 1.413 . S
C175 C179 1.429 . S
C176 C174 1.360 . S
C176 C177 1.372 . S
C177 H172 0.928 . S
C177 C176 1.372 . S
C177 C178 1.404 . S
C178 C177 1.404 . S
C178 C179 1.391 . S
C179 H173 0.930 . S
C179 C175 1.429 . S
C179 C178 1.391 . S
H180 C183 0.931 . S
H181 C186 0.928 . S
H182 C188 0.930 . S
C183 H180 0.931 . S
C183 C184 1.413 . S
C183 C185 1.360 . S
C184 C183 1.413 . S
C184 C188 1.429 . S
C185 C183 1.360 . S
C185 C186 1.372 . S
C186 H181 0.928 . S
C186 C185 1.372 . S
C186 C187 1.404 . S
C187 C186 1.404 . S
C187 C188 1.391 . S
C188 H182 0.930 . S
C188 C184 1.429 . S
C188 C187 1.391 . S
H189 C192 0.931 . S
H190 C195 0.928 . S
H191 C197 0.930 . S
C192 H189 0.931 . S
C192 C193 1.413 . S
C192 C194 1.360 . S
C193 C192 1.413 . S
C193 C197 1.429 . S
C194 C192 1.360 . S
C194 C195 1.372 . S
C195 H190 0.928 . S
C195 C194 1.372 . S
C195 C196 1.404 . S
C196 C195 1.404 . S
C196 C197 1.391 . S
C197 H191 0.930 . S
C197 C193 1.429 . S
C197 C196 1.391 . S
H198 C201 0.931 . S
H199 C204 0.928 . S
H200 C206 0.930 . S
C201 H198 0.931 . S
C201 C202 1.413 . S
C201 C203 1.360 . S
C202 C201 1.413 . S
C202 C206 1.429 . S
C203 C201 1.360 . S
C203 C204 1.372 . S
C204 H199 0.928 . S
C204 C203 1.372 . S
C204 C205 1.404 . S
C205 C204 1.404 . S
C205 C206 1.391 . S
C206 H200 0.930 . S
C206 C202 1.429 . S
C206 C205 1.391 . S
H207 C210 0.931 . S
H208 C213 0.928 . S
H209 C215 0.930 . S
C210 H207 0.931 . S
C210 C211 1.413 . S
C210 C212 1.360 . S
C211 C210 1.413 . S
C211 C215 1.429 . S
C212 C210 1.360 . S
C212 C213 1.372 . S
C213 H208 0.928 . S
C213 C212 1.372 . S
C213 C214 1.404 . S
C214 C213 1.404 . S
C214 C215 1.391 . S
C215 H209 0.930 . S
C215 C211 1.429 . S
C215 C214 1.391 . S
H216 C219 0.931 . S
H217 C222 0.928 . S
H218 C224 0.930 . S
C219 H216 0.931 . S
C219 C220 1.413 . S
C219 C221 1.360 . S
C220 C219 1.413 . S
C220 C224 1.429 . S
C221 C219 1.360 . S
C221 C222 1.372 . S
C222 H217 0.928 . S
C222 C221 1.372 . S
C222 C223 1.404 . S
C223 C222 1.404 . S
C223 C224 1.391 . S
C224 H218 0.930 . S
C224 C220 1.429 . S
C224 C223 1.391 . S
H225 C228 0.931 . S
H226 C231 0.928 . S
H227 C233 0.930 . S
C228 H225 0.931 . S
C228 C229 1.413 . S
C228 C230 1.360 . S
C229 C228 1.413 . S
C229 C233 1.429 . S
C230 C228 1.360 . S
C230 C231 1.372 . S
C231 H226 0.928 . S
C231 C230 1.372 . S
C231 C232 1.404 . S
C232 C231 1.404 . S
C232 C233 1.391 . S
C233 H227 0.930 . S
C233 C229 1.429 . S
C233 C232 1.391 . S
H234 C237 0.931 . S
H235 C240 0.928 . S
H236 C242 0.930 . S
C237 H234 0.931 . S
C237 C238 1.413 . S
C237 C239 1.360 . S
C238 C237 1.413 . S
C238 C242 1.429 . S
C239 C237 1.360 . S
C239 C240 1.372 . S
C240 H235 0.928 . S
C240 C239 1.372 . S
C240 C241 1.404 . S
C241 C240 1.404 . S
C241 C242 1.391 . S
C242 H236 0.930 . S
C242 C238 1.429 . S
C242 C241 1.391 . S
H243 C246 0.931 . S
H244 C249 0.928 . S
H245 C251 0.930 . S
C246 H243 0.931 . S
C246 C247 1.413 . S
C246 C248 1.360 . S
C247 C246 1.413 . S
C247 C251 1.429 . S
C248 C246 1.360 . S
C248 C249 1.372 . S
C249 H244 0.928 . S
C249 C248 1.372 . S
C249 C250 1.404 . S
C250 C249 1.404 . S
C250 C251 1.391 . S
C251 H245 0.930 . S
C251 C247 1.429 . S
C251 C250 1.391 . S
H252 C255 0.931 . S
H253 C258 0.928 . S
H254 C260 0.930 . S
C255 H252 0.931 . S
C255 C256 1.413 . S
C255 C257 1.360 . S
C256 C255 1.413 . S
C256 C260 1.429 . S
C257 C255 1.360 . S
C257 C258 1.372 . S
C258 H253 0.928 . S
C258 C257 1.372 . S
C258 C259 1.404 . S
C259 C258 1.404 . S
C259 C260 1.391 . S
C260 H254 0.930 . S
C260 C256 1.429 . S
C260 C259 1.391 . S
H261 C264 0.931 . S
H262 C267 0.928 . S
H263 C269 0.930 . S
C264 H261 0.931 . S
C264 C265 1.413 . S
C264 C266 1.360 . S
C265 C264 1.413 . S
C265 C269 1.429 . S
C266 C264 1.360 . S
C266 C267 1.372 . S
C267 H262 0.928 . S
C267 C266 1.372 . S
C267 C268 1.404 . S
C268 C267 1.404 . S
C268 C269 1.391 . S
C269 H263 0.930 . S
C269 C265 1.429 . S
C269 C268 1.391 . S
H270 C273 0.931 . S
H271 C276 0.928 . S
H272 C278 0.930 . S
C273 H270 0.931 . S
C273 C274 1.413 . S
C273 C275 1.360 . S
C274 C273 1.413 . S
C274 C278 1.429 . S
C275 C273 1.360 . S
C275 C276 1.372 . S
C276 H271 0.928 . S
C276 C275 1.372 . S
C276 C277 1.404 . S
C277 C276 1.404 . S
C277 C278 1.391 . S
C278 H272 0.930 . S
C278 C274 1.429 . S
C278 C277 1.391 . S
H279 C282 0.931 . S
H280 C285 0.928 . S
H281 C287 0.930 . S
C282 H279 0.931 . S
C282 C283 1.413 . S
C282 C284 1.360 . S
C283 C282 1.413 . S
C283 C287 1.429 . S
C284 C282 1.360 . S
C284 C285 1.372 . S
C285 H280 0.928 . S
C285 C284 1.372 . S
C285 C286 1.404 . S
C286 C285 1.404 . S
C286 C287 1.391 . S
C287 H281 0.930 . S
C287 C283 1.429 . S
C287 C286 1.391 . S
Cu288 N289 1.999 . S
Cu288 O294 1.974 1_554 S
Cu288 N299 1.985 . S
Cu288 O308 1.959 . S
N289 Cu288 1.999 . S
N289 C291 1.263 1_554 S
N289 C293 1.389 . S
N290 C291 1.358 . S
N290 C292 1.400 . S
C291 N289 1.263 1_556 S
C291 N290 1.358 . S
C291 H297 0.930 . S
C292 N290 1.400 . S
C292 C293 1.351 1_556 S
C292 H309 0.930 . S
C293 N289 1.389 . S
C293 C292 1.351 1_554 S
C293 H298 0.930 . S
O294 Cu288 1.974 1_556 S
O294 C304 1.282 . S
C295 O296 1.261 . S
C295 O308 1.251 . S
O296 C295 1.261 . S
H297 C291 0.930 . S
H298 C293 0.930 . S
N299 Cu288 1.985 . S
N299 C301 1.335 . S
N299 C302 1.390 . S
N300 C301 1.345 . S
N300 C303 1.336 . S
C301 N299 1.335 . S
C301 N300 1.345 . S
C301 H306 0.930 . S
C302 N299 1.390 . S
C302 C303 1.346 . S
C302 H307 0.930 . S
C303 N300 1.336 . S
C303 C302 1.346 . S
C303 H310 0.929 . S
C304 O294 1.282 . S
C304 O305 1.216 . S
O305 C304 1.216 . S
H306 C301 0.930 . S
H307 C302 0.930 . S
O308 Cu288 1.959 . S
O308 C295 1.251 . S
H309 C292 0.930 . S
H310 C303 0.929 . S
Cu311 N312 1.999 . S
Cu311 O317 1.974 . S
Cu311 N322 1.985 1_554 S
Cu311 O331 1.959 1_554 S
N312 Cu311 1.999 . S
N312 C314 1.263 . S
N312 C316 1.389 . S
N313 C314 1.358 . S
N313 C315 1.400 . S
C314 N312 1.263 . S
C314 N313 1.358 . S
C314 H320 0.930 . S
C315 N313 1.400 . S
C315 C316 1.351 . S
C315 H332 0.930 . S
C316 N312 1.389 . S
C316 C315 1.351 . S
C316 H321 0.930 . S
O317 Cu311 1.974 . S
O317 C327 1.282 . S
C318 O319 1.261 . S
C318 O331 1.251 . S
O319 C318 1.261 . S
H320 C314 0.930 . S
H321 C316 0.930 . S
N322 Cu311 1.985 1_556 S
N322 C324 1.335 . S
N322 C325 1.390 . S
N323 C324 1.345 . S
N323 C326 1.336 . S
C324 N322 1.335 . S
C324 N323 1.345 . S
C324 H329 0.930 . S
C325 N322 1.390 . S
C325 C326 1.346 . S
C325 H330 0.930 1_556 S
C326 N323 1.336 . S
C326 C325 1.346 . S
C326 H333 0.929 . S
C327 O317 1.282 . S
C327 O328 1.216 . S
O328 C327 1.216 . S
H329 C324 0.930 . S
H330 C325 0.930 1_554 S
O331 Cu311 1.959 1_556 S
O331 C318 1.251 . S
H332 C315 0.930 . S
H333 C326 0.929 . S
Cu334 N335 1.961 1_554 S
Cu334 O340 1.927 1_554 S
Cu334 N345 2.022 . S
Cu334 O354 2.006 . S
N335 Cu334 1.961 1_556 S
N335 C337 1.263 . S
N335 C339 1.389 . S
N336 C337 1.358 . S
N336 C338 1.400 . S
C337 N335 1.263 . S
C337 N336 1.358 . S
C337 H343 0.930 . S
C338 N336 1.400 . S
C338 C339 1.351 . S
C338 H355 0.930 . S
C339 N335 1.389 . S
C339 C338 1.351 . S
C339 H344 0.930 . S
O340 Cu334 1.927 1_556 S
O340 C350 1.282 . S
C341 O342 1.261 . S
C341 O354 1.251 . S
O342 C341 1.261 . S
H343 C337 0.930 . S
H344 C339 0.930 . S
N345 Cu334 2.022 . S
N345 C347 1.335 . S
N345 C348 1.390 . S
N346 C347 1.345 . S
N346 C349 1.336 . S
C347 N345 1.335 . S
C347 N346 1.345 . S
C347 H352 0.930 . S
C348 N345 1.390 . S
C348 C349 1.346 . S
C348 H353 0.967 . S
C349 N346 1.336 . S
C349 C348 1.346 . S
C349 H356 0.929 . S
C350 O340 1.282 . S
C350 O351 1.216 . S
O351 C350 1.216 . S
H352 C347 0.930 . S
H353 C348 0.967 . S
O354 Cu334 2.006 . S
O354 C341 1.251 . S
H355 C338 0.930 . S
H356 C349 0.929 . S
Cu357 N358 1.999 . S
Cu357 O363 1.973 . S
Cu357 N368 1.985 1_554 S
Cu357 O377 1.960 1_554 S
N358 Cu357 1.999 . S
N358 C360 1.263 . S
N358 C362 1.389 . S
N359 C360 1.358 . S
N359 C361 1.400 . S
C360 N358 1.263 . S
C360 N359 1.358 . S
C360 H366 0.930 . S
C361 N359 1.400 . S
C361 C362 1.351 . S
C361 H378 0.930 . S
C362 N358 1.389 . S
C362 C361 1.351 . S
C362 H367 0.930 . S
O363 Cu357 1.973 . S
O363 C373 1.282 . S
C364 O365 1.261 . S
C364 O377 1.251 . S
O365 C364 1.261 . S
H366 C360 0.930 . S
H367 C362 0.930 . S
N368 Cu357 1.985 1_556 S
N368 C370 1.335 . S
N368 C371 1.390 . S
N369 C370 1.345 . S
N369 C372 1.336 . S
C370 N368 1.335 . S
C370 N369 1.345 . S
C370 H375 0.930 . S
C371 N368 1.390 . S
C371 C372 1.346 . S
C371 H376 0.928 1_556 S
C372 N369 1.336 . S
C372 C371 1.346 . S
C372 H379 0.929 . S
C373 O363 1.282 . S
C373 O374 1.216 . S
O374 C373 1.216 . S
H375 C370 0.930 . S
H376 C371 0.928 1_554 S
O377 Cu357 1.960 1_556 S
O377 C364 1.251 . S
H378 C361 0.930 . S
H379 C372 0.929 . S
Cu380 N381 1.999 . S
Cu380 O386 1.974 . S
Cu380 N391 1.985 1_455 S
Cu380 O400 1.959 1_455 S
N381 Cu380 1.999 . S
N381 C383 1.263 . S
N381 C385 1.389 . S
N382 C383 1.358 . S
N382 C384 1.400 . S
C383 N381 1.263 . S
C383 N382 1.358 . S
C383 H389 0.930 . S
C384 N382 1.400 . S
C384 C385 1.351 . S
C384 H401 0.930 . S
C385 N381 1.389 . S
C385 C384 1.351 . S
C385 H390 0.930 . S
O386 Cu380 1.974 . S
O386 C396 1.282 . S
C387 O388 1.261 . S
C387 O400 1.251 . S
O388 C387 1.261 . S
H389 C383 0.930 . S
H390 C385 0.930 . S
N391 Cu380 1.985 1_655 S
N391 C393 1.335 . S
N391 C394 1.394 . S
N392 C393 1.345 . S
N392 C395 1.336 . S
C393 N391 1.335 . S
C393 N392 1.345 . S
C393 H398 0.930 . S
C394 N391 1.394 . S
C394 C395 1.364 . S
C394 H399 0.912 1_655 S
C395 N392 1.336 . S
C395 C394 1.364 . S
C395 H402 0.929 . S
C396 O386 1.282 . S
C396 O397 1.216 . S
O397 C396 1.216 . S
H398 C393 0.930 . S
H399 C394 0.912 1_455 S
O400 Cu380 1.959 1_655 S
O400 C387 1.251 . S
H401 C384 0.930 . S
H402 C395 0.929 . S
Cu403 N404 1.999 . S
Cu403 O409 1.974 . S
Cu403 N414 1.985 1_545 S
Cu403 O423 1.959 1_545 S
N404 Cu403 1.999 . S
N404 C406 1.263 . S
N404 C408 1.389 . S
N405 C406 1.358 . S
N405 C407 1.400 . S
C406 N404 1.263 . S
C406 N405 1.358 . S
C406 H412 0.930 . S
C407 N405 1.400 . S
C407 C408 1.351 . S
C407 H424 0.930 . S
C408 N404 1.389 . S
C408 C407 1.351 . S
C408 H413 0.930 . S
O409 Cu403 1.974 . S
O409 C419 1.282 . S
C410 O411 1.261 . S
C410 O423 1.251 . S
O411 C410 1.261 . S
H412 C406 0.930 . S
H413 C408 0.930 . S
N414 Cu403 1.985 1_565 S
N414 C416 1.335 . S
N414 C417 1.390 . S
N415 C416 1.345 . S
N415 C418 1.336 . S
C416 N414 1.335 . S
C416 N415 1.345 . S
C416 H421 0.930 . S
C417 N414 1.390 . S
C417 C418 1.346 . S
C417 H422 0.930 1_565 S
C418 N415 1.336 . S
C418 C417 1.346 . S
C418 H425 0.929 . S
C419 O409 1.282 . S
C419 O420 1.216 . S
O420 C419 1.216 . S
H421 C416 0.930 . S
H422 C417 0.930 1_545 S
O423 Cu403 1.959 1_565 S
O423 C410 1.251 . S
H424 C407 0.930 . S
H425 C418 0.929 . S
Cu426 N427 2.005 1_455 S
Cu426 O432 1.980 1_455 S
Cu426 N437 1.980 . S
Cu426 O446 1.953 . S
N427 Cu426 2.005 1_655 S
N427 C429 1.263 . S
N427 C431 1.389 . S
N428 C429 1.358 . S
N428 C430 1.400 . S
C429 N427 1.263 . S
C429 N428 1.358 . S
C429 H435 0.930 . S
C430 N428 1.400 . S
C430 C431 1.351 . S
C430 H447 0.930 . S
C431 N427 1.389 . S
C431 C430 1.351 . S
C431 H436 0.930 . S
O432 Cu426 1.980 1_655 S
O432 C442 1.282 . S
C433 O434 1.261 . S
C433 O446 1.251 . S
O434 C433 1.261 . S
H435 C429 0.930 . S
H436 C431 0.930 . S
N437 Cu426 1.980 . S
N437 C439 1.335 . S
N437 C440 1.390 . S
N438 C439 1.345 . S
N438 C441 1.336 . S
C439 N437 1.335 . S
C439 N438 1.345 . S
C439 H444 0.930 . S
C440 N437 1.390 . S
C440 C441 1.346 . S
C440 H445 0.930 . S
C441 N438 1.336 . S
C441 C440 1.346 . S
C441 H448 0.929 . S
C442 O432 1.282 . S
C442 O443 1.216 . S
O443 C442 1.216 . S
H444 C439 0.930 . S
H445 C440 0.930 . S
O446 Cu426 1.953 . S
O446 C433 1.251 . S
H447 C430 0.930 . S
H448 C441 0.929 . S
Cu449 N450 1.988 1_565 S
Cu449 O455 1.960 1_565 S
Cu449 N460 1.996 . S
Cu449 O469 1.973 . S
N450 Cu449 1.988 1_545 S
N450 C452 1.263 . S
N450 C454 1.389 . S
N451 C452 1.358 . S
N451 C453 1.400 . S
C452 N450 1.263 . S
C452 N451 1.358 . S
C452 H458 0.930 . S
C453 N451 1.400 . S
C453 C454 1.351 . S
C453 H470 0.930 . S
C454 N450 1.389 . S
C454 C453 1.351 . S
C454 H459 0.930 . S
O455 Cu449 1.960 1_545 S
O455 C465 1.282 . S
C456 O457 1.261 . S
C456 O469 1.251 . S
O457 C456 1.261 . S
H458 C452 0.930 . S
H459 C454 0.930 . S
N460 Cu449 1.996 . S
N460 C462 1.335 . S
N460 C463 1.390 . S
N461 C462 1.345 . S
N461 C464 1.336 . S
C462 N460 1.335 . S
C462 N461 1.345 . S
C462 H467 0.930 . S
C463 N460 1.390 . S
C463 C464 1.346 . S
C463 H468 0.930 . S
C464 N461 1.336 . S
C464 C463 1.346 . S
C464 H471 0.929 . S
C465 O455 1.282 . S
C465 O466 1.216 . S
O466 C465 1.216 . S
H467 C462 0.930 . S
H468 C463 0.930 . S
O469 Cu449 1.973 . S
O469 C456 1.251 . S
H470 C453 0.930 . S
H471 C464 0.929 . S
Cu472 N473 1.999 . S
Cu472 O478 1.974 . S
Cu472 N483 1.985 1_455 S
Cu472 O492 1.959 1_455 S
N473 Cu472 1.999 . S
N473 C475 1.263 . S
N473 C477 1.389 . S
N474 C475 1.358 . S
N474 C476 1.400 . S
C475 N473 1.263 . S
C475 N474 1.358 . S
C475 H481 0.930 . S
C476 N474 1.400 . S
C476 C477 1.351 . S
C476 H493 0.930 . S
C477 N473 1.389 . S
C477 C476 1.351 . S
C477 H482 0.930 . S
O478 Cu472 1.974 . S
O478 C488 1.282 . S
C479 O480 1.261 . S
C479 O492 1.251 . S
O480 C479 1.261 . S
H481 C475 0.930 . S
H482 C477 0.930 . S
N483 Cu472 1.985 1_655 S
N483 C485 1.335 . S
N483 C486 1.407 . S
N484 C485 1.345 . S
N484 C487 1.336 . S
C485 N483 1.335 . S
C485 N484 1.345 . S
C485 H490 0.930 . S
C486 N483 1.407 . S
C486 C487 1.413 . S
C486 H491 0.862 1_655 S
C487 N484 1.336 . S
C487 C486 1.413 . S
C487 H494 0.929 . S
C488 O478 1.282 . S
C488 O489 1.216 . S
O489 C488 1.216 . S
H490 C485 0.930 . S
H491 C486 0.862 1_455 S
O492 Cu472 1.959 1_655 S
O492 C479 1.251 . S
H493 C476 0.930 . S
H494 C487 0.929 . S
Cu495 N496 1.999 . S
Cu495 O501 1.974 . S
Cu495 N506 1.985 1_545 S
Cu495 O515 1.959 1_545 S
N496 Cu495 1.999 . S
N496 C498 1.263 . S
N496 C500 1.389 . S
N497 C498 1.358 . S
N497 C499 1.400 . S
C498 N496 1.263 . S
C498 N497 1.358 . S
C498 H504 0.930 . S
C499 N497 1.400 . S
C499 C500 1.351 . S
C499 H516 0.930 . S
C500 N496 1.389 . S
C500 C499 1.351 . S
C500 H505 0.930 . S
O501 Cu495 1.974 . S
O501 C511 1.282 . S
C502 O503 1.261 . S
C502 O515 1.251 . S
O503 C502 1.261 . S
H504 C498 0.930 . S
H505 C500 0.930 . S
N506 Cu495 1.985 1_565 S
N506 C508 1.335 . S
N506 C509 1.377 1_565 S
N507 C508 1.345 . S
N507 C510 1.336 . S
C508 N506 1.335 . S
C508 N507 1.345 . S
C508 H513 0.930 . S
C509 N506 1.377 1_545 S
C509 C510 1.277 1_545 S
C509 H514 1.002 . S
C510 N507 1.336 . S
C510 C509 1.277 1_565 S
C510 H517 0.929 . S
C511 O501 1.282 . S
C511 O512 1.216 . S
O512 C511 1.216 . S
H513 C508 0.930 . S
H514 C509 1.002 . S
O515 Cu495 1.959 1_565 S
O515 C502 1.251 . S
H516 C499 0.930 . S
H517 C510 0.929 . S
Cu518 N519 1.999 . S
Cu518 O524 1.974 . S
Cu518 N529 1.985 . S
Cu518 O538 1.959 . S
N519 Cu518 1.999 . S
N519 C521 1.263 1_455 S
N519 C523 1.389 . S
N520 C521 1.358 . S
N520 C522 1.400 . S
C521 N519 1.263 1_655 S
C521 N520 1.358 . S
C521 H527 0.930 . S
C522 N520 1.400 . S
C522 C523 1.351 1_655 S
C522 H539 0.930 . S
C523 N519 1.389 . S
C523 C522 1.351 1_455 S
C523 H528 0.930 . S
O524 Cu518 1.974 . S
O524 C534 1.282 1_455 S
C525 O526 1.261 . S
C525 O538 1.251 . S
O526 C525 1.261 . S
H527 C521 0.930 . S
H528 C523 0.930 . S
N529 Cu518 1.985 . S
N529 C531 1.335 . S
N529 C532 1.390 . S
N530 C531 1.345 . S
N530 C533 1.336 . S
C531 N529 1.335 . S
C531 N530 1.345 . S
C531 H536 0.930 . S
C532 N529 1.390 . S
C532 C533 1.346 . S
C532 H537 0.930 . S
C533 N530 1.336 . S
C533 C532 1.346 . S
C533 H540 0.929 . S
C534 O524 1.282 1_655 S
C534 O535 1.216 1_655 S
O535 C534 1.216 1_455 S
H536 C531 0.930 . S
H537 C532 0.930 . S
O538 Cu518 1.959 . S
O538 C525 1.251 . S
H539 C522 0.930 . S
H540 C533 0.929 . S
Cu541 N542 1.999 . S
Cu541 O547 1.974 . S
Cu541 N552 2.024 . S
Cu541 O561 1.959 1_545 S
N542 Cu541 1.999 . S
N542 C544 1.263 . S
N542 C546 1.389 . S
N543 C544 1.358 . S
N543 C545 1.400 . S
C544 N542 1.263 . S
C544 N543 1.358 . S
C544 H550 0.930 . S
C545 N543 1.400 . S
C545 C546 1.351 . S
C545 H562 0.930 . S
C546 N542 1.389 . S
C546 C545 1.351 . S
C546 H551 0.930 . S
O547 Cu541 1.974 . S
O547 C557 1.282 . S
C548 O549 1.251 1_565 S
C548 O561 1.251 . S
O549 C548 1.251 1_545 S
H550 C544 0.930 . S
H551 C546 0.930 . S
N552 Cu541 2.024 . S
N552 C554 1.274 1_545 S
N552 C555 1.405 . S
N553 C554 1.345 . S
N553 C556 1.336 . S
C554 N552 1.274 1_565 S
C554 N553 1.345 . S
C554 H559 0.930 . S
C555 N552 1.405 . S
C555 C556 1.346 1_545 S
C555 H560 0.930 . S
C556 N553 1.336 . S
C556 C555 1.346 1_565 S
C556 H563 0.929 . S
C557 O547 1.282 . S
C557 O558 1.216 . S
O558 C557 1.216 . S
H559 C554 0.930 . S
H560 C555 0.930 . S
O561 Cu541 1.959 1_565 S
O561 C548 1.251 . S
H562 C545 0.930 . S
H563 C556 0.929 . S
Cu564 N565 1.999 . S
Cu564 O570 1.974 . S
Cu564 N575 1.985 . S
Cu564 O584 1.959 . S
N565 Cu564 1.999 . S
N565 C567 1.263 . S
N565 C569 1.389 . S
N566 C567 1.358 . S
N566 C568 1.400 . S
C567 N565 1.263 . S
C567 N566 1.358 . S
C567 H573 0.930 . S
C568 N566 1.400 . S
C568 C569 1.351 . S
C568 H585 0.930 . S
C569 N565 1.389 . S
C569 C568 1.351 . S
C569 H574 0.930 . S
O570 Cu564 1.974 . S
O570 C580 1.282 . S
C571 O572 1.261 . S
C571 O584 1.251 . S
O572 C571 1.261 . S
H573 C567 0.930 . S
H574 C569 0.930 . S
N575 Cu564 1.985 . S
N575 C577 1.335 . S
N575 C578 1.390 . S
N576 C577 1.345 . S
N576 C579 1.336 . S
C577 N575 1.335 . S
C577 N576 1.345 . S
C577 H582 0.930 . S
C578 N575 1.390 . S
C578 C579 1.346 . S
C578 H583 0.930 . S
C579 N576 1.336 . S
C579 C578 1.346 . S
C579 H586 0.929 . S
C580 O570 1.282 . S
C580 O581 1.216 . S
O581 C580 1.216 . S
H582 C577 0.930 . S
H583 C578 0.930 . S
O584 Cu564 1.959 . S
O584 C571 1.251 . S
H585 C568 0.930 . S
H586 C579 0.929 . S
Cu587 N588 1.999 . S
Cu587 O593 1.974 . S
Cu587 N598 1.985 . S
Cu587 O607 1.959 . S
N588 Cu587 1.999 . S
N588 C590 1.263 . S
N588 C592 1.389 . S
N589 C590 1.358 . S
N589 C591 1.400 . S
C590 N588 1.263 . S
C590 N589 1.358 . S
C590 H596 0.930 . S
C591 N589 1.400 . S
C591 C592 1.351 . S
C591 H608 0.930 . S
C592 N588 1.389 . S
C592 C591 1.351 . S
C592 H597 0.930 . S
O593 Cu587 1.974 . S
O593 C603 1.282 . S
C594 O595 1.261 . S
C594 O607 1.251 . S
O595 C594 1.261 . S
H596 C590 0.930 . S
H597 C592 0.930 . S
N598 Cu587 1.985 . S
N598 C600 1.335 . S
N598 C601 1.390 . S
N599 C600 1.345 . S
N599 C602 1.336 . S
C600 N598 1.335 . S
C600 N599 1.345 . S
C600 H605 0.930 . S
C601 N598 1.390 . S
C601 C602 1.346 . S
C601 H606 0.930 . S
C602 N599 1.336 . S
C602 C601 1.346 . S
C602 H609 0.929 . S
C603 O593 1.282 . S
C603 O604 1.216 . S
O604 C603 1.216 . S
H605 C600 0.930 . S
H606 C601 0.930 . S
O607 Cu587 1.959 . S
O607 C594 1.251 . S
H608 C591 0.930 . S
H609 C602 0.929 . S
Cu610 N611 1.999 . S
Cu610 O616 1.974 . S
Cu610 N621 1.985 . S
Cu610 O630 1.959 . S
N611 Cu610 1.999 . S
N611 C613 1.263 . S
N611 C615 1.389 . S
N612 C613 1.358 . S
N612 C614 1.400 . S
C613 N611 1.263 . S
C613 N612 1.358 . S
C613 H619 0.930 . S
C614 N612 1.400 . S
C614 C615 1.351 . S
C614 H631 0.930 . S
C615 N611 1.389 . S
C615 C614 1.351 . S
C615 H620 0.930 . S
O616 Cu610 1.974 . S
O616 C626 1.282 . S
C617 O618 1.261 . S
C617 O630 1.251 . S
O618 C617 1.261 . S
H619 C613 0.930 . S
H620 C615 0.930 . S
N621 Cu610 1.985 . S
N621 C623 1.335 . S
N621 C624 1.390 . S
N622 C623 1.345 . S
N622 C625 1.336 . S
C623 N621 1.335 . S
C623 N622 1.345 . S
C623 H628 0.930 . S
C624 N621 1.390 . S
C624 C625 1.346 . S
C624 H629 0.930 . S
C625 N622 1.336 . S
C625 C624 1.346 . S
C625 H632 0.929 . S
C626 O616 1.282 . S
C626 O627 1.216 . S
O627 C626 1.216 . S
H628 C623 0.930 . S
H629 C624 0.930 . S
O630 Cu610 1.959 . S
O630 C617 1.251 . S
H631 C614 0.930 . S
H632 C625 0.929 . S
Cu633 N634 1.999 . S
Cu633 O639 1.974 . S
Cu633 N644 1.985 . S
Cu633 O653 1.959 . S
N634 Cu633 1.999 . S
N634 C636 1.263 . S
N634 C638 1.389 . S
N635 C636 1.358 . S
N635 C637 1.400 . S
C636 N634 1.263 . S
C636 N635 1.358 . S
C636 H642 0.930 . S
C637 N635 1.400 . S
C637 C638 1.351 . S
C637 H654 0.930 . S
C638 N634 1.389 . S
C638 C637 1.351 . S
C638 H643 0.930 . S
O639 Cu633 1.974 . S
O639 C649 1.282 . S
C640 O641 1.261 . S
C640 O653 1.251 . S
O641 C640 1.261 . S
H642 C636 0.930 . S
H643 C638 0.930 . S
N644 Cu633 1.985 . S
N644 C646 1.335 . S
N644 C647 1.390 . S
N645 C646 1.345 . S
N645 C648 1.336 . S
C646 N644 1.335 . S
C646 N645 1.345 . S
C646 H651 0.930 . S
C647 N644 1.390 . S
C647 C648 1.346 . S
C647 H652 0.930 . S
C648 N645 1.336 . S
C648 C647 1.346 . S
C648 H655 0.929 . S
C649 O639 1.282 . S
C649 O650 1.216 . S
O650 C649 1.216 . S
H651 C646 0.930 . S
H652 C647 0.930 . S
O653 Cu633 1.959 . S
O653 C640 1.251 . S
H654 C637 0.930 . S
H655 C648 0.929 . S
Cu656 N657 1.999 . S
Cu656 O662 1.974 . S
Cu656 N667 1.985 . S
Cu656 O676 1.959 . S
N657 Cu656 1.999 . S
N657 C659 1.263 . S
N657 C661 1.389 . S
N658 C659 1.358 . S
N658 C660 1.400 . S
C659 N657 1.263 . S
C659 N658 1.358 . S
C659 H665 0.930 . S
C660 N658 1.400 . S
C660 C661 1.351 . S
C660 H677 0.930 . S
C661 N657 1.389 . S
C661 C660 1.351 . S
C661 H666 0.930 . S
O662 Cu656 1.974 . S
O662 C672 1.282 . S
C663 O664 1.261 . S
C663 O676 1.251 . S
O664 C663 1.261 . S
H665 C659 0.930 . S
H666 C661 0.930 . S
N667 Cu656 1.985 . S
N667 C669 1.335 . S
N667 C670 1.390 . S
N668 C669 1.345 . S
N668 C671 1.336 . S
C669 N667 1.335 . S
C669 N668 1.345 . S
C669 H674 0.930 . S
C670 N667 1.390 . S
C670 C671 1.346 . S
C670 H675 0.930 . S
C671 N668 1.336 . S
C671 C670 1.346 . S
C671 H678 0.929 . S
C672 O662 1.282 . S
C672 O673 1.216 . S
O673 C672 1.216 . S
H674 C669 0.930 . S
H675 C670 0.930 . S
O676 Cu656 1.959 . S
O676 C663 1.251 . S
H677 C660 0.930 . S
H678 C671 0.929 . S
Cu679 N680 1.999 . S
Cu679 O685 1.974 . S
Cu679 N690 1.985 . S
Cu679 O699 1.959 . S
N680 Cu679 1.999 . S
N680 C682 1.263 . S
N680 C684 1.389 . S
N681 C682 1.358 . S
N681 C683 1.400 . S
C682 N680 1.263 . S
C682 N681 1.358 . S
C682 H688 0.930 . S
C683 N681 1.400 . S
C683 C684 1.351 . S
C683 H700 0.930 . S
C684 N680 1.389 . S
C684 C683 1.351 . S
C684 H689 0.930 . S
O685 Cu679 1.974 . S
O685 C695 1.282 . S
C686 O687 1.261 . S
C686 O699 1.251 . S
O687 C686 1.261 . S
H688 C682 0.930 . S
H689 C684 0.930 . S
N690 Cu679 1.985 . S
N690 C692 1.335 . S
N690 C693 1.390 . S
N691 C692 1.345 . S
N691 C694 1.336 . S
C692 N690 1.335 . S
C692 N691 1.345 . S
C692 H697 0.930 . S
C693 N690 1.390 . S
C693 C694 1.346 . S
C693 H698 0.930 . S
C694 N691 1.336 . S
C694 C693 1.346 . S
C694 H701 0.929 . S
C695 O685 1.282 . S
C695 O696 1.216 . S
O696 C695 1.216 . S
H697 C692 0.930 . S
H698 C693 0.930 . S
O699 Cu679 1.959 . S
O699 C686 1.251 . S
H700 C683 0.930 . S
H701 C694 0.929 . S
Cu702 N703 1.999 . S
Cu702 O708 1.974 . S
Cu702 N713 1.985 . S
Cu702 O722 1.959 . S
N703 Cu702 1.999 . S
N703 C705 1.263 . S
N703 C707 1.389 . S
N704 C705 1.358 . S
N704 C706 1.400 . S
C705 N703 1.263 . S
C705 N704 1.358 . S
C705 H711 0.930 . S
C706 N704 1.400 . S
C706 C707 1.351 . S
C706 H723 0.930 . S
C707 N703 1.389 . S
C707 C706 1.351 . S
C707 H712 0.930 . S
O708 Cu702 1.974 . S
O708 C718 1.282 . S
C709 O710 1.261 . S
C709 O722 1.251 . S
O710 C709 1.261 . S
H711 C705 0.930 . S
H712 C707 0.930 . S
N713 Cu702 1.985 . S
N713 C715 1.335 . S
N713 C716 1.390 . S
N714 C715 1.345 . S
N714 C717 1.336 . S
C715 N713 1.335 . S
C715 N714 1.345 . S
C715 H720 0.930 . S
C716 N713 1.390 . S
C716 C717 1.346 . S
C716 H721 0.930 . S
C717 N714 1.336 . S
C717 C716 1.346 . S
C717 H724 0.929 . S
C718 O708 1.282 . S
C718 O719 1.216 . S
O719 C718 1.216 . S
H720 C715 0.930 . S
H721 C716 0.930 . S
O722 Cu702 1.959 . S
O722 C709 1.251 . S
H723 C706 0.930 . S
H724 C717 0.929 . S
Cu725 N726 1.999 . S
Cu725 O731 1.974 . S
Cu725 N736 1.985 . S
Cu725 O745 1.959 . S
N726 Cu725 1.999 . S
N726 C728 1.263 . S
N726 C730 1.389 . S
N727 C728 1.358 . S
N727 C729 1.400 . S
C728 N726 1.263 . S
C728 N727 1.358 . S
C728 H734 0.930 . S
C729 N727 1.400 . S
C729 C730 1.351 . S
C729 H746 0.930 . S
C730 N726 1.389 . S
C730 C729 1.351 . S
C730 H735 0.930 . S
O731 Cu725 1.974 . S
O731 C741 1.282 . S
C732 O733 1.261 . S
C732 O745 1.251 . S
O733 C732 1.261 . S
H734 C728 0.930 . S
H735 C730 0.930 . S
N736 Cu725 1.985 . S
N736 C738 1.335 . S
N736 C739 1.390 . S
N737 C738 1.345 . S
N737 C740 1.336 . S
C738 N736 1.335 . S
C738 N737 1.345 . S
C738 H743 0.930 . S
C739 N736 1.390 . S
C739 C740 1.346 . S
C739 H744 0.930 . S
C740 N737 1.336 . S
C740 C739 1.346 . S
C740 H747 0.929 . S
C741 O731 1.282 . S
C741 O742 1.216 . S
O742 C741 1.216 . S
H743 C738 0.930 . S
H744 C739 0.930 . S
O745 Cu725 1.959 . S
O745 C732 1.251 . S
H746 C729 0.930 . S
H747 C740 0.929 . S
Cu748 N749 1.999 . S
Cu748 O754 1.974 . S
Cu748 N759 1.985 . S
Cu748 O768 1.959 . S
N749 Cu748 1.999 . S
N749 C751 1.263 . S
N749 C753 1.389 . S
N750 C751 1.358 . S
N750 C752 1.400 . S
C751 N749 1.263 . S
C751 N750 1.358 . S
C751 H757 0.930 . S
C752 N750 1.400 . S
C752 C753 1.351 . S
C752 H769 0.930 . S
C753 N749 1.389 . S
C753 C752 1.351 . S
C753 H758 0.930 . S
O754 Cu748 1.974 . S
O754 C764 1.282 . S
C755 O756 1.261 . S
C755 O768 1.251 . S
O756 C755 1.261 . S
H757 C751 0.930 . S
H758 C753 0.930 . S
N759 Cu748 1.985 . S
N759 C761 1.335 . S
N759 C762 1.390 . S
N760 C761 1.345 . S
N760 C763 1.336 . S
C761 N759 1.335 . S
C761 N760 1.345 . S
C761 H766 0.930 . S
C762 N759 1.390 . S
C762 C763 1.346 . S
C762 H767 0.930 . S
C763 N760 1.336 . S
C763 C762 1.346 . S
C763 H770 0.929 . S
C764 O754 1.282 . S
C764 O765 1.216 . S
O765 C764 1.216 . S
H766 C761 0.930 . S
H767 C762 0.930 . S
O768 Cu748 1.959 . S
O768 C755 1.251 . S
H769 C752 0.930 . S
H770 C763 0.929 . S
Cu771 N772 1.999 . S
Cu771 O777 1.974 . S
Cu771 N782 1.985 . S
Cu771 O791 1.959 . S
N772 Cu771 1.999 . S
N772 C774 1.263 . S
N772 C776 1.389 . S
N773 C774 1.358 . S
N773 C775 1.400 . S
C774 N772 1.263 . S
C774 N773 1.358 . S
C774 H780 0.930 . S
C775 N773 1.400 . S
C775 C776 1.351 . S
C775 H792 0.930 . S
C776 N772 1.389 . S
C776 C775 1.351 . S
C776 H781 0.930 . S
O777 Cu771 1.974 . S
O777 C787 1.282 . S
C778 O779 1.261 . S
C778 O791 1.251 . S
O779 C778 1.261 . S
H780 C774 0.930 . S
H781 C776 0.930 . S
N782 Cu771 1.985 . S
N782 C784 1.335 . S
N782 C785 1.390 . S
N783 C784 1.345 . S
N783 C786 1.336 . S
C784 N782 1.335 . S
C784 N783 1.345 . S
C784 H789 0.930 . S
C785 N782 1.390 . S
C785 C786 1.346 . S
C785 H790 0.930 . S
C786 N783 1.336 . S
C786 C785 1.346 . S
C786 H793 0.929 . S
C787 O777 1.282 . S
C787 O788 1.216 . S
O788 C787 1.216 . S
H789 C784 0.930 . S
H790 C785 0.930 . S
O791 Cu771 1.959 . S
O791 C778 1.251 . S
H792 C775 0.930 . S
H793 C786 0.929 . S
Cu794 N795 1.999 . S
Cu794 O800 1.974 . S
Cu794 N805 1.985 . S
Cu794 O814 1.959 . S
N795 Cu794 1.999 . S
N795 C797 1.263 . S
N795 C799 1.389 . S
N796 C797 1.358 . S
N796 C798 1.400 . S
C797 N795 1.263 . S
C797 N796 1.358 . S
C797 H803 0.930 . S
C798 N796 1.400 . S
C798 C799 1.351 . S
C798 H815 0.930 . S
C799 N795 1.389 . S
C799 C798 1.351 . S
C799 H804 0.930 . S
O800 Cu794 1.974 . S
O800 C810 1.282 . S
C801 O802 1.261 . S
C801 O814 1.251 . S
O802 C801 1.261 . S
H803 C797 0.930 . S
H804 C799 0.930 . S
N805 Cu794 1.985 . S
N805 C807 1.335 . S
N805 C808 1.390 . S
N806 C807 1.345 . S
N806 C809 1.336 . S
C807 N805 1.335 . S
C807 N806 1.345 . S
C807 H812 0.930 . S
C808 N805 1.390 . S
C808 C809 1.346 . S
C808 H813 0.930 . S
C809 N806 1.336 . S
C809 C808 1.346 . S
C809 H816 0.929 . S
C810 O800 1.282 . S
C810 O811 1.216 . S
O811 C810 1.216 . S
H812 C807 0.930 . S
H813 C808 0.930 . S
O814 Cu794 1.959 . S
O814 C801 1.251 . S
H815 C798 0.930 . S
H816 C809 0.929 . S
Cu817 N818 1.999 . S
Cu817 O823 1.974 . S
Cu817 N828 1.985 . S
Cu817 O837 1.959 . S
N818 Cu817 1.999 . S
N818 C820 1.263 . S
N818 C822 1.389 . S
N819 C820 1.358 . S
N819 C821 1.400 . S
C820 N818 1.263 . S
C820 N819 1.358 . S
C820 H826 0.930 . S
C821 N819 1.400 . S
C821 C822 1.351 . S
C821 H838 0.930 . S
C822 N818 1.389 . S
C822 C821 1.351 . S
C822 H827 0.930 . S
O823 Cu817 1.974 . S
O823 C833 1.282 . S
C824 O825 1.261 . S
C824 O837 1.251 . S
O825 C824 1.261 . S
H826 C820 0.930 . S
H827 C822 0.930 . S
N828 Cu817 1.985 . S
N828 C830 1.335 . S
N828 C831 1.390 . S
N829 C830 1.345 . S
N829 C832 1.336 . S
C830 N828 1.335 . S
C830 N829 1.345 . S
C830 H835 0.930 . S
C831 N828 1.390 . S
C831 C832 1.346 . S
C831 H836 0.930 . S
C832 N829 1.336 . S
C832 C831 1.346 . S
C832 H839 0.929 . S
C833 O823 1.282 . S
C833 O834 1.216 . S
O834 C833 1.216 . S
H835 C830 0.930 . S
H836 C831 0.930 . S
O837 Cu817 1.959 . S
O837 C824 1.251 . S
H838 C821 0.930 . S
H839 C832 0.929 . S
H840 C848 0.929 . S
H841 C850 0.930 . S
H842 C852 0.930 . S
H843 C855 0.929 . S
H844 C858 0.930 . S
H845 C860 0.960 . S
H846 C860 0.960 . S
H847 C860 0.960 . S
C848 H840 0.929 . S
C848 C849 1.377 . S
C848 C850 1.384 . S
C849 C848 1.377 . S
C849 C855 1.390 . S
C850 H841 0.930 . S
C850 C848 1.384 . S
C850 C851 1.372 . S
C851 C850 1.372 . S
C851 C852 1.400 . S
C851 C856 1.490 . S
C852 H842 0.930 . S
C852 C851 1.400 . S
C852 C855 1.386 . S
H853 C869 0.930 . S
H854 C870 0.931 . S
C855 H843 0.929 . S
C855 C849 1.390 . S
C855 C852 1.386 . S
C856 C851 1.490 . S
C856 C858 1.395 . S
C856 C859 1.403 . S
H857 C863 0.930 . S
C858 H844 0.930 . S
C858 C856 1.395 . S
C858 C861 1.403 . S
C859 C856 1.403 . S
C859 C860 1.524 . S
C859 C863 1.400 . S
C860 H845 0.960 . S
C860 H846 0.960 . S
C860 H847 0.960 . S
C860 C859 1.524 . S
C861 C858 1.403 . S
C861 C862 1.392 . S
C861 C865 1.495 . S
C862 C861 1.392 . S
C862 C863 1.385 . S
C862 C864 1.478 . S
C863 H857 0.930 . S
C863 C859 1.400 . S
C863 C862 1.385 . S
C864 C862 1.478 . S
C864 C866 1.381 . S
C864 C870 1.383 . S
C865 C861 1.495 . S
C865 H871 0.959 . S
C865 H872 0.961 . S
C865 H873 0.960 . S
C866 C864 1.381 . S
C866 C867 1.394 . S
C866 H874 0.930 . S
C867 C866 1.394 . S
C867 C868 1.383 . S
C867 H875 0.929 . S
C868 C867 1.383 . S
C868 C869 1.377 . S
C869 H853 0.930 . S
C869 C868 1.377 . S
C869 C870 1.379 . S
C870 H854 0.931 . S
C870 C864 1.383 . S
C870 C869 1.379 . S
H871 C865 0.959 . S
H872 C865 0.961 . S
H873 C865 0.960 . S
H874 C866 0.930 . S
H875 C867 0.929 . S
H876 C884 0.929 . S
H877 C886 0.930 . S
H878 C888 0.930 . S
H879 C891 0.929 . S
H880 C894 0.930 . S
H881 C896 0.960 . S
H882 C896 0.960 . S
H883 C896 0.960 . S
C884 H876 0.929 . S
C884 C885 1.377 . S
C884 C886 1.384 . S
C885 C884 1.377 . S
C885 C891 1.390 . S
C886 H877 0.930 . S
C886 C884 1.384 . S
C886 C887 1.372 . S
C887 C886 1.372 . S
C887 C888 1.400 . S
C887 C892 1.490 . S
C888 H878 0.930 . S
C888 C887 1.400 . S
C888 C891 1.386 . S
H889 C905 0.930 . S
H890 C906 0.931 . S
C891 H879 0.929 . S
C891 C885 1.390 . S
C891 C888 1.386 . S
C892 C887 1.490 . S
C892 C894 1.395 . S
C892 C895 1.403 . S
H893 C899 0.930 . S
C894 H880 0.930 . S
C894 C892 1.395 . S
C894 C897 1.403 . S
C895 C892 1.403 . S
C895 C896 1.524 . S
C895 C899 1.400 . S
C896 H881 0.960 . S
C896 H882 0.960 . S
C896 H883 0.960 . S
C896 C895 1.524 . S
C897 C894 1.403 . S
C897 C898 1.392 . S
C897 C901 1.495 . S
C898 C897 1.392 . S
C898 C899 1.385 . S
C898 C900 1.478 . S
C899 H893 0.930 . S
C899 C895 1.400 . S
C899 C898 1.385 . S
C900 C898 1.478 . S
C900 C902 1.381 . S
C900 C906 1.383 . S
C901 C897 1.495 . S
C901 H907 0.959 . S
C901 H908 0.961 . S
C901 H909 0.960 . S
C902 C900 1.381 . S
C902 C903 1.394 . S
C902 H910 0.930 . S
C903 C902 1.394 . S
C903 C904 1.383 . S
C903 H911 0.929 . S
C904 C903 1.383 . S
C904 C905 1.377 . S
C905 H889 0.930 . S
C905 C904 1.377 . S
C905 C906 1.379 . S
C906 H890 0.931 . S
C906 C900 1.383 . S
C906 C905 1.379 . S
H907 C901 0.959 . S
H908 C901 0.961 . S
H909 C901 0.960 . S
H910 C902 0.930 . S
H911 C903 0.929 . S
H912 C920 0.929 . S
H913 C922 0.930 . S
H914 C924 0.930 . S
H915 C927 0.929 . S
H916 C930 0.930 . S
H917 C932 0.960 . S
H918 C932 0.960 . S
H919 C932 0.960 . S
C920 H912 0.929 . S
C920 C921 1.377 . S
C920 C922 1.384 . S
C921 C920 1.377 . S
C921 C927 1.390 . S
C922 H913 0.930 . S
C922 C920 1.384 . S
C922 C923 1.372 . S
C923 C922 1.372 . S
C923 C924 1.400 . S
C923 C928 1.490 . S
C924 H914 0.930 . S
C924 C923 1.400 . S
C924 C927 1.386 . S
H925 C941 0.930 . S
H926 C942 0.931 . S
C927 H915 0.929 . S
C927 C921 1.390 . S
C927 C924 1.386 . S
C928 C923 1.490 . S
C928 C930 1.395 . S
C928 C931 1.403 . S
H929 C935 0.930 . S
C930 H916 0.930 . S
C930 C928 1.395 . S
C930 C933 1.403 . S
C931 C928 1.403 . S
C931 C932 1.524 . S
C931 C935 1.400 . S
C932 H917 0.960 . S
C932 H918 0.960 . S
C932 H919 0.960 . S
C932 C931 1.524 . S
C933 C930 1.403 . S
C933 C934 1.392 . S
C933 C937 1.495 . S
C934 C933 1.392 . S
C934 C935 1.385 . S
C934 C936 1.478 . S
C935 H929 0.930 . S
C935 C931 1.400 . S
C935 C934 1.385 . S
C936 C934 1.478 . S
C936 C938 1.381 . S
C936 C942 1.383 . S
C937 C933 1.495 . S
C937 H943 0.959 . S
C937 H944 0.961 . S
C937 H945 0.960 . S
C938 C936 1.381 . S
C938 C939 1.394 . S
C938 H946 0.930 . S
C939 C938 1.394 . S
C939 C940 1.383 . S
C939 H947 0.929 . S
C940 C939 1.383 . S
C940 C941 1.377 . S
C941 H925 0.930 . S
C941 C940 1.377 . S
C941 C942 1.379 . S
C942 H926 0.931 . S
C942 C936 1.383 . S
C942 C941 1.379 . S
H943 C937 0.959 . S
H944 C937 0.961 . S
H945 C937 0.960 . S
H946 C938 0.930 . S
H947 C939 0.929 . S
H948 C956 0.929 . S
H949 C958 0.930 . S
H950 C960 0.930 . S
H951 C963 0.929 . S
H952 C966 0.930 . S
H953 C968 0.960 . S
H954 C968 0.960 . S
H955 C968 0.960 . S
C956 H948 0.929 . S
C956 C957 1.377 . S
C956 C958 1.384 . S
C957 C956 1.377 . S
C957 C963 1.390 . S
C958 H949 0.930 . S
C958 C956 1.384 . S
C958 C959 1.372 . S
C959 C958 1.372 . S
C959 C960 1.400 . S
C959 C964 1.490 . S
C960 H950 0.930 . S
C960 C959 1.400 . S
C960 C963 1.386 . S
H961 C977 0.930 . S
H962 C978 0.931 . S
C963 H951 0.929 . S
C963 C957 1.390 . S
C963 C960 1.386 . S
C964 C959 1.490 . S
C964 C966 1.395 . S
C964 C967 1.403 . S
H965 C971 0.930 . S
C966 H952 0.930 . S
C966 C964 1.395 . S
C966 C969 1.403 . S
C967 C964 1.403 . S
C967 C968 1.524 . S
C967 C971 1.400 . S
C968 H953 0.960 . S
C968 H954 0.960 . S
C968 H955 0.960 . S
C968 C967 1.524 . S
C969 C966 1.403 . S
C969 C970 1.392 . S
C969 C973 1.495 . S
C970 C969 1.392 . S
C970 C971 1.385 . S
C970 C972 1.478 . S
C971 H965 0.930 . S
C971 C967 1.400 . S
C971 C970 1.385 . S
C972 C970 1.478 . S
C972 C974 1.381 . S
C972 C978 1.383 . S
C973 C969 1.495 . S
C973 H979 0.959 . S
C973 H980 0.961 . S
C973 H981 0.960 . S
C974 C972 1.381 . S
C974 C975 1.394 . S
C974 H982 0.930 . S
C975 C974 1.394 . S
C975 C976 1.383 . S
C975 H983 0.929 . S
C976 C975 1.383 . S
C976 C977 1.377 . S
C977 H961 0.930 . S
C977 C976 1.377 . S
C977 C978 1.379 . S
C978 H962 0.931 . S
C978 C972 1.383 . S
C978 C977 1.379 . S
H979 C973 0.959 . S
H980 C973 0.961 . S
H981 C973 0.960 . S
H982 C974 0.930 . S
H983 C975 0.929 . S
H984 C992 0.929 . S
H985 C994 0.930 . S
H986 C996 0.930 . S
H987 C999 0.929 . S
H988 C1002 0.930 . S
H989 C1004 0.960 . S
H990 C1004 0.960 . S
H991 C1004 0.960 . S
C992 H984 0.929 . S
C992 C993 1.377 . S
C992 C994 1.384 . S
C993 C992 1.377 . S
C993 C999 1.390 . S
C994 H985 0.930 . S
C994 C992 1.384 . S
C994 C995 1.372 . S
C995 C994 1.372 . S
C995 C996 1.400 . S
C995 C1000 1.490 . S
C996 H986 0.930 . S
C996 C995 1.400 . S
C996 C999 1.386 . S
H997 C1013 0.930 . S
H998 C1014 0.931 . S
C999 H987 0.929 . S
C999 C993 1.390 . S
C999 C996 1.386 . S
C1000 C995 1.490 . S
C1000 C1002 1.395 . S
C1000 C1003 1.403 . S
H1001 C1007 0.930 . S
C1002 H988 0.930 . S
C1002 C1000 1.395 . S
C1002 C1005 1.403 . S
C1003 C1000 1.403 . S
C1003 C1004 1.524 . S
C1003 C1007 1.400 . S
C1004 H989 0.960 . S
C1004 H990 0.960 . S
C1004 H991 0.960 . S
C1004 C1003 1.524 . S
C1005 C1002 1.403 . S
C1005 C1006 1.392 . S
C1005 C1009 1.495 . S
C1006 C1005 1.392 . S
C1006 C1007 1.385 . S
C1006 C1008 1.478 . S
C1007 H1001 0.930 . S
C1007 C1003 1.400 . S
C1007 C1006 1.385 . S
C1008 C1006 1.478 . S
C1008 C1010 1.381 . S
C1008 C1014 1.383 . S
C1009 C1005 1.495 . S
C1009 H1015 0.959 . S
C1009 H1016 0.961 . S
C1009 H1017 0.960 . S
C1010 C1008 1.381 . S
C1010 C1011 1.394 . S
C1010 H1018 0.930 . S
C1011 C1010 1.394 . S
C1011 C1012 1.383 . S
C1011 H1019 0.929 . S
C1012 C1011 1.383 . S
C1012 C1013 1.377 . S
C1013 H997 0.930 . S
C1013 C1012 1.377 . S
C1013 C1014 1.379 . S
C1014 H998 0.931 . S
C1014 C1008 1.383 . S
C1014 C1013 1.379 . S
H1015 C1009 0.959 . S
H1016 C1009 0.961 . S
H1017 C1009 0.960 . S
H1018 C1010 0.930 . S
H1019 C1011 0.929 . S
H1020 C1028 0.929 . S
H1021 C1030 0.930 . S
H1022 C1032 0.930 . S
H1023 C1035 0.929 . S
H1024 C1038 0.930 . S
H1025 C1040 0.960 . S
H1026 C1040 0.960 . S
H1027 C1040 0.960 . S
C1028 H1020 0.929 . S
C1028 C1029 1.377 . S
C1028 C1030 1.384 . S
C1029 C1028 1.377 . S
C1029 C1035 1.390 . S
C1030 H1021 0.930 . S
C1030 C1028 1.384 . S
C1030 C1031 1.372 . S
C1031 C1030 1.372 . S
C1031 C1032 1.400 . S
C1031 C1036 1.490 . S
C1032 H1022 0.930 . S
C1032 C1031 1.400 . S
C1032 C1035 1.386 . S
H1033 C1049 0.930 . S
H1034 C1050 0.931 . S
C1035 H1023 0.929 . S
C1035 C1029 1.390 . S
C1035 C1032 1.386 . S
C1036 C1031 1.490 . S
C1036 C1038 1.395 . S
C1036 C1039 1.403 . S
H1037 C1043 0.930 . S
C1038 H1024 0.930 . S
C1038 C1036 1.395 . S
C1038 C1041 1.403 . S
C1039 C1036 1.403 . S
C1039 C1040 1.524 . S
C1039 C1043 1.400 . S
C1040 H1025 0.960 . S
C1040 H1026 0.960 . S
C1040 H1027 0.960 . S
C1040 C1039 1.524 . S
C1041 C1038 1.403 . S
C1041 C1042 1.392 . S
C1041 C1045 1.495 . S
C1042 C1041 1.392 . S
C1042 C1043 1.385 . S
C1042 C1044 1.478 . S
C1043 H1037 0.930 . S
C1043 C1039 1.400 . S
C1043 C1042 1.385 . S
C1044 C1042 1.478 . S
C1044 C1046 1.381 . S
C1044 C1050 1.383 . S
C1045 C1041 1.495 . S
C1045 H1051 0.959 . S
C1045 H1052 0.961 . S
C1045 H1053 0.960 . S
C1046 C1044 1.381 . S
C1046 C1047 1.394 . S
C1046 H1054 0.930 . S
C1047 C1046 1.394 . S
C1047 C1048 1.383 . S
C1047 H1055 0.929 . S
C1048 C1047 1.383 . S
C1048 C1049 1.377 . S
C1049 H1033 0.930 . S
C1049 C1048 1.377 . S
C1049 C1050 1.379 . S
C1050 H1034 0.931 . S
C1050 C1044 1.383 . S
C1050 C1049 1.379 . S
H1051 C1045 0.959 . S
H1052 C1045 0.961 . S
H1053 C1045 0.960 . S
H1054 C1046 0.930 . S
H1055 C1047 0.929 . S
H1056 C1064 0.929 . S
H1057 C1066 0.930 . S
H1058 C1068 0.930 . S
H1059 C1071 0.929 . S
H1060 C1074 0.930 . S
H1061 C1076 0.960 . S
H1062 C1076 0.960 . S
H1063 C1076 0.960 . S
C1064 H1056 0.929 . S
C1064 C1065 1.377 . S
C1064 C1066 1.384 . S
C1065 C1064 1.377 . S
C1065 C1071 1.390 . S
C1066 H1057 0.930 . S
C1066 C1064 1.384 . S
C1066 C1067 1.372 . S
C1067 C1066 1.372 . S
C1067 C1068 1.400 . S
C1067 C1072 1.490 . S
C1068 H1058 0.930 . S
C1068 C1067 1.400 . S
C1068 C1071 1.386 . S
H1069 C1085 0.930 . S
H1070 C1086 0.931 . S
C1071 H1059 0.929 . S
C1071 C1065 1.390 . S
C1071 C1068 1.386 . S
C1072 C1067 1.490 . S
C1072 C1074 1.395 . S
C1072 C1075 1.403 . S
H1073 C1079 0.930 . S
C1074 H1060 0.930 . S
C1074 C1072 1.395 . S
C1074 C1077 1.403 . S
C1075 C1072 1.403 . S
C1075 C1076 1.524 . S
C1075 C1079 1.400 . S
C1076 H1061 0.960 . S
C1076 H1062 0.960 . S
C1076 H1063 0.960 . S
C1076 C1075 1.524 . S
C1077 C1074 1.403 . S
C1077 C1078 1.392 . S
C1077 C1081 1.495 . S
C1078 C1077 1.392 . S
C1078 C1079 1.385 . S
C1078 C1080 1.478 . S
C1079 H1073 0.930 . S
C1079 C1075 1.400 . S
C1079 C1078 1.385 . S
C1080 C1078 1.478 . S
C1080 C1082 1.381 . S
C1080 C1086 1.383 . S
C1081 C1077 1.495 . S
C1081 H1087 0.959 . S
C1081 H1088 0.961 . S
C1081 H1089 0.960 . S
C1082 C1080 1.381 . S
C1082 C1083 1.394 . S
C1082 H1090 0.930 . S
C1083 C1082 1.394 . S
C1083 C1084 1.383 . S
C1083 H1091 0.929 . S
C1084 C1083 1.383 . S
C1084 C1085 1.377 . S
C1085 H1069 0.930 . S
C1085 C1084 1.377 . S
C1085 C1086 1.379 . S
C1086 H1070 0.931 . S
C1086 C1080 1.383 . S
C1086 C1085 1.379 . S
H1087 C1081 0.959 . S
H1088 C1081 0.961 . S
H1089 C1081 0.960 . S
H1090 C1082 0.930 . S
H1091 C1083 0.929 . S
H1092 C1100 0.929 . S
H1093 C1102 0.930 . S
H1094 C1104 0.930 . S
H1095 C1107 0.929 . S
H1096 C1110 0.930 . S
H1097 C1112 0.960 . S
H1098 C1112 0.960 . S
H1099 C1112 0.960 . S
C1100 H1092 0.929 . S
C1100 C1101 1.377 . S
C1100 C1102 1.384 . S
C1101 C1100 1.377 . S
C1101 C1107 1.390 . S
C1102 H1093 0.930 . S
C1102 C1100 1.384 . S
C1102 C1103 1.372 . S
C1103 C1102 1.372 . S
C1103 C1104 1.400 . S
C1103 C1108 1.490 . S
C1104 H1094 0.930 . S
C1104 C1103 1.400 . S
C1104 C1107 1.386 . S
H1105 C1121 0.930 . S
H1106 C1122 0.931 . S
C1107 H1095 0.929 . S
C1107 C1101 1.390 . S
C1107 C1104 1.386 . S
C1108 C1103 1.490 . S
C1108 C1110 1.395 . S
C1108 C1111 1.403 . S
H1109 C1115 0.930 . S
C1110 H1096 0.930 . S
C1110 C1108 1.395 . S
C1110 C1113 1.403 . S
C1111 C1108 1.403 . S
C1111 C1112 1.524 . S
C1111 C1115 1.400 . S
C1112 H1097 0.960 . S
C1112 H1098 0.960 . S
C1112 H1099 0.960 . S
C1112 C1111 1.524 . S
C1113 C1110 1.403 . S
C1113 C1114 1.392 . S
C1113 C1117 1.495 . S
C1114 C1113 1.392 . S
C1114 C1115 1.385 . S
C1114 C1116 1.478 . S
C1115 H1109 0.930 . S
C1115 C1111 1.400 . S
C1115 C1114 1.385 . S
C1116 C1114 1.478 . S
C1116 C1118 1.381 . S
C1116 C1122 1.383 . S
C1117 C1113 1.495 . S
C1117 H1123 0.959 . S
C1117 H1124 0.961 . S
C1117 H1125 0.960 . S
C1118 C1116 1.381 . S
C1118 C1119 1.394 . S
C1118 H1126 0.930 . S
C1119 C1118 1.394 . S
C1119 C1120 1.383 . S
C1119 H1127 0.929 . S
C1120 C1119 1.383 . S
C1120 C1121 1.377 . S
C1121 H1105 0.930 . S
C1121 C1120 1.377 . S
C1121 C1122 1.379 . S
C1122 H1106 0.931 . S
C1122 C1116 1.383 . S
C1122 C1121 1.379 . S
H1123 C1117 0.959 . S
H1124 C1117 0.961 . S
H1125 C1117 0.960 . S
H1126 C1118 0.930 . S
H1127 C1119 0.929 . S
H1128 C1136 0.929 . S
H1129 C1138 0.930 . S
H1130 C1140 0.930 . S
H1131 C1143 0.929 . S
H1132 C1146 0.930 . S
H1133 C1148 0.960 . S
H1134 C1148 0.960 . S
H1135 C1148 0.960 . S
C1136 H1128 0.929 . S
C1136 C1137 1.377 . S
C1136 C1138 1.384 . S
C1137 C1136 1.377 . S
C1137 C1143 1.390 . S
C1138 H1129 0.930 . S
C1138 C1136 1.384 . S
C1138 C1139 1.372 . S
C1139 C1138 1.372 . S
C1139 C1140 1.400 . S
C1139 C1144 1.490 . S
C1140 H1130 0.930 . S
C1140 C1139 1.400 . S
C1140 C1143 1.386 . S
H1141 C1157 0.930 . S
H1142 C1158 0.931 . S
C1143 H1131 0.929 . S
C1143 C1137 1.390 . S
C1143 C1140 1.386 . S
C1144 C1139 1.490 . S
C1144 C1146 1.395 . S
C1144 C1147 1.403 . S
H1145 C1151 0.930 . S
C1146 H1132 0.930 . S
C1146 C1144 1.395 . S
C1146 C1149 1.403 . S
C1147 C1144 1.403 . S
C1147 C1148 1.524 . S
C1147 C1151 1.400 . S
C1148 H1133 0.960 . S
C1148 H1134 0.960 . S
C1148 H1135 0.960 . S
C1148 C1147 1.524 . S
C1149 C1146 1.403 . S
C1149 C1150 1.392 . S
C1149 C1153 1.495 . S
C1150 C1149 1.392 . S
C1150 C1151 1.385 . S
C1150 C1152 1.478 . S
C1151 H1145 0.930 . S
C1151 C1147 1.400 . S
C1151 C1150 1.385 . S
C1152 C1150 1.478 . S
C1152 C1154 1.381 . S
C1152 C1158 1.383 . S
C1153 C1149 1.495 . S
C1153 H1159 0.959 . S
C1153 H1160 0.961 . S
C1153 H1161 0.960 . S
C1154 C1152 1.381 . S
C1154 C1155 1.394 . S
C1154 H1162 0.930 . S
C1155 C1154 1.394 . S
C1155 C1156 1.383 . S
C1155 H1163 0.929 . S
C1156 C1155 1.383 . S
C1156 C1157 1.377 . S
C1157 H1141 0.930 . S
C1157 C1156 1.377 . S
C1157 C1158 1.379 . S
C1158 H1142 0.931 . S
C1158 C1152 1.383 . S
C1158 C1157 1.379 . S
H1159 C1153 0.959 . S
H1160 C1153 0.961 . S
H1161 C1153 0.960 . S
H1162 C1154 0.930 . S
H1163 C1155 0.929 . S
H1164 C1172 0.929 . S
H1165 C1174 0.930 . S
H1166 C1176 0.930 . S
H1167 C1179 0.929 . S
H1168 C1182 0.930 . S
H1169 C1184 0.960 . S
H1170 C1184 0.960 . S
H1171 C1184 0.960 . S
C1172 H1164 0.929 . S
C1172 C1173 1.377 . S
C1172 C1174 1.384 . S
C1173 C1172 1.377 . S
C1173 C1179 1.390 . S
C1174 H1165 0.930 . S
C1174 C1172 1.384 . S
C1174 C1175 1.372 . S
C1175 C1174 1.372 . S
C1175 C1176 1.400 . S
C1175 C1180 1.490 . S
C1176 H1166 0.930 . S
C1176 C1175 1.400 . S
C1176 C1179 1.386 . S
H1177 C1193 0.930 . S
H1178 C1194 0.931 . S
C1179 H1167 0.929 . S
C1179 C1173 1.390 . S
C1179 C1176 1.386 . S
C1180 C1175 1.490 . S
C1180 C1182 1.395 . S
C1180 C1183 1.403 . S
H1181 C1187 0.930 . S
C1182 H1168 0.930 . S
C1182 C1180 1.395 . S
C1182 C1185 1.403 . S
C1183 C1180 1.403 . S
C1183 C1184 1.524 . S
C1183 C1187 1.400 . S
C1184 H1169 0.960 . S
C1184 H1170 0.960 . S
C1184 H1171 0.960 . S
C1184 C1183 1.524 . S
C1185 C1182 1.403 . S
C1185 C1186 1.392 . S
C1185 C1189 1.495 . S
C1186 C1185 1.392 . S
C1186 C1187 1.385 . S
C1186 C1188 1.478 . S
C1187 H1181 0.930 . S
C1187 C1183 1.400 . S
C1187 C1186 1.385 . S
C1188 C1186 1.478 . S
C1188 C1190 1.381 . S
C1188 C1194 1.383 . S
C1189 C1185 1.495 . S
C1189 H1195 0.959 . S
C1189 H1196 0.961 . S
C1189 H1197 0.960 . S
C1190 C1188 1.381 . S
C1190 C1191 1.394 . S
C1190 H1198 0.930 . S
C1191 C1190 1.394 . S
C1191 C1192 1.383 . S
C1191 H1199 0.929 . S
C1192 C1191 1.383 . S
C1192 C1193 1.377 . S
C1193 H1177 0.930 . S
C1193 C1192 1.377 . S
C1193 C1194 1.379 . S
C1194 H1178 0.931 . S
C1194 C1188 1.383 . S
C1194 C1193 1.379 . S
H1195 C1189 0.959 . S
H1196 C1189 0.961 . S
H1197 C1189 0.960 . S
H1198 C1190 0.930 . S
H1199 C1191 0.929 . S
H1200 C1208 0.929 . S
H1201 C1210 0.930 . S
H1202 C1212 0.930 . S
H1203 C1215 0.929 . S
H1204 C1218 0.930 . S
H1205 C1220 0.960 . S
H1206 C1220 0.960 . S
H1207 C1220 0.960 . S
C1208 H1200 0.929 . S
C1208 C1209 1.377 . S
C1208 C1210 1.384 . S
C1209 C1208 1.377 . S
C1209 C1215 1.390 . S
C1210 H1201 0.930 . S
C1210 C1208 1.384 . S
C1210 C1211 1.372 . S
C1211 C1210 1.372 . S
C1211 C1212 1.400 . S
C1211 C1216 1.490 . S
C1212 H1202 0.930 . S
C1212 C1211 1.400 . S
C1212 C1215 1.386 . S
H1213 C1229 0.930 . S
H1214 C1230 0.931 . S
C1215 H1203 0.929 . S
C1215 C1209 1.390 . S
C1215 C1212 1.386 . S
C1216 C1211 1.490 . S
C1216 C1218 1.395 . S
C1216 C1219 1.403 . S
H1217 C1223 0.930 . S
C1218 H1204 0.930 . S
C1218 C1216 1.395 . S
C1218 C1221 1.403 . S
C1219 C1216 1.403 . S
C1219 C1220 1.524 . S
C1219 C1223 1.400 . S
C1220 H1205 0.960 . S
C1220 H1206 0.960 . S
C1220 H1207 0.960 . S
C1220 C1219 1.524 . S
C1221 C1218 1.403 . S
C1221 C1222 1.392 . S
C1221 C1225 1.495 . S
C1222 C1221 1.392 . S
C1222 C1223 1.385 . S
C1222 C1224 1.478 . S
C1223 H1217 0.930 . S
C1223 C1219 1.400 . S
C1223 C1222 1.385 . S
C1224 C1222 1.478 . S
C1224 C1226 1.381 . S
C1224 C1230 1.383 . S
C1225 C1221 1.495 . S
C1225 H1231 0.959 . S
C1225 H1232 0.961 . S
C1225 H1233 0.960 . S
C1226 C1224 1.381 . S
C1226 C1227 1.394 . S
C1226 H1234 0.930 . S
C1227 C1226 1.394 . S
C1227 C1228 1.383 . S
C1227 H1235 0.929 . S
C1228 C1227 1.383 . S
C1228 C1229 1.377 . S
C1229 H1213 0.930 . S
C1229 C1228 1.377 . S
C1229 C1230 1.379 . S
C1230 H1214 0.931 . S
C1230 C1224 1.383 . S
C1230 C1229 1.379 . S
H1231 C1225 0.959 . S
H1232 C1225 0.961 . S
H1233 C1225 0.960 . S
H1234 C1226 0.930 . S
H1235 C1227 0.929 . S
H1236 C1244 0.929 . S
H1237 C1246 0.930 . S
H1238 C1248 0.930 . S
H1239 C1251 0.929 . S
H1240 C1254 0.930 . S
H1241 C1256 0.960 . S
H1242 C1256 0.960 . S
H1243 C1256 0.960 . S
C1244 H1236 0.929 . S
C1244 C1245 1.377 . S
C1244 C1246 1.384 . S
C1245 C1244 1.377 . S
C1245 C1251 1.390 . S
C1246 H1237 0.930 . S
C1246 C1244 1.384 . S
C1246 C1247 1.372 . S
C1247 C1246 1.372 . S
C1247 C1248 1.400 . S
C1247 C1252 1.490 . S
C1248 H1238 0.930 . S
C1248 C1247 1.400 . S
C1248 C1251 1.386 . S
H1249 C1265 0.930 . S
H1250 C1266 0.931 . S
C1251 H1239 0.929 . S
C1251 C1245 1.390 . S
C1251 C1248 1.386 . S
C1252 C1247 1.490 . S
C1252 C1254 1.395 . S
C1252 C1255 1.403 . S
H1253 C1259 0.930 . S
C1254 H1240 0.930 . S
C1254 C1252 1.395 . S
C1254 C1257 1.403 . S
C1255 C1252 1.403 . S
C1255 C1256 1.524 . S
C1255 C1259 1.400 . S
C1256 H1241 0.960 . S
C1256 H1242 0.960 . S
C1256 H1243 0.960 . S
C1256 C1255 1.524 . S
C1257 C1254 1.403 . S
C1257 C1258 1.392 . S
C1257 C1261 1.495 . S
C1258 C1257 1.392 . S
C1258 C1259 1.385 . S
C1258 C1260 1.478 . S
C1259 H1253 0.930 . S
C1259 C1255 1.400 . S
C1259 C1258 1.385 . S
C1260 C1258 1.478 . S
C1260 C1262 1.381 . S
C1260 C1266 1.383 . S
C1261 C1257 1.495 . S
C1261 H1267 0.959 . S
C1261 H1268 0.961 . S
C1261 H1269 0.960 . S
C1262 C1260 1.381 . S
C1262 C1263 1.394 . S
C1262 H1270 0.930 . S
C1263 C1262 1.394 . S
C1263 C1264 1.383 . S
C1263 H1271 0.929 . S
C1264 C1263 1.383 . S
C1264 C1265 1.377 . S
C1265 H1249 0.930 . S
C1265 C1264 1.377 . S
C1265 C1266 1.379 . S
C1266 H1250 0.931 . S
C1266 C1260 1.383 . S
C1266 C1265 1.379 . S
H1267 C1261 0.959 . S
H1268 C1261 0.961 . S
H1269 C1261 0.960 . S
H1270 C1262 0.930 . S
H1271 C1263 0.929 . S
H1272 C1280 0.929 . S
H1273 C1282 0.930 . S
H1274 C1284 0.930 . S
H1275 C1287 0.929 . S
H1276 C1290 0.930 . S
H1277 C1292 0.960 . S
H1278 C1292 0.960 . S
H1279 C1292 0.960 . S
C1280 H1272 0.929 . S
C1280 C1281 1.377 . S
C1280 C1282 1.384 . S
C1281 C1280 1.377 . S
C1281 C1287 1.390 . S
C1282 H1273 0.930 . S
C1282 C1280 1.384 . S
C1282 C1283 1.372 . S
C1283 C1282 1.372 . S
C1283 C1284 1.400 . S
C1283 C1288 1.490 . S
C1284 H1274 0.930 . S
C1284 C1283 1.400 . S
C1284 C1287 1.386 . S
H1285 C1301 0.930 . S
H1286 C1302 0.931 . S
C1287 H1275 0.929 . S
C1287 C1281 1.390 . S
C1287 C1284 1.386 . S
C1288 C1283 1.490 . S
C1288 C1290 1.395 . S
C1288 C1291 1.403 . S
H1289 C1295 0.930 . S
C1290 H1276 0.930 . S
C1290 C1288 1.395 . S
C1290 C1293 1.403 . S
C1291 C1288 1.403 . S
C1291 C1292 1.524 . S
C1291 C1295 1.400 . S
C1292 H1277 0.960 . S
C1292 H1278 0.960 . S
C1292 H1279 0.960 . S
C1292 C1291 1.524 . S
C1293 C1290 1.403 . S
C1293 C1294 1.392 . S
C1293 C1297 1.495 . S
C1294 C1293 1.392 . S
C1294 C1295 1.385 . S
C1294 C1296 1.478 . S
C1295 H1289 0.930 . S
C1295 C1291 1.400 . S
C1295 C1294 1.385 . S
C1296 C1294 1.478 . S
C1296 C1298 1.381 . S
C1296 C1302 1.383 . S
C1297 C1293 1.495 . S
C1297 H1303 0.959 . S
C1297 H1304 0.961 . S
C1297 H1305 0.960 . S
C1298 C1296 1.381 . S
C1298 C1299 1.394 . S
C1298 H1306 0.930 . S
C1299 C1298 1.394 . S
C1299 C1300 1.383 . S
C1299 H1307 0.929 . S
C1300 C1299 1.383 . S
C1300 C1301 1.377 . S
C1301 H1285 0.930 . S
C1301 C1300 1.377 . S
C1301 C1302 1.379 . S
C1302 H1286 0.931 . S
C1302 C1296 1.383 . S
C1302 C1301 1.379 . S
H1303 C1297 0.959 . S
H1304 C1297 0.961 . S
H1305 C1297 0.960 . S
H1306 C1298 0.930 . S
H1307 C1299 0.929 . S
H1308 C1316 0.929 . S
H1309 C1318 0.930 . S
H1310 C1320 0.930 . S
H1311 C1323 0.929 . S
H1312 C1326 0.930 . S
H1313 C1328 0.960 . S
H1314 C1328 0.960 . S
H1315 C1328 0.960 . S
C1316 H1308 0.929 . S
C1316 C1317 1.377 . S
C1316 C1318 1.384 . S
C1317 C1316 1.377 . S
C1317 C1323 1.390 . S
C1318 H1309 0.930 . S
C1318 C1316 1.384 . S
C1318 C1319 1.372 . S
C1319 C1318 1.372 . S
C1319 C1320 1.400 . S
C1319 C1324 1.490 . S
C1320 H1310 0.930 . S
C1320 C1319 1.400 . S
C1320 C1323 1.386 . S
H1321 C1337 0.930 . S
H1322 C1338 0.931 . S
C1323 H1311 0.929 . S
C1323 C1317 1.390 . S
C1323 C1320 1.386 . S
C1324 C1319 1.490 . S
C1324 C1326 1.395 . S
C1324 C1327 1.403 . S
H1325 C1331 0.930 . S
C1326 H1312 0.930 . S
C1326 C1324 1.395 . S
C1326 C1329 1.403 . S
C1327 C1324 1.403 . S
C1327 C1328 1.524 . S
C1327 C1331 1.400 . S
C1328 H1313 0.960 . S
C1328 H1314 0.960 . S
C1328 H1315 0.960 . S
C1328 C1327 1.524 . S
C1329 C1326 1.403 . S
C1329 C1330 1.392 . S
C1329 C1333 1.495 . S
C1330 C1329 1.392 . S
C1330 C1331 1.385 . S
C1330 C1332 1.478 . S
C1331 H1325 0.930 . S
C1331 C1327 1.400 . S
C1331 C1330 1.385 . S
C1332 C1330 1.478 . S
C1332 C1334 1.381 . S
C1332 C1338 1.383 . S
C1333 C1329 1.495 . S
C1333 H1339 0.959 . S
C1333 H1340 0.961 . S
C1333 H1341 0.960 . S
C1334 C1332 1.381 . S
C1334 C1335 1.394 . S
C1334 H1342 0.930 . S
C1335 C1334 1.394 . S
C1335 C1336 1.383 . S
C1335 H1343 0.929 . S
C1336 C1335 1.383 . S
C1336 C1337 1.377 . S
C1337 H1321 0.930 . S
C1337 C1336 1.377 . S
C1337 C1338 1.379 . S
C1338 H1322 0.931 . S
C1338 C1332 1.383 . S
C1338 C1337 1.379 . S
H1339 C1333 0.959 . S
H1340 C1333 0.961 . S
H1341 C1333 0.960 . S
H1342 C1334 0.930 . S
H1343 C1335 0.929 . S
H1344 C1352 0.929 . S
H1345 C1354 0.930 . S
H1346 C1356 0.930 . S
H1347 C1359 0.929 . S
H1348 C1362 0.930 . S
H1349 C1364 0.960 . S
H1350 C1364 0.960 . S
H1351 C1364 0.960 . S
C1352 H1344 0.929 . S
C1352 C1353 1.377 . S
C1352 C1354 1.384 . S
C1353 C1352 1.377 . S
C1353 C1359 1.390 . S
C1354 H1345 0.930 . S
C1354 C1352 1.384 . S
C1354 C1355 1.372 . S
C1355 C1354 1.372 . S
C1355 C1356 1.400 . S
C1355 C1360 1.490 . S
C1356 H1346 0.930 . S
C1356 C1355 1.400 . S
C1356 C1359 1.386 . S
H1357 C1373 0.930 . S
H1358 C1374 0.931 . S
C1359 H1347 0.929 . S
C1359 C1353 1.390 . S
C1359 C1356 1.386 . S
C1360 C1355 1.490 . S
C1360 C1362 1.395 . S
C1360 C1363 1.403 . S
H1361 C1367 0.930 . S
C1362 H1348 0.930 . S
C1362 C1360 1.395 . S
C1362 C1365 1.403 . S
C1363 C1360 1.403 . S
C1363 C1364 1.524 . S
C1363 C1367 1.400 . S
C1364 H1349 0.960 . S
C1364 H1350 0.960 . S
C1364 H1351 0.960 . S
C1364 C1363 1.524 . S
C1365 C1362 1.403 . S
C1365 C1366 1.392 . S
C1365 C1369 1.495 . S
C1366 C1365 1.392 . S
C1366 C1367 1.385 . S
C1366 C1368 1.478 . S
C1367 H1361 0.930 . S
C1367 C1363 1.400 . S
C1367 C1366 1.385 . S
C1368 C1366 1.478 . S
C1368 C1370 1.381 . S
C1368 C1374 1.383 . S
C1369 C1365 1.495 . S
C1369 H1375 0.959 . S
C1369 H1376 0.961 . S
C1369 H1377 0.960 . S
C1370 C1368 1.381 . S
C1370 C1371 1.394 . S
C1370 H1378 0.930 . S
C1371 C1370 1.394 . S
C1371 C1372 1.383 . S
C1371 H1379 0.929 . S
C1372 C1371 1.383 . S
C1372 C1373 1.377 . S
C1373 H1357 0.930 . S
C1373 C1372 1.377 . S
C1373 C1374 1.379 . S
C1374 H1358 0.931 . S
C1374 C1368 1.383 . S
C1374 C1373 1.379 . S
H1375 C1369 0.959 . S
H1376 C1369 0.961 . S
H1377 C1369 0.960 . S
H1378 C1370 0.930 . S
H1379 C1371 0.929 . S
H1380 C1388 0.929 . S
H1381 C1390 0.930 . S
H1382 C1392 0.930 . S
H1383 C1395 0.929 . S
H1384 C1398 0.930 . S
H1385 C1400 0.960 . S
H1386 C1400 0.960 . S
H1387 C1400 0.960 . S
C1388 H1380 0.929 . S
C1388 C1389 1.377 . S
C1388 C1390 1.384 . S
C1389 C1388 1.377 . S
C1389 C1395 1.390 . S
C1390 H1381 0.930 . S
C1390 C1388 1.384 . S
C1390 C1391 1.372 . S
C1391 C1390 1.372 . S
C1391 C1392 1.400 . S
C1391 C1396 1.490 . S
C1392 H1382 0.930 . S
C1392 C1391 1.400 . S
C1392 C1395 1.386 . S
H1393 C1409 0.930 . S
H1394 C1410 0.931 . S
C1395 H1383 0.929 . S
C1395 C1389 1.390 . S
C1395 C1392 1.386 . S
C1396 C1391 1.490 . S
C1396 C1398 1.395 . S
C1396 C1399 1.403 . S
H1397 C1403 0.930 . S
C1398 H1384 0.930 . S
C1398 C1396 1.395 . S
C1398 C1401 1.403 . S
C1399 C1396 1.403 . S
C1399 C1400 1.524 . S
C1399 C1403 1.400 . S
C1400 H1385 0.960 . S
C1400 H1386 0.960 . S
C1400 H1387 0.960 . S
C1400 C1399 1.524 . S
C1401 C1398 1.403 . S
C1401 C1402 1.392 . S
C1401 C1405 1.495 . S
C1402 C1401 1.392 . S
C1402 C1403 1.385 . S
C1402 C1404 1.478 . S
C1403 H1397 0.930 . S
C1403 C1399 1.400 . S
C1403 C1402 1.385 . S
C1404 C1402 1.478 . S
C1404 C1406 1.381 . S
C1404 C1410 1.383 . S
C1405 C1401 1.495 . S
C1405 H1411 0.959 . S
C1405 H1412 0.961 . S
C1405 H1413 0.960 . S
C1406 C1404 1.381 . S
C1406 C1407 1.394 . S
C1406 H1414 0.930 . S
C1407 C1406 1.394 . S
C1407 C1408 1.383 . S
C1407 H1415 0.929 . S
C1408 C1407 1.383 . S
C1408 C1409 1.377 . S
C1409 H1393 0.930 . S
C1409 C1408 1.377 . S
C1409 C1410 1.379 . S
C1410 H1394 0.931 . S
C1410 C1404 1.383 . S
C1410 C1409 1.379 . S
H1411 C1405 0.959 . S
H1412 C1405 0.961 . S
H1413 C1405 0.960 . S
H1414 C1406 0.930 . S
H1415 C1407 0.929 . S
H1416 C1424 0.929 . S
H1417 C1426 0.930 . S
H1418 C1428 0.930 . S
H1419 C1431 0.929 . S
H1420 C1434 0.930 . S
H1421 C1436 0.960 . S
H1422 C1436 0.960 . S
H1423 C1436 0.960 . S
C1424 H1416 0.929 . S
C1424 C1425 1.377 . S
C1424 C1426 1.384 . S
C1425 C1424 1.377 . S
C1425 C1431 1.390 . S
C1426 H1417 0.930 . S
C1426 C1424 1.384 . S
C1426 C1427 1.372 . S
C1427 C1426 1.372 . S
C1427 C1428 1.400 . S
C1427 C1432 1.490 . S
C1428 H1418 0.930 . S
C1428 C1427 1.400 . S
C1428 C1431 1.386 . S
H1429 C1445 0.930 . S
H1430 C1446 0.931 . S
C1431 H1419 0.929 . S
C1431 C1425 1.390 . S
C1431 C1428 1.386 . S
C1432 C1427 1.490 . S
C1432 C1434 1.395 . S
C1432 C1435 1.403 . S
H1433 C1439 0.930 . S
C1434 H1420 0.930 . S
C1434 C1432 1.395 . S
C1434 C1437 1.403 . S
C1435 C1432 1.403 . S
C1435 C1436 1.524 . S
C1435 C1439 1.400 . S
C1436 H1421 0.960 . S
C1436 H1422 0.960 . S
C1436 H1423 0.960 . S
C1436 C1435 1.524 . S
C1437 C1434 1.403 . S
C1437 C1438 1.392 . S
C1437 C1441 1.495 . S
C1438 C1437 1.392 . S
C1438 C1439 1.385 . S
C1438 C1440 1.478 . S
C1439 H1433 0.930 . S
C1439 C1435 1.400 . S
C1439 C1438 1.385 . S
C1440 C1438 1.478 . S
C1440 C1442 1.381 . S
C1440 C1446 1.383 . S
C1441 C1437 1.495 . S
C1441 H1447 0.959 . S
C1441 H1448 0.961 . S
C1441 H1449 0.960 . S
C1442 C1440 1.381 . S
C1442 C1443 1.394 . S
C1442 H1450 0.930 . S
C1443 C1442 1.394 . S
C1443 C1444 1.383 . S
C1443 H1451 0.929 . S
C1444 C1443 1.383 . S
C1444 C1445 1.377 . S
C1445 H1429 0.930 . S
C1445 C1444 1.377 . S
C1445 C1446 1.379 . S
C1446 H1430 0.931 . S
C1446 C1440 1.383 . S
C1446 C1445 1.379 . S
H1447 C1441 0.959 . S
H1448 C1441 0.961 . S
H1449 C1441 0.960 . S
H1450 C1442 0.930 . S
H1451 C1443 0.929 . S
H1452 C1460 0.929 . S
H1453 C1462 0.930 . S
H1454 C1464 0.930 . S
H1455 C1467 0.929 . S
H1456 C1470 0.930 . S
H1457 C1472 0.960 . S
H1458 C1472 0.960 . S
H1459 C1472 0.960 . S
C1460 H1452 0.929 . S
C1460 C1461 1.377 . S
C1460 C1462 1.384 . S
C1461 C1460 1.377 . S
C1461 C1467 1.390 . S
C1462 H1453 0.930 . S
C1462 C1460 1.384 . S
C1462 C1463 1.372 . S
C1463 C1462 1.372 . S
C1463 C1464 1.400 . S
C1463 C1468 1.490 . S
C1464 H1454 0.930 . S
C1464 C1463 1.400 . S
C1464 C1467 1.386 . S
H1465 C1481 0.930 . S
H1466 C1482 0.931 . S
C1467 H1455 0.929 . S
C1467 C1461 1.390 . S
C1467 C1464 1.386 . S
C1468 C1463 1.490 . S
C1468 C1470 1.395 . S
C1468 C1471 1.403 . S
H1469 C1475 0.930 . S
C1470 H1456 0.930 . S
C1470 C1468 1.395 . S
C1470 C1473 1.403 . S
C1471 C1468 1.403 . S
C1471 C1472 1.524 . S
C1471 C1475 1.400 . S
C1472 H1457 0.960 . S
C1472 H1458 0.960 . S
C1472 H1459 0.960 . S
C1472 C1471 1.524 . S
C1473 C1470 1.403 . S
C1473 C1474 1.392 . S
C1473 C1477 1.495 . S
C1474 C1473 1.392 . S
C1474 C1475 1.385 . S
C1474 C1476 1.478 . S
C1475 H1469 0.930 . S
C1475 C1471 1.400 . S
C1475 C1474 1.385 . S
C1476 C1474 1.478 . S
C1476 C1478 1.381 . S
C1476 C1482 1.383 . S
C1477 C1473 1.495 . S
C1477 H1483 0.959 . S
C1477 H1484 0.961 . S
C1477 H1485 0.960 . S
C1478 C1476 1.381 . S
C1478 C1479 1.394 . S
C1478 H1486 0.930 . S
C1479 C1478 1.394 . S
C1479 C1480 1.383 . S
C1479 H1487 0.929 . S
C1480 C1479 1.383 . S
C1480 C1481 1.377 . S
C1481 H1465 0.930 . S
C1481 C1480 1.377 . S
C1481 C1482 1.379 . S
C1482 H1466 0.931 . S
C1482 C1476 1.383 . S
C1482 C1481 1.379 . S
H1483 C1477 0.959 . S
H1484 C1477 0.961 . S
H1485 C1477 0.960 . S
H1486 C1478 0.930 . S
H1487 C1479 0.929 . S
H1488 C1496 0.929 . S
H1489 C1498 0.930 . S
H1490 C1500 0.930 . S
H1491 C1503 0.929 . S
H1492 C1506 0.930 . S
H1493 C1508 0.960 . S
H1494 C1508 0.960 . S
H1495 C1508 0.960 . S
C1496 H1488 0.929 . S
C1496 C1497 1.377 . S
C1496 C1498 1.384 . S
C1497 C1496 1.377 . S
C1497 C1503 1.390 . S
C1498 H1489 0.930 . S
C1498 C1496 1.384 . S
C1498 C1499 1.372 . S
C1499 C1498 1.372 . S
C1499 C1500 1.400 . S
C1499 C1504 1.490 . S
C1500 H1490 0.930 . S
C1500 C1499 1.400 . S
C1500 C1503 1.386 . S
H1501 C1517 0.930 . S
H1502 C1518 0.931 . S
C1503 H1491 0.929 . S
C1503 C1497 1.390 . S
C1503 C1500 1.386 . S
C1504 C1499 1.490 . S
C1504 C1506 1.395 . S
C1504 C1507 1.403 . S
H1505 C1511 0.930 . S
C1506 H1492 0.930 . S
C1506 C1504 1.395 . S
C1506 C1509 1.403 . S
C1507 C1504 1.403 . S
C1507 C1508 1.524 . S
C1507 C1511 1.400 . S
C1508 H1493 0.960 . S
C1508 H1494 0.960 . S
C1508 H1495 0.960 . S
C1508 C1507 1.524 . S
C1509 C1506 1.403 . S
C1509 C1510 1.392 . S
C1509 C1513 1.495 . S
C1510 C1509 1.392 . S
C1510 C1511 1.385 . S
C1510 C1512 1.478 . S
C1511 H1505 0.930 . S
C1511 C1507 1.400 . S
C1511 C1510 1.385 . S
C1512 C1510 1.478 . S
C1512 C1514 1.381 . S
C1512 C1518 1.383 . S
C1513 C1509 1.495 . S
C1513 H1519 0.959 . S
C1513 H1520 0.961 . S
C1513 H1521 0.960 . S
C1514 C1512 1.381 . S
C1514 C1515 1.394 . S
C1514 H1522 0.930 . S
C1515 C1514 1.394 . S
C1515 C1516 1.383 . S
C1515 H1523 0.929 . S
C1516 C1515 1.383 . S
C1516 C1517 1.377 . S
C1517 H1501 0.930 . S
C1517 C1516 1.377 . S
C1517 C1518 1.379 . S
C1518 H1502 0.931 . S
C1518 C1512 1.383 . S
C1518 C1517 1.379 . S
H1519 C1513 0.959 . S
H1520 C1513 0.961 . S
H1521 C1513 0.960 . S
H1522 C1514 0.930 . S
H1523 C1515 0.929 . S
H1524 C1532 0.929 . S
H1525 C1534 0.930 . S
H1526 C1536 0.930 . S
H1527 C1539 0.929 . S
H1528 C1542 0.930 . S
H1529 C1544 0.960 . S
H1530 C1544 0.960 . S
H1531 C1544 0.960 . S
C1532 H1524 0.929 . S
C1532 C1533 1.377 . S
C1532 C1534 1.384 . S
C1533 C1532 1.377 . S
C1533 C1539 1.390 . S
C1534 H1525 0.930 . S
C1534 C1532 1.384 . S
C1534 C1535 1.372 . S
C1535 C1534 1.372 . S
C1535 C1536 1.400 . S
C1535 C1540 1.490 . S
C1536 H1526 0.930 . S
C1536 C1535 1.400 . S
C1536 C1539 1.386 . S
H1537 C1553 0.930 . S
H1538 C1554 0.931 . S
C1539 H1527 0.929 . S
C1539 C1533 1.390 . S
C1539 C1536 1.386 . S
C1540 C1535 1.490 . S
C1540 C1542 1.395 . S
C1540 C1543 1.403 . S
H1541 C1547 0.930 . S
C1542 H1528 0.930 . S
C1542 C1540 1.395 . S
C1542 C1545 1.403 . S
C1543 C1540 1.403 . S
C1543 C1544 1.524 . S
C1543 C1547 1.400 . S
C1544 H1529 0.960 . S
C1544 H1530 0.960 . S
C1544 H1531 0.960 . S
C1544 C1543 1.524 . S
C1545 C1542 1.403 . S
C1545 C1546 1.392 . S
C1545 C1549 1.495 . S
C1546 C1545 1.392 . S
C1546 C1547 1.385 . S
C1546 C1548 1.478 . S
C1547 H1541 0.930 . S
C1547 C1543 1.400 . S
C1547 C1546 1.385 . S
C1548 C1546 1.478 . S
C1548 C1550 1.381 . S
C1548 C1554 1.383 . S
C1549 C1545 1.495 . S
C1549 H1555 0.959 . S
C1549 H1556 0.961 . S
C1549 H1557 0.960 . S
C1550 C1548 1.381 . S
C1550 C1551 1.394 . S
C1550 H1558 0.930 . S
C1551 C1550 1.394 . S
C1551 C1552 1.383 . S
C1551 H1559 0.929 . S
C1552 C1551 1.383 . S
C1552 C1553 1.377 . S
C1553 H1537 0.930 . S
C1553 C1552 1.377 . S
C1553 C1554 1.379 . S
C1554 H1538 0.931 . S
C1554 C1548 1.383 . S
C1554 C1553 1.379 . S
H1555 C1549 0.959 . S
H1556 C1549 0.961 . S
H1557 C1549 0.960 . S
H1558 C1550 0.930 . S
H1559 C1551 0.929 . S
H1560 C1568 0.929 . S
H1561 C1570 0.930 . S
H1562 C1572 0.930 . S
H1563 C1575 0.929 . S
H1564 C1578 0.930 . S
H1565 C1580 0.960 . S
H1566 C1580 0.960 . S
H1567 C1580 0.960 . S
C1568 H1560 0.929 . S
C1568 C1569 1.377 . S
C1568 C1570 1.384 . S
C1569 C1568 1.377 . S
C1569 C1575 1.390 . S
C1570 H1561 0.930 . S
C1570 C1568 1.384 . S
C1570 C1571 1.372 . S
C1571 C1570 1.372 . S
C1571 C1572 1.400 . S
C1571 C1576 1.490 . S
C1572 H1562 0.930 . S
C1572 C1571 1.400 . S
C1572 C1575 1.386 . S
H1573 C1589 0.930 . S
H1574 C1590 0.931 . S
C1575 H1563 0.929 . S
C1575 C1569 1.390 . S
C1575 C1572 1.386 . S
C1576 C1571 1.490 . S
C1576 C1578 1.395 . S
C1576 C1579 1.403 . S
H1577 C1583 0.930 . S
C1578 H1564 0.930 . S
C1578 C1576 1.395 . S
C1578 C1581 1.403 . S
C1579 C1576 1.403 . S
C1579 C1580 1.524 . S
C1579 C1583 1.400 . S
C1580 H1565 0.960 . S
C1580 H1566 0.960 . S
C1580 H1567 0.960 . S
C1580 C1579 1.524 . S
C1581 C1578 1.403 . S
C1581 C1582 1.392 . S
C1581 C1585 1.495 . S
C1582 C1581 1.392 . S
C1582 C1583 1.385 . S
C1582 C1584 1.478 . S
C1583 H1577 0.930 . S
C1583 C1579 1.400 . S
C1583 C1582 1.385 . S
C1584 C1582 1.478 . S
C1584 C1586 1.381 . S
C1584 C1590 1.383 . S
C1585 C1581 1.495 . S
C1585 H1591 0.959 . S
C1585 H1592 0.961 . S
C1585 H1593 0.960 . S
C1586 C1584 1.381 . S
C1586 C1587 1.394 . S
C1586 H1594 0.930 . S
C1587 C1586 1.394 . S
C1587 C1588 1.383 . S
C1587 H1595 0.929 . S
C1588 C1587 1.383 . S
C1588 C1589 1.377 . S
C1589 H1573 0.930 . S
C1589 C1588 1.377 . S
C1589 C1590 1.379 . S
C1590 H1574 0.931 . S
C1590 C1584 1.383 . S
C1590 C1589 1.379 . S
H1591 C1585 0.959 . S
H1592 C1585 0.961 . S
H1593 C1585 0.960 . S
H1594 C1586 0.930 . S
H1595 C1587 0.929 . S
H1596 C1604 0.929 . S
H1597 C1606 0.930 . S
H1598 C1608 0.930 . S
H1599 C1611 0.929 . S
H1600 C1614 0.930 . S
H1601 C1616 0.960 . S
H1602 C1616 0.960 . S
H1603 C1616 0.960 . S
C1604 H1596 0.929 . S
C1604 C1605 1.377 . S
C1604 C1606 1.384 . S
C1605 C1604 1.377 . S
C1605 C1611 1.390 . S
C1606 H1597 0.930 . S
C1606 C1604 1.384 . S
C1606 C1607 1.372 . S
C1607 C1606 1.372 . S
C1607 C1608 1.400 . S
C1607 C1612 1.490 . S
C1608 H1598 0.930 . S
C1608 C1607 1.400 . S
C1608 C1611 1.386 . S
H1609 C1625 0.930 . S
H1610 C1626 0.931 . S
C1611 H1599 0.929 . S
C1611 C1605 1.390 . S
C1611 C1608 1.386 . S
C1612 C1607 1.490 . S
C1612 C1614 1.395 . S
C1612 C1615 1.403 . S
H1613 C1619 0.930 . S
C1614 H1600 0.930 . S
C1614 C1612 1.395 . S
C1614 C1617 1.403 . S
C1615 C1612 1.403 . S
C1615 C1616 1.524 . S
C1615 C1619 1.400 . S
C1616 H1601 0.960 . S
C1616 H1602 0.960 . S
C1616 H1603 0.960 . S
C1616 C1615 1.524 . S
C1617 C1614 1.403 . S
C1617 C1618 1.392 . S
C1617 C1621 1.495 . S
C1618 C1617 1.392 . S
C1618 C1619 1.385 . S
C1618 C1620 1.478 . S
C1619 H1613 0.930 . S
C1619 C1615 1.400 . S
C1619 C1618 1.385 . S
C1620 C1618 1.478 . S
C1620 C1622 1.381 . S
C1620 C1626 1.383 . S
C1621 C1617 1.495 . S
C1621 H1627 0.959 . S
C1621 H1628 0.961 . S
C1621 H1629 0.960 . S
C1622 C1620 1.381 . S
C1622 C1623 1.394 . S
C1622 H1630 0.930 . S
C1623 C1622 1.394 . S
C1623 C1624 1.383 . S
C1623 H1631 0.929 . S
C1624 C1623 1.383 . S
C1624 C1625 1.377 . S
C1625 H1609 0.930 . S
C1625 C1624 1.377 . S
C1625 C1626 1.379 . S
C1626 H1610 0.931 . S
C1626 C1620 1.383 . S
C1626 C1625 1.379 . S
H1627 C1621 0.959 . S
H1628 C1621 0.961 . S
H1629 C1621 0.960 . S
H1630 C1622 0.930 . S
H1631 C1623 0.929 . S
H1632 C1640 0.929 . S
H1633 C1642 0.930 . S
H1634 C1644 0.930 . S
H1635 C1647 0.929 . S
H1636 C1650 0.930 . S
H1637 C1652 0.960 . S
H1638 C1652 0.960 . S
H1639 C1652 0.960 . S
C1640 H1632 0.929 . S
C1640 C1641 1.377 . S
C1640 C1642 1.384 . S
C1641 C1640 1.377 . S
C1641 C1647 1.390 . S
C1642 H1633 0.930 . S
C1642 C1640 1.384 . S
C1642 C1643 1.372 . S
C1643 C1642 1.372 . S
C1643 C1644 1.400 . S
C1643 C1648 1.490 . S
C1644 H1634 0.930 . S
C1644 C1643 1.400 . S
C1644 C1647 1.386 . S
H1645 C1661 0.930 . S
H1646 C1662 0.931 . S
C1647 H1635 0.929 . S
C1647 C1641 1.390 . S
C1647 C1644 1.386 . S
C1648 C1643 1.490 . S
C1648 C1650 1.395 . S
C1648 C1651 1.403 . S
H1649 C1655 0.930 . S
C1650 H1636 0.930 . S
C1650 C1648 1.395 . S
C1650 C1653 1.403 . S
C1651 C1648 1.403 . S
C1651 C1652 1.524 . S
C1651 C1655 1.400 . S
C1652 H1637 0.960 . S
C1652 H1638 0.960 . S
C1652 H1639 0.960 . S
C1652 C1651 1.524 . S
C1653 C1650 1.403 . S
C1653 C1654 1.392 . S
C1653 C1657 1.495 . S
C1654 C1653 1.392 . S
C1654 C1655 1.385 . S
C1654 C1656 1.478 . S
C1655 H1649 0.930 . S
C1655 C1651 1.400 . S
C1655 C1654 1.385 . S
C1656 C1654 1.478 . S
C1656 C1658 1.381 . S
C1656 C1662 1.383 . S
C1657 C1653 1.495 . S
C1657 H1663 0.959 . S
C1657 H1664 0.961 . S
C1657 H1665 0.960 . S
C1658 C1656 1.381 . S
C1658 C1659 1.394 . S
C1658 H1666 0.930 . S
C1659 C1658 1.394 . S
C1659 C1660 1.383 . S
C1659 H1667 0.929 . S
C1660 C1659 1.383 . S
C1660 C1661 1.377 . S
C1661 H1645 0.930 . S
C1661 C1660 1.377 . S
C1661 C1662 1.379 . S
C1662 H1646 0.931 . S
C1662 C1656 1.383 . S
C1662 C1661 1.379 . S
H1663 C1657 0.959 . S
H1664 C1657 0.961 . S
H1665 C1657 0.960 . S
H1666 C1658 0.930 . S
H1667 C1659 0.929 . S
H1668 C1676 0.929 . S
H1669 C1678 0.930 . S
H1670 C1680 0.930 . S
H1671 C1683 0.929 . S
H1672 C1686 0.930 . S
H1673 C1688 0.960 . S
H1674 C1688 0.960 . S
H1675 C1688 0.960 . S
C1676 H1668 0.929 . S
C1676 C1677 1.377 . S
C1676 C1678 1.384 . S
C1677 C1676 1.377 . S
C1677 C1683 1.390 . S
C1678 H1669 0.930 . S
C1678 C1676 1.384 . S
C1678 C1679 1.372 . S
C1679 C1678 1.372 . S
C1679 C1680 1.400 . S
C1679 C1684 1.490 . S
C1680 H1670 0.930 . S
C1680 C1679 1.400 . S
C1680 C1683 1.386 . S
H1681 C1697 0.930 . S
H1682 C1698 0.931 . S
C1683 H1671 0.929 . S
C1683 C1677 1.390 . S
C1683 C1680 1.386 . S
C1684 C1679 1.490 . S
C1684 C1686 1.395 . S
C1684 C1687 1.403 . S
H1685 C1691 0.930 . S
C1686 H1672 0.930 . S
C1686 C1684 1.395 . S
C1686 C1689 1.403 . S
C1687 C1684 1.403 . S
C1687 C1688 1.524 . S
C1687 C1691 1.400 . S
C1688 H1673 0.960 . S
C1688 H1674 0.960 . S
C1688 H1675 0.960 . S
C1688 C1687 1.524 . S
C1689 C1686 1.403 . S
C1689 C1690 1.392 . S
C1689 C1693 1.495 . S
C1690 C1689 1.392 . S
C1690 C1691 1.385 . S
C1690 C1692 1.478 . S
C1691 H1685 0.930 . S
C1691 C1687 1.400 . S
C1691 C1690 1.385 . S
C1692 C1690 1.478 . S
C1692 C1694 1.381 . S
C1692 C1698 1.383 . S
C1693 C1689 1.495 . S
C1693 H1699 0.959 . S
C1693 H1700 0.961 . S
C1693 H1701 0.960 . S
C1694 C1692 1.381 . S
C1694 C1695 1.394 . S
C1694 H1702 0.930 . S
C1695 C1694 1.394 . S
C1695 C1696 1.383 . S
C1695 H1703 0.929 . S
C1696 C1695 1.383 . S
C1696 C1697 1.377 . S
C1697 H1681 0.930 . S
C1697 C1696 1.377 . S
C1697 C1698 1.379 . S
C1698 H1682 0.931 . S
C1698 C1692 1.383 . S
C1698 C1697 1.379 . S
H1699 C1693 0.959 . S
H1700 C1693 0.961 . S
H1701 C1693 0.960 . S
H1702 C1694 0.930 . S
H1703 C1695 0.929 . S
H1704 C1712 0.929 . S
H1705 C1714 0.930 . S
H1706 C1716 0.930 . S
H1707 C1719 0.929 . S
H1708 C1722 0.930 . S
H1709 C1724 0.960 . S
H1710 C1724 0.960 . S
H1711 C1724 0.960 . S
C1712 H1704 0.929 . S
C1712 C1713 1.377 . S
C1712 C1714 1.384 . S
C1713 C1712 1.377 . S
C1713 C1719 1.390 . S
C1714 H1705 0.930 . S
C1714 C1712 1.384 . S
C1714 C1715 1.372 . S
C1715 C1714 1.372 . S
C1715 C1716 1.400 . S
C1715 C1720 1.490 . S
C1716 H1706 0.930 . S
C1716 C1715 1.400 . S
C1716 C1719 1.386 . S
H1717 C1733 0.930 . S
H1718 C1734 0.931 . S
C1719 H1707 0.929 . S
C1719 C1713 1.390 . S
C1719 C1716 1.386 . S
C1720 C1715 1.490 . S
C1720 C1722 1.395 . S
C1720 C1723 1.403 . S
H1721 C1727 0.930 . S
C1722 H1708 0.930 . S
C1722 C1720 1.395 . S
C1722 C1725 1.403 . S
C1723 C1720 1.403 . S
C1723 C1724 1.524 . S
C1723 C1727 1.400 . S
C1724 H1709 0.960 . S
C1724 H1710 0.960 . S
C1724 H1711 0.960 . S
C1724 C1723 1.524 . S
C1725 C1722 1.403 . S
C1725 C1726 1.392 . S
C1725 C1729 1.495 . S
C1726 C1725 1.392 . S
C1726 C1727 1.385 . S
C1726 C1728 1.478 . S
C1727 H1721 0.930 . S
C1727 C1723 1.400 . S
C1727 C1726 1.385 . S
C1728 C1726 1.478 . S
C1728 C1730 1.381 . S
C1728 C1734 1.383 . S
C1729 C1725 1.495 . S
C1729 H1735 0.959 . S
C1729 H1736 0.961 . S
C1729 H1737 0.960 . S
C1730 C1728 1.381 . S
C1730 C1731 1.394 . S
C1730 H1738 0.930 . S
C1731 C1730 1.394 . S
C1731 C1732 1.383 . S
C1731 H1739 0.929 . S
C1732 C1731 1.383 . S
C1732 C1733 1.377 . S
C1733 H1717 0.930 . S
C1733 C1732 1.377 . S
C1733 C1734 1.379 . S
C1734 H1718 0.931 . S
C1734 C1728 1.383 . S
C1734 C1733 1.379 . S
H1735 C1729 0.959 . S
H1736 C1729 0.961 . S
H1737 C1729 0.960 . S
H1738 C1730 0.930 . S
H1739 C1731 0.929 . S
H1740 C1748 0.929 . S
H1741 C1750 0.930 . S
H1742 C1752 0.930 . S
H1743 C1755 0.929 . S
H1744 C1758 0.930 . S
H1745 C1760 0.960 . S
H1746 C1760 0.960 . S
H1747 C1760 0.960 . S
C1748 H1740 0.929 . S
C1748 C1749 1.377 . S
C1748 C1750 1.384 . S
C1749 C1748 1.377 . S
C1749 C1755 1.390 . S
C1750 H1741 0.930 . S
C1750 C1748 1.384 . S
C1750 C1751 1.372 . S
C1751 C1750 1.372 . S
C1751 C1752 1.400 . S
C1751 C1756 1.490 . S
C1752 H1742 0.930 . S
C1752 C1751 1.400 . S
C1752 C1755 1.386 . S
H1753 C1769 0.930 . S
H1754 C1770 0.931 . S
C1755 H1743 0.929 . S
C1755 C1749 1.390 . S
C1755 C1752 1.386 . S
C1756 C1751 1.490 . S
C1756 C1758 1.395 . S
C1756 C1759 1.403 . S
H1757 C1763 0.930 . S
C1758 H1744 0.930 . S
C1758 C1756 1.395 . S
C1758 C1761 1.403 . S
C1759 C1756 1.403 . S
C1759 C1760 1.524 . S
C1759 C1763 1.400 . S
C1760 H1745 0.960 . S
C1760 H1746 0.960 . S
C1760 H1747 0.960 . S
C1760 C1759 1.524 . S
C1761 C1758 1.403 . S
C1761 C1762 1.392 . S
C1761 C1765 1.495 . S
C1762 C1761 1.392 . S
C1762 C1763 1.385 . S
C1762 C1764 1.478 . S
C1763 H1757 0.930 . S
C1763 C1759 1.400 . S
C1763 C1762 1.385 . S
C1764 C1762 1.478 . S
C1764 C1766 1.381 . S
C1764 C1770 1.383 . S
C1765 C1761 1.495 . S
C1765 H1771 0.959 . S
C1765 H1772 0.961 . S
C1765 H1773 0.960 . S
C1766 C1764 1.381 . S
C1766 C1767 1.394 . S
C1766 H1774 0.930 . S
C1767 C1766 1.394 . S
C1767 C1768 1.383 . S
C1767 H1775 0.929 . S
C1768 C1767 1.383 . S
C1768 C1769 1.377 . S
C1769 H1753 0.930 . S
C1769 C1768 1.377 . S
C1769 C1770 1.379 . S
C1770 H1754 0.931 . S
C1770 C1764 1.383 . S
C1770 C1769 1.379 . S
H1771 C1765 0.959 . S
H1772 C1765 0.961 . S
H1773 C1765 0.960 . S
H1774 C1766 0.930 . S
H1775 C1767 0.929 . S
H1776 C1784 0.929 . S
H1777 C1786 0.930 . S
H1778 C1788 0.930 . S
H1779 C1791 0.929 . S
H1780 C1794 0.930 . S
H1781 C1796 0.960 . S
H1782 C1796 0.960 . S
H1783 C1796 0.960 . S
C1784 H1776 0.929 . S
C1784 C1785 1.377 . S
C1784 C1786 1.384 . S
C1785 C1784 1.377 . S
C1785 C1791 1.390 . S
C1786 H1777 0.930 . S
C1786 C1784 1.384 . S
C1786 C1787 1.372 . S
C1787 C1786 1.372 . S
C1787 C1788 1.400 . S
C1787 C1792 1.490 . S
C1788 H1778 0.930 . S
C1788 C1787 1.400 . S
C1788 C1791 1.386 . S
H1789 C1805 0.930 . S
H1790 C1806 0.931 . S
C1791 H1779 0.929 . S
C1791 C1785 1.390 . S
C1791 C1788 1.386 . S
C1792 C1787 1.490 . S
C1792 C1794 1.395 . S
C1792 C1795 1.403 . S
H1793 C1799 0.930 . S
C1794 H1780 0.930 . S
C1794 C1792 1.395 . S
C1794 C1797 1.403 . S
C1795 C1792 1.403 . S
C1795 C1796 1.524 . S
C1795 C1799 1.400 . S
C1796 H1781 0.960 . S
C1796 H1782 0.960 . S
C1796 H1783 0.960 . S
C1796 C1795 1.524 . S
C1797 C1794 1.403 . S
C1797 C1798 1.392 . S
C1797 C1801 1.495 . S
C1798 C1797 1.392 . S
C1798 C1799 1.385 . S
C1798 C1800 1.478 . S
C1799 H1793 0.930 . S
C1799 C1795 1.400 . S
C1799 C1798 1.385 . S
C1800 C1798 1.478 . S
C1800 C1802 1.381 . S
C1800 C1806 1.383 . S
C1801 C1797 1.495 . S
C1801 H1807 0.959 . S
C1801 H1808 0.961 . S
C1801 H1809 0.960 . S
C1802 C1800 1.381 . S
C1802 C1803 1.394 . S
C1802 H1810 0.930 . S
C1803 C1802 1.394 . S
C1803 C1804 1.383 . S
C1803 H1811 0.929 . S
C1804 C1803 1.383 . S
C1804 C1805 1.377 . S
C1805 H1789 0.930 . S
C1805 C1804 1.377 . S
C1805 C1806 1.379 . S
C1806 H1790 0.931 . S
C1806 C1800 1.383 . S
C1806 C1805 1.379 . S
H1807 C1801 0.959 . S
H1808 C1801 0.961 . S
H1809 C1801 0.960 . S
H1810 C1802 0.930 . S
H1811 C1803 0.929 . S
H1812 C1820 0.929 . S
H1813 C1822 0.930 . S
H1814 C1824 0.930 . S
H1815 C1827 0.929 . S
H1816 C1830 0.930 . S
H1817 C1832 0.960 . S
H1818 C1832 0.960 . S
H1819 C1832 0.960 . S
C1820 H1812 0.929 . S
C1820 C1821 1.377 . S
C1820 C1822 1.384 . S
C1821 C1820 1.377 . S
C1821 C1827 1.390 . S
C1822 H1813 0.930 . S
C1822 C1820 1.384 . S
C1822 C1823 1.372 . S
C1823 C1822 1.372 . S
C1823 C1824 1.400 . S
C1823 C1828 1.490 . S
C1824 H1814 0.930 . S
C1824 C1823 1.400 . S
C1824 C1827 1.386 . S
H1825 C1841 0.930 . S
H1826 C1842 0.931 . S
C1827 H1815 0.929 . S
C1827 C1821 1.390 . S
C1827 C1824 1.386 . S
C1828 C1823 1.490 . S
C1828 C1830 1.395 . S
C1828 C1831 1.403 . S
H1829 C1835 0.930 . S
C1830 H1816 0.930 . S
C1830 C1828 1.395 . S
C1830 C1833 1.403 . S
C1831 C1828 1.403 . S
C1831 C1832 1.524 . S
C1831 C1835 1.400 . S
C1832 H1817 0.960 . S
C1832 H1818 0.960 . S
C1832 H1819 0.960 . S
C1832 C1831 1.524 . S
C1833 C1830 1.403 . S
C1833 C1834 1.392 . S
C1833 C1837 1.495 . S
C1834 C1833 1.392 . S
C1834 C1835 1.385 . S
C1834 C1836 1.478 . S
C1835 H1829 0.930 . S
C1835 C1831 1.400 . S
C1835 C1834 1.385 . S
C1836 C1834 1.478 . S
C1836 C1838 1.381 . S
C1836 C1842 1.383 . S
C1837 C1833 1.495 . S
C1837 H1843 0.959 . S
C1837 H1844 0.961 . S
C1837 H1845 0.960 . S
C1838 C1836 1.381 . S
C1838 C1839 1.394 . S
C1838 H1846 0.930 . S
C1839 C1838 1.394 . S
C1839 C1840 1.383 . S
C1839 H1847 0.929 . S
C1840 C1839 1.383 . S
C1840 C1841 1.377 . S
C1841 H1825 0.930 . S
C1841 C1840 1.377 . S
C1841 C1842 1.379 . S
C1842 H1826 0.931 . S
C1842 C1836 1.383 . S
C1842 C1841 1.379 . S
H1843 C1837 0.959 . S
H1844 C1837 0.961 . S
H1845 C1837 0.960 . S
H1846 C1838 0.930 . S
H1847 C1839 0.929 . S
H1848 C1856 0.929 . S
H1849 C1858 0.930 . S
H1850 C1860 0.930 . S
H1851 C1863 0.929 . S
H1852 C1866 0.930 . S
H1853 C1868 0.960 . S
H1854 C1868 0.960 . S
H1855 C1868 0.960 . S
C1856 H1848 0.929 . S
C1856 C1857 1.377 . S
C1856 C1858 1.384 . S
C1857 C1856 1.377 . S
C1857 C1863 1.390 . S
C1858 H1849 0.930 . S
C1858 C1856 1.384 . S
C1858 C1859 1.372 . S
C1859 C1858 1.372 . S
C1859 C1860 1.400 . S
C1859 C1864 1.490 . S
C1860 H1850 0.930 . S
C1860 C1859 1.400 . S
C1860 C1863 1.386 . S
H1861 C1877 0.930 . S
H1862 C1878 0.931 . S
C1863 H1851 0.929 . S
C1863 C1857 1.390 . S
C1863 C1860 1.386 . S
C1864 C1859 1.490 . S
C1864 C1866 1.395 . S
C1864 C1867 1.403 . S
H1865 C1871 0.930 . S
C1866 H1852 0.930 . S
C1866 C1864 1.395 . S
C1866 C1869 1.403 . S
C1867 C1864 1.403 . S
C1867 C1868 1.524 . S
C1867 C1871 1.400 . S
C1868 H1853 0.960 . S
C1868 H1854 0.960 . S
C1868 H1855 0.960 . S
C1868 C1867 1.524 . S
C1869 C1866 1.403 . S
C1869 C1870 1.392 . S
C1869 C1873 1.495 . S
C1870 C1869 1.392 . S
C1870 C1871 1.385 . S
C1870 C1872 1.478 . S
C1871 H1865 0.930 . S
C1871 C1867 1.400 . S
C1871 C1870 1.385 . S
C1872 C1870 1.478 . S
C1872 C1874 1.381 . S
C1872 C1878 1.383 . S
C1873 C1869 1.495 . S
C1873 H1879 0.959 . S
C1873 H1880 0.961 . S
C1873 H1881 0.960 . S
C1874 C1872 1.381 . S
C1874 C1875 1.394 . S
C1874 H1882 0.930 . S
C1875 C1874 1.394 . S
C1875 C1876 1.383 . S
C1875 H1883 0.929 . S
C1876 C1875 1.383 . S
C1876 C1877 1.377 . S
C1877 H1861 0.930 . S
C1877 C1876 1.377 . S
C1877 C1878 1.379 . S
C1878 H1862 0.931 . S
C1878 C1872 1.383 . S
C1878 C1877 1.379 . S
H1879 C1873 0.959 . S
H1880 C1873 0.961 . S
H1881 C1873 0.960 . S
H1882 C1874 0.930 . S
H1883 C1875 0.929 . S
H1884 C1892 0.929 . S
H1885 C1894 0.930 . S
H1886 C1896 0.930 . S
H1887 C1899 0.929 . S
H1888 C1902 0.930 . S
H1889 C1904 0.960 . S
H1890 C1904 0.960 . S
H1891 C1904 0.960 . S
C1892 H1884 0.929 . S
C1892 C1893 1.377 . S
C1892 C1894 1.384 . S
C1893 C1892 1.377 . S
C1893 C1899 1.390 . S
C1894 H1885 0.930 . S
C1894 C1892 1.384 . S
C1894 C1895 1.372 . S
C1895 C1894 1.372 . S
C1895 C1896 1.400 . S
C1895 C1900 1.490 . S
C1896 H1886 0.930 . S
C1896 C1895 1.400 . S
C1896 C1899 1.386 . S
H1897 C1913 0.930 . S
H1898 C1914 0.931 . S
C1899 H1887 0.929 . S
C1899 C1893 1.390 . S
C1899 C1896 1.386 . S
C1900 C1895 1.490 . S
C1900 C1902 1.395 . S
C1900 C1903 1.403 . S
H1901 C1907 0.930 . S
C1902 H1888 0.930 . S
C1902 C1900 1.395 . S
C1902 C1905 1.403 . S
C1903 C1900 1.403 . S
C1903 C1904 1.524 . S
C1903 C1907 1.400 . S
C1904 H1889 0.960 . S
C1904 H1890 0.960 . S
C1904 H1891 0.960 . S
C1904 C1903 1.524 . S
C1905 C1902 1.403 . S
C1905 C1906 1.392 . S
C1905 C1909 1.495 . S
C1906 C1905 1.392 . S
C1906 C1907 1.385 . S
C1906 C1908 1.478 . S
C1907 H1901 0.930 . S
C1907 C1903 1.400 . S
C1907 C1906 1.385 . S
C1908 C1906 1.478 . S
C1908 C1910 1.381 . S
C1908 C1914 1.383 . S
C1909 C1905 1.495 . S
C1909 H1915 0.959 . S
C1909 H1916 0.961 . S
C1909 H1917 0.960 . S
C1910 C1908 1.381 . S
C1910 C1911 1.394 . S
C1910 H1918 0.930 . S
C1911 C1910 1.394 . S
C1911 C1912 1.383 . S
C1911 H1919 0.929 . S
C1912 C1911 1.383 . S
C1912 C1913 1.377 . S
C1913 H1897 0.930 . S
C1913 C1912 1.377 . S
C1913 C1914 1.379 . S
C1914 H1898 0.931 . S
C1914 C1908 1.383 . S
C1914 C1913 1.379 . S
H1915 C1909 0.959 . S
H1916 C1909 0.961 . S
H1917 C1909 0.960 . S
H1918 C1910 0.930 . S
H1919 C1911 0.929 . S
H1920 C1928 0.929 . S
H1921 C1930 0.930 . S
H1922 C1932 0.930 . S
H1923 C1935 0.929 . S
H1924 C1938 0.930 . S
H1925 C1940 0.960 . S
H1926 C1940 0.960 . S
H1927 C1940 0.960 . S
C1928 H1920 0.929 . S
C1928 C1929 1.377 . S
C1928 C1930 1.384 . S
C1929 C1928 1.377 . S
C1929 C1935 1.390 . S
C1930 H1921 0.930 . S
C1930 C1928 1.384 . S
C1930 C1931 1.372 . S
C1931 C1930 1.372 . S
C1931 C1932 1.400 . S
C1931 C1936 1.490 . S
C1932 H1922 0.930 . S
C1932 C1931 1.400 . S
C1932 C1935 1.386 . S
H1933 C1949 0.930 . S
H1934 C1950 0.931 . S
C1935 H1923 0.929 . S
C1935 C1929 1.390 . S
C1935 C1932 1.386 . S
C1936 C1931 1.490 . S
C1936 C1938 1.395 . S
C1936 C1939 1.403 . S
H1937 C1943 0.930 . S
C1938 H1924 0.930 . S
C1938 C1936 1.395 . S
C1938 C1941 1.403 . S
C1939 C1936 1.403 . S
C1939 C1940 1.524 . S
C1939 C1943 1.400 . S
C1940 H1925 0.960 . S
C1940 H1926 0.960 . S
C1940 H1927 0.960 . S
C1940 C1939 1.524 . S
C1941 C1938 1.403 . S
C1941 C1942 1.392 . S
C1941 C1945 1.495 . S
C1942 C1941 1.392 . S
C1942 C1943 1.385 . S
C1942 C1944 1.478 . S
C1943 H1937 0.930 . S
C1943 C1939 1.400 . S
C1943 C1942 1.385 . S
C1944 C1942 1.478 . S
C1944 C1946 1.381 . S
C1944 C1950 1.383 . S
C1945 C1941 1.495 . S
C1945 H1951 0.959 . S
C1945 H1952 0.961 . S
C1945 H1953 0.960 . S
C1946 C1944 1.381 . S
C1946 C1947 1.394 . S
C1946 H1954 0.930 . S
C1947 C1946 1.394 . S
C1947 C1948 1.383 . S
C1947 H1955 0.929 . S
C1948 C1947 1.383 . S
C1948 C1949 1.377 . S
C1949 H1933 0.930 . S
C1949 C1948 1.377 . S
C1949 C1950 1.379 . S
C1950 H1934 0.931 . S
C1950 C1944 1.383 . S
C1950 C1949 1.379 . S
H1951 C1945 0.959 . S
H1952 C1945 0.961 . S
H1953 C1945 0.960 . S
H1954 C1946 0.930 . S
H1955 C1947 0.929 . S
H1956 C1964 0.929 . S
H1957 C1966 0.930 . S
H1958 C1968 0.930 . S
H1959 C1971 0.929 . S
H1960 C1974 0.930 . S
H1961 C1976 0.960 . S
H1962 C1976 0.960 . S
H1963 C1976 0.960 . S
C1964 H1956 0.929 . S
C1964 C1965 1.377 . S
C1964 C1966 1.384 . S
C1965 C1964 1.377 . S
C1965 C1971 1.390 . S
C1966 H1957 0.930 . S
C1966 C1964 1.384 . S
C1966 C1967 1.372 . S
C1967 C1966 1.372 . S
C1967 C1968 1.400 . S
C1967 C1972 1.490 . S
C1968 H1958 0.930 . S
C1968 C1967 1.400 . S
C1968 C1971 1.386 . S
H1969 C1985 0.930 . S
H1970 C1986 0.931 . S
C1971 H1959 0.929 . S
C1971 C1965 1.390 . S
C1971 C1968 1.386 . S
C1972 C1967 1.490 . S
C1972 C1974 1.395 . S
C1972 C1975 1.403 . S
H1973 C1979 0.930 . S
C1974 H1960 0.930 . S
C1974 C1972 1.395 . S
C1974 C1977 1.403 . S
C1975 C1972 1.403 . S
C1975 C1976 1.524 . S
C1975 C1979 1.400 . S
C1976 H1961 0.960 . S
C1976 H1962 0.960 . S
C1976 H1963 0.960 . S
C1976 C1975 1.524 . S
C1977 C1974 1.403 . S
C1977 C1978 1.392 . S
C1977 C1981 1.495 . S
C1978 C1977 1.392 . S
C1978 C1979 1.385 . S
C1978 C1980 1.478 . S
C1979 H1973 0.930 . S
C1979 C1975 1.400 . S
C1979 C1978 1.385 . S
C1980 C1978 1.478 . S
C1980 C1982 1.381 . S
C1980 C1986 1.383 . S
C1981 C1977 1.495 . S
C1981 H1987 0.959 . S
C1981 H1988 0.961 . S
C1981 H1989 0.960 . S
C1982 C1980 1.381 . S
C1982 C1983 1.394 . S
C1982 H1990 0.930 . S
C1983 C1982 1.394 . S
C1983 C1984 1.383 . S
C1983 H1991 0.929 . S
C1984 C1983 1.383 . S
C1984 C1985 1.377 . S
C1985 H1969 0.930 . S
C1985 C1984 1.377 . S
C1985 C1986 1.379 . S
C1986 H1970 0.931 . S
C1986 C1980 1.383 . S
C1986 C1985 1.379 . S
H1987 C1981 0.959 . S
H1988 C1981 0.961 . S
H1989 C1981 0.960 . S
H1990 C1982 0.930 . S
H1991 C1983 0.929 . S
H1992 C2000 0.929 . S
H1993 C2002 0.930 . S
H1994 C2004 0.930 . S
H1995 C2007 0.929 . S
H1996 C2010 0.930 . S
H1997 C2012 0.960 . S
H1998 C2012 0.960 . S
H1999 C2012 0.960 . S
C2000 H1992 0.929 . S
C2000 C2001 1.377 . S
C2000 C2002 1.384 . S
C2001 C2000 1.377 . S
C2001 C2007 1.390 . S
C2002 H1993 0.930 . S
C2002 C2000 1.384 . S
C2002 C2003 1.372 . S
C2003 C2002 1.372 . S
C2003 C2004 1.400 . S
C2003 C2008 1.490 . S
C2004 H1994 0.930 . S
C2004 C2003 1.400 . S
C2004 C2007 1.386 . S
H2005 C2021 0.930 . S
H2006 C2022 0.931 . S
C2007 H1995 0.929 . S
C2007 C2001 1.390 . S
C2007 C2004 1.386 . S
C2008 C2003 1.490 . S
C2008 C2010 1.395 . S
C2008 C2011 1.403 . S
H2009 C2015 0.930 . S
C2010 H1996 0.930 . S
C2010 C2008 1.395 . S
C2010 C2013 1.403 . S
C2011 C2008 1.403 . S
C2011 C2012 1.524 . S
C2011 C2015 1.400 . S
C2012 H1997 0.960 . S
C2012 H1998 0.960 . S
C2012 H1999 0.960 . S
C2012 C2011 1.524 . S
C2013 C2010 1.403 . S
C2013 C2014 1.392 . S
C2013 C2017 1.495 . S
C2014 C2013 1.392 . S
C2014 C2015 1.385 . S
C2014 C2016 1.478 . S
C2015 H2009 0.930 . S
C2015 C2011 1.400 . S
C2015 C2014 1.385 . S
C2016 C2014 1.478 . S
C2016 C2018 1.381 . S
C2016 C2022 1.383 . S
C2017 C2013 1.495 . S
C2017 H2023 0.959 . S
C2017 H2024 0.961 . S
C2017 H2025 0.960 . S
C2018 C2016 1.381 . S
C2018 C2019 1.394 . S
C2018 H2026 0.930 . S
C2019 C2018 1.394 . S
C2019 C2020 1.383 . S
C2019 H2027 0.929 . S
C2020 C2019 1.383 . S
C2020 C2021 1.377 . S
C2021 H2005 0.930 . S
C2021 C2020 1.377 . S
C2021 C2022 1.379 . S
C2022 H2006 0.931 . S
C2022 C2016 1.383 . S
C2022 C2021 1.379 . S
H2023 C2017 0.959 . S
H2024 C2017 0.961 . S
H2025 C2017 0.960 . S
H2026 C2018 0.930 . S
H2027 C2019 0.929 . S
H2028 C2036 0.929 . S
H2029 C2038 0.930 . S
H2030 C2040 0.930 . S
H2031 C2043 0.929 . S
H2032 C2046 0.930 . S
H2033 C2048 0.960 . S
H2034 C2048 0.960 . S
H2035 C2048 0.960 . S
C2036 H2028 0.929 . S
C2036 C2037 1.377 . S
C2036 C2038 1.384 . S
C2037 C2036 1.377 . S
C2037 C2043 1.390 . S
C2038 H2029 0.930 . S
C2038 C2036 1.384 . S
C2038 C2039 1.372 . S
C2039 C2038 1.372 . S
C2039 C2040 1.400 . S
C2039 C2044 1.490 . S
C2040 H2030 0.930 . S
C2040 C2039 1.400 . S
C2040 C2043 1.386 . S
H2041 C2057 0.930 . S
H2042 C2058 0.931 . S
C2043 H2031 0.929 . S
C2043 C2037 1.390 . S
C2043 C2040 1.386 . S
C2044 C2039 1.490 . S
C2044 C2046 1.395 . S
C2044 C2047 1.403 . S
H2045 C2051 0.930 . S
C2046 H2032 0.930 . S
C2046 C2044 1.395 . S
C2046 C2049 1.403 . S
C2047 C2044 1.403 . S
C2047 C2048 1.524 . S
C2047 C2051 1.400 . S
C2048 H2033 0.960 . S
C2048 H2034 0.960 . S
C2048 H2035 0.960 . S
C2048 C2047 1.524 . S
C2049 C2046 1.403 . S
C2049 C2050 1.392 . S
C2049 C2053 1.495 . S
C2050 C2049 1.392 . S
C2050 C2051 1.385 . S
C2050 C2052 1.478 . S
C2051 H2045 0.930 . S
C2051 C2047 1.400 . S
C2051 C2050 1.385 . S
C2052 C2050 1.478 . S
C2052 C2054 1.381 . S
C2052 C2058 1.383 . S
C2053 C2049 1.495 . S
C2053 H2059 0.959 . S
C2053 H2060 0.961 . S
C2053 H2061 0.960 . S
C2054 C2052 1.381 . S
C2054 C2055 1.394 . S
C2054 H2062 0.930 . S
C2055 C2054 1.394 . S
C2055 C2056 1.383 . S
C2055 H2063 0.929 . S
C2056 C2055 1.383 . S
C2056 C2057 1.377 . S
C2057 H2041 0.930 . S
C2057 C2056 1.377 . S
C2057 C2058 1.379 . S
C2058 H2042 0.931 . S
C2058 C2052 1.383 . S
C2058 C2057 1.379 . S
H2059 C2053 0.959 . S
H2060 C2053 0.961 . S
H2061 C2053 0.960 . S
H2062 C2054 0.930 . S
H2063 C2055 0.929 . S
H2064 C2072 0.929 . S
H2065 C2074 0.930 . S
H2066 C2076 0.930 . S
H2067 C2079 0.929 . S
H2068 C2082 0.930 . S
H2069 C2084 0.960 . S
H2070 C2084 0.960 . S
H2071 C2084 0.960 . S
C2072 H2064 0.929 . S
C2072 C2073 1.377 . S
C2072 C2074 1.384 . S
C2073 C2072 1.377 . S
C2073 C2079 1.390 . S
C2074 H2065 0.930 . S
C2074 C2072 1.384 . S
C2074 C2075 1.372 . S
C2075 C2074 1.372 . S
C2075 C2076 1.400 . S
C2075 C2080 1.490 . S
C2076 H2066 0.930 . S
C2076 C2075 1.400 . S
C2076 C2079 1.386 . S
H2077 C2093 0.930 . S
H2078 C2094 0.931 . S
C2079 H2067 0.929 . S
C2079 C2073 1.390 . S
C2079 C2076 1.386 . S
C2080 C2075 1.490 . S
C2080 C2082 1.395 . S
C2080 C2083 1.403 . S
H2081 C2087 0.930 . S
C2082 H2068 0.930 . S
C2082 C2080 1.395 . S
C2082 C2085 1.403 . S
C2083 C2080 1.403 . S
C2083 C2084 1.524 . S
C2083 C2087 1.400 . S
C2084 H2069 0.960 . S
C2084 H2070 0.960 . S
C2084 H2071 0.960 . S
C2084 C2083 1.524 . S
C2085 C2082 1.403 . S
C2085 C2086 1.392 . S
C2085 C2089 1.495 . S
C2086 C2085 1.392 . S
C2086 C2087 1.385 . S
C2086 C2088 1.478 . S
C2087 H2081 0.930 . S
C2087 C2083 1.400 . S
C2087 C2086 1.385 . S
C2088 C2086 1.478 . S
C2088 C2090 1.381 . S
C2088 C2094 1.383 . S
C2089 C2085 1.495 . S
C2089 H2095 0.959 . S
C2089 H2096 0.961 . S
C2089 H2097 0.960 . S
C2090 C2088 1.381 . S
C2090 C2091 1.394 . S
C2090 H2098 0.930 . S
C2091 C2090 1.394 . S
C2091 C2092 1.383 . S
C2091 H2099 0.929 . S
C2092 C2091 1.383 . S
C2092 C2093 1.377 . S
C2093 H2077 0.930 . S
C2093 C2092 1.377 . S
C2093 C2094 1.379 . S
C2094 H2078 0.931 . S
C2094 C2088 1.383 . S
C2094 C2093 1.379 . S
H2095 C2089 0.959 . S
H2096 C2089 0.961 . S
H2097 C2089 0.960 . S
H2098 C2090 0.930 . S
H2099 C2091 0.929 . S
H2100 C2108 0.929 . S
H2101 C2110 0.930 . S
H2102 C2112 0.930 . S
H2103 C2115 0.929 . S
H2104 C2118 0.930 . S
H2105 C2120 0.960 . S
H2106 C2120 0.960 . S
H2107 C2120 0.960 . S
C2108 H2100 0.929 . S
C2108 C2109 1.377 . S
C2108 C2110 1.384 . S
C2109 C2108 1.377 . S
C2109 C2115 1.390 . S
C2110 H2101 0.930 . S
C2110 C2108 1.384 . S
C2110 C2111 1.372 . S
C2111 C2110 1.372 . S
C2111 C2112 1.400 . S
C2111 C2116 1.490 . S
C2112 H2102 0.930 . S
C2112 C2111 1.400 . S
C2112 C2115 1.386 . S
H2113 C2129 0.930 . S
H2114 C2130 0.931 . S
C2115 H2103 0.929 . S
C2115 C2109 1.390 . S
C2115 C2112 1.386 . S
C2116 C2111 1.490 . S
C2116 C2118 1.395 . S
C2116 C2119 1.403 . S
H2117 C2123 0.930 . S
C2118 H2104 0.930 . S
C2118 C2116 1.395 . S
C2118 C2121 1.403 . S
C2119 C2116 1.403 . S
C2119 C2120 1.524 . S
C2119 C2123 1.400 . S
C2120 H2105 0.960 . S
C2120 H2106 0.960 . S
C2120 H2107 0.960 . S
C2120 C2119 1.524 . S
C2121 C2118 1.403 . S
C2121 C2122 1.392 . S
C2121 C2125 1.495 . S
C2122 C2121 1.392 . S
C2122 C2123 1.385 . S
C2122 C2124 1.478 . S
C2123 H2117 0.930 . S
C2123 C2119 1.400 . S
C2123 C2122 1.385 . S
C2124 C2122 1.478 . S
C2124 C2126 1.381 . S
C2124 C2130 1.383 . S
C2125 C2121 1.495 . S
C2125 H2131 0.959 . S
C2125 H2132 0.961 . S
C2125 H2133 0.960 . S
C2126 C2124 1.381 . S
C2126 C2127 1.394 . S
C2126 H2134 0.930 . S
C2127 C2126 1.394 . S
C2127 C2128 1.383 . S
C2127 H2135 0.929 . S
C2128 C2127 1.383 . S
C2128 C2129 1.377 . S
C2129 H2113 0.930 . S
C2129 C2128 1.377 . S
C2129 C2130 1.379 . S
C2130 H2114 0.931 . S
C2130 C2124 1.383 . S
C2130 C2129 1.379 . S
H2131 C2125 0.959 . S
H2132 C2125 0.961 . S
H2133 C2125 0.960 . S
H2134 C2126 0.930 . S
H2135 C2127 0.929 . S
H2136 C2144 0.929 . S
H2137 C2146 0.930 . S
H2138 C2148 0.930 . S
H2139 C2151 0.929 . S
H2140 C2154 0.930 . S
H2141 C2156 0.960 . S
H2142 C2156 0.960 . S
H2143 C2156 0.960 . S
C2144 H2136 0.929 . S
C2144 C2145 1.377 . S
C2144 C2146 1.384 . S
C2145 C2144 1.377 . S
C2145 C2151 1.390 . S
C2146 H2137 0.930 . S
C2146 C2144 1.384 . S
C2146 C2147 1.372 . S
C2147 C2146 1.372 . S
C2147 C2148 1.400 . S
C2147 C2152 1.490 . S
C2148 H2138 0.930 . S
C2148 C2147 1.400 . S
C2148 C2151 1.386 . S
H2149 C2165 0.930 . S
H2150 C2166 0.931 . S
C2151 H2139 0.929 . S
C2151 C2145 1.390 . S
C2151 C2148 1.386 . S
C2152 C2147 1.490 . S
C2152 C2154 1.395 . S
C2152 C2155 1.403 . S
H2153 C2159 0.930 . S
C2154 H2140 0.930 . S
C2154 C2152 1.395 . S
C2154 C2157 1.403 . S
C2155 C2152 1.403 . S
C2155 C2156 1.524 . S
C2155 C2159 1.400 . S
C2156 H2141 0.960 . S
C2156 H2142 0.960 . S
C2156 H2143 0.960 . S
C2156 C2155 1.524 . S
C2157 C2154 1.403 . S
C2157 C2158 1.392 . S
C2157 C2161 1.495 . S
C2158 C2157 1.392 . S
C2158 C2159 1.385 . S
C2158 C2160 1.478 . S
C2159 H2153 0.930 . S
C2159 C2155 1.400 . S
C2159 C2158 1.385 . S
C2160 C2158 1.478 . S
C2160 C2162 1.381 . S
C2160 C2166 1.383 . S
C2161 C2157 1.495 . S
C2161 H2167 0.959 . S
C2161 H2168 0.961 . S
C2161 H2169 0.960 . S
C2162 C2160 1.381 . S
C2162 C2163 1.394 . S
C2162 H2170 0.930 . S
C2163 C2162 1.394 . S
C2163 C2164 1.383 . S
C2163 H2171 0.929 . S
C2164 C2163 1.383 . S
C2164 C2165 1.377 . S
C2165 H2149 0.930 . S
C2165 C2164 1.377 . S
C2165 C2166 1.379 . S
C2166 H2150 0.931 . S
C2166 C2160 1.383 . S
C2166 C2165 1.379 . S
H2167 C2161 0.959 . S
H2168 C2161 0.961 . S
H2169 C2161 0.960 . S
H2170 C2162 0.930 . S
H2171 C2163 0.929 . S
H2172 C2180 0.929 . S
H2173 C2182 0.930 . S
H2174 C2184 0.930 . S
H2175 C2187 0.929 . S
H2176 C2190 0.930 . S
H2177 C2192 0.960 . S
H2178 C2192 0.960 . S
H2179 C2192 0.960 . S
C2180 H2172 0.929 . S
C2180 C2181 1.377 . S
C2180 C2182 1.384 . S
C2181 C2180 1.377 . S
C2181 C2187 1.390 . S
C2182 H2173 0.930 . S
C2182 C2180 1.384 . S
C2182 C2183 1.372 . S
C2183 C2182 1.372 . S
C2183 C2184 1.400 . S
C2183 C2188 1.490 . S
C2184 H2174 0.930 . S
C2184 C2183 1.400 . S
C2184 C2187 1.386 . S
H2185 C2201 0.930 . S
H2186 C2202 0.931 . S
C2187 H2175 0.929 . S
C2187 C2181 1.390 . S
C2187 C2184 1.386 . S
C2188 C2183 1.490 . S
C2188 C2190 1.395 . S
C2188 C2191 1.403 . S
H2189 C2195 0.930 . S
C2190 H2176 0.930 . S
C2190 C2188 1.395 . S
C2190 C2193 1.403 . S
C2191 C2188 1.403 . S
C2191 C2192 1.524 . S
C2191 C2195 1.400 . S
C2192 H2177 0.960 . S
C2192 H2178 0.960 . S
C2192 H2179 0.960 . S
C2192 C2191 1.524 . S
C2193 C2190 1.403 . S
C2193 C2194 1.392 . S
C2193 C2197 1.495 . S
C2194 C2193 1.392 . S
C2194 C2195 1.385 . S
C2194 C2196 1.478 . S
C2195 H2189 0.930 . S
C2195 C2191 1.400 . S
C2195 C2194 1.385 . S
C2196 C2194 1.478 . S
C2196 C2198 1.381 . S
C2196 C2202 1.383 . S
C2197 C2193 1.495 . S
C2197 H2203 0.959 . S
C2197 H2204 0.961 . S
C2197 H2205 0.960 . S
C2198 C2196 1.381 . S
C2198 C2199 1.394 . S
C2198 H2206 0.930 . S
C2199 C2198 1.394 . S
C2199 C2200 1.383 . S
C2199 H2207 0.929 . S
C2200 C2199 1.383 . S
C2200 C2201 1.377 . S
C2201 H2185 0.930 . S
C2201 C2200 1.377 . S
C2201 C2202 1.379 . S
C2202 H2186 0.931 . S
C2202 C2196 1.383 . S
C2202 C2201 1.379 . S
H2203 C2197 0.959 . S
H2204 C2197 0.961 . S
H2205 C2197 0.960 . S
H2206 C2198 0.930 . S
H2207 C2199 0.929 . S
H2208 C2216 0.929 . S
H2209 C2218 0.930 . S
H2210 C2220 0.930 . S
H2211 C2223 0.929 . S
H2212 C2226 0.930 . S
H2213 C2228 0.960 . S
H2214 C2228 0.960 . S
H2215 C2228 0.960 . S
C2216 H2208 0.929 . S
C2216 C2217 1.377 . S
C2216 C2218 1.384 . S
C2217 C2216 1.377 . S
C2217 C2223 1.390 . S
C2218 H2209 0.930 . S
C2218 C2216 1.384 . S
C2218 C2219 1.372 . S
C2219 C2218 1.372 . S
C2219 C2220 1.400 . S
C2219 C2224 1.490 . S
C2220 H2210 0.930 . S
C2220 C2219 1.400 . S
C2220 C2223 1.386 . S
H2221 C2237 0.930 . S
H2222 C2238 0.931 . S
C2223 H2211 0.929 . S
C2223 C2217 1.390 . S
C2223 C2220 1.386 . S
C2224 C2219 1.490 . S
C2224 C2226 1.395 . S
C2224 C2227 1.403 . S
H2225 C2231 0.930 . S
C2226 H2212 0.930 . S
C2226 C2224 1.395 . S
C2226 C2229 1.403 . S
C2227 C2224 1.403 . S
C2227 C2228 1.524 . S
C2227 C2231 1.400 . S
C2228 H2213 0.960 . S
C2228 H2214 0.960 . S
C2228 H2215 0.960 . S
C2228 C2227 1.524 . S
C2229 C2226 1.403 . S
C2229 C2230 1.392 . S
C2229 C2233 1.495 . S
C2230 C2229 1.392 . S
C2230 C2231 1.385 . S
C2230 C2232 1.478 . S
C2231 H2225 0.930 . S
C2231 C2227 1.400 . S
C2231 C2230 1.385 . S
C2232 C2230 1.478 . S
C2232 C2234 1.381 . S
C2232 C2238 1.383 . S
C2233 C2229 1.495 . S
C2233 H2239 0.959 . S
C2233 H2240 0.961 . S
C2233 H2241 0.960 . S
C2234 C2232 1.381 . S
C2234 C2235 1.394 . S
C2234 H2242 0.930 . S
C2235 C2234 1.394 . S
C2235 C2236 1.383 . S
C2235 H2243 0.929 . S
C2236 C2235 1.383 . S
C2236 C2237 1.377 . S
C2237 H2221 0.930 . S
C2237 C2236 1.377 . S
C2237 C2238 1.379 . S
C2238 H2222 0.931 . S
C2238 C2232 1.383 . S
C2238 C2237 1.379 . S
H2239 C2233 0.959 . S
H2240 C2233 0.961 . S
H2241 C2233 0.960 . S
H2242 C2234 0.930 . S
H2243 C2235 0.929 . S
H2244 C2252 0.929 . S
H2245 C2254 0.930 . S
H2246 C2256 0.930 . S
H2247 C2259 0.929 . S
H2248 C2262 0.930 . S
H2249 C2264 0.960 . S
H2250 C2264 0.960 . S
H2251 C2264 0.960 . S
C2252 H2244 0.929 . S
C2252 C2253 1.377 . S
C2252 C2254 1.384 . S
C2253 C2252 1.377 . S
C2253 C2259 1.390 . S
C2254 H2245 0.930 . S
C2254 C2252 1.384 . S
C2254 C2255 1.372 . S
C2255 C2254 1.372 . S
C2255 C2256 1.400 . S
C2255 C2260 1.490 . S
C2256 H2246 0.930 . S
C2256 C2255 1.400 . S
C2256 C2259 1.386 . S
H2257 C2273 0.930 . S
H2258 C2274 0.931 . S
C2259 H2247 0.929 . S
C2259 C2253 1.390 . S
C2259 C2256 1.386 . S
C2260 C2255 1.490 . S
C2260 C2262 1.395 . S
C2260 C2263 1.403 . S
H2261 C2267 0.930 . S
C2262 H2248 0.930 . S
C2262 C2260 1.395 . S
C2262 C2265 1.403 . S
C2263 C2260 1.403 . S
C2263 C2264 1.524 . S
C2263 C2267 1.400 . S
C2264 H2249 0.960 . S
C2264 H2250 0.960 . S
C2264 H2251 0.960 . S
C2264 C2263 1.524 . S
C2265 C2262 1.403 . S
C2265 C2266 1.392 . S
C2265 C2269 1.495 . S
C2266 C2265 1.392 . S
C2266 C2267 1.385 . S
C2266 C2268 1.478 . S
C2267 H2261 0.930 . S
C2267 C2263 1.400 . S
C2267 C2266 1.385 . S
C2268 C2266 1.478 . S
C2268 C2270 1.381 . S
C2268 C2274 1.383 . S
C2269 C2265 1.495 . S
C2269 H2275 0.959 . S
C2269 H2276 0.961 . S
C2269 H2277 0.960 . S
C2270 C2268 1.381 . S
C2270 C2271 1.394 . S
C2270 H2278 0.930 . S
C2271 C2270 1.394 . S
C2271 C2272 1.383 . S
C2271 H2279 0.929 . S
C2272 C2271 1.383 . S
C2272 C2273 1.377 . S
C2273 H2257 0.930 . S
C2273 C2272 1.377 . S
C2273 C2274 1.379 . S
C2274 H2258 0.931 . S
C2274 C2268 1.383 . S
C2274 C2273 1.379 . S
H2275 C2269 0.959 . S
H2276 C2269 0.961 . S
H2277 C2269 0.960 . S
H2278 C2270 0.930 . S
H2279 C2271 0.929 . S
H2280 C2288 0.929 . S
H2281 C2290 0.930 . S
H2282 C2292 0.930 . S
H2283 C2295 0.929 . S
H2284 C2298 0.930 . S
H2285 C2300 0.960 . S
H2286 C2300 0.960 . S
H2287 C2300 0.960 . S
C2288 H2280 0.929 . S
C2288 C2289 1.377 . S
C2288 C2290 1.384 . S
C2289 C2288 1.377 . S
C2289 C2295 1.390 . S
C2290 H2281 0.930 . S
C2290 C2288 1.384 . S
C2290 C2291 1.372 . S
C2291 C2290 1.372 . S
C2291 C2292 1.400 . S
C2291 C2296 1.490 . S
C2292 H2282 0.930 . S
C2292 C2291 1.400 . S
C2292 C2295 1.386 . S
H2293 C2309 0.930 . S
H2294 C2310 0.931 . S
C2295 H2283 0.929 . S
C2295 C2289 1.390 . S
C2295 C2292 1.386 . S
C2296 C2291 1.490 . S
C2296 C2298 1.395 . S
C2296 C2299 1.403 . S
H2297 C2303 0.930 . S
C2298 H2284 0.930 . S
C2298 C2296 1.395 . S
C2298 C2301 1.403 . S
C2299 C2296 1.403 . S
C2299 C2300 1.524 . S
C2299 C2303 1.400 . S
C2300 H2285 0.960 . S
C2300 H2286 0.960 . S
C2300 H2287 0.960 . S
C2300 C2299 1.524 . S
C2301 C2298 1.403 . S
C2301 C2302 1.392 . S
C2301 C2305 1.495 . S
C2302 C2301 1.392 . S
C2302 C2303 1.385 . S
C2302 C2304 1.478 . S
C2303 H2297 0.930 . S
C2303 C2299 1.400 . S
C2303 C2302 1.385 . S
C2304 C2302 1.478 . S
C2304 C2306 1.381 . S
C2304 C2310 1.383 . S
C2305 C2301 1.495 . S
C2305 H2311 0.959 . S
C2305 H2312 0.961 . S
C2305 H2313 0.960 . S
C2306 C2304 1.381 . S
C2306 C2307 1.394 . S
C2306 H2314 0.930 . S
C2307 C2306 1.394 . S
C2307 C2308 1.383 . S
C2307 H2315 0.929 . S
C2308 C2307 1.383 . S
C2308 C2309 1.377 . S
C2309 H2293 0.930 . S
C2309 C2308 1.377 . S
C2309 C2310 1.379 . S
C2310 H2294 0.931 . S
C2310 C2304 1.383 . S
C2310 C2309 1.379 . S
H2311 C2305 0.959 . S
H2312 C2305 0.961 . S
H2313 C2305 0.960 . S
H2314 C2306 0.930 . S
H2315 C2307 0.929 . S
H2316 C2324 0.929 . S
H2317 C2326 0.930 . S
H2318 C2328 0.930 . S
H2319 C2331 0.929 . S
H2320 C2334 0.930 . S
H2321 C2336 0.960 . S
H2322 C2336 0.960 . S
H2323 C2336 0.960 . S
C2324 H2316 0.929 . S
C2324 C2325 1.377 . S
C2324 C2326 1.384 . S
C2325 C2324 1.377 . S
C2325 C2331 1.390 . S
C2326 H2317 0.930 . S
C2326 C2324 1.384 . S
C2326 C2327 1.372 . S
C2327 C2326 1.372 . S
C2327 C2328 1.400 . S
C2327 C2332 1.490 . S
C2328 H2318 0.930 . S
C2328 C2327 1.400 . S
C2328 C2331 1.386 . S
H2329 C2345 0.930 . S
H2330 C2346 0.931 . S
C2331 H2319 0.929 . S
C2331 C2325 1.390 . S
C2331 C2328 1.386 . S
C2332 C2327 1.490 . S
C2332 C2334 1.395 . S
C2332 C2335 1.403 . S
H2333 C2339 0.930 . S
C2334 H2320 0.930 . S
C2334 C2332 1.395 . S
C2334 C2337 1.403 . S
C2335 C2332 1.403 . S
C2335 C2336 1.524 . S
C2335 C2339 1.400 . S
C2336 H2321 0.960 . S
C2336 H2322 0.960 . S
C2336 H2323 0.960 . S
C2336 C2335 1.524 . S
C2337 C2334 1.403 . S
C2337 C2338 1.392 . S
C2337 C2341 1.495 . S
C2338 C2337 1.392 . S
C2338 C2339 1.385 . S
C2338 C2340 1.478 . S
C2339 H2333 0.930 . S
C2339 C2335 1.400 . S
C2339 C2338 1.385 . S
C2340 C2338 1.478 . S
C2340 C2342 1.381 . S
C2340 C2346 1.383 . S
C2341 C2337 1.495 . S
C2341 H2347 0.959 . S
C2341 H2348 0.961 . S
C2341 H2349 0.960 . S
C2342 C2340 1.381 . S
C2342 C2343 1.394 . S
C2342 H2350 0.930 . S
C2343 C2342 1.394 . S
C2343 C2344 1.383 . S
C2343 H2351 0.929 . S
C2344 C2343 1.383 . S
C2344 C2345 1.377 . S
C2345 H2329 0.930 . S
C2345 C2344 1.377 . S
C2345 C2346 1.379 . S
C2346 H2330 0.931 . S
C2346 C2340 1.383 . S
C2346 C2345 1.379 . S
H2347 C2341 0.959 . S
H2348 C2341 0.961 . S
H2349 C2341 0.960 . S
H2350 C2342 0.930 . S
H2351 C2343 0.929 . S
H2352 C2360 0.929 . S
H2353 C2362 0.930 . S
H2354 C2364 0.930 . S
H2355 C2367 0.929 . S
H2356 C2370 0.930 . S
H2357 C2372 0.960 . S
H2358 C2372 0.960 . S
H2359 C2372 0.960 . S
C2360 H2352 0.929 . S
C2360 C2361 1.377 . S
C2360 C2362 1.384 . S
C2361 C2360 1.377 . S
C2361 C2367 1.390 . S
C2362 H2353 0.930 . S
C2362 C2360 1.384 . S
C2362 C2363 1.372 . S
C2363 C2362 1.372 . S
C2363 C2364 1.400 . S
C2363 C2368 1.490 . S
C2364 H2354 0.930 . S
C2364 C2363 1.400 . S
C2364 C2367 1.386 . S
H2365 C2381 0.930 . S
H2366 C2382 0.931 . S
C2367 H2355 0.929 . S
C2367 C2361 1.390 . S
C2367 C2364 1.386 . S
C2368 C2363 1.490 . S
C2368 C2370 1.395 . S
C2368 C2371 1.403 . S
H2369 C2375 0.930 . S
C2370 H2356 0.930 . S
C2370 C2368 1.395 . S
C2370 C2373 1.403 . S
C2371 C2368 1.403 . S
C2371 C2372 1.524 . S
C2371 C2375 1.400 . S
C2372 H2357 0.960 . S
C2372 H2358 0.960 . S
C2372 H2359 0.960 . S
C2372 C2371 1.524 . S
C2373 C2370 1.403 . S
C2373 C2374 1.392 . S
C2373 C2377 1.495 . S
C2374 C2373 1.392 . S
C2374 C2375 1.385 . S
C2374 C2376 1.478 . S
C2375 H2369 0.930 . S
C2375 C2371 1.400 . S
C2375 C2374 1.385 . S
C2376 C2374 1.478 . S
C2376 C2378 1.381 . S
C2376 C2382 1.383 . S
C2377 C2373 1.495 . S
C2377 H2383 0.959 . S
C2377 H2384 0.961 . S
C2377 H2385 0.960 . S
C2378 C2376 1.381 . S
C2378 C2379 1.394 . S
C2378 H2386 0.930 . S
C2379 C2378 1.394 . S
C2379 C2380 1.383 . S
C2379 H2387 0.929 . S
C2380 C2379 1.383 . S
C2380 C2381 1.377 . S
C2381 H2365 0.930 . S
C2381 C2380 1.377 . S
C2381 C2382 1.379 . S
C2382 H2366 0.931 . S
C2382 C2376 1.383 . S
C2382 C2381 1.379 . S
H2383 C2377 0.959 . S
H2384 C2377 0.961 . S
H2385 C2377 0.960 . S
H2386 C2378 0.930 . S
H2387 C2379 0.929 . S
H2388 C2396 0.929 . S
H2389 C2398 0.930 . S
H2390 C2400 0.930 . S
H2391 C2403 0.929 . S
H2392 C2406 0.930 . S
H2393 C2408 0.960 . S
H2394 C2408 0.960 . S
H2395 C2408 0.960 . S
C2396 H2388 0.929 . S
C2396 C2397 1.377 . S
C2396 C2398 1.384 . S
C2397 C2396 1.377 . S
C2397 C2403 1.390 . S
C2398 H2389 0.930 . S
C2398 C2396 1.384 . S
C2398 C2399 1.372 . S
C2399 C2398 1.372 . S
C2399 C2400 1.400 . S
C2399 C2404 1.490 . S
C2400 H2390 0.930 . S
C2400 C2399 1.400 . S
C2400 C2403 1.386 . S
H2401 C2417 0.930 . S
H2402 C2418 0.931 . S
C2403 H2391 0.929 . S
C2403 C2397 1.390 . S
C2403 C2400 1.386 . S
C2404 C2399 1.490 . S
C2404 C2406 1.395 . S
C2404 C2407 1.403 . S
H2405 C2411 0.930 . S
C2406 H2392 0.930 . S
C2406 C2404 1.395 . S
C2406 C2409 1.403 . S
C2407 C2404 1.403 . S
C2407 C2408 1.524 . S
C2407 C2411 1.400 . S
C2408 H2393 0.960 . S
C2408 H2394 0.960 . S
C2408 H2395 0.960 . S
C2408 C2407 1.524 . S
C2409 C2406 1.403 . S
C2409 C2410 1.392 . S
C2409 C2413 1.495 . S
C2410 C2409 1.392 . S
C2410 C2411 1.385 . S
C2410 C2412 1.478 . S
C2411 H2405 0.930 . S
C2411 C2407 1.400 . S
C2411 C2410 1.385 . S
C2412 C2410 1.478 . S
C2412 C2414 1.381 . S
C2412 C2418 1.383 . S
C2413 C2409 1.495 . S
C2413 H2419 0.959 . S
C2413 H2420 0.961 . S
C2413 H2421 0.960 . S
C2414 C2412 1.381 . S
C2414 C2415 1.394 . S
C2414 H2422 0.930 . S
C2415 C2414 1.394 . S
C2415 C2416 1.383 . S
C2415 H2423 0.929 . S
C2416 C2415 1.383 . S
C2416 C2417 1.377 . S
C2417 H2401 0.930 . S
C2417 C2416 1.377 . S
C2417 C2418 1.379 . S
C2418 H2402 0.931 . S
C2418 C2412 1.383 . S
C2418 C2417 1.379 . S
H2419 C2413 0.959 . S
H2420 C2413 0.961 . S
H2421 C2413 0.960 . S
H2422 C2414 0.930 . S
H2423 C2415 0.929 . S
H2424 C2432 0.929 . S
H2425 C2434 0.930 . S
H2426 C2436 0.930 . S
H2427 C2439 0.929 . S
H2428 C2442 0.930 . S
H2429 C2444 0.960 . S
H2430 C2444 0.960 . S
H2431 C2444 0.960 . S
C2432 H2424 0.929 . S
C2432 C2433 1.377 . S
C2432 C2434 1.384 . S
C2433 C2432 1.377 . S
C2433 C2439 1.390 . S
C2434 H2425 0.930 . S
C2434 C2432 1.384 . S
C2434 C2435 1.372 . S
C2435 C2434 1.372 . S
C2435 C2436 1.400 . S
C2435 C2440 1.490 . S
C2436 H2426 0.930 . S
C2436 C2435 1.400 . S
C2436 C2439 1.386 . S
H2437 C2453 0.930 . S
H2438 C2454 0.931 . S
C2439 H2427 0.929 . S
C2439 C2433 1.390 . S
C2439 C2436 1.386 . S
C2440 C2435 1.490 . S
C2440 C2442 1.395 . S
C2440 C2443 1.403 . S
H2441 C2447 0.930 . S
C2442 H2428 0.930 . S
C2442 C2440 1.395 . S
C2442 C2445 1.403 . S
C2443 C2440 1.403 . S
C2443 C2444 1.524 . S
C2443 C2447 1.400 . S
C2444 H2429 0.960 . S
C2444 H2430 0.960 . S
C2444 H2431 0.960 . S
C2444 C2443 1.524 . S
C2445 C2442 1.403 . S
C2445 C2446 1.392 . S
C2445 C2449 1.495 . S
C2446 C2445 1.392 . S
C2446 C2447 1.385 . S
C2446 C2448 1.478 . S
C2447 H2441 0.930 . S
C2447 C2443 1.400 . S
C2447 C2446 1.385 . S
C2448 C2446 1.478 . S
C2448 C2450 1.381 . S
C2448 C2454 1.383 . S
C2449 C2445 1.495 . S
C2449 H2455 0.959 . S
C2449 H2456 0.961 . S
C2449 H2457 0.960 . S
C2450 C2448 1.381 . S
C2450 C2451 1.394 . S
C2450 H2458 0.930 . S
C2451 C2450 1.394 . S
C2451 C2452 1.383 . S
C2451 H2459 0.929 . S
C2452 C2451 1.383 . S
C2452 C2453 1.377 . S
C2453 H2437 0.930 . S
C2453 C2452 1.377 . S
C2453 C2454 1.379 . S
C2454 H2438 0.931 . S
C2454 C2448 1.383 . S
C2454 C2453 1.379 . S
H2455 C2449 0.959 . S
H2456 C2449 0.961 . S
H2457 C2449 0.960 . S
H2458 C2450 0.930 . S
H2459 C2451 0.929 . S
H2460 C2468 0.929 . S
H2461 C2470 0.930 . S
H2462 C2472 0.930 . S
H2463 C2475 0.929 . S
H2464 C2478 0.930 . S
H2465 C2480 0.960 . S
H2466 C2480 0.960 . S
H2467 C2480 0.960 . S
C2468 H2460 0.929 . S
C2468 C2469 1.377 . S
C2468 C2470 1.384 . S
C2469 C2468 1.377 . S
C2469 C2475 1.390 . S
C2470 H2461 0.930 . S
C2470 C2468 1.384 . S
C2470 C2471 1.372 . S
C2471 C2470 1.372 . S
C2471 C2472 1.400 . S
C2471 C2476 1.490 . S
C2472 H2462 0.930 . S
C2472 C2471 1.400 . S
C2472 C2475 1.386 . S
H2473 C2489 0.930 . S
H2474 C2490 0.931 . S
C2475 H2463 0.929 . S
C2475 C2469 1.390 . S
C2475 C2472 1.386 . S
C2476 C2471 1.490 . S
C2476 C2478 1.395 . S
C2476 C2479 1.403 . S
H2477 C2483 0.930 . S
C2478 H2464 0.930 . S
C2478 C2476 1.395 . S
C2478 C2481 1.403 . S
C2479 C2476 1.403 . S
C2479 C2480 1.524 . S
C2479 C2483 1.400 . S
C2480 H2465 0.960 . S
C2480 H2466 0.960 . S
C2480 H2467 0.960 . S
C2480 C2479 1.524 . S
C2481 C2478 1.403 . S
C2481 C2482 1.392 . S
C2481 C2485 1.495 . S
C2482 C2481 1.392 . S
C2482 C2483 1.385 . S
C2482 C2484 1.478 . S
C2483 H2477 0.930 . S
C2483 C2479 1.400 . S
C2483 C2482 1.385 . S
C2484 C2482 1.478 . S
C2484 C2486 1.381 . S
C2484 C2490 1.383 . S
C2485 C2481 1.495 . S
C2485 H2491 0.959 . S
C2485 H2492 0.961 . S
C2485 H2493 0.960 . S
C2486 C2484 1.381 . S
C2486 C2487 1.394 . S
C2486 H2494 0.930 . S
C2487 C2486 1.394 . S
C2487 C2488 1.383 . S
C2487 H2495 0.929 . S
C2488 C2487 1.383 . S
C2488 C2489 1.377 . S
C2489 H2473 0.930 . S
C2489 C2488 1.377 . S
C2489 C2490 1.379 . S
C2490 H2474 0.931 . S
C2490 C2484 1.383 . S
C2490 C2489 1.379 . S
H2491 C2485 0.959 . S
H2492 C2485 0.961 . S
H2493 C2485 0.960 . S
H2494 C2486 0.930 . S
H2495 C2487 0.929 . S
H2496 C2504 0.929 . S
H2497 C2506 0.930 . S
H2498 C2508 0.930 . S
H2499 C2511 0.929 . S
H2500 C2514 0.930 . S
H2501 C2516 0.960 . S
H2502 C2516 0.960 . S
H2503 C2516 0.960 . S
C2504 H2496 0.929 . S
C2504 C2505 1.377 . S
C2504 C2506 1.384 . S
C2505 C2504 1.377 . S
C2505 C2511 1.390 . S
C2506 H2497 0.930 . S
C2506 C2504 1.384 . S
C2506 C2507 1.372 . S
C2507 C2506 1.372 . S
C2507 C2508 1.400 . S
C2507 C2512 1.490 . S
C2508 H2498 0.930 . S
C2508 C2507 1.400 . S
C2508 C2511 1.386 . S
H2509 C2525 0.930 . S
H2510 C2526 0.931 . S
C2511 H2499 0.929 . S
C2511 C2505 1.390 . S
C2511 C2508 1.386 . S
C2512 C2507 1.490 . S
C2512 C2514 1.395 . S
C2512 C2515 1.403 . S
H2513 C2519 0.930 . S
C2514 H2500 0.930 . S
C2514 C2512 1.395 . S
C2514 C2517 1.403 . S
C2515 C2512 1.403 . S
C2515 C2516 1.524 . S
C2515 C2519 1.400 . S
C2516 H2501 0.960 . S
C2516 H2502 0.960 . S
C2516 H2503 0.960 . S
C2516 C2515 1.524 . S
C2517 C2514 1.403 . S
C2517 C2518 1.392 . S
C2517 C2521 1.495 . S
C2518 C2517 1.392 . S
C2518 C2519 1.385 . S
C2518 C2520 1.478 . S
C2519 H2513 0.930 . S
C2519 C2515 1.400 . S
C2519 C2518 1.385 . S
C2520 C2518 1.478 . S
C2520 C2522 1.381 . S
C2520 C2526 1.383 . S
C2521 C2517 1.495 . S
C2521 H2527 0.959 . S
C2521 H2528 0.961 . S
C2521 H2529 0.960 . S
C2522 C2520 1.381 . S
C2522 C2523 1.394 . S
C2522 H2530 0.930 . S
C2523 C2522 1.394 . S
C2523 C2524 1.383 . S
C2523 H2531 0.929 . S
C2524 C2523 1.383 . S
C2524 C2525 1.377 . S
C2525 H2509 0.930 . S
C2525 C2524 1.377 . S
C2525 C2526 1.379 . S
C2526 H2510 0.931 . S
C2526 C2520 1.383 . S
C2526 C2525 1.379 . S
H2527 C2521 0.959 . S
H2528 C2521 0.961 . S
H2529 C2521 0.960 . S
H2530 C2522 0.930 . S
H2531 C2523 0.929 . S
H2532 C2540 0.929 . S
H2533 C2542 0.930 . S
H2534 C2544 0.930 . S
H2535 C2547 0.929 . S
H2536 C2550 0.930 . S
H2537 C2552 0.960 . S
H2538 C2552 0.960 . S
H2539 C2552 0.960 . S
C2540 H2532 0.929 . S
C2540 C2541 1.377 . S
C2540 C2542 1.384 . S
C2541 C2540 1.377 . S
C2541 C2547 1.390 . S
C2542 H2533 0.930 . S
C2542 C2540 1.384 . S
C2542 C2543 1.372 . S
C2543 C2542 1.372 . S
C2543 C2544 1.400 . S
C2543 C2548 1.490 . S
C2544 H2534 0.930 . S
C2544 C2543 1.400 . S
C2544 C2547 1.386 . S
H2545 C2561 0.930 . S
H2546 C2562 0.931 . S
C2547 H2535 0.929 . S
C2547 C2541 1.390 . S
C2547 C2544 1.386 . S
C2548 C2543 1.490 . S
C2548 C2550 1.395 . S
C2548 C2551 1.403 . S
H2549 C2555 0.930 . S
C2550 H2536 0.930 . S
C2550 C2548 1.395 . S
C2550 C2553 1.403 . S
C2551 C2548 1.403 . S
C2551 C2552 1.524 . S
C2551 C2555 1.400 . S
C2552 H2537 0.960 . S
C2552 H2538 0.960 . S
C2552 H2539 0.960 . S
C2552 C2551 1.524 . S
C2553 C2550 1.403 . S
C2553 C2554 1.392 . S
C2553 C2557 1.495 . S
C2554 C2553 1.392 . S
C2554 C2555 1.385 . S
C2554 C2556 1.478 . S
C2555 H2549 0.930 . S
C2555 C2551 1.400 . S
C2555 C2554 1.385 . S
C2556 C2554 1.478 . S
C2556 C2558 1.381 . S
C2556 C2562 1.383 . S
C2557 C2553 1.495 . S
C2557 H2563 0.959 . S
C2557 H2564 0.961 . S
C2557 H2565 0.960 . S
C2558 C2556 1.381 . S
C2558 C2559 1.394 . S
C2558 H2566 0.930 . S
C2559 C2558 1.394 . S
C2559 C2560 1.383 . S
C2559 H2567 0.929 . S
C2560 C2559 1.383 . S
C2560 C2561 1.377 . S
C2561 H2545 0.930 . S
C2561 C2560 1.377 . S
C2561 C2562 1.379 . S
C2562 H2546 0.931 . S
C2562 C2556 1.383 . S
C2562 C2561 1.379 . S
H2563 C2557 0.959 . S
H2564 C2557 0.961 . S
H2565 C2557 0.960 . S
H2566 C2558 0.930 . S
H2567 C2559 0.929 . S
H2568 C2576 0.929 . S
H2569 C2578 0.930 . S
H2570 C2580 0.930 . S
H2571 C2583 0.929 . S
H2572 C2586 0.930 . S
H2573 C2588 0.960 . S
H2574 C2588 0.960 . S
H2575 C2588 0.960 . S
C2576 H2568 0.929 . S
C2576 C2577 1.377 . S
C2576 C2578 1.384 . S
C2577 C2576 1.377 . S
C2577 C2583 1.390 . S
C2578 H2569 0.930 . S
C2578 C2576 1.384 . S
C2578 C2579 1.372 . S
C2579 C2578 1.372 . S
C2579 C2580 1.400 . S
C2579 C2584 1.490 . S
C2580 H2570 0.930 . S
C2580 C2579 1.400 . S
C2580 C2583 1.386 . S
H2581 C2597 0.930 . S
H2582 C2598 0.931 . S
C2583 H2571 0.929 . S
C2583 C2577 1.390 . S
C2583 C2580 1.386 . S
C2584 C2579 1.490 . S
C2584 C2586 1.395 . S
C2584 C2587 1.403 . S
H2585 C2591 0.930 . S
C2586 H2572 0.930 . S
C2586 C2584 1.395 . S
C2586 C2589 1.403 . S
C2587 C2584 1.403 . S
C2587 C2588 1.524 . S
C2587 C2591 1.400 . S
C2588 H2573 0.960 . S
C2588 H2574 0.960 . S
C2588 H2575 0.960 . S
C2588 C2587 1.524 . S
C2589 C2586 1.403 . S
C2589 C2590 1.392 . S
C2589 C2593 1.495 . S
C2590 C2589 1.392 . S
C2590 C2591 1.385 . S
C2590 C2592 1.478 . S
C2591 H2585 0.930 . S
C2591 C2587 1.400 . S
C2591 C2590 1.385 . S
C2592 C2590 1.478 . S
C2592 C2594 1.381 . S
C2592 C2598 1.383 . S
C2593 C2589 1.495 . S
C2593 H2599 0.959 . S
C2593 H2600 0.961 . S
C2593 H2601 0.960 . S
C2594 C2592 1.381 . S
C2594 C2595 1.394 . S
C2594 H2602 0.930 . S
C2595 C2594 1.394 . S
C2595 C2596 1.383 . S
C2595 H2603 0.929 . S
C2596 C2595 1.383 . S
C2596 C2597 1.377 . S
C2597 H2581 0.930 . S
C2597 C2596 1.377 . S
C2597 C2598 1.379 . S
C2598 H2582 0.931 . S
C2598 C2592 1.383 . S
C2598 C2597 1.379 . S
H2599 C2593 0.959 . S
H2600 C2593 0.961 . S
H2601 C2593 0.960 . S
H2602 C2594 0.930 . S
H2603 C2595 0.929 . S
H2604 C2612 0.929 . S
H2605 C2614 0.930 . S
H2606 C2616 0.930 . S
H2607 C2619 0.929 . S
H2608 C2622 0.930 . S
H2609 C2624 0.960 . S
H2610 C2624 0.960 . S
H2611 C2624 0.960 . S
C2612 H2604 0.929 . S
C2612 C2613 1.377 . S
C2612 C2614 1.384 . S
C2613 C2612 1.377 . S
C2613 C2619 1.390 . S
C2614 H2605 0.930 . S
C2614 C2612 1.384 . S
C2614 C2615 1.372 . S
C2615 C2614 1.372 . S
C2615 C2616 1.400 . S
C2615 C2620 1.490 . S
C2616 H2606 0.930 . S
C2616 C2615 1.400 . S
C2616 C2619 1.386 . S
H2617 C2633 0.930 . S
H2618 C2634 0.931 . S
C2619 H2607 0.929 . S
C2619 C2613 1.390 . S
C2619 C2616 1.386 . S
C2620 C2615 1.490 . S
C2620 C2622 1.395 . S
C2620 C2623 1.403 . S
H2621 C2627 0.930 . S
C2622 H2608 0.930 . S
C2622 C2620 1.395 . S
C2622 C2625 1.403 . S
C2623 C2620 1.403 . S
C2623 C2624 1.524 . S
C2623 C2627 1.400 . S
C2624 H2609 0.960 . S
C2624 H2610 0.960 . S
C2624 H2611 0.960 . S
C2624 C2623 1.524 . S
C2625 C2622 1.403 . S
C2625 C2626 1.392 . S
C2625 C2629 1.495 . S
C2626 C2625 1.392 . S
C2626 C2627 1.385 . S
C2626 C2628 1.478 . S
C2627 H2621 0.930 . S
C2627 C2623 1.400 . S
C2627 C2626 1.385 . S
C2628 C2626 1.478 . S
C2628 C2630 1.381 . S
C2628 C2634 1.383 . S
C2629 C2625 1.495 . S
C2629 H2635 0.959 . S
C2629 H2636 0.961 . S
C2629 H2637 0.960 . S
C2630 C2628 1.381 . S
C2630 C2631 1.394 . S
C2630 H2638 0.930 . S
C2631 C2630 1.394 . S
C2631 C2632 1.383 . S
C2631 H2639 0.929 . S
C2632 C2631 1.383 . S
C2632 C2633 1.377 . S
C2633 H2617 0.930 . S
C2633 C2632 1.377 . S
C2633 C2634 1.379 . S
C2634 H2618 0.931 . S
C2634 C2628 1.383 . S
C2634 C2633 1.379 . S
H2635 C2629 0.959 . S
H2636 C2629 0.961 . S
H2637 C2629 0.960 . S
H2638 C2630 0.930 . S
H2639 C2631 0.929 . S
H2640 C2648 0.929 . S
H2641 C2650 0.930 . S
H2642 C2652 0.930 . S
H2643 C2655 0.929 . S
H2644 C2658 0.930 . S
H2645 C2660 0.960 . S
H2646 C2660 0.960 . S
H2647 C2660 0.960 . S
C2648 H2640 0.929 . S
C2648 C2649 1.377 . S
C2648 C2650 1.384 . S
C2649 C2648 1.377 . S
C2649 C2655 1.390 . S
C2650 H2641 0.930 . S
C2650 C2648 1.384 . S
C2650 C2651 1.372 . S
C2651 C2650 1.372 . S
C2651 C2652 1.400 . S
C2651 C2656 1.490 . S
C2652 H2642 0.930 . S
C2652 C2651 1.400 . S
C2652 C2655 1.386 . S
H2653 C2669 0.930 . S
H2654 C2670 0.931 . S
C2655 H2643 0.929 . S
C2655 C2649 1.390 . S
C2655 C2652 1.386 . S
C2656 C2651 1.490 . S
C2656 C2658 1.395 . S
C2656 C2659 1.403 . S
H2657 C2663 0.930 . S
C2658 H2644 0.930 . S
C2658 C2656 1.395 . S
C2658 C2661 1.403 . S
C2659 C2656 1.403 . S
C2659 C2660 1.524 . S
C2659 C2663 1.400 . S
C2660 H2645 0.960 . S
C2660 H2646 0.960 . S
C2660 H2647 0.960 . S
C2660 C2659 1.524 . S
C2661 C2658 1.403 . S
C2661 C2662 1.392 . S
C2661 C2665 1.495 . S
C2662 C2661 1.392 . S
C2662 C2663 1.385 . S
C2662 C2664 1.478 . S
C2663 H2657 0.930 . S
C2663 C2659 1.400 . S
C2663 C2662 1.385 . S
C2664 C2662 1.478 . S
C2664 C2666 1.381 . S
C2664 C2670 1.383 . S
C2665 C2661 1.495 . S
C2665 H2671 0.959 . S
C2665 H2672 0.961 . S
C2665 H2673 0.960 . S
C2666 C2664 1.381 . S
C2666 C2667 1.394 . S
C2666 H2674 0.930 . S
C2667 C2666 1.394 . S
C2667 C2668 1.383 . S
C2667 H2675 0.929 . S
C2668 C2667 1.383 . S
C2668 C2669 1.377 . S
C2669 H2653 0.930 . S
C2669 C2668 1.377 . S
C2669 C2670 1.379 . S
C2670 H2654 0.931 . S
C2670 C2664 1.383 . S
C2670 C2669 1.379 . S
H2671 C2665 0.959 . S
H2672 C2665 0.961 . S
H2673 C2665 0.960 . S
H2674 C2666 0.930 . S
H2675 C2667 0.929 . S
H2676 C2684 0.929 . S
H2677 C2686 0.930 . S
H2678 C2688 0.930 . S
H2679 C2691 0.929 . S
H2680 C2694 0.930 . S
H2681 C2696 0.960 . S
H2682 C2696 0.960 . S
H2683 C2696 0.960 . S
C2684 H2676 0.929 . S
C2684 C2685 1.377 . S
C2684 C2686 1.384 . S
C2685 C2684 1.377 . S
C2685 C2691 1.390 . S
C2686 H2677 0.930 . S
C2686 C2684 1.384 . S
C2686 C2687 1.372 . S
C2687 C2686 1.372 . S
C2687 C2688 1.400 . S
C2687 C2692 1.490 . S
C2688 H2678 0.930 . S
C2688 C2687 1.400 . S
C2688 C2691 1.386 . S
H2689 C2705 0.930 . S
H2690 C2706 0.931 . S
C2691 H2679 0.929 . S
C2691 C2685 1.390 . S
C2691 C2688 1.386 . S
C2692 C2687 1.490 . S
C2692 C2694 1.395 . S
C2692 C2695 1.403 . S
H2693 C2699 0.930 . S
C2694 H2680 0.930 . S
C2694 C2692 1.395 . S
C2694 C2697 1.403 . S
C2695 C2692 1.403 . S
C2695 C2696 1.524 . S
C2695 C2699 1.400 . S
C2696 H2681 0.960 . S
C2696 H2682 0.960 . S
C2696 H2683 0.960 . S
C2696 C2695 1.524 . S
C2697 C2694 1.403 . S
C2697 C2698 1.392 . S
C2697 C2701 1.495 . S
C2698 C2697 1.392 . S
C2698 C2699 1.385 . S
C2698 C2700 1.478 . S
C2699 H2693 0.930 . S
C2699 C2695 1.400 . S
C2699 C2698 1.385 . S
C2700 C2698 1.478 . S
C2700 C2702 1.381 . S
C2700 C2706 1.383 . S
C2701 C2697 1.495 . S
C2701 H2707 0.959 . S
C2701 H2708 0.961 . S
C2701 H2709 0.960 . S
C2702 C2700 1.381 . S
C2702 C2703 1.394 . S
C2702 H2710 0.930 . S
C2703 C2702 1.394 . S
C2703 C2704 1.383 . S
C2703 H2711 0.929 . S
C2704 C2703 1.383 . S
C2704 C2705 1.377 . S
C2705 H2689 0.930 . S
C2705 C2704 1.377 . S
C2705 C2706 1.379 . S
C2706 H2690 0.931 . S
C2706 C2700 1.383 . S
C2706 C2705 1.379 . S
H2707 C2701 0.959 . S
H2708 C2701 0.961 . S
H2709 C2701 0.960 . S
H2710 C2702 0.930 . S
H2711 C2703 0.929 . S
H2712 C2720 0.929 . S
H2713 C2722 0.930 . S
H2714 C2724 0.930 . S
H2715 C2727 0.929 . S
H2716 C2730 0.930 . S
H2717 C2732 0.960 . S
H2718 C2732 0.960 . S
H2719 C2732 0.960 . S
C2720 H2712 0.929 . S
C2720 C2721 1.377 . S
C2720 C2722 1.384 . S
C2721 C2720 1.377 . S
C2721 C2727 1.390 . S
C2722 H2713 0.930 . S
C2722 C2720 1.384 . S
C2722 C2723 1.372 . S
C2723 C2722 1.372 . S
C2723 C2724 1.400 . S
C2723 C2728 1.490 . S
C2724 H2714 0.930 . S
C2724 C2723 1.400 . S
C2724 C2727 1.386 . S
H2725 C2741 0.930 . S
H2726 C2742 0.931 . S
C2727 H2715 0.929 . S
C2727 C2721 1.390 . S
C2727 C2724 1.386 . S
C2728 C2723 1.490 . S
C2728 C2730 1.395 . S
C2728 C2731 1.403 . S
H2729 C2735 0.930 . S
C2730 H2716 0.930 . S
C2730 C2728 1.395 . S
C2730 C2733 1.403 . S
C2731 C2728 1.403 . S
C2731 C2732 1.524 . S
C2731 C2735 1.400 . S
C2732 H2717 0.960 . S
C2732 H2718 0.960 . S
C2732 H2719 0.960 . S
C2732 C2731 1.524 . S
C2733 C2730 1.403 . S
C2733 C2734 1.392 . S
C2733 C2737 1.495 . S
C2734 C2733 1.392 . S
C2734 C2735 1.385 . S
C2734 C2736 1.478 . S
C2735 H2729 0.930 . S
C2735 C2731 1.400 . S
C2735 C2734 1.385 . S
C2736 C2734 1.478 . S
C2736 C2738 1.381 . S
C2736 C2742 1.383 . S
C2737 C2733 1.495 . S
C2737 H2743 0.959 . S
C2737 H2744 0.961 . S
C2737 H2745 0.960 . S
C2738 C2736 1.381 . S
C2738 C2739 1.394 . S
C2738 H2746 0.930 . S
C2739 C2738 1.394 . S
C2739 C2740 1.383 . S
C2739 H2747 0.929 . S
C2740 C2739 1.383 . S
C2740 C2741 1.377 . S
C2741 H2725 0.930 . S
C2741 C2740 1.377 . S
C2741 C2742 1.379 . S
C2742 H2726 0.931 . S
C2742 C2736 1.383 . S
C2742 C2741 1.379 . S
H2743 C2737 0.959 . S
H2744 C2737 0.961 . S
H2745 C2737 0.960 . S
H2746 C2738 0.930 . S
H2747 C2739 0.929 . S
H2748 C2756 0.929 . S
H2749 C2758 0.930 . S
H2750 C2760 0.930 . S
H2751 C2763 0.929 . S
H2752 C2766 0.930 . S
H2753 C2768 0.960 . S
H2754 C2768 0.960 . S
H2755 C2768 0.960 . S
C2756 H2748 0.929 . S
C2756 C2757 1.377 . S
C2756 C2758 1.384 . S
C2757 C2756 1.377 . S
C2757 C2763 1.390 . S
C2758 H2749 0.930 . S
C2758 C2756 1.384 . S
C2758 C2759 1.372 . S
C2759 C2758 1.372 . S
C2759 C2760 1.400 . S
C2759 C2764 1.490 . S
C2760 H2750 0.930 . S
C2760 C2759 1.400 . S
C2760 C2763 1.386 . S
H2761 C2777 0.930 . S
H2762 C2778 0.931 . S
C2763 H2751 0.929 . S
C2763 C2757 1.390 . S
C2763 C2760 1.386 . S
C2764 C2759 1.490 . S
C2764 C2766 1.395 . S
C2764 C2767 1.403 . S
H2765 C2771 0.930 . S
C2766 H2752 0.930 . S
C2766 C2764 1.395 . S
C2766 C2769 1.403 . S
C2767 C2764 1.403 . S
C2767 C2768 1.524 . S
C2767 C2771 1.400 . S
C2768 H2753 0.960 . S
C2768 H2754 0.960 . S
C2768 H2755 0.960 . S
C2768 C2767 1.524 . S
C2769 C2766 1.403 . S
C2769 C2770 1.392 . S
C2769 C2773 1.495 . S
C2770 C2769 1.392 . S
C2770 C2771 1.385 . S
C2770 C2772 1.478 . S
C2771 H2765 0.930 . S
C2771 C2767 1.400 . S
C2771 C2770 1.385 . S
C2772 C2770 1.478 . S
C2772 C2774 1.381 . S
C2772 C2778 1.383 . S
C2773 C2769 1.495 . S
C2773 H2779 0.959 . S
C2773 H2780 0.961 . S
C2773 H2781 0.960 . S
C2774 C2772 1.381 . S
C2774 C2775 1.394 . S
C2774 H2782 0.930 . S
C2775 C2774 1.394 . S
C2775 C2776 1.383 . S
C2775 H2783 0.929 . S
C2776 C2775 1.383 . S
C2776 C2777 1.377 . S
C2777 H2761 0.930 . S
C2777 C2776 1.377 . S
C2777 C2778 1.379 . S
C2778 H2762 0.931 . S
C2778 C2772 1.383 . S
C2778 C2777 1.379 . S
H2779 C2773 0.959 . S
H2780 C2773 0.961 . S
H2781 C2773 0.960 . S
H2782 C2774 0.930 . S
H2783 C2775 0.929 . S
H2784 C2792 0.929 . S
H2785 C2794 0.930 . S
H2786 C2796 0.930 . S
H2787 C2799 0.929 . S
H2788 C2802 0.930 . S
H2789 C2804 0.960 . S
H2790 C2804 0.960 . S
H2791 C2804 0.960 . S
C2792 H2784 0.929 . S
C2792 C2793 1.377 . S
C2792 C2794 1.384 . S
C2793 C2792 1.377 . S
C2793 C2799 1.390 . S
C2794 H2785 0.930 . S
C2794 C2792 1.384 . S
C2794 C2795 1.372 . S
C2795 C2794 1.372 . S
C2795 C2796 1.400 . S
C2795 C2800 1.490 . S
C2796 H2786 0.930 . S
C2796 C2795 1.400 . S
C2796 C2799 1.386 . S
H2797 C2813 0.930 . S
H2798 C2814 0.931 . S
C2799 H2787 0.929 . S
C2799 C2793 1.390 . S
C2799 C2796 1.386 . S
C2800 C2795 1.490 . S
C2800 C2802 1.395 . S
C2800 C2803 1.403 . S
H2801 C2807 0.930 . S
C2802 H2788 0.930 . S
C2802 C2800 1.395 . S
C2802 C2805 1.403 . S
C2803 C2800 1.403 . S
C2803 C2804 1.524 . S
C2803 C2807 1.400 . S
C2804 H2789 0.960 . S
C2804 H2790 0.960 . S
C2804 H2791 0.960 . S
C2804 C2803 1.524 . S
C2805 C2802 1.403 . S
C2805 C2806 1.392 . S
C2805 C2809 1.495 . S
C2806 C2805 1.392 . S
C2806 C2807 1.385 . S
C2806 C2808 1.478 . S
C2807 H2801 0.930 . S
C2807 C2803 1.400 . S
C2807 C2806 1.385 . S
C2808 C2806 1.478 . S
C2808 C2810 1.381 . S
C2808 C2814 1.383 . S
C2809 C2805 1.495 . S
C2809 H2815 0.959 . S
C2809 H2816 0.961 . S
C2809 H2817 0.960 . S
C2810 C2808 1.381 . S
C2810 C2811 1.394 . S
C2810 H2818 0.930 . S
C2811 C2810 1.394 . S
C2811 C2812 1.383 . S
C2811 H2819 0.929 . S
C2812 C2811 1.383 . S
C2812 C2813 1.377 . S
C2813 H2797 0.930 . S
C2813 C2812 1.377 . S
C2813 C2814 1.379 . S
C2814 H2798 0.931 . S
C2814 C2808 1.383 . S
C2814 C2813 1.379 . S
H2815 C2809 0.959 . S
H2816 C2809 0.961 . S
H2817 C2809 0.960 . S
H2818 C2810 0.930 . S
H2819 C2811 0.929 . S
H2820 C2828 0.929 . S
H2821 C2830 0.930 . S
H2822 C2832 0.930 . S
H2823 C2835 0.929 . S
H2824 C2838 0.930 . S
H2825 C2840 0.960 . S
H2826 C2840 0.960 . S
H2827 C2840 0.960 . S
C2828 H2820 0.929 . S
C2828 C2829 1.377 . S
C2828 C2830 1.384 . S
C2829 C2828 1.377 . S
C2829 C2835 1.390 . S
C2830 H2821 0.930 . S
C2830 C2828 1.384 . S
C2830 C2831 1.372 . S
C2831 C2830 1.372 . S
C2831 C2832 1.400 . S
C2831 C2836 1.490 . S
C2832 H2822 0.930 . S
C2832 C2831 1.400 . S
C2832 C2835 1.386 . S
H2833 C2849 0.930 . S
H2834 C2850 0.931 . S
C2835 H2823 0.929 . S
C2835 C2829 1.390 . S
C2835 C2832 1.386 . S
C2836 C2831 1.490 . S
C2836 C2838 1.395 . S
C2836 C2839 1.403 . S
H2837 C2843 0.930 . S
C2838 H2824 0.930 . S
C2838 C2836 1.395 . S
C2838 C2841 1.403 . S
C2839 C2836 1.403 . S
C2839 C2840 1.524 . S
C2839 C2843 1.400 . S
C2840 H2825 0.960 . S
C2840 H2826 0.960 . S
C2840 H2827 0.960 . S
C2840 C2839 1.524 . S
C2841 C2838 1.403 . S
C2841 C2842 1.392 . S
C2841 C2845 1.495 . S
C2842 C2841 1.392 . S
C2842 C2843 1.385 . S
C2842 C2844 1.478 . S
C2843 H2837 0.930 . S
C2843 C2839 1.400 . S
C2843 C2842 1.385 . S
C2844 C2842 1.478 . S
C2844 C2846 1.381 . S
C2844 C2850 1.383 . S
C2845 C2841 1.495 . S
C2845 H2851 0.959 . S
C2845 H2852 0.961 . S
C2845 H2853 0.960 . S
C2846 C2844 1.381 . S
C2846 C2847 1.394 . S
C2846 H2854 0.930 . S
C2847 C2846 1.394 . S
C2847 C2848 1.383 . S
C2847 H2855 0.929 . S
C2848 C2847 1.383 . S
C2848 C2849 1.377 . S
C2849 H2833 0.930 . S
C2849 C2848 1.377 . S
C2849 C2850 1.379 . S
C2850 H2834 0.931 . S
C2850 C2844 1.383 . S
C2850 C2849 1.379 . S
H2851 C2845 0.959 . S
H2852 C2845 0.961 . S
H2853 C2845 0.960 . S
H2854 C2846 0.930 . S
H2855 C2847 0.929 . S
H2856 C2864 0.929 . S
H2857 C2866 0.930 . S
H2858 C2868 0.930 . S
H2859 C2871 0.929 . S
H2860 C2874 0.930 . S
H2861 C2876 0.960 . S
H2862 C2876 0.960 . S
H2863 C2876 0.960 . S
C2864 H2856 0.929 . S
C2864 C2865 1.377 . S
C2864 C2866 1.384 . S
C2865 C2864 1.377 . S
C2865 C2871 1.390 . S
C2866 H2857 0.930 . S
C2866 C2864 1.384 . S
C2866 C2867 1.372 . S
C2867 C2866 1.372 . S
C2867 C2868 1.400 . S
C2867 C2872 1.490 . S
C2868 H2858 0.930 . S
C2868 C2867 1.400 . S
C2868 C2871 1.386 . S
H2869 C2885 0.930 . S
H2870 C2886 0.931 . S
C2871 H2859 0.929 . S
C2871 C2865 1.390 . S
C2871 C2868 1.386 . S
C2872 C2867 1.490 . S
C2872 C2874 1.395 . S
C2872 C2875 1.403 . S
H2873 C2879 0.930 . S
C2874 H2860 0.930 . S
C2874 C2872 1.395 . S
C2874 C2877 1.403 . S
C2875 C2872 1.403 . S
C2875 C2876 1.524 . S
C2875 C2879 1.400 . S
C2876 H2861 0.960 . S
C2876 H2862 0.960 . S
C2876 H2863 0.960 . S
C2876 C2875 1.524 . S
C2877 C2874 1.403 . S
C2877 C2878 1.392 . S
C2877 C2881 1.495 . S
C2878 C2877 1.392 . S
C2878 C2879 1.385 . S
C2878 C2880 1.478 . S
C2879 H2873 0.930 . S
C2879 C2875 1.400 . S
C2879 C2878 1.385 . S
C2880 C2878 1.478 . S
C2880 C2882 1.381 . S
C2880 C2886 1.383 . S
C2881 C2877 1.495 . S
C2881 H2887 0.959 . S
C2881 H2888 0.961 . S
C2881 H2889 0.960 . S
C2882 C2880 1.381 . S
C2882 C2883 1.394 . S
C2882 H2890 0.930 . S
C2883 C2882 1.394 . S
C2883 C2884 1.383 . S
C2883 H2891 0.929 . S
C2884 C2883 1.383 . S
C2884 C2885 1.377 . S
C2885 H2869 0.930 . S
C2885 C2884 1.377 . S
C2885 C2886 1.379 . S
C2886 H2870 0.931 . S
C2886 C2880 1.383 . S
C2886 C2885 1.379 . S
H2887 C2881 0.959 . S
H2888 C2881 0.961 . S
H2889 C2881 0.960 . S
H2890 C2882 0.930 . S
H2891 C2883 0.929 . S
H2892 C2900 0.929 . S
H2893 C2902 0.930 . S
H2894 C2904 0.930 . S
H2895 C2907 0.929 . S
H2896 C2910 0.930 . S
H2897 C2912 0.960 . S
H2898 C2912 0.960 . S
H2899 C2912 0.960 . S
C2900 H2892 0.929 . S
C2900 C2901 1.377 . S
C2900 C2902 1.384 . S
C2901 C2900 1.377 . S
C2901 C2907 1.390 . S
C2902 H2893 0.930 . S
C2902 C2900 1.384 . S
C2902 C2903 1.372 . S
C2903 C2902 1.372 . S
C2903 C2904 1.400 . S
C2903 C2908 1.490 . S
C2904 H2894 0.930 . S
C2904 C2903 1.400 . S
C2904 C2907 1.386 . S
H2905 C2921 0.930 . S
H2906 C2922 0.931 . S
C2907 H2895 0.929 . S
C2907 C2901 1.390 . S
C2907 C2904 1.386 . S
C2908 C2903 1.490 . S
C2908 C2910 1.395 . S
C2908 C2911 1.403 . S
H2909 C2915 0.930 . S
C2910 H2896 0.930 . S
C2910 C2908 1.395 . S
C2910 C2913 1.403 . S
C2911 C2908 1.403 . S
C2911 C2912 1.524 . S
C2911 C2915 1.400 . S
C2912 H2897 0.960 . S
C2912 H2898 0.960 . S
C2912 H2899 0.960 . S
C2912 C2911 1.524 . S
C2913 C2910 1.403 . S
C2913 C2914 1.392 . S
C2913 C2917 1.495 . S
C2914 C2913 1.392 . S
C2914 C2915 1.385 . S
C2914 C2916 1.478 . S
C2915 H2909 0.930 . S
C2915 C2911 1.400 . S
C2915 C2914 1.385 . S
C2916 C2914 1.478 . S
C2916 C2918 1.381 . S
C2916 C2922 1.383 . S
C2917 C2913 1.495 . S
C2917 H2923 0.959 . S
C2917 H2924 0.961 . S
C2917 H2925 0.960 . S
C2918 C2916 1.381 . S
C2918 C2919 1.394 . S
C2918 H2926 0.930 . S
C2919 C2918 1.394 . S
C2919 C2920 1.383 . S
C2919 H2927 0.929 . S
C2920 C2919 1.383 . S
C2920 C2921 1.377 . S
C2921 H2905 0.930 . S
C2921 C2920 1.377 . S
C2921 C2922 1.379 . S
C2922 H2906 0.931 . S
C2922 C2916 1.383 . S
C2922 C2921 1.379 . S
H2923 C2917 0.959 . S
H2924 C2917 0.961 . S
H2925 C2917 0.960 . S
H2926 C2918 0.930 . S
H2927 C2919 0.929 . S
H2928 C2936 0.929 . S
H2929 C2938 0.930 . S
H2930 C2940 0.930 . S
H2931 C2943 0.929 . S
H2932 C2946 0.930 . S
H2933 C2948 0.960 . S
H2934 C2948 0.960 . S
H2935 C2948 0.960 . S
C2936 H2928 0.929 . S
C2936 C2937 1.377 . S
C2936 C2938 1.384 . S
C2937 C2936 1.377 . S
C2937 C2943 1.390 . S
C2938 H2929 0.930 . S
C2938 C2936 1.384 . S
C2938 C2939 1.372 . S
C2939 C2938 1.372 . S
C2939 C2940 1.400 . S
C2939 C2944 1.490 . S
C2940 H2930 0.930 . S
C2940 C2939 1.400 . S
C2940 C2943 1.386 . S
H2941 C2957 0.930 . S
H2942 C2958 0.931 . S
C2943 H2931 0.929 . S
C2943 C2937 1.390 . S
C2943 C2940 1.386 . S
C2944 C2939 1.490 . S
C2944 C2946 1.395 . S
C2944 C2947 1.403 . S
H2945 C2951 0.930 . S
C2946 H2932 0.930 . S
C2946 C2944 1.395 . S
C2946 C2949 1.403 . S
C2947 C2944 1.403 . S
C2947 C2948 1.524 . S
C2947 C2951 1.400 . S
C2948 H2933 0.960 . S
C2948 H2934 0.960 . S
C2948 H2935 0.960 . S
C2948 C2947 1.524 . S
C2949 C2946 1.403 . S
C2949 C2950 1.392 . S
C2949 C2953 1.495 . S
C2950 C2949 1.392 . S
C2950 C2951 1.385 . S
C2950 C2952 1.478 . S
C2951 H2945 0.930 . S
C2951 C2947 1.400 . S
C2951 C2950 1.385 . S
C2952 C2950 1.478 . S
C2952 C2954 1.381 . S
C2952 C2958 1.383 . S
C2953 C2949 1.495 . S
C2953 H2959 0.959 . S
C2953 H2960 0.961 . S
C2953 H2961 0.960 . S
C2954 C2952 1.381 . S
C2954 C2955 1.394 . S
C2954 H2962 0.930 . S
C2955 C2954 1.394 . S
C2955 C2956 1.383 . S
C2955 H2963 0.929 . S
C2956 C2955 1.383 . S
C2956 C2957 1.377 . S
C2957 H2941 0.930 . S
C2957 C2956 1.377 . S
C2957 C2958 1.379 . S
C2958 H2942 0.931 . S
C2958 C2952 1.383 . S
C2958 C2957 1.379 . S
H2959 C2953 0.959 . S
H2960 C2953 0.961 . S
H2961 C2953 0.960 . S
H2962 C2954 0.930 . S
H2963 C2955 0.929 . S
H2964 C2972 0.929 . S
H2965 C2974 0.930 . S
H2966 C2976 0.930 . S
H2967 C2979 0.929 . S
H2968 C2982 0.930 . S
H2969 C2984 0.960 . S
H2970 C2984 0.960 . S
H2971 C2984 0.960 . S
C2972 H2964 0.929 . S
C2972 C2973 1.377 . S
C2972 C2974 1.384 . S
C2973 C2972 1.377 . S
C2973 C2979 1.390 . S
C2974 H2965 0.930 . S
C2974 C2972 1.384 . S
C2974 C2975 1.372 . S
C2975 C2974 1.372 . S
C2975 C2976 1.400 . S
C2975 C2980 1.490 . S
C2976 H2966 0.930 . S
C2976 C2975 1.400 . S
C2976 C2979 1.386 . S
H2977 C2993 0.930 . S
H2978 C2994 0.931 . S
C2979 H2967 0.929 . S
C2979 C2973 1.390 . S
C2979 C2976 1.386 . S
C2980 C2975 1.490 . S
C2980 C2982 1.395 . S
C2980 C2983 1.403 . S
H2981 C2987 0.930 . S
C2982 H2968 0.930 . S
C2982 C2980 1.395 . S
C2982 C2985 1.403 . S
C2983 C2980 1.403 . S
C2983 C2984 1.524 . S
C2983 C2987 1.400 . S
C2984 H2969 0.960 . S
C2984 H2970 0.960 . S
C2984 H2971 0.960 . S
C2984 C2983 1.524 . S
C2985 C2982 1.403 . S
C2985 C2986 1.392 . S
C2985 C2989 1.495 . S
C2986 C2985 1.392 . S
C2986 C2987 1.385 . S
C2986 C2988 1.478 . S
C2987 H2981 0.930 . S
C2987 C2983 1.400 . S
C2987 C2986 1.385 . S
C2988 C2986 1.478 . S
C2988 C2990 1.381 . S
C2988 C2994 1.383 . S
C2989 C2985 1.495 . S
C2989 H2995 0.959 . S
C2989 H2996 0.961 . S
C2989 H2997 0.960 . S
C2990 C2988 1.381 . S
C2990 C2991 1.394 . S
C2990 H2998 0.930 . S
C2991 C2990 1.394 . S
C2991 C2992 1.383 . S
C2991 H2999 0.929 . S
C2992 C2991 1.383 . S
C2992 C2993 1.377 . S
C2993 H2977 0.930 . S
C2993 C2992 1.377 . S
C2993 C2994 1.379 . S
C2994 H2978 0.931 . S
C2994 C2988 1.383 . S
C2994 C2993 1.379 . S
H2995 C2989 0.959 . S
H2996 C2989 0.961 . S
H2997 C2989 0.960 . S
H2998 C2990 0.930 . S
H2999 C2991 0.929 . S
H3000 C3008 0.929 . S
H3001 C3010 0.930 . S
H3002 C3012 0.930 . S
H3003 C3015 0.929 . S
H3004 C3018 0.930 . S
H3005 C3020 0.960 . S
H3006 C3020 0.960 . S
H3007 C3020 0.960 . S
C3008 H3000 0.929 . S
C3008 C3009 1.377 . S
C3008 C3010 1.384 . S
C3009 C3008 1.377 . S
C3009 C3015 1.390 . S
C3010 H3001 0.930 . S
C3010 C3008 1.384 . S
C3010 C3011 1.372 . S
C3011 C3010 1.372 . S
C3011 C3012 1.400 . S
C3011 C3016 1.490 . S
C3012 H3002 0.930 . S
C3012 C3011 1.400 . S
C3012 C3015 1.386 . S
H3013 C3029 0.930 . S
H3014 C3030 0.931 . S
C3015 H3003 0.929 . S
C3015 C3009 1.390 . S
C3015 C3012 1.386 . S
C3016 C3011 1.490 . S
C3016 C3018 1.395 . S
C3016 C3019 1.403 . S
H3017 C3023 0.930 . S
C3018 H3004 0.930 . S
C3018 C3016 1.395 . S
C3018 C3021 1.403 . S
C3019 C3016 1.403 . S
C3019 C3020 1.524 . S
C3019 C3023 1.400 . S
C3020 H3005 0.960 . S
C3020 H3006 0.960 . S
C3020 H3007 0.960 . S
C3020 C3019 1.524 . S
C3021 C3018 1.403 . S
C3021 C3022 1.392 . S
C3021 C3025 1.495 . S
C3022 C3021 1.392 . S
C3022 C3023 1.385 . S
C3022 C3024 1.478 . S
C3023 H3017 0.930 . S
C3023 C3019 1.400 . S
C3023 C3022 1.385 . S
C3024 C3022 1.478 . S
C3024 C3026 1.381 . S
C3024 C3030 1.383 . S
C3025 C3021 1.495 . S
C3025 H3031 0.959 . S
C3025 H3032 0.961 . S
C3025 H3033 0.960 . S
C3026 C3024 1.381 . S
C3026 C3027 1.394 . S
C3026 H3034 0.930 . S
C3027 C3026 1.394 . S
C3027 C3028 1.383 . S
C3027 H3035 0.929 . S
C3028 C3027 1.383 . S
C3028 C3029 1.377 . S
C3029 H3013 0.930 . S
C3029 C3028 1.377 . S
C3029 C3030 1.379 . S
C3030 H3014 0.931 . S
C3030 C3024 1.383 . S
C3030 C3029 1.379 . S
H3031 C3025 0.959 . S
H3032 C3025 0.961 . S
H3033 C3025 0.960 . S
H3034 C3026 0.930 . S
H3035 C3027 0.929 . S
H3036 C3044 0.929 . S
H3037 C3046 0.930 . S
H3038 C3048 0.930 . S
H3039 C3051 0.929 . S
H3040 C3054 0.930 . S
H3041 C3056 0.960 . S
H3042 C3056 0.960 . S
H3043 C3056 0.960 . S
C3044 H3036 0.929 . S
C3044 C3045 1.377 . S
C3044 C3046 1.384 . S
C3045 C3044 1.377 . S
C3045 C3051 1.390 . S
C3046 H3037 0.930 . S
C3046 C3044 1.384 . S
C3046 C3047 1.372 . S
C3047 C3046 1.372 . S
C3047 C3048 1.400 . S
C3047 C3052 1.490 . S
C3048 H3038 0.930 . S
C3048 C3047 1.400 . S
C3048 C3051 1.386 . S
H3049 C3065 0.930 . S
H3050 C3066 0.931 . S
C3051 H3039 0.929 . S
C3051 C3045 1.390 . S
C3051 C3048 1.386 . S
C3052 C3047 1.490 . S
C3052 C3054 1.395 . S
C3052 C3055 1.403 . S
H3053 C3059 0.930 . S
C3054 H3040 0.930 . S
C3054 C3052 1.395 . S
C3054 C3057 1.403 . S
C3055 C3052 1.403 . S
C3055 C3056 1.524 . S
C3055 C3059 1.400 . S
C3056 H3041 0.960 . S
C3056 H3042 0.960 . S
C3056 H3043 0.960 . S
C3056 C3055 1.524 . S
C3057 C3054 1.403 . S
C3057 C3058 1.392 . S
C3057 C3061 1.495 . S
C3058 C3057 1.392 . S
C3058 C3059 1.385 . S
C3058 C3060 1.478 . S
C3059 H3053 0.930 . S
C3059 C3055 1.400 . S
C3059 C3058 1.385 . S
C3060 C3058 1.478 . S
C3060 C3062 1.381 . S
C3060 C3066 1.383 . S
C3061 C3057 1.495 . S
C3061 H3067 0.959 . S
C3061 H3068 0.961 . S
C3061 H3069 0.960 . S
C3062 C3060 1.381 . S
C3062 C3063 1.394 . S
C3062 H3070 0.930 . S
C3063 C3062 1.394 . S
C3063 C3064 1.383 . S
C3063 H3071 0.929 . S
C3064 C3063 1.383 . S
C3064 C3065 1.377 . S
C3065 H3049 0.930 . S
C3065 C3064 1.377 . S
C3065 C3066 1.379 . S
C3066 H3050 0.931 . S
C3066 C3060 1.383 . S
C3066 C3065 1.379 . S
H3067 C3061 0.959 . S
H3068 C3061 0.961 . S
H3069 C3061 0.960 . S
H3070 C3062 0.930 . S
H3071 C3063 0.929 . S
H3072 C3080 0.929 . S
H3073 C3082 0.930 . S
H3074 C3084 0.930 . S
H3075 C3087 0.929 . S
H3076 C3090 0.930 . S
H3077 C3092 0.960 . S
H3078 C3092 0.960 . S
H3079 C3092 0.960 . S
C3080 H3072 0.929 . S
C3080 C3081 1.377 . S
C3080 C3082 1.384 . S
C3081 C3080 1.377 . S
C3081 C3087 1.390 . S
C3082 H3073 0.930 . S
C3082 C3080 1.384 . S
C3082 C3083 1.372 . S
C3083 C3082 1.372 . S
C3083 C3084 1.400 . S
C3083 C3088 1.490 . S
C3084 H3074 0.930 . S
C3084 C3083 1.400 . S
C3084 C3087 1.386 . S
H3085 C3101 0.930 . S
H3086 C3102 0.931 . S
C3087 H3075 0.929 . S
C3087 C3081 1.390 . S
C3087 C3084 1.386 . S
C3088 C3083 1.490 . S
C3088 C3090 1.395 . S
C3088 C3091 1.403 . S
H3089 C3095 0.930 . S
C3090 H3076 0.930 . S
C3090 C3088 1.395 . S
C3090 C3093 1.403 . S
C3091 C3088 1.403 . S
C3091 C3092 1.524 . S
C3091 C3095 1.400 . S
C3092 H3077 0.960 . S
C3092 H3078 0.960 . S
C3092 H3079 0.960 . S
C3092 C3091 1.524 . S
C3093 C3090 1.403 . S
C3093 C3094 1.392 . S
C3093 C3097 1.495 . S
C3094 C3093 1.392 . S
C3094 C3095 1.385 . S
C3094 C3096 1.478 . S
C3095 H3089 0.930 . S
C3095 C3091 1.400 . S
C3095 C3094 1.385 . S
C3096 C3094 1.478 . S
C3096 C3098 1.381 . S
C3096 C3102 1.383 . S
C3097 C3093 1.495 . S
C3097 H3103 0.959 . S
C3097 H3104 0.961 . S
C3097 H3105 0.960 . S
C3098 C3096 1.381 . S
C3098 C3099 1.394 . S
C3098 H3106 0.930 . S
C3099 C3098 1.394 . S
C3099 C3100 1.383 . S
C3099 H3107 0.929 . S
C3100 C3099 1.383 . S
C3100 C3101 1.377 . S
C3101 H3085 0.930 . S
C3101 C3100 1.377 . S
C3101 C3102 1.379 . S
C3102 H3086 0.931 . S
C3102 C3096 1.383 . S
C3102 C3101 1.379 . S
H3103 C3097 0.959 . S
H3104 C3097 0.961 . S
H3105 C3097 0.960 . S
H3106 C3098 0.930 . S
H3107 C3099 0.929 . S
H3108 C3116 0.929 . S
H3109 C3118 0.930 . S
H3110 C3120 0.930 . S
H3111 C3123 0.929 . S
H3112 C3126 0.930 . S
H3113 C3128 0.960 . S
H3114 C3128 0.960 . S
H3115 C3128 0.960 . S
C3116 H3108 0.929 . S
C3116 C3117 1.377 . S
C3116 C3118 1.384 . S
C3117 C3116 1.377 . S
C3117 C3123 1.390 . S
C3118 H3109 0.930 . S
C3118 C3116 1.384 . S
C3118 C3119 1.372 . S
C3119 C3118 1.372 . S
C3119 C3120 1.400 . S
C3119 C3124 1.490 . S
C3120 H3110 0.930 . S
C3120 C3119 1.400 . S
C3120 C3123 1.386 . S
H3121 C3137 0.930 . S
H3122 C3138 0.931 . S
C3123 H3111 0.929 . S
C3123 C3117 1.390 . S
C3123 C3120 1.386 . S
C3124 C3119 1.490 . S
C3124 C3126 1.395 . S
C3124 C3127 1.403 . S
H3125 C3131 0.930 . S
C3126 H3112 0.930 . S
C3126 C3124 1.395 . S
C3126 C3129 1.403 . S
C3127 C3124 1.403 . S
C3127 C3128 1.524 . S
C3127 C3131 1.400 . S
C3128 H3113 0.960 . S
C3128 H3114 0.960 . S
C3128 H3115 0.960 . S
C3128 C3127 1.524 . S
C3129 C3126 1.403 . S
C3129 C3130 1.392 . S
C3129 C3133 1.495 . S
C3130 C3129 1.392 . S
C3130 C3131 1.385 . S
C3130 C3132 1.478 . S
C3131 H3125 0.930 . S
C3131 C3127 1.400 . S
C3131 C3130 1.385 . S
C3132 C3130 1.478 . S
C3132 C3134 1.381 . S
C3132 C3138 1.383 . S
C3133 C3129 1.495 . S
C3133 H3139 0.959 . S
C3133 H3140 0.961 . S
C3133 H3141 0.960 . S
C3134 C3132 1.381 . S
C3134 C3135 1.394 . S
C3134 H3142 0.930 . S
C3135 C3134 1.394 . S
C3135 C3136 1.383 . S
C3135 H3143 0.929 . S
C3136 C3135 1.383 . S
C3136 C3137 1.377 . S
C3137 H3121 0.930 . S
C3137 C3136 1.377 . S
C3137 C3138 1.379 . S
C3138 H3122 0.931 . S
C3138 C3132 1.383 . S
C3138 C3137 1.379 . S
H3139 C3133 0.959 . S
H3140 C3133 0.961 . S
H3141 C3133 0.960 . S
H3142 C3134 0.930 . S
H3143 C3135 0.929 . S
H3144 C3152 0.929 . S
H3145 C3154 0.930 . S
H3146 C3156 0.930 . S
H3147 C3159 0.929 . S
H3148 C3162 0.930 . S
H3149 C3164 0.960 . S
H3150 C3164 0.960 . S
H3151 C3164 0.960 . S
C3152 H3144 0.929 . S
C3152 C3153 1.377 . S
C3152 C3154 1.384 . S
C3153 C3152 1.377 . S
C3153 C3159 1.390 . S
C3154 H3145 0.930 . S
C3154 C3152 1.384 . S
C3154 C3155 1.372 . S
C3155 C3154 1.372 . S
C3155 C3156 1.400 . S
C3155 C3160 1.490 . S
C3156 H3146 0.930 . S
C3156 C3155 1.400 . S
C3156 C3159 1.386 . S
H3157 C3173 0.930 . S
H3158 C3174 0.931 . S
C3159 H3147 0.929 . S
C3159 C3153 1.390 . S
C3159 C3156 1.386 . S
C3160 C3155 1.490 . S
C3160 C3162 1.395 . S
C3160 C3163 1.403 . S
H3161 C3167 0.930 . S
C3162 H3148 0.930 . S
C3162 C3160 1.395 . S
C3162 C3165 1.403 . S
C3163 C3160 1.403 . S
C3163 C3164 1.524 . S
C3163 C3167 1.400 . S
C3164 H3149 0.960 . S
C3164 H3150 0.960 . S
C3164 H3151 0.960 . S
C3164 C3163 1.524 . S
C3165 C3162 1.403 . S
C3165 C3166 1.392 . S
C3165 C3169 1.495 . S
C3166 C3165 1.392 . S
C3166 C3167 1.385 . S
C3166 C3168 1.478 . S
C3167 H3161 0.930 . S
C3167 C3163 1.400 . S
C3167 C3166 1.385 . S
C3168 C3166 1.478 . S
C3168 C3170 1.381 . S
C3168 C3174 1.383 . S
C3169 C3165 1.495 . S
C3169 H3175 0.959 . S
C3169 H3176 0.961 . S
C3169 H3177 0.960 . S
C3170 C3168 1.381 . S
C3170 C3171 1.394 . S
C3170 H3178 0.930 . S
C3171 C3170 1.394 . S
C3171 C3172 1.383 . S
C3171 H3179 0.929 . S
C3172 C3171 1.383 . S
C3172 C3173 1.377 . S
C3173 H3157 0.930 . S
C3173 C3172 1.377 . S
C3173 C3174 1.379 . S
C3174 H3158 0.931 . S
C3174 C3168 1.383 . S
C3174 C3173 1.379 . S
H3175 C3169 0.959 . S
H3176 C3169 0.961 . S
H3177 C3169 0.960 . S
H3178 C3170 0.930 . S
H3179 C3171 0.929 . S
H3180 C3188 0.929 . S
H3181 C3190 0.930 . S
H3182 C3192 0.930 . S
H3183 C3195 0.929 . S
H3184 C3198 0.930 . S
H3185 C3200 0.960 . S
H3186 C3200 0.960 . S
H3187 C3200 0.960 . S
C3188 H3180 0.929 . S
C3188 C3189 1.377 . S
C3188 C3190 1.384 . S
C3189 C3188 1.377 . S
C3189 C3195 1.390 . S
C3190 H3181 0.930 . S
C3190 C3188 1.384 . S
C3190 C3191 1.372 . S
C3191 C3190 1.372 . S
C3191 C3192 1.400 . S
C3191 C3196 1.490 . S
C3192 H3182 0.930 . S
C3192 C3191 1.400 . S
C3192 C3195 1.386 . S
H3193 C3209 0.930 . S
H3194 C3210 0.931 . S
C3195 H3183 0.929 . S
C3195 C3189 1.390 . S
C3195 C3192 1.386 . S
C3196 C3191 1.490 . S
C3196 C3198 1.395 . S
C3196 C3199 1.403 . S
H3197 C3203 0.930 . S
C3198 H3184 0.930 . S
C3198 C3196 1.395 . S
C3198 C3201 1.403 . S
C3199 C3196 1.403 . S
C3199 C3200 1.524 . S
C3199 C3203 1.400 . S
C3200 H3185 0.960 . S
C3200 H3186 0.960 . S
C3200 H3187 0.960 . S
C3200 C3199 1.524 . S
C3201 C3198 1.403 . S
C3201 C3202 1.392 . S
C3201 C3205 1.495 . S
C3202 C3201 1.392 . S
C3202 C3203 1.385 . S
C3202 C3204 1.478 . S
C3203 H3197 0.930 . S
C3203 C3199 1.400 . S
C3203 C3202 1.385 . S
C3204 C3202 1.478 . S
C3204 C3206 1.381 . S
C3204 C3210 1.383 . S
C3205 C3201 1.495 . S
C3205 H3211 0.959 . S
C3205 H3212 0.961 . S
C3205 H3213 0.960 . S
C3206 C3204 1.381 . S
C3206 C3207 1.394 . S
C3206 H3214 0.930 . S
C3207 C3206 1.394 . S
C3207 C3208 1.383 . S
C3207 H3215 0.929 . S
C3208 C3207 1.383 . S
C3208 C3209 1.377 . S
C3209 H3193 0.930 . S
C3209 C3208 1.377 . S
C3209 C3210 1.379 . S
C3210 H3194 0.931 . S
C3210 C3204 1.383 . S
C3210 C3209 1.379 . S
H3211 C3205 0.959 . S
H3212 C3205 0.961 . S
H3213 C3205 0.960 . S
H3214 C3206 0.930 . S
H3215 C3207 0.929 . S
H3216 C3224 0.929 . S
H3217 C3226 0.930 . S
H3218 C3228 0.930 . S
H3219 C3231 0.929 . S
H3220 C3234 0.930 . S
H3221 C3236 0.960 . S
H3222 C3236 0.960 . S
H3223 C3236 0.960 . S
C3224 H3216 0.929 . S
C3224 C3225 1.377 . S
C3224 C3226 1.384 . S
C3225 C3224 1.377 . S
C3225 C3231 1.390 . S
C3226 H3217 0.930 . S
C3226 C3224 1.384 . S
C3226 C3227 1.372 . S
C3227 C3226 1.372 . S
C3227 C3228 1.400 . S
C3227 C3232 1.490 . S
C3228 H3218 0.930 . S
C3228 C3227 1.400 . S
C3228 C3231 1.386 . S
H3229 C3245 0.930 . S
H3230 C3246 0.931 . S
C3231 H3219 0.929 . S
C3231 C3225 1.390 . S
C3231 C3228 1.386 . S
C3232 C3227 1.490 . S
C3232 C3234 1.395 . S
C3232 C3235 1.403 . S
H3233 C3239 0.930 . S
C3234 H3220 0.930 . S
C3234 C3232 1.395 . S
C3234 C3237 1.403 . S
C3235 C3232 1.403 . S
C3235 C3236 1.524 . S
C3235 C3239 1.400 . S
C3236 H3221 0.960 . S
C3236 H3222 0.960 . S
C3236 H3223 0.960 . S
C3236 C3235 1.524 . S
C3237 C3234 1.403 . S
C3237 C3238 1.392 . S
C3237 C3241 1.495 . S
C3238 C3237 1.392 . S
C3238 C3239 1.385 . S
C3238 C3240 1.478 . S
C3239 H3233 0.930 . S
C3239 C3235 1.400 . S
C3239 C3238 1.385 . S
C3240 C3238 1.478 . S
C3240 C3242 1.381 . S
C3240 C3246 1.383 . S
C3241 C3237 1.495 . S
C3241 H3247 0.959 . S
C3241 H3248 0.961 . S
C3241 H3249 0.960 . S
C3242 C3240 1.381 . S
C3242 C3243 1.394 . S
C3242 H3250 0.930 . S
C3243 C3242 1.394 . S
C3243 C3244 1.383 . S
C3243 H3251 0.929 . S
C3244 C3243 1.383 . S
C3244 C3245 1.377 . S
C3245 H3229 0.930 . S
C3245 C3244 1.377 . S
C3245 C3246 1.379 . S
C3246 H3230 0.931 . S
C3246 C3240 1.383 . S
C3246 C3245 1.379 . S
H3247 C3241 0.959 . S
H3248 C3241 0.961 . S
H3249 C3241 0.960 . S
H3250 C3242 0.930 . S
H3251 C3243 0.929 . S
H3252 C3260 0.929 . S
H3253 C3262 0.930 . S
H3254 C3264 0.930 . S
H3255 C3267 0.929 . S
H3256 C3270 0.930 . S
H3257 C3272 0.960 . S
H3258 C3272 0.960 . S
H3259 C3272 0.960 . S
C3260 H3252 0.929 . S
C3260 C3261 1.377 . S
C3260 C3262 1.384 . S
C3261 C3260 1.377 . S
C3261 C3267 1.390 . S
C3262 H3253 0.930 . S
C3262 C3260 1.384 . S
C3262 C3263 1.372 . S
C3263 C3262 1.372 . S
C3263 C3264 1.400 . S
C3263 C3268 1.490 . S
C3264 H3254 0.930 . S
C3264 C3263 1.400 . S
C3264 C3267 1.386 . S
H3265 C3281 0.930 . S
H3266 C3282 0.931 . S
C3267 H3255 0.929 . S
C3267 C3261 1.390 . S
C3267 C3264 1.386 . S
C3268 C3263 1.490 . S
C3268 C3270 1.395 . S
C3268 C3271 1.403 . S
H3269 C3275 0.930 . S
C3270 H3256 0.930 . S
C3270 C3268 1.395 . S
C3270 C3273 1.403 . S
C3271 C3268 1.403 . S
C3271 C3272 1.524 . S
C3271 C3275 1.400 . S
C3272 H3257 0.960 . S
C3272 H3258 0.960 . S
C3272 H3259 0.960 . S
C3272 C3271 1.524 . S
C3273 C3270 1.403 . S
C3273 C3274 1.392 . S
C3273 C3277 1.495 . S
C3274 C3273 1.392 . S
C3274 C3275 1.385 . S
C3274 C3276 1.478 . S
C3275 H3269 0.930 . S
C3275 C3271 1.400 . S
C3275 C3274 1.385 . S
C3276 C3274 1.478 . S
C3276 C3278 1.381 . S
C3276 C3282 1.383 . S
C3277 C3273 1.495 . S
C3277 H3283 0.959 . S
C3277 H3284 0.961 . S
C3277 H3285 0.960 . S
C3278 C3276 1.381 . S
C3278 C3279 1.394 . S
C3278 H3286 0.930 . S
C3279 C3278 1.394 . S
C3279 C3280 1.383 . S
C3279 H3287 0.929 . S
C3280 C3279 1.383 . S
C3280 C3281 1.377 . S
C3281 H3265 0.930 . S
C3281 C3280 1.377 . S
C3281 C3282 1.379 . S
C3282 H3266 0.931 . S
C3282 C3276 1.383 . S
C3282 C3281 1.379 . S
H3283 C3277 0.959 . S
H3284 C3277 0.961 . S
H3285 C3277 0.960 . S
H3286 C3278 0.930 . S
H3287 C3279 0.929 . S
H3288 C3296 0.929 . S
H3289 C3298 0.930 . S
H3290 C3300 0.930 . S
H3291 C3303 0.929 . S
H3292 C3306 0.930 . S
H3293 C3308 0.960 . S
H3294 C3308 0.960 . S
H3295 C3308 0.960 . S
C3296 H3288 0.929 . S
C3296 C3297 1.377 . S
C3296 C3298 1.384 . S
C3297 C3296 1.377 . S
C3297 C3303 1.390 . S
C3298 H3289 0.930 . S
C3298 C3296 1.384 . S
C3298 C3299 1.372 . S
C3299 C3298 1.372 . S
C3299 C3300 1.400 . S
C3299 C3304 1.490 . S
C3300 H3290 0.930 . S
C3300 C3299 1.400 . S
C3300 C3303 1.386 . S
H3301 C3317 0.930 . S
H3302 C3318 0.931 . S
C3303 H3291 0.929 . S
C3303 C3297 1.390 . S
C3303 C3300 1.386 . S
C3304 C3299 1.490 . S
C3304 C3306 1.395 . S
C3304 C3307 1.403 . S
H3305 C3311 0.930 . S
C3306 H3292 0.930 . S
C3306 C3304 1.395 . S
C3306 C3309 1.403 . S
C3307 C3304 1.403 . S
C3307 C3308 1.524 . S
C3307 C3311 1.400 . S
C3308 H3293 0.960 . S
C3308 H3294 0.960 . S
C3308 H3295 0.960 . S
C3308 C3307 1.524 . S
C3309 C3306 1.403 . S
C3309 C3310 1.392 . S
C3309 C3313 1.495 . S
C3310 C3309 1.392 . S
C3310 C3311 1.385 . S
C3310 C3312 1.478 . S
C3311 H3305 0.930 . S
C3311 C3307 1.400 . S
C3311 C3310 1.385 . S
C3312 C3310 1.478 . S
C3312 C3314 1.381 . S
C3312 C3318 1.383 . S
C3313 C3309 1.495 . S
C3313 H3319 0.959 . S
C3313 H3320 0.961 . S
C3313 H3321 0.960 . S
C3314 C3312 1.381 . S
C3314 C3315 1.394 . S
C3314 H3322 0.930 . S
C3315 C3314 1.394 . S
C3315 C3316 1.383 . S
C3315 H3323 0.929 . S
C3316 C3315 1.383 . S
C3316 C3317 1.377 . S
C3317 H3301 0.930 . S
C3317 C3316 1.377 . S
C3317 C3318 1.379 . S
C3318 H3302 0.931 . S
C3318 C3312 1.383 . S
C3318 C3317 1.379 . S
H3319 C3313 0.959 . S
H3320 C3313 0.961 . S
H3321 C3313 0.960 . S
H3322 C3314 0.930 . S
H3323 C3315 0.929 . S
H3324 C3332 0.929 . S
H3325 C3334 0.930 . S
H3326 C3336 0.930 . S
H3327 C3339 0.929 . S
H3328 C3342 0.930 . S
H3329 C3344 0.960 . S
H3330 C3344 0.960 . S
H3331 C3344 0.960 . S
C3332 H3324 0.929 . S
C3332 C3333 1.377 . S
C3332 C3334 1.384 . S
C3333 C3332 1.377 . S
C3333 C3339 1.390 . S
C3334 H3325 0.930 . S
C3334 C3332 1.384 . S
C3334 C3335 1.372 . S
C3335 C3334 1.372 . S
C3335 C3336 1.400 . S
C3335 C3340 1.490 . S
C3336 H3326 0.930 . S
C3336 C3335 1.400 . S
C3336 C3339 1.386 . S
H3337 C3353 0.930 . S
H3338 C3354 0.931 . S
C3339 H3327 0.929 . S
C3339 C3333 1.390 . S
C3339 C3336 1.386 . S
C3340 C3335 1.490 . S
C3340 C3342 1.395 . S
C3340 C3343 1.403 . S
H3341 C3347 0.930 . S
C3342 H3328 0.930 . S
C3342 C3340 1.395 . S
C3342 C3345 1.403 . S
C3343 C3340 1.403 . S
C3343 C3344 1.524 . S
C3343 C3347 1.400 . S
C3344 H3329 0.960 . S
C3344 H3330 0.960 . S
C3344 H3331 0.960 . S
C3344 C3343 1.524 . S
C3345 C3342 1.403 . S
C3345 C3346 1.392 . S
C3345 C3349 1.495 . S
C3346 C3345 1.392 . S
C3346 C3347 1.385 . S
C3346 C3348 1.478 . S
C3347 H3341 0.930 . S
C3347 C3343 1.400 . S
C3347 C3346 1.385 . S
C3348 C3346 1.478 . S
C3348 C3350 1.381 . S
C3348 C3354 1.383 . S
C3349 C3345 1.495 . S
C3349 H3355 0.959 . S
C3349 H3356 0.961 . S
C3349 H3357 0.960 . S
C3350 C3348 1.381 . S
C3350 C3351 1.394 . S
C3350 H3358 0.930 . S
C3351 C3350 1.394 . S
C3351 C3352 1.383 . S
C3351 H3359 0.929 . S
C3352 C3351 1.383 . S
C3352 C3353 1.377 . S
C3353 H3337 0.930 . S
C3353 C3352 1.377 . S
C3353 C3354 1.379 . S
C3354 H3338 0.931 . S
C3354 C3348 1.383 . S
C3354 C3353 1.379 . S
H3355 C3349 0.959 . S
H3356 C3349 0.961 . S
H3357 C3349 0.960 . S
H3358 C3350 0.930 . S
H3359 C3351 0.929 . S
H3360 C3368 0.929 . S
H3361 C3370 0.930 . S
H3362 C3372 0.930 . S
H3363 C3375 0.929 . S
H3364 C3378 0.930 . S
H3365 C3380 0.960 . S
H3366 C3380 0.960 . S
H3367 C3380 0.960 . S
C3368 H3360 0.929 . S
C3368 C3369 1.377 . S
C3368 C3370 1.384 . S
C3369 C3368 1.377 . S
C3369 C3375 1.390 . S
C3370 H3361 0.930 . S
C3370 C3368 1.384 . S
C3370 C3371 1.372 . S
C3371 C3370 1.372 . S
C3371 C3372 1.400 . S
C3371 C3376 1.490 . S
C3372 H3362 0.930 . S
C3372 C3371 1.400 . S
C3372 C3375 1.386 . S
H3373 C3389 0.930 . S
H3374 C3390 0.931 . S
C3375 H3363 0.929 . S
C3375 C3369 1.390 . S
C3375 C3372 1.386 . S
C3376 C3371 1.490 . S
C3376 C3378 1.395 . S
C3376 C3379 1.403 . S
H3377 C3383 0.930 . S
C3378 H3364 0.930 . S
C3378 C3376 1.395 . S
C3378 C3381 1.403 . S
C3379 C3376 1.403 . S
C3379 C3380 1.524 . S
C3379 C3383 1.400 . S
C3380 H3365 0.960 . S
C3380 H3366 0.960 . S
C3380 H3367 0.960 . S
C3380 C3379 1.524 . S
C3381 C3378 1.403 . S
C3381 C3382 1.392 . S
C3381 C3385 1.495 . S
C3382 C3381 1.392 . S
C3382 C3383 1.385 . S
C3382 C3384 1.478 . S
C3383 H3377 0.930 . S
C3383 C3379 1.400 . S
C3383 C3382 1.385 . S
C3384 C3382 1.478 . S
C3384 C3386 1.381 . S
C3384 C3390 1.383 . S
C3385 C3381 1.495 . S
C3385 H3391 0.959 . S
C3385 H3392 0.961 . S
C3385 H3393 0.960 . S
C3386 C3384 1.381 . S
C3386 C3387 1.394 . S
C3386 H3394 0.930 . S
C3387 C3386 1.394 . S
C3387 C3388 1.383 . S
C3387 H3395 0.929 . S
C3388 C3387 1.383 . S
C3388 C3389 1.377 . S
C3389 H3373 0.930 . S
C3389 C3388 1.377 . S
C3389 C3390 1.379 . S
C3390 H3374 0.931 . S
C3390 C3384 1.383 . S
C3390 C3389 1.379 . S
H3391 C3385 0.959 . S
H3392 C3385 0.961 . S
H3393 C3385 0.960 . S
H3394 C3386 0.930 . S
H3395 C3387 0.929 . S
H3396 C3404 0.929 . S
H3397 C3406 0.930 . S
H3398 C3408 0.930 . S
H3399 C3411 0.929 . S
H3400 C3414 0.930 . S
H3401 C3416 0.960 . S
H3402 C3416 0.960 . S
H3403 C3416 0.960 . S
C3404 H3396 0.929 . S
C3404 C3405 1.377 . S
C3404 C3406 1.384 . S
C3405 C3404 1.377 . S
C3405 C3411 1.390 . S
C3406 H3397 0.930 . S
C3406 C3404 1.384 . S
C3406 C3407 1.372 . S
C3407 C3406 1.372 . S
C3407 C3408 1.400 . S
C3407 C3412 1.490 . S
C3408 H3398 0.930 . S
C3408 C3407 1.400 . S
C3408 C3411 1.386 . S
H3409 C3425 0.930 . S
H3410 C3426 0.931 . S
C3411 H3399 0.929 . S
C3411 C3405 1.390 . S
C3411 C3408 1.386 . S
C3412 C3407 1.490 . S
C3412 C3414 1.395 . S
C3412 C3415 1.403 . S
H3413 C3419 0.930 . S
C3414 H3400 0.930 . S
C3414 C3412 1.395 . S
C3414 C3417 1.403 . S
C3415 C3412 1.403 . S
C3415 C3416 1.524 . S
C3415 C3419 1.400 . S
C3416 H3401 0.960 . S
C3416 H3402 0.960 . S
C3416 H3403 0.960 . S
C3416 C3415 1.524 . S
C3417 C3414 1.403 . S
C3417 C3418 1.392 . S
C3417 C3421 1.495 . S
C3418 C3417 1.392 . S
C3418 C3419 1.385 . S
C3418 C3420 1.478 . S
C3419 H3413 0.930 . S
C3419 C3415 1.400 . S
C3419 C3418 1.385 . S
C3420 C3418 1.478 . S
C3420 C3422 1.381 . S
C3420 C3426 1.383 . S
C3421 C3417 1.495 . S
C3421 H3427 0.959 . S
C3421 H3428 0.961 . S
C3421 H3429 0.960 . S
C3422 C3420 1.381 . S
C3422 C3423 1.394 . S
C3422 H3430 0.930 . S
C3423 C3422 1.394 . S
C3423 C3424 1.383 . S
C3423 H3431 0.929 . S
C3424 C3423 1.383 . S
C3424 C3425 1.377 . S
C3425 H3409 0.930 . S
C3425 C3424 1.377 . S
C3425 C3426 1.379 . S
C3426 H3410 0.931 . S
C3426 C3420 1.383 . S
C3426 C3425 1.379 . S
H3427 C3421 0.959 . S
H3428 C3421 0.961 . S
H3429 C3421 0.960 . S
H3430 C3422 0.930 . S
H3431 C3423 0.929 . S
H3432 C3440 0.929 . S
H3433 C3442 0.930 . S
H3434 C3444 0.930 . S
H3435 C3447 0.929 . S
H3436 C3450 0.930 . S
H3437 C3452 0.960 . S
H3438 C3452 0.960 . S
H3439 C3452 0.960 . S
C3440 H3432 0.929 . S
C3440 C3441 1.377 . S
C3440 C3442 1.384 . S
C3441 C3440 1.377 . S
C3441 C3447 1.390 . S
C3442 H3433 0.930 . S
C3442 C3440 1.384 . S
C3442 C3443 1.372 . S
C3443 C3442 1.372 . S
C3443 C3444 1.400 . S
C3443 C3448 1.490 . S
C3444 H3434 0.930 . S
C3444 C3443 1.400 . S
C3444 C3447 1.386 . S
H3445 C3461 0.930 . S
H3446 C3462 0.931 . S
C3447 H3435 0.929 . S
C3447 C3441 1.390 . S
C3447 C3444 1.386 . S
C3448 C3443 1.490 . S
C3448 C3450 1.395 . S
C3448 C3451 1.403 . S
H3449 C3455 0.930 . S
C3450 H3436 0.930 . S
C3450 C3448 1.395 . S
C3450 C3453 1.403 . S
C3451 C3448 1.403 . S
C3451 C3452 1.524 . S
C3451 C3455 1.400 . S
C3452 H3437 0.960 . S
C3452 H3438 0.960 . S
C3452 H3439 0.960 . S
C3452 C3451 1.524 . S
C3453 C3450 1.403 . S
C3453 C3454 1.392 . S
C3453 C3457 1.495 . S
C3454 C3453 1.392 . S
C3454 C3455 1.385 . S
C3454 C3456 1.478 . S
C3455 H3449 0.930 . S
C3455 C3451 1.400 . S
C3455 C3454 1.385 . S
C3456 C3454 1.478 . S
C3456 C3458 1.381 . S
C3456 C3462 1.383 . S
C3457 C3453 1.495 . S
C3457 H3463 0.959 . S
C3457 H3464 0.961 . S
C3457 H3465 0.960 . S
C3458 C3456 1.381 . S
C3458 C3459 1.394 . S
C3458 H3466 0.930 . S
C3459 C3458 1.394 . S
C3459 C3460 1.383 . S
C3459 H3467 0.929 . S
C3460 C3459 1.383 . S
C3460 C3461 1.377 . S
C3461 H3445 0.930 . S
C3461 C3460 1.377 . S
C3461 C3462 1.379 . S
C3462 H3446 0.931 . S
C3462 C3456 1.383 . S
C3462 C3461 1.379 . S
H3463 C3457 0.959 . S
H3464 C3457 0.961 . S
H3465 C3457 0.960 . S
H3466 C3458 0.930 . S
H3467 C3459 0.929 . S
H3468 C3476 0.929 . S
H3469 C3478 0.930 . S
H3470 C3480 0.930 . S
H3471 C3483 0.929 . S
H3472 C3486 0.930 . S
H3473 C3488 0.960 . S
H3474 C3488 0.960 . S
H3475 C3488 0.960 . S
C3476 H3468 0.929 . S
C3476 C3477 1.377 . S
C3476 C3478 1.384 . S
C3477 C3476 1.377 . S
C3477 C3483 1.390 . S
C3478 H3469 0.930 . S
C3478 C3476 1.384 . S
C3478 C3479 1.372 . S
C3479 C3478 1.372 . S
C3479 C3480 1.400 . S
C3479 C3484 1.490 . S
C3480 H3470 0.930 . S
C3480 C3479 1.400 . S
C3480 C3483 1.386 . S
H3481 C3497 0.930 . S
H3482 C3498 0.931 . S
C3483 H3471 0.929 . S
C3483 C3477 1.390 . S
C3483 C3480 1.386 . S
C3484 C3479 1.490 . S
C3484 C3486 1.395 . S
C3484 C3487 1.403 . S
H3485 C3491 0.930 . S
C3486 H3472 0.930 . S
C3486 C3484 1.395 . S
C3486 C3489 1.403 . S
C3487 C3484 1.403 . S
C3487 C3488 1.524 . S
C3487 C3491 1.400 . S
C3488 H3473 0.960 . S
C3488 H3474 0.960 . S
C3488 H3475 0.960 . S
C3488 C3487 1.524 . S
C3489 C3486 1.403 . S
C3489 C3490 1.392 . S
C3489 C3493 1.495 . S
C3490 C3489 1.392 . S
C3490 C3491 1.385 . S
C3490 C3492 1.478 . S
C3491 H3485 0.930 . S
C3491 C3487 1.400 . S
C3491 C3490 1.385 . S
C3492 C3490 1.478 . S
C3492 C3494 1.381 . S
C3492 C3498 1.383 . S
C3493 C3489 1.495 . S
C3493 H3499 0.959 . S
C3493 H3500 0.961 . S
C3493 H3501 0.960 . S
C3494 C3492 1.381 . S
C3494 C3495 1.394 . S
C3494 H3502 0.930 . S
C3495 C3494 1.394 . S
C3495 C3496 1.383 . S
C3495 H3503 0.929 . S
C3496 C3495 1.383 . S
C3496 C3497 1.377 . S
C3497 H3481 0.930 . S
C3497 C3496 1.377 . S
C3497 C3498 1.379 . S
C3498 H3482 0.931 . S
C3498 C3492 1.383 . S
C3498 C3497 1.379 . S
H3499 C3493 0.959 . S
H3500 C3493 0.961 . S
H3501 C3493 0.960 . S
H3502 C3494 0.930 . S
H3503 C3495 0.929 . S
H3504 C3512 0.929 . S
H3505 C3514 0.930 . S
H3506 C3516 0.930 . S
H3507 C3519 0.929 . S
H3508 C3522 0.930 . S
H3509 C3524 0.960 . S
H3510 C3524 0.960 . S
H3511 C3524 0.960 . S
C3512 H3504 0.929 . S
C3512 C3513 1.377 . S
C3512 C3514 1.384 . S
C3513 C3512 1.377 . S
C3513 C3519 1.390 . S
C3514 H3505 0.930 . S
C3514 C3512 1.384 . S
C3514 C3515 1.372 . S
C3515 C3514 1.372 . S
C3515 C3516 1.400 . S
C3515 C3520 1.490 . S
C3516 H3506 0.930 . S
C3516 C3515 1.400 . S
C3516 C3519 1.386 . S
H3517 C3533 0.930 . S
H3518 C3534 0.931 . S
C3519 H3507 0.929 . S
C3519 C3513 1.390 . S
C3519 C3516 1.386 . S
C3520 C3515 1.490 . S
C3520 C3522 1.395 . S
C3520 C3523 1.403 . S
H3521 C3527 0.930 . S
C3522 H3508 0.930 . S
C3522 C3520 1.395 . S
C3522 C3525 1.403 . S
C3523 C3520 1.403 . S
C3523 C3524 1.524 . S
C3523 C3527 1.400 . S
C3524 H3509 0.960 . S
C3524 H3510 0.960 . S
C3524 H3511 0.960 . S
C3524 C3523 1.524 . S
C3525 C3522 1.403 . S
C3525 C3526 1.392 . S
C3525 C3529 1.495 . S
C3526 C3525 1.392 . S
C3526 C3527 1.385 . S
C3526 C3528 1.478 . S
C3527 H3521 0.930 . S
C3527 C3523 1.400 . S
C3527 C3526 1.385 . S
C3528 C3526 1.478 . S
C3528 C3530 1.381 . S
C3528 C3534 1.383 . S
C3529 C3525 1.495 . S
C3529 H3535 0.959 . S
C3529 H3536 0.961 . S
C3529 H3537 0.960 . S
C3530 C3528 1.381 . S
C3530 C3531 1.394 . S
C3530 H3538 0.930 . S
C3531 C3530 1.394 . S
C3531 C3532 1.383 . S
C3531 H3539 0.929 . S
C3532 C3531 1.383 . S
C3532 C3533 1.377 . S
C3533 H3517 0.930 . S
C3533 C3532 1.377 . S
C3533 C3534 1.379 . S
C3534 H3518 0.931 . S
C3534 C3528 1.383 . S
C3534 C3533 1.379 . S
H3535 C3529 0.959 . S
H3536 C3529 0.961 . S
H3537 C3529 0.960 . S
H3538 C3530 0.930 . S
H3539 C3531 0.929 . S
H3540 C3548 0.929 . S
H3541 C3550 0.930 . S
H3542 C3552 0.930 . S
H3543 C3555 0.929 . S
H3544 C3558 0.930 . S
H3545 C3560 0.960 . S
H3546 C3560 0.960 . S
H3547 C3560 0.960 . S
C3548 H3540 0.929 . S
C3548 C3549 1.377 . S
C3548 C3550 1.384 . S
C3549 C3548 1.377 . S
C3549 C3555 1.390 . S
C3550 H3541 0.930 . S
C3550 C3548 1.384 . S
C3550 C3551 1.372 . S
C3551 C3550 1.372 . S
C3551 C3552 1.400 . S
C3551 C3556 1.490 . S
C3552 H3542 0.930 . S
C3552 C3551 1.400 . S
C3552 C3555 1.386 . S
H3553 C3569 0.930 . S
H3554 C3570 0.931 . S
C3555 H3543 0.929 . S
C3555 C3549 1.390 . S
C3555 C3552 1.386 . S
C3556 C3551 1.490 . S
C3556 C3558 1.395 . S
C3556 C3559 1.403 . S
H3557 C3563 0.930 . S
C3558 H3544 0.930 . S
C3558 C3556 1.395 . S
C3558 C3561 1.403 . S
C3559 C3556 1.403 . S
C3559 C3560 1.524 . S
C3559 C3563 1.400 . S
C3560 H3545 0.960 . S
C3560 H3546 0.960 . S
C3560 H3547 0.960 . S
C3560 C3559 1.524 . S
C3561 C3558 1.403 . S
C3561 C3562 1.392 . S
C3561 C3565 1.495 . S
C3562 C3561 1.392 . S
C3562 C3563 1.385 . S
C3562 C3564 1.478 . S
C3563 H3557 0.930 . S
C3563 C3559 1.400 . S
C3563 C3562 1.385 . S
C3564 C3562 1.478 . S
C3564 C3566 1.381 . S
C3564 C3570 1.383 . S
C3565 C3561 1.495 . S
C3565 H3571 0.959 . S
C3565 H3572 0.961 . S
C3565 H3573 0.960 . S
C3566 C3564 1.381 . S
C3566 C3567 1.394 . S
C3566 H3574 0.930 . S
C3567 C3566 1.394 . S
C3567 C3568 1.383 . S
C3567 H3575 0.929 . S
C3568 C3567 1.383 . S
C3568 C3569 1.377 . S
C3569 H3553 0.930 . S
C3569 C3568 1.377 . S
C3569 C3570 1.379 . S
C3570 H3554 0.931 . S
C3570 C3564 1.383 . S
C3570 C3569 1.379 . S
H3571 C3565 0.959 . S
H3572 C3565 0.961 . S
H3573 C3565 0.960 . S
H3574 C3566 0.930 . S
H3575 C3567 0.929 . S
H3576 C3584 0.929 . S
H3577 C3586 0.930 . S
H3578 C3588 0.930 . S
H3579 C3591 0.929 . S
H3580 C3594 0.930 . S
H3581 C3596 0.960 . S
H3582 C3596 0.960 . S
H3583 C3596 0.960 . S
C3584 H3576 0.929 . S
C3584 C3585 1.377 . S
C3584 C3586 1.384 . S
C3585 C3584 1.377 . S
C3585 C3591 1.390 . S
C3586 H3577 0.930 . S
C3586 C3584 1.384 . S
C3586 C3587 1.372 . S
C3587 C3586 1.372 . S
C3587 C3588 1.400 . S
C3587 C3592 1.490 . S
C3588 H3578 0.930 . S
C3588 C3587 1.400 . S
C3588 C3591 1.386 . S
H3589 C3605 0.930 . S
H3590 C3606 0.931 . S
C3591 H3579 0.929 . S
C3591 C3585 1.390 . S
C3591 C3588 1.386 . S
C3592 C3587 1.490 . S
C3592 C3594 1.395 . S
C3592 C3595 1.403 . S
H3593 C3599 0.930 . S
C3594 H3580 0.930 . S
C3594 C3592 1.395 . S
C3594 C3597 1.403 . S
C3595 C3592 1.403 . S
C3595 C3596 1.524 . S
C3595 C3599 1.400 . S
C3596 H3581 0.960 . S
C3596 H3582 0.960 . S
C3596 H3583 0.960 . S
C3596 C3595 1.524 . S
C3597 C3594 1.403 . S
C3597 C3598 1.392 . S
C3597 C3601 1.495 . S
C3598 C3597 1.392 . S
C3598 C3599 1.385 . S
C3598 C3600 1.478 . S
C3599 H3593 0.930 . S
C3599 C3595 1.400 . S
C3599 C3598 1.385 . S
C3600 C3598 1.478 . S
C3600 C3602 1.381 . S
C3600 C3606 1.383 . S
C3601 C3597 1.495 . S
C3601 H3607 0.959 . S
C3601 H3608 0.961 . S
C3601 H3609 0.960 . S
C3602 C3600 1.381 . S
C3602 C3603 1.394 . S
C3602 H3610 0.930 . S
C3603 C3602 1.394 . S
C3603 C3604 1.383 . S
C3603 H3611 0.929 . S
C3604 C3603 1.383 . S
C3604 C3605 1.377 . S
C3605 H3589 0.930 . S
C3605 C3604 1.377 . S
C3605 C3606 1.379 . S
C3606 H3590 0.931 . S
C3606 C3600 1.383 . S
C3606 C3605 1.379 . S
H3607 C3601 0.959 . S
H3608 C3601 0.961 . S
H3609 C3601 0.960 . S
H3610 C3602 0.930 . S
H3611 C3603 0.929 . S
H3612 C3620 0.929 . S
H3613 C3622 0.930 . S
H3614 C3624 0.930 . S
H3615 C3627 0.929 . S
H3616 C3630 0.930 . S
H3617 C3632 0.960 . S
H3618 C3632 0.960 . S
H3619 C3632 0.960 . S
C3620 H3612 0.929 . S
C3620 C3621 1.377 . S
C3620 C3622 1.384 . S
C3621 C3620 1.377 . S
C3621 C3627 1.390 . S
C3622 H3613 0.930 . S
C3622 C3620 1.384 . S
C3622 C3623 1.372 . S
C3623 C3622 1.372 . S
C3623 C3624 1.400 . S
C3623 C3628 1.490 . S
C3624 H3614 0.930 . S
C3624 C3623 1.400 . S
C3624 C3627 1.386 . S
H3625 C3641 0.930 . S
H3626 C3642 0.931 . S
C3627 H3615 0.929 . S
C3627 C3621 1.390 . S
C3627 C3624 1.386 . S
C3628 C3623 1.490 . S
C3628 C3630 1.395 . S
C3628 C3631 1.403 . S
H3629 C3635 0.930 . S
C3630 H3616 0.930 . S
C3630 C3628 1.395 . S
C3630 C3633 1.403 . S
C3631 C3628 1.403 . S
C3631 C3632 1.524 . S
C3631 C3635 1.400 . S
C3632 H3617 0.960 . S
C3632 H3618 0.960 . S
C3632 H3619 0.960 . S
C3632 C3631 1.524 . S
C3633 C3630 1.403 . S
C3633 C3634 1.392 . S
C3633 C3637 1.495 . S
C3634 C3633 1.392 . S
C3634 C3635 1.385 . S
C3634 C3636 1.478 . S
C3635 H3629 0.930 . S
C3635 C3631 1.400 . S
C3635 C3634 1.385 . S
C3636 C3634 1.478 . S
C3636 C3638 1.381 . S
C3636 C3642 1.383 . S
C3637 C3633 1.495 . S
C3637 H3643 0.959 . S
C3637 H3644 0.961 . S
C3637 H3645 0.960 . S
C3638 C3636 1.381 . S
C3638 C3639 1.394 . S
C3638 H3646 0.930 . S
C3639 C3638 1.394 . S
C3639 C3640 1.383 . S
C3639 H3647 0.929 . S
C3640 C3639 1.383 . S
C3640 C3641 1.377 . S
C3641 H3625 0.930 . S
C3641 C3640 1.377 . S
C3641 C3642 1.379 . S
C3642 H3626 0.931 . S
C3642 C3636 1.383 . S
C3642 C3641 1.379 . S
H3643 C3637 0.959 . S
H3644 C3637 0.961 . S
H3645 C3637 0.960 . S
H3646 C3638 0.930 . S
H3647 C3639 0.929 . S
H3648 C3656 0.929 . S
H3649 C3658 0.930 . S
H3650 C3660 0.930 . S
H3651 C3663 0.929 . S
H3652 C3666 0.930 . S
H3653 C3668 0.960 . S
H3654 C3668 0.960 . S
H3655 C3668 0.960 . S
C3656 H3648 0.929 . S
C3656 C3657 1.377 . S
C3656 C3658 1.384 . S
C3657 C3656 1.377 . S
C3657 C3663 1.390 . S
C3658 H3649 0.930 . S
C3658 C3656 1.384 . S
C3658 C3659 1.372 . S
C3659 C3658 1.372 . S
C3659 C3660 1.400 . S
C3659 C3664 1.490 . S
C3660 H3650 0.930 . S
C3660 C3659 1.400 . S
C3660 C3663 1.386 . S
H3661 C3677 0.930 . S
H3662 C3678 0.931 . S
C3663 H3651 0.929 . S
C3663 C3657 1.390 . S
C3663 C3660 1.386 . S
C3664 C3659 1.490 . S
C3664 C3666 1.395 . S
C3664 C3667 1.403 . S
H3665 C3671 0.930 . S
C3666 H3652 0.930 . S
C3666 C3664 1.395 . S
C3666 C3669 1.403 . S
C3667 C3664 1.403 . S
C3667 C3668 1.524 . S
C3667 C3671 1.400 . S
C3668 H3653 0.960 . S
C3668 H3654 0.960 . S
C3668 H3655 0.960 . S
C3668 C3667 1.524 . S
C3669 C3666 1.403 . S
C3669 C3670 1.392 . S
C3669 C3673 1.495 . S
C3670 C3669 1.392 . S
C3670 C3671 1.385 . S
C3670 C3672 1.478 . S
C3671 H3665 0.930 . S
C3671 C3667 1.400 . S
C3671 C3670 1.385 . S
C3672 C3670 1.478 . S
C3672 C3674 1.381 . S
C3672 C3678 1.383 . S
C3673 C3669 1.495 . S
C3673 H3679 0.959 . S
C3673 H3680 0.961 . S
C3673 H3681 0.960 . S
C3674 C3672 1.381 . S
C3674 C3675 1.394 . S
C3674 H3682 0.930 . S
C3675 C3674 1.394 . S
C3675 C3676 1.383 . S
C3675 H3683 0.929 . S
C3676 C3675 1.383 . S
C3676 C3677 1.377 . S
C3677 H3661 0.930 . S
C3677 C3676 1.377 . S
C3677 C3678 1.379 . S
C3678 H3662 0.931 . S
C3678 C3672 1.383 . S
C3678 C3677 1.379 . S
H3679 C3673 0.959 . S
H3680 C3673 0.961 . S
H3681 C3673 0.960 . S
H3682 C3674 0.930 . S
H3683 C3675 0.929 . S
H3684 C3692 0.929 . S
H3685 C3694 0.930 . S
H3686 C3696 0.930 . S
H3687 C3699 0.929 . S
H3688 C3702 0.930 . S
H3689 C3704 0.960 . S
H3690 C3704 0.960 . S
H3691 C3704 0.960 . S
C3692 H3684 0.929 . S
C3692 C3693 1.377 . S
C3692 C3694 1.384 . S
C3693 C3692 1.377 . S
C3693 C3699 1.390 . S
C3694 H3685 0.930 . S
C3694 C3692 1.384 . S
C3694 C3695 1.372 . S
C3695 C3694 1.372 . S
C3695 C3696 1.400 . S
C3695 C3700 1.490 . S
C3696 H3686 0.930 . S
C3696 C3695 1.400 . S
C3696 C3699 1.386 . S
H3697 C3713 0.930 . S
H3698 C3714 0.931 . S
C3699 H3687 0.929 . S
C3699 C3693 1.390 . S
C3699 C3696 1.386 . S
C3700 C3695 1.490 . S
C3700 C3702 1.395 . S
C3700 C3703 1.403 . S
H3701 C3707 0.930 . S
C3702 H3688 0.930 . S
C3702 C3700 1.395 . S
C3702 C3705 1.403 . S
C3703 C3700 1.403 . S
C3703 C3704 1.524 . S
C3703 C3707 1.400 . S
C3704 H3689 0.960 . S
C3704 H3690 0.960 . S
C3704 H3691 0.960 . S
C3704 C3703 1.524 . S
C3705 C3702 1.403 . S
C3705 C3706 1.392 . S
C3705 C3709 1.495 . S
C3706 C3705 1.392 . S
C3706 C3707 1.385 . S
C3706 C3708 1.478 . S
C3707 H3701 0.930 . S
C3707 C3703 1.400 . S
C3707 C3706 1.385 . S
C3708 C3706 1.478 . S
C3708 C3710 1.381 . S
C3708 C3714 1.383 . S
C3709 C3705 1.495 . S
C3709 H3715 0.959 . S
C3709 H3716 0.961 . S
C3709 H3717 0.960 . S
C3710 C3708 1.381 . S
C3710 C3711 1.394 . S
C3710 H3718 0.930 . S
C3711 C3710 1.394 . S
C3711 C3712 1.383 . S
C3711 H3719 0.929 . S
C3712 C3711 1.383 . S
C3712 C3713 1.377 . S
C3713 H3697 0.930 . S
C3713 C3712 1.377 . S
C3713 C3714 1.379 . S
C3714 H3698 0.931 . S
C3714 C3708 1.383 . S
C3714 C3713 1.379 . S
H3715 C3709 0.959 . S
H3716 C3709 0.961 . S
H3717 C3709 0.960 . S
H3718 C3710 0.930 . S
H3719 C3711 0.929 . S
H3720 C3728 0.929 . S
H3721 C3730 0.930 . S
H3722 C3732 0.930 . S
H3723 C3735 0.929 . S
H3724 C3738 0.930 . S
H3725 C3740 0.960 . S
H3726 C3740 0.960 . S
H3727 C3740 0.960 . S
C3728 H3720 0.929 . S
C3728 C3729 1.377 . S
C3728 C3730 1.384 . S
C3729 C3728 1.377 . S
C3729 C3735 1.390 . S
C3730 H3721 0.930 . S
C3730 C3728 1.384 . S
C3730 C3731 1.372 . S
C3731 C3730 1.372 . S
C3731 C3732 1.400 . S
C3731 C3736 1.490 . S
C3732 H3722 0.930 . S
C3732 C3731 1.400 . S
C3732 C3735 1.386 . S
H3733 C3749 0.930 . S
H3734 C3750 0.931 . S
C3735 H3723 0.929 . S
C3735 C3729 1.390 . S
C3735 C3732 1.386 . S
C3736 C3731 1.490 . S
C3736 C3738 1.395 . S
C3736 C3739 1.403 . S
H3737 C3743 0.930 . S
C3738 H3724 0.930 . S
C3738 C3736 1.395 . S
C3738 C3741 1.403 . S
C3739 C3736 1.403 . S
C3739 C3740 1.524 . S
C3739 C3743 1.400 . S
C3740 H3725 0.960 . S
C3740 H3726 0.960 . S
C3740 H3727 0.960 . S
C3740 C3739 1.524 . S
C3741 C3738 1.403 . S
C3741 C3742 1.392 . S
C3741 C3745 1.495 . S
C3742 C3741 1.392 . S
C3742 C3743 1.385 . S
C3742 C3744 1.478 . S
C3743 H3737 0.930 . S
C3743 C3739 1.400 . S
C3743 C3742 1.385 . S
C3744 C3742 1.478 . S
C3744 C3746 1.381 . S
C3744 C3750 1.383 . S
C3745 C3741 1.495 . S
C3745 H3751 0.959 . S
C3745 H3752 0.961 . S
C3745 H3753 0.960 . S
C3746 C3744 1.381 . S
C3746 C3747 1.394 . S
C3746 H3754 0.930 . S
C3747 C3746 1.394 . S
C3747 C3748 1.383 . S
C3747 H3755 0.929 . S
C3748 C3747 1.383 . S
C3748 C3749 1.377 . S
C3749 H3733 0.930 . S
C3749 C3748 1.377 . S
C3749 C3750 1.379 . S
C3750 H3734 0.931 . S
C3750 C3744 1.383 . S
C3750 C3749 1.379 . S
H3751 C3745 0.959 . S
H3752 C3745 0.961 . S
H3753 C3745 0.960 . S
H3754 C3746 0.930 . S
H3755 C3747 0.929 . S
H3756 C3764 0.929 . S
H3757 C3766 0.930 . S
H3758 C3768 0.930 . S
H3759 C3771 0.929 . S
H3760 C3774 0.930 . S
H3761 C3776 0.960 . S
H3762 C3776 0.960 . S
H3763 C3776 0.960 . S
C3764 H3756 0.929 . S
C3764 C3765 1.377 . S
C3764 C3766 1.384 . S
C3765 C3764 1.377 . S
C3765 C3771 1.390 . S
C3766 H3757 0.930 . S
C3766 C3764 1.384 . S
C3766 C3767 1.372 . S
C3767 C3766 1.372 . S
C3767 C3768 1.400 . S
C3767 C3772 1.490 . S
C3768 H3758 0.930 . S
C3768 C3767 1.400 . S
C3768 C3771 1.386 . S
H3769 C3785 0.930 . S
H3770 C3786 0.931 . S
C3771 H3759 0.929 . S
C3771 C3765 1.390 . S
C3771 C3768 1.386 . S
C3772 C3767 1.490 . S
C3772 C3774 1.395 . S
C3772 C3775 1.403 . S
H3773 C3779 0.930 . S
C3774 H3760 0.930 . S
C3774 C3772 1.395 . S
C3774 C3777 1.403 . S
C3775 C3772 1.403 . S
C3775 C3776 1.524 . S
C3775 C3779 1.400 . S
C3776 H3761 0.960 . S
C3776 H3762 0.960 . S
C3776 H3763 0.960 . S
C3776 C3775 1.524 . S
C3777 C3774 1.403 . S
C3777 C3778 1.392 . S
C3777 C3781 1.495 . S
C3778 C3777 1.392 . S
C3778 C3779 1.385 . S
C3778 C3780 1.478 . S
C3779 H3773 0.930 . S
C3779 C3775 1.400 . S
C3779 C3778 1.385 . S
C3780 C3778 1.478 . S
C3780 C3782 1.381 . S
C3780 C3786 1.383 . S
C3781 C3777 1.495 . S
C3781 H3787 0.959 . S
C3781 H3788 0.961 . S
C3781 H3789 0.960 . S
C3782 C3780 1.381 . S
C3782 C3783 1.394 . S
C3782 H3790 0.930 . S
C3783 C3782 1.394 . S
C3783 C3784 1.383 . S
C3783 H3791 0.929 . S
C3784 C3783 1.383 . S
C3784 C3785 1.377 . S
C3785 H3769 0.930 . S
C3785 C3784 1.377 . S
C3785 C3786 1.379 . S
C3786 H3770 0.931 . S
C3786 C3780 1.383 . S
C3786 C3785 1.379 . S
H3787 C3781 0.959 . S
H3788 C3781 0.961 . S
H3789 C3781 0.960 . S
H3790 C3782 0.930 . S
H3791 C3783 0.929 . S
H3792 C3800 0.929 . S
H3793 C3802 0.930 . S
H3794 C3804 0.930 . S
H3795 C3807 0.929 . S
H3796 C3810 0.930 . S
H3797 C3812 0.960 . S
H3798 C3812 0.960 . S
H3799 C3812 0.960 . S
C3800 H3792 0.929 . S
C3800 C3801 1.377 . S
C3800 C3802 1.384 . S
C3801 C3800 1.377 . S
C3801 C3807 1.390 . S
C3802 H3793 0.930 . S
C3802 C3800 1.384 . S
C3802 C3803 1.372 . S
C3803 C3802 1.372 . S
C3803 C3804 1.400 . S
C3803 C3808 1.490 . S
C3804 H3794 0.930 . S
C3804 C3803 1.400 . S
C3804 C3807 1.386 . S
H3805 C3821 0.930 . S
H3806 C3822 0.931 . S
C3807 H3795 0.929 . S
C3807 C3801 1.390 . S
C3807 C3804 1.386 . S
C3808 C3803 1.490 . S
C3808 C3810 1.395 . S
C3808 C3811 1.403 . S
H3809 C3815 0.930 . S
C3810 H3796 0.930 . S
C3810 C3808 1.395 . S
C3810 C3813 1.403 . S
C3811 C3808 1.403 . S
C3811 C3812 1.524 . S
C3811 C3815 1.400 . S
C3812 H3797 0.960 . S
C3812 H3798 0.960 . S
C3812 H3799 0.960 . S
C3812 C3811 1.524 . S
C3813 C3810 1.403 . S
C3813 C3814 1.392 . S
C3813 C3817 1.495 . S
C3814 C3813 1.392 . S
C3814 C3815 1.385 . S
C3814 C3816 1.478 . S
C3815 H3809 0.930 . S
C3815 C3811 1.400 . S
C3815 C3814 1.385 . S
C3816 C3814 1.478 . S
C3816 C3818 1.381 . S
C3816 C3822 1.383 . S
C3817 C3813 1.495 . S
C3817 H3823 0.959 . S
C3817 H3824 0.961 . S
C3817 H3825 0.960 . S
C3818 C3816 1.381 . S
C3818 C3819 1.394 . S
C3818 H3826 0.930 . S
C3819 C3818 1.394 . S
C3819 C3820 1.383 . S
C3819 H3827 0.929 . S
C3820 C3819 1.383 . S
C3820 C3821 1.377 . S
C3821 H3805 0.930 . S
C3821 C3820 1.377 . S
C3821 C3822 1.379 . S
C3822 H3806 0.931 . S
C3822 C3816 1.383 . S
C3822 C3821 1.379 . S
H3823 C3817 0.959 . S
H3824 C3817 0.961 . S
H3825 C3817 0.960 . S
H3826 C3818 0.930 . S
H3827 C3819 0.929 . S
H3828 C3836 0.929 . S
H3829 C3838 0.930 . S
H3830 C3840 0.930 . S
H3831 C3843 0.929 . S
H3832 C3846 0.930 . S
H3833 C3848 0.960 . S
H3834 C3848 0.960 . S
H3835 C3848 0.960 . S
C3836 H3828 0.929 . S
C3836 C3837 1.377 . S
C3836 C3838 1.384 . S
C3837 C3836 1.377 . S
C3837 C3843 1.390 . S
C3838 H3829 0.930 . S
C3838 C3836 1.384 . S
C3838 C3839 1.372 . S
C3839 C3838 1.372 . S
C3839 C3840 1.400 . S
C3839 C3844 1.490 . S
C3840 H3830 0.930 . S
C3840 C3839 1.400 . S
C3840 C3843 1.386 . S
H3841 C3857 0.930 . S
H3842 C3858 0.931 . S
C3843 H3831 0.929 . S
C3843 C3837 1.390 . S
C3843 C3840 1.386 . S
C3844 C3839 1.490 . S
C3844 C3846 1.395 . S
C3844 C3847 1.403 . S
H3845 C3851 0.930 . S
C3846 H3832 0.930 . S
C3846 C3844 1.395 . S
C3846 C3849 1.403 . S
C3847 C3844 1.403 . S
C3847 C3848 1.524 . S
C3847 C3851 1.400 . S
C3848 H3833 0.960 . S
C3848 H3834 0.960 . S
C3848 H3835 0.960 . S
C3848 C3847 1.524 . S
C3849 C3846 1.403 . S
C3849 C3850 1.392 . S
C3849 C3853 1.495 . S
C3850 C3849 1.392 . S
C3850 C3851 1.385 . S
C3850 C3852 1.478 . S
C3851 H3845 0.930 . S
C3851 C3847 1.400 . S
C3851 C3850 1.385 . S
C3852 C3850 1.478 . S
C3852 C3854 1.381 . S
C3852 C3858 1.383 . S
C3853 C3849 1.495 . S
C3853 H3859 0.959 . S
C3853 H3860 0.961 . S
C3853 H3861 0.960 . S
C3854 C3852 1.381 . S
C3854 C3855 1.394 . S
C3854 H3862 0.930 . S
C3855 C3854 1.394 . S
C3855 C3856 1.383 . S
C3855 H3863 0.929 . S
C3856 C3855 1.383 . S
C3856 C3857 1.377 . S
C3857 H3841 0.930 . S
C3857 C3856 1.377 . S
C3857 C3858 1.379 . S
C3858 H3842 0.931 . S
C3858 C3852 1.383 . S
C3858 C3857 1.379 . S
H3859 C3853 0.959 . S
H3860 C3853 0.961 . S
H3861 C3853 0.960 . S
H3862 C3854 0.930 . S
H3863 C3855 0.929 . S
H3864 C3872 0.929 . S
H3865 C3874 0.930 . S
H3866 C3876 0.930 . S
H3867 C3879 0.929 . S
H3868 C3882 0.930 . S
H3869 C3884 0.960 . S
H3870 C3884 0.960 . S
H3871 C3884 0.960 . S
C3872 H3864 0.929 . S
C3872 C3873 1.377 . S
C3872 C3874 1.384 . S
C3873 C3872 1.377 . S
C3873 C3879 1.390 . S
C3874 H3865 0.930 . S
C3874 C3872 1.384 . S
C3874 C3875 1.372 . S
C3875 C3874 1.372 . S
C3875 C3876 1.400 . S
C3875 C3880 1.490 . S
C3876 H3866 0.930 . S
C3876 C3875 1.400 . S
C3876 C3879 1.386 . S
H3877 C3893 0.930 . S
H3878 C3894 0.931 . S
C3879 H3867 0.929 . S
C3879 C3873 1.390 . S
C3879 C3876 1.386 . S
C3880 C3875 1.490 . S
C3880 C3882 1.395 . S
C3880 C3883 1.403 . S
H3881 C3887 0.930 . S
C3882 H3868 0.930 . S
C3882 C3880 1.395 . S
C3882 C3885 1.403 . S
C3883 C3880 1.403 . S
C3883 C3884 1.524 . S
C3883 C3887 1.400 . S
C3884 H3869 0.960 . S
C3884 H3870 0.960 . S
C3884 H3871 0.960 . S
C3884 C3883 1.524 . S
C3885 C3882 1.403 . S
C3885 C3886 1.392 . S
C3885 C3889 1.495 . S
C3886 C3885 1.392 . S
C3886 C3887 1.385 . S
C3886 C3888 1.478 . S
C3887 H3881 0.930 . S
C3887 C3883 1.400 . S
C3887 C3886 1.385 . S
C3888 C3886 1.478 . S
C3888 C3890 1.381 . S
C3888 C3894 1.383 . S
C3889 C3885 1.495 . S
C3889 H3895 0.959 . S
C3889 H3896 0.961 . S
C3889 H3897 0.960 . S
C3890 C3888 1.381 . S
C3890 C3891 1.394 . S
C3890 H3898 0.930 . S
C3891 C3890 1.394 . S
C3891 C3892 1.383 . S
C3891 H3899 0.929 . S
C3892 C3891 1.383 . S
C3892 C3893 1.377 . S
C3893 H3877 0.930 . S
C3893 C3892 1.377 . S
C3893 C3894 1.379 . S
C3894 H3878 0.931 . S
C3894 C3888 1.383 . S
C3894 C3893 1.379 . S
H3895 C3889 0.959 . S
H3896 C3889 0.961 . S
H3897 C3889 0.960 . S
H3898 C3890 0.930 . S
H3899 C3891 0.929 . S
H3900 C3908 0.929 . S
H3901 C3910 0.930 . S
H3902 C3912 0.930 . S
H3903 C3915 0.929 . S
H3904 C3918 0.930 . S
H3905 C3920 0.960 . S
H3906 C3920 0.960 . S
H3907 C3920 0.960 . S
C3908 H3900 0.929 . S
C3908 C3909 1.377 . S
C3908 C3910 1.384 . S
C3909 C3908 1.377 . S
C3909 C3915 1.390 . S
C3910 H3901 0.930 . S
C3910 C3908 1.384 . S
C3910 C3911 1.372 . S
C3911 C3910 1.372 . S
C3911 C3912 1.400 . S
C3911 C3916 1.490 . S
C3912 H3902 0.930 . S
C3912 C3911 1.400 . S
C3912 C3915 1.386 . S
H3913 C3929 0.930 . S
H3914 C3930 0.931 . S
C3915 H3903 0.929 . S
C3915 C3909 1.390 . S
C3915 C3912 1.386 . S
C3916 C3911 1.490 . S
C3916 C3918 1.395 . S
C3916 C3919 1.403 . S
H3917 C3923 0.930 . S
C3918 H3904 0.930 . S
C3918 C3916 1.395 . S
C3918 C3921 1.403 . S
C3919 C3916 1.403 . S
C3919 C3920 1.524 . S
C3919 C3923 1.400 . S
C3920 H3905 0.960 . S
C3920 H3906 0.960 . S
C3920 H3907 0.960 . S
C3920 C3919 1.524 . S
C3921 C3918 1.403 . S
C3921 C3922 1.392 . S
C3921 C3925 1.495 . S
C3922 C3921 1.392 . S
C3922 C3923 1.385 . S
C3922 C3924 1.478 . S
C3923 H3917 0.930 . S
C3923 C3919 1.400 . S
C3923 C3922 1.385 . S
C3924 C3922 1.478 . S
C3924 C3926 1.381 . S
C3924 C3930 1.383 . S
C3925 C3921 1.495 . S
C3925 H3931 0.959 . S
C3925 H3932 0.961 . S
C3925 H3933 0.960 . S
C3926 C3924 1.381 . S
C3926 C3927 1.394 . S
C3926 H3934 0.930 . S
C3927 C3926 1.394 . S
C3927 C3928 1.383 . S
C3927 H3935 0.929 . S
C3928 C3927 1.383 . S
C3928 C3929 1.377 . S
C3929 H3913 0.930 . S
C3929 C3928 1.377 . S
C3929 C3930 1.379 . S
C3930 H3914 0.931 . S
C3930 C3924 1.383 . S
C3930 C3929 1.379 . S
H3931 C3925 0.959 . S
H3932 C3925 0.961 . S
H3933 C3925 0.960 . S
H3934 C3926 0.930 . S
H3935 C3927 0.929 . S
H3936 C3944 0.929 . S
H3937 C3946 0.930 . S
H3938 C3948 0.930 . S
H3939 C3951 0.929 . S
H3940 C3954 0.930 . S
H3941 C3956 0.960 . S
H3942 C3956 0.960 . S
H3943 C3956 0.960 . S
C3944 H3936 0.929 . S
C3944 C3945 1.377 . S
C3944 C3946 1.384 . S
C3945 C3944 1.377 . S
C3945 C3951 1.390 . S
C3946 H3937 0.930 . S
C3946 C3944 1.384 . S
C3946 C3947 1.372 . S
C3947 C3946 1.372 . S
C3947 C3948 1.400 . S
C3947 C3952 1.490 . S
C3948 H3938 0.930 . S
C3948 C3947 1.400 . S
C3948 C3951 1.386 . S
H3949 C3965 0.930 . S
H3950 C3966 0.931 . S
C3951 H3939 0.929 . S
C3951 C3945 1.390 . S
C3951 C3948 1.386 . S
C3952 C3947 1.490 . S
C3952 C3954 1.395 . S
C3952 C3955 1.403 . S
H3953 C3959 0.930 . S
C3954 H3940 0.930 . S
C3954 C3952 1.395 . S
C3954 C3957 1.403 . S
C3955 C3952 1.403 . S
C3955 C3956 1.524 . S
C3955 C3959 1.400 . S
C3956 H3941 0.960 . S
C3956 H3942 0.960 . S
C3956 H3943 0.960 . S
C3956 C3955 1.524 . S
C3957 C3954 1.403 . S
C3957 C3958 1.392 . S
C3957 C3961 1.495 . S
C3958 C3957 1.392 . S
C3958 C3959 1.385 . S
C3958 C3960 1.478 . S
C3959 H3953 0.930 . S
C3959 C3955 1.400 . S
C3959 C3958 1.385 . S
C3960 C3958 1.478 . S
C3960 C3962 1.381 . S
C3960 C3966 1.383 . S
C3961 C3957 1.495 . S
C3961 H3967 0.959 . S
C3961 H3968 0.961 . S
C3961 H3969 0.960 . S
C3962 C3960 1.381 . S
C3962 C3963 1.394 . S
C3962 H3970 0.930 . S
C3963 C3962 1.394 . S
C3963 C3964 1.383 . S
C3963 H3971 0.929 . S
C3964 C3963 1.383 . S
C3964 C3965 1.377 . S
C3965 H3949 0.930 . S
C3965 C3964 1.377 . S
C3965 C3966 1.379 . S
C3966 H3950 0.931 . S
C3966 C3960 1.383 . S
C3966 C3965 1.379 . S
H3967 C3961 0.959 . S
H3968 C3961 0.961 . S
H3969 C3961 0.960 . S
H3970 C3962 0.930 . S
H3971 C3963 0.929 . S
H3972 C3980 0.929 . S
H3973 C3982 0.930 . S
H3974 C3984 0.930 . S
H3975 C3987 0.929 . S
H3976 C3990 0.930 . S
H3977 C3992 0.960 . S
H3978 C3992 0.960 . S
H3979 C3992 0.960 . S
C3980 H3972 0.929 . S
C3980 C3981 1.377 . S
C3980 C3982 1.384 . S
C3981 C3980 1.377 . S
C3981 C3987 1.390 . S
C3982 H3973 0.930 . S
C3982 C3980 1.384 . S
C3982 C3983 1.372 . S
C3983 C3982 1.372 . S
C3983 C3984 1.400 . S
C3983 C3988 1.490 . S
C3984 H3974 0.930 . S
C3984 C3983 1.400 . S
C3984 C3987 1.386 . S
H3985 C4001 0.930 . S
H3986 C4002 0.931 . S
C3987 H3975 0.929 . S
C3987 C3981 1.390 . S
C3987 C3984 1.386 . S
C3988 C3983 1.490 . S
C3988 C3990 1.395 . S
C3988 C3991 1.403 . S
H3989 C3995 0.930 . S
C3990 H3976 0.930 . S
C3990 C3988 1.395 . S
C3990 C3993 1.403 . S
C3991 C3988 1.403 . S
C3991 C3992 1.524 . S
C3991 C3995 1.400 . S
C3992 H3977 0.960 . S
C3992 H3978 0.960 . S
C3992 H3979 0.960 . S
C3992 C3991 1.524 . S
C3993 C3990 1.403 . S
C3993 C3994 1.392 . S
C3993 C3997 1.495 . S
C3994 C3993 1.392 . S
C3994 C3995 1.385 . S
C3994 C3996 1.478 . S
C3995 H3989 0.930 . S
C3995 C3991 1.400 . S
C3995 C3994 1.385 . S
C3996 C3994 1.478 . S
C3996 C3998 1.381 . S
C3996 C4002 1.383 . S
C3997 C3993 1.495 . S
C3997 H4003 0.959 . S
C3997 H4004 0.961 . S
C3997 H4005 0.960 . S
C3998 C3996 1.381 . S
C3998 C3999 1.394 . S
C3998 H4006 0.930 . S
C3999 C3998 1.394 . S
C3999 C4000 1.383 . S
C3999 H4007 0.929 . S
C4000 C3999 1.383 . S
C4000 C4001 1.377 . S
C4001 H3985 0.930 . S
C4001 C4000 1.377 . S
C4001 C4002 1.379 . S
C4002 H3986 0.931 . S
C4002 C3996 1.383 . S
C4002 C4001 1.379 . S
H4003 C3997 0.959 . S
H4004 C3997 0.961 . S
H4005 C3997 0.960 . S
H4006 C3998 0.930 . S
H4007 C3999 0.929 . S
H4008 C4016 0.929 . S
H4009 C4018 0.930 . S
H4010 C4020 0.930 . S
H4011 C4023 0.929 . S
H4012 C4026 0.930 . S
H4013 C4028 0.960 . S
H4014 C4028 0.960 . S
H4015 C4028 0.960 . S
C4016 H4008 0.929 . S
C4016 C4017 1.377 . S
C4016 C4018 1.384 . S
C4017 C4016 1.377 . S
C4017 C4023 1.390 . S
C4018 H4009 0.930 . S
C4018 C4016 1.384 . S
C4018 C4019 1.372 . S
C4019 C4018 1.372 . S
C4019 C4020 1.400 . S
C4019 C4024 1.490 . S
C4020 H4010 0.930 . S
C4020 C4019 1.400 . S
C4020 C4023 1.386 . S
H4021 C4037 0.930 . S
H4022 C4038 0.931 . S
C4023 H4011 0.929 . S
C4023 C4017 1.390 . S
C4023 C4020 1.386 . S
C4024 C4019 1.490 . S
C4024 C4026 1.395 . S
C4024 C4027 1.403 . S
H4025 C4031 0.930 . S
C4026 H4012 0.930 . S
C4026 C4024 1.395 . S
C4026 C4029 1.403 . S
C4027 C4024 1.403 . S
C4027 C4028 1.524 . S
C4027 C4031 1.400 . S
C4028 H4013 0.960 . S
C4028 H4014 0.960 . S
C4028 H4015 0.960 . S
C4028 C4027 1.524 . S
C4029 C4026 1.403 . S
C4029 C4030 1.392 . S
C4029 C4033 1.495 . S
C4030 C4029 1.392 . S
C4030 C4031 1.385 . S
C4030 C4032 1.478 . S
C4031 H4025 0.930 . S
C4031 C4027 1.400 . S
C4031 C4030 1.385 . S
C4032 C4030 1.478 . S
C4032 C4034 1.381 . S
C4032 C4038 1.383 . S
C4033 C4029 1.495 . S
C4033 H4039 0.959 . S
C4033 H4040 0.961 . S
C4033 H4041 0.960 . S
C4034 C4032 1.381 . S
C4034 C4035 1.394 . S
C4034 H4042 0.930 . S
C4035 C4034 1.394 . S
C4035 C4036 1.383 . S
C4035 H4043 0.929 . S
C4036 C4035 1.383 . S
C4036 C4037 1.377 . S
C4037 H4021 0.930 . S
C4037 C4036 1.377 . S
C4037 C4038 1.379 . S
C4038 H4022 0.931 . S
C4038 C4032 1.383 . S
C4038 C4037 1.379 . S
H4039 C4033 0.959 . S
H4040 C4033 0.961 . S
H4041 C4033 0.960 . S
H4042 C4034 0.930 . S
H4043 C4035 0.929 . S
H4044 C4052 0.929 . S
H4045 C4054 0.930 . S
H4046 C4056 0.930 . S
H4047 C4059 0.929 . S
H4048 C4062 0.930 . S
H4049 C4064 0.960 . S
H4050 C4064 0.960 . S
H4051 C4064 0.960 . S
C4052 H4044 0.929 . S
C4052 C4053 1.377 . S
C4052 C4054 1.384 . S
C4053 C4052 1.377 . S
C4053 C4059 1.390 . S
C4054 H4045 0.930 . S
C4054 C4052 1.384 . S
C4054 C4055 1.372 . S
C4055 C4054 1.372 . S
C4055 C4056 1.400 . S
C4055 C4060 1.490 . S
C4056 H4046 0.930 . S
C4056 C4055 1.400 . S
C4056 C4059 1.386 . S
H4057 C4073 0.930 . S
H4058 C4074 0.931 . S
C4059 H4047 0.929 . S
C4059 C4053 1.390 . S
C4059 C4056 1.386 . S
C4060 C4055 1.490 . S
C4060 C4062 1.395 . S
C4060 C4063 1.403 . S
H4061 C4067 0.930 . S
C4062 H4048 0.930 . S
C4062 C4060 1.395 . S
C4062 C4065 1.403 . S
C4063 C4060 1.403 . S
C4063 C4064 1.524 . S
C4063 C4067 1.400 . S
C4064 H4049 0.960 . S
C4064 H4050 0.960 . S
C4064 H4051 0.960 . S
C4064 C4063 1.524 . S
C4065 C4062 1.403 . S
C4065 C4066 1.392 . S
C4065 C4069 1.495 . S
C4066 C4065 1.392 . S
C4066 C4067 1.385 . S
C4066 C4068 1.478 . S
C4067 H4061 0.930 . S
C4067 C4063 1.400 . S
C4067 C4066 1.385 . S
C4068 C4066 1.478 . S
C4068 C4070 1.381 . S
C4068 C4074 1.383 . S
C4069 C4065 1.495 . S
C4069 H4075 0.959 . S
C4069 H4076 0.961 . S
C4069 H4077 0.960 . S
C4070 C4068 1.381 . S
C4070 C4071 1.394 . S
C4070 H4078 0.930 . S
C4071 C4070 1.394 . S
C4071 C4072 1.383 . S
C4071 H4079 0.929 . S
C4072 C4071 1.383 . S
C4072 C4073 1.377 . S
C4073 H4057 0.930 . S
C4073 C4072 1.377 . S
C4073 C4074 1.379 . S
C4074 H4058 0.931 . S
C4074 C4068 1.383 . S
C4074 C4073 1.379 . S
H4075 C4069 0.959 . S
H4076 C4069 0.961 . S
H4077 C4069 0.960 . S
H4078 C4070 0.930 . S
H4079 C4071 0.929 . S
H4080 C4088 0.929 . S
H4081 C4090 0.930 . S
H4082 C4092 0.930 . S
H4083 C4095 0.929 . S
H4084 C4098 0.930 . S
H4085 C4100 0.960 . S
H4086 C4100 0.960 . S
H4087 C4100 0.960 . S
C4088 H4080 0.929 . S
C4088 C4089 1.377 . S
C4088 C4090 1.384 . S
C4089 C4088 1.377 . S
C4089 C4095 1.390 . S
C4090 H4081 0.930 . S
C4090 C4088 1.384 . S
C4090 C4091 1.372 . S
C4091 C4090 1.372 . S
C4091 C4092 1.400 . S
C4091 C4096 1.490 . S
C4092 H4082 0.930 . S
C4092 C4091 1.400 . S
C4092 C4095 1.386 . S
H4093 C4109 0.930 . S
H4094 C4110 0.931 . S
C4095 H4083 0.929 . S
C4095 C4089 1.390 . S
C4095 C4092 1.386 . S
C4096 C4091 1.490 . S
C4096 C4098 1.395 . S
C4096 C4099 1.403 . S
H4097 C4103 0.930 . S
C4098 H4084 0.930 . S
C4098 C4096 1.395 . S
C4098 C4101 1.403 . S
C4099 C4096 1.403 . S
C4099 C4100 1.524 . S
C4099 C4103 1.400 . S
C4100 H4085 0.960 . S
C4100 H4086 0.960 . S
C4100 H4087 0.960 . S
C4100 C4099 1.524 . S
C4101 C4098 1.403 . S
C4101 C4102 1.392 . S
C4101 C4105 1.495 . S
C4102 C4101 1.392 . S
C4102 C4103 1.385 . S
C4102 C4104 1.478 . S
C4103 H4097 0.930 . S
C4103 C4099 1.400 . S
C4103 C4102 1.385 . S
C4104 C4102 1.478 . S
C4104 C4106 1.381 . S
C4104 C4110 1.383 . S
C4105 C4101 1.495 . S
C4105 H4111 0.959 . S
C4105 H4112 0.961 . S
C4105 H4113 0.960 . S
C4106 C4104 1.381 . S
C4106 C4107 1.394 . S
C4106 H4114 0.930 . S
C4107 C4106 1.394 . S
C4107 C4108 1.383 . S
C4107 H4115 0.929 . S
C4108 C4107 1.383 . S
C4108 C4109 1.377 . S
C4109 H4093 0.930 . S
C4109 C4108 1.377 . S
C4109 C4110 1.379 . S
C4110 H4094 0.931 . S
C4110 C4104 1.383 . S
C4110 C4109 1.379 . S
H4111 C4105 0.959 . S
H4112 C4105 0.961 . S
H4113 C4105 0.960 . S
H4114 C4106 0.930 . S
H4115 C4107 0.929 . S
H4116 C4124 0.929 . S
H4117 C4126 0.930 . S
H4118 C4128 0.930 . S
H4119 C4131 0.929 . S
H4120 C4134 0.930 . S
H4121 C4136 0.960 . S
H4122 C4136 0.960 . S
H4123 C4136 0.960 . S
C4124 H4116 0.929 . S
C4124 C4125 1.377 . S
C4124 C4126 1.384 . S
C4125 C4124 1.377 . S
C4125 C4131 1.390 . S
C4126 H4117 0.930 . S
C4126 C4124 1.384 . S
C4126 C4127 1.372 . S
C4127 C4126 1.372 . S
C4127 C4128 1.400 . S
C4127 C4132 1.490 . S
C4128 H4118 0.930 . S
C4128 C4127 1.400 . S
C4128 C4131 1.386 . S
H4129 C4145 0.930 . S
H4130 C4146 0.931 . S
C4131 H4119 0.929 . S
C4131 C4125 1.390 . S
C4131 C4128 1.386 . S
C4132 C4127 1.490 . S
C4132 C4134 1.395 . S
C4132 C4135 1.403 . S
H4133 C4139 0.930 . S
C4134 H4120 0.930 . S
C4134 C4132 1.395 . S
C4134 C4137 1.403 . S
C4135 C4132 1.403 . S
C4135 C4136 1.524 . S
C4135 C4139 1.400 . S
C4136 H4121 0.960 . S
C4136 H4122 0.960 . S
C4136 H4123 0.960 . S
C4136 C4135 1.524 . S
C4137 C4134 1.403 . S
C4137 C4138 1.392 . S
C4137 C4141 1.495 . S
C4138 C4137 1.392 . S
C4138 C4139 1.385 . S
C4138 C4140 1.478 . S
C4139 H4133 0.930 . S
C4139 C4135 1.400 . S
C4139 C4138 1.385 . S
C4140 C4138 1.478 . S
C4140 C4142 1.381 . S
C4140 C4146 1.383 . S
C4141 C4137 1.495 . S
C4141 H4147 0.959 . S
C4141 H4148 0.961 . S
C4141 H4149 0.960 . S
C4142 C4140 1.381 . S
C4142 C4143 1.394 . S
C4142 H4150 0.930 . S
C4143 C4142 1.394 . S
C4143 C4144 1.383 . S
C4143 H4151 0.929 . S
C4144 C4143 1.383 . S
C4144 C4145 1.377 . S
C4145 H4129 0.930 . S
C4145 C4144 1.377 . S
C4145 C4146 1.379 . S
C4146 H4130 0.931 . S
C4146 C4140 1.383 . S
C4146 C4145 1.379 . S
H4147 C4141 0.959 . S
H4148 C4141 0.961 . S
H4149 C4141 0.960 . S
H4150 C4142 0.930 . S
H4151 C4143 0.929 . S
H4152 C4160 0.929 . S
H4153 C4162 0.930 . S
H4154 C4164 0.930 . S
H4155 C4167 0.929 . S
H4156 C4170 0.930 . S
H4157 C4172 0.960 . S
H4158 C4172 0.960 . S
H4159 C4172 0.960 . S
C4160 H4152 0.929 . S
C4160 C4161 1.377 . S
C4160 C4162 1.384 . S
C4161 C4160 1.377 . S
C4161 C4167 1.390 . S
C4162 H4153 0.930 . S
C4162 C4160 1.384 . S
C4162 C4163 1.372 . S
C4163 C4162 1.372 . S
C4163 C4164 1.400 . S
C4163 C4168 1.490 . S
C4164 H4154 0.930 . S
C4164 C4163 1.400 . S
C4164 C4167 1.386 . S
H4165 C4181 0.930 . S
H4166 C4182 0.931 . S
C4167 H4155 0.929 . S
C4167 C4161 1.390 . S
C4167 C4164 1.386 . S
C4168 C4163 1.490 . S
C4168 C4170 1.395 . S
C4168 C4171 1.403 . S
H4169 C4175 0.930 . S
C4170 H4156 0.930 . S
C4170 C4168 1.395 . S
C4170 C4173 1.403 . S
C4171 C4168 1.403 . S
C4171 C4172 1.524 . S
C4171 C4175 1.400 . S
C4172 H4157 0.960 . S
C4172 H4158 0.960 . S
C4172 H4159 0.960 . S
C4172 C4171 1.524 . S
C4173 C4170 1.403 . S
C4173 C4174 1.392 . S
C4173 C4177 1.495 . S
C4174 C4173 1.392 . S
C4174 C4175 1.385 . S
C4174 C4176 1.478 . S
C4175 H4169 0.930 . S
C4175 C4171 1.400 . S
C4175 C4174 1.385 . S
C4176 C4174 1.478 . S
C4176 C4178 1.381 . S
C4176 C4182 1.383 . S
C4177 C4173 1.495 . S
C4177 H4183 0.959 . S
C4177 H4184 0.961 . S
C4177 H4185 0.960 . S
C4178 C4176 1.381 . S
C4178 C4179 1.394 . S
C4178 H4186 0.930 . S
C4179 C4178 1.394 . S
C4179 C4180 1.383 . S
C4179 H4187 0.929 . S
C4180 C4179 1.383 . S
C4180 C4181 1.377 . S
C4181 H4165 0.930 . S
C4181 C4180 1.377 . S
C4181 C4182 1.379 . S
C4182 H4166 0.931 . S
C4182 C4176 1.383 . S
C4182 C4181 1.379 . S
H4183 C4177 0.959 . S
H4184 C4177 0.961 . S
H4185 C4177 0.960 . S
H4186 C4178 0.930 . S
H4187 C4179 0.929 . S
H4188 C4196 0.929 . S
H4189 C4198 0.930 . S
H4190 C4200 0.930 . S
H4191 C4203 0.929 . S
H4192 C4206 0.930 . S
H4193 C4208 0.960 . S
H4194 C4208 0.960 . S
H4195 C4208 0.960 . S
C4196 H4188 0.929 . S
C4196 C4197 1.377 . S
C4196 C4198 1.384 . S
C4197 C4196 1.377 . S
C4197 C4203 1.390 . S
C4198 H4189 0.930 . S
C4198 C4196 1.384 . S
C4198 C4199 1.372 . S
C4199 C4198 1.372 . S
C4199 C4200 1.400 . S
C4199 C4204 1.490 . S
C4200 H4190 0.930 . S
C4200 C4199 1.400 . S
C4200 C4203 1.386 . S
H4201 C4217 0.930 . S
H4202 C4218 0.931 . S
C4203 H4191 0.929 . S
C4203 C4197 1.390 . S
C4203 C4200 1.386 . S
C4204 C4199 1.490 . S
C4204 C4206 1.395 . S
C4204 C4207 1.403 . S
H4205 C4211 0.930 . S
C4206 H4192 0.930 . S
C4206 C4204 1.395 . S
C4206 C4209 1.403 . S
C4207 C4204 1.403 . S
C4207 C4208 1.524 . S
C4207 C4211 1.400 . S
C4208 H4193 0.960 . S
C4208 H4194 0.960 . S
C4208 H4195 0.960 . S
C4208 C4207 1.524 . S
C4209 C4206 1.403 . S
C4209 C4210 1.392 . S
C4209 C4213 1.495 . S
C4210 C4209 1.392 . S
C4210 C4211 1.385 . S
C4210 C4212 1.478 . S
C4211 H4205 0.930 . S
C4211 C4207 1.400 . S
C4211 C4210 1.385 . S
C4212 C4210 1.478 . S
C4212 C4214 1.381 . S
C4212 C4218 1.383 . S
C4213 C4209 1.495 . S
C4213 H4219 0.959 . S
C4213 H4220 0.961 . S
C4213 H4221 0.960 . S
C4214 C4212 1.381 . S
C4214 C4215 1.394 . S
C4214 H4222 0.930 . S
C4215 C4214 1.394 . S
C4215 C4216 1.383 . S
C4215 H4223 0.929 . S
C4216 C4215 1.383 . S
C4216 C4217 1.377 . S
C4217 H4201 0.930 . S
C4217 C4216 1.377 . S
C4217 C4218 1.379 . S
C4218 H4202 0.931 . S
C4218 C4212 1.383 . S
C4218 C4217 1.379 . S
H4219 C4213 0.959 . S
H4220 C4213 0.961 . S
H4221 C4213 0.960 . S
H4222 C4214 0.930 . S
H4223 C4215 0.929 . S
H4224 C4232 0.929 . S
H4225 C4234 0.930 . S
H4226 C4236 0.930 . S
H4227 C4239 0.929 . S
H4228 C4242 0.930 . S
H4229 C4244 0.960 . S
H4230 C4244 0.960 . S
H4231 C4244 0.960 . S
C4232 H4224 0.929 . S
C4232 C4233 1.377 . S
C4232 C4234 1.384 . S
C4233 C4232 1.377 . S
C4233 C4239 1.390 . S
C4234 H4225 0.930 . S
C4234 C4232 1.384 . S
C4234 C4235 1.372 . S
C4235 C4234 1.372 . S
C4235 C4236 1.400 . S
C4235 C4240 1.490 . S
C4236 H4226 0.930 . S
C4236 C4235 1.400 . S
C4236 C4239 1.386 . S
H4237 C4253 0.930 . S
H4238 C4254 0.931 . S
C4239 H4227 0.929 . S
C4239 C4233 1.390 . S
C4239 C4236 1.386 . S
C4240 C4235 1.490 . S
C4240 C4242 1.395 . S
C4240 C4243 1.403 . S
H4241 C4247 0.930 . S
C4242 H4228 0.930 . S
C4242 C4240 1.395 . S
C4242 C4245 1.403 . S
C4243 C4240 1.403 . S
C4243 C4244 1.524 . S
C4243 C4247 1.400 . S
C4244 H4229 0.960 . S
C4244 H4230 0.960 . S
C4244 H4231 0.960 . S
C4244 C4243 1.524 . S
C4245 C4242 1.403 . S
C4245 C4246 1.392 . S
C4245 C4249 1.495 . S
C4246 C4245 1.392 . S
C4246 C4247 1.385 . S
C4246 C4248 1.478 . S
C4247 H4241 0.930 . S
C4247 C4243 1.400 . S
C4247 C4246 1.385 . S
C4248 C4246 1.478 . S
C4248 C4250 1.381 . S
C4248 C4254 1.383 . S
C4249 C4245 1.495 . S
C4249 H4255 0.959 . S
C4249 H4256 0.961 . S
C4249 H4257 0.960 . S
C4250 C4248 1.381 . S
C4250 C4251 1.394 . S
C4250 H4258 0.930 . S
C4251 C4250 1.394 . S
C4251 C4252 1.383 . S
C4251 H4259 0.929 . S
C4252 C4251 1.383 . S
C4252 C4253 1.377 . S
C4253 H4237 0.930 . S
C4253 C4252 1.377 . S
C4253 C4254 1.379 . S
C4254 H4238 0.931 . S
C4254 C4248 1.383 . S
C4254 C4253 1.379 . S
H4255 C4249 0.959 . S
H4256 C4249 0.961 . S
H4257 C4249 0.960 . S
H4258 C4250 0.930 . S
H4259 C4251 0.929 . S
H4260 C4268 0.929 . S
H4261 C4270 0.930 . S
H4262 C4272 0.930 . S
H4263 C4275 0.929 . S
H4264 C4278 0.930 . S
H4265 C4280 0.960 . S
H4266 C4280 0.960 . S
H4267 C4280 0.960 . S
C4268 H4260 0.929 . S
C4268 C4269 1.377 . S
C4268 C4270 1.384 . S
C4269 C4268 1.377 . S
C4269 C4275 1.390 . S
C4270 H4261 0.930 . S
C4270 C4268 1.384 . S
C4270 C4271 1.372 . S
C4271 C4270 1.372 . S
C4271 C4272 1.400 . S
C4271 C4276 1.490 . S
C4272 H4262 0.930 . S
C4272 C4271 1.400 . S
C4272 C4275 1.386 . S
H4273 C4289 0.930 . S
H4274 C4290 0.931 . S
C4275 H4263 0.929 . S
C4275 C4269 1.390 . S
C4275 C4272 1.386 . S
C4276 C4271 1.490 . S
C4276 C4278 1.395 . S
C4276 C4279 1.403 . S
H4277 C4283 0.930 . S
C4278 H4264 0.930 . S
C4278 C4276 1.395 . S
C4278 C4281 1.403 . S
C4279 C4276 1.403 . S
C4279 C4280 1.524 . S
C4279 C4283 1.400 . S
C4280 H4265 0.960 . S
C4280 H4266 0.960 . S
C4280 H4267 0.960 . S
C4280 C4279 1.524 . S
C4281 C4278 1.403 . S
C4281 C4282 1.392 . S
C4281 C4285 1.495 . S
C4282 C4281 1.392 . S
C4282 C4283 1.385 . S
C4282 C4284 1.478 . S
C4283 H4277 0.930 . S
C4283 C4279 1.400 . S
C4283 C4282 1.385 . S
C4284 C4282 1.478 . S
C4284 C4286 1.381 . S
C4284 C4290 1.383 . S
C4285 C4281 1.495 . S
C4285 H4291 0.959 . S
C4285 H4292 0.961 . S
C4285 H4293 0.960 . S
C4286 C4284 1.381 . S
C4286 C4287 1.394 . S
C4286 H4294 0.930 . S
C4287 C4286 1.394 . S
C4287 C4288 1.383 . S
C4287 H4295 0.929 . S
C4288 C4287 1.383 . S
C4288 C4289 1.377 . S
C4289 H4273 0.930 . S
C4289 C4288 1.377 . S
C4289 C4290 1.379 . S
C4290 H4274 0.931 . S
C4290 C4284 1.383 . S
C4290 C4289 1.379 . S
H4291 C4285 0.959 . S
H4292 C4285 0.961 . S
H4293 C4285 0.960 . S
H4294 C4286 0.930 . S
H4295 C4287 0.929 . S
C868 N300 1.444 . S
C849 C5 1.508 . S
C904 C327 1.573 . S
C885 C16 1.574 . S
C921 C23 1.519 . S
C940 C341 1.502 . S
C976 N359 1.455 . S
C957 C34 1.471 . S
C993 C43 1.561 . S
C1012 C364 1.561 . S
C1029 C50 1.497 . S
C1048 C304 1.482 . S
C1065 C58 1.415 . S
C1084 N323 1.401 . S
C1120 N336 1.433 . S
C1101 C68 1.502 . S
C1156 N382 1.416 . S
C1137 C4 1.447 . S
C1173 C13 1.528 . S
C1192 N405 1.479 . S
C1209 C25 1.545 . S
C1228 N428 1.514 . S
C1264 N461 1.409 . S
C1245 C32 1.455 . S
C1281 C41 1.542 . S
C1300 C488 1.535 . S
C1336 C511 1.561 . S
C1317 C52 1.564 . S
C1353 C61 1.472 . S
C1372 C534 1.461 . S
C1408 C548 1.437 . S
C1389 C67 1.445 . S
C1425 C7 1.444 . S
C1444 C465 1.423 . S
C1461 C40 1.488 . S
C1480 N507 1.471 . S
C1516 N530 1.461 . S
C1497 C49 1.480 . S
C1533 C59 1.462 . S
C1552 N543 1.444 . S
C1588 N484 1.441 . S
C1569 C70 1.460 . S
C1624 C410 1.650 . S
C1605 C22 1.660 . S
C1641 C31 1.494 . S
C1660 C433 1.486 . S
C1696 C387 1.585 . S
C1677 C14 1.585 . S
C1732 C580 1.457 . S
C1713 C77 1.468 . S
C1749 C88 1.588 . S
C1768 C594 1.585 . S
C1785 C95 1.507 . S
C1804 N622 1.443 . S
C1840 N635 1.409 . S
C1821 C106 1.460 . S
C1857 C115 1.570 . S
C1876 C640 1.568 . S
C1893 C122 1.483 . S
C1912 N576 1.431 . S
C1929 C130 1.502 . S
C1948 N589 1.445 . S
C1965 C140 1.459 . S
C1984 C626 1.450 . S
C2020 N474 1.389 . S
C2001 C76 1.446 . S
C2037 C85 1.515 . S
C2056 N658 1.448 . S
C2092 N520 1.415 . S
C2073 C97 1.473 . S
C2109 C104 1.492 . S
C2128 C695 1.476 . S
C2145 C113 1.573 . S
C2164 C396 1.569 . S
C2200 C709 1.588 . S
C2181 C124 1.587 . S
C2217 C133 1.523 . S
C2236 C442 1.526 . S
C2272 N727 1.416 . S
C2253 C139 1.441 . S
C2289 C79 1.472 . S
C2308 N691 1.446 . S
C2344 N704 1.468 . S
C2325 C112 1.518 . S
C2361 C121 1.479 . S
C2380 N438 1.441 . S
C2416 C732 1.428 . S
C2397 C131 1.429 . S
C2433 C142 1.439 . S
C2452 N392 1.409 . S
C2469 C94 1.560 . S
C2488 C663 1.558 . S
C2505 C103 1.538 . S
C2524 C525 1.538 . S
C2541 C86 1.588 . S
C2560 C479 1.580 . S
C2577 C149 1.536 . S
C2596 C617 1.529 . S
C2632 C649 1.512 . S
C2613 C160 1.531 . S
C2649 C167 1.477 . S
C2668 N566 1.465 . S
C2685 C178 1.442 . S
C2704 N599 1.393 . S
C2721 C187 1.574 . S
C2740 C603 1.560 . S
C2757 C194 1.552 . S
C2776 N612 1.498 . S
C2812 N645 1.353 . S
C2793 C202 1.393 . S
C2829 C212 1.509 . S
C2848 C571 1.503 . S
C2884 N760 1.458 . S
C2865 C148 1.474 . S
C2901 C157 1.470 . S
C2920 N497 1.418 . S
C2956 N783 1.398 . S
C2937 C169 1.414 . S
C2973 C176 1.462 . S
C2992 N553 1.405 . S
C3009 C185 1.549 . S
C3028 C801 1.547 . S
C3045 C196 1.651 . S
C3064 C419 1.638 . S
C3100 N819 1.340 . S
C3081 C205 1.404 . S
C3117 C211 1.491 . S
C3136 C456 1.490 . S
C3172 C557 1.489 . S
C3153 C151 1.495 . S
C3208 N415 1.469 . S
C3189 C184 1.531 . S
C3225 C193 1.576 . S
C3244 C824 1.572 . S
C3261 C203 1.389 . S
C3280 N451 1.328 . S
C3316 N796 1.468 . S
C3297 C214 1.507 . S
C3352 C502 1.549 . S
C3333 C166 1.554 . S
C3388 C787 1.529 . S
C3369 C175 1.538 . S
C3424 C764 1.550 . S
C3405 C158 1.556 . S
C3441 C221 1.422 . S
C3460 N346 1.354 . S
C3477 C232 1.548 . S
C3496 C373 1.535 . S
C3532 C295 1.550 . S
C3513 C239 1.550 . S
C3568 N313 1.381 . S
C3549 C250 1.406 . S
C3604 C318 1.557 . S
C3585 C259 1.568 . S
C3640 C350 1.494 . S
C3621 C266 1.500 . S
C3676 N369 1.466 . S
C3657 C274 1.510 . S
C3693 C284 1.509 . S
C3712 N290 1.458 . S
C3729 C220 1.386 . S
C3748 N806 1.340 . S
C3784 N714 1.439 . S
C3765 C229 1.493 . S
C3820 C833 1.578 . S
C3801 C241 1.578 . S
C3856 C741 1.369 . S
C3837 C248 1.378 . S
C3873 C257 1.576 . S
C3892 C755 1.568 . S
C3928 C672 1.570 . S
C3909 C268 1.582 . S
C3964 C778 1.615 . S
C3945 C277 1.616 . S
C3981 C283 1.484 . S
C4000 N681 1.462 . S
C4036 N737 1.351 . S
C4017 C223 1.395 . S
C4072 N668 1.475 . S
C4053 C256 1.493 . S
C4108 N773 1.405 . S
C4089 C265 1.430 . S
C4125 C275 1.496 . S
C4144 C686 1.496 . S
C4161 C286 1.441 . S
C4180 N750 1.386 . S
C4197 C238 1.663 . S
C4216 C718 1.650 . S
C4233 C247 1.420 . S
C4252 N829 1.373 . S
C4288 C810 1.527 . S
C4269 C230 1.535 . S
