# Generated by pormake.
# Topology nom, (4,4)-cn, num edge types: 1
# Building blocks:
#     Node 0, Type 0, BuildingBlock: AZAVOO_clean_linker_0, # of connection points: 4
#     Node 1, Type 0, BuildingBlock: AZAVOO_clean_linker_0, # of connection points: 4
#     Node 2, Type 0, BuildingBlock: AZAVOO_clean_linker_0, # of connection points: 4
#     Node 3, Type 0, BuildingBlock: AZAVOO_clean_linker_0, # of connection points: 4
#     Node 4, Type 0, BuildingBlock: AZAVOO_clean_linker_0, # of connection points: 4
#     Node 5, Type 0, BuildingBlock: AZAVOO_clean_linker_0, # of connection points: 4
#     Node 6, Type 1, BuildingBlock: KUFVIS_clean_sbu_0, # of connection points: 4
#     Node 7, Type 1, BuildingBlock: KUFVIS_clean_sbu_0, # of connection points: 4
#     Node 8, Type 1, BuildingBlock: KUFVIS_clean_sbu_0, # of connection points: 4
#     Node 9, Type 1, BuildingBlock: KUFVIS_clean_sbu_0, # of connection points: 4
#     Node 10, Type 1, BuildingBlock: KUFVIS_clean_sbu_0, # of connection points: 4
#     Node 11, Type 1, BuildingBlock: KUFVIS_clean_sbu_0, # of connection points: 4
#     Edge 12, Type (0, 1), BuildingBlock: OJICUG_clean_linker_0, # of connection points: 2
#     Edge 13, Type (0, 1), BuildingBlock: OJICUG_clean_linker_0, # of connection points: 2
#     Edge 14, Type (0, 1), BuildingBlock: OJICUG_clean_linker_0, # of connection points: 2
#     Edge 15, Type (0, 1), BuildingBlock: OJICUG_clean_linker_0, # of connection points: 2
#     Edge 16, Type (0, 1), BuildingBlock: OJICUG_clean_linker_0, # of connection points: 2
#     Edge 17, Type (0, 1), BuildingBlock: OJICUG_clean_linker_0, # of connection points: 2
#     Edge 18, Type (0, 1), BuildingBlock: OJICUG_clean_linker_0, # of connection points: 2
#     Edge 19, Type (0, 1), BuildingBlock: OJICUG_clean_linker_0, # of connection points: 2
#     Edge 20, Type (0, 1), BuildingBlock: OJICUG_clean_linker_0, # of connection points: 2
#     Edge 21, Type (0, 1), BuildingBlock: OJICUG_clean_linker_0, # of connection points: 2
#     Edge 22, Type (0, 1), BuildingBlock: OJICUG_clean_linker_0, # of connection points: 2
#     Edge 23, Type (0, 1), BuildingBlock: OJICUG_clean_linker_0, # of connection points: 2
#     Edge 24, Type (0, 1), BuildingBlock: OJICUG_clean_linker_0, # of connection points: 2
#     Edge 25, Type (0, 1), BuildingBlock: OJICUG_clean_linker_0, # of connection points: 2
#     Edge 26, Type (0, 1), BuildingBlock: OJICUG_clean_linker_0, # of connection points: 2
#     Edge 27, Type (0, 1), BuildingBlock: OJICUG_clean_linker_0, # of connection points: 2
#     Edge 28, Type (0, 1), BuildingBlock: OJICUG_clean_linker_0, # of connection points: 2
#     Edge 29, Type (0, 1), BuildingBlock: OJICUG_clean_linker_0, # of connection points: 2
#     Edge 30, Type (0, 1), BuildingBlock: OJICUG_clean_linker_0, # of connection points: 2
#     Edge 31, Type (0, 1), BuildingBlock: OJICUG_clean_linker_0, # of connection points: 2
#     Edge 32, Type (0, 1), BuildingBlock: OJICUG_clean_linker_0, # of connection points: 2
#     Edge 33, Type (0, 1), BuildingBlock: OJICUG_clean_linker_0, # of connection points: 2
#     Edge 34, Type (0, 1), BuildingBlock: OJICUG_clean_linker_0, # of connection points: 2
#     Edge 35, Type (0, 1), BuildingBlock: OJICUG_clean_linker_0, # of connection points: 2
# Relax obj value: 0.157
# Max RMSD: 0.227
# Mean RMSD: 0.145
data_MOF--net-nom--node1-KUFVIS_clean_sbu_0--node2-AZAVOO_clean_linker_0--edge1-OJICUG_clean_linker_0
_symmetry_space_group_name_H-M    P1
_symmetry_Int_Tables_number       1
_symmetry_cell_setting            triclinic
loop_
_symmetry_equiv_pos_as_xyz
'x, y, z'
_cell_length_a     36.917251
_cell_length_b     38.79774
_cell_length_c     46.073409
_cell_angle_alpha  90.867317
_cell_angle_beta   90.721113
_cell_angle_gamma 121.53828
loop_
_atom_site_label
_atom_site_type_symbol
_atom_site_fract_x
_atom_site_fract_y
_atom_site_fract_z
_atom_type_partial_charge
H0 H 0.12455 0.49629 0.12305 0.0
H1 H 0.30285 0.6716 0.41418 0.0
H2 H 0.98926 0.43477 0.26761 0.0
H3 H 0.94752 0.4075 0.22239 0.0
H4 H 0.95107 0.51945 0.21101 0.0
H5 H 0.99177 0.54616 0.25692 0.0
H6 H 0.09025 0.47628 0.24731 0.0
H7 H 0.10314 0.47268 0.19562 0.0
H8 H 0.07703 0.56713 0.17909 0.0
H9 H 0.06526 0.57107 0.23082 0.0
H10 H 0.16957 0.52793 0.29524 0.0
H11 H 0.24268 0.56933 0.27792 0.0
H12 H 0.21282 0.65532 0.2445 0.0
H13 H 0.14088 0.61471 0.26238 0.0
H14 H 0.13262 0.50963 0.35331 0.0
H15 H 0.1968 0.53872 0.3843 0.0
H16 H 0.22327 0.65877 0.36645 0.0
H17 H 0.15949 0.62925 0.33497 0.0
H18 H 0.04304 0.48057 0.37533 0.0
H19 H 0.06698 0.49589 0.42625 0.0
H20 H 0.10535 0.62042 0.415 0.0
H21 H 0.08163 0.60521 0.36401 0.0
H22 H 0.94955 0.44665 0.31696 0.0
H23 H 0.88128 0.43548 0.33271 0.0
H24 H 0.943 0.56225 0.35766 0.0
H25 H 0.00943 0.57353 0.33917 0.0
O26 O 0.11818 0.4974 0.14323 0.0
O27 O 0.09303 0.53739 0.13448 0.0
O28 O 0.26283 0.597 0.40989 0.0
O29 O 0.27787 0.65939 0.40151 0.0
C30 C 0.03031 0.5129 0.28586 0.0
C31 C 0.07103 0.52732 0.27436 0.0
C32 C 0.10733 0.54653 0.2927 0.0
C33 C 0.10304 0.54949 0.32275 0.0
C34 C 0.06265 0.53654 0.33428 0.0
C35 C 0.02606 0.51904 0.31573 0.0
C36 C 0.99328 0.49232 0.26556 0.0
C37 C 0.9792 0.45263 0.25612 0.0
C38 C 0.95588 0.43732 0.23013 0.0
C39 C 0.94703 0.46179 0.21304 0.0
C40 C 0.9581 0.50029 0.22371 0.0
C41 C 0.98065 0.51528 0.25008 0.0
C42 C 0.07626 0.52353 0.24272 0.0
C43 C 0.08709 0.49597 0.23243 0.0
C44 C 0.09453 0.49406 0.20294 0.0
C45 C 0.09122 0.5197 0.18326 0.0
C46 C 0.07972 0.54687 0.19364 0.0
C47 C 0.07271 0.549 0.22315 0.0
C48 C 0.15009 0.56843 0.28 0.0
C49 C 0.1789 0.55554 0.28394 0.0
C50 C 0.22042 0.57906 0.27403 0.0
C51 C 0.23316 0.61526 0.25967 0.0
C52 C 0.20364 0.62717 0.25497 0.0
C53 C 0.1626 0.6041 0.26523 0.0
C54 C 0.14142 0.56738 0.3421 0.0
C55 C 0.15236 0.54219 0.35615 0.0
C56 C 0.18906 0.55888 0.37375 0.0
C57 C 0.21508 0.60108 0.37794 0.0
C58 C 0.20392 0.62618 0.36375 0.0
C59 C 0.16749 0.60945 0.34584 0.0
C60 C 0.06026 0.54168 0.36602 0.0
C61 C 0.0543 0.51061 0.38424 0.0
C62 C 0.06829 0.51943 0.41323 0.0
C63 C 0.08791 0.55924 0.42433 0.0
C64 C 0.08965 0.58939 0.40695 0.0
C65 C 0.07591 0.58065 0.37791 0.0
C66 C 0.98473 0.51093 0.32694 0.0
C67 C 0.94809 0.47202 0.32555 0.0
C68 C 0.9091 0.46563 0.33494 0.0
C69 C 0.90611 0.49795 0.34642 0.0
C70 C 0.94333 0.53665 0.34833 0.0
C71 C 0.98183 0.54311 0.33829 0.0
C72 C 0.10071 0.51874 0.15217 0.0
C73 C 0.25335 0.61886 0.39738 0.0
H74 H 0.591 0.08475 0.29365 0.0
H75 H 0.54956 0.2386 0.59587 0.0
H76 H 0.54836 0.98078 0.44147 0.0
H77 H 0.54334 0.94135 0.39799 0.0
H78 H 0.41629 0.91576 0.38057 0.0
H79 H 0.42106 0.95425 0.42472 0.0
H80 H 0.586 0.07002 0.41998 0.0
H81 H 0.60049 0.07892 0.36802 0.0
H82 H 0.4686 0.03824 0.35002 0.0
H83 H 0.45473 0.02991 0.40207 0.0
H84 H 0.60335 0.13812 0.46964 0.0
H85 H 0.63298 0.20749 0.45346 0.0
H86 H 0.50974 0.17469 0.41805 0.0
H87 H 0.48043 0.1053 0.43436 0.0
H88 H 0.58831 0.10853 0.52779 0.0
H89 H 0.61026 0.16437 0.56287 0.0
H90 H 0.49552 0.16423 0.54246 0.0
H91 H 0.4741 0.10848 0.50727 0.0
H92 H 0.55136 0.01983 0.53969 0.0
H93 H 0.56859 0.041 0.59069 0.0
H94 H 0.45987 0.05434 0.59527 0.0
H95 H 0.44298 0.0335 0.54397 0.0
H96 H 0.51146 0.94179 0.48851 0.0
H97 H 0.47214 0.8723 0.50582 0.0
H98 H 0.36883 0.88784 0.53007 0.0
H99 H 0.40787 0.95686 0.51215 0.0
O100 O 0.5846 0.08107 0.31407 0.0
O101 O 0.51528 0.05371 0.30563 0.0
O102 O 0.59969 0.21477 0.59212 0.0
O103 O 0.54206 0.21713 0.58166 0.0
C104 C 0.49289 0.00294 0.45706 0.0
C105 C 0.51047 0.04237 0.44607 0.0
C106 C 0.52119 0.07538 0.46495 0.0
C107 C 0.51542 0.06919 0.49501 0.0
C108 C 0.49726 0.02973 0.50611 0.0
C109 C 0.48506 0.99621 0.4871 0.0
C110 C 0.48484 0.96987 0.43645 0.0
C111 C 0.51875 0.96512 0.42899 0.0
C112 C 0.51603 0.94302 0.40398 0.0
C113 C 0.47973 0.92617 0.3857 0.0
C114 C 0.44481 0.92888 0.39416 0.0
C115 C 0.44723 0.9503 0.41953 0.0
C116 C 0.51937 0.04933 0.41467 0.0
C117 C 0.56041 0.06335 0.40476 0.0
C118 C 0.56854 0.0683 0.37509 0.0
C119 C 0.53569 0.05926 0.35486 0.0
C120 C 0.49459 0.04541 0.365 0.0
C121 C 0.48658 0.04069 0.39468 0.0
C122 C 0.53968 0.11677 0.45339 0.0
C123 C 0.58282 0.14592 0.45831 0.0
C124 C 0.59963 0.18552 0.4491 0.0
C125 C 0.57366 0.19671 0.4346 0.0
C126 C 0.53069 0.16701 0.42891 0.0
C127 C 0.51384 0.12743 0.4383 0.0
C128 C 0.52955 0.10442 0.51516 0.0
C129 C 0.56806 0.12072 0.53088 0.0
C130 C 0.58045 0.15253 0.55093 0.0
C131 C 0.55444 0.16852 0.55567 0.0
C132 C 0.5162 0.15251 0.53944 0.0
C133 C 0.50392 0.12077 0.51929 0.0
C134 C 0.49612 0.02539 0.53809 0.0
C135 C 0.52993 0.02518 0.55206 0.0
C136 C 0.53995 0.03762 0.58116 0.0
C137 C 0.51586 0.04977 0.59677 0.0
C138 C 0.47881 0.04494 0.58377 0.0
C139 C 0.46903 0.03288 0.55451 0.0
C140 C 0.46236 0.95438 0.49855 0.0
C141 C 0.48017 0.93009 0.49725 0.0
C142 C 0.45773 0.89042 0.5073 0.0
C143 C 0.41727 0.87445 0.51931 0.0
C144 C 0.40005 0.89927 0.52125 0.0
C145 C 0.42227 0.9387 0.51089 0.0
C146 C 0.54438 0.06441 0.32337 0.0
C147 C 0.56693 0.20155 0.57757 0.0
H148 H 0.59196 0.52086 0.83019 0.0
H149 H 0.61317 0.37356 0.51771 0.0
H150 H 0.57559 0.5957 0.68517 0.0
H151 H 0.56566 0.61664 0.7331 0.0
H152 H 0.43566 0.5159 0.73148 0.0
H153 H 0.44615 0.49496 0.68344 0.0
H154 H 0.61095 0.54298 0.70477 0.0
H155 H 0.61606 0.5414 0.75773 0.0
H156 H 0.48293 0.44766 0.75934 0.0
H157 H 0.47841 0.44947 0.70639 0.0
H158 H 0.63349 0.49194 0.65583 0.0
H159 H 0.65082 0.44156 0.67091 0.0
H160 H 0.51789 0.35648 0.68573 0.0
H161 H 0.50069 0.40624 0.66971 0.0
H162 H 0.63523 0.52324 0.60418 0.0
H163 H 0.66693 0.49517 0.5727 0.0
H164 H 0.54379 0.38555 0.5605 0.0
H165 H 0.51287 0.41348 0.593 0.0
H166 H 0.5964 0.57272 0.58187 0.0
H167 H 0.6179 0.56874 0.5326 0.0
H168 H 0.50098 0.45419 0.51808 0.0
H169 H 0.48005 0.45779 0.56759 0.0
H170 H 0.52888 0.60124 0.63522 0.0
H171 H 0.4766 0.62002 0.62306 0.0
H172 H 0.39337 0.50049 0.58525 0.0
H173 H 0.44394 0.48137 0.59931 0.0
O174 O 0.58959 0.52015 0.80922 0.0
O175 O 0.52103 0.47205 0.80883 0.0
O176 O 0.66466 0.44086 0.53932 0.0
O177 O 0.60164 0.38487 0.5309 0.0
C178 C 0.52332 0.52291 0.65946 0.0
C179 C 0.54052 0.50025 0.6701 0.0
C180 C 0.55417 0.48135 0.6507 0.0
C181 C 0.55332 0.48721 0.62073 0.0
C182 C 0.53494 0.50881 0.6099 0.0
C183 C 0.51816 0.52538 0.62923 0.0
C184 C 0.5116 0.54383 0.68096 0.0
C185 C 0.54434 0.5794 0.69452 0.0
C186 C 0.53871 0.59109 0.72203 0.0
C187 C 0.50021 0.56729 0.73627 0.0
C188 C 0.46594 0.53427 0.72118 0.0
C189 C 0.47157 0.5227 0.69357 0.0
C190 C 0.54431 0.49646 0.70187 0.0
C191 C 0.5831 0.52183 0.71662 0.0
C192 C 0.58585 0.52098 0.74686 0.0
C193 C 0.54982 0.49459 0.7628 0.0
C194 C 0.51124 0.46843 0.74776 0.0
C195 C 0.50858 0.46931 0.71754 0.0
C196 C 0.56582 0.45256 0.66155 0.0
C197 C 0.60818 0.46234 0.66218 0.0
C198 C 0.618 0.43366 0.67075 0.0
C199 C 0.58563 0.39527 0.67943 0.0
C200 C 0.54341 0.38598 0.67933 0.0
C201 C 0.53357 0.41431 0.67026 0.0
C202 C 0.57179 0.47042 0.60068 0.0
C203 C 0.61523 0.49313 0.59473 0.0
C204 C 0.63325 0.47695 0.57686 0.0
C205 C 0.60784 0.43814 0.56398 0.0
C206 C 0.56422 0.41556 0.56997 0.0
C207 C 0.54643 0.43146 0.5884 0.0
C208 C 0.53664 0.5156 0.57831 0.0
C209 C 0.5742 0.54803 0.56749 0.0
C210 C 0.58664 0.54556 0.53945 0.0
C211 C 0.56123 0.51096 0.52183 0.0
C212 C 0.52087 0.48131 0.53122 0.0
C213 C 0.5087 0.48352 0.55945 0.0
C214 C 0.49038 0.53982 0.6182 0.0
C215 C 0.49936 0.57921 0.62424 0.0
C216 C 0.46951 0.58998 0.6171 0.0
C217 C 0.43027 0.56159 0.6036 0.0
C218 C 0.42259 0.5229 0.59634 0.0
C219 C 0.45198 0.51208 0.60384 0.0
C220 C 0.55245 0.49474 0.79498 0.0
C221 C 0.62659 0.42148 0.54407 0.0
H222 H 0.04269 0.48522 0.00492 0.0
H223 H 0.26734 0.57015 0.69126 0.0
H224 H 0.96646 0.48467 0.85359 0.0
H225 H 0.92837 0.46045 0.89872 0.0
H226 H 0.95023 0.36119 0.8966 0.0
H227 H 0.98481 0.38387 0.85027 0.0
H228 H 0.0515 0.5271 0.88279 0.0
H229 H 0.04913 0.52087 0.93561 0.0
H230 H 0.06817 0.42029 0.92715 0.0
H231 H 0.06981 0.4265 0.87434 0.0
H232 H 0.15414 0.56904 0.84806 0.0
H233 H 0.22536 0.58742 0.86548 0.0
H234 H 0.19425 0.46514 0.84698 0.0
H235 H 0.12332 0.44715 0.83003 0.0
H236 H 0.13233 0.57862 0.78186 0.0
H237 H 0.19177 0.61255 0.74874 0.0
H238 H 0.18934 0.5007 0.73589 0.0
H239 H 0.12986 0.4672 0.76898 0.0
H240 H 0.04774 0.54179 0.75303 0.0
H241 H 0.0768 0.56353 0.70466 0.0
H242 H 0.07736 0.45319 0.69236 0.0
H243 H 0.04844 0.43195 0.74032 0.0
H244 H 0.94137 0.46784 0.80118 0.0
H245 H 0.86824 0.41698 0.78641 0.0
H246 H 0.91225 0.34235 0.74973 0.0
H247 H 0.98415 0.3916 0.76678 0.0
O248 O 0.04572 0.48837 0.98413 0.0
O249 O 0.05876 0.43881 0.97888 0.0
O250 O 0.24531 0.6148 0.71296 0.0
O251 O 0.24481 0.55785 0.70515 0.0
C252 C 0.01528 0.4589 0.82956 0.0
C253 C 0.0563 0.4778 0.84273 0.0
C254 C 0.09234 0.49589 0.82545 0.0
C255 C 0.08818 0.49923 0.79546 0.0
C256 C 0.04736 0.48129 0.78208 0.0
C257 C 0.01061 0.45963 0.79901 0.0
C258 C 0.97837 0.43603 0.8486 0.0
C259 C 0.96067 0.45633 0.86198 0.0
C260 C 0.94001 0.44301 0.88833 0.0
C261 C 0.9377 0.40975 0.90214 0.0
C262 C 0.95129 0.38692 0.88691 0.0
C263 C 0.97089 0.39967 0.86015 0.0
C264 C 0.06111 0.47745 0.8748 0.0
C265 C 0.05587 0.5042 0.89245 0.0
C266 C 0.05428 0.5004 0.92259 0.0
C267 C 0.05824 0.46995 0.9356 0.0
C268 C 0.06499 0.44407 0.91784 0.0
C269 C 0.06636 0.44779 0.88768 0.0
C270 C 0.13396 0.50686 0.838 0.0
C271 C 0.16275 0.54629 0.84818 0.0
C272 C 0.20325 0.55666 0.85791 0.0
C273 C 0.21521 0.52764 0.8575 0.0
C274 C 0.1857 0.48792 0.84789 0.0
C275 C 0.14538 0.47767 0.83812 0.0
C276 C 0.12685 0.52052 0.77768 0.0
C277 C 0.14506 0.56169 0.7721 0.0
C278 C 0.17886 0.58091 0.75311 0.0
C279 C 0.19514 0.55925 0.73952 0.0
C280 C 0.17749 0.51822 0.74588 0.0
C281 C 0.14368 0.49905 0.76487 0.0
C282 C 0.04522 0.48492 0.75014 0.0
C283 C 0.05185 0.52131 0.73919 0.0
C284 C 0.06944 0.53414 0.71181 0.0
C285 C 0.08024 0.51051 0.69482 0.0
C286 C 0.06921 0.4721 0.70465 0.0
C287 C 0.05188 0.45945 0.73203 0.0
C288 C 0.96815 0.43348 0.78504 0.0
C289 C 0.93512 0.44062 0.78973 0.0
C290 C 0.89336 0.41158 0.78108 0.0
C291 C 0.88407 0.37512 0.76724 0.0
C292 C 0.91788 0.36947 0.761 0.0
C293 C 0.95931 0.39807 0.77016 0.0
C294 C 0.05442 0.46472 0.96749 0.0
C295 C 0.22997 0.57913 0.71849 0.0
H296 H 0.40311 0.95641 0.79488 0.0
H297 H 0.44286 0.76897 0.07755 0.0
H298 H 0.48293 0.0583 0.93259 0.0
H299 H 0.51014 0.09824 0.88891 0.0
H300 H 0.62923 0.10377 0.90181 0.0
H301 H 0.60113 0.06236 0.94452 0.0
H302 H 0.41495 0.95877 0.92179 0.0
H303 H 0.39738 0.95361 0.86985 0.0
H304 H 0.52751 0.99315 0.85009 0.0
H305 H 0.54436 0.99731 0.90192 0.0
H306 H 0.39969 0.87603 0.96473 0.0
H307 H 0.38419 0.81003 0.94526 0.0
H308 H 0.50959 0.86826 0.90908 0.0
H309 H 0.52516 0.93274 0.92922 0.0
H310 H 0.41921 0.91804 0.03026 0.0
H311 H 0.39609 0.85977 0.0613 0.0
H312 H 0.49496 0.84359 0.0271 0.0
H313 H 0.51804 0.90222 0.99649 0.0
H314 H 0.47577 0.00087 0.05401 0.0
H315 H 0.48168 0.98406 0.10425 0.0
H316 H 0.5803 0.96181 0.07952 0.0
H317 H 0.57409 0.97855 0.02953 0.0
H318 H 0.52972 0.09285 0.00435 0.0
H319 H 0.59072 0.15862 0.02058 0.0
H320 H 0.67123 0.10838 0.01743 0.0
H321 H 0.6103 0.04317 0.00205 0.0
O322 O 0.41061 0.95831 0.81529 0.0
O323 O 0.47814 0.97961 0.80638 0.0
O324 O 0.40083 0.80156 0.08225 0.0
O325 O 0.45095 0.79177 0.06523 0.0
C326 C 0.51882 0.02158 0.96062 0.0
C327 C 0.49159 0.98307 0.94733 0.0
C328 C 0.47708 0.94788 0.96355 0.0
C329 C 0.48561 0.95105 0.99371 0.0
C330 C 0.51256 0.9894 0.00712 0.0
C331 C 0.53044 0.02453 0.99035 0.0
C332 C 0.53995 0.05731 0.94175 0.0
C333 C 0.5155 0.0696 0.92665 0.0
C334 C 0.53107 0.09229 0.9016 0.0
C335 C 0.57147 0.10329 0.89154 0.0
C336 C 0.59761 0.09491 0.90867 0.0
C337 C 0.58192 0.07197 0.9335 0.0
C338 C 0.48104 0.97905 0.91566 0.0
C339 C 0.43955 0.96619 0.90619 0.0
C340 C 0.42965 0.96335 0.87652 0.0
C341 C 0.46111 0.97321 0.85581 0.0
C342 C 0.50256 0.98552 0.86543 0.0
C343 C 0.51233 0.98813 0.89506 0.0
C344 C 0.46333 0.90917 0.94802 0.0
C345 C 0.42324 0.87443 0.95199 0.0
C346 C 0.41451 0.83698 0.94092 0.0
C347 C 0.44556 0.83428 0.92542 0.0
C348 C 0.48468 0.86955 0.92029 0.0
C349 C 0.4936 0.90649 0.93175 0.0
C350 C 0.47003 0.91408 0.01102 0.0
C351 C 0.43559 0.90166 0.02938 0.0
C352 C 0.42255 0.86845 0.04712 0.0
C353 C 0.4437 0.84701 0.04668 0.0
C354 C 0.47796 0.85938 0.02797 0.0
C355 C 0.49108 0.89271 0.01035 0.0
C356 C 0.52477 0.99131 0.0382 0.0
C357 C 0.49981 0.99397 0.05973 0.0
C358 C 0.5029 0.9839 0.0883 0.0
C359 C 0.53118 0.97123 0.09575 0.0
C360 C 0.55855 0.97184 0.07457 0.0
C361 C 0.5552 0.9816 0.046 0.0
C362 C 0.56559 0.06323 0.00263 0.0
C363 C 0.56047 0.0961 0.00773 0.0
C364 C 0.59536 0.13362 0.01668 0.0
C365 C 0.63581 0.13868 0.02038 0.0
C366 C 0.64043 0.10536 0.01545 0.0
C367 C 0.60563 0.06802 0.00672 0.0
C368 C 0.45064 0.97061 0.82433 0.0
C369 C 0.43039 0.8121 0.06581 0.0
H370 H 0.60772 0.47553 0.96437 0.0
H371 H 0.71354 0.47047 0.2797 0.0
H372 H 0.52622 0.55699 0.10519 0.0
H373 H 0.50378 0.57441 0.06074 0.0
H374 H 0.63327 0.67169 0.04787 0.0
H375 H 0.65524 0.65398 0.09284 0.0
H376 H 0.56263 0.49187 0.08282 0.0
H377 H 0.57011 0.4743 0.03295 0.0
H378 H 0.68705 0.59017 0.02661 0.0
H379 H 0.67994 0.60671 0.07684 0.0
H380 H 0.58643 0.4556 0.13416 0.0
H381 H 0.61287 0.41321 0.11546 0.0
H382 H 0.73114 0.52094 0.09391 0.0
H383 H 0.70518 0.56287 0.11335 0.0
H384 H 0.57153 0.47049 0.18861 0.0
H385 H 0.58893 0.43666 0.22582 0.0
H386 H 0.72001 0.53553 0.22658 0.0
H387 H 0.70218 0.56873 0.18911 0.0
H388 H 0.54578 0.5256 0.209 0.0
H389 H 0.5535 0.51201 0.25962 0.0
H390 H 0.68432 0.61128 0.26065 0.0
H391 H 0.67583 0.62502 0.21047 0.0
H392 H 0.53234 0.58082 0.17928 0.0
H393 H 0.51637 0.63216 0.19456 0.0
H394 H 0.63936 0.72609 0.1655 0.0
H395 H 0.65524 0.67451 0.15074 0.0
O396 O 0.60509 0.48334 0.98391 0.0
O397 O 0.66509 0.54326 0.98177 0.0
O398 O 0.63919 0.43082 0.26131 0.0
O399 O 0.70609 0.48257 0.26435 0.0
C400 C 0.60662 0.58631 0.12409 0.0
C401 C 0.61853 0.55889 0.11465 0.0
C402 C 0.6281 0.53808 0.13511 0.0
C403 C 0.62453 0.5435 0.16488 0.0
C404 C 0.61245 0.57083 0.17445 0.0
C405 C 0.60439 0.59304 0.15409 0.0
C406 C 0.59228 0.60414 0.10207 0.0
C407 C 0.54943 0.5829 0.09326 0.0
C408 C 0.5368 0.59276 0.06767 0.0
C409 C 0.56696 0.62379 0.05026 0.0
C410 C 0.60945 0.64697 0.06038 0.0
C411 C 0.62198 0.63729 0.08621 0.0
C412 C 0.62034 0.55083 0.08323 0.0
C413 C 0.58953 0.51361 0.07047 0.0
C414 C 0.59405 0.50356 0.04206 0.0
C415 C 0.62919 0.53083 0.02579 0.0
C416 C 0.65953 0.56852 0.0385 0.0
C417 C 0.65529 0.57827 0.06706 0.0
C418 C 0.64408 0.51217 0.12515 0.0
C419 C 0.61821 0.46988 0.12571 0.0
C420 C 0.63313 0.44584 0.11491 0.0
C421 C 0.67369 0.46398 0.10296 0.0
C422 C 0.69945 0.50633 0.10256 0.0
C423 C 0.68486 0.53023 0.11379 0.0
C424 C 0.63561 0.522 0.18628 0.0
C425 C 0.60404 0.48454 0.19667 0.0
C426 C 0.61406 0.46536 0.21794 0.0
C427 C 0.65587 0.48348 0.22926 0.0
C428 C 0.68751 0.5208 0.21841 0.0
C429 C 0.67748 0.53978 0.19698 0.0
C430 C 0.61033 0.57615 0.20609 0.0
C431 C 0.57525 0.54593 0.22077 0.0
C432 C 0.58003 0.53765 0.24949 0.0
C433 C 0.6199 0.55972 0.26384 0.0
C434 C 0.65317 0.59361 0.25028 0.0
C435 C 0.6483 0.60188 0.2216 0.0
C436 C 0.59492 0.62397 0.16395 0.0
C437 C 0.55587 0.61249 0.1764 0.0
C438 C 0.54673 0.64185 0.18488 0.0
C439 C 0.57658 0.68323 0.18113 0.0
C440 C 0.61588 0.69455 0.16891 0.0
C441 C 0.6249 0.66515 0.16033 0.0
C442 C 0.63438 0.51967 0.99585 0.0
C443 C 0.6664 0.46387 0.25253 0.0
Mn444 Mn 0.65643 0.4315 0.40048 0.0
Mn445 Mn 0.71896 0.53051 0.42004 0.0
C446 C 0.63146 0.46038 0.43218 0.0
C447 C 0.6358 0.36407 0.40777 0.0
C448 C 0.66707 0.502 0.36402 0.0
O449 O 0.71461 0.44507 0.3871 0.0
O450 O 0.75294 0.51084 0.40061 0.0
C451 C 0.76924 0.51907 0.46519 0.0
N452 N 0.74453 0.53397 0.45713 0.0
C453 C 0.74995 0.56191 0.50511 0.0
C454 C 0.77577 0.54717 0.51387 0.0
C455 C 0.78534 0.52555 0.49384 0.0
C456 C 0.73488 0.55456 0.47627 0.0
H457 H 0.77648 0.50227 0.44989 0.0
C458 C 0.74945 0.47905 0.38895 0.0
O459 O 0.62943 0.37558 0.38286 0.0
O460 O 0.65458 0.39175 0.42801 0.0
N461 N 0.69201 0.55513 0.43905 0.0
C462 C 0.6648 0.56538 0.42757 0.0
C463 C 0.65144 0.58656 0.44492 0.0
C464 C 0.66667 0.59754 0.47373 0.0
C465 C 0.69522 0.58728 0.48492 0.0
C466 C 0.70768 0.56644 0.46652 0.0
H467 H 0.65313 0.55719 0.4054 0.0
O468 O 0.6054 0.4268 0.41832 0.0
O469 O 0.67194 0.47548 0.42817 0.0
O470 O 0.65165 0.46403 0.36708 0.0
O471 O 0.6927 0.52911 0.38241 0.0
C472 C 0.71085 0.59588 0.51385 0.0
C473 C 0.73798 0.58299 0.52398 0.0
H474 H 0.78811 0.55195 0.53597 0.0
H475 H 0.80502 0.51384 0.50049 0.0
H476 H 0.6294 0.59436 0.43612 0.0
H477 H 0.65597 0.61354 0.48711 0.0
H478 H 0.7016 0.61176 0.52863 0.0
H479 H 0.74916 0.58913 0.5464 0.0
Mn480 Mn 0.25625 0.63864 0.55813 0.0
Mn481 Mn 0.20852 0.53933 0.53947 0.0
C482 C 0.20035 0.60959 0.52442 0.0
C483 C 0.30941 0.70637 0.55064 0.0
C484 C 0.1888 0.56919 0.59466 0.0
O485 O 0.2994 0.62466 0.57295 0.0
O486 O 0.26402 0.55868 0.55964 0.0
C487 C 0.27056 0.54764 0.49574 0.0
N488 N 0.22974 0.53429 0.50304 0.0
C489 C 0.20359 0.50427 0.45545 0.0
C490 C 0.24531 0.51741 0.44748 0.0
C491 C 0.27896 0.53937 0.46767 0.0
C492 C 0.19719 0.51355 0.48368 0.0
H493 H 0.2965 0.56447 0.51121 0.0
C494 C 0.29607 0.59022 0.57139 0.0
O495 O 0.29036 0.69499 0.57529 0.0
O496 O 0.29851 0.67831 0.53089 0.0
N497 N 0.15459 0.51563 0.51961 0.0
C498 C 0.11654 0.50709 0.53022 0.0
C499 C 0.07967 0.48581 0.51257 0.0
C500 C 0.0822 0.47311 0.48437 0.0
C501 C 0.12167 0.48206 0.47396 0.0
C502 C 0.15729 0.50317 0.4926 0.0
H503 H 0.11436 0.51661 0.55192 0.0
O504 O 0.21038 0.64291 0.53819 0.0
O505 O 0.22377 0.59448 0.53031 0.0
O506 O 0.21551 0.607 0.59139 0.0
O507 O 0.18408 0.5418 0.57655 0.0
C508 C 0.1272 0.47138 0.44571 0.0
C509 C 0.16815 0.4827 0.4364 0.0
H510 H 0.25192 0.51113 0.42585 0.0
H511 H 0.31128 0.54983 0.46163 0.0
H512 H 0.04935 0.47913 0.52072 0.0
H513 H 0.05366 0.45667 0.47087 0.0
H514 H 0.10026 0.45487 0.43083 0.0
H515 H 0.17205 0.47481 0.4145 0.0
Mn516 Mn 0.61963 0.21407 0.72664 0.0
Mn517 Mn 0.66149 0.15516 0.72025 0.0
C518 C 0.5856 0.15583 0.69773 0.0
C519 C 0.61427 0.26874 0.71318 0.0
C520 C 0.61689 0.15872 0.774 0.0
O521 O 0.68103 0.25137 0.7405 0.0
O522 O 0.70714 0.21099 0.73221 0.0
C523 C 0.71724 0.19316 0.67026 0.0
N524 N 0.68475 0.15986 0.68268 0.0
C525 C 0.67613 0.11802 0.6409 0.0
C526 C 0.70966 0.15182 0.62771 0.0
C527 C 0.73022 0.18957 0.64243 0.0
C528 C 0.66473 0.12339 0.66872 0.0
H529 H 0.73307 0.22222 0.68149 0.0
C530 C 0.71159 0.24492 0.74 0.0
O531 O 0.6046 0.25398 0.73893 0.0
O532 O 0.62754 0.25191 0.69508 0.0
N533 N 0.62051 0.10058 0.70846 0.0
C534 C 0.58648 0.07189 0.72315 0.0
C535 C 0.56121 0.03282 0.71081 0.0
C536 C 0.57134 0.02362 0.68363 0.0
C537 C 0.60662 0.05362 0.66899 0.0
C538 C 0.63071 0.09197 0.68239 0.0
H539 H 0.57856 0.07881 0.74404 0.0
O540 O 0.56448 0.17135 0.708 0.0
O541 O 0.62581 0.17478 0.70483 0.0
O542 O 0.60608 0.18246 0.76393 0.0
O543 O 0.63814 0.14714 0.75963 0.0
C544 C 0.61833 0.04721 0.64138 0.0
C545 C 0.65297 0.07941 0.6273 0.0
H546 H 0.71959 0.14924 0.60618 0.0
H547 H 0.75597 0.21584 0.63232 0.0
H548 H 0.53394 0.00988 0.7222 0.0
H549 H 0.5516 0.99353 0.67409 0.0
H550 H 0.60041 0.0178 0.63055 0.0
H551 H 0.66109 0.0743 0.60581 0.0
Mn552 Mn 0.47472 0.64585 0.8996 0.0
Mn553 Mn 0.44667 0.55156 0.91495 0.0
C554 C 0.51215 0.63594 0.93533 0.0
C555 C 0.46103 0.6971 0.90548 0.0
C556 C 0.48675 0.59299 0.8585 0.0
O557 O 0.416 0.61004 0.88158 0.0
O558 O 0.39413 0.55083 0.90339 0.0
C559 C 0.39398 0.53429 0.96686 0.0
N560 N 0.42906 0.53838 0.95412 0.0
C561 C 0.45112 0.52155 0.9983 0.0
C562 C 0.41515 0.51701 0.01189 0.0
C563 C 0.38651 0.5235 0.99611 0.0
C564 C 0.45683 0.53225 0.9691 0.0
H565 H 0.37193 0.5393 0.9548 0.0
C566 C 0.38704 0.57441 0.88837 0.0
O567 O 0.47878 0.69401 0.88222 0.0
O568 O 0.45244 0.67108 0.92565 0.0
N569 N 0.49579 0.55022 0.92679 0.0
C570 C 0.53036 0.55851 0.91109 0.0
C571 C 0.56308 0.55544 0.92415 0.0
C572 C 0.55983 0.54374 0.95314 0.0
C573 C 0.52385 0.5351 0.96882 0.0
C574 C 0.49224 0.53865 0.95466 0.0
H575 H 0.53309 0.56753 0.88881 0.0
O576 O 0.52894 0.67099 0.9233 0.0
O577 O 0.47442 0.6087 0.92585 0.0
O578 O 0.49962 0.62878 0.86756 0.0
O579 O 0.46461 0.56191 0.87391 0.0
C580 C 0.51846 0.52381 0.99808 0.0
C581 C 0.48197 0.5167 0.01274 0.0
H582 H 0.40942 0.50893 0.03449 0.0
H583 H 0.35878 0.52024 0.00648 0.0
H584 H 0.59079 0.56219 0.91193 0.0
H585 H 0.58532 0.54184 0.9632 0.0
H586 H 0.54239 0.52094 0.00958 0.0
H587 H 0.4783 0.50814 0.03527 0.0
Mn588 Mn 0.82388 0.38255 0.06197 0.0
Mn589 Mn 0.87479 0.33443 0.0776 0.0
C590 C 0.87685 0.40933 0.09734 0.0
C591 C 0.76772 0.39203 0.06888 0.0
C592 C 0.88521 0.37873 0.02154 0.0
O593 O 0.78499 0.32566 0.04523 0.0
O594 O 0.81611 0.29362 0.06395 0.0
C595 C 0.82676 0.28517 0.12744 0.0
N596 N 0.86401 0.31458 0.1162 0.0
C597 C 0.90118 0.32507 0.16186 0.0
C598 C 0.86326 0.29476 0.17388 0.0
C599 C 0.8259 0.27475 0.15659 0.0
C600 C 0.9002 0.33387 0.13259 0.0
H601 H 0.7979 0.26991 0.1143 0.0
C602 C 0.78535 0.29361 0.05063 0.0
O603 O 0.7883 0.40166 0.04478 0.0
O604 O 0.77899 0.3757 0.08861 0.0
N605 N 0.93144 0.37195 0.09169 0.0
C606 C 0.96448 0.40258 0.07748 0.0
C607 C 0.00375 0.42678 0.09214 0.0
C608 C 0.00857 0.41926 0.12122 0.0
C609 C 0.97409 0.38776 0.13545 0.0
C610 C 0.93584 0.36441 0.11967 0.0
H611 H 0.96089 0.40861 0.05518 0.0
O612 O 0.86636 0.43247 0.08436 0.0
O613 O 0.85641 0.3717 0.0886 0.0
O614 O 0.86533 0.39571 0.02945 0.0
O615 O 0.88869 0.35356 0.03707 0.0
C616 C 0.976 0.37909 0.16482 0.0
C617 C 0.9396 0.34765 0.17798 0.0
H618 H 0.86237 0.28693 0.19644 0.0
H619 H 0.79645 0.25149 0.16576 0.0
H620 H 0.03022 0.45123 0.08109 0.0
H621 H 0.03876 0.43793 0.13251 0.0
H622 H 0.00515 0.39675 0.17758 0.0
H623 H 0.9413 0.34155 0.20066 0.0
Mn624 Mn 0.46092 0.81105 0.23572 0.0
Mn625 Mn 0.56277 0.87891 0.2544 0.0
C626 C 0.47558 0.85606 0.27364 0.0
C627 C 0.40078 0.74696 0.23853 0.0
C628 C 0.51811 0.88597 0.201 0.0
O629 O 0.49356 0.78868 0.21642 0.0
O630 O 0.55996 0.83149 0.23406 0.0
C631 C 0.57891 0.83236 0.29751 0.0
N632 N 0.57746 0.86568 0.29073 0.0
C633 C 0.59965 0.8934 0.3393 0.0
C634 C 0.60165 0.85952 0.34673 0.0
C635 C 0.59118 0.82885 0.32576 0.0
C636 C 0.58759 0.89543 0.31073 0.0
H637 H 0.57065 0.8086 0.28151 0.0
C638 C 0.53246 0.79944 0.2197 0.0
O639 O 0.40737 0.76915 0.21607 0.0
O640 O 0.42964 0.76177 0.25916 0.0
N641 N 0.56921 0.92533 0.2747 0.0
C642 C 0.56234 0.95438 0.26471 0.0
C643 C 0.56939 0.98631 0.28345 0.0
C644 C 0.58361 0.98817 0.31217 0.0
C645 C 0.59064 0.95806 0.32191 0.0
C646 C 0.58324 0.92704 0.30224 0.0
H647 H 0.55118 0.95302 0.24271 0.0
O648 O 0.43888 0.83847 0.26018 0.0
O649 O 0.50251 0.84646 0.26451 0.0
O650 O 0.48166 0.85548 0.20614 0.0
O651 O 0.55108 0.89637 0.21688 0.0
C652 C 0.60374 0.95711 0.35058 0.0
C653 C 0.60819 0.92478 0.35928 0.0
H654 H 0.61077 0.85653 0.36856 0.0
H655 H 0.59242 0.8025 0.33138 0.0
H656 H 0.56364 0.0093 0.27579 0.0
H657 H 0.58861 0.0126 0.32667 0.0
H658 H 0.60979 0.98075 0.36624 0.0
H659 H 0.61757 0.92403 0.38152 0.0
C660 C 0.28743 0.66231 0.22507 0.0
C661 C 0.27789 0.64294 0.25184 0.0
H662 H 0.33419 0.71029 0.19971 0.0
C663 C 0.31066 0.65441 0.2726 0.0
H664 H 0.26276 0.65364 0.20859 0.0
C665 C 0.35158 0.68691 0.26757 0.0
C666 C 0.36028 0.70831 0.24168 0.0
H667 H 0.30405 0.64011 0.29348 0.0
H668 H 0.37571 0.69658 0.28459 0.0
C669 C 0.3283 0.69469 0.22002 0.0
C670 C 0.61715 0.27104 0.44672 0.0
C671 C 0.59086 0.23961 0.42682 0.0
H672 H 0.65178 0.33461 0.4563 0.0
C673 C 0.58036 0.24956 0.40002 0.0
H674 H 0.62538 0.26447 0.46771 0.0
C675 C 0.59561 0.29003 0.39341 0.0
C676 C 0.62134 0.3213 0.41359 0.0
H677 H 0.56043 0.22606 0.38413 0.0
H678 H 0.58672 0.29673 0.37273 0.0
C679 C 0.63211 0.31131 0.44022 0.0
C680 C 0.40636 0.60952 0.58863 0.0
C681 C 0.39651 0.57113 0.59787 0.0
H682 H 0.38224 0.64602 0.57325 0.0
C683 C 0.35348 0.54091 0.6009 0.0
H684 H 0.43909 0.63353 0.58601 0.0
C685 C 0.32124 0.54789 0.59323 0.0
C686 C 0.33094 0.58555 0.58284 0.0
H687 H 0.34448 0.51144 0.60891 0.0
H688 H 0.2885 0.52343 0.59508 0.0
C689 C 0.37384 0.61672 0.58133 0.0
C690 C 0.80821 0.35053 0.75191 0.0
C691 C 0.83935 0.34207 0.76076 0.0
H692 H 0.74325 0.32648 0.73862 0.0
C693 C 0.82737 0.30142 0.76376 0.0
H694 H 0.81627 0.3814 0.74914 0.0
C695 C 0.78588 0.2701 0.75726 0.0
C696 C 0.75494 0.27851 0.74812 0.0
H697 H 0.84998 0.29361 0.77137 0.0
H698 H 0.77799 0.23919 0.75959 0.0
C699 C 0.76636 0.31906 0.74583 0.0
C700 C 0.42902 0.76598 0.93949 0.0
C701 C 0.44057 0.79493 0.91798 0.0
H702 H 0.42682 0.71226 0.95244 0.0
C703 C 0.45456 0.7891 0.89117 0.0
H704 H 0.41866 0.77007 0.96047 0.0
C705 C 0.45987 0.75642 0.88672 0.0
C706 C 0.45117 0.72904 0.90898 0.0
H707 H 0.46339 0.81096 0.8742 0.0
H708 H 0.47225 0.75351 0.86624 0.0
C709 C 0.43427 0.73324 0.93502 0.0
C710 C 0.6918 0.41106 0.10965 0.0
C711 C 0.69043 0.43938 0.09185 0.0
H712 H 0.71754 0.37346 0.11617 0.0
C713 C 0.70949 0.44744 0.06464 0.0
H714 H 0.67733 0.4045 0.13075 0.0
C715 C 0.73219 0.42959 0.05619 0.0
C716 C 0.73656 0.40378 0.07501 0.0
H717 H 0.70834 0.4689 0.05046 0.0
H718 H 0.74832 0.43789 0.03569 0.0
C719 C 0.7149 0.39348 0.10133 0.0
C720 C 0.36951 0.82136 0.55467 0.0
C721 C 0.39231 0.83162 0.52874 0.0
H722 H 0.32607 0.77389 0.58225 0.0
C723 C 0.38955 0.80038 0.51114 0.0
H724 H 0.37127 0.84473 0.56886 0.0
C725 C 0.36355 0.75987 0.51873 0.0
C726 C 0.33998 0.74954 0.54428 0.0
H727 H 0.40635 0.80713 0.49092 0.0
H728 H 0.36132 0.73656 0.50423 0.0
C729 C 0.34384 0.78079 0.56245 0.0
C730 C 0.57962 0.34464 0.71477 0.0
C731 C 0.59543 0.36465 0.68862 0.0
H732 H 0.57363 0.29899 0.74312 0.0
C733 C 0.61888 0.35395 0.67087 0.0
H734 H 0.56168 0.35257 0.72889 0.0
C735 C 0.62535 0.32285 0.67883 0.0
C736 C 0.60902 0.3025 0.70486 0.0
H737 H 0.63114 0.36886 0.6505 0.0
H738 H 0.64286 0.31461 0.66455 0.0
C739 C 0.58658 0.31407 0.72291 0.0
C740 C 0.26683 0.51403 0.88273 0.0
C741 C 0.25903 0.5392 0.86555 0.0
H742 H 0.31354 0.50527 0.90342 0.0
C743 C 0.29344 0.57509 0.85522 0.0
H744 H 0.24074 0.48622 0.89105 0.0
C745 C 0.33492 0.58595 0.86218 0.0
C746 C 0.34294 0.56113 0.87967 0.0
H747 H 0.28834 0.59462 0.84144 0.0
H748 H 0.36067 0.61401 0.85391 0.0
C749 C 0.30846 0.52491 0.88976 0.0
C750 C 0.70483 0.18125 0.04774 0.0
C751 C 0.67351 0.17865 0.0286 0.0
H752 H 0.76473 0.2193 0.06938 0.0
C753 C 0.6793 0.21425 0.01662 0.0
H754 H 0.70102 0.15449 0.05773 0.0
C755 C 0.71574 0.25165 0.02359 0.0
C756 C 0.74727 0.25411 0.04247 0.0
H757 H 0.65607 0.21319 0.00145 0.0
H758 H 0.71933 0.27855 0.01398 0.0
C759 C 0.74138 0.21848 0.05445 0.0
C760 C 0.59669 0.75031 0.20443 0.0
C761 C 0.56642 0.71432 0.18968 0.0
H762 H 0.60993 0.8055 0.22548 0.0
C763 C 0.52597 0.70786 0.18344 0.0
H764 H 0.62809 0.75607 0.2097 0.0
C765 C 0.51558 0.73612 0.19238 0.0
C766 C 0.54534 0.77163 0.2079 0.0
H767 H 0.5022 0.68083 0.17164 0.0
H768 H 0.4838 0.72965 0.18748 0.0
C769 C 0.58624 0.77863 0.2135 0.0
C770 C 0.85623 0.52319 0.3538 0.0
C771 C 0.86466 0.49186 0.35618 0.0
H772 H 0.81374 0.54378 0.36259 0.0
C773 C 0.83349 0.45527 0.36842 0.0
H774 H 0.87846 0.55133 0.34367 0.0
C775 C 0.79544 0.45054 0.37838 0.0
C776 C 0.78816 0.48257 0.37693 0.0
H777 H 0.83876 0.43054 0.37101 0.0
H778 H 0.77232 0.4223 0.38806 0.0
C779 C 0.81884 0.51881 0.36442 0.0
C780 C 0.10321 0.58016 0.47713 0.0
C781 C 0.11517 0.57107 0.4507 0.0
H782 H 0.12119 0.59919 0.52183 0.0
C783 C 0.15515 0.57535 0.44865 0.0
H784 H 0.0727 0.57767 0.47893 0.0
C785 C 0.18286 0.58822 0.47264 0.0
C786 C 0.17042 0.59563 0.49944 0.0
H787 H 0.16501 0.56891 0.42836 0.0
H788 H 0.21399 0.59224 0.47027 0.0
C789 C 0.13083 0.5925 0.50145 0.0
C790 C 0.5748 0.10909 0.62356 0.0
C791 C 0.53375 0.07453 0.62383 0.0
H792 H 0.62236 0.16253 0.64638 0.0
C793 C 0.50946 0.06655 0.64886 0.0
H794 H 0.59382 0.11655 0.60433 0.0
C795 C 0.52646 0.09249 0.67339 0.0
C796 C 0.56781 0.12669 0.67304 0.0
H797 H 0.47743 0.04045 0.64937 0.0
H798 H 0.5074 0.08596 0.69253 0.0
C799 C 0.59127 0.13526 0.64768 0.0
C800 C 0.47971 0.54142 0.78647 0.0
C801 C 0.4975 0.57421 0.76765 0.0
H802 H 0.46327 0.52161 0.82997 0.0
C803 C 0.51455 0.6135 0.77926 0.0
H804 H 0.46741 0.51087 0.77824 0.0
C805 C 0.51267 0.61978 0.80899 0.0
C806 C 0.49376 0.58686 0.82776 0.0
H807 H 0.52866 0.63934 0.76527 0.0
H808 H 0.52511 0.6504 0.81708 0.0
C809 C 0.47789 0.54765 0.81619 0.0
C810 C 0.90483 0.36191 0.94382 0.0
C811 C 0.92513 0.40146 0.93315 0.0
H812 H 0.87735 0.32393 0.98051 0.0
C813 C 0.93495 0.43361 0.95275 0.0
H814 H 0.89639 0.33627 0.92953 0.0
C815 C 0.92303 0.42627 0.9817 0.0
C816 C 0.90229 0.38681 0.99206 0.0
H817 H 0.95203 0.46467 0.94587 0.0
H818 H 0.92992 0.4515 0.99604 0.0
C819 C 0.89397 0.35475 0.97306 0.0
C820 C 0.56521 0.9608 0.13981 0.0
C821 C 0.52843 0.95256 0.12419 0.0
H822 H 0.59097 0.94663 0.1765 0.0
C823 C 0.48849 0.92354 0.13467 0.0
H824 H 0.59642 0.98306 0.13225 0.0
C825 C 0.48533 0.90254 0.15977 0.0
C826 C 0.52203 0.91007 0.17517 0.0
H827 H 0.45958 0.91593 0.12285 0.0
H828 H 0.45393 0.87991 0.16682 0.0
C829 C 0.56205 0.93995 0.16516 0.0
C830 C 0.65613 0.57151 0.31254 0.0
C831 C 0.6287 0.54445 0.29075 0.0
H832 H 0.6899 0.57958 0.35235 0.0
C833 C 0.61301 0.50287 0.29353 0.0
H834 H 0.66844 0.60363 0.31124 0.0
C835 C 0.6254 0.48885 0.31717 0.0
C836 C 0.65369 0.51612 0.33861 0.0
H837 H 0.59226 0.48119 0.27692 0.0
H838 H 0.61318 0.45675 0.31844 0.0
C839 C 0.66848 0.55758 0.33612 0.0
C840 C 0.49209 0.88023 0.3541 0.0
C841 C 0.47962 0.90865 0.3569 0.0
H842 H 0.49978 0.84069 0.32528 0.0
C843 C 0.46771 0.92096 0.33185 0.0
H844 H 0.50118 0.87008 0.37308 0.0
C845 C 0.46786 0.90484 0.30456 0.0
C846 C 0.48041 0.87655 0.3018 0.0
H847 H 0.45848 0.94322 0.33338 0.0
H848 H 0.45801 0.91434 0.28558 0.0
C849 C 0.49183 0.86385 0.3268 0.0
C850 C 0.5612 0.49016 0.4699 0.0
C851 C 0.58046 0.50121 0.49766 0.0
H852 H 0.56344 0.46945 0.42681 0.0
C853 C 0.61642 0.49876 0.50355 0.0
H854 H 0.53287 0.49098 0.4651 0.0
C855 C 0.63266 0.48503 0.48228 0.0
C856 C 0.61483 0.47585 0.45422 0.0
H857 H 0.63154 0.50678 0.52483 0.0
H858 H 0.65926 0.48168 0.48775 0.0
C859 C 0.57848 0.47773 0.44821 0.0
C860 C 0.09862 0.50148 0.64414 0.0
C861 C 0.10623 0.52692 0.66839 0.0
H862 H 0.11845 0.49456 0.60239 0.0
C863 C 0.14086 0.5672 0.66796 0.0
H864 H 0.07205 0.47049 0.64354 0.0
C865 C 0.16759 0.58138 0.64401 0.0
C866 C 0.16046 0.55548 0.62008 0.0
H867 H 0.14816 0.58745 0.68651 0.0
H868 H 0.19429 0.61231 0.64454 0.0
C869 C 0.12538 0.51546 0.62045 0.0
C870 C 0.60291 0.10305 0.8438 0.0
C871 C 0.58421 0.11879 0.86182 0.0
H872 H 0.62753 0.10292 0.80212 0.0
C873 C 0.57576 0.1474 0.8506 0.0
H874 H 0.60878 0.08013 0.85151 0.0
C875 C 0.58609 0.16019 0.82204 0.0
C876 C 0.60502 0.14457 0.80407 0.0
H877 H 0.56138 0.16006 0.86394 0.0
H878 H 0.5794 0.1825 0.81415 0.0
C879 C 0.61327 0.11583 0.81533 0.0
C880 C 0.58128 0.63773 0.99712 0.0
C881 C 0.55444 0.62969 0.02086 0.0
H882 H 0.5888 0.64604 0.95104 0.0
C883 C 0.51434 0.62475 0.01592 0.0
H884 H 0.61211 0.64106 6e-05 0.0
C885 C 0.50081 0.62641 0.98792 0.0
C886 C 0.52713 0.6333 0.9643 0.0
H887 H 0.49318 0.6193 0.03368 0.0
H888 H 0.46965 0.62231 0.98468 0.0
C889 C 0.5679 0.64008 0.96905 0.0
C890 C 0.89248 0.4103 0.17825 0.0
C891 C 0.92938 0.4483 0.18325 0.0
H892 H 0.84655 0.36873 0.14687 0.0
C893 C 0.95013 0.47293 0.15956 0.0
H894 H 0.87588 0.39089 0.19618 0.0
C895 C 0.93397 0.45976 0.13127 0.0
C896 C 0.89712 0.42169 0.12635 0.0
H897 H 0.97897 0.50222 0.16293 0.0
H898 H 0.95005 0.47929 0.11329 0.0
C899 C 0.87612 0.39743 0.15007 0.0
loop_
_geom_bond_atom_site_label_1
_geom_bond_atom_site_label_2
_geom_bond_distance
_geom_bond_site_symmetry_2
_ccdc_geom_bond_type
H0 O26 0.856 . S
H1 O29 0.854 . S
H2 C37 0.930 1_455 S
H3 C38 0.930 . S
H4 C40 0.930 . S
H5 C41 0.930 . S
H6 C43 0.931 . S
H7 C44 0.930 . S
H8 C46 0.930 . S
H9 C47 0.929 . S
H10 C49 0.930 . S
H11 C50 0.931 . S
H12 C52 0.930 . S
H13 C53 0.929 . S
H14 C55 0.931 . S
H15 C56 0.930 . S
H16 C58 0.930 . S
H17 C59 0.932 . S
H18 C61 0.930 . S
H19 C62 0.929 . S
H20 C64 0.931 . S
H21 C65 0.930 . S
H22 C67 0.929 . S
H23 C68 0.931 . S
H24 C70 0.930 . S
H25 C71 0.929 . S
O26 H0 0.856 . S
O26 C72 1.300 . S
O27 C72 1.209 . S
O28 C73 1.199 . S
O29 H1 0.854 . S
O29 C73 1.297 . S
C30 C31 1.404 . S
C30 C35 1.397 . S
C30 C36 1.492 . S
C31 C30 1.404 . S
C31 C32 1.396 . S
C31 C42 1.492 . S
C32 C31 1.396 . S
C32 C33 1.397 . S
C32 C48 1.509 . S
C33 C32 1.397 . S
C33 C34 1.412 . S
C33 C54 1.485 . S
C34 C33 1.412 . S
C34 C35 1.388 . S
C34 C60 1.490 . S
C35 C30 1.397 . S
C35 C34 1.388 . S
C35 C66 1.519 1_455 S
C36 C30 1.492 . S
C36 C37 1.363 1_455 S
C36 C41 1.390 1_455 S
C37 H2 0.930 1_655 S
C37 C36 1.363 1_655 S
C37 C38 1.372 . S
C38 H3 0.930 . S
C38 C37 1.372 . S
C38 C39 1.383 . S
C39 C38 1.383 . S
C39 C40 1.395 . S
C40 H4 0.930 . S
C40 C39 1.395 . S
C40 C41 1.362 . S
C41 H5 0.930 . S
C41 C36 1.390 1_655 S
C41 C40 1.362 . S
C42 C31 1.492 . S
C42 C43 1.377 . S
C42 C47 1.397 . S
C43 H6 0.931 . S
C43 C42 1.377 . S
C43 C44 1.376 . S
C44 H7 0.930 . S
C44 C43 1.376 . S
C44 C45 1.376 . S
C45 C44 1.376 . S
C45 C46 1.378 . S
C45 C72 1.486 . S
C46 H8 0.930 . S
C46 C45 1.378 . S
C46 C47 1.376 . S
C47 H9 0.929 . S
C47 C42 1.397 . S
C47 C46 1.376 . S
C48 C32 1.509 . S
C48 C49 1.391 . S
C48 C53 1.386 . S
C49 H10 0.930 . S
C49 C48 1.391 . S
C49 C50 1.375 . S
C50 H11 0.931 . S
C50 C49 1.375 . S
C50 C51 1.375 . S
C51 C50 1.375 . S
C51 C52 1.361 . S
C52 H12 0.930 . S
C52 C51 1.361 . S
C52 C53 1.399 . S
C53 H13 0.929 . S
C53 C48 1.386 . S
C53 C52 1.399 . S
C54 C33 1.485 . S
C54 C55 1.394 . S
C54 C59 1.360 . S
C55 H14 0.931 . S
C55 C54 1.394 . S
C55 C56 1.372 . S
C56 H15 0.930 . S
C56 C55 1.372 . S
C56 C57 1.397 . S
C57 C56 1.397 . S
C57 C58 1.390 . S
C57 C73 1.476 . S
C58 H16 0.930 . S
C58 C57 1.390 . S
C58 C59 1.366 . S
C59 H17 0.932 . S
C59 C54 1.360 . S
C59 C58 1.366 . S
C60 C34 1.490 . S
C60 C61 1.380 . S
C60 C65 1.386 . S
C61 H18 0.930 . S
C61 C60 1.380 . S
C61 C62 1.381 . S
C62 H19 0.929 . S
C62 C61 1.381 . S
C62 C63 1.371 . S
C63 C62 1.371 . S
C63 C64 1.380 . S
C64 H20 0.931 . S
C64 C63 1.380 . S
C64 C65 1.387 . S
C65 H21 0.930 . S
C65 C60 1.386 . S
C65 C64 1.387 . S
C66 C35 1.519 1_655 S
C66 C67 1.377 . S
C66 C71 1.361 . S
C67 H22 0.929 . S
C67 C66 1.377 . S
C67 C68 1.386 . S
C68 H23 0.931 . S
C68 C67 1.386 . S
C68 C69 1.363 . S
C69 C68 1.363 . S
C69 C70 1.385 . S
C70 H24 0.930 . S
C70 C69 1.385 . S
C70 C71 1.396 . S
C71 H25 0.929 . S
C71 C66 1.361 . S
C71 C70 1.396 . S
C72 O26 1.300 . S
C72 O27 1.209 . S
C72 C45 1.486 . S
C73 O28 1.199 . S
C73 O29 1.297 . S
C73 C57 1.476 . S
H74 O100 0.856 . S
H75 O103 0.854 . S
H76 C111 0.930 1_545 S
H77 C112 0.930 . S
H78 C114 0.930 . S
H79 C115 0.930 . S
H80 C117 0.931 . S
H81 C118 0.930 . S
H82 C120 0.930 . S
H83 C121 0.929 . S
H84 C123 0.930 . S
H85 C124 0.931 . S
H86 C126 0.930 . S
H87 C127 0.929 . S
H88 C129 0.931 . S
H89 C130 0.930 . S
H90 C132 0.930 . S
H91 C133 0.932 . S
H92 C135 0.930 . S
H93 C136 0.929 . S
H94 C138 0.931 . S
H95 C139 0.930 . S
H96 C141 0.929 . S
H97 C142 0.931 . S
H98 C144 0.930 . S
H99 C145 0.929 . S
O100 H74 0.856 . S
O100 C146 1.300 . S
O101 C146 1.209 . S
O102 C147 1.199 . S
O103 H75 0.854 . S
O103 C147 1.297 . S
C104 C105 1.404 . S
C104 C109 1.397 . S
C104 C110 1.492 1_545 S
C105 C104 1.404 . S
C105 C106 1.396 . S
C105 C116 1.492 . S
C106 C105 1.396 . S
C106 C107 1.397 . S
C106 C122 1.509 . S
C107 C106 1.397 . S
C107 C108 1.412 . S
C107 C128 1.485 . S
C108 C107 1.412 . S
C108 C109 1.388 . S
C108 C134 1.490 . S
C109 C104 1.397 . S
C109 C108 1.388 . S
C109 C140 1.519 1_545 S
C110 C104 1.492 1_565 S
C110 C111 1.363 . S
C110 C115 1.390 . S
C111 H76 0.930 1_565 S
C111 C110 1.363 . S
C111 C112 1.372 . S
C112 H77 0.930 . S
C112 C111 1.372 . S
C112 C113 1.383 . S
C113 C112 1.383 . S
C113 C114 1.395 . S
C114 H78 0.930 . S
C114 C113 1.395 . S
C114 C115 1.362 . S
C115 H79 0.930 . S
C115 C110 1.390 . S
C115 C114 1.362 . S
C116 C105 1.492 . S
C116 C117 1.377 . S
C116 C121 1.397 . S
C117 H80 0.931 . S
C117 C116 1.377 . S
C117 C118 1.376 . S
C118 H81 0.930 . S
C118 C117 1.376 . S
C118 C119 1.376 . S
C119 C118 1.376 . S
C119 C120 1.378 . S
C119 C146 1.486 . S
C120 H82 0.930 . S
C120 C119 1.378 . S
C120 C121 1.376 . S
C121 H83 0.929 . S
C121 C116 1.397 . S
C121 C120 1.376 . S
C122 C106 1.509 . S
C122 C123 1.391 . S
C122 C127 1.386 . S
C123 H84 0.930 . S
C123 C122 1.391 . S
C123 C124 1.375 . S
C124 H85 0.931 . S
C124 C123 1.375 . S
C124 C125 1.375 . S
C125 C124 1.375 . S
C125 C126 1.361 . S
C126 H86 0.930 . S
C126 C125 1.361 . S
C126 C127 1.399 . S
C127 H87 0.929 . S
C127 C122 1.386 . S
C127 C126 1.399 . S
C128 C107 1.485 . S
C128 C129 1.394 . S
C128 C133 1.360 . S
C129 H88 0.931 . S
C129 C128 1.394 . S
C129 C130 1.372 . S
C130 H89 0.930 . S
C130 C129 1.372 . S
C130 C131 1.397 . S
C131 C130 1.397 . S
C131 C132 1.390 . S
C131 C147 1.476 . S
C132 H90 0.930 . S
C132 C131 1.390 . S
C132 C133 1.366 . S
C133 H91 0.932 . S
C133 C128 1.360 . S
C133 C132 1.366 . S
C134 C108 1.490 . S
C134 C135 1.380 . S
C134 C139 1.386 . S
C135 H92 0.930 . S
C135 C134 1.380 . S
C135 C136 1.381 . S
C136 H93 0.929 . S
C136 C135 1.381 . S
C136 C137 1.371 . S
C137 C136 1.371 . S
C137 C138 1.380 . S
C138 H94 0.931 . S
C138 C137 1.380 . S
C138 C139 1.387 . S
C139 H95 0.930 . S
C139 C134 1.386 . S
C139 C138 1.387 . S
C140 C109 1.519 1_565 S
C140 C141 1.377 . S
C140 C145 1.361 . S
C141 H96 0.929 . S
C141 C140 1.377 . S
C141 C142 1.386 . S
C142 H97 0.931 . S
C142 C141 1.386 . S
C142 C143 1.363 . S
C143 C142 1.363 . S
C143 C144 1.385 . S
C144 H98 0.930 . S
C144 C143 1.385 . S
C144 C145 1.396 . S
C145 H99 0.929 . S
C145 C140 1.361 . S
C145 C144 1.396 . S
C146 O100 1.300 . S
C146 O101 1.209 . S
C146 C119 1.486 . S
C147 O102 1.199 . S
C147 O103 1.297 . S
C147 C131 1.476 . S
H148 O174 0.856 . S
H149 O177 0.854 . S
H150 C185 0.930 . S
H151 C186 0.930 . S
H152 C188 0.930 . S
H153 C189 0.930 . S
H154 C191 0.931 . S
H155 C192 0.930 . S
H156 C194 0.930 . S
H157 C195 0.929 . S
H158 C197 0.930 . S
H159 C198 0.931 . S
H160 C200 0.930 . S
H161 C201 0.929 . S
H162 C203 0.931 . S
H163 C204 0.930 . S
H164 C206 0.930 . S
H165 C207 0.932 . S
H166 C209 0.930 . S
H167 C210 0.929 . S
H168 C212 0.931 . S
H169 C213 0.930 . S
H170 C215 0.929 . S
H171 C216 0.931 . S
H172 C218 0.930 . S
H173 C219 0.929 . S
O174 H148 0.856 . S
O174 C220 1.300 . S
O175 C220 1.209 . S
O176 C221 1.199 . S
O177 H149 0.854 . S
O177 C221 1.297 . S
C178 C179 1.404 . S
C178 C183 1.397 . S
C178 C184 1.492 . S
C179 C178 1.404 . S
C179 C180 1.396 . S
C179 C190 1.492 . S
C180 C179 1.396 . S
C180 C181 1.397 . S
C180 C196 1.509 . S
C181 C180 1.397 . S
C181 C182 1.412 . S
C181 C202 1.485 . S
C182 C181 1.412 . S
C182 C183 1.388 . S
C182 C208 1.490 . S
C183 C178 1.397 . S
C183 C182 1.388 . S
C183 C214 1.519 . S
C184 C178 1.492 . S
C184 C185 1.363 . S
C184 C189 1.390 . S
C185 H150 0.930 . S
C185 C184 1.363 . S
C185 C186 1.372 . S
C186 H151 0.930 . S
C186 C185 1.372 . S
C186 C187 1.383 . S
C187 C186 1.383 . S
C187 C188 1.395 . S
C188 H152 0.930 . S
C188 C187 1.395 . S
C188 C189 1.362 . S
C189 H153 0.930 . S
C189 C184 1.390 . S
C189 C188 1.362 . S
C190 C179 1.492 . S
C190 C191 1.377 . S
C190 C195 1.397 . S
C191 H154 0.931 . S
C191 C190 1.377 . S
C191 C192 1.376 . S
C192 H155 0.930 . S
C192 C191 1.376 . S
C192 C193 1.376 . S
C193 C192 1.376 . S
C193 C194 1.378 . S
C193 C220 1.486 . S
C194 H156 0.930 . S
C194 C193 1.378 . S
C194 C195 1.376 . S
C195 H157 0.929 . S
C195 C190 1.397 . S
C195 C194 1.376 . S
C196 C180 1.509 . S
C196 C197 1.391 . S
C196 C201 1.386 . S
C197 H158 0.930 . S
C197 C196 1.391 . S
C197 C198 1.375 . S
C198 H159 0.931 . S
C198 C197 1.375 . S
C198 C199 1.375 . S
C199 C198 1.375 . S
C199 C200 1.361 . S
C200 H160 0.930 . S
C200 C199 1.361 . S
C200 C201 1.399 . S
C201 H161 0.929 . S
C201 C196 1.386 . S
C201 C200 1.399 . S
C202 C181 1.485 . S
C202 C203 1.394 . S
C202 C207 1.360 . S
C203 H162 0.931 . S
C203 C202 1.394 . S
C203 C204 1.372 . S
C204 H163 0.930 . S
C204 C203 1.372 . S
C204 C205 1.397 . S
C205 C204 1.397 . S
C205 C206 1.390 . S
C205 C221 1.476 . S
C206 H164 0.930 . S
C206 C205 1.390 . S
C206 C207 1.366 . S
C207 H165 0.932 . S
C207 C202 1.360 . S
C207 C206 1.366 . S
C208 C182 1.490 . S
C208 C209 1.380 . S
C208 C213 1.386 . S
C209 H166 0.930 . S
C209 C208 1.380 . S
C209 C210 1.381 . S
C210 H167 0.929 . S
C210 C209 1.381 . S
C210 C211 1.371 . S
C211 C210 1.371 . S
C211 C212 1.380 . S
C212 H168 0.931 . S
C212 C211 1.380 . S
C212 C213 1.387 . S
C213 H169 0.930 . S
C213 C208 1.386 . S
C213 C212 1.387 . S
C214 C183 1.519 . S
C214 C215 1.377 . S
C214 C219 1.361 . S
C215 H170 0.929 . S
C215 C214 1.377 . S
C215 C216 1.386 . S
C216 H171 0.931 . S
C216 C215 1.386 . S
C216 C217 1.363 . S
C217 C216 1.363 . S
C217 C218 1.385 . S
C218 H172 0.930 . S
C218 C217 1.385 . S
C218 C219 1.396 . S
C219 H173 0.929 . S
C219 C214 1.361 . S
C219 C218 1.396 . S
C220 O174 1.300 . S
C220 O175 1.209 . S
C220 C193 1.486 . S
C221 O176 1.199 . S
C221 O177 1.297 . S
C221 C205 1.476 . S
H222 O248 0.856 1_554 S
H223 O251 0.854 . S
H224 C259 0.930 1_455 S
H225 C260 0.930 . S
H226 C262 0.930 . S
H227 C263 0.930 . S
H228 C265 0.931 . S
H229 C266 0.930 . S
H230 C268 0.930 . S
H231 C269 0.929 . S
H232 C271 0.930 . S
H233 C272 0.931 . S
H234 C274 0.930 . S
H235 C275 0.929 . S
H236 C277 0.931 . S
H237 C278 0.930 . S
H238 C280 0.930 . S
H239 C281 0.932 . S
H240 C283 0.930 . S
H241 C284 0.929 . S
H242 C286 0.931 . S
H243 C287 0.930 . S
H244 C289 0.929 . S
H245 C290 0.931 . S
H246 C292 0.930 . S
H247 C293 0.929 . S
O248 H222 0.856 1_556 S
O248 C294 1.300 . S
O249 C294 1.209 . S
O250 C295 1.199 . S
O251 H223 0.854 . S
O251 C295 1.297 . S
C252 C253 1.404 . S
C252 C257 1.397 . S
C252 C258 1.492 . S
C253 C252 1.404 . S
C253 C254 1.396 . S
C253 C264 1.492 . S
C254 C253 1.396 . S
C254 C255 1.397 . S
C254 C270 1.509 . S
C255 C254 1.397 . S
C255 C256 1.412 . S
C255 C276 1.485 . S
C256 C255 1.412 . S
C256 C257 1.388 . S
C256 C282 1.490 . S
C257 C252 1.397 . S
C257 C256 1.388 . S
C257 C288 1.519 1_455 S
C258 C252 1.492 . S
C258 C259 1.363 1_455 S
C258 C263 1.390 1_455 S
C259 H224 0.930 1_655 S
C259 C258 1.363 1_655 S
C259 C260 1.372 . S
C260 H225 0.930 . S
C260 C259 1.372 . S
C260 C261 1.383 . S
C261 C260 1.383 . S
C261 C262 1.395 . S
C262 H226 0.930 . S
C262 C261 1.395 . S
C262 C263 1.362 . S
C263 H227 0.930 . S
C263 C258 1.390 1_655 S
C263 C262 1.362 . S
C264 C253 1.492 . S
C264 C265 1.377 . S
C264 C269 1.397 . S
C265 H228 0.931 . S
C265 C264 1.377 . S
C265 C266 1.376 . S
C266 H229 0.930 . S
C266 C265 1.376 . S
C266 C267 1.376 . S
C267 C266 1.376 . S
C267 C268 1.378 . S
C267 C294 1.486 . S
C268 H230 0.930 . S
C268 C267 1.378 . S
C268 C269 1.376 . S
C269 H231 0.929 . S
C269 C264 1.397 . S
C269 C268 1.376 . S
C270 C254 1.509 . S
C270 C271 1.391 . S
C270 C275 1.386 . S
C271 H232 0.930 . S
C271 C270 1.391 . S
C271 C272 1.375 . S
C272 H233 0.931 . S
C272 C271 1.375 . S
C272 C273 1.375 . S
C273 C272 1.375 . S
C273 C274 1.361 . S
C274 H234 0.930 . S
C274 C273 1.361 . S
C274 C275 1.399 . S
C275 H235 0.929 . S
C275 C270 1.386 . S
C275 C274 1.399 . S
C276 C255 1.485 . S
C276 C277 1.394 . S
C276 C281 1.360 . S
C277 H236 0.931 . S
C277 C276 1.394 . S
C277 C278 1.372 . S
C278 H237 0.930 . S
C278 C277 1.372 . S
C278 C279 1.397 . S
C279 C278 1.397 . S
C279 C280 1.390 . S
C279 C295 1.476 . S
C280 H238 0.930 . S
C280 C279 1.390 . S
C280 C281 1.366 . S
C281 H239 0.932 . S
C281 C276 1.360 . S
C281 C280 1.366 . S
C282 C256 1.490 . S
C282 C283 1.380 . S
C282 C287 1.386 . S
C283 H240 0.930 . S
C283 C282 1.380 . S
C283 C284 1.381 . S
C284 H241 0.929 . S
C284 C283 1.381 . S
C284 C285 1.371 . S
C285 C284 1.371 . S
C285 C286 1.380 . S
C286 H242 0.931 . S
C286 C285 1.380 . S
C286 C287 1.387 . S
C287 H243 0.930 . S
C287 C282 1.386 . S
C287 C286 1.387 . S
C288 C257 1.519 1_655 S
C288 C289 1.377 . S
C288 C293 1.361 . S
C289 H244 0.929 . S
C289 C288 1.377 . S
C289 C290 1.386 . S
C290 H245 0.931 . S
C290 C289 1.386 . S
C290 C291 1.363 . S
C291 C290 1.363 . S
C291 C292 1.385 . S
C292 H246 0.930 . S
C292 C291 1.385 . S
C292 C293 1.396 . S
C293 H247 0.929 . S
C293 C288 1.361 . S
C293 C292 1.396 . S
C294 O248 1.300 . S
C294 O249 1.209 . S
C294 C267 1.486 . S
C295 O250 1.199 . S
C295 O251 1.297 . S
C295 C279 1.476 . S
H296 O322 0.856 . S
H297 O325 0.854 . S
H298 C333 0.930 . S
H299 C334 0.930 . S
H300 C336 0.930 . S
H301 C337 0.930 . S
H302 C339 0.931 . S
H303 C340 0.930 . S
H304 C342 0.930 . S
H305 C343 0.929 . S
H306 C345 0.930 . S
H307 C346 0.931 . S
H308 C348 0.930 . S
H309 C349 0.929 . S
H310 C351 0.931 . S
H311 C352 0.930 . S
H312 C354 0.930 . S
H313 C355 0.932 . S
H314 C357 0.930 1_545 S
H315 C358 0.929 . S
H316 C360 0.931 . S
H317 C361 0.930 . S
H318 C363 0.929 1_556 S
H319 C364 0.931 . S
H320 C366 0.930 . S
H321 C367 0.929 . S
O322 H296 0.856 . S
O322 C368 1.300 . S
O323 C368 1.209 . S
O324 C369 1.199 . S
O325 H297 0.854 . S
O325 C369 1.297 . S
C326 C327 1.404 1_545 S
C326 C331 1.397 . S
C326 C332 1.492 . S
C327 C326 1.404 1_565 S
C327 C328 1.396 . S
C327 C338 1.492 . S
C328 C327 1.396 . S
C328 C329 1.397 . S
C328 C344 1.509 . S
C329 C328 1.397 . S
C329 C330 1.412 1_556 S
C329 C350 1.485 1_556 S
C330 C329 1.412 1_554 S
C330 C331 1.388 1_564 S
C330 C356 1.490 . S
C331 C326 1.397 . S
C331 C330 1.388 1_546 S
C331 C362 1.519 1_556 S
C332 C326 1.492 . S
C332 C333 1.363 . S
C332 C337 1.390 . S
C333 H298 0.930 . S
C333 C332 1.363 . S
C333 C334 1.372 . S
C334 H299 0.930 . S
C334 C333 1.372 . S
C334 C335 1.383 . S
C335 C334 1.383 . S
C335 C336 1.395 . S
C336 H300 0.930 . S
C336 C335 1.395 . S
C336 C337 1.362 . S
C337 H301 0.930 . S
C337 C332 1.390 . S
C337 C336 1.362 . S
C338 C327 1.492 . S
C338 C339 1.377 . S
C338 C343 1.397 . S
C339 H302 0.931 . S
C339 C338 1.377 . S
C339 C340 1.376 . S
C340 H303 0.930 . S
C340 C339 1.376 . S
C340 C341 1.376 . S
C341 C340 1.376 . S
C341 C342 1.378 . S
C341 C368 1.486 . S
C342 H304 0.930 . S
C342 C341 1.378 . S
C342 C343 1.376 . S
C343 H305 0.929 . S
C343 C338 1.397 . S
C343 C342 1.376 . S
C344 C328 1.509 . S
C344 C345 1.391 . S
C344 C349 1.386 . S
C345 H306 0.930 . S
C345 C344 1.391 . S
C345 C346 1.375 . S
C346 H307 0.931 . S
C346 C345 1.375 . S
C346 C347 1.375 . S
C347 C346 1.375 . S
C347 C348 1.361 . S
C348 H308 0.930 . S
C348 C347 1.361 . S
C348 C349 1.399 . S
C349 H309 0.929 . S
C349 C344 1.386 . S
C349 C348 1.399 . S
C350 C329 1.485 1_554 S
C350 C351 1.394 . S
C350 C355 1.360 . S
C351 H310 0.931 . S
C351 C350 1.394 . S
C351 C352 1.372 . S
C352 H311 0.930 . S
C352 C351 1.372 . S
C352 C353 1.397 . S
C353 C352 1.397 . S
C353 C354 1.390 . S
C353 C369 1.476 . S
C354 H312 0.930 . S
C354 C353 1.390 . S
C354 C355 1.366 . S
C355 H313 0.932 . S
C355 C350 1.360 . S
C355 C354 1.366 . S
C356 C330 1.490 . S
C356 C357 1.380 . S
C356 C361 1.386 . S
C357 H314 0.930 1_565 S
C357 C356 1.380 . S
C357 C358 1.381 1_565 S
C358 H315 0.929 . S
C358 C357 1.381 1_545 S
C358 C359 1.371 1_545 S
C359 C358 1.371 1_565 S
C359 C360 1.380 . S
C360 H316 0.931 . S
C360 C359 1.380 . S
C360 C361 1.387 . S
C361 H317 0.930 . S
C361 C356 1.386 . S
C361 C360 1.387 . S
C362 C331 1.519 1_554 S
C362 C363 1.377 . S
C362 C367 1.361 . S
C363 H318 0.929 1_554 S
C363 C362 1.377 . S
C363 C364 1.386 . S
C364 H319 0.931 . S
C364 C363 1.386 . S
C364 C365 1.363 . S
C365 C364 1.363 . S
C365 C366 1.385 . S
C366 H320 0.930 . S
C366 C365 1.385 . S
C366 C367 1.396 . S
C367 H321 0.929 . S
C367 C362 1.361 . S
C367 C366 1.396 . S
C368 O322 1.300 . S
C368 O323 1.209 . S
C368 C341 1.486 . S
C369 O324 1.199 . S
C369 O325 1.297 . S
C369 C353 1.476 . S
H370 O396 0.856 . S
H371 O399 0.854 . S
H372 C407 0.930 . S
H373 C408 0.930 . S
H374 C410 0.930 . S
H375 C411 0.930 . S
H376 C413 0.931 . S
H377 C414 0.930 . S
H378 C416 0.930 . S
H379 C417 0.929 . S
H380 C419 0.930 . S
H381 C420 0.931 . S
H382 C422 0.930 . S
H383 C423 0.929 . S
H384 C425 0.931 . S
H385 C426 0.930 . S
H386 C428 0.930 . S
H387 C429 0.932 . S
H388 C431 0.930 . S
H389 C432 0.929 . S
H390 C434 0.931 . S
H391 C435 0.930 . S
H392 C437 0.929 . S
H393 C438 0.931 . S
H394 C440 0.930 . S
H395 C441 0.929 . S
O396 H370 0.856 . S
O396 C442 1.300 . S
O397 C442 1.209 . S
O398 C443 1.199 . S
O399 H371 0.854 . S
O399 C443 1.297 . S
C400 C401 1.404 . S
C400 C405 1.397 . S
C400 C406 1.492 . S
C401 C400 1.404 . S
C401 C402 1.396 . S
C401 C412 1.492 . S
C402 C401 1.396 . S
C402 C403 1.397 . S
C402 C418 1.509 . S
C403 C402 1.397 . S
C403 C404 1.412 . S
C403 C424 1.485 . S
C404 C403 1.412 . S
C404 C405 1.388 . S
C404 C430 1.490 . S
C405 C400 1.397 . S
C405 C404 1.388 . S
C405 C436 1.519 . S
C406 C400 1.492 . S
C406 C407 1.363 . S
C406 C411 1.390 . S
C407 H372 0.930 . S
C407 C406 1.363 . S
C407 C408 1.372 . S
C408 H373 0.930 . S
C408 C407 1.372 . S
C408 C409 1.383 . S
C409 C408 1.383 . S
C409 C410 1.395 . S
C410 H374 0.930 . S
C410 C409 1.395 . S
C410 C411 1.362 . S
C411 H375 0.930 . S
C411 C406 1.390 . S
C411 C410 1.362 . S
C412 C401 1.492 . S
C412 C413 1.377 . S
C412 C417 1.397 . S
C413 H376 0.931 . S
C413 C412 1.377 . S
C413 C414 1.376 . S
C414 H377 0.930 . S
C414 C413 1.376 . S
C414 C415 1.376 . S
C415 C414 1.376 . S
C415 C416 1.378 . S
C415 C442 1.486 1_554 S
C416 H378 0.930 . S
C416 C415 1.378 . S
C416 C417 1.376 . S
C417 H379 0.929 . S
C417 C412 1.397 . S
C417 C416 1.376 . S
C418 C402 1.509 . S
C418 C419 1.391 . S
C418 C423 1.386 . S
C419 H380 0.930 . S
C419 C418 1.391 . S
C419 C420 1.375 . S
C420 H381 0.931 . S
C420 C419 1.375 . S
C420 C421 1.375 . S
C421 C420 1.375 . S
C421 C422 1.361 . S
C422 H382 0.930 . S
C422 C421 1.361 . S
C422 C423 1.399 . S
C423 H383 0.929 . S
C423 C418 1.386 . S
C423 C422 1.399 . S
C424 C403 1.485 . S
C424 C425 1.394 . S
C424 C429 1.360 . S
C425 H384 0.931 . S
C425 C424 1.394 . S
C425 C426 1.372 . S
C426 H385 0.930 . S
C426 C425 1.372 . S
C426 C427 1.397 . S
C427 C426 1.397 . S
C427 C428 1.390 . S
C427 C443 1.476 . S
C428 H386 0.930 . S
C428 C427 1.390 . S
C428 C429 1.366 . S
C429 H387 0.932 . S
C429 C424 1.360 . S
C429 C428 1.366 . S
C430 C404 1.490 . S
C430 C431 1.380 . S
C430 C435 1.386 . S
C431 H388 0.930 . S
C431 C430 1.380 . S
C431 C432 1.381 . S
C432 H389 0.929 . S
C432 C431 1.381 . S
C432 C433 1.371 . S
C433 C432 1.371 . S
C433 C434 1.380 . S
C434 H390 0.931 . S
C434 C433 1.380 . S
C434 C435 1.387 . S
C435 H391 0.930 . S
C435 C430 1.386 . S
C435 C434 1.387 . S
C436 C405 1.519 . S
C436 C437 1.377 . S
C436 C441 1.361 . S
C437 H392 0.929 . S
C437 C436 1.377 . S
C437 C438 1.386 . S
C438 H393 0.931 . S
C438 C437 1.386 . S
C438 C439 1.363 . S
C439 C438 1.363 . S
C439 C440 1.385 . S
C440 H394 0.930 . S
C440 C439 1.385 . S
C440 C441 1.396 . S
C441 H395 0.929 . S
C441 C436 1.361 . S
C441 C440 1.396 . S
C442 O396 1.300 . S
C442 O397 1.209 . S
C442 C415 1.486 1_556 S
C443 O398 1.199 . S
C443 O399 1.297 . S
C443 C427 1.476 . S
Mn444 O449 2.095 . S
Mn444 O459 2.162 . S
Mn444 O460 2.297 . S
Mn444 O468 2.385 . S
Mn444 O469 2.209 . S
Mn444 O470 2.094 . S
Mn445 O450 2.121 . S
Mn445 N452 2.257 . S
Mn445 N461 2.282 . S
Mn445 O469 2.215 . S
Mn445 O471 2.117 . S
C446 O468 1.234 . S
C446 O469 1.283 . S
C447 O459 1.281 . S
C447 O460 1.236 . S
C448 O470 1.240 . S
C448 O471 1.264 . S
O449 Mn444 2.095 . S
O449 C458 1.250 . S
O450 Mn445 2.121 . S
O450 C458 1.258 . S
C451 N452 1.326 . S
C451 C455 1.460 . S
C451 H457 0.929 . S
N452 Mn445 2.257 . S
N452 C451 1.326 . S
N452 C456 1.362 . S
C453 C454 1.258 . S
C453 C456 1.431 . S
C453 C473 1.449 . S
C454 C453 1.258 . S
C454 C455 1.477 . S
C454 H474 0.931 . S
C455 C451 1.460 . S
C455 C454 1.477 . S
C455 H475 0.930 . S
C456 N452 1.362 . S
C456 C453 1.431 . S
C456 C466 1.476 . S
H457 C451 0.929 . S
C458 O449 1.250 . S
C458 O450 1.258 . S
O459 Mn444 2.162 . S
O459 C447 1.281 . S
O460 Mn444 2.297 . S
O460 C447 1.236 . S
N461 Mn445 2.282 . S
N461 C462 1.328 . S
N461 C466 1.318 . S
C462 N461 1.328 . S
C462 C463 1.457 . S
C462 H467 0.929 . S
C463 C462 1.457 . S
C463 C464 1.291 . S
C463 H476 0.931 . S
C464 C463 1.291 . S
C464 C465 1.373 . S
C464 H477 0.929 . S
C465 C464 1.373 . S
C465 C466 1.396 . S
C465 C472 1.403 . S
C466 C456 1.476 . S
C466 N461 1.318 . S
C466 C465 1.396 . S
H467 C462 0.929 . S
O468 Mn444 2.385 . S
O468 C446 1.234 . S
O469 Mn444 2.209 . S
O469 Mn445 2.215 . S
O469 C446 1.283 . S
O470 Mn444 2.094 . S
O470 C448 1.240 . S
O471 Mn445 2.117 . S
O471 C448 1.264 . S
C472 C465 1.403 . S
C472 C473 1.399 . S
C472 H478 0.929 . S
C473 C453 1.449 . S
C473 C472 1.399 . S
C473 H479 0.930 . S
H474 C454 0.931 . S
H475 C455 0.930 . S
H476 C463 0.931 . S
H477 C464 0.929 . S
H478 C472 0.929 . S
H479 C473 0.930 . S
Mn480 O485 2.095 . S
Mn480 O495 2.162 . S
Mn480 O496 2.297 . S
Mn480 O504 2.385 . S
Mn480 O505 2.209 . S
Mn480 O506 2.094 . S
Mn481 O486 2.121 . S
Mn481 N488 2.257 . S
Mn481 N497 2.282 . S
Mn481 O505 2.215 . S
Mn481 O507 2.117 . S
C482 O504 1.234 . S
C482 O505 1.283 . S
C483 O495 1.281 . S
C483 O496 1.236 . S
C484 O506 1.240 . S
C484 O507 1.264 . S
O485 Mn480 2.095 . S
O485 C494 1.250 . S
O486 Mn481 2.121 . S
O486 C494 1.258 . S
C487 N488 1.326 . S
C487 C491 1.460 . S
C487 H493 0.929 . S
N488 Mn481 2.257 . S
N488 C487 1.326 . S
N488 C492 1.362 . S
C489 C490 1.258 . S
C489 C492 1.431 . S
C489 C509 1.449 . S
C490 C489 1.258 . S
C490 C491 1.477 . S
C490 H510 0.931 . S
C491 C487 1.460 . S
C491 C490 1.477 . S
C491 H511 0.930 . S
C492 N488 1.362 . S
C492 C489 1.431 . S
C492 C502 1.476 . S
H493 C487 0.929 . S
C494 O485 1.250 . S
C494 O486 1.258 . S
O495 Mn480 2.162 . S
O495 C483 1.281 . S
O496 Mn480 2.297 . S
O496 C483 1.236 . S
N497 Mn481 2.282 . S
N497 C498 1.328 . S
N497 C502 1.318 . S
C498 N497 1.328 . S
C498 C499 1.457 . S
C498 H503 0.929 . S
C499 C498 1.457 . S
C499 C500 1.291 . S
C499 H512 0.931 . S
C500 C499 1.291 . S
C500 C501 1.373 . S
C500 H513 0.929 . S
C501 C500 1.373 . S
C501 C502 1.396 . S
C501 C508 1.403 . S
C502 C492 1.476 . S
C502 N497 1.318 . S
C502 C501 1.396 . S
H503 C498 0.929 . S
O504 Mn480 2.385 . S
O504 C482 1.234 . S
O505 Mn480 2.209 . S
O505 Mn481 2.215 . S
O505 C482 1.283 . S
O506 Mn480 2.094 . S
O506 C484 1.240 . S
O507 Mn481 2.117 . S
O507 C484 1.264 . S
C508 C501 1.403 . S
C508 C509 1.399 . S
C508 H514 0.929 . S
C509 C489 1.449 . S
C509 C508 1.399 . S
C509 H515 0.930 . S
H510 C490 0.931 . S
H511 C491 0.930 . S
H512 C499 0.931 . S
H513 C500 0.929 . S
H514 C508 0.929 . S
H515 C509 0.930 . S
Mn516 O521 2.095 . S
Mn516 O531 2.162 . S
Mn516 O532 2.297 . S
Mn516 O540 2.385 . S
Mn516 O541 2.209 . S
Mn516 O542 2.094 . S
Mn517 O522 2.121 . S
Mn517 N524 2.257 . S
Mn517 N533 2.282 . S
Mn517 O541 2.215 . S
Mn517 O543 2.117 . S
C518 O540 1.234 . S
C518 O541 1.283 . S
C519 O531 1.281 . S
C519 O532 1.236 . S
C520 O542 1.240 . S
C520 O543 1.264 . S
O521 Mn516 2.095 . S
O521 C530 1.250 . S
O522 Mn517 2.121 . S
O522 C530 1.258 . S
C523 N524 1.326 . S
C523 C527 1.460 . S
C523 H529 0.929 . S
N524 Mn517 2.257 . S
N524 C523 1.326 . S
N524 C528 1.362 . S
C525 C526 1.258 . S
C525 C528 1.431 . S
C525 C545 1.449 . S
C526 C525 1.258 . S
C526 C527 1.477 . S
C526 H546 0.931 . S
C527 C523 1.460 . S
C527 C526 1.477 . S
C527 H547 0.930 . S
C528 N524 1.362 . S
C528 C525 1.431 . S
C528 C538 1.476 . S
H529 C523 0.929 . S
C530 O521 1.250 . S
C530 O522 1.258 . S
O531 Mn516 2.162 . S
O531 C519 1.281 . S
O532 Mn516 2.297 . S
O532 C519 1.236 . S
N533 Mn517 2.282 . S
N533 C534 1.328 . S
N533 C538 1.318 . S
C534 N533 1.328 . S
C534 C535 1.457 . S
C534 H539 0.929 . S
C535 C534 1.457 . S
C535 C536 1.291 . S
C535 H548 0.931 . S
C536 C535 1.291 . S
C536 C537 1.373 . S
C536 H549 0.929 1_545 S
C537 C536 1.373 . S
C537 C538 1.396 . S
C537 C544 1.403 . S
C538 C528 1.476 . S
C538 N533 1.318 . S
C538 C537 1.396 . S
H539 C534 0.929 . S
O540 Mn516 2.385 . S
O540 C518 1.234 . S
O541 Mn516 2.209 . S
O541 Mn517 2.215 . S
O541 C518 1.283 . S
O542 Mn516 2.094 . S
O542 C520 1.240 . S
O543 Mn517 2.117 . S
O543 C520 1.264 . S
C544 C537 1.403 . S
C544 C545 1.399 . S
C544 H550 0.929 1_545 S
C545 C525 1.449 . S
C545 C544 1.399 . S
C545 H551 0.930 . S
H546 C526 0.931 . S
H547 C527 0.930 . S
H548 C535 0.931 . S
H549 C536 0.929 1_565 S
H550 C544 0.929 1_565 S
H551 C545 0.930 . S
Mn552 O557 2.095 . S
Mn552 O567 2.162 . S
Mn552 O568 2.297 . S
Mn552 O576 2.385 . S
Mn552 O577 2.209 . S
Mn552 O578 2.094 . S
Mn553 O558 2.121 . S
Mn553 N560 2.257 . S
Mn553 N569 2.282 . S
Mn553 O577 2.215 . S
Mn553 O579 2.117 . S
C554 O576 1.234 . S
C554 O577 1.283 . S
C555 O567 1.281 . S
C555 O568 1.236 . S
C556 O578 1.240 . S
C556 O579 1.264 . S
O557 Mn552 2.095 . S
O557 C566 1.250 . S
O558 Mn553 2.121 . S
O558 C566 1.258 . S
C559 N560 1.326 . S
C559 C563 1.460 . S
C559 H565 0.929 . S
N560 Mn553 2.257 . S
N560 C559 1.326 . S
N560 C564 1.362 . S
C561 C562 1.258 . S
C561 C564 1.431 . S
C561 C581 1.449 . S
C562 C561 1.258 . S
C562 C563 1.477 . S
C562 H582 0.931 . S
C563 C559 1.460 . S
C563 C562 1.477 . S
C563 H583 0.930 . S
C564 N560 1.362 . S
C564 C561 1.431 . S
C564 C574 1.476 . S
H565 C559 0.929 . S
C566 O557 1.250 . S
C566 O558 1.258 . S
O567 Mn552 2.162 . S
O567 C555 1.281 . S
O568 Mn552 2.297 . S
O568 C555 1.236 . S
N569 Mn553 2.282 . S
N569 C570 1.328 . S
N569 C574 1.318 . S
C570 N569 1.328 . S
C570 C571 1.457 . S
C570 H575 0.929 . S
C571 C570 1.457 . S
C571 C572 1.291 . S
C571 H584 0.931 . S
C572 C571 1.291 . S
C572 C573 1.373 . S
C572 H585 0.929 . S
C573 C572 1.373 . S
C573 C574 1.396 . S
C573 C580 1.403 . S
C574 C564 1.476 . S
C574 N569 1.318 . S
C574 C573 1.396 . S
H575 C570 0.929 . S
O576 Mn552 2.385 . S
O576 C554 1.234 . S
O577 Mn552 2.209 . S
O577 Mn553 2.215 . S
O577 C554 1.283 . S
O578 Mn552 2.094 . S
O578 C556 1.240 . S
O579 Mn553 2.117 . S
O579 C556 1.264 . S
C580 C573 1.403 . S
C580 C581 1.399 . S
C580 H586 0.929 . S
C581 C561 1.449 . S
C581 C580 1.399 . S
C581 H587 0.930 . S
H582 C562 0.931 . S
H583 C563 0.930 . S
H584 C571 0.931 . S
H585 C572 0.929 . S
H586 C580 0.929 . S
H587 C581 0.930 . S
Mn588 O593 2.095 . S
Mn588 O603 2.162 . S
Mn588 O604 2.297 . S
Mn588 O612 2.385 . S
Mn588 O613 2.209 . S
Mn588 O614 2.094 . S
Mn589 O594 2.121 . S
Mn589 N596 2.257 . S
Mn589 N605 2.282 . S
Mn589 O613 2.215 . S
Mn589 O615 2.117 . S
C590 O612 1.234 . S
C590 O613 1.283 . S
C591 O603 1.281 . S
C591 O604 1.236 . S
C592 O614 1.240 . S
C592 O615 1.264 . S
O593 Mn588 2.095 . S
O593 C602 1.250 . S
O594 Mn589 2.121 . S
O594 C602 1.258 . S
C595 N596 1.326 . S
C595 C599 1.460 . S
C595 H601 0.929 . S
N596 Mn589 2.257 . S
N596 C595 1.326 . S
N596 C600 1.362 . S
C597 C598 1.258 . S
C597 C600 1.431 . S
C597 C617 1.449 . S
C598 C597 1.258 . S
C598 C599 1.477 . S
C598 H618 0.931 . S
C599 C595 1.460 . S
C599 C598 1.477 . S
C599 H619 0.930 . S
C600 N596 1.362 . S
C600 C597 1.431 . S
C600 C610 1.476 . S
H601 C595 0.929 . S
C602 O593 1.250 . S
C602 O594 1.258 . S
O603 Mn588 2.162 . S
O603 C591 1.281 . S
O604 Mn588 2.297 . S
O604 C591 1.236 . S
N605 Mn589 2.282 . S
N605 C606 1.328 . S
N605 C610 1.318 . S
C606 N605 1.328 . S
C606 C607 1.457 . S
C606 H611 0.929 . S
C607 C606 1.457 . S
C607 C608 1.291 1_655 S
C607 H620 0.931 1_655 S
C608 C607 1.291 1_455 S
C608 C609 1.373 1_455 S
C608 H621 0.929 . S
C609 C608 1.373 1_655 S
C609 C610 1.396 . S
C609 C616 1.403 . S
C610 C600 1.476 . S
C610 N605 1.318 . S
C610 C609 1.396 . S
H611 C606 0.929 . S
O612 Mn588 2.385 . S
O612 C590 1.234 . S
O613 Mn588 2.209 . S
O613 Mn589 2.215 . S
O613 C590 1.283 . S
O614 Mn588 2.094 . S
O614 C592 1.240 . S
O615 Mn589 2.117 . S
O615 C592 1.264 . S
C616 C609 1.403 . S
C616 C617 1.399 . S
C616 H622 0.929 1_655 S
C617 C597 1.449 . S
C617 C616 1.399 . S
C617 H623 0.930 . S
H618 C598 0.931 . S
H619 C599 0.930 . S
H620 C607 0.931 1_455 S
H621 C608 0.929 . S
H622 C616 0.929 1_455 S
H623 C617 0.930 . S
Mn624 O629 2.095 . S
Mn624 O639 2.162 . S
Mn624 O640 2.297 . S
Mn624 O648 2.385 . S
Mn624 O649 2.209 . S
Mn624 O650 2.094 . S
Mn625 O630 2.121 . S
Mn625 N632 2.257 . S
Mn625 N641 2.282 . S
Mn625 O649 2.215 . S
Mn625 O651 2.117 . S
C626 O648 1.234 . S
C626 O649 1.283 . S
C627 O639 1.281 . S
C627 O640 1.236 . S
C628 O650 1.240 . S
C628 O651 1.264 . S
O629 Mn624 2.095 . S
O629 C638 1.250 . S
O630 Mn625 2.121 . S
O630 C638 1.258 . S
C631 N632 1.326 . S
C631 C635 1.460 . S
C631 H637 0.929 . S
N632 Mn625 2.257 . S
N632 C631 1.326 . S
N632 C636 1.362 . S
C633 C634 1.258 . S
C633 C636 1.431 . S
C633 C653 1.449 . S
C634 C633 1.258 . S
C634 C635 1.477 . S
C634 H654 0.931 . S
C635 C631 1.460 . S
C635 C634 1.477 . S
C635 H655 0.930 . S
C636 N632 1.362 . S
C636 C633 1.431 . S
C636 C646 1.476 . S
H637 C631 0.929 . S
C638 O629 1.250 . S
C638 O630 1.258 . S
O639 Mn624 2.162 . S
O639 C627 1.281 . S
O640 Mn624 2.297 . S
O640 C627 1.236 . S
N641 Mn625 2.282 . S
N641 C642 1.328 . S
N641 C646 1.318 . S
C642 N641 1.328 . S
C642 C643 1.457 1_565 S
C642 H647 0.929 . S
C643 C642 1.457 1_545 S
C643 C644 1.291 . S
C643 H656 0.931 . S
C644 C643 1.291 . S
C644 C645 1.373 . S
C644 H657 0.929 . S
C645 C644 1.373 . S
C645 C646 1.396 1_545 S
C645 C652 1.403 . S
C646 C636 1.476 . S
C646 N641 1.318 . S
C646 C645 1.396 1_565 S
H647 C642 0.929 . S
O648 Mn624 2.385 . S
O648 C626 1.234 . S
O649 Mn624 2.209 . S
O649 Mn625 2.215 . S
O649 C626 1.283 . S
O650 Mn624 2.094 . S
O650 C628 1.240 . S
O651 Mn625 2.117 . S
O651 C628 1.264 . S
C652 C645 1.403 . S
C652 C653 1.399 1_545 S
C652 H658 0.929 . S
C653 C633 1.449 . S
C653 C652 1.399 1_565 S
C653 H659 0.929 . S
H654 C634 0.931 . S
H655 C635 0.930 . S
H656 C643 0.931 . S
H657 C644 0.929 . S
H658 C652 0.929 . S
H659 C653 0.929 . S
C660 C661 1.387 . S
C660 H664 0.950 . S
C660 C669 1.390 . S
C661 C660 1.387 . S
C661 C663 1.387 . S
H662 C669 0.950 . S
C663 C661 1.387 . S
C663 C665 1.390 . S
C663 H667 0.950 . S
H664 C660 0.950 . S
C665 C663 1.390 . S
C665 C666 1.387 . S
C665 H668 0.950 . S
C666 C665 1.387 . S
C666 C669 1.387 . S
H667 C663 0.950 . S
H668 C665 0.950 . S
C669 C660 1.390 . S
C669 H662 0.950 . S
C669 C666 1.387 . S
C670 C671 1.387 . S
C670 H674 0.950 . S
C670 C679 1.390 . S
C671 C670 1.387 . S
C671 C673 1.387 . S
H672 C679 0.950 . S
C673 C671 1.387 . S
C673 C675 1.390 . S
C673 H677 0.950 . S
H674 C670 0.950 . S
C675 C673 1.390 . S
C675 C676 1.387 . S
C675 H678 0.950 . S
C676 C675 1.387 . S
C676 C679 1.387 . S
H677 C673 0.950 . S
H678 C675 0.950 . S
C679 C670 1.390 . S
C679 H672 0.950 . S
C679 C676 1.387 . S
C680 C681 1.387 . S
C680 H684 0.950 . S
C680 C689 1.390 . S
C681 C680 1.387 . S
C681 C683 1.387 . S
H682 C689 0.950 . S
C683 C681 1.387 . S
C683 C685 1.390 . S
C683 H687 0.950 . S
H684 C680 0.950 . S
C685 C683 1.390 . S
C685 C686 1.387 . S
C685 H688 0.950 . S
C686 C685 1.387 . S
C686 C689 1.387 . S
H687 C683 0.950 . S
H688 C685 0.950 . S
C689 C680 1.390 . S
C689 H682 0.950 . S
C689 C686 1.387 . S
C690 C691 1.387 . S
C690 H694 0.950 . S
C690 C699 1.390 . S
C691 C690 1.387 . S
C691 C693 1.387 . S
H692 C699 0.950 . S
C693 C691 1.387 . S
C693 C695 1.390 . S
C693 H697 0.950 . S
H694 C690 0.950 . S
C695 C693 1.390 . S
C695 C696 1.387 . S
C695 H698 0.950 . S
C696 C695 1.387 . S
C696 C699 1.387 . S
H697 C693 0.950 . S
H698 C695 0.950 . S
C699 C690 1.390 . S
C699 H692 0.950 . S
C699 C696 1.387 . S
C700 C701 1.387 . S
C700 H704 0.950 . S
C700 C709 1.390 . S
C701 C700 1.387 . S
C701 C703 1.387 . S
H702 C709 0.950 . S
C703 C701 1.387 . S
C703 C705 1.390 . S
C703 H707 0.950 . S
H704 C700 0.950 . S
C705 C703 1.390 . S
C705 C706 1.387 . S
C705 H708 0.950 . S
C706 C705 1.387 . S
C706 C709 1.387 . S
H707 C703 0.950 . S
H708 C705 0.950 . S
C709 C700 1.390 . S
C709 H702 0.950 . S
C709 C706 1.387 . S
C710 C711 1.387 . S
C710 H714 0.950 . S
C710 C719 1.390 . S
C711 C710 1.387 . S
C711 C713 1.387 . S
H712 C719 0.950 . S
C713 C711 1.387 . S
C713 C715 1.390 . S
C713 H717 0.950 . S
H714 C710 0.950 . S
C715 C713 1.390 . S
C715 C716 1.387 . S
C715 H718 0.950 . S
C716 C715 1.387 . S
C716 C719 1.387 . S
H717 C713 0.950 . S
H718 C715 0.950 . S
C719 C710 1.390 . S
C719 H712 0.950 . S
C719 C716 1.387 . S
C720 C721 1.387 . S
C720 H724 0.950 . S
C720 C729 1.390 . S
C721 C720 1.387 . S
C721 C723 1.387 . S
H722 C729 0.950 . S
C723 C721 1.387 . S
C723 C725 1.390 . S
C723 H727 0.950 . S
H724 C720 0.950 . S
C725 C723 1.390 . S
C725 C726 1.387 . S
C725 H728 0.950 . S
C726 C725 1.387 . S
C726 C729 1.387 . S
H727 C723 0.950 . S
H728 C725 0.950 . S
C729 C720 1.390 . S
C729 H722 0.950 . S
C729 C726 1.387 . S
C730 C731 1.387 . S
C730 H734 0.950 . S
C730 C739 1.390 . S
C731 C730 1.387 . S
C731 C733 1.387 . S
H732 C739 0.950 . S
C733 C731 1.387 . S
C733 C735 1.390 . S
C733 H737 0.950 . S
H734 C730 0.950 . S
C735 C733 1.390 . S
C735 C736 1.387 . S
C735 H738 0.950 . S
C736 C735 1.387 . S
C736 C739 1.387 . S
H737 C733 0.950 . S
H738 C735 0.950 . S
C739 C730 1.390 . S
C739 H732 0.950 . S
C739 C736 1.387 . S
C740 C741 1.387 . S
C740 H744 0.950 . S
C740 C749 1.390 . S
C741 C740 1.387 . S
C741 C743 1.387 . S
H742 C749 0.950 . S
C743 C741 1.387 . S
C743 C745 1.390 . S
C743 H747 0.950 . S
H744 C740 0.950 . S
C745 C743 1.390 . S
C745 C746 1.387 . S
C745 H748 0.950 . S
C746 C745 1.387 . S
C746 C749 1.387 . S
H747 C743 0.950 . S
H748 C745 0.950 . S
C749 C740 1.390 . S
C749 H742 0.950 . S
C749 C746 1.387 . S
C750 C751 1.387 . S
C750 H754 0.950 . S
C750 C759 1.390 . S
C751 C750 1.387 . S
C751 C753 1.387 . S
H752 C759 0.950 . S
C753 C751 1.387 . S
C753 C755 1.390 . S
C753 H757 0.960 . S
H754 C750 0.950 . S
C755 C753 1.390 . S
C755 C756 1.387 . S
C755 H758 0.950 . S
C756 C755 1.387 . S
C756 C759 1.387 . S
H757 C753 0.960 . S
H758 C755 0.950 . S
C759 C750 1.390 . S
C759 H752 0.950 . S
C759 C756 1.387 . S
C760 C761 1.387 . S
C760 H764 0.950 . S
C760 C769 1.390 . S
C761 C760 1.387 . S
C761 C763 1.387 . S
H762 C769 0.950 . S
C763 C761 1.387 . S
C763 C765 1.390 . S
C763 H767 0.950 . S
H764 C760 0.950 . S
C765 C763 1.390 . S
C765 C766 1.387 . S
C765 H768 0.950 . S
C766 C765 1.387 . S
C766 C769 1.387 . S
H767 C763 0.950 . S
H768 C765 0.950 . S
C769 C760 1.390 . S
C769 H762 0.950 . S
C769 C766 1.387 . S
C770 C771 1.387 . S
C770 H774 0.950 . S
C770 C779 1.390 . S
C771 C770 1.387 . S
C771 C773 1.387 . S
H772 C779 0.950 . S
C773 C771 1.387 . S
C773 C775 1.390 . S
C773 H777 0.950 . S
H774 C770 0.950 . S
C775 C773 1.390 . S
C775 C776 1.387 . S
C775 H778 0.950 . S
C776 C775 1.387 . S
C776 C779 1.387 . S
H777 C773 0.950 . S
H778 C775 0.950 . S
C779 C770 1.390 . S
C779 H772 0.950 . S
C779 C776 1.387 . S
C780 C781 1.387 . S
C780 H784 0.950 . S
C780 C789 1.390 . S
C781 C780 1.387 . S
C781 C783 1.387 . S
H782 C789 0.950 . S
C783 C781 1.387 . S
C783 C785 1.390 . S
C783 H787 0.950 . S
H784 C780 0.950 . S
C785 C783 1.390 . S
C785 C786 1.387 . S
C785 H788 0.950 . S
C786 C785 1.387 . S
C786 C789 1.387 . S
H787 C783 0.950 . S
H788 C785 0.950 . S
C789 C780 1.390 . S
C789 H782 0.950 . S
C789 C786 1.387 . S
C790 C791 1.387 . S
C790 H794 0.950 . S
C790 C799 1.390 . S
C791 C790 1.387 . S
C791 C793 1.387 . S
H792 C799 0.950 . S
C793 C791 1.387 . S
C793 C795 1.390 . S
C793 H797 0.950 . S
H794 C790 0.950 . S
C795 C793 1.390 . S
C795 C796 1.387 . S
C795 H798 0.950 . S
C796 C795 1.387 . S
C796 C799 1.387 . S
H797 C793 0.950 . S
H798 C795 0.950 . S
C799 C790 1.390 . S
C799 H792 0.950 . S
C799 C796 1.387 . S
C800 C801 1.387 . S
C800 H804 0.950 . S
C800 C809 1.390 . S
C801 C800 1.387 . S
C801 C803 1.387 . S
H802 C809 0.950 . S
C803 C801 1.387 . S
C803 C805 1.390 . S
C803 H807 0.950 . S
H804 C800 0.950 . S
C805 C803 1.390 . S
C805 C806 1.387 . S
C805 H808 0.950 . S
C806 C805 1.387 . S
C806 C809 1.387 . S
H807 C803 0.950 . S
H808 C805 0.950 . S
C809 C800 1.390 . S
C809 H802 0.950 . S
C809 C806 1.387 . S
C810 C811 1.387 . S
C810 H814 0.950 . S
C810 C819 1.390 . S
C811 C810 1.387 . S
C811 C813 1.387 . S
H812 C819 0.950 . S
C813 C811 1.387 . S
C813 C815 1.390 . S
C813 H817 0.950 . S
H814 C810 0.950 . S
C815 C813 1.390 . S
C815 C816 1.387 . S
C815 H818 0.950 . S
C816 C815 1.387 . S
C816 C819 1.387 . S
H817 C813 0.950 . S
H818 C815 0.950 . S
C819 C810 1.390 . S
C819 H812 0.950 . S
C819 C816 1.387 . S
C820 C821 1.387 . S
C820 H824 0.950 1_565 S
C820 C829 1.390 . S
C821 C820 1.387 . S
C821 C823 1.387 . S
H822 C829 0.950 . S
C823 C821 1.387 . S
C823 C825 1.390 . S
C823 H827 0.950 . S
H824 C820 0.950 1_545 S
C825 C823 1.390 . S
C825 C826 1.387 . S
C825 H828 0.950 . S
C826 C825 1.387 . S
C826 C829 1.387 . S
H827 C823 0.950 . S
H828 C825 0.950 . S
C829 C820 1.390 . S
C829 H822 0.950 . S
C829 C826 1.387 . S
C830 C831 1.387 . S
C830 H834 0.950 . S
C830 C839 1.390 . S
C831 C830 1.387 . S
C831 C833 1.387 . S
H832 C839 0.950 . S
C833 C831 1.387 . S
C833 C835 1.390 . S
C833 H837 0.950 . S
H834 C830 0.950 . S
C835 C833 1.390 . S
C835 C836 1.387 . S
C835 H838 0.950 . S
C836 C835 1.387 . S
C836 C839 1.387 . S
H837 C833 0.950 . S
H838 C835 0.950 . S
C839 C830 1.390 . S
C839 H832 0.950 . S
C839 C836 1.387 . S
C840 C841 1.387 . S
C840 H844 0.950 . S
C840 C849 1.390 . S
C841 C840 1.387 . S
C841 C843 1.387 . S
H842 C849 0.950 . S
C843 C841 1.387 . S
C843 C845 1.390 . S
C843 H847 0.950 . S
H844 C840 0.950 . S
C845 C843 1.390 . S
C845 C846 1.387 . S
C845 H848 0.950 . S
C846 C845 1.387 . S
C846 C849 1.387 . S
H847 C843 0.950 . S
H848 C845 0.950 . S
C849 C840 1.390 . S
C849 H842 0.950 . S
C849 C846 1.387 . S
C850 C851 1.387 . S
C850 H854 0.950 . S
C850 C859 1.390 . S
C851 C850 1.387 . S
C851 C853 1.387 . S
H852 C859 0.950 . S
C853 C851 1.387 . S
C853 C855 1.390 . S
C853 H857 0.950 . S
H854 C850 0.950 . S
C855 C853 1.390 . S
C855 C856 1.387 . S
C855 H858 0.950 . S
C856 C855 1.387 . S
C856 C859 1.387 . S
H857 C853 0.950 . S
H858 C855 0.950 . S
C859 C850 1.390 . S
C859 H852 0.950 . S
C859 C856 1.387 . S
C860 C861 1.387 . S
C860 H864 0.950 . S
C860 C869 1.390 . S
C861 C860 1.387 . S
C861 C863 1.387 . S
H862 C869 0.950 . S
C863 C861 1.387 . S
C863 C865 1.390 . S
C863 H867 0.950 . S
H864 C860 0.950 . S
C865 C863 1.390 . S
C865 C866 1.387 . S
C865 H868 0.950 . S
C866 C865 1.387 . S
C866 C869 1.387 . S
H867 C863 0.950 . S
H868 C865 0.950 . S
C869 C860 1.390 . S
C869 H862 0.950 . S
C869 C866 1.387 . S
C870 C871 1.387 . S
C870 H874 0.950 . S
C870 C879 1.390 . S
C871 C870 1.387 . S
C871 C873 1.387 . S
H872 C879 0.950 . S
C873 C871 1.387 . S
C873 C875 1.390 . S
C873 H877 0.950 . S
H874 C870 0.950 . S
C875 C873 1.390 . S
C875 C876 1.387 . S
C875 H878 0.950 . S
C876 C875 1.387 . S
C876 C879 1.387 . S
H877 C873 0.950 . S
H878 C875 0.950 . S
C879 C870 1.390 . S
C879 H872 0.950 . S
C879 C876 1.387 . S
C880 C881 1.387 . S
C880 H884 0.950 . S
C880 C889 1.390 1_554 S
C881 C880 1.387 . S
C881 C883 1.387 . S
H882 C889 0.950 . S
C883 C881 1.387 . S
C883 C885 1.390 1_554 S
C883 H887 0.950 . S
H884 C880 0.950 . S
C885 C883 1.390 1_556 S
C885 C886 1.387 . S
C885 H888 0.950 . S
C886 C885 1.387 . S
C886 C889 1.387 . S
H887 C883 0.950 . S
H888 C885 0.950 . S
C889 C880 1.390 1_556 S
C889 H882 0.950 . S
C889 C886 1.387 . S
C890 C891 1.387 . S
C890 H894 0.950 . S
C890 C899 1.390 . S
C891 C890 1.387 . S
C891 C893 1.387 . S
H892 C899 0.950 . S
C893 C891 1.387 . S
C893 C895 1.390 . S
C893 H897 0.950 . S
H894 C890 0.950 . S
C895 C893 1.390 . S
C895 C896 1.387 . S
C895 H898 0.950 . S
C896 C895 1.387 . S
C896 C899 1.387 . S
H897 C893 0.950 . S
H898 C895 0.950 . S
C899 C890 1.390 . S
C899 H892 0.950 . S
C899 C896 1.387 . S
C666 C627 1.442 . S
C661 C51 1.409 . S
C671 C125 1.514 . S
C676 C447 1.508 . S
C681 C217 2.485 . S
C686 C494 2.529 . S
C691 C291 1.567 . S
C696 C530 1.569 . S
C706 C555 1.063 . S
C701 C347 1.045 . S
C711 C421 1.042 . S
C716 C591 1.051 . S
C721 C143 2.252 . S
C726 C483 2.252 . S
C731 C199 1.510 . S
C736 C519 1.525 . S
C741 C273 0.739 . S
C746 C566 0.737 . S
C756 C602 1.709 . S
C751 C365 1.651 . S
C766 C638 1.877 . S
C761 C439 1.881 . S
C776 C458 2.483 . S
C771 C69 2.388 . S
C781 C63 1.514 . S
C786 C482 1.679 . S
C791 C137 1.585 . S
C796 C518 1.693 . S
C806 C556 1.541 . S
C801 C187 1.441 . S
C811 C261 1.524 . S
C816 C592 1.588 1_556 S
C826 C628 1.739 . S
C821 C359 1.521 . S
C836 C448 1.370 . S
C831 C433 1.249 . S
C846 C626 1.667 . S
C841 C113 1.668 . S
C851 C211 1.390 . S
C856 C446 1.519 . S
C866 C484 1.720 . S
C861 C285 1.580 . S
C871 C335 1.472 . S
C876 C520 1.615 . S
C881 C409 1.442 . S
C886 C554 1.515 . S
C891 C39 1.658 . S
C896 C590 1.714 . S
