# Generated by pormake.
# Topology pts, (4,4)-cn, num edge types: 1
# Building blocks:
#     Node 0, Type 0, BuildingBlock: AZAVOO_clean_linker_0, # of connection points: 4
#     Node 1, Type 0, BuildingBlock: AZAVOO_clean_linker_0, # of connection points: 4
#     Node 2, Type 1, BuildingBlock: AZAVOO_clean_sbu_0, # of connection points: 4
#     Node 3, Type 1, BuildingBlock: AZAVOO_clean_sbu_0, # of connection points: 4
#     Edge 4, Type (0, 1), BuildingBlock: EZIPEK_clean_linker_0, # of connection points: 2
#     Edge 5, Type (0, 1), BuildingBlock: EZIPEK_clean_linker_0, # of connection points: 2
#     Edge 6, Type (0, 1), BuildingBlock: EZIPEK_clean_linker_0, # of connection points: 2
#     Edge 7, Type (0, 1), BuildingBlock: EZIPEK_clean_linker_0, # of connection points: 2
#     Edge 8, Type (0, 1), BuildingBlock: EZIPEK_clean_linker_0, # of connection points: 2
#     Edge 9, Type (0, 1), BuildingBlock: EZIPEK_clean_linker_0, # of connection points: 2
#     Edge 10, Type (0, 1), BuildingBlock: EZIPEK_clean_linker_0, # of connection points: 2
#     Edge 11, Type (0, 1), BuildingBlock: EZIPEK_clean_linker_0, # of connection points: 2
# Relax obj value: 0.135
# Max RMSD: 0.230
# Mean RMSD: 0.159
data_MOF--net-pts--node1-AZAVOO_clean_sbu_0--node2-AZAVOO_clean_linker_0--edge1-EZIPEK_clean_linker_0
_symmetry_space_group_name_H-M    P1
_symmetry_Int_Tables_number       1
_symmetry_cell_setting            triclinic
loop_
_symmetry_equiv_pos_as_xyz
'x, y, z'
_cell_length_a     20.401182
_cell_length_b     21.042168
_cell_length_c     36.19069
_cell_angle_alpha  92.131175
_cell_angle_beta   99.751326
_cell_angle_gamma 89.855966
loop_
_atom_site_label
_atom_site_type_symbol
_atom_site_fract_x
_atom_site_fract_y
_atom_site_fract_z
_atom_type_partial_charge
H0 H 0.47972 0.12222 0.74975 0.0
H1 H 0.0227 0.07945 0.07808 0.0
H2 H 0.43873 0.19512 0.94207 0.0
H3 H 0.34175 0.16619 0.89505 0.0
H4 H 0.33657 0.98153 0.94247 0.0
H5 H 0.43796 0.00852 0.98735 0.0
H6 H 0.54868 0.20487 0.90773 0.0
H7 H 0.51942 0.18935 0.83953 0.0
H8 H 0.50905 0.98628 0.85228 0.0
H9 H 0.53758 0.00264 0.92045 0.0
H10 H 0.68016 0.21701 0.93953 0.0
H11 H 0.7498 0.20868 0.89012 0.0
H12 H 0.76348 0.00587 0.90305 0.0
H13 H 0.69349 0.01412 0.95195 0.0
H14 H 0.73266 0.22591 0.02623 0.0
H15 H 0.85359 0.23156 0.04569 0.0
H16 H 0.86031 0.02677 0.05222 0.0
H17 H 0.73968 0.02185 0.03202 0.0
H18 H 0.63464 0.21167 0.0919 0.0
H19 H 0.71195 0.20496 0.15178 0.0
H20 H 0.72463 0.00195 0.13325 0.0
H21 H 0.64562 0.00845 0.07465 0.0
H22 H 0.44921 0.20314 0.03604 0.0
H23 H 0.36428 0.19761 0.07675 0.0
H24 H 0.43226 0.01011 0.10868 0.0
H25 H 0.51631 0.01517 0.06762 0.0
O26 O 0.49076 0.12738 0.77678 0.0
O27 O 0.48356 0.02357 0.78499 0.0
O28 O 0.96911 0.18356 0.06508 0.0
O29 O 0.97493 0.07862 0.07021 0.0
C30 C 0.51772 0.11182 0.9845 0.0
C31 C 0.56514 0.11397 0.96018 0.0
C32 C 0.63326 0.1191 0.97494 0.0
C33 C 0.65499 0.12016 0.01387 0.0
C34 C 0.60834 0.11573 0.0385 0.0
C35 C 0.5393 0.11259 0.02388 0.0
C36 C 0.44648 0.10343 0.96751 0.0
C37 C 0.41578 0.14896 0.94299 0.0
C38 C 0.36055 0.13237 0.9161 0.0
C39 C 0.33327 0.07093 0.91448 0.0
C40 C 0.35785 0.02869 0.94274 0.0
C41 C 0.41513 0.04437 0.96865 0.0
C42 C 0.54457 0.10492 0.91892 0.0
C43 C 0.53957 0.15716 0.89569 0.0
C44 C 0.52299 0.14811 0.85678 0.0
C45 C 0.51162 0.08656 0.84046 0.0
C46 C 0.51714 0.03432 0.86394 0.0
C47 C 0.53326 0.04349 0.90285 0.0
C48 C 0.68218 0.11612 0.94912 0.0
C49 C 0.69921 0.17106 0.93205 0.0
C50 C 0.73854 0.16634 0.90402 0.0
C51 C 0.76123 0.10666 0.89316 0.0
C52 C 0.74627 0.05218 0.91129 0.0
C53 C 0.70677 0.05687 0.9391 0.0
C54 C 0.7275 0.12362 0.0284 0.0
C55 C 0.76039 0.18245 0.03219 0.0
C56 C 0.82943 0.18546 0.04307 0.0
C57 C 0.86665 0.12955 0.0505 0.0
C58 C 0.83323 0.0707 0.04679 0.0
C59 C 0.7643 0.06777 0.03557 0.0
C60 C 0.63432 0.11048 0.07906 0.0
C61 C 0.6515 0.16548 0.10176 0.0
C62 C 0.69605 0.1617 0.13563 0.0
C63 C 0.72528 0.10315 0.14637 0.0
C64 C 0.70321 0.04763 0.12529 0.0
C65 C 0.65767 0.05124 0.09204 0.0
C66 C 0.48965 0.10996 0.04937 0.0
C67 C 0.44591 0.16098 0.05193 0.0
C68 C 0.39754 0.15782 0.07498 0.0
C69 C 0.39243 0.10357 0.09573 0.0
C70 C 0.43581 0.05242 0.09296 0.0
C71 C 0.48401 0.05553 0.06987 0.0
C72 C 0.49444 0.07701 0.79912 0.0
C73 C 0.93994 0.13246 0.06229 0.0
H74 H 0.10273 0.40225 0.25619 0.0
H75 H 0.09788 0.95892 0.5334 0.0
H76 H 0.0152 0.38267 0.4786 0.0
H77 H 0.01443 0.27969 0.44417 0.0
H78 H 0.21889 0.309 0.43235 0.0
H79 H 0.22079 0.4099 0.46855 0.0
H80 H 0.02072 0.46282 0.4006 0.0
H81 H 0.03531 0.43388 0.33635 0.0
H82 H 0.24106 0.49358 0.36298 0.0
H83 H 0.22498 0.52471 0.42671 0.0
H84 H 0.00032 0.58959 0.40467 0.0
H85 H 0.9923 0.66098 0.35188 0.0
H86 H 0.17996 0.74686 0.40164 0.0
H87 H 0.1898 0.67294 0.45322 0.0
H88 H 0.97895 0.66832 0.48038 0.0
H89 H 0.9615 0.7833 0.48521 0.0
H90 H 0.16682 0.80841 0.53806 0.0
H91 H 0.18395 0.69366 0.53206 0.0
H92 H 0.98221 0.56839 0.55846 0.0
H93 H 0.96364 0.63788 0.61154 0.0
H94 H 0.17272 0.68433 0.63473 0.0
H95 H 0.1919 0.61119 0.58328 0.0
H96 H 0.99554 0.452 0.54736 0.0
H97 H 0.99088 0.36606 0.59094 0.0
H98 H 0.2038 0.34527 0.60394 0.0
H99 H 0.20854 0.43188 0.56052 0.0
O100 O 0.09782 0.41515 0.28152 0.0
O101 O 0.20232 0.44962 0.29596 0.0
O102 O 0.99859 0.89797 0.50313 0.0
O103 O 0.10339 0.91332 0.53109 0.0
C104 C 0.1124 0.47283 0.48519 0.0
C105 C 0.11196 0.51665 0.45648 0.0
C106 C 0.10136 0.58162 0.46371 0.0
C107 C 0.09423 0.6038 0.49999 0.0
C108 C 0.09616 0.56041 0.52912 0.0
C109 C 0.10399 0.49469 0.52154 0.0
C110 C 0.11786 0.40404 0.47565 0.0
C111 C 0.06075 0.36543 0.4702 0.0
C112 C 0.06012 0.30708 0.45033 0.0
C113 C 0.11601 0.28797 0.43486 0.0
C114 C 0.17504 0.32351 0.44364 0.0
C115 C 0.17618 0.38086 0.46434 0.0
C116 C 0.122 0.49508 0.41831 0.0
C117 C 0.06896 0.46924 0.39251 0.0
C118 C 0.07746 0.45282 0.35586 0.0
C119 C 0.13958 0.46059 0.34467 0.0
C120 C 0.19268 0.48653 0.37074 0.0
C121 C 0.18376 0.50406 0.40717 0.0
C122 C 0.09568 0.62624 0.43263 0.0
C123 C 0.03996 0.62341 0.40393 0.0
C124 C 0.03526 0.66405 0.37403 0.0
C125 C 0.08528 0.70927 0.37319 0.0
C126 C 0.14081 0.71232 0.40203 0.0
C127 C 0.14625 0.67064 0.43143 0.0
C128 C 0.08229 0.67261 0.50662 0.0
C129 C 0.01983 0.69874 0.49336 0.0
C130 C 0.01017 0.76442 0.49591 0.0
C131 C 0.0628 0.80508 0.51208 0.0
C132 C 0.1252 0.77851 0.52559 0.0
C133 C 0.13494 0.71289 0.52262 0.0
C134 C 0.08835 0.58506 0.56698 0.0
C135 C 0.02457 0.59052 0.57634 0.0
C136 C 0.01399 0.63028 0.60653 0.0
C137 C 0.06668 0.66696 0.62658 0.0
C138 C 0.1315 0.65649 0.61957 0.0
C139 C 0.14237 0.61502 0.59018 0.0
C140 C 0.10244 0.44847 0.55118 0.0
C141 C 0.04137 0.43025 0.56047 0.0
C142 C 0.03869 0.38133 0.58518 0.0
C143 C 0.09706 0.35 0.60074 0.0
C144 C 0.15847 0.36961 0.59246 0.0
C145 C 0.16113 0.41863 0.56773 0.0
C146 C 0.14871 0.44162 0.30596 0.0
C147 C 0.05274 0.87485 0.51506 0.0
Mg148 Mg 0.12903 0.0217 0.25393 0.0
O149 O 0.01615 0.0449 0.2378 0.0
O150 O 0.9632 0.03832 0.28741 0.0
Mg151 Mg 0.0331 -0.00256 0.3387 0.0
C152 C 0.96349 0.05013 0.25285 0.0
C153 C 0.22244 0.05751 0.20332 0.0
O154 O 0.25859 0.03594 0.23379 0.0
O155 O 0.15022 0.11805 0.28692 0.0
O156 O 0.11351 0.04272 0.3162 0.0
O157 O 0.11031 0.91781 0.24226 0.0
O158 O 0.10078 0.96491 0.29694 0.0
C159 C 0.13134 0.10017 0.3165 0.0
C160 C 0.09906 0.91351 0.27624 0.0
O161 O 0.15969 0.06067 0.20136 0.0
Mg162 Mg 0.00628 0.01692 0.72323 0.0
O163 O 0.09467 0.01755 0.77072 0.0
O164 O 0.18606 -0.0011 0.74597 0.0
Mg165 Mg 0.15307 0.97184 0.68344 0.0
C166 C 0.15753 0.01267 0.77401 0.0
C167 C 0.89892 0.04101 0.7715 0.0
O168 O 0.8797 0.98609 0.75481 0.0
O169 O 0.04032 0.10947 0.70108 0.0
O170 O 0.12303 0.07525 0.67175 0.0
O171 O 0.98882 0.91338 0.73064 0.0
O172 O 0.05086 0.95091 0.69178 0.0
C173 C 0.08404 0.11887 0.68039 0.0
C174 C 0.02699 0.90278 0.70595 0.0
O175 O 0.94885 0.06933 0.76305 0.0
C176 C 0.35371 0.13189 0.15658 0.0
C177 C 0.34212 0.09996 0.12085 0.0
C178 C 0.24485 0.04599 0.13696 0.0
C179 C 0.25621 0.07838 0.17262 0.0
N180 N 0.30917 0.16438 0.21233 0.0
N181 N 0.26856 0.03937 0.0734 0.0
C182 C 0.30683 0.12532 0.18109 0.0
C183 C 0.28484 0.0612 0.10985 0.0
N184 N 0.41099 0.16607 0.1678 0.0
N185 N 0.19882 -0.00193 0.12975 0.0
H186 H 0.2971 0.04948 0.05296 0.0
H187 H 0.22394 0.01628 0.06267 0.0
H188 H 0.1683 0.98553 0.14869 0.0
H189 H 0.19395 0.96772 0.10606 0.0
H190 H 0.4259 0.1841 0.19511 0.0
H191 H 0.44633 0.17262 0.15055 0.0
H192 H 0.34086 0.20351 0.21824 0.0
H193 H 0.27458 0.1615 0.23041 0.0
C194 C 0.10604 0.29415 0.6617 0.0
C195 C 0.09273 0.29165 0.62189 0.0
C196 C 0.06401 0.17882 0.62154 0.0
C197 C 0.08383 0.17958 0.66108 0.0
N198 N 0.12997 0.23532 0.71895 0.0
N199 N 0.06909 0.23036 0.5634 0.0
C200 C 0.10626 0.23665 0.68132 0.0
C201 C 0.07448 0.23361 0.60164 0.0
N202 N 0.11725 0.35158 0.68063 0.0
N203 N 0.03289 0.12633 0.60312 0.0
H204 H 0.07564 0.26957 0.54758 0.0
H205 H 0.06366 0.18779 0.54755 0.0
H206 H 0.02324 0.08541 0.61674 0.0
H207 H 0.01088 0.12542 0.57495 0.0
H208 H 0.1205 0.35759 0.70956 0.0
H209 H 0.11864 0.39429 0.66702 0.0
H210 H 0.15367 0.27369 0.73465 0.0
H211 H 0.13002 0.19414 0.73414 0.0
C212 C 0.77882 0.06187 0.20831 0.0
C213 C 0.78351 0.09934 0.17725 0.0
C214 C 0.90169 0.1179 0.20202 0.0
C215 C 0.90004 0.07026 0.22882 0.0
N216 N 0.83509 0.98871 0.25234 0.0
N217 N 0.85282 0.15625 0.14154 0.0
C218 C 0.83793 0.0405 0.231 0.0
C219 C 0.84575 0.12596 0.17338 0.0
N220 N 0.71769 0.04646 0.21606 0.0
N221 N 0.95576 0.15693 0.20425 0.0
H222 H 0.81384 0.16272 0.11945 0.0
H223 H 0.89886 0.17003 0.13565 0.0
H224 H 0.99737 0.15452 0.22514 0.0
H225 H 0.9562 0.19646 0.18777 0.0
H226 H 0.71118 0.02446 0.24052 0.0
H227 H 0.67352 0.06181 0.19998 0.0
H228 H 0.79202 0.96175 0.25139 0.0
H229 H 0.87647 0.96791 0.26783 0.0
C230 C 0.01775 0.77585 0.62949 0.0
C231 C 0.05236 0.7248 0.64866 0.0
C232 C 0.06977 0.79013 0.70721 0.0
C233 C 0.03157 0.83906 0.68818 0.0
N234 N 0.95417 0.87184 0.63432 0.0
N235 N 0.10194 0.67878 0.70674 0.0
C236 C 0.00075 0.82969 0.65031 0.0
C237 C 0.07557 0.73052 0.68793 0.0
N238 N 0.00438 0.77482 0.59116 0.0
N239 N 0.10223 0.80145 0.74307 0.0
H240 H 0.10656 0.63466 0.6933 0.0
H241 H 0.11421 0.67812 0.73584 0.0
H242 H 0.0978 0.84422 0.75797 0.0
H243 H 0.13664 0.77027 0.75715 0.0
H244 H 0.98561 0.8138 0.57591 0.0
H245 H 0.01823 0.73766 0.57435 0.0
H246 H 0.92501 0.86367 0.60802 0.0
H247 H 0.93956 0.91175 0.64883 0.0
C248 C 0.29888 -0.00016 0.85646 0.0
C249 C 0.28369 0.05001 0.88108 0.0
C250 C 0.18707 0.07788 0.83468 0.0
C251 C 0.19884 0.02412 0.81168 0.0
N252 N 0.25458 0.92336 0.80717 0.0
N253 N 0.2029 0.1249 0.89765 0.0
C254 C 0.25123 0.98176 0.82456 0.0
C255 C 0.2242 0.08506 0.8715 0.0
N256 N 0.35991 0.97152 0.86205 0.0
N257 N 0.14385 0.12437 0.82082 0.0
H258 H 0.22831 0.13012 0.92516 0.0
H259 H 0.15669 0.14718 0.89311 0.0
H260 H 0.11888 0.1239 0.7932 0.0
H261 H 0.13859 0.16709 0.83553 0.0
H262 H 0.37524 0.93978 0.84243 0.0
H263 H 0.39768 0.9841 0.88418 0.0
H264 H 0.28855 0.8887 0.81773 0.0
H265 H 0.21874 0.90684 0.78485 0.0
C266 C 0.14927 0.1794 0.41406 0.0
C267 C 0.11157 0.23532 0.40601 0.0
C268 C 0.07648 0.19585 0.34105 0.0
C269 C 0.12201 0.14505 0.34765 0.0
N270 N 0.20592 0.08986 0.3897 0.0
N271 N 0.04297 0.29992 0.3609 0.0
C272 C 0.15908 0.13672 0.38409 0.0
C273 C 0.07566 0.2442 0.36932 0.0
N274 N 0.17468 0.1668 0.45046 0.0
N275 N 0.03224 0.1966 0.30824 0.0
H276 H 0.03891 0.33601 0.38079 0.0
H277 H 0.02355 0.31222 0.33362 0.0
H278 H 0.03092 0.161 0.28744 0.0
H279 H 0.99285 0.22846 0.30327 0.0
H280 H 0.19709 0.1239 0.45867 0.0
H281 H 0.16774 0.19712 0.47295 0.0
H282 H 0.23967 0.08591 0.41453 0.0
H283 H 0.21471 0.05753 0.36856 0.0
C284 C 0.76143 0.0918 0.82431 0.0
C285 C 0.7976 0.09978 0.86128 0.0
C286 C 0.90145 0.0731 0.83918 0.0
C287 C 0.86556 0.06669 0.80196 0.0
N288 N 0.76526 0.08366 0.75771 0.0
N289 N 0.90213 0.11194 0.90323 0.0
C290 C 0.79661 0.08027 0.7941 0.0
C291 C 0.86781 0.09517 0.86843 0.0
N292 N 0.69341 0.0929 0.81831 0.0
N293 N 0.96644 0.05434 0.84702 0.0
H294 H 0.87865 0.12736 0.92541 0.0
H295 H 0.95373 0.11595 0.90924 0.0
H296 H 0.99298 0.0368 0.82666 0.0
H297 H 0.9928 0.05117 0.87415 0.0
H298 H 0.66402 0.07978 0.79277 0.0
H299 H 0.66587 0.1031 0.83958 0.0
H300 H 0.71662 0.0995 0.75011 0.0
H301 H 0.78991 0.07623 0.73491 0.0
C302 C 0.03116 0.80208 0.33837 0.0
C303 C 0.08034 0.75391 0.34219 0.0
C304 C 0.13607 0.80382 0.29592 0.0
C305 C 0.08657 0.85182 0.29209 0.0
N306 N 0.9758 0.88272 0.29858 0.0
N307 N 0.16638 0.69771 0.31642 0.0
C308 C 0.03031 0.84623 0.30974 0.0
C309 C 0.12837 0.75098 0.3181 0.0
N310 N 0.98792 0.80828 0.36327 0.0
N311 N 0.19245 0.81044 0.28069 0.0
H312 H 0.16119 0.65792 0.33209 0.0
H313 H 0.19794 0.69058 0.29684 0.0
H314 H 0.20056 0.84821 0.26421 0.0
H315 H 0.23342 0.78061 0.28661 0.0
H316 H 0.95591 0.84685 0.36382 0.0
H317 H 0.98786 0.77809 0.38546 0.0
H318 H 0.93099 0.87745 0.30836 0.0
H319 H 0.97383 0.91285 0.27619 0.0
loop_
_geom_bond_atom_site_label_1
_geom_bond_atom_site_label_2
_geom_bond_distance
_geom_bond_site_symmetry_2
_ccdc_geom_bond_type
H0 O26 0.856 . S
H1 O29 0.854 1_455 S
H2 C37 0.930 . S
H3 C38 0.930 . S
H4 C40 0.930 1_565 S
H5 C41 0.930 1_565 S
H6 C43 0.931 . S
H7 C44 0.930 . S
H8 C46 0.930 . S
H9 C47 0.929 . S
H10 C49 0.930 . S
H11 C50 0.931 . S
H12 C52 0.930 . S
H13 C53 0.929 . S
H14 C55 0.931 . S
H15 C56 0.930 . S
H16 C58 0.930 . S
H17 C59 0.932 1_556 S
H18 C61 0.930 . S
H19 C62 0.929 . S
H20 C64 0.931 1_565 S
H21 C65 0.930 1_565 S
H22 C67 0.929 . S
H23 C68 0.931 . S
H24 C70 0.930 . S
H25 C71 0.929 . S
O26 H0 0.856 . S
O26 C72 1.300 . S
O27 C72 1.209 1_565 S
O28 C73 1.199 . S
O29 H1 0.854 1_655 S
O29 C73 1.297 1_565 S
C30 C31 1.404 . S
C30 C35 1.397 1_556 S
C30 C36 1.492 . S
C31 C30 1.404 . S
C31 C32 1.396 . S
C31 C42 1.492 . S
C32 C31 1.396 . S
C32 C33 1.397 . S
C32 C48 1.509 . S
C33 C32 1.397 . S
C33 C34 1.412 1_556 S
C33 C54 1.485 1_556 S
C34 C33 1.412 1_554 S
C34 C35 1.388 . S
C34 C60 1.490 . S
C35 C30 1.397 1_554 S
C35 C34 1.388 . S
C35 C66 1.519 . S
C36 C30 1.492 . S
C36 C37 1.363 . S
C36 C41 1.390 . S
C37 H2 0.930 . S
C37 C36 1.363 . S
C37 C38 1.372 . S
C38 H3 0.930 . S
C38 C37 1.372 . S
C38 C39 1.383 . S
C39 C38 1.383 . S
C39 C40 1.395 . S
C40 H4 0.930 1_545 S
C40 C39 1.395 . S
C40 C41 1.362 . S
C41 H5 0.930 1_545 S
C41 C36 1.390 . S
C41 C40 1.362 . S
C42 C31 1.492 . S
C42 C43 1.377 . S
C42 C47 1.397 1_545 S
C43 H6 0.931 . S
C43 C42 1.377 . S
C43 C44 1.376 . S
C44 H7 0.930 . S
C44 C43 1.376 . S
C44 C45 1.376 . S
C45 C44 1.376 . S
C45 C46 1.378 1_545 S
C45 C72 1.486 . S
C46 H8 0.930 . S
C46 C45 1.378 1_565 S
C46 C47 1.376 . S
C47 H9 0.929 . S
C47 C42 1.397 1_565 S
C47 C46 1.376 . S
C48 C32 1.509 . S
C48 C49 1.391 . S
C48 C53 1.386 1_545 S
C49 H10 0.930 . S
C49 C48 1.391 . S
C49 C50 1.375 . S
C50 H11 0.931 . S
C50 C49 1.375 . S
C50 C51 1.375 . S
C51 C50 1.375 . S
C51 C52 1.361 1_545 S
C52 H12 0.930 . S
C52 C51 1.361 1_565 S
C52 C53 1.399 . S
C53 H13 0.929 . S
C53 C48 1.386 1_565 S
C53 C52 1.399 . S
C54 C33 1.485 1_554 S
C54 C55 1.394 . S
C54 C59 1.360 1_545 S
C55 H14 0.931 . S
C55 C54 1.394 . S
C55 C56 1.372 . S
C56 H15 0.930 . S
C56 C55 1.372 . S
C56 C57 1.397 . S
C57 C56 1.397 . S
C57 C58 1.390 1_545 S
C57 C73 1.476 . S
C58 H16 0.930 . S
C58 C57 1.390 1_565 S
C58 C59 1.366 . S
C59 H17 0.932 1_554 S
C59 C54 1.360 1_565 S
C59 C58 1.366 . S
C60 C34 1.490 . S
C60 C61 1.380 . S
C60 C65 1.386 . S
C61 H18 0.930 . S
C61 C60 1.380 . S
C61 C62 1.381 . S
C62 H19 0.929 . S
C62 C61 1.381 . S
C62 C63 1.371 . S
C63 C62 1.371 . S
C63 C64 1.380 . S
C64 H20 0.931 1_545 S
C64 C63 1.380 . S
C64 C65 1.387 . S
C65 H21 0.930 1_545 S
C65 C60 1.386 . S
C65 C64 1.387 . S
C66 C35 1.519 . S
C66 C67 1.377 . S
C66 C71 1.361 1_545 S
C67 H22 0.929 . S
C67 C66 1.377 . S
C67 C68 1.386 . S
C68 H23 0.931 . S
C68 C67 1.386 . S
C68 C69 1.363 . S
C69 C68 1.363 . S
C69 C70 1.385 1_545 S
C70 H24 0.930 . S
C70 C69 1.385 1_565 S
C70 C71 1.396 . S
C71 H25 0.929 . S
C71 C66 1.361 1_565 S
C71 C70 1.396 . S
C72 O26 1.300 . S
C72 O27 1.209 1_545 S
C72 C45 1.486 . S
C73 O28 1.199 . S
C73 O29 1.297 1_545 S
C73 C57 1.476 . S
H74 O100 0.856 . S
H75 O103 0.859 . S
H76 C111 0.930 1_655 S
H77 C112 0.930 1_655 S
H78 C114 0.930 . S
H79 C115 0.930 . S
H80 C117 0.931 . S
H81 C118 0.930 . S
H82 C120 0.930 . S
H83 C121 0.929 . S
H84 C123 0.930 . S
H85 C124 0.931 . S
H86 C126 0.930 . S
H87 C127 0.929 . S
H88 C129 0.931 . S
H89 C130 0.930 . S
H90 C132 0.930 . S
H91 C133 0.932 . S
H92 C135 0.930 1_655 S
H93 C136 0.929 1_655 S
H94 C138 0.931 . S
H95 C139 0.930 . S
H96 C141 0.929 1_655 S
H97 C142 0.931 . S
H98 C144 0.930 . S
H99 C145 0.929 . S
O100 H74 0.856 . S
O100 C146 1.300 . S
O101 C146 1.209 . S
O102 C147 1.199 . S
O103 H75 0.859 . S
O103 C147 1.297 . S
C104 C105 1.404 . S
C104 C109 1.397 . S
C104 C110 1.492 . S
C105 C104 1.404 . S
C105 C106 1.396 . S
C105 C116 1.492 . S
C106 C105 1.396 . S
C106 C107 1.397 . S
C106 C122 1.509 . S
C107 C106 1.397 . S
C107 C108 1.412 . S
C107 C128 1.485 . S
C108 C107 1.412 . S
C108 C109 1.388 . S
C108 C134 1.490 . S
C109 C104 1.397 . S
C109 C108 1.388 . S
C109 C140 1.519 . S
C110 C104 1.492 . S
C110 C111 1.363 . S
C110 C115 1.390 . S
C111 H76 0.930 1_455 S
C111 C110 1.363 . S
C111 C112 1.372 . S
C112 H77 0.930 1_455 S
C112 C111 1.372 . S
C112 C113 1.383 . S
C113 C112 1.383 . S
C113 C114 1.395 . S
C114 H78 0.930 . S
C114 C113 1.395 . S
C114 C115 1.362 . S
C115 H79 0.930 . S
C115 C110 1.390 . S
C115 C114 1.362 . S
C116 C105 1.492 . S
C116 C117 1.377 . S
C116 C121 1.397 . S
C117 H80 0.931 . S
C117 C116 1.377 . S
C117 C118 1.376 . S
C118 H81 0.930 . S
C118 C117 1.376 . S
C118 C119 1.376 . S
C119 C118 1.376 . S
C119 C120 1.378 . S
C119 C146 1.486 . S
C120 H82 0.930 . S
C120 C119 1.378 . S
C120 C121 1.376 . S
C121 H83 0.929 . S
C121 C116 1.397 . S
C121 C120 1.376 . S
C122 C106 1.509 . S
C122 C123 1.391 . S
C122 C127 1.386 . S
C123 H84 0.930 . S
C123 C122 1.391 . S
C123 C124 1.375 . S
C124 H85 0.931 . S
C124 C123 1.375 . S
C124 C125 1.375 . S
C125 C124 1.375 . S
C125 C126 1.361 . S
C126 H86 0.930 . S
C126 C125 1.361 . S
C126 C127 1.399 . S
C127 H87 0.929 . S
C127 C122 1.386 . S
C127 C126 1.399 . S
C128 C107 1.485 . S
C128 C129 1.394 . S
C128 C133 1.360 . S
C129 H88 0.931 . S
C129 C128 1.394 . S
C129 C130 1.372 . S
C130 H89 0.930 . S
C130 C129 1.372 . S
C130 C131 1.397 . S
C131 C130 1.397 . S
C131 C132 1.390 . S
C131 C147 1.476 . S
C132 H90 0.930 . S
C132 C131 1.390 . S
C132 C133 1.366 . S
C133 H91 0.932 . S
C133 C128 1.360 . S
C133 C132 1.366 . S
C134 C108 1.490 . S
C134 C135 1.380 . S
C134 C139 1.386 . S
C135 H92 0.930 1_455 S
C135 C134 1.380 . S
C135 C136 1.381 . S
C136 H93 0.929 1_455 S
C136 C135 1.381 . S
C136 C137 1.371 . S
C137 C136 1.371 . S
C137 C138 1.380 . S
C138 H94 0.931 . S
C138 C137 1.380 . S
C138 C139 1.387 . S
C139 H95 0.930 . S
C139 C134 1.386 . S
C139 C138 1.387 . S
C140 C109 1.519 . S
C140 C141 1.377 . S
C140 C145 1.361 . S
C141 H96 0.929 1_455 S
C141 C140 1.377 . S
C141 C142 1.386 . S
C142 H97 0.931 . S
C142 C141 1.386 . S
C142 C143 1.363 . S
C143 C142 1.363 . S
C143 C144 1.385 . S
C144 H98 0.930 . S
C144 C143 1.385 . S
C144 C145 1.396 . S
C145 H99 0.929 . S
C145 C140 1.361 . S
C145 C144 1.396 . S
C146 O100 1.300 . S
C146 O101 1.209 . S
C146 C119 1.486 . S
C147 O102 1.199 . S
C147 O103 1.297 . S
C147 C131 1.476 . S
Mg148 O149 2.028 . S
Mg148 O155 1.986 . S
Mg148 O157 2.114 1_545 S
Mg148 O158 2.251 . S
Mg148 O161 2.010 . S
O149 Mg148 2.028 . S
O149 C152 1.250 1_455 S
O150 Mg151 2.028 . S
O150 C152 1.248 . S
Mg151 O150 2.028 . S
Mg151 O156 2.032 1_655 S
Mg151 O158 2.079 1_655 S
C152 O149 1.250 1_655 S
C152 O150 1.248 . S
C153 O154 1.264 . S
C153 O161 1.249 . S
O154 C153 1.264 . S
O155 Mg148 1.986 . S
O155 C159 1.246 . S
O156 Mg151 2.032 1_455 S
O156 C159 1.259 . S
O157 Mg148 2.114 1_565 S
O157 C160 1.252 . S
O158 Mg148 2.251 . S
O158 Mg151 2.079 1_455 S
O158 C160 1.273 1_545 S
C159 O155 1.246 . S
C159 O156 1.259 . S
C160 O157 1.252 . S
C160 O158 1.273 1_565 S
O161 Mg148 2.010 . S
O161 C153 1.249 . S
Mg162 O163 2.028 . S
Mg162 O169 1.986 . S
Mg162 O171 2.114 1_545 S
Mg162 O172 2.251 1_545 S
Mg162 O175 2.010 1_455 S
O163 Mg162 2.028 . S
O163 C166 1.250 . S
O164 Mg165 2.028 . S
O164 C166 1.248 . S
Mg165 O164 2.028 . S
Mg165 O170 2.032 . S
Mg165 O172 2.079 1_545 S
C166 O163 1.250 . S
C166 O164 1.248 . S
C167 O168 1.264 . S
C167 O175 1.249 . S
O168 C167 1.264 . S
O169 Mg162 1.986 . S
O169 C173 1.246 . S
O170 Mg165 2.032 . S
O170 C173 1.259 . S
O171 Mg162 2.114 1_565 S
O171 C174 1.252 . S
O172 Mg162 2.251 1_565 S
O172 Mg165 2.079 1_565 S
O172 C174 1.273 . S
C173 O169 1.246 . S
C173 O170 1.259 . S
C174 O171 1.252 . S
C174 O172 1.273 . S
O175 Mg162 2.010 1_655 S
O175 C167 1.249 . S
C176 C177 1.363 . S
C176 C182 1.379 . S
C176 N184 1.356 . S
C177 C176 1.363 . S
C177 C183 1.363 . S
C178 C179 1.363 . S
C178 C183 1.379 . S
C178 N185 1.356 1_545 S
C179 C178 1.363 . S
C179 C182 1.363 . S
N180 C182 1.356 . S
N180 H192 0.984 . S
N180 H193 0.985 . S
N181 C183 1.356 1_565 S
N181 H186 0.984 . S
N181 H187 0.985 . S
C182 C176 1.379 . S
C182 C179 1.363 . S
C182 N180 1.356 . S
C183 C177 1.363 . S
C183 C178 1.379 . S
C183 N181 1.356 1_545 S
N184 C176 1.356 . S
N184 H190 0.984 . S
N184 H191 0.984 . S
N185 C178 1.356 1_565 S
N185 H188 0.984 . S
N185 H189 0.985 . S
H186 N181 0.984 . S
H187 N181 0.985 . S
H188 N185 0.984 . S
H189 N185 0.985 . S
H190 N184 0.984 . S
H191 N184 0.984 . S
H192 N180 0.984 . S
H193 N180 0.985 . S
C194 C195 1.363 . S
C194 C200 1.379 . S
C194 N202 1.356 . S
C195 C194 1.363 . S
C195 C201 1.363 . S
C196 C197 1.363 . S
C196 C201 1.379 . S
C196 N203 1.356 1_455 S
C197 C196 1.363 . S
C197 C200 1.363 . S
N198 C200 1.356 . S
N198 H210 0.984 . S
N198 H211 0.985 . S
N199 C201 1.357 1_655 S
N199 H204 0.985 1_655 S
N199 H205 0.984 . S
C200 C194 1.379 . S
C200 C197 1.363 . S
C200 N198 1.356 . S
C201 C195 1.363 . S
C201 C196 1.379 . S
C201 N199 1.357 1_455 S
N202 C194 1.356 . S
N202 H208 0.984 . S
N202 H209 0.984 . S
N203 C196 1.356 1_655 S
N203 H206 0.984 . S
N203 H207 0.985 . S
H204 N199 0.985 1_455 S
H205 N199 0.984 . S
H206 N203 0.984 . S
H207 N203 0.985 . S
H208 N202 0.984 . S
H209 N202 0.984 . S
H210 N198 0.984 . S
H211 N198 0.985 . S
C212 C213 1.363 . S
C212 C218 1.379 . S
C212 N220 1.356 1_545 S
C213 C212 1.363 . S
C213 C219 1.363 . S
C214 C215 1.363 . S
C214 C219 1.379 . S
C214 N221 1.356 . S
C215 C214 1.363 . S
C215 C218 1.363 . S
N216 C218 1.356 1_565 S
N216 H228 0.984 . S
N216 H229 0.985 . S
N217 C219 1.356 . S
N217 H222 0.984 . S
N217 H223 0.985 . S
C218 C212 1.379 . S
C218 C215 1.363 . S
C218 N216 1.356 1_545 S
C219 C213 1.363 . S
C219 C214 1.379 . S
C219 N217 1.356 . S
N220 C212 1.356 1_565 S
N220 H226 0.984 . S
N220 H227 0.984 1_565 S
N221 C214 1.356 . S
N221 H224 0.984 . S
N221 H225 0.985 . S
H222 N217 0.984 . S
H223 N217 0.985 . S
H224 N221 0.984 . S
H225 N221 0.985 . S
H226 N220 0.984 . S
H227 N220 0.984 1_545 S
H228 N216 0.984 . S
H229 N216 0.985 . S
C230 C231 1.363 . S
C230 C236 1.379 . S
C230 N238 1.356 . S
C231 C230 1.363 . S
C231 C237 1.363 . S
C232 C233 1.363 . S
C232 C237 1.379 . S
C232 N239 1.356 . S
C233 C232 1.363 . S
C233 C236 1.363 . S
N234 C236 1.356 . S
N234 H246 0.984 . S
N234 H247 0.985 . S
N235 C237 1.356 . S
N235 H240 0.984 . S
N235 H241 0.985 . S
C236 C230 1.379 . S
C236 C233 1.363 . S
C236 N234 1.356 . S
C237 C231 1.363 . S
C237 C232 1.379 . S
C237 N235 1.356 . S
N238 C230 1.356 . S
N238 H244 0.984 . S
N238 H245 0.984 . S
N239 C232 1.356 . S
N239 H242 0.984 . S
N239 H243 0.985 . S
H240 N235 0.984 . S
H241 N235 0.985 . S
H242 N239 0.984 . S
H243 N239 0.985 . S
H244 N238 0.984 . S
H245 N238 0.984 . S
H246 N234 0.984 . S
H247 N234 0.985 . S
C248 C249 1.363 . S
C248 C254 1.379 . S
C248 N256 1.356 1_545 S
C249 C248 1.363 . S
C249 C255 1.363 . S
C250 C251 1.363 . S
C250 C255 1.379 . S
C250 N257 1.356 . S
C251 C250 1.363 . S
C251 C254 1.363 . S
N252 C254 1.356 1_565 S
N252 H264 0.984 . S
N252 H265 0.985 . S
N253 C255 1.356 . S
N253 H258 0.984 . S
N253 H259 0.985 . S
C254 C248 1.379 . S
C254 C251 1.363 . S
C254 N252 1.356 1_545 S
C255 C249 1.363 . S
C255 C250 1.379 . S
C255 N253 1.356 . S
N256 C248 1.356 1_565 S
N256 H262 0.984 . S
N256 H263 0.984 1_565 S
N257 C250 1.356 . S
N257 H260 0.984 . S
N257 H261 0.985 . S
H258 N253 0.984 . S
H259 N253 0.985 . S
H260 N257 0.984 . S
H261 N257 0.985 . S
H262 N256 0.984 . S
H263 N256 0.984 1_545 S
H264 N252 0.984 . S
H265 N252 0.985 . S
C266 C267 1.363 . S
C266 C272 1.379 . S
C266 N274 1.356 . S
C267 C266 1.363 . S
C267 C273 1.363 . S
C268 C269 1.363 . S
C268 C273 1.379 . S
C268 N275 1.356 . S
C269 C268 1.363 . S
C269 C272 1.363 . S
N270 C272 1.356 . S
N270 H282 0.984 . S
N270 H283 0.985 . S
N271 C273 1.356 . S
N271 H276 0.984 . S
N271 H277 0.985 1_455 S
C272 C266 1.379 . S
C272 C269 1.363 . S
C272 N270 1.356 . S
C273 C267 1.363 . S
C273 C268 1.379 . S
C273 N271 1.356 . S
N274 C266 1.356 . S
N274 H280 0.984 . S
N274 H281 0.984 . S
N275 C268 1.356 . S
N275 H278 0.984 . S
N275 H279 0.985 . S
H276 N271 0.984 . S
H277 N271 0.985 1_655 S
H278 N275 0.984 . S
H279 N275 0.985 . S
H280 N274 0.984 . S
H281 N274 0.984 . S
H282 N270 0.984 . S
H283 N270 0.985 . S
C284 C285 1.363 . S
C284 C290 1.379 . S
C284 N292 1.356 . S
C285 C284 1.363 . S
C285 C291 1.363 1_545 S
C286 C287 1.363 . S
C286 C291 1.379 1_545 S
C286 N293 1.356 1_545 S
C287 C286 1.363 . S
C287 C290 1.363 . S
N288 C290 1.356 . S
N288 H300 0.984 . S
N288 H301 0.985 . S
N289 C291 1.356 . S
N289 H294 0.984 . S
N289 H295 0.985 . S
C290 C284 1.379 . S
C290 C287 1.363 . S
C290 N288 1.356 . S
C291 C285 1.363 1_565 S
C291 C286 1.379 1_565 S
C291 N289 1.356 . S
N292 C284 1.356 . S
N292 H298 0.984 . S
N292 H299 0.984 . S
N293 C286 1.356 1_565 S
N293 H296 0.984 1_665 S
N293 H297 0.985 1_655 S
H294 N289 0.984 . S
H295 N289 0.985 . S
H296 N293 0.984 1_445 S
H297 N293 0.985 1_455 S
H298 N292 0.984 . S
H299 N292 0.984 . S
H300 N288 0.984 . S
H301 N288 0.985 . S
C302 C303 1.363 . S
C302 C308 1.379 . S
C302 N310 1.356 . S
C303 C302 1.363 . S
C303 C309 1.363 . S
C304 C305 1.363 . S
C304 C309 1.379 . S
C304 N311 1.356 . S
C305 C304 1.363 . S
C305 C308 1.363 . S
N306 C308 1.356 . S
N306 H318 0.984 . S
N306 H319 0.985 1_565 S
N307 C309 1.356 . S
N307 H312 0.984 . S
N307 H313 0.985 . S
C308 C302 1.379 . S
C308 C305 1.363 . S
C308 N306 1.356 . S
C309 C303 1.363 . S
C309 C304 1.379 . S
C309 N307 1.356 . S
N310 C302 1.356 . S
N310 H316 0.984 . S
N310 H317 0.984 . S
N311 C304 1.356 . S
N311 H314 0.984 . S
N311 H315 0.985 . S
H312 N307 0.984 . S
H313 N307 0.985 . S
H314 N311 0.984 . S
H315 N311 0.985 . S
H316 N310 0.984 . S
H317 N310 0.984 . S
H318 N306 0.984 . S
H319 N306 0.985 1_545 S
C179 C153 1.769 . S
C177 C69 2.038 . S
C197 C173 2.027 . S
C195 C143 2.072 . S
C215 C152 1.667 . S
C213 C63 1.583 . S
C233 C174 1.752 . S
C231 C137 1.566 . S
C251 C166 1.643 . S
C249 C39 1.469 . S
C269 C159 1.458 . S
C267 C113 1.429 . S
C287 C167 0.868 . S
C285 C51 0.957 . S
C303 C125 1.002 . S
C305 C160 1.012 . S
