# Generated by pormake.
# Topology ssa, (4,4)-cn, num edge types: 1
# Building blocks:
#     Node 0, Type 0, BuildingBlock: NAWXER_clean_sbu_0, # of connection points: 4
#     Node 1, Type 0, BuildingBlock: NAWXER_clean_sbu_0, # of connection points: 4
#     Node 2, Type 0, BuildingBlock: NAWXER_clean_sbu_0, # of connection points: 4
#     Node 3, Type 0, BuildingBlock: NAWXER_clean_sbu_0, # of connection points: 4
#     Node 4, Type 0, BuildingBlock: NAWXER_clean_sbu_0, # of connection points: 4
#     Node 5, Type 0, BuildingBlock: NAWXER_clean_sbu_0, # of connection points: 4
#     Node 6, Type 1, BuildingBlock: MUDLON_clean_linker_0, # of connection points: 4
#     Node 7, Type 1, BuildingBlock: MUDLON_clean_linker_0, # of connection points: 4
#     Node 8, Type 1, BuildingBlock: MUDLON_clean_linker_0, # of connection points: 4
#     Node 9, Type 1, BuildingBlock: MUDLON_clean_linker_0, # of connection points: 4
#     Node 10, Type 1, BuildingBlock: MUDLON_clean_linker_0, # of connection points: 4
#     Node 11, Type 1, BuildingBlock: MUDLON_clean_linker_0, # of connection points: 4
#     Edge 12, Type (0, 1), BuildingBlock: TEMPAE_clean_linker_10, # of connection points: 2
#     Edge 13, Type (0, 1), BuildingBlock: TEMPAE_clean_linker_10, # of connection points: 2
#     Edge 14, Type (0, 1), BuildingBlock: TEMPAE_clean_linker_10, # of connection points: 2
#     Edge 15, Type (0, 1), BuildingBlock: TEMPAE_clean_linker_10, # of connection points: 2
#     Edge 16, Type (0, 1), BuildingBlock: TEMPAE_clean_linker_10, # of connection points: 2
#     Edge 17, Type (0, 1), BuildingBlock: TEMPAE_clean_linker_10, # of connection points: 2
#     Edge 18, Type (0, 1), BuildingBlock: TEMPAE_clean_linker_10, # of connection points: 2
#     Edge 19, Type (0, 1), BuildingBlock: TEMPAE_clean_linker_10, # of connection points: 2
#     Edge 20, Type (0, 1), BuildingBlock: TEMPAE_clean_linker_10, # of connection points: 2
#     Edge 21, Type (0, 1), BuildingBlock: TEMPAE_clean_linker_10, # of connection points: 2
#     Edge 22, Type (0, 1), BuildingBlock: TEMPAE_clean_linker_10, # of connection points: 2
#     Edge 23, Type (0, 1), BuildingBlock: TEMPAE_clean_linker_10, # of connection points: 2
#     Edge 24, Type (0, 1), BuildingBlock: TEMPAE_clean_linker_10, # of connection points: 2
#     Edge 25, Type (0, 1), BuildingBlock: TEMPAE_clean_linker_10, # of connection points: 2
#     Edge 26, Type (0, 1), BuildingBlock: TEMPAE_clean_linker_10, # of connection points: 2
#     Edge 27, Type (0, 1), BuildingBlock: TEMPAE_clean_linker_10, # of connection points: 2
#     Edge 28, Type (0, 1), BuildingBlock: TEMPAE_clean_linker_10, # of connection points: 2
#     Edge 29, Type (0, 1), BuildingBlock: TEMPAE_clean_linker_10, # of connection points: 2
#     Edge 30, Type (0, 1), BuildingBlock: TEMPAE_clean_linker_10, # of connection points: 2
#     Edge 31, Type (0, 1), BuildingBlock: TEMPAE_clean_linker_10, # of connection points: 2
#     Edge 32, Type (0, 1), BuildingBlock: TEMPAE_clean_linker_10, # of connection points: 2
#     Edge 33, Type (0, 1), BuildingBlock: TEMPAE_clean_linker_10, # of connection points: 2
#     Edge 34, Type (0, 1), BuildingBlock: TEMPAE_clean_linker_10, # of connection points: 2
#     Edge 35, Type (0, 1), BuildingBlock: TEMPAE_clean_linker_10, # of connection points: 2
# Relax obj value: 0.010
# Max RMSD: 0.048
# Mean RMSD: 0.034
data_MOF--net-ssa--node1-NAWXER_clean_sbu_0--node2-MUDLON_clean_linker_0--edge1-TEMPAE_clean_linker_10
_symmetry_space_group_name_H-M    P1
_symmetry_Int_Tables_number       1
_symmetry_cell_setting            triclinic
loop_
_symmetry_equiv_pos_as_xyz
'x, y, z'
_cell_length_a     69.186822
_cell_length_b     69.264411
_cell_length_c     38.014536
_cell_angle_alpha  90.011146
_cell_angle_beta   89.883116
_cell_angle_gamma 120.05569
loop_
_atom_site_label
_atom_site_type_symbol
_atom_site_fract_x
_atom_site_fract_y
_atom_site_fract_z
_atom_type_partial_charge
C0 C 0.03479 0.53663 0.09138 0.0
C1 C 0.98811 0.46334 0.03817 0.0
O2 O 0.01741 0.52034 0.10486 0.0
Zn3 Zn 0.01167 0.49906 0.06725 0.0
O4 O 0.04221 0.534 0.06192 0.0
Zn5 Zn 0.03395 0.50886 0.02307 0.0
O6 O 0.02969 0.52322 0.98264 0.0
O7 O 0.00421 0.51443 0.02419 0.0
O8 O 0.00514 0.47644 0.01953 0.0
O9 O 0.98545 0.46929 0.0686 0.0
O10 O 0.03847 0.4925 0.07282 0.0
O11 O 0.05889 0.50338 0.02456 0.0
C12 C 0.01218 0.5229 0.99391 0.0
C13 C 0.05527 0.49479 0.05511 0.0
C14 C 0.5108 0.02621 0.55913 0.0
C15 C 0.53643 0.97952 0.50286 0.0
O16 O 0.50959 0.00861 0.57181 0.0
Zn17 Zn 0.52436 0.00306 0.53317 0.0
O18 O 0.52023 0.03362 0.52918 0.0
Zn19 Zn 0.53614 0.02493 0.48846 0.0
O20 O 0.5165 0.02006 0.44894 0.0
O21 O 0.5004 0.99586 0.49234 0.0
O22 O 0.54001 0.99647 0.48445 0.0
O23 O 0.52819 0.977 0.53356 0.0
O24 O 0.55738 0.03059 0.53794 0.0
O25 O 0.56669 0.04998 0.4886 0.0
C26 C 0.49928 0.00339 0.46207 0.0
C27 C 0.57163 0.04721 0.51968 0.0
C28 C 0.52297 0.47803 0.9627 0.0
C29 C 0.55407 0.55189 0.01637 0.0
O30 O 0.52432 0.49529 0.94841 0.0
Zn31 Zn 0.53913 0.5155 0.98731 0.0
O32 O 0.53119 0.47939 0.9934 0.0
Zn33 Zn 0.54806 0.5038 0.03352 0.0
O34 O 0.52695 0.49076 0.07205 0.0
O35 O 0.51406 0.50136 0.02741 0.0
O36 O 0.55574 0.53756 0.03546 0.0
O37 O 0.5455 0.54632 0.98586 0.0
O38 O 0.57129 0.51849 0.98566 0.0
O39 O 0.57742 0.50653 0.03605 0.0
C40 C 0.51123 0.49256 0.05802 0.0
C41 C 0.58394 0.51467 0.00549 0.0
C42 C 0.05904 0.54437 0.48625 0.0
C43 C 0.01838 0.47204 0.54512 0.0
O44 O 0.06735 0.54372 0.51603 0.0
Zn45 Zn 0.06171 0.52026 0.557 0.0
O46 O 0.04236 0.52683 0.47404 0.0
Zn47 Zn 0.03896 0.50754 0.51338 0.0
O48 O 0.02994 0.52244 0.555 0.0
O49 O 0.05594 0.53465 0.59617 0.0
O50 O 0.0148 0.47666 0.5143 0.0
O51 O 0.03505 0.48674 0.56275 0.0
O52 O 0.08851 0.51752 0.55568 0.0
O53 O 0.068 0.50489 0.50775 0.0
C54 C 0.03754 0.53213 0.58463 0.0
C55 C 0.08555 0.50915 0.52504 0.0
C56 C 0.53 0.96905 0.01757 0.0
C57 C 0.50435 0.01297 0.95225 0.0
O58 O 0.5338 0.98705 0.03308 0.0
Zn59 Zn 0.52895 0.01475 0.0249 0.0
O60 O 0.52056 0.96433 0.98762 0.0
Zn61 Zn 0.5171 0.99046 0.98329 0.0
O62 O 0.55071 0.01728 0.97762 0.0
O63 O 0.55925 0.03984 0.02319 0.0
O64 O 0.50251 0.99453 0.94256 0.0
O65 O 0.51377 0.02165 0.98161 0.0
O66 O 0.50893 0.01156 0.06331 0.0
O67 O 0.49337 0.98491 0.02354 0.0
C68 C 0.56483 0.03492 0.99408 0.0
C69 C 0.49196 0.99384 0.05223 0.0
C70 C 0.57827 0.51538 0.52964 0.0
C71 C 0.50678 0.48264 0.46837 0.0
O72 O 0.56321 0.51699 0.54686 0.0
Zn73 Zn 0.52959 0.50941 0.53989 0.0
O74 O 0.57399 0.50699 0.49896 0.0
Zn75 Zn 0.54296 0.49969 0.49694 0.0
O76 O 0.54486 0.53104 0.49056 0.0
O77 O 0.53155 0.53854 0.53814 0.0
O78 O 0.52466 0.48394 0.45672 0.0
O79 O 0.50676 0.49137 0.4981 0.0
O80 O 0.51466 0.48923 0.57865 0.0
O81 O 0.52675 0.47517 0.53768 0.0
C82 C 0.53999 0.54401 0.50752 0.0
C83 C 0.51653 0.47302 0.56689 0.0
H84 H 0.34757 0.45669 0.2751 0.0
N85 N 0.31397 0.41467 0.25833 0.0
H86 H 0.3777 0.46567 0.31589 0.0
H87 H 0.31478 0.38788 0.30791 0.0
H88 H 0.34453 0.39701 0.35084 0.0
H89 H 0.32769 0.38923 0.22763 0.0
H90 H 0.35791 0.40142 0.18481 0.0
H91 H 0.32928 0.45195 0.21694 0.0
H92 H 0.35927 0.46417 0.17352 0.0
H93 H 0.31016 0.44669 0.2974 0.0
H94 H 0.27662 0.39397 0.22111 0.0
H95 H 0.27819 0.45184 0.29972 0.0
H96 H 0.24472 0.39993 0.22208 0.0
H97 H 0.19294 0.47726 0.29265 0.0
H98 H 0.18417 0.49057 0.34615 0.0
H99 H 0.15512 0.42439 0.39094 0.0
H100 H 0.16277 0.41095 0.33606 0.0
H101 H 0.13845 0.4103 0.25368 0.0
H102 H 0.12099 0.42019 0.20644 0.0
H103 H 0.18421 0.4795 0.1849 0.0
H104 H 0.20139 0.46965 0.23234 0.0
H105 H 0.22342 0.46794 0.27878 0.0
H106 H 0.2567 0.46467 0.27077 0.0
H107 H 0.21477 0.39324 0.25899 0.0
N108 N 0.18001 0.43377 0.27706 0.0
H109 H 0.18167 0.397 0.26511 0.0
C110 C 0.32886 0.42146 0.28821 0.0
C111 C 0.3465 0.44358 0.29186 0.0
C112 C 0.36375 0.44875 0.31554 0.0
C113 C 0.36375 0.43202 0.33651 0.0
C114 C 0.34532 0.41022 0.33458 0.0
C115 C 0.32812 0.40501 0.3105 0.0
C116 C 0.32636 0.41966 0.22576 0.0
C117 C 0.33394 0.40526 0.21487 0.0
C118 C 0.35127 0.41231 0.19046 0.0
C119 C 0.3613 0.43396 0.17631 0.0
C120 C 0.35219 0.44758 0.18457 0.0
C121 C 0.33484 0.4405 0.20907 0.0
C122 C 0.29598 0.41967 0.25901 0.0
C123 C 0.29619 0.43635 0.28061 0.0
C124 C 0.27774 0.43948 0.2818 0.0
C125 C 0.25872 0.42626 0.26124 0.0
C126 C 0.25884 0.41013 0.23888 0.0
C127 C 0.27715 0.40681 0.23804 0.0
C128 C 0.17796 0.4429 0.31004 0.0
C129 C 0.18475 0.4656 0.31394 0.0
C130 C 0.17995 0.47328 0.34493 0.0
C131 C 0.16865 0.45853 0.37293 0.0
C132 C 0.16332 0.43614 0.3697 0.0
C133 C 0.16781 0.42843 0.33849 0.0
C134 C 0.17114 0.43913 0.24665 0.0
C135 C 0.14857 0.42524 0.23836 0.0
C136 C 0.13868 0.43088 0.21127 0.0
C137 C 0.15123 0.45066 0.19191 0.0
C138 C 0.17406 0.46426 0.19954 0.0
C139 C 0.18395 0.45856 0.22661 0.0
C140 C 0.20005 0.43265 0.27215 0.0
C141 C 0.22142 0.45165 0.27392 0.0
C142 C 0.24047 0.44969 0.26971 0.0
C143 C 0.23852 0.42867 0.26415 0.0
C144 C 0.21702 0.40976 0.26245 0.0
C145 C 0.19805 0.4118 0.26624 0.0
H146 H 0.73045 0.11635 0.78991 0.0
N147 N 0.74517 0.15614 0.76081 0.0
H148 H 0.70445 0.09993 0.83937 0.0
H149 H 0.72887 0.17742 0.80219 0.0
H150 H 0.70326 0.16133 0.85164 0.0
H151 H 0.71276 0.16614 0.74314 0.0
H152 H 0.68958 0.15369 0.6908 0.0
H153 H 0.751 0.13704 0.70435 0.0
H154 H 0.72884 0.12577 0.65038 0.0
H155 H 0.78497 0.16023 0.76919 0.0
H156 H 0.75211 0.19866 0.75704 0.0
H157 H 0.82094 0.19445 0.77377 0.0
H158 H 0.78764 0.23307 0.76485 0.0
H159 H 0.92833 0.30405 0.82391 0.0
H160 H 0.93966 0.32572 0.8783 0.0
H161 H 0.88315 0.33607 0.86931 0.0
H162 H 0.87117 0.31291 0.81654 0.0
H163 H 0.89083 0.33243 0.76491 0.0
H164 H 0.90827 0.35693 0.71521 0.0
H165 H 0.93301 0.31417 0.67849 0.0
H166 H 0.91652 0.29032 0.73022 0.0
H167 H 0.88001 0.25658 0.81372 0.0
H168 H 0.84326 0.2233 0.8103 0.0
H169 H 0.82157 0.25811 0.74055 0.0
N170 N 0.89407 0.29564 0.7827 0.0
H171 H 0.85768 0.29175 0.74676 0.0
C172 C 0.73164 0.14803 0.79218 0.0
C173 C 0.7248 0.12633 0.80366 0.0
C174 C 0.71005 0.11705 0.832 0.0
C175 C 0.70177 0.12934 0.84939 0.0
C176 C 0.70919 0.15138 0.83857 0.0
C177 C 0.72399 0.16065 0.81029 0.0
C178 C 0.73328 0.15196 0.72806 0.0
C179 C 0.71645 0.1574 0.72307 0.0
C180 C 0.70332 0.15047 0.6927 0.0
C181 C 0.70706 0.1384 0.66631 0.0
C182 C 0.72502 0.13447 0.67043 0.0
C183 C 0.73785 0.14105 0.7011 0.0
C184 C 0.76591 0.17687 0.76352 0.0
C185 C 0.78557 0.17615 0.76814 0.0
C186 C 0.80608 0.1958 0.77115 0.0
C187 C 0.80737 0.21675 0.77036 0.0
C188 C 0.7875 0.21738 0.76535 0.0
C189 C 0.76702 0.19765 0.76146 0.0
C190 C 0.89926 0.30728 0.81588 0.0
C191 C 0.9183 0.3108 0.83408 0.0
C192 C 0.92481 0.32336 0.865 0.0
C193 C 0.91261 0.33311 0.87805 0.0
C194 C 0.89293 0.32876 0.8604 0.0
C195 C 0.88618 0.31575 0.82986 0.0
C196 C 0.90281 0.30969 0.7519 0.0
C197 C 0.90013 0.32831 0.74653 0.0
C198 C 0.90987 0.34221 0.71748 0.0
C199 C 0.92216 0.33765 0.69262 0.0
C200 C 0.92405 0.3185 0.69735 0.0
C201 C 0.91454 0.30475 0.72676 0.0
C202 C 0.87186 0.27655 0.78014 0.0
C203 C 0.86721 0.257 0.79793 0.0
C204 C 0.8462 0.23789 0.79555 0.0
C205 C 0.82935 0.23768 0.77454 0.0
C206 C 0.83392 0.25753 0.75723 0.0
C207 C 0.85482 0.27685 0.7604 0.0
H208 H 0.55182 0.85385 0.28483 0.0
N209 N 0.59323 0.86093 0.26617 0.0
H210 H 0.54289 0.86871 0.33617 0.0
H211 H 0.61974 0.88195 0.32045 0.0
H212 H 0.6106 0.89575 0.37359 0.0
H213 H 0.61581 0.89905 0.23125 0.0
H214 H 0.60388 0.91106 0.17916 0.0
H215 H 0.55455 0.83581 0.22936 0.0
H216 H 0.54248 0.84758 0.177 0.0
H217 H 0.56229 0.82176 0.2982 0.0
H218 H 0.62109 0.85155 0.2326 0.0
H219 H 0.56263 0.78683 0.29873 0.0
H220 H 0.62055 0.81615 0.23038 0.0
H221 H 0.55396 0.68154 0.27902 0.0
H222 H 0.54379 0.65701 0.32983 0.0
H223 H 0.60943 0.6993 0.37393 0.0
H224 H 0.61989 0.7229 0.32151 0.0
H225 H 0.62359 0.7079 0.232 0.0
H226 H 0.61695 0.68571 0.1785 0.0
H227 H 0.55138 0.67838 0.16947 0.0
H228 H 0.55803 0.70027 0.22286 0.0
H229 H 0.55785 0.72087 0.27036 0.0
H230 H 0.55635 0.7553 0.26861 0.0
H231 H 0.62856 0.79324 0.26297 0.0
N232 N 0.5954 0.71731 0.26472 0.0
H233 H 0.6295 0.75855 0.26155 0.0
C234 C 0.58671 0.86731 0.29829 0.0
C235 C 0.5648 0.86302 0.30391 0.0
C236 C 0.55961 0.87129 0.33378 0.0
C237 C 0.57605 0.88365 0.35914 0.0
C238 C 0.59762 0.88678 0.35434 0.0
C239 C 0.60288 0.87878 0.32413 0.0
C240 C 0.58611 0.86668 0.23418 0.0
C241 C 0.5999 0.88769 0.21924 0.0
C242 C 0.59311 0.89442 0.18938 0.0
C243 C 0.57225 0.88022 0.17388 0.0
C244 C 0.55857 0.85892 0.18847 0.0
C245 C 0.56546 0.85216 0.21831 0.0
C246 C 0.59208 0.83954 0.26596 0.0
C247 C 0.57525 0.8208 0.28372 0.0
C248 C 0.57529 0.80062 0.28359 0.0
C249 C 0.59177 0.79853 0.26489 0.0
C250 C 0.608 0.81715 0.24604 0.0
C251 C 0.60825 0.8374 0.24693 0.0
C252 C 0.58797 0.70378 0.29604 0.0
C253 C 0.5662 0.68553 0.29949 0.0
C254 C 0.5603 0.67162 0.32899 0.0
C255 C 0.57585 0.67594 0.35605 0.0
C256 C 0.59718 0.69504 0.35332 0.0
C257 C 0.60317 0.70867 0.32353 0.0
C258 C 0.5914 0.70572 0.23164 0.0
C259 C 0.60792 0.70172 0.21816 0.0
C260 C 0.60414 0.68918 0.18751 0.0
C261 C 0.58362 0.68029 0.16976 0.0
C262 C 0.56729 0.68486 0.18271 0.0
C263 C 0.57113 0.69749 0.2133 0.0
C264 C 0.59382 0.73723 0.26509 0.0
C265 C 0.57327 0.7366 0.26791 0.0
C266 C 0.57251 0.75641 0.26754 0.0
C267 C 0.59233 0.77726 0.26531 0.0
C268 C 0.61286 0.77764 0.26359 0.0
C269 C 0.61352 0.75785 0.26313 0.0
H270 H 0.95076 0.63594 0.80569 0.0
N271 N 0.91287 0.61251 0.77026 0.0
H272 H 0.96565 0.62171 0.85054 0.0
H273 H 0.8882 0.57387 0.80769 0.0
H274 H 0.90275 0.55968 0.85313 0.0
H275 H 0.89674 0.56965 0.74698 0.0
H276 H 0.91729 0.55685 0.71103 0.0
H277 H 0.94854 0.63786 0.7309 0.0
H278 H 0.96965 0.62516 0.69567 0.0
H279 H 0.89364 0.62653 0.81679 0.0
H280 H 0.88059 0.59114 0.718 0.0
H281 H 0.8562 0.62155 0.81552 0.0
H282 H 0.84341 0.5862 0.71709 0.0
H283 H 0.74663 0.61963 0.79872 0.0
H284 H 0.72301 0.60857 0.85116 0.0
H285 H 0.72152 0.54536 0.8517 0.0
H286 H 0.74664 0.55748 0.80132 0.0
H287 H 0.72952 0.55218 0.74639 0.0
H288 H 0.70409 0.53966 0.69708 0.0
H289 H 0.73646 0.60708 0.65644 0.0
H290 H 0.76097 0.61975 0.70787 0.0
H291 H 0.79866 0.63149 0.77886 0.0
H292 H 0.83575 0.63522 0.78039 0.0
H293 H 0.80691 0.56622 0.74934 0.0
N294 N 0.76018 0.59568 0.76289 0.0
H295 H 0.7699 0.56272 0.74769 0.0
C296 C 0.91852 0.606 0.80309 0.0
C297 C 0.93998 0.61956 0.81681 0.0
C298 C 0.94845 0.61136 0.8424 0.0
C299 C 0.93551 0.5894 0.8549 0.0
C300 C 0.9133 0.5765 0.84341 0.0
C301 C 0.90487 0.58468 0.8177 0.0
C302 C 0.92106 0.60486 0.74153 0.0
C303 C 0.91226 0.58194 0.73491 0.0
C304 C 0.9242 0.57462 0.71471 0.0
C305 C 0.94535 0.58996 0.70112 0.0
C306 C 0.95337 0.61289 0.7056 0.0
C307 C 0.94128 0.62022 0.72556 0.0
C308 C 0.89011 0.60846 0.76854 0.0
C309 C 0.88272 0.61738 0.79514 0.0
C310 C 0.86134 0.6147 0.79425 0.0
C311 C 0.84676 0.60327 0.76638 0.0
C312 C 0.85409 0.59463 0.73935 0.0
C313 C 0.87557 0.59741 0.7401 0.0
C314 C 0.748 0.58928 0.79565 0.0
C315 C 0.74146 0.60357 0.81065 0.0
C316 C 0.72775 0.59706 0.84043 0.0
C317 C 0.71981 0.57579 0.85545 0.0
C318 C 0.7273 0.56189 0.84122 0.0
C319 C 0.74148 0.56868 0.81194 0.0
C320 C 0.7469 0.58714 0.73142 0.0
C321 C 0.73124 0.56436 0.72708 0.0
C322 C 0.71679 0.55712 0.69829 0.0
C323 C 0.71794 0.57234 0.67266 0.0
C324 C 0.73462 0.59491 0.676 0.0
C325 C 0.74881 0.60219 0.70519 0.0
C326 C 0.78161 0.59697 0.76305 0.0
C327 C 0.80041 0.61721 0.77237 0.0
C328 C 0.82151 0.61925 0.77342 0.0
C329 C 0.82425 0.60098 0.76507 0.0
C330 C 0.80536 0.58064 0.75559 0.0
C331 C 0.78417 0.57859 0.75475 0.0
H332 H 0.17064 0.70928 0.28175 0.0
N333 N 0.15621 0.7395 0.27577 0.0
H334 H 0.15696 0.67916 0.32393 0.0
H335 H 0.1357 0.73736 0.33608 0.0
H336 H 0.12271 0.7076 0.38006 0.0
H337 H 0.11331 0.7219 0.26046 0.0
H338 H 0.09169 0.69009 0.2217 0.0
H339 H 0.17429 0.72681 0.22203 0.0
H340 H 0.15285 0.6952 0.18327 0.0
H341 H 0.19848 0.74514 0.26952 0.0
H342 H 0.16161 0.78006 0.2737 0.0
H343 H 0.23324 0.7804 0.26386 0.0
H344 H 0.19648 0.81566 0.27003 0.0
H345 H 0.33 0.87459 0.27672 0.0
H346 H 0.3618 0.89316 0.31551 0.0
H347 H 0.33403 0.93151 0.36 0.0
H348 H 0.30263 0.91358 0.31904 0.0
H349 H 0.3148 0.92767 0.23899 0.0
H350 H 0.34449 0.94531 0.19515 0.0
H351 H 0.33981 0.88173 0.17481 0.0
H352 H 0.31031 0.8643 0.21911 0.0
H353 H 0.29251 0.84766 0.29535 0.0
H354 H 0.25831 0.812 0.29602 0.0
H355 H 0.22597 0.83969 0.23331 0.0
N356 N 0.29858 0.887 0.26548 0.0
H357 H 0.26017 0.87595 0.23436 0.0
C358 C 0.15404 0.72563 0.30553 0.0
C359 C 0.1608 0.70957 0.30361 0.0
C360 C 0.15288 0.69218 0.32798 0.0
C361 C 0.13833 0.69062 0.35514 0.0
C362 C 0.13339 0.70791 0.35893 0.0
C363 C 0.14108 0.72516 0.3342 0.0
C364 C 0.14538 0.72667 0.24468 0.0
C365 C 0.12208 0.71676 0.24256 0.0
C366 C 0.10975 0.6985 0.22053 0.0
C367 C 0.12058 0.68984 0.20011 0.0
C368 C 0.14405 0.70124 0.19937 0.0
C369 C 0.15637 0.71955 0.22136 0.0
C370 C 0.17726 0.75991 0.27167 0.0
C371 C 0.19777 0.76035 0.26914 0.0
C372 C 0.21779 0.78068 0.26629 0.0
C373 C 0.21782 0.80104 0.26647 0.0
C374 C 0.19722 0.80042 0.26904 0.0
C375 C 0.17723 0.78009 0.27142 0.0
C376 C 0.31388 0.89282 0.29469 0.0
C377 C 0.3304 0.88662 0.29526 0.0
C378 C 0.34867 0.89727 0.31776 0.0
C379 C 0.35077 0.91417 0.34064 0.0
C380 C 0.33327 0.91899 0.34212 0.0
C381 C 0.3151 0.90849 0.31918 0.0
C382 C 0.31047 0.8948 0.23257 0.0
C383 C 0.31959 0.91741 0.22405 0.0
C384 C 0.33662 0.92746 0.19908 0.0
C385 C 0.34481 0.91499 0.18205 0.0
C386 C 0.33415 0.89185 0.18808 0.0
C387 C 0.31709 0.8818 0.21308 0.0
C388 C 0.27903 0.8649 0.26499 0.0
C389 C 0.27824 0.84634 0.28166 0.0
C390 C 0.25852 0.82564 0.2818 0.0
C391 C 0.23919 0.82283 0.26489 0.0
C392 C 0.24028 0.84123 0.24732 0.0
C393 C 0.2599 0.86198 0.24761 0.0
H394 H 0.39154 0.0881 0.72796 0.0
N395 N 0.4139 0.12667 0.76198 0.0
H396 H 0.40707 0.07327 0.68513 0.0
H397 H 0.45194 0.15208 0.72339 0.0
H398 H 0.46748 0.1375 0.68009 0.0
H399 H 0.4573 0.14468 0.78402 0.0
H400 H 0.47176 0.12562 0.81984 0.0
H401 H 0.39005 0.09139 0.8029 0.0
H402 H 0.40444 0.07185 0.83824 0.0
H403 H 0.39725 0.14359 0.71598 0.0
H404 H 0.43539 0.1602 0.81239 0.0
H405 H 0.4001 0.18016 0.71656 0.0
H406 H 0.43826 0.19644 0.81257 0.0
H407 H 0.40027 0.29483 0.74507 0.0
H408 H 0.41365 0.32496 0.70183 0.0
H409 H 0.46902 0.31509 0.67696 0.0
H410 H 0.45555 0.28501 0.72016 0.0
H411 H 0.46768 0.3052 0.77729 0.0
H412 H 0.48392 0.33664 0.81677 0.0
H413 H 0.41974 0.31239 0.86717 0.0
H414 H 0.40319 0.2812 0.82565 0.0
H415 H 0.38785 0.23649 0.75434 0.0
H416 H 0.38595 0.20024 0.75223 0.0
H417 H 0.45596 0.23212 0.77868 0.0
N418 N 0.42278 0.27591 0.76907 0.0
H419 H 0.45774 0.2681 0.78082 0.0
C420 C 0.42058 0.12104 0.72924 0.0
C421 C 0.40777 0.09919 0.71657 0.0
C422 C 0.41673 0.09074 0.69217 0.0
C423 C 0.4387 0.10409 0.67982 0.0
C424 C 0.45069 0.12667 0.68978 0.0
C425 C 0.44172 0.1351 0.71426 0.0
C426 C 0.42244 0.1195 0.79084 0.0
C427 C 0.44557 0.12918 0.79671 0.0
C428 C 0.45385 0.11809 0.81683 0.0
C429 C 0.43928 0.09698 0.83123 0.0
C430 C 0.41613 0.08811 0.82761 0.0
C431 C 0.40784 0.09932 0.80763 0.0
C432 C 0.41681 0.14898 0.76309 0.0
C433 C 0.40654 0.15512 0.73694 0.0
C434 C 0.408 0.17598 0.73744 0.0
C435 C 0.41963 0.19129 0.76441 0.0
C436 C 0.42965 0.1852 0.79096 0.0
C437 C 0.42806 0.16425 0.79063 0.0
C438 C 0.42695 0.28781 0.73622 0.0
C439 C 0.41474 0.29854 0.72919 0.0
C440 C 0.42248 0.31582 0.70459 0.0
C441 C 0.44264 0.32266 0.6866 0.0
C442 C 0.45364 0.31039 0.69098 0.0
C443 C 0.44581 0.29302 0.71546 0.0
C444 C 0.43399 0.29072 0.79824 0.0
C445 C 0.45709 0.30611 0.79735 0.0
C446 C 0.46647 0.32427 0.82022 0.0
C447 C 0.45312 0.32737 0.84493 0.0
C448 C 0.43044 0.31087 0.84788 0.0
C449 C 0.42099 0.29281 0.82459 0.0
C450 C 0.42276 0.25505 0.768 0.0
C451 C 0.40277 0.23561 0.75966 0.0
C452 C 0.40176 0.21497 0.75828 0.0
C453 C 0.42081 0.21332 0.76535 0.0
C454 C 0.44093 0.23282 0.77354 0.0
C455 C 0.44196 0.25351 0.77469 0.0
C456 C 0.08943 0.49067 0.0533 0.0
C457 C 0.07038 0.48782 0.0711 0.0
C458 C 0.10405 0.4847 0.06924 0.0
C459 C 0.09949 0.47575 0.10375 0.0
C460 C 0.08014 0.47257 0.12157 0.0
C461 C 0.06586 0.4786 0.10506 0.0
C462 C 0.12449 0.48823 0.04941 0.0
C463 C 0.07465 0.46309 0.15841 0.0
C464 C 0.12391 0.44218 0.14276 0.0
C465 C 0.14006 0.45775 0.16571 0.0
C466 C 0.11142 0.44814 0.12083 0.0
C467 C 0.11509 0.47016 0.12202 0.0
C468 C 0.13212 0.48622 0.14385 0.0
C469 C 0.1444 0.47982 0.16541 0.0
C470 C 0.09352 0.43058 0.09774 0.0
C471 C 0.1365 0.50985 0.14602 0.0
H472 H 0.09305 0.49774 0.02705 0.0
H473 H 0.05118 0.47626 0.11907 0.0
H474 H 0.13976 0.50041 0.06364 0.0
H475 H 0.12475 0.47236 0.04796 0.0
H476 H 0.12517 0.49448 0.02227 0.0
H477 H 0.05873 0.46132 0.16838 0.0
H478 H 0.07336 0.44647 0.15904 0.0
H479 H 0.08826 0.47409 0.17664 0.0
H480 H 0.12071 0.42518 0.14248 0.0
H481 H 0.15668 0.4919 0.18332 0.0
H482 H 0.09487 0.43699 0.07057 0.0
H483 H 0.07683 0.42635 0.108 0.0
H484 H 0.0945 0.41506 0.09673 0.0
H485 H 0.13828 0.51698 0.11929 0.0
H486 H 0.1518 0.52086 0.16133 0.0
H487 H 0.1221 0.50989 0.15884 0.0
C488 C 0.59436 0.06516 0.57283 0.0
C489 C 0.59314 0.0633 0.53608 0.0
C490 C 0.61448 0.07951 0.58977 0.0
C491 C 0.63407 0.0921 0.56953 0.0
C492 C 0.63295 0.09064 0.53231 0.0
C493 C 0.61237 0.07636 0.51594 0.0
C494 C 0.61479 0.08083 0.62947 0.0
C495 C 0.65357 0.10356 0.50994 0.0
C496 C 0.68027 0.139 0.62201 0.0
C497 C 0.69105 0.12824 0.6365 0.0
C498 C 0.66257 0.12798 0.59813 0.0
C499 C 0.65571 0.10579 0.58803 0.0
C500 C 0.66768 0.09551 0.60028 0.0
C501 C 0.68501 0.10674 0.62459 0.0
C502 C 0.6502 0.13951 0.58577 0.0
C503 C 0.66111 0.07198 0.58981 0.0
H504 H 0.57947 0.05534 0.58854 0.0
H505 H 0.61147 0.07493 0.48752 0.0
H506 H 0.62545 0.07448 0.64025 0.0
H507 H 0.62209 0.09843 0.63803 0.0
H508 H 0.59784 0.07097 0.64115 0.0
H509 H 0.64964 0.10192 0.48141 0.0
H510 H 0.66228 0.1215 0.51709 0.0
H511 H 0.66537 0.09742 0.51494 0.0
H512 H 0.68513 0.1558 0.63026 0.0
H513 H 0.69294 0.09804 0.6357 0.0
H514 H 0.6337 0.13195 0.59908 0.0
H515 H 0.64707 0.13724 0.55706 0.0
H516 H 0.65947 0.15765 0.59171 0.0
H517 H 0.64533 0.06007 0.60329 0.0
H518 H 0.6741 0.06772 0.59698 0.0
H519 H 0.6581 0.06961 0.56107 0.0
C520 C 0.57285 0.58026 0.06332 0.0
C521 C 0.56095 0.57412 0.03156 0.0
C522 C 0.57713 0.59966 0.08119 0.0
C523 C 0.56948 0.61348 0.06692 0.0
C524 C 0.55856 0.60813 0.03388 0.0
C525 C 0.55436 0.58842 0.01654 0.0
C526 C 0.58891 0.60473 0.11629 0.0
C527 C 0.55043 0.62265 0.01765 0.0
C528 C 0.55838 0.64456 0.13866 0.0
C529 C 0.57868 0.66478 0.1397 0.0
C530 C 0.55455 0.62827 0.1134 0.0
C531 C 0.5714 0.63233 0.08844 0.0
C532 C 0.59133 0.65329 0.08786 0.0
C533 C 0.5948 0.66924 0.11366 0.0
C534 C 0.53311 0.60609 0.11512 0.0
C535 C 0.60954 0.65839 0.06134 0.0
H536 H 0.57828 0.56948 0.07495 0.0
H537 H 0.54522 0.58383 0.99197 0.0
H538 H 0.60346 0.62192 0.11638 0.0
H539 H 0.57737 0.60379 0.13742 0.0
H540 H 0.59485 0.59294 0.12278 0.0
H541 H 0.54516 0.61801 0.98988 0.0
H542 H 0.53597 0.62095 0.0329 0.0
H543 H 0.56368 0.64046 0.01863 0.0
H544 H 0.54593 0.64091 0.15886 0.0
H545 H 0.61038 0.685 0.11402 0.0
H546 H 0.53679 0.59304 0.12425 0.0
H547 H 0.52547 0.60112 0.08866 0.0
H548 H 0.52075 0.60646 0.13339 0.0
H549 H 0.6181 0.649 0.06825 0.0
H550 H 0.62219 0.67645 0.0606 0.0
H551 H 0.6024 0.65302 0.03463 0.0
C552 C 0.03462 0.55633 0.6312 0.0
C553 C 0.02475 0.5405 0.60431 0.0
C554 C 0.02266 0.56515 0.64818 0.0
C555 C 1.00029 0.55775 0.63823 0.0
C556 C 0.99015 0.54145 0.61162 0.0
C557 C 0.0025 0.53312 0.59494 0.0
C558 C 0.03402 0.58261 0.67636 0.0
C559 C 0.96624 0.53289 0.60057 0.0
C560 C 0.96062 0.56395 0.69999 0.0
C561 C 0.95969 0.58199 0.68498 0.0
C562 C 0.97416 0.55622 0.68554 0.0
C563 C 0.98728 0.5669 0.65548 0.0
C564 C 0.98681 0.58541 0.64058 0.0
C565 C 0.97297 0.59269 0.65545 0.0
C566 C 0.97412 0.53638 0.7021 0.0
C567 C 0.0006 0.59724 0.60852 0.0
H568 H 0.05182 0.56217 0.63844 0.0
H569 H 0.99467 0.52075 0.57437 0.0
H570 H 0.03444 0.59824 0.66847 0.0
H571 H 0.02442 0.57692 0.7013 0.0
H572 H 0.05139 0.58639 0.68135 0.0
H573 H 0.96072 0.5199 0.57983 0.0
H574 H 0.95495 0.52574 0.62359 0.0
H575 H 0.96432 0.54686 0.59047 0.0
H576 H 0.95087 0.55593 0.72335 0.0
H577 H 0.97229 0.60657 0.64362 0.0
H578 H 0.99139 0.54068 0.709 0.0
H579 H 0.96772 0.52242 0.68298 0.0
H580 H 0.96363 0.53049 0.72621 0.0
H581 H 0.01839 0.60243 0.61311 0.0
H582 H 0.99947 0.61221 0.60151 0.0
H583 H 0.99486 0.58568 0.58574 0.0
C584 C 0.45183 0.96451 0.05702 0.0
C585 C 0.4704 0.98329 0.07148 0.0
C586 C 0.43122 0.9539 0.07447 0.0
C587 C 0.42904 0.96217 0.10733 0.0
C588 C 0.4476 0.98124 0.12203 0.0
C589 C 0.4681 0.99161 0.10389 0.0
C590 C 0.41184 0.93362 0.0579 0.0
C591 C 0.44585 0.99049 0.15709 0.0
C592 C 0.37012 0.94406 0.13851 0.0
C593 C 0.3659 0.92651 0.16146 0.0
C594 C 0.39071 0.95602 0.121 0.0
C595 C 0.40746 0.95031 0.12666 0.0
C596 C 0.40327 0.93259 0.14972 0.0
C597 C 0.38257 0.92092 0.16683 0.0
C598 C 0.39453 0.97472 0.09638 0.0
C599 C 0.4207 0.92599 0.15641 0.0
H600 H 0.45334 0.95796 0.03191 0.0
H601 H 0.48234 0.00611 0.11521 0.0
H602 H 0.40642 0.91891 0.07527 0.0
H603 H 0.3974 0.93628 0.05486 0.0
H604 H 0.41613 0.9297 0.03168 0.0
H605 H 0.46162 0.00578 0.16446 0.0
H606 H 0.4322 0.99448 0.15639 0.0
H607 H 0.44159 0.97776 0.17794 0.0
H608 H 0.35728 0.9484 0.13421 0.0
H609 H 0.37963 0.90773 0.18514 0.0
H610 H 0.39783 0.97096 0.0694 0.0
H611 H 0.40947 0.99047 0.10472 0.0
H612 H 0.38 0.97741 0.09549 0.0
H613 H 0.42509 0.92083 0.13141 0.0
H614 H 0.41494 0.91206 0.17557 0.0
H615 H 0.43619 0.94048 0.16663 0.0
C616 C 0.50642 0.43304 0.5696 0.0
C617 C 0.50605 0.45122 0.58529 0.0
C618 C 0.49586 0.41195 0.58547 0.0
C619 C 0.48476 0.4089 0.61801 0.0
C620 C 0.48443 0.42716 0.63421 0.0
C621 C 0.49504 0.44812 0.61759 0.0
C622 C 0.49654 0.39288 0.56732 0.0
C623 C 0.47286 0.42453 0.66907 0.0
C624 C 0.44126 0.34984 0.64443 0.0
C625 C 0.45354 0.34413 0.66718 0.0
C626 C 0.4512 0.37089 0.62822 0.0
C627 C 0.47385 0.38663 0.63525 0.0
C628 C 0.48632 0.38092 0.65813 0.0
C629 C 0.47604 0.35973 0.67372 0.0
C630 C 0.43746 0.37631 0.60363 0.0
C631 C 0.51047 0.3973 0.66648 0.0
H632 H 0.51479 0.43519 0.54457 0.0
H633 H 0.49464 0.46205 0.62985 0.0
H634 H 0.50482 0.38625 0.5845 0.0
H635 H 0.4793 0.37905 0.56245 0.0
H636 H 0.50562 0.39796 0.54182 0.0
H637 H 0.47415 0.44037 0.67822 0.0
H638 H 0.45494 0.4117 0.66687 0.0
H639 H 0.48026 0.41867 0.68935 0.0
H640 H 0.42388 0.33781 0.63935 0.0
H641 H 0.48546 0.35558 0.69191 0.0
H642 H 0.44535 0.38057 0.5772 0.0
H643 H 0.4369 0.39113 0.61337 0.0
H644 H 0.42008 0.36223 0.60092 0.0
H645 H 0.52054 0.40225 0.64195 0.0
H646 H 0.51775 0.39031 0.6851 0.0
H647 H 0.51194 0.41267 0.67812 0.0
C648 C 0.54715 0.94985 0.50761 0.0
C649 C 0.54115 0.96282 0.48704 0.0
C650 C 0.553 0.9351 0.49171 0.0
C651 C 0.55232 0.93303 0.45457 0.0
C652 C 0.54546 0.94553 0.43393 0.0
C653 C 0.5402 0.96039 0.45038 0.0
C654 C 0.5606 0.92233 0.51448 0.0
C655 C 0.54404 0.94353 0.3943 0.0
C656 C 0.58708 0.91629 0.39946 0.0
C657 C 0.57107 0.89469 0.38872 0.0
C658 C 0.58168 0.92827 0.42344 0.0
C659 C 0.55959 0.91865 0.43652 0.0
C660 C 0.54374 0.89638 0.42765 0.0
C661 C 0.54973 0.8846 0.40413 0.0
C662 C 0.59921 0.95185 0.4327 0.0
C663 C 0.51998 0.88554 0.44086 0.0
H664 H 0.54796 0.95176 0.53597 0.0
H665 H 0.53528 0.97016 0.43439 0.0
H666 H 0.55102 0.90428 0.50814 0.0
H667 H 0.57844 0.92812 0.50905 0.0
H668 H 0.55865 0.92453 0.54297 0.0
H669 H 0.53712 0.95342 0.38234 0.0
H670 H 0.56091 0.94941 0.3831 0.0
H671 H 0.53336 0.92582 0.38653 0.0
H672 H 0.60357 0.92444 0.38767 0.0
H673 H 0.53738 0.86772 0.39685 0.0
H674 H 0.59897 0.95484 0.46133 0.0
H675 H 0.59557 0.96374 0.41874 0.0
H676 H 0.61625 0.95557 0.42514 0.0
H677 H 0.51956 0.8884 0.46948 0.0
H678 H 0.51065 0.86729 0.43579 0.0
H679 H 0.51119 0.89316 0.4274 0.0
C680 C 0.62544 0.5372 0.00697 0.0
C681 C 0.60595 0.52003 0.99189 0.0
C682 C 0.64602 0.54603 0.98924 0.0
C683 C 0.64698 0.53711 0.95613 0.0
C684 C 0.62754 0.51855 0.94236 0.0
C685 C 0.60718 0.51048 0.96016 0.0
C686 C 0.66623 0.56604 0.00453 0.0
C687 C 0.62789 0.50819 0.90757 0.0
C688 C 0.68597 0.57358 0.88394 0.0
C689 C 0.70257 0.56755 0.88394 0.0
C690 C 0.66855 0.5647 0.9086 0.0
C691 C 0.66721 0.54887 0.93348 0.0
C692 C 0.68413 0.54309 0.9344 0.0
C693 C 0.70173 0.55266 0.90986 0.0
C694 C 0.65101 0.57159 0.90699 0.0
C695 C 0.68314 0.52609 0.96028 0.0
H696 H 0.6243 0.54475 0.0313 0.0
H697 H 0.59197 0.49726 0.94854 0.0
H698 H 0.6812 0.56417 0.00244 0.0
H699 H 0.66972 0.58115 0.98937 0.0
H700 H 0.66368 0.56876 0.03256 0.0
H701 H 0.61229 0.49206 0.90308 0.0
H702 H 0.62983 0.51973 0.88586 0.0
H703 H 0.64229 0.50535 0.90628 0.0
H704 H 0.68602 0.58465 0.86379 0.0
H705 H 0.71462 0.54816 0.91069 0.0
H706 H 0.64823 0.57648 0.93349 0.0
H707 H 0.63492 0.55729 0.89812 0.0
H708 H 0.65571 0.58575 0.88863 0.0
H709 H 0.6805 0.53029 0.98737 0.0
H710 H 0.69857 0.52492 0.95981 0.0
H711 H 0.66872 0.50945 0.9539 0.0
C712 C 0.0681 0.56636 0.43025 0.0
C713 C 0.06906 0.56576 0.467 0.0
C714 C 0.0791 0.58678 0.41206 0.0
C715 C 0.09085 0.60696 0.43123 0.0
C716 C 0.09122 0.60642 0.4684 0.0
C717 C 0.08052 0.58582 0.48579 0.0
C718 C 0.07865 0.58673 0.37236 0.0
C719 C 0.1031 0.62758 0.48982 0.0
C720 C 0.13756 0.65831 0.38672 0.0
C721 C 0.12667 0.66999 0.37693 0.0
C722 C 0.12604 0.63768 0.40406 0.0
C723 C 0.10318 0.62869 0.41252 0.0
C724 C 0.09223 0.64063 0.40366 0.0
C725 C 0.10403 0.66099 0.38569 0.0
C726 C 0.13826 0.62536 0.41294 0.0
C727 C 0.06797 0.63177 0.41283 0.0
H728 H 0.05935 0.55086 0.4157 0.0
H729 H 0.0811 0.58542 0.51427 0.0
H730 H 0.0717 0.59712 0.36275 0.0
H731 H 0.09593 0.5942 0.36195 0.0
H732 H 0.06854 0.56965 0.36141 0.0
H733 H 0.10087 0.6243 0.51857 0.0
H734 H 0.12122 0.63642 0.48376 0.0
H735 H 0.09678 0.63897 0.48279 0.0
H736 H 0.1551 0.66521 0.38058 0.0
H737 H 0.09526 0.66956 0.37766 0.0
H738 H 0.12963 0.60854 0.40077 0.0
H739 H 0.13812 0.62297 0.44181 0.0
H740 H 0.15588 0.63435 0.40372 0.0
H741 H 0.05741 0.61564 0.39928 0.0
H742 H 0.06214 0.6435 0.40527 0.0
H743 H 0.06535 0.62855 0.44152 0.0
C744 C 0.50222 0.04693 0.93819 0.0
C745 C 0.49531 0.02453 0.93096 0.0
C746 C 0.49292 0.05806 0.92054 0.0
C747 C 0.47611 0.04649 0.89511 0.0
C748 C 0.46932 0.02399 0.88709 0.0
C749 C 0.4791 0.01327 0.90503 0.0
C750 C 0.50086 0.08215 0.92952 0.0
C751 C 0.45138 0.01114 0.86018 0.0
C752 C 0.43861 0.07093 0.87788 0.0
C753 C 0.44829 0.08357 0.84741 0.0
C754 C 0.44704 0.05816 0.89305 0.0
C755 C 0.46561 0.05809 0.87742 0.0
C756 C 0.47517 0.07046 0.8463 0.0
C757 C 0.46636 0.08298 0.83163 0.0
C758 C 0.43641 0.04516 0.92627 0.0
C759 C 0.49501 0.07085 0.82889 0.0
H760 H 0.51489 0.05583 0.95798 0.0
H761 H 0.47363 0.99593 0.89945 0.0
H762 H 0.50694 0.0926 0.90547 0.0
H763 H 0.48677 0.08374 0.94012 0.0
H764 H 0.51452 0.08891 0.94926 0.0
H765 H 0.44848 0.994 0.85615 0.0
H766 H 0.43549 0.00996 0.86875 0.0
H767 H 0.45601 0.02005 0.83459 0.0
H768 H 0.4247 0.07134 0.89025 0.0
H769 H 0.47358 0.09225 0.80758 0.0
H770 H 0.44852 0.05207 0.94827 0.0
H771 H 0.43191 0.02749 0.92291 0.0
H772 H 0.42116 0.04572 0.93375 0.0
H773 H 0.50958 0.07859 0.84685 0.0
H774 H 0.49972 0.08036 0.80378 0.0
H775 H 0.49134 0.05361 0.82349 0.0
C776 C 0.48585 0.47325 0.41158 0.0
C777 C 0.48581 0.47143 0.44825 0.0
C778 C 0.46569 0.46525 0.39309 0.0
C779 C 0.44517 0.45477 0.41178 0.0
C780 C 0.4451 0.45175 0.44857 0.0
C781 C 0.46545 0.46038 0.46641 0.0
C782 C 0.46641 0.46909 0.35391 0.0
C783 C 0.42358 0.44015 0.46932 0.0
C784 C 0.396 0.45792 0.37466 0.0
C785 C 0.38369 0.43713 0.35807 0.0
C786 C 0.41611 0.4639 0.3919 0.0
C787 C 0.42389 0.44851 0.39341 0.0
C788 C 0.41123 0.42722 0.37784 0.0
C789 C 0.3914 0.42186 0.36005 0.0
C790 C 0.42921 0.48684 0.40807 0.0
C791 C 0.41877 0.41022 0.37961 0.0
H792 H 0.50163 0.48193 0.39762 0.0
H793 H 0.46545 0.45879 0.4948 0.0
H794 H 0.45522 0.45324 0.34011 0.0
H795 H 0.46028 0.48081 0.34814 0.0
H796 H 0.48355 0.47615 0.34298 0.0
H797 H 0.42633 0.43706 0.49704 0.0
H798 H 0.41553 0.45055 0.46934 0.0
H799 H 0.41173 0.42398 0.45692 0.0
H800 H 0.39001 0.46968 0.3739 0.0
H801 H 0.38228 0.4059 0.34688 0.0
H802 H 0.44632 0.49579 0.39678 0.0
H803 H 0.43092 0.48539 0.43681 0.0
H804 H 0.42119 0.49708 0.40365 0.0
H805 H 0.43496 0.41664 0.36569 0.0
H806 H 0.40647 0.39403 0.36764 0.0
H807 H 0.42149 0.40727 0.40739 0.0
C808 C 0.96646 0.42168 0.03768 0.0
C809 C 0.97141 0.44206 0.02252 0.0
C810 C 0.95429 0.40165 0.01874 0.0
C811 C 0.94671 0.40223 0.98432 0.0
C812 C 0.95025 0.42269 0.97028 0.0
C813 C 0.96284 0.44239 0.98938 0.0
C814 C 0.95108 0.38024 0.03445 0.0
C815 C 0.9421 0.42405 0.93404 0.0
C816 C 0.94431 0.3636 0.91194 0.0
C817 C 0.92124 0.34901 0.90826 0.0
C818 C 0.9528 0.38002 0.93814 0.0
C819 C 0.93789 0.38238 0.96089 0.0
C820 C 0.91467 0.36729 0.9583 0.0
C821 C 0.90662 0.35068 0.93219 0.0
C822 C 0.97774 0.39562 0.9402 0.0
C823 C 0.89825 0.36937 0.98191 0.0
H824 H 0.97335 0.42157 0.06321 0.0
H825 H 0.96673 0.45826 0.97781 0.0
H826 H 0.9338 0.36637 0.03009 0.0
H827 H 0.96255 0.37566 0.0213 0.0
H828 H 0.95463 0.38186 0.06312 0.0
H829 H 0.94363 0.44056 0.92897 0.0
H830 H 0.95203 0.42121 0.91389 0.0
H831 H 0.92438 0.41092 0.93065 0.0
H832 H 0.95583 0.36287 0.8934 0.0
H833 H 0.88882 0.33927 0.93015 0.0
H834 H 0.98358 0.39698 0.96773 0.0
H835 H 0.98183 0.41255 0.93153 0.0
H836 H 0.98715 0.39001 0.9234 0.0
H837 H 0.90355 0.37105 0.00979 0.0
H838 H 0.88109 0.35483 0.97951 0.0
H839 H 0.89778 0.38468 0.97488 0.0
C840 C 0.98039 0.52966 0.98446 0.0
C841 C 0.00092 0.53241 0.97296 0.0
C842 C 0.96952 0.53887 0.96574 0.0
C843 C 0.97944 0.55123 0.93478 0.0
C844 C 1.00011 0.55404 0.92286 0.0
C845 C 0.0106 0.54452 0.94207 0.0
C846 C 0.94741 0.53535 0.97912 0.0
C847 C 0.01117 0.56717 0.88993 0.0
C848 C 0.94183 0.55776 0.86926 0.0
C849 C 0.94589 0.5793 0.87687 0.0
C850 C 0.95263 0.54843 0.88791 0.0
C851 C 0.96797 0.56099 0.91471 0.0
C852 C 0.97205 0.58267 0.92275 0.0
C853 C 0.96092 0.59157 0.90375 0.0
C854 C 0.94779 0.52521 0.87868 0.0
C855 C 0.98824 0.59652 0.95129 0.0
H856 H 0.97271 0.52024 0.00823 0.0
H857 H 0.02647 0.54677 0.93307 0.0
H858 H 0.94862 0.55169 0.9843 0.0
H859 H 0.93433 0.52674 0.95884 0.0
H860 H 0.94195 0.5253 0.00368 0.0
H861 H 0.02729 0.5679 0.88429 0.0
H862 H 0.99994 0.55955 0.86705 0.0
H863 H 0.01429 0.58445 0.8926 0.0
H864 H 0.93061 0.54835 0.84802 0.0
H865 H 0.96401 0.60816 0.90991 0.0
H866 H 0.94156 0.51429 0.90221 0.0
H867 H 0.96338 0.52572 0.8701 0.0
H868 H 0.93521 0.51756 0.85738 0.0
H869 H 0.9828 0.58766 0.97686 0.0
H870 H 0.9897 0.61316 0.95407 0.0
H871 H 0.00502 0.59891 0.94544 0.0
C872 C 0.45785 0.98267 0.46324 0.0
C873 C 0.47767 0.99258 0.44353 0.0
C874 C 0.437 0.97096 0.44683 0.0
C875 C 0.43595 0.96861 0.40982 0.0
C876 C 0.4559 0.97889 0.38966 0.0
C877 C 0.47659 0.99104 0.40679 0.0
C878 C 0.41611 0.96076 0.4692 0.0
C879 C 0.45543 0.97639 0.35018 0.0
C880 C 0.38413 0.91826 0.37355 0.0
C881 C 0.37195 0.9279 0.36038 0.0
C882 C 0.40512 0.93137 0.38915 0.0
C883 C 0.41397 0.95466 0.39251 0.0
C884 C 0.40157 0.96446 0.3802 0.0
C885 C 0.38084 0.95102 0.36396 0.0
C886 C 0.41793 0.92033 0.40177 0.0
C887 C 0.41026 0.98917 0.38398 0.0
H888 H 0.45867 0.98407 0.49168 0.0
H889 H 0.49193 0.99859 0.39159 0.0
H890 H 0.40441 0.96614 0.45955 0.0
H891 H 0.40742 0.94231 0.46716 0.0
H892 H 0.41977 0.96544 0.49736 0.0
H893 H 0.47233 0.98595 0.33826 0.0
H894 H 0.44821 0.95852 0.34327 0.0
H895 H 0.44456 0.98215 0.33828 0.0
H896 H 0.37731 0.9004 0.3715 0.0
H897 H 0.37188 0.95878 0.35331 0.0
H898 H 0.42062 0.92263 0.43058 0.0
H899 H 0.43464 0.92826 0.38911 0.0
H900 H 0.40911 0.90217 0.39595 0.0
H901 H 0.41382 0.9941 0.41203 0.0
H902 H 0.39825 0.99408 0.37403 0.0
H903 H 0.42619 0.99872 0.36933 0.0
C904 C 0.50168 0.43664 0.9657 0.0
C905 C 0.51147 0.45608 0.94514 0.0
C906 C 0.49128 0.41548 0.95014 0.0
C907 C 0.49111 0.41369 0.91307 0.0
C908 C 0.50083 0.43327 0.89209 0.0
C909 C 0.51068 0.45429 0.90842 0.0
C910 C 0.48062 0.39504 0.9734 0.0
C911 C 0.50129 0.43198 0.85248 0.0
C912 C 0.48475 0.3599 0.87601 0.0
C913 C 0.46241 0.34872 0.86486 0.0
C914 C 0.49436 0.38116 0.89132 0.0
C915 C 0.48119 0.3913 0.89644 0.0
C916 C 0.45847 0.37989 0.88632 0.0
C917 C 0.44943 0.35887 0.87033 0.0
C918 C 0.51871 0.39289 0.90158 0.0
C919 C 0.44377 0.38998 0.89204 0.0
H920 H 0.50202 0.43796 0.99414 0.0
H921 H 0.51834 0.46931 0.89252 0.0
H922 H 0.46292 0.38402 0.96577 0.0
H923 H 0.48927 0.38533 0.9699 0.0
H924 H 0.48122 0.39932 0.00169 0.0
H925 H 0.5093 0.44873 0.83995 0.0
H926 H 0.51057 0.42346 0.84451 0.0
H927 H 0.48406 0.42193 0.84217 0.0
H928 H 0.49485 0.35212 0.8725 0.0
H929 H 0.4323 0.35068 0.86124 0.0
H930 H 0.52041 0.39619 0.93028 0.0
H931 H 0.52784 0.40927 0.88805 0.0
H932 H 0.52682 0.383 0.89485 0.0
H933 H 0.44394 0.39428 0.9202 0.0
H934 H 0.42622 0.37855 0.88399 0.0
H935 H 0.45033 0.40568 0.87679 0.0
C936 C 0.10361 0.50529 0.47127 0.0
C937 C 0.10211 0.50462 0.50807 0.0
C938 C 0.11738 0.49905 0.45359 0.0
C939 C 0.12978 0.49159 0.47314 0.0
C940 C 0.12908 0.49171 0.51042 0.0
C941 C 0.11532 0.49842 0.52755 0.0
C942 C 0.11789 0.49959 0.41383 0.0
C943 C 0.14196 0.48374 0.53211 0.0
C944 C 0.13927 0.45179 0.41781 0.0
C945 C 0.16056 0.46598 0.40363 0.0
C946 C 0.12985 0.45947 0.44296 0.0
C947 C 0.1418 0.48202 0.45388 0.0
C948 C 0.16385 0.49604 0.44155 0.0
C949 C 0.17302 0.48782 0.41672 0.0
C950 C 0.10636 0.44386 0.4557 0.0
C951 C 0.17717 0.52017 0.45258 0.0
H952 H 0.09368 0.51042 0.45612 0.0
H953 H 0.11416 0.49787 0.55601 0.0
H954 H 0.13538 0.5089 0.40422 0.0
H955 H 0.11029 0.48233 0.40347 0.0
H956 H 0.10865 0.50747 0.40276 0.0
H957 H 0.14203 0.48761 0.56048 0.0
H958 H 0.1343 0.46541 0.52915 0.0
H959 H 0.15947 0.49142 0.5227 0.0
H960 H 0.1293 0.43497 0.40781 0.0
H961 H 0.18968 0.49879 0.40663 0.0
H962 H 0.09476 0.44854 0.44338 0.0
H963 H 0.10521 0.44522 0.48462 0.0
H964 H 0.10067 0.4262 0.44898 0.0
H965 H 0.17037 0.52977 0.43933 0.0
H966 H 0.1951 0.52776 0.44545 0.0
H967 H 0.17579 0.52187 0.48135 0.0
C968 C 0.60248 0.06998 0.99339 0.0
C969 C 0.58699 0.04965 0.97787 0.0
C970 C 0.62285 0.08447 0.97654 0.0
C971 C 0.6277 0.07848 0.94342 0.0
C972 C 0.61238 0.05774 0.92816 0.0
C973 C 0.5923 0.04361 0.94557 0.0
C974 C 0.63889 0.10638 0.99371 0.0
C975 C 0.61687 0.0507 0.89285 0.0
C976 C 0.66527 0.12107 0.87586 0.0
C977 C 0.68417 0.11859 0.8768 0.0
C978 C 0.64725 0.10903 0.89884 0.0
C979 C 0.64816 0.09417 0.92345 0.0
C980 C 0.66769 0.09248 0.92582 0.0
C981 C 0.68544 0.10465 0.90235 0.0
C982 C 0.62668 0.1112 0.89527 0.0
C983 C 0.66939 0.07699 0.95195 0.0
H984 H 0.59855 0.07476 0.01837 0.0
H985 H 0.58054 0.02791 0.93336 0.0
H986 H 0.65581 0.10836 0.99516 0.0
H987 H 0.64028 0.12036 0.97755 0.0
H988 H 0.63349 0.1078 0.02065 0.0
H989 H 0.60356 0.03371 0.88517 0.0
H990 H 0.61812 0.06263 0.87226 0.0
H991 H 0.63304 0.051 0.89337 0.0
H992 H 0.66406 0.13162 0.85595 0.0
H993 H 0.70015 0.10291 0.90351 0.0
H994 H 0.62135 0.11406 0.92136 0.0
H995 H 0.61274 0.09544 0.88465 0.0
H996 H 0.62947 0.12507 0.87742 0.0
H997 H 0.66414 0.07926 0.9785 0.0
H998 H 0.68662 0.07972 0.95358 0.0
H999 H 0.65798 0.05944 0.94405 0.0
C1000 C 0.54279 0.56501 0.45311 0.0
C1001 C 0.54338 0.56453 0.48995 0.0
C1002 C 0.54698 0.58432 0.43504 0.0
C1003 C 0.55233 0.60389 0.4542 0.0
C1004 C 0.55247 0.60343 0.49149 0.0
C1005 C 0.54774 0.58361 0.50902 0.0
C1006 C 0.54622 0.5839 0.39529 0.0
C1007 C 0.55838 0.62405 0.51275 0.0
C1008 C 0.58672 0.65513 0.39827 0.0
C1009 C 0.5704 0.65971 0.38546 0.0
C1010 C 0.58137 0.6381 0.4229 0.0
C1011 C 0.55903 0.62493 0.43458 0.0
C1012 C 0.5427 0.63014 0.42328 0.0
C1013 C 0.54861 0.64758 0.39907 0.0
C1014 C 0.59937 0.63326 0.43459 0.0
C1015 C 0.51867 0.61642 0.43494 0.0
H1016 H 0.53907 0.55018 0.43825 0.0
H1017 H 0.54821 0.58326 0.53751 0.0
H1018 H 0.53502 0.58991 0.38573 0.0
H1019 H 0.56313 0.59527 0.38455 0.0
H1020 H 0.54029 0.56693 0.38452 0.0
H1021 H 0.55594 0.62051 0.54142 0.0
H1022 H 0.57612 0.63678 0.50799 0.0
H1023 H 0.54813 0.63143 0.50438 0.0
H1024 H 0.60355 0.66409 0.38779 0.0
H1025 H 0.53596 0.65126 0.39008 0.0
H1026 H 0.59661 0.6176 0.42211 0.0
H1027 H 0.59871 0.63082 0.4635 0.0
H1028 H 0.61633 0.64688 0.42727 0.0
H1029 H 0.51101 0.59974 0.42236 0.0
H1030 H 0.5087 0.62436 0.42767 0.0
H1031 H 0.51761 0.61379 0.46381 0.0
C1032 C 0.48821 0.02918 0.60846 0.0
C1033 C 0.50086 0.03798 0.5777 0.0
C1034 C 0.47805 0.03996 0.6251 0.0
C1035 C 0.48068 0.06 0.61065 0.0
C1036 C 0.49363 0.06906 0.57987 0.0
C1037 C 0.50353 0.05795 0.56379 0.0
C1038 C 0.46436 0.02984 0.65796 0.0
C1039 C 0.49694 0.09047 0.56379 0.0
C1040 C 0.43846 0.07779 0.63408 0.0
C1041 C 0.44987 0.09383 0.6602 0.0
C1042 C 0.44829 0.06663 0.61772 0.0
C1043 C 0.47002 0.07163 0.62775 0.0
C1044 C 0.48172 0.088 0.65374 0.0
C1045 C 0.4715 0.09886 0.66968 0.0
C1046 C 0.43535 0.04934 0.58994 0.0
C1047 C 0.50493 0.09382 0.66508 0.0
H1048 H 0.48603 0.01374 0.61933 0.0
H1049 H 0.51332 0.06495 0.54008 0.0
H1050 H 0.47123 0.04194 0.67997 0.0
H1051 H 0.44695 0.02606 0.65362 0.0
H1052 H 0.46403 0.01425 0.66594 0.0
H1053 H 0.5076 0.09535 0.53985 0.0
H1054 H 0.48054 0.0886 0.55669 0.0
H1055 H 0.5048 0.10422 0.58322 0.0
H1056 H 0.4218 0.07391 0.62654 0.0
H1057 H 0.48024 0.11087 0.69039 0.0
H1058 H 0.43316 0.03297 0.59801 0.0
H1059 H 0.44482 0.05405 0.56481 0.0
H1060 H 0.41862 0.04738 0.58518 0.0
H1061 H 0.50466 0.07882 0.67593 0.0
H1062 H 0.51188 0.10716 0.68534 0.0
H1063 H 0.51636 0.09944 0.64206 0.0
C1064 C 0.48458 0.4725 0.10774 0.0
C1065 C 0.48943 0.48429 0.07593 0.0
C1066 C 0.4636 0.46416 0.12395 0.0
C1067 C 0.44718 0.46776 0.10798 0.0
C1068 C 0.45205 0.47977 0.07604 0.0
C1069 C 0.47306 0.48785 0.06042 0.0
C1070 C 0.45895 0.45141 0.15806 0.0
C1071 C 0.43504 0.48407 0.0583 0.0
C1072 C 0.38616 0.42994 0.13222 0.0
C1073 C 0.3827 0.4431 0.15666 0.0
C1074 C 0.40708 0.43774 0.11618 0.0
C1075 C 0.42493 0.45921 0.12476 0.0
C1076 C 0.42145 0.47271 0.14895 0.0
C1077 C 0.40041 0.46448 0.16464 0.0
C1078 C 0.41014 0.42294 0.0903 0.0
C1079 C 0.44006 0.49573 0.15867 0.0
H1080 H 0.4971 0.46964 0.11983 0.0
H1081 H 0.47662 0.49698 0.03587 0.0
H1082 H 0.4546 0.4598 0.17891 0.0
H1083 H 0.44439 0.43438 0.15485 0.0
H1084 H 0.47346 0.44999 0.16703 0.0
H1085 H 0.44146 0.49368 0.03346 0.0
H1086 H 0.41974 0.46802 0.05228 0.0
H1087 H 0.43008 0.49348 0.07625 0.0
H1088 H 0.37251 0.41347 0.12579 0.0
H1089 H 0.39803 0.47457 0.18405 0.0
H1090 H 0.42347 0.41974 0.09961 0.0
H1091 H 0.41555 0.43143 0.06444 0.0
H1092 H 0.39458 0.40668 0.08651 0.0
H1093 H 0.45409 0.4946 0.17057 0.0
H1094 H 0.43452 0.50423 0.17757 0.0
H1095 H 0.44662 0.50622 0.13472 0.0
C1096 C 0.00144 0.44942 0.59892 0.0
C1097 C 0.00293 0.45049 0.56211 0.0
C1098 C 0.98702 0.42946 0.61627 0.0
C1099 C 0.97405 0.40985 0.59641 0.0
C1100 C 0.97551 0.41071 0.55918 0.0
C1101 C 0.98977 0.43115 0.54238 0.0
C1102 C 0.98565 0.42943 0.65597 0.0
C1103 C 0.96228 0.39002 0.53723 0.0
C1104 C 0.95545 0.35844 0.65282 0.0
C1105 C 0.934 0.35364 0.66328 0.0
C1106 C 0.96802 0.37559 0.62869 0.0
C1107 C 0.95916 0.3886 0.61521 0.0
C1108 C 0.93708 0.38303 0.62398 0.0
C1109 C 0.92469 0.36547 0.64756 0.0
C1110 C 0.99136 0.38073 0.61947 0.0
C1111 C 0.92707 0.3966 0.61049 0.0
H1112 H 0.01137 0.46438 0.6143 0.0
H1113 H 0.99096 0.43192 0.51393 0.0
H1114 H 0.96813 0.42312 0.66441 0.0
H1115 H 0.99103 0.41808 0.66713 0.0
H1116 H 0.99626 0.4463 0.66737 0.0
H1117 H 0.96515 0.39351 0.50859 0.0
H1118 H 0.96693 0.37735 0.54436 0.0
H1119 H 0.94418 0.38259 0.54274 0.0
H1120 H 0.96297 0.34961 0.66482 0.0
H1121 H 0.90791 0.36151 0.65459 0.0
H1122 H 0.00368 0.39618 0.63318 0.0
H1123 H 0.99443 0.38369 0.5908 0.0
H1124 H 0.99439 0.36702 0.62733 0.0
H1125 H 0.93564 0.41331 0.62302 0.0
H1126 H 0.90892 0.38858 0.61632 0.0
H1127 H 0.92957 0.39917 0.58168 0.0
C1128 C 0.54729 0.96039 0.06806 0.0
C1129 C 0.5362 0.95394 0.03561 0.0
C1130 C 0.55253 0.94626 0.08689 0.0
C1131 C 0.54663 0.92507 0.07299 0.0
C1132 C 0.53581 0.91852 0.03994 0.0
C1133 C 0.5307 0.93306 0.02158 0.0
C1134 C 0.56411 0.95396 0.12202 0.0
C1135 C 0.52938 0.89608 0.02429 0.0
C1136 C 0.57896 0.90099 0.11697 0.0
C1137 C 0.56433 0.88842 0.1442 0.0
C1138 C 0.57277 0.91169 0.09176 0.0
C1139 C 0.55148 0.90985 0.09397 0.0
C1140 C 0.5361 0.89594 0.11996 0.0
C1141 C 0.54271 0.88538 0.14476 0.0
C1142 C 0.58959 0.92619 0.06427 0.0
C1143 C 0.51325 0.89356 0.12328 0.0
H1144 H 0.55173 0.97651 0.07914 0.0
H1145 H 0.52214 0.92795 0.99653 0.0
H1146 H 0.55347 0.94241 0.14309 0.0
H1147 H 0.58001 0.95369 0.12176 0.0
H1148 H 0.56785 0.97108 0.12885 0.0
H1149 H 0.52207 0.89393 0.9976 0.0
H1150 H 0.5442 0.89393 0.02266 0.0
H1151 H 0.51701 0.88263 0.04157 0.0
H1152 H 0.59556 0.90307 0.11605 0.0
H1153 H 0.53135 0.8758 0.16584 0.0
H1154 H 0.59611 0.944 0.07086 0.0
H1155 H 0.58164 0.92318 0.03801 0.0
H1156 H 0.60392 0.92321 0.06268 0.0
H1157 H 0.51497 0.90937 0.1334 0.0
H1158 H 0.50226 0.87986 0.14153 0.0
H1159 H 0.50502 0.89032 0.09723 0.0
C1160 C 0.60148 0.52273 0.58315 0.0
C1161 C 0.60017 0.52288 0.54638 0.0
C1162 C 0.62199 0.53047 0.60017 0.0
C1163 C 0.64182 0.53908 0.57998 0.0
C1164 C 0.64063 0.53909 0.54276 0.0
C1165 C 0.61971 0.53071 0.52633 0.0
C1166 C 0.62242 0.52969 0.63988 0.0
C1167 C 0.66146 0.54856 0.52042 0.0
C1168 C 0.6924 0.57878 0.63356 0.0
C1169 C 0.70071 0.56491 0.64436 0.0
C1170 C 0.67424 0.57105 0.61042 0.0
C1171 C 0.6637 0.54874 0.59837 0.0
C1172 C 0.67263 0.53499 0.60765 0.0
C1173 C 0.69117 0.54332 0.63016 0.0
C1174 C 0.66549 0.58641 0.60064 0.0
C1175 C 0.66175 0.51102 0.59566 0.0
H1176 H 0.58637 0.51645 0.59875 0.0
H1177 H 0.61873 0.53094 0.49789 0.0
H1178 H 0.63116 0.52077 0.64855 0.0
H1179 H 0.63181 0.54688 0.65055 0.0
H1180 H 0.60539 0.52124 0.65154 0.0
H1181 H 0.65762 0.54635 0.49185 0.0
H1182 H 0.67213 0.56664 0.52594 0.0
H1183 H 0.67135 0.54049 0.52712 0.0
H1184 H 0.69933 0.59538 0.64448 0.0
H1185 H 0.69775 0.53261 0.63747 0.0
H1186 H 0.64947 0.58106 0.61451 0.0
H1187 H 0.66215 0.58554 0.57198 0.0
H1188 H 0.67736 0.60402 0.60781 0.0
H1189 H 0.6453 0.5012 0.60886 0.0
H1190 H 0.67206 0.5033 0.6019 0.0
H1191 H 0.65865 0.50981 0.56692 0.0
C1192 C 0.04038 0.5624 0.14194 0.0
C1193 C 0.04633 0.55891 0.10824 0.0
C1194 C 0.05154 0.58367 0.15755 0.0
C1195 C 0.06889 0.60181 0.13888 0.0
C1196 C 0.07473 0.59841 0.10472 0.0
C1197 C 0.06346 0.57705 0.08991 0.0
C1198 C 0.04498 0.5867 0.19415 0.0
C1199 C 0.09307 0.61731 0.08388 0.0
C1200 C 0.08779 0.66172 0.16487 0.0
C1201 C 0.10751 0.6676 0.18331 0.0
C1202 C 0.07482 0.64023 0.15068 0.0
C1203 C 0.08167 0.62425 0.15533 0.0
C1204 C 0.10145 0.63006 0.17419 0.0
C1205 C 0.11414 0.65165 0.18787 0.0
C1206 C 0.05393 0.63469 0.13041 0.0
C1207 C 0.10928 0.61347 0.17985 0.0
H1208 H 0.02716 0.54851 0.15622 0.0
H1209 H 0.06811 0.57462 0.06374 0.0
H1210 H 0.05941 0.5923 0.21217 0.0
H1211 H 0.04032 0.59987 0.19408 0.0
H1212 H 0.03075 0.57108 0.20477 0.0
H1213 H 0.09502 0.61204 0.05712 0.0
H1214 H 0.08954 0.6312 0.08129 0.0
H1215 H 0.1092 0.62394 0.09796 0.0
H1216 H 0.08261 0.67399 0.16132 0.0
H1217 H 0.12907 0.65592 0.20284 0.0
H1218 H 0.03933 0.61989 0.14212 0.0
H1219 H 0.05555 0.63038 0.10287 0.0
H1220 H 0.05053 0.64876 0.13008 0.0
H1221 H 0.09596 0.59826 0.19291 0.0
H1222 H 0.12462 0.6204 0.19616 0.0
H1223 H 0.11276 0.60827 0.15411 0.0
loop_
_geom_bond_atom_site_label_1
_geom_bond_atom_site_label_2
_geom_bond_distance
_geom_bond_site_symmetry_2
_ccdc_geom_bond_type
C0 O2 1.247 . S
C0 O4 1.258 . S
C1 O8 1.247 . S
C1 O9 1.258 . S
O2 C0 1.247 . S
O2 Zn3 2.028 1_455 S
Zn3 O2 2.028 1_655 S
Zn3 O7 2.035 . S
Zn3 O9 2.035 . S
Zn3 O10 2.028 1_655 S
O4 C0 1.258 . S
O4 Zn5 2.035 . S
Zn5 O4 2.035 . S
Zn5 O6 2.028 1_455 S
Zn5 O8 2.028 1_455 S
Zn5 O11 2.035 . S
O6 Zn5 2.028 1_655 S
O6 C12 1.247 . S
O7 Zn3 2.035 . S
O7 C12 1.258 . S
O8 C1 1.247 . S
O8 Zn5 2.028 1_655 S
O9 C1 1.258 . S
O9 Zn3 2.035 . S
O10 Zn3 2.028 1_455 S
O10 C13 1.247 . S
O11 Zn5 2.035 . S
O11 C13 1.258 . S
C12 O6 1.247 . S
C12 O7 1.258 . S
C13 O10 1.247 . S
C13 O11 1.258 . S
C14 O16 1.247 . S
C14 O18 1.258 . S
C15 O22 1.247 . S
C15 O23 1.258 . S
O16 C14 1.247 . S
O16 Zn17 2.028 1_545 S
Zn17 O16 2.028 1_565 S
Zn17 O21 2.035 . S
Zn17 O23 2.035 . S
Zn17 O24 2.028 1_565 S
O18 C14 1.258 . S
O18 Zn19 2.035 . S
Zn19 O18 2.035 . S
Zn19 O20 2.028 1_545 S
Zn19 O22 2.028 1_545 S
Zn19 O25 2.035 . S
O20 Zn19 2.028 1_565 S
O20 C26 1.247 . S
O21 Zn17 2.035 . S
O21 C26 1.258 . S
O22 C15 1.247 . S
O22 Zn19 2.028 1_565 S
O23 C15 1.258 . S
O23 Zn17 2.035 . S
O24 Zn17 2.028 1_545 S
O24 C27 1.247 . S
O25 Zn19 2.035 . S
O25 C27 1.258 . S
C26 O20 1.247 . S
C26 O21 1.258 . S
C27 O24 1.247 . S
C27 O25 1.258 . S
C28 O30 1.247 . S
C28 O32 1.258 1_556 S
C29 O36 1.247 . S
C29 O37 1.258 . S
O30 C28 1.247 . S
O30 Zn31 2.028 . S
Zn31 O30 2.028 . S
Zn31 O35 2.035 1_556 S
Zn31 O37 2.035 1_556 S
Zn31 O38 2.028 . S
O32 C28 1.258 1_554 S
O32 Zn33 2.035 . S
Zn33 O32 2.035 . S
Zn33 O34 2.028 . S
Zn33 O36 2.028 . S
Zn33 O39 2.035 . S
O34 Zn33 2.028 . S
O34 C40 1.247 . S
O35 Zn31 2.035 1_554 S
O35 C40 1.258 . S
O36 C29 1.247 . S
O36 Zn33 2.028 . S
O37 C29 1.258 . S
O37 Zn31 2.035 1_554 S
O38 Zn31 2.028 . S
O38 C41 1.247 . S
O39 Zn33 2.035 . S
O39 C41 1.258 1_554 S
C40 O34 1.247 . S
C40 O35 1.258 . S
C41 O38 1.247 . S
C41 O39 1.258 1_556 S
C42 O44 1.247 . S
C42 O46 1.258 . S
C43 O50 1.247 . S
C43 O51 1.258 . S
O44 C42 1.247 . S
O44 Zn45 2.028 . S
Zn45 O44 2.028 . S
Zn45 O49 2.035 . S
Zn45 O51 2.035 . S
Zn45 O52 2.028 . S
O46 C42 1.258 . S
O46 Zn47 2.035 . S
Zn47 O46 2.035 . S
Zn47 O48 2.028 . S
Zn47 O50 2.028 . S
Zn47 O53 2.035 . S
O48 Zn47 2.028 . S
O48 C54 1.247 . S
O49 Zn45 2.035 . S
O49 C54 1.258 . S
O50 C43 1.247 . S
O50 Zn47 2.028 . S
O51 C43 1.258 . S
O51 Zn45 2.035 . S
O52 Zn45 2.028 . S
O52 C55 1.247 . S
O53 Zn47 2.035 . S
O53 C55 1.258 . S
C54 O48 1.247 . S
C54 O49 1.258 . S
C55 O52 1.247 . S
C55 O53 1.258 . S
C56 O58 1.247 1_565 S
C56 O60 1.258 . S
C57 O64 1.247 . S
C57 O65 1.258 1_556 S
O58 C56 1.247 1_545 S
O58 Zn59 2.028 . S
Zn59 O58 2.028 . S
Zn59 O63 2.035 . S
Zn59 O65 2.035 . S
Zn59 O66 2.028 . S
O60 C56 1.258 . S
O60 Zn61 2.035 1_554 S
Zn61 O60 2.035 1_556 S
Zn61 O62 2.028 1_565 S
Zn61 O64 2.028 1_565 S
Zn61 O67 2.035 1_556 S
O62 Zn61 2.028 1_545 S
O62 C68 1.247 . S
O63 Zn59 2.035 . S
O63 C68 1.258 1_554 S
O64 C57 1.247 . S
O64 Zn61 2.028 1_545 S
O65 C57 1.258 1_554 S
O65 Zn59 2.035 . S
O66 Zn59 2.028 . S
O66 C69 1.247 1_545 S
O67 Zn61 2.035 1_554 S
O67 C69 1.258 . S
C68 O62 1.247 . S
C68 O63 1.258 1_556 S
C69 O66 1.247 1_565 S
C69 O67 1.258 . S
C70 O72 1.247 . S
C70 O74 1.258 . S
C71 O78 1.247 . S
C71 O79 1.258 . S
O72 C70 1.247 . S
O72 Zn73 2.028 . S
Zn73 O72 2.028 . S
Zn73 O77 2.035 . S
Zn73 O79 2.035 . S
Zn73 O80 2.028 . S
O74 C70 1.258 . S
O74 Zn75 2.035 . S
Zn75 O74 2.035 . S
Zn75 O76 2.028 . S
Zn75 O78 2.028 . S
Zn75 O81 2.035 . S
O76 Zn75 2.028 . S
O76 C82 1.247 . S
O77 Zn73 2.035 . S
O77 C82 1.258 . S
O78 C71 1.247 . S
O78 Zn75 2.028 . S
O79 C71 1.258 . S
O79 Zn73 2.035 . S
O80 Zn73 2.028 . S
O80 C83 1.247 . S
O81 Zn75 2.035 . S
O81 C83 1.258 . S
C82 O76 1.247 . S
C82 O77 1.258 . S
C83 O80 1.247 . S
C83 O81 1.258 . S
H84 C111 0.929 . S
N85 C110 1.433 . S
N85 C116 1.435 . S
N85 C122 1.423 . S
H86 C112 0.930 . S
H87 C115 0.931 . S
H88 C114 0.929 . S
H89 C117 0.930 . S
H90 C118 0.932 . S
H91 C121 0.929 . S
H92 C120 0.931 . S
H93 C123 0.929 . S
H94 C127 0.932 . S
H95 C124 0.931 . S
H96 C126 0.929 . S
H97 C129 0.929 . S
H98 C130 0.930 . S
H99 C132 0.929 . S
H100 C133 0.931 . S
H101 C135 0.930 . S
H102 C136 0.932 . S
H103 C138 0.931 . S
H104 C139 0.929 . S
H105 C141 0.929 . S
H106 C142 0.931 . S
H107 C144 0.929 . S
N108 C128 1.433 . S
N108 C134 1.435 . S
N108 C140 1.423 . S
H109 C145 0.932 . S
C110 N85 1.433 . S
C110 C111 1.363 . S
C110 C115 1.370 . S
C111 H84 0.929 . S
C111 C110 1.363 . S
C111 C112 1.385 . S
C112 H86 0.930 . S
C112 C111 1.385 . S
C112 C113 1.357 . S
C113 C112 1.357 . S
C113 C114 1.406 . S
C114 H88 0.929 . S
C114 C113 1.406 . S
C114 C115 1.391 . S
C115 H87 0.931 . S
C115 C110 1.370 . S
C115 C114 1.391 . S
C116 N85 1.435 . S
C116 C117 1.358 . S
C116 C121 1.371 . S
C117 H89 0.930 . S
C117 C116 1.358 . S
C117 C118 1.405 . S
C118 H90 0.932 . S
C118 C117 1.405 . S
C118 C119 1.383 . S
C119 C118 1.383 . S
C119 C120 1.393 . S
C120 H92 0.931 . S
C120 C119 1.393 . S
C120 C121 1.382 . S
C121 H91 0.929 . S
C121 C116 1.371 . S
C121 C120 1.382 . S
C122 N85 1.423 . S
C122 C123 1.362 . S
C122 C127 1.388 . S
C123 H93 0.929 . S
C123 C122 1.362 . S
C123 C124 1.376 . S
C124 H95 0.931 . S
C124 C123 1.376 . S
C124 C125 1.396 . S
C125 C124 1.396 . S
C125 C126 1.348 . S
C125 C143 1.472 . S
C126 H96 0.929 . S
C126 C125 1.348 . S
C126 C127 1.443 . S
C127 H94 0.932 . S
C127 C122 1.388 . S
C127 C126 1.443 . S
C128 N108 1.433 . S
C128 C129 1.363 . S
C128 C133 1.370 . S
C129 H97 0.929 . S
C129 C128 1.363 . S
C129 C130 1.385 . S
C130 H98 0.930 . S
C130 C129 1.385 . S
C130 C131 1.357 . S
C131 C130 1.357 . S
C131 C132 1.406 . S
C132 H99 0.929 . S
C132 C131 1.406 . S
C132 C133 1.391 . S
C133 H100 0.931 . S
C133 C128 1.370 . S
C133 C132 1.391 . S
C134 N108 1.435 . S
C134 C135 1.358 . S
C134 C139 1.371 . S
C135 H101 0.930 . S
C135 C134 1.358 . S
C135 C136 1.405 . S
C136 H102 0.932 . S
C136 C135 1.405 . S
C136 C137 1.383 . S
C137 C136 1.383 . S
C137 C138 1.393 . S
C138 H103 0.931 . S
C138 C137 1.393 . S
C138 C139 1.382 . S
C139 H104 0.929 . S
C139 C134 1.371 . S
C139 C138 1.382 . S
C140 N108 1.423 . S
C140 C141 1.362 . S
C140 C145 1.388 . S
C141 H105 0.929 . S
C141 C140 1.362 . S
C141 C142 1.376 . S
C142 H106 0.931 . S
C142 C141 1.376 . S
C142 C143 1.396 . S
C143 C125 1.472 . S
C143 C142 1.396 . S
C143 C144 1.348 . S
C144 H107 0.929 . S
C144 C143 1.348 . S
C144 C145 1.443 . S
C145 H109 0.932 . S
C145 C140 1.388 . S
C145 C144 1.443 . S
H146 C173 0.929 . S
N147 C172 1.433 . S
N147 C178 1.435 . S
N147 C184 1.423 . S
H148 C174 0.930 . S
H149 C177 0.931 . S
H150 C176 0.929 . S
H151 C179 0.930 . S
H152 C180 0.932 . S
H153 C183 0.929 . S
H154 C182 0.931 . S
H155 C185 0.929 . S
H156 C189 0.932 . S
H157 C186 0.931 . S
H158 C188 0.929 . S
H159 C191 0.929 . S
H160 C192 0.930 . S
H161 C194 0.929 . S
H162 C195 0.931 . S
H163 C197 0.930 . S
H164 C198 0.932 . S
H165 C200 0.931 . S
H166 C201 0.929 . S
H167 C203 0.929 . S
H168 C204 0.931 . S
H169 C206 0.929 . S
N170 C190 1.433 . S
N170 C196 1.435 . S
N170 C202 1.423 . S
H171 C207 0.932 . S
C172 N147 1.433 . S
C172 C173 1.363 . S
C172 C177 1.370 . S
C173 H146 0.929 . S
C173 C172 1.363 . S
C173 C174 1.385 . S
C174 H148 0.930 . S
C174 C173 1.385 . S
C174 C175 1.357 . S
C175 C174 1.357 . S
C175 C176 1.406 . S
C176 H150 0.929 . S
C176 C175 1.406 . S
C176 C177 1.391 . S
C177 H149 0.931 . S
C177 C172 1.370 . S
C177 C176 1.391 . S
C178 N147 1.435 . S
C178 C179 1.358 . S
C178 C183 1.371 . S
C179 H151 0.930 . S
C179 C178 1.358 . S
C179 C180 1.405 . S
C180 H152 0.932 . S
C180 C179 1.405 . S
C180 C181 1.383 . S
C181 C180 1.383 . S
C181 C182 1.393 . S
C182 H154 0.931 . S
C182 C181 1.393 . S
C182 C183 1.382 . S
C183 H153 0.929 . S
C183 C178 1.371 . S
C183 C182 1.382 . S
C184 N147 1.423 . S
C184 C185 1.362 . S
C184 C189 1.388 . S
C185 H155 0.929 . S
C185 C184 1.362 . S
C185 C186 1.376 . S
C186 H157 0.931 . S
C186 C185 1.376 . S
C186 C187 1.396 . S
C187 C186 1.396 . S
C187 C188 1.348 . S
C187 C205 1.472 . S
C188 H158 0.929 . S
C188 C187 1.348 . S
C188 C189 1.443 . S
C189 H156 0.932 . S
C189 C184 1.388 . S
C189 C188 1.443 . S
C190 N170 1.433 . S
C190 C191 1.363 . S
C190 C195 1.370 . S
C191 H159 0.929 . S
C191 C190 1.363 . S
C191 C192 1.385 . S
C192 H160 0.930 . S
C192 C191 1.385 . S
C192 C193 1.357 . S
C193 C192 1.357 . S
C193 C194 1.406 . S
C194 H161 0.929 . S
C194 C193 1.406 . S
C194 C195 1.391 . S
C195 H162 0.931 . S
C195 C190 1.370 . S
C195 C194 1.391 . S
C196 N170 1.435 . S
C196 C197 1.358 . S
C196 C201 1.371 . S
C197 H163 0.930 . S
C197 C196 1.358 . S
C197 C198 1.405 . S
C198 H164 0.932 . S
C198 C197 1.405 . S
C198 C199 1.383 . S
C199 C198 1.383 . S
C199 C200 1.393 . S
C200 H165 0.931 . S
C200 C199 1.393 . S
C200 C201 1.382 . S
C201 H166 0.929 . S
C201 C196 1.371 . S
C201 C200 1.382 . S
C202 N170 1.423 . S
C202 C203 1.362 . S
C202 C207 1.388 . S
C203 H167 0.929 . S
C203 C202 1.362 . S
C203 C204 1.376 . S
C204 H168 0.931 . S
C204 C203 1.376 . S
C204 C205 1.396 . S
C205 C187 1.472 . S
C205 C204 1.396 . S
C205 C206 1.348 . S
C206 H169 0.929 . S
C206 C205 1.348 . S
C206 C207 1.443 . S
C207 H171 0.932 . S
C207 C202 1.388 . S
C207 C206 1.443 . S
H208 C235 0.929 . S
N209 C234 1.433 . S
N209 C240 1.435 . S
N209 C246 1.423 . S
H210 C236 0.930 . S
H211 C239 0.931 . S
H212 C238 0.929 . S
H213 C241 0.930 . S
H214 C242 0.932 . S
H215 C245 0.929 . S
H216 C244 0.931 . S
H217 C247 0.929 . S
H218 C251 0.932 . S
H219 C248 0.931 . S
H220 C250 0.929 . S
H221 C253 0.929 . S
H222 C254 0.930 . S
H223 C256 0.929 . S
H224 C257 0.931 . S
H225 C259 0.930 . S
H226 C260 0.932 . S
H227 C262 0.931 . S
H228 C263 0.929 . S
H229 C265 0.929 . S
H230 C266 0.931 . S
H231 C268 0.929 . S
N232 C252 1.433 . S
N232 C258 1.435 . S
N232 C264 1.423 . S
H233 C269 0.932 . S
C234 N209 1.433 . S
C234 C235 1.363 . S
C234 C239 1.370 . S
C235 H208 0.929 . S
C235 C234 1.363 . S
C235 C236 1.385 . S
C236 H210 0.930 . S
C236 C235 1.385 . S
C236 C237 1.357 . S
C237 C236 1.357 . S
C237 C238 1.406 . S
C238 H212 0.929 . S
C238 C237 1.406 . S
C238 C239 1.391 . S
C239 H211 0.931 . S
C239 C234 1.370 . S
C239 C238 1.391 . S
C240 N209 1.435 . S
C240 C241 1.358 . S
C240 C245 1.371 . S
C241 H213 0.930 . S
C241 C240 1.358 . S
C241 C242 1.405 . S
C242 H214 0.932 . S
C242 C241 1.405 . S
C242 C243 1.383 . S
C243 C242 1.383 . S
C243 C244 1.393 . S
C244 H216 0.931 . S
C244 C243 1.393 . S
C244 C245 1.382 . S
C245 H215 0.929 . S
C245 C240 1.371 . S
C245 C244 1.382 . S
C246 N209 1.423 . S
C246 C247 1.362 . S
C246 C251 1.388 . S
C247 H217 0.929 . S
C247 C246 1.362 . S
C247 C248 1.376 . S
C248 H219 0.931 . S
C248 C247 1.376 . S
C248 C249 1.396 . S
C249 C248 1.396 . S
C249 C250 1.348 . S
C249 C267 1.472 . S
C250 H220 0.929 . S
C250 C249 1.348 . S
C250 C251 1.443 . S
C251 H218 0.932 . S
C251 C246 1.388 . S
C251 C250 1.443 . S
C252 N232 1.433 . S
C252 C253 1.363 . S
C252 C257 1.370 . S
C253 H221 0.929 . S
C253 C252 1.363 . S
C253 C254 1.385 . S
C254 H222 0.930 . S
C254 C253 1.385 . S
C254 C255 1.357 . S
C255 C254 1.357 . S
C255 C256 1.406 . S
C256 H223 0.929 . S
C256 C255 1.406 . S
C256 C257 1.391 . S
C257 H224 0.931 . S
C257 C252 1.370 . S
C257 C256 1.391 . S
C258 N232 1.435 . S
C258 C259 1.358 . S
C258 C263 1.371 . S
C259 H225 0.930 . S
C259 C258 1.358 . S
C259 C260 1.405 . S
C260 H226 0.932 . S
C260 C259 1.405 . S
C260 C261 1.383 . S
C261 C260 1.383 . S
C261 C262 1.393 . S
C262 H227 0.931 . S
C262 C261 1.393 . S
C262 C263 1.382 . S
C263 H228 0.929 . S
C263 C258 1.371 . S
C263 C262 1.382 . S
C264 N232 1.423 . S
C264 C265 1.362 . S
C264 C269 1.388 . S
C265 H229 0.929 . S
C265 C264 1.362 . S
C265 C266 1.376 . S
C266 H230 0.931 . S
C266 C265 1.376 . S
C266 C267 1.396 . S
C267 C249 1.472 . S
C267 C266 1.396 . S
C267 C268 1.348 . S
C268 H231 0.929 . S
C268 C267 1.348 . S
C268 C269 1.443 . S
C269 H233 0.932 . S
C269 C264 1.388 . S
C269 C268 1.443 . S
H270 C297 0.929 . S
N271 C296 1.433 . S
N271 C302 1.435 . S
N271 C308 1.423 . S
H272 C298 0.930 . S
H273 C301 0.931 . S
H274 C300 0.929 . S
H275 C303 0.930 . S
H276 C304 0.932 . S
H277 C307 0.929 . S
H278 C306 0.931 . S
H279 C309 0.929 . S
H280 C313 0.932 . S
H281 C310 0.931 . S
H282 C312 0.929 . S
H283 C315 0.929 . S
H284 C316 0.930 . S
H285 C318 0.929 . S
H286 C319 0.931 . S
H287 C321 0.930 . S
H288 C322 0.932 . S
H289 C324 0.931 . S
H290 C325 0.929 . S
H291 C327 0.929 . S
H292 C328 0.931 . S
H293 C330 0.929 . S
N294 C314 1.433 . S
N294 C320 1.435 . S
N294 C326 1.423 . S
H295 C331 0.932 . S
C296 N271 1.433 . S
C296 C297 1.363 . S
C296 C301 1.370 . S
C297 H270 0.929 . S
C297 C296 1.363 . S
C297 C298 1.385 . S
C298 H272 0.930 . S
C298 C297 1.385 . S
C298 C299 1.357 . S
C299 C298 1.357 . S
C299 C300 1.406 . S
C300 H274 0.929 . S
C300 C299 1.406 . S
C300 C301 1.391 . S
C301 H273 0.931 . S
C301 C296 1.370 . S
C301 C300 1.391 . S
C302 N271 1.435 . S
C302 C303 1.358 . S
C302 C307 1.371 . S
C303 H275 0.930 . S
C303 C302 1.358 . S
C303 C304 1.405 . S
C304 H276 0.932 . S
C304 C303 1.405 . S
C304 C305 1.383 . S
C305 C304 1.383 . S
C305 C306 1.393 . S
C306 H278 0.931 . S
C306 C305 1.393 . S
C306 C307 1.382 . S
C307 H277 0.929 . S
C307 C302 1.371 . S
C307 C306 1.382 . S
C308 N271 1.423 . S
C308 C309 1.362 . S
C308 C313 1.388 . S
C309 H279 0.929 . S
C309 C308 1.362 . S
C309 C310 1.376 . S
C310 H281 0.931 . S
C310 C309 1.376 . S
C310 C311 1.396 . S
C311 C310 1.396 . S
C311 C312 1.348 . S
C311 C329 1.472 . S
C312 H282 0.929 . S
C312 C311 1.348 . S
C312 C313 1.443 . S
C313 H280 0.932 . S
C313 C308 1.388 . S
C313 C312 1.443 . S
C314 N294 1.433 . S
C314 C315 1.363 . S
C314 C319 1.370 . S
C315 H283 0.929 . S
C315 C314 1.363 . S
C315 C316 1.385 . S
C316 H284 0.930 . S
C316 C315 1.385 . S
C316 C317 1.357 . S
C317 C316 1.357 . S
C317 C318 1.406 . S
C318 H285 0.929 . S
C318 C317 1.406 . S
C318 C319 1.391 . S
C319 H286 0.931 . S
C319 C314 1.370 . S
C319 C318 1.391 . S
C320 N294 1.435 . S
C320 C321 1.358 . S
C320 C325 1.371 . S
C321 H287 0.930 . S
C321 C320 1.358 . S
C321 C322 1.405 . S
C322 H288 0.932 . S
C322 C321 1.405 . S
C322 C323 1.383 . S
C323 C322 1.383 . S
C323 C324 1.393 . S
C324 H289 0.931 . S
C324 C323 1.393 . S
C324 C325 1.382 . S
C325 H290 0.929 . S
C325 C320 1.371 . S
C325 C324 1.382 . S
C326 N294 1.423 . S
C326 C327 1.362 . S
C326 C331 1.388 . S
C327 H291 0.929 . S
C327 C326 1.362 . S
C327 C328 1.376 . S
C328 H292 0.931 . S
C328 C327 1.376 . S
C328 C329 1.396 . S
C329 C311 1.472 . S
C329 C328 1.396 . S
C329 C330 1.348 . S
C330 H293 0.929 . S
C330 C329 1.348 . S
C330 C331 1.443 . S
C331 H295 0.932 . S
C331 C326 1.388 . S
C331 C330 1.443 . S
H332 C359 0.929 . S
N333 C358 1.433 . S
N333 C364 1.435 . S
N333 C370 1.423 . S
H334 C360 0.930 . S
H335 C363 0.931 . S
H336 C362 0.929 . S
H337 C365 0.930 . S
H338 C366 0.932 . S
H339 C369 0.929 . S
H340 C368 0.931 . S
H341 C371 0.929 . S
H342 C375 0.932 . S
H343 C372 0.931 . S
H344 C374 0.929 . S
H345 C377 0.929 . S
H346 C378 0.930 . S
H347 C380 0.929 . S
H348 C381 0.931 . S
H349 C383 0.930 . S
H350 C384 0.932 . S
H351 C386 0.931 . S
H352 C387 0.929 . S
H353 C389 0.929 . S
H354 C390 0.931 . S
H355 C392 0.929 . S
N356 C376 1.433 . S
N356 C382 1.435 . S
N356 C388 1.423 . S
H357 C393 0.932 . S
C358 N333 1.433 . S
C358 C359 1.363 . S
C358 C363 1.370 . S
C359 H332 0.929 . S
C359 C358 1.363 . S
C359 C360 1.385 . S
C360 H334 0.930 . S
C360 C359 1.385 . S
C360 C361 1.357 . S
C361 C360 1.357 . S
C361 C362 1.406 . S
C362 H336 0.929 . S
C362 C361 1.406 . S
C362 C363 1.391 . S
C363 H335 0.931 . S
C363 C358 1.370 . S
C363 C362 1.391 . S
C364 N333 1.435 . S
C364 C365 1.358 . S
C364 C369 1.371 . S
C365 H337 0.930 . S
C365 C364 1.358 . S
C365 C366 1.405 . S
C366 H338 0.932 . S
C366 C365 1.405 . S
C366 C367 1.383 . S
C367 C366 1.383 . S
C367 C368 1.393 . S
C368 H340 0.931 . S
C368 C367 1.393 . S
C368 C369 1.382 . S
C369 H339 0.929 . S
C369 C364 1.371 . S
C369 C368 1.382 . S
C370 N333 1.423 . S
C370 C371 1.362 . S
C370 C375 1.388 . S
C371 H341 0.929 . S
C371 C370 1.362 . S
C371 C372 1.376 . S
C372 H343 0.931 . S
C372 C371 1.376 . S
C372 C373 1.396 . S
C373 C372 1.396 . S
C373 C374 1.348 . S
C373 C391 1.472 . S
C374 H344 0.929 . S
C374 C373 1.348 . S
C374 C375 1.443 . S
C375 H342 0.932 . S
C375 C370 1.388 . S
C375 C374 1.443 . S
C376 N356 1.433 . S
C376 C377 1.363 . S
C376 C381 1.370 . S
C377 H345 0.929 . S
C377 C376 1.363 . S
C377 C378 1.385 . S
C378 H346 0.930 . S
C378 C377 1.385 . S
C378 C379 1.357 . S
C379 C378 1.357 . S
C379 C380 1.406 . S
C380 H347 0.929 . S
C380 C379 1.406 . S
C380 C381 1.391 . S
C381 H348 0.931 . S
C381 C376 1.370 . S
C381 C380 1.391 . S
C382 N356 1.435 . S
C382 C383 1.358 . S
C382 C387 1.371 . S
C383 H349 0.930 . S
C383 C382 1.358 . S
C383 C384 1.405 . S
C384 H350 0.932 . S
C384 C383 1.405 . S
C384 C385 1.383 . S
C385 C384 1.383 . S
C385 C386 1.393 . S
C386 H351 0.931 . S
C386 C385 1.393 . S
C386 C387 1.382 . S
C387 H352 0.929 . S
C387 C382 1.371 . S
C387 C386 1.382 . S
C388 N356 1.423 . S
C388 C389 1.362 . S
C388 C393 1.388 . S
C389 H353 0.929 . S
C389 C388 1.362 . S
C389 C390 1.376 . S
C390 H354 0.931 . S
C390 C389 1.376 . S
C390 C391 1.396 . S
C391 C373 1.472 . S
C391 C390 1.396 . S
C391 C392 1.348 . S
C392 H355 0.929 . S
C392 C391 1.348 . S
C392 C393 1.443 . S
C393 H357 0.932 . S
C393 C388 1.388 . S
C393 C392 1.443 . S
H394 C421 0.929 . S
N395 C420 1.433 . S
N395 C426 1.435 . S
N395 C432 1.423 . S
H396 C422 0.930 . S
H397 C425 0.931 . S
H398 C424 0.929 . S
H399 C427 0.930 . S
H400 C428 0.932 . S
H401 C431 0.929 . S
H402 C430 0.931 . S
H403 C433 0.929 . S
H404 C437 0.932 . S
H405 C434 0.931 . S
H406 C436 0.929 . S
H407 C439 0.929 . S
H408 C440 0.930 . S
H409 C442 0.929 . S
H410 C443 0.931 . S
H411 C445 0.930 . S
H412 C446 0.932 . S
H413 C448 0.931 . S
H414 C449 0.929 . S
H415 C451 0.929 . S
H416 C452 0.931 . S
H417 C454 0.929 . S
N418 C438 1.433 . S
N418 C444 1.435 . S
N418 C450 1.423 . S
H419 C455 0.932 . S
C420 N395 1.433 . S
C420 C421 1.363 . S
C420 C425 1.370 . S
C421 H394 0.929 . S
C421 C420 1.363 . S
C421 C422 1.385 . S
C422 H396 0.930 . S
C422 C421 1.385 . S
C422 C423 1.357 . S
C423 C422 1.357 . S
C423 C424 1.406 . S
C424 H398 0.929 . S
C424 C423 1.406 . S
C424 C425 1.391 . S
C425 H397 0.931 . S
C425 C420 1.370 . S
C425 C424 1.391 . S
C426 N395 1.435 . S
C426 C427 1.358 . S
C426 C431 1.371 . S
C427 H399 0.930 . S
C427 C426 1.358 . S
C427 C428 1.405 . S
C428 H400 0.932 . S
C428 C427 1.405 . S
C428 C429 1.383 . S
C429 C428 1.383 . S
C429 C430 1.393 . S
C430 H402 0.931 . S
C430 C429 1.393 . S
C430 C431 1.382 . S
C431 H401 0.929 . S
C431 C426 1.371 . S
C431 C430 1.382 . S
C432 N395 1.423 . S
C432 C433 1.362 . S
C432 C437 1.388 . S
C433 H403 0.929 . S
C433 C432 1.362 . S
C433 C434 1.376 . S
C434 H405 0.931 . S
C434 C433 1.376 . S
C434 C435 1.396 . S
C435 C434 1.396 . S
C435 C436 1.348 . S
C435 C453 1.472 . S
C436 H406 0.929 . S
C436 C435 1.348 . S
C436 C437 1.443 . S
C437 H404 0.932 . S
C437 C432 1.388 . S
C437 C436 1.443 . S
C438 N418 1.433 . S
C438 C439 1.363 . S
C438 C443 1.370 . S
C439 H407 0.929 . S
C439 C438 1.363 . S
C439 C440 1.385 . S
C440 H408 0.930 . S
C440 C439 1.385 . S
C440 C441 1.357 . S
C441 C440 1.357 . S
C441 C442 1.406 . S
C442 H409 0.929 . S
C442 C441 1.406 . S
C442 C443 1.391 . S
C443 H410 0.931 . S
C443 C438 1.370 . S
C443 C442 1.391 . S
C444 N418 1.435 . S
C444 C445 1.358 . S
C444 C449 1.371 . S
C445 H411 0.930 . S
C445 C444 1.358 . S
C445 C446 1.405 . S
C446 H412 0.932 . S
C446 C445 1.405 . S
C446 C447 1.383 . S
C447 C446 1.383 . S
C447 C448 1.393 . S
C448 H413 0.931 . S
C448 C447 1.393 . S
C448 C449 1.382 . S
C449 H414 0.929 . S
C449 C444 1.371 . S
C449 C448 1.382 . S
C450 N418 1.423 . S
C450 C451 1.362 . S
C450 C455 1.388 . S
C451 H415 0.929 . S
C451 C450 1.362 . S
C451 C452 1.376 . S
C452 H416 0.931 . S
C452 C451 1.376 . S
C452 C453 1.396 . S
C453 C435 1.472 . S
C453 C452 1.396 . S
C453 C454 1.348 . S
C454 H417 0.929 . S
C454 C453 1.348 . S
C454 C455 1.443 . S
C455 H419 0.932 . S
C455 C450 1.388 . S
C455 C454 1.443 . S
C456 C457 1.391 . S
C456 C458 1.394 . S
C456 H472 0.931 . S
C457 C456 1.391 . S
C457 C461 1.376 . S
C458 C456 1.394 . S
C458 C459 1.369 . S
C458 C462 1.531 . S
C459 C458 1.369 . S
C459 C460 1.410 . S
C459 C467 1.503 . S
C460 C459 1.410 . S
C460 C461 1.392 . S
C460 C463 1.511 . S
C461 C457 1.376 . S
C461 C460 1.392 . S
C461 H473 0.929 . S
C462 C458 1.531 . S
C462 H474 0.960 . S
C462 H475 0.962 . S
C462 H476 0.960 . S
C463 C460 1.511 . S
C463 H477 0.961 . S
C463 H478 0.961 . S
C463 H479 0.961 . S
C464 C465 1.370 . S
C464 C466 1.363 . S
C464 H480 0.931 . S
C465 C464 1.370 . S
C465 C469 1.408 . S
C466 C464 1.363 . S
C466 C467 1.370 . S
C466 C470 1.524 . S
C467 C459 1.503 . S
C467 C466 1.370 . S
C467 C468 1.403 . S
C468 C467 1.403 . S
C468 C469 1.404 . S
C468 C471 1.539 . S
C469 C465 1.408 . S
C469 C468 1.404 . S
C469 H481 0.930 . S
C470 C466 1.524 . S
C470 H482 0.956 . S
C470 H483 0.961 . S
C470 H484 0.961 . S
C471 C468 1.539 . S
C471 H485 0.958 . S
C471 H486 0.961 . S
C471 H487 0.960 . S
H472 C456 0.931 . S
H473 C461 0.929 . S
H474 C462 0.960 . S
H475 C462 0.962 . S
H476 C462 0.960 . S
H477 C463 0.961 . S
H478 C463 0.961 . S
H479 C463 0.961 . S
H480 C464 0.931 . S
H481 C469 0.930 . S
H482 C470 0.956 . S
H483 C470 0.961 . S
H484 C470 0.961 . S
H485 C471 0.958 . S
H486 C471 0.961 . S
H487 C471 0.960 . S
C488 C489 1.391 . S
C488 C490 1.394 . S
C488 H504 0.931 . S
C489 C488 1.391 . S
C489 C493 1.376 . S
C490 C488 1.394 . S
C490 C491 1.369 . S
C490 C494 1.531 . S
C491 C490 1.369 . S
C491 C492 1.410 . S
C491 C499 1.503 . S
C492 C491 1.410 . S
C492 C493 1.392 . S
C492 C495 1.511 . S
C493 C489 1.376 . S
C493 C492 1.392 . S
C493 H505 0.929 . S
C494 C490 1.531 . S
C494 H506 0.960 . S
C494 H507 0.962 . S
C494 H508 0.960 . S
C495 C492 1.511 . S
C495 H509 0.961 . S
C495 H510 0.961 . S
C495 H511 0.961 . S
C496 C497 1.370 . S
C496 C498 1.363 . S
C496 H512 0.931 . S
C497 C496 1.370 . S
C497 C501 1.408 . S
C498 C496 1.363 . S
C498 C499 1.370 . S
C498 C502 1.524 . S
C499 C491 1.503 . S
C499 C498 1.370 . S
C499 C500 1.403 . S
C500 C499 1.403 . S
C500 C501 1.404 . S
C500 C503 1.539 . S
C501 C497 1.408 . S
C501 C500 1.404 . S
C501 H513 0.930 . S
C502 C498 1.524 . S
C502 H514 0.956 . S
C502 H515 0.961 . S
C502 H516 0.961 . S
C503 C500 1.539 . S
C503 H517 0.958 . S
C503 H518 0.961 . S
C503 H519 0.960 . S
H504 C488 0.931 . S
H505 C493 0.929 . S
H506 C494 0.960 . S
H507 C494 0.962 . S
H508 C494 0.960 . S
H509 C495 0.961 . S
H510 C495 0.961 . S
H511 C495 0.961 . S
H512 C496 0.931 . S
H513 C501 0.930 . S
H514 C502 0.956 . S
H515 C502 0.961 . S
H516 C502 0.961 . S
H517 C503 0.958 . S
H518 C503 0.961 . S
H519 C503 0.960 . S
C520 C521 1.391 . S
C520 C522 1.394 . S
C520 H536 0.931 . S
C521 C520 1.391 . S
C521 C525 1.376 . S
C522 C520 1.394 . S
C522 C523 1.369 . S
C522 C526 1.531 . S
C523 C522 1.369 . S
C523 C524 1.410 . S
C523 C531 1.503 . S
C524 C523 1.410 . S
C524 C525 1.392 . S
C524 C527 1.511 . S
C525 C521 1.376 . S
C525 C524 1.392 . S
C525 H537 0.929 . S
C526 C522 1.531 . S
C526 H538 0.960 . S
C526 H539 0.962 . S
C526 H540 0.960 . S
C527 C524 1.511 . S
C527 H541 0.961 . S
C527 H542 0.961 . S
C527 H543 0.961 . S
C528 C529 1.370 . S
C528 C530 1.363 . S
C528 H544 0.931 . S
C529 C528 1.370 . S
C529 C533 1.408 . S
C530 C528 1.363 . S
C530 C531 1.370 . S
C530 C534 1.524 . S
C531 C523 1.503 . S
C531 C530 1.370 . S
C531 C532 1.403 . S
C532 C531 1.403 . S
C532 C533 1.404 . S
C532 C535 1.539 . S
C533 C529 1.408 . S
C533 C532 1.404 . S
C533 H545 0.930 . S
C534 C530 1.524 . S
C534 H546 0.956 . S
C534 H547 0.961 . S
C534 H548 0.961 . S
C535 C532 1.539 . S
C535 H549 0.958 . S
C535 H550 0.961 . S
C535 H551 0.960 . S
H536 C520 0.931 . S
H537 C525 0.929 . S
H538 C526 0.960 . S
H539 C526 0.962 . S
H540 C526 0.960 . S
H541 C527 0.961 . S
H542 C527 0.961 . S
H543 C527 0.961 . S
H544 C528 0.931 . S
H545 C533 0.930 . S
H546 C534 0.956 . S
H547 C534 0.961 . S
H548 C534 0.961 . S
H549 C535 0.958 . S
H550 C535 0.961 . S
H551 C535 0.960 . S
C552 C553 1.391 . S
C552 C554 1.394 . S
C552 H568 0.931 . S
C553 C552 1.391 . S
C553 C557 1.376 1_455 S
C554 C552 1.394 . S
C554 C555 1.369 1_455 S
C554 C558 1.531 . S
C555 C554 1.369 1_655 S
C555 C556 1.410 . S
C555 C563 1.503 . S
C556 C555 1.410 . S
C556 C557 1.392 . S
C556 C559 1.511 . S
C557 C553 1.376 1_655 S
C557 C556 1.392 . S
C557 H569 0.929 . S
C558 C554 1.531 . S
C558 H570 0.960 . S
C558 H571 0.962 . S
C558 H572 0.960 . S
C559 C556 1.511 . S
C559 H573 0.961 . S
C559 H574 0.961 . S
C559 H575 0.961 . S
C560 C561 1.370 . S
C560 C562 1.363 . S
C560 H576 0.931 . S
C561 C560 1.370 . S
C561 C565 1.408 . S
C562 C560 1.363 . S
C562 C563 1.370 . S
C562 C566 1.524 . S
C563 C555 1.503 . S
C563 C562 1.370 . S
C563 C564 1.403 . S
C564 C563 1.403 . S
C564 C565 1.404 . S
C564 C567 1.539 . S
C565 C561 1.408 . S
C565 C564 1.404 . S
C565 H577 0.930 . S
C566 C562 1.524 . S
C566 H578 0.956 . S
C566 H579 0.961 . S
C566 H580 0.961 . S
C567 C564 1.539 . S
C567 H581 0.958 1_655 S
C567 H582 0.961 . S
C567 H583 0.960 . S
H568 C552 0.931 . S
H569 C557 0.929 . S
H570 C558 0.960 . S
H571 C558 0.962 . S
H572 C558 0.960 . S
H573 C559 0.961 . S
H574 C559 0.961 . S
H575 C559 0.961 . S
H576 C560 0.931 . S
H577 C565 0.930 . S
H578 C566 0.956 . S
H579 C566 0.961 . S
H580 C566 0.961 . S
H581 C567 0.958 1_455 S
H582 C567 0.961 . S
H583 C567 0.960 . S
C584 C585 1.391 . S
C584 C586 1.394 . S
C584 H600 0.931 . S
C585 C584 1.391 . S
C585 C589 1.376 . S
C586 C584 1.394 . S
C586 C587 1.369 . S
C586 C590 1.531 . S
C587 C586 1.369 . S
C587 C588 1.410 . S
C587 C595 1.503 . S
C588 C587 1.410 . S
C588 C589 1.392 . S
C588 C591 1.511 . S
C589 C585 1.376 . S
C589 C588 1.392 . S
C589 H601 0.929 . S
C590 C586 1.531 . S
C590 H602 0.960 . S
C590 H603 0.962 . S
C590 H604 0.960 . S
C591 C588 1.511 . S
C591 H605 0.992 . S
C591 H606 0.961 . S
C591 H607 0.961 . S
C592 C593 1.370 . S
C592 C594 1.363 . S
C592 H608 0.931 . S
C593 C592 1.370 . S
C593 C597 1.408 . S
C594 C592 1.363 . S
C594 C595 1.370 . S
C594 C598 1.524 . S
C595 C587 1.503 . S
C595 C594 1.370 . S
C595 C596 1.403 . S
C596 C595 1.403 . S
C596 C597 1.404 . S
C596 C599 1.539 . S
C597 C593 1.408 . S
C597 C596 1.404 . S
C597 H609 0.930 . S
C598 C594 1.524 . S
C598 H610 0.956 . S
C598 H611 0.961 . S
C598 H612 0.961 . S
C599 C596 1.539 . S
C599 H613 0.958 . S
C599 H614 0.961 . S
C599 H615 0.960 . S
H600 C584 0.931 . S
H601 C589 0.929 . S
H602 C590 0.960 . S
H603 C590 0.962 . S
H604 C590 0.960 . S
H605 C591 0.992 . S
H606 C591 0.961 . S
H607 C591 0.961 . S
H608 C592 0.931 . S
H609 C597 0.930 . S
H610 C598 0.956 . S
H611 C598 0.961 . S
H612 C598 0.961 . S
H613 C599 0.958 . S
H614 C599 0.961 . S
H615 C599 0.960 . S
C616 C617 1.391 . S
C616 C618 1.394 . S
C616 H632 0.931 . S
C617 C616 1.391 . S
C617 C621 1.376 . S
C618 C616 1.394 . S
C618 C619 1.369 . S
C618 C622 1.531 . S
C619 C618 1.369 . S
C619 C620 1.410 . S
C619 C627 1.503 . S
C620 C619 1.410 . S
C620 C621 1.392 . S
C620 C623 1.511 . S
C621 C617 1.376 . S
C621 C620 1.392 . S
C621 H633 0.929 . S
C622 C618 1.531 . S
C622 H634 0.960 . S
C622 H635 0.962 . S
C622 H636 0.960 . S
C623 C620 1.511 . S
C623 H637 0.961 . S
C623 H638 0.961 . S
C623 H639 0.961 . S
C624 C625 1.370 . S
C624 C626 1.363 . S
C624 H640 0.931 . S
C625 C624 1.370 . S
C625 C629 1.408 . S
C626 C624 1.363 . S
C626 C627 1.370 . S
C626 C630 1.524 . S
C627 C619 1.503 . S
C627 C626 1.370 . S
C627 C628 1.403 . S
C628 C627 1.403 . S
C628 C629 1.404 . S
C628 C631 1.539 . S
C629 C625 1.408 . S
C629 C628 1.404 . S
C629 H641 0.930 . S
C630 C626 1.524 . S
C630 H642 0.956 . S
C630 H643 0.961 . S
C630 H644 0.961 . S
C631 C628 1.539 . S
C631 H645 0.958 . S
C631 H646 0.961 . S
C631 H647 0.960 . S
H632 C616 0.931 . S
H633 C621 0.929 . S
H634 C622 0.960 . S
H635 C622 0.962 . S
H636 C622 0.960 . S
H637 C623 0.961 . S
H638 C623 0.961 . S
H639 C623 0.961 . S
H640 C624 0.931 . S
H641 C629 0.930 . S
H642 C630 0.956 . S
H643 C630 0.961 . S
H644 C630 0.961 . S
H645 C631 0.958 . S
H646 C631 0.961 . S
H647 C631 0.960 . S
C648 C649 1.391 . S
C648 C650 1.394 . S
C648 H664 0.931 . S
C649 C648 1.391 . S
C649 C653 1.376 . S
C650 C648 1.394 . S
C650 C651 1.369 . S
C650 C654 1.531 . S
C651 C650 1.369 . S
C651 C652 1.410 . S
C651 C659 1.503 . S
C652 C651 1.410 . S
C652 C653 1.392 . S
C652 C655 1.511 . S
C653 C649 1.376 . S
C653 C652 1.392 . S
C653 H665 0.929 . S
C654 C650 1.531 . S
C654 H666 0.960 . S
C654 H667 0.962 . S
C654 H668 0.960 . S
C655 C652 1.511 . S
C655 H669 0.961 . S
C655 H670 0.961 . S
C655 H671 0.961 . S
C656 C657 1.370 . S
C656 C658 1.363 . S
C656 H672 0.931 . S
C657 C656 1.370 . S
C657 C661 1.408 . S
C658 C656 1.363 . S
C658 C659 1.370 . S
C658 C662 1.524 . S
C659 C651 1.503 . S
C659 C658 1.370 . S
C659 C660 1.403 . S
C660 C659 1.403 . S
C660 C661 1.404 . S
C660 C663 1.539 . S
C661 C657 1.408 . S
C661 C660 1.404 . S
C661 H673 0.930 . S
C662 C658 1.524 . S
C662 H674 0.956 . S
C662 H675 0.961 . S
C662 H676 0.961 . S
C663 C660 1.539 . S
C663 H677 0.958 . S
C663 H678 0.961 . S
C663 H679 0.960 . S
H664 C648 0.931 . S
H665 C653 0.929 . S
H666 C654 0.960 . S
H667 C654 0.962 . S
H668 C654 0.960 . S
H669 C655 0.961 . S
H670 C655 0.961 . S
H671 C655 0.961 . S
H672 C656 0.931 . S
H673 C661 0.930 . S
H674 C662 0.956 . S
H675 C662 0.961 . S
H676 C662 0.961 . S
H677 C663 0.958 . S
H678 C663 0.961 . S
H679 C663 0.960 . S
C680 C681 1.391 . S
C680 C682 1.394 . S
C680 H696 0.931 . S
C681 C680 1.391 . S
C681 C685 1.376 . S
C682 C680 1.394 . S
C682 C683 1.369 . S
C682 C686 1.531 . S
C683 C682 1.369 . S
C683 C684 1.410 . S
C683 C691 1.503 . S
C684 C683 1.410 . S
C684 C685 1.392 . S
C684 C687 1.511 . S
C685 C681 1.376 . S
C685 C684 1.392 . S
C685 H697 0.929 . S
C686 C682 1.531 . S
C686 H698 0.960 . S
C686 H699 0.962 . S
C686 H700 0.960 . S
C687 C684 1.511 . S
C687 H701 0.961 . S
C687 H702 0.961 . S
C687 H703 0.961 . S
C688 C689 1.370 . S
C688 C690 1.363 . S
C688 H704 0.931 . S
C689 C688 1.370 . S
C689 C693 1.408 . S
C690 C688 1.363 . S
C690 C691 1.370 . S
C690 C694 1.524 . S
C691 C683 1.503 . S
C691 C690 1.370 . S
C691 C692 1.403 . S
C692 C691 1.403 . S
C692 C693 1.404 . S
C692 C695 1.539 . S
C693 C689 1.408 . S
C693 C692 1.404 . S
C693 H705 0.930 . S
C694 C690 1.524 . S
C694 H706 0.956 . S
C694 H707 0.961 . S
C694 H708 0.961 . S
C695 C692 1.539 . S
C695 H709 0.958 . S
C695 H710 0.961 . S
C695 H711 0.960 . S
H696 C680 0.931 . S
H697 C685 0.929 . S
H698 C686 0.960 . S
H699 C686 0.962 . S
H700 C686 0.960 . S
H701 C687 0.961 . S
H702 C687 0.961 . S
H703 C687 0.961 . S
H704 C688 0.931 . S
H705 C693 0.930 . S
H706 C694 0.956 . S
H707 C694 0.961 . S
H708 C694 0.961 . S
H709 C695 0.958 . S
H710 C695 0.961 . S
H711 C695 0.960 . S
C712 C713 1.391 . S
C712 C714 1.394 . S
C712 H728 0.931 . S
C713 C712 1.391 . S
C713 C717 1.376 . S
C714 C712 1.394 . S
C714 C715 1.369 . S
C714 C718 1.531 . S
C715 C714 1.369 . S
C715 C716 1.410 . S
C715 C723 1.503 . S
C716 C715 1.410 . S
C716 C717 1.392 . S
C716 C719 1.511 . S
C717 C713 1.376 . S
C717 C716 1.392 . S
C717 H729 0.929 . S
C718 C714 1.531 . S
C718 H730 0.960 . S
C718 H731 0.962 . S
C718 H732 0.960 . S
C719 C716 1.511 . S
C719 H733 0.961 . S
C719 H734 0.961 . S
C719 H735 0.961 . S
C720 C721 1.370 . S
C720 C722 1.363 . S
C720 H736 0.931 . S
C721 C720 1.370 . S
C721 C725 1.408 . S
C722 C720 1.363 . S
C722 C723 1.370 . S
C722 C726 1.524 . S
C723 C715 1.503 . S
C723 C722 1.370 . S
C723 C724 1.403 . S
C724 C723 1.403 . S
C724 C725 1.404 . S
C724 C727 1.539 . S
C725 C721 1.408 . S
C725 C724 1.404 . S
C725 H737 0.930 . S
C726 C722 1.524 . S
C726 H738 0.956 . S
C726 H739 0.961 . S
C726 H740 0.961 . S
C727 C724 1.539 . S
C727 H741 0.958 . S
C727 H742 0.961 . S
C727 H743 0.960 . S
H728 C712 0.931 . S
H729 C717 0.929 . S
H730 C718 0.960 . S
H731 C718 0.962 . S
H732 C718 0.960 . S
H733 C719 0.961 . S
H734 C719 0.961 . S
H735 C719 0.961 . S
H736 C720 0.931 . S
H737 C725 0.930 . S
H738 C726 0.956 . S
H739 C726 0.961 . S
H740 C726 0.961 . S
H741 C727 0.958 . S
H742 C727 0.961 . S
H743 C727 0.960 . S
C744 C745 1.391 . S
C744 C746 1.394 . S
C744 H760 0.931 . S
C745 C744 1.391 . S
C745 C749 1.376 . S
C746 C744 1.394 . S
C746 C747 1.369 . S
C746 C750 1.531 . S
C747 C746 1.369 . S
C747 C748 1.410 . S
C747 C755 1.503 . S
C748 C747 1.410 . S
C748 C749 1.392 . S
C748 C751 1.511 . S
C749 C745 1.376 . S
C749 C748 1.392 . S
C749 H761 0.929 . S
C750 C746 1.531 . S
C750 H762 0.960 . S
C750 H763 0.962 . S
C750 H764 0.960 . S
C751 C748 1.511 . S
C751 H765 0.961 . S
C751 H766 0.961 . S
C751 H767 0.961 . S
C752 C753 1.370 . S
C752 C754 1.363 . S
C752 H768 0.931 . S
C753 C752 1.370 . S
C753 C757 1.408 . S
C754 C752 1.363 . S
C754 C755 1.370 . S
C754 C758 1.524 . S
C755 C747 1.503 . S
C755 C754 1.370 . S
C755 C756 1.403 . S
C756 C755 1.403 . S
C756 C757 1.404 . S
C756 C759 1.539 . S
C757 C753 1.408 . S
C757 C756 1.404 . S
C757 H769 0.930 . S
C758 C754 1.524 . S
C758 H770 0.956 . S
C758 H771 0.961 . S
C758 H772 0.961 . S
C759 C756 1.539 . S
C759 H773 0.958 . S
C759 H774 0.961 . S
C759 H775 0.960 . S
H760 C744 0.931 . S
H761 C749 0.929 . S
H762 C750 0.960 . S
H763 C750 0.962 . S
H764 C750 0.960 . S
H765 C751 0.961 . S
H766 C751 0.961 . S
H767 C751 0.961 . S
H768 C752 0.931 . S
H769 C757 0.930 . S
H770 C758 0.956 . S
H771 C758 0.961 . S
H772 C758 0.961 . S
H773 C759 0.958 . S
H774 C759 0.961 . S
H775 C759 0.960 . S
C776 C777 1.391 . S
C776 C778 1.394 . S
C776 H792 0.931 . S
C777 C776 1.391 . S
C777 C781 1.376 . S
C778 C776 1.394 . S
C778 C779 1.369 . S
C778 C782 1.531 . S
C779 C778 1.369 . S
C779 C780 1.410 . S
C779 C787 1.503 . S
C780 C779 1.410 . S
C780 C781 1.392 . S
C780 C783 1.511 . S
C781 C777 1.376 . S
C781 C780 1.392 . S
C781 H793 0.929 . S
C782 C778 1.531 . S
C782 H794 0.960 . S
C782 H795 0.962 . S
C782 H796 0.960 . S
C783 C780 1.511 . S
C783 H797 0.961 . S
C783 H798 0.961 . S
C783 H799 0.961 . S
C784 C785 1.370 . S
C784 C786 1.363 . S
C784 H800 0.931 . S
C785 C784 1.370 . S
C785 C789 1.408 . S
C786 C784 1.363 . S
C786 C787 1.370 . S
C786 C790 1.524 . S
C787 C779 1.503 . S
C787 C786 1.370 . S
C787 C788 1.403 . S
C788 C787 1.403 . S
C788 C789 1.404 . S
C788 C791 1.539 . S
C789 C785 1.408 . S
C789 C788 1.404 . S
C789 H801 0.930 . S
C790 C786 1.524 . S
C790 H802 0.956 . S
C790 H803 0.961 . S
C790 H804 0.961 . S
C791 C788 1.539 . S
C791 H805 0.958 . S
C791 H806 0.961 . S
C791 H807 0.960 . S
H792 C776 0.931 . S
H793 C781 0.929 . S
H794 C782 0.960 . S
H795 C782 0.962 . S
H796 C782 0.960 . S
H797 C783 0.961 . S
H798 C783 0.961 . S
H799 C783 0.961 . S
H800 C784 0.931 . S
H801 C789 0.930 . S
H802 C790 0.956 . S
H803 C790 0.961 . S
H804 C790 0.961 . S
H805 C791 0.958 . S
H806 C791 0.961 . S
H807 C791 0.960 . S
C808 C809 1.391 . S
C808 C810 1.394 . S
C808 H824 0.931 . S
C809 C808 1.391 . S
C809 C813 1.376 1_554 S
C810 C808 1.394 . S
C810 C811 1.369 1_554 S
C810 C814 1.531 . S
C811 C810 1.369 1_556 S
C811 C812 1.410 . S
C811 C819 1.503 . S
C812 C811 1.410 . S
C812 C813 1.392 . S
C812 C815 1.511 . S
C813 C809 1.376 1_556 S
C813 C812 1.392 . S
C813 H825 0.929 . S
C814 C810 1.531 . S
C814 H826 0.960 . S
C814 H827 0.962 . S
C814 H828 0.960 . S
C815 C812 1.511 . S
C815 H829 0.961 . S
C815 H830 0.961 . S
C815 H831 0.961 . S
C816 C817 1.370 . S
C816 C818 1.363 . S
C816 H832 0.931 . S
C817 C816 1.370 . S
C817 C821 1.408 . S
C818 C816 1.363 . S
C818 C819 1.370 . S
C818 C822 1.524 . S
C819 C811 1.503 . S
C819 C818 1.370 . S
C819 C820 1.403 . S
C820 C819 1.403 . S
C820 C821 1.404 . S
C820 C823 1.539 . S
C821 C817 1.408 . S
C821 C820 1.404 . S
C821 H833 0.930 . S
C822 C818 1.524 . S
C822 H834 0.956 . S
C822 H835 0.961 . S
C822 H836 0.961 . S
C823 C820 1.539 . S
C823 H837 0.958 1_556 S
C823 H838 0.961 . S
C823 H839 0.960 . S
H824 C808 0.931 . S
H825 C813 0.929 . S
H826 C814 0.960 . S
H827 C814 0.962 . S
H828 C814 0.960 . S
H829 C815 0.961 . S
H830 C815 0.961 . S
H831 C815 0.961 . S
H832 C816 0.931 . S
H833 C821 0.930 . S
H834 C822 0.956 . S
H835 C822 0.961 . S
H836 C822 0.961 . S
H837 C823 0.958 1_554 S
H838 C823 0.961 . S
H839 C823 0.960 . S
C840 C841 1.391 . S
C840 C842 1.394 1_554 S
C840 H856 0.931 . S
C841 C840 1.391 . S
C841 C845 1.376 1_554 S
C842 C840 1.394 1_556 S
C842 C843 1.369 . S
C842 C846 1.531 . S
C843 C842 1.369 . S
C843 C844 1.410 . S
C843 C851 1.503 . S
C844 C843 1.410 . S
C844 C845 1.392 . S
C844 C847 1.511 . S
C845 C841 1.376 1_556 S
C845 C844 1.392 . S
C845 H857 0.929 . S
C846 C842 1.531 . S
C846 H858 0.960 . S
C846 H859 0.962 . S
C846 H860 0.960 1_556 S
C847 C844 1.511 . S
C847 H861 0.961 . S
C847 H862 0.961 . S
C847 H863 0.961 . S
C848 C849 1.370 . S
C848 C850 1.363 . S
C848 H864 0.931 . S
C849 C848 1.370 . S
C849 C853 1.408 . S
C850 C848 1.363 . S
C850 C851 1.370 . S
C850 C854 1.524 . S
C851 C843 1.503 . S
C851 C850 1.370 . S
C851 C852 1.403 . S
C852 C851 1.403 . S
C852 C853 1.404 . S
C852 C855 1.539 1_556 S
C853 C849 1.408 . S
C853 C852 1.404 . S
C853 H865 0.930 . S
C854 C850 1.524 . S
C854 H866 0.956 . S
C854 H867 0.961 . S
C854 H868 0.961 . S
C855 C852 1.539 1_554 S
C855 H869 0.958 . S
C855 H870 0.961 . S
C855 H871 0.960 . S
H856 C840 0.931 . S
H857 C845 0.929 . S
H858 C846 0.960 . S
H859 C846 0.962 . S
H860 C846 0.960 1_554 S
H861 C847 0.961 . S
H862 C847 0.961 . S
H863 C847 0.961 . S
H864 C848 0.931 . S
H865 C853 0.930 . S
H866 C854 0.956 . S
H867 C854 0.961 . S
H868 C854 0.961 . S
H869 C855 0.958 . S
H870 C855 0.961 . S
H871 C855 0.960 . S
C872 C873 1.391 . S
C872 C874 1.394 . S
C872 H888 0.931 . S
C873 C872 1.391 . S
C873 C877 1.376 . S
C874 C872 1.394 . S
C874 C875 1.369 . S
C874 C878 1.531 . S
C875 C874 1.369 . S
C875 C876 1.410 . S
C875 C883 1.503 . S
C876 C875 1.410 . S
C876 C877 1.392 . S
C876 C879 1.511 . S
C877 C873 1.376 . S
C877 C876 1.392 . S
C877 H889 0.929 . S
C878 C874 1.531 . S
C878 H890 0.960 . S
C878 H891 0.962 . S
C878 H892 0.960 . S
C879 C876 1.511 . S
C879 H893 0.961 . S
C879 H894 0.961 . S
C879 H895 0.961 . S
C880 C881 1.370 . S
C880 C882 1.363 . S
C880 H896 0.931 . S
C881 C880 1.370 . S
C881 C885 1.408 . S
C882 C880 1.363 . S
C882 C883 1.370 . S
C882 C886 1.524 . S
C883 C875 1.503 . S
C883 C882 1.370 . S
C883 C884 1.403 . S
C884 C883 1.403 . S
C884 C885 1.404 . S
C884 C887 1.539 . S
C885 C881 1.408 . S
C885 C884 1.404 . S
C885 H897 0.930 . S
C886 C882 1.524 . S
C886 H898 0.956 . S
C886 H899 0.961 . S
C886 H900 0.961 . S
C887 C884 1.539 . S
C887 H901 0.958 . S
C887 H902 0.961 . S
C887 H903 0.960 . S
H888 C872 0.931 . S
H889 C877 0.929 . S
H890 C878 0.960 . S
H891 C878 0.962 . S
H892 C878 0.960 . S
H893 C879 0.961 . S
H894 C879 0.961 . S
H895 C879 0.961 . S
H896 C880 0.931 . S
H897 C885 0.930 . S
H898 C886 0.956 . S
H899 C886 0.961 . S
H900 C886 0.961 . S
H901 C887 0.958 . S
H902 C887 0.961 . S
H903 C887 0.960 . S
C904 C905 1.391 . S
C904 C906 1.394 . S
C904 H920 0.931 . S
C905 C904 1.391 . S
C905 C909 1.376 . S
C906 C904 1.394 . S
C906 C907 1.369 . S
C906 C910 1.531 . S
C907 C906 1.369 . S
C907 C908 1.410 . S
C907 C915 1.503 . S
C908 C907 1.410 . S
C908 C909 1.392 . S
C908 C911 1.511 . S
C909 C905 1.376 . S
C909 C908 1.392 . S
C909 H921 0.929 . S
C910 C906 1.531 . S
C910 H922 0.960 . S
C910 H923 0.962 . S
C910 H924 0.960 . S
C911 C908 1.511 . S
C911 H925 0.961 . S
C911 H926 0.961 . S
C911 H927 0.961 . S
C912 C913 1.370 . S
C912 C914 1.363 . S
C912 H928 0.931 . S
C913 C912 1.370 . S
C913 C917 1.408 . S
C914 C912 1.363 . S
C914 C915 1.370 . S
C914 C918 1.524 . S
C915 C907 1.503 . S
C915 C914 1.370 . S
C915 C916 1.403 . S
C916 C915 1.403 . S
C916 C917 1.404 . S
C916 C919 1.539 . S
C917 C913 1.408 . S
C917 C916 1.404 . S
C917 H929 0.930 . S
C918 C914 1.524 . S
C918 H930 0.956 . S
C918 H931 0.961 . S
C918 H932 0.961 . S
C919 C916 1.539 . S
C919 H933 0.958 . S
C919 H934 0.961 . S
C919 H935 0.960 . S
H920 C904 0.931 . S
H921 C909 0.929 . S
H922 C910 0.960 . S
H923 C910 0.962 . S
H924 C910 0.960 . S
H925 C911 0.961 . S
H926 C911 0.961 . S
H927 C911 0.961 . S
H928 C912 0.931 . S
H929 C917 0.930 . S
H930 C918 0.956 . S
H931 C918 0.961 . S
H932 C918 0.961 . S
H933 C919 0.958 . S
H934 C919 0.961 . S
H935 C919 0.960 . S
C936 C937 1.391 . S
C936 C938 1.394 . S
C936 H952 0.931 . S
C937 C936 1.391 . S
C937 C941 1.376 . S
C938 C936 1.394 . S
C938 C939 1.369 . S
C938 C942 1.531 . S
C939 C938 1.369 . S
C939 C940 1.410 . S
C939 C947 1.503 . S
C940 C939 1.410 . S
C940 C941 1.392 . S
C940 C943 1.511 . S
C941 C937 1.376 . S
C941 C940 1.392 . S
C941 H953 0.929 . S
C942 C938 1.531 . S
C942 H954 0.960 . S
C942 H955 0.962 . S
C942 H956 0.960 . S
C943 C940 1.511 . S
C943 H957 0.961 . S
C943 H958 0.961 . S
C943 H959 0.961 . S
C944 C945 1.370 . S
C944 C946 1.363 . S
C944 H960 0.931 . S
C945 C944 1.370 . S
C945 C949 1.408 . S
C946 C944 1.363 . S
C946 C947 1.370 . S
C946 C950 1.524 . S
C947 C939 1.503 . S
C947 C946 1.370 . S
C947 C948 1.403 . S
C948 C947 1.403 . S
C948 C949 1.404 . S
C948 C951 1.539 . S
C949 C945 1.408 . S
C949 C948 1.404 . S
C949 H961 0.930 . S
C950 C946 1.524 . S
C950 H962 0.956 . S
C950 H963 0.961 . S
C950 H964 0.961 . S
C951 C948 1.539 . S
C951 H965 0.958 . S
C951 H966 0.961 . S
C951 H967 0.960 . S
H952 C936 0.931 . S
H953 C941 0.929 . S
H954 C942 0.960 . S
H955 C942 0.962 . S
H956 C942 0.960 . S
H957 C943 0.961 . S
H958 C943 0.961 . S
H959 C943 0.961 . S
H960 C944 0.931 . S
H961 C949 0.930 . S
H962 C950 0.956 . S
H963 C950 0.961 . S
H964 C950 0.961 . S
H965 C951 0.958 . S
H966 C951 0.961 . S
H967 C951 0.960 . S
C968 C969 1.391 . S
C968 C970 1.394 . S
C968 H984 0.931 1_556 S
C969 C968 1.391 . S
C969 C973 1.376 . S
C970 C968 1.394 . S
C970 C971 1.369 . S
C970 C974 1.531 . S
C971 C970 1.369 . S
C971 C972 1.410 . S
C971 C979 1.503 . S
C972 C971 1.410 . S
C972 C973 1.392 . S
C972 C975 1.511 . S
C973 C969 1.376 . S
C973 C972 1.392 . S
C973 H985 0.929 . S
C974 C970 1.531 . S
C974 H986 0.960 . S
C974 H987 0.962 . S
C974 H988 0.960 1_556 S
C975 C972 1.511 . S
C975 H989 0.961 . S
C975 H990 0.961 . S
C975 H991 0.961 . S
C976 C977 1.370 . S
C976 C978 1.363 . S
C976 H992 0.931 . S
C977 C976 1.370 . S
C977 C981 1.408 . S
C978 C976 1.363 . S
C978 C979 1.370 . S
C978 C982 1.524 . S
C979 C971 1.503 . S
C979 C978 1.370 . S
C979 C980 1.403 . S
C980 C979 1.403 . S
C980 C981 1.404 . S
C980 C983 1.539 . S
C981 C977 1.408 . S
C981 C980 1.404 . S
C981 H993 0.930 . S
C982 C978 1.524 . S
C982 H994 0.956 . S
C982 H995 0.961 . S
C982 H996 0.961 . S
C983 C980 1.539 . S
C983 H997 0.958 . S
C983 H998 0.961 . S
C983 H999 0.960 . S
H984 C968 0.931 1_554 S
H985 C973 0.929 . S
H986 C974 0.960 . S
H987 C974 0.962 . S
H988 C974 0.960 1_554 S
H989 C975 0.961 . S
H990 C975 0.961 . S
H991 C975 0.961 . S
H992 C976 0.931 . S
H993 C981 0.930 . S
H994 C982 0.956 . S
H995 C982 0.961 . S
H996 C982 0.961 . S
H997 C983 0.958 . S
H998 C983 0.961 . S
H999 C983 0.960 . S
C1000 C1001 1.391 . S
C1000 C1002 1.394 . S
C1000 H1016 0.931 . S
C1001 C1000 1.391 . S
C1001 C1005 1.376 . S
C1002 C1000 1.394 . S
C1002 C1003 1.369 . S
C1002 C1006 1.531 . S
C1003 C1002 1.369 . S
C1003 C1004 1.410 . S
C1003 C1011 1.503 . S
C1004 C1003 1.410 . S
C1004 C1005 1.392 . S
C1004 C1007 1.511 . S
C1005 C1001 1.376 . S
C1005 C1004 1.392 . S
C1005 H1017 0.929 . S
C1006 C1002 1.531 . S
C1006 H1018 0.960 . S
C1006 H1019 0.962 . S
C1006 H1020 0.960 . S
C1007 C1004 1.511 . S
C1007 H1021 0.961 . S
C1007 H1022 0.961 . S
C1007 H1023 0.961 . S
C1008 C1009 1.370 . S
C1008 C1010 1.363 . S
C1008 H1024 0.931 . S
C1009 C1008 1.370 . S
C1009 C1013 1.408 . S
C1010 C1008 1.363 . S
C1010 C1011 1.370 . S
C1010 C1014 1.524 . S
C1011 C1003 1.503 . S
C1011 C1010 1.370 . S
C1011 C1012 1.403 . S
C1012 C1011 1.403 . S
C1012 C1013 1.404 . S
C1012 C1015 1.539 . S
C1013 C1009 1.408 . S
C1013 C1012 1.404 . S
C1013 H1025 0.930 . S
C1014 C1010 1.524 . S
C1014 H1026 0.956 . S
C1014 H1027 0.961 . S
C1014 H1028 0.961 . S
C1015 C1012 1.539 . S
C1015 H1029 0.958 . S
C1015 H1030 0.961 . S
C1015 H1031 0.960 . S
H1016 C1000 0.931 . S
H1017 C1005 0.929 . S
H1018 C1006 0.960 . S
H1019 C1006 0.962 . S
H1020 C1006 0.960 . S
H1021 C1007 0.961 . S
H1022 C1007 0.961 . S
H1023 C1007 0.961 . S
H1024 C1008 0.931 . S
H1025 C1013 0.930 . S
H1026 C1014 0.956 . S
H1027 C1014 0.961 . S
H1028 C1014 0.961 . S
H1029 C1015 0.958 . S
H1030 C1015 0.961 . S
H1031 C1015 0.960 . S
C1032 C1033 1.391 . S
C1032 C1034 1.394 . S
C1032 H1048 0.931 . S
C1033 C1032 1.391 . S
C1033 C1037 1.376 . S
C1034 C1032 1.394 . S
C1034 C1035 1.369 . S
C1034 C1038 1.531 . S
C1035 C1034 1.369 . S
C1035 C1036 1.410 . S
C1035 C1043 1.503 . S
C1036 C1035 1.410 . S
C1036 C1037 1.392 . S
C1036 C1039 1.511 . S
C1037 C1033 1.376 . S
C1037 C1036 1.392 . S
C1037 H1049 0.929 . S
C1038 C1034 1.531 . S
C1038 H1050 0.960 . S
C1038 H1051 0.962 . S
C1038 H1052 0.960 . S
C1039 C1036 1.511 . S
C1039 H1053 0.961 . S
C1039 H1054 0.961 . S
C1039 H1055 0.961 . S
C1040 C1041 1.370 . S
C1040 C1042 1.363 . S
C1040 H1056 0.931 . S
C1041 C1040 1.370 . S
C1041 C1045 1.408 . S
C1042 C1040 1.363 . S
C1042 C1043 1.370 . S
C1042 C1046 1.524 . S
C1043 C1035 1.503 . S
C1043 C1042 1.370 . S
C1043 C1044 1.403 . S
C1044 C1043 1.403 . S
C1044 C1045 1.404 . S
C1044 C1047 1.539 . S
C1045 C1041 1.408 . S
C1045 C1044 1.404 . S
C1045 H1057 0.930 . S
C1046 C1042 1.524 . S
C1046 H1058 0.956 . S
C1046 H1059 0.961 . S
C1046 H1060 0.961 . S
C1047 C1044 1.539 . S
C1047 H1061 0.958 . S
C1047 H1062 0.961 . S
C1047 H1063 0.960 . S
H1048 C1032 0.931 . S
H1049 C1037 0.929 . S
H1050 C1038 0.960 . S
H1051 C1038 0.962 . S
H1052 C1038 0.960 . S
H1053 C1039 0.961 . S
H1054 C1039 0.961 . S
H1055 C1039 0.961 . S
H1056 C1040 0.931 . S
H1057 C1045 0.930 . S
H1058 C1046 0.956 . S
H1059 C1046 0.961 . S
H1060 C1046 0.961 . S
H1061 C1047 0.958 . S
H1062 C1047 0.961 . S
H1063 C1047 0.960 . S
C1064 C1065 1.391 . S
C1064 C1066 1.394 . S
C1064 H1080 0.931 . S
C1065 C1064 1.391 . S
C1065 C1069 1.376 . S
C1066 C1064 1.394 . S
C1066 C1067 1.369 . S
C1066 C1070 1.531 . S
C1067 C1066 1.369 . S
C1067 C1068 1.410 . S
C1067 C1075 1.503 . S
C1068 C1067 1.410 . S
C1068 C1069 1.392 . S
C1068 C1071 1.511 . S
C1069 C1065 1.376 . S
C1069 C1068 1.392 . S
C1069 H1081 0.929 . S
C1070 C1066 1.531 . S
C1070 H1082 0.960 . S
C1070 H1083 0.962 . S
C1070 H1084 0.960 . S
C1071 C1068 1.511 . S
C1071 H1085 0.961 . S
C1071 H1086 0.961 . S
C1071 H1087 0.961 . S
C1072 C1073 1.370 . S
C1072 C1074 1.363 . S
C1072 H1088 0.931 . S
C1073 C1072 1.370 . S
C1073 C1077 1.408 . S
C1074 C1072 1.363 . S
C1074 C1075 1.370 . S
C1074 C1078 1.524 . S
C1075 C1067 1.503 . S
C1075 C1074 1.370 . S
C1075 C1076 1.403 . S
C1076 C1075 1.403 . S
C1076 C1077 1.404 . S
C1076 C1079 1.539 . S
C1077 C1073 1.408 . S
C1077 C1076 1.404 . S
C1077 H1089 0.930 . S
C1078 C1074 1.524 . S
C1078 H1090 0.956 . S
C1078 H1091 0.961 . S
C1078 H1092 0.961 . S
C1079 C1076 1.539 . S
C1079 H1093 0.958 . S
C1079 H1094 0.961 . S
C1079 H1095 0.960 . S
H1080 C1064 0.931 . S
H1081 C1069 0.929 . S
H1082 C1070 0.960 . S
H1083 C1070 0.962 . S
H1084 C1070 0.960 . S
H1085 C1071 0.961 . S
H1086 C1071 0.961 . S
H1087 C1071 0.961 . S
H1088 C1072 0.931 . S
H1089 C1077 0.930 . S
H1090 C1078 0.956 . S
H1091 C1078 0.961 . S
H1092 C1078 0.961 . S
H1093 C1079 0.958 . S
H1094 C1079 0.961 . S
H1095 C1079 0.960 . S
C1096 C1097 1.415 . S
C1096 C1098 1.388 1_455 S
C1096 H1112 0.915 . S
C1097 C1096 1.415 . S
C1097 C1101 1.376 . S
C1098 C1096 1.388 1_655 S
C1098 C1099 1.369 . S
C1098 C1102 1.531 . S
C1099 C1098 1.369 . S
C1099 C1100 1.410 . S
C1099 C1107 1.503 . S
C1100 C1099 1.410 . S
C1100 C1101 1.392 1_655 S
C1100 C1103 1.511 . S
C1101 C1097 1.376 . S
C1101 C1100 1.392 1_455 S
C1101 H1113 0.929 . S
C1102 C1098 1.531 . S
C1102 H1114 0.960 . S
C1102 H1115 0.962 . S
C1102 H1116 0.960 . S
C1103 C1100 1.511 . S
C1103 H1117 0.961 1_655 S
C1103 H1118 0.961 . S
C1103 H1119 0.961 . S
C1104 C1105 1.370 . S
C1104 C1106 1.363 . S
C1104 H1120 0.931 . S
C1105 C1104 1.370 . S
C1105 C1109 1.408 . S
C1106 C1104 1.363 . S
C1106 C1107 1.370 . S
C1106 C1110 1.524 1_655 S
C1107 C1099 1.503 . S
C1107 C1106 1.370 . S
C1107 C1108 1.403 . S
C1108 C1107 1.403 . S
C1108 C1109 1.404 . S
C1108 C1111 1.539 . S
C1109 C1105 1.408 . S
C1109 C1108 1.404 . S
C1109 H1121 0.930 . S
C1110 C1106 1.524 1_455 S
C1110 H1122 0.956 . S
C1110 H1123 0.961 . S
C1110 H1124 0.961 . S
C1111 C1108 1.539 . S
C1111 H1125 0.958 . S
C1111 H1126 0.961 . S
C1111 H1127 0.960 . S
H1112 C1096 0.915 . S
H1113 C1101 0.929 . S
H1114 C1102 0.960 . S
H1115 C1102 0.962 . S
H1116 C1102 0.960 . S
H1117 C1103 0.961 1_455 S
H1118 C1103 0.961 . S
H1119 C1103 0.961 . S
H1120 C1104 0.931 . S
H1121 C1109 0.930 . S
H1122 C1110 0.956 . S
H1123 C1110 0.961 . S
H1124 C1110 0.961 . S
H1125 C1111 0.958 . S
H1126 C1111 0.961 . S
H1127 C1111 0.960 . S
C1128 C1129 1.391 . S
C1128 C1130 1.394 . S
C1128 H1144 0.931 . S
C1129 C1128 1.391 . S
C1129 C1133 1.376 . S
C1130 C1128 1.394 . S
C1130 C1131 1.369 . S
C1130 C1134 1.531 . S
C1131 C1130 1.369 . S
C1131 C1132 1.410 . S
C1131 C1139 1.503 . S
C1132 C1131 1.410 . S
C1132 C1133 1.392 . S
C1132 C1135 1.511 . S
C1133 C1129 1.376 . S
C1133 C1132 1.392 . S
C1133 H1145 0.929 . S
C1134 C1130 1.531 . S
C1134 H1146 0.960 . S
C1134 H1147 0.962 . S
C1134 H1148 0.960 . S
C1135 C1132 1.511 . S
C1135 H1149 0.961 . S
C1135 H1150 0.961 . S
C1135 H1151 0.961 . S
C1136 C1137 1.370 . S
C1136 C1138 1.363 . S
C1136 H1152 0.931 . S
C1137 C1136 1.370 . S
C1137 C1141 1.408 . S
C1138 C1136 1.363 . S
C1138 C1139 1.370 . S
C1138 C1142 1.524 . S
C1139 C1131 1.503 . S
C1139 C1138 1.370 . S
C1139 C1140 1.403 . S
C1140 C1139 1.403 . S
C1140 C1141 1.404 . S
C1140 C1143 1.539 . S
C1141 C1137 1.408 . S
C1141 C1140 1.404 . S
C1141 H1153 0.930 . S
C1142 C1138 1.524 . S
C1142 H1154 0.956 . S
C1142 H1155 0.961 . S
C1142 H1156 0.961 . S
C1143 C1140 1.539 . S
C1143 H1157 0.958 . S
C1143 H1158 0.961 . S
C1143 H1159 0.960 . S
H1144 C1128 0.931 . S
H1145 C1133 0.929 . S
H1146 C1134 0.960 . S
H1147 C1134 0.962 . S
H1148 C1134 0.960 . S
H1149 C1135 0.961 . S
H1150 C1135 0.961 . S
H1151 C1135 0.961 . S
H1152 C1136 0.931 . S
H1153 C1141 0.930 . S
H1154 C1142 0.956 . S
H1155 C1142 0.961 . S
H1156 C1142 0.961 . S
H1157 C1143 0.958 . S
H1158 C1143 0.961 . S
H1159 C1143 0.960 . S
C1160 C1161 1.391 . S
C1160 C1162 1.394 . S
C1160 H1176 0.931 . S
C1161 C1160 1.391 . S
C1161 C1165 1.376 . S
C1162 C1160 1.394 . S
C1162 C1163 1.369 . S
C1162 C1166 1.531 . S
C1163 C1162 1.369 . S
C1163 C1164 1.410 . S
C1163 C1171 1.503 . S
C1164 C1163 1.410 . S
C1164 C1165 1.392 . S
C1164 C1167 1.511 . S
C1165 C1161 1.376 . S
C1165 C1164 1.392 . S
C1165 H1177 0.929 . S
C1166 C1162 1.531 . S
C1166 H1178 0.960 . S
C1166 H1179 0.962 . S
C1166 H1180 0.960 . S
C1167 C1164 1.511 . S
C1167 H1181 0.961 . S
C1167 H1182 0.961 . S
C1167 H1183 0.961 . S
C1168 C1169 1.370 . S
C1168 C1170 1.363 . S
C1168 H1184 0.931 . S
C1169 C1168 1.370 . S
C1169 C1173 1.408 . S
C1170 C1168 1.363 . S
C1170 C1171 1.370 . S
C1170 C1174 1.524 . S
C1171 C1163 1.503 . S
C1171 C1170 1.370 . S
C1171 C1172 1.403 . S
C1172 C1171 1.403 . S
C1172 C1173 1.404 . S
C1172 C1175 1.539 . S
C1173 C1169 1.408 . S
C1173 C1172 1.404 . S
C1173 H1185 0.930 . S
C1174 C1170 1.524 . S
C1174 H1186 0.956 . S
C1174 H1187 0.961 . S
C1174 H1188 0.961 . S
C1175 C1172 1.539 . S
C1175 H1189 0.958 . S
C1175 H1190 0.961 . S
C1175 H1191 0.960 . S
H1176 C1160 0.931 . S
H1177 C1165 0.929 . S
H1178 C1166 0.960 . S
H1179 C1166 0.962 . S
H1180 C1166 0.960 . S
H1181 C1167 0.961 . S
H1182 C1167 0.961 . S
H1183 C1167 0.961 . S
H1184 C1168 0.931 . S
H1185 C1173 0.930 . S
H1186 C1174 0.956 . S
H1187 C1174 0.961 . S
H1188 C1174 0.961 . S
H1189 C1175 0.958 . S
H1190 C1175 0.961 . S
H1191 C1175 0.960 . S
C1192 C1193 1.391 . S
C1192 C1194 1.394 . S
C1192 H1208 0.931 . S
C1193 C1192 1.391 . S
C1193 C1197 1.376 . S
C1194 C1192 1.394 . S
C1194 C1195 1.369 . S
C1194 C1198 1.531 . S
C1195 C1194 1.369 . S
C1195 C1196 1.410 . S
C1195 C1203 1.503 . S
C1196 C1195 1.410 . S
C1196 C1197 1.392 . S
C1196 C1199 1.511 . S
C1197 C1193 1.376 . S
C1197 C1196 1.392 . S
C1197 H1209 0.929 . S
C1198 C1194 1.531 . S
C1198 H1210 0.960 . S
C1198 H1211 0.962 . S
C1198 H1212 0.960 . S
C1199 C1196 1.511 . S
C1199 H1213 0.961 . S
C1199 H1214 0.961 . S
C1199 H1215 0.961 . S
C1200 C1201 1.370 . S
C1200 C1202 1.363 . S
C1200 H1216 0.931 . S
C1201 C1200 1.370 . S
C1201 C1205 1.408 . S
C1202 C1200 1.363 . S
C1202 C1203 1.370 . S
C1202 C1206 1.524 . S
C1203 C1195 1.503 . S
C1203 C1202 1.370 . S
C1203 C1204 1.403 . S
C1204 C1203 1.403 . S
C1204 C1205 1.404 . S
C1204 C1207 1.539 . S
C1205 C1201 1.408 . S
C1205 C1204 1.404 . S
C1205 H1217 0.930 . S
C1206 C1202 1.524 . S
C1206 H1218 0.956 . S
C1206 H1219 0.961 . S
C1206 H1220 0.961 . S
C1207 C1204 1.539 . S
C1207 H1221 0.958 . S
C1207 H1222 0.961 . S
C1207 H1223 0.960 . S
H1208 C1192 0.931 . S
H1209 C1197 0.929 . S
H1210 C1198 0.960 . S
H1211 C1198 0.962 . S
H1212 C1198 0.960 . S
H1213 C1199 0.961 . S
H1214 C1199 0.961 . S
H1215 C1199 0.961 . S
H1216 C1200 0.931 . S
H1217 C1205 0.930 . S
H1218 C1206 0.956 . S
H1219 C1206 0.961 . S
H1220 C1206 0.961 . S
H1221 C1207 0.958 . S
H1222 C1207 0.961 . S
H1223 C1207 0.960 . S
C457 C13 1.731 . S
C465 C137 1.610 . S
C489 C27 1.839 . S
C497 C181 1.789 . S
C529 C261 1.579 . S
C521 C29 1.643 . S
C561 C305 1.668 . S
C553 C54 1.700 . S
C593 C385 1.708 . S
C585 C69 1.825 . S
C625 C441 1.769 . S
C617 C83 1.936 . S
C649 C15 1.976 . S
C657 C237 1.742 . S
C681 C41 1.730 . S
C689 C317 1.637 . S
C721 C361 1.746 . S
C713 C42 1.910 . S
C753 C429 1.637 . S
C745 C57 1.689 . S
C777 C71 1.755 . S
C785 C113 1.589 . S
C817 C193 1.837 . S
C809 C1 1.932 . S
C849 C299 1.841 . S
C841 C12 1.913 . S
C873 C26 1.763 . S
C881 C379 1.572 . S
C913 C447 1.656 . S
C905 C28 1.666 . S
C937 C55 1.939 . S
C945 C131 1.736 . S
C969 C68 1.718 . S
C977 C175 1.619 . S
C1001 C82 1.982 . S
C1009 C255 1.725 . S
C1033 C14 1.939 . S
C1041 C423 1.767 . S
C1073 C119 1.703 . S
C1065 C40 1.827 . S
C1097 C43 1.716 . S
C1105 C199 1.659 . S
C1129 C56 1.660 . S
C1137 C243 1.564 . S
C1161 C70 1.865 . S
C1169 C323 1.779 . S
C1193 C0 1.730 . S
C1201 C367 1.610 . S
