# Generated by pormake.
# Topology anh, (6,3)-cn, num edge types: 1
# Building blocks:
#     Node 0, Type 0, BuildingBlock: PAMTUU_clean_sbu_0, # of connection points: 6
#     Node 1, Type 0, BuildingBlock: PAMTUU_clean_sbu_0, # of connection points: 6
#     Node 2, Type 0, BuildingBlock: PAMTUU_clean_sbu_0, # of connection points: 6
#     Node 3, Type 1, BuildingBlock: ESEHIV_clean_linker_0, # of connection points: 3
#     Node 4, Type 1, BuildingBlock: ESEHIV_clean_linker_0, # of connection points: 3
#     Node 5, Type 1, BuildingBlock: ESEHIV_clean_linker_0, # of connection points: 3
#     Node 6, Type 1, BuildingBlock: ESEHIV_clean_linker_0, # of connection points: 3
#     Node 7, Type 1, BuildingBlock: ESEHIV_clean_linker_0, # of connection points: 3
#     Node 8, Type 1, BuildingBlock: ESEHIV_clean_linker_0, # of connection points: 3
#     Edge 9, Type (0, 1), BuildingBlock: TEMPAE_clean_linker_10, # of connection points: 2
#     Edge 10, Type (0, 1), BuildingBlock: TEMPAE_clean_linker_10, # of connection points: 2
#     Edge 11, Type (0, 1), BuildingBlock: TEMPAE_clean_linker_10, # of connection points: 2
#     Edge 12, Type (0, 1), BuildingBlock: TEMPAE_clean_linker_10, # of connection points: 2
#     Edge 13, Type (0, 1), BuildingBlock: TEMPAE_clean_linker_10, # of connection points: 2
#     Edge 14, Type (0, 1), BuildingBlock: TEMPAE_clean_linker_10, # of connection points: 2
#     Edge 15, Type (0, 1), BuildingBlock: TEMPAE_clean_linker_10, # of connection points: 2
#     Edge 16, Type (0, 1), BuildingBlock: TEMPAE_clean_linker_10, # of connection points: 2
#     Edge 17, Type (0, 1), BuildingBlock: TEMPAE_clean_linker_10, # of connection points: 2
#     Edge 18, Type (0, 1), BuildingBlock: TEMPAE_clean_linker_10, # of connection points: 2
#     Edge 19, Type (0, 1), BuildingBlock: TEMPAE_clean_linker_10, # of connection points: 2
#     Edge 20, Type (0, 1), BuildingBlock: TEMPAE_clean_linker_10, # of connection points: 2
#     Edge 21, Type (0, 1), BuildingBlock: TEMPAE_clean_linker_10, # of connection points: 2
#     Edge 22, Type (0, 1), BuildingBlock: TEMPAE_clean_linker_10, # of connection points: 2
#     Edge 23, Type (0, 1), BuildingBlock: TEMPAE_clean_linker_10, # of connection points: 2
#     Edge 24, Type (0, 1), BuildingBlock: TEMPAE_clean_linker_10, # of connection points: 2
#     Edge 25, Type (0, 1), BuildingBlock: TEMPAE_clean_linker_10, # of connection points: 2
#     Edge 26, Type (0, 1), BuildingBlock: TEMPAE_clean_linker_10, # of connection points: 2
# Relax obj value: 0.305
# Max RMSD: 0.198
# Mean RMSD: 0.164
data_MOF--net-anh--node1-PAMTUU_clean_sbu_0--node2-ESEHIV_clean_linker_0--edge1-TEMPAE_clean_linker_10
_symmetry_space_group_name_H-M    P1
_symmetry_Int_Tables_number       1
_symmetry_cell_setting            triclinic
loop_
_symmetry_equiv_pos_as_xyz
'x, y, z'
_cell_length_a     28.88518
_cell_length_b     28.894249
_cell_length_c     52.249455
_cell_angle_alpha  92.78148
_cell_angle_beta   90.225568
_cell_angle_gamma 119.94715
loop_
_atom_site_label
_atom_site_type_symbol
_atom_site_fract_x
_atom_site_fract_y
_atom_site_fract_z
_atom_type_partial_charge
Tb0 Tb 0.14267 0.65041 0.16311 0.0
Tb1 Tb 0.20645 0.59202 0.176 0.0
C2 C 0.18747 0.61047 0.11932 0.0
C3 C 1.02614 0.66047 0.15218 0.0
C4 C 0.91921 0.58494 0.13986 0.0
C5 C 0.94416 0.63377 0.12794 0.0
C6 C 0.99767 0.67127 0.13393 0.0
C7 C 0.99948 0.61382 0.16579 0.0
C8 C 0.94642 0.57601 0.15949 0.0
C9 C 1.0846 0.68874 0.15207 0.0
O10 O 1.07924 0.56281 0.15942 0.0
O11 O 0.12269 0.52638 0.17977 0.0
O12 O 0.20009 0.63178 0.21152 0.0
O13 O 0.11948 0.62075 0.20052 0.0
O14 O 0.25928 0.56503 0.16571 0.0
O15 O 0.22468 0.55151 0.2031 0.0
O16 O 0.27166 0.67559 0.17098 0.0
O17 O 0.22359 0.71859 0.1765 0.0
O18 O 0.18635 0.65217 0.12929 0.0
O19 O 0.18486 0.57436 0.13459 0.0
C20 C 1.07767 0.52134 0.1704 0.0
O21 O 0.10952 0.6984 0.17431 0.0
O22 O 1.10277 0.66787 0.13504 0.0
C23 C 0.1541 0.62651 0.21812 0.0
C24 C 0.31356 0.56948 0.20087 0.0
C25 C 0.41524 0.5912 0.21828 0.0
C26 C 0.3692 0.5569 0.2315 0.0
C27 C 0.31868 0.54547 0.22257 0.0
C28 C 0.35968 0.60942 0.19 0.0
C29 C 0.40993 0.62009 0.19855 0.0
C30 C 0.2605 0.54984 0.18869 0.0
C31 C 0.27071 0.72076 0.17504 0.0
H32 H 0.92352 0.64108 0.11267 0.0
H33 H 1.01784 0.70654 0.12294 0.0
H34 H 1.02084 0.6045 0.17983 0.0
H35 H 0.92753 0.53863 0.16895 0.0
H36 H 0.37163 0.53543 0.24738 0.0
H37 H 0.2835 0.51561 0.23172 0.0
H38 H 0.35703 0.62989 0.17371 0.0
H39 H 0.44377 0.6471 0.18772 0.0
Tb40 Tb 0.62873 0.07033 0.4885 0.0
Tb41 Tb 0.75204 0.12804 0.50501 0.0
C42 C 0.71497 0.11244 0.44792 0.0
C43 C 0.47679 0.99085 0.47348 0.0
C44 C 0.36481 0.93962 0.46967 0.0
C45 C 0.39418 0.93898 0.44842 0.0
C46 C 0.44977 0.96458 0.45031 0.0
C47 C 0.44719 0.9875 0.49533 0.0
C48 C 0.39155 0.96221 0.49339 0.0
C49 C 0.53364 1.03137 0.47275 0.0
O50 O 0.64381 1.00077 0.49057 0.0
O51 O 0.7305 1.043 0.50689 0.0
O52 O 0.70736 0.12174 0.53978 0.0
O53 O 0.62836 1.04781 0.52697 0.0
O54 O 0.83156 0.17543 0.49466 0.0
O55 O 0.81296 0.14775 0.53284 0.0
O56 O 0.73765 0.19701 0.50151 0.0
O57 O 0.64641 0.15199 0.50252 0.0
O58 O 0.67418 0.11493 0.45667 0.0
O59 O 0.74503 0.10423 0.4638 0.0
C60 C 0.68589 0.99834 0.49967 0.0
O61 O 0.55474 1.06461 0.49277 0.0
O62 O 0.56721 1.01969 0.46149 0.0
C63 C 0.66162 0.07986 0.54507 0.0
C64 C 0.88202 0.23615 0.5279 0.0
C65 C 0.93271 0.3482 0.52868 0.0
C66 C 0.9614 0.32171 0.52248 0.0
C67 C 0.93588 0.26588 0.52173 0.0
C68 C 0.85603 0.26268 0.53791 0.0
C69 C 0.88123 0.31828 0.53838 0.0
C70 C 0.84992 0.1804 0.51804 0.0
C71 C 0.69226 0.19792 0.50351 0.0
H72 H 0.3745 0.92193 0.42988 0.0
H73 H 0.47177 0.96728 0.43316 0.0
H74 H 0.46699 1.00751 0.51348 0.0
H75 H 0.3696 0.96231 0.51013 0.0
H76 H 1.00196 0.34361 0.51598 0.0
H77 H 0.95667 0.24596 0.51414 0.0
H78 H 0.8144 0.24037 0.5429 0.0
H79 H 0.85792 0.33683 0.54376 0.0
Tb80 Tb 0.67554 0.562 0.8328 0.0
Tb81 Tb 0.7426 0.68883 0.83634 0.0
C82 C 0.71114 0.62639 0.78329 0.0
C83 C 0.59591 0.40835 0.83833 0.0
C84 C 0.53179 0.29722 0.84171 0.0
C85 C 0.5779 0.31841 0.82699 0.0
C86 C 0.60953 0.3736 0.82517 0.0
C87 C 0.5537 0.38729 0.85552 0.0
C88 C 0.52171 0.3321 0.8571 0.0
C89 C 0.6146 0.46213 0.82919 0.0
O90 O 0.75961 0.5765 0.83528 0.0
O91 O 0.80675 0.66818 0.84243 0.0
O92 O 0.70429 0.6618 0.87269 0.0
O93 O 0.70625 0.5845 0.87178 0.0
O94 O 0.76822 0.76239 0.82019 0.0
O95 O 0.79216 0.75908 0.85897 0.0
O96 O 0.65771 0.67104 0.8305 0.0
O97 O 0.61525 0.58578 0.84353 0.0
O98 O 0.67103 0.58814 0.79474 0.0
O99 O 0.75096 0.66507 0.79697 0.0
C100 C 0.80587 0.6217 0.84025 0.0
O101 O 0.60649 0.49505 0.84374 0.0
O102 O 0.65848 0.48646 0.8164 0.0
C103 C 0.70195 0.62195 0.88458 0.0
C104 C 0.76601 0.82198 0.8508 0.0
C105 C 0.70861 0.87692 0.85346 0.0
C106 C 0.76381 0.90435 0.84867 0.0
C107 C 0.79207 0.87671 0.84684 0.0
C108 C 0.71326 0.79635 0.85899 0.0
C109 C 0.68457 0.82325 0.86 0.0
C110 C 0.78899 0.78915 0.84201 0.0
C111 C 0.61348 0.62923 0.83834 0.0
H112 H 0.58636 0.29234 0.81476 0.0
H113 H 0.64144 0.38855 0.81164 0.0
H114 H 0.54198 0.41299 0.8659 0.0
H115 H 0.48658 0.31666 0.86867 0.0
H116 H 0.78433 0.94619 0.8445 0.0
H117 H 0.83304 0.8972 0.84076 0.0
H118 H 0.69275 0.75418 0.86251 0.0
H119 H 0.64234 0.80015 0.86366 0.0
H120 H 0.62225 1.04545 0.25163 0.0
H121 H 0.76572 0.19688 0.25039 0.0
H122 H 0.67473 0.12102 0.17963 0.0
C123 C 0.65046 0.078 0.24066 0.0
C124 C 0.64113 0.07545 0.21388 0.0
C125 C 0.69494 0.12082 0.25392 0.0
C126 C 0.73191 0.1639 0.24002 0.0
C127 C 0.72657 0.16631 0.21327 0.0
C128 C 0.68024 0.12091 0.20011 0.0
H129 H 0.68314 0.67566 0.58407 0.0
H130 H 0.70336 0.5389 0.5832 0.0
H131 H 0.68767 0.59931 0.51155 0.0
C132 C 0.68894 0.64629 0.5732 0.0
C133 C 0.69 0.64742 0.54609 0.0
C134 C 0.69434 0.60826 0.58686 0.0
C135 C 0.69677 0.56671 0.57282 0.0
C136 C 0.69115 0.55953 0.5458 0.0
C137 C 0.6895 0.60187 0.53229 0.0
H138 H 0.12905 0.60506 0.92172 0.0
H139 H 0.27943 0.61062 0.92003 0.0
H140 H 0.21268 0.63286 0.85034 0.0
C141 C 0.16285 0.61038 0.91073 0.0
C142 C 0.16377 0.62005 0.88434 0.0
C143 C 0.20447 0.60825 0.92378 0.0
C144 C 0.24855 0.61402 0.9099 0.0
C145 C 0.2538 0.62309 0.88343 0.0
C146 C 0.20997 0.6253 0.87052 0.0
H147 H 0.96913 0.58856 0.3954 0.0
H148 H 1.05285 0.75615 0.38376 0.0
H149 H 0.95857 0.69657 0.45069 0.0
C150 C 0.97703 0.62859 0.40085 0.0
C151 C 0.96148 0.63859 0.42489 0.0
C152 C 1.00816 0.671 0.3853 0.0
C153 C 1.02349 0.72348 0.39434 0.0
C154 C 1.00771 0.73392 0.41849 0.0
C155 C 0.97166 0.69013 0.43214 0.0
H156 H 0.42608 1.01812 0.70325 0.0
H157 H 0.50983 0.93681 0.7245 0.0
H158 H 0.41461 0.96278 0.77922 0.0
C159 C 0.43397 0.99556 0.71683 0.0
C160 C 0.41373 0.99081 0.74166 0.0
C161 C 0.46949 0.97699 0.71054 0.0
C162 C 0.48155 0.95015 0.72883 0.0
C163 C 0.46201 0.94549 0.75361 0.0
C164 C 0.42683 0.96406 0.75956 0.0
H165 H 0.52643 0.5141 0.07086 0.0
H166 H 0.57687 0.41727 0.02831 0.0
H167 H 0.57528 0.41845 0.11057 0.0
C168 C 0.53751 0.48333 0.07046 0.0
C169 C 0.54653 0.46562 0.09351 0.0
C170 C 0.54782 0.46547 0.04689 0.0
C171 C 0.56582 0.42841 0.04641 0.0
C172 C 0.57898 0.41355 0.06932 0.0
C173 C 0.5656 0.42952 0.09267 0.0
C174 C 0.51207 0.62579 0.20991 0.0
C175 C 0.46396 0.58582 0.21951 0.0
C176 C 0.54375 0.61145 0.19503 0.0
C177 C 0.52789 0.55672 0.19127 0.0
C178 C 0.48958 0.51958 0.20735 0.0
C179 C 0.45736 0.53445 0.22132 0.0
C180 C 0.58763 0.65316 0.17979 0.0
C181 C 0.47548 0.46172 0.20588 0.0
C182 C 0.50054 0.49964 0.12269 0.0
C183 C 0.54286 0.49009 0.1185 0.0
C184 C 0.49663 0.52305 0.14604 0.0
C185 C 0.53556 0.53628 0.166 0.0
C186 C 0.57871 0.52714 0.16187 0.0
C187 C 0.58229 0.50497 0.138 0.0
C188 C 0.45008 0.53274 0.14937 0.0
C189 C 0.62158 0.54108 0.18224 0.0
H190 H 0.52026 0.66676 0.21039 0.0
H191 H 0.42244 0.50329 0.23002 0.0
H192 H 0.62125 0.64514 0.17793 0.0
H193 H 0.57174 0.65181 0.16021 0.0
H194 H 0.60288 0.69403 0.18878 0.0
H195 H 0.45609 0.44185 0.22359 0.0
H196 H 0.44705 0.44031 0.18941 0.0
H197 H 0.51159 0.45811 0.20287 0.0
H198 H 0.47 0.4882 0.10775 0.0
H199 H 0.6163 0.49957 0.13462 0.0
H200 H 0.46474 0.57517 0.15561 0.0
H201 H 0.4238 0.50751 0.16439 0.0
H202 H 0.42553 0.52331 0.13142 0.0
H203 H 0.65442 0.58264 0.18012 0.0
H204 H 0.63886 0.51436 0.18003 0.0
H205 H 0.60643 0.53857 0.2019 0.0
C206 C 0.93344 0.43592 0.53187 0.0
C207 C 0.95029 0.40259 0.51972 0.0
C208 C 0.93611 0.47922 0.5195 0.0
C209 C 0.95782 0.4904 0.49486 0.0
C210 C 0.98055 0.46099 0.48387 0.0
C211 C 0.97576 0.41698 0.4962 0.0
C212 C 0.91329 0.51126 0.53216 0.0
C213 C 1.00716 0.47392 0.45831 0.0
C214 C 0.91265 0.54876 0.44354 0.0
C215 C 0.95375 0.60206 0.44525 0.0
C216 C 0.91158 0.51257 0.46084 0.0
C217 C 0.9536 0.53009 0.47959 0.0
C218 C 0.99431 0.58435 0.48176 0.0
C219 C 0.99356 0.61973 0.46469 0.0
C220 C 0.86735 0.45492 0.4579 0.0
C221 C 1.0416 0.60439 0.50029 0.0
H222 H 0.91549 0.42651 0.55044 0.0
H223 H 0.98885 0.39191 0.48633 0.0
H224 H 0.94524 0.55349 0.53579 0.0
H225 H 0.88269 0.51126 0.51924 0.0
H226 H 0.89483 0.49535 0.55068 0.0
H227 H 1.02999 0.4529 0.45441 0.0
H228 H 0.9764 0.46174 0.44273 0.0
H229 H 1.03481 0.51762 0.45759 0.0
H230 H 0.88244 0.53515 0.42825 0.0
H231 H 1.02633 0.66075 0.46548 0.0
H232 H 0.85434 0.43788 0.47685 0.0
H233 H 0.88217 0.43091 0.44735 0.0
H234 H 0.83219 0.45055 0.44697 0.0
H235 H 1.03009 0.5848 0.51873 0.0
H236 H 1.06144 0.64842 0.50422 0.0
H237 H 1.07128 0.59504 0.49171 0.0
C238 C 0.62476 0.88251 0.85846 0.0
C239 C 0.6742 0.89985 0.84687 0.0
C240 C 0.58556 0.89116 0.84741 0.0
C241 C 0.59702 0.91976 0.82492 0.0
C242 C 0.64876 0.94267 0.8149 0.0
C243 C 0.68643 0.93187 0.82575 0.0
C244 C 0.53065 0.86599 0.85854 0.0
C245 C 0.66304 0.97483 0.79131 0.0
C246 C 0.49513 0.88852 0.77173 0.0
C247 C 0.48774 0.93274 0.77448 0.0
C248 C 0.52763 0.88168 0.78932 0.0
C249 C 0.55385 0.92048 0.80986 0.0
C250 C 0.54395 0.96349 0.81358 0.0
C251 C 0.51091 0.96909 0.79582 0.0
C252 C 0.537 0.83509 0.78471 0.0
C253 C 0.57169 1.00613 0.83494 0.0
H254 H 0.61535 0.85933 0.87529 0.0
H255 H 0.72396 0.94536 0.8163 0.0
H256 H 0.51758 0.89598 0.86131 0.0
H257 H 0.50142 0.83379 0.84491 0.0
H258 H 0.52932 0.84843 0.87716 0.0
H259 H 0.70672 0.99602 0.78815 0.0
H260 H 0.64228 0.94775 0.77419 0.0
H261 H 0.64971 1.00479 0.79288 0.0
H262 H 0.47716 0.86046 0.75526 0.0
H263 H 0.50602 1.00394 0.79777 0.0
H264 H 0.53958 0.81875 0.80306 0.0
H265 H 0.57556 0.84895 0.7751 0.0
H266 H 0.50483 0.80248 0.77228 0.0
H267 H 0.57237 0.98824 0.85314 0.0
H268 H 0.5522 1.03066 0.83813 0.0
H269 H 0.6138 1.03309 0.82992 0.0
C270 C 0.86466 0.49579 0.11718 0.0
C271 C 0.86749 0.5412 0.12967 0.0
C272 C 0.81705 0.45617 0.10483 0.0
C273 C 0.77151 0.46235 0.10533 0.0
C274 C 0.77388 0.50732 0.11895 0.0
C275 C 0.82215 0.5465 0.13078 0.0
C276 C 0.81591 0.40851 0.09096 0.0
C277 C 0.72605 0.51536 0.12014 0.0
C278 C 0.66726 0.42889 0.05535 0.0
C279 C 0.62195 0.39936 0.06992 0.0
C280 C 0.71812 0.4429 0.06489 0.0
C281 C 0.72307 0.42644 0.08928 0.0
C282 C 0.67723 0.3864 0.10077 0.0
C283 C 0.62658 0.37255 0.09065 0.0
C284 C 0.76632 0.48329 0.05118 0.0
C285 C 0.68135 0.36491 0.12586 0.0
H286 H 0.90034 0.49238 0.1163 0.0
H287 H 0.82486 0.58184 0.1405 0.0
H288 H 0.79583 0.37355 0.10298 0.0
H289 H 0.79298 0.39761 0.07246 0.0
H290 H 0.85682 0.41592 0.0872 0.0
H291 H 0.73401 0.55109 0.13253 0.0
H292 H 0.7145 0.52022 0.1006 0.0
H293 H 0.69143 0.47976 0.12771 0.0
H294 H 0.66466 0.44843 0.03868 0.0
H295 H 0.59138 0.34705 0.10118 0.0
H296 H 0.79987 0.47519 0.05281 0.0
H297 H 0.77989 0.52389 0.06009 0.0
H298 H 0.75684 0.4833 0.03055 0.0
H299 H 0.71733 0.36051 0.12675 0.0
H300 H 0.64529 0.32562 0.12879 0.0
H301 H 0.68493 0.3934 0.14183 0.0
C302 C 0.286 0.95238 0.47569 0.0
C303 C 0.30716 0.9206 0.46641 0.0
C304 C 0.23199 0.93637 0.4712 0.0
C305 C 0.19884 0.8877 0.45693 0.0
C306 C 0.22015 0.8554 0.44766 0.0
C307 C 0.27402 0.8723 0.45255 0.0
C308 C 0.21128 0.97232 0.48116 0.0
C309 C 0.18604 0.80261 0.43263 0.0
C310 C 1.05562 0.78898 0.45855 0.0
C311 C 1.04172 0.78716 0.43246 0.0
C312 C 1.10499 0.82917 0.46881 0.0
C313 C 0.14106 0.86761 0.45253 0.0
C314 C 0.1225 0.87319 0.42845 0.0
C315 C 1.07215 0.83305 0.41877 0.0
C316 C 0.12205 0.8242 0.49541 0.0
C317 C 0.15885 0.9163 0.41127 0.0
H318 H 0.31199 0.99041 0.48598 0.0
H319 H 0.29038 0.84767 0.44553 0.0
H320 H 0.21288 0.99808 0.46573 0.0
H321 H 0.16919 0.9491 0.48701 0.0
H322 H 0.23613 0.99884 0.49774 0.0
H323 H 0.20934 0.78325 0.42632 0.0
H324 H 0.15318 0.77464 0.44457 0.0
H325 H 0.16765 0.80872 0.41539 0.0
H326 H 1.03228 0.75569 0.47027 0.0
H327 H 1.06008 0.8344 0.39929 0.0
H328 H 0.14914 0.86411 0.50494 0.0
H329 H 0.14396 0.80174 0.49403 0.0
H330 H 1.08701 0.80213 0.50757 0.0
H331 H 0.18462 0.95439 0.42259 0.0
H332 H 0.13573 0.92323 0.3964 0.0
H333 H 0.18527 0.90388 0.40145 0.0
C334 C 0.43865 0.22999 0.8277 0.0
C335 C 0.48948 0.24101 0.83628 0.0
C336 C 0.40398 0.18168 0.81401 0.0
C337 C 0.42093 0.14409 0.80889 0.0
C338 C 0.46877 0.1519 0.8208 0.0
C339 C 0.50274 0.20063 0.83425 0.0
C340 C 0.35252 0.17422 0.80256 0.0
C341 C 0.48746 0.11176 0.81666 0.0
C342 C 0.35927 1.01111 0.77261 0.0
C343 C 0.39317 1.02603 0.75164 0.0
C344 C 0.36185 1.05008 0.79058 0.0
C345 C 0.3976 0.10455 0.78673 0.0
C346 C 0.42231 0.11945 0.76285 0.0
C347 C 0.42006 0.07987 0.74556 0.0
C348 C 0.33237 1.03253 0.81516 0.0
C349 C 0.45839 0.1774 0.75726 0.0
H350 H 0.42804 0.26108 0.82935 0.0
H351 H 0.54165 0.20891 0.84131 0.0
H352 H 0.36067 0.19353 0.78399 0.0
H353 H 0.32218 0.13133 0.79901 0.0
H354 H 0.33568 0.19363 0.81532 0.0
H355 H 0.52118 0.12026 0.83001 0.0
H356 H 0.45429 0.07063 0.8193 0.0
H357 H 0.50103 0.11292 0.79673 0.0
H358 H 0.33615 0.96926 0.77678 0.0
H359 H 0.44541 0.09228 0.72915 0.0
H360 H 0.32293 1.06274 0.82357 0.0
H361 H 0.35782 1.02713 0.8293 0.0
H362 H 0.29471 0.99364 0.81195 0.0
H363 H 0.43985 0.20169 0.76312 0.0
H364 H 0.46739 0.18225 0.73659 0.0
H365 H 0.49673 0.19357 0.76836 0.0
C366 C 0.63823 0.89786 0.51086 0.0
C367 C 0.68385 0.94393 0.50258 0.0
C368 C 0.63835 0.8493 0.51592 0.0
C369 C 0.6844 0.84378 0.51168 0.0
C370 C 0.72975 0.88963 0.50224 0.0
C371 C 0.72932 0.93836 0.49857 0.0
C372 C 0.58903 0.8041 0.52664 0.0
C373 C 0.78002 0.88837 0.49595 0.0
C374 C 0.71718 0.74791 0.54889 0.0
C375 C 0.69168 0.69767 0.53464 0.0
C376 C 0.71372 0.79346 0.54209 0.0
C377 C 0.68678 0.79278 0.51906 0.0
C378 C 0.66358 0.74343 0.50352 0.0
C379 C 0.66548 0.69711 0.51154 0.0
C380 C 0.73883 0.84256 0.56027 0.0
C381 C 0.63584 0.73844 0.47823 0.0
H382 H 0.60262 0.90038 0.51448 0.0
H383 H 0.76525 0.9725 0.49217 0.0
H384 H 0.56985 0.77035 0.51199 0.0
H385 H 0.59987 0.78935 0.54361 0.0
H386 H 0.55941 0.81622 0.53231 0.0
H387 H 0.79863 0.91165 0.47891 0.0
H388 H 0.80938 0.90763 0.51223 0.0
H389 H 0.7726 0.84708 0.49209 0.0
H390 H 0.74005 0.75202 0.56617 0.0
H391 H 0.64545 0.66011 0.49973 0.0
H392 H 0.71311 0.86097 0.56193 0.0
H393 H 0.77781 0.87257 0.55292 0.0
H394 H 0.74615 0.83325 0.57975 0.0
H395 H 0.59224 0.71984 0.48108 0.0
H396 H 0.64185 0.7119 0.46421 0.0
H397 H 0.65016 0.77779 0.46993 0.0
C398 C 0.90957 0.6655 0.83926 0.0
C399 C 0.85908 0.62076 0.84395 0.0
C400 C 0.95917 0.66588 0.84288 0.0
C401 C 0.9608 0.62122 0.85255 0.0
C402 C 0.90992 0.576 0.85743 0.0
C403 C 0.8607 0.57594 0.85273 0.0
C404 C 1.01038 0.71482 0.83622 0.0
C405 C 0.90738 0.52756 0.86842 0.0
C406 C 1.08902 0.60348 0.84953 0.0
C407 C 0.11564 0.62532 0.87366 0.0
C408 C 1.04033 0.60289 0.84217 0.0
C409 C 1.01505 0.62336 0.85924 0.0
C410 C 1.04246 0.64639 0.88324 0.0
C411 C 1.09158 0.64819 0.88966 0.0
C412 C 1.01545 0.57947 0.81596 0.0
C413 C 1.01902 0.66827 0.90284 0.0
H414 H 0.91047 0.70068 0.83236 0.0
H415 H 0.82314 0.54084 0.85675 0.0
H416 H 1.03392 0.73628 0.85401 0.0
H417 H 1.03518 0.70307 0.82446 0.0
H418 H 1.00291 0.7429 0.82554 0.0
H419 H 0.86571 0.49579 0.87166 0.0
H420 H 0.92606 0.51079 0.85528 0.0
H421 H 0.93046 0.53934 0.88693 0.0
H422 H 1.1054 0.58546 0.83649 0.0
H423 H 0.11096 0.66732 0.90799 0.0
H424 H 1.00454 0.60646 0.80652 0.0
H425 H 0.97815 0.54075 0.81781 0.0
H426 H 1.04265 0.57247 0.80347 0.0
H427 H 1.01737 0.70266 0.89533 0.0
H428 H 1.04254 0.68171 0.92127 0.0
H429 H 0.97741 0.63721 0.90667 0.0
C430 C 0.37158 0.78138 0.16654 0.0
C431 C 0.32451 0.77477 0.17804 0.0
C432 C 0.42201 0.8303 0.16918 0.0
C433 C 0.4285 0.87527 0.1849 0.0
C434 C 0.38109 0.8686 0.19678 0.0
C435 C 0.33048 0.81991 0.19283 0.0
C436 C 0.46827 0.8327 0.15482 0.0
C437 C 0.38387 0.91279 0.21443 0.0
C438 C 0.57368 0.97356 0.21309 0.0
C439 C 0.58985 1.02378 0.20266 0.0
C440 C 0.52253 0.92691 0.2079 0.0
C441 C 0.48466 0.92685 0.19032 0.0
C442 C 0.50174 0.97628 0.17825 0.0
C443 C 0.55274 1.0235 0.18477 0.0
C444 C 0.50886 0.87756 0.22203 0.0
C445 C 0.46609 0.98045 0.1585 0.0
H446 H 0.36906 0.74805 0.15491 0.0
H447 H 0.29563 0.81666 0.20215 0.0
H448 H 0.5003 0.8743 0.15201 0.0
H449 H 0.4854 0.81231 0.16561 0.0
H450 H 0.45435 0.81098 0.13574 0.0
H451 H 0.34664 0.89957 0.22519 0.0
H452 H 0.41813 0.92763 0.22836 0.0
H453 H 0.3903 0.94678 0.20303 0.0
H454 H 0.60104 0.9707 0.22628 0.0
H455 H 0.56274 1.06065 0.17621 0.0
H456 H 0.51185 0.84793 0.2089 0.0
H457 H 0.46731 0.85877 0.22883 0.0
H458 H 0.53641 0.88661 0.2388 0.0
H459 H 0.43794 0.94107 0.14876 0.0
H460 H 0.49026 1.00849 0.14379 0.0
H461 H 0.44259 0.99677 0.16801 0.0
C462 C 0.64741 0.25654 0.50032 0.0
C463 C 0.69231 0.25182 0.50711 0.0
C464 C 0.64673 0.30592 0.50342 0.0
C465 C 0.69124 0.35362 0.5149 0.0
C466 C 0.73655 0.34874 0.52198 0.0
C467 C 0.7369 0.29939 0.51751 0.0
C468 C 0.59733 0.30581 0.49391 0.0
C469 C 0.78589 0.39543 0.53445 0.0
C470 C 0.71667 0.50247 0.5138 0.0
C471 C 0.68655 0.50618 0.53428 0.0
C472 C 0.71774 0.45394 0.50688 0.0
C473 C 0.68903 0.40644 0.52086 0.0
C474 C 0.65823 0.41017 0.54129 0.0
C475 C 0.65647 0.45815 0.5471 0.0
C476 C 0.75174 0.45499 0.48493 0.0
C477 C 0.62763 0.36371 0.55796 0.0
H478 H 0.61233 0.22137 0.49198 0.0
H479 H 0.77227 0.29788 0.5229 0.0
H480 H 0.56484 0.28514 0.50752 0.0
H481 H 0.60384 0.34659 0.49167 0.0
H482 H 0.5832 0.28281 0.47512 0.0
H483 H 0.80307 0.38187 0.54943 0.0
H484 H 0.81617 0.41328 0.51962 0.0
H485 H 0.77855 0.42676 0.54328 0.0
H486 H 0.74108 0.53807 0.50356 0.0
H487 H 0.6321 0.45842 0.56277 0.0
H488 H 0.7376 0.41457 0.47569 0.0
H489 H 0.79332 0.4712 0.49235 0.0
H490 H 0.75259 0.48185 0.47021 0.0
H491 H 0.58867 0.33516 0.54834 0.0
H492 H 0.61939 0.37694 0.57687 0.0
H493 H 0.64972 0.34214 0.5613 0.0
C494 C 0.55159 0.67083 0.83341 0.0
C495 C 0.56077 0.63073 0.84263 0.0
C496 C 0.50253 0.67145 0.83731 0.0
C497 C 0.46006 0.63187 0.85156 0.0
C498 C 0.46972 0.59195 0.86128 0.0
C499 C 0.51847 0.5915 0.85653 0.0
C500 C 0.49746 0.71592 0.82625 0.0
C501 C 0.42866 0.54984 0.8775 0.0
C502 C 0.3565 0.66309 0.88569 0.0
C503 C 0.30717 0.63129 0.87178 0.0
C504 C 0.40523 0.66433 0.87914 0.0
C505 C 0.40752 0.63344 0.8576 0.0
C506 C 0.35874 0.60332 0.84257 0.0
C507 C 0.30994 0.60227 0.84978 0.0
C508 C 0.45459 0.69832 0.89591 0.0
C509 C 0.35793 0.57142 0.81875 0.0
H510 H 0.58284 0.70208 0.82283 0.0
H511 H 0.52378 0.56032 0.86432 0.0
H512 H 0.45525 0.70558 0.82329 0.0
H513 H 0.51787 0.75205 0.83954 0.0
H514 H 0.51754 0.72624 0.80761 0.0
H515 H 0.44138 0.52175 0.88403 0.0
H516 H 0.42131 0.56933 0.8946 0.0
H517 H 0.39017 0.52658 0.86649 0.0
H518 H 0.3568 0.68655 0.90258 0.0
H519 H 0.27342 0.577 0.83857 0.0
H520 H 0.48621 0.72919 0.88444 0.0
H521 H 0.47032 0.6732 0.90318 0.0
H522 H 0.44681 0.71869 0.91251 0.0
H523 H 0.39077 0.59738 0.80622 0.0
H524 H 0.31932 0.55378 0.80774 0.0
H525 H 0.36491 0.53864 0.82405 0.0
C526 C 0.97469 0.45659 0.16215 0.0
C527 C 1.02408 0.46812 0.17364 0.0
C528 C 0.92531 0.40792 0.16588 0.0
C529 C 0.92298 0.36795 0.18187 0.0
C530 C 0.97272 0.37959 0.19355 0.0
C531 C 1.02152 0.42814 0.18925 0.0
C532 C 0.87579 0.40048 0.15233 0.0
C533 C 0.97436 0.3409 0.21138 0.0
C534 C 0.78902 0.26894 0.21426 0.0
C535 C 0.77117 0.21808 0.20144 0.0
C536 C 0.83646 0.31666 0.2079 0.0
C537 C 0.86922 0.31618 0.18771 0.0
C538 C 0.85019 0.26574 0.17367 0.0
C539 C 0.80251 0.21803 0.18068 0.0
C540 C 0.85218 0.36809 0.22335 0.0
C541 C 0.88077 0.26205 0.15116 0.0
H542 H 0.97428 0.48573 0.15 0.0
H543 H 1.05809 0.43515 0.1987 0.0
H544 H 0.83974 0.36116 0.1549 0.0
H545 H 0.86766 0.43255 0.15932 0.0
H546 H 0.88312 0.4047 0.13154 0.0
H547 H 1.01541 0.35451 0.21897 0.0
H548 H 0.94821 0.33588 0.22777 0.0
H549 H 0.95862 0.30103 0.20124 0.0
H550 H 0.76621 0.27131 0.23018 0.0
H551 H 0.79097 0.1802 0.17037 0.0
H552 H 0.85426 0.39851 0.21049 0.0
H553 H 0.89256 0.38402 0.23235 0.0
H554 H 0.82358 0.36277 0.23863 0.0
H555 H 0.88664 0.29265 0.13749 0.0
H556 H 0.85997 0.22191 0.14092 0.0
H557 H 0.92098 0.27069 0.1578 0.0
C558 C 0.19889 0.56603 0.07823 0.0
C559 C 0.19029 0.60523 0.09064 0.0
C560 C 0.20182 0.56253 0.05116 0.0
C561 C 0.19547 0.59865 0.03596 0.0
C562 C 0.18627 0.6378 0.04845 0.0
C563 C 0.18403 0.6407 0.07536 0.0
C564 C 0.21208 0.52038 0.0388 0.0
C565 C 0.1787 0.67695 0.03333 0.0
C566 C 0.24922 0.6314 0.9682 0.0
C567 C 0.20279 0.60211 0.95245 0.0
C568 C 0.24783 0.62875 0.99515 0.0
C569 C 0.19872 0.59641 0.00708 0.0
C570 C 0.15196 0.56568 0.99131 0.0
C571 C 0.15457 0.56869 0.96438 0.0
C572 C 0.29884 0.66219 0.01095 0.0
C573 C 1.09861 0.53079 0.00296 0.0
H574 H 0.20381 0.53839 0.08967 0.0
H575 H 0.17696 0.67103 0.08445 0.0
H576 H 0.17898 0.49413 0.02495 0.0
H577 H 0.24929 0.5397 0.02784 0.0
H578 H 0.21602 0.4952 0.05308 0.0
H579 H 0.17101 0.70448 0.0458 0.0
H580 H 0.21485 0.70122 0.02225 0.0
H581 H 0.14464 0.65497 0.01935 0.0
H582 H 0.28671 0.65796 0.95955 0.0
H583 H 0.11847 0.54493 0.95265 0.0
H584 H 0.30456 0.63724 0.02469 0.0
H585 H 0.29622 0.69419 0.02234 0.0
H586 H 0.33449 0.68116 0.99888 0.0
H587 H 1.10161 0.50334 0.01612 0.0
H588 H 1.06663 0.50663 0.9882 0.0
H589 H 1.08668 0.55617 0.01451 0.0
C590 C 0.72854 0.07925 0.40464 0.0
C591 C 0.72482 0.11836 0.41999 0.0
C592 C 0.72718 0.07955 0.37756 0.0
C593 C 0.7235 0.12077 0.36555 0.0
C594 C 0.72285 0.16194 0.38118 0.0
C595 C 0.72247 0.15964 0.40806 0.0
C596 C 0.72655 1.03406 0.36183 0.0
C597 C 0.72062 0.20761 0.36952 0.0
C598 C 0.75399 0.14278 0.29424 0.0
C599 C 0.70259 0.1204 0.28262 0.0
C600 C 0.76147 0.14317 0.32102 0.0
C601 C 0.71659 0.1192 0.33683 0.0
C602 C 0.66468 0.09562 0.32527 0.0
C603 C 0.65839 0.09732 0.2986 0.0
C604 C 0.81758 0.17001 0.33245 0.0
C605 C 0.61547 1.06882 0.34114 0.0
H606 H 0.72927 1.04667 0.41373 0.0
H607 H 0.7193 0.18982 0.41984 0.0
H608 H 0.68729 1.01019 0.35148 0.0
H609 H 0.75758 1.04969 0.34716 0.0
H610 H 0.73332 1.00716 0.37383 0.0
H611 H 0.72643 0.23941 0.38416 0.0
H612 H 0.75173 0.22559 0.35499 0.0
H613 H 0.68126 0.19245 0.35957 0.0
H614 H 0.78874 0.15991 0.28242 0.0
H615 H 0.61842 0.08099 0.2904 0.0
H616 H 0.82382 0.14087 0.34282 0.0
H617 H 0.82361 0.20251 0.34666 0.0
H618 H 0.84837 0.18727 0.31769 0.0
H619 H 0.61729 1.03889 0.35299 0.0
H620 H 0.57802 1.04844 0.32911 0.0
H621 H 0.61372 0.09897 0.35444 0.0
C622 C 0.75566 0.6373 0.74081 0.0
C623 C 0.71015 0.6263 0.7547 0.0
C624 C 0.75399 0.63427 0.7137 0.0
C625 C 0.70632 0.62228 0.70001 0.0
C626 C 0.66078 0.61283 0.71409 0.0
C627 C 0.6629 0.61374 0.74113 0.0
C628 C 0.80289 0.64249 0.69969 0.0
C629 C 0.60977 0.60213 0.70061 0.0
C630 C 0.71845 0.66155 0.63011 0.0
C631 C 0.69741 0.61191 0.61603 0.0
C632 C 0.72061 0.66536 0.65721 0.0
C633 C 0.70374 0.61885 0.67105 0.0
C634 C 0.68369 0.56885 0.65714 0.0
C635 C 0.67958 0.56583 0.63009 0.0
C636 C 0.74056 0.71937 0.67104 0.0
C637 C 0.66664 0.51823 0.67085 0.0
H638 H 0.79213 0.6465 0.75117 0.0
H639 H 0.62768 0.60557 0.75174 0.0
H640 H 0.79267 0.60669 0.68687 0.0
H641 H 0.81692 0.67698 0.68742 0.0
H642 H 0.83623 0.64981 0.71302 0.0
H643 H 0.57931 0.59953 0.71428 0.0
H644 H 0.61831 0.63437 0.6875 0.0
H645 H 0.59258 0.56403 0.68874 0.0
H646 H 0.73377 0.69799 0.62005 0.0
H647 H 0.66183 0.52682 0.62008 0.0
H648 H 0.7778 0.73098 0.68225 0.0
H649 H 0.71055 0.71742 0.68481 0.0
H650 H 0.7488 0.75115 0.65765 0.0
H651 H 0.69904 0.52376 0.68433 0.0
H652 H 0.65649 0.48333 0.65735 0.0
H653 H 0.63116 0.50894 0.68235 0.0
C654 C 0.61775 1.01589 0.57862 0.0
C655 C 0.64423 1.06897 0.57155 0.0
C656 C 0.59263 1.00232 0.60212 0.0
C657 C 0.59283 1.04272 0.61861 0.0
C658 C 0.62114 0.09681 0.61193 0.0
C659 C 0.64718 0.10944 0.58847 0.0
C660 C 0.56427 0.94445 0.60885 0.0
C661 C 0.62155 0.14082 0.62888 0.0
C662 C 0.47658 0.99418 0.66354 0.0
C663 C 0.50059 0.99315 0.68672 0.0
C664 C 0.50653 1.01167 0.64137 0.0
C665 C 0.56158 1.02768 0.64232 0.0
C666 C 0.58609 1.02682 0.66561 0.0
C667 C 0.55552 1.01026 0.68755 0.0
C668 C 0.47917 1.01262 0.61688 0.0
C669 C 0.64448 1.04283 0.66729 0.0
H670 H 0.61568 0.9847 0.56542 0.0
H671 H 0.66708 0.15035 0.58272 0.0
H672 H 0.57756 0.94085 0.62824 0.0
H673 H 0.52059 0.92895 0.60929 0.0
H674 H 0.57161 0.91874 0.59489 0.0
H675 H 0.64805 0.18107 0.62172 0.0
H676 H 0.58037 0.13433 0.62986 0.0
H677 H 0.63488 0.14001 0.64871 0.0
H678 H 0.43426 0.98103 0.66267 0.0
H679 H 0.57507 1.01143 0.70551 0.0
H680 H 0.47969 0.98388 0.60218 0.0
H681 H 0.50104 1.05294 0.60917 0.0
H682 H 0.437 1.00211 0.61972 0.0
H683 H 0.65207 1.01663 0.65382 0.0
H684 H 0.65753 1.04008 0.68691 0.0
H685 H 0.66958 0.08445 0.6615 0.0
C686 C 0.63902 0.62149 0.91696 0.0
C687 C 0.67994 0.6109 0.91027 0.0
C688 C 0.61073 0.60239 0.9394 0.0
C689 C 0.62477 0.57326 0.95565 0.0
C690 C 0.66795 0.56495 0.94954 0.0
C691 C 0.69452 0.58324 0.92668 0.0
C692 C 0.56417 0.6109 0.94495 0.0
C693 C 0.68495 0.53509 0.96671 0.0
C694 C 0.59038 0.55075 0.02506 0.0
C695 C 0.55446 0.49546 0.02378 0.0
C696 C 0.61046 0.57806 0.00271 0.0
C697 C 0.59362 0.54934 0.97863 0.0
C698 C 0.55302 0.4948 0.97719 0.0
C699 C 0.53428 0.46825 -0.00011 0.0
C700 C 0.65387 0.63611 0.00507 0.0
C701 C 0.533 0.46324 0.95179 0.0
H702 H 0.62706 0.64199 0.90392 0.0
H703 H 0.72604 0.57497 0.92134 0.0
H704 H 0.52634 0.57201 0.94262 0.0
H705 H 0.56686 0.6265 0.96505 0.0
H706 H 0.562 0.63904 0.93189 0.0
H707 H 0.72159 0.53539 0.96007 0.0
H708 H 0.69261 0.55306 0.98661 0.0
H709 H 0.65238 0.49288 0.96725 0.0
H710 H 0.60658 0.57176 0.04354 0.0
H711 H 0.50642 0.42552 0.99896 0.0
H712 H 0.64747 0.65941 0.99063 0.0
H713 H 0.69305 0.639 0.00145 0.0
H714 H 0.65599 0.65475 0.02447 0.0
H715 H 0.52599 0.48668 0.93763 0.0
H716 H 0.49538 0.42469 0.95367 0.0
H717 H 0.56368 0.45442 0.94405 0.0
C718 C 1.08558 0.59379 0.25105 0.0
C719 C 0.13922 0.62651 0.24503 0.0
C720 C 1.06705 0.59853 0.27518 0.0
C721 C 1.10292 0.63765 0.29365 0.0
C722 C 0.15786 0.669 0.28815 0.0
C723 C 0.17555 0.66273 0.26384 0.0
C724 C 1.00842 0.56356 0.28035 0.0
C725 C 0.1972 0.71127 0.30735 0.0
C726 C 1.03691 0.69039 0.33999 0.0
C727 C 1.03231 0.6621 0.36178 0.0
C728 C 1.06149 0.68412 0.31802 0.0
C729 C 1.08157 0.64828 0.31771 0.0
C730 C 1.07752 0.61993 0.33969 0.0
C731 C 1.05325 0.6274 0.36151 0.0
C732 C 1.06513 0.7152 0.29496 0.0
C733 C 1.09811 0.58111 0.34002 0.0
H734 H 1.05756 0.56537 0.23651 0.0
H735 H 0.21694 0.68825 0.25906 0.0
H736 H 1.00342 0.54447 0.29883 0.0
H737 H 0.98912 0.58847 0.28191 0.0
H738 H 0.98707 0.53169 0.26493 0.0
H739 H 0.23916 0.72798 0.30133 0.0
H740 H 0.18832 0.74442 0.30958 0.0
H741 H 0.19337 0.69466 0.32643 0.0
H742 H 1.02085 0.71722 0.34005 0.0
H743 H 1.05132 0.60649 0.37849 0.0
H744 H 1.04081 0.68716 0.27871 0.0
H745 H 0.10707 0.73756 0.28879 0.0
H746 H 1.0508 0.74401 0.29887 0.0
H747 H 1.07584 0.54791 0.32533 0.0
H748 H 1.09393 0.56384 0.35899 0.0
H749 H 0.14085 0.60135 0.33504 0.0
loop_
_geom_bond_atom_site_label_1
_geom_bond_atom_site_label_2
_geom_bond_distance
_geom_bond_site_symmetry_2
_ccdc_geom_bond_type
Tb0 C9 2.764 1_455 S
Tb0 O10 2.325 1_455 S
Tb0 O13 2.303 . S
Tb0 O17 2.322 . S
Tb0 O18 2.349 . S
Tb0 O21 2.415 1_455 S
Tb0 O22 2.399 1_455 S
Tb1 O11 2.322 1_455 S
Tb1 O12 2.349 . S
Tb1 O14 2.415 . S
Tb1 O15 2.399 . S
Tb1 O16 2.325 . S
Tb1 O19 2.303 . S
Tb1 C30 2.764 . S
C2 O18 1.261 . S
C2 O19 1.257 . S
C3 C6 1.358 . S
C3 C7 1.332 . S
C3 C9 1.504 . S
C4 C5 1.373 . S
C4 C8 1.308 . S
C5 C4 1.373 . S
C5 C6 1.429 . S
C5 H32 0.932 . S
C6 C3 1.358 . S
C6 C5 1.429 . S
C6 H33 0.930 . S
C7 C3 1.332 . S
C7 C8 1.394 . S
C7 H34 0.932 . S
C8 C4 1.308 . S
C8 C7 1.394 . S
C8 H35 0.929 . S
C9 Tb0 2.764 1_655 S
C9 C3 1.504 . S
C9 O21 1.239 . S
C9 O22 1.263 . S
O10 Tb0 2.325 1_655 S
O10 C20 1.236 . S
O11 Tb1 2.322 1_655 S
O11 C20 1.257 . S
O12 Tb1 2.349 . S
O12 C23 1.261 . S
O13 Tb0 2.303 . S
O13 C23 1.257 . S
O14 Tb1 2.415 . S
O14 C30 1.239 . S
O15 Tb1 2.399 . S
O15 C30 1.263 . S
O16 Tb1 2.325 . S
O16 C31 1.236 . S
O17 Tb0 2.322 . S
O17 C31 1.257 . S
O18 Tb0 2.349 . S
O18 C2 1.261 . S
O19 Tb1 2.303 . S
O19 C2 1.257 . S
C20 O10 1.236 . S
C20 O11 1.257 . S
O21 Tb0 2.415 1_655 S
O21 C9 1.239 . S
O22 Tb0 2.399 1_655 S
O22 C9 1.263 . S
C23 O12 1.261 . S
C23 O13 1.257 . S
C24 C27 1.358 . S
C24 C28 1.332 . S
C24 C30 1.504 . S
C25 C26 1.373 . S
C25 C29 1.308 . S
C26 C25 1.373 . S
C26 C27 1.429 . S
C26 H36 0.932 . S
C27 C24 1.358 . S
C27 C26 1.429 . S
C27 H37 0.930 . S
C28 C24 1.332 . S
C28 C29 1.394 . S
C28 H38 0.932 . S
C29 C25 1.308 . S
C29 C28 1.394 . S
C29 H39 0.929 . S
C30 Tb1 2.764 . S
C30 O14 1.239 . S
C30 O15 1.263 . S
C30 C24 1.504 . S
C31 O16 1.236 . S
C31 O17 1.257 . S
H32 C5 0.932 . S
H33 C6 0.930 . S
H34 C7 0.932 . S
H35 C8 0.929 . S
H36 C26 0.932 . S
H37 C27 0.930 . S
H38 C28 0.932 . S
H39 C29 0.929 . S
Tb40 C49 2.764 . S
Tb40 O50 2.325 . S
Tb40 O53 2.303 1_565 S
Tb40 O57 2.322 1_565 S
Tb40 O58 2.349 1_565 S
Tb40 O61 2.415 . S
Tb40 O62 2.399 . S
Tb41 O51 2.322 1_545 S
Tb41 O52 2.349 . S
Tb41 O54 2.415 . S
Tb41 O55 2.399 . S
Tb41 O56 2.325 . S
Tb41 O59 2.303 . S
Tb41 C70 2.764 . S
C42 O58 1.261 . S
C42 O59 1.257 . S
C43 C46 1.358 . S
C43 C47 1.332 . S
C43 C49 1.504 . S
C44 C45 1.373 . S
C44 C48 1.308 . S
C45 C44 1.373 . S
C45 C46 1.429 . S
C45 H72 0.932 . S
C46 C43 1.358 . S
C46 C45 1.429 . S
C46 H73 0.930 . S
C47 C43 1.332 . S
C47 C48 1.394 . S
C47 H74 0.932 . S
C48 C44 1.308 . S
C48 C47 1.394 . S
C48 H75 0.929 . S
C49 Tb40 2.764 . S
C49 C43 1.504 . S
C49 O61 1.239 . S
C49 O62 1.263 . S
O50 Tb40 2.325 . S
O50 C60 1.236 . S
O51 Tb41 2.322 1_565 S
O51 C60 1.257 . S
O52 Tb41 2.349 . S
O52 C63 1.261 . S
O53 Tb40 2.303 1_545 S
O53 C63 1.257 . S
O54 Tb41 2.415 . S
O54 C70 1.239 . S
O55 Tb41 2.399 . S
O55 C70 1.263 . S
O56 Tb41 2.325 . S
O56 C71 1.236 . S
O57 Tb40 2.322 1_545 S
O57 C71 1.257 . S
O58 Tb40 2.349 1_545 S
O58 C42 1.261 . S
O59 Tb41 2.303 . S
O59 C42 1.257 . S
C60 O50 1.236 . S
C60 O51 1.257 . S
O61 Tb40 2.415 . S
O61 C49 1.239 . S
O62 Tb40 2.399 . S
O62 C49 1.263 . S
C63 O52 1.261 . S
C63 O53 1.257 . S
C64 C67 1.358 . S
C64 C68 1.332 . S
C64 C70 1.504 . S
C65 C66 1.373 . S
C65 C69 1.308 . S
C66 C65 1.373 . S
C66 C67 1.429 . S
C66 H76 0.932 . S
C67 C64 1.358 . S
C67 C66 1.429 . S
C67 H77 0.930 . S
C68 C64 1.332 . S
C68 C69 1.394 . S
C68 H78 0.932 . S
C69 C65 1.308 . S
C69 C68 1.394 . S
C69 H79 0.929 . S
C70 Tb41 2.764 . S
C70 O54 1.239 . S
C70 O55 1.263 . S
C70 C64 1.504 . S
C71 O56 1.236 . S
C71 O57 1.257 . S
H72 C45 0.932 . S
H73 C46 0.930 . S
H74 C47 0.932 . S
H75 C48 0.929 . S
H76 C66 0.932 . S
H77 C67 0.930 . S
H78 C68 0.932 . S
H79 C69 0.929 . S
Tb80 C89 2.764 . S
Tb80 O90 2.325 . S
Tb80 O93 2.303 . S
Tb80 O97 2.322 . S
Tb80 O98 2.349 . S
Tb80 O101 2.415 . S
Tb80 O102 2.399 . S
Tb81 O91 2.322 . S
Tb81 O92 2.349 . S
Tb81 O94 2.415 . S
Tb81 O95 2.399 . S
Tb81 O96 2.325 . S
Tb81 O99 2.303 . S
Tb81 C110 2.764 . S
C82 O98 1.261 . S
C82 O99 1.257 . S
C83 C86 1.358 . S
C83 C87 1.332 . S
C83 C89 1.504 . S
C84 C85 1.373 . S
C84 C88 1.308 . S
C85 C84 1.373 . S
C85 C86 1.429 . S
C85 H112 0.932 . S
C86 C83 1.358 . S
C86 C85 1.429 . S
C86 H113 0.930 . S
C87 C83 1.332 . S
C87 C88 1.394 . S
C87 H114 0.932 . S
C88 C84 1.308 . S
C88 C87 1.394 . S
C88 H115 0.929 . S
C89 Tb80 2.764 . S
C89 C83 1.504 . S
C89 O101 1.239 . S
C89 O102 1.263 . S
O90 Tb80 2.325 . S
O90 C100 1.236 . S
O91 Tb81 2.322 . S
O91 C100 1.257 . S
O92 Tb81 2.349 . S
O92 C103 1.261 . S
O93 Tb80 2.303 . S
O93 C103 1.257 . S
O94 Tb81 2.415 . S
O94 C110 1.239 . S
O95 Tb81 2.399 . S
O95 C110 1.263 . S
O96 Tb81 2.325 . S
O96 C111 1.236 . S
O97 Tb80 2.322 . S
O97 C111 1.257 . S
O98 Tb80 2.349 . S
O98 C82 1.261 . S
O99 Tb81 2.303 . S
O99 C82 1.257 . S
C100 O90 1.236 . S
C100 O91 1.257 . S
O101 Tb80 2.415 . S
O101 C89 1.239 . S
O102 Tb80 2.399 . S
O102 C89 1.263 . S
C103 O92 1.261 . S
C103 O93 1.257 . S
C104 C107 1.358 . S
C104 C108 1.332 . S
C104 C110 1.504 . S
C105 C106 1.373 . S
C105 C109 1.308 . S
C106 C105 1.373 . S
C106 C107 1.429 . S
C106 H116 0.932 . S
C107 C104 1.358 . S
C107 C106 1.429 . S
C107 H117 0.930 . S
C108 C104 1.332 . S
C108 C109 1.394 . S
C108 H118 0.932 . S
C109 C105 1.308 . S
C109 C108 1.394 . S
C109 H119 0.929 . S
C110 Tb81 2.764 . S
C110 O94 1.239 . S
C110 O95 1.263 . S
C110 C104 1.504 . S
C111 O96 1.236 . S
C111 O97 1.257 . S
H112 C85 0.932 . S
H113 C86 0.930 . S
H114 C87 0.932 . S
H115 C88 0.929 . S
H116 C106 0.932 . S
H117 C107 0.930 . S
H118 C108 0.932 . S
H119 C109 0.929 . S
H120 C123 0.931 . S
H121 C126 0.928 . S
H122 C128 0.930 . S
C123 H120 0.931 . S
C123 C124 1.413 . S
C123 C125 1.360 1_565 S
C124 C123 1.413 . S
C124 C128 1.429 1_565 S
C125 C123 1.360 1_545 S
C125 C126 1.372 . S
C126 H121 0.928 . S
C126 C125 1.372 . S
C126 C127 1.404 . S
C127 C126 1.404 . S
C127 C128 1.391 . S
C128 H122 0.930 . S
C128 C124 1.429 1_545 S
C128 C127 1.391 . S
H129 C132 0.931 . S
H130 C135 0.928 . S
H131 C137 0.930 . S
C132 H129 0.931 . S
C132 C133 1.413 . S
C132 C134 1.360 . S
C133 C132 1.413 . S
C133 C137 1.429 . S
C134 C132 1.360 . S
C134 C135 1.372 . S
C135 H130 0.928 . S
C135 C134 1.372 . S
C135 C136 1.404 . S
C136 C135 1.404 . S
C136 C137 1.391 . S
C137 H131 0.930 . S
C137 C133 1.429 . S
C137 C136 1.391 . S
H138 C141 0.931 . S
H139 C144 0.928 . S
H140 C146 0.930 . S
C141 H138 0.931 . S
C141 C142 1.413 . S
C141 C143 1.360 . S
C142 C141 1.413 . S
C142 C146 1.429 . S
C143 C141 1.360 . S
C143 C144 1.372 . S
C144 H139 0.928 . S
C144 C143 1.372 . S
C144 C145 1.404 . S
C145 C144 1.404 . S
C145 C146 1.391 . S
C146 H140 0.930 . S
C146 C142 1.429 . S
C146 C145 1.391 . S
H147 C150 0.931 . S
H148 C153 0.928 . S
H149 C155 0.930 . S
C150 H147 0.931 . S
C150 C151 1.413 . S
C150 C152 1.347 1_655 S
C151 C150 1.413 . S
C151 C155 1.429 1_655 S
C152 C150 1.347 1_455 S
C152 C153 1.385 . S
C153 H148 0.928 . S
C153 C152 1.385 . S
C153 C154 1.404 . S
C154 C153 1.404 . S
C154 C155 1.391 . S
C155 H149 0.930 . S
C155 C151 1.429 1_455 S
C155 C154 1.391 . S
H156 C159 0.931 . S
H157 C162 0.928 . S
H158 C164 0.930 . S
C159 H156 0.931 . S
C159 C160 1.413 . S
C159 C161 1.360 1_545 S
C160 C159 1.413 . S
C160 C164 1.429 . S
C161 C159 1.360 1_565 S
C161 C162 1.372 . S
C162 H157 0.928 . S
C162 C161 1.372 . S
C162 C163 1.404 . S
C163 C162 1.404 . S
C163 C164 1.391 1_565 S
C164 H158 0.930 . S
C164 C160 1.429 . S
C164 C163 1.391 1_545 S
H165 C168 0.931 . S
H166 C171 0.928 . S
H167 C173 0.930 . S
C168 H165 0.931 . S
C168 C169 1.413 . S
C168 C170 1.360 . S
C169 C168 1.413 . S
C169 C173 1.429 . S
C170 C168 1.360 . S
C170 C171 1.372 . S
C171 H166 0.928 . S
C171 C170 1.372 . S
C171 C172 1.404 . S
C172 C171 1.404 . S
C172 C173 1.391 . S
C173 H167 0.930 . S
C173 C169 1.429 . S
C173 C172 1.391 . S
C174 C175 1.391 . S
C174 C176 1.394 . S
C174 H190 0.931 . S
C175 C174 1.391 . S
C175 C179 1.376 . S
C176 C174 1.394 . S
C176 C177 1.369 . S
C176 C180 1.531 . S
C177 C176 1.369 . S
C177 C178 1.410 . S
C177 C185 1.503 . S
C178 C177 1.410 . S
C178 C179 1.392 . S
C178 C181 1.511 . S
C179 C175 1.376 . S
C179 C178 1.392 . S
C179 H191 0.929 . S
C180 C176 1.531 . S
C180 H192 0.960 . S
C180 H193 0.962 . S
C180 H194 0.960 . S
C181 C178 1.511 . S
C181 H195 0.961 . S
C181 H196 0.961 . S
C181 H197 0.961 . S
C182 C183 1.370 . S
C182 C184 1.363 . S
C182 H198 0.931 . S
C183 C182 1.370 . S
C183 C187 1.408 . S
C184 C182 1.363 . S
C184 C185 1.370 . S
C184 C188 1.524 . S
C185 C177 1.503 . S
C185 C184 1.370 . S
C185 C186 1.403 . S
C186 C185 1.403 . S
C186 C187 1.404 . S
C186 C189 1.539 . S
C187 C183 1.408 . S
C187 C186 1.404 . S
C187 H199 0.930 . S
C188 C184 1.524 . S
C188 H200 0.956 . S
C188 H201 0.961 . S
C188 H202 0.961 . S
C189 C186 1.539 . S
C189 H203 0.958 . S
C189 H204 0.961 . S
C189 H205 0.960 . S
H190 C174 0.931 . S
H191 C179 0.929 . S
H192 C180 0.960 . S
H193 C180 0.962 . S
H194 C180 0.960 . S
H195 C181 0.961 . S
H196 C181 0.961 . S
H197 C181 0.961 . S
H198 C182 0.931 . S
H199 C187 0.930 . S
H200 C188 0.956 . S
H201 C188 0.961 . S
H202 C188 0.961 . S
H203 C189 0.958 . S
H204 C189 0.961 . S
H205 C189 0.960 . S
C206 C207 1.391 . S
C206 C208 1.394 . S
C206 H222 0.931 . S
C207 C206 1.391 . S
C207 C211 1.376 . S
C208 C206 1.394 . S
C208 C209 1.369 . S
C208 C212 1.531 . S
C209 C208 1.369 . S
C209 C210 1.410 . S
C209 C217 1.503 . S
C210 C209 1.410 . S
C210 C211 1.392 . S
C210 C213 1.511 . S
C211 C207 1.376 . S
C211 C210 1.392 . S
C211 H223 0.929 . S
C212 C208 1.531 . S
C212 H224 0.960 . S
C212 H225 0.962 . S
C212 H226 0.960 . S
C213 C210 1.511 . S
C213 H227 0.961 . S
C213 H228 0.961 . S
C213 H229 0.961 . S
C214 C215 1.370 . S
C214 C216 1.363 . S
C214 H230 0.931 . S
C215 C214 1.370 . S
C215 C219 1.408 . S
C216 C214 1.363 . S
C216 C217 1.370 . S
C216 C220 1.524 . S
C217 C209 1.503 . S
C217 C216 1.370 . S
C217 C218 1.403 . S
C218 C217 1.403 . S
C218 C219 1.404 . S
C218 C221 1.539 . S
C219 C215 1.408 . S
C219 C218 1.404 . S
C219 H231 0.930 1_655 S
C220 C216 1.524 . S
C220 H232 0.956 . S
C220 H233 0.961 . S
C220 H234 0.961 . S
C221 C218 1.539 . S
C221 H235 0.958 . S
C221 H236 0.961 . S
C221 H237 0.960 . S
H222 C206 0.931 . S
H223 C211 0.929 . S
H224 C212 0.960 . S
H225 C212 0.962 . S
H226 C212 0.960 . S
H227 C213 0.961 . S
H228 C213 0.961 . S
H229 C213 0.961 . S
H230 C214 0.931 . S
H231 C219 0.930 1_455 S
H232 C220 0.956 . S
H233 C220 0.961 . S
H234 C220 0.961 . S
H235 C221 0.958 . S
H236 C221 0.961 . S
H237 C221 0.960 . S
C238 C239 1.391 . S
C238 C240 1.394 . S
C238 H254 0.931 . S
C239 C238 1.391 . S
C239 C243 1.376 . S
C240 C238 1.394 . S
C240 C241 1.369 . S
C240 C244 1.531 . S
C241 C240 1.369 . S
C241 C242 1.410 . S
C241 C249 1.503 . S
C242 C241 1.410 . S
C242 C243 1.392 . S
C242 C245 1.511 . S
C243 C239 1.376 . S
C243 C242 1.392 . S
C243 H255 0.929 . S
C244 C240 1.531 . S
C244 H256 0.960 . S
C244 H257 0.962 . S
C244 H258 0.960 . S
C245 C242 1.511 . S
C245 H259 0.961 . S
C245 H260 0.961 . S
C245 H261 0.961 . S
C246 C247 1.370 . S
C246 C248 1.363 . S
C246 H262 0.931 . S
C247 C246 1.370 . S
C247 C251 1.408 . S
C248 C246 1.363 . S
C248 C249 1.370 . S
C248 C252 1.524 . S
C249 C241 1.503 . S
C249 C248 1.370 . S
C249 C250 1.403 . S
C250 C249 1.403 . S
C250 C251 1.404 . S
C250 C253 1.539 . S
C251 C247 1.408 . S
C251 C250 1.404 . S
C251 H263 0.930 1_565 S
C252 C248 1.524 . S
C252 H264 0.956 . S
C252 H265 0.961 . S
C252 H266 0.961 . S
C253 C250 1.539 . S
C253 H267 0.958 1_565 S
C253 H268 0.961 1_565 S
C253 H269 0.960 . S
H254 C238 0.931 . S
H255 C243 0.929 . S
H256 C244 0.960 . S
H257 C244 0.962 . S
H258 C244 0.960 . S
H259 C245 0.961 . S
H260 C245 0.961 . S
H261 C245 0.961 . S
H262 C246 0.931 . S
H263 C251 0.930 1_545 S
H264 C252 0.956 . S
H265 C252 0.961 . S
H266 C252 0.961 . S
H267 C253 0.958 1_545 S
H268 C253 0.961 1_545 S
H269 C253 0.960 . S
C270 C271 1.391 . S
C270 C272 1.394 . S
C270 H286 0.931 . S
C271 C270 1.391 . S
C271 C275 1.376 . S
C272 C270 1.394 . S
C272 C273 1.369 . S
C272 C276 1.531 . S
C273 C272 1.369 . S
C273 C274 1.410 . S
C273 C281 1.503 . S
C274 C273 1.410 . S
C274 C275 1.392 . S
C274 C277 1.511 . S
C275 C271 1.376 . S
C275 C274 1.392 . S
C275 H287 0.929 . S
C276 C272 1.531 . S
C276 H288 0.960 . S
C276 H289 0.962 . S
C276 H290 0.960 . S
C277 C274 1.511 . S
C277 H291 0.961 . S
C277 H292 0.961 . S
C277 H293 0.961 . S
C278 C279 1.370 . S
C278 C280 1.363 . S
C278 H294 0.931 . S
C279 C278 1.370 . S
C279 C283 1.408 . S
C280 C278 1.363 . S
C280 C281 1.370 . S
C280 C284 1.524 . S
C281 C273 1.503 . S
C281 C280 1.370 . S
C281 C282 1.403 . S
C282 C281 1.403 . S
C282 C283 1.404 . S
C282 C285 1.539 . S
C283 C279 1.408 . S
C283 C282 1.404 . S
C283 H295 0.930 . S
C284 C280 1.524 . S
C284 H296 0.956 . S
C284 H297 0.961 . S
C284 H298 0.961 . S
C285 C282 1.539 . S
C285 H299 0.958 . S
C285 H300 0.961 . S
C285 H301 0.960 . S
H286 C270 0.931 . S
H287 C275 0.929 . S
H288 C276 0.960 . S
H289 C276 0.962 . S
H290 C276 0.960 . S
H291 C277 0.961 . S
H292 C277 0.961 . S
H293 C277 0.961 . S
H294 C278 0.931 . S
H295 C283 0.930 . S
H296 C284 0.956 . S
H297 C284 0.961 . S
H298 C284 0.961 . S
H299 C285 0.958 . S
H300 C285 0.961 . S
H301 C285 0.960 . S
C302 C303 1.391 . S
C302 C304 1.394 . S
C302 H318 0.931 . S
C303 C302 1.391 . S
C303 C307 1.376 . S
C304 C302 1.394 . S
C304 C305 1.369 . S
C304 C308 1.531 . S
C305 C304 1.369 . S
C305 C306 1.410 . S
C305 C313 1.503 . S
C306 C305 1.410 . S
C306 C307 1.392 . S
C306 C309 1.511 . S
C307 C303 1.376 . S
C307 C306 1.392 . S
C307 H319 0.929 . S
C308 C304 1.531 . S
C308 H320 0.960 . S
C308 H321 0.962 . S
C308 H322 0.960 . S
C309 C306 1.511 . S
C309 H323 0.961 . S
C309 H324 0.961 . S
C309 H325 0.961 . S
C310 C311 1.370 . S
C310 C312 1.363 . S
C310 H326 0.931 . S
C311 C310 1.370 . S
C311 C315 1.408 . S
C312 C310 1.363 . S
C312 C313 1.370 . S
C312 C316 1.524 . S
C313 C305 1.503 . S
C313 C312 1.370 . S
C313 C314 1.403 . S
C314 C313 1.403 . S
C314 C315 1.404 . S
C314 C317 1.539 . S
C315 C311 1.408 . S
C315 C314 1.404 . S
C315 H327 0.930 . S
C316 C312 1.524 . S
C316 H328 0.956 . S
C316 H329 0.961 . S
C316 H330 0.961 . S
C317 C314 1.539 . S
C317 H331 0.958 . S
C317 H332 0.961 . S
C317 H333 0.960 . S
H318 C302 0.931 . S
H319 C307 0.929 . S
H320 C308 0.960 . S
H321 C308 0.962 . S
H322 C308 0.960 . S
H323 C309 0.961 . S
H324 C309 0.961 . S
H325 C309 0.961 . S
H326 C310 0.931 . S
H327 C315 0.930 . S
H328 C316 0.956 . S
H329 C316 0.961 . S
H330 C316 0.961 . S
H331 C317 0.958 . S
H332 C317 0.961 . S
H333 C317 0.960 . S
C334 C335 1.391 . S
C334 C336 1.394 . S
C334 H350 0.931 . S
C335 C334 1.391 . S
C335 C339 1.376 . S
C336 C334 1.394 . S
C336 C337 1.369 . S
C336 C340 1.531 . S
C337 C336 1.369 . S
C337 C338 1.410 . S
C337 C345 1.503 . S
C338 C337 1.410 . S
C338 C339 1.392 . S
C338 C341 1.511 . S
C339 C335 1.376 . S
C339 C338 1.392 . S
C339 H351 0.929 . S
C340 C336 1.531 . S
C340 H352 0.960 . S
C340 H353 0.962 . S
C340 H354 0.960 . S
C341 C338 1.511 . S
C341 H355 0.961 . S
C341 H356 0.961 . S
C341 H357 0.961 . S
C342 C343 1.370 . S
C342 C344 1.363 . S
C342 H358 0.931 . S
C343 C342 1.370 . S
C343 C347 1.408 . S
C344 C342 1.363 . S
C344 C345 1.370 . S
C344 C348 1.524 . S
C345 C337 1.503 . S
C345 C344 1.370 . S
C345 C346 1.403 . S
C346 C345 1.403 . S
C346 C347 1.404 . S
C346 C349 1.539 . S
C347 C343 1.408 . S
C347 C346 1.404 . S
C347 H359 0.930 . S
C348 C344 1.524 . S
C348 H360 0.956 . S
C348 H361 0.961 . S
C348 H362 0.961 . S
C349 C346 1.539 . S
C349 H363 0.958 . S
C349 H364 0.961 . S
C349 H365 0.960 . S
H350 C334 0.931 . S
H351 C339 0.929 . S
H352 C340 0.960 . S
H353 C340 0.962 . S
H354 C340 0.960 . S
H355 C341 0.961 . S
H356 C341 0.961 . S
H357 C341 0.961 . S
H358 C342 0.931 . S
H359 C347 0.930 . S
H360 C348 0.956 . S
H361 C348 0.961 . S
H362 C348 0.961 . S
H363 C349 0.958 . S
H364 C349 0.961 . S
H365 C349 0.960 . S
C366 C367 1.391 . S
C366 C368 1.394 . S
C366 H382 0.931 . S
C367 C366 1.391 . S
C367 C371 1.376 . S
C368 C366 1.394 . S
C368 C369 1.369 . S
C368 C372 1.531 . S
C369 C368 1.369 . S
C369 C370 1.410 . S
C369 C377 1.503 . S
C370 C369 1.410 . S
C370 C371 1.392 . S
C370 C373 1.511 . S
C371 C367 1.376 . S
C371 C370 1.392 . S
C371 H383 0.929 . S
C372 C368 1.531 . S
C372 H384 0.960 . S
C372 H385 0.962 . S
C372 H386 0.960 . S
C373 C370 1.511 . S
C373 H387 0.961 . S
C373 H388 0.961 . S
C373 H389 0.961 . S
C374 C375 1.370 . S
C374 C376 1.363 . S
C374 H390 0.931 . S
C375 C374 1.370 . S
C375 C379 1.408 . S
C376 C374 1.363 . S
C376 C377 1.370 . S
C376 C380 1.524 . S
C377 C369 1.503 . S
C377 C376 1.370 . S
C377 C378 1.403 . S
C378 C377 1.403 . S
C378 C379 1.404 . S
C378 C381 1.539 . S
C379 C375 1.408 . S
C379 C378 1.404 . S
C379 H391 0.930 . S
C380 C376 1.524 . S
C380 H392 0.956 . S
C380 H393 0.961 . S
C380 H394 0.961 . S
C381 C378 1.539 . S
C381 H395 0.958 . S
C381 H396 0.961 . S
C381 H397 0.960 . S
H382 C366 0.931 . S
H383 C371 0.929 . S
H384 C372 0.960 . S
H385 C372 0.962 . S
H386 C372 0.960 . S
H387 C373 0.961 . S
H388 C373 0.961 . S
H389 C373 0.961 . S
H390 C374 0.931 . S
H391 C379 0.930 . S
H392 C380 0.956 . S
H393 C380 0.961 . S
H394 C380 0.961 . S
H395 C381 0.958 . S
H396 C381 0.961 . S
H397 C381 0.960 . S
C398 C399 1.391 . S
C398 C400 1.394 . S
C398 H414 0.931 . S
C399 C398 1.391 . S
C399 C403 1.376 . S
C400 C398 1.394 . S
C400 C401 1.369 . S
C400 C404 1.531 . S
C401 C400 1.369 . S
C401 C402 1.410 . S
C401 C409 1.503 . S
C402 C401 1.410 . S
C402 C403 1.392 . S
C402 C405 1.511 . S
C403 C399 1.376 . S
C403 C402 1.392 . S
C403 H415 0.929 . S
C404 C400 1.531 . S
C404 H416 0.960 . S
C404 H417 0.962 . S
C404 H418 0.960 . S
C405 C402 1.511 . S
C405 H419 0.961 . S
C405 H420 0.961 . S
C405 H421 0.961 . S
C406 C407 1.370 . S
C406 C408 1.363 . S
C406 H422 0.931 . S
C407 C406 1.370 . S
C407 C411 1.408 . S
C408 C406 1.363 . S
C408 C409 1.370 . S
C408 C412 1.524 . S
C409 C401 1.503 . S
C409 C408 1.370 . S
C409 C410 1.403 . S
C410 C409 1.403 . S
C410 C411 1.404 . S
C410 C413 1.539 . S
C411 C407 1.408 . S
C411 C410 1.404 . S
C411 H423 0.930 . S
C412 C408 1.524 . S
C412 H424 0.956 . S
C412 H425 0.961 . S
C412 H426 0.961 . S
C413 C410 1.539 . S
C413 H427 0.958 . S
C413 H428 0.961 . S
C413 H429 0.960 . S
H414 C398 0.931 . S
H415 C403 0.929 . S
H416 C404 0.960 . S
H417 C404 0.962 . S
H418 C404 0.960 . S
H419 C405 0.961 . S
H420 C405 0.961 . S
H421 C405 0.961 . S
H422 C406 0.931 . S
H423 C411 0.930 . S
H424 C412 0.956 . S
H425 C412 0.961 . S
H426 C412 0.961 . S
H427 C413 0.958 . S
H428 C413 0.961 . S
H429 C413 0.960 . S
C430 C431 1.391 . S
C430 C432 1.394 . S
C430 H446 0.931 . S
C431 C430 1.391 . S
C431 C435 1.376 . S
C432 C430 1.394 . S
C432 C433 1.369 . S
C432 C436 1.531 . S
C433 C432 1.369 . S
C433 C434 1.410 . S
C433 C441 1.503 . S
C434 C433 1.410 . S
C434 C435 1.392 . S
C434 C437 1.511 . S
C435 C431 1.376 . S
C435 C434 1.392 . S
C435 H447 0.929 . S
C436 C432 1.531 . S
C436 H448 0.960 . S
C436 H449 0.962 . S
C436 H450 0.960 . S
C437 C434 1.511 . S
C437 H451 0.961 . S
C437 H452 0.961 . S
C437 H453 0.961 . S
C438 C439 1.370 . S
C438 C440 1.363 . S
C438 H454 0.931 . S
C439 C438 1.370 . S
C439 C443 1.408 . S
C440 C438 1.363 . S
C440 C441 1.370 . S
C440 C444 1.524 . S
C441 C433 1.503 . S
C441 C440 1.370 . S
C441 C442 1.403 . S
C442 C441 1.403 . S
C442 C443 1.404 . S
C442 C445 1.539 . S
C443 C439 1.408 . S
C443 C442 1.404 . S
C443 H455 0.930 . S
C444 C440 1.524 . S
C444 H456 0.956 . S
C444 H457 0.961 . S
C444 H458 0.961 . S
C445 C442 1.539 . S
C445 H459 0.958 . S
C445 H460 0.961 . S
C445 H461 0.960 . S
H446 C430 0.931 . S
H447 C435 0.929 . S
H448 C436 0.960 . S
H449 C436 0.962 . S
H450 C436 0.960 . S
H451 C437 0.961 . S
H452 C437 0.961 . S
H453 C437 0.961 . S
H454 C438 0.931 . S
H455 C443 0.930 . S
H456 C444 0.956 . S
H457 C444 0.961 . S
H458 C444 0.961 . S
H459 C445 0.958 . S
H460 C445 0.961 . S
H461 C445 0.960 . S
C462 C463 1.391 . S
C462 C464 1.394 . S
C462 H478 0.931 . S
C463 C462 1.391 . S
C463 C467 1.376 . S
C464 C462 1.394 . S
C464 C465 1.369 . S
C464 C468 1.531 . S
C465 C464 1.369 . S
C465 C466 1.410 . S
C465 C473 1.503 . S
C466 C465 1.410 . S
C466 C467 1.392 . S
C466 C469 1.511 . S
C467 C463 1.376 . S
C467 C466 1.392 . S
C467 H479 0.929 . S
C468 C464 1.531 . S
C468 H480 0.960 . S
C468 H481 0.962 . S
C468 H482 0.960 . S
C469 C466 1.511 . S
C469 H483 0.961 . S
C469 H484 0.961 . S
C469 H485 0.961 . S
C470 C471 1.370 . S
C470 C472 1.363 . S
C470 H486 0.931 . S
C471 C470 1.370 . S
C471 C475 1.408 . S
C472 C470 1.363 . S
C472 C473 1.370 . S
C472 C476 1.524 . S
C473 C465 1.503 . S
C473 C472 1.370 . S
C473 C474 1.403 . S
C474 C473 1.403 . S
C474 C475 1.404 . S
C474 C477 1.539 . S
C475 C471 1.408 . S
C475 C474 1.404 . S
C475 H487 0.930 . S
C476 C472 1.524 . S
C476 H488 0.956 . S
C476 H489 0.961 . S
C476 H490 0.961 . S
C477 C474 1.539 . S
C477 H491 0.958 . S
C477 H492 0.961 . S
C477 H493 0.960 . S
H478 C462 0.931 . S
H479 C467 0.929 . S
H480 C468 0.960 . S
H481 C468 0.962 . S
H482 C468 0.960 . S
H483 C469 0.961 . S
H484 C469 0.961 . S
H485 C469 0.961 . S
H486 C470 0.931 . S
H487 C475 0.930 . S
H488 C476 0.956 . S
H489 C476 0.961 . S
H490 C476 0.961 . S
H491 C477 0.958 . S
H492 C477 0.961 . S
H493 C477 0.960 . S
C494 C495 1.391 . S
C494 C496 1.394 . S
C494 H510 0.931 . S
C495 C494 1.391 . S
C495 C499 1.376 . S
C496 C494 1.394 . S
C496 C497 1.369 . S
C496 C500 1.531 . S
C497 C496 1.369 . S
C497 C498 1.410 . S
C497 C505 1.503 . S
C498 C497 1.410 . S
C498 C499 1.392 . S
C498 C501 1.511 . S
C499 C495 1.376 . S
C499 C498 1.392 . S
C499 H511 0.929 . S
C500 C496 1.531 . S
C500 H512 0.960 . S
C500 H513 0.962 . S
C500 H514 0.960 . S
C501 C498 1.511 . S
C501 H515 0.961 . S
C501 H516 0.961 . S
C501 H517 0.961 . S
C502 C503 1.370 . S
C502 C504 1.363 . S
C502 H518 0.931 . S
C503 C502 1.370 . S
C503 C507 1.408 . S
C504 C502 1.363 . S
C504 C505 1.370 . S
C504 C508 1.524 . S
C505 C497 1.503 . S
C505 C504 1.370 . S
C505 C506 1.403 . S
C506 C505 1.403 . S
C506 C507 1.404 . S
C506 C509 1.539 . S
C507 C503 1.408 . S
C507 C506 1.404 . S
C507 H519 0.930 . S
C508 C504 1.524 . S
C508 H520 0.956 . S
C508 H521 0.961 . S
C508 H522 0.961 . S
C509 C506 1.539 . S
C509 H523 0.958 . S
C509 H524 0.961 . S
C509 H525 0.960 . S
H510 C494 0.931 . S
H511 C499 0.929 . S
H512 C500 0.960 . S
H513 C500 0.962 . S
H514 C500 0.960 . S
H515 C501 0.961 . S
H516 C501 0.961 . S
H517 C501 0.961 . S
H518 C502 0.931 . S
H519 C507 0.930 . S
H520 C508 0.956 . S
H521 C508 0.961 . S
H522 C508 0.961 . S
H523 C509 0.958 . S
H524 C509 0.961 . S
H525 C509 0.960 . S
C526 C527 1.391 . S
C526 C528 1.394 . S
C526 H542 0.931 . S
C527 C526 1.391 . S
C527 C531 1.376 . S
C528 C526 1.394 . S
C528 C529 1.369 . S
C528 C532 1.531 . S
C529 C528 1.369 . S
C529 C530 1.410 . S
C529 C537 1.503 . S
C530 C529 1.410 . S
C530 C531 1.392 . S
C530 C533 1.511 . S
C531 C527 1.376 . S
C531 C530 1.392 . S
C531 H543 0.929 . S
C532 C528 1.531 . S
C532 H544 0.960 . S
C532 H545 0.962 . S
C532 H546 0.960 . S
C533 C530 1.511 . S
C533 H547 0.961 . S
C533 H548 0.961 . S
C533 H549 0.961 . S
C534 C535 1.370 . S
C534 C536 1.363 . S
C534 H550 0.931 . S
C535 C534 1.370 . S
C535 C539 1.408 . S
C536 C534 1.363 . S
C536 C537 1.370 . S
C536 C540 1.524 . S
C537 C529 1.503 . S
C537 C536 1.370 . S
C537 C538 1.403 . S
C538 C537 1.403 . S
C538 C539 1.404 . S
C538 C541 1.539 . S
C539 C535 1.408 . S
C539 C538 1.404 . S
C539 H551 0.930 . S
C540 C536 1.524 . S
C540 H552 0.956 . S
C540 H553 0.961 . S
C540 H554 0.961 . S
C541 C538 1.539 . S
C541 H555 0.958 . S
C541 H556 0.961 . S
C541 H557 0.960 . S
H542 C526 0.931 . S
H543 C531 0.929 . S
H544 C532 0.960 . S
H545 C532 0.962 . S
H546 C532 0.960 . S
H547 C533 0.961 . S
H548 C533 0.961 . S
H549 C533 0.961 . S
H550 C534 0.931 . S
H551 C539 0.930 . S
H552 C540 0.956 . S
H553 C540 0.961 . S
H554 C540 0.961 . S
H555 C541 0.958 . S
H556 C541 0.961 . S
H557 C541 0.960 . S
C558 C559 1.391 . S
C558 C560 1.394 . S
C558 H574 0.931 . S
C559 C558 1.391 . S
C559 C563 1.376 . S
C560 C558 1.394 . S
C560 C561 1.369 . S
C560 C564 1.531 . S
C561 C560 1.369 . S
C561 C562 1.410 . S
C561 C569 1.503 . S
C562 C561 1.410 . S
C562 C563 1.392 . S
C562 C565 1.511 . S
C563 C559 1.376 . S
C563 C562 1.392 . S
C563 H575 0.929 . S
C564 C560 1.531 . S
C564 H576 0.960 . S
C564 H577 0.962 . S
C564 H578 0.960 . S
C565 C562 1.511 . S
C565 H579 0.961 . S
C565 H580 0.961 . S
C565 H581 0.961 . S
C566 C567 1.370 . S
C566 C568 1.363 . S
C566 H582 0.931 . S
C567 C566 1.370 . S
C567 C571 1.408 . S
C568 C566 1.363 . S
C568 C569 1.370 1_556 S
C568 C572 1.524 1_556 S
C569 C561 1.503 . S
C569 C568 1.370 1_554 S
C569 C570 1.403 1_554 S
C570 C569 1.403 1_556 S
C570 C571 1.404 . S
C570 C573 1.539 1_456 S
C571 C567 1.408 . S
C571 C570 1.404 . S
C571 H583 0.930 1_455 S
C572 C568 1.524 1_554 S
C572 H584 0.956 . S
C572 H585 0.961 . S
C572 H586 0.961 . S
C573 C570 1.539 1_654 S
C573 H587 0.958 . S
C573 H588 0.961 1_554 S
C573 H589 0.960 . S
H574 C558 0.931 . S
H575 C563 0.929 . S
H576 C564 0.960 . S
H577 C564 0.962 . S
H578 C564 0.960 . S
H579 C565 0.961 . S
H580 C565 0.961 . S
H581 C565 0.961 . S
H582 C566 0.931 . S
H583 C571 0.930 1_655 S
H584 C572 0.956 . S
H585 C572 0.961 . S
H586 C572 0.961 . S
H587 C573 0.958 . S
H588 C573 0.961 1_556 S
H589 C573 0.960 . S
C590 C591 1.391 . S
C590 C592 1.395 1_545 S
C590 H606 0.931 1_545 S
C591 C590 1.391 . S
C591 C595 1.376 . S
C592 C590 1.395 1_565 S
C592 C593 1.344 1_565 S
C592 C596 1.555 . S
C593 C592 1.344 1_545 S
C593 C594 1.410 . S
C593 C601 1.503 . S
C594 C593 1.410 . S
C594 C595 1.392 . S
C594 C597 1.511 . S
C595 C591 1.376 . S
C595 C594 1.392 . S
C595 H607 0.929 . S
C596 C592 1.555 . S
C596 H608 0.960 . S
C596 H609 0.962 . S
C596 H610 0.960 . S
C597 C594 1.511 . S
C597 H611 0.961 . S
C597 H612 0.961 . S
C597 H613 0.961 . S
C598 C599 1.370 . S
C598 C600 1.363 . S
C598 H614 0.931 . S
C599 C598 1.370 . S
C599 C603 1.408 . S
C600 C598 1.363 . S
C600 C601 1.370 . S
C600 C604 1.524 . S
C601 C593 1.503 . S
C601 C600 1.370 . S
C601 C602 1.403 . S
C602 C601 1.403 . S
C602 C603 1.404 . S
C602 C605 1.539 1_545 S
C603 C599 1.408 . S
C603 C602 1.404 . S
C603 H615 0.930 1_545 S
C604 C600 1.524 . S
C604 H616 0.956 . S
C604 H617 0.961 . S
C604 H618 0.961 . S
C605 C602 1.539 1_565 S
C605 H619 0.958 . S
C605 H620 0.961 . S
C605 H621 0.960 1_565 S
H606 C590 0.931 1_565 S
H607 C595 0.929 . S
H608 C596 0.960 . S
H609 C596 0.962 . S
H610 C596 0.960 . S
H611 C597 0.961 . S
H612 C597 0.961 . S
H613 C597 0.961 . S
H614 C598 0.931 . S
H615 C603 0.930 1_565 S
H616 C604 0.956 . S
H617 C604 0.961 . S
H618 C604 0.961 . S
H619 C605 0.958 . S
H620 C605 0.961 . S
H621 C605 0.960 1_545 S
C622 C623 1.391 . S
C622 C624 1.394 . S
C622 H638 0.931 . S
C623 C622 1.391 . S
C623 C627 1.376 . S
C624 C622 1.394 . S
C624 C625 1.369 . S
C624 C628 1.531 . S
C625 C624 1.369 . S
C625 C626 1.410 . S
C625 C633 1.503 . S
C626 C625 1.410 . S
C626 C627 1.392 . S
C626 C629 1.511 . S
C627 C623 1.376 . S
C627 C626 1.392 . S
C627 H639 0.929 . S
C628 C624 1.531 . S
C628 H640 0.960 . S
C628 H641 0.962 . S
C628 H642 0.960 . S
C629 C626 1.511 . S
C629 H643 0.961 . S
C629 H644 0.961 . S
C629 H645 0.961 . S
C630 C631 1.370 . S
C630 C632 1.363 . S
C630 H646 0.931 . S
C631 C630 1.370 . S
C631 C635 1.408 . S
C632 C630 1.363 . S
C632 C633 1.370 . S
C632 C636 1.524 . S
C633 C625 1.503 . S
C633 C632 1.370 . S
C633 C634 1.403 . S
C634 C633 1.403 . S
C634 C635 1.404 . S
C634 C637 1.539 . S
C635 C631 1.408 . S
C635 C634 1.404 . S
C635 H647 0.930 . S
C636 C632 1.524 . S
C636 H648 0.956 . S
C636 H649 0.961 . S
C636 H650 0.961 . S
C637 C634 1.539 . S
C637 H651 0.958 . S
C637 H652 0.961 . S
C637 H653 0.960 . S
H638 C622 0.931 . S
H639 C627 0.929 . S
H640 C628 0.960 . S
H641 C628 0.962 . S
H642 C628 0.960 . S
H643 C629 0.961 . S
H644 C629 0.961 . S
H645 C629 0.961 . S
H646 C630 0.931 . S
H647 C635 0.930 . S
H648 C636 0.956 . S
H649 C636 0.961 . S
H650 C636 0.961 . S
H651 C637 0.958 . S
H652 C637 0.961 . S
H653 C637 0.960 . S
C654 C655 1.391 1_565 S
C654 C656 1.394 . S
C654 H670 0.931 . S
C655 C654 1.391 1_545 S
C655 C659 1.376 . S
C656 C654 1.394 . S
C656 C657 1.369 1_565 S
C656 C660 1.531 . S
C657 C656 1.369 1_545 S
C657 C658 1.410 . S
C657 C665 1.503 . S
C658 C657 1.410 . S
C658 C659 1.392 . S
C658 C661 1.511 . S
C659 C655 1.376 . S
C659 C658 1.392 . S
C659 H671 0.929 . S
C660 C656 1.531 . S
C660 H672 0.960 . S
C660 H673 0.962 . S
C660 H674 0.960 . S
C661 C658 1.511 . S
C661 H675 0.961 . S
C661 H676 0.961 . S
C661 H677 0.961 . S
C662 C663 1.370 1_545 S
C662 C664 1.363 . S
C662 H678 0.931 . S
C663 C662 1.370 1_565 S
C663 C667 1.408 . S
C664 C662 1.363 . S
C664 C665 1.370 . S
C664 C668 1.524 . S
C665 C657 1.503 . S
C665 C664 1.370 . S
C665 C666 1.403 1_545 S
C666 C665 1.403 1_565 S
C666 C667 1.404 . S
C666 C669 1.539 . S
C667 C663 1.408 . S
C667 C666 1.404 . S
C667 H679 0.930 . S
C668 C664 1.524 . S
C668 H680 0.956 . S
C668 H681 0.961 . S
C668 H682 0.961 . S
C669 C666 1.539 . S
C669 H683 0.958 . S
C669 H684 0.961 . S
C669 H685 0.960 . S
H670 C654 0.931 . S
H671 C659 0.929 . S
H672 C660 0.960 . S
H673 C660 0.962 . S
H674 C660 0.960 . S
H675 C661 0.961 . S
H676 C661 0.961 . S
H677 C661 0.961 . S
H678 C662 0.931 . S
H679 C667 0.930 . S
H680 C668 0.956 . S
H681 C668 0.961 . S
H682 C668 0.961 . S
H683 C669 0.958 . S
H684 C669 0.961 . S
H685 C669 0.960 . S
C686 C687 1.391 . S
C686 C688 1.394 . S
C686 H702 0.931 . S
C687 C686 1.391 . S
C687 C691 1.376 . S
C688 C686 1.394 . S
C688 C689 1.369 . S
C688 C692 1.531 . S
C689 C688 1.369 . S
C689 C690 1.410 . S
C689 C697 1.503 . S
C690 C689 1.410 . S
C690 C691 1.392 . S
C690 C693 1.511 . S
C691 C687 1.376 . S
C691 C690 1.392 . S
C691 H703 0.929 . S
C692 C688 1.531 . S
C692 H704 0.960 . S
C692 H705 0.962 . S
C692 H706 0.960 . S
C693 C690 1.511 . S
C693 H707 0.961 . S
C693 H708 0.961 . S
C693 H709 0.961 . S
C694 C695 1.370 . S
C694 C696 1.363 1_554 S
C694 H710 0.931 . S
C695 C694 1.370 . S
C695 C699 1.408 . S
C696 C694 1.363 1_556 S
C696 C697 1.370 . S
C696 C700 1.524 . S
C697 C689 1.503 . S
C697 C696 1.370 . S
C697 C698 1.403 . S
C698 C697 1.403 . S
C698 C699 1.404 1_556 S
C698 C701 1.539 . S
C699 C695 1.408 . S
C699 C698 1.404 1_554 S
C699 H711 0.930 . S
C700 C696 1.524 . S
C700 H712 0.956 . S
C700 H713 0.961 . S
C700 H714 0.961 1_556 S
C701 C698 1.539 . S
C701 H715 0.958 . S
C701 H716 0.961 . S
C701 H717 0.960 . S
H702 C686 0.931 . S
H703 C691 0.929 . S
H704 C692 0.960 . S
H705 C692 0.962 . S
H706 C692 0.960 . S
H707 C693 0.961 . S
H708 C693 0.961 . S
H709 C693 0.961 . S
H710 C694 0.931 . S
H711 C699 0.930 . S
H712 C700 0.956 . S
H713 C700 0.961 . S
H714 C700 0.961 1_554 S
H715 C701 0.958 . S
H716 C701 0.961 . S
H717 C701 0.960 . S
C718 C719 1.391 1_655 S
C718 C720 1.394 . S
C718 H734 0.931 . S
C719 C718 1.391 1_455 S
C719 C723 1.376 . S
C720 C718 1.394 . S
C720 C721 1.369 1_655 S
C720 C724 1.531 . S
C721 C720 1.369 1_455 S
C721 C722 1.410 . S
C721 C729 1.503 . S
C722 C721 1.410 . S
C722 C723 1.392 . S
C722 C725 1.511 . S
C723 C719 1.376 . S
C723 C722 1.392 . S
C723 H735 0.929 . S
C724 C720 1.531 . S
C724 H736 0.960 . S
C724 H737 0.962 . S
C724 H738 0.960 . S
C725 C722 1.511 . S
C725 H739 0.961 . S
C725 H740 0.961 . S
C725 H741 0.961 . S
C726 C727 1.361 . S
C726 C728 1.363 . S
C726 H742 0.925 1_455 S
C727 C726 1.361 . S
C727 C731 1.424 . S
C728 C726 1.363 . S
C728 C729 1.370 . S
C728 C732 1.524 . S
C729 C721 1.503 . S
C729 C728 1.370 . S
C729 C730 1.403 . S
C730 C729 1.403 . S
C730 C731 1.404 . S
C730 C733 1.539 . S
C731 C727 1.424 . S
C731 C730 1.404 . S
C731 H743 0.930 . S
C732 C728 1.524 . S
C732 H744 0.956 1_455 S
C732 H745 0.961 . S
C732 H746 0.961 . S
C733 C730 1.539 . S
C733 H747 0.958 1_455 S
C733 H748 0.961 . S
C733 H749 0.960 . S
H734 C718 0.931 . S
H735 C723 0.929 . S
H736 C724 0.960 . S
H737 C724 0.962 . S
H738 C724 0.960 . S
H739 C725 0.961 . S
H740 C725 0.961 . S
H741 C725 0.961 . S
H742 C726 0.925 1_655 S
H743 C731 0.930 . S
H744 C732 0.956 1_655 S
H745 C732 0.961 . S
H746 C732 0.961 . S
H747 C733 0.958 1_655 S
H748 C733 0.961 . S
H749 C733 0.960 . S
C175 C25 0.628 . S
C183 C169 0.487 . S
C207 C65 0.590 . S
C215 C151 0.379 . S
C239 C105 0.670 . S
C247 C163 0.480 . S
C271 C4 0.582 . S
C279 C172 0.525 . S
C311 C154 0.503 . S
C303 C44 0.468 . S
C343 C160 0.537 . S
C335 C84 0.531 . S
C367 C60 2.858 . S
C375 C133 2.841 . S
C399 C100 2.967 . S
C407 C142 2.933 1_655 S
C431 C31 2.954 . S
C439 C124 2.940 . S
C471 C136 2.932 . S
C463 C71 2.939 . S
C503 C145 2.843 . S
C495 C111 2.837 . S
C527 C20 2.859 . S
C535 C127 2.835 . S
C567 C143 1.822 . S
C559 C2 1.726 . S
C591 C42 1.734 . S
C599 C125 1.811 . S
C623 C82 1.729 . S
C631 C134 1.817 . S
C663 C161 0.994 . S
C655 C63 0.977 . S
C695 C170 1.046 . S
C687 C103 1.029 . S
C719 C23 0.957 . S
C727 C152 0.985 . S
