# Generated by pormake.
# Topology ptr, (4,4)-cn, num edge types: 1
# Building blocks:
#     Node 0, Type 0, BuildingBlock: UXUYUI_clean_sbu_0, # of connection points: 4
#     Node 1, Type 0, BuildingBlock: UXUYUI_clean_sbu_0, # of connection points: 4
#     Node 2, Type 0, BuildingBlock: UXUYUI_clean_sbu_0, # of connection points: 4
#     Node 3, Type 0, BuildingBlock: UXUYUI_clean_sbu_0, # of connection points: 4
#     Node 4, Type 0, BuildingBlock: UXUYUI_clean_sbu_0, # of connection points: 4
#     Node 5, Type 0, BuildingBlock: UXUYUI_clean_sbu_0, # of connection points: 4
#     Node 6, Type 0, BuildingBlock: UXUYUI_clean_sbu_0, # of connection points: 4
#     Node 7, Type 0, BuildingBlock: UXUYUI_clean_sbu_0, # of connection points: 4
#     Node 8, Type 0, BuildingBlock: UXUYUI_clean_sbu_0, # of connection points: 4
#     Node 9, Type 0, BuildingBlock: UXUYUI_clean_sbu_0, # of connection points: 4
#     Node 10, Type 0, BuildingBlock: UXUYUI_clean_sbu_0, # of connection points: 4
#     Node 11, Type 0, BuildingBlock: UXUYUI_clean_sbu_0, # of connection points: 4
#     Node 12, Type 0, BuildingBlock: UXUYUI_clean_sbu_0, # of connection points: 4
#     Node 13, Type 0, BuildingBlock: UXUYUI_clean_sbu_0, # of connection points: 4
#     Node 14, Type 0, BuildingBlock: UXUYUI_clean_sbu_0, # of connection points: 4
#     Node 15, Type 0, BuildingBlock: UXUYUI_clean_sbu_0, # of connection points: 4
#     Node 16, Type 0, BuildingBlock: UXUYUI_clean_sbu_0, # of connection points: 4
#     Node 17, Type 0, BuildingBlock: UXUYUI_clean_sbu_0, # of connection points: 4
#     Node 18, Type 1, BuildingBlock: NAWXER_clean_linker_0, # of connection points: 4
#     Node 19, Type 1, BuildingBlock: NAWXER_clean_linker_0, # of connection points: 4
#     Node 20, Type 1, BuildingBlock: NAWXER_clean_linker_0, # of connection points: 4
#     Node 21, Type 1, BuildingBlock: NAWXER_clean_linker_0, # of connection points: 4
#     Node 22, Type 1, BuildingBlock: NAWXER_clean_linker_0, # of connection points: 4
#     Node 23, Type 1, BuildingBlock: NAWXER_clean_linker_0, # of connection points: 4
#     Node 24, Type 1, BuildingBlock: NAWXER_clean_linker_0, # of connection points: 4
#     Node 25, Type 1, BuildingBlock: NAWXER_clean_linker_0, # of connection points: 4
#     Node 26, Type 1, BuildingBlock: NAWXER_clean_linker_0, # of connection points: 4
#     Node 27, Type 1, BuildingBlock: NAWXER_clean_linker_0, # of connection points: 4
#     Node 28, Type 1, BuildingBlock: NAWXER_clean_linker_0, # of connection points: 4
#     Node 29, Type 1, BuildingBlock: NAWXER_clean_linker_0, # of connection points: 4
#     Node 30, Type 1, BuildingBlock: NAWXER_clean_linker_0, # of connection points: 4
#     Node 31, Type 1, BuildingBlock: NAWXER_clean_linker_0, # of connection points: 4
#     Node 32, Type 1, BuildingBlock: NAWXER_clean_linker_0, # of connection points: 4
#     Node 33, Type 1, BuildingBlock: NAWXER_clean_linker_0, # of connection points: 4
#     Node 34, Type 1, BuildingBlock: NAWXER_clean_linker_0, # of connection points: 4
#     Node 35, Type 1, BuildingBlock: NAWXER_clean_linker_0, # of connection points: 4
#     Edge 36, Type (0, 1), BuildingBlock: UVAHIK_clean_linker_0, # of connection points: 2
#     Edge 37, Type (0, 1), BuildingBlock: UVAHIK_clean_linker_0, # of connection points: 2
#     Edge 38, Type (0, 1), BuildingBlock: UVAHIK_clean_linker_0, # of connection points: 2
#     Edge 39, Type (0, 1), BuildingBlock: UVAHIK_clean_linker_0, # of connection points: 2
#     Edge 40, Type (0, 1), BuildingBlock: UVAHIK_clean_linker_0, # of connection points: 2
#     Edge 41, Type (0, 1), BuildingBlock: UVAHIK_clean_linker_0, # of connection points: 2
#     Edge 42, Type (0, 1), BuildingBlock: UVAHIK_clean_linker_0, # of connection points: 2
#     Edge 43, Type (0, 1), BuildingBlock: UVAHIK_clean_linker_0, # of connection points: 2
#     Edge 44, Type (0, 1), BuildingBlock: UVAHIK_clean_linker_0, # of connection points: 2
#     Edge 45, Type (0, 1), BuildingBlock: UVAHIK_clean_linker_0, # of connection points: 2
#     Edge 46, Type (0, 1), BuildingBlock: UVAHIK_clean_linker_0, # of connection points: 2
#     Edge 47, Type (0, 1), BuildingBlock: UVAHIK_clean_linker_0, # of connection points: 2
#     Edge 48, Type (0, 1), BuildingBlock: UVAHIK_clean_linker_0, # of connection points: 2
#     Edge 49, Type (0, 1), BuildingBlock: UVAHIK_clean_linker_0, # of connection points: 2
#     Edge 50, Type (0, 1), BuildingBlock: UVAHIK_clean_linker_0, # of connection points: 2
#     Edge 51, Type (0, 1), BuildingBlock: UVAHIK_clean_linker_0, # of connection points: 2
#     Edge 52, Type (0, 1), BuildingBlock: UVAHIK_clean_linker_0, # of connection points: 2
#     Edge 53, Type (0, 1), BuildingBlock: UVAHIK_clean_linker_0, # of connection points: 2
#     Edge 54, Type (0, 1), BuildingBlock: UVAHIK_clean_linker_0, # of connection points: 2
#     Edge 55, Type (0, 1), BuildingBlock: UVAHIK_clean_linker_0, # of connection points: 2
#     Edge 56, Type (0, 1), BuildingBlock: UVAHIK_clean_linker_0, # of connection points: 2
#     Edge 57, Type (0, 1), BuildingBlock: UVAHIK_clean_linker_0, # of connection points: 2
#     Edge 58, Type (0, 1), BuildingBlock: UVAHIK_clean_linker_0, # of connection points: 2
#     Edge 59, Type (0, 1), BuildingBlock: UVAHIK_clean_linker_0, # of connection points: 2
#     Edge 60, Type (0, 1), BuildingBlock: UVAHIK_clean_linker_0, # of connection points: 2
#     Edge 61, Type (0, 1), BuildingBlock: UVAHIK_clean_linker_0, # of connection points: 2
#     Edge 62, Type (0, 1), BuildingBlock: UVAHIK_clean_linker_0, # of connection points: 2
#     Edge 63, Type (0, 1), BuildingBlock: UVAHIK_clean_linker_0, # of connection points: 2
#     Edge 64, Type (0, 1), BuildingBlock: UVAHIK_clean_linker_0, # of connection points: 2
#     Edge 65, Type (0, 1), BuildingBlock: UVAHIK_clean_linker_0, # of connection points: 2
#     Edge 66, Type (0, 1), BuildingBlock: UVAHIK_clean_linker_0, # of connection points: 2
#     Edge 67, Type (0, 1), BuildingBlock: UVAHIK_clean_linker_0, # of connection points: 2
#     Edge 68, Type (0, 1), BuildingBlock: UVAHIK_clean_linker_0, # of connection points: 2
#     Edge 69, Type (0, 1), BuildingBlock: UVAHIK_clean_linker_0, # of connection points: 2
#     Edge 70, Type (0, 1), BuildingBlock: UVAHIK_clean_linker_0, # of connection points: 2
#     Edge 71, Type (0, 1), BuildingBlock: UVAHIK_clean_linker_0, # of connection points: 2
#     Edge 72, Type (0, 1), BuildingBlock: UVAHIK_clean_linker_0, # of connection points: 2
#     Edge 73, Type (0, 1), BuildingBlock: UVAHIK_clean_linker_0, # of connection points: 2
#     Edge 74, Type (0, 1), BuildingBlock: UVAHIK_clean_linker_0, # of connection points: 2
#     Edge 75, Type (0, 1), BuildingBlock: UVAHIK_clean_linker_0, # of connection points: 2
#     Edge 76, Type (0, 1), BuildingBlock: UVAHIK_clean_linker_0, # of connection points: 2
#     Edge 77, Type (0, 1), BuildingBlock: UVAHIK_clean_linker_0, # of connection points: 2
#     Edge 78, Type (0, 1), BuildingBlock: UVAHIK_clean_linker_0, # of connection points: 2
#     Edge 79, Type (0, 1), BuildingBlock: UVAHIK_clean_linker_0, # of connection points: 2
#     Edge 80, Type (0, 1), BuildingBlock: UVAHIK_clean_linker_0, # of connection points: 2
#     Edge 81, Type (0, 1), BuildingBlock: UVAHIK_clean_linker_0, # of connection points: 2
#     Edge 82, Type (0, 1), BuildingBlock: UVAHIK_clean_linker_0, # of connection points: 2
#     Edge 83, Type (0, 1), BuildingBlock: UVAHIK_clean_linker_0, # of connection points: 2
#     Edge 84, Type (0, 1), BuildingBlock: UVAHIK_clean_linker_0, # of connection points: 2
#     Edge 85, Type (0, 1), BuildingBlock: UVAHIK_clean_linker_0, # of connection points: 2
#     Edge 86, Type (0, 1), BuildingBlock: UVAHIK_clean_linker_0, # of connection points: 2
#     Edge 87, Type (0, 1), BuildingBlock: UVAHIK_clean_linker_0, # of connection points: 2
#     Edge 88, Type (0, 1), BuildingBlock: UVAHIK_clean_linker_0, # of connection points: 2
#     Edge 89, Type (0, 1), BuildingBlock: UVAHIK_clean_linker_0, # of connection points: 2
#     Edge 90, Type (0, 1), BuildingBlock: UVAHIK_clean_linker_0, # of connection points: 2
#     Edge 91, Type (0, 1), BuildingBlock: UVAHIK_clean_linker_0, # of connection points: 2
#     Edge 92, Type (0, 1), BuildingBlock: UVAHIK_clean_linker_0, # of connection points: 2
#     Edge 93, Type (0, 1), BuildingBlock: UVAHIK_clean_linker_0, # of connection points: 2
#     Edge 94, Type (0, 1), BuildingBlock: UVAHIK_clean_linker_0, # of connection points: 2
#     Edge 95, Type (0, 1), BuildingBlock: UVAHIK_clean_linker_0, # of connection points: 2
#     Edge 96, Type (0, 1), BuildingBlock: UVAHIK_clean_linker_0, # of connection points: 2
#     Edge 97, Type (0, 1), BuildingBlock: UVAHIK_clean_linker_0, # of connection points: 2
#     Edge 98, Type (0, 1), BuildingBlock: UVAHIK_clean_linker_0, # of connection points: 2
#     Edge 99, Type (0, 1), BuildingBlock: UVAHIK_clean_linker_0, # of connection points: 2
#     Edge 100, Type (0, 1), BuildingBlock: UVAHIK_clean_linker_0, # of connection points: 2
#     Edge 101, Type (0, 1), BuildingBlock: UVAHIK_clean_linker_0, # of connection points: 2
#     Edge 102, Type (0, 1), BuildingBlock: UVAHIK_clean_linker_0, # of connection points: 2
#     Edge 103, Type (0, 1), BuildingBlock: UVAHIK_clean_linker_0, # of connection points: 2
#     Edge 104, Type (0, 1), BuildingBlock: UVAHIK_clean_linker_0, # of connection points: 2
#     Edge 105, Type (0, 1), BuildingBlock: UVAHIK_clean_linker_0, # of connection points: 2
#     Edge 106, Type (0, 1), BuildingBlock: UVAHIK_clean_linker_0, # of connection points: 2
#     Edge 107, Type (0, 1), BuildingBlock: UVAHIK_clean_linker_0, # of connection points: 2
# Relax obj value: 0.097
# Max RMSD: 0.293
# Mean RMSD: 0.120
data_MOF--net-ptr--node1-UXUYUI_clean_sbu_0--node2-NAWXER_clean_linker_0--edge1-UVAHIK_clean_linker_0
_symmetry_space_group_name_H-M    P1
_symmetry_Int_Tables_number       1
_symmetry_cell_setting            triclinic
loop_
_symmetry_equiv_pos_as_xyz
'x, y, z'
_cell_length_a     125.95055
_cell_length_b     125.92701
_cell_length_c     88.789064
_cell_angle_alpha  90.161974
_cell_angle_beta   89.841508
_cell_angle_gamma 120.20536
loop_
_atom_site_label
_atom_site_type_symbol
_atom_site_fract_x
_atom_site_fract_y
_atom_site_fract_z
_atom_type_partial_charge
Li0 Li 0.99265 0.33416 0.00429 0.0
Li1 Li 0.01372 0.34459 0.01306 0.0
Li2 Li 0.99852 0.35053 0.02274 0.0
Li3 Li 0.00688 0.35543 0.99655 0.0
C4 C 0.99139 0.32615 0.03535 0.0
N5 N 0.97697 0.30846 0.05624 0.0
C6 C 0.99471 0.3177 0.04036 0.0
C7 C 0.98081 0.32567 0.04107 0.0
C8 C 0.98728 0.30881 0.05089 0.0
C9 C 0.97362 0.31664 0.05159 0.0
C10 C 0.01484 0.33701 0.98464 0.0
C11 C 0.03367 0.34186 0.97187 0.0
N12 N 0.02939 0.32966 0.96982 0.0
C13 C 0.01059 0.32452 0.98231 0.0
C14 C 0.02643 0.34577 0.97929 0.0
C15 C 0.0181 0.32099 0.97484 0.0
C16 C 0.97881 0.31847 0.98127 0.0
N17 N 0.98019 0.31877 0.99646 0.0
C18 C 0.96627 0.29714 0.99801 0.0
C19 C 0.97397 0.30843 0.00491 0.0
C20 C 0.96494 0.29648 0.98226 0.0
C21 C 0.97113 0.30742 0.97392 0.0
H22 H 0.98403 0.32679 0.97479 0.0
H23 H 0.97526 0.30876 0.01691 0.0
C24 C 0.03657 0.35089 0.02649 0.0
N25 N 0.02663 0.34194 0.0191 0.0
C26 C 0.04529 0.34839 0.03259 0.0
C27 C 0.03356 0.32765 0.02296 0.0
C28 C 0.02501 0.3305 0.01722 0.0
C29 C 0.04374 0.33659 0.031 0.0
H30 H 0.03749 0.35983 0.02811 0.0
H31 H 0.01679 0.32344 0.01183 0.0
C32 C 0.97851 0.34329 0.99652 0.0
N33 N 0.95611 0.33251 0.98192 0.0
C34 C 0.97791 0.34564 0.98126 0.0
C35 C 0.9677 0.33556 0.00439 0.0
C36 C 0.9665 0.34008 0.97407 0.0
C37 C 0.95648 0.33016 0.99679 0.0
C38 C 0.02472 0.37323 0.01483 0.0
C39 C 0.02308 0.38223 0.02192 0.0
C40 C 0.03537 0.37668 0.00645 0.0
C41 C 0.03208 0.39459 0.02031 0.0
C42 C 0.04415 0.38913 0.0051 0.0
N43 N 0.04234 0.39775 0.01199 0.0
C44 C 0.00038 0.35927 0.05241 0.0
C45 C 0.98509 0.35974 0.03737 0.0
C46 C 0.99804 0.36519 0.06419 0.0
N47 N 0.99402 0.35685 0.0393 0.0
C48 C 0.98244 0.36565 0.04885 0.0
C49 C 0.98912 0.36867 0.06237 0.0
H50 H 0.00753 0.35695 0.0535 0.0
H51 H 0.98024 0.35775 0.02677 0.0
C52 C 0.01187 0.36349 0.96636 0.0
N53 N 0.01117 0.36698 0.98067 0.0
C54 C 0.01366 0.37132 0.95429 0.0
C55 C 0.01438 0.38631 0.97197 0.0
C56 C 0.01229 0.37809 0.98364 0.0
C57 C 0.01489 0.38286 0.95707 0.0
H58 H 0.01061 0.35446 0.96428 0.0
H59 H 0.01118 0.38043 0.99501 0.0
O60 O 0.99863 0.33497 0.02513 0.0
O61 O 0.00762 0.34065 0.99192 0.0
O62 O 0.98961 0.34851 0.0037 0.0
O63 O 0.01599 0.3611 0.01624 0.0
H64 H 0.00291 0.318 0.03613 0.0
H65 H 0.97816 0.33218 0.03743 0.0
H66 H 0.98971 0.30218 0.05483 0.0
H67 H 0.96539 0.31614 0.05608 0.0
H68 H 0.04268 0.34854 0.9677 0.0
H69 H 0.00163 0.31762 0.98638 0.0
H70 H 0.02978 0.35547 0.9808 0.0
H71 H 0.01495 0.31136 0.97304 0.0
H72 H 0.96183 0.28895 0.0049 0.0
H73 H 0.97024 0.30742 0.96179 0.0
H74 H 0.05303 0.35552 0.03873 0.0
H75 H 0.0319 0.31837 0.02176 0.0
H76 H 0.98616 0.35162 0.97499 0.0
H77 H 0.96798 0.33368 0.0162 0.0
H78 H 0.96591 0.34177 0.96225 0.0
H79 H 0.94805 0.3241 0.00273 0.0
H80 H 0.0149 0.37971 0.02849 0.0
H81 H 0.03683 0.36981 0.00106 0.0
H82 H 0.03091 0.40166 0.02567 0.0
H83 H 0.05242 0.39193 0.9986 0.0
H84 H 0.00351 0.36747 0.07434 0.0
H85 H 0.97537 0.36801 0.04705 0.0
H86 H 0.01392 0.36835 0.9429 0.0
H87 H 0.01505 0.39505 0.97448 0.0
Li88 Li 0.65962 0.65235 0.00151 0.0
Li89 Li 0.64842 0.66103 0.01496 0.0
Li90 Li 0.64328 0.63963 0.02004 0.0
Li91 Li 0.63837 0.64596 0.99592 0.0
C92 C 0.66881 0.65939 0.03259 0.0
N93 N 0.6891 0.66863 0.05124 0.0
C94 C 0.676 0.67205 0.03505 0.0
C95 C 0.67187 0.65142 0.03978 0.0
C96 C 0.68624 0.67654 0.04447 0.0
C97 C 0.68218 0.65627 0.04912 0.0
C98 C 0.65084 0.66519 0.9794 0.0
C99 C 0.64068 0.67233 0.96271 0.0
N100 N 0.64548 0.66947 0.95067 0.0
C101 C 0.65572 0.66238 0.96688 0.0
C102 C 0.64331 0.67027 0.97732 0.0
C103 C 0.65288 0.66459 0.95244 0.0
C104 C 0.67639 0.64971 0.98232 0.0
N105 N 0.67525 0.65655 0.99339 0.0
C106 C 0.69666 0.67136 0.99194 0.0
C107 C 0.68507 0.66723 0.99818 0.0
C108 C 0.69814 0.66461 0.98032 0.0
C109 C 0.68781 0.65358 0.97561 0.0
H110 H 0.66836 0.64145 0.97836 0.0
H111 H 0.68385 0.67273 0.00657 0.0
C112 C 0.64948 0.67576 0.03962 0.0
N113 N 0.65121 0.67571 0.02452 0.0
C114 C 0.65288 0.68677 0.0471 0.0
C115 C 0.65984 0.69746 0.02335 0.0
C116 C 0.65618 0.68622 0.01631 0.0
C117 C 0.65837 0.69788 0.03901 0.0
H118 H 0.64577 0.66729 0.04591 0.0
H119 H 0.65775 0.68595 0.00438 0.0
C120 C 0.64844 0.6261 0.99882 0.0
N121 N 0.65367 0.60727 0.99895 0.0
C122 C 0.64107 0.61532 0.99072 0.0
C123 C 0.6585 0.62734 0.00691 0.0
C124 C 0.64386 0.60589 0.99095 0.0
C125 C 0.66099 0.61772 0.00685 0.0
C126 C 0.62557 0.64997 0.02487 0.0
C127 C 0.62171 0.64532 0.03938 0.0
C128 C 0.62313 0.65891 0.01933 0.0
C129 C 0.61563 0.64982 0.0482 0.0
C130 C 0.61705 0.66319 0.0285 0.0
N131 N 0.61346 0.6586 0.04263 0.0
C132 C 0.64106 0.63139 0.04976 0.0
C133 C 0.63179 0.61532 0.03179 0.0
C134 C 0.63711 0.62291 0.06152 0.0
N135 N 0.63831 0.62748 0.03526 0.0
C136 C 0.62779 0.60651 0.04319 0.0
C137 C 0.63034 0.61029 0.05829 0.0
H138 H 0.64611 0.64113 0.0522 0.0
H139 H 0.62949 0.61245 0.0202 0.0
C140 C 0.6287 0.63492 0.96791 0.0
N141 N 0.62667 0.64026 0.98005 0.0
C142 C 0.62016 0.63019 0.95622 0.0
C143 C 0.60764 0.63663 0.9697 0.0
C144 C 0.61644 0.64124 0.98113 0.0
C145 C 0.60939 0.63091 0.95708 0.0
H146 H 0.63691 0.63421 0.96742 0.0
H147 H 0.61504 0.64549 0.99092 0.0
O148 O 0.65863 0.6548 0.02358 0.0
O149 O 0.65322 0.66277 0.9936 0.0
O150 O 0.64571 0.63533 0.99885 0.0
O151 O 0.63164 0.64574 0.01613 0.0
H152 H 0.67381 0.67837 0.02961 0.0
H153 H 0.66631 0.64159 0.0383 0.0
H154 H 0.69192 0.68632 0.04638 0.0
H155 H 0.68465 0.65021 0.05473 0.0
H156 H 0.63481 0.67619 0.96093 0.0
H157 H 0.66151 0.65839 0.96828 0.0
H158 H 0.63946 0.67251 0.98689 0.0
H159 H 0.65654 0.66238 0.94265 0.0
H160 H 0.70434 0.67983 0.9961 0.0
H161 H 0.68843 0.64818 0.96649 0.0
H162 H 0.6514 0.68659 0.05914 0.0
H163 H 0.66423 0.70578 0.01668 0.0
H164 H 0.63324 0.61422 0.98441 0.0
H165 H 0.66437 0.63569 0.01304 0.0
H166 H 0.63821 0.59747 0.98478 0.0
H167 H 0.66876 0.61856 0.01306 0.0
H168 H 0.62337 0.63829 0.04379 0.0
H169 H 0.62608 0.66264 0.00816 0.0
H170 H 0.61264 0.64633 0.05947 0.0
H171 H 0.6152 0.67018 0.02439 0.0
H172 H 0.63928 0.62619 0.07302 0.0
H173 H 0.62242 0.59686 0.04026 0.0
H174 H 0.62181 0.62572 0.94681 0.0
H175 H 0.59955 0.63751 0.97076 0.0
Li176 Li 0.3465 0.99468 0.99492 0.0
Li177 Li 0.35144 0.00223 0.0213 0.0
Li178 Li 0.33067 0.98727 0.01322 0.0
Li179 Li 0.33985 0.00877 0.00474 0.0
C180 C 0.34053 0.97383 0.01922 0.0
N181 N 0.33 0.9505 0.03139 0.0
C182 C 0.34294 0.97221 0.03414 0.0
C183 C 0.3329 0.96355 0.01044 0.0
C184 C 0.3375 0.96036 0.0401 0.0
C185 C 0.32761 0.95185 0.01681 0.0
C186 C 0.36821 0.02119 0.99938 0.0
C187 C 0.38352 0.04275 -0.00015 0.0
N188 N 0.3918 0.04012 0.9936 0.0
C189 C 0.37687 0.01871 0.99292 0.0
C190 C 0.37155 0.03332 0.00284 0.0
C191 C 0.38875 0.0284 0.9901 0.0
C192 C 0.35695 0.99902 0.96577 0.0
N193 N 0.35333 0.99129 0.97777 0.0
C194 C 0.3623 0.98022 0.96707 0.0
C195 C 0.35567 0.98189 0.97851 0.0
C196 C 0.3666 0.98835 0.9548 0.0
C197 C 0.36358 0.99767 0.95403 0.0
H198 H 0.3552 0.00659 0.96566 0.0
H199 H 0.35285 0.976 0.98829 0.0
C200 C 0.35917 0.00374 0.05157 0.0
N201 N 0.3632 0.0069 0.03716 0.0
C202 C 0.36744 0.00539 0.06307 0.0
C203 C 0.38392 0.01435 0.04486 0.0
C204 C 0.37533 0.01228 0.03371 0.0
C205 C 0.38 0.01051 0.05971 0.0
H206 H 0.34944 0.99935 0.054 0.0
H207 H 0.37834 0.01458 0.02223 0.0
C208 C 0.32778 0.99047 0.978 0.0
N209 N 0.32373 0.98482 0.94769 0.0
C210 C 0.32928 -0.00055 0.96761 0.0
C211 C 0.32405 0.97857 0.97298 0.0
C212 C 0.32723 0.99642 0.95234 0.0
C213 C 0.3221 0.97591 0.95761 0.0
C214 C 0.33701 0.01087 0.03588 0.0
C215 C 0.32706 0.00852 0.0451 0.0
C216 C 0.34792 0.02215 0.03691 0.0
C217 C 0.32818 0.01757 0.05518 0.0
C218 C 0.34869 0.03095 0.04714 0.0
N219 N 0.33888 0.0285 0.05598 0.0
C220 C 0.31425 0.97097 0.03488 0.0
C221 C 0.30575 0.9691 0.01054 0.0
C222 C 0.30273 0.96256 0.0407 0.0
N223 N 0.3155 0.97412 0.02008 0.0
C224 C 0.29404 0.96076 0.01592 0.0
C225 C 0.29241 0.95758 0.03123 0.0
H226 H 0.32212 0.97539 0.04228 0.0
H227 H 0.30697 0.97197 0.9989 0.0
C228 C 0.34335 0.02958 0.98876 0.0
N229 N 0.33659 0.02144 -0.00028 0.0
C230 C 0.34007 0.03794 0.98344 0.0
C231 C 0.32319 0.02968 0.00117 0.0
C232 C 0.32675 0.02141 0.00607 0.0
C233 C 0.32973 0.03793 0.98948 0.0
H234 H 0.35093 0.02916 0.98363 0.0
H235 H 0.32141 0.01469 0.01458 0.0
O236 O 0.34563 0.98539 0.01325 0.0
O237 O 0.35648 0.01184 0.00207 0.0
O238 O 0.32996 0.99332 0.99299 0.0
O239 O 0.33599 0.00213 0.02588 0.0
H240 H 0.34893 0.98001 0.04106 0.0
H241 H 0.33102 0.9646 0.99885 0.0
H242 H 0.33925 0.95899 0.05165 0.0
H243 H 0.32162 0.94383 0.01016 0.0
H244 H 0.38621 0.05217 0.00249 0.0
H245 H 0.37454 0.00939 0.99033 0.0
H246 H 0.36497 0.03546 0.00772 0.0
H247 H 0.39555 0.0266 0.98517 0.0
H248 H 0.36434 0.97286 0.96802 0.0
H249 H 0.36687 0.00424 0.94488 0.0
H250 H 0.36391 0.00215 0.07428 0.0
H251 H 0.39351 0.01861 0.04173 0.0
H252 H 0.33206 0.00866 0.97127 0.0
H253 H 0.32271 0.97148 0.98085 0.0
H254 H 0.32843 0.0033 0.94418 0.0
H255 H 0.31929 0.96676 0.95357 0.0
H256 H 0.31855 -0.00019 0.04442 0.0
H257 H 0.35573 0.02405 0.02995 0.0
H258 H 0.32054 0.01589 0.06237 0.0
H259 H 0.35708 0.03973 0.04807 0.0
H260 H 0.3018 0.96048 0.05263 0.0
H261 H 0.28629 0.95709 0.00829 0.0
H262 H 0.34525 0.04395 0.97422 0.0
H263 H 0.31525 0.02943 0.00628 0.0
Li264 Li 0.01176 0.66779 0.01424 0.0
Li265 Li 0.99684 0.64659 0.02009 0.0
Li266 Li 0.00521 0.65252 0.99458 0.0
Li267 Li 0.99062 0.65825 0.00365 0.0
C268 C 0.02562 0.65678 0.01795 0.0
N269 N 0.04918 0.66408 0.02757 0.0
C270 C 0.02751 0.65278 0.03184 0.0
C271 C 0.03572 0.66438 0.0089 0.0
C272 C 0.03949 0.6566 0.03652 0.0
C273 C 0.04755 0.66801 0.01398 0.0
C274 C 0.99596 0.66361 0.04021 0.0
C275 C 0.98768 0.66846 0.06197 0.0
N276 N 0.99598 0.66755 0.07084 0.0
C277 C 0.00433 0.66264 0.04954 0.0
C278 C 0.98751 0.66647 0.04646 0.0
C279 C 0.00423 0.66471 0.06499 0.0
C280 C 0.02532 0.69337 0.0159 0.0
N281 N 0.02449 0.6831 0.02201 0.0
C282 C 0.03999 0.6952 0.04007 0.0
C283 C 0.0317 0.68382 0.0338 0.0
C284 C 0.04081 0.70595 0.03426 0.0
C285 C 0.03348 0.70496 0.02183 0.0
H286 H 0.01936 0.69254 0.00668 0.0
H287 H 0.03084 0.6756 0.03868 0.0
C288 C 0.99675 0.6265 0.0321 0.0
N289 N 0.99192 0.63387 0.03451 0.0
C290 C 0.99506 0.61763 0.04264 0.0
C291 C 0.98277 0.62352 0.05759 0.0
C292 C 0.98475 0.63237 0.04673 0.0
C293 C 0.98824 0.61624 0.05576 0.0
H294 H 0.00227 0.62783 0.02217 0.0
H295 H 0.98085 0.63823 0.04827 0.0
C296 C 0.01142 0.67318 0.9797 0.0
N297 N 0.02126 0.68156 0.95144 0.0
C298 C 0.00369 0.671 0.96739 0.0
C299 C 0.02415 0.67981 0.9777 0.0
C300 C 0.00884 0.67526 0.95318 0.0
C301 C 0.02895 0.68392 0.9633 0.0
C302 C 0.97573 0.63287 0.00325 0.0
C303 C 0.96989 0.62216 0.99458 0.0
C304 C 0.96922 0.63478 0.0147 0.0
C305 C 0.9576 0.61351 0.99751 0.0
C306 C 0.95695 0.6259 0.01729 0.0
N307 N 0.95145 0.61554 0.00872 0.0
C308 C 0.01821 0.64371 0.97697 0.0
C309 C 0.00091 0.64303 0.96551 0.0
C310 C 0.01939 0.63722 0.96491 0.0
N311 N 0.00899 0.64635 0.9771 0.0
C312 C 0.00179 0.6366 0.95321 0.0
C313 C 0.01092 0.63331 0.95299 0.0
H314 H 0.02426 0.64607 0.98654 0.0
H315 H 0.99343 0.6449 0.96613 0.0
C316 C 0.97755 0.67087 0.00422 0.0
N317 N 0.97818 0.66148 0.99757 0.0
C318 C 0.96937 0.67438 0.99883 0.0
C319 C 0.96257 0.65836 0.97999 0.0
C320 C 0.97084 0.65513 0.98579 0.0
C321 C 0.96189 0.66824 0.98638 0.0
H322 H 0.98366 0.67585 0.01343 0.0
H323 H 0.97174 0.64786 0.98055 0.0
O324 O 0.01396 0.65315 0.0132 0.0
O325 O 0.99568 0.66133 0.02511 0.0
O326 O 0.00654 0.66897 0.99368 0.0
O327 O 0.98775 0.64139 0.00046 0.0
H328 H 0.01984 0.6469 0.03903 0.0
H329 H 0.03442 0.66743 0.99806 0.0
H330 H 0.04108 0.65364 0.04728 0.0
H331 H 0.05544 0.67393 0.0071 0.0
H332 H 0.98118 0.67068 0.06696 0.0
H333 H 0.01067 0.66007 0.04494 0.0
H334 H 0.98082 0.66706 0.03942 0.0
H335 H 0.01066 0.66396 0.07235 0.0
H336 H 0.04557 0.69554 0.04952 0.0
H337 H 0.03369 0.71298 0.01711 0.0
H338 H -0.00079 0.61202 0.04065 0.0
H339 H 0.97743 0.62271 0.06755 0.0
H340 H 0.99382 0.66598 0.96878 0.0
H341 H 0.03025 0.68184 0.98717 0.0
H342 H 0.00297 0.67355 0.94352 0.0
H343 H 0.03879 0.68902 0.96157 0.0
H344 H 0.97481 0.62057 0.98566 0.0
H345 H 0.97355 0.64301 0.02151 0.0
H346 H 0.95297 0.60517 0.99089 0.0
H347 H 0.95181 0.62725 0.02612 0.0
H348 H 0.02643 0.63469 0.96537 0.0
H349 H 0.99513 0.63389 0.94421 0.0
H350 H 0.96906 0.68195 0.0042 0.0
H351 H 0.95715 0.6535 0.97023 0.0
Li352 Li 0.33653 0.3485 0.01569 0.0
Li353 Li 0.35728 0.3537 0.02287 0.0
Li354 Li 0.35354 0.36002 0.99767 0.0
Li355 Li 0.34737 0.33862 0.00341 0.0
C356 C 0.3486 0.37435 0.02042 0.0
N357 N 0.34358 0.39311 0.02499 0.0
C358 C 0.35098 0.38027 0.03438 0.0
C359 C 0.34386 0.37812 0.00872 0.0
C360 C 0.34832 0.38969 0.03649 0.0
C361 C 0.34133 0.38758 0.01127 0.0
C362 C 0.34293 0.33384 0.03866 0.0
C363 C 0.35195 0.32581 0.05584 0.0
N364 N 0.34539 0.3269 0.06733 0.0
C365 C 0.33621 0.33479 0.05061 0.0
C366 C 0.35079 0.32922 0.04125 0.0
C367 C 0.3376 0.33126 0.06503 0.0
C368 C 0.31105 0.33518 0.01665 0.0
N369 N 0.32094 0.34516 0.0227 0.0
C370 C 0.30805 0.34832 0.03969 0.0
C371 C 0.31968 0.35176 0.03398 0.0
C372 C 0.29766 0.33793 0.03379 0.0
C373 C 0.29926 0.33141 0.02199 0.0
H374 H 0.31236 0.33 0.00784 0.0
H375 H 0.32771 0.35943 0.03892 0.0
C376 C 0.37984 0.36084 0.03766 0.0
N377 N 0.36829 0.35896 0.03942 0.0
C378 C 0.38825 0.36563 0.04951 0.0
C379 C 0.37262 0.36616 0.06481 0.0
C380 C 0.36454 0.3614 0.05268 0.0
C381 C 0.38473 0.36854 0.06324 0.0
H382 H 0.38262 0.35896 0.02693 0.0
H383 H 0.35532 0.35986 0.05373 0.0
C384 C 0.33019 0.34493 0.98256 0.0
N385 N 0.31537 0.34455 0.95939 0.0
C386 C 0.32911 0.33845 0.9693 0.0
C387 C 0.32356 0.35104 0.98411 0.0
C388 C 0.32163 0.33842 0.95769 0.0
C389 C 0.31616 0.35079 0.97226 0.0
C390 C 0.37081 0.34917 0.99494 0.0
C391 C 0.37432 0.35312 0.98012 0.0
C392 C 0.37396 0.34103 0.00141 0.0
C393 C 0.3808 0.34872 0.97194 0.0
C394 C 0.38043 0.33682 0.99285 0.0
N395 N 0.38368 0.34071 0.97841 0.0
C396 C 0.36978 0.3837 0.98765 0.0
C397 C 0.35638 0.37086 0.96846 0.0
C398 C 0.37565 0.39344 0.97754 0.0
N399 N 0.36035 0.3727 0.98297 0.0
C400 C 0.36192 0.38039 0.958 0.0
C401 C 0.37174 0.39183 0.96249 0.0
H402 H 0.37278 0.38485 0.99925 0.0
H403 H 0.34907 0.36199 0.9649 0.0
C404 C 0.33842 0.31321 0.00332 0.0
N405 N 0.34448 0.32357 0.99488 0.0
C406 C 0.335 0.30176 0.99702 0.0
C407 C 0.34435 0.3119 0.97356 0.0
C408 C 0.34753 0.32313 0.98028 0.0
C409 C 0.33785 0.30101 0.9819 0.0
H410 H 0.33595 0.3138 0.01483 0.0
H411 H 0.35207 0.33147 0.97371 0.0
O412 O 0.35121 0.36513 0.01818 0.0
O413 O 0.34182 0.33742 0.0245 0.0
O414 O 0.33743 0.34498 0.99406 0.0
O415 O 0.36439 0.35333 0.00309 0.0
H416 H 0.3548 0.3776 0.04352 0.0
H417 H 0.34227 0.3739 0.99773 0.0
H418 H 0.35005 0.39429 0.04727 0.0
H419 H 0.33764 0.39056 0.00231 0.0
H420 H 0.35806 0.32229 0.05802 0.0
H421 H 0.33005 0.33831 0.04879 0.0
H422 H 0.35599 0.32835 0.0321 0.0
H423 H 0.33251 0.33201 0.0744 0.0
H424 H 0.30726 0.35346 0.04899 0.0
H425 H 0.2915 0.32342 0.01702 0.0
H426 H 0.39753 0.36747 0.04773 0.0
H427 H 0.36946 0.36813 0.07525 0.0
H428 H 0.33406 0.33357 0.96792 0.0
H429 H 0.32396 0.35581 0.99442 0.0
H430 H 0.32079 0.33351 0.94733 0.0
H431 H 0.31101 0.3555 0.97332 0.0
H432 H 0.372 0.35946 0.97495 0.0
H433 H 0.37137 0.33794 0.01289 0.0
H434 H 0.38353 0.35165 0.96043 0.0
H435 H 0.38286 0.33046 0.99768 0.0
H436 H 0.38314 0.40215 0.98147 0.0
H437 H 0.35877 0.37872 0.94644 0.0
H438 H 0.33006 0.29358 0.00386 0.0
H439 H 0.34656 0.31171 0.9618 0.0
Li440 Li 0.65555 0.98755 0.0151 0.0
Li441 Li 0.64979 0.00247 0.0234 0.0
Li442 Li 0.64546 0.99445 0.99688 0.0
Li443 Li 0.66631 0.0092 0.00508 0.0
C444 C 0.62974 0.97327 0.01715 0.0
N445 N 0.61145 0.94889 0.01912 0.0
C446 C 0.62292 0.96875 0.03042 0.0
C447 C 0.6271 0.96542 0.00482 0.0
C448 C 0.61376 0.95639 0.03122 0.0
C449 C 0.61786 0.95312 0.00605 0.0
C450 C 0.66963 0.00754 0.04022 0.0
C451 C 0.67953 0.02423 0.05799 0.0
N452 N 0.67697 0.01597 0.06925 0.0
C453 C 0.66724 0.99923 0.05193 0.0
C454 C 0.67595 0.02015 0.04323 0.0
C455 C 0.67096 0.00367 0.06654 0.0
C456 C 0.66806 0.97441 0.01593 0.0
N457 N 0.65827 0.9748 0.02174 0.0
C458 C 0.65453 0.95899 0.03936 0.0
C459 C 0.65144 0.96725 0.03314 0.0
C460 C 0.66479 0.95859 0.03386 0.0
C461 C 0.67145 0.96626 0.02178 0.0
H462 H 0.6735 0.98073 0.0071 0.0
H463 H 0.64395 0.968 0.03788 0.0
C464 C 0.64026 0.01558 0.03939 0.0
N465 N 0.64311 0.00652 0.04021 0.0
C466 C 0.634 0.0174 0.05124 0.0
C467 C 0.63394 0.00068 0.0646 0.0
C468 C 0.64019 0.9992 0.05254 0.0
C469 C 0.63054 0.00971 0.06393 0.0
H470 H 0.64242 0.02109 0.02932 0.0
H471 H 0.64234 0.99191 0.05278 0.0
C472 C 0.6608 0.98735 0.9815 0.0
N473 N 0.66155 0.97504 0.95604 0.0
C474 C 0.6672 0.99391 0.9687 0.0
C475 C 0.65502 0.97453 0.98144 0.0
C476 C 0.66739 0.98753 0.95591 0.0
C477 C 0.65544 0.96848 0.96845 0.0
C478 C 0.65617 0.02335 -0.00021 0.0
C479 C 0.65344 0.02579 0.98541 0.0
C480 C 0.66341 0.03311 0.00948 0.0
C481 C 0.6582 0.03797 0.98086 0.0
C482 C 0.668 0.04516 0.00453 0.0
N483 N 0.66534 0.04733 0.99043 0.0
C484 C 0.62218 0.98455 0.98289 0.0
C485 C 0.63927 0.99455 0.96645 0.0
C486 C 0.61412 0.98275 0.97109 0.0
N487 N 0.63449 0.99039 0.98037 0.0
C488 C 0.63157 0.99303 0.95437 0.0
C489 C 0.61883 0.98722 0.95667 0.0
H490 H 0.61863 0.98168 0.99416 0.0
H491 H 0.6491 -0.00042 0.96486 0.0
C492 C 0.69207 0.02493 0.00572 0.0
N493 N 0.68169 0.02186 0.99781 0.0
C494 C 0.7036 0.03282 0.99945 0.0
C495 C 0.69349 0.03444 0.9772 0.0
C496 C 0.68219 0.02654 0.98389 0.0
C497 C 0.7044 0.03745 0.98485 0.0
H498 H 0.69141 0.02083 0.01662 0.0
H499 H 0.67381 0.02369 0.97767 0.0
O500 O 0.63876 0.98536 0.0162 0.0
O501 O 0.666 0.00335 0.02584 0.0
O502 O 0.66064 0.99349 0.99419 0.0
O503 O 0.65169 0.01148 0.00439 0.0
H504 H 0.6247 0.97471 0.04003 0.0
H505 H 0.63198 0.96882 0.99432 0.0
H506 H 0.60847 0.95277 0.04145 0.0
H507 H 0.61575 0.94696 0.99658 0.0
H508 H 0.68438 0.03396 0.06049 0.0
H509 H 0.66245 0.98946 0.04979 0.0
H510 H 0.67816 0.02672 0.03426 0.0
H511 H 0.66907 0.99734 0.07573 0.0
H512 H 0.64911 0.9532 0.04862 0.0
H513 H 0.67954 0.96638 0.01736 0.0
H514 H 0.63141 0.02436 0.05016 0.0
H515 H 0.63156 0.99462 0.07423 0.0
H516 H 0.67189 0.00383 0.96857 0.0
H517 H 0.65039 0.96929 0.99137 0.0
H518 H 0.67222 0.9925 0.94588 0.0
H519 H 0.65096 0.95855 0.96825 0.0
H520 H 0.64774 0.01837 0.97781 0.0
H521 H 0.66541 0.03138 0.02073 0.0
H522 H 0.65622 0.03999 0.96973 0.0
H523 H 0.67366 0.05279 0.0119 0.0
H524 H 0.60437 0.97843 0.9734 0.0
H525 H 0.63557 0.99662 0.94342 0.0
H526 H 0.71178 0.03477 0.00566 0.0
H527 H 0.69368 0.0379 0.96599 0.0
Li528 Li 0.65289 0.67213 0.33623 0.0
Li529 Li 0.6727 0.68098 0.34982 0.0
Li530 Li 0.65779 0.68733 0.35504 0.0
Li531 Li 0.66925 0.6935 0.33097 0.0
C532 C 0.65097 0.66825 0.37189 0.0
N533 N 0.64132 0.66418 0.40067 0.0
C534 C 0.65868 0.67106 0.38437 0.0
C535 C 0.63835 0.66329 0.37404 0.0
C536 C 0.65362 0.66894 0.39883 0.0
C537 C 0.63365 0.66132 0.38868 0.0
C538 C 0.6749 0.67337 0.3191 0.0
C539 C 0.69117 0.67577 0.3025 0.0
N540 N 0.68564 0.66335 0.30119 0.0
C541 C 0.66933 0.66062 0.31747 0.0
C542 C 0.68586 0.68101 0.31146 0.0
C543 C 0.67492 0.65574 0.30842 0.0
C544 C 0.63927 0.65702 0.31174 0.0
N545 N 0.64097 0.65733 0.32688 0.0
C546 C 0.62765 0.63562 0.32858 0.0
C547 C 0.63528 0.64697 0.33536 0.0
C548 C 0.62584 0.63493 0.3129 0.0
C549 C 0.6316 0.64588 0.30451 0.0
H550 H 0.64414 0.66538 0.30524 0.0
H551 H 0.63706 0.64746 0.34731 0.0
C552 C 0.6924 0.68415 0.3688 0.0
N553 N 0.68408 0.6769 0.35823 0.0
C554 C 0.70001 0.68046 0.37562 0.0
C555 C 0.69035 0.66196 0.36055 0.0
C556 C 0.68288 0.66594 0.35416 0.0
C557 C 0.69899 0.66918 0.37157 0.0
H558 H 0.69288 0.69261 0.37228 0.0
H559 H 0.67588 0.66013 0.34621 0.0
C560 C 0.64117 0.68298 0.32588 0.0
N561 N 0.62052 0.67405 0.30794 0.0
C562 C 0.6421 0.68742 0.31124 0.0
C563 C 0.6297 0.67411 0.33146 0.0
C564 C 0.63156 0.68276 0.30233 0.0
C565 C 0.61938 0.66967 0.3222 0.0
C566 C 0.68791 0.70713 0.35211 0.0
C567 C 0.69159 0.71787 0.36041 0.0
C568 C 0.69657 0.70583 0.34368 0.0
C569 C 0.7039 0.72718 0.36008 0.0
C570 C 0.7088 0.71534 0.34364 0.0
N571 N 0.71218 0.72574 0.35176 0.0
C572 C 0.65885 0.69827 0.38302 0.0
C573 C 0.64044 0.69207 0.3695 0.0
C574 C 0.65485 0.70281 0.39474 0.0
N575 N 0.65164 0.69304 0.37075 0.0
C576 C 0.63607 0.6965 0.38094 0.0
C577 C 0.64333 0.70202 0.39375 0.0
H578 H 0.66776 0.69898 0.38365 0.0
H579 H 0.63492 0.68791 0.35959 0.0
C580 C 0.6757 0.70161 0.30122 0.0
N581 N 0.67666 0.70557 0.31568 0.0
C582 C 0.68059 0.71007 0.28945 0.0
C583 C 0.68756 0.72652 0.3077 0.0
C584 C 0.6824 0.71774 0.31911 0.0
C585 C 0.68659 0.7227 0.29264 0.0
H586 H 0.67095 0.69187 0.29883 0.0
H587 H 0.68281 0.72064 0.33066 0.0
O588 O 0.6558 0.67058 0.35766 0.0
O589 O 0.66944 0.67834 0.32772 0.0
O590 O 0.65141 0.68736 0.33473 0.0
O591 O 0.67584 0.69803 0.35217 0.0
H592 H 0.66847 0.67495 0.38292 0.0
H593 H 0.63226 0.66108 0.36451 0.0
H594 H 0.65948 0.67113 0.4086 0.0
H595 H 0.62391 0.65756 0.39051 0.0
H596 H 0.69966 0.68159 0.29656 0.0
H597 H 0.66085 0.65454 0.32327 0.0
H598 H 0.69021 0.6909 0.31231 0.0
H599 H 0.67074 0.64589 0.30714 0.0
H600 H 0.62363 0.62743 0.33549 0.0
H601 H 0.63037 0.64584 0.29244 0.0
H602 H 0.70633 0.68621 0.38429 0.0
H603 H 0.68928 0.65325 0.35696 0.0
H604 H 0.65086 0.69439 0.3068 0.0
H605 H 0.62881 0.67054 0.34274 0.0
H606 H 0.63216 0.68608 0.29096 0.0
H607 H 0.61048 0.66273 0.32633 0.0
H608 H 0.68497 0.71902 0.36698 0.0
H609 H 0.69388 0.69752 0.33738 0.0
H610 H 0.70688 0.73556 0.36641 0.0
H611 H 0.7156 0.71445 0.33718 0.0
H612 H 0.66082 0.70714 0.4043 0.0
H613 H 0.62709 0.69558 0.37978 0.0
H614 H 0.67968 0.70677 0.27798 0.0
H615 H 0.69195 0.73618 0.31058 0.0
Li616 Li 0.29999 0.97706 0.33449 0.0
Li617 Li 0.30509 0.97162 0.35993 0.0
Li618 Li 0.31323 0.99362 0.35211 0.0
Li619 Li 0.32067 0.98125 0.34037 0.0
C620 C 0.28717 0.9839 0.35498 0.0
N621 N 0.26969 0.991 0.35418 0.0
C622 C 0.27656 0.97778 0.36378 0.0
C623 C 0.28892 0.99366 0.34582 0.0
C624 C 0.26782 0.9815 0.3632 0.0
C625 C 0.27998 0.99711 0.34556 0.0
C626 C 0.30954 0.95797 0.33351 0.0
C627 C 0.32131 0.94775 0.33564 0.0
N628 N 0.31958 0.94498 0.3207 0.0
C629 C 0.30782 0.95498 0.3182 0.0
C630 C 0.31629 0.95429 0.34234 0.0
C631 C 0.31298 0.94842 0.31193 0.0
C632 C 0.29231 0.97407 0.3046 0.0
N633 N 0.28809 0.9722 0.31901 0.0
C634 C 0.26736 0.96316 0.31042 0.0
C635 C 0.27589 0.96683 0.32213 0.0
C636 C 0.27145 0.96489 0.29541 0.0
C637 C 0.28411 0.97045 0.29256 0.0
H638 H 0.30207 0.97829 0.30248 0.0
H639 H 0.27276 0.96524 0.33368 0.0
C640 C 0.29996 0.96511 0.39042 0.0
N641 N 0.29937 0.9606 0.37633 0.0
C642 C 0.29608 0.95722 0.40281 0.0
C643 C 0.29116 0.94026 0.38592 0.0
C644 C 0.29502 0.94845 0.37385 0.0
C645 C 0.29168 0.94463 0.40063 0.0
H646 H 0.3035 0.97484 0.392 0.0
H647 H 0.29456 0.94512 0.3625 0.0
C648 C 0.32135 0.00197 0.32132 0.0
N649 N 0.33279 0.02219 0.3026 0.0
C650 C 0.33415 0.00846 0.31995 0.0
C651 C 0.31436 0.00568 0.31302 0.0
C652 C 0.33976 0.01868 0.31047 0.0
C653 C 0.32032 0.01595 0.30366 0.0
C654 C 0.33303 0.99127 0.36832 0.0
C655 C 0.34229 0.00274 0.36328 0.0
C656 C 0.33545 0.98533 0.37993 0.0
C657 C 0.3539 0.00806 0.36993 0.0
C658 C 0.34718 0.99095 0.38629 0.0
N659 N 0.35608 0.0021 0.38119 0.0
C660 C 0.31167 0.0095 0.37304 0.0
C661 C 0.32632 0.01993 0.35378 0.0
C662 C 0.31477 0.02064 0.38003 0.0
N663 N 0.31746 0.00934 0.36017 0.0
C664 C 0.32972 0.03126 0.36039 0.0
C665 C 0.32399 0.03172 0.37376 0.0
H666 H 0.30474 0.00094 0.37798 0.0
H667 H 0.331 0.01964 0.34378 0.0
C668 C 0.33489 0.98197 0.31586 0.0
N669 N 0.33457 0.98159 0.33116 0.0
C670 C 0.34469 0.98234 0.30806 0.0
C671 C 0.35366 0.98185 0.33189 0.0
C672 C 0.34358 0.98129 0.33923 0.0
C673 C 0.3543 0.98243 0.31612 0.0
H674 H 0.32751 0.98202 0.30972 0.0
H675 H 0.34295 0.98052 0.35133 0.0
O676 O 0.29574 0.98029 0.35531 0.0
O677 O 0.3049 0.96473 0.33976 0.0
O678 O 0.31566 0.99183 0.33038 0.0
O679 O 0.32164 0.98581 0.3619 0.0
H680 H 0.27508 0.9702 0.37093 0.0
H681 H 0.29713 0.99854 0.33905 0.0
H682 H 0.25954 0.97682 0.36992 0.0
H683 H 0.28122 0.00465 0.33851 0.0
H684 H 0.32664 0.94492 0.3423 0.0
H685 H 0.30265 0.9578 0.31122 0.0
H686 H 0.31782 0.95666 0.35417 0.0
H687 H 0.31178 0.9461 0.30008 0.0
H688 H 0.25766 0.95873 0.31308 0.0
H689 H 0.28764 0.97201 0.28115 0.0
H690 H 0.29669 0.96095 0.41399 0.0
H691 H 0.28766 0.93059 0.38375 0.0
H692 H 0.33972 0.00575 0.32628 0.0
H693 H 0.30444 0.00066 0.31373 0.0
H694 H 0.34966 0.02383 0.30939 0.0
H695 H 0.31503 0.01894 0.29721 0.0
H696 H 0.34057 0.00742 0.35426 0.0
H697 H 0.32836 0.97643 0.38391 0.0
H698 H 0.36118 0.01691 0.36612 0.0
H699 H 0.3492 0.98644 0.39525 0.0
H700 H 0.31003 0.02057 0.39025 0.0
H701 H 0.33704 0.03954 0.35532 0.0
H702 H 0.34489 0.98281 0.29587 0.0
H703 H 0.36082 0.98169 0.33846 0.0
Li704 Li 0.02075 0.32401 0.33262 0.0
Li705 Li 0.02645 0.33436 0.35659 0.0
Li706 Li 0.00447 0.32036 0.35063 0.0
Li707 Li 0.01664 0.34061 0.33875 0.0
C708 C 0.01355 0.30393 0.35277 0.0
N709 N 0.00467 0.27891 0.35284 0.0
C710 C 0.01949 0.29908 0.36116 0.0
C711 C 0.00306 0.29605 0.34449 0.0
C712 C 0.01488 0.2864 0.36101 0.0
C713 C 0.99872 0.28343 0.34466 0.0
C714 C 0.0449 0.34797 0.33917 0.0
C715 C 0.0628 0.36577 0.34921 0.0
N716 N 0.06968 0.36052 0.34587 0.0
C717 C 0.05215 0.34276 0.3358 0.0
C718 C 0.05026 0.35958 0.34588 0.0
C719 C 0.06466 0.34926 0.33927 0.0
C720 C 0.03082 0.3255 0.30446 0.0
N721 N 0.026 0.31772 0.31635 0.0
C722 C 0.03069 0.30346 0.30455 0.0
C723 C 0.02587 0.30685 0.31661 0.0
C724 C 0.03578 0.31137 0.29215 0.0
C725 C 0.03565 0.32245 0.29214 0.0
H726 H 0.03119 0.33426 0.30471 0.0
H727 H 0.0224 0.30092 0.32628 0.0
C728 C 0.03945 0.348 0.38254 0.0
N729 N 0.03831 0.33951 0.3722 0.0
C730 C 0.04832 0.35179 0.39384 0.0
C731 C 0.05457 0.33793 0.38368 0.0
C732 C 0.04559 0.33442 0.37259 0.0
C733 C 0.056 0.3467 0.39452 0.0
H734 H 0.03345 0.35179 0.38205 0.0
H735 H 0.04448 0.3277 0.36418 0.0
C736 C 0.00213 0.32209 0.3144 0.0
N737 N 0.99586 0.31709 0.28435 0.0
C738 C 0.00782 0.33137 0.30362 0.0
C739 C 0.99313 0.3103 0.3099 0.0
C740 C 0.00456 0.32865 0.28849 0.0
C741 C 0.99012 0.30795 0.29465 0.0
C742 C 0.00863 0.34486 0.3644 0.0
C743 C 0.99622 0.34062 0.3673 0.0
C744 C 0.01713 0.35744 0.36529 0.0
C745 C 0.99249 0.34907 0.37087 0.0
C746 C 0.01303 0.3656 0.36887 0.0
N747 N 0.0009 0.36128 0.37156 0.0
C748 C 0.9875 0.30355 0.3716 0.0
C749 C 0.9788 0.30755 0.35022 0.0
C750 C 0.97585 0.29606 0.37775 0.0
N751 N 0.98872 0.30917 0.35815 0.0
C752 C 0.96699 0.30017 0.35596 0.0
C753 C 0.9654 0.29444 0.37001 0.0
H754 H 0.9956 0.30508 0.37764 0.0
H755 H 0.98011 0.31229 0.33964 0.0
C756 C 0.02534 0.36378 0.32492 0.0
N757 N 0.01529 0.35377 0.33063 0.0
C758 C 0.02426 0.37332 0.31855 0.0
C759 C 0.00253 0.36208 0.32425 0.0
C760 C 0.004 0.35269 0.33029 0.0
C761 C 0.01273 0.37255 0.31815 0.0
H762 H 0.03415 0.36425 0.32506 0.0
H763 H 0.99615 0.34452 0.33472 0.0
O764 O 0.01786 0.3163 0.35298 0.0
O765 O 0.03258 0.34163 0.33618 0.0
O766 O 0.00523 0.32455 0.32929 0.0
O767 O 0.01243 0.33674 0.36071 0.0
H768 H 0.02757 0.30505 0.36771 0.0
H769 H 0.99837 0.29965 0.33797 0.0
H770 H 0.0194 0.28252 0.36743 0.0
H771 H 0.99062 0.27723 0.33827 0.0
H772 H 0.06705 0.37473 0.35449 0.0
H773 H 0.04815 0.33374 0.33073 0.0
H774 H 0.04477 0.36372 0.34865 0.0
H775 H 0.07037 0.34532 0.33679 0.0
H776 H 0.03083 0.29495 0.3052 0.0
H777 H 0.03939 0.32881 0.2828 0.0
H778 H 0.04902 0.35846 0.40208 0.0
H779 H 0.06041 0.3339 0.38366 0.0
H780 H 0.01483 0.34053 0.30685 0.0
H781 H 0.98845 0.30304 0.31806 0.0
H782 H 0.00897 0.33572 0.28003 0.0
H783 H 0.9832 0.29885 0.29101 0.0
H784 H 0.98952 0.33093 0.36675 0.0
H785 H 0.02676 0.3609 0.36299 0.0
H786 H 0.98291 0.34592 0.37308 0.0
H787 H 0.01949 0.37536 0.36946 0.0
H788 H 0.97503 0.2917 0.38852 0.0
H789 H 0.95923 0.29932 0.34971 0.0
H790 H 0.03234 0.38106 0.31371 0.0
H791 H 0.9935 0.36112 0.3244 0.0
Li792 Li 0.67836 0.99403 0.35048 0.0
Li793 Li 0.66438 0.97177 0.35759 0.0
Li794 Li 0.67466 0.97777 0.33253 0.0
Li795 Li 0.65854 0.98176 0.33877 0.0
C796 C 0.6947 0.98454 0.35118 0.0
N797 N 0.71934 0.99226 0.34774 0.0
C798 C 0.69977 0.9783 0.35845 0.0
C799 C 0.70214 0.99468 0.34213 0.0
C800 C 0.71225 0.98235 0.35659 0.0
C801 C 0.71458 0.99845 0.34054 0.0
C802 C 0.65277 0.98833 0.36378 0.0
C803 C 0.63168 0.98123 0.37049 0.0
N804 N 0.63375 0.99285 0.3688 0.0
C805 C 0.65471 0.00022 0.36218 0.0
C806 C 0.64119 0.97876 0.36802 0.0
C807 C 0.64497 0.00231 0.36475 0.0
C808 C 0.69031 0.01968 0.35094 0.0
N809 N 0.6897 0.0098 0.3579 0.0
C810 C 0.70462 0.02272 0.37603 0.0
C811 C 0.69665 0.01106 0.37018 0.0
C812 C 0.70533 0.03313 0.36921 0.0
C813 C 0.6981 0.0315 0.35644 0.0
H814 H 0.68459 0.01834 0.34123 0.0
H815 H 0.69587 0.00299 0.37553 0.0
C816 C 0.66071 0.94992 0.36967 0.0
N817 N 0.65951 0.95982 0.37287 0.0
C818 C 0.65717 0.94054 0.3802 0.0
C819 C 0.65118 0.9517 0.39713 0.0
C820 C 0.65491 0.96093 0.38627 0.0
C821 C 0.65232 0.94135 0.39414 0.0
H822 H 0.66437 0.94932 0.35886 0.0
H823 H 0.65415 0.96896 0.38852 0.0
C824 C 0.67598 0.99592 0.31408 0.0
N825 N 0.67939 0.00137 0.28372 0.0
C826 C 0.66724 0.98807 0.30366 0.0
C827 C 0.68643 0.00658 0.30909 0.0
C828 C 0.66913 0.99098 0.28835 0.0
C829 C 0.688 0.00916 0.29368 0.0
C830 C 0.64644 0.95619 0.33295 0.0
C831 C 0.64415 0.95336 0.31764 0.0
C832 C 0.63744 0.94904 0.34356 0.0
C833 C 0.63278 0.94359 0.31317 0.0
C834 C 0.62618 0.93933 0.33863 0.0
N835 N 0.6241 0.93685 0.32367 0.0
C836 C 0.67569 0.95972 0.31604 0.0
C837 C 0.69056 0.97967 0.30785 0.0
C838 C 0.67901 0.95439 0.30457 0.0
N839 N 0.68128 0.97213 0.31728 0.0
C840 C 0.69422 0.97471 0.29619 0.0
C841 C 0.68824 0.9619 0.2943 0.0
H842 H 0.66849 0.95394 0.32386 0.0
H843 H 0.69499 0.98952 0.3092 0.0
C844 C 0.64843 0.99428 0.32425 0.0
N845 N 0.64525 0.98329 0.33071 0.0
C846 C 0.6395 0.99626 0.31777 0.0
C847 C 0.62405 0.97579 0.3253 0.0
C848 C 0.63329 0.97419 0.33158 0.0
C849 C 0.62714 0.98689 0.3181 0.0
H850 H 0.65793 0.00154 0.32414 0.0
H851 H 0.63086 0.96572 0.33725 0.0
O852 O 0.68248 0.98062 0.35282 0.0
O853 O 0.66209 0.98604 0.36088 0.0
O854 O 0.6744 0.99319 0.3291 0.0
O855 O 0.6576 0.96559 0.33757 0.0
H856 H 0.6941 0.9704 0.36546 0.0
H857 H 0.69836 -0.00043 0.33634 0.0
H858 H 0.71631 0.97762 0.36216 0.0
H859 H 0.72045 0.00628 0.33356 0.0
H860 H 0.62265 0.97389 0.37367 0.0
H861 H 0.66361 0.00771 0.35884 0.0
H862 H 0.63951 0.96948 0.36915 0.0
H863 H 0.64631 0.01145 0.36346 0.0
H864 H 0.70992 0.02355 0.386 0.0
H865 H 0.69847 0.03928 0.35076 0.0
H866 H 0.65806 0.93265 0.37737 0.0
H867 H 0.64761 0.95273 0.4078 0.0
H868 H 0.65906 0.97986 0.30737 0.0
H869 H 0.6933 0.01274 0.31702 0.0
H870 H 0.66243 0.98498 0.28016 0.0
H871 H 0.69606 0.01735 0.28964 0.0
H872 H 0.65111 0.95858 0.30929 0.0
H873 H 0.63905 0.95103 0.35546 0.0
H874 H 0.63087 0.94133 0.30135 0.0
H875 H 0.6191 0.93379 0.34671 0.0
H876 H 0.67435 0.94446 0.30373 0.0
H877 H 0.70139 0.98082 0.28852 0.0
H878 H 0.64225 0.00507 0.31264 0.0
H879 H 0.61462 0.96833 0.32583 0.0
Li880 Li 0.02698 0.69234 0.35831 0.0
Li881 Li 0.00565 0.68517 0.35272 0.0
Li882 Li 0.01762 0.67802 0.33818 0.0
Li883 Li 0.02172 0.6988 0.33476 0.0
C884 C 0.01487 0.67194 0.37347 0.0
N885 N 0.01947 0.66578 0.40157 0.0
C886 C 0.00976 0.67404 0.38633 0.0
C887 C 0.02219 0.66657 0.37488 0.0
C888 C 0.01222 0.67089 0.40044 0.0
C889 C 0.02445 0.66356 0.38919 0.0
C890 C 0.01436 0.71024 0.35559 0.0
C891 C 0.00028 0.71611 0.34551 0.0
N892 N 0.00516 0.72606 0.3548 0.0
C893 C 0.01923 0.72052 0.36503 0.0
C894 C 0.0048 0.708 0.34574 0.0
C895 C 0.01446 0.72841 0.36447 0.0
C896 C 0.0496 0.6987 0.37245 0.0
N897 N 0.03853 0.69791 0.37439 0.0
C898 C 0.04412 0.70626 0.39923 0.0
C899 C 0.03565 0.70157 0.38744 0.0
C900 C 0.05571 0.70734 0.39745 0.0
C901 C 0.05835 0.70335 0.38389 0.0
H902 H 0.05178 0.69596 0.36192 0.0
H903 H 0.02683 0.70102 0.38858 0.0
C904 C 0.98034 0.66978 0.35511 0.0
N905 N 0.98995 0.68012 0.36094 0.0
C906 C 0.96856 0.66518 0.36102 0.0
C907 C 0.97683 0.68192 0.37896 0.0
C908 C 0.98845 0.68623 0.37265 0.0
C909 C 0.96669 0.67122 0.37318 0.0
H910 H 0.98188 0.66502 0.34597 0.0
H911 H 0.99632 0.69429 0.37728 0.0
C912 C 0.04152 0.69052 0.33038 0.0
N913 N 0.05673 0.68438 0.31482 0.0
C914 C 0.04655 0.69603 0.31651 0.0
C915 C 0.04431 0.68196 0.33636 0.0
C916 C 0.0542 0.69279 0.30882 0.0
C917 C 0.05199 0.67896 0.32832 0.0
C918 C 0.00314 0.68051 0.31561 0.0
C919 C 0.01233 0.68452 0.30466 0.0
C920 C 0.99081 0.67377 0.31129 0.0
C921 C 0.00906 0.68161 0.28956 0.0
C922 C 0.9879 0.67105 0.29607 0.0
N923 N 0.99702 0.67499 0.2856 0.0
C924 C 0.00999 0.65296 0.33602 0.0
C925 C 0.02113 0.66438 0.31463 0.0
C926 C 0.00874 0.6422 0.32978 0.0
N927 N 0.01619 0.66378 0.32846 0.0
C928 C 0.0202 0.65389 0.30804 0.0
C929 C 0.01397 0.64262 0.31566 0.0
H930 H 0.00604 0.65269 0.34693 0.0
H931 H 0.02593 0.673 0.30871 0.0
C932 C 0.03928 0.72054 0.32175 0.0
N933 N 0.0271 0.71216 0.32115 0.0
C934 C 0.04459 0.72986 0.31106 0.0
C935 C 0.02456 0.72227 0.29989 0.0
C936 C 0.01962 0.71304 0.31082 0.0
C937 C 0.03727 0.73061 0.29969 0.0
H938 H 0.04495 0.71968 0.33023 0.0
H939 H 0.00991 0.70633 0.31071 0.0
O940 O 0.01278 0.67522 0.35959 0.0
O941 O 0.019 0.70248 0.35605 0.0
O942 O 0.03394 0.69354 0.33806 0.0
O943 O 0.00611 0.68341 0.33046 0.0
H944 H 0.00409 0.6782 0.38546 0.0
H945 H 0.0261 0.66474 0.36504 0.0
H946 H 0.0084 0.67255 0.4105 0.0
H947 H 0.03015 0.65946 0.39045 0.0
H948 H 0.99289 0.71448 0.33795 0.0
H949 H 0.02663 0.72238 0.37272 0.0
H950 H 0.00087 0.70008 0.33838 0.0
H951 H 0.01814 0.7364 0.37171 0.0
H952 H 0.04178 0.70939 0.40941 0.0
H953 H 0.06713 0.70394 0.38209 0.0
H954 H 0.96101 0.65698 0.3561 0.0
H955 H 0.97587 0.68676 0.38849 0.0
H956 H 0.04452 0.70266 0.31165 0.0
H957 H 0.04046 0.67756 0.34701 0.0
H958 H 0.0581 0.69693 0.29805 0.0
H959 H 0.05415 0.67228 0.33279 0.0
H960 H 0.02189 0.68988 0.30778 0.0
H961 H 0.98356 0.67073 0.31958 0.0
H962 H 0.01611 0.68465 0.28098 0.0
H963 H 0.9784 0.66583 0.29257 0.0
H964 H 0.0039 0.63368 0.33603 0.0
H965 H 0.0242 0.65456 0.29702 0.0
H966 H 0.05439 0.73626 0.31149 0.0
H967 H 0.0186 0.72255 0.29132 0.0
Li968 Li 0.31311 0.33982 0.35556 0.0
Li969 Li 0.31832 0.32386 0.34977 0.0
Li970 Li 0.32931 0.34431 0.33656 0.0
Li971 Li 0.30814 0.32894 0.33063 0.0
C972 C 0.33687 0.34763 0.36946 0.0
N973 N 0.35274 0.36202 0.39201 0.0
C974 C 0.33818 0.34218 0.38249 0.0
C975 C 0.34379 0.36039 0.36782 0.0
C976 C 0.3462 0.34961 0.39378 0.0
C977 C 0.35173 0.36751 0.37936 0.0
C978 C 0.29486 0.3118 0.35928 0.0
C979 C 0.28431 0.28975 0.36195 0.0
N980 N 0.28131 0.29089 0.37636 0.0
C981 C 0.2916 0.31274 0.37407 0.0
C982 C 0.29111 0.30021 0.35312 0.0
C983 C 0.28477 0.30206 0.38254 0.0
C984 C 0.29835 0.34882 0.36676 0.0
N985 N 0.30738 0.34649 0.37074 0.0
C986 C 0.30731 0.3532 0.39594 0.0
C987 C 0.31185 0.3485 0.38502 0.0
C988 C 0.29795 0.3557 0.39219 0.0
C989 C 0.29347 0.35343 0.37734 0.0
H990 H 0.29486 0.34699 0.35535 0.0
H991 H 0.31883 0.34635 0.38805 0.0
C992 C 0.3266 0.30681 0.3503 0.0
N993 N 0.32082 0.31153 0.35854 0.0
C994 C 0.32957 0.29856 0.35683 0.0
C995 C 0.32034 0.29999 0.38009 0.0
C996 C 0.31764 0.30827 0.37314 0.0
C997 C 0.32658 0.29516 0.372 0.0
H998 H 0.32923 0.30973 0.33878 0.0
H999 H 0.3133 0.31235 0.37955 0.0
C1000 C 0.31789 0.35863 0.33232 0.0
N1001 N 0.32371 0.38262 0.32727 0.0
C1002 C 0.31518 0.36198 0.31848 0.0
C1003 C 0.32337 0.36746 0.34367 0.0
C1004 C 0.31825 0.37416 0.31611 0.0
C1005 C 0.32629 0.37954 0.34089 0.0
C1006 C 0.32133 0.32208 0.31451 0.0
C1007 C 0.32751 0.32912 0.3019 0.0
C1008 C 0.31322 0.30947 0.3129 0.0
C1009 C 0.32533 0.32344 0.28781 0.0
C1010 C 0.31128 0.30413 0.29862 0.0
N1011 N 0.31731 0.31117 0.28647 0.0
C1012 C 0.35499 0.35701 0.33442 0.0
C1013 C 0.34531 0.36308 0.3163 0.0
C1014 C 0.36651 0.36501 0.32826 0.0
N1015 N 0.34471 0.35623 0.32842 0.0
C1016 C 0.35663 0.37115 0.30971 0.0
C1017 C 0.36742 0.37212 0.31564 0.0
H1018 H 0.35421 0.35122 0.34383 0.0
H1019 H 0.33698 0.36204 0.31146 0.0
C1020 C 0.28511 0.31324 0.31662 0.0
N1021 N 0.29664 0.32292 0.31452 0.0
C1022 C 0.27654 0.30927 0.30493 0.0
C1023 C 0.29195 0.32519 0.2891 0.0
C1024 C 0.30019 0.32885 0.30109 0.0
C1025 C 0.27989 0.31538 0.29099 0.0
H1026 H 0.28248 0.30878 0.32747 0.0
H1027 H 0.30942 0.33652 0.29975 0.0
O1028 O 0.32907 0.34045 0.35827 0.0
O1029 O 0.3016 0.32215 0.35084 0.0
O1030 O 0.31489 0.34671 0.33482 0.0
O1031 O 0.32319 0.32751 0.32836 0.0
H1032 H 0.333 0.33233 0.38392 0.0
H1033 H 0.34321 0.36477 0.35767 0.0
H1034 H 0.34723 0.34552 0.40396 0.0
H1035 H 0.35712 0.37739 0.37823 0.0
H1036 H 0.28141 0.28074 0.35736 0.0
H1037 H 0.29437 0.32162 0.379 0.0
H1038 H 0.29349 0.29931 0.34166 0.0
H1039 H 0.28223 0.30265 0.39403 0.0
H1040 H 0.31115 0.35489 0.40717 0.0
H1041 H 0.2861 0.35497 0.37396 0.0
H1042 H 0.33455 0.29525 0.35022 0.0
H1043 H 0.31769 0.29752 0.39173 0.0
H1044 H 0.3108 0.35525 0.30962 0.0
H1045 H 0.32523 0.365 0.35458 0.0
H1046 H 0.31628 0.37688 0.30542 0.0
H1047 H 0.33056 0.38646 0.34957 0.0
H1048 H 0.33385 0.33888 0.30295 0.0
H1049 H 0.30846 0.30387 0.32257 0.0
H1050 H 0.32999 0.32879 0.27793 0.0
H1051 H 0.30497 0.29439 0.29719 0.0
H1052 H 0.37458 0.36532 0.33302 0.0
H1053 H 0.35694 0.37649 0.30002 0.0
H1054 H 0.2673 0.30178 0.30694 0.0
H1055 H 0.29497 0.33006 0.27851 0.0
Li1056 Li 0.32154 0.00717 0.66853 0.0
Li1057 Li 0.34171 0.01993 0.68082 0.0
Li1058 Li 0.32483 0.02421 0.68541 0.0
Li1059 Li 0.33577 0.02846 0.66085 0.0
C1060 C 0.31979 -0.00046 0.69955 0.0
N1061 N 0.30813 0.97938 0.71831 0.0
C1062 C 0.32556 0.99292 0.70342 0.0
C1063 C 0.30817 0.99602 0.70541 0.0
C1064 C 0.31949 0.98272 0.71286 0.0
C1065 C 0.3024 0.98578 0.71483 0.0
C1066 C 0.34262 0.0151 0.6455 0.0
C1067 C 0.35909 0.02471 0.62741 0.0
N1068 N 0.35125 0.01765 0.61633 0.0
C1069 C 0.33473 0.00791 0.63395 0.0
C1070 C 0.35491 0.02352 0.64224 0.0
C1071 C 0.33927 0.00934 0.61927 0.0
C1072 C 0.30157 0.98898 0.65144 0.0
N1073 N 0.31024 0.99097 0.6619 0.0
C1074 C 0.3043 0.96971 0.66168 0.0
C1075 C 0.31177 0.98166 0.667 0.0
C1076 C 0.29535 0.96739 0.65076 0.0
C1077 C 0.29397 0.97719 0.64568 0.0
H1078 H 0.30079 0.9966 0.64722 0.0
H1079 H 0.31906 0.98357 0.67483 0.0
C1080 C 0.35691 0.02182 0.70517 0.0
N1081 N 0.35464 0.01899 0.69031 0.0
C1082 C 0.36646 0.02124 0.71229 0.0
C1083 C 0.3708 0.01435 0.68881 0.0
C1084 C 0.36128 0.01525 0.68209 0.0
C1085 C 0.3735 0.01742 0.70408 0.0
H1086 H 0.3513 0.02454 0.71147 0.0
H1087 H 0.35915 0.0129 0.67035 0.0
C1088 C 0.30626 0.01879 0.66374 0.0
N1089 N 0.28305 0.01592 0.66258 0.0
C1090 C 0.30414 0.0268 0.65511 0.0
C1091 C 0.29658 0.00929 0.67171 0.0
C1092 C 0.29234 0.02521 0.65468 0.0
C1093 C 0.28491 0.008 0.67099 0.0
C1094 C 0.35283 0.04335 0.68873 0.0
C1095 C 0.35214 0.04774 0.70296 0.0
C1096 C 0.3643 0.04625 0.68286 0.0
C1097 C 0.36291 0.0548 0.71118 0.0
C1098 C 0.37485 0.05332 0.69144 0.0
N1099 N 0.37394 0.05741 0.70531 0.0
C1100 C 0.31935 0.02745 0.7149 0.0
C1101 C 0.31144 0.03538 0.69669 0.0
C1102 C 0.31507 0.03174 0.72658 0.0
N1103 N 0.31757 0.02942 0.70031 0.0
C1104 C 0.30679 0.03963 0.70803 0.0
C1105 C 0.30875 0.03796 0.72318 0.0
H1106 H 0.32439 0.02282 0.71743 0.0
H1107 H 0.31039 0.0371 0.68503 0.0
C1108 C 0.33555 0.03638 0.63083 0.0
N1109 N 0.34149 0.03952 0.6443 0.0
C1110 C 0.33975 0.04478 0.61892 0.0
C1111 C 0.35606 0.05939 0.635 0.0
C1112 C 0.35156 0.05075 0.64654 0.0
C1113 C 0.35008 0.05652 0.621 0.0
H1114 H 0.32749 0.0274 0.62941 0.0
H1115 H 0.35603 0.05307 0.65737 0.0
O1116 O 0.32566 0.00964 0.69047 0.0
O1117 O 0.33832 0.01391 0.65993 0.0
O1118 O 0.3178 0.02034 0.66441 0.0
O1119 O 0.34236 0.03629 0.68058 0.0
H1120 H 0.33459 0.99557 0.69906 0.0
H1121 H 0.30369 0.00121 0.70285 0.0
H1122 H 0.32381 0.97747 0.71586 0.0
H1123 H 0.2934 0.98293 0.71942 0.0
H1124 H 0.36856 0.03124 0.6247 0.0
H1125 H 0.3252 0.00134 0.63627 0.0
H1126 H 0.36114 0.02915 0.65104 0.0
H1127 H 0.33326 0.00386 0.61022 0.0
H1128 H 0.30584 0.96247 0.66563 0.0
H1129 H 0.28719 0.97576 0.63724 0.0
H1130 H 0.36818 0.02351 0.72414 0.0
H1131 H 0.37605 0.0114 0.68213 0.0
H1132 H 0.31156 0.03421 0.64887 0.0
H1133 H 0.29805 0.00294 0.67828 0.0
H1134 H 0.29056 0.03136 0.64809 0.0
H1135 H 0.27733 0.00068 0.67711 0.0
H1136 H 0.34339 0.04574 0.70761 0.0
H1137 H 0.36502 0.04292 0.67189 0.0
H1138 H 0.36249 0.05822 0.72223 0.0
H1139 H 0.38376 0.05553 0.68709 0.0
H1140 H 0.31675 0.0303 0.73815 0.0
H1141 H 0.30209 0.04454 0.70501 0.0
H1142 H 0.33478 0.04222 0.60836 0.0
H1143 H 0.36415 0.06826 0.63706 0.0
Li1144 Li 0.99533 0.31489 0.66723 0.0
Li1145 Li 0.98278 0.32151 0.67931 0.0
Li1146 Li 0.97865 0.30146 0.68472 0.0
Li1147 Li 0.97291 0.30675 0.65967 0.0
C1148 C 0.00213 0.31439 0.69636 0.0
N1149 N 0.01842 0.30902 0.71045 0.0
C1150 C 0.01032 0.32241 0.70716 0.0
C1151 C 0.00227 0.30366 0.69271 0.0
C1152 C 0.01848 0.31953 0.71416 0.0
C1153 C 0.01055 0.30109 0.69997 0.0
C1154 C 0.99137 0.3352 0.65404 0.0
C1155 C 0.9886 0.35039 0.64099 0.0
N1156 N -0.0007 0.3594 0.64699 0.0
C1157 C 0.00239 0.34459 0.65998 0.0
C1158 C 0.98444 0.33808 0.64439 0.0
C1159 C 0.00622 0.35678 0.65633 0.0
C1160 C 0.01148 0.31403 0.64607 0.0
N1161 N 0.01097 0.31939 0.65914 0.0
C1162 C 0.03282 0.33221 0.65944 0.0
C1163 C 0.02131 0.3283 0.6659 0.0
C1164 C 0.03365 0.32693 0.64584 0.0
C1165 C 0.02278 0.31763 0.63923 0.0
H1166 H 0.00307 0.30709 0.64084 0.0
H1167 H 0.02062 0.33257 0.67615 0.0
C1168 C 0.9898 0.33966 0.70148 0.0
N1169 N 0.98353 0.33572 0.68831 0.0
C1170 C 0.99111 0.35012 0.70863 0.0
C1171 C 0.97918 0.35215 0.68876 0.0
C1172 C 0.97819 0.34169 0.68192 0.0
C1173 C 0.98581 0.35653 0.70222 0.0
H1174 H 0.99378 0.33465 0.70645 0.0
H1175 H 0.97318 0.33837 0.67149 0.0
C1176 C 0.97845 0.28609 0.6591 0.0
N1177 N 0.97132 0.26259 0.64932 0.0
C1178 C 0.96608 0.27776 0.65612 0.0
C1179 C 0.98719 0.28249 0.65706 0.0
C1180 C 0.96266 0.26591 0.65119 0.0
C1181 C 0.9834 0.27056 0.65214 0.0
C1182 C 0.95944 0.31084 0.68622 0.0
C1183 C 0.95889 0.31176 0.70186 0.0
C1184 C 0.95311 0.3148 0.67701 0.0
C1185 C 0.95209 0.3167 0.70804 0.0
C1186 C 0.94639 0.31965 0.68362 0.0
N1187 N 0.94604 0.32051 0.69887 0.0
C1188 C 0.97436 0.29318 0.71448 0.0
C1189 C 0.9692 0.27708 0.69699 0.0
C1190 C 0.97008 0.28485 0.72642 0.0
N1191 N 0.97362 0.28917 0.70008 0.0
C1192 C 0.96496 0.26844 0.7086 0.0
C1193 C 0.96518 0.27227 0.72351 0.0
H1194 H 0.97814 0.30288 0.71668 0.0
H1195 H 0.96875 0.27403 0.68555 0.0
C1196 C 0.96654 0.30341 0.62898 0.0
N1197 N 0.96188 0.30103 0.64319 0.0
C1198 C 0.95866 0.29926 0.61658 0.0
C1199 C 0.94137 0.29038 0.63372 0.0
C1200 C 0.94958 0.2946 0.64577 0.0
C1201 C 0.94589 0.29268 0.6189 0.0
H1202 H 0.97639 0.30853 0.62731 0.0
H1203 H 0.94615 0.29267 0.6572 0.0
O1204 O 0.99419 0.31722 0.68933 0.0
O1205 O 0.9874 0.32323 0.65758 0.0
O1206 O 0.98202 0.29779 0.66375 0.0
O1207 O 0.96616 0.30616 0.67995 0.0
H1208 H 0.01045 0.33082 0.71006 0.0
H1209 H 0.99605 0.29734 0.68443 0.0
H1210 H 0.02487 0.32567 0.72252 0.0
H1211 H 0.01072 0.2928 0.69726 0.0
H1212 H 0.9833 0.35277 0.6336 0.0
H1213 H 0.00783 0.34249 0.6675 0.0
H1214 H 0.97589 0.33089 0.63969 0.0
H1215 H 0.01468 0.36416 0.66093 0.0
H1216 H 0.04092 0.33953 0.66481 0.0
H1217 H 0.02299 0.31321 0.62884 0.0
H1218 H 0.99613 0.3531 0.71913 0.0
H1219 H 0.97499 0.35687 0.68343 0.0
H1220 H 0.95917 0.28032 0.65784 0.0
H1221 H 0.99681 0.28882 0.65929 0.0
H1222 H 0.95311 0.25935 0.6489 0.0
H1223 H 0.99007 0.26764 0.65054 0.0
H1224 H 0.96373 0.30878 0.70916 0.0
H1225 H 0.9536 0.31438 0.66488 0.0
H1226 H 0.95165 0.31752 0.72012 0.0
H1227 H 0.94153 0.32282 0.67662 0.0
H1228 H 0.97055 0.28818 0.7378 0.0
H1229 H 0.96119 0.25881 0.70589 0.0
H1230 H 0.96249 0.30125 0.60532 0.0
H1231 H 0.93159 0.28517 0.63597 0.0
Li1232 Li 0.68258 0.67663 0.66955 0.0
Li1233 Li 0.67138 0.65675 0.6829 0.0
Li1234 Li 0.69223 0.67209 0.68914 0.0
Li1235 Li 0.68845 0.66094 0.66507 0.0
C1236 C 0.67908 0.67843 0.70493 0.0
N1237 N 0.68351 0.68823 0.73366 0.0
C1238 C 0.6735 0.67082 0.71735 0.0
C1239 C 0.68681 0.69106 0.70712 0.0
C1240 C 0.67588 0.67594 0.73179 0.0
C1241 C 0.68897 0.69583 0.72173 0.0
C1242 C 0.6632 0.65571 0.65095 0.0
C1243 C 0.651 0.64192 0.63102 0.0
N1244 N 0.64406 0.64741 0.63061 0.0
C1245 C 0.65595 0.66121 0.65032 0.0
C1246 C 0.66072 0.64599 0.6412 0.0
C1247 C 0.64631 0.65688 0.63997 0.0
C1248 C 0.68137 0.68972 0.64438 0.0
N1249 N 0.67995 0.68841 0.65957 0.0
C1250 C 0.67206 0.70211 0.66053 0.0
C1251 C 0.6755 0.69446 0.66771 0.0
C1252 C 0.67319 0.70349 0.6448 0.0
C1253 C 0.67809 0.69731 0.63674 0.0
H1254 H 0.6847 0.68458 0.63818 0.0
H1255 H 0.67417 0.693 0.67971 0.0
C1256 C 0.65554 0.63769 0.70271 0.0
N1257 N 0.65587 0.64457 0.69074 0.0
C1258 C 0.64436 0.62951 0.70952 0.0
C1259 C 0.63403 0.63542 0.69135 0.0
C1260 C 0.64542 0.64358 0.68502 0.0
C1261 C 0.63343 0.62838 0.70388 0.0
H1262 H 0.664 0.63885 0.7073 0.0
H1263 H 0.6459 0.64939 0.67586 0.0
C1264 C 0.70555 0.68919 0.66065 0.0
N1265 N 0.71739 0.71012 0.64315 0.0
C1266 C 0.70949 0.68858 0.64611 0.0
C1267 C 0.7078 0.70049 0.66636 0.0
C1268 C 0.71542 0.69925 0.63742 0.0
C1269 C 0.71374 0.71096 0.65732 0.0
C1270 C 0.68186 0.64188 0.68575 0.0
C1271 C 0.68705 0.63716 0.69566 0.0
C1272 C 0.67298 0.63406 0.67542 0.0
C1273 C 0.68328 0.62466 0.69505 0.0
C1274 C 0.66946 0.62163 0.67516 0.0
N1275 N 0.67464 0.61722 0.68489 0.0
C1276 C 0.70082 0.67086 0.71773 0.0
C1277 C 0.71402 0.68921 0.70449 0.0
C1278 C 0.70917 0.67441 0.72959 0.0
N1279 N 0.70343 0.6782 0.70547 0.0
C1280 C 0.72264 0.69313 0.71611 0.0
C1281 C 0.72035 0.68559 0.72876 0.0
H1282 H 0.69234 0.66213 0.71813 0.0
H1283 H 0.71593 0.69479 0.69453 0.0
C1284 C 0.6927 0.65517 0.63579 0.0
N1285 N 0.69441 0.65403 0.65066 0.0
C1286 C 0.69771 0.65095 0.6249 0.0
C1287 C 0.70579 0.64404 0.64486 0.0
C1288 C 0.7008 0.6486 0.65535 0.0
C1289 C 0.70447 0.64536 0.62936 0.0
H1290 H 0.68775 0.65973 0.63239 0.0
H1291 H 0.70221 0.64797 0.66723 0.0
O1292 O 0.67709 0.67354 0.69073 0.0
O1293 O 0.67287 0.65998 0.66077 0.0
O1294 O 0.69958 0.6788 0.66926 0.0
O1295 O 0.68551 0.65411 0.68623 0.0
H1296 H 0.66749 0.66105 0.71589 0.0
H1297 H 0.69117 0.6971 0.69766 0.0
H1298 H 0.67167 0.67014 0.7415 0.0
H1299 H 0.695 0.70556 0.72359 0.0
H1300 H 0.64898 0.6344 0.62342 0.0
H1301 H 0.65759 0.66862 0.65789 0.0
H1302 H 0.66623 0.64162 0.64148 0.0
H1303 H 0.64061 0.66103 0.63941 0.0
H1304 H 0.66811 0.70648 0.66718 0.0
H1305 H 0.67923 0.6982 0.62463 0.0
H1306 H 0.64426 0.62423 0.71918 0.0
H1307 H 0.62583 0.63498 0.68685 0.0
H1308 H 0.70801 0.67997 0.64157 0.0
H1309 H 0.70485 0.70116 0.67758 0.0
H1310 H 0.71847 0.69889 0.62613 0.0
H1311 H 0.71544 0.71974 0.66156 0.0
H1312 H 0.69393 0.6431 0.70373 0.0
H1313 H 0.66882 0.63754 0.66776 0.0
H1314 H 0.68723 0.62088 0.70264 0.0
H1315 H 0.6626 0.61547 0.66722 0.0
H1316 H 0.70697 0.66839 0.73921 0.0
H1317 H 0.73121 0.70173 0.7149 0.0
H1318 H 0.69663 0.65242 0.61313 0.0
H1319 H 0.71073 0.63964 0.6489 0.0
Li1320 Li 0.34281 0.32712 0.6818 0.0
Li1321 Li 0.32722 0.30573 0.68567 0.0
Li1322 Li 0.33847 0.31214 0.66122 0.0
Li1323 Li 0.32258 0.31729 0.66799 0.0
C1324 C 0.35717 0.31586 0.6835 0.0
N1325 N 0.38154 0.32243 0.68676 0.0
C1326 C 0.36105 0.31247 0.69642 0.0
C1327 C 0.36566 0.32246 0.67216 0.0
C1328 C 0.37342 0.31592 0.69788 0.0
C1329 C 0.37794 0.32572 0.67403 0.0
C1330 C 0.32015 0.31756 0.70348 0.0
C1331 C 0.30173 0.3066 0.71841 0.0
N1332 N 0.30857 0.31091 0.73116 0.0
C1333 C 0.32699 0.32196 0.71672 0.0
C1334 C 0.30741 0.30989 0.7043 0.0
C1335 C 0.32097 0.31846 0.73061 0.0
C1336 C 0.35561 0.35253 0.68599 0.0
N1337 N 0.35464 0.34194 0.69119 0.0
C1338 C 0.3691 0.35284 0.71076 0.0
C1339 C 0.36117 0.34187 0.70331 0.0
C1340 C 0.37031 0.36393 0.7056 0.0
C1341 C 0.36353 0.36371 0.69296 0.0
H1342 H 0.35005 0.35226 0.67658 0.0
H1343 H 0.35997 0.33328 0.70747 0.0
C1344 C 0.31008 0.28238 0.69775 0.0
N1345 N 0.32064 0.29311 0.70049 0.0
C1346 C 0.30539 0.27302 0.70848 0.0
C1347 C 0.32254 0.28595 0.72466 0.0
C1348 C 0.32686 0.29507 0.71363 0.0
C1349 C 0.31169 0.27469 0.72213 0.0
H1350 H 0.30535 0.28103 0.68718 0.0
H1351 H 0.33523 0.3037 0.7155 0.0
C1352 C 0.34609 0.33648 0.64909 0.0
N1353 N 0.35951 0.353 0.62658 0.0
C1354 C 0.34019 0.33745 0.6363 0.0
C1355 C 0.35881 0.34404 0.6505 0.0
C1356 C 0.34714 0.34582 0.62502 0.0
C1357 C 0.36544 0.35229 0.63898 0.0
C1358 C 0.31058 0.2945 0.65602 0.0
C1359 C 0.31192 0.29192 0.64104 0.0
C1360 C 0.29886 0.29073 0.66174 0.0
C1361 C 0.3015 0.2857 0.63198 0.0
C1362 C 0.28867 0.28455 0.6523 0.0
N1363 N 0.29019 0.28219 0.63774 0.0
C1364 C 0.34624 0.29701 0.64834 0.0
C1365 C 0.34856 0.31278 0.63183 0.0
C1366 C 0.35077 0.29234 0.63737 0.0
N1367 N 0.34522 0.30704 0.64541 0.0
C1368 C 0.35321 0.30848 0.62057 0.0
C1369 C 0.35432 0.29808 0.62322 0.0
H1370 H 0.34341 0.29256 0.6592 0.0
H1371 H 0.34756 0.32063 0.62962 0.0
C1372 C 0.3065 0.32664 0.66934 0.0
N1373 N 0.31047 0.32062 0.66025 0.0
C1374 C 0.29818 0.32997 0.66395 0.0
C1375 C 0.29802 0.32068 0.64003 0.0
C1376 C 0.30645 0.31766 0.64582 0.0
C1377 C 0.29387 0.32701 0.6491 0.0
H1378 H 0.30998 0.32904 0.68071 0.0
H1379 H 0.30998 0.3132 0.63867 0.0
O1380 O 0.34508 0.31257 0.68193 0.0
O1381 O 0.32591 0.32065 0.68979 0.0
O1382 O 0.33939 0.32835 0.66027 0.0
O1383 O 0.32068 0.3006 0.66506 0.0
H1384 H 0.3546 0.30727 0.70526 0.0
H1385 H 0.3628 0.32495 0.66198 0.0
H1386 H 0.37656 0.31341 0.70786 0.0
H1387 H 0.3846 0.33085 0.66534 0.0
H1388 H 0.29189 0.30061 0.71921 0.0
H1389 H 0.33685 0.3279 0.71629 0.0
H1390 H 0.30199 0.30648 0.69416 0.0
H1391 H 0.32615 0.32173 0.74096 0.0
H1392 H 0.37417 0.35264 0.72048 0.0
H1393 H 0.36404 0.37203 0.6888 0.0
H1394 H 0.29693 0.26457 0.70611 0.0
H1395 H 0.3278 0.28761 0.7349 0.0
H1396 H 0.33037 0.33175 0.63501 0.0
H1397 H 0.36355 0.34365 0.66043 0.0
H1398 H 0.34268 0.34661 0.61503 0.0
H1399 H 0.37529 0.35817 0.63993 0.0
H1400 H 0.32091 0.29473 0.63644 0.0
H1401 H 0.29764 0.29266 0.67328 0.0
H1402 H 0.30241 0.28368 0.62035 0.0
H1403 H 0.27955 0.28165 0.65655 0.0
H1404 H 0.35124 0.28418 0.63988 0.0
H1405 H 0.35595 0.3133 0.60992 0.0
H1406 H 0.29517 0.33483 0.6713 0.0
H1407 H 0.29509 0.31844 0.62842 0.0
Li1408 Li 0.6768 0.01791 0.6787 0.0
Li1409 Li 0.69769 0.02209 0.6844 0.0
Li1410 Li 0.69231 0.02748 0.65959 0.0
Li1411 Li 0.68534 0.00614 0.66549 0.0
C1412 C 0.68927 0.04123 0.68846 0.0
N1413 N 0.68292 0.05533 0.70604 0.0
C1414 C 0.69376 0.04442 0.70315 0.0
C1415 C 0.68164 0.04532 0.68267 0.0
C1416 C 0.69043 0.05153 0.71187 0.0
C1417 C 0.6785 0.0524 0.69176 0.0
C1418 C 0.68035 0.99851 0.69838 0.0
C1419 C 0.68373 0.98265 0.70836 0.0
N1420 N 0.67725 0.98207 0.72091 0.0
C1421 C 0.67362 0.99766 0.71131 0.0
C1422 C 0.68537 0.99086 0.69683 0.0
C1423 C 0.67219 0.98933 0.7226 0.0
C1424 C 0.65194 0.01153 0.67867 0.0
N1425 N 0.66226 0.0164 0.68726 0.0
C1426 C 0.65157 0.01868 0.70812 0.0
C1427 C 0.66224 0.01985 0.70177 0.0
C1428 C 0.64077 0.01369 0.69953 0.0
C1429 C 0.64101 0.01005 0.68463 0.0
H1430 H 0.65217 0.0087 0.66723 0.0
H1431 H 0.67049 0.02342 0.70847 0.0
C1432 C 0.72121 0.03718 0.69603 0.0
N1433 N 0.71001 0.02748 0.69957 0.0
C1434 C 0.7305 0.0423 0.70684 0.0
C1435 C 0.71665 0.02714 0.72466 0.0
C1436 C 0.70761 0.02239 0.71354 0.0
C1437 C 0.72824 0.03735 0.72146 0.0
H1438 H 0.72281 0.04112 0.68486 0.0
H1439 H 0.69864 0.01482 0.71622 0.0
C1440 C 0.67232 0.01518 0.64337 0.0
N1441 N 0.6666 0.01997 0.61511 0.0
C1442 C 0.67313 0.00894 0.63078 0.0
C1443 C 0.66847 0.02375 0.64162 0.0
C1444 C 0.67022 0.01151 0.61658 0.0
C1445 C 0.66566 0.02608 0.62723 0.0
C1446 C 0.71096 0.01616 0.66146 0.0
C1447 C 0.71712 0.01833 0.64769 0.0
C1448 C 0.71357 0.01034 0.67304 0.0
C1449 C 0.72561 0.0144 0.64565 0.0
C1450 C 0.72213 0.00656 0.67057 0.0
N1451 N 0.72792 0.00864 0.65703 0.0
C1452 C 0.69941 0.05034 0.64585 0.0
C1453 C 0.70058 0.03576 0.63004 0.0
C1454 C 0.70325 0.05881 0.63409 0.0
N1455 N 0.69809 0.03906 0.6436 0.0
C1456 C 0.70447 0.04395 0.61796 0.0
C1457 C 0.70583 0.05565 0.6199 0.0
H1458 H 0.6975 0.05278 0.65678 0.0
H1459 H 0.6994 0.02671 0.62857 0.0
C1460 C 0.67072 0.98066 0.66348 0.0
N1461 N 0.68086 0.99045 0.65753 0.0
C1462 C 0.66639 0.96891 0.65761 0.0
C1463 C 0.68292 0.97756 0.6394 0.0
C1464 C 0.68697 0.98914 0.6457 0.0
C1465 C 0.67245 0.96725 0.64531 0.0
H1466 H 0.6659 0.98202 0.67271 0.0
H1467 H 0.69475 0.99712 0.64084 0.0
O1468 O 0.6924 0.03422 0.67978 0.0
O1469 O 0.6818 0.00662 0.68721 0.0
O1470 O 0.67538 0.01298 0.65731 0.0
O1471 O 0.70263 0.01997 0.66361 0.0
H1472 H 0.69971 0.04138 0.70781 0.0
H1473 H 0.67807 0.04294 0.67135 0.0
H1474 H 0.6938 0.05402 0.72327 0.0
H1475 H 0.67254 0.05555 0.68745 0.0
H1476 H 0.68758 0.97669 0.7073 0.0
H1477 H 0.66959 0.00342 0.71268 0.0
H1478 H 0.69034 0.99113 0.68678 0.0
H1479 H 0.66706 0.98864 0.7327 0.0
H1480 H 0.65169 0.0214 0.71974 0.0
H1481 H 0.63286 0.00618 0.67766 0.0
H1482 H 0.7392 0.05028 0.7039 0.0
H1483 H 0.71452 0.02291 0.73569 0.0
H1484 H 0.67608 0.00227 0.63193 0.0
H1485 H 0.66774 0.02862 0.65126 0.0
H1486 H 0.67087 0.0068 0.60672 0.0
H1487 H 0.66275 0.03275 0.6257 0.0
H1488 H 0.71532 0.02294 0.63865 0.0
H1489 H 0.70914 0.00884 0.68387 0.0
H1490 H 0.73039 0.01595 0.63502 0.0
H1491 H 0.72421 0.00202 0.67944 0.0
H1492 H 0.70439 0.0678 0.63615 0.0
H1493 H 0.70626 0.04111 0.60718 0.0
H1494 H 0.65836 0.96123 0.66262 0.0
H1495 H 0.68773 0.97675 0.62973 0.0
Li1496 Li 0.97588 0.67553 0.68588 0.0
Li1497 Li 0.97892 0.65786 0.6807 0.0
Li1498 Li 0.99175 0.67807 0.66748 0.0
Li1499 Li 0.97003 0.66447 0.66069 0.0
C1500 C 0.99832 0.68047 0.70093 0.0
N1501 N 0.01368 0.69327 0.72462 0.0
C1502 C -0.00099 0.67416 0.71347 0.0
C1503 C 0.00551 0.69327 0.70037 0.0
C1504 C 0.00681 0.68081 0.72535 0.0
C1505 C 0.0132 0.69958 0.71247 0.0
C1506 C 0.9537 0.64808 0.68724 0.0
C1507 C 0.93756 0.62692 0.68539 0.0
N1508 N 0.93404 0.62748 0.69973 0.0
C1509 C 0.94986 0.6485 0.7019 0.0
C1510 C 0.94745 0.63725 0.67885 0.0
C1511 C 0.93993 0.63797 0.70804 0.0
C1512 C 0.96207 0.6857 0.69679 0.0
N1513 N 0.97069 0.68279 0.70085 0.0
C1514 C 0.96996 0.68845 0.72638 0.0
C1515 C 0.97469 0.6841 0.71531 0.0
C1516 C 0.96079 0.69124 0.72265 0.0
C1517 C 0.95696 0.68994 0.70755 0.0
H1518 H 0.95892 0.68438 0.68525 0.0
H1519 H 0.98131 0.68147 0.71841 0.0
C1520 C 0.98617 0.64012 0.68325 0.0
N1521 N 0.97938 0.6445 0.68982 0.0
C1522 C 0.98729 0.63079 0.69015 0.0
C1523 C 0.97442 0.63067 0.71047 0.0
C1524 C 0.97361 0.64005 0.70321 0.0
C1525 C 0.98142 0.62598 0.70401 0.0
H1526 H 0.99095 0.64407 0.67279 0.0
H1527 H 0.96861 0.64395 0.70844 0.0
C1528 C 0.98304 0.69428 0.66072 0.0
N1529 N 0.99193 0.71829 0.65182 0.0
C1530 C 0.98168 0.6969 0.64581 0.0
C1531 C 0.98872 0.70383 0.67117 0.0
C1532 C 0.9863 0.70912 0.64151 0.0
C1533 C 0.99321 0.71592 0.66644 0.0
C1534 C 0.98267 0.65358 0.64755 0.0
C1535 C 0.99045 0.65823 0.63506 0.0
C1536 C 0.97374 0.64113 0.64807 0.0
C1537 C 0.98905 0.65034 0.62316 0.0
C1538 C 0.97263 0.63354 0.63595 0.0
N1539 N 0.98023 0.63827 0.62385 0.0
C1540 C 0.0175 0.68961 0.66728 0.0
C1541 C 0.00918 0.69454 0.64633 0.0
C1542 C 0.02938 0.69686 0.66165 0.0
N1543 N 0.00772 0.6887 0.65967 0.0
C1544 C 0.0209 0.70188 0.64027 0.0
C1545 C 0.0312 0.7031 0.64794 0.0
H1546 H 0.01606 0.68452 0.67759 0.0
H1547 H 0.00123 0.69331 0.64024 0.0
C1548 C 0.94652 0.65571 0.64875 0.0
N1549 N 0.95825 0.65907 0.64495 0.0
C1550 C 0.93742 0.65169 0.63772 0.0
C1551 C 0.95266 0.6547 0.61902 0.0
C1552 C 0.96149 0.65882 0.6304 0.0
C1553 C 0.9404 0.65106 0.62259 0.0
H1554 H 0.94424 0.65624 0.66038 0.0
H1555 H 0.97093 0.66185 0.62758 0.0
O1556 O 0.99071 0.67408 0.68923 0.0
O1557 O 0.96335 0.65833 0.68103 0.0
O1558 O 0.97852 0.68237 0.66512 0.0
O1559 O 0.98393 0.66119 0.65927 0.0
H1560 H 0.99355 0.66425 0.71404 0.0
H1561 H 0.00525 0.69827 0.69064 0.0
H1562 H 0.00741 0.67605 0.73516 0.0
H1563 H 0.01882 0.70949 0.7122 0.0
H1564 H 0.93265 0.61846 0.67904 0.0
H1565 H 0.95455 0.65685 0.7085 0.0
H1566 H 0.95013 0.63685 0.66739 0.0
H1567 H 0.9369 0.63814 0.71941 0.0
H1568 H 0.97335 0.68945 0.73779 0.0
H1569 H 0.94978 0.69176 0.70414 0.0
H1570 H 0.99299 0.62763 0.68491 0.0
H1571 H 0.96966 0.6272 0.72107 0.0
H1572 H 0.97718 0.68957 0.63763 0.0
H1573 H 0.98956 0.70193 0.68283 0.0
H1574 H 0.9854 0.7113 0.62998 0.0
H1575 H 0.99766 0.72342 0.67439 0.0
H1576 H 0.99746 0.66785 0.63453 0.0
H1577 H 0.9678 0.63736 0.65776 0.0
H1578 H 0.99496 0.65382 0.61339 0.0
H1579 H 0.96574 0.62388 0.63618 0.0
H1580 H 0.03703 0.69732 0.66777 0.0
H1581 H 0.02188 0.70654 0.62968 0.0
H1582 H 0.9282 0.64929 0.64102 0.0
H1583 H 0.95542 0.6543 0.60757 0.0
C1584 C 0.18559 0.3015 0.12874 0.0
C1585 C 0.1848 0.29475 0.11574 0.0
C1586 C 0.17532 0.29791 0.13786 0.0
C1587 C 0.16407 0.2874 0.1343 0.0
C1588 C 0.17356 0.28416 0.11224 0.0
C1589 C 0.16325 0.28058 0.12139 0.0
C1590 C 0.15296 0.28439 0.14315 0.0
C1591 C 0.17851 0.27923 0.17361 0.0
C1592 C 0.18313 0.28792 0.18535 0.0
C1593 C 0.16846 0.27761 0.16507 0.0
C1594 C 0.16286 0.28462 0.16821 0.0
C1595 C 0.17729 0.29466 0.18866 0.0
C1596 C 0.16723 0.29297 0.18025 0.0
C1597 C 0.15259 0.2836 0.15903 0.0
C1598 C 0.10295 0.27852 0.17359 0.0
C1599 C 0.10687 0.28694 0.18562 0.0
C1600 C 0.1115 0.27708 0.16504 0.0
C1601 C 0.12411 0.28406 0.16839 0.0
C1602 C 0.11944 0.29358 0.18921 0.0
C1603 C 0.12794 0.29213 0.18072 0.0
C1604 C 0.13351 0.28332 0.15913 0.0
C1605 C 0.11784 0.30063 0.12917 0.0
C1606 C 0.11104 0.29325 0.11692 0.0
C1607 C 0.12504 0.29749 0.13787 0.0
C1608 C 0.12559 0.28687 0.13457 0.0
C1609 C 0.11163 0.28262 0.11362 0.0
C1610 C 0.11894 0.27952 0.1223 0.0
C1611 C 0.13388 0.28411 0.14325 0.0
H1612 H 0.19414 0.30964 0.1318 0.0
H1613 H 0.17609 0.30356 0.14748 0.0
H1614 H 0.17266 0.27887 0.1022 0.0
H1615 H 0.15459 0.27258 0.11831 0.0
H1616 H 0.18283 0.2739 0.17085 0.0
H1617 H 0.16512 0.27096 0.15598 0.0
H1618 H 0.18051 0.30127 0.19781 0.0
H1619 H 0.16304 0.29844 0.18295 0.0
H1620 H 0.09332 0.27325 0.17061 0.0
H1621 H 0.10829 0.27059 0.15578 0.0
H1622 H 0.12272 0.29993 0.19861 0.0
H1623 H 0.13759 0.29755 0.18361 0.0
H1624 H 0.11788 0.30905 0.13183 0.0
H1625 H 0.13042 0.30352 0.14699 0.0
H1626 H 0.10646 0.27668 0.10434 0.0
H1627 H 0.11938 0.27138 0.11947 0.0
N1628 N 0.14355 0.28452 0.13587 0.0
N1629 N 0.14289 0.28312 0.16637 0.0
C1630 C 0.69827 0.88139 0.12863 0.0
C1631 C 0.70561 0.8875 0.11606 0.0
C1632 C 0.70077 0.87374 0.13741 0.0
C1633 C 0.71077 0.87217 0.13393 0.0
C1634 C 0.71548 0.88571 0.11241 0.0
C1635 C 0.71799 0.87805 0.12125 0.0
C1636 C 0.71319 0.86378 0.14299 0.0
C1637 C 0.71956 0.89528 0.17325 0.0
C1638 C 0.71099 0.89151 0.1851 0.0
C1639 C 0.72073 0.88656 0.16468 0.0
C1640 C 0.71337 0.87397 0.16788 0.0
C1641 C 0.70387 0.87892 0.18844 0.0
C1642 C 0.7051 0.87027 0.17998 0.0
C1643 C 0.71411 0.86447 0.15886 0.0
C1644 C 0.72316 0.82294 0.1745 0.0
C1645 C 0.71432 0.8173 0.18591 0.0
C1646 C 0.72348 0.83237 0.16585 0.0
C1647 C 0.71505 0.83636 0.16865 0.0
C1648 C 0.70607 0.82148 0.18886 0.0
C1649 C 0.70653 0.83102 0.18041 0.0
C1650 C 0.71477 0.84589 0.15926 0.0
C1651 C 0.69972 0.81184 0.13133 0.0
C1652 C 0.70594 0.81295 0.11777 0.0
C1653 C 0.70224 0.82224 0.13965 0.0
C1654 C 0.71133 0.83398 0.13485 0.0
C1655 C 0.71478 0.82469 0.11269 0.0
C1656 C 0.71746 0.83514 0.12119 0.0
C1657 C 0.71363 0.84506 0.14341 0.0
H1658 H 0.69042 0.88233 0.13153 0.0
H1659 H 0.69477 0.86893 0.14681 0.0
H1660 H 0.72132 0.89031 0.10282 0.0
H1661 H 0.72564 0.8768 0.11825 0.0
H1662 H 0.72518 0.90492 0.17046 0.0
H1663 H 0.72735 0.88965 0.15556 0.0
H1664 H 0.69736 0.87576 0.19769 0.0
H1665 H 0.6994 0.86062 0.18273 0.0
H1666 H 0.72962 0.81986 0.17207 0.0
H1667 H 0.73022 0.83649 0.15692 0.0
H1668 H 0.69927 0.81735 0.19772 0.0
H1669 H 0.69998 0.83399 0.18278 0.0
H1670 H 0.69262 0.80292 0.13529 0.0
H1671 H 0.69686 0.82109 0.14968 0.0
H1672 H 0.71964 0.82578 0.10221 0.0
H1673 H 0.72431 0.84411 0.1171 0.0
N1674 N 0.71304 0.85413 0.13586 0.0
N1675 N 0.71484 0.85548 0.16636 0.0
C1676 C 0.11653 0.81836 0.12922 0.0
C1677 C 0.11073 0.8191 0.11609 0.0
C1678 C 0.12307 0.82864 0.13841 0.0
C1679 C 0.12382 0.83984 0.13479 0.0
C1680 C 0.11139 0.83029 0.11253 0.0
C1681 C 0.11798 0.84061 0.12175 0.0
C1682 C 0.13178 0.85101 0.14368 0.0
C1683 C 0.10109 0.82545 0.17461 0.0
C1684 C 0.10519 0.82146 0.18691 0.0
C1685 C 0.10952 0.83523 0.16563 0.0
C1686 C 0.12215 0.84114 0.16885 0.0
C1687 C 0.1178 0.82757 0.19021 0.0
C1688 C 0.12617 0.83732 0.18133 0.0
C1689 C 0.13136 0.85142 0.15955 0.0
C1690 C 0.17285 0.9026 0.17462 0.0
C1691 C 0.1786 0.89943 0.18584 0.0
C1692 C 0.16331 0.89343 0.16602 0.0
C1693 C 0.15935 0.88098 0.16869 0.0
C1694 C 0.17444 0.88697 0.18864 0.0
C1695 C 0.16483 0.87784 0.18024 0.0
C1696 C 0.14965 0.87107 0.15948 0.0
C1697 C 0.18265 0.89048 0.1293 0.0
C1698 C 0.18067 0.89458 0.11549 0.0
C1699 C 0.17277 0.88293 0.13861 0.0
C1700 C 0.16072 0.87965 0.13453 0.0
C1701 C 0.16864 0.89124 0.1113 0.0
C1702 C 0.15875 0.88385 0.12076 0.0
C1703 C 0.15009 0.87067 0.14359 0.0
H1704 H 0.11611 0.80985 0.13233 0.0
H1705 H 0.12782 0.8279 0.14814 0.0
H1706 H 0.10712 0.83118 0.1024 0.0
H1707 H 0.11864 0.84923 0.1186 0.0
H1708 H 0.09142 0.82092 0.17182 0.0
H1709 H 0.10617 0.83817 0.15624 0.0
H1710 H 0.12122 0.82488 0.19979 0.0
H1711 H 0.13585 0.8418 0.18411 0.0
H1712 H 0.17589 0.91215 0.1723 0.0
H1713 H 0.15909 0.89603 0.15727 0.0
H1714 H 0.17862 0.88429 0.19737 0.0
H1715 H 0.16188 0.8683 0.18253 0.0
H1716 H 0.19182 0.89269 0.13261 0.0
H1717 H 0.17456 0.8793 0.14871 0.0
H1718 H 0.16689 0.89426 0.10065 0.0
H1719 H 0.14952 0.88124 0.11722 0.0
N1720 N 0.14107 0.8607 0.13632 0.0
N1721 N 0.14034 0.86141 0.1668 0.0
C1722 C 0.29255 0.11184 0.84412 0.0
C1723 C 0.28329 0.10589 0.83329 0.0
C1724 C 0.29266 0.12083 0.85347 0.0
C1725 C 0.28327 0.12374 0.85253 0.0
C1726 C 0.27399 0.10889 0.83219 0.0
C1727 C 0.27396 0.11772 0.84175 0.0
C1728 C 0.28374 0.13386 0.86161 0.0
C1729 C 0.28324 0.10657 0.89488 0.0
C1730 C 0.29357 0.11149 0.9044 0.0
C1731 C 0.28081 0.11432 0.88609 0.0
C1732 C 0.28879 0.1271 0.88646 0.0
C1733 C 0.30125 0.12432 0.90511 0.0
C1734 C 0.29889 0.13201 0.89625 0.0
C1735 C 0.28672 0.13563 0.87712 0.0
C1736 C 0.28546 0.18191 0.89232 0.0
C1737 C 0.29646 0.18796 0.90057 0.0
C1738 C 0.28232 0.17107 0.88446 0.0
C1739 C 0.29017 0.16616 0.88475 0.0
C1740 C 0.30411 0.18284 0.90108 0.0
C1741 C 0.30096 0.17202 0.89332 0.0
C1742 C 0.2873 0.15487 0.87637 0.0
C1743 C 0.29457 0.18344 0.84136 0.0
C1744 C 0.28479 0.18037 0.83139 0.0
C1745 C 0.29433 0.17464 0.8511 0.0
C1746 C 0.28419 0.16264 0.8513 0.0
C1747 C 0.27468 0.16832 0.83152 0.0
C1748 C 0.27441 0.15953 0.84136 0.0
C1749 C 0.28422 0.15308 0.86094 0.0
H1750 H 0.29997 0.10987 0.84496 0.0
H1751 H 0.30029 0.12573 0.86114 0.0
H1752 H 0.26677 0.10445 0.82387 0.0
H1753 H 0.26675 0.11995 0.84061 0.0
H1754 H 0.27713 0.09673 0.89406 0.0
H1755 H 0.27274 0.11031 0.87896 0.0
H1756 H 0.30909 0.12846 0.91259 0.0
H1757 H 0.3051 0.14184 0.89693 0.0
H1758 H 0.27939 0.18566 0.89176 0.0
H1759 H 0.27382 0.16655 0.87815 0.0
H1760 H 0.31254 0.18718 0.90757 0.0
H1761 H 0.30709 0.16834 0.89382 0.0
H1762 H 0.30262 0.19255 0.84128 0.0
H1763 H 0.30222 0.17716 0.85821 0.0
H1764 H 0.267 0.16569 0.82399 0.0
H1765 H 0.26658 0.15028 0.84117 0.0
N1766 N 0.28247 0.14261 0.85421 0.0
N1767 N 0.28844 0.14609 0.8838 0.0
C1768 C 0.89865 0.17591 0.89449 0.0
C1769 C 0.89427 0.18152 0.90453 0.0
C1770 C 0.89043 0.16587 0.88569 0.0
C1771 C 0.87774 0.16142 0.88666 0.0
C1772 C 0.88155 0.17686 0.90562 0.0
C1773 C 0.87339 0.1669 0.89685 0.0
C1774 C 0.86874 0.15095 0.87746 0.0
C1775 C 0.89141 0.18116 0.84456 0.0
C1776 C 0.89693 0.178 0.83297 0.0
C1777 C 0.88271 0.17212 0.85404 0.0
C1778 C 0.87962 0.15978 0.85242 0.0
C1779 C 0.89374 0.16565 0.83121 0.0
C1780 C 0.88516 0.15663 0.84086 0.0
C1781 C 0.86978 0.14998 0.86171 0.0
C1782 C 0.81926 0.11324 0.84301 0.0
C1783 C 0.82138 0.1062 0.83241 0.0
C1784 C 0.82859 0.12118 0.85275 0.0
C1785 C 0.8402 0.12218 0.85216 0.0
C1786 C 0.83296 0.1071 0.83194 0.0
C1787 C 0.84233 0.11512 0.84165 0.0
C1788 C 0.85036 0.13135 0.86155 0.0
C1789 C 0.82277 0.10298 0.89338 0.0
C1790 C 0.818 0.10775 0.90408 0.0
C1791 C 0.83298 0.11088 0.88463 0.0
C1792 C 0.83846 0.12368 0.88625 0.0
C1793 C 0.82363 0.12054 0.9058 0.0
C1794 C 0.83375 0.12841 0.89702 0.0
C1795 C 0.84933 0.13234 0.87727 0.0
H1796 H 0.90839 0.17921 0.89354 0.0
H1797 H 0.89398 0.1616 0.87817 0.0
H1798 H 0.87789 0.18108 0.91303 0.0
H1799 H 0.86365 0.16362 0.89781 0.0
H1800 H 0.8935 0.19057 0.84595 0.0
H1801 H 0.87816 0.17477 0.86236 0.0
H1802 H 0.89785 0.16298 0.82234 0.0
H1803 H 0.88278 0.14716 0.83921 0.0
H1804 H 0.81041 0.1127 0.84368 0.0
H1805 H 0.82681 0.12677 0.86051 0.0
H1806 H 0.83489 0.10189 0.82376 0.0
H1807 H 0.85128 0.11589 0.84087 0.0
H1808 H 0.81871 0.09315 0.89195 0.0
H1809 H 0.83665 0.10697 0.87673 0.0
H1810 H 0.82007 0.12451 0.91379 0.0
H1811 H 0.83782 0.13824 0.89853 0.0
N1812 N 0.85855 0.14211 0.88454 0.0
N1813 N 0.86058 0.14014 0.85442 0.0
C1814 C 0.81902 0.71787 0.89428 0.0
C1815 C 0.81396 0.70833 0.90492 0.0
C1816 C 0.82951 0.72026 0.88611 0.0
C1817 C 0.83488 0.71291 0.88813 0.0
C1818 C 0.81967 0.70137 0.90742 0.0
C1819 C 0.83001 0.70364 0.89911 0.0
C1820 C 0.8455 0.71465 0.87895 0.0
C1821 C 0.81496 0.70385 0.84577 0.0
C1822 C 0.81713 0.71265 0.83466 0.0
C1823 C 0.82442 0.70527 0.85521 0.0
C1824 C 0.8362 0.71564 0.85397 0.0
C1825 C 0.82893 0.72307 0.83345 0.0
C1826 C 0.83841 0.7245 0.84297 0.0
C1827 C 0.84642 0.71666 0.86322 0.0
C1828 C 0.88453 0.70536 0.84345 0.0
C1829 C 0.89197 0.71526 0.83388 0.0
C1830 C 0.87609 0.70596 0.85314 0.0
C1831 C 0.87495 0.71648 0.85352 0.0
C1832 C 0.89082 0.72581 0.83435 0.0
C1833 C 0.88231 0.72636 0.84399 0.0
C1834 C 0.86543 0.71677 0.86296 0.0
C1835 C 0.89337 0.71635 0.89416 0.0
C1836 C 0.88838 0.70612 0.90384 0.0
C1837 C 0.88565 0.71923 0.886 0.0
C1838 C 0.87283 0.71185 0.88727 0.0
C1839 C 0.87555 0.69899 0.90537 0.0
C1840 C 0.86788 0.70184 0.8972 0.0
C1841 C 0.86433 0.71439 0.8786 0.0
H1842 H 0.81488 0.72348 0.89231 0.0
H1843 H 0.83332 0.72777 0.87812 0.0
H1844 H 0.81591 0.69392 0.91549 0.0
H1845 H 0.83401 0.69788 0.90099 0.0
H1846 H 0.80596 0.69577 0.84707 0.0
H1847 H 0.82256 0.6981 0.86328 0.0
H1848 H 0.83094 0.72992 0.82486 0.0
H1849 H 0.84749 0.73247 0.84165 0.0
H1850 H 0.88493 0.69697 0.84316 0.0
H1851 H 0.87025 0.69807 0.86009 0.0
H1852 H 0.89649 0.73366 0.82726 0.0
H1853 H 0.88147 0.73451 0.84402 0.0
H1854 H 0.90321 0.72202 0.89273 0.0
H1855 H 0.88972 0.7272 0.87873 0.0
H1856 H 0.87141 0.69123 0.91298 0.0
H1857 H 0.85803 0.69607 0.89851 0.0
N1858 N 0.85444 0.7135 0.88594 0.0
N1859 N 0.85645 0.71782 0.85589 0.0
C1860 C 0.76842 0.61746 0.45543 0.0
C1861 C 0.77326 0.62752 0.44548 0.0
C1862 C 0.77622 0.61442 0.46309 0.0
C1863 C 0.78902 0.62153 0.46115 0.0
C1864 C 0.786 0.63412 0.44293 0.0
C1865 C 0.79378 0.63117 0.45068 0.0
C1866 C 0.79769 0.61935 0.47005 0.0
C1867 C 0.77762 0.62951 0.50392 0.0
C1868 C 0.77175 0.62103 0.51566 0.0
C1869 C 0.78561 0.62829 0.49411 0.0
C1870 C 0.78758 0.61829 0.49541 0.0
C1871 C 0.7738 0.61107 0.517 0.0
C1872 C 0.78164 0.60973 0.50698 0.0
C1873 C 0.79678 0.61746 0.48583 0.0
C1874 C 0.84678 0.62998 0.5039 0.0
C1875 C 0.84486 0.62033 0.51357 0.0
C1876 C 0.83736 0.6289 0.49464 0.0
C1877 C 0.82581 0.61815 0.4948 0.0
C1878 C 0.83324 0.60956 0.51369 0.0
C1879 C 0.82377 0.60853 0.50448 0.0
C1880 C 0.81568 0.61734 0.48559 0.0
C1881 C 0.84403 0.61761 0.45482 0.0
C1882 C 0.8493 0.62774 0.44498 0.0
C1883 C 0.83321 0.61457 0.46265 0.0
C1884 C 0.82759 0.62171 0.46096 0.0
C1885 C 0.84329 0.63446 0.44278 0.0
C1886 C 0.83257 0.63148 0.45067 0.0
C1887 C 0.81666 0.61936 0.46989 0.0
H1888 H 0.75864 0.61215 0.45764 0.0
H1889 H 0.77228 0.60669 0.47076 0.0
H1890 H 0.79002 0.64169 0.43503 0.0
H1891 H 0.80359 0.6367 0.44878 0.0
H1892 H 0.77619 0.63722 0.5024 0.0
H1893 H 0.79044 0.63532 0.4857 0.0
H1894 H 0.76967 0.60449 0.52606 0.0
H1895 H 0.78323 0.6021 0.50842 0.0
H1896 H 0.85548 0.63852 0.50375 0.0
H1897 H 0.83902 0.63658 0.48756 0.0
H1898 H 0.83146 0.60191 0.5209 0.0
H1899 H 0.81487 0.60021 0.50486 0.0
H1900 H 0.84842 0.61223 0.45676 0.0
H1901 H 0.82935 0.60674 0.47016 0.0
H1902 H 0.84692 0.64211 0.435 0.0
H1903 H 0.82834 0.63705 0.449 0.0
N1904 N 0.80762 0.62027 0.46278 0.0
N1905 N 0.80575 0.61639 0.49292 0.0
C1906 C 0.36261 0.21758 0.46387 0.0
C1907 C 0.36791 0.2223 0.44973 0.0
C1908 C 0.36596 0.21027 0.47202 0.0
C1909 C 0.3749 0.20776 0.46636 0.0
C1910 C 0.37663 0.21953 0.4439 0.0
C1911 C 0.38007 0.21229 0.45215 0.0
C1912 C 0.3782 0.19972 0.47477 0.0
C1913 C 0.38877 0.23314 0.50333 0.0
C1914 C 0.38321 0.23049 0.51763 0.0
C1915 C 0.38846 0.22377 0.49448 0.0
C1916 C 0.38225 0.21153 0.49959 0.0
C1917 C 0.37744 0.21836 0.52294 0.0
C1918 C 0.37695 0.209 0.51403 0.0
C1919 C 0.38117 0.20122 0.49029 0.0
C1920 C 0.3879 0.15755 0.50338 0.0
C1921 C 0.38154 0.15408 0.51717 0.0
C1922 C 0.38801 0.16686 0.49467 0.0
C1923 C 0.38155 0.17268 0.49949 0.0
C1924 C 0.37538 0.16017 0.52211 0.0
C1925 C 0.37542 0.16938 0.51339 0.0
C1926 C 0.38094 0.18214 0.49026 0.0
C1927 C 0.36179 0.14712 0.46388 0.0
C1928 C 0.36777 0.14738 0.45037 0.0
C1929 C 0.36514 0.15794 0.47177 0.0
C1930 C 0.37465 0.16924 0.46644 0.0
C1931 C 0.37713 0.15875 0.44488 0.0
C1932 C 0.38049 0.16961 0.45282 0.0
C1933 C 0.37807 0.1807 0.47475 0.0
H1934 H 0.35566 0.21933 0.46849 0.0
H1935 H 0.36146 0.20647 0.48268 0.0
H1936 H 0.38087 0.22306 0.43304 0.0
H1937 H 0.38683 0.21029 0.44747 0.0
H1938 H 0.39341 0.24246 0.49907 0.0
H1939 H 0.39301 0.22608 0.48363 0.0
H1940 H 0.37299 0.21605 0.53387 0.0
H1941 H 0.37216 0.19968 0.51831 0.0
H1942 H 0.39287 0.15313 0.49939 0.0
H1943 H 0.39309 0.16946 0.48418 0.0
H1944 H 0.37026 0.15761 0.53258 0.0
H1945 H 0.37039 0.17373 0.51737 0.0
H1946 H 0.35435 0.13856 0.46822 0.0
H1947 H 0.36023 0.15749 0.48201 0.0
H1948 H 0.38193 0.15925 0.43453 0.0
H1949 H 0.38775 0.17827 0.44844 0.0
N1950 N 0.37691 0.18958 0.46758 0.0
N1951 N 0.38236 0.19233 0.49737 0.0
C1952 C 0.78323 0.14799 0.45904 0.0
C1953 C 0.77752 0.14857 0.44576 0.0
C1954 C 0.79014 0.15848 0.46775 0.0
C1955 C 0.79135 0.16977 0.4635 0.0
C1956 C 0.77869 0.15987 0.44151 0.0
C1957 C 0.78565 0.17041 0.45025 0.0
C1958 C 0.79951 0.18103 0.47212 0.0
C1959 C 0.76778 0.15701 0.50242 0.0
C1960 C 0.77113 0.15319 0.51554 0.0
C1961 C 0.77676 0.16637 0.49346 0.0
C1962 C 0.78925 0.17189 0.49734 0.0
C1963 C 0.7836 0.1589 0.51951 0.0
C1964 C 0.79254 0.16816 0.51054 0.0
C1965 C 0.79902 0.18168 0.48799 0.0
C1966 C 0.84347 0.23127 0.50252 0.0
C1967 C 0.84916 0.22732 0.51289 0.0
C1968 C 0.83314 0.22266 0.49445 0.0
C1969 C 0.82833 0.21002 0.49684 0.0
C1970 C 0.84413 0.2147 0.51548 0.0
C1971 C 0.83374 0.20614 0.50765 0.0
C1972 C 0.81803 0.20064 0.48778 0.0
C1973 C 0.85108 0.21888 0.45798 0.0
C1974 C 0.84976 0.22502 0.44558 0.0
C1975 C 0.84087 0.21079 0.46648 0.0
C1976 C 0.82918 0.20888 0.46298 0.0
C1977 C 0.838 0.22282 0.44177 0.0
C1978 C 0.82777 0.21479 0.45042 0.0
C1979 C 0.81836 0.20017 0.47191 0.0
H1980 H 0.78242 0.13941 0.46269 0.0
H1981 H 0.79476 0.15781 0.47767 0.0
H1982 H 0.7745 0.16062 0.43124 0.0
H1983 H 0.78666 0.17908 0.44663 0.0
H1984 H 0.75822 0.15288 0.4992 0.0
H1985 H 0.77393 0.1693 0.48356 0.0
H1986 H 0.78649 0.15604 0.52944 0.0
H1987 H 0.8021 0.17227 0.5138 0.0
H1988 H 0.84719 0.24098 0.50039 0.0
H1989 H 0.82902 0.22583 0.48624 0.0
H1990 H 0.84829 0.21146 0.52356 0.0
H1991 H 0.83015 0.19644 0.50967 0.0
H1992 H 0.85998 0.22015 0.46094 0.0
H1993 H 0.84213 0.20592 0.4757 0.0
H1994 H 0.83673 0.22741 0.43223 0.0
H1995 H 0.81878 0.21326 0.44737 0.0
N1996 N 0.80907 0.19039 0.46467 0.0
N1997 N 0.80837 0.1914 0.49518 0.0
C1998 C 0.98065 0.52604 0.17574 0.0
C1999 C 0.98729 0.5299 0.16217 0.0
C2000 C 0.982 0.518 0.18533 0.0
C2001 C 0.99021 0.5139 0.18166 0.0
C2002 C 0.99542 0.52571 0.15849 0.0
C2003 C 0.99684 0.51778 0.16812 0.0
C2004 C 0.99149 0.50503 0.19131 0.0
C2005 C 0.0045 0.53884 0.21996 0.0
C2006 C 0.99791 0.53704 0.23344 0.0
C2007 C 0.00274 0.52881 0.21129 0.0
C2008 C 0.99419 0.51679 0.21577 0.0
C2009 C 0.98945 0.52497 0.23797 0.0
C2010 C 0.98764 0.51495 0.22924 0.0
C2011 C 0.99269 0.50605 0.20715 0.0
C2012 C 0.00607 0.46842 0.22384 0.0
C2013 C 0.998 0.4624 0.23588 0.0
C2014 C 0.0044 0.47644 0.21465 0.0
C2015 C 0.99467 0.4786 0.21742 0.0
C2016 C 0.9883 0.46462 0.23866 0.0
C2017 C 0.98674 0.47278 0.22959 0.0
C2018 C 0.99301 0.48729 0.20802 0.0
C2019 C 0.98243 0.454 0.17916 0.0
C2020 C 0.98939 0.45638 0.16591 0.0
C2021 C 0.98329 0.46368 0.18784 0.0
C2022 C 0.99128 0.47593 0.18355 0.0
C2023 C 0.99735 0.46864 0.16163 0.0
C2024 C 0.99825 0.4783 0.17034 0.0
C2025 C 0.99195 0.48632 0.1922 0.0
H2026 H 0.97419 0.52899 0.17874 0.0
H2027 H 0.97647 0.51484 0.19546 0.0
H2028 H 0.00076 0.52863 0.14819 0.0
H2029 H 0.00317 0.51469 0.16499 0.0
H2030 H 0.01103 0.54801 0.21609 0.0
H2031 H 0.00821 0.53048 0.2012 0.0
H2032 H 0.98438 0.52324 0.24841 0.0
H2033 H 0.98115 0.50575 0.23305 0.0
H2034 H 0.01359 0.46682 0.22144 0.0
H2035 H 0.01075 0.48103 0.20546 0.0
H2036 H 0.98204 0.46018 0.24796 0.0
H2037 H 0.97925 0.47444 0.23198 0.0
H2038 H 0.97606 0.44465 0.1826 0.0
H2039 H 0.97749 0.46157 0.19769 0.0
H2040 H 0.00292 0.47077 0.15155 0.0
H2041 H 0.00443 0.48767 0.16676 0.0
N2042 N 0.99126 0.49525 0.18447 0.0
N2043 N 0.99329 0.49707 0.21489 0.0
C2044 C 0.4862 0.43904 0.1789 0.0
C2045 C 0.48132 0.44281 0.16723 0.0
C2046 C 0.49625 0.44774 0.18727 0.0
C2047 C 0.50158 0.46032 0.18405 0.0
C2048 C 0.48685 0.45539 0.16388 0.0
C2049 C 0.49691 0.46404 0.17214 0.0
C2050 C 0.51203 0.46977 0.19288 0.0
C2051 C 0.47963 0.45389 0.22415 0.0
C2052 C 0.4807 0.44745 0.23641 0.0
C2053 C 0.48977 0.4612 0.21507 0.0
C2054 C 0.50117 0.46216 0.21797 0.0
C2055 C 0.49213 0.44844 0.23933 0.0
C2056 C 0.50232 0.45583 0.23026 0.0
C2057 C 0.51202 0.47037 0.20876 0.0
C2058 C 0.55199 0.52175 0.22083 0.0
C2059 C 0.5569 0.52019 0.23426 0.0
C2060 C 0.54384 0.51159 0.21229 0.0
C2061 C 0.54072 0.49966 0.21673 0.0
C2062 C 0.55359 0.50826 0.23892 0.0
C2063 C 0.54557 0.49808 0.23021 0.0
C2064 C 0.53153 0.48882 0.20813 0.0
C2065 C 0.56309 0.51048 0.17638 0.0
C2066 C 0.56002 0.51634 0.16519 0.0
C2067 C 0.55387 0.50118 0.18517 0.0
C2068 C 0.54148 0.49754 0.18274 0.0
C2069 C 0.54761 0.51252 0.16263 0.0
C2070 C 0.53842 0.50311 0.17122 0.0
C2071 C 0.53159 0.48811 0.19224 0.0
H2072 H 0.48212 0.4294 0.1817 0.0
H2073 H 0.49985 0.44464 0.19624 0.0
H2074 H 0.48343 0.45855 0.15477 0.0
H2075 H 0.50093 0.47369 0.16939 0.0
H2076 H 0.47093 0.45324 0.22156 0.0
H2077 H 0.48874 0.46625 0.20588 0.0
H2078 H 0.49326 0.44368 0.2488 0.0
H2079 H 0.51109 0.4566 0.23281 0.0
H2080 H 0.55414 0.53082 0.21718 0.0
H2081 H 0.53975 0.51309 0.20241 0.0
H2082 H 0.55722 0.50683 0.24928 0.0
H2083 H 0.5431 0.48895 0.23403 0.0
H2084 H 0.57261 0.51328 0.17853 0.0
H2085 H 0.55641 0.49689 0.1939 0.0
H2086 H 0.54501 0.5168 0.15393 0.0
H2087 H 0.52891 0.5004 0.16912 0.0
N2088 N 0.5218 0.47869 0.18524 0.0
N2089 N 0.52179 0.47983 0.21579 0.0
C2090 C 0.46676 0.00828 0.22562 0.0
C2091 C 0.45917 0.99718 0.23316 0.0
C2092 C 0.47686 0.00982 0.21729 0.0
C2093 C 0.47956 0.00029 0.21646 0.0
C2094 C 0.46197 0.9877 0.23241 0.0
C2095 C 0.47217 0.9893 0.22426 0.0
C2096 C 0.4902 0.00177 0.20772 0.0
C2097 C 0.46192 0.99874 0.17473 0.0
C2098 C 0.46599 0.00858 0.16462 0.0
C2099 C 0.47033 0.99748 0.18369 0.0
C2100 C 0.48292 0.00627 0.18306 0.0
C2101 C 0.4786 0.01721 0.16371 0.0
C2102 C 0.48698 0.01608 0.17287 0.0
C2103 C 0.49201 0.005 0.19231 0.0
C2104 C 0.53489 0.99845 0.17634 0.0
C2105 C 0.54128 0.00838 0.1664 0.0
C2106 C 0.52508 0.99737 0.18491 0.0
C2107 C 0.52159 0.00633 0.18398 0.0
C2108 C 0.53764 0.01724 0.16532 0.0
C2109 C 0.52787 0.01619 0.17399 0.0
C2110 C 0.51104 0.00516 0.1928 0.0
C2111 C 0.53922 0.00951 0.22695 0.0
C2112 C 0.53551 0.99911 0.23605 0.0
C2113 C 0.53072 0.01049 0.21785 0.0
C2114 C 0.51838 0.00103 0.21761 0.0
C2115 C 0.52312 0.98974 0.23594 0.0
C2116 C 0.51462 0.99074 0.22688 0.0
C2117 C 0.50925 0.00204 0.20825 0.0
H2118 H 0.46477 0.01571 0.226 0.0
H2119 H 0.48258 0.01843 0.21152 0.0
H2120 H 0.45633 0.97911 0.23827 0.0
H2121 H 0.47418 0.98189 0.22385 0.0
H2122 H 0.45228 0.99181 0.17539 0.0
H2123 H 0.46696 0.98951 0.1909 0.0
H2124 H 0.48196 0.02487 0.15596 0.0
H2125 H 0.49665 0.02289 0.17202 0.0
H2126 H 0.53748 0.99149 0.17755 0.0
H2127 H 0.52016 0.98944 0.19214 0.0
H2128 H 0.54218 0.02487 0.15758 0.0
H2129 H 0.52523 0.02312 0.17291 0.0
H2130 H 0.54872 0.01685 0.22674 0.0
H2131 H 0.53378 0.01865 0.21106 0.0
H2132 H 0.51996 0.9817 0.243 0.0
H2133 H 0.50511 0.98342 0.22701 0.0
N2134 N 0.49885 0.00036 0.21506 0.0
N2135 N 0.50239 0.00662 0.18548 0.0
C2136 C 0.53828 0.00394 0.79654 0.0
C2137 C 0.53576 0.99715 0.78311 0.0
C2138 C 0.52872 0.00278 0.80569 0.0
C2139 C 0.51644 0.99457 0.8018 0.0
C2140 C 0.52344 0.98906 0.77914 0.0
C2141 C 0.51389 0.98782 0.78838 0.0
C2142 C 0.5062 0.99363 0.81101 0.0
C2143 C 0.52663 0.98127 0.84112 0.0
C2144 C 0.5327 0.98957 0.85296 0.0
C2145 C 0.51781 0.98217 0.83256 0.0
C2146 C 0.5149 0.99134 0.83578 0.0
C2147 C 0.52965 0.99863 0.85624 0.0
C2148 C 0.52075 -0.00057 0.84781 0.0
C2149 C 0.50567 0.9925 0.82685 0.0
C2150 C 0.45523 0.98422 0.84131 0.0
C2151 C 0.45798 0.99127 0.85454 0.0
C2152 C 0.46465 0.98477 0.83239 0.0
C2153 C 0.47701 0.99258 0.83639 0.0
C2154 C 0.47034 0.9989 0.85864 0.0
C2155 C 0.47975 -0.00049 0.84968 0.0
C2156 C 0.48714 0.99329 0.82714 0.0
C2157 C 0.46801 0.00766 0.79828 0.0
C2158 C 0.46319 0.00125 0.78471 0.0
C2159 C 0.47602 0.00557 0.80693 0.0
C2160 C 0.47912 0.99678 0.80241 0.0
C2161 C 0.46658 0.99268 0.78002 0.0
C2162 C 0.47447 0.99049 0.78878 0.0
C2163 C 0.48777 0.99461 0.8113 0.0
H2164 H 0.54764 0.01019 0.80001 0.0
H2165 H 0.53096 0.00845 0.81569 0.0
H2166 H 0.52116 0.98386 0.76874 0.0
H2167 H 0.50448 0.9816 0.785 0.0
H2168 H 0.52883 0.9742 0.83837 0.0
H2169 H 0.51325 0.9757 0.82346 0.0
H2170 H 0.53407 0.00503 0.86544 0.0
H2171 H 0.51855 0.0065 0.85054 0.0
H2172 H 0.44578 0.9781 0.83801 0.0
H2173 H 0.46228 0.97904 0.82243 0.0
H2174 H 0.47275 0.00452 0.86871 0.0
H2175 H 0.48921 0.00553 0.85304 0.0
H2176 H 0.46555 0.01426 0.80232 0.0
H2177 H 0.47983 0.0109 0.81711 0.0
H2178 H 0.46328 0.98776 0.76948 0.0
H2179 H 0.47693 0.98383 0.78491 0.0
N2180 N 0.4972 0.9946 0.80387 0.0
N2181 N 0.49619 0.99241 0.8343 0.0
C2182 C 0.99126 0.53134 0.79821 0.0
C2183 C 0.99837 0.53674 0.78524 0.0
C2184 C 0.99278 0.52283 0.80655 0.0
C2185 C 0.0016 0.5197 0.80225 0.0
C2186 C 0.00698 0.53336 0.78074 0.0
C2187 C 0.00854 0.52488 0.78915 0.0
C2188 C 0.00324 0.51064 0.81098 0.0
C2189 C 0.01468 0.54323 0.84111 0.0
C2190 C 0.00707 0.54076 0.85378 0.0
C2191 C 0.01391 0.53361 0.83238 0.0
C2192 C 0.00543 0.52135 0.83609 0.0
C2193 C 0.9988 0.52846 0.85764 0.0
C2194 C 0.99805 0.51886 0.84892 0.0
C2195 C 0.00439 0.51107 0.82684 0.0
C2196 C 0.01679 0.47207 0.84026 0.0
C2197 C 0.00856 0.46563 0.852 0.0
C2198 C 0.01541 0.48062 0.83177 0.0
C2199 C 0.00584 0.48294 0.83499 0.0
C2200 C 0.99895 0.46792 0.85515 0.0
C2201 C 0.99769 0.47662 0.84682 0.0
C2202 C 0.00455 0.49223 0.82636 0.0
C2203 C 0.99183 0.45961 0.79591 0.0
C2204 C -0.0004 0.46178 0.78348 0.0
C2205 C 0.99315 0.46937 0.80478 0.0
C2206 C 0.00227 0.48147 0.8014 0.0
C2207 C 0.00866 0.47391 0.78005 0.0
C2208 C 0.0099 0.48369 0.78887 0.0
C2209 C 0.00352 0.49186 0.81052 0.0
H2210 H 0.98436 0.53356 0.80177 0.0
H2211 H 0.98699 0.51862 0.81631 0.0
H2212 H 0.01262 0.5374 0.77083 0.0
H2213 H 0.0153 0.52249 0.78553 0.0
H2214 H 0.02112 0.5526 0.83782 0.0
H2215 H 0.01992 0.53576 0.82273 0.0
H2216 H 0.99298 0.52625 0.86749 0.0
H2217 H 0.99156 0.50946 0.85209 0.0
H2218 H 0.02426 0.47045 0.83762 0.0
H2219 H 0.02189 0.48553 0.82281 0.0
H2220 H 0.99257 0.46315 0.86425 0.0
H2221 H 0.99031 0.47835 0.84952 0.0
H2222 H 0.98481 0.45035 0.79885 0.0
H2223 H 0.98697 0.46747 0.81419 0.0
H2224 H 0.01467 0.47585 0.77044 0.0
H2225 H 0.0169 0.49298 0.78598 0.0
N2226 N 0.00295 0.5011 0.80342 0.0
N2227 N 0.0049 0.50178 0.83394 0.0
C2228 C 0.51273 0.56038 0.79008 0.0
C2229 C 0.51798 0.55573 0.77993 0.0
C2230 C 0.50237 0.55237 0.79852 0.0
C2231 C 0.49731 0.53958 0.79725 0.0
C2232 C 0.5126 0.54296 0.77821 0.0
C2233 C 0.50237 0.53498 0.78679 0.0
C2234 C 0.48676 0.53084 0.80661 0.0
C2235 C 0.5171 0.55309 0.83945 0.0
C2236 C 0.51456 0.56012 0.84961 0.0
C2237 C 0.5078 0.54419 0.83042 0.0
C2238 C 0.49582 0.54225 0.8312 0.0
C2239 C 0.50253 0.55809 0.85044 0.0
C2240 C 0.49323 0.54919 0.84137 0.0
C2241 C 0.48581 0.53238 0.82224 0.0
C2242 C 0.44776 0.48308 0.84318 0.0
C2243 C 0.44039 0.48574 0.85262 0.0
C2244 C 0.45621 0.49196 0.83335 0.0
C2245 C 0.45745 0.50366 0.8327 0.0
C2246 C 0.44164 0.49748 0.85186 0.0
C2247 C 0.45017 0.50639 0.84209 0.0
C2248 C 0.46691 0.51329 0.823 0.0
C2249 C 0.43835 0.48431 0.79295 0.0
C2250 C 0.44298 0.47898 0.7829 0.0
C2251 C 0.44635 0.49507 0.80077 0.0
C2252 C 0.45914 0.50049 0.79896 0.0
C2253 C 0.45573 0.48463 0.78075 0.0
C2254 C 0.46371 0.49526 0.78869 0.0
C2255 C 0.46792 0.51166 0.80742 0.0
H2256 H 0.51661 0.5702 0.79143 0.0
H2257 H 0.49839 0.55618 0.80609 0.0
H2258 H 0.51651 0.53914 0.77054 0.0
H2259 H 0.4986 0.52517 0.7855 0.0
H2260 H 0.5262 0.55422 0.83877 0.0
H2261 H 0.50994 0.53866 0.82304 0.0
H2262 H 0.50029 0.5634 0.8581 0.0
H2263 H 0.48401 0.54773 0.84228 0.0
H2264 H 0.44727 0.47425 0.84368 0.0
H2265 H 0.46198 0.48977 0.82648 0.0
H2266 H 0.43603 0.4998 0.85884 0.0
H2267 H 0.45107 0.51541 0.84182 0.0
H2268 H 0.42854 0.48023 0.79464 0.0
H2269 H 0.44253 0.49914 0.80818 0.0
H2270 H 0.45956 0.48067 0.77315 0.0
H2271 H 0.47352 0.49929 0.787 0.0
N2272 N 0.47781 0.52051 0.79988 0.0
N2273 N 0.47585 0.52361 0.82979 0.0
C2274 C 0.6262 0.77579 0.51418 0.0
C2275 C 0.61661 0.76893 0.50399 0.0
C2276 C 0.62591 0.78461 0.52345 0.0
C2277 C 0.61592 0.78663 0.52291 0.0
C2278 C 0.60664 0.77101 0.50341 0.0
C2279 C 0.60633 0.77983 0.51275 0.0
C2280 C 0.61601 0.79653 0.53199 0.0
C2281 C 0.61495 0.76847 0.56402 0.0
C2282 C 0.62548 0.77313 0.57315 0.0
C2283 C 0.61242 0.77646 0.5559 0.0
C2284 C 0.62047 0.78922 0.55664 0.0
C2285 C 0.63329 0.78592 0.57417 0.0
C2286 C 0.63077 0.79386 0.56607 0.0
C2287 C 0.61849 0.79793 0.54761 0.0
C2288 C 0.61887 0.84546 0.56165 0.0
C2289 C 0.62906 0.85061 0.57139 0.0
C2290 C 0.61553 0.83453 0.55392 0.0
C2291 C 0.62242 0.82864 0.55565 0.0
C2292 C 0.63561 0.84441 0.57351 0.0
C2293 C 0.63232 0.83356 0.56575 0.0
C2294 C 0.61953 0.81738 0.5471 0.0
C2295 C 0.63112 0.84674 0.5119 0.0
C2296 C 0.62181 0.84488 0.50172 0.0
C2297 C 0.62946 0.83745 0.52181 0.0
C2298 C 0.6184 0.82615 0.52184 0.0
C2299 C 0.61068 0.83361 0.50188 0.0
C2300 C 0.60905 0.82426 0.51177 0.0
C2301 C 0.6171 0.81601 0.53147 0.0
H2302 H 0.63416 0.77463 0.51466 0.0
H2303 H 0.63365 0.79006 0.53078 0.0
H2304 H 0.59909 0.76585 0.49572 0.0
H2305 H 0.59863 0.78137 0.512 0.0
H2306 H 0.60866 0.75867 0.56317 0.0
H2307 H 0.60424 0.77266 0.54899 0.0
H2308 H 0.64157 0.78982 0.5809 0.0
H2309 H 0.63711 0.80366 0.56684 0.0
H2310 H 0.61363 0.85001 0.55976 0.0
H2311 H 0.60763 0.83074 0.54653 0.0
H2312 H 0.64332 0.84796 0.58119 0.0
H2313 H 0.6377 0.82913 0.56742 0.0
H2314 H 0.63976 0.85536 0.51208 0.0
H2315 H 0.63693 0.83901 0.52922 0.0
H2316 H 0.60341 0.83188 0.49404 0.0
H2317 H 0.60053 0.81553 0.51148 0.0
N2318 N 0.61532 0.80559 0.52455 0.0
N2319 N 0.62017 0.8083 0.5545 0.0
C2320 C 0.15514 0.77081 0.51766 0.0
C2321 C 0.15176 0.77496 0.50486 0.0
C2322 C 0.16456 0.77919 0.5271 0.0
C2323 C 0.17056 0.79186 0.52403 0.0
C2324 C 0.15785 0.78761 0.50178 0.0
C2325 C 0.16714 0.79594 0.51123 0.0
C2326 C 0.1806 0.80105 0.53365 0.0
C2327 C 0.14721 0.78424 0.56326 0.0
C2328 C 0.1479 0.77765 0.5756 0.0
C2329 C 0.15763 0.79172 0.55469 0.0
C2330 C 0.16894 0.79267 0.55816 0.0
C2331 C 0.15925 0.77862 0.57909 0.0
C2332 C 0.16971 0.78617 0.57051 0.0
C2333 C 0.18008 0.80114 0.54956 0.0
C2334 C 0.21756 0.85251 0.56424 0.0
C2335 C 0.22431 0.85144 0.57611 0.0
C2336 C 0.20942 0.84223 0.5559 0.0
C2337 C 0.20797 0.83066 0.5591 0.0
C2338 C 0.22258 0.83978 0.57962 0.0
C2339 C 0.21442 0.82945 0.57119 0.0
C2340 C 0.19934 0.81986 0.5501 0.0
C2341 C 0.231 0.84472 0.52008 0.0
C2342 C 0.22748 0.85027 0.50897 0.0
C2343 C 0.22208 0.83467 0.52826 0.0
C2344 C 0.20953 0.83 0.52534 0.0
C2345 C 0.21494 0.8454 0.5059 0.0
C2346 C 0.20607 0.83531 0.51392 0.0
C2347 C 0.19985 0.81977 0.53422 0.0
H2348 H 0.15067 0.76109 0.5202 0.0
H2349 H 0.16723 0.77575 0.53666 0.0
H2350 H 0.15534 0.7911 0.49212 0.0
H2351 H 0.17159 0.80565 0.5086 0.0
H2352 H 0.13858 0.7836 0.56021 0.0
H2353 H 0.15688 0.79692 0.54546 0.0
H2354 H 0.16009 0.77376 0.58864 0.0
H2355 H 0.17841 0.78695 0.57351 0.0
H2356 H 0.21842 0.86129 0.56152 0.0
H2357 H 0.2042 0.84331 0.54696 0.0
H2358 H 0.22766 0.83867 0.58871 0.0
H2359 H 0.21327 0.82056 0.57396 0.0
H2360 H 0.24062 0.84829 0.52262 0.0
H2361 H 0.22496 0.83059 0.53689 0.0
H2362 H 0.21198 0.84938 0.49723 0.0
H2363 H 0.19645 0.83183 0.51144 0.0
N2364 N 0.19046 0.8104 0.52665 0.0
N2365 N 0.18952 0.8105 0.55719 0.0
C2366 C 0.23403 0.38989 0.51401 0.0
C2367 C 0.2311 0.38449 0.49963 0.0
C2368 C 0.22483 0.38955 0.52328 0.0
C2369 C 0.2125 0.38341 0.51849 0.0
C2370 C 0.21888 0.3787 0.49471 0.0
C2371 C 0.20969 0.37812 0.50404 0.0
C2372 C 0.20236 0.38258 0.52798 0.0
C2373 C 0.21826 0.36413 0.55568 0.0
C2374 C 0.22276 0.36939 0.5699 0.0
C2375 C 0.21147 0.36783 0.54702 0.0
C2376 C 0.20928 0.3771 0.55223 0.0
C2377 C 0.22054 0.37866 0.57512 0.0
C2378 C 0.2138 0.38242 0.56638 0.0
C2379 C 0.2012 0.38027 0.54368 0.0
C2380 C 0.14863 0.36321 0.55569 0.0
C2381 C 0.14898 0.36986 0.56861 0.0
C2382 C 0.15935 0.36641 0.54764 0.0
C2383 C 0.17062 0.37645 0.55217 0.0
C2384 C 0.16034 0.37971 0.57338 0.0
C2385 C 0.17108 0.38295 0.56525 0.0
C2386 C 0.18197 0.37974 0.54367 0.0
C2387 C 0.15673 0.38563 0.51347 0.0
C2388 C 0.15281 0.37754 0.5011 0.0
C2389 C 0.16675 0.38734 0.52216 0.0
C2390 C 0.17295 0.38098 0.51856 0.0
C2391 C 0.15934 0.37159 0.49724 0.0
C2392 C 0.16932 0.37334 0.50583 0.0
C2393 C 0.183 0.38179 0.52798 0.0
H2394 H 0.24344 0.39451 0.51796 0.0
H2395 H 0.22739 0.39411 0.53412 0.0
H2396 H 0.21638 0.37439 0.48371 0.0
H2397 H 0.20031 0.37337 0.49997 0.0
H2398 H 0.2199 0.35706 0.55124 0.0
H2399 H 0.20773 0.36326 0.53638 0.0
H2400 H 0.22372 0.38277 0.58611 0.0
H2401 H 0.21199 0.3894 0.57076 0.0
H2402 H 0.14009 0.35539 0.55193 0.0
H2403 H 0.15884 0.36097 0.5379 0.0
H2404 H 0.1609 0.385 0.58329 0.0
H2405 H 0.17973 0.3906 0.56906 0.0
H2406 H 0.15188 0.39036 0.51662 0.0
H2407 H 0.16954 0.39347 0.53177 0.0
H2408 H 0.15668 0.36551 0.48759 0.0
H2409 H 0.174 0.36841 0.50276 0.0
N2410 N 0.19316 0.38317 0.52084 0.0
N2411 N 0.19114 0.37913 0.55092 0.0
C2412 C 0.98752 0.37363 0.08948 0.0
C2413 C 0.98735 0.37609 0.07407 0.0
C2414 C 0.98642 0.38105 0.1004 0.0
C2415 C 0.97658 0.40408 0.10558 0.0
H2416 H 0.9989 0.41493 0.13958 0.0
C2417 C 0.98721 0.44671 0.14058 0.0
C2418 C 0.9881 0.44615 0.15629 0.0
C2419 C 0.98605 0.43716 0.13144 0.0
C2420 C 0.99248 0.41184 0.13027 0.0
H2421 H 0.986 0.38836 0.05809 0.0
H2422 H 0.98408 0.40124 0.07705 0.0
H2423 H 0.99863 0.39986 0.122 0.0
H2424 H 0.9885 0.43512 0.17476 0.0
H2425 H 0.98643 0.41834 0.15872 0.0
H2426 H 0.97064 0.41627 0.11366 0.0
C2427 C 0.98482 0.39344 0.08073 0.0
C2428 C 0.99232 0.40319 0.12021 0.0
C2429 C 0.98592 0.38604 0.06984 0.0
C2430 C 0.98775 0.43577 0.16268 0.0
C2431 C 0.98667 0.42622 0.15351 0.0
C2432 C 0.97678 0.41273 0.11561 0.0
C2433 C 0.98512 0.39108 0.09614 0.0
C2434 C 0.98451 0.39938 0.1076 0.0
C2435 C 0.98579 0.42682 0.13779 0.0
C2436 C 0.98488 0.41687 0.12791 0.0
H2437 H 0.98849 0.36595 0.0931 0.0
H2438 H 0.98655 0.37891 0.11218 0.0
H2439 H 0.97029 0.40115 0.09616 0.0
H2440 H 0.98731 0.45452 0.13534 0.0
H2441 H 0.98554 0.43796 0.11935 0.0
C2442 C 0.61946 0.60286 0.08296 0.0
C2443 C 0.62544 0.60114 0.07062 0.0
C2444 C 0.61425 0.59397 0.09423 0.0
C2445 C 0.60276 0.56093 0.10107 0.0
H2446 H 0.60097 0.57008 0.14235 0.0
C2447 C 0.5786 0.52509 0.14849 0.0
C2448 C 0.56966 0.52653 0.15621 0.0
C2449 C 0.58706 0.53442 0.13904 0.0
C2450 C 0.60144 0.56741 0.13087 0.0
H2451 H 0.631 0.58898 0.06062 0.0
H2452 H 0.62216 0.57356 0.08052 0.0
H2453 H 0.61302 0.58603 0.12392 0.0
H2454 H 0.56282 0.53894 0.16073 0.0
H2455 H 0.57771 0.55531 0.14443 0.0
H2456 H 0.59116 0.54229 0.10813 0.0
C2457 C 0.62123 0.58163 0.08132 0.0
C2458 C 0.60827 0.57654 0.12028 0.0
C2459 C 0.62633 0.59047 0.06994 0.0
C2460 C 0.56959 0.5376 0.1548 0.0
C2461 C 0.57815 0.54698 0.14558 0.0
C2462 C 0.59606 0.55181 0.11172 0.0
C2463 C 0.61499 0.58319 0.09353 0.0
C2464 C 0.60879 0.57344 0.10515 0.0
C2465 C 0.58684 0.54541 0.13742 0.0
C2466 C 0.59512 0.55498 0.12664 0.0
H2467 H 0.61849 0.61091 0.08367 0.0
H2468 H 0.60931 0.59541 0.10326 0.0
H2469 H 0.60279 0.55818 0.08952 0.0
H2470 H 0.57879 0.51661 0.14937 0.0
H2471 H 0.5937 0.53302 0.13291 0.0
C2472 C 0.39839 0.0089 0.06698 0.0
C2473 C 0.38883 0.01101 0.07123 0.0
C2474 C 0.40649 0.00894 0.07766 0.0
C2475 C 0.41769 0.01837 0.11686 0.0
H2476 H 0.4297 0.99571 0.11079 0.0
C2477 C 0.44636 0.00866 0.16045 0.0
C2478 C 0.45715 0.00953 0.15459 0.0
C2479 C 0.43784 0.00918 0.15084 0.0
C2480 C 0.42645 0.00212 0.11258 0.0
H2481 H 0.38047 0.01494 0.09024 0.0
H2482 H 0.39431 0.01445 0.10901 0.0
H2483 H 0.41485 0.99563 0.09327 0.0
H2484 H 0.46751 0.01157 0.13422 0.0
H2485 H 0.45249 0.01222 0.1174 0.0
H2486 H 0.42916 0.02454 0.13652 0.0
C2487 C 0.39568 0.01304 0.0973 0.0
C2488 C 0.41799 0.00214 0.1025 0.0
C2489 C 0.38763 0.01316 0.08654 0.0
C2490 C 0.4593 0.01097 0.13901 0.0
C2491 C 0.45069 0.01126 0.1294 0.0
C2492 C 0.42603 0.01819 0.1271 0.0
C2493 C 0.40517 0.01085 0.093 0.0
C2494 C 0.41365 0.01041 0.10433 0.0
C2495 C 0.43987 0.01032 0.13522 0.0
C2496 C 0.43061 0.01019 0.1249 0.0
H2497 H 0.39952 0.00696 0.0554 0.0
H2498 H 0.41382 0.00747 0.07383 0.0
H2499 H 0.41466 0.02495 0.11857 0.0
H2500 H 0.44453 0.0076 0.17244 0.0
H2501 H 0.42953 0.00839 0.15557 0.0
C2502 C 0.38479 0.98621 0.94853 0.0
C2503 C 0.37508 0.9878 0.94362 0.0
C2504 C 0.39332 0.98647 0.93828 0.0
C2505 C 0.3984 0.9827 0.89842 0.0
H2506 H 0.43279 0.00202 0.90945 0.0
C2507 C 0.43796 0.99086 0.8578 0.0
C2508 C 0.44802 0.99059 0.86418 0.0
C2509 C 0.42877 0.99055 0.86699 0.0
C2510 C 0.42322 0.99647 0.90626 0.0
H2511 H 0.36654 0.99064 0.92407 0.0
H2512 H 0.38154 0.99108 0.90605 0.0
H2513 H 0.41716 0.00125 0.92634 0.0
H2514 H 0.45615 0.98938 0.88512 0.0
H2515 H 0.4401 0.98869 0.90113 0.0
H2516 H 0.40447 0.97778 0.87842 0.0
C2517 C 0.38248 0.98961 0.91787 0.0
C2518 C 0.41428 0.99605 0.91593 0.0
C2519 C 0.37397 0.98944 0.92817 0.0
C2520 C 0.44862 0.98982 0.8799 0.0
C2521 C 0.43943 0.98945 0.88907 0.0
C2522 C 0.40737 0.98306 0.88875 0.0
C2523 C 0.39233 0.98829 0.92287 0.0
C2524 C 0.40177 0.98907 0.9122 0.0
C2525 C 0.42945 0.98992 0.88275 0.0
C2526 C 0.41988 0.98985 0.89265 0.0
H2527 H 0.38599 0.98509 0.96038 0.0
H2528 H 0.40073 0.98528 0.94244 0.0
H2529 H 0.38881 0.97718 0.89531 0.0
H2530 H 0.43732 0.99157 0.84572 0.0
H2531 H 0.42128 0.99106 0.86178 0.0
C2532 C 0.00694 0.38661 0.93315 0.0
C2533 C 0.01587 0.39098 0.94452 0.0
C2534 C 0.00711 0.39457 0.9221 0.0
C2535 C 0.01988 0.42794 0.91502 0.0
H2536 H 0.00702 0.41655 0.87489 0.0
C2537 C 0.02162 0.4603 0.86781 0.0
C2538 C 0.01018 0.45679 0.86125 0.0
C2539 C 0.02302 0.45218 0.87716 0.0
C2540 C 0.01062 0.41982 0.88607 0.0
H2541 H 0.0323 0.40687 0.95295 0.0
H2542 H 0.03303 0.4207 0.93325 0.0
H2543 H 0.00874 0.4026 0.89243 0.0
H2544 H 0.99136 0.442 0.85888 0.0
H2545 H 0.99388 0.42766 0.87504 0.0
H2546 H 0.02198 0.44525 0.90843 0.0
C2547 C 0.02559 0.41125 0.93312 0.0
C2548 C 0.01155 0.41183 0.89618 0.0
C2549 C 0.02526 0.40333 0.94434 0.0
C2550 C 0.00025 0.44492 0.86389 0.0
C2551 C 0.00171 0.43672 0.87302 0.0
C2552 C 0.01915 0.43598 0.90483 0.0
C2553 C 0.01636 0.40705 0.92202 0.0
C2554 C 0.01606 0.41574 0.91087 0.0
C2555 C 0.01307 0.44034 0.87988 0.0
C2556 C 0.01439 0.43195 0.89033 0.0
H2557 H -0.00047 0.37714 0.93318 0.0
H2558 H -0.00027 0.391 0.91395 0.0
H2559 H 0.02314 0.43126 0.92629 0.0
H2560 H 0.02939 0.46943 0.86601 0.0
H2561 H 0.03187 0.45515 0.8823 0.0
C2562 C 0.58733 0.61864 0.94911 0.0
C2563 C 0.59984 0.62531 0.94519 0.0
C2564 C 0.57834 0.61289 0.93803 0.0
C2565 C 0.57405 0.6006 0.89949 0.0
H2566 H 0.54287 0.5997 0.90224 0.0
C2567 C 0.53639 0.57668 0.85433 0.0
C2568 C 0.52436 0.56915 0.85971 0.0
C2569 C 0.54576 0.58464 0.86406 0.0
C2570 C 0.5515 0.59981 0.90137 0.0
H2571 H 0.61269 0.63149 0.9265 0.0
H2572 H 0.59698 0.62144 0.90713 0.0
H2573 H 0.55902 0.61167 0.9205 0.0
H2574 H 0.51273 0.56416 0.87953 0.0
H2575 H 0.52905 0.57804 0.89649 0.0
H2576 H 0.56649 0.5886 0.88051 0.0
C2577 C 0.59414 0.62051 0.91881 0.0
C2578 C 0.56075 0.60666 0.91183 0.0
C2579 C 0.60314 0.62626 0.92991 0.0
C2580 C 0.52186 0.56996 0.87498 0.0
C2581 C 0.53122 0.57792 0.8847 0.0
C2582 C 0.56481 0.59375 0.88903 0.0
C2583 C 0.58164 0.61368 0.92276 0.0
C2584 C 0.57208 0.60703 0.91111 0.0
C2585 C 0.54331 0.58526 0.87939 0.0
C2586 C 0.55337 0.59316 0.88995 0.0
H2587 H 0.58448 0.61755 0.96079 0.0
H2588 H 0.56882 0.60754 0.94148 0.0
H2589 H 0.58261 0.60055 0.89874 0.0
H2590 H 0.53858 0.5764 0.84258 0.0
H2591 H 0.55494 0.59031 0.85957 0.0
C2592 C 0.02191 0.62633 0.93531 0.0
C2593 C 0.01087 0.62489 0.94117 0.0
C2594 C 0.02175 0.61779 0.92505 0.0
C2595 C 0.0021 0.58555 0.91328 0.0
H2596 H 0.02381 0.59496 0.87868 0.0
C2597 C 0.99693 0.55035 0.86831 0.0
C2598 C 0.00773 0.55095 0.86298 0.0
C2599 C 0.99751 0.55975 0.87728 0.0
C2600 C 0.01777 0.59219 0.88838 0.0
H2601 H 0.99101 0.61336 0.94069 0.0
H2602 H 0.99074 0.59873 0.92259 0.0
H2603 H 0.02452 0.61084 0.89526 0.0
H2604 H 0.02763 0.56192 0.86284 0.0
H2605 H 0.02864 0.57835 0.87857 0.0
H2606 H 0.99537 0.56695 0.90651 0.0
C2607 C -0.00047 0.60637 0.92604 0.0
C2608 C 0.01818 0.60128 0.89787 0.0
C2609 C -0.00031 0.61488 0.93627 0.0
C2610 C 0.01913 0.56126 0.86664 0.0
C2611 C 0.01971 0.57067 0.87564 0.0
C2612 C 0.00169 0.57649 0.90382 0.0
C2613 C 0.01055 0.60761 0.92048 0.0
C2614 C 0.01029 0.59806 0.91039 0.0
C2615 C 0.00891 0.56997 0.88117 0.0
C2616 C 0.00948 0.5797 0.89122 0.0
H2617 H 0.03068 0.634 0.93876 0.0
H2618 H 0.03041 0.61898 0.92103 0.0
H2619 H 0.99608 0.58274 0.923 0.0
H2620 H 0.988 0.54265 0.86545 0.0
H2621 H 0.98901 0.55904 0.88112 0.0
C2622 C 0.37135 0.40464 0.94113 0.0
C2623 C 0.37809 0.40192 0.95144 0.0
C2624 C 0.37739 0.41406 0.9306 0.0
C2625 C 0.40765 0.44168 0.92253 0.0
H2626 H 0.39501 0.43702 0.88181 0.0
C2627 C 0.43052 0.48 0.8782 0.0
C2628 C 0.43185 0.47644 0.86361 0.0
C2629 C 0.4231 0.47121 0.88884 0.0
C2630 C 0.39871 0.43844 0.89311 0.0
H2631 H 0.39642 0.4068 0.95866 0.0
H2632 H 0.40696 0.42307 0.94017 0.0
H2633 H 0.38406 0.42104 0.90053 0.0
H2634 H 0.42599 0.46083 0.84863 0.0
H2635 H 0.41344 0.44549 0.86732 0.0
H2636 H 0.42258 0.45882 0.91498 0.0
C2637 C 0.39701 0.41816 0.94042 0.0
C2638 C 0.39234 0.42934 0.90391 0.0
C2639 C 0.39098 0.40881 0.95101 0.0
C2640 C 0.42534 0.46389 0.85983 0.0
C2641 C 0.41799 0.45509 0.8705 0.0
C2642 C 0.41406 0.45073 0.91172 0.0
C2643 C 0.3903 0.42092 0.93009 0.0
C2644 C 0.39678 0.4308 0.91873 0.0
C2645 C 0.4169 0.45863 0.8852 0.0
C2646 C 0.40972 0.4492 0.89684 0.0
H2647 H 0.3614 0.39956 0.94131 0.0
H2648 H 0.37192 0.41605 0.92297 0.0
H2649 H 0.41125 0.44321 0.93389 0.0
H2650 H 0.43548 0.48956 0.88158 0.0
H2651 H 0.42232 0.47428 0.89998 0.0
C2652 C 0.61388 0.99716 0.93562 0.0
C2653 C 0.61059 0.9867 0.94443 0.0
C2654 C 0.60582 0.99706 0.9248 0.0
C2655 C 0.57906 0.97704 0.90143 0.0
H2656 H 0.57344 0.00462 0.90224 0.0
C2657 C 0.53989 0.97752 0.86792 0.0
C2658 C 0.54216 0.9888 0.862 0.0
C2659 C 0.54855 0.97698 0.87724 0.0
C2660 C 0.57504 0.99694 0.90165 0.0
H2661 H 0.59646 0.96781 0.94849 0.0
H2662 H 0.58233 0.96763 0.92947 0.0
H2663 H 0.58808 0.00414 0.91962 0.0
H2664 H 0.55543 0.00825 0.86052 0.0
H2665 H 0.57067 0.00731 0.87643 0.0
H2666 H 0.56609 0.96988 0.88333 0.0
C2667 C 0.59116 0.97589 0.93097 0.0
C2668 C 0.5834 0.99665 0.91167 0.0
C2669 C 0.5992 0.97602 0.94192 0.0
C2670 C 0.55338 -0.00054 0.86516 0.0
C2671 C 0.56207 0.99892 0.87432 0.0
C2672 C 0.57075 0.97736 0.89128 0.0
C2673 C 0.59433 0.98648 0.92248 0.0
C2674 C 0.5855 0.98671 0.91167 0.0
C2675 C 0.55969 0.98771 0.88069 0.0
C2676 C 0.56863 0.98733 0.89128 0.0
H2677 H 0.62254 0.00557 0.9374 0.0
H2678 H 0.60854 0.00532 0.91831 0.0
H2679 H 0.58058 0.9693 0.90112 0.0
H2680 H 0.53126 0.96917 0.86575 0.0
H2681 H 0.54633 0.96822 0.88208 0.0
C2682 C 0.62477 0.02192 0.0812 0.0
C2683 C 0.62269 0.0105 0.07589 0.0
C2684 C 0.61704 0.02251 0.09211 0.0
C2685 C 0.59358 0.00353 0.12083 0.0
H2686 H 0.58288 0.02731 0.11601 0.0
C2687 C 0.55076 0.99872 0.1506 0.0
C2688 C 0.5515 0.00931 0.15695 0.0
C2689 C 0.56029 -0.00045 0.14167 0.0
C2690 C 0.58591 0.02073 0.11761 0.0
H2691 H 0.61073 0.99076 0.07769 0.0
H2692 H 0.59726 0.99178 0.09654 0.0
H2693 H 0.59813 0.02759 0.09873 0.0
H2694 H 0.56299 0.02911 0.15896 0.0
H2695 H 0.57956 0.03056 0.14312 0.0
H2696 H 0.58112 0.99648 0.13947 0.0
C2697 C 0.60502 0.00029 0.0926 0.0
C2698 C 0.59467 0.02089 0.10774 0.0
C2699 C 0.61275 -0.0003 0.08176 0.0
C2700 C 0.56203 0.02078 0.15408 0.0
C2701 C 0.57154 0.02162 0.14505 0.0
C2702 C 0.58479 0.00332 0.13063 0.0
C2703 C 0.60703 0.01169 0.0979 0.0
C2704 C 0.59847 0.01218 0.10909 0.0
C2705 C 0.57077 0.011 0.13877 0.0
C2706 C 0.58073 0.0118 0.129 0.0
H2707 H 0.63242 0.03039 0.07698 0.0
H2708 H 0.61893 0.03144 0.09607 0.0
H2709 H 0.5965 0.99685 0.1224 0.0
H2710 H 0.5427 0.98976 0.15229 0.0
H2711 H 0.55934 0.99122 0.13677 0.0
C2712 C 0.99786 0.6071 0.07177 0.0
C2713 C 0.98736 0.60759 0.06766 0.0
C2714 C 0.99713 0.59869 0.08248 0.0
C2715 C 0.97805 0.57833 0.11333 0.0
H2716 H 0.99648 0.56192 0.10474 0.0
C2717 C 0.98565 0.54863 0.15708 0.0
C2718 C 0.98569 0.53815 0.15171 0.0
C2719 C 0.98489 0.55677 0.14702 0.0
C2720 C 0.99117 0.56631 0.10726 0.0
H2721 H 0.96788 0.59985 0.07182 0.0
H2722 H 0.96654 0.58497 0.09054 0.0
H2723 H 0.99691 0.57671 0.08691 0.0
H2724 H 0.98433 0.5276 0.13173 0.0
H2725 H 0.98287 0.54167 0.11423 0.0
H2726 H 0.97215 0.56769 0.13361 0.0
C2727 C 0.97538 0.5912 0.08553 0.0
C2728 C 0.99155 0.57492 0.09712 0.0
C2729 C 0.97613 0.59969 0.07481 0.0
C2730 C 0.98456 0.53574 0.13617 0.0
C2731 C 0.98374 0.54381 0.12615 0.0
C2732 C 0.97766 0.56966 0.1235 0.0
C2733 C 0.98585 0.5905 0.08933 0.0
C2734 C 0.98508 0.58111 0.10006 0.0
C2735 C 0.98411 0.55453 0.13142 0.0
C2736 C 0.98424 0.56357 0.12059 0.0
H2737 H 0.0067 0.61327 0.06671 0.0
H2738 H 0.00543 0.59861 0.08541 0.0
H2739 H 0.97303 0.58299 0.11596 0.0
H2740 H 0.98659 0.55075 0.169 0.0
H2741 H 0.98532 0.565 0.15145 0.0
C2742 C 0.39412 0.38464 0.08333 0.0
C2743 C 0.39384 0.3748 0.07546 0.0
C2744 C 0.40312 0.39111 0.09416 0.0
C2745 C 0.42597 0.38985 0.11885 0.0
H2746 H 0.44159 0.42536 0.11714 0.0
C2747 C 0.46986 0.42304 0.15272 0.0
C2748 C 0.47052 0.43377 0.15845 0.0
C2749 C 0.46011 0.4151 0.14338 0.0
C2750 C 0.43722 0.41545 0.11793 0.0
H2751 H 0.40257 0.3638 0.07314 0.0
H2752 H 0.41845 0.37525 0.092 0.0
H2753 H 0.42533 0.41286 0.09944 0.0
H2754 H 0.46114 0.4442 0.1597 0.0
H2755 H 0.4441 0.43033 0.14362 0.0
H2756 H 0.43794 0.39252 0.1374 0.0
C2757 C 0.41163 0.37788 0.08981 0.0
C2758 C 0.4279 0.40829 0.10776 0.0
C2759 C 0.40262 0.37141 0.07892 0.0
C2760 C 0.461 0.43613 0.15519 0.0
C2761 C 0.45126 0.4282 0.14595 0.0
C2762 C 0.43531 0.39705 0.12909 0.0
C2763 C 0.41208 0.38792 0.09737 0.0
C2764 C 0.42211 0.39541 0.10816 0.0
C2765 C 0.45082 0.41772 0.13967 0.0
C2766 C 0.44098 0.40994 0.1288 0.0
H2767 H 0.38759 0.38759 0.08084 0.0
H2768 H 0.40312 0.3987 0.09994 0.0
H2769 H 0.42161 0.37994 0.11948 0.0
H2770 H 0.47711 0.42102 0.155 0.0
H2771 H 0.46009 0.40715 0.13866 0.0
C2772 C 0.64115 0.70593 0.42105 0.0
C2773 C 0.63911 0.70726 0.40579 0.0
C2774 C 0.63759 0.71129 0.43231 0.0
C2775 C 0.61761 0.72451 0.43968 0.0
H2776 H 0.64069 0.7418 0.47193 0.0
C2777 C 0.61424 0.75968 0.47828 0.0
C2778 C 0.61737 0.7601 0.49354 0.0
C2779 C 0.61584 0.75205 0.4682 0.0
C2780 C 0.63405 0.73685 0.46314 0.0
H2781 H 0.63174 0.71529 0.39042 0.0
H2782 H 0.62555 0.72462 0.41004 0.0
H2783 H 0.64546 0.73063 0.4532 0.0
H2784 H 0.62411 0.75246 0.51031 0.0
H2785 H 0.62689 0.73913 0.49271 0.0
H2786 H 0.60629 0.73089 0.44952 0.0
C2787 C 0.62972 0.71927 0.41332 0.0
C2788 C 0.63679 0.73045 0.4524 0.0
C2789 C 0.63327 0.71392 0.40207 0.0
C2790 C 0.62181 0.75248 0.49857 0.0
C2791 C 0.6234 0.74486 0.48849 0.0
C2792 C 0.61487 0.73091 0.45043 0.0
C2793 C 0.63191 0.7181 0.42857 0.0
C2794 C 0.62866 0.72431 0.44046 0.0
C2795 C 0.6206 0.74468 0.47314 0.0
C2796 C 0.62312 0.73726 0.46221 0.0
H2797 H 0.64546 0.7007 0.4243 0.0
H2798 H 0.63925 0.71006 0.44397 0.0
H2799 H 0.61106 0.71971 0.43075 0.0
H2800 H 0.61097 0.76556 0.474 0.0
H2801 H 0.61375 0.75226 0.45641 0.0
C2802 C 0.29082 0.92696 0.41469 0.0
C2803 C 0.28748 0.93603 0.41357 0.0
C2804 C 0.28642 0.91852 0.42652 0.0
C2805 C 0.27108 0.91238 0.46401 0.0
H2806 H 0.25987 0.87838 0.45386 0.0
C2807 C 0.23517 0.87131 0.49857 0.0
C2808 C 0.23675 0.86113 0.5005 0.0
C2809 C 0.24326 0.88116 0.48955 0.0
C2810 C 0.26315 0.88786 0.45695 0.0
H2811 H 0.27699 0.94341 0.424 0.0
H2812 H 0.26909 0.92855 0.44447 0.0
H2813 H 0.27038 0.89427 0.43492 0.0
H2814 H 0.2482 0.85338 0.49491 0.0
H2815 H 0.26237 0.87062 0.47895 0.0
H2816 H 0.26336 0.90581 0.48589 0.0
C2817 C 0.27534 0.92811 0.43643 0.0
C2818 C 0.26919 0.89699 0.44609 0.0
C2819 C 0.27982 0.93661 0.42467 0.0
C2820 C 0.24681 0.86114 0.49362 0.0
C2821 C 0.25485 0.87095 0.48444 0.0
C2822 C 0.26495 0.90323 0.47483 0.0
C2823 C 0.27849 0.91888 0.43744 0.0
C2824 C 0.27305 0.90934 0.44941 0.0
C2825 C 0.25304 0.88098 0.48216 0.0
C2826 C 0.26075 0.89085 0.47132 0.0
H2827 H 0.29686 0.92642 0.40641 0.0
H2828 H 0.28922 0.91168 0.42709 0.0
H2829 H 0.27415 0.92182 0.46705 0.0
H2830 H 0.22754 0.87158 0.50386 0.0
H2831 H 0.24156 0.8887 0.4879 0.0
C2832 C 0.06729 0.34155 0.41363 0.0
C2833 C 0.0654 0.35041 0.40652 0.0
C2834 C 0.07638 0.345 0.42457 0.0
C2835 C 0.09616 0.3698 0.45101 0.0
H2836 H 0.11601 0.35426 0.44886 0.0
C2837 C 0.1402 0.38457 0.48689 0.0
C2838 C 0.14182 0.37499 0.49223 0.0
C2839 C 0.13046 0.38204 0.47717 0.0
C2840 C 0.11046 0.35859 0.44973 0.0
H2841 H 0.07148 0.36986 0.40546 0.0
H2842 H 0.08743 0.37591 0.42461 0.0
H2843 H 0.09992 0.34902 0.43038 0.0
H2844 H 0.13408 0.35523 0.49253 0.0
H2845 H 0.11711 0.35082 0.47574 0.0
H2846 H 0.10683 0.3794 0.47042 0.0
C2847 C 0.08177 0.36627 0.42179 0.0
C2848 C 0.10124 0.35558 0.43913 0.0
C2849 C 0.07265 0.3628 0.41083 0.0
C2850 C 0.13321 0.36282 0.48831 0.0
C2851 C 0.12351 0.3603 0.47867 0.0
C2852 C 0.10544 0.37283 0.46166 0.0
C2853 C 0.08382 0.35741 0.42865 0.0
C2854 C 0.09388 0.36103 0.43973 0.0
C2855 C 0.1222 0.36989 0.47267 0.0
C2856 C 0.11258 0.36713 0.46122 0.0
H2857 H 0.06169 0.3319 0.4108 0.0
H2858 H 0.07756 0.33793 0.42987 0.0
H2859 H 0.09059 0.3741 0.4518 0.0
H2860 H 0.14673 0.39403 0.48973 0.0
H2861 H 0.12968 0.38961 0.4727 0.0
C2862 C 0.03704 0.29635 0.27447 0.0
C2863 C 0.04188 0.30846 0.27976 0.0
C2864 C 0.04321 0.29362 0.26335 0.0
C2865 C 0.07424 0.30587 0.24733 0.0
H2866 H 0.05747 0.28284 0.21478 0.0
C2867 C 0.1011 0.30096 0.19855 0.0
C2868 C 0.09805 0.28897 0.19448 0.0
C2869 C 0.09344 0.30297 0.20803 0.0
C2870 C 0.06225 0.28922 0.22389 0.0
H2871 H 0.05698 0.32719 0.27738 0.0
H2872 H 0.06747 0.32252 0.25779 0.0
H2873 H 0.04555 0.28707 0.23321 0.0
H2874 H 0.08429 0.26969 0.19659 0.0
H2875 H 0.07082 0.27322 0.21324 0.0
H2876 H 0.0909 0.30807 0.23806 0.0
C2877 C 0.05901 0.31508 0.26236 0.0
C2878 C 0.05544 0.29163 0.23444 0.0
C2879 C 0.05288 0.31779 0.27347 0.0
C2880 C 0.08686 0.27903 0.19952 0.0
C2881 C 0.07916 0.28105 0.20903 0.0
C2882 C 0.08102 0.3035 0.23679 0.0
C2883 C 0.05436 0.30295 0.25732 0.0
C2884 C 0.06139 0.30007 0.24621 0.0
C2885 C 0.08253 0.29303 0.21365 0.0
C2886 C 0.07512 0.29524 0.22489 0.0
H2887 H 0.02851 0.28896 0.27895 0.0
H2888 H 0.03942 0.28417 0.25977 0.0
H2889 H 0.0791 0.31218 0.25646 0.0
H2890 H 0.10951 0.30882 0.19455 0.0
H2891 H 0.09614 0.31232 0.21111 0.0
C2892 C 0.68396 0.73028 0.26771 0.0
C2893 C 0.69133 0.73184 0.2803 0.0
C2894 C 0.6881 0.73918 0.25642 0.0
C2895 C 0.71054 0.77208 0.24982 0.0
H2896 H 0.70018 0.76314 0.20836 0.0
C2897 C 0.72372 0.80815 0.20244 0.0
C2898 C 0.71347 0.80695 0.19471 0.0
C2899 C 0.72254 0.79869 0.21182 0.0
C2900 C 0.70317 0.76575 0.21989 0.0
H2901 H 0.70898 0.7437 0.29071 0.0
H2902 H 0.7164 0.75913 0.27078 0.0
H2903 H 0.69555 0.74707 0.22685 0.0
H2904 H 0.69413 0.79486 0.19009 0.0
H2905 H 0.6921 0.77826 0.20625 0.0
H2906 H 0.71816 0.79078 0.24275 0.0
C2907 C 0.70728 0.75119 0.2698 0.0
C2908 C 0.70046 0.75656 0.23052 0.0
C2909 C 0.70306 0.74234 0.2812 0.0
C2910 C 0.70215 0.796 0.19602 0.0
C2911 C 0.70101 0.78649 0.20516 0.0
C2912 C 0.7134 0.78127 0.23914 0.0
C2913 C 0.69979 0.7498 0.25734 0.0
C2914 C 0.70384 0.75959 0.2457 0.0
C2915 C 0.71114 0.78783 0.21336 0.0
C2916 C 0.70949 0.77818 0.22416 0.0
H2917 H 0.67481 0.72234 0.26683 0.0
H2918 H 0.68195 0.73788 0.24719 0.0
H2919 H 0.71316 0.77479 0.26141 0.0
H2920 H 0.73253 0.81654 0.20163 0.0
H2921 H 0.73048 0.79991 0.218 0.0
C2922 C 0.26383 0.95398 0.27076 0.0
C2923 C 0.26254 0.96051 0.28279 0.0
C2924 C 0.25522 0.94943 0.25912 0.0
C2925 C 0.22313 0.94076 0.25062 0.0
H2926 H 0.23291 0.93837 0.20986 0.0
C2927 C 0.18795 0.9182 0.20227 0.0
C2928 C 0.18899 0.90896 0.19468 0.0
C2929 C 0.19736 0.9264 0.21183 0.0
C2930 C 0.23006 0.93901 0.22119 0.0
H2931 H 0.25143 0.96771 0.29186 0.0
H2932 H 0.23647 0.95994 0.27138 0.0
H2933 H 0.2486 0.94934 0.22897 0.0
H2934 H 0.20081 0.90139 0.19048 0.0
H2935 H 0.21727 0.91576 0.20702 0.0
H2936 H 0.20457 0.93033 0.24278 0.0
C2937 C 0.244 0.95811 0.27109 0.0
C2938 C 0.23903 0.94523 0.23217 0.0
C2939 C 0.25257 0.96258 0.28281 0.0
C2940 C 0.19977 0.90839 0.1963 0.0
C2941 C 0.20922 0.91667 0.20566 0.0
C2942 C 0.21417 0.93464 0.23959 0.0
C2943 C 0.24516 0.95138 0.25915 0.0
C2944 C 0.23568 0.94593 0.24711 0.0
C2945 C 0.20802 0.92561 0.21375 0.0
C2946 C 0.21754 0.93347 0.22486 0.0
H2947 H 0.27132 0.95209 0.27054 0.0
H2948 H 0.25629 0.94407 0.25031 0.0
H2949 H 0.22019 0.94096 0.26203 0.0
H2950 H 0.1797 0.91879 0.20123 0.0
H2951 H 0.19623 0.93326 0.21789 0.0
C2952 C 0.68184 0.94641 0.27358 0.0
C2953 C 0.6913 0.95627 0.28155 0.0
C2954 C 0.68456 0.9405 0.2622 0.0
C2955 C 0.7088 0.94327 0.2363 0.0
H2956 H 0.68953 0.90767 0.23696 0.0
C2957 C 0.71955 0.91118 0.19989 0.0
C2958 C 0.70937 0.90052 0.19411 0.0
C2959 C 0.71784 0.91893 0.20969 0.0
C2960 C 0.6949 0.91761 0.23648 0.0
H2961 H 0.71105 0.96795 0.28348 0.0
H2962 H 0.71584 0.95753 0.26352 0.0
H2963 H 0.68573 0.91945 0.2557 0.0
H2964 H 0.68948 0.8901 0.19315 0.0
H2965 H 0.6865 0.90363 0.21007 0.0
H2966 H 0.718 0.94132 0.21702 0.0
C2967 C 0.7063 0.95445 0.26607 0.0
C2968 C 0.69272 0.92437 0.24724 0.0
C2969 C 0.70357 0.9604 0.2775 0.0
C2970 C 0.69749 0.8981 0.1977 0.0
C2971 C 0.69579 0.90584 0.20741 0.0
C2972 C 0.71099 0.93647 0.22547 0.0
C2973 C 0.69681 0.94429 0.2585 0.0
C2974 C 0.69954 0.93727 0.2472 0.0
C2975 C 0.70593 0.91617 0.21382 0.0
C2976 C 0.70395 0.92356 0.22537 0.0
H2977 H 0.6723 0.94321 0.27619 0.0
H2978 H 0.67704 0.9329 0.25633 0.0
H2979 H 0.71417 0.95321 0.23595 0.0
H2980 H 0.72881 0.91323 0.19735 0.0
H2981 H 0.72583 0.9268 0.21449 0.0
C2982 C 0.03792 0.74651 0.28196 0.0
C2983 C 0.04307 0.73958 0.28727 0.0
C2984 C 0.04373 0.75516 0.27047 0.0
C2985 C 0.07424 0.7737 0.2528 0.0
H2986 H 0.05639 0.77797 0.22008 0.0
C2987 C 0.09949 0.80227 0.20126 0.0
C2988 C 0.09647 0.81105 0.19649 0.0
C2989 C 0.09207 0.79321 0.21156 0.0
C2990 C 0.06146 0.77693 0.22923 0.0
H2991 H 0.05792 0.73579 0.28417 0.0
H2992 H 0.06795 0.75072 0.26417 0.0
H2993 H 0.04509 0.76285 0.23985 0.0
H2994 H 0.08297 0.81685 0.19823 0.0
H2995 H 0.06989 0.8009 0.21633 0.0
H2996 H 0.09057 0.78764 0.24223 0.0
C2997 C 0.05965 0.74978 0.26912 0.0
C2998 C 0.05501 0.76831 0.24055 0.0
C2999 C 0.05391 0.74121 0.28059 0.0
C3000 C 0.0855 0.81018 0.20167 0.0
C3001 C 0.07803 0.80106 0.21202 0.0
C3002 C 0.08065 0.78223 0.24151 0.0
C3003 C 0.05475 0.75698 0.26406 0.0
C3004 C 0.06136 0.7665 0.25236 0.0
C3005 C 0.08143 0.79269 0.21735 0.0
C3006 C 0.07437 0.78384 0.2295 0.0
H3007 H 0.02957 0.74545 0.28693 0.0
H3008 H 0.03976 0.76062 0.26687 0.0
H3009 H 0.0794 0.77277 0.26193 0.0
H3010 H 0.10774 0.80253 0.19719 0.0
H3011 H 0.09476 0.7867 0.21519 0.0
C3012 C 0.2702 0.32122 0.27045 0.0
C3013 C 0.27068 0.312 0.27878 0.0
C3014 C 0.2612 0.31818 0.2595 0.0
C3015 C 0.23885 0.29307 0.2352 0.0
H3016 H 0.22255 0.31225 0.23534 0.0
C3017 C 0.19495 0.28035 0.20024 0.0
C3018 C 0.19404 0.29015 0.19417 0.0
C3019 C 0.20474 0.28264 0.20977 0.0
C3020 C 0.22711 0.30691 0.23498 0.0
H3021 H 0.26227 0.2923 0.28178 0.0
H3022 H 0.24639 0.28698 0.26269 0.0
H3023 H 0.23876 0.31691 0.25342 0.0
H3024 H 0.20302 0.30998 0.19242 0.0
H3025 H 0.22013 0.31398 0.20876 0.0
H3026 H 0.22712 0.28306 0.21668 0.0
C3027 C 0.25306 0.29657 0.26463 0.0
C3028 C 0.2364 0.30957 0.24538 0.0
C3029 C 0.26207 0.29963 0.27566 0.0
C3030 C 0.20336 0.30225 0.1972 0.0
C3031 C 0.21314 0.30453 0.2066 0.0
C3032 C 0.22954 0.29042 0.22472 0.0
C3033 C 0.25243 0.30584 0.25658 0.0
C3034 C 0.24244 0.30275 0.24556 0.0
C3035 C 0.2138 0.29478 0.2133 0.0
C3036 C 0.22362 0.29737 0.22443 0.0
H3037 H 0.2766 0.33085 0.27266 0.0
H3038 H 0.26105 0.32553 0.25335 0.0
H3039 H 0.24339 0.28771 0.23501 0.0
H3040 H 0.18786 0.27094 0.19812 0.0
H3041 H 0.20494 0.27493 0.21479 0.0
C3042 C 0.28908 0.36891 0.39983 0.0
C3043 C 0.29272 0.36039 0.40374 0.0
C3044 C 0.28371 0.37293 0.41052 0.0
C3045 C 0.28031 0.37598 0.4512 0.0
H3046 H 0.24987 0.37443 0.43982 0.0
C3047 C 0.24765 0.3795 0.49448 0.0
C3048 C 0.24057 0.38459 0.48967 0.0
C3049 C 0.25527 0.37794 0.4843 0.0
C3050 C 0.25849 0.37518 0.44315 0.0
H3051 H 0.29361 0.34952 0.42212 0.0
H3052 H 0.28449 0.35678 0.44082 0.0
H3053 H 0.26086 0.36919 0.42147 0.0
H3054 H 0.23644 0.3928 0.47087 0.0
H3055 H 0.25009 0.3906 0.45325 0.0
H3056 H 0.278 0.38205 0.47288 0.0
C3057 C 0.28586 0.36036 0.42946 0.0
C3058 C 0.26475 0.37211 0.43261 0.0
C3059 C 0.29111 0.35623 0.41873 0.0
C3060 C 0.24173 0.38872 0.47478 0.0
C3061 C 0.24947 0.38735 0.46468 0.0
C3062 C 0.27411 0.37919 0.46174 0.0
C3063 C 0.28198 0.36864 0.42542 0.0
C3064 C 0.27568 0.3724 0.43654 0.0
C3065 C 0.25606 0.3816 0.46916 0.0
C3066 C 0.26307 0.37876 0.45787 0.0
H3067 H 0.29039 0.37252 0.38849 0.0
H3068 H 0.28094 0.37944 0.40714 0.0
H3069 H 0.28878 0.37637 0.45449 0.0
H3070 H 0.24682 0.37615 0.5059 0.0
H3071 H 0.2601 0.37337 0.48815 0.0
C3072 C 0.65594 0.92623 0.40814 0.0
C3073 C 0.64854 0.93144 0.40546 0.0
C3074 C 0.65228 0.91665 0.41844 0.0
C3075 C 0.63158 0.90143 0.45079 0.0
H3076 H 0.63794 0.87512 0.44088 0.0
C3077 C 0.61506 0.85779 0.48769 0.0
C3078 C 0.624 0.85448 0.49052 0.0
C3079 C 0.61729 0.86692 0.47713 0.0
C3080 C 0.63616 0.88243 0.44384 0.0
H3081 H 0.63151 0.93072 0.41153 0.0
H3082 H 0.62503 0.91388 0.42947 0.0
H3083 H 0.64323 0.89158 0.42284 0.0
H3084 H 0.64213 0.85794 0.48431 0.0
H3085 H 0.646 0.87384 0.46595 0.0
H3086 H 0.62448 0.89218 0.47182 0.0
C3087 C 0.63376 0.91733 0.42374 0.0
C3088 C 0.63922 0.89189 0.43353 0.0
C3089 C 0.63746 0.92696 0.41347 0.0
C3090 C 0.63512 0.86039 0.48249 0.0
C3091 C 0.63729 0.8694 0.47187 0.0
C3092 C 0.62845 0.89191 0.46109 0.0
C3093 C 0.64109 0.912 0.42627 0.0
C3094 C 0.63715 0.90161 0.43696 0.0
C3095 C 0.62841 0.87277 0.46907 0.0
C3096 C 0.63089 0.88242 0.4578 0.0
H3097 H 0.66463 0.92962 0.40235 0.0
H3098 H 0.65829 0.91296 0.42036 0.0
H3099 H 0.62996 0.90883 0.45385 0.0
H3100 H 0.60643 0.85342 0.49377 0.0
H3101 H 0.61026 0.8693 0.47513 0.0
C3102 C 0.06233 0.71062 0.4246 0.0
C3103 C 0.06527 0.71323 0.40925 0.0
C3104 C 0.07138 0.71652 0.43563 0.0
C3105 C 0.10116 0.74461 0.44155 0.0
H3106 H 0.1049 0.72712 0.47512 0.0
C3107 C 0.14371 0.76769 0.47893 0.0
C3108 C 0.14195 0.76629 0.49458 0.0
C3109 C 0.13415 0.76043 0.4691 0.0
C3110 C 0.10388 0.73214 0.46589 0.0
H3111 H 0.07996 0.72409 0.39347 0.0
H3112 H 0.0957 0.73421 0.41264 0.0
H3113 H 0.08833 0.71597 0.4569 0.0
H3114 H 0.12896 0.75585 0.51223 0.0
H3115 H 0.11211 0.74312 0.49496 0.0
H3116 H 0.1166 0.76075 0.45043 0.0
C3117 C 0.08642 0.72768 0.41617 0.0
C3118 C 0.0944 0.72576 0.45548 0.0
C3119 C 0.07742 0.72177 0.40518 0.0
C3120 C 0.13057 0.75708 0.5002 0.0
C3121 C 0.12094 0.74981 0.49033 0.0
C3122 C 0.11057 0.75095 0.45193 0.0
C3123 C 0.08349 0.7252 0.43152 0.0
C3124 C 0.09307 0.73192 0.44309 0.0
C3125 C 0.12256 0.75162 0.47467 0.0
C3126 C 0.11217 0.74478 0.46409 0.0
H3127 H 0.05306 0.70402 0.42806 0.0
H3128 H 0.06885 0.71447 0.44738 0.0
H3129 H 0.1002 0.74966 0.43232 0.0
H3130 H 0.15247 0.77455 0.47428 0.0
H3131 H 0.13579 0.76183 0.45709 0.0
C3132 C 0.31325 0.05084 0.74629 0.0
C3133 C 0.3048 0.04325 0.73536 0.0
C3134 C 0.30976 0.05632 0.75744 0.0
C3135 C 0.28574 0.06433 0.76631 0.0
H3136 H 0.30142 0.07158 0.80544 0.0
C3137 C 0.28333 0.09871 0.80706 0.0
C3138 C 0.28378 0.09711 0.82262 0.0
C3139 C 0.28473 0.09102 0.79689 0.0
C3140 C 0.29676 0.06947 0.79469 0.0
H3141 H 0.28601 0.0351 0.72766 0.0
H3142 H 0.27969 0.04422 0.74752 0.0
H3143 H 0.30567 0.05974 0.78737 0.0
H3144 H 0.28557 0.08599 0.83985 0.0
H3145 H 0.28748 0.07216 0.82215 0.0
H3146 H 0.27642 0.07361 0.77387 0.0
C3147 C 0.28914 0.04632 0.74726 0.0
C3148 C 0.29938 0.06283 0.78417 0.0
C3149 C 0.29271 0.04102 0.73592 0.0
C3150 C 0.2853 0.08745 0.82787 0.0
C3151 C 0.28648 0.0796 0.81771 0.0
C3152 C 0.28294 0.07078 0.77693 0.0
C3153 C 0.29765 0.05416 0.75809 0.0
C3154 C 0.2941 0.06038 0.76972 0.0
C3155 C 0.28641 0.0814 0.80206 0.0
C3156 C 0.28859 0.07365 0.79118 0.0
H3157 H 0.32268 0.05282 0.74596 0.0
H3158 H 0.31668 0.06251 0.76532 0.0
H3159 H 0.28155 0.06275 0.75529 0.0
H3160 H 0.28233 0.1062 0.80274 0.0
H3161 H 0.28488 0.09289 0.78498 0.0
C3162 C 0.95164 0.26367 0.74616 0.0
C3163 C 0.95982 0.26314 0.73584 0.0
C3164 C 0.94599 0.25468 0.75726 0.0
C3165 C 0.93837 0.22286 0.76646 0.0
H3166 H 0.93009 0.23096 0.80525 0.0
C3167 C 0.90385 0.18552 0.80671 0.0
C3168 C 0.9055 0.18751 0.82231 0.0
C3169 C 0.91141 0.19476 0.79661 0.0
C3170 C 0.93248 0.22852 0.79458 0.0
H3171 H 0.96885 0.25305 0.72931 0.0
H3172 H 0.9593 0.23753 0.74898 0.0
H3173 H 0.94202 0.24724 0.78735 0.0
H3174 H 0.9166 0.20053 0.83959 0.0
H3175 H 0.9301 0.21655 0.82198 0.0
H3176 H 0.92917 0.20419 0.77388 0.0
C3177 C 0.95694 0.24468 0.74827 0.0
C3178 C 0.93917 0.23787 0.78418 0.0
C3179 C 0.96247 0.25359 0.73704 0.0
C3180 C 0.91506 0.19881 0.82761 0.0
C3181 C 0.92274 0.208 0.8175 0.0
C3182 C 0.9318 0.21352 0.77693 0.0
C3183 C 0.94851 0.24502 0.75843 0.0
C3184 C 0.94206 0.23515 0.76989 0.0
C3185 C 0.92092 0.20616 0.80185 0.0
C3186 C 0.92861 0.2162 0.79105 0.0
H3187 H 0.9493 0.27083 0.74536 0.0
H3188 H 0.93939 0.25515 0.76466 0.0
H3189 H 0.94029 0.22036 0.75553 0.0
H3190 H 0.89644 0.17694 0.80233 0.0
H3191 H 0.90955 0.19305 0.78468 0.0
C3192 C 0.73704 0.70115 0.74554 0.0
C3193 C 0.72991 0.68895 0.74048 0.0
C3194 C 0.74651 0.70434 0.75594 0.0
C3195 C 0.76727 0.69389 0.76959 0.0
H3196 H 0.77254 0.71527 0.80372 0.0
C3197 C 0.79958 0.69885 0.81785 0.0
C3198 C 0.80725 0.71061 0.82393 0.0
C3199 C 0.79036 0.69683 0.80764 0.0
C3200 C 0.77128 0.70942 0.79413 0.0
H3201 H 0.72712 0.67055 0.74243 0.0
H3202 H 0.74346 0.67606 0.76067 0.0
H3203 H 0.75585 0.71056 0.78607 0.0
H3204 H 0.81116 0.72946 0.82411 0.0
H3205 H 0.79509 0.72596 0.80601 0.0
H3206 H 0.78263 0.6927 0.77756 0.0
C3207 C 0.7418 0.68319 0.75653 0.0
C3208 C 0.76172 0.70671 0.78405 0.0
C3209 C 0.73233 0.68 0.74622 0.0
C3210 C 0.80545 0.72032 0.81954 0.0
C3211 C 0.79618 0.71829 0.8093 0.0
C3212 C 0.77681 0.6966 0.77962 0.0
C3213 C 0.74909 0.69541 0.76137 0.0
C3214 C 0.75952 0.69879 0.77178 0.0
C3215 C 0.78858 0.70652 0.80318 0.0
C3216 C 0.77883 0.70426 0.79212 0.0
H3217 H 0.73532 0.70824 0.74142 0.0
H3218 H 0.752 0.71385 0.75942 0.0
H3219 H 0.76598 0.68797 0.76006 0.0
H3220 H 0.80081 0.6912 0.82083 0.0
H3221 H 0.78455 0.68762 0.8033 0.0
C3222 C 0.72213 0.64277 0.621 0.0
C3223 C 0.71059 0.64151 0.61797 0.0
C3224 C 0.72817 0.6397 0.61014 0.0
C3225 C 0.72368 0.62338 0.57354 0.0
H3226 H 0.75908 0.64412 0.57138 0.0
C3227 C 0.75359 0.61291 0.5333 0.0
C3228 C 0.76404 0.62294 0.52689 0.0
C3229 C 0.74672 0.61477 0.54431 0.0
C3230 C 0.74918 0.63831 0.57166 0.0
H3231 H 0.69624 0.63564 0.60112 0.0
H3232 H 0.70706 0.63092 0.58193 0.0
H3233 H 0.74774 0.64812 0.59043 0.0
H3234 H 0.77537 0.64284 0.52711 0.0
H3235 H 0.76309 0.64608 0.54555 0.0
H3236 H 0.72512 0.61396 0.55425 0.0
C3237 C 0.71133 0.63403 0.59285 0.0
C3238 C 0.74267 0.64047 0.58281 0.0
C3239 C 0.7052 0.63693 0.60381 0.0
C3240 C 0.76729 0.63488 0.53158 0.0
C3241 C 0.76035 0.63674 0.5424 0.0
C3242 C 0.73019 0.62132 0.56223 0.0
C3243 C 0.72296 0.63549 0.59583 0.0
C3244 C 0.72983 0.63303 0.58395 0.0
C3245 C 0.75006 0.62671 0.54908 0.0
C3246 C 0.74304 0.62878 0.56113 0.0
H3247 H 0.72669 0.64641 0.63166 0.0
H3248 H 0.73699 0.64073 0.61298 0.0
H3249 H 0.71382 0.61736 0.57416 0.0
H3250 H 0.75069 0.60359 0.52985 0.0
H3251 H 0.73892 0.60681 0.54928 0.0
C3252 C 0.3584 0.07825 0.61257 0.0
C3253 C 0.35443 0.06594 0.60892 0.0
C3254 C 0.36277 0.08725 0.60143 0.0
C3255 C 0.36135 0.09206 0.56109 0.0
H3256 H 0.38983 0.12387 0.56981 0.0
C3257 C 0.3786 0.13289 0.51966 0.0
C3258 C 0.38103 0.14402 0.52636 0.0
C3259 C 0.37695 0.12302 0.52857 0.0
C3260 C 0.38185 0.11506 0.56721 0.0
H3261 H 0.35186 0.05344 0.5906 0.0
H3262 H 0.3594 0.06925 0.571 0.0
H3263 H 0.38359 0.10703 0.58758 0.0
H3264 H 0.38426 0.15374 0.54757 0.0
H3265 H 0.38121 0.13655 0.56309 0.0
H3266 H 0.35937 0.10021 0.54095 0.0
C3267 C 0.3591 0.07187 0.58256 0.0
C3268 C 0.37828 0.10541 0.57738 0.0
C3269 C 0.35476 0.06282 0.59376 0.0
C3270 C 0.38225 0.14523 0.54209 0.0
C3271 C 0.38064 0.13541 0.55097 0.0
C3272 C 0.3649 0.10174 0.55092 0.0
C3273 C 0.36324 0.08419 0.58632 0.0
C3274 C 0.36782 0.09391 0.57462 0.0
C3275 C 0.37779 0.12413 0.54435 0.0
C3276 C 0.37501 0.11343 0.55406 0.0
H3277 H 0.35799 0.08094 0.62406 0.0
H3278 H 0.36561 0.09662 0.60463 0.0
H3279 H 0.35321 0.08332 0.5587 0.0
H3280 H 0.37754 0.13167 0.50757 0.0
H3281 H 0.37488 0.11448 0.52313 0.0
C3282 C 0.93932 0.28183 0.59404 0.0
C3283 C 0.93729 0.28794 0.60598 0.0
C3284 C 0.93078 0.27661 0.58238 0.0
C3285 C 0.90496 0.27702 0.56356 0.0
H3286 H 0.89419 0.24296 0.55445 0.0
C3287 C 0.86069 0.24559 0.52976 0.0
C3288 C 0.86044 0.2362 0.52095 0.0
C3289 C 0.87092 0.25304 0.53872 0.0
C3290 C 0.89723 0.25254 0.55658 0.0
H3291 H 0.92501 0.29384 0.61477 0.0
H3292 H 0.91008 0.28474 0.59435 0.0
H3293 H 0.91066 0.25403 0.57245 0.0
H3294 H 0.87085 0.22769 0.51373 0.0
H3295 H 0.88889 0.24095 0.52886 0.0
H3296 H 0.89154 0.27554 0.54763 0.0
C3297 C 0.91827 0.28397 0.59403 0.0
C3298 C 0.90666 0.25887 0.56696 0.0
C3299 C 0.92675 0.28908 0.60578 0.0
C3300 C 0.87079 0.23478 0.52063 0.0
C3301 C 0.88107 0.24232 0.52937 0.0
C3302 C 0.89559 0.27071 0.55302 0.0
C3303 C 0.9201 0.27752 0.58235 0.0
C3304 C 0.91056 0.27113 0.57066 0.0
C3305 C 0.88115 0.25133 0.53887 0.0
C3306 C 0.89154 0.25835 0.54948 0.0
H3307 H 0.94733 0.28075 0.59395 0.0
H3308 H 0.93245 0.27176 0.57345 0.0
H3309 H 0.90786 0.28651 0.56613 0.0
H3310 H 0.85277 0.2468 0.53022 0.0
H3311 H 0.87059 0.25979 0.54597 0.0
C3312 C 0.36641 0.28815 0.61489 0.0
C3313 C 0.35893 0.29311 0.61124 0.0
C3314 C 0.37037 0.28309 0.60372 0.0
C3315 C 0.36258 0.26996 0.56528 0.0
H3316 H 0.3944 0.27225 0.56781 0.0
C3317 C 0.37898 0.2478 0.5208 0.0
C3318 C 0.38302 0.24017 0.52693 0.0
C3319 C 0.37738 0.25591 0.53005 0.0
C3320 C 0.38549 0.27155 0.56697 0.0
H3321 H 0.34984 0.29668 0.59284 0.0
H3322 H 0.3571 0.28827 0.57333 0.0
H3323 H 0.38899 0.2834 0.5859 0.0
H3324 H 0.38917 0.23547 0.54728 0.0
H3325 H 0.38651 0.2497 0.56341 0.0
H3326 H 0.35909 0.25807 0.54636 0.0
C3327 C 0.35973 0.28809 0.58489 0.0
C3328 C 0.38236 0.27788 0.57737 0.0
C3329 C 0.3557 0.29308 0.59608 0.0
C3330 C 0.38597 0.2412 0.54231 0.0
C3331 C 0.38453 0.2494 0.5515 0.0
C3332 C 0.36576 0.26373 0.5548 0.0
C3333 C 0.36703 0.28293 0.58858 0.0
C3334 C 0.37077 0.27699 0.57682 0.0
C3335 C 0.37997 0.25665 0.54554 0.0
C3336 C 0.37717 0.26429 0.55569 0.0
H3337 H 0.36922 0.28817 0.62641 0.0
H3338 H 0.37584 0.27906 0.60705 0.0
H3339 H 0.35351 0.2689 0.56463 0.0
H3340 H 0.37657 0.24712 0.50899 0.0
H3341 H 0.37394 0.26145 0.52514 0.0
C3342 C 0.70492 0.07202 0.60486 0.0
C3343 C 0.71018 0.06463 0.60735 0.0
C3344 C 0.70947 0.08093 0.59355 0.0
C3345 C 0.72903 0.09103 0.55925 0.0
H3346 H 0.73433 0.12319 0.57013 0.0
C3347 C 0.75242 0.13229 0.51855 0.0
C3348 C 0.76176 0.14318 0.52507 0.0
C3349 C 0.74429 0.12246 0.52764 0.0
C3350 C 0.7329 0.11426 0.56691 0.0
H3351 H 0.72424 0.0607 0.5998 0.0
H3352 H 0.73222 0.07628 0.58015 0.0
H3353 H 0.7237 0.10611 0.58759 0.0
H3354 H 0.76953 0.15254 0.54619 0.0
H3355 H 0.75553 0.13539 0.56201 0.0
H3356 H 0.73873 0.09933 0.53885 0.0
C3357 C 0.72445 0.07506 0.58676 0.0
C3358 C 0.72669 0.10443 0.57685 0.0
C3359 C 0.71989 0.06614 0.59805 0.0
C3360 C 0.76252 0.14421 0.54084 0.0
C3361 C 0.7544 0.13442 0.5499 0.0
C3362 C 0.73525 0.10087 0.54931 0.0
C3363 C 0.71938 0.08266 0.58449 0.0
C3364 C 0.72489 0.09276 0.57326 0.0
C3365 C 0.74531 0.12336 0.54342 0.0
C3366 C 0.73748 0.11265 0.55316 0.0
H3367 H 0.69729 0.07093 0.61168 0.0
H3368 H 0.70524 0.08651 0.59193 0.0
H3369 H 0.72764 0.08211 0.55606 0.0
H3370 H 0.75165 0.13121 0.50642 0.0
H3371 H 0.73731 0.1141 0.52232 0.0
C3372 C 0.93377 0.6522 0.5962 0.0
C3373 C 0.93085 0.64687 0.61061 0.0
C3374 C 0.92475 0.64847 0.58508 0.0
C3375 C 0.89305 0.62365 0.57524 0.0
H3376 H 0.8941 0.64867 0.54889 0.0
C3377 C 0.85214 0.61729 0.5387 0.0
C3378 C 0.85482 0.62177 0.52385 0.0
C3379 C 0.86159 0.61944 0.54868 0.0
C3380 C 0.89377 0.64156 0.55606 0.0
H3381 H 0.91609 0.63313 0.62442 0.0
H3382 H 0.90028 0.62708 0.60533 0.0
H3383 H 0.91019 0.6543 0.56754 0.0
H3384 H 0.86956 0.63152 0.5077 0.0
H3385 H 0.88603 0.63553 0.52525 0.0
H3386 H 0.87631 0.61102 0.56398 0.0
C3387 C 0.90961 0.63398 0.60249 0.0
C3388 C 0.90302 0.64476 0.56673 0.0
C3389 C 0.91867 0.63761 0.61355 0.0
C3390 C 0.86716 0.62817 0.51913 0.0
C3391 C 0.87661 0.63043 0.52915 0.0
C3392 C 0.88371 0.62048 0.56467 0.0
C3393 C 0.91252 0.6394 0.58812 0.0
C3394 C 0.90278 0.63586 0.5765 0.0
C3395 C 0.87392 0.62623 0.54407 0.0
C3396 C 0.88398 0.62941 0.55499 0.0
H3397 H 0.94299 0.65945 0.59352 0.0
H3398 H 0.9274 0.65272 0.57409 0.0
H3399 H 0.89266 0.6165 0.58237 0.0
H3400 H 0.84277 0.61248 0.54281 0.0
H3401 H 0.85928 0.61619 0.56017 0.0
C3402 C 0.95104 0.70341 0.73156 0.0
C3403 C 0.95485 0.69487 0.73455 0.0
C3404 C 0.945 0.70636 0.74261 0.0
C3405 C 0.92743 0.6943 0.77817 0.0
H3406 H 0.93253 0.72723 0.78196 0.0
C3407 C 0.90689 0.70824 0.82715 0.0
C3408 C 0.90053 0.71433 0.82307 0.0
C3409 C 0.91423 0.70659 0.81667 0.0
C3410 C 0.93099 0.71799 0.78097 0.0
H3411 H 0.95526 0.68277 0.75164 0.0
H3412 H 0.9453 0.68831 0.77098 0.0
H3413 H 0.9441 0.723 0.76311 0.0
H3414 H 0.89715 0.72364 0.80477 0.0
H3415 H 0.9102 0.72097 0.78662 0.0
H3416 H 0.91444 0.68934 0.79615 0.0
C3417 C 0.94673 0.69256 0.76001 0.0
C3418 C 0.93757 0.71554 0.77014 0.0
C3419 C 0.95265 0.68952 0.74894 0.0
C3420 C 0.90204 0.71907 0.80839 0.0
C3421 C 0.90948 0.71751 0.79796 0.0
C3422 C 0.92097 0.69678 0.78908 0.0
C3423 C 0.94269 0.7009 0.75695 0.0
C3424 C 0.93585 0.70364 0.76858 0.0
C3425 C 0.91549 0.71108 0.80193 0.0
C3426 C 0.92265 0.70863 0.79057 0.0
H3427 H 0.95271 0.70783 0.72068 0.0
H3428 H 0.94193 0.71274 0.73978 0.0
H3429 H 0.92564 0.68497 0.7771 0.0
H3430 H 0.90616 0.70469 0.83843 0.0
H3431 H 0.91891 0.70175 0.8201 0.0
C3432 C 0.30234 0.25237 0.72875 0.0
C3433 C 0.30724 0.26463 0.73342 0.0
C3434 C 0.29867 0.24296 0.73931 0.0
C3435 C 0.29084 0.23542 0.77971 0.0
H3436 H 0.29929 0.21031 0.77144 0.0
C3437 C 0.28992 0.20182 0.82481 0.0
C3438 C 0.28548 0.18957 0.82041 0.0
C3439 C 0.29142 0.21067 0.81423 0.0
C3440 C 0.29671 0.21715 0.77383 0.0
H3441 H 0.31177 0.27654 0.75294 0.0
H3442 H 0.30571 0.26017 0.77137 0.0
H3443 H 0.30414 0.22635 0.75296 0.0
H3444 H 0.27894 0.17695 0.80149 0.0
H3445 H 0.28145 0.19237 0.78303 0.0
H3446 H 0.28365 0.22629 0.80078 0.0
C3447 C 0.30456 0.2578 0.75952 0.0
C3448 C 0.29948 0.22636 0.76323 0.0
C3449 C 0.30819 0.26722 0.74894 0.0
C3450 C 0.28229 0.18629 0.80526 0.0
C3451 C 0.28385 0.19514 0.79466 0.0
C3452 C 0.28812 0.22623 0.79037 0.0
C3453 C 0.29987 0.24557 0.75483 0.0
C3454 C 0.29661 0.23562 0.76603 0.0
C3455 C 0.28858 0.20746 0.79899 0.0
C3456 C 0.29105 0.21701 0.78755 0.0
H3457 H 0.30159 0.25004 0.7169 0.0
H3458 H 0.29493 0.23362 0.7353 0.0
H3459 H 0.28835 0.24231 0.78215 0.0
H3460 H 0.29236 0.20459 0.83644 0.0
H3461 H 0.29515 0.22009 0.8179 0.0
C3462 C 0.73426 0.04409 0.74827 0.0
C3463 C 0.7377 0.04313 0.73346 0.0
C3464 C 0.74314 0.04998 0.75943 0.0
C3465 C 0.77591 0.06136 0.76862 0.0
H3466 H 0.77102 0.08231 0.79644 0.0
C3467 C 0.80907 0.08637 0.81827 0.0
C3468 C 0.81168 0.09838 0.82145 0.0
C3469 C 0.7999 0.07907 0.80791 0.0
C3470 C 0.77259 0.07657 0.7887 0.0
H3471 H 0.75322 0.04737 0.71894 0.0
H3472 H 0.76873 0.05804 0.73828 0.0
H3473 H 0.75553 0.07072 0.77753 0.0
H3474 H 0.80699 0.11229 0.81601 0.0
H3475 H 0.79117 0.09969 0.79782 0.0
H3476 H 0.79323 0.06763 0.77945 0.0
C3477 C 0.75914 0.05405 0.74132 0.0
C3478 C 0.7636 0.06977 0.77797 0.0
C3479 C 0.75025 0.04807 0.73017 0.0
C3480 C 0.80502 0.10298 0.81399 0.0
C3481 C 0.79593 0.09574 0.80359 0.0
C3482 C 0.78495 0.06823 0.77931 0.0
C3483 C 0.7557 0.05518 0.75606 0.0
C3484 C 0.76516 0.06211 0.76775 0.0
C3485 C 0.7932 0.08367 0.80046 0.0
C3486 C 0.78343 0.07599 0.78942 0.0
H3487 H 0.72472 0.04054 0.7512 0.0
H3488 H 0.74013 0.05052 0.7707 0.0
H3489 H 0.77735 0.05544 0.76104 0.0
H3490 H 0.814 0.08256 0.82395 0.0
H3491 H 0.79793 0.06976 0.80592 0.0
C3492 C 0.05639 0.32629 0.03121 0.0
C3493 C 0.05209 0.33325 0.03867 0.0
C3494 C 0.06345 0.32233 0.03887 0.0
C3495 C 0.08149 0.32744 0.07406 0.0
H3496 H 0.07518 0.29445 0.06615 0.0
C3497 C 0.09748 0.30243 0.11404 0.0
C3498 C 0.10371 0.29694 0.10744 0.0
C3499 C 0.09138 0.30679 0.10511 0.0
C3500 C 0.0771 0.30371 0.06837 0.0
H3501 H 0.0518 0.34154 0.05997 0.0
H3502 H 0.06387 0.33446 0.07344 0.0
H3503 H 0.06456 0.30261 0.05142 0.0
H3504 H 0.10814 0.29149 0.08619 0.0
H3505 H 0.09718 0.29882 0.07063 0.0
H3506 H 0.09376 0.32835 0.09133 0.0
C3507 C 0.0621 0.3323 0.06157 0.0
C3508 C 0.07107 0.30843 0.0599 0.0
C3509 C 0.05516 0.33635 0.05386 0.0
C3510 C 0.10332 0.29553 0.09169 0.0
C3511 C 0.0971 0.29977 0.08275 0.0
C3512 C 0.0874 0.32267 0.08263 0.0
C3513 C 0.06626 0.32514 0.05422 0.0
C3514 C 0.07313 0.32033 0.0627 0.0
C3515 C 0.09124 0.30562 0.08937 0.0
C3516 C 0.0852 0.31073 0.07995 0.0
H3517 H 0.05423 0.32385 0.01945 0.0
H3518 H 0.06668 0.31704 0.03277 0.0
H3519 H 0.08351 0.33672 0.07633 0.0
H3520 H 0.09734 0.30342 0.12615 0.0
H3521 H 0.08675 0.31106 0.11052 0.0
C3522 C 0.66257 0.71965 0.0402 0.0
C3523 C 0.66314 0.70985 0.04694 0.0
C3524 C 0.66754 0.73104 0.04745 0.0
C3525 C 0.67577 0.74539 0.08471 0.0
H3526 H 0.69742 0.77538 0.06306 0.0
C3527 C 0.7019 0.79144 0.11583 0.0
C3528 C 0.70275 0.80181 0.10882 0.0
C3529 C 0.69774 0.78051 0.10783 0.0
C3530 C 0.69127 0.76711 0.06923 0.0
H3531 H 0.66958 0.70448 0.06657 0.0
H3532 H 0.67789 0.7242 0.07934 0.0
H3533 H 0.68827 0.75563 0.04996 0.0
H3534 H 0.70022 0.80903 0.08788 0.0
H3535 H 0.69267 0.78983 0.07391 0.0
H3536 H 0.67846 0.75674 0.10387 0.0
C3537 C 0.67354 0.72302 0.06847 0.0
C3538 C 0.68606 0.75581 0.06172 0.0
C3539 C 0.6687 0.7117 0.06117 0.0
C3540 C 0.69974 0.80118 0.09351 0.0
C3541 C 0.69543 0.79018 0.08552 0.0
C3542 C 0.68086 0.75666 0.09217 0.0
C3543 C 0.67306 0.73282 0.06166 0.0
C3544 C 0.67832 0.74484 0.06942 0.0
C3545 C 0.69418 0.77964 0.09266 0.0
C3546 C 0.68876 0.76767 0.08457 0.0
H3547 H 0.65821 0.71853 0.02936 0.0
H3548 H 0.66693 0.73841 0.04203 0.0
H3549 H 0.66969 0.73708 0.09086 0.0
H3550 H 0.70433 0.79176 0.12759 0.0
H3551 H 0.69722 0.77269 0.11359 0.0
C3552 C 0.27729 0.94051 0.04779 0.0
C3553 C 0.27992 0.95005 0.03761 0.0
C3554 C 0.26575 0.93409 0.05467 0.0
C3555 C 0.2406 0.93829 0.06695 0.0
H3556 H 0.22203 0.90276 0.07029 0.0
C3557 C 0.20195 0.91188 0.11049 0.0
C3558 C 0.19111 0.90169 0.10516 0.0
C3559 C 0.21218 0.91798 0.10107 0.0
C3560 C 0.22708 0.91268 0.06933 0.0
H3561 H 0.27258 0.9603 0.02653 0.0
H3562 H 0.25245 0.94915 0.03867 0.0
H3563 H 0.24114 0.91265 0.05567 0.0
H3564 H 0.18236 0.88993 0.08587 0.0
H3565 H 0.20037 0.90055 0.06942 0.0
H3566 H 0.22672 0.93835 0.08092 0.0
C3567 C 0.25929 0.94661 0.04125 0.0
C3568 C 0.23803 0.91832 0.06109 0.0
C3569 C 0.27075 0.9529 0.03422 0.0
C3570 C 0.19059 0.89784 0.09018 0.0
C3571 C 0.20089 0.90383 0.08084 0.0
C3572 C 0.22976 0.93266 0.07538 0.0
C3573 C 0.25673 0.93724 0.05165 0.0
C3574 C 0.2449 0.93118 0.05987 0.0
C3575 C 0.2118 0.91389 0.08625 0.0
C3576 C 0.22294 0.91982 0.0767 0.0
H3577 H 0.2842 0.93812 0.05055 0.0
H3578 H 0.26402 0.92695 0.06272 0.0
H3579 H 0.24578 0.94822 0.06628 0.0
H3580 H 0.20255 0.91502 0.12199 0.0
H3581 H 0.22051 0.92568 0.10553 0.0
C3582 C 0.31272 0.04138 0.98085 0.0
C3583 C 0.32535 0.0459 0.98289 0.0
C3584 C 0.30862 0.04849 0.97362 0.0
C3585 C 0.31864 0.08034 0.96117 0.0
H3586 H 0.2921 0.0639 0.93237 0.0
C3587 C 0.30876 0.10642 0.91553 0.0
C3588 C 0.29647 0.10341 0.91355 0.0
C3589 C 0.31166 0.09927 0.9247 0.0
C3590 C 0.29942 0.06858 0.9405 0.0
H3591 H 0.34355 0.06164 0.97938 0.0
H3592 H 0.33643 0.07385 0.96633 0.0
H3593 H 0.29839 0.05185 0.94747 0.0
H3594 H 0.27758 0.09032 0.91951 0.0
H3595 H 0.28268 0.07762 0.93529 0.0
H3596 H 0.31989 0.09711 0.95382 0.0
C3597 C 0.32966 0.06488 0.97052 0.0
C3598 C 0.30301 0.06169 0.9492 0.0
C3599 C 0.33376 0.05781 0.97784 0.0
C3600 C 0.28712 0.09285 0.92066 0.0
C3601 C 0.29003 0.0856 0.92974 0.0
C3602 C 0.31512 0.08723 0.95238 0.0
C3603 C 0.31704 0.06026 0.96816 0.0
C3604 C 0.31275 0.0675 0.95954 0.0
C3605 C 0.30234 0.08884 0.93198 0.0
C3606 C 0.30557 0.08143 0.94186 0.0
H3607 H 0.30597 0.0322 0.98443 0.0
H3608 H 0.29883 0.0447 0.97219 0.0
H3609 H 0.326 0.0851 0.96923 0.0
H3610 H 0.31618 0.11431 0.90994 0.0
H3611 H 0.32121 0.10184 0.92598 0.0
C3612 C 0.96189 0.28216 0.96085 0.0
C3613 C 0.95772 0.28443 0.97453 0.0
C3614 C 0.95537 0.27074 0.95377 0.0
C3615 C 0.92475 0.24257 0.95266 0.0
H3616 H 0.94248 0.22879 0.9325 0.0
C3617 C 0.89989 0.1936 0.92857 0.0
C3618 C 0.90283 0.19241 0.9136 0.0
C3619 C 0.90714 0.20442 0.93661 0.0
C3620 C 0.93742 0.23257 0.93802 0.0
H3621 H 0.94331 0.27642 0.9914 0.0
H3622 H 0.93215 0.25637 0.97931 0.0
H3623 H 0.95387 0.24854 0.94542 0.0
H3624 H 0.91598 0.20145 0.89556 0.0
H3625 H 0.92876 0.22034 0.90973 0.0
H3626 H 0.90832 0.22655 0.94534 0.0
C3627 C 0.94037 0.26351 0.97392 0.0
C3628 C 0.94393 0.24389 0.94538 0.0
C3629 C 0.94685 0.27497 0.98095 0.0
C3630 C 0.91353 0.20205 0.90711 0.0
C3631 C 0.92083 0.21287 0.9152 0.0
C3632 C 0.91826 0.23122 0.94541 0.0
C3633 C 0.94456 0.26124 0.96025 0.0
C3634 C 0.93767 0.24907 0.95271 0.0
C3635 C 0.91754 0.21426 0.92991 0.0
C3636 C 0.92453 0.22612 0.93797 0.0
H3637 H 0.97033 0.28914 0.95569 0.0
H3638 H 0.95878 0.26939 0.94315 0.0
H3639 H 0.91963 0.24637 0.95794 0.0
H3640 H 0.89185 0.18624 0.934 0.0
H3641 H 0.90452 0.20515 0.94803 0.0
C3642 C 0.71422 0.66125 0.96785 0.0
C3643 C 0.71028 0.66933 0.97283 0.0
C3644 C 0.72555 0.66576 0.96062 0.0
C3645 C 0.75587 0.69326 0.9567 0.0
H3646 H 0.75776 0.6784 0.91921 0.0
C3647 C 0.80151 0.70317 0.92862 0.0
C3648 C 0.80247 0.70524 0.913 0.0
C3649 C 0.79039 0.69937 0.93606 0.0
C3650 C 0.75735 0.68267 0.92963 0.0
H3651 H 0.71519 0.68852 0.97377 0.0
H3652 H 0.73506 0.69633 0.96157 0.0
H3653 H 0.738 0.67031 0.9321 0.0
H3654 H 0.79263 0.70509 0.89294 0.0
H3655 H 0.77311 0.69833 0.90597 0.0
H3656 H 0.77524 0.70558 0.95427 0.0
C3657 C 0.72938 0.68652 0.96337 0.0
C3658 C 0.74608 0.67797 0.93707 0.0
C3659 C 0.718 0.68203 0.97043 0.0
C3660 C 0.79216 0.70364 0.90501 0.0
C3661 C 0.78098 0.69968 0.91242 0.0
C3662 C 0.76717 0.69786 0.94936 0.0
C3663 C 0.73324 0.67844 0.95835 0.0
C3664 C 0.74523 0.68325 0.95064 0.0
C3665 C 0.77997 0.6974 0.92799 0.0
C3666 C 0.768 0.69264 0.93573 0.0
H3667 H 0.70861 0.65145 0.96969 0.0
H3668 H 0.72838 0.65934 0.95697 0.0
H3669 H 0.75547 0.69746 0.96719 0.0
H3670 H 0.80936 0.7044 0.93504 0.0
H3671 H 0.78984 0.69762 0.94806 0.0
C3672 C 0.9423 0.66404 0.97377 0.0
C3673 C 0.95395 0.67251 0.97952 0.0
C3674 C 0.93521 0.6681 0.96642 0.0
C3675 C 0.93809 0.69503 0.94621 0.0
H3676 H 0.90266 0.67785 0.95065 0.0
C3677 C 0.90729 0.71187 0.91921 0.0
C3678 C 0.89641 0.70278 0.91237 0.0
C3679 C 0.91449 0.70858 0.92778 0.0
C3680 C 0.91255 0.68269 0.94922 0.0
H3681 H 0.96718 0.69193 0.98218 0.0
H3682 H 0.95466 0.699 0.96976 0.0
H3683 H 0.91469 0.67141 0.96547 0.0
H3684 H 0.88487 0.68316 0.90866 0.0
H3685 H 0.89737 0.67746 0.92367 0.0
H3686 H 0.9359 0.70631 0.92995 0.0
C3687 C 0.95109 0.68921 0.97073 0.0
C3688 C 0.91944 0.67899 0.9577 0.0
C3689 C 0.9582 0.68515 0.97804 0.0
C3690 C 0.89305 0.69037 0.91405 0.0
C3691 C 0.9002 0.6871 0.92264 0.0
C3692 C 0.9312 0.69876 0.93778 0.0
C3693 C 0.93957 0.68074 0.96468 0.0
C3694 C 0.93229 0.68504 0.95619 0.0
C3695 C 0.91094 0.69615 0.92971 0.0
C3696 C 0.91834 0.69255 0.93909 0.0
H3697 H 0.93869 0.65425 0.97486 0.0
H3698 H 0.92643 0.66132 0.96177 0.0
H3699 H 0.94796 0.69977 0.94461 0.0
H3700 H 0.91007 0.72149 0.91827 0.0
H3701 H 0.92269 0.71575 0.93318 0.0
C3702 C 0.34129 0.28712 0.96485 0.0
C3703 C 0.33354 0.28892 0.97461 0.0
C3704 C 0.33702 0.2759 0.95744 0.0
C3705 C 0.30862 0.24888 0.94437 0.0
H3706 H 0.32914 0.23415 0.94095 0.0
C3707 C 0.29163 0.20094 0.9176 0.0
C3708 C 0.3001 0.19961 0.90864 0.0
C3709 C 0.29537 0.21171 0.9259 0.0
C3710 C 0.32335 0.23821 0.94165 0.0
H3711 H 0.31524 0.2804 0.98426 0.0
H3712 H 0.3078 0.26075 0.97139 0.0
H3713 H 0.33643 0.25308 0.95529 0.0
H3714 H 0.31896 0.2087 0.90076 0.0
H3715 H 0.32545 0.22751 0.91504 0.0
H3716 H 0.29561 0.23409 0.93057 0.0
C3717 C 0.31717 0.26804 0.96944 0.0
C3718 C 0.32752 0.24904 0.94989 0.0
C3719 C 0.32146 0.27923 0.97692 0.0
C3720 C 0.31228 0.20938 0.9078 0.0
C3721 C 0.316 0.22013 0.91602 0.0
C3722 C 0.30447 0.23806 0.93606 0.0
C3723 C 0.32488 0.26628 0.95956 0.0
C3724 C 0.32024 0.25454 0.95126 0.0
C3725 C 0.30765 0.22137 0.92533 0.0
C3726 C 0.31183 0.23266 0.93451 0.0
H3727 H 0.35066 0.29439 0.96293 0.0
H3728 H 0.34314 0.27484 0.94979 0.0
H3729 H 0.30287 0.25299 0.94509 0.0
H3730 H 0.28221 0.19351 0.91854 0.0
H3731 H 0.28873 0.21233 0.93305 0.0
C3732 C 0.72679 0.05369 0.98504 0.0
C3733 C 0.71648 0.04467 0.97722 0.0
C3734 C 0.73819 0.0602 0.97784 0.0
C3735 C 0.75563 0.05857 0.94522 0.0
H3736 H 0.77544 0.09384 0.95056 0.0
C3737 C 0.79677 0.08949 0.90669 0.0
C3738 C 0.80708 0.09951 0.91331 0.0
C3739 C 0.78614 0.08233 0.91516 0.0
C3740 C 0.77012 0.08397 0.94912 0.0
H3741 H 0.71012 0.03525 0.95579 0.0
H3742 H 0.7299 0.04675 0.94318 0.0
H3743 H 0.75609 0.08239 0.96416 0.0
H3744 H 0.81455 0.10948 0.93417 0.0
H3745 H 0.79605 0.09693 0.94898 0.0
H3746 H 0.76961 0.06015 0.93008 0.0
C3747 C 0.72921 0.04875 0.9549 0.0
C3748 C 0.75902 0.07741 0.95691 0.0
C3749 C 0.71783 0.04228 0.96207 0.0
C3750 C 0.80667 0.10195 0.92869 0.0
C3751 C 0.79607 0.09478 0.93716 0.0
C3752 C 0.76674 0.06512 0.93744 0.0
C3753 C 0.73953 0.05776 0.9627 0.0
C3754 C 0.75159 0.06465 0.95495 0.0
C3755 C 0.78562 0.085 0.93045 0.0
C3756 C 0.77407 0.07791 0.93921 0.0
H3757 H 0.72603 0.05577 0.9967 0.0
H3758 H 0.746 0.06704 0.98418 0.0
H3759 H 0.75021 0.04871 0.94366 0.0
H3760 H 0.79676 0.08746 0.89482 0.0
H3761 H 0.7782 0.07494 0.9096 0.0
C3762 C 0.67338 0.94438 0.03301 0.0
C3763 C 0.66908 0.95093 0.04142 0.0
C3764 C 0.67797 0.93768 0.04029 0.0
C3765 C 0.69142 0.936 0.07635 0.0
H3766 H 0.68191 0.90286 0.06385 0.0
C3767 C 0.69937 0.90343 0.11364 0.0
C3768 C 0.7028 0.89555 0.10674 0.0
C3769 C 0.69615 0.9106 0.10496 0.0
C3770 C 0.68481 0.91218 0.06733 0.0
H3771 H 0.66628 0.95565 0.06403 0.0
H3772 H 0.67409 0.94385 0.07667 0.0
H3773 H 0.67437 0.91443 0.04991 0.0
H3774 H 0.70568 0.88911 0.08527 0.0
H3775 H 0.70025 0.90182 0.07006 0.0
H3776 H 0.7018 0.93378 0.09381 0.0
C3777 C 0.674 0.94394 0.06447 0.0
C3778 C 0.68047 0.91879 0.05936 0.0
C3779 C 0.66937 0.95057 0.05722 0.0
C3780 C 0.70316 0.89517 0.09093 0.0
C3781 C 0.69993 0.90234 0.08222 0.0
C3782 C 0.69578 0.92942 0.08428 0.0
C3783 C 0.67844 0.9375 0.05609 0.0
C3784 C 0.68358 0.9307 0.06393 0.0
C3785 C 0.69631 0.91008 0.08914 0.0
C3786 C 0.69238 0.91737 0.08001 0.0
H3787 H 0.67321 0.94444 0.02082 0.0
H3788 H 0.68137 0.93284 0.03354 0.0
H3789 H 0.69418 0.94526 0.07996 0.0
H3790 H 0.69914 0.90405 0.1258 0.0
H3791 H 0.69328 0.91635 0.11066 0.0
C3792 C 0.05555 0.72875 0.03309 0.0
C3793 C 0.04875 0.71801 0.04165 0.0
C3794 C 0.0628 0.7401 0.0402 0.0
C3795 C 0.07805 0.75365 0.0764 0.0
H3796 H 0.07792 0.78272 0.06236 0.0
C3797 C 0.10962 0.80104 0.10271 0.0
C3798 C 0.10431 0.80828 0.106 0.0
C3799 C 0.10343 0.79054 0.09376 0.0
C3800 C 0.07801 0.77467 0.06644 0.0
H3801 H 0.04401 0.71082 0.06438 0.0
H3802 H 0.05666 0.73052 0.07672 0.0
H3803 H 0.06587 0.76324 0.049 0.0
H3804 H 0.08844 0.81032 0.10222 0.0
H3805 H 0.07753 0.79189 0.08664 0.0
H3806 H 0.08988 0.76491 0.09405 0.0
C3807 C 0.05658 0.73017 0.06452 0.0
C3808 C 0.07122 0.76355 0.0587 0.0
C3809 C 0.04934 0.71886 0.05744 0.0
C3810 C 0.09279 0.80496 0.0998 0.0
C3811 C 0.08657 0.79443 0.09085 0.0
C3812 C 0.08484 0.76474 0.08411 0.0
C3813 C 0.06342 0.74091 0.056 0.0
C3814 C 0.07108 0.75289 0.06369 0.0
C3815 C 0.09176 0.78701 0.0879 0.0
C3816 C 0.08484 0.77536 0.07929 0.0
H3817 H 0.05536 0.72838 0.0209 0.0
H3818 H 0.06806 0.7482 0.03333 0.0
H3819 H 0.07825 0.74564 0.08043 0.0
H3820 H 0.11861 0.8035 0.10704 0.0
H3821 H 0.10779 0.78517 0.09144 0.0
C3822 C 0.2816 0.34193 0.04478 0.0
C3823 C 0.28531 0.33355 0.04042 0.0
C3824 C 0.27021 0.3378 0.0517 0.0
C3825 C 0.23982 0.31009 0.05803 0.0
H3826 H 0.23904 0.32801 0.0932 0.0
C3827 C 0.19891 0.29074 0.09975 0.0
C3828 C 0.19562 0.29904 0.1057 0.0
C3829 C 0.20943 0.29496 0.09082 0.0
C3830 C 0.23905 0.32299 0.08328 0.0
H3831 H 0.27996 0.31426 0.03991 0.0
H3832 H 0.26012 0.30708 0.05196 0.0
H3833 H 0.25812 0.33548 0.07918 0.0
H3834 H 0.20043 0.31817 0.10638 0.0
H3835 H 0.21873 0.32551 0.09078 0.0
H3836 H 0.22075 0.29753 0.06226 0.0
C3837 C 0.26592 0.31682 0.04982 0.0
C3838 C 0.24999 0.32728 0.07524 0.0
C3839 C 0.2773 0.32094 0.04291 0.0
C3840 C 0.20288 0.31158 0.10222 0.0
C3841 C 0.21336 0.31579 0.09329 0.0
C3842 C 0.22886 0.30579 0.06609 0.0
C3843 C 0.2623 0.32521 0.05443 0.0
C3844 C 0.25051 0.32086 0.06256 0.0
C3845 C 0.21684 0.30755 0.08763 0.0
C3846 C 0.22837 0.31218 0.07883 0.0
H3847 H 0.28749 0.35168 0.04282 0.0
H3848 H 0.26759 0.34447 0.05493 0.0
H3849 H 0.2399 0.30502 0.04821 0.0
H3850 H 0.19353 0.28103 0.10234 0.0
H3851 H 0.21194 0.2884 0.08676 0.0
C3852 C 0.71885 0.67299 0.38311 0.0
C3853 C 0.70657 0.66475 0.37913 0.0
C3854 C 0.72586 0.66879 0.39039 0.0
C3855 C 0.72823 0.64125 0.39641 0.0
H3856 H 0.74735 0.65878 0.4315 0.0
C3857 C 0.75349 0.62278 0.43273 0.0
C3858 C 0.7652 0.63144 0.43813 0.0
C3859 C 0.74605 0.62662 0.42574 0.0
C3860 C 0.74219 0.65386 0.42161 0.0
H3861 H 0.69203 0.64563 0.37996 0.0
H3862 H 0.70438 0.63832 0.39233 0.0
H3863 H 0.73522 0.66609 0.41855 0.0
H3864 H 0.7781 0.65096 0.44073 0.0
H3865 H 0.7654 0.65761 0.4281 0.0
H3866 H 0.73536 0.62915 0.39925 0.0
C3867 C 0.70857 0.64801 0.3897 0.0
C3868 C 0.73523 0.65805 0.41422 0.0
C3869 C 0.70152 0.65221 0.38255 0.0
C3870 C 0.76923 0.64402 0.43648 0.0
C3871 C 0.76185 0.64784 0.42943 0.0
C3872 C 0.73529 0.63712 0.40373 0.0
C3873 C 0.72079 0.65626 0.39374 0.0
C3874 C 0.7282 0.6518 0.40154 0.0
C3875 C 0.75016 0.63921 0.42398 0.0
C3876 C 0.74238 0.64339 0.4164 0.0
H3877 H 0.72309 0.68267 0.38045 0.0
H3878 H 0.73532 0.67533 0.39323 0.0
H3879 H 0.72298 0.63633 0.38657 0.0
H3880 H 0.75013 0.61303 0.43372 0.0
H3881 H 0.73704 0.61971 0.42183 0.0
C3882 C 0.33088 0.05423 0.37296 0.0
C3883 C 0.32796 0.04366 0.38138 0.0
C3884 C 0.33512 0.06556 0.38011 0.0
C3885 C 0.33612 0.07948 0.41716 0.0
H3886 H 0.36344 0.10871 0.39972 0.0
C3887 C 0.36132 0.12502 0.44985 0.0
C3888 C 0.36406 0.13579 0.44202 0.0
C3889 C 0.35714 0.11394 0.44216 0.0
C3890 C 0.35573 0.10065 0.40464 0.0
H3891 H 0.3273 0.03674 0.40392 0.0
H3892 H 0.33465 0.05647 0.41638 0.0
H3893 H 0.35537 0.08898 0.38682 0.0
H3894 H 0.36475 0.14341 0.41992 0.0
H3895 H 0.35749 0.12403 0.40645 0.0
H3896 H 0.33649 0.0911 0.435 0.0
C3897 C 0.33349 0.05597 0.40427 0.0
C3898 C 0.35109 0.08935 0.39725 0.0
C3899 C 0.32926 0.04465 0.39712 0.0
C3900 C 0.36283 0.1353 0.42626 0.0
C3901 C 0.35867 0.1242 0.41855 0.0
C3902 C 0.34075 0.09075 0.42455 0.0
C3903 C 0.33653 0.06657 0.39584 0.0
C3904 C 0.34127 0.07863 0.40347 0.0
C3905 C 0.35563 0.11337 0.42645 0.0
C3906 C 0.35065 0.10145 0.41842 0.0
H3907 H 0.32982 0.05374 0.36084 0.0
H3908 H 0.3372 0.07351 0.37333 0.0
H3909 H 0.3284 0.07143 0.42211 0.0
H3910 H 0.3624 0.12515 0.46196 0.0
H3911 H 0.35512 0.10581 0.44853 0.0
C3912 C 0.95129 0.28855 0.39226 0.0
C3913 C 0.95299 0.28733 0.37684 0.0
C3914 C 0.93957 0.28229 0.39864 0.0
C3915 C 0.90847 0.25584 0.3928 0.0
H3916 H 0.8996 0.2724 0.42293 0.0
C3917 C 0.86049 0.23266 0.42077 0.0
C3918 C 0.86069 0.23346 0.43656 0.0
C3919 C 0.87117 0.23992 0.41241 0.0
C3920 C 0.90197 0.26765 0.41456 0.0
H3921 H 0.94373 0.2784 0.35607 0.0
H3922 H 0.92321 0.26762 0.36718 0.0
H3923 H 0.91948 0.28356 0.41034 0.0
H3924 H 0.872 0.24282 0.45596 0.0
H3925 H 0.89062 0.25546 0.44142 0.0
H3926 H 0.89098 0.2399 0.39718 0.0
C3927 C 0.93097 0.27335 0.37435 0.0
C3928 C 0.91336 0.27402 0.40738 0.0
C3929 C 0.94271 0.27962 0.36796 0.0
C3930 C 0.87162 0.24195 0.4438 0.0
C3931 C 0.88225 0.24926 0.43547 0.0
C3932 C 0.89705 0.24948 0.39996 0.0
C3933 C 0.92927 0.27468 0.38975 0.0
C3934 C 0.91683 0.26813 0.39661 0.0
C3935 C 0.88219 0.24819 0.41971 0.0
C3936 C 0.89377 0.25527 0.41109 0.0
H3937 H 0.95899 0.29453 0.39938 0.0
H3938 H 0.93861 0.28337 0.41058 0.0
H3939 H 0.91091 0.25101 0.38466 0.0
H3940 H 0.85219 0.22614 0.41492 0.0
H3941 H 0.87084 0.23899 0.40027 0.0
C3942 C 0.00062 0.37953 0.30282 0.0
C3943 C 0.01128 0.38244 0.31106 0.0
C3944 C -0.00067 0.38875 0.29592 0.0
C3945 C 0.01696 0.41914 0.27961 0.0
H3946 H 0.98695 0.42037 0.28393 0.0
C3947 C 0.01126 0.45721 0.25151 0.0
C3948 C -0.00032 0.45379 0.24549 0.0
C3949 C 0.01285 0.44903 0.26051 0.0
C3950 C 0.99533 0.42007 0.28244 0.0
H3951 H 0.02884 0.39746 0.3187 0.0
H3952 H 0.0267 0.41351 0.30616 0.0
H3953 H 0.98935 0.40501 0.29778 0.0
H3954 H 0.98072 0.43918 0.24396 0.0
H3955 H 0.98351 0.42473 0.25924 0.0
H3956 H 0.02281 0.43384 0.26386 0.0
C3957 C 0.01937 0.40405 0.30513 0.0
C3958 C 0.99672 0.41131 0.29044 0.0
C3959 C 0.02061 0.39483 0.31223 0.0
C3960 C 0.98971 0.44207 0.24861 0.0
C3961 C 0.99132 0.43383 0.25744 0.0
C3962 C 0.01552 0.42779 0.27144 0.0
C3963 C 0.00873 0.40107 0.29692 0.0
C3964 C 0.00751 0.41073 0.28903 0.0
C3965 C 0.00291 0.4372 0.26351 0.0
C3966 C 0.00465 0.42832 0.27267 0.0
H3967 H 0.99336 0.37008 0.3014 0.0
H3968 H 0.9911 0.38622 0.28947 0.0
H3969 H 0.02532 0.41878 0.27822 0.0
H3970 H 0.01906 0.46626 0.24939 0.0
H3971 H 0.02185 0.45204 0.26521 0.0
C3972 C 0.60812 0.61316 0.31224 0.0
C3973 C 0.61857 0.6228 0.3053 0.0
C3974 C 0.60169 0.6016 0.3054 0.0
C3975 C 0.6051 0.58245 0.27594 0.0
H3976 H 0.56955 0.56349 0.27834 0.0
C3977 C 0.57479 0.5415 0.23695 0.0
C3978 C 0.565 0.53103 0.2436 0.0
C3979 C 0.5818 0.55213 0.24544 0.0
C3980 C 0.57949 0.56863 0.27774 0.0
H3981 H 0.63041 0.62776 0.28564 0.0
H3982 H 0.6189 0.60788 0.27344 0.0
H3983 H 0.5806 0.58336 0.29099 0.0
H3984 H 0.55496 0.52336 0.26435 0.0
H3985 H 0.56718 0.54206 0.27921 0.0
H3986 H 0.60387 0.56785 0.26223 0.0
C3987 C 0.61581 0.60913 0.28435 0.0
C3988 C 0.58584 0.58 0.285 0.0
C3989 C 0.62231 0.62064 0.29124 0.0
C3990 C 0.56252 0.53129 0.25899 0.0
C3991 C 0.56943 0.54199 0.26744 0.0
C3992 C 0.59873 0.57115 0.26854 0.0
C3993 C 0.60549 0.59942 0.29139 0.0
C3994 C 0.59872 0.58711 0.2841 0.0
C3995 C 0.57905 0.55255 0.2607 0.0
C3996 C 0.58586 0.56417 0.26929 0.0
H3997 H 0.60488 0.61451 0.32298 0.0
H3998 H 0.59385 0.59433 0.31124 0.0
H3999 H 0.61503 0.58753 0.27527 0.0
H4000 H 0.57691 0.54151 0.22511 0.0
H4001 H 0.58911 0.56017 0.23993 0.0
C4002 C 0.36338 0.97569 0.29574 0.0
C4003 C 0.36503 0.98335 0.30808 0.0
C4004 C 0.37352 0.97678 0.28792 0.0
C4005 C 0.40743 0.99029 0.29088 0.0
H4006 H 0.40518 0.98592 0.24752 0.0
C4007 C 0.44949 0.00438 0.25222 0.0
C4008 C 0.44836 0.99545 0.24181 0.0
C4009 C 0.4393 0.00266 0.26051 0.0
C4010 C 0.40589 0.98708 0.25964 0.0
H4011 H 0.37848 0.99821 0.3219 0.0
H4012 H 0.39621 0.00044 0.30801 0.0
H4013 H 0.38745 0.98343 0.26165 0.0
H4014 H 0.43574 0.97786 0.23169 0.0
H4015 H 0.41784 0.97495 0.24605 0.0
H4016 H 0.42604 0.99431 0.28868 0.0
C4017 C 0.38713 0.99332 0.30458 0.0
C4018 C 0.39572 0.98559 0.26777 0.0
C4019 C 0.37699 0.9921 0.31252 0.0
C4020 C 0.43685 0.98484 0.23973 0.0
C4021 C 0.42663 0.98321 0.24785 0.0
C4022 C 0.41764 0.99194 0.28271 0.0
C4023 C 0.38554 0.9857 0.29215 0.0
C4024 C 0.39635 0.98716 0.28351 0.0
C4025 C 0.42777 0.99208 0.25836 0.0
C4026 C 0.41696 0.99033 0.26702 0.0
H4027 H 0.35424 0.96877 0.29221 0.0
H4028 H 0.37193 0.97058 0.27862 0.0
H4029 H 0.4082 0.99134 0.303 0.0
H4030 H 0.45829 0.01261 0.25408 0.0
H4031 H 0.4404 0.00967 0.26848 0.0
C4032 C 0.60612 0.98455 0.31768 0.0
C4033 C 0.61757 0.98863 0.31073 0.0
C4034 C 0.59707 0.98604 0.31053 0.0
C4035 C 0.59269 0.0037 0.28036 0.0
H4036 H 0.55893 0.9769 0.28115 0.0
C4037 C 0.55332 0.00815 0.25395 0.0
C4038 C 0.54455 0.99802 0.24563 0.0
C4039 C 0.56194 0.00716 0.26279 0.0
C4040 C 0.56832 0.98444 0.28076 0.0
H4041 H 0.62845 0.99731 0.29077 0.0
H4042 H 0.61268 -0.00017 0.27829 0.0
H4043 H 0.57466 0.97494 0.29471 0.0
H4044 H 0.53798 0.97895 0.23997 0.0
H4045 H 0.55309 0.97725 0.25528 0.0
H4046 H 0.58645 0.01305 0.26601 0.0
C4047 C 0.61076 0.99571 0.28938 0.0
C4048 C 0.57731 0.98338 0.28869 0.0
C4049 C 0.61979 0.99426 0.29653 0.0
C4050 C 0.54452 0.98687 0.24642 0.0
C4051 C 0.55317 0.98589 0.25521 0.0
C4052 C 0.58371 0.00476 0.27242 0.0
C4053 C 0.59928 0.99161 0.29628 0.0
C4054 C 0.58962 0.99295 0.28846 0.0
C4055 C 0.56201 0.99604 0.26346 0.0
C4056 C 0.57144 0.9951 0.27243 0.0
H4057 H 0.6042 0.98032 0.32871 0.0
H4058 H 0.58839 0.98292 0.31624 0.0
H4059 H 0.60206 0.01131 0.28011 0.0
H4060 H 0.55344 0.01681 0.25375 0.0
H4061 H 0.5685 0.0151 0.2692 0.0
C4062 C 0.00156 0.62032 0.30878 0.0
C4063 C 0.01287 0.63138 0.30877 0.0
C4064 C 0.0004 0.6099 0.30159 0.0
C4065 C 0.01509 0.60093 0.27206 0.0
H4066 H 0.99422 0.5682 0.28811 0.0
C4067 C 0.01188 0.55779 0.24478 0.0
C4068 C -3e-05 0.54768 0.24285 0.0
C4069 C 0.0138 0.56785 0.25351 0.0
C4070 C 1e-05 0.57729 0.28346 0.0
H4071 H 0.03194 0.64009 0.30184 0.0
H4072 H 0.02997 0.62187 0.28948 0.0
H4073 H 0.99711 0.58603 0.30244 0.0
H4074 H 0.98075 0.54026 0.24856 0.0
H4075 H 0.98416 0.55778 0.26394 0.0
H4076 H 0.018 0.59217 0.25311 0.0
C4077 C 0.02192 0.62131 0.2947 0.0
C4078 C 0.00166 0.5875 0.29165 0.0
C4079 C 0.02306 0.63174 0.30179 0.0
C4080 C 0.99006 0.54782 0.24999 0.0
C4081 C 0.992 0.55785 0.25879 0.0
C4082 C 0.0135 0.59073 0.26394 0.0
C4083 C 0.01054 0.61031 0.29434 0.0
C4084 C 0.00915 0.59944 0.28599 0.0
C4085 C 0.00388 0.56799 0.26057 0.0
C4086 C 0.00588 0.5788 0.2695 0.0
H4087 H 0.99352 0.61982 0.31395 0.0
H4088 H 0.99145 0.60164 0.30136 0.0
H4089 H 0.02074 0.60998 0.26724 0.0
H4090 H 0.01975 0.55789 0.23968 0.0
H4091 H 0.02308 0.57548 0.25485 0.0
C4092 C 0.3806 0.38025 0.29258 0.0
C4093 C 0.37949 0.3801 0.30835 0.0
C4094 C 0.39201 0.38745 0.28568 0.0
C4095 C 0.42252 0.41452 0.29156 0.0
H4096 H 0.43192 0.40093 0.25829 0.0
C4097 C 0.46221 0.44432 0.2508 0.0
C4098 C 0.4699 0.43984 0.24614 0.0
C4099 C 0.45176 0.43702 0.25945 0.0
C4100 C 0.42949 0.40482 0.26766 0.0
H4101 H 0.38943 0.38751 0.32922 0.0
H4102 H 0.40941 0.4001 0.31713 0.0
H4103 H 0.41249 0.38811 0.27134 0.0
H4104 H 0.47277 0.42426 0.24703 0.0
H4105 H 0.45447 0.41148 0.26222 0.0
H4106 H 0.43951 0.43125 0.28784 0.0
C4107 C 0.40143 0.39465 0.31013 0.0
C4108 C 0.4183 0.39752 0.27502 0.0
C4109 C 0.39002 0.38738 0.31705 0.0
C4110 C 0.46704 0.42797 0.25053 0.0
C4111 C 0.45652 0.42063 0.25911 0.0
C4112 C 0.43367 0.42185 0.28413 0.0
C4113 C 0.40255 0.39471 0.29437 0.0
C4114 C 0.41465 0.40233 0.28697 0.0
C4115 C 0.44873 0.42505 0.26357 0.0
C4116 C 0.43723 0.4171 0.27203 0.0
H4117 H 0.37268 0.37464 0.28558 0.0
H4118 H 0.39256 0.38741 0.27351 0.0
H4119 H 0.41993 0.4185 0.30067 0.0
H4120 H 0.46426 0.45348 0.24773 0.0
H4121 H 0.44588 0.44065 0.2626 0.0
C4122 C 0.33466 0.28949 0.39452 0.0
C4123 C 0.33044 0.28712 0.37956 0.0
C4124 C 0.33847 0.28212 0.40165 0.0
C4125 C 0.35034 0.26136 0.39433 0.0
H4126 H 0.33977 0.25065 0.43533 0.0
C4127 C 0.3614 0.22775 0.42566 0.0
C4128 C 0.36416 0.22992 0.44107 0.0
C4129 C 0.35726 0.23456 0.41773 0.0
C4130 C 0.34295 0.25369 0.42395 0.0
H4131 H 0.32686 0.27504 0.36041 0.0
H4132 H 0.33373 0.26225 0.37285 0.0
H4133 H 0.33242 0.2627 0.42228 0.0
H4134 H 0.36524 0.24121 0.46014 0.0
H4135 H 0.35825 0.25322 0.44629 0.0
H4136 H 0.36104 0.25253 0.39608 0.0
C4137 C 0.3341 0.26988 0.37899 0.0
C4138 C 0.33869 0.26055 0.41646 0.0
C4139 C 0.33019 0.27722 0.37187 0.0
C4140 C 0.36298 0.2392 0.44832 0.0
C4141 C 0.35893 0.24605 0.44038 0.0
C4142 C 0.35467 0.25455 0.40186 0.0
C4143 C 0.33825 0.27225 0.39396 0.0
C4144 C 0.34241 0.26453 0.40162 0.0
C4145 C 0.35587 0.24372 0.42504 0.0
C4146 C 0.35109 0.25071 0.41681 0.0
H4147 H 0.33526 0.29721 0.40069 0.0
H4148 H 0.34182 0.28429 0.41311 0.0
H4149 H 0.35345 0.26441 0.38293 0.0
H4150 H 0.3621 0.22057 0.41982 0.0
H4151 H 0.35486 0.23243 0.40596 0.0
C4152 C 0.70903 0.05391 0.37688 0.0
C4153 C 0.71331 0.04556 0.37565 0.0
C4154 C 0.71634 0.06544 0.38346 0.0
C4155 C 0.74227 0.08174 0.40967 0.0
H4156 H 0.74342 0.11098 0.39384 0.0
C4157 C 0.77537 0.12962 0.43365 0.0
C4158 C 0.77062 0.13744 0.43627 0.0
C4159 C 0.76869 0.1188 0.42539 0.0
C4160 C 0.7431 0.10287 0.39846 0.0
H4161 H 0.72877 0.04293 0.37991 0.0
H4162 H 0.74156 0.06308 0.39135 0.0
H4163 H 0.73126 0.09133 0.38089 0.0
H4164 H 0.75523 0.14018 0.43201 0.0
H4165 H 0.74348 0.1212 0.41757 0.0
H4166 H 0.75402 0.09321 0.42726 0.0
C4167 C 0.73246 0.06062 0.38747 0.0
C4168 C 0.73614 0.09162 0.39105 0.0
C4169 C 0.72514 0.04908 0.38092 0.0
C4170 C 0.75916 0.13437 0.43009 0.0
C4171 C 0.75245 0.12352 0.42181 0.0
C4172 C 0.74922 0.09296 0.41705 0.0
C4173 C 0.7281 0.0689 0.38895 0.0
C4174 C 0.73565 0.08092 0.39658 0.0
C4175 C 0.75708 0.11554 0.41955 0.0
C4176 C 0.74972 0.10366 0.41154 0.0
H4177 H 0.69989 0.0514 0.37312 0.0
H4178 H 0.71264 0.07153 0.38462 0.0
H4179 H 0.74189 0.07364 0.4144 0.0
H4180 H 0.7843 0.13186 0.43799 0.0
H4181 H 0.77263 0.11299 0.42357 0.0
C4182 C 0.95018 0.67424 0.38477 0.0
C4183 C 0.95429 0.66628 0.37995 0.0
C4184 C 0.93858 0.66959 0.39129 0.0
C4185 C 0.91396 0.64206 0.41033 0.0
H4186 H 0.89453 0.65727 0.40134 0.0
C4187 C 0.8639 0.62282 0.43139 0.0
C4188 C 0.86119 0.63157 0.43732 0.0
C4189 C 0.87506 0.62658 0.42401 0.0
C4190 C 0.89989 0.65298 0.40402 0.0
H4191 H 0.94942 0.64714 0.37835 0.0
H4192 H 0.92905 0.63902 0.38933 0.0
H4193 H 0.91431 0.66471 0.38896 0.0
H4194 H 0.8683 0.65109 0.44059 0.0
H4195 H 0.88762 0.65759 0.42757 0.0
H4196 H 0.89944 0.63029 0.42537 0.0
C4197 C 0.93486 0.64888 0.38824 0.0
C4198 C 0.91124 0.65726 0.39697 0.0
C4199 C 0.94649 0.65354 0.38176 0.0
C4200 C 0.86995 0.64412 0.43585 0.0
C4201 C 0.88104 0.64785 0.42841 0.0
C4202 C 0.90256 0.63773 0.41733 0.0
C4203 C 0.93078 0.65685 0.3931 0.0
C4204 C 0.91848 0.65194 0.40016 0.0
C4205 C 0.88369 0.63914 0.42235 0.0
C4206 C 0.89548 0.64324 0.41437 0.0
H4207 H 0.9559 0.68409 0.38341 0.0
H4208 H 0.93579 0.676 0.39509 0.0
H4209 H 0.91937 0.63785 0.41319 0.0
H4210 H 0.85731 0.61309 0.43221 0.0
H4211 H 0.87684 0.61966 0.41935 0.0
C4212 C 0.38421 0.00575 0.70977 0.0
C4213 C 0.38346 0.01643 0.71147 0.0
C4214 C 0.39342 0.00465 0.71707 0.0
C4215 C 0.41547 0.01781 0.74874 0.0
H4216 H 0.42972 -1e-05 0.72997 0.0
C4217 C 0.45634 0.01537 0.77427 0.0
C4218 C 0.45467 0.00348 0.77549 0.0
C4219 C 0.44815 0.0174 0.76593 0.0
C4220 C 0.42577 0.00495 0.73534 0.0
H4221 H 0.39188 0.03448 0.72172 0.0
H4222 H 0.40821 0.03276 0.73414 0.0
H4223 H 0.41471 0.00299 0.71616 0.0
H4224 H 0.44302 0.98443 0.76881 0.0
H4225 H 0.42895 0.98809 0.75392 0.0
H4226 H 0.42673 0.0199 0.76783 0.0
C4227 C 0.4015 0.02507 0.72754 0.0
C4228 C 0.41714 0.00663 0.72748 0.0
C4229 C 0.39219 0.02609 0.72039 0.0
C4230 C 0.44472 0.99373 0.76793 0.0
C4231 C 0.43663 0.9958 0.75944 0.0
C4232 C 0.42422 0.01626 0.75651 0.0
C4233 C 0.40217 0.01429 0.72607 0.0
C4234 C 0.41178 0.01297 0.73414 0.0
C4235 C 0.43822 0.00764 0.75846 0.0
C4236 C 0.42935 0.00972 0.74994 0.0
H4237 H 0.3775 0.99812 0.70308 0.0
H4238 H 0.39349 0.99613 0.7159 0.0
H4239 H 0.41139 0.02255 0.75434 0.0
H4240 H 0.46403 0.02315 0.77967 0.0
H4241 H 0.44964 0.02664 0.7652 0.0
C4242 C 0.99881 0.37675 0.71502 0.0
C4243 C 0.98728 0.36777 0.70956 0.0
C4244 C 0.00021 0.38721 0.7223 0.0
C4245 C 0.98517 0.40579 0.72812 0.0
H4246 H 0.0065 0.4177 0.76304 0.0
C4247 C 0.98657 0.44204 0.76958 0.0
C4248 C 0.99825 0.45139 0.77418 0.0
C4249 C 0.98528 0.43211 0.76108 0.0
C4250 C 0.00061 0.41456 0.75322 0.0
H4251 H 0.96817 0.36269 0.70738 0.0
H4252 H 0.97052 0.38087 0.72036 0.0
H4253 H 0.00404 0.39979 0.74943 0.0
H4254 H 0.01774 0.45768 0.77351 0.0
H4255 H 0.01549 0.44029 0.75867 0.0
H4256 H 0.98158 0.42048 0.73219 0.0
C4257 C 0.97855 0.37996 0.71877 0.0
C4258 C -0.00078 0.40431 0.74539 0.0
C4259 C 0.97719 0.36953 0.71136 0.0
C4260 C 0.00863 0.45065 0.77003 0.0
C4261 C 0.00734 0.44066 0.76166 0.0
C4262 C 0.98649 0.416 0.73605 0.0
C4263 C 0.99007 0.38889 0.72441 0.0
C4264 C 0.99151 0.39981 0.73271 0.0
C4265 C 0.99565 0.43127 0.75715 0.0
C4266 C 0.99426 0.4205 0.74865 0.0
H4267 H 0.00679 0.37573 0.71356 0.0
H4268 H 0.00926 0.39403 0.72621 0.0
H4269 H 0.9793 0.40269 0.71829 0.0
H4270 H 0.97842 0.44244 0.77251 0.0
H4271 H 0.97616 0.42496 0.75784 0.0
C4272 C 0.61097 0.61277 0.70307 0.0
C4273 C 0.62154 0.62045 0.7115 0.0
C4274 C 0.59962 0.60579 0.71022 0.0
C4275 C 0.58278 0.60514 0.74414 0.0
H4276 H 0.56166 0.57063 0.73467 0.0
C4277 C 0.53949 0.57352 0.77905 0.0
C4278 C 0.52931 0.56409 0.77151 0.0
C4279 C 0.55054 0.58073 0.77138 0.0
C4280 C 0.56734 0.58031 0.73728 0.0
H4281 H 0.62856 0.6269 0.73397 0.0
H4282 H 0.6087 0.61471 0.74647 0.0
H4283 H 0.5814 0.58235 0.72193 0.0
H4284 H 0.52246 0.55515 0.74996 0.0
H4285 H 0.54164 0.56796 0.73644 0.0
H4286 H 0.5687 0.60321 0.75931 0.0
C4287 C 0.60921 0.61409 0.73435 0.0
C4288 C 0.57867 0.58699 0.73002 0.0
C4289 C 0.62057 0.62096 0.72722 0.0
C4290 C 0.53024 0.56227 0.75607 0.0
C4291 C 0.54125 0.56956 0.74837 0.0
C4292 C 0.57139 0.59849 0.7513 0.0
C4293 C 0.59862 0.6065 0.72591 0.0
C4294 C 0.58653 0.59944 0.73345 0.0
C4295 C 0.5516 0.57875 0.75598 0.0
C4296 C 0.56355 0.58597 0.74802 0.0
H4297 H 0.61148 0.61218 0.69094 0.0
H4298 H 0.59159 0.60005 0.70345 0.0
H4299 H 0.5886 0.61478 0.74684 0.0
H4300 H 0.53905 0.57501 0.791 0.0
H4301 H 0.55836 0.5876 0.77767 0.0
C4302 C 0.66223 0.70664 0.62321 0.0
C4303 C 0.66867 0.71082 0.63687 0.0
C4304 C 0.65736 0.71316 0.61617 0.0
C4305 C 0.65964 0.74366 0.61538 0.0
H4306 H 0.6273 0.72557 0.59724 0.0
C4307 C 0.6337 0.76775 0.59575 0.0
C4308 C 0.62869 0.76481 0.58118 0.0
C4309 C 0.63797 0.7607 0.60272 0.0
C4310 C 0.63637 0.73073 0.60217 0.0
H4311 H 0.67529 0.72532 0.65363 0.0
H4312 H 0.66651 0.73649 0.64162 0.0
H4313 H 0.63635 0.7144 0.60882 0.0
H4314 H 0.62383 0.75186 0.56271 0.0
H4315 H 0.63115 0.73942 0.57501 0.0
H4316 H 0.65958 0.75998 0.60888 0.0
C4317 C 0.66535 0.72826 0.63622 0.0
C4318 C 0.64158 0.72435 0.60875 0.0
C4319 C 0.67027 0.72177 0.64321 0.0
C4320 C 0.62754 0.75431 0.574 0.0
C4321 C 0.63176 0.7472 0.58102 0.0
C4322 C 0.65439 0.75002 0.60889 0.0
C4323 C 0.65877 0.72399 0.62266 0.0
C4324 C 0.65328 0.73074 0.61545 0.0
C4325 C 0.63726 0.75049 0.59531 0.0
C4326 C 0.6427 0.74363 0.60225 0.0
H4327 H 0.66069 0.69816 0.6181 0.0
H4328 H 0.65249 0.7097 0.60564 0.0
H4329 H 0.66875 0.74888 0.62018 0.0
H4330 H 0.63449 0.77563 0.60171 0.0
H4331 H 0.64195 0.7633 0.61386 0.0
C4332 C 0.28285 0.94445 0.65324 0.0
C4333 C 0.28804 0.95497 0.64408 0.0
C4334 C 0.27643 0.93272 0.64681 0.0
C4335 C 0.2737 0.91626 0.61153 0.0
H4336 H 0.24178 0.89176 0.62681 0.0
C4337 C 0.24054 0.87366 0.57726 0.0
C4338 C 0.23301 0.86253 0.58478 0.0
C4339 C 0.24804 0.88437 0.58534 0.0
C4340 C 0.25078 0.89841 0.62258 0.0
H4341 H 0.29065 0.96148 0.62104 0.0
H4342 H 0.27942 0.94103 0.60983 0.0
H4343 H 0.25316 0.91165 0.63943 0.0
H4344 H 0.22774 0.85384 0.6067 0.0
H4345 H 0.24107 0.87257 0.62087 0.0
H4346 H 0.27137 0.90311 0.59466 0.0
C4347 C 0.28033 0.94184 0.62197 0.0
C4348 C 0.25727 0.90981 0.62977 0.0
C4349 C 0.28663 0.95355 0.62839 0.0
C4350 C 0.23347 0.86226 0.60058 0.0
C4351 C 0.24101 0.87302 0.6087 0.0
C4352 C 0.26726 0.90485 0.6044 0.0
C4353 C 0.27523 0.93131 0.6311 0.0
C4354 C 0.26869 0.91892 0.62415 0.0
C4355 C 0.24826 0.88423 0.60116 0.0
C4356 C 0.25562 0.89587 0.60966 0.0
H4357 H 0.28375 0.94529 0.66538 0.0
H4358 H 0.27262 0.92476 0.65411 0.0
H4359 H 0.2826 0.92303 0.60713 0.0
H4360 H 0.24052 0.87413 0.56508 0.0
H4361 H 0.2534 0.89285 0.57916 0.0
C4362 C 0.05631 0.3344 0.6468 0.0
C4363 C 0.04573 0.33136 0.63834 0.0
C4364 C 0.06768 0.33872 0.63968 0.0
C4365 C 0.08142 0.33912 0.60279 0.0
H4366 H 0.11085 0.36673 0.61943 0.0
C4367 C 0.12658 0.36315 0.56932 0.0
C4368 C 0.1375 0.36635 0.57708 0.0
C4369 C 0.1156 0.3592 0.57714 0.0
C4370 C 0.10274 0.35893 0.61473 0.0
H4371 H 0.03888 0.33077 0.61577 0.0
H4372 H 0.05863 0.3382 0.60338 0.0
H4373 H 0.09124 0.35899 0.63252 0.0
H4374 H 0.14548 0.36806 0.59919 0.0
H4375 H 0.12625 0.3611 0.6129 0.0
H4376 H 0.09286 0.33899 0.58504 0.0
C4377 C 0.05812 0.33706 0.6155 0.0
C4378 C 0.09151 0.35449 0.62223 0.0
C4379 C 0.04678 0.33277 0.6226 0.0
C4380 C 0.13724 0.36577 0.5929 0.0
C4381 C 0.12623 0.36179 0.60075 0.0
C4382 C 0.09262 0.34352 0.59532 0.0
C4383 C 0.06869 0.34007 0.62394 0.0
C4384 C 0.08071 0.34459 0.61628 0.0
C4385 C 0.11525 0.35831 0.59294 0.0
C4386 C 0.1034 0.35354 0.60113 0.0
H4387 H 0.0558 0.33329 0.65891 0.0
H4388 H 0.07563 0.34083 0.64647 0.0
H4389 H 0.07331 0.33133 0.59806 0.0
H4390 H 0.12653 0.36372 0.55715 0.0
H4391 H 0.10737 0.35686 0.5708 0.0
C4392 C 0.28791 0.343 0.64495 0.0
C4393 C 0.2855 0.33093 0.64282 0.0
C4394 C 0.28054 0.34696 0.63808 0.0
C4395 C 0.25914 0.33931 0.60611 0.0
H4396 H 0.25148 0.36236 0.62532 0.0
C4397 C 0.2256 0.35236 0.57985 0.0
C4398 C 0.22945 0.36495 0.57937 0.0
C4399 C 0.23205 0.34815 0.58833 0.0
C4400 C 0.25363 0.35599 0.6198 0.0
H4401 H 0.27317 0.31337 0.63242 0.0
H4402 H 0.26013 0.32017 0.62069 0.0
H4403 H 0.26315 0.35484 0.6391 0.0
H4404 H 0.24304 0.38297 0.58764 0.0
H4405 H 0.25424 0.37556 0.60263 0.0
H4406 H 0.24955 0.3404 0.58687 0.0
C4407 C 0.26792 0.3267 0.62731 0.0
C4408 C 0.26032 0.35169 0.62767 0.0
C4409 C 0.27535 0.32278 0.63407 0.0
C4410 C 0.23976 0.3732 0.58788 0.0
C4411 C 0.24618 0.36897 0.59645 0.0
C4412 C 0.25238 0.34354 0.59831 0.0
C4413 C 0.27054 0.3389 0.62902 0.0
C4414 C 0.26317 0.3433 0.6209 0.0
C4415 C 0.24246 0.35641 0.59662 0.0
C4416 C 0.24957 0.35193 0.60506 0.0
H4417 H 0.29576 0.34951 0.65151 0.0
H4418 H 0.28294 0.35646 0.63949 0.0
H4419 H 0.26139 0.33308 0.60041 0.0
H4420 H 0.21753 0.34571 0.57374 0.0
H4421 H 0.22885 0.33839 0.58846 0.0
C4422 C 0.65494 0.94695 0.63672 0.0
C4423 C 0.66766 0.95491 0.63841 0.0
C4424 C 0.65041 0.93544 0.62999 0.0
C4425 C 0.65916 0.91228 0.62007 0.0
H4426 H 0.63194 0.90066 0.59207 0.0
C4427 C 0.64562 0.87117 0.58058 0.0
C4428 C 0.63304 0.86249 0.57916 0.0
C4429 C 0.64948 0.88223 0.58816 0.0
C4430 C 0.63945 0.90373 0.59999 0.0
H4431 H 0.68558 0.9569 0.63451 0.0
H4432 H 0.67771 0.93696 0.6224 0.0
H4433 H 0.63945 0.9204 0.60471 0.0
H4434 H 0.61465 0.85871 0.58454 0.0
H4435 H 0.62142 0.87817 0.59767 0.0
H4436 H 0.65927 0.89569 0.61515 0.0
C4437 C 0.67121 0.93955 0.62648 0.0
C4438 C 0.64375 0.91502 0.60725 0.0
C4439 C 0.67574 0.95105 0.63325 0.0
C4440 C 0.6244 0.86524 0.5853 0.0
C4441 C 0.62827 0.87636 0.59284 0.0
C4442 C 0.6549 0.90103 0.61276 0.0
C4443 C 0.6585 0.93162 0.62474 0.0
C4444 C 0.6537 0.91946 0.61731 0.0
C4445 C 0.64085 0.88493 0.59443 0.0
C4446 C 0.64506 0.89667 0.60257 0.0
H4447 H 0.64845 0.94969 0.64039 0.0
H4448 H 0.64056 0.9295 0.62898 0.0
H4449 H 0.66668 0.91531 0.62796 0.0
H4450 H 0.65252 0.86947 0.5757 0.0
H4451 H 0.65923 0.88875 0.58896 0.0
C4452 C 0.04579 0.71012 0.62603 0.0
C4453 C 0.04374 0.71057 0.64153 0.0
C4454 C 0.05759 0.71706 0.62 0.0
C4455 C 0.08767 0.74445 0.62737 0.0
H4456 H 0.09876 0.73072 0.59607 0.0
C4457 C 0.12892 0.77434 0.58889 0.0
C4458 C 0.13682 0.76995 0.58486 0.0
C4459 C 0.11819 0.76697 0.59703 0.0
C4460 C 0.09586 0.73465 0.60492 0.0
H4461 H 0.05247 0.71873 0.66283 0.0
H4462 H 0.07311 0.73074 0.6523 0.0
H4463 H 0.07881 0.71788 0.60797 0.0
H4464 H 0.13976 0.75445 0.58641 0.0
H4465 H 0.12101 0.74156 0.6008 0.0
H4466 H 0.10473 0.76121 0.62434 0.0
C4467 C 0.06557 0.72507 0.64481 0.0
C4468 C 0.08437 0.72733 0.61161 0.0
C4469 C 0.05376 0.71811 0.65086 0.0
C4470 C 0.13388 0.7581 0.58942 0.0
C4471 C 0.1231 0.75069 0.59753 0.0
C4472 C 0.09915 0.75177 0.62066 0.0
C4473 C 0.06761 0.72463 0.62931 0.0
C4474 C 0.08009 0.7322 0.62278 0.0
C4475 C 0.11509 0.75502 0.60133 0.0
C4476 C 0.10331 0.747 0.60923 0.0
H4477 H 0.03829 0.70429 0.61857 0.0
H4478 H 0.05882 0.71663 0.60798 0.0
H4479 H 0.08461 0.7485 0.63588 0.0
H4480 H 0.13101 0.78349 0.58571 0.0
H4481 H 0.11216 0.77054 0.59964 0.0
C4482 C 0.98428 0.61687 0.72768 0.0
C4483 C 0.98291 0.61643 0.71194 0.0
C4484 C 0.98574 0.60796 0.73518 0.0
C4485 C 0.99565 0.58536 0.7297 0.0
H4486 H 0.9776 0.57137 0.76673 0.0
C4487 C 0.99626 0.54528 0.76064 0.0
C4488 C 0.99675 0.54582 0.77645 0.0
C4489 C 0.99447 0.5537 0.75242 0.0
C4490 C 0.98282 0.57529 0.7565 0.0
H4491 H 0.98193 0.6062 0.69176 0.0
H4492 H 0.98463 0.59072 0.70491 0.0
H4493 H 0.9746 0.58638 0.75299 0.0
H4494 H 0.99609 0.5558 0.79602 0.0
H4495 H 0.99309 0.57056 0.78171 0.0
H4496 H 0.00399 0.57438 0.73331 0.0
C4497 C 0.98465 0.59802 0.71139 0.0
C4498 C 0.98108 0.58387 0.74862 0.0
C4499 C 0.98311 0.6069 0.70387 0.0
C4500 C 0.99555 0.55503 0.78386 0.0
C4501 C 0.99381 0.56347 0.77565 0.0
C4502 C 0.99744 0.57681 0.73763 0.0
C4503 C 0.98593 0.59845 0.72713 0.0
C4504 C 0.98752 0.58905 0.73519 0.0
C4505 C 0.99317 0.56286 0.75984 0.0
C4506 C 0.99109 0.57173 0.75118 0.0
H4507 H 0.98444 0.62422 0.73422 0.0
H4508 H 0.98692 0.60865 0.74729 0.0
H4509 H 0.00084 0.5893 0.71947 0.0
H4510 H 0.99701 0.53819 0.75463 0.0
H4511 H 0.99387 0.55287 0.74026 0.0
C4512 C 0.37749 0.37619 0.72944 0.0
C4513 C 0.37815 0.37562 0.71369 0.0
C4514 C 0.38432 0.38737 0.73701 0.0
C4515 C 0.4006 0.42104 0.73052 0.0
H4516 H 0.4149 0.42233 0.76959 0.0
C4517 C 0.43622 0.46625 0.75939 0.0
C4518 C 0.43463 0.46742 0.77486 0.0
C4519 C 0.42885 0.45512 0.75197 0.0
C4520 C 0.41084 0.42208 0.75875 0.0
H4521 H 0.38674 0.38618 0.69355 0.0
H4522 H 0.39892 0.40565 0.70676 0.0
H4523 H 0.40345 0.40271 0.75649 0.0
H4524 H 0.42402 0.45793 0.79466 0.0
H4525 H 0.41112 0.4384 0.78166 0.0
H4526 H 0.40827 0.4405 0.7327 0.0
C4527 C 0.39288 0.39755 0.71326 0.0
C4528 C 0.40427 0.41084 0.75124 0.0
C4529 C 0.38596 0.38639 0.70569 0.0
C4530 C 0.42539 0.4573 0.78271 0.0
C4531 C 0.41809 0.44611 0.77531 0.0
C4532 C 0.40728 0.43229 0.73797 0.0
C4533 C 0.39204 0.39821 0.72901 0.0
C4534 C 0.39907 0.41018 0.73701 0.0
C4535 C 0.41981 0.4449 0.75989 0.0
C4536 C 0.41246 0.43292 0.75215 0.0
H4537 H 0.37141 0.36806 0.73587 0.0
H4538 H 0.38329 0.38755 0.7491 0.0
H4539 H 0.39653 0.42085 0.71973 0.0
H4540 H 0.44323 0.47394 0.75306 0.0
H4541 H 0.43042 0.45442 0.7401 0.0
C4542 C 0.61823 0.00078 0.70469 0.0
C4543 C 0.62927 0.01201 0.70625 0.0
C4544 C 0.60751 0.99898 0.71172 0.0
C4545 C 0.59277 0.01521 0.72787 0.0
H4546 H 0.57467 0.98597 0.75232 0.0
C4547 C 0.55639 0.01028 0.77105 0.0
C4548 C 0.54594 0.99864 0.77317 0.0
C4549 C 0.56604 0.01169 0.76189 0.0
C4550 C 0.57947 0.99408 0.74535 0.0
H4551 H 0.63771 0.03029 0.71592 0.0
H4552 H 0.61893 0.02717 0.72814 0.0
H4553 H 0.59233 0.98884 0.73771 0.0
H4554 H 0.53744 0.97934 0.76721 0.0
H4555 H 0.55408 0.98187 0.75082 0.0
H4556 H 0.57992 0.02046 0.73539 0.0
C4557 C 0.61859 0.01976 0.72152 0.0
C4558 C 0.58961 0.99573 0.73701 0.0
C4559 C 0.62933 0.02151 0.71464 0.0
C4560 C 0.5453 0.98846 0.76573 0.0
C4561 C 0.55492 0.98989 0.75647 0.0
C4562 C 0.58256 0.01352 0.7361 0.0
C4563 C 0.60761 0.00844 0.72027 0.0
C4564 C 0.59643 0.00637 0.72834 0.0
C4565 C 0.56544 0.00151 0.75451 0.0
C4566 C 0.57588 0.003 0.74509 0.0
H4567 H 0.61796 0.99328 0.69836 0.0
H4568 H 0.59915 0.99019 0.71051 0.0
H4569 H 0.5978 0.02343 0.72112 0.0
H4570 H 0.55712 0.01836 0.77641 0.0
H4571 H 0.57407 0.02076 0.76081 0.0
loop_
_geom_bond_atom_site_label_1
_geom_bond_atom_site_label_2
_geom_bond_distance
_geom_bond_site_symmetry_2
_ccdc_geom_bond_type
Li0 N17 1.991 1_554 S
Li0 O60 1.956 . S
Li0 O61 1.970 1_654 S
Li0 O62 1.961 . S
Li1 N25 1.990 . S
Li1 O60 1.970 1_455 S
Li1 O61 1.956 1_554 S
Li1 O63 1.961 . S
Li2 N47 1.990 . S
Li2 O60 1.961 . S
Li2 O62 1.956 . S
Li2 O63 1.970 1_655 S
Li3 N53 1.990 . S
Li3 O61 1.961 . S
Li3 O62 1.970 1_456 S
Li3 O63 1.956 1_556 S
C4 C6 1.344 1_655 S
C4 C7 1.356 . S
C4 O60 1.325 . S
N5 C8 1.314 . S
N5 C9 1.279 . S
C6 C4 1.344 1_455 S
C6 C8 1.353 1_455 S
C6 H64 0.934 . S
C7 C4 1.356 . S
C7 C9 1.358 . S
C7 H65 0.930 . S
C8 N5 1.314 . S
C8 C6 1.353 1_655 S
C8 H66 0.883 1_655 S
C9 N5 1.279 . S
C9 C7 1.358 . S
C9 H67 0.930 . S
C10 C13 1.348 . S
C10 C14 1.356 . S
C10 O61 1.325 . S
C11 N12 1.279 . S
C11 C14 1.358 . S
C11 H68 0.930 . S
N12 C11 1.279 . S
N12 C15 1.314 . S
C13 C10 1.348 . S
C13 C15 1.353 . S
C13 H69 0.929 1_455 S
C14 C10 1.356 . S
C14 C11 1.358 . S
C14 H70 0.930 . S
C15 N12 1.314 . S
C15 C13 1.353 . S
C15 H71 0.930 . S
C16 N17 1.312 . S
C16 C21 1.353 . S
C16 H22 0.930 . S
N17 Li0 1.991 1_556 S
N17 C16 1.312 . S
N17 C19 1.281 1_556 S
C18 C19 1.358 . S
C18 C20 1.356 1_554 S
C18 H72 0.930 . S
C19 N17 1.281 1_554 S
C19 C18 1.358 . S
C19 H23 0.930 . S
C20 C18 1.356 1_556 S
C20 C21 1.348 . S
C21 C16 1.353 . S
C21 C20 1.348 . S
C21 H73 0.929 . S
H22 C16 0.930 . S
H23 C19 0.930 . S
C24 N25 1.314 . S
C24 C26 1.353 . S
C24 H30 0.930 . S
N25 Li1 1.990 . S
N25 C24 1.314 . S
N25 C28 1.279 . S
C26 C24 1.353 . S
C26 C29 1.348 . S
C26 H74 0.929 . S
C27 C28 1.358 . S
C27 C29 1.356 . S
C27 H75 0.930 . S
C28 N25 1.279 . S
C28 C27 1.358 . S
C28 H31 0.930 . S
C29 C26 1.348 . S
C29 C27 1.356 . S
H30 C24 0.930 . S
H31 C28 0.930 . S
C32 C34 1.347 . S
C32 C35 1.356 1_556 S
C32 O62 1.325 1_556 S
N33 C36 1.314 . S
N33 C37 1.279 1_556 S
C34 C32 1.347 . S
C34 C36 1.353 . S
C34 H76 0.929 . S
C35 C32 1.356 1_554 S
C35 C37 1.358 . S
C35 H77 0.930 . S
C36 N33 1.314 . S
C36 C34 1.353 . S
C36 H78 0.930 . S
C37 N33 1.279 1_554 S
C37 C35 1.358 . S
C37 H79 0.930 . S
C38 C39 1.348 . S
C38 C40 1.356 . S
C38 O63 1.325 . S
C39 C38 1.348 . S
C39 C41 1.353 . S
C39 H80 0.929 . S
C40 C38 1.356 . S
C40 C42 1.358 . S
C40 H81 0.930 . S
C41 C39 1.353 . S
C41 N43 1.314 . S
C41 H82 0.930 . S
C42 C40 1.358 . S
C42 N43 1.279 . S
C42 H83 0.930 . S
N43 C41 1.314 . S
N43 C42 1.279 . S
C44 C46 1.353 . S
C44 N47 1.314 . S
C44 H50 0.946 . S
C45 N47 1.279 . S
C45 C48 1.358 . S
C45 H51 0.930 . S
C46 C44 1.353 . S
C46 C49 1.348 . S
C46 H84 0.929 . S
N47 Li2 1.990 . S
N47 C44 1.314 . S
N47 C45 1.279 . S
C48 C45 1.358 . S
C48 C49 1.356 . S
C48 H85 0.930 . S
C49 C46 1.348 . S
C49 C48 1.356 . S
H50 C44 0.946 . S
H51 C45 0.930 . S
C52 N53 1.314 . S
C52 C54 1.353 . S
C52 H58 0.930 . S
N53 Li3 1.990 . S
N53 C52 1.314 . S
N53 C56 1.279 . S
C54 C52 1.353 . S
C54 C57 1.348 . S
C54 H86 0.929 . S
C55 C56 1.358 . S
C55 C57 1.356 . S
C55 H87 0.930 . S
C56 N53 1.279 . S
C56 C55 1.358 . S
C56 H59 0.930 . S
C57 C54 1.348 . S
C57 C55 1.356 . S
H58 C52 0.930 . S
H59 C56 0.930 . S
O60 Li0 1.956 . S
O60 Li1 1.970 1_655 S
O60 Li2 1.961 . S
O60 C4 1.325 . S
O61 Li0 1.970 1_456 S
O61 Li1 1.956 1_556 S
O61 Li3 1.961 . S
O61 C10 1.325 . S
O62 Li0 1.961 . S
O62 Li2 1.956 . S
O62 Li3 1.970 1_654 S
O62 C32 1.325 1_554 S
O63 Li1 1.961 . S
O63 Li2 1.970 1_455 S
O63 Li3 1.956 1_554 S
O63 C38 1.325 . S
H64 C6 0.934 . S
H65 C7 0.930 . S
H66 C8 0.883 1_455 S
H67 C9 0.930 . S
H68 C11 0.930 . S
H69 C13 0.929 1_655 S
H70 C14 0.930 . S
H71 C15 0.930 . S
H72 C18 0.930 . S
H73 C21 0.929 . S
H74 C26 0.929 . S
H75 C27 0.930 . S
H76 C34 0.929 . S
H77 C35 0.930 . S
H78 C36 0.930 . S
H79 C37 0.930 . S
H80 C39 0.929 . S
H81 C40 0.930 . S
H82 C41 0.930 . S
H83 C42 0.930 . S
H84 C46 0.929 . S
H85 C48 0.930 . S
H86 C54 0.929 . S
H87 C55 0.930 . S
Li88 N105 1.990 1_554 S
Li88 O148 1.956 . S
Li88 O149 1.970 1_554 S
Li88 O150 1.961 . S
Li89 N113 1.990 . S
Li89 O148 1.970 . S
Li89 O149 1.956 1_554 S
Li89 O151 1.961 . S
Li90 N135 1.990 . S
Li90 O148 1.961 . S
Li90 O150 1.956 . S
Li90 O151 1.970 . S
Li91 N141 1.990 . S
Li91 O149 1.961 . S
Li91 O150 1.970 1_556 S
Li91 O151 1.956 1_556 S
C92 C94 1.348 . S
C92 C95 1.356 . S
C92 O148 1.325 . S
N93 C96 1.314 . S
N93 C97 1.279 . S
C94 C92 1.348 . S
C94 C96 1.353 . S
C94 H152 0.929 . S
C95 C92 1.356 . S
C95 C97 1.358 . S
C95 H153 0.930 . S
C96 N93 1.314 . S
C96 C94 1.353 . S
C96 H154 0.930 . S
C97 N93 1.279 . S
C97 C95 1.358 . S
C97 H155 0.930 . S
C98 C101 1.348 . S
C98 C102 1.356 . S
C98 O149 1.325 . S
C99 N100 1.279 . S
C99 C102 1.358 . S
C99 H156 0.930 . S
N100 C99 1.279 . S
N100 C103 1.314 . S
C101 C98 1.348 . S
C101 C103 1.353 . S
C101 H157 0.929 . S
C102 C98 1.356 . S
C102 C99 1.358 . S
C102 H158 0.930 . S
C103 N100 1.314 . S
C103 C101 1.353 . S
C103 H159 0.930 . S
C104 N105 1.314 . S
C104 C109 1.353 . S
C104 H110 0.930 . S
N105 Li88 1.990 1_556 S
N105 C104 1.314 . S
N105 C107 1.279 1_556 S
C106 C107 1.358 1_556 S
C106 C108 1.356 . S
C106 H160 0.930 1_556 S
C107 N105 1.279 1_554 S
C107 C106 1.358 1_554 S
C107 H111 0.930 . S
C108 C106 1.356 . S
C108 C109 1.348 . S
C109 C104 1.353 . S
C109 C108 1.348 . S
C109 H161 0.929 . S
H110 C104 0.930 . S
H111 C107 0.930 . S
C112 N113 1.314 . S
C112 C114 1.353 . S
C112 H118 0.930 . S
N113 Li89 1.990 . S
N113 C112 1.314 . S
N113 C116 1.279 . S
C114 C112 1.353 . S
C114 C117 1.348 . S
C114 H162 0.929 . S
C115 C116 1.358 . S
C115 C117 1.356 . S
C115 H163 0.930 . S
C116 N113 1.279 . S
C116 C115 1.358 . S
C116 H119 0.930 . S
C117 C114 1.348 . S
C117 C115 1.356 . S
H118 C112 0.930 . S
H119 C116 0.930 . S
C120 C122 1.348 . S
C120 C123 1.351 1_556 S
C120 O150 1.325 1_556 S
N121 C124 1.314 . S
N121 C125 1.279 . S
C122 C120 1.348 . S
C122 C124 1.353 . S
C122 H164 0.929 . S
C123 C120 1.351 1_554 S
C123 C125 1.351 1_554 S
C123 H165 0.943 . S
C124 N121 1.314 . S
C124 C122 1.353 . S
C124 H166 0.930 . S
C125 N121 1.279 . S
C125 C123 1.351 1_556 S
C125 H167 0.930 . S
C126 C127 1.348 . S
C126 C128 1.356 . S
C126 O151 1.325 . S
C127 C126 1.348 . S
C127 C129 1.353 . S
C127 H168 0.929 . S
C128 C126 1.356 . S
C128 C130 1.358 . S
C128 H169 0.930 . S
C129 C127 1.353 . S
C129 N131 1.314 . S
C129 H170 0.930 . S
C130 C128 1.358 . S
C130 N131 1.279 . S
C130 H171 0.930 . S
N131 C129 1.314 . S
N131 C130 1.279 . S
C132 C134 1.353 . S
C132 N135 1.314 . S
C132 H138 0.930 . S
C133 N135 1.279 . S
C133 C136 1.358 . S
C133 H139 0.930 . S
C134 C132 1.353 . S
C134 C137 1.348 . S
C134 H172 0.929 . S
N135 Li90 1.990 . S
N135 C132 1.314 . S
N135 C133 1.279 . S
C136 C133 1.358 . S
C136 C137 1.356 . S
C136 H173 0.930 . S
C137 C134 1.348 . S
C137 C136 1.356 . S
H138 C132 0.930 . S
H139 C133 0.930 . S
C140 N141 1.314 . S
C140 C142 1.353 . S
C140 H146 0.930 . S
N141 Li91 1.990 . S
N141 C140 1.314 . S
N141 C144 1.279 . S
C142 C140 1.353 . S
C142 C145 1.348 . S
C142 H174 0.929 . S
C143 C144 1.358 . S
C143 C145 1.356 . S
C143 H175 0.930 . S
C144 N141 1.279 . S
C144 C143 1.358 . S
C144 H147 0.930 . S
C145 C142 1.348 . S
C145 C143 1.356 . S
H146 C140 0.930 . S
H147 C144 0.930 . S
O148 Li88 1.956 . S
O148 Li89 1.970 . S
O148 Li90 1.961 . S
O148 C92 1.325 . S
O149 Li88 1.970 1_556 S
O149 Li89 1.956 1_556 S
O149 Li91 1.961 . S
O149 C98 1.325 . S
O150 Li88 1.961 . S
O150 Li90 1.956 . S
O150 Li91 1.970 1_554 S
O150 C120 1.325 1_554 S
O151 Li89 1.961 . S
O151 Li90 1.970 . S
O151 Li91 1.956 1_554 S
O151 C126 1.325 . S
H152 C94 0.929 . S
H153 C95 0.930 . S
H154 C96 0.930 . S
H155 C97 0.930 . S
H156 C99 0.930 . S
H157 C101 0.929 . S
H158 C102 0.930 . S
H159 C103 0.930 . S
H160 C106 0.930 1_554 S
H161 C109 0.929 . S
H162 C114 0.929 . S
H163 C115 0.930 . S
H164 C122 0.929 . S
H165 C123 0.943 . S
H166 C124 0.930 . S
H167 C125 0.930 . S
H168 C127 0.929 . S
H169 C128 0.930 . S
H170 C129 0.930 . S
H171 C130 0.930 . S
H172 C134 0.929 . S
H173 C136 0.930 . S
H174 C142 0.929 . S
H175 C143 0.930 . S
Li176 N193 1.990 . S
Li176 O236 1.956 1_556 S
Li176 O237 1.970 1_566 S
Li176 O238 1.961 . S
Li177 N201 1.990 . S
Li177 O236 1.970 1_545 S
Li177 O237 1.956 . S
Li177 O239 1.961 . S
Li178 N223 1.990 . S
Li178 O236 1.961 . S
Li178 O238 1.956 1_554 S
Li178 O239 1.970 1_565 S
Li179 N229 1.992 1_554 S
Li179 O237 1.961 . S
Li179 O238 1.970 1_544 S
Li179 O239 1.956 . S
C180 C182 1.348 . S
C180 C183 1.356 . S
C180 O236 1.325 . S
N181 C184 1.314 . S
N181 C185 1.279 . S
C182 C180 1.348 . S
C182 C184 1.353 . S
C182 H240 0.929 . S
C183 C180 1.356 . S
C183 C185 1.358 . S
C183 H241 0.930 . S
C184 N181 1.314 . S
C184 C182 1.353 . S
C184 H242 0.930 . S
C185 N181 1.279 . S
C185 C183 1.358 . S
C185 H243 0.930 . S
C186 C189 1.352 1_554 S
C186 C190 1.353 . S
C186 O237 1.323 . S
C187 N188 1.279 1_554 S
C187 C190 1.358 . S
C187 H244 0.930 . S
N188 C187 1.279 1_556 S
N188 C191 1.314 . S
C189 C186 1.352 1_556 S
C189 C191 1.353 . S
C189 H245 0.929 . S
C190 C186 1.353 . S
C190 C187 1.358 . S
C190 H246 0.930 . S
C191 N188 1.314 . S
C191 C189 1.353 . S
C191 H247 0.930 . S
C192 N193 1.314 . S
C192 C197 1.353 . S
C192 H198 0.948 . S
N193 Li176 1.990 . S
N193 C192 1.314 . S
N193 C195 1.279 . S
C194 C195 1.358 . S
C194 C196 1.356 . S
C194 H248 0.930 . S
C195 N193 1.279 . S
C195 C194 1.358 . S
C195 H199 0.930 . S
C196 C194 1.356 . S
C196 C197 1.348 . S
C197 C192 1.353 . S
C197 C196 1.348 . S
C197 H249 0.929 . S
H198 C192 0.948 . S
H199 C195 0.930 . S
C200 N201 1.314 . S
C200 C202 1.353 . S
C200 H206 0.930 . S
N201 Li177 1.990 . S
N201 C200 1.314 . S
N201 C204 1.279 . S
C202 C200 1.353 . S
C202 C205 1.348 . S
C202 H250 0.929 . S
C203 C204 1.358 . S
C203 C205 1.356 . S
C203 H251 0.930 . S
C204 N201 1.279 . S
C204 C203 1.358 . S
C204 H207 0.930 . S
C205 C202 1.348 . S
C205 C203 1.356 . S
H206 C200 0.930 . S
H207 C204 0.930 . S
C208 C210 1.345 1_565 S
C208 C211 1.356 . S
C208 O238 1.325 . S
N209 C212 1.314 . S
N209 C213 1.279 . S
C210 C208 1.345 1_545 S
C210 C212 1.353 1_545 S
C210 H252 0.932 . S
C211 C208 1.356 . S
C211 C213 1.358 . S
C211 H253 0.930 . S
C212 N209 1.314 . S
C212 C210 1.353 1_565 S
C212 H254 0.885 1_565 S
C213 N209 1.279 . S
C213 C211 1.358 . S
C213 H255 0.930 . S
C214 C215 1.348 . S
C214 C216 1.356 . S
C214 O239 1.325 . S
C215 C214 1.348 . S
C215 C217 1.353 . S
C215 H256 0.929 1_545 S
C216 C214 1.356 . S
C216 C218 1.358 . S
C216 H257 0.930 . S
C217 C215 1.353 . S
C217 N219 1.314 . S
C217 H258 0.930 . S
C218 C216 1.358 . S
C218 N219 1.279 . S
C218 H259 0.930 . S
N219 C217 1.314 . S
N219 C218 1.279 . S
C220 C222 1.353 . S
C220 N223 1.314 . S
C220 H226 0.930 . S
C221 N223 1.279 . S
C221 C224 1.358 . S
C221 H227 0.930 . S
C222 C220 1.353 . S
C222 C225 1.348 . S
C222 H260 0.929 . S
N223 Li178 1.990 . S
N223 C220 1.314 . S
N223 C221 1.279 . S
C224 C221 1.358 . S
C224 C225 1.356 . S
C224 H261 0.930 . S
C225 C222 1.348 . S
C225 C224 1.356 . S
H226 C220 0.930 . S
H227 C221 0.930 . S
C228 N229 1.308 . S
C228 C230 1.353 . S
C228 H234 0.930 . S
N229 Li179 1.992 1_556 S
N229 C228 1.308 . S
N229 C232 1.283 1_556 S
C230 C228 1.353 . S
C230 C233 1.348 . S
C230 H262 0.929 . S
C231 C232 1.358 . S
C231 C233 1.356 1_554 S
C231 H263 0.930 . S
C232 N229 1.283 1_554 S
C232 C231 1.358 . S
C232 H235 0.930 . S
C233 C230 1.348 . S
C233 C231 1.356 1_556 S
H234 C228 0.930 . S
H235 C232 0.930 . S
O236 Li176 1.956 1_554 S
O236 Li177 1.970 1_565 S
O236 Li178 1.961 . S
O236 C180 1.325 . S
O237 Li176 1.970 1_544 S
O237 Li177 1.956 . S
O237 Li179 1.961 . S
O237 C186 1.323 . S
O238 Li176 1.961 . S
O238 Li178 1.956 1_556 S
O238 Li179 1.970 1_566 S
O238 C208 1.325 . S
O239 Li177 1.961 . S
O239 Li178 1.970 1_545 S
O239 Li179 1.956 . S
O239 C214 1.325 . S
H240 C182 0.929 . S
H241 C183 0.930 . S
H242 C184 0.930 . S
H243 C185 0.930 . S
H244 C187 0.930 . S
H245 C189 0.929 . S
H246 C190 0.930 . S
H247 C191 0.930 . S
H248 C194 0.930 . S
H249 C197 0.929 . S
H250 C202 0.929 . S
H251 C203 0.930 . S
H252 C210 0.932 . S
H253 C211 0.930 . S
H254 C212 0.885 1_545 S
H255 C213 0.930 . S
H256 C215 0.929 1_565 S
H257 C216 0.930 . S
H258 C217 0.930 . S
H259 C218 0.930 . S
H260 C222 0.929 . S
H261 C224 0.930 . S
H262 C230 0.929 . S
H263 C231 0.930 . S
Li264 N281 1.990 . S
Li264 O324 1.956 . S
Li264 O325 1.970 1_455 S
Li264 O326 1.961 1_554 S
Li265 N289 1.990 . S
Li265 O324 1.970 1_655 S
Li265 O325 1.956 . S
Li265 O327 1.961 . S
Li266 N311 1.990 . S
Li266 O324 1.961 1_556 S
Li266 O326 1.956 . S
Li266 O327 1.970 1_456 S
Li267 N317 1.990 1_554 S
Li267 O325 1.961 . S
Li267 O326 1.970 1_654 S
Li267 O327 1.956 . S
C268 C270 1.348 . S
C268 C271 1.356 . S
C268 O324 1.325 . S
N269 C272 1.314 . S
N269 C273 1.279 . S
C270 C268 1.348 . S
C270 C272 1.353 . S
C270 H328 0.929 . S
C271 C268 1.356 . S
C271 C273 1.358 . S
C271 H329 0.961 . S
C272 N269 1.314 . S
C272 C270 1.353 . S
C272 H330 0.930 . S
C273 N269 1.279 . S
C273 C271 1.358 . S
C273 H331 0.930 . S
C274 C277 1.341 1_655 S
C274 C278 1.356 . S
C274 O325 1.325 . S
C275 N276 1.279 . S
C275 C278 1.358 . S
C275 H332 0.930 . S
N276 C275 1.279 . S
N276 C279 1.314 . S
C277 C274 1.341 1_455 S
C277 C279 1.342 1_455 S
C277 H333 0.948 . S
C278 C274 1.356 . S
C278 C275 1.358 . S
C278 H334 0.930 . S
C279 N276 1.314 . S
C279 C277 1.342 1_655 S
C279 H335 0.930 1_655 S
C280 N281 1.314 . S
C280 C285 1.353 . S
C280 H286 0.930 . S
N281 Li264 1.990 . S
N281 C280 1.314 . S
N281 C283 1.279 . S
C282 C283 1.358 . S
C282 C284 1.356 . S
C282 H336 0.930 . S
C283 N281 1.279 . S
C283 C282 1.358 . S
C283 H287 0.930 . S
C284 C282 1.356 . S
C284 C285 1.348 . S
C285 C280 1.353 . S
C285 C284 1.348 . S
C285 H337 0.929 . S
H286 C280 0.930 . S
H287 C283 0.930 . S
C288 N289 1.314 . S
C288 C290 1.353 . S
C288 H294 0.930 . S
N289 Li265 1.990 . S
N289 C288 1.314 . S
N289 C292 1.279 . S
C290 C288 1.353 . S
C290 C293 1.348 . S
C290 H338 0.929 . S
C291 C292 1.358 . S
C291 C293 1.356 . S
C291 H339 0.930 . S
C292 N289 1.279 . S
C292 C291 1.358 . S
C292 H295 0.930 . S
C293 C290 1.348 . S
C293 C291 1.356 . S
H294 C288 0.930 . S
H295 C292 0.930 . S
C296 C298 1.334 1_455 S
C296 C299 1.356 . S
C296 O326 1.325 . S
N297 C300 1.314 . S
N297 C301 1.279 . S
C298 C296 1.334 1_655 S
C298 C300 1.353 1_655 S
C298 H340 0.944 . S
C299 C296 1.356 . S
C299 C301 1.358 . S
C299 H341 0.930 . S
C300 N297 1.314 . S
C300 C298 1.353 1_455 S
C300 H342 0.930 1_455 S
C301 N297 1.279 . S
C301 C299 1.358 . S
C301 H343 0.930 . S
C302 C303 1.375 . S
C302 C304 1.339 1_556 S
C302 O327 1.317 1_556 S
C303 C302 1.375 . S
C303 C305 1.353 . S
C303 H344 0.929 . S
C304 C302 1.339 1_554 S
C304 C306 1.358 . S
C304 H345 0.930 . S
C305 C303 1.353 . S
C305 N307 1.314 . S
C305 H346 0.930 . S
C306 C304 1.358 . S
C306 N307 1.279 1_554 S
C306 H347 0.930 . S
N307 C305 1.314 . S
N307 C306 1.279 1_556 S
C308 C310 1.353 . S
C308 N311 1.314 . S
C308 H314 0.930 . S
C309 N311 1.279 . S
C309 C312 1.358 . S
C309 H315 0.930 . S
C310 C308 1.353 . S
C310 C313 1.348 . S
C310 H348 0.929 . S
N311 Li266 1.990 . S
N311 C308 1.314 . S
N311 C309 1.279 . S
C312 C309 1.358 . S
C312 C313 1.356 . S
C312 H349 0.930 . S
C313 C310 1.348 . S
C313 C312 1.356 . S
H314 C308 0.930 . S
H315 C309 0.930 . S
C316 N317 1.314 1_554 S
C316 C318 1.353 1_554 S
C316 H322 0.930 . S
N317 Li267 1.990 1_556 S
N317 C316 1.314 1_556 S
N317 C320 1.279 . S
C318 C316 1.353 1_556 S
C318 C321 1.348 . S
C318 H350 0.929 1_556 S
C319 C320 1.358 . S
C319 C321 1.356 . S
C319 H351 0.930 . S
C320 N317 1.279 . S
C320 C319 1.358 . S
C320 H323 0.930 . S
C321 C318 1.348 . S
C321 C319 1.356 . S
H322 C316 0.930 . S
H323 C320 0.930 . S
O324 Li264 1.956 . S
O324 Li265 1.970 1_455 S
O324 Li266 1.961 1_554 S
O324 C268 1.325 . S
O325 Li264 1.970 1_655 S
O325 Li265 1.956 . S
O325 Li267 1.961 . S
O325 C274 1.325 . S
O326 Li264 1.961 1_556 S
O326 Li266 1.956 . S
O326 Li267 1.970 1_456 S
O326 C296 1.325 . S
O327 Li265 1.961 . S
O327 Li266 1.970 1_654 S
O327 Li267 1.956 . S
O327 C302 1.317 1_554 S
H328 C270 0.929 . S
H329 C271 0.961 . S
H330 C272 0.930 . S
H331 C273 0.930 . S
H332 C275 0.930 . S
H333 C277 0.948 . S
H334 C278 0.930 . S
H335 C279 0.930 1_455 S
H336 C282 0.930 . S
H337 C285 0.929 . S
H338 C290 0.929 . S
H339 C291 0.930 . S
H340 C298 0.944 . S
H341 C299 0.930 . S
H342 C300 0.930 1_655 S
H343 C301 0.930 . S
H344 C303 0.929 . S
H345 C304 0.930 . S
H346 C305 0.930 . S
H347 C306 0.930 . S
H348 C310 0.929 . S
H349 C312 0.930 . S
H350 C318 0.929 1_554 S
H351 C319 0.930 . S
Li352 N369 1.990 . S
Li352 O412 1.956 . S
Li352 O413 1.970 . S
Li352 O414 1.961 1_554 S
Li353 N377 1.990 . S
Li353 O412 1.970 . S
Li353 O413 1.956 . S
Li353 O415 1.961 . S
Li354 N399 1.990 . S
Li354 O412 1.961 1_556 S
Li354 O414 1.956 . S
Li354 O415 1.970 1_556 S
Li355 N405 1.990 1_554 S
Li355 O413 1.961 . S
Li355 O414 1.970 1_554 S
Li355 O415 1.956 . S
C356 C358 1.348 . S
C356 C359 1.356 . S
C356 O412 1.325 . S
N357 C360 1.314 . S
N357 C361 1.279 . S
C358 C356 1.348 . S
C358 C360 1.353 . S
C358 H416 0.929 . S
C359 C356 1.356 . S
C359 C361 1.358 . S
C359 H417 0.930 . S
C360 N357 1.314 . S
C360 C358 1.353 . S
C360 H418 0.930 . S
C361 N357 1.279 . S
C361 C359 1.358 . S
C361 H419 0.930 . S
C362 C365 1.348 . S
C362 C366 1.356 . S
C362 O413 1.325 . S
C363 N364 1.279 . S
C363 C366 1.358 . S
C363 H420 0.930 . S
N364 C363 1.279 . S
N364 C367 1.314 . S
C365 C362 1.348 . S
C365 C367 1.353 . S
C365 H421 0.929 . S
C366 C362 1.356 . S
C366 C363 1.358 . S
C366 H422 0.930 . S
C367 N364 1.314 . S
C367 C365 1.353 . S
C367 H423 0.930 . S
C368 N369 1.314 . S
C368 C373 1.353 . S
C368 H374 0.930 . S
N369 Li352 1.990 . S
N369 C368 1.314 . S
N369 C371 1.279 . S
C370 C371 1.358 . S
C370 C372 1.356 . S
C370 H424 0.930 . S
C371 N369 1.279 . S
C371 C370 1.358 . S
C371 H375 0.930 . S
C372 C370 1.356 . S
C372 C373 1.348 . S
C373 C368 1.353 . S
C373 C372 1.348 . S
C373 H425 0.929 . S
H374 C368 0.930 . S
H375 C371 0.930 . S
C376 N377 1.314 . S
C376 C378 1.353 . S
C376 H382 0.930 . S
N377 Li353 1.990 . S
N377 C376 1.314 . S
N377 C380 1.279 . S
C378 C376 1.353 . S
C378 C381 1.348 . S
C378 H426 0.929 . S
C379 C380 1.358 . S
C379 C381 1.356 . S
C379 H427 0.930 . S
C380 N377 1.279 . S
C380 C379 1.358 . S
C380 H383 0.930 . S
C381 C378 1.348 . S
C381 C379 1.356 . S
H382 C376 0.930 . S
H383 C380 0.930 . S
C384 C386 1.348 . S
C384 C387 1.356 . S
C384 O414 1.325 . S
N385 C388 1.314 . S
N385 C389 1.279 . S
C386 C384 1.348 . S
C386 C388 1.353 . S
C386 H428 0.929 . S
C387 C384 1.356 . S
C387 C389 1.358 . S
C387 H429 0.930 . S
C388 N385 1.314 . S
C388 C386 1.353 . S
C388 H430 0.930 . S
C389 N385 1.279 . S
C389 C387 1.358 . S
C389 H431 0.930 . S
C390 C391 1.348 . S
C390 C392 1.356 1_556 S
C390 O415 1.325 1_556 S
C391 C390 1.348 . S
C391 C393 1.353 . S
C391 H432 0.929 . S
C392 C390 1.356 1_554 S
C392 C394 1.358 1_554 S
C392 H433 0.930 . S
C393 C391 1.353 . S
C393 N395 1.314 . S
C393 H434 0.930 . S
C394 C392 1.358 1_556 S
C394 N395 1.279 . S
C394 H435 0.930 1_556 S
N395 C393 1.314 . S
N395 C394 1.279 . S
C396 C398 1.353 . S
C396 N399 1.314 . S
C396 H402 0.930 . S
C397 N399 1.279 . S
C397 C400 1.358 . S
C397 H403 0.930 . S
C398 C396 1.353 . S
C398 C401 1.348 . S
C398 H436 0.929 . S
N399 Li354 1.990 . S
N399 C396 1.314 . S
N399 C397 1.279 . S
C400 C397 1.358 . S
C400 C401 1.356 . S
C400 H437 0.930 . S
C401 C398 1.348 . S
C401 C400 1.356 . S
H402 C396 0.930 . S
H403 C397 0.930 . S
C404 N405 1.314 . S
C404 C406 1.353 . S
C404 H410 0.930 1_556 S
N405 Li355 1.990 1_556 S
N405 C404 1.314 . S
N405 C408 1.279 . S
C406 C404 1.353 . S
C406 C409 1.348 . S
C406 H438 0.929 . S
C407 C408 1.358 . S
C407 C409 1.356 . S
C407 H439 0.930 . S
C408 N405 1.279 . S
C408 C407 1.358 . S
C408 H411 0.930 . S
C409 C406 1.348 . S
C409 C407 1.356 . S
H410 C404 0.930 1_554 S
H411 C408 0.930 . S
O412 Li352 1.956 . S
O412 Li353 1.970 . S
O412 Li354 1.961 1_554 S
O412 C356 1.325 . S
O413 Li352 1.970 . S
O413 Li353 1.956 . S
O413 Li355 1.961 . S
O413 C362 1.325 . S
O414 Li352 1.961 1_556 S
O414 Li354 1.956 . S
O414 Li355 1.970 1_556 S
O414 C384 1.325 . S
O415 Li353 1.961 . S
O415 Li354 1.970 1_554 S
O415 Li355 1.956 . S
O415 C390 1.325 1_554 S
H416 C358 0.929 . S
H417 C359 0.930 . S
H418 C360 0.930 . S
H419 C361 0.930 . S
H420 C363 0.930 . S
H421 C365 0.929 . S
H422 C366 0.930 . S
H423 C367 0.930 . S
H424 C370 0.930 . S
H425 C373 0.929 . S
H426 C378 0.929 . S
H427 C379 0.930 . S
H428 C386 0.929 . S
H429 C387 0.930 . S
H430 C388 0.930 . S
H431 C389 0.930 . S
H432 C391 0.929 . S
H433 C392 0.930 . S
H434 C393 0.930 . S
H435 C394 0.930 1_554 S
H436 C398 0.929 . S
H437 C400 0.930 . S
H438 C406 0.929 . S
H439 C407 0.930 . S
Li440 N457 1.990 . S
Li440 O500 1.956 . S
Li440 O501 1.970 1_565 S
Li440 O502 1.961 1_554 S
Li441 N465 1.990 . S
Li441 O500 1.970 1_545 S
Li441 O501 1.956 . S
Li441 O503 1.961 . S
Li442 N487 1.990 . S
Li442 O500 1.961 1_556 S
Li442 O502 1.956 . S
Li442 O503 1.970 1_566 S
Li443 N493 1.984 1_554 S
Li443 O501 1.961 . S
Li443 O502 1.970 1_544 S
Li443 O503 1.956 . S
C444 C446 1.348 . S
C444 C447 1.356 . S
C444 O500 1.325 . S
N445 C448 1.314 . S
N445 C449 1.279 . S
C446 C444 1.348 . S
C446 C448 1.353 . S
C446 H504 0.929 . S
C447 C444 1.356 . S
C447 C449 1.358 . S
C447 H505 0.930 . S
C448 N445 1.314 . S
C448 C446 1.353 . S
C448 H506 0.930 . S
C449 N445 1.279 . S
C449 C447 1.358 . S
C449 H507 0.930 . S
C450 C453 1.334 1_545 S
C450 C454 1.356 . S
C450 O501 1.325 . S
C451 N452 1.279 . S
C451 C454 1.358 . S
C451 H508 0.930 . S
N452 C451 1.279 . S
N452 C455 1.314 . S
C453 C450 1.334 1_565 S
C453 C455 1.353 1_565 S
C453 H509 0.944 . S
C454 C450 1.356 . S
C454 C451 1.358 . S
C454 H510 0.930 . S
C455 N452 1.314 . S
C455 C453 1.353 1_545 S
C455 H511 0.930 1_545 S
C456 N457 1.314 . S
C456 C461 1.353 . S
C456 H462 0.930 . S
N457 Li440 1.990 . S
N457 C456 1.314 . S
N457 C459 1.279 . S
C458 C459 1.358 . S
C458 C460 1.356 . S
C458 H512 0.930 . S
C459 N457 1.279 . S
C459 C458 1.358 . S
C459 H463 0.930 . S
C460 C458 1.356 . S
C460 C461 1.348 . S
C461 C456 1.353 . S
C461 C460 1.348 . S
C461 H513 0.929 . S
H462 C456 0.930 . S
H463 C459 0.930 . S
C464 N465 1.314 . S
C464 C466 1.353 . S
C464 H470 0.930 . S
N465 Li441 1.990 . S
N465 C464 1.314 . S
N465 C468 1.279 . S
C466 C464 1.353 . S
C466 C469 1.348 . S
C466 H514 0.929 . S
C467 C468 1.358 . S
C467 C469 1.356 . S
C467 H515 0.930 . S
C468 N465 1.279 . S
C468 C467 1.358 . S
C468 H471 0.930 . S
C469 C466 1.348 . S
C469 C467 1.356 . S
H470 C464 0.930 . S
H471 C468 0.930 . S
C472 C474 1.341 1_565 S
C472 C475 1.356 . S
C472 O502 1.325 . S
N473 C476 1.314 . S
N473 C477 1.279 . S
C474 C472 1.341 1_545 S
C474 C476 1.342 1_545 S
C474 H516 0.947 . S
C475 C472 1.356 . S
C475 C477 1.358 . S
C475 H517 0.930 . S
C476 N473 1.314 . S
C476 C474 1.342 1_565 S
C476 H518 0.930 1_565 S
C477 N473 1.279 . S
C477 C475 1.358 . S
C477 H519 0.930 . S
C478 C479 1.318 1_554 S
C478 C480 1.375 . S
C478 O503 1.334 . S
C479 C478 1.318 1_556 S
C479 C481 1.353 . S
C479 H520 0.929 . S
C480 C478 1.375 . S
C480 C482 1.358 . S
C480 H521 0.930 . S
C481 C479 1.353 . S
C481 N483 1.314 . S
C481 H522 0.930 . S
C482 C480 1.358 . S
C482 N483 1.279 1_554 S
C482 H523 0.930 . S
N483 C481 1.314 . S
N483 C482 1.279 1_556 S
C484 C486 1.353 . S
C484 N487 1.314 . S
C484 H490 0.930 . S
C485 N487 1.279 . S
C485 C488 1.358 . S
C485 H491 0.930 . S
C486 C484 1.353 . S
C486 C489 1.348 . S
C486 H524 0.929 . S
N487 Li442 1.990 . S
N487 C484 1.314 . S
N487 C485 1.279 . S
C488 C485 1.358 . S
C488 C489 1.356 . S
C488 H525 0.930 . S
C489 C486 1.348 . S
C489 C488 1.356 . S
H490 C484 0.930 . S
H491 C485 0.930 . S
C492 N493 1.309 1_554 S
C492 C494 1.353 1_554 S
C492 H498 0.930 . S
N493 Li443 1.984 1_556 S
N493 C492 1.309 1_556 S
N493 C496 1.294 . S
C494 C492 1.353 1_556 S
C494 C497 1.348 . S
C494 H526 0.929 1_556 S
C495 C496 1.358 . S
C495 C497 1.356 . S
C495 H527 0.930 . S
C496 N493 1.294 . S
C496 C495 1.358 . S
C496 H499 0.930 . S
C497 C494 1.348 . S
C497 C495 1.356 . S
H498 C492 0.930 . S
H499 C496 0.930 . S
O500 Li440 1.956 . S
O500 Li441 1.970 1_565 S
O500 Li442 1.961 1_554 S
O500 C444 1.325 . S
O501 Li440 1.970 1_545 S
O501 Li441 1.956 . S
O501 Li443 1.961 . S
O501 C450 1.325 . S
O502 Li440 1.961 1_556 S
O502 Li442 1.956 . S
O502 Li443 1.970 1_566 S
O502 C472 1.325 . S
O503 Li441 1.961 . S
O503 Li442 1.970 1_544 S
O503 Li443 1.956 . S
O503 C478 1.334 . S
H504 C446 0.929 . S
H505 C447 0.930 . S
H506 C448 0.930 . S
H507 C449 0.930 . S
H508 C451 0.930 . S
H509 C453 0.944 . S
H510 C454 0.930 . S
H511 C455 0.930 1_565 S
H512 C458 0.930 . S
H513 C461 0.929 . S
H514 C466 0.929 . S
H515 C467 0.930 . S
H516 C474 0.947 . S
H517 C475 0.930 . S
H518 C476 0.930 1_545 S
H519 C477 0.930 . S
H520 C479 0.929 . S
H521 C480 0.930 . S
H522 C481 0.930 . S
H523 C482 0.930 . S
H524 C486 0.929 . S
H525 C488 0.930 . S
H526 C494 0.929 1_554 S
H527 C495 0.930 . S
Li528 N545 1.990 . S
Li528 O588 1.956 . S
Li528 O589 1.970 . S
Li528 O590 1.961 . S
Li529 N553 1.990 . S
Li529 O588 1.970 . S
Li529 O589 1.956 . S
Li529 O591 1.961 . S
Li530 N575 1.990 . S
Li530 O588 1.961 . S
Li530 O590 1.956 . S
Li530 O591 1.970 . S
Li531 N581 1.990 . S
Li531 O589 1.961 . S
Li531 O590 1.970 . S
Li531 O591 1.956 . S
C532 C534 1.348 . S
C532 C535 1.356 . S
C532 O588 1.325 . S
N533 C536 1.314 . S
N533 C537 1.279 . S
C534 C532 1.348 . S
C534 C536 1.353 . S
C534 H592 0.929 . S
C535 C532 1.356 . S
C535 C537 1.358 . S
C535 H593 0.930 . S
C536 N533 1.314 . S
C536 C534 1.353 . S
C536 H594 0.930 . S
C537 N533 1.279 . S
C537 C535 1.358 . S
C537 H595 0.930 . S
C538 C541 1.348 . S
C538 C542 1.356 . S
C538 O589 1.325 . S
C539 N540 1.279 . S
C539 C542 1.358 . S
C539 H596 0.930 . S
N540 C539 1.279 . S
N540 C543 1.314 . S
C541 C538 1.348 . S
C541 C543 1.353 . S
C541 H597 0.929 . S
C542 C538 1.356 . S
C542 C539 1.358 . S
C542 H598 0.930 . S
C543 N540 1.314 . S
C543 C541 1.353 . S
C543 H599 0.930 . S
C544 N545 1.314 . S
C544 C549 1.353 . S
C544 H550 0.930 . S
N545 Li528 1.990 . S
N545 C544 1.314 . S
N545 C547 1.279 . S
C546 C547 1.358 . S
C546 C548 1.356 . S
C546 H600 0.930 . S
C547 N545 1.279 . S
C547 C546 1.358 . S
C547 H551 0.930 . S
C548 C546 1.356 . S
C548 C549 1.348 . S
C549 C544 1.353 . S
C549 C548 1.348 . S
C549 H601 0.929 . S
H550 C544 0.930 . S
H551 C547 0.930 . S
C552 N553 1.314 . S
C552 C554 1.353 . S
C552 H558 0.930 . S
N553 Li529 1.990 . S
N553 C552 1.314 . S
N553 C556 1.279 . S
C554 C552 1.353 . S
C554 C557 1.348 . S
C554 H602 0.929 . S
C555 C556 1.358 . S
C555 C557 1.356 . S
C555 H603 0.930 . S
C556 N553 1.279 . S
C556 C555 1.358 . S
C556 H559 0.930 . S
C557 C554 1.348 . S
C557 C555 1.356 . S
H558 C552 0.930 . S
H559 C556 0.930 . S
C560 C562 1.348 . S
C560 C563 1.356 . S
C560 O590 1.325 . S
N561 C564 1.314 . S
N561 C565 1.279 . S
C562 C560 1.348 . S
C562 C564 1.353 . S
C562 H604 0.929 . S
C563 C560 1.356 . S
C563 C565 1.358 . S
C563 H605 0.930 . S
C564 N561 1.314 . S
C564 C562 1.353 . S
C564 H606 0.930 . S
C565 N561 1.279 . S
C565 C563 1.358 . S
C565 H607 0.930 . S
C566 C567 1.348 . S
C566 C568 1.356 . S
C566 O591 1.325 . S
C567 C566 1.348 . S
C567 C569 1.353 . S
C567 H608 0.929 . S
C568 C566 1.356 . S
C568 C570 1.358 . S
C568 H609 0.930 . S
C569 C567 1.353 . S
C569 N571 1.314 . S
C569 H610 0.930 . S
C570 C568 1.358 . S
C570 N571 1.279 . S
C570 H611 0.930 . S
N571 C569 1.314 . S
N571 C570 1.279 . S
C572 C574 1.353 . S
C572 N575 1.314 . S
C572 H578 0.930 . S
C573 N575 1.279 . S
C573 C576 1.358 . S
C573 H579 0.930 . S
C574 C572 1.353 . S
C574 C577 1.348 . S
C574 H612 0.929 . S
N575 Li530 1.990 . S
N575 C572 1.314 . S
N575 C573 1.279 . S
C576 C573 1.358 . S
C576 C577 1.356 . S
C576 H613 0.930 . S
C577 C574 1.348 . S
C577 C576 1.356 . S
H578 C572 0.930 . S
H579 C573 0.930 . S
C580 N581 1.314 . S
C580 C582 1.353 . S
C580 H586 0.930 . S
N581 Li531 1.990 . S
N581 C580 1.314 . S
N581 C584 1.279 . S
C582 C580 1.353 . S
C582 C585 1.348 . S
C582 H614 0.929 . S
C583 C584 1.358 . S
C583 C585 1.356 . S
C583 H615 0.930 . S
C584 N581 1.279 . S
C584 C583 1.358 . S
C584 H587 0.930 . S
C585 C582 1.348 . S
C585 C583 1.356 . S
H586 C580 0.930 . S
H587 C584 0.930 . S
O588 Li528 1.956 . S
O588 Li529 1.970 . S
O588 Li530 1.961 . S
O588 C532 1.325 . S
O589 Li528 1.970 . S
O589 Li529 1.956 . S
O589 Li531 1.961 . S
O589 C538 1.325 . S
O590 Li528 1.961 . S
O590 Li530 1.956 . S
O590 Li531 1.970 . S
O590 C560 1.325 . S
O591 Li529 1.961 . S
O591 Li530 1.970 . S
O591 Li531 1.956 . S
O591 C566 1.325 . S
H592 C534 0.929 . S
H593 C535 0.930 . S
H594 C536 0.930 . S
H595 C537 0.930 . S
H596 C539 0.930 . S
H597 C541 0.929 . S
H598 C542 0.930 . S
H599 C543 0.930 . S
H600 C546 0.930 . S
H601 C549 0.929 . S
H602 C554 0.929 . S
H603 C555 0.930 . S
H604 C562 0.929 . S
H605 C563 0.930 . S
H606 C564 0.930 . S
H607 C565 0.930 . S
H608 C567 0.929 . S
H609 C568 0.930 . S
H610 C569 0.930 . S
H611 C570 0.930 . S
H612 C574 0.929 . S
H613 C576 0.930 . S
H614 C582 0.929 . S
H615 C583 0.930 . S
Li616 N633 1.990 . S
Li616 O676 1.956 . S
Li616 O677 1.970 . S
Li616 O678 1.961 . S
Li617 N641 1.990 . S
Li617 O676 1.970 . S
Li617 O677 1.956 . S
Li617 O679 1.961 . S
Li618 N663 1.990 1_565 S
Li618 O676 1.961 . S
Li618 O678 1.956 . S
Li618 O679 1.970 . S
Li619 N669 1.990 . S
Li619 O677 1.961 . S
Li619 O678 1.970 . S
Li619 O679 1.956 . S
C620 C622 1.348 . S
C620 C623 1.356 . S
C620 O676 1.325 . S
N621 C624 1.314 . S
N621 C625 1.279 . S
C622 C620 1.348 . S
C622 C624 1.353 . S
C622 H680 0.929 . S
C623 C620 1.356 . S
C623 C625 1.358 . S
C623 H681 0.930 . S
C624 N621 1.314 . S
C624 C622 1.353 . S
C624 H682 0.930 . S
C625 N621 1.279 . S
C625 C623 1.358 . S
C625 H683 0.930 . S
C626 C629 1.348 . S
C626 C630 1.356 . S
C626 O677 1.325 . S
C627 N628 1.279 . S
C627 C630 1.358 . S
C627 H684 0.930 . S
N628 C627 1.279 . S
N628 C631 1.314 . S
C629 C626 1.348 . S
C629 C631 1.353 . S
C629 H685 0.929 . S
C630 C626 1.356 . S
C630 C627 1.358 . S
C630 H686 0.930 . S
C631 N628 1.314 . S
C631 C629 1.353 . S
C631 H687 0.930 . S
C632 N633 1.314 . S
C632 C637 1.353 . S
C632 H638 0.930 . S
N633 Li616 1.990 . S
N633 C632 1.314 . S
N633 C635 1.279 . S
C634 C635 1.358 . S
C634 C636 1.356 . S
C634 H688 0.930 . S
C635 N633 1.279 . S
C635 C634 1.358 . S
C635 H639 0.930 . S
C636 C634 1.356 . S
C636 C637 1.348 . S
C637 C632 1.353 . S
C637 C636 1.348 . S
C637 H689 0.929 . S
H638 C632 0.930 . S
H639 C635 0.930 . S
C640 N641 1.314 . S
C640 C642 1.353 . S
C640 H646 0.930 . S
N641 Li617 1.990 . S
N641 C640 1.314 . S
N641 C644 1.279 . S
C642 C640 1.353 . S
C642 C645 1.348 . S
C642 H690 0.929 . S
C643 C644 1.358 . S
C643 C645 1.356 . S
C643 H691 0.930 . S
C644 N641 1.279 . S
C644 C643 1.358 . S
C644 H647 0.930 . S
C645 C642 1.348 . S
C645 C643 1.356 . S
H646 C640 0.930 . S
H647 C644 0.930 . S
C648 C650 1.348 . S
C648 C651 1.356 . S
C648 O678 1.325 1_545 S
N649 C652 1.314 . S
N649 C653 1.279 . S
C650 C648 1.348 . S
C650 C652 1.353 . S
C650 H692 0.929 . S
C651 C648 1.356 . S
C651 C653 1.358 . S
C651 H693 0.930 . S
C652 N649 1.314 . S
C652 C650 1.353 . S
C652 H694 0.930 . S
C653 N649 1.279 . S
C653 C651 1.358 . S
C653 H695 0.930 . S
C654 C655 1.348 1_565 S
C654 C656 1.356 . S
C654 O679 1.325 . S
C655 C654 1.348 1_545 S
C655 C657 1.353 . S
C655 H696 0.929 . S
C656 C654 1.356 . S
C656 C658 1.358 . S
C656 H697 0.930 . S
C657 C655 1.353 . S
C657 N659 1.314 1_545 S
C657 H698 0.930 . S
C658 C656 1.358 . S
C658 N659 1.279 . S
C658 H699 0.930 . S
N659 C657 1.314 1_565 S
N659 C658 1.279 . S
C660 C662 1.353 . S
C660 N663 1.314 . S
C660 H666 0.930 . S
C661 N663 1.279 . S
C661 C664 1.358 . S
C661 H667 0.930 . S
C662 C660 1.353 . S
C662 C665 1.348 . S
C662 H700 0.929 . S
N663 Li618 1.990 1_545 S
N663 C660 1.314 . S
N663 C661 1.279 . S
C664 C661 1.358 . S
C664 C665 1.356 . S
C664 H701 0.930 . S
C665 C662 1.348 . S
C665 C664 1.356 . S
H666 C660 0.930 . S
H667 C661 0.930 . S
C668 N669 1.314 . S
C668 C670 1.353 . S
C668 H674 0.930 . S
N669 Li619 1.990 . S
N669 C668 1.314 . S
N669 C672 1.279 . S
C670 C668 1.353 . S
C670 C673 1.348 . S
C670 H702 0.929 . S
C671 C672 1.358 . S
C671 C673 1.356 . S
C671 H703 0.930 . S
C672 N669 1.279 . S
C672 C671 1.358 . S
C672 H675 0.930 . S
C673 C670 1.348 . S
C673 C671 1.356 . S
H674 C668 0.930 . S
H675 C672 0.930 . S
O676 Li616 1.956 . S
O676 Li617 1.970 . S
O676 Li618 1.961 . S
O676 C620 1.325 . S
O677 Li616 1.970 . S
O677 Li617 1.956 . S
O677 Li619 1.961 . S
O677 C626 1.325 . S
O678 Li616 1.961 . S
O678 Li618 1.956 . S
O678 Li619 1.970 . S
O678 C648 1.325 1_565 S
O679 Li617 1.961 . S
O679 Li618 1.970 . S
O679 Li619 1.956 . S
O679 C654 1.325 . S
H680 C622 0.929 . S
H681 C623 0.930 . S
H682 C624 0.930 . S
H683 C625 0.930 . S
H684 C627 0.930 . S
H685 C629 0.929 . S
H686 C630 0.930 . S
H687 C631 0.930 . S
H688 C634 0.930 . S
H689 C637 0.929 . S
H690 C642 0.929 . S
H691 C643 0.930 . S
H692 C650 0.929 . S
H693 C651 0.930 . S
H694 C652 0.930 . S
H695 C653 0.930 . S
H696 C655 0.929 . S
H697 C656 0.930 . S
H698 C657 0.930 . S
H699 C658 0.930 . S
H700 C662 0.929 . S
H701 C664 0.930 . S
H702 C670 0.929 . S
H703 C671 0.930 . S
Li704 N721 1.990 . S
Li704 O764 1.956 . S
Li704 O765 1.970 . S
Li704 O766 1.961 . S
Li705 N729 1.990 . S
Li705 O764 1.970 . S
Li705 O765 1.956 . S
Li705 O767 1.961 . S
Li706 N751 1.990 1_455 S
Li706 O764 1.961 . S
Li706 O766 1.956 . S
Li706 O767 1.970 . S
Li707 N757 1.990 . S
Li707 O765 1.961 . S
Li707 O766 1.970 . S
Li707 O767 1.956 . S
C708 C710 1.348 . S
C708 C711 1.356 . S
C708 O764 1.325 . S
N709 C712 1.314 . S
N709 C713 1.279 . S
C710 C708 1.348 . S
C710 C712 1.353 . S
C710 H768 0.929 . S
C711 C708 1.356 . S
C711 C713 1.358 . S
C711 H769 0.930 . S
C712 N709 1.314 . S
C712 C710 1.353 . S
C712 H770 0.930 . S
C713 N709 1.279 . S
C713 C711 1.358 . S
C713 H771 0.930 . S
C714 C717 1.348 . S
C714 C718 1.356 . S
C714 O765 1.325 . S
C715 N716 1.279 . S
C715 C718 1.358 . S
C715 H772 0.930 . S
N716 C715 1.279 . S
N716 C719 1.314 . S
C717 C714 1.348 . S
C717 C719 1.353 . S
C717 H773 0.929 . S
C718 C714 1.356 . S
C718 C715 1.358 . S
C718 H774 0.930 . S
C719 N716 1.314 . S
C719 C717 1.353 . S
C719 H775 0.930 . S
C720 N721 1.314 . S
C720 C725 1.353 . S
C720 H726 0.930 . S
N721 Li704 1.990 . S
N721 C720 1.314 . S
N721 C723 1.279 . S
C722 C723 1.358 . S
C722 C724 1.356 . S
C722 H776 0.930 . S
C723 N721 1.279 . S
C723 C722 1.358 . S
C723 H727 0.930 . S
C724 C722 1.356 . S
C724 C725 1.348 . S
C725 C720 1.353 . S
C725 C724 1.348 . S
C725 H777 0.929 . S
H726 C720 0.930 . S
H727 C723 0.930 . S
C728 N729 1.314 . S
C728 C730 1.353 . S
C728 H734 0.930 . S
N729 Li705 1.990 . S
N729 C728 1.314 . S
N729 C732 1.279 . S
C730 C728 1.353 . S
C730 C733 1.348 . S
C730 H778 0.929 . S
C731 C732 1.358 . S
C731 C733 1.356 . S
C731 H779 0.930 . S
C732 N729 1.279 . S
C732 C731 1.358 . S
C732 H735 0.930 . S
C733 C730 1.348 . S
C733 C731 1.356 . S
H734 C728 0.930 . S
H735 C732 0.930 . S
C736 C738 1.287 1_455 S
C736 C739 1.367 1_455 S
C736 O766 1.371 . S
N737 C740 1.314 . S
N737 C741 1.279 . S
C738 C736 1.287 1_655 S
C738 C740 1.353 . S
C738 H780 0.929 . S
C739 C736 1.367 1_655 S
C739 C741 1.358 . S
C739 H781 1.004 . S
C740 N737 1.314 . S
C740 C738 1.353 . S
C740 H782 0.930 . S
C741 N737 1.279 . S
C741 C739 1.358 . S
C741 H783 0.930 . S
C742 C743 1.259 1_455 S
C742 C744 1.356 . S
C742 O767 1.325 . S
C743 C742 1.259 1_655 S
C743 C745 1.410 . S
C743 H784 0.969 . S
C744 C742 1.356 . S
C744 C746 1.358 . S
C744 H785 0.930 . S
C745 C743 1.410 . S
C745 N747 1.314 1_655 S
C745 H786 0.930 . S
C746 C744 1.358 . S
C746 N747 1.279 . S
C746 H787 0.930 . S
N747 C745 1.314 1_455 S
N747 C746 1.279 . S
C748 C750 1.353 . S
C748 N751 1.314 . S
C748 H754 0.930 . S
C749 N751 1.279 . S
C749 C752 1.358 . S
C749 H755 0.930 . S
C750 C748 1.353 . S
C750 C753 1.348 . S
C750 H788 0.929 . S
N751 Li706 1.990 1_655 S
N751 C748 1.314 . S
N751 C749 1.279 . S
C752 C749 1.358 . S
C752 C753 1.356 . S
C752 H789 0.930 . S
C753 C750 1.348 . S
C753 C752 1.356 . S
H754 C748 0.930 . S
H755 C749 0.930 . S
C756 N757 1.314 . S
C756 C758 1.353 . S
C756 H762 0.930 . S
N757 Li707 1.990 . S
N757 C756 1.314 . S
N757 C760 1.279 . S
C758 C756 1.353 . S
C758 C761 1.348 . S
C758 H790 0.929 . S
C759 C760 1.358 . S
C759 C761 1.356 . S
C759 H791 0.930 . S
C760 N757 1.279 . S
C760 C759 1.358 . S
C760 H763 0.930 . S
C761 C758 1.348 . S
C761 C759 1.356 . S
H762 C756 0.930 . S
H763 C760 0.930 . S
O764 Li704 1.956 . S
O764 Li705 1.970 . S
O764 Li706 1.961 . S
O764 C708 1.325 . S
O765 Li704 1.970 . S
O765 Li705 1.956 . S
O765 Li707 1.961 . S
O765 C714 1.325 . S
O766 Li704 1.961 . S
O766 Li706 1.956 . S
O766 Li707 1.970 . S
O766 C736 1.371 . S
O767 Li705 1.961 . S
O767 Li706 1.970 . S
O767 Li707 1.956 . S
O767 C742 1.325 . S
H768 C710 0.929 . S
H769 C711 0.930 . S
H770 C712 0.930 . S
H771 C713 0.930 . S
H772 C715 0.930 . S
H773 C717 0.929 . S
H774 C718 0.930 . S
H775 C719 0.930 . S
H776 C722 0.930 . S
H777 C725 0.929 . S
H778 C730 0.929 . S
H779 C731 0.930 . S
H780 C738 0.929 . S
H781 C739 1.004 . S
H782 C740 0.930 . S
H783 C741 0.930 . S
H784 C743 0.969 . S
H785 C744 0.930 . S
H786 C745 0.930 . S
H787 C746 0.930 . S
H788 C750 0.929 . S
H789 C752 0.930 . S
H790 C758 0.929 . S
H791 C759 0.930 . S
Li792 N809 1.990 1_565 S
Li792 O852 1.956 . S
Li792 O853 1.970 . S
Li792 O854 1.961 . S
Li793 N817 1.990 . S
Li793 O852 1.970 . S
Li793 O853 1.956 . S
Li793 O855 1.961 . S
Li794 N839 1.990 . S
Li794 O852 1.961 . S
Li794 O854 1.956 . S
Li794 O855 1.970 . S
Li795 N845 1.990 . S
Li795 O853 1.961 . S
Li795 O854 1.970 . S
Li795 O855 1.956 . S
C796 C798 1.348 . S
C796 C799 1.356 . S
C796 O852 1.325 . S
N797 C800 1.314 . S
N797 C801 1.279 . S
C798 C796 1.348 . S
C798 C800 1.353 . S
C798 H856 0.929 . S
C799 C796 1.356 . S
C799 C801 1.358 . S
C799 H857 0.930 . S
C800 N797 1.314 . S
C800 C798 1.353 . S
C800 H858 0.930 . S
C801 N797 1.279 . S
C801 C799 1.358 . S
C801 H859 0.930 . S
C802 C805 1.348 . S
C802 C806 1.356 . S
C802 O853 1.325 . S
C803 N804 1.279 . S
C803 C806 1.358 . S
C803 H860 0.930 . S
N804 C803 1.279 . S
N804 C807 1.314 1_565 S
C805 C802 1.348 . S
C805 C807 1.353 1_565 S
C805 H861 0.929 1_565 S
C806 C802 1.356 . S
C806 C803 1.358 . S
C806 H862 0.930 . S
C807 N804 1.314 1_545 S
C807 C805 1.353 1_545 S
C807 H863 0.930 . S
C808 N809 1.314 . S
C808 C813 1.353 . S
C808 H814 0.930 . S
N809 Li792 1.990 1_545 S
N809 C808 1.314 . S
N809 C811 1.279 . S
C810 C811 1.358 . S
C810 C812 1.356 . S
C810 H864 0.930 . S
C811 N809 1.279 . S
C811 C810 1.358 . S
C811 H815 0.930 . S
C812 C810 1.356 . S
C812 C813 1.348 . S
C813 C808 1.353 . S
C813 C812 1.348 . S
C813 H865 0.929 . S
H814 C808 0.930 . S
H815 C811 0.930 . S
C816 N817 1.314 . S
C816 C818 1.353 . S
C816 H822 0.930 . S
N817 Li793 1.990 . S
N817 C816 1.314 . S
N817 C820 1.279 . S
C818 C816 1.353 . S
C818 C821 1.348 . S
C818 H866 0.929 . S
C819 C820 1.358 . S
C819 C821 1.356 . S
C819 H867 0.930 . S
C820 N817 1.279 . S
C820 C819 1.358 . S
C820 H823 0.930 . S
C821 C818 1.348 . S
C821 C819 1.356 . S
H822 C816 0.930 . S
H823 C820 0.930 . S
C824 C826 1.331 . S
C824 C827 1.360 . S
C824 O854 1.311 1_545 S
N825 C828 1.314 . S
N825 C829 1.279 . S
C826 C824 1.331 . S
C826 C828 1.392 . S
C826 H868 0.921 1_545 S
C827 C824 1.360 . S
C827 C829 1.358 . S
C827 H869 0.930 . S
C828 N825 1.314 . S
C828 C826 1.392 . S
C828 H870 0.930 . S
C829 N825 1.279 . S
C829 C827 1.358 . S
C829 H871 0.930 . S
C830 C831 1.348 . S
C830 C832 1.356 . S
C830 O855 1.325 . S
C831 C830 1.348 . S
C831 C833 1.353 . S
C831 H872 0.929 . S
C832 C830 1.356 . S
C832 C834 1.358 . S
C832 H873 0.930 . S
C833 C831 1.353 . S
C833 N835 1.314 . S
C833 H874 0.930 . S
C834 C832 1.358 . S
C834 N835 1.279 . S
C834 H875 0.930 . S
N835 C833 1.314 . S
N835 C834 1.279 . S
C836 C838 1.353 . S
C836 N839 1.314 . S
C836 H842 0.930 . S
C837 N839 1.279 . S
C837 C840 1.358 . S
C837 H843 0.930 . S
C838 C836 1.353 . S
C838 C841 1.348 . S
C838 H876 0.929 . S
N839 Li794 1.990 . S
N839 C836 1.314 . S
N839 C837 1.279 . S
C840 C837 1.358 . S
C840 C841 1.356 . S
C840 H877 0.930 . S
C841 C838 1.348 . S
C841 C840 1.356 . S
H842 C836 0.930 . S
H843 C837 0.930 . S
C844 N845 1.314 . S
C844 C846 1.353 . S
C844 H850 0.930 . S
N845 Li795 1.990 . S
N845 C844 1.314 . S
N845 C848 1.279 . S
C846 C844 1.353 . S
C846 C849 1.348 . S
C846 H878 0.899 1_565 S
C847 C848 1.358 . S
C847 C849 1.356 . S
C847 H879 0.930 . S
C848 N845 1.279 . S
C848 C847 1.358 . S
C848 H851 0.930 . S
C849 C846 1.348 . S
C849 C847 1.356 . S
H850 C844 0.930 . S
H851 C848 0.930 . S
O852 Li792 1.956 . S
O852 Li793 1.970 . S
O852 Li794 1.961 . S
O852 C796 1.325 . S
O853 Li792 1.970 . S
O853 Li793 1.956 . S
O853 Li795 1.961 . S
O853 C802 1.325 . S
O854 Li792 1.961 . S
O854 Li794 1.956 . S
O854 Li795 1.970 . S
O854 C824 1.311 1_565 S
O855 Li793 1.961 . S
O855 Li794 1.970 . S
O855 Li795 1.956 . S
O855 C830 1.325 . S
H856 C798 0.929 . S
H857 C799 0.930 . S
H858 C800 0.930 . S
H859 C801 0.930 . S
H860 C803 0.930 . S
H861 C805 0.929 1_545 S
H862 C806 0.930 . S
H863 C807 0.930 . S
H864 C810 0.930 . S
H865 C813 0.929 . S
H866 C818 0.929 . S
H867 C819 0.930 . S
H868 C826 0.921 1_565 S
H869 C827 0.930 . S
H870 C828 0.930 . S
H871 C829 0.930 . S
H872 C831 0.929 . S
H873 C832 0.930 . S
H874 C833 0.930 . S
H875 C834 0.930 . S
H876 C838 0.929 . S
H877 C840 0.930 . S
H878 C846 0.899 1_545 S
H879 C847 0.930 . S
Li880 N897 1.990 . S
Li880 O940 1.956 . S
Li880 O941 1.970 . S
Li880 O942 1.961 . S
Li881 N905 1.990 1_455 S
Li881 O940 1.970 . S
Li881 O941 1.956 . S
Li881 O943 1.961 . S
Li882 N927 1.990 . S
Li882 O940 1.961 . S
Li882 O942 1.956 . S
Li882 O943 1.970 . S
Li883 N933 1.990 . S
Li883 O941 1.961 . S
Li883 O942 1.970 . S
Li883 O943 1.956 . S
C884 C886 1.424 . S
C884 C887 1.356 . S
C884 O940 1.325 . S
N885 C888 1.314 1_455 S
N885 C889 1.279 . S
C886 C884 1.424 . S
C886 C888 1.372 1_455 S
C886 H944 0.843 1_455 S
C887 C884 1.356 . S
C887 C889 1.358 . S
C887 H945 0.930 . S
C888 N885 1.314 1_655 S
C888 C886 1.372 1_655 S
C888 H946 0.930 . S
C889 N885 1.279 . S
C889 C887 1.358 . S
C889 H947 0.930 . S
C890 C893 1.348 . S
C890 C894 1.356 . S
C890 O941 1.325 . S
C891 N892 1.279 . S
C891 C894 1.358 . S
C891 H948 0.930 . S
N892 C891 1.279 . S
N892 C895 1.314 . S
C893 C890 1.348 . S
C893 C895 1.353 . S
C893 H949 0.929 . S
C894 C890 1.356 . S
C894 C891 1.358 . S
C894 H950 0.930 . S
C895 N892 1.314 . S
C895 C893 1.353 . S
C895 H951 0.930 . S
C896 N897 1.314 . S
C896 C901 1.353 . S
C896 H902 0.930 . S
N897 Li880 1.990 . S
N897 C896 1.314 . S
N897 C899 1.279 . S
C898 C899 1.358 . S
C898 C900 1.356 . S
C898 H952 0.930 . S
C899 N897 1.279 . S
C899 C898 1.358 . S
C899 H903 0.930 . S
C900 C898 1.356 . S
C900 C901 1.348 . S
C901 C896 1.353 . S
C901 C900 1.348 . S
C901 H953 0.929 . S
H902 C896 0.930 . S
H903 C899 0.930 . S
C904 N905 1.314 . S
C904 C906 1.353 . S
C904 H910 0.930 . S
N905 Li881 1.990 1_655 S
N905 C904 1.314 . S
N905 C908 1.279 . S
C906 C904 1.353 . S
C906 C909 1.348 . S
C906 H954 0.929 . S
C907 C908 1.358 . S
C907 C909 1.356 . S
C907 H955 0.930 . S
C908 N905 1.279 . S
C908 C907 1.358 . S
C908 H911 0.930 . S
C909 C906 1.348 . S
C909 C907 1.356 . S
H910 C904 0.930 . S
H911 C908 0.930 . S
C912 C914 1.348 . S
C912 C915 1.356 . S
C912 O942 1.325 . S
N913 C916 1.314 . S
N913 C917 1.279 . S
C914 C912 1.348 . S
C914 C916 1.353 . S
C914 H956 0.929 . S
C915 C912 1.356 . S
C915 C917 1.358 . S
C915 H957 0.930 . S
C916 N913 1.314 . S
C916 C914 1.353 . S
C916 H958 0.930 . S
C917 N913 1.279 . S
C917 C915 1.358 . S
C917 H959 0.930 . S
C918 C919 1.319 . S
C918 C920 1.447 . S
C918 O943 1.271 1_655 S
C919 C918 1.319 . S
C919 C921 1.353 . S
C919 H960 0.929 1_655 S
C920 C918 1.447 . S
C920 C922 1.358 . S
C920 H961 0.930 . S
C921 C919 1.353 . S
C921 N923 1.314 . S
C921 H962 0.930 . S
C922 C920 1.358 . S
C922 N923 1.279 . S
C922 H963 0.930 . S
N923 C921 1.314 . S
N923 C922 1.279 . S
C924 C926 1.353 . S
C924 N927 1.314 . S
C924 H930 0.930 . S
C925 N927 1.279 . S
C925 C928 1.358 . S
C925 H931 0.930 . S
C926 C924 1.353 . S
C926 C929 1.348 . S
C926 H964 0.929 1_455 S
N927 Li882 1.990 . S
N927 C924 1.314 . S
N927 C925 1.279 . S
C928 C925 1.358 . S
C928 C929 1.356 . S
C928 H965 0.930 . S
C929 C926 1.348 . S
C929 C928 1.356 . S
H930 C924 0.930 . S
H931 C925 0.930 . S
C932 N933 1.314 . S
C932 C934 1.353 . S
C932 H938 0.930 . S
N933 Li883 1.990 . S
N933 C932 1.314 . S
N933 C936 1.279 . S
C934 C932 1.353 . S
C934 C937 1.348 . S
C934 H966 0.929 . S
C935 C936 1.358 . S
C935 C937 1.356 . S
C935 H967 0.930 . S
C936 N933 1.279 . S
C936 C935 1.358 . S
C936 H939 0.930 . S
C937 C934 1.348 . S
C937 C935 1.356 . S
H938 C932 0.930 . S
H939 C936 0.930 . S
O940 Li880 1.956 . S
O940 Li881 1.970 . S
O940 Li882 1.961 . S
O940 C884 1.325 . S
O941 Li880 1.970 . S
O941 Li881 1.956 . S
O941 Li883 1.961 . S
O941 C890 1.325 . S
O942 Li880 1.961 . S
O942 Li882 1.956 . S
O942 Li883 1.970 . S
O942 C912 1.325 . S
O943 Li881 1.961 . S
O943 Li882 1.970 . S
O943 Li883 1.956 . S
O943 C918 1.271 1_455 S
H944 C886 0.843 1_655 S
H945 C887 0.930 . S
H946 C888 0.930 . S
H947 C889 0.930 . S
H948 C891 0.930 . S
H949 C893 0.929 . S
H950 C894 0.930 . S
H951 C895 0.930 . S
H952 C898 0.930 . S
H953 C901 0.929 . S
H954 C906 0.929 . S
H955 C907 0.930 . S
H956 C914 0.929 . S
H957 C915 0.930 . S
H958 C916 0.930 . S
H959 C917 0.930 . S
H960 C919 0.929 1_455 S
H961 C920 0.930 . S
H962 C921 0.930 . S
H963 C922 0.930 . S
H964 C926 0.929 1_655 S
H965 C928 0.930 . S
H966 C934 0.929 . S
H967 C935 0.930 . S
Li968 N985 1.990 . S
Li968 O1028 1.956 . S
Li968 O1029 1.970 . S
Li968 O1030 1.961 . S
Li969 N993 1.990 . S
Li969 O1028 1.970 . S
Li969 O1029 1.956 . S
Li969 O1031 1.961 . S
Li970 N1015 1.990 . S
Li970 O1028 1.961 . S
Li970 O1030 1.956 . S
Li970 O1031 1.970 . S
Li971 N1021 1.990 . S
Li971 O1029 1.961 . S
Li971 O1030 1.970 . S
Li971 O1031 1.956 . S
C972 C974 1.348 . S
C972 C975 1.356 . S
C972 O1028 1.325 . S
N973 C976 1.314 . S
N973 C977 1.279 . S
C974 C972 1.348 . S
C974 C976 1.353 . S
C974 H1032 0.929 . S
C975 C972 1.356 . S
C975 C977 1.358 . S
C975 H1033 0.930 . S
C976 N973 1.314 . S
C976 C974 1.353 . S
C976 H1034 0.930 . S
C977 N973 1.279 . S
C977 C975 1.358 . S
C977 H1035 0.930 . S
C978 C981 1.348 . S
C978 C982 1.356 . S
C978 O1029 1.325 . S
C979 N980 1.279 . S
C979 C982 1.358 . S
C979 H1036 0.930 . S
N980 C979 1.279 . S
N980 C983 1.314 . S
C981 C978 1.348 . S
C981 C983 1.353 . S
C981 H1037 0.929 . S
C982 C978 1.356 . S
C982 C979 1.358 . S
C982 H1038 0.930 . S
C983 N980 1.314 . S
C983 C981 1.353 . S
C983 H1039 0.930 . S
C984 N985 1.314 . S
C984 C989 1.353 . S
C984 H990 0.930 . S
N985 Li968 1.990 . S
N985 C984 1.314 . S
N985 C987 1.279 . S
C986 C987 1.358 . S
C986 C988 1.356 . S
C986 H1040 0.930 . S
C987 N985 1.279 . S
C987 C986 1.358 . S
C987 H991 0.930 . S
C988 C986 1.356 . S
C988 C989 1.348 . S
C989 C984 1.353 . S
C989 C988 1.348 . S
C989 H1041 0.929 . S
H990 C984 0.930 . S
H991 C987 0.930 . S
C992 N993 1.314 . S
C992 C994 1.353 . S
C992 H998 0.930 . S
N993 Li969 1.990 . S
N993 C992 1.314 . S
N993 C996 1.279 . S
C994 C992 1.353 . S
C994 C997 1.348 . S
C994 H1042 0.929 . S
C995 C996 1.358 . S
C995 C997 1.356 . S
C995 H1043 0.930 . S
C996 N993 1.279 . S
C996 C995 1.358 . S
C996 H999 0.930 . S
C997 C994 1.348 . S
C997 C995 1.356 . S
H998 C992 0.930 . S
H999 C996 0.930 . S
C1000 C1002 1.348 . S
C1000 C1003 1.356 . S
C1000 O1030 1.325 . S
N1001 C1004 1.314 . S
N1001 C1005 1.279 . S
C1002 C1000 1.348 . S
C1002 C1004 1.353 . S
C1002 H1044 0.929 . S
C1003 C1000 1.356 . S
C1003 C1005 1.358 . S
C1003 H1045 0.930 . S
C1004 N1001 1.314 . S
C1004 C1002 1.353 . S
C1004 H1046 0.930 . S
C1005 N1001 1.279 . S
C1005 C1003 1.358 . S
C1005 H1047 0.930 . S
C1006 C1007 1.348 . S
C1006 C1008 1.356 . S
C1006 O1031 1.325 . S
C1007 C1006 1.348 . S
C1007 C1009 1.353 . S
C1007 H1048 0.929 . S
C1008 C1006 1.356 . S
C1008 C1010 1.358 . S
C1008 H1049 0.930 . S
C1009 C1007 1.353 . S
C1009 N1011 1.314 . S
C1009 H1050 0.930 . S
C1010 C1008 1.358 . S
C1010 N1011 1.279 . S
C1010 H1051 0.930 . S
N1011 C1009 1.314 . S
N1011 C1010 1.279 . S
C1012 C1014 1.353 . S
C1012 N1015 1.314 . S
C1012 H1018 0.930 . S
C1013 N1015 1.279 . S
C1013 C1016 1.358 . S
C1013 H1019 0.930 . S
C1014 C1012 1.353 . S
C1014 C1017 1.348 . S
C1014 H1052 0.929 . S
N1015 Li970 1.990 . S
N1015 C1012 1.314 . S
N1015 C1013 1.279 . S
C1016 C1013 1.358 . S
C1016 C1017 1.356 . S
C1016 H1053 0.930 . S
C1017 C1014 1.348 . S
C1017 C1016 1.356 . S
H1018 C1012 0.930 . S
H1019 C1013 0.930 . S
C1020 N1021 1.314 . S
C1020 C1022 1.353 . S
C1020 H1026 0.930 . S
N1021 Li971 1.990 . S
N1021 C1020 1.314 . S
N1021 C1024 1.279 . S
C1022 C1020 1.353 . S
C1022 C1025 1.348 . S
C1022 H1054 0.929 . S
C1023 C1024 1.358 . S
C1023 C1025 1.356 . S
C1023 H1055 0.930 . S
C1024 N1021 1.279 . S
C1024 C1023 1.358 . S
C1024 H1027 0.930 . S
C1025 C1022 1.348 . S
C1025 C1023 1.356 . S
H1026 C1020 0.930 . S
H1027 C1024 0.930 . S
O1028 Li968 1.956 . S
O1028 Li969 1.970 . S
O1028 Li970 1.961 . S
O1028 C972 1.325 . S
O1029 Li968 1.970 . S
O1029 Li969 1.956 . S
O1029 Li971 1.961 . S
O1029 C978 1.325 . S
O1030 Li968 1.961 . S
O1030 Li970 1.956 . S
O1030 Li971 1.970 . S
O1030 C1000 1.325 . S
O1031 Li969 1.961 . S
O1031 Li970 1.970 . S
O1031 Li971 1.956 . S
O1031 C1006 1.325 . S
H1032 C974 0.929 . S
H1033 C975 0.930 . S
H1034 C976 0.930 . S
H1035 C977 0.930 . S
H1036 C979 0.930 . S
H1037 C981 0.929 . S
H1038 C982 0.930 . S
H1039 C983 0.930 . S
H1040 C986 0.930 . S
H1041 C989 0.929 . S
H1042 C994 0.929 . S
H1043 C995 0.930 . S
H1044 C1002 0.929 . S
H1045 C1003 0.930 . S
H1046 C1004 0.930 . S
H1047 C1005 0.930 . S
H1048 C1007 0.929 . S
H1049 C1008 0.930 . S
H1050 C1009 0.930 . S
H1051 C1010 0.930 . S
H1052 C1014 0.929 . S
H1053 C1016 0.930 . S
H1054 C1022 0.929 . S
H1055 C1023 0.930 . S
Li1056 N1073 1.990 1_545 S
Li1056 O1116 1.956 . S
Li1056 O1117 1.970 . S
Li1056 O1118 1.961 . S
Li1057 N1081 1.990 . S
Li1057 O1116 1.970 . S
Li1057 O1117 1.956 . S
Li1057 O1119 1.961 . S
Li1058 N1103 1.990 . S
Li1058 O1116 1.961 . S
Li1058 O1118 1.956 . S
Li1058 O1119 1.970 . S
Li1059 N1109 1.990 . S
Li1059 O1117 1.961 . S
Li1059 O1118 1.970 . S
Li1059 O1119 1.956 . S
C1060 C1062 1.287 1_545 S
C1060 C1063 1.367 1_545 S
C1060 O1116 1.371 . S
N1061 C1064 1.314 . S
N1061 C1065 1.279 . S
C1062 C1060 1.287 1_565 S
C1062 C1064 1.353 . S
C1062 H1120 0.929 . S
C1063 C1060 1.367 1_565 S
C1063 C1065 1.358 . S
C1063 H1121 1.005 . S
C1064 N1061 1.314 . S
C1064 C1062 1.353 . S
C1064 H1122 0.930 . S
C1065 N1061 1.279 . S
C1065 C1063 1.358 . S
C1065 H1123 0.930 . S
C1066 C1069 1.259 1_545 S
C1066 C1070 1.356 . S
C1066 O1117 1.325 . S
C1067 N1068 1.279 . S
C1067 C1070 1.358 . S
C1067 H1124 0.930 . S
N1068 C1067 1.279 . S
N1068 C1071 1.314 1_545 S
C1069 C1066 1.259 1_565 S
C1069 C1071 1.410 . S
C1069 H1125 0.969 . S
C1070 C1066 1.356 . S
C1070 C1067 1.358 . S
C1070 H1126 0.930 . S
C1071 N1068 1.314 1_565 S
C1071 C1069 1.410 . S
C1071 H1127 0.930 . S
C1072 N1073 1.314 . S
C1072 C1077 1.353 . S
C1072 H1078 0.930 . S
N1073 Li1056 1.990 1_565 S
N1073 C1072 1.314 . S
N1073 C1075 1.279 . S
C1074 C1075 1.358 . S
C1074 C1076 1.356 . S
C1074 H1128 0.930 . S
C1075 N1073 1.279 . S
C1075 C1074 1.358 . S
C1075 H1079 0.930 . S
C1076 C1074 1.356 . S
C1076 C1077 1.348 . S
C1077 C1072 1.353 . S
C1077 C1076 1.348 . S
C1077 H1129 0.929 . S
H1078 C1072 0.930 . S
H1079 C1075 0.930 . S
C1080 N1081 1.314 . S
C1080 C1082 1.353 . S
C1080 H1086 0.930 . S
N1081 Li1057 1.990 . S
N1081 C1080 1.314 . S
N1081 C1084 1.279 . S
C1082 C1080 1.353 . S
C1082 C1085 1.348 . S
C1082 H1130 0.929 . S
C1083 C1084 1.358 . S
C1083 C1085 1.356 . S
C1083 H1131 0.930 . S
C1084 N1081 1.279 . S
C1084 C1083 1.358 . S
C1084 H1087 0.930 . S
C1085 C1082 1.348 . S
C1085 C1083 1.356 . S
H1086 C1080 0.930 . S
H1087 C1084 0.930 . S
C1088 C1090 1.348 . S
C1088 C1091 1.356 . S
C1088 O1118 1.325 . S
N1089 C1092 1.314 . S
N1089 C1093 1.279 . S
C1090 C1088 1.348 . S
C1090 C1092 1.353 . S
C1090 H1132 0.929 . S
C1091 C1088 1.356 . S
C1091 C1093 1.358 . S
C1091 H1133 0.930 . S
C1092 N1089 1.314 . S
C1092 C1090 1.353 . S
C1092 H1134 0.930 . S
C1093 N1089 1.279 . S
C1093 C1091 1.358 . S
C1093 H1135 0.930 . S
C1094 C1095 1.348 . S
C1094 C1096 1.356 . S
C1094 O1119 1.325 . S
C1095 C1094 1.348 . S
C1095 C1097 1.353 . S
C1095 H1136 0.929 . S
C1096 C1094 1.356 . S
C1096 C1098 1.358 . S
C1096 H1137 0.930 . S
C1097 C1095 1.353 . S
C1097 N1099 1.314 . S
C1097 H1138 0.930 . S
C1098 C1096 1.358 . S
C1098 N1099 1.279 . S
C1098 H1139 0.930 . S
N1099 C1097 1.314 . S
N1099 C1098 1.279 . S
C1100 C1102 1.353 . S
C1100 N1103 1.314 . S
C1100 H1106 0.930 . S
C1101 N1103 1.279 . S
C1101 C1104 1.358 . S
C1101 H1107 0.930 . S
C1102 C1100 1.353 . S
C1102 C1105 1.348 . S
C1102 H1140 0.929 . S
N1103 Li1058 1.990 . S
N1103 C1100 1.314 . S
N1103 C1101 1.279 . S
C1104 C1101 1.358 . S
C1104 C1105 1.356 . S
C1104 H1141 0.930 . S
C1105 C1102 1.348 . S
C1105 C1104 1.356 . S
H1106 C1100 0.930 . S
H1107 C1101 0.930 . S
C1108 N1109 1.314 . S
C1108 C1110 1.353 . S
C1108 H1114 0.930 . S
N1109 Li1059 1.990 . S
N1109 C1108 1.314 . S
N1109 C1112 1.279 . S
C1110 C1108 1.353 . S
C1110 C1113 1.348 . S
C1110 H1142 0.929 . S
C1111 C1112 1.358 . S
C1111 C1113 1.356 . S
C1111 H1143 0.930 . S
C1112 N1109 1.279 . S
C1112 C1111 1.358 . S
C1112 H1115 0.930 . S
C1113 C1110 1.348 . S
C1113 C1111 1.356 . S
H1114 C1108 0.930 . S
H1115 C1112 0.930 . S
O1116 Li1056 1.956 . S
O1116 Li1057 1.970 . S
O1116 Li1058 1.961 . S
O1116 C1060 1.371 . S
O1117 Li1056 1.970 . S
O1117 Li1057 1.956 . S
O1117 Li1059 1.961 . S
O1117 C1066 1.325 . S
O1118 Li1056 1.961 . S
O1118 Li1058 1.956 . S
O1118 Li1059 1.970 . S
O1118 C1088 1.325 . S
O1119 Li1057 1.961 . S
O1119 Li1058 1.970 . S
O1119 Li1059 1.956 . S
O1119 C1094 1.325 . S
H1120 C1062 0.929 . S
H1121 C1063 1.005 . S
H1122 C1064 0.930 . S
H1123 C1065 0.930 . S
H1124 C1067 0.930 . S
H1125 C1069 0.969 . S
H1126 C1070 0.930 . S
H1127 C1071 0.930 . S
H1128 C1074 0.930 . S
H1129 C1077 0.929 . S
H1130 C1082 0.929 . S
H1131 C1083 0.930 . S
H1132 C1090 0.929 . S
H1133 C1091 0.930 . S
H1134 C1092 0.930 . S
H1135 C1093 0.930 . S
H1136 C1095 0.929 . S
H1137 C1096 0.930 . S
H1138 C1097 0.930 . S
H1139 C1098 0.930 . S
H1140 C1102 0.929 . S
H1141 C1104 0.930 . S
H1142 C1110 0.929 . S
H1143 C1111 0.930 . S
Li1144 N1161 1.990 1_655 S
Li1144 O1204 1.956 . S
Li1144 O1205 1.970 . S
Li1144 O1206 1.961 . S
Li1145 N1169 1.990 . S
Li1145 O1204 1.970 . S
Li1145 O1205 1.956 . S
Li1145 O1207 1.961 . S
Li1146 N1191 1.990 . S
Li1146 O1204 1.961 . S
Li1146 O1206 1.956 . S
Li1146 O1207 1.970 . S
Li1147 N1197 1.990 . S
Li1147 O1205 1.961 . S
Li1147 O1206 1.970 . S
Li1147 O1207 1.956 . S
C1148 C1150 1.348 . S
C1148 C1151 1.356 . S
C1148 O1204 1.325 1_455 S
N1149 C1152 1.314 . S
N1149 C1153 1.279 . S
C1150 C1148 1.348 . S
C1150 C1152 1.353 . S
C1150 H1208 0.929 . S
C1151 C1148 1.356 . S
C1151 C1153 1.358 . S
C1151 H1209 0.930 . S
C1152 N1149 1.314 . S
C1152 C1150 1.353 . S
C1152 H1210 0.930 . S
C1153 N1149 1.279 . S
C1153 C1151 1.358 . S
C1153 H1211 0.930 . S
C1154 C1157 1.348 1_655 S
C1154 C1158 1.356 . S
C1154 O1205 1.325 . S
C1155 N1156 1.279 . S
C1155 C1158 1.358 . S
C1155 H1212 0.930 . S
N1156 C1155 1.279 . S
N1156 C1159 1.314 1_655 S
C1157 C1154 1.348 1_455 S
C1157 C1159 1.353 . S
C1157 H1213 0.929 . S
C1158 C1154 1.356 . S
C1158 C1155 1.358 . S
C1158 H1214 0.930 . S
C1159 N1156 1.314 1_455 S
C1159 C1157 1.353 . S
C1159 H1215 0.930 . S
C1160 N1161 1.314 . S
C1160 C1165 1.353 . S
C1160 H1166 0.930 . S
N1161 Li1144 1.990 1_455 S
N1161 C1160 1.314 . S
N1161 C1163 1.279 . S
C1162 C1163 1.358 . S
C1162 C1164 1.356 . S
C1162 H1216 0.930 . S
C1163 N1161 1.279 . S
C1163 C1162 1.358 . S
C1163 H1167 0.930 . S
C1164 C1162 1.356 . S
C1164 C1165 1.348 . S
C1165 C1160 1.353 . S
C1165 C1164 1.348 . S
C1165 H1217 0.929 . S
H1166 C1160 0.930 . S
H1167 C1163 0.930 . S
C1168 N1169 1.314 . S
C1168 C1170 1.353 . S
C1168 H1174 0.930 . S
N1169 Li1145 1.990 . S
N1169 C1168 1.314 . S
N1169 C1172 1.279 . S
C1170 C1168 1.353 . S
C1170 C1173 1.348 . S
C1170 H1218 0.929 . S
C1171 C1172 1.358 . S
C1171 C1173 1.356 . S
C1171 H1219 0.930 . S
C1172 N1169 1.279 . S
C1172 C1171 1.358 . S
C1172 H1175 0.930 . S
C1173 C1170 1.348 . S
C1173 C1171 1.356 . S
H1174 C1168 0.930 . S
H1175 C1172 0.930 . S
C1176 C1178 1.348 . S
C1176 C1179 1.356 . S
C1176 O1206 1.325 . S
N1177 C1180 1.314 . S
N1177 C1181 1.279 . S
C1178 C1176 1.348 . S
C1178 C1180 1.353 . S
C1178 H1220 0.929 . S
C1179 C1176 1.356 . S
C1179 C1181 1.358 . S
C1179 H1221 0.930 . S
C1180 N1177 1.314 . S
C1180 C1178 1.353 . S
C1180 H1222 0.930 . S
C1181 N1177 1.279 . S
C1181 C1179 1.358 . S
C1181 H1223 0.930 . S
C1182 C1183 1.348 . S
C1182 C1184 1.356 . S
C1182 O1207 1.325 . S
C1183 C1182 1.348 . S
C1183 C1185 1.353 . S
C1183 H1224 0.929 . S
C1184 C1182 1.356 . S
C1184 C1186 1.358 . S
C1184 H1225 0.930 . S
C1185 C1183 1.353 . S
C1185 N1187 1.314 . S
C1185 H1226 0.930 . S
C1186 C1184 1.358 . S
C1186 N1187 1.279 . S
C1186 H1227 0.930 . S
N1187 C1185 1.314 . S
N1187 C1186 1.279 . S
C1188 C1190 1.353 . S
C1188 N1191 1.314 . S
C1188 H1194 0.930 . S
C1189 N1191 1.279 . S
C1189 C1192 1.358 . S
C1189 H1195 0.930 . S
C1190 C1188 1.353 . S
C1190 C1193 1.348 . S
C1190 H1228 0.929 . S
N1191 Li1146 1.990 . S
N1191 C1188 1.314 . S
N1191 C1189 1.279 . S
C1192 C1189 1.358 . S
C1192 C1193 1.356 . S
C1192 H1229 0.930 . S
C1193 C1190 1.348 . S
C1193 C1192 1.356 . S
H1194 C1188 0.930 . S
H1195 C1189 0.930 . S
C1196 N1197 1.314 . S
C1196 C1198 1.353 . S
C1196 H1202 0.930 . S
N1197 Li1147 1.990 . S
N1197 C1196 1.314 . S
N1197 C1200 1.279 . S
C1198 C1196 1.353 . S
C1198 C1201 1.348 . S
C1198 H1230 0.929 . S
C1199 C1200 1.358 . S
C1199 C1201 1.356 . S
C1199 H1231 0.930 . S
C1200 N1197 1.279 . S
C1200 C1199 1.358 . S
C1200 H1203 0.930 . S
C1201 C1198 1.348 . S
C1201 C1199 1.356 . S
H1202 C1196 0.930 . S
H1203 C1200 0.930 . S
O1204 Li1144 1.956 . S
O1204 Li1145 1.970 . S
O1204 Li1146 1.961 . S
O1204 C1148 1.325 1_655 S
O1205 Li1144 1.970 . S
O1205 Li1145 1.956 . S
O1205 Li1147 1.961 . S
O1205 C1154 1.325 . S
O1206 Li1144 1.961 . S
O1206 Li1146 1.956 . S
O1206 Li1147 1.970 . S
O1206 C1176 1.325 . S
O1207 Li1145 1.961 . S
O1207 Li1146 1.970 . S
O1207 Li1147 1.956 . S
O1207 C1182 1.325 . S
H1208 C1150 0.929 . S
H1209 C1151 0.930 . S
H1210 C1152 0.930 . S
H1211 C1153 0.930 . S
H1212 C1155 0.930 . S
H1213 C1157 0.929 . S
H1214 C1158 0.930 . S
H1215 C1159 0.930 . S
H1216 C1162 0.930 . S
H1217 C1165 0.929 . S
H1218 C1170 0.929 . S
H1219 C1171 0.930 . S
H1220 C1178 0.929 . S
H1221 C1179 0.930 . S
H1222 C1180 0.930 . S
H1223 C1181 0.930 . S
H1224 C1183 0.929 . S
H1225 C1184 0.930 . S
H1226 C1185 0.930 . S
H1227 C1186 0.930 . S
H1228 C1190 0.929 . S
H1229 C1192 0.930 . S
H1230 C1198 0.929 . S
H1231 C1199 0.930 . S
Li1232 N1249 1.990 . S
Li1232 O1292 1.956 . S
Li1232 O1293 1.970 . S
Li1232 O1294 1.961 . S
Li1233 N1257 1.990 . S
Li1233 O1292 1.970 . S
Li1233 O1293 1.956 . S
Li1233 O1295 1.961 . S
Li1234 N1279 1.990 . S
Li1234 O1292 1.961 . S
Li1234 O1294 1.956 . S
Li1234 O1295 1.970 . S
Li1235 N1285 1.990 . S
Li1235 O1293 1.961 . S
Li1235 O1294 1.970 . S
Li1235 O1295 1.956 . S
C1236 C1238 1.348 . S
C1236 C1239 1.356 . S
C1236 O1292 1.325 . S
N1237 C1240 1.314 . S
N1237 C1241 1.279 . S
C1238 C1236 1.348 . S
C1238 C1240 1.353 . S
C1238 H1296 0.929 . S
C1239 C1236 1.356 . S
C1239 C1241 1.358 . S
C1239 H1297 0.930 . S
C1240 N1237 1.314 . S
C1240 C1238 1.353 . S
C1240 H1298 0.930 . S
C1241 N1237 1.279 . S
C1241 C1239 1.358 . S
C1241 H1299 0.930 . S
C1242 C1245 1.348 . S
C1242 C1246 1.356 . S
C1242 O1293 1.325 . S
C1243 N1244 1.279 . S
C1243 C1246 1.358 . S
C1243 H1300 0.930 . S
N1244 C1243 1.279 . S
N1244 C1247 1.314 . S
C1245 C1242 1.348 . S
C1245 C1247 1.353 . S
C1245 H1301 0.929 . S
C1246 C1242 1.356 . S
C1246 C1243 1.358 . S
C1246 H1302 0.930 . S
C1247 N1244 1.314 . S
C1247 C1245 1.353 . S
C1247 H1303 0.930 . S
C1248 N1249 1.314 . S
C1248 C1253 1.353 . S
C1248 H1254 0.930 . S
N1249 Li1232 1.990 . S
N1249 C1248 1.314 . S
N1249 C1251 1.279 . S
C1250 C1251 1.358 . S
C1250 C1252 1.356 . S
C1250 H1304 0.930 . S
C1251 N1249 1.279 . S
C1251 C1250 1.358 . S
C1251 H1255 0.930 . S
C1252 C1250 1.356 . S
C1252 C1253 1.348 . S
C1253 C1248 1.353 . S
C1253 C1252 1.348 . S
C1253 H1305 0.929 . S
H1254 C1248 0.930 . S
H1255 C1251 0.930 . S
C1256 N1257 1.314 . S
C1256 C1258 1.353 . S
C1256 H1262 0.930 . S
N1257 Li1233 1.990 . S
N1257 C1256 1.314 . S
N1257 C1260 1.279 . S
C1258 C1256 1.353 . S
C1258 C1261 1.348 . S
C1258 H1306 0.929 . S
C1259 C1260 1.358 . S
C1259 C1261 1.356 . S
C1259 H1307 0.930 . S
C1260 N1257 1.279 . S
C1260 C1259 1.358 . S
C1260 H1263 0.930 . S
C1261 C1258 1.348 . S
C1261 C1259 1.356 . S
H1262 C1256 0.930 . S
H1263 C1260 0.930 . S
C1264 C1266 1.348 . S
C1264 C1267 1.356 . S
C1264 O1294 1.325 . S
N1265 C1268 1.314 . S
N1265 C1269 1.279 . S
C1266 C1264 1.348 . S
C1266 C1268 1.353 . S
C1266 H1308 0.929 . S
C1267 C1264 1.356 . S
C1267 C1269 1.358 . S
C1267 H1309 0.930 . S
C1268 N1265 1.314 . S
C1268 C1266 1.353 . S
C1268 H1310 0.930 . S
C1269 N1265 1.279 . S
C1269 C1267 1.358 . S
C1269 H1311 0.930 . S
C1270 C1271 1.348 . S
C1270 C1272 1.356 . S
C1270 O1295 1.325 . S
C1271 C1270 1.348 . S
C1271 C1273 1.353 . S
C1271 H1312 0.929 . S
C1272 C1270 1.356 . S
C1272 C1274 1.358 . S
C1272 H1313 0.930 . S
C1273 C1271 1.353 . S
C1273 N1275 1.314 . S
C1273 H1314 0.930 . S
C1274 C1272 1.358 . S
C1274 N1275 1.279 . S
C1274 H1315 0.930 . S
N1275 C1273 1.314 . S
N1275 C1274 1.279 . S
C1276 C1278 1.353 . S
C1276 N1279 1.314 . S
C1276 H1282 0.930 . S
C1277 N1279 1.279 . S
C1277 C1280 1.358 . S
C1277 H1283 0.930 . S
C1278 C1276 1.353 . S
C1278 C1281 1.348 . S
C1278 H1316 0.929 . S
N1279 Li1234 1.990 . S
N1279 C1276 1.314 . S
N1279 C1277 1.279 . S
C1280 C1277 1.358 . S
C1280 C1281 1.356 . S
C1280 H1317 0.930 . S
C1281 C1278 1.348 . S
C1281 C1280 1.356 . S
H1282 C1276 0.930 . S
H1283 C1277 0.930 . S
C1284 N1285 1.314 . S
C1284 C1286 1.353 . S
C1284 H1290 0.930 . S
N1285 Li1235 1.990 . S
N1285 C1284 1.314 . S
N1285 C1288 1.279 . S
C1286 C1284 1.353 . S
C1286 C1289 1.348 . S
C1286 H1318 0.929 . S
C1287 C1288 1.358 . S
C1287 C1289 1.356 . S
C1287 H1319 0.930 . S
C1288 N1285 1.279 . S
C1288 C1287 1.358 . S
C1288 H1291 0.930 . S
C1289 C1286 1.348 . S
C1289 C1287 1.356 . S
H1290 C1284 0.930 . S
H1291 C1288 0.930 . S
O1292 Li1232 1.956 . S
O1292 Li1233 1.970 . S
O1292 Li1234 1.961 . S
O1292 C1236 1.325 . S
O1293 Li1232 1.970 . S
O1293 Li1233 1.956 . S
O1293 Li1235 1.961 . S
O1293 C1242 1.325 . S
O1294 Li1232 1.961 . S
O1294 Li1234 1.956 . S
O1294 Li1235 1.970 . S
O1294 C1264 1.325 . S
O1295 Li1233 1.961 . S
O1295 Li1234 1.970 . S
O1295 Li1235 1.956 . S
O1295 C1270 1.325 . S
H1296 C1238 0.929 . S
H1297 C1239 0.930 . S
H1298 C1240 0.930 . S
H1299 C1241 0.930 . S
H1300 C1243 0.930 . S
H1301 C1245 0.929 . S
H1302 C1246 0.930 . S
H1303 C1247 0.930 . S
H1304 C1250 0.930 . S
H1305 C1253 0.929 . S
H1306 C1258 0.929 . S
H1307 C1259 0.930 . S
H1308 C1266 0.929 . S
H1309 C1267 0.930 . S
H1310 C1268 0.930 . S
H1311 C1269 0.930 . S
H1312 C1271 0.929 . S
H1313 C1272 0.930 . S
H1314 C1273 0.930 . S
H1315 C1274 0.930 . S
H1316 C1278 0.929 . S
H1317 C1280 0.930 . S
H1318 C1286 0.929 . S
H1319 C1287 0.930 . S
Li1320 N1337 1.990 . S
Li1320 O1380 1.956 . S
Li1320 O1381 1.970 . S
Li1320 O1382 1.961 . S
Li1321 N1345 1.990 . S
Li1321 O1380 1.970 . S
Li1321 O1381 1.956 . S
Li1321 O1383 1.961 . S
Li1322 N1367 1.990 . S
Li1322 O1380 1.961 . S
Li1322 O1382 1.956 . S
Li1322 O1383 1.970 . S
Li1323 N1373 1.990 . S
Li1323 O1381 1.961 . S
Li1323 O1382 1.970 . S
Li1323 O1383 1.956 . S
C1324 C1326 1.348 . S
C1324 C1327 1.356 . S
C1324 O1380 1.325 . S
N1325 C1328 1.314 . S
N1325 C1329 1.279 . S
C1326 C1324 1.348 . S
C1326 C1328 1.353 . S
C1326 H1384 0.929 . S
C1327 C1324 1.356 . S
C1327 C1329 1.358 . S
C1327 H1385 0.930 . S
C1328 N1325 1.314 . S
C1328 C1326 1.353 . S
C1328 H1386 0.930 . S
C1329 N1325 1.279 . S
C1329 C1327 1.358 . S
C1329 H1387 0.930 . S
C1330 C1333 1.348 . S
C1330 C1334 1.356 . S
C1330 O1381 1.325 . S
C1331 N1332 1.279 . S
C1331 C1334 1.358 . S
C1331 H1388 0.930 . S
N1332 C1331 1.279 . S
N1332 C1335 1.314 . S
C1333 C1330 1.348 . S
C1333 C1335 1.353 . S
C1333 H1389 0.929 . S
C1334 C1330 1.356 . S
C1334 C1331 1.358 . S
C1334 H1390 0.930 . S
C1335 N1332 1.314 . S
C1335 C1333 1.353 . S
C1335 H1391 0.930 . S
C1336 N1337 1.314 . S
C1336 C1341 1.353 . S
C1336 H1342 0.930 . S
N1337 Li1320 1.990 . S
N1337 C1336 1.314 . S
N1337 C1339 1.279 . S
C1338 C1339 1.358 . S
C1338 C1340 1.356 . S
C1338 H1392 0.930 . S
C1339 N1337 1.279 . S
C1339 C1338 1.358 . S
C1339 H1343 0.930 . S
C1340 C1338 1.356 . S
C1340 C1341 1.348 . S
C1341 C1336 1.353 . S
C1341 C1340 1.348 . S
C1341 H1393 0.929 . S
H1342 C1336 0.930 . S
H1343 C1339 0.930 . S
C1344 N1345 1.314 . S
C1344 C1346 1.353 . S
C1344 H1350 0.930 . S
N1345 Li1321 1.990 . S
N1345 C1344 1.314 . S
N1345 C1348 1.279 . S
C1346 C1344 1.353 . S
C1346 C1349 1.348 . S
C1346 H1394 0.929 . S
C1347 C1348 1.358 . S
C1347 C1349 1.356 . S
C1347 H1395 0.930 . S
C1348 N1345 1.279 . S
C1348 C1347 1.358 . S
C1348 H1351 0.930 . S
C1349 C1346 1.348 . S
C1349 C1347 1.356 . S
H1350 C1344 0.930 . S
H1351 C1348 0.930 . S
C1352 C1354 1.348 . S
C1352 C1355 1.356 . S
C1352 O1382 1.325 . S
N1353 C1356 1.314 . S
N1353 C1357 1.279 . S
C1354 C1352 1.348 . S
C1354 C1356 1.353 . S
C1354 H1396 0.929 . S
C1355 C1352 1.356 . S
C1355 C1357 1.358 . S
C1355 H1397 0.930 . S
C1356 N1353 1.314 . S
C1356 C1354 1.353 . S
C1356 H1398 0.930 . S
C1357 N1353 1.279 . S
C1357 C1355 1.358 . S
C1357 H1399 0.930 . S
C1358 C1359 1.348 . S
C1358 C1360 1.356 . S
C1358 O1383 1.325 . S
C1359 C1358 1.348 . S
C1359 C1361 1.353 . S
C1359 H1400 0.929 . S
C1360 C1358 1.356 . S
C1360 C1362 1.358 . S
C1360 H1401 0.930 . S
C1361 C1359 1.353 . S
C1361 N1363 1.314 . S
C1361 H1402 0.930 . S
C1362 C1360 1.358 . S
C1362 N1363 1.279 . S
C1362 H1403 0.930 . S
N1363 C1361 1.314 . S
N1363 C1362 1.279 . S
C1364 C1366 1.353 . S
C1364 N1367 1.314 . S
C1364 H1370 0.930 . S
C1365 N1367 1.279 . S
C1365 C1368 1.358 . S
C1365 H1371 0.930 . S
C1366 C1364 1.353 . S
C1366 C1369 1.348 . S
C1366 H1404 0.929 . S
N1367 Li1322 1.990 . S
N1367 C1364 1.314 . S
N1367 C1365 1.279 . S
C1368 C1365 1.358 . S
C1368 C1369 1.356 . S
C1368 H1405 0.930 . S
C1369 C1366 1.348 . S
C1369 C1368 1.356 . S
H1370 C1364 0.930 . S
H1371 C1365 0.930 . S
C1372 N1373 1.314 . S
C1372 C1374 1.353 . S
C1372 H1378 0.930 . S
N1373 Li1323 1.990 . S
N1373 C1372 1.314 . S
N1373 C1376 1.279 . S
C1374 C1372 1.353 . S
C1374 C1377 1.348 . S
C1374 H1406 0.929 . S
C1375 C1376 1.358 . S
C1375 C1377 1.356 . S
C1375 H1407 0.930 . S
C1376 N1373 1.279 . S
C1376 C1375 1.358 . S
C1376 H1379 0.930 . S
C1377 C1374 1.348 . S
C1377 C1375 1.356 . S
H1378 C1372 0.930 . S
H1379 C1376 0.930 . S
O1380 Li1320 1.956 . S
O1380 Li1321 1.970 . S
O1380 Li1322 1.961 . S
O1380 C1324 1.325 . S
O1381 Li1320 1.970 . S
O1381 Li1321 1.956 . S
O1381 Li1323 1.961 . S
O1381 C1330 1.325 . S
O1382 Li1320 1.961 . S
O1382 Li1322 1.956 . S
O1382 Li1323 1.970 . S
O1382 C1352 1.325 . S
O1383 Li1321 1.961 . S
O1383 Li1322 1.970 . S
O1383 Li1323 1.956 . S
O1383 C1358 1.325 . S
H1384 C1326 0.929 . S
H1385 C1327 0.930 . S
H1386 C1328 0.930 . S
H1387 C1329 0.930 . S
H1388 C1331 0.930 . S
H1389 C1333 0.929 . S
H1390 C1334 0.930 . S
H1391 C1335 0.930 . S
H1392 C1338 0.930 . S
H1393 C1341 0.929 . S
H1394 C1346 0.929 . S
H1395 C1347 0.930 . S
H1396 C1354 0.929 . S
H1397 C1355 0.930 . S
H1398 C1356 0.930 . S
H1399 C1357 0.930 . S
H1400 C1359 0.929 . S
H1401 C1360 0.930 . S
H1402 C1361 0.930 . S
H1403 C1362 0.930 . S
H1404 C1366 0.929 . S
H1405 C1368 0.930 . S
H1406 C1374 0.929 . S
H1407 C1375 0.930 . S
Li1408 N1425 1.990 . S
Li1408 O1468 1.956 . S
Li1408 O1469 1.970 . S
Li1408 O1470 1.961 . S
Li1409 N1433 1.990 . S
Li1409 O1468 1.970 . S
Li1409 O1469 1.956 . S
Li1409 O1471 1.961 . S
Li1410 N1455 1.990 . S
Li1410 O1468 1.961 . S
Li1410 O1470 1.956 . S
Li1410 O1471 1.970 . S
Li1411 N1461 1.990 1_545 S
Li1411 O1469 1.961 . S
Li1411 O1470 1.970 . S
Li1411 O1471 1.956 . S
C1412 C1414 1.348 . S
C1412 C1415 1.356 . S
C1412 O1468 1.325 . S
N1413 C1416 1.314 . S
N1413 C1417 1.279 . S
C1414 C1412 1.348 . S
C1414 C1416 1.353 . S
C1414 H1472 0.929 . S
C1415 C1412 1.356 . S
C1415 C1417 1.358 . S
C1415 H1473 0.930 . S
C1416 N1413 1.314 . S
C1416 C1414 1.353 . S
C1416 H1474 0.930 . S
C1417 N1413 1.279 . S
C1417 C1415 1.358 . S
C1417 H1475 0.930 . S
C1418 C1421 1.319 . S
C1418 C1422 1.446 . S
C1418 O1469 1.271 1_565 S
C1419 N1420 1.279 . S
C1419 C1422 1.358 . S
C1419 H1476 0.930 . S
N1420 C1419 1.279 . S
N1420 C1423 1.314 . S
C1421 C1418 1.319 . S
C1421 C1423 1.353 . S
C1421 H1477 0.929 1_565 S
C1422 C1418 1.446 . S
C1422 C1419 1.358 . S
C1422 H1478 0.930 . S
C1423 N1420 1.314 . S
C1423 C1421 1.353 . S
C1423 H1479 0.930 . S
C1424 N1425 1.314 . S
C1424 C1429 1.353 . S
C1424 H1430 0.930 . S
N1425 Li1408 1.990 . S
N1425 C1424 1.314 . S
N1425 C1427 1.279 . S
C1426 C1427 1.358 . S
C1426 C1428 1.356 . S
C1426 H1480 0.930 . S
C1427 N1425 1.279 . S
C1427 C1426 1.358 . S
C1427 H1431 0.930 . S
C1428 C1426 1.356 . S
C1428 C1429 1.348 . S
C1429 C1424 1.353 . S
C1429 C1428 1.348 . S
C1429 H1481 0.929 1_545 S
H1430 C1424 0.930 . S
H1431 C1427 0.930 . S
C1432 N1433 1.314 . S
C1432 C1434 1.353 . S
C1432 H1438 0.930 . S
N1433 Li1409 1.990 . S
N1433 C1432 1.314 . S
N1433 C1436 1.279 . S
C1434 C1432 1.353 . S
C1434 C1437 1.348 . S
C1434 H1482 0.929 . S
C1435 C1436 1.358 . S
C1435 C1437 1.356 . S
C1435 H1483 0.930 . S
C1436 N1433 1.279 . S
C1436 C1435 1.358 . S
C1436 H1439 0.930 . S
C1437 C1434 1.348 . S
C1437 C1435 1.356 . S
H1438 C1432 0.930 . S
H1439 C1436 0.930 . S
C1440 C1442 1.425 . S
C1440 C1443 1.356 . S
C1440 O1470 1.325 . S
N1441 C1444 1.314 1_545 S
N1441 C1445 1.279 . S
C1442 C1440 1.425 . S
C1442 C1444 1.372 1_545 S
C1442 H1484 0.842 1_545 S
C1443 C1440 1.356 . S
C1443 C1445 1.358 . S
C1443 H1485 0.930 . S
C1444 N1441 1.314 1_565 S
C1444 C1442 1.372 1_565 S
C1444 H1486 0.930 . S
C1445 N1441 1.279 . S
C1445 C1443 1.358 . S
C1445 H1487 0.930 . S
C1446 C1447 1.348 . S
C1446 C1448 1.356 . S
C1446 O1471 1.325 . S
C1447 C1446 1.348 . S
C1447 C1449 1.353 . S
C1447 H1488 0.929 . S
C1448 C1446 1.356 . S
C1448 C1450 1.358 . S
C1448 H1489 0.930 . S
C1449 C1447 1.353 . S
C1449 N1451 1.314 . S
C1449 H1490 0.930 . S
C1450 C1448 1.358 . S
C1450 N1451 1.279 . S
C1450 H1491 0.930 . S
N1451 C1449 1.314 . S
N1451 C1450 1.279 . S
C1452 C1454 1.353 . S
C1452 N1455 1.314 . S
C1452 H1458 0.930 . S
C1453 N1455 1.279 . S
C1453 C1456 1.358 . S
C1453 H1459 0.930 . S
C1454 C1452 1.353 . S
C1454 C1457 1.348 . S
C1454 H1492 0.929 . S
N1455 Li1410 1.990 . S
N1455 C1452 1.314 . S
N1455 C1453 1.279 . S
C1456 C1453 1.358 . S
C1456 C1457 1.356 . S
C1456 H1493 0.930 . S
C1457 C1454 1.348 . S
C1457 C1456 1.356 . S
H1458 C1452 0.930 . S
H1459 C1453 0.930 . S
C1460 N1461 1.314 . S
C1460 C1462 1.353 . S
C1460 H1466 0.930 . S
N1461 Li1411 1.990 1_565 S
N1461 C1460 1.314 . S
N1461 C1464 1.279 . S
C1462 C1460 1.353 . S
C1462 C1465 1.348 . S
C1462 H1494 0.929 . S
C1463 C1464 1.358 . S
C1463 C1465 1.356 . S
C1463 H1495 0.930 . S
C1464 N1461 1.279 . S
C1464 C1463 1.358 . S
C1464 H1467 0.930 . S
C1465 C1462 1.348 . S
C1465 C1463 1.356 . S
H1466 C1460 0.930 . S
H1467 C1464 0.930 . S
O1468 Li1408 1.956 . S
O1468 Li1409 1.970 . S
O1468 Li1410 1.961 . S
O1468 C1412 1.325 . S
O1469 Li1408 1.970 . S
O1469 Li1409 1.956 . S
O1469 Li1411 1.961 . S
O1469 C1418 1.271 1_545 S
O1470 Li1408 1.961 . S
O1470 Li1410 1.956 . S
O1470 Li1411 1.970 . S
O1470 C1440 1.325 . S
O1471 Li1409 1.961 . S
O1471 Li1410 1.970 . S
O1471 Li1411 1.956 . S
O1471 C1446 1.325 . S
H1472 C1414 0.929 . S
H1473 C1415 0.930 . S
H1474 C1416 0.930 . S
H1475 C1417 0.930 . S
H1476 C1419 0.930 . S
H1477 C1421 0.929 1_545 S
H1478 C1422 0.930 . S
H1479 C1423 0.930 . S
H1480 C1426 0.930 . S
H1481 C1429 0.929 1_565 S
H1482 C1434 0.929 . S
H1483 C1435 0.930 . S
H1484 C1442 0.842 1_565 S
H1485 C1443 0.930 . S
H1486 C1444 0.930 . S
H1487 C1445 0.930 . S
H1488 C1447 0.929 . S
H1489 C1448 0.930 . S
H1490 C1449 0.930 . S
H1491 C1450 0.930 . S
H1492 C1454 0.929 . S
H1493 C1456 0.930 . S
H1494 C1462 0.929 . S
H1495 C1463 0.930 . S
Li1496 N1513 1.990 . S
Li1496 O1556 1.956 . S
Li1496 O1557 1.970 . S
Li1496 O1558 1.961 . S
Li1497 N1521 1.990 . S
Li1497 O1556 1.970 . S
Li1497 O1557 1.956 . S
Li1497 O1559 1.961 . S
Li1498 N1543 1.990 1_655 S
Li1498 O1556 1.961 . S
Li1498 O1558 1.956 . S
Li1498 O1559 1.970 . S
Li1499 N1549 1.990 . S
Li1499 O1557 1.961 . S
Li1499 O1558 1.970 . S
Li1499 O1559 1.956 . S
C1500 C1502 1.331 . S
C1500 C1503 1.360 . S
C1500 O1556 1.311 1_455 S
N1501 C1504 1.314 . S
N1501 C1505 1.279 . S
C1502 C1500 1.331 . S
C1502 C1504 1.393 . S
C1502 H1560 0.921 1_455 S
C1503 C1500 1.360 . S
C1503 C1505 1.358 . S
C1503 H1561 0.930 . S
C1504 N1501 1.314 . S
C1504 C1502 1.393 . S
C1504 H1562 0.930 . S
C1505 N1501 1.279 . S
C1505 C1503 1.358 . S
C1505 H1563 0.930 . S
C1506 C1509 1.348 . S
C1506 C1510 1.356 . S
C1506 O1557 1.325 . S
C1507 N1508 1.279 . S
C1507 C1510 1.358 . S
C1507 H1564 0.930 . S
N1508 C1507 1.279 . S
N1508 C1511 1.314 . S
C1509 C1506 1.348 . S
C1509 C1511 1.353 . S
C1509 H1565 0.929 . S
C1510 C1506 1.356 . S
C1510 C1507 1.358 . S
C1510 H1566 0.930 . S
C1511 N1508 1.314 . S
C1511 C1509 1.353 . S
C1511 H1567 0.930 . S
C1512 N1513 1.314 . S
C1512 C1517 1.353 . S
C1512 H1518 0.930 . S
N1513 Li1496 1.990 . S
N1513 C1512 1.314 . S
N1513 C1515 1.279 . S
C1514 C1515 1.358 . S
C1514 C1516 1.356 . S
C1514 H1568 0.930 . S
C1515 N1513 1.279 . S
C1515 C1514 1.358 . S
C1515 H1519 0.930 . S
C1516 C1514 1.356 . S
C1516 C1517 1.348 . S
C1517 C1512 1.353 . S
C1517 C1516 1.348 . S
C1517 H1569 0.929 . S
H1518 C1512 0.930 . S
H1519 C1515 0.930 . S
C1520 N1521 1.314 . S
C1520 C1522 1.353 . S
C1520 H1526 0.930 . S
N1521 Li1497 1.990 . S
N1521 C1520 1.314 . S
N1521 C1524 1.279 . S
C1522 C1520 1.353 . S
C1522 C1525 1.348 . S
C1522 H1570 0.897 1_655 S
C1523 C1524 1.358 . S
C1523 C1525 1.356 . S
C1523 H1571 0.930 . S
C1524 N1521 1.279 . S
C1524 C1523 1.358 . S
C1524 H1527 0.930 . S
C1525 C1522 1.348 . S
C1525 C1523 1.356 . S
H1526 C1520 0.930 . S
H1527 C1524 0.930 . S
C1528 C1530 1.348 . S
C1528 C1531 1.356 . S
C1528 O1558 1.325 . S
N1529 C1532 1.314 . S
N1529 C1533 1.279 . S
C1530 C1528 1.348 . S
C1530 C1532 1.353 . S
C1530 H1572 0.929 . S
C1531 C1528 1.356 . S
C1531 C1533 1.358 . S
C1531 H1573 0.930 . S
C1532 N1529 1.314 . S
C1532 C1530 1.353 . S
C1532 H1574 0.930 . S
C1533 N1529 1.279 . S
C1533 C1531 1.358 . S
C1533 H1575 0.930 . S
C1534 C1535 1.348 . S
C1534 C1536 1.356 . S
C1534 O1559 1.325 . S
C1535 C1534 1.348 . S
C1535 C1537 1.353 1_655 S
C1535 H1576 0.929 1_655 S
C1536 C1534 1.356 . S
C1536 C1538 1.358 . S
C1536 H1577 0.930 . S
C1537 C1535 1.353 1_455 S
C1537 N1539 1.314 1_455 S
C1537 H1578 0.930 . S
C1538 C1536 1.358 . S
C1538 N1539 1.279 . S
C1538 H1579 0.930 . S
N1539 C1537 1.314 1_655 S
N1539 C1538 1.279 . S
C1540 C1542 1.353 . S
C1540 N1543 1.314 . S
C1540 H1546 0.930 . S
C1541 N1543 1.279 . S
C1541 C1544 1.358 . S
C1541 H1547 0.930 . S
C1542 C1540 1.353 . S
C1542 C1545 1.348 . S
C1542 H1580 0.929 . S
N1543 Li1498 1.990 1_455 S
N1543 C1540 1.314 . S
N1543 C1541 1.279 . S
C1544 C1541 1.358 . S
C1544 C1545 1.356 . S
C1544 H1581 0.930 . S
C1545 C1542 1.348 . S
C1545 C1544 1.356 . S
H1546 C1540 0.930 . S
H1547 C1541 0.930 . S
C1548 N1549 1.314 . S
C1548 C1550 1.353 . S
C1548 H1554 0.930 . S
N1549 Li1499 1.990 . S
N1549 C1548 1.314 . S
N1549 C1552 1.279 . S
C1550 C1548 1.353 . S
C1550 C1553 1.348 . S
C1550 H1582 0.929 . S
C1551 C1552 1.358 . S
C1551 C1553 1.356 . S
C1551 H1583 0.930 . S
C1552 N1549 1.279 . S
C1552 C1551 1.358 . S
C1552 H1555 0.930 . S
C1553 C1550 1.348 . S
C1553 C1551 1.356 . S
H1554 C1548 0.930 . S
H1555 C1552 0.930 . S
O1556 Li1496 1.956 . S
O1556 Li1497 1.970 . S
O1556 Li1498 1.961 . S
O1556 C1500 1.311 1_655 S
O1557 Li1496 1.970 . S
O1557 Li1497 1.956 . S
O1557 Li1499 1.961 . S
O1557 C1506 1.325 . S
O1558 Li1496 1.961 . S
O1558 Li1498 1.956 . S
O1558 Li1499 1.970 . S
O1558 C1528 1.325 . S
O1559 Li1497 1.961 . S
O1559 Li1498 1.970 . S
O1559 Li1499 1.956 . S
O1559 C1534 1.325 . S
H1560 C1502 0.921 1_655 S
H1561 C1503 0.930 . S
H1562 C1504 0.930 . S
H1563 C1505 0.930 . S
H1564 C1507 0.930 . S
H1565 C1509 0.929 . S
H1566 C1510 0.930 . S
H1567 C1511 0.930 . S
H1568 C1514 0.930 . S
H1569 C1517 0.929 . S
H1570 C1522 0.897 1_455 S
H1571 C1523 0.930 . S
H1572 C1530 0.929 . S
H1573 C1531 0.930 . S
H1574 C1532 0.930 . S
H1575 C1533 0.930 . S
H1576 C1535 0.929 1_455 S
H1577 C1536 0.930 . S
H1578 C1537 0.930 . S
H1579 C1538 0.930 . S
H1580 C1542 0.929 . S
H1581 C1544 0.930 . S
H1582 C1550 0.929 . S
H1583 C1551 0.930 . S
C1584 C1585 1.384 . S
C1584 C1586 1.384 . S
C1584 H1612 0.931 . S
C1585 C1584 1.384 . S
C1585 C1588 1.382 . S
C1586 C1584 1.384 . S
C1586 C1587 1.381 . S
C1586 H1613 0.930 . S
C1587 C1586 1.381 . S
C1587 C1589 1.381 . S
C1587 C1590 1.487 . S
C1588 C1585 1.382 . S
C1588 C1589 1.387 . S
C1588 H1614 0.930 . S
C1589 C1587 1.381 . S
C1589 C1588 1.387 . S
C1589 H1615 0.931 . S
C1590 C1587 1.487 . S
C1590 C1597 1.399 . S
C1590 N1628 1.343 . S
C1591 C1592 1.384 . S
C1591 C1593 1.384 . S
C1591 H1616 0.931 . S
C1592 C1591 1.384 . S
C1592 C1595 1.382 . S
C1593 C1591 1.384 . S
C1593 C1594 1.381 . S
C1593 H1617 0.930 . S
C1594 C1593 1.381 . S
C1594 C1596 1.381 . S
C1594 C1597 1.487 . S
C1595 C1592 1.382 . S
C1595 C1596 1.387 . S
C1595 H1618 0.930 . S
C1596 C1594 1.381 . S
C1596 C1595 1.387 . S
C1596 H1619 0.931 . S
C1597 C1590 1.399 . S
C1597 C1594 1.487 . S
C1597 N1629 1.343 . S
C1598 C1599 1.384 . S
C1598 C1600 1.384 . S
C1598 H1620 0.931 . S
C1599 C1598 1.384 . S
C1599 C1602 1.382 . S
C1600 C1598 1.384 . S
C1600 C1601 1.381 . S
C1600 H1621 0.930 . S
C1601 C1600 1.381 . S
C1601 C1603 1.381 . S
C1601 C1604 1.487 . S
C1602 C1599 1.382 . S
C1602 C1603 1.387 . S
C1602 H1622 0.930 . S
C1603 C1601 1.381 . S
C1603 C1602 1.387 . S
C1603 H1623 0.931 . S
C1604 C1601 1.487 . S
C1604 C1611 1.399 . S
C1604 N1629 1.343 . S
C1605 C1606 1.384 . S
C1605 C1607 1.384 . S
C1605 H1624 0.931 . S
C1606 C1605 1.384 . S
C1606 C1609 1.382 . S
C1607 C1605 1.384 . S
C1607 C1608 1.381 . S
C1607 H1625 0.930 . S
C1608 C1607 1.381 . S
C1608 C1610 1.381 . S
C1608 C1611 1.487 . S
C1609 C1606 1.382 . S
C1609 C1610 1.387 . S
C1609 H1626 0.930 . S
C1610 C1608 1.381 . S
C1610 C1609 1.387 . S
C1610 H1627 0.931 . S
C1611 C1604 1.399 . S
C1611 C1608 1.487 . S
C1611 N1628 1.343 . S
H1612 C1584 0.931 . S
H1613 C1586 0.930 . S
H1614 C1588 0.930 . S
H1615 C1589 0.931 . S
H1616 C1591 0.931 . S
H1617 C1593 0.930 . S
H1618 C1595 0.930 . S
H1619 C1596 0.931 . S
H1620 C1598 0.931 . S
H1621 C1600 0.930 . S
H1622 C1602 0.930 . S
H1623 C1603 0.931 . S
H1624 C1605 0.931 . S
H1625 C1607 0.930 . S
H1626 C1609 0.930 . S
H1627 C1610 0.931 . S
N1628 C1590 1.343 . S
N1628 C1611 1.343 . S
N1629 C1597 1.343 . S
N1629 C1604 1.343 . S
C1630 C1631 1.384 . S
C1630 C1632 1.384 . S
C1630 H1658 0.931 . S
C1631 C1630 1.384 . S
C1631 C1634 1.382 . S
C1632 C1630 1.384 . S
C1632 C1633 1.381 . S
C1632 H1659 0.930 . S
C1633 C1632 1.381 . S
C1633 C1635 1.381 . S
C1633 C1636 1.487 . S
C1634 C1631 1.382 . S
C1634 C1635 1.387 . S
C1634 H1660 0.930 . S
C1635 C1633 1.381 . S
C1635 C1634 1.387 . S
C1635 H1661 0.931 . S
C1636 C1633 1.487 . S
C1636 C1643 1.399 . S
C1636 N1674 1.343 . S
C1637 C1638 1.384 . S
C1637 C1639 1.384 . S
C1637 H1662 0.931 . S
C1638 C1637 1.384 . S
C1638 C1641 1.382 . S
C1639 C1637 1.384 . S
C1639 C1640 1.381 . S
C1639 H1663 0.930 . S
C1640 C1639 1.381 . S
C1640 C1642 1.381 . S
C1640 C1643 1.487 . S
C1641 C1638 1.382 . S
C1641 C1642 1.387 . S
C1641 H1664 0.930 . S
C1642 C1640 1.381 . S
C1642 C1641 1.387 . S
C1642 H1665 0.931 . S
C1643 C1636 1.399 . S
C1643 C1640 1.487 . S
C1643 N1675 1.343 . S
C1644 C1645 1.384 . S
C1644 C1646 1.384 . S
C1644 H1666 0.931 . S
C1645 C1644 1.384 . S
C1645 C1648 1.382 . S
C1646 C1644 1.384 . S
C1646 C1647 1.381 . S
C1646 H1667 0.930 . S
C1647 C1646 1.381 . S
C1647 C1649 1.381 . S
C1647 C1650 1.487 . S
C1648 C1645 1.382 . S
C1648 C1649 1.387 . S
C1648 H1668 0.930 . S
C1649 C1647 1.381 . S
C1649 C1648 1.387 . S
C1649 H1669 0.931 . S
C1650 C1647 1.487 . S
C1650 C1657 1.399 . S
C1650 N1675 1.343 . S
C1651 C1652 1.384 . S
C1651 C1653 1.384 . S
C1651 H1670 0.931 . S
C1652 C1651 1.384 . S
C1652 C1655 1.382 . S
C1653 C1651 1.384 . S
C1653 C1654 1.381 . S
C1653 H1671 0.930 . S
C1654 C1653 1.381 . S
C1654 C1656 1.381 . S
C1654 C1657 1.487 . S
C1655 C1652 1.382 . S
C1655 C1656 1.387 . S
C1655 H1672 0.930 . S
C1656 C1654 1.381 . S
C1656 C1655 1.387 . S
C1656 H1673 0.931 . S
C1657 C1650 1.399 . S
C1657 C1654 1.487 . S
C1657 N1674 1.343 . S
H1658 C1630 0.931 . S
H1659 C1632 0.930 . S
H1660 C1634 0.930 . S
H1661 C1635 0.931 . S
H1662 C1637 0.931 . S
H1663 C1639 0.930 . S
H1664 C1641 0.930 . S
H1665 C1642 0.931 . S
H1666 C1644 0.931 . S
H1667 C1646 0.930 . S
H1668 C1648 0.930 . S
H1669 C1649 0.931 . S
H1670 C1651 0.931 . S
H1671 C1653 0.930 . S
H1672 C1655 0.930 . S
H1673 C1656 0.931 . S
N1674 C1636 1.343 . S
N1674 C1657 1.343 . S
N1675 C1643 1.343 . S
N1675 C1650 1.343 . S
C1676 C1677 1.384 . S
C1676 C1678 1.384 . S
C1676 H1704 0.931 . S
C1677 C1676 1.384 . S
C1677 C1680 1.382 . S
C1678 C1676 1.384 . S
C1678 C1679 1.381 . S
C1678 H1705 0.930 . S
C1679 C1678 1.381 . S
C1679 C1681 1.381 . S
C1679 C1682 1.487 . S
C1680 C1677 1.382 . S
C1680 C1681 1.387 . S
C1680 H1706 0.930 . S
C1681 C1679 1.381 . S
C1681 C1680 1.387 . S
C1681 H1707 0.931 . S
C1682 C1679 1.487 . S
C1682 C1689 1.399 . S
C1682 N1720 1.343 . S
C1683 C1684 1.384 . S
C1683 C1685 1.384 . S
C1683 H1708 0.931 . S
C1684 C1683 1.384 . S
C1684 C1687 1.382 . S
C1685 C1683 1.384 . S
C1685 C1686 1.381 . S
C1685 H1709 0.930 . S
C1686 C1685 1.381 . S
C1686 C1688 1.381 . S
C1686 C1689 1.487 . S
C1687 C1684 1.382 . S
C1687 C1688 1.387 . S
C1687 H1710 0.930 . S
C1688 C1686 1.381 . S
C1688 C1687 1.387 . S
C1688 H1711 0.931 . S
C1689 C1682 1.399 . S
C1689 C1686 1.487 . S
C1689 N1721 1.343 . S
C1690 C1691 1.384 . S
C1690 C1692 1.384 . S
C1690 H1712 0.931 . S
C1691 C1690 1.384 . S
C1691 C1694 1.382 . S
C1692 C1690 1.384 . S
C1692 C1693 1.381 . S
C1692 H1713 0.930 . S
C1693 C1692 1.381 . S
C1693 C1695 1.381 . S
C1693 C1696 1.487 . S
C1694 C1691 1.382 . S
C1694 C1695 1.387 . S
C1694 H1714 0.930 . S
C1695 C1693 1.381 . S
C1695 C1694 1.387 . S
C1695 H1715 0.931 . S
C1696 C1693 1.487 . S
C1696 C1703 1.399 . S
C1696 N1721 1.343 . S
C1697 C1698 1.384 . S
C1697 C1699 1.384 . S
C1697 H1716 0.931 . S
C1698 C1697 1.384 . S
C1698 C1701 1.382 . S
C1699 C1697 1.384 . S
C1699 C1700 1.381 . S
C1699 H1717 0.930 . S
C1700 C1699 1.381 . S
C1700 C1702 1.381 . S
C1700 C1703 1.487 . S
C1701 C1698 1.382 . S
C1701 C1702 1.387 . S
C1701 H1718 0.930 . S
C1702 C1700 1.381 . S
C1702 C1701 1.387 . S
C1702 H1719 0.931 . S
C1703 C1696 1.399 . S
C1703 C1700 1.487 . S
C1703 N1720 1.343 . S
H1704 C1676 0.931 . S
H1705 C1678 0.930 . S
H1706 C1680 0.930 . S
H1707 C1681 0.931 . S
H1708 C1683 0.931 . S
H1709 C1685 0.930 . S
H1710 C1687 0.930 . S
H1711 C1688 0.931 . S
H1712 C1690 0.931 . S
H1713 C1692 0.930 . S
H1714 C1694 0.930 . S
H1715 C1695 0.931 . S
H1716 C1697 0.931 . S
H1717 C1699 0.930 . S
H1718 C1701 0.930 . S
H1719 C1702 0.931 . S
N1720 C1682 1.343 . S
N1720 C1703 1.343 . S
N1721 C1689 1.343 . S
N1721 C1696 1.343 . S
C1722 C1723 1.384 . S
C1722 C1724 1.384 . S
C1722 H1750 0.931 . S
C1723 C1722 1.384 . S
C1723 C1726 1.382 . S
C1724 C1722 1.384 . S
C1724 C1725 1.381 . S
C1724 H1751 0.930 . S
C1725 C1724 1.381 . S
C1725 C1727 1.381 . S
C1725 C1728 1.487 . S
C1726 C1723 1.382 . S
C1726 C1727 1.387 . S
C1726 H1752 0.930 . S
C1727 C1725 1.381 . S
C1727 C1726 1.387 . S
C1727 H1753 0.931 . S
C1728 C1725 1.487 . S
C1728 C1735 1.399 . S
C1728 N1766 1.343 . S
C1729 C1730 1.384 . S
C1729 C1731 1.384 . S
C1729 H1754 0.931 . S
C1730 C1729 1.384 . S
C1730 C1733 1.382 . S
C1731 C1729 1.384 . S
C1731 C1732 1.381 . S
C1731 H1755 0.930 . S
C1732 C1731 1.381 . S
C1732 C1734 1.381 . S
C1732 C1735 1.487 . S
C1733 C1730 1.382 . S
C1733 C1734 1.387 . S
C1733 H1756 0.930 . S
C1734 C1732 1.381 . S
C1734 C1733 1.387 . S
C1734 H1757 0.931 . S
C1735 C1728 1.399 . S
C1735 C1732 1.487 . S
C1735 N1767 1.343 . S
C1736 C1737 1.384 . S
C1736 C1738 1.384 . S
C1736 H1758 0.931 . S
C1737 C1736 1.384 . S
C1737 C1740 1.382 . S
C1738 C1736 1.384 . S
C1738 C1739 1.381 . S
C1738 H1759 0.930 . S
C1739 C1738 1.381 . S
C1739 C1741 1.381 . S
C1739 C1742 1.487 . S
C1740 C1737 1.382 . S
C1740 C1741 1.387 . S
C1740 H1760 0.930 . S
C1741 C1739 1.381 . S
C1741 C1740 1.387 . S
C1741 H1761 0.931 . S
C1742 C1739 1.487 . S
C1742 C1749 1.399 . S
C1742 N1767 1.343 . S
C1743 C1744 1.384 . S
C1743 C1745 1.384 . S
C1743 H1762 0.931 . S
C1744 C1743 1.384 . S
C1744 C1747 1.382 . S
C1745 C1743 1.384 . S
C1745 C1746 1.381 . S
C1745 H1763 0.930 . S
C1746 C1745 1.381 . S
C1746 C1748 1.381 . S
C1746 C1749 1.487 . S
C1747 C1744 1.382 . S
C1747 C1748 1.387 . S
C1747 H1764 0.930 . S
C1748 C1746 1.381 . S
C1748 C1747 1.387 . S
C1748 H1765 0.931 . S
C1749 C1742 1.399 . S
C1749 C1746 1.487 . S
C1749 N1766 1.343 . S
H1750 C1722 0.931 . S
H1751 C1724 0.930 . S
H1752 C1726 0.930 . S
H1753 C1727 0.931 . S
H1754 C1729 0.931 . S
H1755 C1731 0.930 . S
H1756 C1733 0.930 . S
H1757 C1734 0.931 . S
H1758 C1736 0.931 . S
H1759 C1738 0.930 . S
H1760 C1740 0.930 . S
H1761 C1741 0.931 . S
H1762 C1743 0.931 . S
H1763 C1745 0.930 . S
H1764 C1747 0.930 . S
H1765 C1748 0.931 . S
N1766 C1728 1.343 . S
N1766 C1749 1.343 . S
N1767 C1735 1.343 . S
N1767 C1742 1.343 . S
C1768 C1769 1.384 . S
C1768 C1770 1.384 . S
C1768 H1796 0.931 . S
C1769 C1768 1.384 . S
C1769 C1772 1.382 . S
C1770 C1768 1.384 . S
C1770 C1771 1.381 . S
C1770 H1797 0.930 . S
C1771 C1770 1.381 . S
C1771 C1773 1.381 . S
C1771 C1774 1.487 . S
C1772 C1769 1.382 . S
C1772 C1773 1.387 . S
C1772 H1798 0.930 . S
C1773 C1771 1.381 . S
C1773 C1772 1.387 . S
C1773 H1799 0.931 . S
C1774 C1771 1.487 . S
C1774 C1781 1.399 . S
C1774 N1812 1.343 . S
C1775 C1776 1.384 . S
C1775 C1777 1.384 . S
C1775 H1800 0.931 . S
C1776 C1775 1.384 . S
C1776 C1779 1.382 . S
C1777 C1775 1.384 . S
C1777 C1778 1.381 . S
C1777 H1801 0.930 . S
C1778 C1777 1.381 . S
C1778 C1780 1.381 . S
C1778 C1781 1.487 . S
C1779 C1776 1.382 . S
C1779 C1780 1.387 . S
C1779 H1802 0.930 . S
C1780 C1778 1.381 . S
C1780 C1779 1.387 . S
C1780 H1803 0.931 . S
C1781 C1774 1.399 . S
C1781 C1778 1.487 . S
C1781 N1813 1.343 . S
C1782 C1783 1.384 . S
C1782 C1784 1.384 . S
C1782 H1804 0.931 . S
C1783 C1782 1.384 . S
C1783 C1786 1.382 . S
C1784 C1782 1.384 . S
C1784 C1785 1.381 . S
C1784 H1805 0.930 . S
C1785 C1784 1.381 . S
C1785 C1787 1.381 . S
C1785 C1788 1.487 . S
C1786 C1783 1.382 . S
C1786 C1787 1.387 . S
C1786 H1806 0.930 . S
C1787 C1785 1.381 . S
C1787 C1786 1.387 . S
C1787 H1807 0.931 . S
C1788 C1785 1.487 . S
C1788 C1795 1.399 . S
C1788 N1813 1.343 . S
C1789 C1790 1.384 . S
C1789 C1791 1.384 . S
C1789 H1808 0.931 . S
C1790 C1789 1.384 . S
C1790 C1793 1.382 . S
C1791 C1789 1.384 . S
C1791 C1792 1.381 . S
C1791 H1809 0.930 . S
C1792 C1791 1.381 . S
C1792 C1794 1.381 . S
C1792 C1795 1.487 . S
C1793 C1790 1.382 . S
C1793 C1794 1.387 . S
C1793 H1810 0.930 . S
C1794 C1792 1.381 . S
C1794 C1793 1.387 . S
C1794 H1811 0.931 . S
C1795 C1788 1.399 . S
C1795 C1792 1.487 . S
C1795 N1812 1.343 . S
H1796 C1768 0.931 . S
H1797 C1770 0.930 . S
H1798 C1772 0.930 . S
H1799 C1773 0.931 . S
H1800 C1775 0.931 . S
H1801 C1777 0.930 . S
H1802 C1779 0.930 . S
H1803 C1780 0.931 . S
H1804 C1782 0.931 . S
H1805 C1784 0.930 . S
H1806 C1786 0.930 . S
H1807 C1787 0.931 . S
H1808 C1789 0.931 . S
H1809 C1791 0.930 . S
H1810 C1793 0.930 . S
H1811 C1794 0.931 . S
N1812 C1774 1.343 . S
N1812 C1795 1.343 . S
N1813 C1781 1.343 . S
N1813 C1788 1.343 . S
C1814 C1815 1.384 . S
C1814 C1816 1.384 . S
C1814 H1842 0.931 . S
C1815 C1814 1.384 . S
C1815 C1818 1.382 . S
C1816 C1814 1.384 . S
C1816 C1817 1.381 . S
C1816 H1843 0.930 . S
C1817 C1816 1.381 . S
C1817 C1819 1.381 . S
C1817 C1820 1.487 . S
C1818 C1815 1.382 . S
C1818 C1819 1.387 . S
C1818 H1844 0.930 . S
C1819 C1817 1.381 . S
C1819 C1818 1.387 . S
C1819 H1845 0.931 . S
C1820 C1817 1.487 . S
C1820 C1827 1.399 . S
C1820 N1858 1.343 . S
C1821 C1822 1.384 . S
C1821 C1823 1.384 . S
C1821 H1846 0.931 . S
C1822 C1821 1.384 . S
C1822 C1825 1.382 . S
C1823 C1821 1.384 . S
C1823 C1824 1.381 . S
C1823 H1847 0.930 . S
C1824 C1823 1.381 . S
C1824 C1826 1.381 . S
C1824 C1827 1.487 . S
C1825 C1822 1.382 . S
C1825 C1826 1.387 . S
C1825 H1848 0.930 . S
C1826 C1824 1.381 . S
C1826 C1825 1.387 . S
C1826 H1849 0.931 . S
C1827 C1820 1.399 . S
C1827 C1824 1.487 . S
C1827 N1859 1.343 . S
C1828 C1829 1.384 . S
C1828 C1830 1.384 . S
C1828 H1850 0.931 . S
C1829 C1828 1.384 . S
C1829 C1832 1.382 . S
C1830 C1828 1.384 . S
C1830 C1831 1.381 . S
C1830 H1851 0.930 . S
C1831 C1830 1.381 . S
C1831 C1833 1.381 . S
C1831 C1834 1.487 . S
C1832 C1829 1.382 . S
C1832 C1833 1.387 . S
C1832 H1852 0.930 . S
C1833 C1831 1.381 . S
C1833 C1832 1.387 . S
C1833 H1853 0.931 . S
C1834 C1831 1.487 . S
C1834 C1841 1.399 . S
C1834 N1859 1.343 . S
C1835 C1836 1.384 . S
C1835 C1837 1.384 . S
C1835 H1854 0.931 . S
C1836 C1835 1.384 . S
C1836 C1839 1.382 . S
C1837 C1835 1.384 . S
C1837 C1838 1.381 . S
C1837 H1855 0.930 . S
C1838 C1837 1.381 . S
C1838 C1840 1.381 . S
C1838 C1841 1.487 . S
C1839 C1836 1.382 . S
C1839 C1840 1.387 . S
C1839 H1856 0.930 . S
C1840 C1838 1.381 . S
C1840 C1839 1.387 . S
C1840 H1857 0.931 . S
C1841 C1834 1.399 . S
C1841 C1838 1.487 . S
C1841 N1858 1.343 . S
H1842 C1814 0.931 . S
H1843 C1816 0.930 . S
H1844 C1818 0.930 . S
H1845 C1819 0.931 . S
H1846 C1821 0.931 . S
H1847 C1823 0.930 . S
H1848 C1825 0.930 . S
H1849 C1826 0.931 . S
H1850 C1828 0.931 . S
H1851 C1830 0.930 . S
H1852 C1832 0.930 . S
H1853 C1833 0.931 . S
H1854 C1835 0.931 . S
H1855 C1837 0.930 . S
H1856 C1839 0.930 . S
H1857 C1840 0.931 . S
N1858 C1820 1.343 . S
N1858 C1841 1.343 . S
N1859 C1827 1.343 . S
N1859 C1834 1.343 . S
C1860 C1861 1.384 . S
C1860 C1862 1.384 . S
C1860 H1888 0.931 . S
C1861 C1860 1.384 . S
C1861 C1864 1.382 . S
C1862 C1860 1.384 . S
C1862 C1863 1.381 . S
C1862 H1889 0.930 . S
C1863 C1862 1.381 . S
C1863 C1865 1.381 . S
C1863 C1866 1.487 . S
C1864 C1861 1.382 . S
C1864 C1865 1.387 . S
C1864 H1890 0.930 . S
C1865 C1863 1.381 . S
C1865 C1864 1.387 . S
C1865 H1891 0.931 . S
C1866 C1863 1.487 . S
C1866 C1873 1.399 . S
C1866 N1904 1.343 . S
C1867 C1868 1.384 . S
C1867 C1869 1.384 . S
C1867 H1892 0.931 . S
C1868 C1867 1.384 . S
C1868 C1871 1.382 . S
C1869 C1867 1.384 . S
C1869 C1870 1.381 . S
C1869 H1893 0.930 . S
C1870 C1869 1.381 . S
C1870 C1872 1.381 . S
C1870 C1873 1.487 . S
C1871 C1868 1.382 . S
C1871 C1872 1.387 . S
C1871 H1894 0.930 . S
C1872 C1870 1.381 . S
C1872 C1871 1.387 . S
C1872 H1895 0.931 . S
C1873 C1866 1.399 . S
C1873 C1870 1.487 . S
C1873 N1905 1.343 . S
C1874 C1875 1.384 . S
C1874 C1876 1.384 . S
C1874 H1896 0.931 . S
C1875 C1874 1.384 . S
C1875 C1878 1.382 . S
C1876 C1874 1.384 . S
C1876 C1877 1.381 . S
C1876 H1897 0.930 . S
C1877 C1876 1.381 . S
C1877 C1879 1.381 . S
C1877 C1880 1.487 . S
C1878 C1875 1.382 . S
C1878 C1879 1.387 . S
C1878 H1898 0.930 . S
C1879 C1877 1.381 . S
C1879 C1878 1.387 . S
C1879 H1899 0.931 . S
C1880 C1877 1.487 . S
C1880 C1887 1.399 . S
C1880 N1905 1.343 . S
C1881 C1882 1.384 . S
C1881 C1883 1.384 . S
C1881 H1900 0.931 . S
C1882 C1881 1.384 . S
C1882 C1885 1.382 . S
C1883 C1881 1.384 . S
C1883 C1884 1.381 . S
C1883 H1901 0.930 . S
C1884 C1883 1.381 . S
C1884 C1886 1.381 . S
C1884 C1887 1.487 . S
C1885 C1882 1.382 . S
C1885 C1886 1.387 . S
C1885 H1902 0.930 . S
C1886 C1884 1.381 . S
C1886 C1885 1.387 . S
C1886 H1903 0.931 . S
C1887 C1880 1.399 . S
C1887 C1884 1.487 . S
C1887 N1904 1.343 . S
H1888 C1860 0.931 . S
H1889 C1862 0.930 . S
H1890 C1864 0.930 . S
H1891 C1865 0.931 . S
H1892 C1867 0.931 . S
H1893 C1869 0.930 . S
H1894 C1871 0.930 . S
H1895 C1872 0.931 . S
H1896 C1874 0.931 . S
H1897 C1876 0.930 . S
H1898 C1878 0.930 . S
H1899 C1879 0.931 . S
H1900 C1881 0.931 . S
H1901 C1883 0.930 . S
H1902 C1885 0.930 . S
H1903 C1886 0.931 . S
N1904 C1866 1.343 . S
N1904 C1887 1.343 . S
N1905 C1873 1.343 . S
N1905 C1880 1.343 . S
C1906 C1907 1.384 . S
C1906 C1908 1.384 . S
C1906 H1934 0.931 . S
C1907 C1906 1.384 . S
C1907 C1910 1.382 . S
C1908 C1906 1.384 . S
C1908 C1909 1.381 . S
C1908 H1935 0.930 . S
C1909 C1908 1.381 . S
C1909 C1911 1.381 . S
C1909 C1912 1.487 . S
C1910 C1907 1.382 . S
C1910 C1911 1.387 . S
C1910 H1936 0.930 . S
C1911 C1909 1.381 . S
C1911 C1910 1.387 . S
C1911 H1937 0.931 . S
C1912 C1909 1.487 . S
C1912 C1919 1.399 . S
C1912 N1950 1.343 . S
C1913 C1914 1.384 . S
C1913 C1915 1.384 . S
C1913 H1938 0.931 . S
C1914 C1913 1.384 . S
C1914 C1917 1.382 . S
C1915 C1913 1.384 . S
C1915 C1916 1.381 . S
C1915 H1939 0.930 . S
C1916 C1915 1.381 . S
C1916 C1918 1.381 . S
C1916 C1919 1.487 . S
C1917 C1914 1.382 . S
C1917 C1918 1.387 . S
C1917 H1940 0.930 . S
C1918 C1916 1.381 . S
C1918 C1917 1.387 . S
C1918 H1941 0.931 . S
C1919 C1912 1.399 . S
C1919 C1916 1.487 . S
C1919 N1951 1.343 . S
C1920 C1921 1.384 . S
C1920 C1922 1.384 . S
C1920 H1942 0.931 . S
C1921 C1920 1.384 . S
C1921 C1924 1.382 . S
C1922 C1920 1.384 . S
C1922 C1923 1.381 . S
C1922 H1943 0.930 . S
C1923 C1922 1.381 . S
C1923 C1925 1.381 . S
C1923 C1926 1.487 . S
C1924 C1921 1.382 . S
C1924 C1925 1.387 . S
C1924 H1944 0.930 . S
C1925 C1923 1.381 . S
C1925 C1924 1.387 . S
C1925 H1945 0.931 . S
C1926 C1923 1.487 . S
C1926 C1933 1.399 . S
C1926 N1951 1.343 . S
C1927 C1928 1.384 . S
C1927 C1929 1.384 . S
C1927 H1946 0.931 . S
C1928 C1927 1.384 . S
C1928 C1931 1.382 . S
C1929 C1927 1.384 . S
C1929 C1930 1.381 . S
C1929 H1947 0.930 . S
C1930 C1929 1.381 . S
C1930 C1932 1.381 . S
C1930 C1933 1.487 . S
C1931 C1928 1.382 . S
C1931 C1932 1.387 . S
C1931 H1948 0.930 . S
C1932 C1930 1.381 . S
C1932 C1931 1.387 . S
C1932 H1949 0.931 . S
C1933 C1926 1.399 . S
C1933 C1930 1.487 . S
C1933 N1950 1.343 . S
H1934 C1906 0.931 . S
H1935 C1908 0.930 . S
H1936 C1910 0.930 . S
H1937 C1911 0.931 . S
H1938 C1913 0.931 . S
H1939 C1915 0.930 . S
H1940 C1917 0.930 . S
H1941 C1918 0.931 . S
H1942 C1920 0.931 . S
H1943 C1922 0.930 . S
H1944 C1924 0.930 . S
H1945 C1925 0.931 . S
H1946 C1927 0.931 . S
H1947 C1929 0.930 . S
H1948 C1931 0.930 . S
H1949 C1932 0.931 . S
N1950 C1912 1.343 . S
N1950 C1933 1.343 . S
N1951 C1919 1.343 . S
N1951 C1926 1.343 . S
C1952 C1953 1.384 . S
C1952 C1954 1.384 . S
C1952 H1980 0.931 . S
C1953 C1952 1.384 . S
C1953 C1956 1.382 . S
C1954 C1952 1.384 . S
C1954 C1955 1.381 . S
C1954 H1981 0.930 . S
C1955 C1954 1.381 . S
C1955 C1957 1.381 . S
C1955 C1958 1.487 . S
C1956 C1953 1.382 . S
C1956 C1957 1.387 . S
C1956 H1982 0.930 . S
C1957 C1955 1.381 . S
C1957 C1956 1.387 . S
C1957 H1983 0.931 . S
C1958 C1955 1.487 . S
C1958 C1965 1.399 . S
C1958 N1996 1.343 . S
C1959 C1960 1.384 . S
C1959 C1961 1.384 . S
C1959 H1984 0.931 . S
C1960 C1959 1.384 . S
C1960 C1963 1.382 . S
C1961 C1959 1.384 . S
C1961 C1962 1.381 . S
C1961 H1985 0.930 . S
C1962 C1961 1.381 . S
C1962 C1964 1.381 . S
C1962 C1965 1.487 . S
C1963 C1960 1.382 . S
C1963 C1964 1.387 . S
C1963 H1986 0.930 . S
C1964 C1962 1.381 . S
C1964 C1963 1.387 . S
C1964 H1987 0.931 . S
C1965 C1958 1.399 . S
C1965 C1962 1.487 . S
C1965 N1997 1.343 . S
C1966 C1967 1.384 . S
C1966 C1968 1.384 . S
C1966 H1988 0.931 . S
C1967 C1966 1.384 . S
C1967 C1970 1.382 . S
C1968 C1966 1.384 . S
C1968 C1969 1.381 . S
C1968 H1989 0.930 . S
C1969 C1968 1.381 . S
C1969 C1971 1.381 . S
C1969 C1972 1.487 . S
C1970 C1967 1.382 . S
C1970 C1971 1.387 . S
C1970 H1990 0.930 . S
C1971 C1969 1.381 . S
C1971 C1970 1.387 . S
C1971 H1991 0.931 . S
C1972 C1969 1.487 . S
C1972 C1979 1.399 . S
C1972 N1997 1.343 . S
C1973 C1974 1.384 . S
C1973 C1975 1.384 . S
C1973 H1992 0.931 . S
C1974 C1973 1.384 . S
C1974 C1977 1.382 . S
C1975 C1973 1.384 . S
C1975 C1976 1.381 . S
C1975 H1993 0.930 . S
C1976 C1975 1.381 . S
C1976 C1978 1.381 . S
C1976 C1979 1.487 . S
C1977 C1974 1.382 . S
C1977 C1978 1.387 . S
C1977 H1994 0.930 . S
C1978 C1976 1.381 . S
C1978 C1977 1.387 . S
C1978 H1995 0.931 . S
C1979 C1972 1.399 . S
C1979 C1976 1.487 . S
C1979 N1996 1.343 . S
H1980 C1952 0.931 . S
H1981 C1954 0.930 . S
H1982 C1956 0.930 . S
H1983 C1957 0.931 . S
H1984 C1959 0.931 . S
H1985 C1961 0.930 . S
H1986 C1963 0.930 . S
H1987 C1964 0.931 . S
H1988 C1966 0.931 . S
H1989 C1968 0.930 . S
H1990 C1970 0.930 . S
H1991 C1971 0.931 . S
H1992 C1973 0.931 . S
H1993 C1975 0.930 . S
H1994 C1977 0.930 . S
H1995 C1978 0.931 . S
N1996 C1958 1.343 . S
N1996 C1979 1.343 . S
N1997 C1965 1.343 . S
N1997 C1972 1.343 . S
C1998 C1999 1.384 . S
C1998 C2000 1.384 . S
C1998 H2026 0.931 . S
C1999 C1998 1.384 . S
C1999 C2002 1.382 1_655 S
C2000 C1998 1.384 . S
C2000 C2001 1.395 . S
C2000 H2027 0.930 . S
C2001 C2000 1.395 . S
C2001 C2003 1.374 1_655 S
C2001 C2004 1.477 1_655 S
C2002 C1999 1.382 1_455 S
C2002 C2003 1.387 . S
C2002 H2028 0.930 . S
C2003 C2001 1.374 1_455 S
C2003 C2002 1.387 . S
C2003 H2029 0.931 . S
C2004 C2001 1.477 1_455 S
C2004 C2011 1.399 1_455 S
C2004 N2042 1.318 . S
C2005 C2006 1.384 . S
C2005 C2007 1.384 . S
C2005 H2030 0.931 . S
C2006 C2005 1.384 . S
C2006 C2009 1.382 1_455 S
C2007 C2005 1.384 . S
C2007 C2008 1.384 . S
C2007 H2031 0.930 . S
C2008 C2007 1.384 . S
C2008 C2010 1.373 1_455 S
C2008 C2011 1.491 1_455 S
C2009 C2006 1.382 1_655 S
C2009 C2010 1.387 . S
C2009 H2032 0.930 . S
C2010 C2008 1.373 1_655 S
C2010 C2009 1.387 . S
C2010 H2033 0.931 . S
C2011 C2004 1.399 1_655 S
C2011 C2008 1.491 1_655 S
C2011 N2043 1.362 . S
C2012 C2013 1.384 . S
C2012 C2014 1.384 . S
C2012 H2034 0.931 . S
C2013 C2012 1.384 . S
C2013 C2016 1.382 1_455 S
C2014 C2012 1.384 . S
C2014 C2015 1.419 . S
C2014 H2035 0.930 . S
C2015 C2014 1.419 . S
C2015 C2017 1.362 1_455 S
C2015 C2018 1.466 . S
C2016 C2013 1.382 1_655 S
C2016 C2017 1.387 . S
C2016 H2036 0.930 . S
C2017 C2015 1.362 1_655 S
C2017 C2016 1.387 . S
C2017 H2037 0.931 . S
C2018 C2015 1.466 . S
C2018 C2025 1.399 . S
C2018 N2043 1.329 1_455 S
C2019 C2020 1.384 . S
C2019 C2021 1.384 . S
C2019 H2038 0.931 . S
C2020 C2019 1.384 . S
C2020 C2023 1.382 1_655 S
C2021 C2019 1.384 . S
C2021 C2022 1.380 . S
C2021 H2039 0.930 . S
C2022 C2021 1.380 . S
C2022 C2024 1.386 1_655 S
C2022 C2025 1.491 1_655 S
C2023 C2020 1.382 1_455 S
C2023 C2024 1.387 . S
C2023 H2040 0.930 . S
C2024 C2022 1.386 1_455 S
C2024 C2023 1.387 . S
C2024 H2041 0.931 . S
C2025 C2018 1.399 . S
C2025 C2022 1.491 1_455 S
C2025 N2042 1.362 . S
H2026 C1998 0.931 . S
H2027 C2000 0.930 . S
H2028 C2002 0.930 . S
H2029 C2003 0.931 . S
H2030 C2005 0.931 . S
H2031 C2007 0.930 . S
H2032 C2009 0.930 . S
H2033 C2010 0.931 . S
H2034 C2012 0.931 . S
H2035 C2014 0.930 . S
H2036 C2016 0.930 . S
H2037 C2017 0.931 . S
H2038 C2019 0.931 . S
H2039 C2021 0.930 . S
H2040 C2023 0.930 . S
H2041 C2024 0.931 . S
N2042 C2004 1.318 . S
N2042 C2025 1.362 . S
N2043 C2011 1.362 . S
N2043 C2018 1.329 1_655 S
C2044 C2045 1.384 . S
C2044 C2046 1.384 . S
C2044 H2072 0.931 . S
C2045 C2044 1.384 . S
C2045 C2048 1.382 . S
C2046 C2044 1.384 . S
C2046 C2047 1.381 . S
C2046 H2073 0.930 . S
C2047 C2046 1.381 . S
C2047 C2049 1.381 . S
C2047 C2050 1.487 . S
C2048 C2045 1.382 . S
C2048 C2049 1.387 . S
C2048 H2074 0.930 . S
C2049 C2047 1.381 . S
C2049 C2048 1.387 . S
C2049 H2075 0.931 . S
C2050 C2047 1.487 . S
C2050 C2057 1.399 . S
C2050 N2088 1.343 . S
C2051 C2052 1.384 . S
C2051 C2053 1.384 . S
C2051 H2076 0.931 . S
C2052 C2051 1.384 . S
C2052 C2055 1.382 . S
C2053 C2051 1.384 . S
C2053 C2054 1.381 . S
C2053 H2077 0.930 . S
C2054 C2053 1.381 . S
C2054 C2056 1.381 . S
C2054 C2057 1.487 . S
C2055 C2052 1.382 . S
C2055 C2056 1.387 . S
C2055 H2078 0.930 . S
C2056 C2054 1.381 . S
C2056 C2055 1.387 . S
C2056 H2079 0.931 . S
C2057 C2050 1.399 . S
C2057 C2054 1.487 . S
C2057 N2089 1.343 . S
C2058 C2059 1.384 . S
C2058 C2060 1.384 . S
C2058 H2080 0.931 . S
C2059 C2058 1.384 . S
C2059 C2062 1.382 . S
C2060 C2058 1.384 . S
C2060 C2061 1.381 . S
C2060 H2081 0.930 . S
C2061 C2060 1.381 . S
C2061 C2063 1.381 . S
C2061 C2064 1.487 . S
C2062 C2059 1.382 . S
C2062 C2063 1.387 . S
C2062 H2082 0.930 . S
C2063 C2061 1.381 . S
C2063 C2062 1.387 . S
C2063 H2083 0.931 . S
C2064 C2061 1.487 . S
C2064 C2071 1.399 . S
C2064 N2089 1.343 . S
C2065 C2066 1.384 . S
C2065 C2067 1.384 . S
C2065 H2084 0.931 . S
C2066 C2065 1.384 . S
C2066 C2069 1.382 . S
C2067 C2065 1.384 . S
C2067 C2068 1.381 . S
C2067 H2085 0.930 . S
C2068 C2067 1.381 . S
C2068 C2070 1.381 . S
C2068 C2071 1.487 . S
C2069 C2066 1.382 . S
C2069 C2070 1.387 . S
C2069 H2086 0.930 . S
C2070 C2068 1.381 . S
C2070 C2069 1.387 . S
C2070 H2087 0.931 . S
C2071 C2064 1.399 . S
C2071 C2068 1.487 . S
C2071 N2088 1.343 . S
H2072 C2044 0.931 . S
H2073 C2046 0.930 . S
H2074 C2048 0.930 . S
H2075 C2049 0.931 . S
H2076 C2051 0.931 . S
H2077 C2053 0.930 . S
H2078 C2055 0.930 . S
H2079 C2056 0.931 . S
H2080 C2058 0.931 . S
H2081 C2060 0.930 . S
H2082 C2062 0.930 . S
H2083 C2063 0.931 . S
H2084 C2065 0.931 . S
H2085 C2067 0.930 . S
H2086 C2069 0.930 . S
H2087 C2070 0.931 . S
N2088 C2050 1.343 . S
N2088 C2071 1.343 . S
N2089 C2057 1.343 . S
N2089 C2064 1.343 . S
C2090 C2091 1.384 1_545 S
C2090 C2092 1.384 . S
C2090 H2118 0.931 . S
C2091 C2090 1.384 1_565 S
C2091 C2094 1.382 . S
C2092 C2090 1.384 . S
C2092 C2093 1.381 1_545 S
C2092 H2119 0.930 . S
C2093 C2092 1.381 1_565 S
C2093 C2095 1.381 . S
C2093 C2096 1.487 . S
C2094 C2091 1.382 . S
C2094 C2095 1.387 . S
C2094 H2120 0.930 . S
C2095 C2093 1.381 . S
C2095 C2094 1.387 . S
C2095 H2121 0.931 . S
C2096 C2093 1.487 . S
C2096 C2103 1.389 1_565 S
C2096 N2134 1.343 . S
C2097 C2098 1.384 1_565 S
C2097 C2099 1.384 . S
C2097 H2122 0.931 . S
C2098 C2097 1.384 1_545 S
C2098 C2101 1.382 . S
C2099 C2097 1.384 . S
C2099 C2100 1.381 1_565 S
C2099 H2123 0.930 . S
C2100 C2099 1.381 1_545 S
C2100 C2102 1.381 . S
C2100 C2103 1.537 . S
C2101 C2098 1.382 . S
C2101 C2102 1.387 . S
C2101 H2124 0.930 . S
C2102 C2100 1.381 . S
C2102 C2101 1.387 . S
C2102 H2125 0.931 . S
C2103 C2096 1.389 1_545 S
C2103 C2100 1.537 . S
C2103 N2135 1.310 . S
C2104 C2105 1.384 1_565 S
C2104 C2106 1.384 . S
C2104 H2126 0.931 . S
C2105 C2104 1.384 1_545 S
C2105 C2108 1.382 . S
C2106 C2104 1.384 . S
C2106 C2107 1.381 1_565 S
C2106 H2127 0.930 . S
C2107 C2106 1.381 1_545 S
C2107 C2109 1.381 . S
C2107 C2110 1.456 . S
C2108 C2105 1.382 . S
C2108 C2109 1.387 . S
C2108 H2128 0.930 . S
C2109 C2107 1.381 . S
C2109 C2108 1.387 . S
C2109 H2129 0.931 . S
C2110 C2107 1.456 . S
C2110 C2117 1.390 1_545 S
C2110 N2135 1.393 . S
C2111 C2112 1.384 1_545 S
C2111 C2113 1.384 . S
C2111 H2130 0.931 . S
C2112 C2111 1.384 1_565 S
C2112 C2115 1.382 . S
C2113 C2111 1.384 . S
C2113 C2114 1.381 1_545 S
C2113 H2131 0.930 . S
C2114 C2113 1.381 1_565 S
C2114 C2116 1.381 . S
C2114 C2117 1.487 . S
C2115 C2112 1.382 . S
C2115 C2116 1.387 . S
C2115 H2132 0.930 . S
C2116 C2114 1.381 . S
C2116 C2115 1.387 . S
C2116 H2133 0.931 . S
C2117 C2110 1.390 1_565 S
C2117 C2114 1.487 . S
C2117 N2134 1.343 . S
H2118 C2090 0.931 . S
H2119 C2092 0.930 . S
H2120 C2094 0.930 . S
H2121 C2095 0.931 . S
H2122 C2097 0.931 . S
H2123 C2099 0.930 . S
H2124 C2101 0.930 . S
H2125 C2102 0.931 . S
H2126 C2104 0.931 . S
H2127 C2106 0.930 . S
H2128 C2108 0.930 . S
H2129 C2109 0.931 . S
H2130 C2111 0.931 . S
H2131 C2113 0.930 . S
H2132 C2115 0.930 . S
H2133 C2116 0.931 . S
N2134 C2096 1.343 . S
N2134 C2117 1.343 . S
N2135 C2103 1.310 . S
N2135 C2110 1.393 . S
C2136 C2137 1.384 . S
C2136 C2138 1.384 . S
C2136 H2164 0.931 . S
C2137 C2136 1.384 . S
C2137 C2140 1.382 1_545 S
C2138 C2136 1.384 . S
C2138 C2139 1.385 . S
C2138 H2165 0.930 . S
C2139 C2138 1.385 . S
C2139 C2141 1.372 1_545 S
C2139 C2142 1.492 1_545 S
C2140 C2137 1.382 1_565 S
C2140 C2141 1.387 . S
C2140 H2166 0.930 . S
C2141 C2139 1.372 1_565 S
C2141 C2140 1.387 . S
C2141 H2167 0.931 . S
C2142 C2139 1.492 1_565 S
C2142 C2149 1.399 1_565 S
C2142 N2180 1.362 . S
C2143 C2144 1.384 . S
C2143 C2145 1.384 . S
C2143 H2168 0.931 . S
C2144 C2143 1.384 . S
C2144 C2147 1.382 1_565 S
C2145 C2143 1.384 . S
C2145 C2146 1.395 . S
C2145 H2169 0.930 . S
C2146 C2145 1.395 . S
C2146 C2148 1.374 1_565 S
C2146 C2149 1.477 1_565 S
C2147 C2144 1.382 1_545 S
C2147 C2148 1.387 . S
C2147 H2170 0.930 . S
C2148 C2146 1.374 1_545 S
C2148 C2147 1.387 . S
C2148 H2171 0.931 . S
C2149 C2142 1.399 1_545 S
C2149 C2146 1.477 1_545 S
C2149 N2181 1.318 . S
C2150 C2151 1.384 . S
C2150 C2152 1.384 . S
C2150 H2172 0.931 . S
C2151 C2150 1.384 . S
C2151 C2154 1.382 1_565 S
C2152 C2150 1.384 . S
C2152 C2153 1.380 . S
C2152 H2173 0.930 . S
C2153 C2152 1.380 . S
C2153 C2155 1.386 1_565 S
C2153 C2156 1.492 1_565 S
C2154 C2151 1.382 1_545 S
C2154 C2155 1.387 . S
C2154 H2174 0.930 . S
C2155 C2153 1.386 1_545 S
C2155 C2154 1.387 . S
C2155 H2175 0.931 . S
C2156 C2153 1.492 1_545 S
C2156 C2163 1.399 . S
C2156 N2181 1.362 . S
C2157 C2158 1.384 . S
C2157 C2159 1.384 . S
C2157 H2176 0.931 . S
C2158 C2157 1.384 . S
C2158 C2161 1.382 1_545 S
C2159 C2157 1.384 . S
C2159 C2160 1.419 . S
C2159 H2177 0.930 . S
C2160 C2159 1.419 . S
C2160 C2162 1.362 1_545 S
C2160 C2163 1.466 . S
C2161 C2158 1.382 1_565 S
C2161 C2162 1.387 . S
C2161 H2178 0.930 . S
C2162 C2160 1.362 1_565 S
C2162 C2161 1.387 . S
C2162 H2179 0.931 . S
C2163 C2156 1.399 . S
C2163 C2160 1.466 . S
C2163 N2180 1.329 1_545 S
H2164 C2136 0.931 . S
H2165 C2138 0.930 . S
H2166 C2140 0.930 . S
H2167 C2141 0.931 . S
H2168 C2143 0.931 . S
H2169 C2145 0.930 . S
H2170 C2147 0.930 . S
H2171 C2148 0.931 . S
H2172 C2150 0.931 . S
H2173 C2152 0.930 . S
H2174 C2154 0.930 . S
H2175 C2155 0.931 . S
H2176 C2157 0.931 . S
H2177 C2159 0.930 . S
H2178 C2161 0.930 . S
H2179 C2162 0.931 . S
N2180 C2142 1.362 . S
N2180 C2163 1.329 1_565 S
N2181 C2149 1.318 . S
N2181 C2156 1.362 . S
C2182 C2183 1.384 . S
C2182 C2184 1.384 . S
C2182 H2210 0.931 . S
C2183 C2182 1.384 . S
C2183 C2186 1.382 1_655 S
C2184 C2182 1.384 . S
C2184 C2185 1.424 . S
C2184 H2211 0.930 . S
C2185 C2184 1.424 . S
C2185 C2187 1.360 1_655 S
C2185 C2188 1.465 . S
C2186 C2183 1.382 1_455 S
C2186 C2187 1.387 . S
C2186 H2212 0.930 . S
C2187 C2185 1.360 1_455 S
C2187 C2186 1.387 . S
C2187 H2213 0.931 . S
C2188 C2185 1.465 . S
C2188 C2195 1.399 . S
C2188 N2226 1.330 1_655 S
C2189 C2190 1.384 . S
C2189 C2191 1.384 . S
C2189 H2214 0.931 . S
C2190 C2189 1.384 . S
C2190 C2193 1.382 1_455 S
C2191 C2189 1.384 . S
C2191 C2192 1.381 . S
C2191 H2215 0.930 . S
C2192 C2191 1.381 . S
C2192 C2194 1.383 1_455 S
C2192 C2195 1.493 1_455 S
C2193 C2190 1.382 1_655 S
C2193 C2194 1.387 . S
C2193 H2216 0.930 . S
C2194 C2192 1.383 1_655 S
C2194 C2193 1.387 . S
C2194 H2217 0.931 . S
C2195 C2188 1.399 . S
C2195 C2192 1.493 1_655 S
C2195 N2227 1.360 . S
C2196 C2197 1.384 . S
C2196 C2198 1.384 . S
C2196 H2218 0.931 . S
C2197 C2196 1.384 . S
C2197 C2200 1.382 1_455 S
C2198 C2196 1.384 . S
C2198 C2199 1.401 . S
C2198 H2219 0.930 . S
C2199 C2198 1.401 . S
C2199 C2201 1.371 1_455 S
C2199 C2202 1.475 1_455 S
C2200 C2197 1.382 1_655 S
C2200 C2201 1.387 . S
C2200 H2220 0.930 . S
C2201 C2199 1.371 1_655 S
C2201 C2200 1.387 . S
C2201 H2221 0.931 . S
C2202 C2199 1.475 1_655 S
C2202 C2209 1.399 1_655 S
C2202 N2227 1.319 . S
C2203 C2204 1.384 . S
C2203 C2205 1.384 . S
C2203 H2222 0.931 . S
C2204 C2203 1.384 . S
C2204 C2207 1.382 1_655 S
C2205 C2203 1.384 . S
C2205 C2206 1.386 . S
C2205 H2223 0.930 . S
C2206 C2205 1.386 . S
C2206 C2208 1.370 1_655 S
C2206 C2209 1.493 1_655 S
C2207 C2204 1.382 1_455 S
C2207 C2208 1.387 . S
C2207 H2224 0.930 . S
C2208 C2206 1.370 1_455 S
C2208 C2207 1.387 . S
C2208 H2225 0.931 . S
C2209 C2202 1.399 1_455 S
C2209 C2206 1.493 1_455 S
C2209 N2226 1.360 . S
H2210 C2182 0.931 . S
H2211 C2184 0.930 . S
H2212 C2186 0.930 . S
H2213 C2187 0.931 . S
H2214 C2189 0.931 . S
H2215 C2191 0.930 . S
H2216 C2193 0.930 . S
H2217 C2194 0.931 . S
H2218 C2196 0.931 . S
H2219 C2198 0.930 . S
H2220 C2200 0.930 . S
H2221 C2201 0.931 . S
H2222 C2203 0.931 . S
H2223 C2205 0.930 . S
H2224 C2207 0.930 . S
H2225 C2208 0.931 . S
N2226 C2188 1.330 1_455 S
N2226 C2209 1.360 . S
N2227 C2195 1.360 . S
N2227 C2202 1.319 . S
C2228 C2229 1.384 . S
C2228 C2230 1.384 . S
C2228 H2256 0.931 . S
C2229 C2228 1.384 . S
C2229 C2232 1.382 . S
C2230 C2228 1.384 . S
C2230 C2231 1.381 . S
C2230 H2257 0.930 . S
C2231 C2230 1.381 . S
C2231 C2233 1.381 . S
C2231 C2234 1.487 . S
C2232 C2229 1.382 . S
C2232 C2233 1.387 . S
C2232 H2258 0.930 . S
C2233 C2231 1.381 . S
C2233 C2232 1.387 . S
C2233 H2259 0.931 . S
C2234 C2231 1.487 . S
C2234 C2241 1.399 . S
C2234 N2272 1.343 . S
C2235 C2236 1.384 . S
C2235 C2237 1.384 . S
C2235 H2260 0.931 . S
C2236 C2235 1.384 . S
C2236 C2239 1.382 . S
C2237 C2235 1.384 . S
C2237 C2238 1.381 . S
C2237 H2261 0.930 . S
C2238 C2237 1.381 . S
C2238 C2240 1.381 . S
C2238 C2241 1.487 . S
C2239 C2236 1.382 . S
C2239 C2240 1.387 . S
C2239 H2262 0.930 . S
C2240 C2238 1.381 . S
C2240 C2239 1.387 . S
C2240 H2263 0.931 . S
C2241 C2234 1.399 . S
C2241 C2238 1.487 . S
C2241 N2273 1.343 . S
C2242 C2243 1.384 . S
C2242 C2244 1.384 . S
C2242 H2264 0.931 . S
C2243 C2242 1.384 . S
C2243 C2246 1.382 . S
C2244 C2242 1.384 . S
C2244 C2245 1.381 . S
C2244 H2265 0.930 . S
C2245 C2244 1.381 . S
C2245 C2247 1.381 . S
C2245 C2248 1.487 . S
C2246 C2243 1.382 . S
C2246 C2247 1.387 . S
C2246 H2266 0.930 . S
C2247 C2245 1.381 . S
C2247 C2246 1.387 . S
C2247 H2267 0.931 . S
C2248 C2245 1.487 . S
C2248 C2255 1.399 . S
C2248 N2273 1.343 . S
C2249 C2250 1.384 . S
C2249 C2251 1.384 . S
C2249 H2268 0.931 . S
C2250 C2249 1.384 . S
C2250 C2253 1.382 . S
C2251 C2249 1.384 . S
C2251 C2252 1.381 . S
C2251 H2269 0.930 . S
C2252 C2251 1.381 . S
C2252 C2254 1.381 . S
C2252 C2255 1.487 . S
C2253 C2250 1.382 . S
C2253 C2254 1.387 . S
C2253 H2270 0.930 . S
C2254 C2252 1.381 . S
C2254 C2253 1.387 . S
C2254 H2271 0.931 . S
C2255 C2248 1.399 . S
C2255 C2252 1.487 . S
C2255 N2272 1.343 . S
H2256 C2228 0.931 . S
H2257 C2230 0.930 . S
H2258 C2232 0.930 . S
H2259 C2233 0.931 . S
H2260 C2235 0.931 . S
H2261 C2237 0.930 . S
H2262 C2239 0.930 . S
H2263 C2240 0.931 . S
H2264 C2242 0.931 . S
H2265 C2244 0.930 . S
H2266 C2246 0.930 . S
H2267 C2247 0.931 . S
H2268 C2249 0.931 . S
H2269 C2251 0.930 . S
H2270 C2253 0.930 . S
H2271 C2254 0.931 . S
N2272 C2234 1.343 . S
N2272 C2255 1.343 . S
N2273 C2241 1.343 . S
N2273 C2248 1.343 . S
C2274 C2275 1.384 . S
C2274 C2276 1.384 . S
C2274 H2302 0.931 . S
C2275 C2274 1.384 . S
C2275 C2278 1.382 . S
C2276 C2274 1.384 . S
C2276 C2277 1.381 . S
C2276 H2303 0.930 . S
C2277 C2276 1.381 . S
C2277 C2279 1.381 . S
C2277 C2280 1.487 . S
C2278 C2275 1.382 . S
C2278 C2279 1.387 . S
C2278 H2304 0.930 . S
C2279 C2277 1.381 . S
C2279 C2278 1.387 . S
C2279 H2305 0.931 . S
C2280 C2277 1.487 . S
C2280 C2287 1.399 . S
C2280 N2318 1.343 . S
C2281 C2282 1.384 . S
C2281 C2283 1.384 . S
C2281 H2306 0.931 . S
C2282 C2281 1.384 . S
C2282 C2285 1.382 . S
C2283 C2281 1.384 . S
C2283 C2284 1.381 . S
C2283 H2307 0.930 . S
C2284 C2283 1.381 . S
C2284 C2286 1.381 . S
C2284 C2287 1.487 . S
C2285 C2282 1.382 . S
C2285 C2286 1.387 . S
C2285 H2308 0.930 . S
C2286 C2284 1.381 . S
C2286 C2285 1.387 . S
C2286 H2309 0.931 . S
C2287 C2280 1.399 . S
C2287 C2284 1.487 . S
C2287 N2319 1.343 . S
C2288 C2289 1.384 . S
C2288 C2290 1.384 . S
C2288 H2310 0.931 . S
C2289 C2288 1.384 . S
C2289 C2292 1.382 . S
C2290 C2288 1.384 . S
C2290 C2291 1.381 . S
C2290 H2311 0.930 . S
C2291 C2290 1.381 . S
C2291 C2293 1.381 . S
C2291 C2294 1.487 . S
C2292 C2289 1.382 . S
C2292 C2293 1.387 . S
C2292 H2312 0.930 . S
C2293 C2291 1.381 . S
C2293 C2292 1.387 . S
C2293 H2313 0.931 . S
C2294 C2291 1.487 . S
C2294 C2301 1.399 . S
C2294 N2319 1.343 . S
C2295 C2296 1.384 . S
C2295 C2297 1.384 . S
C2295 H2314 0.931 . S
C2296 C2295 1.384 . S
C2296 C2299 1.382 . S
C2297 C2295 1.384 . S
C2297 C2298 1.381 . S
C2297 H2315 0.930 . S
C2298 C2297 1.381 . S
C2298 C2300 1.381 . S
C2298 C2301 1.487 . S
C2299 C2296 1.382 . S
C2299 C2300 1.387 . S
C2299 H2316 0.930 . S
C2300 C2298 1.381 . S
C2300 C2299 1.387 . S
C2300 H2317 0.931 . S
C2301 C2294 1.399 . S
C2301 C2298 1.487 . S
C2301 N2318 1.343 . S
H2302 C2274 0.931 . S
H2303 C2276 0.930 . S
H2304 C2278 0.930 . S
H2305 C2279 0.931 . S
H2306 C2281 0.931 . S
H2307 C2283 0.930 . S
H2308 C2285 0.930 . S
H2309 C2286 0.931 . S
H2310 C2288 0.931 . S
H2311 C2290 0.930 . S
H2312 C2292 0.930 . S
H2313 C2293 0.931 . S
H2314 C2295 0.931 . S
H2315 C2297 0.930 . S
H2316 C2299 0.930 . S
H2317 C2300 0.931 . S
N2318 C2280 1.343 . S
N2318 C2301 1.343 . S
N2319 C2287 1.343 . S
N2319 C2294 1.343 . S
C2320 C2321 1.384 . S
C2320 C2322 1.384 . S
C2320 H2348 0.931 . S
C2321 C2320 1.384 . S
C2321 C2324 1.382 . S
C2322 C2320 1.384 . S
C2322 C2323 1.381 . S
C2322 H2349 0.930 . S
C2323 C2322 1.381 . S
C2323 C2325 1.381 . S
C2323 C2326 1.487 . S
C2324 C2321 1.382 . S
C2324 C2325 1.387 . S
C2324 H2350 0.930 . S
C2325 C2323 1.381 . S
C2325 C2324 1.387 . S
C2325 H2351 0.931 . S
C2326 C2323 1.487 . S
C2326 C2333 1.399 . S
C2326 N2364 1.343 . S
C2327 C2328 1.384 . S
C2327 C2329 1.384 . S
C2327 H2352 0.931 . S
C2328 C2327 1.384 . S
C2328 C2331 1.382 . S
C2329 C2327 1.384 . S
C2329 C2330 1.381 . S
C2329 H2353 0.930 . S
C2330 C2329 1.381 . S
C2330 C2332 1.381 . S
C2330 C2333 1.487 . S
C2331 C2328 1.382 . S
C2331 C2332 1.387 . S
C2331 H2354 0.930 . S
C2332 C2330 1.381 . S
C2332 C2331 1.387 . S
C2332 H2355 0.931 . S
C2333 C2326 1.399 . S
C2333 C2330 1.487 . S
C2333 N2365 1.343 . S
C2334 C2335 1.384 . S
C2334 C2336 1.384 . S
C2334 H2356 0.931 . S
C2335 C2334 1.384 . S
C2335 C2338 1.382 . S
C2336 C2334 1.384 . S
C2336 C2337 1.381 . S
C2336 H2357 0.930 . S
C2337 C2336 1.381 . S
C2337 C2339 1.381 . S
C2337 C2340 1.487 . S
C2338 C2335 1.382 . S
C2338 C2339 1.387 . S
C2338 H2358 0.930 . S
C2339 C2337 1.381 . S
C2339 C2338 1.387 . S
C2339 H2359 0.931 . S
C2340 C2337 1.487 . S
C2340 C2347 1.399 . S
C2340 N2365 1.343 . S
C2341 C2342 1.384 . S
C2341 C2343 1.384 . S
C2341 H2360 0.931 . S
C2342 C2341 1.384 . S
C2342 C2345 1.382 . S
C2343 C2341 1.384 . S
C2343 C2344 1.381 . S
C2343 H2361 0.930 . S
C2344 C2343 1.381 . S
C2344 C2346 1.381 . S
C2344 C2347 1.487 . S
C2345 C2342 1.382 . S
C2345 C2346 1.387 . S
C2345 H2362 0.930 . S
C2346 C2344 1.381 . S
C2346 C2345 1.387 . S
C2346 H2363 0.931 . S
C2347 C2340 1.399 . S
C2347 C2344 1.487 . S
C2347 N2364 1.343 . S
H2348 C2320 0.931 . S
H2349 C2322 0.930 . S
H2350 C2324 0.930 . S
H2351 C2325 0.931 . S
H2352 C2327 0.931 . S
H2353 C2329 0.930 . S
H2354 C2331 0.930 . S
H2355 C2332 0.931 . S
H2356 C2334 0.931 . S
H2357 C2336 0.930 . S
H2358 C2338 0.930 . S
H2359 C2339 0.931 . S
H2360 C2341 0.931 . S
H2361 C2343 0.930 . S
H2362 C2345 0.930 . S
H2363 C2346 0.931 . S
N2364 C2326 1.343 . S
N2364 C2347 1.343 . S
N2365 C2333 1.343 . S
N2365 C2340 1.343 . S
C2366 C2367 1.384 . S
C2366 C2368 1.384 . S
C2366 H2394 0.931 . S
C2367 C2366 1.384 . S
C2367 C2370 1.382 . S
C2368 C2366 1.384 . S
C2368 C2369 1.381 . S
C2368 H2395 0.930 . S
C2369 C2368 1.381 . S
C2369 C2371 1.381 . S
C2369 C2372 1.487 . S
C2370 C2367 1.382 . S
C2370 C2371 1.387 . S
C2370 H2396 0.930 . S
C2371 C2369 1.381 . S
C2371 C2370 1.387 . S
C2371 H2397 0.931 . S
C2372 C2369 1.487 . S
C2372 C2379 1.399 . S
C2372 N2410 1.343 . S
C2373 C2374 1.384 . S
C2373 C2375 1.384 . S
C2373 H2398 0.931 . S
C2374 C2373 1.384 . S
C2374 C2377 1.382 . S
C2375 C2373 1.384 . S
C2375 C2376 1.381 . S
C2375 H2399 0.930 . S
C2376 C2375 1.381 . S
C2376 C2378 1.381 . S
C2376 C2379 1.487 . S
C2377 C2374 1.382 . S
C2377 C2378 1.387 . S
C2377 H2400 0.930 . S
C2378 C2376 1.381 . S
C2378 C2377 1.387 . S
C2378 H2401 0.931 . S
C2379 C2372 1.399 . S
C2379 C2376 1.487 . S
C2379 N2411 1.343 . S
C2380 C2381 1.384 . S
C2380 C2382 1.384 . S
C2380 H2402 0.931 . S
C2381 C2380 1.384 . S
C2381 C2384 1.382 . S
C2382 C2380 1.384 . S
C2382 C2383 1.381 . S
C2382 H2403 0.930 . S
C2383 C2382 1.381 . S
C2383 C2385 1.381 . S
C2383 C2386 1.487 . S
C2384 C2381 1.382 . S
C2384 C2385 1.387 . S
C2384 H2404 0.930 . S
C2385 C2383 1.381 . S
C2385 C2384 1.387 . S
C2385 H2405 0.931 . S
C2386 C2383 1.487 . S
C2386 C2393 1.399 . S
C2386 N2411 1.343 . S
C2387 C2388 1.384 . S
C2387 C2389 1.384 . S
C2387 H2406 0.931 . S
C2388 C2387 1.384 . S
C2388 C2391 1.382 . S
C2389 C2387 1.384 . S
C2389 C2390 1.381 . S
C2389 H2407 0.930 . S
C2390 C2389 1.381 . S
C2390 C2392 1.381 . S
C2390 C2393 1.487 . S
C2391 C2388 1.382 . S
C2391 C2392 1.387 . S
C2391 H2408 0.930 . S
C2392 C2390 1.381 . S
C2392 C2391 1.387 . S
C2392 H2409 0.931 . S
C2393 C2386 1.399 . S
C2393 C2390 1.487 . S
C2393 N2410 1.343 . S
H2394 C2366 0.931 . S
H2395 C2368 0.930 . S
H2396 C2370 0.930 . S
H2397 C2371 0.931 . S
H2398 C2373 0.931 . S
H2399 C2375 0.930 . S
H2400 C2377 0.930 . S
H2401 C2378 0.931 . S
H2402 C2380 0.931 . S
H2403 C2382 0.930 . S
H2404 C2384 0.930 . S
H2405 C2385 0.931 . S
H2406 C2387 0.931 . S
H2407 C2389 0.930 . S
H2408 C2391 0.930 . S
H2409 C2392 0.931 . S
N2410 C2372 1.343 . S
N2410 C2393 1.343 . S
N2411 C2379 1.343 . S
N2411 C2386 1.343 . S
C2412 C2413 1.349 . S
C2412 C2414 1.327 . S
C2412 H2437 0.950 . S
C2413 C2412 1.349 . S
C2413 C2429 1.349 . S
C2414 C2412 1.327 . S
C2414 C2433 1.429 . S
C2414 H2438 0.950 . S
C2415 C2432 1.574 . S
C2415 C2434 1.368 . S
C2415 H2439 0.949 . S
H2416 C2420 0.949 . S
C2417 C2418 1.349 . S
C2417 C2419 1.327 . S
C2417 H2440 0.950 . S
C2418 C2417 1.349 . S
C2418 C2430 1.349 . S
C2419 C2417 1.327 . S
C2419 C2435 1.429 . S
C2419 H2441 0.950 . S
C2420 H2416 0.949 . S
C2420 C2428 1.574 . S
C2420 C2436 1.368 . S
H2421 C2429 0.950 . S
H2422 C2427 0.950 . S
H2423 C2428 0.949 . S
H2424 C2430 0.926 1_455 S
H2425 C2431 0.950 . S
H2426 C2432 0.949 . S
C2427 H2422 0.950 . S
C2427 C2429 1.327 . S
C2427 C2433 1.429 . S
C2428 C2420 1.574 . S
C2428 H2423 0.949 . S
C2428 C2434 1.368 . S
C2429 C2413 1.349 . S
C2429 H2421 0.950 . S
C2429 C2427 1.327 . S
C2430 C2418 1.349 . S
C2430 H2424 0.926 1_655 S
C2430 C2431 1.327 . S
C2431 H2425 0.950 . S
C2431 C2430 1.327 . S
C2431 C2435 1.429 . S
C2432 C2415 1.574 . S
C2432 H2426 0.949 . S
C2432 C2436 1.368 . S
C2433 C2414 1.429 . S
C2433 C2427 1.429 . S
C2433 C2434 1.523 . S
C2434 C2415 1.368 . S
C2434 C2428 1.368 . S
C2434 C2433 1.523 . S
C2435 C2419 1.429 . S
C2435 C2431 1.429 . S
C2435 C2436 1.523 . S
C2436 C2420 1.368 . S
C2436 C2432 1.368 . S
C2436 C2435 1.523 . S
H2437 C2412 0.950 . S
H2438 C2414 0.950 . S
H2439 C2415 0.949 . S
H2440 C2417 0.950 . S
H2441 C2419 0.950 . S
C2442 C2443 1.349 . S
C2442 C2444 1.327 . S
C2442 H2467 0.950 . S
C2443 C2442 1.349 . S
C2443 C2459 1.349 . S
C2444 C2442 1.327 . S
C2444 C2463 1.429 . S
C2444 H2468 0.950 . S
C2445 C2462 1.574 . S
C2445 C2464 1.368 . S
C2445 H2469 0.949 . S
H2446 C2450 0.949 . S
C2447 C2448 1.349 . S
C2447 C2449 1.327 . S
C2447 H2470 0.950 . S
C2448 C2447 1.349 . S
C2448 C2460 1.349 . S
C2449 C2447 1.327 . S
C2449 C2465 1.429 . S
C2449 H2471 0.950 . S
C2450 H2446 0.949 . S
C2450 C2458 1.574 . S
C2450 C2466 1.368 . S
H2451 C2459 0.950 . S
H2452 C2457 0.950 . S
H2453 C2458 0.949 . S
H2454 C2460 0.950 . S
H2455 C2461 0.950 . S
H2456 C2462 0.949 . S
C2457 H2452 0.950 . S
C2457 C2459 1.327 . S
C2457 C2463 1.429 . S
C2458 C2450 1.574 . S
C2458 H2453 0.949 . S
C2458 C2464 1.368 . S
C2459 C2443 1.349 . S
C2459 H2451 0.950 . S
C2459 C2457 1.327 . S
C2460 C2448 1.349 . S
C2460 H2454 0.950 . S
C2460 C2461 1.327 . S
C2461 H2455 0.950 . S
C2461 C2460 1.327 . S
C2461 C2465 1.429 . S
C2462 C2445 1.574 . S
C2462 H2456 0.949 . S
C2462 C2466 1.368 . S
C2463 C2444 1.429 . S
C2463 C2457 1.429 . S
C2463 C2464 1.523 . S
C2464 C2445 1.368 . S
C2464 C2458 1.368 . S
C2464 C2463 1.523 . S
C2465 C2449 1.429 . S
C2465 C2461 1.429 . S
C2465 C2466 1.523 . S
C2466 C2450 1.368 . S
C2466 C2462 1.368 . S
C2466 C2465 1.523 . S
H2467 C2442 0.950 . S
H2468 C2444 0.950 . S
H2469 C2445 0.949 . S
H2470 C2447 0.950 . S
H2471 C2449 0.950 . S
C2472 C2473 1.349 . S
C2472 C2474 1.327 . S
C2472 H2497 0.950 . S
C2473 C2472 1.349 . S
C2473 C2489 1.349 . S
C2474 C2472 1.327 . S
C2474 C2493 1.429 . S
C2474 H2498 0.950 . S
C2475 C2492 1.574 . S
C2475 C2494 1.368 . S
C2475 H2499 0.949 . S
H2476 C2480 0.949 1_565 S
C2477 C2478 1.349 . S
C2477 C2479 1.327 . S
C2477 H2500 0.950 . S
C2478 C2477 1.349 . S
C2478 C2490 1.349 1_545 S
C2479 C2477 1.327 . S
C2479 C2495 1.429 . S
C2479 H2501 0.950 . S
C2480 H2476 0.949 1_545 S
C2480 C2488 1.574 . S
C2480 C2496 1.368 . S
H2481 C2489 0.950 . S
H2482 C2487 0.950 . S
H2483 C2488 0.949 . S
H2484 C2490 0.950 . S
H2485 C2491 0.976 . S
H2486 C2492 0.949 . S
C2487 H2482 0.950 . S
C2487 C2489 1.327 . S
C2487 C2493 1.429 . S
C2488 C2480 1.574 . S
C2488 H2483 0.949 . S
C2488 C2494 1.368 . S
C2489 C2473 1.349 . S
C2489 H2481 0.950 . S
C2489 C2487 1.327 . S
C2490 C2478 1.349 1_565 S
C2490 H2484 0.950 . S
C2490 C2491 1.358 . S
C2491 H2485 0.976 . S
C2491 C2490 1.358 . S
C2491 C2495 1.375 1_565 S
C2492 C2475 1.574 . S
C2492 H2486 0.949 . S
C2492 C2496 1.368 . S
C2493 C2474 1.429 . S
C2493 C2487 1.429 . S
C2493 C2494 1.523 . S
C2494 C2475 1.368 . S
C2494 C2488 1.368 . S
C2494 C2493 1.523 . S
C2495 C2479 1.429 . S
C2495 C2491 1.375 1_545 S
C2495 C2496 1.523 . S
C2496 C2480 1.368 . S
C2496 C2492 1.368 . S
C2496 C2495 1.523 . S
H2497 C2472 0.950 . S
H2498 C2474 0.950 . S
H2499 C2475 0.949 . S
H2500 C2477 0.950 . S
H2501 C2479 0.950 . S
C2502 C2503 1.349 . S
C2502 C2504 1.327 . S
C2502 H2527 0.950 . S
C2503 C2502 1.349 . S
C2503 C2519 1.349 . S
C2504 C2502 1.327 . S
C2504 C2523 1.429 . S
C2504 H2528 0.933 1_565 S
C2505 C2522 1.574 . S
C2505 C2524 1.368 . S
C2505 H2529 0.949 . S
H2506 C2510 0.947 . S
C2507 C2508 1.349 . S
C2507 C2509 1.327 . S
C2507 H2530 0.950 . S
C2508 C2507 1.349 . S
C2508 C2520 1.349 1_565 S
C2509 C2507 1.327 . S
C2509 C2525 1.429 . S
C2509 H2531 0.950 . S
C2510 H2506 0.947 . S
C2510 C2518 1.570 1_545 S
C2510 C2526 1.374 1_545 S
H2511 C2519 0.950 . S
H2512 C2517 0.950 . S
H2513 C2518 0.949 1_545 S
H2514 C2520 0.950 . S
H2515 C2521 0.950 . S
H2516 C2522 0.949 . S
C2517 H2512 0.950 . S
C2517 C2519 1.327 . S
C2517 C2523 1.429 . S
C2518 C2510 1.570 1_565 S
C2518 H2513 0.949 1_565 S
C2518 C2524 1.368 . S
C2519 C2503 1.349 . S
C2519 H2511 0.950 . S
C2519 C2517 1.327 . S
C2520 C2508 1.349 1_545 S
C2520 H2514 0.950 . S
C2520 C2521 1.327 . S
C2521 H2515 0.950 . S
C2521 C2520 1.327 . S
C2521 C2525 1.429 1_545 S
C2522 C2505 1.574 . S
C2522 H2516 0.949 . S
C2522 C2526 1.368 . S
C2523 C2504 1.429 . S
C2523 C2517 1.429 . S
C2523 C2524 1.523 . S
C2524 C2505 1.368 . S
C2524 C2518 1.368 . S
C2524 C2523 1.523 . S
C2525 C2509 1.429 . S
C2525 C2521 1.429 1_565 S
C2525 C2526 1.523 . S
C2526 C2510 1.374 1_565 S
C2526 C2522 1.368 . S
C2526 C2525 1.523 . S
H2527 C2502 0.950 . S
H2528 C2504 0.933 1_545 S
H2529 C2505 0.949 . S
H2530 C2507 0.950 . S
H2531 C2509 0.950 . S
C2532 C2533 1.349 . S
C2532 C2534 1.327 . S
C2532 H2557 0.950 . S
C2533 C2532 1.349 . S
C2533 C2549 1.349 . S
C2534 C2532 1.327 . S
C2534 C2553 1.429 . S
C2534 H2558 0.950 . S
C2535 C2552 1.574 . S
C2535 C2554 1.368 . S
C2535 H2559 0.949 . S
H2536 C2540 0.949 1_655 S
C2537 C2538 1.349 . S
C2537 C2539 1.327 . S
C2537 H2560 0.950 . S
C2538 C2537 1.349 . S
C2538 C2550 1.349 1_455 S
C2539 C2537 1.327 . S
C2539 C2555 1.429 . S
C2539 H2561 0.950 . S
C2540 H2536 0.949 1_455 S
C2540 C2548 1.574 . S
C2540 C2556 1.368 . S
H2541 C2549 0.950 . S
H2542 C2547 0.950 . S
H2543 C2548 0.949 . S
H2544 C2550 0.950 . S
H2545 C2551 0.949 . S
H2546 C2552 0.949 . S
C2547 H2542 0.950 . S
C2547 C2549 1.327 . S
C2547 C2553 1.429 . S
C2548 C2540 1.574 . S
C2548 H2543 0.949 . S
C2548 C2554 1.368 . S
C2549 C2533 1.349 . S
C2549 H2541 0.950 . S
C2549 C2547 1.327 . S
C2550 C2538 1.349 1_655 S
C2550 H2544 0.950 . S
C2550 C2551 1.332 . S
C2551 H2545 0.949 . S
C2551 C2550 1.332 . S
C2551 C2555 1.424 1_655 S
C2552 C2535 1.574 . S
C2552 H2546 0.949 . S
C2552 C2556 1.368 . S
C2553 C2534 1.429 . S
C2553 C2547 1.429 . S
C2553 C2554 1.523 . S
C2554 C2535 1.368 . S
C2554 C2548 1.368 . S
C2554 C2553 1.523 . S
C2555 C2539 1.429 . S
C2555 C2551 1.424 1_455 S
C2555 C2556 1.523 . S
C2556 C2540 1.368 . S
C2556 C2552 1.368 . S
C2556 C2555 1.523 . S
H2557 C2532 0.950 . S
H2558 C2534 0.950 . S
H2559 C2535 0.949 . S
H2560 C2537 0.950 . S
H2561 C2539 0.950 . S
C2562 C2563 1.349 . S
C2562 C2564 1.327 . S
C2562 H2587 0.950 . S
C2563 C2562 1.349 . S
C2563 C2579 1.349 . S
C2564 C2562 1.327 . S
C2564 C2583 1.429 . S
C2564 H2588 0.950 . S
C2565 C2582 1.574 . S
C2565 C2584 1.368 . S
C2565 H2589 0.949 . S
H2566 C2570 0.949 . S
C2567 C2568 1.349 . S
C2567 C2569 1.327 . S
C2567 H2590 0.950 . S
C2568 C2567 1.349 . S
C2568 C2580 1.349 . S
C2569 C2567 1.327 . S
C2569 C2585 1.429 . S
C2569 H2591 0.950 . S
C2570 H2566 0.949 . S
C2570 C2578 1.574 . S
C2570 C2586 1.368 . S
H2571 C2579 0.950 . S
H2572 C2577 0.950 . S
H2573 C2578 0.949 . S
H2574 C2580 0.950 . S
H2575 C2581 0.950 . S
H2576 C2582 0.949 . S
C2577 H2572 0.950 . S
C2577 C2579 1.327 . S
C2577 C2583 1.429 . S
C2578 C2570 1.574 . S
C2578 H2573 0.949 . S
C2578 C2584 1.368 . S
C2579 C2563 1.349 . S
C2579 H2571 0.950 . S
C2579 C2577 1.327 . S
C2580 C2568 1.349 . S
C2580 H2574 0.950 . S
C2580 C2581 1.327 . S
C2581 H2575 0.950 . S
C2581 C2580 1.327 . S
C2581 C2585 1.429 . S
C2582 C2565 1.574 . S
C2582 H2576 0.949 . S
C2582 C2586 1.368 . S
C2583 C2564 1.429 . S
C2583 C2577 1.429 . S
C2583 C2584 1.523 . S
C2584 C2565 1.368 . S
C2584 C2578 1.368 . S
C2584 C2583 1.523 . S
C2585 C2569 1.429 . S
C2585 C2581 1.429 . S
C2585 C2586 1.523 . S
C2586 C2570 1.368 . S
C2586 C2582 1.368 . S
C2586 C2585 1.523 . S
H2587 C2562 0.950 . S
H2588 C2564 0.950 . S
H2589 C2565 0.949 . S
H2590 C2567 0.950 . S
H2591 C2569 0.950 . S
C2592 C2593 1.349 . S
C2592 C2594 1.327 . S
C2592 H2617 0.950 . S
C2593 C2592 1.349 . S
C2593 C2609 1.349 . S
C2594 C2592 1.327 . S
C2594 C2613 1.429 . S
C2594 H2618 0.950 . S
C2595 C2612 1.594 1_455 S
C2595 C2614 1.406 . S
C2595 H2619 0.900 1_455 S
H2596 C2600 0.949 . S
C2597 C2598 1.349 1_655 S
C2597 C2599 1.327 . S
C2597 H2620 0.950 . S
C2598 C2597 1.349 1_455 S
C2598 C2610 1.349 . S
C2599 C2597 1.327 . S
C2599 C2615 1.429 1_655 S
C2599 H2621 0.950 . S
C2600 H2596 0.949 . S
C2600 C2608 1.574 . S
C2600 C2616 1.368 . S
H2601 C2609 0.971 . S
H2602 C2607 0.950 1_655 S
H2603 C2608 0.949 . S
H2604 C2610 0.950 . S
H2605 C2611 0.950 . S
H2606 C2612 0.949 . S
C2607 H2602 0.950 1_455 S
C2607 C2609 1.327 . S
C2607 C2613 1.429 . S
C2608 C2600 1.574 . S
C2608 H2603 0.949 . S
C2608 C2614 1.368 . S
C2609 C2593 1.349 . S
C2609 H2601 0.971 . S
C2609 C2607 1.327 . S
C2610 C2598 1.349 . S
C2610 H2604 0.950 . S
C2610 C2611 1.327 . S
C2611 H2605 0.950 . S
C2611 C2610 1.327 . S
C2611 C2615 1.429 . S
C2612 C2595 1.594 1_655 S
C2612 H2606 0.949 . S
C2612 C2616 1.368 1_655 S
C2613 C2594 1.429 . S
C2613 C2607 1.429 . S
C2613 C2614 1.523 . S
C2614 C2595 1.406 . S
C2614 C2608 1.368 . S
C2614 C2613 1.523 . S
C2615 C2599 1.429 1_455 S
C2615 C2611 1.429 . S
C2615 C2616 1.523 . S
C2616 C2600 1.368 . S
C2616 C2612 1.368 1_455 S
C2616 C2615 1.523 . S
H2617 C2592 0.950 . S
H2618 C2594 0.950 . S
H2619 C2595 0.900 1_655 S
H2620 C2597 0.950 . S
H2621 C2599 0.950 . S
C2622 C2623 1.349 . S
C2622 C2624 1.327 . S
C2622 H2647 0.950 . S
C2623 C2622 1.349 . S
C2623 C2639 1.349 . S
C2624 C2622 1.327 . S
C2624 C2643 1.429 . S
C2624 H2648 0.950 . S
C2625 C2642 1.574 . S
C2625 C2644 1.368 . S
C2625 H2649 0.949 . S
H2626 C2630 0.949 . S
C2627 C2628 1.349 . S
C2627 C2629 1.327 . S
C2627 H2650 0.950 . S
C2628 C2627 1.349 . S
C2628 C2640 1.349 . S
C2629 C2627 1.327 . S
C2629 C2645 1.429 . S
C2629 H2651 0.950 . S
C2630 H2626 0.949 . S
C2630 C2638 1.574 . S
C2630 C2646 1.368 . S
H2631 C2639 0.950 . S
H2632 C2637 0.950 . S
H2633 C2638 0.949 . S
H2634 C2640 0.950 . S
H2635 C2641 0.950 . S
H2636 C2642 0.949 . S
C2637 H2632 0.950 . S
C2637 C2639 1.327 . S
C2637 C2643 1.429 . S
C2638 C2630 1.574 . S
C2638 H2633 0.949 . S
C2638 C2644 1.368 . S
C2639 C2623 1.349 . S
C2639 H2631 0.950 . S
C2639 C2637 1.327 . S
C2640 C2628 1.349 . S
C2640 H2634 0.950 . S
C2640 C2641 1.327 . S
C2641 H2635 0.950 . S
C2641 C2640 1.327 . S
C2641 C2645 1.429 . S
C2642 C2625 1.574 . S
C2642 H2636 0.949 . S
C2642 C2646 1.368 . S
C2643 C2624 1.429 . S
C2643 C2637 1.429 . S
C2643 C2644 1.523 . S
C2644 C2625 1.368 . S
C2644 C2638 1.368 . S
C2644 C2643 1.523 . S
C2645 C2629 1.429 . S
C2645 C2641 1.429 . S
C2645 C2646 1.523 . S
C2646 C2630 1.368 . S
C2646 C2642 1.368 . S
C2646 C2645 1.523 . S
H2647 C2622 0.950 . S
H2648 C2624 0.950 . S
H2649 C2625 0.949 . S
H2650 C2627 0.950 . S
H2651 C2629 0.950 . S
C2652 C2653 1.349 . S
C2652 C2654 1.327 . S
C2652 H2677 0.950 . S
C2653 C2652 1.349 . S
C2653 C2669 1.349 . S
C2654 C2652 1.327 . S
C2654 C2673 1.429 . S
C2654 H2678 0.950 1_565 S
C2655 C2672 1.574 . S
C2655 C2674 1.368 . S
C2655 H2679 0.949 . S
H2656 C2660 0.949 . S
C2657 C2658 1.349 . S
C2657 C2659 1.327 . S
C2657 H2680 0.950 . S
C2658 C2657 1.349 . S
C2658 C2670 1.349 1_565 S
C2659 C2657 1.327 . S
C2659 C2675 1.429 . S
C2659 H2681 0.950 . S
C2660 H2656 0.949 . S
C2660 C2668 1.545 1_545 S
C2660 C2676 1.368 1_545 S
H2661 C2669 0.950 . S
H2662 C2667 0.950 . S
H2663 C2668 0.938 1_545 S
H2664 C2670 0.950 . S
H2665 C2671 0.950 . S
H2666 C2672 0.949 . S
C2667 H2662 0.950 . S
C2667 C2669 1.327 . S
C2667 C2673 1.429 . S
C2668 C2660 1.545 1_565 S
C2668 H2663 0.938 1_565 S
C2668 C2674 1.412 . S
C2669 C2653 1.349 . S
C2669 H2661 0.950 . S
C2669 C2667 1.327 . S
C2670 C2658 1.349 1_545 S
C2670 H2664 0.950 . S
C2670 C2671 1.327 . S
C2671 H2665 0.950 . S
C2671 C2670 1.327 . S
C2671 C2675 1.429 1_545 S
C2672 C2655 1.574 . S
C2672 H2666 0.949 . S
C2672 C2676 1.368 . S
C2673 C2654 1.429 . S
C2673 C2667 1.429 . S
C2673 C2674 1.523 . S
C2674 C2655 1.368 . S
C2674 C2668 1.412 . S
C2674 C2673 1.523 . S
C2675 C2659 1.429 . S
C2675 C2671 1.429 1_565 S
C2675 C2676 1.523 . S
C2676 C2660 1.368 1_565 S
C2676 C2672 1.368 . S
C2676 C2675 1.523 . S
H2677 C2652 0.950 . S
H2678 C2654 0.950 1_545 S
H2679 C2655 0.949 . S
H2680 C2657 0.950 . S
H2681 C2659 0.950 . S
C2682 C2683 1.349 . S
C2682 C2684 1.327 . S
C2682 H2707 0.950 . S
C2683 C2682 1.349 . S
C2683 C2699 1.349 . S
C2684 C2682 1.327 . S
C2684 C2703 1.429 . S
C2684 H2708 0.950 . S
C2685 C2702 1.595 1_545 S
C2685 C2704 1.425 . S
C2685 H2709 0.881 1_545 S
H2686 C2690 0.949 . S
C2687 C2688 1.349 1_565 S
C2687 C2689 1.327 . S
C2687 H2710 0.950 . S
C2688 C2687 1.349 1_545 S
C2688 C2700 1.349 . S
C2689 C2687 1.327 . S
C2689 C2705 1.429 1_565 S
C2689 H2711 0.950 . S
C2690 H2686 0.949 . S
C2690 C2698 1.574 . S
C2690 C2706 1.368 . S
H2691 C2699 0.983 . S
H2692 C2697 0.950 1_565 S
H2693 C2698 0.949 . S
H2694 C2700 0.950 . S
H2695 C2701 0.950 . S
H2696 C2702 0.949 . S
C2697 H2692 0.950 1_545 S
C2697 C2699 1.327 . S
C2697 C2703 1.429 . S
C2698 C2690 1.574 . S
C2698 H2693 0.949 . S
C2698 C2704 1.368 . S
C2699 C2683 1.349 . S
C2699 H2691 0.983 . S
C2699 C2697 1.327 . S
C2700 C2688 1.349 . S
C2700 H2694 0.950 . S
C2700 C2701 1.327 . S
C2701 H2695 0.950 . S
C2701 C2700 1.327 . S
C2701 C2705 1.429 . S
C2702 C2685 1.595 1_565 S
C2702 H2696 0.949 . S
C2702 C2706 1.368 1_565 S
C2703 C2684 1.429 . S
C2703 C2697 1.429 . S
C2703 C2704 1.523 . S
C2704 C2685 1.425 . S
C2704 C2698 1.368 . S
C2704 C2703 1.523 . S
C2705 C2689 1.429 1_545 S
C2705 C2701 1.429 . S
C2705 C2706 1.523 . S
C2706 C2690 1.368 . S
C2706 C2702 1.368 1_545 S
C2706 C2705 1.523 . S
H2707 C2682 0.950 . S
H2708 C2684 0.950 . S
H2709 C2685 0.881 1_565 S
H2710 C2687 0.950 . S
H2711 C2689 0.950 . S
C2712 C2713 1.349 . S
C2712 C2714 1.327 . S
C2712 H2737 0.950 . S
C2713 C2712 1.349 . S
C2713 C2729 1.349 . S
C2714 C2712 1.327 . S
C2714 C2733 1.429 . S
C2714 H2738 0.950 . S
C2715 C2732 1.574 . S
C2715 C2734 1.368 . S
C2715 H2739 0.949 . S
H2716 C2720 0.949 . S
C2717 C2718 1.349 . S
C2717 C2719 1.327 . S
C2717 H2740 0.950 . S
C2718 C2717 1.349 . S
C2718 C2730 1.351 1_655 S
C2719 C2717 1.327 . S
C2719 C2735 1.429 . S
C2719 H2741 0.950 . S
C2720 H2716 0.949 . S
C2720 C2728 1.574 . S
C2720 C2736 1.368 . S
H2721 C2729 0.950 . S
H2722 C2727 0.950 . S
H2723 C2728 0.949 . S
H2724 C2730 0.945 . S
H2725 C2731 0.950 1_455 S
H2726 C2732 0.949 . S
C2727 H2722 0.950 . S
C2727 C2729 1.327 . S
C2727 C2733 1.429 . S
C2728 C2720 1.574 . S
C2728 H2723 0.949 . S
C2728 C2734 1.368 . S
C2729 C2713 1.349 . S
C2729 H2721 0.950 . S
C2729 C2727 1.327 . S
C2730 C2718 1.351 1_455 S
C2730 H2724 0.945 . S
C2730 C2731 1.330 1_455 S
C2731 H2725 0.950 1_655 S
C2731 C2730 1.330 1_655 S
C2731 C2735 1.429 . S
C2732 C2715 1.574 . S
C2732 H2726 0.949 . S
C2732 C2736 1.368 . S
C2733 C2714 1.429 . S
C2733 C2727 1.429 . S
C2733 C2734 1.523 . S
C2734 C2715 1.368 . S
C2734 C2728 1.368 . S
C2734 C2733 1.523 . S
C2735 C2719 1.429 . S
C2735 C2731 1.429 . S
C2735 C2736 1.523 . S
C2736 C2720 1.368 . S
C2736 C2732 1.368 . S
C2736 C2735 1.523 . S
H2737 C2712 0.950 . S
H2738 C2714 0.950 . S
H2739 C2715 0.949 . S
H2740 C2717 0.950 . S
H2741 C2719 0.950 . S
C2742 C2743 1.349 . S
C2742 C2744 1.327 . S
C2742 H2767 0.950 . S
C2743 C2742 1.349 . S
C2743 C2759 1.349 . S
C2744 C2742 1.327 . S
C2744 C2763 1.429 . S
C2744 H2768 0.950 . S
C2745 C2762 1.574 . S
C2745 C2764 1.368 . S
C2745 H2769 0.949 . S
H2746 C2750 0.949 . S
C2747 C2748 1.349 . S
C2747 C2749 1.327 . S
C2747 H2770 0.950 . S
C2748 C2747 1.349 . S
C2748 C2760 1.349 . S
C2749 C2747 1.327 . S
C2749 C2765 1.429 . S
C2749 H2771 0.950 . S
C2750 H2746 0.949 . S
C2750 C2758 1.574 . S
C2750 C2766 1.368 . S
H2751 C2759 0.950 . S
H2752 C2757 0.950 . S
H2753 C2758 0.949 . S
H2754 C2760 0.950 . S
H2755 C2761 0.950 . S
H2756 C2762 0.949 . S
C2757 H2752 0.950 . S
C2757 C2759 1.327 . S
C2757 C2763 1.429 . S
C2758 C2750 1.574 . S
C2758 H2753 0.949 . S
C2758 C2764 1.368 . S
C2759 C2743 1.349 . S
C2759 H2751 0.950 . S
C2759 C2757 1.327 . S
C2760 C2748 1.349 . S
C2760 H2754 0.950 . S
C2760 C2761 1.327 . S
C2761 H2755 0.950 . S
C2761 C2760 1.327 . S
C2761 C2765 1.429 . S
C2762 C2745 1.574 . S
C2762 H2756 0.949 . S
C2762 C2766 1.368 . S
C2763 C2744 1.429 . S
C2763 C2757 1.429 . S
C2763 C2764 1.523 . S
C2764 C2745 1.368 . S
C2764 C2758 1.368 . S
C2764 C2763 1.523 . S
C2765 C2749 1.429 . S
C2765 C2761 1.429 . S
C2765 C2766 1.523 . S
C2766 C2750 1.368 . S
C2766 C2762 1.368 . S
C2766 C2765 1.523 . S
H2767 C2742 0.950 . S
H2768 C2744 0.950 . S
H2769 C2745 0.949 . S
H2770 C2747 0.950 . S
H2771 C2749 0.950 . S
C2772 C2773 1.349 . S
C2772 C2774 1.327 . S
C2772 H2797 0.950 . S
C2773 C2772 1.349 . S
C2773 C2789 1.349 . S
C2774 C2772 1.327 . S
C2774 C2793 1.429 . S
C2774 H2798 0.950 . S
C2775 C2792 1.574 . S
C2775 C2794 1.368 . S
C2775 H2799 0.949 . S
H2776 C2780 0.949 . S
C2777 C2778 1.349 . S
C2777 C2779 1.327 . S
C2777 H2800 0.950 . S
C2778 C2777 1.349 . S
C2778 C2790 1.349 . S
C2779 C2777 1.327 . S
C2779 C2795 1.429 . S
C2779 H2801 0.950 . S
C2780 H2776 0.949 . S
C2780 C2788 1.574 . S
C2780 C2796 1.368 . S
H2781 C2789 0.950 . S
H2782 C2787 0.950 . S
H2783 C2788 0.949 . S
H2784 C2790 0.950 . S
H2785 C2791 0.950 . S
H2786 C2792 0.949 . S
C2787 H2782 0.950 . S
C2787 C2789 1.327 . S
C2787 C2793 1.429 . S
C2788 C2780 1.574 . S
C2788 H2783 0.949 . S
C2788 C2794 1.368 . S
C2789 C2773 1.349 . S
C2789 H2781 0.950 . S
C2789 C2787 1.327 . S
C2790 C2778 1.349 . S
C2790 H2784 0.950 . S
C2790 C2791 1.327 . S
C2791 H2785 0.950 . S
C2791 C2790 1.327 . S
C2791 C2795 1.429 . S
C2792 C2775 1.574 . S
C2792 H2786 0.949 . S
C2792 C2796 1.368 . S
C2793 C2774 1.429 . S
C2793 C2787 1.429 . S
C2793 C2794 1.523 . S
C2794 C2775 1.368 . S
C2794 C2788 1.368 . S
C2794 C2793 1.523 . S
C2795 C2779 1.429 . S
C2795 C2791 1.429 . S
C2795 C2796 1.523 . S
C2796 C2780 1.368 . S
C2796 C2792 1.368 . S
C2796 C2795 1.523 . S
H2797 C2772 0.950 . S
H2798 C2774 0.950 . S
H2799 C2775 0.949 . S
H2800 C2777 0.950 . S
H2801 C2779 0.950 . S
C2802 C2803 1.349 . S
C2802 C2804 1.327 . S
C2802 H2827 0.950 . S
C2803 C2802 1.349 . S
C2803 C2819 1.349 . S
C2804 C2802 1.327 . S
C2804 C2823 1.429 . S
C2804 H2828 0.950 . S
C2805 C2822 1.574 . S
C2805 C2824 1.368 . S
C2805 H2829 0.949 . S
H2806 C2810 0.949 . S
C2807 C2808 1.349 . S
C2807 C2809 1.327 . S
C2807 H2830 0.950 . S
C2808 C2807 1.349 . S
C2808 C2820 1.349 . S
C2809 C2807 1.327 . S
C2809 C2825 1.429 . S
C2809 H2831 0.950 . S
C2810 H2806 0.949 . S
C2810 C2818 1.574 . S
C2810 C2826 1.368 . S
H2811 C2819 0.950 . S
H2812 C2817 0.950 . S
H2813 C2818 0.949 . S
H2814 C2820 0.950 . S
H2815 C2821 0.950 . S
H2816 C2822 0.949 . S
C2817 H2812 0.950 . S
C2817 C2819 1.327 . S
C2817 C2823 1.429 . S
C2818 C2810 1.574 . S
C2818 H2813 0.949 . S
C2818 C2824 1.368 . S
C2819 C2803 1.349 . S
C2819 H2811 0.950 . S
C2819 C2817 1.327 . S
C2820 C2808 1.349 . S
C2820 H2814 0.950 . S
C2820 C2821 1.327 . S
C2821 H2815 0.950 . S
C2821 C2820 1.327 . S
C2821 C2825 1.429 . S
C2822 C2805 1.574 . S
C2822 H2816 0.949 . S
C2822 C2826 1.368 . S
C2823 C2804 1.429 . S
C2823 C2817 1.429 . S
C2823 C2824 1.523 . S
C2824 C2805 1.368 . S
C2824 C2818 1.368 . S
C2824 C2823 1.523 . S
C2825 C2809 1.429 . S
C2825 C2821 1.429 . S
C2825 C2826 1.523 . S
C2826 C2810 1.368 . S
C2826 C2822 1.368 . S
C2826 C2825 1.523 . S
H2827 C2802 0.950 . S
H2828 C2804 0.950 . S
H2829 C2805 0.949 . S
H2830 C2807 0.950 . S
H2831 C2809 0.950 . S
C2832 C2833 1.349 . S
C2832 C2834 1.327 . S
C2832 H2857 0.950 . S
C2833 C2832 1.349 . S
C2833 C2849 1.349 . S
C2834 C2832 1.327 . S
C2834 C2853 1.429 . S
C2834 H2858 0.950 . S
C2835 C2852 1.574 . S
C2835 C2854 1.368 . S
C2835 H2859 0.949 . S
H2836 C2840 0.949 . S
C2837 C2838 1.349 . S
C2837 C2839 1.327 . S
C2837 H2860 0.950 . S
C2838 C2837 1.349 . S
C2838 C2850 1.349 . S
C2839 C2837 1.327 . S
C2839 C2855 1.429 . S
C2839 H2861 0.950 . S
C2840 H2836 0.949 . S
C2840 C2848 1.574 . S
C2840 C2856 1.368 . S
H2841 C2849 0.950 . S
H2842 C2847 0.950 . S
H2843 C2848 0.949 . S
H2844 C2850 0.950 . S
H2845 C2851 0.950 . S
H2846 C2852 0.949 . S
C2847 H2842 0.950 . S
C2847 C2849 1.327 . S
C2847 C2853 1.429 . S
C2848 C2840 1.574 . S
C2848 H2843 0.949 . S
C2848 C2854 1.368 . S
C2849 C2833 1.349 . S
C2849 H2841 0.950 . S
C2849 C2847 1.327 . S
C2850 C2838 1.349 . S
C2850 H2844 0.950 . S
C2850 C2851 1.327 . S
C2851 H2845 0.950 . S
C2851 C2850 1.327 . S
C2851 C2855 1.429 . S
C2852 C2835 1.574 . S
C2852 H2846 0.949 . S
C2852 C2856 1.368 . S
C2853 C2834 1.429 . S
C2853 C2847 1.429 . S
C2853 C2854 1.523 . S
C2854 C2835 1.368 . S
C2854 C2848 1.368 . S
C2854 C2853 1.523 . S
C2855 C2839 1.429 . S
C2855 C2851 1.429 . S
C2855 C2856 1.523 . S
C2856 C2840 1.368 . S
C2856 C2852 1.368 . S
C2856 C2855 1.523 . S
H2857 C2832 0.950 . S
H2858 C2834 0.950 . S
H2859 C2835 0.949 . S
H2860 C2837 0.950 . S
H2861 C2839 0.950 . S
C2862 C2863 1.349 . S
C2862 C2864 1.327 . S
C2862 H2887 0.950 . S
C2863 C2862 1.349 . S
C2863 C2879 1.349 . S
C2864 C2862 1.327 . S
C2864 C2883 1.429 . S
C2864 H2888 0.950 . S
C2865 C2882 1.574 . S
C2865 C2884 1.368 . S
C2865 H2889 0.949 . S
H2866 C2870 0.949 . S
C2867 C2868 1.349 . S
C2867 C2869 1.327 . S
C2867 H2890 0.950 . S
C2868 C2867 1.349 . S
C2868 C2880 1.349 . S
C2869 C2867 1.327 . S
C2869 C2885 1.429 . S
C2869 H2891 0.950 . S
C2870 H2866 0.949 . S
C2870 C2878 1.574 . S
C2870 C2886 1.368 . S
H2871 C2879 0.950 . S
H2872 C2877 0.950 . S
H2873 C2878 0.949 . S
H2874 C2880 0.950 . S
H2875 C2881 0.950 . S
H2876 C2882 0.949 . S
C2877 H2872 0.950 . S
C2877 C2879 1.327 . S
C2877 C2883 1.429 . S
C2878 C2870 1.574 . S
C2878 H2873 0.949 . S
C2878 C2884 1.368 . S
C2879 C2863 1.349 . S
C2879 H2871 0.950 . S
C2879 C2877 1.327 . S
C2880 C2868 1.349 . S
C2880 H2874 0.950 . S
C2880 C2881 1.327 . S
C2881 H2875 0.950 . S
C2881 C2880 1.327 . S
C2881 C2885 1.429 . S
C2882 C2865 1.574 . S
C2882 H2876 0.949 . S
C2882 C2886 1.368 . S
C2883 C2864 1.429 . S
C2883 C2877 1.429 . S
C2883 C2884 1.523 . S
C2884 C2865 1.368 . S
C2884 C2878 1.368 . S
C2884 C2883 1.523 . S
C2885 C2869 1.429 . S
C2885 C2881 1.429 . S
C2885 C2886 1.523 . S
C2886 C2870 1.368 . S
C2886 C2882 1.368 . S
C2886 C2885 1.523 . S
H2887 C2862 0.950 . S
H2888 C2864 0.950 . S
H2889 C2865 0.949 . S
H2890 C2867 0.950 . S
H2891 C2869 0.950 . S
C2892 C2893 1.349 . S
C2892 C2894 1.327 . S
C2892 H2917 0.950 . S
C2893 C2892 1.349 . S
C2893 C2909 1.349 . S
C2894 C2892 1.327 . S
C2894 C2913 1.429 . S
C2894 H2918 0.950 . S
C2895 C2912 1.574 . S
C2895 C2914 1.368 . S
C2895 H2919 0.949 . S
H2896 C2900 0.949 . S
C2897 C2898 1.349 . S
C2897 C2899 1.327 . S
C2897 H2920 0.950 . S
C2898 C2897 1.349 . S
C2898 C2910 1.349 . S
C2899 C2897 1.327 . S
C2899 C2915 1.429 . S
C2899 H2921 0.950 . S
C2900 H2896 0.949 . S
C2900 C2908 1.574 . S
C2900 C2916 1.368 . S
H2901 C2909 0.950 . S
H2902 C2907 0.950 . S
H2903 C2908 0.949 . S
H2904 C2910 0.950 . S
H2905 C2911 0.950 . S
H2906 C2912 0.949 . S
C2907 H2902 0.950 . S
C2907 C2909 1.327 . S
C2907 C2913 1.429 . S
C2908 C2900 1.574 . S
C2908 H2903 0.949 . S
C2908 C2914 1.368 . S
C2909 C2893 1.349 . S
C2909 H2901 0.950 . S
C2909 C2907 1.327 . S
C2910 C2898 1.349 . S
C2910 H2904 0.950 . S
C2910 C2911 1.327 . S
C2911 H2905 0.950 . S
C2911 C2910 1.327 . S
C2911 C2915 1.429 . S
C2912 C2895 1.574 . S
C2912 H2906 0.949 . S
C2912 C2916 1.368 . S
C2913 C2894 1.429 . S
C2913 C2907 1.429 . S
C2913 C2914 1.523 . S
C2914 C2895 1.368 . S
C2914 C2908 1.368 . S
C2914 C2913 1.523 . S
C2915 C2899 1.429 . S
C2915 C2911 1.429 . S
C2915 C2916 1.523 . S
C2916 C2900 1.368 . S
C2916 C2912 1.368 . S
C2916 C2915 1.523 . S
H2917 C2892 0.950 . S
H2918 C2894 0.950 . S
H2919 C2895 0.949 . S
H2920 C2897 0.950 . S
H2921 C2899 0.950 . S
C2922 C2923 1.349 . S
C2922 C2924 1.327 . S
C2922 H2947 0.950 . S
C2923 C2922 1.349 . S
C2923 C2939 1.349 . S
C2924 C2922 1.327 . S
C2924 C2943 1.429 . S
C2924 H2948 0.950 . S
C2925 C2942 1.574 . S
C2925 C2944 1.368 . S
C2925 H2949 0.949 . S
H2926 C2930 0.949 . S
C2927 C2928 1.349 . S
C2927 C2929 1.327 . S
C2927 H2950 0.950 . S
C2928 C2927 1.349 . S
C2928 C2940 1.349 . S
C2929 C2927 1.327 . S
C2929 C2945 1.429 . S
C2929 H2951 0.950 . S
C2930 H2926 0.949 . S
C2930 C2938 1.574 . S
C2930 C2946 1.368 . S
H2931 C2939 0.950 . S
H2932 C2937 0.950 . S
H2933 C2938 0.949 . S
H2934 C2940 0.950 . S
H2935 C2941 0.950 . S
H2936 C2942 0.949 . S
C2937 H2932 0.950 . S
C2937 C2939 1.327 . S
C2937 C2943 1.429 . S
C2938 C2930 1.574 . S
C2938 H2933 0.949 . S
C2938 C2944 1.368 . S
C2939 C2923 1.349 . S
C2939 H2931 0.950 . S
C2939 C2937 1.327 . S
C2940 C2928 1.349 . S
C2940 H2934 0.950 . S
C2940 C2941 1.327 . S
C2941 H2935 0.950 . S
C2941 C2940 1.327 . S
C2941 C2945 1.429 . S
C2942 C2925 1.574 . S
C2942 H2936 0.949 . S
C2942 C2946 1.368 . S
C2943 C2924 1.429 . S
C2943 C2937 1.429 . S
C2943 C2944 1.523 . S
C2944 C2925 1.368 . S
C2944 C2938 1.368 . S
C2944 C2943 1.523 . S
C2945 C2929 1.429 . S
C2945 C2941 1.429 . S
C2945 C2946 1.523 . S
C2946 C2930 1.368 . S
C2946 C2942 1.368 . S
C2946 C2945 1.523 . S
H2947 C2922 0.950 . S
H2948 C2924 0.950 . S
H2949 C2925 0.949 . S
H2950 C2927 0.950 . S
H2951 C2929 0.950 . S
C2952 C2953 1.349 . S
C2952 C2954 1.327 . S
C2952 H2977 0.950 . S
C2953 C2952 1.349 . S
C2953 C2969 1.349 . S
C2954 C2952 1.327 . S
C2954 C2973 1.429 . S
C2954 H2978 0.950 . S
C2955 C2972 1.574 . S
C2955 C2974 1.368 . S
C2955 H2979 0.949 . S
H2956 C2960 0.949 . S
C2957 C2958 1.349 . S
C2957 C2959 1.327 . S
C2957 H2980 0.950 . S
C2958 C2957 1.349 . S
C2958 C2970 1.349 . S
C2959 C2957 1.327 . S
C2959 C2975 1.429 . S
C2959 H2981 0.950 . S
C2960 H2956 0.949 . S
C2960 C2968 1.574 . S
C2960 C2976 1.368 . S
H2961 C2969 0.950 . S
H2962 C2967 0.950 . S
H2963 C2968 0.949 . S
H2964 C2970 0.950 . S
H2965 C2971 0.950 . S
H2966 C2972 0.949 . S
C2967 H2962 0.950 . S
C2967 C2969 1.327 . S
C2967 C2973 1.429 . S
C2968 C2960 1.574 . S
C2968 H2963 0.949 . S
C2968 C2974 1.368 . S
C2969 C2953 1.349 . S
C2969 H2961 0.950 . S
C2969 C2967 1.327 . S
C2970 C2958 1.349 . S
C2970 H2964 0.950 . S
C2970 C2971 1.327 . S
C2971 H2965 0.950 . S
C2971 C2970 1.327 . S
C2971 C2975 1.429 . S
C2972 C2955 1.574 . S
C2972 H2966 0.949 . S
C2972 C2976 1.368 . S
C2973 C2954 1.429 . S
C2973 C2967 1.429 . S
C2973 C2974 1.523 . S
C2974 C2955 1.368 . S
C2974 C2968 1.368 . S
C2974 C2973 1.523 . S
C2975 C2959 1.429 . S
C2975 C2971 1.429 . S
C2975 C2976 1.523 . S
C2976 C2960 1.368 . S
C2976 C2972 1.368 . S
C2976 C2975 1.523 . S
H2977 C2952 0.950 . S
H2978 C2954 0.950 . S
H2979 C2955 0.949 . S
H2980 C2957 0.950 . S
H2981 C2959 0.950 . S
C2982 C2983 1.349 . S
C2982 C2984 1.327 . S
C2982 H3007 0.950 . S
C2983 C2982 1.349 . S
C2983 C2999 1.349 . S
C2984 C2982 1.327 . S
C2984 C3003 1.429 . S
C2984 H3008 0.950 . S
C2985 C3002 1.574 . S
C2985 C3004 1.368 . S
C2985 H3009 0.949 . S
H2986 C2990 0.949 . S
C2987 C2988 1.349 . S
C2987 C2989 1.327 . S
C2987 H3010 0.950 . S
C2988 C2987 1.349 . S
C2988 C3000 1.349 . S
C2989 C2987 1.327 . S
C2989 C3005 1.429 . S
C2989 H3011 0.950 . S
C2990 H2986 0.949 . S
C2990 C2998 1.574 . S
C2990 C3006 1.368 . S
H2991 C2999 0.950 . S
H2992 C2997 0.950 . S
H2993 C2998 0.949 . S
H2994 C3000 0.950 . S
H2995 C3001 0.950 . S
H2996 C3002 0.949 . S
C2997 H2992 0.950 . S
C2997 C2999 1.327 . S
C2997 C3003 1.429 . S
C2998 C2990 1.574 . S
C2998 H2993 0.949 . S
C2998 C3004 1.368 . S
C2999 C2983 1.349 . S
C2999 H2991 0.950 . S
C2999 C2997 1.327 . S
C3000 C2988 1.349 . S
C3000 H2994 0.950 . S
C3000 C3001 1.327 . S
C3001 H2995 0.950 . S
C3001 C3000 1.327 . S
C3001 C3005 1.429 . S
C3002 C2985 1.574 . S
C3002 H2996 0.949 . S
C3002 C3006 1.368 . S
C3003 C2984 1.429 . S
C3003 C2997 1.429 . S
C3003 C3004 1.523 . S
C3004 C2985 1.368 . S
C3004 C2998 1.368 . S
C3004 C3003 1.523 . S
C3005 C2989 1.429 . S
C3005 C3001 1.429 . S
C3005 C3006 1.523 . S
C3006 C2990 1.368 . S
C3006 C3002 1.368 . S
C3006 C3005 1.523 . S
H3007 C2982 0.950 . S
H3008 C2984 0.950 . S
H3009 C2985 0.949 . S
H3010 C2987 0.950 . S
H3011 C2989 0.950 . S
C3012 C3013 1.349 . S
C3012 C3014 1.327 . S
C3012 H3037 0.950 . S
C3013 C3012 1.349 . S
C3013 C3029 1.349 . S
C3014 C3012 1.327 . S
C3014 C3033 1.429 . S
C3014 H3038 0.950 . S
C3015 C3032 1.574 . S
C3015 C3034 1.368 . S
C3015 H3039 0.949 . S
H3016 C3020 0.949 . S
C3017 C3018 1.349 . S
C3017 C3019 1.327 . S
C3017 H3040 0.950 . S
C3018 C3017 1.349 . S
C3018 C3030 1.349 . S
C3019 C3017 1.327 . S
C3019 C3035 1.429 . S
C3019 H3041 0.950 . S
C3020 H3016 0.949 . S
C3020 C3028 1.574 . S
C3020 C3036 1.368 . S
H3021 C3029 0.950 . S
H3022 C3027 0.950 . S
H3023 C3028 0.949 . S
H3024 C3030 0.950 . S
H3025 C3031 0.950 . S
H3026 C3032 0.949 . S
C3027 H3022 0.950 . S
C3027 C3029 1.327 . S
C3027 C3033 1.429 . S
C3028 C3020 1.574 . S
C3028 H3023 0.949 . S
C3028 C3034 1.368 . S
C3029 C3013 1.349 . S
C3029 H3021 0.950 . S
C3029 C3027 1.327 . S
C3030 C3018 1.349 . S
C3030 H3024 0.950 . S
C3030 C3031 1.327 . S
C3031 H3025 0.950 . S
C3031 C3030 1.327 . S
C3031 C3035 1.429 . S
C3032 C3015 1.574 . S
C3032 H3026 0.949 . S
C3032 C3036 1.368 . S
C3033 C3014 1.429 . S
C3033 C3027 1.429 . S
C3033 C3034 1.523 . S
C3034 C3015 1.368 . S
C3034 C3028 1.368 . S
C3034 C3033 1.523 . S
C3035 C3019 1.429 . S
C3035 C3031 1.429 . S
C3035 C3036 1.523 . S
C3036 C3020 1.368 . S
C3036 C3032 1.368 . S
C3036 C3035 1.523 . S
H3037 C3012 0.950 . S
H3038 C3014 0.950 . S
H3039 C3015 0.949 . S
H3040 C3017 0.950 . S
H3041 C3019 0.950 . S
C3042 C3043 1.349 . S
C3042 C3044 1.327 . S
C3042 H3067 0.950 . S
C3043 C3042 1.349 . S
C3043 C3059 1.349 . S
C3044 C3042 1.327 . S
C3044 C3063 1.429 . S
C3044 H3068 0.950 . S
C3045 C3062 1.574 . S
C3045 C3064 1.368 . S
C3045 H3069 0.949 . S
H3046 C3050 0.949 . S
C3047 C3048 1.349 . S
C3047 C3049 1.327 . S
C3047 H3070 0.950 . S
C3048 C3047 1.349 . S
C3048 C3060 1.349 . S
C3049 C3047 1.327 . S
C3049 C3065 1.429 . S
C3049 H3071 0.950 . S
C3050 H3046 0.949 . S
C3050 C3058 1.574 . S
C3050 C3066 1.368 . S
H3051 C3059 0.950 . S
H3052 C3057 0.950 . S
H3053 C3058 0.949 . S
H3054 C3060 0.950 . S
H3055 C3061 0.950 . S
H3056 C3062 0.949 . S
C3057 H3052 0.950 . S
C3057 C3059 1.327 . S
C3057 C3063 1.429 . S
C3058 C3050 1.574 . S
C3058 H3053 0.949 . S
C3058 C3064 1.368 . S
C3059 C3043 1.349 . S
C3059 H3051 0.950 . S
C3059 C3057 1.327 . S
C3060 C3048 1.349 . S
C3060 H3054 0.950 . S
C3060 C3061 1.327 . S
C3061 H3055 0.950 . S
C3061 C3060 1.327 . S
C3061 C3065 1.429 . S
C3062 C3045 1.574 . S
C3062 H3056 0.949 . S
C3062 C3066 1.368 . S
C3063 C3044 1.429 . S
C3063 C3057 1.429 . S
C3063 C3064 1.523 . S
C3064 C3045 1.368 . S
C3064 C3058 1.368 . S
C3064 C3063 1.523 . S
C3065 C3049 1.429 . S
C3065 C3061 1.429 . S
C3065 C3066 1.523 . S
C3066 C3050 1.368 . S
C3066 C3062 1.368 . S
C3066 C3065 1.523 . S
H3067 C3042 0.950 . S
H3068 C3044 0.950 . S
H3069 C3045 0.949 . S
H3070 C3047 0.950 . S
H3071 C3049 0.950 . S
C3072 C3073 1.349 . S
C3072 C3074 1.327 . S
C3072 H3097 0.950 . S
C3073 C3072 1.349 . S
C3073 C3089 1.349 . S
C3074 C3072 1.327 . S
C3074 C3093 1.429 . S
C3074 H3098 0.950 . S
C3075 C3092 1.574 . S
C3075 C3094 1.368 . S
C3075 H3099 0.949 . S
H3076 C3080 0.949 . S
C3077 C3078 1.349 . S
C3077 C3079 1.327 . S
C3077 H3100 0.950 . S
C3078 C3077 1.349 . S
C3078 C3090 1.349 . S
C3079 C3077 1.327 . S
C3079 C3095 1.429 . S
C3079 H3101 0.950 . S
C3080 H3076 0.949 . S
C3080 C3088 1.574 . S
C3080 C3096 1.368 . S
H3081 C3089 0.950 . S
H3082 C3087 0.950 . S
H3083 C3088 0.949 . S
H3084 C3090 0.950 . S
H3085 C3091 0.950 . S
H3086 C3092 0.949 . S
C3087 H3082 0.950 . S
C3087 C3089 1.327 . S
C3087 C3093 1.429 . S
C3088 C3080 1.574 . S
C3088 H3083 0.949 . S
C3088 C3094 1.368 . S
C3089 C3073 1.349 . S
C3089 H3081 0.950 . S
C3089 C3087 1.327 . S
C3090 C3078 1.349 . S
C3090 H3084 0.950 . S
C3090 C3091 1.327 . S
C3091 H3085 0.950 . S
C3091 C3090 1.327 . S
C3091 C3095 1.429 . S
C3092 C3075 1.574 . S
C3092 H3086 0.949 . S
C3092 C3096 1.368 . S
C3093 C3074 1.429 . S
C3093 C3087 1.429 . S
C3093 C3094 1.523 . S
C3094 C3075 1.368 . S
C3094 C3088 1.368 . S
C3094 C3093 1.523 . S
C3095 C3079 1.429 . S
C3095 C3091 1.429 . S
C3095 C3096 1.523 . S
C3096 C3080 1.368 . S
C3096 C3092 1.368 . S
C3096 C3095 1.523 . S
H3097 C3072 0.950 . S
H3098 C3074 0.950 . S
H3099 C3075 0.949 . S
H3100 C3077 0.950 . S
H3101 C3079 0.950 . S
C3102 C3103 1.349 . S
C3102 C3104 1.327 . S
C3102 H3127 0.950 . S
C3103 C3102 1.349 . S
C3103 C3119 1.349 . S
C3104 C3102 1.327 . S
C3104 C3123 1.429 . S
C3104 H3128 0.950 . S
C3105 C3122 1.574 . S
C3105 C3124 1.368 . S
C3105 H3129 0.949 . S
H3106 C3110 0.949 . S
C3107 C3108 1.349 . S
C3107 C3109 1.327 . S
C3107 H3130 0.950 . S
C3108 C3107 1.349 . S
C3108 C3120 1.349 . S
C3109 C3107 1.327 . S
C3109 C3125 1.429 . S
C3109 H3131 0.950 . S
C3110 H3106 0.949 . S
C3110 C3118 1.574 . S
C3110 C3126 1.368 . S
H3111 C3119 0.950 . S
H3112 C3117 0.950 . S
H3113 C3118 0.949 . S
H3114 C3120 0.950 . S
H3115 C3121 0.950 . S
H3116 C3122 0.949 . S
C3117 H3112 0.950 . S
C3117 C3119 1.327 . S
C3117 C3123 1.429 . S
C3118 C3110 1.574 . S
C3118 H3113 0.949 . S
C3118 C3124 1.368 . S
C3119 C3103 1.349 . S
C3119 H3111 0.950 . S
C3119 C3117 1.327 . S
C3120 C3108 1.349 . S
C3120 H3114 0.950 . S
C3120 C3121 1.327 . S
C3121 H3115 0.950 . S
C3121 C3120 1.327 . S
C3121 C3125 1.429 . S
C3122 C3105 1.574 . S
C3122 H3116 0.949 . S
C3122 C3126 1.368 . S
C3123 C3104 1.429 . S
C3123 C3117 1.429 . S
C3123 C3124 1.523 . S
C3124 C3105 1.368 . S
C3124 C3118 1.368 . S
C3124 C3123 1.523 . S
C3125 C3109 1.429 . S
C3125 C3121 1.429 . S
C3125 C3126 1.523 . S
C3126 C3110 1.368 . S
C3126 C3122 1.368 . S
C3126 C3125 1.523 . S
H3127 C3102 0.950 . S
H3128 C3104 0.950 . S
H3129 C3105 0.949 . S
H3130 C3107 0.950 . S
H3131 C3109 0.950 . S
C3132 C3133 1.349 . S
C3132 C3134 1.327 . S
C3132 H3157 0.950 . S
C3133 C3132 1.349 . S
C3133 C3149 1.349 . S
C3134 C3132 1.327 . S
C3134 C3153 1.429 . S
C3134 H3158 0.950 . S
C3135 C3152 1.574 . S
C3135 C3154 1.368 . S
C3135 H3159 0.949 . S
H3136 C3140 0.949 . S
C3137 C3138 1.349 . S
C3137 C3139 1.327 . S
C3137 H3160 0.950 . S
C3138 C3137 1.349 . S
C3138 C3150 1.349 . S
C3139 C3137 1.327 . S
C3139 C3155 1.429 . S
C3139 H3161 0.950 . S
C3140 H3136 0.949 . S
C3140 C3148 1.574 . S
C3140 C3156 1.368 . S
H3141 C3149 0.950 . S
H3142 C3147 0.950 . S
H3143 C3148 0.949 . S
H3144 C3150 0.950 . S
H3145 C3151 0.950 . S
H3146 C3152 0.949 . S
C3147 H3142 0.950 . S
C3147 C3149 1.327 . S
C3147 C3153 1.429 . S
C3148 C3140 1.574 . S
C3148 H3143 0.949 . S
C3148 C3154 1.368 . S
C3149 C3133 1.349 . S
C3149 H3141 0.950 . S
C3149 C3147 1.327 . S
C3150 C3138 1.349 . S
C3150 H3144 0.950 . S
C3150 C3151 1.327 . S
C3151 H3145 0.950 . S
C3151 C3150 1.327 . S
C3151 C3155 1.429 . S
C3152 C3135 1.574 . S
C3152 H3146 0.949 . S
C3152 C3156 1.368 . S
C3153 C3134 1.429 . S
C3153 C3147 1.429 . S
C3153 C3154 1.523 . S
C3154 C3135 1.368 . S
C3154 C3148 1.368 . S
C3154 C3153 1.523 . S
C3155 C3139 1.429 . S
C3155 C3151 1.429 . S
C3155 C3156 1.523 . S
C3156 C3140 1.368 . S
C3156 C3152 1.368 . S
C3156 C3155 1.523 . S
H3157 C3132 0.950 . S
H3158 C3134 0.950 . S
H3159 C3135 0.949 . S
H3160 C3137 0.950 . S
H3161 C3139 0.950 . S
C3162 C3163 1.349 . S
C3162 C3164 1.327 . S
C3162 H3187 0.950 . S
C3163 C3162 1.349 . S
C3163 C3179 1.349 . S
C3164 C3162 1.327 . S
C3164 C3183 1.429 . S
C3164 H3188 0.950 . S
C3165 C3182 1.574 . S
C3165 C3184 1.368 . S
C3165 H3189 0.949 . S
H3166 C3170 0.949 . S
C3167 C3168 1.349 . S
C3167 C3169 1.327 . S
C3167 H3190 0.950 . S
C3168 C3167 1.349 . S
C3168 C3180 1.349 . S
C3169 C3167 1.327 . S
C3169 C3185 1.429 . S
C3169 H3191 0.950 . S
C3170 H3166 0.949 . S
C3170 C3178 1.574 . S
C3170 C3186 1.368 . S
H3171 C3179 0.950 . S
H3172 C3177 0.950 . S
H3173 C3178 0.949 . S
H3174 C3180 0.950 . S
H3175 C3181 0.950 . S
H3176 C3182 0.949 . S
C3177 H3172 0.950 . S
C3177 C3179 1.327 . S
C3177 C3183 1.429 . S
C3178 C3170 1.574 . S
C3178 H3173 0.949 . S
C3178 C3184 1.368 . S
C3179 C3163 1.349 . S
C3179 H3171 0.950 . S
C3179 C3177 1.327 . S
C3180 C3168 1.349 . S
C3180 H3174 0.950 . S
C3180 C3181 1.327 . S
C3181 H3175 0.950 . S
C3181 C3180 1.327 . S
C3181 C3185 1.429 . S
C3182 C3165 1.574 . S
C3182 H3176 0.949 . S
C3182 C3186 1.368 . S
C3183 C3164 1.429 . S
C3183 C3177 1.429 . S
C3183 C3184 1.523 . S
C3184 C3165 1.368 . S
C3184 C3178 1.368 . S
C3184 C3183 1.523 . S
C3185 C3169 1.429 . S
C3185 C3181 1.429 . S
C3185 C3186 1.523 . S
C3186 C3170 1.368 . S
C3186 C3182 1.368 . S
C3186 C3185 1.523 . S
H3187 C3162 0.950 . S
H3188 C3164 0.950 . S
H3189 C3165 0.949 . S
H3190 C3167 0.950 . S
H3191 C3169 0.950 . S
C3192 C3193 1.349 . S
C3192 C3194 1.327 . S
C3192 H3217 0.950 . S
C3193 C3192 1.349 . S
C3193 C3209 1.349 . S
C3194 C3192 1.327 . S
C3194 C3213 1.429 . S
C3194 H3218 0.950 . S
C3195 C3212 1.574 . S
C3195 C3214 1.368 . S
C3195 H3219 0.949 . S
H3196 C3200 0.949 . S
C3197 C3198 1.349 . S
C3197 C3199 1.327 . S
C3197 H3220 0.950 . S
C3198 C3197 1.349 . S
C3198 C3210 1.349 . S
C3199 C3197 1.327 . S
C3199 C3215 1.429 . S
C3199 H3221 0.950 . S
C3200 H3196 0.949 . S
C3200 C3208 1.574 . S
C3200 C3216 1.368 . S
H3201 C3209 0.950 . S
H3202 C3207 0.950 . S
H3203 C3208 0.949 . S
H3204 C3210 0.950 . S
H3205 C3211 0.950 . S
H3206 C3212 0.949 . S
C3207 H3202 0.950 . S
C3207 C3209 1.327 . S
C3207 C3213 1.429 . S
C3208 C3200 1.574 . S
C3208 H3203 0.949 . S
C3208 C3214 1.368 . S
C3209 C3193 1.349 . S
C3209 H3201 0.950 . S
C3209 C3207 1.327 . S
C3210 C3198 1.349 . S
C3210 H3204 0.950 . S
C3210 C3211 1.327 . S
C3211 H3205 0.950 . S
C3211 C3210 1.327 . S
C3211 C3215 1.429 . S
C3212 C3195 1.574 . S
C3212 H3206 0.949 . S
C3212 C3216 1.368 . S
C3213 C3194 1.429 . S
C3213 C3207 1.429 . S
C3213 C3214 1.523 . S
C3214 C3195 1.368 . S
C3214 C3208 1.368 . S
C3214 C3213 1.523 . S
C3215 C3199 1.429 . S
C3215 C3211 1.429 . S
C3215 C3216 1.523 . S
C3216 C3200 1.368 . S
C3216 C3212 1.368 . S
C3216 C3215 1.523 . S
H3217 C3192 0.950 . S
H3218 C3194 0.950 . S
H3219 C3195 0.949 . S
H3220 C3197 0.950 . S
H3221 C3199 0.950 . S
C3222 C3223 1.349 . S
C3222 C3224 1.327 . S
C3222 H3247 0.950 . S
C3223 C3222 1.349 . S
C3223 C3239 1.349 . S
C3224 C3222 1.327 . S
C3224 C3243 1.429 . S
C3224 H3248 0.950 . S
C3225 C3242 1.574 . S
C3225 C3244 1.368 . S
C3225 H3249 0.949 . S
H3226 C3230 0.949 . S
C3227 C3228 1.349 . S
C3227 C3229 1.327 . S
C3227 H3250 0.950 . S
C3228 C3227 1.349 . S
C3228 C3240 1.349 . S
C3229 C3227 1.327 . S
C3229 C3245 1.429 . S
C3229 H3251 0.950 . S
C3230 H3226 0.949 . S
C3230 C3238 1.574 . S
C3230 C3246 1.368 . S
H3231 C3239 0.950 . S
H3232 C3237 0.950 . S
H3233 C3238 0.949 . S
H3234 C3240 0.950 . S
H3235 C3241 0.950 . S
H3236 C3242 0.949 . S
C3237 H3232 0.950 . S
C3237 C3239 1.327 . S
C3237 C3243 1.429 . S
C3238 C3230 1.574 . S
C3238 H3233 0.949 . S
C3238 C3244 1.368 . S
C3239 C3223 1.349 . S
C3239 H3231 0.950 . S
C3239 C3237 1.327 . S
C3240 C3228 1.349 . S
C3240 H3234 0.950 . S
C3240 C3241 1.327 . S
C3241 H3235 0.950 . S
C3241 C3240 1.327 . S
C3241 C3245 1.429 . S
C3242 C3225 1.574 . S
C3242 H3236 0.949 . S
C3242 C3246 1.368 . S
C3243 C3224 1.429 . S
C3243 C3237 1.429 . S
C3243 C3244 1.523 . S
C3244 C3225 1.368 . S
C3244 C3238 1.368 . S
C3244 C3243 1.523 . S
C3245 C3229 1.429 . S
C3245 C3241 1.429 . S
C3245 C3246 1.523 . S
C3246 C3230 1.368 . S
C3246 C3242 1.368 . S
C3246 C3245 1.523 . S
H3247 C3222 0.950 . S
H3248 C3224 0.950 . S
H3249 C3225 0.949 . S
H3250 C3227 0.950 . S
H3251 C3229 0.950 . S
C3252 C3253 1.349 . S
C3252 C3254 1.327 . S
C3252 H3277 0.950 . S
C3253 C3252 1.349 . S
C3253 C3269 1.349 . S
C3254 C3252 1.327 . S
C3254 C3273 1.429 . S
C3254 H3278 0.950 . S
C3255 C3272 1.574 . S
C3255 C3274 1.368 . S
C3255 H3279 0.949 . S
H3256 C3260 0.949 . S
C3257 C3258 1.349 . S
C3257 C3259 1.327 . S
C3257 H3280 0.950 . S
C3258 C3257 1.349 . S
C3258 C3270 1.349 . S
C3259 C3257 1.327 . S
C3259 C3275 1.429 . S
C3259 H3281 0.950 . S
C3260 H3256 0.949 . S
C3260 C3268 1.574 . S
C3260 C3276 1.368 . S
H3261 C3269 0.950 . S
H3262 C3267 0.950 . S
H3263 C3268 0.949 . S
H3264 C3270 0.950 . S
H3265 C3271 0.950 . S
H3266 C3272 0.949 . S
C3267 H3262 0.950 . S
C3267 C3269 1.327 . S
C3267 C3273 1.429 . S
C3268 C3260 1.574 . S
C3268 H3263 0.949 . S
C3268 C3274 1.368 . S
C3269 C3253 1.349 . S
C3269 H3261 0.950 . S
C3269 C3267 1.327 . S
C3270 C3258 1.349 . S
C3270 H3264 0.950 . S
C3270 C3271 1.327 . S
C3271 H3265 0.950 . S
C3271 C3270 1.327 . S
C3271 C3275 1.429 . S
C3272 C3255 1.574 . S
C3272 H3266 0.949 . S
C3272 C3276 1.368 . S
C3273 C3254 1.429 . S
C3273 C3267 1.429 . S
C3273 C3274 1.523 . S
C3274 C3255 1.368 . S
C3274 C3268 1.368 . S
C3274 C3273 1.523 . S
C3275 C3259 1.429 . S
C3275 C3271 1.429 . S
C3275 C3276 1.523 . S
C3276 C3260 1.368 . S
C3276 C3272 1.368 . S
C3276 C3275 1.523 . S
H3277 C3252 0.950 . S
H3278 C3254 0.950 . S
H3279 C3255 0.949 . S
H3280 C3257 0.950 . S
H3281 C3259 0.950 . S
C3282 C3283 1.349 . S
C3282 C3284 1.327 . S
C3282 H3307 0.950 . S
C3283 C3282 1.349 . S
C3283 C3299 1.349 . S
C3284 C3282 1.327 . S
C3284 C3303 1.429 . S
C3284 H3308 0.950 . S
C3285 C3302 1.574 . S
C3285 C3304 1.368 . S
C3285 H3309 0.949 . S
H3286 C3290 0.949 . S
C3287 C3288 1.349 . S
C3287 C3289 1.327 . S
C3287 H3310 0.950 . S
C3288 C3287 1.349 . S
C3288 C3300 1.349 . S
C3289 C3287 1.327 . S
C3289 C3305 1.429 . S
C3289 H3311 0.950 . S
C3290 H3286 0.949 . S
C3290 C3298 1.574 . S
C3290 C3306 1.368 . S
H3291 C3299 0.950 . S
H3292 C3297 0.950 . S
H3293 C3298 0.949 . S
H3294 C3300 0.950 . S
H3295 C3301 0.950 . S
H3296 C3302 0.949 . S
C3297 H3292 0.950 . S
C3297 C3299 1.327 . S
C3297 C3303 1.429 . S
C3298 C3290 1.574 . S
C3298 H3293 0.949 . S
C3298 C3304 1.368 . S
C3299 C3283 1.349 . S
C3299 H3291 0.950 . S
C3299 C3297 1.327 . S
C3300 C3288 1.349 . S
C3300 H3294 0.950 . S
C3300 C3301 1.327 . S
C3301 H3295 0.950 . S
C3301 C3300 1.327 . S
C3301 C3305 1.429 . S
C3302 C3285 1.574 . S
C3302 H3296 0.949 . S
C3302 C3306 1.368 . S
C3303 C3284 1.429 . S
C3303 C3297 1.429 . S
C3303 C3304 1.523 . S
C3304 C3285 1.368 . S
C3304 C3298 1.368 . S
C3304 C3303 1.523 . S
C3305 C3289 1.429 . S
C3305 C3301 1.429 . S
C3305 C3306 1.523 . S
C3306 C3290 1.368 . S
C3306 C3302 1.368 . S
C3306 C3305 1.523 . S
H3307 C3282 0.950 . S
H3308 C3284 0.950 . S
H3309 C3285 0.949 . S
H3310 C3287 0.950 . S
H3311 C3289 0.950 . S
C3312 C3313 1.349 . S
C3312 C3314 1.327 . S
C3312 H3337 0.950 . S
C3313 C3312 1.349 . S
C3313 C3329 1.349 . S
C3314 C3312 1.327 . S
C3314 C3333 1.429 . S
C3314 H3338 0.950 . S
C3315 C3332 1.574 . S
C3315 C3334 1.368 . S
C3315 H3339 0.949 . S
H3316 C3320 0.949 . S
C3317 C3318 1.349 . S
C3317 C3319 1.327 . S
C3317 H3340 0.950 . S
C3318 C3317 1.349 . S
C3318 C3330 1.349 . S
C3319 C3317 1.327 . S
C3319 C3335 1.429 . S
C3319 H3341 0.950 . S
C3320 H3316 0.949 . S
C3320 C3328 1.574 . S
C3320 C3336 1.368 . S
H3321 C3329 0.950 . S
H3322 C3327 0.950 . S
H3323 C3328 0.949 . S
H3324 C3330 0.950 . S
H3325 C3331 0.950 . S
H3326 C3332 0.949 . S
C3327 H3322 0.950 . S
C3327 C3329 1.327 . S
C3327 C3333 1.429 . S
C3328 C3320 1.574 . S
C3328 H3323 0.949 . S
C3328 C3334 1.368 . S
C3329 C3313 1.349 . S
C3329 H3321 0.950 . S
C3329 C3327 1.327 . S
C3330 C3318 1.349 . S
C3330 H3324 0.950 . S
C3330 C3331 1.327 . S
C3331 H3325 0.950 . S
C3331 C3330 1.327 . S
C3331 C3335 1.429 . S
C3332 C3315 1.574 . S
C3332 H3326 0.949 . S
C3332 C3336 1.368 . S
C3333 C3314 1.429 . S
C3333 C3327 1.429 . S
C3333 C3334 1.523 . S
C3334 C3315 1.368 . S
C3334 C3328 1.368 . S
C3334 C3333 1.523 . S
C3335 C3319 1.429 . S
C3335 C3331 1.429 . S
C3335 C3336 1.523 . S
C3336 C3320 1.368 . S
C3336 C3332 1.368 . S
C3336 C3335 1.523 . S
H3337 C3312 0.950 . S
H3338 C3314 0.950 . S
H3339 C3315 0.949 . S
H3340 C3317 0.950 . S
H3341 C3319 0.950 . S
C3342 C3343 1.349 . S
C3342 C3344 1.327 . S
C3342 H3367 0.950 . S
C3343 C3342 1.349 . S
C3343 C3359 1.349 . S
C3344 C3342 1.327 . S
C3344 C3363 1.429 . S
C3344 H3368 0.950 . S
C3345 C3362 1.574 . S
C3345 C3364 1.368 . S
C3345 H3369 0.949 . S
H3346 C3350 0.949 . S
C3347 C3348 1.349 . S
C3347 C3349 1.327 . S
C3347 H3370 0.950 . S
C3348 C3347 1.349 . S
C3348 C3360 1.349 . S
C3349 C3347 1.327 . S
C3349 C3365 1.429 . S
C3349 H3371 0.950 . S
C3350 H3346 0.949 . S
C3350 C3358 1.574 . S
C3350 C3366 1.368 . S
H3351 C3359 0.950 . S
H3352 C3357 0.950 . S
H3353 C3358 0.949 . S
H3354 C3360 0.950 . S
H3355 C3361 0.950 . S
H3356 C3362 0.949 . S
C3357 H3352 0.950 . S
C3357 C3359 1.327 . S
C3357 C3363 1.429 . S
C3358 C3350 1.574 . S
C3358 H3353 0.949 . S
C3358 C3364 1.368 . S
C3359 C3343 1.349 . S
C3359 H3351 0.950 . S
C3359 C3357 1.327 . S
C3360 C3348 1.349 . S
C3360 H3354 0.950 . S
C3360 C3361 1.327 . S
C3361 H3355 0.950 . S
C3361 C3360 1.327 . S
C3361 C3365 1.429 . S
C3362 C3345 1.574 . S
C3362 H3356 0.949 . S
C3362 C3366 1.368 . S
C3363 C3344 1.429 . S
C3363 C3357 1.429 . S
C3363 C3364 1.523 . S
C3364 C3345 1.368 . S
C3364 C3358 1.368 . S
C3364 C3363 1.523 . S
C3365 C3349 1.429 . S
C3365 C3361 1.429 . S
C3365 C3366 1.523 . S
C3366 C3350 1.368 . S
C3366 C3362 1.368 . S
C3366 C3365 1.523 . S
H3367 C3342 0.950 . S
H3368 C3344 0.950 . S
H3369 C3345 0.949 . S
H3370 C3347 0.950 . S
H3371 C3349 0.950 . S
C3372 C3373 1.349 . S
C3372 C3374 1.327 . S
C3372 H3397 0.950 . S
C3373 C3372 1.349 . S
C3373 C3389 1.349 . S
C3374 C3372 1.327 . S
C3374 C3393 1.429 . S
C3374 H3398 0.950 . S
C3375 C3392 1.574 . S
C3375 C3394 1.368 . S
C3375 H3399 0.949 . S
H3376 C3380 0.949 . S
C3377 C3378 1.349 . S
C3377 C3379 1.327 . S
C3377 H3400 0.950 . S
C3378 C3377 1.349 . S
C3378 C3390 1.349 . S
C3379 C3377 1.327 . S
C3379 C3395 1.429 . S
C3379 H3401 0.950 . S
C3380 H3376 0.949 . S
C3380 C3388 1.574 . S
C3380 C3396 1.368 . S
H3381 C3389 0.950 . S
H3382 C3387 0.950 . S
H3383 C3388 0.949 . S
H3384 C3390 0.950 . S
H3385 C3391 0.950 . S
H3386 C3392 0.949 . S
C3387 H3382 0.950 . S
C3387 C3389 1.327 . S
C3387 C3393 1.429 . S
C3388 C3380 1.574 . S
C3388 H3383 0.949 . S
C3388 C3394 1.368 . S
C3389 C3373 1.349 . S
C3389 H3381 0.950 . S
C3389 C3387 1.327 . S
C3390 C3378 1.349 . S
C3390 H3384 0.950 . S
C3390 C3391 1.327 . S
C3391 H3385 0.950 . S
C3391 C3390 1.327 . S
C3391 C3395 1.429 . S
C3392 C3375 1.574 . S
C3392 H3386 0.949 . S
C3392 C3396 1.368 . S
C3393 C3374 1.429 . S
C3393 C3387 1.429 . S
C3393 C3394 1.523 . S
C3394 C3375 1.368 . S
C3394 C3388 1.368 . S
C3394 C3393 1.523 . S
C3395 C3379 1.429 . S
C3395 C3391 1.429 . S
C3395 C3396 1.523 . S
C3396 C3380 1.368 . S
C3396 C3392 1.368 . S
C3396 C3395 1.523 . S
H3397 C3372 0.950 . S
H3398 C3374 0.950 . S
H3399 C3375 0.949 . S
H3400 C3377 0.950 . S
H3401 C3379 0.950 . S
C3402 C3403 1.349 . S
C3402 C3404 1.327 . S
C3402 H3427 0.950 . S
C3403 C3402 1.349 . S
C3403 C3419 1.349 . S
C3404 C3402 1.327 . S
C3404 C3423 1.429 . S
C3404 H3428 0.950 . S
C3405 C3422 1.574 . S
C3405 C3424 1.368 . S
C3405 H3429 0.949 . S
H3406 C3410 0.949 . S
C3407 C3408 1.349 . S
C3407 C3409 1.327 . S
C3407 H3430 0.950 . S
C3408 C3407 1.349 . S
C3408 C3420 1.349 . S
C3409 C3407 1.327 . S
C3409 C3425 1.429 . S
C3409 H3431 0.950 . S
C3410 H3406 0.949 . S
C3410 C3418 1.574 . S
C3410 C3426 1.368 . S
H3411 C3419 0.950 . S
H3412 C3417 0.950 . S
H3413 C3418 0.949 . S
H3414 C3420 0.950 . S
H3415 C3421 0.950 . S
H3416 C3422 0.949 . S
C3417 H3412 0.950 . S
C3417 C3419 1.327 . S
C3417 C3423 1.429 . S
C3418 C3410 1.574 . S
C3418 H3413 0.949 . S
C3418 C3424 1.368 . S
C3419 C3403 1.349 . S
C3419 H3411 0.950 . S
C3419 C3417 1.327 . S
C3420 C3408 1.349 . S
C3420 H3414 0.950 . S
C3420 C3421 1.327 . S
C3421 H3415 0.950 . S
C3421 C3420 1.327 . S
C3421 C3425 1.429 . S
C3422 C3405 1.574 . S
C3422 H3416 0.949 . S
C3422 C3426 1.368 . S
C3423 C3404 1.429 . S
C3423 C3417 1.429 . S
C3423 C3424 1.523 . S
C3424 C3405 1.368 . S
C3424 C3418 1.368 . S
C3424 C3423 1.523 . S
C3425 C3409 1.429 . S
C3425 C3421 1.429 . S
C3425 C3426 1.523 . S
C3426 C3410 1.368 . S
C3426 C3422 1.368 . S
C3426 C3425 1.523 . S
H3427 C3402 0.950 . S
H3428 C3404 0.950 . S
H3429 C3405 0.949 . S
H3430 C3407 0.950 . S
H3431 C3409 0.950 . S
C3432 C3433 1.349 . S
C3432 C3434 1.327 . S
C3432 H3457 0.950 . S
C3433 C3432 1.349 . S
C3433 C3449 1.349 . S
C3434 C3432 1.327 . S
C3434 C3453 1.429 . S
C3434 H3458 0.950 . S
C3435 C3452 1.574 . S
C3435 C3454 1.368 . S
C3435 H3459 0.949 . S
H3436 C3440 0.949 . S
C3437 C3438 1.349 . S
C3437 C3439 1.327 . S
C3437 H3460 0.950 . S
C3438 C3437 1.349 . S
C3438 C3450 1.349 . S
C3439 C3437 1.327 . S
C3439 C3455 1.429 . S
C3439 H3461 0.950 . S
C3440 H3436 0.949 . S
C3440 C3448 1.574 . S
C3440 C3456 1.368 . S
H3441 C3449 0.950 . S
H3442 C3447 0.950 . S
H3443 C3448 0.949 . S
H3444 C3450 0.950 . S
H3445 C3451 0.950 . S
H3446 C3452 0.949 . S
C3447 H3442 0.950 . S
C3447 C3449 1.327 . S
C3447 C3453 1.429 . S
C3448 C3440 1.574 . S
C3448 H3443 0.949 . S
C3448 C3454 1.368 . S
C3449 C3433 1.349 . S
C3449 H3441 0.950 . S
C3449 C3447 1.327 . S
C3450 C3438 1.349 . S
C3450 H3444 0.950 . S
C3450 C3451 1.327 . S
C3451 H3445 0.950 . S
C3451 C3450 1.327 . S
C3451 C3455 1.429 . S
C3452 C3435 1.574 . S
C3452 H3446 0.949 . S
C3452 C3456 1.368 . S
C3453 C3434 1.429 . S
C3453 C3447 1.429 . S
C3453 C3454 1.523 . S
C3454 C3435 1.368 . S
C3454 C3448 1.368 . S
C3454 C3453 1.523 . S
C3455 C3439 1.429 . S
C3455 C3451 1.429 . S
C3455 C3456 1.523 . S
C3456 C3440 1.368 . S
C3456 C3452 1.368 . S
C3456 C3455 1.523 . S
H3457 C3432 0.950 . S
H3458 C3434 0.950 . S
H3459 C3435 0.949 . S
H3460 C3437 0.950 . S
H3461 C3439 0.950 . S
C3462 C3463 1.349 . S
C3462 C3464 1.327 . S
C3462 H3487 0.950 . S
C3463 C3462 1.349 . S
C3463 C3479 1.349 . S
C3464 C3462 1.327 . S
C3464 C3483 1.429 . S
C3464 H3488 0.950 . S
C3465 C3482 1.574 . S
C3465 C3484 1.368 . S
C3465 H3489 0.949 . S
H3466 C3470 0.949 . S
C3467 C3468 1.349 . S
C3467 C3469 1.327 . S
C3467 H3490 0.950 . S
C3468 C3467 1.349 . S
C3468 C3480 1.349 . S
C3469 C3467 1.327 . S
C3469 C3485 1.429 . S
C3469 H3491 0.950 . S
C3470 H3466 0.949 . S
C3470 C3478 1.574 . S
C3470 C3486 1.368 . S
H3471 C3479 0.950 . S
H3472 C3477 0.950 . S
H3473 C3478 0.949 . S
H3474 C3480 0.950 . S
H3475 C3481 0.950 . S
H3476 C3482 0.949 . S
C3477 H3472 0.950 . S
C3477 C3479 1.327 . S
C3477 C3483 1.429 . S
C3478 C3470 1.574 . S
C3478 H3473 0.949 . S
C3478 C3484 1.368 . S
C3479 C3463 1.349 . S
C3479 H3471 0.950 . S
C3479 C3477 1.327 . S
C3480 C3468 1.349 . S
C3480 H3474 0.950 . S
C3480 C3481 1.327 . S
C3481 H3475 0.950 . S
C3481 C3480 1.327 . S
C3481 C3485 1.429 . S
C3482 C3465 1.574 . S
C3482 H3476 0.949 . S
C3482 C3486 1.368 . S
C3483 C3464 1.429 . S
C3483 C3477 1.429 . S
C3483 C3484 1.523 . S
C3484 C3465 1.368 . S
C3484 C3478 1.368 . S
C3484 C3483 1.523 . S
C3485 C3469 1.429 . S
C3485 C3481 1.429 . S
C3485 C3486 1.523 . S
C3486 C3470 1.368 . S
C3486 C3482 1.368 . S
C3486 C3485 1.523 . S
H3487 C3462 0.950 . S
H3488 C3464 0.950 . S
H3489 C3465 0.949 . S
H3490 C3467 0.950 . S
H3491 C3469 0.950 . S
C3492 C3493 1.349 . S
C3492 C3494 1.327 . S
C3492 H3517 0.950 . S
C3493 C3492 1.349 . S
C3493 C3509 1.349 . S
C3494 C3492 1.327 . S
C3494 C3513 1.429 . S
C3494 H3518 0.950 . S
C3495 C3512 1.574 . S
C3495 C3514 1.368 . S
C3495 H3519 0.949 . S
H3496 C3500 0.949 . S
C3497 C3498 1.349 . S
C3497 C3499 1.327 . S
C3497 H3520 0.950 . S
C3498 C3497 1.349 . S
C3498 C3510 1.349 . S
C3499 C3497 1.327 . S
C3499 C3515 1.429 . S
C3499 H3521 0.950 . S
C3500 H3496 0.949 . S
C3500 C3508 1.574 . S
C3500 C3516 1.368 . S
H3501 C3509 0.950 . S
H3502 C3507 0.950 . S
H3503 C3508 0.949 . S
H3504 C3510 0.950 . S
H3505 C3511 0.950 . S
H3506 C3512 0.949 . S
C3507 H3502 0.950 . S
C3507 C3509 1.327 . S
C3507 C3513 1.429 . S
C3508 C3500 1.574 . S
C3508 H3503 0.949 . S
C3508 C3514 1.368 . S
C3509 C3493 1.349 . S
C3509 H3501 0.950 . S
C3509 C3507 1.327 . S
C3510 C3498 1.349 . S
C3510 H3504 0.950 . S
C3510 C3511 1.327 . S
C3511 H3505 0.950 . S
C3511 C3510 1.327 . S
C3511 C3515 1.429 . S
C3512 C3495 1.574 . S
C3512 H3506 0.949 . S
C3512 C3516 1.368 . S
C3513 C3494 1.429 . S
C3513 C3507 1.429 . S
C3513 C3514 1.523 . S
C3514 C3495 1.368 . S
C3514 C3508 1.368 . S
C3514 C3513 1.523 . S
C3515 C3499 1.429 . S
C3515 C3511 1.429 . S
C3515 C3516 1.523 . S
C3516 C3500 1.368 . S
C3516 C3512 1.368 . S
C3516 C3515 1.523 . S
H3517 C3492 0.950 . S
H3518 C3494 0.950 . S
H3519 C3495 0.949 . S
H3520 C3497 0.950 . S
H3521 C3499 0.950 . S
C3522 C3523 1.349 . S
C3522 C3524 1.327 . S
C3522 H3547 0.950 . S
C3523 C3522 1.349 . S
C3523 C3539 1.349 . S
C3524 C3522 1.327 . S
C3524 C3543 1.429 . S
C3524 H3548 0.950 . S
C3525 C3542 1.574 . S
C3525 C3544 1.368 . S
C3525 H3549 0.949 . S
H3526 C3530 0.949 . S
C3527 C3528 1.349 . S
C3527 C3529 1.327 . S
C3527 H3550 0.950 . S
C3528 C3527 1.349 . S
C3528 C3540 1.349 . S
C3529 C3527 1.327 . S
C3529 C3545 1.429 . S
C3529 H3551 0.950 . S
C3530 H3526 0.949 . S
C3530 C3538 1.574 . S
C3530 C3546 1.368 . S
H3531 C3539 0.950 . S
H3532 C3537 0.950 . S
H3533 C3538 0.949 . S
H3534 C3540 0.950 . S
H3535 C3541 0.950 . S
H3536 C3542 0.949 . S
C3537 H3532 0.950 . S
C3537 C3539 1.327 . S
C3537 C3543 1.429 . S
C3538 C3530 1.574 . S
C3538 H3533 0.949 . S
C3538 C3544 1.368 . S
C3539 C3523 1.349 . S
C3539 H3531 0.950 . S
C3539 C3537 1.327 . S
C3540 C3528 1.349 . S
C3540 H3534 0.950 . S
C3540 C3541 1.327 . S
C3541 H3535 0.950 . S
C3541 C3540 1.327 . S
C3541 C3545 1.429 . S
C3542 C3525 1.574 . S
C3542 H3536 0.949 . S
C3542 C3546 1.368 . S
C3543 C3524 1.429 . S
C3543 C3537 1.429 . S
C3543 C3544 1.523 . S
C3544 C3525 1.368 . S
C3544 C3538 1.368 . S
C3544 C3543 1.523 . S
C3545 C3529 1.429 . S
C3545 C3541 1.429 . S
C3545 C3546 1.523 . S
C3546 C3530 1.368 . S
C3546 C3542 1.368 . S
C3546 C3545 1.523 . S
H3547 C3522 0.950 . S
H3548 C3524 0.950 . S
H3549 C3525 0.949 . S
H3550 C3527 0.950 . S
H3551 C3529 0.950 . S
C3552 C3553 1.349 . S
C3552 C3554 1.327 . S
C3552 H3577 0.950 . S
C3553 C3552 1.349 . S
C3553 C3569 1.349 . S
C3554 C3552 1.327 . S
C3554 C3573 1.429 . S
C3554 H3578 0.950 . S
C3555 C3572 1.574 . S
C3555 C3574 1.368 . S
C3555 H3579 0.949 . S
H3556 C3560 0.949 . S
C3557 C3558 1.349 . S
C3557 C3559 1.327 . S
C3557 H3580 0.950 . S
C3558 C3557 1.349 . S
C3558 C3570 1.349 . S
C3559 C3557 1.327 . S
C3559 C3575 1.429 . S
C3559 H3581 0.950 . S
C3560 H3556 0.949 . S
C3560 C3568 1.574 . S
C3560 C3576 1.368 . S
H3561 C3569 0.950 . S
H3562 C3567 0.950 . S
H3563 C3568 0.949 . S
H3564 C3570 0.950 . S
H3565 C3571 0.950 . S
H3566 C3572 0.949 . S
C3567 H3562 0.950 . S
C3567 C3569 1.327 . S
C3567 C3573 1.429 . S
C3568 C3560 1.574 . S
C3568 H3563 0.949 . S
C3568 C3574 1.368 . S
C3569 C3553 1.349 . S
C3569 H3561 0.950 . S
C3569 C3567 1.327 . S
C3570 C3558 1.349 . S
C3570 H3564 0.950 . S
C3570 C3571 1.327 . S
C3571 H3565 0.950 . S
C3571 C3570 1.327 . S
C3571 C3575 1.429 . S
C3572 C3555 1.574 . S
C3572 H3566 0.949 . S
C3572 C3576 1.368 . S
C3573 C3554 1.429 . S
C3573 C3567 1.429 . S
C3573 C3574 1.523 . S
C3574 C3555 1.368 . S
C3574 C3568 1.368 . S
C3574 C3573 1.523 . S
C3575 C3559 1.429 . S
C3575 C3571 1.429 . S
C3575 C3576 1.523 . S
C3576 C3560 1.368 . S
C3576 C3572 1.368 . S
C3576 C3575 1.523 . S
H3577 C3552 0.950 . S
H3578 C3554 0.950 . S
H3579 C3555 0.949 . S
H3580 C3557 0.950 . S
H3581 C3559 0.950 . S
C3582 C3583 1.349 . S
C3582 C3584 1.327 . S
C3582 H3607 0.950 . S
C3583 C3582 1.349 . S
C3583 C3599 1.349 . S
C3584 C3582 1.327 . S
C3584 C3603 1.429 . S
C3584 H3608 0.950 . S
C3585 C3602 1.574 . S
C3585 C3604 1.368 . S
C3585 H3609 0.949 . S
H3586 C3590 0.949 . S
C3587 C3588 1.349 . S
C3587 C3589 1.327 . S
C3587 H3610 0.950 . S
C3588 C3587 1.349 . S
C3588 C3600 1.349 . S
C3589 C3587 1.327 . S
C3589 C3605 1.429 . S
C3589 H3611 0.950 . S
C3590 H3586 0.949 . S
C3590 C3598 1.574 . S
C3590 C3606 1.368 . S
H3591 C3599 0.950 . S
H3592 C3597 0.950 . S
H3593 C3598 0.949 . S
H3594 C3600 0.950 . S
H3595 C3601 0.950 . S
H3596 C3602 0.949 . S
C3597 H3592 0.950 . S
C3597 C3599 1.327 . S
C3597 C3603 1.429 . S
C3598 C3590 1.574 . S
C3598 H3593 0.949 . S
C3598 C3604 1.368 . S
C3599 C3583 1.349 . S
C3599 H3591 0.950 . S
C3599 C3597 1.327 . S
C3600 C3588 1.349 . S
C3600 H3594 0.950 . S
C3600 C3601 1.327 . S
C3601 H3595 0.950 . S
C3601 C3600 1.327 . S
C3601 C3605 1.429 . S
C3602 C3585 1.574 . S
C3602 H3596 0.949 . S
C3602 C3606 1.368 . S
C3603 C3584 1.429 . S
C3603 C3597 1.429 . S
C3603 C3604 1.523 . S
C3604 C3585 1.368 . S
C3604 C3598 1.368 . S
C3604 C3603 1.523 . S
C3605 C3589 1.429 . S
C3605 C3601 1.429 . S
C3605 C3606 1.523 . S
C3606 C3590 1.368 . S
C3606 C3602 1.368 . S
C3606 C3605 1.523 . S
H3607 C3582 0.950 . S
H3608 C3584 0.950 . S
H3609 C3585 0.949 . S
H3610 C3587 0.950 . S
H3611 C3589 0.950 . S
C3612 C3613 1.349 . S
C3612 C3614 1.327 . S
C3612 H3637 0.950 . S
C3613 C3612 1.349 . S
C3613 C3629 1.349 . S
C3614 C3612 1.327 . S
C3614 C3633 1.429 . S
C3614 H3638 0.950 . S
C3615 C3632 1.574 . S
C3615 C3634 1.368 . S
C3615 H3639 0.949 . S
H3616 C3620 0.949 . S
C3617 C3618 1.349 . S
C3617 C3619 1.327 . S
C3617 H3640 0.950 . S
C3618 C3617 1.349 . S
C3618 C3630 1.349 . S
C3619 C3617 1.327 . S
C3619 C3635 1.429 . S
C3619 H3641 0.950 . S
C3620 H3616 0.949 . S
C3620 C3628 1.574 . S
C3620 C3636 1.368 . S
H3621 C3629 0.994 . S
H3622 C3627 0.950 . S
H3623 C3628 0.949 . S
H3624 C3630 0.950 . S
H3625 C3631 0.950 . S
H3626 C3632 0.949 . S
C3627 H3622 0.950 . S
C3627 C3629 1.327 . S
C3627 C3633 1.429 . S
C3628 C3620 1.574 . S
C3628 H3623 0.949 . S
C3628 C3634 1.368 . S
C3629 C3613 1.349 . S
C3629 H3621 0.994 . S
C3629 C3627 1.327 . S
C3630 C3618 1.349 . S
C3630 H3624 0.950 . S
C3630 C3631 1.327 . S
C3631 H3625 0.950 . S
C3631 C3630 1.327 . S
C3631 C3635 1.429 . S
C3632 C3615 1.574 . S
C3632 H3626 0.949 . S
C3632 C3636 1.368 . S
C3633 C3614 1.429 . S
C3633 C3627 1.429 . S
C3633 C3634 1.523 . S
C3634 C3615 1.368 . S
C3634 C3628 1.368 . S
C3634 C3633 1.523 . S
C3635 C3619 1.429 . S
C3635 C3631 1.429 . S
C3635 C3636 1.523 . S
C3636 C3620 1.368 . S
C3636 C3632 1.368 . S
C3636 C3635 1.523 . S
H3637 C3612 0.950 . S
H3638 C3614 0.950 . S
H3639 C3615 0.949 . S
H3640 C3617 0.950 . S
H3641 C3619 0.950 . S
C3642 C3643 1.349 . S
C3642 C3644 1.327 . S
C3642 H3667 0.950 . S
C3643 C3642 1.349 . S
C3643 C3659 1.349 . S
C3644 C3642 1.327 . S
C3644 C3663 1.429 . S
C3644 H3668 0.950 . S
C3645 C3662 1.574 . S
C3645 C3664 1.368 . S
C3645 H3669 0.949 . S
H3646 C3650 0.949 . S
C3647 C3648 1.349 . S
C3647 C3649 1.327 . S
C3647 H3670 0.950 . S
C3648 C3647 1.349 . S
C3648 C3660 1.349 . S
C3649 C3647 1.327 . S
C3649 C3665 1.429 . S
C3649 H3671 0.950 . S
C3650 H3646 0.949 . S
C3650 C3658 1.574 . S
C3650 C3666 1.368 . S
H3651 C3659 0.950 . S
H3652 C3657 0.950 . S
H3653 C3658 0.949 . S
H3654 C3660 0.950 . S
H3655 C3661 0.950 . S
H3656 C3662 0.949 . S
C3657 H3652 0.950 . S
C3657 C3659 1.327 . S
C3657 C3663 1.429 . S
C3658 C3650 1.574 . S
C3658 H3653 0.949 . S
C3658 C3664 1.368 . S
C3659 C3643 1.349 . S
C3659 H3651 0.950 . S
C3659 C3657 1.327 . S
C3660 C3648 1.349 . S
C3660 H3654 0.950 . S
C3660 C3661 1.327 . S
C3661 H3655 0.950 . S
C3661 C3660 1.327 . S
C3661 C3665 1.429 . S
C3662 C3645 1.574 . S
C3662 H3656 0.949 . S
C3662 C3666 1.368 . S
C3663 C3644 1.429 . S
C3663 C3657 1.429 . S
C3663 C3664 1.523 . S
C3664 C3645 1.368 . S
C3664 C3658 1.368 . S
C3664 C3663 1.523 . S
C3665 C3649 1.429 . S
C3665 C3661 1.429 . S
C3665 C3666 1.523 . S
C3666 C3650 1.368 . S
C3666 C3662 1.368 . S
C3666 C3665 1.523 . S
H3667 C3642 0.950 . S
H3668 C3644 0.950 . S
H3669 C3645 0.949 . S
H3670 C3647 0.950 . S
H3671 C3649 0.950 . S
C3672 C3673 1.349 . S
C3672 C3674 1.327 . S
C3672 H3697 0.950 . S
C3673 C3672 1.349 . S
C3673 C3689 1.349 . S
C3674 C3672 1.327 . S
C3674 C3693 1.429 . S
C3674 H3698 0.950 . S
C3675 C3692 1.574 . S
C3675 C3694 1.368 . S
C3675 H3699 0.949 . S
H3676 C3680 0.949 . S
C3677 C3678 1.349 . S
C3677 C3679 1.327 . S
C3677 H3700 0.950 . S
C3678 C3677 1.349 . S
C3678 C3690 1.349 . S
C3679 C3677 1.327 . S
C3679 C3695 1.429 . S
C3679 H3701 0.950 . S
C3680 H3676 0.949 . S
C3680 C3688 1.574 . S
C3680 C3696 1.368 . S
H3681 C3689 0.950 . S
H3682 C3687 0.950 . S
H3683 C3688 0.949 . S
H3684 C3690 0.950 . S
H3685 C3691 0.950 . S
H3686 C3692 0.949 . S
C3687 H3682 0.950 . S
C3687 C3689 1.327 . S
C3687 C3693 1.429 . S
C3688 C3680 1.574 . S
C3688 H3683 0.949 . S
C3688 C3694 1.368 . S
C3689 C3673 1.349 . S
C3689 H3681 0.950 . S
C3689 C3687 1.327 . S
C3690 C3678 1.349 . S
C3690 H3684 0.950 . S
C3690 C3691 1.327 . S
C3691 H3685 0.950 . S
C3691 C3690 1.327 . S
C3691 C3695 1.429 . S
C3692 C3675 1.574 . S
C3692 H3686 0.949 . S
C3692 C3696 1.368 . S
C3693 C3674 1.429 . S
C3693 C3687 1.429 . S
C3693 C3694 1.523 . S
C3694 C3675 1.368 . S
C3694 C3688 1.368 . S
C3694 C3693 1.523 . S
C3695 C3679 1.429 . S
C3695 C3691 1.429 . S
C3695 C3696 1.523 . S
C3696 C3680 1.368 . S
C3696 C3692 1.368 . S
C3696 C3695 1.523 . S
H3697 C3672 0.950 . S
H3698 C3674 0.950 . S
H3699 C3675 0.949 . S
H3700 C3677 0.950 . S
H3701 C3679 0.950 . S
C3702 C3703 1.349 . S
C3702 C3704 1.327 . S
C3702 H3727 0.950 . S
C3703 C3702 1.349 . S
C3703 C3719 1.349 . S
C3704 C3702 1.327 . S
C3704 C3723 1.429 . S
C3704 H3728 0.950 . S
C3705 C3722 1.574 . S
C3705 C3724 1.368 . S
C3705 H3729 0.949 . S
H3706 C3710 0.949 . S
C3707 C3708 1.349 . S
C3707 C3709 1.327 . S
C3707 H3730 0.950 . S
C3708 C3707 1.349 . S
C3708 C3720 1.349 . S
C3709 C3707 1.327 . S
C3709 C3725 1.429 . S
C3709 H3731 0.950 . S
C3710 H3706 0.949 . S
C3710 C3718 1.574 . S
C3710 C3726 1.368 . S
H3711 C3719 0.950 . S
H3712 C3717 0.950 . S
H3713 C3718 0.949 . S
H3714 C3720 0.950 . S
H3715 C3721 0.950 . S
H3716 C3722 0.949 . S
C3717 H3712 0.950 . S
C3717 C3719 1.327 . S
C3717 C3723 1.429 . S
C3718 C3710 1.574 . S
C3718 H3713 0.949 . S
C3718 C3724 1.368 . S
C3719 C3703 1.349 . S
C3719 H3711 0.950 . S
C3719 C3717 1.327 . S
C3720 C3708 1.349 . S
C3720 H3714 0.950 . S
C3720 C3721 1.327 . S
C3721 H3715 0.950 . S
C3721 C3720 1.327 . S
C3721 C3725 1.429 . S
C3722 C3705 1.574 . S
C3722 H3716 0.949 . S
C3722 C3726 1.368 . S
C3723 C3704 1.429 . S
C3723 C3717 1.429 . S
C3723 C3724 1.523 . S
C3724 C3705 1.368 . S
C3724 C3718 1.368 . S
C3724 C3723 1.523 . S
C3725 C3709 1.429 . S
C3725 C3721 1.429 . S
C3725 C3726 1.523 . S
C3726 C3710 1.368 . S
C3726 C3722 1.368 . S
C3726 C3725 1.523 . S
H3727 C3702 0.950 . S
H3728 C3704 0.950 . S
H3729 C3705 0.949 . S
H3730 C3707 0.950 . S
H3731 C3709 0.950 . S
C3732 C3733 1.349 . S
C3732 C3734 1.327 . S
C3732 H3757 0.900 1_556 S
C3733 C3732 1.349 . S
C3733 C3749 1.349 . S
C3734 C3732 1.327 . S
C3734 C3753 1.429 . S
C3734 H3758 0.950 . S
C3735 C3752 1.574 . S
C3735 C3754 1.368 . S
C3735 H3759 0.949 . S
H3736 C3740 0.949 . S
C3737 C3738 1.349 . S
C3737 C3739 1.327 . S
C3737 H3760 0.950 . S
C3738 C3737 1.349 . S
C3738 C3750 1.349 . S
C3739 C3737 1.327 . S
C3739 C3755 1.429 . S
C3739 H3761 0.950 . S
C3740 H3736 0.949 . S
C3740 C3748 1.574 . S
C3740 C3756 1.368 . S
H3741 C3749 0.950 . S
H3742 C3747 0.950 . S
H3743 C3748 0.949 . S
H3744 C3750 0.950 . S
H3745 C3751 0.950 . S
H3746 C3752 0.949 . S
C3747 H3742 0.950 . S
C3747 C3749 1.327 . S
C3747 C3753 1.429 . S
C3748 C3740 1.574 . S
C3748 H3743 0.949 . S
C3748 C3754 1.368 . S
C3749 C3733 1.349 . S
C3749 H3741 0.950 . S
C3749 C3747 1.327 . S
C3750 C3738 1.349 . S
C3750 H3744 0.950 . S
C3750 C3751 1.327 . S
C3751 H3745 0.950 . S
C3751 C3750 1.327 . S
C3751 C3755 1.429 . S
C3752 C3735 1.574 . S
C3752 H3746 0.949 . S
C3752 C3756 1.368 . S
C3753 C3734 1.429 . S
C3753 C3747 1.429 . S
C3753 C3754 1.523 . S
C3754 C3735 1.368 . S
C3754 C3748 1.368 . S
C3754 C3753 1.523 . S
C3755 C3739 1.429 . S
C3755 C3751 1.429 . S
C3755 C3756 1.523 . S
C3756 C3740 1.368 . S
C3756 C3752 1.368 . S
C3756 C3755 1.523 . S
H3757 C3732 0.900 1_554 S
H3758 C3734 0.950 . S
H3759 C3735 0.949 . S
H3760 C3737 0.950 . S
H3761 C3739 0.950 . S
C3762 C3763 1.349 . S
C3762 C3764 1.327 . S
C3762 H3787 0.950 . S
C3763 C3762 1.349 . S
C3763 C3779 1.349 . S
C3764 C3762 1.327 . S
C3764 C3783 1.429 . S
C3764 H3788 0.950 . S
C3765 C3782 1.574 . S
C3765 C3784 1.368 . S
C3765 H3789 0.949 . S
H3766 C3770 0.949 . S
C3767 C3768 1.349 . S
C3767 C3769 1.327 . S
C3767 H3790 0.950 . S
C3768 C3767 1.349 . S
C3768 C3780 1.349 . S
C3769 C3767 1.327 . S
C3769 C3785 1.429 . S
C3769 H3791 0.950 . S
C3770 H3766 0.949 . S
C3770 C3778 1.574 . S
C3770 C3786 1.368 . S
H3771 C3779 0.950 . S
H3772 C3777 0.950 . S
H3773 C3778 0.949 . S
H3774 C3780 0.950 . S
H3775 C3781 0.950 . S
H3776 C3782 0.949 . S
C3777 H3772 0.950 . S
C3777 C3779 1.327 . S
C3777 C3783 1.429 . S
C3778 C3770 1.574 . S
C3778 H3773 0.949 . S
C3778 C3784 1.368 . S
C3779 C3763 1.349 . S
C3779 H3771 0.950 . S
C3779 C3777 1.327 . S
C3780 C3768 1.349 . S
C3780 H3774 0.950 . S
C3780 C3781 1.327 . S
C3781 H3775 0.950 . S
C3781 C3780 1.327 . S
C3781 C3785 1.429 . S
C3782 C3765 1.574 . S
C3782 H3776 0.949 . S
C3782 C3786 1.368 . S
C3783 C3764 1.429 . S
C3783 C3777 1.429 . S
C3783 C3784 1.523 . S
C3784 C3765 1.368 . S
C3784 C3778 1.368 . S
C3784 C3783 1.523 . S
C3785 C3769 1.429 . S
C3785 C3781 1.429 . S
C3785 C3786 1.523 . S
C3786 C3770 1.368 . S
C3786 C3782 1.368 . S
C3786 C3785 1.523 . S
H3787 C3762 0.950 . S
H3788 C3764 0.950 . S
H3789 C3765 0.949 . S
H3790 C3767 0.950 . S
H3791 C3769 0.950 . S
C3792 C3793 1.349 . S
C3792 C3794 1.327 . S
C3792 H3817 0.950 . S
C3793 C3792 1.349 . S
C3793 C3809 1.349 . S
C3794 C3792 1.327 . S
C3794 C3813 1.429 . S
C3794 H3818 0.950 . S
C3795 C3812 1.574 . S
C3795 C3814 1.368 . S
C3795 H3819 0.949 . S
H3796 C3800 0.949 . S
C3797 C3798 1.349 . S
C3797 C3799 1.327 . S
C3797 H3820 0.950 . S
C3798 C3797 1.349 . S
C3798 C3810 1.349 . S
C3799 C3797 1.327 . S
C3799 C3815 1.429 . S
C3799 H3821 0.950 . S
C3800 H3796 0.949 . S
C3800 C3808 1.574 . S
C3800 C3816 1.368 . S
H3801 C3809 0.950 . S
H3802 C3807 0.950 . S
H3803 C3808 0.949 . S
H3804 C3810 0.950 . S
H3805 C3811 0.950 . S
H3806 C3812 0.949 . S
C3807 H3802 0.950 . S
C3807 C3809 1.327 . S
C3807 C3813 1.429 . S
C3808 C3800 1.574 . S
C3808 H3803 0.949 . S
C3808 C3814 1.368 . S
C3809 C3793 1.349 . S
C3809 H3801 0.950 . S
C3809 C3807 1.327 . S
C3810 C3798 1.349 . S
C3810 H3804 0.950 . S
C3810 C3811 1.327 . S
C3811 H3805 0.950 . S
C3811 C3810 1.327 . S
C3811 C3815 1.429 . S
C3812 C3795 1.574 . S
C3812 H3806 0.949 . S
C3812 C3816 1.368 . S
C3813 C3794 1.429 . S
C3813 C3807 1.429 . S
C3813 C3814 1.523 . S
C3814 C3795 1.368 . S
C3814 C3808 1.368 . S
C3814 C3813 1.523 . S
C3815 C3799 1.429 . S
C3815 C3811 1.429 . S
C3815 C3816 1.523 . S
C3816 C3800 1.368 . S
C3816 C3812 1.368 . S
C3816 C3815 1.523 . S
H3817 C3792 0.950 . S
H3818 C3794 0.950 . S
H3819 C3795 0.949 . S
H3820 C3797 0.950 . S
H3821 C3799 0.950 . S
C3822 C3823 1.349 . S
C3822 C3824 1.327 . S
C3822 H3847 0.950 . S
C3823 C3822 1.349 . S
C3823 C3839 1.349 . S
C3824 C3822 1.327 . S
C3824 C3843 1.429 . S
C3824 H3848 0.950 . S
C3825 C3842 1.574 . S
C3825 C3844 1.368 . S
C3825 H3849 0.949 . S
H3826 C3830 0.949 . S
C3827 C3828 1.349 . S
C3827 C3829 1.327 . S
C3827 H3850 0.950 . S
C3828 C3827 1.349 . S
C3828 C3840 1.349 . S
C3829 C3827 1.327 . S
C3829 C3845 1.429 . S
C3829 H3851 0.950 . S
C3830 H3826 0.949 . S
C3830 C3838 1.574 . S
C3830 C3846 1.368 . S
H3831 C3839 0.950 . S
H3832 C3837 0.950 . S
H3833 C3838 0.949 . S
H3834 C3840 0.950 . S
H3835 C3841 0.950 . S
H3836 C3842 0.949 . S
C3837 H3832 0.950 . S
C3837 C3839 1.327 . S
C3837 C3843 1.429 . S
C3838 C3830 1.574 . S
C3838 H3833 0.949 . S
C3838 C3844 1.368 . S
C3839 C3823 1.349 . S
C3839 H3831 0.950 . S
C3839 C3837 1.327 . S
C3840 C3828 1.349 . S
C3840 H3834 0.950 . S
C3840 C3841 1.327 . S
C3841 H3835 0.950 . S
C3841 C3840 1.327 . S
C3841 C3845 1.429 . S
C3842 C3825 1.574 . S
C3842 H3836 0.949 . S
C3842 C3846 1.368 . S
C3843 C3824 1.429 . S
C3843 C3837 1.429 . S
C3843 C3844 1.523 . S
C3844 C3825 1.368 . S
C3844 C3838 1.368 . S
C3844 C3843 1.523 . S
C3845 C3829 1.429 . S
C3845 C3841 1.429 . S
C3845 C3846 1.523 . S
C3846 C3830 1.368 . S
C3846 C3842 1.368 . S
C3846 C3845 1.523 . S
H3847 C3822 0.950 . S
H3848 C3824 0.950 . S
H3849 C3825 0.949 . S
H3850 C3827 0.950 . S
H3851 C3829 0.950 . S
C3852 C3853 1.349 . S
C3852 C3854 1.327 . S
C3852 H3877 0.950 . S
C3853 C3852 1.349 . S
C3853 C3869 1.349 . S
C3854 C3852 1.327 . S
C3854 C3873 1.429 . S
C3854 H3878 0.950 . S
C3855 C3872 1.574 . S
C3855 C3874 1.368 . S
C3855 H3879 0.949 . S
H3856 C3860 0.949 . S
C3857 C3858 1.349 . S
C3857 C3859 1.327 . S
C3857 H3880 0.950 . S
C3858 C3857 1.349 . S
C3858 C3870 1.349 . S
C3859 C3857 1.327 . S
C3859 C3875 1.429 . S
C3859 H3881 0.950 . S
C3860 H3856 0.949 . S
C3860 C3868 1.574 . S
C3860 C3876 1.368 . S
H3861 C3869 0.950 . S
H3862 C3867 0.950 . S
H3863 C3868 0.949 . S
H3864 C3870 0.950 . S
H3865 C3871 0.950 . S
H3866 C3872 0.949 . S
C3867 H3862 0.950 . S
C3867 C3869 1.327 . S
C3867 C3873 1.429 . S
C3868 C3860 1.574 . S
C3868 H3863 0.949 . S
C3868 C3874 1.368 . S
C3869 C3853 1.349 . S
C3869 H3861 0.950 . S
C3869 C3867 1.327 . S
C3870 C3858 1.349 . S
C3870 H3864 0.950 . S
C3870 C3871 1.327 . S
C3871 H3865 0.950 . S
C3871 C3870 1.327 . S
C3871 C3875 1.429 . S
C3872 C3855 1.574 . S
C3872 H3866 0.949 . S
C3872 C3876 1.368 . S
C3873 C3854 1.429 . S
C3873 C3867 1.429 . S
C3873 C3874 1.523 . S
C3874 C3855 1.368 . S
C3874 C3868 1.368 . S
C3874 C3873 1.523 . S
C3875 C3859 1.429 . S
C3875 C3871 1.429 . S
C3875 C3876 1.523 . S
C3876 C3860 1.368 . S
C3876 C3872 1.368 . S
C3876 C3875 1.523 . S
H3877 C3852 0.950 . S
H3878 C3854 0.950 . S
H3879 C3855 0.949 . S
H3880 C3857 0.950 . S
H3881 C3859 0.950 . S
C3882 C3883 1.349 . S
C3882 C3884 1.327 . S
C3882 H3907 0.950 . S
C3883 C3882 1.349 . S
C3883 C3899 1.349 . S
C3884 C3882 1.327 . S
C3884 C3903 1.429 . S
C3884 H3908 0.950 . S
C3885 C3902 1.574 . S
C3885 C3904 1.368 . S
C3885 H3909 0.949 . S
H3886 C3890 0.949 . S
C3887 C3888 1.349 . S
C3887 C3889 1.327 . S
C3887 H3910 0.950 . S
C3888 C3887 1.349 . S
C3888 C3900 1.349 . S
C3889 C3887 1.327 . S
C3889 C3905 1.429 . S
C3889 H3911 0.950 . S
C3890 H3886 0.949 . S
C3890 C3898 1.574 . S
C3890 C3906 1.368 . S
H3891 C3899 0.950 . S
H3892 C3897 0.950 . S
H3893 C3898 0.949 . S
H3894 C3900 0.950 . S
H3895 C3901 0.950 . S
H3896 C3902 0.949 . S
C3897 H3892 0.950 . S
C3897 C3899 1.327 . S
C3897 C3903 1.429 . S
C3898 C3890 1.574 . S
C3898 H3893 0.949 . S
C3898 C3904 1.368 . S
C3899 C3883 1.349 . S
C3899 H3891 0.950 . S
C3899 C3897 1.327 . S
C3900 C3888 1.349 . S
C3900 H3894 0.950 . S
C3900 C3901 1.327 . S
C3901 H3895 0.950 . S
C3901 C3900 1.327 . S
C3901 C3905 1.429 . S
C3902 C3885 1.574 . S
C3902 H3896 0.949 . S
C3902 C3906 1.368 . S
C3903 C3884 1.429 . S
C3903 C3897 1.429 . S
C3903 C3904 1.523 . S
C3904 C3885 1.368 . S
C3904 C3898 1.368 . S
C3904 C3903 1.523 . S
C3905 C3889 1.429 . S
C3905 C3901 1.429 . S
C3905 C3906 1.523 . S
C3906 C3890 1.368 . S
C3906 C3902 1.368 . S
C3906 C3905 1.523 . S
H3907 C3882 0.950 . S
H3908 C3884 0.950 . S
H3909 C3885 0.949 . S
H3910 C3887 0.950 . S
H3911 C3889 0.950 . S
C3912 C3913 1.349 . S
C3912 C3914 1.327 . S
C3912 H3937 0.950 . S
C3913 C3912 1.349 . S
C3913 C3929 1.349 . S
C3914 C3912 1.327 . S
C3914 C3933 1.429 . S
C3914 H3938 0.950 . S
C3915 C3932 1.574 . S
C3915 C3934 1.368 . S
C3915 H3939 0.949 . S
H3916 C3920 0.949 . S
C3917 C3918 1.349 . S
C3917 C3919 1.327 . S
C3917 H3940 0.950 . S
C3918 C3917 1.349 . S
C3918 C3930 1.349 . S
C3919 C3917 1.327 . S
C3919 C3935 1.429 . S
C3919 H3941 0.950 . S
C3920 H3916 0.949 . S
C3920 C3928 1.574 . S
C3920 C3936 1.368 . S
H3921 C3929 0.950 . S
H3922 C3927 0.950 . S
H3923 C3928 0.949 . S
H3924 C3930 0.950 . S
H3925 C3931 0.950 . S
H3926 C3932 0.949 . S
C3927 H3922 0.950 . S
C3927 C3929 1.327 . S
C3927 C3933 1.429 . S
C3928 C3920 1.574 . S
C3928 H3923 0.949 . S
C3928 C3934 1.368 . S
C3929 C3913 1.349 . S
C3929 H3921 0.950 . S
C3929 C3927 1.327 . S
C3930 C3918 1.349 . S
C3930 H3924 0.950 . S
C3930 C3931 1.327 . S
C3931 H3925 0.950 . S
C3931 C3930 1.327 . S
C3931 C3935 1.429 . S
C3932 C3915 1.574 . S
C3932 H3926 0.949 . S
C3932 C3936 1.368 . S
C3933 C3914 1.429 . S
C3933 C3927 1.429 . S
C3933 C3934 1.523 . S
C3934 C3915 1.368 . S
C3934 C3928 1.368 . S
C3934 C3933 1.523 . S
C3935 C3919 1.429 . S
C3935 C3931 1.429 . S
C3935 C3936 1.523 . S
C3936 C3920 1.368 . S
C3936 C3932 1.368 . S
C3936 C3935 1.523 . S
H3937 C3912 0.950 . S
H3938 C3914 0.950 . S
H3939 C3915 0.949 . S
H3940 C3917 0.950 . S
H3941 C3919 0.950 . S
C3942 C3943 1.349 . S
C3942 C3944 1.327 . S
C3942 H3967 0.950 1_455 S
C3943 C3942 1.349 . S
C3943 C3959 1.349 . S
C3944 C3942 1.327 . S
C3944 C3963 1.429 . S
C3944 H3968 0.950 1_455 S
C3945 C3962 1.574 . S
C3945 C3964 1.368 . S
C3945 H3969 0.949 . S
H3946 C3950 0.949 . S
C3947 C3948 1.349 . S
C3947 C3949 1.327 . S
C3947 H3970 0.950 . S
C3948 C3947 1.349 . S
C3948 C3960 1.349 1_455 S
C3949 C3947 1.327 . S
C3949 C3965 1.429 . S
C3949 H3971 0.950 . S
C3950 H3946 0.949 . S
C3950 C3958 1.574 . S
C3950 C3966 1.368 1_655 S
H3951 C3959 0.950 . S
H3952 C3957 0.950 . S
H3953 C3958 0.949 . S
H3954 C3960 0.950 . S
H3955 C3961 0.950 . S
H3956 C3962 0.949 . S
C3957 H3952 0.950 . S
C3957 C3959 1.327 . S
C3957 C3963 1.429 . S
C3958 C3950 1.574 . S
C3958 H3953 0.949 . S
C3958 C3964 1.368 1_655 S
C3959 C3943 1.349 . S
C3959 H3951 0.950 . S
C3959 C3957 1.327 . S
C3960 C3948 1.349 1_655 S
C3960 H3954 0.950 . S
C3960 C3961 1.327 . S
C3961 H3955 0.950 . S
C3961 C3960 1.327 . S
C3961 C3965 1.429 1_655 S
C3962 C3945 1.574 . S
C3962 H3956 0.949 . S
C3962 C3966 1.368 . S
C3963 C3944 1.429 . S
C3963 C3957 1.429 . S
C3963 C3964 1.523 . S
C3964 C3945 1.368 . S
C3964 C3958 1.368 1_455 S
C3964 C3963 1.523 . S
C3965 C3949 1.429 . S
C3965 C3961 1.429 1_455 S
C3965 C3966 1.523 . S
C3966 C3950 1.368 1_455 S
C3966 C3962 1.368 . S
C3966 C3965 1.523 . S
H3967 C3942 0.950 1_655 S
H3968 C3944 0.950 1_655 S
H3969 C3945 0.949 . S
H3970 C3947 0.950 . S
H3971 C3949 0.950 . S
C3972 C3973 1.349 . S
C3972 C3974 1.327 . S
C3972 H3997 0.950 . S
C3973 C3972 1.349 . S
C3973 C3989 1.349 . S
C3974 C3972 1.327 . S
C3974 C3993 1.429 . S
C3974 H3998 0.950 . S
C3975 C3992 1.574 . S
C3975 C3994 1.368 . S
C3975 H3999 0.949 . S
H3976 C3980 0.949 . S
C3977 C3978 1.349 . S
C3977 C3979 1.327 . S
C3977 H4000 0.950 . S
C3978 C3977 1.349 . S
C3978 C3990 1.349 . S
C3979 C3977 1.327 . S
C3979 C3995 1.429 . S
C3979 H4001 0.950 . S
C3980 H3976 0.949 . S
C3980 C3988 1.574 . S
C3980 C3996 1.368 . S
H3981 C3989 0.950 . S
H3982 C3987 0.950 . S
H3983 C3988 0.949 . S
H3984 C3990 0.950 . S
H3985 C3991 0.950 . S
H3986 C3992 0.949 . S
C3987 H3982 0.950 . S
C3987 C3989 1.327 . S
C3987 C3993 1.429 . S
C3988 C3980 1.574 . S
C3988 H3983 0.949 . S
C3988 C3994 1.368 . S
C3989 C3973 1.349 . S
C3989 H3981 0.950 . S
C3989 C3987 1.327 . S
C3990 C3978 1.349 . S
C3990 H3984 0.950 . S
C3990 C3991 1.327 . S
C3991 H3985 0.950 . S
C3991 C3990 1.327 . S
C3991 C3995 1.429 . S
C3992 C3975 1.574 . S
C3992 H3986 0.949 . S
C3992 C3996 1.368 . S
C3993 C3974 1.429 . S
C3993 C3987 1.429 . S
C3993 C3994 1.523 . S
C3994 C3975 1.368 . S
C3994 C3988 1.368 . S
C3994 C3993 1.523 . S
C3995 C3979 1.429 . S
C3995 C3991 1.429 . S
C3995 C3996 1.523 . S
C3996 C3980 1.368 . S
C3996 C3992 1.368 . S
C3996 C3995 1.523 . S
H3997 C3972 0.950 . S
H3998 C3974 0.950 . S
H3999 C3975 0.949 . S
H4000 C3977 0.950 . S
H4001 C3979 0.950 . S
C4002 C4003 1.349 . S
C4002 C4004 1.327 . S
C4002 H4027 0.950 . S
C4003 C4002 1.349 . S
C4003 C4019 1.349 . S
C4004 C4002 1.327 . S
C4004 C4023 1.429 . S
C4004 H4028 0.950 . S
C4005 C4022 1.574 . S
C4005 C4024 1.368 1_545 S
C4005 H4029 0.949 . S
H4006 C4010 0.949 . S
C4007 C4008 1.349 1_545 S
C4007 C4009 1.327 . S
C4007 H4030 0.950 . S
C4008 C4007 1.349 1_565 S
C4008 C4020 1.349 . S
C4009 C4007 1.327 . S
C4009 C4025 1.429 1_545 S
C4009 H4031 0.950 . S
C4010 H4006 0.949 . S
C4010 C4018 1.574 . S
C4010 C4026 1.368 . S
H4011 C4019 0.950 1_545 S
H4012 C4017 0.950 1_545 S
H4013 C4018 0.949 . S
H4014 C4020 0.950 . S
H4015 C4021 0.950 . S
H4016 C4022 0.949 . S
C4017 H4012 0.950 1_565 S
C4017 C4019 1.327 . S
C4017 C4023 1.429 . S
C4018 C4010 1.574 . S
C4018 H4013 0.949 . S
C4018 C4024 1.368 . S
C4019 C4003 1.349 . S
C4019 H4011 0.950 1_565 S
C4019 C4017 1.327 . S
C4020 C4008 1.349 . S
C4020 H4014 0.950 . S
C4020 C4021 1.327 . S
C4021 H4015 0.950 . S
C4021 C4020 1.327 . S
C4021 C4025 1.429 . S
C4022 C4005 1.574 . S
C4022 H4016 0.949 . S
C4022 C4026 1.368 1_545 S
C4023 C4004 1.429 . S
C4023 C4017 1.429 . S
C4023 C4024 1.523 . S
C4024 C4005 1.368 1_565 S
C4024 C4018 1.368 . S
C4024 C4023 1.523 . S
C4025 C4009 1.429 1_565 S
C4025 C4021 1.429 . S
C4025 C4026 1.523 . S
C4026 C4010 1.368 . S
C4026 C4022 1.368 1_565 S
C4026 C4025 1.523 . S
H4027 C4002 0.950 . S
H4028 C4004 0.950 . S
H4029 C4005 0.949 . S
H4030 C4007 0.950 . S
H4031 C4009 0.950 . S
C4032 C4033 1.349 . S
C4032 C4034 1.327 . S
C4032 H4057 0.950 . S
C4033 C4032 1.349 . S
C4033 C4049 1.349 . S
C4034 C4032 1.327 . S
C4034 C4053 1.429 . S
C4034 H4058 0.950 . S
C4035 C4052 1.574 . S
C4035 C4054 1.368 1_545 S
C4035 H4059 0.949 . S
H4036 C4040 0.949 . S
C4037 C4038 1.349 1_545 S
C4037 C4039 1.327 . S
C4037 H4060 0.950 . S
C4038 C4037 1.349 1_565 S
C4038 C4050 1.349 . S
C4039 C4037 1.327 . S
C4039 C4055 1.429 1_545 S
C4039 H4061 0.950 . S
C4040 H4036 0.949 . S
C4040 C4048 1.574 . S
C4040 C4056 1.368 . S
H4041 C4049 0.950 1_545 S
H4042 C4047 0.875 1_545 S
H4043 C4048 0.949 . S
H4044 C4050 0.950 . S
H4045 C4051 0.950 . S
H4046 C4052 0.949 . S
C4047 H4042 0.875 1_565 S
C4047 C4049 1.371 . S
C4047 C4053 1.461 . S
C4048 C4040 1.574 . S
C4048 H4043 0.949 . S
C4048 C4054 1.368 . S
C4049 C4033 1.349 . S
C4049 H4041 0.950 1_565 S
C4049 C4047 1.371 . S
C4050 C4038 1.349 . S
C4050 H4044 0.950 . S
C4050 C4051 1.327 . S
C4051 H4045 0.950 . S
C4051 C4050 1.327 . S
C4051 C4055 1.429 . S
C4052 C4035 1.574 . S
C4052 H4046 0.949 . S
C4052 C4056 1.368 1_545 S
C4053 C4034 1.429 . S
C4053 C4047 1.461 . S
C4053 C4054 1.523 . S
C4054 C4035 1.368 1_565 S
C4054 C4048 1.368 . S
C4054 C4053 1.523 . S
C4055 C4039 1.429 1_565 S
C4055 C4051 1.429 . S
C4055 C4056 1.523 . S
C4056 C4040 1.368 . S
C4056 C4052 1.368 1_565 S
C4056 C4055 1.523 . S
H4057 C4032 0.950 . S
H4058 C4034 0.950 . S
H4059 C4035 0.949 . S
H4060 C4037 0.950 . S
H4061 C4039 0.950 . S
C4062 C4063 1.349 . S
C4062 C4064 1.296 . S
C4062 H4087 0.950 1_455 S
C4063 C4062 1.349 . S
C4063 C4079 1.349 . S
C4064 C4062 1.296 . S
C4064 C4083 1.515 . S
C4064 H4088 0.903 1_455 S
C4065 C4082 1.574 . S
C4065 C4084 1.368 . S
C4065 H4089 0.949 . S
H4066 C4070 0.949 . S
C4067 C4068 1.349 . S
C4067 C4069 1.327 . S
C4067 H4090 0.950 . S
C4068 C4067 1.349 . S
C4068 C4080 1.349 1_455 S
C4069 C4067 1.327 . S
C4069 C4085 1.429 . S
C4069 H4091 0.950 . S
C4070 H4066 0.949 . S
C4070 C4078 1.574 . S
C4070 C4086 1.368 1_655 S
H4071 C4079 0.950 . S
H4072 C4077 0.950 . S
H4073 C4078 0.949 . S
H4074 C4080 0.950 . S
H4075 C4081 0.950 . S
H4076 C4082 0.949 . S
C4077 H4072 0.950 . S
C4077 C4079 1.327 . S
C4077 C4083 1.429 . S
C4078 C4070 1.574 . S
C4078 H4073 0.949 . S
C4078 C4084 1.368 1_655 S
C4079 C4063 1.349 . S
C4079 H4071 0.950 . S
C4079 C4077 1.327 . S
C4080 C4068 1.349 1_655 S
C4080 H4074 0.950 . S
C4080 C4081 1.327 . S
C4081 H4075 0.950 . S
C4081 C4080 1.327 . S
C4081 C4085 1.429 1_655 S
C4082 C4065 1.574 . S
C4082 H4076 0.949 . S
C4082 C4086 1.368 . S
C4083 C4064 1.515 . S
C4083 C4077 1.429 . S
C4083 C4084 1.523 . S
C4084 C4065 1.368 . S
C4084 C4078 1.368 1_455 S
C4084 C4083 1.523 . S
C4085 C4069 1.429 . S
C4085 C4081 1.429 1_455 S
C4085 C4086 1.523 . S
C4086 C4070 1.368 1_455 S
C4086 C4082 1.368 . S
C4086 C4085 1.523 . S
H4087 C4062 0.950 1_655 S
H4088 C4064 0.903 1_655 S
H4089 C4065 0.949 . S
H4090 C4067 0.950 . S
H4091 C4069 0.950 . S
C4092 C4093 1.349 . S
C4092 C4094 1.327 . S
C4092 H4117 0.950 . S
C4093 C4092 1.349 . S
C4093 C4109 1.349 . S
C4094 C4092 1.327 . S
C4094 C4113 1.429 . S
C4094 H4118 0.950 . S
C4095 C4112 1.574 . S
C4095 C4114 1.368 . S
C4095 H4119 0.949 . S
H4096 C4100 0.949 . S
C4097 C4098 1.349 . S
C4097 C4099 1.327 . S
C4097 H4120 0.950 . S
C4098 C4097 1.349 . S
C4098 C4110 1.349 . S
C4099 C4097 1.327 . S
C4099 C4115 1.429 . S
C4099 H4121 0.950 . S
C4100 H4096 0.949 . S
C4100 C4108 1.574 . S
C4100 C4116 1.368 . S
H4101 C4109 0.950 . S
H4102 C4107 0.950 . S
H4103 C4108 0.949 . S
H4104 C4110 0.950 . S
H4105 C4111 0.950 . S
H4106 C4112 0.949 . S
C4107 H4102 0.950 . S
C4107 C4109 1.327 . S
C4107 C4113 1.429 . S
C4108 C4100 1.574 . S
C4108 H4103 0.949 . S
C4108 C4114 1.368 . S
C4109 C4093 1.349 . S
C4109 H4101 0.950 . S
C4109 C4107 1.327 . S
C4110 C4098 1.349 . S
C4110 H4104 0.950 . S
C4110 C4111 1.327 . S
C4111 H4105 0.950 . S
C4111 C4110 1.327 . S
C4111 C4115 1.429 . S
C4112 C4095 1.574 . S
C4112 H4106 0.949 . S
C4112 C4116 1.368 . S
C4113 C4094 1.429 . S
C4113 C4107 1.429 . S
C4113 C4114 1.523 . S
C4114 C4095 1.368 . S
C4114 C4108 1.368 . S
C4114 C4113 1.523 . S
C4115 C4099 1.429 . S
C4115 C4111 1.429 . S
C4115 C4116 1.523 . S
C4116 C4100 1.368 . S
C4116 C4112 1.368 . S
C4116 C4115 1.523 . S
H4117 C4092 0.950 . S
H4118 C4094 0.950 . S
H4119 C4095 0.949 . S
H4120 C4097 0.950 . S
H4121 C4099 0.950 . S
C4122 C4123 1.349 . S
C4122 C4124 1.327 . S
C4122 H4147 0.950 . S
C4123 C4122 1.349 . S
C4123 C4139 1.349 . S
C4124 C4122 1.327 . S
C4124 C4143 1.429 . S
C4124 H4148 0.950 . S
C4125 C4142 1.574 . S
C4125 C4144 1.368 . S
C4125 H4149 0.949 . S
H4126 C4130 0.949 . S
C4127 C4128 1.349 . S
C4127 C4129 1.327 . S
C4127 H4150 0.950 . S
C4128 C4127 1.349 . S
C4128 C4140 1.349 . S
C4129 C4127 1.327 . S
C4129 C4145 1.429 . S
C4129 H4151 0.950 . S
C4130 H4126 0.949 . S
C4130 C4138 1.574 . S
C4130 C4146 1.368 . S
H4131 C4139 0.950 . S
H4132 C4137 0.950 . S
H4133 C4138 0.949 . S
H4134 C4140 0.950 . S
H4135 C4141 0.950 . S
H4136 C4142 0.949 . S
C4137 H4132 0.950 . S
C4137 C4139 1.327 . S
C4137 C4143 1.429 . S
C4138 C4130 1.574 . S
C4138 H4133 0.949 . S
C4138 C4144 1.368 . S
C4139 C4123 1.349 . S
C4139 H4131 0.950 . S
C4139 C4137 1.327 . S
C4140 C4128 1.349 . S
C4140 H4134 0.950 . S
C4140 C4141 1.327 . S
C4141 H4135 0.950 . S
C4141 C4140 1.327 . S
C4141 C4145 1.429 . S
C4142 C4125 1.574 . S
C4142 H4136 0.949 . S
C4142 C4146 1.368 . S
C4143 C4124 1.429 . S
C4143 C4137 1.429 . S
C4143 C4144 1.523 . S
C4144 C4125 1.368 . S
C4144 C4138 1.368 . S
C4144 C4143 1.523 . S
C4145 C4129 1.429 . S
C4145 C4141 1.429 . S
C4145 C4146 1.523 . S
C4146 C4130 1.368 . S
C4146 C4142 1.368 . S
C4146 C4145 1.523 . S
H4147 C4122 0.950 . S
H4148 C4124 0.950 . S
H4149 C4125 0.949 . S
H4150 C4127 0.950 . S
H4151 C4129 0.950 . S
C4152 C4153 1.349 . S
C4152 C4154 1.327 . S
C4152 H4177 0.950 . S
C4153 C4152 1.349 . S
C4153 C4169 1.349 . S
C4154 C4152 1.327 . S
C4154 C4173 1.429 . S
C4154 H4178 0.950 . S
C4155 C4172 1.574 . S
C4155 C4174 1.368 . S
C4155 H4179 0.949 . S
H4156 C4160 0.949 . S
C4157 C4158 1.349 . S
C4157 C4159 1.327 . S
C4157 H4180 0.950 . S
C4158 C4157 1.349 . S
C4158 C4170 1.349 . S
C4159 C4157 1.327 . S
C4159 C4175 1.429 . S
C4159 H4181 0.950 . S
C4160 H4156 0.949 . S
C4160 C4168 1.574 . S
C4160 C4176 1.368 . S
H4161 C4169 0.950 . S
H4162 C4167 0.950 . S
H4163 C4168 0.949 . S
H4164 C4170 0.950 . S
H4165 C4171 0.950 . S
H4166 C4172 0.949 . S
C4167 H4162 0.950 . S
C4167 C4169 1.327 . S
C4167 C4173 1.429 . S
C4168 C4160 1.574 . S
C4168 H4163 0.949 . S
C4168 C4174 1.368 . S
C4169 C4153 1.349 . S
C4169 H4161 0.950 . S
C4169 C4167 1.327 . S
C4170 C4158 1.349 . S
C4170 H4164 0.950 . S
C4170 C4171 1.327 . S
C4171 H4165 0.950 . S
C4171 C4170 1.327 . S
C4171 C4175 1.429 . S
C4172 C4155 1.574 . S
C4172 H4166 0.949 . S
C4172 C4176 1.368 . S
C4173 C4154 1.429 . S
C4173 C4167 1.429 . S
C4173 C4174 1.523 . S
C4174 C4155 1.368 . S
C4174 C4168 1.368 . S
C4174 C4173 1.523 . S
C4175 C4159 1.429 . S
C4175 C4171 1.429 . S
C4175 C4176 1.523 . S
C4176 C4160 1.368 . S
C4176 C4172 1.368 . S
C4176 C4175 1.523 . S
H4177 C4152 0.950 . S
H4178 C4154 0.950 . S
H4179 C4155 0.949 . S
H4180 C4157 0.950 . S
H4181 C4159 0.950 . S
C4182 C4183 1.349 . S
C4182 C4184 1.327 . S
C4182 H4207 0.950 . S
C4183 C4182 1.349 . S
C4183 C4199 1.349 . S
C4184 C4182 1.327 . S
C4184 C4203 1.429 . S
C4184 H4208 0.950 . S
C4185 C4202 1.574 . S
C4185 C4204 1.368 . S
C4185 H4209 0.949 . S
H4186 C4190 0.949 . S
C4187 C4188 1.349 . S
C4187 C4189 1.327 . S
C4187 H4210 0.950 . S
C4188 C4187 1.349 . S
C4188 C4200 1.349 . S
C4189 C4187 1.327 . S
C4189 C4205 1.429 . S
C4189 H4211 0.950 . S
C4190 H4186 0.949 . S
C4190 C4198 1.574 . S
C4190 C4206 1.368 . S
H4191 C4199 0.950 . S
H4192 C4197 0.950 . S
H4193 C4198 0.949 . S
H4194 C4200 0.950 . S
H4195 C4201 0.950 . S
H4196 C4202 0.949 . S
C4197 H4192 0.950 . S
C4197 C4199 1.327 . S
C4197 C4203 1.429 . S
C4198 C4190 1.574 . S
C4198 H4193 0.949 . S
C4198 C4204 1.368 . S
C4199 C4183 1.349 . S
C4199 H4191 0.950 . S
C4199 C4197 1.327 . S
C4200 C4188 1.349 . S
C4200 H4194 0.950 . S
C4200 C4201 1.327 . S
C4201 H4195 0.950 . S
C4201 C4200 1.327 . S
C4201 C4205 1.429 . S
C4202 C4185 1.574 . S
C4202 H4196 0.949 . S
C4202 C4206 1.368 . S
C4203 C4184 1.429 . S
C4203 C4197 1.429 . S
C4203 C4204 1.523 . S
C4204 C4185 1.368 . S
C4204 C4198 1.368 . S
C4204 C4203 1.523 . S
C4205 C4189 1.429 . S
C4205 C4201 1.429 . S
C4205 C4206 1.523 . S
C4206 C4190 1.368 . S
C4206 C4202 1.368 . S
C4206 C4205 1.523 . S
H4207 C4182 0.950 . S
H4208 C4184 0.950 . S
H4209 C4185 0.949 . S
H4210 C4187 0.950 . S
H4211 C4189 0.950 . S
C4212 C4213 1.349 . S
C4212 C4214 1.327 . S
C4212 H4237 0.952 . S
C4213 C4212 1.349 . S
C4213 C4229 1.349 . S
C4214 C4212 1.327 . S
C4214 C4233 1.429 . S
C4214 H4238 0.950 1_545 S
C4215 C4232 1.574 . S
C4215 C4234 1.368 . S
C4215 H4239 0.949 . S
H4216 C4220 0.949 . S
C4217 C4218 1.349 . S
C4217 C4219 1.327 . S
C4217 H4240 0.950 . S
C4218 C4217 1.349 . S
C4218 C4230 1.349 1_545 S
C4219 C4217 1.327 . S
C4219 C4235 1.429 . S
C4219 H4241 0.950 . S
C4220 H4216 0.949 . S
C4220 C4228 1.547 1_565 S
C4220 C4236 1.368 1_565 S
H4221 C4229 0.950 . S
H4222 C4227 0.950 . S
H4223 C4228 0.931 1_565 S
H4224 C4230 0.950 . S
H4225 C4231 0.950 . S
H4226 C4232 0.949 . S
C4227 H4222 0.950 . S
C4227 C4229 1.327 . S
C4227 C4233 1.429 . S
C4228 C4220 1.547 1_545 S
C4228 H4223 0.931 1_545 S
C4228 C4234 1.416 . S
C4229 C4213 1.349 . S
C4229 H4221 0.950 . S
C4229 C4227 1.327 . S
C4230 C4218 1.349 1_565 S
C4230 H4224 0.950 . S
C4230 C4231 1.327 . S
C4231 H4225 0.950 . S
C4231 C4230 1.327 . S
C4231 C4235 1.429 1_565 S
C4232 C4215 1.574 . S
C4232 H4226 0.949 . S
C4232 C4236 1.368 . S
C4233 C4214 1.429 . S
C4233 C4227 1.429 . S
C4233 C4234 1.523 . S
C4234 C4215 1.368 . S
C4234 C4228 1.416 . S
C4234 C4233 1.523 . S
C4235 C4219 1.429 . S
C4235 C4231 1.429 1_545 S
C4235 C4236 1.523 . S
C4236 C4220 1.368 1_545 S
C4236 C4232 1.368 . S
C4236 C4235 1.523 . S
H4237 C4212 0.952 . S
H4238 C4214 0.950 1_565 S
H4239 C4215 0.949 . S
H4240 C4217 0.950 . S
H4241 C4219 0.950 . S
C4242 C4243 1.349 . S
C4242 C4244 1.327 . S
C4242 H4267 0.950 . S
C4243 C4242 1.349 . S
C4243 C4259 1.349 . S
C4244 C4242 1.327 . S
C4244 C4263 1.429 . S
C4244 H4268 0.945 1_655 S
C4245 C4262 1.574 . S
C4245 C4264 1.368 . S
C4245 H4269 0.949 . S
H4246 C4250 0.939 1_455 S
C4247 C4248 1.349 . S
C4247 C4249 1.327 . S
C4247 H4270 0.950 . S
C4248 C4247 1.349 . S
C4248 C4260 1.349 1_655 S
C4249 C4247 1.327 . S
C4249 C4265 1.429 . S
C4249 H4271 0.950 . S
C4250 H4246 0.939 1_655 S
C4250 C4258 1.565 . S
C4250 C4266 1.388 . S
H4251 C4259 0.950 . S
H4252 C4257 0.950 . S
H4253 C4258 0.949 1_455 S
H4254 C4260 0.950 . S
H4255 C4261 0.950 . S
H4256 C4262 0.949 . S
C4257 H4252 0.950 . S
C4257 C4259 1.327 . S
C4257 C4263 1.429 . S
C4258 C4250 1.565 . S
C4258 H4253 0.949 1_655 S
C4258 C4264 1.368 . S
C4259 C4243 1.349 . S
C4259 H4251 0.950 . S
C4259 C4257 1.327 . S
C4260 C4248 1.349 1_455 S
C4260 H4254 0.950 . S
C4260 C4261 1.327 . S
C4261 H4255 0.950 . S
C4261 C4260 1.327 . S
C4261 C4265 1.429 1_455 S
C4262 C4245 1.574 . S
C4262 H4256 0.949 . S
C4262 C4266 1.368 . S
C4263 C4244 1.429 . S
C4263 C4257 1.429 . S
C4263 C4264 1.523 . S
C4264 C4245 1.368 . S
C4264 C4258 1.368 . S
C4264 C4263 1.523 . S
C4265 C4249 1.429 . S
C4265 C4261 1.429 1_655 S
C4265 C4266 1.523 . S
C4266 C4250 1.388 . S
C4266 C4262 1.368 . S
C4266 C4265 1.523 . S
H4267 C4242 0.950 . S
H4268 C4244 0.945 1_455 S
H4269 C4245 0.949 . S
H4270 C4247 0.950 . S
H4271 C4249 0.950 . S
C4272 C4273 1.349 . S
C4272 C4274 1.327 . S
C4272 H4297 0.950 . S
C4273 C4272 1.349 . S
C4273 C4289 1.349 . S
C4274 C4272 1.327 . S
C4274 C4293 1.429 . S
C4274 H4298 0.950 . S
C4275 C4292 1.574 . S
C4275 C4294 1.368 . S
C4275 H4299 0.949 . S
H4276 C4280 0.949 . S
C4277 C4278 1.349 . S
C4277 C4279 1.327 . S
C4277 H4300 0.950 . S
C4278 C4277 1.349 . S
C4278 C4290 1.349 . S
C4279 C4277 1.327 . S
C4279 C4295 1.429 . S
C4279 H4301 0.950 . S
C4280 H4276 0.949 . S
C4280 C4288 1.574 . S
C4280 C4296 1.368 . S
H4281 C4289 0.950 . S
H4282 C4287 0.950 . S
H4283 C4288 0.949 . S
H4284 C4290 0.950 . S
H4285 C4291 0.950 . S
H4286 C4292 0.949 . S
C4287 H4282 0.950 . S
C4287 C4289 1.327 . S
C4287 C4293 1.429 . S
C4288 C4280 1.574 . S
C4288 H4283 0.949 . S
C4288 C4294 1.368 . S
C4289 C4273 1.349 . S
C4289 H4281 0.950 . S
C4289 C4287 1.327 . S
C4290 C4278 1.349 . S
C4290 H4284 0.950 . S
C4290 C4291 1.327 . S
C4291 H4285 0.950 . S
C4291 C4290 1.327 . S
C4291 C4295 1.429 . S
C4292 C4275 1.574 . S
C4292 H4286 0.949 . S
C4292 C4296 1.368 . S
C4293 C4274 1.429 . S
C4293 C4287 1.429 . S
C4293 C4294 1.523 . S
C4294 C4275 1.368 . S
C4294 C4288 1.368 . S
C4294 C4293 1.523 . S
C4295 C4279 1.429 . S
C4295 C4291 1.429 . S
C4295 C4296 1.523 . S
C4296 C4280 1.368 . S
C4296 C4292 1.368 . S
C4296 C4295 1.523 . S
H4297 C4272 0.950 . S
H4298 C4274 0.950 . S
H4299 C4275 0.949 . S
H4300 C4277 0.950 . S
H4301 C4279 0.950 . S
C4302 C4303 1.349 . S
C4302 C4304 1.327 . S
C4302 H4327 0.950 . S
C4303 C4302 1.349 . S
C4303 C4319 1.349 . S
C4304 C4302 1.327 . S
C4304 C4323 1.429 . S
C4304 H4328 0.950 . S
C4305 C4322 1.574 . S
C4305 C4324 1.368 . S
C4305 H4329 0.949 . S
H4306 C4310 0.949 . S
C4307 C4308 1.349 . S
C4307 C4309 1.327 . S
C4307 H4330 0.950 . S
C4308 C4307 1.349 . S
C4308 C4320 1.349 . S
C4309 C4307 1.327 . S
C4309 C4325 1.429 . S
C4309 H4331 0.950 . S
C4310 H4306 0.949 . S
C4310 C4318 1.574 . S
C4310 C4326 1.368 . S
H4311 C4319 0.950 . S
H4312 C4317 0.950 . S
H4313 C4318 0.949 . S
H4314 C4320 0.950 . S
H4315 C4321 0.950 . S
H4316 C4322 0.949 . S
C4317 H4312 0.950 . S
C4317 C4319 1.327 . S
C4317 C4323 1.429 . S
C4318 C4310 1.574 . S
C4318 H4313 0.949 . S
C4318 C4324 1.368 . S
C4319 C4303 1.349 . S
C4319 H4311 0.950 . S
C4319 C4317 1.327 . S
C4320 C4308 1.349 . S
C4320 H4314 0.950 . S
C4320 C4321 1.327 . S
C4321 H4315 0.950 . S
C4321 C4320 1.327 . S
C4321 C4325 1.429 . S
C4322 C4305 1.574 . S
C4322 H4316 0.949 . S
C4322 C4326 1.368 . S
C4323 C4304 1.429 . S
C4323 C4317 1.429 . S
C4323 C4324 1.523 . S
C4324 C4305 1.368 . S
C4324 C4318 1.368 . S
C4324 C4323 1.523 . S
C4325 C4309 1.429 . S
C4325 C4321 1.429 . S
C4325 C4326 1.523 . S
C4326 C4310 1.368 . S
C4326 C4322 1.368 . S
C4326 C4325 1.523 . S
H4327 C4302 0.950 . S
H4328 C4304 0.950 . S
H4329 C4305 0.949 . S
H4330 C4307 0.950 . S
H4331 C4309 0.950 . S
C4332 C4333 1.349 . S
C4332 C4334 1.327 . S
C4332 H4357 0.950 . S
C4333 C4332 1.349 . S
C4333 C4349 1.349 . S
C4334 C4332 1.327 . S
C4334 C4353 1.429 . S
C4334 H4358 0.950 . S
C4335 C4352 1.574 . S
C4335 C4354 1.368 . S
C4335 H4359 0.949 . S
H4336 C4340 0.949 . S
C4337 C4338 1.349 . S
C4337 C4339 1.327 . S
C4337 H4360 0.950 . S
C4338 C4337 1.349 . S
C4338 C4350 1.349 . S
C4339 C4337 1.327 . S
C4339 C4355 1.429 . S
C4339 H4361 0.950 . S
C4340 H4336 0.949 . S
C4340 C4348 1.574 . S
C4340 C4356 1.368 . S
H4341 C4349 0.950 . S
H4342 C4347 0.950 . S
H4343 C4348 0.949 . S
H4344 C4350 0.950 . S
H4345 C4351 0.950 . S
H4346 C4352 0.949 . S
C4347 H4342 0.950 . S
C4347 C4349 1.327 . S
C4347 C4353 1.429 . S
C4348 C4340 1.574 . S
C4348 H4343 0.949 . S
C4348 C4354 1.368 . S
C4349 C4333 1.349 . S
C4349 H4341 0.950 . S
C4349 C4347 1.327 . S
C4350 C4338 1.349 . S
C4350 H4344 0.950 . S
C4350 C4351 1.327 . S
C4351 H4345 0.950 . S
C4351 C4350 1.327 . S
C4351 C4355 1.429 . S
C4352 C4335 1.574 . S
C4352 H4346 0.949 . S
C4352 C4356 1.368 . S
C4353 C4334 1.429 . S
C4353 C4347 1.429 . S
C4353 C4354 1.523 . S
C4354 C4335 1.368 . S
C4354 C4348 1.368 . S
C4354 C4353 1.523 . S
C4355 C4339 1.429 . S
C4355 C4351 1.429 . S
C4355 C4356 1.523 . S
C4356 C4340 1.368 . S
C4356 C4352 1.368 . S
C4356 C4355 1.523 . S
H4357 C4332 0.950 . S
H4358 C4334 0.950 . S
H4359 C4335 0.949 . S
H4360 C4337 0.950 . S
H4361 C4339 0.950 . S
C4362 C4363 1.349 . S
C4362 C4364 1.327 . S
C4362 H4387 0.950 . S
C4363 C4362 1.349 . S
C4363 C4379 1.349 . S
C4364 C4362 1.327 . S
C4364 C4383 1.429 . S
C4364 H4388 0.950 . S
C4365 C4382 1.574 . S
C4365 C4384 1.368 . S
C4365 H4389 0.949 . S
H4366 C4370 0.949 . S
C4367 C4368 1.349 . S
C4367 C4369 1.327 . S
C4367 H4390 0.950 . S
C4368 C4367 1.349 . S
C4368 C4380 1.349 . S
C4369 C4367 1.327 . S
C4369 C4385 1.429 . S
C4369 H4391 0.950 . S
C4370 H4366 0.949 . S
C4370 C4378 1.574 . S
C4370 C4386 1.368 . S
H4371 C4379 0.950 . S
H4372 C4377 0.950 . S
H4373 C4378 0.949 . S
H4374 C4380 0.950 . S
H4375 C4381 0.950 . S
H4376 C4382 0.949 . S
C4377 H4372 0.950 . S
C4377 C4379 1.327 . S
C4377 C4383 1.429 . S
C4378 C4370 1.574 . S
C4378 H4373 0.949 . S
C4378 C4384 1.368 . S
C4379 C4363 1.349 . S
C4379 H4371 0.950 . S
C4379 C4377 1.327 . S
C4380 C4368 1.349 . S
C4380 H4374 0.950 . S
C4380 C4381 1.327 . S
C4381 H4375 0.950 . S
C4381 C4380 1.327 . S
C4381 C4385 1.429 . S
C4382 C4365 1.574 . S
C4382 H4376 0.949 . S
C4382 C4386 1.368 . S
C4383 C4364 1.429 . S
C4383 C4377 1.429 . S
C4383 C4384 1.523 . S
C4384 C4365 1.368 . S
C4384 C4378 1.368 . S
C4384 C4383 1.523 . S
C4385 C4369 1.429 . S
C4385 C4381 1.429 . S
C4385 C4386 1.523 . S
C4386 C4370 1.368 . S
C4386 C4382 1.368 . S
C4386 C4385 1.523 . S
H4387 C4362 0.950 . S
H4388 C4364 0.950 . S
H4389 C4365 0.949 . S
H4390 C4367 0.950 . S
H4391 C4369 0.950 . S
C4392 C4393 1.349 . S
C4392 C4394 1.327 . S
C4392 H4417 0.950 . S
C4393 C4392 1.349 . S
C4393 C4409 1.349 . S
C4394 C4392 1.327 . S
C4394 C4413 1.429 . S
C4394 H4418 0.950 . S
C4395 C4412 1.574 . S
C4395 C4414 1.368 . S
C4395 H4419 0.949 . S
H4396 C4400 0.949 . S
C4397 C4398 1.349 . S
C4397 C4399 1.327 . S
C4397 H4420 0.950 . S
C4398 C4397 1.349 . S
C4398 C4410 1.349 . S
C4399 C4397 1.327 . S
C4399 C4415 1.429 . S
C4399 H4421 0.950 . S
C4400 H4396 0.949 . S
C4400 C4408 1.574 . S
C4400 C4416 1.368 . S
H4401 C4409 0.950 . S
H4402 C4407 0.950 . S
H4403 C4408 0.949 . S
H4404 C4410 0.950 . S
H4405 C4411 0.950 . S
H4406 C4412 0.949 . S
C4407 H4402 0.950 . S
C4407 C4409 1.327 . S
C4407 C4413 1.429 . S
C4408 C4400 1.574 . S
C4408 H4403 0.949 . S
C4408 C4414 1.368 . S
C4409 C4393 1.349 . S
C4409 H4401 0.950 . S
C4409 C4407 1.327 . S
C4410 C4398 1.349 . S
C4410 H4404 0.950 . S
C4410 C4411 1.327 . S
C4411 H4405 0.950 . S
C4411 C4410 1.327 . S
C4411 C4415 1.429 . S
C4412 C4395 1.574 . S
C4412 H4406 0.949 . S
C4412 C4416 1.368 . S
C4413 C4394 1.429 . S
C4413 C4407 1.429 . S
C4413 C4414 1.523 . S
C4414 C4395 1.368 . S
C4414 C4408 1.368 . S
C4414 C4413 1.523 . S
C4415 C4399 1.429 . S
C4415 C4411 1.429 . S
C4415 C4416 1.523 . S
C4416 C4400 1.368 . S
C4416 C4412 1.368 . S
C4416 C4415 1.523 . S
H4417 C4392 0.950 . S
H4418 C4394 0.950 . S
H4419 C4395 0.949 . S
H4420 C4397 0.950 . S
H4421 C4399 0.950 . S
C4422 C4423 1.349 . S
C4422 C4424 1.327 . S
C4422 H4447 0.950 . S
C4423 C4422 1.349 . S
C4423 C4439 1.349 . S
C4424 C4422 1.327 . S
C4424 C4443 1.429 . S
C4424 H4448 0.950 . S
C4425 C4442 1.574 . S
C4425 C4444 1.368 . S
C4425 H4449 0.949 . S
H4426 C4430 0.949 . S
C4427 C4428 1.349 . S
C4427 C4429 1.327 . S
C4427 H4450 0.950 . S
C4428 C4427 1.349 . S
C4428 C4440 1.349 . S
C4429 C4427 1.327 . S
C4429 C4445 1.429 . S
C4429 H4451 0.950 . S
C4430 H4426 0.949 . S
C4430 C4438 1.574 . S
C4430 C4446 1.368 . S
H4431 C4439 0.950 . S
H4432 C4437 0.950 . S
H4433 C4438 0.949 . S
H4434 C4440 0.950 . S
H4435 C4441 0.950 . S
H4436 C4442 0.949 . S
C4437 H4432 0.950 . S
C4437 C4439 1.327 . S
C4437 C4443 1.429 . S
C4438 C4430 1.574 . S
C4438 H4433 0.949 . S
C4438 C4444 1.368 . S
C4439 C4423 1.349 . S
C4439 H4431 0.950 . S
C4439 C4437 1.327 . S
C4440 C4428 1.349 . S
C4440 H4434 0.950 . S
C4440 C4441 1.327 . S
C4441 H4435 0.950 . S
C4441 C4440 1.327 . S
C4441 C4445 1.429 . S
C4442 C4425 1.574 . S
C4442 H4436 0.949 . S
C4442 C4446 1.368 . S
C4443 C4424 1.429 . S
C4443 C4437 1.429 . S
C4443 C4444 1.523 . S
C4444 C4425 1.368 . S
C4444 C4438 1.368 . S
C4444 C4443 1.523 . S
C4445 C4429 1.429 . S
C4445 C4441 1.429 . S
C4445 C4446 1.523 . S
C4446 C4430 1.368 . S
C4446 C4442 1.368 . S
C4446 C4445 1.523 . S
H4447 C4422 0.950 . S
H4448 C4424 0.950 . S
H4449 C4425 0.949 . S
H4450 C4427 0.950 . S
H4451 C4429 0.950 . S
C4452 C4453 1.349 . S
C4452 C4454 1.327 . S
C4452 H4477 0.950 . S
C4453 C4452 1.349 . S
C4453 C4469 1.349 . S
C4454 C4452 1.327 . S
C4454 C4473 1.429 . S
C4454 H4478 0.950 . S
C4455 C4472 1.574 . S
C4455 C4474 1.368 . S
C4455 H4479 0.949 . S
H4456 C4460 0.949 . S
C4457 C4458 1.349 . S
C4457 C4459 1.327 . S
C4457 H4480 0.950 . S
C4458 C4457 1.349 . S
C4458 C4470 1.349 . S
C4459 C4457 1.327 . S
C4459 C4475 1.429 . S
C4459 H4481 0.950 . S
C4460 H4456 0.949 . S
C4460 C4468 1.574 . S
C4460 C4476 1.368 . S
H4461 C4469 0.950 . S
H4462 C4467 0.950 . S
H4463 C4468 0.949 . S
H4464 C4470 0.950 . S
H4465 C4471 0.950 . S
H4466 C4472 0.949 . S
C4467 H4462 0.950 . S
C4467 C4469 1.327 . S
C4467 C4473 1.429 . S
C4468 C4460 1.574 . S
C4468 H4463 0.949 . S
C4468 C4474 1.368 . S
C4469 C4453 1.349 . S
C4469 H4461 0.950 . S
C4469 C4467 1.327 . S
C4470 C4458 1.349 . S
C4470 H4464 0.950 . S
C4470 C4471 1.327 . S
C4471 H4465 0.950 . S
C4471 C4470 1.327 . S
C4471 C4475 1.429 . S
C4472 C4455 1.574 . S
C4472 H4466 0.949 . S
C4472 C4476 1.368 . S
C4473 C4454 1.429 . S
C4473 C4467 1.429 . S
C4473 C4474 1.523 . S
C4474 C4455 1.368 . S
C4474 C4468 1.368 . S
C4474 C4473 1.523 . S
C4475 C4459 1.429 . S
C4475 C4471 1.429 . S
C4475 C4476 1.523 . S
C4476 C4460 1.368 . S
C4476 C4472 1.368 . S
C4476 C4475 1.523 . S
H4477 C4452 0.950 . S
H4478 C4454 0.950 . S
H4479 C4455 0.949 . S
H4480 C4457 0.950 . S
H4481 C4459 0.950 . S
C4482 C4483 1.349 . S
C4482 C4484 1.327 . S
C4482 H4507 0.950 . S
C4483 C4482 1.349 . S
C4483 C4499 1.349 . S
C4484 C4482 1.327 . S
C4484 C4503 1.429 . S
C4484 H4508 0.950 . S
C4485 C4502 1.574 . S
C4485 C4504 1.368 . S
C4485 H4509 0.949 . S
H4486 C4490 0.949 . S
C4487 C4488 1.349 . S
C4487 C4489 1.327 . S
C4487 H4510 0.950 . S
C4488 C4487 1.349 . S
C4488 C4500 1.349 . S
C4489 C4487 1.327 . S
C4489 C4505 1.429 . S
C4489 H4511 0.950 . S
C4490 H4486 0.949 . S
C4490 C4498 1.574 . S
C4490 C4506 1.368 . S
H4491 C4499 0.950 . S
H4492 C4497 0.950 . S
H4493 C4498 0.949 . S
H4494 C4500 0.950 . S
H4495 C4501 0.950 . S
H4496 C4502 0.949 . S
C4497 H4492 0.950 . S
C4497 C4499 1.327 . S
C4497 C4503 1.429 . S
C4498 C4490 1.574 . S
C4498 H4493 0.949 . S
C4498 C4504 1.368 . S
C4499 C4483 1.349 . S
C4499 H4491 0.950 . S
C4499 C4497 1.327 . S
C4500 C4488 1.349 . S
C4500 H4494 0.950 . S
C4500 C4501 1.327 . S
C4501 H4495 0.950 . S
C4501 C4500 1.327 . S
C4501 C4505 1.429 . S
C4502 C4485 1.574 . S
C4502 H4496 0.949 . S
C4502 C4506 1.368 . S
C4503 C4484 1.429 . S
C4503 C4497 1.429 . S
C4503 C4504 1.523 . S
C4504 C4485 1.368 . S
C4504 C4498 1.368 . S
C4504 C4503 1.523 . S
C4505 C4489 1.429 . S
C4505 C4501 1.429 . S
C4505 C4506 1.523 . S
C4506 C4490 1.368 . S
C4506 C4502 1.368 . S
C4506 C4505 1.523 . S
H4507 C4482 0.950 . S
H4508 C4484 0.950 . S
H4509 C4485 0.949 . S
H4510 C4487 0.950 . S
H4511 C4489 0.950 . S
C4512 C4513 1.349 . S
C4512 C4514 1.327 . S
C4512 H4537 0.950 . S
C4513 C4512 1.349 . S
C4513 C4529 1.349 . S
C4514 C4512 1.327 . S
C4514 C4533 1.429 . S
C4514 H4538 0.950 . S
C4515 C4532 1.574 . S
C4515 C4534 1.368 . S
C4515 H4539 0.949 . S
H4516 C4520 0.949 . S
C4517 C4518 1.349 . S
C4517 C4519 1.327 . S
C4517 H4540 0.950 . S
C4518 C4517 1.349 . S
C4518 C4530 1.349 . S
C4519 C4517 1.327 . S
C4519 C4535 1.429 . S
C4519 H4541 0.950 . S
C4520 H4516 0.949 . S
C4520 C4528 1.574 . S
C4520 C4536 1.368 . S
H4521 C4529 0.950 . S
H4522 C4527 0.950 . S
H4523 C4528 0.949 . S
H4524 C4530 0.950 . S
H4525 C4531 0.950 . S
H4526 C4532 0.949 . S
C4527 H4522 0.950 . S
C4527 C4529 1.327 . S
C4527 C4533 1.429 . S
C4528 C4520 1.574 . S
C4528 H4523 0.949 . S
C4528 C4534 1.368 . S
C4529 C4513 1.349 . S
C4529 H4521 0.950 . S
C4529 C4527 1.327 . S
C4530 C4518 1.349 . S
C4530 H4524 0.950 . S
C4530 C4531 1.327 . S
C4531 H4525 0.950 . S
C4531 C4530 1.327 . S
C4531 C4535 1.429 . S
C4532 C4515 1.574 . S
C4532 H4526 0.949 . S
C4532 C4536 1.368 . S
C4533 C4514 1.429 . S
C4533 C4527 1.429 . S
C4533 C4534 1.523 . S
C4534 C4515 1.368 . S
C4534 C4528 1.368 . S
C4534 C4533 1.523 . S
C4535 C4519 1.429 . S
C4535 C4531 1.429 . S
C4535 C4536 1.523 . S
C4536 C4520 1.368 . S
C4536 C4532 1.368 . S
C4536 C4535 1.523 . S
H4537 C4512 0.950 . S
H4538 C4514 0.950 . S
H4539 C4515 0.949 . S
H4540 C4517 0.950 . S
H4541 C4519 0.950 . S
C4542 C4543 1.349 . S
C4542 C4544 1.327 . S
C4542 H4567 0.950 1_545 S
C4543 C4542 1.349 . S
C4543 C4559 1.349 . S
C4544 C4542 1.327 . S
C4544 C4563 1.429 . S
C4544 H4568 0.950 1_545 S
C4545 C4562 1.574 . S
C4545 C4564 1.368 . S
C4545 H4569 0.949 . S
H4546 C4550 0.949 . S
C4547 C4548 1.349 . S
C4547 C4549 1.327 . S
C4547 H4570 0.950 . S
C4548 C4547 1.349 . S
C4548 C4560 1.349 1_545 S
C4549 C4547 1.327 . S
C4549 C4565 1.429 . S
C4549 H4571 0.950 . S
C4550 H4546 0.949 . S
C4550 C4558 1.574 . S
C4550 C4566 1.368 1_565 S
H4551 C4559 0.950 . S
H4552 C4557 0.950 . S
H4553 C4558 0.949 . S
H4554 C4560 0.950 . S
H4555 C4561 0.950 . S
H4556 C4562 0.949 . S
C4557 H4552 0.950 . S
C4557 C4559 1.327 . S
C4557 C4563 1.429 . S
C4558 C4550 1.574 . S
C4558 H4553 0.949 . S
C4558 C4564 1.368 1_565 S
C4559 C4543 1.349 . S
C4559 H4551 0.950 . S
C4559 C4557 1.327 . S
C4560 C4548 1.349 1_565 S
C4560 H4554 0.950 . S
C4560 C4561 1.327 . S
C4561 H4555 0.950 . S
C4561 C4560 1.327 . S
C4561 C4565 1.429 1_565 S
C4562 C4545 1.574 . S
C4562 H4556 0.949 . S
C4562 C4566 1.368 . S
C4563 C4544 1.429 . S
C4563 C4557 1.429 . S
C4563 C4564 1.523 . S
C4564 C4545 1.368 . S
C4564 C4558 1.368 1_545 S
C4564 C4563 1.523 . S
C4565 C4549 1.429 . S
C4565 C4561 1.429 1_545 S
C4565 C4566 1.523 . S
C4566 C4550 1.368 1_545 S
C4566 C4562 1.368 . S
C4566 C4565 1.523 . S
H4567 C4542 0.950 1_565 S
H4568 C4544 0.950 1_565 S
H4569 C4545 0.949 . S
H4570 C4547 0.950 . S
H4571 C4549 0.950 . S
C2413 C49 1.514 . S
C2418 C2020 1.549 . S
C2443 C137 1.601 . S
C2448 C2066 1.604 . S
C2478 C2098 1.573 . S
C2473 C205 1.541 . S
C2503 C196 1.515 . S
C2508 C2151 1.549 . S
C2533 C57 1.536 . S
C2538 C2197 1.583 . S
C2563 C145 1.601 . S
C2568 C2236 1.611 . S
C2593 C313 1.518 . S
C2598 C2190 1.550 . S
C2628 C2243 1.611 . S
C2623 C401 1.602 . S
C2658 C2144 1.579 . S
C2653 C489 1.541 . S
C2683 C469 1.519 . S
C2688 C2105 1.545 . S
C2718 C1999 1.578 . S
C2713 C293 1.541 . S
C2743 C381 1.602 . S
C2748 C2045 1.604 . S
C2773 C577 1.693 . S
C2778 C2275 1.699 . S
C2803 C645 1.664 . S
C2808 C2342 1.652 . S
C2838 C2388 1.610 . S
C2833 C733 1.616 . S
C2863 C724 1.574 . S
C2868 C1599 1.573 . S
C2893 C585 1.668 . S
C2898 C1645 1.667 . S
C2923 C636 1.668 . S
C2928 C1691 1.663 . S
C2953 C841 1.572 . S
C2958 C1638 1.570 . S
C2983 C937 1.674 . S
C2988 C1684 1.667 . S
C3018 C1592 1.669 . S
C3013 C1025 1.671 . S
C3048 C2367 1.696 . S
C3043 C988 1.700 . S
C3078 C2296 1.614 . S
C3073 C821 1.613 . S
C3108 C2321 1.656 . S
C3103 C900 1.669 . S
C3133 C1105 1.574 . S
C3138 C1723 1.581 . S
C3163 C1193 1.669 . S
C3168 C1776 1.672 . S
C3193 C1281 1.667 . S
C3198 C1822 1.675 . S
C3223 C1289 1.693 . S
C3228 C1868 1.699 . S
C3258 C1921 1.610 . S
C3253 C1113 1.616 . S
C3288 C1967 1.652 . S
C3283 C1201 1.663 . S
C3318 C1914 1.695 . S
C3313 C1369 1.700 . S
C3348 C1960 1.656 . S
C3343 C1457 1.669 . S
C3373 C1553 1.613 . S
C3378 C1875 1.613 . S
C3408 C1829 1.578 . S
C3403 C1516 1.573 . S
C3433 C1349 1.671 . S
C3438 C1744 1.677 . S
C3468 C1783 1.676 . S
C3463 C1437 1.674 . S
C3498 C1606 1.528 . S
C3493 C29 1.522 . S
C3523 C117 1.403 . S
C3528 C1652 1.392 . S
C3558 C1698 1.564 . S
C3553 C225 1.563 . S
C3588 C1730 1.514 . S
C3583 C233 1.523 . S
C3618 C1769 1.548 . S
C3613 C20 1.563 . S
C3648 C1815 1.379 . S
C3643 C108 1.403 . S
C3673 C321 1.532 . S
C3678 C1836 1.532 . S
C3703 C409 1.405 . S
C3708 C1737 1.380 . S
C3733 C497 1.565 . S
C3738 C1790 1.548 . S
C3763 C460 1.533 . S
C3768 C1631 1.546 . S
C3798 C1677 1.565 . S
C3793 C284 1.562 . S
C3823 C372 1.405 . S
C3828 C1585 1.394 . S
C3858 C1861 1.385 . S
C3853 C557 1.408 . S
C3883 C665 1.559 . S
C3888 C1928 1.543 . S
C3913 C753 1.548 . S
C3918 C1974 1.531 . S
C3948 C2013 1.075 . S
C3943 C761 1.069 . S
C3973 C548 1.402 . S
C3978 C2059 1.394 . S
C4003 C673 1.081 . S
C4008 C2091 1.083 . S
C4033 C849 1.072 . S
C4038 C2112 1.065 . S
C4063 C929 1.090 . S
C4068 C2006 1.094 . S
C4098 C2052 1.401 . S
C4093 C1017 1.411 . S
C4123 C997 1.420 . S
C4128 C1907 1.409 . S
C4153 C812 1.546 . S
C4158 C1953 1.528 . S
C4188 C1882 1.532 . S
C4183 C909 1.562 . S
C4218 C2158 1.074 . S
C4213 C1085 1.069 . S
C4243 C1173 1.081 . S
C4248 C2204 1.084 . S
C4273 C1261 1.403 . S
C4278 C2229 1.382 . S
C4308 C2282 1.385 . S
C4303 C1252 1.408 . S
C4338 C2335 1.530 . S
C4333 C1076 1.547 . S
C4363 C1164 1.559 . S
C4368 C2381 1.543 . S
C4393 C1377 1.420 . S
C4398 C2374 1.409 . S
C4423 C1465 1.562 . S
C4428 C2289 1.532 . S
C4458 C2328 1.528 . S
C4453 C1545 1.546 . S
C4488 C2183 1.072 . S
C4483 C1525 1.065 . S
C4518 C2250 1.389 . S
C4513 C1340 1.411 . S
C4543 C1428 1.090 . S
C4548 C2137 1.094 . S
