# Generated by pormake.
# Topology csq, (4,8)-cn, num edge types: 1
# Building blocks:
#     Node 0, Type 0, BuildingBlock: KUFVIS_clean_linker_0, # of connection points: 4
#     Node 1, Type 0, BuildingBlock: KUFVIS_clean_linker_0, # of connection points: 4
#     Node 2, Type 0, BuildingBlock: KUFVIS_clean_linker_0, # of connection points: 4
#     Node 3, Type 0, BuildingBlock: KUFVIS_clean_linker_0, # of connection points: 4
#     Node 4, Type 0, BuildingBlock: KUFVIS_clean_linker_0, # of connection points: 4
#     Node 5, Type 0, BuildingBlock: KUFVIS_clean_linker_0, # of connection points: 4
#     Node 6, Type 1, BuildingBlock: TAGTUT_clean_sbu_1, # of connection points: 8
#     Node 7, Type 1, BuildingBlock: TAGTUT_clean_sbu_1, # of connection points: 8
#     Node 8, Type 1, BuildingBlock: TAGTUT_clean_sbu_1, # of connection points: 8
#     Edge 9, Type (0, 1), BuildingBlock: TEMPAE_clean_linker_10, # of connection points: 2
#     Edge 10, Type (0, 1), BuildingBlock: TEMPAE_clean_linker_10, # of connection points: 2
#     Edge 11, Type (0, 1), BuildingBlock: TEMPAE_clean_linker_10, # of connection points: 2
#     Edge 12, Type (0, 1), BuildingBlock: TEMPAE_clean_linker_10, # of connection points: 2
#     Edge 13, Type (0, 1), BuildingBlock: TEMPAE_clean_linker_10, # of connection points: 2
#     Edge 14, Type (0, 1), BuildingBlock: TEMPAE_clean_linker_10, # of connection points: 2
#     Edge 15, Type (0, 1), BuildingBlock: TEMPAE_clean_linker_10, # of connection points: 2
#     Edge 16, Type (0, 1), BuildingBlock: TEMPAE_clean_linker_10, # of connection points: 2
#     Edge 17, Type (0, 1), BuildingBlock: TEMPAE_clean_linker_10, # of connection points: 2
#     Edge 18, Type (0, 1), BuildingBlock: TEMPAE_clean_linker_10, # of connection points: 2
#     Edge 19, Type (0, 1), BuildingBlock: TEMPAE_clean_linker_10, # of connection points: 2
#     Edge 20, Type (0, 1), BuildingBlock: TEMPAE_clean_linker_10, # of connection points: 2
#     Edge 21, Type (0, 1), BuildingBlock: TEMPAE_clean_linker_10, # of connection points: 2
#     Edge 22, Type (0, 1), BuildingBlock: TEMPAE_clean_linker_10, # of connection points: 2
#     Edge 23, Type (0, 1), BuildingBlock: TEMPAE_clean_linker_10, # of connection points: 2
#     Edge 24, Type (0, 1), BuildingBlock: TEMPAE_clean_linker_10, # of connection points: 2
#     Edge 25, Type (0, 1), BuildingBlock: TEMPAE_clean_linker_10, # of connection points: 2
#     Edge 26, Type (0, 1), BuildingBlock: TEMPAE_clean_linker_10, # of connection points: 2
#     Edge 27, Type (0, 1), BuildingBlock: TEMPAE_clean_linker_10, # of connection points: 2
#     Edge 28, Type (0, 1), BuildingBlock: TEMPAE_clean_linker_10, # of connection points: 2
#     Edge 29, Type (0, 1), BuildingBlock: TEMPAE_clean_linker_10, # of connection points: 2
#     Edge 30, Type (0, 1), BuildingBlock: TEMPAE_clean_linker_10, # of connection points: 2
#     Edge 31, Type (0, 1), BuildingBlock: TEMPAE_clean_linker_10, # of connection points: 2
#     Edge 32, Type (0, 1), BuildingBlock: TEMPAE_clean_linker_10, # of connection points: 2
# Relax obj value: 0.044
# Max RMSD: 0.132
# Mean RMSD: 0.100
data_MOF--net-csq--node1-TAGTUT_clean_sbu_1--node2-KUFVIS_clean_linker_0--edge1-TEMPAE_clean_linker_10
_symmetry_space_group_name_H-M    P1
_symmetry_Int_Tables_number       1
_symmetry_cell_setting            triclinic
loop_
_symmetry_equiv_pos_as_xyz
'x, y, z'
_cell_length_a     54.582431
_cell_length_b     54.071603
_cell_length_c     18.543504
_cell_angle_alpha  92.523643
_cell_angle_beta   92.118356
_cell_angle_gamma 119.66595
loop_
_atom_site_label
_atom_site_type_symbol
_atom_site_fract_x
_atom_site_fract_y
_atom_site_fract_z
_atom_type_partial_charge
H0 H 0.33216 0.47368 0.17214 0.0
H1 H 0.26266 0.47198 0.274 0.0
H2 H 0.27488 0.49116 0.04954 0.0
H3 H 0.22872 0.46588 0.03834 0.0
H4 H 0.16206 0.47384 0.13051 0.0
H5 H 0.23417 0.49004 0.26684 0.0
C6 C 0.31372 0.47626 0.16797 0.0
C7 C 0.30532 0.48253 0.10194 0.0
C8 C 0.29911 0.47379 0.23017 0.0
C9 C 0.27423 0.47534 0.22591 0.0
C10 C 0.26413 0.48019 0.15985 0.0
C11 C 0.28077 0.48505 0.09911 0.0
C12 C 0.2359 0.479 0.15308 0.0
C13 C 0.22064 0.47141 0.08499 0.0
C14 C 0.19439 0.47006 0.07588 0.0
C15 C 0.18224 0.47457 0.13684 0.0
C16 C 0.19601 0.48084 0.20603 0.0
C17 C 0.22327 0.48403 0.21366 0.0
H18 H 0.69201 0.16926 0.1438 0.0
H19 H 0.76828 0.23887 0.24821 0.0
H20 H 0.7505 0.23472 0.01741 0.0
H21 H 0.79961 0.25099 0.02654 0.0
H22 H 0.86271 0.33498 0.10703 0.0
H23 H 0.78846 0.28912 0.22422 0.0
C24 C 0.71193 0.18885 0.14085 0.0
C25 C 0.71963 0.20004 0.07345 0.0
C26 C 0.7292 0.20256 0.20431 0.0
C27 C 0.75451 0.2285 0.19981 0.0
C28 C 0.76266 0.24028 0.13232 0.0
C29 C 0.74474 0.22598 0.06959 0.0
C30 C 0.79037 0.2667 0.12617 0.0
C31 C 0.80674 0.26865 0.06699 0.0
C32 C 0.83275 0.29328 0.06074 0.0
C33 C 0.84236 0.31611 0.11242 0.0
C34 C 0.82656 0.31506 0.17097 0.0
C35 C 0.80069 0.29007 0.17866 0.0
H36 H 0.5636 0.87021 0.0701 0.0
H37 H 0.57047 0.8023 0.1593 0.0
H38 H 0.51218 0.78509 0.97335 0.0
H39 H 0.52558 0.75012 0.94879 0.0
H40 H 0.51094 0.67829 0.06765 0.0
H41 H 0.53781 0.75855 0.18292 0.0
C42 C 0.55756 0.84778 0.06765 0.0
C43 C 0.5368 0.82894 0.01552 0.0
C44 C 0.56919 0.83818 0.11997 0.0
C45 C 0.56095 0.80919 0.11842 0.0
C46 C 0.54057 0.78945 0.06513 0.0
C47 C 0.52856 0.79972 0.01326 0.0
C48 C 0.53139 0.7583 0.0658 0.0
C49 C 0.52405 0.74097 0.00037 0.0
C50 C 0.516 0.71193 0.0013 0.0
C51 C 0.51549 0.70025 0.06724 0.0
C52 C 0.5242 0.71715 0.13194 0.0
C53 C 0.5316 0.74596 0.13171 0.0
H54 H 0.865 0.52955 0.09944 0.0
H55 H 0.79016 0.51716 0.19639 0.0
H56 H 0.8012 0.53373 0.96982 0.0
H57 H 0.75723 0.52155 0.96343 0.0
H58 H 0.69675 0.53492 0.07143 0.0
H59 H 0.76522 0.5374 0.19735 0.0
C60 C 0.84445 0.52807 0.09515 0.0
C61 C 0.83384 0.5303 0.02742 0.0
C62 C 0.82902 0.52392 0.15669 0.0
C63 C 0.80255 0.52231 0.14965 0.0
C64 C 0.79212 0.52696 0.08371 0.0
C65 C 0.80803 0.53033 0.02199 0.0
C66 C 0.76523 0.52879 0.08078 0.0
C67 C 0.75049 0.5261 0.01388 0.0
C68 C 0.7267 0.52959 0.01089 0.0
C69 C 0.71604 0.53378 0.07488 0.0
C70 C 0.72933 0.53571 0.14262 0.0
C71 C 0.75429 0.53395 0.14498 0.0
H72 H 0.35043 0.84177 0.08431 0.0
H73 H 0.28803 0.78365 0.21807 0.0
H74 H 0.27374 0.77174 0.98464 0.0
H75 H 0.24973 0.7247 0.01312 0.0
H76 H 0.1752 0.68196 0.13016 0.0
H77 H 0.24006 0.76554 0.20829 0.0
C78 C 0.33013 0.82282 0.0892 0.0
C79 C 0.31361 0.80706 0.02657 0.0
C80 C 0.32074 0.81482 0.15808 0.0
C81 C 0.29468 0.79012 0.16449 0.0
C82 C 0.27718 0.7742 0.10233 0.0
C83 C 0.28687 0.78316 0.03326 0.0
C84 C 0.24886 0.74854 0.10984 0.0
C85 C 0.23778 0.72477 0.0584 0.0
C86 C 0.21136 0.70059 0.06614 0.0
C87 C 0.19591 0.70032 0.12466 0.0
C88 C 0.20619 0.72346 0.17566 0.0
C89 C 0.23261 0.74757 0.16869 0.0
H90 H 0.50248 0.33388 0.21149 0.0
H91 H 0.53487 0.28105 0.2868 0.0
H92 H 0.48843 0.26132 0.07734 0.0
H93 H 0.51838 0.24702 0.0494 0.0
H94 H 0.52864 0.17864 0.1195 0.0
H95 H 0.51399 0.23 0.27629 0.0
C96 C 0.50469 0.31508 0.2032 0.0
C97 C 0.49406 0.29838 0.13842 0.0
C98 C 0.51942 0.30908 0.25626 0.0
C99 C 0.52294 0.28517 0.2458 0.0
C100 C 0.5121 0.26754 0.18071 0.0
C101 C 0.4974 0.27441 0.12747 0.0
C102 C 0.51742 0.24314 0.16592 0.0
C103 C 0.52 0.23553 0.09394 0.0
C104 C 0.52329 0.21198 0.07757 0.0
C105 C 0.52639 0.19712 0.13326 0.0
C106 C 0.52188 0.20248 0.20454 0.0
C107 C 0.51808 0.22608 0.22147 0.0
C108 C 0.98406 0.42079 0.77258 0.0
C109 C 0.06887 0.47357 0.70385 0.0
C110 C 0.05382 0.56149 0.74298 0.0
Mg111 Mg 0.00974 0.44569 0.62771 0.0
O112 O 1.00394 0.47489 0.66858 0.0
Mg113 Mg 0.02269 0.49267 0.76639 0.0
Mg114 Mg 0.01721 0.51026 0.61678 0.0
O115 O 0.03066 0.5456 0.56509 0.0
Mg116 Mg 0.02648 0.57571 0.60636 0.0
Mg117 Mg 0.0115 0.52794 0.46764 0.0
C118 C 0.98156 0.45919 0.49053 0.0
C119 C 0.06067 0.51125 0.49534 0.0
O120 O 0.9962 0.44629 0.80331 0.0
O121 O 0.98632 0.41575 0.70561 0.0
O122 O 0.05937 0.48533 0.74696 0.0
O123 O 0.054 0.45779 0.64801 0.0
O124 O 0.98876 0.44252 0.5209 0.0
O125 O 0.98845 0.48404 0.5192 0.0
C126 C 0.97352 0.50923 0.73782 0.0
O127 O 0.98109 0.51481 0.67278 0.0
O128 O 0.98614 0.50067 0.78094 0.0
O129 O 0.0384 0.57433 0.43007 0.0
O130 O 0.04987 0.60521 0.52776 0.0
O131 O 0.97482 0.53566 0.48887 0.0
C132 C 0.05139 0.5999 0.4605 0.0
O133 O 0.98256 0.56416 0.58825 0.0
O134 O 0.04762 0.57885 0.71263 0.0
C135 C 0.96664 0.54803 0.53417 0.0
O136 O 0.04584 0.53638 0.71439 0.0
O137 O 0.05333 0.50583 0.56061 0.0
O138 O 0.04786 0.51966 0.45232 0.0
C139 C 0.46102 0.03761 0.78165 0.0
C140 C 0.4334 0.94983 0.70592 0.0
C141 C 0.54182 0.97963 0.72662 0.0
Mg142 Mg 0.45735 0.00617 0.63382 0.0
O143 O 0.49422 0.01855 0.67246 0.0
Mg144 Mg 0.49841 1.00375 0.76618 0.0
Mg145 Mg 0.51906 0.01042 0.61334 0.0
O146 O 0.54377 1.0017 0.55496 0.0
Mg147 Mg 0.58001 0.012 0.59589 0.0
Mg148 Mg 0.54052 0.01824 0.46345 0.0
C149 C 0.49384 0.03885 0.50144 0.0
C150 C 0.47946 0.96253 0.48339 0.0
O151 O 0.47621 0.02807 0.81091 0.0
O152 O 0.4511 0.03107 0.71562 0.0
O153 O 0.45571 0.96288 0.74817 0.0
O154 O 0.42955 0.96129 0.65112 0.0
O155 O 0.47014 0.02651 0.53156 0.0
O156 O 0.51529 0.03671 0.52429 0.0
C157 C 0.55939 0.05897 0.74214 0.0
O158 O 0.55718 0.0508 0.67496 0.0
O159 O 0.54018 0.04436 0.78418 0.0
O160 O 0.56532 0.99669 0.41622 0.0
O161 O 0.58937 0.99107 0.50959 0.0
O162 O 0.58233 0.05958 0.49072 0.0
C163 C 0.5816 0.98779 0.44215 0.0
O164 O 0.60773 0.05747 0.58486 0.0
O165 O 0.56554 0.98956 0.69655 0.0
C166 C 0.60424 0.07124 0.53483 0.0
O167 O 0.52208 0.98417 0.70287 0.0
O168 O 0.48138 0.97055 0.55063 0.0
O169 O 0.49896 0.97705 0.44164 0.0
C170 C 0.55504 0.58468 0.43216 0.0
C171 C 0.59563 0.53563 0.49658 0.0
C172 C 0.49294 0.449 0.51978 0.0
Mg173 Mg 0.57025 0.56762 0.57916 0.0
O174 O 0.53308 0.53807 0.55481 0.0
Mg175 Mg 0.52596 0.51465 0.46219 0.0
Mg176 Mg 0.51467 0.5077 0.62285 0.0
O177 O 0.49647 0.47713 0.69026 0.0
Mg178 Mg 0.4605 0.44564 0.66431 0.0
Mg179 Mg 0.50235 0.50087 0.78125 0.0
C180 C 0.53954 0.56616 0.72614 0.0
C181 C 0.56379 0.51179 0.73606 0.0
O182 O 0.54082 0.5582 0.40815 0.0
O183 O 0.5679 0.59258 0.49529 0.0
O184 O 0.57111 0.52161 0.46376 0.0
O185 O 0.6006 0.55399 0.54921 0.0
O186 O 0.56112 0.57829 0.68762 0.0
O187 O 0.51918 0.54057 0.71025 0.0
C188 C 0.46473 0.50326 0.51116 0.0
O189 O 0.47167 0.50176 0.57697 0.0
O190 O 0.4817 0.50774 0.46138 0.0
O191 O 0.48651 0.45766 0.83814 0.0
O192 O 0.46128 0.42183 0.75284 0.0
O193 O 0.45679 0.49337 0.77295 0.0
C194 C 0.47244 0.43083 0.8174 0.0
O195 O 0.42918 0.45805 0.69 0.0
O196 O 0.47181 0.43473 0.55834 0.0
C197 C 0.43287 0.47751 0.73822 0.0
O198 O 0.51059 0.47555 0.53494 0.0
O199 O 0.5573 0.51321 0.66973 0.0
O200 O 0.54659 0.5077 0.78513 0.0
C201 C 0.15323 0.46205 0.27777 0.0
C202 C 0.18096 0.48371 0.26878 0.0
C203 C 0.13619 0.46606 0.32657 0.0
C204 C 0.14692 0.49254 0.36733 0.0
C205 C 0.17563 0.51372 0.36256 0.0
C206 C 0.19236 0.50905 0.31339 0.0
C207 C 0.10596 0.44265 0.33037 0.0
C208 C 0.1881 0.54208 0.40571 0.0
C209 C 0.09161 0.5147 0.39522 0.0
C210 C 0.0842 0.50781 0.46644 0.0
C211 C 0.11254 0.51073 0.36396 0.0
C212 C 0.12683 0.49951 0.4044 0.0
C213 C 0.12026 0.49334 0.47721 0.0
C214 C 0.09903 0.49754 0.50732 0.0
C215 C 0.11875 0.51783 0.2864 0.0
C216 C 0.13487 0.48141 0.5228 0.0
H217 H 0.1444 0.44229 0.24393 0.0
H218 H 0.21374 0.52588 0.30668 0.0
H219 H 0.10067 0.43901 0.38753 0.0
H220 H 0.09156 0.44917 0.30459 0.0
H221 H 0.10185 0.42223 0.30241 0.0
H222 H 0.21148 0.55447 0.40466 0.0
H223 H 0.17923 0.55485 0.38295 0.0
H224 H 0.18244 0.53895 0.46277 0.0
H225 H 0.0807 0.52294 0.36278 0.0
H226 H 0.09387 0.49245 0.56247 0.0
H227 H 0.11307 0.4981 0.25234 0.0
H228 H 0.14166 0.53267 0.28264 0.0
H229 H 0.10687 0.52777 0.26353 0.0
H230 H 0.12469 0.45807 0.5095 0.0
H231 H 0.13331 0.48502 0.58148 0.0
H232 H 0.15751 0.49102 0.51176 0.0
C233 C 0.70782 0.15918 0.27468 0.0
C234 C 0.7201 0.1889 0.27394 0.0
C235 C 0.69339 0.14469 0.33369 0.0
C236 C 0.69191 0.16032 0.39507 0.0
C237 C 0.70696 0.19057 0.39809 0.0
C238 C 0.72065 0.20456 0.33702 0.0
C239 C 0.67785 0.11243 0.32766 0.0
C240 C 0.70707 0.20814 0.46367 0.0
C241 C 0.62134 0.11596 0.47155 0.0
C242 C 0.6274 0.09976 0.51861 0.0
C243 C 0.64277 0.13806 0.43639 0.0
C244 C 0.67113 0.14451 0.44937 0.0
C245 C 0.67777 0.13095 0.50434 0.0
C246 C 0.65576 0.10844 0.53792 0.0
C247 C 0.63443 0.15197 0.37896 0.0
C248 C 0.70785 0.13832 0.52311 0.0
H249 H 0.70818 0.14699 0.2271 0.0
H250 H 0.73036 0.22757 0.33734 0.0
H251 H 0.68397 0.10431 0.37489 0.0
H252 H 0.65474 0.10419 0.32749 0.0
H253 H 0.68215 0.10357 0.27762 0.0
H254 H 0.72551 0.23012 0.46644 0.0
H255 H 0.68759 0.20977 0.4607 0.0
H256 H 0.70747 0.19808 0.51427 0.0
H257 H 0.59951 0.10985 0.45749 0.0
H258 H 0.66074 0.09638 0.57507 0.0
H259 H 0.63438 0.14228 0.32487 0.0
H260 H 0.64963 0.17515 0.38004 0.0
H261 H 0.61302 0.14899 0.38568 0.0
H262 H 0.71372 0.12602 0.48506 0.0
H263 H 0.71039 0.1328 0.57886 0.0
H264 H 0.72273 0.16136 0.51849 0.0
C265 C 0.50776 0.68206 0.22622 0.0
C266 C 0.5301 0.70487 0.19535 0.0
C267 C 0.51266 0.66401 0.26932 0.0
C268 C 0.54045 0.66845 0.27985 0.0
C269 C 0.56323 0.69235 0.25163 0.0
C270 C 0.55777 0.71042 0.21016 0.0
C271 C 0.48788 0.63924 0.30006 0.0
C272 C 0.59308 0.69765 0.26068 0.0
C273 C 0.55678 0.63158 0.42838 0.0
C274 C 0.55341 0.6068 0.3908 0.0
C275 C 0.55258 0.65171 0.39306 0.0
C276 C 0.5455 0.64746 0.31775 0.0
C277 C 0.54283 0.62294 0.27889 0.0
C278 C 0.54642 0.60267 0.31609 0.0
C279 C 0.55489 0.67711 0.4368 0.0
C280 C 0.5359 0.61799 0.19814 0.0
H281 H 0.4863 0.67741 0.21314 0.0
H282 H 0.57489 0.72757 0.18435 0.0
H283 H 0.48391 0.61894 0.27187 0.0
H284 H 0.49259 0.63835 0.35831 0.0
H285 H 0.46828 0.64064 0.29395 0.0
H286 H 0.59911 0.69771 0.31848 0.0
H287 H 0.59443 0.68012 0.23103 0.0
H288 H 0.60863 0.71822 0.23985 0.0
H289 H 0.56169 0.63481 0.48638 0.0
H290 H 0.54372 0.58359 0.28678 0.0
H291 H 0.53442 0.67681 0.43207 0.0
H292 H 0.57097 0.69722 0.41536 0.0
H293 H 0.56071 0.67739 0.49501 0.0
H294 H 0.51466 0.61531 0.1855 0.0
H295 H 0.53614 0.59877 0.17529 0.0
H296 H 0.55129 0.6368 0.17067 0.0
C297 C 0.85895 0.51068 0.23405 0.0
C298 C 0.84137 0.52271 0.2288 0.0
C299 C 0.87488 0.514 0.29839 0.0
C300 C 0.87226 0.52864 0.36033 0.0
C301 C 0.85232 0.53811 0.35777 0.0
C302 C 0.83754 0.53558 0.29169 0.0
C303 C 0.89604 0.50364 0.29825 0.0
C304 C 0.8477 0.55248 0.42329 0.0
C305 C 0.91432 0.52251 0.51765 0.0
C306 C 0.94026 0.54747 0.51332 0.0
C307 C 0.89045 0.51759 0.47425 0.0
C308 C 0.89335 0.53736 0.42296 0.0
C309 C 0.91893 0.56371 0.4234 0.0
C310 C 0.94198 0.56859 0.46964 0.0
C311 C 0.8628 0.4904 0.47921 0.0
C312 C 0.92311 0.58531 0.36922 0.0
H313 H 0.86122 0.49963 0.18685 0.0
H314 H 0.82402 0.54496 0.28894 0.0
H315 H 0.91777 0.52216 0.30724 0.0
H316 H 0.89274 0.48957 0.34288 0.0
H317 H 0.89464 0.4917 0.24651 0.0
H318 H 0.82587 0.5491 0.4207 0.0
H319 H 0.85146 0.54451 0.47428 0.0
H320 H 0.86252 0.5758 0.42495 0.0
H321 H 0.91318 0.50609 0.55123 0.0
H322 H 0.96229 0.58765 0.46578 0.0
H323 H 0.85781 0.47625 0.42926 0.0
H324 H 0.84541 0.49532 0.48367 0.0
H325 H 0.86327 0.47864 0.5264 0.0
H326 H 0.92246 0.57616 0.31392 0.0
H327 H 0.94363 0.60542 0.37984 0.0
H328 H 0.90588 0.59051 0.37013 0.0
C329 C 0.34769 0.86238 0.22589 0.0
C330 C 0.33841 0.8331 0.22245 0.0
C331 C 0.36789 0.88109 0.27977 0.0
C332 C 0.37935 0.8703 0.33118 0.0
C333 C 0.36863 0.84046 0.33093 0.0
C334 C 0.34814 0.82213 0.2765 0.0
C335 C 0.37835 0.91267 0.27853 0.0
C336 C 0.38022 0.82811 0.38483 0.0
C337 C 0.45595 0.92361 0.38519 0.0
C338 C 0.45415 0.9363 0.45096 0.0
C339 C 0.43195 0.90096 0.34812 0.0
C340 C 0.40524 0.89072 0.37703 0.0
C341 C 0.40339 0.90237 0.44525 0.0
C342 C 0.42797 0.92491 0.48174 0.0
C343 C 0.43502 0.88905 0.27588 0.0
C344 C 0.37535 0.89182 0.47819 0.0
H345 H 0.33985 0.87079 0.18457 0.0
H346 H 0.34093 0.79946 0.27382 0.0
H347 H 0.37877 0.92193 0.33346 0.0
H348 H 0.40029 0.92367 0.26119 0.0
H349 H 0.365 0.91722 0.24084 0.0
H350 H 0.36668 0.80459 0.38515 0.0
H351 H 0.40167 0.83296 0.3708 0.0
H352 H 0.38224 0.83788 0.44015 0.0
H353 H 0.47617 0.93189 0.36148 0.0
H354 H 0.42644 0.93442 0.5326 0.0
H355 H 0.42457 0.89461 0.23212 0.0
H356 H 0.42449 0.86544 0.27426 0.0
H357 H 0.45751 0.89752 0.2642 0.0
H358 H 0.36017 0.89349 0.44003 0.0
H359 H 0.37728 0.90399 0.52997 0.0
H360 H 0.36625 0.86896 0.48841 0.0
C361 C 0.51476 0.32313 0.38073 0.0
C362 C 0.53094 0.3294 0.32046 0.0
C363 C 0.51406 0.34504 0.42253 0.0
C364 C 0.52937 0.37344 0.40185 0.0
C365 C 0.54886 0.38017 0.34771 0.0
C366 C 0.54992 0.35796 0.30874 0.0
C367 C 0.49434 0.33729 0.48299 0.0
C368 C 0.56553 0.41006 0.3235 0.0
C369 C 0.48883 0.41342 0.4223 0.0
C370 C 0.50385 0.43249 0.48173 0.0
C371 C 0.49785 0.39498 0.39363 0.0
C372 C 0.52149 0.39478 0.42786 0.0
C373 C 0.53679 0.41428 0.48761 0.0
C374 C 0.52803 0.43323 0.51303 0.0
C375 C 0.48171 0.37528 0.3277 0.0
C376 C 0.56134 0.41407 0.52737 0.0
H377 H 0.50009 0.30104 0.38974 0.0
H378 H 0.56234 0.36268 0.26171 0.0
H379 H 0.50398 0.35349 0.52948 0.0
H380 H 0.47455 0.33665 0.46352 0.0
H381 H 0.48876 0.31603 0.50192 0.0
H382 H 0.58346 0.41274 0.29177 0.0
H383 H 0.55139 0.41453 0.28871 0.0
H384 H 0.57391 0.4262 0.37017 0.0
H385 H 0.47 0.41276 0.3989 0.0
H386 H 0.53921 0.44764 0.56031 0.0
H387 H 0.47089 0.35282 0.34251 0.0
H388 H 0.49647 0.37722 0.28585 0.0
H389 H 0.46558 0.37993 0.30376 0.0
H390 H 0.55327 0.39446 0.55718 0.0
H391 H 0.57311 0.43287 0.56683 0.0
H392 H 0.57626 0.41363 0.48908 0.0
C393 C 0.51372 0.85818 -0.0007 0.0
C394 C 0.52391 0.84127 0.96738 0.0
C395 C 0.51163 0.87898 0.96124 0.0
C396 C 0.51908 0.88238 0.88862 0.0
C397 C 0.52591 0.86291 0.85349 0.0
C398 C 0.52856 0.84271 0.8936 0.0
C399 C 0.50452 0.89927 0.00142 0.0
C400 C 0.53284 0.86505 0.77524 0.0
C401 C 0.50745 0.93395 0.77759 0.0
C402 C 0.53505 0.95729 0.7784 0.0
C403 C 0.50168 0.90952 0.81398 0.0
C404 C 0.52393 0.90864 0.85337 0.0
C405 C 0.55144 0.93291 0.85817 0.0
C406 C 0.55673 0.95673 0.81981 0.0
C407 C 0.47213 0.88412 0.80652 0.0
C408 C 0.57558 0.9334 0.902 0.0
H409 H 0.51009 0.85705 0.0565 0.0
H410 H 0.53654 0.8298 0.86885 0.0
H411 H 0.52413 0.92012 0.01351 0.0
H412 H 0.48964 0.90314 0.96802 0.0
H413 H 0.49509 0.89116 0.05334 0.0
H414 H 0.53297 0.84573 0.75275 0.0
H415 H 0.51736 0.86816 0.74205 0.0
H416 H 0.55405 0.88384 0.77046 0.0
H417 H 0.49062 0.93398 0.74475 0.0
H418 H 0.57806 0.97466 0.82065 0.0
H419 H 0.46541 0.87502 0.85943 0.0
H420 H 0.47182 0.86719 0.76978 0.0
H421 H 0.45647 0.88967 0.78393 0.0
H422 H 0.56954 0.92757 0.95786 0.0
H423 H 0.59504 0.95466 0.90498 0.0
H424 H 0.58047 0.9174 0.87743 0.0
C425 C 0.71067 0.55314 0.92434 0.0
C426 C 0.7122 0.52895 0.9414 0.0
C427 C 0.69065 0.55117 0.87149 0.0
C428 C 0.67143 0.52424 0.83614 0.0
C429 C 0.67539 0.50061 0.84665 0.0
C430 C 0.69577 0.50321 0.89971 0.0
C431 C 0.68774 0.5771 0.86047 0.0
C432 C 0.6559 0.47177 0.80831 0.0
C433 C 0.59639 0.51015 0.83047 0.0
C434 C 0.59133 0.51417 0.75836 0.0
C435 C 0.62203 0.51261 0.85508 0.0
C436 C 0.64353 0.51931 0.80653 0.0
C437 C 0.63848 0.52269 0.733 0.0
C438 C 0.61237 0.52012 0.70973 0.0
C439 C 0.62624 0.5086 0.93398 0.0
C440 C 0.66072 0.52983 0.67924 0.0
H441 H 0.72367 0.57312 0.95636 0.0
H442 H 0.69713 0.48456 0.91282 0.0
H443 H 0.68327 0.5784 0.80235 0.0
H444 H 0.66973 0.57542 0.8901 0.0
H445 H 0.7071 0.59714 0.88085 0.0
H446 H 0.66525 0.45761 0.80965 0.0
H447 H 0.63573 0.4614 0.83533 0.0
H448 H 0.65092 0.47393 0.75116 0.0
H449 H 0.58028 0.50521 0.86859 0.0
H450 H 0.60861 0.52302 0.6538 0.0
H451 H 0.64385 0.52864 0.9608 0.0
H452 H 0.63196 0.49169 0.93878 0.0
H453 H 0.60704 0.50262 0.96392 0.0
H454 H 0.67491 0.5533 0.68215 0.0
H455 H 0.65107 0.52286 0.62301 0.0
H456 H 0.67383 0.51987 0.69108 0.0
C457 C 0.19209 0.68027 0.94049 0.0
C458 C 0.19775 0.67599 0.01163 0.0
C459 C 0.17082 0.65768 0.89544 0.0
C460 C 0.15488 0.63046 0.92283 0.0
C461 C 0.16284 0.62538 0.99158 0.0
C462 C 0.1844 0.64822 0.035 0.0
C463 C 0.16353 0.66373 0.82142 0.0
C464 C 0.1466 0.59669 0.02266 0.0
C465 C 0.078 0.59366 0.8534 0.0
C466 C 0.07682 0.57383 0.8004 0.0
C467 C 0.10291 0.61096 0.89682 0.0
C468 C 0.12747 0.60907 0.88483 0.0
C469 C 0.12601 0.58815 0.83357 0.0
C470 C 0.10048 0.5704 0.7927 0.0
C471 C 0.10338 0.63243 0.95264 0.0
C472 C 0.15189 0.58609 0.81767 0.0
H473 H 0.20237 0.70171 0.92236 0.0
H474 H 0.18902 0.64491 0.08997 0.0
H475 H 0.15931 0.64614 0.78086 0.0
H476 H 0.14403 0.66529 0.82287 0.0
H477 H 0.1807 0.68407 0.80341 0.0
H478 H 0.15833 0.59485 0.07046 0.0
H479 H 0.12612 0.59379 0.0398 0.0
H480 H 0.14187 0.57911 0.98155 0.0
H481 H 0.05976 0.59641 0.8588 0.0
H482 H 0.09976 0.55548 0.75046 0.0
H483 H 0.11696 0.65433 0.93575 0.0
H484 H 0.11253 0.63092 0.0056 0.0
H485 H 0.08193 0.62928 0.96 0.0
H486 H 0.1666 0.60497 0.78927 0.0
H487 H 0.14659 0.56661 0.78292 0.0
H488 H 0.16334 0.58625 0.8685 0.0
C489 C 0.53187 0.18832 0.97184 0.0
C490 C 0.51436 0.19667 0.0056 0.0
C491 C 0.5202 0.16373 0.92447 0.0
C492 C 0.49041 0.14699 0.9128 0.0
C493 C 0.473 0.15718 0.94038 0.0
C494 C 0.48533 0.18232 0.98564 0.0
C495 C 0.53954 0.15411 0.89333 0.0
C496 C 0.44118 0.13983 0.93012 0.0
C497 C 0.46188 0.08373 0.77563 0.0
C498 C 0.46145 0.06264 0.81819 0.0
C499 C 0.47037 0.11115 0.80592 0.0
C500 C 0.47761 0.11729 0.88093 0.0
C501 C 0.47465 0.09538 0.92531 0.0
C502 C 0.46707 0.06836 0.89313 0.0
C503 C 0.47396 0.13407 0.75663 0.0
C504 C 0.4811 0.10094 0.00625 0.0
H505 H 0.55427 0.19936 0.988 0.0
H506 H 0.4718 0.18862 0.01282 0.0
H507 H 0.53849 0.13645 0.92387 0.0
H508 H 0.53282 0.14593 0.83595 0.0
H509 H 0.56187 0.17167 0.89663 0.0
H510 H 0.43117 0.15293 0.94287 0.0
H511 H 0.43417 0.13011 0.87401 0.0
H512 H 0.43341 0.12218 0.96684 0.0
H513 H 0.45791 0.07965 0.71741 0.0
H514 H 0.46673 0.05215 0.92612 0.0
H515 H 0.49683 0.14857 0.75103 0.0
H516 H 0.46529 0.14719 0.77966 0.0
H517 H 0.46353 0.125 0.70182 0.0
H518 H 0.50418 0.115 0.01835 0.0
H519 H 0.47431 0.08092 0.03374 0.0
H520 H 0.47046 0.11212 0.0295 0.0
C521 C 0.35143 0.4957 0.04588 0.0
C522 C 0.32223 0.48583 0.03685 0.0
C523 C 0.36694 0.49491 0.98791 0.0
C524 C 0.3536 0.48581 0.91729 0.0
C525 C 0.32483 0.47828 0.90623 0.0
C526 C 0.30934 0.47771 0.96611 0.0
C527 C 0.39744 0.50278 0.00313 0.0
C528 C 0.31018 0.47018 0.83136 0.0
C529 C 0.40872 0.50435 0.77827 0.0
C530 C 0.40822 0.47833 0.76622 0.0
C531 C 0.38907 0.50652 0.82153 0.0
C532 C 0.36953 0.48246 0.85693 0.0
C533 C 0.36814 0.45582 0.84181 0.0
C534 C 0.3871 0.45399 0.79543 0.0
C535 C 0.39056 0.53505 0.83267 0.0
C536 C 0.34856 0.42981 0.88011 0.0
H537 H 0.36232 0.50353 0.09894 0.0
H538 H 0.28693 0.4701 0.95732 0.0
H539 H 0.4007 0.48506 0.98294 0.0
H540 H 0.41144 0.5218 0.97431 0.0
H541 H 0.40412 0.50755 0.06175 0.0
H542 H 0.29 0.47056 0.82987 0.0
H543 H 0.32405 0.48491 0.79208 0.0
H544 H 0.30543 0.44835 0.81332 0.0
H545 H 0.42516 0.52327 0.75611 0.0
H546 H 0.38708 0.43398 0.78739 0.0
H547 H 0.40409 0.54674 0.88234 0.0
H548 H 0.36929 0.53245 0.83917 0.0
H549 H 0.39998 0.54841 0.78661 0.0
H550 H 0.355 0.43364 0.93885 0.0
H551 H 0.34884 0.41037 0.85935 0.0
H552 H 0.32657 0.42574 0.87407 0.0
C553 C 0.87652 0.29824 0.01322 0.0
C554 C 0.85053 0.29707 -0.00019 0.0
C555 C 0.89905 0.31347 0.96979 0.0
C556 C 0.8954 0.32805 0.91251 0.0
C557 C 0.86823 0.32418 0.89408 0.0
C558 C 0.84602 0.30863 0.93814 0.0
C559 C 0.92748 0.31655 0.99041 0.0
C560 C 0.86336 0.33922 0.83319 0.0
C561 C 0.95541 0.40157 0.87963 0.0
C562 C 0.96429 0.39651 0.81336 0.0
C563 C 0.93361 0.37924 0.91347 0.0
C564 C 0.92052 0.35107 0.88063 0.0
C565 C 0.93041 0.34553 0.81593 0.0
C566 C 0.9521 0.36833 0.78286 0.0
C567 C 0.92373 0.38604 0.98282 0.0
C568 C 0.91734 0.31574 0.78005 0.0
H569 H 0.88003 0.28962 0.06176 0.0
H570 H 0.82602 0.3081 0.92879 0.0
H571 H 0.93841 0.31596 0.94165 0.0
H572 H 0.94098 0.33748 0.02096 0.0
H573 H 0.92552 0.2995 0.02511 0.0
H574 H 0.8405 0.33065 0.81893 0.0
H575 H 0.87308 0.3623 0.84979 0.0
H576 H 0.87351 0.33722 0.78426 0.0
H577 H 0.96464 0.42319 0.90372 0.0
H578 H 0.95894 0.36411 0.73192 0.0
H579 H 0.92437 0.37266 0.02568 0.0
H580 H 0.90147 0.38105 0.97399 0.0
H581 H 0.93682 0.40883 0.00273 0.0
H582 H 0.91546 0.30036 0.82016 0.0
H583 H 0.9298 0.31441 0.73553 0.0
H584 H 0.89568 0.309 0.75735 0.0
C585 C 0.83964 0.50872 0.91127 0.0
C586 C 0.85019 0.5318 0.96343 0.0
C587 C 0.85752 0.50606 0.86221 0.0
C588 C 0.88658 0.52709 0.8651 0.0
C589 C 0.89658 0.55171 0.91339 0.0
C590 C 0.87838 0.55362 0.96234 0.0
C591 C 0.84583 0.47949 0.81182 0.0
C592 C 0.92715 0.57497 0.91766 0.0
C593 C 0.94086 0.5036 0.83524 0.0
C594 C 0.94996 0.51269 0.76637 0.0
C595 C 0.91987 0.50753 0.86639 0.0
C596 C 0.9074 0.52112 0.82839 0.0
C597 C 0.91592 0.52986 0.75814 0.0
C598 C 0.93692 0.52534 0.7278 0.0
C599 C 0.91149 0.49759 0.9411 0.0
C600 C 0.90303 0.54412 0.71516 0.0
H601 H 0.81795 0.49166 0.91245 0.0
H602 H 0.88662 0.57146 0.00273 0.0
H603 H 0.85342 0.48492 0.75695 0.0
H604 H 0.85342 0.4653 0.83216 0.0
H605 H 0.82236 0.46752 0.8077 0.0
H606 H 0.93062 0.59449 0.94937 0.0
H607 H 0.94041 0.56719 0.94398 0.0
H608 H 0.93447 0.58068 0.86264 0.0
H609 H 0.95034 0.49348 0.86577 0.0
H610 H 0.9434 0.53212 0.67449 0.0
H611 H 0.88832 0.48308 0.94032 0.0
H612 H 0.91688 0.51618 0.97943 0.0
H613 H 0.92223 0.48622 0.96208 0.0
H614 H 0.91451 0.55311 0.66615 0.0
H615 H 0.9029 0.56151 0.74895 0.0
H616 H 0.88075 0.52832 0.69781 0.0
C617 C 0.30989 0.82476 0.90607 0.0
C618 C 0.32464 0.81702 0.95515 0.0
C619 C 0.32343 0.84125 0.84819 0.0
C620 C 0.35228 0.85016 0.83972 0.0
C621 C 0.36608 0.83949 0.88422 0.0
C622 C 0.35212 0.82315 0.94154 0.0
C623 C 0.30776 0.85164 0.80108 0.0
C624 C 0.39667 0.84801 0.87667 0.0
C625 C 0.39626 0.89761 0.69381 0.0
C626 C 0.40967 0.92427 0.73275 0.0
C627 C 0.37628 0.87308 0.72626 0.0
C628 C 0.36981 0.87562 0.7988 0.0
C629 C 0.38241 0.90291 0.83633 0.0
C630 C 0.40217 0.92674 0.80295 0.0
C631 C 0.36331 0.84447 0.68422 0.0
C632 C 0.37615 0.90692 0.91341 0.0
H633 H 0.2886 0.81995 0.91628 0.0
H634 H 0.3634 0.8168 0.97891 0.0
H635 H 0.31394 0.87383 0.82007 0.0
H636 H 0.31327 0.85183 0.74402 0.0
H637 H 0.2845 0.83818 0.80328 0.0
H638 H 0.40282 0.83438 0.90671 0.0
H639 H 0.40084 0.8467 0.81895 0.0
H640 H 0.41037 0.87048 0.89835 0.0
H641 H 0.40228 0.89572 0.63968 0.0
H642 H 0.41247 0.94749 0.83273 0.0
H643 H 0.34078 0.83094 0.69527 0.0
H644 H 0.37466 0.83318 0.70108 0.0
H645 H 0.36489 0.84675 0.62505 0.0
H646 H 0.35304 0.89722 0.91791 0.0
H647 H 0.38642 0.92978 0.93308 0.0
H648 H 0.38378 0.89602 0.94976 0.0
C649 C 0.46271 0.3171 0.0974 0.0
C650 C 0.48269 0.30891 0.08094 0.0
C651 C 0.45785 0.3349 0.05337 0.0
C652 C 0.4734 0.34478 0.99141 0.0
C653 C 0.49205 0.33483 0.97164 0.0
C654 C 0.49642 0.31692 0.01665 0.0
C655 C 0.43756 0.34469 0.07606 0.0
C656 C 0.50892 0.34475 0.90579 0.0
C657 C 0.45172 0.38009 0.84917 0.0
C658 C 0.47071 0.40923 0.86701 0.0
C659 C 0.45192 0.35894 0.89002 0.0
C660 C 0.47166 0.36699 0.95015 0.0
C661 C 0.49026 0.39635 0.97003 0.0
C662 C 0.4895 0.41713 0.92839 0.0
C663 C 0.43149 0.32793 0.86765 0.0
C664 C 0.5116 0.40581 0.03402 0.0
H665 H 0.45221 0.31103 0.14741 0.0
H666 H 0.51219 0.31099 0.00446 0.0
H667 H 0.44961 0.36757 0.09552 0.0
H668 H 0.4232 0.34264 0.02942 0.0
H669 H 0.42463 0.33237 0.12012 0.0
H670 H 0.52049 0.33309 0.8942 0.0
H671 H 0.49487 0.34186 0.85758 0.0
H672 H 0.5245 0.36787 0.91445 0.0
H673 H 0.43695 0.3737 0.80216 0.0
H674 H 0.50433 0.43951 0.94245 0.0
H675 H 0.41929 0.31696 0.91403 0.0
H676 H 0.44335 0.3171 0.85109 0.0
H677 H 0.41641 0.32523 0.82199 0.0
H678 H 0.50077 0.39666 0.08362 0.0
H679 H 0.52398 0.42941 0.04368 0.0
H680 H 0.52647 0.39775 0.02489 0.0
C681 C 0.15046 0.44906 0.99276 0.0
C682 C 0.18 0.46511 0.00244 0.0
C683 C 0.13623 0.44871 0.92794 0.0
C684 C 0.15196 0.46424 0.87049 0.0
C685 C 0.1818 0.47781 0.87694 0.0
C686 C 0.19552 0.47843 0.94322 0.0
C687 C 0.10434 0.43392 0.92366 0.0
C688 C 0.19938 0.49346 0.81598 0.0
C689 C 0.10175 0.4536 0.71035 0.0
C690 C 0.09609 0.47573 0.72741 0.0
C691 C 0.12255 0.45119 0.75169 0.0
C692 C 0.13725 0.47093 0.81188 0.0
C693 C 0.13383 0.49505 0.82349 0.0
C694 C 0.11369 0.49739 0.78015 0.0
C695 C 0.1269 0.42616 0.73476 0.0
C696 C 0.14918 0.51687 0.88653 0.0
H697 H 0.13832 0.43783 0.03726 0.0
H698 H 0.21838 0.49076 0.94963 0.0
H699 H 0.09746 0.45008 0.92179 0.0
H700 H 0.09542 0.41965 0.87352 0.0
H701 H 0.09526 0.42108 0.97075 0.0
H702 H 0.22025 0.49452 0.81969 0.0
H703 H 0.18844 0.4831 0.76245 0.0
H704 H 0.20323 0.51565 0.81923 0.0
H705 H 0.08855 0.43701 0.66883 0.0
H706 H 0.10989 0.51495 0.79228 0.0
H707 H 0.11319 0.40836 0.76763 0.0
H708 H 0.14915 0.43181 0.74795 0.0
H709 H 0.12117 0.41844 0.67678 0.0
H710 H 0.14427 0.50631 0.93823 0.0
H711 H 0.14329 0.53379 0.88935 0.0
H712 H 0.17232 0.52708 0.88217 0.0
C713 C 0.69108 0.19636 0.95962 0.0
C714 C 0.70127 0.18372 0.00775 0.0
C715 C 0.67022 0.17966 0.90412 0.0
C716 C 0.65947 0.14978 0.89689 0.0
C717 C 0.67135 0.13742 0.94199 0.0
C718 C 0.69201 0.15451 0.99688 0.0
C719 C 0.65858 0.19368 0.85581 0.0
C720 C 0.66101 0.10578 0.93517 0.0
C721 C 0.58289 0.09696 0.84262 0.0
C722 C 0.5845 0.08548 0.77468 0.0
C723 C 0.60687 0.11933 0.88049 0.0
C724 C 0.63338 0.13068 0.84999 0.0
C725 C 0.63486 0.12085 0.779 0.0
C726 C 0.61034 0.09835 0.74213 0.0
C727 C 0.60406 0.12949 0.95535 0.0
C728 C 0.66245 0.13261 0.74327 0.0
H729 H 0.69833 0.21897 0.96768 0.0
H730 H 0.7003 0.14481 0.03318 0.0
H731 H 0.65746 0.1863 0.79834 0.0
H732 H 0.63676 0.18747 0.86958 0.0
H733 H 0.67161 0.21732 0.86168 0.0
H734 H 0.67409 0.09994 0.97002 0.0
H735 H 0.63887 0.09389 0.95083 0.0
H736 H 0.66121 0.09873 0.87819 0.0
H737 H 0.56289 0.08779 0.86772 0.0
H738 H 0.61178 0.09014 0.68937 0.0
H739 H 0.61455 0.15311 0.96083 0.0
H740 H 0.61468 0.1229 0.99617 0.0
H741 H 0.58163 0.12062 0.96808 0.0
H742 H 0.67769 0.15488 0.76367 0.0
H743 H 0.65893 0.13199 0.68372 0.0
H744 H 0.6721 0.11917 0.75433 0.0
C745 C 0.53765 0.70103 0.89898 0.0
C746 C 0.51336 0.69412 0.93562 0.0
C747 C 0.53993 0.67988 0.85809 0.0
C748 C 0.51729 0.65135 0.85383 0.0
C749 C 0.4916 0.64497 0.88431 0.0
C750 C 0.48994 0.66653 0.92488 0.0
C751 C 0.5675 0.68761 0.82521 0.0
C752 C 0.46681 0.61492 0.87992 0.0
C753 C 0.52028 0.59846 0.71896 0.0
C754 C 0.53204 0.58589 0.76232 0.0
C755 C 0.5149 0.61946 0.74816 0.0
C756 C 0.52137 0.62795 0.82271 0.0
C757 C 0.53257 0.61469 0.86729 0.0
C758 C 0.53795 0.59376 0.83629 0.0
C759 C 0.50302 0.63305 0.69889 0.0
C760 C 0.53943 0.62306 0.94732 0.0
H761 H 0.55589 0.72224 0.90822 0.0
H762 H 0.47126 0.66121 0.95394 0.0
H763 H 0.57861 0.67852 0.85616 0.0
H764 H 0.56364 0.67838 0.76857 0.0
H765 H 0.58164 0.71107 0.82584 0.0
H766 H 0.44725 0.61428 0.89728 0.0
H767 H 0.46268 0.60492 0.82402 0.0
H768 H 0.47176 0.60177 0.91548 0.0
H769 H 0.51589 0.59225 0.66144 0.0
H770 H 0.54714 0.58397 0.8693 0.0
H771 H 0.51847 0.65612 0.6975 0.0
H772 H 0.4835 0.63129 0.71992 0.0
H773 H 0.49805 0.62311 0.64268 0.0
H774 H 0.55599 0.64587 0.95588 0.0
H775 H 0.54701 0.61002 0.97482 0.0
H776 H 0.52044 0.62063 0.97333 0.0
C777 C 0.4987 0.15131 0.2309 0.0
C778 C 0.51677 0.18003 0.25536 0.0
C779 C 0.49674 0.12894 0.27001 0.0
C780 C 0.51228 0.13515 0.3374 0.0
C781 C 0.52953 0.16405 0.36452 0.0
C782 C 0.53177 0.18625 0.32281 0.0
C783 C 0.47826 0.0986 0.23842 0.0
C784 C 0.54584 0.17145 0.43709 0.0
C785 C 0.48042 0.07408 0.46005 0.0
C786 C 0.49822 0.06224 0.45467 0.0
C787 C 0.4856 0.09844 0.42487 0.0
C788 C 0.5087 0.11107 0.38083 0.0
C789 C 0.52665 0.09915 0.37406 0.0
C790 C 0.52145 0.0751 0.41194 0.0
C791 C 0.46625 0.11069 0.43502 0.0
C792 C 0.55094 0.11139 0.32561 0.0
H793 H 0.48663 0.14631 0.17931 0.0
H794 H 0.54579 0.20834 0.34183 0.0
H795 H 0.49072 0.08747 0.23583 0.0
H796 H 0.46073 0.08673 0.27367 0.0
H797 H 0.46903 0.09754 0.18317 0.0
H798 H 0.55777 0.19482 0.45132 0.0
H799 H 0.53116 0.16091 0.47989 0.0
H800 H 0.56095 0.16333 0.43685 0.0
H801 H 0.46272 0.06488 0.49402 0.0
H802 H 0.53547 0.06635 0.40796 0.0
H803 H 0.4545 0.10862 0.38296 0.0
H804 H 0.47881 0.13377 0.45224 0.0
H805 H 0.45069 0.09981 0.4759 0.0
H806 H 0.5425 0.10697 0.26829 0.0
H807 H 0.56495 0.1021 0.33301 0.0
H808 H 0.5637 0.13489 0.33598 0.0
C809 C 0.32269 0.49485 0.35225 0.0
C810 C 0.31186 0.47183 0.29997 0.0
C811 C 0.34345 0.49863 0.40564 0.0
C812 C 0.35338 0.47888 0.40619 0.0
C813 C 0.33947 0.45355 0.35994 0.0
C814 C 0.31899 0.45044 0.30682 0.0
C815 C 0.3572 0.52555 0.45512 0.0
C816 C 0.34878 0.43152 0.36009 0.0
C817 C 0.43221 0.50761 0.42177 0.0
C818 C 0.43655 0.49956 0.48985 0.0
C819 C 0.40546 0.50206 0.39588 0.0
C820 C 0.38216 0.48796 0.43897 0.0
C821 C 0.38653 0.48109 0.50942 0.0
C822 C 0.41378 0.48705 0.53411 0.0
C823 C 0.40205 0.51035 0.32085 0.0
C824 C 0.36242 0.46629 0.55752 0.0
H825 H 0.31712 0.51138 0.34699 0.0
H826 H 0.31037 0.4325 0.26662 0.0
H827 H 0.36258 0.52136 0.50983 0.0
H828 H 0.37714 0.54142 0.43284 0.0
H829 H 0.34331 0.53506 0.46003 0.0
H830 H 0.3327 0.41097 0.33151 0.0
H831 H 0.36873 0.43952 0.33236 0.0
H832 H 0.35295 0.42762 0.41625 0.0
H833 H 0.44973 0.51787 0.38757 0.0
H834 H 0.41697 0.48107 0.58696 0.0
H835 H 0.39166 0.52354 0.32277 0.0
H836 H 0.38835 0.4909 0.28494 0.0
H837 H 0.42258 0.52258 0.29612 0.0
H838 H 0.34704 0.47394 0.55137 0.0
H839 H 0.3701 0.4695 0.61538 0.0
H840 H 0.35106 0.44304 0.54202 0.0
C841 C 0.84482 0.3369 0.29655 0.0
C842 C 0.83914 0.34011 0.22445 0.0
C843 C 0.86541 0.36036 0.34089 0.0
C844 C 0.88084 0.38731 0.31167 0.0
C845 C 0.87272 0.39124 0.24175 0.0
C846 C 0.85164 0.36762 0.19936 0.0
C847 C 0.87265 0.35559 0.41643 0.0
C848 C 0.88851 0.41944 0.20806 0.0
C849 C 0.93491 0.44951 0.43779 0.0
C850 C 0.95865 0.44605 0.43271 0.0
C851 C 0.90947 0.43111 0.39719 0.0
C852 C 0.90816 0.40944 0.34881 0.0
C853 C 0.93288 0.40761 0.33892 0.0
C854 C 0.95769 0.4256 0.38205 0.0
C855 C 0.88357 0.4335 0.41025 0.0
C856 C 0.93272 0.38557 0.28565 0.0
H857 H 0.83515 0.31573 0.31623 0.0
H858 H 0.84694 0.37017 0.14373 0.0
H859 H 0.89242 0.35447 0.41702 0.0
H860 H 0.87636 0.37359 0.45494 0.0
H861 H 0.85566 0.3354 0.43559 0.0
H862 H 0.87598 0.42076 0.16131 0.0
H863 H 0.8942 0.43765 0.24794 0.0
H864 H 0.90845 0.42174 0.1884 0.0
H865 H 0.93548 0.46505 0.47785 0.0
H866 H 0.97602 0.42289 0.37833 0.0
H867 H 0.86829 0.41469 0.43791 0.0
H868 H 0.87287 0.43358 0.35833 0.0
H869 H 0.88879 0.45309 0.44443 0.0
H870 H 0.91951 0.36395 0.30464 0.0
H871 H 0.9543 0.38898 0.27893 0.0
H872 H 0.92334 0.38607 0.23198 0.0
C873 C 0.57282 0.85381 0.24858 0.0
C874 C 0.58546 0.8583 0.18256 0.0
C875 C 0.57899 0.87695 0.29754 0.0
C876 C 0.59847 0.90497 0.27984 0.0
C877 C 0.61446 0.90898 0.21872 0.0
C878 C 0.6077 0.88547 0.17045 0.0
C879 C 0.56182 0.87169 0.3629 0.0
C880 C 0.63608 0.93838 0.19923 0.0
C881 C 0.57409 0.95768 0.32831 0.0
C882 C 0.58939 0.9704 0.39458 0.0
C883 C 0.57783 0.93721 0.28889 0.0
C884 C 0.59761 0.92954 0.31608 0.0
C885 C 0.61455 0.94376 0.38023 0.0
C886 C 0.61011 0.96391 0.419 0.0
C887 C 0.55945 0.92264 0.22014 0.0
C888 C 0.63625 0.93665 0.41008 0.0
H889 H 0.55557 0.83279 0.25781 0.0
H890 H 0.61753 0.88885 0.11931 0.0
H891 H 0.57533 0.88497 0.41111 0.0
H892 H 0.54537 0.87772 0.35245 0.0
H893 H 0.55117 0.84891 0.37534 0.0
H894 H 0.65099 0.93748 0.16144 0.0
H895 H 0.6251 0.94848 0.17233 0.0
H896 H 0.64829 0.95221 0.24822 0.0
H897 H 0.55808 0.96257 0.30899 0.0
H898 H 0.6223 0.97389 0.46981 0.0
H899 H 0.54542 0.89962 0.22734 0.0
H900 H 0.57273 0.9242 0.17478 0.0
H901 H 0.54608 0.932 0.20466 0.0
H902 H 0.62541 0.91619 0.43626 0.0
H903 H 0.65145 0.9534 0.45105 0.0
H904 H 0.6482 0.93395 0.36622 0.0
C905 C 0.70352 0.55595 0.21162 0.0
C906 C 0.71629 0.53887 0.20989 0.0
C907 C 0.68701 0.55558 0.26842 0.0
C908 C 0.68344 0.53813 0.32645 0.0
C909 C 0.69796 0.52245 0.32793 0.0
C910 C 0.71404 0.52285 0.26953 0.0
C911 C 0.67199 0.57266 0.26401 0.0
C912 C 0.69541 0.50411 0.38936 0.0
C913 C 0.64757 0.55284 0.48304 0.0
C914 C 0.61902 0.53285 0.4647 0.0
C915 C 0.66917 0.55355 0.44186 0.0
C916 C 0.66207 0.53412 0.38028 0.0
C917 C 0.63351 0.5126 0.36507 0.0
C918 C 0.61252 0.51207 0.40768 0.0
C919 C 0.6994 0.5762 0.4618 0.0
C920 C 0.62475 0.49127 0.3005 0.0
H921 H 0.70567 0.56902 0.167 0.0
H922 H 0.72373 0.50954 0.26909 0.0
H923 H 0.64881 0.55794 0.25804 0.0
H924 H 0.67663 0.58639 0.31457 0.0
H925 H 0.67818 0.58639 0.21763 0.0
H926 H 0.71207 0.49799 0.39021 0.0
H927 H 0.69676 0.51536 0.44216 0.0
H928 H 0.67452 0.48432 0.38337 0.0
H929 H 0.65299 0.56883 0.52729 0.0
H930 H 0.59065 0.49612 0.39352 0.0
H931 H 0.70593 0.59346 0.42421 0.0
H932 H 0.71374 0.56726 0.45664 0.0
H933 H 0.70215 0.58572 0.51789 0.0
H934 H 0.62942 0.50258 0.24995 0.0
H935 H 0.60187 0.4752 0.29765 0.0
H936 H 0.63698 0.47992 0.30251 0.0
C937 C 0.16304 0.72061 0.22167 0.0
C938 C 0.1884 0.72057 0.23609 0.0
C939 C 0.13997 0.70589 0.26395 0.0
C940 C 0.14239 0.6906 0.3212 0.0
C941 C 0.16899 0.69323 0.3407 0.0
C942 C 0.19176 0.70827 0.29775 0.0
C943 C 0.11221 0.70413 0.24214 0.0
C944 C 0.17258 0.67745 0.40165 0.0
C945 C 0.08457 0.65208 0.44957 0.0
C946 C 0.07154 0.6238 0.41923 0.0
C947 C 0.10687 0.67439 0.41672 0.0
C948 C 0.11655 0.66826 0.35234 0.0
C949 C 0.10256 0.64006 0.31947 0.0
C950 C 0.08016 0.61822 0.3531 0.0
C951 C 0.12088 0.70423 0.45265 0.0
C952 C 0.11214 0.63263 0.25044 0.0
H953 H 0.16037 0.72973 0.1731 0.0
H954 H 0.21122 0.70781 0.30787 0.0
H955 H 0.09827 0.68345 0.21099 0.0
H956 H 0.10121 0.70511 0.29037 0.0
H957 H 0.11519 0.72158 0.20763 0.0
H958 H 0.1952 0.68499 0.41664 0.0
H959 H 0.16254 0.67997 0.45023 0.0
H960 H 0.16198 0.65433 0.38475 0.0
H961 H 0.07796 0.65671 0.50038 0.0
H962 H 0.07029 0.59653 0.32913 0.0
H963 H 0.12372 0.71988 0.41243 0.0
H964 H 0.14218 0.71004 0.4762 0.0
H965 H 0.10851 0.7062 0.49657 0.0
H966 H 0.11247 0.64647 0.20761 0.0
H967 H 0.09827 0.60999 0.23016 0.0
H968 H 0.134 0.63653 0.25991 0.0
loop_
_geom_bond_atom_site_label_1
_geom_bond_atom_site_label_2
_geom_bond_distance
_geom_bond_site_symmetry_2
_ccdc_geom_bond_type
H0 C6 0.930 . S
H1 C9 0.931 . S
H2 C11 0.931 . S
H3 C13 0.930 . S
H4 C15 0.930 . S
H5 C17 0.931 . S
C6 H0 0.930 . S
C6 C7 1.380 . S
C6 C8 1.394 . S
C7 C6 1.380 . S
C7 C11 1.382 . S
C8 C6 1.394 . S
C8 C9 1.400 . S
C9 H1 0.931 . S
C9 C8 1.400 . S
C9 C10 1.375 . S
C10 C9 1.375 . S
C10 C11 1.415 . S
C10 C12 1.501 . S
C11 H2 0.931 . S
C11 C7 1.382 . S
C11 C10 1.415 . S
C12 C10 1.501 . S
C12 C13 1.384 . S
C12 C17 1.408 . S
C13 H3 0.930 . S
C13 C12 1.384 . S
C13 C14 1.389 . S
C14 C13 1.389 . S
C14 C15 1.405 . S
C15 H4 0.930 . S
C15 C14 1.405 . S
C15 C16 1.364 . S
C16 C15 1.364 . S
C16 C17 1.400 . S
C17 H5 0.931 . S
C17 C12 1.408 . S
C17 C16 1.400 . S
H18 C24 0.930 . S
H19 C27 0.931 . S
H20 C29 0.931 . S
H21 C31 0.930 . S
H22 C33 0.930 . S
H23 C35 0.931 . S
C24 H18 0.930 . S
C24 C25 1.380 . S
C24 C26 1.394 . S
C25 C24 1.380 . S
C25 C29 1.382 . S
C26 C24 1.394 . S
C26 C27 1.400 . S
C27 H19 0.931 . S
C27 C26 1.400 . S
C27 C28 1.375 . S
C28 C27 1.375 . S
C28 C29 1.415 . S
C28 C30 1.501 . S
C29 H20 0.931 . S
C29 C25 1.382 . S
C29 C28 1.415 . S
C30 C28 1.501 . S
C30 C31 1.384 . S
C30 C35 1.408 . S
C31 H21 0.930 . S
C31 C30 1.384 . S
C31 C32 1.389 . S
C32 C31 1.389 . S
C32 C33 1.405 . S
C33 H22 0.930 . S
C33 C32 1.405 . S
C33 C34 1.364 . S
C34 C33 1.364 . S
C34 C35 1.400 . S
C35 H23 0.931 . S
C35 C30 1.408 . S
C35 C34 1.400 . S
H36 C42 0.930 . S
H37 C45 0.931 . S
H38 C47 0.931 . S
H39 C49 0.930 . S
H40 C51 0.930 . S
H41 C53 0.931 . S
C42 H36 0.930 . S
C42 C43 1.380 1_554 S
C42 C44 1.394 . S
C43 C42 1.380 1_556 S
C43 C47 1.382 . S
C44 C42 1.394 . S
C44 C45 1.400 . S
C45 H37 0.931 . S
C45 C44 1.400 . S
C45 C46 1.375 . S
C46 C45 1.375 . S
C46 C47 1.415 1_554 S
C46 C48 1.501 . S
C47 H38 0.931 . S
C47 C43 1.382 . S
C47 C46 1.415 1_556 S
C48 C46 1.501 . S
C48 C49 1.384 1_554 S
C48 C53 1.408 . S
C49 H39 0.930 . S
C49 C48 1.384 1_556 S
C49 C50 1.389 . S
C50 C49 1.389 . S
C50 C51 1.405 1_556 S
C51 H40 0.930 . S
C51 C50 1.405 1_554 S
C51 C52 1.364 . S
C52 C51 1.364 . S
C52 C53 1.400 . S
C53 H41 0.931 . S
C53 C48 1.408 . S
C53 C52 1.400 . S
H54 C60 0.930 . S
H55 C63 0.931 . S
H56 C65 0.932 . S
H57 C67 0.939 . S
H58 C69 0.930 . S
H59 C71 0.931 . S
C60 H54 0.930 . S
C60 C61 1.387 . S
C60 C62 1.394 . S
C61 C60 1.387 . S
C61 C65 1.383 1_554 S
C62 C60 1.394 . S
C62 C63 1.400 . S
C63 H55 0.931 . S
C63 C62 1.400 . S
C63 C64 1.375 . S
C64 C63 1.375 . S
C64 C65 1.414 1_554 S
C64 C66 1.501 . S
C65 H56 0.932 . S
C65 C61 1.383 1_556 S
C65 C64 1.414 1_556 S
C66 C64 1.501 . S
C66 C67 1.376 1_554 S
C66 C71 1.408 . S
C67 H57 0.939 . S
C67 C66 1.376 1_556 S
C67 C68 1.389 . S
C68 C67 1.389 . S
C68 C69 1.405 1_556 S
C69 H58 0.930 . S
C69 C68 1.405 1_554 S
C69 C70 1.364 . S
C70 C69 1.364 . S
C70 C71 1.400 . S
C71 H59 0.931 . S
C71 C66 1.408 . S
C71 C70 1.400 . S
H72 C78 0.930 . S
H73 C81 0.931 . S
H74 C83 0.931 1_556 S
H75 C85 0.930 1_556 S
H76 C87 0.930 . S
H77 C89 0.931 . S
C78 H72 0.930 . S
C78 C79 1.380 . S
C78 C80 1.394 . S
C79 C78 1.380 . S
C79 C83 1.382 . S
C80 C78 1.394 . S
C80 C81 1.400 . S
C81 H73 0.931 . S
C81 C80 1.400 . S
C81 C82 1.375 . S
C82 C81 1.375 . S
C82 C83 1.415 . S
C82 C84 1.501 . S
C83 H74 0.931 1_554 S
C83 C79 1.382 . S
C83 C82 1.415 . S
C84 C82 1.501 . S
C84 C85 1.384 . S
C84 C89 1.408 . S
C85 H75 0.930 1_554 S
C85 C84 1.384 . S
C85 C86 1.389 . S
C86 C85 1.389 . S
C86 C87 1.405 . S
C87 H76 0.930 . S
C87 C86 1.405 . S
C87 C88 1.364 . S
C88 C87 1.364 . S
C88 C89 1.400 . S
C89 H77 0.931 . S
C89 C84 1.408 . S
C89 C88 1.400 . S
H90 C96 0.930 . S
H91 C99 0.931 . S
H92 C101 0.931 . S
H93 C103 0.930 . S
H94 C105 0.930 . S
H95 C107 0.931 . S
C96 H90 0.930 . S
C96 C97 1.380 . S
C96 C98 1.394 . S
C97 C96 1.380 . S
C97 C101 1.382 . S
C98 C96 1.394 . S
C98 C99 1.400 . S
C99 H91 0.931 . S
C99 C98 1.400 . S
C99 C100 1.375 . S
C100 C99 1.375 . S
C100 C101 1.415 . S
C100 C102 1.501 . S
C101 H92 0.931 . S
C101 C97 1.382 . S
C101 C100 1.415 . S
C102 C100 1.501 . S
C102 C103 1.384 . S
C102 C107 1.408 . S
C103 H93 0.930 . S
C103 C102 1.384 . S
C103 C104 1.389 . S
C104 C103 1.389 . S
C104 C105 1.405 . S
C105 H94 0.930 . S
C105 C104 1.405 . S
C105 C106 1.364 . S
C106 C105 1.364 . S
C106 C107 1.400 . S
C107 H95 0.931 . S
C107 C102 1.408 . S
C107 C106 1.400 . S
C108 O120 1.241 . S
C108 O121 1.280 . S
C109 O122 1.277 . S
C109 O123 1.245 . S
C110 O134 1.247 . S
C110 O136 1.289 . S
Mg111 O112 1.936 1_655 S
Mg111 O121 1.996 . S
Mg111 O123 1.970 1_655 S
Mg111 O124 2.071 . S
O112 Mg111 1.936 1_455 S
O112 Mg113 1.986 . S
O112 Mg114 1.917 . S
Mg113 O112 1.986 . S
Mg113 O120 2.042 1_455 S
Mg113 O122 2.041 . S
Mg113 O128 2.038 1_455 S
Mg113 O136 2.238 . S
Mg114 O112 1.917 . S
Mg114 O115 1.917 . S
Mg114 O125 2.106 1_455 S
Mg114 O127 2.079 1_455 S
Mg114 O136 2.106 . S
Mg114 O137 2.079 . S
O115 Mg114 1.917 . S
O115 Mg116 1.926 . S
O115 Mg117 1.986 . S
Mg116 O115 1.926 . S
Mg116 O130 1.984 . S
Mg116 O133 1.988 1_455 S
Mg116 O134 2.061 . S
Mg117 O115 1.986 . S
Mg117 O125 2.238 1_455 S
Mg117 O129 2.042 . S
Mg117 O131 2.041 1_455 S
Mg117 O138 2.038 . S
C118 O124 1.247 . S
C118 O125 1.289 . S
C119 O137 1.245 . S
C119 O138 1.274 . S
O120 C108 1.241 . S
O120 Mg113 2.042 1_655 S
O121 C108 1.280 . S
O121 Mg111 1.996 . S
O122 C109 1.277 . S
O122 Mg113 2.041 . S
O123 C109 1.245 . S
O123 Mg111 1.970 1_455 S
O124 Mg111 2.071 . S
O124 C118 1.247 . S
O125 Mg114 2.106 1_655 S
O125 Mg117 2.238 1_655 S
O125 C118 1.289 . S
C126 O127 1.245 . S
C126 O128 1.274 . S
O127 Mg114 2.079 1_655 S
O127 C126 1.245 . S
O128 Mg113 2.038 1_655 S
O128 C126 1.274 . S
O129 Mg117 2.042 . S
O129 C132 1.241 . S
O130 Mg116 1.984 . S
O130 C132 1.280 . S
O131 Mg117 2.041 1_655 S
O131 C135 1.277 . S
C132 O129 1.241 . S
C132 O130 1.280 . S
O133 Mg116 1.988 1_655 S
O133 C135 1.245 . S
O134 C110 1.247 . S
O134 Mg116 2.061 . S
C135 O131 1.277 . S
C135 O133 1.245 . S
O136 C110 1.289 . S
O136 Mg113 2.238 . S
O136 Mg114 2.106 . S
O137 Mg114 2.079 . S
O137 C119 1.245 . S
O138 Mg117 2.038 . S
O138 C119 1.274 . S
C139 O151 1.241 . S
C139 O152 1.280 . S
C140 O153 1.277 . S
C140 O154 1.245 . S
C141 O165 1.247 . S
C141 O167 1.289 . S
Mg142 O143 1.926 . S
Mg142 O152 1.984 . S
Mg142 O154 1.988 1_545 S
Mg142 O155 2.061 . S
O143 Mg142 1.926 . S
O143 Mg144 1.986 . S
O143 Mg145 1.917 . S
Mg144 O143 1.986 . S
Mg144 O151 2.042 . S
Mg144 O153 2.041 1_545 S
Mg144 O159 2.038 . S
Mg144 O167 2.238 1_545 S
Mg145 O143 1.917 . S
Mg145 O146 1.917 1_545 S
Mg145 O156 2.106 . S
Mg145 O158 2.079 . S
Mg145 O167 2.106 1_545 S
Mg145 O168 2.079 1_545 S
O146 Mg145 1.917 1_565 S
O146 Mg147 1.926 . S
O146 Mg148 1.986 1_565 S
Mg147 O146 1.926 . S
Mg147 O161 1.984 . S
Mg147 O164 1.988 1_565 S
Mg147 O165 2.061 . S
Mg148 O146 1.986 1_545 S
Mg148 O156 2.238 . S
Mg148 O160 2.042 1_545 S
Mg148 O162 2.041 . S
Mg148 O169 2.038 1_545 S
C149 O155 1.247 . S
C149 O156 1.289 . S
C150 O168 1.245 . S
C150 O169 1.274 . S
O151 C139 1.241 . S
O151 Mg144 2.042 . S
O152 C139 1.280 . S
O152 Mg142 1.984 . S
O153 C140 1.277 . S
O153 Mg144 2.041 1_565 S
O154 C140 1.245 . S
O154 Mg142 1.988 1_565 S
O155 Mg142 2.061 . S
O155 C149 1.247 . S
O156 Mg145 2.106 . S
O156 Mg148 2.238 . S
O156 C149 1.289 . S
C157 O158 1.245 . S
C157 O159 1.274 . S
O158 Mg145 2.079 . S
O158 C157 1.245 . S
O159 Mg144 2.038 . S
O159 C157 1.274 . S
O160 Mg148 2.042 1_565 S
O160 C163 1.241 . S
O161 Mg147 1.984 . S
O161 C163 1.280 . S
O162 Mg148 2.041 . S
O162 C166 1.277 . S
C163 O160 1.241 . S
C163 O161 1.280 . S
O164 Mg147 1.988 1_545 S
O164 C166 1.245 . S
O165 C141 1.247 . S
O165 Mg147 2.061 . S
C166 O162 1.277 . S
C166 O164 1.245 . S
O167 C141 1.289 . S
O167 Mg144 2.238 1_565 S
O167 Mg145 2.106 1_565 S
O168 Mg145 2.079 1_565 S
O168 C150 1.245 . S
O169 Mg148 2.038 1_565 S
O169 C150 1.274 . S
C170 O182 1.241 . S
C170 O183 1.280 . S
C171 O184 1.277 . S
C171 O185 1.245 . S
C172 O196 1.247 . S
C172 O198 1.289 . S
Mg173 O174 1.926 . S
Mg173 O183 1.984 . S
Mg173 O185 1.988 . S
Mg173 O186 2.061 . S
O174 Mg173 1.926 . S
O174 Mg175 1.986 . S
O174 Mg176 1.917 . S
Mg175 O174 1.986 . S
Mg175 O182 2.042 . S
Mg175 O184 2.041 . S
Mg175 O190 2.038 . S
Mg175 O198 2.238 . S
Mg176 O174 1.917 . S
Mg176 O177 1.917 . S
Mg176 O187 2.106 . S
Mg176 O189 2.079 . S
Mg176 O198 2.106 . S
Mg176 O199 2.079 . S
O177 Mg176 1.917 . S
O177 Mg178 1.926 . S
O177 Mg179 1.986 . S
Mg178 O177 1.926 . S
Mg178 O192 1.984 . S
Mg178 O195 1.988 . S
Mg178 O196 2.061 . S
Mg179 O177 1.986 . S
Mg179 O187 2.238 . S
Mg179 O191 2.042 . S
Mg179 O193 2.041 . S
Mg179 O200 2.038 . S
C180 O186 1.247 . S
C180 O187 1.289 . S
C181 O199 1.245 . S
C181 O200 1.274 . S
O182 C170 1.241 . S
O182 Mg175 2.042 . S
O183 C170 1.280 . S
O183 Mg173 1.984 . S
O184 C171 1.277 . S
O184 Mg175 2.041 . S
O185 C171 1.245 . S
O185 Mg173 1.988 . S
O186 Mg173 2.061 . S
O186 C180 1.247 . S
O187 Mg176 2.106 . S
O187 Mg179 2.238 . S
O187 C180 1.289 . S
C188 O189 1.245 . S
C188 O190 1.274 . S
O189 Mg176 2.079 . S
O189 C188 1.245 . S
O190 Mg175 2.038 . S
O190 C188 1.274 . S
O191 Mg179 2.042 . S
O191 C194 1.241 . S
O192 Mg178 1.984 . S
O192 C194 1.280 . S
O193 Mg179 2.041 . S
O193 C197 1.277 . S
C194 O191 1.241 . S
C194 O192 1.280 . S
O195 Mg178 1.988 . S
O195 C197 1.245 . S
O196 C172 1.247 . S
O196 Mg178 2.061 . S
C197 O193 1.277 . S
C197 O195 1.245 . S
O198 C172 1.289 . S
O198 Mg175 2.238 . S
O198 Mg176 2.106 . S
O199 Mg176 2.079 . S
O199 C181 1.245 . S
O200 Mg179 2.038 . S
O200 C181 1.274 . S
C201 C202 1.391 . S
C201 C203 1.394 . S
C201 H217 0.931 . S
C202 C201 1.391 . S
C202 C206 1.376 . S
C203 C201 1.394 . S
C203 C204 1.369 . S
C203 C207 1.531 . S
C204 C203 1.369 . S
C204 C205 1.410 . S
C204 C212 1.503 . S
C205 C204 1.410 . S
C205 C206 1.392 . S
C205 C208 1.511 . S
C206 C202 1.376 . S
C206 C205 1.392 . S
C206 H218 0.929 . S
C207 C203 1.531 . S
C207 H219 0.960 . S
C207 H220 0.962 . S
C207 H221 0.960 . S
C208 C205 1.511 . S
C208 H222 0.961 . S
C208 H223 0.961 . S
C208 H224 0.961 . S
C209 C210 1.370 . S
C209 C211 1.363 . S
C209 H225 0.931 . S
C210 C209 1.370 . S
C210 C214 1.408 . S
C211 C209 1.363 . S
C211 C212 1.370 . S
C211 C215 1.524 . S
C212 C204 1.503 . S
C212 C211 1.370 . S
C212 C213 1.403 . S
C213 C212 1.403 . S
C213 C214 1.404 . S
C213 C216 1.539 . S
C214 C210 1.408 . S
C214 C213 1.404 . S
C214 H226 0.930 . S
C215 C211 1.524 . S
C215 H227 0.956 . S
C215 H228 0.961 . S
C215 H229 0.961 . S
C216 C213 1.539 . S
C216 H230 0.958 . S
C216 H231 0.961 . S
C216 H232 0.960 . S
H217 C201 0.931 . S
H218 C206 0.929 . S
H219 C207 0.960 . S
H220 C207 0.962 . S
H221 C207 0.960 . S
H222 C208 0.961 . S
H223 C208 0.961 . S
H224 C208 0.961 . S
H225 C209 0.931 . S
H226 C214 0.930 . S
H227 C215 0.956 . S
H228 C215 0.961 . S
H229 C215 0.961 . S
H230 C216 0.958 . S
H231 C216 0.961 . S
H232 C216 0.960 . S
C233 C234 1.391 . S
C233 C235 1.394 . S
C233 H249 0.931 . S
C234 C233 1.391 . S
C234 C238 1.376 . S
C235 C233 1.394 . S
C235 C236 1.369 . S
C235 C239 1.531 . S
C236 C235 1.369 . S
C236 C237 1.410 . S
C236 C244 1.503 . S
C237 C236 1.410 . S
C237 C238 1.392 . S
C237 C240 1.511 . S
C238 C234 1.376 . S
C238 C237 1.392 . S
C238 H250 0.929 . S
C239 C235 1.531 . S
C239 H251 0.960 . S
C239 H252 0.962 . S
C239 H253 0.960 . S
C240 C237 1.511 . S
C240 H254 0.961 . S
C240 H255 0.961 . S
C240 H256 0.961 . S
C241 C242 1.370 . S
C241 C243 1.363 . S
C241 H257 0.931 . S
C242 C241 1.370 . S
C242 C246 1.408 . S
C243 C241 1.363 . S
C243 C244 1.370 . S
C243 C247 1.524 . S
C244 C236 1.503 . S
C244 C243 1.370 . S
C244 C245 1.403 . S
C245 C244 1.403 . S
C245 C246 1.404 . S
C245 C248 1.539 . S
C246 C242 1.408 . S
C246 C245 1.404 . S
C246 H258 0.930 . S
C247 C243 1.524 . S
C247 H259 0.956 . S
C247 H260 0.961 . S
C247 H261 0.961 . S
C248 C245 1.539 . S
C248 H262 0.958 . S
C248 H263 0.961 . S
C248 H264 0.960 . S
H249 C233 0.931 . S
H250 C238 0.929 . S
H251 C239 0.960 . S
H252 C239 0.962 . S
H253 C239 0.960 . S
H254 C240 0.961 . S
H255 C240 0.961 . S
H256 C240 0.961 . S
H257 C241 0.931 . S
H258 C246 0.930 . S
H259 C247 0.956 . S
H260 C247 0.961 . S
H261 C247 0.961 . S
H262 C248 0.958 . S
H263 C248 0.961 . S
H264 C248 0.960 . S
C265 C266 1.391 . S
C265 C267 1.394 . S
C265 H281 0.931 . S
C266 C265 1.391 . S
C266 C270 1.376 . S
C267 C265 1.394 . S
C267 C268 1.369 . S
C267 C271 1.531 . S
C268 C267 1.369 . S
C268 C269 1.410 . S
C268 C276 1.503 . S
C269 C268 1.410 . S
C269 C270 1.392 . S
C269 C272 1.511 . S
C270 C266 1.376 . S
C270 C269 1.392 . S
C270 H282 0.929 . S
C271 C267 1.531 . S
C271 H283 0.960 . S
C271 H284 0.962 . S
C271 H285 0.960 . S
C272 C269 1.511 . S
C272 H286 0.961 . S
C272 H287 0.961 . S
C272 H288 0.961 . S
C273 C274 1.370 . S
C273 C275 1.363 . S
C273 H289 0.931 . S
C274 C273 1.370 . S
C274 C278 1.408 . S
C275 C273 1.363 . S
C275 C276 1.370 . S
C275 C279 1.524 . S
C276 C268 1.503 . S
C276 C275 1.370 . S
C276 C277 1.403 . S
C277 C276 1.403 . S
C277 C278 1.404 . S
C277 C280 1.539 . S
C278 C274 1.408 . S
C278 C277 1.404 . S
C278 H290 0.930 . S
C279 C275 1.524 . S
C279 H291 0.956 . S
C279 H292 0.961 . S
C279 H293 0.961 . S
C280 C277 1.539 . S
C280 H294 0.958 . S
C280 H295 0.961 . S
C280 H296 0.960 . S
H281 C265 0.931 . S
H282 C270 0.929 . S
H283 C271 0.960 . S
H284 C271 0.962 . S
H285 C271 0.960 . S
H286 C272 0.961 . S
H287 C272 0.961 . S
H288 C272 0.961 . S
H289 C273 0.931 . S
H290 C278 0.930 . S
H291 C279 0.956 . S
H292 C279 0.961 . S
H293 C279 0.961 . S
H294 C280 0.958 . S
H295 C280 0.961 . S
H296 C280 0.960 . S
C297 C298 1.391 . S
C297 C299 1.394 . S
C297 H313 0.931 . S
C298 C297 1.391 . S
C298 C302 1.376 . S
C299 C297 1.394 . S
C299 C300 1.369 . S
C299 C303 1.531 . S
C300 C299 1.369 . S
C300 C301 1.410 . S
C300 C308 1.503 . S
C301 C300 1.410 . S
C301 C302 1.392 . S
C301 C304 1.511 . S
C302 C298 1.376 . S
C302 C301 1.392 . S
C302 H314 0.929 . S
C303 C299 1.531 . S
C303 H315 0.960 . S
C303 H316 0.962 . S
C303 H317 0.960 . S
C304 C301 1.511 . S
C304 H318 0.961 . S
C304 H319 0.961 . S
C304 H320 0.961 . S
C305 C306 1.370 . S
C305 C307 1.363 . S
C305 H321 0.931 . S
C306 C305 1.370 . S
C306 C310 1.408 . S
C307 C305 1.363 . S
C307 C308 1.370 . S
C307 C311 1.524 . S
C308 C300 1.503 . S
C308 C307 1.370 . S
C308 C309 1.403 . S
C309 C308 1.403 . S
C309 C310 1.404 . S
C309 C312 1.539 . S
C310 C306 1.408 . S
C310 C309 1.404 . S
C310 H322 0.930 . S
C311 C307 1.524 . S
C311 H323 0.956 . S
C311 H324 0.961 . S
C311 H325 0.961 . S
C312 C309 1.539 . S
C312 H326 0.958 . S
C312 H327 0.961 . S
C312 H328 0.960 . S
H313 C297 0.931 . S
H314 C302 0.929 . S
H315 C303 0.960 . S
H316 C303 0.962 . S
H317 C303 0.960 . S
H318 C304 0.961 . S
H319 C304 0.961 . S
H320 C304 0.961 . S
H321 C305 0.931 . S
H322 C310 0.930 . S
H323 C311 0.956 . S
H324 C311 0.961 . S
H325 C311 0.961 . S
H326 C312 0.958 . S
H327 C312 0.961 . S
H328 C312 0.960 . S
C329 C330 1.391 . S
C329 C331 1.394 . S
C329 H345 0.931 . S
C330 C329 1.391 . S
C330 C334 1.376 . S
C331 C329 1.394 . S
C331 C332 1.369 . S
C331 C335 1.531 . S
C332 C331 1.369 . S
C332 C333 1.410 . S
C332 C340 1.503 . S
C333 C332 1.410 . S
C333 C334 1.392 . S
C333 C336 1.511 . S
C334 C330 1.376 . S
C334 C333 1.392 . S
C334 H346 0.929 . S
C335 C331 1.531 . S
C335 H347 0.960 . S
C335 H348 0.962 . S
C335 H349 0.960 . S
C336 C333 1.511 . S
C336 H350 0.961 . S
C336 H351 0.961 . S
C336 H352 0.961 . S
C337 C338 1.370 . S
C337 C339 1.363 . S
C337 H353 0.931 . S
C338 C337 1.370 . S
C338 C342 1.408 . S
C339 C337 1.363 . S
C339 C340 1.370 . S
C339 C343 1.524 . S
C340 C332 1.503 . S
C340 C339 1.370 . S
C340 C341 1.403 . S
C341 C340 1.403 . S
C341 C342 1.404 . S
C341 C344 1.539 . S
C342 C338 1.408 . S
C342 C341 1.404 . S
C342 H354 0.930 . S
C343 C339 1.524 . S
C343 H355 0.956 . S
C343 H356 0.961 . S
C343 H357 0.961 . S
C344 C341 1.539 . S
C344 H358 0.958 . S
C344 H359 0.961 . S
C344 H360 0.960 . S
H345 C329 0.931 . S
H346 C334 0.929 . S
H347 C335 0.960 . S
H348 C335 0.962 . S
H349 C335 0.960 . S
H350 C336 0.961 . S
H351 C336 0.961 . S
H352 C336 0.961 . S
H353 C337 0.931 . S
H354 C342 0.930 . S
H355 C343 0.956 . S
H356 C343 0.961 . S
H357 C343 0.961 . S
H358 C344 0.958 . S
H359 C344 0.961 . S
H360 C344 0.960 . S
C361 C362 1.391 . S
C361 C363 1.394 . S
C361 H377 0.931 . S
C362 C361 1.391 . S
C362 C366 1.376 . S
C363 C361 1.394 . S
C363 C364 1.369 . S
C363 C367 1.531 . S
C364 C363 1.369 . S
C364 C365 1.410 . S
C364 C372 1.503 . S
C365 C364 1.410 . S
C365 C366 1.392 . S
C365 C368 1.511 . S
C366 C362 1.376 . S
C366 C365 1.392 . S
C366 H378 0.929 . S
C367 C363 1.531 . S
C367 H379 0.960 . S
C367 H380 0.962 . S
C367 H381 0.960 . S
C368 C365 1.511 . S
C368 H382 0.961 . S
C368 H383 0.961 . S
C368 H384 0.961 . S
C369 C370 1.370 . S
C369 C371 1.363 . S
C369 H385 0.931 . S
C370 C369 1.370 . S
C370 C374 1.408 . S
C371 C369 1.363 . S
C371 C372 1.370 . S
C371 C375 1.524 . S
C372 C364 1.503 . S
C372 C371 1.370 . S
C372 C373 1.403 . S
C373 C372 1.403 . S
C373 C374 1.404 . S
C373 C376 1.539 . S
C374 C370 1.408 . S
C374 C373 1.404 . S
C374 H386 0.930 . S
C375 C371 1.524 . S
C375 H387 0.956 . S
C375 H388 0.961 . S
C375 H389 0.961 . S
C376 C373 1.539 . S
C376 H390 0.958 . S
C376 H391 0.961 . S
C376 H392 0.960 . S
H377 C361 0.931 . S
H378 C366 0.929 . S
H379 C367 0.960 . S
H380 C367 0.962 . S
H381 C367 0.960 . S
H382 C368 0.961 . S
H383 C368 0.961 . S
H384 C368 0.961 . S
H385 C369 0.931 . S
H386 C374 0.930 . S
H387 C375 0.956 . S
H388 C375 0.961 . S
H389 C375 0.961 . S
H390 C376 0.958 . S
H391 C376 0.961 . S
H392 C376 0.960 . S
C393 C394 1.391 . S
C393 C395 1.394 . S
C393 H409 0.931 . S
C394 C393 1.391 . S
C394 C398 1.376 . S
C395 C393 1.394 . S
C395 C396 1.369 . S
C395 C399 1.531 . S
C396 C395 1.369 . S
C396 C397 1.410 . S
C396 C404 1.503 . S
C397 C396 1.410 . S
C397 C398 1.392 . S
C397 C400 1.511 . S
C398 C394 1.376 . S
C398 C397 1.392 . S
C398 H410 0.929 . S
C399 C395 1.531 . S
C399 H411 0.960 . S
C399 H412 0.962 . S
C399 H413 0.960 . S
C400 C397 1.511 . S
C400 H414 0.961 . S
C400 H415 0.961 . S
C400 H416 0.961 . S
C401 C402 1.370 . S
C401 C403 1.363 . S
C401 H417 0.931 . S
C402 C401 1.370 . S
C402 C406 1.408 . S
C403 C401 1.363 . S
C403 C404 1.370 . S
C403 C407 1.524 . S
C404 C396 1.503 . S
C404 C403 1.370 . S
C404 C405 1.403 . S
C405 C404 1.403 . S
C405 C406 1.404 . S
C405 C408 1.539 . S
C406 C402 1.408 . S
C406 C405 1.404 . S
C406 H418 0.930 . S
C407 C403 1.524 . S
C407 H419 0.956 . S
C407 H420 0.961 . S
C407 H421 0.961 . S
C408 C405 1.539 . S
C408 H422 0.958 . S
C408 H423 0.961 . S
C408 H424 0.960 . S
H409 C393 0.931 . S
H410 C398 0.929 . S
H411 C399 0.960 . S
H412 C399 0.962 . S
H413 C399 0.960 . S
H414 C400 0.961 . S
H415 C400 0.961 . S
H416 C400 0.961 . S
H417 C401 0.931 . S
H418 C406 0.930 . S
H419 C407 0.956 . S
H420 C407 0.961 . S
H421 C407 0.961 . S
H422 C408 0.958 . S
H423 C408 0.961 . S
H424 C408 0.960 . S
C425 C426 1.391 . S
C425 C427 1.394 . S
C425 H441 0.931 . S
C426 C425 1.391 . S
C426 C430 1.376 . S
C427 C425 1.394 . S
C427 C428 1.369 . S
C427 C431 1.531 . S
C428 C427 1.369 . S
C428 C429 1.410 . S
C428 C436 1.503 . S
C429 C428 1.410 . S
C429 C430 1.392 . S
C429 C432 1.511 . S
C430 C426 1.376 . S
C430 C429 1.392 . S
C430 H442 0.929 . S
C431 C427 1.531 . S
C431 H443 0.960 . S
C431 H444 0.962 . S
C431 H445 0.960 . S
C432 C429 1.511 . S
C432 H446 0.961 . S
C432 H447 0.961 . S
C432 H448 0.961 . S
C433 C434 1.370 . S
C433 C435 1.363 . S
C433 H449 0.931 . S
C434 C433 1.370 . S
C434 C438 1.408 . S
C435 C433 1.363 . S
C435 C436 1.370 . S
C435 C439 1.524 . S
C436 C428 1.503 . S
C436 C435 1.370 . S
C436 C437 1.403 . S
C437 C436 1.403 . S
C437 C438 1.404 . S
C437 C440 1.539 . S
C438 C434 1.408 . S
C438 C437 1.404 . S
C438 H450 0.930 . S
C439 C435 1.524 . S
C439 H451 0.956 . S
C439 H452 0.961 . S
C439 H453 0.961 . S
C440 C437 1.539 . S
C440 H454 0.958 . S
C440 H455 0.961 . S
C440 H456 0.960 . S
H441 C425 0.931 . S
H442 C430 0.929 . S
H443 C431 0.960 . S
H444 C431 0.962 . S
H445 C431 0.960 . S
H446 C432 0.961 . S
H447 C432 0.961 . S
H448 C432 0.961 . S
H449 C433 0.931 . S
H450 C438 0.930 . S
H451 C439 0.956 . S
H452 C439 0.961 . S
H453 C439 0.961 . S
H454 C440 0.958 . S
H455 C440 0.961 . S
H456 C440 0.960 . S
C457 C458 1.391 . S
C457 C459 1.394 . S
C457 H473 0.931 . S
C458 C457 1.391 . S
C458 C462 1.376 . S
C459 C457 1.394 . S
C459 C460 1.369 . S
C459 C463 1.531 . S
C460 C459 1.369 . S
C460 C461 1.410 . S
C460 C468 1.503 . S
C461 C460 1.410 . S
C461 C462 1.392 . S
C461 C464 1.511 . S
C462 C458 1.376 . S
C462 C461 1.392 . S
C462 H474 0.929 . S
C463 C459 1.531 . S
C463 H475 0.960 . S
C463 H476 0.962 . S
C463 H477 0.960 . S
C464 C461 1.511 . S
C464 H478 0.961 . S
C464 H479 0.961 . S
C464 H480 0.961 . S
C465 C466 1.370 . S
C465 C467 1.363 . S
C465 H481 0.931 . S
C466 C465 1.370 . S
C466 C470 1.408 . S
C467 C465 1.363 . S
C467 C468 1.370 . S
C467 C471 1.524 . S
C468 C460 1.503 . S
C468 C467 1.370 . S
C468 C469 1.403 . S
C469 C468 1.403 . S
C469 C470 1.404 . S
C469 C472 1.539 . S
C470 C466 1.408 . S
C470 C469 1.404 . S
C470 H482 0.930 . S
C471 C467 1.524 . S
C471 H483 0.956 . S
C471 H484 0.961 . S
C471 H485 0.961 . S
C472 C469 1.539 . S
C472 H486 0.958 . S
C472 H487 0.961 . S
C472 H488 0.960 . S
H473 C457 0.931 . S
H474 C462 0.929 . S
H475 C463 0.960 . S
H476 C463 0.962 . S
H477 C463 0.960 . S
H478 C464 0.961 . S
H479 C464 0.961 . S
H480 C464 0.961 . S
H481 C465 0.931 . S
H482 C470 0.930 . S
H483 C471 0.956 . S
H484 C471 0.961 . S
H485 C471 0.961 . S
H486 C472 0.958 . S
H487 C472 0.961 . S
H488 C472 0.960 . S
C489 C490 1.391 . S
C489 C491 1.394 . S
C489 H505 0.931 . S
C490 C489 1.391 . S
C490 C494 1.376 . S
C491 C489 1.394 . S
C491 C492 1.369 . S
C491 C495 1.531 . S
C492 C491 1.369 . S
C492 C493 1.410 1_554 S
C492 C500 1.503 1_554 S
C493 C492 1.410 1_556 S
C493 C494 1.392 1_556 S
C493 C496 1.511 . S
C494 C490 1.376 . S
C494 C493 1.392 1_554 S
C494 H506 0.929 . S
C495 C491 1.531 . S
C495 H507 0.960 . S
C495 H508 0.962 . S
C495 H509 0.960 . S
C496 C493 1.511 . S
C496 H510 0.961 . S
C496 H511 0.961 . S
C496 H512 0.961 . S
C497 C498 1.370 . S
C497 C499 1.363 . S
C497 H513 0.931 . S
C498 C497 1.370 . S
C498 C502 1.408 . S
C499 C497 1.363 . S
C499 C500 1.370 . S
C499 C503 1.524 . S
C500 C492 1.503 1_556 S
C500 C499 1.370 . S
C500 C501 1.403 . S
C501 C500 1.403 . S
C501 C502 1.404 . S
C501 C504 1.539 1_556 S
C502 C498 1.408 . S
C502 C501 1.404 . S
C502 H514 0.930 . S
C503 C499 1.524 . S
C503 H515 0.956 . S
C503 H516 0.961 . S
C503 H517 0.961 . S
C504 C501 1.539 1_554 S
C504 H518 0.958 . S
C504 H519 0.961 . S
C504 H520 0.960 . S
H505 C489 0.931 . S
H506 C494 0.929 . S
H507 C495 0.960 . S
H508 C495 0.962 . S
H509 C495 0.960 . S
H510 C496 0.961 . S
H511 C496 0.961 . S
H512 C496 0.961 . S
H513 C497 0.931 . S
H514 C502 0.930 . S
H515 C503 0.956 . S
H516 C503 0.961 . S
H517 C503 0.961 . S
H518 C504 0.958 . S
H519 C504 0.961 . S
H520 C504 0.960 . S
C521 C522 1.391 . S
C521 C523 1.394 . S
C521 H537 0.931 . S
C522 C521 1.391 . S
C522 C526 1.376 1_554 S
C523 C521 1.394 . S
C523 C524 1.369 1_554 S
C523 C527 1.531 . S
C524 C523 1.369 1_556 S
C524 C525 1.410 . S
C524 C532 1.503 . S
C525 C524 1.410 . S
C525 C526 1.392 . S
C525 C528 1.511 . S
C526 C522 1.376 1_556 S
C526 C525 1.392 . S
C526 H538 0.929 . S
C527 C523 1.531 . S
C527 H539 0.960 . S
C527 H540 0.962 . S
C527 H541 0.960 . S
C528 C525 1.511 . S
C528 H542 0.961 . S
C528 H543 0.961 . S
C528 H544 0.961 . S
C529 C530 1.370 . S
C529 C531 1.363 . S
C529 H545 0.931 . S
C530 C529 1.370 . S
C530 C534 1.408 . S
C531 C529 1.363 . S
C531 C532 1.370 . S
C531 C535 1.524 . S
C532 C524 1.503 . S
C532 C531 1.370 . S
C532 C533 1.403 . S
C533 C532 1.403 . S
C533 C534 1.404 . S
C533 C536 1.539 . S
C534 C530 1.408 . S
C534 C533 1.404 . S
C534 H546 0.930 . S
C535 C531 1.524 . S
C535 H547 0.956 . S
C535 H548 0.961 . S
C535 H549 0.961 . S
C536 C533 1.539 . S
C536 H550 0.958 . S
C536 H551 0.961 . S
C536 H552 0.960 . S
H537 C521 0.931 . S
H538 C526 0.929 . S
H539 C527 0.960 . S
H540 C527 0.962 . S
H541 C527 0.960 . S
H542 C528 0.961 . S
H543 C528 0.961 . S
H544 C528 0.961 . S
H545 C529 0.931 . S
H546 C534 0.930 . S
H547 C535 0.956 . S
H548 C535 0.961 . S
H549 C535 0.961 . S
H550 C536 0.958 . S
H551 C536 0.961 . S
H552 C536 0.960 . S
C553 C554 1.391 1_556 S
C553 C555 1.394 . S
C553 H569 0.931 . S
C554 C553 1.391 1_554 S
C554 C558 1.376 . S
C555 C553 1.394 . S
C555 C556 1.369 . S
C555 C559 1.531 . S
C556 C555 1.369 . S
C556 C557 1.410 1_556 S
C556 C564 1.503 . S
C557 C556 1.410 1_554 S
C557 C558 1.392 . S
C557 C560 1.511 . S
C558 C554 1.376 . S
C558 C557 1.392 . S
C558 H570 0.929 . S
C559 C555 1.531 . S
C559 H571 0.960 . S
C559 H572 0.962 . S
C559 H573 0.960 . S
C560 C557 1.511 . S
C560 H574 0.961 . S
C560 H575 0.961 . S
C560 H576 0.961 . S
C561 C562 1.370 . S
C561 C563 1.363 . S
C561 H577 0.931 . S
C562 C561 1.370 . S
C562 C566 1.408 . S
C563 C561 1.363 . S
C563 C564 1.370 . S
C563 C567 1.524 . S
C564 C556 1.503 . S
C564 C563 1.370 . S
C564 C565 1.403 . S
C565 C564 1.403 . S
C565 C566 1.404 . S
C565 C568 1.539 . S
C566 C562 1.408 . S
C566 C565 1.404 . S
C566 H578 0.930 . S
C567 C563 1.524 . S
C567 H579 0.956 . S
C567 H580 0.961 1_556 S
C567 H581 0.961 1_556 S
C568 C565 1.539 . S
C568 H582 0.958 . S
C568 H583 0.961 . S
C568 H584 0.960 . S
H569 C553 0.931 . S
H570 C558 0.929 . S
H571 C559 0.960 . S
H572 C559 0.962 . S
H573 C559 0.960 . S
H574 C560 0.961 . S
H575 C560 0.961 . S
H576 C560 0.961 . S
H577 C561 0.931 . S
H578 C566 0.930 . S
H579 C567 0.956 . S
H580 C567 0.961 1_554 S
H581 C567 0.961 1_554 S
H582 C568 0.958 . S
H583 C568 0.961 . S
H584 C568 0.960 . S
C585 C586 1.391 . S
C585 C587 1.394 . S
C585 H601 0.931 . S
C586 C585 1.391 . S
C586 C590 1.376 . S
C587 C585 1.394 . S
C587 C588 1.369 . S
C587 C591 1.531 . S
C588 C587 1.369 . S
C588 C589 1.410 . S
C588 C596 1.503 . S
C589 C588 1.410 . S
C589 C590 1.392 . S
C589 C592 1.511 . S
C590 C586 1.376 . S
C590 C589 1.392 . S
C590 H602 0.929 . S
C591 C587 1.531 . S
C591 H603 0.960 . S
C591 H604 0.962 . S
C591 H605 0.960 . S
C592 C589 1.511 . S
C592 H606 0.961 . S
C592 H607 0.961 . S
C592 H608 0.961 . S
C593 C594 1.370 . S
C593 C595 1.363 . S
C593 H609 0.931 . S
C594 C593 1.370 . S
C594 C598 1.408 . S
C595 C593 1.363 . S
C595 C596 1.370 . S
C595 C599 1.524 . S
C596 C588 1.503 . S
C596 C595 1.370 . S
C596 C597 1.403 . S
C597 C596 1.403 . S
C597 C598 1.404 . S
C597 C600 1.539 . S
C598 C594 1.408 . S
C598 C597 1.404 . S
C598 H610 0.930 . S
C599 C595 1.524 . S
C599 H611 0.956 . S
C599 H612 0.961 . S
C599 H613 0.961 . S
C600 C597 1.539 . S
C600 H614 0.958 . S
C600 H615 0.961 . S
C600 H616 0.960 . S
H601 C585 0.931 . S
H602 C590 0.929 . S
H603 C591 0.960 . S
H604 C591 0.962 . S
H605 C591 0.960 . S
H606 C592 0.961 . S
H607 C592 0.961 . S
H608 C592 0.961 . S
H609 C593 0.931 . S
H610 C598 0.930 . S
H611 C599 0.956 . S
H612 C599 0.961 . S
H613 C599 0.961 . S
H614 C600 0.958 . S
H615 C600 0.961 . S
H616 C600 0.960 . S
C617 C618 1.391 . S
C617 C619 1.394 . S
C617 H633 0.931 . S
C618 C617 1.391 . S
C618 C622 1.376 1_556 S
C619 C617 1.394 . S
C619 C620 1.369 . S
C619 C623 1.531 . S
C620 C619 1.369 . S
C620 C621 1.410 . S
C620 C628 1.503 . S
C621 C620 1.410 . S
C621 C622 1.392 1_556 S
C621 C624 1.511 1_556 S
C622 C618 1.376 1_554 S
C622 C621 1.392 1_554 S
C622 H634 0.929 . S
C623 C619 1.531 . S
C623 H635 0.960 . S
C623 H636 0.962 . S
C623 H637 0.960 . S
C624 C621 1.511 1_554 S
C624 H638 0.961 . S
C624 H639 0.961 1_554 S
C624 H640 0.961 . S
C625 C626 1.370 . S
C625 C627 1.363 . S
C625 H641 0.931 . S
C626 C625 1.370 . S
C626 C630 1.408 . S
C627 C625 1.363 . S
C627 C628 1.370 . S
C627 C631 1.524 . S
C628 C620 1.503 . S
C628 C627 1.370 . S
C628 C629 1.403 . S
C629 C628 1.403 . S
C629 C630 1.404 . S
C629 C632 1.539 . S
C630 C626 1.408 . S
C630 C629 1.404 . S
C630 H642 0.930 . S
C631 C627 1.524 . S
C631 H643 0.956 . S
C631 H644 0.961 . S
C631 H645 0.961 . S
C632 C629 1.539 . S
C632 H646 0.958 . S
C632 H647 0.961 . S
C632 H648 0.960 . S
H633 C617 0.931 . S
H634 C622 0.929 . S
H635 C623 0.960 . S
H636 C623 0.962 . S
H637 C623 0.960 . S
H638 C624 0.961 . S
H639 C624 0.961 1_556 S
H640 C624 0.961 . S
H641 C625 0.931 . S
H642 C630 0.930 . S
H643 C631 0.956 . S
H644 C631 0.961 . S
H645 C631 0.961 . S
H646 C632 0.958 . S
H647 C632 0.961 . S
H648 C632 0.960 . S
C649 C650 1.391 . S
C649 C651 1.394 . S
C649 H665 0.931 . S
C650 C649 1.391 . S
C650 C654 1.376 . S
C651 C649 1.394 . S
C651 C652 1.369 . S
C651 C655 1.531 . S
C652 C651 1.369 . S
C652 C653 1.410 . S
C652 C660 1.503 1_554 S
C653 C652 1.410 . S
C653 C654 1.392 . S
C653 C656 1.511 1_554 S
C654 C650 1.376 . S
C654 C653 1.392 . S
C654 H666 0.929 . S
C655 C651 1.531 . S
C655 H667 0.960 . S
C655 H668 0.962 . S
C655 H669 0.960 . S
C656 C653 1.511 1_556 S
C656 H670 0.961 . S
C656 H671 0.961 . S
C656 H672 0.961 . S
C657 C658 1.370 . S
C657 C659 1.363 . S
C657 H673 0.931 . S
C658 C657 1.370 . S
C658 C662 1.408 . S
C659 C657 1.363 . S
C659 C660 1.370 . S
C659 C663 1.524 . S
C660 C652 1.503 1_556 S
C660 C659 1.370 . S
C660 C661 1.403 . S
C661 C660 1.403 . S
C661 C662 1.404 . S
C661 C664 1.539 1_556 S
C662 C658 1.408 . S
C662 C661 1.404 . S
C662 H674 0.930 . S
C663 C659 1.524 . S
C663 H675 0.956 . S
C663 H676 0.961 . S
C663 H677 0.961 . S
C664 C661 1.539 1_554 S
C664 H678 0.958 . S
C664 H679 0.961 . S
C664 H680 0.960 . S
H665 C649 0.931 . S
H666 C654 0.929 . S
H667 C655 0.960 . S
H668 C655 0.962 . S
H669 C655 0.960 . S
H670 C656 0.961 . S
H671 C656 0.961 . S
H672 C656 0.961 . S
H673 C657 0.931 . S
H674 C662 0.930 . S
H675 C663 0.956 . S
H676 C663 0.961 . S
H677 C663 0.961 . S
H678 C664 0.958 . S
H679 C664 0.961 . S
H680 C664 0.960 . S
C681 C682 1.391 . S
C681 C683 1.394 . S
C681 H697 0.931 . S
C682 C681 1.391 . S
C682 C686 1.376 1_554 S
C683 C681 1.394 . S
C683 C684 1.369 1_554 S
C683 C687 1.531 . S
C684 C683 1.369 1_556 S
C684 C685 1.410 . S
C684 C692 1.503 . S
C685 C684 1.410 . S
C685 C686 1.392 . S
C685 C688 1.511 . S
C686 C682 1.376 1_556 S
C686 C685 1.392 . S
C686 H698 0.929 . S
C687 C683 1.531 . S
C687 H699 0.960 . S
C687 H700 0.962 . S
C687 H701 0.960 . S
C688 C685 1.511 . S
C688 H702 0.961 . S
C688 H703 0.961 . S
C688 H704 0.961 . S
C689 C690 1.370 . S
C689 C691 1.363 . S
C689 H705 0.931 . S
C690 C689 1.370 . S
C690 C694 1.408 . S
C691 C689 1.363 . S
C691 C692 1.370 . S
C691 C695 1.524 . S
C692 C684 1.503 . S
C692 C691 1.370 . S
C692 C693 1.403 . S
C693 C692 1.403 . S
C693 C694 1.404 . S
C693 C696 1.539 . S
C694 C690 1.408 . S
C694 C693 1.404 . S
C694 H706 0.930 . S
C695 C691 1.524 . S
C695 H707 0.956 . S
C695 H708 0.961 . S
C695 H709 0.961 . S
C696 C693 1.539 . S
C696 H710 0.958 1_556 S
C696 H711 0.961 . S
C696 H712 0.960 . S
H697 C681 0.931 . S
H698 C686 0.929 . S
H699 C687 0.960 . S
H700 C687 0.962 . S
H701 C687 0.960 . S
H702 C688 0.961 . S
H703 C688 0.961 . S
H704 C688 0.961 . S
H705 C689 0.931 . S
H706 C694 0.930 . S
H707 C695 0.956 . S
H708 C695 0.961 . S
H709 C695 0.961 . S
H710 C696 0.958 1_554 S
H711 C696 0.961 . S
H712 C696 0.960 . S
C713 C714 1.378 1_556 S
C713 C715 1.394 . S
C713 H729 0.931 . S
C714 C713 1.378 1_554 S
C714 C718 1.380 . S
C715 C713 1.394 . S
C715 C716 1.369 . S
C715 C719 1.531 . S
C716 C715 1.369 . S
C716 C717 1.410 . S
C716 C724 1.503 . S
C717 C716 1.410 . S
C717 C718 1.392 1_556 S
C717 C720 1.511 . S
C718 C714 1.380 . S
C718 C717 1.392 1_554 S
C718 H730 0.929 . S
C719 C715 1.531 . S
C719 H731 0.960 . S
C719 H732 0.962 . S
C719 H733 0.960 . S
C720 C717 1.511 . S
C720 H734 0.961 1_556 S
C720 H735 0.961 . S
C720 H736 0.961 . S
C721 C722 1.370 . S
C721 C723 1.363 . S
C721 H737 0.931 . S
C722 C721 1.370 . S
C722 C726 1.408 . S
C723 C721 1.363 . S
C723 C724 1.370 . S
C723 C727 1.524 . S
C724 C716 1.503 . S
C724 C723 1.370 . S
C724 C725 1.403 . S
C725 C724 1.403 . S
C725 C726 1.404 . S
C725 C728 1.539 . S
C726 C722 1.408 . S
C726 C725 1.404 . S
C726 H738 0.930 . S
C727 C723 1.524 . S
C727 H739 0.956 . S
C727 H740 0.961 . S
C727 H741 0.961 . S
C728 C725 1.539 . S
C728 H742 0.958 . S
C728 H743 0.961 . S
C728 H744 0.960 . S
H729 C713 0.931 . S
H730 C718 0.929 . S
H731 C719 0.960 . S
H732 C719 0.962 . S
H733 C719 0.960 . S
H734 C720 0.961 1_554 S
H735 C720 0.961 . S
H736 C720 0.961 . S
H737 C721 0.931 . S
H738 C726 0.930 . S
H739 C727 0.956 . S
H740 C727 0.961 . S
H741 C727 0.961 . S
H742 C728 0.958 . S
H743 C728 0.961 . S
H744 C728 0.960 . S
C745 C746 1.391 . S
C745 C747 1.394 . S
C745 H761 0.931 . S
C746 C745 1.391 . S
C746 C750 1.376 . S
C747 C745 1.394 . S
C747 C748 1.369 . S
C747 C751 1.531 . S
C748 C747 1.369 . S
C748 C749 1.410 . S
C748 C756 1.503 . S
C749 C748 1.410 . S
C749 C750 1.392 . S
C749 C752 1.511 . S
C750 C746 1.376 . S
C750 C749 1.392 . S
C750 H762 0.929 . S
C751 C747 1.531 . S
C751 H763 0.960 . S
C751 H764 0.962 . S
C751 H765 0.960 1_556 S
C752 C749 1.511 . S
C752 H766 0.961 . S
C752 H767 0.961 . S
C752 H768 0.961 . S
C753 C754 1.370 . S
C753 C755 1.363 . S
C753 H769 0.931 . S
C754 C753 1.370 . S
C754 C758 1.408 . S
C755 C753 1.363 . S
C755 C756 1.370 . S
C755 C759 1.524 . S
C756 C748 1.503 . S
C756 C755 1.370 . S
C756 C757 1.403 . S
C757 C756 1.403 . S
C757 C758 1.404 . S
C757 C760 1.539 . S
C758 C754 1.408 . S
C758 C757 1.404 . S
C758 H770 0.930 . S
C759 C755 1.524 . S
C759 H771 0.956 . S
C759 H772 0.961 . S
C759 H773 0.961 . S
C760 C757 1.539 . S
C760 H774 0.958 . S
C760 H775 0.961 . S
C760 H776 0.960 . S
H761 C745 0.931 . S
H762 C750 0.929 . S
H763 C751 0.960 . S
H764 C751 0.962 . S
H765 C751 0.960 1_554 S
H766 C752 0.961 . S
H767 C752 0.961 . S
H768 C752 0.961 . S
H769 C753 0.931 . S
H770 C758 0.930 . S
H771 C759 0.956 . S
H772 C759 0.961 . S
H773 C759 0.961 . S
H774 C760 0.958 . S
H775 C760 0.961 . S
H776 C760 0.960 . S
C777 C778 1.391 . S
C777 C779 1.394 . S
C777 H793 0.931 . S
C778 C777 1.391 . S
C778 C782 1.376 . S
C779 C777 1.394 . S
C779 C780 1.369 . S
C779 C783 1.531 . S
C780 C779 1.369 . S
C780 C781 1.410 . S
C780 C788 1.503 . S
C781 C780 1.410 . S
C781 C782 1.392 . S
C781 C784 1.511 . S
C782 C778 1.376 . S
C782 C781 1.392 . S
C782 H794 0.929 . S
C783 C779 1.531 . S
C783 H795 0.960 . S
C783 H796 0.962 . S
C783 H797 0.960 . S
C784 C781 1.511 . S
C784 H798 0.961 . S
C784 H799 0.961 . S
C784 H800 0.961 . S
C785 C786 1.370 . S
C785 C787 1.363 . S
C785 H801 0.931 . S
C786 C785 1.370 . S
C786 C790 1.408 . S
C787 C785 1.363 . S
C787 C788 1.370 . S
C787 C791 1.524 . S
C788 C780 1.503 . S
C788 C787 1.370 . S
C788 C789 1.403 . S
C789 C788 1.403 . S
C789 C790 1.404 . S
C789 C792 1.539 . S
C790 C786 1.408 . S
C790 C789 1.404 . S
C790 H802 0.930 . S
C791 C787 1.524 . S
C791 H803 0.956 . S
C791 H804 0.961 . S
C791 H805 0.961 . S
C792 C789 1.539 . S
C792 H806 0.958 . S
C792 H807 0.961 . S
C792 H808 0.960 . S
H793 C777 0.931 . S
H794 C782 0.929 . S
H795 C783 0.960 . S
H796 C783 0.962 . S
H797 C783 0.960 . S
H798 C784 0.961 . S
H799 C784 0.961 . S
H800 C784 0.961 . S
H801 C785 0.931 . S
H802 C790 0.930 . S
H803 C791 0.956 . S
H804 C791 0.961 . S
H805 C791 0.961 . S
H806 C792 0.958 . S
H807 C792 0.961 . S
H808 C792 0.960 . S
C809 C810 1.391 . S
C809 C811 1.394 . S
C809 H825 0.931 . S
C810 C809 1.391 . S
C810 C814 1.376 . S
C811 C809 1.394 . S
C811 C812 1.369 . S
C811 C815 1.531 . S
C812 C811 1.369 . S
C812 C813 1.410 . S
C812 C820 1.503 . S
C813 C812 1.410 . S
C813 C814 1.392 . S
C813 C816 1.511 . S
C814 C810 1.376 . S
C814 C813 1.392 . S
C814 H826 0.929 . S
C815 C811 1.531 . S
C815 H827 0.960 . S
C815 H828 0.962 . S
C815 H829 0.960 . S
C816 C813 1.511 . S
C816 H830 0.961 . S
C816 H831 0.961 . S
C816 H832 0.961 . S
C817 C818 1.370 . S
C817 C819 1.363 . S
C817 H833 0.931 . S
C818 C817 1.370 . S
C818 C822 1.408 . S
C819 C817 1.363 . S
C819 C820 1.370 . S
C819 C823 1.524 . S
C820 C812 1.503 . S
C820 C819 1.370 . S
C820 C821 1.403 . S
C821 C820 1.403 . S
C821 C822 1.404 . S
C821 C824 1.539 . S
C822 C818 1.408 . S
C822 C821 1.404 . S
C822 H834 0.930 . S
C823 C819 1.524 . S
C823 H835 0.956 . S
C823 H836 0.961 . S
C823 H837 0.961 . S
C824 C821 1.539 . S
C824 H838 0.958 . S
C824 H839 0.961 . S
C824 H840 0.960 . S
H825 C809 0.931 . S
H826 C814 0.929 . S
H827 C815 0.960 . S
H828 C815 0.962 . S
H829 C815 0.960 . S
H830 C816 0.961 . S
H831 C816 0.961 . S
H832 C816 0.961 . S
H833 C817 0.931 . S
H834 C822 0.930 . S
H835 C823 0.956 . S
H836 C823 0.961 . S
H837 C823 0.961 . S
H838 C824 0.958 . S
H839 C824 0.961 . S
H840 C824 0.960 . S
C841 C842 1.391 . S
C841 C843 1.394 . S
C841 H857 0.931 . S
C842 C841 1.391 . S
C842 C846 1.376 . S
C843 C841 1.394 . S
C843 C844 1.369 . S
C843 C847 1.531 . S
C844 C843 1.369 . S
C844 C845 1.410 . S
C844 C852 1.503 . S
C845 C844 1.410 . S
C845 C846 1.392 . S
C845 C848 1.511 . S
C846 C842 1.376 . S
C846 C845 1.392 . S
C846 H858 0.929 . S
C847 C843 1.531 . S
C847 H859 0.960 . S
C847 H860 0.962 . S
C847 H861 0.960 . S
C848 C845 1.511 . S
C848 H862 0.961 . S
C848 H863 0.961 . S
C848 H864 0.961 . S
C849 C850 1.370 . S
C849 C851 1.363 . S
C849 H865 0.931 . S
C850 C849 1.370 . S
C850 C854 1.408 . S
C851 C849 1.363 . S
C851 C852 1.370 . S
C851 C855 1.524 . S
C852 C844 1.503 . S
C852 C851 1.370 . S
C852 C853 1.403 . S
C853 C852 1.403 . S
C853 C854 1.404 . S
C853 C856 1.539 . S
C854 C850 1.408 . S
C854 C853 1.404 . S
C854 H866 0.930 . S
C855 C851 1.524 . S
C855 H867 0.956 . S
C855 H868 0.961 . S
C855 H869 0.961 . S
C856 C853 1.539 . S
C856 H870 0.958 . S
C856 H871 0.961 . S
C856 H872 0.960 . S
H857 C841 0.931 . S
H858 C846 0.929 . S
H859 C847 0.960 . S
H860 C847 0.962 . S
H861 C847 0.960 . S
H862 C848 0.961 . S
H863 C848 0.961 . S
H864 C848 0.961 . S
H865 C849 0.931 . S
H866 C854 0.930 . S
H867 C855 0.956 . S
H868 C855 0.961 . S
H869 C855 0.961 . S
H870 C856 0.958 . S
H871 C856 0.961 . S
H872 C856 0.960 . S
C873 C874 1.391 . S
C873 C875 1.394 . S
C873 H889 0.931 . S
C874 C873 1.391 . S
C874 C878 1.376 . S
C875 C873 1.394 . S
C875 C876 1.369 . S
C875 C879 1.531 . S
C876 C875 1.369 . S
C876 C877 1.410 . S
C876 C884 1.503 . S
C877 C876 1.410 . S
C877 C878 1.392 . S
C877 C880 1.511 . S
C878 C874 1.376 . S
C878 C877 1.392 . S
C878 H890 0.929 . S
C879 C875 1.531 . S
C879 H891 0.960 . S
C879 H892 0.962 . S
C879 H893 0.960 . S
C880 C877 1.511 . S
C880 H894 0.961 . S
C880 H895 0.961 . S
C880 H896 0.961 . S
C881 C882 1.370 . S
C881 C883 1.363 . S
C881 H897 0.931 . S
C882 C881 1.370 . S
C882 C886 1.408 . S
C883 C881 1.363 . S
C883 C884 1.370 . S
C883 C887 1.524 . S
C884 C876 1.503 . S
C884 C883 1.370 . S
C884 C885 1.403 . S
C885 C884 1.403 . S
C885 C886 1.404 . S
C885 C888 1.539 . S
C886 C882 1.408 . S
C886 C885 1.404 . S
C886 H898 0.930 . S
C887 C883 1.524 . S
C887 H899 0.956 . S
C887 H900 0.961 . S
C887 H901 0.961 . S
C888 C885 1.539 . S
C888 H902 0.958 . S
C888 H903 0.961 . S
C888 H904 0.960 . S
H889 C873 0.931 . S
H890 C878 0.929 . S
H891 C879 0.960 . S
H892 C879 0.962 . S
H893 C879 0.960 . S
H894 C880 0.961 . S
H895 C880 0.961 . S
H896 C880 0.961 . S
H897 C881 0.931 . S
H898 C886 0.930 . S
H899 C887 0.956 . S
H900 C887 0.961 . S
H901 C887 0.961 . S
H902 C888 0.958 . S
H903 C888 0.961 . S
H904 C888 0.960 . S
C905 C906 1.391 . S
C905 C907 1.394 . S
C905 H921 0.931 . S
C906 C905 1.391 . S
C906 C910 1.376 . S
C907 C905 1.394 . S
C907 C908 1.369 . S
C907 C911 1.531 . S
C908 C907 1.369 . S
C908 C909 1.410 . S
C908 C916 1.503 . S
C909 C908 1.410 . S
C909 C910 1.392 . S
C909 C912 1.511 . S
C910 C906 1.376 . S
C910 C909 1.392 . S
C910 H922 0.929 . S
C911 C907 1.531 . S
C911 H923 0.960 . S
C911 H924 0.962 . S
C911 H925 0.960 . S
C912 C909 1.511 . S
C912 H926 0.961 . S
C912 H927 0.961 . S
C912 H928 0.961 . S
C913 C914 1.370 . S
C913 C915 1.363 . S
C913 H929 0.931 . S
C914 C913 1.370 . S
C914 C918 1.408 . S
C915 C913 1.363 . S
C915 C916 1.370 . S
C915 C919 1.524 . S
C916 C908 1.503 . S
C916 C915 1.370 . S
C916 C917 1.403 . S
C917 C916 1.403 . S
C917 C918 1.404 . S
C917 C920 1.539 . S
C918 C914 1.408 . S
C918 C917 1.404 . S
C918 H930 0.930 . S
C919 C915 1.524 . S
C919 H931 0.956 . S
C919 H932 0.961 . S
C919 H933 0.961 . S
C920 C917 1.539 . S
C920 H934 0.958 . S
C920 H935 0.961 . S
C920 H936 0.960 . S
H921 C905 0.931 . S
H922 C910 0.929 . S
H923 C911 0.960 . S
H924 C911 0.962 . S
H925 C911 0.960 . S
H926 C912 0.961 . S
H927 C912 0.961 . S
H928 C912 0.961 . S
H929 C913 0.931 . S
H930 C918 0.930 . S
H931 C919 0.956 . S
H932 C919 0.961 . S
H933 C919 0.961 . S
H934 C920 0.958 . S
H935 C920 0.961 . S
H936 C920 0.960 . S
C937 C938 1.391 . S
C937 C939 1.394 . S
C937 H953 0.931 . S
C938 C937 1.391 . S
C938 C942 1.376 . S
C939 C937 1.394 . S
C939 C940 1.369 . S
C939 C943 1.531 . S
C940 C939 1.369 . S
C940 C941 1.410 . S
C940 C948 1.503 . S
C941 C940 1.410 . S
C941 C942 1.392 . S
C941 C944 1.511 . S
C942 C938 1.376 . S
C942 C941 1.392 . S
C942 H954 0.929 . S
C943 C939 1.531 . S
C943 H955 0.960 . S
C943 H956 0.962 . S
C943 H957 0.960 . S
C944 C941 1.511 . S
C944 H958 0.961 . S
C944 H959 0.961 . S
C944 H960 0.961 . S
C945 C946 1.370 . S
C945 C947 1.363 . S
C945 H961 0.931 . S
C946 C945 1.370 . S
C946 C950 1.408 . S
C947 C945 1.363 . S
C947 C948 1.370 . S
C947 C951 1.524 . S
C948 C940 1.503 . S
C948 C947 1.370 . S
C948 C949 1.403 . S
C949 C948 1.403 . S
C949 C950 1.404 . S
C949 C952 1.539 . S
C950 C946 1.408 . S
C950 C949 1.404 . S
C950 H962 0.930 . S
C951 C947 1.524 . S
C951 H963 0.956 . S
C951 H964 0.961 . S
C951 H965 0.961 . S
C952 C949 1.539 . S
C952 H966 0.958 . S
C952 H967 0.961 . S
C952 H968 0.960 . S
H953 C937 0.931 . S
H954 C942 0.929 . S
H955 C943 0.960 . S
H956 C943 0.962 . S
H957 C943 0.960 . S
H958 C944 0.961 . S
H959 C944 0.961 . S
H960 C944 0.961 . S
H961 C945 0.931 . S
H962 C950 0.930 . S
H963 C951 0.956 . S
H964 C951 0.961 . S
H965 C951 0.961 . S
H966 C952 0.958 . S
H967 C952 0.961 . S
H968 C952 0.960 . S
C202 C16 1.853 . S
C210 C119 1.850 . S
C234 C26 1.630 . S
C242 C166 1.629 . S
C274 C170 1.814 . S
C266 C52 1.795 . S
C306 C135 1.517 . S
C298 C62 1.529 . S
C330 C80 1.799 . S
C338 C150 1.758 . S
C370 C172 1.141 . S
C362 C98 1.165 . S
C402 C141 1.528 . S
C394 C43 1.499 . S
C426 C68 1.480 . S
C434 C181 1.464 . S
C466 C110 1.415 . S
C458 C86 1.457 1_556 S
C490 C104 1.458 . S
C498 C139 1.448 . S
C522 C7 1.898 . S
C530 C197 1.886 . S
C562 C108 1.561 . S
C554 C32 1.554 . S
C594 C126 1.822 . S
C586 C61 1.830 1_556 S
C626 C140 1.606 . S
C618 C79 1.583 1_556 S
C658 C194 1.792 . S
C650 C97 1.791 . S
C690 C109 1.518 . S
C682 C14 1.502 . S
C722 C157 1.709 . S
C714 C25 1.775 . S
C746 C50 1.075 . S
C754 C180 1.135 . S
C786 C149 1.517 . S
C778 C106 1.483 . S
C818 C188 1.399 . S
C810 C8 1.417 . S
C850 C118 1.384 . S
C842 C34 1.371 . S
C882 C163 1.427 . S
C874 C44 1.464 . S
C906 C70 1.881 . S
C914 C171 1.873 . S
C938 C88 1.505 . S
C946 C132 1.509 . S
