# Generated by pormake.
# Topology anh, (6,3)-cn, num edge types: 1
# Building blocks:
#     Node 0, Type 0, BuildingBlock: BETDEL_clean_sbu_0, # of connection points: 6
#     Node 1, Type 0, BuildingBlock: BETDEL_clean_sbu_0, # of connection points: 6
#     Node 2, Type 0, BuildingBlock: BETDEL_clean_sbu_0, # of connection points: 6
#     Node 3, Type 1, BuildingBlock: BETDAH_clean_linker_0, # of connection points: 3
#     Node 4, Type 1, BuildingBlock: BETDAH_clean_linker_0, # of connection points: 3
#     Node 5, Type 1, BuildingBlock: BETDAH_clean_linker_0, # of connection points: 3
#     Node 6, Type 1, BuildingBlock: BETDAH_clean_linker_0, # of connection points: 3
#     Node 7, Type 1, BuildingBlock: BETDAH_clean_linker_0, # of connection points: 3
#     Node 8, Type 1, BuildingBlock: BETDAH_clean_linker_0, # of connection points: 3
#     Edge 9, Type (0, 1), BuildingBlock: XUDNAN_clean_linker_2, # of connection points: 2
#     Edge 10, Type (0, 1), BuildingBlock: XUDNAN_clean_linker_2, # of connection points: 2
#     Edge 11, Type (0, 1), BuildingBlock: XUDNAN_clean_linker_2, # of connection points: 2
#     Edge 12, Type (0, 1), BuildingBlock: XUDNAN_clean_linker_2, # of connection points: 2
#     Edge 13, Type (0, 1), BuildingBlock: XUDNAN_clean_linker_2, # of connection points: 2
#     Edge 14, Type (0, 1), BuildingBlock: XUDNAN_clean_linker_2, # of connection points: 2
#     Edge 15, Type (0, 1), BuildingBlock: XUDNAN_clean_linker_2, # of connection points: 2
#     Edge 16, Type (0, 1), BuildingBlock: XUDNAN_clean_linker_2, # of connection points: 2
#     Edge 17, Type (0, 1), BuildingBlock: XUDNAN_clean_linker_2, # of connection points: 2
#     Edge 18, Type (0, 1), BuildingBlock: XUDNAN_clean_linker_2, # of connection points: 2
#     Edge 19, Type (0, 1), BuildingBlock: XUDNAN_clean_linker_2, # of connection points: 2
#     Edge 20, Type (0, 1), BuildingBlock: XUDNAN_clean_linker_2, # of connection points: 2
#     Edge 21, Type (0, 1), BuildingBlock: XUDNAN_clean_linker_2, # of connection points: 2
#     Edge 22, Type (0, 1), BuildingBlock: XUDNAN_clean_linker_2, # of connection points: 2
#     Edge 23, Type (0, 1), BuildingBlock: XUDNAN_clean_linker_2, # of connection points: 2
#     Edge 24, Type (0, 1), BuildingBlock: XUDNAN_clean_linker_2, # of connection points: 2
#     Edge 25, Type (0, 1), BuildingBlock: XUDNAN_clean_linker_2, # of connection points: 2
#     Edge 26, Type (0, 1), BuildingBlock: XUDNAN_clean_linker_2, # of connection points: 2
# Relax obj value: 0.095
# Max RMSD: 0.133
# Mean RMSD: 0.100
data_MOF--net-anh--node1-BETDEL_clean_sbu_0--node2-BETDAH_clean_linker_0--edge1-XUDNAN_clean_linker_2
_symmetry_space_group_name_H-M    P1
_symmetry_Int_Tables_number       1
_symmetry_cell_setting            triclinic
loop_
_symmetry_equiv_pos_as_xyz
'x, y, z'
_cell_length_a     29.935005
_cell_length_b     29.999704
_cell_length_c     47.319524
_cell_angle_alpha  92.284747
_cell_angle_beta   91.968236
_cell_angle_gamma 119.87539
loop_
_atom_site_label
_atom_site_type_symbol
_atom_site_fract_x
_atom_site_fract_y
_atom_site_fract_z
_atom_type_partial_charge
Dy0 Dy 0.06425 0.47067 0.16836 0.0
C1 C 0.91581 0.52653 0.19874 0.0
C2 C 0.13315 0.44722 0.1457 0.0
Dy3 Dy 0.9932 0.5139 0.17821 0.0
O4 O 0.12493 0.44755 0.17245 0.0
O5 O 0.10367 0.45953 0.13133 0.0
O6 O 0.05122 0.44021 0.21163 0.0
O7 O 0.05103 0.50902 0.20454 0.0
C8 C 0.04302 0.47595 0.22229 0.0
C9 C 1.01221 0.50703 0.1238 0.0
O10 O 0.0681 0.58768 0.18704 0.0
O11 O 0.11912 0.55691 0.1682 0.0
O12 O 0.94152 0.54831 0.17694 0.0
O13 O 0.93435 0.49994 0.20998 0.0
O14 O 1.00283 0.54187 0.13445 0.0
O15 O 1.00565 0.47481 0.14191 0.0
O16 O 0.98935 0.39541 0.16375 0.0
O17 O 0.93854 0.42844 0.17958 0.0
C18 C 0.11291 0.59548 0.17814 0.0
C19 C 0.94462 0.38883 0.17203 0.0
Dy20 Dy 0.53638 0.04034 0.50132 0.0
C21 C 0.76039 0.18514 0.51505 0.0
C22 C 0.43504 0.98415 0.48333 0.0
Dy23 Dy 0.65977 0.11233 0.50246 0.0
O24 O 0.45314 0.98822 0.50925 0.0
O25 O 0.4723 1.0111 0.4672 0.0
O26 O 0.5427 0.02794 0.54717 0.0
O27 O 0.59802 0.09722 0.53078 0.0
C28 C 0.58622 0.07089 0.55232 0.0
C29 C 0.61716 0.06902 0.45019 0.0
O30 O 0.65058 0.03644 0.51465 0.0
O31 O 0.56409 0.98286 0.49836 0.0
O32 O 0.73785 0.17006 0.48986 0.0
O33 O 0.72805 0.159 0.53381 0.0
O34 O 0.66627 0.10053 0.45507 0.0
O35 O 0.59667 0.06402 0.47327 0.0
O36 O 0.5435 0.11893 0.49826 0.0
O37 O 0.63367 0.17055 0.49931 0.0
C38 C 0.60957 0.98983 0.50827 0.0
C39 C 0.58651 0.16455 0.49771 0.0
Dy40 Dy 0.61493 0.62295 0.8343 0.0
C41 C 0.51755 0.40528 0.85798 0.0
C42 C 0.64975 0.72219 0.82142 0.0
Dy43 Dy 0.55407 0.50177 0.83981 0.0
O44 O 0.63521 0.70423 0.84599 0.0
O45 O 0.64549 0.68588 0.80367 0.0
O46 O 0.65494 0.63309 0.87676 0.0
O47 O 0.57966 0.5705 0.86803 0.0
C48 C 0.6179 0.59102 0.88589 0.0
C49 C 0.56479 0.52462 0.78469 0.0
O50 O 0.49065 0.51961 0.84804 0.0
O51 O 0.53174 0.60352 0.83307 0.0
O52 O 0.49197 0.41909 0.84114 0.0
O53 O 0.56232 0.44503 0.86574 0.0
O54 O 0.54084 0.47784 0.79262 0.0
O55 O 0.58007 0.55428 0.80668 0.0
O56 O 0.6774 0.60479 0.82544 0.0
O57 O 0.63833 0.52372 0.84389 0.0
C58 C 0.49038 0.56233 0.84166 0.0
C59 C 0.67926 0.56431 0.83451 0.0
H60 H 0.43155 0.89925 0.25117 0.0
H61 H 0.58017 0.03083 0.23762 0.0
H62 H 0.46643 0.95387 0.16819 0.0
C63 C 0.45934 0.92573 0.23734 0.0
C64 C 0.44438 0.92063 0.20851 0.0
C65 C 0.50804 0.96547 0.24848 0.0
C66 C 0.5422 1.00058 0.22976 0.0
C67 C 0.52722 0.99687 0.20079 0.0
C68 C 0.47811 0.95693 0.19044 0.0
N69 N 0.55978 0.03268 0.18144 0.0
C70 C 0.61109 0.07179 0.18707 0.0
H71 H 0.58001 0.46731 0.57962 0.0
H72 H 0.57739 0.60781 0.56817 0.0
H73 H 0.57141 0.51377 0.49566 0.0
C74 C 0.57717 0.49377 0.56573 0.0
C75 C 0.57514 0.48443 0.53622 0.0
C76 C 0.57825 0.53825 0.57754 0.0
C77 C 0.5772 0.57385 0.55934 0.0
C78 C 0.57475 0.56512 0.52976 0.0
C79 C 0.57348 0.52036 0.51847 0.0
N80 N 0.57318 0.60007 0.51068 0.0
C81 C 0.58194 0.64951 0.51809 0.0
H82 H 0.96784 0.5313 0.92029 0.0
H83 H 0.10035 0.51409 0.9073 0.0
H84 H 1.02286 0.53909 0.83676 0.0
C85 C 0.99506 0.53006 0.9062 0.0
C86 C 0.99045 0.53674 0.87721 0.0
C87 C 0.03439 0.52169 0.91726 0.0
C88 C 0.07 0.52049 0.89896 0.0
C89 C 0.06606 0.52706 0.86989 0.0
C90 C 0.02611 0.53476 0.85924 0.0
N91 N 0.10036 0.52462 0.85053 0.0
C92 C 0.14964 0.53257 0.85757 0.0
H93 H 0.10492 0.66816 0.399 0.0
H94 H 0.98578 0.5409 0.43974 0.0
H95 H 0.07254 0.68895 0.48488 0.0
C96 C 0.08188 0.65329 0.41711 0.0
C97 C 0.09372 0.68524 0.44197 0.0
C98 C 0.04245 0.60137 0.41584 0.0
C99 C 1.01583 0.58095 0.4403 0.0
C100 C 0.02718 0.61282 0.46525 0.0
C101 C 0.06474 0.66484 0.4656 0.0
N102 N 1.00211 0.59399 0.49056 0.0
C103 C 0.9817 0.54331 0.49759 0.0
H104 H 0.59223 0.17298 0.75592 0.0
H105 H 0.68844 0.10502 0.76496 0.0
H106 H 0.63453 0.14673 0.83896 0.0
C107 C 0.61185 0.15885 0.7694 0.0
C108 C 0.60862 0.16113 0.79894 0.0
C109 C 0.64081 0.13895 0.75712 0.0
C110 C 0.66602 0.12034 0.77444 0.0
C111 C 0.66422 0.12384 0.80406 0.0
C112 C 0.63614 0.14477 0.81612 0.0
N113 N 0.69085 0.10732 0.82227 0.0
C114 C 0.69745 0.06583 0.81497 0.0
H115 H 0.63519 0.47781 0.08869 0.0
H116 H 0.47378 0.40944 0.06369 0.0
H117 H 0.5205 0.37531 0.14278 0.0
C118 C 0.59514 0.45407 0.09332 0.0
C119 C 0.58312 0.42947 0.1189 0.0
C120 C 0.5563 0.44812 0.0734 0.0
C121 C 0.50441 0.4146 0.07868 0.0
C122 C 0.49197 0.38746 0.10343 0.0
C123 C 0.53115 0.39503 0.12334 0.0
N124 N 0.44019 0.35246 0.10892 0.0
C125 C 0.40115 0.36408 0.10485 0.0
H126 H 0.20133 0.4277 0.17435 0.0
H127 H 0.14999 0.44023 0.08973 0.0
H128 H 0.21385 0.42043 0.06948 0.0
H129 H 0.33632 0.48653 0.16181 0.0
H130 H 0.34693 0.44467 0.18389 0.0
H131 H 0.29712 0.45965 0.19142 0.0
H132 H 0.22939 0.36219 0.18887 0.0
H133 H 0.27897 0.3469 0.18134 0.0
H134 H 0.22231 0.32248 0.15752 0.0
H135 H 0.28361 0.39872 0.05871 0.0
H136 H 0.35374 0.37707 0.05859 0.0
H137 H 0.35859 0.37963 0.15024 0.0
C138 C 0.20352 0.4262 0.15156 0.0
C139 C 0.17087 0.43532 0.13353 0.0
C140 C 0.17482 0.43328 0.10384 0.0
C141 C 0.21091 0.4221 0.09219 0.0
C142 C 0.24267 0.41329 0.11058 0.0
C143 C 0.23933 0.41532 0.13964 0.0
C144 C 0.27792 0.40465 0.15485 0.0
C145 C 0.31688 0.45168 0.17412 0.0
C146 C 0.25049 0.35617 0.17163 0.0
C147 C 0.30327 0.39584 0.12984 0.0
C148 C 0.28259 0.40107 0.10444 0.0
C149 C 0.30007 0.39455 0.07846 0.0
C150 C 0.33967 0.3823 0.07854 0.0
C151 C 0.36081 0.37679 0.10439 0.0
C152 C 0.3426 0.38369 0.13025 0.0
H153 H 0.82588 0.24226 0.47638 0.0
H154 H 0.80146 0.23992 0.56616 0.0
H155 H 0.86831 0.33214 0.57262 0.0
H156 H 0.96864 0.34429 0.48132 0.0
H157 H 0.9599 0.37123 0.44963 0.0
H158 H 0.92135 0.30298 0.45364 0.0
H159 H 0.83855 0.30859 0.44452 0.0
H160 H 0.87647 0.37676 0.44115 0.0
H161 H 0.82804 0.35225 0.46684 0.0
H162 H 0.92311 0.4271 0.56737 0.0
H163 H 0.96486 0.51593 0.55132 0.0
H164 H 0.95093 0.45613 0.46471 0.0
C165 C 0.83633 0.26057 0.49762 0.0
C166 C 0.80906 0.23412 0.52085 0.0
C167 C 0.82264 0.25945 0.54821 0.0
C168 C 0.86041 0.31184 0.55201 0.0
C169 C 0.88432 0.3378 0.52826 0.0
C170 C 0.87339 0.31269 0.50163 0.0
C171 C 0.89845 0.35016 0.47891 0.0
C172 C 0.93954 0.34166 0.46507 0.0
C173 C 0.85795 0.34671 0.45657 0.0
C174 C 0.9229 0.40057 0.49664 0.0
C175 C 0.91527 0.39269 0.52513 0.0
C176 C 0.9304 0.43367 0.54525 0.0
C177 C 0.95371 0.48379 0.53599 0.0
C178 C 0.96103 0.4921 0.50695 0.0
C179 C 0.94616 0.45031 0.4871 0.0
H180 H 0.6617 0.79978 0.85796 0.0
H181 H 0.67207 0.76364 0.76964 0.0
H182 H 0.69215 0.85155 0.75839 0.0
H183 H 0.59852 0.86929 0.84632 0.0
H184 H 0.63178 0.91599 0.87572 0.0
H185 H 0.62306 0.8523 0.87688 0.0
H186 H 0.72186 0.89112 0.88572 0.0
H187 H 0.73093 0.95507 0.88466 0.0
H188 H 0.76486 0.93491 0.86135 0.0
H189 H 0.70395 0.94152 0.75662 0.0
H190 H 0.70754 0.02568 0.76477 0.0
H191 H 0.69013 1.00131 0.85423 0.0
C192 C 0.66896 0.81061 0.83631 0.0
C193 C 0.66554 0.77527 0.81464 0.0
C194 C 0.67481 0.7905 0.78653 0.0
C195 C 0.68624 0.84025 0.77999 0.0
C196 C 0.68858 0.87407 0.80188 0.0
C197 C 0.68049 0.85988 0.8295 0.0
C198 C 0.68259 0.90208 0.84901 0.0
C199 C 0.63092 0.88381 0.86277 0.0
C200 C 0.72776 0.92197 0.87151 0.0
C201 C 0.69201 0.94199 0.828 0.0
C202 C 0.69573 0.92546 0.80091 0.0
C203 C 0.70185 0.9551 0.77779 0.0
C204 C 0.70386 1.00264 0.78255 0.0
C205 C 0.69973 0.01947 0.81011 0.0
C206 C 0.69416 0.98917 0.83305 0.0
H207 H 0.87196 0.58032 0.17858 0.0
H208 H 0.84003 0.4464 0.2244 0.0
H209 H 0.74669 0.41211 0.21546 0.0
H210 H 0.74933 0.58432 0.19932 0.0
H211 H 0.74371 0.60491 0.16476 0.0
H212 H 0.80659 0.62509 0.18137 0.0
H213 H 0.82849 0.58829 0.13693 0.0
H214 H 0.76553 0.56661 0.1205 0.0
H215 H 0.78764 0.5213 0.12532 0.0
H216 H 0.66123 0.38166 0.18997 0.0
H217 H 0.58876 0.36356 0.15628 0.0
H218 H 0.67356 0.52096 0.13104 0.0
C219 C 0.84515 0.54527 0.18807 0.0
C220 C 0.86292 0.51613 0.20225 0.0
C221 C 0.82709 0.4697 0.21382 0.0
C222 C 0.77391 0.44979 0.20874 0.0
C223 C 0.75744 0.47768 0.19288 0.0
C224 C 0.79196 0.52541 0.1836 0.0
C225 C 0.76491 0.54483 0.1643 0.0
C226 C 0.7662 0.59261 0.17828 0.0
C227 C 0.78802 0.55585 0.13505 0.0
C228 C 0.71083 0.49887 0.16233 0.0
C229 C 0.70703 0.46073 0.17917 0.0
C230 C 0.66298 0.41202 0.1776 0.0
C231 C 0.62189 0.40207 0.15832 0.0
C232 C 0.62499 0.44075 0.14086 0.0
C233 C 0.66973 0.49014 0.14371 0.0
H234 H 0.36019 0.90943 0.51214 0.0
H235 H 0.38903 0.97971 0.43154 0.0
H236 H 0.29987 0.91582 0.41352 0.0
H237 H 0.29388 0.78329 0.48355 0.0
H238 H 0.24904 0.75871 0.51104 0.0
H239 H 0.31177 0.81443 0.51875 0.0
H240 H 0.26928 0.86651 0.53669 0.0
H241 H 0.20626 0.81079 0.529 0.0
H242 H 0.22228 0.87078 0.51385 0.0
H243 H 0.20979 0.83984 0.40338 0.0
H244 H 0.12854 0.75614 0.40103 0.0
H245 H 0.16291 0.73382 0.4875 0.0
C246 C 0.34728 0.91213 0.49094 0.0
C247 C 0.38092 0.94965 0.47328 0.0
C248 C 0.36339 0.95134 0.44541 0.0
C249 C 0.31288 0.91538 0.43507 0.0
C250 C 0.2808 0.8781 0.4529 0.0
C251 C 0.29744 0.87623 0.48023 0.0
C252 C 0.2577 0.82946 0.49416 0.0
C253 C 0.2794 0.79442 0.50233 0.0
C254 C 0.2377 0.84536 0.51995 0.0
C255 C 0.21649 0.80461 0.47021 0.0
C256 C 0.22998 0.83356 0.44675 0.0
C257 C 0.19871 0.817 0.4217 0.0
C258 C 0.15284 0.76923 0.4205 0.0
C259 C 0.13911 0.73825 0.44409 0.0
C260 C 0.17133 0.75686 0.4693 0.0
H261 H 0.57771 0.37258 0.88348 0.0
H262 H 0.43536 0.31893 0.83234 0.0
H263 H 0.43442 0.23823 0.81906 0.0
H264 H 0.63718 0.34269 0.8384 0.0
H265 H 0.6703 0.32031 0.86128 0.0
H266 H 0.65089 0.36388 0.87551 0.0
H267 H 0.59938 0.30119 0.91295 0.0
H268 H 0.61949 0.25722 0.89957 0.0
H269 H 0.55182 0.23551 0.90205 0.0
H270 H 0.46194 0.17818 0.80031 0.0
H271 H 0.51086 0.13827 0.78179 0.0
H272 H 0.6363 0.23073 0.84445 0.0
C273 C 0.54485 0.34248 0.87083 0.0
C274 C 0.50666 0.35177 0.85891 0.0
C275 C 0.46478 0.3123 0.84188 0.0
C276 C 0.46399 0.2663 0.83419 0.0
C277 C 0.5048 0.2601 0.84421 0.0
C278 C 0.54374 0.29646 0.86292 0.0
C279 C 0.5872 0.28474 0.86698 0.0
C280 C 0.63943 0.33059 0.86007 0.0
C281 C 0.58959 0.26869 0.89718 0.0
C282 C 0.56921 0.23952 0.8455 0.0
C283 C 0.52087 0.22484 0.83323 0.0
C284 C 0.49903 0.1882 0.81039 0.0
C285 C 0.52736 0.16624 0.79977 0.0
C286 C 0.57721 0.18131 0.8118 0.0
C287 C 0.59776 0.21762 0.83531 0.0
H288 H 0.53953 0.88769 0.4922 0.0
H289 H 0.69056 0.98617 0.53499 0.0
H290 H 0.69815 0.90961 0.54378 0.0
H291 H 0.49785 0.78202 0.53784 0.0
H292 H 0.46513 0.73296 0.50942 0.0
H293 H 0.47101 0.7954 0.5068 0.0
H294 H 0.51448 0.80547 0.45928 0.0
H295 H 0.50845 0.74296 0.46166 0.0
H296 H 0.57084 0.79855 0.45774 0.0
H297 H 0.6896 0.82163 0.54793 0.0
H298 H 0.66687 0.72985 0.5449 0.0
H299 H 0.52232 0.68848 0.49909 0.0
C300 C 0.57424 0.89329 0.50346 0.0
C301 C 0.61445 0.94336 0.5129 0.0
C302 C 0.65921 0.94854 0.52743 0.0
C303 C 0.66384 0.90513 0.53263 0.0
C304 C 0.62347 0.85647 0.52316 0.0
C305 C 0.57963 0.85033 0.50873 0.0
C306 C 0.54234 0.79384 0.50023 0.0
C307 C 0.49105 0.77496 0.51443 0.0
C308 C 0.53353 0.78468 0.4678 0.0
C309 C 0.57209 0.76917 0.51203 0.0
C310 C 0.6187 0.80597 0.52535 0.0
C311 C 0.65314 0.79256 0.53762 0.0
C312 C 0.63992 0.74042 0.53591 0.0
C313 C 0.5928 0.70239 0.52204 0.0
C314 C 0.55838 0.71692 0.51011 0.0
H315 H 0.70687 0.50325 0.86404 0.0
H316 H 0.76689 0.62909 0.80814 0.0
H317 H 0.85181 0.63401 0.8117 0.0
H318 H 0.81976 0.55364 0.91045 0.0
H319 H 0.81409 0.49194 0.9159 0.0
H320 H 0.75716 0.49609 0.90764 0.0
H321 H 0.73265 0.43109 0.86411 0.0
H322 H 0.78854 0.42551 0.87313 0.0
H323 H 0.77923 0.44265 0.8382 0.0
H324 H 0.93132 0.62576 0.82194 0.0
H325 H 0.99891 0.60735 0.8394 0.0
H326 H 0.88777 0.48845 0.88957 0.0
C327 C 0.73765 0.53152 0.85226 0.0
C328 C 0.72983 0.56561 0.83564 0.0
C329 C 0.77163 0.60247 0.82098 0.0
C330 C 0.82011 0.60552 0.82284 0.0
C331 C 0.82659 0.57168 0.8396 0.0
C332 C 0.7865 0.53547 0.85412 0.0
C333 C 0.80404 0.50481 0.87145 0.0
C334 C 0.79843 0.51208 0.90324 0.0
C335 C 0.77439 0.44758 0.8611 0.0
C336 C 0.86033 0.5297 0.8647 0.0
C337 C 0.87248 0.56783 0.84603 0.0
C338 C 0.9221 0.59591 0.83653 0.0
C339 C 0.96023 0.58496 0.84646 0.0
C340 C 0.94891 0.54648 0.86591 0.0
C341 C 0.89801 0.51849 0.87497 0.0
H342 H 0.21541 0.62698 0.18996 0.0
H343 H 0.11156 0.68459 0.17043 0.0
H344 H 0.18592 0.77355 0.17235 0.0
H345 H 0.29632 0.73052 0.24115 0.0
H346 H 0.35496 0.73186 0.23212 0.0
H347 H 0.29411 0.6727 0.227 0.0
H348 H 0.31101 0.66508 0.17418 0.0
H349 H 0.3718 0.72447 0.17911 0.0
H350 H 0.32431 0.71745 0.15214 0.0
H351 H 0.27272 0.85685 0.17584 0.0
H352 H 0.36264 0.928 0.18683 0.0
H353 H 0.40869 0.81696 0.20806 0.0
C354 C 0.20845 0.65833 0.18584 0.0
C355 C 0.15772 0.64884 0.17973 0.0
C356 C 0.15006 0.69098 0.17511 0.0
C357 C 0.19212 0.7416 0.176 0.0
C358 C 0.24169 0.74972 0.18205 0.0
C359 C 0.24991 0.70928 0.18738 0.0
C360 C 0.30644 0.72875 0.1955 0.0
C361 C 0.31334 0.71516 0.22574 0.0
C362 C 0.32975 0.70768 0.17394 0.0
C363 C 0.32878 0.78638 0.19388 0.0
C364 C 0.29099 0.79768 0.18557 0.0
C365 C 0.30253 0.84837 0.18242 0.0
C366 C 0.35368 0.88852 0.18851 0.0
C367 C 0.39245 0.87786 0.19809 0.0
C368 C 0.37975 0.82606 0.20057 0.0
H369 H 0.52852 0.19503 0.52882 0.0
H370 H 0.64028 0.24332 0.46448 0.0
H371 H 0.64452 0.32771 0.46498 0.0
H372 H 0.46228 0.26536 0.50589 0.0
H373 H 0.45563 0.28308 0.5417 0.0
H374 H 0.45642 0.22416 0.53394 0.0
H375 H 0.53227 0.25354 0.57155 0.0
H376 H 0.53194 0.31262 0.57929 0.0
H377 H 0.59032 0.31462 0.56904 0.0
H378 H 0.64058 0.40851 0.47409 0.0
H379 H 0.63176 0.48158 0.4926 0.0
H380 H 0.52537 0.38393 0.55284 0.0
C381 C 0.55272 0.22296 0.51432 0.0
C382 C 0.58334 0.21229 0.49615 0.0
C383 C 0.61607 0.25049 0.47827 0.0
C384 C 0.61871 0.29854 0.47842 0.0
C385 C 0.58889 0.30838 0.49688 0.0
C386 C 0.55663 0.27182 0.51462 0.0
C387 C 0.53209 0.29408 0.53405 0.0
C388 C 0.4731 0.26493 0.52856 0.0
C389 C 0.54759 0.29369 0.56533 0.0
C390 C 0.55598 0.3488 0.52462 0.0
C391 C 0.58809 0.3559 0.5029 0.0
C392 C 0.61521 0.40327 0.49095 0.0
C393 C 0.60971 0.44459 0.50153 0.0
C394 C 0.57767 0.4388 0.52411 0.0
C395 C 0.55032 0.3899 0.53564 0.0
H396 H 0.38851 0.48401 0.84466 0.0
H397 H 0.48565 0.65051 0.84837 0.0
H398 H 0.40983 0.65991 0.856 0.0
H399 H 0.28093 0.4801 0.8059 0.0
H400 H 0.23241 0.42746 0.82404 0.0
H401 H 0.29476 0.4333 0.8204 0.0
H402 H 0.30608 0.43233 0.87482 0.0
H403 H 0.24385 0.4268 0.87864 0.0
H404 H 0.30039 0.47869 0.89756 0.0
H405 H 0.32401 0.65242 0.86274 0.0
H406 H 0.23202 0.62775 0.86444 0.0
H407 H 0.18802 0.46654 0.85483 0.0
C408 C 0.39382 0.5224 0.84724 0.0
C409 C 0.44338 0.56651 0.84594 0.0
C410 C 0.44834 0.61603 0.84911 0.0
C411 C 0.40543 0.62187 0.85364 0.0
C412 C 0.3573 0.57785 0.85478 0.0
C413 C 0.35099 0.52901 0.85141 0.0
C414 C 0.29429 0.48825 0.85215 0.0
C415 C 0.27443 0.45534 0.82394 0.0
C416 C 0.28566 0.45452 0.87729 0.0
C417 C 0.2699 0.52188 0.85629 0.0
C418 C 0.30721 0.57347 0.85809 0.0
C419 C 0.29449 0.61215 0.86148 0.0
C420 C 0.24223 0.59786 0.86255 0.0
C421 C 0.20333 0.54546 0.86013 0.0
C422 C 0.21729 0.50692 0.85717 0.0
H423 H 0.8438 0.36051 0.18189 0.0
H424 H 0.94318 0.29646 0.16586 0.0
H425 H 0.86946 0.20892 0.17032 0.0
H426 H 0.7682 0.27261 0.23339 0.0
H427 H 0.70855 0.26844 0.22097 0.0
H428 H 0.76912 0.32612 0.21682 0.0
H429 H 0.74734 0.31886 0.16292 0.0
H430 H 0.68654 0.26138 0.1668 0.0
H431 H 0.73098 0.26016 0.14245 0.0
H432 H 0.78431 0.12769 0.1767 0.0
H433 H 0.69367 0.0594 0.18144 0.0
H434 H 0.64922 0.17574 0.19257 0.0
C435 C 0.85024 0.32816 0.17927 0.0
C436 C 0.89968 0.3357 0.17351 0.0
C437 C 0.90592 0.29198 0.17017 0.0
C438 C 0.86421 0.24201 0.1728 0.0
C439 C 0.81622 0.23608 0.17868 0.0
C440 C 0.80895 0.27799 0.18165 0.0
C441 C 0.75318 0.26108 0.18723 0.0
C442 C 0.74958 0.28339 0.21633 0.0
C443 C 0.72804 0.27626 0.16343 0.0
C444 C 0.73006 0.20301 0.18686 0.0
C445 C 0.76722 0.18943 0.18211 0.0
C446 C 0.75505 0.13797 0.18052 0.0
C447 C 0.70358 0.09945 0.18336 0.0
C448 C 0.66488 0.11245 0.18772 0.0
C449 C 0.67837 0.16489 0.18968 0.0
H450 H 1.01696 0.56984 0.08259 0.0
H451 H 1.02195 0.43024 0.09609 0.0
H452 H 0.03374 0.42144 0.045 0.0
H453 H 0.94228 0.52443 0.01691 0.0
H454 H 0.97469 0.58605 1.00164 0.0
H455 H 0.97056 0.58304 0.03944 0.0
H456 H 0.07016 0.63893 0.04645 0.0
H457 H 0.07462 0.64206 0.00863 0.0
H458 H 0.10996 0.61854 0.02872 0.0
H459 H 0.0437 0.42783 0.99178 0.0
H460 H 0.04508 0.44536 0.941 0.0
H461 H 0.02939 0.57853 0.9626 0.0
C462 C 1.02091 0.53759 0.07485 0.0
C463 C 1.01946 0.50117 0.09337 0.0
C464 C 1.02401 0.45913 0.08236 0.0
C465 C 0.03053 0.45377 0.05336 0.0
C466 C 0.03185 0.49048 0.03565 0.0
C467 C 0.02675 0.53135 0.046 0.0
C468 C 0.02679 0.56414 0.02247 0.0
C469 C 0.97553 0.5644 0.01998 0.0
C470 C 0.07315 0.61918 0.02684 0.0
C471 C 0.03231 0.53521 0.99715 0.0
C472 C 0.03581 0.49318 0.00516 0.0
C473 C 0.04104 0.46067 0.98532 0.0
C474 C 0.04204 0.47105 0.95656 0.0
C475 C 0.03724 0.51321 0.94787 0.0
C476 C 0.03275 0.54579 0.96858 0.0
H477 H 0.63631 0.11379 0.39994 0.0
H478 H 0.54094 0.96955 0.43794 0.0
H479 H 0.50527 0.92636 0.39013 0.0
H480 H 0.53691 0.09405 0.34544 0.0
H481 H 0.58325 0.12607 0.31941 0.0
H482 H 0.60138 0.14458 0.35653 0.0
H483 H 0.67793 0.12796 0.35174 0.0
H484 H 0.65948 0.10851 0.31473 0.0
H485 H 0.66562 0.06561 0.33811 0.0
H486 H 0.4884 0.89801 0.33795 0.0
H487 H 0.47612 0.88842 0.28611 0.0
H488 H 0.57181 0.05451 0.28256 0.0
C489 C 0.60757 0.07319 0.39809 0.0
C490 C 0.59143 0.0446 0.42234 0.0
C491 C 0.55346 0.99185 0.41944 0.0
C492 C 0.5334 0.96708 0.39243 0.0
C493 C 0.55083 0.99615 0.36878 0.0
C494 C 0.58586 0.04838 0.3714 0.0
C495 C 0.59597 0.07135 0.34276 0.0
C496 C 0.5783 0.11137 0.34093 0.0
C497 C 0.65315 0.09473 0.33648 0.0
C498 C 0.56201 0.02366 0.32351 0.0
C499 C 0.53714 0.98061 0.33891 0.0
C500 C 0.50632 0.9317 0.32573 0.0
C501 C 0.49924 0.92683 0.2961 0.0
C502 C 0.52141 0.97082 0.27975 0.0
C503 C 0.554 0.0198 0.29394 0.0
H504 H 0.52053 0.46043 0.73734 0.0
H505 H 0.62731 0.61968 0.76485 0.0
H506 H 0.64051 0.64176 0.71479 0.0
H507 H 0.59005 0.45386 0.67917 0.0
H508 H 0.53307 0.41252 0.65661 0.0
H509 H 0.53062 0.41024 0.69452 0.0
H510 H 0.45474 0.42871 0.69268 0.0
H511 H 0.45687 0.43091 0.65474 0.0
H512 H 0.46221 0.4848 0.67596 0.0
H513 H 0.64337 0.64516 0.66127 0.0
H514 H 0.63668 0.62997 0.60919 0.0
H515 H 0.52743 0.46798 0.61707 0.0
C516 C 0.54645 0.50005 0.73283 0.0
C517 C 0.5724 0.53873 0.75495 0.0
C518 C 0.6063 0.5899 0.74822 0.0
C519 C 0.6142 0.6026 0.71984 0.0
C520 C 0.5879 0.5635 0.69849 0.0
C521 C 0.55471 0.51323 0.70468 0.0
C522 C 0.53193 0.47808 0.67796 0.0
C523 C 0.54736 0.43622 0.67702 0.0
C524 C 0.47294 0.45424 0.67518 0.0
C525 C 0.55776 0.51628 0.65569 0.0
C526 C 0.58977 0.56538 0.6679 0.0
C527 C 0.61817 0.6069 0.6515 0.0
C528 C 0.61387 0.59793 0.6219 0.0
C529 C 0.58145 0.54779 0.60892 0.0
C530 C 0.55295 0.50667 0.62624 0.0
H531 H 0.56976 1.01603 0.59897 0.0
H532 H 0.65411 0.17101 0.57078 0.0
H533 H 0.68341 0.20525 0.62052 0.0
H534 H 0.52364 0.04451 0.65896 0.0
H535 H 0.53035 1.00026 0.68097 0.0
H536 H 0.52103 0.98752 0.64313 0.0
H537 H 0.60479 0.98225 0.64225 0.0
H538 H 0.61419 0.99453 0.68021 0.0
H539 H 0.66447 0.03516 0.65791 0.0
H540 H 0.69285 0.22299 0.67357 0.0
H541 H 0.6885 0.22234 0.72579 0.0
H542 H 0.60203 0.05554 0.71918 0.0
C543 C 0.59531 0.05707 0.60326 0.0
C544 C 0.60974 0.091 0.58118 0.0
C545 C 0.64294 0.14444 0.58746 0.0
C546 C 0.65964 0.16417 0.61562 0.0
C547 C 0.64346 0.12976 0.63705 0.0
C548 C 0.61279 0.07723 0.63114 0.0
C549 C 0.59886 0.04863 0.65801 0.0
C550 C 0.53999 0.01848 0.66039 0.0
C551 C 0.62197 1.01304 0.65969 0.0
C552 C 0.62495 0.09337 0.68006 0.0
C553 C 0.65055 0.13988 0.66756 0.0
C554 C 0.67396 0.18681 0.68359 0.0
C555 C 0.67115 0.18614 0.71312 0.0
C556 C 0.64556 0.13891 0.72621 0.0
C557 C 0.62267 0.09202 0.70953 0.0
H558 H 0.54762 0.50127 0.9087 0.0
H559 H 0.6858 0.64906 0.92957 0.0
H560 H 0.68292 0.62898 0.97968 0.0
H561 H 0.48292 0.49477 0.97187 0.0
H562 H 0.45821 0.42692 0.97522 0.0
H563 H 0.47025 0.45255 0.94075 0.0
H564 H 0.53004 0.41477 0.93169 0.0
H565 H 0.51783 0.38853 0.96601 0.0
H566 H 0.58319 0.43049 0.95686 0.0
H567 H 0.66297 0.59604 0.02731 0.0
H568 H 0.63324 0.54771 0.06991 0.0
H569 H 0.51199 0.4171 0.01855 0.0
C570 C 0.57736 0.52913 0.92385 0.0
C571 C 0.61682 0.57681 0.91538 0.0
C572 C 0.65522 0.61235 0.93567 0.0
C573 C 0.65383 0.60139 0.96418 0.0
C574 C 0.61423 0.55437 0.97196 0.0
C575 C 0.57715 0.51835 0.95242 0.0
C576 C 0.53998 0.47004 0.9665 0.0
C577 C 0.48456 0.46053 0.9634 0.0
C578 C 0.54296 0.42319 0.95456 0.0
C579 C 0.56169 0.48501 0.99704 0.0
C580 C 0.60421 0.53404 0.99959 0.0
C581 C 0.63028 0.55725 0.02558 0.0
C582 C 0.6132 0.52925 0.04965 0.0
C583 C 0.57089 0.47807 0.04763 0.0
C584 C 0.5444 0.45606 0.0209 0.0
H585 H 0.03817 0.55574 0.24896 0.0
H586 H 0.0279 0.40913 0.26332 0.0
H587 H 1.01782 0.42107 0.31429 0.0
H588 H 0.11412 0.62216 0.31046 0.0
H589 H 0.08343 0.65987 0.31707 0.0
H590 H 0.08411 0.63699 0.28146 0.0
H591 H 0.98429 0.59234 0.27594 0.0
H592 H 0.9833 0.61525 0.31159 0.0
H593 H 0.94611 0.54737 0.30127 0.0
H594 H 1.01595 0.45266 0.36439 0.0
H595 H 1.02497 0.50229 0.40934 0.0
H596 H 0.03567 0.62763 0.36179 0.0
C597 C 0.03301 0.5258 0.26277 0.0
C598 C 0.03374 0.48149 0.2523 0.0
C599 C 0.02739 0.44336 0.271 0.0
C600 C 1.02147 0.44973 0.29993 0.0
C601 C 1.02171 0.49431 0.30972 0.0
C602 C 0.02717 0.53161 0.29166 0.0
C603 C 0.02945 0.57742 0.30768 0.0
C604 C 0.08083 0.62702 0.30395 0.0
C605 C 0.98301 0.58343 0.29858 0.0
C606 C 0.02602 0.56083 0.33769 0.0
C607 C 1.02084 0.51249 0.33846 0.0
C608 C 1.01937 0.49028 0.36402 0.0
C609 C 1.0243 0.51864 0.38945 0.0
C610 C 0.0311 0.56885 0.38909 0.0
C611 C 0.03084 0.58948 0.36277 0.0
loop_
_geom_bond_atom_site_label_1
_geom_bond_atom_site_label_2
_geom_bond_distance
_geom_bond_site_symmetry_2
_ccdc_geom_bond_type
Dy0 O4 2.398 . S
Dy0 O5 2.491 . S
Dy0 O6 2.403 . S
Dy0 O7 2.664 . S
Dy0 O11 2.326 . S
Dy0 O15 2.310 . S
Dy0 O16 2.351 1_455 S
C1 O12 1.185 . S
C1 O13 1.355 . S
C2 O4 1.185 . S
C2 O5 1.355 . S
Dy3 O7 2.310 1_655 S
Dy3 O10 2.351 1_655 S
Dy3 O12 2.398 . S
Dy3 O13 2.491 . S
Dy3 O14 2.403 1_655 S
Dy3 O15 2.664 1_655 S
Dy3 O17 2.326 . S
O4 Dy0 2.398 . S
O4 C2 1.185 . S
O5 Dy0 2.491 . S
O5 C2 1.355 . S
O6 Dy0 2.403 . S
O6 C8 1.254 . S
O7 Dy0 2.664 . S
O7 Dy3 2.310 1_455 S
O7 C8 1.268 . S
C8 O6 1.254 . S
C8 O7 1.268 . S
C9 O14 1.254 . S
C9 O15 1.268 . S
O10 Dy3 2.351 1_455 S
O10 C18 1.249 . S
O11 Dy0 2.326 . S
O11 C18 1.267 . S
O12 C1 1.185 . S
O12 Dy3 2.398 . S
O13 C1 1.355 . S
O13 Dy3 2.491 . S
O14 Dy3 2.403 1_455 S
O14 C9 1.254 . S
O15 Dy0 2.310 . S
O15 Dy3 2.664 1_455 S
O15 C9 1.268 . S
O16 Dy0 2.351 1_655 S
O16 C19 1.249 . S
O17 Dy3 2.326 . S
O17 C19 1.267 . S
C18 O10 1.249 . S
C18 O11 1.267 . S
C19 O16 1.249 . S
C19 O17 1.267 . S
Dy20 O24 2.398 . S
Dy20 O25 2.491 . S
Dy20 O26 2.403 . S
Dy20 O27 2.664 1_565 S
Dy20 O31 2.326 . S
Dy20 O35 2.310 1_565 S
Dy20 O36 2.351 1_565 S
C21 O32 1.185 . S
C21 O33 1.355 . S
C22 O24 1.185 . S
C22 O25 1.355 . S
Dy23 O27 2.310 . S
Dy23 O30 2.351 1_545 S
Dy23 O32 2.398 . S
Dy23 O33 2.491 . S
Dy23 O34 2.403 . S
Dy23 O35 2.664 . S
Dy23 O37 2.326 . S
O24 Dy20 2.398 . S
O24 C22 1.185 . S
O25 Dy20 2.491 . S
O25 C22 1.355 . S
O26 Dy20 2.403 . S
O26 C28 1.254 1_565 S
O27 Dy20 2.664 1_545 S
O27 Dy23 2.310 . S
O27 C28 1.268 . S
C28 O26 1.254 1_545 S
C28 O27 1.268 . S
C29 O34 1.254 . S
C29 O35 1.268 . S
O30 Dy23 2.351 1_565 S
O30 C38 1.249 . S
O31 Dy20 2.326 . S
O31 C38 1.267 . S
O32 C21 1.185 . S
O32 Dy23 2.398 . S
O33 C21 1.355 . S
O33 Dy23 2.491 . S
O34 Dy23 2.403 . S
O34 C29 1.254 . S
O35 Dy20 2.310 1_545 S
O35 Dy23 2.664 . S
O35 C29 1.268 . S
O36 Dy20 2.351 1_545 S
O36 C39 1.249 . S
O37 Dy23 2.326 . S
O37 C39 1.267 . S
C38 O30 1.249 . S
C38 O31 1.267 . S
C39 O36 1.249 . S
C39 O37 1.267 . S
Dy40 O44 2.398 . S
Dy40 O45 2.491 . S
Dy40 O46 2.403 . S
Dy40 O47 2.664 . S
Dy40 O51 2.326 . S
Dy40 O55 2.310 . S
Dy40 O56 2.351 . S
C41 O52 1.185 . S
C41 O53 1.355 . S
C42 O44 1.185 . S
C42 O45 1.355 . S
Dy43 O47 2.310 . S
Dy43 O50 2.351 . S
Dy43 O52 2.398 . S
Dy43 O53 2.491 . S
Dy43 O54 2.403 . S
Dy43 O55 2.664 . S
Dy43 O57 2.326 . S
O44 Dy40 2.398 . S
O44 C42 1.185 . S
O45 Dy40 2.491 . S
O45 C42 1.355 . S
O46 Dy40 2.403 . S
O46 C48 1.254 . S
O47 Dy40 2.664 . S
O47 Dy43 2.310 . S
O47 C48 1.268 . S
C48 O46 1.254 . S
C48 O47 1.268 . S
C49 O54 1.254 . S
C49 O55 1.268 . S
O50 Dy43 2.351 . S
O50 C58 1.249 . S
O51 Dy40 2.326 . S
O51 C58 1.267 . S
O52 C41 1.185 . S
O52 Dy43 2.398 . S
O53 C41 1.355 . S
O53 Dy43 2.491 . S
O54 Dy43 2.403 . S
O54 C49 1.254 . S
O55 Dy40 2.310 . S
O55 Dy43 2.664 . S
O55 C49 1.268 . S
O56 Dy40 2.351 . S
O56 C59 1.249 . S
O57 Dy43 2.326 . S
O57 C59 1.267 . S
C58 O50 1.249 . S
C58 O51 1.267 . S
C59 O56 1.249 . S
C59 O57 1.267 . S
H60 C63 0.929 . S
H61 C66 0.929 . S
H62 C68 0.930 . S
C63 H60 0.929 . S
C63 C64 1.398 . S
C63 C65 1.396 1_565 S
C64 C63 1.398 . S
C64 C68 1.407 . S
C65 C63 1.396 1_545 S
C65 C66 1.394 . S
C66 H61 0.929 . S
C66 C65 1.394 . S
C66 C67 1.382 . S
C67 C66 1.382 . S
C67 C68 1.392 1_545 S
C67 N69 1.420 . S
C68 H62 0.930 . S
C68 C64 1.407 . S
C68 C67 1.392 1_565 S
N69 C67 1.420 . S
N69 C70 1.244 . S
C70 N69 1.244 . S
H71 C74 0.929 . S
H72 C77 0.929 . S
H73 C79 0.930 . S
C74 H71 0.929 . S
C74 C75 1.398 . S
C74 C76 1.396 . S
C75 C74 1.398 . S
C75 C79 1.407 . S
C76 C74 1.396 . S
C76 C77 1.394 . S
C77 H72 0.929 . S
C77 C76 1.394 . S
C77 C78 1.382 . S
C78 C77 1.382 . S
C78 C79 1.392 . S
C78 N80 1.420 . S
C79 H73 0.930 . S
C79 C75 1.407 . S
C79 C78 1.392 . S
N80 C78 1.420 . S
N80 C81 1.244 . S
C81 N80 1.244 . S
H82 C85 0.929 1_655 S
H83 C88 0.929 . S
H84 C90 0.930 . S
C85 H82 0.929 1_455 S
C85 C86 1.398 . S
C85 C87 1.396 . S
C86 C85 1.398 . S
C86 C90 1.407 . S
C87 C85 1.396 . S
C87 C88 1.394 . S
C88 H83 0.929 . S
C88 C87 1.394 . S
C88 C89 1.382 . S
C89 C88 1.382 . S
C89 C90 1.392 . S
C89 N91 1.420 . S
C90 H84 0.930 . S
C90 C86 1.407 . S
C90 C89 1.392 . S
N91 C89 1.420 . S
N91 C92 1.244 . S
C92 N91 1.244 . S
H93 C96 0.929 . S
H94 C99 0.929 . S
H95 C101 0.930 . S
C96 H93 0.929 . S
C96 C97 1.398 . S
C96 C98 1.396 . S
C97 C96 1.398 . S
C97 C101 1.407 . S
C98 C96 1.396 . S
C98 C99 1.394 1_455 S
C99 H94 0.929 . S
C99 C98 1.394 1_655 S
C99 C100 1.382 . S
C100 C99 1.382 . S
C100 C101 1.392 1_655 S
C100 N102 1.420 . S
C101 H95 0.930 . S
C101 C97 1.407 . S
C101 C100 1.392 1_455 S
N102 C100 1.420 . S
N102 C103 1.244 . S
C103 N102 1.244 . S
H104 C107 0.929 . S
H105 C110 0.929 1_565 S
H106 C112 0.930 . S
C107 H104 0.929 . S
C107 C108 1.398 . S
C107 C109 1.396 . S
C108 C107 1.398 . S
C108 C112 1.407 . S
C109 C107 1.396 . S
C109 C110 1.394 . S
C110 H105 0.929 1_545 S
C110 C109 1.394 . S
C110 C111 1.382 . S
C111 C110 1.382 . S
C111 C112 1.392 . S
C111 N113 1.420 1_545 S
C112 H106 0.930 . S
C112 C108 1.407 . S
C112 C111 1.392 . S
N113 C111 1.420 1_565 S
N113 C114 1.244 . S
C114 N113 1.244 . S
H115 C118 0.929 . S
H116 C121 0.929 . S
H117 C123 0.930 . S
C118 H115 0.929 . S
C118 C119 1.398 . S
C118 C120 1.396 . S
C119 C118 1.398 . S
C119 C123 1.407 . S
C120 C118 1.396 . S
C120 C121 1.394 . S
C121 H116 0.929 . S
C121 C120 1.394 . S
C121 C122 1.382 . S
C122 C121 1.382 . S
C122 C123 1.392 . S
C122 N124 1.420 . S
C123 H117 0.930 . S
C123 C119 1.407 . S
C123 C122 1.392 . S
N124 C122 1.420 . S
N124 C125 1.244 . S
C125 N124 1.244 . S
H126 C138 0.930 . S
H127 C140 0.930 . S
H128 C141 0.930 . S
H129 C145 0.959 . S
H130 C145 0.959 . S
H131 C145 0.961 . S
H132 C146 0.960 . S
H133 C146 0.961 . S
H134 C146 0.959 . S
H135 C149 0.929 . S
H136 C150 0.931 . S
H137 C152 0.930 . S
C138 H126 0.930 . S
C138 C139 1.399 . S
C138 C143 1.399 . S
C139 C138 1.399 . S
C139 C140 1.376 . S
C140 H127 0.930 . S
C140 C139 1.376 . S
C140 C141 1.388 . S
C141 H128 0.930 . S
C141 C140 1.388 . S
C141 C142 1.390 . S
C142 C141 1.390 . S
C142 C143 1.394 . S
C142 C148 1.465 . S
C143 C138 1.399 . S
C143 C142 1.394 . S
C143 C144 1.516 . S
C144 C143 1.516 . S
C144 C145 1.502 . S
C144 C146 1.561 . S
C144 C147 1.526 . S
C145 H129 0.959 . S
C145 H130 0.959 . S
C145 H131 0.961 . S
C145 C144 1.502 . S
C146 H132 0.960 . S
C146 H133 0.961 . S
C146 H134 0.959 . S
C146 C144 1.561 . S
C147 C144 1.526 . S
C147 C148 1.396 . S
C147 C152 1.390 . S
C148 C142 1.465 . S
C148 C147 1.396 . S
C148 C149 1.399 . S
C149 H135 0.929 . S
C149 C148 1.399 . S
C149 C150 1.385 . S
C150 H136 0.931 . S
C150 C149 1.385 . S
C150 C151 1.389 . S
C151 C150 1.389 . S
C151 C152 1.387 . S
C152 H137 0.930 . S
C152 C147 1.390 . S
C152 C151 1.387 . S
H153 C165 0.930 . S
H154 C167 0.930 . S
H155 C168 0.930 . S
H156 C172 0.959 . S
H157 C172 0.959 . S
H158 C172 0.961 . S
H159 C173 0.960 . S
H160 C173 0.961 . S
H161 C173 0.959 . S
H162 C176 0.929 . S
H163 C177 0.931 . S
H164 C179 0.930 . S
C165 H153 0.930 . S
C165 C166 1.399 . S
C165 C170 1.399 . S
C166 C165 1.399 . S
C166 C167 1.376 . S
C167 H154 0.930 . S
C167 C166 1.376 . S
C167 C168 1.388 . S
C168 H155 0.930 . S
C168 C167 1.388 . S
C168 C169 1.390 . S
C169 C168 1.390 . S
C169 C170 1.394 . S
C169 C175 1.465 . S
C170 C165 1.399 . S
C170 C169 1.394 . S
C170 C171 1.516 . S
C171 C170 1.516 . S
C171 C172 1.502 . S
C171 C173 1.561 . S
C171 C174 1.526 . S
C172 H156 0.959 . S
C172 H157 0.959 . S
C172 H158 0.961 . S
C172 C171 1.502 . S
C173 H159 0.960 . S
C173 H160 0.961 . S
C173 H161 0.959 . S
C173 C171 1.561 . S
C174 C171 1.526 . S
C174 C175 1.396 . S
C174 C179 1.390 . S
C175 C169 1.465 . S
C175 C174 1.396 . S
C175 C176 1.399 . S
C176 H162 0.929 . S
C176 C175 1.399 . S
C176 C177 1.385 . S
C177 H163 0.931 . S
C177 C176 1.385 . S
C177 C178 1.389 . S
C178 C177 1.389 . S
C178 C179 1.387 . S
C179 H164 0.930 . S
C179 C174 1.390 . S
C179 C178 1.387 . S
H180 C192 0.930 . S
H181 C194 0.930 . S
H182 C195 0.930 . S
H183 C199 0.959 . S
H184 C199 0.959 . S
H185 C199 0.961 . S
H186 C200 0.960 . S
H187 C200 0.961 . S
H188 C200 0.959 . S
H189 C203 0.929 . S
H190 C204 0.931 . S
H191 C206 0.930 . S
C192 H180 0.930 . S
C192 C193 1.399 . S
C192 C197 1.399 . S
C193 C192 1.399 . S
C193 C194 1.376 . S
C194 H181 0.930 . S
C194 C193 1.376 . S
C194 C195 1.388 . S
C195 H182 0.930 . S
C195 C194 1.388 . S
C195 C196 1.390 . S
C196 C195 1.390 . S
C196 C197 1.394 . S
C196 C202 1.465 . S
C197 C192 1.399 . S
C197 C196 1.394 . S
C197 C198 1.516 . S
C198 C197 1.516 . S
C198 C199 1.502 . S
C198 C200 1.561 . S
C198 C201 1.526 . S
C199 H183 0.959 . S
C199 H184 0.959 . S
C199 H185 0.961 . S
C199 C198 1.502 . S
C200 H186 0.960 . S
C200 H187 0.961 . S
C200 H188 0.959 . S
C200 C198 1.561 . S
C201 C198 1.526 . S
C201 C202 1.396 . S
C201 C206 1.390 . S
C202 C196 1.465 . S
C202 C201 1.396 . S
C202 C203 1.399 . S
C203 H189 0.929 . S
C203 C202 1.399 . S
C203 C204 1.385 . S
C204 H190 0.931 . S
C204 C203 1.385 . S
C204 C205 1.389 . S
C205 C204 1.389 . S
C205 C206 1.387 . S
C206 H191 0.930 . S
C206 C201 1.390 . S
C206 C205 1.387 . S
H207 C219 0.930 . S
H208 C221 0.930 . S
H209 C222 0.930 . S
H210 C226 0.959 . S
H211 C226 0.959 . S
H212 C226 0.961 . S
H213 C227 0.960 . S
H214 C227 0.961 . S
H215 C227 0.959 . S
H216 C230 0.929 . S
H217 C231 0.931 . S
H218 C233 0.930 . S
C219 H207 0.930 . S
C219 C220 1.399 . S
C219 C224 1.399 . S
C220 C219 1.399 . S
C220 C221 1.376 . S
C221 H208 0.930 . S
C221 C220 1.376 . S
C221 C222 1.388 . S
C222 H209 0.930 . S
C222 C221 1.388 . S
C222 C223 1.390 . S
C223 C222 1.390 . S
C223 C224 1.394 . S
C223 C229 1.465 . S
C224 C219 1.399 . S
C224 C223 1.394 . S
C224 C225 1.516 . S
C225 C224 1.516 . S
C225 C226 1.502 . S
C225 C227 1.561 . S
C225 C228 1.526 . S
C226 H210 0.959 . S
C226 H211 0.959 . S
C226 H212 0.961 . S
C226 C225 1.502 . S
C227 H213 0.960 . S
C227 H214 0.961 . S
C227 H215 0.959 . S
C227 C225 1.561 . S
C228 C225 1.526 . S
C228 C229 1.396 . S
C228 C233 1.390 . S
C229 C223 1.465 . S
C229 C228 1.396 . S
C229 C230 1.399 . S
C230 H216 0.929 . S
C230 C229 1.399 . S
C230 C231 1.385 . S
C231 H217 0.931 . S
C231 C230 1.385 . S
C231 C232 1.389 . S
C232 C231 1.389 . S
C232 C233 1.387 . S
C233 H218 0.930 . S
C233 C228 1.390 . S
C233 C232 1.387 . S
H234 C246 0.930 . S
H235 C248 0.930 . S
H236 C249 0.930 . S
H237 C253 0.959 . S
H238 C253 0.959 . S
H239 C253 0.961 . S
H240 C254 0.960 . S
H241 C254 0.961 . S
H242 C254 0.959 . S
H243 C257 0.929 . S
H244 C258 0.931 . S
H245 C260 0.930 . S
C246 H234 0.930 . S
C246 C247 1.399 . S
C246 C251 1.399 . S
C247 C246 1.399 . S
C247 C248 1.376 . S
C248 H235 0.930 . S
C248 C247 1.376 . S
C248 C249 1.388 . S
C249 H236 0.930 . S
C249 C248 1.388 . S
C249 C250 1.390 . S
C250 C249 1.390 . S
C250 C251 1.394 . S
C250 C256 1.465 . S
C251 C246 1.399 . S
C251 C250 1.394 . S
C251 C252 1.516 . S
C252 C251 1.516 . S
C252 C253 1.502 . S
C252 C254 1.561 . S
C252 C255 1.526 . S
C253 H237 0.959 . S
C253 H238 0.959 . S
C253 H239 0.961 . S
C253 C252 1.502 . S
C254 H240 0.960 . S
C254 H241 0.961 . S
C254 H242 0.959 . S
C254 C252 1.561 . S
C255 C252 1.526 . S
C255 C256 1.396 . S
C255 C260 1.390 . S
C256 C250 1.465 . S
C256 C255 1.396 . S
C256 C257 1.399 . S
C257 H243 0.929 . S
C257 C256 1.399 . S
C257 C258 1.385 . S
C258 H244 0.931 . S
C258 C257 1.385 . S
C258 C259 1.389 . S
C259 C258 1.389 . S
C259 C260 1.387 . S
C260 H245 0.930 . S
C260 C255 1.390 . S
C260 C259 1.387 . S
H261 C273 0.930 . S
H262 C275 0.930 . S
H263 C276 0.930 . S
H264 C280 0.959 . S
H265 C280 0.959 . S
H266 C280 0.961 . S
H267 C281 0.960 . S
H268 C281 0.961 . S
H269 C281 0.959 . S
H270 C284 0.929 . S
H271 C285 0.931 . S
H272 C287 0.930 . S
C273 H261 0.930 . S
C273 C274 1.399 . S
C273 C278 1.399 . S
C274 C273 1.399 . S
C274 C275 1.376 . S
C275 H262 0.930 . S
C275 C274 1.376 . S
C275 C276 1.388 . S
C276 H263 0.930 . S
C276 C275 1.388 . S
C276 C277 1.390 . S
C277 C276 1.390 . S
C277 C278 1.394 . S
C277 C283 1.465 . S
C278 C273 1.399 . S
C278 C277 1.394 . S
C278 C279 1.516 . S
C279 C278 1.516 . S
C279 C280 1.502 . S
C279 C281 1.561 . S
C279 C282 1.526 . S
C280 H264 0.959 . S
C280 H265 0.959 . S
C280 H266 0.961 . S
C280 C279 1.502 . S
C281 H267 0.960 . S
C281 H268 0.961 . S
C281 H269 0.959 . S
C281 C279 1.561 . S
C282 C279 1.526 . S
C282 C283 1.396 . S
C282 C287 1.390 . S
C283 C277 1.465 . S
C283 C282 1.396 . S
C283 C284 1.399 . S
C284 H270 0.929 . S
C284 C283 1.399 . S
C284 C285 1.385 . S
C285 H271 0.931 . S
C285 C284 1.385 . S
C285 C286 1.389 . S
C286 C285 1.389 . S
C286 C287 1.387 . S
C287 H272 0.930 . S
C287 C282 1.390 . S
C287 C286 1.387 . S
H288 C300 0.930 . S
H289 C302 0.930 . S
H290 C303 0.930 . S
H291 C307 0.959 . S
H292 C307 0.959 . S
H293 C307 0.961 . S
H294 C308 0.960 . S
H295 C308 0.961 . S
H296 C308 0.959 . S
H297 C311 0.929 . S
H298 C312 0.931 . S
H299 C314 0.930 . S
C300 H288 0.930 . S
C300 C301 1.399 . S
C300 C305 1.399 . S
C301 C300 1.399 . S
C301 C302 1.376 . S
C302 H289 0.930 . S
C302 C301 1.376 . S
C302 C303 1.388 . S
C303 H290 0.930 . S
C303 C302 1.388 . S
C303 C304 1.390 . S
C304 C303 1.390 . S
C304 C305 1.394 . S
C304 C310 1.465 . S
C305 C300 1.399 . S
C305 C304 1.394 . S
C305 C306 1.516 . S
C306 C305 1.516 . S
C306 C307 1.502 . S
C306 C308 1.561 . S
C306 C309 1.526 . S
C307 H291 0.959 . S
C307 H292 0.959 . S
C307 H293 0.961 . S
C307 C306 1.502 . S
C308 H294 0.960 . S
C308 H295 0.961 . S
C308 H296 0.959 . S
C308 C306 1.561 . S
C309 C306 1.526 . S
C309 C310 1.396 . S
C309 C314 1.390 . S
C310 C304 1.465 . S
C310 C309 1.396 . S
C310 C311 1.399 . S
C311 H297 0.929 . S
C311 C310 1.399 . S
C311 C312 1.385 . S
C312 H298 0.931 . S
C312 C311 1.385 . S
C312 C313 1.389 . S
C313 C312 1.389 . S
C313 C314 1.387 . S
C314 H299 0.930 . S
C314 C309 1.390 . S
C314 C313 1.387 . S
H315 C327 0.930 . S
H316 C329 0.930 . S
H317 C330 0.930 . S
H318 C334 0.959 . S
H319 C334 0.959 . S
H320 C334 0.961 . S
H321 C335 0.960 . S
H322 C335 0.961 . S
H323 C335 0.959 . S
H324 C338 0.929 . S
H325 C339 0.931 . S
H326 C341 0.930 . S
C327 H315 0.930 . S
C327 C328 1.399 . S
C327 C332 1.399 . S
C328 C327 1.399 . S
C328 C329 1.376 . S
C329 H316 0.930 . S
C329 C328 1.376 . S
C329 C330 1.388 . S
C330 H317 0.930 . S
C330 C329 1.388 . S
C330 C331 1.390 . S
C331 C330 1.390 . S
C331 C332 1.394 . S
C331 C337 1.465 . S
C332 C327 1.399 . S
C332 C331 1.394 . S
C332 C333 1.516 . S
C333 C332 1.516 . S
C333 C334 1.502 . S
C333 C335 1.561 . S
C333 C336 1.526 . S
C334 H318 0.959 . S
C334 H319 0.959 . S
C334 H320 0.961 . S
C334 C333 1.502 . S
C335 H321 0.960 . S
C335 H322 0.961 . S
C335 H323 0.959 . S
C335 C333 1.561 . S
C336 C333 1.526 . S
C336 C337 1.396 . S
C336 C341 1.390 . S
C337 C331 1.465 . S
C337 C336 1.396 . S
C337 C338 1.399 . S
C338 H324 0.929 . S
C338 C337 1.399 . S
C338 C339 1.385 . S
C339 H325 0.931 . S
C339 C338 1.385 . S
C339 C340 1.389 . S
C340 C339 1.389 . S
C340 C341 1.387 . S
C341 H326 0.930 . S
C341 C336 1.390 . S
C341 C340 1.387 . S
H342 C354 0.930 . S
H343 C356 0.930 . S
H344 C357 0.930 . S
H345 C361 0.959 . S
H346 C361 0.959 . S
H347 C361 0.961 . S
H348 C362 0.960 . S
H349 C362 0.961 . S
H350 C362 0.959 . S
H351 C365 0.929 . S
H352 C366 0.931 . S
H353 C368 0.930 . S
C354 H342 0.930 . S
C354 C355 1.399 . S
C354 C359 1.399 . S
C355 C354 1.399 . S
C355 C356 1.376 . S
C356 H343 0.930 . S
C356 C355 1.376 . S
C356 C357 1.388 . S
C357 H344 0.930 . S
C357 C356 1.388 . S
C357 C358 1.390 . S
C358 C357 1.390 . S
C358 C359 1.394 . S
C358 C364 1.465 . S
C359 C354 1.399 . S
C359 C358 1.394 . S
C359 C360 1.516 . S
C360 C359 1.516 . S
C360 C361 1.502 . S
C360 C362 1.561 . S
C360 C363 1.526 . S
C361 H345 0.959 . S
C361 H346 0.959 . S
C361 H347 0.961 . S
C361 C360 1.502 . S
C362 H348 0.960 . S
C362 H349 0.961 . S
C362 H350 0.959 . S
C362 C360 1.561 . S
C363 C360 1.526 . S
C363 C364 1.396 . S
C363 C368 1.390 . S
C364 C358 1.465 . S
C364 C363 1.396 . S
C364 C365 1.399 . S
C365 H351 0.929 . S
C365 C364 1.399 . S
C365 C366 1.385 . S
C366 H352 0.931 . S
C366 C365 1.385 . S
C366 C367 1.389 . S
C367 C366 1.389 . S
C367 C368 1.387 . S
C368 H353 0.930 . S
C368 C363 1.390 . S
C368 C367 1.387 . S
H369 C381 0.930 . S
H370 C383 0.930 . S
H371 C384 0.930 . S
H372 C388 0.959 . S
H373 C388 0.959 . S
H374 C388 0.961 . S
H375 C389 0.960 . S
H376 C389 0.961 . S
H377 C389 0.959 . S
H378 C392 0.929 . S
H379 C393 0.931 . S
H380 C395 0.930 . S
C381 H369 0.930 . S
C381 C382 1.399 . S
C381 C386 1.399 . S
C382 C381 1.399 . S
C382 C383 1.376 . S
C383 H370 0.930 . S
C383 C382 1.376 . S
C383 C384 1.388 . S
C384 H371 0.930 . S
C384 C383 1.388 . S
C384 C385 1.390 . S
C385 C384 1.390 . S
C385 C386 1.394 . S
C385 C391 1.465 . S
C386 C381 1.399 . S
C386 C385 1.394 . S
C386 C387 1.516 . S
C387 C386 1.516 . S
C387 C388 1.502 . S
C387 C389 1.561 . S
C387 C390 1.526 . S
C388 H372 0.959 . S
C388 H373 0.959 . S
C388 H374 0.961 . S
C388 C387 1.502 . S
C389 H375 0.960 . S
C389 H376 0.961 . S
C389 H377 0.959 . S
C389 C387 1.561 . S
C390 C387 1.526 . S
C390 C391 1.396 . S
C390 C395 1.390 . S
C391 C385 1.465 . S
C391 C390 1.396 . S
C391 C392 1.399 . S
C392 H378 0.929 . S
C392 C391 1.399 . S
C392 C393 1.385 . S
C393 H379 0.931 . S
C393 C392 1.385 . S
C393 C394 1.389 . S
C394 C393 1.389 . S
C394 C395 1.387 . S
C395 H380 0.930 . S
C395 C390 1.390 . S
C395 C394 1.387 . S
H396 C408 0.930 . S
H397 C410 0.930 . S
H398 C411 0.930 . S
H399 C415 0.959 . S
H400 C415 0.959 . S
H401 C415 0.961 . S
H402 C416 0.960 . S
H403 C416 0.961 . S
H404 C416 0.959 . S
H405 C419 0.929 . S
H406 C420 0.931 . S
H407 C422 0.930 . S
C408 H396 0.930 . S
C408 C409 1.399 . S
C408 C413 1.399 . S
C409 C408 1.399 . S
C409 C410 1.376 . S
C410 H397 0.930 . S
C410 C409 1.376 . S
C410 C411 1.388 . S
C411 H398 0.930 . S
C411 C410 1.388 . S
C411 C412 1.390 . S
C412 C411 1.390 . S
C412 C413 1.394 . S
C412 C418 1.465 . S
C413 C408 1.399 . S
C413 C412 1.394 . S
C413 C414 1.516 . S
C414 C413 1.516 . S
C414 C415 1.502 . S
C414 C416 1.561 . S
C414 C417 1.526 . S
C415 H399 0.959 . S
C415 H400 0.959 . S
C415 H401 0.961 . S
C415 C414 1.502 . S
C416 H402 0.960 . S
C416 H403 0.961 . S
C416 H404 0.959 . S
C416 C414 1.561 . S
C417 C414 1.526 . S
C417 C418 1.396 . S
C417 C422 1.390 . S
C418 C412 1.465 . S
C418 C417 1.396 . S
C418 C419 1.399 . S
C419 H405 0.929 . S
C419 C418 1.399 . S
C419 C420 1.385 . S
C420 H406 0.931 . S
C420 C419 1.385 . S
C420 C421 1.389 . S
C421 C420 1.389 . S
C421 C422 1.387 . S
C422 H407 0.930 . S
C422 C417 1.390 . S
C422 C421 1.387 . S
H423 C435 0.930 . S
H424 C437 0.930 . S
H425 C438 0.930 . S
H426 C442 0.959 . S
H427 C442 0.959 . S
H428 C442 0.961 . S
H429 C443 0.960 . S
H430 C443 0.961 . S
H431 C443 0.959 . S
H432 C446 0.929 . S
H433 C447 0.931 . S
H434 C449 0.930 . S
C435 H423 0.930 . S
C435 C436 1.399 . S
C435 C440 1.399 . S
C436 C435 1.399 . S
C436 C437 1.376 . S
C437 H424 0.930 . S
C437 C436 1.376 . S
C437 C438 1.388 . S
C438 H425 0.930 . S
C438 C437 1.388 . S
C438 C439 1.390 . S
C439 C438 1.390 . S
C439 C440 1.394 . S
C439 C445 1.465 . S
C440 C435 1.399 . S
C440 C439 1.394 . S
C440 C441 1.516 . S
C441 C440 1.516 . S
C441 C442 1.502 . S
C441 C443 1.561 . S
C441 C444 1.526 . S
C442 H426 0.959 . S
C442 H427 0.959 . S
C442 H428 0.961 . S
C442 C441 1.502 . S
C443 H429 0.960 . S
C443 H430 0.961 . S
C443 H431 0.959 . S
C443 C441 1.561 . S
C444 C441 1.526 . S
C444 C445 1.396 . S
C444 C449 1.390 . S
C445 C439 1.465 . S
C445 C444 1.396 . S
C445 C446 1.399 . S
C446 H432 0.929 . S
C446 C445 1.399 . S
C446 C447 1.385 . S
C447 H433 0.931 . S
C447 C446 1.385 . S
C447 C448 1.389 . S
C448 C447 1.389 . S
C448 C449 1.387 . S
C449 H434 0.930 . S
C449 C444 1.390 . S
C449 C448 1.387 . S
H450 C462 0.930 . S
H451 C464 0.930 . S
H452 C465 0.930 . S
H453 C469 0.959 1_655 S
H454 C469 0.959 1_556 S
H455 C469 0.961 . S
H456 C470 0.960 . S
H457 C470 0.961 1_556 S
H458 C470 0.959 . S
H459 C473 0.929 . S
H460 C474 0.931 . S
H461 C476 0.930 . S
C462 H450 0.930 . S
C462 C463 1.399 . S
C462 C467 1.399 . S
C463 C462 1.399 . S
C463 C464 1.376 . S
C464 H451 0.930 . S
C464 C463 1.376 . S
C464 C465 1.388 . S
C465 H452 0.930 . S
C465 C464 1.388 . S
C465 C466 1.390 . S
C466 C465 1.390 . S
C466 C467 1.394 . S
C466 C472 1.465 1_554 S
C467 C462 1.399 . S
C467 C466 1.394 . S
C467 C468 1.516 . S
C468 C467 1.516 . S
C468 C469 1.502 . S
C468 C470 1.561 . S
C468 C471 1.526 1_554 S
C469 H453 0.959 1_455 S
C469 H454 0.959 1_554 S
C469 H455 0.961 . S
C469 C468 1.502 . S
C470 H456 0.960 . S
C470 H457 0.961 1_554 S
C470 H458 0.959 . S
C470 C468 1.561 . S
C471 C468 1.526 1_556 S
C471 C472 1.396 . S
C471 C476 1.390 . S
C472 C466 1.465 1_556 S
C472 C471 1.396 . S
C472 C473 1.399 . S
C473 H459 0.929 . S
C473 C472 1.399 . S
C473 C474 1.385 . S
C474 H460 0.931 . S
C474 C473 1.385 . S
C474 C475 1.389 . S
C475 C474 1.389 . S
C475 C476 1.387 . S
C476 H461 0.930 . S
C476 C471 1.390 . S
C476 C475 1.387 . S
H477 C489 0.930 . S
H478 C491 0.930 . S
H479 C492 0.930 . S
H480 C496 0.959 . S
H481 C496 0.959 . S
H482 C496 0.961 . S
H483 C497 0.960 . S
H484 C497 0.961 . S
H485 C497 0.959 . S
H486 C500 0.929 . S
H487 C501 0.931 . S
H488 C503 0.930 . S
C489 H477 0.930 . S
C489 C490 1.399 . S
C489 C494 1.399 . S
C490 C489 1.399 . S
C490 C491 1.376 1_545 S
C491 H478 0.930 . S
C491 C490 1.376 1_565 S
C491 C492 1.388 . S
C492 H479 0.930 . S
C492 C491 1.388 . S
C492 C493 1.390 . S
C493 C492 1.390 . S
C493 C494 1.394 1_565 S
C493 C499 1.465 . S
C494 C489 1.399 . S
C494 C493 1.394 1_545 S
C494 C495 1.516 . S
C495 C494 1.516 . S
C495 C496 1.502 . S
C495 C497 1.561 . S
C495 C498 1.526 . S
C496 H480 0.959 . S
C496 H481 0.959 . S
C496 H482 0.961 . S
C496 C495 1.502 . S
C497 H483 0.960 . S
C497 H484 0.961 . S
C497 H485 0.959 . S
C497 C495 1.561 . S
C498 C495 1.526 . S
C498 C499 1.396 1_545 S
C498 C503 1.390 . S
C499 C493 1.465 . S
C499 C498 1.396 1_565 S
C499 C500 1.399 . S
C500 H486 0.929 . S
C500 C499 1.399 . S
C500 C501 1.385 . S
C501 H487 0.931 . S
C501 C500 1.385 . S
C501 C502 1.389 1_565 S
C502 C501 1.389 1_545 S
C502 C503 1.387 . S
C503 H488 0.930 . S
C503 C498 1.390 . S
C503 C502 1.387 . S
H504 C516 0.930 . S
H505 C518 0.930 . S
H506 C519 0.930 . S
H507 C523 0.959 . S
H508 C523 0.959 . S
H509 C523 0.961 . S
H510 C524 0.960 . S
H511 C524 0.961 . S
H512 C524 0.959 . S
H513 C527 0.929 . S
H514 C528 0.931 . S
H515 C530 0.930 . S
C516 H504 0.930 . S
C516 C517 1.399 . S
C516 C521 1.399 . S
C517 C516 1.399 . S
C517 C518 1.376 . S
C518 H505 0.930 . S
C518 C517 1.376 . S
C518 C519 1.388 . S
C519 H506 0.930 . S
C519 C518 1.388 . S
C519 C520 1.390 . S
C520 C519 1.390 . S
C520 C521 1.394 . S
C520 C526 1.465 . S
C521 C516 1.399 . S
C521 C520 1.394 . S
C521 C522 1.516 . S
C522 C521 1.516 . S
C522 C523 1.502 . S
C522 C524 1.561 . S
C522 C525 1.526 . S
C523 H507 0.959 . S
C523 H508 0.959 . S
C523 H509 0.961 . S
C523 C522 1.502 . S
C524 H510 0.960 . S
C524 H511 0.961 . S
C524 H512 0.959 . S
C524 C522 1.561 . S
C525 C522 1.526 . S
C525 C526 1.396 . S
C525 C530 1.390 . S
C526 C520 1.465 . S
C526 C525 1.396 . S
C526 C527 1.399 . S
C527 H513 0.929 . S
C527 C526 1.399 . S
C527 C528 1.385 . S
C528 H514 0.931 . S
C528 C527 1.385 . S
C528 C529 1.389 . S
C529 C528 1.389 . S
C529 C530 1.387 . S
C530 H515 0.930 . S
C530 C525 1.390 . S
C530 C529 1.387 . S
H531 C543 0.930 1_565 S
H532 C545 0.930 . S
H533 C546 0.930 . S
H534 C550 0.959 . S
H535 C550 0.959 . S
H536 C550 0.961 . S
H537 C551 0.960 . S
H538 C551 0.961 . S
H539 C551 0.959 . S
H540 C554 0.929 . S
H541 C555 0.931 . S
H542 C557 0.930 1_565 S
C543 H531 0.930 1_545 S
C543 C544 1.399 . S
C543 C548 1.399 . S
C544 C543 1.399 . S
C544 C545 1.376 . S
C545 H532 0.930 . S
C545 C544 1.376 . S
C545 C546 1.388 . S
C546 H533 0.930 . S
C546 C545 1.388 . S
C546 C547 1.390 . S
C547 C546 1.390 . S
C547 C548 1.394 . S
C547 C553 1.465 . S
C548 C543 1.399 . S
C548 C547 1.394 . S
C548 C549 1.516 1_545 S
C549 C548 1.516 1_565 S
C549 C550 1.502 . S
C549 C551 1.561 . S
C549 C552 1.526 1_565 S
C550 H534 0.959 . S
C550 H535 0.959 . S
C550 H536 0.961 . S
C550 C549 1.502 . S
C551 H537 0.960 . S
C551 H538 0.961 . S
C551 H539 0.959 . S
C551 C549 1.561 . S
C552 C549 1.526 1_545 S
C552 C553 1.396 . S
C552 C557 1.390 . S
C553 C547 1.465 . S
C553 C552 1.396 . S
C553 C554 1.399 . S
C554 H540 0.929 . S
C554 C553 1.399 . S
C554 C555 1.385 . S
C555 H541 0.931 . S
C555 C554 1.385 . S
C555 C556 1.389 . S
C556 C555 1.389 . S
C556 C557 1.387 . S
C557 H542 0.930 1_545 S
C557 C552 1.390 . S
C557 C556 1.387 . S
H558 C570 0.930 . S
H559 C572 0.930 . S
H560 C573 0.930 . S
H561 C577 0.959 . S
H562 C577 0.959 . S
H563 C577 0.961 . S
H564 C578 0.960 . S
H565 C578 0.961 . S
H566 C578 0.959 . S
H567 C581 0.929 . S
H568 C582 0.931 . S
H569 C584 0.930 . S
C570 H558 0.930 . S
C570 C571 1.399 . S
C570 C575 1.399 . S
C571 C570 1.399 . S
C571 C572 1.376 . S
C572 H559 0.930 . S
C572 C571 1.376 . S
C572 C573 1.388 . S
C573 H560 0.930 . S
C573 C572 1.388 . S
C573 C574 1.390 . S
C574 C573 1.390 . S
C574 C575 1.394 . S
C574 C580 1.465 1_556 S
C575 C570 1.399 . S
C575 C574 1.394 . S
C575 C576 1.516 . S
C576 C575 1.516 . S
C576 C577 1.502 . S
C576 C578 1.561 . S
C576 C579 1.526 1_556 S
C577 H561 0.959 . S
C577 H562 0.959 . S
C577 H563 0.961 . S
C577 C576 1.502 . S
C578 H564 0.960 . S
C578 H565 0.961 . S
C578 H566 0.959 . S
C578 C576 1.561 . S
C579 C576 1.526 1_554 S
C579 C580 1.396 . S
C579 C584 1.390 . S
C580 C574 1.465 1_554 S
C580 C579 1.396 . S
C580 C581 1.399 . S
C581 H567 0.929 . S
C581 C580 1.399 . S
C581 C582 1.385 . S
C582 H568 0.931 . S
C582 C581 1.385 . S
C582 C583 1.389 . S
C583 C582 1.389 . S
C583 C584 1.387 . S
C584 H569 0.930 . S
C584 C579 1.390 . S
C584 C583 1.387 . S
H585 C597 0.930 . S
H586 C599 0.930 . S
H587 C600 0.930 . S
H588 C604 0.959 . S
H589 C604 0.959 . S
H590 C604 0.961 . S
H591 C605 0.960 . S
H592 C605 0.961 . S
H593 C605 0.959 . S
H594 C608 0.929 . S
H595 C609 0.931 . S
H596 C611 0.930 . S
C597 H585 0.930 . S
C597 C598 1.399 . S
C597 C602 1.399 . S
C598 C597 1.399 . S
C598 C599 1.376 1_455 S
C599 H586 0.930 . S
C599 C598 1.376 1_655 S
C599 C600 1.388 . S
C600 H587 0.930 . S
C600 C599 1.388 . S
C600 C601 1.390 1_655 S
C601 C600 1.390 1_455 S
C601 C602 1.394 . S
C601 C607 1.465 . S
C602 C597 1.399 . S
C602 C601 1.394 . S
C602 C603 1.516 . S
C603 C602 1.516 . S
C603 C604 1.502 . S
C603 C605 1.561 . S
C603 C606 1.526 . S
C604 H588 0.959 . S
C604 H589 0.959 . S
C604 H590 0.961 . S
C604 C603 1.502 . S
C605 H591 0.960 . S
C605 H592 0.961 . S
C605 H593 0.959 . S
C605 C603 1.561 . S
C606 C603 1.526 . S
C606 C607 1.396 . S
C606 C611 1.390 . S
C607 C601 1.465 . S
C607 C606 1.396 . S
C607 C608 1.399 1_455 S
C608 H594 0.929 . S
C608 C607 1.399 1_655 S
C608 C609 1.385 . S
C609 H595 0.931 . S
C609 C608 1.385 . S
C609 C610 1.389 1_655 S
C610 C609 1.389 1_455 S
C610 C611 1.387 . S
C611 H596 0.930 . S
C611 C606 1.390 . S
C611 C610 1.387 . S
C139 C2 1.111 . S
C151 C125 1.101 . S
C166 C21 1.098 . S
C178 C103 1.091 . S
C193 C42 1.091 . S
C205 C114 1.068 . S
C220 C1 0.954 . S
C232 C119 0.953 . S
C259 C97 0.947 . S
C247 C22 0.979 . S
C286 C108 0.890 . S
C274 C41 0.882 . S
C301 C38 1.897 . S
C313 C81 1.858 . S
C328 C59 1.850 . S
C340 C86 1.849 1_655 S
C355 C18 1.767 . S
C367 C64 1.739 . S
C394 C75 1.841 . S
C382 C39 1.849 . S
C421 C92 1.854 . S
C409 C58 1.896 . S
C436 C19 1.996 . S
C448 C70 1.918 . S
C475 C87 1.567 . S
C463 C9 1.561 . S
C490 C29 1.508 . S
C502 C65 1.607 . S
C517 C49 1.554 . S
C529 C76 1.595 . S
C556 C109 1.485 . S
C544 C28 1.499 . S
C583 C120 1.455 . S
C571 C48 1.417 . S
C598 C8 1.400 . S
C610 C98 1.449 . S
