# Generated by pormake.
# Topology anh, (6,3)-cn, num edge types: 1
# Building blocks:
#     Node 0, Type 0, BuildingBlock: VOLQOD_clean_sbu_1, # of connection points: 6
#     Node 1, Type 0, BuildingBlock: VOLQOD_clean_sbu_1, # of connection points: 6
#     Node 2, Type 0, BuildingBlock: VOLQOD_clean_sbu_1, # of connection points: 6
#     Node 3, Type 1, BuildingBlock: MIDCAF_clean_linker_0, # of connection points: 3
#     Node 4, Type 1, BuildingBlock: MIDCAF_clean_linker_0, # of connection points: 3
#     Node 5, Type 1, BuildingBlock: MIDCAF_clean_linker_0, # of connection points: 3
#     Node 6, Type 1, BuildingBlock: MIDCAF_clean_linker_0, # of connection points: 3
#     Node 7, Type 1, BuildingBlock: MIDCAF_clean_linker_0, # of connection points: 3
#     Node 8, Type 1, BuildingBlock: MIDCAF_clean_linker_0, # of connection points: 3
#     Edge 9, Type (0, 1), BuildingBlock: XIVTED_clean_linker_0, # of connection points: 2
#     Edge 10, Type (0, 1), BuildingBlock: XIVTED_clean_linker_0, # of connection points: 2
#     Edge 11, Type (0, 1), BuildingBlock: XIVTED_clean_linker_0, # of connection points: 2
#     Edge 12, Type (0, 1), BuildingBlock: XIVTED_clean_linker_0, # of connection points: 2
#     Edge 13, Type (0, 1), BuildingBlock: XIVTED_clean_linker_0, # of connection points: 2
#     Edge 14, Type (0, 1), BuildingBlock: XIVTED_clean_linker_0, # of connection points: 2
#     Edge 15, Type (0, 1), BuildingBlock: XIVTED_clean_linker_0, # of connection points: 2
#     Edge 16, Type (0, 1), BuildingBlock: XIVTED_clean_linker_0, # of connection points: 2
#     Edge 17, Type (0, 1), BuildingBlock: XIVTED_clean_linker_0, # of connection points: 2
#     Edge 18, Type (0, 1), BuildingBlock: XIVTED_clean_linker_0, # of connection points: 2
#     Edge 19, Type (0, 1), BuildingBlock: XIVTED_clean_linker_0, # of connection points: 2
#     Edge 20, Type (0, 1), BuildingBlock: XIVTED_clean_linker_0, # of connection points: 2
#     Edge 21, Type (0, 1), BuildingBlock: XIVTED_clean_linker_0, # of connection points: 2
#     Edge 22, Type (0, 1), BuildingBlock: XIVTED_clean_linker_0, # of connection points: 2
#     Edge 23, Type (0, 1), BuildingBlock: XIVTED_clean_linker_0, # of connection points: 2
#     Edge 24, Type (0, 1), BuildingBlock: XIVTED_clean_linker_0, # of connection points: 2
#     Edge 25, Type (0, 1), BuildingBlock: XIVTED_clean_linker_0, # of connection points: 2
#     Edge 26, Type (0, 1), BuildingBlock: XIVTED_clean_linker_0, # of connection points: 2
# Relax obj value: 0.167
# Max RMSD: 0.230
# Mean RMSD: 0.115
data_MOF--net-anh--node1-VOLQOD_clean_sbu_1--node2-MIDCAF_clean_linker_0--edge1-XIVTED_clean_linker_0
_symmetry_space_group_name_H-M    P1
_symmetry_Int_Tables_number       1
_symmetry_cell_setting            triclinic
loop_
_symmetry_equiv_pos_as_xyz
'x, y, z'
_cell_length_a     34.664228
_cell_length_b     34.479309
_cell_length_c     74.534635
_cell_angle_alpha  90.125863
_cell_angle_beta   89.672752
_cell_angle_gamma 120.27684
loop_
_atom_site_label
_atom_site_type_symbol
_atom_site_fract_x
_atom_site_fract_y
_atom_site_fract_z
_atom_type_partial_charge
O0 O -0.0052 0.54253 0.20577 0.0
Zn1 Zn 0.99064 0.55244 0.17945 0.0
O2 O 0.00106 0.51076 0.1654 0.0
Zn3 Zn 0.94779 0.46971 0.15219 0.0
Zn4 Zn 0.01662 0.47583 0.18136 0.0
Zn5 Zn 0.04907 0.54463 0.14835 0.0
O6 O 0.958 0.47514 0.12552 0.0
O7 O 0.02736 0.53227 0.12288 0.0
O8 O 0.92958 0.54408 0.17488 0.0
O9 O 0.89932 0.48291 0.15776 0.0
O10 O 0.92396 0.40576 0.15946 0.0
O11 O 0.96732 0.41093 0.18219 0.0
O12 O 0.072 0.47649 0.17265 0.0
O13 O 0.03782 0.61652 0.17433 0.0
O14 O 0.09402 0.52489 0.14999 0.0
O15 O 0.07994 0.61103 0.15308 0.0
C16 C 0.01103 0.52247 0.21456 0.0
C17 C 0.99096 0.50243 0.11585 0.0
C18 C 0.93378 0.38773 0.17215 0.0
C19 C 0.89646 0.51315 0.16646 0.0
C20 C 0.09904 0.49773 0.15988 0.0
C21 C 0.07136 0.63463 0.16375 0.0
O22 O 0.02437 0.49839 0.20675 0.0
O23 O 0.42569 0.002 0.45803 0.0
Zn24 Zn 0.41454 0.0005 0.48473 0.0
O25 O 0.4543 0.98573 0.49806 0.0
Zn26 Zn 0.49037 0.03358 0.51477 0.0
Zn27 Zn 0.49335 0.97851 0.48123 0.0
Zn28 Zn 0.4202 0.93043 0.51168 0.0
O29 O 0.48181 0.01241 0.5402 0.0
O30 O 0.42949 0.94051 0.53831 0.0
O31 O 0.42284 0.06085 0.49217 0.0
O32 O 0.47176 0.07932 0.51432 0.0
O33 O 0.55554 0.06551 0.50806 0.0
O34 O 0.55639 0.02957 0.48346 0.0
O35 O 0.49368 0.92131 0.48551 0.0
O36 O 0.35007 0.95265 0.48912 0.0
O37 O 0.43904 0.88584 0.5054 0.0
O38 O 0.35499 0.90368 0.50694 0.0
C39 C 0.44902 0.99039 0.44863 0.0
C40 C 0.45566 0.9748 0.54755 0.0
C41 C 0.57645 0.06085 0.49491 0.0
C42 C 0.44613 0.08706 0.50478 0.0
C43 C 0.46936 0.8872 0.49525 0.0
C44 C 0.33181 0.91614 0.49808 0.0
O45 O 0.47459 0.97847 0.45587 0.0
O46 O 0.52308 0.53942 0.78409 0.0
Zn47 Zn 0.50212 0.51586 0.80927 0.0
O48 O 0.55005 0.54925 0.82675 0.0
Zn49 Zn 0.53146 0.57704 0.84477 0.0
Zn50 Zn 0.6035 0.59626 0.81485 0.0
Zn51 Zn 0.56408 0.50815 0.83869 0.0
O52 O 0.53872 0.5607 0.86985 0.0
O53 O 0.5593 0.51008 0.86549 0.0
O54 O 0.44603 0.51695 0.81618 0.0
O55 O 0.46689 0.55556 0.84167 0.0
O56 O 0.56385 0.64387 0.84221 0.0
O57 O 0.61376 0.65804 0.82069 0.0
O58 O 0.65821 0.59191 0.8205 0.0
O59 O 0.48409 0.45015 0.80893 0.0
O60 O 0.62618 0.52366 0.83264 0.0
O61 O 0.5238 0.44485 0.83102 0.0
C62 C 0.56195 0.56669 0.77793 0.0
C63 C 0.54917 0.5328 0.87596 0.0
C64 C 0.59521 0.67141 0.83197 0.0
C65 C 0.43728 0.53315 0.82997 0.0
C66 C 0.66027 0.55833 0.82636 0.0
C67 C 0.49458 0.42682 0.8188 0.0
O68 O 0.59515 0.58867 0.78828 0.0
C69 C 0.33192 0.95246 0.21249 0.0
C70 C 0.33082 0.9247 0.19838 0.0
C71 C 0.37116 0.92751 0.19294 0.0
C72 C 0.41089 0.95523 0.20209 0.0
H73 H 0.55542 0.07748 0.19903 0.0
H74 H 0.63154 0.12221 0.18792 0.0
H75 H 0.68108 0.0994 0.23758 0.0
H76 H 0.60494 0.0566 0.24898 0.0
H77 H 0.53907 0.07815 0.28292 0.0
H78 H 0.52886 0.07367 0.31552 0.0
H79 H 0.39822 0.95633 0.30947 0.0
H80 H 0.40783 0.96107 0.27689 0.0
H81 H 0.37067 -0.00136 0.23321 0.0
H82 H 0.30197 0.95241 0.21672 0.0
H83 H 0.3718 0.90643 0.1823 0.0
H84 H 0.44096 0.95512 0.19814 0.0
N85 N 0.49234 0.02222 0.22158 0.0
N86 N 0.52246 0.04116 0.25057 0.0
N87 N 0.4449 0.00259 0.24668 0.0
C88 C 0.52853 0.0416 0.23252 0.0
C89 C 0.48073 0.02164 0.25772 0.0
C90 C 0.45045 0.00285 0.22863 0.0
C91 C 0.57425 0.06412 0.22497 0.0
C92 C 0.58257 0.08163 0.20749 0.0
C93 C 0.62634 0.10704 0.20107 0.0
C94 C 0.66275 0.11489 0.21189 0.0
C95 C 0.65406 0.09508 0.22902 0.0
C96 C 0.61036 0.07036 0.23555 0.0
C97 C 0.47427 0.01993 0.27736 0.0
C98 C 0.5081 0.05153 0.28854 0.0
C99 C 0.5022 0.04917 0.30715 0.0
C100 C 0.46279 0.01466 0.31489 0.0
C101 C 0.42894 0.98315 0.30376 0.0
C102 C 0.43442 0.98603 0.28515 0.0
C103 C 0.41085 0.97993 0.21705 0.0
C104 C 0.37134 0.97924 0.22188 0.0
C105 C 0.56572 0.40678 0.55749 0.0
C106 C 0.54656 0.39732 0.54031 0.0
C107 C 0.55095 0.43285 0.52964 0.0
C108 C 0.5722 0.47663 0.53636 0.0
H109 H 0.60298 0.60382 0.52334 0.0
H110 H 0.58179 0.65236 0.50761 0.0
H111 H 0.60548 0.73089 0.55571 0.0
H112 H 0.62691 0.68311 0.5715 0.0
H113 H 0.61102 0.63613 0.60781 0.0
H114 H 0.60322 0.63726 0.64028 0.0
H115 H 0.62553 0.52543 0.64527 0.0
H116 H 0.63287 0.52366 0.61265 0.0
H117 H 0.60005 0.45624 0.57772 0.0
H118 H 0.56395 0.38029 0.56586 0.0
H119 H 0.5365 0.42663 0.51637 0.0
H120 H 0.57355 0.50295 0.52801 0.0
N121 N 0.60905 0.56476 0.55183 0.0
N122 N 0.6247 0.60943 0.57748 0.0
N123 N 0.61213 0.53628 0.57999 0.0
C124 C 0.61885 0.60445 0.55946 0.0
C125 C 0.6217 0.57571 0.58783 0.0
C126 C 0.60588 0.5306 0.56197 0.0
C127 C 0.61565 0.63889 0.54882 0.0
C128 C 0.60471 0.63205 0.53048 0.0
C129 C 0.59273 0.65985 0.52142 0.0
C130 C 0.59131 0.69462 0.53061 0.0
C131 C 0.60573 0.70374 0.54847 0.0
C132 C 0.61805 0.67633 0.55747 0.0
C133 C 0.62239 0.57964 0.60761 0.0
C134 C 0.61487 0.61208 0.61578 0.0
C135 C 0.61005 0.61259 0.63436 0.0
C136 C 0.61342 0.58121 0.64518 0.0
C137 C 0.62287 0.55001 0.63716 0.0
C138 C 0.62696 0.54898 0.61852 0.0
C139 C 0.58934 0.48571 0.55391 0.0
C140 C 0.58678 0.45044 0.56423 0.0
C141 C 0.89975 0.51401 0.88414 0.0
C142 C 0.90159 0.51295 0.86533 0.0
C143 C 0.92443 0.49366 0.85709 0.0
C144 C 0.94497 0.47563 0.86749 0.0
H145 H 0.03726 0.43668 0.86397 0.0
H146 H 0.10435 0.44273 0.85077 0.0
H147 H 0.14503 0.42261 0.90294 0.0
H148 H 0.07831 0.41731 0.91632 0.0
H149 H 0.03404 0.43013 0.95077 0.0
H150 H 0.0315 0.43683 0.98325 0.0
H151 H 0.91941 0.45797 0.97816 0.0
H152 H 0.92145 0.45088 0.94571 0.0
H153 H 0.91775 0.49697 0.90901 0.0
H154 H 0.88165 0.52794 0.89084 0.0
H155 H 0.92634 0.49245 0.84261 0.0
H156 H 0.96233 0.461 0.86072 0.0
N157 N -0.00578 0.4474 0.88966 0.0
N158 N 0.01152 0.43045 0.91785 0.0
N159 N 0.95942 0.45449 0.91545 0.0
C160 C 0.01743 0.4335 0.89975 0.0
C161 C 0.98225 0.44053 0.92578 0.0
C162 C 0.96519 0.45794 0.89737 0.0
C163 C 0.05291 0.42765 0.89131 0.0
C164 C 0.06002 0.43272 0.87263 0.0
C165 C 0.09834 0.43584 0.865 0.0
C166 C 0.13025 0.43395 0.87588 0.0
C167 C 0.12132 0.42507 0.89429 0.0
C168 C 0.08299 0.42188 0.90194 0.0
C169 C 0.97817 0.44031 0.94558 0.0
C170 C 0.0085 0.4357 0.95655 0.0
C171 C 0.00728 0.43983 0.97516 0.0
C172 C 0.97551 0.4483 0.98321 0.0
C173 C 0.94411 0.45119 0.97233 0.0
C174 C 0.94549 0.44737 0.95372 0.0
C175 C 0.94273 0.47623 0.88634 0.0
C176 C 0.91997 0.49572 0.89454 0.0
C177 C 0.049 0.66459 0.44413 0.0
C178 C 0.04527 0.66437 0.46292 0.0
C179 C 0.01599 0.62373 0.47164 0.0
C180 C -0.00707 0.58383 0.46187 0.0
H181 H 0.88823 0.4443 0.46278 0.0
H182 H 0.8385 0.37114 0.47605 0.0
H183 H 0.8781 0.30826 0.43534 0.0
H184 H 0.92593 0.3812 0.42159 0.0
H185 H 0.91776 0.44023 0.38065 0.0
H186 H 0.92764 0.44486 0.34807 0.0
H187 H 0.04716 0.57437 0.35343 0.0
H188 H 0.03708 0.57034 0.38602 0.0
H189 H 0.03098 0.62634 0.42 0.0
H190 H 0.07171 0.69503 0.43695 0.0
H191 H 0.01189 0.62252 0.48608 0.0
H192 H 0.97174 0.55289 0.46906 0.0
N193 N 0.95391 0.50105 0.44133 0.0
N194 N 0.94483 0.46351 0.41399 0.0
N195 N 0.98612 0.54206 0.41499 0.0
C196 C 0.9372 0.46207 0.43193 0.0
C197 C 0.96923 0.50343 0.40544 0.0
C198 C 0.97853 0.54124 0.43291 0.0
C199 C 0.91041 0.41836 0.44101 0.0
C200 C 0.88652 0.41483 0.45678 0.0
C201 C 0.85825 0.37283 0.46446 0.0
C202 C 0.85387 0.33354 0.4567 0.0
C203 C 0.87968 0.33756 0.44144 0.0
C204 C 0.90727 0.37942 0.43358 0.0
C205 C 0.97655 0.50501 0.38586 0.0
C206 C 0.94631 0.46955 0.3749 0.0
C207 C 0.95179 0.47224 0.35629 0.0
C208 C 0.98807 0.50999 0.34836 0.0
C209 C 0.01904 0.54487 0.3593 0.0
C210 C 0.0131 0.54261 0.37789 0.0
C211 C -0.00134 0.5838 0.44317 0.0
C212 C 0.02593 0.62488 0.43439 0.0
C213 C 0.40473 0.09452 0.77227 0.0
C214 C 0.42922 0.12042 0.78706 0.0
C215 C 0.45883 0.10981 0.79563 0.0
C216 C 0.46543 0.07564 0.789 0.0
H217 H 0.50679 0.98244 0.80203 0.0
H218 H 0.54343 0.94894 0.81849 0.0
H219 H 0.55704 0.89015 0.76934 0.0
H220 H 0.52131 0.92391 0.75287 0.0
H221 H 0.44731 0.91167 0.71925 0.0
H222 H 0.43902 0.90171 0.6868 0.0
H223 H 0.45207 0.03293 0.68195 0.0
H224 H 0.45725 0.04114 0.71422 0.0
H225 H 0.39335 0.04245 0.75375 0.0
H226 H 0.38087 0.10101 0.7656 0.0
H227 H 0.47867 0.12932 0.80692 0.0
H228 H 0.48978 0.06952 0.79547 0.0
N229 N 0.47519 0.00217 0.77431 0.0
N230 N 0.47897 0.96579 0.74827 0.0
N231 N 0.44659 0.01113 0.7472 0.0
C232 C 0.48743 0.97477 0.76605 0.0
C233 C 0.4587 0.98399 0.73878 0.0
C234 C 0.45439 0.02014 0.76496 0.0
C235 C 0.51075 0.95566 0.77612 0.0
C236 C 0.51787 0.96263 0.79471 0.0
C237 C 0.53883 0.94341 0.80416 0.0
C238 C 0.55331 0.91706 0.79522 0.0
C239 C 0.54703 0.91094 0.7766 0.0
C240 C 0.52602 0.92996 0.76717 0.0
C241 C 0.45264 0.97703 0.71924 0.0
C242 C 0.44793 0.93806 0.71117 0.0
C243 C 0.44351 0.93256 0.69255 0.0
C244 C 0.44472 0.96641 0.68159 0.0
C245 C 0.44965 0.00544 0.68983 0.0
C246 C 0.45299 0.01041 0.7084 0.0
C247 C 0.44299 0.05177 0.77354 0.0
C248 C 0.41175 0.0608 0.76552 0.0
C249 C 0.61836 0.48108 0.10875 0.0
C250 C 0.61145 0.47178 0.1272 0.0
C251 C 0.56767 0.44874 0.134 0.0
C252 C 0.53139 0.4352 0.12253 0.0
H253 H 0.4019 0.40369 0.12347 0.0
H254 H 0.33933 0.4077 0.13616 0.0
H255 H 0.28685 0.3995 0.08298 0.0
H256 H 0.34992 0.39639 0.07013 0.0
H257 H 0.41245 0.41856 0.0371 0.0
H258 H 0.42709 0.43605 0.00531 0.0
H259 H 0.56205 0.46292 0.01206 0.0
H260 H 0.54752 0.44498 0.04385 0.0
H261 H 0.58868 0.47482 0.08309 0.0
H262 H 0.65179 0.4981 0.10311 0.0
H263 H 0.5615 0.44116 0.14818 0.0
H264 H 0.49801 0.41751 0.12819 0.0
N265 N 0.45906 0.41804 0.09882 0.0
N266 N 0.43061 0.4117 0.06987 0.0
N267 N 0.50588 0.43352 0.07384 0.0
C268 C 0.42417 0.40846 0.08792 0.0
C269 C 0.47129 0.42389 0.06271 0.0
C270 C 0.49994 0.43052 0.09191 0.0
C271 C 0.3816 0.40091 0.09573 0.0
C272 C 0.37665 0.40188 0.11445 0.0
C273 C 0.34057 0.40385 0.12177 0.0
C274 C 0.30872 0.40478 0.11053 0.0
C275 C 0.31152 0.39981 0.09193 0.0
C276 C 0.3476 0.39786 0.08459 0.0
C277 C 0.4789 0.43066 0.04311 0.0
C278 C 0.44516 0.42777 0.03183 0.0
C279 C 0.45359 0.43808 0.01362 0.0
C280 C 0.49583 0.45126 0.00625 0.0
C281 C 0.52909 0.45264 0.01735 0.0
C282 C 0.52077 0.44254 0.0356 0.0
C283 C 0.53825 0.44404 0.10401 0.0
C284 C 0.58215 0.4672 0.09725 0.0
H285 H 0.11457 0.43366 0.17446 0.0
H286 H 0.28713 0.46429 0.0968 0.0
H287 H 0.16299 0.53733 0.13391 0.0
H288 H 0.25807 0.37373 0.14137 0.0
H289 H 0.23873 0.48875 0.11001 0.0
H290 H 0.1662 0.41045 0.16301 0.0
C291 C 0.13641 0.45192 0.16333 0.0
C292 C 0.13413 0.48725 0.15503 0.0
C293 C 0.24277 0.46345 0.11693 0.0
C294 C 0.1926 0.46048 0.14177 0.0
C295 C 0.26997 0.44902 0.10926 0.0
C296 C 0.2763 0.41662 0.11792 0.0
C297 C 0.22154 0.44536 0.13341 0.0
C298 C 0.25414 0.39889 0.13429 0.0
C299 C 0.16569 0.43851 0.15676 0.0
C300 C 0.16323 0.50968 0.14065 0.0
N301 N 0.22758 0.41346 0.14152 0.0
N302 N 0.19093 0.49566 0.1344 0.0
H303 H 0.63193 0.13179 0.51649 0.0
H304 H 0.80203 0.25678 0.43739 0.0
H305 H 0.62895 0.06841 0.46605 0.0
H306 H 0.82748 0.30727 0.49174 0.0
H307 H 0.74146 0.1857 0.44835 0.0
H308 H 0.70589 0.19423 0.50865 0.0
C309 C 0.64704 0.13064 0.50388 0.0
C310 C 0.62382 0.09511 0.49178 0.0
C311 C 0.76063 0.21209 0.45794 0.0
C312 C 0.70821 0.16664 0.48268 0.0
C313 C 0.79559 0.2528 0.45169 0.0
C314 C 0.81997 0.2885 0.46362 0.0
C315 C 0.74924 0.20702 0.47622 0.0
C316 C 0.80904 0.28119 0.48197 0.0
C317 C 0.68931 0.16631 0.49943 0.0
C318 C 0.64529 0.09528 0.47572 0.0
N319 N 0.77409 0.24147 0.48768 0.0
N320 N 0.68595 0.13082 0.47153 0.0
H321 H 0.57463 0.71606 0.85718 0.0
H322 H 0.52417 0.87286 0.82725 0.0
H323 H 0.63795 0.73383 0.80544 0.0
H324 H 0.62358 0.90542 0.78593 0.0
H325 H 0.54551 0.82273 0.84081 0.0
H326 H 0.57603 0.78672 0.85307 0.0
C327 C 0.58917 0.73508 0.84499 0.0
C328 C 0.6051 0.7184 0.83142 0.0
C329 C 0.56389 0.84167 0.82913 0.0
C330 C 0.60481 0.79846 0.82616 0.0
C331 C 0.5515 0.87046 0.82132 0.0
C332 C 0.57169 0.89295 0.80529 0.0
C333 C 0.59685 0.83526 0.82084 0.0
C334 C 0.60645 0.88796 0.79808 0.0
C335 C 0.58942 0.77529 0.84252 0.0
C336 C 0.62464 0.74502 0.81614 0.0
N337 N 0.61742 0.85914 0.80575 0.0
N338 N 0.62316 0.7833 0.81378 0.0
H339 H 0.88076 0.5835 0.16575 0.0
H340 H 0.61911 0.4182 0.15204 0.0
H341 H 0.81444 0.43887 0.16738 0.0
H342 H 0.69124 0.55092 0.12886 0.0
H343 H 0.68711 0.43268 0.16746 0.0
H344 H 0.80778 0.57801 0.16148 0.0
C345 C 0.85076 0.55074 0.16558 0.0
C346 C 0.85334 0.51153 0.16659 0.0
C347 C 0.68779 0.4589 0.15925 0.0
C348 C 0.77066 0.50509 0.16204 0.0
C349 C 0.649 0.45078 0.15054 0.0
C350 C 0.6499 0.48318 0.13895 0.0
C351 C 0.72759 0.4997 0.15636 0.0
C352 C 0.68956 0.52476 0.13741 0.0
C353 C 0.80935 0.54763 0.16311 0.0
C354 C 0.81375 0.46983 0.16632 0.0
N355 N 0.72712 0.5317 0.14586 0.0
N356 N 0.77401 0.46768 0.16397 0.0
H357 H 0.27099 0.92336 0.47694 0.0
H358 H 0.08854 0.6691 0.49418 0.0
H359 H 0.28097 0.83939 0.5174 0.0
H360 H 0.07342 0.75279 0.45514 0.0
H361 H 0.15113 0.73568 0.50713 0.0
H362 H 0.1925 0.86644 0.47273 0.0
C363 C 0.25656 0.89331 0.48513 0.0
C364 C 0.2829 0.88569 0.49725 0.0
C365 C 0.13372 0.73968 0.49591 0.0
C366 C 0.19323 0.82043 0.49246 0.0
C367 C 0.09755 0.70156 0.48859 0.0
C368 C 0.07618 0.70515 0.47327 0.0
C369 C 0.14908 0.78165 0.48774 0.0
C370 C 0.08979 0.74829 0.4666 0.0
C371 C 0.21172 0.86082 0.48272 0.0
C372 C 0.26225 0.84634 0.50763 0.0
N373 N 0.12595 0.78479 0.47365 0.0
N374 N 0.21886 0.81495 0.50481 0.0
H375 H 0.49359 0.36399 0.84132 0.0
H376 H 0.42128 0.18019 0.76539 0.0
H377 H 0.44977 0.37875 0.78897 0.0
H378 H 0.43288 0.15337 0.8211 0.0
H379 H 0.42673 0.25081 0.7741 0.0
H380 H 0.46759 0.2854 0.83463 0.0
C381 C 0.47815 0.35059 0.82845 0.0
C382 C 0.47437 0.37813 0.81558 0.0
C383 C 0.42747 0.22921 0.78445 0.0
C384 C 0.4448 0.28816 0.8078 0.0
C385 C 0.42407 0.1886 0.77951 0.0
C386 C 0.42699 0.16075 0.79252 0.0
C387 C 0.43448 0.2425 0.8025 0.0
C388 C 0.43147 0.17414 0.81055 0.0
C389 C 0.46314 0.30563 0.82468 0.0
C390 C 0.45358 0.35879 0.79924 0.0
N391 N 0.43563 0.21431 0.81498 0.0
N392 N 0.44013 0.3151 0.79571 0.0
H393 H 0.42581 0.80999 0.51497 0.0
H394 H 0.60982 0.73881 0.49827 0.0
H395 H 0.5366 0.88104 0.47823 0.0
H396 H 0.52315 0.70181 0.54456 0.0
H397 H 0.5739 0.77924 0.48616 0.0
H398 H 0.45073 0.75666 0.52074 0.0
C399 C 0.45505 0.81409 0.50792 0.0
C400 C 0.47966 0.85061 0.49637 0.0
C401 C 0.56269 0.76199 0.49891 0.0
C402 C 0.50854 0.78976 0.50305 0.0
C403 C 0.5831 0.73907 0.50577 0.0
C404 C 0.5698 0.71785 0.52253 0.0
C405 C 0.52842 0.76274 0.50879 0.0
C406 C 0.53489 0.71862 0.53175 0.0
C407 C 0.46934 0.78367 0.51127 0.0
C408 C 0.51695 0.85374 0.48744 0.0
N409 N 0.51548 0.7408 0.52478 0.0
N410 N 0.53065 0.82399 0.49114 0.0
H411 H 0.67255 0.48906 0.81811 0.0
H412 H 0.89866 0.59045 0.86939 0.0
H413 H 0.74383 0.62798 0.83436 0.0
H414 H 0.84742 0.47115 0.83679 0.0
H415 H 0.847 0.60894 0.85468 0.0
H416 H 0.74007 0.48513 0.82243 0.0
C417 C 0.7028 0.51895 0.82236 0.0
C418 C 0.70276 0.55871 0.82613 0.0
C419 C 0.84778 0.57926 0.85047 0.0
C420 C 0.77987 0.55434 0.83147 0.0
C421 C 0.87699 0.56856 0.85894 0.0
C422 C 0.8767 0.52885 0.85448 0.0
C423 C 0.81767 0.5496 0.83771 0.0
C424 C 0.84863 0.50202 0.84066 0.0
C425 C 0.74138 0.51679 0.82476 0.0
C426 C 0.74272 0.59668 0.83141 0.0
N427 N 0.81964 0.51247 0.83299 0.0
N428 N 0.77963 0.59331 0.83433 0.0
H429 H 0.14529 0.68659 0.14284 0.0
H430 H 0.25027 0.87687 0.21583 0.0
H431 H 0.0712 0.69383 0.18825 0.0
H432 H 0.31175 0.89108 0.16379 0.0
H433 H 0.18231 0.8132 0.20468 0.0
H434 H 0.2042 0.76376 0.14879 0.0
C435 C 0.14105 0.70457 0.1539 0.0
C436 C 0.10354 0.68336 0.16526 0.0
C437 C 0.2104 0.83059 0.19559 0.0
C438 C 0.17104 0.77151 0.1722 0.0
C439 C 0.24939 0.86743 0.20192 0.0
C440 C 0.28736 0.88958 0.19082 0.0
C441 C 0.2093 0.81492 0.17811 0.0
C442 C 0.28388 0.87455 0.17302 0.0
C443 C 0.1747 0.74868 0.15726 0.0
C444 C 0.09971 0.70853 0.17926 0.0
N445 N 0.24579 0.83773 0.1673 0.0
N446 N 0.13337 0.75099 0.1825 0.0
H447 H 0.45093 0.14939 0.48078 0.0
H448 H 0.48806 0.32284 0.55935 0.0
H449 H 0.44131 0.11894 0.53726 0.0
H450 H 0.54616 0.36472 0.50652 0.0
H451 H 0.45117 0.24486 0.54947 0.0
H452 H 0.46579 0.22534 0.48828 0.0
C453 C 0.4507 0.15836 0.4947 0.0
C454 C 0.44529 0.1284 0.50848 0.0
C455 C 0.47171 0.27117 0.54 0.0
C456 C 0.46208 0.21416 0.51707 0.0
C457 C 0.49309 0.31564 0.54566 0.0
C458 C 0.52112 0.35029 0.53387 0.0
C459 C 0.47824 0.26112 0.52239 0.0
C460 C 0.52505 0.33904 0.51609 0.0
C461 C 0.4595 0.2016 0.49897 0.0
C462 C 0.44572 0.14143 0.52631 0.0
N463 N 0.50421 0.29527 0.51092 0.0
N464 N 0.45426 0.18345 0.5301 0.0
H465 H 0.35933 0.46993 0.81373 0.0
H466 H 0.21058 0.4906 0.89088 0.0
H467 H 0.40982 0.57135 0.85514 0.0
H468 H 0.15159 0.40864 0.84392 0.0
H469 H 0.28428 0.51696 0.87813 0.0
H470 H 0.28298 0.44549 0.82399 0.0
C471 C 0.35439 0.48751 0.82476 0.0
C472 C 0.39104 0.52238 0.83374 0.0
C473 C 0.25533 0.49317 0.87056 0.0
C474 C 0.30428 0.49424 0.84562 0.0
C475 C 0.21319 0.47763 0.87796 0.0
C476 C 0.17493 0.44703 0.86853 0.0
C477 C 0.25951 0.47797 0.85357 0.0
C478 C 0.18034 0.43229 0.85161 0.0
C479 C 0.31088 0.47339 0.83065 0.0
C480 C 0.3827 0.54392 0.84795 0.0
N481 N 0.22198 0.44781 0.84466 0.0
N482 N 0.34031 0.52922 0.85354 0.0
H483 H 0.87 0.32344 0.15054 0.0
H484 H 0.73357 0.17453 0.23247 0.0
H485 H 0.92552 0.34376 0.20375 0.0
H486 H 0.69867 0.12893 0.17775 0.0
H487 H 0.8064 0.23324 0.22213 0.0
H488 H 0.80977 0.24942 0.15972 0.0
C489 C 0.86992 0.31202 0.16408 0.0
C490 C 0.90244 0.34008 0.17648 0.0
C491 C 0.78309 0.20996 0.21241 0.0
C492 C 0.83326 0.2557 0.18714 0.0
C493 C 0.74138 0.17608 0.21831 0.0
C494 C 0.70937 0.14678 0.20596 0.0
C495 C 0.7928 0.21529 0.19398 0.0
C496 C 0.72165 0.15139 0.18774 0.0
C497 C 0.83557 0.2697 0.1693 0.0
C498 C 0.90097 0.32337 0.19378 0.0
N499 N 0.76209 0.18546 0.18227 0.0
N500 N 0.86641 0.28258 0.1987 0.0
H501 H 0.05723 0.54761 0.09096 0.0
H502 H 0.9048 0.41556 0.00673 0.0
H503 H 0.9178 0.44612 0.09568 0.0
H504 H 0.04826 0.49952 0.00416 0.0
H505 H 0.90741 0.4309 0.03894 0.0
H506 H 0.05285 0.53547 0.05862 0.0
C507 C 0.02559 0.52298 0.08521 0.0
C508 C 0.98787 0.49769 0.0961 0.0
C509 C 0.9383 0.44588 0.03132 0.0
C510 C 0.98273 0.4835 0.05902 0.0
C511 C 0.93681 0.43726 0.01295 0.0
C512 C 0.9764 0.45613 0.0028 0.0
C513 C 0.97964 0.47388 0.03954 0.0
C514 C 0.01701 0.48375 0.01154 0.0
C515 C 0.02318 0.51593 0.06672 0.0
C516 C 0.94779 0.46625 0.08783 0.0
N517 N 0.01757 0.49186 0.02939 0.0
N518 N 0.9463 0.45998 0.06979 0.0
H519 H 0.46662 0.94139 0.42467 0.0
H520 H 0.47267 0.07894 0.33893 0.0
H521 H 0.42811 0.04236 0.42773 0.0
H522 H 0.44163 0.94132 0.33542 0.0
H523 H 0.46589 0.07168 0.37175 0.0
H524 H 0.467 0.94605 0.39192 0.0
C525 C 0.45817 0.96448 0.41843 0.0
C526 C 0.44733 0.99156 0.42889 0.0
C527 C 0.4603 0.04306 0.36375 0.0
C528 C 0.44833 -0.00257 0.39154 0.0
C529 C 0.46438 0.04725 0.34512 0.0
C530 C 0.45762 0.01063 0.33458 0.0
C531 C 0.45041 0.0023 0.37183 0.0
C532 C 0.44679 0.97018 0.34314 0.0
C533 C 0.45822 0.96695 0.39978 0.0
C534 C 0.43644 0.02075 0.42013 0.0
N535 N 0.44396 0.9672 0.36131 0.0
N536 N 0.43772 0.02332 0.40192 0.0
H537 H 0.64163 0.60097 0.76024 0.0
H538 H 0.54291 0.57955 0.66233 0.0
H539 H 0.50016 0.54247 0.75098 0.0
H540 H 0.66561 0.58009 0.67229 0.0
H541 H 0.5298 0.57717 0.69479 0.0
H542 H 0.65419 0.60527 0.72789 0.0
C543 C 0.61319 0.58932 0.75141 0.0
C544 C 0.56971 0.57126 0.75834 0.0
C545 C 0.55954 0.57778 0.68984 0.0
C546 C 0.58406 0.57627 0.72129 0.0
C547 C 0.56716 0.5794 0.67139 0.0
C548 C 0.60543 0.58008 0.66472 0.0
C549 C 0.59081 0.57761 0.70166 0.0
C550 C 0.63562 0.57937 0.67695 0.0
C551 C 0.62043 0.59155 0.73295 0.0
C552 C 0.53418 0.55645 0.74621 0.0
N553 N 0.62782 0.57848 0.69487 0.0
N554 N 0.54216 0.55946 0.72823 0.0
H555 H 0.46843 0.04025 0.57115 0.0
H556 H 0.47643 0.92386 0.6596 0.0
H557 H 0.43828 0.90268 0.56862 0.0
H558 H 0.40737 -0.00102 0.65782 0.0
H559 H 0.47646 0.9223 0.62677 0.0
H560 H 0.46244 0.0345 0.6039 0.0
C561 C 0.46093 0.00897 0.57752 0.0
C562 C 0.45381 0.97184 0.56726 0.0
C563 C 0.46117 0.93883 0.63371 0.0
C564 C 0.44751 0.96538 0.60451 0.0
C565 C 0.46081 0.93957 0.65245 0.0
C566 C 0.4423 0.96208 0.66167 0.0
C567 C 0.44396 0.96165 0.62418 0.0
C568 C 0.42334 0.98246 0.65146 0.0
C569 C 0.45721 0.00566 0.59613 0.0
C570 C 0.44379 0.93195 0.57613 0.0
N571 N 0.42529 0.98236 0.63328 0.0
N572 N 0.44139 0.92984 0.59436 0.0
H573 H 0.5725 0.47882 0.89427 0.0
H574 H 0.47332 0.50499 0.98758 0.0
H575 H 0.51939 0.5672 0.90221 0.0
H576 H 0.54095 0.42941 0.98165 0.0
H577 H 0.48957 0.52761 0.95618 0.0
H578 H 0.56198 0.4607 0.92622 0.0
C579 C 0.55892 0.49468 0.90273 0.0
C580 C 0.5466 0.52443 0.8955 0.0
C581 C 0.50097 0.50616 0.96173 0.0
C582 C 0.53417 0.50352 0.93207 0.0
C583 C 0.49139 0.49294 0.97962 0.0
C584 C 0.50558 0.46505 0.98719 0.0
C585 C 0.52474 0.49121 0.95128 0.0
C586 C 0.52962 0.45115 0.97636 0.0
C587 C 0.5529 0.48427 0.92098 0.0
C588 C 0.52929 0.54402 0.90716 0.0
N589 N 0.53827 0.46421 0.95891 0.0
N590 N 0.52332 0.53298 0.92483 0.0
H591 H 0.06162 0.5052 0.23777 0.0
H592 H 0.92568 0.50098 0.32417 0.0
H593 H 0.96159 0.54465 0.23635 0.0
H594 H 0.06093 0.52744 0.32798 0.0
H595 H 0.93366 0.50733 0.29146 0.0
H596 H 0.05809 0.5046 0.27065 0.0
C597 C 0.03911 0.51393 0.24437 0.0
C598 C 0.0118 0.52492 0.23434 0.0
C599 C 0.96162 0.51189 0.29946 0.0
C600 C 0.00717 0.52359 0.27174 0.0
C601 C 0.95698 0.50796 0.31805 0.0
C602 C -0.0073 0.51362 0.32865 0.0
C603 C 0.00198 0.52069 0.29145 0.0
C604 C 0.03274 0.52303 0.32019 0.0
C605 C 0.03724 0.51371 0.26308 0.0
C606 C 0.98334 0.53613 0.24356 0.0
N607 N 0.03623 0.52589 0.302 0.0
N608 N 0.98139 0.53467 0.26175 0.0
loop_
_geom_bond_atom_site_label_1
_geom_bond_atom_site_label_2
_geom_bond_distance
_geom_bond_site_symmetry_2
_ccdc_geom_bond_type
O0 Zn1 1.953 . S
O0 C16 1.225 1_655 S
Zn1 O0 1.953 . S
Zn1 O2 1.949 1_655 S
Zn1 O8 1.919 . S
Zn1 O13 1.924 1_655 S
O2 Zn1 1.949 1_455 S
O2 Zn3 1.923 1_455 S
O2 Zn4 1.950 . S
O2 Zn5 1.945 . S
Zn3 O2 1.923 1_655 S
Zn3 O6 1.933 . S
Zn3 O9 1.941 . S
Zn3 O10 1.965 . S
Zn4 O2 1.950 . S
Zn4 O11 1.938 1_455 S
Zn4 O12 1.906 . S
Zn4 O22 1.953 . S
Zn5 O2 1.945 . S
Zn5 O7 1.932 . S
Zn5 O14 1.977 . S
Zn5 O15 1.910 . S
O6 Zn3 1.933 . S
O6 C17 1.226 1_655 S
O7 Zn5 1.932 . S
O7 C17 1.307 . S
O8 Zn1 1.919 . S
O8 C19 1.253 . S
O9 Zn3 1.941 . S
O9 C19 1.283 . S
O10 Zn3 1.965 . S
O10 C18 1.303 . S
O11 Zn4 1.938 1_655 S
O11 C18 1.247 . S
O12 Zn4 1.906 . S
O12 C20 1.304 . S
O13 Zn1 1.924 1_455 S
O13 C21 1.311 . S
O14 Zn5 1.977 . S
O14 C20 1.272 . S
O15 Zn5 1.910 . S
O15 C21 1.231 . S
C16 O0 1.225 1_455 S
C16 O22 1.298 . S
C17 O6 1.226 1_455 S
C17 O7 1.307 . S
C18 O10 1.303 . S
C18 O11 1.247 . S
C19 O8 1.253 . S
C19 O9 1.283 . S
C20 O12 1.304 . S
C20 O14 1.272 . S
C21 O13 1.311 . S
C21 O15 1.231 . S
O22 Zn4 1.953 . S
O22 C16 1.298 . S
O23 Zn24 1.953 . S
O23 C39 1.225 . S
Zn24 O23 1.953 . S
Zn24 O25 1.949 . S
Zn24 O31 1.919 . S
Zn24 O36 1.924 1_545 S
O25 Zn24 1.949 . S
O25 Zn26 1.923 . S
O25 Zn27 1.950 1_545 S
O25 Zn28 1.945 1_545 S
Zn26 O25 1.923 . S
Zn26 O29 1.933 . S
Zn26 O32 1.941 . S
Zn26 O33 1.965 . S
Zn27 O25 1.950 1_565 S
Zn27 O34 1.938 1_565 S
Zn27 O35 1.906 . S
Zn27 O45 1.953 . S
Zn28 O25 1.945 1_565 S
Zn28 O30 1.932 . S
Zn28 O37 1.977 . S
Zn28 O38 1.910 . S
O29 Zn26 1.933 . S
O29 C40 1.226 . S
O30 Zn28 1.932 . S
O30 C40 1.307 1_565 S
O31 Zn24 1.919 . S
O31 C42 1.253 . S
O32 Zn26 1.941 . S
O32 C42 1.283 . S
O33 Zn26 1.965 . S
O33 C41 1.303 . S
O34 Zn27 1.938 1_545 S
O34 C41 1.247 . S
O35 Zn27 1.906 . S
O35 C43 1.304 . S
O36 Zn24 1.924 1_565 S
O36 C44 1.311 . S
O37 Zn28 1.977 . S
O37 C43 1.272 . S
O38 Zn28 1.910 . S
O38 C44 1.231 . S
C39 O23 1.225 . S
C39 O45 1.298 1_545 S
C40 O29 1.226 . S
C40 O30 1.307 1_545 S
C41 O33 1.303 . S
C41 O34 1.247 . S
C42 O31 1.253 . S
C42 O32 1.283 . S
C43 O35 1.304 . S
C43 O37 1.272 . S
C44 O36 1.311 . S
C44 O38 1.231 . S
O45 Zn27 1.953 . S
O45 C39 1.298 1_565 S
O46 Zn47 1.953 . S
O46 C62 1.225 . S
Zn47 O46 1.953 . S
Zn47 O48 1.949 . S
Zn47 O54 1.919 . S
Zn47 O59 1.924 . S
O48 Zn47 1.949 . S
O48 Zn49 1.923 . S
O48 Zn50 1.950 . S
O48 Zn51 1.945 . S
Zn49 O48 1.923 . S
Zn49 O52 1.933 . S
Zn49 O55 1.941 . S
Zn49 O56 1.965 . S
Zn50 O48 1.950 . S
Zn50 O57 1.938 . S
Zn50 O58 1.906 . S
Zn50 O68 1.953 . S
Zn51 O48 1.945 . S
Zn51 O53 1.932 . S
Zn51 O60 1.977 . S
Zn51 O61 1.910 . S
O52 Zn49 1.933 . S
O52 C63 1.226 . S
O53 Zn51 1.932 . S
O53 C63 1.307 . S
O54 Zn47 1.919 . S
O54 C65 1.253 . S
O55 Zn49 1.941 . S
O55 C65 1.283 . S
O56 Zn49 1.965 . S
O56 C64 1.303 . S
O57 Zn50 1.938 . S
O57 C64 1.247 . S
O58 Zn50 1.906 . S
O58 C66 1.304 . S
O59 Zn47 1.924 . S
O59 C67 1.311 . S
O60 Zn51 1.977 . S
O60 C66 1.272 . S
O61 Zn51 1.910 . S
O61 C67 1.231 . S
C62 O46 1.225 . S
C62 O68 1.298 . S
C63 O52 1.226 . S
C63 O53 1.307 . S
C64 O56 1.303 . S
C64 O57 1.247 . S
C65 O54 1.253 . S
C65 O55 1.283 . S
C66 O58 1.304 . S
C66 O60 1.272 . S
C67 O59 1.311 . S
C67 O61 1.231 . S
O68 Zn50 1.953 . S
O68 C62 1.298 . S
C69 C70 1.384 . S
C69 H82 0.947 . S
C69 C104 1.382 . S
C70 C69 1.384 . S
C70 C71 1.378 . S
C71 C70 1.378 . S
C71 C72 1.378 . S
C71 H83 0.952 . S
C72 C71 1.378 . S
C72 H84 0.950 . S
C72 C103 1.383 . S
H73 C92 0.947 . S
H74 C93 0.946 . S
H75 C95 0.953 . S
H76 C96 0.945 . S
H77 C98 0.952 . S
H78 C99 0.949 . S
H79 C101 0.950 . S
H80 C102 0.948 . S
H81 C104 0.951 . S
H82 C69 0.947 . S
H83 C71 0.952 . S
H84 C72 0.950 . S
N85 C88 1.382 . S
N85 C90 1.363 1_545 S
N86 C88 1.371 . S
N86 C89 1.372 . S
N87 C89 1.361 1_565 S
N87 C90 1.377 . S
C88 N85 1.382 . S
C88 N86 1.371 . S
C88 C91 1.480 . S
C89 N86 1.372 . S
C89 N87 1.361 1_545 S
C89 C97 1.457 . S
C90 N85 1.363 1_565 S
C90 N87 1.377 . S
C90 C103 1.479 . S
C91 C88 1.480 . S
C91 C92 1.383 . S
C91 C96 1.385 . S
C92 H73 0.947 . S
C92 C91 1.383 . S
C92 C93 1.388 . S
C93 H74 0.946 . S
C93 C92 1.388 . S
C93 C94 1.384 . S
C94 C93 1.384 . S
C94 C95 1.377 . S
C95 H75 0.953 . S
C95 C94 1.377 . S
C95 C96 1.369 . S
C96 H76 0.945 . S
C96 C91 1.385 . S
C96 C95 1.369 . S
C97 C89 1.457 . S
C97 C98 1.372 . S
C97 C102 1.364 1_545 S
C98 H77 0.952 . S
C98 C97 1.372 . S
C98 C99 1.389 . S
C99 H78 0.949 . S
C99 C98 1.389 . S
C99 C100 1.387 . S
C100 C99 1.387 . S
C100 C101 1.372 1_545 S
C101 H79 0.950 . S
C101 C100 1.372 1_565 S
C101 C102 1.379 . S
C102 H80 0.948 . S
C102 C97 1.364 1_565 S
C102 C101 1.379 . S
C103 C72 1.383 . S
C103 C90 1.479 . S
C103 C104 1.398 . S
C104 C69 1.382 . S
C104 H81 0.951 . S
C104 C103 1.398 . S
C105 C106 1.384 . S
C105 H118 0.947 . S
C105 C140 1.382 . S
C106 C105 1.384 . S
C106 C107 1.378 . S
C107 C106 1.378 . S
C107 C108 1.378 . S
C107 H119 0.952 . S
C108 C107 1.378 . S
C108 H120 0.950 . S
C108 C139 1.383 . S
H109 C128 0.947 . S
H110 C129 0.946 . S
H111 C131 0.953 . S
H112 C132 0.945 . S
H113 C134 0.952 . S
H114 C135 0.949 . S
H115 C137 0.950 . S
H116 C138 0.948 . S
H117 C140 0.951 . S
H118 C105 0.947 . S
H119 C107 0.952 . S
H120 C108 0.950 . S
N121 C124 1.382 . S
N121 C126 1.363 . S
N122 C124 1.371 . S
N122 C125 1.372 . S
N123 C125 1.361 . S
N123 C126 1.377 . S
C124 N121 1.382 . S
C124 N122 1.371 . S
C124 C127 1.480 . S
C125 N122 1.372 . S
C125 N123 1.361 . S
C125 C133 1.457 . S
C126 N121 1.363 . S
C126 N123 1.377 . S
C126 C139 1.479 . S
C127 C124 1.480 . S
C127 C128 1.383 . S
C127 C132 1.385 . S
C128 H109 0.947 . S
C128 C127 1.383 . S
C128 C129 1.388 . S
C129 H110 0.946 . S
C129 C128 1.388 . S
C129 C130 1.384 . S
C130 C129 1.384 . S
C130 C131 1.377 . S
C131 H111 0.953 . S
C131 C130 1.377 . S
C131 C132 1.369 . S
C132 H112 0.945 . S
C132 C127 1.385 . S
C132 C131 1.369 . S
C133 C125 1.457 . S
C133 C134 1.372 . S
C133 C138 1.364 . S
C134 H113 0.952 . S
C134 C133 1.372 . S
C134 C135 1.389 . S
C135 H114 0.949 . S
C135 C134 1.389 . S
C135 C136 1.387 . S
C136 C135 1.387 . S
C136 C137 1.372 . S
C137 H115 0.950 . S
C137 C136 1.372 . S
C137 C138 1.379 . S
C138 H116 0.948 . S
C138 C133 1.364 . S
C138 C137 1.379 . S
C139 C108 1.383 . S
C139 C126 1.479 . S
C139 C140 1.398 . S
C140 C105 1.382 . S
C140 H117 0.951 . S
C140 C139 1.398 . S
C141 C142 1.384 . S
C141 H154 0.947 . S
C141 C176 1.382 . S
C142 C141 1.384 . S
C142 C143 1.378 . S
C143 C142 1.378 . S
C143 C144 1.378 . S
C143 H155 0.952 . S
C144 C143 1.378 . S
C144 H156 0.950 . S
C144 C175 1.383 . S
H145 C164 0.947 . S
H146 C165 0.946 . S
H147 C167 0.953 . S
H148 C168 0.945 . S
H149 C170 0.952 . S
H150 C171 0.949 . S
H151 C173 0.950 . S
H152 C174 0.948 . S
H153 C176 0.951 . S
H154 C141 0.947 . S
H155 C143 0.952 . S
H156 C144 0.950 . S
N157 C160 1.382 . S
N157 C162 1.363 1_455 S
N158 C160 1.371 . S
N158 C161 1.372 . S
N159 C161 1.361 1_655 S
N159 C162 1.377 . S
C160 N157 1.382 . S
C160 N158 1.371 . S
C160 C163 1.480 . S
C161 N158 1.372 . S
C161 N159 1.361 1_455 S
C161 C169 1.457 . S
C162 N157 1.363 1_655 S
C162 N159 1.377 . S
C162 C175 1.479 . S
C163 C160 1.480 . S
C163 C164 1.383 . S
C163 C168 1.385 . S
C164 H145 0.947 . S
C164 C163 1.383 . S
C164 C165 1.388 . S
C165 H146 0.946 . S
C165 C164 1.388 . S
C165 C166 1.384 . S
C166 C165 1.384 . S
C166 C167 1.377 . S
C167 H147 0.953 . S
C167 C166 1.377 . S
C167 C168 1.369 . S
C168 H148 0.945 . S
C168 C163 1.385 . S
C168 C167 1.369 . S
C169 C161 1.457 . S
C169 C170 1.372 . S
C169 C174 1.364 1_455 S
C170 H149 0.952 . S
C170 C169 1.372 . S
C170 C171 1.389 . S
C171 H150 0.949 . S
C171 C170 1.389 . S
C171 C172 1.387 . S
C172 C171 1.387 . S
C172 C173 1.372 1_455 S
C173 H151 0.950 . S
C173 C172 1.372 1_655 S
C173 C174 1.379 . S
C174 H152 0.948 . S
C174 C169 1.364 1_655 S
C174 C173 1.379 . S
C175 C144 1.383 . S
C175 C162 1.479 . S
C175 C176 1.398 . S
C176 C141 1.382 . S
C176 H153 0.951 . S
C176 C175 1.398 . S
C177 C178 1.384 . S
C177 H190 0.947 . S
C177 C212 1.382 . S
C178 C177 1.384 . S
C178 C179 1.378 . S
C179 C178 1.378 . S
C179 C180 1.378 . S
C179 H191 0.952 . S
C180 C179 1.378 . S
C180 H192 0.950 . S
C180 C211 1.383 . S
H181 C200 0.947 . S
H182 C201 0.946 . S
H183 C203 0.953 . S
H184 C204 0.945 . S
H185 C206 0.952 . S
H186 C207 0.949 . S
H187 C209 0.950 . S
H188 C210 0.948 . S
H189 C212 0.951 . S
H190 C177 0.947 . S
H191 C179 0.952 . S
H192 C180 0.950 . S
N193 C196 1.382 1_455 S
N193 C198 1.363 . S
N194 C196 1.371 . S
N194 C197 1.372 1_655 S
N195 C197 1.361 . S
N195 C198 1.377 . S
C196 N193 1.382 1_655 S
C196 N194 1.371 . S
C196 C199 1.480 . S
C197 N194 1.372 1_455 S
C197 N195 1.361 . S
C197 C205 1.457 . S
C198 N193 1.363 . S
C198 N195 1.377 . S
C198 C211 1.479 . S
C199 C196 1.480 . S
C199 C200 1.383 . S
C199 C204 1.385 . S
C200 H181 0.947 . S
C200 C199 1.383 . S
C200 C201 1.388 . S
C201 H182 0.946 . S
C201 C200 1.388 . S
C201 C202 1.384 . S
C202 C201 1.384 . S
C202 C203 1.377 . S
C203 H183 0.953 . S
C203 C202 1.377 . S
C203 C204 1.369 . S
C204 H184 0.945 . S
C204 C199 1.385 . S
C204 C203 1.369 . S
C205 C197 1.457 . S
C205 C206 1.372 1_455 S
C205 C210 1.364 . S
C206 H185 0.952 . S
C206 C205 1.372 1_655 S
C206 C207 1.389 . S
C207 H186 0.949 . S
C207 C206 1.389 . S
C207 C208 1.387 1_655 S
C208 C207 1.387 1_455 S
C208 C209 1.372 . S
C209 H187 0.950 . S
C209 C208 1.372 . S
C209 C210 1.379 . S
C210 H188 0.948 . S
C210 C205 1.364 . S
C210 C209 1.379 . S
C211 C180 1.383 . S
C211 C198 1.479 . S
C211 C212 1.398 . S
C212 C177 1.382 . S
C212 H189 0.951 . S
C212 C211 1.398 . S
C213 C214 1.384 . S
C213 H226 0.947 . S
C213 C248 1.382 . S
C214 C213 1.384 . S
C214 C215 1.378 . S
C215 C214 1.378 . S
C215 C216 1.378 . S
C215 H227 0.952 . S
C216 C215 1.378 . S
C216 H228 0.950 . S
C216 C247 1.383 . S
H217 C236 0.947 . S
H218 C237 0.946 . S
H219 C239 0.953 . S
H220 C240 0.945 . S
H221 C242 0.952 . S
H222 C243 0.949 . S
H223 C245 0.950 . S
H224 C246 0.948 . S
H225 C248 0.951 . S
H226 C213 0.947 . S
H227 C215 0.952 . S
H228 C216 0.950 . S
N229 C232 1.382 1_545 S
N229 C234 1.363 . S
N230 C232 1.371 . S
N230 C233 1.372 1_565 S
N231 C233 1.361 . S
N231 C234 1.377 . S
C232 N229 1.382 1_565 S
C232 N230 1.371 . S
C232 C235 1.480 . S
C233 N230 1.372 1_545 S
C233 N231 1.361 . S
C233 C241 1.457 . S
C234 N229 1.363 . S
C234 N231 1.377 . S
C234 C247 1.479 . S
C235 C232 1.480 . S
C235 C236 1.383 . S
C235 C240 1.385 . S
C236 H217 0.947 . S
C236 C235 1.383 . S
C236 C237 1.388 . S
C237 H218 0.946 . S
C237 C236 1.388 . S
C237 C238 1.384 . S
C238 C237 1.384 . S
C238 C239 1.377 . S
C239 H219 0.953 . S
C239 C238 1.377 . S
C239 C240 1.369 . S
C240 H220 0.945 . S
C240 C235 1.385 . S
C240 C239 1.369 . S
C241 C233 1.457 . S
C241 C242 1.372 1_545 S
C241 C246 1.364 . S
C242 H221 0.952 . S
C242 C241 1.372 1_565 S
C242 C243 1.389 . S
C243 H222 0.949 . S
C243 C242 1.389 . S
C243 C244 1.387 1_565 S
C244 C243 1.387 1_545 S
C244 C245 1.372 . S
C245 H223 0.950 . S
C245 C244 1.372 . S
C245 C246 1.379 . S
C246 H224 0.948 . S
C246 C241 1.364 . S
C246 C245 1.379 . S
C247 C216 1.383 . S
C247 C234 1.479 . S
C247 C248 1.398 . S
C248 C213 1.382 . S
C248 H225 0.951 . S
C248 C247 1.398 . S
C249 C250 1.384 . S
C249 H262 0.947 . S
C249 C284 1.382 . S
C250 C249 1.384 . S
C250 C251 1.378 . S
C251 C250 1.378 . S
C251 C252 1.378 . S
C251 H263 0.952 . S
C252 C251 1.378 . S
C252 H264 0.950 . S
C252 C283 1.383 . S
H253 C272 0.947 . S
H254 C273 0.946 . S
H255 C275 0.953 . S
H256 C276 0.945 . S
H257 C278 0.952 . S
H258 C279 0.949 . S
H259 C281 0.950 . S
H260 C282 0.948 . S
H261 C284 0.951 . S
H262 C249 0.947 . S
H263 C251 0.952 . S
H264 C252 0.950 . S
N265 C268 1.382 . S
N265 C270 1.363 . S
N266 C268 1.371 . S
N266 C269 1.372 . S
N267 C269 1.361 . S
N267 C270 1.377 . S
C268 N265 1.382 . S
C268 N266 1.371 . S
C268 C271 1.480 . S
C269 N266 1.372 . S
C269 N267 1.361 . S
C269 C277 1.457 . S
C270 N265 1.363 . S
C270 N267 1.377 . S
C270 C283 1.479 . S
C271 C268 1.480 . S
C271 C272 1.383 . S
C271 C276 1.385 . S
C272 H253 0.947 . S
C272 C271 1.383 . S
C272 C273 1.388 . S
C273 H254 0.946 . S
C273 C272 1.388 . S
C273 C274 1.384 . S
C274 C273 1.384 . S
C274 C275 1.377 . S
C275 H255 0.953 . S
C275 C274 1.377 . S
C275 C276 1.369 . S
C276 H256 0.945 . S
C276 C271 1.385 . S
C276 C275 1.369 . S
C277 C269 1.457 . S
C277 C278 1.372 . S
C277 C282 1.364 . S
C278 H257 0.952 . S
C278 C277 1.372 . S
C278 C279 1.389 . S
C279 H258 0.949 . S
C279 C278 1.389 . S
C279 C280 1.387 . S
C280 C279 1.387 . S
C280 C281 1.372 . S
C281 H259 0.950 . S
C281 C280 1.372 . S
C281 C282 1.379 . S
C282 H260 0.948 . S
C282 C277 1.364 . S
C282 C281 1.379 . S
C283 C252 1.383 . S
C283 C270 1.479 . S
C283 C284 1.398 . S
C284 C249 1.382 . S
C284 H261 0.951 . S
C284 C283 1.398 . S
H285 C291 0.930 . S
H286 C295 0.930 . S
H287 C300 0.929 . S
H288 C298 0.929 . S
H289 C293 0.929 . S
H290 C299 0.929 . S
C291 H285 0.930 . S
C291 C292 1.367 . S
C291 C299 1.378 . S
C292 C291 1.367 . S
C292 C300 1.433 . S
C293 H289 0.929 . S
C293 C295 1.378 . S
C293 C297 1.350 . S
C294 C297 1.463 . S
C294 C299 1.350 . S
C294 N302 1.427 . S
C295 H286 0.930 . S
C295 C293 1.378 . S
C295 C296 1.367 . S
C296 C295 1.367 . S
C296 C298 1.433 . S
C297 C293 1.350 . S
C297 C294 1.463 . S
C297 N301 1.427 . S
C298 H288 0.929 . S
C298 C296 1.433 . S
C298 N301 1.384 . S
C299 H290 0.929 . S
C299 C291 1.378 . S
C299 C294 1.350 . S
C300 H287 0.929 . S
C300 C292 1.433 . S
C300 N302 1.384 . S
N301 C297 1.427 . S
N301 C298 1.384 . S
N302 C294 1.427 . S
N302 C300 1.384 . S
H303 C309 0.930 . S
H304 C313 0.930 . S
H305 C318 0.929 . S
H306 C316 0.929 . S
H307 C311 0.929 . S
H308 C317 0.929 . S
C309 H303 0.930 . S
C309 C310 1.367 . S
C309 C317 1.378 . S
C310 C309 1.367 . S
C310 C318 1.433 . S
C311 H307 0.929 . S
C311 C313 1.378 . S
C311 C315 1.350 . S
C312 C315 1.463 . S
C312 C317 1.350 . S
C312 N320 1.427 . S
C313 H304 0.930 . S
C313 C311 1.378 . S
C313 C314 1.367 . S
C314 C313 1.367 . S
C314 C316 1.433 . S
C315 C311 1.350 . S
C315 C312 1.463 . S
C315 N319 1.427 . S
C316 H306 0.929 . S
C316 C314 1.433 . S
C316 N319 1.384 . S
C317 H308 0.929 . S
C317 C309 1.378 . S
C317 C312 1.350 . S
C318 H305 0.929 . S
C318 C310 1.433 . S
C318 N320 1.384 . S
N319 C315 1.427 . S
N319 C316 1.384 . S
N320 C312 1.427 . S
N320 C318 1.384 . S
H321 C327 0.930 . S
H322 C331 0.930 . S
H323 C336 0.929 . S
H324 C334 0.929 . S
H325 C329 0.929 . S
H326 C335 0.929 . S
C327 H321 0.930 . S
C327 C328 1.367 . S
C327 C335 1.378 . S
C328 C327 1.367 . S
C328 C336 1.433 . S
C329 H325 0.929 . S
C329 C331 1.378 . S
C329 C333 1.350 . S
C330 C333 1.463 . S
C330 C335 1.350 . S
C330 N338 1.427 . S
C331 H322 0.930 . S
C331 C329 1.378 . S
C331 C332 1.367 . S
C332 C331 1.367 . S
C332 C334 1.433 . S
C333 C329 1.350 . S
C333 C330 1.463 . S
C333 N337 1.427 . S
C334 H324 0.929 . S
C334 C332 1.433 . S
C334 N337 1.384 . S
C335 H326 0.929 . S
C335 C327 1.378 . S
C335 C330 1.350 . S
C336 H323 0.929 . S
C336 C328 1.433 . S
C336 N338 1.384 . S
N337 C333 1.427 . S
N337 C334 1.384 . S
N338 C330 1.427 . S
N338 C336 1.384 . S
H339 C345 0.930 . S
H340 C349 0.930 . S
H341 C354 0.929 . S
H342 C352 0.929 . S
H343 C347 0.929 . S
H344 C353 0.929 . S
C345 H339 0.930 . S
C345 C346 1.367 . S
C345 C353 1.378 . S
C346 C345 1.367 . S
C346 C354 1.433 . S
C347 H343 0.929 . S
C347 C349 1.378 . S
C347 C351 1.350 . S
C348 C351 1.463 . S
C348 C353 1.350 . S
C348 N356 1.427 . S
C349 H340 0.930 . S
C349 C347 1.378 . S
C349 C350 1.367 . S
C350 C349 1.367 . S
C350 C352 1.433 . S
C351 C347 1.350 . S
C351 C348 1.463 . S
C351 N355 1.427 . S
C352 H342 0.929 . S
C352 C350 1.433 . S
C352 N355 1.384 . S
C353 H344 0.929 . S
C353 C345 1.378 . S
C353 C348 1.350 . S
C354 H341 0.929 . S
C354 C346 1.433 . S
C354 N356 1.384 . S
N355 C351 1.427 . S
N355 C352 1.384 . S
N356 C348 1.427 . S
N356 C354 1.384 . S
H357 C363 0.930 . S
H358 C367 0.930 . S
H359 C372 0.929 . S
H360 C370 0.929 . S
H361 C365 0.929 . S
H362 C371 0.929 . S
C363 H357 0.930 . S
C363 C364 1.367 . S
C363 C371 1.378 . S
C364 C363 1.367 . S
C364 C372 1.433 . S
C365 H361 0.929 . S
C365 C367 1.378 . S
C365 C369 1.350 . S
C366 C369 1.463 . S
C366 C371 1.350 . S
C366 N374 1.427 . S
C367 H358 0.930 . S
C367 C365 1.378 . S
C367 C368 1.367 . S
C368 C367 1.367 . S
C368 C370 1.433 . S
C369 C365 1.350 . S
C369 C366 1.463 . S
C369 N373 1.427 . S
C370 H360 0.929 . S
C370 C368 1.433 . S
C370 N373 1.384 . S
C371 H362 0.929 . S
C371 C363 1.378 . S
C371 C366 1.350 . S
C372 H359 0.929 . S
C372 C364 1.433 . S
C372 N374 1.384 . S
N373 C369 1.427 . S
N373 C370 1.384 . S
N374 C366 1.427 . S
N374 C372 1.384 . S
H375 C381 0.930 . S
H376 C385 0.930 . S
H377 C390 0.929 . S
H378 C388 0.929 . S
H379 C383 0.929 . S
H380 C389 0.929 . S
C381 H375 0.930 . S
C381 C382 1.367 . S
C381 C389 1.378 . S
C382 C381 1.367 . S
C382 C390 1.433 . S
C383 H379 0.929 . S
C383 C385 1.378 . S
C383 C387 1.350 . S
C384 C387 1.463 . S
C384 C389 1.350 . S
C384 N392 1.427 . S
C385 H376 0.930 . S
C385 C383 1.378 . S
C385 C386 1.367 . S
C386 C385 1.367 . S
C386 C388 1.433 . S
C387 C383 1.350 . S
C387 C384 1.463 . S
C387 N391 1.427 . S
C388 H378 0.929 . S
C388 C386 1.433 . S
C388 N391 1.384 . S
C389 H380 0.929 . S
C389 C381 1.378 . S
C389 C384 1.350 . S
C390 H377 0.929 . S
C390 C382 1.433 . S
C390 N392 1.384 . S
N391 C387 1.427 . S
N391 C388 1.384 . S
N392 C384 1.427 . S
N392 C390 1.384 . S
H393 C399 0.930 . S
H394 C403 0.930 . S
H395 C408 0.929 . S
H396 C406 0.929 . S
H397 C401 0.929 . S
H398 C407 0.929 . S
C399 H393 0.930 . S
C399 C400 1.367 . S
C399 C407 1.378 . S
C400 C399 1.367 . S
C400 C408 1.433 . S
C401 H397 0.929 . S
C401 C403 1.378 . S
C401 C405 1.350 . S
C402 C405 1.463 . S
C402 C407 1.350 . S
C402 N410 1.427 . S
C403 H394 0.930 . S
C403 C401 1.378 . S
C403 C404 1.367 . S
C404 C403 1.367 . S
C404 C406 1.433 . S
C405 C401 1.350 . S
C405 C402 1.463 . S
C405 N409 1.427 . S
C406 H396 0.929 . S
C406 C404 1.433 . S
C406 N409 1.384 . S
C407 H398 0.929 . S
C407 C399 1.378 . S
C407 C402 1.350 . S
C408 H395 0.929 . S
C408 C400 1.433 . S
C408 N410 1.384 . S
N409 C405 1.427 . S
N409 C406 1.384 . S
N410 C402 1.427 . S
N410 C408 1.384 . S
H411 C417 0.930 . S
H412 C421 0.930 . S
H413 C426 0.929 . S
H414 C424 0.929 . S
H415 C419 0.929 . S
H416 C425 0.929 . S
C417 H411 0.930 . S
C417 C418 1.367 . S
C417 C425 1.378 . S
C418 C417 1.367 . S
C418 C426 1.433 . S
C419 H415 0.929 . S
C419 C421 1.378 . S
C419 C423 1.350 . S
C420 C423 1.463 . S
C420 C425 1.350 . S
C420 N428 1.427 . S
C421 H412 0.930 . S
C421 C419 1.378 . S
C421 C422 1.367 . S
C422 C421 1.367 . S
C422 C424 1.433 . S
C423 C419 1.350 . S
C423 C420 1.463 . S
C423 N427 1.427 . S
C424 H414 0.929 . S
C424 C422 1.433 . S
C424 N427 1.384 . S
C425 H416 0.929 . S
C425 C417 1.378 . S
C425 C420 1.350 . S
C426 H413 0.929 . S
C426 C418 1.433 . S
C426 N428 1.384 . S
N427 C423 1.427 . S
N427 C424 1.384 . S
N428 C420 1.427 . S
N428 C426 1.384 . S
H429 C435 0.930 . S
H430 C439 0.930 . S
H431 C444 0.929 . S
H432 C442 0.929 . S
H433 C437 0.929 . S
H434 C443 0.929 . S
C435 H429 0.930 . S
C435 C436 1.367 . S
C435 C443 1.378 . S
C436 C435 1.367 . S
C436 C444 1.433 . S
C437 H433 0.929 . S
C437 C439 1.378 . S
C437 C441 1.350 . S
C438 C441 1.463 . S
C438 C443 1.350 . S
C438 N446 1.427 . S
C439 H430 0.930 . S
C439 C437 1.378 . S
C439 C440 1.367 . S
C440 C439 1.367 . S
C440 C442 1.433 . S
C441 C437 1.350 . S
C441 C438 1.463 . S
C441 N445 1.427 . S
C442 H432 0.929 . S
C442 C440 1.433 . S
C442 N445 1.384 . S
C443 H434 0.929 . S
C443 C435 1.378 . S
C443 C438 1.350 . S
C444 H431 0.929 . S
C444 C436 1.433 . S
C444 N446 1.384 . S
N445 C441 1.427 . S
N445 C442 1.384 . S
N446 C438 1.427 . S
N446 C444 1.384 . S
H447 C453 0.930 . S
H448 C457 0.930 . S
H449 C462 0.929 . S
H450 C460 0.929 . S
H451 C455 0.929 . S
H452 C461 0.929 . S
C453 H447 0.930 . S
C453 C454 1.367 . S
C453 C461 1.378 . S
C454 C453 1.367 . S
C454 C462 1.433 . S
C455 H451 0.929 . S
C455 C457 1.378 . S
C455 C459 1.350 . S
C456 C459 1.463 . S
C456 C461 1.350 . S
C456 N464 1.427 . S
C457 H448 0.930 . S
C457 C455 1.378 . S
C457 C458 1.367 . S
C458 C457 1.367 . S
C458 C460 1.433 . S
C459 C455 1.350 . S
C459 C456 1.463 . S
C459 N463 1.427 . S
C460 H450 0.929 . S
C460 C458 1.433 . S
C460 N463 1.384 . S
C461 H452 0.929 . S
C461 C453 1.378 . S
C461 C456 1.350 . S
C462 H449 0.929 . S
C462 C454 1.433 . S
C462 N464 1.384 . S
N463 C459 1.427 . S
N463 C460 1.384 . S
N464 C456 1.427 . S
N464 C462 1.384 . S
H465 C471 0.930 . S
H466 C475 0.930 . S
H467 C480 0.929 . S
H468 C478 0.929 . S
H469 C473 0.929 . S
H470 C479 0.929 . S
C471 H465 0.930 . S
C471 C472 1.367 . S
C471 C479 1.378 . S
C472 C471 1.367 . S
C472 C480 1.433 . S
C473 H469 0.929 . S
C473 C475 1.378 . S
C473 C477 1.350 . S
C474 C477 1.463 . S
C474 C479 1.350 . S
C474 N482 1.427 . S
C475 H466 0.930 . S
C475 C473 1.378 . S
C475 C476 1.367 . S
C476 C475 1.367 . S
C476 C478 1.433 . S
C477 C473 1.350 . S
C477 C474 1.463 . S
C477 N481 1.427 . S
C478 H468 0.929 . S
C478 C476 1.433 . S
C478 N481 1.384 . S
C479 H470 0.929 . S
C479 C471 1.378 . S
C479 C474 1.350 . S
C480 H467 0.929 . S
C480 C472 1.433 . S
C480 N482 1.384 . S
N481 C477 1.427 . S
N481 C478 1.384 . S
N482 C474 1.427 . S
N482 C480 1.384 . S
H483 C489 0.930 . S
H484 C493 0.930 . S
H485 C498 0.929 . S
H486 C496 0.929 . S
H487 C491 0.929 . S
H488 C497 0.929 . S
C489 H483 0.930 . S
C489 C490 1.367 . S
C489 C497 1.378 . S
C490 C489 1.367 . S
C490 C498 1.433 . S
C491 H487 0.929 . S
C491 C493 1.378 . S
C491 C495 1.350 . S
C492 C495 1.463 . S
C492 C497 1.350 . S
C492 N500 1.427 . S
C493 H484 0.930 . S
C493 C491 1.378 . S
C493 C494 1.367 . S
C494 C493 1.367 . S
C494 C496 1.433 . S
C495 C491 1.350 . S
C495 C492 1.463 . S
C495 N499 1.427 . S
C496 H486 0.929 . S
C496 C494 1.433 . S
C496 N499 1.384 . S
C497 H488 0.929 . S
C497 C489 1.378 . S
C497 C492 1.350 . S
C498 H485 0.929 . S
C498 C490 1.433 . S
C498 N500 1.384 . S
N499 C495 1.427 . S
N499 C496 1.384 . S
N500 C492 1.427 . S
N500 C498 1.384 . S
H501 C507 0.930 . S
H502 C511 0.930 . S
H503 C516 0.929 . S
H504 C514 0.929 . S
H505 C509 0.929 . S
H506 C515 0.929 . S
C507 H501 0.930 . S
C507 C508 1.367 . S
C507 C515 1.378 . S
C508 C507 1.367 . S
C508 C516 1.433 1_455 S
C509 H505 0.929 . S
C509 C511 1.378 . S
C509 C513 1.350 1_655 S
C510 C513 1.463 . S
C510 C515 1.350 . S
C510 N518 1.427 1_455 S
C511 H502 0.930 . S
C511 C509 1.378 . S
C511 C512 1.367 1_655 S
C512 C511 1.367 1_455 S
C512 C514 1.433 . S
C513 C509 1.350 1_455 S
C513 C510 1.463 . S
C513 N517 1.427 . S
C514 H504 0.929 . S
C514 C512 1.433 . S
C514 N517 1.384 . S
C515 H506 0.929 . S
C515 C507 1.378 . S
C515 C510 1.350 . S
C516 H503 0.929 . S
C516 C508 1.433 1_655 S
C516 N518 1.384 . S
N517 C513 1.427 . S
N517 C514 1.384 . S
N518 C510 1.427 1_655 S
N518 C516 1.384 . S
H519 C525 0.930 . S
H520 C529 0.930 . S
H521 C534 0.929 . S
H522 C532 0.929 . S
H523 C527 0.929 . S
H524 C533 0.929 . S
C525 H519 0.930 . S
C525 C526 1.367 1_565 S
C525 C533 1.378 . S
C526 C525 1.367 1_545 S
C526 C534 1.433 . S
C527 H523 0.929 . S
C527 C529 1.378 . S
C527 C531 1.350 . S
C528 C531 1.463 . S
C528 C533 1.350 1_545 S
C528 N536 1.427 . S
C529 H520 0.930 . S
C529 C527 1.378 . S
C529 C530 1.367 . S
C530 C529 1.367 . S
C530 C532 1.433 1_545 S
C531 C527 1.350 . S
C531 C528 1.463 . S
C531 N535 1.427 1_545 S
C532 H522 0.929 . S
C532 C530 1.433 1_565 S
C532 N535 1.384 . S
C533 H524 0.929 . S
C533 C525 1.378 . S
C533 C528 1.350 1_565 S
C534 H521 0.929 . S
C534 C526 1.433 . S
C534 N536 1.384 . S
N535 C531 1.427 1_565 S
N535 C532 1.384 . S
N536 C528 1.427 . S
N536 C534 1.384 . S
H537 C543 0.930 . S
H538 C547 0.930 . S
H539 C552 0.929 . S
H540 C550 0.929 . S
H541 C545 0.929 . S
H542 C551 0.929 . S
C543 H537 0.930 . S
C543 C544 1.367 . S
C543 C551 1.378 . S
C544 C543 1.367 . S
C544 C552 1.433 . S
C545 H541 0.929 . S
C545 C547 1.378 . S
C545 C549 1.350 . S
C546 C549 1.463 . S
C546 C551 1.350 . S
C546 N554 1.427 . S
C547 H538 0.930 . S
C547 C545 1.378 . S
C547 C548 1.367 . S
C548 C547 1.367 . S
C548 C550 1.433 . S
C549 C545 1.350 . S
C549 C546 1.463 . S
C549 N553 1.427 . S
C550 H540 0.929 . S
C550 C548 1.433 . S
C550 N553 1.384 . S
C551 H542 0.929 . S
C551 C543 1.378 . S
C551 C546 1.350 . S
C552 H539 0.929 . S
C552 C544 1.433 . S
C552 N554 1.384 . S
N553 C549 1.427 . S
N553 C550 1.384 . S
N554 C546 1.427 . S
N554 C552 1.384 . S
H555 C561 0.930 . S
H556 C565 0.930 . S
H557 C570 0.929 . S
H558 C568 0.929 . S
H559 C563 0.929 . S
H560 C569 0.929 . S
C561 H555 0.930 . S
C561 C562 1.367 . S
C561 C569 1.378 . S
C562 C561 1.367 . S
C562 C570 1.433 1_545 S
C563 H559 0.929 . S
C563 C565 1.378 . S
C563 C567 1.350 1_565 S
C564 C567 1.463 . S
C564 C569 1.350 . S
C564 N572 1.427 1_545 S
C565 H556 0.930 . S
C565 C563 1.378 . S
C565 C566 1.361 1_565 S
C566 C565 1.361 1_545 S
C566 C568 1.439 . S
C567 C563 1.350 1_545 S
C567 C564 1.463 . S
C567 N571 1.427 . S
C568 H558 0.929 . S
C568 C566 1.439 . S
C568 N571 1.384 . S
C569 H560 0.929 . S
C569 C561 1.378 . S
C569 C564 1.350 . S
C570 H557 0.929 . S
C570 C562 1.433 1_565 S
C570 N572 1.384 . S
N571 C567 1.427 . S
N571 C568 1.384 . S
N572 C564 1.427 1_565 S
N572 C570 1.384 . S
H573 C579 0.930 . S
H574 C583 0.930 . S
H575 C588 0.929 . S
H576 C586 0.929 . S
H577 C581 0.929 . S
H578 C587 0.929 . S
C579 H573 0.930 . S
C579 C580 1.367 . S
C579 C587 1.378 . S
C580 C579 1.367 . S
C580 C588 1.433 . S
C581 H577 0.929 . S
C581 C583 1.378 . S
C581 C585 1.350 . S
C582 C585 1.463 . S
C582 C587 1.350 . S
C582 N590 1.427 . S
C583 H574 0.930 . S
C583 C581 1.378 . S
C583 C584 1.367 . S
C584 C583 1.367 . S
C584 C586 1.433 . S
C585 C581 1.350 . S
C585 C582 1.463 . S
C585 N589 1.427 . S
C586 H576 0.929 . S
C586 C584 1.433 . S
C586 N589 1.384 . S
C587 H578 0.929 . S
C587 C579 1.378 . S
C587 C582 1.350 . S
C588 H575 0.929 . S
C588 C580 1.433 . S
C588 N590 1.384 . S
N589 C585 1.427 . S
N589 C586 1.384 . S
N590 C582 1.427 . S
N590 C588 1.384 . S
H591 C597 0.930 . S
H592 C601 0.930 . S
H593 C606 0.929 . S
H594 C604 0.929 . S
H595 C599 0.929 . S
H596 C605 0.929 . S
C597 H591 0.930 . S
C597 C598 1.367 . S
C597 C605 1.378 . S
C598 C597 1.367 . S
C598 C606 1.433 1_455 S
C599 H595 0.929 . S
C599 C601 1.378 . S
C599 C603 1.350 1_655 S
C600 C603 1.463 . S
C600 C605 1.350 . S
C600 N608 1.427 1_455 S
C601 H592 0.930 . S
C601 C599 1.378 . S
C601 C602 1.367 1_655 S
C602 C601 1.367 1_455 S
C602 C604 1.433 . S
C603 C599 1.350 1_455 S
C603 C600 1.463 . S
C603 N607 1.427 . S
C604 H594 0.929 . S
C604 C602 1.433 . S
C604 N607 1.384 . S
C605 H596 0.929 . S
C605 C597 1.378 . S
C605 C600 1.350 . S
C606 H593 0.929 . S
C606 C598 1.433 1_655 S
C606 N608 1.384 . S
N607 C603 1.427 . S
N607 C604 1.384 . S
N608 C600 1.427 1_655 S
N608 C606 1.384 . S
C292 C20 1.180 . S
C296 C274 1.189 . S
C310 C41 1.237 . S
C314 C202 1.209 . S
C328 C64 1.265 . S
C332 C238 1.236 . S
C346 C19 1.228 . S
C350 C250 1.270 . S
C368 C178 1.234 . S
C364 C44 1.232 . S
C386 C214 1.217 . S
C382 C67 1.214 . S
C400 C43 1.162 . S
C404 C130 1.185 . S
C418 C66 1.163 . S
C422 C142 1.200 . S
C436 C21 1.224 . S
C440 C70 1.229 . S
C458 C106 1.249 . S
C454 C42 1.203 . S
C476 C166 1.243 . S
C472 C65 1.225 . S
C490 C18 1.239 . S
C494 C94 1.210 . S
C512 C172 1.453 1_554 S
C508 C17 1.462 . S
C526 C39 1.457 . S
C530 C100 1.455 . S
C544 C62 1.475 . S
C548 C136 1.475 . S
C566 C244 1.439 . S
C562 C40 1.443 . S
C584 C280 1.461 1_556 S
C580 C63 1.461 . S
C598 C16 1.457 . S
C602 C208 1.455 . S
