# Generated by pormake.
# Topology csq, (4,8)-cn, num edge types: 1
# Building blocks:
#     Node 0, Type 0, BuildingBlock: KUFVIS_clean_linker_0, # of connection points: 4
#     Node 1, Type 0, BuildingBlock: KUFVIS_clean_linker_0, # of connection points: 4
#     Node 2, Type 0, BuildingBlock: KUFVIS_clean_linker_0, # of connection points: 4
#     Node 3, Type 0, BuildingBlock: KUFVIS_clean_linker_0, # of connection points: 4
#     Node 4, Type 0, BuildingBlock: KUFVIS_clean_linker_0, # of connection points: 4
#     Node 5, Type 0, BuildingBlock: KUFVIS_clean_linker_0, # of connection points: 4
#     Node 6, Type 1, BuildingBlock: TAGTUT_clean_sbu_3, # of connection points: 8
#     Node 7, Type 1, BuildingBlock: TAGTUT_clean_sbu_3, # of connection points: 8
#     Node 8, Type 1, BuildingBlock: TAGTUT_clean_sbu_3, # of connection points: 8
#     Edge 9, Type (0, 1), BuildingBlock: XIVTED_clean_linker_0, # of connection points: 2
#     Edge 10, Type (0, 1), BuildingBlock: XIVTED_clean_linker_0, # of connection points: 2
#     Edge 11, Type (0, 1), BuildingBlock: XIVTED_clean_linker_0, # of connection points: 2
#     Edge 12, Type (0, 1), BuildingBlock: XIVTED_clean_linker_0, # of connection points: 2
#     Edge 13, Type (0, 1), BuildingBlock: XIVTED_clean_linker_0, # of connection points: 2
#     Edge 14, Type (0, 1), BuildingBlock: XIVTED_clean_linker_0, # of connection points: 2
#     Edge 15, Type (0, 1), BuildingBlock: XIVTED_clean_linker_0, # of connection points: 2
#     Edge 16, Type (0, 1), BuildingBlock: XIVTED_clean_linker_0, # of connection points: 2
#     Edge 17, Type (0, 1), BuildingBlock: XIVTED_clean_linker_0, # of connection points: 2
#     Edge 18, Type (0, 1), BuildingBlock: XIVTED_clean_linker_0, # of connection points: 2
#     Edge 19, Type (0, 1), BuildingBlock: XIVTED_clean_linker_0, # of connection points: 2
#     Edge 20, Type (0, 1), BuildingBlock: XIVTED_clean_linker_0, # of connection points: 2
#     Edge 21, Type (0, 1), BuildingBlock: XIVTED_clean_linker_0, # of connection points: 2
#     Edge 22, Type (0, 1), BuildingBlock: XIVTED_clean_linker_0, # of connection points: 2
#     Edge 23, Type (0, 1), BuildingBlock: XIVTED_clean_linker_0, # of connection points: 2
#     Edge 24, Type (0, 1), BuildingBlock: XIVTED_clean_linker_0, # of connection points: 2
#     Edge 25, Type (0, 1), BuildingBlock: XIVTED_clean_linker_0, # of connection points: 2
#     Edge 26, Type (0, 1), BuildingBlock: XIVTED_clean_linker_0, # of connection points: 2
#     Edge 27, Type (0, 1), BuildingBlock: XIVTED_clean_linker_0, # of connection points: 2
#     Edge 28, Type (0, 1), BuildingBlock: XIVTED_clean_linker_0, # of connection points: 2
#     Edge 29, Type (0, 1), BuildingBlock: XIVTED_clean_linker_0, # of connection points: 2
#     Edge 30, Type (0, 1), BuildingBlock: XIVTED_clean_linker_0, # of connection points: 2
#     Edge 31, Type (0, 1), BuildingBlock: XIVTED_clean_linker_0, # of connection points: 2
#     Edge 32, Type (0, 1), BuildingBlock: XIVTED_clean_linker_0, # of connection points: 2
# Relax obj value: 0.036
# Max RMSD: 0.112
# Mean RMSD: 0.086
data_MOF--net-csq--node1-TAGTUT_clean_sbu_3--node2-KUFVIS_clean_linker_0--edge1-XIVTED_clean_linker_0
_symmetry_space_group_name_H-M    P1
_symmetry_Int_Tables_number       1
_symmetry_cell_setting            triclinic
loop_
_symmetry_equiv_pos_as_xyz
'x, y, z'
_cell_length_a     54.726609
_cell_length_b     53.878084
_cell_length_c     18.157183
_cell_angle_alpha  92.448798
_cell_angle_beta   92.551646
_cell_angle_gamma 119.85741
loop_
_atom_site_label
_atom_site_type_symbol
_atom_site_fract_x
_atom_site_fract_y
_atom_site_fract_z
_atom_type_partial_charge
H0 H 0.34942 0.53256 0.1704 0.0
H1 H 0.27296 0.51138 0.27098 0.0
H2 H 0.27635 0.51634 0.03379 0.0
H3 H 0.22902 0.48212 0.04296 0.0
H4 H 0.16253 0.48943 0.13961 0.0
H5 H 0.2452 0.53222 0.25107 0.0
C6 C 0.32794 0.52873 0.16543 0.0
C7 C 0.31483 0.52548 0.09525 0.0
C8 C 0.31296 0.52349 0.22843 0.0
C9 C 0.28463 0.51644 0.22191 0.0
C10 C 0.2712 0.51491 0.15221 0.0
C11 C 0.2864 0.51869 0.08838 0.0
C12 C 0.24117 0.50828 0.14712 0.0
C13 C 0.22214 0.49091 0.08682 0.0
C14 C 0.19369 0.48379 0.08471 0.0
C15 C 0.18447 0.49473 0.14153 0.0
C16 C 0.20281 0.51197 0.20146 0.0
C17 C 0.23111 0.51867 0.20443 0.0
H18 H 0.67619 0.19146 0.1237 0.0
H19 H 0.75442 0.2561 0.23334 0.0
H20 H 0.74247 0.2456 -0.00669 0.0
H21 H 0.77291 0.29062 -0.00444 0.0
H22 H 0.85693 0.34652 0.08757 0.0
H23 H 0.79876 0.28143 0.21804 0.0
C24 C 0.69702 0.21009 0.12085 0.0
C25 C 0.70701 0.21845 0.05196 0.0
C26 C 0.71446 0.22282 0.18558 0.0
C27 C 0.74181 0.24622 0.18193 0.0
C28 C 0.75233 0.25617 0.1126 0.0
C29 C 0.73477 0.24087 0.04765 0.0
C30 C 0.78149 0.2816 0.10714 0.0
C31 C 0.78843 0.29628 0.04149 0.0
C32 C 0.81572 0.31892 0.03421 0.0
C33 C 0.83611 0.3283 0.09331 0.0
C34 C 0.82983 0.31528 0.16017 0.0
C35 C 0.80269 0.29174 0.16675 0.0
H36 H 0.55201 0.86154 0.09907 0.0
H37 H 0.54368 0.78335 0.16892 0.0
H38 H 0.53573 0.79467 0.93523 0.0
H39 H 0.55057 0.76466 0.91899 0.0
H40 H 0.52556 0.67984 0.97443 0.0
H41 H 0.52348 0.73838 0.13762 0.0
C42 C 0.54906 0.84042 0.08468 0.0
C43 C 0.5454 0.83052 0.0103 0.0
C44 C 0.54761 0.82305 0.14114 0.0
C45 C 0.54342 0.79558 0.12362 0.0
C46 C 0.53959 0.78468 0.04909 0.0
C47 C 0.53976 0.80237 -0.00714 0.0
C48 C 0.5359 0.75538 0.0299 0.0
C49 C 0.54198 0.74877 0.95914 0.0
C50 C 0.5378 0.72153 0.93969 0.0
C51 C 0.52875 0.70088 0.9912 0.0
C52 C 0.52532 0.7073 0.0642 0.0
C53 C 0.52761 0.73416 0.08233 0.0
H54 H 0.84708 0.50787 0.00905 0.0
H55 H 0.79019 0.51553 0.14895 0.0
H56 H 0.77976 0.51662 0.9105 0.0
H57 H 0.73451 0.49701 0.9301 0.0
H58 H 0.68425 0.51858 0.063 0.0
H59 H 0.76545 0.53702 0.153 0.0
C60 C 0.82795 0.50894 0.01506 0.0
C61 C 0.81338 0.51036 0.95219 0.0
C62 C 0.82023 0.5119 0.08547 0.0
C63 C 0.79617 0.51432 0.09355 0.0
C64 C 0.7803 0.51512 0.0309 0.0
C65 C 0.78994 0.51413 0.95979 0.0
C66 C 0.75397 0.51686 0.03997 0.0
C67 C 0.73242 0.50631 0.98174 0.0
C68 C 0.70742 0.50698 0.99003 0.0
C69 C 0.70354 0.51787 0.05673 0.0
C70 C 0.7242 0.52834 0.11535 0.0
C71 C 0.74951 0.52814 0.10716 0.0
H72 H 0.31508 0.88496 0.06236 0.0
H73 H 0.27435 0.81611 0.20197 0.0
H74 H 0.23333 0.81497 0.99012 0.0
H75 H 0.21003 0.76885 -0.0014 0.0
H76 H 0.15829 0.71122 0.15392 0.0
H77 H 0.23146 0.78989 0.23473 0.0
C78 C 0.29668 0.86479 0.07314 0.0
C79 C 0.27429 0.85103 0.0191 0.0
C80 C 0.29648 0.85254 0.13937 0.0
C81 C 0.27353 0.82563 0.1514 0.0
C82 C 0.24985 0.81154 0.09895 0.0
C83 C 0.25074 0.82467 0.03211 0.0
C84 C 0.22445 0.78354 0.11423 0.0
C85 C 0.20587 0.76426 0.05551 0.0
C86 C 0.18144 0.73875 0.06955 0.0
C87 C 0.17642 0.73148 0.14258 0.0
C88 C 0.19482 0.74957 0.20146 0.0
C89 C 0.21834 0.77579 0.1877 0.0
H90 H 0.45025 0.31135 0.15159 0.0
H91 H 0.46317 0.25444 0.28326 0.0
H92 H 0.49753 0.27465 0.06857 0.0
H93 H 0.49883 0.23624 0.06882 0.0
H94 H 0.52084 0.18652 0.20389 0.0
H95 H 0.48938 0.23667 0.3053 0.0
C96 C 0.45809 0.29657 0.15792 0.0
C97 C 0.47253 0.29269 0.10121 0.0
C98 C 0.45589 0.28376 0.2247 0.0
C99 C 0.46653 0.26502 0.23252 0.0
C100 C 0.4814 0.26052 0.17653 0.0
C101 C 0.48503 0.27565 0.11167 0.0
C102 C 0.493 0.24037 0.18572 0.0
C103 C 0.50124 0.23036 0.12353 0.0
C104 C 0.51211 0.21178 0.13011 0.0
C105 C 0.51397 0.20216 0.19911 0.0
C106 C 0.50522 0.21063 0.26148 0.0
C107 C 0.49516 0.23 0.25533 0.0
C108 C 0.06067 0.50436 0.52851 0.0
C109 C 0.03827 0.45553 0.7763 0.0
C110 C 0.95617 0.45056 0.73522 0.0
Mg111 Mg 0.03444 0.53939 0.44784 0.0
Mg112 Mg 0.01498 0.57809 0.54883 0.0
O113 O 0.01024 0.54163 0.52466 0.0
Mg114 Mg 0.01732 0.52117 0.60332 0.0
O115 O 0.02525 0.49888 0.67623 0.0
Mg116 Mg 0.00683 0.46028 0.61905 0.0
Mg117 Mg 0.01648 0.4993 0.77426 0.0
C118 C 0.97394 0.54181 0.66917 0.0
O119 O 0.04655 0.56201 0.67892 0.0
O120 O 0.01013 0.55445 0.3706 0.0
O121 O 0.03766 0.54591 0.79322 0.0
O122 O 0.07009 0.58653 0.47555 0.0
O123 O 0.99719 0.58004 0.44407 0.0
O124 O 0.05899 0.61046 0.55783 0.0
O125 O 0.98814 0.47873 0.53588 0.0
O126 O 0.99946 0.49233 0.42233 0.0
C127 C 0.98517 0.47297 0.46593 0.0
C128 C 0.9971 0.56855 0.38078 0.0
O129 O 0.98032 0.52181 0.66132 0.0
O130 O 0.02894 0.44725 0.70842 0.0
O131 O 0.98713 0.56566 0.63858 0.0
O132 O 0.966 0.44225 0.6829 0.0
O133 O 0.03556 0.4749 0.81248 0.0
O134 O 0.97156 0.47407 0.77431 0.0
O135 O 0.05324 0.52328 0.53837 0.0
O136 O 0.04712 0.47984 0.55538 0.0
C137 C 0.07663 0.60923 0.51637 0.0
C138 C 0.04914 0.56632 0.74979 0.0
C139 C 0.50791 0.05472 0.50124 0.0
C140 C 0.59317 0.04829 0.42247 0.0
C141 C 0.54596 0.95884 0.49042 0.0
Mg142 Mg 0.46427 0.022 0.6262 0.0
Mg143 Mg 0.4845 1.0005 0.77269 0.0
O144 O 0.48052 0.99895 0.6695 0.0
Mg145 Mg 0.51398 0.01129 0.61058 0.0
O146 O 0.54553 0.02372 0.54541 0.0
Mg147 Mg 0.52384 0.00594 0.4481 0.0
Mg148 Mg 0.57642 0.01865 0.56891 0.0
C149 C 0.51917 0.96935 0.73092 0.0
O150 O 0.54763 0.04319 0.70123 0.0
O151 O 0.42447 0.99419 0.69079 0.0
O152 O 0.58584 0.03896 0.67993 0.0
O153 O 0.48381 0.05683 0.72118 0.0
O154 O 0.43964 0.97757 0.7839 0.0
O155 O 0.50347 0.04486 0.81273 0.0
O156 O 0.48394 0.98121 0.51343 0.0
O157 O 0.44758 0.98845 0.52971 0.0
C158 C 0.45912 0.97654 0.49401 0.0
C159 C 0.41986 0.97855 0.74586 0.0
O160 O 0.52086 0.97621 0.66343 0.0
O161 O 0.56691 0.03506 0.39859 0.0
O162 O 0.50866 0.97843 0.77996 0.0
O163 O 0.53198 0.96769 0.45218 0.0
O164 O 0.60162 0.04451 0.48568 0.0
O165 O 0.56382 0.97447 0.54365 0.0
O166 O 0.50538 0.04588 0.56632 0.0
O167 O 0.51555 0.04373 0.44963 0.0
C168 C 0.49839 0.06298 0.78287 0.0
C169 C 0.57327 0.04932 0.71795 0.0
C170 C 0.53041 0.56605 0.6916 0.0
C171 C 0.4462 0.48613 0.82607 0.0
C172 C 0.47947 0.43153 0.7506 0.0
Mg173 Mg 0.55732 0.55932 0.54342 0.0
Mg174 Mg 0.51971 0.50701 0.4148 0.0
O175 O 0.53252 0.51717 0.51453 0.0
Mg176 Mg 0.50617 0.50542 0.59546 0.0
O177 O 0.48203 0.49588 0.67986 0.0
Mg178 Mg 0.51033 0.50484 0.76469 0.0
Mg179 Mg 0.4496 0.45924 0.67422 0.0
C180 C 0.48176 0.44718 0.48584 0.0
O181 O 0.46852 0.50186 0.52637 0.0
O182 O 0.5877 0.55875 0.45657 0.0
O183 O 0.43163 0.46307 0.56869 0.0
O184 O 0.53488 0.57322 0.45685 0.0
O185 O 0.56112 0.51928 0.37941 0.0
O186 O 0.50654 0.53632 0.37648 0.0
O187 O 0.54096 0.50736 0.67448 0.0
O188 O 0.57775 0.5445 0.62987 0.0
C189 C 0.56762 0.52455 0.67449 0.0
C190 C 0.58509 0.5409 0.40307 0.0
O191 O 0.48873 0.45842 0.55273 0.0
O192 O 0.47345 0.50092 0.83645 0.0
O193 O 0.48916 0.46203 0.42889 0.0
O194 O 0.49674 0.45705 0.77791 0.0
O195 O 0.43346 0.46853 0.7694 0.0
O196 O 0.46007 0.42667 0.70081 0.0
O197 O 0.52449 0.55299 0.62747 0.0
O198 O 0.5256 0.55242 0.75016 0.0
C199 C 0.51678 0.56244 0.40097 0.0
C200 C 0.44199 0.48329 0.52435 0.0
H201 H 0.20085 0.49871 0.34501 0.0
H202 H 0.08719 0.54642 0.43222 0.0
H203 H 0.17618 0.54325 0.19397 0.0
H204 H 0.09163 0.47739 0.53231 0.0
H205 H 0.12787 0.55523 0.36263 0.0
H206 H 0.16992 0.50181 0.43438 0.0
C207 C 0.18964 0.50998 0.33183 0.0
C208 C 0.19094 0.52071 0.26231 0.0
C209 C 0.11999 0.5383 0.40027 0.0
C210 C 0.15524 0.52385 0.363 0.0
C211 C 0.09678 0.53324 0.4399 0.0
C212 C 0.08571 0.51085 0.48734 0.0
C213 C 0.13247 0.52117 0.40915 0.0
C214 C 0.09914 0.49457 0.49546 0.0
C215 C 0.17175 0.51144 0.38228 0.0
C216 C 0.17565 0.53472 0.24718 0.0
N217 N 0.12174 0.50002 0.45674 0.0
N218 N 0.1582 0.53566 0.29682 0.0
H219 H 0.73679 0.1953 0.26054 0.0
H220 H 0.58133 0.07901 0.32618 0.0
H221 H 0.66787 0.2125 0.25603 0.0
H222 H 0.65118 0.07588 0.43661 0.0
H223 H 0.61435 0.12642 0.28808 0.0
H224 H 0.70821 0.1519 0.32464 0.0
C225 C 0.71621 0.19076 0.2766 0.0
C226 C 0.70453 0.20733 0.25281 0.0
C227 C 0.62246 0.11529 0.32041 0.0
C228 C 0.67141 0.15725 0.32188 0.0
C229 C 0.60368 0.08794 0.34093 0.0
C230 C 0.61348 0.07336 0.38456 0.0
C231 C 0.65135 0.12806 0.34258 0.0
C232 C 0.64273 0.08637 0.40293 0.0
C233 C 0.69972 0.16571 0.31178 0.0
C234 C 0.67755 0.20021 0.27353 0.0
N235 N 0.6607 0.11302 0.38174 0.0
N236 N 0.66156 0.17523 0.30496 0.0
H237 H 0.54893 0.67296 0.07008 0.0
H238 H 0.52164 0.614 0.44912 0.0
H239 H 0.49445 0.69424 0.1898 0.0
H240 H 0.4984 0.55541 0.25524 0.0
H241 H 0.51944 0.6493 0.37121 0.0
H242 H 0.54034 0.63601 0.15344 0.0
C243 C 0.53478 0.66974 0.11312 0.0
C244 C 0.52154 0.68631 0.12055 0.0
C245 C 0.51421 0.62843 0.34649 0.0
C246 C 0.51303 0.64459 0.21938 0.0
C247 C 0.51557 0.60834 0.39057 0.0
C248 C 0.51044 0.58177 0.35849 0.0
C249 C 0.50848 0.6221 0.26987 0.0
C250 C 0.50257 0.57556 0.28241 0.0
C251 C 0.53015 0.64869 0.1611 0.0
C252 C 0.50493 0.68195 0.18111 0.0
N253 N 0.50254 0.59584 0.24046 0.0
N254 N 0.50122 0.66152 0.22865 0.0
H255 H 0.84631 0.55877 0.18314 0.0
H256 H 0.9729 0.5283 0.26385 0.0
H257 H 0.84221 0.47836 0.12406 0.0
H258 H 0.97063 0.60012 0.37143 0.0
H259 H 0.92706 0.51308 0.19973 0.0
H260 H 0.89208 0.57553 0.25126 0.0
C261 C 0.85455 0.54424 0.18716 0.0
C262 C 0.84068 0.51723 0.14803 0.0
C263 C 0.93674 0.53234 0.23684 0.0
C264 C 0.8933 0.53662 0.2221 0.0
C265 C 0.96321 0.54139 0.27235 0.0
C266 C 0.97542 0.56528 0.32396 0.0
C267 C 0.92256 0.54742 0.25269 0.0
C268 C 0.96176 0.58133 0.33279 0.0
C269 C 0.88089 0.554 0.22465 0.0
C270 C 0.8524 0.49937 0.15359 0.0
N271 N 0.93584 0.5719 0.29825 0.0
N272 N 0.87833 0.50959 0.18874 0.0
H273 H 0.31842 0.9079 0.18972 0.0
H274 H 0.44141 0.91956 0.4639 0.0
H275 H 0.32949 0.83475 0.21404 0.0
H276 H 0.43833 0.99142 0.37851 0.0
H277 H 0.40181 0.887 0.37406 0.0
H278 H 0.3619 0.93763 0.2662 0.0
C279 C 0.33005 0.89809 0.21175 0.0
C280 C 0.32057 0.86895 0.19506 0.0
C281 C 0.41034 0.90995 0.37389 0.0
C282 C 0.37074 0.90298 0.28272 0.0
C283 C 0.43307 0.92847 0.4243 0.0
C284 C 0.44291 0.95804 0.428 0.0
C285 C 0.39757 0.92138 0.32815 0.0
C286 C 0.43121 0.96868 0.37707 0.0
C287 C 0.35502 0.91511 0.255 0.0
C288 C 0.33617 0.85718 0.22595 0.0
N289 N 0.40896 0.95035 0.3299 0.0
N290 N 0.36068 0.87432 0.26841 0.0
H291 H 0.48063 0.29926 0.36572 0.0
H292 H 0.4398 0.41575 0.3792 0.0
H293 H 0.4105 0.29235 0.22988 0.0
H294 H 0.48794 0.40749 0.56125 0.0
H295 H 0.4212 0.36541 0.33932 0.0
H296 H 0.47587 0.33145 0.45468 0.0
C297 C 0.46349 0.30361 0.35591 0.0
C298 C 0.44653 0.2939 0.28904 0.0
C299 C 0.4353 0.37427 0.38905 0.0
C300 C 0.44157 0.33146 0.38952 0.0
C301 C 0.446 0.40306 0.41153 0.0
C302 C 0.46588 0.41577 0.47236 0.0
C303 C 0.44534 0.35838 0.42619 0.0
C304 C 0.4729 0.39843 0.51332 0.0
C305 C 0.4609 0.32221 0.40665 0.0
C306 C 0.42466 0.3002 0.27957 0.0
N307 N 0.46328 0.37073 0.4882 0.0
N308 N 0.42332 0.31927 0.32814 0.0
H309 H 0.58472 0.88704 0.00515 0.0
H310 H 0.50764 0.91737 0.66474 0.0
H311 H 0.51008 0.81875 0.88389 0.0
H312 H 0.55269 0.97701 0.85353 0.0
H313 H 0.51796 0.88221 0.72053 0.0
H314 H 0.58303 0.92119 0.92409 0.0
C315 C 0.5681 0.87916 0.9609 0.0
C316 C 0.54712 0.85005 0.95244 0.0
C317 C 0.52593 0.9032 0.74885 0.0
C318 C 0.54529 0.88917 0.8587 0.0
C319 C 0.52027 0.92326 0.71692 0.0
C320 C 0.52928 0.94998 0.75499 0.0
C321 C 0.54124 0.91036 0.81816 0.0
C322 C 0.54528 0.95657 0.82271 0.0
C323 C 0.56721 0.89868 0.91458 0.0
C324 C 0.52658 0.841 0.89271 0.0
N325 N 0.55072 0.93693 0.8521 0.0
N326 N 0.52594 0.86058 0.84854 0.0
H327 H 0.65061 0.4702 0.98829 0.0
H328 H 0.62471 0.55128 0.66834 0.0
H329 H 0.71547 0.5271 0.8534 0.0
H330 H 0.55623 0.48384 0.77483 0.0
H331 H 0.65745 0.53972 0.73048 0.0
H332 H 0.61477 0.46993 0.90226 0.0
C333 C 0.65715 0.4819 0.93913 0.0
C334 C 0.68594 0.49901 0.92807 0.0
C335 C 0.63527 0.5273 0.74017 0.0
C336 C 0.64537 0.49946 0.83101 0.0
C337 C 0.6165 0.5341 0.70524 0.0
C338 C 0.58761 0.51867 0.71686 0.0
C339 C 0.62529 0.50511 0.78805 0.0
C340 C 0.57834 0.49645 0.76474 0.0
C341 C 0.63676 0.48192 0.89043 0.0
C342 C 0.69347 0.51371 0.86378 0.0
N343 N 0.5972 0.49045 0.79909 0.0
N344 N 0.67331 0.51408 0.81834 0.0
H345 H 0.12409 0.71278 0.06373 0.0
H346 H 0.09595 0.61141 0.69818 0.0
H347 H 0.192 0.71983 0.93768 0.0
H348 H 0.04215 0.58809 0.87953 0.0
H349 H 0.12768 0.65828 0.76544 0.0
H350 H 0.09017 0.67451 0.97469 0.0
C351 C 0.13184 0.70642 0.01685 0.0
C352 C 0.16093 0.71903 0.00896 0.0
C353 C 0.10873 0.64295 0.78979 0.0
C354 C 0.12217 0.67539 0.90653 0.0
C355 C 0.0906 0.61634 0.75149 0.0
C356 C 0.06664 0.5958 0.78399 0.0
C357 C 0.10237 0.64907 0.85999 0.0
C358 C 0.06063 0.60318 0.85305 0.0
C359 C 0.11247 0.68464 0.96603 0.0
C360 C 0.16975 0.71053 0.94602 0.0
N361 N 0.0784 0.62916 0.88877 0.0
N362 N 0.15042 0.6889 0.89749 0.0
H363 H 0.5565 0.20216 0.11674 0.0
H364 H 0.48644 0.10418 0.74197 0.0
H365 H 0.48272 0.19317 -0.00589 0.0
H366 H 0.5332 0.08696 0.91044 0.0
H367 H 0.49772 0.14836 0.81338 0.0
H368 H 0.56041 0.17168 0.01962 0.0
C369 C 0.54144 0.19423 0.06878 0.0
C370 C 0.51881 0.19963 0.0644 0.0
C371 C 0.50581 0.13508 0.83409 0.0
C372 C 0.52353 0.16533 0.95316 0.0
C373 C 0.49937 0.10981 0.79356 0.0
C374 C 0.50829 0.09143 0.82127 0.0
C375 C 0.52143 0.14215 0.90251 0.0
C376 C 0.52538 0.10017 0.88782 0.0
C377 C 0.54376 0.17694 0.01352 0.0
C378 C 0.50043 0.18954 9e-05 0.0
N379 N 0.53116 0.12483 0.92672 0.0
N380 N 0.50297 0.17251 0.9474 0.0
H381 H 0.36596 0.56723 0.05605 0.0
H382 H 0.39199 0.44881 0.85317 0.0
H383 H 0.30057 0.47986 -0.00212 0.0
H384 H 0.45815 0.53668 0.90246 0.0
H385 H 0.3583 0.46049 0.90455 0.0
H386 H 0.39921 0.55819 0.99034 0.0
C387 C 0.35834 0.54649 0.02656 0.0
C388 C 0.33046 0.52427 0.03204 0.0
C389 C 0.38019 0.47725 0.90478 0.0
C390 C 0.36862 0.51336 0.95979 0.0
C391 C 0.39955 0.47051 0.87623 0.0
C392 C 0.42799 0.49179 0.87371 0.0
C393 C 0.38916 0.50556 0.93107 0.0
C394 C 0.43653 0.51954 0.90414 0.0
C395 C 0.37744 0.54117 0.99035 0.0
C396 C 0.32176 0.49765 -0.00576 0.0
N397 N 0.41713 0.52569 0.93113 0.0
N398 N 0.3409 0.49278 0.96083 0.0
H399 H 0.81056 0.36408 -0.00787 0.0
H400 H 0.92513 0.46355 0.82701 0.0
H401 H 0.84136 0.30778 0.92391 0.0
H402 H 0.92141 0.3933 0.69367 0.0
H403 H 0.88193 0.42997 0.88008 0.0
H404 H 0.83682 0.39625 0.89747 0.0
C405 C 0.82227 0.3582 0.95558 0.0
C406 C 0.82398 0.33346 0.96529 0.0
C407 C 0.88985 0.42184 0.83744 0.0
C408 C 0.85527 0.37064 0.86043 0.0
C409 C 0.91482 0.4411 0.80744 0.0
C410 C 0.92718 0.43122 0.75644 0.0
C411 C 0.87727 0.39232 0.81711 0.0
C412 C 0.91278 0.40187 0.73322 0.0
C413 C 0.83766 0.37675 0.90253 0.0
C414 C 0.83957 0.32672 0.91755 0.0
N415 N 0.88895 0.38337 0.76506 0.0
N416 N 0.85497 0.34544 0.86773 0.0
H417 H 0.81571 0.4669 0.87764 0.0
H418 H 0.95884 0.581 0.71474 0.0
H419 H 0.84325 0.55686 0.87444 0.0
H420 H 0.9303 0.49039 0.70768 0.0
H421 H 0.91469 0.57168 0.76428 0.0
H422 H 0.85377 0.4736 0.80033 0.0
C423 C 0.82895 0.4878 0.8574 0.0
C424 C 0.82619 0.51132 0.88164 0.0
C425 C 0.91802 0.55379 0.75208 0.0
C426 C 0.87067 0.51952 0.79652 0.0
C427 C 0.9434 0.55911 0.72424 0.0
C428 C 0.94854 0.53646 0.70763 0.0
C429 C 0.8974 0.52557 0.76374 0.0
C430 C 0.92754 0.50857 0.72091 0.0
C431 C 0.85104 0.49175 0.81456 0.0
C432 C 0.8444 0.53812 0.85591 0.0
N433 N 0.90292 0.50391 0.74824 0.0
N434 N 0.8662 0.54161 0.81591 0.0
H435 H 0.28158 0.82969 0.88946 0.0
H436 H 0.37622 0.98898 0.76881 0.0
H437 H 0.2792 0.90241 0.98864 0.0
H438 H 0.3972 0.92177 0.75717 0.0
H439 H 0.32935 0.95429 0.80883 0.0
H440 H 0.31052 0.8598 0.79516 0.0
C441 C 0.28586 0.8516 0.88893 0.0
C442 C 0.27834 0.86375 0.94705 0.0
C443 C 0.34409 0.94713 0.79589 0.0
C444 C 0.31211 0.89846 0.8415 0.0
C445 C 0.37071 0.96684 0.77337 0.0
C446 C 0.39057 0.95817 0.7613 0.0
C447 C 0.33731 0.91861 0.80428 0.0
C448 C 0.38256 0.92932 0.76744 0.0
C449 C 0.30276 0.86891 0.83589 0.0
C450 C 0.28478 0.89239 0.94463 0.0
N451 N 0.35663 0.91062 0.78878 0.0
N452 N 0.30196 0.90906 0.89381 0.0
H453 H 0.52108 0.3324 0.04292 0.0
H454 H 0.43781 0.37479 0.74474 0.0
H455 H 0.43036 0.28884 0.00733 0.0
H456 H 0.52326 0.43299 0.83406 0.0
H457 H 0.4374 0.33732 0.81756 0.0
H458 H 0.52456 0.36353 0.94374 0.0
C459 C 0.50196 0.32896 0.01295 0.0
C460 C 0.4754 0.30809 0.03321 0.0
C461 C 0.45636 0.3582 0.82039 0.0
C462 C 0.47914 0.34356 0.92036 0.0
C463 C 0.45668 0.37956 0.77845 0.0
C464 C 0.48049 0.40724 0.78382 0.0
C465 C 0.48012 0.36439 0.86746 0.0
C466 C 0.5043 0.4121 0.82876 0.0
C467 C 0.50392 0.34683 0.95687 0.0
C468 C 0.45123 0.30475 -0.00663 0.0
N469 N 0.50345 0.39099 0.86912 0.0
N470 N 0.45365 0.32234 0.93916 0.0
H471 H 0.19592 0.49226 0.93709 0.0
H472 H 0.03962 0.44154 0.91817 0.0
H473 H 0.14331 0.43527 0.09448 0.0
H474 H 0.07908 0.44884 0.71376 0.0
H475 H 0.07683 0.43598 0.98133 0.0
H476 H 0.15443 0.47322 0.84816 0.0
C477 C 0.17589 0.47488 0.95166 0.0
C478 C 0.17276 0.46566 0.02339 0.0
C479 C 0.07696 0.43799 0.92223 0.0
C480 C 0.12541 0.4446 0.92377 0.0
C481 C 0.05578 0.44124 0.8864 0.0
C482 C 0.05644 0.4457 0.811 0.0
C483 C 0.09949 0.44037 0.88288 0.0
C484 C 0.07786 0.4453 0.77208 0.0
C485 C 0.15219 0.46413 0.9012 0.0
C486 C 0.14635 0.44324 0.03993 0.0
N487 N 0.09908 0.44354 0.8089 0.0
N488 N 0.12347 0.43406 0.99135 0.0
H489 H 0.65339 0.20551 0.00845 0.0
H490 H 0.62522 0.06329 0.78032 0.0
H491 H 0.71916 0.18779 0.9524 0.0
H492 H 0.56282 0.09004 0.78168 0.0
H493 H 0.65867 0.10765 0.85167 0.0
H494 H 0.61934 0.16381 0.92701 0.0
C495 C 0.66078 0.19334 0.97687 0.0
C496 C 0.68907 0.20005 0.98662 0.0
C497 C 0.63762 0.10381 0.83672 0.0
C498 C 0.65023 0.15187 0.89616 0.0
C499 C 0.61835 0.07829 0.79662 0.0
C500 C 0.5911 0.07289 0.77466 0.0
C501 C 0.62967 0.12416 0.85567 0.0
C502 C 0.58347 0.09315 0.79787 0.0
C503 C 0.64132 0.16939 0.93123 0.0
C504 C 0.6976 0.18348 0.94566 0.0
N505 N 0.60273 0.11801 0.8369 0.0
N506 N 0.67815 0.15984 0.90308 0.0
H507 H 0.50318 0.69572 0.81485 0.0
H508 H 0.57169 0.60503 0.7907 0.0
H509 H 0.58825 0.72802 0.90753 0.0
H510 H 0.51334 0.59724 0.61156 0.0
H511 H 0.58229 0.65407 0.82158 0.0
H512 H 0.50968 0.665 0.72396 0.0
C513 C 0.52372 0.69741 0.81333 0.0
C514 C 0.54522 0.71421 0.86835 0.0
C515 C 0.56773 0.64201 0.77418 0.0
C516 C 0.55239 0.67835 0.76779 0.0
C517 C 0.5616 0.61399 0.75692 0.0
C518 C 0.54135 0.59714 0.69941 0.0
C519 C 0.55266 0.65282 0.73545 0.0
C520 C 0.52896 0.60965 0.65676 0.0
C521 C 0.5274 0.67973 0.76193 0.0
C522 C 0.57126 0.71529 0.86556 0.0
N523 N 0.53415 0.63655 0.67707 0.0
N524 N 0.57388 0.6969 0.81754 0.0
H525 H 0.45971 0.17066 0.32856 0.0
H526 H 0.54975 0.10142 0.44697 0.0
H527 H 0.55067 0.21679 0.34426 0.0
H528 H 0.4667 0.06915 0.52435 0.0
H529 H 0.54982 0.14473 0.41345 0.0
H530 H 0.46049 0.13513 0.40799 0.0
C531 C 0.47982 0.17403 0.35168 0.0
C532 C 0.50519 0.19671 0.33022 0.0
C533 C 0.53165 0.12847 0.43863 0.0
C534 C 0.50627 0.15572 0.41809 0.0
C535 C 0.53156 0.10364 0.45737 0.0
C536 C 0.50813 0.0817 0.48798 0.0
C537 C 0.50777 0.13121 0.44849 0.0
C538 C 0.48515 0.08568 0.50076 0.0
C539 C 0.48027 0.15358 0.39625 0.0
C540 C 0.53068 0.1997 0.35994 0.0
N541 N 0.48527 0.10978 0.47954 0.0
N542 N 0.53057 0.17915 0.40097 0.0
H543 H 0.29493 0.47632 0.30658 0.0
H544 H 0.45392 0.52988 0.44647 0.0
H545 H 0.36274 0.56351 0.30075 0.0
H546 H 0.38447 0.44883 0.50116 0.0
H547 H 0.42015 0.54181 0.39103 0.0
H548 H 0.32593 0.46616 0.38526 0.0
C549 C 0.31597 0.49363 0.32465 0.0
C550 C 0.32648 0.52071 0.29707 0.0
C551 C 0.41228 0.52141 0.41518 0.0
C552 C 0.36227 0.50903 0.3836 0.0
C553 C 0.43159 0.51436 0.44587 0.0
C554 C 0.42206 0.48829 0.47869 0.0
C555 C 0.38319 0.50218 0.41666 0.0
C556 C 0.3928 0.46919 0.4766 0.0
C557 C 0.33381 0.48772 0.3684 0.0
C558 C 0.354 0.54232 0.32088 0.0
N559 N 0.37438 0.47654 0.44619 0.0
N560 N 0.37119 0.53586 0.36153 0.0
H561 H 0.82511 0.33293 0.30013 0.0
H562 H 0.98684 0.44664 0.33655 0.0
H563 H 0.88478 0.32827 0.16131 0.0
H564 H 0.93581 0.43327 0.52127 0.0
H565 H 0.94967 0.40138 0.27554 0.0
H566 H 0.86456 0.36651 0.38804 0.0
C567 C 0.84642 0.33822 0.28945 0.0
C568 C 0.85177 0.32817 0.22297 0.0
C569 C 0.94667 0.40803 0.32991 0.0
C570 C 0.89687 0.36699 0.32177 0.0
C571 C 0.96788 0.43397 0.36461 0.0
C572 C 0.96429 0.44383 0.43372 0.0
C573 C 0.92128 0.39205 0.36357 0.0
C574 C 0.93937 0.42642 0.46785 0.0
C575 C 0.86894 0.35755 0.33928 0.0
C576 C 0.8798 0.3359 0.21142 0.0
N577 N 0.91852 0.4016 0.43177 0.0
N578 N 0.9013 0.35526 0.25947 0.0
H579 H 0.50543 0.80192 0.23443 0.0
H580 H 0.49987 0.91163 0.42203 0.0
H581 H 0.59138 0.86917 0.21951 0.0
H582 H 0.58647 0.9434 0.50217 0.0
H583 H 0.49914 0.87025 0.35936 0.0
H584 H 0.50267 0.82807 0.34509 0.0
C585 C 0.52398 0.82172 0.25611 0.0
C586 C 0.54858 0.83367 0.21803 0.0
C587 C 0.518 0.88569 0.39276 0.0
C588 C 0.54542 0.86385 0.34221 0.0
C589 C 0.5185 0.90946 0.42797 0.0
C590 C 0.54335 0.93106 0.46658 0.0
C591 C 0.54276 0.88388 0.39488 0.0
C592 C 0.5669 0.92722 0.47277 0.0
C593 C 0.5223 0.83677 0.31843 0.0
C594 C 0.57203 0.85945 0.2475 0.0
N595 N 0.5663 0.90449 0.43538 0.0
N596 N 0.56978 0.8739 0.30752 0.0
H597 H 0.70358 0.49711 0.23301 0.0
H598 H 0.63607 0.58954 0.38429 0.0
H599 H 0.72537 0.5787 0.14996 0.0
H600 H 0.59277 0.4971 0.35543 0.0
H601 H 0.67788 0.59118 0.33293 0.0
H602 H 0.67346 0.50335 0.31907 0.0
C603 C 0.70314 0.51701 0.23567 0.0
C604 C 0.71713 0.53756 0.18511 0.0
C605 C 0.65922 0.57063 0.3386 0.0
C606 C 0.68208 0.54443 0.28114 0.0
C607 C 0.63542 0.56967 0.36753 0.0
C608 C 0.61078 0.54316 0.37286 0.0
C609 C 0.65854 0.54488 0.3174 0.0
C610 C 0.6111 0.51802 0.35098 0.0
C611 C 0.68559 0.52035 0.28375 0.0
C612 C 0.71516 0.5626 0.189 0.0
N613 N 0.63456 0.5195 0.32455 0.0
N614 N 0.69757 0.5652 0.23547 0.0
H615 H 0.21349 0.71802 0.27101 0.0
H616 H 0.0891 0.66501 0.54198 0.0
H617 H 0.16123 0.75616 0.29749 0.0
H618 H 0.12418 0.61401 0.45983 0.0
H619 H 0.12665 0.7068 0.48837 0.0
H620 H 0.19234 0.68891 0.37518 0.0
C621 C 0.19834 0.72103 0.30087 0.0
C622 C 0.18914 0.73953 0.27646 0.0
C623 C 0.12649 0.68661 0.48371 0.0
C624 C 0.16431 0.70589 0.39375 0.0
C625 C 0.10519 0.66277 0.51477 0.0
C626 C 0.10317 0.63582 0.50409 0.0
C627 C 0.14603 0.68349 0.44241 0.0
C628 C 0.12464 0.63426 0.46828 0.0
C629 C 0.18609 0.70427 0.35972 0.0
C630 C 0.169 0.74228 0.31548 0.0
N631 N 0.14492 0.65764 0.43781 0.0
N632 N 0.15693 0.72532 0.3717 0.0
loop_
_geom_bond_atom_site_label_1
_geom_bond_atom_site_label_2
_geom_bond_distance
_geom_bond_site_symmetry_2
_ccdc_geom_bond_type
H0 C6 0.930 . S
H1 C9 0.931 . S
H2 C11 0.931 . S
H3 C13 0.930 . S
H4 C15 0.930 . S
H5 C17 0.931 . S
C6 H0 0.930 . S
C6 C7 1.380 . S
C6 C8 1.394 . S
C7 C6 1.380 . S
C7 C11 1.382 . S
C8 C6 1.394 . S
C8 C9 1.400 . S
C9 H1 0.931 . S
C9 C8 1.400 . S
C9 C10 1.375 . S
C10 C9 1.375 . S
C10 C11 1.415 . S
C10 C12 1.501 . S
C11 H2 0.931 . S
C11 C7 1.382 . S
C11 C10 1.415 . S
C12 C10 1.501 . S
C12 C13 1.384 . S
C12 C17 1.408 . S
C13 H3 0.930 . S
C13 C12 1.384 . S
C13 C14 1.389 . S
C14 C13 1.389 . S
C14 C15 1.405 . S
C15 H4 0.930 . S
C15 C14 1.405 . S
C15 C16 1.364 . S
C16 C15 1.364 . S
C16 C17 1.400 . S
C17 H5 0.931 . S
C17 C12 1.408 . S
C17 C16 1.400 . S
H18 C24 0.930 . S
H19 C27 0.931 . S
H20 C29 0.931 1_556 S
H21 C31 0.930 1_556 S
H22 C33 0.930 . S
H23 C35 0.931 . S
C24 H18 0.930 . S
C24 C25 1.380 . S
C24 C26 1.394 . S
C25 C24 1.380 . S
C25 C29 1.382 . S
C26 C24 1.394 . S
C26 C27 1.400 . S
C27 H19 0.931 . S
C27 C26 1.400 . S
C27 C28 1.375 . S
C28 C27 1.375 . S
C28 C29 1.415 . S
C28 C30 1.501 . S
C29 H20 0.931 1_554 S
C29 C25 1.382 . S
C29 C28 1.415 . S
C30 C28 1.501 . S
C30 C31 1.384 . S
C30 C35 1.408 . S
C31 H21 0.930 1_554 S
C31 C30 1.384 . S
C31 C32 1.389 . S
C32 C31 1.389 . S
C32 C33 1.405 . S
C33 H22 0.930 . S
C33 C32 1.405 . S
C33 C34 1.364 . S
C34 C33 1.364 . S
C34 C35 1.400 . S
C35 H23 0.931 . S
C35 C30 1.408 . S
C35 C34 1.400 . S
H36 C42 0.930 . S
H37 C45 0.931 . S
H38 C47 0.931 . S
H39 C49 0.930 . S
H40 C51 0.930 . S
H41 C53 0.931 . S
C42 H36 0.930 . S
C42 C43 1.380 1_554 S
C42 C44 1.394 . S
C43 C42 1.380 1_556 S
C43 C47 1.382 . S
C44 C42 1.394 . S
C44 C45 1.400 . S
C45 H37 0.931 . S
C45 C44 1.400 . S
C45 C46 1.375 . S
C46 C45 1.375 . S
C46 C47 1.415 1_554 S
C46 C48 1.501 . S
C47 H38 0.931 . S
C47 C43 1.382 . S
C47 C46 1.415 1_556 S
C48 C46 1.501 . S
C48 C49 1.384 1_554 S
C48 C53 1.408 . S
C49 H39 0.930 . S
C49 C48 1.384 1_556 S
C49 C50 1.389 . S
C50 C49 1.389 . S
C50 C51 1.405 1_556 S
C51 H40 0.930 . S
C51 C50 1.405 1_554 S
C51 C52 1.364 . S
C52 C51 1.364 . S
C52 C53 1.400 . S
C53 H41 0.931 . S
C53 C48 1.408 . S
C53 C52 1.400 . S
H54 C60 0.930 . S
H55 C63 0.931 . S
H56 C65 0.931 . S
H57 C67 0.930 . S
H58 C69 0.930 . S
H59 C71 0.931 . S
C60 H54 0.930 . S
C60 C61 1.380 1_554 S
C60 C62 1.394 . S
C61 C60 1.380 1_556 S
C61 C65 1.382 . S
C62 C60 1.394 . S
C62 C63 1.400 . S
C63 H55 0.931 . S
C63 C62 1.400 . S
C63 C64 1.375 . S
C64 C63 1.375 . S
C64 C65 1.415 1_554 S
C64 C66 1.501 . S
C65 H56 0.931 . S
C65 C61 1.382 . S
C65 C64 1.415 1_556 S
C66 C64 1.501 . S
C66 C67 1.384 1_554 S
C66 C71 1.408 . S
C67 H57 0.930 . S
C67 C66 1.384 1_556 S
C67 C68 1.389 . S
C68 C67 1.389 . S
C68 C69 1.405 1_556 S
C69 H58 0.930 . S
C69 C68 1.405 1_554 S
C69 C70 1.364 . S
C70 C69 1.364 . S
C70 C71 1.400 . S
C71 H59 0.931 . S
C71 C66 1.408 . S
C71 C70 1.400 . S
H72 C78 0.930 . S
H73 C81 0.931 . S
H74 C83 0.931 . S
H75 C85 0.930 . S
H76 C87 0.930 . S
H77 C89 0.931 . S
C78 H72 0.930 . S
C78 C79 1.380 . S
C78 C80 1.394 . S
C79 C78 1.380 . S
C79 C83 1.382 . S
C80 C78 1.394 . S
C80 C81 1.400 . S
C81 H73 0.931 . S
C81 C80 1.400 . S
C81 C82 1.375 . S
C82 C81 1.375 . S
C82 C83 1.415 . S
C82 C84 1.501 . S
C83 H74 0.931 . S
C83 C79 1.382 . S
C83 C82 1.415 . S
C84 C82 1.501 . S
C84 C85 1.384 . S
C84 C89 1.408 . S
C85 H75 0.930 . S
C85 C84 1.384 . S
C85 C86 1.389 . S
C86 C85 1.389 . S
C86 C87 1.405 . S
C87 H76 0.930 . S
C87 C86 1.405 . S
C87 C88 1.364 . S
C88 C87 1.364 . S
C88 C89 1.400 . S
C89 H77 0.931 . S
C89 C84 1.408 . S
C89 C88 1.400 . S
H90 C96 0.930 . S
H91 C99 0.931 . S
H92 C101 0.931 . S
H93 C103 0.930 . S
H94 C105 0.930 . S
H95 C107 0.931 . S
C96 H90 0.930 . S
C96 C97 1.380 . S
C96 C98 1.394 . S
C97 C96 1.380 . S
C97 C101 1.382 . S
C98 C96 1.394 . S
C98 C99 1.400 . S
C99 H91 0.931 . S
C99 C98 1.400 . S
C99 C100 1.375 . S
C100 C99 1.375 . S
C100 C101 1.415 . S
C100 C102 1.501 . S
C101 H92 0.931 . S
C101 C97 1.382 . S
C101 C100 1.415 . S
C102 C100 1.501 . S
C102 C103 1.384 . S
C102 C107 1.408 . S
C103 H93 0.930 . S
C103 C102 1.384 . S
C103 C104 1.389 . S
C104 C103 1.389 . S
C104 C105 1.405 . S
C105 H94 0.930 . S
C105 C104 1.405 . S
C105 C106 1.364 . S
C106 C105 1.364 . S
C106 C107 1.400 . S
C107 H95 0.931 . S
C107 C102 1.408 . S
C107 C106 1.400 . S
C108 O135 1.312 . S
C108 O136 1.208 . S
C109 O130 1.331 . S
C109 O133 1.244 . S
C110 O132 1.264 . S
C110 O134 1.273 . S
Mg111 O113 1.936 1_455 S
Mg111 O120 2.081 1_455 S
Mg111 O122 2.023 . S
Mg111 O126 2.031 1_455 S
Mg111 O135 2.291 . S
Mg112 O113 1.963 . S
Mg112 O123 1.942 . S
Mg112 O124 1.955 1_655 S
Mg112 O131 1.986 . S
O113 Mg111 1.936 1_655 S
O113 Mg112 1.963 . S
O113 Mg114 1.915 1_655 S
Mg114 O113 1.915 1_455 S
Mg114 O115 1.915 . S
Mg114 O119 2.013 . S
Mg114 O125 2.114 1_455 S
Mg114 O129 2.013 1_455 S
Mg114 O135 2.114 . S
O115 Mg114 1.915 . S
O115 Mg116 1.936 . S
O115 Mg117 1.963 . S
Mg116 O115 1.936 . S
Mg116 O125 2.291 1_455 S
Mg116 O130 2.081 . S
Mg116 O132 2.023 1_455 S
Mg116 O136 2.031 . S
Mg117 O115 1.963 . S
Mg117 O121 1.986 . S
Mg117 O133 1.942 . S
Mg117 O134 1.955 1_455 S
C118 O129 1.191 . S
C118 O131 1.307 . S
O119 Mg114 2.013 . S
O119 C138 1.191 . S
O120 Mg111 2.081 1_655 S
O120 C128 1.331 . S
O121 Mg117 1.986 . S
O121 C138 1.307 . S
O122 Mg111 2.023 . S
O122 C137 1.264 . S
O123 Mg112 1.942 . S
O123 C128 1.244 . S
O124 Mg112 1.955 1_455 S
O124 C137 1.273 . S
O125 Mg114 2.114 1_655 S
O125 Mg116 2.291 1_655 S
O125 C127 1.312 . S
O126 Mg111 2.031 1_655 S
O126 C127 1.208 . S
C127 O125 1.312 . S
C127 O126 1.208 . S
C128 O120 1.331 . S
C128 O123 1.244 . S
O129 Mg114 2.013 1_655 S
O129 C118 1.191 . S
O130 C109 1.331 . S
O130 Mg116 2.081 . S
O131 Mg112 1.986 . S
O131 C118 1.307 . S
O132 C110 1.264 . S
O132 Mg116 2.023 1_655 S
O133 C109 1.244 . S
O133 Mg117 1.942 . S
O134 C110 1.273 . S
O134 Mg117 1.955 1_655 S
O135 C108 1.312 . S
O135 Mg111 2.291 . S
O135 Mg114 2.114 . S
O136 C108 1.208 . S
O136 Mg116 2.031 . S
C137 O122 1.264 . S
C137 O124 1.273 . S
C138 O119 1.191 . S
C138 O121 1.307 . S
C139 O166 1.312 . S
C139 O167 1.208 . S
C140 O161 1.331 . S
C140 O164 1.244 . S
C141 O163 1.264 . S
C141 O165 1.273 . S
Mg142 O144 1.964 . S
Mg142 O151 2.081 1_545 S
Mg142 O153 2.023 . S
Mg142 O157 2.031 1_545 S
Mg142 O166 2.291 . S
Mg143 O144 1.957 . S
Mg143 O154 1.942 1_545 S
Mg143 O155 1.955 . S
Mg143 O162 1.986 1_545 S
O144 Mg142 1.964 . S
O144 Mg143 1.957 . S
O144 Mg145 1.913 . S
Mg145 O144 1.913 . S
Mg145 O146 1.915 . S
Mg145 O150 2.013 . S
Mg145 O156 2.114 1_545 S
Mg145 O160 2.013 1_545 S
Mg145 O166 2.114 . S
O146 Mg145 1.915 . S
O146 Mg147 1.936 . S
O146 Mg148 1.963 . S
Mg147 O146 1.936 . S
Mg147 O156 2.291 1_545 S
Mg147 O161 2.081 . S
Mg147 O163 2.023 1_545 S
Mg147 O167 2.031 . S
Mg148 O146 1.963 . S
Mg148 O152 1.986 . S
Mg148 O164 1.942 . S
Mg148 O165 1.955 1_545 S
C149 O160 1.191 . S
C149 O162 1.307 . S
O150 Mg145 2.013 . S
O150 C169 1.191 . S
O151 Mg142 2.081 1_565 S
O151 C159 1.331 . S
O152 Mg148 1.986 . S
O152 C169 1.307 . S
O153 Mg142 2.023 . S
O153 C168 1.264 . S
O154 Mg143 1.942 1_565 S
O154 C159 1.244 . S
O155 Mg143 1.955 . S
O155 C168 1.273 . S
O156 Mg145 2.114 1_565 S
O156 Mg147 2.291 1_565 S
O156 C158 1.312 . S
O157 Mg142 2.031 1_565 S
O157 C158 1.208 . S
C158 O156 1.312 . S
C158 O157 1.208 . S
C159 O151 1.331 . S
C159 O154 1.244 . S
O160 Mg145 2.013 1_565 S
O160 C149 1.191 . S
O161 C140 1.331 . S
O161 Mg147 2.081 . S
O162 Mg143 1.986 1_565 S
O162 C149 1.307 . S
O163 C141 1.264 . S
O163 Mg147 2.023 1_565 S
O164 C140 1.244 . S
O164 Mg148 1.942 . S
O165 C141 1.273 . S
O165 Mg148 1.955 1_565 S
O166 C139 1.312 . S
O166 Mg142 2.291 . S
O166 Mg145 2.114 . S
O167 C139 1.208 . S
O167 Mg147 2.031 . S
C168 O153 1.264 . S
C168 O155 1.273 . S
C169 O150 1.191 . S
C169 O152 1.307 . S
C170 O197 1.312 . S
C170 O198 1.208 . S
C171 O192 1.331 . S
C171 O195 1.244 . S
C172 O194 1.264 . S
C172 O196 1.273 . S
Mg173 O175 1.936 . S
Mg173 O182 2.081 . S
Mg173 O184 2.023 . S
Mg173 O188 2.031 . S
Mg173 O197 2.291 . S
Mg174 O175 1.963 . S
Mg174 O185 1.942 . S
Mg174 O186 1.955 . S
Mg174 O193 1.986 . S
O175 Mg173 1.936 . S
O175 Mg174 1.963 . S
O175 Mg176 1.915 . S
Mg176 O175 1.915 . S
Mg176 O177 1.915 . S
Mg176 O181 2.013 . S
Mg176 O187 2.114 . S
Mg176 O191 2.013 . S
Mg176 O197 2.114 . S
O177 Mg176 1.915 . S
O177 Mg178 1.936 . S
O177 Mg179 1.963 . S
Mg178 O177 1.936 . S
Mg178 O187 2.291 . S
Mg178 O192 2.081 . S
Mg178 O194 2.023 . S
Mg178 O198 2.031 . S
Mg179 O177 1.963 . S
Mg179 O183 1.986 . S
Mg179 O195 1.942 . S
Mg179 O196 1.955 . S
C180 O191 1.191 . S
C180 O193 1.307 . S
O181 Mg176 2.013 . S
O181 C200 1.191 . S
O182 Mg173 2.081 . S
O182 C190 1.331 . S
O183 Mg179 1.986 . S
O183 C200 1.307 . S
O184 Mg173 2.023 . S
O184 C199 1.264 . S
O185 Mg174 1.942 . S
O185 C190 1.244 . S
O186 Mg174 1.955 . S
O186 C199 1.273 . S
O187 Mg176 2.114 . S
O187 Mg178 2.291 . S
O187 C189 1.312 . S
O188 Mg173 2.031 . S
O188 C189 1.208 . S
C189 O187 1.312 . S
C189 O188 1.208 . S
C190 O182 1.331 . S
C190 O185 1.244 . S
O191 Mg176 2.013 . S
O191 C180 1.191 . S
O192 C171 1.331 . S
O192 Mg178 2.081 . S
O193 Mg174 1.986 . S
O193 C180 1.307 . S
O194 C172 1.264 . S
O194 Mg178 2.023 . S
O195 C171 1.244 . S
O195 Mg179 1.942 . S
O196 C172 1.273 . S
O196 Mg179 1.955 . S
O197 C170 1.312 . S
O197 Mg173 2.291 . S
O197 Mg176 2.114 . S
O198 C170 1.208 . S
O198 Mg178 2.031 . S
C199 O184 1.264 . S
C199 O186 1.273 . S
C200 O181 1.191 . S
C200 O183 1.307 . S
H201 C207 0.930 . S
H202 C211 0.930 . S
H203 C216 0.929 . S
H204 C214 0.929 . S
H205 C209 0.929 . S
H206 C215 0.929 . S
C207 H201 0.930 . S
C207 C208 1.367 . S
C207 C215 1.378 . S
C208 C207 1.367 . S
C208 C216 1.433 . S
C209 H205 0.929 . S
C209 C211 1.378 . S
C209 C213 1.350 . S
C210 C213 1.463 . S
C210 C215 1.350 . S
C210 N218 1.427 . S
C211 H202 0.930 . S
C211 C209 1.378 . S
C211 C212 1.367 . S
C212 C211 1.367 . S
C212 C214 1.433 . S
C213 C209 1.350 . S
C213 C210 1.463 . S
C213 N217 1.427 . S
C214 H204 0.929 . S
C214 C212 1.433 . S
C214 N217 1.384 . S
C215 H206 0.929 . S
C215 C207 1.378 . S
C215 C210 1.350 . S
C216 H203 0.929 . S
C216 C208 1.433 . S
C216 N218 1.384 . S
N217 C213 1.427 . S
N217 C214 1.384 . S
N218 C210 1.427 . S
N218 C216 1.384 . S
H219 C225 0.930 . S
H220 C229 0.930 . S
H221 C234 0.929 . S
H222 C232 0.929 . S
H223 C227 0.929 . S
H224 C233 0.929 . S
C225 H219 0.930 . S
C225 C226 1.367 . S
C225 C233 1.378 . S
C226 C225 1.367 . S
C226 C234 1.433 . S
C227 H223 0.929 . S
C227 C229 1.378 . S
C227 C231 1.350 . S
C228 C231 1.463 . S
C228 C233 1.350 . S
C228 N236 1.427 . S
C229 H220 0.930 . S
C229 C227 1.378 . S
C229 C230 1.367 . S
C230 C229 1.367 . S
C230 C232 1.433 . S
C231 C227 1.350 . S
C231 C228 1.463 . S
C231 N235 1.427 . S
C232 H222 0.929 . S
C232 C230 1.433 . S
C232 N235 1.384 . S
C233 H224 0.929 . S
C233 C225 1.378 . S
C233 C228 1.350 . S
C234 H221 0.929 . S
C234 C226 1.433 . S
C234 N236 1.384 . S
N235 C231 1.427 . S
N235 C232 1.384 . S
N236 C228 1.427 . S
N236 C234 1.384 . S
H237 C243 0.930 . S
H238 C247 0.930 . S
H239 C252 0.929 . S
H240 C250 0.929 . S
H241 C245 0.929 . S
H242 C251 0.929 . S
C243 H237 0.930 . S
C243 C244 1.367 . S
C243 C251 1.378 . S
C244 C243 1.367 . S
C244 C252 1.433 . S
C245 H241 0.929 . S
C245 C247 1.378 . S
C245 C249 1.350 . S
C246 C249 1.463 . S
C246 C251 1.350 . S
C246 N254 1.427 . S
C247 H238 0.930 . S
C247 C245 1.378 . S
C247 C248 1.367 . S
C248 C247 1.367 . S
C248 C250 1.433 . S
C249 C245 1.350 . S
C249 C246 1.463 . S
C249 N253 1.427 . S
C250 H240 0.929 . S
C250 C248 1.433 . S
C250 N253 1.384 . S
C251 H242 0.929 . S
C251 C243 1.378 . S
C251 C246 1.350 . S
C252 H239 0.929 . S
C252 C244 1.433 . S
C252 N254 1.384 . S
N253 C249 1.427 . S
N253 C250 1.384 . S
N254 C246 1.427 . S
N254 C252 1.384 . S
H255 C261 0.930 . S
H256 C265 0.930 . S
H257 C270 0.929 . S
H258 C268 0.929 . S
H259 C263 0.929 . S
H260 C269 0.929 . S
C261 H255 0.930 . S
C261 C262 1.367 . S
C261 C269 1.378 . S
C262 C261 1.367 . S
C262 C270 1.433 . S
C263 H259 0.929 . S
C263 C265 1.378 . S
C263 C267 1.350 . S
C264 C267 1.463 . S
C264 C269 1.350 . S
C264 N272 1.427 . S
C265 H256 0.930 . S
C265 C263 1.378 . S
C265 C266 1.367 . S
C266 C265 1.367 . S
C266 C268 1.433 . S
C267 C263 1.350 . S
C267 C264 1.463 . S
C267 N271 1.427 . S
C268 H258 0.929 . S
C268 C266 1.433 . S
C268 N271 1.384 . S
C269 H260 0.929 . S
C269 C261 1.378 . S
C269 C264 1.350 . S
C270 H257 0.929 . S
C270 C262 1.433 . S
C270 N272 1.384 . S
N271 C267 1.427 . S
N271 C268 1.384 . S
N272 C264 1.427 . S
N272 C270 1.384 . S
H273 C279 0.930 . S
H274 C283 0.930 . S
H275 C288 0.929 . S
H276 C286 0.929 . S
H277 C281 0.929 . S
H278 C287 0.929 . S
C279 H273 0.930 . S
C279 C280 1.367 . S
C279 C287 1.378 . S
C280 C279 1.367 . S
C280 C288 1.433 . S
C281 H277 0.929 . S
C281 C283 1.378 . S
C281 C285 1.350 . S
C282 C285 1.463 . S
C282 C287 1.350 . S
C282 N290 1.427 . S
C283 H274 0.930 . S
C283 C281 1.378 . S
C283 C284 1.367 . S
C284 C283 1.367 . S
C284 C286 1.433 . S
C285 C281 1.350 . S
C285 C282 1.463 . S
C285 N289 1.427 . S
C286 H276 0.929 . S
C286 C284 1.433 . S
C286 N289 1.384 . S
C287 H278 0.929 . S
C287 C279 1.378 . S
C287 C282 1.350 . S
C288 H275 0.929 . S
C288 C280 1.433 . S
C288 N290 1.384 . S
N289 C285 1.427 . S
N289 C286 1.384 . S
N290 C282 1.427 . S
N290 C288 1.384 . S
H291 C297 0.930 . S
H292 C301 0.930 . S
H293 C306 0.929 . S
H294 C304 0.929 . S
H295 C299 0.929 . S
H296 C305 0.929 . S
C297 H291 0.930 . S
C297 C298 1.367 . S
C297 C305 1.378 . S
C298 C297 1.367 . S
C298 C306 1.433 . S
C299 H295 0.929 . S
C299 C301 1.378 . S
C299 C303 1.350 . S
C300 C303 1.463 . S
C300 C305 1.350 . S
C300 N308 1.427 . S
C301 H292 0.930 . S
C301 C299 1.378 . S
C301 C302 1.367 . S
C302 C301 1.367 . S
C302 C304 1.433 . S
C303 C299 1.350 . S
C303 C300 1.463 . S
C303 N307 1.427 . S
C304 H294 0.929 . S
C304 C302 1.433 . S
C304 N307 1.384 . S
C305 H296 0.929 . S
C305 C297 1.378 . S
C305 C300 1.350 . S
C306 H293 0.929 . S
C306 C298 1.433 . S
C306 N308 1.384 . S
N307 C303 1.427 . S
N307 C304 1.384 . S
N308 C300 1.427 . S
N308 C306 1.384 . S
H309 C315 0.930 . S
H310 C319 0.930 . S
H311 C324 0.929 . S
H312 C322 0.929 . S
H313 C317 0.929 . S
H314 C323 0.929 . S
C315 H309 0.930 . S
C315 C316 1.367 . S
C315 C323 1.378 . S
C316 C315 1.367 . S
C316 C324 1.433 . S
C317 H313 0.929 . S
C317 C319 1.378 . S
C317 C321 1.350 . S
C318 C321 1.463 . S
C318 C323 1.350 . S
C318 N326 1.427 . S
C319 H310 0.930 . S
C319 C317 1.378 . S
C319 C320 1.367 . S
C320 C319 1.367 . S
C320 C322 1.433 . S
C321 C317 1.350 . S
C321 C318 1.463 . S
C321 N325 1.427 . S
C322 H312 0.929 . S
C322 C320 1.433 . S
C322 N325 1.384 . S
C323 H314 0.929 . S
C323 C315 1.378 . S
C323 C318 1.350 . S
C324 H311 0.929 . S
C324 C316 1.433 . S
C324 N326 1.384 . S
N325 C321 1.427 . S
N325 C322 1.384 . S
N326 C318 1.427 . S
N326 C324 1.384 . S
H327 C333 0.930 . S
H328 C337 0.930 . S
H329 C342 0.929 . S
H330 C340 0.929 . S
H331 C335 0.929 . S
H332 C341 0.929 . S
C333 H327 0.930 . S
C333 C334 1.367 . S
C333 C341 1.378 . S
C334 C333 1.367 . S
C334 C342 1.433 . S
C335 H331 0.929 . S
C335 C337 1.378 . S
C335 C339 1.350 . S
C336 C339 1.463 . S
C336 C341 1.350 . S
C336 N344 1.427 . S
C337 H328 0.930 . S
C337 C335 1.378 . S
C337 C338 1.367 . S
C338 C337 1.367 . S
C338 C340 1.433 . S
C339 C335 1.350 . S
C339 C336 1.463 . S
C339 N343 1.427 . S
C340 H330 0.929 . S
C340 C338 1.433 . S
C340 N343 1.384 . S
C341 H332 0.929 . S
C341 C333 1.378 . S
C341 C336 1.350 . S
C342 H329 0.929 . S
C342 C334 1.433 . S
C342 N344 1.384 . S
N343 C339 1.427 . S
N343 C340 1.384 . S
N344 C336 1.427 . S
N344 C342 1.384 . S
H345 C351 0.930 . S
H346 C355 0.930 . S
H347 C360 0.929 . S
H348 C358 0.929 . S
H349 C353 0.929 . S
H350 C359 0.929 . S
C351 H345 0.930 . S
C351 C352 1.367 1_554 S
C351 C359 1.378 1_554 S
C352 C351 1.367 1_556 S
C352 C360 1.433 . S
C353 H349 0.929 . S
C353 C355 1.378 . S
C353 C357 1.350 . S
C354 C357 1.463 . S
C354 C359 1.350 . S
C354 N362 1.427 . S
C355 H346 0.930 . S
C355 C353 1.378 . S
C355 C356 1.367 . S
C356 C355 1.367 . S
C356 C358 1.433 . S
C357 C353 1.350 . S
C357 C354 1.463 . S
C357 N361 1.427 . S
C358 H348 0.929 . S
C358 C356 1.433 . S
C358 N361 1.384 . S
C359 H350 0.929 . S
C359 C351 1.378 1_556 S
C359 C354 1.350 . S
C360 H347 0.929 . S
C360 C352 1.433 . S
C360 N362 1.384 . S
N361 C357 1.427 . S
N361 C358 1.384 . S
N362 C354 1.427 . S
N362 C360 1.384 . S
H363 C369 0.930 . S
H364 C373 0.930 . S
H365 C378 0.929 . S
H366 C376 0.929 . S
H367 C371 0.929 . S
H368 C377 0.929 . S
C369 H363 0.930 . S
C369 C370 1.367 . S
C369 C377 1.378 . S
C370 C369 1.367 . S
C370 C378 1.433 1_554 S
C371 H367 0.929 . S
C371 C373 1.378 . S
C371 C375 1.350 . S
C372 C375 1.463 . S
C372 C377 1.350 1_556 S
C372 N380 1.427 . S
C373 H364 0.930 . S
C373 C371 1.378 . S
C373 C374 1.367 . S
C374 C373 1.367 . S
C374 C376 1.433 . S
C375 C371 1.350 . S
C375 C372 1.463 . S
C375 N379 1.427 . S
C376 H366 0.929 . S
C376 C374 1.433 . S
C376 N379 1.384 . S
C377 H368 0.929 . S
C377 C369 1.378 . S
C377 C372 1.350 1_554 S
C378 H365 0.929 . S
C378 C370 1.433 1_556 S
C378 N380 1.384 . S
N379 C375 1.427 . S
N379 C376 1.384 . S
N380 C372 1.427 . S
N380 C378 1.384 . S
H381 C387 0.930 . S
H382 C391 0.930 . S
H383 C396 0.929 . S
H384 C394 0.929 . S
H385 C389 0.929 . S
H386 C395 0.929 . S
C387 H381 0.930 . S
C387 C388 1.367 . S
C387 C395 1.378 1_554 S
C388 C387 1.367 . S
C388 C396 1.433 . S
C389 H385 0.929 . S
C389 C391 1.378 . S
C389 C393 1.350 . S
C390 C393 1.463 . S
C390 C395 1.350 . S
C390 N398 1.427 1_556 S
C391 H382 0.930 . S
C391 C389 1.378 . S
C391 C392 1.367 . S
C392 C391 1.367 . S
C392 C394 1.433 . S
C393 C389 1.350 . S
C393 C390 1.463 . S
C393 N397 1.427 . S
C394 H384 0.929 . S
C394 C392 1.433 . S
C394 N397 1.384 . S
C395 H386 0.929 . S
C395 C387 1.378 1_556 S
C395 C390 1.350 . S
C396 H383 0.929 . S
C396 C388 1.433 . S
C396 N398 1.384 . S
N397 C393 1.427 . S
N397 C394 1.384 . S
N398 C390 1.427 1_554 S
N398 C396 1.384 . S
H399 C405 0.930 . S
H400 C409 0.930 . S
H401 C414 0.929 1_554 S
H402 C412 0.929 . S
H403 C407 0.929 . S
H404 C413 0.929 . S
C405 H399 0.930 . S
C405 C406 1.367 . S
C405 C413 1.378 . S
C406 C405 1.367 . S
C406 C414 1.433 . S
C407 H403 0.929 . S
C407 C409 1.378 . S
C407 C411 1.350 . S
C408 C411 1.463 . S
C408 C413 1.350 . S
C408 N416 1.427 . S
C409 H400 0.930 . S
C409 C407 1.378 . S
C409 C410 1.367 . S
C410 C409 1.367 . S
C410 C412 1.433 . S
C411 C407 1.350 . S
C411 C408 1.463 . S
C411 N415 1.427 . S
C412 H402 0.929 . S
C412 C410 1.433 . S
C412 N415 1.384 . S
C413 H404 0.929 . S
C413 C405 1.378 . S
C413 C408 1.350 . S
C414 H401 0.929 1_556 S
C414 C406 1.433 . S
C414 N416 1.384 . S
N415 C411 1.427 . S
N415 C412 1.384 . S
N416 C408 1.427 . S
N416 C414 1.384 . S
H417 C423 0.930 . S
H418 C427 0.930 . S
H419 C432 0.929 . S
H420 C430 0.929 . S
H421 C425 0.929 . S
H422 C431 0.929 . S
C423 H417 0.930 . S
C423 C424 1.367 . S
C423 C431 1.378 . S
C424 C423 1.367 . S
C424 C432 1.433 . S
C425 H421 0.929 . S
C425 C427 1.378 . S
C425 C429 1.350 . S
C426 C429 1.463 . S
C426 C431 1.350 . S
C426 N434 1.427 . S
C427 H418 0.930 . S
C427 C425 1.378 . S
C427 C428 1.367 . S
C428 C427 1.367 . S
C428 C430 1.433 . S
C429 C425 1.350 . S
C429 C426 1.463 . S
C429 N433 1.427 . S
C430 H420 0.929 . S
C430 C428 1.433 . S
C430 N433 1.384 . S
C431 H422 0.929 . S
C431 C423 1.378 . S
C431 C426 1.350 . S
C432 H419 0.929 . S
C432 C424 1.433 . S
C432 N434 1.384 . S
N433 C429 1.427 . S
N433 C430 1.384 . S
N434 C426 1.427 . S
N434 C432 1.384 . S
H435 C441 0.930 . S
H436 C445 0.930 . S
H437 C450 0.929 . S
H438 C448 0.929 . S
H439 C443 0.929 . S
H440 C449 0.929 . S
C441 H435 0.930 . S
C441 C442 1.367 . S
C441 C449 1.378 . S
C442 C441 1.367 . S
C442 C450 1.433 1_556 S
C443 H439 0.929 . S
C443 C445 1.378 . S
C443 C447 1.350 . S
C444 C447 1.463 . S
C444 C449 1.350 . S
C444 N452 1.427 . S
C445 H436 0.930 . S
C445 C443 1.378 . S
C445 C446 1.367 . S
C446 C445 1.367 . S
C446 C448 1.433 . S
C447 C443 1.350 . S
C447 C444 1.463 . S
C447 N451 1.427 . S
C448 H438 0.929 . S
C448 C446 1.433 . S
C448 N451 1.384 . S
C449 H440 0.929 . S
C449 C441 1.378 . S
C449 C444 1.350 . S
C450 H437 0.929 . S
C450 C442 1.433 1_554 S
C450 N452 1.384 1_554 S
N451 C447 1.427 . S
N451 C448 1.384 . S
N452 C444 1.427 . S
N452 C450 1.384 1_556 S
H453 C459 0.930 . S
H454 C463 0.930 . S
H455 C468 0.929 . S
H456 C466 0.929 . S
H457 C461 0.929 . S
H458 C467 0.929 . S
C459 H453 0.930 . S
C459 C460 1.367 . S
C459 C467 1.378 . S
C460 C459 1.367 . S
C460 C468 1.433 . S
C461 H457 0.929 . S
C461 C463 1.378 . S
C461 C465 1.350 . S
C462 C465 1.463 . S
C462 C467 1.350 1_556 S
C462 N470 1.427 . S
C463 H454 0.930 . S
C463 C461 1.378 . S
C463 C464 1.367 . S
C464 C463 1.367 . S
C464 C466 1.433 . S
C465 C461 1.350 . S
C465 C462 1.463 . S
C465 N469 1.427 . S
C466 H456 0.929 . S
C466 C464 1.433 . S
C466 N469 1.384 . S
C467 H458 0.929 . S
C467 C459 1.378 . S
C467 C462 1.350 1_554 S
C468 H455 0.929 . S
C468 C460 1.433 . S
C468 N470 1.384 1_554 S
N469 C465 1.427 . S
N469 C466 1.384 . S
N470 C462 1.427 . S
N470 C468 1.384 1_556 S
H471 C477 0.930 . S
H472 C481 0.930 . S
H473 C486 0.929 . S
H474 C484 0.929 . S
H475 C479 0.929 . S
H476 C485 0.929 . S
C477 H471 0.930 . S
C477 C478 1.367 . S
C477 C485 1.378 1_554 S
C478 C477 1.367 . S
C478 C486 1.433 . S
C479 H475 0.929 . S
C479 C481 1.378 . S
C479 C483 1.350 . S
C480 C483 1.463 . S
C480 C485 1.350 . S
C480 N488 1.427 1_556 S
C481 H472 0.930 . S
C481 C479 1.378 . S
C481 C482 1.367 . S
C482 C481 1.367 . S
C482 C484 1.433 . S
C483 C479 1.350 . S
C483 C480 1.463 . S
C483 N487 1.427 . S
C484 H474 0.929 . S
C484 C482 1.433 . S
C484 N487 1.384 . S
C485 H476 0.929 . S
C485 C477 1.378 1_556 S
C485 C480 1.350 . S
C486 H473 0.929 . S
C486 C478 1.433 . S
C486 N488 1.384 . S
N487 C483 1.427 . S
N487 C484 1.384 . S
N488 C480 1.427 1_554 S
N488 C486 1.384 . S
H489 C495 0.917 1_554 S
H490 C499 0.930 . S
H491 C504 0.929 . S
H492 C502 0.929 . S
H493 C497 0.929 . S
H494 C503 0.929 . S
C495 H489 0.917 1_556 S
C495 C496 1.374 . S
C495 C503 1.384 . S
C496 C495 1.374 . S
C496 C504 1.433 . S
C497 H493 0.929 . S
C497 C499 1.378 . S
C497 C501 1.350 . S
C498 C501 1.463 . S
C498 C503 1.350 . S
C498 N506 1.427 . S
C499 H490 0.930 . S
C499 C497 1.378 . S
C499 C500 1.367 . S
C500 C499 1.367 . S
C500 C502 1.433 . S
C501 C497 1.350 . S
C501 C498 1.463 . S
C501 N505 1.427 . S
C502 H492 0.929 . S
C502 C500 1.433 . S
C502 N505 1.384 . S
C503 H494 0.929 . S
C503 C495 1.384 . S
C503 C498 1.350 . S
C504 H491 0.929 . S
C504 C496 1.433 . S
C504 N506 1.384 . S
N505 C501 1.427 . S
N505 C502 1.384 . S
N506 C498 1.427 . S
N506 C504 1.384 . S
H507 C513 0.930 . S
H508 C517 0.930 . S
H509 C522 0.929 1_554 S
H510 C520 0.929 . S
H511 C515 0.929 . S
H512 C521 0.929 . S
C513 H507 0.930 . S
C513 C514 1.367 . S
C513 C521 1.378 . S
C514 C513 1.367 . S
C514 C522 1.433 . S
C515 H511 0.929 . S
C515 C517 1.378 . S
C515 C519 1.350 . S
C516 C519 1.463 . S
C516 C521 1.350 . S
C516 N524 1.427 . S
C517 H508 0.930 . S
C517 C515 1.378 . S
C517 C518 1.367 . S
C518 C517 1.367 . S
C518 C520 1.433 . S
C519 C515 1.350 . S
C519 C516 1.463 . S
C519 N523 1.427 . S
C520 H510 0.929 . S
C520 C518 1.433 . S
C520 N523 1.384 . S
C521 H512 0.929 . S
C521 C513 1.378 . S
C521 C516 1.350 . S
C522 H509 0.929 1_556 S
C522 C514 1.433 . S
C522 N524 1.384 . S
N523 C519 1.427 . S
N523 C520 1.384 . S
N524 C516 1.427 . S
N524 C522 1.384 . S
H525 C531 0.930 . S
H526 C535 0.930 . S
H527 C540 0.929 . S
H528 C538 0.929 . S
H529 C533 0.929 . S
H530 C539 0.929 . S
C531 H525 0.930 . S
C531 C532 1.367 . S
C531 C539 1.378 . S
C532 C531 1.367 . S
C532 C540 1.433 . S
C533 H529 0.929 . S
C533 C535 1.378 . S
C533 C537 1.350 . S
C534 C537 1.463 . S
C534 C539 1.350 . S
C534 N542 1.427 . S
C535 H526 0.930 . S
C535 C533 1.378 . S
C535 C536 1.367 . S
C536 C535 1.367 . S
C536 C538 1.433 . S
C537 C533 1.350 . S
C537 C534 1.463 . S
C537 N541 1.427 . S
C538 H528 0.929 . S
C538 C536 1.433 . S
C538 N541 1.384 . S
C539 H530 0.929 . S
C539 C531 1.378 . S
C539 C534 1.350 . S
C540 H527 0.929 . S
C540 C532 1.433 . S
C540 N542 1.384 . S
N541 C537 1.427 . S
N541 C538 1.384 . S
N542 C534 1.427 . S
N542 C540 1.384 . S
H543 C549 0.930 . S
H544 C553 0.930 . S
H545 C558 0.929 . S
H546 C556 0.929 . S
H547 C551 0.929 . S
H548 C557 0.929 . S
C549 H543 0.930 . S
C549 C550 1.367 . S
C549 C557 1.378 . S
C550 C549 1.367 . S
C550 C558 1.433 . S
C551 H547 0.929 . S
C551 C553 1.378 . S
C551 C555 1.350 . S
C552 C555 1.463 . S
C552 C557 1.350 . S
C552 N560 1.427 . S
C553 H544 0.930 . S
C553 C551 1.378 . S
C553 C554 1.367 . S
C554 C553 1.367 . S
C554 C556 1.433 . S
C555 C551 1.350 . S
C555 C552 1.463 . S
C555 N559 1.427 . S
C556 H546 0.929 . S
C556 C554 1.433 . S
C556 N559 1.384 . S
C557 H548 0.929 . S
C557 C549 1.378 . S
C557 C552 1.350 . S
C558 H545 0.929 . S
C558 C550 1.433 . S
C558 N560 1.384 . S
N559 C555 1.427 . S
N559 C556 1.384 . S
N560 C552 1.427 . S
N560 C558 1.384 . S
H561 C567 0.930 . S
H562 C571 0.930 . S
H563 C576 0.929 . S
H564 C574 0.929 . S
H565 C569 0.929 . S
H566 C575 0.929 . S
C567 H561 0.930 . S
C567 C568 1.367 . S
C567 C575 1.378 . S
C568 C567 1.367 . S
C568 C576 1.433 . S
C569 H565 0.929 . S
C569 C571 1.378 . S
C569 C573 1.350 . S
C570 C573 1.463 . S
C570 C575 1.350 . S
C570 N578 1.427 . S
C571 H562 0.930 . S
C571 C569 1.378 . S
C571 C572 1.367 . S
C572 C571 1.367 . S
C572 C574 1.433 . S
C573 C569 1.350 . S
C573 C570 1.463 . S
C573 N577 1.427 . S
C574 H564 0.929 . S
C574 C572 1.433 . S
C574 N577 1.384 . S
C575 H566 0.929 . S
C575 C567 1.378 . S
C575 C570 1.350 . S
C576 H563 0.929 . S
C576 C568 1.433 . S
C576 N578 1.384 . S
N577 C573 1.427 . S
N577 C574 1.384 . S
N578 C570 1.427 . S
N578 C576 1.384 . S
H579 C585 0.930 . S
H580 C589 0.930 . S
H581 C594 0.929 . S
H582 C592 0.929 . S
H583 C587 0.929 . S
H584 C593 0.929 . S
C585 H579 0.930 . S
C585 C586 1.367 . S
C585 C593 1.378 . S
C586 C585 1.367 . S
C586 C594 1.433 . S
C587 H583 0.929 . S
C587 C589 1.378 . S
C587 C591 1.350 . S
C588 C591 1.463 . S
C588 C593 1.350 . S
C588 N596 1.427 . S
C589 H580 0.930 . S
C589 C587 1.378 . S
C589 C590 1.367 . S
C590 C589 1.367 . S
C590 C592 1.433 . S
C591 C587 1.350 . S
C591 C588 1.463 . S
C591 N595 1.427 . S
C592 H582 0.929 . S
C592 C590 1.433 . S
C592 N595 1.384 . S
C593 H584 0.929 . S
C593 C585 1.378 . S
C593 C588 1.350 . S
C594 H581 0.929 . S
C594 C586 1.433 . S
C594 N596 1.384 . S
N595 C591 1.427 . S
N595 C592 1.384 . S
N596 C588 1.427 . S
N596 C594 1.384 . S
H597 C603 0.930 . S
H598 C607 0.930 . S
H599 C612 0.929 . S
H600 C610 0.929 . S
H601 C605 0.929 . S
H602 C611 0.929 . S
C603 H597 0.930 . S
C603 C604 1.367 . S
C603 C611 1.378 . S
C604 C603 1.367 . S
C604 C612 1.433 . S
C605 H601 0.929 . S
C605 C607 1.378 . S
C605 C609 1.350 . S
C606 C609 1.463 . S
C606 C611 1.350 . S
C606 N614 1.427 . S
C607 H598 0.930 . S
C607 C605 1.378 . S
C607 C608 1.367 . S
C608 C607 1.367 . S
C608 C610 1.433 . S
C609 C605 1.350 . S
C609 C606 1.463 . S
C609 N613 1.427 . S
C610 H600 0.929 . S
C610 C608 1.433 . S
C610 N613 1.384 . S
C611 H602 0.929 . S
C611 C603 1.378 . S
C611 C606 1.350 . S
C612 H599 0.929 . S
C612 C604 1.433 . S
C612 N614 1.384 . S
N613 C609 1.427 . S
N613 C610 1.384 . S
N614 C606 1.427 . S
N614 C612 1.384 . S
H615 C621 0.930 . S
H616 C625 0.930 . S
H617 C630 0.929 . S
H618 C628 0.929 . S
H619 C623 0.929 . S
H620 C629 0.929 . S
C621 H615 0.930 . S
C621 C622 1.367 . S
C621 C629 1.378 . S
C622 C621 1.367 . S
C622 C630 1.433 . S
C623 H619 0.929 . S
C623 C625 1.378 . S
C623 C627 1.350 . S
C624 C627 1.463 . S
C624 C629 1.350 . S
C624 N632 1.427 . S
C625 H616 0.930 . S
C625 C623 1.378 . S
C625 C626 1.367 . S
C626 C625 1.367 . S
C626 C628 1.433 . S
C627 C623 1.350 . S
C627 C624 1.463 . S
C627 N631 1.427 . S
C628 H618 0.929 . S
C628 C626 1.433 . S
C628 N631 1.384 . S
C629 H620 0.929 . S
C629 C621 1.378 . S
C629 C624 1.350 . S
C630 H617 0.929 . S
C630 C622 1.433 . S
C630 N632 1.384 . S
N631 C627 1.427 . S
N631 C628 1.384 . S
N632 C624 1.427 . S
N632 C630 1.384 . S
C208 C16 1.741 . S
C212 C108 1.752 . S
C226 C26 1.530 . S
C230 C140 1.565 . S
C248 C199 1.893 . S
C244 C52 1.873 . S
C266 C128 1.445 . S
C262 C62 1.445 . S
C280 C80 1.670 . S
C284 C158 1.630 . S
C302 C180 1.307 . S
C298 C98 1.262 . S
C320 C149 1.751 . S
C316 C43 1.687 . S
C334 C68 1.333 . S
C338 C189 1.338 . S
C356 C138 1.631 . S
C352 C86 1.610 1_556 S
C370 C104 1.514 . S
C374 C168 1.520 . S
C388 C7 1.807 . S
C392 C171 1.813 . S
C410 C110 1.630 . S
C406 C32 1.605 1_556 S
C428 C118 1.658 . S
C424 C61 1.645 . S
C446 C159 1.513 . S
C442 C79 1.502 1_556 S
C464 C172 1.879 . S
C460 C97 1.893 . S
C482 C109 1.434 . S
C478 C14 1.447 . S
C500 C169 1.551 . S
C496 C25 1.559 1_556 S
C514 C50 1.266 . S
C518 C170 1.262 . S
C536 C139 1.646 . S
C532 C106 1.670 . S
C554 C200 1.280 . S
C550 C8 1.258 . S
C572 C127 1.543 . S
C568 C34 1.590 . S
C590 C141 1.514 . S
C586 C44 1.530 . S
C604 C70 1.802 . S
C608 C190 1.781 . S
C622 C88 1.588 . S
C626 C137 1.610 . S
