# Generated by pormake.
# Topology apo, (3,6)-cn, num edge types: 1
# Building blocks:
#     Node 0, Type 0, BuildingBlock: KAKCAD_clean_linker_0, # of connection points: 3
#     Node 1, Type 0, BuildingBlock: KAKCAD_clean_linker_0, # of connection points: 3
#     Node 2, Type 0, BuildingBlock: KAKCAD_clean_linker_0, # of connection points: 3
#     Node 3, Type 0, BuildingBlock: KAKCAD_clean_linker_0, # of connection points: 3
#     Node 4, Type 0, BuildingBlock: KAKCAD_clean_linker_0, # of connection points: 3
#     Node 5, Type 0, BuildingBlock: KAKCAD_clean_linker_0, # of connection points: 3
#     Node 6, Type 0, BuildingBlock: KAKCAD_clean_linker_0, # of connection points: 3
#     Node 7, Type 0, BuildingBlock: KAKCAD_clean_linker_0, # of connection points: 3
#     Node 8, Type 1, BuildingBlock: KUMBUR_clean_sbu_1, # of connection points: 6
#     Node 9, Type 1, BuildingBlock: KUMBUR_clean_sbu_1, # of connection points: 6
#     Node 10, Type 1, BuildingBlock: KUMBUR_clean_sbu_1, # of connection points: 6
#     Node 11, Type 1, BuildingBlock: KUMBUR_clean_sbu_1, # of connection points: 6
#     Edge 12, Type (0, 1), BuildingBlock: UVAHIK_clean_linker_0, # of connection points: 2
#     Edge 13, Type (0, 1), BuildingBlock: UVAHIK_clean_linker_0, # of connection points: 2
#     Edge 14, Type (0, 1), BuildingBlock: UVAHIK_clean_linker_0, # of connection points: 2
#     Edge 15, Type (0, 1), BuildingBlock: UVAHIK_clean_linker_0, # of connection points: 2
#     Edge 16, Type (0, 1), BuildingBlock: UVAHIK_clean_linker_0, # of connection points: 2
#     Edge 17, Type (0, 1), BuildingBlock: UVAHIK_clean_linker_0, # of connection points: 2
#     Edge 18, Type (0, 1), BuildingBlock: UVAHIK_clean_linker_0, # of connection points: 2
#     Edge 19, Type (0, 1), BuildingBlock: UVAHIK_clean_linker_0, # of connection points: 2
#     Edge 20, Type (0, 1), BuildingBlock: UVAHIK_clean_linker_0, # of connection points: 2
#     Edge 21, Type (0, 1), BuildingBlock: UVAHIK_clean_linker_0, # of connection points: 2
#     Edge 22, Type (0, 1), BuildingBlock: UVAHIK_clean_linker_0, # of connection points: 2
#     Edge 23, Type (0, 1), BuildingBlock: UVAHIK_clean_linker_0, # of connection points: 2
#     Edge 24, Type (0, 1), BuildingBlock: UVAHIK_clean_linker_0, # of connection points: 2
#     Edge 25, Type (0, 1), BuildingBlock: UVAHIK_clean_linker_0, # of connection points: 2
#     Edge 26, Type (0, 1), BuildingBlock: UVAHIK_clean_linker_0, # of connection points: 2
#     Edge 27, Type (0, 1), BuildingBlock: UVAHIK_clean_linker_0, # of connection points: 2
#     Edge 28, Type (0, 1), BuildingBlock: UVAHIK_clean_linker_0, # of connection points: 2
#     Edge 29, Type (0, 1), BuildingBlock: UVAHIK_clean_linker_0, # of connection points: 2
#     Edge 30, Type (0, 1), BuildingBlock: UVAHIK_clean_linker_0, # of connection points: 2
#     Edge 31, Type (0, 1), BuildingBlock: UVAHIK_clean_linker_0, # of connection points: 2
#     Edge 32, Type (0, 1), BuildingBlock: UVAHIK_clean_linker_0, # of connection points: 2
#     Edge 33, Type (0, 1), BuildingBlock: UVAHIK_clean_linker_0, # of connection points: 2
#     Edge 34, Type (0, 1), BuildingBlock: UVAHIK_clean_linker_0, # of connection points: 2
#     Edge 35, Type (0, 1), BuildingBlock: UVAHIK_clean_linker_0, # of connection points: 2
# Relax obj value: 0.010
# Max RMSD: 0.087
# Mean RMSD: 0.069
data_MOF--net-apo--node1-KUMBUR_clean_sbu_1--node2-KAKCAD_clean_linker_0--edge1-UVAHIK_clean_linker_0
_symmetry_space_group_name_H-M    P1
_symmetry_Int_Tables_number       1
_symmetry_cell_setting            triclinic
loop_
_symmetry_equiv_pos_as_xyz
'x, y, z'
_cell_length_a     35.63791
_cell_length_b     66.180291
_cell_length_c     77.382665
_cell_angle_alpha  89.972891
_cell_angle_beta   90.098994
_cell_angle_gamma 90.729201
loop_
_atom_site_label
_atom_site_type_symbol
_atom_site_fract_x
_atom_site_fract_y
_atom_site_fract_z
_atom_type_partial_charge
C0 C 0.29043 0.43731 0.37787 0.0
C1 C 0.32756 0.44458 0.37948 0.0
C2 C 0.27798 0.42066 0.38749 0.0
C3 C 0.30222 0.41098 0.39909 0.0
C4 C 0.33907 0.41843 0.40101 0.0
C5 C 0.35166 0.43498 0.39127 0.0
C6 C 0.28927 0.39287 0.40884 0.0
C7 C 0.2695 0.37733 0.40035 0.0
C8 C 0.25689 0.36005 0.40933 0.0
C9 C 0.26506 0.35839 0.42709 0.0
C10 C 0.28545 0.37368 0.43579 0.0
C11 C 0.29706 0.39095 0.42653 0.0
C12 C 0.29517 0.37159 0.45445 0.0
C13 C 0.26983 0.36266 0.4662 0.0
C14 C 0.33009 0.37858 0.46068 0.0
C15 C 0.33923 0.37697 0.47817 0.0
C16 C 0.31399 0.368 0.48993 0.0
C17 C 0.23611 0.34365 0.39993 0.0
C18 C 0.21204 0.34836 0.38608 0.0
C19 C 0.24106 0.32317 0.40425 0.0
C20 C 0.22312 0.30787 0.39474 0.0
C21 C 0.20046 0.31271 0.38052 0.0
C22 C 0.19483 0.33307 0.37636 0.0
C23 C 0.2792 0.3608 0.48369 0.0
H24 H 0.2708 0.44454 0.36923 0.0
H25 H 0.24925 0.41542 0.38594 0.0
H26 H 0.35849 0.41113 0.40972 0.0
H27 H 0.38058 0.43991 0.39269 0.0
H28 H 0.26495 0.37853 0.38655 0.0
H29 H 0.31167 0.40316 0.43314 0.0
H30 H 0.25581 0.34512 0.43414 0.0
H31 H 0.24251 0.3573 0.46195 0.0
H32 H 0.35063 0.38524 0.45201 0.0
H33 H 0.36604 0.383 0.48246 0.0
H34 H 0.20656 0.3639 0.38262 0.0
H35 H 0.2597 0.31883 0.41463 0.0
H36 H 0.25919 0.35356 0.49228 0.0
H37 H 0.17705 0.33715 0.36557 0.0
H38 H 0.22799 0.29223 0.39811 0.0
C39 C 0.23099 0.04927 0.87425 0.0
C40 C 0.19526 0.04084 0.87743 0.0
C41 C 0.24388 0.06594 0.88375 0.0
C42 C 0.22117 0.07462 0.89653 0.0
C43 C 0.18542 0.06613 0.89966 0.0
C44 C 0.17271 0.04939 0.89028 0.0
C45 C 0.23416 0.09267 0.90642 0.0
C46 C 0.25415 0.1084 0.89827 0.0
C47 C 0.26434 0.126 0.90739 0.0
C48 C 0.25385 0.12792 0.92481 0.0
C49 C 0.23418 0.11222 0.93324 0.0
C50 C 0.22523 0.09454 0.92399 0.0
C51 C 0.22229 0.11414 0.95159 0.0
C52 C 0.24554 0.12372 0.9639 0.0
C53 C 0.1876 0.10595 0.957 0.0
C54 C 0.17694 0.10674 0.97431 0.0
C55 C 0.20039 0.11604 0.98661 0.0
C56 C 0.285 0.14254 0.89843 0.0
C57 C 0.31606 0.13819 0.88799 0.0
C58 C 0.27308 0.16262 0.89973 0.0
C59 C 0.29113 0.17796 0.89033 0.0
C60 C 0.32185 0.1736 0.87958 0.0
C61 C 0.33443 0.15354 0.87879 0.0
C62 C 0.23459 0.12475 0.98122 0.0
H63 H 0.24911 0.04285 0.86452 0.0
H64 H 0.27172 0.07193 0.88116 0.0
H65 H 0.16683 0.07266 0.90913 0.0
H66 H 0.1448 0.04344 0.89281 0.0
H67 H 0.26067 0.10732 0.88463 0.0
H68 H 0.21136 0.08205 0.93052 0.0
H69 H 0.26087 0.14169 0.93173 0.0
H70 H 0.27258 0.13001 0.96025 0.0
H71 H 0.16846 0.09894 0.94785 0.0
H72 H 0.1501 0.10025 0.97805 0.0
H73 H 0.32618 0.12287 0.88695 0.0
H74 H 0.249 0.16637 0.90757 0.0
H75 H 0.25326 0.13193 0.99049 0.0
H76 H 0.35851 0.14961 0.87103 0.0
H77 H 0.28019 0.19311 0.89114 0.0
C78 C 0.79432 0.05292 0.63656 0.0
C79 C 0.83061 0.04532 0.63429 0.0
C80 C 0.78181 0.06906 0.62656 0.0
C81 C 0.80537 0.07802 0.61409 0.0
C82 C 0.84157 0.07029 0.61172 0.0
C83 C 0.85402 0.05409 0.62168 0.0
C84 C 0.79243 0.09556 0.60378 0.0
C85 C 0.77153 0.1109 0.61158 0.0
C86 C 0.75944 0.12769 0.60204 0.0
C87 C 0.76893 0.12912 0.58443 0.0
C88 C 0.79025 0.11401 0.57647 0.0
C89 C 0.80151 0.09723 0.58621 0.0
C90 C 0.80147 0.11569 0.55807 0.0
C91 C 0.77541 0.12125 0.54534 0.0
C92 C 0.83838 0.11128 0.5531 0.0
C93 C 0.84899 0.11226 0.53576 0.0
C94 C 0.82291 0.11763 0.52298 0.0
C95 C 0.73807 0.1439 0.61081 0.0
C96 C 0.71051 0.13893 0.62313 0.0
C97 C 0.7464 0.1644 0.60767 0.0
C98 C 0.72854 0.17953 0.61711 0.0
C99 C 0.70201 0.17449 0.6299 0.0
C100 C 0.69276 0.15402 0.63258 0.0
C101 C 0.78599 0.12214 0.52795 0.0
H102 H 0.77543 0.04626 0.64599 0.0
H103 H 0.75354 0.07442 0.6285 0.0
H104 H 0.86064 0.07702 0.60241 0.0
H105 H 0.88231 0.04874 0.61977 0.0
H106 H 0.76568 0.11007 0.6253 0.0
H107 H 0.81697 0.08527 0.57998 0.0
H108 H 0.76007 0.14208 0.57696 0.0
H109 H 0.74671 0.12458 0.54879 0.0
H110 H 0.85917 0.10712 0.56264 0.0
H111 H 0.87753 0.10852 0.53234 0.0
H112 H 0.70287 0.1233 0.62561 0.0
H113 H 0.76773 0.16876 0.5984 0.0
H114 H 0.76536 0.12651 0.51841 0.0
H115 H 0.67188 0.14963 0.64206 0.0
H116 H 0.73652 0.19515 0.61482 0.0
C117 C 0.72421 0.4349 0.13676 0.0
C118 C 0.68867 0.44306 0.13349 0.0
C119 C 0.73707 0.41853 0.12712 0.0
C120 C 0.71458 0.40982 0.11407 0.0
C121 C 0.67902 0.41804 0.11082 0.0
C122 C 0.66631 0.43451 0.12037 0.0
C123 C 0.72797 0.39217 0.10397 0.0
C124 C 0.74829 0.37673 0.11204 0.0
C125 C 0.7607 0.35988 0.10266 0.0
C126 C 0.75201 0.35846 0.08494 0.0
C127 C 0.73126 0.37364 0.0767 0.0
C128 C 0.71985 0.3905 0.08627 0.0
C129 C 0.7205 0.37185 0.05819 0.0
C130 C 0.74656 0.36574 0.04569 0.0
C131 C 0.68385 0.37652 0.05292 0.0
C132 C 0.67346 0.37515 0.03556 0.0
C133 C 0.69946 0.36909 0.02301 0.0
C134 C 0.7817 0.34361 0.11166 0.0
C135 C 0.80865 0.34852 0.12433 0.0
C136 C 0.77394 0.3231 0.10824 0.0
C137 C 0.79185 0.30791 0.11765 0.0
C138 C 0.81787 0.31288 0.13071 0.0
C139 C 0.82643 0.33337 0.13375 0.0
C140 C 0.73618 0.36445 0.02825 0.0
H141 H 0.74228 0.44133 0.14665 0.0
H142 H 0.76484 0.41283 0.12979 0.0
H143 H 0.66063 0.41153 0.1011 0.0
H144 H 0.63857 0.44027 0.11771 0.0
H145 H 0.75347 0.37753 0.12582 0.0
H146 H 0.70494 0.40252 0.0798 0.0
H147 H 0.76103 0.34546 0.0776 0.0
H148 H 0.77507 0.36218 0.04935 0.0
H149 H 0.66301 0.38107 0.06226 0.0
H150 H 0.64506 0.37899 0.03193 0.0
H151 H 0.81592 0.36414 0.12705 0.0
H152 H 0.75308 0.31875 0.0987 0.0
H153 H 0.75675 0.35955 0.01891 0.0
H154 H 0.84691 0.33773 0.14346 0.0
H155 H 0.78439 0.29228 0.11507 0.0
C156 C 0.69005 0.56077 0.63676 0.0
C157 C 0.69226 0.54121 0.62977 0.0
C158 C 0.70265 0.57753 0.62739 0.0
C159 C 0.71761 0.57521 0.61073 0.0
C160 C 0.71948 0.55571 0.60361 0.0
C161 C 0.70703 0.53888 0.61304 0.0
C162 C 0.73076 0.59322 0.60089 0.0
C163 C 0.75135 0.60855 0.60924 0.0
C164 C 0.76132 0.62655 0.60063 0.0
C165 C 0.75182 0.62857 0.58302 0.0
C166 C 0.73217 0.61305 0.57424 0.0
C167 C 0.72146 0.59553 0.5834 0.0
C168 C 0.72175 0.61516 0.55567 0.0
C169 C 0.70983 0.63377 0.54893 0.0
C170 C 0.72259 0.5983 0.54461 0.0
C171 C 0.71089 0.59986 0.52743 0.0
C172 C 0.69838 0.61835 0.5208 0.0
C173 C 0.78068 0.64324 0.6103 0.0
C174 C 0.77254 0.64649 0.62789 0.0
C175 C 0.80742 0.65597 0.60225 0.0
C176 C 0.82563 0.67136 0.6116 0.0
C177 C 0.81803 0.67405 0.62924 0.0
C178 C 0.79132 0.66151 0.63727 0.0
C179 C 0.69843 0.63536 0.53167 0.0
H180 H 0.67804 0.56322 0.64942 0.0
H181 H 0.70009 0.59238 0.6331 0.0
H182 H 0.73111 0.55344 0.59084 0.0
H183 H 0.70951 0.52403 0.60733 0.0
H184 H 0.7597 0.60633 0.62256 0.0
H185 H 0.70467 0.58394 0.57707 0.0
H186 H 0.75941 0.64228 0.57617 0.0
H187 H 0.7083 0.64702 0.55709 0.0
H188 H 0.73236 0.58383 0.54921 0.0
H189 H 0.71185 0.58656 0.51929 0.0
H190 H 0.75135 0.63753 0.63449 0.0
H191 H 0.81485 0.65386 0.58882 0.0
H192 H 0.68867 0.64979 0.52696 0.0
H193 H 0.78456 0.66352 0.6508 0.0
H194 H 0.84624 0.68087 0.60516 0.0
C195 C 0.78277 0.86268 0.02478 0.0
C196 C 0.82013 0.86648 0.01962 0.0
C197 C 0.77244 0.864 0.04219 0.0
C198 C 0.79903 0.86949 0.0548 0.0
C199 C 0.83637 0.87295 0.04979 0.0
C200 C 0.84688 0.87125 0.03247 0.0
C201 C 0.78774 0.87234 0.07307 0.0
C202 C 0.76746 0.8572 0.08191 0.0
C203 C 0.75714 0.8598 0.09934 0.0
C204 C 0.76666 0.87815 0.10759 0.0
C205 C 0.78749 0.89327 0.09904 0.0
C206 C 0.79791 0.89021 0.08177 0.0
C207 C 0.79964 0.91185 0.10846 0.0
C208 C 0.77509 0.92164 0.11984 0.0
C209 C 0.8365 0.9194 0.10674 0.0
C210 C 0.84879 0.936 0.11649 0.0
C211 C 0.82454 0.94546 0.12821 0.0
C212 C 0.73779 0.84324 0.10921 0.0
C213 C 0.71222 0.82984 0.1011 0.0
C214 C 0.745 0.84064 0.12699 0.0
C215 C 0.72658 0.82554 0.13643 0.0
C216 C 0.70122 0.81226 0.12831 0.0
C217 C 0.69444 0.81438 0.11053 0.0
C218 C 0.78738 0.93824 0.1296 0.0
H219 H 0.76115 0.85925 0.01535 0.0
H220 H 0.74338 0.86137 0.04573 0.0
H221 H 0.85753 0.87694 0.05931 0.0
H222 H 0.8761 0.87372 0.02922 0.0
H223 H 0.76107 0.84313 0.07532 0.0
H224 H 0.81346 0.90192 0.07495 0.0
H225 H 0.7585 0.88059 0.12089 0.0
H226 H 0.74638 0.91636 0.12132 0.0
H227 H 0.85624 0.91213 0.0982 0.0
H228 H 0.87743 0.94134 0.11491 0.0
H229 H 0.70547 0.83142 0.08753 0.0
H230 H 0.76531 0.85009 0.13369 0.0
H231 H 0.76801 0.94505 0.13858 0.0
H232 H 0.67486 0.8043 0.104 0.0
H233 H 0.73268 0.824 0.15009 0.0
C234 C 0.19309 0.92556 0.36862 0.0
C235 C 0.18997 0.94433 0.37684 0.0
C236 C 0.20458 0.9086 0.37788 0.0
C237 C 0.21411 0.91012 0.39552 0.0
C238 C 0.2114 0.92912 0.40363 0.0
C239 C 0.19903 0.94597 0.39443 0.0
C240 C 0.22609 0.8919 0.40541 0.0
C241 C 0.24609 0.87642 0.39722 0.0
C242 C 0.25541 0.85859 0.40605 0.0
C243 C 0.24591 0.85668 0.4236 0.0
C244 C 0.2269 0.87222 0.43218 0.0
C245 C 0.21674 0.8896 0.42295 0.0
C246 C 0.21682 0.87025 0.45071 0.0
C247 C 0.20025 0.85237 0.45702 0.0
C248 C 0.22314 0.88642 0.46216 0.0
C249 C 0.21326 0.88472 0.47958 0.0
C250 C 0.19641 0.86687 0.48594 0.0
C251 C 0.27425 0.84189 0.39668 0.0
C252 C 0.26333 0.83697 0.37971 0.0
C253 C 0.30325 0.83085 0.40444 0.0
C254 C 0.32131 0.81552 0.39531 0.0
C255 C 0.31078 0.8109 0.37821 0.0
C256 C 0.28135 0.82171 0.3706 0.0
C257 C 0.18991 0.85075 0.47439 0.0
H258 H 0.18583 0.92391 0.35509 0.0
H259 H 0.20528 0.89424 0.37121 0.0
H260 H 0.21912 0.93109 0.41707 0.0
H261 H 0.19705 0.96038 0.40099 0.0
H262 H 0.25483 0.87827 0.38391 0.0
H263 H 0.20043 0.90103 0.42941 0.0
H264 H 0.25304 0.84306 0.43058 0.0
H265 H 0.19454 0.83977 0.44844 0.0
H266 H 0.23622 0.90032 0.45767 0.0
H267 H 0.2194 0.89733 0.48807 0.0
H268 H 0.24053 0.84483 0.37346 0.0
H269 H 0.31255 0.83434 0.41744 0.0
H270 H 0.1763 0.83691 0.47865 0.0
H271 H 0.27192 0.81826 0.35761 0.0
H272 H 0.34407 0.80759 0.40151 0.0
C273 C 0.28853 0.62665 0.97965 0.0
C274 C 0.32218 0.61817 0.98557 0.0
C275 C 0.27845 0.62538 0.96221 0.0
C276 C 0.30196 0.61575 0.95028 0.0
C277 C 0.33589 0.60754 0.95622 0.0
C278 C 0.34574 0.60863 0.97367 0.0
C279 C 0.2911 0.61394 0.93174 0.0
C280 C 0.27316 0.62987 0.92307 0.0
C281 C 0.26382 0.62823 0.90544 0.0
C282 C 0.27274 0.61041 0.89654 0.0
C283 C 0.29097 0.59448 0.9049 0.0
C284 C 0.29943 0.59626 0.92254 0.0
C285 C 0.30266 0.57636 0.89503 0.0
C286 C 0.2792 0.56785 0.88227 0.0
C287 C 0.33813 0.5679 0.8979 0.0
C288 C 0.35007 0.55151 0.88809 0.0
C289 C 0.32688 0.54323 0.87513 0.0
C290 C 0.2456 0.64516 0.89608 0.0
C291 C 0.21712 0.65652 0.90387 0.0
C292 C 0.25602 0.64975 0.87898 0.0
C293 C 0.2377 0.6648 0.86973 0.0
C294 C 0.20869 0.67583 0.87735 0.0
C295 C 0.19893 0.67175 0.89462 0.0
C296 C 0.29123 0.55149 0.8724 0.0
H297 H 0.26967 0.63396 0.98858 0.0
H298 H 0.25192 0.63163 0.95815 0.0
H299 H 0.35514 0.60043 0.94737 0.0
H300 H 0.37214 0.60227 0.9778 0.0
H301 H 0.26759 0.6438 0.92989 0.0
H302 H 0.3123 0.58368 0.92916 0.0
H303 H 0.26595 0.60903 0.88294 0.0
H304 H 0.2515 0.57381 0.87992 0.0
H305 H 0.35718 0.57431 0.90741 0.0
H306 H 0.37791 0.54567 0.89034 0.0
H307 H 0.2082 0.65331 0.91697 0.0
H308 H 0.2785 0.64172 0.8727 0.0
H309 H 0.27253 0.54524 0.86267 0.0
H310 H 0.17657 0.67995 0.90082 0.0
H311 H 0.24648 0.66789 0.85659 0.0
Tb312 Tb 0.05043 0.12706 0.23828 0.0
C313 C 0.8848 0.1114 0.25874 0.0
N314 N 0.9031 0.12953 0.25804 0.0
C315 C 0.85063 0.14432 0.24362 0.0
C316 C 0.8487 0.10895 0.25154 0.0
C317 C 0.88657 0.14598 0.25078 0.0
C318 C 0.83162 0.12573 0.24396 0.0
C319 C 0.88549 0.07589 0.26651 0.0
C320 C 0.90321 0.09505 0.26604 0.0
C321 C 0.84947 0.07337 0.25934 0.0
C322 C 0.83112 0.08985 0.2519 0.0
Tb323 Tb 0.96048 0.13045 0.27081 0.0
N324 N 0.93841 0.09793 0.27261 0.0
C325 C 0.90434 0.05988 0.27432 0.0
C326 C 0.95564 0.08268 0.28131 0.0
C327 C 0.93934 0.06337 0.28196 0.0
H328 H 0.90077 0.16048 0.25078 0.0
H329 H 0.95344 0.05128 0.28867 0.0
H330 H 0.10379 0.09091 0.25483 0.0
H331 H 0.08241 0.20322 0.21784 0.0
H332 H 0.98107 0.08535 0.28841 0.0
H333 H 0.89169 0.04492 0.27496 0.0
H334 H 0.04245 0.17293 0.22163 0.0
H335 H 0.83756 0.1574 0.23789 0.0
H336 H 0.83549 0.05874 0.25956 0.0
H337 H 0.80339 0.08765 0.24641 0.0
H338 H 0.16804 0.08791 0.26626 0.0
H339 H 0.80384 0.12447 0.23832 0.0
H340 H 0.1481 0.20328 0.22828 0.0
N341 N 0.10918 0.12231 0.24935 0.0
C342 C 0.13303 0.13847 0.24831 0.0
C343 C 0.15841 0.1023 0.26144 0.0
C344 C 0.17051 0.13723 0.25398 0.0
C345 C 0.12166 0.10417 0.2553 0.0
C346 C 0.18288 0.11894 0.2609 0.0
N347 N 0.08389 0.15646 0.23527 0.0
C348 C 0.07047 0.17297 0.22682 0.0
C349 C 0.14448 0.17277 0.23833 0.0
C350 C 0.12027 0.15598 0.24058 0.0
C351 C 0.13046 0.19002 0.23022 0.0
C352 C 0.09332 0.19008 0.22439 0.0
H353 H 0.21149 0.11736 0.2654 0.0
H354 H 0.22354 0.15342 0.25641 0.0
H355 H 0.20068 0.18455 0.24275 0.0
O356 O 0.04486 0.12928 0.21116 0.0
O357 O 0.05812 0.14897 0.2595 0.0
O358 O 1.00389 0.15266 0.27619 0.0
O359 O 0.08275 0.10817 0.22262 0.0
O360 O 1.0006 0.14378 0.23009 0.0
O361 O 0.97118 0.1569 0.2544 0.0
O362 O 0.94767 0.12539 0.29729 0.0
O363 O 0.95378 0.11764 0.24465 0.0
O364 O 0.01002 0.10233 0.24149 0.0
O365 O 0.92513 0.15103 0.28314 0.0
O366 O 0.01254 0.11729 0.28105 0.0
O367 O 0.03874 0.1031 0.25692 0.0
C368 C 0.03877 0.15717 0.27215 0.0
C369 C 0.10141 0.1229 0.19622 0.0
C370 C 0.12363 0.12846 0.1668 0.0
C371 C 0.15797 0.13573 0.17339 0.0
C372 C 0.13652 0.12953 0.20244 0.0
C373 C 0.16437 0.13616 0.19112 0.0
C374 C 0.09524 0.12209 0.17828 0.0
C375 C 0.98018 0.15757 0.23787 0.0
C376 C 0.07159 0.11646 0.20832 0.0
C377 C 0.19464 0.15406 0.2521 0.0
C378 C 0.18167 0.17177 0.24427 0.0
C379 C 0.97447 0.10371 0.2375 0.0
C380 C 0.90729 0.14857 0.31334 0.0
C381 C 0.8934 0.14658 0.34416 0.0
C382 C 0.87069 0.16363 0.34263 0.0
C383 C 0.88441 0.16566 0.31214 0.0
C384 C 0.91184 0.13901 0.32951 0.0
C385 C 0.86629 0.17311 0.32671 0.0
C386 C 0.03717 0.10537 0.27375 0.0
C387 C 0.92727 0.14155 0.2978 0.0
H388 H 0.18029 0.14056 0.16477 0.0
H389 H 0.14288 0.12928 0.216 0.0
H390 H 0.1912 0.14135 0.1961 0.0
H391 H 0.06857 0.11657 0.17328 0.0
H392 H 0.85636 0.16961 0.35382 0.0
H393 H 0.88063 0.1734 0.29994 0.0
H394 H 0.92957 0.1259 0.33073 0.0
H395 H 0.8488 0.1863 0.32565 0.0
Tb396 Tb 0.46615 0.35499 0.73919 0.0
C397 C 0.63381 0.37058 0.7548 0.0
N398 N 0.61327 0.35338 0.75732 0.0
C399 C 0.66288 0.33388 0.74494 0.0
C400 C 0.6691 0.37019 0.74661 0.0
C401 C 0.62845 0.33504 0.75351 0.0
C402 C 0.683 0.35158 0.74118 0.0
C403 C 0.64257 0.40626 0.76099 0.0
C404 C 0.62082 0.38837 0.7618 0.0
C405 C 0.67688 0.40621 0.75209 0.0
C406 C 0.69007 0.38821 0.74486 0.0
Tb407 Tb 0.55673 0.35753 0.77092 0.0
N408 N 0.58739 0.38787 0.77014 0.0
C409 C 0.62965 0.42344 0.7696 0.0
C410 C 0.57567 0.40416 0.77943 0.0
C411 C 0.59633 0.42228 0.77909 0.0
H412 H 0.61463 0.32118 0.7574 0.0
H413 H 0.58661 0.4353 0.78617 0.0
H414 H 0.40415 0.38114 0.76113 0.0
H415 H 0.46482 0.27716 0.71711 0.0
H416 H 0.55022 0.40318 0.78695 0.0
H417 H 0.64562 0.43747 0.76935 0.0
H418 H 0.48591 0.3126 0.71705 0.0
H419 H 0.67426 0.31932 0.7416 0.0
H420 H 0.69388 0.41985 0.75114 0.0
H421 H 0.71712 0.38825 0.73849 0.0
H422 H 0.34618 0.37438 0.77765 0.0
H423 H 0.70999 0.35061 0.73483 0.0
H424 H 0.41065 0.26655 0.73505 0.0
N425 N 0.41218 0.35035 0.75447 0.0
C426 C 0.39741 0.33134 0.75455 0.0
C427 C 0.36056 0.36209 0.77139 0.0
C428 C 0.36439 0.32673 0.76379 0.0
C429 C 0.39365 0.36585 0.76217 0.0
C430 C 0.34608 0.34239 0.77238 0.0
N431 N 0.44747 0.3218 0.73649 0.0
C432 C 0.46385 0.30811 0.72577 0.0
C433 C 0.40196 0.2965 0.74538 0.0
C434 C 0.41604 0.3165 0.74548 0.0
C435 C 0.42052 0.28209 0.73546 0.0
C436 C 0.45123 0.288 0.7254 0.0
H437 H 0.32051 0.33951 0.77957 0.0
H438 H 0.32552 0.30283 0.77119 0.0
H439 H 0.35844 0.27633 0.75509 0.0
O440 O 0.43846 0.3502 0.71537 0.0
O441 O 0.46514 0.34443 0.76614 0.0
O442 O 0.52209 0.33003 0.7712 0.0
O443 O 0.43672 0.37899 0.72804 0.0
O444 O 0.51794 0.34101 0.72979 0.0
O445 O 0.55074 0.33062 0.75419 0.0
O446 O 0.54727 0.36051 0.79761 0.0
O447 O 0.5467 0.38186 0.75225 0.0
O448 O 0.5194 0.36647 0.72872 0.0
O449 O 0.5993 0.34893 0.78819 0.0
O450 O 0.50509 0.37247 0.77907 0.0
O451 O 0.47328 0.38283 0.75436 0.0
C452 C 0.48534 0.32965 0.77226 0.0
C453 C 0.44027 0.37909 0.6975 0.0
C454 C 0.4367 0.38131 0.66598 0.0
C455 C 0.46295 0.39734 0.6664 0.0
C456 C 0.46636 0.39522 0.69752 0.0
C457 C 0.47748 0.40427 0.68206 0.0
C458 C 0.42521 0.37229 0.68165 0.0
C459 C 0.54277 0.32941 0.73753 0.0
C460 C 0.42944 0.36908 0.71388 0.0
C461 C 0.35074 0.30674 0.76407 0.0
C462 C 0.36953 0.29165 0.75492 0.0
C463 C 0.54141 0.38042 0.73551 0.0
C464 C 0.58001 0.33862 0.81597 0.0
C465 C 0.5897 0.33166 0.84661 0.0
C466 C 0.58028 0.31125 0.84355 0.0
C467 C 0.57049 0.31828 0.81316 0.0
C468 C 0.58969 0.34526 0.83265 0.0
C469 C 0.5708 0.30465 0.82693 0.0
C470 C 0.48237 0.38484 0.77085 0.0
C471 C 0.57975 0.3533 0.8018 0.0
H472 H 0.47185 0.40475 0.65458 0.0
H473 H 0.47834 0.40083 0.70948 0.0
H474 H 0.49746 0.41672 0.68222 0.0
H475 H 0.40516 0.35984 0.68149 0.0
H476 H 0.58057 0.30035 0.85399 0.0
H477 H 0.56288 0.31298 0.80036 0.0
H478 H 0.59657 0.36108 0.83479 0.0
H479 H 0.56364 0.28892 0.82473 0.0
Tb480 Tb 0.05445 0.85735 0.73799 0.0
C481 C 0.89714 0.82849 0.75482 0.0
N482 N 0.91046 0.84778 0.75443 0.0
C483 C 0.85816 0.85777 0.73703 0.0
C484 C 0.86451 0.82284 0.74564 0.0
C485 C 0.89091 0.86258 0.74621 0.0
C486 C 0.8451 0.83777 0.73658 0.0
C487 C 0.90433 0.79415 0.7649 0.0
C488 C 0.91689 0.81441 0.76427 0.0
C489 C 0.87237 0.78823 0.7554 0.0
C490 C 0.85244 0.80256 0.74582 0.0
Tb491 Tb 0.96409 0.85415 0.76963 0.0
N492 N 0.94776 0.82075 0.77322 0.0
C493 C 0.92378 0.78058 0.77535 0.0
C494 C 0.9648 0.80792 0.78453 0.0
C495 C 0.95374 0.78758 0.78544 0.0
H496 H 0.90051 0.87809 0.74673 0.0
H497 H 0.96793 0.77741 0.79417 0.0
H498 H 0.1124 0.82093 0.75179 0.0
H499 H 0.08572 0.93491 0.72253 0.0
H500 H 0.98622 0.8133 0.79328 0.0
H501 H 0.91508 0.76486 0.7762 0.0
H502 H 0.0493 0.90277 0.72136 0.0
H503 H 0.843 0.86949 0.73033 0.0
H504 H 0.86246 0.77269 0.75561 0.0
H505 H 0.8276 0.79785 0.73873 0.0
H506 H 0.17097 0.81917 0.76853 0.0
H507 H 0.81983 0.83407 0.72938 0.0
H508 H 0.1433 0.93724 0.74045 0.0
N509 N 0.11043 0.85314 0.75218 0.0
C510 C 0.13058 0.8704 0.75508 0.0
C511 C 0.15958 0.83372 0.76512 0.0
C512 C 0.16531 0.87007 0.76382 0.0
C513 C 0.12576 0.83482 0.75599 0.0
C514 C 0.17909 0.85146 0.76937 0.0
N515 N 0.08518 0.88764 0.73893 0.0
C516 C 0.07422 0.90383 0.72929 0.0
C517 C 0.13962 0.90609 0.74896 0.0
C518 C 0.11798 0.88818 0.74785 0.0
C519 C 0.12738 0.9232 0.73999 0.0
C520 C 0.09487 0.92195 0.72987 0.0
H521 H 0.20564 0.85055 0.77616 0.0
H522 H 0.21253 0.88823 0.77279 0.0
H523 H 0.19004 0.91979 0.7597 0.0
O524 O 0.04422 0.85835 0.71113 0.0
O525 O 0.04324 0.88205 0.75617 0.0
O526 O 0.01689 0.86655 0.77981 0.0
O527 O 0.09842 0.85065 0.72103 0.0
O528 O 1.00291 0.87236 0.72968 0.0
O529 O 0.96953 0.8819 0.7542 0.0
O530 O 0.93786 0.84992 0.79387 0.0
O531 O 0.96322 0.84363 0.74264 0.0
O532 O 0.02052 0.82962 0.73773 0.0
O533 O 0.93256 0.87777 0.77998 0.0
O534 O 0.0169 0.84133 0.77911 0.0
O535 O 0.04859 0.83047 0.7547 0.0
C536 C 0.03744 0.88101 0.77289 0.0
C537 C 0.08235 0.83776 0.69367 0.0
C538 C 0.09597 0.83018 0.66338 0.0
C539 C 0.09776 0.80953 0.66781 0.0
C540 C 0.08345 0.81714 0.69767 0.0
C541 C 0.09113 0.80311 0.68475 0.0
C542 C 0.08798 0.84419 0.67655 0.0
C543 C 0.97911 0.8842 0.7378 0.0
C544 C 0.07811 0.85299 0.70727 0.0
C545 C 0.18596 0.88815 0.76596 0.0
C546 C 0.1732 0.90612 0.75848 0.0
C547 C 0.9838 0.82909 0.73635 0.0
C548 C 0.93724 0.87999 0.81044 0.0
C549 C 0.93517 0.88414 0.84193 0.0
C550 C 0.95605 0.90225 0.84014 0.0
C551 C 0.95872 0.89791 0.80921 0.0
C552 C 0.9256 0.87312 0.82688 0.0
C553 C 0.96789 0.90893 0.82396 0.0
C554 C 0.04131 0.82954 0.7714 0.0
C555 C 0.92699 0.86856 0.79463 0.0
H556 H 0.10498 0.79826 0.6583 0.0
H557 H 0.07914 0.81197 0.71082 0.0
H558 H 0.09263 0.78721 0.68793 0.0
H559 H 0.08636 0.86017 0.67362 0.0
H560 H 0.96296 0.9115 0.85126 0.0
H561 H 0.96842 0.90352 0.79683 0.0
H562 H 0.90954 0.85916 0.8279 0.0
H563 H 0.98412 0.9228 0.82284 0.0
Tb564 Tb 0.4621 0.63209 0.23739 0.0
C565 C 0.62563 0.6514 0.25484 0.0
N566 N 0.60823 0.63301 0.25484 0.0
C567 C 0.65982 0.61879 0.23939 0.0
C568 C 0.6604 0.65436 0.24651 0.0
C569 C 0.62521 0.61663 0.24773 0.0
C570 C 0.67739 0.63777 0.23866 0.0
C571 C 0.6245 0.68681 0.26273 0.0
C572 C 0.60778 0.66739 0.26284 0.0
C573 C 0.65899 0.68992 0.25429 0.0
C574 C 0.67693 0.67373 0.24624 0.0
Tb575 Tb 0.55269 0.63105 0.26928 0.0
N576 N 0.57419 0.66385 0.27078 0.0
C577 C 0.60629 0.70249 0.27128 0.0
C578 C 0.5578 0.67882 0.28014 0.0
C579 C 0.57306 0.6984 0.28021 0.0
H580 H 0.61243 0.60183 0.24868 0.0
H581 H 0.55955 0.71025 0.28745 0.0
H582 H 0.40561 0.6656 0.25676 0.0
H583 H 0.43514 0.55768 0.21219 0.0
H584 H 0.53386 0.67576 0.28816 0.0
H585 H 0.61816 0.71764 0.27148 0.0
H586 H 0.47256 0.58862 0.21735 0.0
H587 H 0.67303 0.6058 0.23362 0.0
H588 H 0.67218 0.70476 0.25404 0.0
H589 H 0.70361 0.67634 0.23986 0.0
H590 H 0.34278 0.66549 0.26946 0.0
H591 H 0.70416 0.6394 0.23216 0.0
H592 H 0.37089 0.55464 0.22406 0.0
N593 N 0.4047 0.63421 0.25055 0.0
C594 C 0.38229 0.61752 0.24866 0.0
C595 C 0.35381 0.65176 0.26397 0.0
C596 C 0.345 0.6172 0.25474 0.0
C597 C 0.39021 0.65155 0.25728 0.0
C598 C 0.33121 0.63444 0.26286 0.0
N599 N 0.43172 0.60209 0.23352 0.0
C600 C 0.44541 0.58708 0.2233 0.0
C601 C 0.37296 0.58404 0.23636 0.0
C602 C 0.39593 0.60115 0.2395 0.0
C603 C 0.38761 0.56808 0.22672 0.0
C604 C 0.42392 0.56968 0.22007 0.0
H605 H 0.3027 0.63481 0.26769 0.0
H606 H 0.29352 0.59952 0.25654 0.0
H607 H 0.31809 0.57046 0.24053 0.0
O608 O 0.46945 0.63378 0.20998 0.0
O609 O 0.46616 0.60624 0.25531 0.0
O610 O 0.49956 0.61828 0.27891 0.0
O611 O 0.41881 0.64368 0.22246 0.0
O612 O 0.51291 0.61654 0.22881 0.0
O613 O 0.54261 0.60406 0.25339 0.0
O614 O 0.5768 0.63686 0.29381 0.0
O615 O 0.55573 0.64317 0.24279 0.0
O616 O 0.49927 0.65853 0.23903 0.0
O617 O 0.58271 0.60753 0.28127 0.0
O618 O 0.50184 0.64482 0.27967 0.0
O619 O 0.46977 0.65716 0.25582 0.0
C620 C 0.47573 0.6054 0.27176 0.0
C621 C 0.42489 0.65332 0.19309 0.0
C622 C 0.41045 0.65532 0.16224 0.0
C623 C 0.39135 0.67345 0.16525 0.0
C624 C 0.40614 0.67164 0.1957 0.0
C625 C 0.38938 0.68156 0.18183 0.0
C626 C 0.42701 0.64524 0.17628 0.0
C627 C 0.53411 0.60314 0.23677 0.0
C628 C 0.43557 0.64056 0.20789 0.0
C629 C 0.32223 0.60001 0.25196 0.0
C630 C 0.33616 0.58348 0.24278 0.0
C631 C 0.53558 0.65787 0.23645 0.0
C632 C 0.61266 0.61159 0.30948 0.0
C633 C 0.62709 0.61115 0.34035 0.0
C634 C 0.65539 0.59708 0.33721 0.0
C635 C 0.64111 0.5975 0.30667 0.0
C636 C 0.6059 0.61861 0.32641 0.0
C637 C 0.66245 0.5904 0.32047 0.0
C638 C 0.47654 0.65661 0.2726 0.0
C639 C 0.59048 0.6188 0.29463 0.0
H640 H 0.37727 0.68118 0.15478 0.0
H641 H 0.40315 0.67791 0.20855 0.0
H642 H 0.37413 0.69537 0.18399 0.0
H643 H 0.44061 0.63088 0.17423 0.0
H644 H 0.67193 0.59119 0.3478 0.0
H645 H 0.64702 0.59208 0.29376 0.0
H646 H 0.5839 0.62942 0.32879 0.0
H647 H 0.6844 0.57957 0.31819 0.0
C648 C 0.19494 0.96794 0.35172 0.0
C649 C 0.17687 0.96208 0.36704 0.0
C650 C 0.18199 0.98437 0.34218 0.0
C651 C 0.11655 0.02832 0.34451 0.0
H652 H 0.12799 0.02665 0.29477 0.0
C653 C 0.06842 0.09455 0.30119 0.0
C654 C 0.05497 0.08985 0.28463 0.0
C655 C 0.085 0.07962 0.3114 0.0
C656 C 0.12396 0.02731 0.30862 0.0
H657 H 0.13108 0.96853 0.38441 0.0
H658 H 0.10703 -0.00349 0.36737 0.0
H659 H 0.15175 -0.00072 0.31211 0.0
H660 H 0.0468 0.06581 0.26594 0.0
H661 H 0.07381 0.03969 0.28387 0.0
H662 H 0.08629 0.05564 0.34086 0.0
C663 C 0.1321 0.98907 0.36294 0.0
C664 C 0.13841 0.0117 0.31868 0.0
C665 C 0.14565 0.97292 0.37269 0.0
C666 C 0.05766 0.06994 0.27856 0.0
C667 C 0.07344 0.05496 0.28885 0.0
C668 C 0.10129 0.04371 0.3344 0.0
C669 C 0.15001 -0.00497 0.34749 0.0
C670 C 0.13499 0.01194 0.3368 0.0
C671 C 0.08765 0.05957 0.3054 0.0
C672 C 0.1047 0.04343 0.31629 0.0
H673 H 0.21932 0.95988 0.34721 0.0
H674 H 0.19727 0.9887 0.33065 0.0
H675 H 0.11384 0.02936 0.35841 0.0
H676 H 0.0666 0.10982 0.30613 0.0
H677 H 0.09607 0.08392 0.32392 0.0
C678 C 0.33448 0.52654 0.84627 0.0
C679 C 0.34037 0.52638 0.86423 0.0
C680 C 0.34868 0.51116 0.8359 0.0
C681 C 0.42137 0.47189 0.83575 0.0
H682 H 0.36442 0.45017 0.79709 0.0
C683 C 0.46827 0.40122 0.79913 0.0
C684 C 0.46511 0.4012 0.78102 0.0
C685 C 0.45235 0.41655 0.80891 0.0
C686 C 0.38082 0.45625 0.80772 0.0
H687 H 0.36468 0.50962 0.88547 0.0
H688 H 0.38919 0.48268 0.86742 0.0
H689 H 0.33734 0.47654 0.81506 0.0
H690 H 0.4426 0.41732 0.75898 0.0
H691 H 0.41492 0.44429 0.77614 0.0
H692 H 0.46479 0.45162 0.82848 0.0
C693 C 0.37428 0.49492 0.86128 0.0
C694 C 0.36531 0.47135 0.81802 0.0
C695 C 0.36019 0.51033 0.87164 0.0
C696 C 0.44543 0.41686 0.77292 0.0
C697 C 0.42944 0.43225 0.78274 0.0
C698 C 0.43682 0.45681 0.82548 0.0
C699 C 0.36902 0.49525 0.84327 0.0
C700 C 0.38536 0.47927 0.83221 0.0
C701 C 0.43292 0.43231 0.80085 0.0
C702 C 0.41667 0.44874 0.81141 0.0
H703 H 0.31975 0.53886 0.84015 0.0
H704 H 0.34454 0.51202 0.82205 0.0
H705 H 0.43791 0.47795 0.84635 0.0
H706 H 0.48293 0.38931 0.80585 0.0
H707 H 0.45497 0.41595 0.82285 0.0
C708 C 0.65952 0.50733 0.63195 0.0
C709 C 0.67896 0.52344 0.63996 0.0
C710 C 0.64561 0.49113 0.64176 0.0
C711 C 0.61373 0.47888 0.68533 0.0
H712 H 0.62909 0.42302 0.6724 0.0
C713 C 0.57057 0.41453 0.73105 0.0
C714 C 0.55785 0.39611 0.7241 0.0
C715 C 0.58623 0.42943 0.72047 0.0
C716 C 0.62394 0.43851 0.67608 0.0
H717 H 0.70036 0.53462 0.6645 0.0
H718 H 0.67528 0.50665 0.68156 0.0
H719 H 0.6545 0.45008 0.65427 0.0
H720 H 0.55068 0.37904 0.70041 0.0
H721 H 0.57575 0.40556 0.68167 0.0
H722 H 0.58216 0.46767 0.70672 0.0
C723 C 0.67054 0.50669 0.66773 0.0
C724 C 0.63871 0.454 0.66571 0.0
C725 C 0.68477 0.52274 0.65794 0.0
C726 C 0.56048 0.39305 0.70619 0.0
C727 C 0.57529 0.4082 0.69547 0.0
C728 C 0.59843 0.46347 0.69552 0.0
C729 C 0.65054 0.49082 0.65977 0.0
C730 C 0.63409 0.47432 0.67037 0.0
C731 C 0.58837 0.42664 0.70248 0.0
C732 C 0.60369 0.44303 0.69118 0.0
H733 H 0.65414 0.50747 0.61818 0.0
H734 H 0.63004 0.47914 0.63533 0.0
H735 H 0.60921 0.49444 0.68906 0.0
H736 H 0.56792 0.41765 0.74467 0.0
H737 H 0.59662 0.44316 0.7265 0.0
C738 C 0.81553 0.97899 0.143 0.0
C739 C 0.83833 0.96232 0.13939 0.0
C740 C 0.8283 -0.0055 0.1539 0.0
C741 C 0.89851 0.00515 0.18819 0.0
H742 H 0.87983 0.06128 0.17712 0.0
C743 C 0.97665 0.07027 0.22254 0.0
C744 C 0.95671 0.0878 0.22667 0.0
C745 C 0.96021 0.05509 0.21242 0.0
C746 C 0.88485 0.04567 0.18053 0.0
H747 H 0.89244 0.9489 0.14457 0.0
H748 H 0.91499 0.97609 0.16316 0.0
H749 H 0.85513 0.03467 0.15828 0.0
H750 H 0.90402 0.10327 0.22309 0.0
H751 H 0.87488 0.07651 0.20575 0.0
H752 H 0.92843 0.01609 0.21034 0.0
C753 C 0.88702 0.97709 0.15775 0.0
C754 C 0.87071 0.03041 0.16972 0.0
C755 C 0.87428 0.96161 0.14687 0.0
C756 C 0.91994 0.08984 0.22036 0.0
C757 C 0.9034 0.07459 0.21025 0.0
C758 C 0.91263 0.02038 0.19898 0.0
C759 C 0.86415 -0.00632 0.16149 0.0
C760 C 0.87775 0.00996 0.17331 0.0
C761 C 0.92337 0.05702 0.20616 0.0
C762 C 0.90637 0.04084 0.19518 0.0
H763 H 0.78783 0.98012 0.13733 0.0
H764 H 0.80984 0.00697 0.15659 0.0
H765 H 0.90378 0.98956 0.19157 0.0
H766 H 1.00507 0.0682 0.22714 0.0
H767 H 0.97667 0.04195 0.20929 0.0
C768 C 0.86501 0.01275 0.63792 0.0
C769 C 0.84422 0.0285 0.6452 0.0
C770 C 0.87819 -0.00294 0.64826 0.0
C771 C 0.90089 0.98435 0.69344 0.0
H772 H 0.89591 0.9292 0.67662 0.0
C773 C 0.94099 0.91579 0.73583 0.0
C774 C 0.96211 0.90073 0.72772 0.0
C775 C 0.92529 0.93139 0.72612 0.0
C776 C 0.89781 0.94454 0.68144 0.0
H777 H 0.82122 0.04023 0.66906 0.0
H778 H 0.84369 0.01264 0.68706 0.0
H779 H 0.87117 0.95639 0.65889 0.0
H780 H 0.98329 0.89029 0.70301 0.0
H781 H 0.95647 0.9175 0.68624 0.0
H782 H 0.92782 0.97249 0.71594 0.0
C783 C 0.85006 0.01252 0.67338 0.0
C784 C 0.88365 0.96012 0.67127 0.0
C785 C 0.83683 0.0282 0.66304 0.0
C786 C 0.96718 0.90161 0.70972 0.0
C787 C 0.95153 0.91715 0.70005 0.0
C788 C 0.9151 0.96876 0.70361 0.0
C789 C 0.87092 -0.00321 0.66611 0.0
C790 C 0.88522 0.98021 0.67711 0.0
C791 C 0.93036 0.9322 0.70811 0.0
C792 C 0.91394 0.9487 0.69766 0.0
H793 H 0.87089 0.01248 0.6242 0.0
H794 H 0.89452 0.98527 0.6423 0.0
H795 H 0.90294 -0.00029 0.6982 0.0
H796 H 0.93663 0.91558 0.74968 0.0
H797 H 0.90885 0.94268 0.73268 0.0
C798 C 0.67922 0.46041 0.16196 0.0
C799 C 0.67467 0.46022 0.14392 0.0
C800 C 0.66506 0.47625 0.17184 0.0
C801 C 0.59571 0.51758 0.17011 0.0
H802 H 0.64965 0.53693 0.21053 0.0
C803 C 0.55043 0.58825 0.20803 0.0
C804 C 0.55098 0.58697 0.22617 0.0
C805 C 0.56618 0.57307 0.19794 0.0
C806 C 0.6341 0.53156 0.19937 0.0
H807 H 0.65262 0.47678 0.12205 0.0
H808 H 0.62847 0.50459 0.13923 0.0
H809 H 0.67648 0.51029 0.19286 0.0
H810 H 0.56852 0.56867 0.24792 0.0
H811 H 0.59616 0.54217 0.23028 0.0
H812 H 0.55351 0.53901 0.17657 0.0
C813 C 0.64217 0.49227 0.14582 0.0
C814 C 0.64944 0.51626 0.18924 0.0
C815 C 0.6561 0.47636 0.13596 0.0
C816 C 0.56781 0.57018 0.23399 0.0
C817 C 0.58377 0.55503 0.22388 0.0
C818 C 0.58051 0.53296 0.18018 0.0
C819 C 0.64623 0.49236 0.16392 0.0
C820 C 0.63037 0.509 0.17451 0.0
C821 C 0.58301 0.55628 0.20574 0.0
C822 C 0.59945 0.54007 0.19496 0.0
H823 H 0.69297 0.44806 0.16849 0.0
H824 H 0.66818 0.4756 0.18575 0.0
H825 H 0.57987 0.51216 0.15906 0.0
H826 H 0.53794 0.60103 0.20155 0.0
H827 H 0.56556 0.5746 0.18401 0.0
C828 C 0.32922 0.46392 0.35144 0.0
C829 C 0.34126 0.46182 0.36867 0.0
C830 C 0.34248 0.47988 0.34119 0.0
C831 C 0.42194 0.51552 0.33699 0.0
H832 H 0.35487 0.54541 0.30719 0.0
C833 C 0.47151 0.58684 0.30009 0.0
C834 C 0.45917 0.58923 0.28293 0.0
C835 C 0.45634 0.57162 0.31063 0.0
C836 C 0.37405 0.53708 0.3153 0.0
H837 H 0.37627 0.47529 0.38867 0.0
H838 H 0.39992 0.50286 0.37067 0.0
H839 H 0.3298 0.51831 0.32546 0.0
H840 H 0.42189 0.57671 0.26349 0.0
H841 H 0.39445 0.55082 0.2819 0.0
H842 H 0.46625 0.53402 0.32675 0.0
C843 C 0.38036 0.49203 0.36508 0.0
C844 C 0.35966 0.52156 0.32578 0.0
C845 C 0.36686 0.47617 0.37538 0.0
C846 C 0.43133 0.57588 0.27666 0.0
C847 C 0.41567 0.56087 0.28727 0.0
C848 C 0.43633 0.53095 0.32648 0.0
C849 C 0.3684 0.49404 0.34785 0.0
C850 C 0.38346 0.51063 0.33677 0.0
C851 C 0.42817 0.55844 0.30438 0.0
C852 C 0.4126 0.54198 0.31553 0.0
H853 H 0.3101 0.45299 0.34569 0.0
H854 H 0.3331 0.48085 0.32789 0.0
H855 H 0.44111 0.50715 0.34508 0.0
H856 H 0.49317 0.59664 0.30542 0.0
H857 H 0.4665 0.57031 0.32378 0.0
C858 C 0.162 0.00732 0.87511 0.0
C859 C 0.18096 0.02353 0.86708 0.0
C860 C 0.14701 0.99147 0.86526 0.0
C861 C 0.11173 0.98009 0.82197 0.0
H862 H 0.12607 0.92406 0.83476 0.0
C863 C 0.06531 0.9155 0.77695 0.0
C864 C 0.05275 0.89718 0.78414 0.0
C865 C 0.08102 0.93059 0.78733 0.0
C866 C 0.12121 0.93961 0.83114 0.0
H867 H 0.19923 0.03582 0.84248 0.0
H868 H 0.17304 0.00809 0.82526 0.0
H869 H 0.15386 0.95085 0.85244 0.0
H870 H 0.04495 0.8807 0.80811 0.0
H871 H 0.07025 0.90754 0.82647 0.0
H872 H 0.07828 0.96913 0.80101 0.0
C873 C 0.16975 0.0077 0.83917 0.0
C874 C 0.13735 0.95494 0.84123 0.0
C875 C 0.18503 0.02345 0.84903 0.0
C876 C 0.05485 0.89457 0.80213 0.0
C877 C 0.06976 0.9099 0.81263 0.0
C878 C 0.09516 0.96481 0.81202 0.0
C879 C 0.15039 0.99162 0.84719 0.0
C880 C 0.13301 0.97531 0.83666 0.0
C881 C 0.08337 0.92806 0.80534 0.0
C882 C 0.09995 0.94434 0.81636 0.0
H883 H 0.1587 0.00692 0.88902 0.0
H884 H 0.13204 0.97932 0.87176 0.0
H885 H 0.10741 -0.00431 0.81831 0.0
H886 H 0.06278 0.91831 0.76326 0.0
H887 H 0.09158 0.94418 0.78113 0.0
C888 C 0.19179 0.13454 0.01452 0.0
C889 C 0.18903 0.11654 0.00499 0.0
C890 C 0.17993 0.1351 0.0317 0.0
C891 C 0.16224 0.10286 0.06955 0.0
H892 H 0.10453 0.14851 0.08544 0.0
C893 C 0.11117 0.10829 0.14003 0.0
C894 C 0.11885 0.127 0.14789 0.0
C895 C 0.11379 0.10627 0.12207 0.0
C896 C 0.12073 0.13569 0.08122 0.0
H897 H 0.17258 0.08491 0.00601 0.0
H898 H 0.15183 0.08588 0.03606 0.0
H899 H 0.12294 0.14649 0.05517 0.0
H900 H 0.13299 0.15845 0.14335 0.0
H901 H 0.13749 0.15504 0.1121 0.0
H902 H 0.16091 0.09231 0.09568 0.0
C903 C 0.16309 0.09955 0.03024 0.0
C904 C 0.13134 0.13457 0.0639 0.0
C905 C 0.17469 0.09904 0.01303 0.0
C906 C 0.12697 0.14387 0.13752 0.0
C907 C 0.12936 0.14191 0.11963 0.0
C908 C 0.15176 0.10402 0.08691 0.0
C909 C 0.16535 0.11762 0.03972 0.0
C910 C 0.15263 0.11828 0.05793 0.0
C911 C 0.12381 0.12298 0.11173 0.0
C912 C 0.13133 0.12061 0.09298 0.0
H913 H 0.20254 0.14827 0.00859 0.0
H914 H 0.18243 0.14919 0.03875 0.0
H915 H 0.17894 0.09021 0.06535 0.0
H916 H 0.10514 0.09504 0.14782 0.0
H917 H 0.10895 0.09154 0.11633 0.0
C918 C 0.29658 0.36866 0.5215 0.0
C919 C 0.32397 0.36632 0.5086 0.0
C920 C 0.30623 0.36755 0.539 0.0
C921 C 0.38266 0.35099 0.56866 0.0
H922 H 0.33573 0.38795 0.60065 0.0
C923 C 0.4457 0.37155 0.63505 0.0
C924 C 0.42138 0.37449 0.64907 0.0
C925 C 0.4315 0.3677 0.61853 0.0
C926 C 0.34869 0.37731 0.59195 0.0
H927 H 0.38301 0.36048 0.50419 0.0
H928 H 0.40008 0.35963 0.53452 0.0
H929 H 0.31568 0.38729 0.57057 0.0
H930 H 0.36311 0.37486 0.65695 0.0
H931 H 0.33808 0.36806 0.62796 0.0
H932 H 0.41659 0.34158 0.58999 0.0
C933 C 0.37091 0.36185 0.53118 0.0
C934 C 0.33718 0.3769 0.57466 0.0
C935 C 0.36119 0.3627 0.5137 0.0
C936 C 0.38249 0.37261 0.64638 0.0
C937 C 0.36821 0.36891 0.62978 0.0
C938 C 0.39438 0.35154 0.58591 0.0
C939 C 0.34359 0.36429 0.54409 0.0
C940 C 0.35432 0.3639 0.56273 0.0
C941 C 0.39258 0.36678 0.61562 0.0
C942 C 0.37782 0.36486 0.59771 0.0
H943 H 0.26771 0.3717 0.51813 0.0
H944 H 0.2843 0.36924 0.54853 0.0
H945 H 0.39598 0.34047 0.55998 0.0
H946 H 0.47582 0.37275 0.63678 0.0
H947 H 0.45104 0.36628 0.60791 0.0
C948 C 0.65306 0.35837 1.00033 0.0
C949 C 0.6879 0.36722 0.00462 0.0
C950 C 0.64218 0.35624 0.98309 0.0
C951 C 0.65964 0.37485 0.93887 0.0
H952 H 0.61659 0.32297 0.92584 0.0
C953 C 0.63041 0.3513 0.86751 0.0
C954 C 0.59916 0.33862 0.86438 0.0
C955 C 0.64067 0.35647 0.88445 0.0
C956 C 0.62794 0.33769 0.92925 0.0
H957 H 0.73827 0.38122 0.99413 0.0
H958 H 0.71934 0.37728 0.96388 0.0
H959 H 0.63554 0.32881 0.95556 0.0
H960 H 0.55264 0.32267 0.87642 0.0
H961 H 0.56986 0.33196 0.9058 0.0
H962 H 0.65172 0.38376 0.91248 0.0
C963 C 0.70043 0.37209 0.97393 0.0
C964 C 0.63895 0.34099 0.94632 0.0
C965 C 0.71143 0.37414 0.99123 0.0
C966 C 0.57741 0.33204 0.87845 0.0
C967 C 0.58739 0.33734 0.8953 0.0
C968 C 0.64833 0.37159 0.92173 0.0
C969 C 0.66583 0.36292 0.96968 0.0
C970 C 0.65474 0.35962 0.95137 0.0
C971 C 0.61969 0.34918 0.89859 0.0
C972 C 0.63209 0.35297 0.91673 0.0
H973 H 0.6344 0.35274 0.01032 0.0
H974 H 0.61517 0.34931 0.98025 0.0
H975 H 0.67154 0.38941 0.94242 0.0
H976 H 0.64773 0.35662 0.85691 0.0
H977 H 0.66577 0.36556 0.88646 0.0
C978 C 0.81075 0.11052 0.49158 0.0
C979 C 0.83429 0.11849 0.50455 0.0
C980 C 0.82168 0.11122 0.47424 0.0
C981 C 0.88389 0.13904 0.44443 0.0
H982 H 0.86459 0.0936 0.41393 0.0
C983 C 0.92477 0.14347 0.3728 0.0
C984 C 0.89671 0.137 0.36127 0.0
C985 C 0.92244 0.13843 0.39033 0.0
C986 C 0.87005 0.10645 0.42225 0.0
H987 H 0.88762 0.13357 0.50948 0.0
H988 H 0.90683 0.13461 0.47926 0.0
H989 H 0.84889 0.09086 0.44453 0.0
H990 H 0.84524 0.11968 0.35858 0.0
H991 H 0.84089 0.11083 0.38912 0.0
H992 H 0.90403 0.15488 0.42218 0.0
C993 C 0.87985 0.12791 0.48248 0.0
C994 C 0.86098 0.10489 0.43978 0.0
C995 C 0.86899 0.12715 0.4998 0.0
C996 C 0.86747 0.12451 0.36726 0.0
C997 C 0.86506 0.11949 0.38477 0.0
C998 C 0.89281 0.14064 0.42691 0.0
C999 C 0.85631 0.11997 0.46949 0.0
C1000 C 0.86746 0.12124 0.45103 0.0
C1001 C 0.8918 0.12697 0.39663 0.0
C1002 C 0.88566 0.12444 0.41554 0.0
H1003 H 0.78402 0.10356 0.49484 0.0
H1004 H 0.80272 0.10517 0.46453 0.0
H1005 H 0.88876 0.15201 0.4527 0.0
H1006 H 0.94728 0.15335 0.36842 0.0
H1007 H 0.94384 0.14416 0.39906 0.0
C1008 C 0.81321 0.85298 0.98913 0.0
C1009 C 0.83101 0.86615 1.00095 0.0
C1010 C 0.82287 0.85326 0.97158 0.0
C1011 C 0.87297 0.88561 0.93905 0.0
H1012 H 0.87003 0.83696 0.91111 0.0
C1013 C 0.94702 0.88096 0.87383 0.0
C1014 C 0.92331 0.87736 0.85955 0.0
C1015 C 0.93444 0.87752 0.89064 0.0
C1016 C 0.87072 0.85064 0.91879 0.0
H1017 H 0.8732 0.89002 1.00322 0.0
H1018 H 0.89174 0.88944 0.97327 0.0
H1019 H 0.85126 0.83533 0.94152 0.0
H1020 H 0.8685 0.86571 0.85192 0.0
H1021 H 0.84706 0.85898 0.88153 0.0
H1022 H 0.89407 0.90064 0.9165 0.0
C1023 C 0.86932 0.87933 0.97731 0.0
C1024 C 0.8598 0.8498 0.93619 0.0
C1025 C 0.85916 0.87935 0.99472 0.0
C1026 C 0.88757 0.86868 0.86255 0.0
C1027 C 0.87519 0.86489 0.87948 0.0
C1028 C 0.88455 0.88634 0.92185 0.0
C1029 C 0.851 0.86651 0.96539 0.0
C1030 C 0.86115 0.86727 0.94664 0.0
C1031 C 0.89815 0.86992 0.89365 0.0
C1032 C 0.88384 0.86887 0.9116 0.0
H1033 H 0.79181 0.84236 0.99338 0.0
H1034 H 0.8078 0.84326 0.96286 0.0
H1035 H 0.87332 0.89955 0.94636 0.0
H1036 H 0.97516 0.88696 0.87208 0.0
H1037 H 0.95287 0.88121 0.90137 0.0
C1038 C 0.66119 0.60456 0.49582 0.0
C1039 C 0.68483 0.61972 0.50266 0.0
C1040 C 0.64908 0.60545 0.47867 0.0
C1041 C 0.64117 0.63992 0.44069 0.0
H1042 H 0.63794 0.58945 0.41533 0.0
C1043 C 0.63882 0.63363 0.36575 0.0
C1044 C 0.61977 0.61703 0.35844 0.0
C1045 C 0.64019 0.63602 0.38374 0.0
C1046 C 0.63798 0.60366 0.42226 0.0
H1047 H 0.71411 0.6478 0.49688 0.0
H1048 H 0.69363 0.6492 0.46678 0.0
H1049 H 0.65439 0.5893 0.44574 0.0
H1050 H 0.58542 0.59064 0.36384 0.0
H1051 H 0.58693 0.59498 0.39521 0.0
H1052 H 0.62581 0.65427 0.41688 0.0
C1053 C 0.68377 0.6368 0.47477 0.0
C1054 C 0.64748 0.60358 0.43976 0.0
C1055 C 0.69565 0.63597 0.49201 0.0
C1056 C 0.60001 0.60364 0.36924 0.0
C1057 C 0.60131 0.60601 0.38718 0.0
C1058 C 0.63183 0.64 0.42309 0.0
C1059 C 0.66055 0.62145 0.46783 0.0
C1060 C 0.64934 0.6217 0.44924 0.0
C1061 C 0.62274 0.62173 0.39468 0.0
C1062 C 0.6302 0.62186 0.41365 0.0
H1063 H 0.6518 0.59203 0.5038 0.0
H1064 H 0.63058 0.59359 0.47392 0.0
H1065 H 0.64183 0.65413 0.44762 0.0
H1066 H 0.65469 0.64396 0.35763 0.0
H1067 H 0.65706 0.64824 0.38907 0.0
C1068 C 0.34707 0.60256 0.01279 0.0
C1069 C 0.33293 0.61948 1.00406 0.0
C1070 C 0.35721 0.60385 0.03023 0.0
C1071 C 0.34377 0.63621 0.06903 0.0
H1072 H 0.43087 0.6082 0.08669 0.0
C1073 C 0.41909 0.65993 0.13052 0.0
C1074 C 0.41133 0.64694 0.14445 0.0
C1075 C 0.41315 0.65353 0.11358 0.0
C1076 C 0.40629 0.61588 0.08189 0.0
H1077 H 0.31927 0.65113 0.00659 0.0
H1078 H 0.33777 0.65362 0.03677 0.0
H1079 H 0.41208 0.60371 0.0564 0.0
H1080 H 0.39414 0.61649 0.15154 0.0
H1081 H 0.38404 0.60517 0.12155 0.0
H1082 H 0.33925 0.64911 0.09429 0.0
C1083 C 0.33998 0.63912 0.03041 0.0
C1084 C 0.3954 0.61332 0.06461 0.0
C1085 C 0.32948 0.63775 0.01306 0.0
C1086 C 0.40041 0.62681 0.14103 0.0
C1087 C 0.39459 0.62034 0.12395 0.0
C1088 C 0.35497 0.63896 0.08613 0.0
C1089 C 0.35373 0.62216 0.03929 0.0
C1090 C 0.3643 0.62372 0.05789 0.0
C1091 C 0.39971 0.63395 0.1102 0.0
C1092 C 0.38649 0.62903 0.09263 0.0
H1093 H 0.34974 0.58821 0.00619 0.0
H1094 H 0.36721 0.59042 0.03665 0.0
H1095 H 0.31913 0.64405 0.06452 0.0
H1096 H 0.42816 0.67539 0.13277 0.0
H1097 H 0.41742 0.66418 0.10311 0.0
C1098 C 0.18898 0.84633 0.51313 0.0
C1099 C 0.18596 0.86497 0.50455 0.0
C1100 C 0.17902 0.8444 0.53049 0.0
C1101 C 0.12662 0.86997 0.56585 0.0
H1102 H 0.1797 0.83118 0.59409 0.0
C1103 C 0.1213 0.85568 0.64174 0.0
C1104 C 0.10345 0.83695 0.64524 0.0
C1105 C 0.13025 0.86128 0.62476 0.0
C1106 C 0.16484 0.84212 0.58632 0.0
H1107 H 0.16968 0.89626 0.50776 0.0
H1108 H 0.15439 0.89317 0.53826 0.0
H1109 H 0.19937 0.83693 0.56433 0.0
H1110 H 0.07927 0.81011 0.63316 0.0
H1111 H 0.09689 0.81952 0.60382 0.0
H1112 H 0.09277 0.87533 0.58834 0.0
C1113 C 0.16357 0.87985 0.53142 0.0
C1114 C 0.17574 0.8453 0.56922 0.0
C1115 C 0.17296 0.8817 0.51393 0.0
C1116 C 0.09395 0.82434 0.63119 0.0
C1117 C 0.10358 0.82978 0.61432 0.0
C1118 C 0.11615 0.86701 0.58312 0.0
C1119 C 0.16645 0.86115 0.53996 0.0
C1120 C 0.15632 0.85895 0.55859 0.0
C1121 C 0.12207 0.84816 0.61102 0.0
C1122 C 0.13484 0.85282 0.59334 0.0
H1123 H 0.1994 0.83314 0.5065 0.0
H1124 H 0.18093 0.82963 0.53642 0.0
H1125 H 0.11067 0.88044 0.5581 0.0
H1126 H 0.12957 0.86577 0.65211 0.0
H1127 H 0.14471 0.87552 0.62242 0.0
C1128 C 0.1617 0.28114 0.37686 0.0
C1129 C 0.18385 0.2966 0.36958 0.0
C1130 C 0.14587 0.26606 0.36638 0.0
C1131 C 0.1257 0.25378 0.32 0.0
H1132 H 0.11246 0.19955 0.33814 0.0
C1133 C 0.08637 0.18506 0.27707 0.0
C1134 C 0.05702 0.17271 0.28321 0.0
C1135 C 0.10246 0.19999 0.28763 0.0
C1136 C 0.11589 0.21466 0.33293 0.0
H1137 H 0.20772 0.30826 0.34584 0.0
H1138 H 0.18185 0.28152 0.32764 0.0
H1139 H 0.13942 0.22585 0.3565 0.0
H1140 H 0.02151 0.16637 0.30542 0.0
H1141 H 0.04947 0.19239 0.32375 0.0
H1142 H 0.10309 0.24224 0.29625 0.0
C1143 C 0.17521 0.28132 0.34128 0.0
C1144 C 0.13111 0.22982 0.34349 0.0
C1145 C 0.19033 0.2966 0.35171 0.0
C1146 C 0.04414 0.1756 0.30022 0.0
C1147 C 0.0603 0.1904 0.3108 0.0
C1148 C 0.11109 0.23853 0.30937 0.0
C1149 C 0.15254 0.26586 0.34843 0.0
C1150 C 0.13617 0.24964 0.3372 0.0
C1151 C 0.08954 0.2028 0.3046 0.0
C1152 C 0.10594 0.21884 0.31575 0.0
H1153 H 0.15613 0.28094 0.39062 0.0
H1154 H 0.12803 0.25472 0.37238 0.0
H1155 H 0.12825 0.26889 0.31473 0.0
H1156 H 0.0962 0.18362 0.26402 0.0
H1157 H 0.12505 0.20932 0.28253 0.0
C1158 C 0.34283 0.20978 0.87489 0.0
C1159 C 0.33994 0.18974 0.86885 0.0
C1160 C 0.35853 0.22499 0.8645 0.0
C1161 C 0.42346 0.23405 0.82896 0.0
H1162 H 0.36644 0.28252 0.82043 0.0
C1163 C 0.47608 0.29344 0.77989 0.0
C1164 C 0.4673 0.31373 0.78267 0.0
C1165 C 0.45949 0.27828 0.78999 0.0
C1166 C 0.38327 0.26933 0.82288 0.0
H1167 H 0.35143 0.17022 0.84695 0.0
H1168 H 0.38012 0.19661 0.82925 0.0
H1169 H 0.34132 0.25659 0.83963 0.0
H1170 H 0.43462 0.33438 0.79796 0.0
H1171 H 0.40778 0.30828 0.81653 0.0
H1172 H 0.46624 0.24688 0.81301 0.0
C1173 C 0.37008 0.20045 0.84203 0.0
C1174 C 0.36862 0.25439 0.83383 0.0
C1175 C 0.35381 0.18532 0.85226 0.0
C1176 C 0.44165 0.31874 0.79561 0.0
C1177 C 0.42601 0.30367 0.80613 0.0
C1178 C 0.43859 0.24918 0.81835 0.0
C1179 C 0.37229 0.22045 0.84799 0.0
C1180 C 0.38844 0.23656 0.83685 0.0
C1181 C 0.43473 0.28316 0.80353 0.0
C1182 C 0.41862 0.26703 0.815 0.0
H1183 H 0.3332 0.21377 0.88768 0.0
H1184 H 0.3603 0.24028 0.86946 0.0
H1185 H 0.43945 0.22048 0.83122 0.0
H1186 H 0.49538 0.2893 0.76971 0.0
H1187 H 0.46611 0.26275 0.78708 0.0
C1188 C 0.68071 0.18728 0.65876 0.0
C1189 C 0.68509 0.19039 0.64089 0.0
C1190 C 0.6655 0.20227 0.66923 0.0
C1191 C 0.60758 0.24816 0.66783 0.0
H1192 H 0.65216 0.25877 0.71273 0.0
C1193 C 0.56497 0.31666 0.709 0.0
C1194 C 0.56113 0.3138 0.7269 0.0
C1195 C 0.58053 0.30166 0.69866 0.0
C1196 C 0.63908 0.25584 0.70032 0.0
H1197 H 0.67648 0.21171 0.62001 0.0
H1198 H 0.65036 0.23804 0.63836 0.0
H1199 H 0.67806 0.23254 0.69431 0.0
H1200 H 0.57039 0.29294 0.74802 0.0
H1201 H 0.59765 0.26665 0.72995 0.0
H1202 H 0.56852 0.27139 0.67384 0.0
C1203 C 0.65843 0.22388 0.64423 0.0
C1204 C 0.65395 0.24081 0.68975 0.0
C1205 C 0.67375 0.20888 0.63374 0.0
C1206 C 0.57352 0.29568 0.73429 0.0
C1207 C 0.58912 0.28063 0.72393 0.0
C1208 C 0.59267 0.26317 0.67841 0.0
C1209 C 0.65426 0.22078 0.66212 0.0
C1210 C 0.63841 0.2368 0.67336 0.0
C1211 C 0.59256 0.28338 0.70595 0.0
C1212 C 0.60828 0.26724 0.69478 0.0
H1213 H 0.68958 0.17332 0.66473 0.0
H1214 H 0.66231 0.19929 0.68292 0.0
H1215 H 0.59455 0.24525 0.65541 0.0
H1216 H 0.55584 0.33052 0.70295 0.0
H1217 H 0.58333 0.30446 0.68493 0.0
C1218 C 0.84744 0.27872 0.13416 0.0
C1219 C 0.83515 0.29687 0.14154 0.0
C1220 C 0.86344 0.2637 0.14446 0.0
C1221 C 0.90736 0.25552 0.18759 0.0
H1222 H 0.88552 0.19913 0.17788 0.0
C1223 C 0.94844 0.19109 0.23442 0.0
C1224 C 0.96351 0.17361 0.22697 0.0
C1225 C 0.93283 0.20614 0.22402 0.0
C1226 C 0.89217 0.2148 0.18068 0.0
H1227 H 0.82931 0.31323 0.16565 0.0
H1228 H 0.85673 0.28707 0.18358 0.0
H1229 H 0.85847 0.22524 0.15966 0.0
H1230 H 0.97381 0.15828 0.20267 0.0
H1231 H 0.94679 0.18449 0.18461 0.0
H1232 H 0.94074 0.24503 0.20874 0.0
C1233 C 0.85491 0.28456 0.16978 0.0
C1234 C 0.87673 0.2298 0.17019 0.0
C1235 C 0.8391 0.29959 0.15948 0.0
C1236 C 0.96253 0.17154 0.20887 0.0
C1237 C 0.94676 0.18651 0.1985 0.0
C1238 C 0.92261 0.24053 0.19814 0.0
C1239 C 0.86736 0.26641 0.16243 0.0
C1240 C 0.88411 0.25038 0.1735 0.0
C1241 C 0.93176 0.20401 0.20593 0.0
C1242 C 0.91523 0.21998 0.19481 0.0
H1243 H 0.84519 0.27623 0.12036 0.0
H1244 H 0.87321 0.25007 0.13828 0.0
H1245 H 0.91426 0.27117 0.19038 0.0
H1246 H 0.94881 0.1932 0.2483 0.0
H1247 H 0.92119 0.21935 0.23016 0.0
C1248 C 0.83631 0.71022 0.63436 0.0
C1249 C 0.83765 0.6899 0.63942 0.0
C1250 C 0.85232 0.72532 0.64478 0.0
C1251 C 0.88776 0.73393 0.6899 0.0
H1252 H 0.9269 0.78361 0.66992 0.0
C1253 C 0.98058 0.7935 0.72584 0.0
C1254 C 0.96612 0.81313 0.72574 0.0
C1255 C 0.96409 0.77837 0.71565 0.0
C1256 C 0.91589 0.76981 0.67562 0.0
H1257 H 0.85799 0.6692 0.65884 0.0
H1258 H 0.88783 0.69523 0.67654 0.0
H1259 H 0.90199 0.75717 0.65102 0.0
H1260 H 0.92345 0.83248 0.71495 0.0
H1261 H 0.89526 0.80607 0.69668 0.0
H1262 H 0.90354 0.74648 0.71447 0.0
C1263 C 0.87306 0.69983 0.66499 0.0
C1264 C 0.90134 0.75467 0.66484 0.0
C1265 C 0.85632 0.68483 0.65476 0.0
C1266 C 0.93499 0.81742 0.71528 0.0
C1267 C 0.91901 0.8024 0.70481 0.0
C1268 C 0.90312 0.74889 0.70062 0.0
C1269 C 0.87076 0.72037 0.66034 0.0
C1270 C 0.88689 0.73649 0.6718 0.0
C1271 C 0.93347 0.78277 0.70491 0.0
C1272 C 0.91712 0.76697 0.69358 0.0
H1273 H 0.82175 0.71448 0.62264 0.0
H1274 H 0.84927 0.74089 0.64081 0.0
H1275 H 0.87614 0.72047 0.6959 0.0
H1276 H 1.00444 0.78984 0.7339 0.0
H1277 H 0.97569 0.76332 0.71589 0.0
C1278 C 0.68562 0.77583 0.13394 0.0
C1279 C 0.68222 0.79622 0.13852 0.0
C1280 C 0.67011 0.76063 0.14442 0.0
C1281 C 0.63139 0.75245 0.18905 0.0
H1282 H 0.59848 0.70121 0.1696 0.0
C1283 C 0.53859 0.69294 0.22458 0.0
C1284 C 0.55375 0.67349 0.22556 0.0
C1285 C 0.55547 0.70776 0.21421 0.0
C1286 C 0.60779 0.71544 0.17517 0.0
H1287 H 0.65878 0.81689 0.15713 0.0
H1288 H 0.62975 0.79066 0.17485 0.0
H1289 H 0.62327 0.72755 0.15058 0.0
H1290 H 0.59837 0.65423 0.21649 0.0
H1291 H 0.62729 0.68011 0.1979 0.0
H1292 H 0.61389 0.74043 0.21355 0.0
C1293 C 0.64577 0.7861 0.16368 0.0
C1294 C 0.62226 0.73055 0.16431 0.0
C1295 C 0.66204 0.80122 0.15343 0.0
C1296 C 0.58614 0.66912 0.21599 0.0
C1297 C 0.60257 0.68385 0.20532 0.0
C1298 C 0.61609 0.73751 0.19981 0.0
C1299 C 0.6501 0.76552 0.15954 0.0
C1300 C 0.63436 0.74932 0.17107 0.0
C1301 C 0.58734 0.70328 0.20436 0.0
C1302 C 0.60427 0.71888 0.19298 0.0
H1303 H 0.70137 0.77162 0.12256 0.0
H1304 H 0.67475 0.74507 0.14083 0.0
H1305 H 0.64121 0.76637 0.19495 0.0
H1306 H 0.51383 0.69674 0.23194 0.0
H1307 H 0.54324 0.72265 0.21365 0.0
C1308 C 0.34056 0.77666 0.37602 0.0
C1309 C 0.33039 0.79499 0.36821 0.0
C1310 C 0.35794 0.76155 0.36637 0.0
C1311 C 0.40995 0.75307 0.32552 0.0
H1312 H 0.37856 0.69727 0.33203 0.0
C1313 C 0.449 0.69074 0.2772 0.0
C1314 C 0.45923 0.67188 0.28388 0.0
C1315 C 0.43425 0.70551 0.28802 0.0
C1316 C 0.38797 0.71275 0.3302 0.0
H1317 H 0.3316 0.81199 0.34423 0.0
H1318 H 0.36091 0.78554 0.32737 0.0
H1319 H 0.35169 0.72359 0.35006 0.0
H1320 H 0.46248 0.65369 0.30713 0.0
H1321 H 0.43692 0.67959 0.32612 0.0
H1322 H 0.44596 0.74226 0.30556 0.0
C1323 C 0.35583 0.78286 0.34098 0.0
C1324 C 0.3726 0.72784 0.34055 0.0
C1325 C 0.33854 0.79795 0.35061 0.0
C1326 C 0.45457 0.66808 0.30162 0.0
C1327 C 0.43976 0.68286 0.31246 0.0
C1328 C 0.42526 0.73799 0.31517 0.0
C1329 C 0.36561 0.76443 0.3487 0.0
C1330 C 0.38317 0.74822 0.33824 0.0
C1331 C 0.42957 0.70179 0.30579 0.0
C1332 C 0.41421 0.71768 0.31727 0.0
H1333 H 0.33447 0.77383 0.38951 0.0
H1334 H 0.36548 0.74762 0.37278 0.0
H1335 H 0.41929 0.76854 0.3236 0.0
H1336 H 0.45284 0.69418 0.26363 0.0
H1337 H 0.42631 0.71984 0.28243 0.0
C1338 C 0.18064 0.71035 0.87431 0.0
C1339 C 0.18873 0.69139 0.86714 0.0
C1340 C 0.16353 0.72526 0.8643 0.0
C1341 C 0.109 0.73288 0.82388 0.0
H1342 H 0.14637 0.78798 0.82769 0.0
C1343 C 0.06932 0.79526 0.775 0.0
C1344 C 0.05993 0.81408 0.78204 0.0
C1345 C 0.08484 0.78028 0.78548 0.0
C1346 C 0.1354 0.77269 0.82658 0.0
H1347 H 0.1839 0.67297 0.84406 0.0
H1348 H 0.15476 0.699 0.82655 0.0
H1349 H 0.17244 0.76181 0.84618 0.0
H1350 H 0.0598 0.83216 0.80537 0.0
H1351 H 0.08703 0.80608 0.82364 0.0
H1352 H 0.07223 0.74379 0.80414 0.0
C1353 C 0.16139 0.70238 0.83991 0.0
C1354 C 0.15024 0.7577 0.83722 0.0
C1355 C 0.17851 0.68752 0.84989 0.0
C1356 C 0.06682 0.81776 0.79963 0.0
C1357 C 0.08258 0.80287 0.81006 0.0
C1358 C 0.09427 0.74787 0.81319 0.0
C1359 C 0.15399 0.72151 0.84692 0.0
C1360 C 0.1373 0.73759 0.83598 0.0
C1361 C 0.09152 0.78391 0.80314 0.0
C1362 C 0.10735 0.76794 0.8144 0.0
H1363 H 0.18832 0.71381 0.88754 0.0
H1364 H 0.1578 0.73974 0.87018 0.0
H1365 H 0.09795 0.71761 0.82276 0.0
H1366 H 0.06396 0.79199 0.7615 0.0
H1367 H 0.09174 0.76588 0.77974 0.0
loop_
_geom_bond_atom_site_label_1
_geom_bond_atom_site_label_2
_geom_bond_distance
_geom_bond_site_symmetry_2
_ccdc_geom_bond_type
C0 C1 1.386 . S
C0 C2 1.397 . S
C0 H24 0.931 . S
C1 C0 1.386 . S
C1 C5 1.397 . S
C2 C0 1.397 . S
C2 C3 1.384 . S
C2 H25 0.930 . S
C3 C2 1.384 . S
C3 C4 1.377 . S
C3 C6 1.481 . S
C4 C3 1.377 . S
C4 C5 1.389 . S
C4 H26 0.929 . S
C5 C1 1.397 . S
C5 C4 1.389 . S
C5 H27 0.931 . S
C6 C3 1.481 . S
C6 C7 1.387 . S
C6 C11 1.390 . S
C7 C6 1.387 . S
C7 C8 1.401 . S
C7 H28 0.930 . S
C8 C7 1.401 . S
C8 C9 1.376 . S
C8 C17 1.511 . S
C9 C8 1.376 . S
C9 C10 1.392 . S
C9 H30 0.931 . S
C10 C9 1.392 . S
C10 C11 1.361 . S
C10 C12 1.500 . S
C11 C6 1.390 . S
C11 C10 1.361 . S
C11 H29 0.931 . S
C12 C10 1.500 . S
C12 C13 1.371 . S
C12 C14 1.365 . S
C13 C12 1.371 . S
C13 C23 1.386 . S
C13 H31 0.931 . S
C14 C12 1.365 . S
C14 C15 1.409 . S
C14 H32 0.929 . S
C15 C14 1.409 . S
C15 C16 1.380 . S
C15 H33 0.930 . S
C16 C15 1.380 . S
C16 C23 1.357 . S
C17 C8 1.511 . S
C17 C18 1.341 . S
C17 C19 1.371 . S
C18 C17 1.341 . S
C18 C22 1.394 . S
C18 H34 0.930 . S
C19 C17 1.371 . S
C19 C20 1.392 . S
C19 H35 0.931 . S
C20 C19 1.392 . S
C20 C21 1.331 . S
C20 H38 0.932 . S
C21 C20 1.331 . S
C21 C22 1.336 . S
C22 C18 1.394 . S
C22 C21 1.336 . S
C22 H37 0.929 . S
C23 C13 1.386 . S
C23 C16 1.357 . S
C23 H36 0.928 . S
H24 C0 0.931 . S
H25 C2 0.930 . S
H26 C4 0.929 . S
H27 C5 0.931 . S
H28 C7 0.930 . S
H29 C11 0.931 . S
H30 C9 0.931 . S
H31 C13 0.931 . S
H32 C14 0.929 . S
H33 C15 0.930 . S
H34 C18 0.930 . S
H35 C19 0.931 . S
H36 C23 0.928 . S
H37 C22 0.929 . S
H38 C20 0.932 . S
C39 C40 1.386 . S
C39 C41 1.397 . S
C39 H63 0.931 . S
C40 C39 1.386 . S
C40 C44 1.397 . S
C41 C39 1.397 . S
C41 C42 1.384 . S
C41 H64 0.930 . S
C42 C41 1.384 . S
C42 C43 1.377 . S
C42 C45 1.481 . S
C43 C42 1.377 . S
C43 C44 1.389 . S
C43 H65 0.929 . S
C44 C40 1.397 . S
C44 C43 1.389 . S
C44 H66 0.931 . S
C45 C42 1.481 . S
C45 C46 1.387 . S
C45 C50 1.390 . S
C46 C45 1.387 . S
C46 C47 1.401 . S
C46 H67 0.930 . S
C47 C46 1.401 . S
C47 C48 1.376 . S
C47 C56 1.511 . S
C48 C47 1.376 . S
C48 C49 1.392 . S
C48 H69 0.931 . S
C49 C48 1.392 . S
C49 C50 1.361 . S
C49 C51 1.500 . S
C50 C45 1.390 . S
C50 C49 1.361 . S
C50 H68 0.931 . S
C51 C49 1.500 . S
C51 C52 1.371 . S
C51 C53 1.365 . S
C52 C51 1.371 . S
C52 C62 1.386 . S
C52 H70 0.931 . S
C53 C51 1.365 . S
C53 C54 1.409 . S
C53 H71 0.929 . S
C54 C53 1.409 . S
C54 C55 1.380 . S
C54 H72 0.930 . S
C55 C54 1.380 . S
C55 C62 1.357 . S
C56 C47 1.511 . S
C56 C57 1.341 . S
C56 C58 1.371 . S
C57 C56 1.341 . S
C57 C61 1.394 . S
C57 H73 0.930 . S
C58 C56 1.371 . S
C58 C59 1.392 . S
C58 H74 0.931 . S
C59 C58 1.392 . S
C59 C60 1.331 . S
C59 H77 0.932 . S
C60 C59 1.331 . S
C60 C61 1.336 . S
C61 C57 1.394 . S
C61 C60 1.336 . S
C61 H76 0.929 . S
C62 C52 1.386 . S
C62 C55 1.357 . S
C62 H75 0.928 . S
H63 C39 0.931 . S
H64 C41 0.930 . S
H65 C43 0.929 . S
H66 C44 0.931 . S
H67 C46 0.930 . S
H68 C50 0.931 . S
H69 C48 0.931 . S
H70 C52 0.931 . S
H71 C53 0.929 . S
H72 C54 0.930 . S
H73 C57 0.930 . S
H74 C58 0.931 . S
H75 C62 0.928 . S
H76 C61 0.929 . S
H77 C59 0.932 . S
C78 C79 1.386 . S
C78 C80 1.397 . S
C78 H102 0.931 . S
C79 C78 1.386 . S
C79 C83 1.397 . S
C80 C78 1.397 . S
C80 C81 1.384 . S
C80 H103 0.930 . S
C81 C80 1.384 . S
C81 C82 1.377 . S
C81 C84 1.481 . S
C82 C81 1.377 . S
C82 C83 1.389 . S
C82 H104 0.929 . S
C83 C79 1.397 . S
C83 C82 1.389 . S
C83 H105 0.931 . S
C84 C81 1.481 . S
C84 C85 1.387 . S
C84 C89 1.390 . S
C85 C84 1.387 . S
C85 C86 1.401 . S
C85 H106 0.930 . S
C86 C85 1.401 . S
C86 C87 1.376 . S
C86 C95 1.511 . S
C87 C86 1.376 . S
C87 C88 1.392 . S
C87 H108 0.931 . S
C88 C87 1.392 . S
C88 C89 1.361 . S
C88 C90 1.500 . S
C89 C84 1.390 . S
C89 C88 1.361 . S
C89 H107 0.931 . S
C90 C88 1.500 . S
C90 C91 1.371 . S
C90 C92 1.365 . S
C91 C90 1.371 . S
C91 C101 1.386 . S
C91 H109 0.931 . S
C92 C90 1.365 . S
C92 C93 1.409 . S
C92 H110 0.929 . S
C93 C92 1.409 . S
C93 C94 1.380 . S
C93 H111 0.930 . S
C94 C93 1.380 . S
C94 C101 1.357 . S
C95 C86 1.511 . S
C95 C96 1.341 . S
C95 C97 1.371 . S
C96 C95 1.341 . S
C96 C100 1.394 . S
C96 H112 0.930 . S
C97 C95 1.371 . S
C97 C98 1.392 . S
C97 H113 0.931 . S
C98 C97 1.392 . S
C98 C99 1.331 . S
C98 H116 0.932 . S
C99 C98 1.331 . S
C99 C100 1.336 . S
C100 C96 1.394 . S
C100 C99 1.336 . S
C100 H115 0.929 . S
C101 C91 1.386 . S
C101 C94 1.357 . S
C101 H114 0.928 . S
H102 C78 0.931 . S
H103 C80 0.930 . S
H104 C82 0.929 . S
H105 C83 0.931 . S
H106 C85 0.930 . S
H107 C89 0.931 . S
H108 C87 0.931 . S
H109 C91 0.931 . S
H110 C92 0.929 . S
H111 C93 0.930 . S
H112 C96 0.930 . S
H113 C97 0.931 . S
H114 C101 0.928 . S
H115 C100 0.929 . S
H116 C98 0.932 . S
C117 C118 1.386 . S
C117 C119 1.397 . S
C117 H141 0.931 . S
C118 C117 1.386 . S
C118 C122 1.397 . S
C119 C117 1.397 . S
C119 C120 1.384 . S
C119 H142 0.930 . S
C120 C119 1.384 . S
C120 C121 1.377 . S
C120 C123 1.481 . S
C121 C120 1.377 . S
C121 C122 1.389 . S
C121 H143 0.929 . S
C122 C118 1.397 . S
C122 C121 1.389 . S
C122 H144 0.931 . S
C123 C120 1.481 . S
C123 C124 1.387 . S
C123 C128 1.390 . S
C124 C123 1.387 . S
C124 C125 1.401 . S
C124 H145 0.930 . S
C125 C124 1.401 . S
C125 C126 1.376 . S
C125 C134 1.511 . S
C126 C125 1.376 . S
C126 C127 1.392 . S
C126 H147 0.931 . S
C127 C126 1.392 . S
C127 C128 1.361 . S
C127 C129 1.500 . S
C128 C123 1.390 . S
C128 C127 1.361 . S
C128 H146 0.931 . S
C129 C127 1.500 . S
C129 C130 1.371 . S
C129 C131 1.365 . S
C130 C129 1.371 . S
C130 C140 1.386 . S
C130 H148 0.931 . S
C131 C129 1.365 . S
C131 C132 1.409 . S
C131 H149 0.929 . S
C132 C131 1.409 . S
C132 C133 1.380 . S
C132 H150 0.930 . S
C133 C132 1.380 . S
C133 C140 1.357 . S
C134 C125 1.511 . S
C134 C135 1.341 . S
C134 C136 1.371 . S
C135 C134 1.341 . S
C135 C139 1.394 . S
C135 H151 0.930 . S
C136 C134 1.371 . S
C136 C137 1.392 . S
C136 H152 0.931 . S
C137 C136 1.392 . S
C137 C138 1.331 . S
C137 H155 0.932 . S
C138 C137 1.331 . S
C138 C139 1.336 . S
C139 C135 1.394 . S
C139 C138 1.336 . S
C139 H154 0.929 . S
C140 C130 1.386 . S
C140 C133 1.357 . S
C140 H153 0.928 . S
H141 C117 0.931 . S
H142 C119 0.930 . S
H143 C121 0.929 . S
H144 C122 0.931 . S
H145 C124 0.930 . S
H146 C128 0.931 . S
H147 C126 0.931 . S
H148 C130 0.931 . S
H149 C131 0.929 . S
H150 C132 0.930 . S
H151 C135 0.930 . S
H152 C136 0.931 . S
H153 C140 0.928 . S
H154 C139 0.929 . S
H155 C137 0.932 . S
C156 C157 1.386 . S
C156 C158 1.397 . S
C156 H180 0.931 . S
C157 C156 1.386 . S
C157 C161 1.397 . S
C158 C156 1.397 . S
C158 C159 1.384 . S
C158 H181 0.930 . S
C159 C158 1.384 . S
C159 C160 1.377 . S
C159 C162 1.481 . S
C160 C159 1.377 . S
C160 C161 1.389 . S
C160 H182 0.929 . S
C161 C157 1.397 . S
C161 C160 1.389 . S
C161 H183 0.931 . S
C162 C159 1.481 . S
C162 C163 1.387 . S
C162 C167 1.390 . S
C163 C162 1.387 . S
C163 C164 1.401 . S
C163 H184 0.930 . S
C164 C163 1.401 . S
C164 C165 1.376 . S
C164 C173 1.511 . S
C165 C164 1.376 . S
C165 C166 1.392 . S
C165 H186 0.931 . S
C166 C165 1.392 . S
C166 C167 1.361 . S
C166 C168 1.500 . S
C167 C162 1.390 . S
C167 C166 1.361 . S
C167 H185 0.931 . S
C168 C166 1.500 . S
C168 C169 1.371 . S
C168 C170 1.365 . S
C169 C168 1.371 . S
C169 C179 1.386 . S
C169 H187 0.931 . S
C170 C168 1.365 . S
C170 C171 1.409 . S
C170 H188 0.929 . S
C171 C170 1.409 . S
C171 C172 1.380 . S
C171 H189 0.930 . S
C172 C171 1.380 . S
C172 C179 1.357 . S
C173 C164 1.511 . S
C173 C174 1.341 . S
C173 C175 1.371 . S
C174 C173 1.341 . S
C174 C178 1.394 . S
C174 H190 0.930 . S
C175 C173 1.371 . S
C175 C176 1.392 . S
C175 H191 0.931 . S
C176 C175 1.392 . S
C176 C177 1.331 . S
C176 H194 0.932 . S
C177 C176 1.331 . S
C177 C178 1.336 . S
C178 C174 1.394 . S
C178 C177 1.336 . S
C178 H193 0.929 . S
C179 C169 1.386 . S
C179 C172 1.357 . S
C179 H192 0.928 . S
H180 C156 0.931 . S
H181 C158 0.930 . S
H182 C160 0.929 . S
H183 C161 0.931 . S
H184 C163 0.930 . S
H185 C167 0.931 . S
H186 C165 0.931 . S
H187 C169 0.931 . S
H188 C170 0.929 . S
H189 C171 0.930 . S
H190 C174 0.930 . S
H191 C175 0.931 . S
H192 C179 0.928 . S
H193 C178 0.929 . S
H194 C176 0.932 . S
C195 C196 1.386 . S
C195 C197 1.397 . S
C195 H219 0.931 . S
C196 C195 1.386 . S
C196 C200 1.397 . S
C197 C195 1.397 . S
C197 C198 1.384 . S
C197 H220 0.930 . S
C198 C197 1.384 . S
C198 C199 1.377 . S
C198 C201 1.481 . S
C199 C198 1.377 . S
C199 C200 1.389 . S
C199 H221 0.929 . S
C200 C196 1.397 . S
C200 C199 1.389 . S
C200 H222 0.931 . S
C201 C198 1.481 . S
C201 C202 1.387 . S
C201 C206 1.390 . S
C202 C201 1.387 . S
C202 C203 1.401 . S
C202 H223 0.930 . S
C203 C202 1.401 . S
C203 C204 1.376 . S
C203 C212 1.511 . S
C204 C203 1.376 . S
C204 C205 1.392 . S
C204 H225 0.931 . S
C205 C204 1.392 . S
C205 C206 1.361 . S
C205 C207 1.500 . S
C206 C201 1.390 . S
C206 C205 1.361 . S
C206 H224 0.931 . S
C207 C205 1.500 . S
C207 C208 1.371 . S
C207 C209 1.365 . S
C208 C207 1.371 . S
C208 C218 1.386 . S
C208 H226 0.931 . S
C209 C207 1.365 . S
C209 C210 1.409 . S
C209 H227 0.929 . S
C210 C209 1.409 . S
C210 C211 1.380 . S
C210 H228 0.930 . S
C211 C210 1.380 . S
C211 C218 1.357 . S
C212 C203 1.511 . S
C212 C213 1.341 . S
C212 C214 1.371 . S
C213 C212 1.341 . S
C213 C217 1.394 . S
C213 H229 0.930 . S
C214 C212 1.371 . S
C214 C215 1.392 . S
C214 H230 0.931 . S
C215 C214 1.392 . S
C215 C216 1.331 . S
C215 H233 0.932 . S
C216 C215 1.331 . S
C216 C217 1.336 . S
C217 C213 1.394 . S
C217 C216 1.336 . S
C217 H232 0.929 . S
C218 C208 1.386 . S
C218 C211 1.357 . S
C218 H231 0.928 . S
H219 C195 0.931 . S
H220 C197 0.930 . S
H221 C199 0.929 . S
H222 C200 0.931 . S
H223 C202 0.930 . S
H224 C206 0.931 . S
H225 C204 0.931 . S
H226 C208 0.931 . S
H227 C209 0.929 . S
H228 C210 0.930 . S
H229 C213 0.930 . S
H230 C214 0.931 . S
H231 C218 0.928 . S
H232 C217 0.929 . S
H233 C215 0.932 . S
C234 C235 1.386 . S
C234 C236 1.397 . S
C234 H258 0.931 . S
C235 C234 1.386 . S
C235 C239 1.397 . S
C236 C234 1.397 . S
C236 C237 1.384 . S
C236 H259 0.930 . S
C237 C236 1.384 . S
C237 C238 1.377 . S
C237 C240 1.481 . S
C238 C237 1.377 . S
C238 C239 1.389 . S
C238 H260 0.929 . S
C239 C235 1.397 . S
C239 C238 1.389 . S
C239 H261 0.931 . S
C240 C237 1.481 . S
C240 C241 1.387 . S
C240 C245 1.390 . S
C241 C240 1.387 . S
C241 C242 1.401 . S
C241 H262 0.930 . S
C242 C241 1.401 . S
C242 C243 1.376 . S
C242 C251 1.511 . S
C243 C242 1.376 . S
C243 C244 1.392 . S
C243 H264 0.931 . S
C244 C243 1.392 . S
C244 C245 1.361 . S
C244 C246 1.500 . S
C245 C240 1.390 . S
C245 C244 1.361 . S
C245 H263 0.931 . S
C246 C244 1.500 . S
C246 C247 1.371 . S
C246 C248 1.365 . S
C247 C246 1.371 . S
C247 C257 1.386 . S
C247 H265 0.931 . S
C248 C246 1.365 . S
C248 C249 1.409 . S
C248 H266 0.929 . S
C249 C248 1.409 . S
C249 C250 1.380 . S
C249 H267 0.930 . S
C250 C249 1.380 . S
C250 C257 1.357 . S
C251 C242 1.511 . S
C251 C252 1.341 . S
C251 C253 1.371 . S
C252 C251 1.341 . S
C252 C256 1.394 . S
C252 H268 0.930 . S
C253 C251 1.371 . S
C253 C254 1.392 . S
C253 H269 0.931 . S
C254 C253 1.392 . S
C254 C255 1.331 . S
C254 H272 0.932 . S
C255 C254 1.331 . S
C255 C256 1.336 . S
C256 C252 1.394 . S
C256 C255 1.336 . S
C256 H271 0.929 . S
C257 C247 1.386 . S
C257 C250 1.357 . S
C257 H270 0.928 . S
H258 C234 0.931 . S
H259 C236 0.930 . S
H260 C238 0.929 . S
H261 C239 0.931 . S
H262 C241 0.930 . S
H263 C245 0.931 . S
H264 C243 0.931 . S
H265 C247 0.931 . S
H266 C248 0.929 . S
H267 C249 0.930 . S
H268 C252 0.930 . S
H269 C253 0.931 . S
H270 C257 0.928 . S
H271 C256 0.929 . S
H272 C254 0.932 . S
C273 C274 1.386 . S
C273 C275 1.397 . S
C273 H297 0.931 . S
C274 C273 1.386 . S
C274 C278 1.397 . S
C275 C273 1.397 . S
C275 C276 1.384 . S
C275 H298 0.930 . S
C276 C275 1.384 . S
C276 C277 1.377 . S
C276 C279 1.481 . S
C277 C276 1.377 . S
C277 C278 1.389 . S
C277 H299 0.929 . S
C278 C274 1.397 . S
C278 C277 1.389 . S
C278 H300 0.931 . S
C279 C276 1.481 . S
C279 C280 1.387 . S
C279 C284 1.390 . S
C280 C279 1.387 . S
C280 C281 1.401 . S
C280 H301 0.930 . S
C281 C280 1.401 . S
C281 C282 1.376 . S
C281 C290 1.511 . S
C282 C281 1.376 . S
C282 C283 1.392 . S
C282 H303 0.931 . S
C283 C282 1.392 . S
C283 C284 1.361 . S
C283 C285 1.500 . S
C284 C279 1.390 . S
C284 C283 1.361 . S
C284 H302 0.931 . S
C285 C283 1.500 . S
C285 C286 1.371 . S
C285 C287 1.365 . S
C286 C285 1.371 . S
C286 C296 1.386 . S
C286 H304 0.931 . S
C287 C285 1.365 . S
C287 C288 1.409 . S
C287 H305 0.929 . S
C288 C287 1.409 . S
C288 C289 1.380 . S
C288 H306 0.930 . S
C289 C288 1.380 . S
C289 C296 1.357 . S
C290 C281 1.511 . S
C290 C291 1.341 . S
C290 C292 1.371 . S
C291 C290 1.341 . S
C291 C295 1.394 . S
C291 H307 0.930 . S
C292 C290 1.371 . S
C292 C293 1.392 . S
C292 H308 0.931 . S
C293 C292 1.392 . S
C293 C294 1.331 . S
C293 H311 0.932 . S
C294 C293 1.331 . S
C294 C295 1.336 . S
C295 C291 1.394 . S
C295 C294 1.336 . S
C295 H310 0.929 . S
C296 C286 1.386 . S
C296 C289 1.357 . S
C296 H309 0.928 . S
H297 C273 0.931 . S
H298 C275 0.930 . S
H299 C277 0.929 . S
H300 C278 0.931 . S
H301 C280 0.930 . S
H302 C284 0.931 . S
H303 C282 0.931 . S
H304 C286 0.931 . S
H305 C287 0.929 . S
H306 C288 0.930 . S
H307 C291 0.930 . S
H308 C292 0.931 . S
H309 C296 0.928 . S
H310 C295 0.929 . S
H311 C293 0.932 . S
Tb312 N341 2.617 . S
Tb312 N347 2.572 . S
Tb312 O356 2.465 . S
Tb312 O357 2.387 . S
Tb312 O359 2.428 . S
Tb312 O360 2.308 . S
Tb312 O364 2.349 . S
Tb312 O367 2.393 . S
Tb312 C376 2.802 . S
C313 N314 1.379 . S
C313 C316 1.416 . S
C313 C320 1.424 . S
N314 C313 1.379 . S
N314 C317 1.334 . S
N314 Tb323 2.617 . S
C315 C317 1.390 . S
C315 C318 1.339 . S
C315 H335 0.930 . S
C316 C313 1.416 . S
C316 C318 1.416 . S
C316 C322 1.448 . S
C317 N314 1.334 . S
C317 C315 1.390 . S
C317 H328 0.930 . S
C318 C315 1.339 . S
C318 C316 1.416 . S
C318 H339 0.930 . S
C319 C320 1.413 . S
C319 C321 1.427 . S
C319 C325 1.416 . S
C320 C313 1.424 . S
C320 C319 1.413 . S
C320 N324 1.361 . S
C321 C319 1.427 . S
C321 C322 1.328 . S
C321 H336 0.929 . S
C322 C316 1.448 . S
C322 C321 1.328 . S
C322 H337 0.930 . S
Tb323 N314 2.617 . S
Tb323 N324 2.572 . S
Tb323 O358 2.349 1_655 S
Tb323 O361 2.393 . S
Tb323 O362 2.465 . S
Tb323 O363 2.387 . S
Tb323 O365 2.428 . S
Tb323 O366 2.308 1_655 S
Tb323 C387 2.802 . S
N324 C320 1.361 . S
N324 Tb323 2.572 . S
N324 C326 1.340 . S
C325 C319 1.416 . S
C325 C327 1.332 . S
C325 H333 0.931 . S
C326 N324 1.340 . S
C326 C327 1.407 . S
C326 H332 0.930 . S
C327 C325 1.332 . S
C327 C326 1.407 . S
C327 H329 0.929 . S
H328 C317 0.930 . S
H329 C327 0.929 . S
H330 C345 0.930 . S
H331 C352 0.929 . S
H332 C326 0.930 . S
H333 C325 0.931 . S
H334 C348 0.930 . S
H335 C315 0.930 . S
H336 C321 0.929 . S
H337 C322 0.930 . S
H338 C343 0.930 . S
H339 C318 0.930 . S
H340 C351 0.931 . S
N341 Tb312 2.617 . S
N341 C342 1.379 . S
N341 C345 1.334 . S
C342 N341 1.379 . S
C342 C344 1.416 . S
C342 C350 1.424 . S
C343 H338 0.930 . S
C343 C345 1.390 . S
C343 C346 1.339 . S
C344 C342 1.416 . S
C344 C346 1.416 . S
C344 C377 1.448 . S
C345 H330 0.930 . S
C345 N341 1.334 . S
C345 C343 1.390 . S
C346 C343 1.339 . S
C346 C344 1.416 . S
C346 H353 0.930 . S
N347 Tb312 2.572 . S
N347 C348 1.340 . S
N347 C350 1.361 . S
C348 H334 0.930 . S
C348 N347 1.340 . S
C348 C352 1.407 . S
C349 C350 1.413 . S
C349 C351 1.416 . S
C349 C378 1.427 . S
C350 C342 1.424 . S
C350 N347 1.361 . S
C350 C349 1.413 . S
C351 H340 0.931 . S
C351 C349 1.416 . S
C351 C352 1.332 . S
C352 H331 0.929 . S
C352 C348 1.407 . S
C352 C351 1.332 . S
H353 C346 0.930 . S
H354 C377 0.930 . S
H355 C378 0.929 . S
O356 Tb312 2.465 . S
O356 C376 1.264 . S
O357 Tb312 2.387 . S
O357 C368 1.264 . S
O358 Tb323 2.349 1_455 S
O358 C368 1.243 . S
O359 Tb312 2.428 . S
O359 C376 1.256 . S
O360 Tb312 2.308 . S
O360 C375 1.266 1_455 S
O361 Tb323 2.393 . S
O361 C375 1.248 . S
O362 Tb323 2.465 . S
O362 C387 1.264 . S
O363 Tb323 2.387 . S
O363 C379 1.264 . S
O364 Tb312 2.349 . S
O364 C379 1.243 1_455 S
O365 Tb323 2.428 . S
O365 C387 1.256 . S
O366 Tb323 2.308 1_455 S
O366 C386 1.266 . S
O367 Tb312 2.393 . S
O367 C386 1.248 . S
C368 O357 1.264 . S
C368 O358 1.243 . S
C369 C372 1.399 . S
C369 C374 1.383 . S
C369 C376 1.496 . S
C370 C371 1.399 . S
C370 C374 1.389 . S
C371 C370 1.399 . S
C371 C373 1.380 . S
C371 H388 0.929 . S
C372 C369 1.399 . S
C372 C373 1.392 . S
C372 H389 0.929 . S
C373 C371 1.380 . S
C373 C372 1.392 . S
C373 H390 0.929 . S
C374 C369 1.383 . S
C374 C370 1.389 . S
C374 H391 0.931 . S
C375 O360 1.266 1_655 S
C375 O361 1.248 . S
C376 Tb312 2.802 . S
C376 O356 1.264 . S
C376 O359 1.256 . S
C376 C369 1.496 . S
C377 C344 1.448 . S
C377 H354 0.930 . S
C377 C378 1.328 . S
C378 C349 1.427 . S
C378 H355 0.929 . S
C378 C377 1.328 . S
C379 O363 1.264 . S
C379 O364 1.243 1_655 S
C380 C383 1.399 . S
C380 C384 1.383 . S
C380 C387 1.496 . S
C381 C382 1.399 . S
C381 C384 1.389 . S
C382 C381 1.399 . S
C382 C385 1.380 . S
C382 H392 0.929 . S
C383 C380 1.399 . S
C383 C385 1.392 . S
C383 H393 0.929 . S
C384 C380 1.383 . S
C384 C381 1.389 . S
C384 H394 0.931 . S
C385 C382 1.380 . S
C385 C383 1.392 . S
C385 H395 0.929 . S
C386 O366 1.266 . S
C386 O367 1.248 . S
C387 Tb323 2.802 . S
C387 O362 1.264 . S
C387 O365 1.256 . S
C387 C380 1.496 . S
H388 C371 0.929 . S
H389 C372 0.929 . S
H390 C373 0.929 . S
H391 C374 0.931 . S
H392 C382 0.929 . S
H393 C383 0.929 . S
H394 C384 0.931 . S
H395 C385 0.929 . S
Tb396 N425 2.617 . S
Tb396 N431 2.572 . S
Tb396 O440 2.465 . S
Tb396 O441 2.387 . S
Tb396 O443 2.428 . S
Tb396 O444 2.308 . S
Tb396 O448 2.349 . S
Tb396 O451 2.393 . S
Tb396 C460 2.802 . S
C397 N398 1.379 . S
C397 C400 1.416 . S
C397 C404 1.424 . S
N398 C397 1.379 . S
N398 C401 1.334 . S
N398 Tb407 2.617 . S
C399 C401 1.390 . S
C399 C402 1.339 . S
C399 H419 0.930 . S
C400 C397 1.416 . S
C400 C402 1.416 . S
C400 C406 1.448 . S
C401 N398 1.334 . S
C401 C399 1.390 . S
C401 H412 0.930 . S
C402 C399 1.339 . S
C402 C400 1.416 . S
C402 H423 0.930 . S
C403 C404 1.413 . S
C403 C405 1.427 . S
C403 C409 1.416 . S
C404 C397 1.424 . S
C404 C403 1.413 . S
C404 N408 1.361 . S
C405 C403 1.427 . S
C405 C406 1.328 . S
C405 H420 0.929 . S
C406 C400 1.448 . S
C406 C405 1.328 . S
C406 H421 0.930 . S
Tb407 N398 2.617 . S
Tb407 N408 2.572 . S
Tb407 O442 2.349 . S
Tb407 O445 2.393 . S
Tb407 O446 2.465 . S
Tb407 O447 2.387 . S
Tb407 O449 2.428 . S
Tb407 O450 2.308 . S
Tb407 C471 2.802 . S
N408 C404 1.361 . S
N408 Tb407 2.572 . S
N408 C410 1.340 . S
C409 C403 1.416 . S
C409 C411 1.332 . S
C409 H417 0.931 . S
C410 N408 1.340 . S
C410 C411 1.407 . S
C410 H416 0.930 . S
C411 C409 1.332 . S
C411 C410 1.407 . S
C411 H413 0.929 . S
H412 C401 0.930 . S
H413 C411 0.929 . S
H414 C429 0.930 . S
H415 C436 0.929 . S
H416 C410 0.930 . S
H417 C409 0.931 . S
H418 C432 0.930 . S
H419 C399 0.930 . S
H420 C405 0.929 . S
H421 C406 0.930 . S
H422 C427 0.930 . S
H423 C402 0.930 . S
H424 C435 0.931 . S
N425 Tb396 2.617 . S
N425 C426 1.379 . S
N425 C429 1.334 . S
C426 N425 1.379 . S
C426 C428 1.416 . S
C426 C434 1.424 . S
C427 H422 0.930 . S
C427 C429 1.390 . S
C427 C430 1.339 . S
C428 C426 1.416 . S
C428 C430 1.416 . S
C428 C461 1.448 . S
C429 H414 0.930 . S
C429 N425 1.334 . S
C429 C427 1.390 . S
C430 C427 1.339 . S
C430 C428 1.416 . S
C430 H437 0.930 . S
N431 Tb396 2.572 . S
N431 C432 1.340 . S
N431 C434 1.361 . S
C432 H418 0.930 . S
C432 N431 1.340 . S
C432 C436 1.407 . S
C433 C434 1.413 . S
C433 C435 1.416 . S
C433 C462 1.427 . S
C434 C426 1.424 . S
C434 N431 1.361 . S
C434 C433 1.413 . S
C435 H424 0.931 . S
C435 C433 1.416 . S
C435 C436 1.332 . S
C436 H415 0.929 . S
C436 C432 1.407 . S
C436 C435 1.332 . S
H437 C430 0.930 . S
H438 C461 0.930 . S
H439 C462 0.929 . S
O440 Tb396 2.465 . S
O440 C460 1.264 . S
O441 Tb396 2.387 . S
O441 C452 1.264 . S
O442 Tb407 2.349 . S
O442 C452 1.243 . S
O443 Tb396 2.428 . S
O443 C460 1.256 . S
O444 Tb396 2.308 . S
O444 C459 1.266 . S
O445 Tb407 2.393 . S
O445 C459 1.248 . S
O446 Tb407 2.465 . S
O446 C471 1.264 . S
O447 Tb407 2.387 . S
O447 C463 1.264 . S
O448 Tb396 2.349 . S
O448 C463 1.243 . S
O449 Tb407 2.428 . S
O449 C471 1.256 . S
O450 Tb407 2.308 . S
O450 C470 1.266 . S
O451 Tb396 2.393 . S
O451 C470 1.248 . S
C452 O441 1.264 . S
C452 O442 1.243 . S
C453 C456 1.399 . S
C453 C458 1.383 . S
C453 C460 1.496 . S
C454 C455 1.399 . S
C454 C458 1.389 . S
C455 C454 1.399 . S
C455 C457 1.380 . S
C455 H472 0.929 . S
C456 C453 1.399 . S
C456 C457 1.392 . S
C456 H473 0.929 . S
C457 C455 1.380 . S
C457 C456 1.392 . S
C457 H474 0.929 . S
C458 C453 1.383 . S
C458 C454 1.389 . S
C458 H475 0.931 . S
C459 O444 1.266 . S
C459 O445 1.248 . S
C460 Tb396 2.802 . S
C460 O440 1.264 . S
C460 O443 1.256 . S
C460 C453 1.496 . S
C461 C428 1.448 . S
C461 H438 0.930 . S
C461 C462 1.328 . S
C462 C433 1.427 . S
C462 H439 0.929 . S
C462 C461 1.328 . S
C463 O447 1.264 . S
C463 O448 1.243 . S
C464 C467 1.399 . S
C464 C468 1.383 . S
C464 C471 1.496 . S
C465 C466 1.399 . S
C465 C468 1.389 . S
C466 C465 1.399 . S
C466 C469 1.380 . S
C466 H476 0.929 . S
C467 C464 1.399 . S
C467 C469 1.392 . S
C467 H477 0.929 . S
C468 C464 1.383 . S
C468 C465 1.389 . S
C468 H478 0.931 . S
C469 C466 1.380 . S
C469 C467 1.392 . S
C469 H479 0.929 . S
C470 O450 1.266 . S
C470 O451 1.248 . S
C471 Tb407 2.802 . S
C471 O446 1.264 . S
C471 O449 1.256 . S
C471 C464 1.496 . S
H472 C455 0.929 . S
H473 C456 0.929 . S
H474 C457 0.929 . S
H475 C458 0.931 . S
H476 C466 0.929 . S
H477 C467 0.929 . S
H478 C468 0.931 . S
H479 C469 0.929 . S
Tb480 N509 2.617 . S
Tb480 N515 2.572 . S
Tb480 O524 2.465 . S
Tb480 O525 2.387 . S
Tb480 O527 2.428 . S
Tb480 O528 2.308 . S
Tb480 O532 2.349 . S
Tb480 O535 2.393 . S
Tb480 C544 2.802 . S
C481 N482 1.379 . S
C481 C484 1.416 . S
C481 C488 1.424 . S
N482 C481 1.379 . S
N482 C485 1.334 . S
N482 Tb491 2.617 . S
C483 C485 1.390 . S
C483 C486 1.339 . S
C483 H503 0.930 . S
C484 C481 1.416 . S
C484 C486 1.416 . S
C484 C490 1.448 . S
C485 N482 1.334 . S
C485 C483 1.390 . S
C485 H496 0.930 . S
C486 C483 1.339 . S
C486 C484 1.416 . S
C486 H507 0.930 . S
C487 C488 1.413 . S
C487 C489 1.427 . S
C487 C493 1.416 . S
C488 C481 1.424 . S
C488 C487 1.413 . S
C488 N492 1.361 . S
C489 C487 1.427 . S
C489 C490 1.328 . S
C489 H504 0.929 . S
C490 C484 1.448 . S
C490 C489 1.328 . S
C490 H505 0.930 . S
Tb491 N482 2.617 . S
Tb491 N492 2.572 . S
Tb491 O526 2.349 1_655 S
Tb491 O529 2.393 . S
Tb491 O530 2.465 . S
Tb491 O531 2.387 . S
Tb491 O533 2.428 . S
Tb491 O534 2.308 1_655 S
Tb491 C555 2.802 . S
N492 C488 1.361 . S
N492 Tb491 2.572 . S
N492 C494 1.340 . S
C493 C487 1.416 . S
C493 C495 1.332 . S
C493 H501 0.931 . S
C494 N492 1.340 . S
C494 C495 1.407 . S
C494 H500 0.930 . S
C495 C493 1.332 . S
C495 C494 1.407 . S
C495 H497 0.929 . S
H496 C485 0.930 . S
H497 C495 0.929 . S
H498 C513 0.930 . S
H499 C520 0.929 . S
H500 C494 0.930 . S
H501 C493 0.931 . S
H502 C516 0.930 . S
H503 C483 0.930 . S
H504 C489 0.929 . S
H505 C490 0.930 . S
H506 C511 0.930 . S
H507 C486 0.930 . S
H508 C519 0.931 . S
N509 Tb480 2.617 . S
N509 C510 1.379 . S
N509 C513 1.334 . S
C510 N509 1.379 . S
C510 C512 1.416 . S
C510 C518 1.424 . S
C511 H506 0.930 . S
C511 C513 1.390 . S
C511 C514 1.339 . S
C512 C510 1.416 . S
C512 C514 1.416 . S
C512 C545 1.448 . S
C513 H498 0.930 . S
C513 N509 1.334 . S
C513 C511 1.390 . S
C514 C511 1.339 . S
C514 C512 1.416 . S
C514 H521 0.930 . S
N515 Tb480 2.572 . S
N515 C516 1.340 . S
N515 C518 1.361 . S
C516 H502 0.930 . S
C516 N515 1.340 . S
C516 C520 1.407 . S
C517 C518 1.413 . S
C517 C519 1.416 . S
C517 C546 1.427 . S
C518 C510 1.424 . S
C518 N515 1.361 . S
C518 C517 1.413 . S
C519 H508 0.931 . S
C519 C517 1.416 . S
C519 C520 1.332 . S
C520 H499 0.929 . S
C520 C516 1.407 . S
C520 C519 1.332 . S
H521 C514 0.930 . S
H522 C545 0.930 . S
H523 C546 0.929 . S
O524 Tb480 2.465 . S
O524 C544 1.264 . S
O525 Tb480 2.387 . S
O525 C536 1.264 . S
O526 Tb491 2.349 1_455 S
O526 C536 1.243 . S
O527 Tb480 2.428 . S
O527 C544 1.256 . S
O528 Tb480 2.308 . S
O528 C543 1.266 1_455 S
O529 Tb491 2.393 . S
O529 C543 1.248 . S
O530 Tb491 2.465 . S
O530 C555 1.264 . S
O531 Tb491 2.387 . S
O531 C547 1.264 . S
O532 Tb480 2.349 . S
O532 C547 1.243 1_455 S
O533 Tb491 2.428 . S
O533 C555 1.256 . S
O534 Tb491 2.308 1_455 S
O534 C554 1.266 . S
O535 Tb480 2.393 . S
O535 C554 1.248 . S
C536 O525 1.264 . S
C536 O526 1.243 . S
C537 C540 1.399 . S
C537 C542 1.383 . S
C537 C544 1.496 . S
C538 C539 1.399 . S
C538 C542 1.389 . S
C539 C538 1.399 . S
C539 C541 1.380 . S
C539 H556 0.929 . S
C540 C537 1.399 . S
C540 C541 1.392 . S
C540 H557 0.929 . S
C541 C539 1.380 . S
C541 C540 1.392 . S
C541 H558 0.929 . S
C542 C537 1.383 . S
C542 C538 1.389 . S
C542 H559 0.931 . S
C543 O528 1.266 1_655 S
C543 O529 1.248 . S
C544 Tb480 2.802 . S
C544 O524 1.264 . S
C544 O527 1.256 . S
C544 C537 1.496 . S
C545 C512 1.448 . S
C545 H522 0.930 . S
C545 C546 1.328 . S
C546 C517 1.427 . S
C546 H523 0.929 . S
C546 C545 1.328 . S
C547 O531 1.264 . S
C547 O532 1.243 1_655 S
C548 C551 1.399 . S
C548 C552 1.383 . S
C548 C555 1.496 . S
C549 C550 1.399 . S
C549 C552 1.389 . S
C550 C549 1.399 . S
C550 C553 1.380 . S
C550 H560 0.929 . S
C551 C548 1.399 . S
C551 C553 1.392 . S
C551 H561 0.929 . S
C552 C548 1.383 . S
C552 C549 1.389 . S
C552 H562 0.931 . S
C553 C550 1.380 . S
C553 C551 1.392 . S
C553 H563 0.929 . S
C554 O534 1.266 . S
C554 O535 1.248 . S
C555 Tb491 2.802 . S
C555 O530 1.264 . S
C555 O533 1.256 . S
C555 C548 1.496 . S
H556 C539 0.929 . S
H557 C540 0.929 . S
H558 C541 0.929 . S
H559 C542 0.931 . S
H560 C550 0.929 . S
H561 C551 0.929 . S
H562 C552 0.931 . S
H563 C553 0.929 . S
Tb564 N593 2.617 . S
Tb564 N599 2.572 . S
Tb564 O608 2.465 . S
Tb564 O609 2.387 . S
Tb564 O611 2.428 . S
Tb564 O612 2.308 . S
Tb564 O616 2.349 . S
Tb564 O619 2.393 . S
Tb564 C628 2.802 . S
C565 N566 1.379 . S
C565 C568 1.416 . S
C565 C572 1.424 . S
N566 C565 1.379 . S
N566 C569 1.334 . S
N566 Tb575 2.617 . S
C567 C569 1.390 . S
C567 C570 1.339 . S
C567 H587 0.930 . S
C568 C565 1.416 . S
C568 C570 1.416 . S
C568 C574 1.448 . S
C569 N566 1.334 . S
C569 C567 1.390 . S
C569 H580 0.930 . S
C570 C567 1.339 . S
C570 C568 1.416 . S
C570 H591 0.930 . S
C571 C572 1.413 . S
C571 C573 1.427 . S
C571 C577 1.416 . S
C572 C565 1.424 . S
C572 C571 1.413 . S
C572 N576 1.361 . S
C573 C571 1.427 . S
C573 C574 1.328 . S
C573 H588 0.929 . S
C574 C568 1.448 . S
C574 C573 1.328 . S
C574 H589 0.930 . S
Tb575 N566 2.617 . S
Tb575 N576 2.572 . S
Tb575 O610 2.349 . S
Tb575 O613 2.393 . S
Tb575 O614 2.465 . S
Tb575 O615 2.387 . S
Tb575 O617 2.428 . S
Tb575 O618 2.308 . S
Tb575 C639 2.802 . S
N576 C572 1.361 . S
N576 Tb575 2.572 . S
N576 C578 1.340 . S
C577 C571 1.416 . S
C577 C579 1.332 . S
C577 H585 0.931 . S
C578 N576 1.340 . S
C578 C579 1.407 . S
C578 H584 0.930 . S
C579 C577 1.332 . S
C579 C578 1.407 . S
C579 H581 0.929 . S
H580 C569 0.930 . S
H581 C579 0.929 . S
H582 C597 0.930 . S
H583 C604 0.929 . S
H584 C578 0.930 . S
H585 C577 0.931 . S
H586 C600 0.930 . S
H587 C567 0.930 . S
H588 C573 0.929 . S
H589 C574 0.930 . S
H590 C595 0.930 . S
H591 C570 0.930 . S
H592 C603 0.931 . S
N593 Tb564 2.617 . S
N593 C594 1.379 . S
N593 C597 1.334 . S
C594 N593 1.379 . S
C594 C596 1.416 . S
C594 C602 1.424 . S
C595 H590 0.930 . S
C595 C597 1.390 . S
C595 C598 1.339 . S
C596 C594 1.416 . S
C596 C598 1.416 . S
C596 C629 1.448 . S
C597 H582 0.930 . S
C597 N593 1.334 . S
C597 C595 1.390 . S
C598 C595 1.339 . S
C598 C596 1.416 . S
C598 H605 0.930 . S
N599 Tb564 2.572 . S
N599 C600 1.340 . S
N599 C602 1.361 . S
C600 H586 0.930 . S
C600 N599 1.340 . S
C600 C604 1.407 . S
C601 C602 1.413 . S
C601 C603 1.416 . S
C601 C630 1.427 . S
C602 C594 1.424 . S
C602 N599 1.361 . S
C602 C601 1.413 . S
C603 H592 0.931 . S
C603 C601 1.416 . S
C603 C604 1.332 . S
C604 H583 0.929 . S
C604 C600 1.407 . S
C604 C603 1.332 . S
H605 C598 0.930 . S
H606 C629 0.930 . S
H607 C630 0.929 . S
O608 Tb564 2.465 . S
O608 C628 1.264 . S
O609 Tb564 2.387 . S
O609 C620 1.264 . S
O610 Tb575 2.349 . S
O610 C620 1.243 . S
O611 Tb564 2.428 . S
O611 C628 1.256 . S
O612 Tb564 2.308 . S
O612 C627 1.266 . S
O613 Tb575 2.393 . S
O613 C627 1.248 . S
O614 Tb575 2.465 . S
O614 C639 1.264 . S
O615 Tb575 2.387 . S
O615 C631 1.264 . S
O616 Tb564 2.349 . S
O616 C631 1.243 . S
O617 Tb575 2.428 . S
O617 C639 1.256 . S
O618 Tb575 2.308 . S
O618 C638 1.266 . S
O619 Tb564 2.393 . S
O619 C638 1.248 . S
C620 O609 1.264 . S
C620 O610 1.243 . S
C621 C624 1.399 . S
C621 C626 1.383 . S
C621 C628 1.496 . S
C622 C623 1.399 . S
C622 C626 1.389 . S
C623 C622 1.399 . S
C623 C625 1.380 . S
C623 H640 0.929 . S
C624 C621 1.399 . S
C624 C625 1.392 . S
C624 H641 0.929 . S
C625 C623 1.380 . S
C625 C624 1.392 . S
C625 H642 0.929 . S
C626 C621 1.383 . S
C626 C622 1.389 . S
C626 H643 0.931 . S
C627 O612 1.266 . S
C627 O613 1.248 . S
C628 Tb564 2.802 . S
C628 O608 1.264 . S
C628 O611 1.256 . S
C628 C621 1.496 . S
C629 C596 1.448 . S
C629 H606 0.930 . S
C629 C630 1.328 . S
C630 C601 1.427 . S
C630 H607 0.929 . S
C630 C629 1.328 . S
C631 O615 1.264 . S
C631 O616 1.243 . S
C632 C635 1.399 . S
C632 C636 1.383 . S
C632 C639 1.496 . S
C633 C634 1.399 . S
C633 C636 1.389 . S
C634 C633 1.399 . S
C634 C637 1.380 . S
C634 H644 0.929 . S
C635 C632 1.399 . S
C635 C637 1.392 . S
C635 H645 0.929 . S
C636 C632 1.383 . S
C636 C633 1.389 . S
C636 H646 0.931 . S
C637 C634 1.380 . S
C637 C635 1.392 . S
C637 H647 0.929 . S
C638 O618 1.266 . S
C638 O619 1.248 . S
C639 Tb575 2.802 . S
C639 O614 1.264 . S
C639 O617 1.256 . S
C639 C632 1.496 . S
H640 C623 0.929 . S
H641 C624 0.929 . S
H642 C625 0.929 . S
H643 C626 0.931 . S
H644 C634 0.929 . S
H645 C635 0.929 . S
H646 C636 0.931 . S
H647 C637 0.929 . S
C648 C649 1.349 . S
C648 C650 1.327 . S
C648 H673 0.950 . S
C649 C648 1.349 . S
C649 C665 1.349 . S
C650 C648 1.327 . S
C650 C669 1.432 . S
C650 H674 0.950 . S
C651 C668 1.574 . S
C651 C670 1.368 . S
C651 H675 0.949 . S
H652 C656 0.949 . S
C653 C654 1.349 . S
C653 C655 1.327 . S
C653 H676 0.950 . S
C654 C653 1.349 . S
C654 C666 1.349 . S
C655 C653 1.327 . S
C655 C671 1.429 . S
C655 H677 0.950 . S
C656 H652 0.949 . S
C656 C664 1.574 . S
C656 C672 1.368 . S
H657 C665 0.950 . S
H658 C663 0.917 1_545 S
H659 C664 0.949 . S
H660 C666 0.950 . S
H661 C667 0.950 . S
H662 C668 0.949 . S
C663 H658 0.917 1_565 S
C663 C665 1.361 . S
C663 C669 1.428 . S
C664 C656 1.574 . S
C664 H659 0.949 . S
C664 C670 1.368 . S
C665 C649 1.349 . S
C665 H657 0.950 . S
C665 C663 1.361 . S
C666 C654 1.349 . S
C666 H660 0.950 . S
C666 C667 1.327 . S
C667 H661 0.950 . S
C667 C666 1.327 . S
C667 C671 1.429 . S
C668 C651 1.574 . S
C668 H662 0.949 . S
C668 C672 1.368 . S
C669 C650 1.432 . S
C669 C663 1.428 . S
C669 C670 1.520 1_565 S
C670 C651 1.368 . S
C670 C664 1.368 . S
C670 C669 1.520 1_545 S
C671 C655 1.429 . S
C671 C667 1.429 . S
C671 C672 1.523 . S
C672 C656 1.368 . S
C672 C668 1.368 . S
C672 C671 1.523 . S
H673 C648 0.950 . S
H674 C650 0.950 . S
H675 C651 0.949 . S
H676 C653 0.950 . S
H677 C655 0.950 . S
C678 C679 1.349 . S
C678 C680 1.327 . S
C678 H703 0.950 . S
C679 C678 1.349 . S
C679 C695 1.349 . S
C680 C678 1.327 . S
C680 C699 1.429 . S
C680 H704 0.950 . S
C681 C698 1.574 . S
C681 C700 1.368 . S
C681 H705 0.949 . S
H682 C686 0.949 . S
C683 C684 1.349 . S
C683 C685 1.327 . S
C683 H706 0.950 . S
C684 C683 1.349 . S
C684 C696 1.349 . S
C685 C683 1.327 . S
C685 C701 1.429 . S
C685 H707 0.950 . S
C686 H682 0.949 . S
C686 C694 1.574 . S
C686 C702 1.368 . S
H687 C695 0.950 . S
H688 C693 0.950 . S
H689 C694 0.949 . S
H690 C696 0.950 . S
H691 C697 0.950 . S
H692 C698 0.949 . S
C693 H688 0.950 . S
C693 C695 1.327 . S
C693 C699 1.429 . S
C694 C686 1.574 . S
C694 H689 0.949 . S
C694 C700 1.368 . S
C695 C679 1.349 . S
C695 H687 0.950 . S
C695 C693 1.327 . S
C696 C684 1.349 . S
C696 H690 0.950 . S
C696 C697 1.327 . S
C697 H691 0.950 . S
C697 C696 1.327 . S
C697 C701 1.429 . S
C698 C681 1.574 . S
C698 H692 0.949 . S
C698 C702 1.368 . S
C699 C680 1.429 . S
C699 C693 1.429 . S
C699 C700 1.523 . S
C700 C681 1.368 . S
C700 C694 1.368 . S
C700 C699 1.523 . S
C701 C685 1.429 . S
C701 C697 1.429 . S
C701 C702 1.523 . S
C702 C686 1.368 . S
C702 C698 1.368 . S
C702 C701 1.523 . S
H703 C678 0.950 . S
H704 C680 0.950 . S
H705 C681 0.949 . S
H706 C683 0.950 . S
H707 C685 0.950 . S
C708 C709 1.349 . S
C708 C710 1.327 . S
C708 H733 0.950 . S
C709 C708 1.349 . S
C709 C725 1.349 . S
C710 C708 1.327 . S
C710 C729 1.429 . S
C710 H734 0.950 . S
C711 C728 1.574 . S
C711 C730 1.368 . S
C711 H735 0.949 . S
H712 C716 0.949 . S
C713 C714 1.349 . S
C713 C715 1.327 . S
C713 H736 0.950 . S
C714 C713 1.349 . S
C714 C726 1.349 . S
C715 C713 1.327 . S
C715 C731 1.429 . S
C715 H737 0.950 . S
C716 H712 0.949 . S
C716 C724 1.574 . S
C716 C732 1.368 . S
H717 C725 0.950 . S
H718 C723 0.950 . S
H719 C724 0.949 . S
H720 C726 0.950 . S
H721 C727 0.950 . S
H722 C728 0.949 . S
C723 H718 0.950 . S
C723 C725 1.327 . S
C723 C729 1.429 . S
C724 C716 1.574 . S
C724 H719 0.949 . S
C724 C730 1.368 . S
C725 C709 1.349 . S
C725 H717 0.950 . S
C725 C723 1.327 . S
C726 C714 1.349 . S
C726 H720 0.950 . S
C726 C727 1.327 . S
C727 H721 0.950 . S
C727 C726 1.327 . S
C727 C731 1.429 . S
C728 C711 1.574 . S
C728 H722 0.949 . S
C728 C732 1.368 . S
C729 C710 1.429 . S
C729 C723 1.429 . S
C729 C730 1.523 . S
C730 C711 1.368 . S
C730 C724 1.368 . S
C730 C729 1.523 . S
C731 C715 1.429 . S
C731 C727 1.429 . S
C731 C732 1.523 . S
C732 C716 1.368 . S
C732 C728 1.368 . S
C732 C731 1.523 . S
H733 C708 0.950 . S
H734 C710 0.950 . S
H735 C711 0.949 . S
H736 C713 0.950 . S
H737 C715 0.950 . S
C738 C739 1.349 . S
C738 C740 1.327 1_565 S
C738 H763 0.950 . S
C739 C738 1.349 . S
C739 C755 1.349 . S
C740 C738 1.327 1_545 S
C740 C759 1.429 . S
C740 H764 0.950 . S
C741 C758 1.574 . S
C741 C760 1.368 . S
C741 H765 0.949 1_545 S
H742 C746 0.949 . S
C743 C744 1.349 . S
C743 C745 1.327 . S
C743 H766 0.950 . S
C744 C743 1.349 . S
C744 C756 1.349 . S
C745 C743 1.327 . S
C745 C761 1.429 . S
C745 H767 0.950 . S
C746 H742 0.949 . S
C746 C754 1.574 . S
C746 C762 1.368 . S
H747 C755 0.950 . S
H748 C753 0.950 . S
H749 C754 0.949 . S
H750 C756 0.950 . S
H751 C757 0.950 . S
H752 C758 0.949 . S
C753 H748 0.950 . S
C753 C755 1.327 . S
C753 C759 1.429 1_565 S
C754 C746 1.574 . S
C754 H749 0.949 . S
C754 C760 1.368 . S
C755 C739 1.349 . S
C755 H747 0.950 . S
C755 C753 1.327 . S
C756 C744 1.349 . S
C756 H750 0.950 . S
C756 C757 1.327 . S
C757 H751 0.950 . S
C757 C756 1.327 . S
C757 C761 1.429 . S
C758 C741 1.574 . S
C758 H752 0.949 . S
C758 C762 1.368 . S
C759 C740 1.429 . S
C759 C753 1.429 1_545 S
C759 C760 1.523 . S
C760 C741 1.368 . S
C760 C754 1.368 . S
C760 C759 1.523 . S
C761 C745 1.429 . S
C761 C757 1.429 . S
C761 C762 1.523 . S
C762 C746 1.368 . S
C762 C758 1.368 . S
C762 C761 1.523 . S
H763 C738 0.950 . S
H764 C740 0.950 . S
H765 C741 0.949 1_565 S
H766 C743 0.950 . S
H767 C745 0.950 . S
C768 C769 1.349 . S
C768 C770 1.327 1_545 S
C768 H793 0.950 . S
C769 C768 1.349 . S
C769 C785 1.349 . S
C770 C768 1.327 1_565 S
C770 C789 1.428 1_565 S
C770 H794 0.950 . S
C771 C788 1.574 . S
C771 C790 1.368 . S
C771 H795 0.923 1_565 S
H772 C776 0.949 . S
C773 C774 1.349 . S
C773 C775 1.327 . S
C773 H796 0.950 . S
C774 C773 1.349 . S
C774 C786 1.349 . S
C775 C773 1.327 . S
C775 C791 1.429 . S
C775 H797 0.950 . S
C776 H772 0.949 . S
C776 C784 1.574 . S
C776 C792 1.368 . S
H777 C785 0.950 . S
H778 C783 0.950 . S
H779 C784 0.949 . S
H780 C786 0.950 . S
H781 C787 0.950 . S
H782 C788 0.949 . S
C783 H778 0.950 . S
C783 C785 1.327 . S
C783 C789 1.434 . S
C784 C776 1.574 . S
C784 H779 0.949 . S
C784 C790 1.368 . S
C785 C769 1.349 . S
C785 H777 0.950 . S
C785 C783 1.327 . S
C786 C774 1.349 . S
C786 H780 0.950 . S
C786 C787 1.327 . S
C787 H781 0.950 . S
C787 C786 1.327 . S
C787 C791 1.429 . S
C788 C771 1.574 . S
C788 H782 0.949 . S
C788 C792 1.368 . S
C789 C770 1.428 1_545 S
C789 C783 1.434 . S
C789 C790 1.518 1_545 S
C790 C771 1.368 . S
C790 C784 1.368 . S
C790 C789 1.518 1_565 S
C791 C775 1.429 . S
C791 C787 1.429 . S
C791 C792 1.523 . S
C792 C776 1.368 . S
C792 C788 1.368 . S
C792 C791 1.523 . S
H793 C768 0.950 . S
H794 C770 0.950 . S
H795 C771 0.923 1_545 S
H796 C773 0.950 . S
H797 C775 0.950 . S
C798 C799 1.349 . S
C798 C800 1.327 . S
C798 H823 0.950 . S
C799 C798 1.349 . S
C799 C815 1.349 . S
C800 C798 1.327 . S
C800 C819 1.429 . S
C800 H824 0.950 . S
C801 C818 1.574 . S
C801 C820 1.368 . S
C801 H825 0.949 . S
H802 C806 0.949 . S
C803 C804 1.349 . S
C803 C805 1.327 . S
C803 H826 0.950 . S
C804 C803 1.349 . S
C804 C816 1.349 . S
C805 C803 1.327 . S
C805 C821 1.429 . S
C805 H827 0.950 . S
C806 H802 0.949 . S
C806 C814 1.574 . S
C806 C822 1.368 . S
H807 C815 0.950 . S
H808 C813 0.950 . S
H809 C814 0.949 . S
H810 C816 0.950 . S
H811 C817 0.950 . S
H812 C818 0.949 . S
C813 H808 0.950 . S
C813 C815 1.327 . S
C813 C819 1.429 . S
C814 C806 1.574 . S
C814 H809 0.949 . S
C814 C820 1.368 . S
C815 C799 1.349 . S
C815 H807 0.950 . S
C815 C813 1.327 . S
C816 C804 1.349 . S
C816 H810 0.950 . S
C816 C817 1.327 . S
C817 H811 0.950 . S
C817 C816 1.327 . S
C817 C821 1.429 . S
C818 C801 1.574 . S
C818 H812 0.949 . S
C818 C822 1.368 . S
C819 C800 1.429 . S
C819 C813 1.429 . S
C819 C820 1.523 . S
C820 C801 1.368 . S
C820 C814 1.368 . S
C820 C819 1.523 . S
C821 C805 1.429 . S
C821 C817 1.429 . S
C821 C822 1.523 . S
C822 C806 1.368 . S
C822 C818 1.368 . S
C822 C821 1.523 . S
H823 C798 0.950 . S
H824 C800 0.950 . S
H825 C801 0.949 . S
H826 C803 0.950 . S
H827 C805 0.950 . S
C828 C829 1.349 . S
C828 C830 1.327 . S
C828 H853 0.950 . S
C829 C828 1.349 . S
C829 C845 1.349 . S
C830 C828 1.327 . S
C830 C849 1.429 . S
C830 H854 0.950 . S
C831 C848 1.574 . S
C831 C850 1.368 . S
C831 H855 0.949 . S
H832 C836 0.949 . S
C833 C834 1.349 . S
C833 C835 1.327 . S
C833 H856 0.950 . S
C834 C833 1.349 . S
C834 C846 1.349 . S
C835 C833 1.327 . S
C835 C851 1.429 . S
C835 H857 0.950 . S
C836 H832 0.949 . S
C836 C844 1.574 . S
C836 C852 1.368 . S
H837 C845 0.950 . S
H838 C843 0.950 . S
H839 C844 0.949 . S
H840 C846 0.950 . S
H841 C847 0.950 . S
H842 C848 0.949 . S
C843 H838 0.950 . S
C843 C845 1.327 . S
C843 C849 1.429 . S
C844 C836 1.574 . S
C844 H839 0.949 . S
C844 C850 1.368 . S
C845 C829 1.349 . S
C845 H837 0.950 . S
C845 C843 1.327 . S
C846 C834 1.349 . S
C846 H840 0.950 . S
C846 C847 1.327 . S
C847 H841 0.950 . S
C847 C846 1.327 . S
C847 C851 1.429 . S
C848 C831 1.574 . S
C848 H842 0.949 . S
C848 C852 1.368 . S
C849 C830 1.429 . S
C849 C843 1.429 . S
C849 C850 1.523 . S
C850 C831 1.368 . S
C850 C844 1.368 . S
C850 C849 1.523 . S
C851 C835 1.429 . S
C851 C847 1.429 . S
C851 C852 1.523 . S
C852 C836 1.368 . S
C852 C848 1.368 . S
C852 C851 1.523 . S
H853 C828 0.950 . S
H854 C830 0.950 . S
H855 C831 0.949 . S
H856 C833 0.950 . S
H857 C835 0.950 . S
C858 C859 1.349 . S
C858 C860 1.327 1_545 S
C858 H883 0.950 . S
C859 C858 1.349 . S
C859 C875 1.349 . S
C860 C858 1.327 1_565 S
C860 C879 1.429 . S
C860 H884 0.950 . S
C861 C878 1.574 . S
C861 C880 1.368 . S
C861 H885 0.949 . S
H862 C866 0.949 . S
C863 C864 1.349 . S
C863 C865 1.327 . S
C863 H886 0.950 . S
C864 C863 1.349 . S
C864 C876 1.349 . S
C865 C863 1.327 . S
C865 C881 1.429 . S
C865 H887 0.950 . S
C866 H862 0.949 . S
C866 C874 1.574 . S
C866 C882 1.368 . S
H867 C875 0.950 . S
H868 C873 0.950 . S
H869 C874 0.949 . S
H870 C876 0.950 . S
H871 C877 0.950 . S
H872 C878 0.949 . S
C873 H868 0.950 . S
C873 C875 1.327 . S
C873 C879 1.429 1_545 S
C874 C866 1.574 . S
C874 H869 0.949 . S
C874 C880 1.368 . S
C875 C859 1.349 . S
C875 H867 0.950 . S
C875 C873 1.327 . S
C876 C864 1.349 . S
C876 H870 0.950 . S
C876 C877 1.327 . S
C877 H871 0.950 . S
C877 C876 1.327 . S
C877 C881 1.429 . S
C878 C861 1.574 . S
C878 H872 0.949 . S
C878 C882 1.368 . S
C879 C860 1.429 . S
C879 C873 1.429 1_565 S
C879 C880 1.523 . S
C880 C861 1.368 . S
C880 C874 1.368 . S
C880 C879 1.523 . S
C881 C865 1.429 . S
C881 C877 1.429 . S
C881 C882 1.523 . S
C882 C866 1.368 . S
C882 C878 1.368 . S
C882 C881 1.523 . S
H883 C858 0.950 . S
H884 C860 0.950 . S
H885 C861 0.949 . S
H886 C863 0.950 . S
H887 C865 0.950 . S
C888 C889 1.349 . S
C888 C890 1.327 . S
C888 H913 0.950 1_554 S
C889 C888 1.349 . S
C889 C905 1.349 . S
C890 C888 1.327 . S
C890 C909 1.429 . S
C890 H914 0.950 . S
C891 C908 1.574 . S
C891 C910 1.368 . S
C891 H915 0.949 . S
H892 C896 0.949 . S
C893 C894 1.349 . S
C893 C895 1.327 . S
C893 H916 0.950 . S
C894 C893 1.349 . S
C894 C906 1.349 . S
C895 C893 1.327 . S
C895 C911 1.429 . S
C895 H917 0.950 . S
C896 H892 0.949 . S
C896 C904 1.574 . S
C896 C912 1.368 . S
H897 C905 0.950 . S
H898 C903 0.950 . S
H899 C904 0.949 . S
H900 C906 0.950 . S
H901 C907 0.950 . S
H902 C908 0.949 . S
C903 H898 0.950 . S
C903 C905 1.327 . S
C903 C909 1.429 . S
C904 C896 1.574 . S
C904 H899 0.949 . S
C904 C910 1.368 . S
C905 C889 1.349 . S
C905 H897 0.950 . S
C905 C903 1.327 . S
C906 C894 1.349 . S
C906 H900 0.950 . S
C906 C907 1.327 . S
C907 H901 0.950 . S
C907 C906 1.327 . S
C907 C911 1.429 . S
C908 C891 1.574 . S
C908 H902 0.949 . S
C908 C912 1.368 . S
C909 C890 1.429 . S
C909 C903 1.429 . S
C909 C910 1.523 . S
C910 C891 1.368 . S
C910 C904 1.368 . S
C910 C909 1.523 . S
C911 C895 1.429 . S
C911 C907 1.429 . S
C911 C912 1.523 . S
C912 C896 1.368 . S
C912 C908 1.368 . S
C912 C911 1.523 . S
H913 C888 0.950 1_556 S
H914 C890 0.950 . S
H915 C891 0.949 . S
H916 C893 0.950 . S
H917 C895 0.950 . S
C918 C919 1.349 . S
C918 C920 1.327 . S
C918 H943 0.950 . S
C919 C918 1.349 . S
C919 C935 1.349 . S
C920 C918 1.327 . S
C920 C939 1.429 . S
C920 H944 0.950 . S
C921 C938 1.574 . S
C921 C940 1.368 . S
C921 H945 0.949 . S
H922 C926 0.949 . S
C923 C924 1.349 . S
C923 C925 1.327 . S
C923 H946 0.950 . S
C924 C923 1.349 . S
C924 C936 1.349 . S
C925 C923 1.327 . S
C925 C941 1.429 . S
C925 H947 0.950 . S
C926 H922 0.949 . S
C926 C934 1.574 . S
C926 C942 1.368 . S
H927 C935 0.950 . S
H928 C933 0.950 . S
H929 C934 0.949 . S
H930 C936 0.950 . S
H931 C937 0.950 . S
H932 C938 0.949 . S
C933 H928 0.950 . S
C933 C935 1.327 . S
C933 C939 1.429 . S
C934 C926 1.574 . S
C934 H929 0.949 . S
C934 C940 1.368 . S
C935 C919 1.349 . S
C935 H927 0.950 . S
C935 C933 1.327 . S
C936 C924 1.349 . S
C936 H930 0.950 . S
C936 C937 1.327 . S
C937 H931 0.950 . S
C937 C936 1.327 . S
C937 C941 1.429 . S
C938 C921 1.574 . S
C938 H932 0.949 . S
C938 C942 1.368 . S
C939 C920 1.429 . S
C939 C933 1.429 . S
C939 C940 1.523 . S
C940 C921 1.368 . S
C940 C934 1.368 . S
C940 C939 1.523 . S
C941 C925 1.429 . S
C941 C937 1.429 . S
C941 C942 1.523 . S
C942 C926 1.368 . S
C942 C938 1.368 . S
C942 C941 1.523 . S
H943 C918 0.950 . S
H944 C920 0.950 . S
H945 C921 0.949 . S
H946 C923 0.950 . S
H947 C925 0.950 . S
C948 C949 1.349 . S
C948 C950 1.327 . S
C948 H973 0.950 1_556 S
C949 C948 1.349 . S
C949 C965 1.350 . S
C950 C948 1.327 . S
C950 C969 1.429 . S
C950 H974 0.950 . S
C951 C968 1.574 . S
C951 C970 1.368 . S
C951 H975 0.949 . S
H952 C956 0.949 . S
C953 C954 1.349 . S
C953 C955 1.327 . S
C953 H976 0.950 . S
C954 C953 1.349 . S
C954 C966 1.349 . S
C955 C953 1.327 . S
C955 C971 1.429 . S
C955 H977 0.950 . S
C956 H952 0.949 . S
C956 C964 1.574 . S
C956 C972 1.368 . S
H957 C965 0.950 . S
H958 C963 0.950 . S
H959 C964 0.949 . S
H960 C966 0.950 . S
H961 C967 0.950 . S
H962 C968 0.949 . S
C963 H958 0.950 . S
C963 C965 1.327 . S
C963 C969 1.429 . S
C964 C956 1.574 . S
C964 H959 0.949 . S
C964 C970 1.368 . S
C965 C949 1.350 . S
C965 H957 0.950 . S
C965 C963 1.327 . S
C966 C954 1.349 . S
C966 H960 0.950 . S
C966 C967 1.327 . S
C967 H961 0.950 . S
C967 C966 1.327 . S
C967 C971 1.429 . S
C968 C951 1.574 . S
C968 H962 0.949 . S
C968 C972 1.368 . S
C969 C950 1.429 . S
C969 C963 1.429 . S
C969 C970 1.523 . S
C970 C951 1.368 . S
C970 C964 1.368 . S
C970 C969 1.523 . S
C971 C955 1.429 . S
C971 C967 1.429 . S
C971 C972 1.523 . S
C972 C956 1.368 . S
C972 C968 1.368 . S
C972 C971 1.523 . S
H973 C948 0.950 1_554 S
H974 C950 0.950 . S
H975 C951 0.949 . S
H976 C953 0.950 . S
H977 C955 0.950 . S
C978 C979 1.349 . S
C978 C980 1.327 . S
C978 H1003 0.950 . S
C979 C978 1.349 . S
C979 C995 1.349 . S
C980 C978 1.327 . S
C980 C999 1.429 . S
C980 H1004 0.950 . S
C981 C998 1.574 . S
C981 C1000 1.368 . S
C981 H1005 0.949 . S
H982 C986 0.949 . S
C983 C984 1.349 . S
C983 C985 1.327 . S
C983 H1006 0.950 . S
C984 C983 1.349 . S
C984 C996 1.349 . S
C985 C983 1.327 . S
C985 C1001 1.429 . S
C985 H1007 0.950 . S
C986 H982 0.949 . S
C986 C994 1.574 . S
C986 C1002 1.368 . S
H987 C995 0.950 . S
H988 C993 0.950 . S
H989 C994 0.949 . S
H990 C996 0.950 . S
H991 C997 0.950 . S
H992 C998 0.949 . S
C993 H988 0.950 . S
C993 C995 1.327 . S
C993 C999 1.429 . S
C994 C986 1.574 . S
C994 H989 0.949 . S
C994 C1000 1.368 . S
C995 C979 1.349 . S
C995 H987 0.950 . S
C995 C993 1.327 . S
C996 C984 1.349 . S
C996 H990 0.950 . S
C996 C997 1.327 . S
C997 H991 0.950 . S
C997 C996 1.327 . S
C997 C1001 1.429 . S
C998 C981 1.574 . S
C998 H992 0.949 . S
C998 C1002 1.368 . S
C999 C980 1.429 . S
C999 C993 1.429 . S
C999 C1000 1.523 . S
C1000 C981 1.368 . S
C1000 C994 1.368 . S
C1000 C999 1.523 . S
C1001 C985 1.429 . S
C1001 C997 1.429 . S
C1001 C1002 1.523 . S
C1002 C986 1.368 . S
C1002 C998 1.368 . S
C1002 C1001 1.523 . S
H1003 C978 0.950 . S
H1004 C980 0.950 . S
H1005 C981 0.949 . S
H1006 C983 0.950 . S
H1007 C985 0.950 . S
C1008 C1009 1.349 . S
C1008 C1010 1.327 . S
C1008 H1033 0.950 . S
C1009 C1008 1.349 . S
C1009 C1025 1.349 . S
C1010 C1008 1.327 . S
C1010 C1029 1.429 . S
C1010 H1034 0.950 . S
C1011 C1028 1.574 . S
C1011 C1030 1.368 . S
C1011 H1035 0.949 . S
H1012 C1016 0.949 . S
C1013 C1014 1.349 . S
C1013 C1015 1.327 . S
C1013 H1036 0.950 . S
C1014 C1013 1.349 . S
C1014 C1026 1.349 . S
C1015 C1013 1.327 . S
C1015 C1031 1.429 . S
C1015 H1037 0.950 . S
C1016 H1012 0.949 . S
C1016 C1024 1.574 . S
C1016 C1032 1.368 . S
H1017 C1025 0.950 . S
H1018 C1023 0.950 . S
H1019 C1024 0.949 . S
H1020 C1026 0.950 . S
H1021 C1027 0.950 . S
H1022 C1028 0.949 . S
C1023 H1018 0.950 . S
C1023 C1025 1.327 . S
C1023 C1029 1.429 . S
C1024 C1016 1.574 . S
C1024 H1019 0.949 . S
C1024 C1030 1.368 . S
C1025 C1009 1.349 . S
C1025 H1017 0.950 . S
C1025 C1023 1.327 . S
C1026 C1014 1.349 . S
C1026 H1020 0.950 . S
C1026 C1027 1.327 . S
C1027 H1021 0.950 . S
C1027 C1026 1.327 . S
C1027 C1031 1.429 . S
C1028 C1011 1.574 . S
C1028 H1022 0.949 . S
C1028 C1032 1.368 . S
C1029 C1010 1.429 . S
C1029 C1023 1.429 . S
C1029 C1030 1.523 . S
C1030 C1011 1.368 . S
C1030 C1024 1.368 . S
C1030 C1029 1.523 . S
C1031 C1015 1.429 . S
C1031 C1027 1.429 . S
C1031 C1032 1.523 . S
C1032 C1016 1.368 . S
C1032 C1028 1.368 . S
C1032 C1031 1.523 . S
H1033 C1008 0.950 . S
H1034 C1010 0.950 . S
H1035 C1011 0.949 . S
H1036 C1013 0.950 . S
H1037 C1015 0.950 . S
C1038 C1039 1.349 . S
C1038 C1040 1.327 . S
C1038 H1063 0.950 . S
C1039 C1038 1.349 . S
C1039 C1055 1.349 . S
C1040 C1038 1.327 . S
C1040 C1059 1.429 . S
C1040 H1064 0.950 . S
C1041 C1058 1.574 . S
C1041 C1060 1.368 . S
C1041 H1065 0.949 . S
H1042 C1046 0.949 . S
C1043 C1044 1.349 . S
C1043 C1045 1.327 . S
C1043 H1066 0.950 . S
C1044 C1043 1.349 . S
C1044 C1056 1.349 . S
C1045 C1043 1.327 . S
C1045 C1061 1.429 . S
C1045 H1067 0.950 . S
C1046 H1042 0.949 . S
C1046 C1054 1.574 . S
C1046 C1062 1.368 . S
H1047 C1055 0.950 . S
H1048 C1053 0.950 . S
H1049 C1054 0.949 . S
H1050 C1056 0.950 . S
H1051 C1057 0.950 . S
H1052 C1058 0.949 . S
C1053 H1048 0.950 . S
C1053 C1055 1.327 . S
C1053 C1059 1.429 . S
C1054 C1046 1.574 . S
C1054 H1049 0.949 . S
C1054 C1060 1.368 . S
C1055 C1039 1.349 . S
C1055 H1047 0.950 . S
C1055 C1053 1.327 . S
C1056 C1044 1.349 . S
C1056 H1050 0.950 . S
C1056 C1057 1.327 . S
C1057 H1051 0.950 . S
C1057 C1056 1.327 . S
C1057 C1061 1.429 . S
C1058 C1041 1.574 . S
C1058 H1052 0.949 . S
C1058 C1062 1.368 . S
C1059 C1040 1.429 . S
C1059 C1053 1.429 . S
C1059 C1060 1.523 . S
C1060 C1041 1.368 . S
C1060 C1054 1.368 . S
C1060 C1059 1.523 . S
C1061 C1045 1.429 . S
C1061 C1057 1.429 . S
C1061 C1062 1.523 . S
C1062 C1046 1.368 . S
C1062 C1058 1.368 . S
C1062 C1061 1.523 . S
H1063 C1038 0.950 . S
H1064 C1040 0.950 . S
H1065 C1041 0.949 . S
H1066 C1043 0.950 . S
H1067 C1045 0.950 . S
C1068 C1069 1.348 1_554 S
C1068 C1070 1.327 . S
C1068 H1093 0.950 1_554 S
C1069 C1068 1.348 1_556 S
C1069 C1085 1.347 1_556 S
C1070 C1068 1.327 . S
C1070 C1089 1.429 . S
C1070 H1094 0.950 . S
C1071 C1088 1.574 . S
C1071 C1090 1.368 . S
C1071 H1095 0.949 . S
H1072 C1076 0.949 . S
C1073 C1074 1.349 . S
C1073 C1075 1.327 . S
C1073 H1096 0.950 . S
C1074 C1073 1.349 . S
C1074 C1086 1.349 . S
C1075 C1073 1.327 . S
C1075 C1091 1.429 . S
C1075 H1097 0.950 . S
C1076 H1072 0.949 . S
C1076 C1084 1.574 . S
C1076 C1092 1.368 . S
H1077 C1085 0.950 . S
H1078 C1083 0.950 . S
H1079 C1084 0.949 . S
H1080 C1086 0.950 . S
H1081 C1087 0.950 . S
H1082 C1088 0.949 . S
C1083 H1078 0.950 . S
C1083 C1085 1.327 . S
C1083 C1089 1.429 . S
C1084 C1076 1.574 . S
C1084 H1079 0.949 . S
C1084 C1090 1.368 . S
C1085 C1069 1.347 1_554 S
C1085 H1077 0.950 . S
C1085 C1083 1.327 . S
C1086 C1074 1.349 . S
C1086 H1080 0.950 . S
C1086 C1087 1.327 . S
C1087 H1081 0.950 . S
C1087 C1086 1.327 . S
C1087 C1091 1.429 . S
C1088 C1071 1.574 . S
C1088 H1082 0.949 . S
C1088 C1092 1.368 . S
C1089 C1070 1.429 . S
C1089 C1083 1.429 . S
C1089 C1090 1.523 . S
C1090 C1071 1.368 . S
C1090 C1084 1.368 . S
C1090 C1089 1.523 . S
C1091 C1075 1.429 . S
C1091 C1087 1.429 . S
C1091 C1092 1.523 . S
C1092 C1076 1.368 . S
C1092 C1088 1.368 . S
C1092 C1091 1.523 . S
H1093 C1068 0.950 1_556 S
H1094 C1070 0.950 . S
H1095 C1071 0.949 . S
H1096 C1073 0.950 . S
H1097 C1075 0.950 . S
C1098 C1099 1.349 . S
C1098 C1100 1.327 . S
C1098 H1123 0.950 . S
C1099 C1098 1.349 . S
C1099 C1115 1.349 . S
C1100 C1098 1.327 . S
C1100 C1119 1.429 . S
C1100 H1124 0.950 . S
C1101 C1118 1.574 . S
C1101 C1120 1.368 . S
C1101 H1125 0.949 . S
H1102 C1106 0.949 . S
C1103 C1104 1.349 . S
C1103 C1105 1.327 . S
C1103 H1126 0.950 . S
C1104 C1103 1.349 . S
C1104 C1116 1.349 . S
C1105 C1103 1.327 . S
C1105 C1121 1.429 . S
C1105 H1127 0.950 . S
C1106 H1102 0.949 . S
C1106 C1114 1.574 . S
C1106 C1122 1.368 . S
H1107 C1115 0.950 . S
H1108 C1113 0.950 . S
H1109 C1114 0.949 . S
H1110 C1116 0.950 . S
H1111 C1117 0.950 . S
H1112 C1118 0.949 . S
C1113 H1108 0.950 . S
C1113 C1115 1.327 . S
C1113 C1119 1.429 . S
C1114 C1106 1.574 . S
C1114 H1109 0.949 . S
C1114 C1120 1.368 . S
C1115 C1099 1.349 . S
C1115 H1107 0.950 . S
C1115 C1113 1.327 . S
C1116 C1104 1.349 . S
C1116 H1110 0.950 . S
C1116 C1117 1.327 . S
C1117 H1111 0.950 . S
C1117 C1116 1.327 . S
C1117 C1121 1.429 . S
C1118 C1101 1.574 . S
C1118 H1112 0.949 . S
C1118 C1122 1.368 . S
C1119 C1100 1.429 . S
C1119 C1113 1.429 . S
C1119 C1120 1.523 . S
C1120 C1101 1.368 . S
C1120 C1114 1.368 . S
C1120 C1119 1.523 . S
C1121 C1105 1.429 . S
C1121 C1117 1.429 . S
C1121 C1122 1.523 . S
C1122 C1106 1.368 . S
C1122 C1118 1.368 . S
C1122 C1121 1.523 . S
H1123 C1098 0.950 . S
H1124 C1100 0.950 . S
H1125 C1101 0.949 . S
H1126 C1103 0.950 . S
H1127 C1105 0.950 . S
C1128 C1129 1.349 . S
C1128 C1130 1.327 . S
C1128 H1153 0.950 . S
C1129 C1128 1.349 . S
C1129 C1145 1.349 . S
C1130 C1128 1.327 . S
C1130 C1149 1.429 . S
C1130 H1154 0.950 . S
C1131 C1148 1.574 . S
C1131 C1150 1.368 . S
C1131 H1155 0.949 . S
H1132 C1136 0.949 . S
C1133 C1134 1.349 . S
C1133 C1135 1.327 . S
C1133 H1156 0.950 . S
C1134 C1133 1.349 . S
C1134 C1146 1.349 . S
C1135 C1133 1.327 . S
C1135 C1151 1.429 . S
C1135 H1157 0.950 . S
C1136 H1132 0.949 . S
C1136 C1144 1.574 . S
C1136 C1152 1.368 . S
H1137 C1145 0.950 . S
H1138 C1143 0.950 . S
H1139 C1144 0.949 . S
H1140 C1146 0.950 . S
H1141 C1147 0.950 . S
H1142 C1148 0.949 . S
C1143 H1138 0.950 . S
C1143 C1145 1.327 . S
C1143 C1149 1.429 . S
C1144 C1136 1.574 . S
C1144 H1139 0.949 . S
C1144 C1150 1.368 . S
C1145 C1129 1.349 . S
C1145 H1137 0.950 . S
C1145 C1143 1.327 . S
C1146 C1134 1.349 . S
C1146 H1140 0.950 . S
C1146 C1147 1.327 . S
C1147 H1141 0.950 . S
C1147 C1146 1.327 . S
C1147 C1151 1.429 . S
C1148 C1131 1.574 . S
C1148 H1142 0.949 . S
C1148 C1152 1.368 . S
C1149 C1130 1.429 . S
C1149 C1143 1.429 . S
C1149 C1150 1.523 . S
C1150 C1131 1.368 . S
C1150 C1144 1.368 . S
C1150 C1149 1.523 . S
C1151 C1135 1.429 . S
C1151 C1147 1.429 . S
C1151 C1152 1.523 . S
C1152 C1136 1.368 . S
C1152 C1148 1.368 . S
C1152 C1151 1.523 . S
H1153 C1128 0.950 . S
H1154 C1130 0.950 . S
H1155 C1131 0.949 . S
H1156 C1133 0.950 . S
H1157 C1135 0.950 . S
C1158 C1159 1.349 . S
C1158 C1160 1.327 . S
C1158 H1183 0.950 . S
C1159 C1158 1.349 . S
C1159 C1175 1.349 . S
C1160 C1158 1.327 . S
C1160 C1179 1.429 . S
C1160 H1184 0.950 . S
C1161 C1178 1.574 . S
C1161 C1180 1.368 . S
C1161 H1185 0.949 . S
H1162 C1166 0.949 . S
C1163 C1164 1.349 . S
C1163 C1165 1.327 . S
C1163 H1186 0.950 . S
C1164 C1163 1.349 . S
C1164 C1176 1.349 . S
C1165 C1163 1.327 . S
C1165 C1181 1.429 . S
C1165 H1187 0.950 . S
C1166 H1162 0.949 . S
C1166 C1174 1.574 . S
C1166 C1182 1.368 . S
H1167 C1175 0.950 . S
H1168 C1173 0.950 . S
H1169 C1174 0.949 . S
H1170 C1176 0.950 . S
H1171 C1177 0.950 . S
H1172 C1178 0.949 . S
C1173 H1168 0.950 . S
C1173 C1175 1.327 . S
C1173 C1179 1.429 . S
C1174 C1166 1.574 . S
C1174 H1169 0.949 . S
C1174 C1180 1.368 . S
C1175 C1159 1.349 . S
C1175 H1167 0.950 . S
C1175 C1173 1.327 . S
C1176 C1164 1.349 . S
C1176 H1170 0.950 . S
C1176 C1177 1.327 . S
C1177 H1171 0.950 . S
C1177 C1176 1.327 . S
C1177 C1181 1.429 . S
C1178 C1161 1.574 . S
C1178 H1172 0.949 . S
C1178 C1182 1.368 . S
C1179 C1160 1.429 . S
C1179 C1173 1.429 . S
C1179 C1180 1.523 . S
C1180 C1161 1.368 . S
C1180 C1174 1.368 . S
C1180 C1179 1.523 . S
C1181 C1165 1.429 . S
C1181 C1177 1.429 . S
C1181 C1182 1.523 . S
C1182 C1166 1.368 . S
C1182 C1178 1.368 . S
C1182 C1181 1.523 . S
H1183 C1158 0.950 . S
H1184 C1160 0.950 . S
H1185 C1161 0.949 . S
H1186 C1163 0.950 . S
H1187 C1165 0.950 . S
C1188 C1189 1.349 . S
C1188 C1190 1.327 . S
C1188 H1213 0.950 . S
C1189 C1188 1.349 . S
C1189 C1205 1.349 . S
C1190 C1188 1.327 . S
C1190 C1209 1.429 . S
C1190 H1214 0.950 . S
C1191 C1208 1.574 . S
C1191 C1210 1.368 . S
C1191 H1215 0.949 . S
H1192 C1196 0.949 . S
C1193 C1194 1.349 . S
C1193 C1195 1.327 . S
C1193 H1216 0.950 . S
C1194 C1193 1.349 . S
C1194 C1206 1.349 . S
C1195 C1193 1.327 . S
C1195 C1211 1.429 . S
C1195 H1217 0.950 . S
C1196 H1192 0.949 . S
C1196 C1204 1.574 . S
C1196 C1212 1.368 . S
H1197 C1205 0.950 . S
H1198 C1203 0.950 . S
H1199 C1204 0.949 . S
H1200 C1206 0.950 . S
H1201 C1207 0.950 . S
H1202 C1208 0.949 . S
C1203 H1198 0.950 . S
C1203 C1205 1.327 . S
C1203 C1209 1.429 . S
C1204 C1196 1.574 . S
C1204 H1199 0.949 . S
C1204 C1210 1.368 . S
C1205 C1189 1.349 . S
C1205 H1197 0.950 . S
C1205 C1203 1.327 . S
C1206 C1194 1.349 . S
C1206 H1200 0.950 . S
C1206 C1207 1.327 . S
C1207 H1201 0.950 . S
C1207 C1206 1.327 . S
C1207 C1211 1.429 . S
C1208 C1191 1.574 . S
C1208 H1202 0.949 . S
C1208 C1212 1.368 . S
C1209 C1190 1.429 . S
C1209 C1203 1.429 . S
C1209 C1210 1.523 . S
C1210 C1191 1.368 . S
C1210 C1204 1.368 . S
C1210 C1209 1.523 . S
C1211 C1195 1.429 . S
C1211 C1207 1.429 . S
C1211 C1212 1.523 . S
C1212 C1196 1.368 . S
C1212 C1208 1.368 . S
C1212 C1211 1.523 . S
H1213 C1188 0.950 . S
H1214 C1190 0.950 . S
H1215 C1191 0.949 . S
H1216 C1193 0.950 . S
H1217 C1195 0.950 . S
C1218 C1219 1.349 . S
C1218 C1220 1.327 . S
C1218 H1243 0.950 . S
C1219 C1218 1.349 . S
C1219 C1235 1.349 . S
C1220 C1218 1.327 . S
C1220 C1239 1.429 . S
C1220 H1244 0.950 . S
C1221 C1238 1.574 . S
C1221 C1240 1.368 . S
C1221 H1245 0.949 . S
H1222 C1226 0.949 . S
C1223 C1224 1.349 . S
C1223 C1225 1.327 . S
C1223 H1246 0.950 . S
C1224 C1223 1.349 . S
C1224 C1236 1.349 . S
C1225 C1223 1.327 . S
C1225 C1241 1.429 . S
C1225 H1247 0.950 . S
C1226 H1222 0.949 . S
C1226 C1234 1.574 . S
C1226 C1242 1.368 . S
H1227 C1235 0.950 . S
H1228 C1233 0.950 . S
H1229 C1234 0.949 . S
H1230 C1236 0.950 . S
H1231 C1237 0.950 . S
H1232 C1238 0.949 . S
C1233 H1228 0.950 . S
C1233 C1235 1.327 . S
C1233 C1239 1.429 . S
C1234 C1226 1.574 . S
C1234 H1229 0.949 . S
C1234 C1240 1.368 . S
C1235 C1219 1.349 . S
C1235 H1227 0.950 . S
C1235 C1233 1.327 . S
C1236 C1224 1.349 . S
C1236 H1230 0.950 . S
C1236 C1237 1.327 . S
C1237 H1231 0.950 . S
C1237 C1236 1.327 . S
C1237 C1241 1.429 . S
C1238 C1221 1.574 . S
C1238 H1232 0.949 . S
C1238 C1242 1.368 . S
C1239 C1220 1.429 . S
C1239 C1233 1.429 . S
C1239 C1240 1.523 . S
C1240 C1221 1.368 . S
C1240 C1234 1.368 . S
C1240 C1239 1.523 . S
C1241 C1225 1.429 . S
C1241 C1237 1.429 . S
C1241 C1242 1.523 . S
C1242 C1226 1.368 . S
C1242 C1238 1.368 . S
C1242 C1241 1.523 . S
H1243 C1218 0.950 . S
H1244 C1220 0.950 . S
H1245 C1221 0.949 . S
H1246 C1223 0.950 . S
H1247 C1225 0.950 . S
C1248 C1249 1.349 . S
C1248 C1250 1.327 . S
C1248 H1273 0.950 . S
C1249 C1248 1.349 . S
C1249 C1265 1.349 . S
C1250 C1248 1.327 . S
C1250 C1269 1.429 . S
C1250 H1274 0.950 . S
C1251 C1268 1.574 . S
C1251 C1270 1.368 . S
C1251 H1275 0.949 . S
H1252 C1256 0.949 . S
C1253 C1254 1.349 . S
C1253 C1255 1.327 . S
C1253 H1276 0.950 . S
C1254 C1253 1.349 . S
C1254 C1266 1.349 . S
C1255 C1253 1.327 . S
C1255 C1271 1.429 . S
C1255 H1277 0.950 . S
C1256 H1252 0.949 . S
C1256 C1264 1.574 . S
C1256 C1272 1.368 . S
H1257 C1265 0.950 . S
H1258 C1263 0.950 . S
H1259 C1264 0.949 . S
H1260 C1266 0.950 . S
H1261 C1267 0.950 . S
H1262 C1268 0.949 . S
C1263 H1258 0.950 . S
C1263 C1265 1.327 . S
C1263 C1269 1.429 . S
C1264 C1256 1.574 . S
C1264 H1259 0.949 . S
C1264 C1270 1.368 . S
C1265 C1249 1.349 . S
C1265 H1257 0.950 . S
C1265 C1263 1.327 . S
C1266 C1254 1.349 . S
C1266 H1260 0.950 . S
C1266 C1267 1.327 . S
C1267 H1261 0.950 . S
C1267 C1266 1.327 . S
C1267 C1271 1.429 . S
C1268 C1251 1.574 . S
C1268 H1262 0.949 . S
C1268 C1272 1.368 . S
C1269 C1250 1.429 . S
C1269 C1263 1.429 . S
C1269 C1270 1.523 . S
C1270 C1251 1.368 . S
C1270 C1264 1.368 . S
C1270 C1269 1.523 . S
C1271 C1255 1.429 . S
C1271 C1267 1.429 . S
C1271 C1272 1.523 . S
C1272 C1256 1.368 . S
C1272 C1268 1.368 . S
C1272 C1271 1.523 . S
H1273 C1248 0.950 . S
H1274 C1250 0.950 . S
H1275 C1251 0.949 . S
H1276 C1253 0.950 . S
H1277 C1255 0.950 . S
C1278 C1279 1.349 . S
C1278 C1280 1.327 . S
C1278 H1303 0.950 . S
C1279 C1278 1.349 . S
C1279 C1295 1.349 . S
C1280 C1278 1.327 . S
C1280 C1299 1.429 . S
C1280 H1304 0.950 . S
C1281 C1298 1.574 . S
C1281 C1300 1.368 . S
C1281 H1305 0.949 . S
H1282 C1286 0.949 . S
C1283 C1284 1.349 . S
C1283 C1285 1.327 . S
C1283 H1306 0.950 . S
C1284 C1283 1.349 . S
C1284 C1296 1.349 . S
C1285 C1283 1.327 . S
C1285 C1301 1.429 . S
C1285 H1307 0.950 . S
C1286 H1282 0.949 . S
C1286 C1294 1.574 . S
C1286 C1302 1.368 . S
H1287 C1295 0.950 . S
H1288 C1293 0.950 . S
H1289 C1294 0.949 . S
H1290 C1296 0.950 . S
H1291 C1297 0.950 . S
H1292 C1298 0.949 . S
C1293 H1288 0.950 . S
C1293 C1295 1.327 . S
C1293 C1299 1.429 . S
C1294 C1286 1.574 . S
C1294 H1289 0.949 . S
C1294 C1300 1.368 . S
C1295 C1279 1.349 . S
C1295 H1287 0.950 . S
C1295 C1293 1.327 . S
C1296 C1284 1.349 . S
C1296 H1290 0.950 . S
C1296 C1297 1.327 . S
C1297 H1291 0.950 . S
C1297 C1296 1.327 . S
C1297 C1301 1.429 . S
C1298 C1281 1.574 . S
C1298 H1292 0.949 . S
C1298 C1302 1.368 . S
C1299 C1280 1.429 . S
C1299 C1293 1.429 . S
C1299 C1300 1.523 . S
C1300 C1281 1.368 . S
C1300 C1294 1.368 . S
C1300 C1299 1.523 . S
C1301 C1285 1.429 . S
C1301 C1297 1.429 . S
C1301 C1302 1.523 . S
C1302 C1286 1.368 . S
C1302 C1298 1.368 . S
C1302 C1301 1.523 . S
H1303 C1278 0.950 . S
H1304 C1280 0.950 . S
H1305 C1281 0.949 . S
H1306 C1283 0.950 . S
H1307 C1285 0.950 . S
C1308 C1309 1.349 . S
C1308 C1310 1.327 . S
C1308 H1333 0.950 . S
C1309 C1308 1.349 . S
C1309 C1325 1.349 . S
C1310 C1308 1.327 . S
C1310 C1329 1.429 . S
C1310 H1334 0.950 . S
C1311 C1328 1.574 . S
C1311 C1330 1.368 . S
C1311 H1335 0.949 . S
H1312 C1316 0.949 . S
C1313 C1314 1.349 . S
C1313 C1315 1.327 . S
C1313 H1336 0.950 . S
C1314 C1313 1.349 . S
C1314 C1326 1.349 . S
C1315 C1313 1.327 . S
C1315 C1331 1.429 . S
C1315 H1337 0.950 . S
C1316 H1312 0.949 . S
C1316 C1324 1.574 . S
C1316 C1332 1.368 . S
H1317 C1325 0.950 . S
H1318 C1323 0.950 . S
H1319 C1324 0.949 . S
H1320 C1326 0.950 . S
H1321 C1327 0.950 . S
H1322 C1328 0.949 . S
C1323 H1318 0.950 . S
C1323 C1325 1.327 . S
C1323 C1329 1.429 . S
C1324 C1316 1.574 . S
C1324 H1319 0.949 . S
C1324 C1330 1.368 . S
C1325 C1309 1.349 . S
C1325 H1317 0.950 . S
C1325 C1323 1.327 . S
C1326 C1314 1.349 . S
C1326 H1320 0.950 . S
C1326 C1327 1.327 . S
C1327 H1321 0.950 . S
C1327 C1326 1.327 . S
C1327 C1331 1.429 . S
C1328 C1311 1.574 . S
C1328 H1322 0.949 . S
C1328 C1332 1.368 . S
C1329 C1310 1.429 . S
C1329 C1323 1.429 . S
C1329 C1330 1.523 . S
C1330 C1311 1.368 . S
C1330 C1324 1.368 . S
C1330 C1329 1.523 . S
C1331 C1315 1.429 . S
C1331 C1327 1.429 . S
C1331 C1332 1.523 . S
C1332 C1316 1.368 . S
C1332 C1328 1.368 . S
C1332 C1331 1.523 . S
H1333 C1308 0.950 . S
H1334 C1310 0.950 . S
H1335 C1311 0.949 . S
H1336 C1313 0.950 . S
H1337 C1315 0.950 . S
C1338 C1339 1.349 . S
C1338 C1340 1.327 . S
C1338 H1363 0.950 . S
C1339 C1338 1.349 . S
C1339 C1355 1.349 . S
C1340 C1338 1.327 . S
C1340 C1359 1.429 . S
C1340 H1364 0.950 . S
C1341 C1358 1.574 . S
C1341 C1360 1.368 . S
C1341 H1365 0.949 . S
H1342 C1346 0.949 . S
C1343 C1344 1.349 . S
C1343 C1345 1.327 . S
C1343 H1366 0.950 . S
C1344 C1343 1.349 . S
C1344 C1356 1.349 . S
C1345 C1343 1.327 . S
C1345 C1361 1.429 . S
C1345 H1367 0.950 . S
C1346 H1342 0.949 . S
C1346 C1354 1.574 . S
C1346 C1362 1.368 . S
H1347 C1355 0.950 . S
H1348 C1353 0.950 . S
H1349 C1354 0.949 . S
H1350 C1356 0.950 . S
H1351 C1357 0.950 . S
H1352 C1358 0.949 . S
C1353 H1348 0.950 . S
C1353 C1355 1.327 . S
C1353 C1359 1.429 . S
C1354 C1346 1.574 . S
C1354 H1349 0.949 . S
C1354 C1360 1.368 . S
C1355 C1339 1.349 . S
C1355 H1347 0.950 . S
C1355 C1353 1.327 . S
C1356 C1344 1.349 . S
C1356 H1350 0.950 . S
C1356 C1357 1.327 . S
C1357 H1351 0.950 . S
C1357 C1356 1.327 . S
C1357 C1361 1.429 . S
C1358 C1341 1.574 . S
C1358 H1352 0.949 . S
C1358 C1362 1.368 . S
C1359 C1340 1.429 . S
C1359 C1353 1.429 . S
C1359 C1360 1.523 . S
C1360 C1341 1.368 . S
C1360 C1354 1.368 . S
C1360 C1359 1.523 . S
C1361 C1345 1.429 . S
C1361 C1357 1.429 . S
C1361 C1362 1.523 . S
C1362 C1346 1.368 . S
C1362 C1358 1.368 . S
C1362 C1361 1.523 . S
H1363 C1338 0.950 . S
H1364 C1340 0.950 . S
H1365 C1341 0.949 . S
H1366 C1343 0.950 . S
H1367 C1345 0.950 . S
C649 C235 1.474 . S
C654 C386 1.457 . S
C684 C470 1.454 . S
C679 C289 1.471 . S
C714 C463 1.464 . S
C709 C157 1.462 . S
C739 C211 1.460 . S
C744 C379 1.461 . S
C774 C543 1.457 . S
C769 C79 1.474 . S
C804 C627 1.460 . S
C799 C118 1.478 . S
C829 C1 1.464 . S
C834 C620 1.463 . S
C859 C40 1.467 . S
C864 C536 1.466 . S
C894 C370 1.343 . S
C889 C55 1.515 1_554 S
C924 C454 1.343 . S
C919 C16 1.515 . S
C954 C465 1.405 . S
C949 C133 1.538 1_556 S
C984 C381 1.405 . S
C979 C94 1.540 . S
C1014 C549 1.348 . S
C1009 C196 1.522 1_556 S
C1039 C172 1.521 . S
C1044 C633 1.348 . S
C1074 C622 1.409 . S
C1069 C274 1.549 . S
C1099 C250 1.545 . S
C1104 C538 1.409 . S
C1134 C368 1.589 . S
C1129 C21 1.588 . S
C1164 C452 1.594 . S
C1159 C60 1.593 . S
C1189 C99 1.576 . S
C1194 C459 1.562 . S
C1224 C375 1.566 . S
C1219 C138 1.580 . S
C1254 C547 1.597 . S
C1249 C177 1.592 . S
C1279 C216 1.591 . S
C1284 C631 1.595 . S
C1309 C255 1.580 . S
C1314 C638 1.570 . S
C1339 C294 1.578 . S
C1344 C554 1.568 . S
