# Generated by pormake.
# Topology bwt, (3,3)-cn, num edge types: 1
# Building blocks:
#     Node 0, Type 0, BuildingBlock: OLANEW_clean_sbu_2, # of connection points: 3
#     Node 1, Type 0, BuildingBlock: OLANEW_clean_sbu_2, # of connection points: 3
#     Node 2, Type 0, BuildingBlock: OLANEW_clean_sbu_2, # of connection points: 3
#     Node 3, Type 0, BuildingBlock: OLANEW_clean_sbu_2, # of connection points: 3
#     Node 4, Type 0, BuildingBlock: OLANEW_clean_sbu_2, # of connection points: 3
#     Node 5, Type 0, BuildingBlock: OLANEW_clean_sbu_2, # of connection points: 3
#     Node 6, Type 0, BuildingBlock: OLANEW_clean_sbu_2, # of connection points: 3
#     Node 7, Type 0, BuildingBlock: OLANEW_clean_sbu_2, # of connection points: 3
#     Node 8, Type 0, BuildingBlock: OLANEW_clean_sbu_2, # of connection points: 3
#     Node 9, Type 0, BuildingBlock: OLANEW_clean_sbu_2, # of connection points: 3
#     Node 10, Type 0, BuildingBlock: OLANEW_clean_sbu_2, # of connection points: 3
#     Node 11, Type 0, BuildingBlock: OLANEW_clean_sbu_2, # of connection points: 3
#     Node 12, Type 0, BuildingBlock: OLANEW_clean_sbu_2, # of connection points: 3
#     Node 13, Type 0, BuildingBlock: OLANEW_clean_sbu_2, # of connection points: 3
#     Node 14, Type 0, BuildingBlock: OLANEW_clean_sbu_2, # of connection points: 3
#     Node 15, Type 0, BuildingBlock: OLANEW_clean_sbu_2, # of connection points: 3
#     Node 16, Type 0, BuildingBlock: OLANEW_clean_sbu_2, # of connection points: 3
#     Node 17, Type 0, BuildingBlock: OLANEW_clean_sbu_2, # of connection points: 3
#     Node 18, Type 0, BuildingBlock: OLANEW_clean_sbu_2, # of connection points: 3
#     Node 19, Type 0, BuildingBlock: OLANEW_clean_sbu_2, # of connection points: 3
#     Node 20, Type 0, BuildingBlock: OLANEW_clean_sbu_2, # of connection points: 3
#     Node 21, Type 0, BuildingBlock: OLANEW_clean_sbu_2, # of connection points: 3
#     Node 22, Type 0, BuildingBlock: OLANEW_clean_sbu_2, # of connection points: 3
#     Node 23, Type 0, BuildingBlock: OLANEW_clean_sbu_2, # of connection points: 3
#     Node 24, Type 1, BuildingBlock: CUQRIR_clean_linker_1, # of connection points: 3
#     Node 25, Type 1, BuildingBlock: CUQRIR_clean_linker_1, # of connection points: 3
#     Node 26, Type 1, BuildingBlock: CUQRIR_clean_linker_1, # of connection points: 3
#     Node 27, Type 1, BuildingBlock: CUQRIR_clean_linker_1, # of connection points: 3
#     Node 28, Type 1, BuildingBlock: CUQRIR_clean_linker_1, # of connection points: 3
#     Node 29, Type 1, BuildingBlock: CUQRIR_clean_linker_1, # of connection points: 3
#     Node 30, Type 1, BuildingBlock: CUQRIR_clean_linker_1, # of connection points: 3
#     Node 31, Type 1, BuildingBlock: CUQRIR_clean_linker_1, # of connection points: 3
#     Node 32, Type 1, BuildingBlock: CUQRIR_clean_linker_1, # of connection points: 3
#     Node 33, Type 1, BuildingBlock: CUQRIR_clean_linker_1, # of connection points: 3
#     Node 34, Type 1, BuildingBlock: CUQRIR_clean_linker_1, # of connection points: 3
#     Node 35, Type 1, BuildingBlock: CUQRIR_clean_linker_1, # of connection points: 3
#     Node 36, Type 1, BuildingBlock: CUQRIR_clean_linker_1, # of connection points: 3
#     Node 37, Type 1, BuildingBlock: CUQRIR_clean_linker_1, # of connection points: 3
#     Node 38, Type 1, BuildingBlock: CUQRIR_clean_linker_1, # of connection points: 3
#     Node 39, Type 1, BuildingBlock: CUQRIR_clean_linker_1, # of connection points: 3
#     Node 40, Type 1, BuildingBlock: CUQRIR_clean_linker_1, # of connection points: 3
#     Node 41, Type 1, BuildingBlock: CUQRIR_clean_linker_1, # of connection points: 3
#     Node 42, Type 1, BuildingBlock: CUQRIR_clean_linker_1, # of connection points: 3
#     Node 43, Type 1, BuildingBlock: CUQRIR_clean_linker_1, # of connection points: 3
#     Node 44, Type 1, BuildingBlock: CUQRIR_clean_linker_1, # of connection points: 3
#     Node 45, Type 1, BuildingBlock: CUQRIR_clean_linker_1, # of connection points: 3
#     Node 46, Type 1, BuildingBlock: CUQRIR_clean_linker_1, # of connection points: 3
#     Node 47, Type 1, BuildingBlock: CUQRIR_clean_linker_1, # of connection points: 3
#     Edge 48, Type (0, 1), BuildingBlock: OJICUG_clean_linker_0, # of connection points: 2
#     Edge 49, Type (0, 1), BuildingBlock: OJICUG_clean_linker_0, # of connection points: 2
#     Edge 50, Type (0, 1), BuildingBlock: OJICUG_clean_linker_0, # of connection points: 2
#     Edge 51, Type (0, 1), BuildingBlock: OJICUG_clean_linker_0, # of connection points: 2
#     Edge 52, Type (0, 1), BuildingBlock: OJICUG_clean_linker_0, # of connection points: 2
#     Edge 53, Type (0, 1), BuildingBlock: OJICUG_clean_linker_0, # of connection points: 2
#     Edge 54, Type (0, 1), BuildingBlock: OJICUG_clean_linker_0, # of connection points: 2
#     Edge 55, Type (0, 1), BuildingBlock: OJICUG_clean_linker_0, # of connection points: 2
#     Edge 56, Type (0, 1), BuildingBlock: OJICUG_clean_linker_0, # of connection points: 2
#     Edge 57, Type (0, 1), BuildingBlock: OJICUG_clean_linker_0, # of connection points: 2
#     Edge 58, Type (0, 1), BuildingBlock: OJICUG_clean_linker_0, # of connection points: 2
#     Edge 59, Type (0, 1), BuildingBlock: OJICUG_clean_linker_0, # of connection points: 2
#     Edge 60, Type (0, 1), BuildingBlock: OJICUG_clean_linker_0, # of connection points: 2
#     Edge 61, Type (0, 1), BuildingBlock: OJICUG_clean_linker_0, # of connection points: 2
#     Edge 62, Type (0, 1), BuildingBlock: OJICUG_clean_linker_0, # of connection points: 2
#     Edge 63, Type (0, 1), BuildingBlock: OJICUG_clean_linker_0, # of connection points: 2
#     Edge 64, Type (0, 1), BuildingBlock: OJICUG_clean_linker_0, # of connection points: 2
#     Edge 65, Type (0, 1), BuildingBlock: OJICUG_clean_linker_0, # of connection points: 2
#     Edge 66, Type (0, 1), BuildingBlock: OJICUG_clean_linker_0, # of connection points: 2
#     Edge 67, Type (0, 1), BuildingBlock: OJICUG_clean_linker_0, # of connection points: 2
#     Edge 68, Type (0, 1), BuildingBlock: OJICUG_clean_linker_0, # of connection points: 2
#     Edge 69, Type (0, 1), BuildingBlock: OJICUG_clean_linker_0, # of connection points: 2
#     Edge 70, Type (0, 1), BuildingBlock: OJICUG_clean_linker_0, # of connection points: 2
#     Edge 71, Type (0, 1), BuildingBlock: OJICUG_clean_linker_0, # of connection points: 2
#     Edge 72, Type (0, 1), BuildingBlock: OJICUG_clean_linker_0, # of connection points: 2
#     Edge 73, Type (0, 1), BuildingBlock: OJICUG_clean_linker_0, # of connection points: 2
#     Edge 74, Type (0, 1), BuildingBlock: OJICUG_clean_linker_0, # of connection points: 2
#     Edge 75, Type (0, 1), BuildingBlock: OJICUG_clean_linker_0, # of connection points: 2
#     Edge 76, Type (0, 1), BuildingBlock: OJICUG_clean_linker_0, # of connection points: 2
#     Edge 77, Type (0, 1), BuildingBlock: OJICUG_clean_linker_0, # of connection points: 2
#     Edge 78, Type (0, 1), BuildingBlock: OJICUG_clean_linker_0, # of connection points: 2
#     Edge 79, Type (0, 1), BuildingBlock: OJICUG_clean_linker_0, # of connection points: 2
#     Edge 80, Type (0, 1), BuildingBlock: OJICUG_clean_linker_0, # of connection points: 2
#     Edge 81, Type (0, 1), BuildingBlock: OJICUG_clean_linker_0, # of connection points: 2
#     Edge 82, Type (0, 1), BuildingBlock: OJICUG_clean_linker_0, # of connection points: 2
#     Edge 83, Type (0, 1), BuildingBlock: OJICUG_clean_linker_0, # of connection points: 2
#     Edge 84, Type (0, 1), BuildingBlock: OJICUG_clean_linker_0, # of connection points: 2
#     Edge 85, Type (0, 1), BuildingBlock: OJICUG_clean_linker_0, # of connection points: 2
#     Edge 86, Type (0, 1), BuildingBlock: OJICUG_clean_linker_0, # of connection points: 2
#     Edge 87, Type (0, 1), BuildingBlock: OJICUG_clean_linker_0, # of connection points: 2
#     Edge 88, Type (0, 1), BuildingBlock: OJICUG_clean_linker_0, # of connection points: 2
#     Edge 89, Type (0, 1), BuildingBlock: OJICUG_clean_linker_0, # of connection points: 2
#     Edge 90, Type (0, 1), BuildingBlock: OJICUG_clean_linker_0, # of connection points: 2
#     Edge 91, Type (0, 1), BuildingBlock: OJICUG_clean_linker_0, # of connection points: 2
#     Edge 92, Type (0, 1), BuildingBlock: OJICUG_clean_linker_0, # of connection points: 2
#     Edge 93, Type (0, 1), BuildingBlock: OJICUG_clean_linker_0, # of connection points: 2
#     Edge 94, Type (0, 1), BuildingBlock: OJICUG_clean_linker_0, # of connection points: 2
#     Edge 95, Type (0, 1), BuildingBlock: OJICUG_clean_linker_0, # of connection points: 2
#     Edge 96, Type (0, 1), BuildingBlock: OJICUG_clean_linker_0, # of connection points: 2
#     Edge 97, Type (0, 1), BuildingBlock: OJICUG_clean_linker_0, # of connection points: 2
#     Edge 98, Type (0, 1), BuildingBlock: OJICUG_clean_linker_0, # of connection points: 2
#     Edge 99, Type (0, 1), BuildingBlock: OJICUG_clean_linker_0, # of connection points: 2
#     Edge 100, Type (0, 1), BuildingBlock: OJICUG_clean_linker_0, # of connection points: 2
#     Edge 101, Type (0, 1), BuildingBlock: OJICUG_clean_linker_0, # of connection points: 2
#     Edge 102, Type (0, 1), BuildingBlock: OJICUG_clean_linker_0, # of connection points: 2
#     Edge 103, Type (0, 1), BuildingBlock: OJICUG_clean_linker_0, # of connection points: 2
#     Edge 104, Type (0, 1), BuildingBlock: OJICUG_clean_linker_0, # of connection points: 2
#     Edge 105, Type (0, 1), BuildingBlock: OJICUG_clean_linker_0, # of connection points: 2
#     Edge 106, Type (0, 1), BuildingBlock: OJICUG_clean_linker_0, # of connection points: 2
#     Edge 107, Type (0, 1), BuildingBlock: OJICUG_clean_linker_0, # of connection points: 2
#     Edge 108, Type (0, 1), BuildingBlock: OJICUG_clean_linker_0, # of connection points: 2
#     Edge 109, Type (0, 1), BuildingBlock: OJICUG_clean_linker_0, # of connection points: 2
#     Edge 110, Type (0, 1), BuildingBlock: OJICUG_clean_linker_0, # of connection points: 2
#     Edge 111, Type (0, 1), BuildingBlock: OJICUG_clean_linker_0, # of connection points: 2
#     Edge 112, Type (0, 1), BuildingBlock: OJICUG_clean_linker_0, # of connection points: 2
#     Edge 113, Type (0, 1), BuildingBlock: OJICUG_clean_linker_0, # of connection points: 2
#     Edge 114, Type (0, 1), BuildingBlock: OJICUG_clean_linker_0, # of connection points: 2
#     Edge 115, Type (0, 1), BuildingBlock: OJICUG_clean_linker_0, # of connection points: 2
#     Edge 116, Type (0, 1), BuildingBlock: OJICUG_clean_linker_0, # of connection points: 2
#     Edge 117, Type (0, 1), BuildingBlock: OJICUG_clean_linker_0, # of connection points: 2
#     Edge 118, Type (0, 1), BuildingBlock: OJICUG_clean_linker_0, # of connection points: 2
#     Edge 119, Type (0, 1), BuildingBlock: OJICUG_clean_linker_0, # of connection points: 2
# Relax obj value: 0.063
# Max RMSD: 0.122
# Mean RMSD: 0.068
data_MOF--net-bwt--node1-OLANEW_clean_sbu_2--node2-CUQRIR_clean_linker_1--edge1-OJICUG_clean_linker_0
_symmetry_space_group_name_H-M    P1
_symmetry_Int_Tables_number       1
_symmetry_cell_setting            triclinic
loop_
_symmetry_equiv_pos_as_xyz
'x, y, z'
_cell_length_a     39.887959
_cell_length_b     39.950017
_cell_length_c     39.929027
_cell_angle_alpha  93.361873
_cell_angle_beta   93.373291
_cell_angle_gamma 93.384372
loop_
_atom_site_label
_atom_site_type_symbol
_atom_site_fract_x
_atom_site_fract_y
_atom_site_fract_z
_atom_type_partial_charge
O0 O 0.20502 0.56654 0.46263 0.0
Cd1 Cd 0.19512 0.61183 0.42526 0.0
O2 O 0.26025 0.57004 0.46107 0.0
Cd3 Cd 0.26497 0.60508 0.42131 0.0
O4 O 0.29808 0.61611 0.38101 0.0
C5 C 0.32934 0.61978 0.38967 0.0
O6 O 0.33884 0.61966 0.42174 0.0
C7 C 0.23367 0.55715 0.4725 0.0
C8 C 0.13141 0.60316 0.3918 0.0
O9 O 0.15764 0.59405 0.37754 0.0
O10 O 0.13522 0.61653 0.42185 0.0
O11 O 0.31466 0.43262 0.86977 0.0
Cd12 Cd 0.31606 0.38367 0.83008 0.0
O13 O 0.2648 0.44783 0.85184 0.0
Cd14 Cd 0.2528 0.41204 0.80859 0.0
O15 O 0.21454 0.40184 0.76694 0.0
C16 C 0.18448 0.3957 0.77489 0.0
O17 O 0.17893 0.39304 0.80677 0.0
C18 C 0.29066 0.45203 0.87221 0.0
C19 C 0.37799 0.3819 0.80115 0.0
O20 O 0.35212 0.3916 0.78472 0.0
O21 O 0.37462 0.37286 0.83108 0.0
O22 O 0.63695 0.9877 0.57488 0.0
Cd23 Cd 0.62382 0.95983 0.62582 0.0
O24 O 0.6926 0.99071 0.57882 0.0
Cd25 Cd 0.70419 0.9693 0.62706 0.0
O26 O 0.74638 0.96503 0.66413 0.0
C27 C 0.775 0.96235 0.65209 0.0
O28 O 0.77667 0.96052 0.61926 0.0
C29 C 0.66495 0.99606 0.56306 0.0
C30 C 0.5607 0.97806 0.64511 0.0
O31 O 0.58786 0.99258 0.65921 0.0
O32 O 0.56329 0.95456 0.62234 0.0
O33 O 0.83548 0.9789 0.17192 0.0
Cd34 Cd 0.85174 -0.00042 0.22979 0.0
O35 O 0.7812 0.97541 0.1798 0.0
Cd36 Cd 0.78058 0.99232 0.23278 0.0
O37 O 0.73929 0.99252 0.26653 0.0
C38 C 0.71594 0.01184 0.25974 0.0
O39 O 0.72001 0.03278 0.23591 0.0
C40 C 0.80527 0.97181 0.16065 0.0
C41 C 0.91504 0.97834 0.24948 0.0
O42 O 0.88809 0.96115 0.25531 0.0
O43 O 0.91203 0.00572 0.23468 0.0
O44 O 0.44515 0.19207 0.57528 0.0
Cd45 Cd 0.40574 0.1764 0.61766 0.0
O46 O 0.42454 0.24087 0.56544 0.0
Cd47 Cd 0.38144 0.24126 0.59682 0.0
O48 O 0.34161 0.27542 0.60661 0.0
C49 C 0.3516 0.30612 0.61265 0.0
O50 O 0.38413 0.31407 0.61512 0.0
C51 C 0.44613 0.21927 0.56017 0.0
C52 C 0.37754 0.11034 0.60827 0.0
O53 O 0.36147 0.13517 0.59834 0.0
O54 O 0.4071 0.11658 0.62242 0.0
O55 O 0.13982 0.83934 0.00828 0.0
Cd56 Cd 0.19203 0.86268 0.03852 0.0
O57 O 0.13981 0.78938 0.02921 0.0
Cd58 Cd 0.19174 0.78943 0.05032 0.0
O59 O 0.2258 0.74812 0.04964 0.0
C60 C 0.21183 0.72189 0.03385 0.0
O61 O 0.18082 0.72314 0.02109 0.0
C62 C 0.12528 0.81066 0.01185 0.0
C63 C 0.20666 0.92972 0.02444 0.0
O64 O 0.22235 0.90595 0.01072 0.0
O65 O 0.1842 0.92196 0.04476 0.0
O66 O 0.87769 0.3347 0.41569 0.0
Cd67 Cd 0.83258 0.33776 0.37208 0.0
O68 O 0.85355 0.28972 0.43567 0.0
Cd69 Cd 0.80908 0.28167 0.40086 0.0
O70 O 0.76544 0.24599 0.39088 0.0
C71 C 0.77058 0.21667 0.37891 0.0
O72 O 0.80093 0.21046 0.37008 0.0
C73 C 0.87757 0.31222 0.43694 0.0
C74 C 0.79708 0.39442 0.38587 0.0
O75 O 0.78757 0.36581 0.39621 0.0
O76 O 0.82305 0.39608 0.36847 0.0
O77 O 0.5965 0.66031 0.94465 0.0
Cd78 Cd 0.65394 0.6588 0.92677 0.0
O79 O 0.57756 0.69103 0.9046 0.0
Cd80 Cd 0.62896 0.70463 0.89231 0.0
O81 O 0.67054 0.74091 0.90883 0.0
C82 C 0.66444 0.75812 0.93531 0.0
O83 O 0.63575 0.75173 0.94898 0.0
C84 C 0.57217 0.67374 0.92969 0.0
C85 C 0.68501 0.60665 0.9572 0.0
O86 O 0.68922 0.63692 0.96994 0.0
O87 O 0.66668 0.60116 0.92976 0.0
O88 O 0.56438 0.45425 0.21845 0.0
Cd89 Cd 0.60565 0.41358 0.20423 0.0
O90 O 0.5656 0.44594 0.27262 0.0
Cd91 Cd 0.59528 0.40176 0.27431 0.0
O92 O 0.60262 0.36132 0.30824 0.0
C93 C 0.6073 0.37086 0.3392 0.0
O94 O 0.6098 0.40325 0.34762 0.0
C95 C 0.55527 0.4619 0.24777 0.0
C96 C 0.59781 0.39061 0.13659 0.0
O97 O 0.58733 0.37234 0.15964 0.0
O98 O 0.61201 0.41963 0.14538 0.0
O99 O 0.02471 0.15112 0.83062 0.0
Cd100 Cd 0.05401 0.20414 0.85259 0.0
O101 O 0.02193 0.16395 0.77751 0.0
Cd102 Cd 0.04788 0.21371 0.77799 0.0
O103 O 0.05045 0.24452 0.73439 0.0
C104 C 0.03256 0.23072 0.70934 0.0
O105 O 0.01613 0.2018 0.71301 0.0
C106 C 0.01547 0.14359 0.79993 0.0
C107 C 0.03468 0.22268 0.91708 0.0
O108 O 0.01931 0.23275 0.89078 0.0
O109 O 0.05929 0.20395 0.91294 0.0
O110 O 0.44068 0.80462 0.27641 0.0
Cd111 Cd 0.40304 0.75398 0.27482 0.0
O112 O 0.42279 0.82598 0.22943 0.0
Cd113 Cd 0.39384 0.77997 0.20933 0.0
O114 O 0.38695 0.73929 0.16959 0.0
C115 C 0.3687 0.74238 0.14285 0.0
O116 O 0.35149 0.76928 0.14045 0.0
C117 C 0.44144 0.82835 0.25654 0.0
C118 C 0.40706 0.73052 0.33948 0.0
O119 O 0.42586 0.71978 0.31679 0.0
O120 O 0.38555 0.7517 0.33138 0.0
O121 O 0.95796 0.58709 0.6283 0.0
Cd122 Cd 0.93054 0.63861 0.61635 0.0
O123 O 0.97346 0.5999 0.68174 0.0
Cd124 Cd 0.95344 0.64908 0.69107 0.0
O125 O 0.95197 0.68365 0.73559 0.0
C126 C 0.94931 0.66911 0.76289 0.0
O127 O 0.94589 0.63612 0.76151 0.0
C128 C 0.97247 0.57965 0.65585 0.0
C129 C 0.95671 0.66493 0.55935 0.0
O130 O 0.96774 0.676 0.58898 0.0
O131 O 0.93285 0.64183 0.55659 0.0
O132 O 0.79017 0.42518 0.57556 0.0
Cd133 Cd 0.80949 0.38862 0.6189 0.0
O134 O 0.73574 0.41705 0.58194 0.0
Cd135 Cd 0.73534 0.38483 0.62426 0.0
O136 O 0.69872 0.37543 0.66187 0.0
C137 C 0.67059 0.36006 0.65248 0.0
O138 O 0.66602 0.34708 0.62142 0.0
C139 C 0.75984 0.43069 0.56706 0.0
C140 C 0.87888 0.39968 0.63426 0.0
O141 O 0.8674 0.37845 0.61042 0.0
O142 O 0.85761 0.41553 0.6509 0.0
O143 O 0.66752 0.61919 0.13417 0.0
Cd144 Cd 0.64496 0.66653 0.16517 0.0
O145 O 0.71253 0.62292 0.16847 0.0
Cd146 Cd 0.76055 0.61228 0.19417 0.0
O147 O 0.80612 0.60514 0.22559 0.0
C148 C 0.83459 0.61922 0.22028 0.0
O149 O 0.83702 0.63848 0.19487 0.0
C150 C 0.69579 0.60825 0.14304 0.0
C151 C 0.58739 0.64615 0.19697 0.0
O152 O 0.5852 0.65631 0.1671 0.0
O153 O 0.61675 0.64581 0.21178 0.0
O154 O 0.33087 0.02593 0.40643 0.0
Cd155 Cd 0.33107 0.02894 0.34549 0.0
O156 O 0.33697 0.97174 0.39862 0.0
Cd157 Cd 0.31025 0.96929 0.34925 0.0
O158 O 0.25995 0.9607 0.32466 0.0
C159 C 0.23646 0.95946 0.34483 0.0
O160 O 0.24437 0.96392 0.37727 0.0
C161 C 0.33769 -0.00195 0.41823 0.0
C162 C 0.39421 0.01139 0.32641 0.0
O163 O 0.38732 0.04231 0.32937 0.0
O164 O 0.37115 0.98895 0.33145 0.0
O165 O 0.18256 0.98391 0.82892 0.0
Cd166 Cd 0.16152 0.95992 0.7733 0.0
O167 O 0.17307 0.03487 0.8143 0.0
Cd168 Cd 0.18152 0.02047 0.76198 0.0
O169 O 0.22441 0.02022 0.73014 0.0
C170 C 0.25025 0.00649 0.74176 0.0
O171 O 0.2485 0.99154 0.77011 0.0
C172 C 0.17984 0.01484 0.83699 0.0
C173 C 0.09244 0.96844 0.76424 0.0
O174 O 0.10329 0.94303 0.77869 0.0
O175 O 0.11418 0.98957 0.75364 0.0
O176 O 0.54539 0.82701 0.3977 0.0
Cd177 Cd 0.57597 0.85674 0.35586 0.0
O178 O 0.58145 0.78793 0.39373 0.0
Cd179 Cd 0.60445 0.74126 0.40581 0.0
O180 O 0.6256 0.69348 0.41645 0.0
C181 C 0.65414 0.68668 0.4062 0.0
O182 O 0.67067 0.70882 0.38928 0.0
C183 C 0.55511 0.79876 0.40603 0.0
C184 C 0.6019 0.92143 0.37688 0.0
O185 O 0.57168 0.91623 0.36415 0.0
O186 O 0.61962 0.89596 0.38033 0.0
O187 O 0.85455 0.15403 0.9706 0.0
Cd188 Cd 0.80799 0.12042 0.94048 0.0
O189 O 0.82206 0.19569 0.97859 0.0
Cd190 Cd 0.80598 0.24448 0.99769 0.0
O191 O 0.78741 0.29425 0.00824 0.0
C192 C 0.80456 0.31691 0.02663 0.0
O193 O 0.83403 0.3101 0.04013 0.0
C194 C 0.85082 0.18369 0.98252 0.0
C195 C 0.80115 0.05576 0.9632 0.0
O196 O 0.82036 0.06239 0.93951 0.0
O197 O 0.78528 0.07976 0.97624 0.0
O198 O 0.10915 0.64879 0.59101 0.0
Cd199 Cd 0.12714 0.62895 0.64564 0.0
O200 O 0.14243 0.69448 0.59886 0.0
Cd201 Cd 0.17045 0.74159 0.58933 0.0
O202 O 0.20584 0.78553 0.58788 0.0
C203 C 0.19984 0.81434 0.6006 0.0
O204 O 0.1712 0.81822 0.61458 0.0
C205 C 0.12084 0.67613 0.58014 0.0
C206 C 0.16206 0.57093 0.63646 0.0
O207 O 0.13014 0.56903 0.63909 0.0
O208 O 0.17738 0.60017 0.63873 0.0
O209 O 0.40742 0.35152 0.06231 0.0
Cd210 Cd 0.35033 0.35887 0.07952 0.0
O211 O 0.3894 0.3437 0.00911 0.0
Cd212 Cd 0.34007 0.32281 0.0217 0.0
O213 O 0.30759 0.27643 0.02154 0.0
C214 C 0.32201 0.24956 0.02722 0.0
O215 O 0.35468 0.25147 0.03437 0.0
C216 C 0.41345 0.34959 0.03139 0.0
C217 C 0.3297 0.42098 0.05976 0.0
O218 O 0.3477 0.41883 0.0871 0.0
O219 O 0.32098 0.39378 0.04196 0.0
O220 O 0.42325 0.55465 0.74824 0.0
Cd221 Cd 0.40245 0.6103 0.75922 0.0
O222 O 0.47423 0.57875 0.74739 0.0
Cd223 Cd 0.45552 0.6254 0.72964 0.0
O224 O 0.44786 0.6538 0.68471 0.0
C225 C 0.44249 0.63619 0.6571 0.0
O226 O 0.44047 0.60329 0.65786 0.0
C227 C 0.45496 0.55243 0.74889 0.0
C228 C 0.40196 0.62321 0.82876 0.0
O229 O 0.37438 0.61572 0.81113 0.0
O230 O 0.42937 0.6252 0.81365 0.0
O231 O 0.94236 0.80643 0.18293 0.0
Cd232 Cd 0.90521 0.76869 0.14505 0.0
O233 O 0.96874 0.76586 0.20561 0.0
Cd234 Cd 0.01071 0.74415 0.23301 0.0
O235 O 0.05868 0.71538 0.2345 0.0
C236 C 0.07388 0.70036 0.25797 0.0
O237 O 0.05908 0.71535 0.23365 0.0
C238 C 0.96521 0.7971 0.20324 0.0
C239 C 0.92931 0.76411 0.08071 0.0
O240 O 0.91236 0.7888 0.0903 0.0
O241 O 0.9348 0.74144 0.10144 0.0
O242 O 0.55805 0.16618 0.69085 0.0
Cd243 Cd 0.60415 0.20951 0.69558 0.0
O244 O 0.54438 0.17176 0.7434 0.0
Cd245 Cd 0.58192 0.21198 0.761 0.0
O246 O 0.59489 0.251 0.80112 0.0
C247 C 0.60678 0.24258 0.82944 0.0
O248 O 0.61394 0.21119 0.83262 0.0
C249 C 0.53944 0.1576 0.71403 0.0
C250 C 0.60794 0.23344 0.63172 0.0
O251 O 0.62496 0.20883 0.64052 0.0
O252 O 0.59032 0.24763 0.65364 0.0
O253 O 0.06341 0.40954 0.33081 0.0
Cd254 Cd 0.08085 0.3525 0.33783 0.0
O255 O 0.01 0.39303 0.33237 0.0
Cd256 Cd 0.01939 0.34285 0.31183 0.0
O257 O 0.01714 0.31435 0.26314 0.0
C258 C 0.0222 0.33184 0.23809 0.0
O259 O 0.02972 0.36425 0.24358 0.0
C260 C 0.03296 0.41657 0.33336 0.0
C261 C 0.06383 0.33276 0.40108 0.0
O262 O 0.0912 0.35028 0.39757 0.0
O263 O 0.04481 0.32399 0.37467 0.0
C264 C 0.24219 0.42889 0.61288 0.0
N265 N 0.23163 0.45548 0.59657 0.0
N266 N 0.26203 0.41063 0.59344 0.0
C267 C 0.23606 0.42295 0.64884 0.0
C268 C 0.26334 0.42723 0.56492 0.0
N269 N 0.24489 0.45453 0.5668 0.0
C270 C 0.28312 0.41684 0.53556 0.0
H271 H 0.25031 0.44283 0.66539 0.0
H272 H 0.24401 0.398 0.6558 0.0
H273 H 0.20896 0.42479 0.65299 0.0
H274 H 0.28474 0.38916 0.53358 0.0
H275 H 0.30907 0.42858 0.53947 0.0
H276 H 0.27151 0.42515 0.51176 0.0
C277 C 0.28792 0.57658 0.02988 0.0
N278 N 0.29574 0.5484 0.01208 0.0
N279 N 0.27958 0.60073 0.00895 0.0
C280 C 0.28493 0.57932 0.0673 0.0
C281 C 0.28265 0.5862 0.97787 0.0
N282 N 0.29227 0.55442 0.97967 0.0
C283 C 0.27687 0.60345 0.94571 0.0
H284 H 0.27846 0.55441 0.07692 0.0
H285 H 0.26558 0.59686 0.07429 0.0
H286 H 0.30947 0.58923 0.0796 0.0
H287 H 0.28177 0.63105 0.95011 0.0
H288 H 0.25031 0.59834 0.93606 0.0
H289 H 0.29338 0.5939 0.92635 0.0
C290 C 0.66706 0.07878 0.39013 0.0
N291 N 0.65797 0.05518 0.41139 0.0
N292 N 0.68235 0.10622 0.4075 0.0
C293 C 0.66408 0.07376 0.35246 0.0
C294 C 0.68269 0.09814 0.43999 0.0
N295 N 0.66804 0.06703 0.44232 0.0
C296 C 0.69954 0.11971 0.46908 0.0
H297 H 0.68546 0.05951 0.34409 0.0
H298 H 0.6648 0.09823 0.34065 0.0
H299 H 0.64051 0.05888 0.34388 0.0
H300 H 0.69464 0.14648 0.46653 0.0
H301 H 0.72714 0.11745 0.46913 0.0
H302 H 0.69062 0.11198 0.49343 0.0
C303 C 0.76246 0.89592 0.97635 0.0
N304 N 0.77622 0.92018 -0.00092 0.0
N305 N 0.75316 0.86784 0.99186 0.0
C306 C 0.7543 0.90104 0.93977 0.0
C307 C 0.76159 0.87603 0.02478 0.0
N308 N 0.77537 0.90782 0.02921 0.0
C309 C 0.75647 0.85286 0.05266 0.0
H310 H 0.74997 0.92773 0.93577 0.0
H311 H 0.73167 0.88527 0.92987 0.0
H312 H 0.77587 0.89377 0.92523 0.0
H313 H 0.77672 0.85787 0.07292 0.0
H314 H 0.75606 0.82619 0.04305 0.0
H315 H 0.73207 0.85732 0.06359 0.0
C316 C 0.60594 0.27465 0.47108 0.0
N317 N 0.58673 0.25973 0.49342 0.0
N318 N 0.58737 0.27927 0.44237 0.0
C319 C 0.64191 0.28758 0.47851 0.0
C320 C 0.55607 0.26671 0.44827 0.0
N321 N 0.55567 0.25489 0.47936 0.0
C322 C 0.5255 0.26865 0.42472 0.0
H323 H 0.65444 0.29242 0.45503 0.0
H324 H 0.65599 0.26928 0.49269 0.0
H325 H 0.64251 0.31134 0.49444 0.0
H326 H 0.53158 0.26261 0.39841 0.0
H327 H 0.51718 0.29469 0.42636 0.0
H328 H 0.50457 0.25109 0.43109 0.0
C329 C 0.95541 0.73887 0.91992 0.0
N330 N 0.97355 0.7542 0.94676 0.0
N331 N 0.97284 0.7405 0.89188 0.0
C332 C 0.92051 0.72277 0.92106 0.0
C333 C 0.00236 0.75736 0.9028 0.0
N334 N 0.00263 0.76599 0.93616 0.0
C335 C 0.03223 0.76194 0.88178 0.0
H336 H 0.92228 0.69668 0.92881 0.0
H337 H 0.90673 0.722 0.89604 0.0
H338 H 0.90623 0.73664 0.93983 0.0
H339 H 0.03136 0.78652 0.87029 0.0
H340 H 0.03188 0.74189 0.86132 0.0
H341 H 0.0562 0.76184 0.89733 0.0
C342 C 0.03501 0.29694 0.55901 0.0
N343 N 0.01794 0.30566 0.53078 0.0
N344 N 0.0138 0.29246 0.58392 0.0
C345 C 0.07153 0.28934 0.56122 0.0
C346 C 0.98334 0.29893 0.56981 0.0
N347 N 0.98573 0.30669 0.5375 0.0
C348 C 0.95136 0.2985 0.58803 0.0
H349 H 0.07604 0.26913 0.57854 0.0
H350 H 0.08672 0.3123 0.57123 0.0
H351 H 0.08013 0.28172 0.53614 0.0
H352 H 0.95687 0.30583 0.61513 0.0
H353 H 0.93909 0.27276 0.58572 0.0
H354 H 0.93355 0.31578 0.57702 0.0
C355 C 0.39 0.66011 0.99372 0.0
N356 N 0.41325 0.65618 0.97052 0.0
N357 N 0.40483 0.67301 0.02351 0.0
C358 C 0.35346 0.64868 0.98845 0.0
C359 C 0.43786 0.67697 0.0176 0.0
N360 N 0.443 0.66654 0.98562 0.0
C361 C 0.46461 0.694 0.04209 0.0
H362 H 0.33862 0.67035 0.98222 0.0
H363 H 0.34445 0.63868 0.01185 0.0
H364 H 0.34928 0.62888 0.96773 0.0
H365 H 0.47464 0.67508 0.05863 0.0
H366 H 0.45404 0.71392 0.0581 0.0
H367 H 0.48573 0.7054 0.02889 0.0
C368 C 0.44603 0.61659 0.27425 0.0
N369 N 0.47029 0.59858 0.26096 0.0
N370 N 0.42601 0.59701 0.29233 0.0
C371 C 0.44446 0.65396 0.27326 0.0
C372 C 0.43906 0.56655 0.28975 0.0
N373 N 0.46604 0.56747 0.27076 0.0
C374 C 0.42559 0.53623 0.30644 0.0
H375 H 0.41889 0.66168 0.27828 0.0
H376 H 0.4514 0.66248 0.24852 0.0
H377 H 0.46274 0.66632 0.29283 0.0
H378 H 0.39805 0.53707 0.30872 0.0
H379 H 0.43779 0.53621 0.33213 0.0
H380 H 0.43094 0.51271 0.29209 0.0
C381 C 0.92598 0.97008 0.73757 0.0
N382 N 0.95144 0.99092 0.75211 0.0
N383 N 0.8969 0.98605 0.73552 0.0
C384 C 0.93026 0.93538 0.72239 0.0
C385 C 0.90575 0.01742 0.7491 0.0
N386 N 0.93886 0.0204 0.75909 0.0
C387 C 0.88274 0.04596 0.74957 0.0
H388 H 0.94546 0.93732 0.7001 0.0
H389 H 0.90566 0.92188 0.71473 0.0
H390 H 0.9441 0.92058 0.74067 0.0
H391 H 0.8931 0.06734 0.76681 0.0
H392 H 0.85767 0.03745 0.75757 0.0
H393 H 0.87928 0.05464 0.72378 0.0
C394 C 0.55534 0.99345 0.30077 0.0
N395 N 0.52641 0.97366 0.29772 0.0
N396 N 0.58186 0.97551 0.29275 0.0
C397 C 0.55813 0.02969 0.31375 0.0
C398 C 0.56795 0.94406 0.28461 0.0
N399 N 0.53431 0.94292 0.2878 0.0
C400 C 0.58671 0.91524 0.2708 0.0
H401 H 0.55224 0.04577 0.29275 0.0
H402 H 0.58395 0.03719 0.32434 0.0
H403 H 0.54003 0.03411 0.33337 0.0
H404 H 0.59752 0.90186 0.29208 0.0
H405 H 0.60761 0.92441 0.25591 0.0
H406 H 0.56977 0.89715 0.25469 0.0
C407 C 0.04327 0.40356 0.67557 0.0
N408 N 0.02103 0.42529 0.6643 0.0
N409 N 0.07373 0.41971 0.6841 0.0
C410 C 0.03408 0.36769 0.6823 0.0
C411 C 0.06895 0.45215 0.67798 0.0
N412 N 0.03689 0.4556 0.66621 0.0
C413 C 0.09471 0.48088 0.68672 0.0
H414 H 0.01885 0.3672 0.70466 0.0
H415 H 0.05685 0.35362 0.68706 0.0
H416 H 0.01845 0.3552 0.66074 0.0
H417 H 0.12004 0.47376 0.68016 0.0
H418 H 0.0957 0.48709 0.71423 0.0
H419 H 0.08843 0.5035 0.67338 0.0
C420 C 0.72359 0.53912 0.41381 0.0
N421 N 0.73452 0.513 0.43065 0.0
N422 N 0.71087 0.56202 0.43521 0.0
C423 C 0.723 0.54107 0.37629 0.0
C424 C 0.7145 0.54885 0.46563 0.0
N425 N 0.72883 0.51906 0.46282 0.0
C426 C 0.70611 0.56609 0.49831 0.0
H427 H 0.7469 0.55392 0.36965 0.0
H428 H 0.70183 0.55563 0.36713 0.0
H429 H 0.7207 0.51558 0.36342 0.0
H430 H 0.67987 0.55826 0.50351 0.0
H431 H 0.70813 0.5938 0.49701 0.0
H432 H 0.72305 0.55894 0.5194 0.0
C433 C 0.74883 0.46906 0.01595 0.0
N434 N 0.73835 0.49876 0.02807 0.0
N435 N 0.75804 0.44996 0.04149 0.0
C436 C 0.75231 0.45956 0.97936 0.0
C437 C 0.75296 0.46922 0.06961 0.0
N438 N 0.74107 0.49888 0.06142 0.0
C439 C 0.75736 0.45816 0.10485 0.0
H440 H 0.72853 0.44626 0.96865 0.0
H441 H 0.77302 0.4425 0.97617 0.0
H442 H 0.75725 0.48221 0.96515 0.0
H443 H 0.78336 0.46573 0.11499 0.0
H444 H 0.7535 0.43045 0.10523 0.0
H445 H 0.73958 0.47026 0.1214 0.0
C446 C 0.30161 0.95542 0.59919 0.0
N447 N 0.31927 0.9764 0.58032 0.0
N448 N 0.29102 0.92665 0.58091 0.0
C449 C 0.2954 0.9628 0.63546 0.0
C450 C 0.30258 0.93115 0.55017 0.0
N451 N 0.32009 0.96119 0.54995 0.0
C452 C 0.29324 0.90807 0.51937 0.0
H453 H 0.31839 0.97522 0.64865 0.0
H454 H 0.28819 0.93959 0.64792 0.0
H455 H 0.27492 0.98033 0.63718 0.0
H456 H 0.26918 0.8933 0.52183 0.0
H457 H 0.31337 0.89038 0.516 0.0
H458 H 0.2907 0.92243 0.4965 0.0
C459 C 0.25098 0.09164 0.01335 0.0
N460 N 0.23512 0.06633 0.99334 0.0
N461 N 0.25272 0.12045 0.99702 0.0
C462 C 0.26412 0.08831 0.04896 0.0
C463 C 0.2376 0.11157 0.96623 0.0
N464 N 0.22652 0.07873 0.96411 0.0
C465 C 0.23732 0.13394 0.93713 0.0
H466 H 0.26503 0.11282 0.06368 0.0
H467 H 0.28998 0.0795 0.04877 0.0
H468 H 0.24821 0.06951 0.06126 0.0
H469 H 0.25866 0.15319 0.94 0.0
H470 H 0.21352 0.14699 0.93617 0.0
H471 H 0.23884 0.11911 0.91295 0.0
C472 C 0.42821 0.69053 0.50106 0.0
N473 N 0.44244 0.70613 0.4758 0.0
N474 N 0.44811 0.69563 0.52992 0.0
C475 C 0.39489 0.67066 0.49753 0.0
C476 C 0.47485 0.71505 0.52111 0.0
N477 N 0.47129 0.7214 0.48828 0.0
C478 C 0.5053 0.72611 0.54393 0.0
H479 H 0.3776 0.68131 0.47873 0.0
H480 H 0.38311 0.67019 0.522 0.0
H481 H 0.39895 0.64449 0.48854 0.0
H482 H 0.5109 0.70667 0.56183 0.0
H483 H 0.50015 0.7495 0.5586 0.0
H484 H 0.52764 0.73138 0.52933 0.0
C485 C 0.01215 0.27293 0.07622 0.0
N486 N 0.99311 0.25938 0.04898 0.0
N487 N 0.99292 0.2773 0.10285 0.0
C488 C 0.04951 0.28088 0.07706 0.0
C489 C 0.96156 0.26626 0.09074 0.0
N490 N 0.96166 0.25561 0.05803 0.0
C491 C 0.93108 0.26487 0.11117 0.0
H492 H 0.05706 0.28883 0.05227 0.0
H493 H 0.06254 0.25793 0.0828 0.0
H494 H 0.05787 0.3008 0.09674 0.0
H495 H 0.9332 0.28509 0.13159 0.0
H496 H 0.92916 0.24029 0.12272 0.0
H497 H 0.90777 0.26717 0.09513 0.0
C498 C 0.02188 0.70754 0.41469 0.0
N499 N 0.02953 0.70606 0.44808 0.0
N500 N 0.05032 0.71221 0.39806 0.0
C501 C 0.98709 0.70145 0.39803 0.0
C502 C 0.07543 0.71329 0.42263 0.0
N503 N 0.06281 0.70982 0.45296 0.0
C504 C 0.11236 0.71514 0.41683 0.0
H505 H 0.98295 0.67444 0.38978 0.0
H506 H 0.98408 0.7162 0.37553 0.0
H507 H 0.96773 0.70805 0.41571 0.0
H508 H 0.11733 0.72754 0.39331 0.0
H509 H 0.12109 0.68927 0.41476 0.0
H510 H 0.12689 0.72905 0.43836 0.0
C511 C 0.59695 0.33197 0.9768 0.0
N512 N 0.57493 0.34348 -0.00141 0.0
N513 N 0.58086 0.32219 0.9467 0.0
C514 C 0.63407 0.33046 0.98489 0.0
C515 C 0.54817 0.32769 0.95117 0.0
N516 N 0.54458 0.34103 0.98265 0.0
C517 C 0.51941 0.31599 0.92624 0.0
H518 H 0.64362 0.35183 0.00257 0.0
H519 H 0.6481 0.33076 0.96171 0.0
H520 H 0.63858 0.30683 0.99724 0.0
H521 H 0.52603 0.29441 0.9097 0.0
H522 H 0.51341 0.3369 0.91025 0.0
H523 H 0.49659 0.30832 0.93918 0.0
C524 C 0.52762 0.37461 0.73333 0.0
N525 N 0.50479 0.39644 0.74286 0.0
N526 N 0.55486 0.39134 0.72208 0.0
C527 C 0.52361 0.33723 0.73563 0.0
C528 C 0.54758 0.42405 0.72488 0.0
N529 N 0.51724 0.42719 0.73781 0.0
C530 C 0.56868 0.45246 0.71199 0.0
H531 H 0.50902 0.33088 0.75747 0.0
H532 H 0.54848 0.32621 0.73777 0.0
H533 H 0.50952 0.32601 0.71249 0.0
H534 H 0.5833 0.44344 0.69083 0.0
H535 H 0.58665 0.46334 0.73258 0.0
H536 H 0.55278 0.47255 0.70339 0.0
C537 C 0.07324 0.94749 0.29633 0.0
N538 N 0.04513 0.93034 0.28219 0.0
N539 N 0.09922 0.92721 0.29791 0.0
C540 C 0.07553 0.984 0.30829 0.0
C541 C 0.08597 0.89708 0.2845 0.0
N542 N 0.05302 0.89892 0.27516 0.0
C543 C 0.10526 0.86608 0.27978 0.0
H544 H 0.08281 -0.0007 0.28726 0.0
H545 H 0.09493 0.98919 0.32928 0.0
H546 H 0.05093 0.99181 0.31656 0.0
H547 H 0.09827 0.84833 0.29893 0.0
H548 H 0.13283 0.87187 0.28263 0.0
H549 H 0.09842 0.8534 0.25462 0.0
C550 C 0.40293 0.00978 0.67897 0.0
N551 N 0.43318 0.02668 0.67727 0.0
N552 N 0.37962 0.03096 0.68921 0.0
C553 C 0.39684 0.97237 0.67244 0.0
C554 C 0.39691 0.06126 0.69375 0.0
N555 N 0.42948 0.05863 0.68675 0.0
C556 C 0.38219 0.09302 0.70665 0.0
H557 H 0.39987 0.96554 0.64553 0.0
H558 H 0.3713 0.96325 0.67848 0.0
H559 H 0.41591 0.95939 0.68735 0.0
H560 H 0.37544 0.09034 0.73297 0.0
H561 H 0.35885 0.09721 0.69145 0.0
H562 H 0.39982 0.11538 0.70556 0.0
C563 C 0.9799 0.5999 0.31061 0.0
N564 N 0.0014 0.5782 0.32331 0.0
N565 N 0.95137 0.58306 0.29691 0.0
C566 C 0.98658 0.63738 0.31213 0.0
C567 C 0.95648 0.5504 0.30164 0.0
N568 N 0.98674 0.54747 0.31797 0.0
C569 C 0.93333 0.52119 0.28739 0.0
H570 H 0.9627 0.6503 0.31176 0.0
H571 H 0.00038 0.64426 0.28994 0.0
H572 H 0.00249 0.64614 0.33504 0.0
H573 H 0.91878 0.52778 0.26442 0.0
H574 H 0.91536 0.51435 0.30641 0.0
H575 H 0.94768 0.49896 0.28107 0.0
C576 C 0.09437 0.59425 0.33888 0.0
C577 C 0.0977 0.59803 0.37417 0.0
H578 H 0.06036 0.58633 0.29496 0.0
C579 C 0.06854 0.59676 0.39236 0.0
H580 H 0.11633 0.5956 0.32418 0.0
C581 C 0.03679 0.59057 0.37557 0.0
C582 C 0.03374 0.58638 0.34044 0.0
H583 H 0.07032 0.59978 0.41956 0.0
H584 H 0.01459 0.58877 0.38988 0.0
C585 C 0.06255 0.58909 0.32215 0.0
C586 C 0.44048 0.39154 0.80689 0.0
C587 C 0.41107 0.38245 0.78649 0.0
H588 H 0.49379 0.40379 0.80829 0.0
C589 C 0.41345 0.37539 0.75186 0.0
H590 H 0.43926 0.39722 0.83364 0.0
C591 C 0.44473 0.37792 0.73779 0.0
C592 C 0.4737 0.3888 0.75795 0.0
H593 H 0.39113 0.36818 0.73567 0.0
H594 H 0.44619 0.37306 0.71096 0.0
C595 C 0.47153 0.39522 0.79257 0.0
C596 C 0.4992 0.98323 0.63119 0.0
C597 C 0.52736 0.98883 0.65416 0.0
H598 H 0.44719 0.99202 0.62035 0.0
C599 C 0.52361 0.0058 0.68541 0.0
H600 H 0.5014 0.97044 0.60681 0.0
C601 C 0.4924 0.01714 0.69341 0.0
C602 C 0.4646 0.01257 0.67001 0.0
H603 H 0.54479 0.01025 0.70371 0.0
H604 H 0.49002 0.02987 0.71776 0.0
C605 C 0.46818 0.99533 0.63893 0.0
C606 C 0.95183 0.93836 0.27803 0.0
C607 C 0.94865 0.96663 0.25895 0.0
H608 H 0.98548 0.90507 0.30089 0.0
C609 C 0.9779 0.98322 0.24837 0.0
H610 H 0.92982 0.92504 0.28661 0.0
C611 C 0.00956 0.97151 0.25629 0.0
C612 C 0.01263 0.94325 0.27523 0.0
H613 H 0.97633 0.00493 0.23345 0.0
H614 H 0.03164 0.9841 0.24708 0.0
C615 C 0.98356 0.92687 0.28617 0.0
C616 C 0.32739 0.06944 0.59869 0.0
C617 C 0.36251 0.07553 0.60308 0.0
H618 H 0.28606 0.03237 0.58925 0.0
C619 C 0.38305 0.04811 0.60163 0.0
H620 H 0.31092 0.09003 0.5999 0.0
C621 C 0.36876 0.01542 0.59462 0.0
C622 C 0.33376 0.00955 0.59017 0.0
H623 H 0.41019 0.05202 0.6049 0.0
H624 H 0.38491 0.99468 0.59227 0.0
C625 C 0.31313 0.03663 0.59285 0.0
C626 C 0.18841 0.98765 0.01597 0.0
C627 C 0.21413 0.96507 0.01693 0.0
H628 H 0.17514 0.03787 0.00667 0.0
C629 C 0.247 0.97654 0.01058 0.0
H630 H 0.16285 0.97939 0.02068 0.0
C631 C 0.25404 0.0101 0.00374 0.0
C632 C 0.22814 0.03229 0.00192 0.0
H633 H 0.26729 0.95969 0.01134 0.0
H634 H 0.27951 0.01868 -0.00094 0.0
C635 C 0.1953 0.02091 0.00799 0.0
C636 C 0.7498 0.42244 0.41233 0.0
C637 C 0.77941 0.42488 0.39496 0.0
H638 H 0.71186 0.449 0.43668 0.0
C639 C 0.79279 0.45684 0.38771 0.0
H640 H 0.73873 0.39821 0.41813 0.0
C641 C 0.7775 0.48578 0.39864 0.0
C642 C 0.74853 0.48323 0.41679 0.0
H643 H 0.81559 0.45959 0.37441 0.0
H644 H 0.78881 0.51021 0.39386 0.0
C645 C 0.73444 0.45138 0.42301 0.0
C646 C 0.68757 0.54534 0.96623 0.0
C647 C 0.69997 0.5787 0.97426 0.0
H648 H 0.68964 0.49374 0.9779 0.0
C649 C 0.72601 0.58516 -0.00051 0.0
H650 H 0.66733 0.5396 0.94709 0.0
C651 C 0.73921 0.5588 0.01647 0.0
C652 C 0.72621 0.52561 0.00901 0.0
H653 H 0.7362 0.61057 0.00611 0.0
H654 H 0.75944 0.5643 0.03562 0.0
C655 C 0.70038 0.51908 0.98367 0.0
C656 C 0.59544 0.34454 0.09124 0.0
C657 C 0.59326 0.3787 0.10085 0.0
H658 H 0.59229 0.3068 0.05032 0.0
C659 C 0.58616 0.4013 0.07608 0.0
H660 H 0.60104 0.32668 0.10987 0.0
C661 C 0.58022 0.3897 0.04239 0.0
C662 C 0.58241 0.35562 0.03293 0.0
H663 H 0.58426 0.42774 0.0829 0.0
H664 H 0.57383 0.40718 0.02365 0.0
C665 C 0.59066 0.3332 0.0574 0.0
C666 C 0.03987 0.21951 0.97981 0.0
C667 C 0.02422 0.23232 0.95118 0.0
H668 H 0.04174 0.21786 0.03357 0.0
C669 C 0.99833 0.25432 0.95544 0.0
H670 H 0.05978 0.20238 0.97743 0.0
C671 C 0.98838 0.26331 0.98757 0.0
C672 C 0.00399 0.25047 0.01604 0.0
H673 H 0.98577 0.26469 0.93398 0.0
H674 H 0.96863 0.28054 0.99029 0.0
C675 C 0.02976 0.22845 0.01193 0.0
C676 C 0.39809 0.73908 0.40093 0.0
C677 C 0.41197 0.72073 0.37454 0.0
H678 H 0.39744 0.7486 0.45446 0.0
C679 C 0.43297 0.69483 0.38229 0.0
H680 H 0.38191 0.75925 0.39582 0.0
C681 C 0.44105 0.68839 0.41575 0.0
C682 C 0.42886 0.70817 0.44192 0.0
H683 H 0.44401 0.68023 0.36255 0.0
H684 H 0.45802 0.66901 0.4213 0.0
C685 C 0.40676 0.73301 0.43439 0.0
C686 C 0.99213 0.70772 0.53171 0.0
C687 C 0.97221 0.67739 0.52932 0.0
H688 H 0.02499 0.74118 0.50678 0.0
C689 C 0.96892 0.65814 0.49852 0.0
H690 H 0.99501 0.72319 0.55503 0.0
C691 C 0.98661 0.66822 0.47119 0.0
C692 C 0.00725 0.69805 0.474 0.0
H693 H 0.95393 0.63452 0.496 0.0
H694 H 0.98539 0.65199 0.44842 0.0
C695 C 0.00923 0.71805 0.5042 0.0
C696 C 0.93887 0.39094 0.62179 0.0
C697 C 0.91559 0.40586 0.64224 0.0
H698 H 0.99103 0.38575 0.61295 0.0
C699 C 0.92775 0.42697 0.6703 0.0
H700 H 0.93036 0.37477 0.59987 0.0
C701 C 0.96235 0.43304 0.6777 0.0
C702 C 0.98542 0.41832 0.65712 0.0
H703 H 0.91055 0.43879 0.68662 0.0
H704 H 0.97118 0.44921 0.69953 0.0
C705 C 0.97349 0.39715 0.62919 0.0
C706 C 0.55995 0.6227 0.24612 0.0
C707 C 0.55698 0.63476 0.21375 0.0
H708 H 0.53415 0.60186 0.28656 0.0
C709 C 0.52476 0.6354 0.19749 0.0
H710 H 0.58435 0.62186 0.25935 0.0
C711 C 0.4962 0.62393 0.21319 0.0
C712 C 0.4994 0.61169 0.24531 0.0
H713 H 0.52161 0.64449 0.17255 0.0
H714 H 0.47162 0.62411 0.20017 0.0
C715 C 0.53138 0.61125 0.26171 0.0
C716 C 0.44082 0.97284 0.3317 0.0
C717 C 0.42809 0.00173 0.31861 0.0
H718 H 0.48296 0.94222 0.3365 0.0
C719 C 0.44815 0.02137 0.2986 0.0
H720 H 0.42595 0.95748 0.34752 0.0
C721 C 0.48025 0.0119 0.29135 0.0
C722 C 0.4932 0.9833 0.30488 0.0
H723 H 0.43877 0.04365 0.28806 0.0
H724 H 0.49488 0.02674 0.27494 0.0
C725 C 0.47328 0.96401 0.32531 0.0
C726 C 0.03274 0.95416 0.77758 0.0
C727 C 0.05595 0.97356 0.7604 0.0
H728 H 0.98104 0.94513 0.78876 0.0
C729 C 0.04399 -0.00165 0.73998 0.0
H730 H 0.04114 0.93498 0.79364 0.0
C731 C 0.00965 0.00364 0.73689 0.0
C732 C 0.98666 0.98461 0.75446 0.0
H733 H 0.06115 0.01361 0.72629 0.0
H734 H 0.00095 0.02261 0.72075 0.0
C735 C 0.99842 0.9598 0.77476 0.0
C736 C 0.59643 0.98364 0.3827 0.0
C737 C 0.6162 0.95592 0.38644 0.0
H738 H 0.59473 0.03737 0.38794 0.0
C739 C 0.65004 0.96156 0.3985 0.0
H740 H 0.57027 0.98015 0.37357 0.0
C741 C 0.6638 0.99423 0.4065 0.0
C742 C 0.64403 0.0217 0.40244 0.0
H743 H 0.66596 0.94078 0.40159 0.0
H744 H 0.68988 -0.0018 0.41576 0.0
C745 C 0.6103 0.01628 0.39067 0.0
C746 C 0.77339 0.01363 -0.00151 0.0
C747 C 0.79662 0.0212 0.97444 0.0
H748 H 0.74846 0.97511 0.0249 0.0
C749 C 0.81455 0.99516 0.9603 0.0
H750 H 0.75912 0.03307 0.00982 0.0
C751 C 0.80865 0.96215 0.96933 0.0
C752 C 0.78479 0.95458 0.99261 0.0
H753 H 0.83269 0.00014 0.94178 0.0
H754 H 0.82214 0.9423 0.95766 0.0
C755 C 0.76745 0.98058 0.00739 0.0
C756 C 0.21523 0.54335 0.62481 0.0
C757 C 0.18053 0.54046 0.6295 0.0
H758 H 0.25869 0.51794 0.61076 0.0
C759 C 0.16352 0.50844 0.62574 0.0
H760 H 0.22911 0.56758 0.62751 0.0
C761 C 0.18068 0.4801 0.61648 0.0
C762 C 0.21495 0.48345 0.6106 0.0
H763 H 0.13678 0.5054 0.62897 0.0
H764 H 0.16702 0.45582 0.61255 0.0
C765 C 0.23222 0.51509 0.61535 0.0
C766 C 0.33809 0.48378 0.06118 0.0
C767 C 0.31995 0.45397 0.04864 0.0
H768 H 0.34483 0.53732 0.0586 0.0
C769 C 0.29288 0.45591 0.02482 0.0
H770 H 0.35913 0.48308 0.0795 0.0
C771 C 0.28431 0.48698 0.01359 0.0
C772 C 0.30321 0.51659 0.02522 0.0
H773 H 0.2782 0.43343 0.01496 0.0
H774 H 0.26303 0.48787 0.99563 0.0
C775 C 0.32994 0.51477 0.04936 0.0
C776 C 0.37989 0.65045 0.88027 0.0
C777 C 0.40246 0.62923 0.86554 0.0
H778 H 0.36653 0.67668 0.92553 0.0
C779 C 0.42658 0.61471 0.88612 0.0
H780 H 0.36111 0.66195 0.86479 0.0
C781 C 0.42858 0.62182 0.92088 0.0
C782 C 0.40755 0.64479 0.93552 0.0
H783 H 0.44395 0.5979 0.8753 0.0
H784 H 0.44728 0.61015 0.93625 0.0
C785 C 0.38279 0.65862 0.91496 0.0
C786 C 0.94856 0.73034 0.03146 0.0
C787 C 0.9418 0.76169 0.04658 0.0
H788 H 0.96361 0.70353 0.9871 0.0
C789 C 0.94662 0.79064 0.02858 0.0
H790 H 0.94503 0.70761 0.04469 0.0
C791 C 0.95791 0.78824 0.99606 0.0
C792 C 0.96373 0.75684 0.98081 0.0
H793 H 0.9418 0.81515 0.03969 0.0
H794 H 0.96145 0.81072 0.98246 0.0
C795 C 0.95906 0.72792 -0.00135 0.0
C796 C 0.58622 0.26924 0.58693 0.0
C797 C 0.60636 0.24329 0.59654 0.0
H798 H 0.56464 0.295 0.54599 0.0
C799 C 0.62246 0.2249 0.57169 0.0
H800 H 0.57342 0.28383 0.60538 0.0
C801 C 0.61715 0.23128 0.53778 0.0
C802 C 0.59585 0.25616 0.5283 0.0
H803 H 0.63809 0.20471 0.57825 0.0
H804 H 0.6285 0.21595 0.51881 0.0
C805 C 0.58109 0.27564 0.55307 0.0
C806 C 0.06868 0.34164 0.46389 0.0
C807 C 0.0538 0.32398 0.43472 0.0
H808 H 0.06826 0.34976 0.51754 0.0
C809 C 0.02829 0.29877 0.43795 0.0
H810 H 0.08835 0.36123 0.46221 0.0
C811 C 0.01744 0.29185 0.46961 0.0
C812 C 0.03126 0.31055 0.49852 0.0
H813 H 0.01658 0.28451 0.416 0.0
H814 H 0.99782 0.27227 0.47151 0.0
C815 C 0.05733 0.3351 0.49549 0.0
C816 C 0.20738 0.51437 0.50839 0.0
C817 C 0.23636 0.53077 0.49699 0.0
H818 H 0.18765 0.47668 0.53944 0.0
C819 C 0.26817 0.52145 0.50894 0.0
H820 H 0.18251 0.52091 0.49973 0.0
C821 C 0.27092 0.49631 0.53165 0.0
C822 C 0.242 0.47982 0.5427 0.0
H823 H 0.29103 0.53365 0.50089 0.0
H824 H 0.29565 0.49003 0.54098 0.0
C825 C 0.21023 0.48911 0.53105 0.0
C826 C 0.3209 0.48609 0.92133 0.0
C827 C 0.29209 0.47924 0.8993 0.0
H828 H 0.34359 0.51606 0.96425 0.0
C829 C 0.26396 0.49827 0.9038 0.0
H830 H 0.343 0.4719 0.9186 0.0
C831 C 0.26438 0.52312 0.92986 0.0
C832 C 0.29299 0.52984 0.95186 0.0
H833 H 0.24125 0.49361 0.88755 0.0
H834 H 0.24198 0.53661 0.9334 0.0
C835 C 0.32134 0.51126 0.94738 0.0
C836 C 0.69643 0.02447 0.51903 0.0
C837 C 0.66558 0.01307 0.53105 0.0
H838 H 0.72114 0.05051 0.48097 0.0
C839 C 0.63551 0.0188 0.51256 0.0
H840 H 0.72008 0.02036 0.53244 0.0
C841 C 0.63634 0.03613 0.48312 0.0
C842 C 0.66713 0.04819 0.47188 0.0
H843 H 0.61134 0.01022 0.52097 0.0
H844 H 0.61299 0.0407 0.46941 0.0
C845 C 0.69715 0.04183 0.48972 0.0
C846 C 0.8232 0.95442 0.10295 0.0
C847 C 0.79768 0.95775 0.12564 0.0
H848 H 0.83571 0.93592 0.05374 0.0
C849 C 0.76453 0.94622 0.11501 0.0
H850 H 0.84894 0.9632 0.11027 0.0
C851 C 0.75729 0.93063 0.08307 0.0
C852 C 0.78287 0.92639 0.06095 0.0
H853 H 0.74418 0.94851 0.13164 0.0
H854 H 0.7317 0.92141 0.07564 0.0
C855 C 0.81575 0.93898 0.07071 0.0
C856 C 0.49923 0.2051 0.53263 0.0
C857 C 0.47321 0.22691 0.53725 0.0
H858 H 0.54594 0.19706 0.50999 0.0
C859 C 0.474 0.25716 0.5208 0.0
H860 H 0.49951 0.18169 0.54498 0.0
C861 C 0.50048 0.26577 0.50096 0.0
C862 C 0.52665 0.24427 0.49685 0.0
H863 H 0.45453 0.27468 0.52384 0.0
H864 H 0.50115 0.28977 0.48967 0.0
C865 C 0.52574 0.21379 0.51265 0.0
C866 C 0.07476 0.77035 0.0007 0.0
C867 C 0.09191 0.80096 0.99447 0.0
H868 H 0.03276 0.73533 0.98671 0.0
C869 C 0.07768 0.82105 0.97025 0.0
H870 H 0.0849 0.75425 0.01918 0.0
C871 C 0.04769 0.81009 0.95182 0.0
C872 C 0.03133 0.77907 0.95748 0.0
H873 H 0.0902 0.84473 0.96481 0.0
H874 H 0.0376 0.82536 0.93258 0.0
C875 C 0.04479 0.75956 0.98238 0.0
C876 C 0.90682 0.28436 0.48377 0.0
C877 C 0.90533 0.31171 0.46323 0.0
H878 H 0.93404 0.26131 0.52307 0.0
C879 C 0.93052 0.33805 0.46813 0.0
H880 H 0.88803 0.26353 0.48062 0.0
C881 C 0.95664 0.33689 0.49303 0.0
C882 C 0.95804 0.30932 0.51318 0.0
H883 H 0.93008 0.3595 0.45277 0.0
H884 H 0.97591 0.35726 0.49642 0.0
C885 C 0.93295 0.28314 0.5083 0.0
C886 C 0.53249 0.65123 0.97038 0.0
C887 C 0.53817 0.67052 0.94266 0.0
H888 H 0.49729 0.63492 0.00558 0.0
C889 C 0.51152 0.68781 0.92865 0.0
H890 H 0.55238 0.63756 0.98179 0.0
C891 C 0.4801 0.68632 0.94253 0.0
C892 C 0.47484 0.66743 0.97047 0.0
H893 H 0.51507 0.70296 0.90736 0.0
H894 H 0.46002 0.70023 0.93185 0.0
C895 C 0.50112 0.64974 0.98412 0.0
C896 C 0.51815 0.5058 0.22628 0.0
C897 C 0.53248 0.48942 0.25339 0.0
H898 H 0.48526 0.54355 0.21082 0.0
C899 C 0.52474 0.49951 0.28625 0.0
H900 H 0.52364 0.49873 0.20067 0.0
C901 C 0.50306 0.52514 0.29186 0.0
C902 C 0.48838 0.54101 0.26479 0.0
H903 H 0.53554 0.48773 0.30777 0.0
H904 H 0.49795 0.53282 0.31741 0.0
C905 C 0.49628 0.5314 0.23198 0.0
C906 C 0.99403 0.08506 0.81162 0.0
C907 C 0.9962 0.11139 0.78976 0.0
H908 H 0.97402 0.03481 0.81844 0.0
C909 C 0.97946 0.1069 0.75764 0.0
H910 H 0.0068 0.08765 0.83641 0.0
C911 C 0.96063 0.07709 0.74779 0.0
C912 C 0.95832 0.05103 0.76965 0.0
H913 H 0.98057 0.12659 0.74013 0.0
H914 H 0.94792 0.07417 0.72297 0.0
C915 C 0.97542 0.05494 0.80146 0.0
C916 C 0.46172 0.88784 0.24762 0.0
C917 C 0.46493 0.85826 0.26472 0.0
H918 H 0.48155 0.93831 0.24194 0.0
C919 C 0.49135 0.8572 0.28951 0.0
H920 H 0.44164 0.88949 0.22843 0.0
C921 C 0.51418 0.88489 0.29676 0.0
C922 C 0.51084 0.91435 0.27985 0.0
H923 H 0.49471 0.83481 0.30305 0.0
H924 H 0.53441 0.88342 0.31571 0.0
C925 C 0.48439 0.91573 0.2553 0.0
C926 C 0.0052 0.53969 0.6886 0.0
C927 C 0.98872 0.54736 0.65813 0.0
H928 H 0.03311 0.5041 0.71489 0.0
C929 C 0.98818 0.52401 0.63024 0.0
H930 H 0.00596 0.55688 0.71067 0.0
C931 C 0.00402 0.4938 0.63282 0.0
C932 C 0.0208 0.48666 0.66315 0.0
H933 H 0.97558 0.52905 0.60646 0.0
H934 H 0.00342 0.47607 0.61118 0.0
C935 C 0.02096 0.50964 0.69106 0.0
C936 C 0.77765 0.46666 0.52078 0.0
C937 C 0.75217 0.45366 0.54017 0.0
H938 H 0.78991 0.49807 0.48077 0.0
C939 C 0.71903 0.46309 0.53389 0.0
H940 H 0.8034 0.45993 0.52494 0.0
C941 C 0.71156 0.48494 0.50885 0.0
C942 C 0.73695 0.49764 0.48948 0.0
H943 H 0.69877 0.45364 0.54834 0.0
H944 H 0.68585 0.49158 0.50417 0.0
C945 C 0.77004 0.4884 0.49557 0.0
C946 C 0.68488 0.55862 0.10194 0.0
C947 C 0.7078 0.57877 0.12384 0.0
H948 H 0.6778 0.51713 0.06501 0.0
C949 C 0.74181 0.57108 0.12572 0.0
H950 H 0.6585 0.56373 0.09973 0.0
C951 C 0.75255 0.54396 0.10617 0.0
C952 C 0.72963 0.52456 0.08398 0.0
H953 H 0.76043 0.58657 0.14117 0.0
H954 H 0.77894 0.53884 0.10734 0.0
C955 C 0.69573 0.53189 0.08216 0.0
C956 C 0.32248 0.01423 0.47639 0.0
C957 C 0.34095 0.99449 0.45478 0.0
H958 H 0.30057 0.01823 0.52403 0.0
C959 C 0.35765 0.96749 0.46746 0.0
H960 H 0.30913 0.03502 0.46717 0.0
C961 C 0.35349 0.95858 0.5003 0.0
C962 C 0.33209 0.9761 0.52065 0.0
H963 H 0.37221 0.95199 0.45135 0.0
H964 H 0.36477 0.9364 0.50898 0.0
C965 C 0.31776 0.00482 0.50903 0.0
C966 C 0.21382 0.01465 0.89142 0.0
C967 C 0.18825 0.02832 0.87183 0.0
H968 H 0.24714 0.02106 0.93561 0.0
C969 C 0.17327 0.05693 0.8846 0.0
H970 H 0.22608 0.99285 0.88195 0.0
C971 C 0.18447 0.07222 0.91596 0.0
C972 C 0.2115 0.05983 0.93457 0.0
H973 H 0.15341 0.06786 0.87002 0.0
H974 H 0.17296 0.09456 0.92516 0.0
C975 C 0.22569 0.03059 0.92229 0.0
C976 C 0.5334 0.74349 0.42542 0.0
C977 C 0.53536 0.77877 0.42891 0.0
H978 H 0.51193 0.69755 0.44265 0.0
C979 C 0.51652 0.79484 0.45312 0.0
H980 H 0.54625 0.73032 0.40606 0.0
C981 C 0.49614 0.77594 0.47334 0.0
C982 C 0.49417 0.7408 0.46949 0.0
H983 H 0.5173 0.822 0.45618 0.0
H984 H 0.48133 0.78862 0.49148 0.0
C985 C 0.51325 0.72469 0.44581 0.0
C986 C 0.88162 0.23811 0.0047 0.0
C987 C 0.87953 0.20279 0.00147 0.0
H988 H 0.90977 0.28272 0.02593 0.0
C989 C 0.90578 0.1854 0.01611 0.0
H990 H 0.86297 0.2524 0.9923 0.0
C991 C 0.93297 0.20288 0.03429 0.0
C992 C 0.93429 0.23794 0.03828 0.0
H993 H 0.90515 0.15821 0.01386 0.0
H994 H 0.9528 0.18913 0.04568 0.0
C995 C 0.90863 0.25553 0.02334 0.0
C996 C 0.11014 0.71886 0.53715 0.0
C997 C 0.10923 0.68528 0.54609 0.0
H998 H 0.09606 0.75295 0.49965 0.0
C999 C 0.09494 0.65996 0.52264 0.0
H1000 H 0.11996 0.73905 0.55484 0.0
C1001 C 0.0811 0.66806 0.49147 0.0
C1002 C 0.08127 0.70155 0.48305 0.0
H1003 H 0.09383 0.63384 0.52863 0.0
H1004 H 0.06927 0.64832 0.47421 0.0
C1005 C 0.09634 0.7269 0.50573 0.0
C1006 C 0.45667 0.36674 0.99192 0.0
C1007 C 0.44839 0.3513 0.02127 0.0
H1008 H 0.49485 0.37697 0.95759 0.0
C1009 C 0.47316 0.33505 0.03943 0.0
H1010 H 0.43798 0.37954 0.97759 0.0
C1011 C 0.50512 0.3325 0.0273 0.0
C1012 C 0.51323 0.3472 0.99748 0.0
H1013 H 0.46721 0.3226 0.06192 0.0
H1014 H 0.52283 0.31757 0.04032 0.0
C1015 C 0.48903 0.36522 0.98048 0.0
C1016 C 0.45228 0.4911 0.73212 0.0
C1017 C 0.46955 0.51937 0.74902 0.0
H1018 H 0.45488 0.43998 0.71373 0.0
C1019 C 0.50196 0.51634 0.76386 0.0
H1020 H 0.42747 0.49291 0.72003 0.0
C1021 C 0.51703 0.48566 0.76136 0.0
C1022 C 0.50034 0.45778 0.74323 0.0
H1023 H 0.51576 0.53777 0.77712 0.0
H1024 H 0.54205 0.48382 0.77289 0.0
C1025 C 0.46779 0.46072 0.72878 0.0
C1026 C 0.00327 0.81716 0.25368 0.0
C1027 C 0.98844 0.82277 0.22187 0.0
H1028 H 0.03544 0.83764 0.2959 0.0
C1029 C 0.99516 0.85386 0.20805 0.0
H1030 H 0.99763 0.79397 0.26548 0.0
C1031 C 0.01658 0.87866 0.22547 0.0
C1032 C 0.03137 0.87302 0.25716 0.0
H1033 H 0.98406 0.85892 0.18359 0.0
H1034 H 0.02173 0.9023 0.21423 0.0
C1035 C 0.02464 0.84213 0.27118 0.0
C1036 C 0.49073 0.12234 0.73248 0.0
C1037 C 0.51126 0.13183 0.70674 0.0
H1038 H 0.44854 0.09131 0.74598 0.0
C1039 C 0.50409 0.11696 0.67404 0.0
H1040 H 0.49554 0.13313 0.75795 0.0
C1041 C 0.47693 0.09323 0.66732 0.0
C1042 C 0.45648 0.08412 0.69308 0.0
H1043 H 0.51938 0.12369 0.65363 0.0
H1044 H 0.47181 0.08191 0.64208 0.0
C1045 C 0.4637 0.09866 0.7257 0.0
C1046 C 0.99381 0.46109 0.34783 0.0
C1047 C 0.0237 0.45181 0.33393 0.0
H1048 H 0.95931 0.49982 0.35458 0.0
C1049 C 0.04299 0.47574 0.31764 0.0
H1050 H 0.97851 0.44316 0.3606 0.0
C1051 C 0.0315 0.5077 0.31348 0.0
C1052 C 0.0011 0.51659 0.32642 0.0
H1053 H 0.0659 0.46912 0.30629 0.0
H1054 H 0.04535 0.52466 0.29846 0.0
C1055 C 0.98283 0.49336 0.34442 0.0
C1056 C 0.38895 0.61666 0.3742 0.0
C1057 C 0.3548 0.61883 0.3641 0.0
H1058 H 0.43847 0.60789 0.35867 0.0
C1059 C 0.34513 0.61692 0.32951 0.0
H1060 H 0.39734 0.61813 0.40057 0.0
C1061 C 0.36892 0.61132 0.30567 0.0
C1062 C 0.40254 0.60751 0.31609 0.0
H1063 H 0.31905 0.61853 0.3209 0.0
H1064 H 0.36095 0.60861 0.2792 0.0
C1065 C 0.41253 0.61084 0.35038 0.0
C1066 C 0.16101 0.40364 0.71621 0.0
C1067 C 0.15574 0.39664 0.7497 0.0
H1068 H 0.13841 0.41602 0.66863 0.0
C1069 C 0.12255 0.39361 0.75981 0.0
H1070 H 0.18622 0.406 0.70758 0.0
C1071 C 0.09547 0.3995 0.7376 0.0
C1072 C 0.10095 0.40827 0.70481 0.0
H1073 H 0.11752 0.38816 0.78535 0.0
H1074 H 0.07032 0.39883 0.74648 0.0
C1075 C 0.13379 0.40938 0.69394 0.0
C1076 C 0.83787 0.96493 0.66004 0.0
C1077 C 0.80638 0.96469 0.67422 0.0
H1078 H 0.8915 0.97211 0.66881 0.0
C1079 C 0.80543 0.96882 0.70939 0.0
H1080 H 0.83961 0.96179 0.63309 0.0
C1081 C 0.83531 0.97438 0.72973 0.0
C1082 C 0.86653 0.97599 0.71529 0.0
H1083 H 0.78164 0.96865 0.72113 0.0
H1084 H 0.8341 0.97835 0.75668 0.0
C1085 C 0.86761 0.97064 0.68038 0.0
C1086 C 0.65534 0.02435 0.26158 0.0
C1087 C 0.68241 0.00629 0.27334 0.0
H1088 H 0.60192 0.02813 0.2582 0.0
C1089 C 0.6761 0.98036 0.29494 0.0
H1090 H 0.65926 0.04455 0.24503 0.0
C1091 C 0.64316 0.97122 0.30263 0.0
C1092 C 0.61601 0.98785 0.28897 0.0
H1093 H 0.69638 0.96608 0.30464 0.0
H1094 H 0.63872 0.95029 0.31814 0.0
C1095 C 0.62249 0.0151 0.2692 0.0
C1096 C 0.33957 0.36693 0.6155 0.0
C1097 C 0.32749 0.333 0.61233 0.0
H1098 H 0.32761 0.41835 0.61187 0.0
C1099 C 0.29268 0.32535 0.60607 0.0
H1100 H 0.36616 0.37379 0.62037 0.0
C1101 C 0.27074 0.35107 0.60149 0.0
C1102 C 0.2833 0.38466 0.60311 0.0
H1103 H 0.28256 0.29951 0.6035 0.0
H1104 H 0.24423 0.34478 0.59535 0.0
C1105 C 0.31766 0.39247 0.61076 0.0
C1106 C 0.262 0.68706 0.04382 0.0
C1107 C 0.22966 0.6906 0.0288 0.0
H1108 H 0.30315 0.6549 0.04977 0.0
C1109 C 0.21395 0.66364 0.00834 0.0
H1110 H 0.27468 0.70726 0.05992 0.0
C1111 C 0.23029 0.63421 0.00242 0.0
C1112 C 0.26272 0.63086 0.01677 0.0
H1113 H 0.189 0.66529 0.99653 0.0
H1114 H 0.2176 0.61389 0.9865 0.0
C1115 C 0.27831 0.65723 0.03804 0.0
C1116 C 0.7522 0.15552 0.37118 0.0
C1117 C 0.74481 0.18864 0.38062 0.0
H1118 H 0.73759 0.10302 0.37254 0.0
C1119 C 0.71411 0.19413 0.39508 0.0
H1120 H 0.77552 0.15038 0.35986 0.0
C1121 C 0.69247 0.16693 0.40207 0.0
C1122 C 0.70113 0.13394 0.3947 0.0
H1123 H 0.70752 0.2193 0.4025 0.0
H1124 H 0.66971 0.17152 0.41465 0.0
C1125 C 0.73054 0.1284 0.37824 0.0
C1126 C 0.67907 0.80587 0.9777 0.0
C1127 C 0.68815 0.78568 0.95008 0.0
H1128 H 0.69259 0.84827 0.01211 0.0
C1129 C 0.71947 0.79267 0.93664 0.0
H1130 H 0.6551 0.80139 0.98858 0.0
C1131 C 0.74111 0.81946 0.95056 0.0
C1132 C 0.73174 0.83957 0.97802 0.0
H1133 H 0.72716 0.77759 0.91534 0.0
H1134 H 0.76508 0.82463 0.93991 0.0
C1135 C 0.70056 0.83259 0.99138 0.0
C1136 C 0.60882 0.35786 0.39977 0.0
C1137 C 0.60587 0.34638 0.36567 0.0
H1138 H 0.60488 0.34516 0.4509 0.0
C1139 C 0.59917 0.3118 0.3574 0.0
H1140 H 0.61401 0.38428 0.4071 0.0
C1141 C 0.59421 0.28946 0.38269 0.0
C1142 C 0.59584 0.30134 0.41653 0.0
H1143 H 0.59683 0.30212 0.3314 0.0
H1144 H 0.58838 0.26304 0.37588 0.0
C1145 C 0.60375 0.33556 0.4249 0.0
C1146 C 0.04865 0.27584 0.67044 0.0
C1147 C 0.02916 0.24661 0.6768 0.0
H1148 H 0.05931 0.31313 0.63498 0.0
C1149 C 0.00581 0.23223 0.6515 0.0
H1150 H 0.06709 0.28733 0.68929 0.0
C1151 C 0.00137 0.24706 0.62099 0.0
C1152 C 0.02008 0.27664 0.61494 0.0
H1153 H 0.99058 0.20957 0.65532 0.0
H1154 H 0.98322 0.23542 0.60196 0.0
C1155 C 0.04431 0.29057 0.63953 0.0
C1156 C 0.35714 0.72655 0.08125 0.0
C1157 C 0.37188 0.71941 0.11275 0.0
H1158 H 0.35628 0.71696 0.02772 0.0
C1159 C 0.393 0.6925 0.11438 0.0
H1160 H 0.3405 0.74688 0.07908 0.0
C1161 C 0.40159 0.67522 0.08496 0.0
C1162 C 0.38936 0.68455 0.05341 0.0
H1163 H 0.40446 0.686 0.13821 0.0
H1164 H 0.41948 0.65593 0.08664 0.0
C1165 C 0.3659 0.7093 0.05182 0.0
C1166 C 0.96019 0.72329 0.79843 0.0
C1167 C 0.95283 0.68832 0.79596 0.0
H1168 H 0.9722 0.76744 0.83142 0.0
C1169 C 0.95061 0.67127 0.82568 0.0
H1170 H 0.96211 0.73717 0.77605 0.0
C1171 C 0.95648 0.68858 0.85707 0.0
C1172 C 0.96454 0.7233 0.85949 0.0
H1173 H 0.94506 0.64436 0.82477 0.0
H1174 H 0.95569 0.6747 0.87952 0.0
C1175 C 0.96604 0.74061 0.82997 0.0
C1176 C 0.60943 0.34877 0.66199 0.0
C1177 C 0.64155 0.36255 0.67384 0.0
H1178 H 0.55627 0.34726 0.66853 0.0
C1179 C 0.6448 0.38213 0.70444 0.0
H1180 H 0.60605 0.33349 0.6386 0.0
C1181 C 0.61632 0.38986 0.72139 0.0
C1182 C 0.58415 0.37804 0.70823 0.0
H1183 H 0.66913 0.39299 0.71441 0.0
H1184 H 0.61916 0.40642 0.74397 0.0
C1185 C 0.58095 0.35647 0.6791 0.0
C1186 C 0.86158 0.59485 0.27078 0.0
C1187 C 0.86483 0.6128 0.24177 0.0
H1188 H 0.88702 0.57212 0.31158 0.0
C1189 C 0.89724 0.62349 0.233 0.0
H1190 H 0.83703 0.58655 0.27848 0.0
C1191 C 0.92581 0.61503 0.252 0.0
C1192 C 0.9224 0.59594 0.28012 0.0
H1193 H 0.90062 0.63745 0.21087 0.0
H1194 H 0.95055 0.62215 0.24398 0.0
C1195 C 0.89009 0.58664 0.28979 0.0
C1196 C 0.17554 0.94954 0.35535 0.0
C1197 C 0.20094 0.95205 0.33243 0.0
H1198 H 0.12289 0.93942 0.3619 0.0
C1199 C 0.19206 0.94679 0.29783 0.0
H1200 H 0.18149 0.95342 0.38217 0.0
C1201 C 0.15852 0.93889 0.28648 0.0
C1202 C 0.13346 0.93611 0.30951 0.0
H1203 H 0.21098 0.94855 0.27953 0.0
H1204 H 0.15203 0.93472 0.25978 0.0
C1205 C 0.14209 0.94159 0.34394 0.0
C1206 C 0.28669 0.03112 0.69895 0.0
C1207 C 0.28287 0.01043 0.72596 0.0
H1208 H 0.32084 0.05369 0.66602 0.0
C1209 C 0.31122 0.99529 0.7394 0.0
H1210 H 0.26542 0.04321 0.68803 0.0
C1211 C 0.34278 0.00145 0.72676 0.0
C1212 C 0.34664 0.02263 0.7003 0.0
H1213 H 0.30925 0.97929 0.76026 0.0
H1214 H 0.36444 0.99035 0.73816 0.0
C1215 C 0.31834 0.03726 0.68639 0.0
C1216 C 0.65054 0.63023 0.43061 0.0
C1217 C 0.66862 0.65435 0.41333 0.0
H1218 H 0.64993 0.58155 0.4507 0.0
C1219 C 0.70073 0.64731 0.40304 0.0
H1220 H 0.62571 0.63478 0.43879 0.0
C1221 C 0.71451 0.61692 0.41008 0.0
C1222 C 0.69646 0.59304 0.42746 0.0
H1223 H 0.71534 0.66532 0.38972 0.0
H1224 H 0.73944 0.61218 0.40234 0.0
C1225 C 0.66435 0.59986 0.43756 0.0
C1226 C 0.76093 0.35846 0.01625 0.0
C1227 C 0.79197 0.35091 0.03169 0.0
H1228 H 0.72575 0.39615 0.0077 0.0
C1229 C 0.81113 0.37639 0.05137 0.0
H1230 H 0.74544 0.33945 0.00106 0.0
C1231 C 0.79975 0.4088 0.05502 0.0
C1232 C 0.76911 0.41632 0.03903 0.0
H1233 H 0.83511 0.37144 0.06365 0.0
H1234 H 0.81513 0.42822 0.06976 0.0
C1235 C 0.74966 0.39086 0.01989 0.0
C1236 C 0.21554 0.87636 0.60651 0.0
C1237 C 0.22443 0.84336 0.59866 0.0
H1238 H 0.23011 0.92905 0.60677 0.0
C1239 C 0.2568 0.83838 0.58791 0.0
H1240 H 0.19084 0.88106 0.61493 0.0
C1241 C 0.27928 0.8658 0.58389 0.0
C1242 C 0.2698 0.89872 0.5902 0.0
H1243 H 0.26461 0.81332 0.58199 0.0
H1244 H 0.30378 0.86143 0.57476 0.0
C1245 C 0.23801 0.90382 0.60215 0.0
C1246 C 0.32004 0.18664 0.02675 0.0
C1247 C 0.30316 0.21627 0.02281 0.0
H1248 H 0.317 0.13272 0.02138 0.0
C1249 C 0.26867 0.21359 0.01276 0.0
H1250 H 0.34659 0.18773 0.03448 0.0
C1251 C 0.25183 0.18202 0.00558 0.0
C1252 C 0.26909 0.15258 0.00828 0.0
H1253 H 0.25486 0.23585 0.00959 0.0
H1254 H 0.22547 0.1805 0.99707 0.0
C1255 C 0.30316 0.15511 0.0195 0.0
C1256 C 0.43747 0.63181 0.59413 0.0
C1257 C 0.44119 0.652 0.62437 0.0
H1258 H 0.43712 0.63008 0.54031 0.0
C1259 C 0.44524 0.68709 0.62282 0.0
H1260 H 0.43431 0.60471 0.59433 0.0
C1261 C 0.44653 0.7015 0.59175 0.0
C1262 C 0.44382 0.68114 0.56171 0.0
H1263 H 0.44807 0.70338 0.6456 0.0
H1264 H 0.45011 0.72852 0.5911 0.0
C1265 C 0.43885 0.64624 0.56316 0.0
C1266 C 0.0456 0.72905 0.3063 0.0
C1267 C 0.06432 0.70311 0.29311 0.0
H1268 H 0.02689 0.75247 0.35084 0.0
C1269 C 0.07714 0.67994 0.31473 0.0
H1270 H 0.03617 0.74786 0.29044 0.0
C1271 C 0.07172 0.68258 0.34893 0.0
C1272 C 0.0537 0.70867 0.36235 0.0
H1273 H 0.09191 0.65997 0.30521 0.0
H1274 H 0.08212 0.66463 0.3652 0.0
C1275 C 0.0404 0.7318 0.34079 0.0
C1276 C 0.61487 0.25506 0.89178 0.0
C1277 C 0.60649 0.26597 0.85963 0.0
H1278 H 0.61313 0.26486 0.94509 0.0
C1279 C 0.59411 0.29802 0.85701 0.0
H1280 H 0.62458 0.23058 0.89471 0.0
C1281 C 0.58782 0.31755 0.88588 0.0
C1282 C 0.59388 0.30548 0.91782 0.0
H1283 H 0.58758 0.30732 0.83268 0.0
H1284 H 0.57656 0.34135 0.88335 0.0
C1285 C 0.60855 0.27467 0.92064 0.0
C1286 C 0.00626 0.28284 0.19666 0.0
C1287 C 0.01717 0.31686 0.20317 0.0
H1288 H 0.99014 0.24356 0.15903 0.0
C1289 C 0.02164 0.33705 0.17584 0.0
H1290 H 0.00249 0.26661 0.21709 0.0
C1291 C 0.01454 0.32378 0.14285 0.0
C1292 C 0.00305 0.29008 0.13653 0.0
H1293 H 0.02992 0.36336 0.1799 0.0
H1294 H 0.01713 0.33998 0.12223 0.0
C1295 C -0.00082 0.26962 0.16359 0.0
loop_
_geom_bond_atom_site_label_1
_geom_bond_atom_site_label_2
_geom_bond_distance
_geom_bond_site_symmetry_2
_ccdc_geom_bond_type
O0 Cd1 2.300 . S
O0 C7 1.275 . S
Cd1 O0 2.300 . S
Cd1 O9 2.381 . S
Cd1 O10 2.378 . S
O2 Cd3 2.385 . S
O2 C7 1.255 . S
Cd3 O2 2.385 . S
Cd3 O4 2.317 . S
O4 Cd3 2.317 . S
O4 C5 1.232 . S
C5 O4 1.232 . S
C5 O6 1.218 . S
O6 C5 1.218 . S
C7 O0 1.275 . S
C7 O2 1.255 . S
C8 O9 1.258 . S
C8 O10 1.256 . S
O9 Cd1 2.381 . S
O9 C8 1.258 . S
O10 Cd1 2.378 . S
O10 C8 1.256 . S
O11 Cd12 2.300 . S
O11 C18 1.275 . S
Cd12 O11 2.300 . S
Cd12 O20 2.381 . S
Cd12 O21 2.378 . S
O13 Cd14 2.385 . S
O13 C18 1.255 . S
Cd14 O13 2.385 . S
Cd14 O15 2.317 . S
O15 Cd14 2.317 . S
O15 C16 1.232 . S
C16 O15 1.232 . S
C16 O17 1.218 . S
O17 C16 1.218 . S
C18 O11 1.275 . S
C18 O13 1.255 . S
C19 O20 1.258 . S
C19 O21 1.256 . S
O20 Cd12 2.381 . S
O20 C19 1.258 . S
O21 Cd12 2.378 . S
O21 C19 1.256 . S
O22 Cd23 2.300 1_545 S
O22 C29 1.275 1_545 S
Cd23 O22 2.300 1_565 S
Cd23 O31 2.381 1_565 S
Cd23 O32 2.378 . S
O24 Cd25 2.385 . S
O24 C29 1.255 . S
Cd25 O24 2.385 . S
Cd25 O26 2.317 . S
O26 Cd25 2.317 . S
O26 C27 1.232 . S
C27 O26 1.232 . S
C27 O28 1.218 . S
O28 C27 1.218 . S
C29 O22 1.275 1_565 S
C29 O24 1.255 . S
C30 O31 1.267 . S
C30 O32 1.242 1_545 S
O31 Cd23 2.381 1_545 S
O31 C30 1.267 . S
O32 Cd23 2.378 . S
O32 C30 1.242 1_565 S
O33 Cd34 2.300 1_565 S
O33 C40 1.275 1_565 S
Cd34 O33 2.300 1_545 S
Cd34 O42 2.381 1_545 S
Cd34 O43 2.378 . S
O35 Cd36 2.385 . S
O35 C40 1.255 . S
Cd36 O35 2.385 . S
Cd36 O37 2.317 . S
O37 Cd36 2.317 . S
O37 C38 1.232 . S
C38 O37 1.232 . S
C38 O39 1.218 . S
O39 C38 1.218 . S
C40 O33 1.275 1_545 S
C40 O35 1.255 . S
C41 O42 1.258 1_545 S
C41 O43 1.256 . S
O42 Cd34 2.381 1_565 S
O42 C41 1.258 1_565 S
O43 Cd34 2.378 . S
O43 C41 1.256 . S
O44 Cd45 2.300 . S
O44 C51 1.275 . S
Cd45 O44 2.300 . S
Cd45 O53 2.381 . S
Cd45 O54 2.378 . S
O46 Cd47 2.385 . S
O46 C51 1.255 . S
Cd47 O46 2.385 . S
Cd47 O48 2.317 . S
O48 Cd47 2.317 . S
O48 C49 1.232 . S
C49 O48 1.232 . S
C49 O50 1.218 . S
O50 C49 1.218 . S
C51 O44 1.275 . S
C51 O46 1.255 . S
C52 O53 1.258 . S
C52 O54 1.256 . S
O53 Cd45 2.381 . S
O53 C52 1.258 . S
O54 Cd45 2.378 . S
O54 C52 1.256 . S
O55 Cd56 2.300 1_556 S
O55 C62 1.275 1_556 S
Cd56 O55 2.300 1_554 S
Cd56 O64 2.381 1_554 S
Cd56 O65 2.378 . S
O57 Cd58 2.385 . S
O57 C62 1.255 . S
Cd58 O57 2.385 . S
Cd58 O59 2.317 . S
O59 Cd58 2.317 . S
O59 C60 1.232 . S
C60 O59 1.232 . S
C60 O61 1.218 . S
O61 C60 1.218 . S
C62 O55 1.275 1_554 S
C62 O57 1.255 . S
C63 O64 1.258 1_554 S
C63 O65 1.256 . S
O64 Cd56 2.381 1_556 S
O64 C63 1.258 1_556 S
O65 Cd56 2.378 . S
O65 C63 1.256 . S
O66 Cd67 2.300 . S
O66 C73 1.275 . S
Cd67 O66 2.300 . S
Cd67 O75 2.381 . S
Cd67 O76 2.378 . S
O68 Cd69 2.385 . S
O68 C73 1.255 . S
Cd69 O68 2.385 . S
Cd69 O70 2.317 . S
O70 Cd69 2.317 . S
O70 C71 1.232 . S
C71 O70 1.232 . S
C71 O72 1.218 . S
O72 C71 1.218 . S
C73 O66 1.275 . S
C73 O68 1.255 . S
C74 O75 1.258 . S
C74 O76 1.256 . S
O75 Cd67 2.381 . S
O75 C74 1.258 . S
O76 Cd67 2.378 . S
O76 C74 1.256 . S
O77 Cd78 2.300 1_554 S
O77 C84 1.275 1_554 S
Cd78 O77 2.300 1_556 S
Cd78 O86 2.381 1_556 S
Cd78 O87 2.378 . S
O79 Cd80 2.385 . S
O79 C84 1.255 . S
Cd80 O79 2.385 . S
Cd80 O81 2.317 . S
O81 Cd80 2.317 . S
O81 C82 1.232 . S
C82 O81 1.232 . S
C82 O83 1.218 . S
O83 C82 1.218 . S
C84 O77 1.275 1_556 S
C84 O79 1.255 . S
C85 O86 1.267 . S
C85 O87 1.242 1_554 S
O86 Cd78 2.381 1_554 S
O86 C85 1.267 . S
O87 Cd78 2.378 . S
O87 C85 1.242 1_556 S
O88 Cd89 2.300 . S
O88 C95 1.275 . S
Cd89 O88 2.300 . S
Cd89 O97 2.381 . S
Cd89 O98 2.378 . S
O90 Cd91 2.385 . S
O90 C95 1.255 . S
Cd91 O90 2.385 . S
Cd91 O92 2.317 . S
O92 Cd91 2.317 . S
O92 C93 1.232 . S
C93 O92 1.232 . S
C93 O94 1.218 . S
O94 C93 1.218 . S
C95 O88 1.275 . S
C95 O90 1.255 . S
C96 O97 1.258 . S
C96 O98 1.256 . S
O97 Cd89 2.381 . S
O97 C96 1.258 . S
O98 Cd89 2.378 . S
O98 C96 1.256 . S
O99 Cd100 2.300 1_655 S
O99 C106 1.275 1_655 S
Cd100 O99 2.300 1_455 S
Cd100 O108 2.381 1_455 S
Cd100 O109 2.378 . S
O101 Cd102 2.385 . S
O101 C106 1.255 . S
Cd102 O101 2.385 . S
Cd102 O103 2.317 . S
O103 Cd102 2.317 . S
O103 C104 1.232 . S
C104 O103 1.232 . S
C104 O105 1.218 . S
O105 C104 1.218 . S
C106 O99 1.275 1_455 S
C106 O101 1.255 . S
C107 O108 1.258 1_455 S
C107 O109 1.256 . S
O108 Cd100 2.381 1_655 S
O108 C107 1.258 1_655 S
O109 Cd100 2.378 . S
O109 C107 1.256 . S
O110 Cd111 2.300 . S
O110 C117 1.275 . S
Cd111 O110 2.300 . S
Cd111 O119 2.381 . S
Cd111 O120 2.378 . S
O112 Cd113 2.385 . S
O112 C117 1.255 . S
Cd113 O112 2.385 . S
Cd113 O114 2.317 . S
O114 Cd113 2.317 . S
O114 C115 1.232 . S
C115 O114 1.232 . S
C115 O116 1.218 . S
O116 C115 1.218 . S
C117 O110 1.275 . S
C117 O112 1.255 . S
C118 O119 1.258 . S
C118 O120 1.256 . S
O119 Cd111 2.381 . S
O119 C118 1.258 . S
O120 Cd111 2.378 . S
O120 C118 1.256 . S
O121 Cd122 2.300 1_455 S
O121 C128 1.275 1_455 S
Cd122 O121 2.300 1_655 S
Cd122 O130 2.381 1_655 S
Cd122 O131 2.378 . S
O123 Cd124 2.385 . S
O123 C128 1.255 . S
Cd124 O123 2.385 . S
Cd124 O125 2.317 . S
O125 Cd124 2.317 . S
O125 C126 1.232 . S
C126 O125 1.232 . S
C126 O127 1.218 . S
O127 C126 1.218 . S
C128 O121 1.275 1_655 S
C128 O123 1.255 . S
C129 O130 1.267 . S
C129 O131 1.242 1_455 S
O130 Cd122 2.381 1_455 S
O130 C129 1.267 . S
O131 Cd122 2.378 . S
O131 C129 1.242 1_655 S
O132 Cd133 2.300 . S
O132 C139 1.275 . S
Cd133 O132 2.300 . S
Cd133 O141 2.381 . S
Cd133 O142 2.378 . S
O134 Cd135 2.385 . S
O134 C139 1.255 . S
Cd135 O134 2.385 . S
Cd135 O136 2.317 . S
O136 Cd135 2.317 . S
O136 C137 1.232 . S
C137 O136 1.232 . S
C137 O138 1.218 . S
O138 C137 1.218 . S
C139 O132 1.275 . S
C139 O134 1.255 . S
C140 O141 1.258 . S
C140 O142 1.256 . S
O141 Cd133 2.381 . S
O141 C140 1.258 . S
O142 Cd133 2.378 . S
O142 C140 1.256 . S
O143 Cd144 2.300 . S
O143 C150 1.275 . S
Cd144 O143 2.300 . S
Cd144 O152 2.381 . S
Cd144 O153 2.378 . S
O145 Cd146 2.385 . S
O145 C150 1.255 . S
Cd146 O145 2.385 . S
Cd146 O147 2.317 . S
O147 Cd146 2.317 . S
O147 C148 1.232 . S
C148 O147 1.232 . S
C148 O149 1.218 . S
O149 C148 1.218 . S
C150 O143 1.275 . S
C150 O145 1.255 . S
C151 O152 1.258 . S
C151 O153 1.256 . S
O152 Cd144 2.381 . S
O152 C151 1.258 . S
O153 Cd144 2.378 . S
O153 C151 1.256 . S
O154 Cd155 2.300 1_545 S
O154 C161 1.275 1_545 S
Cd155 O154 2.300 1_565 S
Cd155 O163 2.381 1_565 S
Cd155 O164 2.378 . S
O156 Cd157 2.385 . S
O156 C161 1.255 . S
Cd157 O156 2.385 . S
Cd157 O158 2.317 . S
O158 Cd157 2.317 . S
O158 C159 1.232 . S
C159 O158 1.232 . S
C159 O160 1.218 . S
O160 C159 1.218 . S
C161 O154 1.275 1_565 S
C161 O156 1.255 . S
C162 O163 1.258 1_565 S
C162 O164 1.256 . S
O163 Cd155 2.381 1_545 S
O163 C162 1.258 1_545 S
O164 Cd155 2.378 . S
O164 C162 1.256 . S
O165 Cd166 2.300 1_565 S
O165 C172 1.275 1_565 S
Cd166 O165 2.300 1_545 S
Cd166 O174 2.381 1_545 S
Cd166 O175 2.378 . S
O167 Cd168 2.385 . S
O167 C172 1.255 . S
Cd168 O167 2.385 . S
Cd168 O169 2.317 . S
O169 Cd168 2.317 . S
O169 C170 1.232 . S
C170 O169 1.232 . S
C170 O171 1.218 . S
O171 C170 1.218 . S
C172 O165 1.275 1_545 S
C172 O167 1.255 . S
C173 O174 1.258 1_545 S
C173 O175 1.256 . S
O174 Cd166 2.381 1_565 S
O174 C173 1.258 1_565 S
O175 Cd166 2.378 . S
O175 C173 1.256 . S
O176 Cd177 2.300 . S
O176 C183 1.275 . S
Cd177 O176 2.300 . S
Cd177 O185 2.381 . S
Cd177 O186 2.378 . S
O178 Cd179 2.385 . S
O178 C183 1.255 . S
Cd179 O178 2.385 . S
Cd179 O180 2.317 . S
O180 Cd179 2.317 . S
O180 C181 1.232 . S
C181 O180 1.232 . S
C181 O182 1.218 . S
O182 C181 1.218 . S
C183 O176 1.275 . S
C183 O178 1.255 . S
C184 O185 1.258 . S
C184 O186 1.256 . S
O185 Cd177 2.381 . S
O185 C184 1.258 . S
O186 Cd177 2.378 . S
O186 C184 1.256 . S
O187 Cd188 2.300 1_556 S
O187 C194 1.275 1_556 S
Cd188 O187 2.300 1_554 S
Cd188 O196 2.381 1_554 S
Cd188 O197 2.378 . S
O189 Cd190 2.385 . S
O189 C194 1.255 . S
Cd190 O189 2.385 . S
Cd190 O191 2.317 . S
O191 Cd190 2.317 . S
O191 C192 1.232 . S
C192 O191 1.232 . S
C192 O193 1.218 . S
O193 C192 1.218 . S
C194 O187 1.275 1_554 S
C194 O189 1.255 . S
C195 O196 1.258 1_554 S
C195 O197 1.256 . S
O196 Cd188 2.381 1_556 S
O196 C195 1.258 1_556 S
O197 Cd188 2.378 . S
O197 C195 1.256 . S
O198 Cd199 2.300 . S
O198 C205 1.275 . S
Cd199 O198 2.300 . S
Cd199 O207 2.381 . S
Cd199 O208 2.378 . S
O200 Cd201 2.385 . S
O200 C205 1.255 . S
Cd201 O200 2.385 . S
Cd201 O202 2.317 . S
O202 Cd201 2.317 . S
O202 C203 1.232 . S
C203 O202 1.232 . S
C203 O204 1.218 . S
O204 C203 1.218 . S
C205 O198 1.275 . S
C205 O200 1.255 . S
C206 O207 1.258 . S
C206 O208 1.256 . S
O207 Cd199 2.381 . S
O207 C206 1.258 . S
O208 Cd199 2.378 . S
O208 C206 1.256 . S
O209 Cd210 2.300 1_554 S
O209 C216 1.275 1_554 S
Cd210 O209 2.300 1_556 S
Cd210 O218 2.381 1_556 S
Cd210 O219 2.378 . S
O211 Cd212 2.385 . S
O211 C216 1.255 . S
Cd212 O211 2.385 . S
Cd212 O213 2.317 . S
O213 Cd212 2.317 . S
O213 C214 1.232 . S
C214 O213 1.232 . S
C214 O215 1.218 . S
O215 C214 1.218 . S
C216 O209 1.275 1_556 S
C216 O211 1.255 . S
C217 O218 1.258 1_556 S
C217 O219 1.256 . S
O218 Cd210 2.381 1_554 S
O218 C217 1.258 1_554 S
O219 Cd210 2.378 . S
O219 C217 1.256 . S
O220 Cd221 2.300 . S
O220 C227 1.275 . S
Cd221 O220 2.300 . S
Cd221 O229 2.381 . S
Cd221 O230 2.378 . S
O222 Cd223 2.385 . S
O222 C227 1.255 . S
Cd223 O222 2.385 . S
Cd223 O224 2.317 . S
O224 Cd223 2.317 . S
O224 C225 1.232 . S
C225 O224 1.232 . S
C225 O226 1.218 . S
O226 C225 1.218 . S
C227 O220 1.275 . S
C227 O222 1.255 . S
C228 O229 1.258 . S
C228 O230 1.256 . S
O229 Cd221 2.381 . S
O229 C228 1.258 . S
O230 Cd221 2.378 . S
O230 C228 1.256 . S
O231 Cd232 2.300 1_655 S
O231 C238 1.275 1_655 S
Cd232 O231 2.300 1_455 S
Cd232 O240 2.381 1_455 S
Cd232 O241 2.378 . S
O233 Cd234 2.385 . S
O233 C238 1.255 . S
Cd234 O233 2.385 . S
Cd234 O235 2.317 . S
O235 Cd234 2.317 . S
O235 C236 1.232 . S
C236 O235 1.232 . S
C236 O237 1.218 . S
O237 C236 1.218 . S
C238 O231 1.275 1_455 S
C238 O233 1.255 . S
C239 O240 1.258 1_455 S
C239 O241 1.256 . S
O240 Cd232 2.381 1_655 S
O240 C239 1.258 1_655 S
O241 Cd232 2.378 . S
O241 C239 1.256 . S
O242 Cd243 2.300 . S
O242 C249 1.275 . S
Cd243 O242 2.300 . S
Cd243 O251 2.381 . S
Cd243 O252 2.378 . S
O244 Cd245 2.385 . S
O244 C249 1.255 . S
Cd245 O244 2.385 . S
Cd245 O246 2.317 . S
O246 Cd245 2.317 . S
O246 C247 1.232 . S
C247 O246 1.232 . S
C247 O248 1.218 . S
O248 C247 1.218 . S
C249 O242 1.275 . S
C249 O244 1.255 . S
C250 O251 1.258 . S
C250 O252 1.256 . S
O251 Cd243 2.381 . S
O251 C250 1.258 . S
O252 Cd243 2.378 . S
O252 C250 1.256 . S
O253 Cd254 2.300 1_455 S
O253 C260 1.275 1_455 S
Cd254 O253 2.300 1_655 S
Cd254 O262 2.381 1_655 S
Cd254 O263 2.378 . S
O255 Cd256 2.385 . S
O255 C260 1.255 . S
Cd256 O255 2.385 . S
Cd256 O257 2.317 . S
O257 Cd256 2.317 . S
O257 C258 1.232 . S
C258 O257 1.232 . S
C258 O259 1.218 . S
O259 C258 1.218 . S
C260 O253 1.275 1_655 S
C260 O255 1.255 . S
C261 O262 1.258 1_655 S
C261 O263 1.256 . S
O262 Cd254 2.381 1_455 S
O262 C261 1.258 1_455 S
O263 Cd254 2.378 . S
O263 C261 1.256 . S
C264 N265 1.317 . S
C264 N266 1.348 . S
C264 C267 1.485 . S
N265 C264 1.317 . S
N265 N269 1.370 . S
N266 C264 1.348 . S
N266 C268 1.346 . S
C267 C264 1.485 . S
C267 H271 0.960 . S
C267 H272 0.961 . S
C267 H273 0.960 . S
C268 N266 1.346 . S
C268 N269 1.307 . S
C268 C270 1.486 . S
N269 N265 1.370 . S
N269 C268 1.307 . S
C270 C268 1.486 . S
C270 H274 0.960 . S
C270 H275 0.960 . S
C270 H276 0.959 . S
H271 C267 0.960 . S
H272 C267 0.961 . S
H273 C267 0.960 . S
H274 C270 0.960 . S
H275 C270 0.960 . S
H276 C270 0.959 . S
C277 N278 1.317 . S
C277 N279 1.348 . S
C277 C280 1.485 1_556 S
N278 C277 1.317 . S
N278 N282 1.370 . S
N279 C277 1.348 . S
N279 C281 1.346 . S
C280 C277 1.485 1_554 S
C280 H284 0.960 . S
C280 H285 0.961 . S
C280 H286 0.960 . S
C281 N279 1.346 . S
C281 N282 1.307 . S
C281 C283 1.486 . S
N282 N278 1.370 . S
N282 C281 1.307 . S
C283 C281 1.486 . S
C283 H287 0.960 . S
C283 H288 0.960 . S
C283 H289 0.959 . S
H284 C280 0.960 . S
H285 C280 0.961 . S
H286 C280 0.960 . S
H287 C283 0.960 . S
H288 C283 0.960 . S
H289 C283 0.959 . S
C290 N291 1.317 . S
C290 N292 1.348 . S
C290 C293 1.485 . S
N291 C290 1.317 . S
N291 N295 1.370 . S
N292 C290 1.348 . S
N292 C294 1.346 . S
C293 C290 1.485 . S
C293 H297 0.960 . S
C293 H298 0.961 . S
C293 H299 0.968 . S
C294 N292 1.346 . S
C294 N295 1.307 . S
C294 C296 1.486 . S
N295 N291 1.370 . S
N295 C294 1.307 . S
C296 C294 1.486 . S
C296 H300 0.960 . S
C296 H301 0.960 . S
C296 H302 0.959 . S
H297 C293 0.960 . S
H298 C293 0.961 . S
H299 C293 0.968 . S
H300 C296 0.960 . S
H301 C296 0.960 . S
H302 C296 0.959 . S
C303 N304 1.317 . S
C303 N305 1.348 . S
C303 C306 1.485 1_554 S
N304 C303 1.317 . S
N304 N308 1.370 . S
N305 C303 1.348 . S
N305 C307 1.346 . S
C306 C303 1.485 1_556 S
C306 H310 0.960 . S
C306 H311 0.961 . S
C306 H312 0.960 . S
C307 N305 1.346 . S
C307 N308 1.307 . S
C307 C309 1.486 . S
N308 N304 1.370 . S
N308 C307 1.307 . S
C309 C307 1.486 . S
C309 H313 0.960 . S
C309 H314 0.960 . S
C309 H315 0.959 . S
H310 C306 0.960 . S
H311 C306 0.961 . S
H312 C306 0.960 . S
H313 C309 0.960 . S
H314 C309 0.960 . S
H315 C309 0.959 . S
C316 N317 1.317 . S
C316 N318 1.348 . S
C316 C319 1.485 . S
N317 C316 1.317 . S
N317 N321 1.370 . S
N318 C316 1.348 . S
N318 C320 1.346 . S
C319 C316 1.485 . S
C319 H323 0.960 . S
C319 H324 0.961 . S
C319 H325 0.960 . S
C320 N318 1.346 . S
C320 N321 1.307 . S
C320 C322 1.486 . S
N321 N317 1.370 . S
N321 C320 1.307 . S
C322 C320 1.486 . S
C322 H326 0.960 . S
C322 H327 0.960 . S
C322 H328 0.959 . S
H323 C319 0.960 . S
H324 C319 0.961 . S
H325 C319 0.960 . S
H326 C322 0.960 . S
H327 C322 0.960 . S
H328 C322 0.959 . S
C329 N330 1.317 . S
C329 N331 1.348 . S
C329 C332 1.485 1_455 S
N330 C329 1.317 . S
N330 N334 1.370 . S
N331 C329 1.348 . S
N331 C333 1.346 . S
C332 C329 1.485 1_655 S
C332 H336 0.960 . S
C332 H337 0.961 . S
C332 H338 0.960 . S
C333 N331 1.346 . S
C333 N334 1.307 . S
C333 C335 1.486 . S
N334 N330 1.370 . S
N334 C333 1.307 . S
C335 C333 1.486 . S
C335 H339 0.960 . S
C335 H340 0.960 . S
C335 H341 0.959 . S
H336 C332 0.960 . S
H337 C332 0.961 . S
H338 C332 0.960 . S
H339 C335 0.960 . S
H340 C335 0.960 . S
H341 C335 0.959 . S
C342 N343 1.317 . S
C342 N344 1.348 . S
C342 C345 1.485 1_655 S
N343 C342 1.317 . S
N343 N347 1.370 . S
N344 C342 1.348 . S
N344 C346 1.346 . S
C345 C342 1.485 1_455 S
C345 H349 0.960 . S
C345 H350 0.961 . S
C345 H351 0.960 . S
C346 N344 1.346 . S
C346 N347 1.307 . S
C346 C348 1.486 . S
N347 N343 1.370 . S
N347 C346 1.307 . S
C348 C346 1.486 . S
C348 H352 0.960 . S
C348 H353 0.960 . S
C348 H354 0.959 . S
H349 C345 0.960 . S
H350 C345 0.961 . S
H351 C345 0.960 . S
H352 C348 0.960 . S
H353 C348 0.960 . S
H354 C348 0.959 . S
C355 N356 1.317 . S
C355 N357 1.348 . S
C355 C358 1.485 . S
N356 C355 1.317 . S
N356 N360 1.370 . S
N357 C355 1.348 . S
N357 C359 1.346 . S
C358 C355 1.485 . S
C358 H362 0.960 . S
C358 H363 0.961 . S
C358 H364 0.968 . S
C359 N357 1.346 . S
C359 N360 1.307 . S
C359 C361 1.486 . S
N360 N356 1.370 . S
N360 C359 1.307 . S
C361 C359 1.486 . S
C361 H365 0.960 . S
C361 H366 0.960 . S
C361 H367 0.959 . S
H362 C358 0.960 . S
H363 C358 0.961 . S
H364 C358 0.968 . S
H365 C361 0.960 . S
H366 C361 0.960 . S
H367 C361 0.959 . S
C368 N369 1.317 . S
C368 N370 1.348 . S
C368 C371 1.485 . S
N369 C368 1.317 . S
N369 N373 1.370 . S
N370 C368 1.348 . S
N370 C372 1.346 . S
C371 C368 1.485 . S
C371 H375 0.960 . S
C371 H376 0.961 . S
C371 H377 0.960 . S
C372 N370 1.346 . S
C372 N373 1.307 . S
C372 C374 1.486 . S
N373 N369 1.370 . S
N373 C372 1.307 . S
C374 C372 1.486 . S
C374 H378 0.960 . S
C374 H379 0.960 . S
C374 H380 0.959 . S
H375 C371 0.960 . S
H376 C371 0.961 . S
H377 C371 0.960 . S
H378 C374 0.960 . S
H379 C374 0.960 . S
H380 C374 0.959 . S
C381 N382 1.317 . S
C381 N383 1.348 . S
C381 C384 1.485 1_545 S
N382 C381 1.317 . S
N382 N386 1.370 . S
N383 C381 1.348 . S
N383 C385 1.346 . S
C384 C381 1.485 1_565 S
C384 H388 0.960 . S
C384 H389 0.961 . S
C384 H390 0.960 . S
C385 N383 1.346 . S
C385 N386 1.307 . S
C385 C387 1.486 . S
N386 N382 1.370 . S
N386 C385 1.307 . S
C387 C385 1.486 . S
C387 H391 0.960 . S
C387 H392 0.960 . S
C387 H393 0.959 . S
H388 C384 0.960 . S
H389 C384 0.961 . S
H390 C384 0.960 . S
H391 C387 0.960 . S
H392 C387 0.960 . S
H393 C387 0.959 . S
C394 N395 1.317 . S
C394 N396 1.348 . S
C394 C397 1.485 1_565 S
N395 C394 1.317 . S
N395 N399 1.370 . S
N396 C394 1.348 . S
N396 C398 1.346 . S
C397 C394 1.485 1_545 S
C397 H401 0.960 . S
C397 H402 0.961 . S
C397 H403 0.960 . S
C398 N396 1.346 . S
C398 N399 1.307 . S
C398 C400 1.486 . S
N399 N395 1.370 . S
N399 C398 1.307 . S
C400 C398 1.486 . S
C400 H404 0.960 . S
C400 H405 0.960 . S
C400 H406 0.959 . S
H401 C397 0.960 . S
H402 C397 0.961 . S
H403 C397 0.960 . S
H404 C400 0.960 . S
H405 C400 0.960 . S
H406 C400 0.959 . S
C407 N408 1.317 . S
C407 N409 1.348 . S
C407 C410 1.485 . S
N408 C407 1.317 . S
N408 N412 1.370 . S
N409 C407 1.348 . S
N409 C411 1.346 . S
C410 C407 1.485 . S
C410 H414 0.960 . S
C410 H415 0.961 . S
C410 H416 0.969 . S
C411 N409 1.346 . S
C411 N412 1.307 . S
C411 C413 1.486 . S
N412 N408 1.370 . S
N412 C411 1.307 . S
C413 C411 1.486 . S
C413 H417 0.960 . S
C413 H418 0.960 . S
C413 H419 0.959 . S
H414 C410 0.960 . S
H415 C410 0.961 . S
H416 C410 0.969 . S
H417 C413 0.960 . S
H418 C413 0.960 . S
H419 C413 0.959 . S
C420 N421 1.317 . S
C420 N422 1.348 . S
C420 C423 1.485 . S
N421 C420 1.317 . S
N421 N425 1.370 . S
N422 C420 1.348 . S
N422 C424 1.346 . S
C423 C420 1.485 . S
C423 H427 0.960 . S
C423 H428 0.961 . S
C423 H429 0.960 . S
C424 N422 1.346 . S
C424 N425 1.307 . S
C424 C426 1.486 . S
N425 N421 1.370 . S
N425 C424 1.307 . S
C426 C424 1.486 . S
C426 H430 0.960 . S
C426 H431 0.960 . S
C426 H432 0.959 . S
H427 C423 0.960 . S
H428 C423 0.961 . S
H429 C423 0.960 . S
H430 C426 0.960 . S
H431 C426 0.960 . S
H432 C426 0.959 . S
C433 N434 1.317 . S
C433 N435 1.348 . S
C433 C436 1.485 1_554 S
N434 C433 1.317 . S
N434 N438 1.370 . S
N435 C433 1.348 . S
N435 C437 1.346 . S
C436 C433 1.485 1_556 S
C436 H440 0.960 . S
C436 H441 0.961 . S
C436 H442 0.960 . S
C437 N435 1.346 . S
C437 N438 1.307 . S
C437 C439 1.486 . S
N438 N434 1.370 . S
N438 C437 1.307 . S
C439 C437 1.486 . S
C439 H443 0.960 . S
C439 H444 0.960 . S
C439 H445 0.959 . S
H440 C436 0.960 . S
H441 C436 0.961 . S
H442 C436 0.960 . S
H443 C439 0.960 . S
H444 C439 0.960 . S
H445 C439 0.959 . S
C446 N447 1.317 . S
C446 N448 1.348 . S
C446 C449 1.485 . S
N447 C446 1.317 . S
N447 N451 1.370 . S
N448 C446 1.348 . S
N448 C450 1.346 . S
C449 C446 1.485 . S
C449 H453 0.960 . S
C449 H454 0.961 . S
C449 H455 0.960 1_565 S
C450 N448 1.346 . S
C450 N451 1.307 . S
C450 C452 1.486 . S
N451 N447 1.370 . S
N451 C450 1.307 . S
C452 C450 1.486 . S
C452 H456 0.960 . S
C452 H457 0.960 . S
C452 H458 0.959 . S
H453 C449 0.960 . S
H454 C449 0.961 . S
H455 C449 0.960 1_545 S
H456 C452 0.960 . S
H457 C452 0.960 . S
H458 C452 0.959 . S
C459 N460 1.317 . S
C459 N461 1.348 . S
C459 C462 1.485 1_556 S
N460 C459 1.317 . S
N460 N464 1.370 . S
N461 C459 1.348 . S
N461 C463 1.346 . S
C462 C459 1.485 1_554 S
C462 H466 0.960 . S
C462 H467 0.961 . S
C462 H468 0.960 . S
C463 N461 1.346 . S
C463 N464 1.307 . S
C463 C465 1.486 . S
N464 N460 1.370 . S
N464 C463 1.307 . S
C465 C463 1.486 . S
C465 H469 0.960 . S
C465 H470 0.960 . S
C465 H471 0.959 . S
H466 C462 0.960 . S
H467 C462 0.961 . S
H468 C462 0.960 . S
H469 C465 0.960 . S
H470 C465 0.960 . S
H471 C465 0.959 . S
C472 N473 1.317 . S
C472 N474 1.348 . S
C472 C475 1.485 . S
N473 C472 1.317 . S
N473 N477 1.370 . S
N474 C472 1.348 . S
N474 C476 1.346 . S
C475 C472 1.485 . S
C475 H479 0.960 . S
C475 H480 0.961 . S
C475 H481 0.960 . S
C476 N474 1.346 . S
C476 N477 1.307 . S
C476 C478 1.486 . S
N477 N473 1.370 . S
N477 C476 1.307 . S
C478 C476 1.486 . S
C478 H482 0.960 . S
C478 H483 0.960 . S
C478 H484 0.959 . S
H479 C475 0.960 . S
H480 C475 0.961 . S
H481 C475 0.960 . S
H482 C478 0.960 . S
H483 C478 0.960 . S
H484 C478 0.959 . S
C485 N486 1.317 . S
C485 N487 1.348 . S
C485 C488 1.485 1_655 S
N486 C485 1.317 . S
N486 N490 1.370 . S
N487 C485 1.348 . S
N487 C489 1.346 . S
C488 C485 1.485 1_455 S
C488 H492 0.960 . S
C488 H493 0.961 . S
C488 H494 0.960 . S
C489 N487 1.346 . S
C489 N490 1.307 . S
C489 C491 1.486 . S
N490 N486 1.370 . S
N490 C489 1.307 . S
C491 C489 1.486 . S
C491 H495 0.960 . S
C491 H496 0.960 . S
C491 H497 0.959 . S
H492 C488 0.960 . S
H493 C488 0.961 . S
H494 C488 0.960 . S
H495 C491 0.960 . S
H496 C491 0.960 . S
H497 C491 0.959 . S
C498 N499 1.317 . S
C498 N500 1.348 . S
C498 C501 1.485 1_455 S
N499 C498 1.317 . S
N499 N503 1.370 . S
N500 C498 1.348 . S
N500 C502 1.346 . S
C501 C498 1.485 1_655 S
C501 H505 0.960 . S
C501 H506 0.961 . S
C501 H507 0.960 . S
C502 N500 1.346 . S
C502 N503 1.307 . S
C502 C504 1.486 . S
N503 N499 1.370 . S
N503 C502 1.307 . S
C504 C502 1.486 . S
C504 H508 0.960 . S
C504 H509 0.960 . S
C504 H510 0.959 . S
H505 C501 0.960 . S
H506 C501 0.961 . S
H507 C501 0.960 . S
H508 C504 0.960 . S
H509 C504 0.960 . S
H510 C504 0.959 . S
C511 N512 1.317 . S
C511 N513 1.348 . S
C511 C514 1.485 . S
N512 C511 1.317 . S
N512 N516 1.370 . S
N513 C511 1.348 . S
N513 C515 1.346 . S
C514 C511 1.485 . S
C514 H518 0.960 . S
C514 H519 0.961 . S
C514 H520 0.960 1_556 S
C515 N513 1.346 . S
C515 N516 1.307 . S
C515 C517 1.486 . S
N516 N512 1.370 . S
N516 C515 1.307 . S
C517 C515 1.486 . S
C517 H521 0.960 . S
C517 H522 0.960 . S
C517 H523 0.959 . S
H518 C514 0.960 . S
H519 C514 0.961 . S
H520 C514 0.960 1_554 S
H521 C517 0.960 . S
H522 C517 0.960 . S
H523 C517 0.959 . S
C524 N525 1.317 . S
C524 N526 1.348 . S
C524 C527 1.485 . S
N525 C524 1.317 . S
N525 N529 1.370 . S
N526 C524 1.348 . S
N526 C528 1.346 . S
C527 C524 1.485 . S
C527 H531 0.960 . S
C527 H532 0.961 . S
C527 H533 0.960 . S
C528 N526 1.346 . S
C528 N529 1.307 . S
C528 C530 1.486 . S
N529 N525 1.370 . S
N529 C528 1.307 . S
C530 C528 1.486 . S
C530 H534 0.960 . S
C530 H535 0.960 . S
C530 H536 0.959 . S
H531 C527 0.960 . S
H532 C527 0.961 . S
H533 C527 0.960 . S
H534 C530 0.960 . S
H535 C530 0.960 . S
H536 C530 0.959 . S
C537 N538 1.317 . S
C537 N539 1.348 . S
C537 C540 1.485 1_565 S
N538 C537 1.317 . S
N538 N542 1.370 . S
N539 C537 1.348 . S
N539 C541 1.346 . S
C540 C537 1.485 1_545 S
C540 H544 0.960 . S
C540 H545 0.961 . S
C540 H546 0.960 . S
C541 N539 1.346 . S
C541 N542 1.307 . S
C541 C543 1.486 . S
N542 N538 1.370 . S
N542 C541 1.307 . S
C543 C541 1.486 . S
C543 H547 0.960 . S
C543 H548 0.960 . S
C543 H549 0.959 . S
H544 C540 0.960 . S
H545 C540 0.961 . S
H546 C540 0.960 . S
H547 C543 0.960 . S
H548 C543 0.960 . S
H549 C543 0.959 . S
C550 N551 1.317 . S
C550 N552 1.348 . S
C550 C553 1.485 1_545 S
N551 C550 1.317 . S
N551 N555 1.370 . S
N552 C550 1.348 . S
N552 C554 1.346 . S
C553 C550 1.485 1_565 S
C553 H557 0.960 . S
C553 H558 0.961 . S
C553 H559 0.960 . S
C554 N552 1.346 . S
C554 N555 1.307 . S
C554 C556 1.486 . S
N555 N551 1.370 . S
N555 C554 1.307 . S
C556 C554 1.486 . S
C556 H560 0.960 . S
C556 H561 0.960 . S
C556 H562 0.959 . S
H557 C553 0.960 . S
H558 C553 0.961 . S
H559 C553 0.960 . S
H560 C556 0.960 . S
H561 C556 0.960 . S
H562 C556 0.959 . S
C563 N564 1.317 . S
C563 N565 1.348 . S
C563 C566 1.485 . S
N564 C563 1.317 . S
N564 N568 1.370 . S
N565 C563 1.348 . S
N565 C567 1.346 . S
C566 C563 1.485 . S
C566 H570 0.960 . S
C566 H571 0.961 . S
C566 H572 0.960 1_655 S
C567 N565 1.346 . S
C567 N568 1.307 . S
C567 C569 1.486 . S
N568 N564 1.370 . S
N568 C567 1.307 . S
C569 C567 1.486 . S
C569 H573 0.960 . S
C569 H574 0.960 . S
C569 H575 0.959 . S
H570 C566 0.960 . S
H571 C566 0.961 . S
H572 C566 0.960 1_455 S
H573 C569 0.960 . S
H574 C569 0.960 . S
H575 C569 0.959 . S
C576 C577 1.387 . S
C576 H580 0.950 . S
C576 C585 1.390 . S
C577 C576 1.387 . S
C577 C579 1.387 . S
H578 C585 0.950 . S
C579 C577 1.387 . S
C579 C581 1.390 . S
C579 H583 0.950 . S
H580 C576 0.950 . S
C581 C579 1.390 . S
C581 C582 1.387 . S
C581 H584 0.950 . S
C582 C581 1.387 . S
C582 C585 1.387 . S
H583 C579 0.950 . S
H584 C581 0.950 . S
C585 C576 1.390 . S
C585 H578 0.950 . S
C585 C582 1.387 . S
C586 C587 1.387 . S
C586 H590 0.950 . S
C586 C595 1.390 . S
C587 C586 1.387 . S
C587 C589 1.387 . S
H588 C595 0.950 . S
C589 C587 1.387 . S
C589 C591 1.390 . S
C589 H593 0.950 . S
H590 C586 0.950 . S
C591 C589 1.390 . S
C591 C592 1.387 . S
C591 H594 0.950 . S
C592 C591 1.387 . S
C592 C595 1.387 . S
H593 C589 0.950 . S
H594 C591 0.950 . S
C595 C586 1.390 . S
C595 H588 0.950 . S
C595 C592 1.387 . S
C596 C597 1.387 . S
C596 H600 0.950 . S
C596 C605 1.390 . S
C597 C596 1.387 . S
C597 C599 1.387 . S
H598 C605 0.950 . S
C599 C597 1.387 . S
C599 C601 1.390 . S
C599 H603 0.950 1_545 S
H600 C596 0.950 . S
C601 C599 1.390 . S
C601 C602 1.387 . S
C601 H604 0.950 . S
C602 C601 1.387 . S
C602 C605 1.387 . S
H603 C599 0.950 1_565 S
H604 C601 0.950 . S
C605 C596 1.390 . S
C605 H598 0.950 . S
C605 C602 1.387 . S
C606 C607 1.387 . S
C606 H610 0.950 . S
C606 C615 1.390 . S
C607 C606 1.387 . S
C607 C609 1.387 1_565 S
H608 C615 0.950 . S
C609 C607 1.387 1_545 S
C609 C611 1.390 1_545 S
C609 H613 0.950 . S
H610 C606 0.950 . S
C611 C609 1.390 1_565 S
C611 C612 1.387 . S
C611 H614 0.950 . S
C612 C611 1.387 . S
C612 C615 1.387 . S
H613 C609 0.950 . S
H614 C611 0.950 . S
C615 C606 1.390 . S
C615 H608 0.950 . S
C615 C612 1.387 . S
C616 C617 1.387 . S
C616 H620 0.950 . S
C616 C625 1.390 . S
C617 C616 1.387 . S
C617 C619 1.387 . S
H618 C625 0.950 . S
C619 C617 1.387 . S
C619 C621 1.390 . S
C619 H623 0.950 . S
H620 C616 0.950 . S
C621 C619 1.390 . S
C621 C622 1.387 . S
C621 H624 0.950 . S
C622 C621 1.387 . S
C622 C625 1.387 . S
H623 C619 0.950 . S
H624 C621 0.950 . S
C625 C616 1.390 . S
C625 H618 0.950 . S
C625 C622 1.387 . S
C626 C627 1.387 . S
C626 H630 0.950 . S
C626 C635 1.390 . S
C627 C626 1.387 . S
C627 C629 1.387 1_556 S
H628 C635 0.950 . S
C629 C627 1.387 1_554 S
C629 C631 1.390 1_554 S
C629 H633 0.950 . S
H630 C626 0.950 . S
C631 C629 1.390 1_556 S
C631 C632 1.387 . S
C631 H634 0.950 1_566 S
C632 C631 1.387 . S
C632 C635 1.387 . S
H633 C629 0.950 . S
H634 C631 0.950 1_544 S
C635 C626 1.390 . S
C635 H628 0.950 . S
C635 C632 1.387 . S
C636 C637 1.387 . S
C636 H640 0.950 . S
C636 C645 1.390 . S
C637 C636 1.387 . S
C637 C639 1.387 . S
H638 C645 0.950 . S
C639 C637 1.387 . S
C639 C641 1.390 . S
C639 H643 0.950 . S
H640 C636 0.950 . S
C641 C639 1.390 . S
C641 C642 1.387 . S
C641 H644 0.950 . S
C642 C641 1.387 . S
C642 C645 1.387 . S
H643 C639 0.950 . S
H644 C641 0.950 . S
C645 C636 1.390 . S
C645 H638 0.950 . S
C645 C642 1.387 . S
C646 C647 1.387 1_556 S
C646 H650 0.950 . S
C646 C655 1.399 . S
C647 C646 1.387 1_554 S
C647 C649 1.387 . S
H648 C655 0.965 . S
C649 C647 1.387 . S
C649 C651 1.390 . S
C649 H653 0.950 . S
H650 C646 0.950 . S
C651 C649 1.390 . S
C651 C652 1.387 . S
C651 H654 0.950 . S
C652 C651 1.387 . S
C652 C655 1.364 1_554 S
H653 C649 0.950 . S
H654 C651 0.950 . S
C655 C646 1.399 . S
C655 H648 0.965 . S
C655 C652 1.364 1_556 S
C656 C657 1.387 . S
C656 H660 0.950 . S
C656 C665 1.390 . S
C657 C656 1.387 . S
C657 C659 1.387 . S
H658 C665 0.950 . S
C659 C657 1.387 . S
C659 C661 1.390 . S
C659 H663 0.950 . S
H660 C656 0.950 . S
C661 C659 1.390 . S
C661 C662 1.387 . S
C661 H664 0.950 . S
C662 C661 1.387 . S
C662 C665 1.387 . S
H663 C659 0.950 . S
H664 C661 0.950 . S
C665 C656 1.390 . S
C665 H658 0.950 . S
C665 C662 1.387 . S
C666 C667 1.387 1_455 S
C666 H670 0.950 . S
C666 C675 1.390 1_455 S
C667 C666 1.387 1_655 S
C667 C669 1.387 . S
H668 C675 0.950 1_455 S
C669 C667 1.387 . S
C669 C671 1.390 . S
C669 H673 0.950 . S
H670 C666 0.950 . S
C671 C669 1.390 . S
C671 C672 1.387 . S
C671 H674 0.950 . S
C672 C671 1.387 . S
C672 C675 1.387 . S
H673 C669 0.950 . S
H674 C671 0.950 . S
C675 C666 1.390 1_655 S
C675 H668 0.950 1_655 S
C675 C672 1.387 . S
C676 C677 1.387 . S
C676 H680 0.950 . S
C676 C685 1.390 . S
C677 C676 1.387 . S
C677 C679 1.387 . S
H678 C685 0.950 . S
C679 C677 1.387 . S
C679 C681 1.390 . S
C679 H683 0.950 . S
H680 C676 0.950 . S
C681 C679 1.390 . S
C681 C682 1.387 . S
C681 H684 0.950 . S
C682 C681 1.387 . S
C682 C685 1.387 . S
H683 C679 0.950 . S
H684 C681 0.950 . S
C685 C676 1.390 . S
C685 H678 0.950 . S
C685 C682 1.387 . S
C686 C687 1.387 . S
C686 H690 0.950 . S
C686 C695 1.390 . S
C687 C686 1.387 . S
C687 C689 1.387 . S
H688 C695 0.950 . S
C689 C687 1.387 . S
C689 C691 1.390 . S
C689 H693 0.950 1_455 S
H690 C686 0.950 . S
C691 C689 1.390 . S
C691 C692 1.387 . S
C691 H694 0.950 . S
C692 C691 1.387 . S
C692 C695 1.387 . S
H693 C689 0.950 1_655 S
H694 C691 0.950 . S
C695 C686 1.390 . S
C695 H688 0.950 . S
C695 C692 1.387 . S
C696 C697 1.387 . S
C696 H700 0.950 . S
C696 C705 1.390 . S
C697 C696 1.387 . S
C697 C699 1.387 . S
H698 C705 0.950 . S
C699 C697 1.387 . S
C699 C701 1.390 . S
C699 H703 0.950 . S
H700 C696 0.950 . S
C701 C699 1.390 . S
C701 C702 1.387 . S
C701 H704 0.950 . S
C702 C701 1.387 . S
C702 C705 1.387 . S
H703 C699 0.950 . S
H704 C701 0.950 . S
C705 C696 1.390 . S
C705 H698 0.950 . S
C705 C702 1.387 . S
C706 C707 1.387 . S
C706 H710 0.950 . S
C706 C715 1.390 . S
C707 C706 1.387 . S
C707 C709 1.387 . S
H708 C715 0.950 . S
C709 C707 1.387 . S
C709 C711 1.390 . S
C709 H713 0.950 . S
H710 C706 0.950 . S
C711 C709 1.390 . S
C711 C712 1.387 . S
C711 H714 0.950 . S
C712 C711 1.387 . S
C712 C715 1.387 . S
H713 C709 0.950 . S
H714 C711 0.950 . S
C715 C706 1.390 . S
C715 H708 0.950 . S
C715 C712 1.387 . S
C716 C717 1.387 . S
C716 H720 0.950 . S
C716 C725 1.390 . S
C717 C716 1.387 . S
C717 C719 1.387 . S
H718 C725 0.950 . S
C719 C717 1.387 . S
C719 C721 1.390 . S
C719 H723 0.950 1_565 S
H720 C716 0.950 . S
C721 C719 1.390 . S
C721 C722 1.387 . S
C721 H724 0.950 . S
C722 C721 1.387 . S
C722 C725 1.387 . S
H723 C719 0.950 1_545 S
H724 C721 0.950 . S
C725 C716 1.390 . S
C725 H718 0.950 . S
C725 C722 1.387 . S
C726 C727 1.387 . S
C726 H730 0.950 1_545 S
C726 C735 1.390 . S
C727 C726 1.387 . S
C727 C729 1.387 . S
H728 C735 0.950 . S
C729 C727 1.387 . S
C729 C731 1.390 . S
C729 H733 0.950 . S
H730 C726 0.950 1_565 S
C731 C729 1.390 . S
C731 C732 1.387 . S
C731 H734 0.950 . S
C732 C731 1.387 . S
C732 C735 1.387 . S
H733 C729 0.950 . S
H734 C731 0.950 . S
C735 C726 1.390 . S
C735 H728 0.950 . S
C735 C732 1.387 . S
C736 C737 1.387 . S
C736 H740 0.950 . S
C736 C745 1.390 . S
C737 C736 1.387 . S
C737 C739 1.387 . S
H738 C745 0.950 . S
C739 C737 1.387 . S
C739 C741 1.390 . S
C739 H743 0.950 . S
H740 C736 0.950 . S
C741 C739 1.390 . S
C741 C742 1.387 . S
C741 H744 0.950 . S
C742 C741 1.387 . S
C742 C745 1.387 . S
H743 C739 0.950 . S
H744 C741 0.950 . S
C745 C736 1.390 . S
C745 H738 0.950 . S
C745 C742 1.387 . S
C746 C747 1.387 1_556 S
C746 H750 0.955 . S
C746 C755 1.385 1_556 S
C747 C746 1.387 1_554 S
C747 C749 1.387 . S
H748 C755 0.950 1_565 S
C749 C747 1.387 . S
C749 C751 1.390 . S
C749 H753 0.950 . S
H750 C746 0.955 . S
C751 C749 1.390 . S
C751 C752 1.387 . S
C751 H754 0.950 . S
C752 C751 1.387 . S
C752 C755 1.387 . S
H753 C749 0.950 . S
H754 C751 0.950 . S
C755 C746 1.385 1_554 S
C755 H748 0.950 1_545 S
C755 C752 1.387 . S
C756 C757 1.387 . S
C756 H760 0.950 . S
C756 C765 1.390 . S
C757 C756 1.387 . S
C757 C759 1.387 . S
H758 C765 0.950 . S
C759 C757 1.387 . S
C759 C761 1.390 . S
C759 H763 0.950 . S
H760 C756 0.950 . S
C761 C759 1.390 . S
C761 C762 1.387 . S
C761 H764 0.950 . S
C762 C761 1.387 . S
C762 C765 1.387 . S
H763 C759 0.950 . S
H764 C761 0.950 . S
C765 C756 1.390 . S
C765 H758 0.950 . S
C765 C762 1.387 . S
C766 C767 1.387 1_554 S
C766 H770 0.950 . S
C766 C775 1.390 1_554 S
C767 C766 1.387 1_556 S
C767 C769 1.387 . S
H768 C775 0.950 1_554 S
C769 C767 1.387 . S
C769 C771 1.390 . S
C769 H773 0.950 . S
H770 C766 0.950 . S
C771 C769 1.390 . S
C771 C772 1.387 . S
C771 H774 0.950 . S
C772 C771 1.387 . S
C772 C775 1.387 . S
H773 C769 0.950 . S
H774 C771 0.950 . S
C775 C766 1.390 1_556 S
C775 H768 0.950 1_556 S
C775 C772 1.387 . S
C776 C777 1.387 . S
C776 H780 0.950 . S
C776 C785 1.390 . S
C777 C776 1.387 . S
C777 C779 1.387 . S
H778 C785 0.950 . S
C779 C777 1.387 . S
C779 C781 1.390 . S
C779 H783 0.950 . S
H780 C776 0.950 . S
C781 C779 1.390 . S
C781 C782 1.387 . S
C781 H784 0.950 . S
C782 C781 1.387 . S
C782 C785 1.387 . S
H783 C779 0.950 . S
H784 C781 0.950 . S
C785 C776 1.390 . S
C785 H778 0.950 . S
C785 C782 1.387 . S
C786 C787 1.387 . S
C786 H790 0.950 . S
C786 C795 1.390 . S
C787 C786 1.387 . S
C787 C789 1.387 . S
H788 C795 0.950 1_556 S
C789 C787 1.387 . S
C789 C791 1.390 . S
C789 H793 0.950 . S
H790 C786 0.950 . S
C791 C789 1.390 . S
C791 C792 1.387 . S
C791 H794 0.950 . S
C792 C791 1.387 . S
C792 C795 1.387 . S
H793 C789 0.950 . S
H794 C791 0.950 . S
C795 C786 1.390 . S
C795 H788 0.950 1_554 S
C795 C792 1.387 . S
C796 C797 1.387 . S
C796 H800 0.950 . S
C796 C805 1.390 . S
C797 C796 1.387 . S
C797 C799 1.387 . S
H798 C805 0.950 . S
C799 C797 1.387 . S
C799 C801 1.390 . S
C799 H803 0.950 . S
H800 C796 0.950 . S
C801 C799 1.390 . S
C801 C802 1.387 . S
C801 H804 0.950 . S
C802 C801 1.387 . S
C802 C805 1.387 . S
H803 C799 0.950 . S
H804 C801 0.950 . S
C805 C796 1.390 . S
C805 H798 0.950 . S
C805 C802 1.387 . S
C806 C807 1.387 . S
C806 H810 0.950 . S
C806 C815 1.390 . S
C807 C806 1.387 . S
C807 C809 1.387 . S
H808 C815 0.950 . S
C809 C807 1.387 . S
C809 C811 1.390 . S
C809 H813 0.950 . S
H810 C806 0.950 . S
C811 C809 1.390 . S
C811 C812 1.387 . S
C811 H814 0.950 . S
C812 C811 1.387 . S
C812 C815 1.387 . S
H813 C809 0.950 . S
H814 C811 0.950 . S
C815 C806 1.390 . S
C815 H808 0.950 . S
C815 C812 1.387 . S
C816 C817 1.387 . S
C816 H820 0.950 . S
C816 C825 1.390 . S
C817 C816 1.387 . S
C817 C819 1.387 . S
H818 C825 0.950 . S
C819 C817 1.387 . S
C819 C821 1.390 . S
C819 H823 0.950 . S
H820 C816 0.950 . S
C821 C819 1.390 . S
C821 C822 1.387 . S
C821 H824 0.950 . S
C822 C821 1.387 . S
C822 C825 1.387 . S
H823 C819 0.950 . S
H824 C821 0.950 . S
C825 C816 1.390 . S
C825 H818 0.950 . S
C825 C822 1.387 . S
C826 C827 1.387 . S
C826 H830 0.950 . S
C826 C835 1.390 . S
C827 C826 1.387 . S
C827 C829 1.387 . S
H828 C835 0.950 . S
C829 C827 1.387 . S
C829 C831 1.390 . S
C829 H833 0.950 . S
H830 C826 0.950 . S
C831 C829 1.390 . S
C831 C832 1.387 . S
C831 H834 0.950 . S
C832 C831 1.387 . S
C832 C835 1.387 . S
H833 C829 0.950 . S
H834 C831 0.950 . S
C835 C826 1.390 . S
C835 H828 0.950 . S
C835 C832 1.387 . S
C836 C837 1.387 . S
C836 H840 0.950 . S
C836 C845 1.390 . S
C837 C836 1.387 . S
C837 C839 1.387 1_565 S
H838 C845 0.950 . S
C839 C837 1.387 1_545 S
C839 C841 1.390 . S
C839 H843 0.950 . S
H840 C836 0.950 . S
C841 C839 1.390 . S
C841 C842 1.387 . S
C841 H844 0.950 . S
C842 C841 1.387 . S
C842 C845 1.387 1_545 S
H843 C839 0.950 . S
H844 C841 0.950 . S
C845 C836 1.390 . S
C845 H838 0.950 . S
C845 C842 1.387 1_565 S
C846 C847 1.387 . S
C846 H850 0.950 . S
C846 C855 1.390 . S
C847 C846 1.387 . S
C847 C849 1.387 1_565 S
H848 C855 0.950 . S
C849 C847 1.387 1_545 S
C849 C851 1.390 1_545 S
C849 H853 0.950 . S
H850 C846 0.950 . S
C851 C849 1.390 1_565 S
C851 C852 1.387 . S
C851 H854 0.950 1_565 S
C852 C851 1.387 . S
C852 C855 1.387 . S
H853 C849 0.950 . S
H854 C851 0.950 1_545 S
C855 C846 1.390 . S
C855 H848 0.950 . S
C855 C852 1.387 . S
C856 C857 1.387 . S
C856 H860 0.950 . S
C856 C865 1.390 . S
C857 C856 1.387 . S
C857 C859 1.387 . S
H858 C865 0.950 . S
C859 C857 1.387 . S
C859 C861 1.390 . S
C859 H863 0.950 . S
H860 C856 0.950 . S
C861 C859 1.390 . S
C861 C862 1.387 . S
C861 H864 0.950 . S
C862 C861 1.387 . S
C862 C865 1.387 . S
H863 C859 0.950 . S
H864 C861 0.950 . S
C865 C856 1.390 . S
C865 H858 0.950 . S
C865 C862 1.387 . S
C866 C867 1.387 1_554 S
C866 H870 0.950 . S
C866 C875 1.390 1_554 S
C867 C866 1.387 1_556 S
C867 C869 1.387 . S
H868 C875 0.950 1_554 S
C869 C867 1.387 . S
C869 C871 1.390 . S
C869 H873 0.950 . S
H870 C866 0.950 . S
C871 C869 1.390 . S
C871 C872 1.387 . S
C871 H874 0.950 . S
C872 C871 1.387 . S
C872 C875 1.387 . S
H873 C869 0.950 . S
H874 C871 0.950 . S
C875 C866 1.390 1_556 S
C875 H868 0.950 1_556 S
C875 C872 1.387 . S
C876 C877 1.387 . S
C876 H880 0.950 . S
C876 C885 1.390 . S
C877 C876 1.387 . S
C877 C879 1.387 . S
H878 C885 0.950 . S
C879 C877 1.387 . S
C879 C881 1.390 . S
C879 H883 0.950 . S
H880 C876 0.950 . S
C881 C879 1.390 . S
C881 C882 1.387 . S
C881 H884 0.950 . S
C882 C881 1.387 . S
C882 C885 1.387 . S
H883 C879 0.950 . S
H884 C881 0.950 . S
C885 C876 1.390 . S
C885 H878 0.950 . S
C885 C882 1.387 . S
C886 C887 1.387 1_554 S
C886 H890 0.950 . S
C886 C895 1.390 . S
C887 C886 1.387 1_556 S
C887 C889 1.387 . S
H888 C895 0.950 . S
C889 C887 1.387 . S
C889 C891 1.390 . S
C889 H893 0.950 . S
H890 C886 0.950 . S
C891 C889 1.390 . S
C891 C892 1.387 1_556 S
C891 H894 0.950 . S
C892 C891 1.387 1_554 S
C892 C895 1.387 . S
H893 C889 0.950 . S
H894 C891 0.950 . S
C895 C886 1.390 . S
C895 H888 0.950 . S
C895 C892 1.387 . S
C896 C897 1.387 . S
C896 H900 0.950 . S
C896 C905 1.390 . S
C897 C896 1.387 . S
C897 C899 1.387 . S
H898 C905 0.950 . S
C899 C897 1.387 . S
C899 C901 1.390 . S
C899 H903 0.950 . S
H900 C896 0.950 . S
C901 C899 1.390 . S
C901 C902 1.387 . S
C901 H904 0.950 . S
C902 C901 1.387 . S
C902 C905 1.387 . S
H903 C899 0.950 . S
H904 C901 0.950 . S
C905 C896 1.390 . S
C905 H898 0.950 . S
C905 C902 1.387 . S
C906 C907 1.387 . S
C906 H910 0.950 . S
C906 C915 1.390 . S
C907 C906 1.387 . S
C907 C909 1.387 1_655 S
H908 C915 0.950 . S
C909 C907 1.387 1_455 S
C909 C911 1.390 1_455 S
C909 H913 0.950 . S
H910 C906 0.950 . S
C911 C909 1.390 1_655 S
C911 C912 1.387 . S
C911 H914 0.950 . S
C912 C911 1.387 . S
C912 C915 1.387 . S
H913 C909 0.950 . S
H914 C911 0.950 . S
C915 C906 1.390 . S
C915 H908 0.950 . S
C915 C912 1.387 . S
C916 C917 1.387 . S
C916 H920 0.950 . S
C916 C925 1.390 . S
C917 C916 1.387 . S
C917 C919 1.387 . S
H918 C925 0.950 . S
C919 C917 1.387 . S
C919 C921 1.390 . S
C919 H923 0.950 . S
H920 C916 0.950 . S
C921 C919 1.390 . S
C921 C922 1.387 . S
C921 H924 0.950 . S
C922 C921 1.387 . S
C922 C925 1.387 . S
H923 C919 0.950 . S
H924 C921 0.950 . S
C925 C916 1.390 . S
C925 H918 0.950 . S
C925 C922 1.387 . S
C926 C927 1.391 . S
C926 H930 0.950 . S
C926 C935 1.390 1_655 S
C927 C926 1.391 . S
C927 C929 1.375 1_655 S
H928 C935 0.950 . S
C929 C927 1.375 1_455 S
C929 C931 1.390 . S
C929 H933 0.950 . S
H930 C926 0.950 . S
C931 C929 1.390 . S
C931 C932 1.387 . S
C931 H934 0.950 . S
C932 C931 1.387 . S
C932 C935 1.387 . S
H933 C929 0.950 . S
H934 C931 0.950 . S
C935 C926 1.390 1_455 S
C935 H928 0.950 . S
C935 C932 1.387 . S
C936 C937 1.387 . S
C936 H940 0.950 . S
C936 C945 1.390 . S
C937 C936 1.387 . S
C937 C939 1.387 . S
H938 C945 0.950 . S
C939 C937 1.387 . S
C939 C941 1.390 . S
C939 H943 0.950 . S
H940 C936 0.950 . S
C941 C939 1.390 . S
C941 C942 1.387 . S
C941 H944 0.950 . S
C942 C941 1.387 . S
C942 C945 1.387 . S
H943 C939 0.950 . S
H944 C941 0.950 . S
C945 C936 1.390 . S
C945 H938 0.950 . S
C945 C942 1.387 . S
C946 C947 1.387 . S
C946 H950 0.950 . S
C946 C955 1.390 . S
C947 C946 1.387 . S
C947 C949 1.387 . S
H948 C955 0.950 . S
C949 C947 1.387 . S
C949 C951 1.390 . S
C949 H953 0.950 . S
H950 C946 0.950 . S
C951 C949 1.390 . S
C951 C952 1.387 . S
C951 H954 0.950 . S
C952 C951 1.387 . S
C952 C955 1.387 . S
H953 C949 0.950 . S
H954 C951 0.950 . S
C955 C946 1.390 . S
C955 H948 0.950 . S
C955 C952 1.387 . S
C956 C957 1.387 . S
C956 H960 0.950 . S
C956 C965 1.390 . S
C957 C956 1.387 . S
C957 C959 1.387 1_545 S
H958 C965 0.950 . S
C959 C957 1.387 1_565 S
C959 C961 1.390 . S
C959 H963 0.950 . S
H960 C956 0.950 . S
C961 C959 1.390 . S
C961 C962 1.387 . S
C961 H964 0.950 . S
C962 C961 1.387 . S
C962 C965 1.387 1_565 S
H963 C959 0.950 . S
H964 C961 0.950 . S
C965 C956 1.390 . S
C965 H958 0.950 . S
C965 C962 1.387 1_545 S
C966 C967 1.387 1_565 S
C966 H970 0.950 . S
C966 C975 1.390 1_565 S
C967 C966 1.387 1_545 S
C967 C969 1.387 . S
H968 C975 0.950 . S
C969 C967 1.387 . S
C969 C971 1.390 . S
C969 H973 0.950 . S
H970 C966 0.950 . S
C971 C969 1.390 . S
C971 C972 1.387 . S
C971 H974 0.950 . S
C972 C971 1.387 . S
C972 C975 1.387 . S
H973 C969 0.950 . S
H974 C971 0.950 . S
C975 C966 1.390 1_545 S
C975 H968 0.950 . S
C975 C972 1.387 . S
C976 C977 1.387 . S
C976 H980 0.950 . S
C976 C985 1.390 . S
C977 C976 1.387 . S
C977 C979 1.387 . S
H978 C985 0.950 . S
C979 C977 1.387 . S
C979 C981 1.390 . S
C979 H983 0.950 . S
H980 C976 0.950 . S
C981 C979 1.390 . S
C981 C982 1.387 . S
C981 H984 0.950 . S
C982 C981 1.387 . S
C982 C985 1.387 . S
H983 C979 0.950 . S
H984 C981 0.950 . S
C985 C976 1.390 . S
C985 H978 0.950 . S
C985 C982 1.387 . S
C986 C987 1.387 1_556 S
C986 H990 0.950 . S
C986 C995 1.390 1_556 S
C987 C986 1.387 1_554 S
C987 C989 1.387 . S
H988 C995 0.950 1_556 S
C989 C987 1.387 . S
C989 C991 1.390 . S
C989 H993 0.950 . S
H990 C986 0.950 . S
C991 C989 1.390 . S
C991 C992 1.387 . S
C991 H994 0.950 . S
C992 C991 1.387 . S
C992 C995 1.387 . S
H993 C989 0.950 . S
H994 C991 0.950 . S
C995 C986 1.390 1_554 S
C995 H988 0.950 1_554 S
C995 C992 1.387 . S
C996 C997 1.387 . S
C996 H1000 0.950 . S
C996 C1005 1.390 . S
C997 C996 1.387 . S
C997 C999 1.387 . S
H998 C1005 0.950 . S
C999 C997 1.387 . S
C999 C1001 1.390 . S
C999 H1003 0.950 . S
H1000 C996 0.950 . S
C1001 C999 1.390 . S
C1001 C1002 1.387 . S
C1001 H1004 0.950 . S
C1002 C1001 1.387 . S
C1002 C1005 1.387 . S
H1003 C999 0.950 . S
H1004 C1001 0.950 . S
C1005 C996 1.390 . S
C1005 H998 0.950 . S
C1005 C1002 1.387 . S
C1006 C1007 1.387 1_556 S
C1006 H1010 0.950 . S
C1006 C1015 1.390 . S
C1007 C1006 1.387 1_554 S
C1007 C1009 1.387 . S
H1008 C1015 0.950 . S
C1009 C1007 1.387 . S
C1009 C1011 1.390 . S
C1009 H1013 0.950 . S
H1010 C1006 0.950 . S
C1011 C1009 1.390 . S
C1011 C1012 1.387 1_554 S
C1011 H1014 0.950 . S
C1012 C1011 1.387 1_556 S
C1012 C1015 1.387 . S
H1013 C1009 0.950 . S
H1014 C1011 0.950 . S
C1015 C1006 1.390 . S
C1015 H1008 0.950 . S
C1015 C1012 1.387 . S
C1016 C1017 1.387 . S
C1016 H1020 0.950 . S
C1016 C1025 1.390 . S
C1017 C1016 1.387 . S
C1017 C1019 1.387 . S
H1018 C1025 0.950 . S
C1019 C1017 1.387 . S
C1019 C1021 1.390 . S
C1019 H1023 0.950 . S
H1020 C1016 0.950 . S
C1021 C1019 1.390 . S
C1021 C1022 1.387 . S
C1021 H1024 0.950 . S
C1022 C1021 1.387 . S
C1022 C1025 1.387 . S
H1023 C1019 0.950 . S
H1024 C1021 0.950 . S
C1025 C1016 1.390 . S
C1025 H1018 0.950 . S
C1025 C1022 1.387 . S
C1026 C1027 1.387 . S
C1026 H1030 0.950 . S
C1026 C1035 1.390 . S
C1027 C1026 1.387 . S
C1027 C1029 1.396 . S
H1028 C1035 0.950 . S
C1029 C1027 1.396 . S
C1029 C1031 1.402 . S
C1029 H1033 0.931 1_455 S
H1030 C1026 0.950 . S
C1031 C1029 1.402 . S
C1031 C1032 1.387 . S
C1031 H1034 0.950 . S
C1032 C1031 1.387 . S
C1032 C1035 1.387 . S
H1033 C1029 0.931 1_655 S
H1034 C1031 0.950 . S
C1035 C1026 1.390 . S
C1035 H1028 0.950 . S
C1035 C1032 1.387 . S
C1036 C1037 1.387 . S
C1036 H1040 0.950 . S
C1036 C1045 1.390 . S
C1037 C1036 1.387 . S
C1037 C1039 1.387 . S
H1038 C1045 0.950 . S
C1039 C1037 1.387 . S
C1039 C1041 1.390 . S
C1039 H1043 0.950 . S
H1040 C1036 0.950 . S
C1041 C1039 1.390 . S
C1041 C1042 1.387 . S
C1041 H1044 0.950 . S
C1042 C1041 1.387 . S
C1042 C1045 1.387 . S
H1043 C1039 0.950 . S
H1044 C1041 0.950 . S
C1045 C1036 1.390 . S
C1045 H1038 0.950 . S
C1045 C1042 1.387 . S
C1046 C1047 1.382 1_655 S
C1046 H1050 0.947 1_655 S
C1046 C1055 1.395 . S
C1047 C1046 1.382 1_455 S
C1047 C1049 1.382 1_455 S
H1048 C1055 0.950 . S
C1049 C1047 1.382 1_655 S
C1049 C1051 1.390 . S
C1049 H1053 0.950 . S
H1050 C1046 0.947 1_455 S
C1051 C1049 1.390 . S
C1051 C1052 1.387 . S
C1051 H1054 0.950 . S
C1052 C1051 1.387 . S
C1052 C1055 1.387 . S
H1053 C1049 0.950 . S
H1054 C1051 0.950 . S
C1055 C1046 1.395 . S
C1055 H1048 0.950 . S
C1055 C1052 1.387 . S
C1056 C1057 1.387 . S
C1056 H1060 0.950 . S
C1056 C1065 1.390 . S
C1057 C1056 1.387 . S
C1057 C1059 1.387 . S
H1058 C1065 0.950 . S
C1059 C1057 1.387 . S
C1059 C1061 1.390 . S
C1059 H1063 0.950 . S
H1060 C1056 0.950 . S
C1061 C1059 1.390 . S
C1061 C1062 1.387 . S
C1061 H1064 0.950 . S
C1062 C1061 1.387 . S
C1062 C1065 1.387 . S
H1063 C1059 0.950 . S
H1064 C1061 0.950 . S
C1065 C1056 1.390 . S
C1065 H1058 0.950 . S
C1065 C1062 1.387 . S
C1066 C1067 1.387 . S
C1066 H1070 0.950 . S
C1066 C1075 1.390 . S
C1067 C1066 1.387 . S
C1067 C1069 1.387 . S
H1068 C1075 0.950 . S
C1069 C1067 1.387 . S
C1069 C1071 1.390 . S
C1069 H1073 0.950 . S
H1070 C1066 0.950 . S
C1071 C1069 1.390 . S
C1071 C1072 1.387 . S
C1071 H1074 0.950 . S
C1072 C1071 1.387 . S
C1072 C1075 1.387 . S
H1073 C1069 0.950 . S
H1074 C1071 0.950 . S
C1075 C1066 1.390 . S
C1075 H1068 0.950 . S
C1075 C1072 1.387 . S
C1076 C1077 1.387 . S
C1076 H1080 0.950 . S
C1076 C1085 1.390 . S
C1077 C1076 1.387 . S
C1077 C1079 1.387 1_545 S
H1078 C1085 0.950 . S
C1079 C1077 1.387 1_565 S
C1079 C1081 1.390 . S
C1079 H1083 0.950 . S
H1080 C1076 0.950 . S
C1081 C1079 1.390 . S
C1081 C1082 1.387 1_565 S
C1081 H1084 0.950 . S
C1082 C1081 1.387 1_545 S
C1082 C1085 1.387 . S
H1083 C1079 0.950 . S
H1084 C1081 0.950 . S
C1085 C1076 1.390 . S
C1085 H1078 0.950 . S
C1085 C1082 1.387 . S
C1086 C1087 1.397 . S
C1086 H1090 0.933 1_565 S
C1086 C1095 1.398 . S
C1087 C1086 1.397 . S
C1087 C1089 1.387 . S
H1088 C1095 0.950 . S
C1089 C1087 1.387 . S
C1089 C1091 1.390 . S
C1089 H1093 0.950 . S
H1090 C1086 0.933 1_545 S
C1091 C1089 1.390 . S
C1091 C1092 1.387 . S
C1091 H1094 0.950 . S
C1092 C1091 1.387 . S
C1092 C1095 1.387 . S
H1093 C1089 0.950 . S
H1094 C1091 0.950 . S
C1095 C1086 1.398 . S
C1095 H1088 0.950 . S
C1095 C1092 1.387 . S
C1096 C1097 1.387 . S
C1096 H1100 0.950 . S
C1096 C1105 1.390 . S
C1097 C1096 1.387 . S
C1097 C1099 1.387 . S
H1098 C1105 0.950 . S
C1099 C1097 1.387 . S
C1099 C1101 1.390 . S
C1099 H1103 0.950 . S
H1100 C1096 0.950 . S
C1101 C1099 1.390 . S
C1101 C1102 1.387 . S
C1101 H1104 0.950 . S
C1102 C1101 1.387 . S
C1102 C1105 1.387 . S
H1103 C1099 0.950 . S
H1104 C1101 0.950 . S
C1105 C1096 1.390 . S
C1105 H1098 0.950 . S
C1105 C1102 1.387 . S
C1106 C1107 1.387 1_554 S
C1106 H1110 0.950 . S
C1106 C1115 1.390 1_554 S
C1107 C1106 1.387 1_556 S
C1107 C1109 1.387 . S
H1108 C1115 0.950 1_554 S
C1109 C1107 1.387 . S
C1109 C1111 1.390 . S
C1109 H1113 0.950 . S
H1110 C1106 0.950 . S
C1111 C1109 1.390 . S
C1111 C1112 1.387 . S
C1111 H1114 0.950 . S
C1112 C1111 1.387 . S
C1112 C1115 1.387 . S
H1113 C1109 0.950 . S
H1114 C1111 0.950 . S
C1115 C1106 1.390 1_556 S
C1115 H1108 0.950 1_556 S
C1115 C1112 1.387 . S
C1116 C1117 1.387 . S
C1116 H1120 0.950 . S
C1116 C1125 1.390 . S
C1117 C1116 1.387 . S
C1117 C1119 1.387 . S
H1118 C1125 0.950 . S
C1119 C1117 1.387 . S
C1119 C1121 1.390 . S
C1119 H1123 0.950 . S
H1120 C1116 0.950 . S
C1121 C1119 1.390 . S
C1121 C1122 1.387 . S
C1121 H1124 0.950 . S
C1122 C1121 1.387 . S
C1122 C1125 1.387 . S
H1123 C1119 0.950 . S
H1124 C1121 0.950 . S
C1125 C1116 1.390 . S
C1125 H1118 0.950 . S
C1125 C1122 1.387 . S
C1126 C1127 1.387 . S
C1126 H1130 0.950 . S
C1126 C1135 1.390 . S
C1127 C1126 1.387 . S
C1127 C1129 1.387 1_554 S
H1128 C1135 0.950 . S
C1129 C1127 1.387 1_556 S
C1129 C1131 1.390 . S
C1129 H1133 0.950 . S
H1130 C1126 0.950 . S
C1131 C1129 1.390 . S
C1131 C1132 1.387 1_556 S
C1131 H1134 0.950 . S
C1132 C1131 1.387 1_554 S
C1132 C1135 1.387 . S
H1133 C1129 0.950 . S
H1134 C1131 0.950 . S
C1135 C1126 1.390 . S
C1135 H1128 0.950 . S
C1135 C1132 1.387 . S
C1136 C1137 1.387 . S
C1136 H1140 0.950 . S
C1136 C1145 1.390 . S
C1137 C1136 1.387 . S
C1137 C1139 1.387 . S
H1138 C1145 0.950 . S
C1139 C1137 1.387 . S
C1139 C1141 1.390 . S
C1139 H1143 0.950 . S
H1140 C1136 0.950 . S
C1141 C1139 1.390 . S
C1141 C1142 1.387 . S
C1141 H1144 0.950 . S
C1142 C1141 1.387 . S
C1142 C1145 1.387 . S
H1143 C1139 0.950 . S
H1144 C1141 0.950 . S
C1145 C1136 1.390 . S
C1145 H1138 0.950 . S
C1145 C1142 1.387 . S
C1146 C1147 1.387 . S
C1146 H1150 0.950 . S
C1146 C1155 1.390 . S
C1147 C1146 1.387 . S
C1147 C1149 1.387 . S
H1148 C1155 0.950 . S
C1149 C1147 1.387 . S
C1149 C1151 1.390 . S
C1149 H1153 0.950 . S
H1150 C1146 0.950 . S
C1151 C1149 1.390 . S
C1151 C1152 1.387 . S
C1151 H1154 0.950 . S
C1152 C1151 1.387 . S
C1152 C1155 1.387 . S
H1153 C1149 0.950 . S
H1154 C1151 0.950 . S
C1155 C1146 1.390 . S
C1155 H1148 0.950 . S
C1155 C1152 1.387 . S
C1156 C1157 1.387 . S
C1156 H1160 0.950 . S
C1156 C1165 1.390 . S
C1157 C1156 1.387 . S
C1157 C1159 1.387 . S
H1158 C1165 0.950 . S
C1159 C1157 1.387 . S
C1159 C1161 1.390 . S
C1159 H1163 0.950 . S
H1160 C1156 0.950 . S
C1161 C1159 1.390 . S
C1161 C1162 1.387 . S
C1161 H1164 0.950 . S
C1162 C1161 1.387 . S
C1162 C1165 1.387 . S
H1163 C1159 0.950 . S
H1164 C1161 0.950 . S
C1165 C1156 1.390 . S
C1165 H1158 0.950 . S
C1165 C1162 1.387 . S
C1166 C1167 1.387 . S
C1166 H1170 0.950 . S
C1166 C1175 1.390 . S
C1167 C1166 1.387 . S
C1167 C1169 1.390 . S
H1168 C1175 0.950 . S
C1169 C1167 1.390 . S
C1169 C1171 1.394 . S
C1169 H1173 0.944 1_455 S
H1170 C1166 0.950 . S
C1171 C1169 1.394 . S
C1171 C1172 1.387 . S
C1171 H1174 0.950 . S
C1172 C1171 1.387 . S
C1172 C1175 1.387 . S
H1173 C1169 0.944 1_655 S
H1174 C1171 0.950 . S
C1175 C1166 1.390 . S
C1175 H1168 0.950 . S
C1175 C1172 1.387 . S
C1176 C1177 1.387 . S
C1176 H1180 0.950 . S
C1176 C1185 1.390 . S
C1177 C1176 1.387 . S
C1177 C1179 1.387 . S
H1178 C1185 0.950 . S
C1179 C1177 1.387 . S
C1179 C1181 1.390 . S
C1179 H1183 0.950 . S
H1180 C1176 0.950 . S
C1181 C1179 1.390 . S
C1181 C1182 1.387 . S
C1181 H1184 0.950 . S
C1182 C1181 1.387 . S
C1182 C1185 1.387 . S
H1183 C1179 0.950 . S
H1184 C1181 0.950 . S
C1185 C1176 1.390 . S
C1185 H1178 0.950 . S
C1185 C1182 1.387 . S
C1186 C1187 1.387 . S
C1186 H1190 0.950 . S
C1186 C1195 1.390 . S
C1187 C1186 1.387 . S
C1187 C1189 1.387 . S
H1188 C1195 0.950 . S
C1189 C1187 1.387 . S
C1189 C1191 1.390 . S
C1189 H1193 0.950 . S
H1190 C1186 0.950 . S
C1191 C1189 1.390 . S
C1191 C1192 1.387 . S
C1191 H1194 0.950 . S
C1192 C1191 1.387 . S
C1192 C1195 1.387 . S
H1193 C1189 0.950 . S
H1194 C1191 0.950 . S
C1195 C1186 1.390 . S
C1195 H1188 0.950 . S
C1195 C1192 1.387 . S
C1196 C1197 1.387 . S
C1196 H1200 0.950 . S
C1196 C1205 1.390 . S
C1197 C1196 1.387 . S
C1197 C1199 1.387 1_565 S
H1198 C1205 0.950 . S
C1199 C1197 1.387 1_545 S
C1199 C1201 1.387 1_545 S
C1199 H1203 0.950 . S
H1200 C1196 0.950 . S
C1201 C1199 1.387 1_565 S
C1201 C1202 1.401 . S
C1201 H1204 0.940 1_565 S
C1202 C1201 1.401 . S
C1202 C1205 1.387 . S
H1203 C1199 0.950 . S
H1204 C1201 0.940 1_545 S
C1205 C1196 1.390 . S
C1205 H1198 0.950 . S
C1205 C1202 1.387 . S
C1206 C1207 1.387 . S
C1206 H1210 0.950 . S
C1206 C1215 1.390 . S
C1207 C1206 1.387 . S
C1207 C1209 1.387 . S
H1208 C1215 0.950 . S
C1209 C1207 1.387 . S
C1209 C1211 1.390 . S
C1209 H1213 0.950 1_545 S
H1210 C1206 0.950 . S
C1211 C1209 1.390 . S
C1211 C1212 1.387 . S
C1211 H1214 0.950 . S
C1212 C1211 1.387 . S
C1212 C1215 1.387 . S
H1213 C1209 0.950 1_565 S
H1214 C1211 0.950 . S
C1215 C1206 1.390 . S
C1215 H1208 0.950 . S
C1215 C1212 1.387 . S
C1216 C1217 1.387 . S
C1216 H1220 0.950 . S
C1216 C1225 1.390 . S
C1217 C1216 1.387 . S
C1217 C1219 1.387 . S
H1218 C1225 0.950 . S
C1219 C1217 1.387 . S
C1219 C1221 1.390 . S
C1219 H1223 0.950 . S
H1220 C1216 0.950 . S
C1221 C1219 1.390 . S
C1221 C1222 1.387 . S
C1221 H1224 0.950 . S
C1222 C1221 1.387 . S
C1222 C1225 1.387 . S
H1223 C1219 0.950 . S
H1224 C1221 0.950 . S
C1225 C1216 1.390 . S
C1225 H1218 0.950 . S
C1225 C1222 1.387 . S
C1226 C1227 1.387 . S
C1226 H1230 0.950 . S
C1226 C1235 1.390 . S
C1227 C1226 1.387 . S
C1227 C1229 1.387 1_554 S
H1228 C1235 0.950 . S
C1229 C1227 1.387 1_556 S
C1229 C1231 1.390 . S
C1229 H1233 0.950 . S
H1230 C1226 0.950 . S
C1231 C1229 1.390 . S
C1231 C1232 1.387 1_556 S
C1231 H1234 0.950 . S
C1232 C1231 1.387 1_554 S
C1232 C1235 1.387 . S
H1233 C1229 0.950 . S
H1234 C1231 0.950 . S
C1235 C1226 1.390 . S
C1235 H1228 0.950 . S
C1235 C1232 1.387 . S
C1236 C1237 1.387 . S
C1236 H1240 0.950 . S
C1236 C1245 1.390 . S
C1237 C1236 1.387 . S
C1237 C1239 1.387 . S
H1238 C1245 0.950 . S
C1239 C1237 1.387 . S
C1239 C1241 1.390 . S
C1239 H1243 0.950 . S
H1240 C1236 0.950 . S
C1241 C1239 1.390 . S
C1241 C1242 1.387 . S
C1241 H1244 0.950 . S
C1242 C1241 1.387 . S
C1242 C1245 1.387 . S
H1243 C1239 0.950 . S
H1244 C1241 0.950 . S
C1245 C1236 1.390 . S
C1245 H1238 0.950 . S
C1245 C1242 1.387 . S
C1246 C1247 1.387 1_554 S
C1246 H1250 0.950 . S
C1246 C1255 1.390 . S
C1247 C1246 1.387 1_556 S
C1247 C1249 1.387 . S
H1248 C1255 0.950 . S
C1249 C1247 1.387 . S
C1249 C1251 1.390 . S
C1249 H1253 0.950 . S
H1250 C1246 0.950 . S
C1251 C1249 1.390 . S
C1251 C1252 1.387 . S
C1251 H1254 0.950 . S
C1252 C1251 1.387 . S
C1252 C1255 1.387 1_556 S
H1253 C1249 0.950 . S
H1254 C1251 0.950 . S
C1255 C1246 1.390 . S
C1255 H1248 0.950 . S
C1255 C1252 1.387 1_554 S
C1256 C1257 1.387 . S
C1256 H1260 0.950 . S
C1256 C1265 1.390 . S
C1257 C1256 1.387 . S
C1257 C1259 1.387 . S
H1258 C1265 0.950 . S
C1259 C1257 1.387 . S
C1259 C1261 1.390 . S
C1259 H1263 0.950 . S
H1260 C1256 0.950 . S
C1261 C1259 1.390 . S
C1261 C1262 1.387 . S
C1261 H1264 0.950 . S
C1262 C1261 1.387 . S
C1262 C1265 1.387 . S
H1263 C1259 0.950 . S
H1264 C1261 0.950 . S
C1265 C1256 1.390 . S
C1265 H1258 0.950 . S
C1265 C1262 1.387 . S
C1266 C1267 1.387 . S
C1266 H1270 0.950 . S
C1266 C1275 1.390 . S
C1267 C1266 1.387 . S
C1267 C1269 1.395 . S
H1268 C1275 0.950 . S
C1269 C1267 1.395 . S
C1269 C1271 1.399 . S
C1269 H1273 0.935 1_455 S
H1270 C1266 0.950 . S
C1271 C1269 1.399 . S
C1271 C1272 1.387 . S
C1271 H1274 0.950 . S
C1272 C1271 1.387 . S
C1272 C1275 1.387 . S
H1273 C1269 0.935 1_655 S
H1274 C1271 0.950 . S
C1275 C1266 1.390 . S
C1275 H1268 0.950 . S
C1275 C1272 1.387 . S
C1276 C1277 1.387 . S
C1276 H1280 0.950 . S
C1276 C1285 1.390 . S
C1277 C1276 1.387 . S
C1277 C1279 1.387 . S
H1278 C1285 0.950 . S
C1279 C1277 1.387 . S
C1279 C1281 1.390 . S
C1279 H1283 0.950 . S
H1280 C1276 0.950 . S
C1281 C1279 1.390 . S
C1281 C1282 1.387 . S
C1281 H1284 0.950 . S
C1282 C1281 1.387 . S
C1282 C1285 1.387 . S
H1283 C1279 0.950 . S
H1284 C1281 0.950 . S
C1285 C1276 1.390 . S
C1285 H1278 0.950 . S
C1285 C1282 1.387 . S
C1286 C1287 1.387 . S
C1286 H1290 0.950 1_655 S
C1286 C1295 1.390 . S
C1287 C1286 1.387 . S
C1287 C1289 1.387 . S
H1288 C1295 0.950 . S
C1289 C1287 1.387 . S
C1289 C1291 1.390 . S
C1289 H1293 0.950 . S
H1290 C1286 0.950 1_455 S
C1291 C1289 1.390 . S
C1291 C1292 1.387 . S
C1291 H1294 0.950 . S
C1292 C1291 1.387 . S
C1292 C1295 1.387 . S
H1293 C1289 0.950 . S
H1294 C1291 0.950 . S
C1295 C1286 1.390 . S
C1295 H1288 0.950 . S
C1295 C1292 1.387 . S
C582 N564 1.565 1_455 S
C577 C8 1.552 . S
C592 N525 1.574 . S
C587 C19 1.525 . S
C602 N551 1.376 . S
C597 C30 1.372 . S
C612 N538 1.611 1_655 S
C607 C41 1.581 1_565 S
C622 N447 1.566 1_545 S
C617 C52 1.553 . S
C627 C63 1.582 1_556 S
C632 N460 1.610 1_565 S
C642 N421 1.574 . S
C637 C74 1.527 . S
C647 C85 1.372 . S
C652 N434 1.374 . S
C662 N512 1.566 1_554 S
C657 C96 1.553 . S
C667 C107 1.581 1_655 S
C672 N486 1.609 1_556 S
C677 C118 1.525 . S
C682 N473 1.574 . S
C692 N499 1.376 . S
C687 C129 1.372 . S
C702 N408 1.566 1_655 S
C697 C140 1.507 . S
C707 C151 1.448 . S
C712 N369 1.581 . S
C722 N395 1.379 . S
C717 C162 1.326 . S
C727 C173 1.526 . S
C732 N382 1.623 1_455 S
C742 N291 1.566 1_565 S
C737 C184 1.505 . S
C752 N304 1.624 1_545 S
C747 C195 1.523 . S
C757 C206 1.448 . S
C762 N265 1.581 . S
C767 C217 1.327 . S
C772 N278 1.377 . S
C777 C228 1.506 . S
C782 N356 1.565 1_556 S
C787 C239 1.523 . S
C792 N330 1.622 1_554 S
C802 N317 1.581 . S
C797 C250 1.447 . S
C807 C261 1.327 . S
C812 N343 1.378 . S
C822 N269 1.516 . S
C817 C7 1.501 . S
C832 N282 1.507 . S
C827 C18 1.489 . S
C837 C29 1.393 . S
C842 N295 1.403 . S
C847 C40 1.339 1_565 S
C852 N308 1.348 . S
C862 N321 1.516 . S
C857 C51 1.501 . S
C867 C62 1.340 1_556 S
C872 N334 1.348 . S
C882 N347 1.506 . S
C877 C73 1.487 . S
C892 N360 1.405 . S
C887 C84 1.390 . S
C902 N373 1.516 . S
C897 C95 1.502 . S
C907 C106 1.339 1_655 S
C912 N386 1.347 . S
C917 C117 1.488 . S
C922 N399 1.506 . S
C927 C128 1.403 . S
C932 N412 1.404 . S
C937 C139 1.409 . S
C942 N425 1.515 . S
C947 C150 1.340 . S
C952 N438 1.506 . S
C957 C161 1.316 1_545 S
C962 N451 1.404 . S
C967 C172 1.258 . S
C972 N464 1.347 . S
C977 C183 1.413 . S
C982 N477 1.516 . S
C992 N490 1.349 . S
C987 C194 1.257 . S
C1002 N503 1.507 . S
C997 C205 1.343 . S
C1012 N516 1.406 . S
C1007 C216 1.315 1_554 S
C1022 N529 1.516 . S
C1017 C227 1.413 . S
C1027 C238 1.259 . S
C1032 N542 1.347 . S
C1037 C249 1.344 . S
C1042 N555 1.507 . S
C1047 C260 1.312 1_455 S
C1052 N568 1.404 . S
C1057 C5 1.372 . S
C1062 N370 1.539 . S
C1072 N409 1.579 . S
C1067 C16 1.432 . S
C1077 C27 1.338 1_545 S
C1082 N383 1.487 . S
C1092 N396 1.623 . S
C1087 C38 1.429 1_565 S
C1097 C49 1.372 . S
C1102 N266 1.539 . S
C1107 C60 1.435 1_556 S
C1112 N279 1.622 . S
C1117 C71 1.436 . S
C1122 N292 1.580 . S
C1127 C82 1.339 1_554 S
C1132 N305 1.487 . S
C1142 N318 1.539 . S
C1137 C93 1.373 . S
C1152 N344 1.622 . S
C1147 C104 1.432 1_655 S
C1157 C115 1.432 . S
C1162 N357 1.579 . S
C1167 C126 1.342 1_455 S
C1172 N331 1.488 . S
C1182 N526 1.544 . S
C1177 C137 1.210 . S
C1192 N565 1.586 . S
C1187 C148 1.176 . S
C1197 C159 1.195 . S
C1202 N539 1.492 . S
C1212 N552 1.634 . S
C1207 C170 1.195 . S
C1217 C181 1.211 . S
C1222 N422 1.543 . S
C1227 C192 1.193 . S
C1232 N435 1.634 . S
C1237 C203 1.171 . S
C1242 N448 1.586 . S
C1252 N461 1.492 . S
C1247 C214 1.195 . S
C1262 N474 1.544 . S
C1257 C225 1.208 . S
C1272 N500 1.634 . S
C1267 C236 1.189 . S
C1277 C247 1.168 . S
C1282 N513 1.587 . S
C1292 N487 1.491 . S
C1287 C258 1.202 . S
