# Generated by pormake.
# Topology pyr, (3,6)-cn, num edge types: 1
# Building blocks:
#     Node 0, Type 0, BuildingBlock: BELTOD_clean_linker_0, # of connection points: 3
#     Node 1, Type 0, BuildingBlock: BELTOD_clean_linker_0, # of connection points: 3
#     Node 2, Type 0, BuildingBlock: BELTOD_clean_linker_0, # of connection points: 3
#     Node 3, Type 0, BuildingBlock: BELTOD_clean_linker_0, # of connection points: 3
#     Node 4, Type 0, BuildingBlock: BELTOD_clean_linker_0, # of connection points: 3
#     Node 5, Type 0, BuildingBlock: BELTOD_clean_linker_0, # of connection points: 3
#     Node 6, Type 0, BuildingBlock: BELTOD_clean_linker_0, # of connection points: 3
#     Node 7, Type 0, BuildingBlock: BELTOD_clean_linker_0, # of connection points: 3
#     Node 8, Type 1, BuildingBlock: LEVNOQ01_clean_sbu_1, # of connection points: 6
#     Node 9, Type 1, BuildingBlock: LEVNOQ01_clean_sbu_1, # of connection points: 6
#     Node 10, Type 1, BuildingBlock: LEVNOQ01_clean_sbu_1, # of connection points: 6
#     Node 11, Type 1, BuildingBlock: LEVNOQ01_clean_sbu_1, # of connection points: 6
#     Edge 12, Type (0, 1), BuildingBlock: CIFDUS_clean_linker_0, # of connection points: 2
#     Edge 13, Type (0, 1), BuildingBlock: CIFDUS_clean_linker_0, # of connection points: 2
#     Edge 14, Type (0, 1), BuildingBlock: CIFDUS_clean_linker_0, # of connection points: 2
#     Edge 15, Type (0, 1), BuildingBlock: CIFDUS_clean_linker_0, # of connection points: 2
#     Edge 16, Type (0, 1), BuildingBlock: CIFDUS_clean_linker_0, # of connection points: 2
#     Edge 17, Type (0, 1), BuildingBlock: CIFDUS_clean_linker_0, # of connection points: 2
#     Edge 18, Type (0, 1), BuildingBlock: CIFDUS_clean_linker_0, # of connection points: 2
#     Edge 19, Type (0, 1), BuildingBlock: CIFDUS_clean_linker_0, # of connection points: 2
#     Edge 20, Type (0, 1), BuildingBlock: CIFDUS_clean_linker_0, # of connection points: 2
#     Edge 21, Type (0, 1), BuildingBlock: CIFDUS_clean_linker_0, # of connection points: 2
#     Edge 22, Type (0, 1), BuildingBlock: CIFDUS_clean_linker_0, # of connection points: 2
#     Edge 23, Type (0, 1), BuildingBlock: CIFDUS_clean_linker_0, # of connection points: 2
#     Edge 24, Type (0, 1), BuildingBlock: CIFDUS_clean_linker_0, # of connection points: 2
#     Edge 25, Type (0, 1), BuildingBlock: CIFDUS_clean_linker_0, # of connection points: 2
#     Edge 26, Type (0, 1), BuildingBlock: CIFDUS_clean_linker_0, # of connection points: 2
#     Edge 27, Type (0, 1), BuildingBlock: CIFDUS_clean_linker_0, # of connection points: 2
#     Edge 28, Type (0, 1), BuildingBlock: CIFDUS_clean_linker_0, # of connection points: 2
#     Edge 29, Type (0, 1), BuildingBlock: CIFDUS_clean_linker_0, # of connection points: 2
#     Edge 30, Type (0, 1), BuildingBlock: CIFDUS_clean_linker_0, # of connection points: 2
#     Edge 31, Type (0, 1), BuildingBlock: CIFDUS_clean_linker_0, # of connection points: 2
#     Edge 32, Type (0, 1), BuildingBlock: CIFDUS_clean_linker_0, # of connection points: 2
#     Edge 33, Type (0, 1), BuildingBlock: CIFDUS_clean_linker_0, # of connection points: 2
#     Edge 34, Type (0, 1), BuildingBlock: CIFDUS_clean_linker_0, # of connection points: 2
#     Edge 35, Type (0, 1), BuildingBlock: CIFDUS_clean_linker_0, # of connection points: 2
# Relax obj value: 0.036
# Max RMSD: 0.108
# Mean RMSD: 0.051
data_MOF--net-pry--node1-LEVNOQ01_clean_sbu_1--node2-BELTOD_clean_linker_0--edge1-CIFDUS_clean_linker_0
_symmetry_space_group_name_H-M    P1
_symmetry_Int_Tables_number       1
_symmetry_cell_setting            triclinic
loop_
_symmetry_equiv_pos_as_xyz
'x, y, z'
_cell_length_a     38.154953
_cell_length_b     37.262465
_cell_length_c     36.319927
_cell_angle_alpha  92.02568
_cell_angle_beta   91.27693
_cell_angle_gamma 92.85785
loop_
_atom_site_label
_atom_site_type_symbol
_atom_site_fract_x
_atom_site_fract_y
_atom_site_fract_z
_atom_type_partial_charge
P0 P 0.16851 0.16673 0.16104 0.0
H1 H 0.24186 0.14879 0.16828 0.0
H2 H 0.27854 0.10907 0.13298 0.0
H3 H 0.18976 0.07637 0.0617 0.0
H4 H 0.15265 0.11592 0.09793 0.0
H5 H 0.11099 0.21422 0.1762 0.0
H6 H 0.08153 0.25777 0.13921 0.0
H7 H 0.14353 0.22868 0.04599 0.0
H8 H 0.17209 0.18422 0.08257 0.0
H9 H 0.19481 0.12166 0.21741 0.0
H10 H 0.09304 0.15377 0.18074 0.0
O11 O 0.19604 0.19607 0.18414 0.0
H12 H 0.16729 0.08794 0.26666 0.0
H13 H 0.06583 0.1216 0.2315 0.0
C14 C 0.19475 0.13617 0.13505 0.0
C15 C 0.23011 0.13304 0.14518 0.0
C16 C 0.25102 0.10997 0.12523 0.0
C17 C 0.23703 0.08961 0.09457 0.0
C18 C 0.20125 0.09189 0.08511 0.0
C19 C 0.18013 0.11457 0.10562 0.0
C20 C 0.14224 0.19396 0.13175 0.0
C21 C 0.11699 0.21568 0.1473 0.0
C22 C 0.10046 0.241 0.12624 0.0
C23 C 0.10987 0.24624 0.08955 0.0
C24 C 0.13545 0.22489 0.07406 0.0
C25 C 0.15147 0.19907 0.09495 0.0
C26 C 0.14621 0.14093 0.19563 0.0
C27 C 0.16661 0.12183 0.2201 0.0
C28 C 0.151 0.10282 0.24843 0.0
C29 C 0.1147 0.10308 0.25327 0.0
C30 C 0.09404 0.1218 0.22867 0.0
C31 C 0.10965 0.1403 0.19973 0.0
P32 P 0.3929 0.90831 0.57953 0.0
H33 H 0.45937 0.93756 0.61134 0.0
H34 H 0.47924 0.95328 0.67458 0.0
H35 H 0.37458 0.92887 0.71265 0.0
H36 H 0.35474 0.91393 0.64939 0.0
H37 H 0.41096 0.86585 0.51385 0.0
H38 H 0.42213 0.80185 0.5039 0.0
H39 H 0.41255 0.78654 0.6206 0.0
H40 H 0.40132 0.84993 0.63032 0.0
H41 H 0.34915 0.95957 0.54317 0.0
H42 H 0.33377 0.8604 0.5998 0.0
O43 O 0.4136 0.93391 0.5492 0.0
H44 H 0.28541 0.96386 0.53701 0.0
H45 H 0.27012 0.86489 0.59418 0.0
C46 C 0.40554 0.92488 0.62546 0.0
C47 C 0.44052 0.93635 0.63318 0.0
C48 C 0.45187 0.94514 0.66937 0.0
C49 C 0.42848 0.94223 0.69866 0.0
C50 C 0.39312 0.9319 0.69068 0.0
C51 C 0.38179 0.92314 0.65441 0.0
C52 C 0.40568 0.86271 0.57286 0.0
C53 C 0.41193 0.84878 0.53733 0.0
C54 C 0.4184 0.81232 0.53166 0.0
C55 C 0.41807 0.78928 0.56145 0.0
C56 C 0.41271 0.80366 0.59709 0.0
C57 C 0.40646 0.83997 0.60272 0.0
C58 C 0.34619 0.90956 0.57172 0.0
C59 C 0.3321 0.93844 0.55374 0.0
C60 C 0.29572 0.94079 0.55008 0.0
C61 C 0.27292 0.91463 0.56501 0.0
C62 C 0.28714 0.88538 0.58241 0.0
C63 C 0.32349 0.88278 0.58556 0.0
P64 P 0.67918 0.32314 0.81248 0.0
H65 H 0.70575 0.30585 0.88473 0.0
H66 H 0.73594 0.34173 0.93419 0.0
H67 H 0.72052 0.43783 0.87348 0.0
H68 H 0.68748 0.40233 0.82648 0.0
H69 H 0.67577 0.24453 0.8129 0.0
H70 H 0.6399 0.20215 0.84729 0.0
H71 H 0.57774 0.28909 0.88628 0.0
H72 H 0.61493 0.33157 0.85295 0.0
H73 H 0.71029 0.37767 0.76631 0.0
H74 H 0.60863 0.3234 0.77736 0.0
O75 O 0.7129 0.30163 0.79546 0.0
H76 H 0.68548 0.41595 0.71975 0.0
H77 H 0.58432 0.36061 0.73 0.0
C78 C 0.69549 0.35113 0.85116 0.0
C79 C 0.70819 0.33478 0.88256 0.0
C80 C 0.72571 0.35538 0.91074 0.0
C81 C 0.73195 0.39268 0.90742 0.0
C82 C 0.71653 0.40925 0.87724 0.0
C83 C 0.69815 0.38868 0.84959 0.0
C84 C 0.648 0.29112 0.83056 0.0
C85 C 0.65407 0.25438 0.82835 0.0
C86 C 0.63337 0.2301 0.84793 0.0
C87 C 0.60618 0.24224 0.86993 0.0
C88 C 0.59894 0.27893 0.87024 0.0
C89 C 0.61989 0.3032 0.85091 0.0
C90 C 0.6611 0.34845 0.77604 0.0
C91 C 0.68276 0.37379 0.7585 0.0
C92 C 0.66875 0.39544 0.73188 0.0
C93 C 0.63319 0.39091 0.72145 0.0
C94 C 0.61193 0.36426 0.73758 0.0
C95 C 0.62576 0.34325 0.76488 0.0
P96 P 0.83407 0.64177 0.37377 0.0
H97 H 0.88529 0.69209 0.34479 0.0
H98 H 0.93331 0.72966 0.37279 0.0
H99 H 0.91253 0.6843 0.47846 0.0
H100 H 0.86438 0.64599 0.44984 0.0
H101 H 0.79506 0.59189 0.32238 0.0
H102 H 0.8137 0.55709 0.26799 0.0
H103 H 0.9219 0.58602 0.2969 0.0
H104 H 0.9037 0.61919 0.35161 0.0
H105 H 0.78104 0.67677 0.4146 0.0
H106 H 0.82271 0.57144 0.40863 0.0
O107 O 0.81245 0.67092 0.34913 0.0
H108 H 0.73807 0.65654 0.45812 0.0
H109 H 0.78032 0.55077 0.45427 0.0
C110 C 0.87106 0.66667 0.39527 0.0
C111 C 0.89134 0.68982 0.37388 0.0
C112 C 0.91908 0.71096 0.38988 0.0
C113 C 0.92692 0.70967 0.42782 0.0
C114 C 0.90711 0.68571 0.44916 0.0
C115 C 0.87952 0.66401 0.43286 0.0
C116 C 0.8479 0.60834 0.34098 0.0
C117 C 0.82282 0.5898 0.3176 0.0
C118 C 0.83338 0.57029 0.28647 0.0
C119 C 0.86909 0.56974 0.27821 0.0
C120 C 0.89418 0.5867 0.30261 0.0
C121 C 0.88369 0.60556 0.33396 0.0
C122 C 0.80429 0.62535 0.40768 0.0
C123 C 0.78106 0.64918 0.42305 0.0
C124 C 0.75679 0.6376 0.44864 0.0
C125 C 0.75552 0.60188 0.46017 0.0
C126 C 0.78009 0.57831 0.44578 0.0
C127 C 0.80435 0.59002 0.4197 0.0
P128 P 0.88177 0.88961 0.90901 0.0
H129 H 0.84959 0.94237 0.95768 0.0
H130 H 0.78945 0.95974 0.96445 0.0
H131 H 0.75389 0.87184 0.88962 0.0
H132 H 0.81462 0.85623 0.88119 0.0
H133 H 0.95161 0.86669 0.92383 0.0
H134 H 0.97517 0.81029 0.94179 0.0
H135 H 0.87032 0.76068 0.94017 0.0
H136 H 0.84664 0.81814 0.92343 0.0
H137 H 0.89313 0.9548 0.86914 0.0
H138 H 0.88173 0.84115 0.8424 0.0
O139 O 0.90709 0.92093 0.93225 0.0
H140 H 0.89946 0.96715 0.80432 0.0
H141 H 0.88729 0.85338 0.77656 0.0
C142 C 0.83667 0.89768 0.9192 0.0
C143 C 0.82886 0.92653 0.94301 0.0
C144 C 0.79421 0.93642 0.947 0.0
C145 C 0.76647 0.9175 0.92742 0.0
C146 C 0.77444 0.8877 0.90457 0.0
C147 C 0.80919 0.87821 0.90018 0.0
C148 C 0.89737 0.84681 0.92235 0.0
C149 C 0.93356 0.84381 0.92759 0.0
C150 C 0.94705 0.81138 0.93772 0.0
C151 C 0.92471 0.78074 0.94226 0.0
C152 C 0.88825 0.78382 0.93732 0.0
C153 C 0.87468 0.81661 0.92735 0.0
C154 C 0.88761 0.89707 0.86068 0.0
C155 C 0.89211 0.93242 0.84922 0.0
C156 C 0.8953 0.93946 0.81196 0.0
C157 C 0.89353 0.91129 0.78501 0.0
C158 C 0.88899 0.87568 0.79656 0.0
C159 C 0.88579 0.86866 0.83415 0.0
P160 P 0.66346 0.16555 0.36133 0.0
H161 H 0.68175 0.24145 0.37488 0.0
H162 H 0.65734 0.28809 0.41326 0.0
H163 H 0.58006 0.21085 0.45273 0.0
H164 H 0.60518 0.16349 0.41383 0.0
H165 H 0.73499 0.17775 0.38903 0.0
H166 H 0.77559 0.13975 0.41999 0.0
H167 H 0.69266 0.057 0.42721 0.0
H168 H 0.65231 0.09518 0.395 0.0
H169 H 0.58735 0.16948 0.34592 0.0
H170 H 0.67175 0.10461 0.31081 0.0
O171 O 0.6895 0.1869 0.33194 0.0
H172 H 0.54905 0.14094 0.29812 0.0
H173 H 0.63435 0.07774 0.2608 0.0
C174 C 0.64469 0.19917 0.39069 0.0
C175 C 0.65951 0.23432 0.39161 0.0
C176 C 0.64571 0.261 0.41394 0.0
C177 C 0.6168 0.25315 0.43613 0.0
C178 C 0.6022 0.2177 0.43572 0.0
C179 C 0.61645 0.19073 0.41353 0.0
C180 C 0.69107 0.13875 0.38875 0.0
C181 C 0.72548 0.15151 0.3975 0.0
C182 C 0.74859 0.12986 0.41567 0.0
C183 C 0.73754 0.09509 0.42586 0.0
C184 C 0.70221 0.08336 0.41913 0.0
C185 C 0.6791 0.10511 0.40078 0.0
C186 C 0.63236 0.1388 0.33246 0.0
C187 C 0.5975 0.14844 0.32857 0.0
C188 C 0.5757 0.13245 0.30055 0.0
C189 C 0.58867 0.10748 0.27483 0.0
C190 C 0.62316 0.09655 0.28008 0.0
C191 C 0.6447 0.11202 0.30868 0.0
P192 P 0.37656 0.62815 0.12246 0.0
H193 H 0.34267 0.60124 0.05274 0.0
H194 H 0.28357 0.57445 0.03822 0.0
H195 H 0.25482 0.59368 0.15128 0.0
H196 H 0.31335 0.6207 0.16547 0.0
H197 H 0.43667 0.67719 0.11198 0.0
H198 H 0.44348 0.74246 0.10958 0.0
H199 H 0.33341 0.75073 0.13234 0.0
H200 H 0.32679 0.68518 0.13461 0.0
H201 H 0.36654 0.55788 0.15332 0.0
H202 H 0.40879 0.66296 0.19018 0.0
O203 O 0.4042 0.61074 0.09253 0.0
H204 H 0.37579 0.53579 0.21496 0.0
H205 H 0.41977 0.64063 0.25141 0.0
C206 C 0.33246 0.61224 0.11031 0.0
C207 C 0.32349 0.59995 0.07424 0.0
C208 C 0.28982 0.58476 0.06597 0.0
C209 C 0.26497 0.58158 0.09381 0.0
C210 C 0.27374 0.59525 0.12951 0.0
C211 C 0.30711 0.61073 0.1376 0.0
C212 C 0.38106 0.67635 0.1223 0.0
C213 C 0.41404 0.69305 0.11658 0.0
C214 C 0.41798 0.73041 0.11583 0.0
C215 C 0.38894 0.75176 0.12092 0.0
C216 C 0.35617 0.73494 0.12818 0.0
C217 C 0.35233 0.69748 0.12919 0.0
C218 C 0.38661 0.61209 0.16729 0.0
C219 C 0.37807 0.57612 0.17465 0.0
C220 C 0.38345 0.56352 0.20988 0.0
C221 C 0.39827 0.58653 0.23821 0.0
C222 C 0.4075 0.62245 0.23045 0.0
C223 C 0.40164 0.63516 0.19526 0.0
P224 P 0.14178 0.34465 0.63303 0.0
H225 H 0.16033 0.27851 0.59642 0.0
H226 H 0.12816 0.23435 0.55643 0.0
H227 H 0.03566 0.29652 0.56362 0.0
H228 H 0.06853 0.34098 0.60451 0.0
H229 H 0.17958 0.4127 0.65181 0.0
H230 H 0.21797 0.45201 0.61647 0.0
H231 H 0.19172 0.38733 0.51776 0.0
H232 H 0.15298 0.34829 0.55308 0.0
H233 H 0.12071 0.3196 0.70457 0.0
H234 H 0.10587 0.41254 0.63964 0.0
O235 O 0.17362 0.32329 0.65396 0.0
H236 H 0.08946 0.34736 0.75536 0.0
H237 H 0.07584 0.44111 0.69067 0.0
C238 C 0.11648 0.31234 0.60427 0.0
C239 C 0.1331 0.28267 0.58954 0.0
C240 C 0.11479 0.25777 0.56598 0.0
C241 C 0.07936 0.26205 0.55639 0.0
C242 C 0.06291 0.29246 0.57049 0.0
C243 C 0.08151 0.31766 0.59406 0.0
C244 C 0.16308 0.37778 0.60516 0.0
C245 C 0.1811 0.40767 0.62235 0.0
C246 C 0.20298 0.43018 0.60205 0.0
C247 C 0.20774 0.42274 0.56429 0.0
C248 C 0.1885 0.39364 0.54679 0.0
C249 C 0.1663 0.37135 0.56708 0.0
C250 C 0.1161 0.36431 0.66867 0.0
C251 C 0.11079 0.34606 0.70132 0.0
C252 C 0.09322 0.36209 0.73046 0.0
C253 C 0.08052 0.39664 0.72731 0.0
C254 C 0.08509 0.41438 0.694 0.0
C255 C 0.10246 0.39819 0.66482 0.0
O256 O 0.98726 -0.00872 0.61177 0.0
Mg257 Mg 0.02546 0.01953 0.5831 0.0
O258 O 0.97071 0.95917 0.56127 0.0
Mg259 Mg -0.00497 0.98759 0.50873 0.0
O260 O 0.00521 0.04332 0.53783 0.0
O261 O 0.02588 0.07396 0.58852 0.0
O262 O 0.01927 0.0159 0.45616 0.0
O263 O 0.93837 0.00718 0.49647 0.0
Mg264 Mg 0.9638 0.95495 0.43566 0.0
O265 O 0.98453 0.93119 0.48045 0.0
O266 O 0.00061 0.98454 0.40607 0.0
O267 O 0.91561 0.97742 0.44709 0.0
O268 O 0.9647 0.90082 0.42921 0.0
C269 C 0.07657 0.9741 0.54496 0.0
C270 C 0.96932 0.96549 0.59611 0.0
C271 C 0.01169 0.07368 0.55592 0.0
C272 C 0.01956 0.00995 0.42118 0.0
C273 C 0.91272 -0.00017 0.47375 0.0
C274 C 0.97788 0.90088 0.46224 0.0
O275 O 0.07258 -0.00573 0.57319 0.0
O276 O 0.05213 0.9689 0.52042 0.0
O277 O 0.41619 0.04814 0.99416 0.0
Mg278 Mg 0.4674 0.05619 0.01554 0.0
O279 O 0.43195 -0.00136 0.01808 0.0
Mg280 Mg 0.49246 -0.00506 -8e-05 0.0
O281 O 0.50706 0.05407 0.97922 0.0
O282 O 0.485 0.10512 0.00172 0.0
O283 O 0.55221 0.98623 0.98528 0.0
O284 O 0.47211 0.98317 0.93833 0.0
Mg285 Mg 0.50421 0.91553 0.97139 0.0
O286 O 0.482 0.937 0.01733 0.0
O287 O 0.55802 0.92848 0.97041 0.0
O288 O 0.47643 0.92545 0.92295 0.0
O289 O 0.48549 0.87792 0.00644 0.0
C290 C 0.50184 0.03157 0.08315 0.0
C291 C 0.40757 0.01915 0.00894 0.0
C292 C 0.50599 0.08902 0.98014 0.0
C293 C 0.57118 0.96011 0.97593 0.0
C294 C 0.46769 0.95665 0.91506 0.0
C295 C 0.47602 0.90428 0.02731 0.0
O296 O 0.4791 0.05277 0.07251 0.0
O297 O 0.51291 0.0081 0.06043 0.0
O298 O 0.45396 0.57313 0.57215 0.0
Mg299 Mg 0.44631 0.52017 0.58867 0.0
O300 O 0.47413 0.56258 0.51579 0.0
Mg301 Mg 0.48425 0.5003 0.50906 0.0
O302 O 0.4879 0.49454 0.57006 0.0
O303 O 0.47782 0.49875 0.6295 0.0
O304 O 0.49364 0.43902 0.50245 0.0
O305 O 0.54656 0.51409 0.51843 0.0
Mg306 Mg 0.52519 0.49952 0.4579 0.0
O307 O 0.47422 0.50607 0.44418 0.0
O308 O 0.54326 0.44931 0.47456 0.0
O309 O 0.55549 0.54705 0.47129 0.0
O310 O 0.51626 0.49392 0.40352 0.0
C311 C 0.39823 0.48356 0.52902 0.0
C312 C 0.46346 0.5841 0.54103 0.0
C313 C 0.49711 0.48762 0.6032 0.0
C314 C 0.52225 0.4278 0.49023 0.0
C315 C 0.56633 0.53653 0.50182 0.0
C316 C 0.48439 0.50129 0.41044 0.0
O317 O 0.40201 0.49356 0.56273 0.0
O318 O 0.42366 0.48499 0.50664 0.0
O319 O 0.98229 0.41914 0.0531 0.0
Mg320 Mg 0.00448 0.47129 0.06502 0.0
O321 O 0.01709 0.43679 0.01067 0.0
Mg322 Mg -0.00748 0.49621 0.00786 0.0
O323 O 0.97124 0.51141 0.06875 0.0
O324 O 0.99061 0.4811 0.11709 0.0
O325 O 0.96986 0.55715 0.0061 0.0
O326 O 0.93901 0.46635 -0.00147 0.0
Mg327 Mg 0.97341 0.51824 0.95316 0.0
O328 O 0.01096 0.48136 0.94564 0.0
O329 O -0.00749 0.57159 0.95419 0.0
O330 O 0.91873 0.50599 0.96217 0.0
O331 O 0.97759 0.50245 0.90052 0.0
C332 C 0.06922 0.51089 0.04088 0.0
C333 C 0.00315 0.41099 0.02836 0.0
C334 C 0.97118 0.505 0.10377 0.0
C335 C 0.97853 0.58148 0.98352 0.0
C336 C 0.9134 0.47854 0.98106 0.0
C337 C 0.00259 0.48291 0.91072 0.0
O338 O 0.05943 0.48557 0.06136 0.0
O339 O 0.04709 0.52357 0.0188 0.0
H340 H 0.0932 0.12608 0.32097 0.0
H341 H 0.10086 0.03153 0.25039 0.0
H342 H 0.07438 -0.00583 0.29745 0.0
H343 H 0.04728 0.98865 0.35722 0.0
H344 H 0.03996 0.08195 0.42974 0.0
H345 H 0.06869 0.11964 0.3838 0.0
C346 C 0.0889 0.0973 0.31612 0.0
C347 C 0.09838 0.08141 0.28224 0.0
C348 C 0.07404 0.0759 0.34364 0.0
C349 C 0.09334 0.04415 0.27617 0.0
C350 C 0.07835 0.02286 0.30307 0.0
C351 C 0.05218 0.01723 0.36317 0.0
C352 C 0.04128 0.03254 0.39672 0.0
C353 C 0.06839 0.03847 0.33671 0.0
C354 C 0.04826 0.06949 0.40421 0.0
C355 C 0.0644 0.09105 0.37779 0.0
H356 H 0.39934 0.97736 0.75748 0.0
H357 H 0.48728 0.91489 0.72712 0.0
H358 H 0.50779 0.91609 0.79101 0.0
H359 H 0.49904 0.93111 0.8557 0.0
H360 H 0.41276 -0.00562 0.88829 0.0
H361 H 0.39314 -0.00327 0.82333 0.0
C362 C 0.42306 0.9642 0.76494 0.0
C363 C 0.44175 0.94606 0.73747 0.0
C364 C 0.43481 0.96493 0.80205 0.0
C365 C 0.47264 0.92942 0.7475 0.0
C366 C 0.48427 0.92985 0.7841 0.0
C367 C 0.47601 0.9456 0.84853 0.0
C368 C 0.45702 0.96214 0.87649 0.0
C369 C 0.46531 0.94699 0.81156 0.0
C370 C 0.42767 0.98142 0.86704 0.0
C371 C 0.41645 0.98258 0.83001 0.0
H372 H 0.59958 0.37467 0.65607 0.0
H373 H 0.63075 0.4628 0.73174 0.0
H374 H 0.5947 0.50303 0.69719 0.0
H375 H 0.54745 0.51013 0.65175 0.0
H376 H 0.51617 0.42284 0.57531 0.0
H377 H 0.55995 0.38522 0.603 0.0
C378 C 0.59897 0.4029 0.66429 0.0
C379 C 0.61722 0.41593 0.6964 0.0
C380 C 0.57822 0.42577 0.64429 0.0
C381 C 0.61676 0.45245 0.70701 0.0
C382 C 0.59608 0.47533 0.68742 0.0
C383 C 0.55103 0.48317 0.64061 0.0
C384 C 0.52875 0.46884 0.61205 0.0
C385 C 0.57573 0.46189 0.65692 0.0
C386 C 0.53338 0.4342 0.59729 0.0
C387 C 0.55806 0.41267 0.61338 0.0
H388 H 0.89877 0.60263 0.22078 0.0
H389 H 0.86535 0.49865 0.2593 0.0
H390 H 0.89178 0.4693 0.20599 0.0
H391 H 0.92936 0.47342 0.15227 0.0
H392 H 0.96117 0.57701 0.1117 0.0
H393 H 0.92989 0.60679 0.16176 0.0
C394 C 0.89693 0.57358 0.217 0.0
C395 C 0.88063 0.55256 0.24376 0.0
C396 C 0.91192 0.55708 0.18622 0.0
C397 C 0.87791 0.51507 0.23887 0.0
C398 C 0.89308 0.49841 0.20857 0.0
C399 C 0.92892 0.50253 0.15417 0.0
C400 C 0.94774 0.52322 0.12898 0.0
C401 C 0.91087 0.51914 0.18265 0.0
C402 C 0.94677 0.56077 0.13101 0.0
C403 C 0.92913 0.57768 0.15968 0.0
H404 H 0.28491 0.04185 0.11585 0.0
H405 H 0.24284 0.09172 0.02023 0.0
H406 H 0.28926 0.06783 0.9827 0.0
H407 H 0.34705 0.0417 0.97978 0.0
H408 H 0.38958 -0.00825 0.07506 0.0
H409 H 0.33743 0.00585 0.10974 0.0
C410 C 0.28559 0.04683 0.08662 0.0
C411 C 0.26078 0.06894 0.07092 0.0
C412 C 0.31252 0.03311 0.0652 0.0
C413 C 0.26159 0.0748 0.03295 0.0
C414 C 0.28827 0.06132 0.01151 0.0
C415 C 0.34432 0.03283 0.00775 0.0
C416 C 0.37225 0.01607 0.02495 0.0
C417 C 0.3146 0.04165 0.02768 0.0
C418 C 0.36839 0.00454 0.06113 0.0
C419 C 0.33876 0.01305 0.08114 0.0
H420 H 0.22905 0.92859 0.50735 0.0
H421 H 0.23135 0.91249 0.62439 0.0
H422 H 0.1698 0.92692 0.62792 0.0
H423 H 0.11694 0.94884 0.59882 0.0
H424 H 0.1127 0.96304 0.4816 0.0
H425 H 0.17327 0.94427 0.47681 0.0
C426 C 0.21585 0.92797 0.53348 0.0
C427 C 0.23467 0.91975 0.56562 0.0
C428 C 0.18027 0.93604 0.53526 0.0
C429 C 0.21733 0.91859 0.59929 0.0
C430 C 0.18221 0.927 0.60136 0.0
C431 C 0.12918 0.94739 0.57216 0.0
C432 C 0.1107 0.95762 0.54066 0.0
C433 C 0.16367 0.93643 0.56969 0.0
C434 C 0.12651 0.95518 0.50619 0.0
C435 C 0.16116 0.94471 0.50352 0.0
H436 H 0.79131 0.36752 0.93785 0.0
H437 H 0.73365 0.4641 0.93108 0.0
H438 H 0.78463 0.49965 0.95636 0.0
H439 H 0.84825 0.50383 0.9719 0.0
H440 H 0.90348 0.40629 0.98222 0.0
H441 H 0.85013 0.37041 0.96486 0.0
C442 C 0.78906 0.39611 0.94305 0.0
C443 C 0.75875 0.41306 0.93149 0.0
C444 C 0.81825 0.41632 0.95787 0.0
C445 C 0.75699 0.45035 0.93844 0.0
C446 C 0.78612 0.47075 0.95304 0.0
C447 C 0.84827 0.4747 0.97103 0.0
C448 C 0.87969 0.45766 0.97773 0.0
C449 C 0.81737 0.45415 0.96134 0.0
C450 C 0.87952 0.41995 0.97712 0.0
C451 C 0.8491 0.39943 0.96701 0.0
H452 H 0.72051 0.53576 0.4582 0.0
H453 H 0.72421 0.63906 0.51635 0.0
H454 H 0.666 0.6258 0.54013 0.0
H455 H 0.60956 0.58994 0.53327 0.0
H456 H 0.60821 0.48497 0.4796 0.0
H457 H 0.6704 0.49333 0.46625 0.0
C458 C 0.70939 0.55496 0.47716 0.0
C459 C 0.72615 0.58918 0.48378 0.0
C460 C 0.67606 0.54695 0.49138 0.0
C461 C 0.71117 0.61324 0.50904 0.0
C462 C 0.67789 0.60563 0.52293 0.0
C463 C 0.62339 0.56838 0.52018 0.0
C464 C 0.60458 0.53699 0.50732 0.0
C465 C 0.65927 0.5734 0.51254 0.0
C466 C 0.62244 0.50924 0.49002 0.0
C467 C 0.65791 0.51418 0.48199 0.0
H468 H 0.04106 0.2587 0.07793 0.0
H469 H 0.14533 0.30028 0.05495 0.0
H470 H 0.12119 0.35333 0.02782 0.0
H471 H 0.07052 0.39136 0.01785 0.0
H472 H 0.96653 0.34912 0.04158 0.0
H473 H 0.99019 0.29271 0.06009 0.0
C474 C 0.05839 0.27919 0.06649 0.0
C475 C 0.09488 0.2758 0.06874 0.0
C476 C 0.04431 0.30953 0.0509 0.0
C477 C 0.11711 0.30229 0.05348 0.0
C478 C 0.10332 0.33269 0.03807 0.0
C479 C 0.05299 0.36931 0.02581 0.0
C480 C 0.01681 0.37445 0.02839 0.0
C481 C 0.06696 0.33707 0.03744 0.0
C482 C -0.00553 0.34581 0.03936 0.0
C483 C 0.00801 0.31364 0.05029 0.0
H484 H 0.58469 0.17183 0.85575 0.0
H485 H 0.58645 0.25642 0.94041 0.0
H486 H 0.55692 0.21586 0.98206 0.0
H487 H 0.53018 0.15696 0.99446 0.0
H488 H 0.53032 0.07089 0.91193 0.0
H489 H 0.56069 0.11124 0.86968 0.0
C490 C 0.57888 0.18132 0.8834 0.0
C491 C 0.58737 0.21733 0.89465 0.0
C492 C 0.56263 0.15755 0.90768 0.0
C493 C 0.57937 0.22919 0.93055 0.0
C494 C 0.56285 0.2059 0.95461 0.0
C495 C 0.53706 0.14696 0.96727 0.0
C496 C 0.52797 0.1112 0.95611 0.0
C497 C 0.55429 0.17015 0.94341 0.0
C498 C 0.53735 0.09834 0.9211 0.0
C499 C 0.5544 0.12145 0.89692 0.0
H500 H 0.91843 0.75252 0.48869 0.0
H501 H -0.00747 0.72847 0.40446 0.0
H502 H 0.02383 0.7864 0.41718 0.0
H503 H 0.01857 0.84886 0.43881 0.0
H504 H 0.94245 0.87443 0.52002 0.0
H505 H 0.92438 0.8107 0.52333 0.0
C506 C 0.94236 0.75928 0.47433 0.0
C507 C 0.95256 0.73687 0.44488 0.0
C508 C 0.95957 0.79318 0.48102 0.0
C509 C 0.98372 0.7458 0.42662 0.0
C510 C 0.00156 0.77896 0.4338 0.0
C511 C -0.00053 0.8401 0.45874 0.0
C512 C 0.98147 0.86593 0.47877 0.0
C513 C 0.98812 0.80377 0.45899 0.0
C514 C 0.95666 0.85477 0.50446 0.0
C515 C 0.9459 0.81839 0.5058 0.0
H516 H 0.4664 0.75237 0.52197 0.0
H517 H 0.37399 0.7379 0.58739 0.0
H518 H 0.37852 0.67305 0.58326 0.0
H519 H 0.41054 0.62119 0.56556 0.0
H520 H 0.50388 0.63255 0.50148 0.0
H521 H 0.49683 0.69794 0.49969 0.0
C522 C 0.44716 0.73486 0.53492 0.0
C523 C 0.42026 0.74989 0.55559 0.0
C524 C 0.4501 0.69724 0.53269 0.0
C525 C 0.39534 0.72701 0.57209 0.0
C526 C 0.3978 0.68994 0.56959 0.0
C527 C 0.42936 0.63791 0.551 0.0
C528 C 0.45803 0.62232 0.53425 0.0
C529 C 0.42543 0.67492 0.55073 0.0
C530 C 0.48166 0.64408 0.5147 0.0
C531 C 0.47772 0.6814 0.51393 0.0
H532 H 0.92978 0.87609 0.73118 0.0
H533 H 0.8639 0.96567 0.74918 0.0
H534 H 0.87681 0.9869 0.68814 0.0
H535 H 0.91381 0.98537 0.63394 0.0
H536 H 0.97978 0.89662 0.61472 0.0
H537 H 0.95896 0.86895 0.67112 0.0
C538 C 0.91754 0.89972 0.72139 0.0
C539 C 0.89669 0.9198 0.74531 0.0
C540 C 0.92503 0.91188 0.68591 0.0
C541 C 0.88098 0.95032 0.73196 0.0
C542 C 0.88813 0.9624 0.69688 0.0
C543 C 0.92241 0.95919 0.64135 0.0
C544 C 0.94788 0.94277 0.62019 0.0
C545 C 0.9111 0.94416 0.67421 0.0
C546 C 0.95957 0.9093 0.63029 0.0
C547 C 0.94809 0.89383 0.66286 0.0
H548 H 0.58609 0.04218 0.23597 0.0
H549 H 0.54499 0.14827 0.23539 0.0
H550 H 0.51269 0.13255 0.17854 0.0
H551 H 0.49826 0.09077 0.12729 0.0
H552 H 0.54231 0.98635 0.1228 0.0
H553 H 0.57155 -0.00044 0.18307 0.0
C554 C 0.57012 0.0619 0.22342 0.0
C555 C 0.56773 0.09626 0.2407 0.0
C556 C 0.55223 0.0531 0.18964 0.0
C557 C 0.54667 0.12126 0.22379 0.0
C558 C 0.5284 0.11248 0.19086 0.0
C559 C 0.5139 0.07058 0.13955 0.0
C560 C 0.51788 0.03751 0.12061 0.0
C561 C 0.53118 0.07868 0.17346 0.0
C562 C 0.53875 0.01202 0.13681 0.0
C563 C 0.5555 0.01961 0.17123 0.0
H564 H 0.42349 0.52196 0.25342 0.0
H565 H 0.39048 0.61999 0.30584 0.0
H566 H 0.4094 0.59931 0.3659 0.0
H567 H 0.44145 0.55613 0.4022 0.0
H568 H 0.47648 0.45991 0.34824 0.0
H569 H 0.44902 0.47625 0.29024 0.0
C570 C 0.41951 0.53846 0.27803 0.0
C571 C 0.40589 0.57259 0.2751 0.0
C572 C 0.43058 0.52654 0.31224 0.0
C573 C 0.40156 0.59386 0.30728 0.0
C574 C 0.41213 0.58197 0.34165 0.0
C575 C 0.44204 0.53835 0.37792 0.0
C576 C 0.4608 0.50698 0.37911 0.0
C577 C 0.42752 0.54873 0.34432 0.0
C578 C 0.4621 0.48425 0.34761 0.0
C579 C 0.44666 0.49369 0.3145 0.0
H580 H 0.09709 0.39628 0.80117 0.0
H581 H 0.02239 0.43594 0.72324 0.0
H582 H -0.00742 0.46591 0.7732 0.0
H583 H 0.98735 0.48074 0.838 0.0
H584 H 0.06009 0.4411 0.91783 0.0
H585 H 0.09076 0.41048 0.8679 0.0
C586 C 0.07406 0.41116 0.79519 0.0
C587 C 0.06217 0.41401 0.75836 0.0
C588 C 0.05668 0.42814 0.82425 0.0
C589 C 0.03255 0.4338 0.75112 0.0
C590 C 0.0153 0.45076 0.77971 0.0
C591 C 0.00991 0.46542 0.84479 0.0
C592 C 0.02145 0.46331 0.88169 0.0
C593 C 0.02718 0.44815 0.81624 0.0
C594 C 0.05067 0.44318 0.88968 0.0
C595 C 0.06819 0.42573 0.86114 0.0
H596 H 0.7337 0.9476 0.98714 0.0
H597 H 0.71601 0.91533 0.87245 0.0
H598 H 0.6549 0.93014 0.8765 0.0
H599 H 0.60511 0.94699 0.91372 0.0
H600 H 0.62202 0.98164 0.02729 0.0
H601 H 0.68515 0.97266 0.02219 0.0
C602 C 0.71678 0.94439 0.96277 0.0
C603 C 0.72962 0.92933 0.92976 0.0
C604 C 0.68153 0.95379 0.96498 0.0
C605 C 0.70687 0.92545 0.89865 0.0
C606 C 0.67188 0.93438 0.90075 0.0
C607 C 0.6229 0.95364 0.93698 0.0
C608 C 0.60925 0.96526 0.97069 0.0
C609 C 0.65878 0.94782 0.93391 0.0
C610 C 0.6322 0.97334 0.00089 0.0
C611 C 0.66814 0.96768 -0.00194 0.0
H612 H 0.79305 0.11006 0.47417 0.0
H613 H 0.7416 0.02387 0.40739 0.0
H614 H 0.78951 0.98529 0.42065 0.0
H615 H 0.84917 0.97853 0.44411 0.0
H616 H 0.90263 0.06489 0.50869 0.0
H617 H 0.85085 0.10086 0.50333 0.0
C618 C 0.79221 0.08275 0.46274 0.0
C619 C 0.76382 0.07013 0.43945 0.0
C620 C 0.82042 0.06085 0.46969 0.0
C621 C 0.76283 0.03435 0.42561 0.0
C622 C 0.79046 0.0123 0.43286 0.0
C623 C 0.84939 0.00507 0.45742 0.0
C624 C 0.87989 0.01925 0.47625 0.0
C625 C 0.81984 0.02567 0.4538 0.0
C626 C 0.87952 0.0534 0.49391 0.0
C627 C 0.84999 0.07404 0.49067 0.0
H628 H 0.2179 0.59369 0.03883 0.0
H629 H 0.23459 0.52806 0.13246 0.0
H630 H 0.176 0.4993 0.12325 0.0
H631 H 0.11947 0.4946 0.09042 0.0
H632 H 0.10109 0.56141 -0.00208 0.0
H633 H 0.16098 0.58783 0.0047 0.0
C634 C 0.20869 0.57284 0.05689 0.0
C635 C 0.23027 0.56307 0.08637 0.0
C636 C 0.17473 0.55681 0.05177 0.0
C637 C 0.21816 0.53623 0.10985 0.0
C638 C 0.18476 0.51976 0.10455 0.0
C639 C 0.12854 0.5148 0.07156 0.0
C640 C 0.10579 0.52605 0.04377 0.0
C641 C 0.16269 0.53016 0.07591 0.0
C642 C 0.11803 0.55233 0.01965 0.0
C643 C 0.15227 0.56745 0.0235 0.0
H644 H 0.25797 0.39382 0.52251 0.0
H645 H 0.22223 0.49514 0.56428 0.0
H646 H 0.27787 0.52522 0.54828 0.0
H647 H 0.34008 0.51972 0.53546 0.0
H648 H 0.37745 0.41817 0.49726 0.0
H649 H 0.31745 0.39111 0.49766 0.0
C650 C 0.26189 0.4227 0.52684 0.0
C651 C 0.23639 0.4422 0.5452 0.0
C652 C 0.29437 0.43957 0.51859 0.0
C653 C 0.2418 0.47956 0.55079 0.0
C654 C 0.27359 0.49671 0.54172 0.0
C655 C 0.33473 0.492 0.52594 0.0
C656 C 0.36277 0.47073 0.51666 0.0
C657 C 0.30064 0.47658 0.52758 0.0
C658 C 0.35601 0.43494 0.50432 0.0
C659 C 0.32183 0.41945 0.50501 0.0
H660 H 0.90177 0.72828 0.98933 0.0
H661 H 0.98226 0.75359 0.91118 0.0
H662 H 0.00827 0.69656 0.92134 0.0
H663 H 0.00648 0.63808 0.9487 0.0
H664 H 0.92565 0.60938 0.02492 0.0
H665 H 0.90189 0.66921 0.01977 0.0
C666 C 0.92496 0.72123 0.97453 0.0
C667 C 0.94005 0.7455 0.9496 0.0
C668 C 0.93986 0.68783 0.98026 0.0
C669 C 0.97032 0.73594 0.93094 0.0
C670 C 0.9852 0.70315 0.93658 0.0
C671 C 0.98388 0.64497 0.96462 0.0
C672 C 0.96775 0.61919 0.98699 0.0
C673 C 0.97003 0.6788 0.9608 0.0
C674 C 0.93871 0.62877 0.00766 0.0
C675 C 0.92492 0.66286 0.00438 0.0
H676 H 0.44083 0.80024 0.14516 0.0
H677 H 0.34504 0.79024 0.07944 0.0
H678 H 0.35983 0.84731 0.05146 0.0
H679 H 0.40731 0.88948 0.03345 0.0
H680 H 0.5055 0.89579 0.0944 0.0
H681 H 0.48243 0.85173 0.13715 0.0
C682 C 0.42278 0.81116 0.12548 0.0
C683 C 0.39242 0.79064 0.11361 0.0
C684 C 0.43215 0.8433 0.1084 0.0
C685 C 0.36873 0.80537 0.08884 0.0
C686 C 0.37732 0.83791 0.07255 0.0
C687 C 0.42278 0.88264 0.05741 0.0
C688 C 0.45788 0.89551 0.06104 0.0
C689 C 0.40999 0.85575 0.08035 0.0
C690 C 0.47822 0.88631 0.09156 0.0
C691 C 0.46522 0.86064 0.11554 0.0
H692 H 0.01428 0.23417 0.57098 0.0
H693 H 0.09959 0.22216 0.49634 0.0
H694 H 0.07799 0.16079 0.47991 0.0
H695 H 0.04582 0.10676 0.50151 0.0
H696 H 0.96329 0.11871 0.57917 0.0
H697 H 0.97156 0.18402 0.57839 0.0
C698 C 0.02726 0.21879 0.54986 0.0
C699 C 0.05929 0.23211 0.53606 0.0
C700 C 0.01528 0.18318 0.54139 0.0
C701 C 0.07553 0.21193 0.50837 0.0
C702 C 0.06323 0.1768 0.49899 0.0
C703 C 0.02839 0.12384 0.5165 0.0
C704 C 0.00427 0.10836 0.54062 0.0
C705 C 0.03472 0.16134 0.51748 0.0
C706 C 0.982 0.13038 0.5604 0.0
C707 C 0.98711 0.16769 0.56039 0.0
H708 H 0.54786 0.26896 0.4426 0.0
H709 H 0.65271 0.30389 0.47959 0.0
H710 H 0.63106 0.35966 0.5052 0.0
H711 H 0.58439 0.40219 0.50814 0.0
H712 H 0.47934 0.36872 0.47153 0.0
H713 H 0.49864 0.30833 0.4556 0.0
C714 C 0.56573 0.28835 0.45719 0.0
C715 C 0.60197 0.28269 0.45844 0.0
C716 C 0.55309 0.3207 0.47167 0.0
C717 C 0.62484 0.30804 0.47749 0.0
C718 C 0.61249 0.33991 0.49221 0.0
C719 C 0.56557 0.38128 0.49765 0.0
C720 C 0.53068 0.38969 0.49069 0.0
C721 C 0.57699 0.34712 0.48808 0.0
C722 C 0.50633 0.36261 0.47729 0.0
C723 C 0.51748 0.32826 0.46781 0.0
loop_
_geom_bond_atom_site_label_1
_geom_bond_atom_site_label_2
_geom_bond_distance
_geom_bond_site_symmetry_2
_ccdc_geom_bond_type
P0 O11 1.490 . S
P0 C14 1.812 . S
P0 C20 1.803 . S
P0 C26 1.819 . S
H1 C15 0.941 . S
H2 C16 0.939 . S
H3 C18 0.940 . S
H4 C19 0.940 . S
H5 C21 0.939 . S
H6 C22 0.942 . S
H7 C24 0.940 . S
H8 C25 0.939 . S
H9 C27 0.941 . S
H10 C31 0.939 . S
O11 P0 1.490 . S
H12 C28 0.939 . S
H13 C30 0.940 . S
C14 P0 1.812 . S
C14 C15 1.389 . S
C14 C19 1.391 . S
C15 H1 0.941 . S
C15 C14 1.389 . S
C15 C16 1.397 . S
C16 H2 0.939 . S
C16 C15 1.397 . S
C16 C17 1.378 . S
C17 C16 1.378 . S
C17 C18 1.378 . S
C18 H3 0.940 . S
C18 C17 1.378 . S
C18 C19 1.396 . S
C19 H4 0.940 . S
C19 C14 1.391 . S
C19 C18 1.396 . S
C20 P0 1.803 . S
C20 C21 1.378 . S
C20 C25 1.400 . S
C21 H5 0.939 . S
C21 C20 1.378 . S
C21 C22 1.361 . S
C22 H6 0.942 . S
C22 C21 1.361 . S
C22 C23 1.369 . S
C23 C22 1.369 . S
C23 C24 1.404 . S
C24 H7 0.940 . S
C24 C23 1.404 . S
C24 C25 1.389 . S
C25 H8 0.939 . S
C25 C20 1.400 . S
C25 C24 1.389 . S
C26 P0 1.819 . S
C26 C27 1.391 . S
C26 C31 1.391 . S
C27 H9 0.941 . S
C27 C26 1.391 . S
C27 C28 1.396 . S
C28 H12 0.939 . S
C28 C27 1.396 . S
C28 C29 1.397 . S
C29 C28 1.397 . S
C29 C30 1.385 . S
C30 H13 0.940 . S
C30 C29 1.385 . S
C30 C31 1.388 . S
C31 H10 0.939 . S
C31 C26 1.391 . S
C31 C30 1.388 . S
P32 O43 1.490 . S
P32 C46 1.812 . S
P32 C52 1.803 . S
P32 C58 1.819 . S
H33 C47 0.941 . S
H34 C48 0.939 . S
H35 C50 0.940 . S
H36 C51 0.940 . S
H37 C53 0.939 . S
H38 C54 0.942 . S
H39 C56 0.940 . S
H40 C57 0.939 . S
H41 C59 0.941 . S
H42 C63 0.939 . S
O43 P32 1.490 . S
H44 C60 0.939 . S
H45 C62 0.940 . S
C46 P32 1.812 . S
C46 C47 1.389 . S
C46 C51 1.391 . S
C47 H33 0.941 . S
C47 C46 1.389 . S
C47 C48 1.397 . S
C48 H34 0.939 . S
C48 C47 1.397 . S
C48 C49 1.378 . S
C49 C48 1.378 . S
C49 C50 1.378 . S
C50 H35 0.940 . S
C50 C49 1.378 . S
C50 C51 1.396 . S
C51 H36 0.940 . S
C51 C46 1.391 . S
C51 C50 1.396 . S
C52 P32 1.803 . S
C52 C53 1.378 . S
C52 C57 1.400 . S
C53 H37 0.939 . S
C53 C52 1.378 . S
C53 C54 1.361 . S
C54 H38 0.942 . S
C54 C53 1.361 . S
C54 C55 1.369 . S
C55 C54 1.369 . S
C55 C56 1.404 . S
C56 H39 0.940 . S
C56 C55 1.404 . S
C56 C57 1.389 . S
C57 H40 0.939 . S
C57 C52 1.400 . S
C57 C56 1.389 . S
C58 P32 1.819 . S
C58 C59 1.391 . S
C58 C63 1.391 . S
C59 H41 0.941 . S
C59 C58 1.391 . S
C59 C60 1.396 . S
C60 H44 0.939 . S
C60 C59 1.396 . S
C60 C61 1.397 . S
C61 C60 1.397 . S
C61 C62 1.385 . S
C62 H45 0.940 . S
C62 C61 1.385 . S
C62 C63 1.388 . S
C63 H42 0.939 . S
C63 C58 1.391 . S
C63 C62 1.388 . S
P64 O75 1.490 . S
P64 C78 1.812 . S
P64 C84 1.803 . S
P64 C90 1.819 . S
H65 C79 0.941 . S
H66 C80 0.939 . S
H67 C82 0.940 . S
H68 C83 0.940 . S
H69 C85 0.939 . S
H70 C86 0.942 . S
H71 C88 0.940 . S
H72 C89 0.939 . S
H73 C91 0.941 . S
H74 C95 0.939 . S
O75 P64 1.490 . S
H76 C92 0.939 . S
H77 C94 0.940 . S
C78 P64 1.812 . S
C78 C79 1.389 . S
C78 C83 1.391 . S
C79 H65 0.941 . S
C79 C78 1.389 . S
C79 C80 1.397 . S
C80 H66 0.939 . S
C80 C79 1.397 . S
C80 C81 1.378 . S
C81 C80 1.378 . S
C81 C82 1.378 . S
C82 H67 0.940 . S
C82 C81 1.378 . S
C82 C83 1.396 . S
C83 H68 0.940 . S
C83 C78 1.391 . S
C83 C82 1.396 . S
C84 P64 1.803 . S
C84 C85 1.378 . S
C84 C89 1.400 . S
C85 H69 0.939 . S
C85 C84 1.378 . S
C85 C86 1.361 . S
C86 H70 0.942 . S
C86 C85 1.361 . S
C86 C87 1.369 . S
C87 C86 1.369 . S
C87 C88 1.404 . S
C88 H71 0.940 . S
C88 C87 1.404 . S
C88 C89 1.389 . S
C89 H72 0.939 . S
C89 C84 1.400 . S
C89 C88 1.389 . S
C90 P64 1.819 . S
C90 C91 1.391 . S
C90 C95 1.391 . S
C91 H73 0.941 . S
C91 C90 1.391 . S
C91 C92 1.396 . S
C92 H76 0.939 . S
C92 C91 1.396 . S
C92 C93 1.397 . S
C93 C92 1.397 . S
C93 C94 1.385 . S
C94 H77 0.940 . S
C94 C93 1.385 . S
C94 C95 1.388 . S
C95 H74 0.939 . S
C95 C90 1.391 . S
C95 C94 1.388 . S
P96 O107 1.490 . S
P96 C110 1.812 . S
P96 C116 1.803 . S
P96 C122 1.819 . S
H97 C111 0.941 . S
H98 C112 0.939 . S
H99 C114 0.940 . S
H100 C115 0.940 . S
H101 C117 0.939 . S
H102 C118 0.942 . S
H103 C120 0.940 . S
H104 C121 0.939 . S
H105 C123 0.941 . S
H106 C127 0.939 . S
O107 P96 1.490 . S
H108 C124 0.939 . S
H109 C126 0.940 . S
C110 P96 1.812 . S
C110 C111 1.389 . S
C110 C115 1.391 . S
C111 H97 0.941 . S
C111 C110 1.389 . S
C111 C112 1.397 . S
C112 H98 0.939 . S
C112 C111 1.397 . S
C112 C113 1.378 . S
C113 C112 1.378 . S
C113 C114 1.378 . S
C114 H99 0.940 . S
C114 C113 1.378 . S
C114 C115 1.396 . S
C115 H100 0.940 . S
C115 C110 1.391 . S
C115 C114 1.396 . S
C116 P96 1.803 . S
C116 C117 1.378 . S
C116 C121 1.400 . S
C117 H101 0.939 . S
C117 C116 1.378 . S
C117 C118 1.361 . S
C118 H102 0.942 . S
C118 C117 1.361 . S
C118 C119 1.369 . S
C119 C118 1.369 . S
C119 C120 1.404 . S
C120 H103 0.940 . S
C120 C119 1.404 . S
C120 C121 1.389 . S
C121 H104 0.939 . S
C121 C116 1.400 . S
C121 C120 1.389 . S
C122 P96 1.819 . S
C122 C123 1.391 . S
C122 C127 1.391 . S
C123 H105 0.941 . S
C123 C122 1.391 . S
C123 C124 1.396 . S
C124 H108 0.939 . S
C124 C123 1.396 . S
C124 C125 1.397 . S
C125 C124 1.397 . S
C125 C126 1.385 . S
C126 H109 0.940 . S
C126 C125 1.385 . S
C126 C127 1.388 . S
C127 H106 0.939 . S
C127 C122 1.391 . S
C127 C126 1.388 . S
P128 O139 1.490 . S
P128 C142 1.812 . S
P128 C148 1.803 . S
P128 C154 1.819 . S
H129 C143 0.941 . S
H130 C144 0.939 . S
H131 C146 0.940 . S
H132 C147 0.940 . S
H133 C149 0.939 . S
H134 C150 0.942 . S
H135 C152 0.940 . S
H136 C153 0.939 . S
H137 C155 0.941 . S
H138 C159 0.939 . S
O139 P128 1.490 . S
H140 C156 0.939 . S
H141 C158 0.940 . S
C142 P128 1.812 . S
C142 C143 1.389 . S
C142 C147 1.391 . S
C143 H129 0.941 . S
C143 C142 1.389 . S
C143 C144 1.397 . S
C144 H130 0.939 . S
C144 C143 1.397 . S
C144 C145 1.378 . S
C145 C144 1.378 . S
C145 C146 1.378 . S
C146 H131 0.940 . S
C146 C145 1.378 . S
C146 C147 1.396 . S
C147 H132 0.940 . S
C147 C142 1.391 . S
C147 C146 1.396 . S
C148 P128 1.803 . S
C148 C149 1.378 . S
C148 C153 1.400 . S
C149 H133 0.939 . S
C149 C148 1.378 . S
C149 C150 1.361 . S
C150 H134 0.942 . S
C150 C149 1.361 . S
C150 C151 1.369 . S
C151 C150 1.369 . S
C151 C152 1.404 . S
C152 H135 0.940 . S
C152 C151 1.404 . S
C152 C153 1.389 . S
C153 H136 0.939 . S
C153 C148 1.400 . S
C153 C152 1.389 . S
C154 P128 1.819 . S
C154 C155 1.391 . S
C154 C159 1.391 . S
C155 H137 0.941 . S
C155 C154 1.391 . S
C155 C156 1.396 . S
C156 H140 0.939 . S
C156 C155 1.396 . S
C156 C157 1.397 . S
C157 C156 1.397 . S
C157 C158 1.385 . S
C158 H141 0.940 . S
C158 C157 1.385 . S
C158 C159 1.388 . S
C159 H138 0.939 . S
C159 C154 1.391 . S
C159 C158 1.388 . S
P160 O171 1.490 . S
P160 C174 1.812 . S
P160 C180 1.803 . S
P160 C186 1.819 . S
H161 C175 0.941 . S
H162 C176 0.939 . S
H163 C178 0.940 . S
H164 C179 0.940 . S
H165 C181 0.939 . S
H166 C182 0.942 . S
H167 C184 0.940 . S
H168 C185 0.939 . S
H169 C187 0.941 . S
H170 C191 0.939 . S
O171 P160 1.490 . S
H172 C188 0.939 . S
H173 C190 0.940 . S
C174 P160 1.812 . S
C174 C175 1.389 . S
C174 C179 1.391 . S
C175 H161 0.941 . S
C175 C174 1.389 . S
C175 C176 1.397 . S
C176 H162 0.939 . S
C176 C175 1.397 . S
C176 C177 1.378 . S
C177 C176 1.378 . S
C177 C178 1.378 . S
C178 H163 0.940 . S
C178 C177 1.378 . S
C178 C179 1.396 . S
C179 H164 0.940 . S
C179 C174 1.391 . S
C179 C178 1.396 . S
C180 P160 1.803 . S
C180 C181 1.378 . S
C180 C185 1.400 . S
C181 H165 0.939 . S
C181 C180 1.378 . S
C181 C182 1.361 . S
C182 H166 0.942 . S
C182 C181 1.361 . S
C182 C183 1.369 . S
C183 C182 1.369 . S
C183 C184 1.404 . S
C184 H167 0.940 . S
C184 C183 1.404 . S
C184 C185 1.389 . S
C185 H168 0.939 . S
C185 C180 1.400 . S
C185 C184 1.389 . S
C186 P160 1.819 . S
C186 C187 1.391 . S
C186 C191 1.391 . S
C187 H169 0.941 . S
C187 C186 1.391 . S
C187 C188 1.396 . S
C188 H172 0.939 . S
C188 C187 1.396 . S
C188 C189 1.397 . S
C189 C188 1.397 . S
C189 C190 1.385 . S
C190 H173 0.940 . S
C190 C189 1.385 . S
C190 C191 1.388 . S
C191 H170 0.939 . S
C191 C186 1.391 . S
C191 C190 1.388 . S
P192 O203 1.490 . S
P192 C206 1.812 . S
P192 C212 1.803 . S
P192 C218 1.819 . S
H193 C207 0.941 . S
H194 C208 0.939 . S
H195 C210 0.940 . S
H196 C211 0.940 . S
H197 C213 0.939 . S
H198 C214 0.942 . S
H199 C216 0.940 . S
H200 C217 0.939 . S
H201 C219 0.941 . S
H202 C223 0.939 . S
O203 P192 1.490 . S
H204 C220 0.939 . S
H205 C222 0.940 . S
C206 P192 1.812 . S
C206 C207 1.389 . S
C206 C211 1.391 . S
C207 H193 0.941 . S
C207 C206 1.389 . S
C207 C208 1.397 . S
C208 H194 0.939 . S
C208 C207 1.397 . S
C208 C209 1.378 . S
C209 C208 1.378 . S
C209 C210 1.378 . S
C210 H195 0.940 . S
C210 C209 1.378 . S
C210 C211 1.396 . S
C211 H196 0.940 . S
C211 C206 1.391 . S
C211 C210 1.396 . S
C212 P192 1.803 . S
C212 C213 1.378 . S
C212 C217 1.400 . S
C213 H197 0.939 . S
C213 C212 1.378 . S
C213 C214 1.361 . S
C214 H198 0.942 . S
C214 C213 1.361 . S
C214 C215 1.369 . S
C215 C214 1.369 . S
C215 C216 1.404 . S
C216 H199 0.940 . S
C216 C215 1.404 . S
C216 C217 1.389 . S
C217 H200 0.939 . S
C217 C212 1.400 . S
C217 C216 1.389 . S
C218 P192 1.819 . S
C218 C219 1.391 . S
C218 C223 1.391 . S
C219 H201 0.941 . S
C219 C218 1.391 . S
C219 C220 1.396 . S
C220 H204 0.939 . S
C220 C219 1.396 . S
C220 C221 1.397 . S
C221 C220 1.397 . S
C221 C222 1.385 . S
C222 H205 0.940 . S
C222 C221 1.385 . S
C222 C223 1.388 . S
C223 H202 0.939 . S
C223 C218 1.391 . S
C223 C222 1.388 . S
P224 O235 1.490 . S
P224 C238 1.812 . S
P224 C244 1.803 . S
P224 C250 1.819 . S
H225 C239 0.941 . S
H226 C240 0.939 . S
H227 C242 0.940 . S
H228 C243 0.940 . S
H229 C245 0.939 . S
H230 C246 0.942 . S
H231 C248 0.940 . S
H232 C249 0.939 . S
H233 C251 0.941 . S
H234 C255 0.939 . S
O235 P224 1.490 . S
H236 C252 0.939 . S
H237 C254 0.940 . S
C238 P224 1.812 . S
C238 C239 1.389 . S
C238 C243 1.391 . S
C239 H225 0.941 . S
C239 C238 1.389 . S
C239 C240 1.397 . S
C240 H226 0.939 . S
C240 C239 1.397 . S
C240 C241 1.378 . S
C241 C240 1.378 . S
C241 C242 1.378 . S
C242 H227 0.940 . S
C242 C241 1.378 . S
C242 C243 1.396 . S
C243 H228 0.940 . S
C243 C238 1.391 . S
C243 C242 1.396 . S
C244 P224 1.803 . S
C244 C245 1.378 . S
C244 C249 1.400 . S
C245 H229 0.939 . S
C245 C244 1.378 . S
C245 C246 1.361 . S
C246 H230 0.942 . S
C246 C245 1.361 . S
C246 C247 1.369 . S
C247 C246 1.369 . S
C247 C248 1.404 . S
C248 H231 0.940 . S
C248 C247 1.404 . S
C248 C249 1.389 . S
C249 H232 0.939 . S
C249 C244 1.400 . S
C249 C248 1.389 . S
C250 P224 1.819 . S
C250 C251 1.391 . S
C250 C255 1.391 . S
C251 H233 0.941 . S
C251 C250 1.391 . S
C251 C252 1.396 . S
C252 H236 0.939 . S
C252 C251 1.396 . S
C252 C253 1.397 . S
C253 C252 1.397 . S
C253 C254 1.385 . S
C254 H237 0.940 . S
C254 C253 1.385 . S
C254 C255 1.388 . S
C255 H234 0.939 . S
C255 C250 1.391 . S
C255 C254 1.388 . S
O256 Mg257 1.990 . S
O256 C270 1.253 1_445 S
Mg257 O256 1.990 . S
Mg257 O260 2.180 . S
Mg257 O261 2.117 . S
Mg257 O275 2.030 1_545 S
O258 Mg259 2.072 1_665 S
O258 C270 1.260 . S
Mg259 O258 2.072 1_445 S
Mg259 O260 2.099 . S
Mg259 O262 2.079 . S
Mg259 O263 2.072 1_455 S
Mg259 O265 2.099 1_445 S
Mg259 O276 2.079 1_545 S
O260 Mg257 2.180 . S
O260 Mg259 2.099 . S
O260 C271 1.279 . S
O261 Mg257 2.117 . S
O261 C271 1.250 . S
O262 Mg259 2.079 . S
O262 C272 1.264 . S
O263 Mg259 2.072 1_655 S
O263 C273 1.260 . S
Mg264 O265 2.180 . S
Mg264 O266 2.030 1_565 S
Mg264 O267 1.990 1_565 S
Mg264 O268 2.117 . S
O265 Mg259 2.099 1_665 S
O265 Mg264 2.180 . S
O265 C274 1.279 . S
O266 Mg264 2.030 1_545 S
O266 C272 1.248 1_655 S
O267 Mg264 1.990 1_545 S
O267 C273 1.253 . S
O268 Mg264 2.117 . S
O268 C274 1.250 . S
C269 O275 1.248 . S
C269 O276 1.264 . S
C270 O256 1.253 1_665 S
C270 O258 1.260 . S
C271 O260 1.279 . S
C271 O261 1.250 . S
C272 O262 1.264 . S
C272 O266 1.248 1_455 S
C273 O263 1.260 . S
C273 O267 1.253 . S
C274 O265 1.279 . S
C274 O268 1.250 . S
O275 Mg257 2.030 1_565 S
O275 C269 1.248 . S
O276 Mg259 2.079 1_565 S
O276 C269 1.264 . S
O277 Mg278 1.990 . S
O277 C291 1.253 . S
Mg278 O277 1.990 . S
Mg278 O281 2.180 . S
Mg278 O282 2.117 1_554 S
Mg278 O296 2.030 . S
O279 Mg280 2.072 . S
O279 C291 1.260 . S
Mg280 O279 2.072 . S
Mg280 O281 2.099 . S
Mg280 O283 2.086 1_554 S
Mg280 O284 2.072 1_554 S
Mg280 O286 2.099 1_545 S
Mg280 O297 2.079 . S
O281 Mg278 2.180 . S
O281 Mg280 2.099 . S
O281 C292 1.279 1_554 S
O282 Mg278 2.117 1_556 S
O282 C292 1.250 . S
O283 Mg280 2.086 1_556 S
O283 C293 1.248 1_545 S
O284 Mg280 2.072 1_556 S
O284 C294 1.260 1_545 S
Mg285 O286 2.180 1_556 S
Mg285 O287 2.030 . S
Mg285 O288 1.990 . S
Mg285 O289 2.117 1_556 S
O286 Mg280 2.099 1_565 S
O286 Mg285 2.180 1_554 S
O286 C295 1.279 . S
O287 Mg285 2.030 . S
O287 C293 1.248 . S
O288 Mg285 1.990 . S
O288 C294 1.253 . S
O289 Mg285 2.117 1_554 S
O289 C295 1.250 . S
C290 O296 1.248 . S
C290 O297 1.264 . S
C291 O277 1.253 . S
C291 O279 1.260 . S
C292 O281 1.279 1_556 S
C292 O282 1.250 . S
C293 O283 1.248 1_565 S
C293 O287 1.248 . S
C294 O284 1.260 1_565 S
C294 O288 1.253 . S
C295 O286 1.279 . S
C295 O289 1.250 . S
O296 Mg278 2.030 . S
O296 C290 1.248 . S
O297 Mg280 2.079 . S
O297 C290 1.264 . S
O298 Mg299 1.990 . S
O298 C312 1.253 . S
Mg299 O298 1.990 . S
Mg299 O302 2.180 . S
Mg299 O303 2.117 . S
Mg299 O317 2.030 . S
O300 Mg301 2.072 . S
O300 C312 1.260 . S
Mg301 O300 2.072 . S
Mg301 O302 2.099 . S
Mg301 O304 2.079 . S
Mg301 O305 2.072 . S
Mg301 O307 2.099 . S
Mg301 O318 2.079 . S
O302 Mg299 2.180 . S
O302 Mg301 2.099 . S
O302 C313 1.279 . S
O303 Mg299 2.117 . S
O303 C313 1.250 . S
O304 Mg301 2.079 . S
O304 C314 1.264 . S
O305 Mg301 2.072 . S
O305 C315 1.260 . S
Mg306 O307 2.180 . S
Mg306 O308 2.030 . S
Mg306 O309 1.990 . S
Mg306 O310 2.117 . S
O307 Mg301 2.099 . S
O307 Mg306 2.180 . S
O307 C316 1.279 . S
O308 Mg306 2.030 . S
O308 C314 1.248 . S
O309 Mg306 1.990 . S
O309 C315 1.253 . S
O310 Mg306 2.117 . S
O310 C316 1.250 . S
C311 O317 1.248 . S
C311 O318 1.264 . S
C312 O298 1.253 . S
C312 O300 1.260 . S
C313 O302 1.279 . S
C313 O303 1.250 . S
C314 O304 1.264 . S
C314 O308 1.248 . S
C315 O305 1.260 . S
C315 O309 1.253 . S
C316 O307 1.279 . S
C316 O310 1.250 . S
O317 Mg299 2.030 . S
O317 C311 1.248 . S
O318 Mg301 2.079 . S
O318 C311 1.264 . S
O319 Mg320 1.990 . S
O319 C333 1.253 . S
Mg320 O319 1.990 . S
Mg320 O323 2.180 1_455 S
Mg320 O324 2.117 1_455 S
Mg320 O338 2.030 . S
O321 Mg322 2.072 . S
O321 C333 1.260 . S
Mg322 O321 2.072 . S
Mg322 O323 2.099 1_455 S
Mg322 O325 2.079 1_454 S
Mg322 O326 2.072 1_455 S
Mg322 O328 2.099 1_554 S
Mg322 O339 2.079 . S
O323 Mg320 2.180 1_655 S
O323 Mg322 2.099 1_655 S
O323 C334 1.279 . S
O324 Mg320 2.117 1_655 S
O324 C334 1.250 . S
O325 Mg322 2.079 1_656 S
O325 C335 1.264 . S
O326 Mg322 2.072 1_655 S
O326 C336 1.260 1_554 S
Mg327 O328 2.180 1_655 S
Mg327 O329 2.030 . S
Mg327 O330 1.990 . S
Mg327 O331 2.117 . S
O328 Mg322 2.099 1_556 S
O328 Mg327 2.180 1_455 S
O328 C337 1.279 . S
O329 Mg327 2.030 . S
O329 C335 1.248 . S
O330 Mg327 1.990 . S
O330 C336 1.253 . S
O331 Mg327 2.117 . S
O331 C337 1.250 1_655 S
C332 O338 1.248 . S
C332 O339 1.264 . S
C333 O319 1.253 . S
C333 O321 1.260 . S
C334 O323 1.279 . S
C334 O324 1.250 . S
C335 O325 1.264 . S
C335 O329 1.248 . S
C336 O326 1.260 1_556 S
C336 O330 1.253 . S
C337 O328 1.279 . S
C337 O331 1.250 1_455 S
O338 Mg320 2.030 . S
O338 C332 1.248 . S
O339 Mg322 2.079 . S
O339 C332 1.264 . S
H340 C346 0.930 . S
H341 C349 0.930 . S
H342 C350 0.930 . S
H343 C351 0.930 . S
H344 C354 0.931 1_655 S
H345 C355 0.930 . S
C346 H340 0.930 . S
C346 C347 1.355 . S
C346 C348 1.415 . S
C347 C346 1.355 . S
C347 C349 1.419 . S
C348 C346 1.415 . S
C348 C353 1.425 . S
C348 C355 1.409 . S
C349 H341 0.930 . S
C349 C347 1.419 . S
C349 C350 1.362 . S
C350 H342 0.930 . S
C350 C349 1.362 . S
C350 C353 1.409 . S
C351 H343 0.930 . S
C351 C352 1.355 . S
C351 C353 1.415 . S
C352 C351 1.355 . S
C352 C354 1.419 . S
C353 C348 1.425 . S
C353 C350 1.409 . S
C353 C351 1.415 . S
C354 H344 0.931 1_455 S
C354 C352 1.419 . S
C354 C355 1.362 . S
C355 H345 0.930 . S
C355 C348 1.409 . S
C355 C354 1.362 . S
H356 C362 0.930 . S
H357 C365 0.930 . S
H358 C366 0.930 . S
H359 C367 0.930 . S
H360 C370 0.930 . S
H361 C371 0.930 . S
C362 H356 0.930 . S
C362 C363 1.355 . S
C362 C364 1.415 . S
C363 C362 1.355 . S
C363 C365 1.419 . S
C364 C362 1.415 . S
C364 C369 1.425 . S
C364 C371 1.409 . S
C365 H357 0.930 . S
C365 C363 1.419 . S
C365 C366 1.362 . S
C366 H358 0.930 . S
C366 C365 1.362 . S
C366 C369 1.409 . S
C367 H359 0.930 . S
C367 C368 1.355 . S
C367 C369 1.415 . S
C368 C367 1.355 . S
C368 C370 1.419 . S
C369 C364 1.425 . S
C369 C366 1.409 . S
C369 C367 1.415 . S
C370 H360 0.930 . S
C370 C368 1.419 . S
C370 C371 1.362 . S
C371 H361 0.930 . S
C371 C364 1.409 . S
C371 C370 1.362 . S
H372 C378 0.930 . S
H373 C381 0.930 . S
H374 C382 0.930 . S
H375 C383 0.930 . S
H376 C386 0.930 . S
H377 C387 0.930 . S
C378 H372 0.930 . S
C378 C379 1.355 . S
C378 C380 1.415 . S
C379 C378 1.355 . S
C379 C381 1.419 . S
C380 C378 1.415 . S
C380 C385 1.425 . S
C380 C387 1.409 . S
C381 H373 0.930 . S
C381 C379 1.419 . S
C381 C382 1.362 . S
C382 H374 0.930 . S
C382 C381 1.362 . S
C382 C385 1.409 . S
C383 H375 0.930 . S
C383 C384 1.355 . S
C383 C385 1.415 . S
C384 C383 1.355 . S
C384 C386 1.419 . S
C385 C380 1.425 . S
C385 C382 1.409 . S
C385 C383 1.415 . S
C386 H376 0.930 . S
C386 C384 1.419 . S
C386 C387 1.362 . S
C387 H377 0.930 . S
C387 C380 1.409 . S
C387 C386 1.362 . S
H388 C394 0.930 . S
H389 C397 0.930 . S
H390 C398 0.930 . S
H391 C399 0.930 . S
H392 C402 0.930 1_455 S
H393 C403 0.930 1_455 S
C394 H388 0.930 . S
C394 C395 1.355 . S
C394 C396 1.415 . S
C395 C394 1.355 . S
C395 C397 1.419 . S
C396 C394 1.415 . S
C396 C401 1.425 . S
C396 C403 1.409 . S
C397 H389 0.930 . S
C397 C395 1.419 . S
C397 C398 1.362 . S
C398 H390 0.930 . S
C398 C397 1.362 . S
C398 C401 1.409 . S
C399 H391 0.930 . S
C399 C400 1.355 . S
C399 C401 1.415 . S
C400 C399 1.355 . S
C400 C402 1.419 . S
C401 C396 1.425 . S
C401 C398 1.409 . S
C401 C399 1.415 . S
C402 H392 0.930 1_655 S
C402 C400 1.419 . S
C402 C403 1.362 . S
C403 H393 0.930 1_655 S
C403 C396 1.409 . S
C403 C402 1.362 . S
H404 C410 0.930 . S
H405 C413 0.930 . S
H406 C414 0.930 1_556 S
H407 C415 0.930 . S
H408 C418 0.930 . S
H409 C419 0.930 . S
C410 H404 0.930 . S
C410 C411 1.355 . S
C410 C412 1.415 . S
C411 C410 1.355 . S
C411 C413 1.419 . S
C412 C410 1.415 . S
C412 C417 1.425 . S
C412 C419 1.409 . S
C413 H405 0.930 . S
C413 C411 1.419 . S
C413 C414 1.362 . S
C414 H406 0.930 1_554 S
C414 C413 1.362 . S
C414 C417 1.409 . S
C415 H407 0.930 . S
C415 C416 1.355 . S
C415 C417 1.415 . S
C416 C415 1.355 . S
C416 C418 1.419 . S
C417 C412 1.425 . S
C417 C414 1.409 . S
C417 C415 1.415 . S
C418 H408 0.930 . S
C418 C416 1.419 . S
C418 C419 1.362 . S
C419 H409 0.930 . S
C419 C412 1.409 . S
C419 C418 1.362 . S
H420 C426 0.930 . S
H421 C429 0.930 . S
H422 C430 0.930 . S
H423 C431 0.930 . S
H424 C434 0.930 . S
H425 C435 0.930 . S
C426 H420 0.930 . S
C426 C427 1.355 . S
C426 C428 1.415 . S
C427 C426 1.355 . S
C427 C429 1.419 . S
C428 C426 1.415 . S
C428 C433 1.425 . S
C428 C435 1.409 . S
C429 H421 0.930 . S
C429 C427 1.419 . S
C429 C430 1.362 . S
C430 H422 0.930 . S
C430 C429 1.362 . S
C430 C433 1.409 . S
C431 H423 0.930 . S
C431 C432 1.355 . S
C431 C433 1.415 . S
C432 C431 1.355 . S
C432 C434 1.419 . S
C433 C428 1.425 . S
C433 C430 1.409 . S
C433 C431 1.415 . S
C434 H424 0.930 . S
C434 C432 1.419 . S
C434 C435 1.362 . S
C435 H425 0.930 . S
C435 C428 1.409 . S
C435 C434 1.362 . S
H436 C442 0.930 . S
H437 C445 0.930 . S
H438 C446 0.930 1_554 S
H439 C447 0.930 1_554 S
H440 C450 0.930 . S
H441 C451 0.930 . S
C442 H436 0.930 . S
C442 C443 1.355 . S
C442 C444 1.415 . S
C443 C442 1.355 . S
C443 C445 1.419 . S
C444 C442 1.415 . S
C444 C449 1.425 . S
C444 C451 1.409 . S
C445 H437 0.930 . S
C445 C443 1.419 . S
C445 C446 1.362 . S
C446 H438 0.930 1_556 S
C446 C445 1.362 . S
C446 C449 1.409 . S
C447 H439 0.930 1_556 S
C447 C448 1.355 . S
C447 C449 1.415 . S
C448 C447 1.355 . S
C448 C450 1.419 . S
C449 C444 1.425 . S
C449 C446 1.409 . S
C449 C447 1.415 . S
C450 H440 0.930 . S
C450 C448 1.419 . S
C450 C451 1.362 . S
C451 H441 0.930 . S
C451 C444 1.409 . S
C451 C450 1.362 . S
H452 C458 0.930 . S
H453 C461 0.930 . S
H454 C462 0.930 . S
H455 C463 0.930 . S
H456 C466 0.930 . S
H457 C467 0.930 . S
C458 H452 0.930 . S
C458 C459 1.355 . S
C458 C460 1.415 . S
C459 C458 1.355 . S
C459 C461 1.419 . S
C460 C458 1.415 . S
C460 C465 1.425 . S
C460 C467 1.409 . S
C461 H453 0.930 . S
C461 C459 1.419 . S
C461 C462 1.362 . S
C462 H454 0.930 . S
C462 C461 1.362 . S
C462 C465 1.409 . S
C463 H455 0.930 . S
C463 C464 1.355 . S
C463 C465 1.415 . S
C464 C463 1.355 . S
C464 C466 1.419 . S
C465 C460 1.425 . S
C465 C462 1.409 . S
C465 C463 1.415 . S
C466 H456 0.930 . S
C466 C464 1.419 . S
C466 C467 1.362 . S
C467 H457 0.930 . S
C467 C460 1.409 . S
C467 C466 1.362 . S
H468 C474 0.930 . S
H469 C477 0.930 . S
H470 C478 0.930 . S
H471 C479 0.930 . S
H472 C482 0.930 1_655 S
H473 C483 0.930 . S
C474 H468 0.930 . S
C474 C475 1.355 . S
C474 C476 1.415 . S
C475 C474 1.355 . S
C475 C477 1.419 . S
C476 C474 1.415 . S
C476 C481 1.425 . S
C476 C483 1.409 . S
C477 H469 0.930 . S
C477 C475 1.419 . S
C477 C478 1.362 . S
C478 H470 0.930 . S
C478 C477 1.362 . S
C478 C481 1.409 . S
C479 H471 0.930 . S
C479 C480 1.355 . S
C479 C481 1.415 . S
C480 C479 1.355 . S
C480 C482 1.419 . S
C481 C476 1.425 . S
C481 C478 1.409 . S
C481 C479 1.415 . S
C482 H472 0.930 1_455 S
C482 C480 1.419 . S
C482 C483 1.362 . S
C483 H473 0.930 . S
C483 C476 1.409 . S
C483 C482 1.362 . S
H484 C490 0.930 . S
H485 C493 0.930 . S
H486 C494 0.930 . S
H487 C495 0.930 . S
H488 C498 0.930 . S
H489 C499 0.930 . S
C490 H484 0.930 . S
C490 C491 1.355 . S
C490 C492 1.415 . S
C491 C490 1.355 . S
C491 C493 1.419 . S
C492 C490 1.415 . S
C492 C497 1.425 . S
C492 C499 1.409 . S
C493 H485 0.930 . S
C493 C491 1.419 . S
C493 C494 1.362 . S
C494 H486 0.930 . S
C494 C493 1.362 . S
C494 C497 1.409 . S
C495 H487 0.930 . S
C495 C496 1.355 . S
C495 C497 1.415 . S
C496 C495 1.355 . S
C496 C498 1.419 . S
C497 C492 1.425 . S
C497 C494 1.409 . S
C497 C495 1.415 . S
C498 H488 0.930 . S
C498 C496 1.419 . S
C498 C499 1.362 . S
C499 H489 0.930 . S
C499 C492 1.409 . S
C499 C498 1.362 . S
H500 C506 0.930 . S
H501 C509 0.930 . S
H502 C510 0.930 . S
H503 C511 0.930 . S
H504 C514 0.930 . S
H505 C515 0.930 . S
C506 H500 0.930 . S
C506 C507 1.355 . S
C506 C508 1.415 . S
C507 C506 1.355 . S
C507 C509 1.419 . S
C508 C506 1.415 . S
C508 C513 1.425 . S
C508 C515 1.409 . S
C509 H501 0.930 . S
C509 C507 1.419 . S
C509 C510 1.362 . S
C510 H502 0.930 . S
C510 C509 1.362 . S
C510 C513 1.409 . S
C511 H503 0.930 . S
C511 C512 1.355 . S
C511 C513 1.415 . S
C512 C511 1.355 . S
C512 C514 1.419 . S
C513 C508 1.425 . S
C513 C510 1.409 . S
C513 C511 1.415 . S
C514 H504 0.930 . S
C514 C512 1.419 . S
C514 C515 1.362 . S
C515 H505 0.930 . S
C515 C508 1.409 . S
C515 C514 1.362 . S
H516 C522 0.930 . S
H517 C525 0.930 . S
H518 C526 0.930 . S
H519 C527 0.930 . S
H520 C530 0.930 . S
H521 C531 0.930 . S
C522 H516 0.930 . S
C522 C523 1.355 . S
C522 C524 1.415 . S
C523 C522 1.355 . S
C523 C525 1.419 . S
C524 C522 1.415 . S
C524 C529 1.425 . S
C524 C531 1.409 . S
C525 H517 0.930 . S
C525 C523 1.419 . S
C525 C526 1.362 . S
C526 H518 0.930 . S
C526 C525 1.362 . S
C526 C529 1.409 . S
C527 H519 0.930 . S
C527 C528 1.355 . S
C527 C529 1.415 . S
C528 C527 1.355 . S
C528 C530 1.419 . S
C529 C524 1.425 . S
C529 C526 1.409 . S
C529 C527 1.415 . S
C530 H520 0.930 . S
C530 C528 1.419 . S
C530 C531 1.362 . S
C531 H521 0.930 . S
C531 C524 1.409 . S
C531 C530 1.362 . S
H532 C538 0.930 . S
H533 C541 0.930 . S
H534 C542 0.930 . S
H535 C543 0.930 . S
H536 C546 0.930 1_455 S
H537 C547 0.930 1_455 S
C538 H532 0.930 . S
C538 C539 1.355 . S
C538 C540 1.415 . S
C539 C538 1.355 . S
C539 C541 1.419 . S
C540 C538 1.415 . S
C540 C545 1.425 . S
C540 C547 1.409 . S
C541 H533 0.930 . S
C541 C539 1.419 . S
C541 C542 1.362 . S
C542 H534 0.930 . S
C542 C541 1.362 . S
C542 C545 1.409 . S
C543 H535 0.930 . S
C543 C544 1.355 . S
C543 C545 1.415 . S
C544 C543 1.355 . S
C544 C546 1.419 . S
C545 C540 1.425 . S
C545 C542 1.409 . S
C545 C543 1.415 . S
C546 H536 0.930 1_655 S
C546 C544 1.419 . S
C546 C547 1.362 . S
C547 H537 0.930 1_655 S
C547 C540 1.409 . S
C547 C546 1.362 . S
H548 C554 0.930 . S
H549 C557 0.930 . S
H550 C558 0.930 . S
H551 C559 0.930 . S
H552 C562 0.930 1_565 S
H553 C563 0.930 1_565 S
C554 H548 0.930 . S
C554 C555 1.355 . S
C554 C556 1.415 . S
C555 C554 1.355 . S
C555 C557 1.419 . S
C556 C554 1.415 . S
C556 C561 1.425 . S
C556 C563 1.409 . S
C557 H549 0.930 . S
C557 C555 1.419 . S
C557 C558 1.362 . S
C558 H550 0.930 . S
C558 C557 1.362 . S
C558 C561 1.409 . S
C559 H551 0.930 . S
C559 C560 1.355 . S
C559 C561 1.415 . S
C560 C559 1.355 . S
C560 C562 1.419 . S
C561 C556 1.425 . S
C561 C558 1.409 . S
C561 C559 1.415 . S
C562 H552 0.930 1_545 S
C562 C560 1.419 . S
C562 C563 1.362 . S
C563 H553 0.930 1_545 S
C563 C556 1.409 . S
C563 C562 1.362 . S
H564 C570 0.930 . S
H565 C573 0.930 . S
H566 C574 0.930 . S
H567 C575 0.930 . S
H568 C578 0.930 . S
H569 C579 0.930 . S
C570 H564 0.930 . S
C570 C571 1.355 . S
C570 C572 1.415 . S
C571 C570 1.355 . S
C571 C573 1.419 . S
C572 C570 1.415 . S
C572 C577 1.425 . S
C572 C579 1.409 . S
C573 H565 0.930 . S
C573 C571 1.419 . S
C573 C574 1.362 . S
C574 H566 0.930 . S
C574 C573 1.362 . S
C574 C577 1.409 . S
C575 H567 0.930 . S
C575 C576 1.355 . S
C575 C577 1.415 . S
C576 C575 1.355 . S
C576 C578 1.419 . S
C577 C572 1.425 . S
C577 C574 1.409 . S
C577 C575 1.415 . S
C578 H568 0.930 . S
C578 C576 1.419 . S
C578 C579 1.362 . S
C579 H569 0.930 . S
C579 C572 1.409 . S
C579 C578 1.362 . S
H580 C586 0.930 . S
H581 C589 0.930 . S
H582 C590 0.930 1_655 S
H583 C591 0.928 1_655 S
H584 C594 0.930 . S
H585 C595 0.930 . S
C586 H580 0.930 . S
C586 C587 1.355 . S
C586 C588 1.415 . S
C587 C586 1.355 . S
C587 C589 1.419 . S
C588 C586 1.415 . S
C588 C593 1.425 . S
C588 C595 1.409 . S
C589 H581 0.930 . S
C589 C587 1.419 . S
C589 C590 1.362 . S
C590 H582 0.930 1_455 S
C590 C589 1.362 . S
C590 C593 1.409 . S
C591 H583 0.928 1_455 S
C591 C592 1.355 . S
C591 C593 1.415 . S
C592 C591 1.355 . S
C592 C594 1.419 . S
C593 C588 1.425 . S
C593 C590 1.409 . S
C593 C591 1.415 . S
C594 H584 0.930 . S
C594 C592 1.419 . S
C594 C595 1.362 . S
C595 H585 0.930 . S
C595 C588 1.409 . S
C595 C594 1.362 . S
H596 C602 0.930 . S
H597 C605 0.930 . S
H598 C606 0.930 . S
H599 C607 0.930 . S
H600 C610 0.930 1_554 S
H601 C611 0.930 1_554 S
C602 H596 0.930 . S
C602 C603 1.355 . S
C602 C604 1.415 . S
C603 C602 1.355 . S
C603 C605 1.419 . S
C604 C602 1.415 . S
C604 C609 1.425 . S
C604 C611 1.409 . S
C605 H597 0.930 . S
C605 C603 1.419 . S
C605 C606 1.362 . S
C606 H598 0.930 . S
C606 C605 1.362 . S
C606 C609 1.409 . S
C607 H599 0.930 . S
C607 C608 1.355 . S
C607 C609 1.415 . S
C608 C607 1.355 . S
C608 C610 1.419 . S
C609 C604 1.425 . S
C609 C606 1.409 . S
C609 C607 1.415 . S
C610 H600 0.930 1_556 S
C610 C608 1.419 . S
C610 C611 1.362 . S
C611 H601 0.930 1_556 S
C611 C604 1.409 . S
C611 C610 1.362 . S
H612 C618 0.930 . S
H613 C621 0.930 . S
H614 C622 0.930 . S
H615 C623 0.930 . S
H616 C626 0.930 . S
H617 C627 0.930 . S
C618 H612 0.930 . S
C618 C619 1.355 . S
C618 C620 1.415 . S
C619 C618 1.355 . S
C619 C621 1.419 . S
C620 C618 1.415 . S
C620 C625 1.425 . S
C620 C627 1.409 . S
C621 H613 0.930 . S
C621 C619 1.419 . S
C621 C622 1.362 . S
C622 H614 0.930 . S
C622 C621 1.362 . S
C622 C625 1.409 . S
C623 H615 0.930 . S
C623 C624 1.355 . S
C623 C625 1.415 . S
C624 C623 1.355 . S
C624 C626 1.419 . S
C625 C620 1.425 . S
C625 C622 1.409 . S
C625 C623 1.415 . S
C626 H616 0.930 . S
C626 C624 1.419 . S
C626 C627 1.362 . S
C627 H617 0.930 . S
C627 C620 1.409 . S
C627 C626 1.362 . S
H628 C634 0.930 . S
H629 C637 0.930 . S
H630 C638 0.930 . S
H631 C639 0.930 . S
H632 C642 0.930 1_556 S
H633 C643 0.930 . S
C634 H628 0.930 . S
C634 C635 1.355 . S
C634 C636 1.415 . S
C635 C634 1.355 . S
C635 C637 1.419 . S
C636 C634 1.415 . S
C636 C641 1.425 . S
C636 C643 1.409 . S
C637 H629 0.930 . S
C637 C635 1.419 . S
C637 C638 1.362 . S
C638 H630 0.930 . S
C638 C637 1.362 . S
C638 C641 1.409 . S
C639 H631 0.930 . S
C639 C640 1.355 . S
C639 C641 1.415 . S
C640 C639 1.355 . S
C640 C642 1.419 . S
C641 C636 1.425 . S
C641 C638 1.409 . S
C641 C639 1.415 . S
C642 H632 0.930 1_554 S
C642 C640 1.419 . S
C642 C643 1.362 . S
C643 H633 0.930 . S
C643 C636 1.409 . S
C643 C642 1.362 . S
H644 C650 0.930 . S
H645 C653 0.930 . S
H646 C654 0.930 . S
H647 C655 0.930 . S
H648 C658 0.930 . S
H649 C659 0.930 . S
C650 H644 0.930 . S
C650 C651 1.355 . S
C650 C652 1.415 . S
C651 C650 1.355 . S
C651 C653 1.419 . S
C652 C650 1.415 . S
C652 C657 1.425 . S
C652 C659 1.409 . S
C653 H645 0.930 . S
C653 C651 1.419 . S
C653 C654 1.362 . S
C654 H646 0.930 . S
C654 C653 1.362 . S
C654 C657 1.409 . S
C655 H647 0.930 . S
C655 C656 1.355 . S
C655 C657 1.415 . S
C656 C655 1.355 . S
C656 C658 1.419 . S
C657 C652 1.425 . S
C657 C654 1.409 . S
C657 C655 1.415 . S
C658 H648 0.930 . S
C658 C656 1.419 . S
C658 C659 1.362 . S
C659 H649 0.930 . S
C659 C652 1.409 . S
C659 C658 1.362 . S
H660 C666 0.930 . S
H661 C669 0.930 . S
H662 C670 0.930 1_455 S
H663 C671 0.949 . S
H664 C674 0.930 . S
H665 C675 0.930 . S
C666 H660 0.930 . S
C666 C667 1.355 . S
C666 C668 1.415 . S
C667 C666 1.355 . S
C667 C669 1.419 . S
C668 C666 1.415 . S
C668 C673 1.425 . S
C668 C675 1.409 . S
C669 H661 0.930 . S
C669 C667 1.419 . S
C669 C670 1.362 . S
C670 H662 0.930 1_655 S
C670 C669 1.362 . S
C670 C673 1.409 . S
C671 H663 0.949 . S
C671 C672 1.355 . S
C671 C673 1.415 . S
C672 C671 1.355 . S
C672 C674 1.419 . S
C673 C668 1.425 . S
C673 C670 1.409 . S
C673 C671 1.415 . S
C674 H664 0.930 . S
C674 C672 1.419 . S
C674 C675 1.362 . S
C675 H665 0.930 . S
C675 C668 1.409 . S
C675 C674 1.362 . S
H676 C682 0.930 . S
H677 C685 0.930 . S
H678 C686 0.930 . S
H679 C687 0.930 . S
H680 C690 0.930 . S
H681 C691 0.930 . S
C682 H676 0.930 . S
C682 C683 1.355 . S
C682 C684 1.415 . S
C683 C682 1.355 . S
C683 C685 1.419 . S
C684 C682 1.415 . S
C684 C689 1.425 . S
C684 C691 1.409 . S
C685 H677 0.930 . S
C685 C683 1.419 . S
C685 C686 1.362 . S
C686 H678 0.930 . S
C686 C685 1.362 . S
C686 C689 1.409 . S
C687 H679 0.930 . S
C687 C688 1.355 . S
C687 C689 1.415 . S
C688 C687 1.355 . S
C688 C690 1.419 . S
C689 C684 1.425 . S
C689 C686 1.409 . S
C689 C687 1.415 . S
C690 H680 0.930 . S
C690 C688 1.419 . S
C690 C691 1.362 . S
C691 H681 0.930 . S
C691 C684 1.409 . S
C691 C690 1.362 . S
H692 C698 0.930 . S
H693 C701 0.930 . S
H694 C702 0.930 . S
H695 C703 0.930 . S
H696 C706 0.930 . S
H697 C707 0.934 . S
C698 H692 0.930 . S
C698 C699 1.355 . S
C698 C700 1.415 . S
C699 C698 1.355 . S
C699 C701 1.419 . S
C700 C698 1.415 . S
C700 C705 1.425 . S
C700 C707 1.405 1_455 S
C701 H693 0.930 . S
C701 C699 1.419 . S
C701 C702 1.362 . S
C702 H694 0.930 . S
C702 C701 1.362 . S
C702 C705 1.409 . S
C703 H695 0.930 . S
C703 C704 1.355 . S
C703 C705 1.415 . S
C704 C703 1.355 . S
C704 C706 1.419 1_455 S
C705 C700 1.425 . S
C705 C702 1.409 . S
C705 C703 1.415 . S
C706 H696 0.930 . S
C706 C704 1.419 1_655 S
C706 C707 1.362 . S
C707 H697 0.934 . S
C707 C700 1.405 1_655 S
C707 C706 1.362 . S
H708 C714 0.930 . S
H709 C717 0.930 . S
H710 C718 0.930 . S
H711 C719 0.930 . S
H712 C722 0.930 . S
H713 C723 0.930 . S
C714 H708 0.930 . S
C714 C715 1.355 . S
C714 C716 1.415 . S
C715 C714 1.355 . S
C715 C717 1.419 . S
C716 C714 1.415 . S
C716 C721 1.425 . S
C716 C723 1.409 . S
C717 H709 0.930 . S
C717 C715 1.419 . S
C717 C718 1.362 . S
C718 H710 0.930 . S
C718 C717 1.362 . S
C718 C721 1.409 . S
C719 H711 0.930 . S
C719 C720 1.355 . S
C719 C721 1.415 . S
C720 C719 1.355 . S
C720 C722 1.419 . S
C721 C716 1.425 . S
C721 C718 1.409 . S
C721 C719 1.415 . S
C722 H712 0.930 . S
C722 C720 1.419 . S
C722 C723 1.362 . S
C723 H713 0.930 . S
C723 C716 1.409 . S
C723 C722 1.362 . S
C347 C29 1.551 . S
C352 C272 1.565 . S
C363 C49 1.448 . S
C368 C294 1.393 . S
C384 C313 1.194 . S
C379 C93 1.419 . S
C395 C119 1.595 . S
C400 C334 1.332 . S
C416 C291 1.716 . S
C411 C17 1.700 . S
C432 C269 1.672 . S
C427 C61 1.729 . S
C448 C336 1.263 . S
C443 C81 1.334 . S
C464 C315 1.453 . S
C459 C125 1.401 . S
C475 C23 1.577 . S
C480 C333 1.625 . S
C496 C292 1.278 . S
C491 C87 1.487 . S
C507 C113 1.539 . S
C512 C274 1.563 . S
C523 C55 1.528 . S
C528 C312 1.502 . S
C544 C270 1.547 . S
C539 C157 1.598 . S
C555 C189 1.249 . S
C560 C290 1.336 . S
C571 C221 1.526 . S
C576 C316 1.199 . S
C587 C253 1.636 . S
C592 C337 1.436 . S
C603 C145 1.735 . S
C608 C293 1.686 . S
C624 C273 1.657 . S
C619 C183 1.612 . S
C640 C332 1.299 . S
C635 C209 1.323 . S
C656 C311 1.510 . S
C651 C247 1.496 . S
C667 C151 1.530 . S
C672 C335 1.498 . S
C688 C295 1.215 . S
C683 C215 1.502 . S
C704 C271 1.372 . S
C699 C241 1.408 . S
C715 C177 1.371 . S
C720 C314 1.468 . S
