# Generated by pormake.
# Topology the, (3,8)-cn, num edge types: 1
# Building blocks:
#     Node 0, Type 0, BuildingBlock: VETTIZ_charged_linker_0, # of connection points: 3
#     Node 1, Type 0, BuildingBlock: VETTIZ_charged_linker_0, # of connection points: 3
#     Node 2, Type 0, BuildingBlock: VETTIZ_charged_linker_0, # of connection points: 3
#     Node 3, Type 0, BuildingBlock: VETTIZ_charged_linker_0, # of connection points: 3
#     Node 4, Type 0, BuildingBlock: VETTIZ_charged_linker_0, # of connection points: 3
#     Node 5, Type 0, BuildingBlock: VETTIZ_charged_linker_0, # of connection points: 3
#     Node 6, Type 0, BuildingBlock: VETTIZ_charged_linker_0, # of connection points: 3
#     Node 7, Type 0, BuildingBlock: VETTIZ_charged_linker_0, # of connection points: 3
#     Node 8, Type 1, BuildingBlock: GIZVER_clean_sbu_0, # of connection points: 8
#     Node 9, Type 1, BuildingBlock: GIZVER_clean_sbu_0, # of connection points: 8
#     Node 10, Type 1, BuildingBlock: GIZVER_clean_sbu_0, # of connection points: 8
#     Edge 11, Type (0, 1), BuildingBlock: KIFKEQ_clean_linker_1, # of connection points: 2
#     Edge 12, Type (0, 1), BuildingBlock: KIFKEQ_clean_linker_1, # of connection points: 2
#     Edge 13, Type (0, 1), BuildingBlock: KIFKEQ_clean_linker_1, # of connection points: 2
#     Edge 14, Type (0, 1), BuildingBlock: KIFKEQ_clean_linker_1, # of connection points: 2
#     Edge 15, Type (0, 1), BuildingBlock: KIFKEQ_clean_linker_1, # of connection points: 2
#     Edge 16, Type (0, 1), BuildingBlock: KIFKEQ_clean_linker_1, # of connection points: 2
#     Edge 17, Type (0, 1), BuildingBlock: KIFKEQ_clean_linker_1, # of connection points: 2
#     Edge 18, Type (0, 1), BuildingBlock: KIFKEQ_clean_linker_1, # of connection points: 2
#     Edge 19, Type (0, 1), BuildingBlock: KIFKEQ_clean_linker_1, # of connection points: 2
#     Edge 20, Type (0, 1), BuildingBlock: KIFKEQ_clean_linker_1, # of connection points: 2
#     Edge 21, Type (0, 1), BuildingBlock: KIFKEQ_clean_linker_1, # of connection points: 2
#     Edge 22, Type (0, 1), BuildingBlock: KIFKEQ_clean_linker_1, # of connection points: 2
#     Edge 23, Type (0, 1), BuildingBlock: KIFKEQ_clean_linker_1, # of connection points: 2
#     Edge 24, Type (0, 1), BuildingBlock: KIFKEQ_clean_linker_1, # of connection points: 2
#     Edge 25, Type (0, 1), BuildingBlock: KIFKEQ_clean_linker_1, # of connection points: 2
#     Edge 26, Type (0, 1), BuildingBlock: KIFKEQ_clean_linker_1, # of connection points: 2
#     Edge 27, Type (0, 1), BuildingBlock: KIFKEQ_clean_linker_1, # of connection points: 2
#     Edge 28, Type (0, 1), BuildingBlock: KIFKEQ_clean_linker_1, # of connection points: 2
#     Edge 29, Type (0, 1), BuildingBlock: KIFKEQ_clean_linker_1, # of connection points: 2
#     Edge 30, Type (0, 1), BuildingBlock: KIFKEQ_clean_linker_1, # of connection points: 2
#     Edge 31, Type (0, 1), BuildingBlock: KIFKEQ_clean_linker_1, # of connection points: 2
#     Edge 32, Type (0, 1), BuildingBlock: KIFKEQ_clean_linker_1, # of connection points: 2
#     Edge 33, Type (0, 1), BuildingBlock: KIFKEQ_clean_linker_1, # of connection points: 2
#     Edge 34, Type (0, 1), BuildingBlock: KIFKEQ_clean_linker_1, # of connection points: 2
# Relax obj value: 0.046
# Max RMSD: 0.138
# Mean RMSD: 0.067
data_MOF--net-the--node1-GIZVER_clean_sbu_0--node2-VETTIZ_charged_linker_0--edge1-KIFKEQ_clean_linker_1
_symmetry_space_group_name_H-M    P1
_symmetry_Int_Tables_number       1
_symmetry_cell_setting            triclinic
loop_
_symmetry_equiv_pos_as_xyz
'x, y, z'
_cell_length_a     50.361925
_cell_length_b     47.695782
_cell_length_c     44.211597
_cell_angle_alpha  86.711886
_cell_angle_beta   94.304653
_cell_angle_gamma 101.49562
loop_
_atom_site_label
_atom_site_type_symbol
_atom_site_fract_x
_atom_site_fract_y
_atom_site_fract_z
_atom_type_partial_charge
C0 C 0.33717 0.24852 0.42649 0.0
C1 C 0.35621 0.2367 0.41245 0.0
C2 C 0.36743 0.2503 0.38588 0.0
C3 C 0.34034 0.2867 0.38744 0.0
C4 C 0.32946 0.27335 0.41356 0.0
C5 C 0.30866 0.28805 0.42492 0.0
H6 H 0.2343 0.39135 0.40482 0.0
C7 C 0.32764 0.31169 0.37962 0.0
C8 C 0.30906 0.31257 0.40146 0.0
H9 H 0.23098 0.32525 0.47646 0.0
H10 H 0.26732 0.30807 0.45554 0.0
H11 H 0.24167 0.35234 0.35036 0.0
H12 H 0.29885 0.40883 0.40754 0.0
H13 H 0.31159 0.41252 0.37134 0.0
H14 H 0.27935 0.42222 0.37636 0.0
H15 H 0.24448 0.39052 0.34858 0.0
H16 H 0.26551 0.37364 0.32725 0.0
C17 C 0.28099 0.26676 0.42379 0.0
C18 C 0.31896 0.29883 0.45693 0.0
C19 C 0.35338 0.37408 0.28548 0.0
C20 C 0.34511 0.39872 0.27233 0.0
C21 C 0.32629 0.41071 0.2868 0.0
C22 C 0.31538 0.39789 0.31366 0.0
C23 C 0.32349 0.37291 0.32622 0.0
C24 C 0.34245 0.36166 0.31233 0.0
C25 C 0.34919 0.33544 0.32916 0.0
C26 C 0.33099 0.33265 0.3554 0.0
C27 C 0.31583 0.35447 0.35343 0.0
C28 C 0.34095 0.3099 0.30796 0.0
C29 C 0.37969 0.34204 0.34003 0.0
C30 C 0.24162 0.3734 0.41627 0.0
C31 C 0.22973 0.35959 0.44231 0.0
C32 C 0.23958 0.33601 0.45616 0.0
C33 C 0.26076 0.32616 0.44404 0.0
C34 C 0.27215 0.33997 0.41774 0.0
C35 C 0.26274 0.36335 0.40449 0.0
C36 C 0.27734 0.37549 0.37679 0.0
C37 C 0.29678 0.35518 0.37528 0.0
C38 C 0.29355 0.33441 0.39923 0.0
C39 C 0.2563 0.37314 0.34917 0.0
C40 C 0.29248 0.40645 0.38301 0.0
H41 H 0.3689 0.28461 0.3531 0.0
H42 H 0.328 0.2383 0.44674 0.0
H43 H 0.34141 0.30612 0.45844 0.0
H44 H 0.31092 0.31767 0.46258 0.0
H45 H 0.31384 0.28157 0.47471 0.0
H46 H 0.27907 0.25253 0.40432 0.0
H47 H 0.27873 0.25287 0.44485 0.0
H48 H 0.26342 0.27746 0.42009 0.0
H49 H 0.3682 0.36468 0.27515 0.0
H50 H 0.31963 0.42969 0.277 0.0
H51 H 0.30089 0.40778 0.32346 0.0
H52 H 0.32237 0.31182 0.29335 0.0
H53 H 0.35733 0.30903 0.29276 0.0
H54 H 0.33562 0.28905 0.32044 0.0
H55 H 0.38617 0.36475 0.34637 0.0
H56 H 0.3844 0.32938 0.36072 0.0
H57 H 0.3926 0.33845 0.32189 0.0
H58 H 0.38238 0.24167 0.3749 0.0
C59 C 0.35966 0.27528 0.37335 0.0
C60 C 0.65709 0.22969 0.35753 0.0
C61 C 0.63417 0.21263 0.34253 0.0
C62 C 0.62648 0.2212 0.31253 0.0
C63 C 0.66091 0.26448 0.31488 0.0
C64 C 0.67038 0.25517 0.34301 0.0
C65 C 0.69593 0.27509 0.35445 0.0
H66 H 0.7877 0.3995 0.3367 0.0
C67 C 0.67784 0.29252 0.30672 0.0
C68 C 0.69892 0.29864 0.32935 0.0
H69 H 0.78968 0.33091 0.4048 0.0
H70 H 0.74781 0.30438 0.38255 0.0
H71 H 0.72199 0.39701 0.33705 0.0
H72 H 0.76804 0.35792 0.27864 0.0
H73 H 0.74413 0.37414 0.25653 0.0
H74 H 0.77077 0.39605 0.27903 0.0
H75 H 0.74374 0.41784 0.31017 0.0
H76 H 0.70936 0.40088 0.29918 0.0
C77 C 0.69064 0.28652 0.38502 0.0
C78 C 0.71968 0.25858 0.35643 0.0
C79 C 0.64507 0.35105 0.21742 0.0
C80 C 0.65434 0.37867 0.20474 0.0
C81 C 0.67869 0.39508 0.21756 0.0
C82 C 0.69327 0.38418 0.24249 0.0
C83 C 0.68345 0.35655 0.25496 0.0
C84 C 0.65977 0.34053 0.24218 0.0
C85 C 0.65207 0.31163 0.25789 0.0
C86 C 0.67462 0.31305 0.28287 0.0
C87 C 0.69312 0.33933 0.28117 0.0
C88 C 0.62393 0.30975 0.27071 0.0
C89 C 0.65299 0.28842 0.23494 0.0
C90 C 0.77932 0.37861 0.34659 0.0
C91 C 0.7922 0.36751 0.3728 0.0
C92 C 0.78018 0.34033 0.38504 0.0
C93 C 0.75589 0.32474 0.37192 0.0
C94 C 0.74325 0.33616 0.34602 0.0
C95 C 0.75496 0.36261 0.33364 0.0
C96 C 0.73836 0.37117 0.306 0.0
C97 C 0.71543 0.34505 0.3033 0.0
C98 C 0.71831 0.32475 0.32713 0.0
C99 C 0.72785 0.39826 0.31317 0.0
C100 C 0.75616 0.37526 0.27848 0.0
H101 H 0.63191 0.25236 0.27648 0.0
H102 H 0.66433 0.22383 0.3802 0.0
H103 H 0.71532 0.23998 0.34151 0.0
H104 H 0.73865 0.27193 0.34842 0.0
H105 H 0.72366 0.25021 0.37995 0.0
H106 H 0.67086 0.29371 0.38331 0.0
H107 H 0.6899 0.26956 0.40342 0.0
H108 H 0.70612 0.30523 0.39199 0.0
H109 H 0.62632 0.33787 0.2087 0.0
H110 H 0.68662 0.41631 0.20818 0.0
H111 H 0.71162 0.39767 0.25112 0.0
H112 H 0.62331 0.32964 0.2824 0.0
H113 H 0.60756 0.30712 0.25221 0.0
H114 H 0.61884 0.29208 0.28773 0.0
H115 H 0.66555 0.29721 0.21563 0.0
H116 H 0.66264 0.2709 0.24532 0.0
H117 H 0.63234 0.27916 0.22518 0.0
H118 H 0.61026 0.20809 0.29925 0.0
C119 C 0.6394 0.24697 0.29892 0.0
C120 C 0.78908 0.69849 0.37236 0.0
C121 C 0.80062 0.67695 0.36091 0.0
C122 C 0.78762 0.66274 0.33506 0.0
C123 C 0.7529 0.69155 0.33219 0.0
C124 C 0.7653 0.70539 0.35768 0.0
C125 C 0.7501 0.72746 0.36687 0.0
H126 H 0.644 0.79577 0.3401 0.0
C127 C 0.72864 0.70362 0.32225 0.0
C128 C 0.72687 0.72478 0.34244 0.0
H129 H 0.70505 0.80633 0.41505 0.0
H130 H 0.72704 0.77185 0.39433 0.0
H131 H 0.63425 0.72843 0.34324 0.0
H132 H 0.68421 0.79121 0.28712 0.0
H133 H 0.66775 0.76338 0.2639 0.0
H134 H 0.6478 0.78387 0.28254 0.0
H135 H 0.62012 0.74772 0.31208 0.0
H136 H 0.63146 0.71486 0.30686 0.0
C137 C 0.73985 0.71841 0.39882 0.0
C138 C 0.76919 0.75718 0.36499 0.0
C139 C 0.66852 0.66408 0.23046 0.0
C140 C 0.64417 0.67016 0.21637 0.0
C141 C 0.63351 0.69264 0.22716 0.0
C142 C 0.64646 0.70831 0.25186 0.0
C143 C 0.67033 0.70143 0.26624 0.0
C144 C 0.68111 0.67982 0.25529 0.0
C145 C 0.70641 0.67523 0.27365 0.0
C146 C 0.7089 0.69744 0.29757 0.0
C147 C 0.68771 0.71271 0.29315 0.0
C148 C 0.70101 0.64427 0.28779 0.0
C149 C 0.73032 0.68198 0.25256 0.0
C150 C 0.662 0.79064 0.35227 0.0
C151 C 0.67263 0.804 0.37942 0.0
C152 C 0.69649 0.79683 0.39394 0.0
C153 C 0.70913 0.77651 0.38202 0.0
C154 C 0.6978 0.76292 0.35531 0.0
C155 C 0.67464 0.77016 0.3409 0.0
C156 C 0.66478 0.75291 0.31339 0.0
C157 C 0.68586 0.73415 0.31355 0.0
C158 C 0.70527 0.74014 0.33809 0.0
C159 C 0.63609 0.73512 0.31883 0.0
C160 C 0.66594 0.77376 0.28513 0.0
H161 H 0.75529 0.65821 0.30119 0.0
H162 H 0.79842 0.70991 0.39213 0.0
H163 H 0.78117 0.75935 0.34453 0.0
H164 H 0.75816 0.77506 0.36266 0.0
H165 H 0.78377 0.76026 0.38522 0.0
H166 H 0.73413 0.69468 0.40168 0.0
H167 H 0.75578 0.72594 0.4169 0.0
H168 H 0.72124 0.72617 0.40287 0.0
H169 H 0.67712 0.64676 0.22302 0.0
H170 H 0.61498 0.69802 0.21653 0.0
H171 H 0.63716 0.72498 0.25902 0.0
H172 H 0.67952 0.63759 0.29378 0.0
H173 H 0.70493 0.62874 0.27169 0.0
H174 H 0.7131 0.64197 0.30935 0.0
H175 H 0.72794 0.69989 0.23596 0.0
H176 H 0.75015 0.68933 0.26492 0.0
H177 H 0.73138 0.6631 0.23945 0.0
H178 H 0.79543 0.64555 0.32609 0.0
C179 C 0.76404 0.66995 0.32067 0.0
C180 C 0.36608 0.78052 0.35262 0.0
C181 C 0.35554 0.79475 0.37467 0.0
C182 C 0.32879 0.78397 0.383 0.0
C183 C 0.32436 0.74457 0.34944 0.0
C184 C 0.35023 0.75553 0.34043 0.0
C185 C 0.35859 0.73717 0.31759 0.0
H186 H 0.33141 0.61454 0.24028 0.0
C187 C 0.31395 0.71735 0.33412 0.0
C188 C 0.33396 0.71283 0.31543 0.0
H189 H 0.40074 0.6842 0.23422 0.0
H190 H 0.38268 0.70988 0.27069 0.0
H191 H 0.32868 0.61238 0.30936 0.0
H192 H 0.28586 0.65634 0.2401 0.0
H193 H 0.26246 0.63796 0.26565 0.0
H194 H 0.28123 0.61805 0.24484 0.0
H195 H 0.29868 0.5942 0.28892 0.0
H196 H 0.29694 0.61255 0.32315 0.0
C197 C 0.38431 0.7266 0.33103 0.0
C198 C 0.36244 0.75495 0.28724 0.0
C199 C 0.22121 0.65783 0.35716 0.0
C200 C 0.20786 0.62966 0.35043 0.0
C201 C 0.22113 0.61375 0.33244 0.0
C202 C 0.24635 0.6256 0.32105 0.0
C203 C 0.25918 0.65358 0.32806 0.0
C204 C 0.24689 0.66898 0.34638 0.0
C205 C 0.26493 0.69719 0.35418 0.0
C206 C 0.28958 0.69654 0.33653 0.0
C207 C 0.28585 0.67113 0.32087 0.0
C208 C 0.27179 0.69673 0.38901 0.0
C209 C 0.2503 0.72157 0.34201 0.0
C210 C 0.34257 0.6355 0.24639 0.0
C211 C 0.36765 0.64718 0.23421 0.0
C212 C 0.3816 0.67438 0.24345 0.0
C213 C 0.37099 0.68941 0.26454 0.0
C214 C 0.34604 0.67729 0.27663 0.0
C215 C 0.33217 0.65088 0.26729 0.0
C216 C 0.30582 0.64137 0.28225 0.0
C217 C 0.30589 0.66665 0.30168 0.0
C218 C 0.32964 0.68753 0.29862 0.0
C219 C 0.30734 0.61359 0.30182 0.0
C220 C 0.28247 0.63803 0.25706 0.0
H221 H 0.29309 0.75201 0.37799 0.0
H222 H 0.38655 0.7881 0.34572 0.0
H223 H 0.34845 0.7704 0.28429 0.0
H224 H 0.35745 0.7416 0.2672 0.0
H225 H 0.3835 0.76744 0.28633 0.0
H226 H 0.38228 0.71974 0.35537 0.0
H227 H 0.40262 0.74389 0.3296 0.0
H228 H 0.38795 0.70776 0.31984 0.0
H229 H 0.2122 0.67115 0.37071 0.0
H230 H 0.21249 0.59173 0.32756 0.0
H231 H 0.25511 0.61226 0.30756 0.0
H232 H 0.2711 0.6745 0.39853 0.0
H233 H 0.25716 0.70601 0.40097 0.0
H234 H 0.29265 0.70809 0.39529 0.0
H235 H 0.24057 0.71706 0.31891 0.0
H236 H 0.26428 0.74245 0.33957 0.0
H237 H 0.23416 0.72381 0.35698 0.0
H238 H 0.3199 0.79474 0.3994 0.0
C239 C 0.31319 0.75912 0.3705 0.0
C240 C 0.38172 0.66411 0.79974 0.0
C241 C 0.3753 0.63554 0.81117 0.0
C242 C 0.35187 0.61765 0.79809 0.0
C243 C 0.3431 0.65632 0.7626 0.0
C244 C 0.36604 0.67364 0.77529 0.0
C245 C 0.37275 0.70223 0.7587 0.0
H246 H 0.3477 0.7933 0.6424 0.0
C247 C 0.33196 0.67299 0.73685 0.0
C248 C 0.34967 0.69971 0.73435 0.0
H249 H 0.41538 0.8028 0.70986 0.0
H250 H 0.39601 0.75812 0.73437 0.0
H251 H 0.30241 0.7704 0.6889 0.0
H252 H 0.34371 0.72446 0.63267 0.0
H253 H 0.30856 0.71015 0.62917 0.0
H254 H 0.32073 0.74706 0.61798 0.0
H255 H 0.29233 0.76601 0.64941 0.0
H256 H 0.27896 0.73961 0.67821 0.0
C257 C 0.37155 0.72572 0.78109 0.0
C258 C 0.40075 0.70462 0.7451 0.0
C259 C 0.24211 0.63247 0.67853 0.0
C260 C 0.22663 0.6438 0.65461 0.0
C261 C 0.23672 0.67161 0.64255 0.0
C262 C 0.26156 0.68771 0.65381 0.0
C263 C 0.27675 0.67611 0.67755 0.0
C264 C 0.26691 0.64899 0.68972 0.0
C265 C 0.28586 0.64038 0.71512 0.0
C266 C 0.30827 0.66702 0.71661 0.0
C267 C 0.30296 0.68775 0.69416 0.0
C268 C 0.27046 0.6349 0.7445 0.0
C269 C 0.2964 0.61412 0.70543 0.0
C270 C 0.3584 0.78561 0.66234 0.0
C271 C 0.3832 0.80188 0.67413 0.0
C272 C 0.39613 0.79116 0.70044 0.0
C273 C 0.38496 0.7649 0.71454 0.0
C274 C 0.36054 0.74871 0.70228 0.0
C275 C 0.34746 0.75919 0.67681 0.0
C276 C 0.32132 0.73904 0.6676 0.0
C277 C 0.32158 0.71435 0.69106 0.0
C278 C 0.34466 0.72025 0.7112 0.0
C279 C 0.2974 0.75443 0.67092 0.0
C280 C 0.32342 0.72968 0.63507 0.0
H281 H 0.31832 0.61319 0.76514 0.0
H282 H 0.39898 0.67906 0.80915 0.0
H283 H 0.40509 0.68317 0.74126 0.0
H284 H 0.40174 0.71569 0.72242 0.0
H285 H 0.41754 0.71573 0.76047 0.0
H286 H 0.35439 0.71873 0.796 0.0
H287 H 0.39055 0.73042 0.79595 0.0
H288 H 0.36782 0.74587 0.76956 0.0
H289 H 0.235 0.61128 0.68851 0.0
H290 H 0.22565 0.68078 0.62384 0.0
H291 H 0.2681 0.70857 0.64339 0.0
H292 H 0.25917 0.65232 0.7472 0.0
H293 H 0.25552 0.61434 0.74387 0.0
H294 H 0.28406 0.63448 0.76518 0.0
H295 H 0.29946 0.61568 0.68068 0.0
H296 H 0.31643 0.61251 0.71658 0.0
H297 H 0.28173 0.59392 0.71017 0.0
H298 H 0.34629 0.59543 0.80572 0.0
C299 C 0.3357 0.62792 0.77415 0.0
C300 C 0.23544 0.32157 0.64149 0.0
C301 C 0.22566 0.34508 0.65095 0.0
C302 C 0.23799 0.35908 0.67709 0.0
C303 C 0.27026 0.32741 0.68317 0.0
C304 C 0.25793 0.3133 0.65778 0.0
C305 C 0.27226 0.29001 0.65002 0.0
H306 H 0.37925 0.22326 0.67602 0.0
C307 C 0.29388 0.31467 0.69407 0.0
C308 C 0.29529 0.29277 0.67472 0.0
H309 H 0.31196 0.20474 0.60855 0.0
H310 H 0.29198 0.24162 0.62727 0.0
H311 H 0.38656 0.29215 0.67194 0.0
H312 H 0.34106 0.22789 0.73088 0.0
H313 H 0.35674 0.25688 0.75291 0.0
H314 H 0.37746 0.23712 0.73442 0.0
H315 H 0.40266 0.27163 0.70046 0.0
H316 H 0.39193 0.30388 0.70933 0.0
C317 C 0.28294 0.29741 0.618 0.0
C318 C 0.25223 0.26092 0.65289 0.0
C319 C 0.3533 0.35563 0.78535 0.0
C320 C 0.37772 0.35021 0.79989 0.0
C321 C 0.38909 0.3281 0.78929 0.0
C322 C 0.37665 0.31217 0.76444 0.0
C323 C 0.35255 0.31833 0.74983 0.0
C324 C 0.34128 0.3397 0.76049 0.0
C325 C 0.3161 0.34402 0.74184 0.0
C326 C 0.31382 0.32147 0.71841 0.0
C327 C 0.3352 0.30644 0.7231 0.0
C328 C 0.32154 0.37487 0.72726 0.0
C329 C 0.29202 0.33747 0.76268 0.0
C330 C 0.36006 0.22682 0.66539 0.0
C331 C 0.34745 0.21098 0.64041 0.0
C332 C 0.32259 0.21686 0.62729 0.0
C333 C 0.31084 0.23822 0.63836 0.0
C334 C 0.32389 0.254 0.663 0.0
C335 C 0.34789 0.24791 0.67638 0.0
C336 C 0.35835 0.26614 0.70311 0.0
C337 C 0.33685 0.28441 0.70331 0.0
C338 C 0.31684 0.27739 0.67952 0.0
C339 C 0.38644 0.28437 0.69616 0.0
C340 C 0.35868 0.24615 0.73195 0.0
H341 H 0.26855 0.36203 0.71287 0.0
H342 H 0.22642 0.31059 0.62133 0.0
H343 H 0.23808 0.26105 0.67102 0.0
H344 H 0.26257 0.24295 0.65972 0.0
H345 H 0.23976 0.25605 0.63134 0.0
H346 H 0.29144 0.32073 0.6152 0.0
H347 H 0.26635 0.29187 0.60005 0.0
H348 H 0.29968 0.28671 0.61367 0.0
H349 H 0.3437 0.37214 0.79294 0.0
H350 H 0.40805 0.32361 0.79966 0.0
H351 H 0.38653 0.29595 0.75727 0.0
H352 H 0.34348 0.3826 0.72374 0.0
H353 H 0.3152 0.39023 0.74186 0.0
H354 H 0.31138 0.37628 0.70432 0.0
H355 H 0.29371 0.31885 0.77856 0.0
H356 H 0.27213 0.33136 0.75004 0.0
H357 H 0.29162 0.35605 0.77656 0.0
H358 H 0.23062 0.3771 0.68486 0.0
C359 C 0.26006 0.35031 0.6933 0.0
C360 C 0.65411 0.23432 0.66421 0.0
C361 C 0.66231 0.22105 0.63981 0.0
C362 C 0.68784 0.23259 0.62838 0.0
C363 C 0.69591 0.27017 0.66482 0.0
C364 C 0.67107 0.25865 0.67625 0.0
C365 C 0.66492 0.27546 0.70173 0.0
H366 H 0.69931 0.39165 0.78795 0.0
C367 C 0.70846 0.29559 0.68242 0.0
C368 C 0.69039 0.2986 0.70426 0.0
H369 H 0.62611 0.32635 0.78836 0.0
H370 H 0.64339 0.30059 0.75148 0.0
H371 H 0.70692 0.39482 0.71417 0.0
H372 H 0.73873 0.35025 0.7913 0.0
H373 H 0.76275 0.35258 0.76393 0.0
H374 H 0.75608 0.38493 0.77862 0.0
H375 H 0.72791 0.41124 0.74558 0.0
H376 H 0.7427 0.39989 0.714 0.0
C377 C 0.63938 0.28795 0.69139 0.0
C378 C 0.66188 0.25552 0.73071 0.0
C379 C 0.79908 0.35805 0.6548 0.0
C380 C 0.81638 0.38146 0.66893 0.0
C381 C 0.80912 0.38967 0.69696 0.0
C382 C 0.78465 0.37675 0.70927 0.0
C383 C 0.76713 0.35468 0.69407 0.0
C384 C 0.77493 0.34472 0.66809 0.0
C385 C 0.75502 0.31852 0.65748 0.0
C386 C 0.73349 0.31556 0.68056 0.0
C387 C 0.7405 0.33737 0.70143 0.0
C388 C 0.74357 0.32519 0.62502 0.0
C389 C 0.76977 0.29282 0.65999 0.0
C390 C 0.68706 0.37167 0.78038 0.0
C391 C 0.66101 0.36146 0.79088 0.0
C392 C 0.64591 0.33526 0.78021 0.0
C393 C 0.65604 0.32019 0.75881 0.0
C394 C 0.68166 0.33125 0.74777 0.0
C395 C 0.69692 0.3563 0.759 0.0
C396 C 0.72405 0.36442 0.74535 0.0
C397 C 0.72201 0.34077 0.72308 0.0
C398 C 0.69711 0.32145 0.72454 0.0
C399 C 0.72571 0.39421 0.72893 0.0
C400 C 0.74666 0.36319 0.77099 0.0
H401 H 0.72357 0.265 0.63067 0.0
H402 H 0.6348 0.22596 0.67382 0.0
H403 H 0.67642 0.24068 0.73175 0.0
H404 H 0.66665 0.26732 0.75184 0.0
H405 H 0.64108 0.2423 0.73114 0.0
H406 H 0.63912 0.29408 0.66671 0.0
H407 H 0.62048 0.27204 0.69533 0.0
H408 H 0.63863 0.30784 0.70258 0.0
H409 H 0.8038 0.35042 0.63366 0.0
H410 H 0.82232 0.40621 0.70975 0.0
H411 H 0.78026 0.38455 0.7302 0.0
H412 H 0.73795 0.34666 0.62352 0.0
H413 H 0.75888 0.32525 0.60818 0.0
H414 H 0.72492 0.30991 0.6181 0.0
H415 H 0.78592 0.29526 0.6788 0.0
H416 H 0.75611 0.27231 0.6656 0.0
H417 H 0.77955 0.29088 0.63871 0.0
H418 H 0.69459 0.22312 0.60938 0.0
C419 C 0.70461 0.25703 0.64068 0.0
C420 C 0.68166 0.62749 0.72346 0.0
C421 C 0.65929 0.63277 0.73782 0.0
C422 C 0.64608 0.6548 0.72584 0.0
C423 C 0.67747 0.66588 0.68603 0.0
C424 C 0.69032 0.64419 0.69767 0.0
C425 C 0.71381 0.64148 0.67975 0.0
H426 H 0.79271 0.68889 0.56295 0.0
C427 C 0.69145 0.67914 0.65911 0.0
C428 C 0.71263 0.66483 0.65516 0.0
H429 H 0.80171 0.62242 0.6314 0.0
H430 H 0.7614 0.62903 0.654 0.0
H431 H 0.77838 0.73212 0.60934 0.0
H432 H 0.72868 0.6711 0.55044 0.0
H433 H 0.71232 0.70036 0.55018 0.0
H434 H 0.74586 0.70541 0.53629 0.0
H435 H 0.77656 0.73679 0.56871 0.0
H436 H 0.75289 0.74858 0.59121 0.0
C437 C 0.74015 0.64795 0.70085 0.0
C438 C 0.70781 0.61131 0.66653 0.0
C439 C 0.66332 0.76582 0.60405 0.0
C440 C 0.67249 0.78246 0.57828 0.0
C441 C 0.69207 0.77428 0.56143 0.0
C442 C 0.70333 0.75043 0.57099 0.0
C443 C 0.69481 0.73467 0.59759 0.0
C444 C 0.67458 0.74198 0.61316 0.0
C445 C 0.66718 0.72201 0.64009 0.0
C446 C 0.6871 0.70216 0.63882 0.0
C447 C 0.7034 0.70993 0.61414 0.0
C448 C 0.67271 0.73973 0.66899 0.0
C449 C 0.63732 0.70617 0.6345 0.0
C450 C 0.78577 0.67563 0.58263 0.0
C451 C 0.80029 0.65523 0.59557 0.0
C452 C 0.79092 0.63853 0.62136 0.0
C453 C 0.76749 0.64233 0.63436 0.0
C454 C 0.75343 0.66321 0.62156 0.0
C455 C 0.76258 0.6794 0.59611 0.0
C456 C 0.74565 0.7013 0.58633 0.0
C457 C 0.72484 0.69557 0.61013 0.0
C458 C 0.72947 0.67322 0.63062 0.0
C459 C 0.76416 0.73136 0.58875 0.0
C460 C 0.7325 0.6945 0.55406 0.0
H461 H 0.64422 0.68787 0.69216 0.0
H462 H 0.6921 0.61056 0.73194 0.0
H463 H 0.68598 0.60503 0.65886 0.0
H464 H 0.71897 0.61017 0.64622 0.0
H465 H 0.71259 0.59491 0.68385 0.0
H466 H 0.73846 0.66331 0.7183 0.0
H467 H 0.74446 0.62815 0.713 0.0
H468 H 0.75807 0.65847 0.68861 0.0
H469 H 0.64781 0.7714 0.61696 0.0
H470 H 0.6992 0.78684 0.54139 0.0
H471 H 0.71856 0.7455 0.5576 0.0
H472 H 0.69207 0.75566 0.66791 0.0
H473 H 0.6562 0.75164 0.67139 0.0
H474 H 0.67513 0.72661 0.69001 0.0
H475 H 0.63152 0.70415 0.60982 0.0
H476 H 0.63382 0.68386 0.64396 0.0
H477 H 0.62304 0.7178 0.64404 0.0
H478 H 0.62904 0.65959 0.73674 0.0
C479 C 0.65501 0.67133 0.70003 0.0
Co480 Co 0.06035 0.47336 0.53131 0.0
Co481 Co 0.03492 0.46279 0.47712 0.0
Co482 Co 1.01025 0.50918 0.50876 0.0
O483 O 0.02385 0.4724 0.51449 0.0
H484 H 0.01075 0.45693 0.52303 0.0
O485 O 0.99715 0.54609 0.50222 0.0
Co486 Co 0.96109 0.54651 0.48541 0.0
Co487 Co 0.98688 0.55659 0.53865 0.0
H488 H 0.01053 0.56131 0.49371 0.0
O489 O 0.04299 0.42662 0.47061 0.0
O490 O 0.07066 0.46402 0.49177 0.0
O491 O 0.03743 0.49186 0.44419 0.0
O492 O 0.03617 0.52558 0.47642 0.0
O493 O 0.98179 0.49009 0.47758 0.0
O494 O 0.92883 0.54958 0.46844 0.0
O495 O 0.96689 0.58372 0.47115 0.0
O496 O 0.95013 0.50778 0.49714 0.0
O497 O 0.98428 0.49278 0.54141 0.0
O498 O 0.98332 0.5283 0.5715 0.0
O499 O 0.95154 0.5579 0.52469 0.0
O500 O 0.98273 0.59365 0.5448 0.0
C501 C 0.08123 0.44515 0.55428 0.0
C502 C 0.06355 0.52919 0.53769 0.0
C503 C 0.04289 0.51786 0.45134 0.0
C504 C 0.0669 0.4385 0.48166 0.0
C505 C 0.94135 0.57554 0.462 0.0
C506 C 0.95663 0.48965 0.48061 0.0
C507 C 0.97733 0.50197 0.5657 0.0
C508 C 0.95798 0.58362 0.53472 0.0
O509 O 0.09273 0.47154 0.54821 0.0
O510 O 0.05591 0.43589 0.54486 0.0
O511 O 0.03835 0.52844 0.54034 0.0
O512 O 0.07012 0.5121 0.52012 0.0
Co513 Co 0.53965 0.9537 0.49211 0.0
Co514 Co 0.55205 0.97756 0.54525 0.0
Co515 Co 0.50806 1.00712 0.50902 0.0
O516 O 0.54169 0.9915 0.50641 0.0
H517 H 0.55637 1.00546 0.49832 0.0
O518 O 0.47416 0.02226 0.51216 0.0
Co519 Co 0.4758 0.059 0.52816 0.0
Co520 Co 0.46281 0.03708 0.47503 0.0
H521 H 0.45962 0.00794 0.51996 0.0
O522 O 0.58718 0.97162 0.55474 0.0
O523 O 0.55195 0.94111 0.53314 0.0
O524 O 0.52609 0.97172 0.57622 0.0
O525 O 0.49296 0.97887 0.54249 0.0
O526 O 0.52889 0.03503 0.53916 0.0
O527 O 0.47478 0.09182 0.54442 0.0
O528 O 0.44161 0.05246 0.5413 0.0
O529 O 0.5118 0.0707 0.51738 0.0
O530 O 0.52288 0.03557 0.47525 0.0
O531 O 0.48811 0.04346 0.444 0.0
O532 O 0.46244 0.07316 0.48822 0.0
O533 O 0.42744 0.04226 0.46658 0.0
C534 C 0.56528 0.93216 0.47271 0.0
C535 C 0.48558 0.95238 0.48375 0.0
C536 C 0.50104 0.9687 0.56814 0.0
C537 C 0.57692 0.94656 0.54442 0.0
C538 C 0.45044 0.07855 0.5502 0.0
C539 C 0.53007 0.06195 0.53457 0.0
C540 C 0.51344 0.04639 0.45055 0.0
C541 C 0.43748 0.06739 0.47685 0.0
O542 O 0.54056 0.91992 0.4782 0.0
O543 O 0.57419 0.95884 0.4797 0.0
O544 O 0.48746 0.97935 0.47884 0.0
O545 O 0.50308 0.94314 0.50177 0.0
Co546 Co 0.48212 0.51912 0.0711 0.0
Co547 Co 0.47088 0.4675 0.05096 0.0
Co548 Co 0.51389 0.50667 0.00956 0.0
O549 O 0.48005 0.50357 0.03163 0.0
H550 H 0.46498 0.50785 0.01861 0.0
O551 O 0.5478 0.50945 0.98766 0.0
Co552 Co 0.54566 0.4936 0.94849 0.0
Co553 Co 0.55814 0.54516 0.96862 0.0
H554 H 0.56272 0.50484 1.00078 0.0
O555 O 0.43542 0.45332 0.06042 0.0
O556 O 0.46847 0.48048 0.08911 0.0
O557 O 0.49813 0.44394 0.05628 0.0
O558 O 0.53006 0.4782 0.03749 0.0
O559 O 0.49376 0.47537 0.98278 0.0
O560 O 0.54625 0.47825 0.91312 0.0
O561 O 0.57963 0.48552 0.95034 0.0
O562 O 0.50976 0.49873 0.9417 0.0
O563 O 0.49794 0.53542 0.98131 0.0
O564 O 0.53149 0.56895 0.96411 0.0
O565 O 0.55867 0.532 0.93007 0.0
O566 O 0.59336 0.55871 0.95683 0.0
C567 C 0.45748 0.53677 0.09643 0.0
C568 C 0.53518 0.53375 0.0654 0.0
C569 C 0.52291 0.45452 0.05256 0.0
C570 C 0.44382 0.46569 0.08574 0.0
C571 C 0.57051 0.4758 0.92368 0.0
C572 C 0.49228 0.47941 0.95393 0.0
C573 C 0.50638 0.55907 0.96658 0.0
C574 C 0.58328 0.54689 0.93168 0.0
O575 O 0.48174 0.53407 0.10666 0.0
O576 O 0.4482 0.52751 0.06962 0.0
O577 O 0.5339 0.53782 0.03653 0.0
O578 O 0.51802 0.51387 0.07741 0.0
H579 H 0.18326 0.327 0.46383 0.0
H580 H 0.22423 0.41465 0.44784 0.0
H581 H 0.14382 0.3438 0.47944 0.0
H582 H 0.18453 0.4313 0.46147 0.0
H583 H 0.1188 0.45837 0.50351 0.0
H584 H 0.15791 0.43649 0.50143 0.0
H585 H 0.10789 0.36523 0.45516 0.0
H586 H 0.06799 0.38625 0.45942 0.0
C587 C 0.18395 0.34983 0.46396 0.0
C588 C 0.20674 0.36953 0.45436 0.0
C589 C 0.16126 0.35942 0.47254 0.0
C590 C 0.16094 0.38886 0.47158 0.0
C591 C 0.18414 0.40849 0.46293 0.0
C592 C 0.20681 0.39894 0.45464 0.0
C593 C 0.11588 0.4377 0.49353 0.0
C594 C 0.09022 0.42405 0.4816 0.0
C595 C 0.13846 0.42529 0.49205 0.0
C596 C 0.13616 0.39937 0.47765 0.0
C597 C 0.11033 0.38513 0.46664 0.0
C598 C 0.08751 0.3973 0.46876 0.0
H599 H 0.65022 0.17569 0.38839 0.0
H600 H 0.57974 0.19017 0.33206 0.0
H601 H 0.62203 0.1352 0.41395 0.0
H602 H 0.55302 0.14802 0.35425 0.0
H603 H 0.50082 0.09301 0.41968 0.0
H604 H 0.53057 0.13207 0.39529 0.0
H605 H 0.59791 0.0885 0.41513 0.0
H606 H 0.56785 0.05001 0.44222 0.0
C607 C 0.6289 0.17029 0.38112 0.0
C608 C 0.61763 0.18664 0.35779 0.0
C609 C 0.61272 0.14654 0.3955 0.0
C610 C 0.58492 0.13807 0.38657 0.0
C611 C 0.57401 0.15397 0.36268 0.0
C612 C 0.58981 0.17808 0.34914 0.0
C613 C 0.52189 0.09145 0.41849 0.0
C614 C 0.53183 0.06808 0.43246 0.0
C615 C 0.53914 0.11399 0.40423 0.0
C616 C 0.56688 0.11362 0.40245 0.0
C617 C 0.57683 0.08993 0.41614 0.0
C618 C 0.55955 0.06761 0.43135 0.0
H619 H 0.8426 0.66214 0.3336 0.0
H620 H 0.81566 0.67267 0.42208 0.0
H621 H 0.87997 0.64164 0.35752 0.0
H622 H 0.85395 0.65305 0.44594 0.0
H623 H 0.94127 0.63171 0.47291 0.0
H624 H 0.90978 0.6612 0.44886 0.0
H625 H 0.87462 0.59249 0.38997 0.0
H626 H 0.90513 0.56301 0.41445 0.0
C627 C 0.84471 0.66033 0.35815 0.0
C628 C 0.82566 0.66852 0.37584 0.0
C629 C 0.8663 0.64881 0.37181 0.0
C630 C 0.86973 0.64564 0.40352 0.0
C631 C 0.85185 0.65549 0.42141 0.0
C632 C 0.82994 0.66672 0.4077 0.0
C633 C 0.92709 0.62325 0.45447 0.0
C634 C 0.92569 0.59523 0.4453 0.0
C635 C 0.90899 0.63996 0.44094 0.0
C636 C 0.8899 0.62912 0.41748 0.0
C637 C 0.88929 0.60148 0.40777 0.0
C638 C 0.90673 0.58462 0.42177 0.0
H639 H 0.39086 0.84029 0.34953 0.0
H640 H 0.35914 0.8059 0.43495 0.0
H641 H 0.42025 0.88 0.37582 0.0
H642 H 0.38787 0.84572 0.46091 0.0
H643 H 0.46946 0.89608 0.49991 0.0
H644 H 0.43686 0.85984 0.47314 0.0
H645 H 0.41984 0.92382 0.40532 0.0
H646 H 0.45292 0.9605 0.43232 0.0
C647 C 0.39005 0.84125 0.37385 0.0
C648 C 0.37264 0.81983 0.39009 0.0
C649 C 0.40667 0.86417 0.38886 0.0
C650 C 0.40646 0.86602 0.42049 0.0
C651 C 0.38873 0.84485 0.43658 0.0
C652 C 0.37204 0.82212 0.42161 0.0
C653 C 0.45869 0.90259 0.4794 0.0
C654 C 0.46387 0.93124 0.46824 0.0
C655 C 0.43984 0.88176 0.46412 0.0
C656 C 0.4257 0.88888 0.43707 0.0
C657 C 0.43056 0.91761 0.42599 0.0
C658 C 0.44932 0.93865 0.44156 0.0
H659 H 0.21509 0.58665 0.64278 0.0
H660 H 0.1791 0.6619 0.63609 0.0
H661 H 0.17423 0.5595 0.61725 0.0
H662 H 0.13838 0.63481 0.60977 0.0
H663 H 0.06008 0.56649 0.58277 0.0
H664 H 0.09798 0.59398 0.6139 0.0
H665 H 0.1549 0.56048 0.56485 0.0
H666 H 0.11781 0.53351 0.53426 0.0
C667 C 0.19836 0.59736 0.63623 0.0
C668 C 0.20062 0.62659 0.64134 0.0
C669 C 0.17497 0.58184 0.62129 0.0
C670 C 0.15306 0.59503 0.61109 0.0
C671 C 0.15478 0.62393 0.61733 0.0
C672 C 0.17829 0.63953 0.63216 0.0
C673 C 0.0807 0.56515 0.57864 0.0
C674 C 0.08573 0.54755 0.55609 0.0
C675 C 0.10242 0.58089 0.59644 0.0
C676 C 0.12953 0.57909 0.59223 0.0
C677 C 0.13436 0.56191 0.56931 0.0
C678 C 0.11291 0.54652 0.55154 0.0
H679 H 0.34714 0.19665 0.58082 0.0
H680 H 0.37683 0.17438 0.6716 0.0
H681 H 0.36919 0.16128 0.56054 0.0
H682 H 0.39978 0.14003 0.65091 0.0
H683 H 0.46668 0.11754 0.59317 0.0
H684 H 0.43968 0.14697 0.61581 0.0
H685 H 0.36824 0.10559 0.56351 0.0
H686 H 0.39539 0.07546 0.54116 0.0
C687 C 0.35801 0.18405 0.59657 0.0
C688 C 0.36021 0.18866 0.62797 0.0
C689 C 0.37069 0.16379 0.58485 0.0
C690 C 0.3862 0.14794 0.60414 0.0
C691 C 0.38812 0.15214 0.63549 0.0
C692 C 0.37513 0.17206 0.64728 0.0
C693 C 0.44513 0.11441 0.58682 0.0
C694 C 0.43306 0.09408 0.56561 0.0
C695 C 0.42967 0.13121 0.59985 0.0
C696 C 0.40187 0.12853 0.59149 0.0
C697 C 0.38966 0.10807 0.57036 0.0
C698 C 0.40508 0.0907 0.55779 0.0
H699 H 0.84911 0.36309 0.62905 0.0
H700 H 0.84099 0.43799 0.6757 0.0
H701 H 0.88802 0.39114 0.60468 0.0
H702 H 0.8816 0.46427 0.6552 0.0
H703 H 0.93574 0.51802 0.59062 0.0
H704 H 0.89773 0.4884 0.61402 0.0
H705 H 0.93278 0.41365 0.60513 0.0
H706 H 0.97008 0.44375 0.5788 0.0
C707 C 0.85555 0.38535 0.63447 0.0
C708 C 0.8414 0.39788 0.65469 0.0
C709 C 0.87842 0.40142 0.62084 0.0
C710 C 0.88827 0.43035 0.62752 0.0
C711 C 0.87456 0.44246 0.64844 0.0
C712 C 0.85131 0.42683 0.66112 0.0
C713 C 0.93561 0.49531 0.59405 0.0
C714 C 0.95624 0.48333 0.58337 0.0
C715 C 0.91369 0.47812 0.60776 0.0
C716 C 0.91199 0.44834 0.61231 0.0
C717 C 0.93295 0.43634 0.6019 0.0
C718 C 0.9546 0.45361 0.58715 0.0
H719 H 0.67178 0.82603 0.6145 0.0
H720 H 0.65008 0.79791 0.52325 0.0
H721 H 0.65149 0.86805 0.6024 0.0
H722 H 0.62948 0.8401 0.51109 0.0
H723 H 0.63069 0.95154 0.5625 0.0
H724 H 0.6572 0.91363 0.56674 0.0
H725 H 0.58698 0.85332 0.53314 0.0
H726 H 0.56024 0.89079 0.52964 0.0
C727 C 0.66283 0.82907 0.59178 0.0
C728 C 0.66217 0.80879 0.56984 0.0
C729 C 0.65148 0.85315 0.5848 0.0
C730 C 0.639 0.85716 0.55586 0.0
C731 C 0.63898 0.8373 0.53358 0.0
C732 C 0.65075 0.81335 0.54047 0.0
C733 C 0.62094 0.93023 0.55592 0.0
C734 C 0.59337 0.92413 0.54579 0.0
C735 C 0.63613 0.90864 0.55822 0.0
C736 C 0.62408 0.88073 0.5501 0.0
C737 C 0.59679 0.87481 0.53914 0.0
C738 C 0.58149 0.89624 0.53731 0.0
H739 H 0.35966 0.18983 0.38195 0.0
H740 H 0.37053 0.22364 0.47158 0.0
H741 H 0.37536 0.14692 0.40217 0.0
H742 H 0.38595 0.18035 0.492 0.0
H743 H 0.45216 0.12207 0.49598 0.0
H744 H 0.42825 0.16133 0.48439 0.0
H745 H 0.3628 0.10393 0.43771 0.0
H746 H 0.38662 0.06443 0.4494 0.0
C747 C 0.36528 0.18795 0.40601 0.0
C748 C 0.36418 0.21008 0.42518 0.0
C749 C 0.37391 0.16328 0.41765 0.0
C750 C 0.38177 0.16035 0.44864 0.0
C751 C 0.38007 0.18218 0.46799 0.0
C752 C 0.37118 0.20681 0.45637 0.0
C753 C 0.43246 0.11764 0.48372 0.0
C754 C 0.42145 0.09022 0.47323 0.0
C755 C 0.4187 0.14012 0.47726 0.0
C756 C 0.39384 0.13565 0.45992 0.0
C757 C 0.38213 0.10794 0.45081 0.0
C758 C 0.39576 0.08538 0.45754 0.0
H759 H 0.8055 0.37193 0.43376 0.0
H760 H 0.83663 0.40094 0.34659 0.0
H761 H 0.84658 0.39824 0.45911 0.0
H762 H 0.87766 0.42841 0.37225 0.0
H763 H 0.95851 0.45559 0.4322 0.0
H764 H 0.91983 0.42483 0.40536 0.0
H765 H 0.86567 0.44781 0.46672 0.0
H766 H 0.90365 0.47765 0.49337 0.0
C767 C 0.82117 0.38378 0.4199 0.0
C768 C 0.8176 0.38417 0.38802 0.0
C769 C 0.84472 0.39918 0.43452 0.0
C770 C 0.8655 0.41564 0.4178 0.0
C771 C 0.86221 0.4158 0.38588 0.0
C772 C 0.8385 0.40035 0.37116 0.0
C773 C 0.93836 0.45372 0.44007 0.0
C774 C 0.9343 0.4691 0.465 0.0
C775 C 0.91616 0.43633 0.42455 0.0
C776 C 0.88956 0.43372 0.4339 0.0
C777 C 0.88579 0.44885 0.45907 0.0
C778 C 0.90772 0.46619 0.47431 0.0
H779 H 0.61775 0.8011 0.37953 0.0
H780 H 0.69443 0.85275 0.41073 0.0
H781 H 0.59382 0.83342 0.40135 0.0
H782 H 0.67016 0.88425 0.4346 0.0
H783 H 0.61509 0.95014 0.4481 0.0
H784 H 0.64224 0.92022 0.42572 0.0
H785 H 0.58309 0.84475 0.44926 0.0
H786 H 0.55579 0.87435 0.46998 0.0
C787 C 0.62961 0.81942 0.39093 0.0
C788 C 0.65816 0.82422 0.39311 0.0
C789 C 0.61578 0.8378 0.404 0.0
C790 C 0.62996 0.86138 0.42015 0.0
C791 C 0.65853 0.86643 0.42221 0.0
C792 C 0.67245 0.8481 0.40883 0.0
C793 C 0.60796 0.92716 0.44834 0.0
C794 C 0.58301 0.91475 0.46031 0.0
C795 C 0.62358 0.90996 0.43571 0.0
C796 C 0.61466 0.88001 0.4351 0.0
C797 C 0.59026 0.86773 0.44829 0.0
C798 C 0.57459 0.88481 0.46039 0.0
H799 H 0.18557 0.64318 0.40199 0.0
H800 H 0.16789 0.58585 0.32748 0.0
H801 H 0.14317 0.62138 0.42235 0.0
H802 H 0.12768 0.56101 0.35063 0.0
H803 H 0.04825 0.52374 0.38976 0.0
H804 H 0.08491 0.55428 0.36337 0.0
H805 H 0.12226 0.58493 0.44996 0.0
H806 H 0.0844 0.55696 0.47515 0.0
C807 C 0.1729 0.62592 0.38976 0.0
C808 C 0.18098 0.61642 0.36293 0.0
C809 C 0.1485 0.61269 0.4021 0.0
C810 C 0.13172 0.58861 0.38891 0.0
C811 C 0.1395 0.57949 0.36173 0.0
C812 C 0.16335 0.59348 0.34869 0.0
C813 C 0.06408 0.53764 0.40282 0.0
C814 C 0.06331 0.53817 0.43442 0.0
C815 C 0.08547 0.55494 0.38781 0.0
C816 C 0.10722 0.57231 0.40422 0.0
C817 C 0.10595 0.57282 0.43594 0.0
C818 C 0.08413 0.55644 0.45066 0.0
H819 H 0.38688 0.81501 0.61305 0.0
H820 H 0.40966 0.85115 0.70082 0.0
H821 H 0.41294 0.85802 0.5888 0.0
H822 H 0.43589 0.89392 0.67662 0.0
H823 H 0.50928 0.94341 0.62455 0.0
H824 H 0.47822 0.90535 0.65037 0.0
H825 H 0.41633 0.90987 0.57818 0.0
H826 H 0.4474 0.94776 0.55217 0.0
C827 C 0.39701 0.83231 0.62715 0.0
C828 C 0.39637 0.8294 0.65894 0.0
C829 C 0.41201 0.85699 0.61324 0.0
C830 C 0.42676 0.87935 0.63079 0.0
C831 C 0.42522 0.8769 0.66246 0.0
C832 C 0.41017 0.85233 0.67633 0.0
C833 C 0.48892 0.93666 0.61439 0.0
C834 C 0.48096 0.94873 0.58621 0.0
C835 C 0.47104 0.91483 0.62925 0.0
C836 C 0.4448 0.90437 0.61626 0.0
C837 C 0.4365 0.91714 0.58863 0.0
C838 C 0.45429 0.9391 0.57387 0.0
H839 H 0.22804 0.39901 0.62761 0.0
H840 H 0.17396 0.31686 0.63434 0.0
H841 H 0.1913 0.42018 0.60344 0.0
H842 H 0.1364 0.33833 0.61091 0.0
H843 H 0.08229 0.38884 0.54435 0.0
H844 H 0.11691 0.362 0.56547 0.0
H845 H 0.15228 0.43279 0.62183 0.0
H846 H 0.11882 0.45958 0.59995 0.0
C847 C 0.20818 0.3855 0.62381 0.0
C848 C 0.20369 0.35645 0.63317 0.0
C849 C 0.18703 0.39763 0.61017 0.0
C850 C 0.16065 0.38115 0.60597 0.0
C851 C 0.15643 0.35164 0.61389 0.0
C852 C 0.17785 0.33936 0.62731 0.0
C853 C 0.09722 0.39826 0.56169 0.0
C854 C 0.09804 0.42628 0.57047 0.0
C855 C 0.11709 0.38299 0.57369 0.0
C856 C 0.13779 0.3955 0.59485 0.0
C857 C 0.13726 0.42281 0.60487 0.0
C858 C 0.11787 0.43808 0.59261 0.0
H859 H 0.67519 0.17205 0.61962 0.0
H860 H 0.6074 0.21352 0.62772 0.0
H861 H 0.64458 0.13225 0.59465 0.0
H862 H 0.57698 0.1737 0.60371 0.0
H863 H 0.53724 0.11978 0.52632 0.0
H864 H 0.56984 0.15633 0.55218 0.0
H865 H 0.6047 0.09115 0.60333 0.0
H866 H 0.5717 0.05387 0.57692 0.0
C867 C 0.6538 0.17267 0.61616 0.0
C868 C 0.64381 0.19609 0.62564 0.0
C869 C 0.63623 0.14972 0.60215 0.0
C870 C 0.60835 0.14984 0.597 0.0
C871 C 0.59839 0.17304 0.60696 0.0
C872 C 0.61583 0.1958 0.62104 0.0
C873 C 0.5518 0.11298 0.543 0.0
C874 C 0.55159 0.08371 0.54968 0.0
C875 C 0.57048 0.13409 0.558 0.0
C876 C 0.58964 0.12674 0.58019 0.0
C877 C 0.59017 0.09752 0.58632 0.0
C878 C 0.57124 0.07617 0.57127 0.0
H879 H 0.80796 0.64887 0.53614 0.0
H880 H 0.84888 0.65324 0.62566 0.0
H881 H 0.84846 0.63819 0.51543 0.0
H882 H 0.88909 0.64235 0.60515 0.0
H883 H 0.96294 0.6359 0.55922 0.0
H884 H 0.92617 0.66003 0.56898 0.0
H885 H 0.86822 0.59329 0.52463 0.0
H886 H 0.90462 0.56903 0.51516 0.0
C887 C 0.82578 0.64799 0.55123 0.0
C888 C 0.82533 0.65145 0.5825 0.0
C889 C 0.84883 0.64187 0.53943 0.0
C890 C 0.8718 0.63948 0.55873 0.0
C891 C 0.87176 0.64442 0.58973 0.0
C892 C 0.84868 0.65024 0.60153 0.0
C893 C 0.94241 0.62663 0.55113 0.0
C894 C 0.93662 0.60035 0.53683 0.0
C895 C 0.92144 0.64047 0.55667 0.0
C896 C 0.89444 0.62838 0.5477 0.0
C897 C 0.8889 0.60319 0.53155 0.0
C898 C 0.90977 0.58919 0.52634 0.0
H899 H 0.34942 0.3709 0.22158 0.0
H900 H 0.3654 0.45516 0.25801 0.0
H901 H 0.37061 0.39076 0.17531 0.0
H902 H 0.38633 0.47529 0.21119 0.0
H903 H 0.45609 0.48455 0.14341 0.0
H904 H 0.42892 0.47161 0.18729 0.0
H905 H 0.36467 0.42269 0.13052 0.0
H906 H 0.39181 0.43544 0.08665 0.0
C907 C 0.35731 0.39374 0.21954 0.0
C908 C 0.356 0.41147 0.24342 0.0
C909 C 0.36918 0.40517 0.19293 0.0
C910 C 0.38009 0.43459 0.18963 0.0
C911 C 0.37821 0.45251 0.21322 0.0
C912 C 0.3661 0.44105 0.23986 0.0
C913 C 0.43602 0.47137 0.14018 0.0
C914 C 0.42628 0.46066 0.11162 0.0
C915 C 0.42039 0.46411 0.16531 0.0
C916 C 0.39481 0.44588 0.16237 0.0
C917 C 0.38452 0.4364 0.13352 0.0
C918 C 0.40006 0.44375 0.1084 0.0
H919 H 0.36278 0.59173 0.85529 0.0
H920 H 0.43048 0.65393 0.82268 0.0
H921 H 0.39349 0.57363 0.89313 0.0
H922 H 0.45989 0.63869 0.86254 0.0
H923 H 0.51587 0.58852 0.91304 0.0
H924 H 0.48398 0.60533 0.87667 0.0
H925 H 0.41993 0.5773 0.93806 0.0
H926 H 0.45212 0.55809 0.97376 0.0
C927 C 0.38405 0.60181 0.85615 0.0
C928 C 0.39373 0.62457 0.83552 0.0
C929 C 0.40172 0.5917 0.87844 0.0
C930 C 0.42956 0.6044 0.88123 0.0
C931 C 0.43895 0.62755 0.86103 0.0
C932 C 0.4216 0.63698 0.8383 0.0
C933 C 0.49507 0.58626 0.91909 0.0
C934 C 0.48671 0.57233 0.94662 0.0
C935 C 0.47657 0.59614 0.8981 0.0
C936 C 0.44906 0.59332 0.90419 0.0
C937 C 0.44073 0.5797 0.9321 0.0
C938 C 0.45926 0.56898 0.95286 0.0
H939 H 0.40579 0.33414 0.85193 0.0
H940 H 0.38189 0.40794 0.80466 0.0
H941 H 0.43106 0.36501 0.89098 0.0
H942 H 0.40583 0.43828 0.84421 0.0
H943 H 0.48168 0.48783 0.8934 0.0
H944 H 0.45256 0.45618 0.85858 0.0
H945 H 0.42812 0.3962 0.93304 0.0
H946 H 0.45815 0.42809 0.96837 0.0
C947 C 0.40576 0.35686 0.84991 0.0
C948 C 0.39185 0.36847 0.82494 0.0
C949 C 0.41995 0.37451 0.87255 0.0
C950 C 0.42064 0.40419 0.87071 0.0
C951 C 0.40609 0.41559 0.8462 0.0
C952 C 0.39203 0.39805 0.82362 0.0
C953 C 0.47003 0.46801 0.90258 0.0
C954 C 0.47236 0.46052 0.93378 0.0
C955 C 0.4531 0.44987 0.88251 0.0
C956 C 0.43783 0.42363 0.89293 0.0
C957 C 0.43976 0.41618 0.92423 0.0
C958 C 0.45678 0.43452 0.9445 0.0
H959 H 0.6082 0.36802 0.79073 0.0
H960 H 0.68669 0.39394 0.83829 0.0
H961 H 0.58855 0.39607 0.82372 0.0
H962 H 0.66718 0.42361 0.87033 0.0
H963 H 0.61391 0.45021 0.94185 0.0
H964 H 0.63704 0.42289 0.91061 0.0
H965 H 0.58801 0.44444 0.83153 0.0
H966 H 0.56452 0.47053 0.8627 0.0
C967 C 0.62133 0.37958 0.80832 0.0
C968 C 0.6491 0.37852 0.81175 0.0
C969 C 0.61009 0.39616 0.827 0.0
C970 C 0.6263 0.41252 0.84954 0.0
C971 C 0.65403 0.41124 0.85333 0.0
C972 C 0.66529 0.39445 0.83467 0.0
C973 C 0.60833 0.44925 0.91774 0.0
C974 C 0.58713 0.46217 0.90485 0.0
C975 C 0.62159 0.43364 0.89979 0.0
C976 C 0.61406 0.43091 0.86856 0.0
C977 C 0.59382 0.44522 0.8556 0.0
C978 C 0.58045 0.46042 0.87349 0.0
H979 H 0.60706 0.61097 0.75138 0.0
H980 H 0.69021 0.61599 0.78649 0.0
H981 H 0.59127 0.58605 0.79817 0.0
H982 H 0.67438 0.58994 0.833 0.0
H983 H 0.6316 0.58391 0.92427 0.0
H984 H 0.65182 0.6007 0.87656 0.0
H985 H 0.58883 0.54167 0.8282 0.0
H986 H 0.56809 0.5256 0.87566 0.0
C987 C 0.62196 0.60655 0.76904 0.0
C988 C 0.64985 0.61568 0.76538 0.0
C989 C 0.61293 0.5919 0.79569 0.0
C990 C 0.63159 0.58596 0.81928 0.0
C991 C 0.65952 0.5944 0.81531 0.0
C992 C 0.66857 0.60908 0.78859 0.0
C993 C 0.62229 0.57421 0.90352 0.0
C994 C 0.59803 0.55372 0.90372 0.0
C995 C 0.63398 0.58371 0.87618 0.0
C996 C 0.6217 0.57278 0.84856 0.0
C997 C 0.59844 0.55093 0.84904 0.0
C998 C 0.58667 0.54158 0.87631 0.0
H999 H 0.58977 0.64864 0.21014 0.0
H1000 H 0.6644 0.65056 0.16721 0.0
H1001 H 0.56496 0.617 0.17182 0.0
H1002 H 0.63938 0.61843 0.12879 0.0
H1003 H 0.5735 0.58167 0.05013 0.0
H1004 H 0.60103 0.61609 0.08499 0.0
H1005 H 0.5655 0.5657 0.16129 0.0
H1006 H 0.53852 0.53158 0.12714 0.0
C1007 C 0.60085 0.6426 0.19229 0.0
C1008 C 0.62908 0.65213 0.19179 0.0
C1009 C 0.58665 0.62427 0.17046 0.0
C1010 C 0.60025 0.61509 0.14739 0.0
C1011 C 0.62836 0.62524 0.14623 0.0
C1012 C 0.64268 0.64342 0.16836 0.0
C1013 C 0.57176 0.5779 0.07435 0.0
C1014 C 0.55356 0.55398 0.08573 0.0
C1015 C 0.58754 0.59755 0.09428 0.0
C1016 C 0.58511 0.59378 0.12585 0.0
C1017 C 0.56746 0.5695 0.13709 0.0
C1018 C 0.55205 0.54985 0.11738 0.0
H1019 H 0.42102 0.64364 0.23129 0.0
H1020 H 0.34133 0.6134 0.18824 0.0
H1021 H 0.44057 0.61655 0.19702 0.0
H1022 H 0.36086 0.585 0.15477 0.0
H1023 H 0.41289 0.56118 0.07998 0.0
H1024 H 0.38995 0.58768 0.11243 0.0
H1025 H 0.44203 0.56784 0.18952 0.0
H1026 H 0.46512 0.54237 0.15728 0.0
C1027 C 0.40762 0.63132 0.21444 0.0
C1028 C 0.37954 0.6308 0.21266 0.0
C1029 C 0.41882 0.61538 0.19499 0.0
C1030 C 0.40229 0.59823 0.17328 0.0
C1031 C 0.37424 0.59801 0.17111 0.0
C1032 C 0.363 0.61406 0.19058 0.0
C1033 C 0.41919 0.56234 0.10392 0.0
C1034 C 0.44109 0.55006 0.11593 0.0
C1035 C 0.40605 0.57747 0.12255 0.0
C1036 C 0.41449 0.58043 0.15354 0.0
C1037 C 0.4355 0.56683 0.16564 0.0
C1038 C 0.44866 0.55202 0.14711 0.0
H1039 H 0.64566 0.43373 0.194 0.0
H1040 H 0.62584 0.34976 0.15666 0.0
H1041 H 0.61593 0.45122 0.15424 0.0
H1042 H 0.59559 0.36714 0.11759 0.0
H1043 H 0.51751 0.40169 0.08235 0.0
H1044 H 0.55121 0.38357 0.11658 0.0
H1045 H 0.61021 0.46039 0.09778 0.0
H1046 H 0.57665 0.47855 0.06349 0.0
C1047 C 0.63533 0.41907 0.17714 0.0
C1048 C 0.63807 0.3902 0.17891 0.0
C1049 C 0.61819 0.4291 0.15436 0.0
C1050 C 0.60318 0.41051 0.13287 0.0
C1051 C 0.60648 0.3819 0.13408 0.0
C1052 C 0.62381 0.37194 0.15662 0.0
C1053 C 0.53778 0.41455 0.08511 0.0
C1054 C 0.54427 0.44159 0.07006 0.0
C1055 C 0.55713 0.40413 0.10472 0.0
C1056 C 0.58337 0.42063 0.11009 0.0
C1057 C 0.59011 0.44729 0.09441 0.0
C1058 C 0.57089 0.45756 0.07451 0.0
loop_
_geom_bond_atom_site_label_1
_geom_bond_atom_site_label_2
_geom_bond_distance
_geom_bond_site_symmetry_2
_ccdc_geom_bond_type
C0 C1 1.391 . S
C0 C4 1.391 . S
C0 H42 0.948 . S
C1 C0 1.391 . S
C1 C2 1.391 . S
C2 C1 1.391 . S
C2 H58 0.947 . S
C2 C59 1.392 . S
C3 C4 1.391 . S
C3 C7 1.397 . S
C3 C59 1.419 . S
C4 C0 1.391 . S
C4 C3 1.391 . S
C4 C5 1.399 . S
C5 C4 1.399 . S
C5 C8 1.396 . S
C5 C17 1.453 . S
C5 C18 1.684 . S
H6 C30 0.948 . S
C7 C3 1.397 . S
C7 C8 1.394 . S
C7 C26 1.723 . S
C8 C5 1.396 . S
C8 C7 1.394 . S
C8 C38 1.723 . S
H9 C32 0.947 . S
H10 C33 0.948 . S
H11 C39 0.982 . S
H12 C40 0.979 . S
H13 C40 0.980 . S
H14 C40 0.983 . S
H15 C39 0.979 . S
H16 C39 0.977 . S
C17 C5 1.453 . S
C17 H46 0.982 . S
C17 H47 0.979 . S
C17 H48 0.977 . S
C18 C5 1.684 . S
C18 H43 0.979 . S
C18 H44 0.980 . S
C18 H45 0.983 . S
C19 C20 1.391 . S
C19 C24 1.391 . S
C19 H49 0.948 . S
C20 C19 1.391 . S
C20 C21 1.391 . S
C21 C20 1.391 . S
C21 C22 1.392 . S
C21 H50 0.947 . S
C22 C21 1.392 . S
C22 C23 1.419 . S
C22 H51 0.948 . S
C23 C22 1.419 . S
C23 C24 1.391 . S
C23 C27 1.397 . S
C24 C19 1.391 . S
C24 C23 1.391 . S
C24 C25 1.399 . S
C25 C24 1.399 . S
C25 C26 1.396 . S
C25 C28 1.453 . S
C25 C29 1.684 . S
C26 C7 1.723 . S
C26 C25 1.396 . S
C26 C27 1.394 . S
C27 C23 1.397 . S
C27 C26 1.394 . S
C27 C37 1.723 . S
C28 C25 1.453 . S
C28 H52 0.982 . S
C28 H53 0.979 . S
C28 H54 0.977 . S
C29 C25 1.684 . S
C29 H55 0.979 . S
C29 H56 0.980 . S
C29 H57 0.983 . S
C30 H6 0.948 . S
C30 C31 1.391 . S
C30 C35 1.391 . S
C31 C30 1.391 . S
C31 C32 1.391 . S
C32 H9 0.947 . S
C32 C31 1.391 . S
C32 C33 1.392 . S
C33 H10 0.948 . S
C33 C32 1.392 . S
C33 C34 1.419 . S
C34 C33 1.419 . S
C34 C35 1.391 . S
C34 C38 1.397 . S
C35 C30 1.391 . S
C35 C34 1.391 . S
C35 C36 1.399 . S
C36 C35 1.399 . S
C36 C37 1.396 . S
C36 C39 1.453 . S
C36 C40 1.684 . S
C37 C27 1.723 . S
C37 C36 1.396 . S
C37 C38 1.394 . S
C38 C8 1.723 . S
C38 C34 1.397 . S
C38 C37 1.394 . S
C39 H11 0.982 . S
C39 H15 0.979 . S
C39 H16 0.977 . S
C39 C36 1.453 . S
C40 H12 0.979 . S
C40 H13 0.980 . S
C40 H14 0.983 . S
C40 C36 1.684 . S
H41 C59 0.948 . S
H42 C0 0.948 . S
H43 C18 0.979 . S
H44 C18 0.980 . S
H45 C18 0.983 . S
H46 C17 0.982 . S
H47 C17 0.979 . S
H48 C17 0.977 . S
H49 C19 0.948 . S
H50 C21 0.947 . S
H51 C22 0.948 . S
H52 C28 0.982 . S
H53 C28 0.979 . S
H54 C28 0.977 . S
H55 C29 0.979 . S
H56 C29 0.980 . S
H57 C29 0.983 . S
H58 C2 0.947 . S
C59 C2 1.392 . S
C59 C3 1.419 . S
C59 H41 0.948 . S
C60 C61 1.391 . S
C60 C64 1.391 . S
C60 H102 0.948 . S
C61 C60 1.391 . S
C61 C62 1.391 . S
C62 C61 1.391 . S
C62 H118 0.947 . S
C62 C119 1.392 . S
C63 C64 1.391 . S
C63 C67 1.397 . S
C63 C119 1.419 . S
C64 C60 1.391 . S
C64 C63 1.391 . S
C64 C65 1.399 . S
C65 C64 1.399 . S
C65 C68 1.396 . S
C65 C77 1.453 . S
C65 C78 1.684 . S
H66 C90 0.948 . S
C67 C63 1.397 . S
C67 C68 1.394 . S
C67 C86 1.723 . S
C68 C65 1.396 . S
C68 C67 1.394 . S
C68 C98 1.723 . S
H69 C92 0.947 . S
H70 C93 0.948 . S
H71 C99 0.982 . S
H72 C100 0.979 . S
H73 C100 0.980 . S
H74 C100 0.983 . S
H75 C99 0.979 . S
H76 C99 0.977 . S
C77 C65 1.453 . S
C77 H106 0.982 . S
C77 H107 0.979 . S
C77 H108 0.977 . S
C78 C65 1.684 . S
C78 H103 0.979 . S
C78 H104 0.980 . S
C78 H105 0.983 . S
C79 C80 1.391 . S
C79 C84 1.391 . S
C79 H109 0.948 . S
C80 C79 1.391 . S
C80 C81 1.391 . S
C81 C80 1.391 . S
C81 C82 1.392 . S
C81 H110 0.947 . S
C82 C81 1.392 . S
C82 C83 1.419 . S
C82 H111 0.948 . S
C83 C82 1.419 . S
C83 C84 1.391 . S
C83 C87 1.397 . S
C84 C79 1.391 . S
C84 C83 1.391 . S
C84 C85 1.399 . S
C85 C84 1.399 . S
C85 C86 1.396 . S
C85 C88 1.453 . S
C85 C89 1.684 . S
C86 C67 1.723 . S
C86 C85 1.396 . S
C86 C87 1.394 . S
C87 C83 1.397 . S
C87 C86 1.394 . S
C87 C97 1.723 . S
C88 C85 1.453 . S
C88 H112 0.982 . S
C88 H113 0.979 . S
C88 H114 0.977 . S
C89 C85 1.684 . S
C89 H115 0.979 . S
C89 H116 0.980 . S
C89 H117 0.983 . S
C90 H66 0.948 . S
C90 C91 1.391 . S
C90 C95 1.391 . S
C91 C90 1.391 . S
C91 C92 1.391 . S
C92 H69 0.947 . S
C92 C91 1.391 . S
C92 C93 1.392 . S
C93 H70 0.948 . S
C93 C92 1.392 . S
C93 C94 1.419 . S
C94 C93 1.419 . S
C94 C95 1.391 . S
C94 C98 1.397 . S
C95 C90 1.391 . S
C95 C94 1.391 . S
C95 C96 1.399 . S
C96 C95 1.399 . S
C96 C97 1.396 . S
C96 C99 1.453 . S
C96 C100 1.684 . S
C97 C87 1.723 . S
C97 C96 1.396 . S
C97 C98 1.394 . S
C98 C68 1.723 . S
C98 C94 1.397 . S
C98 C97 1.394 . S
C99 H71 0.982 . S
C99 H75 0.979 . S
C99 H76 0.977 . S
C99 C96 1.453 . S
C100 H72 0.979 . S
C100 H73 0.980 . S
C100 H74 0.983 . S
C100 C96 1.684 . S
H101 C119 0.948 . S
H102 C60 0.948 . S
H103 C78 0.979 . S
H104 C78 0.980 . S
H105 C78 0.983 . S
H106 C77 0.982 . S
H107 C77 0.979 . S
H108 C77 0.977 . S
H109 C79 0.948 . S
H110 C81 0.947 . S
H111 C82 0.948 . S
H112 C88 0.982 . S
H113 C88 0.979 . S
H114 C88 0.977 . S
H115 C89 0.979 . S
H116 C89 0.980 . S
H117 C89 0.983 . S
H118 C62 0.947 . S
C119 C62 1.392 . S
C119 C63 1.419 . S
C119 H101 0.948 . S
C120 C121 1.391 . S
C120 C124 1.391 . S
C120 H162 0.948 . S
C121 C120 1.391 . S
C121 C122 1.391 . S
C122 C121 1.391 . S
C122 H178 0.947 . S
C122 C179 1.392 . S
C123 C124 1.391 . S
C123 C127 1.397 . S
C123 C179 1.419 . S
C124 C120 1.391 . S
C124 C123 1.391 . S
C124 C125 1.399 . S
C125 C124 1.399 . S
C125 C128 1.396 . S
C125 C137 1.453 . S
C125 C138 1.684 . S
H126 C150 0.948 . S
C127 C123 1.397 . S
C127 C128 1.394 . S
C127 C146 1.723 . S
C128 C125 1.396 . S
C128 C127 1.394 . S
C128 C158 1.723 . S
H129 C152 0.947 . S
H130 C153 0.948 . S
H131 C159 0.982 . S
H132 C160 0.979 . S
H133 C160 0.980 . S
H134 C160 0.983 . S
H135 C159 0.979 . S
H136 C159 0.977 . S
C137 C125 1.453 . S
C137 H166 0.982 . S
C137 H167 0.979 . S
C137 H168 0.977 . S
C138 C125 1.684 . S
C138 H163 0.979 . S
C138 H164 0.980 . S
C138 H165 0.983 . S
C139 C140 1.391 . S
C139 C144 1.391 . S
C139 H169 0.948 . S
C140 C139 1.391 . S
C140 C141 1.391 . S
C141 C140 1.391 . S
C141 C142 1.392 . S
C141 H170 0.947 . S
C142 C141 1.392 . S
C142 C143 1.419 . S
C142 H171 0.948 . S
C143 C142 1.419 . S
C143 C144 1.391 . S
C143 C147 1.397 . S
C144 C139 1.391 . S
C144 C143 1.391 . S
C144 C145 1.399 . S
C145 C144 1.399 . S
C145 C146 1.396 . S
C145 C148 1.453 . S
C145 C149 1.684 . S
C146 C127 1.723 . S
C146 C145 1.396 . S
C146 C147 1.394 . S
C147 C143 1.397 . S
C147 C146 1.394 . S
C147 C157 1.723 . S
C148 C145 1.453 . S
C148 H172 0.982 . S
C148 H173 0.979 . S
C148 H174 0.977 . S
C149 C145 1.684 . S
C149 H175 0.979 . S
C149 H176 0.980 . S
C149 H177 0.983 . S
C150 H126 0.948 . S
C150 C151 1.391 . S
C150 C155 1.391 . S
C151 C150 1.391 . S
C151 C152 1.391 . S
C152 H129 0.947 . S
C152 C151 1.391 . S
C152 C153 1.392 . S
C153 H130 0.948 . S
C153 C152 1.392 . S
C153 C154 1.419 . S
C154 C153 1.419 . S
C154 C155 1.391 . S
C154 C158 1.397 . S
C155 C150 1.391 . S
C155 C154 1.391 . S
C155 C156 1.399 . S
C156 C155 1.399 . S
C156 C157 1.396 . S
C156 C159 1.453 . S
C156 C160 1.684 . S
C157 C147 1.723 . S
C157 C156 1.396 . S
C157 C158 1.394 . S
C158 C128 1.723 . S
C158 C154 1.397 . S
C158 C157 1.394 . S
C159 H131 0.982 . S
C159 H135 0.979 . S
C159 H136 0.977 . S
C159 C156 1.453 . S
C160 H132 0.979 . S
C160 H133 0.980 . S
C160 H134 0.983 . S
C160 C156 1.684 . S
H161 C179 0.948 . S
H162 C120 0.948 . S
H163 C138 0.979 . S
H164 C138 0.980 . S
H165 C138 0.983 . S
H166 C137 0.982 . S
H167 C137 0.979 . S
H168 C137 0.977 . S
H169 C139 0.948 . S
H170 C141 0.947 . S
H171 C142 0.948 . S
H172 C148 0.982 . S
H173 C148 0.979 . S
H174 C148 0.977 . S
H175 C149 0.979 . S
H176 C149 0.980 . S
H177 C149 0.983 . S
H178 C122 0.947 . S
C179 C122 1.392 . S
C179 C123 1.419 . S
C179 H161 0.948 . S
C180 C181 1.391 . S
C180 C184 1.391 . S
C180 H222 0.948 . S
C181 C180 1.391 . S
C181 C182 1.391 . S
C182 C181 1.391 . S
C182 H238 0.947 . S
C182 C239 1.392 . S
C183 C184 1.391 . S
C183 C187 1.397 . S
C183 C239 1.419 . S
C184 C180 1.391 . S
C184 C183 1.391 . S
C184 C185 1.399 . S
C185 C184 1.399 . S
C185 C188 1.396 . S
C185 C197 1.453 . S
C185 C198 1.684 . S
H186 C210 0.948 . S
C187 C183 1.397 . S
C187 C188 1.394 . S
C187 C206 1.723 . S
C188 C185 1.396 . S
C188 C187 1.394 . S
C188 C218 1.723 . S
H189 C212 0.947 . S
H190 C213 0.948 . S
H191 C219 0.982 . S
H192 C220 0.979 . S
H193 C220 0.980 . S
H194 C220 0.983 . S
H195 C219 0.979 . S
H196 C219 0.977 . S
C197 C185 1.453 . S
C197 H226 0.982 . S
C197 H227 0.979 . S
C197 H228 0.977 . S
C198 C185 1.684 . S
C198 H223 0.979 . S
C198 H224 0.980 . S
C198 H225 0.983 . S
C199 C200 1.391 . S
C199 C204 1.391 . S
C199 H229 0.948 . S
C200 C199 1.391 . S
C200 C201 1.391 . S
C201 C200 1.391 . S
C201 C202 1.392 . S
C201 H230 0.947 . S
C202 C201 1.392 . S
C202 C203 1.419 . S
C202 H231 0.948 . S
C203 C202 1.419 . S
C203 C204 1.391 . S
C203 C207 1.397 . S
C204 C199 1.391 . S
C204 C203 1.391 . S
C204 C205 1.399 . S
C205 C204 1.399 . S
C205 C206 1.396 . S
C205 C208 1.453 . S
C205 C209 1.684 . S
C206 C187 1.723 . S
C206 C205 1.396 . S
C206 C207 1.394 . S
C207 C203 1.397 . S
C207 C206 1.394 . S
C207 C217 1.723 . S
C208 C205 1.453 . S
C208 H232 0.982 . S
C208 H233 0.979 . S
C208 H234 0.977 . S
C209 C205 1.684 . S
C209 H235 0.979 . S
C209 H236 0.980 . S
C209 H237 0.983 . S
C210 H186 0.948 . S
C210 C211 1.391 . S
C210 C215 1.391 . S
C211 C210 1.391 . S
C211 C212 1.391 . S
C212 H189 0.947 . S
C212 C211 1.391 . S
C212 C213 1.392 . S
C213 H190 0.948 . S
C213 C212 1.392 . S
C213 C214 1.419 . S
C214 C213 1.419 . S
C214 C215 1.391 . S
C214 C218 1.397 . S
C215 C210 1.391 . S
C215 C214 1.391 . S
C215 C216 1.399 . S
C216 C215 1.399 . S
C216 C217 1.396 . S
C216 C219 1.453 . S
C216 C220 1.684 . S
C217 C207 1.723 . S
C217 C216 1.396 . S
C217 C218 1.394 . S
C218 C188 1.723 . S
C218 C214 1.397 . S
C218 C217 1.394 . S
C219 H191 0.982 . S
C219 H195 0.979 . S
C219 H196 0.977 . S
C219 C216 1.453 . S
C220 H192 0.979 . S
C220 H193 0.980 . S
C220 H194 0.983 . S
C220 C216 1.684 . S
H221 C239 0.948 . S
H222 C180 0.948 . S
H223 C198 0.979 . S
H224 C198 0.980 . S
H225 C198 0.983 . S
H226 C197 0.982 . S
H227 C197 0.979 . S
H228 C197 0.977 . S
H229 C199 0.948 . S
H230 C201 0.947 . S
H231 C202 0.948 . S
H232 C208 0.982 . S
H233 C208 0.979 . S
H234 C208 0.977 . S
H235 C209 0.979 . S
H236 C209 0.980 . S
H237 C209 0.983 . S
H238 C182 0.947 . S
C239 C182 1.392 . S
C239 C183 1.419 . S
C239 H221 0.948 . S
C240 C241 1.391 . S
C240 C244 1.391 . S
C240 H282 0.948 . S
C241 C240 1.391 . S
C241 C242 1.391 . S
C242 C241 1.391 . S
C242 H298 0.947 . S
C242 C299 1.392 . S
C243 C244 1.391 . S
C243 C247 1.397 . S
C243 C299 1.419 . S
C244 C240 1.391 . S
C244 C243 1.391 . S
C244 C245 1.399 . S
C245 C244 1.399 . S
C245 C248 1.396 . S
C245 C257 1.453 . S
C245 C258 1.684 . S
H246 C270 0.948 . S
C247 C243 1.397 . S
C247 C248 1.394 . S
C247 C266 1.723 . S
C248 C245 1.396 . S
C248 C247 1.394 . S
C248 C278 1.723 . S
H249 C272 0.947 . S
H250 C273 0.948 . S
H251 C279 0.982 . S
H252 C280 0.979 . S
H253 C280 0.980 . S
H254 C280 0.983 . S
H255 C279 0.979 . S
H256 C279 0.977 . S
C257 C245 1.453 . S
C257 H286 0.982 . S
C257 H287 0.979 . S
C257 H288 0.977 . S
C258 C245 1.684 . S
C258 H283 0.979 . S
C258 H284 0.980 . S
C258 H285 0.983 . S
C259 C260 1.391 . S
C259 C264 1.391 . S
C259 H289 0.948 . S
C260 C259 1.391 . S
C260 C261 1.391 . S
C261 C260 1.391 . S
C261 C262 1.392 . S
C261 H290 0.947 . S
C262 C261 1.392 . S
C262 C263 1.419 . S
C262 H291 0.948 . S
C263 C262 1.419 . S
C263 C264 1.391 . S
C263 C267 1.397 . S
C264 C259 1.391 . S
C264 C263 1.391 . S
C264 C265 1.399 . S
C265 C264 1.399 . S
C265 C266 1.396 . S
C265 C268 1.453 . S
C265 C269 1.684 . S
C266 C247 1.723 . S
C266 C265 1.396 . S
C266 C267 1.394 . S
C267 C263 1.397 . S
C267 C266 1.394 . S
C267 C277 1.723 . S
C268 C265 1.453 . S
C268 H292 0.982 . S
C268 H293 0.979 . S
C268 H294 0.977 . S
C269 C265 1.684 . S
C269 H295 0.979 . S
C269 H296 0.980 . S
C269 H297 0.983 . S
C270 H246 0.948 . S
C270 C271 1.391 . S
C270 C275 1.391 . S
C271 C270 1.391 . S
C271 C272 1.391 . S
C272 H249 0.947 . S
C272 C271 1.391 . S
C272 C273 1.392 . S
C273 H250 0.948 . S
C273 C272 1.392 . S
C273 C274 1.419 . S
C274 C273 1.419 . S
C274 C275 1.391 . S
C274 C278 1.397 . S
C275 C270 1.391 . S
C275 C274 1.391 . S
C275 C276 1.399 . S
C276 C275 1.399 . S
C276 C277 1.396 . S
C276 C279 1.453 . S
C276 C280 1.684 . S
C277 C267 1.723 . S
C277 C276 1.396 . S
C277 C278 1.394 . S
C278 C248 1.723 . S
C278 C274 1.397 . S
C278 C277 1.394 . S
C279 H251 0.982 . S
C279 H255 0.979 . S
C279 H256 0.977 . S
C279 C276 1.453 . S
C280 H252 0.979 . S
C280 H253 0.980 . S
C280 H254 0.983 . S
C280 C276 1.684 . S
H281 C299 0.948 . S
H282 C240 0.948 . S
H283 C258 0.979 . S
H284 C258 0.980 . S
H285 C258 0.983 . S
H286 C257 0.982 . S
H287 C257 0.979 . S
H288 C257 0.977 . S
H289 C259 0.948 . S
H290 C261 0.947 . S
H291 C262 0.948 . S
H292 C268 0.982 . S
H293 C268 0.979 . S
H294 C268 0.977 . S
H295 C269 0.979 . S
H296 C269 0.980 . S
H297 C269 0.983 . S
H298 C242 0.947 . S
C299 C242 1.392 . S
C299 C243 1.419 . S
C299 H281 0.948 . S
C300 C301 1.391 . S
C300 C304 1.391 . S
C300 H342 0.948 . S
C301 C300 1.391 . S
C301 C302 1.391 . S
C302 C301 1.391 . S
C302 H358 0.947 . S
C302 C359 1.392 . S
C303 C304 1.391 . S
C303 C307 1.397 . S
C303 C359 1.419 . S
C304 C300 1.391 . S
C304 C303 1.391 . S
C304 C305 1.399 . S
C305 C304 1.399 . S
C305 C308 1.396 . S
C305 C317 1.453 . S
C305 C318 1.684 . S
H306 C330 0.948 . S
C307 C303 1.397 . S
C307 C308 1.394 . S
C307 C326 1.723 . S
C308 C305 1.396 . S
C308 C307 1.394 . S
C308 C338 1.723 . S
H309 C332 0.947 . S
H310 C333 0.948 . S
H311 C339 0.982 . S
H312 C340 0.979 . S
H313 C340 0.980 . S
H314 C340 0.983 . S
H315 C339 0.979 . S
H316 C339 0.977 . S
C317 C305 1.453 . S
C317 H346 0.982 . S
C317 H347 0.979 . S
C317 H348 0.977 . S
C318 C305 1.684 . S
C318 H343 0.979 . S
C318 H344 0.980 . S
C318 H345 0.983 . S
C319 C320 1.391 . S
C319 C324 1.391 . S
C319 H349 0.948 . S
C320 C319 1.391 . S
C320 C321 1.391 . S
C321 C320 1.391 . S
C321 C322 1.392 . S
C321 H350 0.947 . S
C322 C321 1.392 . S
C322 C323 1.419 . S
C322 H351 0.948 . S
C323 C322 1.419 . S
C323 C324 1.391 . S
C323 C327 1.397 . S
C324 C319 1.391 . S
C324 C323 1.391 . S
C324 C325 1.399 . S
C325 C324 1.399 . S
C325 C326 1.396 . S
C325 C328 1.453 . S
C325 C329 1.684 . S
C326 C307 1.723 . S
C326 C325 1.396 . S
C326 C327 1.394 . S
C327 C323 1.397 . S
C327 C326 1.394 . S
C327 C337 1.723 . S
C328 C325 1.453 . S
C328 H352 0.982 . S
C328 H353 0.979 . S
C328 H354 0.977 . S
C329 C325 1.684 . S
C329 H355 0.979 . S
C329 H356 0.980 . S
C329 H357 0.983 . S
C330 H306 0.948 . S
C330 C331 1.391 . S
C330 C335 1.391 . S
C331 C330 1.391 . S
C331 C332 1.391 . S
C332 H309 0.947 . S
C332 C331 1.391 . S
C332 C333 1.392 . S
C333 H310 0.948 . S
C333 C332 1.392 . S
C333 C334 1.419 . S
C334 C333 1.419 . S
C334 C335 1.391 . S
C334 C338 1.397 . S
C335 C330 1.391 . S
C335 C334 1.391 . S
C335 C336 1.399 . S
C336 C335 1.399 . S
C336 C337 1.396 . S
C336 C339 1.453 . S
C336 C340 1.684 . S
C337 C327 1.723 . S
C337 C336 1.396 . S
C337 C338 1.394 . S
C338 C308 1.723 . S
C338 C334 1.397 . S
C338 C337 1.394 . S
C339 H311 0.982 . S
C339 H315 0.979 . S
C339 H316 0.977 . S
C339 C336 1.453 . S
C340 H312 0.979 . S
C340 H313 0.980 . S
C340 H314 0.983 . S
C340 C336 1.684 . S
H341 C359 0.948 . S
H342 C300 0.948 . S
H343 C318 0.979 . S
H344 C318 0.980 . S
H345 C318 0.983 . S
H346 C317 0.982 . S
H347 C317 0.979 . S
H348 C317 0.977 . S
H349 C319 0.948 . S
H350 C321 0.947 . S
H351 C322 0.948 . S
H352 C328 0.982 . S
H353 C328 0.979 . S
H354 C328 0.977 . S
H355 C329 0.979 . S
H356 C329 0.980 . S
H357 C329 0.983 . S
H358 C302 0.947 . S
C359 C302 1.392 . S
C359 C303 1.419 . S
C359 H341 0.948 . S
C360 C361 1.391 . S
C360 C364 1.391 . S
C360 H402 0.948 . S
C361 C360 1.391 . S
C361 C362 1.391 . S
C362 C361 1.391 . S
C362 H418 0.947 . S
C362 C419 1.392 . S
C363 C364 1.391 . S
C363 C367 1.397 . S
C363 C419 1.419 . S
C364 C360 1.391 . S
C364 C363 1.391 . S
C364 C365 1.399 . S
C365 C364 1.399 . S
C365 C368 1.396 . S
C365 C377 1.453 . S
C365 C378 1.684 . S
H366 C390 0.948 . S
C367 C363 1.397 . S
C367 C368 1.394 . S
C367 C386 1.723 . S
C368 C365 1.396 . S
C368 C367 1.394 . S
C368 C398 1.723 . S
H369 C392 0.947 . S
H370 C393 0.948 . S
H371 C399 0.982 . S
H372 C400 0.979 . S
H373 C400 0.980 . S
H374 C400 0.983 . S
H375 C399 0.979 . S
H376 C399 0.977 . S
C377 C365 1.453 . S
C377 H406 0.982 . S
C377 H407 0.979 . S
C377 H408 0.977 . S
C378 C365 1.684 . S
C378 H403 0.979 . S
C378 H404 0.980 . S
C378 H405 0.983 . S
C379 C380 1.391 . S
C379 C384 1.391 . S
C379 H409 0.948 . S
C380 C379 1.391 . S
C380 C381 1.391 . S
C381 C380 1.391 . S
C381 C382 1.392 . S
C381 H410 0.947 . S
C382 C381 1.392 . S
C382 C383 1.419 . S
C382 H411 0.948 . S
C383 C382 1.419 . S
C383 C384 1.391 . S
C383 C387 1.397 . S
C384 C379 1.391 . S
C384 C383 1.391 . S
C384 C385 1.399 . S
C385 C384 1.399 . S
C385 C386 1.396 . S
C385 C388 1.453 . S
C385 C389 1.684 . S
C386 C367 1.723 . S
C386 C385 1.396 . S
C386 C387 1.394 . S
C387 C383 1.397 . S
C387 C386 1.394 . S
C387 C397 1.723 . S
C388 C385 1.453 . S
C388 H412 0.982 . S
C388 H413 0.979 . S
C388 H414 0.977 . S
C389 C385 1.684 . S
C389 H415 0.979 . S
C389 H416 0.980 . S
C389 H417 0.983 . S
C390 H366 0.948 . S
C390 C391 1.391 . S
C390 C395 1.391 . S
C391 C390 1.391 . S
C391 C392 1.391 . S
C392 H369 0.947 . S
C392 C391 1.391 . S
C392 C393 1.392 . S
C393 H370 0.948 . S
C393 C392 1.392 . S
C393 C394 1.419 . S
C394 C393 1.419 . S
C394 C395 1.391 . S
C394 C398 1.397 . S
C395 C390 1.391 . S
C395 C394 1.391 . S
C395 C396 1.399 . S
C396 C395 1.399 . S
C396 C397 1.396 . S
C396 C399 1.453 . S
C396 C400 1.684 . S
C397 C387 1.723 . S
C397 C396 1.396 . S
C397 C398 1.394 . S
C398 C368 1.723 . S
C398 C394 1.397 . S
C398 C397 1.394 . S
C399 H371 0.982 . S
C399 H375 0.979 . S
C399 H376 0.977 . S
C399 C396 1.453 . S
C400 H372 0.979 . S
C400 H373 0.980 . S
C400 H374 0.983 . S
C400 C396 1.684 . S
H401 C419 0.948 . S
H402 C360 0.948 . S
H403 C378 0.979 . S
H404 C378 0.980 . S
H405 C378 0.983 . S
H406 C377 0.982 . S
H407 C377 0.979 . S
H408 C377 0.977 . S
H409 C379 0.948 . S
H410 C381 0.947 . S
H411 C382 0.948 . S
H412 C388 0.982 . S
H413 C388 0.979 . S
H414 C388 0.977 . S
H415 C389 0.979 . S
H416 C389 0.980 . S
H417 C389 0.983 . S
H418 C362 0.947 . S
C419 C362 1.392 . S
C419 C363 1.419 . S
C419 H401 0.948 . S
C420 C421 1.391 . S
C420 C424 1.391 . S
C420 H462 0.948 . S
C421 C420 1.391 . S
C421 C422 1.391 . S
C422 C421 1.391 . S
C422 H478 0.947 . S
C422 C479 1.392 . S
C423 C424 1.391 . S
C423 C427 1.397 . S
C423 C479 1.419 . S
C424 C420 1.391 . S
C424 C423 1.391 . S
C424 C425 1.399 . S
C425 C424 1.399 . S
C425 C428 1.396 . S
C425 C437 1.453 . S
C425 C438 1.684 . S
H426 C450 0.948 . S
C427 C423 1.397 . S
C427 C428 1.394 . S
C427 C446 1.723 . S
C428 C425 1.396 . S
C428 C427 1.394 . S
C428 C458 1.723 . S
H429 C452 0.947 . S
H430 C453 0.948 . S
H431 C459 0.982 . S
H432 C460 0.979 . S
H433 C460 0.980 . S
H434 C460 0.983 . S
H435 C459 0.979 . S
H436 C459 0.977 . S
C437 C425 1.453 . S
C437 H466 0.982 . S
C437 H467 0.979 . S
C437 H468 0.977 . S
C438 C425 1.684 . S
C438 H463 0.979 . S
C438 H464 0.980 . S
C438 H465 0.983 . S
C439 C440 1.391 . S
C439 C444 1.391 . S
C439 H469 0.948 . S
C440 C439 1.391 . S
C440 C441 1.391 . S
C441 C440 1.391 . S
C441 C442 1.392 . S
C441 H470 0.947 . S
C442 C441 1.392 . S
C442 C443 1.419 . S
C442 H471 0.948 . S
C443 C442 1.419 . S
C443 C444 1.391 . S
C443 C447 1.397 . S
C444 C439 1.391 . S
C444 C443 1.391 . S
C444 C445 1.399 . S
C445 C444 1.399 . S
C445 C446 1.396 . S
C445 C448 1.453 . S
C445 C449 1.684 . S
C446 C427 1.723 . S
C446 C445 1.396 . S
C446 C447 1.394 . S
C447 C443 1.397 . S
C447 C446 1.394 . S
C447 C457 1.723 . S
C448 C445 1.453 . S
C448 H472 0.982 . S
C448 H473 0.979 . S
C448 H474 0.977 . S
C449 C445 1.684 . S
C449 H475 0.979 . S
C449 H476 0.980 . S
C449 H477 0.983 . S
C450 H426 0.948 . S
C450 C451 1.391 . S
C450 C455 1.391 . S
C451 C450 1.391 . S
C451 C452 1.391 . S
C452 H429 0.947 . S
C452 C451 1.391 . S
C452 C453 1.392 . S
C453 H430 0.948 . S
C453 C452 1.392 . S
C453 C454 1.419 . S
C454 C453 1.419 . S
C454 C455 1.391 . S
C454 C458 1.397 . S
C455 C450 1.391 . S
C455 C454 1.391 . S
C455 C456 1.399 . S
C456 C455 1.399 . S
C456 C457 1.396 . S
C456 C459 1.453 . S
C456 C460 1.684 . S
C457 C447 1.723 . S
C457 C456 1.396 . S
C457 C458 1.394 . S
C458 C428 1.723 . S
C458 C454 1.397 . S
C458 C457 1.394 . S
C459 H431 0.982 . S
C459 H435 0.979 . S
C459 H436 0.977 . S
C459 C456 1.453 . S
C460 H432 0.979 . S
C460 H433 0.980 . S
C460 H434 0.983 . S
C460 C456 1.684 . S
H461 C479 0.948 . S
H462 C420 0.948 . S
H463 C438 0.979 . S
H464 C438 0.980 . S
H465 C438 0.983 . S
H466 C437 0.982 . S
H467 C437 0.979 . S
H468 C437 0.977 . S
H469 C439 0.948 . S
H470 C441 0.947 . S
H471 C442 0.948 . S
H472 C448 0.982 . S
H473 C448 0.979 . S
H474 C448 0.977 . S
H475 C449 0.979 . S
H476 C449 0.980 . S
H477 C449 0.983 . S
H478 C422 0.947 . S
C479 C422 1.392 . S
C479 C423 1.419 . S
C479 H461 0.948 . S
Co480 O483 2.042 . S
Co480 O490 2.264 . S
Co480 O509 2.286 . S
Co480 O510 2.069 . S
Co480 O512 2.015 . S
Co481 O483 2.122 . S
Co481 O489 2.073 . S
Co481 O490 2.327 . S
Co481 O491 1.976 . S
Co482 O483 2.104 . S
Co482 O485 2.070 1_455 S
Co482 O492 2.120 . S
Co482 O493 2.131 1_455 S
Co482 O497 2.103 1_455 S
Co482 O511 2.156 . S
O483 Co480 2.042 . S
O483 Co481 2.122 . S
O483 Co482 2.104 . S
O483 H484 0.980 . S
H484 O483 0.980 . S
O485 Co482 2.070 1_655 S
O485 Co486 2.042 . S
O485 Co487 2.122 . S
O485 H488 0.980 . S
Co486 O485 2.042 . S
Co486 O494 2.286 . S
Co486 O495 2.069 . S
Co486 O496 2.015 . S
Co486 O499 2.264 . S
Co487 O485 2.122 . S
Co487 O498 1.976 . S
Co487 O499 2.327 . S
Co487 O500 2.073 . S
H488 O485 0.980 . S
O489 Co481 2.073 . S
O489 C504 1.245 . S
O490 Co480 2.264 . S
O490 Co481 2.327 . S
O490 C504 1.257 . S
O491 Co481 1.976 . S
O491 C503 1.251 . S
O492 Co482 2.120 . S
O492 C503 1.274 . S
O493 Co482 2.131 1_655 S
O493 C506 1.246 . S
O494 Co486 2.286 . S
O494 C505 1.259 . S
O495 Co486 2.069 . S
O495 C505 1.289 . S
O496 Co486 2.015 . S
O496 C506 1.257 . S
O497 Co482 2.103 1_655 S
O497 C507 1.274 . S
O498 Co487 1.976 . S
O498 C507 1.251 . S
O499 Co486 2.264 . S
O499 Co487 2.327 . S
O499 C508 1.257 . S
O500 Co487 2.073 . S
O500 C508 1.245 . S
C501 O509 1.259 . S
C501 O510 1.289 . S
C502 O511 1.246 . S
C502 O512 1.257 . S
C503 O491 1.251 . S
C503 O492 1.274 . S
C504 O489 1.245 . S
C504 O490 1.257 . S
C505 O494 1.259 . S
C505 O495 1.289 . S
C506 O493 1.246 . S
C506 O496 1.257 . S
C507 O497 1.274 . S
C507 O498 1.251 . S
C508 O499 1.257 . S
C508 O500 1.245 . S
O509 Co480 2.286 . S
O509 C501 1.259 . S
O510 Co480 2.069 . S
O510 C501 1.289 . S
O511 Co482 2.156 . S
O511 C502 1.246 . S
O512 Co480 2.015 . S
O512 C502 1.257 . S
Co513 O516 2.042 . S
Co513 O523 2.264 . S
Co513 O542 2.286 . S
Co513 O543 2.069 . S
Co513 O545 2.015 . S
Co514 O516 2.122 . S
Co514 O522 2.073 . S
Co514 O523 2.327 . S
Co514 O524 1.976 . S
Co515 O516 2.069 1_545 S
Co515 O518 2.105 . S
Co515 O525 2.103 1_545 S
Co515 O526 2.157 . S
Co515 O530 2.120 . S
Co515 O544 2.130 1_545 S
O516 Co513 2.042 . S
O516 Co514 2.122 . S
O516 Co515 2.069 1_565 S
O516 H517 0.980 . S
H517 O516 0.980 . S
O518 Co515 2.105 . S
O518 Co519 2.042 . S
O518 Co520 2.122 . S
O518 H521 0.980 . S
Co519 O518 2.042 . S
Co519 O527 2.286 . S
Co519 O528 2.069 . S
Co519 O529 2.015 . S
Co519 O532 2.264 . S
Co520 O518 2.122 . S
Co520 O531 1.976 . S
Co520 O532 2.327 . S
Co520 O533 2.073 . S
H521 O518 0.980 . S
O522 Co514 2.073 . S
O522 C537 1.245 . S
O523 Co513 2.264 . S
O523 Co514 2.327 . S
O523 C537 1.257 . S
O524 Co514 1.976 . S
O524 C536 1.251 . S
O525 Co515 2.103 1_565 S
O525 C536 1.274 . S
O526 Co515 2.157 . S
O526 C539 1.246 . S
O527 Co519 2.286 . S
O527 C538 1.259 . S
O528 Co519 2.069 . S
O528 C538 1.289 . S
O529 Co519 2.015 . S
O529 C539 1.257 . S
O530 Co515 2.120 . S
O530 C540 1.274 . S
O531 Co520 1.976 . S
O531 C540 1.251 . S
O532 Co519 2.264 . S
O532 Co520 2.327 . S
O532 C541 1.257 . S
O533 Co520 2.073 . S
O533 C541 1.245 . S
C534 O542 1.259 . S
C534 O543 1.289 . S
C535 O544 1.246 . S
C535 O545 1.257 . S
C536 O524 1.251 . S
C536 O525 1.274 . S
C537 O522 1.245 . S
C537 O523 1.257 . S
C538 O527 1.259 . S
C538 O528 1.289 . S
C539 O526 1.246 . S
C539 O529 1.257 . S
C540 O530 1.274 . S
C540 O531 1.251 . S
C541 O532 1.257 . S
C541 O533 1.245 . S
O542 Co513 2.286 . S
O542 C534 1.259 . S
O543 Co513 2.069 . S
O543 C534 1.289 . S
O544 Co515 2.130 1_565 S
O544 C535 1.246 . S
O545 Co513 2.015 . S
O545 C535 1.257 . S
Co546 O549 2.042 . S
Co546 O556 2.264 . S
Co546 O575 2.286 . S
Co546 O576 2.069 . S
Co546 O578 2.015 . S
Co547 O549 2.122 . S
Co547 O555 2.073 . S
Co547 O556 2.327 . S
Co547 O557 1.976 . S
Co548 O549 2.095 . S
Co548 O551 2.078 1_554 S
Co548 O558 2.115 . S
Co548 O559 2.137 1_554 S
Co548 O563 2.107 1_554 S
Co548 O577 2.150 . S
O549 Co546 2.042 . S
O549 Co547 2.122 . S
O549 Co548 2.095 . S
O549 H550 0.980 . S
H550 O549 0.980 . S
O551 Co548 2.078 1_556 S
O551 Co552 2.042 . S
O551 Co553 2.122 . S
O551 H554 0.980 . S
Co552 O551 2.042 . S
Co552 O560 2.286 . S
Co552 O561 2.069 . S
Co552 O562 2.015 . S
Co552 O565 2.264 . S
Co553 O551 2.122 . S
Co553 O564 1.976 . S
Co553 O565 2.327 . S
Co553 O566 2.073 . S
H554 O551 0.980 . S
O555 Co547 2.073 . S
O555 C570 1.245 . S
O556 Co546 2.264 . S
O556 Co547 2.327 . S
O556 C570 1.257 . S
O557 Co547 1.976 . S
O557 C569 1.251 . S
O558 Co548 2.115 . S
O558 C569 1.274 . S
O559 Co548 2.137 1_556 S
O559 C572 1.246 . S
O560 Co552 2.286 . S
O560 C571 1.259 . S
O561 Co552 2.069 . S
O561 C571 1.289 . S
O562 Co552 2.015 . S
O562 C572 1.257 . S
O563 Co548 2.107 1_556 S
O563 C573 1.274 . S
O564 Co553 1.976 . S
O564 C573 1.251 . S
O565 Co552 2.264 . S
O565 Co553 2.327 . S
O565 C574 1.257 . S
O566 Co553 2.073 . S
O566 C574 1.245 . S
C567 O575 1.259 . S
C567 O576 1.289 . S
C568 O577 1.246 . S
C568 O578 1.257 . S
C569 O557 1.251 . S
C569 O558 1.274 . S
C570 O555 1.245 . S
C570 O556 1.257 . S
C571 O560 1.259 . S
C571 O561 1.289 . S
C572 O559 1.246 . S
C572 O562 1.257 . S
C573 O563 1.274 . S
C573 O564 1.251 . S
C574 O565 1.257 . S
C574 O566 1.245 . S
O575 Co546 2.286 . S
O575 C567 1.259 . S
O576 Co546 2.069 . S
O576 C567 1.289 . S
O577 Co548 2.150 . S
O577 C568 1.246 . S
O578 Co546 2.015 . S
O578 C568 1.257 . S
H579 C587 0.950 . S
H580 C592 0.950 . S
H581 C589 0.950 . S
H582 C591 0.950 . S
H583 C593 0.950 . S
H584 C595 0.950 . S
H585 C597 0.950 . S
H586 C598 0.950 . S
C587 H579 0.950 . S
C587 C588 1.386 . S
C587 C589 1.391 . S
C588 C587 1.386 . S
C588 C592 1.393 . S
C589 H581 0.950 . S
C589 C587 1.391 . S
C589 C590 1.400 . S
C590 C589 1.400 . S
C590 C591 1.398 . S
C590 C596 1.491 . S
C591 H582 0.950 . S
C591 C590 1.398 . S
C591 C592 1.391 . S
C592 H580 0.950 . S
C592 C588 1.393 . S
C592 C591 1.391 . S
C593 H583 0.950 . S
C593 C594 1.386 . S
C593 C595 1.391 . S
C594 C593 1.386 . S
C594 C598 1.393 . S
C595 H584 0.950 . S
C595 C593 1.391 . S
C595 C596 1.400 . S
C596 C590 1.491 . S
C596 C595 1.400 . S
C596 C597 1.398 . S
C597 H585 0.950 . S
C597 C596 1.398 . S
C597 C598 1.391 . S
C598 H586 0.950 . S
C598 C594 1.393 . S
C598 C597 1.391 . S
H599 C607 0.950 . S
H600 C612 0.950 . S
H601 C609 0.950 . S
H602 C611 0.950 . S
H603 C613 0.950 . S
H604 C615 0.950 . S
H605 C617 0.950 . S
H606 C618 0.950 . S
C607 H599 0.950 . S
C607 C608 1.386 . S
C607 C609 1.391 . S
C608 C607 1.386 . S
C608 C612 1.393 . S
C609 H601 0.950 . S
C609 C607 1.391 . S
C609 C610 1.400 . S
C610 C609 1.400 . S
C610 C611 1.398 . S
C610 C616 1.491 . S
C611 H602 0.950 . S
C611 C610 1.398 . S
C611 C612 1.391 . S
C612 H600 0.950 . S
C612 C608 1.393 . S
C612 C611 1.391 . S
C613 H603 0.950 . S
C613 C614 1.386 . S
C613 C615 1.391 . S
C614 C613 1.386 . S
C614 C618 1.393 . S
C615 H604 0.950 . S
C615 C613 1.391 . S
C615 C616 1.400 . S
C616 C610 1.491 . S
C616 C615 1.400 . S
C616 C617 1.398 . S
C617 H605 0.950 . S
C617 C616 1.398 . S
C617 C618 1.391 . S
C618 H606 0.950 . S
C618 C614 1.393 . S
C618 C617 1.391 . S
H619 C627 0.950 . S
H620 C632 0.950 . S
H621 C629 0.950 . S
H622 C631 0.950 . S
H623 C633 0.950 . S
H624 C635 0.950 . S
H625 C637 0.950 . S
H626 C638 0.950 . S
C627 H619 0.950 . S
C627 C628 1.386 . S
C627 C629 1.391 . S
C628 C627 1.386 . S
C628 C632 1.393 . S
C629 H621 0.950 . S
C629 C627 1.391 . S
C629 C630 1.400 . S
C630 C629 1.400 . S
C630 C631 1.398 . S
C630 C636 1.491 . S
C631 H622 0.950 . S
C631 C630 1.398 . S
C631 C632 1.391 . S
C632 H620 0.950 . S
C632 C628 1.393 . S
C632 C631 1.391 . S
C633 H623 0.950 . S
C633 C634 1.386 . S
C633 C635 1.391 . S
C634 C633 1.386 . S
C634 C638 1.393 . S
C635 H624 0.950 . S
C635 C633 1.391 . S
C635 C636 1.400 . S
C636 C630 1.491 . S
C636 C635 1.400 . S
C636 C637 1.398 . S
C637 H625 0.950 . S
C637 C636 1.398 . S
C637 C638 1.391 . S
C638 H626 0.950 . S
C638 C634 1.393 . S
C638 C637 1.391 . S
H639 C647 0.950 . S
H640 C652 0.950 . S
H641 C649 0.950 . S
H642 C651 0.950 . S
H643 C653 0.950 . S
H644 C655 0.950 . S
H645 C657 0.950 . S
H646 C658 0.950 . S
C647 H639 0.950 . S
C647 C648 1.386 . S
C647 C649 1.391 . S
C648 C647 1.386 . S
C648 C652 1.393 . S
C649 H641 0.950 . S
C649 C647 1.391 . S
C649 C650 1.400 . S
C650 C649 1.400 . S
C650 C651 1.398 . S
C650 C656 1.491 . S
C651 H642 0.950 . S
C651 C650 1.398 . S
C651 C652 1.391 . S
C652 H640 0.950 . S
C652 C648 1.393 . S
C652 C651 1.391 . S
C653 H643 0.950 . S
C653 C654 1.386 . S
C653 C655 1.391 . S
C654 C653 1.386 . S
C654 C658 1.393 . S
C655 H644 0.950 . S
C655 C653 1.391 . S
C655 C656 1.400 . S
C656 C650 1.491 . S
C656 C655 1.400 . S
C656 C657 1.398 . S
C657 H645 0.950 . S
C657 C656 1.398 . S
C657 C658 1.391 . S
C658 H646 0.950 . S
C658 C654 1.393 . S
C658 C657 1.391 . S
H659 C667 0.950 . S
H660 C672 0.950 . S
H661 C669 0.950 . S
H662 C671 0.950 . S
H663 C673 0.950 . S
H664 C675 0.950 . S
H665 C677 0.950 . S
H666 C678 0.950 . S
C667 H659 0.950 . S
C667 C668 1.386 . S
C667 C669 1.391 . S
C668 C667 1.386 . S
C668 C672 1.393 . S
C669 H661 0.950 . S
C669 C667 1.391 . S
C669 C670 1.400 . S
C670 C669 1.400 . S
C670 C671 1.398 . S
C670 C676 1.491 . S
C671 H662 0.950 . S
C671 C670 1.398 . S
C671 C672 1.391 . S
C672 H660 0.950 . S
C672 C668 1.393 . S
C672 C671 1.391 . S
C673 H663 0.950 . S
C673 C674 1.386 . S
C673 C675 1.391 . S
C674 C673 1.386 . S
C674 C678 1.393 . S
C675 H664 0.950 . S
C675 C673 1.391 . S
C675 C676 1.400 . S
C676 C670 1.491 . S
C676 C675 1.400 . S
C676 C677 1.398 . S
C677 H665 0.950 . S
C677 C676 1.398 . S
C677 C678 1.391 . S
C678 H666 0.950 . S
C678 C674 1.393 . S
C678 C677 1.391 . S
H679 C687 0.950 . S
H680 C692 0.950 . S
H681 C689 0.950 . S
H682 C691 0.950 . S
H683 C693 0.950 . S
H684 C695 0.950 . S
H685 C697 0.950 . S
H686 C698 0.950 . S
C687 H679 0.950 . S
C687 C688 1.386 . S
C687 C689 1.391 . S
C688 C687 1.386 . S
C688 C692 1.393 . S
C689 H681 0.950 . S
C689 C687 1.391 . S
C689 C690 1.400 . S
C690 C689 1.400 . S
C690 C691 1.398 . S
C690 C696 1.491 . S
C691 H682 0.950 . S
C691 C690 1.398 . S
C691 C692 1.391 . S
C692 H680 0.950 . S
C692 C688 1.393 . S
C692 C691 1.391 . S
C693 H683 0.950 . S
C693 C694 1.386 . S
C693 C695 1.391 . S
C694 C693 1.386 . S
C694 C698 1.393 . S
C695 H684 0.950 . S
C695 C693 1.391 . S
C695 C696 1.400 . S
C696 C690 1.491 . S
C696 C695 1.400 . S
C696 C697 1.398 . S
C697 H685 0.950 . S
C697 C696 1.398 . S
C697 C698 1.391 . S
C698 H686 0.950 . S
C698 C694 1.393 . S
C698 C697 1.391 . S
H699 C707 0.950 . S
H700 C712 0.950 . S
H701 C709 0.950 . S
H702 C711 0.950 . S
H703 C713 0.950 . S
H704 C715 0.950 . S
H705 C717 0.950 . S
H706 C718 0.950 . S
C707 H699 0.950 . S
C707 C708 1.386 . S
C707 C709 1.391 . S
C708 C707 1.386 . S
C708 C712 1.393 . S
C709 H701 0.950 . S
C709 C707 1.391 . S
C709 C710 1.400 . S
C710 C709 1.400 . S
C710 C711 1.398 . S
C710 C716 1.491 . S
C711 H702 0.950 . S
C711 C710 1.398 . S
C711 C712 1.391 . S
C712 H700 0.950 . S
C712 C708 1.393 . S
C712 C711 1.391 . S
C713 H703 0.950 . S
C713 C714 1.386 . S
C713 C715 1.391 . S
C714 C713 1.386 . S
C714 C718 1.393 . S
C715 H704 0.950 . S
C715 C713 1.391 . S
C715 C716 1.400 . S
C716 C710 1.491 . S
C716 C715 1.400 . S
C716 C717 1.398 . S
C717 H705 0.950 . S
C717 C716 1.398 . S
C717 C718 1.391 . S
C718 H706 0.950 . S
C718 C714 1.393 . S
C718 C717 1.391 . S
H719 C727 0.950 . S
H720 C732 0.950 . S
H721 C729 0.950 . S
H722 C731 0.950 . S
H723 C733 0.950 . S
H724 C735 0.950 . S
H725 C737 0.950 . S
H726 C738 0.950 . S
C727 H719 0.950 . S
C727 C728 1.386 . S
C727 C729 1.391 . S
C728 C727 1.386 . S
C728 C732 1.393 . S
C729 H721 0.950 . S
C729 C727 1.391 . S
C729 C730 1.400 . S
C730 C729 1.400 . S
C730 C731 1.398 . S
C730 C736 1.491 . S
C731 H722 0.950 . S
C731 C730 1.398 . S
C731 C732 1.391 . S
C732 H720 0.950 . S
C732 C728 1.393 . S
C732 C731 1.391 . S
C733 H723 0.950 . S
C733 C734 1.386 . S
C733 C735 1.391 . S
C734 C733 1.386 . S
C734 C738 1.393 . S
C735 H724 0.950 . S
C735 C733 1.391 . S
C735 C736 1.400 . S
C736 C730 1.491 . S
C736 C735 1.400 . S
C736 C737 1.398 . S
C737 H725 0.950 . S
C737 C736 1.398 . S
C737 C738 1.391 . S
C738 H726 0.950 . S
C738 C734 1.393 . S
C738 C737 1.391 . S
H739 C747 0.950 . S
H740 C752 0.950 . S
H741 C749 0.950 . S
H742 C751 0.950 . S
H743 C753 0.950 . S
H744 C755 0.950 . S
H745 C757 0.950 . S
H746 C758 0.950 . S
C747 H739 0.950 . S
C747 C748 1.386 . S
C747 C749 1.391 . S
C748 C747 1.386 . S
C748 C752 1.393 . S
C749 H741 0.950 . S
C749 C747 1.391 . S
C749 C750 1.400 . S
C750 C749 1.400 . S
C750 C751 1.398 . S
C750 C756 1.491 . S
C751 H742 0.950 . S
C751 C750 1.398 . S
C751 C752 1.391 . S
C752 H740 0.950 . S
C752 C748 1.393 . S
C752 C751 1.391 . S
C753 H743 0.950 . S
C753 C754 1.386 . S
C753 C755 1.391 . S
C754 C753 1.386 . S
C754 C758 1.393 . S
C755 H744 0.950 . S
C755 C753 1.391 . S
C755 C756 1.400 . S
C756 C750 1.491 . S
C756 C755 1.400 . S
C756 C757 1.398 . S
C757 H745 0.950 . S
C757 C756 1.398 . S
C757 C758 1.391 . S
C758 H746 0.950 . S
C758 C754 1.393 . S
C758 C757 1.391 . S
H759 C767 0.950 . S
H760 C772 0.950 . S
H761 C769 0.950 . S
H762 C771 0.950 . S
H763 C773 0.950 . S
H764 C775 0.950 . S
H765 C777 0.950 . S
H766 C778 0.950 . S
C767 H759 0.950 . S
C767 C768 1.386 . S
C767 C769 1.391 . S
C768 C767 1.386 . S
C768 C772 1.393 . S
C769 H761 0.950 . S
C769 C767 1.391 . S
C769 C770 1.400 . S
C770 C769 1.400 . S
C770 C771 1.398 . S
C770 C776 1.491 . S
C771 H762 0.950 . S
C771 C770 1.398 . S
C771 C772 1.391 . S
C772 H760 0.950 . S
C772 C768 1.393 . S
C772 C771 1.391 . S
C773 H763 0.950 . S
C773 C774 1.386 . S
C773 C775 1.391 . S
C774 C773 1.386 . S
C774 C778 1.393 . S
C775 H764 0.950 . S
C775 C773 1.391 . S
C775 C776 1.400 . S
C776 C770 1.491 . S
C776 C775 1.400 . S
C776 C777 1.398 . S
C777 H765 0.950 . S
C777 C776 1.398 . S
C777 C778 1.391 . S
C778 H766 0.950 . S
C778 C774 1.393 . S
C778 C777 1.391 . S
H779 C787 0.950 . S
H780 C792 0.950 . S
H781 C789 0.950 . S
H782 C791 0.950 . S
H783 C793 0.950 . S
H784 C795 0.950 . S
H785 C797 0.950 . S
H786 C798 0.950 . S
C787 H779 0.950 . S
C787 C788 1.386 . S
C787 C789 1.391 . S
C788 C787 1.386 . S
C788 C792 1.393 . S
C789 H781 0.950 . S
C789 C787 1.391 . S
C789 C790 1.400 . S
C790 C789 1.400 . S
C790 C791 1.398 . S
C790 C796 1.491 . S
C791 H782 0.950 . S
C791 C790 1.398 . S
C791 C792 1.391 . S
C792 H780 0.950 . S
C792 C788 1.393 . S
C792 C791 1.391 . S
C793 H783 0.950 . S
C793 C794 1.386 . S
C793 C795 1.391 . S
C794 C793 1.386 . S
C794 C798 1.393 . S
C795 H784 0.950 . S
C795 C793 1.391 . S
C795 C796 1.400 . S
C796 C790 1.491 . S
C796 C795 1.400 . S
C796 C797 1.398 . S
C797 H785 0.950 . S
C797 C796 1.398 . S
C797 C798 1.391 . S
C798 H786 0.950 . S
C798 C794 1.393 . S
C798 C797 1.391 . S
H799 C807 0.950 . S
H800 C812 0.950 . S
H801 C809 0.950 . S
H802 C811 0.950 . S
H803 C813 0.950 . S
H804 C815 0.950 . S
H805 C817 0.950 . S
H806 C818 0.950 . S
C807 H799 0.950 . S
C807 C808 1.386 . S
C807 C809 1.391 . S
C808 C807 1.386 . S
C808 C812 1.393 . S
C809 H801 0.950 . S
C809 C807 1.391 . S
C809 C810 1.400 . S
C810 C809 1.400 . S
C810 C811 1.398 . S
C810 C816 1.491 . S
C811 H802 0.950 . S
C811 C810 1.398 . S
C811 C812 1.391 . S
C812 H800 0.950 . S
C812 C808 1.393 . S
C812 C811 1.391 . S
C813 H803 0.950 . S
C813 C814 1.386 . S
C813 C815 1.391 . S
C814 C813 1.386 . S
C814 C818 1.393 . S
C815 H804 0.950 . S
C815 C813 1.391 . S
C815 C816 1.400 . S
C816 C810 1.491 . S
C816 C815 1.400 . S
C816 C817 1.398 . S
C817 H805 0.950 . S
C817 C816 1.398 . S
C817 C818 1.391 . S
C818 H806 0.950 . S
C818 C814 1.393 . S
C818 C817 1.391 . S
H819 C827 0.950 . S
H820 C832 0.950 . S
H821 C829 0.950 . S
H822 C831 0.950 . S
H823 C833 0.950 . S
H824 C835 0.950 . S
H825 C837 0.950 . S
H826 C838 0.950 . S
C827 H819 0.950 . S
C827 C828 1.386 . S
C827 C829 1.391 . S
C828 C827 1.386 . S
C828 C832 1.393 . S
C829 H821 0.950 . S
C829 C827 1.391 . S
C829 C830 1.400 . S
C830 C829 1.400 . S
C830 C831 1.398 . S
C830 C836 1.491 . S
C831 H822 0.950 . S
C831 C830 1.398 . S
C831 C832 1.391 . S
C832 H820 0.950 . S
C832 C828 1.393 . S
C832 C831 1.391 . S
C833 H823 0.950 . S
C833 C834 1.386 . S
C833 C835 1.391 . S
C834 C833 1.386 . S
C834 C838 1.393 . S
C835 H824 0.950 . S
C835 C833 1.391 . S
C835 C836 1.400 . S
C836 C830 1.491 . S
C836 C835 1.400 . S
C836 C837 1.398 . S
C837 H825 0.950 . S
C837 C836 1.398 . S
C837 C838 1.391 . S
C838 H826 0.950 . S
C838 C834 1.393 . S
C838 C837 1.391 . S
H839 C847 0.950 . S
H840 C852 0.950 . S
H841 C849 0.950 . S
H842 C851 0.950 . S
H843 C853 0.950 . S
H844 C855 0.950 . S
H845 C857 0.950 . S
H846 C858 0.950 . S
C847 H839 0.950 . S
C847 C848 1.386 . S
C847 C849 1.391 . S
C848 C847 1.386 . S
C848 C852 1.393 . S
C849 H841 0.950 . S
C849 C847 1.391 . S
C849 C850 1.400 . S
C850 C849 1.400 . S
C850 C851 1.398 . S
C850 C856 1.491 . S
C851 H842 0.950 . S
C851 C850 1.398 . S
C851 C852 1.391 . S
C852 H840 0.950 . S
C852 C848 1.393 . S
C852 C851 1.391 . S
C853 H843 0.950 . S
C853 C854 1.386 . S
C853 C855 1.391 . S
C854 C853 1.386 . S
C854 C858 1.393 . S
C855 H844 0.950 . S
C855 C853 1.391 . S
C855 C856 1.400 . S
C856 C850 1.491 . S
C856 C855 1.400 . S
C856 C857 1.398 . S
C857 H845 0.950 . S
C857 C856 1.398 . S
C857 C858 1.391 . S
C858 H846 0.950 . S
C858 C854 1.393 . S
C858 C857 1.391 . S
H859 C867 0.950 . S
H860 C872 0.950 . S
H861 C869 0.950 . S
H862 C871 0.950 . S
H863 C873 0.950 . S
H864 C875 0.950 . S
H865 C877 0.950 . S
H866 C878 0.950 . S
C867 H859 0.950 . S
C867 C868 1.386 . S
C867 C869 1.391 . S
C868 C867 1.386 . S
C868 C872 1.393 . S
C869 H861 0.950 . S
C869 C867 1.391 . S
C869 C870 1.400 . S
C870 C869 1.400 . S
C870 C871 1.398 . S
C870 C876 1.491 . S
C871 H862 0.950 . S
C871 C870 1.398 . S
C871 C872 1.391 . S
C872 H860 0.950 . S
C872 C868 1.393 . S
C872 C871 1.391 . S
C873 H863 0.950 . S
C873 C874 1.386 . S
C873 C875 1.391 . S
C874 C873 1.386 . S
C874 C878 1.393 . S
C875 H864 0.950 . S
C875 C873 1.391 . S
C875 C876 1.400 . S
C876 C870 1.491 . S
C876 C875 1.400 . S
C876 C877 1.398 . S
C877 H865 0.950 . S
C877 C876 1.398 . S
C877 C878 1.391 . S
C878 H866 0.950 . S
C878 C874 1.393 . S
C878 C877 1.391 . S
H879 C887 0.950 . S
H880 C892 0.950 . S
H881 C889 0.950 . S
H882 C891 0.950 . S
H883 C893 0.950 . S
H884 C895 0.950 . S
H885 C897 0.950 . S
H886 C898 0.950 . S
C887 H879 0.950 . S
C887 C888 1.386 . S
C887 C889 1.391 . S
C888 C887 1.386 . S
C888 C892 1.393 . S
C889 H881 0.950 . S
C889 C887 1.391 . S
C889 C890 1.400 . S
C890 C889 1.400 . S
C890 C891 1.398 . S
C890 C896 1.491 . S
C891 H882 0.950 . S
C891 C890 1.398 . S
C891 C892 1.391 . S
C892 H880 0.950 . S
C892 C888 1.393 . S
C892 C891 1.391 . S
C893 H883 0.950 . S
C893 C894 1.386 . S
C893 C895 1.391 . S
C894 C893 1.386 . S
C894 C898 1.393 . S
C895 H884 0.950 . S
C895 C893 1.391 . S
C895 C896 1.400 . S
C896 C890 1.491 . S
C896 C895 1.400 . S
C896 C897 1.398 . S
C897 H885 0.950 . S
C897 C896 1.398 . S
C897 C898 1.391 . S
C898 H886 0.950 . S
C898 C894 1.393 . S
C898 C897 1.391 . S
H899 C907 0.950 . S
H900 C912 0.950 . S
H901 C909 0.950 . S
H902 C911 0.950 . S
H903 C913 0.950 . S
H904 C915 0.950 . S
H905 C917 0.950 . S
H906 C918 0.950 . S
C907 H899 0.950 . S
C907 C908 1.386 . S
C907 C909 1.391 . S
C908 C907 1.386 . S
C908 C912 1.393 . S
C909 H901 0.950 . S
C909 C907 1.391 . S
C909 C910 1.400 . S
C910 C909 1.400 . S
C910 C911 1.398 . S
C910 C916 1.491 . S
C911 H902 0.950 . S
C911 C910 1.398 . S
C911 C912 1.391 . S
C912 H900 0.950 . S
C912 C908 1.393 . S
C912 C911 1.391 . S
C913 H903 0.950 . S
C913 C914 1.386 . S
C913 C915 1.391 . S
C914 C913 1.386 . S
C914 C918 1.393 . S
C915 H904 0.950 . S
C915 C913 1.391 . S
C915 C916 1.400 . S
C916 C910 1.491 . S
C916 C915 1.400 . S
C916 C917 1.398 . S
C917 H905 0.950 . S
C917 C916 1.398 . S
C917 C918 1.391 . S
C918 H906 0.950 . S
C918 C914 1.393 . S
C918 C917 1.391 . S
H919 C927 0.950 . S
H920 C932 0.950 . S
H921 C929 0.950 . S
H922 C931 0.950 . S
H923 C933 0.950 . S
H924 C935 0.950 . S
H925 C937 0.950 . S
H926 C938 0.950 . S
C927 H919 0.950 . S
C927 C928 1.386 . S
C927 C929 1.391 . S
C928 C927 1.386 . S
C928 C932 1.393 . S
C929 H921 0.950 . S
C929 C927 1.391 . S
C929 C930 1.400 . S
C930 C929 1.400 . S
C930 C931 1.398 . S
C930 C936 1.491 . S
C931 H922 0.950 . S
C931 C930 1.398 . S
C931 C932 1.391 . S
C932 H920 0.950 . S
C932 C928 1.393 . S
C932 C931 1.391 . S
C933 H923 0.950 . S
C933 C934 1.386 . S
C933 C935 1.391 . S
C934 C933 1.386 . S
C934 C938 1.393 . S
C935 H924 0.950 . S
C935 C933 1.391 . S
C935 C936 1.400 . S
C936 C930 1.491 . S
C936 C935 1.400 . S
C936 C937 1.398 . S
C937 H925 0.950 . S
C937 C936 1.398 . S
C937 C938 1.391 . S
C938 H926 0.950 . S
C938 C934 1.393 . S
C938 C937 1.391 . S
H939 C947 0.950 . S
H940 C952 0.950 . S
H941 C949 0.950 . S
H942 C951 0.950 . S
H943 C953 0.950 . S
H944 C955 0.950 . S
H945 C957 0.950 . S
H946 C958 0.950 . S
C947 H939 0.950 . S
C947 C948 1.386 . S
C947 C949 1.391 . S
C948 C947 1.386 . S
C948 C952 1.393 . S
C949 H941 0.950 . S
C949 C947 1.391 . S
C949 C950 1.400 . S
C950 C949 1.400 . S
C950 C951 1.398 . S
C950 C956 1.491 . S
C951 H942 0.950 . S
C951 C950 1.398 . S
C951 C952 1.391 . S
C952 H940 0.950 . S
C952 C948 1.393 . S
C952 C951 1.391 . S
C953 H943 0.950 . S
C953 C954 1.386 . S
C953 C955 1.391 . S
C954 C953 1.386 . S
C954 C958 1.393 . S
C955 H944 0.950 . S
C955 C953 1.391 . S
C955 C956 1.400 . S
C956 C950 1.491 . S
C956 C955 1.400 . S
C956 C957 1.398 . S
C957 H945 0.950 . S
C957 C956 1.398 . S
C957 C958 1.391 . S
C958 H946 0.950 . S
C958 C954 1.393 . S
C958 C957 1.391 . S
H959 C967 0.950 . S
H960 C972 0.950 . S
H961 C969 0.950 . S
H962 C971 0.950 . S
H963 C973 0.950 . S
H964 C975 0.950 . S
H965 C977 0.950 . S
H966 C978 0.950 . S
C967 H959 0.950 . S
C967 C968 1.386 . S
C967 C969 1.391 . S
C968 C967 1.386 . S
C968 C972 1.393 . S
C969 H961 0.950 . S
C969 C967 1.391 . S
C969 C970 1.400 . S
C970 C969 1.400 . S
C970 C971 1.398 . S
C970 C976 1.491 . S
C971 H962 0.950 . S
C971 C970 1.398 . S
C971 C972 1.391 . S
C972 H960 0.950 . S
C972 C968 1.393 . S
C972 C971 1.391 . S
C973 H963 0.950 . S
C973 C974 1.386 . S
C973 C975 1.391 . S
C974 C973 1.386 . S
C974 C978 1.393 . S
C975 H964 0.950 . S
C975 C973 1.391 . S
C975 C976 1.400 . S
C976 C970 1.491 . S
C976 C975 1.400 . S
C976 C977 1.398 . S
C977 H965 0.950 . S
C977 C976 1.398 . S
C977 C978 1.391 . S
C978 H966 0.950 . S
C978 C974 1.393 . S
C978 C977 1.391 . S
H979 C987 0.950 . S
H980 C992 0.950 . S
H981 C989 0.950 . S
H982 C991 0.950 . S
H983 C993 0.950 . S
H984 C995 0.950 . S
H985 C997 0.950 . S
H986 C998 0.950 . S
C987 H979 0.950 . S
C987 C988 1.386 . S
C987 C989 1.391 . S
C988 C987 1.386 . S
C988 C992 1.393 . S
C989 H981 0.950 . S
C989 C987 1.391 . S
C989 C990 1.400 . S
C990 C989 1.400 . S
C990 C991 1.398 . S
C990 C996 1.491 . S
C991 H982 0.950 . S
C991 C990 1.398 . S
C991 C992 1.391 . S
C992 H980 0.950 . S
C992 C988 1.393 . S
C992 C991 1.391 . S
C993 H983 0.950 . S
C993 C994 1.386 . S
C993 C995 1.391 . S
C994 C993 1.386 . S
C994 C998 1.393 . S
C995 H984 0.950 . S
C995 C993 1.391 . S
C995 C996 1.400 . S
C996 C990 1.491 . S
C996 C995 1.400 . S
C996 C997 1.398 . S
C997 H985 0.950 . S
C997 C996 1.398 . S
C997 C998 1.391 . S
C998 H986 0.950 . S
C998 C994 1.393 . S
C998 C997 1.391 . S
H999 C1007 0.950 . S
H1000 C1012 0.950 . S
H1001 C1009 0.950 . S
H1002 C1011 0.950 . S
H1003 C1013 0.950 . S
H1004 C1015 0.950 . S
H1005 C1017 0.950 . S
H1006 C1018 0.950 . S
C1007 H999 0.950 . S
C1007 C1008 1.386 . S
C1007 C1009 1.391 . S
C1008 C1007 1.386 . S
C1008 C1012 1.393 . S
C1009 H1001 0.950 . S
C1009 C1007 1.391 . S
C1009 C1010 1.400 . S
C1010 C1009 1.400 . S
C1010 C1011 1.398 . S
C1010 C1016 1.491 . S
C1011 H1002 0.950 . S
C1011 C1010 1.398 . S
C1011 C1012 1.391 . S
C1012 H1000 0.950 . S
C1012 C1008 1.393 . S
C1012 C1011 1.391 . S
C1013 H1003 0.950 . S
C1013 C1014 1.386 . S
C1013 C1015 1.391 . S
C1014 C1013 1.386 . S
C1014 C1018 1.393 . S
C1015 H1004 0.950 . S
C1015 C1013 1.391 . S
C1015 C1016 1.400 . S
C1016 C1010 1.491 . S
C1016 C1015 1.400 . S
C1016 C1017 1.398 . S
C1017 H1005 0.950 . S
C1017 C1016 1.398 . S
C1017 C1018 1.391 . S
C1018 H1006 0.950 . S
C1018 C1014 1.393 . S
C1018 C1017 1.391 . S
H1019 C1027 0.950 . S
H1020 C1032 0.950 . S
H1021 C1029 0.950 . S
H1022 C1031 0.950 . S
H1023 C1033 0.950 . S
H1024 C1035 0.950 . S
H1025 C1037 0.950 . S
H1026 C1038 0.950 . S
C1027 H1019 0.950 . S
C1027 C1028 1.386 . S
C1027 C1029 1.391 . S
C1028 C1027 1.386 . S
C1028 C1032 1.393 . S
C1029 H1021 0.950 . S
C1029 C1027 1.391 . S
C1029 C1030 1.400 . S
C1030 C1029 1.400 . S
C1030 C1031 1.398 . S
C1030 C1036 1.491 . S
C1031 H1022 0.950 . S
C1031 C1030 1.398 . S
C1031 C1032 1.391 . S
C1032 H1020 0.950 . S
C1032 C1028 1.393 . S
C1032 C1031 1.391 . S
C1033 H1023 0.950 . S
C1033 C1034 1.386 . S
C1033 C1035 1.391 . S
C1034 C1033 1.386 . S
C1034 C1038 1.393 . S
C1035 H1024 0.950 . S
C1035 C1033 1.391 . S
C1035 C1036 1.400 . S
C1036 C1030 1.491 . S
C1036 C1035 1.400 . S
C1036 C1037 1.398 . S
C1037 H1025 0.950 . S
C1037 C1036 1.398 . S
C1037 C1038 1.391 . S
C1038 H1026 0.950 . S
C1038 C1034 1.393 . S
C1038 C1037 1.391 . S
H1039 C1047 0.950 . S
H1040 C1052 0.950 . S
H1041 C1049 0.950 . S
H1042 C1051 0.950 . S
H1043 C1053 0.950 . S
H1044 C1055 0.950 . S
H1045 C1057 0.950 . S
H1046 C1058 0.950 . S
C1047 H1039 0.950 . S
C1047 C1048 1.386 . S
C1047 C1049 1.391 . S
C1048 C1047 1.386 . S
C1048 C1052 1.393 . S
C1049 H1041 0.950 . S
C1049 C1047 1.391 . S
C1049 C1050 1.400 . S
C1050 C1049 1.400 . S
C1050 C1051 1.398 . S
C1050 C1056 1.491 . S
C1051 H1042 0.950 . S
C1051 C1050 1.398 . S
C1051 C1052 1.391 . S
C1052 H1040 0.950 . S
C1052 C1048 1.393 . S
C1052 C1051 1.391 . S
C1053 H1043 0.950 . S
C1053 C1054 1.386 . S
C1053 C1055 1.391 . S
C1054 C1053 1.386 . S
C1054 C1058 1.393 . S
C1055 H1044 0.950 . S
C1055 C1053 1.391 . S
C1055 C1056 1.400 . S
C1056 C1050 1.491 . S
C1056 C1055 1.400 . S
C1056 C1057 1.398 . S
C1057 H1045 0.950 . S
C1057 C1056 1.398 . S
C1057 C1058 1.391 . S
C1058 H1046 0.950 . S
C1058 C1054 1.393 . S
C1058 C1057 1.391 . S
C594 C504 1.053 . S
C588 C31 1.088 . S
C614 C540 1.656 . S
C608 C61 1.758 . S
C634 C505 1.400 . S
C628 C121 1.400 . S
C654 C535 1.530 . S
C648 C181 1.585 . S
C674 C502 1.497 . S
C668 C260 1.498 . S
C688 C331 1.702 . S
C694 C538 1.708 . S
C708 C380 1.216 . S
C714 C507 1.093 . S
C734 C537 1.439 . S
C728 C440 1.474 . S
C754 C541 1.453 . S
C748 C1 1.371 . S
C774 C506 1.479 . S
C768 C91 1.532 . S
C794 C534 1.701 . S
C788 C151 1.694 . S
C814 C503 1.090 . S
C808 C200 1.217 . S
C834 C536 1.656 . S
C828 C271 1.719 . S
C848 C301 1.393 . S
C854 C501 1.407 . S
C868 C361 1.591 . S
C874 C539 1.551 . S
C894 C508 1.048 . S
C888 C451 1.094 . S
C914 C570 1.650 . S
C908 C20 1.730 . S
C928 C241 1.962 . S
C934 C573 1.899 . S
C954 C572 1.698 . S
C948 C320 1.735 . S
C968 C391 2.077 . S
C974 C571 2.077 . S
C994 C574 1.645 . S
C988 C421 1.722 . S
C1008 C140 1.743 . S
C1014 C568 1.685 . S
C1034 C567 2.069 . S
C1028 C211 2.081 . S
C1048 C80 2.027 . S
C1054 C569 1.902 . S
