# Generated by pormake.
# Topology pyr, (3,6)-cn, num edge types: 1
# Building blocks:
#     Node 0, Type 0, BuildingBlock: ESEHIV_clean_linker_0, # of connection points: 3
#     Node 1, Type 0, BuildingBlock: ESEHIV_clean_linker_0, # of connection points: 3
#     Node 2, Type 0, BuildingBlock: ESEHIV_clean_linker_0, # of connection points: 3
#     Node 3, Type 0, BuildingBlock: ESEHIV_clean_linker_0, # of connection points: 3
#     Node 4, Type 0, BuildingBlock: ESEHIV_clean_linker_0, # of connection points: 3
#     Node 5, Type 0, BuildingBlock: ESEHIV_clean_linker_0, # of connection points: 3
#     Node 6, Type 0, BuildingBlock: ESEHIV_clean_linker_0, # of connection points: 3
#     Node 7, Type 0, BuildingBlock: ESEHIV_clean_linker_0, # of connection points: 3
#     Node 8, Type 1, BuildingBlock: BETGAK_clean_sbu_0, # of connection points: 6
#     Node 9, Type 1, BuildingBlock: BETGAK_clean_sbu_0, # of connection points: 6
#     Node 10, Type 1, BuildingBlock: BETGAK_clean_sbu_0, # of connection points: 6
#     Node 11, Type 1, BuildingBlock: BETGAK_clean_sbu_0, # of connection points: 6
#     Edge 12, Type (0, 1), BuildingBlock: XIVTED_clean_linker_0, # of connection points: 2
#     Edge 13, Type (0, 1), BuildingBlock: XIVTED_clean_linker_0, # of connection points: 2
#     Edge 14, Type (0, 1), BuildingBlock: XIVTED_clean_linker_0, # of connection points: 2
#     Edge 15, Type (0, 1), BuildingBlock: XIVTED_clean_linker_0, # of connection points: 2
#     Edge 16, Type (0, 1), BuildingBlock: XIVTED_clean_linker_0, # of connection points: 2
#     Edge 17, Type (0, 1), BuildingBlock: XIVTED_clean_linker_0, # of connection points: 2
#     Edge 18, Type (0, 1), BuildingBlock: XIVTED_clean_linker_0, # of connection points: 2
#     Edge 19, Type (0, 1), BuildingBlock: XIVTED_clean_linker_0, # of connection points: 2
#     Edge 20, Type (0, 1), BuildingBlock: XIVTED_clean_linker_0, # of connection points: 2
#     Edge 21, Type (0, 1), BuildingBlock: XIVTED_clean_linker_0, # of connection points: 2
#     Edge 22, Type (0, 1), BuildingBlock: XIVTED_clean_linker_0, # of connection points: 2
#     Edge 23, Type (0, 1), BuildingBlock: XIVTED_clean_linker_0, # of connection points: 2
#     Edge 24, Type (0, 1), BuildingBlock: XIVTED_clean_linker_0, # of connection points: 2
#     Edge 25, Type (0, 1), BuildingBlock: XIVTED_clean_linker_0, # of connection points: 2
#     Edge 26, Type (0, 1), BuildingBlock: XIVTED_clean_linker_0, # of connection points: 2
#     Edge 27, Type (0, 1), BuildingBlock: XIVTED_clean_linker_0, # of connection points: 2
#     Edge 28, Type (0, 1), BuildingBlock: XIVTED_clean_linker_0, # of connection points: 2
#     Edge 29, Type (0, 1), BuildingBlock: XIVTED_clean_linker_0, # of connection points: 2
#     Edge 30, Type (0, 1), BuildingBlock: XIVTED_clean_linker_0, # of connection points: 2
#     Edge 31, Type (0, 1), BuildingBlock: XIVTED_clean_linker_0, # of connection points: 2
#     Edge 32, Type (0, 1), BuildingBlock: XIVTED_clean_linker_0, # of connection points: 2
#     Edge 33, Type (0, 1), BuildingBlock: XIVTED_clean_linker_0, # of connection points: 2
#     Edge 34, Type (0, 1), BuildingBlock: XIVTED_clean_linker_0, # of connection points: 2
#     Edge 35, Type (0, 1), BuildingBlock: XIVTED_clean_linker_0, # of connection points: 2
# Relax obj value: 0.137
# Max RMSD: 0.131
# Mean RMSD: 0.063
data_MOF--net-pyr--node1-BETGAK_clean_sbu_0--node2-ESEHIV_clean_linker_0--edge1-XIVTED_clean_linker_0
_symmetry_space_group_name_H-M    P1
_symmetry_Int_Tables_number       1
_symmetry_cell_setting            triclinic
loop_
_symmetry_equiv_pos_as_xyz
'x, y, z'
_cell_length_a     37.224166
_cell_length_b     38.0493
_cell_length_c     32.805196
_cell_angle_alpha  89.643396
_cell_angle_beta   87.818696
_cell_angle_gamma 103.32184
loop_
_atom_site_label
_atom_site_type_symbol
_atom_site_fract_x
_atom_site_fract_y
_atom_site_fract_z
_atom_type_partial_charge
H0 H 0.29713 0.3435 0.29918 0.0
H1 H 0.37282 0.27834 0.32856 0.0
H2 H 0.35645 0.30406 0.20313 0.0
C3 C 0.31874 0.32995 0.29029 0.0
C4 C 0.32829 0.32897 0.24873 0.0
C5 C 0.33289 0.30994 0.31916 0.0
C6 C 0.36003 0.2918 0.30604 0.0
C7 C 0.3682 0.28816 0.26415 0.0
C8 C 0.35206 0.30719 0.23558 0.0
H9 H 0.22215 0.91464 0.66871 0.0
H10 H 0.30804 0.85742 0.6506 0.0
H11 H 0.22924 0.85675 0.55749 0.0
C12 C 0.23577 0.89779 0.64995 0.0
C13 C 0.22225 0.88692 0.61167 0.0
C14 C 0.26677 0.88744 0.66408 0.0
C15 C 0.28414 0.8658 0.63963 0.0
C16 C 0.27078 0.85468 0.60119 0.0
C17 C 0.2397 0.86527 0.5871 0.0
H18 H 0.68706 0.34622 0.96988 0.0
H19 H 0.69445 0.43649 0.88763 0.0
H20 H 0.60339 0.34377 0.88222 0.0
C21 C 0.67643 0.35858 0.94461 0.0
C22 C 0.64328 0.33996 0.92743 0.0
C23 C 0.69553 0.39334 0.93062 0.0
C24 C 0.68024 0.40993 0.89894 0.0
C25 C 0.64656 0.39253 0.88174 0.0
C26 C 0.62852 0.3576 0.89625 0.0
H27 H 0.80426 0.73929 0.45931 0.0
H28 H 0.89823 0.73967 0.3785 0.0
H29 H 0.80319 0.64902 0.38181 0.0
C30 C 0.81799 0.72623 0.43623 0.0
C31 C 0.79982 0.69199 0.42277 0.0
C32 C 0.85348 0.74389 0.42089 0.0
C33 C 0.87078 0.72656 0.39015 0.0
C34 C 0.85335 0.69167 0.37589 0.0
C35 C 0.81773 0.67499 0.39278 0.0
H36 H 0.63929 0.82171 0.86692 0.0
H37 H 0.70501 0.74415 0.88685 0.0
H38 H 0.65303 0.78515 0.98847 0.0
C39 C 0.64947 0.80383 0.88701 0.0
C40 C 0.64273 0.80545 0.92938 0.0
C41 C 0.67232 0.782 0.871 0.0
C42 C 0.68567 0.75958 0.89797 0.0
C43 C 0.67869 0.76042 0.94016 0.0
C44 C 0.65723 0.78341 0.95572 0.0
H45 H 0.8027 0.34593 0.4322 0.0
H46 H 0.84951 0.25392 0.44423 0.0
H47 H 0.8781 0.34207 0.52763 0.0
C48 C 0.82204 0.3328 0.44652 0.0
C49 C 0.84158 0.34893 0.48 0.0
C50 C 0.82425 0.2983 0.43413 0.0
C51 C 0.84806 0.28083 0.45372 0.0
C52 C 0.86806 0.29649 0.48705 0.0
C53 C 0.86417 0.33043 0.50078 0.0
H54 H 0.31992 0.74574 0.21959 0.0
H55 H 0.31637 0.6522 0.2957 0.0
H56 H 0.40787 0.74441 0.30055 0.0
C57 C 0.33257 0.7315 0.24148 0.0
C58 C 0.36663 0.74935 0.2573 0.0
C59 C 0.31408 0.69616 0.25418 0.0
C60 C 0.32968 0.67933 0.28544 0.0
C61 C 0.36329 0.69663 0.30277 0.0
C62 C 0.38175 0.73138 0.28796 0.0
H63 H 0.09969 0.35443 0.80867 0.0
H64 H 0.18839 0.35101 0.72209 0.0
H65 H 0.19869 0.44055 0.80312 0.0
C66 C 0.12711 0.36633 0.796 0.0
C67 C 0.14694 0.40021 0.81036 0.0
C68 C 0.14172 0.34843 0.76386 0.0
C69 C 0.177 0.36454 0.74666 0.0
C70 C 0.19777 0.39781 0.76028 0.0
C71 C 0.18239 0.41538 0.79201 0.0
La72 La 0.9972 0.07004 0.55076 0.0
La73 La 0.96783 1.03319 0.63091 0.0
C74 C 0.01419 0.1061 0.48578 0.0
C75 C 0.04682 0.13586 0.47841 0.0
C76 C 0.07045 0.14701 0.51055 0.0
C77 C 0.10312 0.17316 0.5041 0.0
C78 C 0.11275 0.1889 0.46534 0.0
C79 C 0.08839 0.17889 0.43338 0.0
C80 C 0.0556 0.1523 0.43987 0.0
C81 C 0.04381 1.04014 0.58978 0.0
C82 C 0.01865 0.11157 0.63281 0.0
C83 C 0.94925 0.99081 0.6913 0.0
C84 C 0.93229 0.95232 0.69805 0.0
C85 C 0.91775 0.94065 0.73708 0.0
C86 C 0.89209 0.90769 0.7423 0.0
C87 C 0.88019 0.88644 0.70838 0.0
C88 C 0.89707 0.89665 0.66985 0.0
C89 C 0.92362 0.92918 0.66491 0.0
C90 C 0.93355 0.082 0.60535 0.0
C91 C 0.94717 0.99045 0.54707 0.0
O92 O 0.02156 0.07442 0.49159 0.0
O93 O 0.99026 0.11266 0.5133 0.0
O94 O 0.0531 0.06994 0.56888 0.0
O95 O 0.00971 1.02813 0.58723 0.0
O96 O 0.01094 0.1142 0.59402 0.0
O97 O 0.00939 0.07994 0.6526 0.0
O98 O 0.9275 1.00888 0.67464 0.0
O99 O 0.98304 0.99964 0.67534 0.0
O100 O 0.93924 0.07637 0.64325 0.0
O101 O 0.94561 0.05967 0.58372 0.0
O102 O 0.94371 0.99081 0.58758 0.0
O103 O 0.96572 1.01918 0.52581 0.0
H104 H 0.06415 0.13492 0.54059 0.0
H105 H 0.12124 0.1806 0.52927 0.0
H106 H 0.09545 0.1905 0.40309 0.0
H107 H 0.03765 0.14405 0.41473 0.0
H108 H 0.92402 0.95823 0.76299 0.0
H109 H 0.87908 0.90038 0.77223 0.0
H110 H 0.88819 0.88059 0.64335 0.0
H111 H 0.93542 0.9374 0.63484 0.0
La112 La 0.54165 0.05934 0.11788 0.0
La113 La 0.46793 1.0366 1.07206 0.0
C114 C 0.60604 0.09353 0.13272 0.0
C115 C 0.62516 0.11505 0.16544 0.0
C116 C 0.60867 0.11449 0.20465 0.0
C117 C 0.62712 0.1364 0.23495 0.0
C118 C 0.66205 0.1593 0.22616 0.0
C119 C 0.67824 0.15973 0.18671 0.0
C120 C 0.6599 0.13774 0.15661 0.0
C121 C 0.49739 1.00037 0.15289 0.0
C122 C 0.47484 0.09019 0.14856 0.0
C123 C 0.40294 1.01318 1.05026 0.0
C124 C 0.38756 1.00071 1.0111 0.0
C125 C 0.40641 1.01441 0.97446 0.0
C126 C 0.39223 1.00198 0.9372 0.0
C127 C 0.35919 0.97535 0.93598 0.0
C128 C 0.34056 0.96131 0.9727 0.0
C129 C 0.35465 0.97405 1.01009 0.0
C130 C 0.52054 0.08818 1.03564 0.0
C131 C 0.53295 1.0016 1.04697 0.0
O132 O 0.59367 0.05891 0.14014 0.0
O133 O 0.58203 0.10771 0.11449 0.0
O134 O 0.52876 1.0173 0.16697 0.0
O135 O 0.49235 1.01856 0.1223 0.0
O136 O 0.51017 0.09077 0.15299 0.0
O137 O 0.45382 0.06926 0.12224 0.0
O138 O 0.41899 1.04761 1.05175 0.0
O139 O 0.42241 0.99275 1.06699 0.0
O140 O 0.49519 0.06563 1.01675 0.0
O141 O 0.51313 0.08262 1.0733 0.0
O142 O 0.49668 0.99737 1.04825 0.0
O143 O 0.55527 1.02792 1.06629 0.0
H144 H 0.58155 0.09734 0.21167 0.0
H145 H 0.61393 0.13576 0.26504 0.0
H146 H 0.70534 0.1767 0.17927 0.0
H147 H 0.6728 0.13853 0.12633 0.0
H148 H 0.4322 1.03462 0.97462 0.0
H149 H 0.40739 1.01281 0.90932 0.0
H150 H 0.31496 0.94085 0.97247 0.0
H151 H 0.33997 0.96301 1.03816 0.0
La152 La 0.50833 0.51257 0.56546 0.0
La153 La 0.4938 0.56779 0.61983 0.0
C154 C 0.53677 0.48058 0.51082 0.0
C155 C 0.57424 0.47349 0.5081 0.0
C156 C 0.58236 0.44475 0.53023 0.0
C157 C 0.61876 0.44137 0.53258 0.0
C158 C 0.64794 0.46666 0.51293 0.0
C159 C 0.63966 0.49461 0.4895 0.0
C160 C 0.6032 0.49785 0.48691 0.0
C161 C 0.44573 0.49148 0.61007 0.0
C162 C 0.53493 0.51011 0.65394 0.0
C163 C 0.47182 0.60794 0.67024 0.0
C164 C 0.45471 0.63791 0.65988 0.0
C165 C 0.47275 0.66505 0.6319 0.0
C166 C 0.45337 0.68795 0.61395 0.0
C167 C 0.41558 0.68401 0.6234 0.0
C168 C 0.398 0.65818 0.65292 0.0
C169 C 0.41746 0.6354 0.67113 0.0
C170 C 0.55473 0.58816 0.57246 0.0
C171 C 0.46683 0.57156 0.53104 0.0
O172 O 0.51429 0.4636 0.53998 0.0
O173 O 0.53557 0.51461 0.50808 0.0
O174 O 0.46678 0.47048 0.5982 0.0
O175 O 0.45823 0.52222 0.59379 0.0
O176 O 0.54343 0.50476 0.61533 0.0
O177 O 0.51148 0.53063 0.66286 0.0
O178 O 0.50671 0.61195 0.65912 0.0
O179 O 0.4522 0.576 0.66113 0.0
O180 O 0.53208 0.60835 0.58155 0.0
O181 O 0.54369 0.55823 0.59098 0.0
O182 O 0.46323 0.582 0.56902 0.0
O183 O 0.48481 0.54595 0.52257 0.0
H184 H 0.56073 0.4253 0.54664 0.0
H185 H 0.62399 0.41884 0.54985 0.0
H186 H 0.66141 0.51457 0.47398 0.0
H187 H 0.59787 0.52028 0.46952 0.0
H188 H 0.50133 0.66745 0.62208 0.0
H189 H 0.46757 0.70766 0.59132 0.0
H190 H 0.36901 0.65513 0.66136 0.0
H191 H 0.40288 0.61449 0.69227 0.0
La192 La 0.00205 0.51134 0.11693 0.0
La193 La 0.00422 0.57958 1.07449 0.0
C194 C 0.01849 0.45424 0.14121 0.0
C195 C 0.05368 0.4432 0.14627 0.0
C196 C 0.07863 0.45888 0.17577 0.0
C197 C 0.11226 0.44881 0.17903 0.0
C198 C 0.12179 0.42296 0.15277 0.0
C199 C 0.09673 0.40733 0.12331 0.0
C200 C 0.06303 0.41724 0.12024 0.0
C201 C 0.96469 0.55325 0.15718 0.0
C202 C 0.07311 0.57726 0.12435 0.0
C203 C 0.9887 0.63712 1.05005 0.0
C204 C 0.95391 0.64857 1.04643 0.0
C205 C 0.95352 0.68037 1.02495 0.0
C206 C 0.92048 0.69148 1.02154 0.0
C207 C 0.88729 0.67072 1.03931 0.0
C208 C 0.88784 0.63888 1.06092 0.0
C209 C 0.92095 0.62806 1.06474 0.0
C210 C 0.04154 0.53775 1.03415 0.0
C211 C 0.93367 0.51303 1.06629 0.0
O212 O 0.01085 0.4787 0.16584 0.0
O213 O 0.01079 0.46007 0.10359 0.0
O214 O 0.95532 0.51821 0.15662 0.0
O215 O 0.9952 0.56334 0.13726 0.0
O216 O 0.05895 0.54201 0.1275 0.0
O217 O 0.05509 0.5988 0.10647 0.0
O218 O 0.99362 0.61141 1.0257 0.0
O219 O 0.99749 0.63159 0.08733 0.0
O220 O 0.05079 0.57277 1.03455 0.0
O221 O 0.01106 0.52773 1.05411 0.0
O222 O 0.94709 0.54849 1.0646 0.0
O223 O 0.95237 0.49164 0.08325 0.0
H224 H 0.07229 0.47896 0.19635 0.0
H225 H 0.13052 0.46095 0.20258 0.0
H226 H 0.10327 0.3877 0.10224 0.0
H227 H 0.04436 0.40482 0.09713 0.0
H228 H 0.97875 0.69655 1.01076 0.0
H229 H 0.92075 0.71595 1.00436 0.0
H230 H 0.86274 0.62258 1.07522 0.0
H231 H 0.9208 0.60378 0.08215 0.0
H232 H 0.29625 0.35177 0.36719 0.0
H233 H 0.1791 0.17726 0.48612 0.0
H234 H 0.32214 0.24661 0.36395 0.0
H235 H 0.13003 0.25533 0.42709 0.0
H236 H 0.2405 0.21413 0.46677 0.0
H237 H 0.24489 0.3273 0.41571 0.0
C238 C 0.2919 0.32388 0.37717 0.0
C239 C 0.31269 0.30088 0.3595 0.0
C240 C 0.21625 0.22351 0.4589 0.0
C241 C 0.25517 0.27353 0.41639 0.0
C242 C 0.18131 0.20258 0.46983 0.0
C243 C 0.14958 0.21317 0.45766 0.0
C244 C 0.21945 0.25542 0.43609 0.0
C245 C 0.1539 0.24605 0.43642 0.0
C246 C 0.26268 0.31011 0.40503 0.0
C247 C 0.30686 0.26556 0.37571 0.0
N248 N 0.18831 0.26599 0.426 0.0
N249 N 0.27821 0.25283 0.40264 0.0
H250 H 0.28638 0.84699 0.72501 0.0
H251 H 0.35172 1.01591 0.86953 0.0
H252 H 0.27937 0.95554 0.69412 0.0
H253 H 0.33355 0.90551 0.91233 0.0
H254 H 0.32967 0.99427 0.80303 0.0
H255 H 0.3086 0.86799 0.79203 0.0
C256 C 0.28973 0.87526 0.73234 0.0
C257 C 0.28101 0.89962 0.70423 0.0
C258 C 0.33036 0.97475 0.82698 0.0
C259 C 0.30612 0.92368 0.7804 0.0
C260 C 0.34307 0.98708 0.86482 0.0
C261 C 0.34446 0.96241 0.89628 0.0
C262 C 0.31924 0.93746 0.82046 0.0
C263 C 0.33259 0.92536 0.88885 0.0
C264 C 0.30212 0.88715 0.77057 0.0
C265 C 0.28545 0.93586 0.71518 0.0
N266 N 0.32062 0.91395 0.85153 0.0
N267 N 0.2978 0.94683 0.75241 0.0
H268 H 0.57486 0.39943 0.87627 0.0
H269 H 0.59788 0.48345 0.64973 0.0
H270 H 0.68049 0.42686 0.81108 0.0
H271 H 0.51163 0.49835 0.73475 0.0
H272 H 0.62549 0.45591 0.70489 0.0
H273 H 0.54819 0.42849 0.82161 0.0
C274 C 0.59247 0.41146 0.85041 0.0
C275 C 0.6301 0.41064 0.84851 0.0
C276 C 0.60057 0.46528 0.7115 0.0
C277 C 0.59942 0.44377 0.78517 0.0
C278 C 0.58467 0.48094 0.67994 0.0
C279 C 0.55231 0.49349 0.68741 0.0
C280 C 0.58369 0.46123 0.7509 0.0
C281 C 0.53663 0.48937 0.72741 0.0
C282 C 0.57722 0.42822 0.81926 0.0
C283 C 0.65147 0.427 0.81416 0.0
N284 N 0.55221 0.4734 0.75738 0.0
N285 N 0.63584 0.44251 0.78383 0.0
H286 H 0.84814 0.61813 0.36842 0.0
H287 H 0.98472 0.62723 0.17039 0.0
H288 H 0.90156 0.71953 0.30972 0.0
H289 H 0.90856 0.53025 0.2146 0.0
H290 H 0.95889 0.66184 0.22271 0.0
H291 H 0.87433 0.58631 0.31507 0.0
C292 C 0.86508 0.63398 0.34424 0.0
C293 C 0.87176 0.67203 0.34388 0.0
C294 C 0.94777 0.633 0.22088 0.0
C295 C 0.90325 0.63481 0.28203 0.0
C296 C 0.9625 0.61318 0.19088 0.0
C297 C 0.94886 0.57559 0.18776 0.0
C298 C 0.91942 0.61517 0.24855 0.0
C299 C 0.9201 0.55906 0.21557 0.0
C300 C 0.88035 0.61553 0.31366 0.0
C301 C 0.89542 0.69036 0.31191 0.0
N302 N 0.90665 0.57876 0.24464 0.0
N303 N 0.91016 0.6717 0.28248 0.0
H304 H 0.37305 0.22469 0.30317 0.0
H305 H 0.42791 0.12655 0.11667 0.0
H306 H 0.41095 0.28783 0.19303 0.0
H307 H 0.48796 0.11873 0.22505 0.0
H308 H 0.40685 0.17753 0.14629 0.0
H309 H 0.4031 0.17841 0.27787 0.0
C310 C 0.38824 0.22958 0.27415 0.0
C311 C 0.3893 0.26094 0.25045 0.0
C312 C 0.4245 0.16447 0.16354 0.0
C313 C 0.42199 0.20635 0.2207 0.0
C314 C 0.43612 0.13516 0.14704 0.0
C315 C 0.45936 0.11821 0.16874 0.0
C316 C 0.43531 0.17625 0.20246 0.0
C317 C 0.46985 0.13099 0.20756 0.0
C318 C 0.40509 0.20271 0.2597 0.0
C319 C 0.40842 0.26412 0.21224 0.0
N320 N 0.45726 0.15908 0.22359 0.0
N321 N 0.42336 0.23685 0.19822 0.0
H322 H 0.2237 0.93617 0.55138 0.0
H323 H 0.02751 0.97177 0.62138 0.0
H324 H 0.15188 0.87106 0.643 0.0
H325 H 0.11678 0.0532 0.56633 0.0
H326 H 0.06764 0.92905 0.6198 0.0
H327 H 0.17775 0.97247 0.54343 0.0
C328 C 0.1976 0.9288 0.56866 0.0
C329 C 0.19116 0.90075 0.59768 0.0
C330 C 0.07842 0.95633 0.60824 0.0
C331 C 0.13945 0.94235 0.58986 0.0
C332 C 0.05573 0.98076 0.60952 0.0
C333 C 0.06906 1.01605 0.59428 0.0
C334 C 0.11443 0.96723 0.59112 0.0
C335 C 0.10558 1.02627 0.57864 0.0
C336 C 0.17174 0.94976 0.56466 0.0
C337 C 0.15745 0.89249 0.62013 0.0
N338 N 0.127 1.00185 0.57724 0.0
N339 N 0.13286 0.91348 0.61604 0.0
H340 H 0.75102 0.36286 0.95769 0.0
H341 H 0.88387 0.54738 1.03174 0.0
H342 H 0.7228 0.46625 0.94667 0.0
H343 H 0.90103 0.44113 1.05666 0.0
H344 H 0.82645 0.51941 0.99835 0.0
H345 H 0.80728 0.39206 0.9911 0.0
C346 C 0.75636 0.3917 0.96244 0.0
C347 C 0.73137 0.4118 0.94944 0.0
C348 C 0.84274 0.50223 1.01123 0.0
C349 C 0.79713 0.44596 0.98765 0.0
C350 C 0.87562 0.5182 1.0304 0.0
C351 C 0.89762 0.49671 1.0473 0.0
C352 C 0.83168 0.46438 1.0085 0.0
C353 C 0.88521 0.45899 1.04435 0.0
C354 C 0.78884 0.40847 0.98146 0.0
C355 C 0.741 0.44941 0.95572 0.0
N356 N 0.85339 0.44419 1.02533 0.0
N357 N 0.77291 0.46516 0.97434 0.0
H358 H 0.74095 0.72294 0.43713 0.0
H359 H 0.61041 0.55218 0.55635 0.0
H360 H 0.77223 0.62126 0.44969 0.0
H361 H 0.57997 0.65286 0.53315 0.0
H362 H 0.66916 0.57538 0.51724 0.0
H363 H 0.68155 0.69641 0.47149 0.0
C364 C 0.73535 0.69494 0.44709 0.0
C365 C 0.76203 0.67451 0.44065 0.0
C366 C 0.64953 0.5923 0.52057 0.0
C367 C 0.69323 0.64355 0.48049 0.0
C368 C 0.616 0.57906 0.54292 0.0
C369 C 0.5902 0.60063 0.54817 0.0
C370 C 0.65738 0.62742 0.50339 0.0
C371 C 0.59898 0.63527 0.5301 0.0
C372 C 0.70122 0.6797 0.4667 0.0
C373 C 0.75259 0.63809 0.45377 0.0
N374 N 0.63165 0.64751 0.50878 0.0
N375 N 0.71919 0.62388 0.4733 0.0
H376 H 0.28325 0.29656 0.18938 0.0
H377 H 0.18981 0.46508 0.1705 0.0
H378 H 0.32494 0.3996 0.24467 0.0
H379 H 0.135 0.35513 0.14422 0.0
H380 H 0.24627 0.44495 0.18286 0.0
H381 H 0.23667 0.32176 0.15604 0.0
C382 C 0.28337 0.32484 0.1933 0.0
C383 C 0.30779 0.34611 0.21975 0.0
C384 C 0.22195 0.42533 0.17398 0.0
C385 C 0.25431 0.3748 0.18271 0.0
C386 C 0.18959 0.43673 0.16723 0.0
C387 C 0.15729 0.41172 0.15688 0.0
C388 C 0.22219 0.38864 0.17022 0.0
C389 C 0.15914 0.37548 0.15195 0.0
C390 C 0.25655 0.33909 0.17472 0.0
C391 C 0.30647 0.38241 0.22446 0.0
N392 N 0.19091 0.36501 0.15899 0.0
N393 N 0.27987 0.39552 0.20652 0.0
H394 H 0.56829 0.30709 0.93375 0.0
H395 H 0.59382 0.12323 1.0386 0.0
H396 H 0.67499 0.2854 0.95482 0.0
H397 H 0.4907 0.13509 0.99187 0.0
H398 H 0.6235 0.184 1.01219 0.0
H399 H 0.539 0.24586 0.95804 0.0
C400 C 0.58575 0.28961 0.94315 0.0
C401 C 0.62449 0.30213 0.9421 0.0
C402 C 0.59436 0.17338 1.00769 0.0
C403 C 0.59058 0.23141 0.97101 0.0
C404 C 0.57734 0.13876 1.02314 0.0
C405 C 0.53961 0.12421 1.01798 0.0
C406 C 0.57347 0.19393 0.98712 0.0
C407 C 0.51988 0.14523 0.99652 0.0
C408 C 0.56885 0.25453 0.95732 0.0
C409 C 0.64513 0.27778 0.95565 0.0
N410 N 0.53689 0.17898 0.98219 0.0
N411 N 0.62801 0.24395 0.96957 0.0
H412 H 0.85439 0.76384 0.50119 0.0
H413 H 0.96103 0.97181 0.46727 0.0
H414 H 0.8938 0.80697 0.38168 0.0
H415 H 0.89896 0.92874 0.57722 0.0
H416 H 0.94071 0.91246 0.43542 0.0
H417 H 0.87603 0.82356 0.52967 0.0
C418 C 0.86762 0.78587 0.48074 0.0
C419 C 0.87154 0.78002 0.4386 0.0
C420 C 0.93155 0.91605 0.46651 0.0
C421 C 0.89715 0.8496 0.47174 0.0
C422 C 0.94299 0.95008 0.48476 0.0
C423 C 0.93219 0.95558 0.52546 0.0
C424 C 0.90922 0.88696 0.48906 0.0
C425 C 0.90885 0.92601 0.54627 0.0
C426 C 0.88007 0.82019 0.4972 0.0
C427 C 0.89004 0.80989 0.41426 0.0
N428 N 0.89847 0.89327 0.52806 0.0
N429 N 0.90194 0.8433 0.43108 0.0
H430 H 0.24035 0.78551 0.58087 0.0
H431 H 0.34786 0.66277 0.5901 0.0
H432 H 0.3419 0.86725 0.57219 0.0
H433 H 0.43586 0.7566 0.6079 0.0
H434 H 0.31085 0.70154 0.56209 0.0
H435 H 0.27489 0.73946 0.56818 0.0
C436 C 0.26988 0.79376 0.57434 0.0
C437 C 0.28856 0.82987 0.57818 0.0
C438 C 0.33809 0.71389 0.57219 0.0
C439 C 0.32877 0.77755 0.56452 0.0
C440 C 0.35925 0.69165 0.58821 0.0
C441 C 0.39444 0.7067 0.60251 0.0
C442 C 0.35208 0.75153 0.57128 0.0
C443 C 0.40862 0.74396 0.59779 0.0
C444 C 0.28987 0.76739 0.56734 0.0
C445 C 0.32674 0.83944 0.5699 0.0
N446 N 0.38715 0.76513 0.5832 0.0
N447 N 0.34572 0.81332 0.56437 0.0
H448 H 0.69443 0.73297 0.81922 0.0
H449 H 0.86773 0.8215 0.74886 0.0
H450 H 0.6899 0.84534 0.82572 0.0
H451 H 0.81398 0.89023 0.68051 0.0
H452 H 0.80691 0.78538 0.77225 0.0
H453 H 0.74142 0.74878 0.76368 0.0
C454 C 0.70251 0.76076 0.80853 0.0
C455 C 0.68922 0.78808 0.82876 0.0
C456 C 0.8084 0.8074 0.7507 0.0
C457 C 0.74174 0.80578 0.76436 0.0
C458 C 0.84303 0.82798 0.73753 0.0
C459 C 0.84553 0.85853 0.71267 0.0
C460 C 0.77642 0.81846 0.74004 0.0
C461 C 0.81291 0.86655 0.69942 0.0
C462 C 0.72919 0.76959 0.77674 0.0
C463 C 0.69945 0.82324 0.81194 0.0
N464 N 0.7796 0.84734 0.71438 0.0
N465 N 0.72557 0.83115 0.78117 0.0
H466 H 0.78259 0.22949 0.4407 0.0
H467 H 0.69991 0.22997 0.21977 0.0
H468 H 0.80682 0.32284 0.36025 0.0
H469 H 0.6703 0.14019 0.30507 0.0
H470 H 0.73758 0.26535 0.27131 0.0
H471 H 0.7402 0.197 0.39163 0.0
C472 C 0.7792 0.24303 0.41244 0.0
C473 C 0.79865 0.27869 0.40414 0.0
C474 C 0.72265 0.238 0.27884 0.0
C475 C 0.74968 0.24185 0.34807 0.0
C476 C 0.70128 0.21777 0.24942 0.0
C477 C 0.68224 0.18203 0.25813 0.0
C478 C 0.72515 0.22226 0.31712 0.0
C479 C 0.6844 0.16771 0.29719 0.0
C480 C 0.75473 0.22458 0.38461 0.0
C481 C 0.79241 0.29531 0.36766 0.0
N482 N 0.70574 0.1878 0.32515 0.0
N483 N 0.76858 0.27664 0.34077 0.0
H484 H 0.43343 0.68456 0.30705 0.0
H485 H 0.41121 0.60849 0.53656 0.0
H486 H 0.32933 0.66649 0.37498 0.0
H487 H 0.48564 0.57578 0.44855 0.0
H488 H 0.38596 0.63833 0.48141 0.0
H489 H 0.45822 0.65352 0.3618 0.0
C490 C 0.41582 0.67424 0.33354 0.0
C491 C 0.37913 0.67816 0.33621 0.0
C492 C 0.40773 0.62451 0.47414 0.0
C493 C 0.40766 0.64298 0.39958 0.0
C494 C 0.42227 0.60747 0.50567 0.0
C495 C 0.45053 0.58917 0.49738 0.0
C496 C 0.42207 0.62428 0.43387 0.0
C497 C 0.46369 0.58913 0.45654 0.0
C498 C 0.42995 0.65635 0.36471 0.0
C499 C 0.35765 0.66397 0.37138 0.0
N500 N 0.44968 0.60662 0.42654 0.0
N501 N 0.37226 0.64743 0.40169 0.0
H502 H 0.15675 0.47409 0.82109 0.0
H503 H 0.0204 0.46413 1.01949 0.0
H504 H 0.09941 0.37258 0.87691 0.0
H505 H 0.09791 0.56099 0.9772 0.0
H506 H 0.04556 0.42998 0.96621 0.0
H507 H 0.13222 0.50586 0.87585 0.0
C508 C 0.13932 0.45821 0.8449 0.0
C509 C 0.1308 0.42013 0.8439 0.0
C510 C 0.05713 0.45869 0.96868 0.0
C511 C 0.10135 0.45725 0.9073 0.0
C512 C 0.04279 0.47823 0.99922 0.0
C513 C 0.057 0.51564 1.00312 0.0
C514 C 0.0857 0.47664 0.94131 0.0
C515 C 0.08595 0.53229 0.97559 0.0
C516 C 0.125 0.47662 0.87627 0.0
C517 C 0.1068 0.40178 0.8756 0.0
N518 N 0.09905 0.51287 0.94599 0.0
N519 N 0.09302 0.42039 0.90573 0.0
H520 H 0.66818 0.85235 0.98967 0.0
H521 H 0.499 0.94823 0.99582 0.0
H522 H 0.57908 0.82423 0.90686 0.0
H523 H 0.60379 0.99302 1.04902 0.0
H524 H 0.5253 0.90054 0.96559 0.0
H525 H 0.64182 0.90116 1.01575 0.0
C526 C 0.64276 0.85621 0.97731 0.0
C527 C 0.62553 0.83397 0.94637 0.0
C528 C 0.54254 0.92102 0.98362 0.0
C529 C 0.59545 0.89027 0.9757 0.0
C530 C 0.52759 0.94825 1.0009 0.0
C531 C 0.54918 0.97466 1.02514 0.0
C532 C 0.57915 0.91994 0.9911 0.0
C533 C 0.58606 0.97332 1.03057 0.0
C534 C 0.62794 0.88434 0.9919 0.0
C535 C 0.59314 0.84077 0.93079 0.0
N536 N 0.59974 0.94626 1.01401 0.0
N537 N 0.57898 0.86825 0.9458 0.0
H538 H 0.86498 0.28152 0.56915 0.0
H539 H 0.91754 0.09713 0.52791 0.0
H540 H 0.91691 0.25975 0.45526 0.0
H541 H 0.93009 0.14249 0.64812 0.0
H542 H 0.90985 0.15513 0.50146 0.0
H543 H 0.88481 0.23086 0.60096 0.0
C544 C 0.88158 0.26686 0.55123 0.0
C545 C 0.8889 0.27436 0.50942 0.0
C546 C 0.9145 0.15241 0.5336 0.0
C547 C 0.91018 0.21607 0.54493 0.0
C548 C 0.91871 0.11938 0.54865 0.0
C549 C 0.92515 0.11543 0.58994 0.0
C550 C 0.91568 0.1813 0.56033 0.0
C551 C 0.9254 0.14466 0.61593 0.0
C552 C 0.89251 0.2378 0.56925 0.0
C553 C 0.91018 0.25435 0.48744 0.0
N554 N 0.92059 0.1765 0.60071 0.0
N555 N 0.91934 0.22556 0.5052 0.0
H556 H 0.29275 0.70409 0.17506 0.0
H557 H 0.10784 0.54837 0.18449 0.0
H558 H 0.25414 0.64376 0.28654 0.0
H559 H 0.12148 0.6425 0.10642 0.0
H560 H 0.16617 0.57615 0.21625 0.0
H561 H 0.23506 0.67552 0.14412 0.0
C562 C 0.27226 0.68521 0.19348 0.0
C563 C 0.27885 0.67719 0.23423 0.0
C564 C 0.15639 0.59066 0.19212 0.0
C565 C 0.21242 0.64281 0.19744 0.0
C566 C 0.12317 0.57474 0.17375 0.0
C567 C 0.1095 0.59307 0.14262 0.0
C568 C 0.17676 0.6249 0.17876 0.0
C569 C 0.13069 0.62733 0.13032 0.0
C570 C 0.23924 0.66859 0.17538 0.0
C571 C 0.25109 0.65097 0.25514 0.0
N572 N 0.16323 0.64194 0.14813 0.0
N573 N 0.21936 0.63474 0.23654 0.0
H574 H 0.22933 0.46901 0.73772 0.0
H575 H 0.41685 0.42478 0.64356 0.0
H576 H 0.25267 0.36315 0.73806 0.0
H577 H 0.3921 0.52933 0.62997 0.0
H578 H 0.35796 0.4033 0.68139 0.0
H579 H 0.28962 0.49309 0.7024 0.0
C580 C 0.24715 0.45084 0.73075 0.0
C581 C 0.23546 0.4138 0.74085 0.0
C582 C 0.36526 0.43099 0.67028 0.0
C583 C 0.30481 0.44133 0.7 0.0
C584 C 0.39902 0.44332 0.64857 0.0
C585 C 0.40964 0.47898 0.63346 0.0
C586 C 0.34149 0.45439 0.67733 0.0
C587 C 0.38523 0.50168 0.64115 0.0
C588 C 0.28154 0.4646 0.71028 0.0
C589 C 0.25991 0.3917 0.73049 0.0
N590 N 0.35238 0.48904 0.66249 0.0
N591 N 0.2931 0.40572 0.7108 0.0
H592 H 0.68428 0.69006 0.93919 0.0
H593 H 0.8738 0.73782 1.04969 0.0
H594 H 0.72289 0.79053 1.00107 0.0
H595 H 0.82094 0.62892 1.01757 0.0
H596 H 0.81688 0.75669 1.03584 0.0
H597 H 0.73106 0.66531 0.97237 0.0
C598 C 0.70204 0.70653 0.96062 0.0
C599 C 0.6999 0.74236 0.96736 0.0
C600 C 0.81752 0.72856 1.03233 0.0
C601 C 0.754 0.71473 1.0045 0.0
C602 C 0.85008 0.71787 1.03992 0.0
C603 C 0.85211 0.68187 1.03436 0.0
C604 C 0.78696 0.70317 1.01842 0.0
C605 C 0.82047 0.65695 1.02226 0.0
C606 C 0.72879 0.69249 0.97945 0.0
C607 C 0.72354 0.7627 0.99526 0.0
N608 N 0.78933 0.66817 1.01415 0.0
N609 N 0.7501 0.74882 1.01224 0.0
H610 H 0.36919 0.77776 0.17893 0.0
H611 H 0.49974 0.97079 0.22814 0.0
H612 H 0.40849 0.80711 0.29896 0.0
H613 H 0.44515 0.94835 0.11467 0.0
H614 H 0.46788 0.91069 0.25383 0.0
H615 H 0.39795 0.83888 0.15441 0.0
C616 C 0.38359 0.79696 0.20041 0.0
C617 C 0.38585 0.78672 0.24149 0.0
C618 C 0.46248 0.91891 0.22344 0.0
C619 C 0.41988 0.85753 0.21279 0.0
C620 C 0.48064 0.95336 0.20872 0.0
C621 C 0.47477 0.96504 0.16929 0.0
C622 C 0.43845 0.89528 0.19843 0.0
C623 C 0.44995 0.94096 0.14549 0.0
C624 C 0.40024 0.83202 0.18614 0.0
C625 C 0.40604 0.81313 0.26705 0.0
N626 N 0.43295 0.90726 0.16028 0.0
N627 N 0.42214 0.84704 0.25235 0.0
H628 H 0.10218 0.28645 0.80486 0.0
H629 H 0.0486 0.17771 0.59777 0.0
H630 H 0.13289 0.3299 0.68355 0.0
H631 H 0.03008 0.12436 0.71568 0.0
H632 H 0.07625 0.23405 0.63039 0.0
H633 H 0.07201 0.22823 0.7749 0.0
C634 C 0.10234 0.28394 0.77199 0.0
C635 C 0.12047 0.31332 0.74682 0.0
C636 C 0.06628 0.21014 0.64937 0.0
C637 C 0.086 0.24651 0.71223 0.0
C638 C 0.05036 0.17765 0.63064 0.0
C639 C 0.03687 0.14574 0.65378 0.0
C640 C 0.06883 0.2115 0.69199 0.0
C641 C 0.04018 0.14804 0.69642 0.0
C642 C 0.08533 0.25056 0.7549 0.0
C643 C 0.11986 0.30812 0.70438 0.0
N644 N 0.05567 0.18028 0.71411 0.0
N645 N 0.10308 0.27568 0.68865 0.0
H646 H 0.84757 0.41291 0.43979 0.0
H647 H 0.68115 0.44619 0.57967 0.0
H648 H 0.81274 0.35901 0.55533 0.0
H649 H 0.70332 0.4792 0.45327 0.0
H650 H 0.74164 0.43142 0.58076 0.0
H651 H 0.80974 0.45605 0.45581 0.0
C652 C 0.8331 0.41116 0.46929 0.0
C653 C 0.83259 0.38214 0.49601 0.0
C654 C 0.73349 0.44255 0.55305 0.0
C655 C 0.7884 0.43032 0.51389 0.0
C656 C 0.69882 0.45063 0.55224 0.0
C657 C 0.68663 0.46299 0.51596 0.0
C658 C 0.75616 0.44689 0.51737 0.0
C659 C 0.7113 0.46952 0.48186 0.0
C660 C 0.81123 0.4355 0.47827 0.0
C661 C 0.81356 0.38094 0.53386 0.0
N662 N 0.74462 0.46085 0.48323 0.0
N663 N 0.79132 0.40412 0.54127 0.0
loop_
_geom_bond_atom_site_label_1
_geom_bond_atom_site_label_2
_geom_bond_distance
_geom_bond_site_symmetry_2
_ccdc_geom_bond_type
H0 C3 0.931 . S
H1 C6 0.928 . S
H2 C8 0.930 . S
C3 H0 0.931 . S
C3 C4 1.413 . S
C3 C5 1.360 . S
C4 C3 1.413 . S
C4 C8 1.429 . S
C5 C3 1.360 . S
C5 C6 1.372 . S
C6 H1 0.928 . S
C6 C5 1.372 . S
C6 C7 1.404 . S
C7 C6 1.404 . S
C7 C8 1.391 . S
C8 H2 0.930 . S
C8 C4 1.429 . S
C8 C7 1.391 . S
H9 C12 0.931 . S
H10 C15 0.928 . S
H11 C17 0.930 . S
C12 H9 0.931 . S
C12 C13 1.413 . S
C12 C14 1.360 . S
C13 C12 1.413 . S
C13 C17 1.429 . S
C14 C12 1.360 . S
C14 C15 1.372 . S
C15 H10 0.928 . S
C15 C14 1.372 . S
C15 C16 1.404 . S
C16 C15 1.404 . S
C16 C17 1.391 . S
C17 H11 0.930 . S
C17 C13 1.429 . S
C17 C16 1.391 . S
H18 C21 0.931 . S
H19 C24 0.928 . S
H20 C26 0.930 . S
C21 H18 0.931 . S
C21 C22 1.413 . S
C21 C23 1.360 . S
C22 C21 1.413 . S
C22 C26 1.429 . S
C23 C21 1.360 . S
C23 C24 1.372 . S
C24 H19 0.928 . S
C24 C23 1.372 . S
C24 C25 1.404 . S
C25 C24 1.404 . S
C25 C26 1.391 . S
C26 H20 0.930 . S
C26 C22 1.429 . S
C26 C25 1.391 . S
H27 C30 0.931 . S
H28 C33 0.928 . S
H29 C35 0.930 . S
C30 H27 0.931 . S
C30 C31 1.413 . S
C30 C32 1.360 . S
C31 C30 1.413 . S
C31 C35 1.429 . S
C32 C30 1.360 . S
C32 C33 1.372 . S
C33 H28 0.928 . S
C33 C32 1.372 . S
C33 C34 1.404 . S
C34 C33 1.404 . S
C34 C35 1.391 . S
C35 H29 0.930 . S
C35 C31 1.429 . S
C35 C34 1.391 . S
H36 C39 0.931 . S
H37 C42 0.928 . S
H38 C44 0.930 . S
C39 H36 0.931 . S
C39 C40 1.413 . S
C39 C41 1.360 . S
C40 C39 1.413 . S
C40 C44 1.429 . S
C41 C39 1.360 . S
C41 C42 1.372 . S
C42 H37 0.928 . S
C42 C41 1.372 . S
C42 C43 1.404 . S
C43 C42 1.404 . S
C43 C44 1.391 . S
C44 H38 0.930 . S
C44 C40 1.429 . S
C44 C43 1.391 . S
H45 C48 0.931 . S
H46 C51 0.928 . S
H47 C53 0.930 . S
C48 H45 0.931 . S
C48 C49 1.413 . S
C48 C50 1.360 . S
C49 C48 1.413 . S
C49 C53 1.429 . S
C50 C48 1.360 . S
C50 C51 1.372 . S
C51 H46 0.928 . S
C51 C50 1.372 . S
C51 C52 1.404 . S
C52 C51 1.404 . S
C52 C53 1.391 . S
C53 H47 0.930 . S
C53 C49 1.429 . S
C53 C52 1.391 . S
H54 C57 0.931 . S
H55 C60 0.928 . S
H56 C62 0.930 . S
C57 H54 0.931 . S
C57 C58 1.413 . S
C57 C59 1.360 . S
C58 C57 1.413 . S
C58 C62 1.429 . S
C59 C57 1.360 . S
C59 C60 1.372 . S
C60 H55 0.928 . S
C60 C59 1.372 . S
C60 C61 1.404 . S
C61 C60 1.404 . S
C61 C62 1.391 . S
C62 H56 0.930 . S
C62 C58 1.429 . S
C62 C61 1.391 . S
H63 C66 0.931 . S
H64 C69 0.928 . S
H65 C71 0.930 . S
C66 H63 0.931 . S
C66 C67 1.413 . S
C66 C68 1.360 . S
C67 C66 1.413 . S
C67 C71 1.429 . S
C68 C66 1.360 . S
C68 C69 1.372 . S
C69 H64 0.928 . S
C69 C68 1.372 . S
C69 C70 1.404 . S
C70 C69 1.404 . S
C70 C71 1.391 . S
C71 H65 0.930 . S
C71 C67 1.429 . S
C71 C70 1.391 . S
La72 C74 2.928 . S
La72 O92 2.521 . S
La72 O93 2.628 . S
La72 O94 2.554 1_545 S
La72 O95 2.757 1_545 S
La72 O96 2.470 . S
La72 O101 2.482 1_455 S
La72 O103 2.503 1_445 S
La73 C83 2.912 1_545 S
La73 O95 2.472 1_645 S
La73 O97 2.520 1_655 S
La73 O98 2.513 1_545 S
La73 O99 2.607 1_545 S
La73 O100 2.567 . S
La73 O101 2.768 . S
La73 O102 2.457 1_545 S
C74 La72 2.928 . S
C74 C75 1.503 . S
C74 O92 1.261 . S
C74 O93 1.243 . S
C75 C74 1.503 . S
C75 C76 1.394 . S
C75 C80 1.373 . S
C76 C75 1.394 . S
C76 C77 1.380 . S
C76 H104 0.930 . S
C77 C76 1.380 . S
C77 C78 1.376 . S
C77 H105 0.930 . S
C78 C77 1.376 . S
C78 C79 1.370 . S
C79 C78 1.370 . S
C79 C80 1.396 . S
C79 H106 0.929 . S
C80 C75 1.373 . S
C80 C79 1.396 . S
C80 H107 0.929 . S
C81 O94 1.240 . S
C81 O95 1.289 . S
C82 O96 1.258 . S
C82 O97 1.256 . S
C83 La73 2.912 1_565 S
C83 C84 1.503 . S
C83 O98 1.261 . S
C83 O99 1.243 . S
C84 C83 1.503 . S
C84 C85 1.394 . S
C84 C89 1.373 . S
C85 C84 1.394 . S
C85 C86 1.380 . S
C85 H108 0.930 . S
C86 C85 1.380 . S
C86 C87 1.376 . S
C86 H109 0.930 . S
C87 C86 1.376 . S
C87 C88 1.370 . S
C88 C87 1.370 . S
C88 C89 1.396 . S
C88 H110 0.929 . S
C89 C84 1.373 . S
C89 C88 1.396 . S
C89 H111 0.929 . S
C90 O100 1.240 . S
C90 O101 1.289 . S
C91 O102 1.258 . S
C91 O103 1.256 . S
O92 La72 2.521 . S
O92 C74 1.261 . S
O93 La72 2.628 . S
O93 C74 1.243 . S
O94 La72 2.554 1_565 S
O94 C81 1.240 . S
O95 La72 2.757 1_565 S
O95 La73 2.472 1_465 S
O95 C81 1.289 . S
O96 La72 2.470 . S
O96 C82 1.258 . S
O97 La73 2.520 1_455 S
O97 C82 1.256 . S
O98 La73 2.513 1_565 S
O98 C83 1.261 . S
O99 La73 2.607 1_565 S
O99 C83 1.243 . S
O100 La73 2.567 . S
O100 C90 1.240 . S
O101 La72 2.482 1_655 S
O101 La73 2.768 . S
O101 C90 1.289 . S
O102 La73 2.457 1_565 S
O102 C91 1.258 . S
O103 La72 2.503 1_665 S
O103 C91 1.256 . S
H104 C76 0.930 . S
H105 C77 0.930 . S
H106 C79 0.929 . S
H107 C80 0.929 . S
H108 C85 0.930 . S
H109 C86 0.930 . S
H110 C88 0.929 . S
H111 C89 0.929 . S
La112 C114 2.928 . S
La112 O132 2.521 . S
La112 O133 2.628 . S
La112 O134 2.554 1_545 S
La112 O135 2.757 1_545 S
La112 O136 2.470 . S
La112 O141 2.482 1_554 S
La112 O143 2.503 1_544 S
La113 C123 2.928 1_545 S
La113 O135 2.482 1_546 S
La113 O137 2.503 1_556 S
La113 O138 2.519 1_545 S
La113 O139 2.628 1_545 S
La113 O140 2.554 . S
La113 O141 2.757 . S
La113 O142 2.470 1_545 S
C114 La112 2.928 . S
C114 C115 1.503 . S
C114 O132 1.261 . S
C114 O133 1.243 . S
C115 C114 1.503 . S
C115 C116 1.394 . S
C115 C120 1.373 . S
C116 C115 1.394 . S
C116 C117 1.380 . S
C116 H144 0.930 . S
C117 C116 1.380 . S
C117 C118 1.376 . S
C117 H145 0.930 . S
C118 C117 1.376 . S
C118 C119 1.370 . S
C119 C118 1.370 . S
C119 C120 1.396 . S
C119 H146 0.929 . S
C120 C115 1.373 . S
C120 C119 1.396 . S
C120 H147 0.929 . S
C121 O134 1.240 . S
C121 O135 1.289 . S
C122 O136 1.258 . S
C122 O137 1.256 . S
C123 La113 2.928 1_565 S
C123 C124 1.503 . S
C123 O138 1.295 . S
C123 O139 1.243 . S
C124 C123 1.503 . S
C124 C125 1.394 . S
C124 C129 1.373 . S
C125 C124 1.394 . S
C125 C126 1.380 . S
C125 H148 0.930 . S
C126 C125 1.380 . S
C126 C127 1.376 . S
C126 H149 0.930 . S
C127 C126 1.376 . S
C127 C128 1.370 . S
C128 C127 1.370 . S
C128 C129 1.396 . S
C128 H150 0.929 . S
C129 C124 1.373 . S
C129 C128 1.396 . S
C129 H151 0.929 . S
C130 O140 1.240 . S
C130 O141 1.289 . S
C131 O142 1.258 . S
C131 O143 1.256 . S
O132 La112 2.521 . S
O132 C114 1.261 . S
O133 La112 2.628 . S
O133 C114 1.243 . S
O134 La112 2.554 1_565 S
O134 C121 1.240 . S
O135 La112 2.757 1_565 S
O135 La113 2.482 1_564 S
O135 C121 1.289 . S
O136 La112 2.470 . S
O136 C122 1.258 . S
O137 La113 2.503 1_554 S
O137 C122 1.256 . S
O138 La113 2.519 1_565 S
O138 C123 1.295 . S
O139 La113 2.628 1_565 S
O139 C123 1.243 . S
O140 La113 2.554 . S
O140 C130 1.240 . S
O141 La112 2.482 1_556 S
O141 La113 2.757 . S
O141 C130 1.289 . S
O142 La113 2.470 1_565 S
O142 C131 1.258 . S
O143 La112 2.503 1_566 S
O143 C131 1.256 . S
H144 C116 0.930 . S
H145 C117 0.930 . S
H146 C119 0.929 . S
H147 C120 0.929 . S
H148 C125 0.930 . S
H149 C126 0.930 . S
H150 C128 0.929 . S
H151 C129 0.929 . S
La152 C154 2.928 . S
La152 O172 2.521 . S
La152 O173 2.628 . S
La152 O174 2.554 . S
La152 O175 2.757 . S
La152 O176 2.470 . S
La152 O181 2.482 . S
La152 O183 2.503 . S
La153 C163 2.928 . S
La153 O175 2.482 . S
La153 O177 2.503 . S
La153 O178 2.521 . S
La153 O179 2.628 . S
La153 O180 2.554 . S
La153 O181 2.757 . S
La153 O182 2.470 . S
C154 La152 2.928 . S
C154 C155 1.503 . S
C154 O172 1.261 . S
C154 O173 1.243 . S
C155 C154 1.503 . S
C155 C156 1.394 . S
C155 C160 1.373 . S
C156 C155 1.394 . S
C156 C157 1.380 . S
C156 H184 0.930 . S
C157 C156 1.380 . S
C157 C158 1.376 . S
C157 H185 0.930 . S
C158 C157 1.376 . S
C158 C159 1.370 . S
C159 C158 1.370 . S
C159 C160 1.396 . S
C159 H186 0.929 . S
C160 C155 1.373 . S
C160 C159 1.396 . S
C160 H187 0.929 . S
C161 O174 1.240 . S
C161 O175 1.289 . S
C162 O176 1.258 . S
C162 O177 1.256 . S
C163 La153 2.928 . S
C163 C164 1.503 . S
C163 O178 1.261 . S
C163 O179 1.243 . S
C164 C163 1.503 . S
C164 C165 1.394 . S
C164 C169 1.373 . S
C165 C164 1.394 . S
C165 C166 1.380 . S
C165 H188 0.930 . S
C166 C165 1.380 . S
C166 C167 1.376 . S
C166 H189 0.930 . S
C167 C166 1.376 . S
C167 C168 1.370 . S
C168 C167 1.370 . S
C168 C169 1.396 . S
C168 H190 0.929 . S
C169 C164 1.373 . S
C169 C168 1.396 . S
C169 H191 0.929 . S
C170 O180 1.240 . S
C170 O181 1.289 . S
C171 O182 1.258 . S
C171 O183 1.256 . S
O172 La152 2.521 . S
O172 C154 1.261 . S
O173 La152 2.628 . S
O173 C154 1.243 . S
O174 La152 2.554 . S
O174 C161 1.240 . S
O175 La152 2.757 . S
O175 La153 2.482 . S
O175 C161 1.289 . S
O176 La152 2.470 . S
O176 C162 1.258 . S
O177 La153 2.503 . S
O177 C162 1.256 . S
O178 La153 2.521 . S
O178 C163 1.261 . S
O179 La153 2.628 . S
O179 C163 1.243 . S
O180 La153 2.554 . S
O180 C170 1.240 . S
O181 La152 2.482 . S
O181 La153 2.757 . S
O181 C170 1.289 . S
O182 La153 2.470 . S
O182 C171 1.258 . S
O183 La152 2.503 . S
O183 C171 1.256 . S
H184 C156 0.930 . S
H185 C157 0.930 . S
H186 C159 0.929 . S
H187 C160 0.929 . S
H188 C165 0.930 . S
H189 C166 0.930 . S
H190 C168 0.929 . S
H191 C169 0.929 . S
La192 C194 2.928 . S
La192 O212 2.521 . S
La192 O213 2.628 . S
La192 O214 2.554 1_455 S
La192 O215 2.757 1_455 S
La192 O216 2.470 . S
La192 O221 2.482 1_554 S
La192 O223 2.503 1_454 S
La193 C203 2.912 1_455 S
La193 O215 2.477 1_456 S
La193 O217 2.520 1_556 S
La193 O218 2.510 1_455 S
La193 O219 2.609 1_455 S
La193 O220 2.563 . S
La193 O221 2.768 . S
La193 O222 2.459 1_455 S
C194 La192 2.928 . S
C194 C195 1.503 . S
C194 O212 1.261 . S
C194 O213 1.243 . S
C195 C194 1.503 . S
C195 C196 1.394 . S
C195 C200 1.373 . S
C196 C195 1.394 . S
C196 C197 1.380 . S
C196 H224 0.930 . S
C197 C196 1.380 . S
C197 C198 1.376 . S
C197 H225 0.930 . S
C198 C197 1.376 . S
C198 C199 1.370 . S
C199 C198 1.370 . S
C199 C200 1.396 . S
C199 H226 0.929 . S
C200 C195 1.373 . S
C200 C199 1.396 . S
C200 H227 0.929 . S
C201 O214 1.240 . S
C201 O215 1.289 . S
C202 O216 1.258 . S
C202 O217 1.256 . S
C203 La193 2.912 1_655 S
C203 C204 1.503 . S
C203 O218 1.261 . S
C203 O219 1.243 . S
C204 C203 1.503 . S
C204 C205 1.394 . S
C204 C209 1.373 . S
C205 C204 1.394 . S
C205 C206 1.380 . S
C205 H228 0.930 . S
C206 C205 1.380 . S
C206 C207 1.376 . S
C206 H229 0.930 . S
C207 C206 1.376 . S
C207 C208 1.370 . S
C208 C207 1.370 . S
C208 C209 1.396 . S
C208 H230 0.929 . S
C209 C204 1.373 . S
C209 C208 1.396 . S
C209 H231 0.929 . S
C210 O220 1.240 . S
C210 O221 1.289 . S
C211 O222 1.258 . S
C211 O223 1.256 . S
O212 La192 2.521 . S
O212 C194 1.261 . S
O213 La192 2.628 . S
O213 C194 1.243 . S
O214 La192 2.554 1_655 S
O214 C201 1.240 . S
O215 La192 2.757 1_655 S
O215 La193 2.477 1_654 S
O215 C201 1.289 . S
O216 La192 2.470 . S
O216 C202 1.258 . S
O217 La193 2.520 1_554 S
O217 C202 1.256 . S
O218 La193 2.510 1_655 S
O218 C203 1.261 . S
O219 La193 2.609 1_655 S
O219 C203 1.243 . S
O220 La193 2.563 . S
O220 C210 1.240 . S
O221 La192 2.482 1_556 S
O221 La193 2.768 . S
O221 C210 1.289 . S
O222 La193 2.459 1_655 S
O222 C211 1.258 . S
O223 La192 2.503 1_656 S
O223 C211 1.256 . S
H224 C196 0.930 . S
H225 C197 0.930 . S
H226 C199 0.929 . S
H227 C200 0.929 . S
H228 C205 0.930 . S
H229 C206 0.930 . S
H230 C208 0.929 . S
H231 C209 0.929 . S
H232 C238 0.930 . S
H233 C242 0.930 . S
H234 C247 0.929 . S
H235 C245 0.929 . S
H236 C240 0.929 . S
H237 C246 0.929 . S
C238 H232 0.930 . S
C238 C239 1.367 . S
C238 C246 1.378 . S
C239 C238 1.367 . S
C239 C247 1.433 . S
C240 H236 0.929 . S
C240 C242 1.378 . S
C240 C244 1.350 . S
C241 C244 1.463 . S
C241 C246 1.350 . S
C241 N249 1.427 . S
C242 H233 0.930 . S
C242 C240 1.378 . S
C242 C243 1.367 . S
C243 C242 1.367 . S
C243 C245 1.433 . S
C244 C240 1.350 . S
C244 C241 1.463 . S
C244 N248 1.427 . S
C245 H235 0.929 . S
C245 C243 1.433 . S
C245 N248 1.384 . S
C246 H237 0.929 . S
C246 C238 1.378 . S
C246 C241 1.350 . S
C247 H234 0.929 . S
C247 C239 1.433 . S
C247 N249 1.384 . S
N248 C244 1.427 . S
N248 C245 1.384 . S
N249 C241 1.427 . S
N249 C247 1.384 . S
H250 C256 0.930 . S
H251 C260 0.930 . S
H252 C265 0.929 . S
H253 C263 0.929 . S
H254 C258 0.929 . S
H255 C264 0.929 . S
C256 H250 0.930 . S
C256 C257 1.367 . S
C256 C264 1.378 . S
C257 C256 1.367 . S
C257 C265 1.433 . S
C258 H254 0.929 . S
C258 C260 1.378 . S
C258 C262 1.350 . S
C259 C262 1.463 . S
C259 C264 1.350 . S
C259 N267 1.427 . S
C260 H251 0.930 . S
C260 C258 1.378 . S
C260 C261 1.367 . S
C261 C260 1.367 . S
C261 C263 1.433 . S
C262 C258 1.350 . S
C262 C259 1.463 . S
C262 N266 1.427 . S
C263 H253 0.929 . S
C263 C261 1.433 . S
C263 N266 1.384 . S
C264 H255 0.929 . S
C264 C256 1.378 . S
C264 C259 1.350 . S
C265 H252 0.929 . S
C265 C257 1.433 . S
C265 N267 1.384 . S
N266 C262 1.427 . S
N266 C263 1.384 . S
N267 C259 1.427 . S
N267 C265 1.384 . S
H268 C274 0.930 . S
H269 C278 0.930 . S
H270 C283 0.929 . S
H271 C281 0.929 . S
H272 C276 0.929 . S
H273 C282 0.929 . S
C274 H268 0.930 . S
C274 C275 1.367 . S
C274 C282 1.378 . S
C275 C274 1.367 . S
C275 C283 1.433 . S
C276 H272 0.929 . S
C276 C278 1.378 . S
C276 C280 1.350 . S
C277 C280 1.463 . S
C277 C282 1.350 . S
C277 N285 1.427 . S
C278 H269 0.930 . S
C278 C276 1.378 . S
C278 C279 1.367 . S
C279 C278 1.367 . S
C279 C281 1.433 . S
C280 C276 1.350 . S
C280 C277 1.463 . S
C280 N284 1.427 . S
C281 H271 0.929 . S
C281 C279 1.433 . S
C281 N284 1.384 . S
C282 H273 0.929 . S
C282 C274 1.378 . S
C282 C277 1.350 . S
C283 H270 0.929 . S
C283 C275 1.433 . S
C283 N285 1.384 . S
N284 C280 1.427 . S
N284 C281 1.384 . S
N285 C277 1.427 . S
N285 C283 1.384 . S
H286 C292 0.930 . S
H287 C296 0.930 . S
H288 C301 0.929 . S
H289 C299 0.929 . S
H290 C294 0.929 . S
H291 C300 0.929 . S
C292 H286 0.930 . S
C292 C293 1.367 . S
C292 C300 1.378 . S
C293 C292 1.367 . S
C293 C301 1.433 . S
C294 H290 0.929 . S
C294 C296 1.378 . S
C294 C298 1.350 . S
C295 C298 1.463 . S
C295 C300 1.350 . S
C295 N303 1.427 . S
C296 H287 0.930 . S
C296 C294 1.378 . S
C296 C297 1.367 . S
C297 C296 1.367 . S
C297 C299 1.433 . S
C298 C294 1.350 . S
C298 C295 1.463 . S
C298 N302 1.427 . S
C299 H289 0.929 . S
C299 C297 1.433 . S
C299 N302 1.384 . S
C300 H291 0.929 . S
C300 C292 1.378 . S
C300 C295 1.350 . S
C301 H288 0.929 . S
C301 C293 1.433 . S
C301 N303 1.384 . S
N302 C298 1.427 . S
N302 C299 1.384 . S
N303 C295 1.427 . S
N303 C301 1.384 . S
H304 C310 0.930 . S
H305 C314 0.930 . S
H306 C319 0.929 . S
H307 C317 0.929 . S
H308 C312 0.929 . S
H309 C318 0.929 . S
C310 H304 0.930 . S
C310 C311 1.367 . S
C310 C318 1.378 . S
C311 C310 1.367 . S
C311 C319 1.433 . S
C312 H308 0.929 . S
C312 C314 1.378 . S
C312 C316 1.350 . S
C313 C316 1.463 . S
C313 C318 1.350 . S
C313 N321 1.427 . S
C314 H305 0.930 . S
C314 C312 1.378 . S
C314 C315 1.367 . S
C315 C314 1.367 . S
C315 C317 1.433 . S
C316 C312 1.350 . S
C316 C313 1.463 . S
C316 N320 1.427 . S
C317 H307 0.929 . S
C317 C315 1.433 . S
C317 N320 1.384 . S
C318 H309 0.929 . S
C318 C310 1.378 . S
C318 C313 1.350 . S
C319 H306 0.929 . S
C319 C311 1.433 . S
C319 N321 1.384 . S
N320 C316 1.427 . S
N320 C317 1.384 . S
N321 C313 1.427 . S
N321 C319 1.384 . S
H322 C328 0.930 . S
H323 C332 0.930 . S
H324 C337 0.929 . S
H325 C335 0.929 . S
H326 C330 0.929 . S
H327 C336 0.929 . S
C328 H322 0.930 . S
C328 C329 1.367 . S
C328 C336 1.378 . S
C329 C328 1.367 . S
C329 C337 1.433 . S
C330 H326 0.929 . S
C330 C332 1.378 . S
C330 C334 1.350 . S
C331 C334 1.463 . S
C331 C336 1.350 . S
C331 N339 1.427 . S
C332 H323 0.930 . S
C332 C330 1.378 . S
C332 C333 1.367 . S
C333 C332 1.367 . S
C333 C335 1.433 . S
C334 C330 1.350 . S
C334 C331 1.463 . S
C334 N338 1.427 . S
C335 H325 0.929 . S
C335 C333 1.433 . S
C335 N338 1.384 . S
C336 H327 0.929 . S
C336 C328 1.378 . S
C336 C331 1.350 . S
C337 H324 0.929 . S
C337 C329 1.433 . S
C337 N339 1.384 . S
N338 C334 1.427 . S
N338 C335 1.384 . S
N339 C331 1.427 . S
N339 C337 1.384 . S
H340 C346 0.930 . S
H341 C350 0.930 . S
H342 C355 0.929 . S
H343 C353 0.929 . S
H344 C348 0.929 . S
H345 C354 0.929 . S
C346 H340 0.930 . S
C346 C347 1.367 . S
C346 C354 1.378 . S
C347 C346 1.367 . S
C347 C355 1.433 . S
C348 H344 0.929 . S
C348 C350 1.378 . S
C348 C352 1.350 . S
C349 C352 1.463 . S
C349 C354 1.350 . S
C349 N357 1.427 . S
C350 H341 0.930 . S
C350 C348 1.378 . S
C350 C351 1.367 . S
C351 C350 1.367 . S
C351 C353 1.433 . S
C352 C348 1.350 . S
C352 C349 1.463 . S
C352 N356 1.427 . S
C353 H343 0.929 . S
C353 C351 1.433 . S
C353 N356 1.384 . S
C354 H345 0.929 . S
C354 C346 1.378 . S
C354 C349 1.350 . S
C355 H342 0.929 . S
C355 C347 1.433 . S
C355 N357 1.384 . S
N356 C352 1.427 . S
N356 C353 1.384 . S
N357 C349 1.427 . S
N357 C355 1.384 . S
H358 C364 0.930 . S
H359 C368 0.930 . S
H360 C373 0.929 . S
H361 C371 0.929 . S
H362 C366 0.929 . S
H363 C372 0.929 . S
C364 H358 0.930 . S
C364 C365 1.367 . S
C364 C372 1.378 . S
C365 C364 1.367 . S
C365 C373 1.433 . S
C366 H362 0.929 . S
C366 C368 1.378 . S
C366 C370 1.350 . S
C367 C370 1.463 . S
C367 C372 1.350 . S
C367 N375 1.427 . S
C368 H359 0.930 . S
C368 C366 1.378 . S
C368 C369 1.367 . S
C369 C368 1.367 . S
C369 C371 1.433 . S
C370 C366 1.350 . S
C370 C367 1.463 . S
C370 N374 1.427 . S
C371 H361 0.929 . S
C371 C369 1.433 . S
C371 N374 1.384 . S
C372 H363 0.929 . S
C372 C364 1.378 . S
C372 C367 1.350 . S
C373 H360 0.929 . S
C373 C365 1.433 . S
C373 N375 1.384 . S
N374 C370 1.427 . S
N374 C371 1.384 . S
N375 C367 1.427 . S
N375 C373 1.384 . S
H376 C382 0.930 . S
H377 C386 0.930 . S
H378 C391 0.929 . S
H379 C389 0.929 . S
H380 C384 0.929 . S
H381 C390 0.929 . S
C382 H376 0.930 . S
C382 C383 1.367 . S
C382 C390 1.378 . S
C383 C382 1.367 . S
C383 C391 1.433 . S
C384 H380 0.929 . S
C384 C386 1.378 . S
C384 C388 1.350 . S
C385 C388 1.463 . S
C385 C390 1.350 . S
C385 N393 1.427 . S
C386 H377 0.930 . S
C386 C384 1.378 . S
C386 C387 1.367 . S
C387 C386 1.367 . S
C387 C389 1.433 . S
C388 C384 1.350 . S
C388 C385 1.463 . S
C388 N392 1.427 . S
C389 H379 0.929 . S
C389 C387 1.433 . S
C389 N392 1.384 . S
C390 H381 0.929 . S
C390 C382 1.378 . S
C390 C385 1.350 . S
C391 H378 0.929 . S
C391 C383 1.433 . S
C391 N393 1.384 . S
N392 C388 1.427 . S
N392 C389 1.384 . S
N393 C385 1.427 . S
N393 C391 1.384 . S
H394 C400 0.930 . S
H395 C404 0.930 . S
H396 C409 0.929 . S
H397 C407 0.929 . S
H398 C402 0.929 . S
H399 C408 0.929 . S
C400 H394 0.930 . S
C400 C401 1.367 . S
C400 C408 1.378 . S
C401 C400 1.367 . S
C401 C409 1.433 . S
C402 H398 0.929 . S
C402 C404 1.378 . S
C402 C406 1.350 . S
C403 C406 1.463 . S
C403 C408 1.350 . S
C403 N411 1.427 . S
C404 H395 0.930 . S
C404 C402 1.378 . S
C404 C405 1.367 . S
C405 C404 1.367 . S
C405 C407 1.433 . S
C406 C402 1.350 . S
C406 C403 1.463 . S
C406 N410 1.427 . S
C407 H397 0.929 . S
C407 C405 1.433 . S
C407 N410 1.384 . S
C408 H399 0.929 . S
C408 C400 1.378 . S
C408 C403 1.350 . S
C409 H396 0.929 . S
C409 C401 1.433 . S
C409 N411 1.384 . S
N410 C406 1.427 . S
N410 C407 1.384 . S
N411 C403 1.427 . S
N411 C409 1.384 . S
H412 C418 0.930 . S
H413 C422 0.930 . S
H414 C427 0.929 . S
H415 C425 0.929 . S
H416 C420 0.929 . S
H417 C426 0.929 . S
C418 H412 0.930 . S
C418 C419 1.367 . S
C418 C426 1.378 . S
C419 C418 1.367 . S
C419 C427 1.433 . S
C420 H416 0.929 . S
C420 C422 1.378 . S
C420 C424 1.350 . S
C421 C424 1.463 . S
C421 C426 1.350 . S
C421 N429 1.427 . S
C422 H413 0.930 . S
C422 C420 1.378 . S
C422 C423 1.367 . S
C423 C422 1.367 . S
C423 C425 1.433 . S
C424 C420 1.350 . S
C424 C421 1.463 . S
C424 N428 1.427 . S
C425 H415 0.929 . S
C425 C423 1.433 . S
C425 N428 1.384 . S
C426 H417 0.929 . S
C426 C418 1.378 . S
C426 C421 1.350 . S
C427 H414 0.929 . S
C427 C419 1.433 . S
C427 N429 1.384 . S
N428 C424 1.427 . S
N428 C425 1.384 . S
N429 C421 1.427 . S
N429 C427 1.384 . S
H430 C436 0.930 . S
H431 C440 0.930 . S
H432 C445 0.929 . S
H433 C443 0.929 . S
H434 C438 0.929 . S
H435 C444 0.929 . S
C436 H430 0.930 . S
C436 C437 1.367 . S
C436 C444 1.378 . S
C437 C436 1.367 . S
C437 C445 1.433 . S
C438 H434 0.929 . S
C438 C440 1.378 . S
C438 C442 1.350 . S
C439 C442 1.463 . S
C439 C444 1.350 . S
C439 N447 1.427 . S
C440 H431 0.930 . S
C440 C438 1.378 . S
C440 C441 1.367 . S
C441 C440 1.367 . S
C441 C443 1.433 . S
C442 C438 1.350 . S
C442 C439 1.463 . S
C442 N446 1.427 . S
C443 H433 0.929 . S
C443 C441 1.433 . S
C443 N446 1.384 . S
C444 H435 0.929 . S
C444 C436 1.378 . S
C444 C439 1.350 . S
C445 H432 0.929 . S
C445 C437 1.433 . S
C445 N447 1.384 . S
N446 C442 1.427 . S
N446 C443 1.384 . S
N447 C439 1.427 . S
N447 C445 1.384 . S
H448 C454 0.930 . S
H449 C458 0.930 . S
H450 C463 0.929 . S
H451 C461 0.929 . S
H452 C456 0.929 . S
H453 C462 0.929 . S
C454 H448 0.930 . S
C454 C455 1.367 . S
C454 C462 1.378 . S
C455 C454 1.367 . S
C455 C463 1.433 . S
C456 H452 0.929 . S
C456 C458 1.378 . S
C456 C460 1.350 . S
C457 C460 1.463 . S
C457 C462 1.350 . S
C457 N465 1.427 . S
C458 H449 0.930 . S
C458 C456 1.378 . S
C458 C459 1.367 . S
C459 C458 1.367 . S
C459 C461 1.433 . S
C460 C456 1.350 . S
C460 C457 1.463 . S
C460 N464 1.427 . S
C461 H451 0.929 . S
C461 C459 1.433 . S
C461 N464 1.384 . S
C462 H453 0.929 . S
C462 C454 1.378 . S
C462 C457 1.350 . S
C463 H450 0.929 . S
C463 C455 1.433 . S
C463 N465 1.384 . S
N464 C460 1.427 . S
N464 C461 1.384 . S
N465 C457 1.427 . S
N465 C463 1.384 . S
H466 C472 0.930 . S
H467 C476 0.930 . S
H468 C481 0.929 . S
H469 C479 0.929 . S
H470 C474 0.929 . S
H471 C480 0.929 . S
C472 H466 0.930 . S
C472 C473 1.367 . S
C472 C480 1.378 . S
C473 C472 1.367 . S
C473 C481 1.433 . S
C474 H470 0.929 . S
C474 C476 1.378 . S
C474 C478 1.350 . S
C475 C478 1.463 . S
C475 C480 1.350 . S
C475 N483 1.427 . S
C476 H467 0.930 . S
C476 C474 1.378 . S
C476 C477 1.367 . S
C477 C476 1.367 . S
C477 C479 1.433 . S
C478 C474 1.350 . S
C478 C475 1.463 . S
C478 N482 1.427 . S
C479 H469 0.929 . S
C479 C477 1.433 . S
C479 N482 1.384 . S
C480 H471 0.929 . S
C480 C472 1.378 . S
C480 C475 1.350 . S
C481 H468 0.929 . S
C481 C473 1.433 . S
C481 N483 1.384 . S
N482 C478 1.427 . S
N482 C479 1.384 . S
N483 C475 1.427 . S
N483 C481 1.384 . S
H484 C490 0.930 . S
H485 C494 0.930 . S
H486 C499 0.929 . S
H487 C497 0.929 . S
H488 C492 0.929 . S
H489 C498 0.929 . S
C490 H484 0.930 . S
C490 C491 1.367 . S
C490 C498 1.378 . S
C491 C490 1.367 . S
C491 C499 1.433 . S
C492 H488 0.929 . S
C492 C494 1.378 . S
C492 C496 1.350 . S
C493 C496 1.463 . S
C493 C498 1.350 . S
C493 N501 1.427 . S
C494 H485 0.930 . S
C494 C492 1.378 . S
C494 C495 1.367 . S
C495 C494 1.367 . S
C495 C497 1.433 . S
C496 C492 1.350 . S
C496 C493 1.463 . S
C496 N500 1.427 . S
C497 H487 0.929 . S
C497 C495 1.433 . S
C497 N500 1.384 . S
C498 H489 0.929 . S
C498 C490 1.378 . S
C498 C493 1.350 . S
C499 H486 0.929 . S
C499 C491 1.433 . S
C499 N501 1.384 . S
N500 C496 1.427 . S
N500 C497 1.384 . S
N501 C493 1.427 . S
N501 C499 1.384 . S
H502 C508 0.930 . S
H503 C512 0.930 . S
H504 C517 0.929 . S
H505 C515 0.929 . S
H506 C510 0.929 . S
H507 C516 0.929 . S
C508 H502 0.930 . S
C508 C509 1.367 . S
C508 C516 1.378 . S
C509 C508 1.367 . S
C509 C517 1.433 . S
C510 H506 0.929 . S
C510 C512 1.378 . S
C510 C514 1.350 . S
C511 C514 1.463 . S
C511 C516 1.350 . S
C511 N519 1.427 . S
C512 H503 0.930 . S
C512 C510 1.378 . S
C512 C513 1.367 . S
C513 C512 1.367 . S
C513 C515 1.433 . S
C514 C510 1.350 . S
C514 C511 1.463 . S
C514 N518 1.427 . S
C515 H505 0.929 . S
C515 C513 1.433 . S
C515 N518 1.384 . S
C516 H507 0.929 . S
C516 C508 1.378 . S
C516 C511 1.350 . S
C517 H504 0.929 . S
C517 C509 1.433 . S
C517 N519 1.384 . S
N518 C514 1.427 . S
N518 C515 1.384 . S
N519 C511 1.427 . S
N519 C517 1.384 . S
H520 C526 0.930 . S
H521 C530 0.930 . S
H522 C535 0.929 . S
H523 C533 0.929 . S
H524 C528 0.929 . S
H525 C534 0.929 . S
C526 H520 0.930 . S
C526 C527 1.367 . S
C526 C534 1.378 . S
C527 C526 1.367 . S
C527 C535 1.433 . S
C528 H524 0.929 . S
C528 C530 1.378 . S
C528 C532 1.350 . S
C529 C532 1.463 . S
C529 C534 1.350 . S
C529 N537 1.427 . S
C530 H521 0.930 . S
C530 C528 1.378 . S
C530 C531 1.367 . S
C531 C530 1.367 . S
C531 C533 1.433 . S
C532 C528 1.350 . S
C532 C529 1.463 . S
C532 N536 1.427 . S
C533 H523 0.929 . S
C533 C531 1.433 . S
C533 N536 1.384 . S
C534 H525 0.929 . S
C534 C526 1.378 . S
C534 C529 1.350 . S
C535 H522 0.929 . S
C535 C527 1.433 . S
C535 N537 1.384 . S
N536 C532 1.427 . S
N536 C533 1.384 . S
N537 C529 1.427 . S
N537 C535 1.384 . S
H538 C544 0.930 . S
H539 C548 0.930 . S
H540 C553 0.929 . S
H541 C551 0.929 . S
H542 C546 0.929 . S
H543 C552 0.929 . S
C544 H538 0.930 . S
C544 C545 1.367 . S
C544 C552 1.378 . S
C545 C544 1.367 . S
C545 C553 1.433 . S
C546 H542 0.929 . S
C546 C548 1.378 . S
C546 C550 1.350 . S
C547 C550 1.463 . S
C547 C552 1.350 . S
C547 N555 1.427 . S
C548 H539 0.930 . S
C548 C546 1.378 . S
C548 C549 1.367 . S
C549 C548 1.367 . S
C549 C551 1.433 . S
C550 C546 1.350 . S
C550 C547 1.463 . S
C550 N554 1.427 . S
C551 H541 0.929 . S
C551 C549 1.433 . S
C551 N554 1.384 . S
C552 H543 0.929 . S
C552 C544 1.378 . S
C552 C547 1.350 . S
C553 H540 0.929 . S
C553 C545 1.433 . S
C553 N555 1.384 . S
N554 C550 1.427 . S
N554 C551 1.384 . S
N555 C547 1.427 . S
N555 C553 1.384 . S
H556 C562 0.930 . S
H557 C566 0.930 . S
H558 C571 0.929 . S
H559 C569 0.929 . S
H560 C564 0.929 . S
H561 C570 0.929 . S
C562 H556 0.930 . S
C562 C563 1.367 . S
C562 C570 1.378 . S
C563 C562 1.367 . S
C563 C571 1.433 . S
C564 H560 0.929 . S
C564 C566 1.378 . S
C564 C568 1.350 . S
C565 C568 1.463 . S
C565 C570 1.350 . S
C565 N573 1.427 . S
C566 H557 0.930 . S
C566 C564 1.378 . S
C566 C567 1.367 . S
C567 C566 1.367 . S
C567 C569 1.433 . S
C568 C564 1.350 . S
C568 C565 1.463 . S
C568 N572 1.427 . S
C569 H559 0.929 . S
C569 C567 1.433 . S
C569 N572 1.384 . S
C570 H561 0.929 . S
C570 C562 1.378 . S
C570 C565 1.350 . S
C571 H558 0.929 . S
C571 C563 1.433 . S
C571 N573 1.384 . S
N572 C568 1.427 . S
N572 C569 1.384 . S
N573 C565 1.427 . S
N573 C571 1.384 . S
H574 C580 0.930 . S
H575 C584 0.930 . S
H576 C589 0.929 . S
H577 C587 0.929 . S
H578 C582 0.929 . S
H579 C588 0.929 . S
C580 H574 0.930 . S
C580 C581 1.367 . S
C580 C588 1.378 . S
C581 C580 1.367 . S
C581 C589 1.433 . S
C582 H578 0.929 . S
C582 C584 1.378 . S
C582 C586 1.350 . S
C583 C586 1.463 . S
C583 C588 1.350 . S
C583 N591 1.427 . S
C584 H575 0.930 . S
C584 C582 1.378 . S
C584 C585 1.367 . S
C585 C584 1.367 . S
C585 C587 1.433 . S
C586 C582 1.350 . S
C586 C583 1.463 . S
C586 N590 1.427 . S
C587 H577 0.929 . S
C587 C585 1.433 . S
C587 N590 1.384 . S
C588 H579 0.929 . S
C588 C580 1.378 . S
C588 C583 1.350 . S
C589 H576 0.929 . S
C589 C581 1.433 . S
C589 N591 1.384 . S
N590 C586 1.427 . S
N590 C587 1.384 . S
N591 C583 1.427 . S
N591 C589 1.384 . S
H592 C598 0.930 . S
H593 C602 0.930 . S
H594 C607 0.929 . S
H595 C605 0.929 . S
H596 C600 0.929 . S
H597 C606 0.929 . S
C598 H592 0.930 . S
C598 C599 1.367 . S
C598 C606 1.378 . S
C599 C598 1.367 . S
C599 C607 1.433 . S
C600 H596 0.929 . S
C600 C602 1.378 . S
C600 C604 1.350 . S
C601 C604 1.463 . S
C601 C606 1.350 . S
C601 N609 1.427 . S
C602 H593 0.930 . S
C602 C600 1.378 . S
C602 C603 1.367 . S
C603 C602 1.367 . S
C603 C605 1.433 . S
C604 C600 1.350 . S
C604 C601 1.463 . S
C604 N608 1.427 . S
C605 H595 0.929 . S
C605 C603 1.433 . S
C605 N608 1.384 . S
C606 H597 0.929 . S
C606 C598 1.378 . S
C606 C601 1.350 . S
C607 H594 0.929 . S
C607 C599 1.433 . S
C607 N609 1.384 . S
N608 C604 1.427 . S
N608 C605 1.384 . S
N609 C601 1.427 . S
N609 C607 1.384 . S
H610 C616 0.930 . S
H611 C620 0.930 . S
H612 C625 0.929 . S
H613 C623 0.929 . S
H614 C618 0.929 . S
H615 C624 0.929 . S
C616 H610 0.930 . S
C616 C617 1.367 . S
C616 C624 1.378 . S
C617 C616 1.367 . S
C617 C625 1.433 . S
C618 H614 0.929 . S
C618 C620 1.378 . S
C618 C622 1.350 . S
C619 C622 1.463 . S
C619 C624 1.350 . S
C619 N627 1.427 . S
C620 H611 0.930 . S
C620 C618 1.378 . S
C620 C621 1.367 . S
C621 C620 1.367 . S
C621 C623 1.433 . S
C622 C618 1.350 . S
C622 C619 1.463 . S
C622 N626 1.427 . S
C623 H613 0.929 . S
C623 C621 1.433 . S
C623 N626 1.384 . S
C624 H615 0.929 . S
C624 C616 1.378 . S
C624 C619 1.350 . S
C625 H612 0.929 . S
C625 C617 1.433 . S
C625 N627 1.384 . S
N626 C622 1.427 . S
N626 C623 1.384 . S
N627 C619 1.427 . S
N627 C625 1.384 . S
H628 C634 0.930 . S
H629 C638 0.930 . S
H630 C643 0.929 . S
H631 C641 0.929 . S
H632 C636 0.929 . S
H633 C642 0.929 . S
C634 H628 0.930 . S
C634 C635 1.367 . S
C634 C642 1.378 . S
C635 C634 1.367 . S
C635 C643 1.433 . S
C636 H632 0.929 . S
C636 C638 1.378 . S
C636 C640 1.350 . S
C637 C640 1.463 . S
C637 C642 1.350 . S
C637 N645 1.427 . S
C638 H629 0.930 . S
C638 C636 1.378 . S
C638 C639 1.367 . S
C639 C638 1.367 . S
C639 C641 1.433 . S
C640 C636 1.350 . S
C640 C637 1.463 . S
C640 N644 1.427 . S
C641 H631 0.929 . S
C641 C639 1.433 . S
C641 N644 1.384 . S
C642 H633 0.929 . S
C642 C634 1.378 . S
C642 C637 1.350 . S
C643 H630 0.929 . S
C643 C635 1.433 . S
C643 N645 1.384 . S
N644 C640 1.427 . S
N644 C641 1.384 . S
N645 C637 1.427 . S
N645 C643 1.384 . S
H646 C652 0.930 . S
H647 C656 0.930 . S
H648 C661 0.929 . S
H649 C659 0.929 . S
H650 C654 0.929 . S
H651 C660 0.929 . S
C652 H646 0.930 . S
C652 C653 1.367 . S
C652 C660 1.378 . S
C653 C652 1.367 . S
C653 C661 1.433 . S
C654 H650 0.929 . S
C654 C656 1.378 . S
C654 C658 1.350 . S
C655 C658 1.463 . S
C655 C660 1.350 . S
C655 N663 1.427 . S
C656 H647 0.930 . S
C656 C654 1.378 . S
C656 C657 1.367 . S
C657 C656 1.367 . S
C657 C659 1.433 . S
C658 C654 1.350 . S
C658 C655 1.463 . S
C658 N662 1.427 . S
C659 H649 0.929 . S
C659 C657 1.433 . S
C659 N662 1.384 . S
C660 H651 0.929 . S
C660 C652 1.378 . S
C660 C655 1.350 . S
C661 H648 0.929 . S
C661 C653 1.433 . S
C661 N663 1.384 . S
N662 C658 1.427 . S
N662 C659 1.384 . S
N663 C655 1.427 . S
N663 C661 1.384 . S
C239 C5 0.989 . S
C243 C78 0.995 . S
C257 C14 0.894 . S
C261 C127 0.895 . S
C279 C162 2.503 . S
C275 C25 2.562 . S
C293 C34 2.472 . S
C297 C201 2.418 . S
C315 C122 2.007 . S
C311 C7 1.926 . S
C333 C81 0.747 . S
C329 C13 0.730 . S
C351 C211 1.916 . S
C347 C23 1.971 . S
C369 C170 1.702 . S
C365 C31 1.730 . S
C383 C4 1.389 . S
C387 C198 1.427 . S
C405 C130 2.341 . S
C401 C22 2.427 . S
C419 C32 2.371 . S
C423 C91 2.349 . S
C437 C16 0.830 . S
C441 C167 0.843 . S
C459 C87 0.993 . S
C455 C41 0.985 . S
C473 C50 0.916 . S
C477 C118 0.916 . S
C491 C61 2.554 . S
C495 C171 2.497 . S
C509 C67 2.482 . S
C513 C210 2.428 . S
C527 C40 1.945 . S
C531 C131 2.027 . S
C549 C90 0.721 . S
C545 C52 0.698 . S
C567 C202 1.916 . S
C563 C59 1.979 . S
C585 C161 1.692 . S
C581 C70 1.727 . S
C599 C43 1.391 . S
C603 C207 1.423 . S
C621 C121 2.342 . S
C617 C58 2.438 . S
C639 C82 2.335 . S
C635 C68 2.349 . S
C653 C49 0.847 . S
C657 C158 0.855 . S
