# Generated by pormake.
# Topology nom, (4,4)-cn, num edge types: 1
# Building blocks:
#     Node 0, Type 0, BuildingBlock: AZAVOO_clean_linker_0, # of connection points: 4
#     Node 1, Type 0, BuildingBlock: AZAVOO_clean_linker_0, # of connection points: 4
#     Node 2, Type 0, BuildingBlock: AZAVOO_clean_linker_0, # of connection points: 4
#     Node 3, Type 0, BuildingBlock: AZAVOO_clean_linker_0, # of connection points: 4
#     Node 4, Type 0, BuildingBlock: AZAVOO_clean_linker_0, # of connection points: 4
#     Node 5, Type 0, BuildingBlock: AZAVOO_clean_linker_0, # of connection points: 4
#     Node 6, Type 1, BuildingBlock: KUFVIS_clean_sbu_0, # of connection points: 4
#     Node 7, Type 1, BuildingBlock: KUFVIS_clean_sbu_0, # of connection points: 4
#     Node 8, Type 1, BuildingBlock: KUFVIS_clean_sbu_0, # of connection points: 4
#     Node 9, Type 1, BuildingBlock: KUFVIS_clean_sbu_0, # of connection points: 4
#     Node 10, Type 1, BuildingBlock: KUFVIS_clean_sbu_0, # of connection points: 4
#     Node 11, Type 1, BuildingBlock: KUFVIS_clean_sbu_0, # of connection points: 4
#     Edge 12, Type (0, 1), BuildingBlock: UVAHIK_clean_linker_0, # of connection points: 2
#     Edge 13, Type (0, 1), BuildingBlock: UVAHIK_clean_linker_0, # of connection points: 2
#     Edge 14, Type (0, 1), BuildingBlock: UVAHIK_clean_linker_0, # of connection points: 2
#     Edge 15, Type (0, 1), BuildingBlock: UVAHIK_clean_linker_0, # of connection points: 2
#     Edge 16, Type (0, 1), BuildingBlock: UVAHIK_clean_linker_0, # of connection points: 2
#     Edge 17, Type (0, 1), BuildingBlock: UVAHIK_clean_linker_0, # of connection points: 2
#     Edge 18, Type (0, 1), BuildingBlock: UVAHIK_clean_linker_0, # of connection points: 2
#     Edge 19, Type (0, 1), BuildingBlock: UVAHIK_clean_linker_0, # of connection points: 2
#     Edge 20, Type (0, 1), BuildingBlock: UVAHIK_clean_linker_0, # of connection points: 2
#     Edge 21, Type (0, 1), BuildingBlock: UVAHIK_clean_linker_0, # of connection points: 2
#     Edge 22, Type (0, 1), BuildingBlock: UVAHIK_clean_linker_0, # of connection points: 2
#     Edge 23, Type (0, 1), BuildingBlock: UVAHIK_clean_linker_0, # of connection points: 2
#     Edge 24, Type (0, 1), BuildingBlock: UVAHIK_clean_linker_0, # of connection points: 2
#     Edge 25, Type (0, 1), BuildingBlock: UVAHIK_clean_linker_0, # of connection points: 2
#     Edge 26, Type (0, 1), BuildingBlock: UVAHIK_clean_linker_0, # of connection points: 2
#     Edge 27, Type (0, 1), BuildingBlock: UVAHIK_clean_linker_0, # of connection points: 2
#     Edge 28, Type (0, 1), BuildingBlock: UVAHIK_clean_linker_0, # of connection points: 2
#     Edge 29, Type (0, 1), BuildingBlock: UVAHIK_clean_linker_0, # of connection points: 2
#     Edge 30, Type (0, 1), BuildingBlock: UVAHIK_clean_linker_0, # of connection points: 2
#     Edge 31, Type (0, 1), BuildingBlock: UVAHIK_clean_linker_0, # of connection points: 2
#     Edge 32, Type (0, 1), BuildingBlock: UVAHIK_clean_linker_0, # of connection points: 2
#     Edge 33, Type (0, 1), BuildingBlock: UVAHIK_clean_linker_0, # of connection points: 2
#     Edge 34, Type (0, 1), BuildingBlock: UVAHIK_clean_linker_0, # of connection points: 2
#     Edge 35, Type (0, 1), BuildingBlock: UVAHIK_clean_linker_0, # of connection points: 2
# Relax obj value: 0.135
# Max RMSD: 0.224
# Mean RMSD: 0.145
data_MOF--net-nom--node1-KUFVIS_clean_sbu_0--node2-AZAVOO_clean_linker_0--edge1-UVAHIK_clean_linker_0
_symmetry_space_group_name_H-M    P1
_symmetry_Int_Tables_number       1
_symmetry_cell_setting            triclinic
loop_
_symmetry_equiv_pos_as_xyz
'x, y, z'
_cell_length_a     59.278308
_cell_length_b     61.672718
_cell_length_c     74.974655
_cell_angle_alpha  90.65826
_cell_angle_beta   90.587183
_cell_angle_gamma 121.33742
loop_
_atom_site_label
_atom_site_type_symbol
_atom_site_fract_x
_atom_site_fract_y
_atom_site_fract_z
_atom_type_partial_charge
H0 H 0.07281 0.49009 0.20392 0.0
H1 H 0.18162 0.61869 0.38782 0.0
H2 H -0.00048 0.46231 0.28959 0.0
H3 H 0.96952 0.44446 0.26363 0.0
H4 H 0.96659 0.51285 0.26067 0.0
H5 H 0.99625 0.5304 0.28692 0.0
H6 H 0.06344 0.4899 0.28153 0.0
H7 H 0.06966 0.48485 0.24985 0.0
H8 H 0.04867 0.54042 0.237 0.0
H9 H 0.04293 0.54555 0.26873 0.0
H10 H 0.10903 0.52231 0.31351 0.0
H11 H 0.15421 0.5458 0.30207 0.0
H12 H 0.13667 0.59763 0.27604 0.0
H13 H 0.092 0.57447 0.28769 0.0
H14 H 0.08208 0.51224 0.35084 0.0
H15 H 0.11806 0.53318 0.37299 0.0
H16 H 0.13736 0.60632 0.35308 0.0
H17 H 0.10101 0.58512 0.33119 0.0
H18 H 0.02378 0.48563 0.35621 0.0
H19 H 0.03061 0.48979 0.38867 0.0
H20 H 0.05623 0.56924 0.38607 0.0
H21 H 0.04962 0.56501 0.35362 0.0
H22 H 0.97355 0.46532 0.32175 0.0
H23 H 0.92904 0.45458 0.32992 0.0
H24 H 0.95942 0.53344 0.34379 0.0
H25 H 0.00322 0.54409 0.33454 0.0
O26 O 0.07043 0.49251 0.21637 0.0
O27 O 0.05928 0.52103 0.21048 0.0
O28 O 0.1564 0.57184 0.389 0.0
O29 O 0.16742 0.60991 0.37908 0.0
C30 C 0.02236 0.51026 0.30296 0.0
C31 C 0.04826 0.52046 0.29659 0.0
C32 C 0.07013 0.53316 0.30844 0.0
C33 C 0.06605 0.53444 0.32681 0.0
C34 C 0.04012 0.52422 0.33319 0.0
C35 C 0.01827 0.51276 0.32121 0.0
C36 C -0.0001 0.49756 0.29009 0.0
C37 C 0.99166 0.47305 0.28369 0.0
C38 C 0.97464 0.46294 0.26888 0.0
C39 C 0.96599 0.47742 0.26014 0.0
C40 C 0.97316 0.50143 0.26716 0.0
C41 C 0.98984 0.51135 0.28218 0.0
C42 C 0.05252 0.51791 0.27737 0.0
C43 C 0.06028 0.50101 0.27184 0.0
C44 C 0.06377 0.49814 0.25374 0.0
C45 C 0.05956 0.51216 0.24088 0.0
C46 C 0.05199 0.52927 0.24654 0.0
C47 C 0.04861 0.53217 0.26464 0.0
C48 C 0.09726 0.54665 0.30135 0.0
C49 C 0.11503 0.53874 0.30533 0.0
C50 C 0.14073 0.55212 0.29881 0.0
C51 C 0.14881 0.57336 0.28804 0.0
C52 C 0.13083 0.58105 0.28402 0.0
C53 C 0.10537 0.56791 0.2907 0.0
C54 C 0.08897 0.54718 0.33944 0.0
C55 C 0.09416 0.53278 0.35127 0.0
C56 C 0.11471 0.54479 0.3639 0.0
C57 C 0.13058 0.57145 0.36482 0.0
C58 C 0.12553 0.58578 0.35274 0.0
C59 C 0.10486 0.57374 0.34018 0.0
C60 C 0.03632 0.52504 0.35263 0.0
C61 C 0.02983 0.50366 0.36274 0.0
C62 C 0.03391 0.5061 0.38121 0.0
C63 C 0.04417 0.52988 0.38977 0.0
C64 C 0.04813 0.55068 0.37979 0.0
C65 C 0.04435 0.54829 0.3613 0.0
C66 C 0.99161 0.50551 0.32747 0.0
C67 C 0.97049 0.48023 0.3265 0.0
C68 C 0.94512 0.47412 0.33133 0.0
C69 C 0.94053 0.49317 0.33738 0.0
C70 C 0.96202 0.51834 0.33882 0.0
C71 C 0.9872 0.52445 0.33377 0.0
C72 C 0.06306 0.50892 0.22166 0.0
C73 C 0.15222 0.58431 0.37837 0.0
H74 H 0.53273 0.08246 0.38 0.0
H75 H 0.48588 0.16034 0.56337 0.0
H76 H 0.50345 0.00967 0.46541 0.0
H77 H 0.49875 0.98189 0.44023 0.0
H78 H 0.41605 0.95706 0.43515 0.0
H79 H 0.4209 0.98478 0.46057 0.0
H80 H 0.52627 0.06856 0.45725 0.0
H81 H 0.53696 0.07799 0.42576 0.0
H82 H 0.45372 0.04223 0.41264 0.0
H83 H 0.44337 0.03319 0.4442 0.0
H84 H 0.53295 0.10286 0.4912 0.0
H85 H 0.55345 0.14673 0.48129 0.0
H86 H 0.48054 0.12788 0.45421 0.0
H87 H 0.46032 0.08398 0.46408 0.0
H88 H 0.51645 0.0793 0.52786 0.0
H89 H 0.52516 0.11228 0.55006 0.0
H90 H 0.45975 0.11658 0.52835 0.0
H91 H 0.45103 0.08331 0.50638 0.0
H92 H 0.49547 0.02336 0.5309 0.0
H93 H 0.49635 0.02608 0.56337 0.0
H94 H 0.42793 0.0339 0.56161 0.0
H95 H 0.42797 0.03211 0.52899 0.0
H96 H 0.48177 0.98328 0.49739 0.0
H97 H 0.46055 0.93935 0.50745 0.0
H98 H 0.38957 0.94007 0.5186 0.0
H99 H 0.41083 0.98383 0.50837 0.0
O100 O 0.52807 0.07864 0.3924 0.0
O101 O 0.48504 0.05992 0.38636 0.0
O102 O 0.51614 0.14413 0.56549 0.0
O103 O 0.48293 0.14732 0.55469 0.0
C104 C 0.46664 0.01903 0.47786 0.0
C105 C 0.47764 0.04423 0.47204 0.0
C106 C 0.48291 0.06379 0.48439 0.0
C107 C 0.47719 0.05819 0.50256 0.0
C108 C 0.46595 0.03292 0.50835 0.0
C109 C 0.46046 0.01326 0.49599 0.0
C110 C 0.46249 0.99908 0.46479 0.0
C111 C 0.48419 0.99771 0.45915 0.0
C112 C 0.48147 0.98187 0.4448 0.0
C113 C 0.45707 0.96745 0.43573 0.0
C114 C 0.4351 0.96812 0.44187 0.0
C115 C 0.43776 0.98373 0.45641 0.0
C116 C 0.48407 0.05018 0.45295 0.0
C117 C 0.51041 0.06288 0.44754 0.0
C118 C 0.51644 0.06819 0.42955 0.0
C119 C 0.49619 0.06083 0.41667 0.0
C120 C 0.46979 0.04814 0.4222 0.0
C121 C 0.46381 0.04291 0.4402 0.0
C122 C 0.49518 0.09034 0.47837 0.0
C123 C 0.52143 0.10829 0.48317 0.0
C124 C 0.53305 0.13331 0.47756 0.0
C125 C 0.5186 0.14078 0.46699 0.0
C126 C 0.49228 0.12265 0.46215 0.0
C127 C 0.48067 0.09763 0.46782 0.0
C128 C 0.48304 0.07886 0.5156 0.0
C129 C 0.504 0.08736 0.52796 0.0
C130 C 0.50895 0.10622 0.5406 0.0
C131 C 0.4931 0.11704 0.54101 0.0
C132 C 0.4723 0.10864 0.52843 0.0
C133 C 0.46731 0.0897 0.51584 0.0
C134 C 0.46182 0.02777 0.52766 0.0
C135 C 0.48019 0.02485 0.53757 0.0
C136 C 0.48059 0.02637 0.55617 0.0
C137 C 0.46243 0.03061 0.56515 0.0
C138 C 0.44255 0.03119 0.55512 0.0
C139 C 0.44234 0.02991 0.53651 0.0
C140 C 0.44777 0.98666 0.50203 0.0
C141 C 0.46157 0.97384 0.50186 0.0
C142 C 0.44945 0.9488 0.50762 0.0
C143 C 0.42341 0.93629 0.51383 0.0
C144 C 0.40975 0.9493 0.51409 0.0
C145 C 0.4218 0.97423 0.50819 0.0
C146 C 0.50265 0.06639 0.39756 0.0
C147 C 0.49817 0.13697 0.55448 0.0
H148 H 0.59399 0.5296 0.75765 0.0
H149 H 0.56444 0.42892 0.56717 0.0
H150 H 0.56837 0.5805 0.6745 0.0
H151 H 0.56254 0.60027 0.70107 0.0
H152 H 0.47939 0.54252 0.70061 0.0
H153 H 0.48538 0.52347 0.67362 0.0
H154 H 0.59085 0.54228 0.68063 0.0
H155 H 0.60019 0.54094 0.71235 0.0
H156 H 0.51631 0.49609 0.72196 0.0
H157 H 0.50729 0.49732 0.69019 0.0
H158 H 0.59616 0.51144 0.64705 0.0
H159 H 0.6087 0.48149 0.65765 0.0
H160 H 0.53081 0.4346 0.67921 0.0
H161 H 0.51838 0.46425 0.66841 0.0
H162 H 0.5872 0.53369 0.61068 0.0
H163 H 0.59946 0.51353 0.58759 0.0
H164 H 0.53305 0.44022 0.60151 0.0
H165 H 0.52076 0.46069 0.62436 0.0
H166 H 0.5639 0.57027 0.61071 0.0
H167 H 0.57029 0.57614 0.57852 0.0
H168 H 0.50919 0.49768 0.5692 0.0
H169 H 0.50275 0.49203 0.6014 0.0
H170 H 0.53783 0.58655 0.64383 0.0
H171 H 0.5077 0.60175 0.63768 0.0
H172 H 0.44888 0.52689 0.61773 0.0
H173 H 0.47839 0.51167 0.62483 0.0
O174 O 0.58986 0.52972 0.74515 0.0
O175 O 0.54654 0.50679 0.74938 0.0
O176 O 0.59366 0.47558 0.5694 0.0
O177 O 0.56003 0.4374 0.57622 0.0
C178 C 0.53219 0.53617 0.65859 0.0
C179 C 0.54292 0.52144 0.66396 0.0
C180 C 0.54851 0.50808 0.65111 0.0
C181 C 0.54533 0.51109 0.6328 0.0
C182 C 0.5345 0.52583 0.62747 0.0
C183 C 0.52674 0.53737 0.64039 0.0
C184 C 0.5273 0.55057 0.67228 0.0
C185 C 0.54878 0.57261 0.67989 0.0
C186 C 0.54544 0.58368 0.69514 0.0
C187 C 0.5206 0.5727 0.70312 0.0
C188 C 0.49875 0.55155 0.69472 0.0
C189 C 0.50209 0.5406 0.67935 0.0
C190 C 0.54842 0.52005 0.68317 0.0
C191 C 0.57454 0.53211 0.68962 0.0
C192 C 0.5798 0.53135 0.70773 0.0
C193 C 0.55899 0.51849 0.71971 0.0
C194 C 0.5328 0.50624 0.71312 0.0
C195 C 0.52758 0.50696 0.695 0.0
C196 C 0.55639 0.49002 0.65702 0.0
C197 C 0.58181 0.49459 0.65395 0.0
C198 C 0.58891 0.47753 0.66 0.0
C199 C 0.57078 0.45587 0.66938 0.0
C200 C 0.54532 0.45134 0.67228 0.0
C201 C 0.53817 0.46819 0.66608 0.0
C202 C 0.55312 0.49865 0.61917 0.0
C203 C 0.57533 0.51329 0.6087 0.0
C204 C 0.58229 0.50172 0.59554 0.0
C205 C 0.56723 0.47524 0.59271 0.0
C206 C 0.54507 0.46063 0.60334 0.0
C207 C 0.53806 0.47225 0.61643 0.0
C208 C 0.53317 0.53064 0.60831 0.0
C209 C 0.55125 0.55462 0.60167 0.0
C210 C 0.55494 0.55792 0.58334 0.0
C211 C 0.54045 0.53729 0.57145 0.0
C212 C 0.5205 0.51394 0.57807 0.0
C213 C 0.5169 0.51063 0.59643 0.0
C214 C 0.5102 0.54791 0.63499 0.0
C215 C 0.51841 0.57348 0.63817 0.0
C216 C 0.50125 0.58217 0.63449 0.0
C217 C 0.47569 0.56545 0.62745 0.0
C218 C 0.46812 0.54015 0.62357 0.0
C219 C 0.48511 0.53147 0.62741 0.0
C220 C 0.56464 0.51791 0.73897 0.0
C221 C 0.57452 0.46285 0.57873 0.0
H222 H 0.04835 0.47656 0.94046 0.0
H223 H 0.17948 0.5339 0.758 0.0
H224 H 0.99001 0.47969 0.85176 0.0
H225 H 0.9578 0.46072 0.87543 0.0
H226 H 0.94458 0.38684 0.86105 0.0
H227 H 0.97726 0.40623 0.83745 0.0
H228 H 0.05033 0.50409 0.86581 0.0
H229 H 0.0524 0.50009 0.89815 0.0
H230 H 0.02546 0.42051 0.89082 0.0
H231 H 0.0238 0.42489 0.8585 0.0
H232 H 0.09591 0.52884 0.83789 0.0
H233 H 0.14056 0.54444 0.8497 0.0
H234 H 0.12279 0.4671 0.85267 0.0
H235 H 0.07808 0.45179 0.84128 0.0
H236 H 0.07737 0.53008 0.79794 0.0
H237 H 0.11672 0.55262 0.77965 0.0
H238 H 0.12865 0.48936 0.78371 0.0
H239 H 0.08901 0.46687 0.80174 0.0
H240 H 0.02042 0.50509 0.78672 0.0
H241 H 0.03083 0.51917 0.75587 0.0
H242 H 0.05109 0.46221 0.74588 0.0
H243 H 0.04007 0.448 0.77653 0.0
H244 H 0.9739 0.4759 0.80888 0.0
H245 H 0.9291 0.45226 0.79587 0.0
H246 H 0.93821 0.388 0.78588 0.0
H247 H 0.98312 0.41219 0.7982 0.0
O248 O 0.04765 0.47779 0.92762 0.0
O249 O 0.03363 0.43695 0.92312 0.0
O250 O 0.15663 0.55729 0.76332 0.0
O251 O 0.16388 0.52544 0.76523 0.0
C252 C 0.00975 0.45682 0.8319 0.0
C253 C 0.03477 0.46713 0.84033 0.0
C254 C 0.05782 0.47988 0.83019 0.0
C255 C 0.05598 0.48292 0.81173 0.0
C256 C 0.03092 0.47231 0.80325 0.0
C257 C 0.00781 0.45897 0.81331 0.0
C258 C 0.98585 0.4443 0.84293 0.0
C259 C 0.9795 0.4593 0.85336 0.0
C260 C 0.96109 0.4484 0.86687 0.0
C261 C 0.94879 0.42228 0.8702 0.0
C262 C 0.95397 0.40704 0.85892 0.0
C263 C 0.97235 0.418 0.84533 0.0
C264 C 0.03682 0.46476 0.85987 0.0
C265 C 0.04504 0.48586 0.87124 0.0
C266 C 0.04613 0.4835 0.88969 0.0
C267 C 0.03902 0.45996 0.89708 0.0
C268 C 0.03102 0.4389 0.88558 0.0
C269 C 0.03002 0.44132 0.86713 0.0
C270 C 0.08394 0.48926 0.83874 0.0
C271 C 0.10166 0.51535 0.84132 0.0
C272 C 0.12713 0.52417 0.84794 0.0
C273 C 0.13526 0.507 0.852 0.0
C274 C 0.11706 0.4808 0.84989 0.0
C275 C 0.09158 0.47201 0.84333 0.0
C276 C 0.08038 0.49687 0.80113 0.0
C277 C 0.08852 0.52114 0.79484 0.0
C278 C 0.111 0.53397 0.78442 0.0
C279 C 0.12584 0.52278 0.78021 0.0
C280 C 0.11769 0.49852 0.78669 0.0
C281 C 0.09512 0.48566 0.79704 0.0
C282 C 0.02953 0.47556 0.78381 0.0
C283 C 0.02607 0.49502 0.77763 0.0
C284 C 0.03238 0.50325 0.76009 0.0
C285 C 0.0422 0.49208 0.74851 0.0
C286 C 0.04342 0.47112 0.75438 0.0
C287 C 0.03709 0.46291 0.77189 0.0
C288 C 0.98161 0.4457 0.80435 0.0
C289 C 0.96622 0.45685 0.8036 0.0
C290 C 0.94061 0.44323 0.79631 0.0
C291 C 0.92998 0.41818 0.78983 0.0
C292 C 0.94584 0.40737 0.7904 0.0
C293 C 0.97145 0.42107 0.79753 0.0
C294 C 0.03991 0.45744 0.9167 0.0
C295 C 0.14968 0.53629 0.76908 0.0
H296 H 0.40802 0.96784 0.87067 0.0
H297 H 0.42663 0.84448 0.04061 0.0
H298 H 0.44658 0.02759 0.95765 0.0
H299 H 0.46357 0.05916 0.93409 0.0
H300 H 0.54143 0.07089 0.94251 0.0
H301 H 0.52429 0.03938 0.96596 0.0
H302 H 0.41072 0.96577 0.94864 0.0
H303 H 0.40162 0.96342 0.91653 0.0
H304 H 0.48475 0.99589 0.90649 0.0
H305 H 0.49348 0.9977 0.93858 0.0
H306 H 0.40003 0.91862 0.97683 0.0
H307 H 0.38488 0.87711 0.96237 0.0
H308 H 0.46069 0.90826 0.93741 0.0
H309 H 0.47583 0.94907 0.95218 0.0
H310 H 0.41444 0.94223 0.01764 0.0
H311 H 0.39997 0.90433 0.03546 0.0
H312 H 0.45906 0.89334 0.01084 0.0
H313 H 0.47352 0.93144 0.99328 0.0
H314 H 0.44751 -0.00041 0.02974 0.0
H315 H 0.45297 0.99574 0.06182 0.0
H316 H 0.50862 0.97232 0.0504 0.0
H317 H 0.50331 0.97659 0.01852 0.0
H318 H 0.47112 0.04876 -0.00023 0.0
H319 H 0.50345 0.09059 0.01276 0.0
H320 H 0.56056 0.06723 0.01706 0.0
H321 H 0.52823 0.02574 0.00436 0.0
O322 O 0.41203 0.96881 0.8833 0.0
O323 O 0.45504 0.98602 0.8789 0.0
O324 O 0.40183 0.86597 0.04593 0.0
O325 O 0.43187 0.85946 0.03366 0.0
C326 C 0.47284 0.00788 0.97425 0.0
C327 C 0.45817 0.98389 0.96549 0.0
C328 C 0.44951 0.96147 0.97516 0.0
C329 C 0.45412 0.96293 0.99378 0.0
C330 C 0.46874 0.98688 0.00252 0.0
C331 C 0.47862 0.00935 0.9927 0.0
C332 C 0.48419 0.03118 0.96347 0.0
C333 C 0.46746 0.0376 0.95477 0.0
C334 C 0.47715 0.05544 0.94124 0.0
C335 C 0.50376 0.06725 0.93631 0.0
C336 C 0.5209 0.06229 0.94609 0.0
C337 C 0.51116 0.04434 0.95954 0.0
C338 C 0.45277 0.98217 0.94594 0.0
C339 C 0.42691 0.9723 0.93947 0.0
C340 C 0.42179 0.97103 0.92113 0.0
C341 C 0.44248 0.97958 0.90894 0.0
C342 C 0.46837 0.98924 0.9155 0.0
C343 C 0.47343 0.9904 0.93383 0.0
C344 C 0.43895 0.93689 0.96543 0.0
C345 C 0.4132 0.91645 0.9681 0.0
C346 C 0.4046 0.89286 0.95986 0.0
C347 C 0.42154 0.88963 0.94864 0.0
C348 C 0.44704 0.91035 0.94569 0.0
C349 C 0.45571 0.93366 0.95412 0.0
C350 C 0.44487 0.93944 0.0041 0.0
C351 C 0.42416 0.93155 0.0161 0.0
C352 C 0.41596 0.90992 0.02625 0.0
C353 C 0.42834 0.89578 0.02455 0.0
C354 C 0.44907 0.90375 0.01245 0.0
C355 C 0.4573 0.92544 0.00235 0.0
C356 C 0.47487 0.98818 0.02187 0.0
C357 C 0.46127 0.99415 0.03425 0.0
C358 C 0.4643 0.9918 0.05251 0.0
C359 C 0.48111 0.98358 0.05863 0.0
C360 C 0.49576 0.97896 0.04616 0.0
C361 C 0.49264 0.98122 0.02794 0.0
C362 C 0.4973 0.03421 0.00133 0.0
C363 C 0.49056 0.05272 0.00371 0.0
C364 C 0.50905 0.07656 0.01103 0.0
C365 C 0.5345 0.08215 0.01606 0.0
C366 C 0.54097 0.06338 0.01372 0.0
C367 C 0.52257 0.03968 0.00642 0.0
C368 C 0.43701 0.97837 0.88948 0.0
C369 C 0.4198 0.87286 0.03538 0.0
H370 H 0.60456 0.57186 0.03061 0.0
H371 H 0.62671 0.48448 0.22851 0.0
H372 H 0.54316 0.58113 0.12744 0.0
H373 H 0.53536 0.60321 0.10369 0.0
H374 H 0.6197 0.65391 0.09865 0.0
H375 H 0.62723 0.63113 0.12228 0.0
H376 H 0.56387 0.55509 0.10302 0.0
H377 H 0.57317 0.55839 0.07114 0.0
H378 H 0.65678 0.59608 0.08356 0.0
H379 H 0.64719 0.59292 0.11544 0.0
H380 H 0.57883 0.51703 0.11741 0.0
H381 H 0.59578 0.49082 0.10606 0.0
H382 H 0.66628 0.53426 0.1388 0.0
H383 H 0.64947 0.56065 0.14982 0.0
H384 H 0.56755 0.5021 0.15871 0.0
H385 H 0.57212 0.47323 0.17849 0.0
H386 H 0.63531 0.53777 0.20743 0.0
H387 H 0.63084 0.56637 0.18737 0.0
H388 H 0.54215 0.5276 0.18035 0.0
H389 H 0.5348 0.51542 0.21166 0.0
H390 H 0.60258 0.58818 0.22711 0.0
H391 H 0.60997 0.60016 0.1957 0.0
H392 H 0.53508 0.57356 0.16862 0.0
H393 H 0.52184 0.60254 0.1803 0.0
H394 H 0.60101 0.66602 0.17246 0.0
H395 H 0.61414 0.63688 0.16133 0.0
O396 O 0.60135 0.57064 0.04328 0.0
O397 O 0.6441 0.58964 0.05035 0.0
O398 O 0.5926 0.46286 0.20475 0.0
O399 O 0.62468 0.49542 0.22036 0.0
C400 C 0.59001 0.5878 0.13819 0.0
C401 C 0.59907 0.57254 0.13083 0.0
C402 C 0.60237 0.55596 0.14183 0.0
C403 C 0.59551 0.55383 0.15997 0.0
C404 C 0.58546 0.56842 0.16711 0.0
C405 C 0.58355 0.58601 0.15639 0.0
C406 C 0.58571 0.60444 0.12641 0.0
C407 C 0.55991 0.59743 0.12152 0.0
C408 C 0.55553 0.61017 0.10798 0.0
C409 C 0.57694 0.63023 0.09917 0.0
C410 C 0.60282 0.63829 0.10499 0.0
C411 C 0.60717 0.62545 0.11852 0.0
C412 C 0.60486 0.57382 0.11151 0.0
C413 C 0.58418 0.56407 0.09881 0.0
C414 C 0.58955 0.56596 0.08062 0.0
C415 C 0.61572 0.57754 0.07479 0.0
C416 C 0.6364 0.58707 0.08759 0.0
C417 C 0.63099 0.58523 0.1058 0.0
C418 C 0.61295 0.5407 0.13443 0.0
C419 C 0.59806 0.52104 0.12195 0.0
C420 C 0.60772 0.50613 0.1155 0.0
C421 C 0.63224 0.51048 0.12165 0.0
C422 C 0.64718 0.53034 0.13403 0.0
C423 C 0.63767 0.54543 0.14028 0.0
C424 C 0.59884 0.5363 0.17163 0.0
C425 C 0.5825 0.50993 0.16924 0.0
C426 C 0.58509 0.49351 0.1806 0.0
C427 C 0.60405 0.50321 0.19458 0.0
C428 C 0.62049 0.52966 0.19683 0.0
C429 C 0.61796 0.54604 0.18541 0.0
C430 C 0.57675 0.5646 0.18583 0.0
C431 C 0.55481 0.54125 0.19056 0.0
C432 C 0.5507 0.5343 0.20838 0.0
C433 C 0.56833 0.55076 0.22169 0.0
C434 C 0.58864 0.57523 0.21708 0.0
C435 C 0.59288 0.5821 0.19919 0.0
C436 C 0.57557 0.60316 0.16419 0.0
C437 C 0.54957 0.5937 0.16964 0.0
C438 C 0.54202 0.61029 0.17616 0.0
C439 C 0.56038 0.63659 0.1773 0.0
C440 C 0.58649 0.64587 0.172 0.0
C441 C 0.594 0.62929 0.16553 0.0
C442 C 0.62136 0.57968 0.05544 0.0
C443 C 0.60669 0.48587 0.20682 0.0
Mn444 Mn 0.64221 0.44125 0.40675 0.0
Mn445 Mn 0.68306 0.50479 0.41231 0.0
C446 C 0.62993 0.46336 0.42499 0.0
C447 C 0.62944 0.39987 0.41391 0.0
C448 C 0.6467 0.48062 0.38022 0.0
O449 O 0.67679 0.44754 0.39692 0.0
O450 O 0.70272 0.48957 0.40214 0.0
C451 C 0.71723 0.50344 0.44079 0.0
N452 N 0.70109 0.5115 0.43482 0.0
C453 C 0.70757 0.53524 0.46204 0.0
C454 C 0.72442 0.52735 0.46845 0.0
C455 C 0.72919 0.51131 0.4578 0.0
C456 C 0.69617 0.52674 0.44502 0.0
H457 H 0.72094 0.49111 0.43264 0.0
C458 C 0.69901 0.46826 0.39651 0.0
O459 O 0.62394 0.40531 0.39841 0.0
O460 O 0.64271 0.41859 0.4252 0.0
N461 N 0.66753 0.52276 0.42201 0.0
C462 C 0.65028 0.52815 0.41404 0.0
C463 C 0.64314 0.54373 0.42303 0.0
C464 C 0.65415 0.554 0.43996 0.0
C465 C 0.67228 0.54863 0.44773 0.0
C466 C 0.67871 0.53303 0.43811 0.0
H467 H 0.64191 0.52049 0.40096 0.0
O468 O 0.61249 0.44098 0.41877 0.0
O469 O 0.65453 0.47187 0.42108 0.0
O470 O 0.63636 0.45765 0.38505 0.0
O471 O 0.6648 0.49964 0.38913 0.0
C472 C 0.68392 0.55781 0.46476 0.0
C473 C 0.70144 0.55102 0.47195 0.0
H474 H 0.73368 0.53337 0.48155 0.0
H475 H 0.74208 0.50504 0.46267 0.0
H476 H 0.62919 0.54784 0.41692 0.0
H477 H 0.64849 0.56591 0.44688 0.0
H478 H 0.67931 0.56988 0.47253 0.0
H479 H 0.71001 0.55795 0.48514 0.0
Mn480 Mn 0.2386 0.63197 0.56859 0.0
Mn481 Mn 0.21263 0.56947 0.55959 0.0
C482 C 0.20419 0.61127 0.54815 0.0
C483 C 0.27014 0.67436 0.56345 0.0
C484 C 0.19901 0.58911 0.59241 0.0
O485 O 0.26653 0.62565 0.5787 0.0
O486 O 0.24774 0.58414 0.57173 0.0
C487 C 0.25155 0.57474 0.5329 0.0
N488 N 0.22602 0.56562 0.53748 0.0
C489 C 0.20998 0.54433 0.50899 0.0
C490 C 0.2361 0.55334 0.504 0.0
C491 C 0.25697 0.56871 0.51598 0.0
C492 C 0.20581 0.55103 0.526 0.0
H493 H 0.26764 0.58651 0.54209 0.0
C494 C 0.26657 0.60502 0.5785 0.0
O495 O 0.25788 0.66737 0.57849 0.0
O496 O 0.26434 0.65669 0.55157 0.0
N497 N 0.17879 0.55226 0.54779 0.0
C498 C 0.15487 0.54616 0.55433 0.0
C499 C 0.13195 0.53138 0.54381 0.0
C500 C 0.13381 0.52266 0.52682 0.0
C501 C 0.15861 0.52887 0.52047 0.0
C502 C 0.18076 0.54369 0.53155 0.0
H503 H 0.1533 0.55265 0.56744 0.0
O504 O 0.20934 0.63241 0.55574 0.0
O505 O 0.21978 0.60302 0.55238 0.0
O506 O 0.2139 0.61274 0.58924 0.0
O507 O 0.19728 0.57154 0.58224 0.0
C508 C 0.16228 0.52129 0.50348 0.0
C509 C 0.18796 0.52915 0.4977 0.0
H510 H 0.24036 0.54873 0.49096 0.0
H511 H 0.27718 0.57584 0.5122 0.0
H512 H 0.11289 0.52666 0.5488 0.0
H513 H 0.11609 0.51132 0.51873 0.0
H514 H 0.14553 0.50965 0.49467 0.0
H515 H 0.19055 0.52353 0.48451 0.0
Mn516 Mn 0.6034 0.2168 0.73727 0.0
Mn517 Mn 0.62623 0.17711 0.73254 0.0
C518 C 0.57931 0.17984 0.72058 0.0
C519 C 0.60309 0.2527 0.7285 0.0
C520 C 0.60076 0.18141 0.76628 0.0
O521 O 0.64181 0.23833 0.74523 0.0
O522 O 0.65625 0.21187 0.73871 0.0
C523 C 0.65859 0.19889 0.70044 0.0
N524 N 0.63864 0.17867 0.7089 0.0
C525 C 0.6303 0.15117 0.68347 0.0
C526 C 0.65089 0.17166 0.67453 0.0
C527 C 0.66503 0.19563 0.68304 0.0
C528 C 0.62482 0.15555 0.7008 0.0
H529 H 0.66945 0.21736 0.70692 0.0
C530 C 0.66016 0.23346 0.74392 0.0
O531 O 0.59695 0.24413 0.74457 0.0
O532 O 0.60947 0.24041 0.71752 0.0
N533 N 0.5994 0.14293 0.72634 0.0
C534 C 0.57906 0.12557 0.73635 0.0
C535 C 0.56236 0.10083 0.7295 0.0
C536 C 0.5669 0.09413 0.71253 0.0
C537 C 0.58811 0.11224 0.70256 0.0
C538 C 0.60412 0.13658 0.71009 0.0
H539 H 0.5755 0.13059 0.74942 0.0
O540 O 0.56802 0.19151 0.72682 0.0
O541 O 0.60449 0.19048 0.72395 0.0
O542 O 0.59466 0.19699 0.76031 0.0
O543 O 0.61334 0.17351 0.75723 0.0
C544 C 0.59373 0.10722 0.68532 0.0
C545 C 0.61473 0.12669 0.67574 0.0
H546 H 0.65586 0.16925 0.66109 0.0
H547 H 0.68085 0.21157 0.6762 0.0
H548 H 0.54602 0.08697 0.73728 0.0
H549 H 0.55387 0.07508 0.70724 0.0
H550 H 0.58176 0.08853 0.67919 0.0
H551 H 0.61854 0.12271 0.66237 0.0
Mn552 Mn 0.4579 0.64921 0.90517 0.0
Mn553 Mn 0.4474 0.59239 0.9171 0.0
C554 C 0.48342 0.64709 0.92754 0.0
C555 C 0.44595 0.67945 0.90753 0.0
C556 C 0.47355 0.61842 0.88263 0.0
O557 O 0.42206 0.62381 0.89433 0.0
O558 O 0.41377 0.58746 0.90704 0.0
C559 C 0.40995 0.57997 0.94654 0.0
N560 N 0.43352 0.58421 0.94059 0.0
C561 C 0.44521 0.57635 0.9696 0.0
C562 C 0.42099 0.57175 0.97602 0.0
C563 C 0.40332 0.57363 0.96444 0.0
C564 C 0.4507 0.58253 0.95162 0.0
H565 H 0.39634 0.58147 0.9377 0.0
C566 C 0.40675 0.60036 0.89771 0.0
O567 O 0.45738 0.67763 0.89338 0.0
O568 O 0.44173 0.66386 0.92032 0.0
N569 N 0.47851 0.59502 0.92728 0.0
C570 C 0.50164 0.60143 0.91925 0.0
C571 C 0.52181 0.60133 0.92917 0.0
C572 C 0.51797 0.59455 0.94719 0.0
C573 C 0.49395 0.5879 0.95514 0.0
C574 C 0.47451 0.58821 0.94457 0.0
H575 H 0.50472 0.60663 0.9054 0.0
O576 O 0.4916 0.66833 0.9194 0.0
O577 O 0.46054 0.62815 0.92241 0.0
O578 O 0.47565 0.6396 0.88629 0.0
O579 O 0.46216 0.59922 0.89278 0.0
C580 C 0.48869 0.58134 0.9732 0.0
C581 C 0.46431 0.57551 0.98042 0.0
H582 H 0.41586 0.56697 0.98984 0.0
H583 H 0.38465 0.57022 0.96932 0.0
H584 H 0.54031 0.60652 0.92295 0.0
H585 H 0.53365 0.59468 0.95483 0.0
H586 H 0.50337 0.58101 0.98172 0.0
H587 H 0.4606 0.57075 0.99437 0.0
Mn588 Mn 0.79988 0.37349 0.06945 0.0
Mn589 Mn 0.8255 0.33729 0.07893 0.0
C590 C 0.83426 0.38793 0.08984 0.0
C591 C 0.76873 0.38485 0.07419 0.0
C592 C 0.83513 0.36569 0.04432 0.0
O593 O 0.77177 0.33847 0.06036 0.0
O594 O 0.78846 0.31494 0.06992 0.0
C595 C 0.79205 0.3081 0.1091 0.0
N596 N 0.8164 0.32435 0.1025 0.0
C597 C 0.83736 0.32715 0.1308 0.0
C598 C 0.81252 0.31029 0.13787 0.0
C599 C 0.78977 0.30075 0.12697 0.0
C600 C 0.83844 0.33355 0.11284 0.0
H601 H 0.77448 0.30087 0.10082 0.0
C602 C 0.77007 0.31719 0.06267 0.0
O603 O 0.7805 0.38873 0.05903 0.0
O604 O 0.77485 0.37409 0.08653 0.0
N605 N 0.86099 0.35698 0.0881 0.0
C606 C 0.88316 0.37461 0.07966 0.0
C607 C 0.90749 0.38689 0.08897 0.0
C608 C 0.90878 0.38093 0.10683 0.0
C609 C 0.88571 0.36269 0.11523 0.0
C610 C 0.86206 0.35089 0.10523 0.0
H611 H 0.88227 0.37941 0.06598 0.0
O612 O 0.82976 0.40391 0.08184 0.0
O613 O 0.8186 0.36414 0.08549 0.0
O614 O 0.82315 0.37705 0.04865 0.0
O615 O 0.83661 0.34991 0.05442 0.0
C616 C 0.88515 0.3562 0.13324 0.0
C617 C 0.861 0.33841 0.14102 0.0
H618 H 0.81065 0.30479 0.15169 0.0
H619 H 0.77051 0.28786 0.13235 0.0
H620 H 0.9252 0.40103 0.08243 0.0
H621 H 0.92754 0.39065 0.11403 0.0
H622 H 0.90312 0.36507 0.14132 0.0
H623 H 0.86077 0.33388 0.15495 0.0
Mn624 Mn 0.44024 0.81925 0.24555 0.0
Mn625 Mn 0.50353 0.86308 0.25629 0.0
C626 C 0.44919 0.84749 0.26871 0.0
C627 C 0.40379 0.77839 0.2476 0.0
C628 C 0.47432 0.86683 0.22412 0.0
O629 O 0.46114 0.80615 0.23316 0.0
O630 O 0.50236 0.83396 0.24345 0.0
C631 C 0.51483 0.83394 0.28221 0.0
N632 N 0.51349 0.85476 0.27831 0.0
C633 C 0.52798 0.87201 0.30803 0.0
C634 C 0.52971 0.85084 0.31233 0.0
C635 C 0.52307 0.83171 0.29937 0.0
C636 C 0.51986 0.87329 0.29067 0.0
H637 H 0.5096 0.81911 0.27233 0.0
C638 C 0.48562 0.81378 0.2347 0.0
O639 O 0.40703 0.7923 0.23388 0.0
O640 O 0.42192 0.78814 0.26008 0.0
N641 N 0.50732 0.89193 0.26901 0.0
C642 C 0.50301 0.9103 0.26307 0.0
C643 C 0.5078 0.9304 0.27463 0.0
C644 C 0.51708 0.93148 0.29212 0.0
C645 C 0.52161 0.9125 0.29788 0.0
C646 C 0.51669 0.89303 0.28573 0.0
H647 H 0.49579 0.90953 0.24966 0.0
O648 O 0.42605 0.83575 0.26095 0.0
O649 O 0.46625 0.84198 0.26285 0.0
O650 O 0.45204 0.84721 0.2274 0.0
O651 O 0.49515 0.87388 0.23359 0.0
C652 C 0.53024 0.91182 0.31534 0.0
C653 C 0.53342 0.89159 0.32041 0.0
H654 H 0.53586 0.84896 0.32558 0.0
H655 H 0.5242 0.81525 0.30261 0.0
H656 H 0.50421 0.94495 0.27009 0.0
H657 H 0.52046 0.94686 0.30106 0.0
H658 H 0.5341 0.92656 0.32504 0.0
H659 H 0.5397 0.89109 0.33393 0.0
C660 C 0.19779 0.59598 0.29315 0.0
C661 C 0.17614 0.58827 0.28147 0.0
C662 C 0.22347 0.61285 0.28752 0.0
C663 C 0.25748 0.66337 0.2551 0.0
H664 H 0.31974 0.66277 0.27066 0.0
C665 C 0.36088 0.74262 0.23541 0.0
C666 C 0.37983 0.75302 0.24932 0.0
C667 C 0.33712 0.7197 0.2376 0.0
C668 C 0.30252 0.66321 0.26627 0.0
H669 H 0.1644 0.59056 0.25443 0.0
H670 H 0.20921 0.61976 0.24451 0.0
H671 H 0.27585 0.62704 0.27757 0.0
H672 H 0.38927 0.74707 0.27616 0.0
H673 H 0.34758 0.70724 0.2801 0.0
H674 H 0.28391 0.69969 0.24422 0.0
C675 C 0.20636 0.61331 0.25814 0.0
C676 C 0.27742 0.64277 0.27022 0.0
C677 C 0.18073 0.59658 0.26379 0.0
C678 C 0.37501 0.73954 0.2652 0.0
C679 C 0.35119 0.71663 0.26742 0.0
C680 C 0.28249 0.68374 0.25117 0.0
C681 C 0.22795 0.62222 0.27008 0.0
C682 C 0.25463 0.64276 0.26481 0.0
C683 C 0.33176 0.70673 0.25377 0.0
C684 C 0.30531 0.68404 0.25686 0.0
H685 H 0.19478 0.59 0.3069 0.0
H686 H 0.23965 0.61952 0.29709 0.0
H687 H 0.24038 0.66424 0.25106 0.0
H688 H 0.36414 0.75245 0.22294 0.0
H689 H 0.32274 0.71234 0.22671 0.0
C690 C 0.52672 0.17274 0.44361 0.0
C691 C 0.53093 0.16741 0.46108 0.0
C692 C 0.53825 0.19782 0.43809 0.0
C693 C 0.5923 0.26323 0.44917 0.0
H694 H 0.55049 0.28229 0.42078 0.0
C695 C 0.62526 0.36767 0.43579 0.0
C696 C 0.62017 0.37339 0.41868 0.0
C697 C 0.61534 0.34249 0.44055 0.0
C698 C 0.56255 0.27721 0.42851 0.0
H699 H 0.55027 0.18423 0.48653 0.0
H700 H 0.57037 0.228 0.47691 0.0
H701 H 0.53118 0.23841 0.42988 0.0
H702 H 0.60122 0.35725 0.39301 0.0
H703 H 0.58416 0.31335 0.40126 0.0
H704 H 0.62363 0.3021 0.44787 0.0
C705 C 0.5585 0.21278 0.46739 0.0
C706 C 0.55148 0.25207 0.43372 0.0
C707 C 0.54697 0.18771 0.4729 0.0
C708 C 0.60539 0.35346 0.40633 0.0
C709 C 0.59547 0.32829 0.41109 0.0
C710 C 0.60339 0.2884 0.44394 0.0
C711 C 0.55424 0.21813 0.44993 0.0
C712 C 0.5662 0.24479 0.44415 0.0
C713 C 0.60012 0.3225 0.4283 0.0
C714 C 0.58861 0.29568 0.43359 0.0
H715 H 0.51478 0.15751 0.43411 0.0
H716 H 0.53489 0.20131 0.42448 0.0
H717 H 0.60429 0.25815 0.45698 0.0
H718 H 0.63655 0.38262 0.44562 0.0
H719 H 0.61905 0.33864 0.45398 0.0
C720 C 0.46443 0.59792 0.61797 0.0
C721 C 0.45648 0.57381 0.62468 0.0
C722 C 0.4459 0.60515 0.61495 0.0
C723 C 0.37693 0.58701 0.62572 0.0
H724 H 0.38083 0.62185 0.58207 0.0
C725 C 0.28706 0.58227 0.59194 0.0
C726 C 0.28971 0.60504 0.5861 0.0
C727 C 0.30895 0.58184 0.59847 0.0
C728 C 0.37972 0.61244 0.59443 0.0
H729 H 0.42292 0.53885 0.63413 0.0
H730 H 0.39072 0.5509 0.62821 0.0
H731 H 0.41662 0.61493 0.59012 0.0
H732 H 0.31741 0.64525 0.58254 0.0
H733 H 0.35596 0.6443 0.59362 0.0
H734 H 0.33937 0.58343 0.62949 0.0
C735 C 0.41125 0.56449 0.62551 0.0
C736 C 0.40024 0.60853 0.59909 0.0
C737 C 0.42971 0.55737 0.62862 0.0
C738 C 0.31474 0.62745 0.58704 0.0
C739 C 0.33679 0.6269 0.59328 0.0
C740 C 0.35631 0.59063 0.62093 0.0
C741 C 0.41902 0.58843 0.61858 0.0
C742 C 0.39881 0.59525 0.6146 0.0
C743 C 0.33405 0.60407 0.59904 0.0
C744 C 0.35727 0.60293 0.60508 0.0
H745 H 0.48487 0.61102 0.61472 0.0
H746 H 0.45265 0.62383 0.60977 0.0
H747 H 0.37545 0.57731 0.63799 0.0
H748 H 0.26804 0.56471 0.59144 0.0
H749 H 0.30635 0.56394 0.60267 0.0
C750 C 0.89514 0.38536 0.769 0.0
C751 C 0.90212 0.40282 0.78327 0.0
C752 C 0.8687 0.36921 0.76393 0.0
C753 C 0.80137 0.3415 0.7818 0.0
H754 H 0.78033 0.31831 0.73278 0.0
C755 C 0.69251 0.27535 0.7585 0.0
C756 C 0.68756 0.25403 0.74823 0.0
C757 C 0.71841 0.29486 0.76241 0.0
C758 C 0.786 0.32461 0.74653 0.0
H759 H 0.88663 0.41748 0.80301 0.0
H760 H 0.84068 0.39017 0.79363 0.0
H761 H 0.82603 0.35112 0.73978 0.0
H762 H 0.70595 0.23665 0.73386 0.0
H763 H 0.75116 0.27093 0.74052 0.0
H764 H 0.76112 0.31511 0.78841 0.0
C765 C 0.85561 0.38846 0.78666 0.0
C766 C 0.81217 0.34332 0.75057 0.0
C767 C 0.88205 0.40444 0.79187 0.0
C768 C 0.70907 0.25274 0.74187 0.0
C769 C 0.73494 0.27243 0.74556 0.0
C770 C 0.77513 0.32304 0.77771 0.0
C771 C 0.84854 0.37029 0.77285 0.0
C772 C 0.82029 0.35176 0.76831 0.0
C773 C 0.73984 0.29362 0.7559 0.0
C774 C 0.7673 0.31418 0.76007 0.0
H775 H 0.91009 0.38388 0.76187 0.0
H776 H 0.86408 0.35532 0.75336 0.0
H777 H 0.80693 0.34714 0.79565 0.0
H778 H 0.67638 0.27691 0.76362 0.0
H779 H 0.72171 0.31108 0.77036 0.0
C780 C 0.40396 0.8433 0.95206 0.0
C781 C 0.41386 0.86445 0.94101 0.0
C782 C 0.4016 0.82078 0.94576 0.0
C783 C 0.43347 0.80107 0.91339 0.0
H784 H 0.38103 0.73318 0.92799 0.0
C785 C 0.44223 0.71494 0.89505 0.0
C786 C 0.43798 0.6984 0.90908 0.0
C787 C 0.4353 0.73331 0.8968 0.0
C788 C 0.39585 0.75205 0.92385 0.0
H789 H 0.42686 0.8781 0.91435 0.0
H790 H 0.42236 0.83866 0.90324 0.0
H791 H 0.3746 0.76849 0.93459 0.0
H792 H 0.42262 0.68772 0.93576 0.0
H793 H 0.41097 0.72002 0.93891 0.0
H794 H 0.45513 0.78493 0.90316 0.0
C795 C 0.41704 0.83962 0.91688 0.0
C796 C 0.39214 0.77223 0.92761 0.0
C797 C 0.41952 0.86213 0.9232 0.0
C798 C 0.42618 0.70023 0.92472 0.0
C799 C 0.41928 0.71859 0.92647 0.0
C800 C 0.43716 0.78094 0.90965 0.0
C801 C 0.40901 0.81903 0.92829 0.0
C802 C 0.41113 0.79703 0.92265 0.0
C803 C 0.42401 0.73551 0.9126 0.0
C804 C 0.41863 0.75629 0.9151 0.0
H805 H 0.39969 0.84468 0.9659 0.0
H806 H 0.39556 0.80535 0.95493 0.0
H807 H 0.44875 0.82 0.9097 0.0
H808 H 0.4511 0.71385 0.88278 0.0
H809 H 0.43891 0.74589 0.8858 0.0
C810 C 0.6521 0.48415 0.1278 0.0
C811 C 0.64212 0.49415 0.11544 0.0
C812 C 0.66207 0.46924 0.12201 0.0
C813 C 0.69313 0.45901 0.08401 0.0
H814 H 0.67688 0.39743 0.10824 0.0
C815 C 0.74119 0.40214 0.06349 0.0
C816 C 0.74995 0.39327 0.07751 0.0
C817 C 0.7247 0.41157 0.06685 0.0
C818 C 0.68178 0.41469 0.10142 0.0
H819 H 0.6345 0.49635 0.08739 0.0
H820 H 0.65228 0.47037 0.07719 0.0
H821 H 0.65423 0.41953 0.11659 0.0
H822 H 0.74798 0.38684 0.10597 0.0
H823 H 0.71988 0.40392 0.11194 0.0
H824 H 0.72143 0.4549 0.06933 0.0
C825 C 0.65228 0.47405 0.09136 0.0
C826 C 0.66874 0.42726 0.10616 0.0
C827 C 0.642 0.48875 0.09718 0.0
C828 C 0.74146 0.39346 0.09488 0.0
C829 C 0.72519 0.40311 0.09827 0.0
C830 C 0.70637 0.44659 0.07937 0.0
C831 C 0.66247 0.46424 0.10373 0.0
C832 C 0.67456 0.44972 0.09767 0.0
C833 C 0.71684 0.41254 0.08433 0.0
C834 C 0.70113 0.42448 0.08821 0.0
H835 H 0.65217 0.48786 0.14197 0.0
H836 H 0.67005 0.46211 0.13181 0.0
H837 H 0.69819 0.47646 0.07739 0.0
H838 H 0.74727 0.40202 0.04993 0.0
H839 H 0.71828 0.41828 0.05576 0.0
C840 C 0.3954 0.90228 0.53547 0.0
C841 C 0.41037 0.90966 0.51986 0.0
C842 C 0.38237 0.87703 0.54083 0.0
C843 C 0.35449 0.81229 0.52295 0.0
H844 H 0.35403 0.79466 0.57248 0.0
C845 C 0.30385 0.70802 0.54398 0.0
C846 C 0.28908 0.70136 0.55964 0.0
C847 C 0.32051 0.73351 0.53971 0.0
C848 C 0.35373 0.79927 0.55862 0.0
H849 H 0.42354 0.89638 0.49771 0.0
H850 H 0.40081 0.85224 0.5071 0.0
H851 H 0.37961 0.83912 0.56392 0.0
H852 H 0.28056 0.71617 0.58331 0.0
H853 H 0.3092 0.76067 0.57569 0.0
H854 H 0.3282 0.77267 0.51761 0.0
C855 C 0.3991 0.866 0.51514 0.0
C856 C 0.36844 0.82473 0.55372 0.0
C857 C 0.4123 0.8913 0.50986 0.0
C858 C 0.29176 0.72071 0.57116 0.0
C859 C 0.3083 0.74624 0.56683 0.0
C860 C 0.33967 0.78688 0.52784 0.0
C861 C 0.38386 0.85857 0.53063 0.0
C862 C 0.36892 0.83151 0.53584 0.0
C863 C 0.32265 0.75295 0.55093 0.0
C864 C 0.33904 0.78002 0.54575 0.0
H865 H 0.39377 0.91606 0.54354 0.0
H866 H 0.37062 0.87185 0.55274 0.0
H867 H 0.35412 0.81695 0.5091 0.0
H868 H 0.30238 0.69354 0.53489 0.0
H869 H 0.33166 0.73795 0.52755 0.0
C870 C 0.59069 0.42888 0.6652 0.0
C871 C 0.5781 0.43784 0.67619 0.0
C872 C 0.59558 0.41031 0.67127 0.0
C873 C 0.57163 0.35959 0.70451 0.0
H874 H 0.63479 0.35886 0.69277 0.0
C875 C 0.59398 0.28732 0.73473 0.0
C876 C 0.60252 0.27531 0.72292 0.0
C877 C 0.59259 0.30819 0.72931 0.0
C878 C 0.61697 0.35874 0.69603 0.0
H879 H 0.56211 0.43554 0.70244 0.0
H880 H 0.571 0.40352 0.71314 0.0
H881 H 0.62996 0.39392 0.68294 0.0
H882 H 0.61682 0.27606 0.69628 0.0
H883 H 0.61431 0.31252 0.6868 0.0
H884 H 0.55862 0.32449 0.7176 0.0
C885 C 0.57643 0.41022 0.69967 0.0
C886 C 0.61419 0.37879 0.69039 0.0
C887 C 0.57141 0.42861 0.69357 0.0
C888 C 0.61011 0.28489 0.70568 0.0
C889 C 0.60883 0.30586 0.70028 0.0
C890 C 0.57446 0.33966 0.7102 0.0
C891 C 0.58811 0.40047 0.68849 0.0
C892 C 0.59147 0.37945 0.69459 0.0
C893 C 0.59981 0.31756 0.71199 0.0
C894 C 0.59714 0.339 0.70603 0.0
H895 H 0.59589 0.43555 0.6517 0.0
H896 H 0.6044 0.40306 0.66226 0.0
H897 H 0.55362 0.35918 0.70764 0.0
H898 H 0.58811 0.28047 0.74813 0.0
H899 H 0.58589 0.31702 0.73871 0.0
C900 C 0.16883 0.5039 0.87069 0.0
C901 C 0.16296 0.51638 0.85752 0.0
C902 C 0.19504 0.51212 0.87521 0.0
C903 C 0.26224 0.56773 0.87368 0.0
H904 H 0.28436 0.51873 0.87722 0.0
C905 C 0.37162 0.60005 0.87885 0.0
C906 C 0.37897 0.58806 0.89147 0.0
C907 C 0.34512 0.59001 0.87429 0.0
C908 C 0.27842 0.5326 0.87647 0.0
H909 H 0.18 0.54711 0.83866 0.0
H910 H 0.22564 0.56167 0.84677 0.0
H911 H 0.23799 0.50406 0.87087 0.0
H912 H 0.36428 0.55555 0.90869 0.0
H913 H 0.31787 0.53822 0.9009 0.0
H914 H 0.30243 0.59626 0.8794 0.0
C915 C 0.20998 0.54569 0.85371 0.0
C916 C 0.25191 0.52421 0.87285 0.0
C917 C 0.18383 0.5374 0.84912 0.0
C918 C 0.35928 0.56523 0.8989 0.0
C919 C 0.33269 0.55526 0.8944 0.0
C920 C 0.28865 0.5761 0.87737 0.0
C921 C 0.21584 0.53307 0.86673 0.0
C922 C 0.24365 0.54173 0.87128 0.0
C923 C 0.32531 0.56786 0.88233 0.0
C924 C 0.2971 0.55867 0.87864 0.0
H925 H 0.15318 0.48783 0.87756 0.0
H926 H 0.19904 0.50225 0.88545 0.0
H927 H 0.25632 0.58161 0.87283 0.0
H928 H 0.3863 0.61749 0.87269 0.0
H929 H 0.34011 0.59983 0.86461 0.0
C930 C 0.55814 0.12971 0.01512 0.0
C931 C 0.55481 0.1077 0.02302 0.0
C932 C 0.57919 0.15366 0.02039 0.0
C933 C 0.6314 0.18739 0.05558 0.0
H934 H 0.66997 0.23328 0.01734 0.0
C935 C 0.73899 0.27014 0.06399 0.0
C936 C 0.74493 0.29382 0.05752 0.0
C937 C 0.71454 0.24834 0.06013 0.0
C938 C 0.65923 0.22077 0.02817 0.0
H939 H 0.56998 0.09364 0.04338 0.0
H940 H 0.60705 0.13515 0.05217 0.0
H941 H 0.62851 0.19381 0.0106 0.0
H942 H 0.72999 0.313 0.04155 0.0
H943 H 0.68743 0.27476 0.03462 0.0
H944 H 0.66272 0.21408 0.07302 0.0
C945 C 0.59334 0.13408 0.04203 0.0
C946 C 0.63541 0.19822 0.02435 0.0
C947 C 0.57226 0.11022 0.03683 0.0
C948 C 0.72606 0.29508 0.04677 0.0
C949 C 0.70171 0.2732 0.04275 0.0
C950 C 0.65534 0.20982 0.05936 0.0
C951 C 0.59738 0.15607 0.03364 0.0
C952 C 0.62138 0.18109 0.03798 0.0
C953 C 0.69562 0.24969 0.04956 0.0
C954 C 0.66963 0.22656 0.04566 0.0
H955 H 0.54511 0.1284 0.00438 0.0
H956 H 0.5815 0.17024 0.01385 0.0
H957 H 0.62087 0.17488 0.06645 0.0
H958 H 0.75301 0.26848 0.07234 0.0
H959 H 0.71045 0.23036 0.06535 0.0
C960 C 0.52803 0.65126 0.17789 0.0
C961 C 0.5523 0.65447 0.18352 0.0
C962 C 0.52098 0.66874 0.18308 0.0
C963 C 0.54975 0.73488 0.19892 0.0
H964 H 0.47832 0.71175 0.21365 0.0
C965 C 0.51979 0.80166 0.23129 0.0
C966 C 0.4947 0.79749 0.22688 0.0
C967 C 0.52729 0.78483 0.22524 0.0
C968 C 0.49826 0.71855 0.20933 0.0
H969 H 0.58782 0.67815 0.19946 0.0
H970 H 0.57552 0.70869 0.20849 0.0
H971 H 0.49014 0.68077 0.20499 0.0
H972 H 0.45827 0.77288 0.21198 0.0
H973 H 0.47156 0.74391 0.2012 0.0
H974 H 0.55787 0.77268 0.20322 0.0
C975 C 0.56216 0.69287 0.19982 0.0
C976 C 0.50503 0.70078 0.20441 0.0
C977 C 0.56918 0.67536 0.19466 0.0
C978 C 0.47766 0.77659 0.21578 0.0
C979 C 0.4852 0.75985 0.20968 0.0
C980 C 0.54296 0.75267 0.2038 0.0
C981 C 0.53806 0.68984 0.194 0.0
C982 C 0.53085 0.70874 0.19918 0.0
C983 C 0.50991 0.76352 0.21458 0.0
C984 C 0.51714 0.74471 0.20907 0.0
H985 H 0.51476 0.63558 0.16908 0.0
H986 H 0.50241 0.66605 0.17821 0.0
H987 H 0.56971 0.74161 0.1947 0.0
H988 H 0.53338 0.81749 0.23988 0.0
H989 H 0.54638 0.78809 0.22939 0.0
C990 C 0.90537 0.50426 0.33767 0.0
C991 C 0.91348 0.48714 0.34186 0.0
C992 C 0.88045 0.4993 0.34238 0.0
C993 C 0.82575 0.46095 0.37316 0.0
H994 H 0.78955 0.48521 0.34368 0.0
C995 C 0.72235 0.44528 0.38876 0.0
C996 C 0.72182 0.46782 0.38917 0.0
C997 C 0.74428 0.44518 0.38214 0.0
C998 C 0.79947 0.47833 0.35202 0.0
H999 H 0.9013 0.451 0.35403 0.0
H1000 H 0.85732 0.44182 0.36162 0.0
H1001 H 0.83 0.48858 0.33316 0.0
H1002 H 0.74363 0.50778 0.38267 0.0
H1003 H 0.78159 0.50741 0.37078 0.0
H1004 H 0.79477 0.45045 0.3919 0.0
C1005 C 0.87056 0.45944 0.35505 0.0
C1006 C 0.82272 0.48038 0.34607 0.0
C1007 C 0.89568 0.46455 0.35049 0.0
C1008 C 0.74348 0.49013 0.3826 0.0
C1009 C 0.76513 0.48991 0.3757 0.0
C1010 C 0.80223 0.45855 0.37898 0.0
C1011 C 0.8627 0.47687 0.35119 0.0
C1012 C 0.83653 0.47227 0.35674 0.0
C1013 C 0.76579 0.46749 0.37549 0.0
C1014 C 0.78921 0.46772 0.36862 0.0
H1015 H 0.9183 0.52162 0.33072 0.0
H1016 H 0.87537 0.5134 0.33941 0.0
H1017 H 0.83595 0.45478 0.38186 0.0
H1018 H 0.706 0.42781 0.3938 0.0
H1019 H 0.74436 0.42765 0.38208 0.0
C1020 C 0.07281 0.52662 0.41266 0.0
C1021 C 0.0547 0.53395 0.40825 0.0
C1022 C 0.08546 0.53287 0.42932 0.0
C1023 C 0.10295 0.57824 0.46731 0.0
H1024 H 0.12653 0.53607 0.48827 0.0
C1025 C 0.15977 0.59801 0.53548 0.0
C1026 C 0.18446 0.60031 0.53356 0.0
C1027 C 0.14144 0.58881 0.5213 0.0
C1028 C 0.11998 0.54793 0.48256 0.0
H1029 H 0.03504 0.55301 0.41784 0.0
H1030 H 0.0563 0.5631 0.44744 0.0
H1031 H 0.0971 0.52043 0.46221 0.0
H1032 H 0.21047 0.59728 0.51503 0.0
H1033 H 0.1779 0.58001 0.49039 0.0
H1034 H 0.12564 0.60546 0.48813 0.0
C1035 C 0.06127 0.55304 0.43786 0.0
C1036 C 0.10327 0.53913 0.46756 0.0
C1037 C 0.04891 0.54711 0.421 0.0
C1038 C 0.19105 0.59443 0.51704 0.0
C1039 C 0.17259 0.58484 0.50296 0.0
C1040 C 0.11927 0.5868 0.48257 0.0
C1041 C 0.08004 0.54635 0.44214 0.0
C1042 C 0.09509 0.55444 0.45941 0.0
C1043 C 0.14764 0.58188 0.50502 0.0
C1044 C 0.12837 0.57193 0.49003 0.0
H1045 H 0.07812 0.517 0.40289 0.0
H1046 H 0.10024 0.52794 0.43185 0.0
H1047 H 0.09741 0.59075 0.46134 0.0
H1048 H 0.15463 0.60315 0.548 0.0
H1049 H 0.12236 0.58686 0.52308 0.0
C1050 C 0.46346 0.05763 0.59073 0.0
C1051 C 0.4665 0.03772 0.58445 0.0
C1052 C 0.47128 0.0673 0.60809 0.0
C1053 C 0.52102 0.0776 0.64086 0.0
H1054 H 0.48512 0.10136 0.67099 0.0
C1055 C 0.53987 0.13859 0.71079 0.0
C1056 C 0.56519 0.15919 0.70734 0.0
C1057 C 0.52586 0.11979 0.69767 0.0
C1058 C 0.49525 0.09454 0.66286 0.0
H1059 H 0.47852 0.01127 0.59199 0.0
H1060 H 0.49283 0.02871 0.62224 0.0
H1061 H 0.46188 0.07387 0.64508 0.0
H1062 H 0.59502 0.17762 0.6873 0.0
H1063 H 0.5708 0.14473 0.66439 0.0
H1064 H 0.55472 0.09914 0.65808 0.0
C1065 C 0.48442 0.03678 0.61361 0.0
C1066 C 0.48201 0.07895 0.648 0.0
C1067 C 0.47631 0.02688 0.59629 0.0
C1068 C 0.57596 0.16129 0.69045 0.0
C1069 C 0.56207 0.14252 0.67737 0.0
C1070 C 0.53434 0.09342 0.65557 0.0
C1071 C 0.48257 0.05749 0.61951 0.0
C1072 C 0.49495 0.07074 0.63667 0.0
C1073 C 0.53687 0.12157 0.68083 0.0
C1074 C 0.52177 0.10246 0.66652 0.0
H1075 H 0.45651 0.06685 0.58194 0.0
H1076 H 0.46996 0.08351 0.61218 0.0
H1077 H 0.53159 0.0718 0.63225 0.0
H1078 H 0.53103 0.13699 0.72365 0.0
H1079 H 0.50645 0.1039 0.70068 0.0
C1080 C 0.49553 0.58241 0.72544 0.0
C1081 C 0.51807 0.5816 0.72103 0.0
C1082 C 0.49226 0.58851 0.74285 0.0
C1083 C 0.48279 0.58246 0.78279 0.0
H1084 H 0.54028 0.63671 0.81082 0.0
C1085 C 0.4761 0.59123 0.85862 0.0
C1086 C 0.48301 0.61543 0.86512 0.0
C1087 C 0.48214 0.58803 0.8412 0.0
C1088 C 0.52405 0.62155 0.80312 0.0
H1089 H 0.55491 0.58671 0.73143 0.0
H1090 H 0.54935 0.59772 0.76162 0.0
H1091 H 0.54686 0.63082 0.77939 0.0
H1092 H 0.50302 0.65544 0.85873 0.0
H1093 H 0.51359 0.64977 0.82839 0.0
H1094 H 0.45995 0.5732 0.80645 0.0
C1095 C 0.53438 0.59393 0.75159 0.0
C1096 C 0.52784 0.61811 0.7852 0.0
C1097 C 0.53758 0.5877 0.73426 0.0
C1098 C 0.49726 0.6365 0.85412 0.0
C1099 C 0.50343 0.63331 0.83676 0.0
C1100 C 0.47907 0.58578 0.80072 0.0
C1101 C 0.51152 0.59401 0.75613 0.0
C1102 C 0.50725 0.5985 0.77488 0.0
C1103 C 0.4954 0.60897 0.83 0.0
C1104 C 0.49968 0.6053 0.81108 0.0
H1105 H 0.48031 0.57808 0.71549 0.0
H1106 H 0.47458 0.58873 0.74596 0.0
H1107 H 0.46667 0.56701 0.77521 0.0
H1108 H 0.46522 0.57459 0.86673 0.0
H1109 H 0.47609 0.5691 0.8364 0.0
C1110 C 0.91569 0.41963 0.89203 0.0
C1111 C 0.93296 0.41178 0.88649 0.0
C1112 C 0.90374 0.41265 0.90863 0.0
C1113 C 0.88788 0.36856 0.94591 0.0
H1114 H 0.8919 0.4238 0.97386 0.0
C1115 C 0.86174 0.35971 0.02093 0.0
C1116 C 0.84717 0.37065 0.02645 0.0
C1117 C 0.87225 0.36397 0.0038 0.0
C1118 C 0.89033 0.40808 0.96618 0.0
H1119 H 0.95053 0.38975 0.8938 0.0
H1120 H 0.92943 0.37738 0.92271 0.0
H1121 H 0.90827 0.43134 0.94358 0.0
H1122 H 0.83224 0.39462 0.01817 0.0
H1123 H 0.85018 0.40168 0.98848 0.0
H1124 H 0.8698 0.34527 0.96858 0.0
C1125 C 0.925 0.38878 0.91415 0.0
C1126 C 0.89968 0.4124 0.94881 0.0
C1127 C 0.93702 0.3958 0.89755 0.0
C1128 C 0.84349 0.386 0.01448 0.0
C1129 C 0.8539 0.39017 0.99742 0.0
C1130 C 0.87839 0.36419 0.96332 0.0
C1131 C 0.90877 0.39766 0.92005 0.0
C1132 C 0.89843 0.39267 0.93843 0.0
C1133 C 0.86842 0.37925 0.99185 0.0
C1134 C 0.87937 0.38389 0.97361 0.0
H1135 H 0.9119 0.43166 0.88369 0.0
H1136 H 0.8909 0.41938 0.91268 0.0
H1137 H 0.88656 0.35297 0.93819 0.0
H1138 H 0.86501 0.34784 0.0298 0.0
H1139 H 0.88359 0.3555 -3e-05 0.0
C1140 C 0.50527 0.98331 0.0863 0.0
C1141 C 0.48152 0.9774 0.07766 0.0
C1142 C 0.50506 0.97441 0.10342 0.0
C1143 C 0.46138 0.92128 0.13153 0.0
H1144 H 0.51231 0.95953 0.16948 0.0
C1145 C 0.50039 0.90078 0.20182 0.0
C1146 C 0.47588 0.88211 0.20855 0.0
C1147 C 0.50153 0.91431 0.18665 0.0
C1148 C 0.49812 0.94854 0.15894 0.0
H1149 H 0.43903 0.95832 0.08045 0.0
H1150 H 0.43871 0.94312 0.11035 0.0
H1151 H 0.51352 0.98052 0.14168 0.0
H1152 H 0.43337 0.8639 0.20503 0.0
H1153 H 0.43539 0.88774 0.17897 0.0
H1154 H 0.44631 0.8892 0.14838 0.0
C1155 C 0.45747 0.95444 0.10384 0.0
C1156 C 0.49877 0.96058 0.14306 0.0
C1157 C 0.4577 0.9634 0.08679 0.0
C1158 C 0.45261 0.87785 0.20008 0.0
C1159 C 0.45375 0.89147 0.18506 0.0
C1160 C 0.46083 0.90925 0.14728 0.0
C1161 C 0.48106 0.95931 0.11215 0.0
C1162 C 0.48032 0.94707 0.12923 0.0
C1163 C 0.47819 0.90958 0.17796 0.0
C1164 C 0.4791 0.92271 0.16123 0.0
H1165 H 0.52396 0.99426 0.07964 0.0
H1166 H 0.52354 0.97841 0.10946 0.0
H1167 H 0.44728 0.9102 0.12096 0.0
H1168 H 0.5187 0.90457 0.20804 0.0
H1169 H 0.52068 0.92798 0.18146 0.0
C1170 C 0.57073 0.55484 0.25508 0.0
C1171 C 0.56848 0.54096 0.23952 0.0
C1172 C 0.57419 0.54675 0.27168 0.0
C1173 C 0.6016 0.53687 0.30192 0.0
H1174 H 0.57569 0.46602 0.31104 0.0
C1175 C 0.65141 0.50806 0.3546 0.0
C1176 C 0.63584 0.48584 0.3642 0.0
C1177 C 0.64054 0.51402 0.34027 0.0
C1178 C 0.58282 0.48589 0.30893 0.0
H1179 H 0.56804 0.50788 0.22896 0.0
H1180 H 0.57485 0.49421 0.25761 0.0
H1181 H 0.55863 0.47719 0.28549 0.0
H1182 H 0.59664 0.45254 0.36651 0.0
H1183 H 0.57737 0.46333 0.34191 0.0
H1184 H 0.62509 0.54554 0.3257 0.0
C1185 C 0.57296 0.51075 0.25731 0.0
C1186 C 0.57328 0.49233 0.29408 0.0
C1187 C 0.56912 0.51861 0.24083 0.0
C1188 C 0.60922 0.4696 0.35915 0.0
C1189 C 0.59819 0.47581 0.34503 0.0
C1190 C 0.61079 0.53041 0.31694 0.0
C1191 C 0.57597 0.52491 0.27294 0.0
C1192 C 0.58312 0.51792 0.2901 0.0
C1193 C 0.61369 0.49817 0.33545 0.0
C1194 C 0.60209 0.50487 0.32037 0.0
H1195 H 0.57029 0.57215 0.25435 0.0
H1196 H 0.576 0.5579 0.28347 0.0
H1197 H 0.60983 0.55679 0.29926 0.0
H1198 H 0.67203 0.52086 0.35818 0.0
H1199 H 0.6533 0.53104 0.33294 0.0
C1200 C 0.44395 0.95682 0.4036 0.0
C1201 C 0.45523 0.95346 0.41909 0.0
C1202 C 0.44415 0.94541 0.38746 0.0
C1203 C 0.44826 0.89298 0.36813 0.0
H1204 H 0.47197 0.93441 0.32594 0.0
C1205 C 0.46056 0.85405 0.30104 0.0
C1206 C 0.45288 0.86129 0.28558 0.0
C1207 C 0.46226 0.86583 0.31743 0.0
C1208 C 0.465 0.9225 0.33754 0.0
H1209 H 0.47497 0.93515 0.43003 0.0
H1210 H 0.47494 0.9148 0.40177 0.0
H1211 H 0.47125 0.95341 0.3545 0.0
H1212 H 0.43923 0.88503 0.27502 0.0
H1213 H 0.44176 0.90552 0.3037 0.0
H1214 H 0.4413 0.8619 0.35119 0.0
C1215 C 0.46608 0.92635 0.40214 0.0
C1216 C 0.46465 0.9334 0.35389 0.0
C1217 C 0.46618 0.93803 0.41825 0.0
C1218 C 0.44593 0.87975 0.28677 0.0
C1219 C 0.44754 0.89152 0.30316 0.0
C1220 C 0.44832 0.88199 0.35175 0.0
C1221 C 0.45537 0.93022 0.38655 0.0
C1222 C 0.45617 0.91871 0.36931 0.0
C1223 C 0.45571 0.88468 0.3187 0.0
C1224 C 0.45656 0.89659 0.33623 0.0
H1225 H 0.43567 0.96887 0.40384 0.0
H1226 H 0.43555 0.9485 0.37566 0.0
H1227 H 0.44143 0.88119 0.3798 0.0
H1228 H 0.46506 0.83913 0.30046 0.0
H1229 H 0.4688 0.86021 0.32907 0.0
C1230 C 0.57591 0.5475 0.54983 0.0
C1231 C 0.5492 0.53865 0.5529 0.0
C1232 C 0.58399 0.54461 0.53306 0.0
C1233 C 0.55663 0.50271 0.49335 0.0
H1234 H 0.62893 0.5444 0.47787 0.0
C1235 C 0.59949 0.47825 0.43242 0.0
C1236 C 0.62142 0.47643 0.4371 0.0
C1237 C 0.59006 0.48914 0.44433 0.0
C1238 C 0.60865 0.53274 0.48198 0.0
H1239 H 0.51024 0.52138 0.54068 0.0
H1240 H 0.5245 0.51715 0.511 0.0
H1241 H 0.613 0.55994 0.50174 0.0
H1242 H 0.64936 0.48236 0.45817 0.0
H1243 H 0.6334 0.50226 0.47894 0.0
H1244 H 0.55247 0.47563 0.47341 0.0
C1245 C 0.53911 0.52568 0.52169 0.0
C1246 C 0.5995 0.54151 0.4957 0.0
C1247 C 0.53094 0.52824 0.53862 0.0
C1248 C 0.63319 0.48469 0.45406 0.0
C1249 C 0.62399 0.49588 0.4659 0.0
C1250 C 0.56564 0.49423 0.47937 0.0
C1251 C 0.5656 0.53304 0.51887 0.0
C1252 C 0.57368 0.52617 0.50204 0.0
C1253 C 0.6024 0.49821 0.46109 0.0
C1254 C 0.59195 0.50881 0.47401 0.0
H1255 H 0.59033 0.55513 0.56069 0.0
H1256 H 0.60442 0.55005 0.53162 0.0
H1257 H 0.53676 0.49016 0.49796 0.0
H1258 H 0.58973 0.47131 0.41952 0.0
H1259 H 0.57319 0.49051 0.44047 0.0
C1260 C 0.0508 0.48885 0.71611 0.0
C1261 C 0.05398 0.50392 0.73124 0.0
C1262 C 0.06463 0.49998 0.70057 0.0
C1263 C 0.1252 0.5573 0.68583 0.0
H1264 H 0.09555 0.53096 0.63862 0.0
C1265 C 0.18407 0.59929 0.621 0.0
C1266 C 0.18206 0.5813 0.60835 0.0
C1267 C 0.16754 0.59157 0.63577 0.0
C1268 C 0.10413 0.53845 0.65173 0.0
H1269 H 0.0738 0.54258 0.74174 0.0
H1270 H 0.09729 0.562 0.71449 0.0
H1271 H 0.06743 0.5144 0.66457 0.0
H1272 H 0.16096 0.54104 0.60142 0.0
H1273 H 0.13249 0.52778 0.62706 0.0
H1274 H 0.16199 0.58114 0.67296 0.0
C1275 C 0.08438 0.54155 0.71471 0.0
C1276 C 0.08803 0.52894 0.6666 0.0
C1277 C 0.07058 0.53043 0.73025 0.0
C1278 C 0.16316 0.55549 0.61084 0.0
C1279 C 0.14661 0.54784 0.62549 0.0
C1280 C 0.14129 0.56687 0.67094 0.0
C1281 C 0.08196 0.52643 0.6998 0.0
C1282 C 0.09847 0.53797 0.68385 0.0
C1283 C 0.14854 0.56576 0.6381 0.0
C1284 C 0.13103 0.55724 0.65376 0.0
H1285 H 0.03805 0.46839 0.71642 0.0
H1286 H 0.06246 0.48772 0.68939 0.0
H1287 H 0.13399 0.56444 0.69894 0.0
H1288 H 0.19836 0.61932 0.6195 0.0
H1289 H 0.1694 0.60582 0.64525 0.0
C1290 C 0.53796 0.10441 0.91907 0.0
C1291 C 0.5129 0.08216 0.91976 0.0
C1292 C 0.54758 0.11669 0.90289 0.0
C1293 C 0.53991 0.10303 0.85468 0.0
H1294 H 0.57839 0.17624 0.85024 0.0
C1295 C 0.59565 0.15204 0.79092 0.0
C1296 C 0.5923 0.17154 0.78448 0.0
C1297 C 0.5868 0.14213 0.80781 0.0
C1298 C 0.56759 0.15576 0.85127 0.0
H1299 H 0.47816 0.05552 0.90408 0.0
H1300 H 0.49473 0.07717 0.87599 0.0
H1301 H 0.56025 0.15737 0.87905 0.0
H1302 H 0.5774 0.1962 0.79099 0.0
H1303 H 0.56189 0.17877 0.8204 0.0
H1304 H 0.54692 0.10133 0.82692 0.0
C1305 C 0.50702 0.08504 0.88791 0.0
C1306 C 0.5574 0.14499 0.86779 0.0
C1307 C 0.49738 0.07284 0.90405 0.0
C1308 C 0.58029 0.18116 0.79548 0.0
C1309 C 0.57154 0.17131 0.8124 0.0
C1310 C 0.55019 0.11379 0.83823 0.0
C1311 C 0.5324 0.10683 0.88708 0.0
C1312 C 0.54333 0.11849 0.86963 0.0
C1313 C 0.57449 0.15153 0.81869 0.0
C1314 C 0.56409 0.14026 0.83632 0.0
H1315 H 0.55031 0.11206 0.93098 0.0
H1316 H 0.56727 0.13338 0.90265 0.0
H1317 H 0.52948 0.08257 0.85573 0.0
H1318 H 0.60484 0.14418 0.78284 0.0
H1319 H 0.58963 0.1271 0.81238 0.0
C1320 C 0.55015 0.64325 0.08121 0.0
C1321 C 0.57212 0.64039 0.0827 0.0
C1322 C 0.54273 0.64807 0.06471 0.0
C1323 C 0.56338 0.66881 0.01898 0.0
H1324 H 0.49089 0.61778 0.00652 0.0
C1325 C 0.52151 0.65486 0.94687 0.0
C1326 C 0.49491 0.64742 0.94495 0.0
C1327 C 0.53211 0.65567 0.9638 0.0
C1328 C 0.51105 0.63243 0.00978 0.0
H1329 H 0.60446 0.64193 0.06821 0.0
H1330 H 0.5918 0.65101 0.03952 0.0
H1331 H 0.50794 0.61876 0.03624 0.0
H1332 H 0.45895 0.637 0.95884 0.0
H1333 H 0.47744 0.63933 0.98836 0.0
H1334 H 0.56641 0.68275 0.99257 0.0
C1335 C 0.58035 0.64944 0.05114 0.0
C1336 C 0.52079 0.63297 0.02686 0.0
C1337 C 0.58763 0.64434 0.0676 0.0
C1338 C 0.47935 0.64201 0.96007 0.0
C1339 C 0.48997 0.64327 0.97695 0.0
C1340 C 0.55352 0.6685 0.0019 0.0
C1341 C 0.55732 0.65042 0.04945 0.0
C1342 C 0.54701 0.65113 0.03161 0.0
C1343 C 0.51639 0.6498 0.97904 0.0
C1344 C 0.52721 0.65025 0.99709 0.0
H1345 H 0.53809 0.64078 0.09266 0.0
H1346 H 0.52506 0.6491 0.06374 0.0
H1347 H 0.5837 0.68299 0.02239 0.0
H1348 H 0.53387 0.65952 0.93529 0.0
H1349 H 0.55245 0.66052 0.96487 0.0
C1350 C 0.96121 0.48396 0.22787 0.0
C1351 C 0.95166 0.4684 0.24284 0.0
C1352 C 0.94902 0.47491 0.21116 0.0
C1353 C 0.88656 0.42923 0.18946 0.0
H1354 H 0.92886 0.43518 0.14856 0.0
C1355 C 0.83757 0.38262 0.12222 0.0
C1356 C 0.8496 0.39571 0.10665 0.0
C1357 C 0.85081 0.3908 0.13863 0.0
C1358 C 0.91681 0.43368 0.15978 0.0
H1359 H 0.92185 0.43145 0.25225 0.0
H1360 H 0.90002 0.41576 0.22301 0.0
H1361 H 0.95025 0.45142 0.17776 0.0
H1362 H 0.88413 0.42834 0.09592 0.0
H1363 H 0.90732 0.44331 0.12481 0.0
H1364 H 0.85324 0.4123 0.17162 0.0
C1365 C 0.91702 0.43487 0.22422 0.0
C1366 C 0.92905 0.44289 0.17649 0.0
C1367 C 0.92948 0.44379 0.24089 0.0
C1368 C 0.87482 0.41763 0.10777 0.0
C1369 C 0.88807 0.42604 0.12427 0.0
C1370 C 0.87437 0.42036 0.17275 0.0
C1371 C 0.92685 0.45027 0.20919 0.0
C1372 C 0.914 0.44065 0.19147 0.0
C1373 C 0.8761 0.4128 0.13994 0.0
C1374 C 0.8893 0.42235 0.15769 0.0
H1375 H 0.97853 0.5029 0.22902 0.0
H1376 H 0.95685 0.48719 0.19979 0.0
H1377 H 0.87458 0.42758 0.20078 0.0
H1378 H 0.8177 0.36617 0.12173 0.0
H1379 H 0.8411 0.37987 0.15031 0.0
loop_
_geom_bond_atom_site_label_1
_geom_bond_atom_site_label_2
_geom_bond_distance
_geom_bond_site_symmetry_2
_ccdc_geom_bond_type
H0 O26 0.856 . S
H1 O29 0.854 . S
H2 C37 0.930 1_455 S
H3 C38 0.930 . S
H4 C40 0.930 . S
H5 C41 0.930 . S
H6 C43 0.931 . S
H7 C44 0.930 . S
H8 C46 0.930 . S
H9 C47 0.929 . S
H10 C49 0.930 . S
H11 C50 0.931 . S
H12 C52 0.930 . S
H13 C53 0.929 . S
H14 C55 0.931 . S
H15 C56 0.930 . S
H16 C58 0.930 . S
H17 C59 0.932 . S
H18 C61 0.930 . S
H19 C62 0.929 . S
H20 C64 0.931 . S
H21 C65 0.930 . S
H22 C67 0.929 . S
H23 C68 0.931 . S
H24 C70 0.930 . S
H25 C71 0.929 1_455 S
O26 H0 0.856 . S
O26 C72 1.300 . S
O27 C72 1.209 . S
O28 C73 1.199 . S
O29 H1 0.854 . S
O29 C73 1.297 . S
C30 C31 1.404 . S
C30 C35 1.397 . S
C30 C36 1.492 . S
C31 C30 1.404 . S
C31 C32 1.396 . S
C31 C42 1.492 . S
C32 C31 1.396 . S
C32 C33 1.397 . S
C32 C48 1.509 . S
C33 C32 1.397 . S
C33 C34 1.412 . S
C33 C54 1.485 . S
C34 C33 1.412 . S
C34 C35 1.388 . S
C34 C60 1.490 . S
C35 C30 1.397 . S
C35 C34 1.388 . S
C35 C66 1.519 1_455 S
C36 C30 1.492 . S
C36 C37 1.363 1_455 S
C36 C41 1.390 1_455 S
C37 H2 0.930 1_655 S
C37 C36 1.363 1_655 S
C37 C38 1.372 . S
C38 H3 0.930 . S
C38 C37 1.372 . S
C38 C39 1.383 . S
C39 C38 1.383 . S
C39 C40 1.395 . S
C40 H4 0.930 . S
C40 C39 1.395 . S
C40 C41 1.362 . S
C41 H5 0.930 . S
C41 C36 1.390 1_655 S
C41 C40 1.362 . S
C42 C31 1.492 . S
C42 C43 1.377 . S
C42 C47 1.397 . S
C43 H6 0.931 . S
C43 C42 1.377 . S
C43 C44 1.376 . S
C44 H7 0.930 . S
C44 C43 1.376 . S
C44 C45 1.376 . S
C45 C44 1.376 . S
C45 C46 1.378 . S
C45 C72 1.486 . S
C46 H8 0.930 . S
C46 C45 1.378 . S
C46 C47 1.376 . S
C47 H9 0.929 . S
C47 C42 1.397 . S
C47 C46 1.376 . S
C48 C32 1.509 . S
C48 C49 1.391 . S
C48 C53 1.386 . S
C49 H10 0.930 . S
C49 C48 1.391 . S
C49 C50 1.375 . S
C50 H11 0.931 . S
C50 C49 1.375 . S
C50 C51 1.375 . S
C51 C50 1.375 . S
C51 C52 1.361 . S
C52 H12 0.930 . S
C52 C51 1.361 . S
C52 C53 1.399 . S
C53 H13 0.929 . S
C53 C48 1.386 . S
C53 C52 1.399 . S
C54 C33 1.485 . S
C54 C55 1.394 . S
C54 C59 1.360 . S
C55 H14 0.931 . S
C55 C54 1.394 . S
C55 C56 1.372 . S
C56 H15 0.930 . S
C56 C55 1.372 . S
C56 C57 1.397 . S
C57 C56 1.397 . S
C57 C58 1.390 . S
C57 C73 1.476 . S
C58 H16 0.930 . S
C58 C57 1.390 . S
C58 C59 1.366 . S
C59 H17 0.932 . S
C59 C54 1.360 . S
C59 C58 1.366 . S
C60 C34 1.490 . S
C60 C61 1.380 . S
C60 C65 1.386 . S
C61 H18 0.930 . S
C61 C60 1.380 . S
C61 C62 1.381 . S
C62 H19 0.929 . S
C62 C61 1.381 . S
C62 C63 1.371 . S
C63 C62 1.371 . S
C63 C64 1.380 . S
C64 H20 0.931 . S
C64 C63 1.380 . S
C64 C65 1.387 . S
C65 H21 0.930 . S
C65 C60 1.386 . S
C65 C64 1.387 . S
C66 C35 1.519 1_655 S
C66 C67 1.377 . S
C66 C71 1.361 . S
C67 H22 0.929 . S
C67 C66 1.377 . S
C67 C68 1.386 . S
C68 H23 0.931 . S
C68 C67 1.386 . S
C68 C69 1.363 . S
C69 C68 1.363 . S
C69 C70 1.385 . S
C70 H24 0.930 . S
C70 C69 1.385 . S
C70 C71 1.396 . S
C71 H25 0.929 1_655 S
C71 C66 1.361 . S
C71 C70 1.396 . S
C72 O26 1.300 . S
C72 O27 1.209 . S
C72 C45 1.486 . S
C73 O28 1.199 . S
C73 O29 1.297 . S
C73 C57 1.476 . S
H74 O100 0.856 . S
H75 O103 0.854 . S
H76 C111 0.930 . S
H77 C112 0.930 . S
H78 C114 0.930 . S
H79 C115 0.947 . S
H80 C117 0.931 . S
H81 C118 0.930 . S
H82 C120 0.930 . S
H83 C121 0.929 . S
H84 C123 0.930 . S
H85 C124 0.931 . S
H86 C126 0.930 . S
H87 C127 0.929 . S
H88 C129 0.931 . S
H89 C130 0.930 . S
H90 C132 0.930 . S
H91 C133 0.932 . S
H92 C135 0.930 . S
H93 C136 0.929 . S
H94 C138 0.931 . S
H95 C139 0.930 . S
H96 C141 0.929 1_545 S
H97 C142 0.931 . S
H98 C144 0.930 . S
H99 C145 0.929 . S
O100 H74 0.856 . S
O100 C146 1.300 . S
O101 C146 1.209 . S
O102 C147 1.199 . S
O103 H75 0.854 . S
O103 C147 1.297 . S
C104 C105 1.404 . S
C104 C109 1.397 . S
C104 C110 1.492 . S
C105 C104 1.404 . S
C105 C106 1.396 . S
C105 C116 1.492 . S
C106 C105 1.396 . S
C106 C107 1.397 . S
C106 C122 1.509 . S
C107 C106 1.397 . S
C107 C108 1.412 . S
C107 C128 1.485 . S
C108 C107 1.412 . S
C108 C109 1.388 . S
C108 C134 1.490 . S
C109 C104 1.397 . S
C109 C108 1.388 . S
C109 C140 1.519 . S
C110 C104 1.492 . S
C110 C111 1.363 . S
C110 C115 1.390 1_545 S
C111 H76 0.930 . S
C111 C110 1.363 . S
C111 C112 1.372 1_545 S
C112 H77 0.930 . S
C112 C111 1.372 1_565 S
C112 C113 1.383 . S
C113 C112 1.383 . S
C113 C114 1.395 . S
C114 H78 0.930 . S
C114 C113 1.395 . S
C114 C115 1.362 . S
C115 H79 0.947 . S
C115 C110 1.390 1_565 S
C115 C114 1.362 . S
C116 C105 1.492 . S
C116 C117 1.377 . S
C116 C121 1.397 . S
C117 H80 0.931 . S
C117 C116 1.377 . S
C117 C118 1.376 . S
C118 H81 0.930 . S
C118 C117 1.376 . S
C118 C119 1.376 . S
C119 C118 1.376 . S
C119 C120 1.378 . S
C119 C146 1.486 . S
C120 H82 0.930 . S
C120 C119 1.378 . S
C120 C121 1.376 . S
C121 H83 0.929 . S
C121 C116 1.397 . S
C121 C120 1.376 . S
C122 C106 1.509 . S
C122 C123 1.391 . S
C122 C127 1.386 . S
C123 H84 0.930 . S
C123 C122 1.391 . S
C123 C124 1.375 . S
C124 H85 0.931 . S
C124 C123 1.375 . S
C124 C125 1.375 . S
C125 C124 1.375 . S
C125 C126 1.361 . S
C126 H86 0.930 . S
C126 C125 1.361 . S
C126 C127 1.399 . S
C127 H87 0.929 . S
C127 C122 1.386 . S
C127 C126 1.399 . S
C128 C107 1.485 . S
C128 C129 1.394 . S
C128 C133 1.360 . S
C129 H88 0.931 . S
C129 C128 1.394 . S
C129 C130 1.372 . S
C130 H89 0.930 . S
C130 C129 1.372 . S
C130 C131 1.397 . S
C131 C130 1.397 . S
C131 C132 1.390 . S
C131 C147 1.476 . S
C132 H90 0.930 . S
C132 C131 1.390 . S
C132 C133 1.366 . S
C133 H91 0.932 . S
C133 C128 1.360 . S
C133 C132 1.366 . S
C134 C108 1.490 . S
C134 C135 1.380 . S
C134 C139 1.386 . S
C135 H92 0.930 . S
C135 C134 1.380 . S
C135 C136 1.381 . S
C136 H93 0.929 . S
C136 C135 1.381 . S
C136 C137 1.371 . S
C137 C136 1.371 . S
C137 C138 1.380 . S
C138 H94 0.931 . S
C138 C137 1.380 . S
C138 C139 1.387 . S
C139 H95 0.930 . S
C139 C134 1.386 . S
C139 C138 1.387 . S
C140 C109 1.519 . S
C140 C141 1.377 1_545 S
C140 C145 1.361 . S
C141 H96 0.929 1_565 S
C141 C140 1.377 1_565 S
C141 C142 1.386 . S
C142 H97 0.931 . S
C142 C141 1.386 . S
C142 C143 1.363 . S
C143 C142 1.363 . S
C143 C144 1.385 . S
C144 H98 0.930 . S
C144 C143 1.385 . S
C144 C145 1.396 1_565 S
C145 H99 0.929 . S
C145 C140 1.361 . S
C145 C144 1.396 1_545 S
C146 O100 1.300 . S
C146 O101 1.209 . S
C146 C119 1.486 . S
C147 O102 1.199 . S
C147 O103 1.297 . S
C147 C131 1.476 . S
H148 O174 0.856 . S
H149 O177 0.854 . S
H150 C185 0.930 . S
H151 C186 0.930 . S
H152 C188 0.930 . S
H153 C189 0.930 . S
H154 C191 0.931 . S
H155 C192 0.930 . S
H156 C194 0.930 . S
H157 C195 0.929 . S
H158 C197 0.930 . S
H159 C198 0.931 . S
H160 C200 0.930 . S
H161 C201 0.929 . S
H162 C203 0.931 . S
H163 C204 0.930 . S
H164 C206 0.930 . S
H165 C207 0.932 . S
H166 C209 0.930 . S
H167 C210 0.929 . S
H168 C212 0.931 . S
H169 C213 0.930 . S
H170 C215 0.929 . S
H171 C216 0.931 . S
H172 C218 0.930 . S
H173 C219 0.929 . S
O174 H148 0.856 . S
O174 C220 1.300 . S
O175 C220 1.209 . S
O176 C221 1.199 . S
O177 H149 0.854 . S
O177 C221 1.297 . S
C178 C179 1.404 . S
C178 C183 1.397 . S
C178 C184 1.492 . S
C179 C178 1.404 . S
C179 C180 1.396 . S
C179 C190 1.492 . S
C180 C179 1.396 . S
C180 C181 1.397 . S
C180 C196 1.509 . S
C181 C180 1.397 . S
C181 C182 1.412 . S
C181 C202 1.485 . S
C182 C181 1.412 . S
C182 C183 1.388 . S
C182 C208 1.490 . S
C183 C178 1.397 . S
C183 C182 1.388 . S
C183 C214 1.519 . S
C184 C178 1.492 . S
C184 C185 1.363 . S
C184 C189 1.390 . S
C185 H150 0.930 . S
C185 C184 1.363 . S
C185 C186 1.372 . S
C186 H151 0.930 . S
C186 C185 1.372 . S
C186 C187 1.383 . S
C187 C186 1.383 . S
C187 C188 1.395 . S
C188 H152 0.930 . S
C188 C187 1.395 . S
C188 C189 1.362 . S
C189 H153 0.930 . S
C189 C184 1.390 . S
C189 C188 1.362 . S
C190 C179 1.492 . S
C190 C191 1.377 . S
C190 C195 1.397 . S
C191 H154 0.931 . S
C191 C190 1.377 . S
C191 C192 1.376 . S
C192 H155 0.930 . S
C192 C191 1.376 . S
C192 C193 1.376 . S
C193 C192 1.376 . S
C193 C194 1.378 . S
C193 C220 1.486 . S
C194 H156 0.930 . S
C194 C193 1.378 . S
C194 C195 1.376 . S
C195 H157 0.929 . S
C195 C190 1.397 . S
C195 C194 1.376 . S
C196 C180 1.509 . S
C196 C197 1.391 . S
C196 C201 1.386 . S
C197 H158 0.930 . S
C197 C196 1.391 . S
C197 C198 1.375 . S
C198 H159 0.931 . S
C198 C197 1.375 . S
C198 C199 1.375 . S
C199 C198 1.375 . S
C199 C200 1.361 . S
C200 H160 0.930 . S
C200 C199 1.361 . S
C200 C201 1.399 . S
C201 H161 0.929 . S
C201 C196 1.386 . S
C201 C200 1.399 . S
C202 C181 1.485 . S
C202 C203 1.394 . S
C202 C207 1.360 . S
C203 H162 0.931 . S
C203 C202 1.394 . S
C203 C204 1.372 . S
C204 H163 0.930 . S
C204 C203 1.372 . S
C204 C205 1.397 . S
C205 C204 1.397 . S
C205 C206 1.390 . S
C205 C221 1.476 . S
C206 H164 0.930 . S
C206 C205 1.390 . S
C206 C207 1.366 . S
C207 H165 0.932 . S
C207 C202 1.360 . S
C207 C206 1.366 . S
C208 C182 1.490 . S
C208 C209 1.380 . S
C208 C213 1.386 . S
C209 H166 0.930 . S
C209 C208 1.380 . S
C209 C210 1.381 . S
C210 H167 0.929 . S
C210 C209 1.381 . S
C210 C211 1.371 . S
C211 C210 1.371 . S
C211 C212 1.380 . S
C212 H168 0.931 . S
C212 C211 1.380 . S
C212 C213 1.387 . S
C213 H169 0.930 . S
C213 C208 1.386 . S
C213 C212 1.387 . S
C214 C183 1.519 . S
C214 C215 1.377 . S
C214 C219 1.361 . S
C215 H170 0.929 . S
C215 C214 1.377 . S
C215 C216 1.386 . S
C216 H171 0.931 . S
C216 C215 1.386 . S
C216 C217 1.363 . S
C217 C216 1.363 . S
C217 C218 1.385 . S
C218 H172 0.930 . S
C218 C217 1.385 . S
C218 C219 1.396 . S
C219 H173 0.929 . S
C219 C214 1.361 . S
C219 C218 1.396 . S
C220 O174 1.300 . S
C220 O175 1.209 . S
C220 C193 1.486 . S
C221 O176 1.199 . S
C221 O177 1.297 . S
C221 C205 1.476 . S
H222 O248 0.856 . S
H223 O251 0.854 . S
H224 C259 0.927 1_455 S
H225 C260 0.930 . S
H226 C262 0.930 . S
H227 C263 0.930 . S
H228 C265 0.931 . S
H229 C266 0.930 . S
H230 C268 0.930 . S
H231 C269 0.929 . S
H232 C271 0.930 . S
H233 C272 0.931 . S
H234 C274 0.930 . S
H235 C275 0.929 . S
H236 C277 0.931 . S
H237 C278 0.930 . S
H238 C280 0.930 . S
H239 C281 0.932 . S
H240 C283 0.930 . S
H241 C284 0.929 . S
H242 C286 0.931 . S
H243 C287 0.930 . S
H244 C289 0.929 . S
H245 C290 0.931 . S
H246 C292 0.930 . S
H247 C293 0.893 1_455 S
O248 H222 0.856 . S
O248 C294 1.300 . S
O249 C294 1.209 . S
O250 C295 1.199 . S
O251 H223 0.854 . S
O251 C295 1.297 . S
C252 C253 1.404 . S
C252 C257 1.397 . S
C252 C258 1.492 . S
C253 C252 1.404 . S
C253 C254 1.396 . S
C253 C264 1.492 . S
C254 C253 1.396 . S
C254 C255 1.397 . S
C254 C270 1.509 . S
C255 C254 1.397 . S
C255 C256 1.412 . S
C255 C276 1.485 . S
C256 C255 1.412 . S
C256 C257 1.388 . S
C256 C282 1.490 . S
C257 C252 1.397 . S
C257 C256 1.388 . S
C257 C288 1.519 1_455 S
C258 C252 1.492 . S
C258 C259 1.354 1_455 S
C258 C263 1.390 1_455 S
C259 H224 0.927 1_655 S
C259 C258 1.354 1_655 S
C259 C260 1.384 . S
C260 H225 0.930 . S
C260 C259 1.384 . S
C260 C261 1.383 . S
C261 C260 1.383 . S
C261 C262 1.395 . S
C262 H226 0.930 . S
C262 C261 1.395 . S
C262 C263 1.362 . S
C263 H227 0.930 . S
C263 C258 1.390 1_655 S
C263 C262 1.362 . S
C264 C253 1.492 . S
C264 C265 1.377 . S
C264 C269 1.397 . S
C265 H228 0.931 . S
C265 C264 1.377 . S
C265 C266 1.376 . S
C266 H229 0.930 . S
C266 C265 1.376 . S
C266 C267 1.376 . S
C267 C266 1.376 . S
C267 C268 1.378 . S
C267 C294 1.486 . S
C268 H230 0.930 . S
C268 C267 1.378 . S
C268 C269 1.376 . S
C269 H231 0.929 . S
C269 C264 1.397 . S
C269 C268 1.376 . S
C270 C254 1.509 . S
C270 C271 1.391 . S
C270 C275 1.386 . S
C271 H232 0.930 . S
C271 C270 1.391 . S
C271 C272 1.375 . S
C272 H233 0.931 . S
C272 C271 1.375 . S
C272 C273 1.375 . S
C273 C272 1.375 . S
C273 C274 1.361 . S
C274 H234 0.930 . S
C274 C273 1.361 . S
C274 C275 1.399 . S
C275 H235 0.929 . S
C275 C270 1.386 . S
C275 C274 1.399 . S
C276 C255 1.485 . S
C276 C277 1.394 . S
C276 C281 1.360 . S
C277 H236 0.931 . S
C277 C276 1.394 . S
C277 C278 1.372 . S
C278 H237 0.930 . S
C278 C277 1.372 . S
C278 C279 1.397 . S
C279 C278 1.397 . S
C279 C280 1.390 . S
C279 C295 1.476 . S
C280 H238 0.930 . S
C280 C279 1.390 . S
C280 C281 1.366 . S
C281 H239 0.932 . S
C281 C276 1.360 . S
C281 C280 1.366 . S
C282 C256 1.490 . S
C282 C283 1.380 . S
C282 C287 1.386 . S
C283 H240 0.930 . S
C283 C282 1.380 . S
C283 C284 1.381 . S
C284 H241 0.929 . S
C284 C283 1.381 . S
C284 C285 1.371 . S
C285 C284 1.371 . S
C285 C286 1.380 . S
C286 H242 0.931 . S
C286 C285 1.380 . S
C286 C287 1.387 . S
C287 H243 0.930 . S
C287 C282 1.386 . S
C287 C286 1.387 . S
C288 C257 1.519 1_655 S
C288 C289 1.377 . S
C288 C293 1.361 . S
C289 H244 0.929 . S
C289 C288 1.377 . S
C289 C290 1.386 . S
C290 H245 0.931 . S
C290 C289 1.386 . S
C290 C291 1.363 . S
C291 C290 1.363 . S
C291 C292 1.385 . S
C292 H246 0.930 . S
C292 C291 1.385 . S
C292 C293 1.396 . S
C293 H247 0.893 1_655 S
C293 C288 1.361 . S
C293 C292 1.396 . S
C294 O248 1.300 . S
C294 O249 1.209 . S
C294 C267 1.486 . S
C295 O250 1.199 . S
C295 O251 1.297 . S
C295 C279 1.476 . S
H296 O322 0.856 . S
H297 O325 0.854 . S
H298 C333 0.930 . S
H299 C334 0.930 . S
H300 C336 0.930 . S
H301 C337 0.930 . S
H302 C339 0.931 . S
H303 C340 0.930 . S
H304 C342 0.930 . S
H305 C343 0.929 . S
H306 C345 0.930 . S
H307 C346 0.931 . S
H308 C348 0.930 . S
H309 C349 0.929 . S
H310 C351 0.931 . S
H311 C352 0.930 . S
H312 C354 0.930 . S
H313 C355 0.932 . S
H314 C357 0.930 . S
H315 C358 0.929 1_545 S
H316 C360 0.931 . S
H317 C361 0.930 . S
H318 C363 0.932 . S
H319 C364 0.931 . S
H320 C366 0.930 . S
H321 C367 0.929 . S
O322 H296 0.856 . S
O322 C368 1.300 . S
O323 C368 1.209 . S
O324 C369 1.199 . S
O325 H297 0.854 . S
O325 C369 1.297 . S
C326 C327 1.404 1_545 S
C326 C331 1.397 . S
C326 C332 1.492 . S
C327 C326 1.404 1_565 S
C327 C328 1.396 . S
C327 C338 1.492 . S
C328 C327 1.396 . S
C328 C329 1.397 . S
C328 C344 1.509 . S
C329 C328 1.397 . S
C329 C330 1.412 1_556 S
C329 C350 1.485 1_556 S
C330 C329 1.412 1_554 S
C330 C331 1.388 1_564 S
C330 C356 1.490 . S
C331 C326 1.397 . S
C331 C330 1.388 1_546 S
C331 C362 1.498 1_556 S
C332 C326 1.492 . S
C332 C333 1.363 . S
C332 C337 1.390 . S
C333 H298 0.930 . S
C333 C332 1.363 . S
C333 C334 1.372 . S
C334 H299 0.930 . S
C334 C333 1.372 . S
C334 C335 1.383 . S
C335 C334 1.383 . S
C335 C336 1.395 . S
C336 H300 0.930 . S
C336 C335 1.395 . S
C336 C337 1.362 . S
C337 H301 0.930 . S
C337 C332 1.390 . S
C337 C336 1.362 . S
C338 C327 1.492 . S
C338 C339 1.377 . S
C338 C343 1.397 . S
C339 H302 0.931 . S
C339 C338 1.377 . S
C339 C340 1.376 . S
C340 H303 0.930 . S
C340 C339 1.376 . S
C340 C341 1.376 . S
C341 C340 1.376 . S
C341 C342 1.378 . S
C341 C368 1.486 . S
C342 H304 0.930 . S
C342 C341 1.378 . S
C342 C343 1.376 . S
C343 H305 0.929 . S
C343 C338 1.397 . S
C343 C342 1.376 . S
C344 C328 1.509 . S
C344 C345 1.391 . S
C344 C349 1.386 . S
C345 H306 0.930 . S
C345 C344 1.391 . S
C345 C346 1.375 . S
C346 H307 0.931 . S
C346 C345 1.375 . S
C346 C347 1.375 . S
C347 C346 1.375 . S
C347 C348 1.361 . S
C348 H308 0.930 . S
C348 C347 1.361 . S
C348 C349 1.399 . S
C349 H309 0.929 . S
C349 C344 1.386 . S
C349 C348 1.399 . S
C350 C329 1.485 1_554 S
C350 C351 1.394 . S
C350 C355 1.360 . S
C351 H310 0.931 . S
C351 C350 1.394 . S
C351 C352 1.372 . S
C352 H311 0.930 . S
C352 C351 1.372 . S
C352 C353 1.397 . S
C353 C352 1.397 . S
C353 C354 1.390 . S
C353 C369 1.476 . S
C354 H312 0.930 . S
C354 C353 1.390 . S
C354 C355 1.366 . S
C355 H313 0.932 . S
C355 C350 1.360 . S
C355 C354 1.366 . S
C356 C330 1.490 . S
C356 C357 1.380 . S
C356 C361 1.386 . S
C357 H314 0.930 . S
C357 C356 1.380 . S
C357 C358 1.381 . S
C358 H315 0.929 1_565 S
C358 C357 1.381 . S
C358 C359 1.371 . S
C359 C358 1.371 . S
C359 C360 1.380 . S
C360 H316 0.931 . S
C360 C359 1.380 . S
C360 C361 1.387 . S
C361 H317 0.930 . S
C361 C356 1.386 . S
C361 C360 1.387 . S
C362 C331 1.498 1_554 S
C362 C363 1.374 1_554 S
C362 C367 1.387 . S
C363 H318 0.932 . S
C363 C362 1.374 1_556 S
C363 C364 1.384 1_556 S
C364 H319 0.931 . S
C364 C363 1.384 1_554 S
C364 C365 1.363 . S
C365 C364 1.363 . S
C365 C366 1.385 . S
C366 H320 0.930 . S
C366 C365 1.385 . S
C366 C367 1.396 . S
C367 H321 0.929 . S
C367 C362 1.387 . S
C367 C366 1.396 . S
C368 O322 1.300 . S
C368 O323 1.209 . S
C368 C341 1.486 . S
C369 O324 1.199 . S
C369 O325 1.297 . S
C369 C353 1.476 . S
H370 O396 0.856 . S
H371 O399 0.854 . S
H372 C407 0.930 . S
H373 C408 0.930 . S
H374 C410 0.930 . S
H375 C411 0.930 . S
H376 C413 0.931 . S
H377 C414 0.930 . S
H378 C416 0.930 . S
H379 C417 0.929 . S
H380 C419 0.930 . S
H381 C420 0.931 . S
H382 C422 0.930 . S
H383 C423 0.929 . S
H384 C425 0.931 . S
H385 C426 0.930 . S
H386 C428 0.930 . S
H387 C429 0.932 . S
H388 C431 0.930 . S
H389 C432 0.929 . S
H390 C434 0.931 . S
H391 C435 0.930 . S
H392 C437 0.929 . S
H393 C438 0.931 . S
H394 C440 0.930 . S
H395 C441 0.929 . S
O396 H370 0.856 . S
O396 C442 1.300 . S
O397 C442 1.209 . S
O398 C443 1.199 . S
O399 H371 0.854 . S
O399 C443 1.297 . S
C400 C401 1.404 . S
C400 C405 1.397 . S
C400 C406 1.492 . S
C401 C400 1.404 . S
C401 C402 1.396 . S
C401 C412 1.492 . S
C402 C401 1.396 . S
C402 C403 1.397 . S
C402 C418 1.509 . S
C403 C402 1.397 . S
C403 C404 1.412 . S
C403 C424 1.485 . S
C404 C403 1.412 . S
C404 C405 1.388 . S
C404 C430 1.490 . S
C405 C400 1.397 . S
C405 C404 1.388 . S
C405 C436 1.519 . S
C406 C400 1.492 . S
C406 C407 1.363 . S
C406 C411 1.390 . S
C407 H372 0.930 . S
C407 C406 1.363 . S
C407 C408 1.372 . S
C408 H373 0.930 . S
C408 C407 1.372 . S
C408 C409 1.383 . S
C409 C408 1.383 . S
C409 C410 1.395 . S
C410 H374 0.930 . S
C410 C409 1.395 . S
C410 C411 1.362 . S
C411 H375 0.930 . S
C411 C406 1.390 . S
C411 C410 1.362 . S
C412 C401 1.492 . S
C412 C413 1.377 . S
C412 C417 1.397 . S
C413 H376 0.931 . S
C413 C412 1.377 . S
C413 C414 1.376 . S
C414 H377 0.930 . S
C414 C413 1.376 . S
C414 C415 1.376 . S
C415 C414 1.376 . S
C415 C416 1.378 . S
C415 C442 1.486 . S
C416 H378 0.930 . S
C416 C415 1.378 . S
C416 C417 1.376 . S
C417 H379 0.929 . S
C417 C412 1.397 . S
C417 C416 1.376 . S
C418 C402 1.509 . S
C418 C419 1.391 . S
C418 C423 1.386 . S
C419 H380 0.930 . S
C419 C418 1.391 . S
C419 C420 1.375 . S
C420 H381 0.931 . S
C420 C419 1.375 . S
C420 C421 1.375 . S
C421 C420 1.375 . S
C421 C422 1.361 . S
C422 H382 0.930 . S
C422 C421 1.361 . S
C422 C423 1.399 . S
C423 H383 0.929 . S
C423 C418 1.386 . S
C423 C422 1.399 . S
C424 C403 1.485 . S
C424 C425 1.394 . S
C424 C429 1.360 . S
C425 H384 0.931 . S
C425 C424 1.394 . S
C425 C426 1.372 . S
C426 H385 0.930 . S
C426 C425 1.372 . S
C426 C427 1.397 . S
C427 C426 1.397 . S
C427 C428 1.390 . S
C427 C443 1.476 . S
C428 H386 0.930 . S
C428 C427 1.390 . S
C428 C429 1.366 . S
C429 H387 0.932 . S
C429 C424 1.360 . S
C429 C428 1.366 . S
C430 C404 1.490 . S
C430 C431 1.380 . S
C430 C435 1.386 . S
C431 H388 0.930 . S
C431 C430 1.380 . S
C431 C432 1.381 . S
C432 H389 0.929 . S
C432 C431 1.381 . S
C432 C433 1.371 . S
C433 C432 1.371 . S
C433 C434 1.380 . S
C434 H390 0.931 . S
C434 C433 1.380 . S
C434 C435 1.387 . S
C435 H391 0.930 . S
C435 C430 1.386 . S
C435 C434 1.387 . S
C436 C405 1.519 . S
C436 C437 1.377 . S
C436 C441 1.361 . S
C437 H392 0.929 . S
C437 C436 1.377 . S
C437 C438 1.386 . S
C438 H393 0.931 . S
C438 C437 1.386 . S
C438 C439 1.363 . S
C439 C438 1.363 . S
C439 C440 1.385 . S
C440 H394 0.930 . S
C440 C439 1.385 . S
C440 C441 1.396 . S
C441 H395 0.929 . S
C441 C436 1.361 . S
C441 C440 1.396 . S
C442 O396 1.300 . S
C442 O397 1.209 . S
C442 C415 1.486 . S
C443 O398 1.199 . S
C443 O399 1.297 . S
C443 C427 1.476 . S
Mn444 O449 2.095 . S
Mn444 O459 2.162 . S
Mn444 O460 2.297 . S
Mn444 O468 2.385 . S
Mn444 O469 2.209 . S
Mn444 O470 2.094 . S
Mn445 O450 2.121 . S
Mn445 N452 2.257 . S
Mn445 N461 2.282 . S
Mn445 O469 2.215 . S
Mn445 O471 2.117 . S
C446 O468 1.234 . S
C446 O469 1.283 . S
C447 O459 1.281 . S
C447 O460 1.236 . S
C448 O470 1.240 . S
C448 O471 1.264 . S
O449 Mn444 2.095 . S
O449 C458 1.250 . S
O450 Mn445 2.121 . S
O450 C458 1.258 . S
C451 N452 1.326 . S
C451 C455 1.460 . S
C451 H457 0.929 . S
N452 Mn445 2.257 . S
N452 C451 1.326 . S
N452 C456 1.362 . S
C453 C454 1.258 . S
C453 C456 1.431 . S
C453 C473 1.449 . S
C454 C453 1.258 . S
C454 C455 1.477 . S
C454 H474 0.931 . S
C455 C451 1.460 . S
C455 C454 1.477 . S
C455 H475 0.930 . S
C456 N452 1.362 . S
C456 C453 1.431 . S
C456 C466 1.476 . S
H457 C451 0.929 . S
C458 O449 1.250 . S
C458 O450 1.258 . S
O459 Mn444 2.162 . S
O459 C447 1.281 . S
O460 Mn444 2.297 . S
O460 C447 1.236 . S
N461 Mn445 2.282 . S
N461 C462 1.328 . S
N461 C466 1.318 . S
C462 N461 1.328 . S
C462 C463 1.457 . S
C462 H467 0.929 . S
C463 C462 1.457 . S
C463 C464 1.291 . S
C463 H476 0.931 . S
C464 C463 1.291 . S
C464 C465 1.373 . S
C464 H477 0.929 . S
C465 C464 1.373 . S
C465 C466 1.396 . S
C465 C472 1.403 . S
C466 C456 1.476 . S
C466 N461 1.318 . S
C466 C465 1.396 . S
H467 C462 0.929 . S
O468 Mn444 2.385 . S
O468 C446 1.234 . S
O469 Mn444 2.209 . S
O469 Mn445 2.215 . S
O469 C446 1.283 . S
O470 Mn444 2.094 . S
O470 C448 1.240 . S
O471 Mn445 2.117 . S
O471 C448 1.264 . S
C472 C465 1.403 . S
C472 C473 1.399 . S
C472 H478 0.929 . S
C473 C453 1.449 . S
C473 C472 1.399 . S
C473 H479 0.930 . S
H474 C454 0.931 . S
H475 C455 0.930 . S
H476 C463 0.931 . S
H477 C464 0.929 . S
H478 C472 0.929 . S
H479 C473 0.930 . S
Mn480 O485 2.095 . S
Mn480 O495 2.162 . S
Mn480 O496 2.297 . S
Mn480 O504 2.385 . S
Mn480 O505 2.209 . S
Mn480 O506 2.094 . S
Mn481 O486 2.121 . S
Mn481 N488 2.257 . S
Mn481 N497 2.282 . S
Mn481 O505 2.215 . S
Mn481 O507 2.117 . S
C482 O504 1.234 . S
C482 O505 1.283 . S
C483 O495 1.281 . S
C483 O496 1.236 . S
C484 O506 1.240 . S
C484 O507 1.264 . S
O485 Mn480 2.095 . S
O485 C494 1.250 . S
O486 Mn481 2.121 . S
O486 C494 1.258 . S
C487 N488 1.326 . S
C487 C491 1.460 . S
C487 H493 0.929 . S
N488 Mn481 2.257 . S
N488 C487 1.326 . S
N488 C492 1.362 . S
C489 C490 1.258 . S
C489 C492 1.431 . S
C489 C509 1.449 . S
C490 C489 1.258 . S
C490 C491 1.477 . S
C490 H510 0.931 . S
C491 C487 1.460 . S
C491 C490 1.477 . S
C491 H511 0.930 . S
C492 N488 1.362 . S
C492 C489 1.431 . S
C492 C502 1.476 . S
H493 C487 0.929 . S
C494 O485 1.250 . S
C494 O486 1.258 . S
O495 Mn480 2.162 . S
O495 C483 1.281 . S
O496 Mn480 2.297 . S
O496 C483 1.236 . S
N497 Mn481 2.282 . S
N497 C498 1.328 . S
N497 C502 1.318 . S
C498 N497 1.328 . S
C498 C499 1.457 . S
C498 H503 0.929 . S
C499 C498 1.457 . S
C499 C500 1.291 . S
C499 H512 0.931 . S
C500 C499 1.291 . S
C500 C501 1.373 . S
C500 H513 0.929 . S
C501 C500 1.373 . S
C501 C502 1.396 . S
C501 C508 1.403 . S
C502 C492 1.476 . S
C502 N497 1.318 . S
C502 C501 1.396 . S
H503 C498 0.929 . S
O504 Mn480 2.385 . S
O504 C482 1.234 . S
O505 Mn480 2.209 . S
O505 Mn481 2.215 . S
O505 C482 1.283 . S
O506 Mn480 2.094 . S
O506 C484 1.240 . S
O507 Mn481 2.117 . S
O507 C484 1.264 . S
C508 C501 1.403 . S
C508 C509 1.399 . S
C508 H514 0.929 . S
C509 C489 1.449 . S
C509 C508 1.399 . S
C509 H515 0.930 . S
H510 C490 0.931 . S
H511 C491 0.930 . S
H512 C499 0.931 . S
H513 C500 0.929 . S
H514 C508 0.929 . S
H515 C509 0.930 . S
Mn516 O521 2.095 . S
Mn516 O531 2.162 . S
Mn516 O532 2.297 . S
Mn516 O540 2.385 . S
Mn516 O541 2.209 . S
Mn516 O542 2.094 . S
Mn517 O522 2.121 . S
Mn517 N524 2.257 . S
Mn517 N533 2.282 . S
Mn517 O541 2.215 . S
Mn517 O543 2.117 . S
C518 O540 1.234 . S
C518 O541 1.283 . S
C519 O531 1.281 . S
C519 O532 1.236 . S
C520 O542 1.240 . S
C520 O543 1.264 . S
O521 Mn516 2.095 . S
O521 C530 1.250 . S
O522 Mn517 2.121 . S
O522 C530 1.258 . S
C523 N524 1.326 . S
C523 C527 1.460 . S
C523 H529 0.929 . S
N524 Mn517 2.257 . S
N524 C523 1.326 . S
N524 C528 1.362 . S
C525 C526 1.258 . S
C525 C528 1.431 . S
C525 C545 1.449 . S
C526 C525 1.258 . S
C526 C527 1.477 . S
C526 H546 0.931 . S
C527 C523 1.460 . S
C527 C526 1.477 . S
C527 H547 0.930 . S
C528 N524 1.362 . S
C528 C525 1.431 . S
C528 C538 1.476 . S
H529 C523 0.929 . S
C530 O521 1.250 . S
C530 O522 1.258 . S
O531 Mn516 2.162 . S
O531 C519 1.281 . S
O532 Mn516 2.297 . S
O532 C519 1.236 . S
N533 Mn517 2.282 . S
N533 C534 1.328 . S
N533 C538 1.318 . S
C534 N533 1.328 . S
C534 C535 1.457 . S
C534 H539 0.929 . S
C535 C534 1.457 . S
C535 C536 1.291 . S
C535 H548 0.931 . S
C536 C535 1.291 . S
C536 C537 1.373 . S
C536 H549 0.929 . S
C537 C536 1.373 . S
C537 C538 1.396 . S
C537 C544 1.403 . S
C538 C528 1.476 . S
C538 N533 1.318 . S
C538 C537 1.396 . S
H539 C534 0.929 . S
O540 Mn516 2.385 . S
O540 C518 1.234 . S
O541 Mn516 2.209 . S
O541 Mn517 2.215 . S
O541 C518 1.283 . S
O542 Mn516 2.094 . S
O542 C520 1.240 . S
O543 Mn517 2.117 . S
O543 C520 1.264 . S
C544 C537 1.403 . S
C544 C545 1.399 . S
C544 H550 0.929 . S
C545 C525 1.449 . S
C545 C544 1.399 . S
C545 H551 0.930 . S
H546 C526 0.931 . S
H547 C527 0.930 . S
H548 C535 0.931 . S
H549 C536 0.929 . S
H550 C544 0.929 . S
H551 C545 0.930 . S
Mn552 O557 2.095 . S
Mn552 O567 2.162 . S
Mn552 O568 2.297 . S
Mn552 O576 2.385 . S
Mn552 O577 2.209 . S
Mn552 O578 2.094 . S
Mn553 O558 2.121 . S
Mn553 N560 2.257 . S
Mn553 N569 2.282 . S
Mn553 O577 2.215 . S
Mn553 O579 2.117 . S
C554 O576 1.234 . S
C554 O577 1.283 . S
C555 O567 1.281 . S
C555 O568 1.236 . S
C556 O578 1.240 . S
C556 O579 1.264 . S
O557 Mn552 2.095 . S
O557 C566 1.250 . S
O558 Mn553 2.121 . S
O558 C566 1.258 . S
C559 N560 1.326 . S
C559 C563 1.460 . S
C559 H565 0.929 . S
N560 Mn553 2.257 . S
N560 C559 1.326 . S
N560 C564 1.362 . S
C561 C562 1.258 . S
C561 C564 1.431 . S
C561 C581 1.449 . S
C562 C561 1.258 . S
C562 C563 1.477 . S
C562 H582 0.931 . S
C563 C559 1.460 . S
C563 C562 1.477 . S
C563 H583 0.930 . S
C564 N560 1.362 . S
C564 C561 1.431 . S
C564 C574 1.476 . S
H565 C559 0.929 . S
C566 O557 1.250 . S
C566 O558 1.258 . S
O567 Mn552 2.162 . S
O567 C555 1.281 . S
O568 Mn552 2.297 . S
O568 C555 1.236 . S
N569 Mn553 2.282 . S
N569 C570 1.328 . S
N569 C574 1.318 . S
C570 N569 1.328 . S
C570 C571 1.457 . S
C570 H575 0.929 . S
C571 C570 1.457 . S
C571 C572 1.291 . S
C571 H584 0.931 . S
C572 C571 1.291 . S
C572 C573 1.373 . S
C572 H585 0.929 . S
C573 C572 1.373 . S
C573 C574 1.396 . S
C573 C580 1.403 . S
C574 C564 1.476 . S
C574 N569 1.318 . S
C574 C573 1.396 . S
H575 C570 0.929 . S
O576 Mn552 2.385 . S
O576 C554 1.234 . S
O577 Mn552 2.209 . S
O577 Mn553 2.215 . S
O577 C554 1.283 . S
O578 Mn552 2.094 . S
O578 C556 1.240 . S
O579 Mn553 2.117 . S
O579 C556 1.264 . S
C580 C573 1.403 . S
C580 C581 1.399 . S
C580 H586 0.929 . S
C581 C561 1.449 . S
C581 C580 1.399 . S
C581 H587 0.930 . S
H582 C562 0.931 . S
H583 C563 0.930 . S
H584 C571 0.931 . S
H585 C572 0.929 . S
H586 C580 0.929 . S
H587 C581 0.930 . S
Mn588 O593 2.095 . S
Mn588 O603 2.162 . S
Mn588 O604 2.297 . S
Mn588 O612 2.385 . S
Mn588 O613 2.209 . S
Mn588 O614 2.094 . S
Mn589 O594 2.121 . S
Mn589 N596 2.257 . S
Mn589 N605 2.282 . S
Mn589 O613 2.215 . S
Mn589 O615 2.117 . S
C590 O612 1.234 . S
C590 O613 1.283 . S
C591 O603 1.281 . S
C591 O604 1.236 . S
C592 O614 1.240 . S
C592 O615 1.264 . S
O593 Mn588 2.095 . S
O593 C602 1.250 . S
O594 Mn589 2.121 . S
O594 C602 1.258 . S
C595 N596 1.326 . S
C595 C599 1.460 . S
C595 H601 0.929 . S
N596 Mn589 2.257 . S
N596 C595 1.326 . S
N596 C600 1.362 . S
C597 C598 1.258 . S
C597 C600 1.431 . S
C597 C617 1.449 . S
C598 C597 1.258 . S
C598 C599 1.477 . S
C598 H618 0.931 . S
C599 C595 1.460 . S
C599 C598 1.477 . S
C599 H619 0.930 . S
C600 N596 1.362 . S
C600 C597 1.431 . S
C600 C610 1.476 . S
H601 C595 0.929 . S
C602 O593 1.250 . S
C602 O594 1.258 . S
O603 Mn588 2.162 . S
O603 C591 1.281 . S
O604 Mn588 2.297 . S
O604 C591 1.236 . S
N605 Mn589 2.282 . S
N605 C606 1.328 . S
N605 C610 1.318 . S
C606 N605 1.328 . S
C606 C607 1.457 . S
C606 H611 0.929 . S
C607 C606 1.457 . S
C607 C608 1.291 . S
C607 H620 0.931 . S
C608 C607 1.291 . S
C608 C609 1.373 . S
C608 H621 0.929 . S
C609 C608 1.373 . S
C609 C610 1.396 . S
C609 C616 1.403 . S
C610 C600 1.476 . S
C610 N605 1.318 . S
C610 C609 1.396 . S
H611 C606 0.929 . S
O612 Mn588 2.385 . S
O612 C590 1.234 . S
O613 Mn588 2.209 . S
O613 Mn589 2.215 . S
O613 C590 1.283 . S
O614 Mn588 2.094 . S
O614 C592 1.240 . S
O615 Mn589 2.117 . S
O615 C592 1.264 . S
C616 C609 1.403 . S
C616 C617 1.399 . S
C616 H622 0.929 . S
C617 C597 1.449 . S
C617 C616 1.399 . S
C617 H623 0.930 . S
H618 C598 0.931 . S
H619 C599 0.930 . S
H620 C607 0.931 . S
H621 C608 0.929 . S
H622 C616 0.929 . S
H623 C617 0.930 . S
Mn624 O629 2.095 . S
Mn624 O639 2.162 . S
Mn624 O640 2.297 . S
Mn624 O648 2.385 . S
Mn624 O649 2.209 . S
Mn624 O650 2.094 . S
Mn625 O630 2.121 . S
Mn625 N632 2.257 . S
Mn625 N641 2.282 . S
Mn625 O649 2.215 . S
Mn625 O651 2.117 . S
C626 O648 1.234 . S
C626 O649 1.283 . S
C627 O639 1.281 . S
C627 O640 1.236 . S
C628 O650 1.240 . S
C628 O651 1.264 . S
O629 Mn624 2.095 . S
O629 C638 1.250 . S
O630 Mn625 2.121 . S
O630 C638 1.258 . S
C631 N632 1.326 . S
C631 C635 1.460 . S
C631 H637 0.929 . S
N632 Mn625 2.257 . S
N632 C631 1.326 . S
N632 C636 1.362 . S
C633 C634 1.258 . S
C633 C636 1.431 . S
C633 C653 1.449 . S
C634 C633 1.258 . S
C634 C635 1.477 . S
C634 H654 0.931 . S
C635 C631 1.460 . S
C635 C634 1.477 . S
C635 H655 0.930 . S
C636 N632 1.362 . S
C636 C633 1.431 . S
C636 C646 1.476 . S
H637 C631 0.929 . S
C638 O629 1.250 . S
C638 O630 1.258 . S
O639 Mn624 2.162 . S
O639 C627 1.281 . S
O640 Mn624 2.297 . S
O640 C627 1.236 . S
N641 Mn625 2.282 . S
N641 C642 1.328 . S
N641 C646 1.318 . S
C642 N641 1.328 . S
C642 C643 1.457 . S
C642 H647 0.929 . S
C643 C642 1.457 . S
C643 C644 1.291 . S
C643 H656 0.931 . S
C644 C643 1.291 . S
C644 C645 1.373 . S
C644 H657 0.929 . S
C645 C644 1.373 . S
C645 C646 1.396 . S
C645 C652 1.403 . S
C646 C636 1.476 . S
C646 N641 1.318 . S
C646 C645 1.396 . S
H647 C642 0.929 . S
O648 Mn624 2.385 . S
O648 C626 1.234 . S
O649 Mn624 2.209 . S
O649 Mn625 2.215 . S
O649 C626 1.283 . S
O650 Mn624 2.094 . S
O650 C628 1.240 . S
O651 Mn625 2.117 . S
O651 C628 1.264 . S
C652 C645 1.403 . S
C652 C653 1.399 . S
C652 H658 0.929 . S
C653 C633 1.449 . S
C653 C652 1.399 . S
C653 H659 0.930 . S
H654 C634 0.931 . S
H655 C635 0.930 . S
H656 C643 0.931 . S
H657 C644 0.929 . S
H658 C652 0.929 . S
H659 C653 0.930 . S
C660 C661 1.349 . S
C660 C662 1.327 . S
C660 H685 0.950 . S
C661 C660 1.349 . S
C661 C677 1.349 . S
C662 C660 1.327 . S
C662 C681 1.429 . S
C662 H686 0.950 . S
C663 C680 1.574 . S
C663 C682 1.368 . S
C663 H687 0.949 . S
H664 C668 0.949 . S
C665 C666 1.349 . S
C665 C667 1.327 . S
C665 H688 0.950 . S
C666 C665 1.349 . S
C666 C678 1.349 . S
C667 C665 1.327 . S
C667 C683 1.429 . S
C667 H689 0.950 . S
C668 H664 0.949 . S
C668 C676 1.574 . S
C668 C684 1.368 . S
H669 C677 0.950 . S
H670 C675 0.950 . S
H671 C676 0.949 . S
H672 C678 0.950 . S
H673 C679 0.950 . S
H674 C680 0.949 . S
C675 H670 0.950 . S
C675 C677 1.327 . S
C675 C681 1.429 . S
C676 C668 1.574 . S
C676 H671 0.949 . S
C676 C682 1.368 . S
C677 C661 1.349 . S
C677 H669 0.950 . S
C677 C675 1.327 . S
C678 C666 1.349 . S
C678 H672 0.950 . S
C678 C679 1.327 . S
C679 H673 0.950 . S
C679 C678 1.327 . S
C679 C683 1.429 . S
C680 C663 1.574 . S
C680 H674 0.949 . S
C680 C684 1.368 . S
C681 C662 1.429 . S
C681 C675 1.429 . S
C681 C682 1.523 . S
C682 C663 1.368 . S
C682 C676 1.368 . S
C682 C681 1.523 . S
C683 C667 1.429 . S
C683 C679 1.429 . S
C683 C684 1.523 . S
C684 C668 1.368 . S
C684 C680 1.368 . S
C684 C683 1.523 . S
H685 C660 0.950 . S
H686 C662 0.950 . S
H687 C663 0.949 . S
H688 C665 0.950 . S
H689 C667 0.950 . S
C690 C691 1.349 . S
C690 C692 1.327 . S
C690 H715 0.950 . S
C691 C690 1.349 . S
C691 C707 1.349 . S
C692 C690 1.327 . S
C692 C711 1.429 . S
C692 H716 0.950 . S
C693 C710 1.574 . S
C693 C712 1.368 . S
C693 H717 0.949 . S
H694 C698 0.949 . S
C695 C696 1.349 . S
C695 C697 1.327 . S
C695 H718 0.950 . S
C696 C695 1.349 . S
C696 C708 1.349 . S
C697 C695 1.327 . S
C697 C713 1.429 . S
C697 H719 0.950 . S
C698 H694 0.949 . S
C698 C706 1.574 . S
C698 C714 1.368 . S
H699 C707 0.950 . S
H700 C705 0.950 . S
H701 C706 0.949 . S
H702 C708 0.950 . S
H703 C709 0.950 . S
H704 C710 0.949 . S
C705 H700 0.950 . S
C705 C707 1.327 . S
C705 C711 1.429 . S
C706 C698 1.574 . S
C706 H701 0.949 . S
C706 C712 1.368 . S
C707 C691 1.349 . S
C707 H699 0.950 . S
C707 C705 1.327 . S
C708 C696 1.349 . S
C708 H702 0.950 . S
C708 C709 1.327 . S
C709 H703 0.950 . S
C709 C708 1.327 . S
C709 C713 1.429 . S
C710 C693 1.574 . S
C710 H704 0.949 . S
C710 C714 1.368 . S
C711 C692 1.429 . S
C711 C705 1.429 . S
C711 C712 1.523 . S
C712 C693 1.368 . S
C712 C706 1.368 . S
C712 C711 1.523 . S
C713 C697 1.429 . S
C713 C709 1.429 . S
C713 C714 1.523 . S
C714 C698 1.368 . S
C714 C710 1.368 . S
C714 C713 1.523 . S
H715 C690 0.950 . S
H716 C692 0.950 . S
H717 C693 0.949 . S
H718 C695 0.950 . S
H719 C697 0.950 . S
C720 C721 1.349 . S
C720 C722 1.327 . S
C720 H745 0.950 . S
C721 C720 1.349 . S
C721 C737 1.349 . S
C722 C720 1.327 . S
C722 C741 1.429 . S
C722 H746 0.950 . S
C723 C740 1.574 . S
C723 C742 1.368 . S
C723 H747 0.949 . S
H724 C728 0.949 . S
C725 C726 1.349 . S
C725 C727 1.327 . S
C725 H748 0.950 . S
C726 C725 1.349 . S
C726 C738 1.349 . S
C727 C725 1.327 . S
C727 C743 1.429 . S
C727 H749 0.950 . S
C728 H724 0.949 . S
C728 C736 1.574 . S
C728 C744 1.368 . S
H729 C737 0.950 . S
H730 C735 0.950 . S
H731 C736 0.949 . S
H732 C738 0.950 . S
H733 C739 0.950 . S
H734 C740 0.949 . S
C735 H730 0.950 . S
C735 C737 1.327 . S
C735 C741 1.429 . S
C736 C728 1.574 . S
C736 H731 0.949 . S
C736 C742 1.368 . S
C737 C721 1.349 . S
C737 H729 0.950 . S
C737 C735 1.327 . S
C738 C726 1.349 . S
C738 H732 0.950 . S
C738 C739 1.327 . S
C739 H733 0.950 . S
C739 C738 1.327 . S
C739 C743 1.429 . S
C740 C723 1.574 . S
C740 H734 0.949 . S
C740 C744 1.368 . S
C741 C722 1.429 . S
C741 C735 1.429 . S
C741 C742 1.523 . S
C742 C723 1.368 . S
C742 C736 1.368 . S
C742 C741 1.523 . S
C743 C727 1.429 . S
C743 C739 1.429 . S
C743 C744 1.523 . S
C744 C728 1.368 . S
C744 C740 1.368 . S
C744 C743 1.523 . S
H745 C720 0.950 . S
H746 C722 0.950 . S
H747 C723 0.949 . S
H748 C725 0.950 . S
H749 C727 0.950 . S
C750 C751 1.349 . S
C750 C752 1.327 . S
C750 H775 0.950 . S
C751 C750 1.349 . S
C751 C767 1.349 . S
C752 C750 1.327 . S
C752 C771 1.429 . S
C752 H776 0.950 . S
C753 C770 1.574 . S
C753 C772 1.368 . S
C753 H777 0.949 . S
H754 C758 0.949 . S
C755 C756 1.349 . S
C755 C757 1.327 . S
C755 H778 0.950 . S
C756 C755 1.349 . S
C756 C768 1.349 . S
C757 C755 1.327 . S
C757 C773 1.429 . S
C757 H779 0.950 . S
C758 H754 0.949 . S
C758 C766 1.574 . S
C758 C774 1.368 . S
H759 C767 0.950 . S
H760 C765 0.950 . S
H761 C766 0.949 . S
H762 C768 0.950 . S
H763 C769 0.950 . S
H764 C770 0.949 . S
C765 H760 0.950 . S
C765 C767 1.327 . S
C765 C771 1.429 . S
C766 C758 1.574 . S
C766 H761 0.949 . S
C766 C772 1.368 . S
C767 C751 1.349 . S
C767 H759 0.950 . S
C767 C765 1.327 . S
C768 C756 1.349 . S
C768 H762 0.950 . S
C768 C769 1.327 . S
C769 H763 0.950 . S
C769 C768 1.327 . S
C769 C773 1.429 . S
C770 C753 1.574 . S
C770 H764 0.949 . S
C770 C774 1.368 . S
C771 C752 1.429 . S
C771 C765 1.429 . S
C771 C772 1.523 . S
C772 C753 1.368 . S
C772 C766 1.368 . S
C772 C771 1.523 . S
C773 C757 1.429 . S
C773 C769 1.429 . S
C773 C774 1.523 . S
C774 C758 1.368 . S
C774 C770 1.368 . S
C774 C773 1.523 . S
H775 C750 0.950 . S
H776 C752 0.950 . S
H777 C753 0.949 . S
H778 C755 0.950 . S
H779 C757 0.950 . S
C780 C781 1.349 . S
C780 C782 1.327 . S
C780 H805 0.950 . S
C781 C780 1.349 . S
C781 C797 1.349 . S
C782 C780 1.327 . S
C782 C801 1.429 . S
C782 H806 0.950 . S
C783 C800 1.574 . S
C783 C802 1.368 . S
C783 H807 0.949 . S
H784 C788 0.949 . S
C785 C786 1.349 . S
C785 C787 1.327 . S
C785 H808 0.950 . S
C786 C785 1.349 . S
C786 C798 1.349 . S
C787 C785 1.327 . S
C787 C803 1.429 . S
C787 H809 0.950 . S
C788 H784 0.949 . S
C788 C796 1.574 . S
C788 C804 1.368 . S
H789 C797 0.950 . S
H790 C795 0.950 . S
H791 C796 0.949 . S
H792 C798 0.950 . S
H793 C799 0.950 . S
H794 C800 0.949 . S
C795 H790 0.950 . S
C795 C797 1.327 . S
C795 C801 1.429 . S
C796 C788 1.574 . S
C796 H791 0.949 . S
C796 C802 1.368 . S
C797 C781 1.349 . S
C797 H789 0.950 . S
C797 C795 1.327 . S
C798 C786 1.349 . S
C798 H792 0.950 . S
C798 C799 1.327 . S
C799 H793 0.950 . S
C799 C798 1.327 . S
C799 C803 1.429 . S
C800 C783 1.574 . S
C800 H794 0.949 . S
C800 C804 1.368 . S
C801 C782 1.429 . S
C801 C795 1.429 . S
C801 C802 1.523 . S
C802 C783 1.368 . S
C802 C796 1.368 . S
C802 C801 1.523 . S
C803 C787 1.429 . S
C803 C799 1.429 . S
C803 C804 1.523 . S
C804 C788 1.368 . S
C804 C800 1.368 . S
C804 C803 1.523 . S
H805 C780 0.950 . S
H806 C782 0.950 . S
H807 C783 0.949 . S
H808 C785 0.950 . S
H809 C787 0.950 . S
C810 C811 1.349 . S
C810 C812 1.327 . S
C810 H835 0.950 . S
C811 C810 1.349 . S
C811 C827 1.349 . S
C812 C810 1.327 . S
C812 C831 1.429 . S
C812 H836 0.950 . S
C813 C830 1.574 . S
C813 C832 1.368 . S
C813 H837 0.949 . S
H814 C818 0.949 . S
C815 C816 1.349 . S
C815 C817 1.327 . S
C815 H838 0.950 . S
C816 C815 1.349 . S
C816 C828 1.349 . S
C817 C815 1.327 . S
C817 C833 1.429 . S
C817 H839 0.950 . S
C818 H814 0.949 . S
C818 C826 1.574 . S
C818 C834 1.368 . S
H819 C827 0.950 . S
H820 C825 0.950 . S
H821 C826 0.949 . S
H822 C828 0.950 . S
H823 C829 0.950 . S
H824 C830 0.949 . S
C825 H820 0.950 . S
C825 C827 1.327 . S
C825 C831 1.429 . S
C826 C818 1.574 . S
C826 H821 0.949 . S
C826 C832 1.368 . S
C827 C811 1.349 . S
C827 H819 0.950 . S
C827 C825 1.327 . S
C828 C816 1.349 . S
C828 H822 0.950 . S
C828 C829 1.327 . S
C829 H823 0.950 . S
C829 C828 1.327 . S
C829 C833 1.429 . S
C830 C813 1.574 . S
C830 H824 0.949 . S
C830 C834 1.368 . S
C831 C812 1.429 . S
C831 C825 1.429 . S
C831 C832 1.523 . S
C832 C813 1.368 . S
C832 C826 1.368 . S
C832 C831 1.523 . S
C833 C817 1.429 . S
C833 C829 1.429 . S
C833 C834 1.523 . S
C834 C818 1.368 . S
C834 C830 1.368 . S
C834 C833 1.523 . S
H835 C810 0.950 . S
H836 C812 0.950 . S
H837 C813 0.949 . S
H838 C815 0.950 . S
H839 C817 0.950 . S
C840 C841 1.349 . S
C840 C842 1.327 . S
C840 H865 0.950 . S
C841 C840 1.349 . S
C841 C857 1.349 . S
C842 C840 1.327 . S
C842 C861 1.429 . S
C842 H866 0.950 . S
C843 C860 1.574 . S
C843 C862 1.368 . S
C843 H867 0.949 . S
H844 C848 0.949 . S
C845 C846 1.349 . S
C845 C847 1.327 . S
C845 H868 0.950 . S
C846 C845 1.349 . S
C846 C858 1.349 . S
C847 C845 1.327 . S
C847 C863 1.429 . S
C847 H869 0.950 . S
C848 H844 0.949 . S
C848 C856 1.574 . S
C848 C864 1.368 . S
H849 C857 0.950 . S
H850 C855 0.950 . S
H851 C856 0.949 . S
H852 C858 0.950 . S
H853 C859 0.950 . S
H854 C860 0.949 . S
C855 H850 0.950 . S
C855 C857 1.327 . S
C855 C861 1.429 . S
C856 C848 1.574 . S
C856 H851 0.949 . S
C856 C862 1.368 . S
C857 C841 1.349 . S
C857 H849 0.950 . S
C857 C855 1.327 . S
C858 C846 1.349 . S
C858 H852 0.950 . S
C858 C859 1.327 . S
C859 H853 0.950 . S
C859 C858 1.327 . S
C859 C863 1.429 . S
C860 C843 1.574 . S
C860 H854 0.949 . S
C860 C864 1.368 . S
C861 C842 1.429 . S
C861 C855 1.429 . S
C861 C862 1.523 . S
C862 C843 1.368 . S
C862 C856 1.368 . S
C862 C861 1.523 . S
C863 C847 1.429 . S
C863 C859 1.429 . S
C863 C864 1.523 . S
C864 C848 1.368 . S
C864 C860 1.368 . S
C864 C863 1.523 . S
H865 C840 0.950 . S
H866 C842 0.950 . S
H867 C843 0.949 . S
H868 C845 0.950 . S
H869 C847 0.950 . S
C870 C871 1.349 . S
C870 C872 1.327 . S
C870 H895 0.950 . S
C871 C870 1.349 . S
C871 C887 1.349 . S
C872 C870 1.327 . S
C872 C891 1.429 . S
C872 H896 0.950 . S
C873 C890 1.574 . S
C873 C892 1.368 . S
C873 H897 0.949 . S
H874 C878 0.949 . S
C875 C876 1.349 . S
C875 C877 1.327 . S
C875 H898 0.950 . S
C876 C875 1.349 . S
C876 C888 1.349 . S
C877 C875 1.327 . S
C877 C893 1.429 . S
C877 H899 0.950 . S
C878 H874 0.949 . S
C878 C886 1.574 . S
C878 C894 1.368 . S
H879 C887 0.950 . S
H880 C885 0.950 . S
H881 C886 0.949 . S
H882 C888 0.950 . S
H883 C889 0.950 . S
H884 C890 0.949 . S
C885 H880 0.950 . S
C885 C887 1.327 . S
C885 C891 1.429 . S
C886 C878 1.574 . S
C886 H881 0.949 . S
C886 C892 1.368 . S
C887 C871 1.349 . S
C887 H879 0.950 . S
C887 C885 1.327 . S
C888 C876 1.349 . S
C888 H882 0.950 . S
C888 C889 1.327 . S
C889 H883 0.950 . S
C889 C888 1.327 . S
C889 C893 1.429 . S
C890 C873 1.574 . S
C890 H884 0.949 . S
C890 C894 1.368 . S
C891 C872 1.429 . S
C891 C885 1.429 . S
C891 C892 1.523 . S
C892 C873 1.368 . S
C892 C886 1.368 . S
C892 C891 1.523 . S
C893 C877 1.429 . S
C893 C889 1.429 . S
C893 C894 1.523 . S
C894 C878 1.368 . S
C894 C890 1.368 . S
C894 C893 1.523 . S
H895 C870 0.950 . S
H896 C872 0.950 . S
H897 C873 0.949 . S
H898 C875 0.950 . S
H899 C877 0.950 . S
C900 C901 1.349 . S
C900 C902 1.327 . S
C900 H925 0.950 . S
C901 C900 1.349 . S
C901 C917 1.349 . S
C902 C900 1.327 . S
C902 C921 1.429 . S
C902 H926 0.950 . S
C903 C920 1.574 . S
C903 C922 1.368 . S
C903 H927 0.949 . S
H904 C908 0.949 . S
C905 C906 1.349 . S
C905 C907 1.327 . S
C905 H928 0.950 . S
C906 C905 1.349 . S
C906 C918 1.349 . S
C907 C905 1.327 . S
C907 C923 1.429 . S
C907 H929 0.950 . S
C908 H904 0.949 . S
C908 C916 1.574 . S
C908 C924 1.368 . S
H909 C917 0.950 . S
H910 C915 0.950 . S
H911 C916 0.949 . S
H912 C918 0.950 . S
H913 C919 0.950 . S
H914 C920 0.949 . S
C915 H910 0.950 . S
C915 C917 1.327 . S
C915 C921 1.429 . S
C916 C908 1.574 . S
C916 H911 0.949 . S
C916 C922 1.368 . S
C917 C901 1.349 . S
C917 H909 0.950 . S
C917 C915 1.327 . S
C918 C906 1.349 . S
C918 H912 0.950 . S
C918 C919 1.327 . S
C919 H913 0.950 . S
C919 C918 1.327 . S
C919 C923 1.429 . S
C920 C903 1.574 . S
C920 H914 0.949 . S
C920 C924 1.368 . S
C921 C902 1.429 . S
C921 C915 1.429 . S
C921 C922 1.523 . S
C922 C903 1.368 . S
C922 C916 1.368 . S
C922 C921 1.523 . S
C923 C907 1.429 . S
C923 C919 1.429 . S
C923 C924 1.523 . S
C924 C908 1.368 . S
C924 C920 1.368 . S
C924 C923 1.523 . S
H925 C900 0.950 . S
H926 C902 0.950 . S
H927 C903 0.949 . S
H928 C905 0.950 . S
H929 C907 0.950 . S
C930 C931 1.349 . S
C930 C932 1.327 . S
C930 H955 0.950 1_554 S
C931 C930 1.349 . S
C931 C947 1.349 . S
C932 C930 1.327 . S
C932 C951 1.429 . S
C932 H956 0.950 . S
C933 C950 1.574 . S
C933 C952 1.368 . S
C933 H957 0.949 . S
H934 C938 0.949 . S
C935 C936 1.349 . S
C935 C937 1.327 . S
C935 H958 0.950 . S
C936 C935 1.349 . S
C936 C948 1.349 . S
C937 C935 1.327 . S
C937 C953 1.429 . S
C937 H959 0.950 . S
C938 H934 0.949 . S
C938 C946 1.574 . S
C938 C954 1.368 . S
H939 C947 0.950 . S
H940 C945 0.950 . S
H941 C946 0.949 . S
H942 C948 0.950 . S
H943 C949 0.950 . S
H944 C950 0.949 . S
C945 H940 0.950 . S
C945 C947 1.327 . S
C945 C951 1.429 . S
C946 C938 1.574 . S
C946 H941 0.949 . S
C946 C952 1.368 . S
C947 C931 1.349 . S
C947 H939 0.950 . S
C947 C945 1.327 . S
C948 C936 1.349 . S
C948 H942 0.950 . S
C948 C949 1.327 . S
C949 H943 0.950 . S
C949 C948 1.327 . S
C949 C953 1.429 . S
C950 C933 1.574 . S
C950 H944 0.949 . S
C950 C954 1.368 . S
C951 C932 1.429 . S
C951 C945 1.429 . S
C951 C952 1.523 . S
C952 C933 1.368 . S
C952 C946 1.368 . S
C952 C951 1.523 . S
C953 C937 1.429 . S
C953 C949 1.429 . S
C953 C954 1.523 . S
C954 C938 1.368 . S
C954 C950 1.368 . S
C954 C953 1.523 . S
H955 C930 0.950 1_556 S
H956 C932 0.950 . S
H957 C933 0.949 . S
H958 C935 0.950 . S
H959 C937 0.950 . S
C960 C961 1.349 . S
C960 C962 1.327 . S
C960 H985 0.950 . S
C961 C960 1.349 . S
C961 C977 1.349 . S
C962 C960 1.327 . S
C962 C981 1.429 . S
C962 H986 0.950 . S
C963 C980 1.574 . S
C963 C982 1.368 . S
C963 H987 0.949 . S
H964 C968 0.949 . S
C965 C966 1.349 . S
C965 C967 1.327 . S
C965 H988 0.950 . S
C966 C965 1.349 . S
C966 C978 1.349 . S
C967 C965 1.327 . S
C967 C983 1.429 . S
C967 H989 0.950 . S
C968 H964 0.949 . S
C968 C976 1.574 . S
C968 C984 1.368 . S
H969 C977 0.950 . S
H970 C975 0.950 . S
H971 C976 0.949 . S
H972 C978 0.950 . S
H973 C979 0.950 . S
H974 C980 0.949 . S
C975 H970 0.950 . S
C975 C977 1.327 . S
C975 C981 1.429 . S
C976 C968 1.574 . S
C976 H971 0.949 . S
C976 C982 1.368 . S
C977 C961 1.349 . S
C977 H969 0.950 . S
C977 C975 1.327 . S
C978 C966 1.349 . S
C978 H972 0.950 . S
C978 C979 1.327 . S
C979 H973 0.950 . S
C979 C978 1.327 . S
C979 C983 1.429 . S
C980 C963 1.574 . S
C980 H974 0.949 . S
C980 C984 1.368 . S
C981 C962 1.429 . S
C981 C975 1.429 . S
C981 C982 1.523 . S
C982 C963 1.368 . S
C982 C976 1.368 . S
C982 C981 1.523 . S
C983 C967 1.429 . S
C983 C979 1.429 . S
C983 C984 1.523 . S
C984 C968 1.368 . S
C984 C980 1.368 . S
C984 C983 1.523 . S
H985 C960 0.950 . S
H986 C962 0.950 . S
H987 C963 0.949 . S
H988 C965 0.950 . S
H989 C967 0.950 . S
C990 C991 1.349 . S
C990 C992 1.327 . S
C990 H1015 0.950 . S
C991 C990 1.349 . S
C991 C1007 1.349 . S
C992 C990 1.327 . S
C992 C1011 1.429 . S
C992 H1016 0.950 . S
C993 C1010 1.574 . S
C993 C1012 1.368 . S
C993 H1017 0.949 . S
H994 C998 0.949 . S
C995 C996 1.349 . S
C995 C997 1.327 . S
C995 H1018 0.950 . S
C996 C995 1.349 . S
C996 C1008 1.349 . S
C997 C995 1.327 . S
C997 C1013 1.429 . S
C997 H1019 0.950 . S
C998 H994 0.949 . S
C998 C1006 1.574 . S
C998 C1014 1.368 . S
H999 C1007 0.950 . S
H1000 C1005 0.950 . S
H1001 C1006 0.949 . S
H1002 C1008 0.950 . S
H1003 C1009 0.950 . S
H1004 C1010 0.949 . S
C1005 H1000 0.950 . S
C1005 C1007 1.327 . S
C1005 C1011 1.429 . S
C1006 C998 1.574 . S
C1006 H1001 0.949 . S
C1006 C1012 1.368 . S
C1007 C991 1.349 . S
C1007 H999 0.950 . S
C1007 C1005 1.327 . S
C1008 C996 1.349 . S
C1008 H1002 0.950 . S
C1008 C1009 1.327 . S
C1009 H1003 0.950 . S
C1009 C1008 1.327 . S
C1009 C1013 1.429 . S
C1010 C993 1.574 . S
C1010 H1004 0.949 . S
C1010 C1014 1.368 . S
C1011 C992 1.429 . S
C1011 C1005 1.429 . S
C1011 C1012 1.523 . S
C1012 C993 1.368 . S
C1012 C1006 1.368 . S
C1012 C1011 1.523 . S
C1013 C997 1.429 . S
C1013 C1009 1.429 . S
C1013 C1014 1.523 . S
C1014 C998 1.368 . S
C1014 C1010 1.368 . S
C1014 C1013 1.523 . S
H1015 C990 0.950 . S
H1016 C992 0.950 . S
H1017 C993 0.949 . S
H1018 C995 0.950 . S
H1019 C997 0.950 . S
C1020 C1021 1.349 . S
C1020 C1022 1.327 . S
C1020 H1045 0.950 . S
C1021 C1020 1.349 . S
C1021 C1037 1.349 . S
C1022 C1020 1.327 . S
C1022 C1041 1.429 . S
C1022 H1046 0.950 . S
C1023 C1040 1.574 . S
C1023 C1042 1.368 . S
C1023 H1047 0.949 . S
H1024 C1028 0.949 . S
C1025 C1026 1.349 . S
C1025 C1027 1.327 . S
C1025 H1048 0.950 . S
C1026 C1025 1.349 . S
C1026 C1038 1.349 . S
C1027 C1025 1.327 . S
C1027 C1043 1.429 . S
C1027 H1049 0.950 . S
C1028 H1024 0.949 . S
C1028 C1036 1.574 . S
C1028 C1044 1.368 . S
H1029 C1037 0.950 . S
H1030 C1035 0.950 . S
H1031 C1036 0.949 . S
H1032 C1038 0.950 . S
H1033 C1039 0.950 . S
H1034 C1040 0.949 . S
C1035 H1030 0.950 . S
C1035 C1037 1.327 . S
C1035 C1041 1.429 . S
C1036 C1028 1.574 . S
C1036 H1031 0.949 . S
C1036 C1042 1.368 . S
C1037 C1021 1.349 . S
C1037 H1029 0.950 . S
C1037 C1035 1.327 . S
C1038 C1026 1.349 . S
C1038 H1032 0.950 . S
C1038 C1039 1.327 . S
C1039 H1033 0.950 . S
C1039 C1038 1.327 . S
C1039 C1043 1.429 . S
C1040 C1023 1.574 . S
C1040 H1034 0.949 . S
C1040 C1044 1.368 . S
C1041 C1022 1.429 . S
C1041 C1035 1.429 . S
C1041 C1042 1.523 . S
C1042 C1023 1.368 . S
C1042 C1036 1.368 . S
C1042 C1041 1.523 . S
C1043 C1027 1.429 . S
C1043 C1039 1.429 . S
C1043 C1044 1.523 . S
C1044 C1028 1.368 . S
C1044 C1040 1.368 . S
C1044 C1043 1.523 . S
H1045 C1020 0.950 . S
H1046 C1022 0.950 . S
H1047 C1023 0.949 . S
H1048 C1025 0.950 . S
H1049 C1027 0.950 . S
C1050 C1051 1.349 . S
C1050 C1052 1.327 . S
C1050 H1075 0.950 . S
C1051 C1050 1.349 . S
C1051 C1067 1.349 . S
C1052 C1050 1.327 . S
C1052 C1071 1.429 . S
C1052 H1076 0.950 . S
C1053 C1070 1.574 . S
C1053 C1072 1.368 . S
C1053 H1077 0.949 . S
H1054 C1058 0.949 . S
C1055 C1056 1.349 . S
C1055 C1057 1.327 . S
C1055 H1078 0.950 . S
C1056 C1055 1.349 . S
C1056 C1068 1.349 . S
C1057 C1055 1.327 . S
C1057 C1073 1.429 . S
C1057 H1079 0.950 . S
C1058 H1054 0.949 . S
C1058 C1066 1.574 . S
C1058 C1074 1.368 . S
H1059 C1067 0.950 . S
H1060 C1065 0.950 . S
H1061 C1066 0.949 . S
H1062 C1068 0.950 . S
H1063 C1069 0.950 . S
H1064 C1070 0.949 . S
C1065 H1060 0.950 . S
C1065 C1067 1.327 . S
C1065 C1071 1.429 . S
C1066 C1058 1.574 . S
C1066 H1061 0.949 . S
C1066 C1072 1.368 . S
C1067 C1051 1.349 . S
C1067 H1059 0.950 . S
C1067 C1065 1.327 . S
C1068 C1056 1.349 . S
C1068 H1062 0.950 . S
C1068 C1069 1.327 . S
C1069 H1063 0.950 . S
C1069 C1068 1.327 . S
C1069 C1073 1.429 . S
C1070 C1053 1.574 . S
C1070 H1064 0.949 . S
C1070 C1074 1.368 . S
C1071 C1052 1.429 . S
C1071 C1065 1.429 . S
C1071 C1072 1.523 . S
C1072 C1053 1.368 . S
C1072 C1066 1.368 . S
C1072 C1071 1.523 . S
C1073 C1057 1.429 . S
C1073 C1069 1.429 . S
C1073 C1074 1.523 . S
C1074 C1058 1.368 . S
C1074 C1070 1.368 . S
C1074 C1073 1.523 . S
H1075 C1050 0.950 . S
H1076 C1052 0.950 . S
H1077 C1053 0.949 . S
H1078 C1055 0.950 . S
H1079 C1057 0.950 . S
C1080 C1081 1.349 . S
C1080 C1082 1.327 . S
C1080 H1105 0.950 . S
C1081 C1080 1.349 . S
C1081 C1097 1.349 . S
C1082 C1080 1.327 . S
C1082 C1101 1.429 . S
C1082 H1106 0.950 . S
C1083 C1100 1.574 . S
C1083 C1102 1.368 . S
C1083 H1107 0.949 . S
H1084 C1088 0.949 . S
C1085 C1086 1.349 . S
C1085 C1087 1.327 . S
C1085 H1108 0.950 . S
C1086 C1085 1.349 . S
C1086 C1098 1.349 . S
C1087 C1085 1.327 . S
C1087 C1103 1.429 . S
C1087 H1109 0.950 . S
C1088 H1084 0.949 . S
C1088 C1096 1.574 . S
C1088 C1104 1.368 . S
H1089 C1097 0.950 . S
H1090 C1095 0.950 . S
H1091 C1096 0.949 . S
H1092 C1098 0.950 . S
H1093 C1099 0.950 . S
H1094 C1100 0.949 . S
C1095 H1090 0.950 . S
C1095 C1097 1.327 . S
C1095 C1101 1.429 . S
C1096 C1088 1.574 . S
C1096 H1091 0.949 . S
C1096 C1102 1.368 . S
C1097 C1081 1.349 . S
C1097 H1089 0.950 . S
C1097 C1095 1.327 . S
C1098 C1086 1.349 . S
C1098 H1092 0.950 . S
C1098 C1099 1.327 . S
C1099 H1093 0.950 . S
C1099 C1098 1.327 . S
C1099 C1103 1.429 . S
C1100 C1083 1.574 . S
C1100 H1094 0.949 . S
C1100 C1104 1.368 . S
C1101 C1082 1.429 . S
C1101 C1095 1.429 . S
C1101 C1102 1.523 . S
C1102 C1083 1.368 . S
C1102 C1096 1.368 . S
C1102 C1101 1.523 . S
C1103 C1087 1.429 . S
C1103 C1099 1.429 . S
C1103 C1104 1.523 . S
C1104 C1088 1.368 . S
C1104 C1100 1.368 . S
C1104 C1103 1.523 . S
H1105 C1080 0.950 . S
H1106 C1082 0.950 . S
H1107 C1083 0.949 . S
H1108 C1085 0.950 . S
H1109 C1087 0.950 . S
C1110 C1111 1.349 . S
C1110 C1112 1.327 . S
C1110 H1135 0.950 . S
C1111 C1110 1.349 . S
C1111 C1127 1.349 . S
C1112 C1110 1.327 . S
C1112 C1131 1.429 . S
C1112 H1136 0.950 . S
C1113 C1130 1.574 . S
C1113 C1132 1.368 . S
C1113 H1137 0.949 . S
H1114 C1118 0.949 . S
C1115 C1116 1.349 . S
C1115 C1117 1.327 . S
C1115 H1138 0.950 . S
C1116 C1115 1.349 . S
C1116 C1128 1.349 . S
C1117 C1115 1.327 . S
C1117 C1133 1.429 1_554 S
C1117 H1139 0.950 1_554 S
C1118 H1114 0.949 . S
C1118 C1126 1.574 . S
C1118 C1134 1.368 . S
H1119 C1127 0.950 . S
H1120 C1125 0.950 . S
H1121 C1126 0.949 . S
H1122 C1128 0.950 . S
H1123 C1129 0.958 . S
H1124 C1130 0.949 . S
C1125 H1120 0.950 . S
C1125 C1127 1.327 . S
C1125 C1131 1.429 . S
C1126 C1118 1.574 . S
C1126 H1121 0.949 . S
C1126 C1132 1.368 . S
C1127 C1111 1.349 . S
C1127 H1119 0.950 . S
C1127 C1125 1.327 . S
C1128 C1116 1.349 . S
C1128 H1122 0.950 . S
C1128 C1129 1.313 1_554 S
C1129 H1123 0.958 . S
C1129 C1128 1.313 1_556 S
C1129 C1133 1.435 . S
C1130 C1113 1.574 . S
C1130 H1124 0.949 . S
C1130 C1134 1.368 . S
C1131 C1112 1.429 . S
C1131 C1125 1.429 . S
C1131 C1132 1.523 . S
C1132 C1113 1.368 . S
C1132 C1126 1.368 . S
C1132 C1131 1.523 . S
C1133 C1117 1.429 1_556 S
C1133 C1129 1.435 . S
C1133 C1134 1.523 . S
C1134 C1118 1.368 . S
C1134 C1130 1.368 . S
C1134 C1133 1.523 . S
H1135 C1110 0.950 . S
H1136 C1112 0.950 . S
H1137 C1113 0.949 . S
H1138 C1115 0.950 . S
H1139 C1117 0.950 1_556 S
C1140 C1141 1.343 1_545 S
C1140 C1142 1.319 1_545 S
C1140 H1165 0.964 . S
C1141 C1140 1.343 1_565 S
C1141 C1157 1.349 . S
C1142 C1140 1.319 1_565 S
C1142 C1161 1.429 . S
C1142 H1166 0.950 . S
C1143 C1160 1.574 . S
C1143 C1162 1.368 . S
C1143 H1167 0.949 . S
H1144 C1148 0.949 . S
C1145 C1146 1.349 . S
C1145 C1147 1.327 . S
C1145 H1168 0.950 . S
C1146 C1145 1.349 . S
C1146 C1158 1.349 . S
C1147 C1145 1.327 . S
C1147 C1163 1.429 . S
C1147 H1169 0.950 . S
C1148 H1144 0.949 . S
C1148 C1156 1.574 . S
C1148 C1164 1.368 . S
H1149 C1157 0.950 . S
H1150 C1155 0.950 . S
H1151 C1156 0.949 . S
H1152 C1158 0.950 . S
H1153 C1159 0.950 . S
H1154 C1160 0.949 . S
C1155 H1150 0.950 . S
C1155 C1157 1.327 . S
C1155 C1161 1.429 . S
C1156 C1148 1.574 . S
C1156 H1151 0.949 . S
C1156 C1162 1.368 . S
C1157 C1141 1.349 . S
C1157 H1149 0.950 . S
C1157 C1155 1.327 . S
C1158 C1146 1.349 . S
C1158 H1152 0.950 . S
C1158 C1159 1.327 . S
C1159 H1153 0.950 . S
C1159 C1158 1.327 . S
C1159 C1163 1.429 . S
C1160 C1143 1.574 . S
C1160 H1154 0.949 . S
C1160 C1164 1.368 . S
C1161 C1142 1.429 . S
C1161 C1155 1.429 . S
C1161 C1162 1.523 . S
C1162 C1143 1.368 . S
C1162 C1156 1.368 . S
C1162 C1161 1.523 . S
C1163 C1147 1.429 . S
C1163 C1159 1.429 . S
C1163 C1164 1.523 . S
C1164 C1148 1.368 . S
C1164 C1160 1.368 . S
C1164 C1163 1.523 . S
H1165 C1140 0.964 . S
H1166 C1142 0.950 . S
H1167 C1143 0.949 . S
H1168 C1145 0.950 . S
H1169 C1147 0.950 . S
C1170 C1171 1.349 . S
C1170 C1172 1.327 . S
C1170 H1195 0.950 . S
C1171 C1170 1.349 . S
C1171 C1187 1.349 . S
C1172 C1170 1.327 . S
C1172 C1191 1.429 . S
C1172 H1196 0.950 . S
C1173 C1190 1.574 . S
C1173 C1192 1.368 . S
C1173 H1197 0.949 . S
H1174 C1178 0.949 . S
C1175 C1176 1.349 . S
C1175 C1177 1.327 . S
C1175 H1198 0.950 . S
C1176 C1175 1.349 . S
C1176 C1188 1.349 . S
C1177 C1175 1.327 . S
C1177 C1193 1.429 . S
C1177 H1199 0.950 . S
C1178 H1174 0.949 . S
C1178 C1186 1.574 . S
C1178 C1194 1.368 . S
H1179 C1187 0.950 . S
H1180 C1185 0.950 . S
H1181 C1186 0.949 . S
H1182 C1188 0.950 . S
H1183 C1189 0.950 . S
H1184 C1190 0.949 . S
C1185 H1180 0.950 . S
C1185 C1187 1.327 . S
C1185 C1191 1.429 . S
C1186 C1178 1.574 . S
C1186 H1181 0.949 . S
C1186 C1192 1.368 . S
C1187 C1171 1.349 . S
C1187 H1179 0.950 . S
C1187 C1185 1.327 . S
C1188 C1176 1.349 . S
C1188 H1182 0.950 . S
C1188 C1189 1.327 . S
C1189 H1183 0.950 . S
C1189 C1188 1.327 . S
C1189 C1193 1.429 . S
C1190 C1173 1.574 . S
C1190 H1184 0.949 . S
C1190 C1194 1.368 . S
C1191 C1172 1.429 . S
C1191 C1185 1.429 . S
C1191 C1192 1.523 . S
C1192 C1173 1.368 . S
C1192 C1186 1.368 . S
C1192 C1191 1.523 . S
C1193 C1177 1.429 . S
C1193 C1189 1.429 . S
C1193 C1194 1.523 . S
C1194 C1178 1.368 . S
C1194 C1190 1.368 . S
C1194 C1193 1.523 . S
H1195 C1170 0.950 . S
H1196 C1172 0.950 . S
H1197 C1173 0.949 . S
H1198 C1175 0.950 . S
H1199 C1177 0.950 . S
C1200 C1201 1.349 . S
C1200 C1202 1.327 . S
C1200 H1225 0.950 . S
C1201 C1200 1.349 . S
C1201 C1217 1.349 . S
C1202 C1200 1.327 . S
C1202 C1221 1.429 . S
C1202 H1226 0.950 . S
C1203 C1220 1.574 . S
C1203 C1222 1.368 . S
C1203 H1227 0.949 . S
H1204 C1208 0.949 . S
C1205 C1206 1.349 . S
C1205 C1207 1.327 . S
C1205 H1228 0.950 . S
C1206 C1205 1.349 . S
C1206 C1218 1.349 . S
C1207 C1205 1.327 . S
C1207 C1223 1.429 . S
C1207 H1229 0.950 . S
C1208 H1204 0.949 . S
C1208 C1216 1.574 . S
C1208 C1224 1.368 . S
H1209 C1217 0.950 . S
H1210 C1215 0.950 . S
H1211 C1216 0.949 . S
H1212 C1218 0.950 . S
H1213 C1219 0.950 . S
H1214 C1220 0.949 . S
C1215 H1210 0.950 . S
C1215 C1217 1.327 . S
C1215 C1221 1.429 . S
C1216 C1208 1.574 . S
C1216 H1211 0.949 . S
C1216 C1222 1.368 . S
C1217 C1201 1.349 . S
C1217 H1209 0.950 . S
C1217 C1215 1.327 . S
C1218 C1206 1.349 . S
C1218 H1212 0.950 . S
C1218 C1219 1.327 . S
C1219 H1213 0.950 . S
C1219 C1218 1.327 . S
C1219 C1223 1.429 . S
C1220 C1203 1.574 . S
C1220 H1214 0.949 . S
C1220 C1224 1.368 . S
C1221 C1202 1.429 . S
C1221 C1215 1.429 . S
C1221 C1222 1.523 . S
C1222 C1203 1.368 . S
C1222 C1216 1.368 . S
C1222 C1221 1.523 . S
C1223 C1207 1.429 . S
C1223 C1219 1.429 . S
C1223 C1224 1.523 . S
C1224 C1208 1.368 . S
C1224 C1220 1.368 . S
C1224 C1223 1.523 . S
H1225 C1200 0.950 . S
H1226 C1202 0.950 . S
H1227 C1203 0.949 . S
H1228 C1205 0.950 . S
H1229 C1207 0.950 . S
C1230 C1231 1.349 . S
C1230 C1232 1.327 . S
C1230 H1255 0.950 . S
C1231 C1230 1.349 . S
C1231 C1247 1.349 . S
C1232 C1230 1.327 . S
C1232 C1251 1.429 . S
C1232 H1256 0.950 . S
C1233 C1250 1.574 . S
C1233 C1252 1.368 . S
C1233 H1257 0.949 . S
H1234 C1238 0.949 . S
C1235 C1236 1.349 . S
C1235 C1237 1.327 . S
C1235 H1258 0.950 . S
C1236 C1235 1.349 . S
C1236 C1248 1.349 . S
C1237 C1235 1.327 . S
C1237 C1253 1.429 . S
C1237 H1259 0.950 . S
C1238 H1234 0.949 . S
C1238 C1246 1.574 . S
C1238 C1254 1.368 . S
H1239 C1247 0.950 . S
H1240 C1245 0.950 . S
H1241 C1246 0.949 . S
H1242 C1248 0.950 . S
H1243 C1249 0.950 . S
H1244 C1250 0.949 . S
C1245 H1240 0.950 . S
C1245 C1247 1.327 . S
C1245 C1251 1.429 . S
C1246 C1238 1.574 . S
C1246 H1241 0.949 . S
C1246 C1252 1.368 . S
C1247 C1231 1.349 . S
C1247 H1239 0.950 . S
C1247 C1245 1.327 . S
C1248 C1236 1.349 . S
C1248 H1242 0.950 . S
C1248 C1249 1.327 . S
C1249 H1243 0.950 . S
C1249 C1248 1.327 . S
C1249 C1253 1.429 . S
C1250 C1233 1.574 . S
C1250 H1244 0.949 . S
C1250 C1254 1.368 . S
C1251 C1232 1.429 . S
C1251 C1245 1.429 . S
C1251 C1252 1.523 . S
C1252 C1233 1.368 . S
C1252 C1246 1.368 . S
C1252 C1251 1.523 . S
C1253 C1237 1.429 . S
C1253 C1249 1.429 . S
C1253 C1254 1.523 . S
C1254 C1238 1.368 . S
C1254 C1250 1.368 . S
C1254 C1253 1.523 . S
H1255 C1230 0.950 . S
H1256 C1232 0.950 . S
H1257 C1233 0.949 . S
H1258 C1235 0.950 . S
H1259 C1237 0.950 . S
C1260 C1261 1.349 . S
C1260 C1262 1.327 . S
C1260 H1285 0.950 . S
C1261 C1260 1.349 . S
C1261 C1277 1.349 . S
C1262 C1260 1.327 . S
C1262 C1281 1.429 . S
C1262 H1286 0.950 . S
C1263 C1280 1.574 . S
C1263 C1282 1.368 . S
C1263 H1287 0.949 . S
H1264 C1268 0.949 . S
C1265 C1266 1.349 . S
C1265 C1267 1.327 . S
C1265 H1288 0.950 . S
C1266 C1265 1.349 . S
C1266 C1278 1.349 . S
C1267 C1265 1.327 . S
C1267 C1283 1.429 . S
C1267 H1289 0.950 . S
C1268 H1264 0.949 . S
C1268 C1276 1.574 . S
C1268 C1284 1.368 . S
H1269 C1277 0.950 . S
H1270 C1275 0.950 . S
H1271 C1276 0.949 . S
H1272 C1278 0.950 . S
H1273 C1279 0.950 . S
H1274 C1280 0.949 . S
C1275 H1270 0.950 . S
C1275 C1277 1.327 . S
C1275 C1281 1.429 . S
C1276 C1268 1.574 . S
C1276 H1271 0.949 . S
C1276 C1282 1.368 . S
C1277 C1261 1.349 . S
C1277 H1269 0.950 . S
C1277 C1275 1.327 . S
C1278 C1266 1.349 . S
C1278 H1272 0.950 . S
C1278 C1279 1.327 . S
C1279 H1273 0.950 . S
C1279 C1278 1.327 . S
C1279 C1283 1.429 . S
C1280 C1263 1.574 . S
C1280 H1274 0.949 . S
C1280 C1284 1.368 . S
C1281 C1262 1.429 . S
C1281 C1275 1.429 . S
C1281 C1282 1.523 . S
C1282 C1263 1.368 . S
C1282 C1276 1.368 . S
C1282 C1281 1.523 . S
C1283 C1267 1.429 . S
C1283 C1279 1.429 . S
C1283 C1284 1.523 . S
C1284 C1268 1.368 . S
C1284 C1280 1.368 . S
C1284 C1283 1.523 . S
H1285 C1260 0.950 . S
H1286 C1262 0.950 . S
H1287 C1263 0.949 . S
H1288 C1265 0.950 . S
H1289 C1267 0.950 . S
C1290 C1291 1.349 . S
C1290 C1292 1.327 . S
C1290 H1315 0.950 . S
C1291 C1290 1.349 . S
C1291 C1307 1.349 . S
C1292 C1290 1.327 . S
C1292 C1311 1.429 . S
C1292 H1316 0.950 . S
C1293 C1310 1.574 . S
C1293 C1312 1.368 . S
C1293 H1317 0.949 . S
H1294 C1298 0.949 . S
C1295 C1296 1.349 . S
C1295 C1297 1.327 . S
C1295 H1318 0.950 . S
C1296 C1295 1.349 . S
C1296 C1308 1.349 . S
C1297 C1295 1.327 . S
C1297 C1313 1.429 . S
C1297 H1319 0.950 . S
C1298 H1294 0.949 . S
C1298 C1306 1.574 . S
C1298 C1314 1.368 . S
H1299 C1307 0.950 . S
H1300 C1305 0.950 . S
H1301 C1306 0.949 . S
H1302 C1308 0.950 . S
H1303 C1309 0.950 . S
H1304 C1310 0.949 . S
C1305 H1300 0.950 . S
C1305 C1307 1.327 . S
C1305 C1311 1.429 . S
C1306 C1298 1.574 . S
C1306 H1301 0.949 . S
C1306 C1312 1.368 . S
C1307 C1291 1.349 . S
C1307 H1299 0.950 . S
C1307 C1305 1.327 . S
C1308 C1296 1.349 . S
C1308 H1302 0.950 . S
C1308 C1309 1.327 . S
C1309 H1303 0.950 . S
C1309 C1308 1.327 . S
C1309 C1313 1.429 . S
C1310 C1293 1.574 . S
C1310 H1304 0.949 . S
C1310 C1314 1.368 . S
C1311 C1292 1.429 . S
C1311 C1305 1.429 . S
C1311 C1312 1.523 . S
C1312 C1293 1.368 . S
C1312 C1306 1.368 . S
C1312 C1311 1.523 . S
C1313 C1297 1.429 . S
C1313 C1309 1.429 . S
C1313 C1314 1.523 . S
C1314 C1298 1.368 . S
C1314 C1310 1.368 . S
C1314 C1313 1.523 . S
H1315 C1290 0.950 . S
H1316 C1292 0.950 . S
H1317 C1293 0.949 . S
H1318 C1295 0.950 . S
H1319 C1297 0.950 . S
C1320 C1321 1.349 . S
C1320 C1322 1.327 . S
C1320 H1345 0.950 . S
C1321 C1320 1.349 . S
C1321 C1337 1.349 . S
C1322 C1320 1.327 . S
C1322 C1341 1.429 . S
C1322 H1346 0.950 . S
C1323 C1340 1.574 . S
C1323 C1342 1.368 . S
C1323 H1347 0.949 . S
H1324 C1328 0.949 . S
C1325 C1326 1.349 . S
C1325 C1327 1.327 . S
C1325 H1348 0.950 . S
C1326 C1325 1.349 . S
C1326 C1338 1.349 . S
C1327 C1325 1.327 . S
C1327 C1343 1.429 . S
C1327 H1349 0.950 . S
C1328 H1324 0.949 . S
C1328 C1336 1.574 . S
C1328 C1344 1.368 1_554 S
H1329 C1337 0.950 . S
H1330 C1335 0.950 . S
H1331 C1336 0.949 . S
H1332 C1338 0.950 . S
H1333 C1339 0.950 . S
H1334 C1340 0.949 1_556 S
C1335 H1330 0.950 . S
C1335 C1337 1.327 . S
C1335 C1341 1.429 . S
C1336 C1328 1.574 . S
C1336 H1331 0.949 . S
C1336 C1342 1.368 . S
C1337 C1321 1.349 . S
C1337 H1329 0.950 . S
C1337 C1335 1.327 . S
C1338 C1326 1.349 . S
C1338 H1332 0.950 . S
C1338 C1339 1.327 . S
C1339 H1333 0.950 . S
C1339 C1338 1.327 . S
C1339 C1343 1.429 . S
C1340 C1323 1.574 . S
C1340 H1334 0.949 1_554 S
C1340 C1344 1.368 1_554 S
C1341 C1322 1.429 . S
C1341 C1335 1.429 . S
C1341 C1342 1.523 . S
C1342 C1323 1.368 . S
C1342 C1336 1.368 . S
C1342 C1341 1.523 . S
C1343 C1327 1.429 . S
C1343 C1339 1.429 . S
C1343 C1344 1.523 . S
C1344 C1328 1.368 1_556 S
C1344 C1340 1.368 1_556 S
C1344 C1343 1.523 . S
H1345 C1320 0.950 . S
H1346 C1322 0.950 . S
H1347 C1323 0.949 . S
H1348 C1325 0.950 . S
H1349 C1327 0.950 . S
C1350 C1351 1.349 . S
C1350 C1352 1.327 . S
C1350 H1375 0.950 . S
C1351 C1350 1.349 . S
C1351 C1367 1.349 . S
C1352 C1350 1.327 . S
C1352 C1371 1.429 . S
C1352 H1376 0.950 . S
C1353 C1370 1.574 . S
C1353 C1372 1.368 . S
C1353 H1377 0.949 . S
H1354 C1358 0.949 . S
C1355 C1356 1.349 . S
C1355 C1357 1.327 . S
C1355 H1378 0.950 . S
C1356 C1355 1.349 . S
C1356 C1368 1.349 . S
C1357 C1355 1.327 . S
C1357 C1373 1.429 . S
C1357 H1379 0.950 . S
C1358 H1354 0.949 . S
C1358 C1366 1.574 . S
C1358 C1374 1.368 . S
H1359 C1367 0.950 . S
H1360 C1365 0.950 . S
H1361 C1366 0.949 . S
H1362 C1368 0.950 . S
H1363 C1369 0.950 . S
H1364 C1370 0.949 . S
C1365 H1360 0.950 . S
C1365 C1367 1.327 . S
C1365 C1371 1.429 . S
C1366 C1358 1.574 . S
C1366 H1361 0.949 . S
C1366 C1372 1.368 . S
C1367 C1351 1.349 . S
C1367 H1359 0.950 . S
C1367 C1365 1.327 . S
C1368 C1356 1.349 . S
C1368 H1362 0.950 . S
C1368 C1369 1.327 . S
C1369 H1363 0.950 . S
C1369 C1368 1.327 . S
C1369 C1373 1.429 . S
C1370 C1353 1.574 . S
C1370 H1364 0.949 . S
C1370 C1374 1.368 . S
C1371 C1352 1.429 . S
C1371 C1365 1.429 . S
C1371 C1372 1.523 . S
C1372 C1353 1.368 . S
C1372 C1366 1.368 . S
C1372 C1371 1.523 . S
C1373 C1357 1.429 . S
C1373 C1369 1.429 . S
C1373 C1374 1.523 . S
C1374 C1358 1.368 . S
C1374 C1370 1.368 . S
C1374 C1373 1.523 . S
H1375 C1350 0.950 . S
H1376 C1352 0.950 . S
H1377 C1353 0.949 . S
H1378 C1355 0.950 . S
H1379 C1357 0.950 . S
C666 C627 1.311 . S
C661 C51 1.295 . S
C691 C125 1.425 . S
C696 C447 1.423 . S
C721 C217 2.757 . S
C726 C494 2.746 . S
C751 C291 1.485 . S
C756 C530 1.463 . S
C786 C555 0.735 . S
C781 C347 0.736 . S
C811 C421 0.764 . S
C816 C591 0.764 . S
C841 C143 2.405 . S
C846 C483 2.403 . S
C871 C199 1.486 . S
C876 C519 1.497 . S
C901 C273 0.312 . S
C906 C566 0.385 . S
C936 C602 1.663 . S
C931 C365 1.664 . S
C966 C638 1.800 . S
C961 C439 1.827 . S
C996 C458 2.583 . S
C991 C69 2.554 . S
C1021 C63 1.332 . S
C1026 C482 1.412 . S
C1051 C137 1.476 . S
C1056 C518 1.529 . S
C1086 C556 1.321 . S
C1081 C187 1.277 . S
C1111 C261 1.442 . S
C1116 C592 1.472 . S
C1146 C628 1.429 . S
C1141 C359 1.326 . S
C1176 C448 0.996 . S
C1171 C433 0.963 . S
C1206 C626 1.562 . S
C1201 C113 1.563 . S
C1231 C211 1.216 . S
C1236 C446 1.273 . S
C1266 C484 1.474 . S
C1261 C285 1.409 . S
C1291 C335 1.308 . S
C1296 C520 1.369 . S
C1321 C409 1.302 . S
C1326 C554 1.329 . S
C1351 C39 1.652 . S
C1356 C590 1.683 . S
