# Generated by pormake.
# Topology apo, (3,6)-cn, num edge types: 1
# Building blocks:
#     Node 0, Type 0, BuildingBlock: PAMTOO_clean_linker_0, # of connection points: 3
#     Node 1, Type 0, BuildingBlock: PAMTOO_clean_linker_0, # of connection points: 3
#     Node 2, Type 0, BuildingBlock: PAMTOO_clean_linker_0, # of connection points: 3
#     Node 3, Type 0, BuildingBlock: PAMTOO_clean_linker_0, # of connection points: 3
#     Node 4, Type 0, BuildingBlock: PAMTOO_clean_linker_0, # of connection points: 3
#     Node 5, Type 0, BuildingBlock: PAMTOO_clean_linker_0, # of connection points: 3
#     Node 6, Type 0, BuildingBlock: PAMTOO_clean_linker_0, # of connection points: 3
#     Node 7, Type 0, BuildingBlock: PAMTOO_clean_linker_0, # of connection points: 3
#     Node 8, Type 1, BuildingBlock: MIDCAF_clean_sbu_0, # of connection points: 6
#     Node 9, Type 1, BuildingBlock: MIDCAF_clean_sbu_0, # of connection points: 6
#     Node 10, Type 1, BuildingBlock: MIDCAF_clean_sbu_0, # of connection points: 6
#     Node 11, Type 1, BuildingBlock: MIDCAF_clean_sbu_0, # of connection points: 6
#     Edge 12, Type (0, 1), BuildingBlock: KIFKEQ_clean_linker_1, # of connection points: 2
#     Edge 13, Type (0, 1), BuildingBlock: KIFKEQ_clean_linker_1, # of connection points: 2
#     Edge 14, Type (0, 1), BuildingBlock: KIFKEQ_clean_linker_1, # of connection points: 2
#     Edge 15, Type (0, 1), BuildingBlock: KIFKEQ_clean_linker_1, # of connection points: 2
#     Edge 16, Type (0, 1), BuildingBlock: KIFKEQ_clean_linker_1, # of connection points: 2
#     Edge 17, Type (0, 1), BuildingBlock: KIFKEQ_clean_linker_1, # of connection points: 2
#     Edge 18, Type (0, 1), BuildingBlock: KIFKEQ_clean_linker_1, # of connection points: 2
#     Edge 19, Type (0, 1), BuildingBlock: KIFKEQ_clean_linker_1, # of connection points: 2
#     Edge 20, Type (0, 1), BuildingBlock: KIFKEQ_clean_linker_1, # of connection points: 2
#     Edge 21, Type (0, 1), BuildingBlock: KIFKEQ_clean_linker_1, # of connection points: 2
#     Edge 22, Type (0, 1), BuildingBlock: KIFKEQ_clean_linker_1, # of connection points: 2
#     Edge 23, Type (0, 1), BuildingBlock: KIFKEQ_clean_linker_1, # of connection points: 2
#     Edge 24, Type (0, 1), BuildingBlock: KIFKEQ_clean_linker_1, # of connection points: 2
#     Edge 25, Type (0, 1), BuildingBlock: KIFKEQ_clean_linker_1, # of connection points: 2
#     Edge 26, Type (0, 1), BuildingBlock: KIFKEQ_clean_linker_1, # of connection points: 2
#     Edge 27, Type (0, 1), BuildingBlock: KIFKEQ_clean_linker_1, # of connection points: 2
#     Edge 28, Type (0, 1), BuildingBlock: KIFKEQ_clean_linker_1, # of connection points: 2
#     Edge 29, Type (0, 1), BuildingBlock: KIFKEQ_clean_linker_1, # of connection points: 2
#     Edge 30, Type (0, 1), BuildingBlock: KIFKEQ_clean_linker_1, # of connection points: 2
#     Edge 31, Type (0, 1), BuildingBlock: KIFKEQ_clean_linker_1, # of connection points: 2
#     Edge 32, Type (0, 1), BuildingBlock: KIFKEQ_clean_linker_1, # of connection points: 2
#     Edge 33, Type (0, 1), BuildingBlock: KIFKEQ_clean_linker_1, # of connection points: 2
#     Edge 34, Type (0, 1), BuildingBlock: KIFKEQ_clean_linker_1, # of connection points: 2
#     Edge 35, Type (0, 1), BuildingBlock: KIFKEQ_clean_linker_1, # of connection points: 2
# Relax obj value: 0.013
# Max RMSD: 0.060
# Mean RMSD: 0.055
data_MOF--net-apo--node1-MIDCAF_clean_sbu_0--node2-PAMTOO_clean_linker_0--edge1-KIFKEQ_clean_linker_1
_symmetry_space_group_name_H-M    P1
_symmetry_Int_Tables_number       1
_symmetry_cell_setting            triclinic
loop_
_symmetry_equiv_pos_as_xyz
'x, y, z'
_cell_length_a     37.02544
_cell_length_b     42.502281
_cell_length_c     34.27693
_cell_angle_alpha  90.071834
_cell_angle_beta   89.909603
_cell_angle_gamma 90.031669
loop_
_atom_site_label
_atom_site_type_symbol
_atom_site_fract_x
_atom_site_fract_y
_atom_site_fract_z
_atom_type_partial_charge
H0 H 0.38972 0.36679 0.44355 0.0
H1 H 0.33422 0.34579 0.33607 0.0
H2 H 0.3167 0.28823 0.43708 0.0
H3 H 0.33141 0.25784 0.35452 0.0
C4 C 0.31249 0.27361 0.33861 0.0
O5 O 0.30012 0.29699 0.36321 0.0
H6 H 0.3276 0.28432 0.31387 0.0
C7 C 0.37148 0.35224 0.42663 0.0
C8 C 0.35428 0.3267 0.44485 0.0
C9 C 0.36438 0.3597 0.38739 0.0
C10 C 0.33983 0.34093 0.36648 0.0
C11 C 0.323 0.31511 0.38419 0.0
C12 C 0.32993 0.30816 0.42348 0.0
H13 H 0.10872 0.14164 0.92605 0.0
H14 H 0.19601 0.20847 0.9256 0.0
H15 H 0.16861 0.15897 0.82039 0.0
H16 H 0.24401 0.16948 0.82301 0.0
C17 C 0.24552 0.18841 0.84539 0.0
O18 O 0.21154 0.20088 0.85131 0.0
H19 H 0.25588 0.17777 0.87286 0.0
C20 C 0.12965 0.1542 0.91032 0.0
C21 C 0.1358 0.14744 0.8707 0.0
C22 C 0.15102 0.17619 0.93046 0.0
C23 C 0.17932 0.19136 0.91062 0.0
C24 C 0.18539 0.1852 0.87088 0.0
C25 C 0.16365 0.1634 0.85106 0.0
H26 H 0.90555 0.13783 0.58633 0.0
H27 H 0.84578 0.14588 0.69373 0.0
H28 H 0.82493 0.20995 0.59938 0.0
H29 H 0.83341 0.23539 0.68347 0.0
C30 C 0.81426 0.21826 0.69679 0.0
O31 O 0.80708 0.19402 0.67105 0.0
H32 H 0.827 0.20848 0.72352 0.0
C33 C 0.88529 0.14958 0.60401 0.0
C34 C 0.86641 0.17523 0.58839 0.0
C35 C 0.87801 0.13855 0.64181 0.0
C36 C 0.85203 0.15417 0.66461 0.0
C37 C 0.83306 0.17998 0.6494 0.0
C38 C 0.83994 0.19025 0.61113 0.0
H39 H 0.61541 0.35949 0.0953 0.0
H40 H 0.7021 0.29205 0.09747 0.0
H41 H 0.674 0.34261 0.2017 0.0
H42 H 0.74897 0.3323 0.19829 0.0
C43 C 0.75062 0.31176 0.17821 0.0
O44 O 0.71643 0.29985 0.17199 0.0
H45 H 0.76257 0.31991 0.15016 0.0
C46 C 0.63612 0.34694 0.11132 0.0
C47 C 0.64203 0.35403 0.15087 0.0
C48 C 0.65761 0.3247 0.09168 0.0
C49 C 0.68541 0.3094 0.11206 0.0
C50 C 0.69098 0.31576 0.1518 0.0
C51 C 0.66937 0.33796 0.17103 0.0
H52 H 0.62415 0.63898 0.59655 0.0
H53 H 0.70624 0.71031 0.60348 0.0
H54 H 0.67718 0.65792 0.70598 0.0
H55 H 0.69208 0.71977 0.72642 0.0
C56 C 0.7086 0.72802 0.70129 0.0
O57 O 0.71845 0.70259 0.67854 0.0
H58 H 0.6918 0.74458 0.68387 0.0
C59 C 0.64318 0.65244 0.61386 0.0
C60 C 0.64755 0.64566 0.65372 0.0
C61 C 0.66432 0.67548 0.59549 0.0
C62 C 0.68977 0.69245 0.61735 0.0
C63 C 0.69405 0.68623 0.65731 0.0
C64 C 0.67337 0.66262 0.6752 0.0
H65 H 0.9027 0.86472 0.09698 0.0
H66 H 0.85747 0.83907 0.20826 0.0
H67 H 0.8195 0.79412 0.10375 0.0
H68 H 0.76602 0.82307 0.16811 0.0
C69 C 0.77967 0.81089 0.19278 0.0
O70 O 0.8119 0.79811 0.17992 0.0
H71 H 0.78522 0.82838 0.21616 0.0
C72 C 0.88418 0.85065 0.1142 0.0
C73 C 0.86153 0.82888 0.09537 0.0
C74 C 0.88306 0.85458 0.15489 0.0
C75 C 0.8588 0.83639 0.17685 0.0
C76 C 0.8357 0.8149 0.1584 0.0
C77 C 0.83728 0.81093 0.11776 0.0
H78 H 0.11843 0.86169 0.44112 0.0
H79 H 0.20656 0.79589 0.43688 0.0
H80 H 0.18031 0.85029 0.33539 0.0
H81 H 0.20274 0.78838 0.31448 0.0
C82 C 0.21867 0.78168 0.34068 0.0
O83 O 0.22366 0.80789 0.36392 0.0
H84 H 0.20336 0.76333 0.35694 0.0
C85 C 0.13969 0.85013 0.42472 0.0
C86 C 0.14626 0.85885 0.38577 0.0
C87 C 0.16119 0.82752 0.44348 0.0
C88 C 0.18972 0.81339 0.42288 0.0
C89 C 0.19625 0.82151 0.38382 0.0
C90 C 0.17479 0.84428 0.36552 0.0
H91 H 0.41656 0.64099 0.93275 0.0
H92 H 0.35835 0.65854 0.82624 0.0
H93 H 0.32918 0.70766 0.93122 0.0
H94 H 0.26956 0.67882 0.87807 0.0
C95 C 0.28098 0.68808 0.85029 0.0
O96 O 0.315 0.70035 0.8566 0.0
H97 H 0.28285 0.66821 0.82921 0.0
C98 C 0.39585 0.65354 0.91676 0.0
C99 C 0.37409 0.67541 0.93665 0.0
C100 C 0.39031 0.64686 0.87702 0.0
C101 C 0.36279 0.66286 0.85702 0.0
C102 C 0.34073 0.68458 0.87656 0.0
C103 C 0.34613 0.69062 0.91642 0.0
Zn104 Zn 0.04124 0.12376 0.33215 0.0
Zn105 Zn 0.98301 0.11985 0.19644 0.0
Zn106 Zn 0.01259 0.12374 0.26371 0.0
C107 C 0.04458 0.15564 0.18517 0.0
C108 C 0.99382 0.05881 0.21654 0.0
O109 O 0.97557 0.14966 0.30439 0.0
O110 O 0.00806 0.15332 0.35829 0.0
C111 C 0.09213 0.15017 0.28212 0.0
O112 O 0.04935 0.14763 0.22107 0.0
O113 O 0.01598 0.14798 0.16762 0.0
O114 O 0.9861 0.07427 0.18632 0.0
O115 O 1.00323 0.07333 0.24802 0.0
O116 O 0.08912 0.13963 0.31634 0.0
O117 O 0.06566 0.14788 0.2579 0.0
O118 O 0.02237 0.07446 0.28358 0.0
O119 O 0.03835 0.07855 0.34549 0.0
C120 C 0.0316 0.06159 0.31617 0.0
O121 O 0.96001 0.14927 0.26694 0.0
O122 O 0.93514 0.13675 0.21044 0.0
C123 C 0.97965 0.15967 0.33966 0.0
C124 C 0.93311 0.15035 0.2431 0.0
Zn125 Zn 0.53453 0.37709 0.69279 0.0
Zn126 Zn 0.48977 0.38083 0.83542 0.0
Zn127 Zn 0.51381 0.37611 0.7647 0.0
C128 C 0.4983 0.44171 0.81315 0.0
C129 C 0.43638 0.3492 0.79437 0.0
O130 O 0.56488 0.34817 0.76335 0.0
O131 O 0.57484 0.34743 0.69971 0.0
C132 C 0.53801 0.4386 0.71478 0.0
O133 O 0.507 0.4268 0.78163 0.0
O134 O 0.49109 0.42663 0.84383 0.0
O135 O 0.44198 0.36141 0.82738 0.0
O136 O 0.46033 0.35173 0.76712 0.0
O137 O 0.54509 0.42209 0.68516 0.0
O138 O 0.52546 0.42552 0.74597 0.0
O139 O 0.47122 0.35275 0.72793 0.0
O140 O 0.49142 0.35994 0.66777 0.0
C141 C 0.46752 0.34974 0.69067 0.0
O142 O 0.55387 0.3513 0.80256 0.0
O143 O 0.52734 0.35507 0.86033 0.0
C144 C 0.58331 0.33864 0.73364 0.0
C145 C 0.5532 0.34551 0.83949 0.0
Zn146 Zn 0.04358 0.88034 0.83685 0.0
Zn147 Zn 0.98409 0.86888 0.70039 0.0
Zn148 Zn 0.01407 0.8739 0.76916 0.0
C149 C 0.99042 0.93285 0.71438 0.0
C150 C 0.93667 0.84062 0.75216 0.0
O151 O 0.06737 0.84931 0.76744 0.0
O152 O 0.09149 0.86287 0.82398 0.0
C153 C 0.03118 0.94071 0.81262 0.0
O154 O 1.0026 0.922 0.74691 0.0
O155 O 0.98178 0.91425 0.68722 0.0
O156 O 0.93916 0.84777 0.71658 0.0
O157 O 0.96198 0.84804 0.7763 0.0
O158 O 0.03987 0.92642 0.84343 0.0
O159 O 0.02172 0.92501 0.78205 0.0
O160 O 0.97786 0.85114 0.81309 0.0
O161 O 0.01037 0.85329 0.86708 0.0
C162 C 0.9821 0.84468 0.84957 0.0
O163 O 0.05255 0.84849 0.72956 0.0
O164 O 0.02123 0.84289 0.67505 0.0
C165 C 0.09399 0.84873 0.7917 0.0
C166 C 0.04974 0.83823 0.69424 0.0
Zn167 Zn 0.54096 0.61891 0.1994 0.0
Zn168 Zn 0.4896 0.62525 0.33251 0.0
Zn169 Zn 0.51324 0.62303 0.2682 0.0
C170 C 0.55874 0.63787 0.34527 0.0
C171 C 0.47149 0.56691 0.3095 0.0
O172 O 0.47543 0.64786 0.22763 0.0
O173 O 0.50447 0.64386 0.17135 0.0
C174 C 0.59181 0.65048 0.24411 0.0
O175 O 0.55445 0.64391 0.30869 0.0
O176 O 0.53442 0.62335 0.36365 0.0
O177 O 0.45818 0.58765 0.33154 0.0
O178 O 0.49728 0.57438 0.2859 0.0
O179 O 0.58795 0.63902 0.2104 0.0
O180 O 0.56668 0.64712 0.26988 0.0
O181 O 0.52025 0.572 0.25316 0.0
O182 O 0.5406 0.57293 0.19239 0.0
C183 C 0.53133 0.55755 0.2222 0.0
O184 O 0.46399 0.65318 0.26652 0.0
O185 O 0.46513 0.66651 0.32861 0.0
C186 C 0.47763 0.65339 0.19072 0.0
C187 C 0.45244 0.67049 0.29484 0.0
H188 H 0.07332 0.86911 0.39264 0.0
H189 H 0.16923 0.90594 0.33697 0.0
H190 H 0.03897 0.91434 0.36944 0.0
H191 H 0.13461 0.95069 0.31314 0.0
H192 H 0.06022 0.02268 0.26072 0.0
H193 H 0.08302 0.96916 0.27074 0.0
H194 H 0.04277 0.97097 0.38906 0.0
H195 H 0.02003 0.02414 0.37895 0.0
C196 C 0.08704 0.88668 0.3752 0.0
C197 C 0.12423 0.88407 0.36721 0.0
C198 C 0.06727 0.91248 0.36173 0.0
C199 C 0.08411 0.93613 0.33962 0.0
C200 C 0.12075 0.93265 0.32971 0.0
C201 C 0.14061 0.90697 0.34343 0.0
C202 C 0.05529 0.01118 0.28841 0.0
C203 C 0.03832 0.02744 0.31906 0.0
C204 C 0.06863 0.98072 0.29426 0.0
C205 C 0.06491 0.96596 0.33077 0.0
C206 C 0.0458 0.98155 0.3605 0.0
C207 C 0.03289 0.01205 0.35479 0.0
H208 H 0.46307 0.63617 0.88348 0.0
H209 H 0.36713 0.60124 0.8264 0.0
H210 H 0.49687 0.59068 0.85982 0.0
H211 H 0.40097 0.55592 0.8026 0.0
H212 H 0.47158 0.47936 0.75522 0.0
H213 H 0.45127 0.53401 0.76228 0.0
H214 H 0.49219 0.53544 0.88025 0.0
H215 H 0.51249 0.48135 0.873 0.0
C216 C 0.44929 0.61897 0.86552 0.0
C217 C 0.41223 0.62207 0.8574 0.0
C218 C 0.4687 0.59299 0.85184 0.0
C219 C 0.45155 0.56953 0.82963 0.0
C220 C 0.41512 0.57372 0.81927 0.0
C221 C 0.39567 0.5997 0.83302 0.0
C222 C 0.4772 0.4918 0.78214 0.0
C223 C 0.49348 0.47619 0.81363 0.0
C224 C 0.46531 0.52294 0.78632 0.0
C225 C 0.46983 0.53899 0.82194 0.0
C226 C 0.48853 0.52395 0.85231 0.0
C227 C 0.50001 0.49287 0.84826 0.0
H228 H 0.67107 0.60027 0.70442 0.0
H229 H 0.57576 0.63254 0.64402 0.0
H230 H 0.63825 0.55373 0.72641 0.0
H231 H 0.54303 0.58592 0.66586 0.0
H232 H 0.52916 0.47699 0.65279 0.0
H233 H 0.55063 0.53074 0.6453 0.0
H234 H 0.5869 0.53084 0.76505 0.0
H235 H 0.56549 0.47647 0.77233 0.0
C236 C 0.64287 0.59784 0.69663 0.0
C237 C 0.62621 0.61986 0.67193 0.0
C238 C 0.62402 0.57118 0.70932 0.0
C239 C 0.58815 0.56598 0.69752 0.0
C240 C 0.57083 0.58902 0.67489 0.0
C241 C 0.58962 0.61565 0.66228 0.0
C242 C 0.54107 0.48871 0.67775 0.0
C243 C 0.54563 0.47266 0.71313 0.0
C244 C 0.55317 0.51959 0.67357 0.0
C245 C 0.57054 0.53506 0.70457 0.0
C246 C 0.57378 0.51945 0.74059 0.0
C247 C 0.56127 0.4885 0.74488 0.0
H248 H 0.95478 0.86616 0.14233 0.0
H249 H 0.86317 0.89806 0.20963 0.0
H250 H 0.9899 0.91113 0.16527 0.0
H251 H 0.89801 0.94322 0.2322 0.0
H252 H 0.96898 0.02054 0.27491 0.0
H253 H 0.94899 0.96583 0.26809 0.0
H254 H 0.98497 0.96597 0.14807 0.0
H255 H 1.00552 0.01993 0.15532 0.0
C256 C 0.94231 0.88261 0.16239 0.0
C257 C 0.90606 0.87887 0.17371 0.0
C258 C 0.96241 0.90834 0.17557 0.0
C259 C 0.94665 0.93101 0.20019 0.0
C260 C 0.91116 0.92607 0.21359 0.0
C261 C 0.8911 0.90023 0.20054 0.0
C262 C 0.97372 0.00839 0.24758 0.0
C263 C 0.98881 0.02437 0.21563 0.0
C264 C 0.96192 0.97723 0.24352 0.0
C265 C 0.96507 0.96158 0.20744 0.0
C266 C 0.98243 0.97707 0.1764 0.0
C267 C 0.99402 0.00811 0.18043 0.0
H268 H 0.8861 0.08328 0.60329 0.0
H269 H 0.91127 0.12878 0.71254 0.0
H270 H 0.91831 0.03658 0.62403 0.0
H271 H 0.94464 0.0818 0.73339 0.0
H272 H 0.96223 0.97468 0.76695 0.0
H273 H 0.93756 0.02679 0.75214 0.0
H274 H 0.97834 0.01904 0.63428 0.0
H275 H 1.00148 0.96679 0.64881 0.0
C276 C 0.89892 0.08336 0.63168 0.0
C277 C 0.89653 0.10981 0.65609 0.0
C278 C 0.91764 0.05663 0.64355 0.0
C279 C 0.93485 0.05559 0.68009 0.0
C280 C 0.93175 0.0818 0.70506 0.0
C281 C 0.91266 0.10866 0.69318 0.0
C282 C 0.96663 0.9846 0.73824 0.0
C283 C 0.98341 0.96671 0.70888 0.0
C284 C 0.95247 0.01441 0.72969 0.0
C285 C 0.95509 0.02678 0.69169 0.0
C286 C 0.97474 0.00983 0.66348 0.0
C287 C 0.98835 0.98002 0.67185 0.0
H288 H 0.66701 0.40091 0.19822 0.0
H289 H 0.5691 0.36442 0.14697 0.0
H290 H 0.63385 0.44613 0.22303 0.0
H291 H 0.53559 0.40949 0.17237 0.0
H292 H 0.51099 0.51713 0.16542 0.0
H293 H 0.53341 0.46395 0.15501 0.0
H294 H 0.58892 0.46791 0.26579 0.0
H295 H 0.5673 0.52182 0.27522 0.0
C296 C 0.63818 0.40216 0.1931 0.0
C297 C 0.62076 0.37927 0.17026 0.0
C298 C 0.61906 0.42807 0.20747 0.0
C299 C 0.58201 0.43164 0.19952 0.0
C300 C 0.56422 0.40781 0.17846 0.0
C301 C 0.5834 0.38198 0.1639 0.0
C302 C 0.52706 0.50619 0.18804 0.0
C303 C 0.53694 0.52326 0.2214 0.0
C304 C 0.53988 0.47565 0.1822 0.0
C305 C 0.5632 0.4616 0.20947 0.0
C306 C 0.57136 0.47813 0.24399 0.0
C307 C 0.55855 0.50879 0.24974 0.0
H308 H 0.43404 0.38074 0.39638 0.0
H309 H 0.33451 0.40166 0.33603 0.0
H310 H 0.46061 0.42899 0.37106 0.0
H311 H 0.36181 0.44886 0.30886 0.0
H312 H 0.40192 0.55084 0.32194 0.0
H313 H 0.37738 0.49892 0.33488 0.0
H314 H 0.48286 0.45806 0.3157 0.0
H315 H 0.50758 0.5108 0.30489 0.0
C316 C 0.4179 0.39547 0.37744 0.0
C317 C 0.38191 0.38747 0.36877 0.0
C318 C 0.43338 0.42292 0.36238 0.0
C319 C 0.41331 0.44299 0.33808 0.0
C320 C 0.37788 0.43422 0.32798 0.0
C321 C 0.36234 0.40691 0.34324 0.0
C322 C 0.41976 0.5307 0.31995 0.0
C323 C 0.45663 0.53473 0.31171 0.0
C324 C 0.40563 0.50084 0.32704 0.0
C325 C 0.42804 0.47415 0.32618 0.0
C326 C 0.46482 0.47809 0.31674 0.0
C327 C 0.47896 0.50816 0.30969 0.0
H328 H 0.15967 0.10149 0.82084 0.0
H329 H 0.06295 0.13688 0.87617 0.0
H330 H 0.12626 0.05564 0.79782 0.0
H331 H 0.02964 0.09083 0.8534 0.0
H332 H 0.0168 0.98133 0.87137 0.0
H333 H 0.03598 0.0359 0.87646 0.0
H334 H 0.0755 0.03264 0.75787 0.0
H335 H 0.05605 0.97755 0.75287 0.0
C336 C 0.13106 0.09994 0.82718 0.0
C337 C 0.11415 0.12257 0.85096 0.0
C338 C 0.11186 0.07366 0.81389 0.0
C339 C 0.07539 0.06944 0.82415 0.0
C340 C 0.05786 0.0932 0.84552 0.0
C341 C 0.07699 0.11949 0.8587 0.0
C342 C 0.02864 0.99254 0.84601 0.0
C343 C 0.03507 0.97526 0.8118 0.0
C344 C 0.0395 0.02388 0.84883 0.0
C345 C 0.05752 0.03855 0.81764 0.0
C346 C 0.06192 0.02186 0.78246 0.0
C347 C 0.05054 0.99047 0.77948 0.0
H348 H 0.08618 0.1922 0.96106 0.0
H349 H 0.19693 0.17504 0.99348 0.0
H350 H 0.06938 0.19609 0.02932 0.0
H351 H 0.18021 0.17931 0.06278 0.0
H352 H 0.11128 0.13293 0.16755 0.0
H353 H 0.14475 0.14609 0.10815 0.0
H354 H 0.07386 0.2253 0.08916 0.0
H355 H 0.03972 0.21112 0.14743 0.0
C356 C 0.10708 0.18985 0.98296 0.0
C357 C 0.14276 0.1831 0.97201 0.0
C358 C 0.09757 0.1924 0.0222 0.0
C359 C 0.12347 0.18816 0.05176 0.0
C360 C 0.1596 0.18263 0.04079 0.0
C361 C 0.16922 0.18037 1.0012 0.0
C362 C 0.10407 0.15402 0.15163 0.0
C363 C 0.07293 0.17097 0.1618 0.0
C364 C 0.12312 0.16153 0.11744 0.0
C365 C 0.11131 0.18623 0.09322 0.0
C366 C 0.08306 0.20561 0.10654 0.0
C367 C 0.06379 0.19781 0.14022 0.0
H368 H 0.30894 0.33034 0.50775 0.0
H369 H 0.41853 0.30873 0.47472 0.0
H370 H 0.32586 0.32704 0.57706 0.0
H371 H 0.43542 0.30498 0.54326 0.0
H372 H 0.40336 0.37706 0.67407 0.0
H373 H 0.36679 0.36275 0.61745 0.0
H374 H 0.4266 0.27604 0.60614 0.0
H375 H 0.46322 0.2907 0.66252 0.0
C376 C 0.33636 0.32405 0.51543 0.0
C377 C 0.36251 0.31973 0.48617 0.0
C378 C 0.34606 0.32226 0.55495 0.0
C379 C 0.3819 0.31552 0.56569 0.0
C380 C 0.40744 0.30962 0.53611 0.0
C381 C 0.39791 0.31195 0.49684 0.0
C382 C 0.40707 0.35408 0.66093 0.0
C383 C 0.43587 0.33487 0.67265 0.0
C384 C 0.38634 0.34594 0.62826 0.0
C385 C 0.39441 0.31859 0.60678 0.0
C386 C 0.42013 0.29749 0.62175 0.0
C387 C 0.44076 0.30563 0.65437 0.0
H388 H 0.5937 0.30757 0.05976 0.0
H389 H 0.70467 0.32689 0.02974 0.0
H390 H 0.57854 0.30315 0.991 0.0
H391 H 0.68954 0.32247 0.96008 0.0
H392 H 0.61864 0.37018 0.85702 0.0
H393 H 0.65249 0.3566 0.91578 0.0
H394 H 0.58655 0.27358 0.93019 0.0
H395 H 0.55232 0.28779 0.87204 0.0
C396 C 0.61499 0.3103 0.0383 0.0
C397 C 0.65026 0.31774 0.05 0.0
C398 C 0.60644 0.30747 0.99883 0.0
C399 C 0.63288 0.3123 0.96989 0.0
C400 C 0.66859 0.31861 0.98163 0.0
C401 C 0.67727 0.32101 0.02141 0.0
C402 C 0.61289 0.34808 0.8715 0.0
C403 C 0.58305 0.32993 0.86003 0.0
C404 C 0.63209 0.34037 0.90539 0.0
C405 C 0.62157 0.31443 0.92825 0.0
C406 C 0.59483 0.29407 0.91366 0.0
C407 C 0.57557 0.3019 0.88001 0.0
H408 H 0.82159 0.17653 0.52481 0.0
H409 H 0.93091 0.19521 0.56117 0.0
H410 H 0.83978 0.18299 0.45624 0.0
H411 H 0.94925 0.20138 0.49359 0.0
H412 H 0.91217 0.13727 0.35412 0.0
H413 H 0.87653 0.15069 0.41188 0.0
H414 H 0.94664 0.23007 0.43365 0.0
H415 H 0.983 0.21556 0.37707 0.0
C416 C 0.84923 0.18294 0.51811 0.0
C417 C 0.87492 0.18543 0.54809 0.0
C418 C 0.85972 0.18638 0.47893 0.0
C419 C 0.89599 0.19274 0.46922 0.0
C420 C 0.92098 0.19709 0.4997 0.0
C421 C 0.91059 0.19336 0.53855 0.0
C422 C 0.91879 0.15845 0.37023 0.0
C423 C 0.9504 0.17526 0.36148 0.0
C424 C 0.89847 0.16613 0.40349 0.0
C425 C 0.90939 0.19092 0.42816 0.0
C426 C 0.93809 0.21029 0.41597 0.0
C427 C 0.95867 0.20228 0.38325 0.0
H428 H 0.87228 0.7744 0.05448 0.0
H429 H 0.85862 0.87446 0.03977 0.0
H430 H 0.89046 0.76972 0.9859 0.0
H431 H 0.87681 0.86996 0.97162 0.0
H432 H 0.91015 0.85907 0.84982 0.0
H433 H 0.86832 0.84877 0.90394 0.0
H434 H 0.94833 0.78918 0.95799 0.0
H435 H 0.98974 0.79971 0.90446 0.0
C436 C 0.87208 0.7952 0.03625 0.0
C437 C 0.86454 0.82484 0.05246 0.0
C438 C 0.8826 0.79256 0.99707 0.0
C439 C 0.88533 0.81949 0.97335 0.0
C440 C 0.87468 0.8487 0.98886 0.0
C441 C 0.86459 0.85135 0.02802 0.0
C442 C 0.91802 0.84268 0.87244 0.0
C443 C 0.95317 0.83033 0.87324 0.0
C444 C 0.89426 0.83701 0.90359 0.0
C445 C 0.90519 0.8185 0.93555 0.0
C446 C 0.93889 0.80337 0.93385 0.0
C447 C 0.96272 0.80945 0.90319 0.0
H448 H 0.70907 0.65569 0.5375 0.0
H449 H 0.60878 0.70425 0.55854 0.0
H450 H 0.69481 0.65267 0.46764 0.0
H451 H 0.59454 0.70168 0.48898 0.0
H452 H 0.60899 0.60284 0.38183 0.0
H453 H 0.64506 0.61963 0.43757 0.0
H454 H 0.61109 0.71561 0.41889 0.0
H455 H 0.57533 0.69856 0.36246 0.0
C456 C 0.68463 0.66671 0.52684 0.0
C457 C 0.66005 0.68035 0.55307 0.0
C458 C 0.67638 0.66487 0.48701 0.0
C459 C 0.64357 0.67696 0.47277 0.0
C460 C 0.62028 0.69259 0.49884 0.0
C461 C 0.62829 0.69399 0.53867 0.0
C462 C 0.61081 0.62773 0.38845 0.0
C463 C 0.58981 0.64948 0.36776 0.0
C464 C 0.63137 0.63739 0.42045 0.0
C465 C 0.63062 0.66892 0.4329 0.0
C466 C 0.61204 0.69114 0.41007 0.0
C467 C 0.59193 0.68149 0.37754 0.0
H468 H 0.43803 0.69238 0.96855 0.0
H469 H 0.32716 0.67286 0.99878 0.0
H470 H 0.45347 0.69614 0.03724 0.0
H471 H 0.34253 0.67677 0.06843 0.0
H472 H 0.41205 0.62931 0.17212 0.0
H473 H 0.3788 0.64297 0.11294 0.0
H474 H 0.44656 0.72484 0.09802 0.0
H475 H 0.48033 0.71039 0.15638 0.0
C476 C 0.41681 0.68948 0.99006 0.0
C477 C 0.38149 0.68214 0.9784 0.0
C478 C 0.42552 0.69194 0.02952 0.0
C479 C 0.3992 0.6869 0.05853 0.0
C480 C 0.36343 0.68075 0.04684 0.0
C481 C 0.35459 0.67866 1.00707 0.0
C482 C 0.41844 0.65113 0.1573 0.0
C483 C 0.44861 0.66887 0.16871 0.0
C484 C 0.39956 0.6589 0.1232 0.0
C485 C 0.41066 0.68456 0.10013 0.0
C486 C 0.43786 0.70453 0.11461 0.0
C487 C 0.45688 0.69657 0.14837 0.0
H488 H 0.20664 0.82932 0.50668 0.0
H489 H 0.09728 0.80768 0.47283 0.0
H490 H 0.1899 0.82276 0.57571 0.0
H491 H 0.08051 0.80121 0.54089 0.0
H492 H 0.0513 0.782 0.65767 0.0
H493 H 0.08774 0.77037 0.60013 0.0
H494 H 0.15093 0.85411 0.62115 0.0
H495 H 0.11509 0.86493 0.67967 0.0
C496 C 0.17929 0.82245 0.51403 0.0
C497 C 0.15316 0.8191 0.48458 0.0
C498 C 0.16967 0.81886 0.55344 0.0
C499 C 0.13392 0.81129 0.56392 0.0
C500 C 0.10844 0.80645 0.53406 0.0
C501 C 0.1179 0.81042 0.49498 0.0
C502 C 0.0743 0.79689 0.65117 0.0
C503 C 0.08037 0.82439 0.67286 0.0
C504 C 0.09487 0.79051 0.61792 0.0
C505 C 0.12144 0.81188 0.6053 0.0
C506 C 0.13061 0.8372 0.62994 0.0
C507 C 0.11023 0.84335 0.66365 0.0
H508 H 0.28276 0.22052 0.36961 0.0
H509 H 0.27089 0.2855 0.27401 0.0
H510 H 0.23156 0.19013 0.34562 0.0
H511 H 0.21965 0.25474 0.24919 0.0
H512 H 0.10119 0.21095 0.2588 0.0
H513 H 0.15701 0.24139 0.26653 0.0
H514 H 0.21494 0.15573 0.29262 0.0
H515 H 0.15902 0.1259 0.28644 0.0
C516 C 0.26934 0.22801 0.34314 0.0
C517 C 0.28108 0.2549 0.32321 0.0
C518 C 0.2402 0.21053 0.32914 0.0
C519 C 0.2219 0.21963 0.29495 0.0
C520 C 0.23324 0.247 0.27543 0.0
C521 C 0.26256 0.26451 0.2895 0.0
C522 C 0.12623 0.19865 0.26462 0.0
C523 C 0.12604 0.16622 0.27216 0.0
C524 C 0.15816 0.21604 0.26929 0.0
C525 C 0.19022 0.20107 0.28131 0.0
C526 C 0.19051 0.1681 0.28452 0.0
C527 C 0.15866 0.15092 0.2804 0.0
H528 H 0.27588 0.23413 0.89018 0.0
H529 H 0.27179 0.20044 0.77158 0.0
H530 H 0.31831 0.27515 0.87073 0.0
H531 H 0.314 0.24197 0.75157 0.0
H532 H 0.42747 0.29475 0.75223 0.0
H533 H 0.37792 0.25694 0.75988 0.0
H534 H 0.32145 0.32311 0.83377 0.0
H535 H 0.37113 0.36014 0.82703 0.0
C536 C 0.28402 0.23573 0.85987 0.0
C537 C 0.271 0.21402 0.8325 0.0
C538 C 0.30805 0.25935 0.84855 0.0
C539 C 0.31945 0.26201 0.80945 0.0
C540 C 0.30601 0.24044 0.78191 0.0
C541 C 0.28182 0.21676 0.79331 0.0
C542 C 0.40394 0.30146 0.76912 0.0
C543 C 0.40331 0.33014 0.78951 0.0
C544 C 0.37559 0.2798 0.77363 0.0
C545 C 0.34616 0.28668 0.79836 0.0
C546 C 0.3442 0.31665 0.81555 0.0
C547 C 0.37251 0.33801 0.81138 0.0
H548 H 0.78058 0.22468 0.7684 0.0
H549 H 0.77053 0.25024 0.64718 0.0
H550 H 0.72342 0.25168 0.78294 0.0
H551 H 0.71384 0.27724 0.66146 0.0
H552 H 0.59757 0.29041 0.68558 0.0
H553 H 0.6528 0.25993 0.68073 0.0
H554 H 0.69456 0.30669 0.78311 0.0
H555 H 0.63821 0.33733 0.78824 0.0
C556 C 0.76613 0.23615 0.74495 0.0
C557 C 0.77967 0.23523 0.70657 0.0
C558 C 0.7336 0.25169 0.75329 0.0
C559 C 0.71393 0.26628 0.72331 0.0
C560 C 0.72799 0.26573 0.68512 0.0
C561 C 0.76046 0.25042 0.67688 0.0
C562 C 0.61826 0.29385 0.70752 0.0
C563 C 0.61383 0.31645 0.73705 0.0
C564 C 0.65001 0.27653 0.70456 0.0
C565 C 0.67842 0.2815 0.73088 0.0
C566 C 0.67313 0.30248 0.76228 0.0
C567 C 0.64092 0.31988 0.76537 0.0
H568 H 0.78023 0.30817 0.25194 0.0
H569 H 0.77415 0.25857 0.14232 0.0
H570 H 0.81997 0.26707 0.27802 0.0
H571 H 0.81396 0.21782 0.16782 0.0
H572 H 0.86411 0.1374 0.22328 0.0
H573 H 0.81566 0.17546 0.21498 0.0
H574 H 0.88226 0.2473 0.26771 0.0
H575 H 0.93054 0.20864 0.27709 0.0
C576 C 0.78738 0.2884 0.23352 0.0
C577 C 0.77437 0.28646 0.19507 0.0
C578 C 0.81013 0.26495 0.24839 0.0
C579 C 0.81992 0.23902 0.22517 0.0
C580 C 0.8064 0.23709 0.18685 0.0
C581 C 0.78387 0.26051 0.17203 0.0
C582 C 0.86789 0.16106 0.23437 0.0
C583 C 0.90116 0.17023 0.25037 0.0
C584 C 0.84031 0.18296 0.22922 0.0
C585 C 0.84554 0.21464 0.23948 0.0
C586 C 0.87743 0.2231 0.2593 0.0
C587 C 0.90505 0.20096 0.26486 0.0
H588 H 0.73219 0.78785 0.68556 0.0
H589 H 0.75944 0.70495 0.75164 0.0
H590 H 0.78618 0.81418 0.7098 0.0
H591 H 0.81368 0.7314 0.77653 0.0
H592 H 0.92905 0.77751 0.75499 0.0
H593 H 0.87177 0.74921 0.75 0.0
H594 H 0.81407 0.83641 0.76787 0.0
H595 H 0.8716 0.86456 0.77193 0.0
C596 C 0.74968 0.77538 0.70556 0.0
C597 C 0.74179 0.74437 0.71668 0.0
C598 C 0.78044 0.79055 0.71983 0.0
C599 C 0.80412 0.77504 0.7455 0.0
C600 C 0.79606 0.74399 0.75678 0.0
C601 C 0.76512 0.72885 0.74258 0.0
C602 C 0.90407 0.79025 0.75966 0.0
C603 C 0.9045 0.82303 0.76431 0.0
C604 C 0.87122 0.77413 0.75657 0.0
C605 C 0.8383 0.79065 0.75777 0.0
C606 C 0.83896 0.8231 0.76605 0.0
C607 C 0.8718 0.83917 0.76902 0.0
H608 H 0.79627 0.75164 0.22235 0.0
H609 H 0.70705 0.81488 0.20215 0.0
H610 H 0.75423 0.71173 0.24644 0.0
H611 H 0.66504 0.77508 0.22639 0.0
H612 H 0.59677 0.70421 0.28788 0.0
H613 H 0.64566 0.74313 0.28462 0.0
H614 H 0.70752 0.67994 0.21183 0.0
H615 H 0.65897 0.64144 0.21506 0.0
C616 C 0.76769 0.75701 0.22296 0.0
C617 C 0.75471 0.78599 0.20899 0.0
C618 C 0.74367 0.73423 0.23702 0.0
C619 C 0.70632 0.74021 0.2382 0.0
C620 C 0.69367 0.76983 0.22621 0.0
C621 C 0.71762 0.79245 0.21185 0.0
C622 C 0.62139 0.6983 0.27241 0.0
C623 C 0.62407 0.66999 0.25149 0.0
C624 C 0.64917 0.72066 0.27018 0.0
C625 C 0.68022 0.71474 0.24754 0.0
C626 C 0.68409 0.6852 0.22964 0.0
C627 C 0.65622 0.66316 0.23139 0.0
H628 H 0.24581 0.77124 0.26673 0.0
H629 H 0.27216 0.76122 0.38861 0.0
H630 H 0.30441 0.74835 0.2488 0.0
H631 H 0.33034 0.73825 0.371 0.0
H632 H 0.44288 0.7245 0.33496 0.0
H633 H 0.38741 0.75466 0.34125 0.0
H634 H 0.3374 0.69674 0.25287 0.0
H635 H 0.39374 0.66674 0.24601 0.0
C636 C 0.26426 0.76425 0.28962 0.0
C637 C 0.25478 0.76825 0.32908 0.0
C638 C 0.29766 0.75106 0.27937 0.0
C639 C 0.32221 0.74184 0.30843 0.0
C640 C 0.31243 0.74575 0.34786 0.0
C641 C 0.27909 0.75873 0.35803 0.0
C642 C 0.42034 0.71869 0.31613 0.0
C643 C 0.4224 0.69304 0.29036 0.0
C644 C 0.38847 0.7358 0.31998 0.0
C645 C 0.3577 0.72752 0.2984 0.0
C646 C 0.36064 0.70361 0.27004 0.0
C647 C 0.39288 0.6865 0.26597 0.0
H648 H 0.25102 0.69381 0.77695 0.0
H649 H 0.25589 0.7393 0.88933 0.0
H650 H 0.20982 0.73482 0.75345 0.0
H651 H 0.21458 0.77994 0.8664 0.0
H652 H 0.16226 0.86152 0.81457 0.0
H653 H 0.21131 0.82396 0.82204 0.0
H654 H 0.14712 0.75285 0.7645 0.0
H655 H 0.09819 0.79105 0.75605 0.0
C656 C 0.24327 0.71266 0.79654 0.0
C657 C 0.25639 0.71345 0.83501 0.0
C658 C 0.21967 0.73605 0.78315 0.0
C659 C 0.20907 0.7608 0.8079 0.0
C660 C 0.2227 0.76161 0.84624 0.0
C661 C 0.24611 0.73825 0.85958 0.0
C662 C 0.15907 0.83814 0.80241 0.0
C663 C 0.1263 0.82905 0.78516 0.0
C664 C 0.18702 0.81651 0.80706 0.0
C665 C 0.18272 0.78513 0.79499 0.0
C666 C 0.15126 0.77682 0.77428 0.0
C667 C 0.12326 0.7987 0.76927 0.0
loop_
_geom_bond_atom_site_label_1
_geom_bond_atom_site_label_2
_geom_bond_distance
_geom_bond_site_symmetry_2
_ccdc_geom_bond_type
H0 C7 0.929 . S
H1 C10 0.930 . S
H2 C12 0.929 . S
H3 C4 0.969 . S
C4 H3 0.969 . S
C4 O5 1.550 . S
C4 H6 0.973 . S
O5 C4 1.550 . S
O5 C11 1.412 . S
H6 C4 0.973 . S
C7 H0 0.929 . S
C7 C8 1.400 . S
C7 C9 1.364 . S
C8 C7 1.400 . S
C8 C12 1.377 . S
C9 C7 1.364 . S
C9 C10 1.374 . S
C10 H1 0.930 . S
C10 C9 1.374 . S
C10 C11 1.383 . S
C11 O5 1.412 . S
C11 C10 1.383 . S
C11 C12 1.394 . S
C12 H2 0.929 . S
C12 C8 1.377 . S
C12 C11 1.394 . S
H13 C20 0.929 . S
H14 C23 0.930 . S
H15 C25 0.929 . S
H16 C17 0.969 . S
C17 H16 0.969 . S
C17 O18 1.550 . S
C17 H19 0.973 . S
O18 C17 1.550 . S
O18 C24 1.412 . S
H19 C17 0.973 . S
C20 H13 0.929 . S
C20 C21 1.400 . S
C20 C22 1.364 . S
C21 C20 1.400 . S
C21 C25 1.377 . S
C22 C20 1.364 . S
C22 C23 1.374 . S
C23 H14 0.930 . S
C23 C22 1.374 . S
C23 C24 1.383 . S
C24 O18 1.412 . S
C24 C23 1.383 . S
C24 C25 1.394 . S
C25 H15 0.929 . S
C25 C21 1.377 . S
C25 C24 1.394 . S
H26 C33 0.929 . S
H27 C36 0.930 . S
H28 C38 0.929 . S
H29 C30 0.969 . S
C30 H29 0.969 . S
C30 O31 1.550 . S
C30 H32 0.973 . S
O31 C30 1.550 . S
O31 C37 1.412 . S
H32 C30 0.973 . S
C33 H26 0.929 . S
C33 C34 1.400 . S
C33 C35 1.364 . S
C34 C33 1.400 . S
C34 C38 1.377 . S
C35 C33 1.364 . S
C35 C36 1.374 . S
C36 H27 0.930 . S
C36 C35 1.374 . S
C36 C37 1.383 . S
C37 O31 1.412 . S
C37 C36 1.383 . S
C37 C38 1.394 . S
C38 H28 0.929 . S
C38 C34 1.377 . S
C38 C37 1.394 . S
H39 C46 0.929 . S
H40 C49 0.930 . S
H41 C51 0.929 . S
H42 C43 0.969 . S
C43 H42 0.969 . S
C43 O44 1.550 . S
C43 H45 0.973 . S
O44 C43 1.550 . S
O44 C50 1.412 . S
H45 C43 0.973 . S
C46 H39 0.929 . S
C46 C47 1.400 . S
C46 C48 1.364 . S
C47 C46 1.400 . S
C47 C51 1.377 . S
C48 C46 1.364 . S
C48 C49 1.374 . S
C49 H40 0.930 . S
C49 C48 1.374 . S
C49 C50 1.383 . S
C50 O44 1.412 . S
C50 C49 1.383 . S
C50 C51 1.394 . S
C51 H41 0.929 . S
C51 C47 1.377 . S
C51 C50 1.394 . S
H52 C59 0.929 . S
H53 C62 0.930 . S
H54 C64 0.929 . S
H55 C56 0.969 . S
C56 H55 0.969 . S
C56 O57 1.550 . S
C56 H58 0.973 . S
O57 C56 1.550 . S
O57 C63 1.412 . S
H58 C56 0.973 . S
C59 H52 0.929 . S
C59 C60 1.400 . S
C59 C61 1.364 . S
C60 C59 1.400 . S
C60 C64 1.377 . S
C61 C59 1.364 . S
C61 C62 1.374 . S
C62 H53 0.930 . S
C62 C61 1.374 . S
C62 C63 1.383 . S
C63 O57 1.412 . S
C63 C62 1.383 . S
C63 C64 1.394 . S
C64 H54 0.929 . S
C64 C60 1.377 . S
C64 C63 1.394 . S
H65 C72 0.929 . S
H66 C75 0.930 . S
H67 C77 0.929 . S
H68 C69 0.969 . S
C69 H68 0.969 . S
C69 O70 1.550 . S
C69 H71 0.973 . S
O70 C69 1.550 . S
O70 C76 1.412 . S
H71 C69 0.973 . S
C72 H65 0.929 . S
C72 C73 1.400 . S
C72 C74 1.364 . S
C73 C72 1.400 . S
C73 C77 1.377 . S
C74 C72 1.364 . S
C74 C75 1.374 . S
C75 H66 0.930 . S
C75 C74 1.374 . S
C75 C76 1.383 . S
C76 O70 1.412 . S
C76 C75 1.383 . S
C76 C77 1.394 . S
C77 H67 0.929 . S
C77 C73 1.377 . S
C77 C76 1.394 . S
H78 C85 0.929 . S
H79 C88 0.930 . S
H80 C90 0.929 . S
H81 C82 0.969 . S
C82 H81 0.969 . S
C82 O83 1.550 . S
C82 H84 0.973 . S
O83 C82 1.550 . S
O83 C89 1.412 . S
H84 C82 0.973 . S
C85 H78 0.929 . S
C85 C86 1.400 . S
C85 C87 1.364 . S
C86 C85 1.400 . S
C86 C90 1.377 . S
C87 C85 1.364 . S
C87 C88 1.374 . S
C88 H79 0.930 . S
C88 C87 1.374 . S
C88 C89 1.383 . S
C89 O83 1.412 . S
C89 C88 1.383 . S
C89 C90 1.394 . S
C90 H80 0.929 . S
C90 C86 1.377 . S
C90 C89 1.394 . S
H91 C98 0.929 . S
H92 C101 0.930 . S
H93 C103 0.929 . S
H94 C95 0.969 . S
C95 H94 0.969 . S
C95 O96 1.550 . S
C95 H97 0.973 . S
O96 C95 1.550 . S
O96 C102 1.412 . S
H97 C95 0.973 . S
C98 H91 0.929 . S
C98 C99 1.400 . S
C98 C100 1.364 . S
C99 C98 1.400 . S
C99 C103 1.377 . S
C100 C98 1.364 . S
C100 C101 1.374 . S
C101 H92 0.930 . S
C101 C100 1.374 . S
C101 C102 1.383 . S
C102 O96 1.412 . S
C102 C101 1.383 . S
C102 C103 1.394 . S
C103 H93 0.929 . S
C103 C99 1.377 . S
C103 C102 1.394 . S
Zn104 O110 1.920 . S
Zn104 O116 1.898 . S
Zn104 O119 1.905 . S
Zn105 O113 1.905 1_655 S
Zn105 O114 1.898 . S
Zn105 O122 1.920 . S
Zn106 O109 2.080 1_455 S
Zn106 O112 2.114 . S
Zn106 O115 2.120 1_455 S
Zn106 O117 2.120 . S
Zn106 O118 2.114 . S
Zn106 O121 2.080 1_455 S
C107 O112 1.166 . S
C107 O113 1.182 . S
C108 O114 1.167 . S
C108 O115 1.299 . S
O109 Zn106 2.080 1_655 S
O109 C123 1.305 . S
O110 Zn104 1.920 . S
O110 C123 1.234 1_455 S
C111 O116 1.167 . S
C111 O117 1.299 . S
O112 Zn106 2.114 . S
O112 C107 1.166 . S
O113 Zn105 1.905 1_455 S
O113 C107 1.182 . S
O114 Zn105 1.898 . S
O114 C108 1.167 . S
O115 Zn106 2.120 1_655 S
O115 C108 1.299 . S
O116 Zn104 1.898 . S
O116 C111 1.167 . S
O117 Zn106 2.120 . S
O117 C111 1.299 . S
O118 Zn106 2.114 . S
O118 C120 1.166 . S
O119 Zn104 1.905 . S
O119 C120 1.182 . S
C120 O118 1.166 . S
C120 O119 1.182 . S
O121 Zn106 2.080 1_655 S
O121 C124 1.305 . S
O122 Zn105 1.920 . S
O122 C124 1.234 . S
C123 O109 1.305 . S
C123 O110 1.234 1_655 S
C124 O121 1.305 . S
C124 O122 1.234 . S
Zn125 O131 1.920 . S
Zn125 O137 1.898 . S
Zn125 O140 1.905 . S
Zn126 O134 1.905 . S
Zn126 O135 1.898 . S
Zn126 O143 1.920 . S
Zn127 O130 2.080 . S
Zn127 O133 2.114 . S
Zn127 O136 2.120 . S
Zn127 O138 2.120 . S
Zn127 O139 2.114 . S
Zn127 O142 2.080 . S
C128 O133 1.166 . S
C128 O134 1.182 . S
C129 O135 1.167 . S
C129 O136 1.299 . S
O130 Zn127 2.080 . S
O130 C144 1.305 . S
O131 Zn125 1.920 . S
O131 C144 1.234 . S
C132 O137 1.167 . S
C132 O138 1.299 . S
O133 Zn127 2.114 . S
O133 C128 1.166 . S
O134 Zn126 1.905 . S
O134 C128 1.182 . S
O135 Zn126 1.898 . S
O135 C129 1.167 . S
O136 Zn127 2.120 . S
O136 C129 1.299 . S
O137 Zn125 1.898 . S
O137 C132 1.167 . S
O138 Zn127 2.120 . S
O138 C132 1.299 . S
O139 Zn127 2.114 . S
O139 C141 1.166 . S
O140 Zn125 1.905 . S
O140 C141 1.182 . S
C141 O139 1.166 . S
C141 O140 1.182 . S
O142 Zn127 2.080 . S
O142 C145 1.305 . S
O143 Zn126 1.920 . S
O143 C145 1.234 . S
C144 O130 1.305 . S
C144 O131 1.234 . S
C145 O142 1.305 . S
C145 O143 1.234 . S
Zn146 O152 1.920 . S
Zn146 O158 1.898 . S
Zn146 O161 1.905 . S
Zn147 O155 1.905 . S
Zn147 O156 1.898 . S
Zn147 O164 1.920 1_655 S
Zn148 O151 2.080 . S
Zn148 O154 2.114 1_455 S
Zn148 O157 2.120 1_455 S
Zn148 O159 2.120 . S
Zn148 O160 2.114 1_455 S
Zn148 O163 2.080 . S
C149 O154 1.166 . S
C149 O155 1.182 . S
C150 O156 1.167 . S
C150 O157 1.299 . S
O151 Zn148 2.080 . S
O151 C165 1.305 . S
O152 Zn146 1.920 . S
O152 C165 1.234 . S
C153 O158 1.167 . S
C153 O159 1.299 . S
O154 Zn148 2.114 1_655 S
O154 C149 1.166 . S
O155 Zn147 1.905 . S
O155 C149 1.182 . S
O156 Zn147 1.898 . S
O156 C150 1.167 . S
O157 Zn148 2.120 1_655 S
O157 C150 1.299 . S
O158 Zn146 1.898 . S
O158 C153 1.167 . S
O159 Zn148 2.120 . S
O159 C153 1.299 . S
O160 Zn148 2.114 1_655 S
O160 C162 1.166 . S
O161 Zn146 1.905 . S
O161 C162 1.182 1_455 S
C162 O160 1.166 . S
C162 O161 1.182 1_655 S
O163 Zn148 2.080 . S
O163 C166 1.305 . S
O164 Zn147 1.920 1_455 S
O164 C166 1.234 . S
C165 O151 1.305 . S
C165 O152 1.234 . S
C166 O163 1.305 . S
C166 O164 1.234 . S
Zn167 O173 1.920 . S
Zn167 O179 1.898 . S
Zn167 O182 1.905 . S
Zn168 O176 1.905 . S
Zn168 O177 1.898 . S
Zn168 O185 1.920 . S
Zn169 O172 2.080 . S
Zn169 O175 2.114 . S
Zn169 O178 2.120 . S
Zn169 O180 2.120 . S
Zn169 O181 2.114 . S
Zn169 O184 2.080 . S
C170 O175 1.166 . S
C170 O176 1.182 . S
C171 O177 1.167 . S
C171 O178 1.299 . S
O172 Zn169 2.080 . S
O172 C186 1.305 . S
O173 Zn167 1.920 . S
O173 C186 1.234 . S
C174 O179 1.167 . S
C174 O180 1.299 . S
O175 Zn169 2.114 . S
O175 C170 1.166 . S
O176 Zn168 1.905 . S
O176 C170 1.182 . S
O177 Zn168 1.898 . S
O177 C171 1.167 . S
O178 Zn169 2.120 . S
O178 C171 1.299 . S
O179 Zn167 1.898 . S
O179 C174 1.167 . S
O180 Zn169 2.120 . S
O180 C174 1.299 . S
O181 Zn169 2.114 . S
O181 C183 1.166 . S
O182 Zn167 1.905 . S
O182 C183 1.182 . S
C183 O181 1.166 . S
C183 O182 1.182 . S
O184 Zn169 2.080 . S
O184 C187 1.305 . S
O185 Zn168 1.920 . S
O185 C187 1.234 . S
C186 O172 1.305 . S
C186 O173 1.234 . S
C187 O184 1.305 . S
C187 O185 1.234 . S
H188 C196 0.950 . S
H189 C201 0.950 . S
H190 C198 0.950 . S
H191 C200 0.950 . S
H192 C202 0.950 . S
H193 C204 0.950 . S
H194 C206 0.950 . S
H195 C207 0.950 . S
C196 H188 0.950 . S
C196 C197 1.386 . S
C196 C198 1.391 . S
C197 C196 1.386 . S
C197 C201 1.393 . S
C198 H190 0.950 . S
C198 C196 1.391 . S
C198 C199 1.400 . S
C199 C198 1.400 . S
C199 C200 1.398 . S
C199 C205 1.491 . S
C200 H191 0.950 . S
C200 C199 1.398 . S
C200 C201 1.391 . S
C201 H189 0.950 . S
C201 C197 1.393 . S
C201 C200 1.391 . S
C202 H192 0.950 . S
C202 C203 1.386 . S
C202 C204 1.391 1_545 S
C203 C202 1.386 . S
C203 C207 1.393 . S
C204 H193 0.950 . S
C204 C202 1.391 1_565 S
C204 C205 1.400 . S
C205 C199 1.491 . S
C205 C204 1.400 . S
C205 C206 1.398 . S
C206 H194 0.950 . S
C206 C205 1.398 . S
C206 C207 1.391 1_565 S
C207 H195 0.950 . S
C207 C203 1.393 . S
C207 C206 1.391 1_545 S
H208 C216 0.950 . S
H209 C221 0.950 . S
H210 C218 0.950 . S
H211 C220 0.950 . S
H212 C222 0.950 . S
H213 C224 0.950 . S
H214 C226 0.950 . S
H215 C227 0.950 . S
C216 H208 0.950 . S
C216 C217 1.386 . S
C216 C218 1.391 . S
C217 C216 1.386 . S
C217 C221 1.393 . S
C218 H210 0.950 . S
C218 C216 1.391 . S
C218 C219 1.400 . S
C219 C218 1.400 . S
C219 C220 1.398 . S
C219 C225 1.491 . S
C220 H211 0.950 . S
C220 C219 1.398 . S
C220 C221 1.391 . S
C221 H209 0.950 . S
C221 C217 1.393 . S
C221 C220 1.391 . S
C222 H212 0.950 . S
C222 C223 1.386 . S
C222 C224 1.391 . S
C223 C222 1.386 . S
C223 C227 1.393 . S
C224 H213 0.950 . S
C224 C222 1.391 . S
C224 C225 1.400 . S
C225 C219 1.491 . S
C225 C224 1.400 . S
C225 C226 1.398 . S
C226 H214 0.950 . S
C226 C225 1.398 . S
C226 C227 1.391 . S
C227 H215 0.950 . S
C227 C223 1.393 . S
C227 C226 1.391 . S
H228 C236 0.950 . S
H229 C241 0.950 . S
H230 C238 0.950 . S
H231 C240 0.950 . S
H232 C242 0.950 . S
H233 C244 0.950 . S
H234 C246 0.950 . S
H235 C247 0.950 . S
C236 H228 0.950 . S
C236 C237 1.386 . S
C236 C238 1.391 . S
C237 C236 1.386 . S
C237 C241 1.393 . S
C238 H230 0.950 . S
C238 C236 1.391 . S
C238 C239 1.400 . S
C239 C238 1.400 . S
C239 C240 1.398 . S
C239 C245 1.491 . S
C240 H231 0.950 . S
C240 C239 1.398 . S
C240 C241 1.391 . S
C241 H229 0.950 . S
C241 C237 1.393 . S
C241 C240 1.391 . S
C242 H232 0.950 . S
C242 C243 1.386 . S
C242 C244 1.391 . S
C243 C242 1.386 . S
C243 C247 1.393 . S
C244 H233 0.950 . S
C244 C242 1.391 . S
C244 C245 1.400 . S
C245 C239 1.491 . S
C245 C244 1.400 . S
C245 C246 1.398 . S
C246 H234 0.950 . S
C246 C245 1.398 . S
C246 C247 1.391 . S
C247 H235 0.950 . S
C247 C243 1.393 . S
C247 C246 1.391 . S
H248 C256 0.950 . S
H249 C261 0.950 . S
H250 C258 0.950 . S
H251 C260 0.950 . S
H252 C262 0.950 . S
H253 C264 0.950 1_565 S
H254 C266 0.950 . S
H255 C267 0.951 . S
C256 H248 0.950 . S
C256 C257 1.386 . S
C256 C258 1.391 . S
C257 C256 1.386 . S
C257 C261 1.393 . S
C258 H250 0.950 . S
C258 C256 1.391 . S
C258 C259 1.400 . S
C259 C258 1.400 . S
C259 C260 1.398 . S
C259 C265 1.491 . S
C260 H251 0.950 . S
C260 C259 1.398 . S
C260 C261 1.391 . S
C261 H249 0.950 . S
C261 C257 1.393 . S
C261 C260 1.391 . S
C262 H252 0.950 . S
C262 C263 1.386 . S
C262 C264 1.389 . S
C263 C262 1.386 . S
C263 C267 1.393 . S
C264 H253 0.950 1_545 S
C264 C262 1.389 . S
C264 C265 1.402 1_545 S
C265 C259 1.491 . S
C265 C264 1.402 1_565 S
C265 C266 1.398 . S
C266 H254 0.950 . S
C266 C265 1.398 . S
C266 C267 1.391 1_565 S
C267 H255 0.951 . S
C267 C263 1.393 . S
C267 C266 1.391 1_545 S
H268 C276 0.950 . S
H269 C281 0.950 . S
H270 C278 0.950 . S
H271 C280 0.950 . S
H272 C282 0.950 . S
H273 C284 0.950 . S
H274 C286 0.950 . S
H275 C287 0.950 . S
C276 H268 0.950 . S
C276 C277 1.386 . S
C276 C278 1.391 . S
C277 C276 1.386 . S
C277 C281 1.393 . S
C278 H270 0.950 . S
C278 C276 1.391 . S
C278 C279 1.400 . S
C279 C278 1.400 . S
C279 C280 1.398 . S
C279 C285 1.491 . S
C280 H271 0.950 . S
C280 C279 1.398 . S
C280 C281 1.391 . S
C281 H269 0.950 . S
C281 C277 1.393 . S
C281 C280 1.391 . S
C282 H272 0.950 . S
C282 C283 1.386 . S
C282 C284 1.391 1_565 S
C283 C282 1.386 . S
C283 C287 1.393 . S
C284 H273 0.950 . S
C284 C282 1.391 1_545 S
C284 C285 1.400 . S
C285 C279 1.491 . S
C285 C284 1.400 . S
C285 C286 1.398 . S
C286 H274 0.950 . S
C286 C285 1.398 . S
C286 C287 1.391 1_545 S
C287 H275 0.950 . S
C287 C283 1.393 . S
C287 C286 1.391 1_565 S
H288 C296 0.950 . S
H289 C301 0.950 . S
H290 C298 0.950 . S
H291 C300 0.950 . S
H292 C302 0.950 . S
H293 C304 0.950 . S
H294 C306 0.950 . S
H295 C307 0.950 . S
C296 H288 0.950 . S
C296 C297 1.386 . S
C296 C298 1.391 . S
C297 C296 1.386 . S
C297 C301 1.393 . S
C298 H290 0.950 . S
C298 C296 1.391 . S
C298 C299 1.400 . S
C299 C298 1.400 . S
C299 C300 1.398 . S
C299 C305 1.491 . S
C300 H291 0.950 . S
C300 C299 1.398 . S
C300 C301 1.391 . S
C301 H289 0.950 . S
C301 C297 1.393 . S
C301 C300 1.391 . S
C302 H292 0.950 . S
C302 C303 1.386 . S
C302 C304 1.391 . S
C303 C302 1.386 . S
C303 C307 1.393 . S
C304 H293 0.950 . S
C304 C302 1.391 . S
C304 C305 1.400 . S
C305 C299 1.491 . S
C305 C304 1.400 . S
C305 C306 1.398 . S
C306 H294 0.950 . S
C306 C305 1.398 . S
C306 C307 1.391 . S
C307 H295 0.950 . S
C307 C303 1.393 . S
C307 C306 1.391 . S
H308 C316 0.950 . S
H309 C321 0.950 . S
H310 C318 0.950 . S
H311 C320 0.950 . S
H312 C322 0.950 . S
H313 C324 0.950 . S
H314 C326 0.950 . S
H315 C327 0.950 . S
C316 H308 0.950 . S
C316 C317 1.386 . S
C316 C318 1.391 . S
C317 C316 1.386 . S
C317 C321 1.393 . S
C318 H310 0.950 . S
C318 C316 1.391 . S
C318 C319 1.400 . S
C319 C318 1.400 . S
C319 C320 1.398 . S
C319 C325 1.491 . S
C320 H311 0.950 . S
C320 C319 1.398 . S
C320 C321 1.391 . S
C321 H309 0.950 . S
C321 C317 1.393 . S
C321 C320 1.391 . S
C322 H312 0.950 . S
C322 C323 1.386 . S
C322 C324 1.391 . S
C323 C322 1.386 . S
C323 C327 1.393 . S
C324 H313 0.950 . S
C324 C322 1.391 . S
C324 C325 1.400 . S
C325 C319 1.491 . S
C325 C324 1.400 . S
C325 C326 1.398 . S
C326 H314 0.950 . S
C326 C325 1.398 . S
C326 C327 1.391 . S
C327 H315 0.950 . S
C327 C323 1.393 . S
C327 C326 1.391 . S
H328 C336 0.950 . S
H329 C341 0.950 . S
H330 C338 0.950 . S
H331 C340 0.950 . S
H332 C342 0.950 . S
H333 C344 0.950 . S
H334 C346 0.950 . S
H335 C347 0.950 . S
C336 H328 0.950 . S
C336 C337 1.386 . S
C336 C338 1.391 . S
C337 C336 1.386 . S
C337 C341 1.393 . S
C338 H330 0.950 . S
C338 C336 1.391 . S
C338 C339 1.400 . S
C339 C338 1.400 . S
C339 C340 1.398 . S
C339 C345 1.491 . S
C340 H331 0.950 . S
C340 C339 1.398 . S
C340 C341 1.391 . S
C341 H329 0.950 . S
C341 C337 1.393 . S
C341 C340 1.391 . S
C342 H332 0.950 . S
C342 C343 1.386 . S
C342 C344 1.391 1_565 S
C343 C342 1.386 . S
C343 C347 1.393 . S
C344 H333 0.950 . S
C344 C342 1.391 1_545 S
C344 C345 1.400 . S
C345 C339 1.491 . S
C345 C344 1.400 . S
C345 C346 1.398 1_545 S
C346 H334 0.950 . S
C346 C345 1.398 1_565 S
C346 C347 1.391 . S
C347 H335 0.950 . S
C347 C343 1.393 . S
C347 C346 1.391 . S
H348 C356 0.950 . S
H349 C361 0.950 . S
H350 C358 0.948 1_554 S
H351 C360 0.950 . S
H352 C362 0.950 . S
H353 C364 0.950 . S
H354 C366 0.950 . S
H355 C367 0.950 . S
C356 H348 0.950 . S
C356 C357 1.386 . S
C356 C358 1.409 . S
C357 C356 1.386 . S
C357 C361 1.393 . S
C358 H350 0.948 1_556 S
C358 C356 1.409 . S
C358 C359 1.383 1_556 S
C359 C358 1.383 1_554 S
C359 C360 1.398 . S
C359 C365 1.491 . S
C360 H351 0.950 . S
C360 C359 1.398 . S
C360 C361 1.391 1_554 S
C361 H349 0.950 . S
C361 C357 1.393 . S
C361 C360 1.391 1_556 S
C362 H352 0.950 . S
C362 C363 1.386 . S
C362 C364 1.391 . S
C363 C362 1.386 . S
C363 C367 1.393 . S
C364 H353 0.950 . S
C364 C362 1.391 . S
C364 C365 1.400 . S
C365 C359 1.491 . S
C365 C364 1.400 . S
C365 C366 1.398 . S
C366 H354 0.950 . S
C366 C365 1.398 . S
C366 C367 1.391 . S
C367 H355 0.950 . S
C367 C363 1.393 . S
C367 C366 1.391 . S
H368 C376 0.950 . S
H369 C381 0.950 . S
H370 C378 0.950 . S
H371 C380 0.950 . S
H372 C382 0.950 . S
H373 C384 0.950 . S
H374 C386 0.950 . S
H375 C387 0.950 . S
C376 H368 0.950 . S
C376 C377 1.386 . S
C376 C378 1.391 . S
C377 C376 1.386 . S
C377 C381 1.393 . S
C378 H370 0.950 . S
C378 C376 1.391 . S
C378 C379 1.400 . S
C379 C378 1.400 . S
C379 C380 1.398 . S
C379 C385 1.491 . S
C380 H371 0.950 . S
C380 C379 1.398 . S
C380 C381 1.391 . S
C381 H369 0.950 . S
C381 C377 1.393 . S
C381 C380 1.391 . S
C382 H372 0.950 . S
C382 C383 1.386 . S
C382 C384 1.391 . S
C383 C382 1.386 . S
C383 C387 1.393 . S
C384 H373 0.950 . S
C384 C382 1.391 . S
C384 C385 1.400 . S
C385 C379 1.491 . S
C385 C384 1.400 . S
C385 C386 1.398 . S
C386 H374 0.950 . S
C386 C385 1.398 . S
C386 C387 1.391 . S
C387 H375 0.950 . S
C387 C383 1.393 . S
C387 C386 1.391 . S
H388 C396 0.950 . S
H389 C401 0.950 . S
H390 C398 0.950 . S
H391 C400 0.950 . S
H392 C402 0.950 . S
H393 C404 0.950 . S
H394 C406 0.950 . S
H395 C407 0.950 . S
C396 H388 0.950 . S
C396 C397 1.386 . S
C396 C398 1.391 1_554 S
C397 C396 1.386 . S
C397 C401 1.393 . S
C398 H390 0.950 . S
C398 C396 1.391 1_556 S
C398 C399 1.400 . S
C399 C398 1.400 . S
C399 C400 1.398 . S
C399 C405 1.491 . S
C400 H391 0.950 . S
C400 C399 1.398 . S
C400 C401 1.391 1_556 S
C401 H389 0.950 . S
C401 C397 1.393 . S
C401 C400 1.391 1_554 S
C402 H392 0.950 . S
C402 C403 1.386 . S
C402 C404 1.391 . S
C403 C402 1.386 . S
C403 C407 1.393 . S
C404 H393 0.950 . S
C404 C402 1.391 . S
C404 C405 1.400 . S
C405 C399 1.491 . S
C405 C404 1.400 . S
C405 C406 1.398 . S
C406 H394 0.950 . S
C406 C405 1.398 . S
C406 C407 1.391 . S
C407 H395 0.950 . S
C407 C403 1.393 . S
C407 C406 1.391 . S
H408 C416 0.950 . S
H409 C421 0.950 . S
H410 C418 0.950 . S
H411 C420 0.950 . S
H412 C422 0.950 . S
H413 C424 0.950 . S
H414 C426 0.950 . S
H415 C427 0.950 . S
C416 H408 0.950 . S
C416 C417 1.386 . S
C416 C418 1.391 . S
C417 C416 1.386 . S
C417 C421 1.393 . S
C418 H410 0.950 . S
C418 C416 1.391 . S
C418 C419 1.400 . S
C419 C418 1.400 . S
C419 C420 1.398 . S
C419 C425 1.491 . S
C420 H411 0.950 . S
C420 C419 1.398 . S
C420 C421 1.391 . S
C421 H409 0.950 . S
C421 C417 1.393 . S
C421 C420 1.391 . S
C422 H412 0.950 . S
C422 C423 1.386 . S
C422 C424 1.391 . S
C423 C422 1.386 . S
C423 C427 1.393 . S
C424 H413 0.950 . S
C424 C422 1.391 . S
C424 C425 1.400 . S
C425 C419 1.491 . S
C425 C424 1.400 . S
C425 C426 1.398 . S
C426 H414 0.950 . S
C426 C425 1.398 . S
C426 C427 1.391 . S
C427 H415 0.950 . S
C427 C423 1.393 . S
C427 C426 1.391 . S
H428 C436 0.950 . S
H429 C441 0.950 . S
H430 C438 0.950 . S
H431 C440 0.950 . S
H432 C442 0.950 . S
H433 C444 0.950 . S
H434 C446 0.950 . S
H435 C447 0.965 . S
C436 H428 0.950 . S
C436 C437 1.386 . S
C436 C438 1.391 1_554 S
C437 C436 1.386 . S
C437 C441 1.393 1_554 S
C438 H430 0.950 . S
C438 C436 1.391 1_556 S
C438 C439 1.400 . S
C439 C438 1.400 . S
C439 C440 1.398 . S
C439 C445 1.491 . S
C440 H431 0.950 . S
C440 C439 1.398 . S
C440 C441 1.391 . S
C441 H429 0.950 . S
C441 C437 1.393 1_556 S
C441 C440 1.391 . S
C442 H432 0.950 . S
C442 C443 1.386 . S
C442 C444 1.391 . S
C443 C442 1.386 . S
C443 C447 1.393 . S
C444 H433 0.950 . S
C444 C442 1.391 . S
C444 C445 1.400 . S
C445 C439 1.491 . S
C445 C444 1.400 . S
C445 C446 1.398 . S
C446 H434 0.950 . S
C446 C445 1.398 . S
C446 C447 1.391 . S
C447 H435 0.965 . S
C447 C443 1.393 . S
C447 C446 1.391 . S
H448 C456 0.950 . S
H449 C461 0.950 . S
H450 C458 0.950 . S
H451 C460 0.950 . S
H452 C462 0.950 . S
H453 C464 0.950 . S
H454 C466 0.950 . S
H455 C467 0.950 . S
C456 H448 0.950 . S
C456 C457 1.386 . S
C456 C458 1.391 . S
C457 C456 1.386 . S
C457 C461 1.393 . S
C458 H450 0.950 . S
C458 C456 1.391 . S
C458 C459 1.400 . S
C459 C458 1.400 . S
C459 C460 1.398 . S
C459 C465 1.491 . S
C460 H451 0.950 . S
C460 C459 1.398 . S
C460 C461 1.391 . S
C461 H449 0.950 . S
C461 C457 1.393 . S
C461 C460 1.391 . S
C462 H452 0.950 . S
C462 C463 1.386 . S
C462 C464 1.391 . S
C463 C462 1.386 . S
C463 C467 1.393 . S
C464 H453 0.950 . S
C464 C462 1.391 . S
C464 C465 1.400 . S
C465 C459 1.491 . S
C465 C464 1.400 . S
C465 C466 1.398 . S
C466 H454 0.950 . S
C466 C465 1.398 . S
C466 C467 1.391 . S
C467 H455 0.950 . S
C467 C463 1.393 . S
C467 C466 1.391 . S
H468 C476 0.950 . S
H469 C481 0.950 . S
H470 C478 0.950 . S
H471 C480 0.950 . S
H472 C482 0.950 . S
H473 C484 0.950 . S
H474 C486 0.950 . S
H475 C487 0.950 . S
C476 H468 0.950 . S
C476 C477 1.386 . S
C476 C478 1.391 1_556 S
C477 C476 1.386 . S
C477 C481 1.393 . S
C478 H470 0.950 . S
C478 C476 1.391 1_554 S
C478 C479 1.400 . S
C479 C478 1.400 . S
C479 C480 1.398 . S
C479 C485 1.491 . S
C480 H471 0.950 . S
C480 C479 1.398 . S
C480 C481 1.391 1_554 S
C481 H469 0.950 . S
C481 C477 1.393 . S
C481 C480 1.391 1_556 S
C482 H472 0.950 . S
C482 C483 1.386 . S
C482 C484 1.391 . S
C483 C482 1.386 . S
C483 C487 1.393 . S
C484 H473 0.950 . S
C484 C482 1.391 . S
C484 C485 1.400 . S
C485 C479 1.491 . S
C485 C484 1.400 . S
C485 C486 1.398 . S
C486 H474 0.950 . S
C486 C485 1.398 . S
C486 C487 1.391 . S
C487 H475 0.950 . S
C487 C483 1.393 . S
C487 C486 1.391 . S
H488 C496 0.950 . S
H489 C501 0.950 . S
H490 C498 0.950 . S
H491 C500 0.950 . S
H492 C502 0.950 . S
H493 C504 0.950 . S
H494 C506 0.950 . S
H495 C507 0.950 . S
C496 H488 0.950 . S
C496 C497 1.386 . S
C496 C498 1.391 . S
C497 C496 1.386 . S
C497 C501 1.393 . S
C498 H490 0.950 . S
C498 C496 1.391 . S
C498 C499 1.400 . S
C499 C498 1.400 . S
C499 C500 1.398 . S
C499 C505 1.491 . S
C500 H491 0.950 . S
C500 C499 1.398 . S
C500 C501 1.391 . S
C501 H489 0.950 . S
C501 C497 1.393 . S
C501 C500 1.391 . S
C502 H492 0.950 . S
C502 C503 1.386 . S
C502 C504 1.391 . S
C503 C502 1.386 . S
C503 C507 1.393 . S
C504 H493 0.950 . S
C504 C502 1.391 . S
C504 C505 1.400 . S
C505 C499 1.491 . S
C505 C504 1.400 . S
C505 C506 1.398 . S
C506 H494 0.950 . S
C506 C505 1.398 . S
C506 C507 1.391 . S
C507 H495 0.950 . S
C507 C503 1.393 . S
C507 C506 1.391 . S
H508 C516 0.950 . S
H509 C521 0.950 . S
H510 C518 0.950 . S
H511 C520 0.950 . S
H512 C522 0.950 . S
H513 C524 0.950 . S
H514 C526 0.950 . S
H515 C527 0.950 . S
C516 H508 0.950 . S
C516 C517 1.386 . S
C516 C518 1.391 . S
C517 C516 1.386 . S
C517 C521 1.393 . S
C518 H510 0.950 . S
C518 C516 1.391 . S
C518 C519 1.400 . S
C519 C518 1.400 . S
C519 C520 1.398 . S
C519 C525 1.491 . S
C520 H511 0.950 . S
C520 C519 1.398 . S
C520 C521 1.391 . S
C521 H509 0.950 . S
C521 C517 1.393 . S
C521 C520 1.391 . S
C522 H512 0.950 . S
C522 C523 1.386 . S
C522 C524 1.391 . S
C523 C522 1.386 . S
C523 C527 1.393 . S
C524 H513 0.950 . S
C524 C522 1.391 . S
C524 C525 1.400 . S
C525 C519 1.491 . S
C525 C524 1.400 . S
C525 C526 1.398 . S
C526 H514 0.950 . S
C526 C525 1.398 . S
C526 C527 1.391 . S
C527 H515 0.950 . S
C527 C523 1.393 . S
C527 C526 1.391 . S
H528 C536 0.950 . S
H529 C541 0.950 . S
H530 C538 0.950 . S
H531 C540 0.950 . S
H532 C542 0.950 . S
H533 C544 0.950 . S
H534 C546 0.950 . S
H535 C547 0.950 . S
C536 H528 0.950 . S
C536 C537 1.386 . S
C536 C538 1.391 . S
C537 C536 1.386 . S
C537 C541 1.393 . S
C538 H530 0.950 . S
C538 C536 1.391 . S
C538 C539 1.400 . S
C539 C538 1.400 . S
C539 C540 1.398 . S
C539 C545 1.491 . S
C540 H531 0.950 . S
C540 C539 1.398 . S
C540 C541 1.391 . S
C541 H529 0.950 . S
C541 C537 1.393 . S
C541 C540 1.391 . S
C542 H532 0.950 . S
C542 C543 1.386 . S
C542 C544 1.391 . S
C543 C542 1.386 . S
C543 C547 1.393 . S
C544 H533 0.950 . S
C544 C542 1.391 . S
C544 C545 1.400 . S
C545 C539 1.491 . S
C545 C544 1.400 . S
C545 C546 1.398 . S
C546 H534 0.950 . S
C546 C545 1.398 . S
C546 C547 1.391 . S
C547 H535 0.950 . S
C547 C543 1.393 . S
C547 C546 1.391 . S
H548 C556 0.950 . S
H549 C561 0.950 . S
H550 C558 0.950 . S
H551 C560 0.950 . S
H552 C562 0.950 . S
H553 C564 0.950 . S
H554 C566 0.950 . S
H555 C567 0.950 . S
C556 H548 0.950 . S
C556 C557 1.386 . S
C556 C558 1.391 . S
C557 C556 1.386 . S
C557 C561 1.393 . S
C558 H550 0.950 . S
C558 C556 1.391 . S
C558 C559 1.400 . S
C559 C558 1.400 . S
C559 C560 1.398 . S
C559 C565 1.491 . S
C560 H551 0.950 . S
C560 C559 1.398 . S
C560 C561 1.391 . S
C561 H549 0.950 . S
C561 C557 1.393 . S
C561 C560 1.391 . S
C562 H552 0.950 . S
C562 C563 1.386 . S
C562 C564 1.391 . S
C563 C562 1.386 . S
C563 C567 1.393 . S
C564 H553 0.950 . S
C564 C562 1.391 . S
C564 C565 1.400 . S
C565 C559 1.491 . S
C565 C564 1.400 . S
C565 C566 1.398 . S
C566 H554 0.950 . S
C566 C565 1.398 . S
C566 C567 1.391 . S
C567 H555 0.950 . S
C567 C563 1.393 . S
C567 C566 1.391 . S
H568 C576 0.950 . S
H569 C581 0.950 . S
H570 C578 0.950 . S
H571 C580 0.950 . S
H572 C582 0.950 . S
H573 C584 0.950 . S
H574 C586 0.950 . S
H575 C587 0.950 . S
C576 H568 0.950 . S
C576 C577 1.386 . S
C576 C578 1.391 . S
C577 C576 1.386 . S
C577 C581 1.393 . S
C578 H570 0.950 . S
C578 C576 1.391 . S
C578 C579 1.400 . S
C579 C578 1.400 . S
C579 C580 1.398 . S
C579 C585 1.491 . S
C580 H571 0.950 . S
C580 C579 1.398 . S
C580 C581 1.391 . S
C581 H569 0.950 . S
C581 C577 1.393 . S
C581 C580 1.391 . S
C582 H572 0.950 . S
C582 C583 1.386 . S
C582 C584 1.391 . S
C583 C582 1.386 . S
C583 C587 1.393 . S
C584 H573 0.950 . S
C584 C582 1.391 . S
C584 C585 1.400 . S
C585 C579 1.491 . S
C585 C584 1.400 . S
C585 C586 1.398 . S
C586 H574 0.950 . S
C586 C585 1.398 . S
C586 C587 1.391 . S
C587 H575 0.950 . S
C587 C583 1.393 . S
C587 C586 1.391 . S
H588 C596 0.950 . S
H589 C601 0.950 . S
H590 C598 0.950 . S
H591 C600 0.950 . S
H592 C602 0.950 . S
H593 C604 0.950 . S
H594 C606 0.950 . S
H595 C607 0.950 . S
C596 H588 0.950 . S
C596 C597 1.386 . S
C596 C598 1.391 . S
C597 C596 1.386 . S
C597 C601 1.393 . S
C598 H590 0.950 . S
C598 C596 1.391 . S
C598 C599 1.400 . S
C599 C598 1.400 . S
C599 C600 1.398 . S
C599 C605 1.491 . S
C600 H591 0.950 . S
C600 C599 1.398 . S
C600 C601 1.391 . S
C601 H589 0.950 . S
C601 C597 1.393 . S
C601 C600 1.391 . S
C602 H592 0.950 . S
C602 C603 1.386 . S
C602 C604 1.391 . S
C603 C602 1.386 . S
C603 C607 1.393 . S
C604 H593 0.950 . S
C604 C602 1.391 . S
C604 C605 1.400 . S
C605 C599 1.491 . S
C605 C604 1.400 . S
C605 C606 1.398 . S
C606 H594 0.950 . S
C606 C605 1.398 . S
C606 C607 1.391 . S
C607 H595 0.950 . S
C607 C603 1.393 . S
C607 C606 1.391 . S
H608 C616 0.950 . S
H609 C621 0.950 . S
H610 C618 0.950 . S
H611 C620 0.950 . S
H612 C622 0.950 . S
H613 C624 0.950 . S
H614 C626 0.950 . S
H615 C627 0.950 . S
C616 H608 0.950 . S
C616 C617 1.386 . S
C616 C618 1.391 . S
C617 C616 1.386 . S
C617 C621 1.393 . S
C618 H610 0.950 . S
C618 C616 1.391 . S
C618 C619 1.400 . S
C619 C618 1.400 . S
C619 C620 1.398 . S
C619 C625 1.491 . S
C620 H611 0.950 . S
C620 C619 1.398 . S
C620 C621 1.391 . S
C621 H609 0.950 . S
C621 C617 1.393 . S
C621 C620 1.391 . S
C622 H612 0.950 . S
C622 C623 1.386 . S
C622 C624 1.391 . S
C623 C622 1.386 . S
C623 C627 1.393 . S
C624 H613 0.950 . S
C624 C622 1.391 . S
C624 C625 1.400 . S
C625 C619 1.491 . S
C625 C624 1.400 . S
C625 C626 1.398 . S
C626 H614 0.950 . S
C626 C625 1.398 . S
C626 C627 1.391 . S
C627 H615 0.950 . S
C627 C623 1.393 . S
C627 C626 1.391 . S
H628 C636 0.950 . S
H629 C641 0.950 . S
H630 C638 0.950 . S
H631 C640 0.950 . S
H632 C642 0.950 . S
H633 C644 0.950 . S
H634 C646 0.950 . S
H635 C647 0.950 . S
C636 H628 0.950 . S
C636 C637 1.386 . S
C636 C638 1.391 . S
C637 C636 1.386 . S
C637 C641 1.393 . S
C638 H630 0.950 . S
C638 C636 1.391 . S
C638 C639 1.400 . S
C639 C638 1.400 . S
C639 C640 1.398 . S
C639 C645 1.491 . S
C640 H631 0.950 . S
C640 C639 1.398 . S
C640 C641 1.391 . S
C641 H629 0.950 . S
C641 C637 1.393 . S
C641 C640 1.391 . S
C642 H632 0.950 . S
C642 C643 1.386 . S
C642 C644 1.391 . S
C643 C642 1.386 . S
C643 C647 1.393 . S
C644 H633 0.950 . S
C644 C642 1.391 . S
C644 C645 1.400 . S
C645 C639 1.491 . S
C645 C644 1.400 . S
C645 C646 1.398 . S
C646 H634 0.950 . S
C646 C645 1.398 . S
C646 C647 1.391 . S
C647 H635 0.950 . S
C647 C643 1.393 . S
C647 C646 1.391 . S
H648 C656 0.950 . S
H649 C661 0.950 . S
H650 C658 0.950 . S
H651 C660 0.950 . S
H652 C662 0.950 . S
H653 C664 0.950 . S
H654 C666 0.950 . S
H655 C667 0.950 . S
C656 H648 0.950 . S
C656 C657 1.386 . S
C656 C658 1.391 . S
C657 C656 1.386 . S
C657 C661 1.393 . S
C658 H650 0.950 . S
C658 C656 1.391 . S
C658 C659 1.400 . S
C659 C658 1.400 . S
C659 C660 1.398 . S
C659 C665 1.491 . S
C660 H651 0.950 . S
C660 C659 1.398 . S
C660 C661 1.391 . S
C661 H649 0.950 . S
C661 C657 1.393 . S
C661 C660 1.391 . S
C662 H652 0.950 . S
C662 C663 1.386 . S
C662 C664 1.391 . S
C663 C662 1.386 . S
C663 C667 1.393 . S
C664 H653 0.950 . S
C664 C662 1.391 . S
C664 C665 1.400 . S
C665 C659 1.491 . S
C665 C664 1.400 . S
C665 C666 1.398 . S
C666 H654 0.950 . S
C666 C665 1.398 . S
C666 C667 1.391 . S
C667 H655 0.950 . S
C667 C663 1.393 . S
C667 C666 1.391 . S
C197 C86 1.357 . S
C203 C120 1.294 . S
C223 C128 1.438 . S
C217 C100 1.475 . S
C243 C132 1.250 . S
C237 C60 1.365 . S
C257 C74 1.466 . S
C263 C108 1.429 . S
C283 C149 1.412 . S
C277 C35 1.477 . S
C303 C183 1.295 . S
C297 C47 1.350 . S
C317 C9 1.487 . S
C323 C171 1.401 . S
C337 C21 1.351 . S
C343 C153 1.279 . S
C363 C107 1.364 . S
C357 C22 1.461 . S
C383 C141 1.332 . S
C377 C8 1.457 . S
C403 C145 1.373 . S
C397 C48 1.462 . S
C423 C123 1.324 . S
C417 C34 1.457 . S
C443 C162 1.313 . S
C437 C73 1.458 . S
C457 C61 1.462 . S
C463 C170 1.363 . S
C483 C186 1.297 . S
C477 C99 1.456 . S
C497 C87 1.464 . S
C503 C166 1.377 . S
C523 C111 1.436 . S
C517 C4 1.559 . S
C543 C129 1.335 . S
C537 C17 1.413 . S
C557 C30 1.546 . S
C563 C144 1.431 . S
C583 C124 1.297 . S
C577 C43 1.429 . S
C603 C150 1.300 . S
C597 C56 1.451 . S
C617 C69 1.519 . S
C623 C174 1.410 . S
C637 C82 1.444 . S
C643 C187 1.313 . S
C657 C95 1.523 . S
C663 C165 1.424 . S
