# Generated by pormake.
# Topology zzz, (3,6)-cn, num edge types: 1
# Building blocks:
#     Node 0, Type 0, BuildingBlock: MIDCAF_clean_linker_0, # of connection points: 3
#     Node 1, Type 0, BuildingBlock: MIDCAF_clean_linker_0, # of connection points: 3
#     Node 2, Type 0, BuildingBlock: MIDCAF_clean_linker_0, # of connection points: 3
#     Node 3, Type 0, BuildingBlock: MIDCAF_clean_linker_0, # of connection points: 3
#     Node 4, Type 0, BuildingBlock: MIDCAF_clean_linker_0, # of connection points: 3
#     Node 5, Type 0, BuildingBlock: MIDCAF_clean_linker_0, # of connection points: 3
#     Node 6, Type 0, BuildingBlock: MIDCAF_clean_linker_0, # of connection points: 3
#     Node 7, Type 0, BuildingBlock: MIDCAF_clean_linker_0, # of connection points: 3
#     Node 8, Type 1, BuildingBlock: KUMBUR_clean_sbu_1, # of connection points: 6
#     Node 9, Type 1, BuildingBlock: KUMBUR_clean_sbu_1, # of connection points: 6
#     Node 10, Type 1, BuildingBlock: KUMBUR_clean_sbu_1, # of connection points: 6
#     Node 11, Type 1, BuildingBlock: KUMBUR_clean_sbu_1, # of connection points: 6
#     Edge 12, Type (0, 1), BuildingBlock: XUDNAN_clean_linker_2, # of connection points: 2
#     Edge 13, Type (0, 1), BuildingBlock: XUDNAN_clean_linker_2, # of connection points: 2
#     Edge 14, Type (0, 1), BuildingBlock: XUDNAN_clean_linker_2, # of connection points: 2
#     Edge 15, Type (0, 1), BuildingBlock: XUDNAN_clean_linker_2, # of connection points: 2
#     Edge 16, Type (0, 1), BuildingBlock: XUDNAN_clean_linker_2, # of connection points: 2
#     Edge 17, Type (0, 1), BuildingBlock: XUDNAN_clean_linker_2, # of connection points: 2
#     Edge 18, Type (0, 1), BuildingBlock: XUDNAN_clean_linker_2, # of connection points: 2
#     Edge 19, Type (0, 1), BuildingBlock: XUDNAN_clean_linker_2, # of connection points: 2
#     Edge 20, Type (0, 1), BuildingBlock: XUDNAN_clean_linker_2, # of connection points: 2
#     Edge 21, Type (0, 1), BuildingBlock: XUDNAN_clean_linker_2, # of connection points: 2
#     Edge 22, Type (0, 1), BuildingBlock: XUDNAN_clean_linker_2, # of connection points: 2
#     Edge 23, Type (0, 1), BuildingBlock: XUDNAN_clean_linker_2, # of connection points: 2
#     Edge 24, Type (0, 1), BuildingBlock: XUDNAN_clean_linker_2, # of connection points: 2
#     Edge 25, Type (0, 1), BuildingBlock: XUDNAN_clean_linker_2, # of connection points: 2
#     Edge 26, Type (0, 1), BuildingBlock: XUDNAN_clean_linker_2, # of connection points: 2
#     Edge 27, Type (0, 1), BuildingBlock: XUDNAN_clean_linker_2, # of connection points: 2
#     Edge 28, Type (0, 1), BuildingBlock: XUDNAN_clean_linker_2, # of connection points: 2
#     Edge 29, Type (0, 1), BuildingBlock: XUDNAN_clean_linker_2, # of connection points: 2
#     Edge 30, Type (0, 1), BuildingBlock: XUDNAN_clean_linker_2, # of connection points: 2
#     Edge 31, Type (0, 1), BuildingBlock: XUDNAN_clean_linker_2, # of connection points: 2
#     Edge 32, Type (0, 1), BuildingBlock: XUDNAN_clean_linker_2, # of connection points: 2
#     Edge 33, Type (0, 1), BuildingBlock: XUDNAN_clean_linker_2, # of connection points: 2
#     Edge 34, Type (0, 1), BuildingBlock: XUDNAN_clean_linker_2, # of connection points: 2
#     Edge 35, Type (0, 1), BuildingBlock: XUDNAN_clean_linker_2, # of connection points: 2
# Relax obj value: 0.315
# Max RMSD: 0.210
# Mean RMSD: 0.182
data_MOF--net-zzz--node1-KUMBUR_clean_sbu_1--node2-MIDCAF_clean_linker_0--edge1-XUDNAN_clean_linker_2
_symmetry_space_group_name_H-M    P1
_symmetry_Int_Tables_number       1
_symmetry_cell_setting            triclinic
loop_
_symmetry_equiv_pos_as_xyz
'x, y, z'
_cell_length_a     56.367195
_cell_length_b     56.455818
_cell_length_c     21.034644
_cell_angle_alpha  89.916967
_cell_angle_beta   89.963845
_cell_angle_gamma 90.479953
loop_
_atom_site_label
_atom_site_type_symbol
_atom_site_fract_x
_atom_site_fract_y
_atom_site_fract_z
_atom_type_partial_charge
C0 C 0.81444 0.55827 0.35556 0.0
C1 C 0.82186 0.53457 0.35193 0.0
C2 C 0.80907 0.51931 0.31056 0.0
C3 C 0.79086 0.52795 0.27078 0.0
H4 H 0.71161 0.5284 0.16513 0.0
H5 H 0.6761 0.51603 0.10604 0.0
H6 H 0.68765 0.57314 0.9725 0.0
H7 H 0.72213 0.58573 0.03148 0.0
H8 H 0.7614 0.62309 0.04063 0.0
H9 H 0.789 0.64561 0.97463 0.0
H10 H 0.84521 0.63021 0.10867 0.0
H11 H 0.81755 0.61008 0.17561 0.0
H12 H 0.79227 0.5855 0.31825 0.0
H13 H 0.82362 0.57088 0.38564 0.0
H14 H 0.81365 0.50078 0.30705 0.0
H15 H 0.78273 0.51616 0.23642 0.0
N16 N 0.75179 0.5547 0.18931 0.0
N17 N 0.75322 0.58628 0.11561 0.0
N18 N 0.78216 0.58351 0.19402 0.0
C19 C 0.74208 0.56646 0.13814 0.0
C20 C 0.7732 0.5949 0.14309 0.0
C21 C 0.77192 0.56363 0.2179 0.0
C22 C 0.72007 0.5581 0.10374 0.0
C23 C 0.70651 0.53835 0.12336 0.0
C24 C 0.68611 0.53122 0.08904 0.0
C25 C 0.67865 0.54357 0.03398 0.0
C26 C 0.69222 0.56334 0.01497 0.0
C27 C 0.71239 0.57045 0.04905 0.0
C28 C 0.78748 0.61384 0.112 0.0
C29 C 0.77954 0.62527 0.05669 0.0
C30 C 0.79553 0.63804 0.01847 0.0
C31 C 0.81992 0.63885 0.03361 0.0
C32 C 0.82689 0.63011 0.09357 0.0
C33 C 0.81085 0.61803 0.13238 0.0
C34 C 0.78485 0.55206 0.27164 0.0
C35 C 0.79628 0.56677 0.31643 0.0
C36 C 0.95471 0.82978 0.31721 0.0
C37 C 0.97725 0.83602 0.34105 0.0
C38 C 0.9971 0.82398 0.31645 0.0
C39 C 0.9944 0.80645 0.26888 0.0
H40 H 0.96258 0.70934 0.17623 0.0
H41 H 0.96753 0.67023 0.12718 0.0
H42 H 0.00996 0.70197 0.97834 0.0
H43 H 1.00474 0.74075 0.02705 0.0
H44 H 0.9526 0.76823 0.95831 0.0
H45 H 0.94617 0.79051 0.86306 0.0
H46 H 0.92371 0.8506 0.975 0.0
H47 H 0.93203 0.82843 0.07191 0.0
H48 H 0.93454 0.80929 0.25021 0.0
H49 H 0.93901 0.83872 0.33421 0.0
H50 H 0.01472 0.82821 0.33372 0.0
H51 H 0.01005 0.79808 0.24955 0.0
N52 N 0.97782 0.76399 0.17764 0.0
N53 N 0.96272 0.76294 0.07344 0.0
N54 N 0.95683 0.79655 0.13556 0.0
C55 C 0.97449 0.75216 0.1212 0.0
C56 C 0.9538 0.78492 0.07973 0.0
C57 C 0.96875 0.78643 0.1848 0.0
C58 C 0.98379 0.72813 0.10663 0.0
C59 C 0.97382 0.70775 0.13469 0.0
C60 C 0.97642 0.68535 0.10584 0.0
C61 C 0.98889 0.68281 0.04788 0.0
C62 C 0.99985 0.70311 0.022 0.0
C63 C 0.99729 0.72534 0.05079 0.0
C64 C 0.94378 0.79684 0.02305 0.0
C65 C 0.94594 0.78608 0.9631 0.0
C66 C 0.94185 0.79892 0.90772 0.0
C67 C 0.93504 0.8228 0.91056 0.0
C68 C 0.92987 0.83256 0.97069 0.0
C69 C 0.93452 0.81982 0.02644 0.0
C70 C 0.97185 0.8009 0.2439 0.0
C71 C 0.95211 0.81277 0.26908 0.0
C72 C 0.70053 0.98068 0.30222 0.0
C73 C 0.70505 0.99756 0.34973 0.0
C74 C 0.72809 1.00776 0.35212 0.0
C75 C 0.74603 1.00088 0.3089 0.0
H76 H 0.80151 0.01949 0.10786 0.0
H77 H 0.8346 0.03307 0.04167 0.0
H78 H 0.87355 0.96996 0.09059 0.0
H79 H 0.83995 0.95615 0.15382 0.0
H80 H 0.78404 0.93159 0.02522 0.0
H81 H 0.75646 0.91892 0.94304 0.0
H82 H 0.70482 0.90075 0.08704 0.0
H83 H 0.73241 0.91284 0.16894 0.0
H84 H 0.71353 0.96061 0.22459 0.0
H85 H 0.6834 0.97196 0.29884 0.0
H86 H 0.73233 0.02102 0.38755 0.0
H87 H 0.76356 1.00874 0.3128 0.0
N88 N 0.78083 0.98526 0.20332 0.0
N89 N 0.78999 0.95449 0.13143 0.0
N90 N 0.75481 0.95296 0.18924 0.0
C91 C 0.79611 0.9752 0.16015 0.0
C92 C 0.7694 0.94323 0.14568 0.0
C93 C 0.76 0.97373 0.21861 0.0
C94 C 0.81824 0.98695 0.13702 0.0
C95 C 0.8175 1.00898 0.10612 0.0
C96 C 0.83655 0.01664 0.06762 0.0
C97 C 0.85697 1.00253 0.05938 0.0
C98 C 0.8581 0.98115 0.09379 0.0
C99 C 0.83897 0.9734 0.13134 0.0
C100 C 0.75973 0.92462 0.10325 0.0
C101 C 0.76736 0.92359 0.03966 0.0
C102 C 0.75153 0.91625 0.99235 0.0
C103 C 0.72802 0.91021 1.00847 0.0
C104 C 0.72258 0.90594 0.07272 0.0
C105 C 0.7384 0.91315 0.11998 0.0
C106 C 0.74141 0.98348 0.26256 0.0
C107 C 0.71821 0.97389 0.25962 0.0
C108 C 0.6039 0.69785 0.02988 0.0
C109 C 0.61003 0.70791 0.97083 0.0
C110 C 0.61197 0.73269 0.96605 0.0
C111 C 0.60399 0.74704 0.0155 0.0
H112 H 0.5519 0.79246 0.99533 0.0
H113 H 0.54137 0.82853 0.94102 0.0
H114 H 0.51835 0.85886 0.11866 0.0
H115 H 0.52904 0.82196 0.17427 0.0
H116 H 0.51093 0.72901 0.22735 0.0
H117 H 0.50498 0.6988 0.31035 0.0
H118 H 0.57448 0.71546 0.38553 0.0
H119 H 0.57965 0.74573 0.305 0.0
H120 H 0.58932 0.70373 0.12211 0.0
H121 H 0.60229 0.67884 0.03553 0.0
H122 H 0.61723 0.74095 0.92165 0.0
H123 H 0.60345 0.76601 1.008 0.0
N124 N 0.56895 0.77096 0.0899 0.0
N125 N 0.54318 0.77301 0.17784 0.0
N126 N 0.57035 0.7416 0.16753 0.0
C127 C 0.55145 0.7824 0.12144 0.0
C128 C 0.55296 0.75243 0.20095 0.0
C129 C 0.57851 0.75073 0.11221 0.0
C130 C 0.54165 0.80415 0.08988 0.0
C131 C 0.5446 0.8067 0.02353 0.0
C132 C 0.53869 0.82764 0.99196 0.0
C133 C 0.52947 0.84705 0.02514 0.0
C134 C 0.52548 0.84434 0.09127 0.0
C135 C 0.53152 0.82314 0.12331 0.0
C136 C 0.54543 0.74041 0.26087 0.0
C137 C 0.52433 0.72693 0.26377 0.0
C138 C 0.52122 0.70916 0.31058 0.0
C139 C 0.53922 0.7043 0.35544 0.0
C140 C 0.55982 0.71867 0.35356 0.0
C141 C 0.56283 0.73631 0.30726 0.0
C142 C 0.59433 0.73679 0.0708 0.0
C143 C 0.5962 0.7122 0.07962 0.0
C144 C 0.21538 0.50856 0.96281 0.0
C145 C 0.19485 0.49419 0.95492 0.0
C146 C 0.19253 0.47421 0.99451 0.0
C147 C 0.2093 0.4694 0.04189 0.0
H148 H 0.32111 0.48035 0.11601 0.0
H149 H 0.3602 0.4855 0.1655 0.0
H150 H 0.3272 0.5193 0.3268 0.0
H151 H 0.28884 0.51512 0.27587 0.0
H152 H 0.26006 0.46658 0.33956 0.0
H153 H 0.23563 0.46228 0.43253 0.0
H154 H 0.1773 0.43772 0.31563 0.0
H155 H 0.20163 0.4436 0.22104 0.0
H156 H 0.2472 0.51569 0.01688 0.0
H157 H 0.21824 0.52389 0.93275 0.0
H158 H 0.17711 0.46273 0.9912 0.0
H159 H 0.20614 0.45417 0.07222 0.0
N160 N 0.26644 0.49035 0.11866 0.0
N161 N 0.26704 0.47546 0.22331 0.0
N162 N 0.2338 0.46883 0.16003 0.0
C163 C 0.27801 0.48741 0.17572 0.0
C164 C 0.24513 0.46604 0.21621 0.0
C165 C 0.24404 0.48078 0.11073 0.0
C166 C 0.30183 0.49755 0.19149 0.0
C167 C 0.32245 0.48991 0.1605 0.0
C168 C 0.34485 0.4924 0.18995 0.0
C169 C 0.34716 0.50233 0.25154 0.0
C170 C 0.32661 0.51169 0.27964 0.0
C171 C 0.30441 0.50935 0.25011 0.0
C172 C 0.23248 0.45644 0.27247 0.0
C173 C 0.24219 0.45977 0.33339 0.0
C174 C 0.22812 0.45698 0.38737 0.0
C175 C 0.20408 0.45041 0.38183 0.0
C176 C 0.19546 0.44372 0.32153 0.0
C177 C 0.20943 0.447 0.26721 0.0
C178 C 0.22912 0.48437 0.05217 0.0
C179 C 0.23228 0.50371 1.0107 0.0
C180 C 0.04468 0.19563 0.04001 0.0
C181 C 0.03925 0.20291 0.97783 0.0
C182 C 0.03873 0.22761 0.96571 0.0
C183 C 0.04413 0.2443 0.01388 0.0
H184 H 0.01711 0.3116 0.16563 0.0
H185 H 1.00375 0.34763 0.21919 0.0
H186 H 0.07505 0.36004 0.28789 0.0
H187 H 0.08828 0.32531 0.23154 0.0
H188 H 0.10354 0.27902 0.32164 0.0
H189 H 0.10668 0.26249 0.4282 0.0
H190 H 0.08674 0.19367 0.35516 0.0
H191 H 0.08402 0.20996 0.24908 0.0
H192 H 0.05438 0.2054 0.13441 0.0
H193 H 0.04462 0.17701 0.05247 0.0
H194 H 0.03474 0.23411 0.91852 0.0
H195 H 0.04422 0.263 1.00235 0.0
N196 N 0.05252 0.27682 0.13099 0.0
N197 N 0.07547 0.28033 0.2241 0.0
N198 N 0.07305 0.24398 0.17253 0.0
C199 C 0.06117 0.29046 0.18024 0.0
C200 C 0.08146 0.25728 0.22113 0.0
C201 C 0.05894 0.25334 0.12663 0.0
C202 C 0.05376 0.31537 0.19422 0.0
C203 C 0.03004 0.32262 0.18991 0.0
C204 C 0.02233 0.34312 0.22214 0.0
C205 C 0.03807 0.3568 0.26018 0.0
C206 C 0.06215 0.35044 0.25962 0.0
C207 C 0.06982 0.33025 0.22706 0.0
C208 C 0.09243 0.24601 0.27741 0.0
C209 C 0.10075 0.26015 0.32789 0.0
C210 C 0.10264 0.25069 0.38904 0.0
C211 C 0.09612 0.227 0.4006 0.0
C212 C 0.09173 0.21206 0.34828 0.0
C213 C 0.08996 0.22149 0.28709 0.0
C214 C 0.05031 0.23675 0.07543 0.0
C215 C 0.05012 0.21214 0.08758 0.0
C216 C 0.32234 0.02096 0.9942 0.0
C217 C 0.32226 0.03352 0.93616 0.0
C218 C 0.30337 0.04931 0.92525 0.0
C219 C 0.28605 0.05339 0.97202 0.0
H220 H 0.22725 0.01254 0.19651 0.0
H221 H 0.19331 1.00382 0.26652 0.0
H222 H 0.17239 0.07704 0.25747 0.0
H223 H 0.20662 0.08581 0.18931 0.0
H224 H 0.26887 0.099 0.28905 0.0
H225 H 0.29842 0.11428 0.3633 0.0
H226 H 0.35208 0.10825 0.21684 0.0
H227 H 0.32266 0.09495 0.14305 0.0
H228 H 0.30668 0.01649 0.08677 0.0
H229 H 0.33624 1.00841 1.00448 0.0
H230 H 0.30268 0.0597 0.88202 0.0
H231 H 0.27295 0.06699 0.96383 0.0
N232 N 0.25261 0.04567 0.10728 0.0
N233 N 0.25588 0.07334 0.19103 0.0
N234 N 0.28708 0.06901 0.11906 0.0
C235 C 0.24299 0.05659 0.15953 0.0
C236 C 0.27795 0.07959 0.1712 0.0
C237 C 0.27477 0.05231 0.08659 0.0
C238 C 0.21948 0.04981 0.18676 0.0
C239 C 0.21494 0.02656 0.20772 0.0
C240 C 0.19562 0.02164 0.2483 0.0
C241 C 0.18012 0.03976 0.26773 0.0
C242 C 0.18378 0.06265 0.24306 0.0
C243 C 0.20339 0.06766 0.20389 0.0
C244 C 0.29357 0.09483 0.21079 0.0
C245 C 0.28686 0.10177 0.27235 0.0
C246 C 0.30391 0.11038 0.31514 0.0
C247 C 0.32802 0.11174 0.29751 0.0
C248 C 0.33392 0.10758 0.2334 0.0
C249 C 0.3169 0.09948 0.19062 0.0
C250 C 0.2869 0.0417 0.03093 0.0
C251 C 0.30503 0.02514 0.041 0.0
C252 C 0.40807 0.31026 0.18086 0.0
C253 C 0.41068 0.30833 0.24717 0.0
C254 C 0.41616 0.28603 0.27291 0.0
C255 C 0.4249 0.26825 0.23351 0.0
H256 H 0.48838 0.18995 0.11505 0.0
H257 H 0.49438 0.15822 0.1939 0.0
H258 H 0.5054 0.21087 0.33937 0.0
H259 H 0.49972 0.24225 0.26091 0.0
H260 H 0.47033 0.26843 0.93996 0.0
H261 H 0.47483 0.30215 0.86804 0.0
H262 H 0.51643 0.33893 1.00956 0.0
H263 H 0.51213 0.30473 0.08116 0.0
H264 H 0.41852 0.29619 0.09093 0.0
H265 H 0.40285 0.32692 0.15965 0.0
H266 H 0.41763 0.28354 0.32381 0.0
H267 H 0.43233 0.25267 0.25572 0.0
N268 N 0.46033 0.24373 0.16299 0.0
N269 N 0.49296 0.24959 0.09434 0.0
N270 N 0.45906 0.2736 0.08649 0.0
C271 C 0.48214 0.23713 0.14273 0.0
C272 C 0.48097 0.26777 0.06538 0.0
C273 C 0.44858 0.26181 0.13522 0.0
C274 C 0.49419 0.21866 0.18132 0.0
C275 C 0.49335 0.19467 0.16314 0.0
C276 C 0.49656 0.1765 0.20852 0.0
C277 C 0.50018 0.18198 0.27318 0.0
C278 C 0.50256 0.20598 0.29016 0.0
C279 C 0.49962 0.224 0.24496 0.0
C280 C 0.49143 0.28352 0.01566 0.0
C281 C 0.48143 0.28321 0.95452 0.0
C282 C 0.48366 0.30283 0.91373 0.0
C283 C 0.49566 0.32362 0.9331 0.0
C284 C 0.50719 0.32328 0.99258 0.0
C285 C 0.50495 0.30353 0.0335 0.0
C286 C 0.42828 0.27281 0.16838 0.0
C287 C 0.41719 0.29265 0.14144 0.0
Tb288 Tb 0.98901 0.03378 0.57848 0.0
C289 C 0.05389 0.01958 0.83747 0.0
N290 N 0.05855 0.02353 0.77528 0.0
C291 C 0.09077 0.0495 0.80369 0.0
C292 C 0.06691 0.03107 0.88573 0.0
C293 C 0.07733 0.03755 0.75767 0.0
C294 C 0.08529 0.04655 0.86806 0.0
C295 C 0.03255 0.99661 0.91607 0.0
C296 C 0.03709 1.00272 0.85223 0.0
C297 C 0.04446 1.00884 0.96488 0.0
C298 C 0.06165 0.02608 0.94971 0.0
Tb299 Tb 0.03407 1.00534 0.70333 0.0
N300 N 0.02646 0.99111 0.80354 0.0
C301 C 0.01684 0.97788 0.92864 0.0
C302 C 0.01223 0.97189 0.81543 0.0
C303 C 1.00694 0.96523 0.87806 0.0
H304 H 0.08147 0.04015 0.70806 0.0
H305 H 0.99526 0.95038 0.8875 0.0
H306 H 0.93884 0.04254 0.66462 0.0
H307 H 0.99453 0.99078 0.35087 0.0
H308 H 1.00441 0.96205 0.77661 0.0
H309 H 0.0128 0.97261 0.97702 0.0
H310 H 1.00549 0.02031 0.43316 0.0
H311 H 0.10523 0.06108 0.78949 0.0
H312 H 0.04104 1.00461 0.01433 0.0
H313 H 0.07122 0.03491 0.98764 0.0
H314 H 0.90247 0.01983 0.68863 0.0
H315 H 0.0957 0.05581 0.90362 0.0
H316 H 0.96073 0.96329 0.36943 0.0
N317 N 0.95219 0.01706 0.59888 0.0
C318 C 0.94594 0.99871 0.56061 0.0
C319 C 0.91479 0.01335 0.65335 0.0
C320 C 0.92476 0.98574 0.57035 0.0
C321 C 0.93577 0.02591 0.64046 0.0
C322 C 0.90961 0.9927 0.61944 0.0
N323 N 0.97855 1.00903 0.49743 0.0
C324 C 0.99072 1.00834 0.44128 0.0
C325 C 0.95262 0.97764 0.46216 0.0
C326 C 0.95944 0.99482 0.50716 0.0
C327 C 0.96563 0.97602 0.40566 0.0
C328 C 0.98461 0.99164 0.39485 0.0
H329 H 0.89318 0.98321 0.6287 0.0
H330 H 0.90275 0.95683 0.53567 0.0
H331 H 0.92733 0.94963 0.44081 0.0
O332 O 0.99912 0.06467 0.52914 0.0
O333 O 1.00718 0.99985 0.56287 0.0
O334 O 1.0054 0.98383 0.66107 0.0
O335 O 0.96297 0.0528 0.52864 0.0
O336 O 0.02526 0.02937 0.54227 0.0
O337 O 0.04621 0.03266 0.63519 0.0
O338 O 0.06009 0.97994 0.72419 0.0
O339 O 0.03109 0.04397 0.72022 0.0
O340 O 1.00119 0.05871 0.65385 0.0
O341 O 0.05196 0.98891 0.62764 0.0
O342 O 0.99586 1.00113 0.72222 0.0
O343 O 0.97978 0.03489 0.68034 0.0
C344 C 1.00332 0.9814 0.59933 0.0
C345 C 0.96999 0.09379 0.54334 0.0
C346 C 0.98248 0.13318 0.57956 0.0
C347 C 0.96076 0.13534 0.61212 0.0
C348 C 0.94835 0.09649 0.57577 0.0
C349 C 0.94372 0.11728 0.60918 0.0
C350 C 0.98634 0.11264 0.54299 0.0
C351 C 0.0455 0.03199 0.57262 0.0
C352 C 0.97725 0.07051 0.51789 0.0
C353 C 0.91872 0.9673 0.52835 0.0
C354 C 0.93264 0.96328 0.47418 0.0
C355 C 0.01716 0.06126 0.70017 0.0
C356 C 0.06148 0.94955 0.64784 0.0
C357 C 0.03822 0.91283 0.64792 0.0
C358 C 0.05656 0.90175 0.61399 0.0
C359 C 0.07946 0.93836 0.61354 0.0
C360 C 0.04095 0.93685 0.66408 0.0
C361 C 0.07695 0.91453 0.59663 0.0
C362 C 0.98081 0.0187 0.72536 0.0
C363 C 0.06352 0.97471 0.66461 0.0
H364 H 0.95709 0.15057 0.64153 0.0
H365 H 0.93531 0.0823 0.57712 0.0
H366 H 0.92719 0.11905 0.63487 0.0
H367 H 1.00252 0.11069 0.51581 0.0
H368 H 0.05541 0.88317 0.60167 0.0
H369 H 0.09533 0.94804 0.59981 0.0
H370 H 0.027 0.94593 0.68906 0.0
H371 H 0.09093 0.90587 0.57037 0.0
Tb372 Tb 0.52783 0.0392 0.71486 0.0
C373 C 0.50436 0.93956 0.63424 0.0
N374 N 0.51916 0.95594 0.60806 0.0
C375 C 0.55002 0.92707 0.60121 0.0
C376 C 0.51214 0.91648 0.64784 0.0
C377 C 0.54147 0.94983 0.58902 0.0
C378 C 0.53536 0.91038 0.63129 0.0
C379 C 0.46496 0.92943 0.6715 0.0
C380 C 0.48117 0.94596 0.64555 0.0
C381 C 0.47284 0.90671 0.6883 0.0
C382 C 0.49636 0.90019 0.67608 0.0
Tb383 Tb 0.50365 0.99254 0.58992 0.0
N384 N 0.47417 0.96787 0.62713 0.0
C385 C 0.44117 0.93593 0.67736 0.0
C386 C 0.45061 0.9734 0.6273 0.0
C387 C 0.43389 0.95786 0.654 0.0
H388 H 0.55274 0.96262 0.56523 0.0
H389 H 0.41534 0.96264 0.65542 0.0
H390 H 0.48525 0.05343 0.81901 0.0
H391 H 0.58715 0.09725 0.58511 0.0
H392 H 0.44449 0.98957 0.60573 0.0
H393 H 0.42814 0.92378 0.69718 0.0
H394 H 0.57555 0.0603 0.64137 0.0
H395 H 0.56785 0.92239 0.58719 0.0
H396 H 0.46071 0.89381 0.70879 0.0
H397 H 0.502 0.88238 0.68735 0.0
H398 H 0.45767 0.08663 0.83469 0.0
H399 H 0.54199 0.89274 0.64038 0.0
H400 H 0.55974 0.13133 0.58337 0.0
N401 N 0.50362 0.07001 0.74217 0.0
C402 C 0.50741 0.09056 0.7101 0.0
C403 C 0.47139 0.08786 0.79877 0.0
C404 C 0.49256 0.11025 0.71853 0.0
C405 C 0.48684 0.06893 0.78907 0.0
C406 C 0.47394 0.10845 0.76234 0.0
N407 N 0.54174 0.07328 0.6687 0.0
C408 C 0.56366 0.07521 0.64105 0.0
C409 C 0.53316 0.11375 0.64144 0.0
C410 C 0.52739 0.09237 0.67251 0.0
C411 C 0.55466 0.11524 0.60816 0.0
C412 C 0.5702 0.09604 0.60911 0.0
H413 H 0.46208 0.12317 0.77028 0.0
H414 H 0.48595 0.14651 0.68978 0.0
H415 H 0.52152 0.14953 0.62189 0.0
O416 O 0.55758 0.0259 0.75973 0.0
O417 O 0.5263 0.04819 0.61274 0.0
O418 O 0.49269 0.02958 0.57939 0.0
O419 O 0.53946 0.05636 0.80034 0.0
O420 O 0.55492 0.0181 0.66521 0.0
O421 O 0.53928 1.00659 0.56825 0.0
O422 O 0.48302 0.97798 0.51595 0.0
O423 O 0.52419 0.98183 0.67523 0.0
O424 O 0.51155 1.00676 0.75254 0.0
O425 O 0.51739 0.99293 0.4971 0.0
O426 O 0.47644 0.01577 0.63337 0.0
O427 O 0.49128 0.02571 0.73244 0.0
C428 C 0.50742 0.0476 0.57669 0.0
C429 C 0.57407 0.04032 0.85728 0.0
C430 C 0.60544 0.01866 0.91088 0.0
C431 C 0.60971 0.03837 0.95002 0.0
C432 C 0.57814 0.05978 0.8973 0.0
C433 C 0.59591 0.05873 0.94363 0.0
C434 C 0.5875 0.0197 0.86517 0.0
C435 C 0.55746 0.01171 0.60527 0.0
C436 C 0.55669 0.04128 0.80539 0.0
C437 C 0.49736 0.13128 0.68478 0.0
C438 C 0.51764 0.13302 0.64621 0.0
C439 C 0.51709 0.98534 0.73395 0.0
C440 C 0.48796 1.00063 0.42268 0.0
C441 C 0.46386 0.03478 0.39311 0.0
C442 C 0.47166 0.03213 0.3298 0.0
C443 C 0.49566 0.99849 0.35975 0.0
C444 C 0.4723 0.01883 0.4391 0.0
C445 C 0.4875 0.0142 0.31353 0.0
C446 C 0.47326 0.02211 0.69333 0.0
C447 C 0.49774 0.98522 0.4723 0.0
H448 H 0.62362 0.03796 0.98552 0.0
H449 H 0.56793 0.07583 0.89205 0.0
H450 H 0.59919 0.07383 0.97412 0.0
H451 H 0.58453 1.00456 0.83441 0.0
H452 H 0.46516 0.04344 0.29221 0.0
H453 H 0.50808 0.9848 0.34653 0.0
H454 H 0.46679 0.02051 0.48801 0.0
H455 H 0.49337 0.0124 0.26478 0.0
Tb456 Tb 0.53724 0.49848 0.58259 0.0
C457 C 0.46749 0.50053 0.80333 0.0
N458 N 0.46442 0.50725 0.74206 0.0
C459 C 0.42743 0.486 0.73812 0.0
C460 C 0.45129 0.48514 0.83367 0.0
C461 C 0.44416 0.50123 0.71005 0.0
C462 C 0.43125 0.47753 0.79979 0.0
C463 C 0.48947 0.50508 0.90123 0.0
C464 C 0.4862 0.51038 0.83636 0.0
C465 C 0.47435 0.4885 0.93097 0.0
C466 C 0.45523 0.47857 0.89724 0.0
Tb467 Tb 0.49327 0.53092 0.69902 0.0
N468 N 0.4999 0.52673 0.80615 0.0
C469 C 0.50711 0.51737 0.93474 0.0
C470 C 0.51558 0.54032 0.84016 0.0
C471 C 0.5199 0.53542 0.90434 0.0
H472 H 0.4413 0.50765 0.66226 0.0
H473 H 0.53289 0.54575 0.93044 0.0
H474 H 0.58916 0.49563 0.66218 0.0
H475 H 0.5205 0.53162 0.34674 0.0
H476 H 0.52492 0.55494 0.81793 0.0
H477 H 0.51026 0.51381 0.98464 0.0
H478 H 0.5131 0.50663 0.44195 0.0
H479 H 0.4117 0.48071 0.71212 0.0
H480 H 0.47674 0.48393 0.98059 0.0
H481 H 0.4432 0.46646 0.92129 0.0
H482 H 0.62644 0.51849 0.66531 0.0
H483 H 0.41831 0.46571 0.82139 0.0
H484 H 0.55558 0.55832 0.34332 0.0
N485 N 0.57437 0.51567 0.58592 0.0
C486 C 0.57925 0.53134 0.53851 0.0
C487 C 0.61314 0.52259 0.62996 0.0
C488 C 0.60078 0.5442 0.53677 0.0
C489 C 0.59166 0.50999 0.62882 0.0
C490 C 0.61753 0.54015 0.58454 0.0
N491 N 0.54324 0.51979 0.49169 0.0
C492 C 0.52844 0.51823 0.44036 0.0
C493 C 0.56824 0.54774 0.43621 0.0
C494 C 0.56334 0.53311 0.48893 0.0
C495 C 0.55239 0.54743 0.38496 0.0
C496 C 0.53258 0.53235 0.38666 0.0
H497 H 0.63429 0.54968 0.58506 0.0
H498 H 0.62157 0.57018 0.48435 0.0
H499 H 0.59299 0.57329 0.39618 0.0
O500 O 0.525 0.46841 0.53679 0.0
O501 O 0.52229 0.53372 0.56005 0.0
O502 O 0.52287 0.55072 0.65696 0.0
O503 O 0.56308 0.47488 0.54349 0.0
O504 O 0.49951 0.49293 0.56146 0.0
O505 O 0.47865 0.52464 0.60248 0.0
O506 O 0.47771 0.55835 0.75223 0.0
O507 O 0.49055 0.49198 0.68608 0.0
O508 O 0.52862 0.47932 0.67124 0.0
O509 O 0.47059 0.55461 0.65263 0.0
O510 O 0.53196 0.53512 0.71844 0.0
O511 O 0.54807 0.50024 0.68323 0.0
C512 C 0.5251 0.55262 0.5953 0.0
C513 C 0.54914 0.43859 0.48915 0.0
C514 C 0.53056 0.40422 0.43943 0.0
C515 C 0.55273 0.39734 0.41564 0.0
C516 C 0.57131 0.43141 0.46621 0.0
C517 C 0.57306 0.41076 0.42974 0.0
C518 C 0.52899 0.42465 0.47647 0.0
C519 C 0.48114 0.50722 0.56109 0.0
C520 C 0.54612 0.46101 0.52348 0.0
C521 C 0.60526 0.55991 0.48612 0.0
C522 C 0.58902 0.56164 0.43583 0.0
C523 C 0.50722 0.47612 0.6951 0.0
C524 C 0.47716 0.59302 0.68848 0.0
C525 C 0.5082 0.62345 0.69585 0.0
C526 C 0.49722 0.63578 0.64568 0.0
C527 C 0.46634 0.60583 0.63943 0.0
C528 C 0.49769 0.60222 0.71746 0.0
C529 C 0.47628 0.62716 0.61846 0.0
C530 C 0.54783 0.51814 0.72339 0.0
C531 C 0.46935 0.56853 0.70153 0.0
H532 H 0.55428 0.38165 0.38639 0.0
H533 H 0.58711 0.4419 0.47547 0.0
H534 H 0.59014 0.40535 0.41155 0.0
H535 H 0.5117 0.4301 0.49345 0.0
H536 H 0.50501 0.65181 0.6262 0.0
H537 H 0.4507 0.59888 0.61578 0.0
H538 H 0.50573 0.59244 0.75598 0.0
H539 H 0.4681 0.63674 0.57976 0.0
Tb540 Tb 0.01491 0.53902 0.60977 0.0
C541 C 1.00255 0.43621 0.75676 0.0
N542 N 0.98719 0.45039 0.72588 0.0
C543 C 0.96749 0.41625 0.68231 0.0
C544 C 1.00166 0.4114 0.75029 0.0
C545 C 0.96902 0.44079 0.69131 0.0
C546 C 0.98415 0.40148 0.7111 0.0
C547 C 0.03251 0.43285 0.83801 0.0
C548 C 0.01759 0.44668 0.79948 0.0
C549 C 0.03299 0.40817 0.82922 0.0
C550 C 0.01754 0.39743 0.78532 0.0
Tb551 Tb 0.99253 0.49041 0.73596 0.0
N552 N 0.0158 0.47035 0.80739 0.0
C553 C 0.04555 0.44415 0.88591 0.0
C554 C 0.02709 0.48117 0.85718 0.0
C555 C 0.04253 0.46839 0.89618 0.0
H556 H 0.95603 0.45214 0.66931 0.0
H557 H 0.05199 0.47721 0.93426 0.0
H558 H 0.97475 0.58127 0.62213 0.0
H559 H 0.05938 0.50925 0.3964 0.0
H560 H 0.02468 0.49986 0.86584 0.0
H561 H 0.0573 0.43422 0.91655 0.0
H562 H 0.05618 0.51863 0.51087 0.0
H563 H 0.95345 0.40876 0.65339 0.0
H564 H 0.04454 0.39719 0.85775 0.0
H565 H 0.01739 0.37832 0.7806 0.0
H566 H 0.94302 0.59831 0.55539 0.0
H567 H 0.98282 0.38248 0.70466 0.0
H568 H 0.02589 0.5176 0.32412 0.0
N569 N 0.98707 0.55814 0.5497 0.0
C570 C 0.98557 0.5519 0.48781 0.0
C571 C 0.95476 0.5851 0.53589 0.0
C572 C 0.96793 0.56118 0.44771 0.0
C573 C 0.97275 0.57545 0.57349 0.0
C574 C 0.95207 0.57762 0.47295 0.0
N575 N 0.02103 0.53187 0.5035 0.0
C576 C 0.04155 0.52262 0.47956 0.0
C577 C 1.00427 0.53306 0.39812 0.0
C578 C 1.00332 0.53812 0.46362 0.0
C579 C 0.02439 0.52177 0.37421 0.0
C580 C 0.04336 0.51707 0.4149 0.0
H581 H 0.93839 0.58536 0.44359 0.0
H582 H 0.95393 0.5613 0.35171 0.0
H583 H 0.98592 0.53661 0.30804 0.0
O584 O 0.0342 0.56772 0.57027 0.0
O585 O 0.97735 0.53311 0.63214 0.0
O586 O 0.97203 0.49372 0.64679 0.0
O587 O 0.03486 0.56081 0.67029 0.0
O588 O 0.02249 0.50167 0.58072 0.0
O589 O 0.99926 0.47557 0.64129 0.0
O590 O 0.96183 0.51037 0.75062 0.0
O591 O 0.02874 0.505 0.7462 0.0
O592 O 0.04248 0.51485 0.6464 0.0
O593 O 0.97042 0.48157 0.81335 0.0
O594 O 1.00793 0.52423 0.76694 0.0
O595 O 0.99446 0.55062 0.69409 0.0
C596 C 0.96633 0.51342 0.61744 0.0
C597 C 0.06955 0.57587 0.62654 0.0
C598 C 0.10818 0.55707 0.6197 0.0
C599 C 0.11862 0.57708 0.6482 0.0
C600 C 0.08012 0.5958 0.65463 0.0
C601 C 0.10462 0.59643 0.66508 0.0
C602 C 0.08365 0.55675 0.60859 0.0
C603 C 0.01228 0.48071 0.59068 0.0
C604 C 0.04367 0.5735 0.62451 0.0
C605 C 0.96756 0.55469 0.38323 0.0
C606 C 0.98576 0.54062 0.35839 0.0
C607 C 0.04625 0.5079 0.70544 0.0
C608 C 0.95293 0.51589 0.85884 0.0
C609 C 0.93818 0.55373 0.89927 0.0
C610 C 0.94385 0.54625 0.96138 0.0
C611 C 0.95843 0.50892 0.92116 0.0
C612 C 0.94317 0.5384 0.84836 0.0
C613 C 0.9541 0.52416 0.97193 0.0
C614 C 0.99928 0.54514 0.75355 0.0
C615 C 0.95702 0.49996 0.80426 0.0
H616 H 0.13755 0.57786 0.65683 0.0
H617 H 0.06937 0.61056 0.66994 0.0
H618 H 0.11273 0.6118 0.68711 0.0
H619 H 0.07531 0.54109 0.5889 0.0
H620 H 0.93979 0.55704 1.00235 0.0
H621 H 0.96605 0.49174 0.93077 0.0
H622 H 0.9395 0.54393 0.80009 0.0
H623 H 0.95828 0.51863 0.0199 0.0
H624 H 0.13212 0.05108 0.26962 0.0
H625 H 0.18769 0.0195 0.38335 0.0
H626 H 0.15972 0.01505 0.47309 0.0
H627 H 0.10329 0.0832 0.39492 0.0
H628 H 0.07355 0.07734 0.36734 0.0
H629 H 0.0978 0.07831 0.31151 0.0
H630 H 0.08681 0.03615 0.27236 0.0
H631 H 0.06243 0.03514 0.32779 0.0
H632 H 0.08455 0.01226 0.32909 0.0
H633 H 0.12663 0.01643 0.55318 0.0
H634 H 0.08941 0.01858 0.6139 0.0
H635 H 0.05336 0.04607 0.44754 0.0
C636 C 0.1383 0.04309 0.31334 0.0
C637 C 0.16218 0.03557 0.31929 0.0
C638 C 0.16951 0.02514 0.37728 0.0
C639 C 0.15376 0.0227 0.42875 0.0
C640 C 0.13047 0.03043 0.42161 0.0
C641 C 0.12257 0.04001 0.36504 0.0
C642 C 0.09633 0.04611 0.36973 0.0
C643 C 0.09253 0.07283 0.36031 0.0
C644 C 0.08167 0.03155 0.3219 0.0
C645 C 0.09083 0.03868 0.43785 0.0
C646 C 0.11094 0.03002 0.46702 0.0
C647 C 0.11073 0.02295 0.53053 0.0
C648 C 0.08942 0.02439 0.56491 0.0
C649 C 0.06826 0.03241 0.53585 0.0
C650 C 0.06912 0.03968 0.47121 0.0
H651 H 0.52465 0.13934 0.28566 0.0
H652 H 0.47134 0.18264 0.37677 0.0
H653 H 0.46668 0.15264 0.46138 0.0
H654 H 0.49932 0.08188 0.32138 0.0
H655 H 0.52708 0.06793 0.3399 0.0
H656 H 0.5263 0.0923 0.28449 0.0
H657 H 0.55717 0.11549 0.35158 0.0
H658 H 0.55848 0.091 0.40648 0.0
H659 H 0.55163 0.12024 0.43503 0.0
H660 H 0.46529 0.11647 0.53222 0.0
H661 H 0.47284 0.08008 0.59496 0.0
H662 H 0.52977 0.06162 0.46641 0.0
C663 C 0.51189 0.14237 0.32321 0.0
C664 C 0.49822 0.16338 0.32411 0.0
C665 C 0.48208 0.16683 0.37496 0.0
C666 C 0.4792 0.14979 0.42317 0.0
C667 C 0.49261 0.1292 0.42054 0.0
C668 C 0.50906 0.12561 0.37276 0.0
C669 C 0.52245 0.10266 0.38426 0.0
C670 C 0.51855 0.08516 0.32923 0.0
C671 C 0.54901 0.10766 0.39497 0.0
C672 C 0.51063 0.0938 0.445 0.0
C673 C 0.49316 0.10921 0.46443 0.0
C674 C 0.47917 0.10447 0.51788 0.0
C675 C 0.48348 0.08375 0.55313 0.0
C676 C 0.50197 0.06828 0.5358 0.0
C677 C 0.51564 0.07333 0.48086 0.0
H678 H 0.36545 0.53311 0.34461 0.0
H679 H 0.38079 0.46721 0.24672 0.0
H680 H 0.41628 0.46224 0.31288 0.0
H681 H 0.42692 0.55236 0.3675 0.0
H682 H 0.42164 0.56414 0.44578 0.0
H683 H 0.39807 0.56363 0.38792 0.0
H684 H 0.37149 0.54017 0.46668 0.0
H685 H 0.39502 0.54051 0.52461 0.0
H686 H 0.38206 0.51274 0.49973 0.0
H687 H 0.44935 0.46302 0.3926 0.0
H688 H 0.47827 0.47008 0.47784 0.0
H689 H 0.44185 0.53485 0.52912 0.0
C690 C 0.37621 0.51761 0.33671 0.0
C691 C 0.37002 0.5007 0.28905 0.0
C692 C 0.38506 0.48086 0.281 0.0
C693 C 0.40528 0.47769 0.31911 0.0
C694 C 0.41053 0.49441 0.36586 0.0
C695 C 0.39652 0.51406 0.37478 0.0
C696 C 0.40599 0.52903 0.42971 0.0
C697 C 0.4136 0.55376 0.40631 0.0
C698 C 0.38754 0.5307 0.48336 0.0
C699 C 0.42737 0.5146 0.45051 0.0
C700 C 0.4296 0.49474 0.4127 0.0
C701 C 0.44778 0.47857 0.4223 0.0
C702 C 0.4642 0.48279 0.47126 0.0
C703 C 0.46258 0.50307 0.51091 0.0
C704 C 0.4437 0.51913 0.50017 0.0
H705 H 0.0617 0.39757 0.30573 0.0
H706 H 0.99466 0.35923 0.32036 0.0
H707 H 0.98109 0.38771 0.40008 0.0
H708 H 0.0667 0.40767 0.47096 0.0
H709 H 0.07944 0.43689 0.46703 0.0
H710 H 0.08461 0.4162 0.40348 0.0
H711 H 0.0676 0.44431 0.31913 0.0
H712 H 0.06382 0.46631 0.38008 0.0
H713 H 0.03894 0.45751 0.33164 0.0
H714 H 0.97528 0.41824 0.48362 0.0
H715 H 0.97689 0.44975 0.56321 0.0
H716 H 0.04786 0.46924 0.50099 0.0
C717 C 0.04409 0.3951 0.32514 0.0
C718 C 0.02928 0.37588 0.30494 0.0
C719 C 1.00633 0.37384 0.3325 0.0
C720 C 0.99845 0.38991 0.37876 0.0
C721 C 0.0136 0.40819 0.39798 0.0
C722 C 0.0359 0.41101 0.372 0.0
C723 C 0.04901 0.43155 0.40413 0.0
C724 C 0.07128 0.42254 0.43834 0.0
C725 C 0.0552 0.45108 0.35583 0.0
C726 C 0.03048 0.43998 0.45179 0.0
C727 C 0.01029 0.42599 0.44726 0.0
C728 C 0.99098 0.42932 0.4873 0.0
C729 C 0.99221 0.44727 0.53312 0.0
C730 C 0.01251 0.46214 0.53941 0.0
C731 C 0.03193 0.45848 0.49739 0.0
H732 H 0.88603 0.97352 0.98587 0.0
H733 H 0.87264 0.0476 0.0277 0.0
H734 H 0.90301 0.05926 0.94928 0.0
H735 H 0.95038 0.98067 0.96879 0.0
H736 H 0.95248 0.95928 0.90573 0.0
H737 H 0.92957 0.95626 0.96498 0.0
H738 H 0.8976 0.95561 0.87677 0.0
H739 H 0.92038 0.95848 0.81714 0.0
H740 H 0.89655 0.97953 0.81994 0.0
H741 H 0.93366 0.06321 0.86239 0.0
H742 H 0.96338 0.05904 0.77699 0.0
H743 H 0.95936 0.98258 0.79533 0.0
C744 C 0.88964 0.99223 0.97967 0.0
C745 C 0.87647 1.00957 0.01356 0.0
C746 C 0.88183 0.03383 1.0021 0.0
C747 C 0.8993 0.04069 0.95778 0.0
C748 C 0.91169 0.02318 0.92524 0.0
C749 C 0.90727 0.99943 0.93601 0.0
C750 C 0.92327 0.98419 0.8947 0.0
C751 C 0.9399 0.96921 0.93606 0.0
C752 C 0.90856 0.96853 0.84947 0.0
C753 C 0.93707 1.00308 0.85825 0.0
C754 C 0.93003 0.02545 0.87665 0.0
C755 C 0.93943 0.04577 0.84814 0.0
C756 C 0.9563 0.04322 0.7995 0.0
C757 C 0.9639 0.02052 0.7797 0.0
C758 C 0.95426 1.00018 0.81011 0.0
H759 H 0.5552 0.86853 0.92806 0.0
H760 H 0.49141 0.87699 0.04112 0.0
H761 H 0.48134 0.91266 0.97859 0.0
H762 H 0.56813 0.93166 0.91138 0.0
H763 H 0.57921 0.92889 0.83139 0.0
H764 H 0.5819 0.90453 0.88628 0.0
H765 H 0.55973 0.87686 0.80792 0.0
H766 H 0.55746 0.90108 0.75269 0.0
H767 H 0.53108 0.88536 0.77813 0.0
H768 H 0.47801 0.94757 0.90239 0.0
H769 H 0.48198 0.97891 0.82079 0.0
H770 H 0.5469 0.947 0.75304 0.0
C771 C 0.53902 0.87777 0.93969 0.0
C772 C 0.52405 0.86965 0.98984 0.0
C773 C 0.50335 0.88277 1.00375 0.0
C774 C 0.49739 0.90303 0.96804 0.0
C775 C 0.51232 0.91022 0.91842 0.0
C776 C 0.53283 0.89806 0.90457 0.0
C777 C 0.54597 0.90959 0.84914 0.0
C778 C 0.57024 0.91924 0.87083 0.0
C779 C 0.54868 0.89218 0.79363 0.0
C780 C 0.52928 0.92971 0.83243 0.0
C781 C 0.51015 0.92994 0.87374 0.0
C782 C 0.49287 0.94742 0.8698 0.0
C783 C 0.49528 0.96521 0.82326 0.0
C784 C 0.51462 0.96536 0.78019 0.0
C785 C 0.53173 0.94716 0.78461 0.0
H786 H 0.6462 0.57083 0.9654 0.0
H787 H 0.66336 0.49786 1.011 0.0
H788 H 0.63073 0.48421 0.94206 0.0
H789 H 0.58205 0.56283 0.95601 0.0
H790 H 0.57833 0.58236 0.88913 0.0
H791 H 0.60226 0.58739 0.94441 0.0
H792 H 0.63267 0.5862 0.85343 0.0
H793 H 0.60946 0.58103 0.79617 0.0
H794 H 0.63378 0.56071 0.80197 0.0
H795 H 0.59787 0.478 0.86292 0.0
H796 H 0.56675 0.47969 0.78098 0.0
H797 H 0.57012 0.55646 0.78371 0.0
C798 C 0.64317 0.55195 0.96116 0.0
C799 C 0.65762 0.5355 0.99469 0.0
C800 C 0.65255 0.51098 0.9875 0.0
C801 C 0.63405 0.50299 0.94783 0.0
C802 C 0.62048 0.51962 0.9152 0.0
C803 C 0.6247 0.54361 0.92155 0.0
C804 C 0.60786 0.55768 0.87936 0.0
C805 C 0.59168 0.57351 0.91964 0.0
C806 C 0.62177 0.57228 0.82984 0.0
C807 C 0.5937 0.53783 0.84784 0.0
C808 C 0.60133 0.51604 0.86947 0.0
C809 C 0.59168 0.49498 0.8461 0.0
C810 C 0.57398 0.49614 0.7993 0.0
C811 C 0.56576 0.51816 0.77591 0.0
C812 C 0.5757 0.53934 0.80115 0.0
H813 H 0.98603 0.67387 0.9179 0.0
H814 H 0.99411 0.63832 0.09966 0.0
H815 H 0.9963 0.59988 0.04428 0.0
H816 H 0.9496 0.62808 0.8431 0.0
H817 H 0.96313 0.63168 0.76615 0.0
H818 H 0.96165 0.65644 0.82002 0.0
H819 H 1.00721 0.66193 0.81161 0.0
H820 H 1.00876 0.63711 0.75805 0.0
H821 H 0.0263 0.63735 0.82967 0.0
H822 H 1.00052 0.56549 0.9692 0.0
H823 H 1.00339 0.53718 0.881 0.0
H824 H 0.99081 0.59387 0.74589 0.0
C825 C 0.98844 0.65804 0.94619 0.0
C826 C 0.99003 0.65937 0.01368 0.0
C827 C 0.99265 0.63799 0.04836 0.0
C828 C 0.99402 0.616 0.01716 0.0
C829 C 0.99255 0.6154 0.95093 0.0
C830 C 0.98957 0.63581 0.91576 0.0
C831 C 0.98844 0.63011 0.84494 0.0
C832 C 0.96427 0.63698 0.81692 0.0
C833 C 0.00889 0.64235 0.80895 0.0
C834 C 0.9915 0.60332 0.84576 0.0
C835 C 0.99402 0.59533 0.90754 0.0
C836 C 0.99832 0.57157 0.92076 0.0
C837 C 1.0 0.55556 0.86996 0.0
C838 C 0.99711 0.56303 0.80598 0.0
C839 C 0.99274 0.58738 0.79404 0.0
H840 H 0.10123 0.18405 0.46064 0.0
H841 H 0.06901 0.25306 0.48073 0.0
H842 H 0.04109 0.23691 0.55853 0.0
H843 H 0.05501 0.15379 0.44596 0.0
H844 H 0.06146 0.12771 0.49219 0.0
H845 H 0.08529 0.14532 0.46093 0.0
H846 H 0.1029 0.15106 0.57341 0.0
H847 H 0.07936 0.13274 0.60542 0.0
H848 H 0.08445 0.16205 0.6367 0.0
H849 H 1.00812 0.21206 0.59259 0.0
H850 H 0.97728 0.18136 0.59805 0.0
H851 H 0.03103 0.12745 0.5721 0.0
C852 C 0.08921 0.19596 0.48454 0.0
C853 C 0.08727 0.21972 0.46427 0.0
C854 C 0.07118 0.23486 0.49581 0.0
C855 C 0.05504 0.22578 0.54018 0.0
C856 C 0.05561 0.20167 0.55396 0.0
C857 C 0.073 0.18707 0.52939 0.0
C858 C 0.06729 0.16126 0.5431 0.0
C859 C 0.06724 0.14618 0.48191 0.0
C860 C 0.08453 0.15119 0.59263 0.0
C861 C 0.04262 0.16358 0.57081 0.0
C862 C 0.03644 0.18703 0.57824 0.0
C863 C 0.01307 0.1936 0.59027 0.0
C864 C 0.99553 0.17589 0.59319 0.0
C865 C 1.00142 0.15174 0.58489 0.0
C866 C 0.02557 0.14566 0.57711 0.0
H867 H 0.37387 0.12898 0.28576 0.0
H868 H 0.32642 0.09402 0.4195 0.0
H869 H 0.3604 0.08063 0.48071 0.0
H870 H 0.40512 0.08274 0.26317 0.0
H871 H 0.43407 0.09608 0.25333 0.0
H872 H 0.4081 0.11309 0.23718 0.0
H873 H 0.42121 0.14515 0.3183 0.0
H874 H 0.44778 0.12836 0.33202 0.0
H875 H 0.42902 0.13649 0.39806 0.0
H876 H 0.39593 0.0584 0.50227 0.0
H877 H 0.42927 0.03195 0.48597 0.0
H878 H 0.45646 0.07863 0.3379 0.0
C879 C 0.37058 0.1192 0.32917 0.0
C880 C 0.34727 0.11222 0.34642 0.0
C881 C 0.34386 0.09995 0.40464 0.0
C882 C 0.36327 0.09205 0.44001 0.0
C883 C 0.38604 0.09649 0.41685 0.0
C884 C 0.38986 0.11023 0.36322 0.0
C885 C 0.41508 0.10763 0.33908 0.0
C886 C 0.41558 0.09938 0.26914 0.0
C887 C 0.42911 0.1308 0.34747 0.0
C888 C 0.42403 0.08859 0.38363 0.0
C889 C 0.40731 0.08305 0.42951 0.0
C890 C 0.4096 0.06322 0.46839 0.0
C891 C 0.42886 0.04818 0.45864 0.0
C892 C 0.44586 0.053 0.41041 0.0
C893 C 0.44385 0.07418 0.37483 0.0
H894 H 0.4387 0.34445 0.20724 0.0
H895 H 0.40039 0.31874 0.37271 0.0
H896 H 0.42486 0.34489 0.44097 0.0
H897 H 0.49137 0.33984 0.26801 0.0
H898 H 0.5051 0.36565 0.23276 0.0
H899 H 0.48033 0.35165 0.19412 0.0
H900 H 0.45659 0.3907 0.19499 0.0
H901 H 0.48174 0.40536 0.23093 0.0
H902 H 0.45302 0.40672 0.2684 0.0
H903 H 0.4588 0.36721 0.49202 0.0
H904 H 0.49711 0.38626 0.52058 0.0
H905 H 0.51419 0.39434 0.32085 0.0
C906 C 0.43427 0.34533 0.25725 0.0
C907 C 0.41739 0.32966 0.28449 0.0
C908 C 0.41306 0.33074 0.35075 0.0
C909 C 0.42695 0.34549 0.38985 0.0
C910 C 0.4449 0.3591 0.36174 0.0
C911 C 0.44822 0.35951 0.29664 0.0
C912 C 0.47082 0.3725 0.27845 0.0
C913 C 0.48788 0.35644 0.24118 0.0
C914 C 0.4652 0.39517 0.241 0.0
C915 C 0.48044 0.37823 0.34355 0.0
C916 C 0.46503 0.37091 0.39104 0.0
C917 C 0.47077 0.37335 0.45516 0.0
C918 C 0.49259 0.38393 0.47092 0.0
C919 C 0.50854 0.3914 0.42272 0.0
C920 C 0.50237 0.38846 0.35842 0.0
H921 H 0.15909 0.4675 0.37215 0.0
H922 H 0.21177 0.447 0.51184 0.0
H923 H 0.18981 0.46889 0.59411 0.0
H924 H 0.15284 0.52229 0.41185 0.0
H925 H 0.12118 0.52492 0.40245 0.0
H926 H 0.13693 0.50289 0.35842 0.0
H927 H 0.11014 0.4695 0.40519 0.0
H928 H 0.09368 0.49165 0.44799 0.0
H929 H 0.10664 0.46728 0.49031 0.0
H930 H 0.16767 0.50093 0.65316 0.0
H931 H 0.14364 0.53516 0.6875 0.0
H932 H 0.10532 0.53271 0.50894 0.0
C933 C 0.16546 0.46632 0.42052 0.0
C934 C 0.18745 0.45575 0.43491 0.0
C935 C 0.19524 0.45537 0.49906 0.0
C936 C 0.18279 0.46764 0.54634 0.0
C937 C 0.1622 0.47954 0.5291 0.0
C938 C 0.15315 0.4782 0.46811 0.0
C939 C 0.13213 0.49434 0.45962 0.0
C940 C 0.13604 0.51215 0.40489 0.0
C941 C 0.10928 0.47981 0.45009 0.0
C942 C 0.13204 0.50644 0.52341 0.0
C943 C 0.14914 0.49743 0.56357 0.0
C944 C 0.15373 0.50758 0.62282 0.0
C945 C 0.14023 0.52718 0.6416 0.0
C946 C 0.12251 0.53639 0.60101 0.0
C947 C 0.11837 0.5257 0.54154 0.0
H948 H 0.94947 0.86917 0.90787 0.0
H949 H 0.92931 0.81129 0.7829 0.0
H950 H 0.94915 0.83169 0.69375 0.0
H951 H 0.9453 0.91711 0.77548 0.0
H952 H 0.96978 0.93318 0.80949 0.0
H953 H 0.94892 0.91788 0.86054 0.0
H954 H 0.98256 0.89486 0.91368 0.0
H955 H 1.00448 0.9089 0.86459 0.0
H956 H 1.0021 0.87709 0.86576 0.0
H957 H 0.98033 0.85287 0.62767 0.0
H958 H 0.01482 0.87571 0.58759 0.0
H959 H 0.0132 0.91898 0.75791 0.0
C960 C 0.94782 0.86126 0.86131 0.0
C961 C 0.9383 0.83823 0.85338 0.0
C962 C 0.93714 0.82858 0.79111 0.0
C963 C 0.94816 0.84017 0.73977 0.0
C964 C 0.95936 0.86187 0.75082 0.0
C965 C 0.95834 0.87277 0.80962 0.0
C966 C 0.97391 0.89465 0.81171 0.0
C967 C 0.95858 0.91703 0.81456 0.0
C968 C 0.9918 0.89379 0.86715 0.0
C969 C 0.98603 0.89271 0.74802 0.0
C970 C 0.9769 0.87427 0.71233 0.0
C971 C 0.98714 0.86777 0.65455 0.0
C972 C 1.00704 0.88058 0.63272 0.0
C973 C 0.01669 0.89949 0.66905 0.0
C974 C 1.00582 0.90543 0.72731 0.0
H975 H 0.72582 0.95048 0.93986 0.0
H976 H 0.68505 0.88751 0.98769 0.0
H977 H 0.64849 0.90746 0.95187 0.0
H978 H 0.6903 0.98771 1.00742 0.0
H979 H 0.69297 0.01194 0.95192 0.0
H980 H 0.71663 0.99107 0.95936 0.0
H981 H 0.71466 0.98129 0.83929 0.0
H982 H 0.69158 1.00296 0.83038 0.0
H983 H 0.6867 0.97296 0.80392 0.0
H984 H 0.61599 0.93708 0.93333 0.0
H985 H 0.59077 0.97282 0.92778 0.0
H986 H 0.65343 0.01667 0.90117 0.0
C987 C 0.70951 0.94022 0.93898 0.0
C988 C 0.70837 0.91727 0.9657 0.0
C989 C 0.68636 0.90498 0.96657 0.0
C990 C 0.66552 0.91624 0.94652 0.0
C991 C 0.66708 0.93968 0.92555 0.0
C992 C 0.68865 0.95137 0.92058 0.0
C993 C 0.68552 0.97752 0.90745 0.0
C994 C 0.69703 0.99293 0.95966 0.0
C995 C 0.69518 0.98406 0.84131 0.0
C996 C 0.65883 0.97905 0.90938 0.0
C997 C 0.64842 0.957 0.91812 0.0
C998 C 0.62394 0.95432 0.92517 0.0
C999 C 0.60982 0.97466 0.92258 0.0
C1000 C 0.62033 0.99734 0.91473 0.0
C1001 C 0.64508 0.99948 0.90777 0.0
H1002 H 0.58639 0.71985 0.86387 0.0
H1003 H 0.62576 0.6624 0.94939 0.0
H1004 H 0.60882 0.63477 0.87029 0.0
H1005 H 0.53653 0.69246 0.85382 0.0
H1006 H 0.52607 0.70403 0.77909 0.0
H1007 H 0.54701 0.72079 0.825 0.0
H1008 H 0.57635 0.72222 0.73028 0.0
H1009 H 0.55514 0.70596 0.68282 0.0
H1010 H 0.58493 0.6951 0.69173 0.0
H1011 H 0.58024 0.61254 0.80307 0.0
H1012 H 0.54484 0.59744 0.74877 0.0
H1013 H 0.52277 0.66971 0.711 0.0
C1014 C 0.59274 0.70181 0.86353 0.0
C1015 C 0.60756 0.69333 0.91254 0.0
C1016 C 0.61452 0.66929 0.91207 0.0
C1017 C 0.60502 0.6535 0.86717 0.0
C1018 C 0.58888 0.66214 0.82269 0.0
C1019 C 0.5832 0.6859 0.81963 0.0
C1020 C 0.56235 0.69015 0.7758 0.0
C1021 C 0.5418 0.70256 0.81056 0.0
C1022 C 0.57017 0.70419 0.71664 0.0
C1023 C 0.55596 0.66494 0.75876 0.0
C1024 C 0.57185 0.6491 0.78459 0.0
C1025 C 0.56806 0.62477 0.78117 0.0
C1026 C 0.54755 0.6164 0.75087 0.0
C1027 C 0.53076 0.63234 0.72472 0.0
C1028 C 0.53541 0.65692 0.72832 0.0
H1029 H 0.86694 0.65312 0.04765 0.0
H1030 H 0.81541 0.63314 0.9036 0.0
H1031 H 0.84726 0.62199 0.8329 0.0
H1032 H 0.92286 0.66082 0.92912 0.0
H1033 H 0.94075 0.64687 0.98917 0.0
H1034 H 0.91732 0.66663 0.01211 0.0
H1035 H 0.90042 0.63319 0.08413 0.0
H1036 H 0.92326 0.61354 0.0591 0.0
H1037 H 0.89258 0.60503 0.04907 0.0
H1038 H 0.87845 0.59655 0.80003 0.0
H1039 H 0.90552 0.56339 0.80548 0.0
H1040 H 0.94015 0.59519 0.96933 0.0
C1041 C 0.86236 0.64705 1.00049 0.0
C1042 C 0.83835 0.64308 0.98321 0.0
C1043 C 0.83335 0.63635 0.91964 0.0
C1044 C 0.8516 0.62979 0.87844 0.0
C1045 C 0.87483 0.62995 0.90105 0.0
C1046 C 0.88047 0.63913 0.96023 0.0
C1047 C 0.90522 0.63167 0.98034 0.0
C1048 C 0.92255 0.65278 0.97743 0.0
C1049 C 0.90532 0.62015 0.047 0.0
C1050 C 0.91079 0.61392 0.92858 0.0
C1051 C 0.89371 0.6143 0.88141 0.0
C1052 C 0.89251 0.59676 0.83504 0.0
C1053 C 0.9082 0.57778 0.83862 0.0
C1054 C 0.92519 0.57635 0.88817 0.0
C1055 C 0.92723 0.59545 0.93138 0.0
H1056 H 0.05898 0.15817 0.9607 0.0
H1057 H 1.00704 0.20577 0.87909 0.0
H1058 H 0.99695 0.17551 0.79877 0.0
H1059 H 0.07851 0.13189 0.81198 0.0
H1060 H 0.08169 0.10265 0.8452 0.0
H1061 H 0.08565 0.12832 0.89498 0.0
H1062 H 0.05363 0.11215 0.97237 0.0
H1063 H 0.04961 0.08646 0.92271 0.0
H1064 H 0.02457 0.1047 0.94232 0.0
H1065 H 0.99053 0.13897 0.73098 0.0
H1066 H 0.9897 0.10007 0.67797 0.0
H1067 H 0.04596 0.07579 0.80152 0.0
C1068 C 0.04538 0.16232 0.92626 0.0
C1069 C 0.03386 0.1847 0.92697 0.0
C1070 C 0.01647 0.18915 0.87973 0.0
C1071 C 0.01046 0.17191 0.83395 0.0
C1072 C 0.02194 0.15008 0.83533 0.0
C1073 C 0.03913 0.14525 0.88009 0.0
C1074 C 0.04862 0.12023 0.87135 0.0
C1075 C 0.0752 0.12082 0.85489 0.0
C1076 C 0.04382 0.10499 0.93072 0.0
C1077 C 0.03391 0.11167 0.8151 0.0
C1078 C 0.01863 0.1292 0.79519 0.0
C1079 C 1.00272 0.1253 0.74557 0.0
C1080 C 1.00249 0.10309 0.71532 0.0
C1081 C 0.01819 0.08481 0.73368 0.0
C1082 C 0.03403 0.08932 0.78489 0.0
H1083 H 0.37041 0.02632 0.95874 0.0
H1084 H 0.31987 0.03551 0.80503 0.0
H1085 H 0.35264 0.03433 0.72749 0.0
H1086 H 0.41742 0.06129 0.89214 0.0
H1087 H 0.44081 0.04209 0.91859 0.0
H1088 H 0.41348 0.04358 0.96283 0.0
H1089 H 0.40792 0.99814 0.95234 0.0
H1090 H 0.43535 0.9965 0.90857 0.0
H1091 H 0.40838 0.98478 0.87455 0.0
H1092 H 0.39148 0.03347 0.66569 0.0
H1093 H 0.43258 0.03071 0.62545 0.0
H1094 H 0.45773 0.01955 0.81797 0.0
C1095 C 0.36605 0.02772 0.90879 0.0
C1096 C 0.34223 0.03118 0.88869 0.0
C1097 C 0.33778 0.03331 0.82246 0.0
C1098 C 0.35635 0.03252 0.77773 0.0
C1099 C 0.37951 0.02941 0.79931 0.0
C1100 C 0.38441 0.02682 0.86329 0.0
C1101 C 0.4109 0.02356 0.87387 0.0
C1102 C 0.42125 0.04384 0.91427 0.0
C1103 C 0.41593 0.9993 0.90413 0.0
C1104 C 0.42011 0.02476 0.80599 0.0
C1105 C 0.40173 0.02828 0.76369 0.0
C1106 C 0.40592 0.03046 0.6985 0.0
C1107 C 0.42938 0.02878 0.67598 0.0
C1108 C 0.44852 0.02468 0.71822 0.0
C1109 C 0.44364 0.02279 0.78421 0.0
H1110 H 0.53022 0.35825 0.90551 0.0
H1111 H 0.45605 0.34056 0.8743 0.0
H1112 H 0.45121 0.3771 0.81195 0.0
H1113 H 0.5221 0.42207 0.92041 0.0
H1114 H 0.54906 0.42969 0.87877 0.0
H1115 H 0.54698 0.40221 0.92223 0.0
H1116 H 0.55821 0.37908 0.82046 0.0
H1117 H 0.56031 0.40651 0.77685 0.0
H1118 H 0.54099 0.38312 0.7491 0.0
H1119 H 0.45378 0.41591 0.75345 0.0
H1120 H 0.46431 0.45333 0.69916 0.0
H1121 H 0.53685 0.44678 0.76469 0.0
C1122 C 0.51296 0.36209 0.88565 0.0
C1123 C 0.49358 0.34611 0.89461 0.0
C1124 C 0.47134 0.35201 0.8674 0.0
C1125 C 0.46833 0.37293 0.83215 0.0
C1126 C 0.4877 0.3881 0.82383 0.0
C1127 C 0.50965 0.38298 0.84948 0.0
C1128 C 0.52758 0.40232 0.83201 0.0
C1129 C 0.53699 0.41481 0.89193 0.0
C1130 C 0.54798 0.39214 0.79224 0.0
C1131 C 0.51229 0.41894 0.79248 0.0
C1132 C 0.48928 0.41045 0.78903 0.0
C1133 C 0.47176 0.42271 0.75599 0.0
C1134 C 0.47786 0.44412 0.7256 0.0
C1135 C 0.50131 0.45327 0.72798 0.0
C1136 C 0.51876 0.44031 0.76175 0.0
H1137 H 0.16409 0.46452 0.88627 0.0
H1138 H 0.1798 0.53885 0.92118 0.0
H1139 H 0.14568 0.54995 0.8549 0.0
H1140 H 0.14285 0.47147 0.72214 0.0
H1141 H 0.11958 0.44964 0.73075 0.0
H1142 H 0.14646 0.44712 0.77661 0.0
H1143 H 0.12196 0.44604 0.88095 0.0
H1144 H 0.09516 0.4481 0.8349 0.0
H1145 H 0.10116 0.46939 0.89676 0.0
H1146 H 0.10729 0.55329 0.79452 0.0
H1147 H 0.06882 0.54846 0.74063 0.0
H1148 H 0.07719 0.47237 0.741 0.0
C1149 C 0.16052 0.48317 0.87998 0.0
C1150 C 0.17513 0.50074 0.90944 0.0
C1151 C 0.16955 0.5249 0.89871 0.0
C1152 C 0.14995 0.53144 0.86131 0.0
C1153 C 0.13582 0.51373 0.83427 0.0
C1154 C 0.14091 0.49006 0.84271 0.0
C1155 C 0.12225 0.47456 0.81011 0.0
C1156 C 0.13346 0.45983 0.75673 0.0
C1157 C 0.10937 0.45859 0.8586 0.0
C1158 C 0.10565 0.4932 0.78315 0.0
C1159 C 0.11392 0.51568 0.79763 0.0
C1160 C 0.10103 0.53578 0.78152 0.0
C1161 C 0.07926 0.5329 0.74984 0.0
C1162 C 0.07057 0.5102 0.73288 0.0
C1163 C 0.08388 0.49003 0.75068 0.0
H1164 H 1.0088 0.87432 0.34546 0.0
H1165 H 0.95051 0.84162 0.44879 0.0
H1166 H 0.95141 0.87445 0.52627 0.0
H1167 H 0.03985 0.89728 0.48577 0.0
H1168 H 0.04899 0.92472 0.44887 0.0
H1169 H 0.04514 0.89838 0.40146 0.0
H1170 H 0.01631 0.91968 0.32873 0.0
H1171 H 0.01851 0.94665 0.37413 0.0
H1172 H 0.98996 0.93283 0.36075 0.0
H1173 H 0.95831 0.91133 0.59313 0.0
H1174 H 0.97026 0.94952 0.64185 0.0
H1175 H 0.02225 0.9602 0.49254 0.0
C1176 C 0.99646 0.87388 0.38493 0.0
C1177 C 0.97954 0.85519 0.39067 0.0
C1178 C 0.96352 0.85566 0.44275 0.0
C1179 C 0.96392 0.87428 0.48723 0.0
C1180 C 0.98039 0.89263 0.47941 0.0
C1181 C 0.99646 0.89256 0.4297 0.0
C1182 C 0.01191 0.91484 0.43142 0.0
C1183 C 0.03803 0.90844 0.44255 0.0
C1184 C 0.009 0.92939 0.37016 0.0
C1185 C 1.00166 0.92765 0.48885 0.0
C1186 C 0.98374 0.91431 0.51645 0.0
C1187 C 0.97219 0.92196 0.57147 0.0
C1188 C 0.97916 0.94364 0.59909 0.0
C1189 C 0.99702 0.95794 0.57084 0.0
C1190 C 1.00835 0.94977 0.51484 0.0
H1191 H 0.65627 1.00017 0.33117 0.0
H1192 H 0.71002 1.00738 0.47784 0.0
H1193 H 0.67849 0.0129 0.55796 0.0
H1194 H 0.61424 0.04246 0.39656 0.0
H1195 H 0.58869 0.02495 0.37432 0.0
H1196 H 0.61552 0.02342 0.32794 0.0
H1197 H 0.61624 0.97791 0.34361 0.0
H1198 H 0.5895 0.97934 0.39031 0.0
H1199 H 0.61567 0.96584 0.42301 0.0
H1200 H 0.64049 0.01561 0.62389 0.0
H1201 H 0.59998 0.0162 0.66854 0.0
H1202 H 0.57092 1.0057 0.47949 0.0
C1203 C 0.66158 1.0029 0.38007 0.0
C1204 C 0.68596 1.00328 0.39759 0.0
C1205 C 0.69171 1.00734 0.46237 0.0
C1206 C 0.67383 0.01032 0.50854 0.0
C1207 C 0.65008 1.00924 0.48967 0.0
C1208 C 0.64395 1.00576 0.42681 0.0
C1209 C 0.61713 1.00465 0.41906 0.0
C1210 C 0.60838 0.02509 0.37698 0.0
C1211 C 0.60917 0.9805 0.39243 0.0
C1212 C 0.60907 1.00771 0.48747 0.0
C1213 C 0.62835 0.01049 0.52746 0.0
C1214 C 0.62533 0.01351 0.5928 0.0
C1215 C 0.60214 0.01379 0.6178 0.0
C1216 C 0.58202 0.01095 0.57787 0.0
C1217 C 0.58576 1.00784 0.51169 0.0
H1218 H 0.51676 0.66 0.34162 0.0
H1219 H 0.55746 0.70186 0.47701 0.0
H1220 H 0.55934 0.66754 0.54857 0.0
H1221 H 0.48185 0.62872 0.46479 0.0
H1222 H 0.48074 0.60126 0.42132 0.0
H1223 H 0.48252 0.62903 0.37913 0.0
H1224 H 0.52032 0.61493 0.32035 0.0
H1225 H 0.51814 0.58708 0.36179 0.0
H1226 H 0.54514 0.60439 0.36611 0.0
H1227 H 0.56021 0.62772 0.602 0.0
H1228 H 0.5536 0.58707 0.6427 0.0
H1229 H 0.50913 0.57116 0.48039 0.0
C1230 C 0.52578 0.66218 0.38663 0.0
C1231 C 0.5375 0.68388 0.40211 0.0
C1232 C 0.54904 0.6855 0.46208 0.0
C1233 C 0.55011 0.66602 0.50362 0.0
C1234 C 0.53919 0.64483 0.48582 0.0
C1235 C 0.52671 0.64289 0.42956 0.0
C1236 C 0.51585 0.61814 0.42344 0.0
C1237 C 0.48862 0.61936 0.4221 0.0
C1238 C 0.52545 0.60539 0.36441 0.0
C1239 C 0.52455 0.60646 0.4844 0.0
C1240 C 0.5382 0.6222 0.51921 0.0
C1241 C 0.54903 0.61546 0.57592 0.0
C1242 C 0.54504 0.59241 0.59907 0.0
C1243 C 0.53023 0.57624 0.56622 0.0
C1244 C 0.52029 0.58324 0.50717 0.0
H1245 H 0.84044 0.55061 0.46797 0.0
H1246 H 0.85456 0.501 0.31494 0.0
H1247 H 0.89205 0.49012 0.36664 0.0
H1248 H 0.89932 0.57196 0.48125 0.0
H1249 H 0.89965 0.57484 0.56666 0.0
H1250 H 0.87221 0.57765 0.52351 0.0
H1251 H 0.85243 0.54445 0.58879 0.0
H1252 H 0.87914 0.54187 0.6352 0.0
H1253 H 0.86682 0.51618 0.5961 0.0
H1254 H 0.92895 0.48485 0.43428 0.0
H1255 H 0.96189 0.4861 0.51189 0.0
H1256 H 0.92595 0.54102 0.61709 0.0
C1257 C 0.8513 0.53746 0.44485 0.0
C1258 C 0.84396 0.52664 0.38684 0.0
C1259 C 0.85903 0.5093 0.35973 0.0
C1260 C 0.88067 0.50311 0.38856 0.0
C1261 C 0.88741 0.51442 0.44473 0.0
C1262 C 0.87315 0.53122 0.4727 0.0
C1263 C 0.8849 0.54122 0.53226 0.0
C1264 C 0.8893 0.56801 0.52554 0.0
C1265 C 0.86993 0.53559 0.5916 0.0
C1266 C 0.9081 0.5276 0.53304 0.0
C1267 C 0.90903 0.51202 0.48245 0.0
C1268 C 0.92831 0.49697 0.47404 0.0
C1269 C 0.94691 0.49765 0.51862 0.0
C1270 C 0.94644 0.51343 0.57074 0.0
C1271 C 0.92684 0.52881 0.57751 0.0
loop_
_geom_bond_atom_site_label_1
_geom_bond_atom_site_label_2
_geom_bond_distance
_geom_bond_site_symmetry_2
_ccdc_geom_bond_type
C0 C1 1.384 . S
C0 H13 0.947 . S
C0 C35 1.382 . S
C1 C0 1.384 . S
C1 C2 1.378 . S
C2 C1 1.378 . S
C2 C3 1.378 . S
C2 H14 0.952 . S
C3 C2 1.378 . S
C3 H15 0.950 . S
C3 C34 1.383 . S
H4 C23 0.947 . S
H5 C24 0.946 . S
H6 C26 0.953 . S
H7 C27 0.945 . S
H8 C29 0.952 . S
H9 C30 0.949 1_556 S
H10 C32 0.950 . S
H11 C33 0.948 . S
H12 C35 0.951 . S
H13 C0 0.947 . S
H14 C2 0.952 . S
H15 C3 0.950 . S
N16 C19 1.382 . S
N16 C21 1.363 . S
N17 C19 1.371 . S
N17 C20 1.372 . S
N18 C20 1.361 . S
N18 C21 1.377 . S
C19 N16 1.382 . S
C19 N17 1.371 . S
C19 C22 1.480 . S
C20 N17 1.372 . S
C20 N18 1.361 . S
C20 C28 1.457 . S
C21 N16 1.363 . S
C21 N18 1.377 . S
C21 C34 1.479 . S
C22 C19 1.480 . S
C22 C23 1.383 . S
C22 C27 1.385 . S
C23 H4 0.947 . S
C23 C22 1.383 . S
C23 C24 1.388 . S
C24 H5 0.946 . S
C24 C23 1.388 . S
C24 C25 1.384 . S
C25 C24 1.384 . S
C25 C26 1.377 . S
C26 H6 0.953 . S
C26 C25 1.377 . S
C26 C27 1.369 . S
C27 H7 0.945 . S
C27 C22 1.385 . S
C27 C26 1.369 . S
C28 C20 1.457 . S
C28 C29 1.372 . S
C28 C33 1.364 . S
C29 H8 0.952 . S
C29 C28 1.372 . S
C29 C30 1.389 . S
C30 H9 0.949 1_554 S
C30 C29 1.389 . S
C30 C31 1.387 . S
C31 C30 1.387 . S
C31 C32 1.372 . S
C32 H10 0.950 . S
C32 C31 1.372 . S
C32 C33 1.379 . S
C33 H11 0.948 . S
C33 C28 1.364 . S
C33 C32 1.379 . S
C34 C3 1.383 . S
C34 C21 1.479 . S
C34 C35 1.398 . S
C35 C0 1.382 . S
C35 H12 0.951 . S
C35 C34 1.398 . S
C36 C37 1.384 . S
C36 H49 0.947 . S
C36 C71 1.382 . S
C37 C36 1.384 . S
C37 C38 1.378 . S
C38 C37 1.378 . S
C38 C39 1.378 . S
C38 H50 0.952 . S
C39 C38 1.378 . S
C39 H51 0.950 . S
C39 C70 1.383 . S
H40 C59 0.947 . S
H41 C60 0.946 . S
H42 C62 0.953 . S
H43 C63 0.945 . S
H44 C65 0.952 . S
H45 C66 0.949 1_556 S
H46 C68 0.950 . S
H47 C69 0.948 . S
H48 C71 0.951 . S
H49 C36 0.947 . S
H50 C38 0.952 . S
H51 C39 0.950 . S
N52 C55 1.382 . S
N52 C57 1.363 . S
N53 C55 1.371 . S
N53 C56 1.372 . S
N54 C56 1.361 . S
N54 C57 1.377 . S
C55 N52 1.382 . S
C55 N53 1.371 . S
C55 C58 1.480 . S
C56 N53 1.372 . S
C56 N54 1.361 . S
C56 C64 1.457 . S
C57 N52 1.363 . S
C57 N54 1.377 . S
C57 C70 1.479 . S
C58 C55 1.480 . S
C58 C59 1.383 . S
C58 C63 1.385 . S
C59 H40 0.947 . S
C59 C58 1.383 . S
C59 C60 1.388 . S
C60 H41 0.946 . S
C60 C59 1.388 . S
C60 C61 1.384 . S
C61 C60 1.384 . S
C61 C62 1.377 . S
C62 H42 0.953 . S
C62 C61 1.377 . S
C62 C63 1.369 . S
C63 H43 0.945 . S
C63 C58 1.385 . S
C63 C62 1.369 . S
C64 C56 1.457 . S
C64 C65 1.372 . S
C64 C69 1.364 . S
C65 H44 0.952 . S
C65 C64 1.372 . S
C65 C66 1.389 . S
C66 H45 0.949 1_554 S
C66 C65 1.389 . S
C66 C67 1.387 . S
C67 C66 1.387 . S
C67 C68 1.372 . S
C68 H46 0.950 . S
C68 C67 1.372 . S
C68 C69 1.379 . S
C69 H47 0.948 . S
C69 C64 1.364 . S
C69 C68 1.379 . S
C70 C39 1.383 . S
C70 C57 1.479 . S
C70 C71 1.398 . S
C71 C36 1.382 . S
C71 H48 0.951 . S
C71 C70 1.398 . S
C72 C73 1.384 . S
C72 H85 0.947 . S
C72 C107 1.382 . S
C73 C72 1.384 . S
C73 C74 1.378 . S
C74 C73 1.378 . S
C74 C75 1.378 . S
C74 H86 0.952 . S
C75 C74 1.378 . S
C75 H87 0.950 . S
C75 C106 1.383 . S
H76 C95 0.947 . S
H77 C96 0.946 . S
H78 C98 0.953 . S
H79 C99 0.945 . S
H80 C101 0.952 . S
H81 C102 0.949 1_556 S
H82 C104 0.950 . S
H83 C105 0.948 . S
H84 C107 0.951 . S
H85 C72 0.947 . S
H86 C74 0.952 . S
H87 C75 0.950 . S
N88 C91 1.382 . S
N88 C93 1.363 . S
N89 C91 1.371 . S
N89 C92 1.372 . S
N90 C92 1.361 . S
N90 C93 1.377 . S
C91 N88 1.382 . S
C91 N89 1.371 . S
C91 C94 1.480 . S
C92 N89 1.372 . S
C92 N90 1.361 . S
C92 C100 1.457 . S
C93 N88 1.363 . S
C93 N90 1.377 . S
C93 C106 1.479 . S
C94 C91 1.480 . S
C94 C95 1.383 . S
C94 C99 1.385 . S
C95 H76 0.947 . S
C95 C94 1.383 . S
C95 C96 1.388 . S
C96 H77 0.946 . S
C96 C95 1.388 . S
C96 C97 1.384 . S
C97 C96 1.384 . S
C97 C98 1.377 . S
C98 H78 0.953 . S
C98 C97 1.377 . S
C98 C99 1.369 . S
C99 H79 0.945 . S
C99 C94 1.385 . S
C99 C98 1.369 . S
C100 C92 1.457 . S
C100 C101 1.372 . S
C100 C105 1.364 . S
C101 H80 0.952 . S
C101 C100 1.372 . S
C101 C102 1.389 . S
C102 H81 0.949 1_554 S
C102 C101 1.389 . S
C102 C103 1.387 . S
C103 C102 1.387 . S
C103 C104 1.372 . S
C104 H82 0.950 . S
C104 C103 1.372 . S
C104 C105 1.379 . S
C105 H83 0.948 . S
C105 C100 1.364 . S
C105 C104 1.379 . S
C106 C75 1.383 . S
C106 C93 1.479 . S
C106 C107 1.398 . S
C107 C72 1.382 . S
C107 H84 0.951 . S
C107 C106 1.398 . S
C108 C109 1.384 . S
C108 H121 0.947 . S
C108 C143 1.382 . S
C109 C108 1.384 . S
C109 C110 1.378 . S
C110 C109 1.378 . S
C110 C111 1.378 . S
C110 H122 0.952 1_554 S
C111 C110 1.378 . S
C111 H123 0.950 . S
C111 C142 1.383 . S
H112 C131 0.947 . S
H113 C132 0.946 . S
H114 C134 0.953 . S
H115 C135 0.945 . S
H116 C137 0.952 . S
H117 C138 0.949 . S
H118 C140 0.950 . S
H119 C141 0.948 . S
H120 C143 0.951 . S
H121 C108 0.947 . S
H122 C110 0.952 1_556 S
H123 C111 0.950 . S
N124 C127 1.382 . S
N124 C129 1.363 . S
N125 C127 1.371 . S
N125 C128 1.372 . S
N126 C128 1.361 . S
N126 C129 1.377 . S
C127 N124 1.382 . S
C127 N125 1.371 . S
C127 C130 1.480 . S
C128 N125 1.372 . S
C128 N126 1.361 . S
C128 C136 1.457 . S
C129 N124 1.363 . S
C129 N126 1.377 . S
C129 C142 1.479 . S
C130 C127 1.480 . S
C130 C131 1.383 . S
C130 C135 1.385 . S
C131 H112 0.947 . S
C131 C130 1.383 . S
C131 C132 1.388 . S
C132 H113 0.946 . S
C132 C131 1.388 . S
C132 C133 1.384 . S
C133 C132 1.384 . S
C133 C134 1.377 . S
C134 H114 0.953 . S
C134 C133 1.377 . S
C134 C135 1.369 . S
C135 H115 0.945 . S
C135 C130 1.385 . S
C135 C134 1.369 . S
C136 C128 1.457 . S
C136 C137 1.372 . S
C136 C141 1.364 . S
C137 H116 0.952 . S
C137 C136 1.372 . S
C137 C138 1.389 . S
C138 H117 0.949 . S
C138 C137 1.389 . S
C138 C139 1.387 . S
C139 C138 1.387 . S
C139 C140 1.372 . S
C140 H118 0.950 . S
C140 C139 1.372 . S
C140 C141 1.379 . S
C141 H119 0.948 . S
C141 C136 1.364 . S
C141 C140 1.379 . S
C142 C111 1.383 . S
C142 C129 1.479 . S
C142 C143 1.398 . S
C143 C108 1.382 . S
C143 H120 0.951 . S
C143 C142 1.398 . S
C144 C145 1.384 . S
C144 H157 0.947 . S
C144 C179 1.382 . S
C145 C144 1.384 . S
C145 C146 1.378 . S
C146 C145 1.378 . S
C146 C147 1.378 . S
C146 H158 0.952 . S
C147 C146 1.378 . S
C147 H159 0.950 . S
C147 C178 1.383 . S
H148 C167 0.947 1_556 S
H149 C168 0.946 . S
H150 C170 0.953 . S
H151 C171 0.945 . S
H152 C173 0.952 . S
H153 C174 0.949 . S
H154 C176 0.950 . S
H155 C177 0.948 . S
H156 C179 0.951 . S
H157 C144 0.947 . S
H158 C146 0.952 . S
H159 C147 0.950 . S
N160 C163 1.382 1_556 S
N160 C165 1.363 . S
N161 C163 1.371 . S
N161 C164 1.372 . S
N162 C164 1.361 . S
N162 C165 1.377 1_554 S
C163 N160 1.382 1_554 S
C163 N161 1.371 . S
C163 C166 1.480 . S
C164 N161 1.372 . S
C164 N162 1.361 . S
C164 C172 1.457 . S
C165 N160 1.363 . S
C165 N162 1.377 1_556 S
C165 C178 1.479 . S
C166 C163 1.480 . S
C166 C167 1.383 . S
C166 C171 1.385 . S
C167 H148 0.947 1_554 S
C167 C166 1.383 . S
C167 C168 1.388 . S
C168 H149 0.946 . S
C168 C167 1.388 . S
C168 C169 1.384 . S
C169 C168 1.384 . S
C169 C170 1.377 . S
C170 H150 0.953 . S
C170 C169 1.377 . S
C170 C171 1.369 . S
C171 H151 0.945 . S
C171 C166 1.385 . S
C171 C170 1.369 . S
C172 C164 1.457 . S
C172 C173 1.372 . S
C172 C177 1.364 . S
C173 H152 0.952 . S
C173 C172 1.372 . S
C173 C174 1.389 . S
C174 H153 0.949 . S
C174 C173 1.389 . S
C174 C175 1.387 . S
C175 C174 1.387 . S
C175 C176 1.372 . S
C176 H154 0.950 . S
C176 C175 1.372 . S
C176 C177 1.379 . S
C177 H155 0.948 . S
C177 C172 1.364 . S
C177 C176 1.379 . S
C178 C147 1.383 . S
C178 C165 1.479 . S
C178 C179 1.398 . S
C179 C144 1.382 . S
C179 H156 0.951 . S
C179 C178 1.398 . S
C180 C181 1.384 . S
C180 H193 0.947 . S
C180 C215 1.382 . S
C181 C180 1.384 . S
C181 C182 1.378 . S
C182 C181 1.378 . S
C182 C183 1.378 . S
C182 H194 0.952 . S
C183 C182 1.378 . S
C183 H195 0.950 . S
C183 C214 1.383 . S
H184 C203 0.947 1_556 S
H185 C204 0.946 . S
H186 C206 0.953 . S
H187 C207 0.945 . S
H188 C209 0.952 . S
H189 C210 0.949 . S
H190 C212 0.950 . S
H191 C213 0.948 . S
H192 C215 0.951 . S
H193 C180 0.947 . S
H194 C182 0.952 . S
H195 C183 0.950 . S
N196 C199 1.382 1_556 S
N196 C201 1.363 . S
N197 C199 1.371 . S
N197 C200 1.372 . S
N198 C200 1.361 . S
N198 C201 1.377 1_554 S
C199 N196 1.382 1_554 S
C199 N197 1.371 . S
C199 C202 1.480 . S
C200 N197 1.372 . S
C200 N198 1.361 . S
C200 C208 1.457 . S
C201 N196 1.363 . S
C201 N198 1.377 1_556 S
C201 C214 1.479 . S
C202 C199 1.480 . S
C202 C203 1.383 . S
C202 C207 1.385 . S
C203 H184 0.947 1_554 S
C203 C202 1.383 . S
C203 C204 1.388 . S
C204 H185 0.946 . S
C204 C203 1.388 . S
C204 C205 1.384 . S
C205 C204 1.384 . S
C205 C206 1.377 . S
C206 H186 0.953 . S
C206 C205 1.377 . S
C206 C207 1.369 . S
C207 H187 0.945 . S
C207 C202 1.385 . S
C207 C206 1.369 . S
C208 C200 1.457 . S
C208 C209 1.372 . S
C208 C213 1.364 . S
C209 H188 0.952 . S
C209 C208 1.372 . S
C209 C210 1.389 . S
C210 H189 0.949 . S
C210 C209 1.389 . S
C210 C211 1.387 . S
C211 C210 1.387 . S
C211 C212 1.372 . S
C212 H190 0.950 . S
C212 C211 1.372 . S
C212 C213 1.379 . S
C213 H191 0.948 . S
C213 C208 1.364 . S
C213 C212 1.379 . S
C214 C183 1.383 . S
C214 C201 1.479 . S
C214 C215 1.398 . S
C215 C180 1.382 . S
C215 H192 0.951 . S
C215 C214 1.398 . S
C216 C217 1.384 . S
C216 H229 0.947 . S
C216 C251 1.382 . S
C217 C216 1.384 . S
C217 C218 1.378 . S
C218 C217 1.378 . S
C218 C219 1.378 . S
C218 H230 0.952 . S
C219 C218 1.378 . S
C219 H231 0.950 . S
C219 C250 1.383 . S
H220 C239 0.947 1_556 S
H221 C240 0.946 . S
H222 C242 0.953 . S
H223 C243 0.945 . S
H224 C245 0.952 . S
H225 C246 0.949 . S
H226 C248 0.950 . S
H227 C249 0.948 . S
H228 C251 0.951 . S
H229 C216 0.947 . S
H230 C218 0.952 . S
H231 C219 0.950 . S
N232 C235 1.371 1_556 S
N232 C237 1.365 . S
N233 C235 1.371 . S
N233 C236 1.372 . S
N234 C236 1.361 . S
N234 C237 1.377 1_554 S
C235 N232 1.371 1_554 S
C235 N233 1.371 . S
C235 C238 1.480 . S
C236 N233 1.372 . S
C236 N234 1.361 . S
C236 C244 1.457 . S
C237 N232 1.365 . S
C237 N234 1.377 1_556 S
C237 C250 1.479 . S
C238 C235 1.480 . S
C238 C239 1.383 . S
C238 C243 1.385 . S
C239 H220 0.947 1_554 S
C239 C238 1.383 . S
C239 C240 1.388 . S
C240 H221 0.946 . S
C240 C239 1.388 . S
C240 C241 1.384 . S
C241 C240 1.384 . S
C241 C242 1.377 . S
C242 H222 0.953 . S
C242 C241 1.377 . S
C242 C243 1.369 . S
C243 H223 0.945 . S
C243 C238 1.385 . S
C243 C242 1.369 . S
C244 C236 1.457 . S
C244 C245 1.372 . S
C244 C249 1.364 . S
C245 H224 0.952 . S
C245 C244 1.372 . S
C245 C246 1.389 . S
C246 H225 0.949 . S
C246 C245 1.389 . S
C246 C247 1.387 . S
C247 C246 1.387 . S
C247 C248 1.372 . S
C248 H226 0.950 . S
C248 C247 1.372 . S
C248 C249 1.379 . S
C249 H227 0.948 . S
C249 C244 1.364 . S
C249 C248 1.379 . S
C250 C219 1.383 . S
C250 C237 1.479 . S
C250 C251 1.398 . S
C251 C216 1.382 . S
C251 H228 0.951 . S
C251 C250 1.398 . S
C252 C253 1.384 . S
C252 H265 0.947 . S
C252 C287 1.382 . S
C253 C252 1.384 . S
C253 C254 1.378 . S
C254 C253 1.378 . S
C254 C255 1.378 . S
C254 H266 0.952 . S
C255 C254 1.378 . S
C255 H267 0.950 . S
C255 C286 1.383 . S
H256 C275 0.947 . S
H257 C276 0.946 . S
H258 C278 0.953 . S
H259 C279 0.945 1_556 S
H260 C281 0.952 . S
H261 C282 0.949 . S
H262 C284 0.950 . S
H263 C285 0.948 . S
H264 C287 0.951 . S
H265 C252 0.947 . S
H266 C254 0.952 . S
H267 C255 0.950 . S
N268 C271 1.382 . S
N268 C273 1.363 . S
N269 C271 1.371 1_556 S
N269 C272 1.372 . S
N270 C272 1.361 1_554 S
N270 C273 1.377 . S
C271 N268 1.382 . S
C271 N269 1.371 1_554 S
C271 C274 1.480 . S
C272 N269 1.372 . S
C272 N270 1.361 1_556 S
C272 C280 1.457 . S
C273 N268 1.363 . S
C273 N270 1.377 . S
C273 C286 1.479 . S
C274 C271 1.480 . S
C274 C275 1.383 . S
C274 C279 1.385 . S
C275 H256 0.947 . S
C275 C274 1.383 . S
C275 C276 1.388 . S
C276 H257 0.946 . S
C276 C275 1.388 . S
C276 C277 1.384 . S
C277 C276 1.384 . S
C277 C278 1.377 . S
C278 H258 0.953 . S
C278 C277 1.377 . S
C278 C279 1.369 . S
C279 H259 0.945 1_554 S
C279 C274 1.385 . S
C279 C278 1.369 . S
C280 C272 1.457 . S
C280 C281 1.372 . S
C280 C285 1.364 . S
C281 H260 0.952 . S
C281 C280 1.372 . S
C281 C282 1.389 . S
C282 H261 0.949 . S
C282 C281 1.389 . S
C282 C283 1.387 . S
C283 C282 1.387 . S
C283 C284 1.372 . S
C284 H262 0.950 . S
C284 C283 1.372 . S
C284 C285 1.379 . S
C285 H263 0.948 . S
C285 C280 1.364 . S
C285 C284 1.379 . S
C286 C255 1.383 . S
C286 C273 1.479 . S
C286 C287 1.398 . S
C287 C252 1.382 . S
C287 H264 0.951 . S
C287 C286 1.398 . S
Tb288 N317 2.617 . S
Tb288 N323 2.572 . S
Tb288 O332 2.465 . S
Tb288 O333 2.387 1_545 S
Tb288 O335 2.428 . S
Tb288 O336 2.308 1_655 S
Tb288 O340 2.349 1_655 S
Tb288 O343 2.393 . S
Tb288 C352 2.802 . S
C289 N290 1.379 . S
C289 C292 1.416 . S
C289 C296 1.424 . S
N290 C289 1.379 . S
N290 C293 1.335 1_545 S
N290 Tb299 2.617 1_545 S
C291 C293 1.391 1_545 S
C291 C294 1.339 . S
C291 H311 0.930 . S
C292 C289 1.416 . S
C292 C294 1.416 . S
C292 C298 1.448 . S
C293 N290 1.335 1_565 S
C293 C291 1.391 1_565 S
C293 H304 0.928 . S
C294 C291 1.339 . S
C294 C292 1.416 . S
C294 H315 0.930 . S
C295 C296 1.413 . S
C295 C297 1.427 . S
C295 C301 1.416 . S
C296 C289 1.424 . S
C296 C295 1.413 . S
C296 N300 1.361 . S
C297 C295 1.427 . S
C297 C298 1.328 . S
C297 H312 0.929 . S
C298 C292 1.448 . S
C298 C297 1.328 . S
C298 H313 0.930 . S
Tb299 N290 2.617 1_565 S
Tb299 N300 2.572 1_565 S
Tb299 O334 2.349 . S
Tb299 O337 2.393 . S
Tb299 O338 2.465 . S
Tb299 O339 2.387 1_565 S
Tb299 O341 2.428 . S
Tb299 O342 2.308 1_465 S
Tb299 C363 2.802 . S
N300 C296 1.361 . S
N300 Tb299 2.572 1_545 S
N300 C302 1.340 . S
C301 C295 1.416 . S
C301 C303 1.332 . S
C301 H309 0.931 . S
C302 N300 1.340 . S
C302 C303 1.407 . S
C302 H308 0.911 1_455 S
C303 C301 1.332 . S
C303 C302 1.407 . S
C303 H305 0.929 . S
H304 C293 0.928 . S
H305 C303 0.929 . S
H306 C321 0.930 . S
H307 C328 0.929 1_455 S
H308 C302 0.911 1_655 S
H309 C301 0.931 . S
H310 C324 0.930 1_455 S
H311 C291 0.930 . S
H312 C297 0.929 . S
H313 C298 0.930 . S
H314 C319 0.930 . S
H315 C294 0.930 . S
H316 C327 0.931 . S
N317 Tb288 2.617 . S
N317 C318 1.379 . S
N317 C321 1.334 . S
C318 N317 1.379 . S
C318 C320 1.416 1_545 S
C318 C326 1.424 . S
C319 H314 0.930 . S
C319 C321 1.390 . S
C319 C322 1.322 1_545 S
C320 C318 1.416 1_565 S
C320 C322 1.420 . S
C320 C353 1.448 . S
C321 H306 0.930 . S
C321 N317 1.334 . S
C321 C319 1.390 . S
C322 C319 1.322 1_565 S
C322 C320 1.420 . S
C322 H329 0.944 . S
N323 Tb288 2.572 . S
N323 C324 1.340 . S
N323 C326 1.361 . S
C324 H310 0.930 1_655 S
C324 N323 1.340 . S
C324 C328 1.407 1_545 S
C325 C326 1.413 1_565 S
C325 C327 1.416 . S
C325 C354 1.427 . S
C326 C318 1.424 . S
C326 N323 1.361 . S
C326 C325 1.413 1_545 S
C327 H316 0.931 . S
C327 C325 1.416 . S
C327 C328 1.332 . S
C328 H307 0.929 1_655 S
C328 C324 1.407 1_565 S
C328 C327 1.332 . S
H329 C322 0.944 . S
H330 C353 0.930 . S
H331 C354 0.929 . S
O332 Tb288 2.465 . S
O332 C352 1.264 . S
O333 Tb288 2.387 1_565 S
O333 C344 1.264 . S
O334 Tb299 2.349 . S
O334 C344 1.243 1_455 S
O335 Tb288 2.428 . S
O335 C352 1.256 . S
O336 Tb288 2.308 1_455 S
O336 C351 1.266 . S
O337 Tb299 2.393 . S
O337 C351 1.248 1_565 S
O338 Tb299 2.465 . S
O338 C363 1.264 . S
O339 Tb299 2.387 1_545 S
O339 C355 1.264 . S
O340 Tb288 2.349 1_455 S
O340 C355 1.243 . S
O341 Tb299 2.428 . S
O341 C363 1.256 . S
O342 Tb299 2.308 1_645 S
O342 C362 1.266 . S
O343 Tb288 2.393 . S
O343 C362 1.248 . S
C344 O333 1.264 . S
C344 O334 1.243 1_655 S
C345 C348 1.399 . S
C345 C350 1.383 . S
C345 C352 1.496 . S
C346 C347 1.399 . S
C346 C350 1.389 . S
C347 C346 1.399 . S
C347 C349 1.380 . S
C347 H364 0.929 . S
C348 C345 1.399 . S
C348 C349 1.392 . S
C348 H365 0.929 . S
C349 C347 1.380 . S
C349 C348 1.392 . S
C349 H366 0.929 . S
C350 C345 1.383 . S
C350 C346 1.389 . S
C350 H367 0.931 1_655 S
C351 O336 1.266 . S
C351 O337 1.248 1_545 S
C352 Tb288 2.802 . S
C352 O332 1.264 . S
C352 O335 1.256 . S
C352 C345 1.496 . S
C353 C320 1.448 . S
C353 H330 0.930 . S
C353 C354 1.328 . S
C354 C325 1.427 . S
C354 H331 0.929 . S
C354 C353 1.328 . S
C355 O339 1.264 . S
C355 O340 1.243 . S
C356 C359 1.399 . S
C356 C360 1.383 . S
C356 C363 1.496 . S
C357 C358 1.399 . S
C357 C360 1.389 . S
C358 C357 1.399 . S
C358 C361 1.380 . S
C358 H368 0.929 . S
C359 C356 1.399 . S
C359 C361 1.392 . S
C359 H369 0.929 . S
C360 C356 1.383 . S
C360 C357 1.389 . S
C360 H370 0.931 . S
C361 C358 1.380 . S
C361 C359 1.392 . S
C361 H371 0.929 . S
C362 O342 1.266 . S
C362 O343 1.248 . S
C363 Tb299 2.802 . S
C363 O338 1.264 . S
C363 O341 1.256 . S
C363 C356 1.496 . S
H364 C347 0.929 . S
H365 C348 0.929 . S
H366 C349 0.929 . S
H367 C350 0.931 1_455 S
H368 C358 0.929 . S
H369 C359 0.929 . S
H370 C360 0.931 . S
H371 C361 0.929 . S
Tb372 N401 2.617 . S
Tb372 N407 2.572 . S
Tb372 O416 2.465 . S
Tb372 O417 2.387 . S
Tb372 O419 2.428 . S
Tb372 O420 2.308 . S
Tb372 O424 2.349 1_545 S
Tb372 O427 2.393 . S
Tb372 C436 2.802 . S
C373 N374 1.379 . S
C373 C376 1.416 . S
C373 C380 1.424 . S
N374 C373 1.379 . S
N374 C377 1.334 . S
N374 Tb383 2.617 . S
C375 C377 1.390 . S
C375 C378 1.339 . S
C375 H395 0.930 . S
C376 C373 1.416 . S
C376 C378 1.416 . S
C376 C382 1.448 . S
C377 N374 1.334 . S
C377 C375 1.390 . S
C377 H388 0.930 . S
C378 C375 1.339 . S
C378 C376 1.416 . S
C378 H399 0.930 . S
C379 C380 1.413 . S
C379 C381 1.427 . S
C379 C385 1.416 . S
C380 C373 1.424 . S
C380 C379 1.413 . S
C380 N384 1.361 . S
C381 C379 1.427 . S
C381 C382 1.328 . S
C381 H396 0.929 . S
C382 C376 1.448 . S
C382 C381 1.328 . S
C382 H397 0.930 . S
Tb383 N374 2.617 . S
Tb383 N384 2.572 . S
Tb383 O418 2.349 1_565 S
Tb383 O421 2.393 . S
Tb383 O422 2.465 . S
Tb383 O423 2.387 . S
Tb383 O425 2.428 . S
Tb383 O426 2.308 1_565 S
Tb383 C447 2.802 . S
N384 C380 1.361 . S
N384 Tb383 2.572 . S
N384 C386 1.340 . S
C385 C379 1.416 . S
C385 C387 1.332 . S
C385 H393 0.931 . S
C386 N384 1.340 . S
C386 C387 1.407 . S
C386 H392 0.930 . S
C387 C385 1.332 . S
C387 C386 1.407 . S
C387 H389 0.929 . S
H388 C377 0.930 . S
H389 C387 0.929 . S
H390 C405 0.930 . S
H391 C412 0.929 . S
H392 C386 0.930 . S
H393 C385 0.931 . S
H394 C408 0.930 . S
H395 C375 0.930 . S
H396 C381 0.929 . S
H397 C382 0.930 . S
H398 C403 0.930 . S
H399 C378 0.930 . S
H400 C411 0.931 . S
N401 Tb372 2.617 . S
N401 C402 1.379 . S
N401 C405 1.334 . S
C402 N401 1.379 . S
C402 C404 1.416 . S
C402 C410 1.424 . S
C403 H398 0.930 . S
C403 C405 1.390 . S
C403 C406 1.339 . S
C404 C402 1.416 . S
C404 C406 1.416 . S
C404 C437 1.448 . S
C405 H390 0.930 . S
C405 N401 1.334 . S
C405 C403 1.390 . S
C406 C403 1.339 . S
C406 C404 1.416 . S
C406 H413 0.930 . S
N407 Tb372 2.572 . S
N407 C408 1.340 . S
N407 C410 1.361 . S
C408 H394 0.930 . S
C408 N407 1.340 . S
C408 C412 1.407 . S
C409 C410 1.413 . S
C409 C411 1.416 . S
C409 C438 1.427 . S
C410 C402 1.424 . S
C410 N407 1.361 . S
C410 C409 1.413 . S
C411 H400 0.931 . S
C411 C409 1.416 . S
C411 C412 1.332 . S
C412 H391 0.929 . S
C412 C408 1.407 . S
C412 C411 1.332 . S
H413 C406 0.930 . S
H414 C437 0.930 . S
H415 C438 0.929 . S
O416 Tb372 2.465 . S
O416 C436 1.264 . S
O417 Tb372 2.387 . S
O417 C428 1.264 . S
O418 Tb383 2.349 1_545 S
O418 C428 1.243 . S
O419 Tb372 2.428 . S
O419 C436 1.256 . S
O420 Tb372 2.308 . S
O420 C435 1.250 1_545 S
O421 Tb383 2.393 . S
O421 C435 1.259 . S
O422 Tb383 2.465 . S
O422 C447 1.264 . S
O423 Tb383 2.387 . S
O423 C439 1.264 . S
O424 Tb372 2.349 1_565 S
O424 C439 1.243 . S
O425 Tb383 2.428 . S
O425 C447 1.256 . S
O426 Tb383 2.308 1_545 S
O426 C446 1.266 . S
O427 Tb372 2.393 . S
O427 C446 1.248 . S
C428 O417 1.264 . S
C428 O418 1.243 . S
C429 C432 1.399 . S
C429 C434 1.383 . S
C429 C436 1.496 . S
C430 C431 1.399 . S
C430 C434 1.389 . S
C431 C430 1.399 . S
C431 C433 1.380 . S
C431 H448 0.929 . S
C432 C429 1.399 . S
C432 C433 1.392 . S
C432 H449 0.929 . S
C433 C431 1.380 . S
C433 C432 1.392 . S
C433 H450 0.929 1_556 S
C434 C429 1.383 . S
C434 C430 1.389 . S
C434 H451 0.931 . S
C435 O420 1.250 1_565 S
C435 O421 1.259 . S
C436 Tb372 2.802 . S
C436 O416 1.264 . S
C436 O419 1.256 . S
C436 C429 1.496 . S
C437 C404 1.448 . S
C437 H414 0.930 . S
C437 C438 1.328 . S
C438 C409 1.427 . S
C438 H415 0.929 . S
C438 C437 1.328 . S
C439 O423 1.264 . S
C439 O424 1.243 . S
C440 C443 1.399 . S
C440 C444 1.383 1_565 S
C440 C447 1.496 . S
C441 C442 1.399 1_545 S
C441 C444 1.389 . S
C442 C441 1.399 1_565 S
C442 C445 1.380 . S
C442 H452 0.929 . S
C443 C440 1.399 . S
C443 C445 1.392 . S
C443 H453 0.929 . S
C444 C440 1.383 1_545 S
C444 C441 1.389 . S
C444 H454 0.931 . S
C445 C442 1.380 . S
C445 C443 1.392 . S
C445 H455 0.929 . S
C446 O426 1.266 . S
C446 O427 1.248 . S
C447 Tb383 2.802 . S
C447 O422 1.264 . S
C447 O425 1.256 . S
C447 C440 1.496 . S
H448 C431 0.929 . S
H449 C432 0.929 . S
H450 C433 0.929 1_554 S
H451 C434 0.931 . S
H452 C442 0.929 . S
H453 C443 0.929 . S
H454 C444 0.931 . S
H455 C445 0.929 . S
Tb456 N485 2.617 . S
Tb456 N491 2.572 . S
Tb456 O500 2.465 . S
Tb456 O501 2.387 . S
Tb456 O503 2.428 . S
Tb456 O504 2.308 . S
Tb456 O508 2.349 . S
Tb456 O511 2.393 . S
Tb456 C520 2.802 . S
C457 N458 1.379 . S
C457 C460 1.416 . S
C457 C464 1.424 . S
N458 C457 1.379 . S
N458 C461 1.334 . S
N458 Tb467 2.617 . S
C459 C461 1.390 . S
C459 C462 1.339 . S
C459 H479 0.930 . S
C460 C457 1.416 . S
C460 C462 1.416 . S
C460 C466 1.448 . S
C461 N458 1.334 . S
C461 C459 1.390 . S
C461 H472 0.930 . S
C462 C459 1.339 . S
C462 C460 1.416 . S
C462 H483 0.930 . S
C463 C464 1.413 . S
C463 C465 1.427 . S
C463 C469 1.416 . S
C464 C457 1.424 . S
C464 C463 1.413 . S
C464 N468 1.361 . S
C465 C463 1.427 . S
C465 C466 1.328 . S
C465 H480 0.929 . S
C466 C460 1.448 . S
C466 C465 1.328 . S
C466 H481 0.930 . S
Tb467 N458 2.617 . S
Tb467 N468 2.572 . S
Tb467 O502 2.349 . S
Tb467 O505 2.393 . S
Tb467 O506 2.465 . S
Tb467 O507 2.387 . S
Tb467 O509 2.428 . S
Tb467 O510 2.308 . S
Tb467 C531 2.802 . S
N468 C464 1.361 . S
N468 Tb467 2.572 . S
N468 C470 1.340 . S
C469 C463 1.416 . S
C469 C471 1.332 . S
C469 H477 0.931 . S
C470 N468 1.340 . S
C470 C471 1.407 . S
C470 H476 0.930 . S
C471 C469 1.332 . S
C471 C470 1.407 . S
C471 H473 0.929 . S
H472 C461 0.930 . S
H473 C471 0.929 . S
H474 C489 0.930 . S
H475 C496 0.929 . S
H476 C470 0.930 . S
H477 C469 0.931 . S
H478 C492 0.930 . S
H479 C459 0.930 . S
H480 C465 0.929 . S
H481 C466 0.930 . S
H482 C487 0.930 . S
H483 C462 0.930 . S
H484 C495 0.931 . S
N485 Tb456 2.617 . S
N485 C486 1.379 . S
N485 C489 1.334 . S
C486 N485 1.379 . S
C486 C488 1.416 . S
C486 C494 1.424 . S
C487 H482 0.930 . S
C487 C489 1.390 . S
C487 C490 1.339 . S
C488 C486 1.416 . S
C488 C490 1.416 . S
C488 C521 1.448 . S
C489 H474 0.930 . S
C489 N485 1.334 . S
C489 C487 1.390 . S
C490 C487 1.339 . S
C490 C488 1.416 . S
C490 H497 0.930 . S
N491 Tb456 2.572 . S
N491 C492 1.340 . S
N491 C494 1.361 . S
C492 H478 0.930 . S
C492 N491 1.340 . S
C492 C496 1.407 . S
C493 C494 1.413 . S
C493 C495 1.416 . S
C493 C522 1.427 . S
C494 C486 1.424 . S
C494 N491 1.361 . S
C494 C493 1.413 . S
C495 H484 0.931 . S
C495 C493 1.416 . S
C495 C496 1.332 . S
C496 H475 0.929 . S
C496 C492 1.407 . S
C496 C495 1.332 . S
H497 C490 0.930 . S
H498 C521 0.930 . S
H499 C522 0.929 . S
O500 Tb456 2.465 . S
O500 C520 1.264 . S
O501 Tb456 2.387 . S
O501 C512 1.264 . S
O502 Tb467 2.349 . S
O502 C512 1.243 . S
O503 Tb456 2.428 . S
O503 C520 1.256 . S
O504 Tb456 2.308 . S
O504 C519 1.266 . S
O505 Tb467 2.393 . S
O505 C519 1.248 . S
O506 Tb467 2.465 . S
O506 C531 1.264 . S
O507 Tb467 2.387 . S
O507 C523 1.264 . S
O508 Tb456 2.349 . S
O508 C523 1.243 . S
O509 Tb467 2.428 . S
O509 C531 1.256 . S
O510 Tb467 2.308 . S
O510 C530 1.266 . S
O511 Tb456 2.393 . S
O511 C530 1.248 . S
C512 O501 1.264 . S
C512 O502 1.243 . S
C513 C516 1.399 . S
C513 C518 1.383 . S
C513 C520 1.496 . S
C514 C515 1.399 . S
C514 C518 1.389 . S
C515 C514 1.399 . S
C515 C517 1.380 . S
C515 H532 0.929 . S
C516 C513 1.399 . S
C516 C517 1.392 . S
C516 H533 0.929 . S
C517 C515 1.380 . S
C517 C516 1.392 . S
C517 H534 0.929 . S
C518 C513 1.383 . S
C518 C514 1.389 . S
C518 H535 0.931 . S
C519 O504 1.266 . S
C519 O505 1.248 . S
C520 Tb456 2.802 . S
C520 O500 1.264 . S
C520 O503 1.256 . S
C520 C513 1.496 . S
C521 C488 1.448 . S
C521 H498 0.930 . S
C521 C522 1.328 . S
C522 C493 1.427 . S
C522 H499 0.929 . S
C522 C521 1.328 . S
C523 O507 1.264 . S
C523 O508 1.243 . S
C524 C527 1.399 . S
C524 C528 1.383 . S
C524 C531 1.496 . S
C525 C526 1.399 . S
C525 C528 1.389 . S
C526 C525 1.399 . S
C526 C529 1.380 . S
C526 H536 0.929 . S
C527 C524 1.399 . S
C527 C529 1.392 . S
C527 H537 0.929 . S
C528 C524 1.383 . S
C528 C525 1.389 . S
C528 H538 0.931 . S
C529 C526 1.380 . S
C529 C527 1.392 . S
C529 H539 0.929 . S
C530 O510 1.266 . S
C530 O511 1.248 . S
C531 Tb467 2.802 . S
C531 O506 1.264 . S
C531 O509 1.256 . S
C531 C524 1.496 . S
H532 C515 0.929 . S
H533 C516 0.929 . S
H534 C517 0.929 . S
H535 C518 0.931 . S
H536 C526 0.929 . S
H537 C527 0.929 . S
H538 C528 0.931 . S
H539 C529 0.929 . S
Tb540 N569 2.617 . S
Tb540 N575 2.572 . S
Tb540 O584 2.465 . S
Tb540 O585 2.387 1_455 S
Tb540 O587 2.428 . S
Tb540 O588 2.308 . S
Tb540 O592 2.349 . S
Tb540 O595 2.393 . S
Tb540 C604 2.802 . S
C541 N542 1.379 1_455 S
C541 C544 1.416 . S
C541 C548 1.424 . S
N542 C541 1.379 1_655 S
N542 C545 1.334 . S
N542 Tb551 2.617 . S
C543 C545 1.390 1_455 S
C543 C546 1.339 . S
C543 H563 0.930 1_455 S
C544 C541 1.416 . S
C544 C546 1.416 . S
C544 C550 1.448 . S
C545 N542 1.334 . S
C545 C543 1.390 1_655 S
C545 H556 0.930 . S
C546 C543 1.339 . S
C546 C544 1.416 . S
C546 H567 0.930 . S
C547 C548 1.413 . S
C547 C549 1.427 . S
C547 C553 1.416 . S
C548 C541 1.424 . S
C548 C547 1.413 . S
C548 N552 1.361 . S
C549 C547 1.427 . S
C549 C550 1.328 . S
C549 H564 0.929 . S
C550 C544 1.448 . S
C550 C549 1.328 . S
C550 H565 0.930 . S
Tb551 N542 2.617 . S
Tb551 N552 2.572 1_655 S
Tb551 O586 2.349 . S
Tb551 O589 2.393 . S
Tb551 O590 2.465 . S
Tb551 O591 2.387 1_655 S
Tb551 O593 2.428 . S
Tb551 O594 2.321 . S
Tb551 C615 2.802 . S
N552 C548 1.361 . S
N552 Tb551 2.572 1_455 S
N552 C554 1.340 . S
C553 C547 1.416 . S
C553 C555 1.332 . S
C553 H561 0.931 . S
C554 N552 1.340 . S
C554 C555 1.407 . S
C554 H560 0.930 1_455 S
C555 C553 1.332 . S
C555 C554 1.407 . S
C555 H557 0.929 . S
H556 C545 0.930 . S
H557 C555 0.929 . S
H558 C573 0.930 . S
H559 C580 0.929 . S
H560 C554 0.930 1_655 S
H561 C553 0.931 . S
H562 C576 0.930 . S
H563 C543 0.930 1_655 S
H564 C549 0.929 . S
H565 C550 0.930 . S
H566 C571 0.930 . S
H567 C546 0.930 . S
H568 C579 0.931 . S
N569 Tb540 2.617 . S
N569 C570 1.379 . S
N569 C573 1.334 . S
C570 N569 1.379 . S
C570 C572 1.416 1_455 S
C570 C578 1.426 . S
C571 H566 0.930 . S
C571 C573 1.390 . S
C571 C574 1.339 1_455 S
C572 C570 1.416 1_655 S
C572 C574 1.416 . S
C572 C605 1.448 . S
C573 H558 0.930 . S
C573 N569 1.334 . S
C573 C571 1.390 . S
C574 C571 1.339 1_655 S
C574 C572 1.416 . S
C574 H581 0.930 . S
N575 Tb540 2.572 . S
N575 C576 1.340 . S
N575 C578 1.369 . S
C576 H562 0.930 . S
C576 N575 1.340 . S
C576 C580 1.407 1_455 S
C577 C578 1.403 1_655 S
C577 C579 1.416 . S
C577 C606 1.427 . S
C578 C570 1.426 . S
C578 N575 1.369 . S
C578 C577 1.403 1_455 S
C579 H568 0.931 . S
C579 C577 1.416 . S
C579 C580 1.332 . S
C580 H559 0.929 . S
C580 C576 1.407 1_655 S
C580 C579 1.332 . S
H581 C574 0.930 . S
H582 C605 0.930 . S
H583 C606 0.929 . S
O584 Tb540 2.465 . S
O584 C604 1.264 . S
O585 Tb540 2.387 1_655 S
O585 C596 1.264 . S
O586 Tb551 2.349 . S
O586 C596 1.243 . S
O587 Tb540 2.428 . S
O587 C604 1.256 . S
O588 Tb540 2.308 . S
O588 C603 1.266 . S
O589 Tb551 2.393 . S
O589 C603 1.248 1_655 S
O590 Tb551 2.465 . S
O590 C615 1.264 . S
O591 Tb551 2.387 1_455 S
O591 C607 1.264 . S
O592 Tb540 2.349 . S
O592 C607 1.243 . S
O593 Tb551 2.428 . S
O593 C615 1.256 . S
O594 Tb551 2.321 . S
O594 C614 1.257 1_655 S
O595 Tb540 2.393 . S
O595 C614 1.248 . S
C596 O585 1.264 . S
C596 O586 1.243 . S
C597 C600 1.399 . S
C597 C602 1.383 . S
C597 C604 1.496 . S
C598 C599 1.399 . S
C598 C602 1.389 . S
C599 C598 1.399 . S
C599 C601 1.380 . S
C599 H616 0.929 . S
C600 C597 1.399 . S
C600 C601 1.392 . S
C600 H617 0.929 . S
C601 C599 1.380 . S
C601 C600 1.392 . S
C601 H618 0.929 . S
C602 C597 1.383 . S
C602 C598 1.389 . S
C602 H619 0.931 . S
C603 O588 1.266 . S
C603 O589 1.248 1_455 S
C604 Tb540 2.802 . S
C604 O584 1.264 . S
C604 O587 1.256 . S
C604 C597 1.496 . S
C605 C572 1.448 . S
C605 H582 0.930 . S
C605 C606 1.328 . S
C606 C577 1.427 . S
C606 H583 0.929 . S
C606 C605 1.328 . S
C607 O591 1.264 . S
C607 O592 1.243 . S
C608 C611 1.399 . S
C608 C612 1.383 . S
C608 C615 1.496 . S
C609 C610 1.399 . S
C609 C612 1.389 . S
C610 C609 1.399 . S
C610 C613 1.380 . S
C610 H620 0.929 . S
C611 C608 1.399 . S
C611 C613 1.392 . S
C611 H621 0.929 . S
C612 C608 1.383 . S
C612 C609 1.389 . S
C612 H622 0.931 . S
C613 C610 1.380 . S
C613 C611 1.392 . S
C613 H623 0.929 . S
C614 O594 1.257 1_455 S
C614 O595 1.248 . S
C615 Tb551 2.802 . S
C615 O590 1.264 . S
C615 O593 1.256 . S
C615 C608 1.496 . S
H616 C599 0.929 . S
H617 C600 0.929 . S
H618 C601 0.929 . S
H619 C602 0.931 . S
H620 C610 0.929 . S
H621 C611 0.929 . S
H622 C612 0.931 . S
H623 C613 0.929 . S
H624 C636 0.930 . S
H625 C638 0.930 . S
H626 C639 0.930 1_565 S
H627 C643 0.959 . S
H628 C643 0.959 . S
H629 C643 0.961 . S
H630 C644 0.960 . S
H631 C644 0.961 . S
H632 C644 0.959 . S
H633 C647 0.929 1_565 S
H634 C648 0.931 1_565 S
H635 C650 0.930 . S
C636 H624 0.930 . S
C636 C637 1.399 . S
C636 C641 1.399 . S
C637 C636 1.399 . S
C637 C638 1.376 . S
C638 H625 0.930 . S
C638 C637 1.376 . S
C638 C639 1.388 . S
C639 H626 0.930 1_545 S
C639 C638 1.388 . S
C639 C640 1.390 . S
C640 C639 1.390 . S
C640 C641 1.394 . S
C640 C646 1.465 . S
C641 C636 1.399 . S
C641 C640 1.394 . S
C641 C642 1.516 . S
C642 C641 1.516 . S
C642 C643 1.502 . S
C642 C644 1.561 . S
C642 C645 1.526 . S
C643 H627 0.959 . S
C643 H628 0.959 . S
C643 H629 0.961 . S
C643 C642 1.502 . S
C644 H630 0.960 . S
C644 H631 0.961 . S
C644 H632 0.959 . S
C644 C642 1.561 . S
C645 C642 1.526 . S
C645 C646 1.396 . S
C645 C650 1.390 . S
C646 C640 1.465 . S
C646 C645 1.396 . S
C646 C647 1.399 . S
C647 H633 0.929 1_545 S
C647 C646 1.399 . S
C647 C648 1.385 . S
C648 H634 0.931 1_545 S
C648 C647 1.385 . S
C648 C649 1.389 . S
C649 C648 1.389 . S
C649 C650 1.387 . S
C650 H635 0.930 . S
C650 C645 1.390 . S
C650 C649 1.387 . S
H651 C663 0.930 . S
H652 C665 0.930 . S
H653 C666 0.930 . S
H654 C670 0.959 . S
H655 C670 0.959 . S
H656 C670 0.961 . S
H657 C671 0.960 . S
H658 C671 0.961 . S
H659 C671 0.959 . S
H660 C674 0.929 . S
H661 C675 0.931 . S
H662 C677 0.930 . S
C663 H651 0.930 . S
C663 C664 1.399 . S
C663 C668 1.399 . S
C664 C663 1.399 . S
C664 C665 1.376 . S
C665 H652 0.930 . S
C665 C664 1.376 . S
C665 C666 1.388 . S
C666 H653 0.930 . S
C666 C665 1.388 . S
C666 C667 1.390 . S
C667 C666 1.390 . S
C667 C668 1.394 . S
C667 C673 1.465 . S
C668 C663 1.399 . S
C668 C667 1.394 . S
C668 C669 1.516 . S
C669 C668 1.516 . S
C669 C670 1.502 . S
C669 C671 1.561 . S
C669 C672 1.526 . S
C670 H654 0.959 . S
C670 H655 0.959 . S
C670 H656 0.961 . S
C670 C669 1.502 . S
C671 H657 0.960 . S
C671 H658 0.961 . S
C671 H659 0.959 . S
C671 C669 1.561 . S
C672 C669 1.526 . S
C672 C673 1.396 . S
C672 C677 1.390 . S
C673 C667 1.465 . S
C673 C672 1.396 . S
C673 C674 1.399 . S
C674 H660 0.929 . S
C674 C673 1.399 . S
C674 C675 1.385 . S
C675 H661 0.931 . S
C675 C674 1.385 . S
C675 C676 1.389 . S
C676 C675 1.389 . S
C676 C677 1.387 . S
C677 H662 0.930 . S
C677 C672 1.390 . S
C677 C676 1.387 . S
H678 C690 0.930 . S
H679 C692 0.930 . S
H680 C693 0.930 . S
H681 C697 0.959 . S
H682 C697 0.959 . S
H683 C697 0.961 . S
H684 C698 0.960 . S
H685 C698 0.961 . S
H686 C698 0.959 . S
H687 C701 0.929 . S
H688 C702 0.931 . S
H689 C704 0.930 . S
C690 H678 0.930 . S
C690 C691 1.399 . S
C690 C695 1.399 . S
C691 C690 1.399 . S
C691 C692 1.376 . S
C692 H679 0.930 . S
C692 C691 1.376 . S
C692 C693 1.388 . S
C693 H680 0.930 . S
C693 C692 1.388 . S
C693 C694 1.390 . S
C694 C693 1.390 . S
C694 C695 1.394 . S
C694 C700 1.465 . S
C695 C690 1.399 . S
C695 C694 1.394 . S
C695 C696 1.516 . S
C696 C695 1.516 . S
C696 C697 1.502 . S
C696 C698 1.561 . S
C696 C699 1.526 . S
C697 H681 0.959 . S
C697 H682 0.959 . S
C697 H683 0.961 . S
C697 C696 1.502 . S
C698 H684 0.960 . S
C698 H685 0.961 . S
C698 H686 0.959 . S
C698 C696 1.561 . S
C699 C696 1.526 . S
C699 C700 1.396 . S
C699 C704 1.390 . S
C700 C694 1.465 . S
C700 C699 1.396 . S
C700 C701 1.399 . S
C701 H687 0.929 . S
C701 C700 1.399 . S
C701 C702 1.385 . S
C702 H688 0.931 . S
C702 C701 1.385 . S
C702 C703 1.389 . S
C703 C702 1.389 . S
C703 C704 1.387 . S
C704 H689 0.930 . S
C704 C699 1.390 . S
C704 C703 1.387 . S
H705 C717 0.930 . S
H706 C719 0.930 . S
H707 C720 0.930 1_655 S
H708 C724 0.959 . S
H709 C724 0.959 . S
H710 C724 0.961 . S
H711 C725 0.960 . S
H712 C725 0.961 . S
H713 C725 0.959 . S
H714 C728 0.929 . S
H715 C729 0.931 . S
H716 C731 0.930 . S
C717 H705 0.930 . S
C717 C718 1.399 . S
C717 C722 1.399 . S
C718 C717 1.399 . S
C718 C719 1.376 . S
C719 H706 0.930 . S
C719 C718 1.376 . S
C719 C720 1.388 . S
C720 H707 0.930 1_455 S
C720 C719 1.388 . S
C720 C721 1.390 . S
C721 C720 1.390 . S
C721 C722 1.394 . S
C721 C727 1.465 . S
C722 C717 1.399 . S
C722 C721 1.394 . S
C722 C723 1.516 . S
C723 C722 1.516 . S
C723 C724 1.502 . S
C723 C725 1.561 . S
C723 C726 1.526 . S
C724 H708 0.959 . S
C724 H709 0.959 . S
C724 H710 0.961 . S
C724 C723 1.502 . S
C725 H711 0.960 . S
C725 H712 0.961 . S
C725 H713 0.959 . S
C725 C723 1.561 . S
C726 C723 1.526 . S
C726 C727 1.396 . S
C726 C731 1.390 . S
C727 C721 1.465 . S
C727 C726 1.396 . S
C727 C728 1.399 1_455 S
C728 H714 0.929 . S
C728 C727 1.399 1_655 S
C728 C729 1.385 . S
C729 H715 0.931 . S
C729 C728 1.385 . S
C729 C730 1.389 1_655 S
C730 C729 1.389 1_455 S
C730 C731 1.387 . S
C731 H716 0.930 . S
C731 C726 1.390 . S
C731 C730 1.387 . S
H732 C744 0.930 . S
H733 C746 0.930 . S
H734 C747 0.930 1_546 S
H735 C751 0.959 . S
H736 C751 0.959 . S
H737 C751 0.961 1_554 S
H738 C752 0.960 . S
H739 C752 0.961 . S
H740 C752 0.959 . S
H741 C755 0.929 . S
H742 C756 0.931 . S
H743 C758 0.930 . S
C744 H732 0.930 . S
C744 C745 1.399 . S
C744 C749 1.399 . S
C745 C744 1.399 . S
C745 C746 1.376 . S
C746 H733 0.930 . S
C746 C745 1.376 . S
C746 C747 1.388 . S
C747 H734 0.930 1_564 S
C747 C746 1.388 . S
C747 C748 1.390 1_554 S
C748 C747 1.390 1_556 S
C748 C749 1.394 1_556 S
C748 C754 1.465 . S
C749 C744 1.399 . S
C749 C748 1.394 1_554 S
C749 C750 1.516 1_554 S
C750 C749 1.516 1_556 S
C750 C751 1.502 . S
C750 C752 1.561 . S
C750 C753 1.526 . S
C751 H735 0.959 . S
C751 H736 0.959 . S
C751 H737 0.961 1_556 S
C751 C750 1.502 . S
C752 H738 0.960 . S
C752 H739 0.961 . S
C752 H740 0.959 . S
C752 C750 1.561 . S
C753 C750 1.526 . S
C753 C754 1.396 . S
C753 C758 1.390 . S
C754 C748 1.465 . S
C754 C753 1.396 . S
C754 C755 1.399 1_565 S
C755 H741 0.929 . S
C755 C754 1.399 1_545 S
C755 C756 1.385 . S
C756 H742 0.931 . S
C756 C755 1.385 . S
C756 C757 1.389 1_545 S
C757 C756 1.389 1_565 S
C757 C758 1.387 . S
C758 H743 0.930 . S
C758 C753 1.390 . S
C758 C757 1.387 . S
H759 C771 0.930 . S
H760 C773 0.930 . S
H761 C774 0.930 . S
H762 C778 0.959 . S
H763 C778 0.959 . S
H764 C778 0.961 . S
H765 C779 0.960 . S
H766 C779 0.961 . S
H767 C779 0.959 . S
H768 C782 0.929 . S
H769 C783 0.931 . S
H770 C785 0.930 . S
C771 H759 0.930 . S
C771 C772 1.399 . S
C771 C776 1.399 1_554 S
C772 C771 1.399 . S
C772 C773 1.376 . S
C773 H760 0.930 . S
C773 C772 1.376 . S
C773 C774 1.388 . S
C774 H761 0.930 . S
C774 C773 1.388 . S
C774 C775 1.390 1_554 S
C775 C774 1.390 1_556 S
C775 C776 1.394 . S
C775 C781 1.465 . S
C776 C771 1.399 1_556 S
C776 C775 1.394 . S
C776 C777 1.516 . S
C777 C776 1.516 . S
C777 C778 1.502 . S
C777 C779 1.561 . S
C777 C780 1.526 . S
C778 H762 0.959 . S
C778 H763 0.959 . S
C778 H764 0.961 . S
C778 C777 1.502 . S
C779 H765 0.960 . S
C779 H766 0.961 . S
C779 H767 0.959 . S
C779 C777 1.561 . S
C780 C777 1.526 . S
C780 C781 1.396 . S
C780 C785 1.390 . S
C781 C775 1.465 . S
C781 C780 1.396 . S
C781 C782 1.399 . S
C782 H768 0.929 . S
C782 C781 1.399 . S
C782 C783 1.385 . S
C783 H769 0.931 . S
C783 C782 1.385 . S
C783 C784 1.389 . S
C784 C783 1.389 . S
C784 C785 1.387 . S
C785 H770 0.930 . S
C785 C780 1.390 . S
C785 C784 1.387 . S
H786 C798 0.930 . S
H787 C800 0.930 . S
H788 C801 0.930 . S
H789 C805 0.959 . S
H790 C805 0.959 . S
H791 C805 0.961 . S
H792 C806 0.960 . S
H793 C806 0.961 . S
H794 C806 0.959 . S
H795 C809 0.929 . S
H796 C810 0.931 . S
H797 C812 0.930 . S
C798 H786 0.930 . S
C798 C799 1.399 . S
C798 C803 1.399 1_554 S
C799 C798 1.399 . S
C799 C800 1.376 . S
C800 H787 0.930 . S
C800 C799 1.376 . S
C800 C801 1.388 . S
C801 H788 0.930 . S
C801 C800 1.388 . S
C801 C802 1.390 1_554 S
C802 C801 1.390 1_556 S
C802 C803 1.394 . S
C802 C808 1.465 . S
C803 C798 1.399 1_556 S
C803 C802 1.394 . S
C803 C804 1.516 . S
C804 C803 1.516 . S
C804 C805 1.502 . S
C804 C806 1.561 . S
C804 C807 1.526 . S
C805 H789 0.959 . S
C805 H790 0.959 . S
C805 H791 0.961 . S
C805 C804 1.502 . S
C806 H792 0.960 . S
C806 H793 0.961 . S
C806 H794 0.959 . S
C806 C804 1.561 . S
C807 C804 1.526 . S
C807 C808 1.396 . S
C807 C812 1.390 . S
C808 C802 1.465 . S
C808 C807 1.396 . S
C808 C809 1.399 . S
C809 H795 0.929 . S
C809 C808 1.399 . S
C809 C810 1.385 . S
C810 H796 0.931 . S
C810 C809 1.385 . S
C810 C811 1.389 . S
C811 C810 1.389 . S
C811 C812 1.387 . S
C812 H797 0.930 . S
C812 C807 1.390 . S
C812 C811 1.387 . S
H813 C825 0.930 . S
H814 C827 0.930 . S
H815 C828 0.930 1_455 S
H816 C832 0.959 . S
H817 C832 0.959 . S
H818 C832 0.961 . S
H819 C833 0.960 . S
H820 C833 0.961 . S
H821 C833 0.959 1_455 S
H822 C836 0.929 . S
H823 C837 0.931 . S
H824 C839 0.930 . S
C825 H813 0.930 . S
C825 C826 1.399 . S
C825 C830 1.399 1_554 S
C826 C825 1.399 . S
C826 C827 1.376 . S
C827 H814 0.930 . S
C827 C826 1.376 . S
C827 C828 1.388 . S
C828 H815 0.930 1_655 S
C828 C827 1.388 . S
C828 C829 1.390 1_554 S
C829 C828 1.390 1_556 S
C829 C830 1.394 . S
C829 C835 1.465 . S
C830 C825 1.399 1_556 S
C830 C829 1.394 . S
C830 C831 1.516 . S
C831 C830 1.516 . S
C831 C832 1.502 . S
C831 C833 1.561 . S
C831 C834 1.526 . S
C832 H816 0.959 . S
C832 H817 0.959 . S
C832 H818 0.961 . S
C832 C831 1.502 . S
C833 H819 0.960 . S
C833 H820 0.961 . S
C833 H821 0.959 1_655 S
C833 C831 1.561 . S
C834 C831 1.526 . S
C834 C835 1.396 . S
C834 C839 1.390 . S
C835 C829 1.465 . S
C835 C834 1.396 . S
C835 C836 1.399 1_655 S
C836 H822 0.929 . S
C836 C835 1.399 1_455 S
C836 C837 1.385 . S
C837 H823 0.931 . S
C837 C836 1.385 . S
C837 C838 1.389 1_455 S
C838 C837 1.389 1_655 S
C838 C839 1.387 . S
C839 H824 0.930 . S
C839 C834 1.390 . S
C839 C838 1.387 . S
H840 C852 0.930 . S
H841 C854 0.930 . S
H842 C855 0.930 1_655 S
H843 C859 0.959 . S
H844 C859 0.959 . S
H845 C859 0.961 . S
H846 C860 0.960 . S
H847 C860 0.961 . S
H848 C860 0.959 . S
H849 C863 0.929 . S
H850 C864 0.931 . S
H851 C866 0.930 . S
C852 H840 0.930 . S
C852 C853 1.399 . S
C852 C857 1.399 . S
C853 C852 1.399 . S
C853 C854 1.376 . S
C854 H841 0.930 . S
C854 C853 1.376 . S
C854 C855 1.388 . S
C855 H842 0.930 1_455 S
C855 C854 1.388 . S
C855 C856 1.390 . S
C856 C855 1.390 . S
C856 C857 1.394 . S
C856 C862 1.465 . S
C857 C852 1.399 . S
C857 C856 1.394 . S
C857 C858 1.516 . S
C858 C857 1.516 . S
C858 C859 1.502 . S
C858 C860 1.561 . S
C858 C861 1.526 . S
C859 H843 0.959 . S
C859 H844 0.959 . S
C859 H845 0.961 . S
C859 C858 1.502 . S
C860 H846 0.960 . S
C860 H847 0.961 . S
C860 H848 0.959 . S
C860 C858 1.561 . S
C861 C858 1.526 . S
C861 C862 1.396 . S
C861 C866 1.390 . S
C862 C856 1.465 . S
C862 C861 1.396 . S
C862 C863 1.399 1_455 S
C863 H849 0.929 . S
C863 C862 1.399 1_655 S
C863 C864 1.385 . S
C864 H850 0.931 . S
C864 C863 1.385 . S
C864 C865 1.389 . S
C865 C864 1.389 . S
C865 C866 1.387 1_655 S
C866 H851 0.930 . S
C866 C861 1.390 . S
C866 C865 1.387 1_455 S
H867 C879 0.930 . S
H868 C881 0.930 . S
H869 C882 0.930 1_565 S
H870 C886 0.959 . S
H871 C886 0.959 . S
H872 C886 0.961 . S
H873 C887 0.960 . S
H874 C887 0.961 . S
H875 C887 0.959 . S
H876 C890 0.929 . S
H877 C891 0.931 . S
H878 C893 0.930 . S
C879 H867 0.930 . S
C879 C880 1.399 . S
C879 C884 1.399 . S
C880 C879 1.399 . S
C880 C881 1.376 . S
C881 H868 0.930 . S
C881 C880 1.376 . S
C881 C882 1.388 . S
C882 H869 0.930 1_545 S
C882 C881 1.388 . S
C882 C883 1.390 . S
C883 C882 1.390 . S
C883 C884 1.394 . S
C883 C889 1.465 . S
C884 C879 1.399 . S
C884 C883 1.394 . S
C884 C885 1.516 . S
C885 C884 1.516 . S
C885 C886 1.502 . S
C885 C887 1.561 . S
C885 C888 1.526 . S
C886 H870 0.959 . S
C886 H871 0.959 . S
C886 H872 0.961 . S
C886 C885 1.502 . S
C887 H873 0.960 . S
C887 H874 0.961 . S
C887 H875 0.959 . S
C887 C885 1.561 . S
C888 C885 1.526 . S
C888 C889 1.396 . S
C888 C893 1.390 . S
C889 C883 1.465 . S
C889 C888 1.396 . S
C889 C890 1.399 1_545 S
C890 H876 0.929 . S
C890 C889 1.399 1_565 S
C890 C891 1.385 . S
C891 H877 0.931 . S
C891 C890 1.385 . S
C891 C892 1.356 1_565 S
C892 C891 1.356 1_545 S
C892 C893 1.433 . S
C893 H878 0.930 . S
C893 C888 1.390 . S
C893 C892 1.433 . S
H894 C906 0.930 . S
H895 C908 0.930 . S
H896 C909 0.930 . S
H897 C913 0.959 . S
H898 C913 0.959 . S
H899 C913 0.961 . S
H900 C914 0.960 . S
H901 C914 0.961 . S
H902 C914 0.959 . S
H903 C917 0.929 . S
H904 C918 0.931 . S
H905 C920 0.930 . S
C906 H894 0.930 . S
C906 C907 1.399 . S
C906 C911 1.399 . S
C907 C906 1.399 . S
C907 C908 1.376 . S
C908 H895 0.930 . S
C908 C907 1.376 . S
C908 C909 1.388 . S
C909 H896 0.930 . S
C909 C908 1.388 . S
C909 C910 1.390 . S
C910 C909 1.390 . S
C910 C911 1.394 . S
C910 C916 1.465 . S
C911 C906 1.399 . S
C911 C910 1.394 . S
C911 C912 1.516 . S
C912 C911 1.516 . S
C912 C913 1.502 . S
C912 C914 1.561 . S
C912 C915 1.526 . S
C913 H897 0.959 . S
C913 H898 0.959 . S
C913 H899 0.961 . S
C913 C912 1.502 . S
C914 H900 0.960 . S
C914 H901 0.961 . S
C914 H902 0.959 . S
C914 C912 1.561 . S
C915 C912 1.526 . S
C915 C916 1.396 . S
C915 C920 1.390 . S
C916 C910 1.465 . S
C916 C915 1.396 . S
C916 C917 1.399 . S
C917 H903 0.929 . S
C917 C916 1.399 . S
C917 C918 1.385 . S
C918 H904 0.931 . S
C918 C917 1.385 . S
C918 C919 1.389 . S
C919 C918 1.389 . S
C919 C920 1.387 . S
C920 H905 0.930 . S
C920 C915 1.390 . S
C920 C919 1.387 . S
H921 C933 0.930 . S
H922 C935 0.930 . S
H923 C936 0.930 . S
H924 C940 0.959 . S
H925 C940 0.959 . S
H926 C940 0.961 . S
H927 C941 0.960 . S
H928 C941 0.961 . S
H929 C941 0.959 . S
H930 C944 0.929 . S
H931 C945 0.931 . S
H932 C947 0.930 . S
C933 H921 0.930 . S
C933 C934 1.399 . S
C933 C938 1.399 . S
C934 C933 1.399 . S
C934 C935 1.376 . S
C935 H922 0.930 . S
C935 C934 1.376 . S
C935 C936 1.388 . S
C936 H923 0.930 . S
C936 C935 1.388 . S
C936 C937 1.390 . S
C937 C936 1.390 . S
C937 C938 1.394 . S
C937 C943 1.465 . S
C938 C933 1.399 . S
C938 C937 1.394 . S
C938 C939 1.516 . S
C939 C938 1.516 . S
C939 C940 1.502 . S
C939 C941 1.561 . S
C939 C942 1.526 . S
C940 H924 0.959 . S
C940 H925 0.959 . S
C940 H926 0.961 . S
C940 C939 1.502 . S
C941 H927 0.960 . S
C941 H928 0.961 . S
C941 H929 0.959 . S
C941 C939 1.561 . S
C942 C939 1.526 . S
C942 C943 1.396 . S
C942 C947 1.390 . S
C943 C937 1.465 . S
C943 C942 1.396 . S
C943 C944 1.399 . S
C944 H930 0.929 . S
C944 C943 1.399 . S
C944 C945 1.385 . S
C945 H931 0.931 . S
C945 C944 1.385 . S
C945 C946 1.389 . S
C946 C945 1.389 . S
C946 C947 1.387 . S
C947 H932 0.930 . S
C947 C942 1.390 . S
C947 C946 1.387 . S
H948 C960 0.930 . S
H949 C962 0.930 . S
H950 C963 0.930 . S
H951 C967 0.959 . S
H952 C967 0.959 1_455 S
H953 C967 0.961 . S
H954 C968 0.960 . S
H955 C968 0.961 . S
H956 C968 0.959 1_556 S
H957 C971 0.929 . S
H958 C972 0.931 . S
H959 C974 0.930 . S
C960 H948 0.930 . S
C960 C961 1.399 . S
C960 C965 1.399 . S
C961 C960 1.399 . S
C961 C962 1.376 1_554 S
C962 H949 0.930 . S
C962 C961 1.376 1_556 S
C962 C963 1.388 . S
C963 H950 0.930 . S
C963 C962 1.388 . S
C963 C964 1.390 . S
C964 C963 1.390 . S
C964 C965 1.394 1_556 S
C964 C970 1.465 . S
C965 C960 1.399 . S
C965 C964 1.394 1_554 S
C965 C966 1.516 1_655 S
C966 C965 1.516 1_455 S
C966 C967 1.502 1_455 S
C966 C968 1.561 . S
C966 C969 1.526 1_554 S
C967 H951 0.959 . S
C967 H952 0.959 1_655 S
C967 H953 0.961 . S
C967 C966 1.502 1_655 S
C968 H954 0.960 . S
C968 H955 0.961 . S
C968 H956 0.959 1_554 S
C968 C966 1.561 . S
C969 C966 1.526 1_556 S
C969 C970 1.396 1_455 S
C969 C974 1.390 . S
C970 C964 1.465 . S
C970 C969 1.396 1_655 S
C970 C971 1.399 . S
C971 H957 0.929 . S
C971 C970 1.399 . S
C971 C972 1.385 . S
C972 H958 0.931 . S
C972 C971 1.385 . S
C972 C973 1.389 1_655 S
C973 C972 1.389 1_455 S
C973 C974 1.387 . S
C974 H959 0.930 . S
C974 C969 1.390 . S
C974 C973 1.387 . S
H975 C987 0.930 . S
H976 C989 0.930 . S
H977 C990 0.930 . S
H978 C994 0.959 1_565 S
H979 C994 0.959 . S
H980 C994 0.961 . S
H981 C995 0.960 . S
H982 C995 0.961 . S
H983 C995 0.959 1_556 S
H984 C998 0.929 . S
H985 C999 0.933 . S
H986 C1001 0.930 . S
C987 H975 0.930 . S
C987 C988 1.399 . S
C987 C992 1.399 . S
C988 C987 1.399 . S
C988 C989 1.376 1_554 S
C989 H976 0.930 . S
C989 C988 1.376 1_556 S
C989 C990 1.388 . S
C990 H977 0.930 . S
C990 C989 1.388 . S
C990 C991 1.390 . S
C991 C990 1.390 . S
C991 C992 1.394 1_556 S
C991 C997 1.465 . S
C992 C987 1.399 . S
C992 C991 1.394 1_554 S
C992 C993 1.516 1_565 S
C993 C992 1.516 1_545 S
C993 C994 1.502 . S
C993 C995 1.561 . S
C993 C996 1.526 1_554 S
C994 H978 0.959 1_545 S
C994 H979 0.959 . S
C994 H980 0.961 . S
C994 C993 1.502 . S
C995 H981 0.960 . S
C995 H982 0.961 . S
C995 H983 0.959 1_554 S
C995 C993 1.561 . S
C996 C993 1.526 1_556 S
C996 C997 1.396 1_545 S
C996 C1001 1.390 . S
C997 C991 1.465 . S
C997 C996 1.396 1_565 S
C997 C998 1.399 . S
C998 H984 0.929 . S
C998 C997 1.399 . S
C998 C999 1.392 . S
C999 H985 0.933 . S
C999 C998 1.392 . S
C999 C1000 1.380 1_565 S
C1000 C999 1.380 1_545 S
C1000 C1001 1.387 . S
C1001 H986 0.930 . S
C1001 C996 1.390 . S
C1001 C1000 1.387 . S
H1002 C1014 0.930 . S
H1003 C1016 0.930 . S
H1004 C1017 0.930 . S
H1005 C1021 0.959 . S
H1006 C1021 0.959 . S
H1007 C1021 0.961 . S
H1008 C1022 0.960 . S
H1009 C1022 0.961 . S
H1010 C1022 0.959 . S
H1011 C1025 0.929 . S
H1012 C1026 0.931 . S
H1013 C1028 0.930 . S
C1014 H1002 0.930 . S
C1014 C1015 1.399 . S
C1014 C1019 1.399 1_554 S
C1015 C1014 1.399 . S
C1015 C1016 1.376 . S
C1016 H1003 0.930 . S
C1016 C1015 1.376 . S
C1016 C1017 1.388 1_554 S
C1017 H1004 0.930 . S
C1017 C1016 1.388 1_556 S
C1017 C1018 1.390 . S
C1018 C1017 1.390 . S
C1018 C1019 1.394 . S
C1018 C1024 1.465 . S
C1019 C1014 1.399 1_556 S
C1019 C1018 1.394 . S
C1019 C1020 1.516 . S
C1020 C1019 1.516 . S
C1020 C1021 1.502 1_556 S
C1020 C1022 1.561 . S
C1020 C1023 1.526 . S
C1021 H1005 0.959 . S
C1021 H1006 0.959 . S
C1021 H1007 0.961 . S
C1021 C1020 1.502 1_554 S
C1022 H1008 0.960 . S
C1022 H1009 0.961 . S
C1022 H1010 0.959 . S
C1022 C1020 1.561 . S
C1023 C1020 1.526 . S
C1023 C1024 1.396 . S
C1023 C1028 1.390 . S
C1024 C1018 1.465 . S
C1024 C1023 1.396 . S
C1024 C1025 1.399 . S
C1025 H1011 0.929 . S
C1025 C1024 1.399 . S
C1025 C1026 1.385 . S
C1026 H1012 0.931 . S
C1026 C1025 1.385 . S
C1026 C1027 1.389 . S
C1027 C1026 1.389 . S
C1027 C1028 1.387 . S
C1028 H1013 0.930 . S
C1028 C1023 1.390 . S
C1028 C1027 1.387 . S
H1029 C1041 0.930 . S
H1030 C1043 0.930 . S
H1031 C1044 0.930 . S
H1032 C1048 0.959 . S
H1033 C1048 0.959 . S
H1034 C1048 0.961 . S
H1035 C1049 0.960 . S
H1036 C1049 0.961 . S
H1037 C1049 0.959 . S
H1038 C1052 0.929 . S
H1039 C1053 0.931 . S
H1040 C1055 0.930 . S
C1041 H1029 0.930 . S
C1041 C1042 1.399 . S
C1041 C1046 1.399 1_554 S
C1042 C1041 1.399 . S
C1042 C1043 1.376 . S
C1043 H1030 0.930 . S
C1043 C1042 1.376 . S
C1043 C1044 1.388 1_554 S
C1044 H1031 0.930 . S
C1044 C1043 1.388 1_556 S
C1044 C1045 1.390 . S
C1045 C1044 1.390 . S
C1045 C1046 1.394 . S
C1045 C1051 1.465 . S
C1046 C1041 1.399 1_556 S
C1046 C1045 1.394 . S
C1046 C1047 1.516 . S
C1047 C1046 1.516 . S
C1047 C1048 1.502 . S
C1047 C1049 1.561 1_556 S
C1047 C1050 1.526 . S
C1048 H1032 0.959 . S
C1048 H1033 0.959 . S
C1048 H1034 0.961 . S
C1048 C1047 1.502 . S
C1049 H1035 0.960 . S
C1049 H1036 0.961 . S
C1049 H1037 0.959 . S
C1049 C1047 1.561 1_554 S
C1050 C1047 1.526 . S
C1050 C1051 1.396 . S
C1050 C1055 1.390 . S
C1051 C1045 1.465 . S
C1051 C1050 1.396 . S
C1051 C1052 1.399 . S
C1052 H1038 0.929 . S
C1052 C1051 1.399 . S
C1052 C1053 1.385 . S
C1053 H1039 0.931 . S
C1053 C1052 1.385 . S
C1053 C1054 1.389 . S
C1054 C1053 1.389 . S
C1054 C1055 1.387 . S
C1055 H1040 0.930 . S
C1055 C1050 1.390 . S
C1055 C1054 1.387 . S
H1056 C1068 0.930 . S
H1057 C1070 0.930 . S
H1058 C1071 0.930 . S
H1059 C1075 0.959 . S
H1060 C1075 0.959 . S
H1061 C1075 0.961 . S
H1062 C1076 0.960 . S
H1063 C1076 0.961 . S
H1064 C1076 0.959 . S
H1065 C1079 0.929 1_655 S
H1066 C1080 0.936 . S
H1067 C1082 0.930 . S
C1068 H1056 0.930 . S
C1068 C1069 1.399 . S
C1068 C1073 1.399 . S
C1069 C1068 1.399 . S
C1069 C1070 1.376 . S
C1070 H1057 0.930 . S
C1070 C1069 1.376 . S
C1070 C1071 1.388 . S
C1071 H1058 0.930 . S
C1071 C1070 1.388 . S
C1071 C1072 1.390 . S
C1072 C1071 1.390 . S
C1072 C1073 1.394 . S
C1072 C1078 1.465 . S
C1073 C1068 1.399 . S
C1073 C1072 1.394 . S
C1073 C1074 1.516 . S
C1074 C1073 1.516 . S
C1074 C1075 1.502 . S
C1074 C1076 1.561 . S
C1074 C1077 1.526 . S
C1075 H1059 0.959 . S
C1075 H1060 0.959 . S
C1075 H1061 0.961 . S
C1075 C1074 1.502 . S
C1076 H1062 0.960 . S
C1076 H1063 0.961 . S
C1076 H1064 0.959 . S
C1076 C1074 1.561 . S
C1077 C1074 1.526 . S
C1077 C1078 1.396 . S
C1077 C1082 1.390 . S
C1078 C1072 1.465 . S
C1078 C1077 1.396 . S
C1078 C1079 1.399 . S
C1079 H1065 0.929 1_455 S
C1079 C1078 1.399 . S
C1079 C1080 1.385 . S
C1080 H1066 0.936 . S
C1080 C1079 1.385 . S
C1080 C1081 1.389 . S
C1081 C1080 1.389 . S
C1081 C1082 1.387 . S
C1082 H1067 0.930 . S
C1082 C1077 1.390 . S
C1082 C1081 1.387 . S
H1083 C1095 0.930 . S
H1084 C1097 0.930 . S
H1085 C1098 0.930 . S
H1086 C1102 0.959 . S
H1087 C1102 0.959 . S
H1088 C1102 0.961 . S
H1089 C1103 0.960 . S
H1090 C1103 0.961 . S
H1091 C1103 0.959 . S
H1092 C1106 0.929 . S
H1093 C1107 0.931 . S
H1094 C1109 0.930 . S
C1095 H1083 0.930 . S
C1095 C1096 1.399 . S
C1095 C1100 1.399 . S
C1096 C1095 1.399 . S
C1096 C1097 1.376 . S
C1097 H1084 0.930 . S
C1097 C1096 1.376 . S
C1097 C1098 1.388 . S
C1098 H1085 0.930 . S
C1098 C1097 1.388 . S
C1098 C1099 1.390 . S
C1099 C1098 1.390 . S
C1099 C1100 1.394 . S
C1099 C1105 1.465 . S
C1100 C1095 1.399 . S
C1100 C1099 1.394 . S
C1100 C1101 1.516 . S
C1101 C1100 1.516 . S
C1101 C1102 1.502 . S
C1101 C1103 1.561 . S
C1101 C1104 1.526 . S
C1102 H1086 0.959 . S
C1102 H1087 0.959 . S
C1102 H1088 0.961 . S
C1102 C1101 1.502 . S
C1103 H1089 0.960 . S
C1103 H1090 0.961 . S
C1103 H1091 0.959 . S
C1103 C1101 1.561 . S
C1104 C1101 1.526 . S
C1104 C1105 1.396 . S
C1104 C1109 1.390 . S
C1105 C1099 1.465 . S
C1105 C1104 1.396 . S
C1105 C1106 1.399 . S
C1106 H1092 0.929 . S
C1106 C1105 1.399 . S
C1106 C1107 1.385 . S
C1107 H1093 0.931 . S
C1107 C1106 1.385 . S
C1107 C1108 1.389 . S
C1108 C1107 1.389 . S
C1108 C1109 1.387 . S
C1109 H1094 0.930 . S
C1109 C1104 1.390 . S
C1109 C1108 1.387 . S
H1110 C1122 0.930 . S
H1111 C1124 0.930 . S
H1112 C1125 0.930 . S
H1113 C1129 0.959 . S
H1114 C1129 0.959 . S
H1115 C1129 0.961 . S
H1116 C1130 0.960 . S
H1117 C1130 0.961 . S
H1118 C1130 0.959 . S
H1119 C1133 0.929 . S
H1120 C1134 0.931 . S
H1121 C1136 0.930 . S
C1122 H1110 0.930 . S
C1122 C1123 1.399 . S
C1122 C1127 1.399 . S
C1123 C1122 1.399 . S
C1123 C1124 1.376 . S
C1124 H1111 0.930 . S
C1124 C1123 1.376 . S
C1124 C1125 1.388 . S
C1125 H1112 0.930 . S
C1125 C1124 1.388 . S
C1125 C1126 1.390 . S
C1126 C1125 1.390 . S
C1126 C1127 1.394 . S
C1126 C1132 1.465 . S
C1127 C1122 1.399 . S
C1127 C1126 1.394 . S
C1127 C1128 1.516 . S
C1128 C1127 1.516 . S
C1128 C1129 1.502 . S
C1128 C1130 1.561 . S
C1128 C1131 1.526 . S
C1129 H1113 0.959 . S
C1129 H1114 0.959 . S
C1129 H1115 0.961 . S
C1129 C1128 1.502 . S
C1130 H1116 0.960 . S
C1130 H1117 0.961 . S
C1130 H1118 0.959 . S
C1130 C1128 1.561 . S
C1131 C1128 1.526 . S
C1131 C1132 1.396 . S
C1131 C1136 1.390 . S
C1132 C1126 1.465 . S
C1132 C1131 1.396 . S
C1132 C1133 1.399 . S
C1133 H1119 0.929 . S
C1133 C1132 1.399 . S
C1133 C1134 1.385 . S
C1134 H1120 0.931 . S
C1134 C1133 1.385 . S
C1134 C1135 1.389 . S
C1135 C1134 1.389 . S
C1135 C1136 1.387 . S
C1136 H1121 0.930 . S
C1136 C1131 1.390 . S
C1136 C1135 1.387 . S
H1137 C1149 0.930 . S
H1138 C1151 0.930 . S
H1139 C1152 0.930 . S
H1140 C1156 0.959 . S
H1141 C1156 0.959 . S
H1142 C1156 0.961 . S
H1143 C1157 0.960 . S
H1144 C1157 0.961 . S
H1145 C1157 0.959 . S
H1146 C1160 0.929 . S
H1147 C1161 0.931 . S
H1148 C1163 0.930 . S
C1149 H1137 0.930 . S
C1149 C1150 1.399 . S
C1149 C1154 1.399 . S
C1150 C1149 1.399 . S
C1150 C1151 1.376 . S
C1151 H1138 0.930 . S
C1151 C1150 1.376 . S
C1151 C1152 1.388 . S
C1152 H1139 0.930 . S
C1152 C1151 1.388 . S
C1152 C1153 1.390 . S
C1153 C1152 1.390 . S
C1153 C1154 1.394 . S
C1153 C1159 1.465 . S
C1154 C1149 1.399 . S
C1154 C1153 1.394 . S
C1154 C1155 1.516 . S
C1155 C1154 1.516 . S
C1155 C1156 1.502 . S
C1155 C1157 1.561 . S
C1155 C1158 1.526 . S
C1156 H1140 0.959 . S
C1156 H1141 0.959 . S
C1156 H1142 0.961 . S
C1156 C1155 1.502 . S
C1157 H1143 0.960 . S
C1157 H1144 0.961 . S
C1157 H1145 0.959 . S
C1157 C1155 1.561 . S
C1158 C1155 1.526 . S
C1158 C1159 1.396 . S
C1158 C1163 1.390 . S
C1159 C1153 1.465 . S
C1159 C1158 1.396 . S
C1159 C1160 1.399 . S
C1160 H1146 0.929 . S
C1160 C1159 1.399 . S
C1160 C1161 1.385 . S
C1161 H1147 0.931 . S
C1161 C1160 1.385 . S
C1161 C1162 1.389 . S
C1162 C1161 1.389 . S
C1162 C1163 1.387 . S
C1163 H1148 0.930 . S
C1163 C1158 1.390 . S
C1163 C1162 1.387 . S
H1164 C1176 0.930 . S
H1165 C1178 0.930 . S
H1166 C1179 0.930 . S
H1167 C1183 0.959 . S
H1168 C1183 0.959 . S
H1169 C1183 0.961 . S
H1170 C1184 0.960 . S
H1171 C1184 0.961 . S
H1172 C1184 0.959 . S
H1173 C1187 0.929 . S
H1174 C1188 0.931 . S
H1175 C1190 0.930 . S
C1176 H1164 0.930 . S
C1176 C1177 1.399 . S
C1176 C1181 1.399 . S
C1177 C1176 1.399 . S
C1177 C1178 1.376 . S
C1178 H1165 0.930 . S
C1178 C1177 1.376 . S
C1178 C1179 1.388 . S
C1179 H1166 0.930 . S
C1179 C1178 1.388 . S
C1179 C1180 1.390 . S
C1180 C1179 1.390 . S
C1180 C1181 1.394 . S
C1180 C1186 1.465 . S
C1181 C1176 1.399 . S
C1181 C1180 1.394 . S
C1181 C1182 1.516 . S
C1182 C1181 1.516 . S
C1182 C1183 1.502 1_655 S
C1182 C1184 1.561 . S
C1182 C1185 1.526 . S
C1183 H1167 0.959 . S
C1183 H1168 0.959 . S
C1183 H1169 0.961 . S
C1183 C1182 1.502 1_455 S
C1184 H1170 0.960 . S
C1184 H1171 0.961 . S
C1184 H1172 0.959 . S
C1184 C1182 1.561 . S
C1185 C1182 1.526 . S
C1185 C1186 1.396 . S
C1185 C1190 1.390 . S
C1186 C1180 1.465 . S
C1186 C1185 1.396 . S
C1186 C1187 1.399 . S
C1187 H1173 0.929 . S
C1187 C1186 1.399 . S
C1187 C1188 1.385 . S
C1188 H1174 0.931 . S
C1188 C1187 1.385 . S
C1188 C1189 1.389 . S
C1189 C1188 1.389 . S
C1189 C1190 1.387 . S
C1190 H1175 0.930 . S
C1190 C1185 1.390 . S
C1190 C1189 1.387 . S
H1191 C1203 0.930 . S
H1192 C1205 0.930 1_545 S
H1193 C1206 0.930 . S
H1194 C1210 0.959 . S
H1195 C1210 0.959 . S
H1196 C1210 0.961 . S
H1197 C1211 0.960 . S
H1198 C1211 0.961 . S
H1199 C1211 0.959 . S
H1200 C1214 0.929 . S
H1201 C1215 0.931 . S
H1202 C1217 0.930 . S
C1203 H1191 0.930 . S
C1203 C1204 1.399 . S
C1203 C1208 1.399 . S
C1204 C1203 1.399 . S
C1204 C1205 1.376 . S
C1205 H1192 0.930 1_565 S
C1205 C1204 1.376 . S
C1205 C1206 1.388 1_565 S
C1206 H1193 0.930 . S
C1206 C1205 1.388 1_545 S
C1206 C1207 1.390 1_545 S
C1207 C1206 1.390 1_565 S
C1207 C1208 1.394 . S
C1207 C1213 1.465 . S
C1208 C1203 1.399 . S
C1208 C1207 1.394 . S
C1208 C1209 1.516 . S
C1209 C1208 1.516 . S
C1209 C1210 1.502 . S
C1209 C1211 1.561 . S
C1209 C1212 1.526 . S
C1210 H1194 0.959 . S
C1210 H1195 0.959 . S
C1210 H1196 0.961 . S
C1210 C1209 1.502 . S
C1211 H1197 0.960 . S
C1211 H1198 0.961 . S
C1211 H1199 0.959 . S
C1211 C1209 1.561 . S
C1212 C1209 1.526 . S
C1212 C1213 1.396 . S
C1212 C1217 1.390 . S
C1213 C1207 1.465 . S
C1213 C1212 1.396 . S
C1213 C1214 1.399 1_565 S
C1214 H1200 0.929 . S
C1214 C1213 1.399 1_545 S
C1214 C1215 1.385 . S
C1215 H1201 0.931 . S
C1215 C1214 1.385 . S
C1215 C1216 1.389 1_545 S
C1216 C1215 1.389 1_565 S
C1216 C1217 1.387 . S
C1217 H1202 0.930 . S
C1217 C1212 1.390 . S
C1217 C1216 1.387 . S
H1218 C1230 0.930 . S
H1219 C1232 0.930 . S
H1220 C1233 0.930 . S
H1221 C1237 0.959 . S
H1222 C1237 0.959 . S
H1223 C1237 0.961 . S
H1224 C1238 0.960 . S
H1225 C1238 0.961 . S
H1226 C1238 0.959 . S
H1227 C1241 0.929 . S
H1228 C1242 0.931 . S
H1229 C1244 0.930 . S
C1230 H1218 0.930 . S
C1230 C1231 1.399 . S
C1230 C1235 1.399 . S
C1231 C1230 1.399 . S
C1231 C1232 1.376 . S
C1232 H1219 0.930 . S
C1232 C1231 1.376 . S
C1232 C1233 1.388 . S
C1233 H1220 0.930 . S
C1233 C1232 1.388 . S
C1233 C1234 1.390 . S
C1234 C1233 1.390 . S
C1234 C1235 1.394 . S
C1234 C1240 1.465 . S
C1235 C1230 1.399 . S
C1235 C1234 1.394 . S
C1235 C1236 1.516 . S
C1236 C1235 1.516 . S
C1236 C1237 1.502 . S
C1236 C1238 1.561 . S
C1236 C1239 1.526 . S
C1237 H1221 0.959 . S
C1237 H1222 0.959 . S
C1237 H1223 0.961 . S
C1237 C1236 1.502 . S
C1238 H1224 0.960 . S
C1238 H1225 0.961 . S
C1238 H1226 0.959 . S
C1238 C1236 1.561 . S
C1239 C1236 1.526 . S
C1239 C1240 1.396 . S
C1239 C1244 1.390 . S
C1240 C1234 1.465 . S
C1240 C1239 1.396 . S
C1240 C1241 1.399 . S
C1241 H1227 0.929 . S
C1241 C1240 1.399 . S
C1241 C1242 1.385 . S
C1242 H1228 0.931 . S
C1242 C1241 1.385 . S
C1242 C1243 1.389 . S
C1243 C1242 1.389 . S
C1243 C1244 1.387 . S
C1244 H1229 0.930 . S
C1244 C1239 1.390 . S
C1244 C1243 1.387 . S
H1245 C1257 0.930 . S
H1246 C1259 0.930 . S
H1247 C1260 0.930 . S
H1248 C1264 0.959 . S
H1249 C1264 0.959 . S
H1250 C1264 0.961 . S
H1251 C1265 0.960 . S
H1252 C1265 0.961 . S
H1253 C1265 0.959 . S
H1254 C1268 0.929 . S
H1255 C1269 0.931 . S
H1256 C1271 0.930 . S
C1257 H1245 0.930 . S
C1257 C1258 1.399 . S
C1257 C1262 1.399 . S
C1258 C1257 1.399 . S
C1258 C1259 1.376 . S
C1259 H1246 0.930 . S
C1259 C1258 1.376 . S
C1259 C1260 1.388 . S
C1260 H1247 0.930 . S
C1260 C1259 1.388 . S
C1260 C1261 1.390 . S
C1261 C1260 1.390 . S
C1261 C1262 1.394 . S
C1261 C1267 1.465 . S
C1262 C1257 1.399 . S
C1262 C1261 1.394 . S
C1262 C1263 1.516 . S
C1263 C1262 1.516 . S
C1263 C1264 1.502 . S
C1263 C1265 1.561 . S
C1263 C1266 1.526 . S
C1264 H1248 0.959 . S
C1264 H1249 0.959 . S
C1264 H1250 0.961 . S
C1264 C1263 1.502 . S
C1265 H1251 0.960 . S
C1265 H1252 0.961 . S
C1265 H1253 0.959 . S
C1265 C1263 1.561 . S
C1266 C1263 1.526 . S
C1266 C1267 1.396 . S
C1266 C1271 1.390 . S
C1267 C1261 1.465 . S
C1267 C1266 1.396 . S
C1267 C1268 1.399 . S
C1268 H1254 0.929 . S
C1268 C1267 1.399 . S
C1268 C1269 1.385 . S
C1269 H1255 0.931 . S
C1269 C1268 1.385 . S
C1269 C1270 1.389 . S
C1270 C1269 1.389 . S
C1270 C1271 1.387 . S
C1271 H1256 0.930 . S
C1271 C1266 1.390 . S
C1271 C1270 1.387 . S
C637 C241 2.265 . S
C649 C351 2.402 . S
C676 C428 2.463 . S
C664 C277 2.262 . S
C703 C519 2.439 . S
C691 C169 2.188 . S
C730 C603 2.400 . S
C718 C205 2.226 . S
C757 C362 2.428 1_565 S
C745 C97 2.157 . S
C772 C133 2.336 . S
C784 C439 2.436 . S
C799 C25 2.171 . S
C811 C530 2.409 . S
C826 C61 2.208 . S
C838 C614 2.388 1_655 S
C865 C346 0.400 . S
C853 C211 0.455 . S
C892 C441 0.602 . S
C880 C247 0.457 . S
C919 C514 0.468 . S
C907 C253 0.591 . S
C934 C175 0.519 . S
C946 C598 0.566 . S
C961 C67 0.586 . S
C973 C357 0.483 . S
C1000 C430 0.652 . S
C988 C103 0.591 . S
C1027 C525 0.573 . S
C1015 C109 0.546 . S
C1042 C31 0.423 . S
C1054 C609 0.381 . S
C1069 C181 2.651 . S
C1081 C355 2.884 . S
C1096 C217 2.643 . S
C1108 C446 2.928 . S
C1135 C523 2.931 . S
C1123 C283 2.546 . S
C1162 C607 2.925 . S
C1150 C145 2.619 . S
C1177 C37 2.643 . S
C1189 C344 2.881 . S
C1216 C435 2.930 . S
C1204 C73 2.622 . S
C1243 C512 2.903 . S
C1231 C139 2.618 . S
C1258 C1 2.621 . S
C1270 C596 2.916 . S
