# Generated by pormake.
# Topology apo, (3,6)-cn, num edge types: 1
# Building blocks:
#     Node 0, Type 0, BuildingBlock: QEWDON_clean_linker_0, # of connection points: 3
#     Node 1, Type 0, BuildingBlock: QEWDON_clean_linker_0, # of connection points: 3
#     Node 2, Type 0, BuildingBlock: QEWDON_clean_linker_0, # of connection points: 3
#     Node 3, Type 0, BuildingBlock: QEWDON_clean_linker_0, # of connection points: 3
#     Node 4, Type 0, BuildingBlock: QEWDON_clean_linker_0, # of connection points: 3
#     Node 5, Type 0, BuildingBlock: QEWDON_clean_linker_0, # of connection points: 3
#     Node 6, Type 0, BuildingBlock: QEWDON_clean_linker_0, # of connection points: 3
#     Node 7, Type 0, BuildingBlock: QEWDON_clean_linker_0, # of connection points: 3
#     Node 8, Type 1, BuildingBlock: KUMBUR_clean_sbu_1, # of connection points: 6
#     Node 9, Type 1, BuildingBlock: KUMBUR_clean_sbu_1, # of connection points: 6
#     Node 10, Type 1, BuildingBlock: KUMBUR_clean_sbu_1, # of connection points: 6
#     Node 11, Type 1, BuildingBlock: KUMBUR_clean_sbu_1, # of connection points: 6
#     Edge 12, Type (0, 1), BuildingBlock: TEMPAE_clean_linker_10, # of connection points: 2
#     Edge 13, Type (0, 1), BuildingBlock: TEMPAE_clean_linker_10, # of connection points: 2
#     Edge 14, Type (0, 1), BuildingBlock: TEMPAE_clean_linker_10, # of connection points: 2
#     Edge 15, Type (0, 1), BuildingBlock: TEMPAE_clean_linker_10, # of connection points: 2
#     Edge 16, Type (0, 1), BuildingBlock: TEMPAE_clean_linker_10, # of connection points: 2
#     Edge 17, Type (0, 1), BuildingBlock: TEMPAE_clean_linker_10, # of connection points: 2
#     Edge 18, Type (0, 1), BuildingBlock: TEMPAE_clean_linker_10, # of connection points: 2
#     Edge 19, Type (0, 1), BuildingBlock: TEMPAE_clean_linker_10, # of connection points: 2
#     Edge 20, Type (0, 1), BuildingBlock: TEMPAE_clean_linker_10, # of connection points: 2
#     Edge 21, Type (0, 1), BuildingBlock: TEMPAE_clean_linker_10, # of connection points: 2
#     Edge 22, Type (0, 1), BuildingBlock: TEMPAE_clean_linker_10, # of connection points: 2
#     Edge 23, Type (0, 1), BuildingBlock: TEMPAE_clean_linker_10, # of connection points: 2
#     Edge 24, Type (0, 1), BuildingBlock: TEMPAE_clean_linker_10, # of connection points: 2
#     Edge 25, Type (0, 1), BuildingBlock: TEMPAE_clean_linker_10, # of connection points: 2
#     Edge 26, Type (0, 1), BuildingBlock: TEMPAE_clean_linker_10, # of connection points: 2
#     Edge 27, Type (0, 1), BuildingBlock: TEMPAE_clean_linker_10, # of connection points: 2
#     Edge 28, Type (0, 1), BuildingBlock: TEMPAE_clean_linker_10, # of connection points: 2
#     Edge 29, Type (0, 1), BuildingBlock: TEMPAE_clean_linker_10, # of connection points: 2
#     Edge 30, Type (0, 1), BuildingBlock: TEMPAE_clean_linker_10, # of connection points: 2
#     Edge 31, Type (0, 1), BuildingBlock: TEMPAE_clean_linker_10, # of connection points: 2
#     Edge 32, Type (0, 1), BuildingBlock: TEMPAE_clean_linker_10, # of connection points: 2
#     Edge 33, Type (0, 1), BuildingBlock: TEMPAE_clean_linker_10, # of connection points: 2
#     Edge 34, Type (0, 1), BuildingBlock: TEMPAE_clean_linker_10, # of connection points: 2
#     Edge 35, Type (0, 1), BuildingBlock: TEMPAE_clean_linker_10, # of connection points: 2
# Relax obj value: 0.074
# Max RMSD: 0.259
# Mean RMSD: 0.207
data_MOF--net-apo--node1-KUMBUR_clean_sbu_1--node2-QEWDON_clean_linker_0--edge1-TEMPAE_clean_linker_10
_symmetry_space_group_name_H-M    P1
_symmetry_Int_Tables_number       1
_symmetry_cell_setting            triclinic
loop_
_symmetry_equiv_pos_as_xyz
'x, y, z'
_cell_length_a     30.292948
_cell_length_b     43.586785
_cell_length_c     52.222033
_cell_angle_alpha  90.145209
_cell_angle_beta   90.156948
_cell_angle_gamma 90.465524
loop_
_atom_site_label
_atom_site_type_symbol
_atom_site_fract_x
_atom_site_fract_y
_atom_site_fract_z
_atom_type_partial_charge
H0 H 0.27906 0.39383 0.37521 0.0
C1 C 0.29155 0.39573 0.39459 0.0
C2 C 0.32883 0.41454 0.40006 0.0
C3 C 0.26856 0.38064 0.4144 0.0
H4 H 0.37061 0.4318 0.4309 0.0
C5 C 0.34356 0.41661 0.42573 0.0
C6 C 0.32178 0.40098 0.44547 0.0
C7 C 0.28433 0.38322 0.43971 0.0
C8 C 0.22444 0.36618 0.40982 0.0
H9 H 0.26664 0.37201 0.45515 0.0
C10 C 0.21701 0.34301 0.39117 0.0
C11 C 0.17433 0.32986 0.38803 0.0
C12 C 0.18887 0.37607 0.42489 0.0
H13 H 0.19343 0.39402 0.43908 0.0
C14 C 0.14706 0.36318 0.42188 0.0
H15 H 0.2441 0.33523 0.37938 0.0
C16 C 0.13982 0.34024 0.40376 0.0
H17 H 0.10703 0.33028 0.4023 0.0
H18 H 0.12009 0.37092 0.43375 0.0
H19 H 0.2433 0.11919 0.88147 0.0
C20 C 0.22913 0.11876 0.90049 0.0
C21 C 0.1912 0.10067 0.9055 0.0
C22 C 0.25001 0.13521 0.92039 0.0
H23 H 0.14814 0.08335 0.93514 0.0
C24 C 0.17509 0.09897 0.93081 0.0
C25 C 0.19538 0.11551 0.95083 0.0
C26 C 0.2315 0.13457 0.94501 0.0
C27 C 0.29456 0.14937 0.91729 0.0
H28 H 0.24701 0.14802 0.96008 0.0
C29 C 0.30447 0.17104 0.898 0.0
C30 C 0.3465 0.18565 0.89738 0.0
C31 C 0.32744 0.14161 0.93515 0.0
H32 H 0.32108 0.12463 0.94984 0.0
C33 C 0.36853 0.15591 0.93469 0.0
H34 H 0.27948 0.17673 0.88397 0.0
C35 C 0.37781 0.17801 0.91632 0.0
H36 H 0.40961 0.18946 0.91734 0.0
H37 H 0.39315 0.15015 0.94892 0.0
H38 H 0.77009 0.12762 0.65462 0.0
C39 C 0.78729 0.13037 0.63659 0.0
C40 C 0.82775 0.11545 0.63253 0.0
C41 C 0.76775 0.14758 0.617 0.0
H42 H 0.88044 0.10761 0.60558 0.0
C43 C 0.84935 0.11907 0.60883 0.0
C44 C 0.83034 0.13646 0.589 0.0
C45 C 0.78934 0.15044 0.59337 0.0
C46 C 0.72251 0.15978 0.61997 0.0
H47 H 0.77325 0.16289 0.57807 0.0
C48 C 0.71186 0.18069 0.63962 0.0
C49 C 0.6686 0.1923 0.64164 0.0
C50 C 0.68962 0.1504 0.60258 0.0
H51 H 0.69704 0.13424 0.58741 0.0
C52 C 0.64684 0.16156 0.60464 0.0
H53 H 0.73716 0.18806 0.65306 0.0
C54 C 0.63635 0.18239 0.62393 0.0
H55 H 0.60307 0.19124 0.62465 0.0
H56 H 0.62175 0.15423 0.5911 0.0
H57 H 0.74229 0.39754 0.15379 0.0
C58 C 0.72589 0.39564 0.13538 0.0
C59 C 0.68798 0.41325 0.13024 0.0
C60 C 0.74378 0.37645 0.11646 0.0
H61 H 0.63962 0.42511 0.10129 0.0
C62 C 0.66796 0.41109 0.10583 0.0
C63 C 0.68484 0.39138 0.08698 0.0
C64 C 0.72239 0.37401 0.09262 0.0
C65 C 0.78731 0.36144 0.12007 0.0
H66 H 0.73619 0.35934 0.07791 0.0
C67 C 0.79723 0.34354 0.14187 0.0
C68 C 0.83839 0.3285 0.14389 0.0
C69 C 0.8193 0.36481 0.10081 0.0
H70 H 0.81295 0.37884 0.08412 0.0
C71 C 0.85971 0.35013 0.10269 0.0
H72 H 0.77288 0.34108 0.15689 0.0
C73 C 0.86906 0.33191 0.12381 0.0
H74 H 0.90027 0.31999 0.12407 0.0
H75 H 0.88378 0.3526 0.08754 0.0
H76 H 0.69068 0.64276 0.66021 0.0
C77 C 0.68322 0.63807 0.64031 0.0
C78 C 0.66662 0.60899 0.63266 0.0
C79 C 0.68823 0.66193 0.62239 0.0
H80 H 0.6419 0.58299 0.60006 0.0
C81 C 0.657 0.60425 0.60647 0.0
C82 C 0.66407 0.62728 0.58822 0.0
C83 C 0.67928 0.65613 0.59638 0.0
C84 C 0.69741 0.69397 0.63078 0.0
H85 H 0.68368 0.67434 0.58248 0.0
C86 C 0.73506 0.7021 0.64542 0.0
C87 C 0.74338 0.73319 0.65155 0.0
C88 C 0.66788 0.71703 0.62326 0.0
H89 H 0.63852 0.71135 0.61228 0.0
C90 C 0.67574 0.74758 0.6298 0.0
H91 H 0.75831 0.68465 0.6512 0.0
C92 C 0.71336 0.75567 0.64369 0.0
H93 H 0.7192 0.77963 0.64829 0.0
H94 H 0.65277 0.7651 0.62387 0.0
H95 H 0.82589 0.87199 0.1548 0.0
C96 C 0.82635 0.87809 0.13469 0.0
C97 C 0.83939 0.90791 0.12733 0.0
C98 C 0.81808 0.85539 0.11599 0.0
H99 H 0.85296 0.9379 0.09542 0.0
C100 C 0.84215 0.91514 0.10113 0.0
C101 C 0.83339 0.89286 0.08228 0.0
C102 C 0.82138 0.86311 0.08991 0.0
C103 C 0.81377 0.82252 0.1231 0.0
H104 H 0.81577 0.84556 0.07548 0.0
C105 C 0.77903 0.8112 0.13855 0.0
C106 C 0.77617 0.7795 0.14424 0.0
C107 C 0.84535 0.80199 0.11362 0.0
H108 H 0.87238 0.81014 0.10184 0.0
C109 C 0.84262 0.77086 0.11923 0.0
H110 H 0.75449 0.82683 0.14595 0.0
C111 C 0.80836 0.75965 0.13433 0.0
H112 H 0.80674 0.73522 0.13803 0.0
H113 H 0.8671 0.75529 0.11173 0.0
H114 H 0.17002 0.86244 0.36695 0.0
C115 C 0.16715 0.86817 0.38709 0.0
C116 C 0.15114 0.89716 0.39437 0.0
C117 C 0.17602 0.8458 0.40578 0.0
H118 H 0.13273 0.92613 0.42615 0.0
C119 C 0.14518 0.90386 0.42049 0.0
C120 C 0.1555 0.88221 0.43935 0.0
C121 C 0.17118 0.85338 0.43184 0.0
C122 C 0.18432 0.81334 0.39855 0.0
H123 H 0.17784 0.83624 0.44633 0.0
C124 C 0.21812 0.80485 0.38139 0.0
C125 C 0.2254 0.77353 0.37567 0.0
C126 C 0.15764 0.79034 0.40949 0.0
H127 H 0.13112 0.79622 0.42245 0.0
C128 C 0.16462 0.75957 0.40387 0.0
H129 H 0.23874 0.82243 0.3728 0.0
C130 C 0.19829 0.75117 0.38728 0.0
H131 H 0.20355 0.72695 0.38388 0.0
H132 H 0.14404 0.7421 0.41259 0.0
H133 H 0.31522 0.64404 0.87178 0.0
C134 C 0.31768 0.64136 0.89236 0.0
C135 C 0.33226 0.61341 0.90274 0.0
C136 C 0.31073 0.66682 0.90833 0.0
H137 H 0.35159 0.58998 0.93733 0.0
C138 C 0.33879 0.61108 0.92942 0.0
C139 C 0.33149 0.63632 0.94567 0.0
C140 C 0.31624 0.66376 0.93488 0.0
C141 C 0.30644 0.69801 0.89747 0.0
H142 H 0.31064 0.68356 0.94702 0.0
C143 C 0.27111 0.70623 0.88131 0.0
C144 C 0.26835 0.73644 0.87176 0.0
C145 C 0.33888 0.72003 0.90376 0.0
H146 H 0.36647 0.71414 0.916 0.0
C147 C 0.33628 0.74976 0.89431 0.0
H148 H 0.24597 0.68937 0.87638 0.0
C149 C 0.30129 0.75798 0.87852 0.0
H150 H 0.29964 0.78148 0.87188 0.0
H151 H 0.36135 0.76655 0.89938 0.0
Tb152 Tb 0.04194 0.11333 0.23422 0.0
C153 C 0.86938 0.08248 0.27912 0.0
N154 N 0.89021 0.11032 0.27972 0.0
C155 C 0.82473 0.13398 0.26315 0.0
C156 C 0.82644 0.07909 0.26896 0.0
C157 C 0.86721 0.13617 0.27359 0.0
C158 C 0.8046 0.10525 0.2603 0.0
C159 C 0.87021 0.02826 0.2898 0.0
C160 C 0.89061 0.05739 0.28961 0.0
C161 C 0.82817 0.02455 0.27877 0.0
C162 C 0.80632 0.04991 0.26838 0.0
Tb163 Tb 0.96098 0.10987 0.29584 0.0
N164 N 0.93222 0.0615 0.29891 0.0
C165 C 0.89283 1.00379 0.30102 0.0
C166 C 0.95346 0.03823 0.31117 0.0
C167 C 0.93435 1.00891 0.31208 0.0
H168 H 0.88064 0.15868 0.27735 0.0
H169 H 0.95165 0.99029 0.32126 0.0
H170 H 0.12876 0.07846 0.25955 0.0
H171 H 0.02803 0.21863 0.18023 0.0
H172 H 0.98532 0.04225 0.31993 0.0
H173 H 0.87831 0.981 0.30154 0.0
H174 H 1.0029 0.1686 0.19651 0.0
H175 H 0.80721 0.15453 0.25775 0.0
H176 H 0.81207 1.00226 0.27843 0.0
H177 H 0.77355 0.04681 0.26037 0.0
H178 H 0.20721 0.09021 0.26734 0.0
H179 H 0.77156 0.10366 0.25238 0.0
H180 H 0.10441 0.23642 0.18885 0.0
N181 N 0.11501 0.12181 0.24268 0.0
C182 C 0.13235 0.14848 0.23366 0.0
C183 C 0.18639 0.10697 0.25811 0.0
C184 C 0.17723 0.15602 0.2374 0.0
C185 C 0.14163 0.10055 0.25394 0.0
C186 C 0.2042 0.13497 0.25006 0.0
N187 N 0.06196 0.15968 0.21707 0.0
C188 C 0.03504 0.17695 0.20194 0.0
C189 C 0.12139 0.19608 0.21076 0.0
C190 C 0.10477 0.1682 0.22062 0.0
C191 C 0.09296 0.21483 0.19675 0.0
C192 C 0.04974 0.20498 0.19202 0.0
H193 H 0.2389 0.13986 0.25327 0.0
H194 H 0.22814 0.19034 0.2309 0.0
H195 H 0.17924 0.22541 0.2075 0.0
O196 O 0.05283 0.1124 0.19447 0.0
O197 O 0.06627 0.1364 0.26932 0.0
O198 O 0.00478 0.15023 0.29348 0.0
O199 O 0.05777 0.07122 0.21683 0.0
O200 O 0.97844 0.1377 0.23232 0.0
O201 O 0.9579 0.15262 0.27333 0.0
O202 O 0.97733 0.10485 0.33489 0.0
O203 O 0.96528 0.07284 0.26715 0.0
O204 O 0.97261 0.10029 0.23088 0.0
O205 O 0.91594 0.12472 0.32373 0.0
O206 O 0.02815 0.0925 0.30061 0.0
O207 O 0.04828 0.0741 0.26053 0.0
C208 C 0.04678 0.15319 0.28702 0.0
C209 C 0.10224 0.07514 0.17931 0.0
C210 C 0.13883 0.07245 0.1377 0.0
C211 C 0.17417 0.05698 0.14924 0.0
C212 C 0.13808 0.0599 0.19053 0.0
C213 C 0.17385 0.05095 0.17551 0.0
C214 C 0.10303 0.0816 0.15292 0.0
C215 C 0.95924 0.157 0.2483 0.0
C216 C 0.06293 0.08355 0.19431 0.0
C217 C 0.19378 0.18404 0.22811 0.0
C218 C 0.16592 0.20402 0.21481 0.0
C219 C 0.95751 0.07608 0.24267 0.0
C220 C 0.94686 0.14186 0.36258 0.0
C221 C 0.94156 0.15771 0.4074 0.0
C222 C 0.95714 0.18703 0.40055 0.0
C223 C 0.96117 0.17149 0.35605 0.0
C224 C 0.93661 0.13513 0.38822 0.0
C225 C 0.96653 0.19387 0.375 0.0
C226 C 0.04941 0.07307 0.28583 0.0
C227 C 0.94153 0.11798 0.34282 0.0
H228 H 0.20229 0.04987 0.13798 0.0
H229 H 0.13836 0.05466 0.21078 0.0
H230 H 0.20134 0.03917 0.18424 0.0
H231 H 0.07534 0.0932 0.14412 0.0
H232 H 0.96094 0.20489 0.41486 0.0
H233 H 0.96815 0.1773 0.33631 0.0
H234 H 0.92488 0.11237 0.39325 0.0
H235 H 0.97776 0.21666 0.36984 0.0
Tb236 Tb 0.4492 0.4025 0.74029 0.0
C237 C 0.62263 0.44841 0.79109 0.0
N238 N 0.60945 0.41945 0.78512 0.0
C239 C 0.68104 0.40869 0.76796 0.0
C240 C 0.6652 0.45917 0.78475 0.0
C241 C 0.6383 0.39918 0.7745 0.0
C242 C 0.69445 0.43891 0.7729 0.0
C243 C 0.60592 0.49707 0.81097 0.0
C244 C 0.59339 0.46696 0.80401 0.0
C245 C 0.64743 0.50859 0.80356 0.0
C246 C 0.67711 0.48961 0.79056 0.0
Tb247 Tb 0.54009 0.40556 0.79745 0.0
N248 N 0.55398 0.45471 0.8113 0.0
C249 C 0.57718 0.51417 0.82614 0.0
C250 C 0.52806 0.47026 0.82822 0.0
C251 C 0.53861 0.50041 0.83527 0.0
H252 H 0.62837 0.37571 0.77105 0.0
H253 H 0.51759 0.51273 0.84825 0.0
H254 H 0.37435 0.4545 0.76053 0.0
H255 H 0.42303 0.28635 0.7087 0.0
H256 H 0.4998 0.45935 0.83693 0.0
H257 H 0.5855 0.53739 0.83197 0.0
H258 H 0.46336 0.3359 0.71249 0.0
H259 H 0.70363 0.39271 0.7592 0.0
H260 H 0.65742 0.53179 0.8085 0.0
H261 H 0.7094 0.49852 0.78548 0.0
H262 H 0.30251 0.4532 0.78206 0.0
H263 H 0.7275 0.44625 0.76774 0.0
H264 H 0.3513 0.27931 0.7307 0.0
N265 N 0.38005 0.40571 0.75822 0.0
C266 C 0.35721 0.37874 0.75942 0.0
C267 C 0.31791 0.43197 0.77627 0.0
C268 C 0.31475 0.37709 0.77036 0.0
C269 C 0.35946 0.43249 0.76465 0.0
C270 C 0.29585 0.40405 0.77967 0.0
N271 N 0.41548 0.35588 0.73688 0.0
C272 C 0.4322 0.33278 0.72218 0.0
C273 C 0.35095 0.32541 0.7463 0.0
C274 C 0.37495 0.35317 0.74768 0.0
C275 C 0.36881 0.301 0.73233 0.0
C276 C 0.40935 0.30486 0.71992 0.0
H277 H 0.26333 0.40379 0.78827 0.0
H278 H 0.25932 0.34715 0.77914 0.0
H279 H 0.29106 0.30186 0.75799 0.0
O280 O 0.46691 0.40303 0.70113 0.0
O281 O 0.4583 0.36333 0.76635 0.0
O282 O 0.47383 0.38719 0.80419 0.0
O283 O 0.40158 0.41465 0.71292 0.0
O284 O 0.51339 0.38157 0.73188 0.0
O285 O 0.54532 0.36674 0.77068 0.0
O286 O 0.5633 0.40665 0.83595 0.0
O287 O 0.55633 0.42527 0.75956 0.0
O288 O 0.49014 0.44368 0.74462 0.0
O289 O 0.56469 0.36477 0.81318 0.0
O290 O 0.47382 0.4243 0.80442 0.0
O291 O 0.44991 0.44342 0.76552 0.0
C292 C 0.45725 0.36384 0.79147 0.0
C293 C 0.42554 0.43538 0.67366 0.0
C294 C 0.41221 0.4485 0.62859 0.0
C295 C 0.41184 0.47974 0.63573 0.0
C296 C 0.42498 0.46656 0.68015 0.0
C297 C 0.41855 0.48859 0.6612 0.0
C298 C 0.41977 0.42648 0.64791 0.0
C299 C 0.54046 0.36439 0.74555 0.0
C300 C 0.42804 0.41163 0.69362 0.0
C301 C 0.29174 0.34894 0.77053 0.0
C302 C 0.30973 0.32317 0.75842 0.0
C303 C 0.53351 0.44461 0.74548 0.0
C304 C 0.59353 0.36077 0.85662 0.0
C305 C 0.6185 0.35749 0.90118 0.0
C306 C 0.63535 0.32819 0.89606 0.0
C307 C 0.61035 0.33128 0.85218 0.0
C308 C 0.59726 0.37374 0.88139 0.0
C309 C 0.63104 0.31516 0.87178 0.0
C310 C 0.45204 0.44462 0.79078 0.0
C311 C 0.5736 0.37781 0.83504 0.0
H312 H 0.40507 0.49747 0.62184 0.0
H313 H 0.42832 0.47376 0.69992 0.0
H314 H 0.41759 0.51264 0.66636 0.0
H315 H 0.42053 0.40229 0.64314 0.0
H316 H 0.65162 0.31523 0.911 0.0
H317 H 0.608 0.32073 0.83341 0.0
H318 H 0.58448 0.39646 0.88516 0.0
H319 H 0.64403 0.29251 0.8681 0.0
Tb320 Tb 0.04658 0.90931 0.73691 0.0
C321 C 0.87249 0.86653 0.78647 0.0
N322 N 0.88652 0.89561 0.78187 0.0
C323 C 0.8161 0.90795 0.76375 0.0
C324 C 0.83016 0.85649 0.77882 0.0
C325 C 0.85862 0.91673 0.77154 0.0
C326 C 0.80198 0.8776 0.76711 0.0
C327 C 0.8873 0.81683 0.80493 0.0
C328 C 0.90071 0.84709 0.79926 0.0
C329 C 0.84593 0.80611 0.79631 0.0
C330 C 0.81733 0.82596 0.78336 0.0
Tb331 Tb 0.95663 0.90755 0.7944 0.0
N332 N 0.94016 0.85851 0.80748 0.0
C333 C 0.91519 0.79868 0.81984 0.0
C334 C 0.96544 0.8418 0.82401 0.0
C335 C 0.95401 0.81144 0.82985 0.0
H336 H 0.86942 0.9402 0.769 0.0
H337 H 0.97483 0.79808 0.8424 0.0
H338 H 0.12237 0.85928 0.75784 0.0
H339 H 0.06596 0.02778 0.70975 0.0
H340 H 0.99421 0.85178 0.83308 0.0
H341 H 0.90618 0.77528 0.82462 0.0
H342 H 0.02927 0.97685 0.71089 0.0
H343 H 0.79431 0.92455 0.7551 0.0
H344 H 0.83524 0.7828 0.8002 0.0
H345 H 0.78511 0.81765 0.77737 0.0
H346 H 0.19417 0.86174 0.77961 0.0
H347 H 0.76915 0.87081 0.76092 0.0
H348 H 0.13699 0.03593 0.73249 0.0
N349 N 0.11527 0.90782 0.7557 0.0
C350 C 0.13707 0.93519 0.75742 0.0
C351 C 0.17793 0.88266 0.77414 0.0
C352 C 0.17902 0.93761 0.76902 0.0
C353 C 0.1365 0.88145 0.76229 0.0
C354 C 0.19884 0.91091 0.77813 0.0
N355 N 0.07826 0.95697 0.73469 0.0
C356 C 0.06004 0.98036 0.721 0.0
C357 C 0.14053 0.98906 0.74595 0.0
C358 C 0.1184 0.96054 0.74601 0.0
C359 C 0.12106 0.0136 0.733 0.0
C360 C 0.08089 1.00911 0.7202 0.0
H361 H 0.23114 0.91169 0.78708 0.0
H362 H 0.23248 0.9687 0.77935 0.0
H363 H 0.19861 0.01383 0.75918 0.0
O364 O 0.03621 0.91461 0.69705 0.0
O365 O 0.03944 0.94691 0.76508 0.0
O366 O 0.02459 0.92149 0.80196 0.0
O367 O 0.09083 0.88891 0.71121 0.0
O368 O 0.98232 0.92964 0.72855 0.0
O369 O 0.95358 0.9468 0.7675 0.0
O370 O 0.93204 0.90712 0.83245 0.0
O371 O 0.93889 0.89059 0.75613 0.0
O372 O 1.00142 0.86942 0.73879 0.0
O373 O 0.93907 0.94971 0.81108 0.0
O374 O 0.02081 0.8849 0.80007 0.0
O375 O 0.04423 0.86744 0.76049 0.0
C376 C 0.04316 0.94448 0.79002 0.0
C377 C 0.10227 0.91593 0.67275 0.0
C378 C 0.12636 0.92547 0.62866 0.0
C379 C 0.1618 0.94316 0.63835 0.0
C380 C 0.13828 0.93337 0.68172 0.0
C381 C 0.16749 0.94713 0.66463 0.0
C382 C 0.09637 0.91205 0.64616 0.0
C383 C 0.95852 0.94889 0.74229 0.0
C384 C 0.07231 0.90046 0.69103 0.0
C385 C 0.20049 0.96631 0.77019 0.0
C386 C 0.18131 0.99199 0.75862 0.0
C387 C 0.95855 0.86887 0.74311 0.0
C388 C 0.91103 0.95447 0.85465 0.0
C389 C 0.89125 0.95832 0.89997 0.0
C390 C 0.88573 0.99006 0.89701 0.0
C391 C 0.90489 0.98626 0.85221 0.0
C392 C 0.90348 0.94045 0.87862 0.0
C393 C 0.89217 1.00385 0.87324 0.0
C394 C 0.04107 0.86458 0.78557 0.0
C395 C 0.92789 0.93676 0.83255 0.0
H396 H 0.18607 0.95324 0.62565 0.0
H397 H 0.14458 0.93581 0.70194 0.0
H398 H 0.19526 0.9604 0.67182 0.0
H399 H 0.06877 0.89841 0.63918 0.0
H400 H 0.87626 1.00419 0.91316 0.0
H401 H 0.91045 0.99768 0.83408 0.0
H402 H 0.90843 0.91601 0.88091 0.0
H403 H 0.88776 0.02833 0.87116 0.0
Tb404 Tb 0.46222 0.61252 0.23763 0.0
C405 C 0.65002 0.64016 0.27779 0.0
N406 N 0.62603 0.61372 0.27908 0.0
C407 C 0.68968 0.58508 0.26605 0.0
C408 C 0.69447 0.64019 0.26985 0.0
C409 C 0.64617 0.58616 0.27488 0.0
C410 C 0.71375 0.61227 0.26312 0.0
C411 C 0.65571 0.69443 0.28782 0.0
C412 C 0.63101 0.66694 0.28653 0.0
C413 C 0.69951 0.69481 0.27914 0.0
C414 C 0.7188 0.66777 0.27006 0.0
Tb415 Tb 0.55466 0.61899 0.29306 0.0
N416 N 0.58868 0.66568 0.29487 0.0
C417 C 0.63599 0.72043 0.29849 0.0
C418 C 0.57007 0.69042 0.30666 0.0
C419 C 0.59313 0.71831 0.30822 0.0
H420 H 0.62933 0.56478 0.2788 0.0
H421 H 0.57797 0.73807 0.31705 0.0
H422 H 0.37707 0.64431 0.26642 0.0
H423 H 0.48269 0.49883 0.19701 0.0
H424 H 0.53727 0.68867 0.31461 0.0
H425 H 0.65386 0.74201 0.29981 0.0
H426 H 0.49862 0.55397 0.20141 0.0
H427 H 0.70496 0.56321 0.26214 0.0
H428 H 0.71901 0.71574 0.27986 0.0
H429 H 0.75295 0.66825 0.26395 0.0
H430 H 0.30748 0.62708 0.28668 0.0
H431 H 0.74776 0.61132 0.25681 0.0
H432 H 0.41929 0.47565 0.21984 0.0
N433 N 0.39599 0.59937 0.25535 0.0
C434 C 0.38368 0.56943 0.25319 0.0
C435 C 0.32885 0.61058 0.27754 0.0
C436 C 0.34435 0.55852 0.26435 0.0
C437 C 0.36838 0.62027 0.26623 0.0
C438 C 0.31707 0.57949 0.27692 0.0
N439 N 0.44846 0.56158 0.22919 0.0
C440 C 0.47255 0.54398 0.21273 0.0
C441 C 0.39978 0.51854 0.2373 0.0
C442 C 0.41124 0.54979 0.24003 0.0
C443 C 0.42686 0.4998 0.2224 0.0
C444 C 0.46286 0.51275 0.20963 0.0
H445 H 0.28653 0.57202 0.28578 0.0
H446 H 0.30352 0.51829 0.271 0.0
H447 H 0.35215 0.48321 0.24739 0.0
O448 O 0.43382 0.60528 0.20123 0.0
O449 O 0.45214 0.59684 0.27734 0.0
O450 O 0.51723 0.57604 0.29011 0.0
O451 O 0.43229 0.64967 0.21885 0.0
O452 O 0.52756 0.59364 0.22888 0.0
O453 O 0.55624 0.57801 0.26792 0.0
O454 O 0.53248 0.62141 0.33114 0.0
O455 O 0.54757 0.65573 0.26447 0.0
O456 O 0.52706 0.63166 0.22714 0.0
O457 O 0.59881 0.60795 0.32277 0.0
O458 O 0.49086 0.64149 0.30014 0.0
O459 O 0.46103 0.6548 0.26054 0.0
C460 C 0.47415 0.57455 0.28811 0.0
C461 C 0.44309 0.64741 0.17397 0.0
C462 C 0.44267 0.64983 0.12721 0.0
C463 C 0.48099 0.66823 0.12814 0.0
C464 C 0.48108 0.66613 0.17441 0.0
C465 C 0.49986 0.67643 0.15161 0.0
C466 C 0.4237 0.63958 0.15029 0.0
C467 C 0.55374 0.57614 0.2427 0.0
C468 C 0.42552 0.63412 0.19787 0.0
C469 C 0.33352 0.5272 0.26245 0.0
C470 C 0.36124 0.50723 0.24901 0.0
C471 C 0.54988 0.65289 0.23948 0.0
C472 C 0.56735 0.58888 0.36076 0.0
C473 C 0.57739 0.57531 0.40576 0.0
C474 C 0.56324 0.54524 0.40003 0.0
C475 C 0.55348 0.55879 0.35536 0.0
C476 C 0.57934 0.59701 0.38588 0.0
C477 C 0.55163 0.53707 0.37496 0.0
C478 C 0.46476 0.65837 0.28559 0.0
C479 C 0.56979 0.61224 0.34062 0.0
H480 H 0.49602 0.67662 0.11069 0.0
H481 H 0.49652 0.67259 0.19235 0.0
H482 H 0.52927 0.69071 0.15214 0.0
H483 H 0.3946 0.62493 0.14981 0.0
H484 H 0.56188 0.5279 0.41484 0.0
H485 H 0.54433 0.55211 0.33607 0.0
H486 H 0.58977 0.62038 0.38997 0.0
H487 H 0.54152 0.51377 0.37068 0.0
C488 C 0.09518 0.93197 0.37516 0.0
C489 C 0.13808 0.92018 0.37495 0.0
C490 C 0.08283 0.95555 0.35842 0.0
C491 C 0.1144 0.96812 0.34137 0.0
C492 C 0.15756 0.95578 0.34066 0.0
C493 C 0.16877 0.93169 0.35732 0.0
C494 C 0.03619 0.96749 0.3594 0.0
C495 C 0.19232 0.96884 0.32306 0.0
C496 C 0.06936 0.01753 0.2873 0.0
C497 C 0.07103 0.04681 0.29845 0.0
C498 C 0.08451 0.9917 0.30072 0.0
C499 C 0.10268 0.99541 0.32559 0.0
C500 C 0.10643 0.02522 0.33631 0.0
C501 C 0.09003 0.05048 0.32276 0.0
C502 C 0.07892 0.96031 0.28882 0.0
C503 C 0.12629 0.03033 0.36254 0.0
H504 H 0.07135 0.92286 0.38867 0.0
H505 H 0.20201 0.92265 0.35729 0.0
H506 H 0.03645 0.99179 0.36576 0.0
H507 H 0.0212 0.96676 0.34001 0.0
H508 H 0.01495 0.95404 0.37265 0.0
H509 H 0.22344 0.95554 0.32368 0.0
H510 H 0.17998 0.96921 0.30304 0.0
H511 H 0.19977 0.99292 0.32863 0.0
H512 H 0.05412 0.01458 0.26864 0.0
H513 H 0.09149 0.07314 0.33135 0.0
H514 H 0.05405 0.94698 0.29981 0.0
H515 H 0.11036 0.94749 0.28969 0.0
H516 H 0.06787 0.96153 0.26855 0.0
H517 H 0.10448 0.02001 0.37729 0.0
H518 H 0.13079 0.05509 0.36704 0.0
H519 H 0.15877 0.01888 0.36396 0.0
C520 C 0.38734 0.57428 0.88919 0.0
C521 C 0.34615 0.58799 0.88553 0.0
C522 C 0.40213 0.55088 0.87296 0.0
C523 C 0.37521 0.54086 0.85228 0.0
C524 C 0.33333 0.55447 0.84854 0.0
C525 C 0.31943 0.57806 0.86509 0.0
C526 C 0.44748 0.538 0.87758 0.0
C527 C 0.30318 0.544 0.82713 0.0
C528 C 0.43288 0.49974 0.79729 0.0
C529 C 0.42821 0.46901 0.8046 0.0
C530 C 0.41515 0.52342 0.81238 0.0
C531 C 0.39095 0.51605 0.83478 0.0
C532 C 0.38438 0.48485 0.84143 0.0
C533 C 0.40367 0.46174 0.82648 0.0
C534 C 0.42428 0.55632 0.80507 0.0
C535 C 0.35863 0.47592 0.865 0.0
H536 H 0.40867 0.58238 0.90453 0.0
H537 H 0.28749 0.58857 0.86221 0.0
H538 H 0.44877 0.51308 0.87339 0.0
H539 H 0.47109 0.55004 0.86482 0.0
H540 H 0.45858 0.54177 0.89765 0.0
H541 H 0.27126 0.55638 0.82713 0.0
H542 H 0.31952 0.54766 0.80839 0.0
H543 H 0.2964 0.51903 0.8289 0.0
H544 H 0.45239 0.5053 0.78052 0.0
H545 H 0.40003 0.43791 0.83206 0.0
H546 H 0.44559 0.56723 0.81989 0.0
H547 H 0.39308 0.56944 0.80431 0.0
H548 H 0.44109 0.55824 0.78625 0.0
H549 H 0.37707 0.48335 0.88236 0.0
H550 H 0.35283 0.45076 0.86612 0.0
H551 H 0.32628 0.48768 0.86521 0.0
C552 C 0.6434 0.59129 0.67701 0.0
C553 C 0.65578 0.5842 0.65172 0.0
C554 C 0.62847 0.56836 0.69391 0.0
C555 C 0.62318 0.53786 0.68498 0.0
C556 C 0.63687 0.53027 0.65991 0.0
C557 C 0.65454 0.55318 0.64405 0.0
C558 C 0.61707 0.57695 0.72111 0.0
C559 C 0.63123 0.49812 0.64941 0.0
C560 C 0.60307 0.46942 0.72881 0.0
C561 C 0.55687 0.46841 0.73011 0.0
C562 C 0.62529 0.49262 0.71519 0.0
C563 C 0.60061 0.5143 0.7011 0.0
C564 C 0.55389 0.51268 0.70145 0.0
C565 C 0.5327 0.4903 0.71642 0.0
C566 C 0.67505 0.4943 0.71663 0.0
C567 C 0.52617 0.53401 0.68544 0.0
H568 H 0.64383 0.61485 0.68359 0.0
H569 H 0.66619 0.54667 0.62525 0.0
H570 H 0.58073 0.57648 0.72362 0.0
H571 H 0.63127 0.56011 0.73469 0.0
H572 H 0.62943 0.60024 0.72624 0.0
H573 H 0.64195 0.49623 0.62915 0.0
H574 H 0.65059 0.48172 0.66102 0.0
H575 H 0.59603 0.49099 0.65064 0.0
H576 H 0.62205 0.45197 0.73829 0.0
H577 H 0.49703 0.48983 0.71712 0.0
H578 H 0.68466 0.51271 0.73032 0.0
H579 H 0.68989 0.50013 0.69787 0.0
H580 H 0.68947 0.47243 0.7234 0.0
H581 H 0.53369 0.55825 0.69035 0.0
H582 H 0.49024 0.52997 0.6881 0.0
H583 H 0.5342 0.53079 0.66488 0.0
C584 C 0.82738 0.94129 0.16611 0.0
C585 C 0.85511 0.9307 0.1466 0.0
C586 C 0.84173 0.9644 0.18324 0.0
C587 C 0.88511 0.97663 0.18109 0.0
C588 C 0.91361 0.96515 0.16193 0.0
C589 C 0.89812 0.9426 0.1448 0.0
C590 C 0.81011 0.97639 0.20311 0.0
C591 C 0.96037 0.97699 0.15926 0.0
C592 C 0.9154 0.0569 0.20455 0.0
C593 C 0.93707 0.05076 0.22769 0.0
C594 C 0.89673 0.0331 0.18977 0.0
C595 C 0.90051 1.00228 0.19807 0.0
C596 C 0.92175 0.99604 0.22169 0.0
C597 C 0.93959 0.02036 0.23626 0.0
C598 C 0.87369 0.0409 0.16499 0.0
C599 C 0.92707 0.96359 0.23116 0.0
H600 H 0.79408 0.93215 0.16745 0.0
H601 H 0.91974 0.93419 0.12988 0.0
H602 H 0.82498 0.97484 0.22249 0.0
H603 H 0.80347 1.00099 0.19946 0.0
H604 H 0.77821 0.96363 0.20303 0.0
H605 H 0.97912 0.96437 0.14438 0.0
H606 H 0.96004 1.00166 0.1541 0.0
H607 H 0.97813 0.97499 0.17778 0.0
H608 H 0.91298 0.08042 0.198 0.0
H609 H 0.95665 0.01546 0.25403 0.0
H610 H 0.84029 0.03026 0.16448 0.0
H611 H 0.89249 0.03143 0.14861 0.0
H612 H 0.8704 0.06605 0.16227 0.0
H613 H 0.89465 0.9516 0.23152 0.0
H614 H 0.9418 0.96275 0.25066 0.0
H615 H 0.94863 0.95073 0.21784 0.0
C616 C 0.81748 0.07274 0.66416 0.0
C617 C 0.84561 0.09397 0.65211 0.0
C618 C 0.83416 0.05037 0.68084 0.0
C619 C 0.88012 0.04915 0.68565 0.0
C620 C 0.90852 0.07123 0.67433 0.0
C621 C 0.89095 0.09331 0.65765 0.0
C622 C 0.80277 0.02715 0.69235 0.0
C623 C 0.95769 0.07085 0.67913 0.0
C624 C 0.9226 1.00068 0.74113 0.0
C625 C 0.93621 0.97405 0.72835 0.0
C626 C 0.9042 0.02537 0.72756 0.0
C627 C 0.89888 0.0232 0.70064 0.0
C628 C 0.91175 0.9961 0.68777 0.0
C629 C 0.93035 0.97198 0.70173 0.0
C630 C 0.89117 0.05396 0.74194 0.0
C631 C 0.90626 0.99265 0.65914 0.0
H632 H 0.7825 0.07278 0.65975 0.0
H633 H 0.91282 0.10985 0.64866 0.0
H634 H 0.80959 1.00409 0.68429 0.0
H635 H 0.80778 0.02575 0.71336 0.0
H636 H 0.76768 0.03277 0.6885 0.0
H637 H 0.97475 0.09106 0.67066 0.0
H638 H 0.9646 0.07039 0.7 0.0
H639 H 0.97198 0.04975 0.67073 0.0
H640 H 0.9273 1.00255 0.76167 0.0
H641 H 0.94048 0.95143 0.69168 0.0
H642 H 0.85587 0.05908 0.73839 0.0
H643 H 0.91069 0.07385 0.73488 0.0
H644 H 0.89652 0.05179 0.76291 0.0
H645 H 0.87117 0.99589 0.65372 0.0
H646 H 0.91699 0.96982 0.65212 0.0
H647 H 0.92584 0.01059 0.64916 0.0
C648 C 0.69926 0.45356 0.16439 0.0
C649 C 0.67046 0.4351 0.14974 0.0
C650 C 0.68304 0.47562 0.18161 0.0
C651 C 0.63689 0.47952 0.18419 0.0
C652 C 0.60768 0.46039 0.17002 0.0
C653 C 0.62478 0.43843 0.15306 0.0
C654 C 0.71531 0.49548 0.19638 0.0
C655 C 0.55827 0.46368 0.17225 0.0
C656 C 0.58803 0.52393 0.24033 0.0
C657 C 0.57911 0.55231 0.22894 0.0
C658 C 0.60789 0.50019 0.22624 0.0
C659 C 0.61906 0.50501 0.20019 0.0
C660 C 0.61142 0.53403 0.18895 0.0
C661 C 0.59164 0.55728 0.20345 0.0
C662 C 0.6156 0.46965 0.23896 0.0
C663 C 0.62284 0.54027 0.16131 0.0
H664 H 0.73459 0.45148 0.16181 0.0
H665 H 0.60226 0.42395 0.14219 0.0
H666 H 0.71281 0.51959 0.18979 0.0
H667 H 0.70717 0.49525 0.21708 0.0
H668 H 0.74995 0.48787 0.19393 0.0
H669 H 0.54001 0.4463 0.16068 0.0
H670 H 0.5481 0.46142 0.19255 0.0
H671 H 0.54839 0.48686 0.16574 0.0
H672 H 0.57808 0.51992 0.25997 0.0
H673 H 0.58507 0.57927 0.19463 0.0
H674 H 0.65031 0.46243 0.23623 0.0
H675 H 0.59418 0.45189 0.22994 0.0
H676 H 0.6084 0.47034 0.2598 0.0
H677 H 0.65806 0.53502 0.15773 0.0
H678 H 0.61674 0.56449 0.15582 0.0
H679 H 0.60282 0.5251 0.14865 0.0
C680 C 0.32569 0.44635 0.35937 0.0
C681 C 0.35027 0.43423 0.37986 0.0
C682 C 0.34458 0.46742 0.34204 0.0
C683 C 0.38861 0.4777 0.34574 0.0
C684 C 0.41392 0.46507 0.36588 0.0
C685 C 0.39496 0.44298 0.38212 0.0
C686 C 0.31721 0.47902 0.31996 0.0
C687 C 0.46052 0.47598 0.3711 0.0
C688 C 0.45705 0.51926 0.29519 0.0
C689 C 0.45041 0.54999 0.30183 0.0
C690 C 0.43502 0.49553 0.30829 0.0
C691 C 0.40777 0.50269 0.32948 0.0
C692 C 0.40112 0.53389 0.33617 0.0
C693 C 0.42175 0.5572 0.32186 0.0
C694 C 0.44132 0.46283 0.29959 0.0
C695 C 0.37355 0.54265 0.35905 0.0
H696 H 0.29118 0.44027 0.35719 0.0
H697 H 0.41521 0.43315 0.39706 0.0
H698 H 0.31339 0.50425 0.32136 0.0
H699 H 0.33438 0.47418 0.30166 0.0
H700 H 0.28388 0.46823 0.31926 0.0
H701 H 0.47607 0.46369 0.38736 0.0
H702 H 0.48132 0.47287 0.35388 0.0
H703 H 0.46027 0.50088 0.37561 0.0
H704 H 0.47894 0.51386 0.27943 0.0
H705 H 0.41684 0.58108 0.32692 0.0
H706 H 0.40896 0.45083 0.29808 0.0
H707 H 0.46141 0.45031 0.31387 0.0
H708 H 0.45817 0.46152 0.28075 0.0
H709 H 0.33956 0.53337 0.35693 0.0
H710 H 0.37168 0.56791 0.36168 0.0
H711 H 0.38784 0.53246 0.37665 0.0
C712 C 0.19578 0.06449 0.8678 0.0
C713 C 0.17008 0.08136 0.88511 0.0
C714 C 0.17614 0.04366 0.85045 0.0
C715 C 0.12972 0.03943 0.85049 0.0
C716 C 0.1035 0.05726 0.86718 0.0
C717 C 0.12394 0.07804 0.88416 0.0
C718 C 0.2052 0.02529 0.83278 0.0
C719 C 0.05389 0.05356 0.86779 0.0
C720 C 0.07111 0.99846 0.79532 0.0
C721 C 0.06582 0.96876 0.80514 0.0
C722 C 0.09273 0.02155 0.80955 0.0
C723 C 0.1087 0.01493 0.83444 0.0
C724 C 0.1032 0.98497 0.84448 0.0
C725 C 0.08192 0.96227 0.82971 0.0
C726 C 0.09826 0.05305 0.798 0.0
C727 C 0.11943 0.97693 0.87098 0.0
H728 H 0.23143 0.06661 0.86848 0.0
H729 H 0.10372 0.09133 0.89712 0.0
H730 H 0.20335 1.00065 0.83799 0.0
H731 H 0.19342 0.02727 0.81272 0.0
H732 H 0.24027 0.03287 0.83368 0.0
H733 H 0.03803 0.07035 0.88082 0.0
H734 H 0.03992 0.0564 0.84829 0.0
H735 H 0.04512 0.03007 0.87428 0.0
H736 H 0.05785 1.00378 0.77659 0.0
H737 H 0.07798 0.93934 0.83741 0.0
H738 H 0.13388 0.05891 0.79661 0.0
H739 H 0.08282 0.07052 0.81052 0.0
H740 H 0.08335 0.05459 0.77859 0.0
H741 H 0.15536 0.98171 0.87255 0.0
H742 H 0.11333 0.95245 0.87578 0.0
H743 H 0.10266 0.99144 0.88541 0.0
C744 C 0.21455 0.11023 0.99747 0.0
C745 C 0.18213 0.11072 0.97815 0.0
C746 C 0.20352 0.10521 0.02317 0.0
C747 C 0.15902 0.0995 0.02991 0.0
C748 C 0.12598 0.09976 1.01065 0.0
C749 C 0.13785 0.10563 0.98505 0.0
C750 C 0.23981 0.10549 0.04309 0.0
C751 C 0.07825 0.0933 0.01704 0.0
C752 C 0.14835 0.05545 0.09226 0.0
C753 C 0.13957 0.07898 0.10981 0.0
C754 C 0.15212 0.06156 0.06596 0.0
C755 C 0.14796 0.09208 0.05704 0.0
C756 C 0.13771 0.11579 0.07462 0.0
C757 C 0.13324 0.1089 0.10079 0.0
C758 C 0.16215 0.0355 0.04784 0.0
C759 C 0.13375 0.14869 0.06601 0.0
H760 H 0.24902 0.11312 0.99251 0.0
H761 H 0.11241 0.10617 0.97044 0.0
H762 H 0.23152 0.12156 0.05883 0.0
H763 H 0.24304 0.08232 0.0516 0.0
H764 H 0.27227 0.11238 0.03498 0.0
H765 H 0.05639 0.09496 0.99999 0.0
H766 H 0.07496 0.06991 0.0252 0.0
H767 H 0.06663 0.10965 0.03181 0.0
H768 H 0.15266 0.03223 0.09918 0.0
H769 H 0.1266 0.12714 0.11436 0.0
H770 H 0.1961 0.03827 0.04023 0.0
H771 H 0.13917 0.03582 0.03126 0.0
H772 H 0.1596 0.01277 0.05732 0.0
H773 H 0.1665 0.15723 0.05958 0.0
H774 H 0.12176 0.16393 0.08154 0.0
H775 H 0.1109 0.15035 0.04945 0.0
C776 C 0.30798 0.42026 0.48983 0.0
C777 C 0.33596 0.40556 0.47246 0.0
C778 C 0.32167 0.42637 0.5151 0.0
C779 C 0.36397 0.41682 0.52342 0.0
C780 C 0.39194 0.40126 0.50604 0.0
C781 C 0.37785 0.39626 0.48064 0.0
C782 C 0.29122 0.44369 0.53272 0.0
C783 C 0.43672 0.38992 0.51427 0.0
C784 C 0.41507 0.45817 0.58086 0.0
C785 C 0.40266 0.43914 0.60139 0.0
C786 C 0.40302 0.45108 0.55547 0.0
C787 C 0.37911 0.42374 0.55014 0.0
C788 C 0.36815 0.40372 0.57052 0.0
C789 C 0.37942 0.41183 0.59583 0.0
C790 C 0.41484 0.47336 0.53442 0.0
C791 C 0.34366 0.37396 0.56564 0.0
H792 H 0.27574 0.4277 0.48339 0.0
H793 H 0.39941 0.38484 0.46716 0.0
H794 H 0.28369 0.42969 0.54989 0.0
H795 H 0.30772 0.46507 0.53946 0.0
H796 H 0.25965 0.44982 0.52323 0.0
H797 H 0.45342 0.37677 0.49889 0.0
H798 H 0.45814 0.40961 0.51979 0.0
H799 H 0.43335 0.37503 0.53137 0.0
H800 H 0.43399 0.4789 0.58457 0.0
H801 H 0.36886 0.39702 0.6113 0.0
H802 H 0.38431 0.4815 0.52491 0.0
H803 H 0.43493 0.46177 0.51961 0.0
H804 H 0.43359 0.49361 0.54168 0.0
H805 H 0.30977 0.37883 0.55877 0.0
H806 H 0.3413 0.35956 0.58312 0.0
H807 H 0.36039 0.36061 0.55042 0.0
C808 C 0.65945 0.4169 0.04644 0.0
C809 C 0.66563 0.39002 0.06069 0.0
C810 C 0.64752 0.41554 0.02036 0.0
C811 C 0.64122 0.38662 1.00834 0.0
C812 C 0.64502 0.35952 0.0231 0.0
C813 C 0.65742 0.36155 0.04899 0.0
C814 C 0.64412 0.44497 1.00535 0.0
C815 C 0.63799 0.32822 1.01125 0.0
C816 C 0.58708 0.37629 0.94273 0.0
C817 C 0.62391 0.37039 0.92736 0.0
C818 C 0.5921 0.38303 0.969 0.0
C819 C 0.63498 0.38423 0.97997 0.0
C820 C 0.67229 0.38018 0.96403 0.0
C821 C 0.66626 0.37305 0.93802 0.0
C822 C 0.55148 0.38701 0.98528 0.0
C823 C 0.71863 0.38177 0.97472 0.0
H824 H 0.66612 0.43896 0.05534 0.0
H825 H 0.66178 0.34073 0.06001 0.0
H826 H 0.67228 0.4467 0.99188 0.0
H827 H 0.6134 0.44511 0.99375 0.0
H828 H 0.64458 0.46551 0.01799 0.0
H829 H 0.63806 0.30964 0.02578 0.0
H830 H 0.60615 0.32737 1.00071 0.0
H831 H 0.66458 0.32363 0.99721 0.0
H832 H 0.5543 0.37395 0.93453 0.0
H833 H 0.69474 0.36853 0.92609 0.0
H834 H 0.5549 0.40755 0.99773 0.0
H835 H 0.54752 0.36683 0.998 0.0
H836 H 0.52109 0.38926 0.9735 0.0
H837 H 0.72333 0.40304 0.98616 0.0
H838 H 0.74402 0.38122 0.95942 0.0
H839 H 0.72414 0.36205 0.9877 0.0
C840 C 0.84915 0.16614 0.54915 0.0
C841 C 0.85161 0.13879 0.56324 0.0
C842 C 0.86565 0.16808 0.52409 0.0
C843 C 0.88603 0.14223 0.51285 0.0
C844 C 0.8901 0.11487 0.52721 0.0
C845 C 0.87254 0.11339 0.55211 0.0
C846 C 0.86035 0.19765 0.50942 0.0
C847 C 0.91221 0.08695 0.51609 0.0
C848 C 0.88712 0.13902 0.43997 0.0
C849 C 0.92888 0.15131 0.43436 0.0
C850 C 0.87308 0.13539 0.46543 0.0
C851 C 0.90181 0.14373 0.4858 0.0
C852 C 0.94469 0.15504 0.48021 0.0
C853 C 0.95752 0.159 0.45457 0.0
C854 C 0.82688 0.1237 0.4705 0.0
C855 C 0.97668 0.16356 0.50132 0.0
H856 H 0.83392 0.18612 0.55765 0.0
H857 H 0.8742 0.09199 0.56256 0.0
H858 H 0.89309 0.20646 0.50327 0.0
H859 H 0.84054 0.19339 0.49184 0.0
H860 H 0.84387 0.2157 0.52091 0.0
H861 H 0.91566 0.06825 0.53035 0.0
H862 H 0.89268 0.07813 0.49961 0.0
H863 H 0.94546 0.09315 0.50878 0.0
H864 H 0.86476 0.13332 0.42439 0.0
H865 H 0.98999 0.16827 0.45027 0.0
H866 H 0.80764 0.1417 0.48044 0.0
H867 H 0.82787 0.10347 0.48332 0.0
H868 H 0.80922 0.11715 0.45261 0.0
H869 H 0.96383 0.18339 0.51228 0.0
H870 H 0.00987 0.1697 0.49383 0.0
H871 H 0.98011 0.14421 0.51494 0.0
C872 C 0.82141 0.92617 0.04377 0.0
C873 C 0.84029 0.90003 0.05472 0.0
C874 C 0.82891 0.93367 0.01795 0.0
C875 C 0.85673 0.91494 1.00284 0.0
C876 C 0.87568 0.88841 1.01381 0.0
C877 C 0.86694 0.88115 0.03953 0.0
C878 C 0.80745 0.96186 1.00692 0.0
C879 C 0.90623 0.86818 0.99859 0.0
C880 C 0.85118 0.92323 0.93013 0.0
C881 C 0.88511 0.94456 0.92567 0.0
C882 C 0.84182 0.91303 0.95512 0.0
C883 C 0.86762 0.92399 0.97599 0.0
C884 C 0.90309 0.9446 0.9713 0.0
C885 C 0.91104 0.9549 0.94626 0.0
C886 C 0.80332 0.89146 0.95932 0.0
C887 C 0.93207 0.95634 0.99282 0.0
H888 H 0.80059 0.94069 0.05542 0.0
H889 H 0.88203 0.86111 0.04802 0.0
H890 H 0.83318 0.97885 1.00145 0.0
H891 H 0.78879 0.95576 0.98929 0.0
H892 H 0.78457 0.9729 0.02068 0.0
H893 H 0.91713 0.84784 1.00963 0.0
H894 H 0.88965 0.86017 0.9808 0.0
H895 H 0.93586 0.88155 0.99277 0.0
H896 H 0.83088 0.91551 0.91421 0.0
H897 H 0.93732 0.97138 0.94274 0.0
H898 H 0.7781 0.90291 0.97131 0.0
H899 H 0.81424 0.87078 0.96984 0.0
H900 H 0.78763 0.8841 0.94104 0.0
H901 H 0.91225 0.97047 1.00616 0.0
H902 H 0.96012 0.9705 0.98575 0.0
H903 H 0.94542 0.93684 1.00396 0.0
C904 C 0.66728 0.59396 0.5491 0.0
C905 C 0.65347 0.62124 0.5608 0.0
C906 C 0.65581 0.58705 0.52364 0.0
C907 C 0.62957 0.60782 0.50954 0.0
C908 C 0.61598 0.63561 0.52113 0.0
C909 C 0.62825 0.64205 0.54659 0.0
C910 C 0.67141 0.55736 0.51193 0.0
C911 C 0.58772 0.65823 0.50681 0.0
C912 C 0.62905 0.60121 0.43683 0.0
C913 C 0.59044 0.58399 0.43232 0.0
C914 C 0.64207 0.60927 0.46182 0.0
C915 C 0.61568 0.60011 0.48284 0.0
C916 C 0.57643 0.58298 0.4784 0.0
C917 C 0.56441 0.57502 0.45322 0.0
C918 C 0.68437 0.62724 0.46575 0.0
C919 C 0.54717 0.57301 0.50026 0.0
H920 H 0.68715 0.57795 0.55992 0.0
H921 H 0.61708 0.663 0.55563 0.0
H922 H 0.64258 0.54282 0.50659 0.0
H923 H 0.69013 0.5621 0.49412 0.0
H924 H 0.6928 0.54417 0.52518 0.0
H925 H 0.5808 0.67911 0.51832 0.0
H926 H 0.60428 0.66526 0.48881 0.0
H927 H 0.55586 0.64723 0.50142 0.0
H928 H 0.64957 0.60791 0.42078 0.0
H929 H 0.53428 0.56203 0.44984 0.0
H930 H 0.70758 0.6138 0.47767 0.0
H931 H 0.67757 0.64886 0.47622 0.0
H932 H 0.70083 0.63299 0.44737 0.0
H933 H 0.56582 0.5579 0.51342 0.0
H934 H 0.51723 0.56045 0.49355 0.0
H935 H 0.53671 0.59331 0.5115 0.0
C936 C 0.36496 0.66095 0.98473 0.0
C937 C 0.34428 0.63535 0.97333 0.0
C938 C 0.37811 0.66069 1.01048 0.0
C939 C 0.37148 0.63392 0.02529 0.0
C940 C 0.35091 0.60787 1.01401 0.0
C941 C 0.33733 0.60894 0.9882 0.0
C942 C 0.39976 0.68905 0.02173 0.0
C943 C 0.3438 0.57877 0.0291 0.0
C944 C 0.44927 0.63046 0.08225 0.0
C945 C 0.42273 0.64176 0.10204 0.0
C946 C 0.43218 0.62589 0.05751 0.0
C947 C 0.38761 0.6333 0.05231 0.0
C948 C 0.36012 0.64341 0.07251 0.0
C949 C 0.37797 0.64732 0.09721 0.0
C950 C 0.46244 0.61454 0.03667 0.0
C951 C 0.3126 0.65187 0.06774 0.0
H952 H 0.37181 0.68119 0.97337 0.0
H953 H 0.32121 0.58909 0.97969 0.0
H954 H 0.38196 0.69636 0.03922 0.0
H955 H 0.4342 0.68388 0.02744 0.0
H956 H 0.40041 0.70852 1.00804 0.0
H957 H 0.32672 0.56068 0.0177 0.0
H958 H 0.37606 0.56979 0.03567 0.0
H959 H 0.32398 0.58361 0.04645 0.0
H960 H 0.48377 0.62576 0.08605 0.0
H961 H 0.35743 0.65617 0.11247 0.0
H962 H 0.46925 0.63339 0.02296 0.0
H963 H 0.44645 0.59558 0.02577 0.0
H964 H 0.49441 0.60633 0.04442 0.0
H965 H 0.31138 0.67294 0.05588 0.0
H966 H 0.29444 0.65617 0.08583 0.0
H967 H 0.29533 0.63341 0.05691 0.0
C968 C 0.10734 0.90015 0.47531 0.0
C969 C 0.14818 0.88909 0.46689 0.0
C970 C 0.09963 0.90595 0.50142 0.0
C971 C 0.13386 0.90112 0.51946 0.0
C972 C 0.17528 0.89017 0.51098 0.0
C973 C 0.18177 0.88401 0.48485 0.0
C974 C 0.05479 0.91703 0.50971 0.0
C975 C 0.21293 0.88526 0.52949 0.0
C976 C 0.13385 0.94352 0.58316 0.0
C977 C 0.12272 0.92007 0.60046 0.0
C978 C 0.13653 0.93786 0.55674 0.0
C979 C 0.12697 0.90813 0.54716 0.0
C980 C 0.11329 0.88477 0.56428 0.0
C981 C 0.11161 0.89094 0.59073 0.0
C982 C 0.15141 0.96341 0.5392 0.0
C983 C 0.10204 0.85291 0.55478 0.0
H984 H 0.08114 0.90374 0.46148 0.0
H985 H 0.21342 0.87561 0.47835 0.0
H986 H 0.04059 0.90106 0.52406 0.0
H987 H 0.05794 0.93983 0.51905 0.0
H988 H 0.03137 0.91891 0.49339 0.0
H989 H 0.24315 0.87688 0.51981 0.0
H990 H 0.22101 0.90709 0.53951 0.0
H991 H 0.20309 0.86836 0.54431 0.0
H992 H 0.14149 0.9663 0.59036 0.0
H993 H 0.10329 0.87256 0.60383 0.0
H994 H 0.12715 0.96659 0.52351 0.0
H995 H 0.18332 0.95725 0.53023 0.0
H996 H 0.15572 0.98557 0.5495 0.0
H997 H 0.07818 0.85407 0.53866 0.0
H998 H 0.08774 0.83826 0.57009 0.0
H999 H 0.13227 0.84174 0.54744 0.0
C1000 C 0.12491 0.30564 0.35501 0.0
C1001 C 0.16442 0.30487 0.36914 0.0
C1002 C 0.11024 0.28022 0.34069 0.0
C1003 C 0.13598 0.25327 0.33997 0.0
C1004 C 0.17731 0.25294 0.35284 0.0
C1005 C 0.191 0.27872 0.36736 0.0
C1006 C 0.06604 0.28177 0.3273 0.0
C1007 C 0.20609 0.22487 0.35226 0.0
C1008 C 0.06882 0.18046 0.32734 0.0
C1009 C 0.07332 0.17686 0.30081 0.0
C1010 C 0.09071 0.20434 0.34054 0.0
C1011 C 0.118 0.22518 0.32689 0.0
C1012 C 0.12424 0.22076 0.30026 0.0
C1013 C 0.10172 0.19674 0.28757 0.0
C1014 C 0.08318 0.20796 0.36894 0.0
C1015 C 0.15331 0.24217 0.28497 0.0
H1016 H 0.10452 0.32594 0.35588 0.0
H1017 H 0.22143 0.27782 0.37828 0.0
H1018 H 0.0696 0.27577 0.30675 0.0
H1019 H 0.04298 0.26477 0.33587 0.0
H1020 H 0.05098 0.30486 0.32873 0.0
H1021 H 0.23931 0.22944 0.36055 0.0
H1022 H 0.19013 0.20618 0.36335 0.0
H1023 H 0.20998 0.21649 0.33232 0.0
H1024 H 0.04792 0.1646 0.33777 0.0
H1025 H 0.10487 0.19447 0.26712 0.0
H1026 H 0.06366 0.22897 0.3725 0.0
H1027 H 0.11508 0.21077 0.37918 0.0
H1028 H 0.06521 0.18802 0.37723 0.0
H1029 H 0.13887 0.26547 0.28483 0.0
H1030 H 0.15727 0.23439 0.26486 0.0
H1031 H 0.18642 0.24407 0.29399 0.0
C1032 C 0.40239 0.21253 0.86973 0.0
C1033 C 0.3584 0.20961 0.878 0.0
C1034 C 0.41647 0.23759 0.85504 0.0
C1035 C 0.38544 0.25966 0.84702 0.0
C1036 C 0.34033 0.25572 0.85346 0.0
C1037 C 0.32742 0.23104 0.86925 0.0
C1038 C 0.46497 0.24092 0.84876 0.0
C1039 C 0.30595 0.27799 0.84419 0.0
C1040 C 0.43079 0.33935 0.83215 0.0
C1041 C 0.43797 0.33748 0.80567 0.0
C1042 C 0.41299 0.31438 0.84578 0.0
C1043 C 0.40094 0.28714 0.83252 0.0
C1044 C 0.40752 0.28531 0.80574 0.0
C1045 C 0.42689 0.31018 0.79284 0.0
C1046 C 0.40837 0.31683 0.87449 0.0
C1047 C 0.39391 0.25717 0.79064 0.0
H1048 H 0.42644 0.19553 0.87531 0.0
H1049 H 0.29336 0.2292 0.87536 0.0
H1050 H 0.46972 0.24081 0.82771 0.0
H1051 H 0.47772 0.26323 0.85609 0.0
H1052 H 0.48509 0.22225 0.85716 0.0
H1053 H 0.27187 0.26998 0.84849 0.0
H1054 H 0.31126 0.30064 0.85346 0.0
H1055 H 0.30905 0.28141 0.82321 0.0
H1056 H 0.43961 0.36021 0.84236 0.0
H1057 H 0.43384 0.30802 0.77266 0.0
H1058 H 0.42875 0.29901 0.88386 0.0
H1059 H 0.3736 0.3126 0.88014 0.0
H1060 H 0.41882 0.33968 0.8819 0.0
H1061 H 0.4063 0.23598 0.79979 0.0
H1062 H 0.40609 0.25788 0.77061 0.0
H1063 H 0.35734 0.25552 0.79022 0.0
C1064 C 0.68345 0.2416 0.66544 0.0
C1065 C 0.65663 0.21566 0.66125 0.0
C1066 C 0.66904 0.26593 0.68102 0.0
C1067 C 0.62685 0.26426 0.69262 0.0
C1068 C 0.60078 0.23739 0.68958 0.0
C1069 C 0.61603 0.21344 0.67403 0.0
C1070 C 0.698 0.29406 0.68399 0.0
C1071 C 0.55572 0.23453 0.70171 0.0
C1072 C 0.5912 0.31895 0.74554 0.0
C1073 C 0.56523 0.33996 0.73193 0.0
C1074 C 0.61283 0.29482 0.73294 0.0
C1075 C 0.60809 0.2914 0.7061 0.0
C1076 C 0.58285 0.31294 0.69219 0.0
C1077 C 0.56194 0.33696 0.70522 0.0
C1078 C 0.63973 0.27251 0.74844 0.0
C1079 C 0.57681 0.31009 0.66356 0.0
H1080 H 0.71474 0.24357 0.65554 0.0
H1081 H 0.59549 0.19321 0.67124 0.0
H1082 H 0.68301 0.31352 0.67353 0.0
H1083 H 0.70051 0.30085 0.70443 0.0
H1084 H 0.73177 0.29036 0.6764 0.0
H1085 H 0.54094 0.21134 0.69897 0.0
H1086 H 0.5578 0.23944 0.72253 0.0
H1087 H 0.53318 0.25168 0.69317 0.0
H1088 H 0.59414 0.32097 0.76616 0.0
H1089 H 0.5423 0.35309 0.6944 0.0
H1090 H 0.67302 0.26988 0.73995 0.0
H1091 H 0.62354 0.24959 0.74808 0.0
H1092 H 0.64348 0.27991 0.76871 0.0
H1093 H 0.60939 0.30916 0.65397 0.0
H1094 H 0.55785 0.32949 0.6554 0.0
H1095 H 0.55904 0.28839 0.65899 0.0
C1096 C 0.81814 0.28803 0.17661 0.0
C1097 C 0.84966 0.308 0.16589 0.0
C1098 C 0.83068 0.2651 0.19412 0.0
C1099 C 0.87589 0.26144 0.20041 0.0
C1100 C 0.90727 0.28279 0.19099 0.0
C1101 C 0.89362 0.30613 0.1744 0.0
C1102 C 0.79584 0.24376 0.20473 0.0
C1103 C 0.95592 0.27959 0.19678 0.0
C1104 C 0.92286 0.20868 0.25167 0.0
C1105 C 0.93359 0.18269 0.2371 0.0
C1106 C 0.90114 0.23378 0.24045 0.0
C1107 C 0.89152 0.23333 0.21387 0.0
C1108 C 0.90078 0.20665 0.19939 0.0
C1109 C 0.9204 0.18143 0.21135 0.0
C1110 C 0.88978 0.26108 0.2569 0.0
C1111 C 0.89212 0.20524 0.1709 0.0
H1112 H 0.78404 0.28922 0.17042 0.0
H1113 H 0.91805 0.32212 0.16709 0.0
H1114 H 0.79656 0.22164 0.1942 0.0
H1115 H 0.80224 0.23882 0.22524 0.0
H1116 H 0.76222 0.2535 0.20276 0.0
H1117 H 0.97584 0.29889 0.18894 0.0
H1118 H 0.96159 0.27842 0.21772 0.0
H1119 H 0.96812 0.25787 0.18835 0.0
H1120 H 0.93209 0.20965 0.27173 0.0
H1121 H 0.9267 0.16094 0.20019 0.0
H1122 H 0.85648 0.26978 0.25201 0.0
H1123 H 0.91383 0.27991 0.2534 0.0
H1124 H 0.8907 0.25538 0.27762 0.0
H1125 H 0.85673 0.20938 0.16687 0.0
H1126 H 0.90126 0.18277 0.16244 0.0
H1127 H 0.91136 0.22353 0.16112 0.0
C1128 C 0.7862 0.74154 0.69199 0.0
C1129 C 0.78369 0.74349 0.66527 0.0
C1130 C 0.81856 0.75819 0.70573 0.0
C1131 C 0.84879 0.77728 0.69235 0.0
C1132 C 0.84813 0.77748 0.66522 0.0
C1133 C 0.81543 0.76072 0.65203 0.0
C1134 C 0.81787 0.75723 0.73461 0.0
C1135 C 0.87971 0.79734 0.65013 0.0
C1136 C 0.8875 0.85189 0.72314 0.0
C1137 C 0.93092 0.84513 0.73033 0.0
C1138 C 0.86026 0.82977 0.71141 0.0
C1139 C 0.87692 0.80008 0.70643 0.0
C1140 C 0.92077 0.79301 0.71373 0.0
C1141 C 0.94735 0.81569 0.72553 0.0
C1142 C 0.81367 0.83834 0.70417 0.0
C1143 C 0.93955 0.76156 0.70903 0.0
H1144 H 0.76115 0.72861 0.70222 0.0
H1145 H 0.81305 0.76246 0.63136 0.0
H1146 H 0.85175 0.75821 0.74271 0.0
H1147 H 0.7997 0.77744 0.74186 0.0
H1148 H 0.80094 0.73624 0.74174 0.0
H1149 H 0.87845 0.79214 0.6293 0.0
H1150 H 0.87123 0.82184 0.65295 0.0
H1151 H 0.91405 0.79423 0.65702 0.0
H1152 H 0.8749 0.87475 0.72639 0.0
H1153 H 0.98084 0.8103 0.73122 0.0
H1154 H 0.78988 0.82327 0.71438 0.0
H1155 H 0.80839 0.83483 0.68333 0.0
H1156 H 0.80608 0.86258 0.70893 0.0
H1157 H 0.91829 0.74387 0.71816 0.0
H1158 H 0.97367 0.75936 0.71662 0.0
H1159 H 0.93989 0.75662 0.68818 0.0
C1160 C 0.75043 0.74474 0.17921 0.0
C1161 C 0.74005 0.76611 0.16013 0.0
C1162 C 0.71743 0.72796 0.19188 0.0
C1163 C 0.67248 0.73296 0.18577 0.0
C1164 C 0.66156 0.7555 0.16728 0.0
C1165 C 0.6955 0.77184 0.15467 0.0
C1166 C 0.73117 0.7051 0.21195 0.0
C1167 C 0.61409 0.76165 0.16031 0.0
C1168 C 0.59533 0.66587 0.20085 0.0
C1169 C 0.57833 0.67443 0.22475 0.0
C1170 C 0.62461 0.68524 0.1875 0.0
C1171 C 0.63734 0.7139 0.19828 0.0
C1172 C 0.61903 0.72305 0.22199 0.0
C1173 C 0.58951 0.70334 0.23478 0.0
C1174 C 0.64354 0.6744 0.16239 0.0
C1175 C 0.63182 0.75317 0.23436 0.0
H1176 H 0.78478 0.74063 0.18388 0.0
H1177 H 0.68725 0.78817 0.13982 0.0
H1178 H 0.72809 0.71613 0.23098 0.0
H1179 H 0.70999 0.68422 0.2117 0.0
H1180 H 0.76608 0.69803 0.20957 0.0
H1181 H 0.61091 0.78084 0.14649 0.0
H1182 H 0.59897 0.74073 0.15175 0.0
H1183 H 0.59494 0.76724 0.17778 0.0
H1184 H 0.5867 0.64362 0.19288 0.0
H1185 H 0.57544 0.71052 0.25283 0.0
H1186 H 0.67954 0.67063 0.16465 0.0
H1187 H 0.63918 0.69217 0.14744 0.0
H1188 H 0.6279 0.65269 0.15565 0.0
H1189 H 0.66628 0.75178 0.2415 0.0
H1190 H 0.61007 0.75893 0.25075 0.0
H1191 H 0.63055 0.77211 0.22023 0.0
C1192 C 0.30456 0.77569 0.36078 0.0
C1193 C 0.26184 0.76322 0.35856 0.0
C1194 C 0.34036 0.76252 0.34767 0.0
C1195 C 0.33333 0.7361 0.33226 0.0
C1196 C 0.28992 0.72451 0.32887 0.0
C1197 C 0.25479 0.7384 0.34179 0.0
C1198 C 0.386 0.77598 0.3513 0.0
C1199 C 0.28082 0.69634 0.3127 0.0
C1200 C 0.41632 0.70478 0.28443 0.0
C1201 C 0.43501 0.68056 0.29829 0.0
C1202 C 0.38495 0.72421 0.29567 0.0
C1203 C 0.37128 0.71892 0.32121 0.0
C1204 C 0.39114 0.69511 0.33552 0.0
C1205 C 0.42301 0.67642 0.32397 0.0
C1206 C 0.36527 0.74968 0.27991 0.0
C1207 C 0.37712 0.68833 0.36267 0.0
H1208 H 0.31042 0.7948 0.3737 0.0
H1209 H 0.22175 0.72905 0.33946 0.0
H1210 H 0.40611 0.76026 0.36315 0.0
H1211 H 0.40285 0.77849 0.33258 0.0
H1212 H 0.38519 0.79873 0.36093 0.0
H1213 H 0.24496 0.69118 0.31094 0.0
H1214 H 0.29466 0.69933 0.29323 0.0
H1215 H 0.29726 0.67619 0.32138 0.0
H1216 H 0.42572 0.70828 0.26464 0.0
H1217 H 0.43709 0.65767 0.33478 0.0
H1218 H 0.36555 0.7715 0.29091 0.0
H1219 H 0.33034 0.74408 0.27535 0.0
H1220 H 0.38331 0.75326 0.26166 0.0
H1221 H 0.37945 0.70939 0.37457 0.0
H1222 H 0.39752 0.67022 0.37167 0.0
H1223 H 0.3421 0.68065 0.3628 0.0
C1224 C 0.23963 0.76524 0.83413 0.0
C1225 C 0.23101 0.74668 0.85544 0.0
C1226 C 0.20564 0.78066 0.82145 0.0
C1227 C 0.16162 0.7773 0.83012 0.0
C1228 C 0.15218 0.75649 0.85024 0.0
C1229 C 0.18709 0.74146 0.86277 0.0
C1230 C 0.21796 0.80263 0.80034 0.0
C1231 C 0.10557 0.75157 0.85956 0.0
C1232 C 0.09022 0.84773 0.82112 0.0
C1233 C 0.06821 0.8409 0.79816 0.0
C1234 C 0.11977 0.82685 0.83205 0.0
C1235 C 0.12676 0.7981 0.82004 0.0
C1236 C 0.10307 0.79056 0.79742 0.0
C1237 C 0.07441 0.81222 0.78657 0.0
C1238 C 0.14506 0.83618 0.85582 0.0
C1239 C 0.10939 0.76015 0.78414 0.0
H1240 H 0.2735 0.76896 0.82813 0.0
H1241 H 0.1802 0.72709 0.87922 0.0
H1242 H 0.19203 0.80388 0.78537 0.0
H1243 H 0.22243 0.82581 0.80883 0.0
H1244 H 0.24956 0.79614 0.79112 0.0
H1245 H 0.10289 0.7315 0.87255 0.0
H1246 H 0.09454 0.77226 0.8701 0.0
H1247 H 0.08272 0.74812 0.84314 0.0
H1248 H 0.08581 0.87003 0.82997 0.0
H1249 H 0.05724 0.8069 0.76885 0.0
H1250 H 0.18084 0.83754 0.8514 0.0
H1251 H 0.14068 0.81869 0.87102 0.0
H1252 H 0.13442 0.85876 0.86342 0.0
H1253 H 0.14315 0.75916 0.77601 0.0
H1254 H 0.08517 0.75646 0.76839 0.0
H1255 H 0.1062 0.74107 0.79806 0.0
loop_
_geom_bond_atom_site_label_1
_geom_bond_atom_site_label_2
_geom_bond_distance
_geom_bond_site_symmetry_2
_ccdc_geom_bond_type
H0 C1 0.949 . S
C1 H0 0.949 . S
C1 C2 1.395 . S
C1 C3 1.391 . S
C2 C1 1.395 . S
C2 C5 1.390 . S
C3 C1 1.391 . S
C3 C7 1.387 . S
C3 C8 1.491 . S
H4 C5 0.950 . S
C5 C2 1.390 . S
C5 H4 0.950 . S
C5 C6 1.378 . S
C6 C5 1.378 . S
C6 C7 1.409 . S
C7 C3 1.387 . S
C7 C6 1.409 . S
C7 H9 0.951 . S
C8 C3 1.491 . S
C8 C10 1.382 . S
C8 C12 1.404 . S
H9 C7 0.951 . S
C10 C8 1.382 . S
C10 C11 1.390 . S
C10 H15 0.949 . S
C11 C10 1.390 . S
C11 C16 1.399 . S
C12 C8 1.404 . S
C12 H13 0.950 . S
C12 C14 1.375 . S
H13 C12 0.950 . S
C14 C12 1.375 . S
C14 C16 1.382 . S
C14 H18 0.950 . S
H15 C10 0.949 . S
C16 C11 1.399 . S
C16 C14 1.382 . S
C16 H17 0.952 . S
H17 C16 0.952 . S
H18 C14 0.950 . S
H19 C20 0.949 . S
C20 H19 0.949 . S
C20 C21 1.395 . S
C20 C22 1.391 . S
C21 C20 1.395 . S
C21 C24 1.390 . S
C22 C20 1.391 . S
C22 C26 1.387 . S
C22 C27 1.491 . S
H23 C24 0.950 . S
C24 C21 1.390 . S
C24 H23 0.950 . S
C24 C25 1.378 . S
C25 C24 1.378 . S
C25 C26 1.409 . S
C26 C22 1.387 . S
C26 C25 1.409 . S
C26 H28 0.951 . S
C27 C22 1.491 . S
C27 C29 1.382 . S
C27 C31 1.404 . S
H28 C26 0.951 . S
C29 C27 1.382 . S
C29 C30 1.390 . S
C29 H34 0.949 . S
C30 C29 1.390 . S
C30 C35 1.399 . S
C31 C27 1.404 . S
C31 H32 0.950 . S
C31 C33 1.375 . S
H32 C31 0.950 . S
C33 C31 1.375 . S
C33 C35 1.382 . S
C33 H37 0.950 . S
H34 C29 0.949 . S
C35 C30 1.399 . S
C35 C33 1.382 . S
C35 H36 0.952 . S
H36 C35 0.952 . S
H37 C33 0.950 . S
H38 C39 0.949 . S
C39 H38 0.949 . S
C39 C40 1.395 . S
C39 C41 1.391 . S
C40 C39 1.395 . S
C40 C43 1.390 . S
C41 C39 1.391 . S
C41 C45 1.387 . S
C41 C46 1.491 . S
H42 C43 0.950 . S
C43 C40 1.390 . S
C43 H42 0.950 . S
C43 C44 1.378 . S
C44 C43 1.378 . S
C44 C45 1.409 . S
C45 C41 1.387 . S
C45 C44 1.409 . S
C45 H47 0.951 . S
C46 C41 1.491 . S
C46 C48 1.382 . S
C46 C50 1.404 . S
H47 C45 0.951 . S
C48 C46 1.382 . S
C48 C49 1.390 . S
C48 H53 0.949 . S
C49 C48 1.390 . S
C49 C54 1.399 . S
C50 C46 1.404 . S
C50 H51 0.950 . S
C50 C52 1.375 . S
H51 C50 0.950 . S
C52 C50 1.375 . S
C52 C54 1.382 . S
C52 H56 0.950 . S
H53 C48 0.949 . S
C54 C49 1.399 . S
C54 C52 1.382 . S
C54 H55 0.952 . S
H55 C54 0.952 . S
H56 C52 0.950 . S
H57 C58 0.949 . S
C58 H57 0.949 . S
C58 C59 1.395 . S
C58 C60 1.391 . S
C59 C58 1.395 . S
C59 C62 1.390 . S
C60 C58 1.391 . S
C60 C64 1.387 . S
C60 C65 1.491 . S
H61 C62 0.950 . S
C62 C59 1.390 . S
C62 H61 0.950 . S
C62 C63 1.378 . S
C63 C62 1.378 . S
C63 C64 1.409 . S
C64 C60 1.387 . S
C64 C63 1.409 . S
C64 H66 0.951 . S
C65 C60 1.491 . S
C65 C67 1.382 . S
C65 C69 1.404 . S
H66 C64 0.951 . S
C67 C65 1.382 . S
C67 C68 1.390 . S
C67 H72 0.949 . S
C68 C67 1.390 . S
C68 C73 1.399 . S
C69 C65 1.404 . S
C69 H70 0.950 . S
C69 C71 1.375 . S
H70 C69 0.950 . S
C71 C69 1.375 . S
C71 C73 1.382 . S
C71 H75 0.950 . S
H72 C67 0.949 . S
C73 C68 1.399 . S
C73 C71 1.382 . S
C73 H74 0.952 . S
H74 C73 0.952 . S
H75 C71 0.950 . S
H76 C77 0.949 . S
C77 H76 0.949 . S
C77 C78 1.395 . S
C77 C79 1.391 . S
C78 C77 1.395 . S
C78 C81 1.390 . S
C79 C77 1.391 . S
C79 C83 1.387 . S
C79 C84 1.491 . S
H80 C81 0.950 . S
C81 C78 1.390 . S
C81 H80 0.950 . S
C81 C82 1.378 . S
C82 C81 1.378 . S
C82 C83 1.409 . S
C83 C79 1.387 . S
C83 C82 1.409 . S
C83 H85 0.951 . S
C84 C79 1.491 . S
C84 C86 1.382 . S
C84 C88 1.404 . S
H85 C83 0.951 . S
C86 C84 1.382 . S
C86 C87 1.390 . S
C86 H91 0.949 . S
C87 C86 1.390 . S
C87 C92 1.399 . S
C88 C84 1.404 . S
C88 H89 0.950 . S
C88 C90 1.375 . S
H89 C88 0.950 . S
C90 C88 1.375 . S
C90 C92 1.382 . S
C90 H94 0.950 . S
H91 C86 0.949 . S
C92 C87 1.399 . S
C92 C90 1.382 . S
C92 H93 0.952 . S
H93 C92 0.952 . S
H94 C90 0.950 . S
H95 C96 0.949 . S
C96 H95 0.949 . S
C96 C97 1.395 . S
C96 C98 1.391 . S
C97 C96 1.395 . S
C97 C100 1.390 . S
C98 C96 1.391 . S
C98 C102 1.387 . S
C98 C103 1.491 . S
H99 C100 0.950 . S
C100 C97 1.390 . S
C100 H99 0.950 . S
C100 C101 1.378 . S
C101 C100 1.378 . S
C101 C102 1.409 . S
C102 C98 1.387 . S
C102 C101 1.409 . S
C102 H104 0.951 . S
C103 C98 1.491 . S
C103 C105 1.382 . S
C103 C107 1.404 . S
H104 C102 0.951 . S
C105 C103 1.382 . S
C105 C106 1.390 . S
C105 H110 0.949 . S
C106 C105 1.390 . S
C106 C111 1.399 . S
C107 C103 1.404 . S
C107 H108 0.950 . S
C107 C109 1.375 . S
H108 C107 0.950 . S
C109 C107 1.375 . S
C109 C111 1.382 . S
C109 H113 0.950 . S
H110 C105 0.949 . S
C111 C106 1.399 . S
C111 C109 1.382 . S
C111 H112 0.952 . S
H112 C111 0.952 . S
H113 C109 0.950 . S
H114 C115 0.949 . S
C115 H114 0.949 . S
C115 C116 1.395 . S
C115 C117 1.391 . S
C116 C115 1.395 . S
C116 C119 1.390 . S
C117 C115 1.391 . S
C117 C121 1.387 . S
C117 C122 1.491 . S
H118 C119 0.950 . S
C119 C116 1.390 . S
C119 H118 0.950 . S
C119 C120 1.378 . S
C120 C119 1.378 . S
C120 C121 1.409 . S
C121 C117 1.387 . S
C121 C120 1.409 . S
C121 H123 0.951 . S
C122 C117 1.491 . S
C122 C124 1.382 . S
C122 C126 1.404 . S
H123 C121 0.951 . S
C124 C122 1.382 . S
C124 C125 1.390 . S
C124 H129 0.949 . S
C125 C124 1.390 . S
C125 C130 1.399 . S
C126 C122 1.404 . S
C126 H127 0.950 . S
C126 C128 1.375 . S
H127 C126 0.950 . S
C128 C126 1.375 . S
C128 C130 1.382 . S
C128 H132 0.950 . S
H129 C124 0.949 . S
C130 C125 1.399 . S
C130 C128 1.382 . S
C130 H131 0.952 . S
H131 C130 0.952 . S
H132 C128 0.950 . S
H133 C134 0.949 . S
C134 H133 0.949 . S
C134 C135 1.395 . S
C134 C136 1.391 . S
C135 C134 1.395 . S
C135 C138 1.390 . S
C136 C134 1.391 . S
C136 C140 1.387 . S
C136 C141 1.491 . S
H137 C138 0.950 . S
C138 C135 1.390 . S
C138 H137 0.950 . S
C138 C139 1.378 . S
C139 C138 1.378 . S
C139 C140 1.409 . S
C140 C136 1.387 . S
C140 C139 1.409 . S
C140 H142 0.951 . S
C141 C136 1.491 . S
C141 C143 1.382 . S
C141 C145 1.404 . S
H142 C140 0.951 . S
C143 C141 1.382 . S
C143 C144 1.390 . S
C143 H148 0.949 . S
C144 C143 1.390 . S
C144 C149 1.399 . S
C145 C141 1.404 . S
C145 H146 0.950 . S
C145 C147 1.375 . S
H146 C145 0.950 . S
C147 C145 1.375 . S
C147 C149 1.382 . S
C147 H151 0.950 . S
H148 C143 0.949 . S
C149 C144 1.399 . S
C149 C147 1.382 . S
C149 H150 0.952 . S
H150 C149 0.952 . S
H151 C147 0.950 . S
Tb152 N181 2.617 . S
Tb152 N187 2.572 . S
Tb152 O196 2.465 . S
Tb152 O197 2.387 . S
Tb152 O199 2.428 . S
Tb152 O200 2.308 1_455 S
Tb152 O204 2.333 1_455 S
Tb152 O207 2.393 . S
Tb152 C216 2.802 . S
C153 N154 1.379 . S
C153 C156 1.416 . S
C153 C160 1.424 . S
N154 C153 1.379 . S
N154 C157 1.334 . S
N154 Tb163 2.617 . S
C155 C157 1.390 . S
C155 C158 1.339 . S
C155 H175 0.930 . S
C156 C153 1.416 . S
C156 C158 1.416 . S
C156 C162 1.448 . S
C157 N154 1.334 . S
C157 C155 1.390 . S
C157 H168 0.930 . S
C158 C155 1.339 . S
C158 C156 1.416 . S
C158 H179 0.930 . S
C159 C160 1.413 . S
C159 C161 1.427 . S
C159 C165 1.416 1_545 S
C160 C153 1.424 . S
C160 C159 1.413 . S
C160 N164 1.361 . S
C161 C159 1.427 . S
C161 C162 1.328 . S
C161 H176 0.929 1_545 S
C162 C156 1.448 . S
C162 C161 1.328 . S
C162 H177 0.930 . S
Tb163 N154 2.617 . S
Tb163 N164 2.572 . S
Tb163 O198 2.349 1_655 S
Tb163 O201 2.393 . S
Tb163 O202 2.465 . S
Tb163 O203 2.387 . S
Tb163 O205 2.428 . S
Tb163 O206 2.308 1_655 S
Tb163 C227 2.802 . S
N164 C160 1.361 . S
N164 Tb163 2.572 . S
N164 C166 1.340 . S
C165 C159 1.416 1_565 S
C165 C167 1.332 . S
C165 H173 0.931 . S
C166 N164 1.340 . S
C166 C167 1.407 1_545 S
C166 H172 0.930 . S
C167 C165 1.332 . S
C167 C166 1.407 1_565 S
C167 H169 0.929 . S
H168 C157 0.930 . S
H169 C167 0.929 . S
H170 C185 0.930 . S
H171 C192 0.929 . S
H172 C166 0.930 . S
H173 C165 0.931 . S
H174 C188 0.930 . S
H175 C155 0.930 . S
H176 C161 0.929 1_565 S
H177 C162 0.930 . S
H178 C183 0.930 . S
H179 C158 0.930 . S
H180 C191 0.931 . S
N181 Tb152 2.617 . S
N181 C182 1.379 . S
N181 C185 1.334 . S
C182 N181 1.379 . S
C182 C184 1.416 . S
C182 C190 1.424 . S
C183 H178 0.930 . S
C183 C185 1.390 . S
C183 C186 1.339 . S
C184 C182 1.416 . S
C184 C186 1.416 . S
C184 C217 1.448 . S
C185 H170 0.930 . S
C185 N181 1.334 . S
C185 C183 1.390 . S
C186 C183 1.339 . S
C186 C184 1.416 . S
C186 H193 0.930 . S
N187 Tb152 2.572 . S
N187 C188 1.340 . S
N187 C190 1.361 . S
C188 H174 0.930 . S
C188 N187 1.340 . S
C188 C192 1.407 . S
C189 C190 1.413 . S
C189 C191 1.416 . S
C189 C218 1.427 . S
C190 C182 1.424 . S
C190 N187 1.361 . S
C190 C189 1.413 . S
C191 H180 0.931 . S
C191 C189 1.416 . S
C191 C192 1.332 . S
C192 H171 0.929 . S
C192 C188 1.407 . S
C192 C191 1.332 . S
H193 C186 0.930 . S
H194 C217 0.930 . S
H195 C218 0.929 . S
O196 Tb152 2.465 . S
O196 C216 1.264 . S
O197 Tb152 2.387 . S
O197 C208 1.264 . S
O198 Tb163 2.349 1_455 S
O198 C208 1.243 . S
O199 Tb152 2.428 . S
O199 C216 1.256 . S
O200 Tb152 2.308 1_655 S
O200 C215 1.266 . S
O201 Tb163 2.393 . S
O201 C215 1.248 . S
O202 Tb163 2.465 . S
O202 C227 1.264 . S
O203 Tb163 2.387 . S
O203 C219 1.264 . S
O204 Tb152 2.333 1_655 S
O204 C219 1.263 . S
O205 Tb163 2.428 . S
O205 C227 1.256 . S
O206 Tb163 2.308 1_455 S
O206 C226 1.266 . S
O207 Tb152 2.393 . S
O207 C226 1.248 . S
C208 O197 1.264 . S
C208 O198 1.243 . S
C209 C212 1.399 . S
C209 C214 1.383 . S
C209 C216 1.496 . S
C210 C211 1.399 . S
C210 C214 1.389 . S
C211 C210 1.399 . S
C211 C213 1.380 . S
C211 H228 0.929 . S
C212 C209 1.399 . S
C212 C213 1.392 . S
C212 H229 0.929 . S
C213 C211 1.380 . S
C213 C212 1.392 . S
C213 H230 0.929 . S
C214 C209 1.383 . S
C214 C210 1.389 . S
C214 H231 0.931 . S
C215 O200 1.266 . S
C215 O201 1.248 . S
C216 Tb152 2.802 . S
C216 O196 1.264 . S
C216 O199 1.256 . S
C216 C209 1.496 . S
C217 C184 1.448 . S
C217 H194 0.930 . S
C217 C218 1.328 . S
C218 C189 1.427 . S
C218 H195 0.929 . S
C218 C217 1.328 . S
C219 O203 1.264 . S
C219 O204 1.263 . S
C220 C223 1.399 . S
C220 C224 1.383 . S
C220 C227 1.496 . S
C221 C222 1.399 . S
C221 C224 1.389 . S
C222 C221 1.399 . S
C222 C225 1.380 . S
C222 H232 0.929 . S
C223 C220 1.399 . S
C223 C225 1.392 . S
C223 H233 0.929 . S
C224 C220 1.383 . S
C224 C221 1.389 . S
C224 H234 0.931 . S
C225 C222 1.380 . S
C225 C223 1.392 . S
C225 H235 0.929 . S
C226 O206 1.266 . S
C226 O207 1.248 . S
C227 Tb163 2.802 . S
C227 O202 1.264 . S
C227 O205 1.256 . S
C227 C220 1.496 . S
H228 C211 0.929 . S
H229 C212 0.929 . S
H230 C213 0.929 . S
H231 C214 0.931 . S
H232 C222 0.929 . S
H233 C223 0.929 . S
H234 C224 0.931 . S
H235 C225 0.929 . S
Tb236 N265 2.617 . S
Tb236 N271 2.572 . S
Tb236 O280 2.465 . S
Tb236 O281 2.387 . S
Tb236 O283 2.428 . S
Tb236 O284 2.308 . S
Tb236 O288 2.349 . S
Tb236 O291 2.393 . S
Tb236 C300 2.802 . S
C237 N238 1.379 . S
C237 C240 1.416 . S
C237 C244 1.424 . S
N238 C237 1.379 . S
N238 C241 1.334 . S
N238 Tb247 2.617 . S
C239 C241 1.390 . S
C239 C242 1.339 . S
C239 H259 0.930 . S
C240 C237 1.416 . S
C240 C242 1.416 . S
C240 C246 1.448 . S
C241 N238 1.334 . S
C241 C239 1.390 . S
C241 H252 0.930 . S
C242 C239 1.339 . S
C242 C240 1.416 . S
C242 H263 0.930 . S
C243 C244 1.413 . S
C243 C245 1.427 . S
C243 C249 1.416 . S
C244 C237 1.424 . S
C244 C243 1.413 . S
C244 N248 1.361 . S
C245 C243 1.427 . S
C245 C246 1.328 . S
C245 H260 0.929 . S
C246 C240 1.448 . S
C246 C245 1.328 . S
C246 H261 0.930 . S
Tb247 N238 2.617 . S
Tb247 N248 2.572 . S
Tb247 O282 2.349 . S
Tb247 O285 2.393 . S
Tb247 O286 2.465 . S
Tb247 O287 2.387 . S
Tb247 O289 2.428 . S
Tb247 O290 2.308 . S
Tb247 C311 2.802 . S
N248 C244 1.361 . S
N248 Tb247 2.572 . S
N248 C250 1.340 . S
C249 C243 1.416 . S
C249 C251 1.332 . S
C249 H257 0.931 . S
C250 N248 1.340 . S
C250 C251 1.407 . S
C250 H256 0.930 . S
C251 C249 1.332 . S
C251 C250 1.407 . S
C251 H253 0.929 . S
H252 C241 0.930 . S
H253 C251 0.929 . S
H254 C269 0.930 . S
H255 C276 0.929 . S
H256 C250 0.930 . S
H257 C249 0.931 . S
H258 C272 0.930 . S
H259 C239 0.930 . S
H260 C245 0.929 . S
H261 C246 0.930 . S
H262 C267 0.930 . S
H263 C242 0.930 . S
H264 C275 0.931 . S
N265 Tb236 2.617 . S
N265 C266 1.379 . S
N265 C269 1.334 . S
C266 N265 1.379 . S
C266 C268 1.416 . S
C266 C274 1.424 . S
C267 H262 0.930 . S
C267 C269 1.390 . S
C267 C270 1.339 . S
C268 C266 1.416 . S
C268 C270 1.416 . S
C268 C301 1.448 . S
C269 H254 0.930 . S
C269 N265 1.334 . S
C269 C267 1.390 . S
C270 C267 1.339 . S
C270 C268 1.416 . S
C270 H277 0.930 . S
N271 Tb236 2.572 . S
N271 C272 1.340 . S
N271 C274 1.361 . S
C272 H258 0.930 . S
C272 N271 1.340 . S
C272 C276 1.407 . S
C273 C274 1.413 . S
C273 C275 1.416 . S
C273 C302 1.427 . S
C274 C266 1.424 . S
C274 N271 1.361 . S
C274 C273 1.413 . S
C275 H264 0.931 . S
C275 C273 1.416 . S
C275 C276 1.332 . S
C276 H255 0.929 . S
C276 C272 1.407 . S
C276 C275 1.332 . S
H277 C270 0.930 . S
H278 C301 0.930 . S
H279 C302 0.929 . S
O280 Tb236 2.465 . S
O280 C300 1.264 . S
O281 Tb236 2.387 . S
O281 C292 1.264 . S
O282 Tb247 2.349 . S
O282 C292 1.243 . S
O283 Tb236 2.428 . S
O283 C300 1.256 . S
O284 Tb236 2.308 . S
O284 C299 1.266 . S
O285 Tb247 2.393 . S
O285 C299 1.248 . S
O286 Tb247 2.465 . S
O286 C311 1.264 . S
O287 Tb247 2.387 . S
O287 C303 1.264 . S
O288 Tb236 2.349 . S
O288 C303 1.243 . S
O289 Tb247 2.428 . S
O289 C311 1.256 . S
O290 Tb247 2.308 . S
O290 C310 1.266 . S
O291 Tb236 2.393 . S
O291 C310 1.248 . S
C292 O281 1.264 . S
C292 O282 1.243 . S
C293 C296 1.399 . S
C293 C298 1.383 . S
C293 C300 1.496 . S
C294 C295 1.399 . S
C294 C298 1.389 . S
C295 C294 1.399 . S
C295 C297 1.380 . S
C295 H312 0.929 . S
C296 C293 1.399 . S
C296 C297 1.392 . S
C296 H313 0.929 . S
C297 C295 1.380 . S
C297 C296 1.392 . S
C297 H314 0.929 . S
C298 C293 1.383 . S
C298 C294 1.389 . S
C298 H315 0.931 . S
C299 O284 1.266 . S
C299 O285 1.248 . S
C300 Tb236 2.802 . S
C300 O280 1.264 . S
C300 O283 1.256 . S
C300 C293 1.496 . S
C301 C268 1.448 . S
C301 H278 0.930 . S
C301 C302 1.328 . S
C302 C273 1.427 . S
C302 H279 0.929 . S
C302 C301 1.328 . S
C303 O287 1.264 . S
C303 O288 1.243 . S
C304 C307 1.399 . S
C304 C308 1.383 . S
C304 C311 1.496 . S
C305 C306 1.399 . S
C305 C308 1.389 . S
C306 C305 1.399 . S
C306 C309 1.380 . S
C306 H316 0.929 . S
C307 C304 1.399 . S
C307 C309 1.392 . S
C307 H317 0.929 . S
C308 C304 1.383 . S
C308 C305 1.389 . S
C308 H318 0.931 . S
C309 C306 1.380 . S
C309 C307 1.392 . S
C309 H319 0.929 . S
C310 O290 1.266 . S
C310 O291 1.248 . S
C311 Tb247 2.802 . S
C311 O286 1.264 . S
C311 O289 1.256 . S
C311 C304 1.496 . S
H312 C295 0.929 . S
H313 C296 0.929 . S
H314 C297 0.929 . S
H315 C298 0.931 . S
H316 C306 0.929 . S
H317 C307 0.929 . S
H318 C308 0.931 . S
H319 C309 0.929 . S
Tb320 N349 2.617 . S
Tb320 N355 2.572 . S
Tb320 O364 2.465 . S
Tb320 O365 2.387 . S
Tb320 O367 2.428 . S
Tb320 O368 2.322 . S
Tb320 O372 2.349 . S
Tb320 O375 2.393 . S
Tb320 C384 2.802 . S
C321 N322 1.379 . S
C321 C324 1.416 . S
C321 C328 1.424 . S
N322 C321 1.379 . S
N322 C325 1.334 . S
N322 Tb331 2.617 . S
C323 C325 1.390 . S
C323 C326 1.339 . S
C323 H343 0.930 . S
C324 C321 1.416 . S
C324 C326 1.416 . S
C324 C330 1.448 . S
C325 N322 1.334 . S
C325 C323 1.390 . S
C325 H336 0.930 . S
C326 C323 1.339 . S
C326 C324 1.416 . S
C326 H347 0.930 . S
C327 C328 1.413 . S
C327 C329 1.427 . S
C327 C333 1.416 . S
C328 C321 1.424 . S
C328 C327 1.413 . S
C328 N332 1.361 . S
C329 C327 1.427 . S
C329 C330 1.328 . S
C329 H344 0.929 . S
C330 C324 1.448 . S
C330 C329 1.328 . S
C330 H345 0.930 . S
Tb331 N322 2.617 . S
Tb331 N332 2.572 . S
Tb331 O366 2.349 1_655 S
Tb331 O369 2.393 . S
Tb331 O370 2.465 . S
Tb331 O371 2.387 . S
Tb331 O373 2.428 . S
Tb331 O374 2.308 1_655 S
Tb331 C395 2.802 . S
N332 C328 1.361 . S
N332 Tb331 2.572 . S
N332 C334 1.340 . S
C333 C327 1.416 . S
C333 C335 1.332 . S
C333 H341 0.931 . S
C334 N332 1.340 . S
C334 C335 1.407 . S
C334 H340 0.930 . S
C335 C333 1.332 . S
C335 C334 1.407 . S
C335 H337 0.929 . S
H336 C325 0.930 . S
H337 C335 0.929 . S
H338 C353 0.930 . S
H339 C360 0.929 . S
H340 C334 0.930 . S
H341 C333 0.931 . S
H342 C356 0.930 . S
H343 C323 0.930 . S
H344 C329 0.929 . S
H345 C330 0.930 . S
H346 C351 0.930 . S
H347 C326 0.930 . S
H348 C359 0.931 . S
N349 Tb320 2.617 . S
N349 C350 1.379 . S
N349 C353 1.334 . S
C350 N349 1.379 . S
C350 C352 1.416 . S
C350 C358 1.424 . S
C351 H346 0.930 . S
C351 C353 1.390 . S
C351 C354 1.339 . S
C352 C350 1.416 . S
C352 C354 1.416 . S
C352 C385 1.448 . S
C353 H338 0.930 . S
C353 N349 1.334 . S
C353 C351 1.390 . S
C354 C351 1.339 . S
C354 C352 1.416 . S
C354 H361 0.930 . S
N355 Tb320 2.572 . S
N355 C356 1.340 . S
N355 C358 1.361 . S
C356 H342 0.930 . S
C356 N355 1.340 . S
C356 C360 1.407 1_565 S
C357 C358 1.413 . S
C357 C359 1.416 1_565 S
C357 C386 1.427 . S
C358 C350 1.424 . S
C358 N355 1.361 . S
C358 C357 1.413 . S
C359 H348 0.931 . S
C359 C357 1.416 1_545 S
C359 C360 1.332 . S
C360 H339 0.929 . S
C360 C356 1.407 1_545 S
C360 C359 1.332 . S
H361 C354 0.930 . S
H362 C385 0.930 . S
H363 C386 0.929 1_545 S
O364 Tb320 2.465 . S
O364 C384 1.264 . S
O365 Tb320 2.387 . S
O365 C376 1.264 . S
O366 Tb331 2.349 1_455 S
O366 C376 1.243 . S
O367 Tb320 2.428 . S
O367 C384 1.256 . S
O368 Tb320 2.322 . S
O368 C383 1.250 1_455 S
O369 Tb331 2.393 . S
O369 C383 1.248 . S
O370 Tb331 2.465 . S
O370 C395 1.264 . S
O371 Tb331 2.387 . S
O371 C387 1.264 . S
O372 Tb320 2.349 . S
O372 C387 1.243 1_455 S
O373 Tb331 2.428 . S
O373 C395 1.256 . S
O374 Tb331 2.308 1_455 S
O374 C394 1.266 . S
O375 Tb320 2.393 . S
O375 C394 1.248 . S
C376 O365 1.264 . S
C376 O366 1.243 . S
C377 C380 1.399 . S
C377 C382 1.383 . S
C377 C384 1.496 . S
C378 C379 1.399 . S
C378 C382 1.389 . S
C379 C378 1.399 . S
C379 C381 1.380 . S
C379 H396 0.929 . S
C380 C377 1.399 . S
C380 C381 1.392 . S
C380 H397 0.929 . S
C381 C379 1.380 . S
C381 C380 1.392 . S
C381 H398 0.929 . S
C382 C377 1.383 . S
C382 C378 1.389 . S
C382 H399 0.931 . S
C383 O368 1.250 1_655 S
C383 O369 1.248 . S
C384 Tb320 2.802 . S
C384 O364 1.264 . S
C384 O367 1.256 . S
C384 C377 1.496 . S
C385 C352 1.448 . S
C385 H362 0.930 . S
C385 C386 1.328 . S
C386 C357 1.427 . S
C386 H363 0.929 1_565 S
C386 C385 1.328 . S
C387 O371 1.264 . S
C387 O372 1.243 1_655 S
C388 C391 1.399 . S
C388 C392 1.383 . S
C388 C395 1.496 . S
C389 C390 1.399 . S
C389 C392 1.389 . S
C390 C389 1.399 . S
C390 C393 1.380 . S
C390 H400 0.929 . S
C391 C388 1.399 . S
C391 C393 1.392 . S
C391 H401 0.929 . S
C392 C388 1.383 . S
C392 C389 1.389 . S
C392 H402 0.931 . S
C393 C390 1.380 . S
C393 C391 1.392 . S
C393 H403 0.929 . S
C394 O374 1.266 . S
C394 O375 1.248 . S
C395 Tb331 2.802 . S
C395 O370 1.264 . S
C395 O373 1.256 . S
C395 C388 1.496 . S
H396 C379 0.929 . S
H397 C380 0.929 . S
H398 C381 0.929 . S
H399 C382 0.931 . S
H400 C390 0.929 . S
H401 C391 0.929 . S
H402 C392 0.931 . S
H403 C393 0.929 . S
Tb404 N433 2.617 . S
Tb404 N439 2.572 . S
Tb404 O448 2.465 . S
Tb404 O449 2.387 . S
Tb404 O451 2.428 . S
Tb404 O452 2.308 . S
Tb404 O456 2.349 . S
Tb404 O459 2.393 . S
Tb404 C468 2.802 . S
C405 N406 1.379 . S
C405 C408 1.416 . S
C405 C412 1.424 . S
N406 C405 1.379 . S
N406 C409 1.334 . S
N406 Tb415 2.617 . S
C407 C409 1.390 . S
C407 C410 1.339 . S
C407 H427 0.930 . S
C408 C405 1.416 . S
C408 C410 1.416 . S
C408 C414 1.448 . S
C409 N406 1.334 . S
C409 C407 1.390 . S
C409 H420 0.930 . S
C410 C407 1.339 . S
C410 C408 1.416 . S
C410 H431 0.930 . S
C411 C412 1.413 . S
C411 C413 1.427 . S
C411 C417 1.416 . S
C412 C405 1.424 . S
C412 C411 1.413 . S
C412 N416 1.361 . S
C413 C411 1.427 . S
C413 C414 1.328 . S
C413 H428 0.929 . S
C414 C408 1.448 . S
C414 C413 1.328 . S
C414 H429 0.930 . S
Tb415 N406 2.617 . S
Tb415 N416 2.572 . S
Tb415 O450 2.349 . S
Tb415 O453 2.393 . S
Tb415 O454 2.465 . S
Tb415 O455 2.387 . S
Tb415 O457 2.428 . S
Tb415 O458 2.308 . S
Tb415 C479 2.802 . S
N416 C412 1.361 . S
N416 Tb415 2.572 . S
N416 C418 1.340 . S
C417 C411 1.416 . S
C417 C419 1.332 . S
C417 H425 0.931 . S
C418 N416 1.340 . S
C418 C419 1.407 . S
C418 H424 0.930 . S
C419 C417 1.332 . S
C419 C418 1.407 . S
C419 H421 0.929 . S
H420 C409 0.930 . S
H421 C419 0.929 . S
H422 C437 0.930 . S
H423 C444 0.929 . S
H424 C418 0.930 . S
H425 C417 0.931 . S
H426 C440 0.930 . S
H427 C407 0.930 . S
H428 C413 0.929 . S
H429 C414 0.930 . S
H430 C435 0.930 . S
H431 C410 0.930 . S
H432 C443 0.931 . S
N433 Tb404 2.617 . S
N433 C434 1.379 . S
N433 C437 1.334 . S
C434 N433 1.379 . S
C434 C436 1.416 . S
C434 C442 1.424 . S
C435 H430 0.930 . S
C435 C437 1.390 . S
C435 C438 1.339 . S
C436 C434 1.416 . S
C436 C438 1.416 . S
C436 C469 1.448 . S
C437 H422 0.930 . S
C437 N433 1.334 . S
C437 C435 1.390 . S
C438 C435 1.339 . S
C438 C436 1.416 . S
C438 H445 0.930 . S
N439 Tb404 2.572 . S
N439 C440 1.340 . S
N439 C442 1.361 . S
C440 H426 0.930 . S
C440 N439 1.340 . S
C440 C444 1.407 . S
C441 C442 1.413 . S
C441 C443 1.416 . S
C441 C470 1.427 . S
C442 C434 1.424 . S
C442 N439 1.361 . S
C442 C441 1.413 . S
C443 H432 0.931 . S
C443 C441 1.416 . S
C443 C444 1.332 . S
C444 H423 0.929 . S
C444 C440 1.407 . S
C444 C443 1.332 . S
H445 C438 0.930 . S
H446 C469 0.930 . S
H447 C470 0.929 . S
O448 Tb404 2.465 . S
O448 C468 1.264 . S
O449 Tb404 2.387 . S
O449 C460 1.264 . S
O450 Tb415 2.349 . S
O450 C460 1.243 . S
O451 Tb404 2.428 . S
O451 C468 1.256 . S
O452 Tb404 2.308 . S
O452 C467 1.266 . S
O453 Tb415 2.393 . S
O453 C467 1.248 . S
O454 Tb415 2.465 . S
O454 C479 1.264 . S
O455 Tb415 2.387 . S
O455 C471 1.264 . S
O456 Tb404 2.349 . S
O456 C471 1.243 . S
O457 Tb415 2.428 . S
O457 C479 1.256 . S
O458 Tb415 2.308 . S
O458 C478 1.266 . S
O459 Tb404 2.393 . S
O459 C478 1.248 . S
C460 O449 1.264 . S
C460 O450 1.243 . S
C461 C464 1.399 . S
C461 C466 1.383 . S
C461 C468 1.496 . S
C462 C463 1.399 . S
C462 C466 1.389 . S
C463 C462 1.399 . S
C463 C465 1.380 . S
C463 H480 0.929 . S
C464 C461 1.399 . S
C464 C465 1.392 . S
C464 H481 0.929 . S
C465 C463 1.380 . S
C465 C464 1.392 . S
C465 H482 0.929 . S
C466 C461 1.383 . S
C466 C462 1.389 . S
C466 H483 0.931 . S
C467 O452 1.266 . S
C467 O453 1.248 . S
C468 Tb404 2.802 . S
C468 O448 1.264 . S
C468 O451 1.256 . S
C468 C461 1.496 . S
C469 C436 1.448 . S
C469 H446 0.930 . S
C469 C470 1.328 . S
C470 C441 1.427 . S
C470 H447 0.929 . S
C470 C469 1.328 . S
C471 O455 1.264 . S
C471 O456 1.243 . S
C472 C475 1.399 . S
C472 C476 1.383 . S
C472 C479 1.496 . S
C473 C474 1.399 . S
C473 C476 1.389 . S
C474 C473 1.399 . S
C474 C477 1.380 . S
C474 H484 0.929 . S
C475 C472 1.399 . S
C475 C477 1.392 . S
C475 H485 0.929 . S
C476 C472 1.383 . S
C476 C473 1.389 . S
C476 H486 0.931 . S
C477 C474 1.380 . S
C477 C475 1.392 . S
C477 H487 0.929 . S
C478 O458 1.266 . S
C478 O459 1.248 . S
C479 Tb415 2.802 . S
C479 O454 1.264 . S
C479 O457 1.256 . S
C479 C472 1.496 . S
H480 C463 0.929 . S
H481 C464 0.929 . S
H482 C465 0.929 . S
H483 C466 0.931 . S
H484 C474 0.929 . S
H485 C475 0.929 . S
H486 C476 0.931 . S
H487 C477 0.929 . S
C488 C489 1.391 . S
C488 C490 1.394 . S
C488 H504 0.931 . S
C489 C488 1.391 . S
C489 C493 1.376 . S
C490 C488 1.394 . S
C490 C491 1.369 . S
C490 C494 1.531 . S
C491 C490 1.369 . S
C491 C492 1.410 . S
C491 C499 1.503 . S
C492 C491 1.410 . S
C492 C493 1.392 . S
C492 C495 1.511 . S
C493 C489 1.376 . S
C493 C492 1.392 . S
C493 H505 0.929 . S
C494 C490 1.531 . S
C494 H506 0.960 . S
C494 H507 0.962 . S
C494 H508 0.960 . S
C495 C492 1.511 . S
C495 H509 0.961 . S
C495 H510 0.961 . S
C495 H511 0.982 . S
C496 C497 1.370 1_565 S
C496 C498 1.363 . S
C496 H512 0.931 . S
C497 C496 1.370 1_545 S
C497 C501 1.408 . S
C498 C496 1.363 . S
C498 C499 1.370 . S
C498 C502 1.524 . S
C499 C491 1.503 . S
C499 C498 1.370 . S
C499 C500 1.403 1_565 S
C500 C499 1.403 1_545 S
C500 C501 1.404 . S
C500 C503 1.539 . S
C501 C497 1.408 . S
C501 C500 1.404 . S
C501 H513 0.930 . S
C502 C498 1.524 . S
C502 H514 0.956 . S
C502 H515 0.961 . S
C502 H516 0.961 . S
C503 C500 1.539 . S
C503 H517 0.958 . S
C503 H518 0.961 . S
C503 H519 0.960 . S
H504 C488 0.931 . S
H505 C493 0.929 . S
H506 C494 0.960 . S
H507 C494 0.962 . S
H508 C494 0.960 . S
H509 C495 0.961 . S
H510 C495 0.961 . S
H511 C495 0.982 . S
H512 C496 0.931 . S
H513 C501 0.930 . S
H514 C502 0.956 . S
H515 C502 0.961 . S
H516 C502 0.961 . S
H517 C503 0.958 . S
H518 C503 0.961 . S
H519 C503 0.960 . S
C520 C521 1.391 . S
C520 C522 1.394 . S
C520 H536 0.931 . S
C521 C520 1.391 . S
C521 C525 1.376 . S
C522 C520 1.394 . S
C522 C523 1.369 . S
C522 C526 1.531 . S
C523 C522 1.369 . S
C523 C524 1.410 . S
C523 C531 1.503 . S
C524 C523 1.410 . S
C524 C525 1.392 . S
C524 C527 1.511 . S
C525 C521 1.376 . S
C525 C524 1.392 . S
C525 H537 0.929 . S
C526 C522 1.531 . S
C526 H538 0.960 . S
C526 H539 0.962 . S
C526 H540 0.960 . S
C527 C524 1.511 . S
C527 H541 0.961 . S
C527 H542 0.961 . S
C527 H543 0.961 . S
C528 C529 1.370 . S
C528 C530 1.363 . S
C528 H544 0.931 . S
C529 C528 1.370 . S
C529 C533 1.408 . S
C530 C528 1.363 . S
C530 C531 1.370 . S
C530 C534 1.524 . S
C531 C523 1.503 . S
C531 C530 1.370 . S
C531 C532 1.403 . S
C532 C531 1.403 . S
C532 C533 1.404 . S
C532 C535 1.539 . S
C533 C529 1.408 . S
C533 C532 1.404 . S
C533 H545 0.930 . S
C534 C530 1.524 . S
C534 H546 0.956 . S
C534 H547 0.961 . S
C534 H548 0.961 . S
C535 C532 1.539 . S
C535 H549 0.958 . S
C535 H550 0.961 . S
C535 H551 0.960 . S
H536 C520 0.931 . S
H537 C525 0.929 . S
H538 C526 0.960 . S
H539 C526 0.962 . S
H540 C526 0.960 . S
H541 C527 0.961 . S
H542 C527 0.961 . S
H543 C527 0.961 . S
H544 C528 0.931 . S
H545 C533 0.930 . S
H546 C534 0.956 . S
H547 C534 0.961 . S
H548 C534 0.961 . S
H549 C535 0.958 . S
H550 C535 0.961 . S
H551 C535 0.960 . S
C552 C553 1.391 . S
C552 C554 1.394 . S
C552 H568 0.931 . S
C553 C552 1.391 . S
C553 C557 1.376 . S
C554 C552 1.394 . S
C554 C555 1.369 . S
C554 C558 1.531 . S
C555 C554 1.369 . S
C555 C556 1.410 . S
C555 C563 1.503 . S
C556 C555 1.410 . S
C556 C557 1.392 . S
C556 C559 1.511 . S
C557 C553 1.376 . S
C557 C556 1.392 . S
C557 H569 0.929 . S
C558 C554 1.531 . S
C558 H570 0.960 . S
C558 H571 0.962 . S
C558 H572 0.960 . S
C559 C556 1.511 . S
C559 H573 0.961 . S
C559 H574 0.961 . S
C559 H575 0.961 . S
C560 C561 1.370 . S
C560 C562 1.363 . S
C560 H576 0.931 . S
C561 C560 1.370 . S
C561 C565 1.408 . S
C562 C560 1.363 . S
C562 C563 1.370 . S
C562 C566 1.524 . S
C563 C555 1.503 . S
C563 C562 1.370 . S
C563 C564 1.403 . S
C564 C563 1.403 . S
C564 C565 1.404 . S
C564 C567 1.539 . S
C565 C561 1.408 . S
C565 C564 1.404 . S
C565 H577 0.930 . S
C566 C562 1.524 . S
C566 H578 0.956 . S
C566 H579 0.961 . S
C566 H580 0.961 . S
C567 C564 1.539 . S
C567 H581 0.958 . S
C567 H582 0.961 . S
C567 H583 0.960 . S
H568 C552 0.931 . S
H569 C557 0.929 . S
H570 C558 0.960 . S
H571 C558 0.962 . S
H572 C558 0.960 . S
H573 C559 0.961 . S
H574 C559 0.961 . S
H575 C559 0.961 . S
H576 C560 0.931 . S
H577 C565 0.930 . S
H578 C566 0.956 . S
H579 C566 0.961 . S
H580 C566 0.961 . S
H581 C567 0.958 . S
H582 C567 0.961 . S
H583 C567 0.960 . S
C584 C585 1.391 . S
C584 C586 1.394 . S
C584 H600 0.931 . S
C585 C584 1.391 . S
C585 C589 1.376 . S
C586 C584 1.394 . S
C586 C587 1.369 . S
C586 C590 1.531 . S
C587 C586 1.369 . S
C587 C588 1.410 . S
C587 C595 1.503 . S
C588 C587 1.410 . S
C588 C589 1.392 . S
C588 C591 1.511 . S
C589 C585 1.376 . S
C589 C588 1.392 . S
C589 H601 0.929 . S
C590 C586 1.531 . S
C590 H602 0.960 . S
C590 H603 0.962 1_565 S
C590 H604 0.960 . S
C591 C588 1.511 . S
C591 H605 0.961 . S
C591 H606 0.961 . S
C591 H607 0.961 . S
C592 C593 1.370 . S
C592 C594 1.363 1_545 S
C592 H608 0.931 . S
C593 C592 1.370 . S
C593 C597 1.408 1_545 S
C594 C592 1.363 1_565 S
C594 C595 1.370 . S
C594 C598 1.524 . S
C595 C587 1.503 . S
C595 C594 1.370 . S
C595 C596 1.403 . S
C596 C595 1.403 . S
C596 C597 1.404 . S
C596 C599 1.539 . S
C597 C593 1.408 1_565 S
C597 C596 1.404 . S
C597 H609 0.930 . S
C598 C594 1.524 . S
C598 H610 0.956 . S
C598 H611 0.961 . S
C598 H612 0.961 1_565 S
C599 C596 1.539 . S
C599 H613 0.958 . S
C599 H614 0.961 . S
C599 H615 0.960 . S
H600 C584 0.931 . S
H601 C589 0.929 . S
H602 C590 0.960 . S
H603 C590 0.962 1_545 S
H604 C590 0.960 . S
H605 C591 0.961 . S
H606 C591 0.961 . S
H607 C591 0.961 . S
H608 C592 0.931 . S
H609 C597 0.930 . S
H610 C598 0.956 . S
H611 C598 0.961 . S
H612 C598 0.961 1_545 S
H613 C599 0.958 . S
H614 C599 0.961 . S
H615 C599 0.960 . S
C616 C617 1.391 . S
C616 C618 1.394 . S
C616 H632 0.931 . S
C617 C616 1.391 . S
C617 C621 1.376 . S
C618 C616 1.394 . S
C618 C619 1.369 . S
C618 C622 1.531 . S
C619 C618 1.369 . S
C619 C620 1.410 . S
C619 C627 1.503 . S
C620 C619 1.410 . S
C620 C621 1.392 . S
C620 C623 1.511 . S
C621 C617 1.376 . S
C621 C620 1.392 . S
C621 H633 0.929 . S
C622 C618 1.531 . S
C622 H634 0.960 1_545 S
C622 H635 0.962 . S
C622 H636 0.960 . S
C623 C620 1.511 . S
C623 H637 0.961 . S
C623 H638 0.961 . S
C623 H639 0.961 . S
C624 C625 1.370 1_545 S
C624 C626 1.363 . S
C624 H640 0.931 . S
C625 C624 1.370 1_565 S
C625 C629 1.408 . S
C626 C624 1.363 . S
C626 C627 1.370 . S
C626 C630 1.524 . S
C627 C619 1.503 . S
C627 C626 1.370 . S
C627 C628 1.403 . S
C628 C627 1.403 . S
C628 C629 1.404 1_545 S
C628 C631 1.539 . S
C629 C625 1.408 . S
C629 C628 1.404 1_565 S
C629 H641 0.930 . S
C630 C626 1.524 . S
C630 H642 0.956 . S
C630 H643 0.961 . S
C630 H644 0.961 . S
C631 C628 1.539 . S
C631 H645 0.958 1_545 S
C631 H646 0.961 . S
C631 H647 0.960 . S
H632 C616 0.931 . S
H633 C621 0.929 . S
H634 C622 0.960 1_565 S
H635 C622 0.962 . S
H636 C622 0.960 . S
H637 C623 0.961 . S
H638 C623 0.961 . S
H639 C623 0.961 . S
H640 C624 0.931 . S
H641 C629 0.930 . S
H642 C630 0.956 . S
H643 C630 0.961 . S
H644 C630 0.961 . S
H645 C631 0.958 1_565 S
H646 C631 0.961 . S
H647 C631 0.960 . S
C648 C649 1.391 . S
C648 C650 1.394 . S
C648 H664 0.931 . S
C649 C648 1.391 . S
C649 C653 1.376 . S
C650 C648 1.394 . S
C650 C651 1.369 . S
C650 C654 1.531 . S
C651 C650 1.369 . S
C651 C652 1.410 . S
C651 C659 1.503 . S
C652 C651 1.410 . S
C652 C653 1.392 . S
C652 C655 1.511 . S
C653 C649 1.376 . S
C653 C652 1.392 . S
C653 H665 0.929 . S
C654 C650 1.531 . S
C654 H666 0.960 . S
C654 H667 0.962 . S
C654 H668 0.960 . S
C655 C652 1.511 . S
C655 H669 0.961 . S
C655 H670 0.961 . S
C655 H671 0.961 . S
C656 C657 1.370 . S
C656 C658 1.363 . S
C656 H672 0.931 . S
C657 C656 1.370 . S
C657 C661 1.408 . S
C658 C656 1.363 . S
C658 C659 1.370 . S
C658 C662 1.524 . S
C659 C651 1.503 . S
C659 C658 1.370 . S
C659 C660 1.403 . S
C660 C659 1.403 . S
C660 C661 1.404 . S
C660 C663 1.539 . S
C661 C657 1.408 . S
C661 C660 1.404 . S
C661 H673 0.930 . S
C662 C658 1.524 . S
C662 H674 0.956 . S
C662 H675 0.961 . S
C662 H676 0.961 . S
C663 C660 1.539 . S
C663 H677 0.958 . S
C663 H678 0.961 . S
C663 H679 0.960 . S
H664 C648 0.931 . S
H665 C653 0.929 . S
H666 C654 0.960 . S
H667 C654 0.962 . S
H668 C654 0.960 . S
H669 C655 0.961 . S
H670 C655 0.961 . S
H671 C655 0.961 . S
H672 C656 0.931 . S
H673 C661 0.930 . S
H674 C662 0.956 . S
H675 C662 0.961 . S
H676 C662 0.961 . S
H677 C663 0.958 . S
H678 C663 0.961 . S
H679 C663 0.960 . S
C680 C681 1.391 . S
C680 C682 1.394 . S
C680 H696 0.931 . S
C681 C680 1.391 . S
C681 C685 1.376 . S
C682 C680 1.394 . S
C682 C683 1.369 . S
C682 C686 1.531 . S
C683 C682 1.369 . S
C683 C684 1.410 . S
C683 C691 1.503 . S
C684 C683 1.410 . S
C684 C685 1.392 . S
C684 C687 1.511 . S
C685 C681 1.376 . S
C685 C684 1.392 . S
C685 H697 0.929 . S
C686 C682 1.531 . S
C686 H698 0.960 . S
C686 H699 0.962 . S
C686 H700 0.960 . S
C687 C684 1.511 . S
C687 H701 0.961 . S
C687 H702 0.961 . S
C687 H703 0.961 . S
C688 C689 1.370 . S
C688 C690 1.363 . S
C688 H704 0.931 . S
C689 C688 1.370 . S
C689 C693 1.408 . S
C690 C688 1.363 . S
C690 C691 1.370 . S
C690 C694 1.524 . S
C691 C683 1.503 . S
C691 C690 1.370 . S
C691 C692 1.403 . S
C692 C691 1.403 . S
C692 C693 1.404 . S
C692 C695 1.539 . S
C693 C689 1.408 . S
C693 C692 1.404 . S
C693 H705 0.930 . S
C694 C690 1.524 . S
C694 H706 0.956 . S
C694 H707 0.961 . S
C694 H708 0.961 . S
C695 C692 1.539 . S
C695 H709 0.958 . S
C695 H710 0.961 . S
C695 H711 0.960 . S
H696 C680 0.931 . S
H697 C685 0.929 . S
H698 C686 0.960 . S
H699 C686 0.962 . S
H700 C686 0.960 . S
H701 C687 0.961 . S
H702 C687 0.961 . S
H703 C687 0.961 . S
H704 C688 0.931 . S
H705 C693 0.930 . S
H706 C694 0.956 . S
H707 C694 0.961 . S
H708 C694 0.961 . S
H709 C695 0.958 . S
H710 C695 0.961 . S
H711 C695 0.960 . S
C712 C713 1.391 . S
C712 C714 1.394 . S
C712 H728 0.931 . S
C713 C712 1.391 . S
C713 C717 1.376 . S
C714 C712 1.394 . S
C714 C715 1.369 . S
C714 C718 1.531 . S
C715 C714 1.369 . S
C715 C716 1.410 . S
C715 C723 1.503 . S
C716 C715 1.410 . S
C716 C717 1.392 . S
C716 C719 1.511 . S
C717 C713 1.376 . S
C717 C716 1.392 . S
C717 H729 0.929 . S
C718 C714 1.531 . S
C718 H730 0.960 1_545 S
C718 H731 0.962 . S
C718 H732 0.960 . S
C719 C716 1.511 . S
C719 H733 0.961 . S
C719 H734 0.961 . S
C719 H735 0.961 . S
C720 C721 1.370 1_545 S
C720 C722 1.363 . S
C720 H736 0.931 . S
C721 C720 1.370 1_565 S
C721 C725 1.408 . S
C722 C720 1.363 . S
C722 C723 1.370 . S
C722 C726 1.524 . S
C723 C715 1.503 . S
C723 C722 1.370 . S
C723 C724 1.403 1_545 S
C724 C723 1.403 1_565 S
C724 C725 1.404 . S
C724 C727 1.539 . S
C725 C721 1.408 . S
C725 C724 1.404 . S
C725 H737 0.930 . S
C726 C722 1.524 . S
C726 H738 0.956 . S
C726 H739 0.961 . S
C726 H740 0.961 . S
C727 C724 1.539 . S
C727 H741 0.958 . S
C727 H742 0.961 . S
C727 H743 0.960 1_565 S
H728 C712 0.931 . S
H729 C717 0.929 . S
H730 C718 0.960 1_565 S
H731 C718 0.962 . S
H732 C718 0.960 . S
H733 C719 0.961 . S
H734 C719 0.961 . S
H735 C719 0.961 . S
H736 C720 0.931 . S
H737 C725 0.930 . S
H738 C726 0.956 . S
H739 C726 0.961 . S
H740 C726 0.961 . S
H741 C727 0.958 . S
H742 C727 0.961 . S
H743 C727 0.960 1_545 S
C744 C745 1.391 . S
C744 C746 1.394 1_556 S
C744 H760 0.931 . S
C745 C744 1.391 . S
C745 C749 1.376 . S
C746 C744 1.394 1_554 S
C746 C747 1.369 . S
C746 C750 1.531 . S
C747 C746 1.369 . S
C747 C748 1.410 1_554 S
C747 C755 1.503 . S
C748 C747 1.410 1_556 S
C748 C749 1.392 . S
C748 C751 1.511 . S
C749 C745 1.376 . S
C749 C748 1.392 . S
C749 H761 0.929 . S
C750 C746 1.531 . S
C750 H762 0.960 . S
C750 H763 0.962 . S
C750 H764 0.960 . S
C751 C748 1.511 . S
C751 H765 0.961 . S
C751 H766 0.961 1_556 S
C751 H767 0.961 . S
C752 C753 1.370 . S
C752 C754 1.363 . S
C752 H768 0.931 . S
C753 C752 1.370 . S
C753 C757 1.408 . S
C754 C752 1.363 . S
C754 C755 1.370 . S
C754 C758 1.524 . S
C755 C747 1.503 . S
C755 C754 1.370 . S
C755 C756 1.403 . S
C756 C755 1.403 . S
C756 C757 1.404 . S
C756 C759 1.539 . S
C757 C753 1.408 . S
C757 C756 1.404 . S
C757 H769 0.930 . S
C758 C754 1.524 . S
C758 H770 0.956 . S
C758 H771 0.961 . S
C758 H772 0.961 . S
C759 C756 1.539 . S
C759 H773 0.958 . S
C759 H774 0.961 . S
C759 H775 0.960 . S
H760 C744 0.931 . S
H761 C749 0.929 . S
H762 C750 0.960 . S
H763 C750 0.962 . S
H764 C750 0.960 . S
H765 C751 0.961 . S
H766 C751 0.961 1_554 S
H767 C751 0.961 . S
H768 C752 0.931 . S
H769 C757 0.930 . S
H770 C758 0.956 . S
H771 C758 0.961 . S
H772 C758 0.961 . S
H773 C759 0.958 . S
H774 C759 0.961 . S
H775 C759 0.960 . S
C776 C777 1.391 . S
C776 C778 1.394 . S
C776 H792 0.931 . S
C777 C776 1.391 . S
C777 C781 1.376 . S
C778 C776 1.394 . S
C778 C779 1.369 . S
C778 C782 1.531 . S
C779 C778 1.369 . S
C779 C780 1.410 . S
C779 C787 1.503 . S
C780 C779 1.410 . S
C780 C781 1.392 . S
C780 C783 1.511 . S
C781 C777 1.376 . S
C781 C780 1.392 . S
C781 H793 0.929 . S
C782 C778 1.531 . S
C782 H794 0.960 . S
C782 H795 0.962 . S
C782 H796 0.960 . S
C783 C780 1.511 . S
C783 H797 0.961 . S
C783 H798 0.961 . S
C783 H799 0.961 . S
C784 C785 1.370 . S
C784 C786 1.363 . S
C784 H800 0.931 . S
C785 C784 1.370 . S
C785 C789 1.408 . S
C786 C784 1.363 . S
C786 C787 1.370 . S
C786 C790 1.524 . S
C787 C779 1.503 . S
C787 C786 1.370 . S
C787 C788 1.403 . S
C788 C787 1.403 . S
C788 C789 1.404 . S
C788 C791 1.539 . S
C789 C785 1.408 . S
C789 C788 1.404 . S
C789 H801 0.930 . S
C790 C786 1.524 . S
C790 H802 0.956 . S
C790 H803 0.961 . S
C790 H804 0.961 . S
C791 C788 1.539 . S
C791 H805 0.958 . S
C791 H806 0.961 . S
C791 H807 0.960 . S
H792 C776 0.931 . S
H793 C781 0.929 . S
H794 C782 0.960 . S
H795 C782 0.962 . S
H796 C782 0.960 . S
H797 C783 0.961 . S
H798 C783 0.961 . S
H799 C783 0.961 . S
H800 C784 0.931 . S
H801 C789 0.930 . S
H802 C790 0.956 . S
H803 C790 0.961 . S
H804 C790 0.961 . S
H805 C791 0.958 . S
H806 C791 0.961 . S
H807 C791 0.960 . S
C808 C809 1.391 . S
C808 C810 1.394 . S
C808 H824 0.931 . S
C809 C808 1.391 . S
C809 C813 1.376 . S
C810 C808 1.394 . S
C810 C811 1.369 1_554 S
C810 C814 1.531 . S
C811 C810 1.369 1_556 S
C811 C812 1.410 . S
C811 C819 1.503 . S
C812 C811 1.410 . S
C812 C813 1.392 1_556 S
C812 C815 1.511 . S
C813 C809 1.376 . S
C813 C812 1.392 1_554 S
C813 H825 0.929 . S
C814 C810 1.531 . S
C814 H826 0.960 1_554 S
C814 H827 0.962 . S
C814 H828 0.960 . S
C815 C812 1.511 . S
C815 H829 0.961 . S
C815 H830 0.961 . S
C815 H831 0.961 . S
C816 C817 1.370 . S
C816 C818 1.363 . S
C816 H832 0.931 . S
C817 C816 1.370 . S
C817 C821 1.408 . S
C818 C816 1.363 . S
C818 C819 1.370 . S
C818 C822 1.524 . S
C819 C811 1.503 . S
C819 C818 1.370 . S
C819 C820 1.403 . S
C820 C819 1.403 . S
C820 C821 1.404 . S
C820 C823 1.539 . S
C821 C817 1.408 . S
C821 C820 1.404 . S
C821 H833 0.930 . S
C822 C818 1.524 . S
C822 H834 0.956 . S
C822 H835 0.961 . S
C822 H836 0.961 . S
C823 C820 1.539 . S
C823 H837 0.958 . S
C823 H838 0.961 . S
C823 H839 0.960 . S
H824 C808 0.931 . S
H825 C813 0.929 . S
H826 C814 0.960 1_556 S
H827 C814 0.962 . S
H828 C814 0.960 . S
H829 C815 0.961 . S
H830 C815 0.961 . S
H831 C815 0.961 . S
H832 C816 0.931 . S
H833 C821 0.930 . S
H834 C822 0.956 . S
H835 C822 0.961 . S
H836 C822 0.961 . S
H837 C823 0.958 . S
H838 C823 0.961 . S
H839 C823 0.960 . S
C840 C841 1.391 . S
C840 C842 1.394 . S
C840 H856 0.931 . S
C841 C840 1.391 . S
C841 C845 1.376 . S
C842 C840 1.394 . S
C842 C843 1.369 . S
C842 C846 1.531 . S
C843 C842 1.369 . S
C843 C844 1.410 . S
C843 C851 1.503 . S
C844 C843 1.410 . S
C844 C845 1.392 . S
C844 C847 1.511 . S
C845 C841 1.376 . S
C845 C844 1.392 . S
C845 H857 0.929 . S
C846 C842 1.531 . S
C846 H858 0.960 . S
C846 H859 0.962 . S
C846 H860 0.960 . S
C847 C844 1.511 . S
C847 H861 0.961 . S
C847 H862 0.961 . S
C847 H863 0.961 . S
C848 C849 1.370 . S
C848 C850 1.363 . S
C848 H864 0.931 . S
C849 C848 1.370 . S
C849 C853 1.408 . S
C850 C848 1.363 . S
C850 C851 1.370 . S
C850 C854 1.524 . S
C851 C843 1.503 . S
C851 C850 1.370 . S
C851 C852 1.403 . S
C852 C851 1.403 . S
C852 C853 1.404 . S
C852 C855 1.539 . S
C853 C849 1.408 . S
C853 C852 1.404 . S
C853 H865 0.930 . S
C854 C850 1.524 . S
C854 H866 0.956 . S
C854 H867 0.961 . S
C854 H868 0.961 . S
C855 C852 1.539 . S
C855 H869 0.958 . S
C855 H870 0.961 . S
C855 H871 0.960 . S
H856 C840 0.931 . S
H857 C845 0.929 . S
H858 C846 0.960 . S
H859 C846 0.962 . S
H860 C846 0.960 . S
H861 C847 0.961 . S
H862 C847 0.961 . S
H863 C847 0.961 . S
H864 C848 0.931 . S
H865 C853 0.930 . S
H866 C854 0.956 . S
H867 C854 0.961 . S
H868 C854 0.961 . S
H869 C855 0.958 . S
H870 C855 0.961 . S
H871 C855 0.960 . S
C872 C873 1.391 . S
C872 C874 1.394 1_554 S
C872 H888 0.931 . S
C873 C872 1.391 . S
C873 C877 1.376 . S
C874 C872 1.394 1_556 S
C874 C875 1.369 . S
C874 C878 1.531 . S
C875 C874 1.369 . S
C875 C876 1.410 1_556 S
C875 C883 1.503 . S
C876 C875 1.410 1_554 S
C876 C877 1.392 . S
C876 C879 1.511 . S
C877 C873 1.376 . S
C877 C876 1.392 . S
C877 H889 0.929 . S
C878 C874 1.531 . S
C878 H890 0.960 . S
C878 H891 0.962 . S
C878 H892 0.960 . S
C879 C876 1.511 . S
C879 H893 0.961 . S
C879 H894 0.961 1_554 S
C879 H895 0.961 . S
C880 C881 1.370 . S
C880 C882 1.363 . S
C880 H896 0.931 . S
C881 C880 1.370 . S
C881 C885 1.408 . S
C882 C880 1.363 . S
C882 C883 1.370 . S
C882 C886 1.524 . S
C883 C875 1.503 . S
C883 C882 1.370 . S
C883 C884 1.403 . S
C884 C883 1.403 . S
C884 C885 1.404 . S
C884 C887 1.539 . S
C885 C881 1.408 . S
C885 C884 1.404 . S
C885 H897 0.930 . S
C886 C882 1.524 . S
C886 H898 0.956 . S
C886 H899 0.961 . S
C886 H900 0.961 . S
C887 C884 1.539 . S
C887 H901 0.958 . S
C887 H902 0.961 . S
C887 H903 0.960 . S
H888 C872 0.931 . S
H889 C877 0.929 . S
H890 C878 0.960 . S
H891 C878 0.962 . S
H892 C878 0.960 . S
H893 C879 0.961 . S
H894 C879 0.961 1_556 S
H895 C879 0.961 . S
H896 C880 0.931 . S
H897 C885 0.930 . S
H898 C886 0.956 . S
H899 C886 0.961 . S
H900 C886 0.961 . S
H901 C887 0.958 . S
H902 C887 0.961 . S
H903 C887 0.960 . S
C904 C905 1.391 . S
C904 C906 1.394 . S
C904 H920 0.931 . S
C905 C904 1.391 . S
C905 C909 1.376 . S
C906 C904 1.394 . S
C906 C907 1.369 . S
C906 C910 1.531 . S
C907 C906 1.369 . S
C907 C908 1.410 . S
C907 C915 1.503 . S
C908 C907 1.410 . S
C908 C909 1.392 . S
C908 C911 1.511 . S
C909 C905 1.376 . S
C909 C908 1.392 . S
C909 H921 0.929 . S
C910 C906 1.531 . S
C910 H922 0.960 . S
C910 H923 0.962 . S
C910 H924 0.960 . S
C911 C908 1.511 . S
C911 H925 0.961 . S
C911 H926 0.961 . S
C911 H927 0.961 . S
C912 C913 1.370 . S
C912 C914 1.363 . S
C912 H928 0.931 . S
C913 C912 1.370 . S
C913 C917 1.408 . S
C914 C912 1.363 . S
C914 C915 1.370 . S
C914 C918 1.524 . S
C915 C907 1.503 . S
C915 C914 1.370 . S
C915 C916 1.403 . S
C916 C915 1.403 . S
C916 C917 1.404 . S
C916 C919 1.539 . S
C917 C913 1.408 . S
C917 C916 1.404 . S
C917 H929 0.930 . S
C918 C914 1.524 . S
C918 H930 0.956 . S
C918 H931 0.961 . S
C918 H932 0.961 . S
C919 C916 1.539 . S
C919 H933 0.958 . S
C919 H934 0.961 . S
C919 H935 0.960 . S
H920 C904 0.931 . S
H921 C909 0.929 . S
H922 C910 0.960 . S
H923 C910 0.962 . S
H924 C910 0.960 . S
H925 C911 0.961 . S
H926 C911 0.961 . S
H927 C911 0.961 . S
H928 C912 0.931 . S
H929 C917 0.930 . S
H930 C918 0.956 . S
H931 C918 0.961 . S
H932 C918 0.961 . S
H933 C919 0.958 . S
H934 C919 0.961 . S
H935 C919 0.960 . S
C936 C937 1.391 . S
C936 C938 1.376 1_556 S
C936 H952 0.931 . S
C937 C936 1.391 . S
C937 C941 1.376 . S
C938 C936 1.376 1_554 S
C938 C939 1.378 . S
C938 C942 1.540 . S
C939 C938 1.378 . S
C939 C940 1.411 . S
C939 C947 1.503 . S
C940 C939 1.411 . S
C940 C941 1.390 1_554 S
C940 C943 1.512 . S
C941 C937 1.376 . S
C941 C940 1.390 1_556 S
C941 H953 0.929 . S
C942 C938 1.540 . S
C942 H954 0.960 . S
C942 H955 0.962 . S
C942 H956 0.960 . S
C943 C940 1.512 . S
C943 H957 0.958 1_554 S
C943 H958 0.961 . S
C943 H959 0.961 . S
C944 C945 1.370 . S
C944 C946 1.363 . S
C944 H960 0.931 . S
C945 C944 1.370 . S
C945 C949 1.408 . S
C946 C944 1.363 . S
C946 C947 1.370 . S
C946 C950 1.524 . S
C947 C939 1.503 . S
C947 C946 1.370 . S
C947 C948 1.403 . S
C948 C947 1.403 . S
C948 C949 1.404 . S
C948 C951 1.539 . S
C949 C945 1.408 . S
C949 C948 1.404 . S
C949 H961 0.930 . S
C950 C946 1.524 . S
C950 H962 0.956 . S
C950 H963 0.974 . S
C950 H964 0.961 . S
C951 C948 1.539 . S
C951 H965 0.958 . S
C951 H966 0.961 . S
C951 H967 0.960 . S
H952 C936 0.931 . S
H953 C941 0.929 . S
H954 C942 0.960 . S
H955 C942 0.962 . S
H956 C942 0.960 . S
H957 C943 0.958 1_556 S
H958 C943 0.961 . S
H959 C943 0.961 . S
H960 C944 0.931 . S
H961 C949 0.930 . S
H962 C950 0.956 . S
H963 C950 0.974 . S
H964 C950 0.961 . S
H965 C951 0.958 . S
H966 C951 0.961 . S
H967 C951 0.960 . S
C968 C969 1.391 . S
C968 C970 1.394 . S
C968 H984 0.931 . S
C969 C968 1.391 . S
C969 C973 1.376 . S
C970 C968 1.394 . S
C970 C971 1.369 . S
C970 C974 1.531 . S
C971 C970 1.369 . S
C971 C972 1.410 . S
C971 C979 1.503 . S
C972 C971 1.410 . S
C972 C973 1.392 . S
C972 C975 1.511 . S
C973 C969 1.376 . S
C973 C972 1.392 . S
C973 H985 0.929 . S
C974 C970 1.531 . S
C974 H986 0.960 . S
C974 H987 0.962 . S
C974 H988 0.960 . S
C975 C972 1.511 . S
C975 H989 0.961 . S
C975 H990 0.961 . S
C975 H991 0.961 . S
C976 C977 1.370 . S
C976 C978 1.363 . S
C976 H992 0.931 . S
C977 C976 1.370 . S
C977 C981 1.408 . S
C978 C976 1.363 . S
C978 C979 1.370 . S
C978 C982 1.524 . S
C979 C971 1.503 . S
C979 C978 1.370 . S
C979 C980 1.403 . S
C980 C979 1.403 . S
C980 C981 1.404 . S
C980 C983 1.539 . S
C981 C977 1.408 . S
C981 C980 1.404 . S
C981 H993 0.930 . S
C982 C978 1.524 . S
C982 H994 0.956 . S
C982 H995 0.961 . S
C982 H996 0.961 . S
C983 C980 1.539 . S
C983 H997 0.958 . S
C983 H998 0.961 . S
C983 H999 0.960 . S
H984 C968 0.931 . S
H985 C973 0.929 . S
H986 C974 0.960 . S
H987 C974 0.962 . S
H988 C974 0.960 . S
H989 C975 0.961 . S
H990 C975 0.961 . S
H991 C975 0.961 . S
H992 C976 0.931 . S
H993 C981 0.930 . S
H994 C982 0.956 . S
H995 C982 0.961 . S
H996 C982 0.961 . S
H997 C983 0.958 . S
H998 C983 0.961 . S
H999 C983 0.960 . S
C1000 C1001 1.391 . S
C1000 C1002 1.394 . S
C1000 H1016 0.931 . S
C1001 C1000 1.391 . S
C1001 C1005 1.376 . S
C1002 C1000 1.394 . S
C1002 C1003 1.369 . S
C1002 C1006 1.531 . S
C1003 C1002 1.369 . S
C1003 C1004 1.410 . S
C1003 C1011 1.503 . S
C1004 C1003 1.410 . S
C1004 C1005 1.392 . S
C1004 C1007 1.511 . S
C1005 C1001 1.376 . S
C1005 C1004 1.392 . S
C1005 H1017 0.929 . S
C1006 C1002 1.531 . S
C1006 H1018 0.960 . S
C1006 H1019 0.962 . S
C1006 H1020 0.960 . S
C1007 C1004 1.511 . S
C1007 H1021 0.961 . S
C1007 H1022 0.961 . S
C1007 H1023 0.961 . S
C1008 C1009 1.370 . S
C1008 C1010 1.363 . S
C1008 H1024 0.931 . S
C1009 C1008 1.370 . S
C1009 C1013 1.408 . S
C1010 C1008 1.363 . S
C1010 C1011 1.370 . S
C1010 C1014 1.524 . S
C1011 C1003 1.503 . S
C1011 C1010 1.370 . S
C1011 C1012 1.403 . S
C1012 C1011 1.403 . S
C1012 C1013 1.404 . S
C1012 C1015 1.539 . S
C1013 C1009 1.408 . S
C1013 C1012 1.404 . S
C1013 H1025 0.930 . S
C1014 C1010 1.524 . S
C1014 H1026 0.956 . S
C1014 H1027 0.961 . S
C1014 H1028 0.961 . S
C1015 C1012 1.539 . S
C1015 H1029 0.958 . S
C1015 H1030 0.961 . S
C1015 H1031 0.960 . S
H1016 C1000 0.931 . S
H1017 C1005 0.929 . S
H1018 C1006 0.960 . S
H1019 C1006 0.962 . S
H1020 C1006 0.960 . S
H1021 C1007 0.961 . S
H1022 C1007 0.961 . S
H1023 C1007 0.961 . S
H1024 C1008 0.931 . S
H1025 C1013 0.930 . S
H1026 C1014 0.956 . S
H1027 C1014 0.961 . S
H1028 C1014 0.961 . S
H1029 C1015 0.958 . S
H1030 C1015 0.961 . S
H1031 C1015 0.960 . S
C1032 C1033 1.391 . S
C1032 C1034 1.394 . S
C1032 H1048 0.931 . S
C1033 C1032 1.391 . S
C1033 C1037 1.376 . S
C1034 C1032 1.394 . S
C1034 C1035 1.369 . S
C1034 C1038 1.531 . S
C1035 C1034 1.369 . S
C1035 C1036 1.410 . S
C1035 C1043 1.503 . S
C1036 C1035 1.410 . S
C1036 C1037 1.392 . S
C1036 C1039 1.511 . S
C1037 C1033 1.376 . S
C1037 C1036 1.392 . S
C1037 H1049 0.929 . S
C1038 C1034 1.531 . S
C1038 H1050 0.960 . S
C1038 H1051 0.962 . S
C1038 H1052 0.960 . S
C1039 C1036 1.511 . S
C1039 H1053 0.961 . S
C1039 H1054 0.961 . S
C1039 H1055 0.961 . S
C1040 C1041 1.370 . S
C1040 C1042 1.363 . S
C1040 H1056 0.931 . S
C1041 C1040 1.370 . S
C1041 C1045 1.408 . S
C1042 C1040 1.363 . S
C1042 C1043 1.370 . S
C1042 C1046 1.524 . S
C1043 C1035 1.503 . S
C1043 C1042 1.370 . S
C1043 C1044 1.403 . S
C1044 C1043 1.403 . S
C1044 C1045 1.404 . S
C1044 C1047 1.539 . S
C1045 C1041 1.408 . S
C1045 C1044 1.404 . S
C1045 H1057 0.930 . S
C1046 C1042 1.524 . S
C1046 H1058 0.956 . S
C1046 H1059 0.961 . S
C1046 H1060 0.961 . S
C1047 C1044 1.539 . S
C1047 H1061 0.958 . S
C1047 H1062 0.961 . S
C1047 H1063 0.960 . S
H1048 C1032 0.931 . S
H1049 C1037 0.929 . S
H1050 C1038 0.960 . S
H1051 C1038 0.962 . S
H1052 C1038 0.960 . S
H1053 C1039 0.961 . S
H1054 C1039 0.961 . S
H1055 C1039 0.961 . S
H1056 C1040 0.931 . S
H1057 C1045 0.930 . S
H1058 C1046 0.956 . S
H1059 C1046 0.961 . S
H1060 C1046 0.961 . S
H1061 C1047 0.958 . S
H1062 C1047 0.961 . S
H1063 C1047 0.960 . S
C1064 C1065 1.391 . S
C1064 C1066 1.394 . S
C1064 H1080 0.931 . S
C1065 C1064 1.391 . S
C1065 C1069 1.376 . S
C1066 C1064 1.394 . S
C1066 C1067 1.369 . S
C1066 C1070 1.531 . S
C1067 C1066 1.369 . S
C1067 C1068 1.410 . S
C1067 C1075 1.503 . S
C1068 C1067 1.410 . S
C1068 C1069 1.392 . S
C1068 C1071 1.511 . S
C1069 C1065 1.376 . S
C1069 C1068 1.392 . S
C1069 H1081 0.929 . S
C1070 C1066 1.531 . S
C1070 H1082 0.960 . S
C1070 H1083 0.962 . S
C1070 H1084 0.960 . S
C1071 C1068 1.511 . S
C1071 H1085 0.961 . S
C1071 H1086 0.961 . S
C1071 H1087 0.961 . S
C1072 C1073 1.370 . S
C1072 C1074 1.363 . S
C1072 H1088 0.931 . S
C1073 C1072 1.370 . S
C1073 C1077 1.408 . S
C1074 C1072 1.363 . S
C1074 C1075 1.370 . S
C1074 C1078 1.524 . S
C1075 C1067 1.503 . S
C1075 C1074 1.370 . S
C1075 C1076 1.403 . S
C1076 C1075 1.403 . S
C1076 C1077 1.404 . S
C1076 C1079 1.539 . S
C1077 C1073 1.408 . S
C1077 C1076 1.404 . S
C1077 H1089 0.930 . S
C1078 C1074 1.524 . S
C1078 H1090 0.956 . S
C1078 H1091 0.961 . S
C1078 H1092 0.961 . S
C1079 C1076 1.539 . S
C1079 H1093 0.958 . S
C1079 H1094 0.961 . S
C1079 H1095 0.960 . S
H1080 C1064 0.931 . S
H1081 C1069 0.929 . S
H1082 C1070 0.960 . S
H1083 C1070 0.962 . S
H1084 C1070 0.960 . S
H1085 C1071 0.961 . S
H1086 C1071 0.961 . S
H1087 C1071 0.961 . S
H1088 C1072 0.931 . S
H1089 C1077 0.930 . S
H1090 C1078 0.956 . S
H1091 C1078 0.961 . S
H1092 C1078 0.961 . S
H1093 C1079 0.958 . S
H1094 C1079 0.961 . S
H1095 C1079 0.960 . S
C1096 C1097 1.391 . S
C1096 C1098 1.394 . S
C1096 H1112 0.931 . S
C1097 C1096 1.391 . S
C1097 C1101 1.376 . S
C1098 C1096 1.394 . S
C1098 C1099 1.369 . S
C1098 C1102 1.531 . S
C1099 C1098 1.369 . S
C1099 C1100 1.410 . S
C1099 C1107 1.503 . S
C1100 C1099 1.410 . S
C1100 C1101 1.392 . S
C1100 C1103 1.511 . S
C1101 C1097 1.376 . S
C1101 C1100 1.392 . S
C1101 H1113 0.929 . S
C1102 C1098 1.531 . S
C1102 H1114 0.960 . S
C1102 H1115 0.962 . S
C1102 H1116 0.960 . S
C1103 C1100 1.511 . S
C1103 H1117 0.961 . S
C1103 H1118 0.961 . S
C1103 H1119 0.961 . S
C1104 C1105 1.370 . S
C1104 C1106 1.363 . S
C1104 H1120 0.931 . S
C1105 C1104 1.370 . S
C1105 C1109 1.408 . S
C1106 C1104 1.363 . S
C1106 C1107 1.370 . S
C1106 C1110 1.524 . S
C1107 C1099 1.503 . S
C1107 C1106 1.370 . S
C1107 C1108 1.403 . S
C1108 C1107 1.403 . S
C1108 C1109 1.404 . S
C1108 C1111 1.539 . S
C1109 C1105 1.408 . S
C1109 C1108 1.404 . S
C1109 H1121 0.930 . S
C1110 C1106 1.524 . S
C1110 H1122 0.956 . S
C1110 H1123 0.961 . S
C1110 H1124 0.961 . S
C1111 C1108 1.539 . S
C1111 H1125 0.958 . S
C1111 H1126 0.961 . S
C1111 H1127 0.960 . S
H1112 C1096 0.931 . S
H1113 C1101 0.929 . S
H1114 C1102 0.960 . S
H1115 C1102 0.962 . S
H1116 C1102 0.960 . S
H1117 C1103 0.961 . S
H1118 C1103 0.961 . S
H1119 C1103 0.961 . S
H1120 C1104 0.931 . S
H1121 C1109 0.930 . S
H1122 C1110 0.956 . S
H1123 C1110 0.961 . S
H1124 C1110 0.961 . S
H1125 C1111 0.958 . S
H1126 C1111 0.961 . S
H1127 C1111 0.960 . S
C1128 C1129 1.391 . S
C1128 C1130 1.394 . S
C1128 H1144 0.931 . S
C1129 C1128 1.391 . S
C1129 C1133 1.376 . S
C1130 C1128 1.394 . S
C1130 C1131 1.369 . S
C1130 C1134 1.531 . S
C1131 C1130 1.369 . S
C1131 C1132 1.410 . S
C1131 C1139 1.503 . S
C1132 C1131 1.410 . S
C1132 C1133 1.392 . S
C1132 C1135 1.511 . S
C1133 C1129 1.376 . S
C1133 C1132 1.392 . S
C1133 H1145 0.929 . S
C1134 C1130 1.531 . S
C1134 H1146 0.960 . S
C1134 H1147 0.962 . S
C1134 H1148 0.960 . S
C1135 C1132 1.511 . S
C1135 H1149 0.961 . S
C1135 H1150 0.961 . S
C1135 H1151 0.961 . S
C1136 C1137 1.370 . S
C1136 C1138 1.363 . S
C1136 H1152 0.931 . S
C1137 C1136 1.370 . S
C1137 C1141 1.408 . S
C1138 C1136 1.363 . S
C1138 C1139 1.370 . S
C1138 C1142 1.524 . S
C1139 C1131 1.503 . S
C1139 C1138 1.370 . S
C1139 C1140 1.403 . S
C1140 C1139 1.403 . S
C1140 C1141 1.404 . S
C1140 C1143 1.539 . S
C1141 C1137 1.408 . S
C1141 C1140 1.404 . S
C1141 H1153 0.930 . S
C1142 C1138 1.524 . S
C1142 H1154 0.956 . S
C1142 H1155 0.961 . S
C1142 H1156 0.961 . S
C1143 C1140 1.539 . S
C1143 H1157 0.958 . S
C1143 H1158 0.961 . S
C1143 H1159 0.960 . S
H1144 C1128 0.931 . S
H1145 C1133 0.929 . S
H1146 C1134 0.960 . S
H1147 C1134 0.962 . S
H1148 C1134 0.960 . S
H1149 C1135 0.961 . S
H1150 C1135 0.961 . S
H1151 C1135 0.961 . S
H1152 C1136 0.931 . S
H1153 C1141 0.930 . S
H1154 C1142 0.956 . S
H1155 C1142 0.961 . S
H1156 C1142 0.961 . S
H1157 C1143 0.958 . S
H1158 C1143 0.961 . S
H1159 C1143 0.960 . S
C1160 C1161 1.391 . S
C1160 C1162 1.394 . S
C1160 H1176 0.931 . S
C1161 C1160 1.391 . S
C1161 C1165 1.376 . S
C1162 C1160 1.394 . S
C1162 C1163 1.369 . S
C1162 C1166 1.531 . S
C1163 C1162 1.369 . S
C1163 C1164 1.410 . S
C1163 C1171 1.503 . S
C1164 C1163 1.410 . S
C1164 C1165 1.392 . S
C1164 C1167 1.511 . S
C1165 C1161 1.376 . S
C1165 C1164 1.392 . S
C1165 H1177 0.929 . S
C1166 C1162 1.531 . S
C1166 H1178 0.960 . S
C1166 H1179 0.962 . S
C1166 H1180 0.960 . S
C1167 C1164 1.511 . S
C1167 H1181 0.961 . S
C1167 H1182 0.961 . S
C1167 H1183 0.961 . S
C1168 C1169 1.370 . S
C1168 C1170 1.363 . S
C1168 H1184 0.931 . S
C1169 C1168 1.370 . S
C1169 C1173 1.408 . S
C1170 C1168 1.363 . S
C1170 C1171 1.370 . S
C1170 C1174 1.524 . S
C1171 C1163 1.503 . S
C1171 C1170 1.370 . S
C1171 C1172 1.403 . S
C1172 C1171 1.403 . S
C1172 C1173 1.404 . S
C1172 C1175 1.539 . S
C1173 C1169 1.408 . S
C1173 C1172 1.404 . S
C1173 H1185 0.930 . S
C1174 C1170 1.524 . S
C1174 H1186 0.956 . S
C1174 H1187 0.961 . S
C1174 H1188 0.961 . S
C1175 C1172 1.539 . S
C1175 H1189 0.958 . S
C1175 H1190 0.961 . S
C1175 H1191 0.960 . S
H1176 C1160 0.931 . S
H1177 C1165 0.929 . S
H1178 C1166 0.960 . S
H1179 C1166 0.962 . S
H1180 C1166 0.960 . S
H1181 C1167 0.961 . S
H1182 C1167 0.961 . S
H1183 C1167 0.961 . S
H1184 C1168 0.931 . S
H1185 C1173 0.930 . S
H1186 C1174 0.956 . S
H1187 C1174 0.961 . S
H1188 C1174 0.961 . S
H1189 C1175 0.958 . S
H1190 C1175 0.961 . S
H1191 C1175 0.960 . S
C1192 C1193 1.391 . S
C1192 C1194 1.394 . S
C1192 H1208 0.931 . S
C1193 C1192 1.391 . S
C1193 C1197 1.376 . S
C1194 C1192 1.394 . S
C1194 C1195 1.369 . S
C1194 C1198 1.531 . S
C1195 C1194 1.369 . S
C1195 C1196 1.410 . S
C1195 C1203 1.503 . S
C1196 C1195 1.410 . S
C1196 C1197 1.392 . S
C1196 C1199 1.511 . S
C1197 C1193 1.376 . S
C1197 C1196 1.392 . S
C1197 H1209 0.929 . S
C1198 C1194 1.531 . S
C1198 H1210 0.960 . S
C1198 H1211 0.962 . S
C1198 H1212 0.960 . S
C1199 C1196 1.511 . S
C1199 H1213 0.961 . S
C1199 H1214 0.961 . S
C1199 H1215 0.961 . S
C1200 C1201 1.370 . S
C1200 C1202 1.363 . S
C1200 H1216 0.931 . S
C1201 C1200 1.370 . S
C1201 C1205 1.408 . S
C1202 C1200 1.363 . S
C1202 C1203 1.370 . S
C1202 C1206 1.524 . S
C1203 C1195 1.503 . S
C1203 C1202 1.370 . S
C1203 C1204 1.403 . S
C1204 C1203 1.403 . S
C1204 C1205 1.404 . S
C1204 C1207 1.539 . S
C1205 C1201 1.408 . S
C1205 C1204 1.404 . S
C1205 H1217 0.930 . S
C1206 C1202 1.524 . S
C1206 H1218 0.956 . S
C1206 H1219 0.961 . S
C1206 H1220 0.961 . S
C1207 C1204 1.539 . S
C1207 H1221 0.958 . S
C1207 H1222 0.961 . S
C1207 H1223 0.960 . S
H1208 C1192 0.931 . S
H1209 C1197 0.929 . S
H1210 C1198 0.960 . S
H1211 C1198 0.962 . S
H1212 C1198 0.960 . S
H1213 C1199 0.961 . S
H1214 C1199 0.961 . S
H1215 C1199 0.961 . S
H1216 C1200 0.931 . S
H1217 C1205 0.930 . S
H1218 C1206 0.956 . S
H1219 C1206 0.961 . S
H1220 C1206 0.961 . S
H1221 C1207 0.958 . S
H1222 C1207 0.961 . S
H1223 C1207 0.960 . S
C1224 C1225 1.391 . S
C1224 C1226 1.394 . S
C1224 H1240 0.931 . S
C1225 C1224 1.391 . S
C1225 C1229 1.376 . S
C1226 C1224 1.394 . S
C1226 C1227 1.369 . S
C1226 C1230 1.531 . S
C1227 C1226 1.369 . S
C1227 C1228 1.410 . S
C1227 C1235 1.503 . S
C1228 C1227 1.410 . S
C1228 C1229 1.392 . S
C1228 C1231 1.511 . S
C1229 C1225 1.376 . S
C1229 C1228 1.392 . S
C1229 H1241 0.929 . S
C1230 C1226 1.531 . S
C1230 H1242 0.960 . S
C1230 H1243 0.962 . S
C1230 H1244 0.960 . S
C1231 C1228 1.511 . S
C1231 H1245 0.961 . S
C1231 H1246 0.961 . S
C1231 H1247 0.961 . S
C1232 C1233 1.370 . S
C1232 C1234 1.363 . S
C1232 H1248 0.931 . S
C1233 C1232 1.370 . S
C1233 C1237 1.408 . S
C1234 C1232 1.363 . S
C1234 C1235 1.370 . S
C1234 C1238 1.524 . S
C1235 C1227 1.503 . S
C1235 C1234 1.370 . S
C1235 C1236 1.403 . S
C1236 C1235 1.403 . S
C1236 C1237 1.404 . S
C1236 C1239 1.539 . S
C1237 C1233 1.408 . S
C1237 C1236 1.404 . S
C1237 H1249 0.930 . S
C1238 C1234 1.524 . S
C1238 H1250 0.956 . S
C1238 H1251 0.961 . S
C1238 H1252 0.961 . S
C1239 C1236 1.539 . S
C1239 H1253 0.958 . S
C1239 H1254 0.961 1_455 S
C1239 H1255 0.960 . S
H1240 C1224 0.931 . S
H1241 C1229 0.929 . S
H1242 C1230 0.960 . S
H1243 C1230 0.962 . S
H1244 C1230 0.960 . S
H1245 C1231 0.961 . S
H1246 C1231 0.961 . S
H1247 C1231 0.961 . S
H1248 C1232 0.931 . S
H1249 C1237 0.930 . S
H1250 C1238 0.956 . S
H1251 C1238 0.961 . S
H1252 C1238 0.961 . S
H1253 C1239 0.958 . S
H1254 C1239 0.961 1_655 S
H1255 C1239 0.960 . S
C489 C116 1.803 . S
C497 C226 1.813 . S
C529 C310 1.808 . S
C521 C135 1.815 . S
C561 C303 1.815 . S
C553 C78 1.794 . S
C585 C97 1.819 . S
C593 C219 1.817 . S
C625 C383 1.814 . S
C617 C40 1.799 . S
C657 C467 1.815 . S
C649 C59 1.800 . S
C681 C2 1.809 . S
C689 C460 1.810 . S
C713 C21 1.799 . S
C721 C376 1.813 . S
C753 C210 1.586 . S
C745 C25 1.736 . S
C785 C294 1.580 . S
C777 C6 1.740 . S
C817 C305 1.462 . S
C809 C63 1.741 . S
C849 C221 1.490 . S
C841 C44 1.731 . S
C881 C389 1.572 . S
C873 C101 1.728 . S
C905 C82 1.735 . S
C913 C473 1.559 . S
C945 C462 1.454 . S
C937 C139 1.743 . S
C969 C120 1.741 . S
C977 C378 1.452 . S
C1009 C208 1.522 . S
C1001 C11 1.481 . S
C1041 C292 1.523 . S
C1033 C30 1.475 . S
C1065 C49 1.418 . S
C1073 C299 1.497 . S
C1105 C215 1.495 . S
C1097 C68 1.400 . S
C1137 C387 1.523 . S
C1129 C87 1.417 . S
C1161 C106 1.428 . S
C1169 C471 1.524 . S
C1193 C125 1.372 . S
C1201 C478 1.498 . S
C1225 C144 1.427 . S
C1233 C394 1.491 . S
