# Generated by pormake.
# Topology zzz, (3,6)-cn, num edge types: 1
# Building blocks:
#     Node 0, Type 0, BuildingBlock: ESEHIV_clean_linker_0, # of connection points: 3
#     Node 1, Type 0, BuildingBlock: ESEHIV_clean_linker_0, # of connection points: 3
#     Node 2, Type 0, BuildingBlock: ESEHIV_clean_linker_0, # of connection points: 3
#     Node 3, Type 0, BuildingBlock: ESEHIV_clean_linker_0, # of connection points: 3
#     Node 4, Type 0, BuildingBlock: ESEHIV_clean_linker_0, # of connection points: 3
#     Node 5, Type 0, BuildingBlock: ESEHIV_clean_linker_0, # of connection points: 3
#     Node 6, Type 0, BuildingBlock: ESEHIV_clean_linker_0, # of connection points: 3
#     Node 7, Type 0, BuildingBlock: ESEHIV_clean_linker_0, # of connection points: 3
#     Node 8, Type 1, BuildingBlock: FUNLAD_clean_sbu_0, # of connection points: 6
#     Node 9, Type 1, BuildingBlock: FUNLAD_clean_sbu_0, # of connection points: 6
#     Node 10, Type 1, BuildingBlock: FUNLAD_clean_sbu_0, # of connection points: 6
#     Node 11, Type 1, BuildingBlock: FUNLAD_clean_sbu_0, # of connection points: 6
#     Edge 12, Type (0, 1), BuildingBlock: XIVTED_clean_linker_0, # of connection points: 2
#     Edge 13, Type (0, 1), BuildingBlock: XIVTED_clean_linker_0, # of connection points: 2
#     Edge 14, Type (0, 1), BuildingBlock: XIVTED_clean_linker_0, # of connection points: 2
#     Edge 15, Type (0, 1), BuildingBlock: XIVTED_clean_linker_0, # of connection points: 2
#     Edge 16, Type (0, 1), BuildingBlock: XIVTED_clean_linker_0, # of connection points: 2
#     Edge 17, Type (0, 1), BuildingBlock: XIVTED_clean_linker_0, # of connection points: 2
#     Edge 18, Type (0, 1), BuildingBlock: XIVTED_clean_linker_0, # of connection points: 2
#     Edge 19, Type (0, 1), BuildingBlock: XIVTED_clean_linker_0, # of connection points: 2
#     Edge 20, Type (0, 1), BuildingBlock: XIVTED_clean_linker_0, # of connection points: 2
#     Edge 21, Type (0, 1), BuildingBlock: XIVTED_clean_linker_0, # of connection points: 2
#     Edge 22, Type (0, 1), BuildingBlock: XIVTED_clean_linker_0, # of connection points: 2
#     Edge 23, Type (0, 1), BuildingBlock: XIVTED_clean_linker_0, # of connection points: 2
#     Edge 24, Type (0, 1), BuildingBlock: XIVTED_clean_linker_0, # of connection points: 2
#     Edge 25, Type (0, 1), BuildingBlock: XIVTED_clean_linker_0, # of connection points: 2
#     Edge 26, Type (0, 1), BuildingBlock: XIVTED_clean_linker_0, # of connection points: 2
#     Edge 27, Type (0, 1), BuildingBlock: XIVTED_clean_linker_0, # of connection points: 2
#     Edge 28, Type (0, 1), BuildingBlock: XIVTED_clean_linker_0, # of connection points: 2
#     Edge 29, Type (0, 1), BuildingBlock: XIVTED_clean_linker_0, # of connection points: 2
#     Edge 30, Type (0, 1), BuildingBlock: XIVTED_clean_linker_0, # of connection points: 2
#     Edge 31, Type (0, 1), BuildingBlock: XIVTED_clean_linker_0, # of connection points: 2
#     Edge 32, Type (0, 1), BuildingBlock: XIVTED_clean_linker_0, # of connection points: 2
#     Edge 33, Type (0, 1), BuildingBlock: XIVTED_clean_linker_0, # of connection points: 2
#     Edge 34, Type (0, 1), BuildingBlock: XIVTED_clean_linker_0, # of connection points: 2
#     Edge 35, Type (0, 1), BuildingBlock: XIVTED_clean_linker_0, # of connection points: 2
# Relax obj value: 0.267
# Max RMSD: 0.236
# Mean RMSD: 0.193
data_MOF--net-zzz--node1-FUNLAD_clean_sbu_0--node2-ESEHIV_clean_linker_0--edge1-XIVTED_clean_linker_0
_symmetry_space_group_name_H-M    P1
_symmetry_Int_Tables_number       1
_symmetry_cell_setting            triclinic
loop_
_symmetry_equiv_pos_as_xyz
'x, y, z'
_cell_length_a     45.003105
_cell_length_b     50.174295
_cell_length_c     17.679194
_cell_angle_alpha  85.828531
_cell_angle_beta   85.554857
_cell_angle_gamma 92.292658
loop_
_atom_site_label
_atom_site_type_symbol
_atom_site_fract_x
_atom_site_fract_y
_atom_site_fract_z
_atom_type_partial_charge
H0 H 0.86219 0.42075 0.29087 0.0
H1 H 0.79859 0.40573 0.12805 0.0
H2 H 0.77125 0.44033 0.33701 0.0
C3 C 0.83953 0.4201 0.27423 0.0
C4 C 0.81721 0.42983 0.32317 0.0
C5 C 0.83338 0.41164 0.20293 0.0
C6 C 0.80382 0.41227 0.18263 0.0
C7 C 0.78127 0.42303 0.22947 0.0
C8 C 0.7882 0.43188 0.3002 0.0
H9 H 0.93074 0.8238 0.22269 0.0
H10 H 0.94288 0.7722 0.04024 0.0
H11 H 0.90001 0.74161 0.25767 0.0
C12 C 0.92676 0.80474 0.19913 0.0
C13 C 0.9125 0.78374 0.24651 0.0
C14 C 0.93822 0.8009 0.12503 0.0
C15 C 0.93417 0.77556 0.09747 0.0
C16 C 0.92027 0.75407 0.14467 0.0
C17 C 0.9098 0.75818 0.21994 0.0
H18 H 0.69543 0.01465 0.24681 0.0
H19 H 0.75407 0.02005 0.04384 0.0
H20 H 0.78945 0.00764 0.26435 0.0
C21 C 0.71784 0.01438 0.21936 0.0
C22 C 0.74166 0.01018 0.26416 0.0
C23 C 0.72219 0.018 0.1404 0.0
C24 C 0.75117 0.01817 0.10541 0.0
C25 C 0.77604 0.01483 0.14887 0.0
C26 C 0.77097 0.01045 0.22928 0.0
H27 H 0.55754 0.64237 0.22829 0.0
H28 H 0.58463 0.72309 0.26651 0.0
H29 H 0.53765 0.70716 0.0704 0.0
C30 C 0.55858 0.66352 0.21024 0.0
C31 C 0.54547 0.67246 0.14419 0.0
C32 C 0.57251 0.68155 0.25483 0.0
C33 C 0.57408 0.70904 0.23205 0.0
C34 C 0.56254 0.71812 0.16347 0.0
C35 C 0.54789 0.69981 0.1209 0.0
H36 H 0.16991 0.58095 0.1581 0.0
H37 H 0.23385 0.59504 0.32089 0.0
H38 H 0.26087 0.56186 0.10958 0.0
C39 C 0.19261 0.58154 0.17445 0.0
C40 C 0.21488 0.57216 0.12468 0.0
C41 C 0.19888 0.58954 0.24617 0.0
C42 C 0.2285 0.58885 0.26602 0.0
C43 C 0.251 0.57845 0.21821 0.0
C44 C 0.24396 0.57005 0.14709 0.0
H45 H 0.10221 0.17449 0.22993 0.0
H46 H 0.08605 0.2267 0.40938 0.0
H47 H 0.12989 0.25742 0.19293 0.0
C48 C 0.10481 0.19391 0.25246 0.0
C49 C 0.11866 0.21506 0.20499 0.0
C50 C 0.09281 0.19772 0.32608 0.0
C51 C 0.0952 0.22338 0.3525 0.0
C52 C 0.10857 0.24505 0.30496 0.0
C53 C 0.12 0.24085 0.23049 0.0
H54 H 0.34043 0.96355 0.22557 0.0
H55 H 0.27647 0.96768 0.41635 0.0
H56 H 0.25395 0.99381 0.1906 0.0
C57 C 0.31801 0.96748 0.24796 0.0
C58 C 0.29802 0.97841 0.19866 0.0
C59 C 0.31056 0.96391 0.32628 0.0
C60 C 0.28216 0.97033 0.35543 0.0
C61 C 0.26133 0.98076 0.30723 0.0
C62 C 0.26938 0.98496 0.22816 0.0
H63 H 0.47827 0.35311 0.20176 0.0
H64 H 0.45053 0.27207 0.1688 0.0
H65 H 0.49765 0.28923 0.36354 0.0
C66 C 0.47715 0.33207 0.22104 0.0
C67 C 0.49029 0.32356 0.28749 0.0
C68 C 0.46301 0.31375 0.1777 0.0
C69 C 0.46125 0.2864 0.20213 0.0
C70 C 0.47285 0.27781 0.27098 0.0
C71 C 0.48765 0.29634 0.31244 0.0
C72 C 0.0352 0.95731 0.83247 0.0
N73 N 0.9875 0.95675 0.64058 0.0
C74 C 1.00245 0.9338 0.63692 0.0
C75 C 0.98937 0.91122 0.60994 0.0
C76 C 0.96091 0.91218 0.58253 0.0
C77 C 0.94623 0.93648 0.58463 0.0
C78 C 0.95986 0.95854 0.61488 0.0
Zn79 Zn 0.00813 0.98598 0.69577 0.0
C80 C 0.96864 0.00303 0.82685 0.0
N81 N 0.0543 0.03978 0.8256 0.0
C82 C 0.08366 0.03853 0.8386 0.0
C83 C 0.03906 0.06211 0.83828 0.0
C84 C 0.05354 0.08469 0.86209 0.0
C85 C 0.08405 0.0844 0.87328 0.0
C86 C 0.09904 0.06072 0.86302 0.0
Zn87 Zn 0.03305 0.01088 0.77121 0.0
O88 O 0.0199 0.95572 0.77558 0.0
C89 C 0.07244 0.99399 0.63924 0.0
O90 O 0.04572 0.97995 0.84803 0.0
H91 H 0.01582 0.06283 0.82707 0.0
H92 H 0.02446 0.93264 0.65704 0.0
H93 H 0.09542 0.02067 0.82737 0.0
O94 O 0.04825 0.98191 0.62606 0.0
O95 O 0.07275 0.00759 0.69723 0.0
H96 H 0.94827 0.97693 0.6186 0.0
O97 O 0.01969 0.04156 0.6946 0.0
O98 O 0.99703 0.01681 0.61706 0.0
O99 O 0.99328 0.01344 0.84359 0.0
O100 O 0.96786 0.99084 0.76621 0.0
C101 C 0.00581 0.03971 0.63523 0.0
H102 H 1.00155 0.89306 0.61222 0.0
H103 H 0.92451 0.93857 0.56313 0.0
H104 H 0.04096 0.1023 0.8711 0.0
H105 H 0.12257 0.05967 0.87126 0.0
C106 C 0.48769 0.97624 0.61306 0.0
N107 N 0.5105 0.05605 0.64186 0.0
C108 C 0.51516 0.05701 0.56471 0.0
C109 C 0.50974 0.08007 0.52009 0.0
C110 C 0.49964 0.10269 0.55483 0.0
C111 C 0.49544 0.10132 0.63482 0.0
C112 C 0.50094 0.07765 0.67744 0.0
Zn113 Zn 0.5164 0.0201 0.70028 0.0
C114 C 0.46439 0.00145 0.80698 0.0
N115 N 0.52669 0.9417 0.80147 0.0
C116 C 0.53661 0.92011 0.76644 0.0
C117 C 0.52137 0.94075 0.87848 0.0
C118 C 0.52648 0.91772 0.92355 0.0
C119 C 0.5369 0.8951 0.88941 0.0
C120 C 0.5418 0.89645 0.80953 0.0
Zn121 Zn 0.52105 0.97765 0.74278 0.0
O122 O 0.49284 0.00103 0.61931 0.0
C123 C 0.57331 0.99629 0.6373 0.0
O124 O 0.49813 0.9592 0.65944 0.0
H125 H 0.5136 0.95812 0.90547 0.0
H126 H 0.52263 0.03961 0.53732 0.0
H127 H 0.54074 0.9213 0.70517 0.0
O128 O 0.55789 0.017 0.63515 0.0
O129 O 0.56308 0.9754 0.67765 0.0
H130 H 0.49732 0.07645 0.73882 0.0
O131 O 0.54348 0.99672 0.8256 0.0
O132 O 0.54019 0.03852 0.78174 0.0
O133 O 0.47931 0.98047 0.80611 0.0
O134 O 0.47485 0.02263 0.76829 0.0
C135 C 0.54922 0.02149 0.83042 0.0
H136 H 0.51283 0.07989 0.45879 0.0
H137 H 0.48809 0.11835 0.66431 0.0
H138 H 0.52285 0.91791 0.98476 0.0
H139 H 0.54942 0.87941 0.78049 0.0
C140 C 0.53852 0.46615 0.60751 0.0
N141 N 0.4622 0.51143 0.62244 0.0
C142 C 0.46957 0.51597 0.54628 0.0
C143 C 0.44798 0.52294 0.49693 0.0
C144 C 0.41854 0.52578 0.52618 0.0
C145 C 0.41143 0.52115 0.60497 0.0
C146 C 0.43371 0.51374 0.65235 0.0
Zn147 Zn 0.49606 0.5024 0.68978 0.0
C148 C 0.48606 0.4528 0.78703 0.0
N149 N 0.57159 0.48414 0.81291 0.0
C150 C 0.60016 0.4821 0.78323 0.0
C151 C 0.56414 0.47954 0.88903 0.0
C152 C 0.58575 0.47285 0.93859 0.0
C153 C 0.61528 0.47033 0.90961 0.0
C154 C 0.62246 0.47496 0.83084 0.0
Zn155 Zn 0.53775 0.49312 0.74545 0.0
O156 O 0.51414 0.47803 0.60612 0.0
C157 C 0.54773 0.54272 0.64823 0.0
O158 O 0.55485 0.46886 0.66207 0.0
H159 H 0.54126 0.48076 0.91157 0.0
H160 H 0.49241 0.51456 0.52356 0.0
H161 H 0.6056 0.48579 0.72261 0.0
O162 O 0.5208 0.53634 0.63834 0.0
O163 O 0.56242 0.52749 0.69071 0.0
H164 H 0.42832 0.5101 0.71301 0.0
O165 O 0.51966 0.51735 0.82913 0.0
O166 O 0.479 0.52674 0.77327 0.0
O167 O 0.51302 0.45915 0.79678 0.0
O168 O 0.47137 0.46808 0.74468 0.0
C169 C 0.49532 0.52928 0.82792 0.0
H170 H 0.4544 0.52671 0.43665 0.0
H171 H 0.38888 0.52307 0.62951 0.0
H172 H 0.57928 0.46906 -0.00115 0.0
H173 H 0.64509 0.47328 0.80651 0.0
C174 C 0.03701 0.53732 0.6101 0.0
N175 N 0.04701 0.4543 0.6374 0.0
C176 C 0.04533 0.45547 0.56074 0.0
C177 C 0.05692 0.43539 0.51815 0.0
C178 C 0.06987 0.41343 0.55474 0.0
C179 C 0.0717 0.413 0.63395 0.0
C180 C 0.06028 0.4338 0.67418 0.0
Zn181 Zn 0.0275 0.48324 0.69752 0.0
C182 C 0.06808 0.50987 0.79429 0.0
N183 N 0.98551 0.54542 0.81336 0.0
C184 C 0.97228 0.56604 0.777 0.0
C185 C 0.98712 0.544 0.89006 0.0
C186 C 0.97546 0.56392 0.93315 0.0
C187 C 0.96254 0.58599 0.89708 0.0
C188 C 0.9608 0.5867 0.81779 0.0
Zn189 Zn 1.00502 0.5165 0.75297 0.0
O190 O 0.0426 0.51271 0.60944 0.0
C191 C 0.96445 0.4898 0.65625 0.0
O192 O 0.02098 0.5454 0.66528 0.0
H193 H 0.99786 0.52755 0.91801 0.0
H194 H 0.03457 0.47184 0.53246 0.0
H195 H 0.97118 0.56679 0.716 0.0
O196 O 0.98758 0.47637 0.64584 0.0
O197 O 0.96504 0.5093 0.69835 0.0
H198 H 0.06144 0.43324 0.73514 0.0
O199 O 0.98987 0.48701 0.84092 0.0
O200 O 0.01162 0.45435 0.78529 0.0
O201 O 0.04498 0.52331 0.80492 0.0
O202 O 0.06745 0.49046 0.75188 0.0
C203 C 0.99554 0.46242 0.84038 0.0
H204 H 0.05548 0.43704 0.45717 0.0
H205 H 0.08102 0.3964 0.6652 0.0
H206 H 0.97683 0.56205 0.99414 0.0
H207 H 0.9515 0.60339 0.78693 0.0
H208 H 0.2513 0.01461 0.41866 0.0
H209 H 0.07922 0.96727 0.50909 0.0
H210 H 0.2051 0.96228 0.27958 0.0
H211 H 0.12735 0.01923 0.64601 0.0
H212 H 0.12366 0.9672 0.41992 0.0
H213 H 0.20462 0.01958 0.49537 0.0
C214 C 0.23109 0.00455 0.4035 0.0
C215 C 0.23203 0.98801 0.34275 0.0
C216 C 0.12448 0.97865 0.46938 0.0
C217 C 0.17842 0.99306 0.43161 0.0
C218 C 0.09913 0.97863 0.5206 0.0
C219 C 0.09952 0.99316 0.58564 0.0
C220 C 0.15052 0.99332 0.48303 0.0
C221 C 0.12597 0.00761 0.59706 0.0
C222 C 0.20446 0.00724 0.44762 0.0
C223 C 0.20526 0.97537 0.32562 0.0
N224 N 0.15032 0.00727 0.54647 0.0
N225 N 0.17957 0.97791 0.37039 0.0
H226 H 0.44091 0.25754 0.39975 0.0
H227 H 0.52998 0.12406 0.4217 0.0
H228 H 0.50015 0.23496 0.21449 0.0
H229 H 0.45485 0.13764 0.57929 0.0
H230 H 0.51899 0.16412 0.3443 0.0
H231 H 0.44446 0.21315 0.46474 0.0
C232 C 0.45411 0.24288 0.37213 0.0
C233 C 0.4701 0.24963 0.30171 0.0
C234 C 0.50479 0.15824 0.39555 0.0
C235 C 0.47511 0.19924 0.37643 0.0
C236 C 0.511 0.13528 0.43987 0.0
C237 C 0.49336 0.12733 0.50752 0.0
C238 C 0.48095 0.17366 0.41919 0.0
C239 C 0.46944 0.14314 0.52851 0.0
C240 C 0.45629 0.21764 0.40929 0.0
C241 C 0.48727 0.23026 0.26845 0.0
N242 N 0.46405 0.16558 0.48477 0.0
N243 N 0.48966 0.20599 0.30663 0.0
H244 H 0.2841 0.6116 0.29955 0.0
H245 H 0.40633 0.50538 0.39203 0.0
H246 H 0.28509 0.53452 0.20584 0.0
H247 H 0.37927 0.5655 0.54231 0.0
H248 H 0.36894 0.52022 0.30609 0.0
H249 H 0.32696 0.59974 0.36974 0.0
C250 C 0.29352 0.59229 0.29301 0.0
C251 C 0.28059 0.57384 0.24772 0.0
C252 C 0.37126 0.53015 0.35783 0.0
C253 C 0.32983 0.5603 0.32744 0.0
C254 C 0.39255 0.52175 0.40672 0.0
C255 C 0.39568 0.53415 0.4745 0.0
C256 C 0.35339 0.55141 0.37627 0.0
C257 C 0.37727 0.55521 0.49108 0.0
C258 C 0.31795 0.58555 0.33319 0.0
C259 C 0.29429 0.5494 0.23992 0.0
N260 N 0.35698 0.56325 0.44214 0.0
N261 N 0.31804 0.54323 0.27997 0.0
H262 H 0.08837 0.29049 0.23592 0.0
H263 H 0.11696 0.38105 0.57916 0.0
H264 H 0.12848 0.26091 0.43741 0.0
H265 H 0.04602 0.39337 0.43064 0.0
H266 H 0.13054 0.34174 0.51242 0.0
H267 H 0.08274 0.33377 0.29056 0.0
C268 C 0.09648 0.29332 0.29103 0.0
C269 C 0.10873 0.27218 0.33257 0.0
C270 C 0.11217 0.35328 0.49432 0.0
C271 C 0.10236 0.32134 0.39518 0.0
C272 C 0.10421 0.37563 0.53267 0.0
C273 C 0.08007 0.39063 0.51123 0.0
C274 C 0.09619 0.34604 0.43334 0.0
C275 C 0.06503 0.38285 0.44893 0.0
C276 C 0.09307 0.31787 0.32235 0.0
C277 C 0.11867 0.27672 0.40403 0.0
N278 N 0.07331 0.36111 0.41237 0.0
N279 N 0.1152 0.30081 0.43326 0.0
H280 H 0.79735 0.04543 0.01911 0.0
H281 H 0.96389 0.00323 0.98212 0.0
H282 H 0.8253 0.9861 0.18528 0.0
H283 H 0.91118 0.00691 0.7884 0.0
H284 H 0.91806 0.00641 0.06621 0.0
H285 H 0.84422 0.04179 0.94287 0.0
C286 C 0.81318 0.03153 0.03983 0.0
C287 C 0.80664 0.01542 0.10822 0.0
C288 C 0.91666 0.00649 0.0053 0.0
C289 C 0.86127 0.01222 0.02169 0.0
C290 C 0.9427 0.00483 0.95733 0.0
C291 C 0.94126 0.00485 0.87818 0.0
C292 C 0.88922 0.00907 0.97357 0.0
C293 C 0.91325 0.00675 0.84904 0.0
C294 C 0.84005 0.02965 0.99616 0.0
C295 C 0.82907 -0.00114 0.13312 0.0
N296 N 0.88839 0.00916 0.89662 0.0
N297 N 0.85541 0.99767 0.08983 0.0
H298 H 0.54467 0.76162 0.23767 0.0
H299 H 0.50525 0.87383 0.0207 0.0
H300 H 0.58487 0.7391 0.02375 0.0
H301 H 0.58163 0.85986 0.8676 0.0
H302 H 0.51502 0.8336 0.0984 0.0
H303 H 0.54069 0.80726 0.18016 0.0
C304 C 0.55303 0.76646 0.17895 0.0
C305 C 0.56476 0.74664 0.13496 0.0
C306 C 0.53007 0.8396 0.04884 0.0
C307 C 0.55945 0.79824 0.06812 0.0
C308 C 0.52441 0.86259 0.00396 0.0
C309 C 0.54269 0.87045 0.93731 0.0
C310 C 0.55414 0.82415 0.0269 0.0
C311 C 0.56665 0.85449 0.91773 0.0
C312 C 0.55032 0.79233 0.14573 0.0
C313 C 0.57532 0.75382 0.05915 0.0
N314 N 0.5715 0.83201 0.96194 0.0
N315 N 0.57228 0.77899 0.028 0.0
H316 H 0.74724 0.46711 0.23941 0.0
H317 H 0.65521 0.43114 0.8941 0.0
H318 H 0.74841 0.38956 0.14843 0.0
H319 H 0.62702 0.49115 0.04355 0.0
H320 H 0.69217 0.41751 0.98223 0.0
H321 H 0.70426 0.47755 0.16766 0.0
C322 C 0.7381 0.45203 0.20579 0.0
C323 C 0.7518 0.42755 0.19915 0.0
C324 C 0.67779 0.43358 0.99593 0.0
C325 C 0.70326 0.43976 0.11513 0.0
C326 C 0.65695 0.44151 0.94533 0.0
C327 C 0.63818 0.46234 0.96157 0.0
C328 C 0.68023 0.44687 0.06261 0.0
C329 C 0.64105 0.47492 0.02921 0.0
C330 C 0.71372 0.45813 0.16431 0.0
C331 C 0.73908 0.40895 0.15384 0.0
N332 N 0.66188 0.46716 0.07701 0.0
N333 N 0.71588 0.41561 0.11262 0.0
H334 H 0.89935 0.73875 0.01272 0.0
H335 H 0.98632 0.60554 0.02192 0.0
H336 H 0.94067 0.70837 0.21145 0.0
H337 H 0.91553 0.61858 0.87337 0.0
H338 H 0.97081 0.64367 0.09001 0.0
H339 H 0.90557 0.69557 0.95809 0.0
C340 C 0.90932 0.72279 0.04521 0.0
C341 C 0.91957 0.72702 0.11651 0.0
C342 C 0.95849 0.638 0.04298 0.0
C343 C 0.92728 0.67797 0.05405 0.0
C344 C 0.96722 0.61606 0.00406 0.0
C345 C 0.95228 0.6086 0.94132 0.0
C346 C 0.93498 0.65306 0.01843 0.0
C347 C 0.92818 0.62375 0.92022 0.0
C348 C 0.91283 0.69821 0.01416 0.0
C349 C 0.93232 0.7058 0.1565 0.0
N350 N 0.92049 0.64541 0.95816 0.0
N351 N 0.93624 0.68229 0.1242 0.0
H352 H 0.10661 0.14495 0.334 0.0
H353 H 0.01062 0.04241 0.48021 0.0
H354 H 0.04195 0.19826 0.42409 0.0
H355 H 1.00258 0.09141 0.67077 0.0
H356 H 0.02771 0.0823 0.39746 0.0
H357 H 0.07689 0.1071 0.39766 0.0
C358 C 0.08603 0.14876 0.36651 0.0
C359 C 0.07654 0.17493 0.37224 0.0
C360 C 0.0215 0.0843 0.45714 0.0
C361 C 0.04261 0.13148 0.4461 0.0
C362 C 0.01134 0.0617 0.50402 0.0
C363 C 0.00564 0.06369 0.58236 0.0
C364 C 0.02564 0.10888 0.48911 0.0
C365 C 0.00716 0.08912 0.61059 0.0
C366 C 0.06903 0.12708 0.40245 0.0
C367 C 0.05025 0.17851 0.41815 0.0
N368 N 0.01741 0.1108 0.56405 0.0
N369 N 0.03428 0.15698 0.45406 0.0
H370 H 0.3505 0.92384 0.32097 0.0
H371 H 0.46775 0.00765 0.49825 0.0
H372 H 0.32538 0.99156 0.44482 0.0
H373 H 0.45739 0.92753 0.60727 0.0
H374 H 0.42332 -0.00096 0.43195 0.0
H375 H 0.39622 0.92138 0.38943 0.0
C376 C 0.35426 0.9377 0.36383 0.0
C377 C 0.33426 0.95795 0.37748 0.0
C378 C 0.4312 0.98324 0.46939 0.0
C379 C 0.38611 0.95557 0.45322 0.0
C380 C 0.45656 0.98801 0.50702 0.0
C381 C 0.46597 0.9684 0.55947 0.0
C382 C 0.41537 0.95861 0.48323 0.0
C383 C 0.45073 0.94321 0.56763 0.0
C384 C 0.38017 0.93624 0.40255 0.0
C385 C 0.34008 0.97553 0.43312 0.0
N386 N 0.42574 0.93904 0.53036 0.0
N387 N 0.36585 0.97431 0.46776 0.0
H388 H 0.52441 0.36845 0.23086 0.0
H389 H 0.55836 0.41629 0.63599 0.0
H390 H 0.49364 0.32363 0.44257 0.0
H391 H 0.53062 0.47022 0.45639 0.0
H392 H 0.55477 0.37939 0.55258 0.0
H393 H 0.54565 0.40316 0.30332 0.0
C394 C 0.52213 0.36575 0.29238 0.0
C395 C 0.50643 0.34324 0.33048 0.0
C396 C 0.55037 0.39949 0.53099 0.0
C397 C 0.53214 0.3823 0.41294 0.0
C398 C 0.55268 0.42051 0.57801 0.0
C399 C 0.54468 0.44615 0.55262 0.0
C400 C 0.54068 0.40446 0.458 0.0
C401 C 0.53688 0.45062 0.47772 0.0
C402 C 0.53463 0.38544 0.33339 0.0
C403 C 0.5055 0.34047 0.41037 0.0
N404 N 0.53489 0.42988 0.43293 0.0
N405 N 0.51802 0.35988 0.44898 0.0
H406 H 0.19611 0.58049 0.40284 0.0
H407 H 0.06598 0.58404 0.63455 0.0
H408 H 0.14364 0.61006 0.22197 0.0
H409 H 0.04564 0.53299 0.45773 0.0
H410 H 0.10412 0.60852 0.54568 0.0
H411 H 0.15218 0.58 0.491 0.0
C412 C 0.17584 0.58771 0.3813 0.0
C413 C 0.1739 0.59479 0.30334 0.0
C414 C 0.0904 0.59263 0.52593 0.0
C415 C 0.12306 0.59307 0.40511 0.0
C416 C 0.06867 0.57877 0.57613 0.0
C417 C 0.05299 0.55645 0.55303 0.0
C418 C 0.0957 0.58436 0.45225 0.0
C419 C 0.05752 0.55003 0.47737 0.0
C420 C 0.15063 0.58727 0.43225 0.0
C421 C 0.14624 0.60328 0.28045 0.0
N422 N 0.07874 0.56382 0.42956 0.0
N423 N 0.12161 0.60117 0.33053 0.0
H424 H 0.98869 0.79722 0.02775 0.0
H425 H 0.02338 0.95471 0.98575 0.0
H426 H 0.93021 0.85495 0.12151 0.0
H427 H 0.04341 0.90611 0.79866 0.0
H428 H 1.00376 0.91445 0.0636 0.0
H429 H 0.02074 0.83426 0.96461 0.0
C430 C 0.98238 0.81755 0.03476 0.0
C431 C 0.95661 0.82285 0.08049 0.0
C432 C 0.01334 0.91257 0.00621 0.0
C433 C 0.99408 0.86502 0.01178 0.0
C434 C 0.02497 0.9354 0.96235 0.0
C435 C 0.0349 0.93356 0.88598 0.0
C436 C 0.01217 0.88792 0.97344 0.0
C437 C 0.03588 0.90818 0.85754 0.0
C438 C 1.00096 0.83859 -0.00035 0.0
C439 C 0.95009 0.84973 0.08846 0.0
N440 N 0.02425 0.88627 0.90109 0.0
N441 N 0.96881 0.86976 0.055 0.0
H442 H 0.67017 0.98811 0.16069 0.0
H443 H 0.59419 0.06038 0.81402 0.0
H444 H 0.71419 0.05407 0.01936 0.0
H445 H 0.55151 0.99848 0.97233 0.0
H446 H 0.63629 0.06269 0.89435 0.0
H447 H 0.62528 0.99448 0.09548 0.0
C448 C 0.67031 0.00405 0.11586 0.0
C449 C 0.69584 0.02074 0.09578 0.0
C450 C 0.61739 0.04906 0.91225 0.0
C451 C 0.64435 0.02807 0.01984 0.0
C452 C 0.59325 0.04799 0.86703 0.0
C453 C 0.56961 0.02909 0.88672 0.0
C454 C 0.61756 0.03109 0.97705 0.0
C455 C 0.56951 0.01317 0.95509 0.0
C456 C 0.64462 0.00772 0.07859 0.0
C457 C 0.69497 0.04069 0.03616 0.0
N458 N 0.59329 0.01432 0.99728 0.0
N459 N 0.66956 0.04382 3e-05 0.0
H460 H 0.54286 0.67326 0.98887 0.0
H461 H 0.50224 0.52422 0.97929 0.0
H462 H 0.511 0.62754 0.19822 0.0
H463 H 0.47696 0.5797 0.80031 0.0
H464 H 0.5056 0.56103 0.06235 0.0
H465 H 0.51955 0.63939 0.91767 0.0
C466 C 0.53061 0.6564 0.02014 0.0
C467 C 0.5294 0.65315 0.09995 0.0
C468 C 0.49846 0.56501 0.00566 0.0
C469 C 0.50331 0.61405 0.01828 0.0
C470 C 0.4965 0.54406 0.9585 0.0
C471 C 0.48925 0.54909 0.88335 0.0
C472 C 0.49425 0.59118 0.9762 0.0
C473 C 0.48235 0.5751 0.85833 0.0
C474 C 0.51731 0.63707 0.97927 0.0
C475 C 0.51347 0.63054 0.1368 0.0
N476 N 0.48582 0.59542 0.9041 0.0
N477 N 0.50156 0.61158 0.09562 0.0
H478 H 0.83645 0.41965 0.04597 0.0
H479 H 0.96655 0.41571 0.81609 0.0
H480 H 0.88848 0.39116 0.22899 0.0
H481 H 0.98709 0.46675 0.99277 0.0
H482 H 0.92838 0.39131 0.90507 0.0
H483 H 0.8805 0.41951 0.95855 0.0
C484 C 0.85664 0.41252 0.06819 0.0
C485 C 0.85842 0.40596 0.14647 0.0
C486 C 0.94215 0.40717 0.92478 0.0
C487 C 0.90943 0.40696 0.04545 0.0
C488 C 0.96389 0.42098 0.87451 0.0
C489 C 0.97962 0.44328 0.89753 0.0
C490 C 0.93688 0.41549 0.99843 0.0
C491 C 0.97516 0.44972 0.97319 0.0
C492 C 0.88193 0.4126 0.01763 0.0
C493 C 0.88601 0.39757 0.17018 0.0
N494 N 0.95392 0.43599 0.02105 0.0
N495 N 0.91072 0.39933 0.1204 0.0
H496 H 0.09338 0.22995 0.07509 0.0
H497 H 0.07964 0.13637 0.81767 0.0
H498 H 0.16419 0.1844 0.16101 0.0
H499 H 0.12439 0.08784 0.98113 0.0
H500 H 0.09937 0.17652 0.86996 0.0
H501 H 0.09331 0.20275 0.96672 0.0
C502 C 0.11015 0.21521 0.0685 0.0
C503 C 0.12865 0.2092 0.12688 0.0
C504 C 0.10488 0.15717 0.89465 0.0
C505 C 0.12835 0.17728 0.00434 0.0
C506 C 0.09367 0.1342 0.86464 0.0
C507 C 0.09963 0.10872 0.8967 0.0
C508 C 0.12183 0.1546 0.95801 0.0
C509 C 0.11889 0.10706 0.95532 0.0
C510 C 0.11 0.19936 0.00673 0.0
C511 C 0.14956 0.18952 0.11686 0.0
N512 N 0.12888 0.12968 0.98488 0.0
N513 N 0.14823 0.1737 0.05802 0.0
H514 H 0.30787 0.94371 0.08981 0.0
H515 H 0.43107 0.04332 0.85374 0.0
H516 H 0.31832 0.02694 0.13074 0.0
H517 H 0.43027 0.95714 0.86148 0.0
H518 H 0.38342 0.03998 0.93324 0.0
H519 H 0.34464 0.95103 0.98012 0.0
C520 C 0.31696 0.96381 0.07343 0.0
C521 C 0.30977 0.98483 0.11857 0.0
C522 C 0.39362 0.02186 0.91681 0.0
C523 C 0.35307 0.99319 0.99545 0.0
C524 C 0.4208 0.02375 0.87156 0.0
C525 C 0.43492 0.00048 0.85164 0.0
C526 C 0.38028 0.99653 0.94124 0.0
C527 C 0.4205 0.97564 0.87615 0.0
C528 C 0.33837 0.96792 0.01167 0.0
C529 C 0.3229 0.01035 0.0964 0.0
N530 N 0.39415 0.97436 0.91956 0.0
N531 N 0.34431 0.01376 0.03711 0.0
H532 H 0.48375 0.30225 0.03578 0.0
H533 H 0.43064 0.44211 0.86277 0.0
H534 H 0.42083 0.35026 0.15398 0.0
H535 H 0.51255 0.40554 0.79471 0.0
H536 H 0.41466 0.40098 0.94299 0.0
H537 H 0.48076 0.33157 0.91976 0.0
C538 C 0.4683 0.31827 0.03626 0.0
C539 C 0.45272 0.3241 0.10427 0.0
C540 C 0.4358 0.40181 0.90896 0.0
C541 C 0.4498 0.35805 0.97315 0.0
C542 C 0.44483 0.42517 0.86325 0.0
C543 C 0.47309 0.42719 0.82347 0.0
C544 C 0.45504 0.38041 0.91344 0.0
C545 C 0.49078 0.40482 0.82577 0.0
C546 C 0.46685 0.33519 0.97043 0.0
C547 C 0.4333 0.3453 0.10241 0.0
N548 N 0.48159 0.38246 0.87051 0.0
N549 N 0.43282 0.36189 0.03826 0.0
H550 H 0.19666 0.60261 0.00615 0.0
H551 H 0.11505 0.47921 0.83217 0.0
H552 H 0.21028 0.52088 0.08273 0.0
H553 H 0.084 0.55946 0.83222 0.0
H554 H 0.15924 0.49408 0.89498 0.0
H555 H 0.16633 0.58683 0.90813 0.0
C556 C 0.1941 0.58131 0.00026 0.0
C557 C 0.20589 0.56297 0.05208 0.0
C558 C 0.14282 0.50838 0.88036 0.0
C559 C 0.17036 0.54472 0.94244 0.0
C560 C 0.11768 0.49994 0.84475 0.0
C561 C 0.09567 0.51806 0.82821 0.0
C562 C 0.1461 0.53519 0.89765 0.0
C563 C 0.10015 0.54471 0.84521 0.0
C564 C 0.17652 0.57229 0.94508 0.0
C565 C 0.20166 0.53556 0.04316 0.0
N566 N 0.12478 0.55243 0.87896 0.0
N567 N 0.18372 0.52718 0.99011 0.0
H568 H 0.94201 0.76695 0.36718 0.0
H569 H 0.90096 0.89672 0.57926 0.0
H570 H 0.86934 0.8149 0.30404 0.0
H571 H 0.98965 0.87197 0.51273 0.0
H572 H 0.88028 0.85748 0.52269 0.0
H573 H 0.94811 0.79402 0.47511 0.0
C574 C 0.92618 0.78214 0.3788 0.0
C575 C 0.90539 0.789 0.32662 0.0
C576 C 0.90425 0.86058 0.5225 0.0
C577 C 0.91275 0.82036 0.4477 0.0
C578 C 0.91618 0.88317 0.55362 0.0
C579 C 0.94731 0.88801 0.55135 0.0
C580 C 0.92355 0.84237 0.49082 0.0
C581 C 0.96563 0.86913 0.51847 0.0
C582 C 0.92997 0.79785 0.43954 0.0
C583 C 0.8857 0.80918 0.34326 0.0
N584 N 0.95348 0.84728 0.48983 0.0
N585 N 0.89035 0.82474 0.40144 0.0
H586 H 0.72662 0.9627 0.34436 0.0
H587 H 0.60644 0.04063 0.57745 0.0
H588 H 0.73361 0.0475 0.36638 0.0
H589 H 0.60935 0.95463 0.60423 0.0
H590 H 0.65559 0.04281 0.50869 0.0
H591 H 0.68859 0.95804 0.45201 0.0
C592 C 0.72142 0.98012 0.37484 0.0
C593 C 0.73349 0.0055 0.34688 0.0
C594 C 0.6457 0.02342 0.53002 0.0
C595 C 0.68873 0.00062 0.46712 0.0
C596 C 0.61741 0.02213 0.56882 0.0
C597 C 0.60348 0.99736 0.59598 0.0
C598 C 0.66027 -0.00025 0.51684 0.0
C599 C 0.61912 0.97415 0.58384 0.0
C600 C 0.6992 0.97755 0.43531 0.0
C601 C 0.72517 0.02754 0.38681 0.0
N602 N 0.6465 0.97588 0.5443 0.0
N603 N 0.70279 0.02471 0.44352 0.0
H604 H 0.61504 0.6453 0.27692 0.0
H605 H 0.52207 0.5903 0.64772 0.0
H606 H 0.55111 0.69166 0.39748 0.0
H607 H 0.60187 0.55326 0.56596 0.0
H608 H 0.53802 0.63107 0.56928 0.0
H609 H 0.61771 0.61582 0.39245 0.0
C610 C 0.6025 0.64986 0.32884 0.0
C611 C 0.58268 0.67075 0.32792 0.0
C612 C 0.55248 0.61433 0.56935 0.0
C613 C 0.58468 0.63662 0.45921 0.0
C614 C 0.5433 0.59102 0.61399 0.0
C615 C 0.56057 0.56843 0.61231 0.0
C616 C 0.57871 0.61481 0.52069 0.0
C617 C 0.58795 0.57033 0.56838 0.0
C618 C 0.60384 0.63294 0.39464 0.0
C619 C 0.56667 0.67576 0.3961 0.0
N620 N 0.59588 0.59296 0.52271 0.0
N621 N 0.56744 0.65839 0.45858 0.0
H622 H 0.8218 0.48136 0.36311 0.0
H623 H 0.94803 0.4397 0.62445 0.0
H624 H 0.8353 0.39995 0.44299 0.0
H625 H 0.91814 0.5204 0.61278 0.0
H626 H 0.90428 0.42528 0.56324 0.0
H627 H 0.8527 0.49697 0.46141 0.0
C628 C 0.83025 0.46685 0.40352 0.0
C629 C 0.8261 0.43938 0.39546 0.0
C630 C 0.90698 0.44613 0.57454 0.0
C631 C 0.86208 0.45687 0.50543 0.0
C632 C 0.93215 0.45442 0.60895 0.0
C633 C 0.93689 0.48135 0.62268 0.0
C634 C 0.88654 0.46497 0.55188 0.0
C635 C 0.91532 0.49947 0.60265 0.0
C636 C 0.8481 0.47571 0.45901 0.0
C637 C 0.838 0.42129 0.44778 0.0
N638 N 0.89125 0.49104 0.56689 0.0
N639 N 0.85586 0.43034 0.49965 0.0
loop_
_geom_bond_atom_site_label_1
_geom_bond_atom_site_label_2
_geom_bond_distance
_geom_bond_site_symmetry_2
_ccdc_geom_bond_type
H0 C3 0.931 . S
H1 C6 0.928 . S
H2 C8 0.930 . S
C3 H0 0.931 . S
C3 C4 1.413 . S
C3 C5 1.360 . S
C4 C3 1.413 . S
C4 C8 1.429 . S
C5 C3 1.360 . S
C5 C6 1.372 . S
C6 H1 0.928 . S
C6 C5 1.372 . S
C6 C7 1.404 . S
C7 C6 1.404 . S
C7 C8 1.391 . S
C8 H2 0.930 . S
C8 C4 1.429 . S
C8 C7 1.391 . S
H9 C12 0.931 . S
H10 C15 0.928 . S
H11 C17 0.930 . S
C12 H9 0.931 . S
C12 C13 1.413 . S
C12 C14 1.360 1_554 S
C13 C12 1.413 . S
C13 C17 1.429 . S
C14 C12 1.360 1_556 S
C14 C15 1.372 . S
C15 H10 0.928 . S
C15 C14 1.372 . S
C15 C16 1.404 . S
C16 C15 1.404 . S
C16 C17 1.391 1_556 S
C17 H11 0.930 . S
C17 C13 1.429 . S
C17 C16 1.391 1_554 S
H18 C21 0.931 . S
H19 C24 0.928 1_556 S
H20 C26 0.929 . S
C21 H18 0.931 . S
C21 C22 1.413 . S
C21 C23 1.360 . S
C22 C21 1.413 . S
C22 C26 1.430 1_565 S
C23 C21 1.360 . S
C23 C24 1.374 . S
C24 H19 0.928 1_554 S
C24 C23 1.374 . S
C24 C25 1.405 . S
C25 C24 1.405 . S
C25 C26 1.389 1_565 S
C26 H20 0.929 . S
C26 C22 1.430 1_545 S
C26 C25 1.389 1_545 S
H27 C30 0.931 . S
H28 C33 0.928 . S
H29 C35 0.930 1_556 S
C30 H27 0.931 . S
C30 C31 1.413 . S
C30 C32 1.360 . S
C31 C30 1.413 . S
C31 C35 1.429 . S
C32 C30 1.360 . S
C32 C33 1.372 . S
C33 H28 0.928 . S
C33 C32 1.372 . S
C33 C34 1.404 . S
C34 C33 1.404 . S
C34 C35 1.391 . S
C35 H29 0.930 1_554 S
C35 C31 1.429 . S
C35 C34 1.391 . S
H36 C39 0.931 . S
H37 C42 0.928 . S
H38 C44 0.930 . S
C39 H36 0.931 . S
C39 C40 1.413 . S
C39 C41 1.360 . S
C40 C39 1.413 . S
C40 C44 1.429 . S
C41 C39 1.360 . S
C41 C42 1.372 . S
C42 H37 0.928 . S
C42 C41 1.372 . S
C42 C43 1.404 . S
C43 C42 1.404 . S
C43 C44 1.391 . S
C44 H38 0.930 . S
C44 C40 1.429 . S
C44 C43 1.391 . S
H45 C48 0.931 . S
H46 C51 0.928 . S
H47 C53 0.930 . S
C48 H45 0.931 . S
C48 C49 1.413 . S
C48 C50 1.360 . S
C49 C48 1.413 . S
C49 C53 1.429 . S
C50 C48 1.360 . S
C50 C51 1.372 . S
C51 H46 0.928 . S
C51 C50 1.372 . S
C51 C52 1.404 . S
C52 C51 1.404 . S
C52 C53 1.391 . S
C53 H47 0.930 . S
C53 C49 1.429 . S
C53 C52 1.391 . S
H54 C57 0.930 . S
H55 C60 0.928 . S
H56 C62 0.930 . S
C57 H54 0.930 . S
C57 C58 1.413 . S
C57 C59 1.360 . S
C58 C57 1.413 . S
C58 C62 1.429 1_565 S
C59 C57 1.360 . S
C59 C60 1.371 . S
C60 H55 0.928 . S
C60 C59 1.371 . S
C60 C61 1.404 . S
C61 C60 1.404 . S
C61 C62 1.392 1_565 S
C62 H56 0.930 . S
C62 C58 1.429 1_545 S
C62 C61 1.392 1_545 S
H63 C66 0.931 . S
H64 C69 0.928 . S
H65 C71 0.930 . S
C66 H63 0.931 . S
C66 C67 1.413 . S
C66 C68 1.360 . S
C67 C66 1.413 . S
C67 C71 1.429 . S
C68 C66 1.360 . S
C68 C69 1.372 . S
C69 H64 0.928 . S
C69 C68 1.372 . S
C69 C70 1.404 . S
C70 C69 1.404 . S
C70 C71 1.391 . S
C71 H65 0.930 . S
C71 C67 1.429 . S
C71 C70 1.391 . S
C72 O88 1.251 1_455 S
C72 O90 1.254 . S
N73 C74 1.333 . S
N73 C78 1.307 . S
N73 Zn79 2.020 1_655 S
C74 N73 1.333 . S
C74 C75 1.379 . S
C74 H92 0.952 . S
C75 C74 1.379 . S
C75 C76 1.390 . S
C75 H102 0.949 . S
C76 C75 1.390 . S
C76 C77 1.357 . S
C77 C76 1.357 . S
C77 C78 1.370 . S
C77 H103 0.950 . S
C78 N73 1.307 . S
C78 C77 1.370 . S
C78 H96 0.948 1_565 S
Zn79 N73 2.020 1_455 S
Zn79 O88 2.039 1_455 S
Zn79 O94 2.034 . S
Zn79 O98 2.025 1_565 S
Zn79 O100 2.023 1_465 S
C80 O99 1.246 . S
C80 O100 1.251 . S
N81 C82 1.307 . S
N81 C83 1.333 . S
N81 Zn87 2.020 . S
C82 N81 1.307 . S
C82 C86 1.370 1_556 S
C82 H93 0.948 1_545 S
C83 N81 1.333 . S
C83 C84 1.379 . S
C83 H91 0.952 . S
C84 C83 1.379 . S
C84 C85 1.390 1_556 S
C84 H104 0.949 . S
C85 C84 1.390 1_554 S
C85 C86 1.357 . S
C86 C82 1.370 1_554 S
C86 C85 1.357 . S
C86 H105 0.950 . S
Zn87 N81 2.020 . S
Zn87 O90 2.025 1_545 S
Zn87 O95 2.023 . S
Zn87 O97 2.039 . S
Zn87 O99 2.034 1_455 S
O88 C72 1.251 1_655 S
O88 Zn79 2.039 1_655 S
C89 O94 1.246 . S
C89 O95 1.251 1_565 S
O90 C72 1.254 . S
O90 Zn87 2.025 1_565 S
H91 C83 0.952 . S
H92 C74 0.952 . S
H93 C82 0.948 1_565 S
O94 Zn79 2.034 . S
O94 C89 1.246 . S
O95 Zn87 2.023 . S
O95 C89 1.251 1_545 S
H96 C78 0.948 1_545 S
O97 Zn87 2.039 . S
O97 C101 1.251 . S
O98 Zn79 2.025 1_545 S
O98 C101 1.254 . S
O99 C80 1.246 . S
O99 Zn87 2.034 1_655 S
O100 Zn79 2.023 1_645 S
O100 C80 1.251 . S
C101 O97 1.251 . S
C101 O98 1.254 . S
H102 C75 0.949 . S
H103 C77 0.950 . S
H104 C84 0.949 . S
H105 C86 0.950 . S
C106 O122 1.251 1_565 S
C106 O124 1.254 . S
N107 C108 1.333 . S
N107 C112 1.307 . S
N107 Zn113 2.020 . S
C108 N107 1.333 . S
C108 C109 1.379 . S
C108 H126 0.952 . S
C109 C108 1.379 . S
C109 C110 1.390 . S
C109 H136 0.949 . S
C110 C109 1.390 . S
C110 C111 1.357 . S
C111 C110 1.357 . S
C111 C112 1.370 . S
C111 H137 0.950 . S
C112 N107 1.307 . S
C112 C111 1.370 . S
C112 H130 0.948 . S
Zn113 N107 2.020 . S
Zn113 O122 2.039 . S
Zn113 O128 2.034 . S
Zn113 O132 2.025 . S
Zn113 O134 2.024 . S
C114 O133 1.246 1_545 S
C114 O134 1.249 . S
N115 C116 1.307 . S
N115 C117 1.333 . S
N115 Zn121 2.020 . S
C116 N115 1.307 . S
C116 C120 1.370 . S
C116 H127 0.948 . S
C117 N115 1.333 . S
C117 C118 1.379 . S
C117 H125 0.952 . S
C118 C117 1.379 . S
C118 C119 1.390 . S
C118 H138 0.949 . S
C119 C118 1.390 . S
C119 C120 1.357 . S
C120 C116 1.370 . S
C120 C119 1.357 . S
C120 H139 0.950 . S
Zn121 N115 2.020 . S
Zn121 O124 2.025 . S
Zn121 O129 2.024 . S
Zn121 O131 2.039 . S
Zn121 O133 2.034 . S
O122 C106 1.251 1_545 S
O122 Zn113 2.039 . S
C123 O128 1.246 1_565 S
C123 O129 1.249 . S
O124 C106 1.254 . S
O124 Zn121 2.025 . S
H125 C117 0.952 . S
H126 C108 0.952 . S
H127 C116 0.948 . S
O128 Zn113 2.034 . S
O128 C123 1.246 1_545 S
O129 Zn121 2.024 . S
O129 C123 1.249 . S
H130 C112 0.948 . S
O131 Zn121 2.039 . S
O131 C135 1.251 1_565 S
O132 Zn113 2.025 . S
O132 C135 1.254 . S
O133 C114 1.246 1_565 S
O133 Zn121 2.034 . S
O134 Zn113 2.024 . S
O134 C114 1.249 . S
C135 O131 1.251 1_545 S
C135 O132 1.254 . S
H136 C109 0.949 . S
H137 C111 0.950 . S
H138 C118 0.949 . S
H139 C120 0.950 . S
C140 O156 1.251 . S
C140 O158 1.254 . S
N141 C142 1.333 . S
N141 C146 1.307 . S
N141 Zn147 2.020 . S
C142 N141 1.333 . S
C142 C143 1.379 . S
C142 H160 0.952 . S
C143 C142 1.379 . S
C143 C144 1.390 . S
C143 H170 0.949 . S
C144 C143 1.390 . S
C144 C145 1.357 . S
C145 C144 1.357 . S
C145 C146 1.370 . S
C145 H171 0.950 . S
C146 N141 1.307 . S
C146 C145 1.370 . S
C146 H164 0.948 . S
Zn147 N141 2.020 . S
Zn147 O156 2.039 . S
Zn147 O162 2.034 . S
Zn147 O166 2.025 . S
Zn147 O168 2.024 . S
C148 O167 1.246 . S
C148 O168 1.249 . S
N149 C150 1.307 . S
N149 C151 1.333 . S
N149 Zn155 2.020 . S
C150 N149 1.307 . S
C150 C154 1.370 . S
C150 H161 0.948 . S
C151 N149 1.333 . S
C151 C152 1.379 . S
C151 H159 0.952 . S
C152 C151 1.379 . S
C152 C153 1.390 . S
C152 H172 0.949 . S
C153 C152 1.390 . S
C153 C154 1.357 . S
C154 C150 1.370 . S
C154 C153 1.357 . S
C154 H173 0.950 . S
Zn155 N149 2.020 . S
Zn155 O158 2.025 . S
Zn155 O163 2.024 . S
Zn155 O165 2.039 . S
Zn155 O167 2.034 . S
O156 C140 1.251 . S
O156 Zn147 2.039 . S
C157 O162 1.246 . S
C157 O163 1.249 . S
O158 C140 1.254 . S
O158 Zn155 2.025 . S
H159 C151 0.952 . S
H160 C142 0.952 . S
H161 C150 0.948 . S
O162 Zn147 2.034 . S
O162 C157 1.246 . S
O163 Zn155 2.024 . S
O163 C157 1.249 . S
H164 C146 0.948 . S
O165 Zn155 2.039 . S
O165 C169 1.251 . S
O166 Zn147 2.025 . S
O166 C169 1.254 . S
O167 C148 1.246 . S
O167 Zn155 2.034 . S
O168 Zn147 2.024 . S
O168 C148 1.249 . S
C169 O165 1.251 . S
C169 O166 1.254 . S
H170 C143 0.949 . S
H171 C145 0.950 . S
H172 C152 0.949 . S
H173 C154 0.950 . S
C174 O190 1.251 . S
C174 O192 1.254 . S
N175 C176 1.333 . S
N175 C180 1.307 . S
N175 Zn181 2.020 . S
C176 N175 1.333 . S
C176 C177 1.379 . S
C176 H194 0.952 . S
C177 C176 1.379 . S
C177 C178 1.390 . S
C177 H204 0.949 . S
C178 C177 1.390 . S
C178 C179 1.357 . S
C179 C178 1.357 . S
C179 C180 1.370 . S
C179 H205 0.950 . S
C180 N175 1.307 . S
C180 C179 1.370 . S
C180 H198 0.948 . S
Zn181 N175 2.020 . S
Zn181 O190 2.039 . S
Zn181 O196 2.034 1_455 S
Zn181 O200 2.025 1_455 S
Zn181 O202 2.024 . S
C182 O201 1.246 . S
C182 O202 1.249 . S
N183 C184 1.307 . S
N183 C185 1.333 . S
N183 Zn189 2.020 1_655 S
C184 N183 1.307 . S
C184 C188 1.370 . S
C184 H195 0.948 1_655 S
C185 N183 1.333 . S
C185 C186 1.379 . S
C185 H193 0.952 . S
C186 C185 1.379 . S
C186 C187 1.390 . S
C186 H206 0.949 . S
C187 C186 1.390 . S
C187 C188 1.357 . S
C188 C184 1.370 . S
C188 C187 1.357 . S
C188 H207 0.950 . S
Zn189 N183 2.020 1_455 S
Zn189 O192 2.025 . S
Zn189 O197 2.024 1_455 S
Zn189 O199 2.039 1_455 S
Zn189 O201 2.034 . S
O190 C174 1.251 . S
O190 Zn181 2.039 . S
C191 O196 1.246 . S
C191 O197 1.249 . S
O192 C174 1.254 . S
O192 Zn189 2.025 . S
H193 C185 0.952 . S
H194 C176 0.952 . S
H195 C184 0.948 1_455 S
O196 Zn181 2.034 1_655 S
O196 C191 1.246 . S
O197 Zn189 2.024 1_655 S
O197 C191 1.249 . S
H198 C180 0.948 . S
O199 Zn189 2.039 1_655 S
O199 C203 1.251 . S
O200 Zn181 2.025 1_655 S
O200 C203 1.254 . S
O201 C182 1.246 . S
O201 Zn189 2.034 . S
O202 Zn181 2.024 . S
O202 C182 1.249 . S
C203 O199 1.251 . S
C203 O200 1.254 . S
H204 C177 0.949 . S
H205 C179 0.950 . S
H206 C186 0.949 . S
H207 C188 0.950 . S
H208 C214 0.930 . S
H209 C218 0.930 . S
H210 C223 0.929 . S
H211 C221 0.929 . S
H212 C216 0.929 . S
H213 C222 0.929 . S
C214 H208 0.930 . S
C214 C215 1.343 1_545 S
C214 C222 1.378 . S
C215 C214 1.343 1_565 S
C215 C223 1.458 . S
C216 H212 0.929 . S
C216 C218 1.378 . S
C216 C220 1.350 . S
C217 C220 1.463 . S
C217 C222 1.350 1_565 S
C217 N225 1.427 . S
C218 H209 0.930 . S
C218 C216 1.378 . S
C218 C219 1.367 . S
C219 C218 1.367 . S
C219 C221 1.433 1_565 S
C220 C216 1.350 . S
C220 C217 1.463 . S
C220 N224 1.427 1_565 S
C221 H211 0.929 . S
C221 C219 1.433 1_545 S
C221 N224 1.384 . S
C222 H213 0.929 . S
C222 C214 1.378 . S
C222 C217 1.350 1_545 S
C223 H210 0.929 . S
C223 C215 1.458 . S
C223 N225 1.384 . S
N224 C220 1.427 1_545 S
N224 C221 1.384 . S
N225 C217 1.427 . S
N225 C223 1.384 . S
H226 C232 0.930 . S
H227 C236 0.930 . S
H228 C241 0.929 . S
H229 C239 0.929 . S
H230 C234 0.929 . S
H231 C240 0.929 . S
C232 H226 0.930 . S
C232 C233 1.367 . S
C232 C240 1.378 . S
C233 C232 1.367 . S
C233 C241 1.433 . S
C234 H230 0.929 . S
C234 C236 1.378 . S
C234 C238 1.350 . S
C235 C238 1.463 . S
C235 C240 1.350 . S
C235 N243 1.427 . S
C236 H227 0.930 . S
C236 C234 1.378 . S
C236 C237 1.367 . S
C237 C236 1.367 . S
C237 C239 1.433 . S
C238 C234 1.350 . S
C238 C235 1.463 . S
C238 N242 1.427 . S
C239 H229 0.929 . S
C239 C237 1.433 . S
C239 N242 1.384 . S
C240 H231 0.929 . S
C240 C232 1.378 . S
C240 C235 1.350 . S
C241 H228 0.929 . S
C241 C233 1.433 . S
C241 N243 1.384 . S
N242 C238 1.427 . S
N242 C239 1.384 . S
N243 C235 1.427 . S
N243 C241 1.384 . S
H244 C250 0.930 . S
H245 C254 0.930 . S
H246 C259 0.929 . S
H247 C257 0.929 . S
H248 C252 0.929 . S
H249 C258 0.929 . S
C250 H244 0.930 . S
C250 C251 1.367 . S
C250 C258 1.378 . S
C251 C250 1.367 . S
C251 C259 1.433 . S
C252 H248 0.929 . S
C252 C254 1.378 . S
C252 C256 1.350 . S
C253 C256 1.463 . S
C253 C258 1.350 . S
C253 N261 1.427 . S
C254 H245 0.930 . S
C254 C252 1.378 . S
C254 C255 1.367 . S
C255 C254 1.367 . S
C255 C257 1.433 . S
C256 C252 1.350 . S
C256 C253 1.463 . S
C256 N260 1.427 . S
C257 H247 0.929 . S
C257 C255 1.433 . S
C257 N260 1.384 . S
C258 H249 0.929 . S
C258 C250 1.378 . S
C258 C253 1.350 . S
C259 H246 0.929 . S
C259 C251 1.433 . S
C259 N261 1.384 . S
N260 C256 1.427 . S
N260 C257 1.384 . S
N261 C253 1.427 . S
N261 C259 1.384 . S
H262 C268 0.930 . S
H263 C272 0.930 . S
H264 C277 0.929 . S
H265 C275 0.929 . S
H266 C270 0.929 . S
H267 C276 0.929 . S
C268 H262 0.930 . S
C268 C269 1.367 . S
C268 C276 1.378 . S
C269 C268 1.367 . S
C269 C277 1.433 . S
C270 H266 0.929 . S
C270 C272 1.378 . S
C270 C274 1.350 . S
C271 C274 1.463 . S
C271 C276 1.350 . S
C271 N279 1.427 . S
C272 H263 0.930 . S
C272 C270 1.378 . S
C272 C273 1.367 . S
C273 C272 1.367 . S
C273 C275 1.433 . S
C274 C270 1.350 . S
C274 C271 1.463 . S
C274 N278 1.427 . S
C275 H265 0.929 . S
C275 C273 1.433 . S
C275 N278 1.384 . S
C276 H267 0.929 . S
C276 C268 1.378 . S
C276 C271 1.350 . S
C277 H264 0.929 . S
C277 C269 1.433 . S
C277 N279 1.384 . S
N278 C274 1.427 . S
N278 C275 1.384 . S
N279 C271 1.427 . S
N279 C277 1.384 . S
H280 C286 0.930 . S
H281 C290 0.930 . S
H282 C295 0.929 . S
H283 C293 0.929 . S
H284 C288 0.929 . S
H285 C294 0.929 . S
C286 H280 0.930 . S
C286 C287 1.367 1_556 S
C286 C294 1.378 . S
C287 C286 1.367 1_554 S
C287 C295 1.433 1_545 S
C288 H284 0.929 . S
C288 C290 1.378 . S
C288 C292 1.350 1_565 S
C289 C292 1.463 . S
C289 C294 1.350 . S
C289 N297 1.427 1_546 S
C290 H281 0.930 . S
C290 C288 1.378 . S
C290 C291 1.367 1_565 S
C291 C290 1.367 1_545 S
C291 C293 1.433 . S
C292 C288 1.350 1_545 S
C292 C289 1.463 . S
C292 N296 1.427 . S
C293 H283 0.929 . S
C293 C291 1.433 . S
C293 N296 1.384 . S
C294 H285 0.929 . S
C294 C286 1.378 . S
C294 C289 1.350 . S
C295 H282 0.929 . S
C295 C287 1.433 1_565 S
C295 N297 1.384 . S
N296 C292 1.427 . S
N296 C293 1.384 . S
N297 C289 1.427 1_564 S
N297 C295 1.384 . S
H298 C304 0.930 . S
H299 C308 0.930 . S
H300 C313 0.929 . S
H301 C311 0.929 . S
H302 C306 0.929 1_554 S
H303 C312 0.929 . S
C304 H298 0.930 . S
C304 C305 1.367 1_556 S
C304 C312 1.378 . S
C305 C304 1.367 1_554 S
C305 C313 1.433 . S
C306 H302 0.929 1_556 S
C306 C308 1.378 . S
C306 C310 1.350 . S
C307 C310 1.463 . S
C307 C312 1.350 . S
C307 N315 1.427 1_556 S
C308 H299 0.930 . S
C308 C306 1.378 . S
C308 C309 1.367 . S
C309 C308 1.367 . S
C309 C311 1.433 . S
C310 C306 1.350 . S
C310 C307 1.463 . S
C310 N314 1.427 . S
C311 H301 0.929 . S
C311 C309 1.433 . S
C311 N314 1.384 . S
C312 H303 0.929 . S
C312 C304 1.378 . S
C312 C307 1.350 . S
C313 H300 0.929 . S
C313 C305 1.433 . S
C313 N315 1.384 . S
N314 C310 1.427 . S
N314 C311 1.384 . S
N315 C307 1.427 1_554 S
N315 C313 1.384 . S
H316 C322 0.930 . S
H317 C326 0.930 . S
H318 C331 0.929 . S
H319 C329 0.929 . S
H320 C324 0.929 . S
H321 C330 0.929 . S
C322 H316 0.930 . S
C322 C323 1.367 . S
C322 C330 1.378 . S
C323 C322 1.367 . S
C323 C331 1.433 . S
C324 H320 0.929 . S
C324 C326 1.378 . S
C324 C328 1.350 . S
C325 C328 1.463 1_554 S
C325 C330 1.350 . S
C325 N333 1.427 . S
C326 H317 0.930 . S
C326 C324 1.378 . S
C326 C327 1.367 . S
C327 C326 1.367 . S
C327 C329 1.433 . S
C328 C324 1.350 . S
C328 C325 1.463 1_556 S
C328 N332 1.427 . S
C329 H319 0.929 . S
C329 C327 1.433 . S
C329 N332 1.384 . S
C330 H321 0.929 . S
C330 C322 1.378 . S
C330 C325 1.350 . S
C331 H318 0.929 . S
C331 C323 1.433 . S
C331 N333 1.384 . S
N332 C328 1.427 . S
N332 C329 1.384 . S
N333 C325 1.427 . S
N333 C331 1.384 . S
H334 C340 0.930 . S
H335 C344 0.930 1_455 S
H336 C349 0.929 . S
H337 C347 0.929 . S
H338 C342 0.929 . S
H339 C348 0.929 . S
C340 H334 0.930 . S
C340 C341 1.367 . S
C340 C348 1.378 . S
C341 C340 1.367 . S
C341 C349 1.433 . S
C342 H338 0.929 . S
C342 C344 1.378 . S
C342 C346 1.350 . S
C343 C346 1.463 . S
C343 C348 1.350 . S
C343 N351 1.427 . S
C344 H335 0.930 1_655 S
C344 C342 1.378 . S
C344 C345 1.367 . S
C345 C344 1.367 . S
C345 C347 1.433 . S
C346 C342 1.350 . S
C346 C343 1.463 . S
C346 N350 1.427 . S
C347 H337 0.929 . S
C347 C345 1.433 . S
C347 N350 1.384 . S
C348 H339 0.929 . S
C348 C340 1.378 . S
C348 C343 1.350 . S
C349 H336 0.929 . S
C349 C341 1.433 . S
C349 N351 1.384 . S
N350 C346 1.427 . S
N350 C347 1.384 . S
N351 C343 1.427 . S
N351 C349 1.384 . S
H352 C358 0.930 . S
H353 C362 0.930 . S
H354 C367 0.929 . S
H355 C365 0.929 . S
H356 C360 0.929 . S
H357 C366 0.929 . S
C358 H352 0.930 . S
C358 C359 1.367 . S
C358 C366 1.378 . S
C359 C358 1.367 . S
C359 C367 1.433 . S
C360 H356 0.929 . S
C360 C362 1.378 . S
C360 C364 1.350 . S
C361 C364 1.463 . S
C361 C366 1.350 . S
C361 N369 1.427 . S
C362 H353 0.930 . S
C362 C360 1.378 . S
C362 C363 1.367 . S
C363 C362 1.367 . S
C363 C365 1.433 . S
C364 C360 1.350 . S
C364 C361 1.463 . S
C364 N368 1.427 . S
C365 H355 0.929 . S
C365 C363 1.433 . S
C365 N368 1.384 . S
C366 H357 0.929 . S
C366 C358 1.378 . S
C366 C361 1.350 . S
C367 H354 0.929 . S
C367 C359 1.433 . S
C367 N369 1.384 . S
N368 C364 1.427 . S
N368 C365 1.384 . S
N369 C361 1.427 . S
N369 C367 1.384 . S
H370 C376 0.930 . S
H371 C380 0.930 . S
H372 C385 0.929 . S
H373 C383 0.929 . S
H374 C378 0.929 . S
H375 C384 0.929 . S
C376 H370 0.930 . S
C376 C377 1.379 . S
C376 C384 1.378 . S
C377 C376 1.379 . S
C377 C385 1.422 1_565 S
C378 H374 0.929 . S
C378 C380 1.378 . S
C378 C382 1.350 1_545 S
C379 C382 1.463 . S
C379 C384 1.350 . S
C379 N387 1.427 1_565 S
C380 H371 0.930 . S
C380 C378 1.378 . S
C380 C381 1.367 1_545 S
C381 C380 1.367 1_565 S
C381 C383 1.433 . S
C382 C378 1.350 1_565 S
C382 C379 1.463 . S
C382 N386 1.427 . S
C383 H373 0.929 . S
C383 C381 1.433 . S
C383 N386 1.384 . S
C384 H375 0.929 . S
C384 C376 1.378 . S
C384 C379 1.350 . S
C385 H372 0.929 . S
C385 C377 1.422 1_545 S
C385 N387 1.384 . S
N386 C382 1.427 . S
N386 C383 1.384 . S
N387 C379 1.427 1_545 S
N387 C385 1.384 . S
H388 C394 0.930 . S
H389 C398 0.930 . S
H390 C403 0.929 . S
H391 C401 0.929 . S
H392 C396 0.929 . S
H393 C402 0.929 . S
C394 H388 0.930 . S
C394 C395 1.367 . S
C394 C402 1.378 . S
C395 C394 1.367 . S
C395 C403 1.433 . S
C396 H392 0.929 . S
C396 C398 1.378 . S
C396 C400 1.350 . S
C397 C400 1.463 . S
C397 C402 1.350 . S
C397 N405 1.427 . S
C398 H389 0.930 . S
C398 C396 1.378 . S
C398 C399 1.367 . S
C399 C398 1.367 . S
C399 C401 1.433 . S
C400 C396 1.350 . S
C400 C397 1.463 . S
C400 N404 1.427 . S
C401 H391 0.929 . S
C401 C399 1.433 . S
C401 N404 1.384 . S
C402 H393 0.929 . S
C402 C394 1.378 . S
C402 C397 1.350 . S
C403 H390 0.929 . S
C403 C395 1.433 . S
C403 N405 1.384 . S
N404 C400 1.427 . S
N404 C401 1.384 . S
N405 C397 1.427 . S
N405 C403 1.384 . S
H406 C412 0.930 . S
H407 C416 0.930 . S
H408 C421 0.929 . S
H409 C419 0.929 . S
H410 C414 0.929 . S
H411 C420 0.929 . S
C412 H406 0.930 . S
C412 C413 1.367 . S
C412 C420 1.378 . S
C413 C412 1.367 . S
C413 C421 1.433 . S
C414 H410 0.929 . S
C414 C416 1.378 . S
C414 C418 1.350 . S
C415 C418 1.463 . S
C415 C420 1.350 . S
C415 N423 1.427 . S
C416 H407 0.930 . S
C416 C414 1.378 . S
C416 C417 1.367 . S
C417 C416 1.367 . S
C417 C419 1.433 . S
C418 C414 1.350 . S
C418 C415 1.463 . S
C418 N422 1.427 . S
C419 H409 0.929 . S
C419 C417 1.433 . S
C419 N422 1.384 . S
C420 H411 0.929 . S
C420 C412 1.378 . S
C420 C415 1.350 . S
C421 H408 0.929 . S
C421 C413 1.433 . S
C421 N423 1.384 . S
N422 C418 1.427 . S
N422 C419 1.384 . S
N423 C415 1.427 . S
N423 C421 1.384 . S
H424 C430 0.930 . S
H425 C434 0.930 1_455 S
H426 C439 0.929 1_554 S
H427 C437 0.929 1_455 S
H428 C432 0.929 . S
H429 C438 0.929 . S
C430 H424 0.930 . S
C430 C431 1.367 . S
C430 C438 1.378 . S
C431 C430 1.367 . S
C431 C439 1.433 . S
C432 H428 0.929 . S
C432 C434 1.378 . S
C432 C436 1.350 . S
C433 C436 1.463 . S
C433 C438 1.350 . S
C433 N441 1.427 . S
C434 H425 0.930 1_655 S
C434 C432 1.378 . S
C434 C435 1.367 1_655 S
C435 C434 1.367 1_455 S
C435 C437 1.433 1_455 S
C436 C432 1.350 . S
C436 C433 1.463 . S
C436 N440 1.427 . S
C437 H427 0.929 1_655 S
C437 C435 1.433 1_655 S
C437 N440 1.384 . S
C438 H429 0.929 . S
C438 C430 1.378 . S
C438 C433 1.350 . S
C439 H426 0.929 1_556 S
C439 C431 1.433 . S
C439 N441 1.384 . S
N440 C436 1.427 . S
N440 C437 1.384 . S
N441 C433 1.427 . S
N441 C439 1.384 . S
H442 C448 0.930 . S
H443 C452 0.930 . S
H444 C457 0.929 . S
H445 C455 0.929 . S
H446 C450 0.929 . S
H447 C456 0.929 . S
C448 H442 0.930 . S
C448 C449 1.381 . S
C448 C456 1.378 1_554 S
C449 C448 1.381 . S
C449 C457 1.417 1_564 S
C450 H446 0.929 . S
C450 C452 1.378 . S
C450 C454 1.350 . S
C451 C454 1.463 . S
C451 C456 1.350 1_545 S
C451 N459 1.427 . S
C452 H443 0.930 . S
C452 C450 1.378 . S
C452 C453 1.367 . S
C453 C452 1.367 . S
C453 C455 1.433 1_545 S
C454 C450 1.350 . S
C454 C451 1.463 . S
C454 N458 1.427 1_545 S
C455 H445 0.929 . S
C455 C453 1.433 1_565 S
C455 N458 1.384 . S
C456 H447 0.929 . S
C456 C448 1.378 1_556 S
C456 C451 1.350 1_565 S
C457 H444 0.929 . S
C457 C449 1.417 1_546 S
C457 N459 1.384 . S
N458 C454 1.427 1_565 S
N458 C455 1.384 . S
N459 C451 1.427 . S
N459 C457 1.384 . S
H460 C466 0.930 . S
H461 C470 0.930 . S
H462 C475 0.929 . S
H463 C473 0.929 . S
H464 C468 0.929 . S
H465 C474 0.929 . S
C466 H460 0.930 . S
C466 C467 1.367 1_556 S
C466 C474 1.378 . S
C467 C466 1.367 1_554 S
C467 C475 1.433 . S
C468 H464 0.929 . S
C468 C470 1.378 . S
C468 C472 1.350 . S
C469 C472 1.463 . S
C469 C474 1.350 . S
C469 N477 1.427 1_556 S
C470 H461 0.930 . S
C470 C468 1.378 . S
C470 C471 1.367 . S
C471 C470 1.367 . S
C471 C473 1.433 . S
C472 C468 1.350 . S
C472 C469 1.463 . S
C472 N476 1.427 . S
C473 H463 0.929 . S
C473 C471 1.433 . S
C473 N476 1.384 . S
C474 H465 0.929 . S
C474 C466 1.378 . S
C474 C469 1.350 . S
C475 H462 0.929 . S
C475 C467 1.433 . S
C475 N477 1.384 . S
N476 C472 1.427 . S
N476 C473 1.384 . S
N477 C469 1.427 1_554 S
N477 C475 1.384 . S
H478 C484 0.930 . S
H479 C488 0.930 . S
H480 C493 0.929 . S
H481 C491 0.929 . S
H482 C486 0.929 . S
H483 C492 0.929 . S
C484 H478 0.930 . S
C484 C485 1.367 . S
C484 C492 1.378 . S
C485 C484 1.367 . S
C485 C493 1.433 . S
C486 H482 0.929 . S
C486 C488 1.378 . S
C486 C490 1.350 . S
C487 C490 1.463 . S
C487 C492 1.350 1_556 S
C487 N495 1.427 . S
C488 H479 0.930 . S
C488 C486 1.378 . S
C488 C489 1.367 . S
C489 C488 1.367 . S
C489 C491 1.433 . S
C490 C486 1.350 . S
C490 C487 1.463 . S
C490 N494 1.427 . S
C491 H481 0.929 . S
C491 C489 1.433 . S
C491 N494 1.384 . S
C492 H483 0.929 . S
C492 C484 1.378 . S
C492 C487 1.350 1_554 S
C493 H480 0.929 . S
C493 C485 1.433 . S
C493 N495 1.384 1_554 S
N494 C490 1.427 . S
N494 C491 1.384 . S
N495 C487 1.427 . S
N495 C493 1.384 1_556 S
H496 C502 0.930 . S
H497 C506 0.930 . S
H498 C511 0.929 . S
H499 C509 0.929 . S
H500 C504 0.929 . S
H501 C510 0.929 . S
C502 H496 0.930 . S
C502 C503 1.367 . S
C502 C510 1.378 . S
C503 C502 1.367 . S
C503 C511 1.433 . S
C504 H500 0.929 . S
C504 C506 1.378 . S
C504 C508 1.350 . S
C505 C508 1.463 . S
C505 C510 1.350 . S
C505 N513 1.427 . S
C506 H497 0.930 . S
C506 C504 1.378 . S
C506 C507 1.367 . S
C507 C506 1.367 . S
C507 C509 1.433 . S
C508 C504 1.350 . S
C508 C505 1.463 . S
C508 N512 1.427 . S
C509 H499 0.929 . S
C509 C507 1.433 . S
C509 N512 1.384 . S
C510 H501 0.929 . S
C510 C502 1.378 . S
C510 C505 1.350 . S
C511 H498 0.929 . S
C511 C503 1.433 . S
C511 N513 1.384 . S
N512 C508 1.427 . S
N512 C509 1.384 . S
N513 C505 1.427 . S
N513 C511 1.384 . S
H514 C520 0.930 . S
H515 C524 0.930 . S
H516 C529 0.929 . S
H517 C527 0.929 1_554 S
H518 C522 0.929 . S
H519 C528 0.929 . S
C520 H514 0.930 . S
C520 C521 1.364 1_565 S
C520 C528 1.378 . S
C521 C520 1.364 1_545 S
C521 C529 1.436 . S
C522 H518 0.929 . S
C522 C524 1.378 . S
C522 C526 1.350 1_556 S
C523 C526 1.463 . S
C523 C528 1.350 1_545 S
C523 N531 1.427 . S
C524 H515 0.930 . S
C524 C522 1.378 . S
C524 C525 1.367 . S
C525 C524 1.367 . S
C525 C527 1.433 1_545 S
C526 C522 1.350 1_554 S
C526 C523 1.463 . S
C526 N530 1.427 1_545 S
C527 H517 0.929 1_556 S
C527 C525 1.433 1_565 S
C527 N530 1.384 1_556 S
C528 H519 0.929 . S
C528 C520 1.378 . S
C528 C523 1.350 1_565 S
C529 H516 0.929 . S
C529 C521 1.436 . S
C529 N531 1.384 . S
N530 C526 1.427 1_565 S
N530 C527 1.384 1_554 S
N531 C523 1.427 . S
N531 C529 1.384 . S
H532 C538 0.930 . S
H533 C542 0.930 . S
H534 C547 0.929 . S
H535 C545 0.929 . S
H536 C540 0.929 . S
H537 C546 0.929 . S
C538 H532 0.930 . S
C538 C539 1.367 . S
C538 C546 1.378 . S
C539 C538 1.367 . S
C539 C547 1.433 . S
C540 H536 0.929 . S
C540 C542 1.378 . S
C540 C544 1.350 1_556 S
C541 C544 1.463 . S
C541 C546 1.350 . S
C541 N549 1.427 . S
C542 H533 0.930 . S
C542 C540 1.378 . S
C542 C543 1.367 . S
C543 C542 1.367 . S
C543 C545 1.433 . S
C544 C540 1.350 1_554 S
C544 C541 1.463 . S
C544 N548 1.427 . S
C545 H535 0.929 . S
C545 C543 1.433 . S
C545 N548 1.384 1_556 S
C546 H537 0.929 . S
C546 C538 1.378 . S
C546 C541 1.350 . S
C547 H534 0.929 . S
C547 C539 1.433 . S
C547 N549 1.384 . S
N548 C544 1.427 . S
N548 C545 1.384 1_554 S
N549 C541 1.427 . S
N549 C547 1.384 . S
H550 C556 0.930 . S
H551 C560 0.930 . S
H552 C565 0.929 . S
H553 C563 0.929 . S
H554 C558 0.929 . S
H555 C564 0.929 . S
C556 H550 0.930 . S
C556 C557 1.367 . S
C556 C564 1.378 . S
C557 C556 1.367 . S
C557 C565 1.433 . S
C558 H554 0.929 . S
C558 C560 1.378 . S
C558 C562 1.350 . S
C559 C562 1.463 1_554 S
C559 C564 1.350 . S
C559 N567 1.427 . S
C560 H551 0.930 . S
C560 C558 1.378 . S
C560 C561 1.367 . S
C561 C560 1.367 . S
C561 C563 1.433 . S
C562 C558 1.350 . S
C562 C559 1.463 1_556 S
C562 N566 1.427 . S
C563 H553 0.929 . S
C563 C561 1.433 . S
C563 N566 1.384 . S
C564 H555 0.929 . S
C564 C556 1.378 . S
C564 C559 1.350 . S
C565 H552 0.929 . S
C565 C557 1.433 . S
C565 N567 1.384 . S
N566 C562 1.427 . S
N566 C563 1.384 . S
N567 C559 1.427 . S
N567 C565 1.384 . S
H568 C574 0.930 . S
H569 C578 0.930 . S
H570 C583 0.929 . S
H571 C581 0.932 . S
H572 C576 0.929 . S
H573 C582 0.929 . S
C574 H568 0.930 . S
C574 C575 1.367 . S
C574 C582 1.378 . S
C575 C574 1.367 . S
C575 C583 1.433 . S
C576 H572 0.929 . S
C576 C578 1.378 . S
C576 C580 1.350 . S
C577 C580 1.463 . S
C577 C582 1.350 . S
C577 N585 1.427 . S
C578 H569 0.930 . S
C578 C576 1.378 . S
C578 C579 1.367 . S
C579 C578 1.367 . S
C579 C581 1.433 . S
C580 C576 1.350 . S
C580 C577 1.463 . S
C580 N584 1.427 . S
C581 H571 0.932 . S
C581 C579 1.433 . S
C581 N584 1.384 . S
C582 H573 0.929 . S
C582 C574 1.378 . S
C582 C577 1.350 . S
C583 H570 0.929 . S
C583 C575 1.433 . S
C583 N585 1.384 . S
N584 C580 1.427 . S
N584 C581 1.384 . S
N585 C577 1.427 . S
N585 C583 1.384 . S
H586 C592 0.930 . S
H587 C596 0.930 . S
H588 C601 0.929 . S
H589 C599 0.929 . S
H590 C594 0.929 . S
H591 C600 0.929 . S
C592 H586 0.930 . S
C592 C593 1.396 . S
C592 C600 1.378 . S
C593 C592 1.396 . S
C593 C601 1.401 1_565 S
C594 H590 0.929 . S
C594 C596 1.378 . S
C594 C598 1.350 1_545 S
C595 C598 1.463 . S
C595 C600 1.350 . S
C595 N603 1.427 1_565 S
C596 H587 0.930 . S
C596 C594 1.378 . S
C596 C597 1.367 1_545 S
C597 C596 1.367 1_565 S
C597 C599 1.433 . S
C598 C594 1.350 1_565 S
C598 C595 1.463 . S
C598 N602 1.427 . S
C599 H589 0.929 . S
C599 C597 1.433 . S
C599 N602 1.384 . S
C600 H591 0.929 . S
C600 C592 1.378 . S
C600 C595 1.350 . S
C601 H588 0.929 . S
C601 C593 1.401 1_545 S
C601 N603 1.384 . S
N602 C598 1.427 . S
N602 C599 1.384 . S
N603 C595 1.427 1_545 S
N603 C601 1.384 . S
H604 C610 0.930 . S
H605 C614 0.930 . S
H606 C619 0.929 . S
H607 C617 0.929 . S
H608 C612 0.929 . S
H609 C618 0.929 . S
C610 H604 0.930 . S
C610 C611 1.367 . S
C610 C618 1.378 . S
C611 C610 1.367 . S
C611 C619 1.433 . S
C612 H608 0.929 . S
C612 C614 1.378 . S
C612 C616 1.350 . S
C613 C616 1.463 . S
C613 C618 1.350 . S
C613 N621 1.427 . S
C614 H605 0.930 . S
C614 C612 1.378 . S
C614 C615 1.367 . S
C615 C614 1.367 . S
C615 C617 1.433 . S
C616 C612 1.350 . S
C616 C613 1.463 . S
C616 N620 1.427 . S
C617 H607 0.929 . S
C617 C615 1.433 . S
C617 N620 1.384 . S
C618 H609 0.929 . S
C618 C610 1.378 . S
C618 C613 1.350 . S
C619 H606 0.929 . S
C619 C611 1.433 . S
C619 N621 1.384 . S
N620 C616 1.427 . S
N620 C617 1.384 . S
N621 C613 1.427 . S
N621 C619 1.384 . S
H622 C628 0.930 . S
H623 C632 0.930 . S
H624 C637 0.929 . S
H625 C635 0.929 . S
H626 C630 0.929 . S
H627 C636 0.929 . S
C628 H622 0.930 . S
C628 C629 1.367 . S
C628 C636 1.378 . S
C629 C628 1.367 . S
C629 C637 1.433 . S
C630 H626 0.929 . S
C630 C632 1.378 . S
C630 C634 1.350 . S
C631 C634 1.463 . S
C631 C636 1.350 . S
C631 N639 1.427 . S
C632 H623 0.930 . S
C632 C630 1.378 . S
C632 C633 1.367 . S
C633 C632 1.367 . S
C633 C635 1.433 . S
C634 C630 1.350 . S
C634 C631 1.463 . S
C634 N638 1.427 . S
C635 H625 0.929 . S
C635 C633 1.433 . S
C635 N638 1.384 . S
C636 H627 0.929 . S
C636 C628 1.378 . S
C636 C631 1.350 . S
C637 H624 0.929 . S
C637 C629 1.433 . S
C637 N639 1.384 . S
N638 C634 1.427 . S
N638 C635 1.384 . S
N639 C631 1.427 . S
N639 C637 1.384 . S
C215 C61 1.795 . S
C219 C89 1.813 . S
C237 C110 1.554 . S
C233 C70 1.534 . S
C255 C144 1.367 . S
C251 C43 1.346 . S
C273 C178 1.560 . S
C269 C52 1.536 . S
C291 C80 1.809 . S
C287 C25 1.792 1_545 S
C305 C34 1.526 . S
C309 C119 1.553 . S
C323 C7 1.342 . S
C327 C153 1.367 . S
C341 C16 1.544 . S
C345 C187 1.556 . S
C363 C101 0.436 . S
C359 C50 0.591 . S
C381 C106 0.680 . S
C377 C59 0.684 . S
C399 C140 0.686 . S
C395 C67 0.682 . S
C413 C41 0.334 . S
C417 C174 0.318 . S
C431 C14 0.569 . S
C435 C72 0.436 . S
C453 C135 0.693 . S
C449 C23 0.685 . S
C471 C169 0.699 . S
C467 C31 0.707 . S
C485 C5 0.342 . S
C489 C203 0.321 . S
C503 C49 1.337 . S
C507 C85 1.384 . S
C521 C58 1.742 1_545 S
C525 C114 1.803 . S
C543 C148 1.540 . S
C539 C68 1.491 . S
C561 C182 1.556 . S
C557 C40 1.502 . S
C575 C13 1.339 . S
C579 C76 1.392 . S
C597 C123 1.803 . S
C593 C22 1.751 . S
C615 C157 1.539 . S
C611 C32 1.488 . S
C629 C4 1.498 . S
C633 C191 1.553 . S
