# Generated by pormake.
# Topology cml, (3,6)-cn, num edge types: 1
# Building blocks:
#     Node 0, Type 0, BuildingBlock: VETTIZ_charged_linker_0, # of connection points: 3
#     Node 1, Type 0, BuildingBlock: VETTIZ_charged_linker_0, # of connection points: 3
#     Node 2, Type 0, BuildingBlock: VETTIZ_charged_linker_0, # of connection points: 3
#     Node 3, Type 0, BuildingBlock: VETTIZ_charged_linker_0, # of connection points: 3
#     Node 4, Type 0, BuildingBlock: VETTIZ_charged_linker_0, # of connection points: 3
#     Node 5, Type 0, BuildingBlock: VETTIZ_charged_linker_0, # of connection points: 3
#     Node 6, Type 0, BuildingBlock: VETTIZ_charged_linker_0, # of connection points: 3
#     Node 7, Type 0, BuildingBlock: VETTIZ_charged_linker_0, # of connection points: 3
#     Node 8, Type 1, BuildingBlock: IZENUY_clean_sbu_0, # of connection points: 6
#     Node 9, Type 1, BuildingBlock: IZENUY_clean_sbu_0, # of connection points: 6
#     Node 10, Type 1, BuildingBlock: IZENUY_clean_sbu_0, # of connection points: 6
#     Node 11, Type 1, BuildingBlock: IZENUY_clean_sbu_0, # of connection points: 6
#     Edge 12, Type (0, 1), BuildingBlock: CIFDUS_clean_linker_0, # of connection points: 2
#     Edge 13, Type (0, 1), BuildingBlock: CIFDUS_clean_linker_0, # of connection points: 2
#     Edge 14, Type (0, 1), BuildingBlock: CIFDUS_clean_linker_0, # of connection points: 2
#     Edge 15, Type (0, 1), BuildingBlock: CIFDUS_clean_linker_0, # of connection points: 2
#     Edge 16, Type (0, 1), BuildingBlock: CIFDUS_clean_linker_0, # of connection points: 2
#     Edge 17, Type (0, 1), BuildingBlock: CIFDUS_clean_linker_0, # of connection points: 2
#     Edge 18, Type (0, 1), BuildingBlock: CIFDUS_clean_linker_0, # of connection points: 2
#     Edge 19, Type (0, 1), BuildingBlock: CIFDUS_clean_linker_0, # of connection points: 2
#     Edge 20, Type (0, 1), BuildingBlock: CIFDUS_clean_linker_0, # of connection points: 2
#     Edge 21, Type (0, 1), BuildingBlock: CIFDUS_clean_linker_0, # of connection points: 2
#     Edge 22, Type (0, 1), BuildingBlock: CIFDUS_clean_linker_0, # of connection points: 2
#     Edge 23, Type (0, 1), BuildingBlock: CIFDUS_clean_linker_0, # of connection points: 2
#     Edge 24, Type (0, 1), BuildingBlock: CIFDUS_clean_linker_0, # of connection points: 2
#     Edge 25, Type (0, 1), BuildingBlock: CIFDUS_clean_linker_0, # of connection points: 2
#     Edge 26, Type (0, 1), BuildingBlock: CIFDUS_clean_linker_0, # of connection points: 2
#     Edge 27, Type (0, 1), BuildingBlock: CIFDUS_clean_linker_0, # of connection points: 2
#     Edge 28, Type (0, 1), BuildingBlock: CIFDUS_clean_linker_0, # of connection points: 2
#     Edge 29, Type (0, 1), BuildingBlock: CIFDUS_clean_linker_0, # of connection points: 2
#     Edge 30, Type (0, 1), BuildingBlock: CIFDUS_clean_linker_0, # of connection points: 2
#     Edge 31, Type (0, 1), BuildingBlock: CIFDUS_clean_linker_0, # of connection points: 2
#     Edge 32, Type (0, 1), BuildingBlock: CIFDUS_clean_linker_0, # of connection points: 2
#     Edge 33, Type (0, 1), BuildingBlock: CIFDUS_clean_linker_0, # of connection points: 2
#     Edge 34, Type (0, 1), BuildingBlock: CIFDUS_clean_linker_0, # of connection points: 2
#     Edge 35, Type (0, 1), BuildingBlock: CIFDUS_clean_linker_0, # of connection points: 2
# Relax obj value: 0.059
# Max RMSD: 0.074
# Mean RMSD: 0.071
data_MOF--net-cml--node1-IZENUY_clean_sbu_0--node2-VETTIZ_charged_linker_0--edge1-CIFDUS_clean_linker_0
_symmetry_space_group_name_H-M    P1
_symmetry_Int_Tables_number       1
_symmetry_cell_setting            triclinic
loop_
_symmetry_equiv_pos_as_xyz
'x, y, z'
_cell_length_a     38.351215
_cell_length_b     44.907615
_cell_length_c     41.856547
_cell_angle_alpha  90.154413
_cell_angle_beta   89.955652
_cell_angle_gamma 90.007379
loop_
_atom_site_label
_atom_site_type_symbol
_atom_site_fract_x
_atom_site_fract_y
_atom_site_fract_z
_atom_type_partial_charge
C0 C 0.34599 0.34104 0.09739 0.0
C1 C 0.36849 0.35827 0.11644 0.0
C2 C 0.3776 0.38715 0.10644 0.0
C3 C 0.34217 0.38147 0.059 0.0
C4 C 0.33281 0.35325 0.06898 0.0
C5 C 0.307 0.33893 0.04657 0.0
H6 H 0.20675 0.34788 0.91347 0.0
C7 C 0.32403 0.38767 0.02861 0.0
C8 C 0.30311 0.36299 0.02126 0.0
H9 H 0.21245 0.27626 0.98221 0.0
H10 H 0.25625 0.30293 0.01176 0.0
H11 H 0.21085 0.40254 0.96439 0.0
H12 H 0.2906 0.35779 0.90963 0.0
H13 H 0.30075 0.39591 0.91032 0.0
H14 H 0.26086 0.3836 0.8916 0.0
H15 H 0.2137 0.40492 0.92163 0.0
H16 H 0.23847 0.42941 0.94705 0.0
C17 C 0.2726 0.33368 0.06522 0.0
C18 C 0.32381 0.3103 0.03278 0.0
C19 C 0.35001 0.48384 0.96998 0.0
C20 C 0.33965 0.49533 0.94028 0.0
C21 C 0.31508 0.47929 0.92196 0.0
C22 C 0.30145 0.45211 0.93292 0.0
C23 C 0.31271 0.44063 0.96242 0.0
C24 C 0.33651 0.45659 0.98039 0.0
C25 C 0.34658 0.44076 0.01055 0.0
C26 C 0.32524 0.41245 0.00766 0.0
C27 C 0.30522 0.41248 0.97956 0.0
C28 C 0.33479 0.46015 0.03933 0.0
C29 C 0.38631 0.43441 0.0092 0.0
C30 C 0.21764 0.33786 0.93475 0.0
C31 C 0.20564 0.31002 0.94568 0.0
C32 C 0.22054 0.29791 0.97359 0.0
C33 C 0.24617 0.31339 0.9907 0.0
C34 C 0.25727 0.34141 0.97993 0.0
C35 C 0.24333 0.35312 0.95222 0.0
C36 C 0.25878 0.38308 0.94431 0.0
C37 C 0.28342 0.38772 0.97233 0.0
C38 C 0.28246 0.36313 0.99305 0.0
C39 C 0.22904 0.40636 0.94408 0.0
C40 C 0.27865 0.38025 0.91221 0.0
H41 H 0.37279 0.42087 0.07161 0.0
H42 H 0.33824 0.31891 0.10481 0.0
H43 H 0.35195 0.31396 0.0276 0.0
H44 H 0.3123 0.30334 0.00978 0.0
H45 H 0.32185 0.29159 0.04998 0.0
H46 H 0.26856 0.35117 0.08374 0.0
H47 H 0.27285 0.3118 0.07754 0.0
H48 H 0.24921 0.33508 0.04992 0.0
H49 H 0.36931 0.49526 0.98439 0.0
H50 H 0.30656 0.48774 0.89905 0.0
H51 H 0.28295 0.44092 0.91787 0.0
H52 H 0.31121 0.47346 0.03336 0.0
H53 H 0.35556 0.476 0.04662 0.0
H54 H 0.32689 0.44672 0.06023 0.0
H55 H 0.39454 0.42849 0.98448 0.0
H56 H 0.39428 0.41523 0.0239 0.0
H57 H 0.40157 0.45426 0.01669 0.0
H58 H 0.39502 0.4007 0.12076 0.0
C59 C 0.3647 0.39879 0.07786 0.0
C60 C 0.815 0.66543 0.43932 0.0
C61 C 0.83004 0.69084 0.45345 0.0
C62 C 0.81905 0.69931 0.4844 0.0
C63 C 0.77891 0.65763 0.48632 0.0
C64 C 0.78986 0.64915 0.45616 0.0
C65 C 0.77188 0.62133 0.44471 0.0
H66 H 0.66064 0.508 0.47502 0.0
C67 C 0.75294 0.63565 0.49751 0.0
C68 C 0.74916 0.61404 0.47334 0.0
H69 H 0.71276 0.52777 0.38576 0.0
H70 H 0.74149 0.56972 0.41057 0.0
H71 H 0.72399 0.52585 0.52429 0.0
H72 H 0.63486 0.56935 0.48431 0.0
H73 H 0.64044 0.58662 0.52145 0.0
H74 H 0.63146 0.5472 0.5197 0.0
H75 H 0.67971 0.5176 0.53502 0.0
H76 H 0.70419 0.54625 0.55537 0.0
C77 C 0.79993 0.59715 0.43879 0.0
C78 C 0.74988 0.62923 0.41485 0.0
C79 C 0.68592 0.65168 0.60177 0.0
C80 C 0.65949 0.6348 0.61652 0.0
C81 C 0.65183 0.60616 0.60466 0.0
C82 C 0.66845 0.59511 0.57746 0.0
C83 C 0.69293 0.6129 0.56154 0.0
C84 C 0.70228 0.64026 0.57416 0.0
C85 C 0.72967 0.65537 0.55392 0.0
C86 C 0.73318 0.63342 0.52622 0.0
C87 C 0.71142 0.60873 0.53094 0.0
C88 C 0.76368 0.65763 0.57375 0.0
C89 C 0.71514 0.68576 0.5428 0.0
C90 C 0.67805 0.52129 0.46052 0.0
C91 C 0.684 0.51439 0.42813 0.0
C92 C 0.70773 0.53219 0.41078 0.0
C93 C 0.72414 0.55682 0.42516 0.0
C94 C 0.7165 0.56407 0.45714 0.0
C95 C 0.69372 0.54637 0.47414 0.0
C96 C 0.68586 0.5587 0.50675 0.0
C97 C 0.70806 0.58665 0.50678 0.0
C98 C 0.7264 0.58948 0.47793 0.0
C99 C 0.69881 0.53596 0.53187 0.0
C100 C 0.64618 0.56572 0.50847 0.0
H101 H 0.78638 0.69052 0.52422 0.0
H102 H 0.82238 0.65842 0.41548 0.0
H103 H 0.74076 0.65274 0.41576 0.0
H104 H 0.7257 0.61592 0.41309 0.0
H105 H 0.76528 0.6264 0.39256 0.0
H106 H 0.81938 0.59709 0.4585 0.0
H107 H 0.81414 0.60133 0.4161 0.0
H108 H 0.78912 0.5744 0.43807 0.0
H109 H 0.69248 0.67366 0.6106 0.0
H110 H 0.63205 0.59259 0.61604 0.0
H111 H 0.66077 0.57343 0.56935 0.0
H112 H 0.76547 0.63934 0.59157 0.0
H113 H 0.76503 0.67904 0.58703 0.0
H114 H 0.78735 0.65512 0.55887 0.0
H115 H 0.68791 0.68325 0.53406 0.0
H116 H 0.72998 0.69542 0.52278 0.0
H117 H 0.71493 0.70209 0.56278 0.0
H118 H 0.8305 0.71843 0.4962 0.0
C119 C 0.79361 0.68291 0.50083 0.0
C120 C 0.69594 0.48841 0.94856 0.0
C121 C 0.67241 0.50862 0.96276 0.0
C122 C 0.66021 0.50292 0.99392 0.0
C123 C 0.69222 0.45659 0.99525 0.0
C124 C 0.70555 0.46259 0.9653 0.0
C125 C 0.72955 0.43817 0.95384 0.0
H126 H 0.79367 0.29888 0.97306 0.0
C127 C 0.70457 0.42691 0.00509 0.0
C128 C 0.72666 0.41594 0.98118 0.0
H129 H 0.82129 0.36423 0.90131 0.0
H130 H 0.782 0.39932 0.92518 0.0
H131 H 0.79852 0.3467 0.03239 0.0
H132 H 0.70991 0.31496 0.97815 0.0
H133 H 0.70005 0.31449 0.01928 0.0
H134 H 0.73437 0.291 0.00414 0.0
H135 H 0.78369 0.30881 0.03479 0.0
H136 H 0.76406 0.33781 0.05854 0.0
C137 C 0.76689 0.45117 0.95076 0.0
C138 C 0.71463 0.42541 0.9223 0.0
C139 C 0.65355 0.38235 0.10518 0.0
C140 C 0.65456 0.35404 0.11915 0.0
C141 C 0.67693 0.33226 0.10602 0.0
C142 C 0.69677 0.33845 0.07839 0.0
C143 C 0.69419 0.36672 0.06393 0.0
C144 C 0.673 0.38805 0.07777 0.0
C145 C 0.67168 0.41639 0.05912 0.0
C146 C 0.69573 0.40892 0.03163 0.0
C147 C 0.70911 0.3799 0.03436 0.0
C148 C 0.68677 0.44165 0.08038 0.0
C149 C 0.63339 0.42124 0.04802 0.0
C150 C 0.79159 0.32077 0.9625 0.0
C151 C 0.81057 0.32829 0.9347 0.0
C152 C 0.80648 0.35718 0.92197 0.0
C153 C 0.78388 0.37784 0.93612 0.0
C154 C 0.76521 0.36992 0.96364 0.0
C155 C 0.76957 0.34198 0.97675 0.0
C156 C 0.74907 0.33834 0.00729 0.0
C157 C 0.73192 0.36874 0.01028 0.0
C158 C 0.74103 0.38691 0.98419 0.0
C159 C 0.77498 0.3324 0.03485 0.0
C160 C 0.72196 0.31328 1.00225 0.0
H161 H 0.65919 0.47408 0.03354 0.0
H162 H 0.70619 0.49236 0.92484 0.0
H163 H 0.68614 0.42126 0.92468 0.0
H164 H 0.7263 0.40388 0.91546 0.0
H165 H 0.71853 0.44128 0.9023 0.0
H166 H 0.77034 0.47148 0.96572 0.0
H167 H 0.77287 0.45742 0.92569 0.0
H168 H 0.78708 0.43552 0.95943 0.0
H169 H 0.63704 0.39973 0.11493 0.0
H170 H 0.67818 0.31026 0.11648 0.0
H171 H 0.71279 0.32089 0.06898 0.0
H172 H 0.70811 0.43318 0.0959 0.0
H173 H 0.6664 0.45124 0.09622 0.0
H174 H 0.69892 0.45973 0.06636 0.0
H175 H 0.6193 0.39971 0.04533 0.0
H176 H 0.63146 0.43158 0.02417 0.0
H177 H 0.61859 0.43496 0.06549 0.0
H178 H 0.64172 0.51775 0.00536 0.0
C179 C 0.6701 0.47723 0.01022 0.0
C180 C 0.20858 0.67373 0.44502 0.0
C181 C 0.19557 0.69868 0.46179 0.0
C182 C 0.21025 0.70597 0.49168 0.0
C183 C 0.24826 0.66306 0.48878 0.0
C184 C 0.23488 0.65624 0.45899 0.0
C185 C 0.25163 0.62868 0.44502 0.0
H186 H 0.36441 0.51313 0.46513 0.0
C187 C 0.27385 0.63995 0.49745 0.0
C188 C 0.27601 0.61955 0.47197 0.0
H189 H 0.30558 0.53411 0.38015 0.0
H190 H 0.2797 0.57669 0.40711 0.0
H191 H 0.38803 0.57852 0.47902 0.0
H192 H 0.30402 0.52508 0.51503 0.0
H193 H 0.31771 0.54699 0.54741 0.0
H194 H 0.34784 0.52104 0.52926 0.0
H195 H 0.39438 0.54822 0.50627 0.0
H196 H 0.38575 0.58549 0.52023 0.0
C197 C 0.27192 0.63783 0.41462 0.0
C198 C 0.22289 0.60518 0.43903 0.0
C199 C 0.33327 0.64403 0.6062 0.0
C200 C 0.35567 0.62414 0.62193 0.0
C201 C 0.36584 0.59766 0.60646 0.0
C202 C 0.3541 0.59106 0.57565 0.0
C203 C 0.33172 0.61106 0.56008 0.0
C204 C 0.32132 0.63685 0.57545 0.0
C205 C 0.29597 0.65455 0.5557 0.0
C206 C 0.29356 0.63539 0.52574 0.0
C207 C 0.31482 0.61019 0.52843 0.0
C208 C 0.31263 0.68528 0.54867 0.0
C209 C 0.26084 0.65597 0.57407 0.0
C210 C 0.34545 0.52649 0.45243 0.0
C211 C 0.33674 0.52002 0.42061 0.0
C212 C 0.31272 0.53864 0.40471 0.0
C213 C 0.2978 0.56335 0.42038 0.0
C214 C 0.30732 0.56972 0.45216 0.0
C215 C 0.33079 0.55129 0.4675 0.0
C216 C 0.3393 0.56172 0.50062 0.0
C217 C 0.31737 0.58967 0.50275 0.0
C218 C 0.29836 0.59431 0.47449 0.0
C219 C 0.37891 0.56873 0.50195 0.0
C220 C 0.32691 0.53752 0.52449 0.0
H221 H 0.24609 0.6951 0.52811 0.0
H222 H 0.198 0.66755 0.42197 0.0
H223 H 0.20484 0.60403 0.45981 0.0
H224 H 0.23336 0.58248 0.43598 0.0
H225 H 0.20726 0.6109 0.41758 0.0
H226 H 0.28387 0.66025 0.4176 0.0
H227 H 0.25439 0.63873 0.39353 0.0
H228 H 0.294 0.62285 0.40931 0.0
H229 H 0.32477 0.66437 0.61778 0.0
H230 H 0.38331 0.58216 0.61813 0.0
H231 H 0.36303 0.57063 0.56517 0.0
H232 H 0.34109 0.68298 0.54412 0.0
H233 H 0.30927 0.70073 0.56922 0.0
H234 H 0.30212 0.69588 0.52693 0.0
H235 H 0.25704 0.63591 0.58923 0.0
H236 H 0.23795 0.65609 0.55805 0.0
H237 H 0.25971 0.67577 0.59 0.0
H238 H 0.20152 0.72544 0.50475 0.0
C239 C 0.23636 0.68836 0.50521 0.0
C240 C 0.82314 0.84521 0.11618 0.0
C241 C 0.84706 0.86175 0.13455 0.0
C242 C 0.85759 0.89007 0.12391 0.0
C243 C 0.82246 0.88462 0.07639 0.0
C244 C 0.8113 0.85708 0.08701 0.0
C245 C 0.78715 0.84238 0.06324 0.0
H246 H 0.6986 0.85046 0.92291 0.0
C247 C 0.80661 0.89031 0.04491 0.0
C248 C 0.78568 0.8658 0.03695 0.0
H249 H 0.70251 0.77685 0.98948 0.0
H250 H 0.74131 0.80464 0.02334 0.0
H251 H 0.69712 0.90428 0.9742 0.0
H252 H 0.78153 0.86073 0.92458 0.0
H253 H 0.79094 0.89895 0.92563 0.0
H254 H 0.75258 0.8861 0.90483 0.0
H255 H 0.70403 0.90806 0.93196 0.0
H256 H 0.72608 0.93178 0.96026 0.0
C257 C 0.75131 0.83804 0.07956 0.0
C258 C 0.80441 0.81311 0.05156 0.0
C259 C 0.83933 0.98447 0.98569 0.0
C260 C 0.83009 0.99629 0.95582 0.0
C261 C 0.80506 0.9811 0.93717 0.0
C262 C 0.79011 0.95435 0.9479 0.0
C263 C 0.80037 0.94253 0.97754 0.0
C264 C 0.82425 0.95786 0.99598 0.0
C265 C 0.83231 0.94227 0.02676 0.0
C266 C 0.80983 0.91466 0.0236 0.0
C267 C 0.79124 0.91479 0.99475 0.0
C268 C 0.82017 0.96261 0.05469 0.0
C269 C 0.87177 0.93458 0.02689 0.0
C270 C 0.70794 0.84008 0.94458 0.0
C271 C 0.69668 0.81141 0.95351 0.0
C272 C 0.70967 0.79914 0.98222 0.0
C273 C 0.73257 0.81523 1.00185 0.0
C274 C 0.74323 0.84385 0.99266 0.0
C275 C 0.73132 0.85564 0.96421 0.0
C276 C 0.747 0.88566 0.95735 0.0
C277 C 0.76958 0.89023 0.98671 0.0
C278 C 0.76709 0.86574 0.00751 0.0
C279 C 0.71716 0.9088 0.95559 0.0
C280 C 0.76903 0.88304 0.92641 0.0
H281 H 0.85488 0.92311 0.08836 0.0
H282 H 0.81478 0.82332 0.12381 0.0
H283 H 0.83332 0.81521 0.05107 0.0
H284 H 0.7972 0.80729 0.02677 0.0
H285 H 0.7978 0.79422 0.06753 0.0
H286 H 0.74398 0.85828 0.09341 0.0
H287 H 0.75201 0.81898 0.09641 0.0
H288 H 0.7299 0.83451 0.0624 0.0
H289 H 0.85884 0.99516 1.00048 0.0
H290 H 0.79712 0.98985 0.91421 0.0
H291 H 0.77137 0.94377 0.93258 0.0
H292 H 0.79799 0.97706 0.04743 0.0
H293 H 0.84156 0.97744 0.06291 0.0
H294 H 0.81004 0.94986 0.07528 0.0
H295 H 0.88088 0.92847 1.00249 0.0
H296 H 0.87813 0.91504 0.04173 0.0
H297 H 0.8876 0.95385 0.0351 0.0
H298 H 0.8757 0.90327 0.13789 0.0
C299 C 0.84541 0.90158 0.09511 0.0
C300 C 0.3109 0.17087 0.45734 0.0
C301 C 0.32173 0.19874 0.46926 0.0
C302 C 0.30505 0.21051 0.49655 0.0
C303 C 0.26902 0.16646 0.50072 0.0
C304 C 0.28461 0.15513 0.47348 0.0
C305 C 0.2704 0.12487 0.46476 0.0
H306 H 0.15382 0.01463 0.49475 0.0
C307 C 0.24373 0.14431 0.51257 0.0
C308 C 0.24437 0.11977 0.49163 0.0
H309 H 0.22662 0.01972 0.41631 0.0
H310 H 0.2509 0.06538 0.43828 0.0
H311 H 0.20814 0.0316 0.54823 0.0
H312 H 0.13263 0.08312 0.49671 0.0
H313 H 0.12952 0.09291 0.53738 0.0
H314 H 0.12174 0.055 0.52546 0.0
H315 H 0.16339 0.03303 0.56049 0.0
H316 H 0.19505 0.05972 0.57483 0.0
C317 C 0.3007 0.10211 0.46569 0.0
C318 C 0.25228 0.12744 0.43186 0.0
C319 C 0.17551 0.16497 0.61484 0.0
C320 C 0.15226 0.14748 0.63273 0.0
C321 C 0.14318 0.11892 0.62154 0.0
C322 C 0.15701 0.10782 0.59296 0.0
C323 C 0.18045 0.12534 0.57537 0.0
C324 C 0.1896 0.1533 0.58647 0.0
C325 C 0.21632 0.16794 0.56533 0.0
C326 C 0.22149 0.1442 0.53976 0.0
C327 C 0.20009 0.11952 0.54563 0.0
C328 C 0.24982 0.17307 0.58535 0.0
C329 C 0.19995 0.19668 0.55148 0.0
C330 C 0.17522 0.02551 0.48253 0.0
C331 C 0.18829 0.01391 0.45379 0.0
C332 C 0.21632 0.02836 0.43859 0.0
C333 C 0.23005 0.05496 0.45122 0.0
C334 C 0.21563 0.06704 0.47938 0.0
C335 C 0.18925 0.05185 0.4949 0.0
C336 C 0.17746 0.06731 0.52485 0.0
C337 C 0.20007 0.09499 0.52419 0.0
C338 C 0.2223 0.0949 0.49747 0.0
C339 C 0.18614 0.04696 0.55369 0.0
C340 C 0.13824 0.07493 0.52124 0.0
H341 H 0.26751 0.20475 0.53302 0.0
H342 H 0.32326 0.16118 0.43649 0.0
H343 H 0.23752 0.1487 0.43011 0.0
H344 H 0.23282 0.1098 0.42762 0.0
H345 H 0.27171 0.12704 0.41216 0.0
H346 H 0.31891 0.10727 0.48563 0.0
H347 H 0.31591 0.10252 0.4431 0.0
H348 H 0.29175 0.07914 0.47021 0.0
H349 H 0.18319 0.18688 0.62314 0.0
H350 H 0.1251 0.1052 0.6349 0.0
H351 H 0.14887 0.08599 0.58572 0.0
H352 H 0.25333 0.1551 0.60332 0.0
H353 H 0.24864 0.19458 0.59848 0.0
H354 H 0.27388 0.1724 0.57086 0.0
H355 H 0.17181 0.1933 0.54613 0.0
H356 H 0.21166 0.20341 0.5285 0.0
H357 H 0.20201 0.21547 0.5687 0.0
H358 H 0.31238 0.23215 0.50586 0.0
C359 C 0.27886 0.19459 0.51227 0.0
C360 C 0.18197 0.96235 0.93932 0.0
C361 C 0.15665 0.98193 0.95186 0.0
C362 C 0.14427 0.97733 0.98316 0.0
C363 C 0.18092 0.93379 0.98854 0.0
C364 C 0.19389 0.93857 0.95817 0.0
C365 C 0.22099 0.91565 0.94913 0.0
H366 H 0.30916 0.78948 0.98781 0.0
C367 C 0.19722 0.90658 1.00139 0.0
C368 C 0.22089 0.89577 0.97856 0.0
H369 H 0.32305 0.84466 0.90417 0.0
H370 H 0.27732 0.87749 0.92252 0.0
H371 H 0.30402 0.84443 0.03775 0.0
H372 H 0.22628 0.79173 0.9894 0.0
H373 H 0.21078 0.79852 0.02822 0.0
H374 H 0.25053 0.77758 0.02271 0.0
H375 H 0.29649 0.80585 0.04657 0.0
H376 H 0.27158 0.83487 0.06563 0.0
C377 C 0.25634 0.93181 0.94469 0.0
C378 C 0.20812 0.89885 0.91905 0.0
C379 C 0.15844 0.8684 0.10958 0.0
C380 C 0.16629 0.84274 0.12724 0.0
C381 C 0.19016 0.82193 0.11463 0.0
C382 C 0.20631 0.82692 0.08497 0.0
C383 C 0.19825 0.85286 0.06764 0.0
C384 C 0.17443 0.87289 0.07999 0.0
C385 C 0.16764 0.8985 0.05789 0.0
C386 C 0.19168 0.89085 0.0303 0.0
C387 C 0.20974 0.86427 0.03617 0.0
C388 C 0.17896 0.92757 0.07509 0.0
C389 C 0.12863 0.89744 0.04802 0.0
C390 C 0.30271 0.80876 0.97351 0.0
C391 C 0.32 0.81437 0.94447 0.0
C392 C 0.31 0.83949 0.92642 0.0
C393 C 0.28362 0.85874 0.93726 0.0
C394 C 0.26704 0.85299 0.96656 0.0
C395 C 0.27673 0.82832 0.98413 0.0
C396 C 0.25692 0.82592 0.01502 0.0
C397 C 0.23413 0.85346 0.01339 0.0
C398 C 0.23988 0.86918 0.98483 0.0
C399 C 0.28343 0.82764 0.04288 0.0
C400 C 0.23508 0.79689 0.01413 0.0
H401 H 0.14534 0.95114 0.02494 0.0
H402 H 0.19223 0.9655 0.91545 0.0
H403 H 0.17995 0.8933 0.92131 0.0
H404 H 0.22153 0.87741 0.91527 0.0
H405 H 0.21144 0.9127 0.89731 0.0
H406 H 0.25851 0.95129 0.96106 0.0
H407 H 0.25935 0.94013 0.91987 0.0
H408 H 0.2789 0.91761 0.95074 0.0
H409 H 0.13958 0.88446 0.11831 0.0
H410 H 0.19654 0.80197 0.12786 0.0
H411 H 0.22438 0.81038 0.07666 0.0
H412 H 0.202 0.9236 0.09066 0.0
H413 H 0.1577 0.93641 0.09044 0.0
H414 H 0.18747 0.94515 0.05838 0.0
H415 H 0.1189 0.87411 0.04707 0.0
H416 H 0.1239 0.90617 0.02377 0.0
H417 H 0.11208 0.9098 0.06534 0.0
H418 H 0.12448 0.99177 0.99326 0.0
C419 C 0.15622 0.95348 1.00148 0.0
C420 C 0.70855 0.17902 0.4577 0.0
C421 C 0.69669 0.20518 0.47301 0.0
C422 C 0.71216 0.2133 0.50244 0.0
C423 C 0.74795 0.16887 0.5018 0.0
C424 C 0.73436 0.16154 0.47224 0.0
C425 C 0.75109 0.134 0.45845 0.0
H426 H 0.85791 0.0158 0.48012 0.0
C427 C 0.77307 0.14547 0.51104 0.0
C428 C 0.77518 0.12502 0.48556 0.0
H429 H 0.80854 0.04291 0.39191 0.0
H430 H 0.78105 0.08419 0.4196 0.0
H431 H 0.88655 0.07641 0.49411 0.0
H432 H 0.79504 0.03245 0.52929 0.0
H433 H 0.81423 0.0505 0.56217 0.0
H434 H 0.83855 0.02242 0.54077 0.0
H435 H 0.88863 0.05004 0.52613 0.0
H436 H 0.88185 0.08928 0.53339 0.0
C437 C 0.77165 0.14293 0.42804 0.0
C438 C 0.72242 0.11043 0.45246 0.0
C439 C 0.82947 0.14632 0.62182 0.0
C440 C 0.85183 0.126 0.63726 0.0
C441 C 0.86237 0.10013 0.6207 0.0
C442 C 0.85075 0.0943 0.58974 0.0
C443 C 0.82841 0.11457 0.57465 0.0
C444 C 0.81796 0.14005 0.59058 0.0
C445 C 0.79376 0.1587 0.57041 0.0
C446 C 0.79192 0.14027 0.5398 0.0
C447 C 0.81235 0.11454 0.54262 0.0
C448 C 0.81114 0.18938 0.56479 0.0
C449 C 0.75811 0.16026 0.58769 0.0
C450 C 0.84151 0.03063 0.46638 0.0
C451 C 0.83604 0.02608 0.43349 0.0
C452 C 0.81333 0.04565 0.41723 0.0
C453 C 0.79775 0.06988 0.43325 0.0
C454 C 0.80532 0.07489 0.46575 0.0
C455 C 0.82697 0.05535 0.48159 0.0
C456 C 0.83503 0.06519 0.51504 0.0
C457 C 0.81474 0.09406 0.51685 0.0
C458 C 0.79673 0.09942 0.48825 0.0
C459 C 0.87502 0.07036 0.51763 0.0
C460 C 0.82026 0.04145 0.53824 0.0
H461 H 0.74775 0.20264 0.53939 0.0
H462 H 0.69775 0.17186 0.43509 0.0
H463 H 0.70524 0.10837 0.47376 0.0
H464 H 0.7331 0.08801 0.4479 0.0
H465 H 0.70589 0.11675 0.43178 0.0
H466 H 0.7799 0.16668 0.42894 0.0
H467 H 0.7556 0.13992 0.40619 0.0
H468 H 0.79626 0.13032 0.42538 0.0
H469 H 0.82081 0.16637 0.63387 0.0
H470 H 0.88014 0.08441 0.6316 0.0
H471 H 0.85984 0.07417 0.57874 0.0
H472 H 0.84 0.18721 0.56333 0.0
H473 H 0.80509 0.20511 0.58455 0.0
H474 H 0.80347 0.19953 0.54182 0.0
H475 H 0.75092 0.13809 0.5975 0.0
H476 H 0.73643 0.16644 0.57177 0.0
H477 H 0.759 0.17629 0.60793 0.0
H478 H 0.70501 0.2338 0.51441 0.0
C479 C 0.73737 0.19526 0.51694 0.0
Fe480 Fe 0.01013 0.81585 0.32511 0.0
Fe481 Fe 0.01378 0.85169 0.38785 0.0
O482 O 0.01117 0.85047 0.34567 0.0
Fe483 Fe 0.00978 0.88425 0.32411 0.0
O484 O 0.98461 0.86938 0.29063 0.0
O485 O 0.96903 0.82459 0.30541 0.0
O486 O 0.98421 0.79665 0.35615 0.0
C487 C 0.96599 0.80702 0.37899 0.0
C488 C 0.05555 0.85207 0.28781 0.0
O489 O 0.9731 0.83181 0.39158 0.0
C490 C 0.05716 0.89765 0.37409 0.0
O491 O 0.05114 0.80422 0.34253 0.0
O492 O 0.03934 0.81726 0.3919 0.0
O493 O 0.05031 0.87531 0.3042 0.0
O494 O 0.03605 0.82935 0.29087 0.0
C495 C 0.96681 0.89884 0.37309 0.0
O496 O 0.05488 0.87226 0.38681 0.0
O497 O 0.03534 0.90562 0.35315 0.0
C498 C 0.05769 0.80297 0.37194 0.0
O499 O 0.98831 0.88614 0.39163 0.0
O500 O 0.96897 0.89524 0.34319 0.0
C501 C 0.96527 0.84682 0.28746 0.0
Fe502 Fe 0.99879 0.16265 0.89419 0.0
Fe503 Fe 1.00474 0.13025 0.83007 0.0
O504 O 1.00239 0.16392 0.85202 0.0
Fe505 Fe 1.00419 0.19872 0.83184 0.0
O506 O 0.04316 0.20979 0.85365 0.0
O507 O 0.02391 0.19683 0.90108 0.0
O508 O 0.03947 0.14244 0.89798 0.0
C509 C 0.04593 0.11786 0.88465 0.0
C510 C 0.95405 0.2082 0.8813 0.0
O511 O 0.02792 0.10915 0.86109 0.0
C512 C 0.96192 0.16708 0.79157 0.0
O513 O 0.97272 0.12819 0.89499 0.0
O514 O 0.96265 0.11817 0.84445 0.0
O515 O 0.97512 0.21808 0.86042 0.0
O516 O 0.95816 0.18284 0.8935 0.0
C517 C 0.05316 0.16289 0.79786 0.0
O518 O 0.98192 0.14489 0.79501 0.0
O519 O 0.96552 0.19018 0.80847 0.0
C520 C 0.95483 0.11538 0.87351 0.0
O521 O 0.04696 0.14005 0.8143 0.0
O522 O 0.03329 0.18545 0.79951 0.0
C523 C 0.04566 0.21053 0.88372 0.0
Fe524 Fe 0.50786 0.3052 0.32086 0.0
Fe525 Fe 0.50555 0.3403 0.38408 0.0
O526 O 0.50709 0.33962 0.3418 0.0
Fe527 Fe 0.50742 0.37365 0.32062 0.0
O528 O 0.46715 0.3643 0.30085 0.0
O529 O 0.48155 0.31871 0.28671 0.0
O530 O 0.46708 0.2932 0.33903 0.0
C531 C 0.46178 0.29161 0.36871 0.0
C532 C 0.55294 0.33704 0.28392 0.0
O533 O 0.48121 0.30546 0.38808 0.0
C534 C 0.55059 0.38859 0.36935 0.0
O535 O 0.53456 0.28608 0.3512 0.0
O536 O 0.54674 0.3209 0.38687 0.0
O537 O 0.53334 0.35953 0.28694 0.0
O538 O 0.54863 0.31434 0.30104 0.0
C539 C 0.45924 0.3846 0.37053 0.0
O540 O 0.52977 0.37536 0.38804 0.0
O541 O 0.54797 0.38533 0.3395 0.0
C542 C 0.55338 0.2962 0.37374 0.0
O543 O 0.46398 0.35974 0.38388 0.0
O544 O 0.48076 0.39405 0.34993 0.0
C545 C 0.46207 0.34146 0.28397 0.0
Fe546 Fe 0.50562 0.66079 0.87552 0.0
Fe547 Fe 0.51091 0.63087 0.80993 0.0
O548 O 0.51016 0.66369 0.83349 0.0
Fe549 Fe 0.51354 0.69895 0.81457 0.0
O550 O 0.53817 0.71675 0.84737 0.0
O551 O 0.54551 0.68087 0.88251 0.0
O552 O 0.53195 0.62658 0.87815 0.0
C553 C 0.55375 0.61512 0.8588 0.0
C554 C 0.46305 0.71055 0.85979 0.0
O555 O 0.55052 0.61823 0.82898 0.0
C556 C 0.46811 0.66565 0.77422 0.0
O557 O 0.46484 0.64024 0.87228 0.0
O558 O 0.48397 0.60846 0.83675 0.0
O559 O 0.4721 0.71103 0.83083 0.0
O560 O 0.47922 0.69474 0.87997 0.0
C561 C 0.55925 0.66783 0.7777 0.0
O562 O 0.47135 0.64189 0.78995 0.0
O563 O 0.48899 0.6873 0.77856 0.0
C564 C 0.46159 0.61603 0.85733 0.0
O565 O 0.53782 0.6465 0.778 0.0
O566 O 0.55548 0.68958 0.79647 0.0
C567 C 0.55331 0.70614 0.87175 0.0
H568 H 0.15105 0.28048 0.97209 0.0
H569 H 0.19634 0.3031 0.88096 0.0
H570 H 0.15048 0.27506 0.85351 0.0
H571 H 0.09824 0.24276 0.8556 0.0
H572 H 0.05458 0.21981 0.94751 0.0
H573 H 0.09934 0.24892 0.97425 0.0
C574 C 0.15115 0.27908 0.94621 0.0
C575 C 0.17732 0.29372 0.92868 0.0
C576 C 0.12499 0.26272 0.93065 0.0
C577 C 0.17642 0.29223 0.8951 0.0
C578 C 0.1503 0.27604 0.87938 0.0
C579 C 0.09845 0.24419 0.88147 0.0
C580 C 0.07294 0.22899 0.8994 0.0
C581 C 0.12452 0.26102 0.89693 0.0
C582 C 0.07377 0.23115 0.93295 0.0
C583 C 0.09941 0.24784 0.94837 0.0
H584 H 0.83818 0.75114 0.4524 0.0
H585 H 0.88308 0.66992 0.41541 0.0
H586 H 0.92774 0.69858 0.38749 0.0
H587 H 0.95552 0.74681 0.37508 0.0
H588 H 0.9119 0.82746 0.41475 0.0
H589 H 0.86573 0.79889 0.44034 0.0
C590 C 0.85791 0.73961 0.43853 0.0
C591 C 0.85715 0.70835 0.43616 0.0
C592 C 0.88393 0.75616 0.423 0.0
C593 C 0.88262 0.69396 0.41741 0.0
C594 C 0.90838 0.71034 0.40157 0.0
C595 C 0.93576 0.75811 0.38914 0.0
C596 C 0.93728 0.78922 0.39303 0.0
C597 C 0.90942 0.74146 0.40431 0.0
C598 C 0.91156 0.80351 0.41153 0.0
C599 C 0.88507 0.7872 0.42618 0.0
H600 H 0.85026 0.28535 0.96369 0.0
H601 H 0.82667 0.32207 0.87084 0.0
H602 H 0.86984 0.28946 0.84641 0.0
H603 H 0.91496 0.2504 0.85123 0.0
H604 H 0.93348 0.21037 0.9432 0.0
H605 H 0.89109 0.24381 0.96784 0.0
C606 C 0.85386 0.28596 0.93802 0.0
C607 C 0.83525 0.30668 0.91943 0.0
C608 C 0.87795 0.26641 0.92381 0.0
C609 C 0.84111 0.30712 0.88616 0.0
C610 C 0.86567 0.28822 0.87198 0.0
C611 C 0.9096 0.24907 0.87663 0.0
C612 C 0.92741 0.22809 0.89538 0.0
C613 C 0.88446 0.26791 0.8906 0.0
C614 C 0.91998 0.22627 0.92822 0.0
C615 C 0.89581 0.24544 0.94237 0.0
H616 H 0.18513 0.71732 0.40022 0.0
H617 H 0.14012 0.72114 0.49471 0.0
H618 H 0.09429 0.75402 0.4755 0.0
H619 H 0.06732 0.78244 0.43232 0.0
H620 H 0.11045 0.77762 0.33719 0.0
H621 H 0.15634 0.74427 0.35614 0.0
C622 C 0.16506 0.72507 0.4165 0.0
C623 C 0.16644 0.71703 0.44897 0.0
C624 C 0.13844 0.74392 0.40524 0.0
C625 C 0.14024 0.72745 0.46975 0.0
C626 C 0.11385 0.74618 0.45877 0.0
C627 C 0.08679 0.77418 0.4157 0.0
C628 C 0.0855 0.78269 0.38342 0.0
C629 C 0.11288 0.7548 0.42666 0.0
C630 C 0.11078 0.77144 0.36219 0.0
C631 C 0.13707 0.75236 0.37301 0.0
H632 H 0.64567 0.77319 0.97313 0.0
H633 H 0.69061 0.81114 0.88778 0.0
H634 H 0.64893 0.78367 0.85504 0.0
H635 H 0.6004 0.74739 0.8504 0.0
H636 H 0.56037 0.70628 0.93596 0.0
H637 H 0.59995 0.73587 0.9686 0.0
C638 C 0.64696 0.77519 0.94736 0.0
C639 C 0.67149 0.79438 0.9332 0.0
C640 C 0.62373 0.75857 0.92854 0.0
C641 C 0.67175 0.79705 0.89964 0.0
C642 C 0.64805 0.7811 0.88076 0.0
C643 C 0.60037 0.74508 0.87619 0.0
C644 C 0.57751 0.72471 0.89073 0.0
C645 C 0.62395 0.76169 0.89493 0.0
C646 C 0.57791 0.72166 0.92416 0.0
C647 C 0.60047 0.73862 0.94288 0.0
H648 H 0.33418 0.20862 0.40563 0.0
H649 H 0.3755 0.22587 0.49978 0.0
H650 H 0.42225 0.25563 0.47686 0.0
H651 H 0.45057 0.27778 0.43075 0.0
H652 H 0.41072 0.26107 0.33597 0.0
H653 H 0.36443 0.22986 0.35846 0.0
C654 C 0.35364 0.21868 0.42103 0.0
C655 C 0.35109 0.21531 0.45441 0.0
C656 C 0.38065 0.2359 0.40764 0.0
C657 C 0.37644 0.22858 0.47409 0.0
C658 C 0.4033 0.2455 0.461 0.0
C659 C 0.43185 0.26734 0.41486 0.0
C660 C 0.43412 0.27191 0.38169 0.0
C661 C 0.40544 0.24956 0.4279 0.0
C662 C 0.40964 0.25796 0.3616 0.0
C663 C 0.38313 0.24013 0.37446 0.0
H664 H 0.33473 0.79624 0.88344 0.0
H665 H 0.37025 0.78752 0.98085 0.0
H666 H 0.41645 0.75395 0.96351 0.0
H667 H 0.44745 0.72744 0.92072 0.0
H668 H 0.41391 0.73804 0.82299 0.0
H669 H 0.36674 0.77079 0.84043 0.0
C670 C 0.35278 0.7873 0.90088 0.0
C671 C 0.34868 0.79436 0.93348 0.0
C672 C 0.37979 0.76832 0.89069 0.0
C673 C 0.37218 0.78211 0.95569 0.0
C674 C 0.39885 0.76302 0.94578 0.0
C675 C 0.42977 0.73682 0.90322 0.0
C676 C 0.43425 0.73021 0.87059 0.0
C677 C 0.40289 0.75593 0.91336 0.0
C678 C 0.4112 0.7428 0.84826 0.0
C679 C 0.38415 0.76153 0.85821 0.0
H680 H 0.68051 0.21359 0.4094 0.0
H681 H 0.64731 0.23855 0.50459 0.0
H682 H 0.6021 0.26994 0.48224 0.0
H683 H 0.57088 0.28998 0.43591 0.0
H684 H 0.59865 0.26049 0.3412 0.0
H685 H 0.64634 0.23052 0.36322 0.0
C686 C 0.66316 0.22539 0.42546 0.0
C687 C 0.66817 0.22377 0.45884 0.0
C688 C 0.63594 0.24257 0.4125 0.0
C689 C 0.64531 0.23987 0.47885 0.0
C690 C 0.61896 0.25768 0.4661 0.0
C691 C 0.58746 0.27701 0.42013 0.0
C692 C 0.58157 0.27757 0.38701 0.0
C693 C 0.61407 0.25924 0.43301 0.0
C694 C 0.60276 0.26032 0.3668 0.0
C695 C 0.63003 0.24328 0.37939 0.0
H696 H 0.3652 0.50469 0.88064 0.0
H697 H 0.35247 0.54744 0.97227 0.0
H698 H 0.38665 0.59008 0.95387 0.0
H699 H 0.42432 0.61329 0.91309 0.0
H700 H 0.43824 0.56923 0.82219 0.0
H701 H 0.39905 0.52943 0.83874 0.0
C702 C 0.36926 0.52361 0.89635 0.0
C703 C 0.35642 0.52281 0.9278 0.0
C704 C 0.38941 0.5478 0.8858 0.0
C705 C 0.3624 0.54736 0.94804 0.0
C706 C 0.38191 0.57176 0.93752 0.0
C707 C 0.41835 0.5952 0.89676 0.0
C708 C 0.43448 0.59413 0.86656 0.0
C709 C 0.39622 0.57195 0.90666 0.0
C710 C 0.42652 0.57046 0.84572 0.0
C711 C 0.40408 0.54765 0.85514 0.0
H712 H 0.61706 0.49791 0.44023 0.0
H713 H 0.70488 0.47594 0.37998 0.0
H714 H 0.67092 0.4361 0.35495 0.0
H715 H 0.61625 0.40625 0.35147 0.0
H716 H 0.532 0.42621 0.41651 0.0
H717 H 0.56506 0.46746 0.43899 0.0
C718 C 0.62935 0.4841 0.42218 0.0
C719 C 0.66382 0.48993 0.41244 0.0
C720 C 0.61025 0.46063 0.40878 0.0
C721 C 0.67836 0.4723 0.38793 0.0
C722 C 0.65902 0.4493 0.37372 0.0
C723 C 0.60532 0.41971 0.37056 0.0
C724 C 0.57183 0.41317 0.38241 0.0
C725 C 0.62494 0.44313 0.38409 0.0
C726 C 0.55789 0.4306 0.40724 0.0
C727 C 0.57669 0.45429 0.42003 0.0
H728 H 0.65168 0.50991 0.90051 0.0
H729 H 0.66001 0.56496 0.98487 0.0
H730 H 0.62505 0.60351 0.95938 0.0
H731 H 0.58712 0.61927 0.91537 0.0
H732 H 0.58063 0.56554 0.83006 0.0
H733 H 0.62034 0.52896 0.85348 0.0
C734 C 0.64669 0.53066 0.913 0.0
C735 C 0.65787 0.53426 0.9448 0.0
C736 C 0.62654 0.55281 0.8982 0.0
C737 C 0.65101 0.56131 0.96065 0.0
C738 C 0.63104 0.58339 0.9461 0.0
C739 C 0.59468 0.59965 0.90186 0.0
C740 C 0.58061 0.59478 0.87134 0.0
C741 C 0.61771 0.57894 0.91532 0.0
C742 C 0.59106 0.56965 0.85371 0.0
C743 C 0.61367 0.54871 0.86711 0.0
H744 H 0.34875 0.46411 0.44301 0.0
H745 H 0.36605 0.5203 0.36109 0.0
H746 H 0.40369 0.48228 0.3373 0.0
H747 H 0.43597 0.43524 0.34219 0.0
H748 H 0.41936 0.37934 0.42458 0.0
H749 H 0.37728 0.41514 0.4458 0.0
C750 C 0.36055 0.46791 0.41982 0.0
C751 C 0.35484 0.49512 0.40398 0.0
C752 C 0.38261 0.44617 0.40655 0.0
C753 C 0.36981 0.49951 0.3737 0.0
C754 C 0.39161 0.47789 0.36023 0.0
C755 C 0.42302 0.43078 0.36472 0.0
C756 C 0.43126 0.40482 0.38198 0.0
C757 C 0.39888 0.45148 0.37682 0.0
C758 C 0.41374 0.39919 0.41086 0.0
C759 C 0.38969 0.41969 0.42305 0.0
H760 H 0.85305 0.00717 0.89527 0.0
H761 H 0.84814 0.04632 0.98948 0.0
H762 H 0.88528 0.08724 0.972 0.0
H763 H 0.9226 0.10999 0.93109 0.0
H764 H 0.92587 0.07177 0.83639 0.0
H765 H 0.88535 0.03283 0.85282 0.0
C766 C 0.8594 0.02497 0.91182 0.0
C767 C 0.8482 0.02335 0.94379 0.0
C768 C 0.88069 0.04857 0.90159 0.0
C769 C 0.85702 0.0466 0.96492 0.0
C770 C 0.87818 0.0701 0.95493 0.0
C771 C 0.91427 0.09325 0.91399 0.0
C772 C 0.92766 0.09359 0.88271 0.0
C773 C 0.89084 0.07093 0.92354 0.0
C774 C 0.91614 0.072 0.86069 0.0
C775 C 0.89301 0.04964 0.87007 0.0
H776 H 0.12156 0.01297 0.43566 0.0
H777 H 0.21416 0.95887 0.43748 0.0
H778 H 0.18155 0.91686 0.41418 0.0
H779 H 0.12566 0.89571 0.39344 0.0
H780 H 0.03529 0.95275 0.38863 0.0
H781 H 0.06773 0.99325 0.41323 0.0
C782 C 0.13453 0.99193 0.43092 0.0
C783 C 0.16994 0.98874 0.43838 0.0
C784 C 0.11589 0.96838 0.41716 0.0
C785 C 0.1868 0.96166 0.43182 0.0
C786 C 0.16814 0.9377 0.41865 0.0
C787 C 0.11326 0.917 0.39796 0.0
C788 C 0.07812 0.92122 0.38946 0.0
C789 C 0.13253 0.94076 0.41131 0.0
C790 C 0.06231 0.949 0.39498 0.0
C791 C 0.08082 0.9722 0.40903 0.0
H792 H 0.14493 0.03916 0.97004 0.0
H793 H 0.13361 0.9791 0.89016 0.0
H794 H 0.10026 0.01682 0.86118 0.0
H795 H 0.06964 0.06502 0.8608 0.0
H796 H 0.08045 0.12461 0.94136 0.0
H797 H 0.11852 0.08887 0.9678 0.0
C798 C 0.13537 0.03443 0.94617 0.0
C799 C 0.1414 0.00628 0.9324 0.0
C800 C 0.11577 0.056 0.92993 0.0
C801 C 0.12946 1.00064 0.90123 0.0
C802 C 0.11011 0.02211 0.88478 0.0
C803 C 0.08049 0.0703 0.88405 0.0
C804 C 0.07169 0.09733 0.89923 0.0
C805 C 0.10236 0.04958 0.89924 0.0
C806 C 0.08647 0.10393 0.92917 0.0
C807 C 0.10826 0.08348 0.94437 0.0
H808 H 0.90217 0.00799 0.44555 0.0
H809 H 0.81555 0.99077 0.38234 0.0
H810 H 0.84887 0.95082 0.35646 0.0
H811 H 0.90242 0.91912 0.35362 0.0
H812 H 0.98446 0.93429 0.4224 0.0
H813 H 0.95255 0.97597 0.44489 0.0
C814 C 0.88993 0.99518 0.42665 0.0
C815 C 0.85596 1.00221 0.41648 0.0
C816 C 0.90847 0.97158 0.41294 0.0
C817 C 0.84164 0.98604 0.39076 0.0
C818 C 0.8606 0.96299 0.37609 0.0
C819 C 0.91312 0.93161 0.37353 0.0
C820 C 0.94577 0.92357 0.3863 0.0
C821 C 0.89399 0.95532 0.38722 0.0
C822 C 0.95932 0.93982 0.41223 0.0
C823 C 0.94116 0.96378 0.42509 0.0
H824 H 0.36211 0.38362 0.17444 0.0
H825 H 0.40665 0.30774 0.12637 0.0
H826 H 0.43737 0.29353 0.1755 0.0
H827 H 0.45634 0.30625 0.23048 0.0
H828 H 0.41075 0.38261 0.2776 0.0
H829 H 0.37543 0.39283 0.23071 0.0
C830 C 0.37819 0.36374 0.17495 0.0
C831 C 0.38252 0.34689 0.14697 0.0
C832 C 0.39575 0.35592 0.20305 0.0
C833 C 0.40302 0.32099 0.14778 0.0
C834 C 0.42069 0.313 0.17577 0.0
C835 C 0.43818 0.32476 0.23069 0.0
C836 C 0.43669 0.34389 0.25739 0.0
C837 C 0.41796 0.33078 0.20336 0.0
C838 C 0.41289 0.36775 0.25725 0.0
C839 C 0.39263 0.37368 0.23042 0.0
H840 H 0.67919 0.65738 0.67498 0.0
H841 H 0.58965 0.63942 0.61567 0.0
H842 H 0.55068 0.65115 0.6599 0.0
H843 H 0.54201 0.66071 0.71656 0.0
H844 H 0.62985 0.67882 0.77756 0.0
H845 H 0.66965 0.67326 0.73167 0.0
C846 C 0.65115 0.65668 0.67174 0.0
C847 C 0.63722 0.64712 0.64232 0.0
C848 C 0.6287 0.66316 0.69761 0.0
C849 C 0.60087 0.6463 0.63827 0.0
C850 C 0.57859 0.65297 0.66352 0.0
C851 C 0.56988 0.66385 0.71967 0.0
C852 C 0.5832 0.66979 0.75022 0.0
C853 C 0.59222 0.66047 0.69347 0.0
C854 C 0.61916 0.67423 0.7541 0.0
C855 C 0.64183 0.67087 0.72794 0.0
H856 H 0.6691 0.32751 0.17678 0.0
H857 H 0.58574 0.36665 0.12185 0.0
H858 H 0.54728 0.36477 0.16802 0.0
H859 H 0.53826 0.35546 0.2247 0.0
H860 H 0.61898 0.31373 0.28031 0.0
H861 H 0.65758 0.31306 0.23332 0.0
C862 C 0.64234 0.33508 0.17489 0.0
C863 C 0.63052 0.34778 0.14614 0.0
C864 C 0.6201 0.33389 0.20173 0.0
C865 C 0.5957 0.3574 0.14393 0.0
C866 C 0.57365 0.35635 0.1703 0.0
C867 C 0.56437 0.34628 0.22652 0.0
C868 C 0.57619 0.33529 0.2559 0.0
C869 C 0.58583 0.3454 0.19947 0.0
C870 C 0.60959 0.32262 0.25787 0.0
C871 C 0.63157 0.32222 0.23104 0.0
H872 H 0.38949 0.67388 0.64221 0.0
H873 H 0.35199 0.58836 0.67381 0.0
H874 H 0.3805 0.5954 0.72544 0.0
H875 H 0.42044 0.62339 0.75925 0.0
H876 H 0.46122 0.70782 0.72721 0.0
H877 H 0.42658 0.70397 0.67831 0.0
C878 C 0.38711 0.65712 0.66071 0.0
C879 C 0.36894 0.63058 0.65434 0.0
C880 C 0.40433 0.66102 0.69007 0.0
C881 C 0.36615 0.60884 0.67823 0.0
C882 C 0.38243 0.61285 0.70768 0.0
C883 C 0.4216 0.64115 0.74176 0.0
C884 C 0.4438 0.66566 0.74673 0.0
C885 C 0.40233 0.63847 0.7135 0.0
C886 C 0.44452 0.68861 0.72393 0.0
C887 C 0.42481 0.68637 0.6959 0.0
H888 H 0.91517 0.85489 0.14584 0.0
H889 H 0.81447 0.84311 0.18945 0.0
H890 H 0.84239 0.8338 0.2414 0.0
H891 H 0.89594 0.83564 0.27548 0.0
H892 H 0.99551 0.8504 0.23021 0.0
H893 H 0.96782 0.85175 0.17793 0.0
C894 C 0.89941 0.84974 0.16666 0.0
C895 C 0.86297 0.8499 0.1641 0.0
C896 C 0.91554 0.84531 0.19623 0.0
C897 C 0.84266 0.84299 0.191 0.0
C898 C 0.85862 0.83796 0.22069 0.0
C899 C 0.91139 0.83859 0.25401 0.0
C900 C 0.94756 0.84322 0.25651 0.0
C901 C 0.89507 0.84005 0.22382 0.0
C902 C 0.96754 0.84713 0.22872 0.0
C903 C 0.95177 0.84789 0.19885 0.0
H904 H 0.15543 0.12037 0.68995 0.0
H905 H 0.11569 0.19875 0.64344 0.0
H906 H 0.08405 0.21273 0.69223 0.0
H907 H 0.06275 0.1993 0.74612 0.0
H908 H 0.10336 0.12047 0.79186 0.0
H909 H 0.13992 0.11029 0.74562 0.0
C910 C 0.14015 0.1407 0.69073 0.0
C911 C 0.13742 0.15835 0.66323 0.0
C912 C 0.12207 0.14842 0.71866 0.0
C913 C 0.11804 0.18485 0.66444 0.0
C914 C 0.09987 0.19273 0.69225 0.0
C915 C 0.0801 0.18024 0.74622 0.0
C916 C 0.07978 0.16042 0.77226 0.0
C917 C 0.10096 0.17424 0.71926 0.0
C918 C 0.10261 0.13589 0.77201 0.0
C919 C 0.12355 0.12997 0.74552 0.0
H920 H 0.15929 0.88216 0.17572 0.0
H921 H 0.13377 0.79222 0.14816 0.0
H922 H 0.09889 0.78627 0.1968 0.0
H923 H 0.07195 0.80825 0.24489 0.0
H924 H 0.09778 0.89859 0.27169 0.0
H925 H 0.13619 0.90271 0.22564 0.0
C926 C 0.14623 0.86121 0.1805 0.0
C927 C 0.14876 0.83777 0.15833 0.0
C928 C 0.12608 0.85809 0.20824 0.0
C929 C 0.13226 0.81054 0.16499 0.0
C930 C 0.11215 0.80723 0.19266 0.0
C931 C 0.08621 0.82875 0.24084 0.0
C932 C 0.08153 0.85318 0.26159 0.0
C933 C 0.1083 0.83108 0.21414 0.0
C934 C 0.10053 0.87948 0.25606 0.0
C935 C 0.12255 0.88191 0.22967 0.0
H936 H 0.87613 0.17801 0.6637 0.0
H937 H 0.85701 0.08546 0.68517 0.0
H938 H 0.88768 0.09067 0.73575 0.0
H939 H 0.92487 0.11993 0.77136 0.0
H940 H 0.94267 0.21291 0.75218 0.0
H941 H 0.90712 0.20933 0.70356 0.0
C942 C 0.87802 0.15919 0.67978 0.0
C943 C 0.86501 0.13119 0.67025 0.0
C944 C 0.89571 0.16235 0.70911 0.0
C945 C 0.86762 0.10705 0.69147 0.0
C946 C 0.88507 0.11 0.72048 0.0
C947 C 0.92061 0.13948 0.75668 0.0
C948 C 0.93666 0.1665 0.76497 0.0
C949 C 0.90011 0.13726 0.72906 0.0
C950 C 0.93054 0.19184 0.74617 0.0
C951 C 0.91038 0.18974 0.71833 0.0
loop_
_geom_bond_atom_site_label_1
_geom_bond_atom_site_label_2
_geom_bond_distance
_geom_bond_site_symmetry_2
_ccdc_geom_bond_type
C0 C1 1.391 . S
C0 C4 1.391 . S
C0 H42 0.948 . S
C1 C0 1.391 . S
C1 C2 1.391 . S
C2 C1 1.391 . S
C2 H58 0.947 . S
C2 C59 1.392 . S
C3 C4 1.391 . S
C3 C7 1.397 . S
C3 C59 1.419 . S
C4 C0 1.391 . S
C4 C3 1.391 . S
C4 C5 1.399 . S
C5 C4 1.399 . S
C5 C8 1.396 . S
C5 C17 1.453 . S
C5 C18 1.684 . S
H6 C30 0.948 . S
C7 C3 1.397 . S
C7 C8 1.394 . S
C7 C26 1.723 . S
C8 C5 1.396 . S
C8 C7 1.394 . S
C8 C38 1.723 . S
H9 C32 0.947 1_554 S
H10 C33 0.948 . S
H11 C39 0.982 . S
H12 C40 0.979 . S
H13 C40 0.980 . S
H14 C40 0.983 . S
H15 C39 0.979 . S
H16 C39 0.977 . S
C17 C5 1.453 . S
C17 H46 0.982 . S
C17 H47 0.979 . S
C17 H48 0.977 . S
C18 C5 1.684 . S
C18 H43 0.979 . S
C18 H44 0.980 . S
C18 H45 0.983 . S
C19 C20 1.391 . S
C19 C24 1.391 . S
C19 H49 0.948 . S
C20 C19 1.391 . S
C20 C21 1.391 . S
C21 C20 1.391 . S
C21 C22 1.392 . S
C21 H50 0.947 . S
C22 C21 1.392 . S
C22 C23 1.419 . S
C22 H51 0.948 . S
C23 C22 1.419 . S
C23 C24 1.391 . S
C23 C27 1.397 . S
C24 C19 1.391 . S
C24 C23 1.391 . S
C24 C25 1.399 1_556 S
C25 C24 1.399 1_554 S
C25 C26 1.396 . S
C25 C28 1.453 . S
C25 C29 1.684 . S
C26 C7 1.723 . S
C26 C25 1.396 . S
C26 C27 1.394 1_554 S
C27 C23 1.397 . S
C27 C26 1.394 1_556 S
C27 C37 1.723 . S
C28 C25 1.453 . S
C28 H52 0.982 . S
C28 H53 0.979 . S
C28 H54 0.977 . S
C29 C25 1.684 . S
C29 H55 0.979 . S
C29 H56 0.980 . S
C29 H57 0.983 . S
C30 H6 0.948 . S
C30 C31 1.391 . S
C30 C35 1.391 . S
C31 C30 1.391 . S
C31 C32 1.391 . S
C32 H9 0.947 1_556 S
C32 C31 1.391 . S
C32 C33 1.392 1_556 S
C33 H10 0.948 . S
C33 C32 1.392 1_554 S
C33 C34 1.419 1_554 S
C34 C33 1.419 1_556 S
C34 C35 1.391 . S
C34 C38 1.397 1_556 S
C35 C30 1.391 . S
C35 C34 1.391 . S
C35 C36 1.399 . S
C36 C35 1.399 . S
C36 C37 1.396 . S
C36 C39 1.453 . S
C36 C40 1.684 . S
C37 C27 1.723 . S
C37 C36 1.396 . S
C37 C38 1.394 1_556 S
C38 C8 1.723 . S
C38 C34 1.397 1_554 S
C38 C37 1.394 1_554 S
C39 H11 0.982 . S
C39 H15 0.979 . S
C39 H16 0.977 . S
C39 C36 1.453 . S
C40 H12 0.979 . S
C40 H13 0.980 . S
C40 H14 0.983 . S
C40 C36 1.684 . S
H41 C59 0.948 . S
H42 C0 0.948 . S
H43 C18 0.979 . S
H44 C18 0.980 . S
H45 C18 0.983 . S
H46 C17 0.982 . S
H47 C17 0.979 . S
H48 C17 0.977 . S
H49 C19 0.948 . S
H50 C21 0.947 . S
H51 C22 0.948 . S
H52 C28 0.982 . S
H53 C28 0.979 . S
H54 C28 0.977 . S
H55 C29 0.979 . S
H56 C29 0.980 . S
H57 C29 0.983 . S
H58 C2 0.947 . S
C59 C2 1.392 . S
C59 C3 1.419 . S
C59 H41 0.948 . S
C60 C61 1.391 . S
C60 C64 1.391 . S
C60 H102 0.948 . S
C61 C60 1.391 . S
C61 C62 1.391 . S
C62 C61 1.391 . S
C62 H118 0.947 . S
C62 C119 1.392 . S
C63 C64 1.391 . S
C63 C67 1.397 . S
C63 C119 1.419 . S
C64 C60 1.391 . S
C64 C63 1.391 . S
C64 C65 1.399 . S
C65 C64 1.399 . S
C65 C68 1.396 . S
C65 C77 1.453 . S
C65 C78 1.684 . S
H66 C90 0.948 . S
C67 C63 1.397 . S
C67 C68 1.394 . S
C67 C86 1.723 . S
C68 C65 1.396 . S
C68 C67 1.394 . S
C68 C98 1.723 . S
H69 C92 0.947 . S
H70 C93 0.948 . S
H71 C99 0.982 . S
H72 C100 0.979 . S
H73 C100 0.980 . S
H74 C100 0.983 . S
H75 C99 0.979 . S
H76 C99 0.977 . S
C77 C65 1.453 . S
C77 H106 0.982 . S
C77 H107 0.979 . S
C77 H108 0.977 . S
C78 C65 1.684 . S
C78 H103 0.979 . S
C78 H104 0.980 . S
C78 H105 0.983 . S
C79 C80 1.391 . S
C79 C84 1.391 . S
C79 H109 0.948 . S
C80 C79 1.391 . S
C80 C81 1.391 . S
C81 C80 1.391 . S
C81 C82 1.392 . S
C81 H110 0.947 . S
C82 C81 1.392 . S
C82 C83 1.419 . S
C82 H111 0.948 . S
C83 C82 1.419 . S
C83 C84 1.391 . S
C83 C87 1.397 . S
C84 C79 1.391 . S
C84 C83 1.391 . S
C84 C85 1.399 . S
C85 C84 1.399 . S
C85 C86 1.396 . S
C85 C88 1.453 . S
C85 C89 1.684 . S
C86 C67 1.723 . S
C86 C85 1.396 . S
C86 C87 1.394 . S
C87 C83 1.397 . S
C87 C86 1.394 . S
C87 C97 1.723 . S
C88 C85 1.453 . S
C88 H112 0.982 . S
C88 H113 0.979 . S
C88 H114 0.977 . S
C89 C85 1.684 . S
C89 H115 0.979 . S
C89 H116 0.980 . S
C89 H117 0.983 . S
C90 H66 0.948 . S
C90 C91 1.391 . S
C90 C95 1.391 . S
C91 C90 1.391 . S
C91 C92 1.391 . S
C92 H69 0.947 . S
C92 C91 1.391 . S
C92 C93 1.392 . S
C93 H70 0.948 . S
C93 C92 1.392 . S
C93 C94 1.419 . S
C94 C93 1.419 . S
C94 C95 1.391 . S
C94 C98 1.397 . S
C95 C90 1.391 . S
C95 C94 1.391 . S
C95 C96 1.399 . S
C96 C95 1.399 . S
C96 C97 1.396 . S
C96 C99 1.453 . S
C96 C100 1.684 . S
C97 C87 1.723 . S
C97 C96 1.396 . S
C97 C98 1.394 . S
C98 C68 1.723 . S
C98 C94 1.397 . S
C98 C97 1.394 . S
C99 H71 0.982 . S
C99 H75 0.979 . S
C99 H76 0.977 . S
C99 C96 1.453 . S
C100 H72 0.979 . S
C100 H73 0.980 . S
C100 H74 0.983 . S
C100 C96 1.684 . S
H101 C119 0.948 . S
H102 C60 0.948 . S
H103 C78 0.979 . S
H104 C78 0.980 . S
H105 C78 0.983 . S
H106 C77 0.982 . S
H107 C77 0.979 . S
H108 C77 0.977 . S
H109 C79 0.948 . S
H110 C81 0.947 . S
H111 C82 0.948 . S
H112 C88 0.982 . S
H113 C88 0.979 . S
H114 C88 0.977 . S
H115 C89 0.979 . S
H116 C89 0.980 . S
H117 C89 0.983 . S
H118 C62 0.947 . S
C119 C62 1.392 . S
C119 C63 1.419 . S
C119 H101 0.948 . S
C120 C121 1.391 . S
C120 C124 1.391 . S
C120 H162 0.948 . S
C121 C120 1.391 . S
C121 C122 1.391 . S
C122 C121 1.391 . S
C122 H178 0.947 . S
C122 C179 1.392 . S
C123 C124 1.391 . S
C123 C127 1.397 . S
C123 C179 1.419 . S
C124 C120 1.391 . S
C124 C123 1.391 . S
C124 C125 1.399 . S
C125 C124 1.399 . S
C125 C128 1.396 . S
C125 C137 1.453 . S
C125 C138 1.684 . S
H126 C150 0.948 . S
C127 C123 1.397 . S
C127 C128 1.394 . S
C127 C146 1.723 1_556 S
C128 C125 1.396 . S
C128 C127 1.394 . S
C128 C158 1.723 . S
H129 C152 0.947 . S
H130 C153 0.948 . S
H131 C159 0.982 . S
H132 C160 0.979 . S
H133 C160 0.980 . S
H134 C160 0.983 . S
H135 C159 0.979 . S
H136 C159 0.977 . S
C137 C125 1.453 . S
C137 H166 0.982 . S
C137 H167 0.979 . S
C137 H168 0.977 . S
C138 C125 1.684 . S
C138 H163 0.979 . S
C138 H164 0.980 . S
C138 H165 0.983 . S
C139 C140 1.391 . S
C139 C144 1.391 . S
C139 H169 0.948 . S
C140 C139 1.391 . S
C140 C141 1.391 . S
C141 C140 1.391 . S
C141 C142 1.392 . S
C141 H170 0.947 . S
C142 C141 1.392 . S
C142 C143 1.419 . S
C142 H171 0.948 . S
C143 C142 1.419 . S
C143 C144 1.391 . S
C143 C147 1.397 . S
C144 C139 1.391 . S
C144 C143 1.391 . S
C144 C145 1.399 . S
C145 C144 1.399 . S
C145 C146 1.396 . S
C145 C148 1.453 . S
C145 C149 1.684 . S
C146 C127 1.723 1_554 S
C146 C145 1.396 . S
C146 C147 1.394 . S
C147 C143 1.397 . S
C147 C146 1.394 . S
C147 C157 1.723 . S
C148 C145 1.453 . S
C148 H172 0.982 . S
C148 H173 0.979 . S
C148 H174 0.977 . S
C149 C145 1.684 . S
C149 H175 0.979 . S
C149 H176 0.980 . S
C149 H177 0.983 . S
C150 H126 0.948 . S
C150 C151 1.391 . S
C150 C155 1.391 . S
C151 C150 1.391 . S
C151 C152 1.391 . S
C152 H129 0.947 . S
C152 C151 1.391 . S
C152 C153 1.392 . S
C153 H130 0.948 . S
C153 C152 1.392 . S
C153 C154 1.419 . S
C154 C153 1.419 . S
C154 C155 1.391 . S
C154 C158 1.397 . S
C155 C150 1.391 . S
C155 C154 1.391 . S
C155 C156 1.399 1_556 S
C156 C155 1.399 1_554 S
C156 C157 1.396 . S
C156 C159 1.453 . S
C156 C160 1.684 . S
C157 C147 1.723 . S
C157 C156 1.396 . S
C157 C158 1.394 1_554 S
C158 C128 1.723 . S
C158 C154 1.397 . S
C158 C157 1.394 1_556 S
C159 H131 0.982 . S
C159 H135 0.979 . S
C159 H136 0.977 . S
C159 C156 1.453 . S
C160 H132 0.979 . S
C160 H133 0.980 . S
C160 H134 0.983 . S
C160 C156 1.684 . S
H161 C179 0.948 1_554 S
H162 C120 0.948 . S
H163 C138 0.979 . S
H164 C138 0.980 . S
H165 C138 0.983 . S
H166 C137 0.982 . S
H167 C137 0.979 . S
H168 C137 0.977 . S
H169 C139 0.948 . S
H170 C141 0.947 . S
H171 C142 0.948 . S
H172 C148 0.982 . S
H173 C148 0.979 . S
H174 C148 0.977 . S
H175 C149 0.979 . S
H176 C149 0.980 . S
H177 C149 0.983 . S
H178 C122 0.947 . S
C179 C122 1.392 . S
C179 C123 1.419 . S
C179 H161 0.948 1_556 S
C180 C181 1.391 . S
C180 C184 1.391 . S
C180 H222 0.948 . S
C181 C180 1.391 . S
C181 C182 1.391 . S
C182 C181 1.391 . S
C182 H238 0.947 . S
C182 C239 1.392 . S
C183 C184 1.391 . S
C183 C187 1.397 . S
C183 C239 1.419 . S
C184 C180 1.391 . S
C184 C183 1.391 . S
C184 C185 1.399 . S
C185 C184 1.399 . S
C185 C188 1.396 . S
C185 C197 1.453 . S
C185 C198 1.684 . S
H186 C210 0.948 . S
C187 C183 1.397 . S
C187 C188 1.394 . S
C187 C206 1.723 . S
C188 C185 1.396 . S
C188 C187 1.394 . S
C188 C218 1.723 . S
H189 C212 0.947 . S
H190 C213 0.948 . S
H191 C219 0.982 . S
H192 C220 0.979 . S
H193 C220 0.980 . S
H194 C220 0.983 . S
H195 C219 0.979 . S
H196 C219 0.977 . S
C197 C185 1.453 . S
C197 H226 0.982 . S
C197 H227 0.979 . S
C197 H228 0.977 . S
C198 C185 1.684 . S
C198 H223 0.979 . S
C198 H224 0.980 . S
C198 H225 0.983 . S
C199 C200 1.391 . S
C199 C204 1.391 . S
C199 H229 0.948 . S
C200 C199 1.391 . S
C200 C201 1.391 . S
C201 C200 1.391 . S
C201 C202 1.392 . S
C201 H230 0.947 . S
C202 C201 1.392 . S
C202 C203 1.419 . S
C202 H231 0.948 . S
C203 C202 1.419 . S
C203 C204 1.391 . S
C203 C207 1.397 . S
C204 C199 1.391 . S
C204 C203 1.391 . S
C204 C205 1.399 . S
C205 C204 1.399 . S
C205 C206 1.396 . S
C205 C208 1.453 . S
C205 C209 1.684 . S
C206 C187 1.723 . S
C206 C205 1.396 . S
C206 C207 1.394 . S
C207 C203 1.397 . S
C207 C206 1.394 . S
C207 C217 1.723 . S
C208 C205 1.453 . S
C208 H232 0.982 . S
C208 H233 0.979 . S
C208 H234 0.977 . S
C209 C205 1.684 . S
C209 H235 0.979 . S
C209 H236 0.980 . S
C209 H237 0.983 . S
C210 H186 0.948 . S
C210 C211 1.391 . S
C210 C215 1.391 . S
C211 C210 1.391 . S
C211 C212 1.391 . S
C212 H189 0.947 . S
C212 C211 1.391 . S
C212 C213 1.392 . S
C213 H190 0.948 . S
C213 C212 1.392 . S
C213 C214 1.419 . S
C214 C213 1.419 . S
C214 C215 1.391 . S
C214 C218 1.397 . S
C215 C210 1.391 . S
C215 C214 1.391 . S
C215 C216 1.399 . S
C216 C215 1.399 . S
C216 C217 1.396 . S
C216 C219 1.453 . S
C216 C220 1.684 . S
C217 C207 1.723 . S
C217 C216 1.396 . S
C217 C218 1.394 . S
C218 C188 1.723 . S
C218 C214 1.397 . S
C218 C217 1.394 . S
C219 H191 0.982 . S
C219 H195 0.979 . S
C219 H196 0.977 . S
C219 C216 1.453 . S
C220 H192 0.979 . S
C220 H193 0.980 . S
C220 H194 0.983 . S
C220 C216 1.684 . S
H221 C239 0.948 . S
H222 C180 0.948 . S
H223 C198 0.979 . S
H224 C198 0.980 . S
H225 C198 0.983 . S
H226 C197 0.982 . S
H227 C197 0.979 . S
H228 C197 0.977 . S
H229 C199 0.948 . S
H230 C201 0.947 . S
H231 C202 0.948 . S
H232 C208 0.982 . S
H233 C208 0.979 . S
H234 C208 0.977 . S
H235 C209 0.979 . S
H236 C209 0.980 . S
H237 C209 0.983 . S
H238 C182 0.947 . S
C239 C182 1.392 . S
C239 C183 1.419 . S
C239 H221 0.948 . S
C240 C241 1.391 . S
C240 C244 1.391 . S
C240 H282 0.948 . S
C241 C240 1.391 . S
C241 C242 1.391 . S
C242 C241 1.391 . S
C242 H298 0.947 . S
C242 C299 1.392 . S
C243 C244 1.391 . S
C243 C247 1.397 . S
C243 C299 1.419 . S
C244 C240 1.391 . S
C244 C243 1.391 . S
C244 C245 1.399 . S
C245 C244 1.399 . S
C245 C248 1.396 . S
C245 C257 1.453 . S
C245 C258 1.684 . S
H246 C270 0.948 . S
C247 C243 1.397 . S
C247 C248 1.394 . S
C247 C266 1.723 . S
C248 C245 1.396 . S
C248 C247 1.394 . S
C248 C278 1.723 . S
H249 C272 0.947 1_554 S
H250 C273 0.948 . S
H251 C279 0.982 . S
H252 C280 0.979 . S
H253 C280 0.980 . S
H254 C280 0.983 . S
H255 C279 0.979 . S
H256 C279 0.977 . S
C257 C245 1.453 . S
C257 H286 0.982 . S
C257 H287 0.979 . S
C257 H288 0.977 . S
C258 C245 1.684 . S
C258 H283 0.979 . S
C258 H284 0.980 . S
C258 H285 0.983 . S
C259 C260 1.391 . S
C259 C264 1.391 . S
C259 H289 0.948 . S
C260 C259 1.391 . S
C260 C261 1.391 . S
C261 C260 1.391 . S
C261 C262 1.392 . S
C261 H290 0.947 . S
C262 C261 1.392 . S
C262 C263 1.419 . S
C262 H291 0.948 . S
C263 C262 1.419 . S
C263 C264 1.391 . S
C263 C267 1.397 . S
C264 C259 1.391 . S
C264 C263 1.391 . S
C264 C265 1.399 1_556 S
C265 C264 1.399 1_554 S
C265 C266 1.396 . S
C265 C268 1.453 . S
C265 C269 1.684 . S
C266 C247 1.723 . S
C266 C265 1.396 . S
C266 C267 1.394 1_554 S
C267 C263 1.397 . S
C267 C266 1.394 1_556 S
C267 C277 1.723 . S
C268 C265 1.453 . S
C268 H292 0.982 . S
C268 H293 0.979 . S
C268 H294 0.977 . S
C269 C265 1.684 . S
C269 H295 0.979 . S
C269 H296 0.980 . S
C269 H297 0.983 . S
C270 H246 0.948 . S
C270 C271 1.391 . S
C270 C275 1.391 . S
C271 C270 1.391 . S
C271 C272 1.391 . S
C272 H249 0.947 1_556 S
C272 C271 1.391 . S
C272 C273 1.392 1_556 S
C273 H250 0.948 . S
C273 C272 1.392 1_554 S
C273 C274 1.419 1_554 S
C274 C273 1.419 1_556 S
C274 C275 1.391 . S
C274 C278 1.397 1_556 S
C275 C270 1.391 . S
C275 C274 1.391 . S
C275 C276 1.399 . S
C276 C275 1.399 . S
C276 C277 1.396 . S
C276 C279 1.453 . S
C276 C280 1.684 . S
C277 C267 1.723 . S
C277 C276 1.396 . S
C277 C278 1.394 1_556 S
C278 C248 1.723 . S
C278 C274 1.397 1_554 S
C278 C277 1.394 1_554 S
C279 H251 0.982 . S
C279 H255 0.979 . S
C279 H256 0.977 . S
C279 C276 1.453 . S
C280 H252 0.979 . S
C280 H253 0.980 . S
C280 H254 0.983 . S
C280 C276 1.684 . S
H281 C299 0.948 . S
H282 C240 0.948 . S
H283 C258 0.979 . S
H284 C258 0.980 . S
H285 C258 0.983 . S
H286 C257 0.982 . S
H287 C257 0.979 . S
H288 C257 0.977 . S
H289 C259 0.948 . S
H290 C261 0.947 . S
H291 C262 0.948 . S
H292 C268 0.982 . S
H293 C268 0.979 . S
H294 C268 0.977 . S
H295 C269 0.979 . S
H296 C269 0.980 . S
H297 C269 0.983 . S
H298 C242 0.947 . S
C299 C242 1.392 . S
C299 C243 1.419 . S
C299 H281 0.948 . S
C300 C301 1.391 . S
C300 C304 1.391 . S
C300 H342 0.948 . S
C301 C300 1.391 . S
C301 C302 1.391 . S
C302 C301 1.391 . S
C302 H358 0.947 . S
C302 C359 1.392 . S
C303 C304 1.391 . S
C303 C307 1.397 . S
C303 C359 1.419 . S
C304 C300 1.391 . S
C304 C303 1.391 . S
C304 C305 1.399 . S
C305 C304 1.399 . S
C305 C308 1.396 . S
C305 C317 1.453 . S
C305 C318 1.684 . S
H306 C330 0.948 . S
C307 C303 1.397 . S
C307 C308 1.394 . S
C307 C326 1.723 . S
C308 C305 1.396 . S
C308 C307 1.394 . S
C308 C338 1.723 . S
H309 C332 0.947 . S
H310 C333 0.948 . S
H311 C339 0.982 . S
H312 C340 0.979 . S
H313 C340 0.980 . S
H314 C340 0.983 . S
H315 C339 0.979 . S
H316 C339 0.977 . S
C317 C305 1.453 . S
C317 H346 0.982 . S
C317 H347 0.979 . S
C317 H348 0.977 . S
C318 C305 1.684 . S
C318 H343 0.979 . S
C318 H344 0.980 . S
C318 H345 0.983 . S
C319 C320 1.391 . S
C319 C324 1.391 . S
C319 H349 0.948 . S
C320 C319 1.391 . S
C320 C321 1.391 . S
C321 C320 1.391 . S
C321 C322 1.392 . S
C321 H350 0.947 . S
C322 C321 1.392 . S
C322 C323 1.419 . S
C322 H351 0.948 . S
C323 C322 1.419 . S
C323 C324 1.391 . S
C323 C327 1.397 . S
C324 C319 1.391 . S
C324 C323 1.391 . S
C324 C325 1.399 . S
C325 C324 1.399 . S
C325 C326 1.396 . S
C325 C328 1.453 . S
C325 C329 1.684 . S
C326 C307 1.723 . S
C326 C325 1.396 . S
C326 C327 1.394 . S
C327 C323 1.397 . S
C327 C326 1.394 . S
C327 C337 1.723 . S
C328 C325 1.453 . S
C328 H352 0.982 . S
C328 H353 0.979 . S
C328 H354 0.977 . S
C329 C325 1.684 . S
C329 H355 0.979 . S
C329 H356 0.980 . S
C329 H357 0.983 . S
C330 H306 0.948 . S
C330 C331 1.391 . S
C330 C335 1.391 . S
C331 C330 1.391 . S
C331 C332 1.391 . S
C332 H309 0.947 . S
C332 C331 1.391 . S
C332 C333 1.392 . S
C333 H310 0.948 . S
C333 C332 1.392 . S
C333 C334 1.419 . S
C334 C333 1.419 . S
C334 C335 1.391 . S
C334 C338 1.397 . S
C335 C330 1.391 . S
C335 C334 1.391 . S
C335 C336 1.399 . S
C336 C335 1.399 . S
C336 C337 1.396 . S
C336 C339 1.453 . S
C336 C340 1.684 . S
C337 C327 1.723 . S
C337 C336 1.396 . S
C337 C338 1.394 . S
C338 C308 1.723 . S
C338 C334 1.397 . S
C338 C337 1.394 . S
C339 H311 0.982 . S
C339 H315 0.979 . S
C339 H316 0.977 . S
C339 C336 1.453 . S
C340 H312 0.979 . S
C340 H313 0.980 . S
C340 H314 0.983 . S
C340 C336 1.684 . S
H341 C359 0.948 . S
H342 C300 0.948 . S
H343 C318 0.979 . S
H344 C318 0.980 . S
H345 C318 0.983 . S
H346 C317 0.982 . S
H347 C317 0.979 . S
H348 C317 0.977 . S
H349 C319 0.948 . S
H350 C321 0.947 . S
H351 C322 0.948 . S
H352 C328 0.982 . S
H353 C328 0.979 . S
H354 C328 0.977 . S
H355 C329 0.979 . S
H356 C329 0.980 . S
H357 C329 0.983 . S
H358 C302 0.947 . S
C359 C302 1.392 . S
C359 C303 1.419 . S
C359 H341 0.948 . S
C360 C361 1.391 . S
C360 C364 1.391 . S
C360 H402 0.948 . S
C361 C360 1.391 . S
C361 C362 1.391 . S
C362 C361 1.391 . S
C362 H418 0.947 1_565 S
C362 C419 1.392 . S
C363 C364 1.391 . S
C363 C367 1.397 . S
C363 C419 1.419 . S
C364 C360 1.391 . S
C364 C363 1.391 . S
C364 C365 1.399 . S
C365 C364 1.399 . S
C365 C368 1.396 . S
C365 C377 1.453 . S
C365 C378 1.684 . S
H366 C390 0.948 . S
C367 C363 1.397 . S
C367 C368 1.394 . S
C367 C386 1.723 1_556 S
C368 C365 1.396 . S
C368 C367 1.394 . S
C368 C398 1.723 . S
H369 C392 0.947 . S
H370 C393 0.948 . S
H371 C399 0.982 . S
H372 C400 0.979 . S
H373 C400 0.980 . S
H374 C400 0.983 . S
H375 C399 0.979 . S
H376 C399 0.977 . S
C377 C365 1.453 . S
C377 H406 0.982 . S
C377 H407 0.979 . S
C377 H408 0.977 . S
C378 C365 1.684 . S
C378 H403 0.979 . S
C378 H404 0.980 . S
C378 H405 0.983 . S
C379 C380 1.391 . S
C379 C384 1.391 . S
C379 H409 0.948 . S
C380 C379 1.391 . S
C380 C381 1.391 . S
C381 C380 1.391 . S
C381 C382 1.392 . S
C381 H410 0.947 . S
C382 C381 1.392 . S
C382 C383 1.419 . S
C382 H411 0.948 . S
C383 C382 1.419 . S
C383 C384 1.391 . S
C383 C387 1.397 . S
C384 C379 1.391 . S
C384 C383 1.391 . S
C384 C385 1.399 . S
C385 C384 1.399 . S
C385 C386 1.396 . S
C385 C388 1.453 . S
C385 C389 1.684 . S
C386 C367 1.723 1_554 S
C386 C385 1.396 . S
C386 C387 1.394 . S
C387 C383 1.397 . S
C387 C386 1.394 . S
C387 C397 1.723 . S
C388 C385 1.453 . S
C388 H412 0.982 . S
C388 H413 0.979 . S
C388 H414 0.977 . S
C389 C385 1.684 . S
C389 H415 0.979 . S
C389 H416 0.980 . S
C389 H417 0.983 . S
C390 H366 0.948 . S
C390 C391 1.391 . S
C390 C395 1.391 . S
C391 C390 1.391 . S
C391 C392 1.391 . S
C392 H369 0.947 . S
C392 C391 1.391 . S
C392 C393 1.392 . S
C393 H370 0.948 . S
C393 C392 1.392 . S
C393 C394 1.419 . S
C394 C393 1.419 . S
C394 C395 1.391 . S
C394 C398 1.397 . S
C395 C390 1.391 . S
C395 C394 1.391 . S
C395 C396 1.399 1_556 S
C396 C395 1.399 1_554 S
C396 C397 1.396 . S
C396 C399 1.453 . S
C396 C400 1.684 . S
C397 C387 1.723 . S
C397 C396 1.396 . S
C397 C398 1.394 1_554 S
C398 C368 1.723 . S
C398 C394 1.397 . S
C398 C397 1.394 1_556 S
C399 H371 0.982 . S
C399 H375 0.979 . S
C399 H376 0.977 . S
C399 C396 1.453 . S
C400 H372 0.979 . S
C400 H373 0.980 . S
C400 H374 0.983 . S
C400 C396 1.684 . S
H401 C419 0.948 1_554 S
H402 C360 0.948 . S
H403 C378 0.979 . S
H404 C378 0.980 . S
H405 C378 0.983 . S
H406 C377 0.982 . S
H407 C377 0.979 . S
H408 C377 0.977 . S
H409 C379 0.948 . S
H410 C381 0.947 . S
H411 C382 0.948 . S
H412 C388 0.982 . S
H413 C388 0.979 . S
H414 C388 0.977 . S
H415 C389 0.979 . S
H416 C389 0.980 . S
H417 C389 0.983 . S
H418 C362 0.947 1_545 S
C419 C362 1.392 . S
C419 C363 1.419 . S
C419 H401 0.948 1_556 S
C420 C421 1.391 . S
C420 C424 1.391 . S
C420 H462 0.948 . S
C421 C420 1.391 . S
C421 C422 1.391 . S
C422 C421 1.391 . S
C422 H478 0.947 . S
C422 C479 1.392 . S
C423 C424 1.391 . S
C423 C427 1.397 . S
C423 C479 1.419 . S
C424 C420 1.391 . S
C424 C423 1.391 . S
C424 C425 1.399 . S
C425 C424 1.399 . S
C425 C428 1.396 . S
C425 C437 1.453 . S
C425 C438 1.684 . S
H426 C450 0.948 1_565 S
C427 C423 1.397 . S
C427 C428 1.394 . S
C427 C446 1.723 . S
C428 C425 1.396 . S
C428 C427 1.394 . S
C428 C458 1.723 . S
H429 C452 0.947 . S
H430 C453 0.948 . S
H431 C459 0.982 . S
H432 C460 0.979 . S
H433 C460 0.980 . S
H434 C460 0.983 . S
H435 C459 0.979 . S
H436 C459 0.977 . S
C437 C425 1.453 . S
C437 H466 0.982 . S
C437 H467 0.979 . S
C437 H468 0.977 . S
C438 C425 1.684 . S
C438 H463 0.979 . S
C438 H464 0.980 . S
C438 H465 0.983 . S
C439 C440 1.391 . S
C439 C444 1.391 . S
C439 H469 0.948 . S
C440 C439 1.391 . S
C440 C441 1.391 . S
C441 C440 1.391 . S
C441 C442 1.392 . S
C441 H470 0.947 . S
C442 C441 1.392 . S
C442 C443 1.419 . S
C442 H471 0.948 . S
C443 C442 1.419 . S
C443 C444 1.391 . S
C443 C447 1.397 . S
C444 C439 1.391 . S
C444 C443 1.391 . S
C444 C445 1.399 . S
C445 C444 1.399 . S
C445 C446 1.396 . S
C445 C448 1.453 . S
C445 C449 1.684 . S
C446 C427 1.723 . S
C446 C445 1.396 . S
C446 C447 1.394 . S
C447 C443 1.397 . S
C447 C446 1.394 . S
C447 C457 1.723 . S
C448 C445 1.453 . S
C448 H472 0.982 . S
C448 H473 0.979 . S
C448 H474 0.977 . S
C449 C445 1.684 . S
C449 H475 0.979 . S
C449 H476 0.980 . S
C449 H477 0.983 . S
C450 H426 0.948 1_545 S
C450 C451 1.391 . S
C450 C455 1.391 . S
C451 C450 1.391 . S
C451 C452 1.391 . S
C452 H429 0.947 . S
C452 C451 1.391 . S
C452 C453 1.392 . S
C453 H430 0.948 . S
C453 C452 1.392 . S
C453 C454 1.419 . S
C454 C453 1.419 . S
C454 C455 1.391 . S
C454 C458 1.397 . S
C455 C450 1.391 . S
C455 C454 1.391 . S
C455 C456 1.399 . S
C456 C455 1.399 . S
C456 C457 1.396 . S
C456 C459 1.453 . S
C456 C460 1.684 . S
C457 C447 1.723 . S
C457 C456 1.396 . S
C457 C458 1.394 . S
C458 C428 1.723 . S
C458 C454 1.397 . S
C458 C457 1.394 . S
C459 H431 0.982 . S
C459 H435 0.979 . S
C459 H436 0.977 . S
C459 C456 1.453 . S
C460 H432 0.979 . S
C460 H433 0.980 . S
C460 H434 0.983 . S
C460 C456 1.684 . S
H461 C479 0.948 . S
H462 C420 0.948 . S
H463 C438 0.979 . S
H464 C438 0.980 . S
H465 C438 0.983 . S
H466 C437 0.982 . S
H467 C437 0.979 . S
H468 C437 0.977 . S
H469 C439 0.948 . S
H470 C441 0.947 . S
H471 C442 0.948 . S
H472 C448 0.982 . S
H473 C448 0.979 . S
H474 C448 0.977 . S
H475 C449 0.979 . S
H476 C449 0.980 . S
H477 C449 0.983 . S
H478 C422 0.947 . S
C479 C422 1.392 . S
C479 C423 1.419 . S
C479 H461 0.948 . S
Fe480 O482 1.918 . S
Fe480 O485 1.997 1_455 S
Fe480 O486 2.002 1_455 S
Fe480 O491 1.976 . S
Fe480 O494 1.996 . S
Fe481 O482 1.918 . S
Fe481 O489 1.997 1_455 S
Fe481 O492 1.996 . S
Fe481 O496 1.976 . S
Fe481 O499 2.002 1_455 S
O482 Fe480 1.918 . S
O482 Fe481 1.918 . S
O482 Fe483 1.918 . S
Fe483 O482 1.918 . S
Fe483 O484 2.002 1_455 S
Fe483 O493 1.976 . S
Fe483 O497 1.996 . S
Fe483 O500 1.997 1_455 S
O484 Fe483 2.002 1_655 S
O484 C501 1.295 . S
O485 Fe480 1.997 1_655 S
O485 C501 1.235 . S
O486 Fe480 2.002 1_655 S
O486 C487 1.295 . S
C487 O486 1.295 . S
C487 O489 1.235 . S
C488 O493 1.287 . S
C488 O494 1.255 . S
O489 Fe481 1.997 1_655 S
O489 C487 1.235 . S
C490 O496 1.287 . S
C490 O497 1.255 . S
O491 Fe480 1.976 . S
O491 C498 1.287 . S
O492 Fe481 1.996 . S
O492 C498 1.255 . S
O493 Fe483 1.976 . S
O493 C488 1.287 . S
O494 Fe480 1.996 . S
O494 C488 1.255 . S
C495 O499 1.295 . S
C495 O500 1.235 . S
O496 Fe481 1.976 . S
O496 C490 1.287 . S
O497 Fe483 1.996 . S
O497 C490 1.255 . S
C498 O491 1.287 . S
C498 O492 1.255 . S
O499 Fe481 2.002 1_655 S
O499 C495 1.295 . S
O500 Fe483 1.997 1_655 S
O500 C495 1.235 . S
C501 O484 1.295 . S
C501 O485 1.235 . S
Fe502 O504 1.919 . S
Fe502 O507 1.972 1_655 S
Fe502 O508 1.977 1_655 S
Fe502 O513 2.000 . S
Fe502 O516 2.020 . S
Fe503 O504 1.919 . S
Fe503 O511 1.972 1_655 S
Fe503 O514 2.020 . S
Fe503 O518 2.000 . S
Fe503 O521 1.978 1_655 S
O504 Fe502 1.919 . S
O504 Fe503 1.919 . S
O504 Fe505 1.919 . S
Fe505 O504 1.919 . S
Fe505 O506 1.978 1_655 S
Fe505 O515 2.000 . S
Fe505 O519 2.019 . S
Fe505 O522 1.973 1_655 S
O506 Fe505 1.978 1_455 S
O506 C523 1.295 . S
O507 Fe502 1.972 1_455 S
O507 C523 1.235 . S
O508 Fe502 1.977 1_455 S
O508 C509 1.295 . S
C509 O508 1.295 . S
C509 O511 1.235 . S
C510 O515 1.287 . S
C510 O516 1.255 . S
O511 Fe503 1.972 1_455 S
O511 C509 1.235 . S
C512 O518 1.287 . S
C512 O519 1.255 . S
O513 Fe502 2.000 . S
O513 C520 1.287 . S
O514 Fe503 2.020 . S
O514 C520 1.255 . S
O515 Fe505 2.000 . S
O515 C510 1.287 . S
O516 Fe502 2.020 . S
O516 C510 1.255 . S
C517 O521 1.295 . S
C517 O522 1.235 . S
O518 Fe503 2.000 . S
O518 C512 1.287 . S
O519 Fe505 2.019 . S
O519 C512 1.255 . S
C520 O513 1.287 . S
C520 O514 1.255 . S
O521 Fe503 1.978 1_455 S
O521 C517 1.295 . S
O522 Fe505 1.973 1_455 S
O522 C517 1.235 . S
C523 O506 1.295 . S
C523 O507 1.235 . S
Fe524 O526 1.918 . S
Fe524 O529 1.997 . S
Fe524 O530 2.002 . S
Fe524 O535 1.976 . S
Fe524 O538 1.996 . S
Fe525 O526 1.918 . S
Fe525 O533 1.997 . S
Fe525 O536 1.996 . S
Fe525 O540 1.976 . S
Fe525 O543 2.002 . S
O526 Fe524 1.918 . S
O526 Fe525 1.918 . S
O526 Fe527 1.918 . S
Fe527 O526 1.918 . S
Fe527 O528 2.002 . S
Fe527 O537 1.976 . S
Fe527 O541 1.996 . S
Fe527 O544 1.997 . S
O528 Fe527 2.002 . S
O528 C545 1.295 . S
O529 Fe524 1.997 . S
O529 C545 1.235 . S
O530 Fe524 2.002 . S
O530 C531 1.295 . S
C531 O530 1.295 . S
C531 O533 1.235 . S
C532 O537 1.287 . S
C532 O538 1.255 . S
O533 Fe525 1.997 . S
O533 C531 1.235 . S
C534 O540 1.287 . S
C534 O541 1.255 . S
O535 Fe524 1.976 . S
O535 C542 1.287 . S
O536 Fe525 1.996 . S
O536 C542 1.255 . S
O537 Fe527 1.976 . S
O537 C532 1.287 . S
O538 Fe524 1.996 . S
O538 C532 1.255 . S
C539 O543 1.295 . S
C539 O544 1.235 . S
O540 Fe525 1.976 . S
O540 C534 1.287 . S
O541 Fe527 1.996 . S
O541 C534 1.255 . S
C542 O535 1.287 . S
C542 O536 1.255 . S
O543 Fe525 2.002 . S
O543 C539 1.295 . S
O544 Fe527 1.997 . S
O544 C539 1.235 . S
C545 O528 1.295 . S
C545 O529 1.235 . S
Fe546 O548 1.918 . S
Fe546 O551 1.997 . S
Fe546 O552 2.002 . S
Fe546 O557 1.976 . S
Fe546 O560 1.996 . S
Fe547 O548 1.918 . S
Fe547 O555 1.997 . S
Fe547 O558 1.996 . S
Fe547 O562 1.976 . S
Fe547 O565 2.002 . S
O548 Fe546 1.918 . S
O548 Fe547 1.918 . S
O548 Fe549 1.918 . S
Fe549 O548 1.918 . S
Fe549 O550 2.002 . S
Fe549 O559 1.976 . S
Fe549 O563 1.996 . S
Fe549 O566 1.997 . S
O550 Fe549 2.002 . S
O550 C567 1.295 . S
O551 Fe546 1.997 . S
O551 C567 1.235 . S
O552 Fe546 2.002 . S
O552 C553 1.295 . S
C553 O552 1.295 . S
C553 O555 1.235 . S
C554 O559 1.287 . S
C554 O560 1.255 . S
O555 Fe547 1.997 . S
O555 C553 1.235 . S
C556 O562 1.287 . S
C556 O563 1.255 . S
O557 Fe546 1.976 . S
O557 C564 1.287 . S
O558 Fe547 1.996 . S
O558 C564 1.255 . S
O559 Fe549 1.976 . S
O559 C554 1.287 . S
O560 Fe546 1.996 . S
O560 C554 1.255 . S
C561 O565 1.295 . S
C561 O566 1.235 . S
O562 Fe547 1.976 . S
O562 C556 1.287 . S
O563 Fe549 1.996 . S
O563 C556 1.255 . S
C564 O557 1.287 . S
C564 O558 1.255 . S
O565 Fe547 2.002 . S
O565 C561 1.295 . S
O566 Fe549 1.997 . S
O566 C561 1.235 . S
C567 O550 1.295 . S
C567 O551 1.235 . S
H568 C574 0.930 . S
H569 C577 0.930 . S
H570 C578 0.930 . S
H571 C579 0.930 . S
H572 C582 0.930 . S
H573 C583 0.930 . S
C574 H568 0.930 . S
C574 C575 1.355 . S
C574 C576 1.415 . S
C575 C574 1.355 . S
C575 C577 1.419 . S
C576 C574 1.415 . S
C576 C581 1.425 . S
C576 C583 1.409 . S
C577 H569 0.930 . S
C577 C575 1.419 . S
C577 C578 1.362 . S
C578 H570 0.930 . S
C578 C577 1.362 . S
C578 C581 1.409 . S
C579 H571 0.930 . S
C579 C580 1.355 . S
C579 C581 1.415 . S
C580 C579 1.355 . S
C580 C582 1.419 . S
C581 C576 1.425 . S
C581 C578 1.409 . S
C581 C579 1.415 . S
C582 H572 0.930 . S
C582 C580 1.419 . S
C582 C583 1.362 . S
C583 H573 0.930 . S
C583 C576 1.409 . S
C583 C582 1.362 . S
H584 C590 0.930 . S
H585 C593 0.930 . S
H586 C594 0.930 . S
H587 C595 0.930 . S
H588 C598 0.930 . S
H589 C599 0.930 . S
C590 H584 0.930 . S
C590 C591 1.355 . S
C590 C592 1.415 . S
C591 C590 1.355 . S
C591 C593 1.419 . S
C592 C590 1.415 . S
C592 C597 1.425 . S
C592 C599 1.409 . S
C593 H585 0.930 . S
C593 C591 1.419 . S
C593 C594 1.362 . S
C594 H586 0.930 . S
C594 C593 1.362 . S
C594 C597 1.409 . S
C595 H587 0.930 . S
C595 C596 1.355 . S
C595 C597 1.415 . S
C596 C595 1.355 . S
C596 C598 1.419 . S
C597 C592 1.425 . S
C597 C594 1.409 . S
C597 C595 1.415 . S
C598 H588 0.930 . S
C598 C596 1.419 . S
C598 C599 1.362 . S
C599 H589 0.930 . S
C599 C592 1.409 . S
C599 C598 1.362 . S
H600 C606 0.930 . S
H601 C609 0.930 . S
H602 C610 0.930 . S
H603 C611 0.930 . S
H604 C614 0.930 . S
H605 C615 0.930 . S
C606 H600 0.930 . S
C606 C607 1.355 . S
C606 C608 1.415 . S
C607 C606 1.355 . S
C607 C609 1.419 . S
C608 C606 1.415 . S
C608 C613 1.425 . S
C608 C615 1.409 . S
C609 H601 0.930 . S
C609 C607 1.419 . S
C609 C610 1.362 . S
C610 H602 0.930 . S
C610 C609 1.362 . S
C610 C613 1.409 . S
C611 H603 0.930 . S
C611 C612 1.355 . S
C611 C613 1.415 . S
C612 C611 1.355 . S
C612 C614 1.419 . S
C613 C608 1.425 . S
C613 C610 1.409 . S
C613 C611 1.415 . S
C614 H604 0.930 . S
C614 C612 1.419 . S
C614 C615 1.362 . S
C615 H605 0.930 . S
C615 C608 1.409 . S
C615 C614 1.362 . S
H616 C622 0.930 . S
H617 C625 0.930 . S
H618 C626 0.930 . S
H619 C627 0.930 . S
H620 C630 0.930 . S
H621 C631 0.930 . S
C622 H616 0.930 . S
C622 C623 1.355 . S
C622 C624 1.415 . S
C623 C622 1.355 . S
C623 C625 1.419 . S
C624 C622 1.415 . S
C624 C629 1.425 . S
C624 C631 1.409 . S
C625 H617 0.930 . S
C625 C623 1.419 . S
C625 C626 1.362 . S
C626 H618 0.930 . S
C626 C625 1.362 . S
C626 C629 1.409 . S
C627 H619 0.930 . S
C627 C628 1.355 . S
C627 C629 1.415 . S
C628 C627 1.355 . S
C628 C630 1.419 . S
C629 C624 1.425 . S
C629 C626 1.409 . S
C629 C627 1.415 . S
C630 H620 0.930 . S
C630 C628 1.419 . S
C630 C631 1.362 . S
C631 H621 0.930 . S
C631 C624 1.409 . S
C631 C630 1.362 . S
H632 C638 0.930 . S
H633 C641 0.930 . S
H634 C642 0.930 . S
H635 C643 0.930 . S
H636 C646 0.930 . S
H637 C647 0.930 . S
C638 H632 0.930 . S
C638 C639 1.355 . S
C638 C640 1.415 . S
C639 C638 1.355 . S
C639 C641 1.419 . S
C640 C638 1.415 . S
C640 C645 1.425 . S
C640 C647 1.409 . S
C641 H633 0.930 . S
C641 C639 1.419 . S
C641 C642 1.362 . S
C642 H634 0.930 . S
C642 C641 1.362 . S
C642 C645 1.409 . S
C643 H635 0.930 . S
C643 C644 1.355 . S
C643 C645 1.415 . S
C644 C643 1.355 . S
C644 C646 1.419 . S
C645 C640 1.425 . S
C645 C642 1.409 . S
C645 C643 1.415 . S
C646 H636 0.930 . S
C646 C644 1.419 . S
C646 C647 1.362 . S
C647 H637 0.930 . S
C647 C640 1.409 . S
C647 C646 1.362 . S
H648 C654 0.930 . S
H649 C657 0.930 . S
H650 C658 0.930 . S
H651 C659 0.930 . S
H652 C662 0.930 . S
H653 C663 0.930 . S
C654 H648 0.930 . S
C654 C655 1.355 . S
C654 C656 1.415 . S
C655 C654 1.355 . S
C655 C657 1.419 . S
C656 C654 1.415 . S
C656 C661 1.425 . S
C656 C663 1.409 . S
C657 H649 0.930 . S
C657 C655 1.419 . S
C657 C658 1.362 . S
C658 H650 0.930 . S
C658 C657 1.362 . S
C658 C661 1.409 . S
C659 H651 0.930 . S
C659 C660 1.355 . S
C659 C661 1.415 . S
C660 C659 1.355 . S
C660 C662 1.419 . S
C661 C656 1.425 . S
C661 C658 1.409 . S
C661 C659 1.415 . S
C662 H652 0.930 . S
C662 C660 1.419 . S
C662 C663 1.362 . S
C663 H653 0.930 . S
C663 C656 1.409 . S
C663 C662 1.362 . S
H664 C670 0.930 . S
H665 C673 0.930 . S
H666 C674 0.930 . S
H667 C675 0.930 . S
H668 C678 0.930 . S
H669 C679 0.930 . S
C670 H664 0.930 . S
C670 C671 1.355 . S
C670 C672 1.415 . S
C671 C670 1.355 . S
C671 C673 1.419 . S
C672 C670 1.415 . S
C672 C677 1.425 . S
C672 C679 1.409 . S
C673 H665 0.930 . S
C673 C671 1.419 . S
C673 C674 1.362 . S
C674 H666 0.930 . S
C674 C673 1.362 . S
C674 C677 1.409 . S
C675 H667 0.930 . S
C675 C676 1.355 . S
C675 C677 1.415 . S
C676 C675 1.355 . S
C676 C678 1.419 . S
C677 C672 1.425 . S
C677 C674 1.409 . S
C677 C675 1.415 . S
C678 H668 0.930 . S
C678 C676 1.419 . S
C678 C679 1.362 . S
C679 H669 0.930 . S
C679 C672 1.409 . S
C679 C678 1.362 . S
H680 C686 0.930 . S
H681 C689 0.930 . S
H682 C690 0.930 . S
H683 C691 0.930 . S
H684 C694 0.930 . S
H685 C695 0.930 . S
C686 H680 0.930 . S
C686 C687 1.355 . S
C686 C688 1.415 . S
C687 C686 1.355 . S
C687 C689 1.419 . S
C688 C686 1.415 . S
C688 C693 1.425 . S
C688 C695 1.409 . S
C689 H681 0.930 . S
C689 C687 1.419 . S
C689 C690 1.362 . S
C690 H682 0.930 . S
C690 C689 1.362 . S
C690 C693 1.409 . S
C691 H683 0.930 . S
C691 C692 1.355 . S
C691 C693 1.415 . S
C692 C691 1.355 . S
C692 C694 1.419 . S
C693 C688 1.425 . S
C693 C690 1.409 . S
C693 C691 1.415 . S
C694 H684 0.930 . S
C694 C692 1.419 . S
C694 C695 1.362 . S
C695 H685 0.930 . S
C695 C688 1.409 . S
C695 C694 1.362 . S
H696 C702 0.930 . S
H697 C705 0.930 . S
H698 C706 0.930 . S
H699 C707 0.930 . S
H700 C710 0.930 . S
H701 C711 0.930 . S
C702 H696 0.930 . S
C702 C703 1.355 . S
C702 C704 1.415 . S
C703 C702 1.355 . S
C703 C705 1.419 . S
C704 C702 1.415 . S
C704 C709 1.425 . S
C704 C711 1.409 . S
C705 H697 0.930 . S
C705 C703 1.419 . S
C705 C706 1.362 . S
C706 H698 0.930 . S
C706 C705 1.362 . S
C706 C709 1.409 . S
C707 H699 0.930 . S
C707 C708 1.355 . S
C707 C709 1.415 . S
C708 C707 1.355 . S
C708 C710 1.419 . S
C709 C704 1.425 . S
C709 C706 1.409 . S
C709 C707 1.415 . S
C710 H700 0.930 . S
C710 C708 1.419 . S
C710 C711 1.362 . S
C711 H701 0.930 . S
C711 C704 1.409 . S
C711 C710 1.362 . S
H712 C718 0.930 . S
H713 C721 0.930 . S
H714 C722 0.930 . S
H715 C723 0.930 . S
H716 C726 0.930 . S
H717 C727 0.930 . S
C718 H712 0.930 . S
C718 C719 1.355 . S
C718 C720 1.415 . S
C719 C718 1.355 . S
C719 C721 1.419 . S
C720 C718 1.415 . S
C720 C725 1.425 . S
C720 C727 1.409 . S
C721 H713 0.930 . S
C721 C719 1.419 . S
C721 C722 1.362 . S
C722 H714 0.930 . S
C722 C721 1.362 . S
C722 C725 1.409 . S
C723 H715 0.930 . S
C723 C724 1.355 . S
C723 C725 1.415 . S
C724 C723 1.355 . S
C724 C726 1.419 . S
C725 C720 1.425 . S
C725 C722 1.409 . S
C725 C723 1.415 . S
C726 H716 0.930 . S
C726 C724 1.419 . S
C726 C727 1.362 . S
C727 H717 0.930 . S
C727 C720 1.409 . S
C727 C726 1.362 . S
H728 C734 0.930 . S
H729 C737 0.930 . S
H730 C738 0.930 . S
H731 C739 0.930 . S
H732 C742 0.930 . S
H733 C743 0.930 . S
C734 H728 0.930 . S
C734 C735 1.355 . S
C734 C736 1.415 . S
C735 C734 1.355 . S
C735 C737 1.419 . S
C736 C734 1.415 . S
C736 C741 1.425 . S
C736 C743 1.409 . S
C737 H729 0.930 . S
C737 C735 1.419 . S
C737 C738 1.362 . S
C738 H730 0.930 . S
C738 C737 1.362 . S
C738 C741 1.409 . S
C739 H731 0.930 . S
C739 C740 1.355 . S
C739 C741 1.415 . S
C740 C739 1.355 . S
C740 C742 1.419 . S
C741 C736 1.425 . S
C741 C738 1.409 . S
C741 C739 1.415 . S
C742 H732 0.930 . S
C742 C740 1.419 . S
C742 C743 1.362 . S
C743 H733 0.930 . S
C743 C736 1.409 . S
C743 C742 1.362 . S
H744 C750 0.930 . S
H745 C753 0.930 . S
H746 C754 0.930 . S
H747 C755 0.930 . S
H748 C758 0.930 . S
H749 C759 0.930 . S
C750 H744 0.930 . S
C750 C751 1.355 . S
C750 C752 1.415 . S
C751 C750 1.355 . S
C751 C753 1.419 . S
C752 C750 1.415 . S
C752 C757 1.425 . S
C752 C759 1.409 . S
C753 H745 0.930 . S
C753 C751 1.419 . S
C753 C754 1.362 . S
C754 H746 0.930 . S
C754 C753 1.362 . S
C754 C757 1.409 . S
C755 H747 0.930 . S
C755 C756 1.355 . S
C755 C757 1.415 . S
C756 C755 1.355 . S
C756 C758 1.419 . S
C757 C752 1.425 . S
C757 C754 1.409 . S
C757 C755 1.415 . S
C758 H748 0.930 . S
C758 C756 1.419 . S
C758 C759 1.362 . S
C759 H749 0.930 . S
C759 C752 1.409 . S
C759 C758 1.362 . S
H760 C766 0.930 1_565 S
H761 C769 0.930 . S
H762 C770 0.930 . S
H763 C771 0.930 . S
H764 C774 0.930 . S
H765 C775 0.930 . S
C766 H760 0.930 1_545 S
C766 C767 1.355 . S
C766 C768 1.415 . S
C767 C766 1.355 . S
C767 C769 1.419 . S
C768 C766 1.415 . S
C768 C773 1.425 . S
C768 C775 1.409 . S
C769 H761 0.930 . S
C769 C767 1.419 . S
C769 C770 1.362 . S
C770 H762 0.930 . S
C770 C769 1.362 . S
C770 C773 1.409 . S
C771 H763 0.930 . S
C771 C772 1.355 . S
C771 C773 1.415 . S
C772 C771 1.355 . S
C772 C774 1.419 . S
C773 C768 1.425 . S
C773 C770 1.409 . S
C773 C771 1.415 . S
C774 H764 0.930 . S
C774 C772 1.419 . S
C774 C775 1.362 . S
C775 H765 0.930 . S
C775 C768 1.409 . S
C775 C774 1.362 . S
H776 C782 0.929 . S
H777 C785 0.930 . S
H778 C786 0.930 . S
H779 C787 0.930 . S
H780 C790 0.930 . S
H781 C791 0.930 . S
C782 H776 0.929 . S
C782 C783 1.355 . S
C782 C784 1.415 . S
C783 C782 1.355 . S
C783 C785 1.419 . S
C784 C782 1.415 . S
C784 C789 1.425 . S
C784 C791 1.409 . S
C785 H777 0.930 . S
C785 C783 1.419 . S
C785 C786 1.362 . S
C786 H778 0.930 . S
C786 C785 1.362 . S
C786 C789 1.409 . S
C787 H779 0.930 . S
C787 C788 1.355 . S
C787 C789 1.415 . S
C788 C787 1.355 . S
C788 C790 1.419 . S
C789 C784 1.425 . S
C789 C786 1.409 . S
C789 C787 1.415 . S
C790 H780 0.930 . S
C790 C788 1.419 . S
C790 C791 1.362 . S
C791 H781 0.930 . S
C791 C784 1.409 . S
C791 C790 1.362 . S
H792 C798 0.930 . S
H793 C801 0.930 1_565 S
H794 C802 0.930 . S
H795 C803 0.930 . S
H796 C806 0.930 . S
H797 C807 0.930 . S
C798 H792 0.930 . S
C798 C799 1.355 . S
C798 C800 1.415 . S
C799 C798 1.355 . S
C799 C801 1.419 . S
C800 C798 1.415 . S
C800 C805 1.425 . S
C800 C807 1.409 . S
C801 H793 0.930 1_545 S
C801 C799 1.419 . S
C801 C802 1.362 . S
C802 H794 0.930 . S
C802 C801 1.362 . S
C802 C805 1.409 . S
C803 H795 0.930 . S
C803 C804 1.355 . S
C803 C805 1.415 . S
C804 C803 1.355 . S
C804 C806 1.419 . S
C805 C800 1.425 . S
C805 C802 1.409 . S
C805 C803 1.415 . S
C806 H796 0.930 . S
C806 C804 1.419 . S
C806 C807 1.362 . S
C807 H797 0.930 . S
C807 C800 1.409 . S
C807 C806 1.362 . S
H808 C814 0.930 . S
H809 C817 0.930 . S
H810 C818 0.930 . S
H811 C819 0.930 . S
H812 C822 0.930 . S
H813 C823 0.930 . S
C814 H808 0.930 . S
C814 C815 1.355 . S
C814 C816 1.415 . S
C815 C814 1.355 . S
C815 C817 1.419 . S
C816 C814 1.415 . S
C816 C821 1.425 . S
C816 C823 1.409 . S
C817 H809 0.930 . S
C817 C815 1.419 . S
C817 C818 1.362 . S
C818 H810 0.930 . S
C818 C817 1.362 . S
C818 C821 1.409 . S
C819 H811 0.930 . S
C819 C820 1.355 . S
C819 C821 1.415 . S
C820 C819 1.355 . S
C820 C822 1.419 . S
C821 C816 1.425 . S
C821 C818 1.409 . S
C821 C819 1.415 . S
C822 H812 0.930 . S
C822 C820 1.419 . S
C822 C823 1.362 . S
C823 H813 0.930 . S
C823 C816 1.409 . S
C823 C822 1.362 . S
H824 C830 0.930 . S
H825 C833 0.930 . S
H826 C834 0.930 . S
H827 C835 0.930 . S
H828 C838 0.930 . S
H829 C839 0.930 . S
C830 H824 0.930 . S
C830 C831 1.355 . S
C830 C832 1.415 . S
C831 C830 1.355 . S
C831 C833 1.419 . S
C832 C830 1.415 . S
C832 C837 1.425 . S
C832 C839 1.409 . S
C833 H825 0.930 . S
C833 C831 1.419 . S
C833 C834 1.362 . S
C834 H826 0.930 . S
C834 C833 1.362 . S
C834 C837 1.409 . S
C835 H827 0.930 . S
C835 C836 1.355 . S
C835 C837 1.415 . S
C836 C835 1.355 . S
C836 C838 1.419 . S
C837 C832 1.425 . S
C837 C834 1.409 . S
C837 C835 1.415 . S
C838 H828 0.930 . S
C838 C836 1.419 . S
C838 C839 1.362 . S
C839 H829 0.930 . S
C839 C832 1.409 . S
C839 C838 1.362 . S
H840 C846 0.930 . S
H841 C849 0.930 . S
H842 C850 0.930 . S
H843 C851 0.930 . S
H844 C854 0.930 . S
H845 C855 0.930 . S
C846 H840 0.930 . S
C846 C847 1.355 . S
C846 C848 1.415 . S
C847 C846 1.355 . S
C847 C849 1.419 . S
C848 C846 1.415 . S
C848 C853 1.425 . S
C848 C855 1.409 . S
C849 H841 0.930 . S
C849 C847 1.419 . S
C849 C850 1.362 . S
C850 H842 0.930 . S
C850 C849 1.362 . S
C850 C853 1.409 . S
C851 H843 0.930 . S
C851 C852 1.355 . S
C851 C853 1.415 . S
C852 C851 1.355 . S
C852 C854 1.419 . S
C853 C848 1.425 . S
C853 C850 1.409 . S
C853 C851 1.415 . S
C854 H844 0.930 . S
C854 C852 1.419 . S
C854 C855 1.362 . S
C855 H845 0.930 . S
C855 C848 1.409 . S
C855 C854 1.362 . S
H856 C862 0.930 . S
H857 C865 0.930 . S
H858 C866 0.930 . S
H859 C867 0.930 . S
H860 C870 0.930 . S
H861 C871 0.930 . S
C862 H856 0.930 . S
C862 C863 1.355 . S
C862 C864 1.415 . S
C863 C862 1.355 . S
C863 C865 1.419 . S
C864 C862 1.415 . S
C864 C869 1.425 . S
C864 C871 1.409 . S
C865 H857 0.930 . S
C865 C863 1.419 . S
C865 C866 1.362 . S
C866 H858 0.930 . S
C866 C865 1.362 . S
C866 C869 1.409 . S
C867 H859 0.930 . S
C867 C868 1.355 . S
C867 C869 1.415 . S
C868 C867 1.355 . S
C868 C870 1.419 . S
C869 C864 1.425 . S
C869 C866 1.409 . S
C869 C867 1.415 . S
C870 H860 0.930 . S
C870 C868 1.419 . S
C870 C871 1.362 . S
C871 H861 0.930 . S
C871 C864 1.409 . S
C871 C870 1.362 . S
H872 C878 0.930 . S
H873 C881 0.930 . S
H874 C882 0.930 . S
H875 C883 0.930 . S
H876 C886 0.930 . S
H877 C887 0.930 . S
C878 H872 0.930 . S
C878 C879 1.355 . S
C878 C880 1.415 . S
C879 C878 1.355 . S
C879 C881 1.419 . S
C880 C878 1.415 . S
C880 C885 1.425 . S
C880 C887 1.409 . S
C881 H873 0.930 . S
C881 C879 1.419 . S
C881 C882 1.362 . S
C882 H874 0.930 . S
C882 C881 1.362 . S
C882 C885 1.409 . S
C883 H875 0.930 . S
C883 C884 1.355 . S
C883 C885 1.415 . S
C884 C883 1.355 . S
C884 C886 1.419 . S
C885 C880 1.425 . S
C885 C882 1.409 . S
C885 C883 1.415 . S
C886 H876 0.930 . S
C886 C884 1.419 . S
C886 C887 1.362 . S
C887 H877 0.930 . S
C887 C880 1.409 . S
C887 C886 1.362 . S
H888 C894 0.930 . S
H889 C897 0.930 . S
H890 C898 0.930 . S
H891 C899 0.930 . S
H892 C902 0.930 . S
H893 C903 0.930 . S
C894 H888 0.930 . S
C894 C895 1.355 . S
C894 C896 1.415 . S
C895 C894 1.355 . S
C895 C897 1.419 . S
C896 C894 1.415 . S
C896 C901 1.425 . S
C896 C903 1.409 . S
C897 H889 0.930 . S
C897 C895 1.419 . S
C897 C898 1.362 . S
C898 H890 0.930 . S
C898 C897 1.362 . S
C898 C901 1.409 . S
C899 H891 0.930 . S
C899 C900 1.355 . S
C899 C901 1.415 . S
C900 C899 1.355 . S
C900 C902 1.419 . S
C901 C896 1.425 . S
C901 C898 1.409 . S
C901 C899 1.415 . S
C902 H892 0.930 . S
C902 C900 1.419 . S
C902 C903 1.362 . S
C903 H893 0.930 . S
C903 C896 1.409 . S
C903 C902 1.362 . S
H904 C910 0.930 . S
H905 C913 0.930 . S
H906 C914 0.930 . S
H907 C915 0.930 . S
H908 C918 0.930 . S
H909 C919 0.930 . S
C910 H904 0.930 . S
C910 C911 1.355 . S
C910 C912 1.415 . S
C911 C910 1.355 . S
C911 C913 1.419 . S
C912 C910 1.415 . S
C912 C917 1.425 . S
C912 C919 1.409 . S
C913 H905 0.930 . S
C913 C911 1.419 . S
C913 C914 1.362 . S
C914 H906 0.930 . S
C914 C913 1.362 . S
C914 C917 1.409 . S
C915 H907 0.930 . S
C915 C916 1.355 . S
C915 C917 1.415 . S
C916 C915 1.355 . S
C916 C918 1.419 . S
C917 C912 1.425 . S
C917 C914 1.409 . S
C917 C915 1.415 . S
C918 H908 0.930 . S
C918 C916 1.419 . S
C918 C919 1.362 . S
C919 H909 0.930 . S
C919 C912 1.409 . S
C919 C918 1.362 . S
H920 C926 0.930 . S
H921 C929 0.930 . S
H922 C930 0.930 . S
H923 C931 0.930 . S
H924 C934 0.930 . S
H925 C935 0.930 . S
C926 H920 0.930 . S
C926 C927 1.355 . S
C926 C928 1.415 . S
C927 C926 1.355 . S
C927 C929 1.419 . S
C928 C926 1.415 . S
C928 C933 1.425 . S
C928 C935 1.409 . S
C929 H921 0.930 . S
C929 C927 1.419 . S
C929 C930 1.362 . S
C930 H922 0.930 . S
C930 C929 1.362 . S
C930 C933 1.409 . S
C931 H923 0.930 . S
C931 C932 1.355 . S
C931 C933 1.415 . S
C932 C931 1.355 . S
C932 C934 1.419 . S
C933 C928 1.425 . S
C933 C930 1.409 . S
C933 C931 1.415 . S
C934 H924 0.930 . S
C934 C932 1.419 . S
C934 C935 1.362 . S
C935 H925 0.930 . S
C935 C928 1.409 . S
C935 C934 1.362 . S
H936 C942 0.930 . S
H937 C945 0.930 . S
H938 C946 0.930 . S
H939 C947 0.930 . S
H940 C950 0.930 . S
H941 C951 0.930 . S
C942 H936 0.930 . S
C942 C943 1.355 . S
C942 C944 1.415 . S
C943 C942 1.355 . S
C943 C945 1.419 . S
C944 C942 1.415 . S
C944 C949 1.425 . S
C944 C951 1.409 . S
C945 H937 0.930 . S
C945 C943 1.419 . S
C945 C946 1.362 . S
C946 H938 0.930 . S
C946 C945 1.362 . S
C946 C949 1.409 . S
C947 H939 0.930 . S
C947 C948 1.355 . S
C947 C949 1.415 . S
C948 C947 1.355 . S
C948 C950 1.419 . S
C949 C944 1.425 . S
C949 C946 1.409 . S
C949 C947 1.415 . S
C950 H940 0.930 . S
C950 C948 1.419 . S
C950 C951 1.362 . S
C951 H941 0.930 . S
C951 C944 1.409 . S
C951 C950 1.362 . S
C575 C31 1.489 . S
C580 C523 1.512 . S
C596 C487 1.560 . S
C591 C61 1.551 . S
C612 C510 1.511 . S
C607 C151 1.443 . S
C628 C498 1.551 . S
C623 C181 1.530 . S
C644 C567 1.512 . S
C639 C271 1.489 . S
C660 C531 1.558 . S
C655 C301 1.551 . S
C671 C391 1.519 . S
C676 C554 1.551 . S
C692 C542 1.549 . S
C687 C421 1.524 . S
C703 C20 1.506 . S
C708 C564 1.540 . S
C724 C534 1.539 . S
C719 C91 1.535 . S
C735 C121 1.441 . S
C740 C553 1.574 . S
C751 C211 1.570 . S
C756 C539 1.580 . S
C772 C520 1.538 . S
C767 C260 1.530 1_545 S
C783 C331 1.534 1_565 S
C788 C490 1.539 . S
C804 C509 1.575 . S
C799 C361 1.455 1_545 S
C820 C495 1.561 . S
C815 C451 1.575 1_565 S
C836 C545 1.556 . S
C831 C1 1.414 . S
C852 C561 1.560 . S
C847 C80 1.409 . S
C863 C140 1.448 . S
C868 C532 1.521 . S
C884 C556 1.533 . S
C879 C200 1.440 . S
C900 C501 1.535 . S
C895 C241 1.487 . S
C911 C320 1.449 . S
C916 C517 1.543 . S
C927 C380 1.467 . S
C932 C488 1.518 . S
C943 C440 1.441 . S
C948 C512 1.533 . S
