# Generated by pormake.
# Topology pto, (3,4)-cn, num edge types: 1
# Building blocks:
#     Node 0, Type 0, BuildingBlock: ESEHIV_clean_linker_0, # of connection points: 3
#     Node 1, Type 0, BuildingBlock: ESEHIV_clean_linker_0, # of connection points: 3
#     Node 2, Type 0, BuildingBlock: ESEHIV_clean_linker_0, # of connection points: 3
#     Node 3, Type 0, BuildingBlock: ESEHIV_clean_linker_0, # of connection points: 3
#     Node 4, Type 0, BuildingBlock: ESEHIV_clean_linker_0, # of connection points: 3
#     Node 5, Type 0, BuildingBlock: ESEHIV_clean_linker_0, # of connection points: 3
#     Node 6, Type 0, BuildingBlock: ESEHIV_clean_linker_0, # of connection points: 3
#     Node 7, Type 0, BuildingBlock: ESEHIV_clean_linker_0, # of connection points: 3
#     Node 8, Type 1, BuildingBlock: KOZSID_clean_sbu_0, # of connection points: 4
#     Node 9, Type 1, BuildingBlock: KOZSID_clean_sbu_0, # of connection points: 4
#     Node 10, Type 1, BuildingBlock: KOZSID_clean_sbu_0, # of connection points: 4
#     Node 11, Type 1, BuildingBlock: KOZSID_clean_sbu_0, # of connection points: 4
#     Node 12, Type 1, BuildingBlock: KOZSID_clean_sbu_0, # of connection points: 4
#     Node 13, Type 1, BuildingBlock: KOZSID_clean_sbu_0, # of connection points: 4
#     Edge 14, Type (0, 1), BuildingBlock: CIFDUS_clean_linker_0, # of connection points: 2
#     Edge 15, Type (0, 1), BuildingBlock: CIFDUS_clean_linker_0, # of connection points: 2
#     Edge 16, Type (0, 1), BuildingBlock: CIFDUS_clean_linker_0, # of connection points: 2
#     Edge 17, Type (0, 1), BuildingBlock: CIFDUS_clean_linker_0, # of connection points: 2
#     Edge 18, Type (0, 1), BuildingBlock: CIFDUS_clean_linker_0, # of connection points: 2
#     Edge 19, Type (0, 1), BuildingBlock: CIFDUS_clean_linker_0, # of connection points: 2
#     Edge 20, Type (0, 1), BuildingBlock: CIFDUS_clean_linker_0, # of connection points: 2
#     Edge 21, Type (0, 1), BuildingBlock: CIFDUS_clean_linker_0, # of connection points: 2
#     Edge 22, Type (0, 1), BuildingBlock: CIFDUS_clean_linker_0, # of connection points: 2
#     Edge 23, Type (0, 1), BuildingBlock: CIFDUS_clean_linker_0, # of connection points: 2
#     Edge 24, Type (0, 1), BuildingBlock: CIFDUS_clean_linker_0, # of connection points: 2
#     Edge 25, Type (0, 1), BuildingBlock: CIFDUS_clean_linker_0, # of connection points: 2
#     Edge 26, Type (0, 1), BuildingBlock: CIFDUS_clean_linker_0, # of connection points: 2
#     Edge 27, Type (0, 1), BuildingBlock: CIFDUS_clean_linker_0, # of connection points: 2
#     Edge 28, Type (0, 1), BuildingBlock: CIFDUS_clean_linker_0, # of connection points: 2
#     Edge 29, Type (0, 1), BuildingBlock: CIFDUS_clean_linker_0, # of connection points: 2
#     Edge 30, Type (0, 1), BuildingBlock: CIFDUS_clean_linker_0, # of connection points: 2
#     Edge 31, Type (0, 1), BuildingBlock: CIFDUS_clean_linker_0, # of connection points: 2
#     Edge 32, Type (0, 1), BuildingBlock: CIFDUS_clean_linker_0, # of connection points: 2
#     Edge 33, Type (0, 1), BuildingBlock: CIFDUS_clean_linker_0, # of connection points: 2
#     Edge 34, Type (0, 1), BuildingBlock: CIFDUS_clean_linker_0, # of connection points: 2
#     Edge 35, Type (0, 1), BuildingBlock: CIFDUS_clean_linker_0, # of connection points: 2
#     Edge 36, Type (0, 1), BuildingBlock: CIFDUS_clean_linker_0, # of connection points: 2
#     Edge 37, Type (0, 1), BuildingBlock: CIFDUS_clean_linker_0, # of connection points: 2
# Relax obj value: 0.000
# Max RMSD: 0.033
# Mean RMSD: 0.014
data_MOF--net-pto--node1-KOZSID_clean_sbu_0--node2-ESEHIV_clean_linker_0--edge1-CIFDUS_clean_linker_0
_symmetry_space_group_name_H-M    P1
_symmetry_Int_Tables_number       1
_symmetry_cell_setting            triclinic
loop_
_symmetry_equiv_pos_as_xyz
'x, y, z'
_cell_length_a     32.283773
_cell_length_b     43.319455
_cell_length_c     37.893135
_cell_angle_alpha  87.17021
_cell_angle_beta   86.130364
_cell_angle_gamma 93.678031
loop_
_atom_site_label
_atom_site_type_symbol
_atom_site_fract_x
_atom_site_fract_y
_atom_site_fract_z
_atom_type_partial_charge
H0 H 0.26312 0.30509 0.26407 0.0
H1 H 0.31033 0.21926 0.29982 0.0
H2 H 0.22237 0.26359 0.36714 0.0
C3 C 0.2641 0.28669 0.28434 0.0
C4 C 0.23946 0.28748 0.31638 0.0
C5 C 0.28999 0.26227 0.27817 0.0
C6 C 0.29072 0.23825 0.30444 0.0
C7 C 0.2663 0.23845 0.33657 0.0
C8 C 0.24105 0.26326 0.34233 0.0
H9 H 0.24718 0.73869 0.78479 0.0
H10 H 0.29323 0.83104 0.7489 0.0
H11 H 0.20779 0.77954 0.68789 0.0
C12 C 0.24862 0.75788 0.76518 0.0
C13 C 0.22478 0.75569 0.73556 0.0
C14 C 0.27299 0.78514 0.77043 0.0
C15 C 0.27368 0.81027 0.74544 0.0
C16 C 0.25049 0.80843 0.71543 0.0
C17 C 0.22604 0.78107 0.7108 0.0
H18 H 0.74507 0.82809 0.29457 0.0
H19 H 0.81194 0.77355 0.36701 0.0
H20 H 0.77277 0.73585 0.2705 0.0
C21 C 0.75915 0.80682 0.3017 0.0
C22 C 0.75599 0.7821 0.27938 0.0
C23 C 0.77901 0.80408 0.33357 0.0
C24 C 0.79735 0.77621 0.34222 0.0
C25 C 0.79499 0.75119 0.31976 0.0
C26 C 0.77436 0.75461 0.28836 0.0
H27 H 0.75005 0.23127 0.78246 0.0
H28 H 0.83143 0.28742 0.70691 0.0
H29 H 0.79378 0.32325 0.80707 0.0
C30 C 0.76804 0.2529 0.77512 0.0
C31 C 0.76884 0.2769 0.79885 0.0
C32 C 0.79036 0.25666 0.74185 0.0
C33 C 0.81405 0.28456 0.73249 0.0
C34 C 0.81573 0.30865 0.75597 0.0
C35 C 0.79276 0.30468 0.78894 0.0
H36 H 0.73872 0.83844 0.7741 0.0
H37 H 0.7561 0.74302 0.80076 0.0
H38 H 0.82595 0.78996 0.71043 0.0
C39 C 0.75396 0.81741 0.76869 0.0
C40 C 0.78393 0.81748 0.74006 0.0
C41 C 0.74349 0.79054 0.79039 0.0
C42 C 0.76374 0.76358 0.78352 0.0
C43 C 0.79345 0.76283 0.75466 0.0
C44 C 0.80325 0.79002 0.73283 0.0
H45 H 0.75578 0.21663 0.32518 0.0
H46 H 0.7787 0.31234 0.28975 0.0
H47 H 0.83532 0.27741 0.38173 0.0
C48 C 0.77095 0.2393 0.3281 0.0
C49 C 0.79634 0.24386 0.35644 0.0
C50 C 0.76446 0.26381 0.30378 0.0
C51 C 0.78382 0.29322 0.30812 0.0
C52 C 0.80941 0.29841 0.33612 0.0
C53 C 0.8157 0.27355 0.36006 0.0
H54 H 0.20772 0.27287 0.72149 0.0
H55 H 0.29987 0.22391 0.77533 0.0
H56 H 0.26248 0.31106 0.81108 0.0
C57 C 0.22894 0.27085 0.74231 0.0
C58 C 0.23154 0.29428 0.76653 0.0
C59 C 0.25319 0.24495 0.74514 0.0
C60 C 0.28106 0.24356 0.77227 0.0
C61 C 0.28527 0.2677 0.79549 0.0
C62 C 0.25996 0.29267 0.79275 0.0
H63 H 0.22015 0.75727 0.36965 0.0
H64 H 0.27397 0.72615 0.2718 0.0
H65 H 0.30276 0.81932 0.30103 0.0
C66 C 0.23967 0.76182 0.34529 0.0
C67 C 0.26063 0.79119 0.33801 0.0
C68 C 0.24429 0.73823 0.3214 0.0
C69 C 0.27006 0.74433 0.29016 0.0
C70 C 0.29132 0.77343 0.28255 0.0
C71 C 0.28626 0.79682 0.30656 0.0
C72 C 0.08345 0.56577 0.37693 0.0
C73 C 0.1002 0.57275 0.40858 0.0
C74 C 0.08044 0.55262 0.43409 0.0
C75 C 0.05304 0.53449 0.41658 0.0
N76 N 0.05449 0.54158 0.38136 0.0
Co77 Co 0.01974 0.52124 0.34602 0.0
N78 N 0.98685 0.49463 0.38414 0.0
C79 C 0.98915 0.4963 0.41948 0.0
C80 C 0.96302 0.47474 0.43907 0.0
C81 C 0.94331 0.458 0.41476 0.0
C82 C 0.95883 0.4703 0.38165 0.0
N83 N 0.9867 0.49943 0.31052 0.0
C84 C 0.96008 0.47377 0.31493 0.0
C85 C 0.94694 0.46425 0.28282 0.0
C86 C 0.96641 0.48433 0.25714 0.0
C87 C 0.99041 0.50473 0.27493 0.0
N88 N 0.05103 0.5491 0.30806 0.0
C89 C 0.04494 0.55018 0.27307 0.0
C90 C 0.06861 0.57337 0.25384 0.0
C91 C 0.09044 0.58852 0.27812 0.0
C92 C 0.07886 0.57352 0.31084 0.0
N93 N 0.06117 0.48938 0.34089 0.0
C94 C 0.11658 0.44203 0.33251 0.0
C95 C 0.10847 0.46165 0.30382 0.0
C96 C 0.08071 0.48481 0.30848 0.0
C97 C 0.09699 0.44679 0.36562 0.0
C98 C 0.07001 0.47065 0.36929 0.0
N99 N 0.97851 0.55342 0.35096 0.0
C100 C 0.93303 0.58853 0.32373 0.0
C101 C 0.9306 0.60567 0.35396 0.0
C102 C 0.9506 0.59523 0.38337 0.0
C103 C 0.97355 0.56892 0.38155 0.0
C104 C 0.95701 0.56279 0.32275 0.0
H105 H 0.98774 0.56202 0.40504 0.0
H106 H 0.95851 0.55146 0.29844 0.0
H107 H 0.07519 0.49846 0.28532 0.0
H108 H 0.05644 0.47338 0.39534 0.0
C109 C 0.02122 0.51432 0.43297 0.0
C110 C 0.09363 0.58419 0.34395 0.0
C111 C 0.94822 0.4568 0.3487 0.0
C112 C 0.01708 0.52887 0.25911 0.0
H113 H 0.1231 0.59128 0.41294 0.0
H114 H 0.08398 0.55238 0.46231 0.0
H115 H 0.96048 0.47045 0.46755 0.0
H116 H 0.92131 0.4382 0.42063 0.0
H117 H 0.9262 0.44443 0.27832 0.0
H118 H 0.96413 0.48367 0.22881 0.0
H119 H 0.0694 0.5789 0.22562 0.0
H120 H 0.11187 0.60869 0.2725 0.0
H121 H 0.12277 0.45868 0.27761 0.0
H122 H 0.10279 0.43234 0.38869 0.0
H123 H 0.91786 0.59568 0.30031 0.0
H124 H 0.94875 0.60742 0.40766 0.0
C125 C 0.08523 0.57623 0.76467 0.0
C126 C 0.09717 0.58649 0.79687 0.0
C127 C 0.07202 0.57027 0.82263 0.0
C128 C 0.04614 0.55128 0.80479 0.0
N129 N 0.05362 0.5539 0.76919 0.0
Co130 Co 0.02068 0.5326 0.73326 0.0
N131 N 0.98301 0.50932 0.77127 0.0
C132 C 0.98577 0.51029 0.80666 0.0
C133 C 0.95779 0.49013 0.82625 0.0
C134 C 0.93622 0.4749 0.80194 0.0
C135 C 0.95217 0.48691 0.76875 0.0
N136 N 0.98651 0.51241 0.69738 0.0
C137 C 0.95433 0.4905 0.70184 0.0
C138 C 0.9393 0.48289 0.66972 0.0
C139 C 0.96332 0.50019 0.64399 0.0
C140 C 0.99138 0.51746 0.66179 0.0
N141 N 0.05964 0.55466 0.69531 0.0
C142 C 0.05907 0.55168 0.65998 0.0
C143 C 0.08958 0.56987 0.64049 0.0
C144 C 0.11071 0.58558 0.66481 0.0
C145 C 0.09162 0.57615 0.69782 0.0
N146 N 0.05729 0.4974 0.73363 0.0
C147 C 0.10712 0.44605 0.73421 0.0
C148 C 0.09046 0.45676 0.70314 0.0
C149 C 0.06622 0.48231 0.70337 0.0
C150 C 0.0986 0.46183 0.76497 0.0
C151 C 0.07369 0.48708 0.76415 0.0
N152 N 0.98423 0.56797 0.73272 0.0
C153 C 0.95959 0.61273 0.70179 0.0
C154 C 0.93925 0.62158 0.73288 0.0
C155 C 0.94045 0.60274 0.76368 0.0
C156 C 0.96327 0.57635 0.76311 0.0
C157 C 0.98109 0.58577 0.70215 0.0
H158 H 0.96403 0.56343 0.78771 0.0
H159 H 0.99536 0.58011 0.67738 0.0
H160 H 0.05477 0.48921 0.67871 0.0
H161 H 0.06805 0.49783 0.78856 0.0
C162 C 0.0149 0.53048 0.8207 0.0
C163 C 0.10371 0.58932 0.73058 0.0
C164 C 0.93809 0.47545 0.73569 0.0
C165 C 0.02609 0.53506 0.64586 0.0
H166 H 0.12112 0.60422 0.80133 0.0
H167 H 0.07222 0.57236 0.85097 0.0
H168 H 0.95398 0.48657 0.85479 0.0
H169 H 0.91199 0.45663 0.80806 0.0
H170 H 0.91431 0.46594 0.66534 0.0
H171 H 0.96171 0.49926 0.61562 0.0
H172 H 0.09469 0.57243 0.61194 0.0
H173 H 0.13646 0.60272 0.65892 0.0
H174 H 0.09545 0.44524 0.67864 0.0
H175 H 0.11129 0.45495 0.78967 0.0
H176 H 0.95878 0.62653 0.67724 0.0
H177 H 0.92486 0.60886 0.78833 0.0
C178 C 0.29656 0.9813 0.58256 0.0
C179 C 0.33441 0.97283 0.59392 0.0
C180 C 0.36465 0.98984 0.57313 0.0
C181 C 0.34362 0.00775 0.55049 0.0
N182 N 0.30177 1.00322 0.55554 0.0
Co183 Co 0.25959 0.02535 0.52924 0.0
N184 N 0.30397 0.0477 0.49609 0.0
C185 C 0.34524 0.04375 0.495 0.0
C186 C 0.36802 0.06164 0.46882 0.0
C187 C 0.3396 0.078 0.45211 0.0
C188 C 0.30099 0.06917 0.46926 0.0
N189 N 0.21759 0.04902 0.50448 0.0
C190 C 0.22298 0.07174 0.47833 0.0
C191 C 0.18544 0.08333 0.47024 0.0
C192 C 0.15527 0.06751 0.49223 0.0
C193 C 0.17602 0.04735 0.51246 0.0
N194 N 0.21502 1.00141 0.56077 0.0
C195 C 0.17345 1.00302 0.55951 0.0
C196 C 0.15041 0.98259 0.58301 0.0
C197 C 0.17896 0.96663 0.60003 0.0
C198 C 0.2179 0.97846 0.58597 0.0
N199 N 0.26353 0.05885 0.56328 0.0
C200 C 0.26949 0.1064 0.61182 0.0
C201 C 0.23222 0.08845 0.60945 0.0
C202 C 0.22982 0.06531 0.58501 0.0
C203 C 0.30359 0.10004 0.58915 0.0
C204 C 0.30013 0.07625 0.56572 0.0
N205 N 0.25571 0.9918 0.49535 0.0
C206 C 0.21595 0.96048 0.45662 0.0
C207 C 0.24988 0.94289 0.44912 0.0
C208 C 0.28685 0.95032 0.46476 0.0
C209 C 0.28926 0.9749 0.48722 0.0
C210 C 0.21934 0.98444 0.47995 0.0
H211 H 0.31868 0.97975 0.49767 0.0
H212 H 0.19203 0.99654 0.48526 0.0
H213 H 0.20028 0.05293 0.58434 0.0
H214 H 0.32764 0.07248 0.54981 0.0
C215 C 0.36201 0.02592 0.52149 0.0
C216 C 0.25663 0.96707 0.59736 0.0
C217 C 0.26278 0.0829 0.46017 0.0
C218 C 0.1572 0.0252 0.53743 0.0
H219 H 0.33959 0.95564 0.61458 0.0
H220 H 0.39797 0.98848 0.57362 0.0
H221 H 0.40145 0.06338 0.46331 0.0
H222 H 0.34659 0.09506 0.43032 0.0
H223 H 0.1804 0.10125 0.45037 0.0
H224 H 0.12211 0.07016 0.4931 0.0
H225 H 0.11687 0.97977 0.58739 0.0
H226 H 0.17194 0.94838 0.62052 0.0
H227 H 0.20489 0.09182 0.62661 0.0
H228 H 0.33304 0.11349 0.58906 0.0
H229 H 0.18667 0.95541 0.44502 0.0
H230 H 0.31408 0.9375 0.45922 0.0
C231 C 0.44296 0.80107 0.08075 0.0
C232 C 0.42827 0.82942 0.0892 0.0
C233 C 0.45201 0.85154 0.06875 0.0
C234 C 0.47944 0.83551 0.04883 0.0
N235 N 0.47462 0.80446 0.05518 0.0
Co236 Co 0.50661 0.77255 0.03064 0.0
N237 N 0.54428 0.8053 0.00335 0.0
C238 C 0.5441 0.83626 0.00637 0.0
C239 C 0.57498 0.85296 0.98572 0.0
C240 C 0.59627 0.83137 0.96843 0.0
C241 C 0.57671 0.80264 0.97929 0.0
N242 N 0.53722 0.74065 0.00474 0.0
C243 C 0.56857 0.74413 0.97887 0.0
C244 C 0.57859 0.71581 0.96616 0.0
C245 C 0.55298 0.69365 0.98488 0.0
C246 C 0.5286 0.70961 0.00759 0.0
N247 N 0.47043 0.73981 0.05949 0.0
C248 C 0.47293 0.70878 0.05868 0.0
C249 C 0.4464 0.6921 0.08333 0.0
C250 C 0.42596 0.71373 0.1013 0.0
C251 C 0.44094 0.74251 0.08621 0.0
N252 N 0.46689 0.77286 0.99263 0.0
C253 C 0.41634 0.77133 0.93456 0.0
C254 C 0.41964 0.74495 0.95664 0.0
C255 C 0.44478 0.74619 0.98514 0.0
C256 C 0.43745 0.79891 0.94305 0.0
C257 C 0.46213 0.7992 0.97208 0.0
N258 N 0.54634 0.77201 0.06842 0.0
C259 C 0.58945 0.74342 0.10627 0.0
C260 C 0.59977 0.76986 0.12435 0.0
C261 C 0.58373 0.79769 0.11322 0.0
C262 C 0.55737 0.79827 0.08533 0.0
C263 C 0.56293 0.74497 0.07878 0.0
H264 H 0.54588 0.82011 0.07816 0.0
H265 H 0.55606 0.72384 0.06652 0.0
H266 H 0.44611 0.72505 1.00036 0.0
H267 H 0.47757 0.82091 0.97698 0.0
C268 C 0.51271 0.84902 0.02683 0.0
C269 C 0.42656 0.77172 0.09843 0.0
C270 C 0.58949 0.77365 0.96535 0.0
C271 C 0.4994 0.69604 0.03351 0.0
H272 H 0.40343 0.83373 0.1086 0.0
H273 H 0.45028 0.8764 0.0691 0.0
H274 H 0.58089 0.87787 0.98311 0.0
H275 H 0.62289 0.83629 0.94962 0.0
H276 H 0.60199 0.71152 0.94551 0.0
H277 H 0.55247 0.66884 0.98245 0.0
H278 H 0.44245 0.66717 0.08776 0.0
H279 H 0.4028 0.70877 0.12317 0.0
H280 H 0.40299 0.72319 0.95196 0.0
H281 H 0.43594 0.82006 0.92686 0.0
H282 H 0.60178 0.72143 0.11323 0.0
H283 H 0.59062 0.81882 0.12644 0.0
C284 C 0.84467 0.9802 0.59045 0.0
C285 C 0.88268 0.97022 0.59966 0.0
C286 C 0.91268 0.98965 0.58162 0.0
C287 C 0.89133 0.01014 0.56235 0.0
N288 N 0.84951 0.00549 0.56759 0.0
Co289 Co 0.80686 0.02771 0.54186 0.0
N290 N 0.85092 0.05419 0.51258 0.0
C291 C 0.89239 0.05499 0.516 0.0
C292 C 0.91486 0.07673 0.49369 0.0
C293 C 0.88598 0.09099 0.47518 0.0
C294 C 0.84742 0.07698 0.48727 0.0
N295 N 0.7642 0.04835 0.51452 0.0
C296 C 0.76896 0.0705 0.48771 0.0
C297 C 0.73092 0.07782 0.47568 0.0
C298 C 0.70105 0.05989 0.49585 0.0
C299 C 0.72244 0.04259 0.51881 0.0
N300 N 0.76282 1.00248 0.57244 0.0
C301 C 0.72134 0.00538 0.57331 0.0
C302 C 0.69887 0.98477 0.59703 0.0
C303 C 0.72771 0.96746 0.61187 0.0
C304 C 0.76623 0.97847 0.59613 0.0
N305 N 0.80565 0.06043 0.57725 0.0
C306 C 0.80403 0.10714 0.6268 0.0
C307 C 0.76939 0.09965 0.60805 0.0
C308 C 0.77068 0.07626 0.58394 0.0
C309 C 0.83949 0.09088 0.62047 0.0
C310 C 0.8398 0.06806 0.59557 0.0
N311 N 0.80799 0.99503 0.50695 0.0
C312 C 0.77315 0.95194 0.48021 0.0
C313 C 0.81035 0.94455 0.4624 0.0
C314 C 0.84621 0.9636 0.46676 0.0
C315 C 0.8444 0.98838 0.48908 0.0
C316 C 0.77256 0.97724 0.50165 0.0
H317 H 0.87294 1.00168 0.49182 0.0
H318 H 0.7431 0.98164 0.51424 0.0
H319 H 0.7428 0.07152 0.57117 0.0
H320 H 0.8682 0.0571 0.59163 0.0
C321 C 0.90941 0.03383 0.5389 0.0
C322 C 0.80484 0.9643 0.60299 0.0
C323 C 0.80845 0.08635 0.47408 0.0
C324 C 0.70427 0.02353 0.54725 0.0
H325 H 0.88816 0.95059 0.61712 0.0
H326 H 0.94606 0.98856 0.58192 0.0
H327 H 0.94828 0.08149 0.49103 0.0
H328 H 0.89251 0.10962 0.45508 0.0
H329 H 0.72532 0.09495 0.45509 0.0
H330 H 0.66767 0.06021 0.49472 0.0
H331 H 0.66537 0.9815 0.60149 0.0
H332 H 0.72109 0.94818 0.63113 0.0
H333 H 0.74106 0.11148 0.61238 0.0
H334 H 0.86723 0.09612 0.63424 0.0
H335 H 0.74445 0.93795 0.47839 0.0
H336 H 0.87571 0.95955 0.45303 0.0
C337 C 0.47438 0.28261 0.09698 0.0
C338 C 0.46244 0.31097 0.10823 0.0
C339 C 0.48405 0.33325 0.08642 0.0
C340 C 0.50808 0.31736 0.06337 0.0
N341 N 0.50283 0.28621 0.06877 0.0
Co342 Co 0.53417 0.2546 0.04288 0.0
N343 N 0.5662 0.28754 0.01098 0.0
C344 C 0.56199 0.31841 0.0109 0.0
C345 C 0.58606 0.33516 0.9846 0.0
C346 C 0.60653 0.3137 0.96638 0.0
C347 C 0.59392 0.28497 0.98287 0.0
N348 N 0.5666 0.2231 0.0179 0.0
C349 C 0.59533 0.2267 0.98992 0.0
C350 C 0.61067 0.19865 0.98116 0.0
C351 C 0.59036 0.17646 0.00398 0.0
C352 C 0.56409 0.19216 0.02544 0.0
N353 N 0.501 0.2216 0.07377 0.0
C354 C 0.5031 0.19061 0.07214 0.0
C355 C 0.47609 0.17369 0.09627 0.0
C356 C 0.45561 0.19514 0.11457 0.0
C357 C 0.47162 0.22403 0.10065 0.0
N358 N 0.49136 0.25165 0.00765 0.0
C359 C 0.4333 0.24796 0.95519 0.0
C360 C 0.45201 0.22165 0.96749 0.0
C361 C 0.48045 0.22396 0.99361 0.0
C362 C 0.44368 0.27604 0.97021 0.0
C363 C 0.47259 0.27737 0.99602 0.0
N364 N 0.57702 0.25751 0.07818 0.0
C365 C 0.61544 0.23342 0.1236 0.0
C366 C 0.63474 0.26198 0.13075 0.0
C367 C 0.6252 0.28819 0.11073 0.0
C368 C 0.59643 0.28548 0.0849 0.0
C369 C 0.58717 0.23169 0.09729 0.0
H370 H 0.59013 0.30642 0.071 0.0
H371 H 0.57379 0.2092 0.09309 0.0
H372 H 0.49354 0.20303 1.00172 0.0
H373 H 0.4794 0.29955 0.00599 0.0
C374 C 0.53524 0.33099 0.03597 0.0
C375 C 0.45878 0.25301 0.11462 0.0
C376 C 0.60799 0.25588 0.97007 0.0
C377 C 0.5335 0.17826 0.05004 0.0
H378 H 0.44072 0.31521 0.13018 0.0
H379 H 0.48264 0.3581 0.08743 0.0
H380 H 0.58806 0.35998 0.97905 0.0
H381 H 0.62783 0.31869 0.94323 0.0
H382 H 0.63351 0.19459 0.95994 0.0
H383 H 0.59332 0.15171 0.00408 0.0
H384 H 0.47255 0.14876 0.1007 0.0
H385 H 0.43209 0.1901 0.13618 0.0
H386 H 0.44546 0.19936 0.9566 0.0
H387 H 0.42946 0.29703 0.96229 0.0
H388 H 0.62233 0.21238 0.13806 0.0
H389 H 0.63917 0.31088 0.11547 0.0
H390 H 0.25501 0.34917 0.29707 0.0
H391 H 0.16106 0.28416 0.34979 0.0
H392 H 0.11611 0.32619 0.36107 0.0
H393 H 0.1024 0.38141 0.35482 0.0
H394 H 0.19426 0.44583 0.29888 0.0
H395 H 0.24062 0.40402 0.28942 0.0
C396 C 0.22453 0.34404 0.31065 0.0
C397 C 0.21179 0.31336 0.32269 0.0
C398 C 0.19828 0.36829 0.31641 0.0
C399 C 0.17228 0.30749 0.34078 0.0
C400 C 0.1463 0.33154 0.34704 0.0
C401 C 0.13272 0.38627 0.34081 0.0
C402 C 0.14498 0.41666 0.32768 0.0
C403 C 0.15893 0.36202 0.33498 0.0
C404 C 0.18407 0.42259 0.30909 0.0
C405 C 0.2106 0.39871 0.30374 0.0
H406 H 0.2441 0.69553 0.74427 0.0
H407 H 0.14455 0.75196 0.71658 0.0
H408 H 0.09919 0.70548 0.71048 0.0
H409 H 0.08669 0.64856 0.7155 0.0
H410 H 0.18551 0.59214 0.74398 0.0
H411 H 0.23236 0.63866 0.74736 0.0
C412 C 0.21243 0.69763 0.73701 0.0
C413 C 0.19776 0.7272 0.73096 0.0
C414 C 0.18643 0.67077 0.73368 0.0
C415 C 0.15681 0.72951 0.72105 0.0
C416 C 0.13075 0.70293 0.71772 0.0
C417 C 0.11866 0.64665 0.72204 0.0
C418 C 0.13297 0.61729 0.72945 0.0
C419 C 0.14511 0.67346 0.72419 0.0
C420 C 0.1742 0.6147 0.7381 0.0
C421 C 0.20079 0.64124 0.74015 0.0
H422 H 0.86897 0.74147 0.34905 0.0
H423 H 0.76114 0.6928 0.31124 0.0
H424 H 0.79298 0.64376 0.31916 0.0
H425 H 0.85291 0.61464 0.33376 0.0
H426 H 0.95969 0.66224 0.374 0.0
H427 H 0.92655 0.71144 0.36895 0.0
C428 C 0.85213 0.7201 0.3431 0.0
C429 C 0.81301 0.7211 0.32879 0.0
C430 C 0.87049 0.69167 0.34811 0.0
C431 C 0.79178 0.69301 0.32127 0.0
C432 C 0.80985 0.66482 0.326 0.0
C433 C 0.86877 0.63579 0.34159 0.0
C434 C 0.90874 0.63486 0.35402 0.0
C435 C 0.84949 0.66392 0.33875 0.0
C436 C 0.92877 0.66235 0.36453 0.0
C437 C 0.90993 0.69051 0.36146 0.0
H438 H 0.79593 0.36833 0.76368 0.0
H439 H 0.89599 0.31374 0.72756 0.0
H440 H 0.94189 0.36073 0.71569 0.0
H441 H 0.95497 0.4173 0.7191 0.0
H442 H 0.85526 0.47181 0.75539 0.0
H443 H 0.80776 0.4251 0.76368 0.0
C444 C 0.82778 0.36676 0.75319 0.0
C445 C 0.84256 0.33755 0.7467 0.0
C446 C 0.85406 0.3939 0.74653 0.0
C447 C 0.88373 0.33593 0.73256 0.0
C448 C 0.91008 0.36279 0.72594 0.0
C449 C 0.92265 0.41881 0.72835 0.0
C450 C 0.90839 0.44766 0.73681 0.0
C451 C 0.89576 0.39185 0.73323 0.0
C452 C 0.86663 0.44967 0.74881 0.0
C453 C 0.83964 0.42301 0.75365 0.0
H454 H 0.2654 0.17642 0.32673 0.0
H455 H 0.26834 0.24246 0.40832 0.0
H456 H 0.26733 0.20027 0.45362 0.0
H457 H 0.2653 0.14432 0.47028 0.0
H458 H 0.26363 0.07845 0.38893 0.0
H459 H 0.26503 0.12074 0.34318 0.0
C460 C 0.26631 0.18163 0.35438 0.0
C461 C 0.26683 0.21264 0.36403 0.0
C462 C 0.26598 0.15724 0.38032 0.0
C463 C 0.26734 0.21885 0.40011 0.0
C464 C 0.26699 0.19473 0.42605 0.0
C465 C 0.26535 0.13945 0.44247 0.0
C466 C 0.26439 0.10862 0.43264 0.0
C467 C 0.26617 0.16385 0.4165 0.0
C468 C 0.26441 0.10218 0.39676 0.0
C469 C 0.26518 0.1263 0.37075 0.0
H470 H 0.32231 0.74253 0.79735 0.0
H471 H 0.27909 0.83311 0.81444 0.0
H472 H 0.31968 0.8371 0.86644 0.0
H473 H 0.36666 0.81442 0.90766 0.0
H474 H 0.41131 0.72436 0.88912 0.0
H475 H 0.37038 0.72041 0.83767 0.0
C476 C 0.32157 0.76304 0.81262 0.0
C477 C 0.29766 0.78744 0.80208 0.0
C478 C 0.34508 0.76523 0.8424 0.0
C479 C 0.29752 0.8141 0.82182 0.0
C480 C 0.32059 0.81634 0.85164 0.0
C481 C 0.36779 0.79406 0.89219 0.0
C482 C 0.39185 0.76964 0.90262 0.0
C483 C 0.34452 0.79204 0.86219 0.0
C484 C 0.39247 0.74328 0.88231 0.0
C485 C 0.36927 0.74106 0.85265 0.0
H486 H 0.84149 0.82653 0.37321 0.0
H487 H 0.71463 0.83997 0.34969 0.0
H488 H 0.71403 0.88486 0.38564 0.0
H489 H 0.74947 0.92119 0.42235 0.0
H490 H 0.87399 0.90578 0.45114 0.0
H491 H 0.87559 0.86131 0.41412 0.0
C492 C 0.81357 0.83905 0.37629 0.0
C493 C 0.77848 0.83006 0.35806 0.0
C494 C 0.81305 0.8648 0.39767 0.0
C495 C 0.74259 0.84673 0.36245 0.0
C496 C 0.74205 0.87238 0.38325 0.0
C497 C 0.77682 0.90792 0.42123 0.0
C498 C 0.81154 0.91721 0.43972 0.0
C499 C 0.77717 0.88179 0.40073 0.0
C500 C 0.84696 0.89983 0.43681 0.0
C501 C 0.84781 0.87408 0.41586 0.0
H502 H 0.68929 0.25212 0.81392 0.0
H503 H 0.79465 0.29339 0.86295 0.0
H504 H 0.75469 0.28993 0.92022 0.0
H505 H 0.689 0.27633 0.9564 0.0
H506 H 0.58368 0.2353 0.90767 0.0
H507 H 0.62439 0.23696 0.85045 0.0
C508 C 0.70366 0.26 0.83722 0.0
C509 C 0.74487 0.27317 0.83402 0.0
C510 C 0.68044 0.25797 0.87015 0.0
C511 C 0.76281 0.2836 0.86448 0.0
C512 C 0.74005 0.2815 0.89731 0.0
C513 C 0.67524 0.2677 0.93316 0.0
C514 C 0.63357 0.25585 0.93589 0.0
C515 C 0.69874 0.26899 0.90043 0.0
C516 C 0.61578 0.24455 0.9059 0.0
C517 C 0.63901 0.24557 0.87328 0.0
H518 H 0.24767 0.86977 0.72769 0.0
H519 H 0.25687 0.80675 0.64324 0.0
H520 H 0.25942 0.85018 0.59934 0.0
H521 H 0.25949 0.90639 0.5848 0.0
H522 H 0.25075 0.96934 0.66895 0.0
H523 H 0.2481 0.9258 0.71324 0.0
C524 C 0.25058 0.86557 0.69969 0.0
C525 C 0.25203 0.83501 0.68881 0.0
C526 C 0.25222 0.89068 0.67457 0.0
C527 C 0.25516 0.82996 0.65237 0.0
C528 C 0.25687 0.85481 0.62723 0.0
C529 C 0.25706 0.91035 0.6129 0.0
C530 C 0.25535 0.94069 0.62395 0.0
C531 C 0.25543 0.88524 0.63801 0.0
C532 C 0.25212 0.94597 0.66019 0.0
C533 C 0.2506 0.92115 0.68537 0.0
H534 H 0.69695 0.74027 0.2601 0.0
H535 H 0.75908 0.82933 0.22824 0.0
H536 H 0.71625 0.83364 0.17749 0.0
H537 H 0.66103 0.81185 0.14216 0.0
H538 H 0.59764 0.72346 0.17601 0.0
H539 H 0.6415 0.71896 0.22554 0.0
C540 C 0.70142 0.76046 0.2418 0.0
C541 C 0.73129 0.78435 0.24776 0.0
C542 C 0.67648 0.76289 0.21298 0.0
C543 C 0.73618 0.81067 0.22425 0.0
C544 C 0.71175 0.81311 0.19523 0.0
C545 C 0.65655 0.79174 0.16054 0.0
C546 C 0.62621 0.76793 0.15504 0.0
C547 C 0.68164 0.7894 0.1894 0.0
C548 C 0.62122 0.74188 0.17905 0.0
C549 C 0.64614 0.73934 0.20759 0.0
H550 H 0.81044 0.19719 0.75333 0.0
H551 H 0.76825 0.26013 0.67391 0.0
H552 H 0.76754 0.21924 0.63153 0.0
H553 H 0.78006 0.16572 0.61676 0.0
H554 H 0.82625 0.10358 0.69498 0.0
H555 H 0.82448 0.14387 0.73808 0.0
C556 C 0.80087 0.20177 0.72679 0.0
C557 C 0.78919 0.23148 0.71671 0.0
C558 C 0.80147 0.17834 0.70235 0.0
C559 C 0.77741 0.2374 0.68214 0.0
C560 C 0.77698 0.21405 0.65796 0.0
C561 C 0.78953 0.16103 0.64332 0.0
C562 C 0.80312 0.13173 0.65276 0.0
C563 C 0.7891 0.18447 0.66771 0.0
C564 C 0.81589 0.12603 0.68707 0.0
C565 C 0.81474 0.14901 0.71173 0.0
H566 H 0.37057 0.24703 0.26903 0.0
H567 H 0.26824 0.27637 0.21091 0.0
H568 H 0.31114 0.27596 0.15533 0.0
H569 H 0.37806 0.26719 0.12296 0.0
H570 H 0.47992 0.23754 0.18096 0.0
H571 H 0.4368 0.23751 0.2368 0.0
C572 C 0.35748 0.25304 0.24419 0.0
C573 C 0.31619 0.26177 0.24426 0.0
C574 C 0.38226 0.25257 0.21227 0.0
C575 C 0.30005 0.26997 0.21177 0.0
C576 C 0.32449 0.26955 0.17991 0.0
C577 C 0.39056 0.26072 0.14793 0.0
C578 C 0.4319 0.25243 0.14817 0.0
C579 C 0.36564 0.26095 0.17982 0.0
C580 C 0.44807 0.24397 0.18042 0.0
C581 C 0.42349 0.24402 0.21223 0.0
H582 H 0.87517 0.75622 0.73358 0.0
H583 H 0.75846 0.70338 0.76114 0.0
H584 H 0.79327 0.65531 0.75771 0.0
H585 H 0.8574 0.62795 0.74899 0.0
H586 H 0.97311 0.68006 0.71721 0.0
H587 H 0.93822 0.72864 0.7197 0.0
C588 C 0.85717 0.73422 0.73821 0.0
C589 C 0.8143 0.73363 0.74828 0.0
C590 C 0.87729 0.70645 0.73562 0.0
C591 C 0.79167 0.70473 0.75432 0.0
C592 C 0.8115 0.67712 0.75218 0.0
C593 C 0.87478 0.65001 0.74258 0.0
C594 C 0.91765 0.65066 0.73326 0.0
C595 C 0.85438 0.67769 0.74342 0.0
C596 C 0.94 0.67919 0.7245 0.0
C597 C 0.92009 0.70689 0.72595 0.0
H598 H 0.88948 0.31463 0.35067 0.0
H599 H 0.77292 0.35341 0.33075 0.0
H600 H 0.80524 0.40565 0.33334 0.0
H601 H 0.8673 0.44069 0.33952 0.0
H602 H 0.98368 0.4024 0.35978 0.0
H603 H 0.95093 0.34969 0.35926 0.0
C604 C 0.87106 0.33451 0.34735 0.0
C605 C 0.82891 0.33005 0.34022 0.0
C606 C 0.8899 0.36461 0.34884 0.0
C607 C 0.80559 0.35614 0.33567 0.0
C608 C 0.82399 0.38606 0.33729 0.0
C609 C 0.88523 0.42068 0.34391 0.0
C610 C 0.92767 0.42507 0.34945 0.0
C611 C 0.86619 0.3906 0.34346 0.0
C612 C 0.9509 0.39927 0.35534 0.0
C613 C 0.9322 0.36925 0.35501 0.0
H614 H 0.22594 0.33639 0.71178 0.0
H615 H 0.17686 0.31078 0.8185 0.0
H616 H 0.13333 0.355 0.81782 0.0
H617 H 0.10969 0.40101 0.78705 0.0
H618 H 0.16288 0.42912 0.68181 0.0
H619 H 0.20369 0.38371 0.68154 0.0
C620 C 0.20543 0.3405 0.7347 0.0
C621 C 0.20428 0.32044 0.76507 0.0
C622 C 0.18123 0.36637 0.73439 0.0
C623 C 0.17812 0.32605 0.79487 0.0
C624 C 0.1533 0.35128 0.79447 0.0
C625 C 0.13059 0.39755 0.76418 0.0
C626 C 0.13286 0.41861 0.73447 0.0
C627 C 0.15481 0.37173 0.76447 0.0
C628 C 0.1597 0.41314 0.70487 0.0
C629 C 0.18337 0.38723 0.70474 0.0
H630 H 0.16264 0.724 0.34276 0.0
H631 H 0.27761 0.68236 0.31576 0.0
H632 H 0.24145 0.63091 0.32147 0.0
H633 H 0.17633 0.59775 0.33113 0.0
H634 H 0.06124 0.63893 0.35757 0.0
H635 H 0.09797 0.6905 0.35539 0.0
C636 C 0.1798 0.7036 0.33868 0.0
C637 C 0.22266 0.70699 0.3286 0.0
C638 C 0.15869 0.67403 0.3417 0.0
C639 C 0.24448 0.68037 0.32308 0.0
C640 C 0.22387 0.65094 0.32639 0.0
C641 C 0.15961 0.61812 0.33663 0.0
C642 C 0.11644 0.61496 0.3444 0.0
C643 C 0.1809 0.64752 0.33512 0.0
C644 C 0.09462 0.64117 0.35151 0.0
C645 C 0.11558 0.67053 0.35024 0.0
H646 H 0.7821 0.82668 0.66856 0.0
H647 H 0.80855 0.87361 0.76299 0.0
H648 H 0.81933 0.92311 0.72868 0.0
H649 H 0.81737 0.95362 0.67225 0.0
H650 H 0.78819 0.90748 0.57815 0.0
H651 H 0.78229 0.85714 0.61154 0.0
C652 C 0.79084 0.84772 0.68138 0.0
C653 C 0.79458 0.8466 0.71817 0.0
C654 C 0.79612 0.87624 0.66156 0.0
C655 C 0.80537 0.87403 0.73469 0.0
C656 C 0.81147 0.9023 0.71512 0.0
C657 C 0.81007 0.93241 0.65921 0.0
C658 C 0.80335 0.93388 0.62302 0.0
C659 C 0.80628 0.90378 0.67867 0.0
C660 C 0.79357 0.90656 0.60609 0.0
C661 C 0.7902 0.8779 0.62515 0.0
H662 H 0.77579 0.28778 0.2355 0.0
H663 H 0.69006 0.22922 0.30589 0.0
H664 H 0.64352 0.22247 0.25834 0.0
H665 H 0.6257 0.23475 0.19735 0.0
H666 H 0.70997 0.29503 0.12779 0.0
H667 H 0.75795 0.30017 0.1747 0.0
C668 C 0.74677 0.27374 0.2406 0.0
C669 C 0.73661 0.25904 0.27436 0.0
C670 C 0.71966 0.27045 0.21333 0.0
C671 C 0.69914 0.24046 0.28012 0.0
C672 C 0.67227 0.23677 0.25299 0.0
C673 C 0.65477 0.24877 0.19238 0.0
C674 C 0.66424 0.26448 0.15912 0.0
C675 C 0.68209 0.25179 0.21955 0.0
C676 C 0.70174 0.28294 0.15325 0.0
C677 C 0.72927 0.28578 0.18002 0.0
H678 H 0.31425 0.20921 0.71897 0.0
H679 H 0.18324 0.22284 0.71417 0.0
H680 H 0.17733 0.18267 0.67179 0.0
H681 H 0.20904 0.14372 0.6359 0.0
H682 H 0.33786 0.12566 0.6467 0.0
H683 H 0.3445 0.16739 0.68693 0.0
C684 C 0.28412 0.20316 0.70929 0.0
C685 C 0.2494 0.21954 0.71987 0.0
C686 C 0.28045 0.1792 0.68573 0.0
C687 C 0.21094 0.21144 0.7061 0.0
C688 C 0.20733 0.18815 0.68201 0.0
C689 C 0.23848 0.14839 0.6474 0.0
C690 C 0.27294 0.13142 0.63762 0.0
C691 C 0.24189 0.17187 0.67161 0.0
C692 C 0.31091 0.1386 0.65266 0.0
C693 C 0.31473 0.16238 0.67609 0.0
H694 H 0.27719 0.75745 0.21571 0.0
H695 H 0.37037 0.80061 0.27709 0.0
H696 H 0.42015 0.80472 0.22521 0.0
H697 H 0.43841 0.79328 0.16309 0.0
H698 H 0.34524 0.75036 0.10184 0.0
H699 H 0.29426 0.74843 0.15303 0.0
C700 C 0.30839 0.76778 0.21768 0.0
C701 C 0.32014 0.77855 0.25023 0.0
C702 C 0.33691 0.76979 0.18788 0.0
C703 C 0.36045 0.79237 0.25227 0.0
C704 C 0.38903 0.79451 0.2227 0.0
C705 C 0.40683 0.78369 0.16111 0.0
C706 C 0.39542 0.77164 0.12916 0.0
C707 C 0.37778 0.7829 0.19052 0.0
C708 C 0.35452 0.75943 0.12646 0.0
C709 C 0.32549 0.75841 0.15562 0.0
H710 H 0.80686 0.18312 0.34399 0.0
H711 H 0.79626 0.24594 0.42859 0.0
H712 H 0.80051 0.20308 0.47222 0.0
H713 H 0.80443 0.14709 0.4867 0.0
H714 H 0.81303 0.08423 0.40246 0.0
H715 H 0.81171 0.12752 0.35831 0.0
C716 C 0.80525 0.18745 0.37197 0.0
C717 C 0.80117 0.21783 0.38287 0.0
C718 C 0.80709 0.16258 0.39701 0.0
C719 C 0.79994 0.22297 0.4193 0.0
C720 C 0.80202 0.19839 0.44435 0.0
C721 C 0.80616 0.1431 0.45862 0.0
C722 C 0.80879 0.1128 0.44754 0.0
C723 C 0.80524 0.16808 0.43355 0.0
C724 C 0.81099 0.10753 0.41128 0.0
C725 C 0.81023 0.13222 0.38617 0.0
H726 H 0.29642 0.22227 0.84566 0.0
H727 H 0.34437 0.31321 0.80505 0.0
H728 H 0.395 0.31484 0.85016 0.0
H729 H 0.42503 0.2908 0.90137 0.0
H730 H 0.37457 0.20111 0.94472 0.0
H731 H 0.32622 0.19835 0.89799 0.0
C732 C 0.31823 0.24227 0.84665 0.0
C733 C 0.31677 0.26759 0.82218 0.0
C734 C 0.34682 0.24327 0.87308 0.0
C735 C 0.34483 0.29356 0.82382 0.0
C736 C 0.37377 0.29448 0.84954 0.0
C737 C 0.40315 0.27078 0.90099 0.0
C738 C 0.40359 0.24625 0.92673 0.0
C739 C 0.37482 0.26959 0.87448 0.0
C740 C 0.37549 0.2202 0.92508 0.0
C741 C 0.34756 0.21866 0.89846 0.0
H742 H 0.23872 0.85009 0.32593 0.0
H743 H 0.27562 0.7871 0.40781 0.0
H744 H 0.27537 0.82842 0.44966 0.0
H745 H 0.26703 0.8831 0.4623 0.0
H746 H 0.22653 0.9454 0.38141 0.0
H747 H 0.22563 0.90386 0.3398 0.0
C748 C 0.24649 0.84548 0.35301 0.0
C749 C 0.25736 0.81572 0.36382 0.0
C750 C 0.24574 0.86924 0.37699 0.0
C751 C 0.26697 0.80983 0.39902 0.0
C752 C 0.26701 0.83346 0.42286 0.0
C753 C 0.25793 0.88744 0.43556 0.0
C754 C 0.24716 0.91722 0.42474 0.0
C755 C 0.25684 0.86333 0.41205 0.0
C756 C 0.23486 0.9226 0.39025 0.0
C757 C 0.23448 0.8989 0.36647 0.0
H758 H 0.74688 0.76748 0.85815 0.0
H759 H 0.66686 0.81333 0.78867 0.0
H760 H 0.61208 0.81201 0.83662 0.0
H761 H 0.58644 0.79699 0.89818 0.0
H762 H 0.66664 0.75216 0.968 0.0
H763 H 0.72176 0.75338 0.91999 0.0
C764 C 0.71736 0.77704 0.85352 0.0
C765 C 0.71087 0.79043 0.81994 0.0
C766 C 0.68604 0.7762 0.88119 0.0
C767 C 0.67272 0.80316 0.8144 0.0
C768 C 0.64132 0.80225 0.84172 0.0
C769 C 0.61609 0.78758 0.90268 0.0
C770 C 0.62275 0.77438 0.93622 0.0
C771 C 0.64759 0.78875 0.87516 0.0
C772 C 0.66108 0.76225 0.94216 0.0
C773 C 0.69247 0.76302 0.91481 0.0
loop_
_geom_bond_atom_site_label_1
_geom_bond_atom_site_label_2
_geom_bond_distance
_geom_bond_site_symmetry_2
_ccdc_geom_bond_type
H0 C3 0.931 . S
H1 C6 0.928 . S
H2 C8 0.930 . S
C3 H0 0.931 . S
C3 C4 1.413 . S
C3 C5 1.360 . S
C4 C3 1.413 . S
C4 C8 1.429 . S
C5 C3 1.360 . S
C5 C6 1.372 . S
C6 H1 0.928 . S
C6 C5 1.372 . S
C6 C7 1.404 . S
C7 C6 1.404 . S
C7 C8 1.391 . S
C8 H2 0.930 . S
C8 C4 1.429 . S
C8 C7 1.391 . S
H9 C12 0.931 . S
H10 C15 0.928 . S
H11 C17 0.930 . S
C12 H9 0.931 . S
C12 C13 1.413 . S
C12 C14 1.360 . S
C13 C12 1.413 . S
C13 C17 1.429 . S
C14 C12 1.360 . S
C14 C15 1.372 . S
C15 H10 0.928 . S
C15 C14 1.372 . S
C15 C16 1.404 . S
C16 C15 1.404 . S
C16 C17 1.391 . S
C17 H11 0.930 . S
C17 C13 1.429 . S
C17 C16 1.391 . S
H18 C21 0.931 . S
H19 C24 0.928 . S
H20 C26 0.930 . S
C21 H18 0.931 . S
C21 C22 1.413 . S
C21 C23 1.360 . S
C22 C21 1.413 . S
C22 C26 1.429 . S
C23 C21 1.360 . S
C23 C24 1.372 . S
C24 H19 0.928 . S
C24 C23 1.372 . S
C24 C25 1.404 . S
C25 C24 1.404 . S
C25 C26 1.391 . S
C26 H20 0.930 . S
C26 C22 1.429 . S
C26 C25 1.391 . S
H27 C30 0.931 . S
H28 C33 0.928 . S
H29 C35 0.930 . S
C30 H27 0.931 . S
C30 C31 1.413 . S
C30 C32 1.360 . S
C31 C30 1.413 . S
C31 C35 1.429 . S
C32 C30 1.360 . S
C32 C33 1.372 . S
C33 H28 0.928 . S
C33 C32 1.372 . S
C33 C34 1.404 . S
C34 C33 1.404 . S
C34 C35 1.391 . S
C35 H29 0.930 . S
C35 C31 1.429 . S
C35 C34 1.391 . S
H36 C39 0.931 . S
H37 C42 0.928 . S
H38 C44 0.930 . S
C39 H36 0.931 . S
C39 C40 1.413 . S
C39 C41 1.360 . S
C40 C39 1.413 . S
C40 C44 1.429 . S
C41 C39 1.360 . S
C41 C42 1.372 . S
C42 H37 0.928 . S
C42 C41 1.372 . S
C42 C43 1.404 . S
C43 C42 1.404 . S
C43 C44 1.391 . S
C44 H38 0.930 . S
C44 C40 1.429 . S
C44 C43 1.391 . S
H45 C48 0.931 . S
H46 C51 0.928 . S
H47 C53 0.930 . S
C48 H45 0.931 . S
C48 C49 1.413 . S
C48 C50 1.360 . S
C49 C48 1.413 . S
C49 C53 1.429 . S
C50 C48 1.360 . S
C50 C51 1.372 . S
C51 H46 0.928 . S
C51 C50 1.372 . S
C51 C52 1.404 . S
C52 C51 1.404 . S
C52 C53 1.391 . S
C53 H47 0.930 . S
C53 C49 1.429 . S
C53 C52 1.391 . S
H54 C57 0.931 . S
H55 C60 0.928 . S
H56 C62 0.930 . S
C57 H54 0.931 . S
C57 C58 1.413 . S
C57 C59 1.360 . S
C58 C57 1.413 . S
C58 C62 1.429 . S
C59 C57 1.360 . S
C59 C60 1.372 . S
C60 H55 0.928 . S
C60 C59 1.372 . S
C60 C61 1.404 . S
C61 C60 1.404 . S
C61 C62 1.391 . S
C62 H56 0.930 . S
C62 C58 1.429 . S
C62 C61 1.391 . S
H63 C66 0.931 . S
H64 C69 0.928 . S
H65 C71 0.930 . S
C66 H63 0.931 . S
C66 C67 1.413 . S
C66 C68 1.360 . S
C67 C66 1.413 . S
C67 C71 1.429 . S
C68 C66 1.360 . S
C68 C69 1.372 . S
C69 H64 0.928 . S
C69 C68 1.372 . S
C69 C70 1.404 . S
C70 C69 1.404 . S
C70 C71 1.391 . S
C71 H65 0.930 . S
C71 C67 1.429 . S
C71 C70 1.391 . S
C72 C73 1.443 . S
C72 N76 1.376 . S
C72 C110 1.389 . S
C73 C72 1.443 . S
C73 C74 1.340 . S
C73 H113 0.951 . S
C74 C73 1.340 . S
C74 C75 1.439 . S
C74 H114 0.950 . S
C75 C74 1.439 . S
C75 N76 1.374 . S
C75 C109 1.395 . S
N76 C72 1.376 . S
N76 C75 1.374 . S
N76 Co77 2.008 . S
Co77 N76 2.008 . S
Co77 N78 1.995 1_455 S
Co77 N83 2.008 . S
Co77 N88 1.995 . S
Co77 N93 2.282 . S
Co77 N99 2.282 1_455 S
N78 Co77 1.995 1_655 S
N78 C79 1.376 . S
N78 C82 1.383 . S
C79 N78 1.376 . S
C79 C80 1.446 . S
C79 C109 1.391 1_655 S
C80 C79 1.446 . S
C80 C81 1.339 . S
C80 H115 0.949 . S
C81 C80 1.339 . S
C81 C82 1.439 . S
C81 H116 0.950 . S
C82 N78 1.383 . S
C82 C81 1.439 . S
C82 C111 1.392 . S
N83 Co77 2.008 . S
N83 C84 1.376 1_455 S
N83 C87 1.374 . S
C84 N83 1.376 1_655 S
C84 C85 1.443 . S
C84 C111 1.389 . S
C85 C84 1.443 . S
C85 C86 1.340 . S
C85 H117 0.951 . S
C86 C85 1.340 . S
C86 C87 1.439 1_655 S
C86 H118 0.950 . S
C87 N83 1.374 . S
C87 C86 1.439 1_455 S
C87 C112 1.395 . S
N88 Co77 1.995 . S
N88 C89 1.376 . S
N88 C92 1.383 . S
C89 N88 1.376 . S
C89 C90 1.446 . S
C89 C112 1.391 . S
C90 C89 1.446 . S
C90 C91 1.339 . S
C90 H119 0.949 . S
C91 C90 1.339 . S
C91 C92 1.439 . S
C91 H120 0.950 . S
C92 N88 1.383 . S
C92 C91 1.439 . S
C92 C110 1.392 . S
N93 Co77 2.282 . S
N93 C96 1.332 . S
N93 C98 1.332 . S
C94 C95 1.386 . S
C94 C97 1.388 . S
C95 C94 1.386 . S
C95 C96 1.382 . S
C95 H121 0.950 . S
C96 N93 1.332 . S
C96 C95 1.382 . S
C96 H107 0.952 . S
C97 C94 1.388 . S
C97 C98 1.382 . S
C97 H122 0.950 . S
C98 N93 1.332 . S
C98 C97 1.382 . S
C98 H108 0.948 . S
N99 Co77 2.282 1_655 S
N99 C103 1.332 . S
N99 C104 1.332 . S
C100 C101 1.388 . S
C100 C104 1.382 . S
C100 H123 0.950 . S
C101 C100 1.388 . S
C101 C102 1.386 . S
C102 C101 1.386 . S
C102 C103 1.382 . S
C102 H124 0.950 . S
C103 N99 1.332 . S
C103 C102 1.382 . S
C103 H105 0.952 . S
C104 N99 1.332 . S
C104 C100 1.382 . S
C104 H106 0.948 . S
H105 C103 0.952 . S
H106 C104 0.948 . S
H107 C96 0.952 . S
H108 C98 0.948 . S
C109 C75 1.395 . S
C109 C79 1.391 1_455 S
C110 C72 1.389 . S
C110 C92 1.392 . S
C111 C82 1.392 . S
C111 C84 1.389 . S
C112 C87 1.395 . S
C112 C89 1.391 . S
H113 C73 0.951 . S
H114 C74 0.950 . S
H115 C80 0.949 . S
H116 C81 0.950 . S
H117 C85 0.951 . S
H118 C86 0.950 . S
H119 C90 0.949 . S
H120 C91 0.950 . S
H121 C95 0.950 . S
H122 C97 0.950 . S
H123 C100 0.950 . S
H124 C102 0.950 . S
C125 C126 1.443 . S
C125 N129 1.376 . S
C125 C163 1.389 . S
C126 C125 1.443 . S
C126 C127 1.340 . S
C126 H166 0.951 . S
C127 C126 1.340 . S
C127 C128 1.439 . S
C127 H167 0.950 . S
C128 C127 1.439 . S
C128 N129 1.374 . S
C128 C162 1.395 . S
N129 C125 1.376 . S
N129 C128 1.374 . S
N129 Co130 2.008 . S
Co130 N129 2.008 . S
Co130 N131 1.995 1_455 S
Co130 N136 2.008 1_455 S
Co130 N141 1.995 . S
Co130 N146 2.282 . S
Co130 N152 2.282 1_455 S
N131 Co130 1.995 1_655 S
N131 C132 1.376 . S
N131 C135 1.383 . S
C132 N131 1.376 . S
C132 C133 1.446 . S
C132 C162 1.391 1_655 S
C133 C132 1.446 . S
C133 C134 1.339 . S
C133 H168 0.949 . S
C134 C133 1.339 . S
C134 C135 1.439 . S
C134 H169 0.950 . S
C135 N131 1.383 . S
C135 C134 1.439 . S
C135 C164 1.392 . S
N136 Co130 2.008 1_655 S
N136 C137 1.376 . S
N136 C140 1.374 1_655 S
C137 N136 1.376 . S
C137 C138 1.443 . S
C137 C164 1.389 . S
C138 C137 1.443 . S
C138 C139 1.340 . S
C138 H170 0.951 . S
C139 C138 1.340 . S
C139 C140 1.439 1_655 S
C139 H171 0.950 . S
C140 N136 1.374 1_455 S
C140 C139 1.439 1_455 S
C140 C165 1.395 . S
N141 Co130 1.995 . S
N141 C142 1.376 . S
N141 C145 1.383 . S
C142 N141 1.376 . S
C142 C143 1.446 . S
C142 C165 1.391 . S
C143 C142 1.446 . S
C143 C144 1.339 . S
C143 H172 0.949 . S
C144 C143 1.339 . S
C144 C145 1.439 . S
C144 H173 0.950 . S
C145 N141 1.383 . S
C145 C144 1.439 . S
C145 C163 1.392 . S
N146 Co130 2.282 . S
N146 C149 1.332 . S
N146 C151 1.332 . S
C147 C148 1.386 . S
C147 C150 1.388 . S
C148 C147 1.386 . S
C148 C149 1.382 . S
C148 H174 0.950 . S
C149 N146 1.332 . S
C149 C148 1.382 . S
C149 H160 0.952 . S
C150 C147 1.388 . S
C150 C151 1.382 . S
C150 H175 0.950 . S
C151 N146 1.332 . S
C151 C150 1.382 . S
C151 H161 0.948 . S
N152 Co130 2.282 1_655 S
N152 C156 1.332 . S
N152 C157 1.332 . S
C153 C154 1.388 . S
C153 C157 1.382 . S
C153 H176 0.950 . S
C154 C153 1.388 . S
C154 C155 1.386 . S
C155 C154 1.386 . S
C155 C156 1.382 . S
C155 H177 0.950 . S
C156 N152 1.332 . S
C156 C155 1.382 . S
C156 H158 0.952 . S
C157 N152 1.332 . S
C157 C153 1.382 . S
C157 H159 0.948 . S
H158 C156 0.952 . S
H159 C157 0.948 . S
H160 C149 0.952 . S
H161 C151 0.948 . S
C162 C128 1.395 . S
C162 C132 1.391 1_455 S
C163 C125 1.389 . S
C163 C145 1.392 . S
C164 C135 1.392 . S
C164 C137 1.389 . S
C165 C140 1.395 . S
C165 C142 1.391 . S
H166 C126 0.951 . S
H167 C127 0.950 . S
H168 C133 0.949 . S
H169 C134 0.950 . S
H170 C138 0.951 . S
H171 C139 0.950 . S
H172 C143 0.949 . S
H173 C144 0.950 . S
H174 C148 0.950 . S
H175 C150 0.950 . S
H176 C153 0.950 . S
H177 C155 0.950 . S
C178 C179 1.443 . S
C178 N182 1.376 . S
C178 C216 1.389 . S
C179 C178 1.443 . S
C179 C180 1.340 . S
C179 H219 0.951 . S
C180 C179 1.340 . S
C180 C181 1.439 . S
C180 H220 0.950 . S
C181 C180 1.439 . S
C181 N182 1.374 . S
C181 C215 1.395 1_565 S
N182 C178 1.376 . S
N182 C181 1.374 . S
N182 Co183 2.008 1_565 S
Co183 N182 2.008 1_545 S
Co183 N184 1.995 . S
Co183 N189 2.008 . S
Co183 N194 1.995 1_545 S
Co183 N199 2.282 . S
Co183 N205 2.282 1_545 S
N184 Co183 1.995 . S
N184 C185 1.376 . S
N184 C188 1.383 . S
C185 N184 1.376 . S
C185 C186 1.446 . S
C185 C215 1.391 . S
C186 C185 1.446 . S
C186 C187 1.339 . S
C186 H221 0.949 . S
C187 C186 1.339 . S
C187 C188 1.439 . S
C187 H222 0.950 . S
C188 N184 1.383 . S
C188 C187 1.439 . S
C188 C217 1.392 . S
N189 Co183 2.008 . S
N189 C190 1.376 . S
N189 C193 1.374 . S
C190 N189 1.376 . S
C190 C191 1.443 . S
C190 C217 1.389 . S
C191 C190 1.443 . S
C191 C192 1.340 . S
C191 H223 0.951 . S
C192 C191 1.340 . S
C192 C193 1.439 . S
C192 H224 0.950 . S
C193 N189 1.374 . S
C193 C192 1.439 . S
C193 C218 1.395 . S
N194 Co183 1.995 1_565 S
N194 C195 1.376 . S
N194 C198 1.383 . S
C195 N194 1.376 . S
C195 C196 1.446 . S
C195 C218 1.391 1_565 S
C196 C195 1.446 . S
C196 C197 1.339 . S
C196 H225 0.949 . S
C197 C196 1.339 . S
C197 C198 1.439 . S
C197 H226 0.950 . S
C198 N194 1.383 . S
C198 C197 1.439 . S
C198 C216 1.392 . S
N199 Co183 2.282 . S
N199 C202 1.332 . S
N199 C204 1.332 . S
C200 C201 1.386 . S
C200 C203 1.388 . S
C201 C200 1.386 . S
C201 C202 1.382 . S
C201 H227 0.950 . S
C202 N199 1.332 . S
C202 C201 1.382 . S
C202 H213 0.952 . S
C203 C200 1.388 . S
C203 C204 1.382 . S
C203 H228 0.950 . S
C204 N199 1.332 . S
C204 C203 1.382 . S
C204 H214 0.948 . S
N205 Co183 2.282 1_565 S
N205 C209 1.332 . S
N205 C210 1.332 . S
C206 C207 1.388 . S
C206 C210 1.382 . S
C206 H229 0.950 . S
C207 C206 1.388 . S
C207 C208 1.386 . S
C208 C207 1.386 . S
C208 C209 1.382 . S
C208 H230 0.950 . S
C209 N205 1.332 . S
C209 C208 1.382 . S
C209 H211 0.952 . S
C210 N205 1.332 . S
C210 C206 1.382 . S
C210 H212 0.948 . S
H211 C209 0.952 . S
H212 C210 0.948 . S
H213 C202 0.952 . S
H214 C204 0.948 . S
C215 C181 1.395 1_545 S
C215 C185 1.391 . S
C216 C178 1.389 . S
C216 C198 1.392 . S
C217 C188 1.392 . S
C217 C190 1.389 . S
C218 C193 1.395 . S
C218 C195 1.391 1_545 S
H219 C179 0.951 . S
H220 C180 0.950 . S
H221 C186 0.949 . S
H222 C187 0.950 . S
H223 C191 0.951 . S
H224 C192 0.950 . S
H225 C196 0.949 . S
H226 C197 0.950 . S
H227 C201 0.950 . S
H228 C203 0.950 . S
H229 C206 0.950 . S
H230 C208 0.950 . S
C231 C232 1.443 . S
C231 N235 1.376 . S
C231 C269 1.389 . S
C232 C231 1.443 . S
C232 C233 1.340 . S
C232 H272 0.951 . S
C233 C232 1.340 . S
C233 C234 1.439 . S
C233 H273 0.950 . S
C234 C233 1.439 . S
C234 N235 1.374 . S
C234 C268 1.395 . S
N235 C231 1.376 . S
N235 C234 1.374 . S
N235 Co236 2.008 . S
Co236 N235 2.008 . S
Co236 N237 1.995 1_554 S
Co236 N242 2.008 1_554 S
Co236 N247 1.995 . S
Co236 N252 2.282 1_554 S
Co236 N258 2.282 . S
N237 Co236 1.995 1_556 S
N237 C238 1.376 1_556 S
N237 C241 1.383 . S
C238 N237 1.376 1_554 S
C238 C239 1.446 1_554 S
C238 C268 1.391 . S
C239 C238 1.446 1_556 S
C239 C240 1.339 . S
C239 H274 0.949 . S
C240 C239 1.339 . S
C240 C241 1.439 . S
C240 H275 0.950 . S
C241 N237 1.383 . S
C241 C240 1.439 . S
C241 C270 1.392 . S
N242 Co236 2.008 1_556 S
N242 C243 1.376 . S
N242 C246 1.374 . S
C243 N242 1.376 . S
C243 C244 1.443 . S
C243 C270 1.389 . S
C244 C243 1.443 . S
C244 C245 1.340 . S
C244 H276 0.951 . S
C245 C244 1.340 . S
C245 C246 1.439 . S
C245 H277 0.950 . S
C246 N242 1.374 . S
C246 C245 1.439 . S
C246 C271 1.395 1_556 S
N247 Co236 1.995 . S
N247 C248 1.376 . S
N247 C251 1.383 . S
C248 N247 1.376 . S
C248 C249 1.446 . S
C248 C271 1.391 . S
C249 C248 1.446 . S
C249 C250 1.339 . S
C249 H278 0.949 . S
C250 C249 1.339 . S
C250 C251 1.439 . S
C250 H279 0.950 . S
C251 N247 1.383 . S
C251 C250 1.439 . S
C251 C269 1.392 . S
N252 Co236 2.282 1_556 S
N252 C255 1.332 . S
N252 C257 1.332 . S
C253 C254 1.386 . S
C253 C256 1.388 . S
C254 C253 1.386 . S
C254 C255 1.382 . S
C254 H280 0.950 . S
C255 N252 1.332 . S
C255 C254 1.382 . S
C255 H266 0.952 . S
C256 C253 1.388 . S
C256 C257 1.382 . S
C256 H281 0.950 . S
C257 N252 1.332 . S
C257 C256 1.382 . S
C257 H267 0.948 . S
N258 Co236 2.282 . S
N258 C262 1.332 . S
N258 C263 1.332 . S
C259 C260 1.388 . S
C259 C263 1.382 . S
C259 H282 0.950 . S
C260 C259 1.388 . S
C260 C261 1.386 . S
C261 C260 1.386 . S
C261 C262 1.382 . S
C261 H283 0.950 . S
C262 N258 1.332 . S
C262 C261 1.382 . S
C262 H264 0.952 . S
C263 N258 1.332 . S
C263 C259 1.382 . S
C263 H265 0.948 . S
H264 C262 0.952 . S
H265 C263 0.948 . S
H266 C255 0.952 . S
H267 C257 0.948 . S
C268 C234 1.395 . S
C268 C238 1.391 . S
C269 C231 1.389 . S
C269 C251 1.392 . S
C270 C241 1.392 . S
C270 C243 1.389 . S
C271 C246 1.395 1_554 S
C271 C248 1.391 . S
H272 C232 0.951 . S
H273 C233 0.950 . S
H274 C239 0.949 . S
H275 C240 0.950 . S
H276 C244 0.951 . S
H277 C245 0.950 . S
H278 C249 0.949 . S
H279 C250 0.950 . S
H280 C254 0.950 . S
H281 C256 0.950 . S
H282 C259 0.950 . S
H283 C261 0.950 . S
C284 C285 1.443 . S
C284 N288 1.376 1_565 S
C284 C322 1.389 . S
C285 C284 1.443 . S
C285 C286 1.340 . S
C285 H325 0.951 . S
C286 C285 1.340 . S
C286 C287 1.439 1_565 S
C286 H326 0.950 . S
C287 C286 1.439 1_545 S
C287 N288 1.374 . S
C287 C321 1.395 . S
N288 C284 1.376 1_545 S
N288 C287 1.374 . S
N288 Co289 2.008 . S
Co289 N288 2.008 . S
Co289 N290 1.995 . S
Co289 N295 2.008 . S
Co289 N300 1.995 . S
Co289 N305 2.282 . S
Co289 N311 2.282 1_545 S
N290 Co289 1.995 . S
N290 C291 1.376 . S
N290 C294 1.383 . S
C291 N290 1.376 . S
C291 C292 1.446 . S
C291 C321 1.391 . S
C292 C291 1.446 . S
C292 C293 1.339 . S
C292 H327 0.949 . S
C293 C292 1.339 . S
C293 C294 1.439 . S
C293 H328 0.950 . S
C294 N290 1.383 . S
C294 C293 1.439 . S
C294 C323 1.392 . S
N295 Co289 2.008 . S
N295 C296 1.376 . S
N295 C299 1.374 . S
C296 N295 1.376 . S
C296 C297 1.443 . S
C296 C323 1.389 . S
C297 C296 1.443 . S
C297 C298 1.340 . S
C297 H329 0.951 . S
C298 C297 1.340 . S
C298 C299 1.439 . S
C298 H330 0.950 . S
C299 N295 1.374 . S
C299 C298 1.439 . S
C299 C324 1.395 . S
N300 Co289 1.995 . S
N300 C301 1.376 . S
N300 C304 1.383 1_545 S
C301 N300 1.376 . S
C301 C302 1.446 1_545 S
C301 C324 1.391 . S
C302 C301 1.446 1_565 S
C302 C303 1.339 . S
C302 H331 0.949 . S
C303 C302 1.339 . S
C303 C304 1.439 . S
C303 H332 0.950 . S
C304 N300 1.383 1_565 S
C304 C303 1.439 . S
C304 C322 1.392 . S
N305 Co289 2.282 . S
N305 C308 1.332 . S
N305 C310 1.332 . S
C306 C307 1.386 . S
C306 C309 1.388 . S
C307 C306 1.386 . S
C307 C308 1.382 . S
C307 H333 0.950 . S
C308 N305 1.332 . S
C308 C307 1.382 . S
C308 H319 0.952 . S
C309 C306 1.388 . S
C309 C310 1.382 . S
C309 H334 0.950 . S
C310 N305 1.332 . S
C310 C309 1.382 . S
C310 H320 0.948 . S
N311 Co289 2.282 1_565 S
N311 C315 1.332 . S
N311 C316 1.332 . S
C312 C313 1.388 . S
C312 C316 1.382 . S
C312 H335 0.950 . S
C313 C312 1.388 . S
C313 C314 1.386 . S
C314 C313 1.386 . S
C314 C315 1.382 . S
C314 H336 0.950 . S
C315 N311 1.332 . S
C315 C314 1.382 . S
C315 H317 0.952 . S
C316 N311 1.332 . S
C316 C312 1.382 . S
C316 H318 0.948 . S
H317 C315 0.952 . S
H318 C316 0.948 . S
H319 C308 0.952 . S
H320 C310 0.948 . S
C321 C287 1.395 . S
C321 C291 1.391 . S
C322 C284 1.389 . S
C322 C304 1.392 . S
C323 C294 1.392 . S
C323 C296 1.389 . S
C324 C299 1.395 . S
C324 C301 1.391 . S
H325 C285 0.951 . S
H326 C286 0.950 . S
H327 C292 0.949 . S
H328 C293 0.950 . S
H329 C297 0.951 . S
H330 C298 0.950 . S
H331 C302 0.949 . S
H332 C303 0.950 . S
H333 C307 0.950 . S
H334 C309 0.950 . S
H335 C312 0.950 . S
H336 C314 0.950 . S
C337 C338 1.443 . S
C337 N341 1.376 . S
C337 C375 1.389 . S
C338 C337 1.443 . S
C338 C339 1.340 . S
C338 H378 0.951 . S
C339 C338 1.340 . S
C339 C340 1.439 . S
C339 H379 0.950 . S
C340 C339 1.439 . S
C340 N341 1.374 . S
C340 C374 1.395 . S
N341 C337 1.376 . S
N341 C340 1.374 . S
N341 Co342 2.008 . S
Co342 N341 2.008 . S
Co342 N343 1.995 . S
Co342 N348 2.008 . S
Co342 N353 1.995 . S
Co342 N358 2.282 . S
Co342 N364 2.282 . S
N343 Co342 1.995 . S
N343 C344 1.376 . S
N343 C347 1.383 1_554 S
C344 N343 1.376 . S
C344 C345 1.446 1_554 S
C344 C374 1.391 . S
C345 C344 1.446 1_556 S
C345 C346 1.339 . S
C345 H380 0.949 . S
C346 C345 1.339 . S
C346 C347 1.439 . S
C346 H381 0.950 . S
C347 N343 1.383 1_556 S
C347 C346 1.439 . S
C347 C376 1.392 . S
N348 Co342 2.008 . S
N348 C349 1.376 1_554 S
N348 C352 1.374 . S
C349 N348 1.376 1_556 S
C349 C350 1.443 . S
C349 C376 1.389 . S
C350 C349 1.443 . S
C350 C351 1.340 . S
C350 H382 0.951 . S
C351 C350 1.340 . S
C351 C352 1.439 1_556 S
C351 H383 0.950 . S
C352 N348 1.374 . S
C352 C351 1.439 1_554 S
C352 C377 1.395 . S
N353 Co342 1.995 . S
N353 C354 1.376 . S
N353 C357 1.383 . S
C354 N353 1.376 . S
C354 C355 1.446 . S
C354 C377 1.391 . S
C355 C354 1.446 . S
C355 C356 1.339 . S
C355 H384 0.949 . S
C356 C355 1.339 . S
C356 C357 1.439 . S
C356 H385 0.950 . S
C357 N353 1.383 . S
C357 C356 1.439 . S
C357 C375 1.392 . S
N358 Co342 2.282 . S
N358 C361 1.332 1_554 S
N358 C363 1.332 1_554 S
C359 C360 1.386 . S
C359 C362 1.388 . S
C360 C359 1.386 . S
C360 C361 1.382 . S
C360 H386 0.950 . S
C361 N358 1.332 1_556 S
C361 C360 1.382 . S
C361 H372 0.952 1_556 S
C362 C359 1.388 . S
C362 C363 1.382 . S
C362 H387 0.950 . S
C363 N358 1.332 1_556 S
C363 C362 1.382 . S
C363 H373 0.948 . S
N364 Co342 2.282 . S
N364 C368 1.332 . S
N364 C369 1.332 . S
C365 C366 1.388 . S
C365 C369 1.382 . S
C365 H388 0.950 . S
C366 C365 1.388 . S
C366 C367 1.386 . S
C367 C366 1.386 . S
C367 C368 1.382 . S
C367 H389 0.950 . S
C368 N364 1.332 . S
C368 C367 1.382 . S
C368 H370 0.952 . S
C369 N364 1.332 . S
C369 C365 1.382 . S
C369 H371 0.948 . S
H370 C368 0.952 . S
H371 C369 0.948 . S
H372 C361 0.952 1_554 S
H373 C363 0.948 . S
C374 C340 1.395 . S
C374 C344 1.391 . S
C375 C337 1.389 . S
C375 C357 1.392 . S
C376 C347 1.392 . S
C376 C349 1.389 . S
C377 C352 1.395 . S
C377 C354 1.391 . S
H378 C338 0.951 . S
H379 C339 0.950 . S
H380 C345 0.949 . S
H381 C346 0.950 . S
H382 C350 0.951 . S
H383 C351 0.950 . S
H384 C355 0.949 . S
H385 C356 0.950 . S
H386 C360 0.950 . S
H387 C362 0.950 . S
H388 C365 0.950 . S
H389 C367 0.950 . S
H390 C396 0.930 . S
H391 C399 0.930 . S
H392 C400 0.930 . S
H393 C401 0.930 . S
H394 C404 0.930 . S
H395 C405 0.930 . S
C396 H390 0.930 . S
C396 C397 1.355 . S
C396 C398 1.415 . S
C397 C396 1.355 . S
C397 C399 1.419 . S
C398 C396 1.415 . S
C398 C403 1.425 . S
C398 C405 1.409 . S
C399 H391 0.930 . S
C399 C397 1.419 . S
C399 C400 1.362 . S
C400 H392 0.930 . S
C400 C399 1.362 . S
C400 C403 1.409 . S
C401 H393 0.930 . S
C401 C402 1.355 . S
C401 C403 1.415 . S
C402 C401 1.355 . S
C402 C404 1.419 . S
C403 C398 1.425 . S
C403 C400 1.409 . S
C403 C401 1.415 . S
C404 H394 0.930 . S
C404 C402 1.419 . S
C404 C405 1.362 . S
C405 H395 0.930 . S
C405 C398 1.409 . S
C405 C404 1.362 . S
H406 C412 0.930 . S
H407 C415 0.930 . S
H408 C416 0.930 . S
H409 C417 0.930 . S
H410 C420 0.930 . S
H411 C421 0.930 . S
C412 H406 0.930 . S
C412 C413 1.355 . S
C412 C414 1.415 . S
C413 C412 1.355 . S
C413 C415 1.419 . S
C414 C412 1.415 . S
C414 C419 1.425 . S
C414 C421 1.409 . S
C415 H407 0.930 . S
C415 C413 1.419 . S
C415 C416 1.362 . S
C416 H408 0.930 . S
C416 C415 1.362 . S
C416 C419 1.409 . S
C417 H409 0.930 . S
C417 C418 1.355 . S
C417 C419 1.415 . S
C418 C417 1.355 . S
C418 C420 1.419 . S
C419 C414 1.425 . S
C419 C416 1.409 . S
C419 C417 1.415 . S
C420 H410 0.930 . S
C420 C418 1.419 . S
C420 C421 1.362 . S
C421 H411 0.930 . S
C421 C414 1.409 . S
C421 C420 1.362 . S
H422 C428 0.930 . S
H423 C431 0.930 . S
H424 C432 0.930 . S
H425 C433 0.930 . S
H426 C436 0.930 . S
H427 C437 0.930 . S
C428 H422 0.930 . S
C428 C429 1.355 . S
C428 C430 1.415 . S
C429 C428 1.355 . S
C429 C431 1.419 . S
C430 C428 1.415 . S
C430 C435 1.425 . S
C430 C437 1.409 . S
C431 H423 0.930 . S
C431 C429 1.419 . S
C431 C432 1.362 . S
C432 H424 0.930 . S
C432 C431 1.362 . S
C432 C435 1.409 . S
C433 H425 0.930 . S
C433 C434 1.355 . S
C433 C435 1.415 . S
C434 C433 1.355 . S
C434 C436 1.419 . S
C435 C430 1.425 . S
C435 C432 1.409 . S
C435 C433 1.415 . S
C436 H426 0.930 . S
C436 C434 1.419 . S
C436 C437 1.362 . S
C437 H427 0.930 . S
C437 C430 1.409 . S
C437 C436 1.362 . S
H438 C444 0.930 . S
H439 C447 0.930 . S
H440 C448 0.930 . S
H441 C449 0.930 . S
H442 C452 0.930 . S
H443 C453 0.930 . S
C444 H438 0.930 . S
C444 C445 1.355 . S
C444 C446 1.415 . S
C445 C444 1.355 . S
C445 C447 1.419 . S
C446 C444 1.415 . S
C446 C451 1.425 . S
C446 C453 1.409 . S
C447 H439 0.930 . S
C447 C445 1.419 . S
C447 C448 1.362 . S
C448 H440 0.930 . S
C448 C447 1.362 . S
C448 C451 1.409 . S
C449 H441 0.930 . S
C449 C450 1.355 . S
C449 C451 1.415 . S
C450 C449 1.355 . S
C450 C452 1.419 . S
C451 C446 1.425 . S
C451 C448 1.409 . S
C451 C449 1.415 . S
C452 H442 0.930 . S
C452 C450 1.419 . S
C452 C453 1.362 . S
C453 H443 0.930 . S
C453 C446 1.409 . S
C453 C452 1.362 . S
H454 C460 0.930 . S
H455 C463 0.930 . S
H456 C464 0.930 . S
H457 C465 0.930 . S
H458 C468 0.930 . S
H459 C469 0.930 . S
C460 H454 0.930 . S
C460 C461 1.355 . S
C460 C462 1.415 . S
C461 C460 1.355 . S
C461 C463 1.419 . S
C462 C460 1.415 . S
C462 C467 1.425 . S
C462 C469 1.409 . S
C463 H455 0.930 . S
C463 C461 1.419 . S
C463 C464 1.362 . S
C464 H456 0.930 . S
C464 C463 1.362 . S
C464 C467 1.409 . S
C465 H457 0.930 . S
C465 C466 1.355 . S
C465 C467 1.415 . S
C466 C465 1.355 . S
C466 C468 1.419 . S
C467 C462 1.425 . S
C467 C464 1.409 . S
C467 C465 1.415 . S
C468 H458 0.930 . S
C468 C466 1.419 . S
C468 C469 1.362 . S
C469 H459 0.930 . S
C469 C462 1.409 . S
C469 C468 1.362 . S
H470 C476 0.930 . S
H471 C479 0.930 . S
H472 C480 0.930 . S
H473 C481 0.930 . S
H474 C484 0.930 . S
H475 C485 0.930 . S
C476 H470 0.930 . S
C476 C477 1.355 . S
C476 C478 1.415 . S
C477 C476 1.355 . S
C477 C479 1.419 . S
C478 C476 1.415 . S
C478 C483 1.425 . S
C478 C485 1.409 . S
C479 H471 0.930 . S
C479 C477 1.419 . S
C479 C480 1.362 . S
C480 H472 0.930 . S
C480 C479 1.362 . S
C480 C483 1.409 . S
C481 H473 0.930 . S
C481 C482 1.355 . S
C481 C483 1.415 . S
C482 C481 1.355 . S
C482 C484 1.419 . S
C483 C478 1.425 . S
C483 C480 1.409 . S
C483 C481 1.415 . S
C484 H474 0.930 . S
C484 C482 1.419 . S
C484 C485 1.362 . S
C485 H475 0.930 . S
C485 C478 1.409 . S
C485 C484 1.362 . S
H486 C492 0.930 . S
H487 C495 0.930 . S
H488 C496 0.930 . S
H489 C497 0.930 . S
H490 C500 0.930 . S
H491 C501 0.930 . S
C492 H486 0.930 . S
C492 C493 1.355 . S
C492 C494 1.415 . S
C493 C492 1.355 . S
C493 C495 1.419 . S
C494 C492 1.415 . S
C494 C499 1.425 . S
C494 C501 1.409 . S
C495 H487 0.930 . S
C495 C493 1.419 . S
C495 C496 1.362 . S
C496 H488 0.930 . S
C496 C495 1.362 . S
C496 C499 1.409 . S
C497 H489 0.930 . S
C497 C498 1.355 . S
C497 C499 1.415 . S
C498 C497 1.355 . S
C498 C500 1.419 . S
C499 C494 1.425 . S
C499 C496 1.409 . S
C499 C497 1.415 . S
C500 H490 0.930 . S
C500 C498 1.419 . S
C500 C501 1.362 . S
C501 H491 0.930 . S
C501 C494 1.409 . S
C501 C500 1.362 . S
H502 C508 0.930 . S
H503 C511 0.930 . S
H504 C512 0.930 . S
H505 C513 0.930 . S
H506 C516 0.930 . S
H507 C517 0.930 . S
C508 H502 0.930 . S
C508 C509 1.355 . S
C508 C510 1.415 . S
C509 C508 1.355 . S
C509 C511 1.419 . S
C510 C508 1.415 . S
C510 C515 1.425 . S
C510 C517 1.409 . S
C511 H503 0.930 . S
C511 C509 1.419 . S
C511 C512 1.362 . S
C512 H504 0.930 . S
C512 C511 1.362 . S
C512 C515 1.409 . S
C513 H505 0.930 . S
C513 C514 1.355 . S
C513 C515 1.415 . S
C514 C513 1.355 . S
C514 C516 1.419 . S
C515 C510 1.425 . S
C515 C512 1.409 . S
C515 C513 1.415 . S
C516 H506 0.930 . S
C516 C514 1.419 . S
C516 C517 1.362 . S
C517 H507 0.930 . S
C517 C510 1.409 . S
C517 C516 1.362 . S
H518 C524 0.930 . S
H519 C527 0.930 . S
H520 C528 0.930 . S
H521 C529 0.930 . S
H522 C532 0.930 . S
H523 C533 0.930 . S
C524 H518 0.930 . S
C524 C525 1.355 . S
C524 C526 1.415 . S
C525 C524 1.355 . S
C525 C527 1.419 . S
C526 C524 1.415 . S
C526 C531 1.425 . S
C526 C533 1.409 . S
C527 H519 0.930 . S
C527 C525 1.419 . S
C527 C528 1.362 . S
C528 H520 0.930 . S
C528 C527 1.362 . S
C528 C531 1.409 . S
C529 H521 0.930 . S
C529 C530 1.355 . S
C529 C531 1.415 . S
C530 C529 1.355 . S
C530 C532 1.419 . S
C531 C526 1.425 . S
C531 C528 1.409 . S
C531 C529 1.415 . S
C532 H522 0.930 . S
C532 C530 1.419 . S
C532 C533 1.362 . S
C533 H523 0.930 . S
C533 C526 1.409 . S
C533 C532 1.362 . S
H534 C540 0.930 . S
H535 C543 0.930 . S
H536 C544 0.930 . S
H537 C545 0.930 . S
H538 C548 0.930 . S
H539 C549 0.930 . S
C540 H534 0.930 . S
C540 C541 1.355 . S
C540 C542 1.415 . S
C541 C540 1.355 . S
C541 C543 1.419 . S
C542 C540 1.415 . S
C542 C547 1.425 . S
C542 C549 1.409 . S
C543 H535 0.930 . S
C543 C541 1.419 . S
C543 C544 1.362 . S
C544 H536 0.930 . S
C544 C543 1.362 . S
C544 C547 1.409 . S
C545 H537 0.930 . S
C545 C546 1.355 . S
C545 C547 1.415 . S
C546 C545 1.355 . S
C546 C548 1.419 . S
C547 C542 1.425 . S
C547 C544 1.409 . S
C547 C545 1.415 . S
C548 H538 0.930 . S
C548 C546 1.419 . S
C548 C549 1.362 . S
C549 H539 0.930 . S
C549 C542 1.409 . S
C549 C548 1.362 . S
H550 C556 0.930 . S
H551 C559 0.930 . S
H552 C560 0.930 . S
H553 C561 0.930 . S
H554 C564 0.930 . S
H555 C565 0.930 . S
C556 H550 0.930 . S
C556 C557 1.355 . S
C556 C558 1.415 . S
C557 C556 1.355 . S
C557 C559 1.419 . S
C558 C556 1.415 . S
C558 C563 1.425 . S
C558 C565 1.409 . S
C559 H551 0.930 . S
C559 C557 1.419 . S
C559 C560 1.362 . S
C560 H552 0.930 . S
C560 C559 1.362 . S
C560 C563 1.409 . S
C561 H553 0.930 . S
C561 C562 1.355 . S
C561 C563 1.415 . S
C562 C561 1.355 . S
C562 C564 1.419 . S
C563 C558 1.425 . S
C563 C560 1.409 . S
C563 C561 1.415 . S
C564 H554 0.930 . S
C564 C562 1.419 . S
C564 C565 1.362 . S
C565 H555 0.930 . S
C565 C558 1.409 . S
C565 C564 1.362 . S
H566 C572 0.930 . S
H567 C575 0.930 . S
H568 C576 0.930 . S
H569 C577 0.930 . S
H570 C580 0.930 . S
H571 C581 0.930 . S
C572 H566 0.930 . S
C572 C573 1.355 . S
C572 C574 1.415 . S
C573 C572 1.355 . S
C573 C575 1.419 . S
C574 C572 1.415 . S
C574 C579 1.425 . S
C574 C581 1.409 . S
C575 H567 0.930 . S
C575 C573 1.419 . S
C575 C576 1.362 . S
C576 H568 0.930 . S
C576 C575 1.362 . S
C576 C579 1.409 . S
C577 H569 0.930 . S
C577 C578 1.355 . S
C577 C579 1.415 . S
C578 C577 1.355 . S
C578 C580 1.419 . S
C579 C574 1.425 . S
C579 C576 1.409 . S
C579 C577 1.415 . S
C580 H570 0.930 . S
C580 C578 1.419 . S
C580 C581 1.362 . S
C581 H571 0.930 . S
C581 C574 1.409 . S
C581 C580 1.362 . S
H582 C588 0.930 . S
H583 C591 0.930 . S
H584 C592 0.930 . S
H585 C593 0.930 . S
H586 C596 0.930 . S
H587 C597 0.930 . S
C588 H582 0.930 . S
C588 C589 1.355 . S
C588 C590 1.415 . S
C589 C588 1.355 . S
C589 C591 1.419 . S
C590 C588 1.415 . S
C590 C595 1.425 . S
C590 C597 1.409 . S
C591 H583 0.930 . S
C591 C589 1.419 . S
C591 C592 1.362 . S
C592 H584 0.930 . S
C592 C591 1.362 . S
C592 C595 1.409 . S
C593 H585 0.930 . S
C593 C594 1.355 . S
C593 C595 1.415 . S
C594 C593 1.355 . S
C594 C596 1.419 . S
C595 C590 1.425 . S
C595 C592 1.409 . S
C595 C593 1.415 . S
C596 H586 0.930 . S
C596 C594 1.419 . S
C596 C597 1.362 . S
C597 H587 0.930 . S
C597 C590 1.409 . S
C597 C596 1.362 . S
H598 C604 0.930 . S
H599 C607 0.930 . S
H600 C608 0.930 . S
H601 C609 0.930 . S
H602 C612 0.930 . S
H603 C613 0.930 . S
C604 H598 0.930 . S
C604 C605 1.355 . S
C604 C606 1.415 . S
C605 C604 1.355 . S
C605 C607 1.419 . S
C606 C604 1.415 . S
C606 C611 1.425 . S
C606 C613 1.409 . S
C607 H599 0.930 . S
C607 C605 1.419 . S
C607 C608 1.362 . S
C608 H600 0.930 . S
C608 C607 1.362 . S
C608 C611 1.409 . S
C609 H601 0.930 . S
C609 C610 1.355 . S
C609 C611 1.415 . S
C610 C609 1.355 . S
C610 C612 1.419 . S
C611 C606 1.425 . S
C611 C608 1.409 . S
C611 C609 1.415 . S
C612 H602 0.930 . S
C612 C610 1.419 . S
C612 C613 1.362 . S
C613 H603 0.930 . S
C613 C606 1.409 . S
C613 C612 1.362 . S
H614 C620 0.930 . S
H615 C623 0.930 . S
H616 C624 0.930 . S
H617 C625 0.930 . S
H618 C628 0.930 . S
H619 C629 0.930 . S
C620 H614 0.930 . S
C620 C621 1.355 . S
C620 C622 1.415 . S
C621 C620 1.355 . S
C621 C623 1.419 . S
C622 C620 1.415 . S
C622 C627 1.425 . S
C622 C629 1.409 . S
C623 H615 0.930 . S
C623 C621 1.419 . S
C623 C624 1.362 . S
C624 H616 0.930 . S
C624 C623 1.362 . S
C624 C627 1.409 . S
C625 H617 0.930 . S
C625 C626 1.355 . S
C625 C627 1.415 . S
C626 C625 1.355 . S
C626 C628 1.419 . S
C627 C622 1.425 . S
C627 C624 1.409 . S
C627 C625 1.415 . S
C628 H618 0.930 . S
C628 C626 1.419 . S
C628 C629 1.362 . S
C629 H619 0.930 . S
C629 C622 1.409 . S
C629 C628 1.362 . S
H630 C636 0.930 . S
H631 C639 0.930 . S
H632 C640 0.930 . S
H633 C641 0.930 . S
H634 C644 0.930 . S
H635 C645 0.930 . S
C636 H630 0.930 . S
C636 C637 1.355 . S
C636 C638 1.415 . S
C637 C636 1.355 . S
C637 C639 1.419 . S
C638 C636 1.415 . S
C638 C643 1.425 . S
C638 C645 1.409 . S
C639 H631 0.930 . S
C639 C637 1.419 . S
C639 C640 1.362 . S
C640 H632 0.930 . S
C640 C639 1.362 . S
C640 C643 1.409 . S
C641 H633 0.930 . S
C641 C642 1.355 . S
C641 C643 1.415 . S
C642 C641 1.355 . S
C642 C644 1.419 . S
C643 C638 1.425 . S
C643 C640 1.409 . S
C643 C641 1.415 . S
C644 H634 0.930 . S
C644 C642 1.419 . S
C644 C645 1.362 . S
C645 H635 0.930 . S
C645 C638 1.409 . S
C645 C644 1.362 . S
H646 C652 0.930 . S
H647 C655 0.930 . S
H648 C656 0.930 . S
H649 C657 0.930 . S
H650 C660 0.930 . S
H651 C661 0.930 . S
C652 H646 0.930 . S
C652 C653 1.355 . S
C652 C654 1.415 . S
C653 C652 1.355 . S
C653 C655 1.419 . S
C654 C652 1.415 . S
C654 C659 1.425 . S
C654 C661 1.409 . S
C655 H647 0.930 . S
C655 C653 1.419 . S
C655 C656 1.362 . S
C656 H648 0.930 . S
C656 C655 1.362 . S
C656 C659 1.409 . S
C657 H649 0.930 . S
C657 C658 1.355 . S
C657 C659 1.415 . S
C658 C657 1.355 . S
C658 C660 1.419 . S
C659 C654 1.425 . S
C659 C656 1.409 . S
C659 C657 1.415 . S
C660 H650 0.930 . S
C660 C658 1.419 . S
C660 C661 1.362 . S
C661 H651 0.930 . S
C661 C654 1.409 . S
C661 C660 1.362 . S
H662 C668 0.930 . S
H663 C671 0.930 . S
H664 C672 0.930 . S
H665 C673 0.930 . S
H666 C676 0.930 . S
H667 C677 0.930 . S
C668 H662 0.930 . S
C668 C669 1.355 . S
C668 C670 1.415 . S
C669 C668 1.355 . S
C669 C671 1.419 . S
C670 C668 1.415 . S
C670 C675 1.425 . S
C670 C677 1.409 . S
C671 H663 0.930 . S
C671 C669 1.419 . S
C671 C672 1.362 . S
C672 H664 0.930 . S
C672 C671 1.362 . S
C672 C675 1.409 . S
C673 H665 0.930 . S
C673 C674 1.355 . S
C673 C675 1.415 . S
C674 C673 1.355 . S
C674 C676 1.419 . S
C675 C670 1.425 . S
C675 C672 1.409 . S
C675 C673 1.415 . S
C676 H666 0.930 . S
C676 C674 1.419 . S
C676 C677 1.362 . S
C677 H667 0.930 . S
C677 C670 1.409 . S
C677 C676 1.362 . S
H678 C684 0.930 . S
H679 C687 0.930 . S
H680 C688 0.930 . S
H681 C689 0.930 . S
H682 C692 0.930 . S
H683 C693 0.930 . S
C684 H678 0.930 . S
C684 C685 1.355 . S
C684 C686 1.415 . S
C685 C684 1.355 . S
C685 C687 1.419 . S
C686 C684 1.415 . S
C686 C691 1.425 . S
C686 C693 1.409 . S
C687 H679 0.930 . S
C687 C685 1.419 . S
C687 C688 1.362 . S
C688 H680 0.930 . S
C688 C687 1.362 . S
C688 C691 1.409 . S
C689 H681 0.930 . S
C689 C690 1.355 . S
C689 C691 1.415 . S
C690 C689 1.355 . S
C690 C692 1.419 . S
C691 C686 1.425 . S
C691 C688 1.409 . S
C691 C689 1.415 . S
C692 H682 0.930 . S
C692 C690 1.419 . S
C692 C693 1.362 . S
C693 H683 0.930 . S
C693 C686 1.409 . S
C693 C692 1.362 . S
H694 C700 0.930 . S
H695 C703 0.930 . S
H696 C704 0.930 . S
H697 C705 0.930 . S
H698 C708 0.930 . S
H699 C709 0.930 . S
C700 H694 0.930 . S
C700 C701 1.355 . S
C700 C702 1.415 . S
C701 C700 1.355 . S
C701 C703 1.419 . S
C702 C700 1.415 . S
C702 C707 1.425 . S
C702 C709 1.409 . S
C703 H695 0.930 . S
C703 C701 1.419 . S
C703 C704 1.362 . S
C704 H696 0.930 . S
C704 C703 1.362 . S
C704 C707 1.409 . S
C705 H697 0.930 . S
C705 C706 1.355 . S
C705 C707 1.415 . S
C706 C705 1.355 . S
C706 C708 1.419 . S
C707 C702 1.425 . S
C707 C704 1.409 . S
C707 C705 1.415 . S
C708 H698 0.930 . S
C708 C706 1.419 . S
C708 C709 1.362 . S
C709 H699 0.930 . S
C709 C702 1.409 . S
C709 C708 1.362 . S
H710 C716 0.930 . S
H711 C719 0.930 . S
H712 C720 0.930 . S
H713 C721 0.930 . S
H714 C724 0.930 . S
H715 C725 0.930 . S
C716 H710 0.930 . S
C716 C717 1.355 . S
C716 C718 1.415 . S
C717 C716 1.355 . S
C717 C719 1.419 . S
C718 C716 1.415 . S
C718 C723 1.425 . S
C718 C725 1.409 . S
C719 H711 0.930 . S
C719 C717 1.419 . S
C719 C720 1.362 . S
C720 H712 0.930 . S
C720 C719 1.362 . S
C720 C723 1.409 . S
C721 H713 0.930 . S
C721 C722 1.355 . S
C721 C723 1.415 . S
C722 C721 1.355 . S
C722 C724 1.419 . S
C723 C718 1.425 . S
C723 C720 1.409 . S
C723 C721 1.415 . S
C724 H714 0.930 . S
C724 C722 1.419 . S
C724 C725 1.362 . S
C725 H715 0.930 . S
C725 C718 1.409 . S
C725 C724 1.362 . S
H726 C732 0.930 . S
H727 C735 0.930 . S
H728 C736 0.930 . S
H729 C737 0.930 . S
H730 C740 0.930 . S
H731 C741 0.930 . S
C732 H726 0.930 . S
C732 C733 1.355 . S
C732 C734 1.415 . S
C733 C732 1.355 . S
C733 C735 1.419 . S
C734 C732 1.415 . S
C734 C739 1.425 . S
C734 C741 1.409 . S
C735 H727 0.930 . S
C735 C733 1.419 . S
C735 C736 1.362 . S
C736 H728 0.930 . S
C736 C735 1.362 . S
C736 C739 1.409 . S
C737 H729 0.930 . S
C737 C738 1.355 . S
C737 C739 1.415 . S
C738 C737 1.355 . S
C738 C740 1.419 . S
C739 C734 1.425 . S
C739 C736 1.409 . S
C739 C737 1.415 . S
C740 H730 0.930 . S
C740 C738 1.419 . S
C740 C741 1.362 . S
C741 H731 0.930 . S
C741 C734 1.409 . S
C741 C740 1.362 . S
H742 C748 0.930 . S
H743 C751 0.930 . S
H744 C752 0.930 . S
H745 C753 0.930 . S
H746 C756 0.930 . S
H747 C757 0.930 . S
C748 H742 0.930 . S
C748 C749 1.355 . S
C748 C750 1.415 . S
C749 C748 1.355 . S
C749 C751 1.419 . S
C750 C748 1.415 . S
C750 C755 1.425 . S
C750 C757 1.409 . S
C751 H743 0.930 . S
C751 C749 1.419 . S
C751 C752 1.362 . S
C752 H744 0.930 . S
C752 C751 1.362 . S
C752 C755 1.409 . S
C753 H745 0.930 . S
C753 C754 1.355 . S
C753 C755 1.415 . S
C754 C753 1.355 . S
C754 C756 1.419 . S
C755 C750 1.425 . S
C755 C752 1.409 . S
C755 C753 1.415 . S
C756 H746 0.930 . S
C756 C754 1.419 . S
C756 C757 1.362 . S
C757 H747 0.930 . S
C757 C750 1.409 . S
C757 C756 1.362 . S
H758 C764 0.930 . S
H759 C767 0.930 . S
H760 C768 0.930 . S
H761 C769 0.930 . S
H762 C772 0.930 . S
H763 C773 0.930 . S
C764 H758 0.930 . S
C764 C765 1.355 . S
C764 C766 1.415 . S
C765 C764 1.355 . S
C765 C767 1.419 . S
C766 C764 1.415 . S
C766 C771 1.425 . S
C766 C773 1.409 . S
C767 H759 0.930 . S
C767 C765 1.419 . S
C767 C768 1.362 . S
C768 H760 0.930 . S
C768 C767 1.362 . S
C768 C771 1.409 . S
C769 H761 0.930 . S
C769 C770 1.355 . S
C769 C771 1.415 . S
C770 C769 1.355 . S
C770 C772 1.419 . S
C771 C766 1.425 . S
C771 C768 1.409 . S
C771 C769 1.415 . S
C772 H762 0.930 . S
C772 C770 1.419 . S
C772 C773 1.362 . S
C773 H763 0.930 . S
C773 C766 1.409 . S
C773 C772 1.362 . S
C402 C94 1.533 . S
C397 C4 1.538 . S
C418 C163 1.515 . S
C413 C13 1.535 . S
C434 C101 1.542 . S
C429 C25 1.548 . S
C450 C164 1.522 . S
C445 C34 1.532 . S
C466 C217 1.524 . S
C461 C7 1.535 . S
C482 C253 1.513 . S
C477 C14 1.505 . S
C493 C23 1.536 . S
C498 C313 1.534 . S
C514 C376 1.511 . S
C509 C31 1.510 . S
C530 C216 1.514 . S
C525 C16 1.532 . S
C541 C22 1.510 . S
C546 C260 1.514 . S
C562 C306 1.521 . S
C557 C32 1.527 . S
C578 C375 1.518 . S
C573 C5 1.509 . S
C589 C43 1.549 . S
C594 C154 1.540 . S
C610 C111 1.546 . S
C605 C52 1.542 . S
C621 C58 1.544 . S
C626 C147 1.544 . S
C637 C68 1.541 . S
C642 C110 1.538 . S
C658 C322 1.530 . S
C653 C40 1.525 . S
C674 C366 1.505 . S
C669 C50 1.513 . S
C690 C200 1.530 . S
C685 C59 1.544 . S
C701 C70 1.509 . S
C706 C269 1.505 . S
C722 C323 1.513 . S
C717 C49 1.524 . S
C738 C359 1.512 . S
C733 C61 1.515 . S
C754 C207 1.554 . S
C749 C67 1.553 . S
C765 C41 1.519 . S
C770 C270 1.512 . S
