# Generated by pormake.
# Topology ptr, (4,4)-cn, num edge types: 1
# Building blocks:
#     Node 0, Type 0, BuildingBlock: AZAVOO_clean_sbu_0, # of connection points: 4
#     Node 1, Type 0, BuildingBlock: AZAVOO_clean_sbu_0, # of connection points: 4
#     Node 2, Type 0, BuildingBlock: AZAVOO_clean_sbu_0, # of connection points: 4
#     Node 3, Type 0, BuildingBlock: AZAVOO_clean_sbu_0, # of connection points: 4
#     Node 4, Type 0, BuildingBlock: AZAVOO_clean_sbu_0, # of connection points: 4
#     Node 5, Type 0, BuildingBlock: AZAVOO_clean_sbu_0, # of connection points: 4
#     Node 6, Type 0, BuildingBlock: AZAVOO_clean_sbu_0, # of connection points: 4
#     Node 7, Type 0, BuildingBlock: AZAVOO_clean_sbu_0, # of connection points: 4
#     Node 8, Type 0, BuildingBlock: AZAVOO_clean_sbu_0, # of connection points: 4
#     Node 9, Type 0, BuildingBlock: AZAVOO_clean_sbu_0, # of connection points: 4
#     Node 10, Type 0, BuildingBlock: AZAVOO_clean_sbu_0, # of connection points: 4
#     Node 11, Type 0, BuildingBlock: AZAVOO_clean_sbu_0, # of connection points: 4
#     Node 12, Type 0, BuildingBlock: AZAVOO_clean_sbu_0, # of connection points: 4
#     Node 13, Type 0, BuildingBlock: AZAVOO_clean_sbu_0, # of connection points: 4
#     Node 14, Type 0, BuildingBlock: AZAVOO_clean_sbu_0, # of connection points: 4
#     Node 15, Type 0, BuildingBlock: AZAVOO_clean_sbu_0, # of connection points: 4
#     Node 16, Type 0, BuildingBlock: AZAVOO_clean_sbu_0, # of connection points: 4
#     Node 17, Type 0, BuildingBlock: AZAVOO_clean_sbu_0, # of connection points: 4
#     Node 18, Type 1, BuildingBlock: NAHDIM_clean_linker_0, # of connection points: 4
#     Node 19, Type 1, BuildingBlock: NAHDIM_clean_linker_0, # of connection points: 4
#     Node 20, Type 1, BuildingBlock: NAHDIM_clean_linker_0, # of connection points: 4
#     Node 21, Type 1, BuildingBlock: NAHDIM_clean_linker_0, # of connection points: 4
#     Node 22, Type 1, BuildingBlock: NAHDIM_clean_linker_0, # of connection points: 4
#     Node 23, Type 1, BuildingBlock: NAHDIM_clean_linker_0, # of connection points: 4
#     Node 24, Type 1, BuildingBlock: NAHDIM_clean_linker_0, # of connection points: 4
#     Node 25, Type 1, BuildingBlock: NAHDIM_clean_linker_0, # of connection points: 4
#     Node 26, Type 1, BuildingBlock: NAHDIM_clean_linker_0, # of connection points: 4
#     Node 27, Type 1, BuildingBlock: NAHDIM_clean_linker_0, # of connection points: 4
#     Node 28, Type 1, BuildingBlock: NAHDIM_clean_linker_0, # of connection points: 4
#     Node 29, Type 1, BuildingBlock: NAHDIM_clean_linker_0, # of connection points: 4
#     Node 30, Type 1, BuildingBlock: NAHDIM_clean_linker_0, # of connection points: 4
#     Node 31, Type 1, BuildingBlock: NAHDIM_clean_linker_0, # of connection points: 4
#     Node 32, Type 1, BuildingBlock: NAHDIM_clean_linker_0, # of connection points: 4
#     Node 33, Type 1, BuildingBlock: NAHDIM_clean_linker_0, # of connection points: 4
#     Node 34, Type 1, BuildingBlock: NAHDIM_clean_linker_0, # of connection points: 4
#     Node 35, Type 1, BuildingBlock: NAHDIM_clean_linker_0, # of connection points: 4
#     Edge 36, Type (0, 1), BuildingBlock: FUNLAD_clean_linker_0, # of connection points: 2
#     Edge 37, Type (0, 1), BuildingBlock: FUNLAD_clean_linker_0, # of connection points: 2
#     Edge 38, Type (0, 1), BuildingBlock: FUNLAD_clean_linker_0, # of connection points: 2
#     Edge 39, Type (0, 1), BuildingBlock: FUNLAD_clean_linker_0, # of connection points: 2
#     Edge 40, Type (0, 1), BuildingBlock: FUNLAD_clean_linker_0, # of connection points: 2
#     Edge 41, Type (0, 1), BuildingBlock: FUNLAD_clean_linker_0, # of connection points: 2
#     Edge 42, Type (0, 1), BuildingBlock: FUNLAD_clean_linker_0, # of connection points: 2
#     Edge 43, Type (0, 1), BuildingBlock: FUNLAD_clean_linker_0, # of connection points: 2
#     Edge 44, Type (0, 1), BuildingBlock: FUNLAD_clean_linker_0, # of connection points: 2
#     Edge 45, Type (0, 1), BuildingBlock: FUNLAD_clean_linker_0, # of connection points: 2
#     Edge 46, Type (0, 1), BuildingBlock: FUNLAD_clean_linker_0, # of connection points: 2
#     Edge 47, Type (0, 1), BuildingBlock: FUNLAD_clean_linker_0, # of connection points: 2
#     Edge 48, Type (0, 1), BuildingBlock: FUNLAD_clean_linker_0, # of connection points: 2
#     Edge 49, Type (0, 1), BuildingBlock: FUNLAD_clean_linker_0, # of connection points: 2
#     Edge 50, Type (0, 1), BuildingBlock: FUNLAD_clean_linker_0, # of connection points: 2
#     Edge 51, Type (0, 1), BuildingBlock: FUNLAD_clean_linker_0, # of connection points: 2
#     Edge 52, Type (0, 1), BuildingBlock: FUNLAD_clean_linker_0, # of connection points: 2
#     Edge 53, Type (0, 1), BuildingBlock: FUNLAD_clean_linker_0, # of connection points: 2
#     Edge 54, Type (0, 1), BuildingBlock: FUNLAD_clean_linker_0, # of connection points: 2
#     Edge 55, Type (0, 1), BuildingBlock: FUNLAD_clean_linker_0, # of connection points: 2
#     Edge 56, Type (0, 1), BuildingBlock: FUNLAD_clean_linker_0, # of connection points: 2
#     Edge 57, Type (0, 1), BuildingBlock: FUNLAD_clean_linker_0, # of connection points: 2
#     Edge 58, Type (0, 1), BuildingBlock: FUNLAD_clean_linker_0, # of connection points: 2
#     Edge 59, Type (0, 1), BuildingBlock: FUNLAD_clean_linker_0, # of connection points: 2
#     Edge 60, Type (0, 1), BuildingBlock: FUNLAD_clean_linker_0, # of connection points: 2
#     Edge 61, Type (0, 1), BuildingBlock: FUNLAD_clean_linker_0, # of connection points: 2
#     Edge 62, Type (0, 1), BuildingBlock: FUNLAD_clean_linker_0, # of connection points: 2
#     Edge 63, Type (0, 1), BuildingBlock: FUNLAD_clean_linker_0, # of connection points: 2
#     Edge 64, Type (0, 1), BuildingBlock: FUNLAD_clean_linker_0, # of connection points: 2
#     Edge 65, Type (0, 1), BuildingBlock: FUNLAD_clean_linker_0, # of connection points: 2
#     Edge 66, Type (0, 1), BuildingBlock: FUNLAD_clean_linker_0, # of connection points: 2
#     Edge 67, Type (0, 1), BuildingBlock: FUNLAD_clean_linker_0, # of connection points: 2
#     Edge 68, Type (0, 1), BuildingBlock: FUNLAD_clean_linker_0, # of connection points: 2
#     Edge 69, Type (0, 1), BuildingBlock: FUNLAD_clean_linker_0, # of connection points: 2
#     Edge 70, Type (0, 1), BuildingBlock: FUNLAD_clean_linker_0, # of connection points: 2
#     Edge 71, Type (0, 1), BuildingBlock: FUNLAD_clean_linker_0, # of connection points: 2
#     Edge 72, Type (0, 1), BuildingBlock: FUNLAD_clean_linker_0, # of connection points: 2
#     Edge 73, Type (0, 1), BuildingBlock: FUNLAD_clean_linker_0, # of connection points: 2
#     Edge 74, Type (0, 1), BuildingBlock: FUNLAD_clean_linker_0, # of connection points: 2
#     Edge 75, Type (0, 1), BuildingBlock: FUNLAD_clean_linker_0, # of connection points: 2
#     Edge 76, Type (0, 1), BuildingBlock: FUNLAD_clean_linker_0, # of connection points: 2
#     Edge 77, Type (0, 1), BuildingBlock: FUNLAD_clean_linker_0, # of connection points: 2
#     Edge 78, Type (0, 1), BuildingBlock: FUNLAD_clean_linker_0, # of connection points: 2
#     Edge 79, Type (0, 1), BuildingBlock: FUNLAD_clean_linker_0, # of connection points: 2
#     Edge 80, Type (0, 1), BuildingBlock: FUNLAD_clean_linker_0, # of connection points: 2
#     Edge 81, Type (0, 1), BuildingBlock: FUNLAD_clean_linker_0, # of connection points: 2
#     Edge 82, Type (0, 1), BuildingBlock: FUNLAD_clean_linker_0, # of connection points: 2
#     Edge 83, Type (0, 1), BuildingBlock: FUNLAD_clean_linker_0, # of connection points: 2
#     Edge 84, Type (0, 1), BuildingBlock: FUNLAD_clean_linker_0, # of connection points: 2
#     Edge 85, Type (0, 1), BuildingBlock: FUNLAD_clean_linker_0, # of connection points: 2
#     Edge 86, Type (0, 1), BuildingBlock: FUNLAD_clean_linker_0, # of connection points: 2
#     Edge 87, Type (0, 1), BuildingBlock: FUNLAD_clean_linker_0, # of connection points: 2
#     Edge 88, Type (0, 1), BuildingBlock: FUNLAD_clean_linker_0, # of connection points: 2
#     Edge 89, Type (0, 1), BuildingBlock: FUNLAD_clean_linker_0, # of connection points: 2
#     Edge 90, Type (0, 1), BuildingBlock: FUNLAD_clean_linker_0, # of connection points: 2
#     Edge 91, Type (0, 1), BuildingBlock: FUNLAD_clean_linker_0, # of connection points: 2
#     Edge 92, Type (0, 1), BuildingBlock: FUNLAD_clean_linker_0, # of connection points: 2
#     Edge 93, Type (0, 1), BuildingBlock: FUNLAD_clean_linker_0, # of connection points: 2
#     Edge 94, Type (0, 1), BuildingBlock: FUNLAD_clean_linker_0, # of connection points: 2
#     Edge 95, Type (0, 1), BuildingBlock: FUNLAD_clean_linker_0, # of connection points: 2
#     Edge 96, Type (0, 1), BuildingBlock: FUNLAD_clean_linker_0, # of connection points: 2
#     Edge 97, Type (0, 1), BuildingBlock: FUNLAD_clean_linker_0, # of connection points: 2
#     Edge 98, Type (0, 1), BuildingBlock: FUNLAD_clean_linker_0, # of connection points: 2
#     Edge 99, Type (0, 1), BuildingBlock: FUNLAD_clean_linker_0, # of connection points: 2
#     Edge 100, Type (0, 1), BuildingBlock: FUNLAD_clean_linker_0, # of connection points: 2
#     Edge 101, Type (0, 1), BuildingBlock: FUNLAD_clean_linker_0, # of connection points: 2
#     Edge 102, Type (0, 1), BuildingBlock: FUNLAD_clean_linker_0, # of connection points: 2
#     Edge 103, Type (0, 1), BuildingBlock: FUNLAD_clean_linker_0, # of connection points: 2
#     Edge 104, Type (0, 1), BuildingBlock: FUNLAD_clean_linker_0, # of connection points: 2
#     Edge 105, Type (0, 1), BuildingBlock: FUNLAD_clean_linker_0, # of connection points: 2
#     Edge 106, Type (0, 1), BuildingBlock: FUNLAD_clean_linker_0, # of connection points: 2
#     Edge 107, Type (0, 1), BuildingBlock: FUNLAD_clean_linker_0, # of connection points: 2
# Relax obj value: 0.102
# Max RMSD: 0.341
# Mean RMSD: 0.134
data_MOF--net-ptr--node1-AZAVOO_clean_sbu_0--node2-NAHDIM_clean_linker_0--edge1-FUNLAD_clean_linker_0
_symmetry_space_group_name_H-M    P1
_symmetry_Int_Tables_number       1
_symmetry_cell_setting            triclinic
loop_
_symmetry_equiv_pos_as_xyz
'x, y, z'
_cell_length_a     106.18671
_cell_length_b     103.93534
_cell_length_c     86.945544
_cell_angle_alpha  91.686587
_cell_angle_beta   91.084096
_cell_angle_gamma 120.31539
loop_
_atom_site_label
_atom_site_type_symbol
_atom_site_fract_x
_atom_site_fract_y
_atom_site_fract_z
_atom_type_partial_charge
Mg0 Mg 0.01916 0.34272 0.98693 0.0
O1 O 0.01072 0.35142 0.00634 0.0
O2 O 0.99271 0.35432 0.99663 0.0
Mg3 Mg 0.98894 0.34645 0.97117 0.0
C4 C 0.00112 0.35528 0.00786 0.0
C5 C 0.03203 0.32523 0.00235 0.0
O6 O 0.02481 0.31657 0.99023 0.0
O7 O 0.99917 0.31936 0.98801 0.0
O8 O 0.98149 0.32235 0.97748 0.0
O9 O 0.03405 0.36639 0.9801 0.0
O10 O 0.01167 0.35157 0.97047 0.0
C11 C 0.98591 0.31412 0.98336 0.0
C12 C 0.02332 0.36445 0.97109 0.0
O13 O 0.03203 0.33739 0.00457 0.0
Mg14 Mg 0.66539 0.6526 0.03991 0.0
O15 O 0.64624 0.64292 0.022 0.0
O16 O 0.62612 0.63794 0.03437 0.0
Mg17 Mg 0.63224 0.64438 0.05991 0.0
C18 C 0.63254 0.63813 0.02204 0.0
C19 C 0.6936 0.67263 0.02273 0.0
O20 O 0.69578 0.68072 0.03548 0.0
O21 O 0.66577 0.67478 0.04089 0.0
O22 O 0.64582 0.66904 0.054 0.0
O23 O 0.66067 0.62959 0.04502 0.0
O24 O 0.65114 0.64138 0.05723 0.0
C25 C 0.65721 0.67846 0.04723 0.0
C26 C 0.65187 0.62946 0.05521 0.0
O27 O 0.68176 0.66022 0.02077 0.0
Mg28 Mg 0.33711 0.98251 0.98568 0.0
O29 O 0.35107 0.99001 0.00813 0.0
O30 O 0.37254 0.01023 0.00388 0.0
Mg31 Mg 0.3723 0.01551 0.97853 0.0
C32 C 0.3638 0.00031 0.01279 0.0
C33 C 0.3159 0.95989 0.00966 0.0
O34 O 0.32706 0.95809 0.01271 0.0
O35 O 0.33312 0.00195 0.98798 0.0
O36 O 0.35447 0.02157 0.98231 0.0
O37 O 0.34632 0.968 0.97912 0.0
O38 O 0.35606 0.99169 0.97344 0.0
C39 C 0.34111 0.01583 0.98576 0.0
C40 C 0.35693 0.97977 0.9734 0.0
O41 O 0.31677 0.96849 0.99911 0.0
Mg42 Mg 0.98879 0.6647 0.03428 0.0
O43 O 0.99842 0.65684 0.0153 0.0
O44 O 0.01452 0.65185 0.02643 0.0
Mg45 Mg 0.01462 0.65592 0.05252 0.0
C46 C 0.00776 0.65257 0.01446 0.0
C47 C 0.96925 0.66754 0.00786 0.0
O48 O 0.96111 0.65303 0.00894 0.0
O49 O 0.00985 0.68679 0.03747 0.0
O50 O 0.02503 0.68143 0.05004 0.0
O51 O 0.97093 0.64132 0.03685 0.0
O52 O 0.99205 0.65183 0.05 0.0
C53 C 0.02214 0.69085 0.0442 0.0
C54 C 0.97957 0.64008 0.04664 0.0
O55 O 0.98075 0.67476 0.01641 0.0
Mg56 Mg 0.34142 0.3496 0.9853 0.0
O57 O 0.35897 0.35445 0.00399 0.0
O58 O 0.37835 0.35619 0.99243 0.0
Mg59 Mg 0.37329 0.35289 0.96637 0.0
C60 C 0.3719 0.35653 0.00456 0.0
C61 C 0.31688 0.34935 0.00417 0.0
O62 O 0.32017 0.36047 0.99516 0.0
O63 O 0.33646 0.32574 0.9818 0.0
O64 O 0.35557 0.32821 0.96901 0.0
O65 O 0.3505 0.37397 0.9828 0.0
O66 O 0.35736 0.36038 0.96929 0.0
C67 C 0.34314 0.32009 0.97485 0.0
C68 C 0.35888 0.37327 0.97258 0.0
O69 O 0.32408 0.34263 0.00331 0.0
Mg70 Mg 0.67093 0.01093 0.04032 0.0
O71 O 0.65528 6e-05 0.01923 0.0
O72 O 0.63415 0.9817 0.02734 0.0
Mg73 Mg 0.6364 0.98093 0.05353 0.0
C74 C 0.64213 0.98952 0.01658 0.0
C75 C 0.69133 0.02858 0.0128 0.0
O76 O 0.68034 0.03017 0.00828 0.0
O77 O 0.67412 0.99116 0.04195 0.0
O78 O 0.65342 0.97327 0.05127 0.0
O79 O 0.66289 0.0268 0.04345 0.0
O80 O 0.65323 0.00494 0.05419 0.0
C81 C 0.66639 0.97806 0.04678 0.0
C82 C 0.65275 0.01684 0.05161 0.0
O83 O 0.69042 0.02175 0.02498 0.0
Mg84 Mg 0.67718 0.67757 0.32643 0.0
O85 O 0.66488 0.68585 0.34147 0.0
O86 O 0.6518 0.6915 0.32552 0.0
Mg87 Mg 0.65558 0.68684 0.30063 0.0
C88 C 0.65602 0.69058 0.33909 0.0
C89 C 0.69381 0.67628 0.35626 0.0
O90 O 0.70133 0.69073 0.35449 0.0
O91 O 0.65614 0.65539 0.32129 0.0
O92 O 0.64397 0.66164 0.30473 0.0
O93 O 0.69556 0.70115 0.3249 0.0
O94 O 0.67677 0.6899 0.30825 0.0
C95 C 0.64508 0.6519 0.31234 0.0
C96 C 0.68863 0.7018 0.31282 0.0
O97 O 0.68294 0.66817 0.34712 0.0
Mg98 Mg 0.32903 0.98673 0.37039 0.0
O99 O 0.30946 0.98059 0.35367 0.0
O100 O 0.29077 0.97679 0.36816 0.0
Mg101 Mg 0.29803 0.98023 0.39357 0.0
C102 C 0.29618 0.97729 0.35504 0.0
C103 C 0.34273 0.98565 0.3394 0.0
O104 O 0.33064 0.9726 0.33848 0.0
O105 O 0.3322 0.01008 0.37465 0.0
O106 O 0.3135 0.00494 0.38959 0.0
O107 O 0.32211 0.96257 0.37191 0.0
O108 O 0.31442 0.97444 0.38705 0.0
C109 C 0.32489 0.01426 0.38277 0.0
C110 C 0.3135 0.96207 0.3825 0.0
O111 O 0.34495 0.99451 0.35088 0.0
Mg112 Mg 0.00836 0.32338 0.31862 0.0
O113 O 0.02719 0.33378 0.33687 0.0
O114 O 0.04814 0.34619 0.32472 0.0
Mg115 Mg 0.04275 0.34456 0.29892 0.0
C116 C 0.0411 0.34172 0.33704 0.0
C117 C 0.98106 0.31951 0.33522 0.0
O118 O 0.98013 0.32551 0.32247 0.0
O119 O 0.01058 0.34626 0.31593 0.0
O120 O 0.03131 0.35799 0.30329 0.0
O121 O 0.0111 0.30337 0.31526 0.0
O122 O 0.02228 0.32373 0.30206 0.0
C123 C 0.02031 0.35772 0.30936 0.0
C124 C 0.02038 0.31083 0.30496 0.0
O125 O 0.99175 0.31739 0.33735 0.0
Mg126 Mg 0.65728 0.97651 0.35329 0.0
O127 O 0.67195 0.97375 0.33598 0.0
O128 O 0.69053 0.97478 0.34969 0.0
Mg129 Mg 0.68661 0.97583 0.37537 0.0
C130 C 0.68397 0.97375 0.33686 0.0
C131 C 0.6322 0.97382 0.3327 0.0
O132 O 0.62563 0.96221 0.34131 0.0
O133 O 0.67435 0.00111 0.35805 0.0
O134 O 0.6909 0.99967 0.37303 0.0
O135 O 0.64376 0.95177 0.3552 0.0
O136 O 0.66318 0.96647 0.37006 0.0
C137 C 0.6861 0.00729 0.36646 0.0
C138 C 0.65271 0.9532 0.36632 0.0
O139 O 0.64597 0.9822 0.33431 0.0
Mg140 Mg 0.02411 0.69487 0.3265 0.0
O141 O 0.0418 0.70164 0.34555 0.0
O142 O 0.06283 0.70782 0.33453 0.0
Mg143 Mg 0.05854 0.70539 0.30834 0.0
C144 C 0.0554 0.70601 0.34649 0.0
C145 C 0.99338 0.67992 0.33936 0.0
O146 O 0.9909 0.68184 0.32498 0.0
O147 O 0.02351 0.67296 0.32211 0.0
O148 O 0.04407 0.6798 0.30975 0.0
O149 O 0.02919 0.7184 0.32507 0.0
O150 O 0.0396 0.70844 0.31121 0.0
C151 C 0.03208 0.66974 0.3151 0.0
C152 C 0.03859 0.71997 0.31492 0.0
O153 O 0.00642 0.68436 0.34399 0.0
Mg154 Mg 0.32401 0.35038 0.35357 0.0
O155 O 0.30475 0.33555 0.33678 0.0
O156 O 0.28621 0.31945 0.35052 0.0
Mg157 Mg 0.2934 0.32438 0.37606 0.0
C158 C 0.29169 0.32469 0.33764 0.0
C159 C 0.34779 0.37142 0.33086 0.0
O160 O 0.34662 0.38168 0.33882 0.0
O161 O 0.3282 0.33133 0.35757 0.0
O162 O 0.31006 0.31661 0.37257 0.0
O163 O 0.3162 0.36675 0.35654 0.0
O164 O 0.30982 0.34746 0.37098 0.0
C165 C 0.32175 0.31985 0.36565 0.0
C166 C 0.30868 0.35884 0.36776 0.0
O167 O 0.33963 0.35779 0.33384 0.0
Mg168 Mg 0.3506 0.01961 0.66016 0.0
O169 O 0.33716 0.02671 0.675 0.0
O170 O 0.32364 0.03161 0.65883 0.0
Mg171 Mg 0.32818 0.02763 0.6341 0.0
C172 C 0.3278 0.03079 0.67246 0.0
C173 C 0.37061 0.01713 0.68434 0.0
O174 O 0.37982 0.02746 0.67544 0.0
O175 O 0.33036 0.99681 0.65467 0.0
O176 O 0.31767 0.00249 0.63821 0.0
O177 O 0.36822 0.04333 0.65936 0.0
O178 O 0.34989 0.03226 0.64218 0.0
C179 C 0.31925 0.99296 0.64568 0.0
C180 C 0.36136 0.0443 0.6474 0.0
O181 O 0.35699 0.01119 0.68125 0.0
Mg182 Mg 0.99564 0.31443 0.69276 0.0
O183 O 0.97706 0.30353 0.67409 0.0
O184 O 0.95597 0.2914 0.68608 0.0
Mg185 Mg 0.96074 0.29565 0.71196 0.0
C186 C 0.96316 0.29527 0.67381 0.0
C187 C 0.0137 0.32017 0.6635 0.0
O188 O 0.00491 0.30565 0.66211 0.0
O189 O 0.99048 0.33306 0.69721 0.0
O190 O 0.96938 0.32063 0.70912 0.0
O191 O 0.99615 0.29321 0.69415 0.0
O192 O 0.9825 0.29885 0.70843 0.0
C193 C 0.97965 0.33263 0.70386 0.0
C194 C 0.98627 0.28931 0.70434 0.0
O195 O 0.01223 0.32738 0.67471 0.0
Mg196 Mg 0.67587 0.64902 0.66338 0.0
O197 O 0.69566 0.66461 0.67932 0.0
O198 O 0.71339 0.68038 0.66448 0.0
Mg199 Mg 0.70518 0.6747 0.63933 0.0
C200 C 0.70856 0.67555 0.6777 0.0
C201 C 0.64778 0.6378 0.68084 0.0
O202 O 0.64367 0.63821 0.6666 0.0
O203 O 0.67115 0.66772 0.65953 0.0
O204 O 0.68858 0.68234 0.64379 0.0
O205 O 0.68407 0.6331 0.66085 0.0
O206 O 0.68962 0.65171 0.64558 0.0
C207 C 0.67718 0.6791 0.65128 0.0
C208 C 0.6914 0.64085 0.64946 0.0
O209 O 0.66102 0.64161 0.68374 0.0
Mg210 Mg 0.33001 0.32418 0.69785 0.0
O211 O 0.34184 0.31733 0.68059 0.0
O212 O 0.35758 0.31329 0.694 0.0
Mg213 Mg 0.35491 0.31643 0.71978 0.0
C214 C 0.35178 0.31384 0.68121 0.0
C215 C 0.30993 0.32772 0.67294 0.0
O216 O 0.30022 0.31435 0.67715 0.0
O217 O 0.35049 0.34662 0.70228 0.0
O218 O 0.36468 0.34188 0.71757 0.0
O219 O 0.31242 0.30043 0.69955 0.0
O220 O 0.33246 0.31158 0.71448 0.0
C221 C 0.36208 0.35099 0.71058 0.0
C222 C 0.32042 0.29959 0.71047 0.0
O223 O 0.3228 0.33403 0.6789 0.0
Mg224 Mg 0.68709 0.02338 0.65369 0.0
O225 O 0.70707 0.02892 0.66906 0.0
O226 O 0.72464 0.03092 0.65387 0.0
Mg227 Mg 0.71607 0.02759 0.62873 0.0
C228 C 0.71994 0.03123 0.66722 0.0
C229 C 0.65976 0.00534 0.67299 0.0
O230 O 0.6555 0.99749 0.65986 0.0
O231 O 0.68259 0.9998 0.64913 0.0
O232 O 0.69929 0.00268 0.63216 0.0
O233 O 0.69489 0.04749 0.65203 0.0
O234 O 0.70047 0.03459 0.6357 0.0
C235 C 0.68818 0.99438 0.63999 0.0
C236 C 0.70204 0.04727 0.64021 0.0
O237 O 0.67261 0.01656 0.6744 0.0
Mg238 Mg 0.98405 0.67563 0.69742 0.0
O239 O 0.96521 0.66233 0.67962 0.0
O240 O 0.94511 0.64872 0.69272 0.0
Mg241 Mg 0.95075 0.65432 0.71855 0.0
C242 C 0.95159 0.65278 0.68003 0.0
C243 C 0.01399 0.69067 0.68335 0.0
O244 O 0.01651 0.69706 0.69721 0.0
O245 O 0.98409 0.65448 0.70348 0.0
O246 O 0.96473 0.64309 0.71823 0.0
O247 O 0.97996 0.69472 0.6976 0.0
O248 O 0.9696 0.67592 0.71303 0.0
C249 C 0.97602 0.64397 0.7122 0.0
C250 C 0.9709 0.68816 0.70838 0.0
O251 O 0.001 0.68075 0.67928 0.0
C252 C 0.19035 0.26955 0.05039 0.0
C253 C 0.19774 0.28129 0.06359 0.0
C254 C 0.1881 0.27625 0.08924 0.0
C255 C 0.1909 0.2905 0.09399 0.0
C256 C 0.18294 0.2923 0.10573 0.0
C257 C 0.17188 0.27956 0.1127 0.0
C258 C 0.16933 0.2652 0.10816 0.0
C259 C 0.17771 0.26379 0.09667 0.0
C260 C 0.1862 0.30778 0.11051 0.0
C261 C 0.15747 0.2513 0.1151 0.0
C262 C 0.07753 0.28594 0.08038 0.0
C263 C 0.08493 0.28013 0.09041 0.0
C264 C 0.10743 0.28888 0.10598 0.0
C265 C 0.10553 0.27458 0.10768 0.0
C266 C 0.1163 0.27275 0.11521 0.0
C267 C 0.12926 0.28544 0.12114 0.0
C268 C 0.13114 0.29982 0.11964 0.0
C269 C 0.12015 0.30133 0.11213 0.0
C270 C 0.11392 0.25725 0.11666 0.0
C271 C 0.14485 0.31359 0.12578 0.0
C272 C 0.11295 0.27405 0.22207 0.0
C273 C 0.11145 0.26094 0.21513 0.0
C274 C 0.12217 0.26153 0.20548 0.0
C275 C 0.1347 0.27546 0.20291 0.0
C276 C 0.1365 0.28859 0.21037 0.0
C277 C 0.12557 0.28769 0.21986 0.0
C278 C 0.12 0.2473 0.1978 0.0
C279 C 0.14982 0.30359 0.20803 0.0
C280 C 0.23353 0.26496 0.20396 0.0
C281 C 0.22706 0.27434 0.2098 0.0
C282 C 0.20155 0.26793 0.20621 0.0
C283 C 0.18766 0.2558 0.20255 0.0
C284 C 0.17643 0.25788 0.19675 0.0
C285 C 0.17914 0.27253 0.19484 0.0
C286 C 0.19301 0.28491 0.19918 0.0
C287 C 0.2041 0.28249 0.20483 0.0
C288 C 0.16172 0.24443 0.19245 0.0
C289 C 0.19613 0.30067 0.19769 0.0
C290 C 0.16241 0.28113 0.12406 0.0
C291 C 0.15112 0.2831 0.11839 0.0
C292 C 0.14114 0.28369 0.12821 0.0
C293 C 0.14231 0.28212 0.14419 0.0
C294 C 0.13219 0.28216 0.15436 0.0
C295 C 0.13328 0.2803 0.17002 0.0
C296 C 0.1446 0.27845 0.17615 0.0
C297 C 0.14568 0.27634 0.19202 0.0
C298 C 0.15713 0.27467 0.19777 0.0
C299 C 0.16754 0.27486 0.18803 0.0
C300 C 0.16655 0.27677 0.17209 0.0
C301 C 0.17672 0.2768 0.16192 0.0
C302 C 0.1755 0.27842 0.14622 0.0
C303 C 0.16403 0.27998 0.14006 0.0
C304 C 0.15383 0.2803 0.15013 0.0
C305 C 0.15504 0.27858 0.16615 0.0
C306 C 0.07923 0.25929 0.21734 0.0
C307 C 0.08828 0.26269 0.23246 0.0
O308 O 0.19513 0.27418 0.0774 0.0
O309 O 0.21213 0.26512 0.21106 0.0
O310 O 0.10248 0.27418 0.23074 0.0
O311 O 0.0974 0.29111 0.09835 0.0
H312 H 0.19269 0.28844 0.06325 0.0
H313 H 0.17838 0.26309 0.05191 0.0
H314 H 0.19451 0.26165 0.05015 0.0
H315 H 0.19235 0.27499 0.03918 0.0
H316 H 0.19929 0.3002 0.08851 0.0
H317 H 0.17578 0.25287 0.09299 0.0
H318 H 0.177 0.30923 0.1066 0.0
H319 H 0.19637 0.31658 0.10552 0.0
H320 H 0.18727 0.30935 0.12326 0.0
H321 H 0.15582 0.24095 0.10909 0.0
H322 H 0.14699 0.25126 0.11465 0.0
H323 H 0.1604 0.25115 0.12739 0.0
H324 H 0.07753 0.27096 0.09785 0.0
H325 H 0.06657 0.28193 0.08547 0.0
H326 H 0.07983 0.27935 0.0581 0.0
H327 H 0.08204 0.29798 0.0842 0.0
H328 H 0.09573 0.26479 0.10308 0.0
H329 H 0.12154 0.31231 0.11081 0.0
H330 H 0.11528 0.25531 0.12892 0.0
H331 H 0.12227 0.25617 0.11016 0.0
H332 H 0.10292 0.24845 0.11222 0.0
H333 H 0.14461 0.32398 0.12382 0.0
H334 H 0.15447 0.31431 0.12013 0.0
H335 H 0.14633 0.31281 0.13833 0.0
H336 H 0.0884 0.25256 0.23608 0.0
H337 H 0.10189 0.25025 0.21701 0.0
H338 H 0.1267 0.29772 0.22538 0.0
H339 H 0.11979 0.24809 0.1851 0.0
H340 H 0.1097 0.23733 0.20105 0.0
H341 H 0.1293 0.24576 0.201 0.0
H342 H 0.14985 0.31268 0.21511 0.0
H343 H 0.15027 0.30626 0.19571 0.0
H344 H 0.15985 0.30322 0.21104 0.0
H345 H 0.22938 0.28274 0.20097 0.0
H346 H 0.24552 0.2721 0.20284 0.0
H347 H 0.22855 0.25974 0.19245 0.0
H348 H 0.23135 0.25596 0.21193 0.0
H349 H 0.18574 0.24462 0.2039 0.0
H350 H 0.21467 0.29197 0.20821 0.0
H351 H 0.15865 0.24485 0.18027 0.0
H352 H 0.1533 0.24456 0.19973 0.0
H353 H 0.16156 0.23378 0.19395 0.0
H354 H 0.20714 0.30908 0.20251 0.0
H355 H 0.18781 0.30218 0.20371 0.0
H356 H 0.19541 0.30278 0.18535 0.0
H357 H 0.14993 0.28394 0.10609 0.0
H358 H 0.12325 0.28352 0.15028 0.0
H359 H 0.12511 0.28032 0.17727 0.0
H360 H 0.15785 0.27303 0.20995 0.0
H361 H 0.1857 0.27551 0.16597 0.0
H362 H 0.18363 0.27836 0.13894 0.0
H363 H 0.06815 0.24945 0.21843 0.0
H364 H 0.0845 0.25714 0.20749 0.0
H365 H 0.06815 0.24945 0.21843 0.0
C366 C 0.75532 0.92795 0.0595 0.0
C367 C 0.74336 0.92191 0.07127 0.0
C368 C 0.74451 0.91556 0.09781 0.0
C369 C 0.72948 0.90639 0.09974 0.0
C370 C 0.72431 0.89627 0.11157 0.0
C371 C 0.73439 0.89503 0.12142 0.0
C372 C 0.74957 0.90462 0.11976 0.0
C373 C 0.75441 0.91501 0.10817 0.0
C374 C 0.70805 0.88655 0.11312 0.0
C375 C 0.76072 0.90349 0.12978 0.0
C376 C 0.6874 0.78119 0.0828 0.0
C377 C 0.68881 0.79471 0.09086 0.0
C378 C 0.70415 0.81402 0.11046 0.0
C379 C 0.71804 0.8214 0.11766 0.0
C380 C 0.72327 0.8351 0.12589 0.0
C381 C 0.7141 0.84126 0.12739 0.0
C382 C 0.69982 0.83358 0.12058 0.0
C383 C 0.69507 0.82017 0.11201 0.0
C384 C 0.73866 0.84311 0.13271 0.0
C385 C 0.68962 0.83964 0.12215 0.0
C386 C 0.71993 0.83125 0.22929 0.0
C387 C 0.73262 0.83987 0.22112 0.0
C388 C 0.73388 0.85125 0.21187 0.0
C389 C 0.7221 0.85394 0.21049 0.0
C390 C 0.70945 0.84555 0.21896 0.0
C391 C 0.70861 0.83441 0.22839 0.0
C392 C 0.74778 0.86032 0.20344 0.0
C393 C 0.69673 0.84816 0.21781 0.0
C394 C 0.75751 0.97354 0.22471 0.0
C395 C 0.74439 0.95765 0.22472 0.0
C396 C 0.74463 0.93444 0.2193 0.0
C397 C 0.75424 0.92906 0.21782 0.0
C398 C 0.74978 0.91518 0.2104 0.0
C399 C 0.73518 0.90629 0.20467 0.0
C400 C 0.72526 0.9115 0.2065 0.0
C401 C 0.73011 0.92559 0.21372 0.0
C402 C 0.76069 0.91003 0.20867 0.0
C403 C 0.70951 0.90212 0.20093 0.0
C404 C 0.72909 0.88268 0.13223 0.0
C405 C 0.72439 0.86838 0.12592 0.0
C406 C 0.71964 0.85615 0.1352 0.0
C407 C 0.71992 0.85824 0.15138 0.0
C408 C 0.7156 0.84627 0.16112 0.0
C409 C 0.71654 0.84857 0.17705 0.0
C410 C 0.7215 0.86286 0.18383 0.0
C411 C 0.7231 0.86543 0.2 0.0
C412 C 0.72717 0.87956 0.20637 0.0
C413 C 0.73029 0.89146 0.19702 0.0
C414 C 0.72959 0.88931 0.1808 0.0
C415 C 0.73343 0.90119 0.17102 0.0
C416 C 0.73312 0.89903 0.15509 0.0
C417 C 0.72898 0.88492 0.14835 0.0
C418 C 0.72464 0.87269 0.15796 0.0
C419 C 0.72513 0.87493 0.1742 0.0
C420 C 0.72115 0.80281 0.22128 0.0
C421 C 0.72546 0.81192 0.23666 0.0
O422 O 0.7498 0.92483 0.08594 0.0
O423 O 0.74973 0.94804 0.2265 0.0
O424 O 0.71808 0.81975 0.23794 0.0
O425 O 0.69994 0.80109 0.10215 0.0
H426 H 0.73668 0.90961 0.06885 0.0
H427 H 0.76194 0.92246 0.06058 0.0
H428 H 0.76267 0.94019 0.06142 0.0
H429 H 0.75041 0.92559 0.04761 0.0
H430 H 0.72175 0.90705 0.09197 0.0
H431 H 0.76599 0.92227 0.10665 0.0
H432 H 0.70436 0.87548 0.10738 0.0
H433 H 0.70198 0.89142 0.10757 0.0
H434 H 0.70521 0.88486 0.12541 0.0
H435 H 0.772 0.91054 0.12583 0.0
H436 H 0.7582 0.89174 0.12986 0.0
H437 H 0.76034 0.90712 0.1418 0.0
H438 H 0.67823 0.79324 0.09469 0.0
H439 H 0.69361 0.77735 0.09018 0.0
H440 H 0.69284 0.7877 0.0602 0.0
H441 H 0.67633 0.77179 0.08574 0.0
H442 H 0.72497 0.81658 0.11644 0.0
H443 H 0.68423 0.81459 0.10667 0.0
H444 H 0.7384 0.84382 0.14545 0.0
H445 H 0.74469 0.8547 0.12874 0.0
H446 H 0.74474 0.83738 0.12955 0.0
H447 H 0.67823 0.83128 0.11836 0.0
H448 H 0.69341 0.8495 0.11499 0.0
H449 H 0.68968 0.84333 0.13429 0.0
H450 H 0.73744 0.81985 0.23732 0.0
H451 H 0.74162 0.83781 0.22186 0.0
H452 H 0.6989 0.82781 0.23481 0.0
H453 H 0.74564 0.85728 0.19094 0.0
H454 H 0.75665 0.85837 0.20747 0.0
H455 H 0.75164 0.87241 0.20496 0.0
H456 H 0.68731 0.84007 0.22437 0.0
H457 H 0.69313 0.84729 0.20555 0.0
H458 H 0.70019 0.85962 0.22232 0.0
H459 H 0.73848 0.95538 0.21335 0.0
H460 H 0.754 0.98169 0.22215 0.0
H461 H 0.76506 0.97422 0.21568 0.0
H462 H 0.76355 0.97671 0.23605 0.0
H463 H 0.76537 0.93592 0.22233 0.0
H464 H 0.72249 0.92951 0.21523 0.0
H465 H 0.76063 0.90637 0.19653 0.0
H466 H 0.75758 0.9003 0.21588 0.0
H467 H 0.77196 0.91892 0.21224 0.0
H468 H 0.70291 0.90725 0.20425 0.0
H469 H 0.70459 0.89087 0.2057 0.0
H470 H 0.70893 0.90064 0.18819 0.0
H471 H 0.72439 0.86672 0.11353 0.0
H472 H 0.7117 0.83503 0.15654 0.0
H473 H 0.71332 0.839 0.18401 0.0
H474 H 0.72837 0.88144 0.21879 0.0
H475 H 0.73687 0.91233 0.17557 0.0
H476 H 0.73624 0.90857 0.14812 0.0
H477 H 0.70919 0.79483 0.22048 0.0
H478 H 0.72698 0.79649 0.22014 0.0
H479 H 0.72409 0.81026 0.21146 0.0
C480 C 0.19539 0.91889 0.07636 0.0
C481 C 0.20778 0.92329 0.08848 0.0
C482 C 0.19418 0.90455 0.10754 0.0
C483 C 0.18601 0.91087 0.11296 0.0
C484 C 0.17425 0.90297 0.12252 0.0
C485 C 0.17071 0.88856 0.12691 0.0
C486 C 0.17936 0.88249 0.12212 0.0
C487 C 0.19103 0.89061 0.11252 0.0
C488 C 0.16533 0.90982 0.1276 0.0
C489 C 0.176 0.86724 0.12677 0.0
C490 C 0.08481 0.83401 0.06067 0.0
C491 C 0.08936 0.82727 0.07351 0.0
C492 C 0.09637 0.83772 0.09975 0.0
C493 C 0.10556 0.83219 0.10369 0.0
C494 C 0.11636 0.83925 0.1155 0.0
C495 C 0.11814 0.85226 0.12331 0.0
C496 C 0.10845 0.85747 0.11974 0.0
C497 C 0.09746 0.84989 0.1082 0.0
C498 C 0.12622 0.83313 0.1192 0.0
C499 C 0.11014 0.87145 0.12756 0.0
C500 C 0.08835 0.8394 0.2205 0.0
C501 C 0.0965 0.83252 0.21701 0.0
C502 C 0.11014 0.84052 0.21033 0.0
C503 C 0.11565 0.85564 0.20696 0.0
C504 C 0.10768 0.86272 0.21097 0.0
C505 C 0.09419 0.85452 0.21787 0.0
C506 C 0.11858 0.83278 0.20667 0.0
C507 C 0.11328 0.87886 0.20769 0.0
C508 C 0.22239 0.94354 0.22263 0.0
C509 C 0.21473 0.93619 0.23734 0.0
C510 C 0.19465 0.91173 0.22735 0.0
C511 C 0.19017 0.8966 0.22542 0.0
C512 C 0.17733 0.88666 0.2169 0.0
C513 C 0.16868 0.89201 0.21027 0.0
C514 C 0.1729 0.90722 0.21252 0.0
C515 C 0.18587 0.91695 0.22096 0.0
C516 C 0.17313 0.87051 0.21472 0.0
C517 C 0.16379 0.91324 0.20579 0.0
C518 C 0.15727 0.87937 0.13539 0.0
C519 C 0.14443 0.87023 0.12667 0.0
C520 C 0.1312 0.86139 0.13366 0.0
C521 C 0.13068 0.86167 0.14991 0.0
C522 C 0.11758 0.85293 0.15738 0.0
C523 C 0.11714 0.85367 0.17336 0.0
C524 C 0.12983 0.86297 0.18251 0.0
C525 C 0.12947 0.86393 0.19876 0.0
C526 C 0.1423 0.8733 0.20747 0.0
C527 C 0.15557 0.88187 0.2004 0.0
C528 C 0.15615 0.88105 0.18418 0.0
C529 C 0.16933 0.8895 0.1767 0.0
C530 C 0.16975 0.88892 0.16073 0.0
C531 C 0.15701 0.87983 0.15162 0.0
C532 C 0.14364 0.87101 0.15891 0.0
C533 C 0.14322 0.87163 0.17522 0.0
C534 C 0.04968 0.81435 0.22125 0.0
C535 C 0.06499 0.81671 0.22402 0.0
O536 O 0.20492 0.91127 0.09731 0.0
O537 O 0.20751 0.92078 0.2353 0.0
O538 O 0.07483 0.83184 0.22632 0.0
O539 O 0.08662 0.83178 0.08761 0.0
H540 H 0.20895 0.93266 0.09609 0.0
H541 H 0.18498 0.91581 0.08192 0.0
H542 H 0.19374 0.90922 0.06897 0.0
H543 H 0.19801 0.92841 0.06897 0.0
H544 H 0.18852 0.92182 0.10956 0.0
H545 H 0.1975 0.8859 0.10846 0.0
H546 H 0.15393 0.90285 0.12293 0.0
H547 H 0.16979 0.92135 0.12367 0.0
H548 H 0.16495 0.91008 0.14035 0.0
H549 H 0.18442 0.86458 0.12308 0.0
H550 H 0.16526 0.85867 0.12152 0.0
H551 H 0.1752 0.86654 0.13946 0.0
H552 H 0.10131 0.83172 0.0725 0.0
H553 H 0.087 0.83065 0.04923 0.0
H554 H 0.09117 0.84637 0.06202 0.0
H555 H 0.073 0.83029 0.06109 0.0
H556 H 0.10441 0.82247 0.09741 0.0
H557 H 0.09017 0.85393 0.10514 0.0
H558 H 0.12797 0.83328 0.13186 0.0
H559 H 0.13702 0.84028 0.11422 0.0
H560 H 0.1217 0.82155 0.11439 0.0
H561 H 0.10242 0.87462 0.12262 0.0
H562 H 0.12146 0.88087 0.12651 0.0
H563 H 0.10816 0.86972 0.14002 0.0
H564 H 0.06747 0.81232 0.21336 0.0
H565 H 0.09226 0.82093 0.21951 0.0
H566 H 0.0879 0.85976 0.22081 0.0
H567 H 0.11913 0.83171 0.19399 0.0
H568 H 0.1135 0.82147 0.21134 0.0
H569 H 0.12996 0.83954 0.21146 0.0
H570 H 0.10546 0.88253 0.21089 0.0
H571 H 0.11544 0.88061 0.19525 0.0
H572 H 0.12377 0.88602 0.21422 0.0
H573 H 0.20678 0.93979 0.24023 0.0
H574 H 0.22834 0.95589 0.22436 0.0
H575 H 0.21429 0.94041 0.21292 0.0
H576 H 0.23026 0.93995 0.21942 0.0
H577 H 0.19695 0.89264 0.23043 0.0
H578 H 0.18906 0.92858 0.22235 0.0
H579 H 0.17239 0.8675 0.20224 0.0
H580 H 0.1622 0.86328 0.21939 0.0
H581 H 0.1811 0.86812 0.22052 0.0
H582 H 0.16788 0.92502 0.20964 0.0
H583 H 0.15228 0.90633 0.20911 0.0
H584 H 0.16389 0.91258 0.19303 0.0
H585 H 0.14473 0.87007 0.1142 0.0
H586 H 0.10751 0.84553 0.15092 0.0
H587 H 0.10669 0.84684 0.17845 0.0
H588 H 0.14191 0.87408 0.21991 0.0
H589 H 0.17949 0.89672 0.18311 0.0
H590 H 0.18018 0.89572 0.15559 0.0
H591 H 0.04158 0.80227 0.21939 0.0
H592 H 0.04944 0.82014 0.21081 0.0
H593 H 0.04648 0.8189 0.23119 0.0
C594 C 0.28312 0.09635 0.95196 0.0
C595 C 0.28781 0.08907 0.93948 0.0
C596 C 0.29292 0.10623 0.91842 0.0
C597 C 0.27831 0.10114 0.91385 0.0
C598 C 0.27485 0.10879 0.90309 0.0
C599 C 0.28618 0.12189 0.89692 0.0
C600 C 0.30089 0.12683 0.90121 0.0
C601 C 0.30406 0.11881 0.91178 0.0
C602 C 0.25904 0.1031 0.89861 0.0
C603 C 0.31323 0.14086 0.895 0.0
C604 C 0.25241 0.17829 0.95448 0.0
C605 C 0.26473 0.18446 0.94312 0.0
C606 C 0.26289 0.17443 0.91709 0.0
C607 C 0.27765 0.17946 0.91474 0.0
C608 C 0.28174 0.17205 0.90397 0.0
C609 C 0.27081 0.15915 0.89565 0.0
C610 C 0.25589 0.15439 0.89765 0.0
C611 C 0.25215 0.16235 0.90811 0.0
C612 C 0.29775 0.17769 0.90192 0.0
C613 C 0.24388 0.14049 0.88934 0.0
C614 C 0.25788 0.17042 0.79572 0.0
C615 C 0.27251 0.17756 0.8011 0.0
C616 C 0.27794 0.16966 0.80897 0.0
C617 C 0.26846 0.15441 0.81175 0.0
C618 C 0.25384 0.1471 0.80586 0.0
C619 C 0.24882 0.15519 0.79769 0.0
C620 C 0.29375 0.17765 0.8145 0.0
C621 C 0.24343 0.13083 0.80845 0.0
C622 C 0.28536 0.06461 0.80037 0.0
C623 C 0.28614 0.07317 0.78602 0.0
C624 C 0.29096 0.09752 0.79692 0.0
C625 C 0.30174 0.11246 0.79969 0.0
C626 C 0.2988 0.12247 0.80779 0.0
C627 C 0.28463 0.1174 0.81316 0.0
C628 C 0.27358 0.10235 0.81023 0.0
C629 C 0.27686 0.09253 0.80222 0.0
C630 C 0.31084 0.13844 0.81073 0.0
C631 C 0.2583 0.09661 0.81566 0.0
C632 C 0.28253 0.13112 0.88717 0.0
C633 C 0.2788 0.14071 0.89469 0.0
C634 C 0.27495 0.14964 0.8865 0.0
C635 C 0.27482 0.14907 0.87022 0.0
C636 C 0.27103 0.15789 0.86157 0.0
C637 C 0.27051 0.15689 0.84554 0.0
C638 C 0.27413 0.14731 0.83754 0.0
C639 C 0.2736 0.14618 0.82125 0.0
C640 C 0.27731 0.13655 0.8137 0.0
C641 C 0.28138 0.1278 0.82197 0.0
C642 C 0.2819 0.1287 0.83826 0.0
C643 C 0.28584 0.11998 0.84694 0.0
C644 C 0.28602 0.12071 0.86296 0.0
C645 C 0.28244 0.13033 0.87091 0.0
C646 C 0.27855 0.13933 0.86241 0.0
C647 C 0.27826 0.1385 0.84606 0.0
C648 C 0.24153 0.1928 0.79384 0.0
C649 C 0.25565 0.1924 0.79231 0.0
O650 O 0.29679 0.09959 0.9293 0.0
O651 O 0.29472 0.08842 0.7892 0.0
O652 O 0.25215 0.17788 0.78861 0.0
O653 O 0.25871 0.18075 0.92823 0.0
H654 H 0.27797 0.08002 0.93313 0.0
H655 H 0.27668 0.10094 0.94674 0.0
H656 H 0.29282 0.10559 0.95828 0.0
H657 H 0.27616 0.08797 0.96027 0.0
H658 H 0.26952 0.09133 0.9187 0.0
H659 H 0.31528 0.12261 0.9153 0.0
H660 H 0.25573 0.11089 0.90349 0.0
H661 H 0.25168 0.09182 0.90286 0.0
H662 H 0.25758 0.10269 0.88588 0.0
H663 H 0.32408 0.14332 0.89965 0.0
H664 H 0.31179 0.15049 0.89797 0.0
H665 H 0.31305 0.13972 0.88226 0.0
H666 H 0.27128 0.17901 0.94544 0.0
H667 H 0.25696 0.18103 0.96652 0.0
H668 H 0.24574 0.16596 0.95281 0.0
H669 H 0.24517 0.18301 0.95267 0.0
H670 H 0.28596 0.18907 0.92146 0.0
H671 H 0.24078 0.15868 0.90996 0.0
H672 H 0.29999 0.17744 0.88952 0.0
H673 H 0.30086 0.1703 0.9078 0.0
H674 H 0.30474 0.18924 0.90686 0.0
H675 H 0.23289 0.13756 0.89326 0.0
H676 H 0.24555 0.13091 0.89118 0.0
H677 H 0.24416 0.14217 0.87679 0.0
H678 H 0.26157 0.19619 0.80376 0.0
H679 H 0.27968 0.18928 0.7991 0.0
H680 H 0.23761 0.14976 0.79327 0.0
H681 H 0.29443 0.17907 0.82724 0.0
H682 H 0.30013 0.18884 0.80964 0.0
H683 H 0.29884 0.17092 0.81131 0.0
H684 H 0.23212 0.12713 0.80422 0.0
H685 H 0.24328 0.1287 0.82091 0.0
H686 H 0.24721 0.12393 0.80235 0.0
H687 H 0.27493 0.07037 0.78228 0.0
H688 H 0.2786 0.05239 0.79777 0.0
H689 H 0.2803 0.06756 0.80985 0.0
H690 H 0.29647 0.06734 0.80439 0.0
H691 H 0.31258 0.11623 0.79556 0.0
H692 H 0.26832 0.08103 0.80025 0.0
H693 H 0.31235 0.14127 0.8233 0.0
H694 H 0.30775 0.14602 0.80524 0.0
H695 H 0.32139 0.14054 0.80619 0.0
H696 H 0.2507 0.08485 0.81169 0.0
H697 H 0.25397 0.10366 0.81141 0.0
H698 H 0.25853 0.09735 0.82844 0.0
H699 H 0.27879 0.14113 0.90719 0.0
H700 H 0.26826 0.16556 0.86711 0.0
H701 H 0.26726 0.16379 0.83952 0.0
H702 H 0.27678 0.13567 0.80121 0.0
H703 H 0.28875 0.1124 0.84145 0.0
H704 H 0.28902 0.11365 0.86905 0.0
H705 H 0.24402 0.20431 0.79698 0.0
H706 H 0.23499 0.18538 0.80305 0.0
H707 H 0.23488 0.18892 0.78287 0.0
C708 C 0.79297 0.05343 0.91703 0.0
C709 C 0.79481 0.06752 0.92538 0.0
C710 C 0.80833 0.08833 0.90831 0.0
C711 C 0.80733 0.09905 0.8999 0.0
C712 C 0.81948 0.11022 0.8927 0.0
C713 C 0.8329 0.11043 0.89363 0.0
C714 C 0.83404 0.09965 0.90214 0.0
C715 C 0.82177 0.08875 0.90949 0.0
C716 C 0.81791 0.12173 0.884 0.0
C717 C 0.84818 0.09953 0.9033 0.0
C718 C 0.93056 0.21081 0.94133 0.0
C719 C 0.92229 0.19659 0.93193 0.0
C720 C 0.90013 0.18295 0.91538 0.0
C721 C 0.90121 0.17008 0.91318 0.0
C722 C 0.89093 0.15796 0.90372 0.0
C723 C 0.87929 0.15866 0.8964 0.0
C724 C 0.87809 0.17152 0.89871 0.0
C725 C 0.88857 0.18352 0.90815 0.0
C726 C 0.89247 0.14437 0.90156 0.0
C727 C 0.86573 0.17257 0.89121 0.0
C728 C 0.90427 0.17703 0.79583 0.0
C729 C 0.90618 0.16514 0.79999 0.0
C730 C 0.89577 0.15362 0.80867 0.0
C731 C 0.8832 0.15396 0.81314 0.0
C732 C 0.8813 0.16595 0.809 0.0
C733 C 0.89194 0.17739 0.80049 0.0
C734 C 0.89817 0.14105 0.81301 0.0
C735 C 0.86796 0.16662 0.81346 0.0
C736 C 0.78955 0.04132 0.79517 0.0
C737 C 0.79344 0.05672 0.78976 0.0
C738 C 0.81821 0.07769 0.79465 0.0
C739 C 0.83203 0.07985 0.79826 0.0
C740 C 0.84253 0.09267 0.80671 0.0
C741 C 0.83919 0.10375 0.81128 0.0
C742 C 0.82546 0.10198 0.80693 0.0
C743 C 0.81507 0.08891 0.79871 0.0
C744 C 0.8571 0.09424 0.81097 0.0
C745 C 0.82172 0.11383 0.8111 0.0
C746 C 0.84562 0.12175 0.88539 0.0
C747 C 0.85629 0.13439 0.8938 0.0
C748 C 0.86821 0.14577 0.8866 0.0
C749 C 0.8694 0.14473 0.87048 0.0
C750 C 0.88102 0.15615 0.86278 0.0
C751 C 0.88189 0.15515 0.84687 0.0
C752 C 0.87124 0.14263 0.83807 0.0
C753 C 0.87185 0.14163 0.82186 0.0
C754 C 0.86125 0.12889 0.8135 0.0
C755 C 0.84995 0.11703 0.82087 0.0
C756 C 0.84903 0.11792 0.83704 0.0
C757 C 0.83776 0.10624 0.84484 0.0
C758 C 0.83667 0.10742 0.86067 0.0
C759 C 0.84689 0.12027 0.86936 0.0
C760 C 0.85867 0.13193 0.86185 0.0
C761 C 0.85967 0.13082 0.84564 0.0
C762 C 0.93186 0.20084 0.76851 0.0
C763 C 0.9258 0.18907 0.78002 0.0
O764 O 0.79603 0.07779 0.91483 0.0
O765 O 0.80825 0.06475 0.7871 0.0
O766 O 0.91393 0.1883 0.78727 0.0
O767 O 0.90993 0.19498 0.92434 0.0
H768 H 0.80479 0.07243 0.93307 0.0
H769 H 0.80275 0.05613 0.91037 0.0
H770 H 0.78332 0.04842 0.90889 0.0
H771 H 0.7916 0.04507 0.92551 0.0
H772 H 0.79695 0.09865 0.89907 0.0
H773 H 0.82276 0.08054 0.9159 0.0
H774 H 0.82694 0.13312 0.88745 0.0
H775 H 0.80734 0.12115 0.88601 0.0
H776 H 0.81859 0.11991 0.87148 0.0
H777 H 0.847 0.08973 0.90934 0.0
H778 H 0.85659 0.10983 0.90967 0.0
H779 H 0.8522 0.09947 0.89162 0.0
H780 H 0.92911 0.19394 0.92435 0.0
H781 H 0.9414 0.21714 0.93575 0.0
H782 H 0.92866 0.20384 0.96393 0.0
H783 H 0.92653 0.21838 0.93737 0.0
H784 H 0.91001 0.16939 0.91881 0.0
H785 H 0.88778 0.19345 0.90995 0.0
H786 H 0.89282 0.14194 0.8891 0.0
H787 H 0.88282 0.13454 0.9061 0.0
H788 H 0.90247 0.14578 0.90752 0.0
H789 H 0.86615 0.1832 0.89444 0.0
H790 H 0.85511 0.16312 0.89458 0.0
H791 H 0.86615 0.17168 0.87849 0.0
H792 H 0.934 0.18901 0.78818 0.0
H793 H 0.91573 0.16478 0.79652 0.0
H794 H 0.89059 0.18662 0.79722 0.0
H795 H 0.89722 0.13963 0.82563 0.0
H796 H 0.90902 0.14298 0.8097 0.0
H797 H 0.88959 0.13047 0.80722 0.0
H798 H 0.86775 0.1763 0.80865 0.0
H799 H 0.86771 0.16745 0.8262 0.0
H800 H 0.85792 0.15621 0.80935 0.0
H801 H 0.79065 0.06221 0.79923 0.0
H802 H 0.77773 0.03468 0.79747 0.0
H803 H 0.79586 0.04256 0.80601 0.0
H804 H 0.79221 0.03519 0.78636 0.0
H805 H 0.83442 0.07122 0.79481 0.0
H806 H 0.80456 0.08753 0.79536 0.0
H807 H 0.8593 0.09633 0.8236 0.0
H808 H 0.86589 0.10399 0.8053 0.0
H809 H 0.85763 0.08417 0.80744 0.0
H810 H 0.8113 0.11155 0.80541 0.0
H811 H 0.8306 0.12493 0.8078 0.0
H812 H 0.82073 0.11439 0.82375 0.0
H813 H 0.85528 0.1354 0.90611 0.0
H814 H 0.88949 0.16606 0.86896 0.0
H815 H 0.891 0.16433 0.84155 0.0
H816 H 0.86179 0.12822 0.80107 0.0
H817 H 0.82956 0.09609 0.83877 0.0
H818 H 0.82769 0.09812 0.86601 0.0
H819 H 0.94322 0.20909 0.77313 0.0
H820 H 0.92742 0.20847 0.77099 0.0
H821 H 0.92784 0.18882 0.74744 0.0
C822 C 0.81473 0.735 0.95544 0.0
C823 C 0.80267 0.72798 0.94268 0.0
C824 C 0.81438 0.71933 0.92415 0.0
C825 C 0.82446 0.73349 0.91897 0.0
C826 C 0.83568 0.73535 0.90936 0.0
C827 C 0.83684 0.72284 0.90477 0.0
C828 C 0.82649 0.70852 0.90956 0.0
C829 C 0.81533 0.70696 0.91914 0.0
C830 C 0.8465 0.75078 0.90434 0.0
C831 C 0.82738 0.69495 0.90479 0.0
C832 C 0.92874 0.75347 0.96302 0.0
C833 C 0.91964 0.74001 0.95195 0.0
C834 C 0.91132 0.74112 0.92625 0.0
C835 C 0.90027 0.72632 0.92313 0.0
C836 C 0.88866 0.7229 0.91267 0.0
C837 C 0.88794 0.73461 0.90554 0.0
C838 C 0.89923 0.74958 0.90859 0.0
C839 C 0.911 0.75259 0.91863 0.0
C840 C 0.877 0.70679 0.90954 0.0
C841 C 0.89867 0.76246 0.90169 0.0
C842 C 0.9147 0.75136 0.8071 0.0
C843 C 0.90726 0.73638 0.81112 0.0
C844 C 0.89386 0.73036 0.8184 0.0
C845 C 0.88808 0.73966 0.82216 0.0
C846 C 0.89545 0.75468 0.81778 0.0
C847 C 0.90853 0.76023 0.81003 0.0
C848 C 0.88598 0.71411 0.8222 0.0
C849 C 0.88961 0.76495 0.82143 0.0
C850 C 0.78325 0.72263 0.8096 0.0
C851 C 0.79068 0.72175 0.79499 0.0
C852 C 0.80968 0.71678 0.80493 0.0
C853 C 0.81333 0.7057 0.80652 0.0
C854 C 0.82609 0.70863 0.81469 0.0
C855 C 0.8355 0.72307 0.82133 0.0
C856 C 0.83206 0.73445 0.81952 0.0
C857 C 0.81916 0.73119 0.8114 0.0
C858 C 0.82943 0.69624 0.81642 0.0
C859 C 0.84195 0.75003 0.82634 0.0
C860 C 0.84936 0.72494 0.89562 0.0
C861 C 0.86216 0.72804 0.90367 0.0
C862 C 0.87479 0.73125 0.89597 0.0
C863 C 0.87475 0.73154 0.87971 0.0
C864 C 0.88734 0.73511 0.87157 0.0
C865 C 0.88736 0.73608 0.85563 0.0
C866 C 0.87462 0.73289 0.84714 0.0
C867 C 0.87453 0.7339 0.83093 0.0
C868 C 0.86158 0.73037 0.82287 0.0
C869 C 0.84872 0.72617 0.83056 0.0
C870 C 0.84868 0.72543 0.84678 0.0
C871 C 0.836 0.72158 0.85491 0.0
C872 C 0.83619 0.72139 0.8709 0.0
C873 C 0.84898 0.72479 0.87936 0.0
C874 C 0.86178 0.72829 0.87139 0.0
C875 C 0.86167 0.72877 0.85508 0.0
C876 C 0.9535 0.76875 0.80385 0.0
C877 C 0.9387 0.75431 0.80347 0.0
O878 O 0.80379 0.71713 0.93412 0.0
O879 O 0.79692 0.71297 0.79719 0.0
O880 O 0.92781 0.75761 0.80039 0.0
O881 O 0.92213 0.74462 0.93696 0.0
H882 H 0.80366 0.73678 0.93499 0.0
H883 H 0.82569 0.7407 0.95046 0.0
H884 H 0.81409 0.72631 0.96307 0.0
H885 H 0.81363 0.74345 0.96248 0.0
H886 H 0.82382 0.74319 0.92247 0.0
H887 H 0.80747 0.69607 0.92307 0.0
H888 H 0.85763 0.754 0.90878 0.0
H889 H 0.84387 0.75932 0.90852 0.0
H890 H 0.84671 0.75078 0.89158 0.0
H891 H 0.81817 0.6845 0.90899 0.0
H892 H 0.8378 0.69622 0.9094 0.0
H893 H 0.8274 0.69395 0.89204 0.0
H894 H 0.90797 0.73573 0.95458 0.0
H895 H 0.92683 0.75007 0.97515 0.0
H896 H 0.92555 0.76201 0.96137 0.0
H897 H 0.94057 0.75856 0.96089 0.0
H898 H 0.90072 0.71747 0.92894 0.0
H899 H 0.91966 0.76399 0.92116 0.0
H900 H 0.87427 0.70443 0.897 0.0
H901 H 0.86694 0.70458 0.91538 0.0
H902 H 0.88041 0.699 0.91382 0.0
H903 H 0.90706 0.77339 0.90708 0.0
H904 H 0.88774 0.76122 0.90305 0.0
H905 H 0.90058 0.76256 0.88919 0.0
H906 H 0.93742 0.74976 0.81516 0.0
H907 H 0.91182 0.72936 0.80845 0.0
H908 H 0.9143 0.77172 0.80668 0.0
H909 H 0.88677 0.71319 0.83482 0.0
H910 H 0.89067 0.7079 0.8164 0.0
H911 H 0.87422 0.70874 0.81875 0.0
H912 H 0.8975 0.77671 0.81889 0.0
H913 H 0.88693 0.76447 0.83376 0.0
H914 H 0.87939 0.76123 0.81446 0.0
H915 H 0.79924 0.73318 0.79209 0.0
H916 H 0.77809 0.72951 0.80776 0.0
H917 H 0.79136 0.72786 0.81937 0.0
H918 H 0.77473 0.71129 0.81279 0.0
H919 H 0.80599 0.69464 0.80147 0.0
H920 H 0.81658 0.73995 0.81032 0.0
H921 H 0.83041 0.69451 0.82882 0.0
H922 H 0.84008 0.69944 0.81132 0.0
H923 H 0.82089 0.68555 0.81074 0.0
H924 H 0.83829 0.7579 0.82301 0.0
H925 H 0.85326 0.75434 0.82253 0.0
H926 H 0.84227 0.74977 0.83909 0.0
H927 H 0.86237 0.7282 0.91616 0.0
H928 H 0.8974 0.73747 0.87746 0.0
H929 H 0.8975 0.73928 0.85007 0.0
H930 H 0.86158 0.7312 0.81045 0.0
H931 H 0.82582 0.71884 0.84902 0.0
H932 H 0.82616 0.71853 0.87656 0.0
H933 H 0.95542 0.77414 0.7926 0.0
H934 H 0.96242 0.76643 0.8065 0.0
H935 H 0.9538 0.77665 0.81294 0.0
C936 C 0.88519 0.60244 0.42726 0.0
C937 C 0.88273 0.61254 0.41662 0.0
C938 C 0.86984 0.62182 0.43277 0.0
C939 C 0.87143 0.63438 0.4409 0.0
C940 C 0.86002 0.63368 0.44938 0.0
C941 C 0.84669 0.62001 0.44979 0.0
C942 C 0.84487 0.60729 0.44137 0.0
C943 C 0.85645 0.60831 0.43291 0.0
C944 C 0.86229 0.6475 0.45814 0.0
C945 C 0.83076 0.59255 0.44158 0.0
C946 C 0.76354 0.617 0.40659 0.0
C947 C 0.76088 0.62383 0.4212 0.0
C948 C 0.78272 0.62989 0.43739 0.0
C949 C 0.77896 0.61511 0.44012 0.0
C950 C 0.78874 0.61203 0.44803 0.0
C951 C 0.80239 0.62396 0.45369 0.0
C952 C 0.806 0.63884 0.45141 0.0
C953 C 0.79613 0.64158 0.44322 0.0
C954 C 0.78457 0.59602 0.45017 0.0
C955 C 0.82037 0.65186 0.45743 0.0
C956 C 0.77695 0.60695 0.55224 0.0
C957 C 0.77615 0.59384 0.54621 0.0
C958 C 0.78743 0.59453 0.53745 0.0
C959 C 0.79985 0.60855 0.53493 0.0
C960 C 0.80092 0.62171 0.54145 0.0
C961 C 0.78938 0.62072 0.54993 0.0
C962 C 0.78598 0.58028 0.53069 0.0
C963 C 0.81414 0.63682 0.53924 0.0
C964 C 0.89738 0.59633 0.54532 0.0
C965 C 0.8909 0.60595 0.55024 0.0
C966 C 0.86577 0.59999 0.54448 0.0
C967 C 0.85208 0.58801 0.53982 0.0
C968 C 0.84139 0.59034 0.53291 0.0
C969 C 0.84442 0.60508 0.53092 0.0
C970 C 0.85805 0.6173 0.53623 0.0
C971 C 0.86861 0.61463 0.54294 0.0
C972 C 0.82693 0.57705 0.52754 0.0
C973 C 0.86147 0.63315 0.53468 0.0
C974 C 0.8349 0.61889 0.45955 0.0
C975 C 0.82423 0.6213 0.45287 0.0
C976 C 0.81311 0.62091 0.46157 0.0
C977 C 0.81256 0.61801 0.47743 0.0
C978 C 0.8016 0.6176 0.48657 0.0
C979 C 0.80114 0.61468 0.50213 0.0
C980 C 0.81178 0.6123 0.50923 0.0
C981 C 0.8115 0.60948 0.52507 0.0
C982 C 0.8223 0.6073 0.5318 0.0
C983 C 0.8334 0.6077 0.52307 0.0
C984 C 0.83377 0.61033 0.50716 0.0
C985 C 0.84465 0.61058 0.49799 0.0
C986 C 0.84501 0.61332 0.48239 0.0
C987 C 0.83449 0.61589 0.47535 0.0
C988 C 0.82332 0.61551 0.48432 0.0
C989 C 0.82296 0.61272 0.50025 0.0
C990 C 0.74228 0.58929 0.54913 0.0
C991 C 0.75262 0.59486 0.56347 0.0
O992 O 0.88157 0.62332 0.4252 0.0
O993 O 0.87584 0.59695 0.55048 0.0
O994 O 0.76603 0.60695 0.56013 0.0
O995 O 0.77398 0.63345 0.42909 0.0
H996 H 0.87258 0.60566 0.4094 0.0
H997 H 0.87577 0.59644 0.43474 0.0
H998 H 0.89517 0.60911 0.43476 0.0
H999 H 0.88639 0.59399 0.42033 0.0
H1000 H 0.88176 0.64476 0.44068 0.0
H1001 H 0.85497 0.59848 0.42663 0.0
H1002 H 0.8535 0.64981 0.45484 0.0
H1003 H 0.87302 0.65746 0.45597 0.0
H1004 H 0.86167 0.64562 0.47067 0.0
H1005 H 0.83099 0.58369 0.43434 0.0
H1006 H 0.82157 0.5939 0.43738 0.0
H1007 H 0.82855 0.58886 0.45359 0.0
H1008 H 0.75366 0.61476 0.42879 0.0
H1009 H 0.76844 0.61012 0.40949 0.0
H1010 H 0.77106 0.6259 0.39903 0.0
H1011 H 0.75304 0.60968 0.40009 0.0
H1012 H 0.76851 0.60589 0.43598 0.0
H1013 H 0.79892 0.65295 0.44118 0.0
H1014 H 0.78382 0.59383 0.46264 0.0
H1015 H 0.79314 0.59397 0.44564 0.0
H1016 H 0.77395 0.58799 0.44428 0.0
H1017 H 0.82091 0.66272 0.45607 0.0
H1018 H 0.8294 0.65197 0.4511 0.0
H1019 H 0.82215 0.65066 0.46981 0.0
H1020 H 0.75414 0.58568 0.5676 0.0
H1021 H 0.76674 0.58305 0.5481 0.0
H1022 H 0.78995 0.63075 0.55472 0.0
H1023 H 0.78723 0.581 0.51804 0.0
H1024 H 0.7753 0.57032 0.53302 0.0
H1025 H 0.79483 0.57874 0.53563 0.0
H1026 H 0.81385 0.64583 0.54617 0.0
H1027 H 0.81471 0.63946 0.5269 0.0
H1028 H 0.82424 0.63671 0.5425 0.0
H1029 H 0.89396 0.6145 0.54142 0.0
H1030 H 0.90945 0.60328 0.54485 0.0
H1031 H 0.89293 0.5911 0.53367 0.0
H1032 H 0.89461 0.58733 0.55349 0.0
H1033 H 0.84992 0.57676 0.54128 0.0
H1034 H 0.879 0.62398 0.54707 0.0
H1035 H 0.8247 0.57786 0.51518 0.0
H1036 H 0.81806 0.57699 0.53413 0.0
H1037 H 0.82661 0.56631 0.52908 0.0
H1038 H 0.87211 0.64139 0.54042 0.0
H1039 H 0.85273 0.63462 0.53974 0.0
H1040 H 0.86181 0.63559 0.5223 0.0
H1041 H 0.82467 0.62365 0.44075 0.0
H1042 H 0.79321 0.61948 0.48177 0.0
H1043 H 0.79238 0.6144 0.50855 0.0
H1044 H 0.82202 0.60519 0.54397 0.0
H1045 H 0.85303 0.60868 0.50276 0.0
H1046 H 0.85366 0.6134 0.47593 0.0
H1047 H 0.73142 0.57989 0.55201 0.0
H1048 H 0.74662 0.58523 0.53987 0.0
H1049 H 0.74088 0.5984 0.5446 0.0
C1050 C 0.41305 0.28946 0.42791 0.0
C1051 C 0.39971 0.27556 0.42054 0.0
C1052 C 0.39147 0.25565 0.43921 0.0
C1053 C 0.37945 0.24609 0.44759 0.0
C1054 C 0.37921 0.23449 0.45562 0.0
C1055 C 0.39165 0.23282 0.45579 0.0
C1056 C 0.40393 0.2425 0.44735 0.0
C1057 C 0.40365 0.25373 0.43897 0.0
C1058 C 0.36561 0.22402 0.46386 0.0
C1059 C 0.41736 0.24104 0.44727 0.0
C1060 C 0.35755 0.12034 0.41134 0.0
C1061 C 0.35889 0.13432 0.41801 0.0
C1062 C 0.37466 0.15534 0.43595 0.0
C1063 C 0.38876 0.1638 0.44255 0.0
C1064 C 0.39302 0.17697 0.45142 0.0
C1065 C 0.38268 0.18146 0.45426 0.0
C1066 C 0.36835 0.17291 0.4477 0.0
C1067 C 0.36457 0.16012 0.4384 0.0
C1068 C 0.40856 0.18609 0.4577 0.0
C1069 C 0.35695 0.17726 0.45049 0.0
C1070 C 0.38294 0.15923 0.55468 0.0
C1071 C 0.39702 0.17114 0.5521 0.0
C1072 C 0.39899 0.18331 0.54372 0.0
C1073 C 0.38664 0.18372 0.53799 0.0
C1074 C 0.37245 0.17186 0.54074 0.0
C1075 C 0.37081 0.15969 0.54893 0.0
C1076 C 0.41428 0.19575 0.54096 0.0
C1077 C 0.35905 0.17205 0.53501 0.0
C1078 C 0.4075 0.29719 0.55764 0.0
C1079 C 0.39692 0.28175 0.5634 0.0
C1080 C 0.40112 0.26114 0.55649 0.0
C1081 C 0.41267 0.25877 0.55341 0.0
C1082 C 0.41039 0.24611 0.54475 0.0
C1083 C 0.39611 0.23544 0.53926 0.0
C1084 C 0.38427 0.2375 0.54279 0.0
C1085 C 0.38687 0.2503 0.55144 0.0
C1086 C 0.42324 0.2442 0.54134 0.0
C1087 C 0.36887 0.22615 0.53739 0.0
C1088 C 0.39158 0.22072 0.46455 0.0
C1089 C 0.38891 0.20779 0.45631 0.0
C1090 C 0.38679 0.19519 0.46385 0.0
C1091 C 0.38747 0.19549 0.48015 0.0
C1092 C 0.38498 0.18291 0.48817 0.0
C1093 C 0.38557 0.1833 0.50419 0.0
C1094 C 0.38833 0.19618 0.51284 0.0
C1095 C 0.38864 0.19658 0.52913 0.0
C1096 C 0.39116 0.20948 0.53735 0.0
C1097 C 0.39358 0.22216 0.52977 0.0
C1098 C 0.39355 0.22206 0.51349 0.0
C1099 C 0.39617 0.23469 0.50549 0.0
C1100 C 0.3958 0.23437 0.48947 0.0
C1101 C 0.3927 0.22138 0.48083 0.0
C1102 C 0.39045 0.20866 0.48865 0.0
C1103 C 0.39081 0.20897 0.505 0.0
C1104 C 0.38523 0.13253 0.58042 0.0
C1105 C 0.39121 0.14576 0.57069 0.0
O1106 O 0.39082 0.26665 0.43183 0.0
O1107 O 0.40414 0.27379 0.56466 0.0
O1108 O 0.3806 0.14719 0.56266 0.0
O1109 O 0.37126 0.14268 0.42752 0.0
H1110 H 0.40339 0.26919 0.41325 0.0
H1111 H 0.41967 0.28627 0.43515 0.0
H1112 H 0.40964 0.29597 0.43531 0.0
H1113 H 0.42008 0.29667 0.41883 0.0
H1114 H 0.3701 0.24765 0.44765 0.0
H1115 H 0.41304 0.26103 0.43249 0.0
H1116 H 0.36274 0.21226 0.46165 0.0
H1117 H 0.35612 0.22514 0.46026 0.0
H1118 H 0.3676 0.22655 0.47646 0.0
H1119 H 0.4266 0.25047 0.44168 0.0
H1120 H 0.41476 0.2305 0.44096 0.0
H1121 H 0.42087 0.24051 0.45924 0.0
H1122 H 0.34861 0.13259 0.42306 0.0
H1123 H 0.36527 0.11815 0.41834 0.0
H1124 H 0.35949 0.12379 0.38771 0.0
H1125 H 0.34742 0.11104 0.4163 0.0
H1126 H 0.39652 0.16013 0.44054 0.0
H1127 H 0.35364 0.15393 0.43331 0.0
H1128 H 0.40882 0.18518 0.47037 0.0
H1129 H 0.41309 0.19805 0.45536 0.0
H1130 H 0.41572 0.18228 0.45264 0.0
H1131 H 0.34582 0.16828 0.44661 0.0
H1132 H 0.35966 0.18738 0.4441 0.0
H1133 H 0.35685 0.17999 0.46292 0.0
H1134 H 0.40034 0.14722 0.5634 0.0
H1135 H 0.40655 0.171 0.55651 0.0
H1136 H 0.35999 0.1505 0.55101 0.0
H1137 H 0.4156 0.19779 0.52847 0.0
H1138 H 0.42273 0.19325 0.54516 0.0
H1139 H 0.41618 0.20619 0.54696 0.0
H1140 H 0.34882 0.16253 0.53909 0.0
H1141 H 0.35854 0.17153 0.52223 0.0
H1142 H 0.35968 0.18263 0.53893 0.0
H1143 H 0.38769 0.2763 0.55473 0.0
H1144 H 0.40198 0.30379 0.55643 0.0
H1145 H 0.41137 0.29602 0.54618 0.0
H1146 H 0.41713 0.30333 0.56573 0.0
H1147 H 0.42358 0.26706 0.55759 0.0
H1148 H 0.37775 0.25166 0.55441 0.0
H1149 H 0.42403 0.24315 0.5287 0.0
H1150 H 0.42159 0.23375 0.54629 0.0
H1151 H 0.43371 0.25368 0.54614 0.0
H1152 H 0.36078 0.22915 0.54144 0.0
H1153 H 0.36592 0.21503 0.5416 0.0
H1154 H 0.36815 0.22519 0.52461 0.0
H1155 H 0.38789 0.20731 0.44383 0.0
H1156 H 0.38256 0.1726 0.48215 0.0
H1157 H 0.38367 0.1733 0.50971 0.0
H1158 H 0.3913 0.20968 0.54984 0.0
H1159 H 0.39848 0.24496 0.51152 0.0
H1160 H 0.39789 0.24443 0.48393 0.0
H1161 H 0.3893 0.12528 0.57534 0.0
H1162 H 0.37356 0.12488 0.57625 0.0
H1163 H 0.39098 0.1419 0.60292 0.0
C1164 C 0.86013 0.25083 0.39791 0.0
C1165 C 0.87118 0.25503 0.41147 0.0
C1166 C 0.85735 0.2343 0.42855 0.0
C1167 C 0.84748 0.23878 0.43328 0.0
C1168 C 0.83586 0.22979 0.44258 0.0
C1169 C 0.83411 0.21612 0.44739 0.0
C1170 C 0.84416 0.2117 0.44291 0.0
C1171 C 0.85567 0.22089 0.43356 0.0
C1172 C 0.82533 0.23483 0.4472 0.0
C1173 C 0.84265 0.19724 0.44794 0.0
C1174 C 0.72505 0.1395 0.42368 0.0
C1175 C 0.73676 0.13751 0.41573 0.0
C1176 C 0.7587 0.15003 0.43322 0.0
C1177 C 0.7681 0.14741 0.44225 0.0
C1178 C 0.78057 0.15916 0.4498 0.0
C1179 C 0.78343 0.17396 0.44867 0.0
C1180 C 0.774 0.17675 0.43945 0.0
C1181 C 0.7618 0.16476 0.43166 0.0
C1182 C 0.79059 0.15569 0.45904 0.0
C1183 C 0.77671 0.19238 0.43801 0.0
C1184 C 0.7584 0.16686 0.54589 0.0
C1185 C 0.76675 0.16068 0.54077 0.0
C1186 C 0.78006 0.16951 0.53374 0.0
C1187 C 0.7849 0.18472 0.53145 0.0
C1188 C 0.77679 0.1911 0.5372 0.0
C1189 C 0.76373 0.18209 0.54458 0.0
C1190 C 0.78875 0.16247 0.52843 0.0
C1191 C 0.78166 0.2073 0.53511 0.0
C1192 C 0.8932 0.27193 0.54067 0.0
C1193 C 0.88564 0.26587 0.55579 0.0
C1194 C 0.86429 0.2417 0.54703 0.0
C1195 C 0.85915 0.22642 0.54539 0.0
C1196 C 0.84594 0.21672 0.53735 0.0
C1197 C 0.83752 0.22246 0.531 0.0
C1198 C 0.84241 0.23786 0.53298 0.0
C1199 C 0.85583 0.24737 0.54082 0.0
C1200 C 0.84108 0.20036 0.53546 0.0
C1201 C 0.83351 0.24429 0.52668 0.0
C1202 C 0.82159 0.20636 0.45684 0.0
C1203 C 0.80873 0.19541 0.44918 0.0
C1204 C 0.79624 0.18638 0.45728 0.0
C1205 C 0.7964 0.18862 0.47343 0.0
C1206 C 0.78375 0.18049 0.48181 0.0
C1207 C 0.78415 0.18235 0.49775 0.0
C1208 C 0.79726 0.19224 0.50597 0.0
C1209 C 0.79792 0.19371 0.52224 0.0
C1210 C 0.81112 0.20372 0.53002 0.0
C1211 C 0.82378 0.21238 0.52198 0.0
C1212 C 0.82333 0.21108 0.5057 0.0
C1213 C 0.83584 0.21962 0.49723 0.0
C1214 C 0.83527 0.21825 0.48122 0.0
C1215 C 0.82224 0.20804 0.47308 0.0
C1216 C 0.80955 0.19922 0.48139 0.0
C1217 C 0.81004 0.20088 0.4977 0.0
C1218 C 0.71986 0.14201 0.54624 0.0
C1219 C 0.73506 0.14382 0.54727 0.0
O1220 O 0.86849 0.2424 0.4191 0.0
O1221 O 0.87741 0.25042 0.55461 0.0
O1222 O 0.74513 0.15842 0.55195 0.0
O1223 O 0.74674 0.13795 0.42653 0.0
H1224 H 0.87037 0.26303 0.4196 0.0
H1225 H 0.84885 0.24576 0.40202 0.0
H1226 H 0.86063 0.24267 0.38977 0.0
H1227 H 0.86247 0.26093 0.39166 0.0
H1228 H 0.84864 0.24918 0.42969 0.0
H1229 H 0.86335 0.21754 0.42995 0.0
H1230 H 0.81407 0.22632 0.44316 0.0
H1231 H 0.82808 0.24569 0.44239 0.0
H1232 H 0.82539 0.23592 0.45994 0.0
H1233 H 0.85164 0.19562 0.4439 0.0
H1234 H 0.83209 0.18774 0.44335 0.0
H1235 H 0.84256 0.197 0.4607 0.0
H1236 H 0.74245 0.14651 0.40748 0.0
H1237 H 0.71692 0.13887 0.415 0.0
H1238 H 0.73003 0.15053 0.42994 0.0
H1239 H 0.71933 0.13072 0.43211 0.0
H1240 H 0.76565 0.13601 0.44332 0.0
H1241 H 0.75468 0.167 0.42461 0.0
H1242 H 0.78916 0.15691 0.4715 0.0
H1243 H 0.80218 0.16362 0.45663 0.0
H1244 H 0.78827 0.14414 0.45652 0.0
H1245 H 0.76757 0.19253 0.43176 0.0
H1246 H 0.78685 0.19906 0.43171 0.0
H1247 H 0.77833 0.19787 0.44961 0.0
H1248 H 0.73738 0.14133 0.53543 0.0
H1249 H 0.76287 0.14897 0.54223 0.0
H1250 H 0.75728 0.18678 0.5488 0.0
H1251 H 0.78761 0.16079 0.5157 0.0
H1252 H 0.78496 0.15147 0.53349 0.0
H1253 H 0.80053 0.16991 0.53155 0.0
H1254 H 0.7737 0.21034 0.5395 0.0
H1255 H 0.7832 0.20976 0.52272 0.0
H1256 H 0.79234 0.21447 0.54131 0.0
H1257 H 0.87848 0.27052 0.55845 0.0
H1258 H 0.89987 0.28431 0.54159 0.0
H1259 H 0.88497 0.26874 0.53108 0.0
H1260 H 0.9004 0.26737 0.53784 0.0
H1261 H 0.86571 0.22213 0.55026 0.0
H1262 H 0.85955 0.25915 0.542 0.0
H1263 H 0.839 0.19677 0.52306 0.0
H1264 H 0.83068 0.19369 0.54135 0.0
H1265 H 0.8493 0.19782 0.5403 0.0
H1266 H 0.838 0.25612 0.5306 0.0
H1267 H 0.82205 0.23767 0.53028 0.0
H1268 H 0.83331 0.24363 0.51391 0.0
H1269 H 0.80849 0.19381 0.43677 0.0
H1270 H 0.77339 0.17259 0.47613 0.0
H1271 H 0.77405 0.17578 0.50355 0.0
H1272 H 0.81158 0.20471 0.54251 0.0
H1273 H 0.84622 0.22751 0.50287 0.0
H1274 H 0.84522 0.22515 0.47531 0.0
H1275 H 0.71686 0.14466 0.55759 0.0
H1276 H 0.71159 0.1304 0.54238 0.0
H1277 H 0.71967 0.14971 0.53776 0.0
C1278 C 0.03068 0.48469 0.29506 0.0
C1279 C 0.02121 0.47427 0.28159 0.0
C1280 C 0.02055 0.48195 0.25522 0.0
C1281 C 0.00543 0.47291 0.25214 0.0
C1282 C 0.99865 0.47557 0.23959 0.0
C1283 C 0.00718 0.48734 0.22988 0.0
C1284 C 0.02252 0.49574 0.23235 0.0
C1285 C 0.029 0.49286 0.24497 0.0
C1286 C 0.98231 0.4662 0.23703 0.0
C1287 C 0.03199 0.50825 0.2221 0.0
C1288 C 0.98401 0.56819 0.26598 0.0
C1289 C 0.97756 0.55447 0.2557 0.0
C1290 C 0.98658 0.54422 0.23582 0.0
C1291 C 0.99851 0.5476 0.22682 0.0
C1292 C 0.99985 0.53629 0.21921 0.0
C1293 C 0.98874 0.52122 0.22041 0.0
C1294 C 0.97631 0.51776 0.22899 0.0
C1295 C 0.97535 0.5293 0.23666 0.0
C1296 C 0.01337 0.54043 0.21035 0.0
C1297 C 0.96422 0.50183 0.23037 0.0
C1298 C 0.97082 0.51404 0.1168 0.0
C1299 C 0.98538 0.51808 0.11938 0.0
C1300 C 0.98945 0.5112 0.13045 0.0
C1301 C 0.97855 0.49961 0.13887 0.0
C1302 C 0.96369 0.49523 0.13614 0.0
C1303 C 0.95998 0.50266 0.12528 0.0
C1304 C 0.00542 0.51628 0.13299 0.0
C1305 C 0.95175 0.48266 0.14461 0.0
C1306 C 0.02154 0.42479 0.13658 0.0
C1307 C 0.00942 0.42595 0.12811 0.0
C1308 C 0.00824 0.44865 0.13405 0.0
C1309 C 0.01762 0.46386 0.13738 0.0
C1310 C 0.01262 0.47265 0.14446 0.0
C1311 C 0.99775 0.46605 0.14812 0.0
C1312 C 0.98811 0.45069 0.14458 0.0
C1313 C 0.99342 0.44213 0.13747 0.0
C1314 C 0.02322 0.48903 0.14792 0.0
C1315 C 0.97217 0.44338 0.14816 0.0
C1316 C 1.00001 0.49226 0.21858 0.0
C1317 C 0.9965 0.50283 0.2239 0.0
C1318 C 0.99084 0.50909 0.21393 0.0
C1319 C 0.98832 0.50454 0.19815 0.0
C1320 C 0.98271 0.51069 0.18779 0.0
C1321 C 0.98087 0.50662 0.17216 0.0
C1322 C 0.98433 0.49605 0.16635 0.0
C1323 C 0.98282 0.4921 0.15043 0.0
C1324 C 0.98668 0.4818 0.14502 0.0
C1325 C 0.99226 0.47545 0.15503 0.0
C1326 C 0.99369 0.47911 0.17101 0.0
C1327 C 0.99919 0.47287 0.18144 0.0
C1328 C 0.00111 0.47701 0.19707 0.0
C1329 C 0.99761 0.48755 0.20285 0.0
C1330 C 0.99177 0.49376 0.19259 0.0
C1331 C 0.98977 0.4895 0.17666 0.0
C1332 C 0.9447 0.50871 0.09203 0.0
C1333 C 0.95513 0.52161 0.10317 0.0
O1334 O 0.02742 0.48071 0.26794 0.0
O1335 O 0.01385 0.44092 0.12698 0.0
O1336 O 0.96784 0.52123 0.10579 0.0
O1337 O 0.98657 0.55564 0.24381 0.0
H1338 H 0.01024 0.47306 0.28259 0.0
H1339 H 0.03124 0.49563 0.29436 0.0
H1340 H 0.04195 0.4866 0.29479 0.0
H1341 H 0.02591 0.47987 0.30619 0.0
H1342 H 0.99886 0.4639 0.25955 0.0
H1343 H 0.04069 0.49956 0.24726 0.0
H1344 H 0.97734 0.47319 0.23942 0.0
H1345 H 0.9774 0.45653 0.24457 0.0
H1346 H 0.97956 0.46204 0.22482 0.0
H1347 H 0.04382 0.51291 0.2248 0.0
H1348 H 0.02947 0.51735 0.22355 0.0
H1349 H 0.02961 0.50422 0.20984 0.0
H1350 H 0.96599 0.54995 0.25171 0.0
H1351 H 0.98738 0.56107 0.28716 0.0
H1352 H 0.97645 0.57273 0.26442 0.0
H1353 H 0.99316 0.57735 0.25965 0.0
H1354 H 0.00706 0.55916 0.2262 0.0
H1355 H 0.96594 0.52661 0.24341 0.0
H1356 H 0.0103 0.53692 0.19803 0.0
H1357 H 0.01883 0.53448 0.21477 0.0
H1358 H 0.02131 0.55261 0.21117 0.0
H1359 H 0.9545 0.50109 0.23581 0.0
H1360 H 0.96826 0.49585 0.23747 0.0
H1361 H 0.96087 0.49602 0.21882 0.0
H1362 H 0.94969 0.52073 0.11423 0.0
H1363 H 0.99363 0.52681 0.11271 0.0
H1364 H 0.94863 0.49934 0.12333 0.0
H1365 H 0.00841 0.51759 0.14548 0.0
H1366 H 0.01259 0.52703 0.12757 0.0
H1367 H 0.00757 0.50772 0.12784 0.0
H1368 H 0.9407 0.47943 0.13988 0.0
H1369 H 0.95251 0.48613 0.15695 0.0
H1370 H 0.9531 0.47274 0.14399 0.0
H1371 H 0.9995 0.42009 0.13497 0.0
H1372 H 0.01826 0.41292 0.13794 0.0
H1373 H 0.02369 0.43034 0.14823 0.0
H1374 H 0.03179 0.43032 0.13018 0.0
H1375 H 0.02897 0.46882 0.13448 0.0
H1376 H 0.98589 0.43052 0.13431 0.0
H1377 H 0.02398 0.49152 0.16052 0.0
H1378 H 0.01922 0.49581 0.14231 0.0
H1379 H 0.03433 0.49254 0.14392 0.0
H1380 H 0.96624 0.43114 0.14553 0.0
H1381 H 0.96693 0.44839 0.14132 0.0
H1382 H 0.97105 0.44546 0.16052 0.0
H1383 H 0.99866 0.5066 0.23594 0.0
H1384 H 0.97985 0.51886 0.19162 0.0
H1385 H 0.97675 0.51193 0.1647 0.0
H1386 H 0.98586 0.47913 0.13275 0.0
H1387 H 0.00216 0.46478 0.17759 0.0
H1388 H 0.00548 0.47196 0.20457 0.0
H1389 H 0.9499 0.50938 0.08088 0.0
H1390 H 0.93453 0.50907 0.08989 0.0
H1391 H 0.94168 0.49783 0.09695 0.0
C1392 C 0.47036 0.40268 0.28911 0.0
C1393 C 0.46749 0.4125 0.27855 0.0
C1394 C 0.47647 0.41904 0.25288 0.0
C1395 C 0.47492 0.43148 0.25077 0.0
C1396 C 0.48341 0.44218 0.24021 0.0
C1397 C 0.49397 0.44057 0.23197 0.0
C1398 C 0.49545 0.42791 0.2341 0.0
C1399 C 0.48636 0.41709 0.24423 0.0
C1400 C 0.48124 0.45529 0.23805 0.0
C1401 C 0.50691 0.42596 0.22607 0.0
C1402 C 0.58556 0.54551 0.27434 0.0
C1403 C 0.57736 0.53047 0.26644 0.0
C1404 C 0.55783 0.51656 0.2468 0.0
C1405 C 0.55852 0.5034 0.24698 0.0
C1406 C 0.54848 0.4906 0.23816 0.0
C1407 C 0.53725 0.49079 0.22931 0.0
C1408 C 0.53641 0.50397 0.22927 0.0
C1409 C 0.54688 0.51674 0.23783 0.0
C1410 C 0.54984 0.47683 0.2384 0.0
C1411 C 0.52435 0.50452 0.2204 0.0
C1412 C 0.5592 0.50176 0.12946 0.0
C1413 C 0.55867 0.48834 0.13224 0.0
C1414 C 0.54746 0.47743 0.14076 0.0
C1415 C 0.53631 0.4799 0.14615 0.0
C1416 C 0.53642 0.49317 0.1426 0.0
C1417 C 0.54798 0.50405 0.13443 0.0
C1418 C 0.54769 0.4634 0.14419 0.0
C1419 C 0.52442 0.49595 0.14758 0.0
C1420 C 0.437 0.36869 0.13422 0.0
C1421 C 0.44385 0.38431 0.12793 0.0
C1422 C 0.4692 0.40384 0.13432 0.0
C1423 C 0.48252 0.40544 0.13926 0.0
C1424 C 0.49346 0.41878 0.14653 0.0
C1425 C 0.49107 0.43091 0.14867 0.0
C1426 C 0.47783 0.42959 0.14313 0.0
C1427 C 0.46702 0.41606 0.13596 0.0
C1428 C 0.5075 0.41983 0.15216 0.0
C1429 C 0.47508 0.44244 0.14496 0.0
C1430 C 0.5041 0.45255 0.22197 0.0
C1431 C 0.51523 0.46573 0.22919 0.0
C1432 C 0.52599 0.47701 0.22072 0.0
C1433 C 0.52587 0.47501 0.20453 0.0
C1434 C 0.53704 0.48564 0.19573 0.0
C1435 C 0.53677 0.48359 0.17981 0.0
C1436 C 0.52525 0.47089 0.17204 0.0
C1437 C 0.52478 0.4688 0.15583 0.0
C1438 C 0.51335 0.45585 0.14855 0.0
C1439 C 0.50232 0.44483 0.15702 0.0
C1440 C 0.50247 0.44684 0.17321 0.0
C1441 C 0.49145 0.43606 0.18206 0.0
C1442 C 0.49183 0.438 0.198 0.0
C1443 C 0.50332 0.45073 0.20573 0.0
C1444 C 0.51436 0.46191 0.197 0.0
C1445 C 0.51399 0.45991 0.18073 0.0
C1446 C 0.58865 0.53767 0.11662 0.0
C1447 C 0.5796 0.52672 0.12809 0.0
O1448 O 0.46873 0.40888 0.2634 0.0
O1449 O 0.45887 0.39042 0.12791 0.0
O1450 O 0.5706 0.51236 0.12195 0.0
O1451 O 0.56741 0.52924 0.25508 0.0
H1452 H 0.47604 0.42429 0.28162 0.0
H1453 H 0.48148 0.40451 0.28735 0.0
H1454 H 0.46228 0.39068 0.28656 0.0
H1455 H 0.4697 0.40553 0.30137 0.0
H1456 H 0.46703 0.43278 0.25734 0.0
H1457 H 0.48739 0.40738 0.24597 0.0
H1458 H 0.49042 0.4654 0.24393 0.0
H1459 H 0.47089 0.45345 0.24294 0.0
H1460 H 0.48117 0.45749 0.22564 0.0
H1461 H 0.50849 0.41719 0.23122 0.0
H1462 H 0.51756 0.43658 0.22659 0.0
H1463 H 0.50353 0.42267 0.21377 0.0
H1464 H 0.58437 0.5259 0.26267 0.0
H1465 H 0.59729 0.54996 0.2714 0.0
H1466 H 0.57858 0.54165 0.29696 0.0
H1467 H 0.58406 0.55335 0.26685 0.0
H1468 H 0.56689 0.50301 0.25389 0.0
H1469 H 0.54639 0.52691 0.23778 0.0
H1470 H 0.54877 0.47206 0.22653 0.0
H1471 H 0.5409 0.46825 0.2451 0.0
H1472 H 0.56043 0.47919 0.24375 0.0
H1473 H 0.5241 0.51488 0.22325 0.0
H1474 H 0.51359 0.49475 0.22285 0.0
H1475 H 0.52596 0.50404 0.20787 0.0
H1476 H 0.57415 0.53063 0.13631 0.0
H1477 H 0.56733 0.48665 0.12814 0.0
H1478 H 0.54826 0.51431 0.13182 0.0
H1479 H 0.54636 0.46134 0.15668 0.0
H1480 H 0.55797 0.46397 0.14074 0.0
H1481 H 0.5384 0.45375 0.13785 0.0
H1482 H 0.52491 0.50562 0.14191 0.0
H1483 H 0.52544 0.49822 0.16023 0.0
H1484 H 0.51356 0.48591 0.14488 0.0
H1485 H 0.44089 0.39091 0.13584 0.0
H1486 H 0.42495 0.36355 0.13453 0.0
H1487 H 0.44134 0.3694 0.14613 0.0
H1488 H 0.43958 0.36141 0.12696 0.0
H1489 H 0.48418 0.39602 0.13771 0.0
H1490 H 0.45697 0.41513 0.13157 0.0
H1491 H 0.509 0.42225 0.1648 0.0
H1492 H 0.51689 0.42918 0.14669 0.0
H1493 H 0.50768 0.40939 0.14957 0.0
H1494 H 0.4644 0.43981 0.13965 0.0
H1495 H 0.4839 0.45241 0.13961 0.0
H1496 H 0.47531 0.44536 0.15739 0.0
H1497 H 0.51566 0.46714 0.24164 0.0
H1498 H 0.54617 0.49563 0.20106 0.0
H1499 H 0.54573 0.49213 0.17367 0.0
H1500 H 0.51315 0.45422 0.13614 0.0
H1501 H 0.48239 0.42598 0.17677 0.0
H1502 H 0.48303 0.42936 0.20422 0.0
H1503 H 0.58356 0.53246 0.10493 0.0
H1504 H 0.61 0.54354 0.12327 0.0
H1505 H 0.58484 0.546 0.11657 0.0
C1506 C 0.44306 0.9725 0.28843 0.0
C1507 C 0.44286 0.98307 0.27668 0.0
C1508 C 0.45326 0.98366 0.25179 0.0
C1509 C 0.46102 0.99911 0.2499 0.0
C1510 C 0.47265 0.00545 0.23989 0.0
C1511 C 0.47653 0.99613 0.2316 0.0
C1512 C 0.46836 0.98049 0.23306 0.0
C1513 C 0.45667 0.97444 0.24301 0.0
C1514 C 0.4809 0.02213 0.23829 0.0
C1515 C 0.47219 0.97022 0.22438 0.0
C1516 C 0.56904 0.04105 0.28684 0.0
C1517 C 0.5645 0.02839 0.27468 0.0
C1518 C 0.55475 0.02923 0.24968 0.0
C1519 C 0.54591 0.01405 0.24549 0.0
C1520 C 0.53362 0.00907 0.23554 0.0
C1521 C 0.52996 0.01949 0.22997 0.0
C1522 C 0.53911 0.03489 0.23394 0.0
C1523 C 0.55161 0.03959 0.2435 0.0
C1524 C 0.52434 0.99262 0.23133 0.0
C1525 C 0.53541 0.04632 0.2286 0.0
C1526 C 0.55262 0.04017 0.13285 0.0
C1527 C 0.54649 0.02519 0.13651 0.0
C1528 C 0.53291 0.0177 0.14339 0.0
C1529 C 0.52562 0.02557 0.14713 0.0
C1530 C 0.53154 0.04052 0.14282 0.0
C1531 C 0.54487 0.04753 0.13544 0.0
C1532 C 0.52661 0.00154 0.14707 0.0
C1533 C 0.52403 0.04924 0.1464 0.0
C1534 C 0.40766 0.98145 0.14486 0.0
C1535 C 0.42039 0.99289 0.13575 0.0
C1536 C 0.44349 0.99277 0.13712 0.0
C1537 C 0.4486 0.98281 0.13832 0.0
C1538 C 0.46271 0.98755 0.14433 0.0
C1539 C 0.47191 0.00268 0.14917 0.0
C1540 C 0.46712 0.01301 0.14714 0.0
C1541 C 0.453 0.00798 0.14097 0.0
C1542 C 0.46759 0.9763 0.14601 0.0
C1543 C 0.4768 0.0293 0.15187 0.0
C1544 C 0.48956 0.00278 0.22199 0.0
C1545 C 0.50317 0.00793 0.22935 0.0
C1546 C 0.51596 0.01414 0.22111 0.0
C1547 C 0.51519 0.01522 0.20498 0.0
C1548 C 0.52779 0.02127 0.19628 0.0
C1549 C 0.52694 0.02256 0.18046 0.0
C1550 C 0.5134 0.01748 0.17264 0.0
C1551 C 0.5124 0.01858 0.1565 0.0
C1552 C 0.49876 0.01351 0.14915 0.0
C1553 C 0.48603 0.00746 0.1575 0.0
C1554 C 0.48683 0.00626 0.17362 0.0
C1555 C 0.47423 0.00031 0.18237 0.0
C1556 C 0.47509 0.99917 0.1982 0.0
C1557 C 0.48858 0.00395 0.20591 0.0
C1558 C 0.50145 0.01013 0.19737 0.0
C1559 C 0.50055 0.01124 0.18118 0.0
C1560 C 0.59051 0.06403 0.13641 0.0
C1561 C 0.57829 0.04789 0.13317 0.0
O1562 O 0.44247 0.97732 0.26196 0.0
O1563 O 0.42941 0.98726 0.13211 0.0
O1564 O 0.56611 0.04785 0.1271 0.0
O1565 O 0.566 0.03402 0.26015 0.0
H1566 H 0.45309 0.99398 0.27898 0.0
H1567 H 0.45296 0.97158 0.28711 0.0
H1568 H 0.43329 0.96118 0.28671 0.0
H1569 H 0.44331 0.97684 0.30034 0.0
H1570 H 0.45799 0.0062 0.25624 0.0
H1571 H 0.45044 0.9625 0.24439 0.0
H1572 H 0.49225 0.02686 0.24297 0.0
H1573 H 0.47576 0.02769 0.24449 0.0
H1574 H 0.4815 0.02473 0.22593 0.0
H1575 H 0.46503 0.95835 0.22715 0.0
H1576 H 0.48371 0.97352 0.22718 0.0
H1577 H 0.4712 0.97125 0.21181 0.0
H1578 H 0.55281 0.02016 0.27661 0.0
H1579 H 0.56809 0.0368 0.29859 0.0
H1580 H 0.56176 0.04579 0.28572 0.0
H1581 H 0.58045 0.05014 0.28539 0.0
H1582 H 0.54858 0.00613 0.25015 0.0
H1583 H 0.55859 0.0513 0.24682 0.0
H1584 H 0.52148 0.99082 0.21879 0.0
H1585 H 0.514 0.98792 0.23755 0.0
H1586 H 0.52993 0.98639 0.23441 0.0
H1587 H 0.54273 0.05755 0.23412 0.0
H1588 H 0.52395 0.04284 0.23119 0.0
H1589 H 0.5364 0.04718 0.21595 0.0
H1590 H 0.57584 0.04243 0.14445 0.0
H1591 H 0.55238 0.01941 0.13405 0.0
H1592 H 0.54966 0.05905 0.13232 0.0
H1593 H 0.52818 0.00074 0.15958 0.0
H1594 H 0.53197 0.99629 0.14071 0.0
H1595 H 0.5147 0.99511 0.14419 0.0
H1596 H 0.53082 0.06119 0.14373 0.0
H1597 H 0.52137 0.04853 0.15875 0.0
H1598 H 0.51362 0.04435 0.13948 0.0
H1599 H 0.42613 0.00312 0.14342 0.0
H1600 H 0.40012 0.9856 0.14763 0.0
H1601 H 0.4119 0.9796 0.15584 0.0
H1602 H 0.40148 0.97059 0.13825 0.0
H1603 H 0.44131 0.97116 0.13497 0.0
H1604 H 0.4495 0.01599 0.1392 0.0
H1605 H 0.46882 0.97478 0.15842 0.0
H1606 H 0.47842 0.98047 0.14091 0.0
H1607 H 0.45971 0.96529 0.14039 0.0
H1608 H 0.47147 0.03593 0.14954 0.0
H1609 H 0.48708 0.03401 0.14556 0.0
H1610 H 0.47975 0.03048 0.16436 0.0
H1611 H 0.50383 0.00709 0.24173 0.0
H1612 H 0.53848 0.02519 0.20163 0.0
H1613 H 0.53706 0.02756 0.17446 0.0
H1614 H 0.49806 0.01444 0.1368 0.0
H1615 H 0.46353 0.99645 0.17709 0.0
H1616 H 0.46504 0.9945 0.20433 0.0
H1617 H 0.60037 0.06435 0.14143 0.0
H1618 H 0.58688 0.06965 0.1448 0.0
H1619 H 0.59341 0.07029 0.12567 0.0
C1620 C 0.54036 0.97587 0.73252 0.0
C1621 C 0.55294 0.9846 0.7444 0.0
C1622 C 0.54211 0.98095 0.76942 0.0
C1623 C 0.54651 0.99568 0.77421 0.0
C1624 C 0.53853 0.99869 0.78493 0.0
C1625 C 0.52599 0.98671 0.79107 0.0
C1626 C 0.52193 0.97183 0.7868 0.0
C1627 C 0.53017 0.96915 0.7761 0.0
C1628 C 0.54337 0.01468 0.78955 0.0
C1629 C 0.50873 0.95883 0.79332 0.0
C1630 C 0.43059 0.99541 0.75905 0.0
C1631 C 0.43884 0.99005 0.7683 0.0
C1632 C 0.46346 0.99917 0.77939 0.0
C1633 C 0.46007 0.98587 0.78651 0.0
C1634 C 0.47094 0.98449 0.79445 0.0
C1635 C 0.48543 0.99669 0.79548 0.0
C1636 C 0.48881 0.01017 0.78859 0.0
C1637 C 0.47776 0.0112 0.7806 0.0
C1638 C 0.46697 0.96995 0.80167 0.0
C1639 C 0.50411 0.02345 0.78959 0.0
C1640 C 0.48205 0.01907 0.89194 0.0
C1641 C 0.47685 0.0038 0.88917 0.0
C1642 C 0.48567 0.99895 0.88228 0.0
C1643 C 0.49986 0.00963 0.87794 0.0
C1644 C 0.50543 0.02496 0.88165 0.0
C1645 C 0.49647 0.02946 0.88882 0.0
C1646 C 0.47959 0.98248 0.87904 0.0
C1647 C 0.52058 0.03662 0.87737 0.0
C1648 C 0.5934 0.00016 0.88108 0.0
C1649 C 0.58798 0.00381 0.89586 0.0
C1650 C 0.56241 0.99618 0.88903 0.0
C1651 C 0.54791 0.98477 0.89003 0.0
C1652 C 0.53645 0.98546 0.88252 0.0
C1653 C 0.53957 0.99807 0.87401 0.0
C1654 C 0.55419 0.00983 0.87319 0.0
C1655 C 0.56547 0.00866 0.88046 0.0
C1656 C 0.52101 0.97268 0.88364 0.0
C1657 C 0.55794 0.02369 0.86463 0.0
C1658 C 0.51681 0.98982 0.80143 0.0
C1659 C 0.50566 0.99142 0.79465 0.0
C1660 C 0.49711 0.99525 0.80353 0.0
C1661 C 0.49981 0.9977 0.81964 0.0
C1662 C 0.49177 0.00208 0.82885 0.0
C1663 C 0.49454 0.00452 0.84467 0.0
C1664 C 0.50537 0.00255 0.85195 0.0
C1665 C 0.5082 0.00495 0.86805 0.0
C1666 C 0.51923 0.0032 0.87489 0.0
C1667 C 0.52758 0.99903 0.86605 0.0
C1668 C 0.52476 0.99636 0.84994 0.0
C1669 C 0.53279 0.99197 0.84069 0.0
C1670 C 0.53023 0.98984 0.8248 0.0
C1671 C 0.51938 0.99177 0.81757 0.0
C1672 C 0.51091 0.99584 0.82669 0.0
C1673 C 0.51365 0.99821 0.84288 0.0
C1674 C 0.45597 0.03041 0.88819 0.0
C1675 C 0.45868 0.01799 0.89317 0.0
O1676 O 0.54919 0.97782 0.75841 0.0
O1677 O 0.57296 0.99465 0.89649 0.0
O1678 O 0.47334 0.02413 0.89725 0.0
O1679 O 0.45336 0.00085 0.77122 0.0
H1680 H 0.55479 0.99612 0.74541 0.0
H1681 H 0.5305 0.97603 0.73628 0.0
H1682 H 0.53765 0.96406 0.73123 0.0
H1683 H 0.54331 0.98103 0.72116 0.0
H1684 H 0.55619 0.00483 0.76962 0.0
H1685 H 0.52703 0.95781 0.77251 0.0
H1686 H 0.53469 0.01715 0.78617 0.0
H1687 H 0.55364 0.02273 0.78411 0.0
H1688 H 0.54506 0.01641 0.80225 0.0
H1689 H 0.50729 0.94792 0.78921 0.0
H1690 H 0.49878 0.9592 0.78998 0.0
H1691 H 0.50977 0.95964 0.80609 0.0
H1692 H 0.43729 0.97907 0.76416 0.0
H1693 H 0.42735 0.98847 0.74793 0.0
H1694 H 0.43894 0.00597 0.7537 0.0
H1695 H 0.41525 0.9948 0.77422 0.0
H1696 H 0.449 0.97652 0.78586 0.0
H1697 H 0.48027 0.02144 0.77516 0.0
H1698 H 0.46902 0.97184 0.81433 0.0
H1699 H 0.47397 0.96567 0.79725 0.0
H1700 H 0.45534 0.96129 0.7993 0.0
H1701 H 0.50474 0.03346 0.78459 0.0
H1702 H 0.5115 0.02066 0.78332 0.0
H1703 H 0.50816 0.02618 0.80179 0.0
H1704 H 0.4556 0.01007 0.88298 0.0
H1705 H 0.46585 0.99569 0.89216 0.0
H1706 H 0.50043 0.0412 0.8913 0.0
H1707 H 0.47713 0.97988 0.86649 0.0
H1708 H 0.46941 0.97558 0.88521 0.0
H1709 H 0.48778 0.97933 0.88243 0.0
H1710 H 0.5233 0.04808 0.88112 0.0
H1711 H 0.52153 0.03617 0.86469 0.0
H1712 H 0.52874 0.03428 0.88272 0.0
H1713 H 0.59088 0.01569 0.89604 0.0
H1714 H 0.60544 0.00738 0.8806 0.0
H1715 H 0.58833 0.00216 0.87083 0.0
H1716 H 0.59052 0.98828 0.88054 0.0
H1717 H 0.54561 0.97519 0.89664 0.0
H1718 H 0.57658 0.01761 0.87936 0.0
H1719 H 0.51571 0.96888 0.87196 0.0
H1720 H 0.5146 0.97651 0.89029 0.0
H1721 H 0.52055 0.96305 0.88938 0.0
H1722 H 0.56942 0.03271 0.86703 0.0
H1723 H 0.55059 0.02796 0.86782 0.0
H1724 H 0.55637 0.02093 0.85206 0.0
H1725 H 0.50371 0.98981 0.78226 0.0
H1726 H 0.4833 0.00375 0.82391 0.0
H1727 H 0.48805 0.00798 0.85111 0.0
H1728 H 0.52145 0.00527 0.88722 0.0
H1729 H 0.54122 0.99023 0.84563 0.0
H1730 H 0.53685 0.98661 0.81825 0.0
H1731 H 0.44427 0.02575 0.88483 0.0
H1732 H 0.46259 0.03585 0.8781 0.0
H1733 H 0.4591 0.03903 0.89766 0.0
C1734 C 0.0391 0.56642 0.73072 0.0
C1735 C 0.02602 0.56172 0.74089 0.0
C1736 C 0.02481 0.55459 0.76752 0.0
C1737 C 0.00963 0.54576 0.76858 0.0
C1738 C 0.00358 0.53541 0.78015 0.0
C1739 C 0.01294 0.53363 0.79061 0.0
C1740 C 0.02829 0.54272 0.78963 0.0
C1741 C 0.03398 0.55337 0.77833 0.0
C1742 C 0.9872 0.52619 0.78097 0.0
C1743 C 0.03875 0.54091 0.80011 0.0
C1744 C 0.96252 0.41309 0.79073 0.0
C1745 C 0.97604 0.42569 0.78365 0.0
C1746 C 0.97896 0.45057 0.78481 0.0
C1747 C 0.99384 0.45908 0.78922 0.0
C1748 C 0.99974 0.4736 0.79573 0.0
C1749 C 0.99057 0.47968 0.79784 0.0
C1750 C 0.97568 0.47128 0.79293 0.0
C1751 C 0.97011 0.45686 0.78632 0.0
C1752 C 0.01576 0.48244 0.8004 0.0
C1753 C 0.96564 0.47749 0.79484 0.0
C1754 C 0.99767 0.47056 0.89863 0.0
C1755 C 0.01049 0.47855 0.89058 0.0
C1756 C 0.0126 0.4904 0.88156 0.0
C1757 C 0.00154 0.49419 0.88044 0.0
C1758 C 0.98884 0.4865 0.88906 0.0
C1759 C 0.98716 0.47487 0.89823 0.0
C1760 C 0.02655 0.49869 0.87302 0.0
C1761 C 0.97689 0.49029 0.88821 0.0
C1762 C 0.03722 0.61252 0.88413 0.0
C1763 C 0.02671 0.59899 0.89306 0.0
C1764 C 0.02675 0.57564 0.88757 0.0
C1765 C 0.03649 0.57085 0.88373 0.0
C1766 C 0.03154 0.55668 0.87674 0.0
C1767 C 0.01642 0.54699 0.87369 0.0
C1768 C 0.00643 0.55158 0.87794 0.0
C1769 C 0.01169 0.56584 0.88493 0.0
C1770 C 0.04247 0.55206 0.87257 0.0
C1771 C 0.99021 0.54136 0.87518 0.0
C1772 C 0.00677 0.52139 0.8016 0.0
C1773 C 0.00132 0.50684 0.79556 0.0
C1774 C 0.9965 0.49483 0.80515 0.0
C1775 C 0.99752 0.49735 0.82131 0.0
C1776 C 0.99338 0.48561 0.83133 0.0
C1777 C 0.99509 0.48832 0.84721 0.0
C1778 C 0.00074 0.50284 0.8537 0.0
C1779 C 0.00312 0.5058 0.8698 0.0
C1780 C 0.00803 0.52022 0.87592 0.0
C1781 C 0.01102 0.53194 0.86634 0.0
C1782 C 0.0094 0.52933 0.85016 0.0
C1783 C 0.0129 0.54097 0.84013 0.0
C1784 C 0.01185 0.53837 0.82421 0.0
C1785 C 0.00718 0.52404 0.81772 0.0
C1786 C 0.00291 0.51202 0.82761 0.0
C1787 C 0.00425 0.51472 0.84383 0.0
C1788 C 0.98052 0.43346 0.89706 0.0
C1789 C 0.99598 0.44656 0.90051 0.0
O1790 O 0.03095 0.56433 0.75618 0.0
O1791 O 0.03233 0.58954 0.89423 0.0
O1792 O 0.99518 0.45857 0.90668 0.0
O1793 O 0.97285 0.43637 0.77886 0.0
H1794 H 0.01841 0.54956 0.73841 0.0
H1795 H 0.04464 0.5601 0.73359 0.0
H1796 H 0.04708 0.57854 0.73259 0.0
H1797 H 0.0355 0.56402 0.71837 0.0
H1798 H 0.00253 0.54699 0.76039 0.0
H1799 H 0.04569 0.56037 0.77744 0.0
H1800 H 0.98338 0.51479 0.77602 0.0
H1801 H 0.98164 0.53105 0.77439 0.0
H1802 H 0.98387 0.52519 0.79311 0.0
H1803 H 0.05006 0.54681 0.79597 0.0
H1804 H 0.03521 0.52893 0.80107 0.0
H1805 H 0.03893 0.54556 0.81181 0.0
H1806 H 0.98483 0.43038 0.79286 0.0
H1807 H 0.96479 0.40437 0.79471 0.0
H1808 H 0.95314 0.40792 0.78222 0.0
H1809 H 0.95943 0.41758 0.80081 0.0
H1810 H 0.00087 0.45447 0.78744 0.0
H1811 H 0.9587 0.45027 0.78262 0.0
H1812 H 0.01705 0.48476 0.81305 0.0
H1813 H 0.02099 0.49335 0.79485 0.0
H1814 H 0.0216 0.47645 0.7972 0.0
H1815 H 0.95422 0.46934 0.79091 0.0
H1816 H 0.96961 0.48767 0.78813 0.0
H1817 H 0.96573 0.48078 0.80713 0.0
H1818 H 0.00156 0.44935 0.88934 0.0
H1819 H 0.01881 0.47545 0.89133 0.0
H1820 H 0.97738 0.46871 0.90468 0.0
H1821 H 0.02417 0.49578 0.86051 0.0
H1822 H 0.03488 0.49588 0.87687 0.0
H1823 H 0.03121 0.51093 0.87466 0.0
H1824 H 0.96739 0.4828 0.89504 0.0
H1825 H 0.97311 0.48951 0.87603 0.0
H1826 H 0.98122 0.50197 0.89258 0.0
H1827 H 0.0161 0.5935 0.88642 0.0
H1828 H 0.03295 0.62026 0.88294 0.0
H1829 H 0.03841 0.6088 0.87241 0.0
H1830 H 0.04816 0.61859 0.8901 0.0
H1831 H 0.04807 0.57838 0.88607 0.0
H1832 H 0.00398 0.56911 0.88856 0.0
H1833 H 0.04148 0.54923 0.86002 0.0
H1834 H 0.04011 0.5419 0.87869 0.0
H1835 H 0.05389 0.56096 0.87556 0.0
H1836 H 0.98385 0.54659 0.87904 0.0
H1837 H 0.98656 0.53094 0.88139 0.0
H1838 H 0.98773 0.53819 0.86271 0.0
H1839 H 0.001 0.50484 0.7832 0.0
H1840 H 0.98903 0.47421 0.827 0.0
H1841 H 0.99193 0.47887 0.85434 0.0
H1842 H 0.00981 0.52241 0.88828 0.0
H1843 H 0.0167 0.55225 0.84448 0.0
H1844 H 0.01483 0.54776 0.81703 0.0
H1845 H 0.9742 0.43018 0.90771 0.0
H1846 H 0.98091 0.4237 0.89207 0.0
H1847 H 0.97475 0.43668 0.88859 0.0
C1848 C 0.55983 0.59924 0.74717 0.0
C1849 C 0.5466 0.59257 0.75651 0.0
C1850 C 0.53192 0.57054 0.77132 0.0
C1851 C 0.52273 0.5755 0.77706 0.0
C1852 C 0.51093 0.56635 0.78609 0.0
C1853 C 0.50834 0.55201 0.78954 0.0
C1854 C 0.51772 0.5471 0.78403 0.0
C1855 C 0.52942 0.55647 0.775 0.0
C1856 C 0.50112 0.57191 0.79181 0.0
C1857 C 0.51527 0.5319 0.78757 0.0
C1858 C 0.41048 0.4873 0.73204 0.0
C1859 C 0.42065 0.48483 0.74262 0.0
C1860 C 0.43178 0.49709 0.76749 0.0
C1861 C 0.4425 0.49305 0.76885 0.0
C1862 C 0.45461 0.50101 0.7791 0.0
C1863 C 0.45621 0.51352 0.78782 0.0
C1864 C 0.44535 0.51757 0.78645 0.0
C1865 C 0.43306 0.509 0.7766 0.0
C1866 C 0.46578 0.49615 0.78041 0.0
C1867 C 0.44682 0.53114 0.79503 0.0
C1868 C 0.42957 0.49993 0.88504 0.0
C1869 C 0.43794 0.49335 0.88134 0.0
C1870 C 0.45153 0.50165 0.87463 0.0
C1871 C 0.45672 0.51675 0.87141 0.0
C1872 C 0.44857 0.52355 0.87577 0.0
C1873 C 0.43517 0.51506 0.88274 0.0
C1874 C 0.4602 0.49422 0.87068 0.0
C1875 C 0.45385 0.53967 0.8727 0.0
C1876 C 0.55984 0.61021 0.89195 0.0
C1877 C 0.55065 0.60011 0.90464 0.0
C1878 C 0.53372 0.57584 0.89142 0.0
C1879 C 0.53054 0.56112 0.88912 0.0
C1880 C 0.51835 0.5507 0.88 0.0
C1881 C 0.50907 0.55514 0.87308 0.0
C1882 C 0.51219 0.57002 0.87534 0.0
C1883 C 0.52454 0.58025 0.88437 0.0
C1884 C 0.51541 0.53496 0.87772 0.0
C1885 C 0.50246 0.57511 0.86819 0.0
C1886 C 0.49545 0.54195 0.79838 0.0
C1887 C 0.48245 0.53237 0.79009 0.0
C1888 C 0.46968 0.52291 0.79756 0.0
C1889 C 0.46984 0.52298 0.81385 0.0
C1890 C 0.45725 0.51359 0.82179 0.0
C1891 C 0.45733 0.51432 0.8378 0.0
C1892 C 0.47012 0.52419 0.84651 0.0
C1893 C 0.47024 0.52525 0.86279 0.0
C1894 C 0.48315 0.53515 0.87108 0.0
C1895 C 0.49603 0.54422 0.86356 0.0
C1896 C 0.49613 0.54335 0.84729 0.0
C1897 C 0.50889 0.55232 0.83936 0.0
C1898 C 0.50874 0.55179 0.82334 0.0
C1899 C 0.49584 0.54223 0.81465 0.0
C1900 C 0.48294 0.5328 0.82241 0.0
C1901 C 0.48309 0.53336 0.83875 0.0
C1902 C 0.39112 0.47537 0.8834 0.0
C1903 C 0.40608 0.47713 0.887 0.0
O1904 O 0.54319 0.57889 0.76216 0.0
O1905 O 0.54571 0.58529 0.90045 0.0
O1906 O 0.41603 0.492 0.89069 0.0
O1907 O 0.42014 0.48978 0.75745 0.0
H1908 H 0.53697 0.59257 0.75113 0.0
H1909 H 0.55578 0.59958 0.73521 0.0
H1910 H 0.56213 0.59003 0.74409 0.0
H1911 H 0.57464 0.61855 0.76013 0.0
H1912 H 0.52463 0.58645 0.77449 0.0
H1913 H 0.53661 0.55277 0.7706 0.0
H1914 H 0.48974 0.56426 0.78741 0.0
H1915 H 0.5046 0.58335 0.78814 0.0
H1916 H 0.50108 0.57195 0.80458 0.0
H1917 H 0.52392 0.52998 0.783 0.0
H1918 H 0.50454 0.52315 0.78247 0.0
H1919 H 0.51496 0.53064 0.80022 0.0
H1920 H 0.43189 0.49165 0.73834 0.0
H1921 H 0.41094 0.4838 0.71996 0.0
H1922 H 0.4139 0.49933 0.7324 0.0
H1923 H 0.39904 0.48084 0.73576 0.0
H1924 H 0.44137 0.48363 0.762 0.0
H1925 H 0.42465 0.51195 0.77548 0.0
H1926 H 0.46897 0.49626 0.79267 0.0
H1927 H 0.47573 0.50409 0.77444 0.0
H1928 H 0.46167 0.4848 0.77512 0.0
H1929 H 0.43901 0.53435 0.79042 0.0
H1930 H 0.45807 0.54079 0.79438 0.0
H1931 H 0.44462 0.52874 0.80735 0.0
H1932 H 0.40914 0.47342 0.87626 0.0
H1933 H 0.43387 0.48175 0.88363 0.0
H1934 H 0.42872 0.52007 0.88589 0.0
H1935 H 0.4603 0.4929 0.85797 0.0
H1936 H 0.45556 0.48304 0.87558 0.0
H1937 H 0.4717 0.5013 0.87501 0.0
H1938 H 0.44585 0.54306 0.87604 0.0
H1939 H 0.45598 0.54163 0.86029 0.0
H1940 H 0.46429 0.54694 0.87928 0.0
H1941 H 0.54121 0.60175 0.90653 0.0
H1942 H 0.5639 0.62209 0.89535 0.0
H1943 H 0.56931 0.60873 0.88974 0.0
H1944 H 0.55316 0.60747 0.88108 0.0
H1945 H 0.53768 0.55781 0.89452 0.0
H1946 H 0.52687 0.59162 0.88577 0.0
H1947 H 0.51458 0.53197 0.86522 0.0
H1948 H 0.50479 0.52709 0.88265 0.0
H1949 H 0.52407 0.53345 0.88325 0.0
H1950 H 0.50581 0.58676 0.87189 0.0
H1951 H 0.49098 0.56765 0.87134 0.0
H1952 H 0.50279 0.57441 0.85546 0.0
H1953 H 0.48222 0.53244 0.77761 0.0
H1954 H 0.44711 0.50571 0.8157 0.0
H1955 H 0.44721 0.50704 0.84324 0.0
H1956 H 0.4831 0.53605 0.88354 0.0
H1957 H 0.51911 0.55994 0.84545 0.0
H1958 H 0.51885 0.55904 0.81784 0.0
H1959 H 0.3874 0.47937 0.89336 0.0
H1960 H 0.38292 0.46348 0.88052 0.0
H1961 H 0.39178 0.48201 0.87335 0.0
C1962 C 0.6159 0.75873 0.62264 0.0
C1963 C 0.62175 0.75303 0.60976 0.0
C1964 C 0.62794 0.77161 0.58993 0.0
C1965 C 0.61352 0.76696 0.58494 0.0
C1966 C 0.61067 0.77483 0.57388 0.0
C1967 C 0.62243 0.78762 0.56776 0.0
C1968 C 0.63694 0.79214 0.57251 0.0
C1969 C 0.63948 0.784 0.58348 0.0
C1970 C 0.59507 0.76967 0.56896 0.0
C1971 C 0.64972 0.80578 0.56627 0.0
C1972 C 0.59606 0.85823 0.61664 0.0
C1973 C 0.60853 0.86063 0.60638 0.0
C1974 C 0.60598 0.84732 0.58205 0.0
C1975 C 0.62026 0.85019 0.58052 0.0
C1976 C 0.62307 0.84073 0.57119 0.0
C1977 C 0.61128 0.82792 0.5636 0.0
C1978 C 0.59684 0.82511 0.56508 0.0
C1979 C 0.59445 0.83512 0.57396 0.0
C1980 C 0.63864 0.84429 0.56973 0.0
C1981 C 0.58387 0.81132 0.55772 0.0
C1982 C 0.59618 0.8339 0.4638 0.0
C1983 C 0.61107 0.84009 0.46781 0.0
C1984 C 0.61601 0.83188 0.47589 0.0
C1985 C 0.60581 0.81728 0.48017 0.0
C1986 C 0.59092 0.8108 0.47551 0.0
C1987 C 0.58634 0.81917 0.46719 0.0
C1988 C 0.63204 0.83891 0.48019 0.0
C1989 C 0.57978 0.79519 0.4797 0.0
C1990 C 0.61627 0.72351 0.46914 0.0
C1991 C 0.61821 0.73339 0.45561 0.0
C1992 C 0.62461 0.75777 0.46789 0.0
C1993 C 0.63598 0.77241 0.47092 0.0
C1994 C 0.63368 0.7829 0.479 0.0
C1995 C 0.61959 0.77861 0.48414 0.0
C1996 C 0.60801 0.76381 0.48118 0.0
C1997 C 0.61063 0.75351 0.47315 0.0
C1998 C 0.64629 0.79858 0.482 0.0
C1999 C 0.59284 0.75889 0.48647 0.0
C2000 C 0.61949 0.79692 0.55734 0.0
C2001 C 0.61692 0.80767 0.56416 0.0
C2002 C 0.61395 0.81687 0.55527 0.0
C2003 C 0.6134 0.81524 0.53901 0.0
C2004 C 0.6104 0.82425 0.52966 0.0
C2005 C 0.60932 0.82217 0.51371 0.0
C2006 C 0.61167 0.81131 0.50645 0.0
C2007 C 0.61052 0.80906 0.49023 0.0
C2008 C 0.61326 0.79843 0.48338 0.0
C2009 C 0.61691 0.78972 0.49229 0.0
C2010 C 0.61776 0.79154 0.50855 0.0
C2011 C 0.62107 0.78274 0.5179 0.0
C2012 C 0.62161 0.78445 0.53389 0.0
C2013 C 0.61905 0.79514 0.54113 0.0
C2014 C 0.61589 0.80429 0.53193 0.0
C2015 C 0.61516 0.80242 0.51563 0.0
C2016 C 0.58395 0.86003 0.46118 0.0
C2017 C 0.59654 0.85707 0.45895 0.0
O2018 O 0.63127 0.76471 0.601 0.0
O2019 O 0.62769 0.74826 0.45993 0.0
O2020 O 0.59092 0.84185 0.45682 0.0
O2021 O 0.60301 0.85605 0.59139 0.0
H2022 H 0.61245 0.7445 0.60232 0.0
H2023 H 0.6096 0.7636 0.61771 0.0
H2024 H 0.62502 0.76746 0.63008 0.0
H2025 H 0.6085 0.74939 0.62983 0.0
H2026 H 0.60442 0.75737 0.58971 0.0
H2027 H 0.65056 0.78748 0.58734 0.0
H2028 H 0.59228 0.77818 0.57281 0.0
H2029 H 0.58721 0.75885 0.57382 0.0
H2030 H 0.59378 0.7685 0.5562 0.0
H2031 H 0.66036 0.80769 0.57096 0.0
H2032 H 0.64885 0.81577 0.56918 0.0
H2033 H 0.6495 0.80457 0.55352 0.0
H2034 H 0.61288 0.85358 0.61075 0.0
H2035 H 0.60006 0.86142 0.62884 0.0
H2036 H 0.5874 0.84627 0.61595 0.0
H2037 H 0.59122 0.86499 0.61288 0.0
H2038 H 0.6292 0.85983 0.58659 0.0
H2039 H 0.58347 0.8331 0.57521 0.0
H2040 H 0.64077 0.84269 0.55756 0.0
H2041 H 0.64046 0.83656 0.5767 0.0
H2042 H 0.64662 0.8559 0.57385 0.0
H2043 H 0.57337 0.80957 0.56206 0.0
H2044 H 0.58465 0.80127 0.55991 0.0
H2045 H 0.5837 0.8124 0.54507 0.0
H2046 H 0.60347 0.86135 0.46977 0.0
H2047 H 0.61882 0.85133 0.4647 0.0
H2048 H 0.57492 0.81443 0.46381 0.0
H2049 H 0.63371 0.84107 0.49285 0.0
H2050 H 0.63875 0.84962 0.47452 0.0
H2051 H 0.63597 0.83116 0.47695 0.0
H2052 H 0.56854 0.79196 0.47564 0.0
H2053 H 0.57994 0.79429 0.49239 0.0
H2054 H 0.58261 0.78713 0.47452 0.0
H2055 H 0.6074 0.73179 0.45192 0.0
H2056 H 0.60875 0.71158 0.46566 0.0
H2057 H 0.61154 0.72645 0.47896 0.0
H2058 H 0.62696 0.72497 0.47309 0.0
H2059 H 0.64673 0.77562 0.46689 0.0
H2060 H 0.60168 0.74222 0.47108 0.0
H2061 H 0.64771 0.80148 0.49456 0.0
H2062 H 0.64388 0.80657 0.4763 0.0
H2063 H 0.65669 0.80003 0.47771 0.0
H2064 H 0.58495 0.74703 0.48314 0.0
H2065 H 0.58887 0.76596 0.48144 0.0
H2066 H 0.59312 0.76041 0.49919 0.0
H2067 H 0.6172 0.80887 0.57663 0.0
H2068 H 0.60867 0.83289 0.53459 0.0
H2069 H 0.6067 0.82925 0.50715 0.0
H2070 H 0.61239 0.79681 0.47093 0.0
H2071 H 0.62316 0.77435 0.51295 0.0
H2072 H 0.62408 0.77728 0.54052 0.0
H2073 H 0.5761 0.85556 0.45111 0.0
H2074 H 0.58821 0.8722 0.46279 0.0
H2075 H 0.57802 0.8545 0.4716 0.0
C2076 C 0.12283 0.71899 0.59674 0.0
C2077 C 0.1254 0.73201 0.60767 0.0
C2078 C 0.13918 0.75408 0.59208 0.0
C2079 C 0.13812 0.76494 0.58403 0.0
C2080 C 0.14982 0.77549 0.57579 0.0
C2081 C 0.16295 0.77511 0.57555 0.0
C2082 C 0.16426 0.76436 0.58392 0.0
C2083 C 0.15238 0.75395 0.59215 0.0
C2084 C 0.14806 0.78687 0.56709 0.0
C2085 C 0.17813 0.76369 0.58388 0.0
C2086 C 0.24691 0.88584 0.61317 0.0
C2087 C 0.23431 0.87108 0.6079 0.0
C2088 C 0.22759 0.85111 0.58836 0.0
C2089 C 0.23134 0.84034 0.58457 0.0
C2090 C 0.22137 0.82692 0.57655 0.0
C2091 C 0.20745 0.82445 0.57185 0.0
C2092 C 0.20381 0.83556 0.57514 0.0
C2093 C 0.2139 0.84877 0.58337 0.0
C2094 C 0.22563 0.81532 0.57328 0.0
C2095 C 0.18921 0.83347 0.56999 0.0
C2096 C 0.22029 0.83204 0.46652 0.0
C2097 C 0.22603 0.82424 0.47393 0.0
C2098 C 0.21806 0.81372 0.48487 0.0
C2099 C 0.20414 0.81122 0.48873 0.0
C2100 C 0.19849 0.81945 0.48172 0.0
C2101 C 0.20652 0.82963 0.47059 0.0
C2102 C 0.22435 0.80506 0.49209 0.0
C2103 C 0.18376 0.81724 0.48571 0.0
C2104 C 0.10891 0.69669 0.47514 0.0
C2105 C 0.1167 0.7133 0.47191 0.0
C2106 C 0.14178 0.73262 0.47961 0.0
C2107 C 0.15536 0.7347 0.48432 0.0
C2108 C 0.16615 0.74823 0.49145 0.0
C2109 C 0.16327 0.76001 0.49381 0.0
C2110 C 0.1497 0.75816 0.48866 0.0
C2111 C 0.13911 0.74451 0.48153 0.0
C2112 C 0.18055 0.7499 0.49665 0.0
C2113 C 0.14639 0.7706 0.49072 0.0
C2114 C 0.17498 0.78555 0.56591 0.0
C2115 C 0.1858 0.79917 0.57267 0.0
C2116 C 0.19656 0.81011 0.56385 0.0
C2117 C 0.19645 0.80747 0.54776 0.0
C2118 C 0.20658 0.81848 0.53837 0.0
C2119 C 0.20615 0.81587 0.52251 0.0
C2120 C 0.1957 0.80209 0.51545 0.0
C2121 C 0.19499 0.79938 0.49933 0.0
C2122 C 0.18452 0.7855 0.49272 0.0
C2123 C 0.17443 0.77425 0.50172 0.0
C2124 C 0.17477 0.77682 0.51783 0.0
C2125 C 0.16455 0.76586 0.52718 0.0
C2126 C 0.16466 0.76866 0.54294 0.0
C2127 C 0.17509 0.78246 0.54998 0.0
C2128 C 0.18575 0.79353 0.54085 0.0
C2129 C 0.18548 0.79077 0.52472 0.0
C2130 C 0.2138 0.83672 0.43222 0.0
C2131 C 0.22352 0.84813 0.445 0.0
O2132 O 0.12715 0.74396 0.59936 0.0
O2133 O 0.13165 0.71906 0.47329 0.0
O2134 O 0.22828 0.84154 0.45548 0.0
O2135 O 0.23754 0.86372 0.59643 0.0
H2136 H 0.13534 0.7355 0.61511 0.0
H2137 H 0.13243 0.72225 0.58956 0.0
H2138 H 0.11312 0.71549 0.58895 0.0
H2139 H 0.1211 0.70932 0.60344 0.0
H2140 H 0.12794 0.765 0.58409 0.0
H2141 H 0.15347 0.7457 0.59839 0.0
H2142 H 0.15713 0.79828 0.57039 0.0
H2143 H 0.13753 0.78632 0.56929 0.0
H2144 H 0.14858 0.78497 0.55454 0.0
H2145 H 0.17751 0.75475 0.59107 0.0
H2146 H 0.18746 0.77457 0.58824 0.0
H2147 H 0.1804 0.7617 0.5719 0.0
H2148 H 0.22394 0.87107 0.60578 0.0
H2149 H 0.25096 0.88273 0.63601 0.0
H2150 H 0.24365 0.89421 0.60997 0.0
H2151 H 0.25532 0.88914 0.6041 0.0
H2152 H 0.24201 0.84233 0.58825 0.0
H2153 H 0.2111 0.85729 0.58558 0.0
H2154 H 0.2257 0.8135 0.56064 0.0
H2155 H 0.21745 0.80452 0.57794 0.0
H2156 H 0.23658 0.81863 0.57837 0.0
H2157 H 0.18862 0.84376 0.57198 0.0
H2158 H 0.18046 0.8244 0.57643 0.0
H2159 H 0.187 0.83008 0.55755 0.0
H2160 H 0.21716 0.85247 0.45095 0.0
H2161 H 0.23665 0.82616 0.4708 0.0
H2162 H 0.20179 0.83549 0.46513 0.0
H2163 H 0.22523 0.80696 0.50479 0.0
H2164 H 0.23531 0.80828 0.48784 0.0
H2165 H 0.2169 0.79293 0.48955 0.0
H2166 H 0.18176 0.82582 0.4808 0.0
H2167 H 0.18285 0.81759 0.4984 0.0
H2168 H 0.17508 0.8061 0.48113 0.0
H2169 H 0.11317 0.71859 0.48085 0.0
H2170 H 0.09688 0.6918 0.47414 0.0
H2171 H 0.11184 0.69521 0.48703 0.0
H2172 H 0.11213 0.69055 0.46695 0.0
H2173 H 0.1574 0.72554 0.48261 0.0
H2174 H 0.12884 0.74323 0.47743 0.0
H2175 H 0.18227 0.75236 0.50928 0.0
H2176 H 0.1896 0.75947 0.49102 0.0
H2177 H 0.18114 0.73971 0.49389 0.0
H2178 H 0.13521 0.76731 0.48636 0.0
H2179 H 0.1544 0.78042 0.48451 0.0
H2180 H 0.1475 0.77407 0.50311 0.0
H2181 H 0.18566 0.80142 0.58492 0.0
H2182 H 0.21486 0.8293 0.54317 0.0
H2183 H 0.21413 0.8248 0.51583 0.0
H2184 H 0.18397 0.78356 0.48033 0.0
H2185 H 0.15625 0.75505 0.5224 0.0
H2186 H 0.15644 0.75984 0.54952 0.0
H2187 H 0.2198 0.83198 0.42622 0.0
H2188 H 0.21018 0.84206 0.42369 0.0
H2189 H 0.20392 0.82744 0.43713 0.0
C2190 C 0.14371 0.394 0.61624 0.0
C2191 C 0.13322 0.3878 0.60204 0.0
C2192 C 0.14661 0.38036 0.58442 0.0
C2193 C 0.15749 0.39488 0.581 0.0
C2194 C 0.16908 0.39724 0.57173 0.0
C2195 C 0.16978 0.38486 0.56562 0.0
C2196 C 0.15878 0.37024 0.56885 0.0
C2197 C 0.14733 0.36819 0.57822 0.0
C2198 C 0.18067 0.413 0.56852 0.0
C2199 C 0.15916 0.35679 0.56245 0.0
C2200 C 0.27507 0.40293 0.58187 0.0
C2201 C 0.26272 0.39184 0.59167 0.0
C2202 C 0.24017 0.38497 0.57635 0.0
C2203 C 0.22882 0.37344 0.56741 0.0
C2204 C 0.21775 0.37518 0.56057 0.0
C2205 C 0.21811 0.38891 0.56269 0.0
C2206 C 0.2295 0.40065 0.57183 0.0
C2207 C 0.24045 0.39858 0.5786 0.0
C2208 C 0.2057 0.36235 0.55099 0.0
C2209 C 0.23018 0.41542 0.57424 0.0
C2210 C 0.24827 0.41942 0.46816 0.0
C2211 C 0.23941 0.40407 0.47026 0.0
C2212 C 0.22603 0.39848 0.47746 0.0
C2213 C 0.22158 0.40849 0.4829 0.0
C2214 C 0.23024 0.42389 0.48025 0.0
C2215 C 0.24341 0.42912 0.4727 0.0
C2216 C 0.21677 0.38192 0.47951 0.0
C2217 C 0.22576 0.43486 0.48571 0.0
C2218 C 0.11299 0.38278 0.46886 0.0
C2219 C 0.12212 0.38456 0.45479 0.0
C2220 C 0.14277 0.38247 0.46539 0.0
C2221 C 0.14797 0.37262 0.4669 0.0
C2222 C 0.16083 0.37671 0.4755 0.0
C2223 C 0.16884 0.39118 0.4826 0.0
C2224 C 0.16381 0.40135 0.48096 0.0
C2225 C 0.15072 0.39686 0.47249 0.0
C2226 C 0.16584 0.36553 0.47703 0.0
C2227 C 0.17223 0.41693 0.48822 0.0
C2228 C 0.18216 0.38732 0.55601 0.0
C2229 C 0.19426 0.38775 0.56325 0.0
C2230 C 0.20662 0.39089 0.55504 0.0
C2231 C 0.20729 0.39449 0.53941 0.0
C2232 C 0.22004 0.39901 0.53119 0.0
C2233 C 0.22048 0.40222 0.51572 0.0
C2234 C 0.20802 0.40043 0.50771 0.0
C2235 C 0.20814 0.403 0.4918 0.0
C2236 C 0.19533 0.40033 0.48406 0.0
C2237 C 0.18239 0.39546 0.49185 0.0
C2238 C 0.18227 0.39365 0.50792 0.0
C2239 C 0.16964 0.38946 0.51626 0.0
C2240 C 0.16965 0.38768 0.53207 0.0
C2241 C 0.18212 0.38946 0.54003 0.0
C2242 C 0.19485 0.39336 0.53178 0.0
C2243 C 0.19507 0.39589 0.5158 0.0
C2244 C 0.28643 0.43332 0.4683 0.0
C2245 C 0.27122 0.42008 0.46409 0.0
O2246 O 0.13537 0.37752 0.59369 0.0
O2247 O 0.1301 0.37751 0.457 0.0
O2248 O 0.26159 0.42524 0.46193 0.0
O2249 O 0.25056 0.38238 0.58237 0.0
H2250 H 0.13512 0.39712 0.59464 0.0
H2251 H 0.15522 0.39993 0.61278 0.0
H2252 H 0.1421 0.38482 0.62369 0.0
H2253 H 0.14182 0.40205 0.62303 0.0
H2254 H 0.15712 0.40447 0.58556 0.0
H2255 H 0.1389 0.35703 0.58085 0.0
H2256 H 0.1916 0.41493 0.57217 0.0
H2257 H 0.17887 0.42147 0.57457 0.0
H2258 H 0.18079 0.41464 0.55596 0.0
H2259 H 0.14939 0.34614 0.56538 0.0
H2260 H 0.16906 0.35698 0.56709 0.0
H2261 H 0.15984 0.35719 0.54972 0.0
H2262 H 0.25987 0.39806 0.60021 0.0
H2263 H 0.28486 0.41044 0.58931 0.0
H2264 H 0.27165 0.40992 0.57568 0.0
H2265 H 0.27804 0.39692 0.57322 0.0
H2266 H 0.22869 0.36299 0.56575 0.0
H2267 H 0.24917 0.40766 0.58547 0.0
H2268 H 0.20625 0.36553 0.53884 0.0
H2269 H 0.19489 0.35981 0.55515 0.0
H2270 H 0.20647 0.35209 0.55133 0.0
H2271 H 0.2399 0.42358 0.58143 0.0
H2272 H 0.2202 0.41369 0.57992 0.0
H2273 H 0.23047 0.42024 0.56293 0.0
H2274 H 0.2681 0.41278 0.47414 0.0
H2275 H 0.24292 0.39646 0.46627 0.0
H2276 H 0.25025 0.44091 0.47081 0.0
H2277 H 0.21682 0.37963 0.49189 0.0
H2278 H 0.22082 0.37548 0.47296 0.0
H2279 H 0.20528 0.37787 0.47569 0.0
H2280 H 0.23402 0.44655 0.48332 0.0
H2281 H 0.22408 0.43406 0.4983 0.0
H2282 H 0.21522 0.43206 0.47991 0.0
H2283 H 0.1296 0.39661 0.45298 0.0
H2284 H 0.10665 0.38851 0.46728 0.0
H2285 H 0.12021 0.38782 0.47934 0.0
H2286 H 0.10532 0.37078 0.47068 0.0
H2287 H 0.14177 0.36157 0.46138 0.0
H2288 H 0.14686 0.40464 0.47152 0.0
H2289 H 0.16739 0.36407 0.48939 0.0
H2290 H 0.17653 0.36977 0.47163 0.0
H2291 H 0.15795 0.35447 0.4715 0.0
H2292 H 0.16741 0.42385 0.48504 0.0
H2293 H 0.18372 0.42252 0.48463 0.0
H2294 H 0.17242 0.41636 0.50094 0.0
H2295 H 0.19396 0.38539 0.57535 0.0
H2296 H 0.22986 0.40028 0.53669 0.0
H2297 H 0.23065 0.40582 0.51005 0.0
H2298 H 0.19537 0.40184 0.47176 0.0
H2299 H 0.15964 0.38766 0.51068 0.0
H2300 H 0.15966 0.38459 0.53792 0.0
H2301 H 0.29024 0.44164 0.45921 0.0
H2302 H 0.29438 0.42944 0.46988 0.0
H2303 H 0.28614 0.4389 0.47927 0.0
C2304 C 0.99343 0.37031 0.02409 0.0
C2305 C 0.00012 0.3616 0.02298 0.0
C2306 C 0.99322 0.37697 0.03822 0.0
C2307 C 0.99958 0.37493 0.05158 0.0
C2308 C 0.00582 0.36584 0.05057 0.0
C2309 C 0.00624 0.35938 0.0364 0.0
C2310 C 0.99977 0.38202 0.06673 0.0
C2311 C 0.00108 0.39558 0.0682 0.0
C2312 C 0.00254 0.40319 0.08341 0.0
C2313 C 0.01135 0.41877 0.08496 0.0
C2314 C 0.01345 0.42622 0.09926 0.0
C2315 C 0.00639 0.41827 0.11225 0.0
H2316 H 0.98825 0.38323 0.09545 0.0
C2317 C 0.99729 0.4027 0.11059 0.0
C2318 C 0.99537 0.39522 0.09633 0.0
H2319 H 0.99184 0.39629 0.12042 0.0
H2320 H 0.98859 0.37222 0.01397 0.0
H2321 H 0.98799 0.3836 0.03868 0.0
H2322 H 0.01067 0.36399 0.06072 0.0
H2323 H 0.01138 0.35264 0.03597 0.0
H2324 H 1.00007 0.37643 0.07699 0.0
H2325 H 0.00235 0.40186 0.058 0.0
H2326 H 0.01696 0.42516 0.07517 0.0
H2327 H 0.02076 0.43819 0.10017 0.0
C2328 C 0.64367 0.60314 0.06216 0.0
C2329 C 0.64291 0.61619 0.06425 0.0
C2330 C 0.63593 0.59105 0.07156 0.0
C2331 C 0.62722 0.59178 0.0832 0.0
C2332 C 0.62628 0.60473 0.08498 0.0
C2333 C 0.63403 0.61678 0.07568 0.0
C2334 C 0.61956 0.57987 0.09438 0.0
C2335 C 0.61853 0.56642 0.09367 0.0
C2336 C 0.61174 0.55566 0.10587 0.0
C2337 C 0.60728 0.53664 0.10175 0.0
C2338 C 0.59915 0.52281 0.11605 0.0
C2339 C 0.59317 0.529 0.13339 0.0
H2340 H 0.61283 0.57349 0.12721 0.0
C2341 C 0.60127 0.54894 0.13973 0.0
C2342 C 0.60931 0.56189 0.1247 0.0
H2343 H 0.59868 0.55229 0.15056 0.0
H2344 H 0.65047 0.60237 0.05349 0.0
H2345 H 0.63718 0.58143 0.06981 0.0
H2346 H 0.61973 0.6057 0.09386 0.0
H2347 H 0.63329 0.62668 0.07777 0.0
H2348 H 0.6145 0.58247 0.10374 0.0
H2349 H 0.62258 0.56297 0.084 0.0
H2350 H 0.60949 0.53349 0.0906 0.0
H2351 H 0.59542 0.51118 0.11335 0.0
C2352 C 0.38334 0.01047 0.03385 0.0
C2353 C 0.36901 -0.0 0.02865 0.0
C2354 C 0.38878 0.00919 0.04815 0.0
C2355 C 0.37994 0.99743 0.05761 0.0
C2356 C 0.36551 0.98724 0.0526 0.0
C2357 C 0.36006 0.98853 0.03834 0.0
C2358 C 0.38567 0.99471 0.07214 0.0
C2359 C 0.39748 0.00527 0.08033 0.0
C2360 C 0.40335 0.00194 0.09433 0.0
C2361 C 0.41057 0.0131 0.10603 0.0
C2362 C 0.41615 0.01023 0.11936 0.0
C2363 C 0.41484 0.99621 0.12112 0.0
H2364 H 0.39725 0.9793 0.08696 0.0
C2365 C 0.40796 0.98517 0.10922 0.0
C2366 C 0.40228 0.988 0.09597 0.0
H2367 H 0.40695 0.97433 0.11022 0.0
H2368 H 0.39057 0.0194 0.02668 0.0
H2369 H 0.40006 0.01708 0.05139 0.0
H2370 H 0.35847 0.97805 0.05962 0.0
H2371 H 0.34896 0.98027 0.03475 0.0
H2372 H 0.37969 0.98351 0.07636 0.0
H2373 H 0.40271 0.01681 0.07711 0.0
H2374 H 0.4117 0.02399 0.10495 0.0
H2375 H 0.42144 0.01895 0.12833 0.0
C2376 C 0.38333 0.99276 0.96769 0.0
C2377 C 0.36964 0.97966 0.96701 0.0
C2378 C 0.39495 0.99343 0.95984 0.0
C2379 C 0.39314 0.98094 0.95113 0.0
C2380 C 0.37959 0.96761 0.95102 0.0
C2381 C 0.36797 0.96692 0.95905 0.0
C2382 C 0.40445 0.98221 0.94046 0.0
C2383 C 0.41872 0.99251 0.94269 0.0
C2384 C 0.42963 0.99734 0.93043 0.0
C2385 C 0.44296 0.01074 0.93311 0.0
C2386 C 0.45267 0.01711 0.92129 0.0
C2387 C 0.44932 0.01012 0.90652 0.0
H2388 H 0.4168 0.97941 0.91323 0.0
C2389 C 0.43641 0.99632 0.904 0.0
C2390 C 0.42669 0.98992 0.91584 0.0
H2391 H 0.43361 0.99068 0.89272 0.0
H2392 H 0.38503 0.00266 0.97398 0.0
H2393 H 0.40504 0.00404 0.95996 0.0
H2394 H 0.37786 0.95787 0.94429 0.0
H2395 H 0.35749 0.95667 0.95834 0.0
H2396 H 0.40051 0.97519 0.93 0.0
H2397 H 0.42238 0.99883 0.95363 0.0
H2398 H 0.44558 0.01672 0.94421 0.0
H2399 H 0.46253 0.02779 0.92352 0.0
C2400 C 0.03181 0.39149 0.96702 0.0
C2401 C 0.02392 0.37642 0.96188 0.0
C2402 C 0.03127 0.40242 0.95836 0.0
C2403 C 0.0231 0.39838 0.94431 0.0
C2404 C 0.01572 0.3834 0.939 0.0
C2405 C 0.01594 0.37253 0.94778 0.0
C2406 C 0.02186 0.4093 0.93475 0.0
C2407 C 0.02077 0.4208 0.94067 0.0
C2408 C 0.01627 0.42938 0.93086 0.0
C2409 C 0.00711 0.43425 0.93681 0.0
C2410 C 0.00101 0.44044 0.92721 0.0
C2411 C 0.00417 0.44208 0.91151 0.0
H2412 H 0.02746 0.42861 0.91049 0.0
C2413 C 0.01401 0.438 0.90578 0.0
C2414 C 0.02007 0.43182 0.91536 0.0
H2415 H 0.01665 0.43915 0.89375 0.0
H2416 H 0.03804 0.39475 0.97787 0.0
H2417 H 0.03727 0.41395 0.9626 0.0
H2418 H 0.00943 0.38003 0.92818 0.0
H2419 H 0.00986 0.36101 0.94349 0.0
H2420 H 0.01982 0.40652 0.92247 0.0
H2421 H 0.02126 0.42264 0.95309 0.0
H2422 H 0.00407 0.43258 0.94873 0.0
H2423 H 0.9934 0.44341 0.9319 0.0
C2424 C 0.60854 0.62662 0.00723 0.0
C2425 C 0.62377 0.63276 0.00733 0.0
C2426 C 0.60023 0.62179 0.99341 0.0
C2427 C 0.60696 0.62312 0.97929 0.0
C2428 C 0.62212 0.62894 0.97941 0.0
C2429 C 0.63045 0.63376 0.99325 0.0
C2430 C 0.59849 0.61826 0.96432 0.0
C2431 C 0.58557 0.6176 0.96212 0.0
C2432 C 0.577 0.61302 0.94721 0.0
C2433 C 0.56647 0.61721 0.9448 0.0
C2434 C 0.55798 0.61301 0.93112 0.0
C2435 C 0.55966 0.6043 0.91959 0.0
H2436 H 0.58642 0.6005 0.93716 0.0
C2437 C 0.5702 0.60009 0.92195 0.0
C2438 C 0.57872 0.6043 0.93565 0.0
H2439 H 0.5718 0.59347 0.91319 0.0
H2440 H 0.60298 0.62549 0.01785 0.0
H2441 H 0.58853 0.61685 0.99394 0.0
H2442 H 0.62758 0.62994 0.96873 0.0
H2443 H 0.64214 0.63835 0.99288 0.0
H2444 H 0.60351 0.61594 0.95468 0.0
H2445 H 0.58129 0.62127 0.97143 0.0
H2446 H 0.56485 0.62387 0.95351 0.0
H2447 H 0.55007 0.61657 0.92955 0.0
C2448 C 0.02063 0.64295 0.99784 0.0
C2449 C 0.01031 0.64757 0.99925 0.0
C2450 C 0.02245 0.63746 0.98368 0.0
C2451 C 0.01389 0.63634 0.97057 0.0
C2452 C 0.00388 0.64134 0.97191 0.0
C2453 C 0.00208 0.64686 0.98605 0.0
C2454 C 0.01508 0.63022 0.95527 0.0
C2455 C 0.02138 0.62184 0.95314 0.0
C2456 C 0.0223 0.61573 0.93777 0.0
C2457 C 0.03375 0.61293 0.93531 0.0
C2458 C 0.03509 0.60732 0.921 0.0
C2459 C 0.02478 0.60404 0.90892 0.0
H2460 H 0.00268 0.6139 0.92726 0.0
C2461 C 0.0132 0.60663 0.91143 0.0
C2462 C 0.01191 0.61234 0.92571 0.0
H2463 H 0.00518 0.60433 0.90228 0.0
H2464 H 0.02727 0.64348 0.00771 0.0
H2465 H 0.03065 0.63424 0.98317 0.0
H2466 H 0.99724 0.64078 0.96201 0.0
H2467 H 0.99406 0.65036 0.98666 0.0
H2468 H 0.01034 0.63262 0.94538 0.0
H2469 H 0.02635 0.6195 0.96284 0.0
H2470 H 0.04187 0.61536 0.94441 0.0
H2471 H 0.04428 0.60569 0.91934 0.0
C2472 C 0.37014 0.40039 0.96739 0.0
C2473 C 0.36912 0.38655 0.96424 0.0
C2474 C 0.37815 0.41239 0.95803 0.0
C2475 C 0.38538 0.41079 0.94533 0.0
C2476 C 0.38486 0.39714 0.94265 0.0
C2477 C 0.37688 0.38517 0.95201 0.0
C2478 C 0.39205 0.42232 0.93365 0.0
C2479 C 0.39631 0.43683 0.93626 0.0
C2480 C 0.40053 0.44772 0.92385 0.0
C2481 C 0.40016 0.46089 0.92682 0.0
C2482 C 0.4025 0.4707 0.9151 0.0
C2483 C 0.40526 0.46754 0.90014 0.0
H2484 H 0.40518 0.43542 0.90629 0.0
C2485 C 0.40636 0.45479 0.89732 0.0
C2486 C 0.40416 0.44505 0.90905 0.0
H2487 H 0.40867 0.45219 0.88593 0.0
H2488 H 0.36423 0.40179 0.9767 0.0
H2489 H 0.37794 0.42255 0.96035 0.0
H2490 H 0.39026 0.39555 0.93293 0.0
H2491 H 0.37629 0.37466 0.94922 0.0
H2492 H 0.3927 0.41828 0.92223 0.0
H2493 H 0.39578 0.44078 0.94779 0.0
H2494 H 0.39756 0.46337 0.93811 0.0
H2495 H 0.4017 0.48053 0.9176 0.0
C2496 C 0.6437 0.99618 0.98887 0.0
C2497 C 0.63549 0.98723 0.00083 0.0
C2498 C 0.63701 0.99536 0.97458 0.0
C2499 C 0.6219 0.98565 0.97195 0.0
C2500 C 0.61389 0.97608 0.98356 0.0
C2501 C 0.62058 0.97688 0.99785 0.0
C2502 C 0.61404 0.98549 0.9575 0.0
C2503 C 0.61872 0.99753 0.94885 0.0
C2504 C 0.61048 0.99846 0.93525 0.0
C2505 C 0.615 0.01261 0.9296 0.0
C2506 C 0.60765 0.01427 0.91704 0.0
C2507 C 0.5955 0.00181 0.9098 0.0
H2508 H 0.59486 0.97472 0.93137 0.0
C2509 C 0.59112 0.98757 0.91516 0.0
C2510 C 0.5985 0.98589 0.92776 0.0
H2511 H 0.58202 0.97774 0.90954 0.0
H2512 H 0.65526 0.00412 0.99064 0.0
H2513 H 0.64372 0.00248 0.96572 0.0
H2514 H 0.60229 0.96832 0.98179 0.0
H2515 H 0.61392 0.9697 0.00672 0.0
H2516 H 0.60352 0.9756 0.9548 0.0
H2517 H 0.62872 0.00771 0.95244 0.0
H2518 H 0.62426 0.02249 0.93497 0.0
H2519 H 0.61149 0.02534 0.91295 0.0
C2520 C 0.63017 0.0083 0.06666 0.0
C2521 C 0.64109 0.01912 0.05777 0.0
C2522 C 0.61984 0.01097 0.07346 0.0
C2523 C 0.62033 0.02464 0.07169 0.0
C2524 C 0.63084 0.03515 0.06223 0.0
C2525 C 0.64113 0.03245 0.05537 0.0
C2526 C 0.61047 0.02863 0.07983 0.0
C2527 C 0.60384 0.02235 0.09289 0.0
C2528 C 0.59598 0.02794 0.10246 0.0
C2529 C 0.59461 0.0249 0.11816 0.0
C2530 C 0.58844 0.03093 0.12793 0.0
C2531 C 0.58329 0.03997 0.12217 0.0
H2532 H 0.59069 0.03876 0.08445 0.0
C2533 C 0.58412 0.04258 0.10635 0.0
C2534 C 0.5903 0.03653 0.09655 0.0
H2535 H 0.58027 0.04956 0.10163 0.0
H2536 H 0.62974 0.99785 0.06862 0.0
H2537 H 0.61159 0.00231 0.08014 0.0
H2538 H 0.6314 0.0457 0.0605 0.0
H2539 H 0.64933 0.04098 0.0485 0.0
H2540 H 0.60991 0.03808 0.07571 0.0
H2541 H 0.60542 0.01373 0.0977 0.0
H2542 H 0.59879 0.01824 0.12303 0.0
H2543 H 0.58803 0.02883 0.14009 0.0
C2544 C 0.98525 0.62402 0.06297 0.0
C2545 C 0.97531 0.62565 0.05353 0.0
C2546 C 0.9811 0.61046 0.0697 0.0
C2547 C 0.96685 0.59825 0.06718 0.0
C2548 C 0.95684 0.59996 0.05799 0.0
C2549 C 0.96105 0.61346 0.05111 0.0
C2550 C 0.96206 0.58375 0.07429 0.0
C2551 C 0.97117 0.57853 0.07687 0.0
C2552 C 0.96649 0.56383 0.08344 0.0
C2553 C 0.97382 0.55627 0.0793 0.0
C2554 C 0.97002 0.54259 0.08549 0.0
C2555 C 0.95905 0.53636 0.09632 0.0
H2556 H 0.94961 0.56317 0.09771 0.0
C2557 C 0.9516 0.54385 0.10038 0.0
C2558 C 0.9553 0.55749 0.09404 0.0
H2559 H 0.94301 0.53922 0.10858 0.0
H2560 H 0.99624 0.63322 0.0653 0.0
H2561 H 0.98898 0.60968 0.0771 0.0
H2562 H 0.94576 0.59077 0.056 0.0
H2563 H 0.95307 0.6144 0.04403 0.0
H2564 H 0.95054 0.57681 0.07651 0.0
H2565 H 0.98234 0.58482 0.07316 0.0
H2566 H 0.98247 0.5609 0.07116 0.0
H2567 H 0.97577 0.53694 0.0819 0.0
C2568 C 0.39393 0.36179 0.02087 0.0
C2569 C 0.37982 0.35981 0.01974 0.0
C2570 C 0.40152 0.36521 0.03511 0.0
C2571 C 0.3952 0.36683 0.0486 0.0
C2572 C 0.38103 0.36464 0.04746 0.0
C2573 C 0.37344 0.3612 0.03323 0.0
C2574 C 0.40272 0.37038 0.06412 0.0
C2575 C 0.41713 0.37568 0.06658 0.0
C2576 C 0.42418 0.37868 0.08224 0.0
C2577 C 0.43662 0.37738 0.08437 0.0
C2578 C 0.44323 0.37954 0.09902 0.0
C2579 C 0.43772 0.38342 0.11182 0.0
H2580 H 0.40954 0.38441 0.09376 0.0
C2581 C 0.4255 0.3851 0.10963 0.0
C2582 C 0.41883 0.38284 0.095 0.0
H2583 H 0.42097 0.38796 0.11932 0.0
H2584 H 0.39915 0.36069 0.01074 0.0
H2585 H 0.4122 0.36633 0.03539 0.0
H2586 H 0.37581 0.36568 0.05763 0.0
H2587 H 0.36258 0.35973 0.03284 0.0
H2588 H 0.39593 0.36845 0.07396 0.0
H2589 H 0.42407 0.37745 0.05695 0.0
H2590 H 0.44102 0.37428 0.07474 0.0
H2591 H 0.45249 0.37793 0.10039 0.0
C2592 C 0.65525 0.69503 0.36759 0.0
C2593 C 0.65057 0.69535 0.35243 0.0
C2594 C 0.65017 0.69969 0.38009 0.0
C2595 C 0.64034 0.70484 0.3777 0.0
C2596 C 0.63556 0.70498 0.36257 0.0
C2597 C 0.64064 0.70037 0.3501 0.0
C2598 C 0.63438 0.70966 0.39057 0.0
C2599 C 0.64094 0.71435 0.40469 0.0
C2600 C 0.63489 0.71927 0.4174 0.0
C2601 C 0.64436 0.7287 0.42945 0.0
C2602 C 0.63908 0.73343 0.44167 0.0
C2603 C 0.62417 0.72886 0.4421 0.0
H2604 H 0.61211 0.70668 0.40935 0.0
C2605 C 0.61463 0.71916 0.43024 0.0
C2606 C 0.6199 0.71441 0.41803 0.0
H2607 H 0.60303 0.71511 0.4305 0.0
H2608 H 0.66282 0.69115 0.36984 0.0
H2609 H 0.65381 0.69896 0.39157 0.0
H2610 H 0.6279 0.70876 0.36037 0.0
H2611 H 0.63674 0.70074 0.33861 0.0
H2612 H 0.62452 0.71001 0.38797 0.0
H2613 H 0.65149 0.71533 0.40692 0.0
H2614 H 0.65591 0.73244 0.42941 0.0
H2615 H 0.64663 0.74062 0.45085 0.0
C2616 C 0.30487 0.93595 0.39018 0.0
C2617 C 0.30216 0.94771 0.38818 0.0
C2618 C 0.29419 0.92255 0.39614 0.0
C2619 C 0.28055 0.92068 0.39995 0.0
C2620 C 0.27773 0.93226 0.39733 0.0
C2621 C 0.28843 0.94564 0.39161 0.0
C2622 C 0.26884 0.90698 0.40664 0.0
C2623 C 0.27114 0.89755 0.41492 0.0
C2624 C 0.25917 0.88511 0.42299 0.0
C2625 C 0.25963 0.87205 0.42537 0.0
C2626 C 0.24828 0.86014 0.43273 0.0
C2627 C 0.23642 0.86122 0.43807 0.0
H2628 H 0.24696 0.89637 0.42765 0.0
C2629 C 0.23616 0.87442 0.43599 0.0
C2630 C 0.24744 0.88627 0.42868 0.0
H2631 H 0.22714 0.87557 0.43994 0.0
H2632 H 0.31534 0.93723 0.38741 0.0
H2633 H 0.29662 0.91372 0.39759 0.0
H2634 H 0.26726 0.93106 0.39994 0.0
H2635 H 0.28579 0.95423 0.38964 0.0
H2636 H 0.25783 0.90509 0.40535 0.0
H2637 H 0.28198 0.89899 0.41606 0.0
H2638 H 0.26862 0.87094 0.42126 0.0
H2639 H 0.24868 0.85001 0.43407 0.0
C2640 C 0.0643 0.35081 0.35271 0.0
C2641 C 0.04939 0.34629 0.352 0.0
C2642 C 0.07229 0.35564 0.36672 0.0
C2643 C 0.06557 0.3562 0.3803 0.0
C2644 C 0.05071 0.35179 0.37959 0.0
C2645 C 0.04263 0.34669 0.36562 0.0
C2646 C 0.07402 0.36204 0.39514 0.0
C2647 C 0.08501 0.35973 0.39911 0.0
C2648 C 0.09385 0.3659 0.41368 0.0
C2649 C 0.0993 0.35776 0.42097 0.0
C2650 C 0.10817 0.36355 0.43436 0.0
C2651 C 0.11222 0.37789 0.44045 0.0
H2652 H 0.09372 0.38673 0.41443 0.0
C2653 C 0.10666 0.38598 0.43319 0.0
C2654 C 0.09754 0.38006 0.41995 0.0
H2655 H 0.10948 0.39698 0.43771 0.0
H2656 H 0.06983 0.35066 0.34242 0.0
H2657 H 0.08382 0.3593 0.36682 0.0
H2658 H 0.04533 0.35225 0.38989 0.0
H2659 H 0.03119 0.3434 0.36542 0.0
H2660 H 0.07074 0.36787 0.40322 0.0
H2661 H 0.08728 0.35257 0.39173 0.0
H2662 H 0.09661 0.34684 0.41633 0.0
H2663 H 0.11199 0.35683 0.4398 0.0
C2664 C 0.02892 0.29232 0.30144 0.0
C2665 C 0.02893 0.30521 0.29696 0.0
C2666 C 0.03698 0.28716 0.29344 0.0
C2667 C 0.04514 0.29481 0.28077 0.0
C2668 C 0.04503 0.30763 0.27637 0.0
C2669 C 0.03707 0.31276 0.28433 0.0
C2670 C 0.05369 0.28993 0.27142 0.0
C2671 C 0.0571 0.27956 0.27526 0.0
C2672 C 0.06596 0.27567 0.26515 0.0
C2673 C 0.06349 0.26105 0.26458 0.0
C2674 C 0.07102 0.25694 0.25436 0.0
C2675 C 0.08134 0.26745 0.24471 0.0
H2676 H 0.07931 0.29781 0.2564 0.0
C2677 C 0.0841 0.28218 0.24564 0.0
C2678 C 0.07667 0.28629 0.25588 0.0
H2679 H 0.09187 0.2905 0.23826 0.0
H2680 H 0.02267 0.28622 0.31109 0.0
H2681 H 0.03656 0.27711 0.29712 0.0
H2682 H 0.05112 0.31374 0.26664 0.0
H2683 H 0.03717 0.3226 0.28039 0.0
H2684 H 0.05743 0.29537 0.2606 0.0
H2685 H 0.05305 0.27343 0.28562 0.0
H2686 H 0.05538 0.25269 0.27168 0.0
H2687 H 0.06855 0.24547 0.25372 0.0
C2688 C 0.70236 0.72973 0.31188 0.0
C2689 C 0.69401 0.7156 0.30438 0.0
C2690 C 0.70751 0.74268 0.30355 0.0
C2691 C 0.7047 0.74162 0.28755 0.0
C2692 C 0.69652 0.72751 0.28009 0.0
C2693 C 0.691 0.71463 0.28845 0.0
C2694 C 0.71066 0.75496 0.27821 0.0
C2695 C 0.71006 0.7672 0.28236 0.0
C2696 C 0.71468 0.7796 0.27181 0.0
C2697 C 0.70569 0.78566 0.26917 0.0
C2698 C 0.70918 0.79633 0.25806 0.0
C2699 C 0.72202 0.8015 0.2498 0.0
H2700 H 0.73485 0.78059 0.26581 0.0
C2701 C 0.73129 0.79584 0.253 0.0
C2702 C 0.72763 0.78495 0.26382 0.0
H2703 H 0.7412 0.79956 0.24676 0.0
H2704 H 0.70483 0.73075 0.32415 0.0
H2705 H 0.71398 0.75347 0.30951 0.0
H2706 H 0.69431 0.72645 0.26776 0.0
H2707 H 0.68468 0.70387 0.28238 0.0
H2708 H 0.71443 0.75414 0.26687 0.0
H2709 H 0.70479 0.76743 0.29288 0.0
H2710 H 0.69564 0.78167 0.27521 0.0
H2711 H 0.70168 0.80028 0.25577 0.0
C2712 C 0.29136 0.97258 0.32636 0.0
C2713 C 0.28658 0.97372 0.34105 0.0
C2714 C 0.28204 0.96886 0.3133 0.0
C2715 C 0.26772 0.96619 0.3147 0.0
C2716 C 0.2631 0.96762 0.32933 0.0
C2717 C 0.27235 0.97126 0.34234 0.0
C2718 C 0.25733 0.9622 0.30128 0.0
C2719 C 0.25813 0.95573 0.28796 0.0
C2720 C 0.24708 0.95105 0.27504 0.0
C2721 C 0.24508 0.93955 0.26459 0.0
C2722 C 0.2346 0.93466 0.25249 0.0
C2723 C 0.22586 0.94116 0.25061 0.0
H2724 H 0.24028 0.96722 0.28019 0.0
C2725 C 0.2282 0.953 0.26074 0.0
C2726 C 0.23868 0.95791 0.27281 0.0
H2727 H 0.22194 0.95852 0.25927 0.0
H2728 H 0.30228 0.9745 0.32493 0.0
H2729 H 0.28618 0.9683 0.30219 0.0
H2730 H 0.25219 0.96576 0.33075 0.0
H2731 H 0.26829 0.97212 0.35343 0.0
H2732 H 0.2481 0.96381 0.30293 0.0
H2733 H 0.26656 0.95283 0.28677 0.0
H2734 H 0.25154 0.93423 0.26586 0.0
H2735 H 0.23331 0.92577 0.2446 0.0
C2736 C 0.68212 0.96291 0.31025 0.0
C2737 C 0.6907 0.97269 0.32256 0.0
C2738 C 0.68869 0.96161 0.29693 0.0
C2739 C 0.70387 0.97041 0.29559 0.0
C2740 C 0.71237 0.98045 0.30773 0.0
C2741 C 0.70588 0.98138 0.32122 0.0
C2742 C 0.71105 0.96959 0.2815 0.0
C2743 C 0.70847 0.95655 0.27499 0.0
C2744 C 0.7168 0.95608 0.26175 0.0
C2745 C 0.72309 0.94703 0.262 0.0
C2746 C 0.73191 0.94732 0.25009 0.0
C2747 C 0.73423 0.95636 0.23746 0.0
H2748 H 0.71378 0.97167 0.24844 0.0
C2749 C 0.72721 0.96477 0.23691 0.0
C2750 C 0.71878 0.96481 0.24902 0.0
H2751 H 0.72854 0.97161 0.22722 0.0
H2752 H 0.67039 0.95608 0.31105 0.0
H2753 H 0.6819 0.95392 0.28761 0.0
H2754 H 0.72408 0.9874 0.30687 0.0
H2755 H 0.71271 0.98907 0.33053 0.0
H2756 H 0.71962 0.98 0.27718 0.0
H2757 H 0.70112 0.94616 0.28033 0.0
H2758 H 0.72161 0.94013 0.27168 0.0
H2759 H 0.737 0.94059 0.25095 0.0
C2760 C 0.04536 0.74639 0.31056 0.0
C2761 C 0.04703 0.73409 0.30697 0.0
C2762 C 0.05158 0.75889 0.3015 0.0
C2763 C 0.05955 0.75928 0.28855 0.0
C2764 C 0.06198 0.74735 0.28564 0.0
C2765 C 0.05578 0.73489 0.2947 0.0
C2766 C 0.06468 0.7712 0.27717 0.0
C2767 C 0.06013 0.78116 0.27633 0.0
C2768 C 0.06311 0.79095 0.26312 0.0
C2769 C 0.06288 0.80427 0.26528 0.0
C2770 C 0.06407 0.81293 0.25278 0.0
C2771 C 0.06534 0.80832 0.23781 0.0
H2772 H 0.06443 0.7761 0.2459 0.0
C2773 C 0.06578 0.79512 0.23566 0.0
C2774 C 0.0647 0.78652 0.24816 0.0
H2775 H 0.06655 0.79122 0.22421 0.0
H2776 H 0.03882 0.74618 0.32007 0.0
H2777 H 0.04979 0.76796 0.30459 0.0
H2778 H 0.06817 0.74735 0.27587 0.0
H2779 H 0.05735 0.72564 0.29163 0.0
H2780 H 0.07175 0.77105 0.26839 0.0
H2781 H 0.05346 0.78193 0.28517 0.0
H2782 H 0.06149 0.80784 0.27664 0.0
H2783 H 0.06359 0.823 0.25472 0.0
C2784 C 0.28848 0.32282 0.30879 0.0
C2785 C 0.28259 0.31799 0.32327 0.0
C2786 C 0.27992 0.31644 0.29526 0.0
C2787 C 0.26516 0.30514 0.29588 0.0
C2788 C 0.25933 0.30028 0.31035 0.0
C2789 C 0.2679 0.30663 0.32387 0.0
C2790 C 0.25566 0.29767 0.28181 0.0
C2791 C 0.25852 0.30348 0.26776 0.0
C2792 C 0.24947 0.29582 0.25345 0.0
C2793 C 0.25234 0.30402 0.2401 0.0
C2794 C 0.24482 0.2972 0.22615 0.0
C2795 C 0.23417 0.28198 0.22522 0.0
H2796 H 0.23625 0.2736 0.26227 0.0
C2797 C 0.23111 0.27376 0.23855 0.0
C2798 C 0.23868 0.28055 0.25251 0.0
H2799 H 0.22309 0.26195 0.23808 0.0
H2800 H 0.29979 0.33145 0.30787 0.0
H2801 H 0.28507 0.32022 0.28441 0.0
H2802 H 0.24806 0.29152 0.31122 0.0
H2803 H 0.26297 0.30259 0.3348 0.0
H2804 H 0.24576 0.28714 0.28336 0.0
H2805 H 0.26785 0.31455 0.26655 0.0
H2806 H 0.26062 0.31575 0.24039 0.0
H2807 H 0.24752 0.30376 0.21601 0.0
C2808 C 0.30001 0.37656 0.37515 0.0
C2809 C 0.2999 0.36315 0.37733 0.0
C2810 C 0.29347 0.38162 0.38569 0.0
C2811 C 0.28662 0.3733 0.39858 0.0
C2812 C 0.28597 0.3596 0.40029 0.0
C2813 C 0.2925 0.35458 0.38981 0.0
C2814 C 0.2814 0.37903 0.41136 0.0
C2815 C 0.27831 0.39007 0.41022 0.0
C2816 C 0.27492 0.39682 0.42375 0.0
C2817 C 0.27673 0.41112 0.42266 0.0
C2818 C 0.27501 0.41845 0.43549 0.0
C2819 C 0.27149 0.41164 0.44973 0.0
H2820 H 0.26824 0.3784 0.43909 0.0
C2821 C 0.26893 0.39706 0.45065 0.0
C2822 C 0.27047 0.38966 0.43779 0.0
H2823 H 0.26595 0.39144 0.46141 0.0
H2824 H 0.3057 0.38347 0.36569 0.0
H2825 H 0.29449 0.39238 0.38405 0.0
H2826 H 0.28082 0.35296 0.4101 0.0
H2827 H 0.29223 0.34424 0.39193 0.0
H2828 H 0.28068 0.37414 0.42237 0.0
H2829 H 0.27909 0.395 0.39919 0.0
H2830 H 0.27994 0.41684 0.41197 0.0
H2831 H 0.27685 0.42962 0.43442 0.0
C2832 C 0.63771 0.92627 0.37242 0.0
C2833 C 0.65019 0.94036 0.37542 0.0
C2834 C 0.63388 0.91485 0.38267 0.0
C2835 C 0.64257 0.91729 0.39612 0.0
C2836 C 0.65548 0.9311 0.39858 0.0
C2837 C 0.65928 0.94249 0.38835 0.0
C2838 C 0.63771 0.90661 0.40874 0.0
C2839 C 0.62721 0.89212 0.40705 0.0
C2840 C 0.62046 0.88241 0.42028 0.0
C2841 C 0.60661 0.86958 0.41791 0.0
C2842 C 0.59909 0.86105 0.43027 0.0
C2843 C 0.60527 0.86517 0.4453 0.0
H2844 H 0.63786 0.89534 0.43761 0.0
C2845 C 0.61941 0.87751 0.4476 0.0
C2846 C 0.627 0.88597 0.43524 0.0
H2847 H 0.62451 0.8808 0.45905 0.0
H2848 H 0.63045 0.92428 0.36258 0.0
H2849 H 0.6237 0.90453 0.3804 0.0
H2850 H 0.66237 0.93332 0.40882 0.0
H2851 H 0.66897 0.9532 0.39104 0.0
H2852 H 0.64252 0.91138 0.42007 0.0
H2853 H 0.62252 0.88737 0.39566 0.0
H2854 H 0.60135 0.86644 0.40653 0.0
H2855 H 0.58824 0.85149 0.42817 0.0
C2856 C 0.07787 0.71462 0.36357 0.0
C2857 C 0.06271 0.70879 0.36196 0.0
C2858 C 0.08466 0.71688 0.37814 0.0
C2859 C 0.07641 0.71318 0.39148 0.0
C2860 C 0.06133 0.70766 0.38986 0.0
C2861 C 0.05455 0.70546 0.37531 0.0
C2862 C 0.08296 0.71492 0.40727 0.0
C2863 C 0.09608 0.71623 0.41028 0.0
C2864 C 0.10188 0.71661 0.42614 0.0
C2865 C 0.11243 0.71237 0.42808 0.0
C2866 C 0.11756 0.71172 0.4428 0.0
C2867 C 0.11235 0.71547 0.45593 0.0
H2868 H 0.08938 0.72478 0.43834 0.0
C2869 C 0.10219 0.72021 0.45401 0.0
C2870 C 0.09708 0.72091 0.43929 0.0
H2871 H 0.09803 0.7232 0.46394 0.0
H2872 H 0.08453 0.71748 0.35355 0.0
H2873 H 0.09637 0.72161 0.3788 0.0
H2874 H 0.05468 0.70482 0.39989 0.0
H2875 H 0.04286 0.701 0.37456 0.0
H2876 H 0.07614 0.71406 0.41678 0.0
H2877 H 0.10244 0.71586 0.40084 0.0
H2878 H 0.11643 0.70914 0.4182 0.0
H2879 H 0.12535 0.70797 0.44396 0.0
C2880 C 0.32679 0.03557 0.70086 0.0
C2881 C 0.32168 0.03493 0.68565 0.0
C2882 C 0.32113 0.0398 0.71317 0.0
C2883 C 0.31025 0.04353 0.71051 0.0
C2884 C 0.305 0.04263 0.69536 0.0
C2885 C 0.31067 0.03846 0.68308 0.0
C2886 C 0.30377 0.04798 0.72314 0.0
C2887 C 0.31051 0.05388 0.73699 0.0
C2888 C 0.30402 0.05873 0.74929 0.0
C2889 C 0.31331 0.06946 0.76061 0.0
C2890 C 0.30762 0.07429 0.77235 0.0
C2891 C 0.29248 0.06849 0.773 0.0
H2892 H 0.28124 0.04391 0.74212 0.0
C2893 C 0.28316 0.05747 0.76193 0.0
C2894 C 0.28884 0.05263 0.75021 0.0
H2895 H 0.27143 0.05249 0.76242 0.0
H2896 H 0.33518 0.03283 0.70328 0.0
H2897 H 0.32518 0.03991 0.72472 0.0
H2898 H 0.29654 0.04529 0.69296 0.0
H2899 H 0.30639 0.03803 0.67155 0.0
H2900 H 0.29332 0.04711 0.7205 0.0
H2901 H 0.32153 0.05605 0.73917 0.0
H2902 H 0.32502 0.07418 0.76035 0.0
H2903 H 0.31505 0.08252 0.78096 0.0
C2904 C 0.96882 0.27063 0.7221 0.0
C2905 C 0.97907 0.27425 0.71061 0.0
C2906 C 0.962 0.25652 0.72819 0.0
C2907 C 0.9653 0.24567 0.72297 0.0
C2908 C 0.97576 0.24935 0.71172 0.0
C2909 C 0.98252 0.26348 0.70551 0.0
C2910 C 0.95843 0.23072 0.72962 0.0
C2911 C 0.9448 0.22404 0.73481 0.0
C2912 C 0.93806 0.20982 0.74261 0.0
C2913 C 0.91868 0.2009 0.7454 0.0
C2914 C 0.90954 0.18438 0.75629 0.0
C2915 C 0.92197 0.17958 0.76676 0.0
H2916 H 0.96044 0.20747 0.74752 0.0
C2917 C 0.94078 0.18556 0.76063 0.0
C2918 C 0.9489 0.20205 0.74955 0.0
H2919 H 0.94743 0.18171 0.76612 0.0
H2920 H 0.96616 0.27876 0.7266 0.0
H2921 H 0.95442 0.2543 0.73727 0.0
H2922 H 0.97864 0.24124 0.70766 0.0
H2923 H 0.99047 0.26597 0.69676 0.0
H2924 H 0.96464 0.22505 0.72989 0.0
H2925 H 0.93815 0.22916 0.73333 0.0
H2926 H 0.91252 0.20568 0.74073 0.0
H2927 H 0.89822 0.17971 0.75911 0.0
C2928 C 0.71379 0.67744 0.70626 0.0
C2929 C 0.7184 0.68268 0.69151 0.0
C2930 C 0.72328 0.68392 0.71918 0.0
C2931 C 0.73766 0.69575 0.71759 0.0
C2932 C 0.74212 0.70119 0.70291 0.0
C2933 C 0.73265 0.69472 0.69002 0.0
C2934 C 0.74827 0.70288 0.73089 0.0
C2935 C 0.74738 0.69606 0.74412 0.0
C2936 C 0.75848 0.70296 0.75704 0.0
C2937 C 0.75969 0.69363 0.76759 0.0
C2938 C 0.77009 0.69963 0.77978 0.0
C2939 C 0.77957 0.71513 0.78165 0.0
H2940 H 0.76669 0.72617 0.75179 0.0
C2941 C 0.77806 0.72451 0.77141 0.0
C2942 C 0.76764 0.71852 0.75924 0.0
H2943 H 0.78493 0.73652 0.77287 0.0
H2944 H 0.70284 0.66828 0.70787 0.0
H2945 H 0.71922 0.6797 0.73034 0.0
H2946 H 0.75306 0.71038 0.70136 0.0
H2947 H 0.73658 0.69914 0.67887 0.0
H2948 H 0.75766 0.71381 0.72923 0.0
H2949 H 0.73871 0.68461 0.74525 0.0
H2950 H 0.75264 0.68163 0.76634 0.0
H2951 H 0.77074 0.69215 0.78774 0.0
C2952 C 0.70261 0.62492 0.64468 0.0
C2953 C 0.70151 0.63745 0.64121 0.0
C2954 C 0.71144 0.62121 0.63611 0.0
C2955 C 0.71938 0.63003 0.62394 0.0
C2956 C 0.71867 0.64282 0.62089 0.0
C2957 C 0.70974 0.64642 0.6293 0.0
C2958 C 0.7283 0.62623 0.61393 0.0
C2959 C 0.72511 0.61213 0.61063 0.0
C2960 C 0.73279 0.60827 0.59887 0.0
C2961 C 0.73245 0.59461 0.59951 0.0
C2962 C 0.73901 0.59034 0.58823 0.0
C2963 C 0.74604 0.59966 0.57607 0.0
H2964 H 0.73961 0.62777 0.58515 0.0
C2965 C 0.74618 0.61322 0.57529 0.0
C2966 C 0.73963 0.61747 0.58652 0.0
H2967 H 0.75119 0.62044 0.56582 0.0
H2968 H 0.69646 0.61783 0.65385 0.0
H2969 H 0.71204 0.61149 0.63906 0.0
H2970 H 0.72473 0.64984 0.61162 0.0
H2971 H 0.70912 0.65609 0.62622 0.0
H2972 H 0.7372 0.6354 0.6083 0.0
H2973 H 0.71627 0.60296 0.61636 0.0
H2974 H 0.72704 0.58719 0.60873 0.0
H2975 H 0.73851 0.5797 0.58894 0.0
C2976 C 0.35856 0.06013 0.62786 0.0
C2977 C 0.36637 0.05883 0.64036 0.0
C2978 C 0.36362 0.07385 0.62105 0.0
C2979 C 0.37668 0.08652 0.62657 0.0
C2980 C 0.3845 0.08516 0.63899 0.0
C2981 C 0.37936 0.07152 0.64588 0.0
C2982 C 0.38287 0.10111 0.61924 0.0
C2983 C 0.37471 0.1057 0.61182 0.0
C2984 C 0.38127 0.12038 0.60489 0.0
C2985 C 0.3699 0.12855 0.60222 0.0
C2986 C 0.37697 0.14636 0.59364 0.0
C2987 C 0.39518 0.15354 0.58507 0.0
H2988 H 0.40697 0.12506 0.60212 0.0
C2989 C 0.4084 0.14786 0.59144 0.0
C2990 C 0.40032 0.13004 0.6001 0.0
H2991 H 0.41934 0.15301 0.58722 0.0
H2992 H 0.34863 0.05054 0.62317 0.0
H2993 H 0.35751 0.07437 0.61123 0.0
H2994 H 0.39464 0.09471 0.64339 0.0
H2995 H 0.38571 0.0709 0.65543 0.0
H2996 H 0.39456 0.10864 0.62079 0.0
H2997 H 0.36289 0.09892 0.61142 0.0
H2998 H 0.35873 0.12268 0.60576 0.0
H2999 H 0.36997 0.1508 0.59089 0.0
C3000 C 0.96068 0.29804 0.64549 0.0
C3001 C 0.95495 0.29006 0.65883 0.0
C3002 C 0.9524 0.2935 0.6316 0.0
C3003 C 0.93836 0.28076 0.63077 0.0
C3004 C 0.93291 0.27249 0.64394 0.0
C3005 C 0.94103 0.27718 0.65787 0.0
C3006 C 0.92907 0.27576 0.61642 0.0
C3007 C 0.92878 0.28536 0.60656 0.0
C3008 C 0.91817 0.28033 0.59325 0.0
C3009 C 0.9126 0.2894 0.58872 0.0
C3010 C 0.90207 0.28465 0.5767 0.0
C3011 C 0.89698 0.27078 0.56887 0.0
H3012 H 0.91794 0.25967 0.58793 0.0
C3013 C 0.90311 0.26203 0.57291 0.0
C3014 C 0.91349 0.26669 0.58507 0.0
H3015 H 0.89981 0.25154 0.56675 0.0
H3016 H 0.9714 0.30798 0.64587 0.0
H3017 H 0.95703 0.29991 0.62153 0.0
H3018 H 0.92218 0.26256 0.64356 0.0
H3019 H 0.93638 0.2707 0.6679 0.0
H3020 H 0.92122 0.26391 0.61476 0.0
H3021 H 0.93554 0.29729 0.6091 0.0
H3022 H 0.91618 0.30005 0.5947 0.0
H3023 H 0.89782 0.29178 0.57355 0.0
C3024 C 0.36774 0.30661 0.66678 0.0
C3025 C 0.35654 0.31008 0.66664 0.0
C3026 C 0.37209 0.30287 0.65308 0.0
C3027 C 0.36525 0.30241 0.63886 0.0
C3028 C 0.35417 0.30604 0.63874 0.0
C3029 C 0.34985 0.3098 0.65243 0.0
C3030 C 0.36948 0.29863 0.62386 0.0
C3031 C 0.3777 0.29216 0.6224 0.0
C3032 C 0.38204 0.28889 0.60726 0.0
C3033 C 0.39508 0.28856 0.60656 0.0
C3034 C 0.39977 0.28595 0.5925 0.0
C3035 C 0.39133 0.28328 0.57885 0.0
H3036 H 0.36316 0.2857 0.59373 0.0
C3037 C 0.37814 0.28331 0.57958 0.0
C3038 C 0.37349 0.286 0.59363 0.0
H3039 H 0.37149 0.2814 0.56922 0.0
H3040 H 0.37323 0.30682 0.6775 0.0
H3041 H 0.38094 0.3006 0.65381 0.0
H3042 H 0.34876 0.3059 0.628 0.0
H3043 H 0.3412 0.31243 0.65183 0.0
H3044 H 0.36561 0.30141 0.61354 0.0
H3045 H 0.38188 0.28952 0.63256 0.0
H3046 H 0.40184 0.29067 0.61688 0.0
H3047 H 0.4101 0.28625 0.59227 0.0
C3048 C 0.71682 0.06025 0.61761 0.0
C3049 C 0.71109 0.06097 0.63184 0.0
C3050 C 0.72374 0.07287 0.60879 0.0
C3051 C 0.72502 0.08645 0.61402 0.0
C3052 C 0.72013 0.08736 0.62867 0.0
C3053 C 0.71315 0.07474 0.63745 0.0
C3054 C 0.73072 0.09966 0.60433 0.0
C3055 C 0.7292 0.09846 0.58883 0.0
C3056 C 0.73243 0.11107 0.5788 0.0
C3057 C 0.73273 0.10882 0.56283 0.0
C3058 C 0.73412 0.11963 0.55273 0.0
C3059 C 0.73531 0.133 0.55837 0.0
H3060 H 0.73338 0.12681 0.5966 0.0
C3061 C 0.73534 0.13547 0.57435 0.0
C3062 C 0.73391 0.12464 0.58447 0.0
H3063 H 0.73599 0.1456 0.57896 0.0
H3064 H 0.71554 0.04983 0.61304 0.0
H3065 H 0.72787 0.07186 0.59781 0.0
H3066 H 0.72114 0.09771 0.63307 0.0
H3067 H 0.70899 0.0757 0.64844 0.0
H3068 H 0.73512 0.11046 0.61029 0.0
H3069 H 0.7246 0.08752 0.58307 0.0
H3070 H 0.7315 0.09847 0.55809 0.0
H3071 H 0.7339 0.11736 0.54046 0.0
C3072 C 0.94916 0.65171 0.65113 0.0
C3073 C 0.94298 0.64623 0.66535 0.0
C3074 C 0.94099 0.64552 0.63732 0.0
C3075 C 0.92645 0.63369 0.63743 0.0
C3076 C 0.92036 0.62811 0.65161 0.0
C3077 C 0.92846 0.63436 0.66541 0.0
C3078 C 0.91754 0.62641 0.62302 0.0
C3079 C 0.91953 0.63354 0.60977 0.0
C3080 C 0.91124 0.62636 0.59494 0.0
C3081 C 0.91625 0.6343 0.58146 0.0
C3082 C 0.90938 0.62788 0.56714 0.0
C3083 C 0.89721 0.61339 0.56595 0.0
H3084 H 0.89426 0.60541 0.60375 0.0
C3085 C 0.89196 0.6055 0.57942 0.0
C3086 C 0.8988 0.61193 0.59377 0.0
H3087 H 0.8827 0.59424 0.57882 0.0
H3088 H 0.96033 0.66079 0.65063 0.0
H3089 H 0.94626 0.64983 0.62662 0.0
H3090 H 0.90924 0.6189 0.65204 0.0
H3091 H 0.92336 0.62978 0.67613 0.0
H3092 H 0.90904 0.61485 0.62363 0.0
H3093 H 0.92787 0.64525 0.60961 0.0
H3094 H 0.92574 0.64543 0.58193 0.0
H3095 H 0.91377 0.63413 0.55691 0.0
C3096 C 0.95287 0.68734 0.72705 0.0
C3097 C 0.963 0.6949 0.71574 0.0
C3098 C 0.94688 0.69443 0.73552 0.0
C3099 C 0.9511 0.70938 0.73306 0.0
C3100 C 0.96049 0.7166 0.72108 0.0
C3101 C 0.96641 0.70945 0.71251 0.0
C3102 C 0.94654 0.71801 0.74317 0.0
C3103 C 0.94294 0.71469 0.75792 0.0
C3104 C 0.94068 0.72438 0.76912 0.0
C3105 C 0.94203 0.72258 0.7849 0.0
C3106 C 0.94098 0.73199 0.79593 0.0
C3107 C 0.93834 0.7433 0.79145 0.0
H3108 H 0.93608 0.73698 0.75262 0.0
C3109 C 0.93655 0.74488 0.77569 0.0
C3110 C 0.93761 0.73545 0.76462 0.0
H3111 H 0.93458 0.75358 0.77194 0.0
H3112 H 0.94985 0.67606 0.72972 0.0
H3113 H 0.93916 0.6882 0.74415 0.0
H3114 H 0.96378 0.72804 0.71876 0.0
H3115 H 0.97411 0.71557 0.7038 0.0
H3116 H 0.94773 0.72821 0.73879 0.0
H3117 H 0.94298 0.70513 0.76258 0.0
H3118 H 0.94432 0.71412 0.78874 0.0
H3119 H 0.94251 0.7306 0.808 0.0
C3120 C 0.30172 0.27307 0.71515 0.0
C3121 C 0.31559 0.28558 0.71852 0.0
C3122 C 0.2964 0.26047 0.72401 0.0
C3123 C 0.30493 0.26005 0.73639 0.0
C3124 C 0.31903 0.27235 0.7393 0.0
C3125 C 0.32429 0.28496 0.7305 0.0
C3126 C 0.29922 0.24779 0.74742 0.0
C3127 C 0.28653 0.23473 0.7453 0.0
C3128 C 0.27993 0.22367 0.75747 0.0
C3129 C 0.26894 0.20902 0.75319 0.0
C3130 C 0.26145 0.1987 0.76437 0.0
C3131 C 0.26483 0.20282 0.7801 0.0
H3132 H 0.29135 0.23897 0.77718 0.0
C3133 C 0.27591 0.21739 0.78441 0.0
C3134 C 0.28337 0.22771 0.77326 0.0
H3135 H 0.27849 0.22094 0.79646 0.0
H3136 H 0.29471 0.27321 0.70602 0.0
H3137 H 0.2854 0.25146 0.7214 0.0
H3138 H 0.32586 0.27242 0.74876 0.0
H3139 H 0.33501 0.2944 0.73346 0.0
H3140 H 0.30573 0.24987 0.75795 0.0
H3141 H 0.28052 0.23194 0.73433 0.0
H3142 H 0.2659 0.20563 0.74116 0.0
H3143 H 0.25275 0.18763 0.76073 0.0
C3144 C 0.72559 0.03696 0.69559 0.0
C3145 C 0.72982 0.03477 0.68098 0.0
C3146 C 0.73499 0.04068 0.70853 0.0
C3147 C 0.74886 0.04215 0.70722 0.0
C3148 C 0.75308 0.03999 0.69259 0.0
C3149 C 0.7437 0.03634 0.67963 0.0
C3150 C 0.75939 0.04618 0.72061 0.0
C3151 C 0.75576 0.0456 0.73548 0.0
C3152 C 0.76623 0.0494 0.74882 0.0
C3153 C 0.76267 0.05297 0.76319 0.0
C3154 C 0.77171 0.05581 0.77625 0.0
C3155 C 0.78455 0.05514 0.77527 0.0
H3156 H 0.78208 0.04556 0.73713 0.0
C3157 C 0.78817 0.05157 0.76092 0.0
C3158 C 0.77913 0.04875 0.74782 0.0
H3159 H 0.79782 0.05061 0.75992 0.0
H3160 H 0.71504 0.036 0.69706 0.0
H3161 H 0.73131 0.04262 0.71939 0.0
H3162 H 0.7637 0.04111 0.69115 0.0
H3163 H 0.74736 0.03478 0.66856 0.0
H3164 H 0.77058 0.04967 0.71797 0.0
H3165 H 0.74465 0.04226 0.73826 0.0
H3166 H 0.75276 0.05341 0.76436 0.0
H3167 H 0.76852 0.05826 0.78721 0.0
C3168 C 0.03809 0.30639 0.01167 0.0
C3169 C 0.04005 0.3208 0.01309 0.0
C3170 C 0.04574 0.3021 0.02149 0.0
C3171 C 0.05558 0.31213 0.033 0.0
C3172 C 0.05766 0.32658 0.03435 0.0
C3173 C 0.04987 0.33085 0.0246 0.0
C3174 C 0.06433 0.30798 0.04311 0.0
C3175 C 0.05936 0.29385 0.04713 0.0
C3176 C 0.06825 0.28895 0.05564 0.0
C3177 C 0.05893 0.26975 0.06105 0.0
C3178 C 0.06876 0.26195 0.07011 0.0
C3179 C 0.08795 0.27576 0.07618 0.0
H3180 H 0.0933 0.31199 0.0539 0.0
C3181 C 0.09874 0.29406 0.06706 0.0
C3182 C 0.08788 0.30083 0.05808 0.0
H3183 H 0.11031 0.30132 0.06956 0.0
H3184 H 0.03067 0.29839 0.00289 0.0
H3185 H 0.04418 0.29103 0.01973 0.0
H3186 H 0.06529 0.33458 0.043 0.0
H3187 H 0.05169 0.34206 0.02593 0.0
H3188 H 0.07498 0.31681 0.0474 0.0
H3189 H 0.04827 0.28525 0.04385 0.0
H3190 H 0.0473 0.26279 0.05867 0.0
H3191 H 0.06308 0.25087 0.07453 0.0
C3192 C 0.6747 0.70574 0.04367 0.0
C3193 C 0.66079 0.69422 0.04745 0.0
C3194 C 0.6783 0.72068 0.0452 0.0
C3195 C 0.668 0.72437 0.0505 0.0
C3196 C 0.65396 0.7128 0.05363 0.0
C3197 C 0.65041 0.69794 0.05222 0.0
C3198 C 0.67132 0.73999 0.05308 0.0
C3199 C 0.68483 0.75175 0.05582 0.0
C3200 C 0.6875 0.7668 0.06022 0.0
C3201 C 0.70577 0.78065 0.06703 0.0
C3202 C 0.70979 0.79891 0.07396 0.0
C3203 C 0.69342 0.80087 0.07644 0.0
H3204 H 0.66219 0.76283 0.0542 0.0
C3205 C 0.67581 0.78887 0.06558 0.0
C3206 C 0.67288 0.77099 0.05892 0.0
H3207 H 0.66685 0.791 0.06611 0.0
H3208 H 0.68293 0.70324 0.03986 0.0
H3209 H 0.68911 0.72925 0.04222 0.0
H3210 H 0.64575 0.71528 0.05757 0.0
H3211 H 0.63954 0.68937 0.05508 0.0
H3212 H 0.66199 0.74152 0.05398 0.0
H3213 H 0.69423 0.75027 0.05595 0.0
H3214 H 0.71432 0.77789 0.06721 0.0
H3215 H 0.72034 0.80683 0.07924 0.0
C3216 C 0.29164 0.95628 0.01674 0.0
C3217 C 0.30287 0.95306 0.01919 0.0
C3218 C 0.27977 0.95072 0.02631 0.0
C3219 C 0.27887 0.94183 0.0386 0.0
C3220 C 0.28979 0.93814 0.04071 0.0
C3221 C 0.30174 0.94379 0.03118 0.0
C3222 C 0.26651 0.93607 0.04915 0.0
C3223 C 0.25965 0.94366 0.05262 0.0
C3224 C 0.24697 0.93812 0.06272 0.0
C3225 C 0.24365 0.94846 0.06943 0.0
C3226 C 0.23128 0.94369 0.07815 0.0
C3227 C 0.22192 0.92845 0.08037 0.0
H3228 H 0.2395 0.91447 0.05957 0.0
C3229 C 0.2252 0.91806 0.07365 0.0
C3230 C 0.23762 0.92283 0.06495 0.0
H3231 H 0.21795 0.90621 0.0748 0.0
H3232 H 0.29208 0.96327 0.00753 0.0
H3233 H 0.27129 0.95335 0.02396 0.0
H3234 H 0.28923 0.93114 0.04997 0.0
H3235 H 0.31017 0.94103 0.03332 0.0
H3236 H 0.26352 0.92573 0.05467 0.0
H3237 H 0.26373 0.95469 0.04821 0.0
H3238 H 0.25056 0.96029 0.06774 0.0
H3239 H 0.22884 0.95191 0.08292 0.0
C3240 C 0.3428 0.04061 0.98308 0.0
C3241 C 0.33432 0.02528 0.98557 0.0
C3242 C 0.33617 0.0491 0.98065 0.0
C3243 C 0.32086 0.04239 0.98049 0.0
C3244 C 0.31249 0.02732 0.98402 0.0
C3245 C 0.31912 0.01884 0.98651 0.0
C3246 C 0.31313 0.0504 0.97602 0.0
C3247 C 0.31907 0.06254 0.96743 0.0
C3248 C 0.3107 0.06924 0.96115 0.0
C3249 C 0.31823 0.08437 0.95771 0.0
C3250 C 0.31089 0.09085 0.95086 0.0
C3251 C 0.29589 0.08219 0.94691 0.0
H3252 H 0.28948 0.04886 0.95959 0.0
C3253 C 0.2883 0.0671 0.95055 0.0
C3254 C 0.29562 0.06065 0.95751 0.0
H3255 H 0.2767 0.06024 0.94782 0.0
H3256 H 0.35457 0.04601 0.98257 0.0
H3257 H 0.34312 0.06083 0.97868 0.0
H3258 H 0.3007 0.0219 0.98421 0.0
H3259 H 0.31224 0.00708 0.98853 0.0
H3260 H 0.3018 0.04548 0.97909 0.0
H3261 H 0.33041 0.06768 0.96439 0.0
H3262 H 0.32985 0.09122 0.96033 0.0
H3263 H 0.31697 0.10259 0.9485 0.0
C3264 C 0.98051 0.28785 0.98646 0.0
C3265 C 0.97557 0.2978 0.98336 0.0
C3266 C 0.97108 0.27243 0.98438 0.0
C3267 C 0.9565 0.26665 0.97912 0.0
C3268 C 0.95137 0.27657 0.97696 0.0
C3269 C 0.96079 0.29195 0.97897 0.0
C3270 C 0.9464 0.2505 0.9753 0.0
C3271 C 0.951 0.24104 0.97106 0.0
C3272 C 0.94106 0.22548 0.96537 0.0
C3273 C 0.94945 0.21463 0.96019 0.0
C3274 C 0.93864 0.19593 0.95197 0.0
C3275 C 0.91948 0.19033 0.94646 0.0
H3276 H 0.91657 0.2242 0.96724 0.0
C3277 C 0.90972 0.19912 0.95552 0.0
C3278 C 0.92146 0.21774 0.96363 0.0
H3279 H 0.89819 0.19482 0.95327 0.0
H3280 H 0.99178 0.29195 0.99002 0.0
H3281 H 0.97533 0.26514 0.98675 0.0
H3282 H 0.94016 0.27244 0.97313 0.0
H3283 H 0.95654 0.29926 0.97664 0.0
H3284 H 0.93483 0.24668 0.97482 0.0
H3285 H 0.96258 0.24492 0.97088 0.0
H3286 H 0.96113 0.21948 0.9618 0.0
H3287 H 0.94376 0.18992 0.94754 0.0
C3288 C 0.7177 0.69182 0.01307 0.0
C3289 C 0.70508 0.67766 0.01123 0.0
C3290 C 0.72887 0.69642 0.00264 0.0
C3291 C 0.72767 0.68696 0.99008 0.0
C3292 C 0.71508 0.6728 0.98825 0.0
C3293 C 0.70384 0.66823 0.99863 0.0
C3294 C 0.73973 0.69124 0.97929 0.0
C3295 C 0.74926 0.70553 0.97626 0.0
C3296 C 0.76206 0.71022 0.96647 0.0
C3297 C 0.76842 0.72432 0.96013 0.0
C3298 C 0.78118 0.72974 0.95195 0.0
C3299 C 0.78793 0.72119 0.94992 0.0
H3300 H 0.76448 0.69086 0.96947 0.0
C3301 C 0.78157 0.70703 0.95621 0.0
C3302 C 0.76874 0.70157 0.96435 0.0
H3303 H 0.78676 0.70037 0.95522 0.0
H3304 H 0.71906 0.69933 0.02269 0.0
H3305 H 0.73859 0.70723 0.00475 0.0
H3306 H 0.71393 0.66524 0.97876 0.0
H3307 H 0.69429 0.65721 0.99693 0.0
H3308 H 0.74051 0.6823 0.97346 0.0
H3309 H 0.74753 0.7143 0.98097 0.0
H3310 H 0.76363 0.73131 0.96175 0.0
H3311 H 0.78602 0.74082 0.94753 0.0
C3312 C 0.95121 0.66827 0.98931 0.0
C3313 C 0.96475 0.67568 0.99747 0.0
C3314 C 0.94663 0.67625 0.98035 0.0
C3315 C 0.95551 0.69182 0.97944 0.0
C3316 C 0.96929 0.69906 0.98707 0.0
C3317 C 0.97384 0.69112 0.99604 0.0
C3318 C 0.95077 0.70103 0.97105 0.0
C3319 C 0.93666 0.69703 0.9686 0.0
C3320 C 0.93204 0.70738 0.96275 0.0
C3321 C 0.91853 0.70542 0.96707 0.0
C3322 C 0.91434 0.71569 0.96311 0.0
C3323 C 0.92347 0.72802 0.9545 0.0
H3324 H 0.95119 0.72102 0.94955 0.0
C3325 C 0.93669 0.72964 0.94954 0.0
C3326 C 0.94092 0.71939 0.95355 0.0
H3327 H 0.94392 0.73906 0.94289 0.0
H3328 H 0.94403 0.65635 0.99002 0.0
H3329 H 0.93614 0.67016 0.97423 0.0
H3330 H 0.97643 0.71101 0.98645 0.0
H3331 H 0.9844 0.69717 0.00204 0.0
H3332 H 0.95926 0.71215 0.96831 0.0
H3333 H 0.92815 0.68644 0.9726 0.0
H3334 H 0.91143 0.69623 0.97405 0.0
H3335 H 0.90412 0.7142 0.96713 0.0
C3336 C 0.32113 0.29455 0.97631 0.0
C3337 C 0.33579 0.30364 0.97251 0.0
C3338 C 0.31376 0.2792 0.97284 0.0
C3339 C 0.32089 0.27256 0.96548 0.0
C3340 C 0.3357 0.2815 0.96229 0.0
C3341 C 0.34305 0.29689 0.96566 0.0
C3342 C 0.31323 0.25635 0.96117 0.0
C3343 C 0.29885 0.24841 0.9573 0.0
C3344 C 0.29089 0.23219 0.95293 0.0
C3345 C 0.27757 0.22608 0.94445 0.0
C3346 C 0.26933 0.21076 0.94083 0.0
C3347 C 0.27422 0.2012 0.94566 0.0
H3348 H 0.30577 0.22674 0.96467 0.0
C3349 C 0.28755 0.20728 0.95412 0.0
C3350 C 0.29581 0.2226 0.95772 0.0
H3351 H 0.29142 0.20011 0.95825 0.0
H3352 H 0.3152 0.29932 0.98171 0.0
H3353 H 0.30249 0.27257 0.97597 0.0
H3354 H 0.34151 0.27663 0.95683 0.0
H3355 H 0.35437 0.30352 0.96267 0.0
H3356 H 0.31984 0.25113 0.9603 0.0
H3357 H 0.29266 0.25411 0.95674 0.0
H3358 H 0.27343 0.23317 0.94075 0.0
H3359 H 0.25897 0.20633 0.93452 0.0
C3360 C 0.70598 0.04183 0.99013 0.0
C3361 C 0.70456 0.03418 0.00363 0.0
C3362 C 0.7184 0.04677 0.98137 0.0
C3363 C 0.72961 0.04402 0.98589 0.0
C3364 C 0.72825 0.0366 0.99953 0.0
C3365 C 0.7159 0.03172 0.00827 0.0
C3366 C 0.743 0.0488 0.97699 0.0
C3367 C 0.74411 0.05228 0.96207 0.0
C3368 C 0.75733 0.05635 0.95309 0.0
C3369 C 0.75593 0.0553 0.93694 0.0
C3370 C 0.76799 0.0589 0.92802 0.0
C3371 C 0.78177 0.06368 0.93506 0.0
H3372 H 0.77297 0.06292 0.97249 0.0
C3373 C 0.78325 0.06491 0.9512 0.0
C3374 C 0.77121 0.06141 0.96013 0.0
H3375 H 0.79376 0.0687 0.95693 0.0
H3376 H 0.69749 0.04403 0.98631 0.0
H3377 H 0.71915 0.05284 0.97122 0.0
H3378 H 0.73674 0.03443 0.00339 0.0
H3379 H 0.71521 0.0259 0.01864 0.0
H3380 H 0.75197 0.04857 0.98287 0.0
H3381 H 0.73473 0.05135 0.95581 0.0
H3382 H 0.74544 0.05158 0.93117 0.0
H3383 H 0.76656 0.05795 0.91559 0.0
C3384 C 0.6877 0.97421 0.04403 0.0
C3385 C 0.67318 0.96867 0.04823 0.0
C3386 C 0.6947 0.96613 0.04669 0.0
C3387 C 0.68738 0.95232 0.05367 0.0
C3388 C 0.67267 0.94643 0.0572 0.0
C3389 C 0.66565 0.95456 0.0546 0.0
C3390 C 0.69482 0.94384 0.05723 0.0
C3391 C 0.70923 0.95067 0.06089 0.0
C3392 C 0.7172 0.94266 0.06426 0.0
C3393 C 0.73074 0.95043 0.07239 0.0
C3394 C 0.73903 0.94365 0.07503 0.0
C3395 C 0.73395 0.92894 0.06954 0.0
H3396 H 0.70198 0.92167 0.05207 0.0
C3397 C 0.72043 0.92114 0.0614 0.0
C3398 C 0.71211 0.9279 0.05879 0.0
H3399 H 0.71641 0.90988 0.05681 0.0
H3400 H 0.6938 0.98494 0.0389 0.0
H3401 H 0.70586 0.97076 0.04324 0.0
H3402 H 0.66672 0.9357 0.06237 0.0
H3403 H 0.65444 0.94991 0.05789 0.0
H3404 H 0.6881 0.9318 0.05762 0.0
H3405 H 0.71552 0.96278 0.06195 0.0
H3406 H 0.735 0.96186 0.07658 0.0
H3407 H 0.74953 0.94998 0.08112 0.0
C3408 C 0.02919 0.71754 0.04125 0.0
C3409 C 0.03281 0.70705 0.04637 0.0
C3410 C 0.03844 0.73276 0.04465 0.0
C3411 C 0.05156 0.73789 0.0533 0.0
C3412 C 0.05558 0.72754 0.05773 0.0
C3413 C 0.04626 0.71225 0.05441 0.0
C3414 C 0.06122 0.75396 0.05775 0.0
C3415 C 0.0559 0.76312 0.06059 0.0
C3416 C 0.06509 0.7793 0.06488 0.0
C3417 C 0.05847 0.78664 0.07188 0.0
C3418 C 0.06639 0.80202 0.07516 0.0
C3419 C 0.08114 0.81043 0.07149 0.0
H3420 H 0.08533 0.78263 0.05553 0.0
C3421 C 0.08782 0.80312 0.06459 0.0
C3422 C 0.07991 0.78772 0.06132 0.0
H3423 H 0.0991 0.8094 0.06137 0.0
H3424 H 0.01902 0.714 0.03486 0.0
H3425 H 0.03526 0.74047 0.0405 0.0
H3426 H 0.06574 0.73123 0.06419 0.0
H3427 H 0.04946 0.70451 0.05843 0.0
H3428 H 0.07279 0.75803 0.05954 0.0
H3429 H 0.04415 0.75849 0.06021 0.0
H3430 H 0.04704 0.78047 0.07462 0.0
H3431 H 0.06091 0.80742 0.08025 0.0
C3432 C 0.29953 0.33102 0.02249 0.0
C3433 C 0.30409 0.34386 0.01402 0.0
C3434 C 0.28666 0.32508 0.03061 0.0
C3435 C 0.2781 0.33193 0.0305 0.0
C3436 C 0.28293 0.345 0.02239 0.0
C3437 C 0.29578 0.35093 0.01429 0.0
C3438 C 0.26355 0.32525 0.03748 0.0
C3439 C 0.25882 0.31478 0.04814 0.0
C3440 C 0.24357 0.30708 0.05348 0.0
C3441 C 0.23773 0.29271 0.0591 0.0
C3442 C 0.22307 0.28455 0.06293 0.0
C3443 C 0.21398 0.29066 0.06133 0.0
H3444 H 0.2388 0.32473 0.04902 0.0
C3445 C 0.21997 0.30529 0.05642 0.0
C3446 C 0.23463 0.31347 0.05266 0.0
H3447 H 0.21324 0.31031 0.05519 0.0
H3448 H 0.30567 0.32528 0.02247 0.0
H3449 H 0.28325 0.31482 0.03638 0.0
H3450 H 0.27657 0.3505 0.02204 0.0
H3451 H 0.29898 0.36085 0.00793 0.0
H3452 H 0.25627 0.32888 0.03308 0.0
H3453 H 0.26598 0.311 0.0525 0.0
H3454 H 0.24438 0.28756 0.06003 0.0
H3455 H 0.21872 0.27329 0.0667 0.0
C3456 C 0.71153 0.67814 0.37695 0.0
C3457 C 0.69905 0.6693 0.36739 0.0
C3458 C 0.71743 0.67154 0.38621 0.0
C3459 C 0.71104 0.65591 0.38599 0.0
C3460 C 0.69813 0.64709 0.37704 0.0
C3461 C 0.69222 0.65369 0.36782 0.0
C3462 C 0.7176 0.64835 0.39456 0.0
C3463 C 0.73191 0.65504 0.39877 0.0
C3464 C 0.73899 0.64713 0.40554 0.0
C3465 C 0.7542 0.65366 0.40471 0.0
C3466 C 0.76131 0.64636 0.41013 0.0
C3467 C 0.75339 0.63239 0.41669 0.0
H3468 H 0.71945 0.62803 0.4138 0.0
C3469 C 0.73822 0.62598 0.41787 0.0
C3470 C 0.7311 0.6333 0.41249 0.0
H3471 H 0.73184 0.61519 0.42281 0.0
H3472 H 0.71695 0.6902 0.37707 0.0
H3473 H 0.72704 0.67877 0.39339 0.0
H3474 H 0.69284 0.63503 0.37679 0.0
H3475 H 0.68253 0.64652 0.36069 0.0
H3476 H 0.71058 0.63652 0.39615 0.0
H3477 H 0.73911 0.66657 0.39601 0.0
H3478 H 0.7606 0.66431 0.39951 0.0
H3479 H 0.77298 0.6515 0.4089 0.0
C3480 C 0.34184 0.04134 0.37734 0.0
C3481 C 0.3294 0.03028 0.38438 0.0
C3482 C 0.34574 0.05639 0.37893 0.0
C3483 C 0.33724 0.06063 0.38762 0.0
C3484 C 0.32485 0.04955 0.39458 0.0
C3485 C 0.32101 0.03463 0.39305 0.0
C3486 C 0.3404 0.07625 0.3894 0.0
C3487 C 0.35342 0.08844 0.38728 0.0
C3488 C 0.35574 0.10358 0.39014 0.0
C3489 C 0.37424 0.11883 0.39367 0.0
C3490 C 0.37781 0.1374 0.39855 0.0
C3491 C 0.3612 0.13854 0.40266 0.0
H3492 H 0.32936 0.09731 0.38721 0.0
C3493 C 0.34268 0.12452 0.39484 0.0
C3494 C 0.34025 0.10644 0.39009 0.0
H3495 H 0.33339 0.12604 0.39617 0.0
H3496 H 0.34851 0.03837 0.37052 0.0
H3497 H 0.3552 0.06456 0.37311 0.0
H3498 H 0.31806 0.05244 0.40129 0.0
H3499 H 0.31134 0.02648 0.39865 0.0
H3500 H 0.3316 0.07768 0.39358 0.0
H3501 H 0.36279 0.08746 0.38437 0.0
H3502 H 0.38325 0.11678 0.39312 0.0
H3503 H 0.38868 0.14633 0.40194 0.0
C3504 C 0.96887 0.30577 0.35874 0.0
C3505 C 0.96933 0.31444 0.34642 0.0
C3506 C 0.95722 0.30017 0.36868 0.0
C3507 C 0.94579 0.30317 0.36647 0.0
C3508 C 0.94657 0.31231 0.35453 0.0
C3509 C 0.95814 0.3178 0.34455 0.0
C3510 C 0.93286 0.29693 0.37626 0.0
C3511 C 0.9277 0.28389 0.38324 0.0
C3512 C 0.91377 0.27686 0.39146 0.0
C3513 C 0.90569 0.26125 0.39201 0.0
C3514 C 0.89211 0.25417 0.39878 0.0
C3515 C 0.88647 0.26259 0.40548 0.0
H3516 H 0.91437 0.29738 0.39869 0.0
C3517 C 0.89473 0.27823 0.40531 0.0
C3518 C 0.90828 0.28531 0.39848 0.0
H3519 H 0.89059 0.28499 0.41027 0.0
H3520 H 0.97739 0.30308 0.36058 0.0
H3521 H 0.95724 0.29357 0.37805 0.0
H3522 H 0.938 0.31493 0.35267 0.0
H3523 H 0.95822 0.32456 0.33526 0.0
H3524 H 0.92666 0.30264 0.37652 0.0
H3525 H 0.93308 0.27743 0.38173 0.0
H3526 H 0.90968 0.25447 0.38675 0.0
H3527 H 0.88589 0.24209 0.39853 0.0
C3528 C 0.0302 0.38417 0.30242 0.0
C3529 C 0.01875 0.37104 0.30813 0.0
C3530 C 0.02862 0.39651 0.3002 0.0
C3531 C 0.01547 0.39601 0.30349 0.0
C3532 C 0.00422 0.38313 0.30981 0.0
C3533 C 0.00581 0.37072 0.31206 0.0
C3534 C 0.01343 0.4089 0.30075 0.0
C3535 C 0.02028 0.41845 0.28954 0.0
C3536 C 0.01971 0.43224 0.28715 0.0
C3537 C 0.00832 0.43426 0.29237 0.0
C3538 C 0.00863 0.4477 0.29018 0.0
C3539 C 0.02022 0.45929 0.28266 0.0
H3540 H 0.04002 0.4425 0.27523 0.0
C3541 C 0.03148 0.45718 0.27731 0.0
C3542 C 0.03112 0.44375 0.27939 0.0
H3543 H 0.04069 0.46601 0.27172 0.0
H3544 H 0.04043 0.38495 0.29954 0.0
H3545 H 0.03782 0.40646 0.29602 0.0
H3546 H 0.99407 0.38256 0.31269 0.0
H3547 H 0.9968 0.36081 0.31658 0.0
H3548 H 0.00617 0.41046 0.30819 0.0
H3549 H 0.02724 0.41648 0.28201 0.0
H3550 H 0.99915 0.42554 0.29807 0.0
H3551 H 0.9999 0.44912 0.29453 0.0
C3552 C 0.63439 0.62479 0.31783 0.0
C3553 C 0.63345 0.636 0.31013 0.0
C3554 C 0.62387 0.60974 0.31497 0.0
C3555 C 0.61219 0.60556 0.30423 0.0
C3556 C 0.61097 0.61679 0.297 0.0
C3557 C 0.62148 0.63181 0.29985 0.0
C3558 C 0.60114 0.58968 0.30019 0.0
C3559 C 0.60373 0.57838 0.30182 0.0
C3560 C 0.59324 0.56277 0.29677 0.0
C3561 C 0.59957 0.54964 0.29826 0.0
C3562 C 0.58809 0.53044 0.2918 0.0
C3563 C 0.57115 0.52635 0.28088 0.0
H3564 H 0.57106 0.56493 0.28969 0.0
C3565 C 0.56251 0.53805 0.28314 0.0
C3566 C 0.57484 0.55705 0.28988 0.0
H3567 H 0.55193 0.53475 0.27789 0.0
H3568 H 0.64335 0.6276 0.32597 0.0
H3569 H 0.62495 0.6015 0.32125 0.0
H3570 H 0.60202 0.61393 0.28882 0.0
H3571 H 0.6203 0.64012 0.29378 0.0
H3572 H 0.59092 0.58749 0.29478 0.0
H3573 H 0.61424 0.58058 0.30636 0.0
H3574 H 0.61044 0.55337 0.30292 0.0
H3575 H 0.59227 0.52287 0.29136 0.0
C3576 C 0.35276 0.97838 0.31709 0.0
C3577 C 0.35452 0.98901 0.32859 0.0
C3578 C 0.36455 0.98052 0.30836 0.0
C3579 C 0.37837 0.99344 0.31088 0.0
C3580 C 0.37988 0.00438 0.32185 0.0
C3581 C 0.3681 0.00223 0.33058 0.0
C3582 C 0.39176 0.99525 0.30369 0.0
C3583 C 0.39174 0.98703 0.29136 0.0
C3584 C 0.40507 0.9871 0.28621 0.0
C3585 C 0.40342 0.97436 0.27821 0.0
C3586 C 0.41562 0.97325 0.2746 0.0
C3587 C 0.42975 0.98494 0.27877 0.0
H3588 H 0.4211 0.00937 0.29528 0.0
C3589 C 0.43146 0.99798 0.2861 0.0
C3590 C 0.41927 0.99912 0.28967 0.0
H3591 H 0.44224 0.0072 0.28936 0.0
H3592 H 0.34244 0.96807 0.31526 0.0
H3593 H 0.36283 0.97163 0.30028 0.0
H3594 H 0.39036 0.01443 0.32407 0.0
H3595 H 0.36983 0.01068 0.3393 0.0
H3596 H 0.40205 0.00316 0.30955 0.0
H3597 H 0.38149 0.97907 0.28547 0.0
H3598 H 0.39264 0.96498 0.27527 0.0
H3599 H 0.414 0.96306 0.26896 0.0
C3600 C 0.62998 0.99129 0.31492 0.0
C3601 C 0.62343 0.97782 0.32259 0.0
C3602 C 0.6214 0.9957 0.30675 0.0
C3603 C 0.60606 0.98666 0.30604 0.0
C3604 C 0.59962 0.973 0.31328 0.0
C3605 C 0.60818 0.9686 0.3214 0.0
C3606 C 0.59629 0.99154 0.29919 0.0
C3607 C 0.60039 0.00235 0.28898 0.0
C3608 C 0.59077 0.00812 0.28378 0.0
C3609 C 0.59722 0.02257 0.27824 0.0
C3610 C 0.58871 0.02896 0.27468 0.0
C3611 C 0.57356 0.021 0.27661 0.0
H3612 H 0.5699 0.9884 0.28819 0.0
C3613 C 0.567 0.00624 0.28128 0.0
C3614 C 0.57546 0.99982 0.2847 0.0
H3615 H 0.55531 0.99975 0.2826 0.0
H3616 H 0.64171 0.99868 0.31567 0.0
H3617 H 0.62683 0.00647 0.30165 0.0
H3618 H 0.58786 0.96582 0.31297 0.0
H3619 H 0.60275 0.95812 0.32712 0.0
H3620 H 0.58528 0.98616 0.30333 0.0
H3621 H 0.61143 0.00783 0.2849 0.0
H3622 H 0.60894 0.02916 0.27717 0.0
H3623 H 0.59402 0.04029 0.27089 0.0
C3624 C 0.0141 0.64243 0.31722 0.0
C3625 C 0.02756 0.65382 0.31222 0.0
C3626 C 0.00924 0.62746 0.31331 0.0
C3627 C 0.01773 0.62354 0.30421 0.0
C3628 C 0.03146 0.63488 0.29983 0.0
C3629 C 0.03631 0.64983 0.30373 0.0
C3630 C 0.01268 0.60792 0.29878 0.0
C3631 C 0.99855 0.59708 0.29762 0.0
C3632 C 0.99355 0.58209 0.29056 0.0
C3633 C 0.97424 0.56866 0.29088 0.0
C3634 C 0.96676 0.5505 0.28138 0.0
C3635 C 0.97969 0.54827 0.26898 0.0
H3636 H 0.01783 0.58553 0.28208 0.0
C3637 C 0.99987 0.55973 0.27203 0.0
C3638 C 0.00627 0.57756 0.2818 0.0
H3639 H 0.0072 0.55736 0.2657 0.0
H3640 H 0.00714 0.64507 0.32395 0.0
H3641 H 0.99884 0.61908 0.31743 0.0
H3642 H 0.03832 0.6322 0.29298 0.0
H3643 H 0.04679 0.65828 0.29977 0.0
H3644 H 0.02097 0.60566 0.29471 0.0
H3645 H 0.99008 0.59927 0.30125 0.0
H3646 H 0.96703 0.57163 0.29657 0.0
H3647 H 0.95508 0.54297 0.28025 0.0
C3648 C 0.36908 0.39076 0.31684 0.0
C3649 C 0.35964 0.3757 0.31989 0.0
C3650 C 0.38122 0.39491 0.30784 0.0
C3651 C 0.38428 0.38407 0.30184 0.0
C3652 C 0.37436 0.36897 0.3042 0.0
C3653 C 0.3622 0.36483 0.31313 0.0
C3654 C 0.39787 0.38792 0.29367 0.0
C3655 C 0.41016 0.40141 0.29512 0.0
C3656 C 0.42454 0.4046 0.28933 0.0
C3657 C 0.43721 0.41708 0.29576 0.0
C3658 C 0.45103 0.41988 0.29181 0.0
C3659 C 0.45252 0.41036 0.28118 0.0
H3660 H 0.41663 0.38588 0.27256 0.0
C3661 C 0.43989 0.39814 0.2743 0.0
C3662 C 0.42603 0.39536 0.2782 0.0
H3663 H 0.44073 0.39056 0.26613 0.0
H3664 H 0.36728 0.39939 0.32168 0.0
H3665 H 0.3882 0.40662 0.30581 0.0
H3666 H 0.37629 0.36035 0.29958 0.0
H3667 H 0.35509 0.3531 0.31513 0.0
H3668 H 0.39809 0.3788 0.28756 0.0
H3669 H 0.41019 0.41021 0.30216 0.0
H3670 H 0.43645 0.42445 0.30429 0.0
H3671 H 0.46058 0.42929 0.2974 0.0
C3672 C 0.3432 0.31596 0.36398 0.0
C3673 C 0.32887 0.31096 0.36856 0.0
C3674 C 0.35082 0.30902 0.36899 0.0
C3675 C 0.34419 0.29682 0.3786 0.0
C3676 C 0.3296 0.29131 0.38236 0.0
C3677 C 0.32201 0.29826 0.3774 0.0
C3678 C 0.35244 0.29062 0.38637 0.0
C3679 C 0.36576 0.29329 0.38252 0.0
C3680 C 0.3743 0.28864 0.39224 0.0
C3681 C 0.38405 0.28498 0.38544 0.0
C3682 C 0.39225 0.28072 0.39452 0.0
C3683 C 0.39093 0.28017 0.41058 0.0
H3684 H 0.36645 0.29193 0.41407 0.0
C3685 C 0.3816 0.28441 0.4174 0.0
C3686 C 0.37335 0.28854 0.40836 0.0
H3687 H 0.38068 0.28453 0.42979 0.0
H3688 H 0.34884 0.32572 0.35717 0.0
H3689 H 0.36209 0.3138 0.36595 0.0
H3690 H 0.32419 0.28192 0.38971 0.0
H3691 H 0.31096 0.29402 0.38106 0.0
H3692 H 0.34737 0.28377 0.39613 0.0
H3693 H 0.37057 0.29887 0.37204 0.0
H3694 H 0.3852 0.28528 0.37308 0.0
H3695 H 0.3996 0.27781 0.38901 0.0
C3696 C 0.68772 0.03228 0.36558 0.0
C3697 C 0.69393 0.02365 0.36977 0.0
C3698 C 0.69432 0.04732 0.37052 0.0
C3699 C 0.70734 0.05405 0.37968 0.0
C3700 C 0.71382 0.04557 0.38328 0.0
C3701 C 0.70725 0.0306 0.37836 0.0
C3702 C 0.71384 0.0693 0.38695 0.0
C3703 C 0.71102 0.07989 0.38233 0.0
C3704 C 0.71718 0.0945 0.39094 0.0
C3705 C 0.72091 0.10746 0.383 0.0
C3706 C 0.72717 0.12136 0.39096 0.0
C3707 C 0.72968 0.12251 0.40701 0.0
H3708 H 0.71582 0.08578 0.41363 0.0
C3709 C 0.72527 0.10943 0.415 0.0
C3710 C 0.71914 0.09561 0.40707 0.0
H3711 H 0.72669 0.10992 0.42741 0.0
H3712 H 0.67744 0.02727 0.35901 0.0
H3713 H 0.68883 0.05337 0.36771 0.0
H3714 H 0.72383 0.05043 0.39031 0.0
H3715 H 0.71243 0.02436 0.38174 0.0
H3716 H 0.72148 0.07195 0.39666 0.0
H3717 H 0.70457 0.07812 0.37182 0.0
H3718 H 0.71926 0.10685 0.37061 0.0
H3719 H 0.73018 0.13123 0.38456 0.0
C3720 C 0.96685 0.66814 0.34479 0.0
C3721 C 0.98114 0.67246 0.34984 0.0
C3722 C 0.95522 0.66095 0.35457 0.0
C3723 C 0.95761 0.65778 0.36961 0.0
C3724 C 0.97194 0.6623 0.37472 0.0
C3725 C 0.98358 0.66952 0.36494 0.0
C3726 C 0.94558 0.65029 0.38047 0.0
C3727 C 0.93143 0.64153 0.37588 0.0
C3728 C 0.91933 0.63419 0.38668 0.0
C3729 C 0.90602 0.6219 0.38118 0.0
C3730 C 0.89423 0.61491 0.39082 0.0
C3731 C 0.89544 0.62019 0.40614 0.0
H3732 H 0.93042 0.64911 0.40671 0.0
C3733 C 0.90877 0.63242 0.4117 0.0
C3734 C 0.92055 0.63944 0.40207 0.0
H3735 H 0.91004 0.63665 0.42351 0.0
H3736 H 0.96461 0.67038 0.33327 0.0
H3737 H 0.94446 0.65817 0.35032 0.0
H3738 H 0.97413 0.66015 0.3863 0.0
H3739 H 0.99447 0.67275 0.36922 0.0
H3740 H 0.94867 0.65162 0.39263 0.0
H3741 H 0.92853 0.63909 0.36368 0.0
H3742 H 0.90474 0.61766 0.36937 0.0
H3743 H 0.88414 0.60539 0.38627 0.0
C3744 C 0.39122 0.01999 0.70132 0.0
C3745 C 0.37617 0.01247 0.69753 0.0
C3746 C 0.39669 0.01552 0.71348 0.0
C3747 C 0.38722 0.0034 0.72222 0.0
C3748 C 0.37219 0.99583 0.71839 0.0
C3749 C 0.36669 0.00037 0.70624 0.0
C3750 C 0.39277 0.99796 0.73481 0.0
C3751 C 0.40536 0.00679 0.74289 0.0
C3752 C 0.4113 0.00129 0.75483 0.0
C3753 C 0.426 0.01513 0.76736 0.0
C3754 C 0.43475 0.00968 0.78159 0.0
C3755 C 0.42964 0.98969 0.77989 0.0
H3756 H 0.39511 0.97339 0.7493 0.0
C3757 C 0.41211 0.9749 0.77057 0.0
C3758 C 0.40408 0.98148 0.75672 0.0
H3759 H 0.4088 0.96321 0.77076 0.0
H3760 H 0.39885 0.0293 0.6948 0.0
H3761 H 0.40838 0.02136 0.71571 0.0
H3762 H 0.36466 0.98637 0.72482 0.0
H3763 H 0.35505 0.99429 0.70358 0.0
H3764 H 0.38599 0.9864 0.7377 0.0
H3765 H 0.4116 0.01864 0.74094 0.0
H3766 H 0.42972 0.02683 0.76619 0.0
H3767 H 0.4443 0.01792 0.78827 0.0
C3768 C 0.99228 0.36048 0.70814 0.0
C3769 C 0.97932 0.34655 0.7068 0.0
C3770 C 0.99203 0.37317 0.71359 0.0
C3771 C 0.97878 0.37212 0.71766 0.0
C3772 C 0.96575 0.35845 0.71509 0.0
C3773 C 0.96601 0.34578 0.70987 0.0
C3774 C 0.97806 0.38457 0.72561 0.0
C3775 C 0.98874 0.39459 0.73542 0.0
C3776 C 0.98651 0.4043 0.74663 0.0
C3777 C 0.9947 0.40871 0.76063 0.0
C3778 C 0.9917 0.41616 0.77234 0.0
C3779 C 0.98059 0.41958 0.77021 0.0
H3780 H 0.96964 0.40564 0.73341 0.0
C3781 C 0.97288 0.41586 0.75592 0.0
C3782 C 0.97587 0.4084 0.7442 0.0
H3783 H 0.96423 0.41833 0.75399 0.0
H3784 H 0.00268 0.36143 0.70575 0.0
H3785 H 0.00224 0.38365 0.71496 0.0
H3786 H 0.95537 0.35737 0.71793 0.0
H3787 H 0.95581 0.33525 0.70873 0.0
H3788 H 0.96756 0.38399 0.72514 0.0
H3789 H 0.99875 0.39424 0.73686 0.0
H3790 H 0.00301 0.40579 0.76281 0.0
H3791 H 0.99775 0.41882 0.78326 0.0
C3792 C 0.62274 0.62964 0.68987 0.0
C3793 C 0.63718 0.63323 0.69322 0.0
C3794 C 0.6127 0.62555 0.7015 0.0
C3795 C 0.6169 0.62503 0.71681 0.0
C3796 C 0.63124 0.6283 0.72012 0.0
C3797 C 0.64132 0.63245 0.70847 0.0
C3798 C 0.60648 0.62072 0.72946 0.0
C3799 C 0.59511 0.62304 0.72917 0.0
C3800 C 0.58448 0.61859 0.74144 0.0
C3801 C 0.57168 0.62519 0.74039 0.0
C3802 C 0.55757 0.61967 0.75411 0.0
C3803 C 0.55554 0.60466 0.76675 0.0
H3804 H 0.59238 0.60364 0.75747 0.0
C3805 C 0.57069 0.60104 0.77112 0.0
C3806 C 0.5844 0.60716 0.75683 0.0
H3807 H 0.56978 0.59322 0.77958 0.0
H3808 H 0.61914 0.62998 0.67822 0.0
H3809 H 0.60162 0.62259 0.69837 0.0
H3810 H 0.63471 0.62782 0.73178 0.0
H3811 H 0.65234 0.63507 0.71142 0.0
H3812 H 0.60867 0.61607 0.73947 0.0
H3813 H 0.59353 0.6287 0.7197 0.0
H3814 H 0.57235 0.63235 0.73129 0.0
H3815 H 0.54907 0.62243 0.75269 0.0
C3816 C 0.67661 0.70088 0.64043 0.0
C3817 C 0.67027 0.68833 0.64954 0.0
C3818 C 0.66949 0.70881 0.63757 0.0
C3819 C 0.65585 0.70443 0.64386 0.0
C3820 C 0.64967 0.6921 0.65324 0.0
C3821 C 0.65681 0.68417 0.65612 0.0
C3822 C 0.64729 0.71168 0.63987 0.0
C3823 C 0.65335 0.72563 0.63484 0.0
C3824 C 0.64471 0.73231 0.62925 0.0
C3825 C 0.65143 0.74791 0.62913 0.0
C3826 C 0.64399 0.75461 0.62303 0.0
C3827 C 0.62974 0.74582 0.61664 0.0
H3828 H 0.62487 0.71146 0.6226 0.0
C3829 C 0.6229 0.73022 0.61698 0.0
C3830 C 0.63032 0.72352 0.62312 0.0
H3831 H 0.61188 0.7232 0.61225 0.0
H3832 H 0.68693 0.70437 0.63511 0.0
H3833 H 0.67447 0.71796 0.62992 0.0
H3834 H 0.63914 0.68842 0.65814 0.0
H3835 H 0.65157 0.67454 0.66317 0.0
H3836 H 0.63558 0.70523 0.64122 0.0
H3837 H 0.66515 0.73262 0.63493 0.0
H3838 H 0.66251 0.75494 0.63371 0.0
H3839 H 0.64945 0.76667 0.62313 0.0
C3840 C 0.31038 0.9657 0.64878 0.0
C3841 C 0.30788 0.97695 0.6436 0.0
C3842 C 0.2997 0.95062 0.64638 0.0
C3843 C 0.28627 0.9465 0.6388 0.0
C3844 C 0.28371 0.95775 0.6339 0.0
C3845 C 0.2944 0.97277 0.63615 0.0
C3846 C 0.27444 0.93068 0.6363 0.0
C3847 C 0.2768 0.91914 0.63502 0.0
C3848 C 0.26474 0.90359 0.63238 0.0
C3849 C 0.26931 0.88985 0.62575 0.0
C3850 C 0.25526 0.87062 0.62218 0.0
C3851 C 0.23624 0.86717 0.62271 0.0
H3852 H 0.24391 0.90682 0.64153 0.0
C3853 C 0.23145 0.87967 0.63361 0.0
C3854 C 0.24625 0.89855 0.6368 0.0
H3855 H 0.22025 0.87682 0.63499 0.0
H3856 H 0.32061 0.96853 0.65461 0.0
H3857 H 0.30193 0.94228 0.6507 0.0
H3858 H 0.27341 0.9549 0.62818 0.0
H3859 H 0.29204 0.98111 0.63209 0.0
H3860 H 0.26342 0.92865 0.63464 0.0
H3861 H 0.28784 0.92108 0.63528 0.0
H3862 H 0.28057 0.89318 0.62385 0.0
H3863 H 0.25771 0.86255 0.61708 0.0
C3864 C 0.03674 0.34281 0.65588 0.0
C3865 C 0.0262 0.32765 0.65329 0.0
C3866 C 0.04934 0.34943 0.64731 0.0
C3867 C 0.05162 0.34102 0.63585 0.0
C3868 C 0.04087 0.326 0.63299 0.0
C3869 C 0.02828 0.31939 0.64156 0.0
C3870 C 0.06549 0.34709 0.62753 0.0
C3871 C 0.07501 0.36177 0.62633 0.0
C3872 C 0.08943 0.36768 0.61917 0.0
C3873 C 0.09634 0.38217 0.61371 0.0
C3874 C 0.11027 0.38846 0.60778 0.0
C3875 C 0.11763 0.3804 0.60718 0.0
H3876 H 0.09216 0.34866 0.62328 0.0
C3877 C 0.11078 0.36593 0.61275 0.0
C3878 C 0.09683 0.35962 0.61865 0.0
H3879 H 0.11636 0.35963 0.61287 0.0
H3880 H 0.03551 0.34948 0.66489 0.0
H3881 H 0.05747 0.36093 0.65019 0.0
H3882 H 0.04233 0.31923 0.6243 0.0
H3883 H 0.02039 0.30769 0.63924 0.0
H3884 H 0.06782 0.33903 0.62208 0.0
H3885 H 0.07215 0.36988 0.63047 0.0
H3886 H 0.091 0.38872 0.61418 0.0
H3887 H 0.11542 0.39975 0.60389 0.0
C3888 C 0.29156 0.32914 0.65556 0.0
C3889 C 0.30566 0.336 0.6625 0.0
C3890 C 0.28724 0.33732 0.6466 0.0
C3891 C 0.29696 0.35254 0.64439 0.0
C3892 C 0.31107 0.35933 0.65119 0.0
C3893 C 0.31542 0.35114 0.66005 0.0
C3894 C 0.29252 0.36189 0.63585 0.0
C3895 C 0.28196 0.3564 0.62464 0.0
C3896 C 0.27745 0.36583 0.61637 0.0
C3897 C 0.27173 0.36159 0.6012 0.0
C3898 C 0.26708 0.37001 0.59318 0.0
C3899 C 0.2677 0.38265 0.60033 0.0
H3900 H 0.28231 0.38202 0.63527 0.0
C3901 C 0.2735 0.38695 0.61548 0.0
C3902 C 0.27827 0.3786 0.62346 0.0
H3903 H 0.27425 0.39673 0.6212 0.0
H3904 H 0.28375 0.31752 0.65729 0.0
H3905 H 0.27615 0.33177 0.64187 0.0
H3906 H 0.31874 0.37105 0.64976 0.0
H3907 H 0.32634 0.35681 0.66527 0.0
H3908 H 0.2986 0.37383 0.63855 0.0
H3909 H 0.27685 0.34473 0.62084 0.0
H3910 H 0.27096 0.3518 0.59548 0.0
H3911 H 0.26293 0.36658 0.5814 0.0
C3912 C 0.6833 0.97149 0.62443 0.0
C3913 C 0.68094 0.97795 0.63769 0.0
C3914 C 0.67543 0.95601 0.62157 0.0
C3915 C 0.66513 0.94669 0.63201 0.0
C3916 C 0.66325 0.95308 0.64557 0.0
C3917 C 0.67094 0.96855 0.64831 0.0
C3918 C 0.65617 0.93028 0.62911 0.0
C3919 C 0.6514 0.92384 0.6149 0.0
C3920 C 0.64116 0.90757 0.61224 0.0
C3921 C 0.63073 0.90254 0.59999 0.0
C3922 C 0.62036 0.88737 0.59777 0.0
C3923 C 0.6205 0.87688 0.60752 0.0
H3924 H 0.64959 0.90051 0.63113 0.0
C3925 C 0.63123 0.88189 0.61947 0.0
C3926 C 0.64148 0.89706 0.6218 0.0
H3927 H 0.6315 0.87405 0.62723 0.0
H3928 H 0.69095 0.9784 0.61603 0.0
H3929 H 0.67742 0.9514 0.6112 0.0
H3930 H 0.6555 0.94612 0.65387 0.0
H3931 H 0.66893 0.97315 0.65869 0.0
H3932 H 0.65229 0.92346 0.63909 0.0
H3933 H 0.654 0.93082 0.60503 0.0
H3934 H 0.6303 0.91042 0.59243 0.0
H3935 H 0.61209 0.88389 0.58861 0.0
C3936 C 0.04043 0.70604 0.67756 0.0
C3937 C 0.02618 0.69491 0.67285 0.0
C3938 C 0.05204 0.71007 0.66784 0.0
C3939 C 0.04971 0.70295 0.65318 0.0
C3940 C 0.03544 0.692 0.64837 0.0
C3941 C 0.02379 0.68797 0.65812 0.0
C3942 C 0.06181 0.70705 0.64245 0.0
C3943 C 0.0759 0.71314 0.64726 0.0
C3944 C 0.08818 0.71759 0.63671 0.0
C3945 C 0.10135 0.71923 0.64258 0.0
C3946 C 0.11333 0.72384 0.63323 0.0
C3947 C 0.11246 0.72713 0.61783 0.0
H3948 H 0.0775 0.72009 0.61634 0.0
C3949 C 0.09927 0.72543 0.6119 0.0
C3950 C 0.08728 0.72081 0.62124 0.0
H3951 H 0.09827 0.72781 0.60003 0.0
H3952 H 0.04264 0.71174 0.68877 0.0
H3953 H 0.06275 0.71894 0.6718 0.0
H3954 H 0.03329 0.68646 0.63707 0.0
H3955 H 0.01294 0.6794 0.65411 0.0
H3956 H 0.05883 0.70436 0.63028 0.0
H3957 H 0.07864 0.71449 0.65952 0.0
H3958 H 0.10239 0.71691 0.65445 0.0
H3959 H 0.1233 0.7249 0.63806 0.0
C3960 C 0.99036 0.63115 0.70744 0.0
C3961 C 0.98036 0.63298 0.71626 0.0
C3962 C 0.99513 0.62145 0.71192 0.0
C3963 C 0.99012 0.61351 0.72543 0.0
C3964 C 0.98011 0.61529 0.73419 0.0
C3965 C 0.97514 0.62478 0.72957 0.0
C3966 C 0.99581 0.60404 0.73114 0.0
C3967 C 0.99958 0.59618 0.72169 0.0
C3968 C 0.0057 0.58709 0.72746 0.0
C3969 C 0.00273 0.57406 0.71909 0.0
C3970 C 0.00889 0.56565 0.72386 0.0
C3971 C 0.01835 0.57023 0.73695 0.0
H3972 H 0.01794 0.60191 0.74709 0.0
C3973 C 0.02146 0.58339 0.74525 0.0
C3974 C 0.01509 0.59167 0.74064 0.0
H3975 H 0.029 0.58746 0.75516 0.0
H3976 H 0.99463 0.63735 0.69716 0.0
H3977 H 0.00311 0.62057 0.70509 0.0
H3978 H 0.97617 0.60938 0.74469 0.0
H3979 H 0.96753 0.62601 0.73671 0.0
H3980 H 0.99637 0.6031 0.74352 0.0
H3981 H 0.99762 0.59589 0.70934 0.0
H3982 H 0.99566 0.5704 0.7088 0.0
H3983 H 0.00652 0.5557 0.7171 0.0
C3984 C 0.38141 0.37313 0.72621 0.0
C3985 C 0.37233 0.36723 0.71283 0.0
C3986 C 0.38989 0.38858 0.72905 0.0
C3987 C 0.38958 0.39839 0.71844 0.0
C3988 C 0.38109 0.39248 0.70473 0.0
C3989 C 0.37242 0.37707 0.70203 0.0
C3990 C 0.39778 0.4148 0.72136 0.0
C3991 C 0.39955 0.4213 0.73549 0.0
C3992 C 0.4059 0.43765 0.73797 0.0
C3993 C 0.40056 0.44302 0.74964 0.0
C3994 C 0.4055 0.45828 0.75147 0.0
C3995 C 0.41619 0.46849 0.74192 0.0
H3996 H 0.42146 0.44416 0.7198 0.0
C3997 C 0.42189 0.46314 0.7306 0.0
C3998 C 0.41684 0.4479 0.72866 0.0
H3999 H 0.43006 0.47077 0.72302 0.0
H4000 H 0.38159 0.36582 0.73473 0.0
H4001 H 0.39662 0.39282 0.73955 0.0
H4002 H 0.38079 0.39981 0.69631 0.0
H4003 H 0.36563 0.37286 0.69155 0.0
H4004 H 0.40104 0.42166 0.71137 0.0
H4005 H 0.39489 0.41437 0.74528 0.0
H4006 H 0.39215 0.43535 0.75699 0.0
H4007 H 0.40076 0.46205 0.76015 0.0
C4008 C 0.63484 0.99012 0.68334 0.0
C4009 C 0.64917 0.00226 0.68518 0.0
C4010 C 0.6243 0.98821 0.69386 0.0
C4011 C 0.6279 0.99837 0.70652 0.0
C4012 C 0.64236 0.01017 0.70865 0.0
C4013 C 0.65291 0.01206 0.69816 0.0
C4014 C 0.61661 0.99797 0.71669 0.0
C4015 C 0.60346 0.98571 0.71833 0.0
C4016 C 0.5914 0.98604 0.72637 0.0
C4017 C 0.5902 0.99893 0.72712 0.0
C4018 C 0.57799 0.99852 0.73335 0.0
C4019 C 0.56671 0.98526 0.739 0.0
H4020 H 0.58072 0.96269 0.73155 0.0
C4021 C 0.56798 0.97243 0.73848 0.0
C4022 C 0.58017 0.97282 0.73215 0.0
H4023 H 0.55936 0.96203 0.74262 0.0
H4024 H 0.63159 0.98238 0.67346 0.0
H4025 H 0.61323 0.97917 0.69153 0.0
H4026 H 0.64543 0.01821 0.71825 0.0
H4027 H 0.66386 0.02153 0.69993 0.0
H4028 H 0.61921 0.00833 0.72282 0.0
H4029 H 0.6013 0.975 0.7135 0.0
H4030 H 0.59834 0.00922 0.72232 0.0
H4031 H 0.57719 0.00851 0.73339 0.0
loop_
_geom_bond_atom_site_label_1
_geom_bond_atom_site_label_2
_geom_bond_distance
_geom_bond_site_symmetry_2
_ccdc_geom_bond_type
Mg0 O1 2.028 1_556 S
Mg0 O7 1.986 1_455 S
Mg0 O9 2.114 . S
Mg0 O10 2.251 . S
Mg0 O13 2.010 1_556 S
O1 Mg0 2.028 1_554 S
O1 C4 1.190 1_455 S
O2 Mg3 2.028 1_554 S
O2 C4 1.297 . S
Mg3 O2 2.028 1_556 S
Mg3 O8 2.032 . S
Mg3 O10 2.079 1_655 S
C4 O1 1.190 1_655 S
C4 O2 1.297 . S
C5 O6 1.264 . S
C5 O13 1.249 . S
O6 C5 1.264 . S
O7 Mg0 1.986 1_655 S
O7 C11 1.246 . S
O8 Mg3 2.032 . S
O8 C11 1.259 . S
O9 Mg0 2.114 . S
O9 C12 1.252 . S
O10 Mg0 2.251 . S
O10 Mg3 2.079 1_455 S
O10 C12 1.273 . S
C11 O7 1.246 . S
C11 O8 1.259 . S
C12 O9 1.252 . S
C12 O10 1.273 . S
O13 Mg0 2.010 1_554 S
O13 C5 1.249 . S
Mg14 O15 2.028 . S
Mg14 O21 1.986 . S
Mg14 O23 2.114 . S
Mg14 O24 2.251 . S
Mg14 O27 2.010 . S
O15 Mg14 2.028 . S
O15 C18 1.250 . S
O16 Mg17 2.028 . S
O16 C18 1.248 . S
Mg17 O16 2.028 . S
Mg17 O22 2.032 . S
Mg17 O24 2.079 . S
C18 O15 1.250 . S
C18 O16 1.248 . S
C19 O20 1.264 . S
C19 O27 1.249 . S
O20 C19 1.264 . S
O21 Mg14 1.986 . S
O21 C25 1.246 . S
O22 Mg17 2.032 . S
O22 C25 1.259 . S
O23 Mg14 2.114 . S
O23 C26 1.252 . S
O24 Mg14 2.251 . S
O24 Mg17 2.079 . S
O24 C26 1.273 . S
C25 O21 1.246 . S
C25 O22 1.259 . S
C26 O23 1.252 . S
C26 O24 1.273 . S
O27 Mg14 2.010 . S
O27 C19 1.249 . S
Mg28 O29 2.036 1_566 S
Mg28 O35 1.982 1_565 S
Mg28 O37 2.111 . S
Mg28 O38 2.246 1_565 S
Mg28 O41 2.014 1_556 S
O29 Mg28 2.036 1_544 S
O29 C32 1.250 . S
O30 Mg31 2.028 1_554 S
O30 C32 1.248 . S
Mg31 O30 2.028 1_556 S
Mg31 O36 2.032 . S
Mg31 O38 2.079 . S
C32 O29 1.250 . S
C32 O30 1.248 . S
C33 O34 1.264 . S
C33 O41 1.249 . S
O34 C33 1.264 . S
O35 Mg28 1.982 1_545 S
O35 C39 1.274 . S
O36 Mg31 2.032 . S
O36 C39 1.259 . S
O37 Mg28 2.111 . S
O37 C40 1.252 . S
O38 Mg28 2.246 1_545 S
O38 Mg31 2.079 . S
O38 C40 1.273 1_545 S
C39 O35 1.274 . S
C39 O36 1.259 . S
C40 O37 1.252 . S
C40 O38 1.273 1_565 S
O41 Mg28 2.014 1_554 S
O41 C33 1.249 . S
Mg42 O43 2.026 1_654 S
Mg42 O49 1.986 1_655 S
Mg42 O51 2.114 . S
Mg42 O52 2.251 1_655 S
Mg42 O55 2.010 . S
O43 Mg42 2.026 1_456 S
O43 C46 1.251 . S
O44 Mg45 2.028 . S
O44 C46 1.248 1_554 S
Mg45 O44 2.028 . S
Mg45 O50 2.032 . S
Mg45 O52 2.079 . S
C46 O43 1.251 . S
C46 O44 1.248 1_556 S
C47 O48 1.264 . S
C47 O55 1.249 . S
O48 C47 1.264 . S
O49 Mg42 1.986 1_455 S
O49 C53 1.246 . S
O50 Mg45 2.032 . S
O50 C53 1.259 . S
O51 Mg42 2.114 . S
O51 C54 1.252 . S
O52 Mg42 2.251 1_455 S
O52 Mg45 2.079 . S
O52 C54 1.273 1_455 S
C53 O49 1.246 . S
C53 O50 1.259 . S
C54 O51 1.252 . S
C54 O52 1.273 1_655 S
O55 Mg42 2.010 . S
O55 C47 1.249 . S
Mg56 O57 2.028 1_556 S
Mg56 O63 1.986 . S
Mg56 O65 2.114 . S
Mg56 O66 2.251 . S
Mg56 O69 2.010 1_556 S
O57 Mg56 2.028 1_554 S
O57 C60 1.250 . S
O58 Mg59 2.028 1_554 S
O58 C60 1.248 . S
Mg59 O58 2.028 1_556 S
Mg59 O64 2.032 . S
Mg59 O66 2.079 . S
C60 O57 1.250 . S
C60 O58 1.248 . S
C61 O62 1.264 . S
C61 O69 1.249 . S
O62 C61 1.264 . S
O63 Mg56 1.986 . S
O63 C67 1.246 . S
O64 Mg59 2.032 . S
O64 C67 1.259 . S
O65 Mg56 2.114 . S
O65 C68 1.252 . S
O66 Mg56 2.251 . S
O66 Mg59 2.079 . S
O66 C68 1.273 . S
C67 O63 1.246 . S
C67 O64 1.259 . S
C68 O65 1.252 . S
C68 O66 1.273 . S
O69 Mg56 2.010 1_554 S
O69 C61 1.249 . S
Mg70 O71 2.028 . S
Mg70 O77 1.986 1_545 S
Mg70 O79 2.114 . S
Mg70 O80 2.251 . S
Mg70 O83 2.010 . S
O71 Mg70 2.028 . S
O71 C74 1.250 1_544 S
O72 Mg73 2.028 . S
O72 C74 1.248 1_554 S
Mg73 O72 2.028 . S
Mg73 O78 2.032 . S
Mg73 O80 2.079 1_565 S
C74 O71 1.250 1_566 S
C74 O72 1.248 1_556 S
C75 O76 1.264 . S
C75 O83 1.249 . S
O76 C75 1.264 . S
O77 Mg70 1.986 1_565 S
O77 C81 1.246 . S
O78 Mg73 2.032 . S
O78 C81 1.259 . S
O79 Mg70 2.114 . S
O79 C82 1.252 . S
O80 Mg70 2.251 . S
O80 Mg73 2.079 1_545 S
O80 C82 1.273 . S
C81 O77 1.246 . S
C81 O78 1.259 . S
C82 O79 1.252 . S
C82 O80 1.273 . S
O83 Mg70 2.010 . S
O83 C75 1.249 . S
Mg84 O85 2.028 . S
Mg84 O91 1.986 . S
Mg84 O93 2.114 . S
Mg84 O94 2.251 . S
Mg84 O97 2.010 . S
O85 Mg84 2.028 . S
O85 C88 1.250 . S
O86 Mg87 2.028 . S
O86 C88 1.248 . S
Mg87 O86 2.028 . S
Mg87 O92 2.032 . S
Mg87 O94 2.079 . S
C88 O85 1.250 . S
C88 O86 1.248 . S
C89 O90 1.264 . S
C89 O97 1.249 . S
O90 C89 1.264 . S
O91 Mg84 1.986 . S
O91 C95 1.246 . S
O92 Mg87 2.032 . S
O92 C95 1.259 . S
O93 Mg84 2.114 . S
O93 C96 1.252 . S
O94 Mg84 2.251 . S
O94 Mg87 2.079 . S
O94 C96 1.273 . S
C95 O91 1.246 . S
C95 O92 1.259 . S
C96 O93 1.252 . S
C96 O94 1.273 . S
O97 Mg84 2.010 . S
O97 C89 1.249 . S
Mg98 O99 2.028 . S
Mg98 O105 1.986 1_565 S
Mg98 O107 2.114 . S
Mg98 O108 2.251 . S
Mg98 O111 2.010 . S
O99 Mg98 2.028 . S
O99 C102 1.250 . S
O100 Mg101 2.028 . S
O100 C102 1.248 . S
Mg101 O100 2.028 . S
Mg101 O106 2.032 1_565 S
Mg101 O108 2.079 . S
C102 O99 1.250 . S
C102 O100 1.248 . S
C103 O104 1.264 . S
C103 O111 1.249 . S
O104 C103 1.264 . S
O105 Mg98 1.986 1_545 S
O105 C109 1.246 . S
O106 Mg101 2.032 1_545 S
O106 C109 1.259 . S
O107 Mg98 2.114 . S
O107 C110 1.252 . S
O108 Mg98 2.251 . S
O108 Mg101 2.079 . S
O108 C110 1.273 . S
C109 O105 1.246 . S
C109 O106 1.259 . S
C110 O107 1.252 . S
C110 O108 1.273 . S
O111 Mg98 2.010 . S
O111 C103 1.249 . S
Mg112 O113 2.028 . S
Mg112 O119 1.986 . S
Mg112 O121 2.114 . S
Mg112 O122 2.251 . S
Mg112 O125 2.010 1_455 S
O113 Mg112 2.028 . S
O113 C116 1.250 . S
O114 Mg115 2.028 . S
O114 C116 1.248 . S
Mg115 O114 2.028 . S
Mg115 O120 2.032 . S
Mg115 O122 2.079 . S
C116 O113 1.250 . S
C116 O114 1.248 . S
C117 O118 1.264 . S
C117 O125 1.249 . S
O118 C117 1.264 . S
O119 Mg112 1.986 . S
O119 C123 1.246 . S
O120 Mg115 2.032 . S
O120 C123 1.259 . S
O121 Mg112 2.114 . S
O121 C124 1.252 . S
O122 Mg112 2.251 . S
O122 Mg115 2.079 . S
O122 C124 1.273 . S
C123 O119 1.246 . S
C123 O120 1.259 . S
C124 O121 1.252 . S
C124 O122 1.273 . S
O125 Mg112 2.010 1_655 S
O125 C117 1.249 . S
Mg126 O127 2.028 . S
Mg126 O133 1.986 1_565 S
Mg126 O135 2.114 . S
Mg126 O136 2.251 . S
Mg126 O139 2.010 . S
O127 Mg126 2.028 . S
O127 C130 1.250 . S
O128 Mg129 2.028 . S
O128 C130 1.248 . S
Mg129 O128 2.028 . S
Mg129 O134 1.990 1_565 S
Mg129 O136 2.079 . S
C130 O127 1.250 . S
C130 O128 1.248 . S
C131 O132 1.264 . S
C131 O139 1.249 . S
O132 C131 1.264 . S
O133 Mg126 1.986 1_545 S
O133 C137 1.246 . S
O134 Mg129 1.990 1_545 S
O134 C137 1.297 . S
O135 Mg126 2.114 . S
O135 C138 1.252 . S
O136 Mg126 2.251 . S
O136 Mg129 2.079 . S
O136 C138 1.273 . S
C137 O133 1.246 . S
C137 O134 1.297 . S
C138 O135 1.252 . S
C138 O136 1.273 . S
O139 Mg126 2.010 . S
O139 C131 1.249 . S
Mg140 O141 2.028 . S
Mg140 O147 1.986 . S
Mg140 O149 2.114 . S
Mg140 O150 2.251 . S
Mg140 O153 2.010 1_455 S
O141 Mg140 2.028 . S
O141 C144 1.250 . S
O142 Mg143 2.028 . S
O142 C144 1.248 . S
Mg143 O142 2.028 . S
Mg143 O148 2.032 . S
Mg143 O150 2.079 . S
C144 O141 1.250 . S
C144 O142 1.248 . S
C145 O146 1.264 . S
C145 O153 1.249 . S
O146 C145 1.264 . S
O147 Mg140 1.986 . S
O147 C151 1.246 . S
O148 Mg143 2.032 . S
O148 C151 1.259 . S
O149 Mg140 2.114 . S
O149 C152 1.252 . S
O150 Mg140 2.251 . S
O150 Mg143 2.079 . S
O150 C152 1.273 . S
C151 O147 1.246 . S
C151 O148 1.259 . S
C152 O149 1.252 . S
C152 O150 1.273 . S
O153 Mg140 2.010 1_655 S
O153 C145 1.249 . S
Mg154 O155 2.028 . S
Mg154 O161 1.986 . S
Mg154 O163 2.114 . S
Mg154 O164 2.251 . S
Mg154 O167 2.010 . S
O155 Mg154 2.028 . S
O155 C158 1.250 . S
O156 Mg157 2.028 . S
O156 C158 1.248 . S
Mg157 O156 2.028 . S
Mg157 O162 2.032 . S
Mg157 O164 2.079 . S
C158 O155 1.250 . S
C158 O156 1.248 . S
C159 O160 1.264 . S
C159 O167 1.249 . S
O160 C159 1.264 . S
O161 Mg154 1.986 . S
O161 C165 1.246 . S
O162 Mg157 2.032 . S
O162 C165 1.259 . S
O163 Mg154 2.114 . S
O163 C166 1.252 . S
O164 Mg154 2.251 . S
O164 Mg157 2.079 . S
O164 C166 1.273 . S
C165 O161 1.246 . S
C165 O162 1.259 . S
C166 O163 1.252 . S
C166 O164 1.273 . S
O167 Mg154 2.010 . S
O167 C159 1.249 . S
Mg168 O169 2.028 . S
Mg168 O175 1.951 1_545 S
Mg168 O177 2.114 . S
Mg168 O178 2.251 . S
Mg168 O181 2.010 . S
O169 Mg168 2.028 . S
O169 C172 1.250 . S
O170 Mg171 2.028 . S
O170 C172 1.248 . S
Mg171 O170 2.028 . S
Mg171 O176 2.032 . S
Mg171 O178 2.079 . S
C172 O169 1.250 . S
C172 O170 1.248 . S
C173 O174 1.264 . S
C173 O181 1.249 . S
O174 C173 1.264 . S
O175 Mg168 1.951 1_565 S
O175 C179 1.242 . S
O176 Mg171 2.032 . S
O176 C179 1.259 1_545 S
O177 Mg168 2.114 . S
O177 C180 1.252 . S
O178 Mg168 2.251 . S
O178 Mg171 2.079 . S
O178 C180 1.273 . S
C179 O175 1.242 . S
C179 O176 1.259 1_565 S
C180 O177 1.252 . S
C180 O178 1.273 . S
O181 Mg168 2.010 . S
O181 C173 1.249 . S
Mg182 O183 2.028 . S
Mg182 O189 1.986 . S
Mg182 O191 2.114 . S
Mg182 O192 2.251 . S
Mg182 O195 2.010 1_655 S
O183 Mg182 2.028 . S
O183 C186 1.250 . S
O184 Mg185 2.028 . S
O184 C186 1.248 . S
Mg185 O184 2.028 . S
Mg185 O190 2.032 . S
Mg185 O192 2.079 . S
C186 O183 1.250 . S
C186 O184 1.248 . S
C187 O188 1.264 . S
C187 O195 1.249 . S
O188 C187 1.264 . S
O189 Mg182 1.986 . S
O189 C193 1.246 . S
O190 Mg185 2.032 . S
O190 C193 1.259 . S
O191 Mg182 2.114 . S
O191 C194 1.252 . S
O192 Mg182 2.251 . S
O192 Mg185 2.079 . S
O192 C194 1.273 . S
C193 O189 1.246 . S
C193 O190 1.259 . S
C194 O191 1.252 . S
C194 O192 1.273 . S
O195 Mg182 2.010 1_455 S
O195 C187 1.249 . S
Mg196 O197 2.028 . S
Mg196 O203 1.986 . S
Mg196 O205 2.114 . S
Mg196 O206 2.251 . S
Mg196 O209 2.010 . S
O197 Mg196 2.028 . S
O197 C200 1.250 . S
O198 Mg199 2.028 . S
O198 C200 1.248 . S
Mg199 O198 2.028 . S
Mg199 O204 2.032 . S
Mg199 O206 2.079 . S
C200 O197 1.250 . S
C200 O198 1.248 . S
C201 O202 1.264 . S
C201 O209 1.249 . S
O202 C201 1.264 . S
O203 Mg196 1.986 . S
O203 C207 1.246 . S
O204 Mg199 2.032 . S
O204 C207 1.259 . S
O205 Mg196 2.114 . S
O205 C208 1.252 . S
O206 Mg196 2.251 . S
O206 Mg199 2.079 . S
O206 C208 1.273 . S
C207 O203 1.246 . S
C207 O204 1.259 . S
C208 O205 1.252 . S
C208 O206 1.273 . S
O209 Mg196 2.010 . S
O209 C201 1.249 . S
Mg210 O211 2.028 . S
Mg210 O217 1.986 . S
Mg210 O219 2.114 . S
Mg210 O220 2.251 . S
Mg210 O223 2.010 . S
O211 Mg210 2.028 . S
O211 C214 1.250 . S
O212 Mg213 2.028 . S
O212 C214 1.248 . S
Mg213 O212 2.028 . S
Mg213 O218 2.032 . S
Mg213 O220 2.079 . S
C214 O211 1.250 . S
C214 O212 1.248 . S
C215 O216 1.264 . S
C215 O223 1.249 . S
O216 C215 1.264 . S
O217 Mg210 1.986 . S
O217 C221 1.246 . S
O218 Mg213 2.032 . S
O218 C221 1.259 . S
O219 Mg210 2.114 . S
O219 C222 1.252 . S
O220 Mg210 2.251 . S
O220 Mg213 2.079 . S
O220 C222 1.273 . S
C221 O217 1.246 . S
C221 O218 1.259 . S
C222 O219 1.252 . S
C222 O220 1.273 . S
O223 Mg210 2.010 . S
O223 C215 1.249 . S
Mg224 O225 2.028 . S
Mg224 O231 1.986 1_545 S
Mg224 O233 2.114 . S
Mg224 O234 2.251 . S
Mg224 O237 2.010 . S
O225 Mg224 2.028 . S
O225 C228 1.250 . S
O226 Mg227 2.028 . S
O226 C228 1.248 . S
Mg227 O226 2.028 . S
Mg227 O232 2.032 1_545 S
Mg227 O234 2.079 . S
C228 O225 1.250 . S
C228 O226 1.248 . S
C229 O230 1.264 . S
C229 O237 1.249 . S
O230 C229 1.264 . S
O231 Mg224 1.986 1_565 S
O231 C235 1.246 . S
O232 Mg227 2.032 1_565 S
O232 C235 1.259 . S
O233 Mg224 2.114 . S
O233 C236 1.252 . S
O234 Mg224 2.251 . S
O234 Mg227 2.079 . S
O234 C236 1.273 . S
C235 O231 1.246 . S
C235 O232 1.259 . S
C236 O233 1.252 . S
C236 O234 1.273 . S
O237 Mg224 2.010 . S
O237 C229 1.249 . S
Mg238 O239 2.028 . S
Mg238 O245 1.986 . S
Mg238 O247 2.114 . S
Mg238 O248 2.251 . S
Mg238 O251 2.010 1_655 S
O239 Mg238 2.028 . S
O239 C242 1.250 . S
O240 Mg241 2.028 . S
O240 C242 1.248 . S
Mg241 O240 2.028 . S
Mg241 O246 2.032 . S
Mg241 O248 2.079 . S
C242 O239 1.250 . S
C242 O240 1.248 . S
C243 O244 1.264 . S
C243 O251 1.249 . S
O244 C243 1.264 . S
O245 Mg238 1.986 . S
O245 C249 1.246 . S
O246 Mg241 2.032 . S
O246 C249 1.259 . S
O247 Mg238 2.114 . S
O247 C250 1.252 . S
O248 Mg238 2.251 . S
O248 Mg241 2.079 . S
O248 C250 1.273 . S
C249 O245 1.246 . S
C249 O246 1.259 . S
C250 O247 1.252 . S
C250 O248 1.273 . S
O251 Mg238 2.010 1_455 S
O251 C243 1.249 . S
C252 C253 1.560 . S
C252 H313 0.959 . S
C252 H314 0.959 . S
C252 H315 0.960 . S
C253 C252 1.560 . S
C253 O308 1.426 . S
C253 H312 0.980 . S
C254 C255 1.407 . S
C254 C259 1.418 . S
C254 O308 1.334 . S
C255 C254 1.407 . S
C255 C256 1.360 . S
C255 H316 0.929 . S
C256 C255 1.360 . S
C256 C257 1.401 . S
C256 C260 1.527 . S
C257 C256 1.401 . S
C257 C258 1.405 . S
C257 C290 1.587 . S
C258 C257 1.405 . S
C258 C259 1.332 . S
C258 C261 1.496 . S
C259 C254 1.418 . S
C259 C258 1.332 . S
C259 H317 0.929 . S
C260 C256 1.527 . S
C260 H318 0.959 . S
C260 H319 0.961 . S
C260 H320 0.961 . S
C261 C258 1.496 . S
C261 H321 0.960 . S
C261 H322 0.960 . S
C261 H323 0.961 . S
C262 C263 1.517 . S
C262 H325 0.961 . S
C262 H326 0.960 . S
C262 H327 0.959 . S
C263 C262 1.517 . S
C263 O311 1.468 . S
C263 H324 0.980 . S
C264 C265 1.349 . S
C264 C269 1.367 . S
C264 O311 1.408 . S
C265 C264 1.349 . S
C265 C266 1.407 . S
C265 H328 0.930 . S
C266 C265 1.407 . S
C266 C267 1.449 . S
C266 C270 1.535 . S
C267 C266 1.449 . S
C267 C268 1.384 . S
C267 C292 1.553 . S
C268 C267 1.384 . S
C268 C269 1.364 . S
C268 C271 1.450 . S
C269 C264 1.367 . S
C269 C268 1.364 . S
C269 H329 0.931 . S
C270 C266 1.535 . S
C270 H330 0.959 . S
C270 H331 0.961 . S
C270 H332 0.959 . S
C271 C268 1.450 . S
C271 H333 0.960 . S
C271 H334 0.960 . S
C271 H335 0.960 . S
C272 C273 1.309 . S
C272 C277 1.304 . S
C272 O310 1.435 . S
C273 C272 1.309 . S
C273 C274 1.476 . S
C273 H337 0.930 . S
C274 C273 1.476 . S
C274 C275 1.400 . S
C274 C278 1.567 . S
C275 C274 1.400 . S
C275 C276 1.373 . S
C275 C297 1.432 . S
C276 C275 1.373 . S
C276 C277 1.339 . S
C276 C279 1.530 . S
C277 C272 1.304 . S
C277 C276 1.339 . S
C277 H338 0.930 . S
C278 C274 1.567 . S
C278 H339 0.961 . S
C278 H340 0.960 . S
C278 H341 0.958 . S
C279 C276 1.530 . S
C279 H342 0.961 . S
C279 H343 0.960 . S
C279 H344 0.960 . S
C280 C281 1.530 . S
C280 H346 0.961 . S
C280 H347 0.961 . S
C280 H348 0.959 . S
C281 C280 1.530 . S
C281 O309 1.412 . S
C281 H345 0.980 . S
C282 C283 1.288 . S
C282 C287 1.377 . S
C282 O309 1.393 . S
C283 C282 1.288 . S
C283 C284 1.369 . S
C283 H349 0.932 . S
C284 C283 1.369 . S
C284 C285 1.398 . S
C284 C288 1.527 . S
C285 C284 1.398 . S
C285 C286 1.380 . S
C285 C299 1.497 . S
C286 C285 1.380 . S
C286 C287 1.383 . S
C286 C289 1.603 . S
C287 C282 1.377 . S
C287 C286 1.383 . S
C287 H350 0.929 . S
C288 C284 1.527 . S
C288 H351 0.961 . S
C288 H352 0.959 . S
C288 H353 0.959 . S
C289 C286 1.603 . S
C289 H354 0.960 . S
C289 H355 0.962 . S
C289 H356 0.961 . S
C290 C257 1.587 . S
C290 C291 1.360 . S
C290 C303 1.412 . S
C291 C290 1.360 . S
C291 C292 1.365 . S
C291 H357 0.929 . S
C292 C267 1.553 . S
C292 C291 1.365 . S
C292 C293 1.404 . S
C293 C292 1.404 . S
C293 C294 1.395 . S
C293 C304 1.451 . S
C294 C293 1.395 . S
C294 C295 1.322 . S
C294 H358 0.930 . S
C295 C294 1.322 . S
C295 C296 1.459 . S
C295 H359 0.929 . S
C296 C295 1.459 . S
C296 C297 1.445 . S
C296 C305 1.395 . S
C297 C275 1.432 . S
C297 C296 1.445 . S
C297 C298 1.370 . S
C298 C297 1.370 . S
C298 C299 1.438 . S
C298 H360 0.930 . S
C299 C285 1.497 . S
C299 C298 1.438 . S
C299 C300 1.360 . S
C300 C299 1.360 . S
C300 C301 1.401 . S
C300 C305 1.446 . S
C301 C300 1.401 . S
C301 C302 1.347 . S
C301 H361 0.929 . S
C302 C301 1.347 . S
C302 C303 1.455 . S
C302 H362 0.930 . S
C303 C290 1.412 . S
C303 C302 1.455 . S
C303 C304 1.331 . S
C304 C293 1.451 . S
C304 C303 1.331 . S
C304 C305 1.497 . S
C305 C296 1.395 . S
C305 C300 1.446 . S
C305 C304 1.497 . S
C306 C307 1.582 . S
C306 H363 0.962 . S
C306 H364 0.959 . S
C306 H365 0.958 . S
C307 C306 1.582 . S
C307 O310 1.458 . S
C307 H336 0.980 . S
O308 C253 1.426 . S
O308 C254 1.334 . S
O309 C281 1.412 . S
O309 C282 1.393 . S
O310 C272 1.435 . S
O310 C307 1.458 . S
O311 C263 1.468 . S
O311 C264 1.408 . S
H312 C253 0.980 . S
H313 C252 0.959 . S
H314 C252 0.959 . S
H315 C252 0.960 . S
H316 C255 0.929 . S
H317 C259 0.929 . S
H318 C260 0.959 . S
H319 C260 0.961 . S
H320 C260 0.961 . S
H321 C261 0.960 . S
H322 C261 0.960 . S
H323 C261 0.961 . S
H324 C263 0.980 . S
H325 C262 0.961 . S
H326 C262 0.960 . S
H327 C262 0.959 . S
H328 C265 0.930 . S
H329 C269 0.931 . S
H330 C270 0.959 . S
H331 C270 0.961 . S
H332 C270 0.959 . S
H333 C271 0.960 . S
H334 C271 0.960 . S
H335 C271 0.960 . S
H336 C307 0.980 . S
H337 C273 0.930 . S
H338 C277 0.930 . S
H339 C278 0.961 . S
H340 C278 0.960 . S
H341 C278 0.958 . S
H342 C279 0.961 . S
H343 C279 0.960 . S
H344 C279 0.960 . S
H345 C281 0.980 . S
H346 C280 0.961 . S
H347 C280 0.961 . S
H348 C280 0.959 . S
H349 C283 0.932 . S
H350 C287 0.929 . S
H351 C288 0.961 . S
H352 C288 0.959 . S
H353 C288 0.959 . S
H354 C289 0.960 . S
H355 C289 0.962 . S
H356 C289 0.961 . S
H357 C291 0.929 . S
H358 C294 0.930 . S
H359 C295 0.929 . S
H360 C298 0.930 . S
H361 C301 0.929 . S
H362 C302 0.930 . S
H363 C306 0.962 . S
H364 C306 0.959 . S
H365 C306 0.958 . S
C366 C367 1.560 . S
C366 H427 0.959 . S
C366 H428 0.959 . S
C366 H429 0.960 . S
C367 C366 1.560 . S
C367 O422 1.426 . S
C367 H426 0.980 . S
C368 C369 1.407 . S
C368 C373 1.418 . S
C368 O422 1.334 . S
C369 C368 1.407 . S
C369 C370 1.360 . S
C369 H430 0.929 . S
C370 C369 1.360 . S
C370 C371 1.401 . S
C370 C374 1.527 . S
C371 C370 1.401 . S
C371 C372 1.405 . S
C371 C404 1.587 . S
C372 C371 1.405 . S
C372 C373 1.332 . S
C372 C375 1.496 . S
C373 C368 1.418 . S
C373 C372 1.332 . S
C373 H431 0.929 . S
C374 C370 1.527 . S
C374 H432 0.959 . S
C374 H433 0.961 . S
C374 H434 0.961 . S
C375 C372 1.496 . S
C375 H435 0.960 . S
C375 H436 0.960 . S
C375 H437 0.961 . S
C376 C377 1.517 . S
C376 H439 0.961 . S
C376 H440 0.960 . S
C376 H441 0.959 . S
C377 C376 1.517 . S
C377 O425 1.468 . S
C377 H438 0.980 . S
C378 C379 1.349 . S
C378 C383 1.367 . S
C378 O425 1.408 . S
C379 C378 1.349 . S
C379 C380 1.407 . S
C379 H442 0.930 . S
C380 C379 1.407 . S
C380 C381 1.449 . S
C380 C384 1.535 . S
C381 C380 1.449 . S
C381 C382 1.384 . S
C381 C406 1.553 . S
C382 C381 1.384 . S
C382 C383 1.364 . S
C382 C385 1.450 . S
C383 C378 1.367 . S
C383 C382 1.364 . S
C383 H443 0.931 . S
C384 C380 1.535 . S
C384 H444 0.959 . S
C384 H445 0.961 . S
C384 H446 0.959 . S
C385 C382 1.450 . S
C385 H447 0.960 . S
C385 H448 0.960 . S
C385 H449 0.960 . S
C386 C387 1.309 . S
C386 C391 1.304 . S
C386 O424 1.435 . S
C387 C386 1.309 . S
C387 C388 1.476 . S
C387 H451 0.930 . S
C388 C387 1.476 . S
C388 C389 1.400 . S
C388 C392 1.567 . S
C389 C388 1.400 . S
C389 C390 1.373 . S
C389 C411 1.432 . S
C390 C389 1.373 . S
C390 C391 1.339 . S
C390 C393 1.530 . S
C391 C386 1.304 . S
C391 C390 1.339 . S
C391 H452 0.930 . S
C392 C388 1.567 . S
C392 H453 0.961 . S
C392 H454 0.960 . S
C392 H455 0.958 . S
C393 C390 1.530 . S
C393 H456 0.961 . S
C393 H457 0.960 . S
C393 H458 0.960 . S
C394 C395 1.530 . S
C394 H460 0.961 . S
C394 H461 0.961 . S
C394 H462 0.959 . S
C395 C394 1.530 . S
C395 O423 1.412 . S
C395 H459 0.980 . S
C396 C397 1.288 . S
C396 C401 1.377 . S
C396 O423 1.393 . S
C397 C396 1.288 . S
C397 C398 1.369 . S
C397 H463 0.932 . S
C398 C397 1.369 . S
C398 C399 1.398 . S
C398 C402 1.527 . S
C399 C398 1.398 . S
C399 C400 1.380 . S
C399 C413 1.497 . S
C400 C399 1.380 . S
C400 C401 1.383 . S
C400 C403 1.603 . S
C401 C396 1.377 . S
C401 C400 1.383 . S
C401 H464 0.929 . S
C402 C398 1.527 . S
C402 H465 0.961 . S
C402 H466 0.959 . S
C402 H467 0.959 . S
C403 C400 1.603 . S
C403 H468 0.960 . S
C403 H469 0.962 . S
C403 H470 0.961 . S
C404 C371 1.587 . S
C404 C405 1.360 . S
C404 C417 1.412 . S
C405 C404 1.360 . S
C405 C406 1.365 . S
C405 H471 0.929 . S
C406 C381 1.553 . S
C406 C405 1.365 . S
C406 C407 1.404 . S
C407 C406 1.404 . S
C407 C408 1.395 . S
C407 C418 1.451 . S
C408 C407 1.395 . S
C408 C409 1.322 . S
C408 H472 0.930 . S
C409 C408 1.322 . S
C409 C410 1.459 . S
C409 H473 0.929 . S
C410 C409 1.459 . S
C410 C411 1.445 . S
C410 C419 1.395 . S
C411 C389 1.432 . S
C411 C410 1.445 . S
C411 C412 1.370 . S
C412 C411 1.370 . S
C412 C413 1.438 . S
C412 H474 0.930 . S
C413 C399 1.497 . S
C413 C412 1.438 . S
C413 C414 1.360 . S
C414 C413 1.360 . S
C414 C415 1.401 . S
C414 C419 1.446 . S
C415 C414 1.401 . S
C415 C416 1.347 . S
C415 H475 0.929 . S
C416 C415 1.347 . S
C416 C417 1.455 . S
C416 H476 0.930 . S
C417 C404 1.412 . S
C417 C416 1.455 . S
C417 C418 1.331 . S
C418 C407 1.451 . S
C418 C417 1.331 . S
C418 C419 1.497 . S
C419 C410 1.395 . S
C419 C414 1.446 . S
C419 C418 1.497 . S
C420 C421 1.582 . S
C420 H477 0.962 . S
C420 H478 0.959 . S
C420 H479 0.958 . S
C421 C420 1.582 . S
C421 O424 1.458 . S
C421 H450 0.980 . S
O422 C367 1.426 . S
O422 C368 1.334 . S
O423 C395 1.412 . S
O423 C396 1.393 . S
O424 C386 1.435 . S
O424 C421 1.458 . S
O425 C377 1.468 . S
O425 C378 1.408 . S
H426 C367 0.980 . S
H427 C366 0.959 . S
H428 C366 0.959 . S
H429 C366 0.960 . S
H430 C369 0.929 . S
H431 C373 0.929 . S
H432 C374 0.959 . S
H433 C374 0.961 . S
H434 C374 0.961 . S
H435 C375 0.960 . S
H436 C375 0.960 . S
H437 C375 0.961 . S
H438 C377 0.980 . S
H439 C376 0.961 . S
H440 C376 0.960 . S
H441 C376 0.959 . S
H442 C379 0.930 . S
H443 C383 0.931 . S
H444 C384 0.959 . S
H445 C384 0.961 . S
H446 C384 0.959 . S
H447 C385 0.960 . S
H448 C385 0.960 . S
H449 C385 0.960 . S
H450 C421 0.980 . S
H451 C387 0.930 . S
H452 C391 0.930 . S
H453 C392 0.961 . S
H454 C392 0.960 . S
H455 C392 0.958 . S
H456 C393 0.961 . S
H457 C393 0.960 . S
H458 C393 0.960 . S
H459 C395 0.980 . S
H460 C394 0.961 . S
H461 C394 0.961 . S
H462 C394 0.959 . S
H463 C397 0.932 . S
H464 C401 0.929 . S
H465 C402 0.961 . S
H466 C402 0.959 . S
H467 C402 0.959 . S
H468 C403 0.960 . S
H469 C403 0.962 . S
H470 C403 0.961 . S
H471 C405 0.929 . S
H472 C408 0.930 . S
H473 C409 0.929 . S
H474 C412 0.930 . S
H475 C415 0.929 . S
H476 C416 0.930 . S
H477 C420 0.962 . S
H478 C420 0.959 . S
H479 C420 0.958 . S
C480 C481 1.560 . S
C480 H541 0.959 . S
C480 H542 0.959 . S
C480 H543 0.960 . S
C481 C480 1.560 . S
C481 O536 1.426 . S
C481 H540 0.980 . S
C482 C483 1.407 . S
C482 C487 1.418 . S
C482 O536 1.334 . S
C483 C482 1.407 . S
C483 C484 1.360 . S
C483 H544 0.929 . S
C484 C483 1.360 . S
C484 C485 1.401 . S
C484 C488 1.527 . S
C485 C484 1.401 . S
C485 C486 1.405 . S
C485 C518 1.587 . S
C486 C485 1.405 . S
C486 C487 1.332 . S
C486 C489 1.496 . S
C487 C482 1.418 . S
C487 C486 1.332 . S
C487 H545 0.929 . S
C488 C484 1.527 . S
C488 H546 0.959 . S
C488 H547 0.961 . S
C488 H548 0.961 . S
C489 C486 1.496 . S
C489 H549 0.960 . S
C489 H550 0.960 . S
C489 H551 0.961 . S
C490 C491 1.517 . S
C490 H553 0.961 . S
C490 H554 0.960 . S
C490 H555 0.959 . S
C491 C490 1.517 . S
C491 O539 1.468 . S
C491 H552 0.980 . S
C492 C493 1.349 . S
C492 C497 1.367 . S
C492 O539 1.408 . S
C493 C492 1.349 . S
C493 C494 1.407 . S
C493 H556 0.930 . S
C494 C493 1.407 . S
C494 C495 1.449 . S
C494 C498 1.535 . S
C495 C494 1.449 . S
C495 C496 1.384 . S
C495 C520 1.553 . S
C496 C495 1.384 . S
C496 C497 1.364 . S
C496 C499 1.450 . S
C497 C492 1.367 . S
C497 C496 1.364 . S
C497 H557 0.931 . S
C498 C494 1.535 . S
C498 H558 0.959 . S
C498 H559 0.961 . S
C498 H560 0.959 . S
C499 C496 1.450 . S
C499 H561 0.960 . S
C499 H562 0.960 . S
C499 H563 0.960 . S
C500 C501 1.309 . S
C500 C505 1.304 . S
C500 O538 1.435 . S
C501 C500 1.309 . S
C501 C502 1.476 . S
C501 H565 0.930 . S
C502 C501 1.476 . S
C502 C503 1.400 . S
C502 C506 1.567 . S
C503 C502 1.400 . S
C503 C504 1.373 . S
C503 C525 1.432 . S
C504 C503 1.373 . S
C504 C505 1.339 . S
C504 C507 1.530 . S
C505 C500 1.304 . S
C505 C504 1.339 . S
C505 H566 0.930 . S
C506 C502 1.567 . S
C506 H567 0.961 . S
C506 H568 0.960 . S
C506 H569 0.958 . S
C507 C504 1.530 . S
C507 H570 0.961 . S
C507 H571 0.960 . S
C507 H572 0.960 . S
C508 C509 1.530 . S
C508 H574 0.961 . S
C508 H575 0.961 . S
C508 H576 0.959 . S
C509 C508 1.530 . S
C509 O537 1.412 . S
C509 H573 0.980 . S
C510 C511 1.288 . S
C510 C515 1.377 . S
C510 O537 1.393 . S
C511 C510 1.288 . S
C511 C512 1.369 . S
C511 H577 0.932 . S
C512 C511 1.369 . S
C512 C513 1.398 . S
C512 C516 1.527 . S
C513 C512 1.398 . S
C513 C514 1.380 . S
C513 C527 1.497 . S
C514 C513 1.380 . S
C514 C515 1.383 . S
C514 C517 1.603 . S
C515 C510 1.377 . S
C515 C514 1.383 . S
C515 H578 0.929 . S
C516 C512 1.527 . S
C516 H579 0.961 . S
C516 H580 0.959 . S
C516 H581 0.959 . S
C517 C514 1.603 . S
C517 H582 0.960 . S
C517 H583 0.962 . S
C517 H584 0.961 . S
C518 C485 1.587 . S
C518 C519 1.360 . S
C518 C531 1.412 . S
C519 C518 1.360 . S
C519 C520 1.365 . S
C519 H585 0.929 . S
C520 C495 1.553 . S
C520 C519 1.365 . S
C520 C521 1.404 . S
C521 C520 1.404 . S
C521 C522 1.395 . S
C521 C532 1.451 . S
C522 C521 1.395 . S
C522 C523 1.322 . S
C522 H586 0.930 . S
C523 C522 1.322 . S
C523 C524 1.459 . S
C523 H587 0.929 . S
C524 C523 1.459 . S
C524 C525 1.445 . S
C524 C533 1.395 . S
C525 C503 1.432 . S
C525 C524 1.445 . S
C525 C526 1.370 . S
C526 C525 1.370 . S
C526 C527 1.438 . S
C526 H588 0.930 . S
C527 C513 1.497 . S
C527 C526 1.438 . S
C527 C528 1.360 . S
C528 C527 1.360 . S
C528 C529 1.401 . S
C528 C533 1.446 . S
C529 C528 1.401 . S
C529 C530 1.347 . S
C529 H589 0.929 . S
C530 C529 1.347 . S
C530 C531 1.455 . S
C530 H590 0.930 . S
C531 C518 1.412 . S
C531 C530 1.455 . S
C531 C532 1.331 . S
C532 C521 1.451 . S
C532 C531 1.331 . S
C532 C533 1.497 . S
C533 C524 1.395 . S
C533 C528 1.446 . S
C533 C532 1.497 . S
C534 C535 1.582 . S
C534 H591 0.962 . S
C534 H592 0.959 . S
C534 H593 0.958 . S
C535 C534 1.582 . S
C535 O538 1.458 . S
C535 H564 0.980 . S
O536 C481 1.426 . S
O536 C482 1.334 . S
O537 C509 1.412 . S
O537 C510 1.393 . S
O538 C500 1.435 . S
O538 C535 1.458 . S
O539 C491 1.468 . S
O539 C492 1.408 . S
H540 C481 0.980 . S
H541 C480 0.959 . S
H542 C480 0.959 . S
H543 C480 0.960 . S
H544 C483 0.929 . S
H545 C487 0.929 . S
H546 C488 0.959 . S
H547 C488 0.961 . S
H548 C488 0.961 . S
H549 C489 0.960 . S
H550 C489 0.960 . S
H551 C489 0.961 . S
H552 C491 0.980 . S
H553 C490 0.961 . S
H554 C490 0.960 . S
H555 C490 0.959 . S
H556 C493 0.930 . S
H557 C497 0.931 . S
H558 C498 0.959 . S
H559 C498 0.961 . S
H560 C498 0.959 . S
H561 C499 0.960 . S
H562 C499 0.960 . S
H563 C499 0.960 . S
H564 C535 0.980 . S
H565 C501 0.930 . S
H566 C505 0.930 . S
H567 C506 0.961 . S
H568 C506 0.960 . S
H569 C506 0.958 . S
H570 C507 0.961 . S
H571 C507 0.960 . S
H572 C507 0.960 . S
H573 C509 0.980 . S
H574 C508 0.961 . S
H575 C508 0.961 . S
H576 C508 0.959 . S
H577 C511 0.932 . S
H578 C515 0.929 . S
H579 C516 0.961 . S
H580 C516 0.959 . S
H581 C516 0.959 . S
H582 C517 0.960 . S
H583 C517 0.962 . S
H584 C517 0.961 . S
H585 C519 0.929 . S
H586 C522 0.930 . S
H587 C523 0.929 . S
H588 C526 0.930 . S
H589 C529 0.929 . S
H590 C530 0.930 . S
H591 C534 0.962 . S
H592 C534 0.959 . S
H593 C534 0.958 . S
C594 C595 1.560 . S
C594 H655 0.959 . S
C594 H656 0.959 . S
C594 H657 0.960 . S
C595 C594 1.560 . S
C595 O650 1.426 . S
C595 H654 0.980 . S
C596 C597 1.407 . S
C596 C601 1.418 . S
C596 O650 1.334 . S
C597 C596 1.407 . S
C597 C598 1.360 . S
C597 H658 0.929 . S
C598 C597 1.360 . S
C598 C599 1.401 . S
C598 C602 1.527 . S
C599 C598 1.401 . S
C599 C600 1.405 . S
C599 C632 1.587 . S
C600 C599 1.405 . S
C600 C601 1.332 . S
C600 C603 1.496 . S
C601 C596 1.418 . S
C601 C600 1.332 . S
C601 H659 0.929 . S
C602 C598 1.527 . S
C602 H660 0.959 . S
C602 H661 0.961 . S
C602 H662 0.961 . S
C603 C600 1.496 . S
C603 H663 0.960 . S
C603 H664 0.960 . S
C603 H665 0.961 . S
C604 C605 1.517 . S
C604 H667 0.961 . S
C604 H668 0.960 . S
C604 H669 0.959 . S
C605 C604 1.517 . S
C605 O653 1.468 . S
C605 H666 0.980 . S
C606 C607 1.349 . S
C606 C611 1.367 . S
C606 O653 1.408 . S
C607 C606 1.349 . S
C607 C608 1.407 . S
C607 H670 0.930 . S
C608 C607 1.407 . S
C608 C609 1.449 . S
C608 C612 1.535 . S
C609 C608 1.449 . S
C609 C610 1.384 . S
C609 C634 1.553 . S
C610 C609 1.384 . S
C610 C611 1.364 . S
C610 C613 1.450 . S
C611 C606 1.367 . S
C611 C610 1.364 . S
C611 H671 0.931 . S
C612 C608 1.535 . S
C612 H672 0.959 . S
C612 H673 0.961 . S
C612 H674 0.959 . S
C613 C610 1.450 . S
C613 H675 0.960 . S
C613 H676 0.960 . S
C613 H677 0.960 . S
C614 C615 1.309 . S
C614 C619 1.304 . S
C614 O652 1.435 . S
C615 C614 1.309 . S
C615 C616 1.476 . S
C615 H679 0.930 . S
C616 C615 1.476 . S
C616 C617 1.400 . S
C616 C620 1.567 . S
C617 C616 1.400 . S
C617 C618 1.373 . S
C617 C639 1.432 . S
C618 C617 1.373 . S
C618 C619 1.339 . S
C618 C621 1.530 . S
C619 C614 1.304 . S
C619 C618 1.339 . S
C619 H680 0.930 . S
C620 C616 1.567 . S
C620 H681 0.961 . S
C620 H682 0.960 . S
C620 H683 0.958 . S
C621 C618 1.530 . S
C621 H684 0.961 . S
C621 H685 0.960 . S
C621 H686 0.960 . S
C622 C623 1.530 . S
C622 H688 0.961 . S
C622 H689 0.961 . S
C622 H690 0.959 . S
C623 C622 1.530 . S
C623 O651 1.412 . S
C623 H687 0.980 . S
C624 C625 1.288 . S
C624 C629 1.377 . S
C624 O651 1.393 . S
C625 C624 1.288 . S
C625 C626 1.369 . S
C625 H691 0.932 . S
C626 C625 1.369 . S
C626 C627 1.398 . S
C626 C630 1.527 . S
C627 C626 1.398 . S
C627 C628 1.380 . S
C627 C641 1.497 . S
C628 C627 1.380 . S
C628 C629 1.383 . S
C628 C631 1.603 . S
C629 C624 1.377 . S
C629 C628 1.383 . S
C629 H692 0.929 . S
C630 C626 1.527 . S
C630 H693 0.961 . S
C630 H694 0.959 . S
C630 H695 0.959 . S
C631 C628 1.603 . S
C631 H696 0.960 . S
C631 H697 0.962 . S
C631 H698 0.961 . S
C632 C599 1.587 . S
C632 C633 1.360 . S
C632 C645 1.412 . S
C633 C632 1.360 . S
C633 C634 1.365 . S
C633 H699 0.929 . S
C634 C609 1.553 . S
C634 C633 1.365 . S
C634 C635 1.404 . S
C635 C634 1.404 . S
C635 C636 1.395 . S
C635 C646 1.451 . S
C636 C635 1.395 . S
C636 C637 1.322 . S
C636 H700 0.930 . S
C637 C636 1.322 . S
C637 C638 1.459 . S
C637 H701 0.929 . S
C638 C637 1.459 . S
C638 C639 1.445 . S
C638 C647 1.395 . S
C639 C617 1.432 . S
C639 C638 1.445 . S
C639 C640 1.370 . S
C640 C639 1.370 . S
C640 C641 1.438 . S
C640 H702 0.930 . S
C641 C627 1.497 . S
C641 C640 1.438 . S
C641 C642 1.360 . S
C642 C641 1.360 . S
C642 C643 1.401 . S
C642 C647 1.446 . S
C643 C642 1.401 . S
C643 C644 1.347 . S
C643 H703 0.929 . S
C644 C643 1.347 . S
C644 C645 1.455 . S
C644 H704 0.930 . S
C645 C632 1.412 . S
C645 C644 1.455 . S
C645 C646 1.331 . S
C646 C635 1.451 . S
C646 C645 1.331 . S
C646 C647 1.497 . S
C647 C638 1.395 . S
C647 C642 1.446 . S
C647 C646 1.497 . S
C648 C649 1.582 . S
C648 H705 0.962 . S
C648 H706 0.959 . S
C648 H707 0.958 . S
C649 C648 1.582 . S
C649 O652 1.458 . S
C649 H678 0.980 . S
O650 C595 1.426 . S
O650 C596 1.334 . S
O651 C623 1.412 . S
O651 C624 1.393 . S
O652 C614 1.435 . S
O652 C649 1.458 . S
O653 C605 1.468 . S
O653 C606 1.408 . S
H654 C595 0.980 . S
H655 C594 0.959 . S
H656 C594 0.959 . S
H657 C594 0.960 . S
H658 C597 0.929 . S
H659 C601 0.929 . S
H660 C602 0.959 . S
H661 C602 0.961 . S
H662 C602 0.961 . S
H663 C603 0.960 . S
H664 C603 0.960 . S
H665 C603 0.961 . S
H666 C605 0.980 . S
H667 C604 0.961 . S
H668 C604 0.960 . S
H669 C604 0.959 . S
H670 C607 0.930 . S
H671 C611 0.931 . S
H672 C612 0.959 . S
H673 C612 0.961 . S
H674 C612 0.959 . S
H675 C613 0.960 . S
H676 C613 0.960 . S
H677 C613 0.960 . S
H678 C649 0.980 . S
H679 C615 0.930 . S
H680 C619 0.930 . S
H681 C620 0.961 . S
H682 C620 0.960 . S
H683 C620 0.958 . S
H684 C621 0.961 . S
H685 C621 0.960 . S
H686 C621 0.960 . S
H687 C623 0.980 . S
H688 C622 0.961 . S
H689 C622 0.961 . S
H690 C622 0.959 . S
H691 C625 0.932 . S
H692 C629 0.929 . S
H693 C630 0.961 . S
H694 C630 0.959 . S
H695 C630 0.959 . S
H696 C631 0.960 . S
H697 C631 0.962 . S
H698 C631 0.961 . S
H699 C633 0.929 . S
H700 C636 0.930 . S
H701 C637 0.929 . S
H702 C640 0.930 . S
H703 C643 0.929 . S
H704 C644 0.930 . S
H705 C648 0.962 . S
H706 C648 0.959 . S
H707 C648 0.958 . S
C708 C709 1.560 . S
C708 H769 0.959 . S
C708 H770 0.959 . S
C708 H771 0.960 . S
C709 C708 1.560 . S
C709 O764 1.426 . S
C709 H768 0.980 . S
C710 C711 1.407 . S
C710 C715 1.418 . S
C710 O764 1.334 . S
C711 C710 1.407 . S
C711 C712 1.360 . S
C711 H772 0.929 . S
C712 C711 1.360 . S
C712 C713 1.401 . S
C712 C716 1.527 . S
C713 C712 1.401 . S
C713 C714 1.405 . S
C713 C746 1.587 . S
C714 C713 1.405 . S
C714 C715 1.332 . S
C714 C717 1.496 . S
C715 C710 1.418 . S
C715 C714 1.332 . S
C715 H773 0.929 . S
C716 C712 1.527 . S
C716 H774 0.959 . S
C716 H775 0.961 . S
C716 H776 0.961 . S
C717 C714 1.496 . S
C717 H777 0.960 . S
C717 H778 0.960 . S
C717 H779 0.961 . S
C718 C719 1.517 . S
C718 H781 0.961 . S
C718 H782 0.960 . S
C718 H783 0.959 . S
C719 C718 1.517 . S
C719 O767 1.468 . S
C719 H780 0.980 . S
C720 C721 1.349 . S
C720 C725 1.367 . S
C720 O767 1.408 . S
C721 C720 1.349 . S
C721 C722 1.407 . S
C721 H784 0.930 . S
C722 C721 1.407 . S
C722 C723 1.449 . S
C722 C726 1.535 . S
C723 C722 1.449 . S
C723 C724 1.384 . S
C723 C748 1.553 . S
C724 C723 1.384 . S
C724 C725 1.364 . S
C724 C727 1.450 . S
C725 C720 1.367 . S
C725 C724 1.364 . S
C725 H785 0.931 . S
C726 C722 1.535 . S
C726 H786 0.959 . S
C726 H787 0.961 . S
C726 H788 0.959 . S
C727 C724 1.450 . S
C727 H789 0.960 . S
C727 H790 0.960 . S
C727 H791 0.960 . S
C728 C729 1.309 . S
C728 C733 1.304 . S
C728 O766 1.435 . S
C729 C728 1.309 . S
C729 C730 1.476 . S
C729 H793 0.930 . S
C730 C729 1.476 . S
C730 C731 1.400 . S
C730 C734 1.567 . S
C731 C730 1.400 . S
C731 C732 1.373 . S
C731 C753 1.432 . S
C732 C731 1.373 . S
C732 C733 1.339 . S
C732 C735 1.530 . S
C733 C728 1.304 . S
C733 C732 1.339 . S
C733 H794 0.930 . S
C734 C730 1.567 . S
C734 H795 0.961 . S
C734 H796 0.960 . S
C734 H797 0.958 . S
C735 C732 1.530 . S
C735 H798 0.961 . S
C735 H799 0.960 . S
C735 H800 0.960 . S
C736 C737 1.530 . S
C736 H802 0.961 . S
C736 H803 0.961 . S
C736 H804 0.959 . S
C737 C736 1.530 . S
C737 O765 1.412 . S
C737 H801 0.980 . S
C738 C739 1.288 . S
C738 C743 1.377 . S
C738 O765 1.393 . S
C739 C738 1.288 . S
C739 C740 1.369 . S
C739 H805 0.932 . S
C740 C739 1.369 . S
C740 C741 1.398 . S
C740 C744 1.527 . S
C741 C740 1.398 . S
C741 C742 1.380 . S
C741 C755 1.497 . S
C742 C741 1.380 . S
C742 C743 1.383 . S
C742 C745 1.603 . S
C743 C738 1.377 . S
C743 C742 1.383 . S
C743 H806 0.929 . S
C744 C740 1.527 . S
C744 H807 0.961 . S
C744 H808 0.959 . S
C744 H809 0.959 . S
C745 C742 1.603 . S
C745 H810 0.960 . S
C745 H811 0.962 . S
C745 H812 0.961 . S
C746 C713 1.587 . S
C746 C747 1.360 . S
C746 C759 1.412 . S
C747 C746 1.360 . S
C747 C748 1.365 . S
C747 H813 0.929 . S
C748 C723 1.553 . S
C748 C747 1.365 . S
C748 C749 1.404 . S
C749 C748 1.404 . S
C749 C750 1.395 . S
C749 C760 1.451 . S
C750 C749 1.395 . S
C750 C751 1.322 . S
C750 H814 0.930 . S
C751 C750 1.322 . S
C751 C752 1.459 . S
C751 H815 0.929 . S
C752 C751 1.459 . S
C752 C753 1.445 . S
C752 C761 1.395 . S
C753 C731 1.432 . S
C753 C752 1.445 . S
C753 C754 1.370 . S
C754 C753 1.370 . S
C754 C755 1.438 . S
C754 H816 0.930 . S
C755 C741 1.497 . S
C755 C754 1.438 . S
C755 C756 1.360 . S
C756 C755 1.360 . S
C756 C757 1.401 . S
C756 C761 1.446 . S
C757 C756 1.401 . S
C757 C758 1.347 . S
C757 H817 0.929 . S
C758 C757 1.347 . S
C758 C759 1.455 . S
C758 H818 0.930 . S
C759 C746 1.412 . S
C759 C758 1.455 . S
C759 C760 1.331 . S
C760 C749 1.451 . S
C760 C759 1.331 . S
C760 C761 1.497 . S
C761 C752 1.395 . S
C761 C756 1.446 . S
C761 C760 1.497 . S
C762 C763 1.582 . S
C762 H819 0.962 . S
C762 H820 0.959 . S
C762 H821 0.958 . S
C763 C762 1.582 . S
C763 O766 1.458 . S
C763 H792 0.980 . S
O764 C709 1.426 . S
O764 C710 1.334 . S
O765 C737 1.412 . S
O765 C738 1.393 . S
O766 C728 1.435 . S
O766 C763 1.458 . S
O767 C719 1.468 . S
O767 C720 1.408 . S
H768 C709 0.980 . S
H769 C708 0.959 . S
H770 C708 0.959 . S
H771 C708 0.960 . S
H772 C711 0.929 . S
H773 C715 0.929 . S
H774 C716 0.959 . S
H775 C716 0.961 . S
H776 C716 0.961 . S
H777 C717 0.960 . S
H778 C717 0.960 . S
H779 C717 0.961 . S
H780 C719 0.980 . S
H781 C718 0.961 . S
H782 C718 0.960 . S
H783 C718 0.959 . S
H784 C721 0.930 . S
H785 C725 0.931 . S
H786 C726 0.959 . S
H787 C726 0.961 . S
H788 C726 0.959 . S
H789 C727 0.960 . S
H790 C727 0.960 . S
H791 C727 0.960 . S
H792 C763 0.980 . S
H793 C729 0.930 . S
H794 C733 0.930 . S
H795 C734 0.961 . S
H796 C734 0.960 . S
H797 C734 0.958 . S
H798 C735 0.961 . S
H799 C735 0.960 . S
H800 C735 0.960 . S
H801 C737 0.980 . S
H802 C736 0.961 . S
H803 C736 0.961 . S
H804 C736 0.959 . S
H805 C739 0.932 . S
H806 C743 0.929 . S
H807 C744 0.961 . S
H808 C744 0.959 . S
H809 C744 0.959 . S
H810 C745 0.960 . S
H811 C745 0.962 . S
H812 C745 0.961 . S
H813 C747 0.929 . S
H814 C750 0.930 . S
H815 C751 0.929 . S
H816 C754 0.930 . S
H817 C757 0.929 . S
H818 C758 0.930 . S
H819 C762 0.962 . S
H820 C762 0.959 . S
H821 C762 0.958 . S
C822 C823 1.560 . S
C822 H883 0.959 . S
C822 H884 0.959 . S
C822 H885 0.960 . S
C823 C822 1.560 . S
C823 O878 1.426 . S
C823 H882 0.980 . S
C824 C825 1.407 . S
C824 C829 1.418 . S
C824 O878 1.334 . S
C825 C824 1.407 . S
C825 C826 1.360 . S
C825 H886 0.929 . S
C826 C825 1.360 . S
C826 C827 1.401 . S
C826 C830 1.527 . S
C827 C826 1.401 . S
C827 C828 1.405 . S
C827 C860 1.587 . S
C828 C827 1.405 . S
C828 C829 1.332 . S
C828 C831 1.496 . S
C829 C824 1.418 . S
C829 C828 1.332 . S
C829 H887 0.929 . S
C830 C826 1.527 . S
C830 H888 0.959 . S
C830 H889 0.961 . S
C830 H890 0.961 . S
C831 C828 1.496 . S
C831 H891 0.960 . S
C831 H892 0.960 . S
C831 H893 0.961 . S
C832 C833 1.517 . S
C832 H895 0.961 . S
C832 H896 0.960 . S
C832 H897 0.959 . S
C833 C832 1.517 . S
C833 O881 1.468 . S
C833 H894 0.980 . S
C834 C835 1.349 . S
C834 C839 1.367 . S
C834 O881 1.408 . S
C835 C834 1.349 . S
C835 C836 1.407 . S
C835 H898 0.930 . S
C836 C835 1.407 . S
C836 C837 1.449 . S
C836 C840 1.535 . S
C837 C836 1.449 . S
C837 C838 1.384 . S
C837 C862 1.553 . S
C838 C837 1.384 . S
C838 C839 1.364 . S
C838 C841 1.450 . S
C839 C834 1.367 . S
C839 C838 1.364 . S
C839 H899 0.931 . S
C840 C836 1.535 . S
C840 H900 0.959 . S
C840 H901 0.961 . S
C840 H902 0.959 . S
C841 C838 1.450 . S
C841 H903 0.960 . S
C841 H904 0.960 . S
C841 H905 0.960 . S
C842 C843 1.309 . S
C842 C847 1.304 . S
C842 O880 1.435 . S
C843 C842 1.309 . S
C843 C844 1.476 . S
C843 H907 0.930 . S
C844 C843 1.476 . S
C844 C845 1.400 . S
C844 C848 1.567 . S
C845 C844 1.400 . S
C845 C846 1.373 . S
C845 C867 1.432 . S
C846 C845 1.373 . S
C846 C847 1.339 . S
C846 C849 1.530 . S
C847 C842 1.304 . S
C847 C846 1.339 . S
C847 H908 0.930 . S
C848 C844 1.567 . S
C848 H909 0.961 . S
C848 H910 0.960 . S
C848 H911 0.958 . S
C849 C846 1.530 . S
C849 H912 0.961 . S
C849 H913 0.960 . S
C849 H914 0.960 . S
C850 C851 1.530 . S
C850 H916 0.961 . S
C850 H917 0.961 . S
C850 H918 0.959 . S
C851 C850 1.530 . S
C851 O879 1.412 . S
C851 H915 0.980 . S
C852 C853 1.288 . S
C852 C857 1.377 . S
C852 O879 1.393 . S
C853 C852 1.288 . S
C853 C854 1.369 . S
C853 H919 0.932 . S
C854 C853 1.369 . S
C854 C855 1.398 . S
C854 C858 1.527 . S
C855 C854 1.398 . S
C855 C856 1.380 . S
C855 C869 1.497 . S
C856 C855 1.380 . S
C856 C857 1.383 . S
C856 C859 1.603 . S
C857 C852 1.377 . S
C857 C856 1.383 . S
C857 H920 0.929 . S
C858 C854 1.527 . S
C858 H921 0.961 . S
C858 H922 0.959 . S
C858 H923 0.959 . S
C859 C856 1.603 . S
C859 H924 0.960 . S
C859 H925 0.962 . S
C859 H926 0.961 . S
C860 C827 1.587 . S
C860 C861 1.360 . S
C860 C873 1.412 . S
C861 C860 1.360 . S
C861 C862 1.365 . S
C861 H927 0.929 . S
C862 C837 1.553 . S
C862 C861 1.365 . S
C862 C863 1.404 . S
C863 C862 1.404 . S
C863 C864 1.395 . S
C863 C874 1.451 . S
C864 C863 1.395 . S
C864 C865 1.322 . S
C864 H928 0.930 . S
C865 C864 1.322 . S
C865 C866 1.459 . S
C865 H929 0.929 . S
C866 C865 1.459 . S
C866 C867 1.445 . S
C866 C875 1.395 . S
C867 C845 1.432 . S
C867 C866 1.445 . S
C867 C868 1.370 . S
C868 C867 1.370 . S
C868 C869 1.438 . S
C868 H930 0.930 . S
C869 C855 1.497 . S
C869 C868 1.438 . S
C869 C870 1.360 . S
C870 C869 1.360 . S
C870 C871 1.401 . S
C870 C875 1.446 . S
C871 C870 1.401 . S
C871 C872 1.347 . S
C871 H931 0.929 . S
C872 C871 1.347 . S
C872 C873 1.455 . S
C872 H932 0.930 . S
C873 C860 1.412 . S
C873 C872 1.455 . S
C873 C874 1.331 . S
C874 C863 1.451 . S
C874 C873 1.331 . S
C874 C875 1.497 . S
C875 C866 1.395 . S
C875 C870 1.446 . S
C875 C874 1.497 . S
C876 C877 1.582 . S
C876 H933 0.962 . S
C876 H934 0.959 . S
C876 H935 0.958 . S
C877 C876 1.582 . S
C877 O880 1.458 . S
C877 H906 0.980 . S
O878 C823 1.426 . S
O878 C824 1.334 . S
O879 C851 1.412 . S
O879 C852 1.393 . S
O880 C842 1.435 . S
O880 C877 1.458 . S
O881 C833 1.468 . S
O881 C834 1.408 . S
H882 C823 0.980 . S
H883 C822 0.959 . S
H884 C822 0.959 . S
H885 C822 0.960 . S
H886 C825 0.929 . S
H887 C829 0.929 . S
H888 C830 0.959 . S
H889 C830 0.961 . S
H890 C830 0.961 . S
H891 C831 0.960 . S
H892 C831 0.960 . S
H893 C831 0.961 . S
H894 C833 0.980 . S
H895 C832 0.961 . S
H896 C832 0.960 . S
H897 C832 0.959 . S
H898 C835 0.930 . S
H899 C839 0.931 . S
H900 C840 0.959 . S
H901 C840 0.961 . S
H902 C840 0.959 . S
H903 C841 0.960 . S
H904 C841 0.960 . S
H905 C841 0.960 . S
H906 C877 0.980 . S
H907 C843 0.930 . S
H908 C847 0.930 . S
H909 C848 0.961 . S
H910 C848 0.960 . S
H911 C848 0.958 . S
H912 C849 0.961 . S
H913 C849 0.960 . S
H914 C849 0.960 . S
H915 C851 0.980 . S
H916 C850 0.961 . S
H917 C850 0.961 . S
H918 C850 0.959 . S
H919 C853 0.932 . S
H920 C857 0.929 . S
H921 C858 0.961 . S
H922 C858 0.959 . S
H923 C858 0.959 . S
H924 C859 0.960 . S
H925 C859 0.962 . S
H926 C859 0.961 . S
H927 C861 0.929 . S
H928 C864 0.930 . S
H929 C865 0.929 . S
H930 C868 0.930 . S
H931 C871 0.929 . S
H932 C872 0.930 . S
H933 C876 0.962 . S
H934 C876 0.959 . S
H935 C876 0.958 . S
C936 C937 1.560 . S
C936 H997 0.959 . S
C936 H998 0.959 . S
C936 H999 0.960 . S
C937 C936 1.560 . S
C937 O992 1.426 . S
C937 H996 0.980 . S
C938 C939 1.407 . S
C938 C943 1.418 . S
C938 O992 1.334 . S
C939 C938 1.407 . S
C939 C940 1.360 . S
C939 H1000 0.929 . S
C940 C939 1.360 . S
C940 C941 1.401 . S
C940 C944 1.527 . S
C941 C940 1.401 . S
C941 C942 1.405 . S
C941 C974 1.587 . S
C942 C941 1.405 . S
C942 C943 1.332 . S
C942 C945 1.496 . S
C943 C938 1.418 . S
C943 C942 1.332 . S
C943 H1001 0.929 . S
C944 C940 1.527 . S
C944 H1002 0.959 . S
C944 H1003 0.961 . S
C944 H1004 0.961 . S
C945 C942 1.496 . S
C945 H1005 0.960 . S
C945 H1006 0.960 . S
C945 H1007 0.961 . S
C946 C947 1.517 . S
C946 H1009 0.961 . S
C946 H1010 0.960 . S
C946 H1011 0.959 . S
C947 C946 1.517 . S
C947 O995 1.468 . S
C947 H1008 0.980 . S
C948 C949 1.349 . S
C948 C953 1.367 . S
C948 O995 1.408 . S
C949 C948 1.349 . S
C949 C950 1.407 . S
C949 H1012 0.930 . S
C950 C949 1.407 . S
C950 C951 1.449 . S
C950 C954 1.535 . S
C951 C950 1.449 . S
C951 C952 1.384 . S
C951 C976 1.553 . S
C952 C951 1.384 . S
C952 C953 1.364 . S
C952 C955 1.450 . S
C953 C948 1.367 . S
C953 C952 1.364 . S
C953 H1013 0.931 . S
C954 C950 1.535 . S
C954 H1014 0.959 . S
C954 H1015 0.961 . S
C954 H1016 0.959 . S
C955 C952 1.450 . S
C955 H1017 0.960 . S
C955 H1018 0.960 . S
C955 H1019 0.960 . S
C956 C957 1.309 . S
C956 C961 1.304 . S
C956 O994 1.435 . S
C957 C956 1.309 . S
C957 C958 1.476 . S
C957 H1021 0.930 . S
C958 C957 1.476 . S
C958 C959 1.400 . S
C958 C962 1.567 . S
C959 C958 1.400 . S
C959 C960 1.373 . S
C959 C981 1.432 . S
C960 C959 1.373 . S
C960 C961 1.339 . S
C960 C963 1.530 . S
C961 C956 1.304 . S
C961 C960 1.339 . S
C961 H1022 0.930 . S
C962 C958 1.567 . S
C962 H1023 0.961 . S
C962 H1024 0.960 . S
C962 H1025 0.958 . S
C963 C960 1.530 . S
C963 H1026 0.961 . S
C963 H1027 0.960 . S
C963 H1028 0.960 . S
C964 C965 1.530 . S
C964 H1030 0.961 . S
C964 H1031 0.961 . S
C964 H1032 0.959 . S
C965 C964 1.530 . S
C965 O993 1.412 . S
C965 H1029 0.980 . S
C966 C967 1.288 . S
C966 C971 1.377 . S
C966 O993 1.393 . S
C967 C966 1.288 . S
C967 C968 1.369 . S
C967 H1033 0.932 . S
C968 C967 1.369 . S
C968 C969 1.398 . S
C968 C972 1.527 . S
C969 C968 1.398 . S
C969 C970 1.380 . S
C969 C983 1.497 . S
C970 C969 1.380 . S
C970 C971 1.383 . S
C970 C973 1.603 . S
C971 C966 1.377 . S
C971 C970 1.383 . S
C971 H1034 0.929 . S
C972 C968 1.527 . S
C972 H1035 0.961 . S
C972 H1036 0.959 . S
C972 H1037 0.959 . S
C973 C970 1.603 . S
C973 H1038 0.960 . S
C973 H1039 0.962 . S
C973 H1040 0.961 . S
C974 C941 1.587 . S
C974 C975 1.360 . S
C974 C987 1.412 . S
C975 C974 1.360 . S
C975 C976 1.365 . S
C975 H1041 0.929 . S
C976 C951 1.553 . S
C976 C975 1.365 . S
C976 C977 1.404 . S
C977 C976 1.404 . S
C977 C978 1.395 . S
C977 C988 1.451 . S
C978 C977 1.395 . S
C978 C979 1.322 . S
C978 H1042 0.930 . S
C979 C978 1.322 . S
C979 C980 1.459 . S
C979 H1043 0.929 . S
C980 C979 1.459 . S
C980 C981 1.445 . S
C980 C989 1.395 . S
C981 C959 1.432 . S
C981 C980 1.445 . S
C981 C982 1.370 . S
C982 C981 1.370 . S
C982 C983 1.438 . S
C982 H1044 0.930 . S
C983 C969 1.497 . S
C983 C982 1.438 . S
C983 C984 1.360 . S
C984 C983 1.360 . S
C984 C985 1.401 . S
C984 C989 1.446 . S
C985 C984 1.401 . S
C985 C986 1.347 . S
C985 H1045 0.929 . S
C986 C985 1.347 . S
C986 C987 1.455 . S
C986 H1046 0.930 . S
C987 C974 1.412 . S
C987 C986 1.455 . S
C987 C988 1.331 . S
C988 C977 1.451 . S
C988 C987 1.331 . S
C988 C989 1.497 . S
C989 C980 1.395 . S
C989 C984 1.446 . S
C989 C988 1.497 . S
C990 C991 1.582 . S
C990 H1047 0.962 . S
C990 H1048 0.959 . S
C990 H1049 0.958 . S
C991 C990 1.582 . S
C991 O994 1.458 . S
C991 H1020 0.980 . S
O992 C937 1.426 . S
O992 C938 1.334 . S
O993 C965 1.412 . S
O993 C966 1.393 . S
O994 C956 1.435 . S
O994 C991 1.458 . S
O995 C947 1.468 . S
O995 C948 1.408 . S
H996 C937 0.980 . S
H997 C936 0.959 . S
H998 C936 0.959 . S
H999 C936 0.960 . S
H1000 C939 0.929 . S
H1001 C943 0.929 . S
H1002 C944 0.959 . S
H1003 C944 0.961 . S
H1004 C944 0.961 . S
H1005 C945 0.960 . S
H1006 C945 0.960 . S
H1007 C945 0.961 . S
H1008 C947 0.980 . S
H1009 C946 0.961 . S
H1010 C946 0.960 . S
H1011 C946 0.959 . S
H1012 C949 0.930 . S
H1013 C953 0.931 . S
H1014 C954 0.959 . S
H1015 C954 0.961 . S
H1016 C954 0.959 . S
H1017 C955 0.960 . S
H1018 C955 0.960 . S
H1019 C955 0.960 . S
H1020 C991 0.980 . S
H1021 C957 0.930 . S
H1022 C961 0.930 . S
H1023 C962 0.961 . S
H1024 C962 0.960 . S
H1025 C962 0.958 . S
H1026 C963 0.961 . S
H1027 C963 0.960 . S
H1028 C963 0.960 . S
H1029 C965 0.980 . S
H1030 C964 0.961 . S
H1031 C964 0.961 . S
H1032 C964 0.959 . S
H1033 C967 0.932 . S
H1034 C971 0.929 . S
H1035 C972 0.961 . S
H1036 C972 0.959 . S
H1037 C972 0.959 . S
H1038 C973 0.960 . S
H1039 C973 0.962 . S
H1040 C973 0.961 . S
H1041 C975 0.929 . S
H1042 C978 0.930 . S
H1043 C979 0.929 . S
H1044 C982 0.930 . S
H1045 C985 0.929 . S
H1046 C986 0.930 . S
H1047 C990 0.962 . S
H1048 C990 0.959 . S
H1049 C990 0.958 . S
C1050 C1051 1.560 . S
C1050 H1111 0.959 . S
C1050 H1112 0.959 . S
C1050 H1113 0.960 . S
C1051 C1050 1.560 . S
C1051 O1106 1.426 . S
C1051 H1110 0.980 . S
C1052 C1053 1.407 . S
C1052 C1057 1.418 . S
C1052 O1106 1.334 . S
C1053 C1052 1.407 . S
C1053 C1054 1.360 . S
C1053 H1114 0.929 . S
C1054 C1053 1.360 . S
C1054 C1055 1.401 . S
C1054 C1058 1.527 . S
C1055 C1054 1.401 . S
C1055 C1056 1.405 . S
C1055 C1088 1.587 . S
C1056 C1055 1.405 . S
C1056 C1057 1.332 . S
C1056 C1059 1.496 . S
C1057 C1052 1.418 . S
C1057 C1056 1.332 . S
C1057 H1115 0.929 . S
C1058 C1054 1.527 . S
C1058 H1116 0.959 . S
C1058 H1117 0.961 . S
C1058 H1118 0.961 . S
C1059 C1056 1.496 . S
C1059 H1119 0.960 . S
C1059 H1120 0.960 . S
C1059 H1121 0.961 . S
C1060 C1061 1.517 . S
C1060 H1123 0.961 . S
C1060 H1124 0.960 . S
C1060 H1125 0.959 . S
C1061 C1060 1.517 . S
C1061 O1109 1.468 . S
C1061 H1122 0.980 . S
C1062 C1063 1.349 . S
C1062 C1067 1.367 . S
C1062 O1109 1.408 . S
C1063 C1062 1.349 . S
C1063 C1064 1.407 . S
C1063 H1126 0.930 . S
C1064 C1063 1.407 . S
C1064 C1065 1.449 . S
C1064 C1068 1.535 . S
C1065 C1064 1.449 . S
C1065 C1066 1.384 . S
C1065 C1090 1.553 . S
C1066 C1065 1.384 . S
C1066 C1067 1.364 . S
C1066 C1069 1.450 . S
C1067 C1062 1.367 . S
C1067 C1066 1.364 . S
C1067 H1127 0.931 . S
C1068 C1064 1.535 . S
C1068 H1128 0.959 . S
C1068 H1129 0.961 . S
C1068 H1130 0.959 . S
C1069 C1066 1.450 . S
C1069 H1131 0.960 . S
C1069 H1132 0.960 . S
C1069 H1133 0.960 . S
C1070 C1071 1.309 . S
C1070 C1075 1.304 . S
C1070 O1108 1.435 . S
C1071 C1070 1.309 . S
C1071 C1072 1.476 . S
C1071 H1135 0.930 . S
C1072 C1071 1.476 . S
C1072 C1073 1.400 . S
C1072 C1076 1.567 . S
C1073 C1072 1.400 . S
C1073 C1074 1.373 . S
C1073 C1095 1.432 . S
C1074 C1073 1.373 . S
C1074 C1075 1.339 . S
C1074 C1077 1.530 . S
C1075 C1070 1.304 . S
C1075 C1074 1.339 . S
C1075 H1136 0.930 . S
C1076 C1072 1.567 . S
C1076 H1137 0.961 . S
C1076 H1138 0.960 . S
C1076 H1139 0.958 . S
C1077 C1074 1.530 . S
C1077 H1140 0.961 . S
C1077 H1141 0.960 . S
C1077 H1142 0.960 . S
C1078 C1079 1.530 . S
C1078 H1144 0.961 . S
C1078 H1145 0.961 . S
C1078 H1146 0.959 . S
C1079 C1078 1.530 . S
C1079 O1107 1.412 . S
C1079 H1143 0.980 . S
C1080 C1081 1.288 . S
C1080 C1085 1.377 . S
C1080 O1107 1.393 . S
C1081 C1080 1.288 . S
C1081 C1082 1.369 . S
C1081 H1147 0.932 . S
C1082 C1081 1.369 . S
C1082 C1083 1.398 . S
C1082 C1086 1.527 . S
C1083 C1082 1.398 . S
C1083 C1084 1.380 . S
C1083 C1097 1.497 . S
C1084 C1083 1.380 . S
C1084 C1085 1.383 . S
C1084 C1087 1.603 . S
C1085 C1080 1.377 . S
C1085 C1084 1.383 . S
C1085 H1148 0.929 . S
C1086 C1082 1.527 . S
C1086 H1149 0.961 . S
C1086 H1150 0.959 . S
C1086 H1151 0.959 . S
C1087 C1084 1.603 . S
C1087 H1152 0.960 . S
C1087 H1153 0.962 . S
C1087 H1154 0.961 . S
C1088 C1055 1.587 . S
C1088 C1089 1.360 . S
C1088 C1101 1.412 . S
C1089 C1088 1.360 . S
C1089 C1090 1.365 . S
C1089 H1155 0.929 . S
C1090 C1065 1.553 . S
C1090 C1089 1.365 . S
C1090 C1091 1.404 . S
C1091 C1090 1.404 . S
C1091 C1092 1.395 . S
C1091 C1102 1.451 . S
C1092 C1091 1.395 . S
C1092 C1093 1.322 . S
C1092 H1156 0.930 . S
C1093 C1092 1.322 . S
C1093 C1094 1.459 . S
C1093 H1157 0.929 . S
C1094 C1093 1.459 . S
C1094 C1095 1.445 . S
C1094 C1103 1.395 . S
C1095 C1073 1.432 . S
C1095 C1094 1.445 . S
C1095 C1096 1.370 . S
C1096 C1095 1.370 . S
C1096 C1097 1.438 . S
C1096 H1158 0.930 . S
C1097 C1083 1.497 . S
C1097 C1096 1.438 . S
C1097 C1098 1.360 . S
C1098 C1097 1.360 . S
C1098 C1099 1.401 . S
C1098 C1103 1.446 . S
C1099 C1098 1.401 . S
C1099 C1100 1.347 . S
C1099 H1159 0.929 . S
C1100 C1099 1.347 . S
C1100 C1101 1.455 . S
C1100 H1160 0.930 . S
C1101 C1088 1.412 . S
C1101 C1100 1.455 . S
C1101 C1102 1.331 . S
C1102 C1091 1.451 . S
C1102 C1101 1.331 . S
C1102 C1103 1.497 . S
C1103 C1094 1.395 . S
C1103 C1098 1.446 . S
C1103 C1102 1.497 . S
C1104 C1105 1.582 . S
C1104 H1161 0.962 . S
C1104 H1162 0.959 . S
C1104 H1163 0.958 . S
C1105 C1104 1.582 . S
C1105 O1108 1.458 . S
C1105 H1134 0.980 . S
O1106 C1051 1.426 . S
O1106 C1052 1.334 . S
O1107 C1079 1.412 . S
O1107 C1080 1.393 . S
O1108 C1070 1.435 . S
O1108 C1105 1.458 . S
O1109 C1061 1.468 . S
O1109 C1062 1.408 . S
H1110 C1051 0.980 . S
H1111 C1050 0.959 . S
H1112 C1050 0.959 . S
H1113 C1050 0.960 . S
H1114 C1053 0.929 . S
H1115 C1057 0.929 . S
H1116 C1058 0.959 . S
H1117 C1058 0.961 . S
H1118 C1058 0.961 . S
H1119 C1059 0.960 . S
H1120 C1059 0.960 . S
H1121 C1059 0.961 . S
H1122 C1061 0.980 . S
H1123 C1060 0.961 . S
H1124 C1060 0.960 . S
H1125 C1060 0.959 . S
H1126 C1063 0.930 . S
H1127 C1067 0.931 . S
H1128 C1068 0.959 . S
H1129 C1068 0.961 . S
H1130 C1068 0.959 . S
H1131 C1069 0.960 . S
H1132 C1069 0.960 . S
H1133 C1069 0.960 . S
H1134 C1105 0.980 . S
H1135 C1071 0.930 . S
H1136 C1075 0.930 . S
H1137 C1076 0.961 . S
H1138 C1076 0.960 . S
H1139 C1076 0.958 . S
H1140 C1077 0.961 . S
H1141 C1077 0.960 . S
H1142 C1077 0.960 . S
H1143 C1079 0.980 . S
H1144 C1078 0.961 . S
H1145 C1078 0.961 . S
H1146 C1078 0.959 . S
H1147 C1081 0.932 . S
H1148 C1085 0.929 . S
H1149 C1086 0.961 . S
H1150 C1086 0.959 . S
H1151 C1086 0.959 . S
H1152 C1087 0.960 . S
H1153 C1087 0.962 . S
H1154 C1087 0.961 . S
H1155 C1089 0.929 . S
H1156 C1092 0.930 . S
H1157 C1093 0.929 . S
H1158 C1096 0.930 . S
H1159 C1099 0.929 . S
H1160 C1100 0.930 . S
H1161 C1104 0.962 . S
H1162 C1104 0.959 . S
H1163 C1104 0.958 . S
C1164 C1165 1.560 . S
C1164 H1225 0.959 . S
C1164 H1226 0.959 . S
C1164 H1227 0.960 . S
C1165 C1164 1.560 . S
C1165 O1220 1.426 . S
C1165 H1224 0.980 . S
C1166 C1167 1.407 . S
C1166 C1171 1.418 . S
C1166 O1220 1.334 . S
C1167 C1166 1.407 . S
C1167 C1168 1.360 . S
C1167 H1228 0.929 . S
C1168 C1167 1.360 . S
C1168 C1169 1.401 . S
C1168 C1172 1.527 . S
C1169 C1168 1.401 . S
C1169 C1170 1.405 . S
C1169 C1202 1.587 . S
C1170 C1169 1.405 . S
C1170 C1171 1.332 . S
C1170 C1173 1.496 . S
C1171 C1166 1.418 . S
C1171 C1170 1.332 . S
C1171 H1229 0.929 . S
C1172 C1168 1.527 . S
C1172 H1230 0.959 . S
C1172 H1231 0.961 . S
C1172 H1232 0.961 . S
C1173 C1170 1.496 . S
C1173 H1233 0.960 . S
C1173 H1234 0.960 . S
C1173 H1235 0.961 . S
C1174 C1175 1.517 . S
C1174 H1237 0.961 . S
C1174 H1238 0.960 . S
C1174 H1239 0.959 . S
C1175 C1174 1.517 . S
C1175 O1223 1.468 . S
C1175 H1236 0.980 . S
C1176 C1177 1.349 . S
C1176 C1181 1.367 . S
C1176 O1223 1.408 . S
C1177 C1176 1.349 . S
C1177 C1178 1.407 . S
C1177 H1240 0.930 . S
C1178 C1177 1.407 . S
C1178 C1179 1.449 . S
C1178 C1182 1.535 . S
C1179 C1178 1.449 . S
C1179 C1180 1.384 . S
C1179 C1204 1.553 . S
C1180 C1179 1.384 . S
C1180 C1181 1.364 . S
C1180 C1183 1.450 . S
C1181 C1176 1.367 . S
C1181 C1180 1.364 . S
C1181 H1241 0.931 . S
C1182 C1178 1.535 . S
C1182 H1242 0.959 . S
C1182 H1243 0.961 . S
C1182 H1244 0.959 . S
C1183 C1180 1.450 . S
C1183 H1245 0.960 . S
C1183 H1246 0.960 . S
C1183 H1247 0.960 . S
C1184 C1185 1.309 . S
C1184 C1189 1.304 . S
C1184 O1222 1.435 . S
C1185 C1184 1.309 . S
C1185 C1186 1.476 . S
C1185 H1249 0.930 . S
C1186 C1185 1.476 . S
C1186 C1187 1.400 . S
C1186 C1190 1.567 . S
C1187 C1186 1.400 . S
C1187 C1188 1.373 . S
C1187 C1209 1.432 . S
C1188 C1187 1.373 . S
C1188 C1189 1.339 . S
C1188 C1191 1.530 . S
C1189 C1184 1.304 . S
C1189 C1188 1.339 . S
C1189 H1250 0.930 . S
C1190 C1186 1.567 . S
C1190 H1251 0.961 . S
C1190 H1252 0.960 . S
C1190 H1253 0.958 . S
C1191 C1188 1.530 . S
C1191 H1254 0.961 . S
C1191 H1255 0.960 . S
C1191 H1256 0.960 . S
C1192 C1193 1.530 . S
C1192 H1258 0.961 . S
C1192 H1259 0.961 . S
C1192 H1260 0.959 . S
C1193 C1192 1.530 . S
C1193 O1221 1.412 . S
C1193 H1257 0.980 . S
C1194 C1195 1.288 . S
C1194 C1199 1.377 . S
C1194 O1221 1.393 . S
C1195 C1194 1.288 . S
C1195 C1196 1.369 . S
C1195 H1261 0.932 . S
C1196 C1195 1.369 . S
C1196 C1197 1.398 . S
C1196 C1200 1.527 . S
C1197 C1196 1.398 . S
C1197 C1198 1.380 . S
C1197 C1211 1.497 . S
C1198 C1197 1.380 . S
C1198 C1199 1.383 . S
C1198 C1201 1.603 . S
C1199 C1194 1.377 . S
C1199 C1198 1.383 . S
C1199 H1262 0.929 . S
C1200 C1196 1.527 . S
C1200 H1263 0.961 . S
C1200 H1264 0.959 . S
C1200 H1265 0.959 . S
C1201 C1198 1.603 . S
C1201 H1266 0.960 . S
C1201 H1267 0.962 . S
C1201 H1268 0.961 . S
C1202 C1169 1.587 . S
C1202 C1203 1.360 . S
C1202 C1215 1.412 . S
C1203 C1202 1.360 . S
C1203 C1204 1.365 . S
C1203 H1269 0.929 . S
C1204 C1179 1.553 . S
C1204 C1203 1.365 . S
C1204 C1205 1.404 . S
C1205 C1204 1.404 . S
C1205 C1206 1.395 . S
C1205 C1216 1.451 . S
C1206 C1205 1.395 . S
C1206 C1207 1.322 . S
C1206 H1270 0.930 . S
C1207 C1206 1.322 . S
C1207 C1208 1.459 . S
C1207 H1271 0.929 . S
C1208 C1207 1.459 . S
C1208 C1209 1.445 . S
C1208 C1217 1.395 . S
C1209 C1187 1.432 . S
C1209 C1208 1.445 . S
C1209 C1210 1.370 . S
C1210 C1209 1.370 . S
C1210 C1211 1.438 . S
C1210 H1272 0.930 . S
C1211 C1197 1.497 . S
C1211 C1210 1.438 . S
C1211 C1212 1.360 . S
C1212 C1211 1.360 . S
C1212 C1213 1.401 . S
C1212 C1217 1.446 . S
C1213 C1212 1.401 . S
C1213 C1214 1.347 . S
C1213 H1273 0.929 . S
C1214 C1213 1.347 . S
C1214 C1215 1.455 . S
C1214 H1274 0.930 . S
C1215 C1202 1.412 . S
C1215 C1214 1.455 . S
C1215 C1216 1.331 . S
C1216 C1205 1.451 . S
C1216 C1215 1.331 . S
C1216 C1217 1.497 . S
C1217 C1208 1.395 . S
C1217 C1212 1.446 . S
C1217 C1216 1.497 . S
C1218 C1219 1.582 . S
C1218 H1275 0.962 . S
C1218 H1276 0.959 . S
C1218 H1277 0.958 . S
C1219 C1218 1.582 . S
C1219 O1222 1.458 . S
C1219 H1248 0.980 . S
O1220 C1165 1.426 . S
O1220 C1166 1.334 . S
O1221 C1193 1.412 . S
O1221 C1194 1.393 . S
O1222 C1184 1.435 . S
O1222 C1219 1.458 . S
O1223 C1175 1.468 . S
O1223 C1176 1.408 . S
H1224 C1165 0.980 . S
H1225 C1164 0.959 . S
H1226 C1164 0.959 . S
H1227 C1164 0.960 . S
H1228 C1167 0.929 . S
H1229 C1171 0.929 . S
H1230 C1172 0.959 . S
H1231 C1172 0.961 . S
H1232 C1172 0.961 . S
H1233 C1173 0.960 . S
H1234 C1173 0.960 . S
H1235 C1173 0.961 . S
H1236 C1175 0.980 . S
H1237 C1174 0.961 . S
H1238 C1174 0.960 . S
H1239 C1174 0.959 . S
H1240 C1177 0.930 . S
H1241 C1181 0.931 . S
H1242 C1182 0.959 . S
H1243 C1182 0.961 . S
H1244 C1182 0.959 . S
H1245 C1183 0.960 . S
H1246 C1183 0.960 . S
H1247 C1183 0.960 . S
H1248 C1219 0.980 . S
H1249 C1185 0.930 . S
H1250 C1189 0.930 . S
H1251 C1190 0.961 . S
H1252 C1190 0.960 . S
H1253 C1190 0.958 . S
H1254 C1191 0.961 . S
H1255 C1191 0.960 . S
H1256 C1191 0.960 . S
H1257 C1193 0.980 . S
H1258 C1192 0.961 . S
H1259 C1192 0.961 . S
H1260 C1192 0.959 . S
H1261 C1195 0.932 . S
H1262 C1199 0.929 . S
H1263 C1200 0.961 . S
H1264 C1200 0.959 . S
H1265 C1200 0.959 . S
H1266 C1201 0.960 . S
H1267 C1201 0.962 . S
H1268 C1201 0.961 . S
H1269 C1203 0.929 . S
H1270 C1206 0.930 . S
H1271 C1207 0.929 . S
H1272 C1210 0.930 . S
H1273 C1213 0.929 . S
H1274 C1214 0.930 . S
H1275 C1218 0.962 . S
H1276 C1218 0.959 . S
H1277 C1218 0.958 . S
C1278 C1279 1.560 . S
C1278 H1339 0.959 . S
C1278 H1340 0.959 . S
C1278 H1341 0.960 . S
C1279 C1278 1.560 . S
C1279 O1334 1.426 . S
C1279 H1338 0.980 . S
C1280 C1281 1.407 1_455 S
C1280 C1285 1.418 . S
C1280 O1334 1.334 . S
C1281 C1280 1.407 1_655 S
C1281 C1282 1.360 . S
C1281 H1342 0.929 . S
C1282 C1281 1.360 . S
C1282 C1283 1.384 1_655 S
C1282 C1286 1.527 . S
C1283 C1282 1.384 1_455 S
C1283 C1284 1.491 . S
C1283 C1316 1.523 1_455 S
C1284 C1283 1.491 . S
C1284 C1285 1.332 . S
C1284 C1287 1.496 . S
C1285 C1280 1.418 . S
C1285 C1284 1.332 . S
C1285 H1343 0.929 . S
C1286 C1282 1.527 . S
C1286 H1344 0.959 . S
C1286 H1345 0.961 . S
C1286 H1346 0.961 . S
C1287 C1284 1.496 . S
C1287 H1347 0.960 . S
C1287 H1348 0.960 . S
C1287 H1349 0.961 . S
C1288 C1289 1.517 . S
C1288 H1351 0.961 . S
C1288 H1352 0.960 . S
C1288 H1353 0.959 . S
C1289 C1288 1.517 . S
C1289 O1337 1.468 . S
C1289 H1350 0.950 1_655 S
C1290 C1291 1.349 . S
C1290 C1295 1.367 . S
C1290 O1337 1.408 . S
C1291 C1290 1.349 . S
C1291 C1292 1.409 1_655 S
C1291 H1354 0.930 1_655 S
C1292 C1291 1.409 1_455 S
C1292 C1293 1.451 1_455 S
C1292 C1296 1.532 . S
C1293 C1292 1.451 1_655 S
C1293 C1294 1.384 . S
C1293 C1318 1.553 . S
C1294 C1293 1.384 . S
C1294 C1295 1.364 . S
C1294 C1297 1.450 . S
C1295 C1290 1.367 . S
C1295 C1294 1.364 . S
C1295 H1355 0.931 . S
C1296 C1292 1.532 . S
C1296 H1356 0.959 . S
C1296 H1357 0.961 . S
C1296 H1358 0.959 . S
C1297 C1294 1.450 . S
C1297 H1359 0.960 . S
C1297 H1360 0.960 . S
C1297 H1361 0.960 . S
C1298 C1299 1.309 . S
C1298 C1303 1.304 . S
C1298 O1336 1.435 . S
C1299 C1298 1.309 . S
C1299 C1300 1.448 1_655 S
C1299 H1363 0.930 1_655 S
C1300 C1299 1.448 1_455 S
C1300 C1301 1.383 1_455 S
C1300 C1304 1.612 . S
C1301 C1300 1.383 1_655 S
C1301 C1302 1.373 . S
C1301 C1323 1.432 . S
C1302 C1301 1.373 . S
C1302 C1303 1.339 . S
C1302 C1305 1.530 . S
C1303 C1298 1.304 . S
C1303 C1302 1.339 . S
C1303 H1364 0.930 . S
C1304 C1300 1.612 . S
C1304 H1365 0.961 . S
C1304 H1366 0.960 . S
C1304 H1367 0.958 . S
C1305 C1302 1.530 . S
C1305 H1368 0.961 . S
C1305 H1369 0.960 . S
C1305 H1370 0.960 . S
C1306 C1307 1.609 . S
C1306 H1372 0.961 . S
C1306 H1373 0.961 . S
C1306 H1374 0.959 . S
C1307 C1306 1.609 . S
C1307 O1335 1.430 . S
C1307 H1371 0.960 1_455 S
C1308 C1309 1.288 . S
C1308 C1313 1.377 1_455 S
C1308 O1335 1.393 . S
C1309 C1308 1.288 . S
C1309 C1310 1.369 . S
C1309 H1375 0.932 . S
C1310 C1309 1.369 . S
C1310 C1311 1.335 1_455 S
C1310 C1314 1.527 . S
C1311 C1310 1.335 1_655 S
C1311 C1312 1.400 . S
C1311 C1325 1.540 . S
C1312 C1311 1.400 . S
C1312 C1313 1.383 . S
C1312 C1315 1.603 . S
C1313 C1308 1.377 1_655 S
C1313 C1312 1.383 . S
C1313 H1376 0.929 . S
C1314 C1310 1.527 . S
C1314 H1377 0.961 . S
C1314 H1378 0.959 . S
C1314 H1379 0.959 . S
C1315 C1312 1.603 . S
C1315 H1380 0.960 . S
C1315 H1381 0.962 . S
C1315 H1382 0.961 . S
C1316 C1283 1.523 1_655 S
C1316 C1317 1.360 . S
C1316 C1329 1.412 . S
C1317 C1316 1.360 . S
C1317 C1318 1.365 . S
C1317 H1383 0.929 . S
C1318 C1293 1.553 . S
C1318 C1317 1.365 . S
C1318 C1319 1.404 . S
C1319 C1318 1.404 . S
C1319 C1320 1.395 . S
C1319 C1330 1.451 . S
C1320 C1319 1.395 . S
C1320 C1321 1.322 . S
C1320 H1384 0.930 . S
C1321 C1320 1.322 . S
C1321 C1322 1.459 . S
C1321 H1385 0.929 . S
C1322 C1321 1.459 . S
C1322 C1323 1.445 . S
C1322 C1331 1.395 . S
C1323 C1301 1.432 . S
C1323 C1322 1.445 . S
C1323 C1324 1.370 . S
C1324 C1323 1.370 . S
C1324 C1325 1.438 . S
C1324 H1386 0.930 . S
C1325 C1311 1.540 . S
C1325 C1324 1.438 . S
C1325 C1326 1.360 . S
C1326 C1325 1.360 . S
C1326 C1327 1.401 . S
C1326 C1331 1.446 . S
C1327 C1326 1.401 . S
C1327 C1328 1.347 . S
C1327 H1387 0.988 . S
C1328 C1327 1.347 . S
C1328 C1329 1.455 . S
C1328 H1388 0.930 . S
C1329 C1316 1.412 . S
C1329 C1328 1.455 . S
C1329 C1330 1.331 . S
C1330 C1319 1.451 . S
C1330 C1329 1.331 . S
C1330 C1331 1.497 . S
C1331 C1322 1.395 . S
C1331 C1326 1.446 . S
C1331 C1330 1.497 . S
C1332 C1333 1.582 . S
C1332 H1389 0.962 . S
C1332 H1390 0.959 . S
C1332 H1391 0.958 . S
C1333 C1332 1.582 . S
C1333 O1336 1.458 . S
C1333 H1362 0.980 . S
O1334 C1279 1.426 . S
O1334 C1280 1.334 . S
O1335 C1307 1.430 . S
O1335 C1308 1.393 . S
O1336 C1298 1.435 . S
O1336 C1333 1.458 . S
O1337 C1289 1.468 . S
O1337 C1290 1.408 . S
H1338 C1279 0.980 . S
H1339 C1278 0.959 . S
H1340 C1278 0.959 . S
H1341 C1278 0.960 . S
H1342 C1281 0.929 . S
H1343 C1285 0.929 . S
H1344 C1286 0.959 . S
H1345 C1286 0.961 . S
H1346 C1286 0.961 . S
H1347 C1287 0.960 . S
H1348 C1287 0.960 . S
H1349 C1287 0.961 . S
H1350 C1289 0.950 1_455 S
H1351 C1288 0.961 . S
H1352 C1288 0.960 . S
H1353 C1288 0.959 . S
H1354 C1291 0.930 1_455 S
H1355 C1295 0.931 . S
H1356 C1296 0.959 . S
H1357 C1296 0.961 . S
H1358 C1296 0.959 . S
H1359 C1297 0.960 . S
H1360 C1297 0.960 . S
H1361 C1297 0.960 . S
H1362 C1333 0.980 . S
H1363 C1299 0.930 1_455 S
H1364 C1303 0.930 . S
H1365 C1304 0.961 . S
H1366 C1304 0.960 . S
H1367 C1304 0.958 . S
H1368 C1305 0.961 . S
H1369 C1305 0.960 . S
H1370 C1305 0.960 . S
H1371 C1307 0.960 1_655 S
H1372 C1306 0.961 . S
H1373 C1306 0.961 . S
H1374 C1306 0.959 . S
H1375 C1309 0.932 . S
H1376 C1313 0.929 . S
H1377 C1314 0.961 . S
H1378 C1314 0.959 . S
H1379 C1314 0.959 . S
H1380 C1315 0.960 . S
H1381 C1315 0.962 . S
H1382 C1315 0.961 . S
H1383 C1317 0.929 . S
H1384 C1320 0.930 . S
H1385 C1321 0.929 . S
H1386 C1324 0.930 . S
H1387 C1327 0.988 . S
H1388 C1328 0.930 . S
H1389 C1332 0.962 . S
H1390 C1332 0.959 . S
H1391 C1332 0.958 . S
C1392 C1393 1.560 . S
C1392 H1453 0.959 . S
C1392 H1454 0.959 . S
C1392 H1455 0.960 . S
C1393 C1392 1.560 . S
C1393 O1448 1.426 . S
C1393 H1452 0.980 . S
C1394 C1395 1.407 . S
C1394 C1399 1.418 . S
C1394 O1448 1.334 . S
C1395 C1394 1.407 . S
C1395 C1396 1.360 . S
C1395 H1456 0.929 . S
C1396 C1395 1.360 . S
C1396 C1397 1.401 . S
C1396 C1400 1.527 . S
C1397 C1396 1.401 . S
C1397 C1398 1.405 . S
C1397 C1430 1.587 . S
C1398 C1397 1.405 . S
C1398 C1399 1.332 . S
C1398 C1401 1.496 . S
C1399 C1394 1.418 . S
C1399 C1398 1.332 . S
C1399 H1457 0.929 . S
C1400 C1396 1.527 . S
C1400 H1458 0.959 . S
C1400 H1459 0.961 . S
C1400 H1460 0.961 . S
C1401 C1398 1.496 . S
C1401 H1461 0.960 . S
C1401 H1462 0.960 . S
C1401 H1463 0.961 . S
C1402 C1403 1.517 . S
C1402 H1465 0.961 . S
C1402 H1466 0.960 . S
C1402 H1467 0.959 . S
C1403 C1402 1.517 . S
C1403 O1451 1.468 . S
C1403 H1464 0.980 . S
C1404 C1405 1.349 . S
C1404 C1409 1.367 . S
C1404 O1451 1.408 . S
C1405 C1404 1.349 . S
C1405 C1406 1.407 . S
C1405 H1468 0.930 . S
C1406 C1405 1.407 . S
C1406 C1407 1.449 . S
C1406 C1410 1.535 . S
C1407 C1406 1.449 . S
C1407 C1408 1.384 . S
C1407 C1432 1.553 . S
C1408 C1407 1.384 . S
C1408 C1409 1.364 . S
C1408 C1411 1.450 . S
C1409 C1404 1.367 . S
C1409 C1408 1.364 . S
C1409 H1469 0.931 . S
C1410 C1406 1.535 . S
C1410 H1470 0.959 . S
C1410 H1471 0.961 . S
C1410 H1472 0.959 . S
C1411 C1408 1.450 . S
C1411 H1473 0.960 . S
C1411 H1474 0.960 . S
C1411 H1475 0.960 . S
C1412 C1413 1.309 . S
C1412 C1417 1.304 . S
C1412 O1450 1.435 . S
C1413 C1412 1.309 . S
C1413 C1414 1.476 . S
C1413 H1477 0.930 . S
C1414 C1413 1.476 . S
C1414 C1415 1.400 . S
C1414 C1418 1.567 . S
C1415 C1414 1.400 . S
C1415 C1416 1.373 . S
C1415 C1437 1.432 . S
C1416 C1415 1.373 . S
C1416 C1417 1.339 . S
C1416 C1419 1.530 . S
C1417 C1412 1.304 . S
C1417 C1416 1.339 . S
C1417 H1478 0.930 . S
C1418 C1414 1.567 . S
C1418 H1479 0.961 . S
C1418 H1480 0.960 . S
C1418 H1481 0.958 . S
C1419 C1416 1.530 . S
C1419 H1482 0.961 . S
C1419 H1483 0.960 . S
C1419 H1484 0.960 . S
C1420 C1421 1.530 . S
C1420 H1486 0.961 . S
C1420 H1487 0.961 . S
C1420 H1488 0.959 . S
C1421 C1420 1.530 . S
C1421 O1449 1.412 . S
C1421 H1485 0.980 . S
C1422 C1423 1.288 . S
C1422 C1427 1.377 . S
C1422 O1449 1.393 . S
C1423 C1422 1.288 . S
C1423 C1424 1.369 . S
C1423 H1489 0.932 . S
C1424 C1423 1.369 . S
C1424 C1425 1.398 . S
C1424 C1428 1.527 . S
C1425 C1424 1.398 . S
C1425 C1426 1.380 . S
C1425 C1439 1.497 . S
C1426 C1425 1.380 . S
C1426 C1427 1.383 . S
C1426 C1429 1.603 . S
C1427 C1422 1.377 . S
C1427 C1426 1.383 . S
C1427 H1490 0.929 . S
C1428 C1424 1.527 . S
C1428 H1491 0.961 . S
C1428 H1492 0.959 . S
C1428 H1493 0.959 . S
C1429 C1426 1.603 . S
C1429 H1494 0.960 . S
C1429 H1495 0.962 . S
C1429 H1496 0.961 . S
C1430 C1397 1.587 . S
C1430 C1431 1.360 . S
C1430 C1443 1.412 . S
C1431 C1430 1.360 . S
C1431 C1432 1.365 . S
C1431 H1497 0.929 . S
C1432 C1407 1.553 . S
C1432 C1431 1.365 . S
C1432 C1433 1.404 . S
C1433 C1432 1.404 . S
C1433 C1434 1.395 . S
C1433 C1444 1.451 . S
C1434 C1433 1.395 . S
C1434 C1435 1.322 . S
C1434 H1498 0.930 . S
C1435 C1434 1.322 . S
C1435 C1436 1.459 . S
C1435 H1499 0.929 . S
C1436 C1435 1.459 . S
C1436 C1437 1.445 . S
C1436 C1445 1.395 . S
C1437 C1415 1.432 . S
C1437 C1436 1.445 . S
C1437 C1438 1.370 . S
C1438 C1437 1.370 . S
C1438 C1439 1.438 . S
C1438 H1500 0.930 . S
C1439 C1425 1.497 . S
C1439 C1438 1.438 . S
C1439 C1440 1.360 . S
C1440 C1439 1.360 . S
C1440 C1441 1.401 . S
C1440 C1445 1.446 . S
C1441 C1440 1.401 . S
C1441 C1442 1.347 . S
C1441 H1501 0.929 . S
C1442 C1441 1.347 . S
C1442 C1443 1.455 . S
C1442 H1502 0.930 . S
C1443 C1430 1.412 . S
C1443 C1442 1.455 . S
C1443 C1444 1.331 . S
C1444 C1433 1.451 . S
C1444 C1443 1.331 . S
C1444 C1445 1.497 . S
C1445 C1436 1.395 . S
C1445 C1440 1.446 . S
C1445 C1444 1.497 . S
C1446 C1447 1.582 . S
C1446 H1503 0.962 . S
C1446 H1504 0.959 . S
C1446 H1505 0.958 . S
C1447 C1446 1.582 . S
C1447 O1450 1.458 . S
C1447 H1476 0.980 . S
O1448 C1393 1.426 . S
O1448 C1394 1.334 . S
O1449 C1421 1.412 . S
O1449 C1422 1.393 . S
O1450 C1412 1.435 . S
O1450 C1447 1.458 . S
O1451 C1403 1.468 . S
O1451 C1404 1.408 . S
H1452 C1393 0.980 . S
H1453 C1392 0.959 . S
H1454 C1392 0.959 . S
H1455 C1392 0.960 . S
H1456 C1395 0.929 . S
H1457 C1399 0.929 . S
H1458 C1400 0.959 . S
H1459 C1400 0.961 . S
H1460 C1400 0.961 . S
H1461 C1401 0.960 . S
H1462 C1401 0.960 . S
H1463 C1401 0.961 . S
H1464 C1403 0.980 . S
H1465 C1402 0.961 . S
H1466 C1402 0.960 . S
H1467 C1402 0.959 . S
H1468 C1405 0.930 . S
H1469 C1409 0.931 . S
H1470 C1410 0.959 . S
H1471 C1410 0.961 . S
H1472 C1410 0.959 . S
H1473 C1411 0.960 . S
H1474 C1411 0.960 . S
H1475 C1411 0.960 . S
H1476 C1447 0.980 . S
H1477 C1413 0.930 . S
H1478 C1417 0.930 . S
H1479 C1418 0.961 . S
H1480 C1418 0.960 . S
H1481 C1418 0.958 . S
H1482 C1419 0.961 . S
H1483 C1419 0.960 . S
H1484 C1419 0.960 . S
H1485 C1421 0.980 . S
H1486 C1420 0.961 . S
H1487 C1420 0.961 . S
H1488 C1420 0.959 . S
H1489 C1423 0.932 . S
H1490 C1427 0.929 . S
H1491 C1428 0.961 . S
H1492 C1428 0.959 . S
H1493 C1428 0.959 . S
H1494 C1429 0.960 . S
H1495 C1429 0.962 . S
H1496 C1429 0.961 . S
H1497 C1431 0.929 . S
H1498 C1434 0.930 . S
H1499 C1435 0.929 . S
H1500 C1438 0.930 . S
H1501 C1441 0.929 . S
H1502 C1442 0.930 . S
H1503 C1446 0.962 . S
H1504 C1446 0.959 . S
H1505 C1446 0.958 . S
C1506 C1507 1.560 . S
C1506 H1567 0.959 . S
C1506 H1568 0.959 . S
C1506 H1569 0.960 . S
C1507 C1506 1.560 . S
C1507 O1562 1.426 . S
C1507 H1566 0.980 . S
C1508 C1509 1.407 1_565 S
C1508 C1513 1.418 . S
C1508 O1562 1.334 . S
C1509 C1508 1.407 1_545 S
C1509 C1510 1.360 . S
C1509 H1570 0.929 . S
C1510 C1509 1.360 . S
C1510 C1511 1.401 1_545 S
C1510 C1514 1.527 . S
C1511 C1510 1.401 1_565 S
C1511 C1512 1.405 . S
C1511 C1544 1.587 1_565 S
C1512 C1511 1.405 . S
C1512 C1513 1.332 . S
C1512 C1515 1.496 . S
C1513 C1508 1.418 . S
C1513 C1512 1.332 . S
C1513 H1571 0.929 . S
C1514 C1510 1.527 . S
C1514 H1572 0.959 . S
C1514 H1573 0.961 . S
C1514 H1574 0.961 . S
C1515 C1512 1.496 . S
C1515 H1575 0.960 . S
C1515 H1576 0.960 . S
C1515 H1577 0.961 . S
C1516 C1517 1.517 . S
C1516 H1579 0.923 1_545 S
C1516 H1580 0.960 . S
C1516 H1581 0.959 . S
C1517 C1516 1.517 . S
C1517 O1565 1.468 . S
C1517 H1578 0.980 1_545 S
C1518 C1519 1.406 . S
C1518 C1523 1.367 . S
C1518 O1565 1.408 . S
C1519 C1518 1.406 . S
C1519 C1520 1.441 1_545 S
C1519 H1582 0.842 1_545 S
C1520 C1519 1.441 1_565 S
C1520 C1521 1.449 1_565 S
C1520 C1524 1.535 . S
C1521 C1520 1.449 1_545 S
C1521 C1522 1.384 . S
C1521 C1546 1.553 . S
C1522 C1521 1.384 . S
C1522 C1523 1.364 . S
C1522 C1525 1.450 . S
C1523 C1518 1.367 . S
C1523 C1522 1.364 . S
C1523 H1583 0.931 . S
C1524 C1520 1.535 . S
C1524 H1584 0.959 . S
C1524 H1585 0.961 . S
C1524 H1586 0.959 . S
C1525 C1522 1.450 . S
C1525 H1587 0.960 . S
C1525 H1588 0.960 . S
C1525 H1589 0.960 . S
C1526 C1527 1.309 . S
C1526 C1531 1.304 . S
C1526 O1564 1.435 . S
C1527 C1526 1.309 . S
C1527 C1528 1.482 1_545 S
C1527 H1591 0.930 1_545 S
C1528 C1527 1.482 1_565 S
C1528 C1529 1.377 1_565 S
C1528 C1532 1.583 . S
C1529 C1528 1.377 1_545 S
C1529 C1530 1.373 . S
C1529 C1551 1.432 . S
C1530 C1529 1.373 . S
C1530 C1531 1.339 . S
C1530 C1533 1.530 . S
C1531 C1526 1.304 . S
C1531 C1530 1.339 . S
C1531 H1592 0.930 . S
C1532 C1528 1.583 . S
C1532 H1593 0.961 . S
C1532 H1594 0.960 . S
C1532 H1595 0.958 . S
C1533 C1530 1.530 . S
C1533 H1596 0.961 . S
C1533 H1597 0.960 . S
C1533 H1598 0.960 . S
C1534 C1535 1.521 1_565 S
C1534 H1600 0.961 . S
C1534 H1601 0.961 . S
C1534 H1602 0.959 . S
C1535 C1534 1.521 1_545 S
C1535 O1563 1.327 1_545 S
C1535 H1599 1.025 . S
C1536 C1537 1.288 . S
C1536 C1541 1.377 1_565 S
C1536 O1563 1.393 . S
C1537 C1536 1.288 . S
C1537 C1538 1.369 . S
C1537 H1603 0.932 . S
C1538 C1537 1.369 . S
C1538 C1539 1.398 1_565 S
C1538 C1542 1.527 . S
C1539 C1538 1.398 1_545 S
C1539 C1540 1.380 . S
C1539 C1553 1.497 . S
C1540 C1539 1.380 . S
C1540 C1541 1.383 . S
C1540 C1543 1.603 . S
C1541 C1536 1.377 1_545 S
C1541 C1540 1.383 . S
C1541 H1604 0.929 . S
C1542 C1538 1.527 . S
C1542 H1605 0.961 . S
C1542 H1606 0.959 . S
C1542 H1607 0.959 . S
C1543 C1540 1.603 . S
C1543 H1608 0.960 . S
C1543 H1609 0.962 . S
C1543 H1610 0.961 . S
C1544 C1511 1.587 1_545 S
C1544 C1545 1.360 . S
C1544 C1557 1.412 . S
C1545 C1544 1.360 . S
C1545 C1546 1.365 . S
C1545 H1611 0.929 . S
C1546 C1521 1.553 . S
C1546 C1545 1.365 . S
C1546 C1547 1.404 . S
C1547 C1546 1.404 . S
C1547 C1548 1.395 . S
C1547 C1558 1.451 . S
C1548 C1547 1.395 . S
C1548 C1549 1.322 . S
C1548 H1612 0.930 . S
C1549 C1548 1.322 . S
C1549 C1550 1.459 . S
C1549 H1613 0.929 . S
C1550 C1549 1.459 . S
C1550 C1551 1.445 . S
C1550 C1559 1.395 . S
C1551 C1529 1.432 . S
C1551 C1550 1.445 . S
C1551 C1552 1.370 . S
C1552 C1551 1.370 . S
C1552 C1553 1.438 . S
C1552 H1614 0.930 . S
C1553 C1539 1.497 . S
C1553 C1552 1.438 . S
C1553 C1554 1.360 . S
C1554 C1553 1.360 . S
C1554 C1555 1.401 . S
C1554 C1559 1.446 . S
C1555 C1554 1.401 . S
C1555 C1556 1.347 . S
C1555 H1615 0.929 . S
C1556 C1555 1.347 . S
C1556 C1557 1.455 . S
C1556 H1616 0.930 . S
C1557 C1544 1.412 . S
C1557 C1556 1.455 . S
C1557 C1558 1.331 . S
C1558 C1547 1.451 . S
C1558 C1557 1.331 . S
C1558 C1559 1.497 . S
C1559 C1550 1.395 . S
C1559 C1554 1.446 . S
C1559 C1558 1.497 . S
C1560 C1561 1.582 . S
C1560 H1617 0.962 . S
C1560 H1618 0.959 . S
C1560 H1619 0.958 . S
C1561 C1560 1.582 . S
C1561 O1564 1.458 . S
C1561 H1590 0.980 . S
O1562 C1507 1.426 . S
O1562 C1508 1.334 . S
O1563 C1535 1.327 1_565 S
O1563 C1536 1.393 . S
O1564 C1526 1.435 . S
O1564 C1561 1.458 . S
O1565 C1517 1.468 . S
O1565 C1518 1.408 . S
H1566 C1507 0.980 . S
H1567 C1506 0.959 . S
H1568 C1506 0.959 . S
H1569 C1506 0.960 . S
H1570 C1509 0.929 . S
H1571 C1513 0.929 . S
H1572 C1514 0.959 . S
H1573 C1514 0.961 . S
H1574 C1514 0.961 . S
H1575 C1515 0.960 . S
H1576 C1515 0.960 . S
H1577 C1515 0.961 . S
H1578 C1517 0.980 1_565 S
H1579 C1516 0.923 1_565 S
H1580 C1516 0.960 . S
H1581 C1516 0.959 . S
H1582 C1519 0.842 1_565 S
H1583 C1523 0.931 . S
H1584 C1524 0.959 . S
H1585 C1524 0.961 . S
H1586 C1524 0.959 . S
H1587 C1525 0.960 . S
H1588 C1525 0.960 . S
H1589 C1525 0.960 . S
H1590 C1561 0.980 . S
H1591 C1527 0.930 1_565 S
H1592 C1531 0.930 . S
H1593 C1532 0.961 . S
H1594 C1532 0.960 . S
H1595 C1532 0.958 . S
H1596 C1533 0.961 . S
H1597 C1533 0.960 . S
H1598 C1533 0.960 . S
H1599 C1535 1.025 . S
H1600 C1534 0.961 . S
H1601 C1534 0.961 . S
H1602 C1534 0.959 . S
H1603 C1537 0.932 . S
H1604 C1541 0.929 . S
H1605 C1542 0.961 . S
H1606 C1542 0.959 . S
H1607 C1542 0.959 . S
H1608 C1543 0.960 . S
H1609 C1543 0.962 . S
H1610 C1543 0.961 . S
H1611 C1545 0.929 . S
H1612 C1548 0.930 . S
H1613 C1549 0.929 . S
H1614 C1552 0.930 . S
H1615 C1555 0.929 . S
H1616 C1556 0.930 . S
H1617 C1560 0.962 . S
H1618 C1560 0.959 . S
H1619 C1560 0.958 . S
C1620 C1621 1.560 . S
C1620 H1681 0.959 . S
C1620 H1682 0.959 . S
C1620 H1683 0.960 . S
C1621 C1620 1.560 . S
C1621 O1676 1.426 . S
C1621 H1680 0.980 1_565 S
C1622 C1623 1.407 1_565 S
C1622 C1627 1.418 . S
C1622 O1676 1.334 . S
C1623 C1622 1.407 1_545 S
C1623 C1624 1.360 . S
C1623 H1684 0.929 . S
C1624 C1623 1.360 . S
C1624 C1625 1.401 . S
C1624 C1628 1.527 . S
C1625 C1624 1.401 . S
C1625 C1626 1.405 1_545 S
C1625 C1658 1.587 . S
C1626 C1625 1.405 1_565 S
C1626 C1627 1.332 . S
C1626 C1629 1.496 . S
C1627 C1622 1.418 . S
C1627 C1626 1.332 . S
C1627 H1685 0.929 . S
C1628 C1624 1.527 . S
C1628 H1686 0.959 . S
C1628 H1687 0.961 . S
C1628 H1688 0.961 . S
C1629 C1626 1.496 . S
C1629 H1689 0.960 . S
C1629 H1690 0.960 . S
C1629 H1691 0.961 . S
C1630 C1631 1.517 . S
C1630 H1693 0.961 . S
C1630 H1694 0.960 . S
C1630 H1695 0.959 . S
C1631 C1630 1.517 . S
C1631 O1679 1.468 . S
C1631 H1692 0.980 . S
C1632 C1633 1.349 . S
C1632 C1637 1.367 . S
C1632 O1679 1.408 . S
C1633 C1632 1.349 . S
C1633 C1634 1.407 . S
C1633 H1696 0.910 1_545 S
C1634 C1633 1.407 . S
C1634 C1635 1.449 . S
C1634 C1638 1.535 1_545 S
C1635 C1634 1.449 . S
C1635 C1636 1.384 . S
C1635 C1660 1.553 . S
C1636 C1635 1.384 . S
C1636 C1637 1.364 . S
C1636 C1639 1.450 . S
C1637 C1632 1.367 . S
C1637 C1636 1.364 . S
C1637 H1697 0.931 . S
C1638 C1634 1.535 1_565 S
C1638 H1698 0.959 . S
C1638 H1699 0.961 . S
C1638 H1700 0.959 . S
C1639 C1636 1.450 . S
C1639 H1701 0.960 . S
C1639 H1702 0.960 . S
C1639 H1703 0.960 . S
C1640 C1641 1.309 1_545 S
C1640 C1645 1.304 . S
C1640 O1678 1.435 . S
C1641 C1640 1.309 1_565 S
C1641 C1642 1.476 . S
C1641 H1705 0.930 . S
C1642 C1641 1.476 . S
C1642 C1643 1.400 1_565 S
C1642 C1646 1.567 . S
C1643 C1642 1.400 1_545 S
C1643 C1644 1.373 . S
C1643 C1665 1.432 . S
C1644 C1643 1.373 . S
C1644 C1645 1.339 . S
C1644 C1647 1.530 . S
C1645 C1640 1.304 . S
C1645 C1644 1.339 . S
C1645 H1706 0.930 . S
C1646 C1642 1.567 . S
C1646 H1707 0.961 . S
C1646 H1708 0.960 . S
C1646 H1709 0.958 . S
C1647 C1644 1.530 . S
C1647 H1710 0.961 . S
C1647 H1711 0.960 . S
C1647 H1712 0.960 . S
C1648 C1649 1.530 . S
C1648 H1714 0.961 . S
C1648 H1715 0.961 . S
C1648 H1716 0.959 . S
C1649 C1648 1.530 . S
C1649 O1677 1.412 . S
C1649 H1713 0.980 1_565 S
C1650 C1651 1.288 . S
C1650 C1655 1.377 1_565 S
C1650 O1677 1.393 . S
C1651 C1650 1.288 . S
C1651 C1652 1.369 . S
C1651 H1717 0.932 . S
C1652 C1651 1.369 . S
C1652 C1653 1.398 . S
C1652 C1656 1.527 . S
C1653 C1652 1.398 . S
C1653 C1654 1.380 1_565 S
C1653 C1667 1.497 1_565 S
C1654 C1653 1.380 1_545 S
C1654 C1655 1.383 . S
C1654 C1657 1.603 . S
C1655 C1650 1.377 1_545 S
C1655 C1654 1.383 . S
C1655 H1718 0.929 . S
C1656 C1652 1.527 . S
C1656 H1719 0.961 . S
C1656 H1720 0.959 . S
C1656 H1721 0.959 . S
C1657 C1654 1.603 . S
C1657 H1722 0.960 . S
C1657 H1723 0.962 . S
C1657 H1724 0.961 . S
C1658 C1625 1.587 . S
C1658 C1659 1.360 . S
C1658 C1671 1.412 . S
C1659 C1658 1.360 . S
C1659 C1660 1.365 . S
C1659 H1725 0.929 . S
C1660 C1635 1.553 . S
C1660 C1659 1.365 . S
C1660 C1661 1.404 . S
C1661 C1660 1.404 . S
C1661 C1662 1.395 . S
C1661 C1672 1.451 . S
C1662 C1661 1.395 . S
C1662 C1663 1.322 . S
C1662 H1726 0.930 . S
C1663 C1662 1.322 . S
C1663 C1664 1.459 . S
C1663 H1727 0.929 . S
C1664 C1663 1.459 . S
C1664 C1665 1.445 . S
C1664 C1673 1.395 . S
C1665 C1643 1.432 . S
C1665 C1664 1.445 . S
C1665 C1666 1.370 . S
C1666 C1665 1.370 . S
C1666 C1667 1.438 . S
C1666 H1728 0.930 . S
C1667 C1653 1.497 1_545 S
C1667 C1666 1.438 . S
C1667 C1668 1.360 . S
C1668 C1667 1.360 . S
C1668 C1669 1.401 . S
C1668 C1673 1.446 . S
C1669 C1668 1.401 . S
C1669 C1670 1.347 . S
C1669 H1729 0.981 . S
C1670 C1669 1.347 . S
C1670 C1671 1.455 . S
C1670 H1730 0.930 . S
C1671 C1658 1.412 . S
C1671 C1670 1.455 . S
C1671 C1672 1.331 . S
C1672 C1661 1.451 . S
C1672 C1671 1.331 . S
C1672 C1673 1.497 . S
C1673 C1664 1.395 . S
C1673 C1668 1.446 . S
C1673 C1672 1.497 . S
C1674 C1675 1.629 . S
C1674 H1731 0.962 . S
C1674 H1732 0.959 . S
C1674 H1733 0.958 . S
C1675 C1674 1.629 . S
C1675 O1678 1.478 . S
C1675 H1704 0.981 1_545 S
O1676 C1621 1.426 . S
O1676 C1622 1.334 . S
O1677 C1649 1.412 . S
O1677 C1650 1.393 . S
O1678 C1640 1.435 . S
O1678 C1675 1.478 . S
O1679 C1631 1.468 . S
O1679 C1632 1.408 . S
H1680 C1621 0.980 1_545 S
H1681 C1620 0.959 . S
H1682 C1620 0.959 . S
H1683 C1620 0.960 . S
H1684 C1623 0.929 . S
H1685 C1627 0.929 . S
H1686 C1628 0.959 . S
H1687 C1628 0.961 . S
H1688 C1628 0.961 . S
H1689 C1629 0.960 . S
H1690 C1629 0.960 . S
H1691 C1629 0.961 . S
H1692 C1631 0.980 . S
H1693 C1630 0.961 . S
H1694 C1630 0.960 . S
H1695 C1630 0.959 . S
H1696 C1633 0.910 1_565 S
H1697 C1637 0.931 . S
H1698 C1638 0.959 . S
H1699 C1638 0.961 . S
H1700 C1638 0.959 . S
H1701 C1639 0.960 . S
H1702 C1639 0.960 . S
H1703 C1639 0.960 . S
H1704 C1675 0.981 1_565 S
H1705 C1641 0.930 . S
H1706 C1645 0.930 . S
H1707 C1646 0.961 . S
H1708 C1646 0.960 . S
H1709 C1646 0.958 . S
H1710 C1647 0.961 . S
H1711 C1647 0.960 . S
H1712 C1647 0.960 . S
H1713 C1649 0.980 1_545 S
H1714 C1648 0.961 . S
H1715 C1648 0.961 . S
H1716 C1648 0.959 . S
H1717 C1651 0.932 . S
H1718 C1655 0.929 . S
H1719 C1656 0.961 . S
H1720 C1656 0.959 . S
H1721 C1656 0.959 . S
H1722 C1657 0.960 . S
H1723 C1657 0.962 . S
H1724 C1657 0.961 . S
H1725 C1659 0.929 . S
H1726 C1662 0.930 . S
H1727 C1663 0.929 . S
H1728 C1666 0.930 . S
H1729 C1669 0.981 . S
H1730 C1670 0.930 . S
H1731 C1674 0.962 . S
H1732 C1674 0.959 . S
H1733 C1674 0.958 . S
C1734 C1735 1.560 . S
C1734 H1795 0.959 . S
C1734 H1796 0.959 . S
C1734 H1797 0.960 . S
C1735 C1734 1.560 . S
C1735 O1790 1.426 . S
C1735 H1794 0.980 1_455 S
C1736 C1737 1.407 1_455 S
C1736 C1741 1.418 . S
C1736 O1790 1.334 . S
C1737 C1736 1.407 1_655 S
C1737 C1738 1.360 . S
C1737 H1798 0.929 . S
C1738 C1737 1.360 . S
C1738 C1739 1.401 . S
C1738 C1742 1.527 . S
C1739 C1738 1.401 . S
C1739 C1740 1.405 1_655 S
C1739 C1772 1.587 . S
C1740 C1739 1.405 1_455 S
C1740 C1741 1.332 . S
C1740 C1743 1.496 . S
C1741 C1736 1.418 . S
C1741 C1740 1.332 . S
C1741 H1799 0.929 . S
C1742 C1738 1.527 . S
C1742 H1800 0.959 . S
C1742 H1801 0.961 . S
C1742 H1802 0.961 . S
C1743 C1740 1.496 . S
C1743 H1803 0.960 . S
C1743 H1804 0.960 . S
C1743 H1805 0.961 . S
C1744 C1745 1.517 . S
C1744 H1807 0.961 . S
C1744 H1808 0.960 . S
C1744 H1809 0.959 . S
C1745 C1744 1.517 . S
C1745 O1793 1.468 . S
C1745 H1806 0.980 . S
C1746 C1747 1.349 . S
C1746 C1751 1.367 . S
C1746 O1793 1.408 . S
C1747 C1746 1.349 . S
C1747 C1748 1.407 . S
C1747 H1810 0.878 1_655 S
C1748 C1747 1.407 . S
C1748 C1749 1.449 . S
C1748 C1752 1.535 1_655 S
C1749 C1748 1.449 . S
C1749 C1750 1.384 . S
C1749 C1774 1.553 . S
C1750 C1749 1.384 . S
C1750 C1751 1.364 . S
C1750 C1753 1.450 . S
C1751 C1746 1.367 . S
C1751 C1750 1.364 . S
C1751 H1811 0.931 . S
C1752 C1748 1.535 1_455 S
C1752 H1812 0.959 . S
C1752 H1813 0.961 . S
C1752 H1814 0.959 . S
C1753 C1750 1.450 . S
C1753 H1815 0.960 . S
C1753 H1816 0.960 . S
C1753 H1817 0.960 . S
C1754 C1755 1.309 1_655 S
C1754 C1759 1.304 . S
C1754 O1792 1.435 . S
C1755 C1754 1.309 1_455 S
C1755 C1756 1.476 . S
C1755 H1819 0.930 . S
C1756 C1755 1.476 . S
C1756 C1757 1.400 1_455 S
C1756 C1760 1.567 . S
C1757 C1756 1.400 1_655 S
C1757 C1758 1.373 . S
C1757 C1779 1.432 . S
C1758 C1757 1.373 . S
C1758 C1759 1.339 . S
C1758 C1761 1.530 . S
C1759 C1754 1.304 . S
C1759 C1758 1.339 . S
C1759 H1820 0.930 . S
C1760 C1756 1.567 . S
C1760 H1821 0.961 . S
C1760 H1822 0.960 . S
C1760 H1823 0.958 . S
C1761 C1758 1.530 . S
C1761 H1824 0.961 . S
C1761 H1825 0.960 . S
C1761 H1826 0.960 . S
C1762 C1763 1.530 . S
C1762 H1828 0.961 . S
C1762 H1829 0.961 . S
C1762 H1830 0.959 . S
C1763 C1762 1.530 . S
C1763 O1791 1.412 . S
C1763 H1827 0.961 1_455 S
C1764 C1765 1.288 . S
C1764 C1769 1.377 1_455 S
C1764 O1791 1.393 . S
C1765 C1764 1.288 . S
C1765 C1766 1.369 . S
C1765 H1831 0.932 . S
C1766 C1765 1.369 . S
C1766 C1767 1.398 . S
C1766 C1770 1.527 . S
C1767 C1766 1.398 . S
C1767 C1768 1.380 1_455 S
C1767 C1781 1.497 1_455 S
C1768 C1767 1.380 1_655 S
C1768 C1769 1.383 . S
C1768 C1771 1.603 . S
C1769 C1764 1.377 1_655 S
C1769 C1768 1.383 . S
C1769 H1832 0.929 . S
C1770 C1766 1.527 . S
C1770 H1833 0.961 . S
C1770 H1834 0.959 . S
C1770 H1835 0.959 . S
C1771 C1768 1.603 . S
C1771 H1836 0.960 . S
C1771 H1837 0.962 . S
C1771 H1838 0.961 . S
C1772 C1739 1.587 . S
C1772 C1773 1.360 . S
C1772 C1785 1.412 . S
C1773 C1772 1.360 . S
C1773 C1774 1.365 . S
C1773 H1839 0.929 . S
C1774 C1749 1.553 . S
C1774 C1773 1.365 . S
C1774 C1775 1.404 . S
C1775 C1774 1.404 . S
C1775 C1776 1.395 . S
C1775 C1786 1.451 . S
C1776 C1775 1.395 . S
C1776 C1777 1.322 . S
C1776 H1840 0.930 . S
C1777 C1776 1.322 . S
C1777 C1778 1.459 . S
C1777 H1841 0.929 . S
C1778 C1777 1.459 . S
C1778 C1779 1.445 . S
C1778 C1787 1.395 . S
C1779 C1757 1.432 . S
C1779 C1778 1.445 . S
C1779 C1780 1.370 . S
C1780 C1779 1.370 . S
C1780 C1781 1.438 . S
C1780 H1842 0.930 . S
C1781 C1767 1.497 1_655 S
C1781 C1780 1.438 . S
C1781 C1782 1.360 . S
C1782 C1781 1.360 . S
C1782 C1783 1.401 . S
C1782 C1787 1.446 . S
C1783 C1782 1.401 . S
C1783 C1784 1.347 . S
C1783 H1843 0.929 . S
C1784 C1783 1.347 . S
C1784 C1785 1.455 . S
C1784 H1844 0.930 . S
C1785 C1772 1.412 . S
C1785 C1784 1.455 . S
C1785 C1786 1.331 . S
C1786 C1775 1.451 . S
C1786 C1785 1.331 . S
C1786 C1787 1.497 . S
C1787 C1778 1.395 . S
C1787 C1782 1.446 . S
C1787 C1786 1.497 . S
C1788 C1789 1.581 1_655 S
C1788 H1845 0.962 . S
C1788 H1846 0.959 . S
C1788 H1847 0.958 . S
C1789 C1788 1.581 1_455 S
C1789 O1792 1.403 1_455 S
C1789 H1818 1.004 . S
O1790 C1735 1.426 . S
O1790 C1736 1.334 . S
O1791 C1763 1.412 . S
O1791 C1764 1.393 . S
O1792 C1754 1.435 . S
O1792 C1789 1.403 1_655 S
O1793 C1745 1.468 . S
O1793 C1746 1.408 . S
H1794 C1735 0.980 1_655 S
H1795 C1734 0.959 . S
H1796 C1734 0.959 . S
H1797 C1734 0.960 . S
H1798 C1737 0.929 . S
H1799 C1741 0.929 . S
H1800 C1742 0.959 . S
H1801 C1742 0.961 . S
H1802 C1742 0.961 . S
H1803 C1743 0.960 . S
H1804 C1743 0.960 . S
H1805 C1743 0.961 . S
H1806 C1745 0.980 . S
H1807 C1744 0.961 . S
H1808 C1744 0.960 . S
H1809 C1744 0.959 . S
H1810 C1747 0.878 1_455 S
H1811 C1751 0.931 . S
H1812 C1752 0.959 . S
H1813 C1752 0.961 . S
H1814 C1752 0.959 . S
H1815 C1753 0.960 . S
H1816 C1753 0.960 . S
H1817 C1753 0.960 . S
H1818 C1789 1.004 . S
H1819 C1755 0.930 . S
H1820 C1759 0.930 . S
H1821 C1760 0.961 . S
H1822 C1760 0.960 . S
H1823 C1760 0.958 . S
H1824 C1761 0.961 . S
H1825 C1761 0.960 . S
H1826 C1761 0.960 . S
H1827 C1763 0.961 1_655 S
H1828 C1762 0.961 . S
H1829 C1762 0.961 . S
H1830 C1762 0.959 . S
H1831 C1765 0.932 . S
H1832 C1769 0.929 . S
H1833 C1770 0.961 . S
H1834 C1770 0.959 . S
H1835 C1770 0.959 . S
H1836 C1771 0.960 . S
H1837 C1771 0.962 . S
H1838 C1771 0.961 . S
H1839 C1773 0.929 . S
H1840 C1776 0.930 . S
H1841 C1777 0.929 . S
H1842 C1780 0.930 . S
H1843 C1783 0.929 . S
H1844 C1784 0.930 . S
H1845 C1788 0.962 . S
H1846 C1788 0.959 . S
H1847 C1788 0.958 . S
C1848 C1849 1.560 . S
C1848 H1909 0.959 . S
C1848 H1910 0.959 . S
C1848 H1911 0.960 . S
C1849 C1848 1.560 . S
C1849 O1904 1.426 . S
C1849 H1908 0.980 . S
C1850 C1851 1.407 . S
C1850 C1855 1.418 . S
C1850 O1904 1.334 . S
C1851 C1850 1.407 . S
C1851 C1852 1.360 . S
C1851 H1912 0.929 . S
C1852 C1851 1.360 . S
C1852 C1853 1.401 . S
C1852 C1856 1.527 . S
C1853 C1852 1.401 . S
C1853 C1854 1.405 . S
C1853 C1886 1.587 . S
C1854 C1853 1.405 . S
C1854 C1855 1.332 . S
C1854 C1857 1.496 . S
C1855 C1850 1.418 . S
C1855 C1854 1.332 . S
C1855 H1913 0.929 . S
C1856 C1852 1.527 . S
C1856 H1914 0.959 . S
C1856 H1915 0.961 . S
C1856 H1916 0.961 . S
C1857 C1854 1.496 . S
C1857 H1917 0.960 . S
C1857 H1918 0.960 . S
C1857 H1919 0.961 . S
C1858 C1859 1.517 . S
C1858 H1921 0.961 . S
C1858 H1922 0.960 . S
C1858 H1923 0.959 . S
C1859 C1858 1.517 . S
C1859 O1907 1.468 . S
C1859 H1920 0.980 . S
C1860 C1861 1.349 . S
C1860 C1865 1.367 . S
C1860 O1907 1.408 . S
C1861 C1860 1.349 . S
C1861 C1862 1.407 . S
C1861 H1924 0.930 . S
C1862 C1861 1.407 . S
C1862 C1863 1.449 . S
C1862 C1866 1.535 . S
C1863 C1862 1.449 . S
C1863 C1864 1.384 . S
C1863 C1888 1.553 . S
C1864 C1863 1.384 . S
C1864 C1865 1.364 . S
C1864 C1867 1.450 . S
C1865 C1860 1.367 . S
C1865 C1864 1.364 . S
C1865 H1925 0.931 . S
C1866 C1862 1.535 . S
C1866 H1926 0.959 . S
C1866 H1927 0.961 . S
C1866 H1928 0.959 . S
C1867 C1864 1.450 . S
C1867 H1929 0.960 . S
C1867 H1930 0.960 . S
C1867 H1931 0.960 . S
C1868 C1869 1.309 . S
C1868 C1873 1.304 . S
C1868 O1906 1.435 . S
C1869 C1868 1.309 . S
C1869 C1870 1.476 . S
C1869 H1933 0.930 . S
C1870 C1869 1.476 . S
C1870 C1871 1.400 . S
C1870 C1874 1.567 . S
C1871 C1870 1.400 . S
C1871 C1872 1.373 . S
C1871 C1893 1.432 . S
C1872 C1871 1.373 . S
C1872 C1873 1.339 . S
C1872 C1875 1.530 . S
C1873 C1868 1.304 . S
C1873 C1872 1.339 . S
C1873 H1934 0.930 . S
C1874 C1870 1.567 . S
C1874 H1935 0.961 . S
C1874 H1936 0.960 . S
C1874 H1937 0.958 . S
C1875 C1872 1.530 . S
C1875 H1938 0.961 . S
C1875 H1939 0.960 . S
C1875 H1940 0.960 . S
C1876 C1877 1.530 . S
C1876 H1942 0.961 . S
C1876 H1943 0.961 . S
C1876 H1944 0.959 . S
C1877 C1876 1.530 . S
C1877 O1905 1.412 . S
C1877 H1941 0.980 . S
C1878 C1879 1.288 . S
C1878 C1883 1.377 . S
C1878 O1905 1.393 . S
C1879 C1878 1.288 . S
C1879 C1880 1.369 . S
C1879 H1945 0.932 . S
C1880 C1879 1.369 . S
C1880 C1881 1.398 . S
C1880 C1884 1.527 . S
C1881 C1880 1.398 . S
C1881 C1882 1.380 . S
C1881 C1895 1.497 . S
C1882 C1881 1.380 . S
C1882 C1883 1.383 . S
C1882 C1885 1.603 . S
C1883 C1878 1.377 . S
C1883 C1882 1.383 . S
C1883 H1946 0.929 . S
C1884 C1880 1.527 . S
C1884 H1947 0.961 . S
C1884 H1948 0.959 . S
C1884 H1949 0.959 . S
C1885 C1882 1.603 . S
C1885 H1950 0.960 . S
C1885 H1951 0.962 . S
C1885 H1952 0.961 . S
C1886 C1853 1.587 . S
C1886 C1887 1.360 . S
C1886 C1899 1.412 . S
C1887 C1886 1.360 . S
C1887 C1888 1.365 . S
C1887 H1953 0.929 . S
C1888 C1863 1.553 . S
C1888 C1887 1.365 . S
C1888 C1889 1.404 . S
C1889 C1888 1.404 . S
C1889 C1890 1.395 . S
C1889 C1900 1.451 . S
C1890 C1889 1.395 . S
C1890 C1891 1.322 . S
C1890 H1954 0.930 . S
C1891 C1890 1.322 . S
C1891 C1892 1.459 . S
C1891 H1955 0.929 . S
C1892 C1891 1.459 . S
C1892 C1893 1.445 . S
C1892 C1901 1.395 . S
C1893 C1871 1.432 . S
C1893 C1892 1.445 . S
C1893 C1894 1.370 . S
C1894 C1893 1.370 . S
C1894 C1895 1.438 . S
C1894 H1956 0.930 . S
C1895 C1881 1.497 . S
C1895 C1894 1.438 . S
C1895 C1896 1.360 . S
C1896 C1895 1.360 . S
C1896 C1897 1.401 . S
C1896 C1901 1.446 . S
C1897 C1896 1.401 . S
C1897 C1898 1.347 . S
C1897 H1957 0.929 . S
C1898 C1897 1.347 . S
C1898 C1899 1.455 . S
C1898 H1958 0.930 . S
C1899 C1886 1.412 . S
C1899 C1898 1.455 . S
C1899 C1900 1.331 . S
C1900 C1889 1.451 . S
C1900 C1899 1.331 . S
C1900 C1901 1.497 . S
C1901 C1892 1.395 . S
C1901 C1896 1.446 . S
C1901 C1900 1.497 . S
C1902 C1903 1.582 . S
C1902 H1959 0.962 . S
C1902 H1960 0.959 . S
C1902 H1961 0.958 . S
C1903 C1902 1.582 . S
C1903 O1906 1.458 . S
C1903 H1932 0.980 . S
O1904 C1849 1.426 . S
O1904 C1850 1.334 . S
O1905 C1877 1.412 . S
O1905 C1878 1.393 . S
O1906 C1868 1.435 . S
O1906 C1903 1.458 . S
O1907 C1859 1.468 . S
O1907 C1860 1.408 . S
H1908 C1849 0.980 . S
H1909 C1848 0.959 . S
H1910 C1848 0.959 . S
H1911 C1848 0.960 . S
H1912 C1851 0.929 . S
H1913 C1855 0.929 . S
H1914 C1856 0.959 . S
H1915 C1856 0.961 . S
H1916 C1856 0.961 . S
H1917 C1857 0.960 . S
H1918 C1857 0.960 . S
H1919 C1857 0.961 . S
H1920 C1859 0.980 . S
H1921 C1858 0.961 . S
H1922 C1858 0.960 . S
H1923 C1858 0.959 . S
H1924 C1861 0.930 . S
H1925 C1865 0.931 . S
H1926 C1866 0.959 . S
H1927 C1866 0.961 . S
H1928 C1866 0.959 . S
H1929 C1867 0.960 . S
H1930 C1867 0.960 . S
H1931 C1867 0.960 . S
H1932 C1903 0.980 . S
H1933 C1869 0.930 . S
H1934 C1873 0.930 . S
H1935 C1874 0.961 . S
H1936 C1874 0.960 . S
H1937 C1874 0.958 . S
H1938 C1875 0.961 . S
H1939 C1875 0.960 . S
H1940 C1875 0.960 . S
H1941 C1877 0.980 . S
H1942 C1876 0.961 . S
H1943 C1876 0.961 . S
H1944 C1876 0.959 . S
H1945 C1879 0.932 . S
H1946 C1883 0.929 . S
H1947 C1884 0.961 . S
H1948 C1884 0.959 . S
H1949 C1884 0.959 . S
H1950 C1885 0.960 . S
H1951 C1885 0.962 . S
H1952 C1885 0.961 . S
H1953 C1887 0.929 . S
H1954 C1890 0.930 . S
H1955 C1891 0.929 . S
H1956 C1894 0.930 . S
H1957 C1897 0.929 . S
H1958 C1898 0.930 . S
H1959 C1902 0.962 . S
H1960 C1902 0.959 . S
H1961 C1902 0.958 . S
C1962 C1963 1.560 . S
C1962 H2023 0.959 . S
C1962 H2024 0.959 . S
C1962 H2025 0.960 . S
C1963 C1962 1.560 . S
C1963 O2018 1.426 . S
C1963 H2022 0.980 . S
C1964 C1965 1.407 . S
C1964 C1969 1.418 . S
C1964 O2018 1.334 . S
C1965 C1964 1.407 . S
C1965 C1966 1.360 . S
C1965 H2026 0.929 . S
C1966 C1965 1.360 . S
C1966 C1967 1.401 . S
C1966 C1970 1.527 . S
C1967 C1966 1.401 . S
C1967 C1968 1.405 . S
C1967 C2000 1.587 . S
C1968 C1967 1.405 . S
C1968 C1969 1.332 . S
C1968 C1971 1.496 . S
C1969 C1964 1.418 . S
C1969 C1968 1.332 . S
C1969 H2027 0.929 . S
C1970 C1966 1.527 . S
C1970 H2028 0.959 . S
C1970 H2029 0.961 . S
C1970 H2030 0.961 . S
C1971 C1968 1.496 . S
C1971 H2031 0.960 . S
C1971 H2032 0.960 . S
C1971 H2033 0.961 . S
C1972 C1973 1.517 . S
C1972 H2035 0.961 . S
C1972 H2036 0.960 . S
C1972 H2037 0.959 . S
C1973 C1972 1.517 . S
C1973 O2021 1.468 . S
C1973 H2034 0.980 . S
C1974 C1975 1.349 . S
C1974 C1979 1.367 . S
C1974 O2021 1.408 . S
C1975 C1974 1.349 . S
C1975 C1976 1.407 . S
C1975 H2038 0.930 . S
C1976 C1975 1.407 . S
C1976 C1977 1.449 . S
C1976 C1980 1.535 . S
C1977 C1976 1.449 . S
C1977 C1978 1.384 . S
C1977 C2002 1.553 . S
C1978 C1977 1.384 . S
C1978 C1979 1.364 . S
C1978 C1981 1.450 . S
C1979 C1974 1.367 . S
C1979 C1978 1.364 . S
C1979 H2039 0.931 . S
C1980 C1976 1.535 . S
C1980 H2040 0.959 . S
C1980 H2041 0.961 . S
C1980 H2042 0.959 . S
C1981 C1978 1.450 . S
C1981 H2043 0.960 . S
C1981 H2044 0.960 . S
C1981 H2045 0.960 . S
C1982 C1983 1.309 . S
C1982 C1987 1.304 . S
C1982 O2020 1.435 . S
C1983 C1982 1.309 . S
C1983 C1984 1.476 . S
C1983 H2047 0.930 . S
C1984 C1983 1.476 . S
C1984 C1985 1.400 . S
C1984 C1988 1.567 . S
C1985 C1984 1.400 . S
C1985 C1986 1.373 . S
C1985 C2007 1.432 . S
C1986 C1985 1.373 . S
C1986 C1987 1.339 . S
C1986 C1989 1.530 . S
C1987 C1982 1.304 . S
C1987 C1986 1.339 . S
C1987 H2048 0.930 . S
C1988 C1984 1.567 . S
C1988 H2049 0.961 . S
C1988 H2050 0.960 . S
C1988 H2051 0.958 . S
C1989 C1986 1.530 . S
C1989 H2052 0.961 . S
C1989 H2053 0.960 . S
C1989 H2054 0.960 . S
C1990 C1991 1.530 . S
C1990 H2056 0.961 . S
C1990 H2057 0.961 . S
C1990 H2058 0.959 . S
C1991 C1990 1.530 . S
C1991 O2019 1.412 . S
C1991 H2055 0.980 . S
C1992 C1993 1.288 . S
C1992 C1997 1.377 . S
C1992 O2019 1.393 . S
C1993 C1992 1.288 . S
C1993 C1994 1.369 . S
C1993 H2059 0.932 . S
C1994 C1993 1.369 . S
C1994 C1995 1.398 . S
C1994 C1998 1.527 . S
C1995 C1994 1.398 . S
C1995 C1996 1.380 . S
C1995 C2009 1.497 . S
C1996 C1995 1.380 . S
C1996 C1997 1.383 . S
C1996 C1999 1.603 . S
C1997 C1992 1.377 . S
C1997 C1996 1.383 . S
C1997 H2060 0.929 . S
C1998 C1994 1.527 . S
C1998 H2061 0.961 . S
C1998 H2062 0.959 . S
C1998 H2063 0.959 . S
C1999 C1996 1.603 . S
C1999 H2064 0.960 . S
C1999 H2065 0.962 . S
C1999 H2066 0.961 . S
C2000 C1967 1.587 . S
C2000 C2001 1.360 . S
C2000 C2013 1.412 . S
C2001 C2000 1.360 . S
C2001 C2002 1.365 . S
C2001 H2067 0.929 . S
C2002 C1977 1.553 . S
C2002 C2001 1.365 . S
C2002 C2003 1.404 . S
C2003 C2002 1.404 . S
C2003 C2004 1.395 . S
C2003 C2014 1.451 . S
C2004 C2003 1.395 . S
C2004 C2005 1.322 . S
C2004 H2068 0.930 . S
C2005 C2004 1.322 . S
C2005 C2006 1.459 . S
C2005 H2069 0.929 . S
C2006 C2005 1.459 . S
C2006 C2007 1.445 . S
C2006 C2015 1.395 . S
C2007 C1985 1.432 . S
C2007 C2006 1.445 . S
C2007 C2008 1.370 . S
C2008 C2007 1.370 . S
C2008 C2009 1.438 . S
C2008 H2070 0.930 . S
C2009 C1995 1.497 . S
C2009 C2008 1.438 . S
C2009 C2010 1.360 . S
C2010 C2009 1.360 . S
C2010 C2011 1.401 . S
C2010 C2015 1.446 . S
C2011 C2010 1.401 . S
C2011 C2012 1.347 . S
C2011 H2071 0.929 . S
C2012 C2011 1.347 . S
C2012 C2013 1.455 . S
C2012 H2072 0.930 . S
C2013 C2000 1.412 . S
C2013 C2012 1.455 . S
C2013 C2014 1.331 . S
C2014 C2003 1.451 . S
C2014 C2013 1.331 . S
C2014 C2015 1.497 . S
C2015 C2006 1.395 . S
C2015 C2010 1.446 . S
C2015 C2014 1.497 . S
C2016 C2017 1.582 . S
C2016 H2073 0.962 . S
C2016 H2074 0.959 . S
C2016 H2075 0.958 . S
C2017 C2016 1.582 . S
C2017 O2020 1.458 . S
C2017 H2046 0.980 . S
O2018 C1963 1.426 . S
O2018 C1964 1.334 . S
O2019 C1991 1.412 . S
O2019 C1992 1.393 . S
O2020 C1982 1.435 . S
O2020 C2017 1.458 . S
O2021 C1973 1.468 . S
O2021 C1974 1.408 . S
H2022 C1963 0.980 . S
H2023 C1962 0.959 . S
H2024 C1962 0.959 . S
H2025 C1962 0.960 . S
H2026 C1965 0.929 . S
H2027 C1969 0.929 . S
H2028 C1970 0.959 . S
H2029 C1970 0.961 . S
H2030 C1970 0.961 . S
H2031 C1971 0.960 . S
H2032 C1971 0.960 . S
H2033 C1971 0.961 . S
H2034 C1973 0.980 . S
H2035 C1972 0.961 . S
H2036 C1972 0.960 . S
H2037 C1972 0.959 . S
H2038 C1975 0.930 . S
H2039 C1979 0.931 . S
H2040 C1980 0.959 . S
H2041 C1980 0.961 . S
H2042 C1980 0.959 . S
H2043 C1981 0.960 . S
H2044 C1981 0.960 . S
H2045 C1981 0.960 . S
H2046 C2017 0.980 . S
H2047 C1983 0.930 . S
H2048 C1987 0.930 . S
H2049 C1988 0.961 . S
H2050 C1988 0.960 . S
H2051 C1988 0.958 . S
H2052 C1989 0.961 . S
H2053 C1989 0.960 . S
H2054 C1989 0.960 . S
H2055 C1991 0.980 . S
H2056 C1990 0.961 . S
H2057 C1990 0.961 . S
H2058 C1990 0.959 . S
H2059 C1993 0.932 . S
H2060 C1997 0.929 . S
H2061 C1998 0.961 . S
H2062 C1998 0.959 . S
H2063 C1998 0.959 . S
H2064 C1999 0.960 . S
H2065 C1999 0.962 . S
H2066 C1999 0.961 . S
H2067 C2001 0.929 . S
H2068 C2004 0.930 . S
H2069 C2005 0.929 . S
H2070 C2008 0.930 . S
H2071 C2011 0.929 . S
H2072 C2012 0.930 . S
H2073 C2016 0.962 . S
H2074 C2016 0.959 . S
H2075 C2016 0.958 . S
C2076 C2077 1.560 . S
C2076 H2137 0.959 . S
C2076 H2138 0.959 . S
C2076 H2139 0.960 . S
C2077 C2076 1.560 . S
C2077 O2132 1.426 . S
C2077 H2136 0.980 . S
C2078 C2079 1.407 . S
C2078 C2083 1.418 . S
C2078 O2132 1.334 . S
C2079 C2078 1.407 . S
C2079 C2080 1.360 . S
C2079 H2140 0.929 . S
C2080 C2079 1.360 . S
C2080 C2081 1.401 . S
C2080 C2084 1.527 . S
C2081 C2080 1.401 . S
C2081 C2082 1.405 . S
C2081 C2114 1.587 . S
C2082 C2081 1.405 . S
C2082 C2083 1.332 . S
C2082 C2085 1.496 . S
C2083 C2078 1.418 . S
C2083 C2082 1.332 . S
C2083 H2141 0.929 . S
C2084 C2080 1.527 . S
C2084 H2142 0.959 . S
C2084 H2143 0.961 . S
C2084 H2144 0.961 . S
C2085 C2082 1.496 . S
C2085 H2145 0.960 . S
C2085 H2146 0.960 . S
C2085 H2147 0.961 . S
C2086 C2087 1.517 . S
C2086 H2149 0.961 . S
C2086 H2150 0.960 . S
C2086 H2151 0.959 . S
C2087 C2086 1.517 . S
C2087 O2135 1.468 . S
C2087 H2148 0.980 . S
C2088 C2089 1.349 . S
C2088 C2093 1.367 . S
C2088 O2135 1.408 . S
C2089 C2088 1.349 . S
C2089 C2090 1.407 . S
C2089 H2152 0.930 . S
C2090 C2089 1.407 . S
C2090 C2091 1.449 . S
C2090 C2094 1.535 . S
C2091 C2090 1.449 . S
C2091 C2092 1.384 . S
C2091 C2116 1.553 . S
C2092 C2091 1.384 . S
C2092 C2093 1.364 . S
C2092 C2095 1.450 . S
C2093 C2088 1.367 . S
C2093 C2092 1.364 . S
C2093 H2153 0.931 . S
C2094 C2090 1.535 . S
C2094 H2154 0.959 . S
C2094 H2155 0.961 . S
C2094 H2156 0.959 . S
C2095 C2092 1.450 . S
C2095 H2157 0.960 . S
C2095 H2158 0.960 . S
C2095 H2159 0.960 . S
C2096 C2097 1.309 . S
C2096 C2101 1.304 . S
C2096 O2134 1.435 . S
C2097 C2096 1.309 . S
C2097 C2098 1.476 . S
C2097 H2161 0.930 . S
C2098 C2097 1.476 . S
C2098 C2099 1.400 . S
C2098 C2102 1.567 . S
C2099 C2098 1.400 . S
C2099 C2100 1.373 . S
C2099 C2121 1.432 . S
C2100 C2099 1.373 . S
C2100 C2101 1.339 . S
C2100 C2103 1.530 . S
C2101 C2096 1.304 . S
C2101 C2100 1.339 . S
C2101 H2162 0.930 . S
C2102 C2098 1.567 . S
C2102 H2163 0.961 . S
C2102 H2164 0.960 . S
C2102 H2165 0.958 . S
C2103 C2100 1.530 . S
C2103 H2166 0.961 . S
C2103 H2167 0.960 . S
C2103 H2168 0.960 . S
C2104 C2105 1.530 . S
C2104 H2170 0.961 . S
C2104 H2171 0.961 . S
C2104 H2172 0.959 . S
C2105 C2104 1.530 . S
C2105 O2133 1.412 . S
C2105 H2169 0.980 . S
C2106 C2107 1.288 . S
C2106 C2111 1.377 . S
C2106 O2133 1.393 . S
C2107 C2106 1.288 . S
C2107 C2108 1.369 . S
C2107 H2173 0.932 . S
C2108 C2107 1.369 . S
C2108 C2109 1.398 . S
C2108 C2112 1.527 . S
C2109 C2108 1.398 . S
C2109 C2110 1.380 . S
C2109 C2123 1.497 . S
C2110 C2109 1.380 . S
C2110 C2111 1.383 . S
C2110 C2113 1.603 . S
C2111 C2106 1.377 . S
C2111 C2110 1.383 . S
C2111 H2174 0.929 . S
C2112 C2108 1.527 . S
C2112 H2175 0.961 . S
C2112 H2176 0.959 . S
C2112 H2177 0.959 . S
C2113 C2110 1.603 . S
C2113 H2178 0.960 . S
C2113 H2179 0.962 . S
C2113 H2180 0.961 . S
C2114 C2081 1.587 . S
C2114 C2115 1.360 . S
C2114 C2127 1.412 . S
C2115 C2114 1.360 . S
C2115 C2116 1.365 . S
C2115 H2181 0.929 . S
C2116 C2091 1.553 . S
C2116 C2115 1.365 . S
C2116 C2117 1.404 . S
C2117 C2116 1.404 . S
C2117 C2118 1.395 . S
C2117 C2128 1.451 . S
C2118 C2117 1.395 . S
C2118 C2119 1.322 . S
C2118 H2182 0.930 . S
C2119 C2118 1.322 . S
C2119 C2120 1.459 . S
C2119 H2183 0.929 . S
C2120 C2119 1.459 . S
C2120 C2121 1.445 . S
C2120 C2129 1.395 . S
C2121 C2099 1.432 . S
C2121 C2120 1.445 . S
C2121 C2122 1.370 . S
C2122 C2121 1.370 . S
C2122 C2123 1.438 . S
C2122 H2184 0.930 . S
C2123 C2109 1.497 . S
C2123 C2122 1.438 . S
C2123 C2124 1.360 . S
C2124 C2123 1.360 . S
C2124 C2125 1.401 . S
C2124 C2129 1.446 . S
C2125 C2124 1.401 . S
C2125 C2126 1.347 . S
C2125 H2185 0.929 . S
C2126 C2125 1.347 . S
C2126 C2127 1.455 . S
C2126 H2186 0.930 . S
C2127 C2114 1.412 . S
C2127 C2126 1.455 . S
C2127 C2128 1.331 . S
C2128 C2117 1.451 . S
C2128 C2127 1.331 . S
C2128 C2129 1.497 . S
C2129 C2120 1.395 . S
C2129 C2124 1.446 . S
C2129 C2128 1.497 . S
C2130 C2131 1.582 . S
C2130 H2187 0.962 . S
C2130 H2188 0.959 . S
C2130 H2189 0.958 . S
C2131 C2130 1.582 . S
C2131 O2134 1.458 . S
C2131 H2160 0.980 . S
O2132 C2077 1.426 . S
O2132 C2078 1.334 . S
O2133 C2105 1.412 . S
O2133 C2106 1.393 . S
O2134 C2096 1.435 . S
O2134 C2131 1.458 . S
O2135 C2087 1.468 . S
O2135 C2088 1.408 . S
H2136 C2077 0.980 . S
H2137 C2076 0.959 . S
H2138 C2076 0.959 . S
H2139 C2076 0.960 . S
H2140 C2079 0.929 . S
H2141 C2083 0.929 . S
H2142 C2084 0.959 . S
H2143 C2084 0.961 . S
H2144 C2084 0.961 . S
H2145 C2085 0.960 . S
H2146 C2085 0.960 . S
H2147 C2085 0.961 . S
H2148 C2087 0.980 . S
H2149 C2086 0.961 . S
H2150 C2086 0.960 . S
H2151 C2086 0.959 . S
H2152 C2089 0.930 . S
H2153 C2093 0.931 . S
H2154 C2094 0.959 . S
H2155 C2094 0.961 . S
H2156 C2094 0.959 . S
H2157 C2095 0.960 . S
H2158 C2095 0.960 . S
H2159 C2095 0.960 . S
H2160 C2131 0.980 . S
H2161 C2097 0.930 . S
H2162 C2101 0.930 . S
H2163 C2102 0.961 . S
H2164 C2102 0.960 . S
H2165 C2102 0.958 . S
H2166 C2103 0.961 . S
H2167 C2103 0.960 . S
H2168 C2103 0.960 . S
H2169 C2105 0.980 . S
H2170 C2104 0.961 . S
H2171 C2104 0.961 . S
H2172 C2104 0.959 . S
H2173 C2107 0.932 . S
H2174 C2111 0.929 . S
H2175 C2112 0.961 . S
H2176 C2112 0.959 . S
H2177 C2112 0.959 . S
H2178 C2113 0.960 . S
H2179 C2113 0.962 . S
H2180 C2113 0.961 . S
H2181 C2115 0.929 . S
H2182 C2118 0.930 . S
H2183 C2119 0.929 . S
H2184 C2122 0.930 . S
H2185 C2125 0.929 . S
H2186 C2126 0.930 . S
H2187 C2130 0.962 . S
H2188 C2130 0.959 . S
H2189 C2130 0.958 . S
C2190 C2191 1.560 . S
C2190 H2251 0.959 . S
C2190 H2252 0.959 . S
C2190 H2253 0.960 . S
C2191 C2190 1.560 . S
C2191 O2246 1.426 . S
C2191 H2250 0.980 . S
C2192 C2193 1.407 . S
C2192 C2197 1.418 . S
C2192 O2246 1.334 . S
C2193 C2192 1.407 . S
C2193 C2194 1.360 . S
C2193 H2254 0.929 . S
C2194 C2193 1.360 . S
C2194 C2195 1.401 . S
C2194 C2198 1.527 . S
C2195 C2194 1.401 . S
C2195 C2196 1.405 . S
C2195 C2228 1.587 . S
C2196 C2195 1.405 . S
C2196 C2197 1.332 . S
C2196 C2199 1.496 . S
C2197 C2192 1.418 . S
C2197 C2196 1.332 . S
C2197 H2255 0.929 . S
C2198 C2194 1.527 . S
C2198 H2256 0.959 . S
C2198 H2257 0.961 . S
C2198 H2258 0.961 . S
C2199 C2196 1.496 . S
C2199 H2259 0.960 . S
C2199 H2260 0.960 . S
C2199 H2261 0.961 . S
C2200 C2201 1.517 . S
C2200 H2263 0.961 . S
C2200 H2264 0.960 . S
C2200 H2265 0.959 . S
C2201 C2200 1.517 . S
C2201 O2249 1.468 . S
C2201 H2262 0.980 . S
C2202 C2203 1.349 . S
C2202 C2207 1.367 . S
C2202 O2249 1.408 . S
C2203 C2202 1.349 . S
C2203 C2204 1.407 . S
C2203 H2266 0.930 . S
C2204 C2203 1.407 . S
C2204 C2205 1.449 . S
C2204 C2208 1.535 . S
C2205 C2204 1.449 . S
C2205 C2206 1.384 . S
C2205 C2230 1.553 . S
C2206 C2205 1.384 . S
C2206 C2207 1.364 . S
C2206 C2209 1.450 . S
C2207 C2202 1.367 . S
C2207 C2206 1.364 . S
C2207 H2267 0.931 . S
C2208 C2204 1.535 . S
C2208 H2268 0.959 . S
C2208 H2269 0.961 . S
C2208 H2270 0.959 . S
C2209 C2206 1.450 . S
C2209 H2271 0.960 . S
C2209 H2272 0.960 . S
C2209 H2273 0.960 . S
C2210 C2211 1.309 . S
C2210 C2215 1.304 . S
C2210 O2248 1.435 . S
C2211 C2210 1.309 . S
C2211 C2212 1.476 . S
C2211 H2275 0.930 . S
C2212 C2211 1.476 . S
C2212 C2213 1.400 . S
C2212 C2216 1.567 . S
C2213 C2212 1.400 . S
C2213 C2214 1.373 . S
C2213 C2235 1.432 . S
C2214 C2213 1.373 . S
C2214 C2215 1.339 . S
C2214 C2217 1.530 . S
C2215 C2210 1.304 . S
C2215 C2214 1.339 . S
C2215 H2276 0.930 . S
C2216 C2212 1.567 . S
C2216 H2277 0.961 . S
C2216 H2278 0.960 . S
C2216 H2279 0.958 . S
C2217 C2214 1.530 . S
C2217 H2280 0.961 . S
C2217 H2281 0.960 . S
C2217 H2282 0.960 . S
C2218 C2219 1.530 . S
C2218 H2284 0.961 . S
C2218 H2285 0.961 . S
C2218 H2286 0.959 . S
C2219 C2218 1.530 . S
C2219 O2247 1.412 . S
C2219 H2283 0.980 . S
C2220 C2221 1.288 . S
C2220 C2225 1.377 . S
C2220 O2247 1.393 . S
C2221 C2220 1.288 . S
C2221 C2222 1.369 . S
C2221 H2287 0.932 . S
C2222 C2221 1.369 . S
C2222 C2223 1.398 . S
C2222 C2226 1.527 . S
C2223 C2222 1.398 . S
C2223 C2224 1.380 . S
C2223 C2237 1.497 . S
C2224 C2223 1.380 . S
C2224 C2225 1.383 . S
C2224 C2227 1.603 . S
C2225 C2220 1.377 . S
C2225 C2224 1.383 . S
C2225 H2288 0.929 . S
C2226 C2222 1.527 . S
C2226 H2289 0.961 . S
C2226 H2290 0.959 . S
C2226 H2291 0.959 . S
C2227 C2224 1.603 . S
C2227 H2292 0.960 . S
C2227 H2293 0.962 . S
C2227 H2294 0.961 . S
C2228 C2195 1.587 . S
C2228 C2229 1.360 . S
C2228 C2241 1.412 . S
C2229 C2228 1.360 . S
C2229 C2230 1.365 . S
C2229 H2295 0.929 . S
C2230 C2205 1.553 . S
C2230 C2229 1.365 . S
C2230 C2231 1.404 . S
C2231 C2230 1.404 . S
C2231 C2232 1.395 . S
C2231 C2242 1.451 . S
C2232 C2231 1.395 . S
C2232 C2233 1.322 . S
C2232 H2296 0.930 . S
C2233 C2232 1.322 . S
C2233 C2234 1.459 . S
C2233 H2297 0.929 . S
C2234 C2233 1.459 . S
C2234 C2235 1.445 . S
C2234 C2243 1.395 . S
C2235 C2213 1.432 . S
C2235 C2234 1.445 . S
C2235 C2236 1.370 . S
C2236 C2235 1.370 . S
C2236 C2237 1.438 . S
C2236 H2298 0.930 . S
C2237 C2223 1.497 . S
C2237 C2236 1.438 . S
C2237 C2238 1.360 . S
C2238 C2237 1.360 . S
C2238 C2239 1.401 . S
C2238 C2243 1.446 . S
C2239 C2238 1.401 . S
C2239 C2240 1.347 . S
C2239 H2299 0.929 . S
C2240 C2239 1.347 . S
C2240 C2241 1.455 . S
C2240 H2300 0.930 . S
C2241 C2228 1.412 . S
C2241 C2240 1.455 . S
C2241 C2242 1.331 . S
C2242 C2231 1.451 . S
C2242 C2241 1.331 . S
C2242 C2243 1.497 . S
C2243 C2234 1.395 . S
C2243 C2238 1.446 . S
C2243 C2242 1.497 . S
C2244 C2245 1.582 . S
C2244 H2301 0.962 . S
C2244 H2302 0.959 . S
C2244 H2303 0.958 . S
C2245 C2244 1.582 . S
C2245 O2248 1.458 . S
C2245 H2274 0.980 . S
O2246 C2191 1.426 . S
O2246 C2192 1.334 . S
O2247 C2219 1.412 . S
O2247 C2220 1.393 . S
O2248 C2210 1.435 . S
O2248 C2245 1.458 . S
O2249 C2201 1.468 . S
O2249 C2202 1.408 . S
H2250 C2191 0.980 . S
H2251 C2190 0.959 . S
H2252 C2190 0.959 . S
H2253 C2190 0.960 . S
H2254 C2193 0.929 . S
H2255 C2197 0.929 . S
H2256 C2198 0.959 . S
H2257 C2198 0.961 . S
H2258 C2198 0.961 . S
H2259 C2199 0.960 . S
H2260 C2199 0.960 . S
H2261 C2199 0.961 . S
H2262 C2201 0.980 . S
H2263 C2200 0.961 . S
H2264 C2200 0.960 . S
H2265 C2200 0.959 . S
H2266 C2203 0.930 . S
H2267 C2207 0.931 . S
H2268 C2208 0.959 . S
H2269 C2208 0.961 . S
H2270 C2208 0.959 . S
H2271 C2209 0.960 . S
H2272 C2209 0.960 . S
H2273 C2209 0.960 . S
H2274 C2245 0.980 . S
H2275 C2211 0.930 . S
H2276 C2215 0.930 . S
H2277 C2216 0.961 . S
H2278 C2216 0.960 . S
H2279 C2216 0.958 . S
H2280 C2217 0.961 . S
H2281 C2217 0.960 . S
H2282 C2217 0.960 . S
H2283 C2219 0.980 . S
H2284 C2218 0.961 . S
H2285 C2218 0.961 . S
H2286 C2218 0.959 . S
H2287 C2221 0.932 . S
H2288 C2225 0.929 . S
H2289 C2226 0.961 . S
H2290 C2226 0.959 . S
H2291 C2226 0.959 . S
H2292 C2227 0.960 . S
H2293 C2227 0.962 . S
H2294 C2227 0.961 . S
H2295 C2229 0.929 . S
H2296 C2232 0.930 . S
H2297 C2233 0.929 . S
H2298 C2236 0.930 . S
H2299 C2239 0.929 . S
H2300 C2240 0.930 . S
H2301 C2244 0.962 . S
H2302 C2244 0.959 . S
H2303 C2244 0.958 . S
C2304 C2305 1.386 . S
C2304 C2306 1.383 . S
C2304 H2320 0.951 . S
C2305 C2304 1.386 . S
C2305 C2309 1.383 1_655 S
C2306 C2304 1.383 . S
C2306 C2307 1.402 . S
C2306 H2321 0.951 . S
C2307 C2306 1.402 . S
C2307 C2308 1.322 1_655 S
C2307 C2310 1.481 . S
C2308 C2307 1.322 1_455 S
C2308 C2309 1.399 . S
C2308 H2322 0.977 . S
C2309 C2305 1.383 1_455 S
C2309 C2308 1.399 . S
C2309 H2323 0.950 . S
C2310 C2307 1.481 . S
C2310 C2311 1.297 . S
C2310 H2324 0.950 . S
C2311 C2310 1.297 . S
C2311 C2312 1.479 . S
C2311 H2325 0.950 . S
C2312 C2311 1.479 . S
C2312 C2313 1.375 . S
C2312 C2318 1.404 . S
C2313 C2312 1.375 . S
C2313 C2314 1.369 . S
C2313 H2326 0.950 . S
C2314 C2313 1.369 . S
C2314 C2315 1.392 . S
C2314 H2327 0.951 . S
C2315 C2314 1.392 . S
C2315 C2317 1.384 . S
H2316 C2318 0.949 . S
C2317 C2315 1.384 . S
C2317 C2318 1.385 . S
C2317 H2319 0.950 . S
C2318 C2312 1.404 . S
C2318 H2316 0.949 . S
C2318 C2317 1.385 . S
H2319 C2317 0.950 . S
H2320 C2304 0.951 . S
H2321 C2306 0.951 . S
H2322 C2308 0.977 . S
H2323 C2309 0.950 . S
H2324 C2310 0.950 . S
H2325 C2311 0.950 . S
H2326 C2313 0.950 . S
H2327 C2314 0.951 . S
C2328 C2329 1.386 . S
C2328 C2330 1.383 . S
C2328 H2344 0.951 . S
C2329 C2328 1.386 . S
C2329 C2333 1.383 . S
C2330 C2328 1.383 . S
C2330 C2331 1.402 . S
C2330 H2345 0.951 . S
C2331 C2330 1.402 . S
C2331 C2332 1.375 . S
C2331 C2334 1.481 . S
C2332 C2331 1.375 . S
C2332 C2333 1.367 . S
C2332 H2346 0.951 . S
C2333 C2329 1.383 . S
C2333 C2332 1.367 . S
C2333 H2347 0.950 . S
C2334 C2331 1.481 . S
C2334 C2335 1.297 . S
C2334 H2348 0.950 . S
C2335 C2334 1.297 . S
C2335 C2336 1.479 . S
C2335 H2349 0.950 . S
C2336 C2335 1.479 . S
C2336 C2337 1.375 . S
C2336 C2342 1.404 . S
C2337 C2336 1.375 . S
C2337 C2338 1.369 . S
C2337 H2350 0.950 . S
C2338 C2337 1.369 . S
C2338 C2339 1.392 . S
C2338 H2351 0.951 . S
C2339 C2338 1.392 . S
C2339 C2341 1.384 . S
H2340 C2342 0.949 . S
C2341 C2339 1.384 . S
C2341 C2342 1.385 . S
C2341 H2343 0.950 . S
C2342 C2336 1.404 . S
C2342 H2340 0.949 . S
C2342 C2341 1.385 . S
H2343 C2341 0.950 . S
H2344 C2328 0.951 . S
H2345 C2330 0.951 . S
H2346 C2332 0.951 . S
H2347 C2333 0.950 . S
H2348 C2334 0.950 . S
H2349 C2335 0.950 . S
H2350 C2337 0.950 . S
H2351 C2338 0.951 . S
C2352 C2353 1.386 . S
C2352 C2354 1.383 . S
C2352 H2368 0.951 . S
C2353 C2352 1.386 . S
C2353 C2357 1.383 1_545 S
C2354 C2352 1.383 . S
C2354 C2355 1.402 . S
C2354 H2369 0.951 . S
C2355 C2354 1.402 . S
C2355 C2356 1.375 1_545 S
C2355 C2358 1.481 . S
C2356 C2355 1.375 1_565 S
C2356 C2357 1.367 . S
C2356 H2370 0.951 . S
C2357 C2353 1.383 1_565 S
C2357 C2356 1.367 . S
C2357 H2371 0.950 . S
C2358 C2355 1.481 . S
C2358 C2359 1.297 . S
C2358 H2372 0.950 1_545 S
C2359 C2358 1.297 . S
C2359 C2360 1.479 . S
C2359 H2373 0.950 . S
C2360 C2359 1.479 . S
C2360 C2361 1.375 . S
C2360 C2366 1.404 1_545 S
C2361 C2360 1.375 . S
C2361 C2362 1.369 . S
C2361 H2374 0.950 . S
C2362 C2361 1.369 . S
C2362 C2363 1.392 . S
C2362 H2375 0.951 . S
C2363 C2362 1.392 . S
C2363 C2365 1.384 1_545 S
H2364 C2366 0.949 . S
C2365 C2363 1.384 1_565 S
C2365 C2366 1.385 . S
C2365 H2367 0.950 . S
C2366 C2360 1.404 1_565 S
C2366 H2364 0.949 . S
C2366 C2365 1.385 . S
H2367 C2365 0.950 . S
H2368 C2352 0.951 . S
H2369 C2354 0.951 . S
H2370 C2356 0.951 . S
H2371 C2357 0.950 . S
H2372 C2358 0.950 1_565 S
H2373 C2359 0.950 . S
H2374 C2361 0.950 . S
H2375 C2362 0.951 . S
C2376 C2377 1.421 . S
C2376 C2378 1.422 . S
C2376 H2392 0.881 1_565 S
C2377 C2376 1.421 . S
C2377 C2381 1.383 . S
C2378 C2376 1.422 . S
C2378 C2379 1.402 . S
C2378 H2393 0.951 1_565 S
C2379 C2378 1.402 . S
C2379 C2380 1.375 . S
C2379 C2382 1.481 . S
C2380 C2379 1.375 . S
C2380 C2381 1.367 . S
C2380 H2394 0.951 . S
C2381 C2377 1.383 . S
C2381 C2380 1.367 . S
C2381 H2395 0.950 . S
C2382 C2379 1.481 . S
C2382 C2383 1.297 . S
C2382 H2396 0.950 . S
C2383 C2382 1.297 . S
C2383 C2384 1.479 . S
C2383 H2397 0.950 1_565 S
C2384 C2383 1.479 . S
C2384 C2385 1.375 1_565 S
C2384 C2390 1.404 . S
C2385 C2384 1.375 1_545 S
C2385 C2386 1.369 . S
C2385 H2398 0.950 . S
C2386 C2385 1.369 . S
C2386 C2387 1.392 1_545 S
C2386 H2399 0.951 . S
C2387 C2386 1.392 1_565 S
C2387 C2389 1.384 . S
H2388 C2390 0.949 . S
C2389 C2387 1.384 . S
C2389 C2390 1.385 . S
C2389 H2391 0.950 . S
C2390 C2384 1.404 . S
C2390 H2388 0.949 . S
C2390 C2389 1.385 . S
H2391 C2389 0.950 . S
H2392 C2376 0.881 1_545 S
H2393 C2378 0.951 1_545 S
H2394 C2380 0.951 . S
H2395 C2381 0.950 . S
H2396 C2382 0.950 . S
H2397 C2383 0.950 1_545 S
H2398 C2385 0.950 . S
H2399 C2386 0.951 . S
C2400 C2401 1.386 . S
C2400 C2402 1.383 . S
C2400 H2416 0.951 . S
C2401 C2400 1.386 . S
C2401 C2405 1.383 . S
C2402 C2400 1.383 . S
C2402 C2403 1.402 . S
C2402 H2417 0.951 . S
C2403 C2402 1.402 . S
C2403 C2404 1.375 . S
C2403 C2406 1.481 . S
C2404 C2403 1.375 . S
C2404 C2405 1.367 . S
C2404 H2418 0.951 . S
C2405 C2401 1.383 . S
C2405 C2404 1.367 . S
C2405 H2419 0.950 . S
C2406 C2403 1.481 . S
C2406 C2407 1.297 . S
C2406 H2420 0.950 . S
C2407 C2406 1.297 . S
C2407 C2408 1.479 . S
C2407 H2421 0.950 . S
C2408 C2407 1.479 . S
C2408 C2409 1.375 . S
C2408 C2414 1.404 . S
C2409 C2408 1.375 . S
C2409 C2410 1.369 . S
C2409 H2422 0.950 . S
C2410 C2409 1.369 . S
C2410 C2411 1.392 . S
C2410 H2423 0.951 . S
C2411 C2410 1.392 . S
C2411 C2413 1.384 . S
H2412 C2414 0.949 . S
C2413 C2411 1.384 . S
C2413 C2414 1.385 . S
C2413 H2415 0.949 . S
C2414 C2408 1.404 . S
C2414 H2412 0.949 . S
C2414 C2413 1.385 . S
H2415 C2413 0.949 . S
H2416 C2400 0.951 . S
H2417 C2402 0.951 . S
H2418 C2404 0.951 . S
H2419 C2405 0.950 . S
H2420 C2406 0.950 . S
H2421 C2407 0.950 . S
H2422 C2409 0.950 . S
H2423 C2410 0.951 . S
C2424 C2425 1.386 . S
C2424 C2426 1.383 . S
C2424 H2440 0.951 . S
C2425 C2424 1.386 . S
C2425 C2429 1.383 . S
C2426 C2424 1.383 . S
C2426 C2427 1.402 . S
C2426 H2441 0.951 . S
C2427 C2426 1.402 . S
C2427 C2428 1.375 . S
C2427 C2430 1.481 . S
C2428 C2427 1.375 . S
C2428 C2429 1.367 . S
C2428 H2442 0.951 . S
C2429 C2425 1.383 . S
C2429 C2428 1.367 . S
C2429 H2443 0.950 . S
C2430 C2427 1.481 . S
C2430 C2431 1.297 . S
C2430 H2444 0.950 . S
C2431 C2430 1.297 . S
C2431 C2432 1.479 . S
C2431 H2445 0.950 . S
C2432 C2431 1.479 . S
C2432 C2433 1.375 . S
C2432 C2438 1.404 . S
C2433 C2432 1.375 . S
C2433 C2434 1.369 . S
C2433 H2446 0.950 . S
C2434 C2433 1.369 . S
C2434 C2435 1.392 . S
C2434 H2447 0.951 . S
C2435 C2434 1.392 . S
C2435 C2437 1.384 . S
H2436 C2438 0.949 . S
C2437 C2435 1.384 . S
C2437 C2438 1.385 . S
C2437 H2439 0.950 . S
C2438 C2432 1.404 . S
C2438 H2436 0.949 . S
C2438 C2437 1.385 . S
H2439 C2437 0.950 . S
H2440 C2424 0.951 . S
H2441 C2426 0.951 . S
H2442 C2428 0.951 . S
H2443 C2429 0.950 . S
H2444 C2430 0.950 . S
H2445 C2431 0.950 . S
H2446 C2433 0.950 . S
H2447 C2434 0.951 . S
C2448 C2449 1.386 . S
C2448 C2450 1.383 . S
C2448 H2464 0.951 . S
C2449 C2448 1.386 . S
C2449 C2453 1.383 1_455 S
C2450 C2448 1.383 . S
C2450 C2451 1.402 . S
C2450 H2465 0.951 . S
C2451 C2450 1.402 . S
C2451 C2452 1.375 1_455 S
C2451 C2454 1.481 1_455 S
C2452 C2451 1.375 1_655 S
C2452 C2453 1.367 . S
C2452 H2466 0.951 . S
C2453 C2449 1.383 1_655 S
C2453 C2452 1.367 . S
C2453 H2467 0.950 . S
C2454 C2451 1.481 1_655 S
C2454 C2455 1.297 1_655 S
C2454 H2468 0.950 . S
C2455 C2454 1.297 1_455 S
C2455 C2456 1.479 . S
C2455 H2469 0.950 . S
C2456 C2455 1.479 . S
C2456 C2457 1.375 . S
C2456 C2462 1.404 1_455 S
C2457 C2456 1.375 . S
C2457 C2458 1.369 . S
C2457 H2470 0.950 . S
C2458 C2457 1.369 . S
C2458 C2459 1.392 . S
C2458 H2471 0.951 . S
C2459 C2458 1.392 . S
C2459 C2461 1.384 1_455 S
H2460 C2462 0.949 . S
C2461 C2459 1.384 1_655 S
C2461 C2462 1.385 . S
C2461 H2463 0.950 . S
C2462 C2456 1.404 1_655 S
C2462 H2460 0.949 . S
C2462 C2461 1.385 . S
H2463 C2461 0.950 . S
H2464 C2448 0.951 . S
H2465 C2450 0.951 . S
H2466 C2452 0.951 . S
H2467 C2453 0.950 . S
H2468 C2454 0.950 . S
H2469 C2455 0.950 . S
H2470 C2457 0.950 . S
H2471 C2458 0.951 . S
C2472 C2473 1.386 . S
C2472 C2474 1.383 . S
C2472 H2488 0.951 . S
C2473 C2472 1.386 . S
C2473 C2477 1.383 . S
C2474 C2472 1.383 . S
C2474 C2475 1.402 . S
C2474 H2489 0.951 . S
C2475 C2474 1.402 . S
C2475 C2476 1.375 . S
C2475 C2478 1.481 . S
C2476 C2475 1.375 . S
C2476 C2477 1.367 . S
C2476 H2490 0.951 . S
C2477 C2473 1.383 . S
C2477 C2476 1.367 . S
C2477 H2491 0.950 . S
C2478 C2475 1.481 . S
C2478 C2479 1.297 . S
C2478 H2492 0.950 . S
C2479 C2478 1.297 . S
C2479 C2480 1.479 . S
C2479 H2493 0.950 . S
C2480 C2479 1.479 . S
C2480 C2481 1.375 . S
C2480 C2486 1.404 . S
C2481 C2480 1.375 . S
C2481 C2482 1.369 . S
C2481 H2494 0.950 . S
C2482 C2481 1.369 . S
C2482 C2483 1.392 . S
C2482 H2495 0.951 . S
C2483 C2482 1.392 . S
C2483 C2485 1.384 . S
H2484 C2486 0.949 . S
C2485 C2483 1.384 . S
C2485 C2486 1.385 . S
C2485 H2487 0.950 . S
C2486 C2480 1.404 . S
C2486 H2484 0.949 . S
C2486 C2485 1.385 . S
H2487 C2485 0.950 . S
H2488 C2472 0.951 . S
H2489 C2474 0.951 . S
H2490 C2476 0.951 . S
H2491 C2477 0.950 . S
H2492 C2478 0.950 . S
H2493 C2479 0.950 . S
H2494 C2481 0.950 . S
H2495 C2482 0.951 . S
C2496 C2497 1.386 1_545 S
C2496 C2498 1.383 . S
C2496 H2512 0.951 . S
C2497 C2496 1.386 1_565 S
C2497 C2501 1.383 . S
C2498 C2496 1.383 . S
C2498 C2499 1.402 1_545 S
C2498 H2513 0.951 . S
C2499 C2498 1.402 1_565 S
C2499 C2500 1.375 . S
C2499 C2502 1.481 . S
C2500 C2499 1.375 . S
C2500 C2501 1.367 . S
C2500 H2514 0.951 . S
C2501 C2497 1.383 . S
C2501 C2500 1.367 . S
C2501 H2515 0.950 . S
C2502 C2499 1.481 . S
C2502 C2503 1.258 1_565 S
C2502 H2516 0.950 . S
C2503 C2502 1.258 1_545 S
C2503 C2504 1.507 1_545 S
C2503 H2517 0.977 . S
C2504 C2503 1.507 1_565 S
C2504 C2505 1.349 1_565 S
C2504 C2510 1.419 . S
C2505 C2504 1.349 1_545 S
C2505 C2506 1.369 . S
C2505 H2518 0.950 . S
C2506 C2505 1.369 . S
C2506 C2507 1.375 1_545 S
C2506 H2519 0.951 . S
C2507 C2506 1.375 1_565 S
C2507 C2509 1.417 . S
H2508 C2510 0.949 . S
C2509 C2507 1.417 . S
C2509 C2510 1.385 . S
C2509 H2511 0.950 . S
C2510 C2504 1.419 . S
C2510 H2508 0.949 . S
C2510 C2509 1.385 . S
H2511 C2509 0.950 . S
H2512 C2496 0.951 . S
H2513 C2498 0.951 . S
H2514 C2500 0.951 . S
H2515 C2501 0.950 . S
H2516 C2502 0.950 . S
H2517 C2503 0.977 . S
H2518 C2505 0.950 . S
H2519 C2506 0.951 . S
C2520 C2521 1.386 . S
C2520 C2522 1.383 . S
C2520 H2536 0.951 . S
C2521 C2520 1.386 . S
C2521 C2525 1.383 . S
C2522 C2520 1.383 . S
C2522 C2523 1.402 . S
C2522 H2537 0.951 . S
C2523 C2522 1.402 . S
C2523 C2524 1.375 . S
C2523 C2526 1.481 . S
C2524 C2523 1.375 . S
C2524 C2525 1.367 . S
C2524 H2538 0.951 . S
C2525 C2521 1.383 . S
C2525 C2524 1.367 . S
C2525 H2539 0.950 . S
C2526 C2523 1.481 . S
C2526 C2527 1.297 . S
C2526 H2540 0.950 . S
C2527 C2526 1.297 . S
C2527 C2528 1.479 . S
C2527 H2541 0.950 . S
C2528 C2527 1.479 . S
C2528 C2529 1.375 . S
C2528 C2534 1.404 . S
C2529 C2528 1.375 . S
C2529 C2530 1.369 1_545 S
C2529 H2542 0.950 1_545 S
C2530 C2529 1.369 1_565 S
C2530 C2531 1.392 1_565 S
C2530 H2543 0.951 . S
C2531 C2530 1.392 1_545 S
C2531 C2533 1.384 . S
H2532 C2534 0.949 . S
C2533 C2531 1.384 . S
C2533 C2534 1.385 . S
C2533 H2535 0.950 . S
C2534 C2528 1.404 . S
C2534 H2532 0.949 . S
C2534 C2533 1.385 . S
H2535 C2533 0.950 . S
H2536 C2520 0.951 . S
H2537 C2522 0.951 . S
H2538 C2524 0.951 . S
H2539 C2525 0.950 . S
H2540 C2526 0.950 . S
H2541 C2527 0.950 . S
H2542 C2529 0.950 1_565 S
H2543 C2530 0.951 . S
C2544 C2545 1.408 . S
C2544 C2546 1.355 1_655 S
C2544 H2560 0.938 1_655 S
C2545 C2544 1.408 . S
C2545 C2549 1.383 . S
C2546 C2544 1.355 1_455 S
C2546 C2547 1.371 1_455 S
C2546 H2561 1.003 . S
C2547 C2546 1.371 1_655 S
C2547 C2548 1.375 . S
C2547 C2550 1.481 . S
C2548 C2547 1.375 . S
C2548 C2549 1.367 . S
C2548 H2562 0.951 . S
C2549 C2545 1.383 . S
C2549 C2548 1.367 . S
C2549 H2563 0.950 . S
C2550 C2547 1.481 . S
C2550 C2551 1.297 1_655 S
C2550 H2564 0.950 . S
C2551 C2550 1.297 1_455 S
C2551 C2552 1.479 . S
C2551 H2565 0.950 . S
C2552 C2551 1.479 . S
C2552 C2553 1.375 . S
C2552 C2558 1.404 1_455 S
C2553 C2552 1.375 . S
C2553 C2554 1.369 . S
C2553 H2566 0.950 . S
C2554 C2553 1.369 . S
C2554 C2555 1.390 . S
C2554 H2567 0.951 . S
C2555 C2554 1.390 . S
C2555 C2557 1.388 1_455 S
H2556 C2558 0.949 . S
C2557 C2555 1.388 1_655 S
C2557 C2558 1.385 . S
C2557 H2559 0.950 . S
C2558 C2552 1.404 1_655 S
C2558 H2556 0.949 . S
C2558 C2557 1.385 . S
H2559 C2557 0.950 . S
H2560 C2544 0.938 1_455 S
H2561 C2546 1.003 . S
H2562 C2548 0.951 . S
H2563 C2549 0.950 . S
H2564 C2550 0.950 . S
H2565 C2551 0.950 . S
H2566 C2553 0.950 . S
H2567 C2554 0.951 . S
C2568 C2569 1.386 . S
C2568 C2570 1.383 . S
C2568 H2584 0.951 . S
C2569 C2568 1.386 . S
C2569 C2573 1.383 . S
C2570 C2568 1.383 . S
C2570 C2571 1.402 . S
C2570 H2585 0.951 . S
C2571 C2570 1.402 . S
C2571 C2572 1.375 . S
C2571 C2574 1.481 . S
C2572 C2571 1.375 . S
C2572 C2573 1.367 . S
C2572 H2586 0.951 . S
C2573 C2569 1.383 . S
C2573 C2572 1.367 . S
C2573 H2587 0.950 . S
C2574 C2571 1.481 . S
C2574 C2575 1.297 . S
C2574 H2588 0.950 . S
C2575 C2574 1.297 . S
C2575 C2576 1.479 . S
C2575 H2589 0.950 . S
C2576 C2575 1.479 . S
C2576 C2577 1.375 . S
C2576 C2582 1.404 . S
C2577 C2576 1.375 . S
C2577 C2578 1.369 . S
C2577 H2590 0.950 . S
C2578 C2577 1.369 . S
C2578 C2579 1.392 . S
C2578 H2591 0.951 . S
C2579 C2578 1.392 . S
C2579 C2581 1.384 . S
H2580 C2582 0.949 . S
C2581 C2579 1.384 . S
C2581 C2582 1.385 . S
C2581 H2583 0.950 . S
C2582 C2576 1.404 . S
C2582 H2580 0.949 . S
C2582 C2581 1.385 . S
H2583 C2581 0.950 . S
H2584 C2568 0.951 . S
H2585 C2570 0.951 . S
H2586 C2572 0.951 . S
H2587 C2573 0.950 . S
H2588 C2574 0.950 . S
H2589 C2575 0.950 . S
H2590 C2577 0.950 . S
H2591 C2578 0.951 . S
C2592 C2593 1.386 . S
C2592 C2594 1.383 . S
C2592 H2608 0.951 . S
C2593 C2592 1.386 . S
C2593 C2597 1.383 . S
C2594 C2592 1.383 . S
C2594 C2595 1.402 . S
C2594 H2609 0.951 . S
C2595 C2594 1.402 . S
C2595 C2596 1.375 . S
C2595 C2598 1.481 . S
C2596 C2595 1.375 . S
C2596 C2597 1.367 . S
C2596 H2610 0.951 . S
C2597 C2593 1.383 . S
C2597 C2596 1.367 . S
C2597 H2611 0.950 . S
C2598 C2595 1.481 . S
C2598 C2599 1.297 . S
C2598 H2612 0.950 . S
C2599 C2598 1.297 . S
C2599 C2600 1.479 . S
C2599 H2613 0.950 . S
C2600 C2599 1.479 . S
C2600 C2601 1.375 . S
C2600 C2606 1.404 . S
C2601 C2600 1.375 . S
C2601 C2602 1.369 . S
C2601 H2614 0.950 . S
C2602 C2601 1.369 . S
C2602 C2603 1.392 . S
C2602 H2615 0.951 . S
C2603 C2602 1.392 . S
C2603 C2605 1.384 . S
H2604 C2606 0.949 . S
C2605 C2603 1.384 . S
C2605 C2606 1.385 . S
C2605 H2607 0.950 . S
C2606 C2600 1.404 . S
C2606 H2604 0.949 . S
C2606 C2605 1.385 . S
H2607 C2605 0.950 . S
H2608 C2592 0.951 . S
H2609 C2594 0.951 . S
H2610 C2596 0.951 . S
H2611 C2597 0.950 . S
H2612 C2598 0.950 . S
H2613 C2599 0.950 . S
H2614 C2601 0.950 . S
H2615 C2602 0.951 . S
C2616 C2617 1.386 . S
C2616 C2618 1.383 . S
C2616 H2632 0.951 . S
C2617 C2616 1.386 . S
C2617 C2621 1.383 . S
C2618 C2616 1.383 . S
C2618 C2619 1.402 . S
C2618 H2633 0.951 . S
C2619 C2618 1.402 . S
C2619 C2620 1.375 . S
C2619 C2622 1.481 . S
C2620 C2619 1.375 . S
C2620 C2621 1.367 . S
C2620 H2634 0.951 . S
C2621 C2617 1.383 . S
C2621 C2620 1.367 . S
C2621 H2635 0.950 . S
C2622 C2619 1.481 . S
C2622 C2623 1.297 . S
C2622 H2636 0.950 . S
C2623 C2622 1.297 . S
C2623 C2624 1.479 . S
C2623 H2637 0.950 . S
C2624 C2623 1.479 . S
C2624 C2625 1.375 . S
C2624 C2630 1.404 . S
C2625 C2624 1.375 . S
C2625 C2626 1.369 . S
C2625 H2638 0.950 . S
C2626 C2625 1.369 . S
C2626 C2627 1.392 . S
C2626 H2639 0.951 . S
C2627 C2626 1.392 . S
C2627 C2629 1.384 . S
H2628 C2630 0.949 . S
C2629 C2627 1.384 . S
C2629 C2630 1.385 . S
C2629 H2631 0.950 . S
C2630 C2624 1.404 . S
C2630 H2628 0.949 . S
C2630 C2629 1.385 . S
H2631 C2629 0.950 . S
H2632 C2616 0.951 . S
H2633 C2618 0.951 . S
H2634 C2620 0.951 . S
H2635 C2621 0.950 . S
H2636 C2622 0.950 . S
H2637 C2623 0.950 . S
H2638 C2625 0.950 . S
H2639 C2626 0.951 . S
C2640 C2641 1.386 . S
C2640 C2642 1.383 . S
C2640 H2656 0.951 . S
C2641 C2640 1.386 . S
C2641 C2645 1.383 . S
C2642 C2640 1.383 . S
C2642 C2643 1.402 . S
C2642 H2657 0.951 . S
C2643 C2642 1.402 . S
C2643 C2644 1.375 . S
C2643 C2646 1.481 . S
C2644 C2643 1.375 . S
C2644 C2645 1.367 . S
C2644 H2658 0.951 . S
C2645 C2641 1.383 . S
C2645 C2644 1.367 . S
C2645 H2659 0.950 . S
C2646 C2643 1.481 . S
C2646 C2647 1.297 . S
C2646 H2660 0.950 . S
C2647 C2646 1.297 . S
C2647 C2648 1.479 . S
C2647 H2661 0.950 . S
C2648 C2647 1.479 . S
C2648 C2649 1.375 . S
C2648 C2654 1.404 . S
C2649 C2648 1.375 . S
C2649 C2650 1.369 . S
C2649 H2662 0.950 . S
C2650 C2649 1.369 . S
C2650 C2651 1.392 . S
C2650 H2663 0.951 . S
C2651 C2650 1.392 . S
C2651 C2653 1.384 . S
H2652 C2654 0.949 . S
C2653 C2651 1.384 . S
C2653 C2654 1.385 . S
C2653 H2655 0.950 . S
C2654 C2648 1.404 . S
C2654 H2652 0.949 . S
C2654 C2653 1.385 . S
H2655 C2653 0.950 . S
H2656 C2640 0.951 . S
H2657 C2642 0.951 . S
H2658 C2644 0.951 . S
H2659 C2645 0.950 . S
H2660 C2646 0.950 . S
H2661 C2647 0.950 . S
H2662 C2649 0.950 . S
H2663 C2650 0.951 . S
C2664 C2665 1.386 . S
C2664 C2666 1.383 . S
C2664 H2680 0.951 . S
C2665 C2664 1.386 . S
C2665 C2669 1.383 . S
C2666 C2664 1.383 . S
C2666 C2667 1.402 . S
C2666 H2681 0.951 . S
C2667 C2666 1.402 . S
C2667 C2668 1.375 . S
C2667 C2670 1.481 . S
C2668 C2667 1.375 . S
C2668 C2669 1.367 . S
C2668 H2682 0.951 . S
C2669 C2665 1.383 . S
C2669 C2668 1.367 . S
C2669 H2683 0.950 . S
C2670 C2667 1.481 . S
C2670 C2671 1.297 . S
C2670 H2684 0.950 . S
C2671 C2670 1.297 . S
C2671 C2672 1.479 . S
C2671 H2685 0.950 . S
C2672 C2671 1.479 . S
C2672 C2673 1.375 . S
C2672 C2678 1.404 . S
C2673 C2672 1.375 . S
C2673 C2674 1.369 . S
C2673 H2686 0.950 . S
C2674 C2673 1.369 . S
C2674 C2675 1.392 . S
C2674 H2687 0.951 . S
C2675 C2674 1.392 . S
C2675 C2677 1.384 . S
H2676 C2678 0.949 . S
C2677 C2675 1.384 . S
C2677 C2678 1.385 . S
C2677 H2679 0.950 . S
C2678 C2672 1.404 . S
C2678 H2676 0.949 . S
C2678 C2677 1.385 . S
H2679 C2677 0.950 . S
H2680 C2664 0.951 . S
H2681 C2666 0.951 . S
H2682 C2668 0.951 . S
H2683 C2669 0.950 . S
H2684 C2670 0.950 . S
H2685 C2671 0.950 . S
H2686 C2673 0.950 . S
H2687 C2674 0.951 . S
C2688 C2689 1.386 . S
C2688 C2690 1.383 . S
C2688 H2704 0.951 . S
C2689 C2688 1.386 . S
C2689 C2693 1.383 . S
C2690 C2688 1.383 . S
C2690 C2691 1.402 . S
C2690 H2705 0.951 . S
C2691 C2690 1.402 . S
C2691 C2692 1.375 . S
C2691 C2694 1.481 . S
C2692 C2691 1.375 . S
C2692 C2693 1.367 . S
C2692 H2706 0.951 . S
C2693 C2689 1.383 . S
C2693 C2692 1.367 . S
C2693 H2707 0.950 . S
C2694 C2691 1.481 . S
C2694 C2695 1.297 . S
C2694 H2708 0.950 . S
C2695 C2694 1.297 . S
C2695 C2696 1.479 . S
C2695 H2709 0.950 . S
C2696 C2695 1.479 . S
C2696 C2697 1.375 . S
C2696 C2702 1.404 . S
C2697 C2696 1.375 . S
C2697 C2698 1.369 . S
C2697 H2710 0.950 . S
C2698 C2697 1.369 . S
C2698 C2699 1.392 . S
C2698 H2711 0.951 . S
C2699 C2698 1.392 . S
C2699 C2701 1.384 . S
H2700 C2702 0.949 . S
C2701 C2699 1.384 . S
C2701 C2702 1.385 . S
C2701 H2703 0.950 . S
C2702 C2696 1.404 . S
C2702 H2700 0.949 . S
C2702 C2701 1.385 . S
H2703 C2701 0.950 . S
H2704 C2688 0.951 . S
H2705 C2690 0.951 . S
H2706 C2692 0.951 . S
H2707 C2693 0.950 . S
H2708 C2694 0.950 . S
H2709 C2695 0.950 . S
H2710 C2697 0.950 . S
H2711 C2698 0.951 . S
C2712 C2713 1.386 . S
C2712 C2714 1.383 . S
C2712 H2728 0.951 . S
C2713 C2712 1.386 . S
C2713 C2717 1.383 . S
C2714 C2712 1.383 . S
C2714 C2715 1.402 . S
C2714 H2729 0.951 . S
C2715 C2714 1.402 . S
C2715 C2716 1.375 . S
C2715 C2718 1.481 . S
C2716 C2715 1.375 . S
C2716 C2717 1.367 . S
C2716 H2730 0.951 . S
C2717 C2713 1.383 . S
C2717 C2716 1.367 . S
C2717 H2731 0.950 . S
C2718 C2715 1.481 . S
C2718 C2719 1.297 . S
C2718 H2732 0.950 . S
C2719 C2718 1.297 . S
C2719 C2720 1.479 . S
C2719 H2733 0.950 . S
C2720 C2719 1.479 . S
C2720 C2721 1.375 . S
C2720 C2726 1.404 . S
C2721 C2720 1.375 . S
C2721 C2722 1.369 . S
C2721 H2734 0.950 . S
C2722 C2721 1.369 . S
C2722 C2723 1.392 . S
C2722 H2735 0.951 . S
C2723 C2722 1.392 . S
C2723 C2725 1.384 . S
H2724 C2726 0.949 . S
C2725 C2723 1.384 . S
C2725 C2726 1.385 . S
C2725 H2727 0.950 . S
C2726 C2720 1.404 . S
C2726 H2724 0.949 . S
C2726 C2725 1.385 . S
H2727 C2725 0.950 . S
H2728 C2712 0.951 . S
H2729 C2714 0.951 . S
H2730 C2716 0.951 . S
H2731 C2717 0.950 . S
H2732 C2718 0.950 . S
H2733 C2719 0.950 . S
H2734 C2721 0.950 . S
H2735 C2722 0.951 . S
C2736 C2737 1.386 . S
C2736 C2738 1.383 . S
C2736 H2752 0.951 . S
C2737 C2736 1.386 . S
C2737 C2741 1.383 . S
C2738 C2736 1.383 . S
C2738 C2739 1.402 . S
C2738 H2753 0.951 . S
C2739 C2738 1.402 . S
C2739 C2740 1.375 . S
C2739 C2742 1.481 . S
C2740 C2739 1.375 . S
C2740 C2741 1.367 . S
C2740 H2754 0.951 . S
C2741 C2737 1.383 . S
C2741 C2740 1.367 . S
C2741 H2755 0.950 . S
C2742 C2739 1.481 . S
C2742 C2743 1.297 . S
C2742 H2756 0.950 . S
C2743 C2742 1.297 . S
C2743 C2744 1.479 . S
C2743 H2757 0.950 . S
C2744 C2743 1.479 . S
C2744 C2745 1.375 . S
C2744 C2750 1.404 . S
C2745 C2744 1.375 . S
C2745 C2746 1.369 . S
C2745 H2758 0.950 . S
C2746 C2745 1.369 . S
C2746 C2747 1.392 . S
C2746 H2759 0.951 . S
C2747 C2746 1.392 . S
C2747 C2749 1.384 . S
H2748 C2750 0.949 . S
C2749 C2747 1.384 . S
C2749 C2750 1.385 . S
C2749 H2751 0.950 . S
C2750 C2744 1.404 . S
C2750 H2748 0.949 . S
C2750 C2749 1.385 . S
H2751 C2749 0.950 . S
H2752 C2736 0.951 . S
H2753 C2738 0.951 . S
H2754 C2740 0.951 . S
H2755 C2741 0.950 . S
H2756 C2742 0.950 . S
H2757 C2743 0.950 . S
H2758 C2745 0.950 . S
H2759 C2746 0.951 . S
C2760 C2761 1.386 . S
C2760 C2762 1.383 . S
C2760 H2776 0.951 . S
C2761 C2760 1.386 . S
C2761 C2765 1.383 . S
C2762 C2760 1.383 . S
C2762 C2763 1.402 . S
C2762 H2777 0.951 . S
C2763 C2762 1.402 . S
C2763 C2764 1.375 . S
C2763 C2766 1.481 . S
C2764 C2763 1.375 . S
C2764 C2765 1.367 . S
C2764 H2778 0.951 . S
C2765 C2761 1.383 . S
C2765 C2764 1.367 . S
C2765 H2779 0.950 . S
C2766 C2763 1.481 . S
C2766 C2767 1.297 . S
C2766 H2780 0.950 . S
C2767 C2766 1.297 . S
C2767 C2768 1.479 . S
C2767 H2781 0.950 . S
C2768 C2767 1.479 . S
C2768 C2769 1.375 . S
C2768 C2774 1.404 . S
C2769 C2768 1.375 . S
C2769 C2770 1.369 . S
C2769 H2782 0.950 . S
C2770 C2769 1.369 . S
C2770 C2771 1.392 . S
C2770 H2783 0.951 . S
C2771 C2770 1.392 . S
C2771 C2773 1.384 . S
H2772 C2774 0.949 . S
C2773 C2771 1.384 . S
C2773 C2774 1.385 . S
C2773 H2775 0.950 . S
C2774 C2768 1.404 . S
C2774 H2772 0.949 . S
C2774 C2773 1.385 . S
H2775 C2773 0.950 . S
H2776 C2760 0.951 . S
H2777 C2762 0.951 . S
H2778 C2764 0.951 . S
H2779 C2765 0.950 . S
H2780 C2766 0.950 . S
H2781 C2767 0.950 . S
H2782 C2769 0.950 . S
H2783 C2770 0.951 . S
C2784 C2785 1.386 . S
C2784 C2786 1.383 . S
C2784 H2800 0.951 . S
C2785 C2784 1.386 . S
C2785 C2789 1.383 . S
C2786 C2784 1.383 . S
C2786 C2787 1.402 . S
C2786 H2801 0.951 . S
C2787 C2786 1.402 . S
C2787 C2788 1.375 . S
C2787 C2790 1.481 . S
C2788 C2787 1.375 . S
C2788 C2789 1.367 . S
C2788 H2802 0.951 . S
C2789 C2785 1.383 . S
C2789 C2788 1.367 . S
C2789 H2803 0.950 . S
C2790 C2787 1.481 . S
C2790 C2791 1.297 . S
C2790 H2804 0.950 . S
C2791 C2790 1.297 . S
C2791 C2792 1.479 . S
C2791 H2805 0.950 . S
C2792 C2791 1.479 . S
C2792 C2793 1.375 . S
C2792 C2798 1.404 . S
C2793 C2792 1.375 . S
C2793 C2794 1.369 . S
C2793 H2806 0.950 . S
C2794 C2793 1.369 . S
C2794 C2795 1.392 . S
C2794 H2807 0.951 . S
C2795 C2794 1.392 . S
C2795 C2797 1.384 . S
H2796 C2798 0.949 . S
C2797 C2795 1.384 . S
C2797 C2798 1.385 . S
C2797 H2799 0.950 . S
C2798 C2792 1.404 . S
C2798 H2796 0.949 . S
C2798 C2797 1.385 . S
H2799 C2797 0.950 . S
H2800 C2784 0.951 . S
H2801 C2786 0.951 . S
H2802 C2788 0.951 . S
H2803 C2789 0.950 . S
H2804 C2790 0.950 . S
H2805 C2791 0.950 . S
H2806 C2793 0.950 . S
H2807 C2794 0.951 . S
C2808 C2809 1.386 . S
C2808 C2810 1.383 . S
C2808 H2824 0.951 . S
C2809 C2808 1.386 . S
C2809 C2813 1.383 . S
C2810 C2808 1.383 . S
C2810 C2811 1.402 . S
C2810 H2825 0.951 . S
C2811 C2810 1.402 . S
C2811 C2812 1.375 . S
C2811 C2814 1.481 . S
C2812 C2811 1.375 . S
C2812 C2813 1.367 . S
C2812 H2826 0.951 . S
C2813 C2809 1.383 . S
C2813 C2812 1.367 . S
C2813 H2827 0.950 . S
C2814 C2811 1.481 . S
C2814 C2815 1.297 . S
C2814 H2828 0.950 . S
C2815 C2814 1.297 . S
C2815 C2816 1.479 . S
C2815 H2829 0.950 . S
C2816 C2815 1.479 . S
C2816 C2817 1.375 . S
C2816 C2822 1.404 . S
C2817 C2816 1.375 . S
C2817 C2818 1.369 . S
C2817 H2830 0.950 . S
C2818 C2817 1.369 . S
C2818 C2819 1.392 . S
C2818 H2831 0.951 . S
C2819 C2818 1.392 . S
C2819 C2821 1.384 . S
H2820 C2822 0.949 . S
C2821 C2819 1.384 . S
C2821 C2822 1.385 . S
C2821 H2823 0.950 . S
C2822 C2816 1.404 . S
C2822 H2820 0.949 . S
C2822 C2821 1.385 . S
H2823 C2821 0.950 . S
H2824 C2808 0.951 . S
H2825 C2810 0.951 . S
H2826 C2812 0.951 . S
H2827 C2813 0.950 . S
H2828 C2814 0.950 . S
H2829 C2815 0.950 . S
H2830 C2817 0.950 . S
H2831 C2818 0.951 . S
C2832 C2833 1.386 . S
C2832 C2834 1.383 . S
C2832 H2848 0.951 . S
C2833 C2832 1.386 . S
C2833 C2837 1.383 . S
C2834 C2832 1.383 . S
C2834 C2835 1.402 . S
C2834 H2849 0.951 . S
C2835 C2834 1.402 . S
C2835 C2836 1.375 . S
C2835 C2838 1.481 . S
C2836 C2835 1.375 . S
C2836 C2837 1.367 . S
C2836 H2850 0.951 . S
C2837 C2833 1.383 . S
C2837 C2836 1.367 . S
C2837 H2851 0.950 . S
C2838 C2835 1.481 . S
C2838 C2839 1.297 . S
C2838 H2852 0.950 . S
C2839 C2838 1.297 . S
C2839 C2840 1.479 . S
C2839 H2853 0.950 . S
C2840 C2839 1.479 . S
C2840 C2841 1.375 . S
C2840 C2846 1.404 . S
C2841 C2840 1.375 . S
C2841 C2842 1.369 . S
C2841 H2854 0.950 . S
C2842 C2841 1.369 . S
C2842 C2843 1.392 . S
C2842 H2855 0.951 . S
C2843 C2842 1.392 . S
C2843 C2845 1.384 . S
H2844 C2846 0.949 . S
C2845 C2843 1.384 . S
C2845 C2846 1.385 . S
C2845 H2847 0.950 . S
C2846 C2840 1.404 . S
C2846 H2844 0.949 . S
C2846 C2845 1.385 . S
H2847 C2845 0.950 . S
H2848 C2832 0.951 . S
H2849 C2834 0.951 . S
H2850 C2836 0.951 . S
H2851 C2837 0.950 . S
H2852 C2838 0.950 . S
H2853 C2839 0.950 . S
H2854 C2841 0.950 . S
H2855 C2842 0.951 . S
C2856 C2857 1.386 . S
C2856 C2858 1.383 . S
C2856 H2872 0.951 . S
C2857 C2856 1.386 . S
C2857 C2861 1.383 . S
C2858 C2856 1.383 . S
C2858 C2859 1.402 . S
C2858 H2873 0.951 . S
C2859 C2858 1.402 . S
C2859 C2860 1.375 . S
C2859 C2862 1.481 . S
C2860 C2859 1.375 . S
C2860 C2861 1.367 . S
C2860 H2874 0.951 . S
C2861 C2857 1.383 . S
C2861 C2860 1.367 . S
C2861 H2875 0.950 . S
C2862 C2859 1.481 . S
C2862 C2863 1.297 . S
C2862 H2876 0.950 . S
C2863 C2862 1.297 . S
C2863 C2864 1.479 . S
C2863 H2877 0.950 . S
C2864 C2863 1.479 . S
C2864 C2865 1.375 . S
C2864 C2870 1.404 . S
C2865 C2864 1.375 . S
C2865 C2866 1.369 . S
C2865 H2878 0.950 . S
C2866 C2865 1.369 . S
C2866 C2867 1.392 . S
C2866 H2879 0.951 . S
C2867 C2866 1.392 . S
C2867 C2869 1.384 . S
H2868 C2870 0.949 . S
C2869 C2867 1.384 . S
C2869 C2870 1.385 . S
C2869 H2871 0.950 . S
C2870 C2864 1.404 . S
C2870 H2868 0.949 . S
C2870 C2869 1.385 . S
H2871 C2869 0.950 . S
H2872 C2856 0.951 . S
H2873 C2858 0.951 . S
H2874 C2860 0.951 . S
H2875 C2861 0.950 . S
H2876 C2862 0.950 . S
H2877 C2863 0.950 . S
H2878 C2865 0.950 . S
H2879 C2866 0.951 . S
C2880 C2881 1.386 . S
C2880 C2882 1.383 . S
C2880 H2896 0.951 . S
C2881 C2880 1.386 . S
C2881 C2885 1.383 . S
C2882 C2880 1.383 . S
C2882 C2883 1.402 . S
C2882 H2897 0.951 . S
C2883 C2882 1.402 . S
C2883 C2884 1.375 . S
C2883 C2886 1.481 . S
C2884 C2883 1.375 . S
C2884 C2885 1.367 . S
C2884 H2898 0.951 . S
C2885 C2881 1.383 . S
C2885 C2884 1.367 . S
C2885 H2899 0.950 . S
C2886 C2883 1.481 . S
C2886 C2887 1.297 . S
C2886 H2900 0.950 . S
C2887 C2886 1.297 . S
C2887 C2888 1.479 . S
C2887 H2901 0.950 . S
C2888 C2887 1.479 . S
C2888 C2889 1.375 . S
C2888 C2894 1.404 . S
C2889 C2888 1.375 . S
C2889 C2890 1.369 . S
C2889 H2902 0.950 . S
C2890 C2889 1.369 . S
C2890 C2891 1.392 . S
C2890 H2903 0.951 . S
C2891 C2890 1.392 . S
C2891 C2893 1.384 . S
H2892 C2894 0.949 . S
C2893 C2891 1.384 . S
C2893 C2894 1.385 . S
C2893 H2895 0.950 . S
C2894 C2888 1.404 . S
C2894 H2892 0.949 . S
C2894 C2893 1.385 . S
H2895 C2893 0.950 . S
H2896 C2880 0.951 . S
H2897 C2882 0.951 . S
H2898 C2884 0.951 . S
H2899 C2885 0.950 . S
H2900 C2886 0.950 . S
H2901 C2887 0.950 . S
H2902 C2889 0.950 . S
H2903 C2890 0.951 . S
C2904 C2905 1.386 . S
C2904 C2906 1.383 . S
C2904 H2920 0.951 . S
C2905 C2904 1.386 . S
C2905 C2909 1.383 . S
C2906 C2904 1.383 . S
C2906 C2907 1.402 . S
C2906 H2921 0.951 . S
C2907 C2906 1.402 . S
C2907 C2908 1.375 . S
C2907 C2910 1.481 . S
C2908 C2907 1.375 . S
C2908 C2909 1.367 . S
C2908 H2922 0.951 . S
C2909 C2905 1.383 . S
C2909 C2908 1.367 . S
C2909 H2923 0.950 . S
C2910 C2907 1.481 . S
C2910 C2911 1.297 . S
C2910 H2924 0.950 . S
C2911 C2910 1.297 . S
C2911 C2912 1.479 . S
C2911 H2925 0.950 . S
C2912 C2911 1.479 . S
C2912 C2913 1.375 . S
C2912 C2918 1.404 . S
C2913 C2912 1.375 . S
C2913 C2914 1.369 . S
C2913 H2926 0.950 . S
C2914 C2913 1.369 . S
C2914 C2915 1.392 . S
C2914 H2927 0.951 . S
C2915 C2914 1.392 . S
C2915 C2917 1.384 . S
H2916 C2918 0.949 . S
C2917 C2915 1.384 . S
C2917 C2918 1.385 . S
C2917 H2919 0.950 . S
C2918 C2912 1.404 . S
C2918 H2916 0.949 . S
C2918 C2917 1.385 . S
H2919 C2917 0.950 . S
H2920 C2904 0.951 . S
H2921 C2906 0.951 . S
H2922 C2908 0.951 . S
H2923 C2909 0.950 . S
H2924 C2910 0.950 . S
H2925 C2911 0.950 . S
H2926 C2913 0.950 . S
H2927 C2914 0.951 . S
C2928 C2929 1.386 . S
C2928 C2930 1.383 . S
C2928 H2944 0.951 . S
C2929 C2928 1.386 . S
C2929 C2933 1.383 . S
C2930 C2928 1.383 . S
C2930 C2931 1.402 . S
C2930 H2945 0.951 . S
C2931 C2930 1.402 . S
C2931 C2932 1.375 . S
C2931 C2934 1.481 . S
C2932 C2931 1.375 . S
C2932 C2933 1.367 . S
C2932 H2946 0.951 . S
C2933 C2929 1.383 . S
C2933 C2932 1.367 . S
C2933 H2947 0.950 . S
C2934 C2931 1.481 . S
C2934 C2935 1.297 . S
C2934 H2948 0.950 . S
C2935 C2934 1.297 . S
C2935 C2936 1.479 . S
C2935 H2949 0.950 . S
C2936 C2935 1.479 . S
C2936 C2937 1.375 . S
C2936 C2942 1.404 . S
C2937 C2936 1.375 . S
C2937 C2938 1.369 . S
C2937 H2950 0.950 . S
C2938 C2937 1.369 . S
C2938 C2939 1.392 . S
C2938 H2951 0.951 . S
C2939 C2938 1.392 . S
C2939 C2941 1.384 . S
H2940 C2942 0.949 . S
C2941 C2939 1.384 . S
C2941 C2942 1.385 . S
C2941 H2943 0.950 . S
C2942 C2936 1.404 . S
C2942 H2940 0.949 . S
C2942 C2941 1.385 . S
H2943 C2941 0.950 . S
H2944 C2928 0.951 . S
H2945 C2930 0.951 . S
H2946 C2932 0.951 . S
H2947 C2933 0.950 . S
H2948 C2934 0.950 . S
H2949 C2935 0.950 . S
H2950 C2937 0.950 . S
H2951 C2938 0.951 . S
C2952 C2953 1.386 . S
C2952 C2954 1.383 . S
C2952 H2968 0.951 . S
C2953 C2952 1.386 . S
C2953 C2957 1.383 . S
C2954 C2952 1.383 . S
C2954 C2955 1.402 . S
C2954 H2969 0.951 . S
C2955 C2954 1.402 . S
C2955 C2956 1.375 . S
C2955 C2958 1.481 . S
C2956 C2955 1.375 . S
C2956 C2957 1.367 . S
C2956 H2970 0.951 . S
C2957 C2953 1.383 . S
C2957 C2956 1.367 . S
C2957 H2971 0.950 . S
C2958 C2955 1.481 . S
C2958 C2959 1.297 . S
C2958 H2972 0.950 . S
C2959 C2958 1.297 . S
C2959 C2960 1.479 . S
C2959 H2973 0.950 . S
C2960 C2959 1.479 . S
C2960 C2961 1.375 . S
C2960 C2966 1.404 . S
C2961 C2960 1.375 . S
C2961 C2962 1.369 . S
C2961 H2974 0.950 . S
C2962 C2961 1.369 . S
C2962 C2963 1.392 . S
C2962 H2975 0.951 . S
C2963 C2962 1.392 . S
C2963 C2965 1.384 . S
H2964 C2966 0.949 . S
C2965 C2963 1.384 . S
C2965 C2966 1.385 . S
C2965 H2967 0.950 . S
C2966 C2960 1.404 . S
C2966 H2964 0.949 . S
C2966 C2965 1.385 . S
H2967 C2965 0.950 . S
H2968 C2952 0.951 . S
H2969 C2954 0.951 . S
H2970 C2956 0.951 . S
H2971 C2957 0.950 . S
H2972 C2958 0.950 . S
H2973 C2959 0.950 . S
H2974 C2961 0.950 . S
H2975 C2962 0.951 . S
C2976 C2977 1.386 . S
C2976 C2978 1.383 . S
C2976 H2992 0.951 . S
C2977 C2976 1.386 . S
C2977 C2981 1.383 . S
C2978 C2976 1.383 . S
C2978 C2979 1.402 . S
C2978 H2993 0.951 . S
C2979 C2978 1.402 . S
C2979 C2980 1.375 . S
C2979 C2982 1.481 . S
C2980 C2979 1.375 . S
C2980 C2981 1.367 . S
C2980 H2994 0.951 . S
C2981 C2977 1.383 . S
C2981 C2980 1.367 . S
C2981 H2995 0.950 . S
C2982 C2979 1.481 . S
C2982 C2983 1.297 . S
C2982 H2996 0.950 . S
C2983 C2982 1.297 . S
C2983 C2984 1.479 . S
C2983 H2997 0.950 . S
C2984 C2983 1.479 . S
C2984 C2985 1.375 . S
C2984 C2990 1.404 . S
C2985 C2984 1.375 . S
C2985 C2986 1.369 . S
C2985 H2998 0.950 . S
C2986 C2985 1.369 . S
C2986 C2987 1.392 . S
C2986 H2999 0.951 . S
C2987 C2986 1.392 . S
C2987 C2989 1.384 . S
H2988 C2990 0.949 . S
C2989 C2987 1.384 . S
C2989 C2990 1.385 . S
C2989 H2991 0.950 . S
C2990 C2984 1.404 . S
C2990 H2988 0.949 . S
C2990 C2989 1.385 . S
H2991 C2989 0.950 . S
H2992 C2976 0.951 . S
H2993 C2978 0.951 . S
H2994 C2980 0.951 . S
H2995 C2981 0.950 . S
H2996 C2982 0.950 . S
H2997 C2983 0.950 . S
H2998 C2985 0.950 . S
H2999 C2986 0.951 . S
C3000 C3001 1.386 . S
C3000 C3002 1.383 . S
C3000 H3016 0.951 . S
C3001 C3000 1.386 . S
C3001 C3005 1.383 . S
C3002 C3000 1.383 . S
C3002 C3003 1.402 . S
C3002 H3017 0.951 . S
C3003 C3002 1.402 . S
C3003 C3004 1.375 . S
C3003 C3006 1.481 . S
C3004 C3003 1.375 . S
C3004 C3005 1.367 . S
C3004 H3018 0.951 . S
C3005 C3001 1.383 . S
C3005 C3004 1.367 . S
C3005 H3019 0.950 . S
C3006 C3003 1.481 . S
C3006 C3007 1.297 . S
C3006 H3020 0.950 . S
C3007 C3006 1.297 . S
C3007 C3008 1.479 . S
C3007 H3021 0.950 . S
C3008 C3007 1.479 . S
C3008 C3009 1.375 . S
C3008 C3014 1.404 . S
C3009 C3008 1.375 . S
C3009 C3010 1.369 . S
C3009 H3022 0.950 . S
C3010 C3009 1.369 . S
C3010 C3011 1.392 . S
C3010 H3023 0.951 . S
C3011 C3010 1.392 . S
C3011 C3013 1.384 . S
H3012 C3014 0.949 . S
C3013 C3011 1.384 . S
C3013 C3014 1.385 . S
C3013 H3015 0.950 . S
C3014 C3008 1.404 . S
C3014 H3012 0.949 . S
C3014 C3013 1.385 . S
H3015 C3013 0.950 . S
H3016 C3000 0.951 . S
H3017 C3002 0.951 . S
H3018 C3004 0.951 . S
H3019 C3005 0.950 . S
H3020 C3006 0.950 . S
H3021 C3007 0.950 . S
H3022 C3009 0.950 . S
H3023 C3010 0.951 . S
C3024 C3025 1.386 . S
C3024 C3026 1.383 . S
C3024 H3040 0.951 . S
C3025 C3024 1.386 . S
C3025 C3029 1.383 . S
C3026 C3024 1.383 . S
C3026 C3027 1.402 . S
C3026 H3041 0.951 . S
C3027 C3026 1.402 . S
C3027 C3028 1.375 . S
C3027 C3030 1.481 . S
C3028 C3027 1.375 . S
C3028 C3029 1.367 . S
C3028 H3042 0.951 . S
C3029 C3025 1.383 . S
C3029 C3028 1.367 . S
C3029 H3043 0.950 . S
C3030 C3027 1.481 . S
C3030 C3031 1.297 . S
C3030 H3044 0.950 . S
C3031 C3030 1.297 . S
C3031 C3032 1.479 . S
C3031 H3045 0.950 . S
C3032 C3031 1.479 . S
C3032 C3033 1.375 . S
C3032 C3038 1.404 . S
C3033 C3032 1.375 . S
C3033 C3034 1.369 . S
C3033 H3046 0.950 . S
C3034 C3033 1.369 . S
C3034 C3035 1.392 . S
C3034 H3047 0.951 . S
C3035 C3034 1.392 . S
C3035 C3037 1.384 . S
H3036 C3038 0.949 . S
C3037 C3035 1.384 . S
C3037 C3038 1.385 . S
C3037 H3039 0.950 . S
C3038 C3032 1.404 . S
C3038 H3036 0.949 . S
C3038 C3037 1.385 . S
H3039 C3037 0.950 . S
H3040 C3024 0.951 . S
H3041 C3026 0.951 . S
H3042 C3028 0.951 . S
H3043 C3029 0.950 . S
H3044 C3030 0.950 . S
H3045 C3031 0.950 . S
H3046 C3033 0.950 . S
H3047 C3034 0.951 . S
C3048 C3049 1.386 . S
C3048 C3050 1.383 . S
C3048 H3064 0.951 . S
C3049 C3048 1.386 . S
C3049 C3053 1.383 . S
C3050 C3048 1.383 . S
C3050 C3051 1.402 . S
C3050 H3065 0.951 . S
C3051 C3050 1.402 . S
C3051 C3052 1.375 . S
C3051 C3054 1.481 . S
C3052 C3051 1.375 . S
C3052 C3053 1.367 . S
C3052 H3066 0.951 . S
C3053 C3049 1.383 . S
C3053 C3052 1.367 . S
C3053 H3067 0.950 . S
C3054 C3051 1.481 . S
C3054 C3055 1.297 . S
C3054 H3068 0.950 . S
C3055 C3054 1.297 . S
C3055 C3056 1.479 . S
C3055 H3069 0.950 . S
C3056 C3055 1.479 . S
C3056 C3057 1.375 . S
C3056 C3062 1.404 . S
C3057 C3056 1.375 . S
C3057 C3058 1.369 . S
C3057 H3070 0.950 . S
C3058 C3057 1.369 . S
C3058 C3059 1.392 . S
C3058 H3071 0.951 . S
C3059 C3058 1.392 . S
C3059 C3061 1.384 . S
H3060 C3062 0.949 . S
C3061 C3059 1.384 . S
C3061 C3062 1.385 . S
C3061 H3063 0.950 . S
C3062 C3056 1.404 . S
C3062 H3060 0.949 . S
C3062 C3061 1.385 . S
H3063 C3061 0.950 . S
H3064 C3048 0.951 . S
H3065 C3050 0.951 . S
H3066 C3052 0.951 . S
H3067 C3053 0.950 . S
H3068 C3054 0.950 . S
H3069 C3055 0.950 . S
H3070 C3057 0.950 . S
H3071 C3058 0.951 . S
C3072 C3073 1.386 . S
C3072 C3074 1.383 . S
C3072 H3088 0.951 . S
C3073 C3072 1.386 . S
C3073 C3077 1.383 . S
C3074 C3072 1.383 . S
C3074 C3075 1.402 . S
C3074 H3089 0.951 . S
C3075 C3074 1.402 . S
C3075 C3076 1.375 . S
C3075 C3078 1.481 . S
C3076 C3075 1.375 . S
C3076 C3077 1.367 . S
C3076 H3090 0.951 . S
C3077 C3073 1.383 . S
C3077 C3076 1.367 . S
C3077 H3091 0.950 . S
C3078 C3075 1.481 . S
C3078 C3079 1.297 . S
C3078 H3092 0.950 . S
C3079 C3078 1.297 . S
C3079 C3080 1.479 . S
C3079 H3093 0.950 . S
C3080 C3079 1.479 . S
C3080 C3081 1.375 . S
C3080 C3086 1.404 . S
C3081 C3080 1.375 . S
C3081 C3082 1.369 . S
C3081 H3094 0.950 . S
C3082 C3081 1.369 . S
C3082 C3083 1.392 . S
C3082 H3095 0.951 . S
C3083 C3082 1.392 . S
C3083 C3085 1.384 . S
H3084 C3086 0.949 . S
C3085 C3083 1.384 . S
C3085 C3086 1.385 . S
C3085 H3087 0.950 . S
C3086 C3080 1.404 . S
C3086 H3084 0.949 . S
C3086 C3085 1.385 . S
H3087 C3085 0.950 . S
H3088 C3072 0.951 . S
H3089 C3074 0.951 . S
H3090 C3076 0.951 . S
H3091 C3077 0.950 . S
H3092 C3078 0.950 . S
H3093 C3079 0.950 . S
H3094 C3081 0.950 . S
H3095 C3082 0.951 . S
C3096 C3097 1.386 . S
C3096 C3098 1.383 . S
C3096 H3112 0.951 . S
C3097 C3096 1.386 . S
C3097 C3101 1.383 . S
C3098 C3096 1.383 . S
C3098 C3099 1.402 . S
C3098 H3113 0.951 . S
C3099 C3098 1.402 . S
C3099 C3100 1.375 . S
C3099 C3102 1.481 . S
C3100 C3099 1.375 . S
C3100 C3101 1.367 . S
C3100 H3114 0.951 . S
C3101 C3097 1.383 . S
C3101 C3100 1.367 . S
C3101 H3115 0.950 . S
C3102 C3099 1.481 . S
C3102 C3103 1.297 . S
C3102 H3116 0.950 . S
C3103 C3102 1.297 . S
C3103 C3104 1.479 . S
C3103 H3117 0.950 . S
C3104 C3103 1.479 . S
C3104 C3105 1.375 . S
C3104 C3110 1.404 . S
C3105 C3104 1.375 . S
C3105 C3106 1.369 . S
C3105 H3118 0.950 . S
C3106 C3105 1.369 . S
C3106 C3107 1.392 . S
C3106 H3119 0.951 . S
C3107 C3106 1.392 . S
C3107 C3109 1.384 . S
H3108 C3110 0.949 . S
C3109 C3107 1.384 . S
C3109 C3110 1.385 . S
C3109 H3111 0.950 . S
C3110 C3104 1.404 . S
C3110 H3108 0.949 . S
C3110 C3109 1.385 . S
H3111 C3109 0.950 . S
H3112 C3096 0.951 . S
H3113 C3098 0.951 . S
H3114 C3100 0.951 . S
H3115 C3101 0.950 . S
H3116 C3102 0.950 . S
H3117 C3103 0.950 . S
H3118 C3105 0.950 . S
H3119 C3106 0.951 . S
C3120 C3121 1.386 . S
C3120 C3122 1.383 . S
C3120 H3136 0.951 . S
C3121 C3120 1.386 . S
C3121 C3125 1.383 . S
C3122 C3120 1.383 . S
C3122 C3123 1.402 . S
C3122 H3137 0.951 . S
C3123 C3122 1.402 . S
C3123 C3124 1.375 . S
C3123 C3126 1.481 . S
C3124 C3123 1.375 . S
C3124 C3125 1.367 . S
C3124 H3138 0.951 . S
C3125 C3121 1.383 . S
C3125 C3124 1.367 . S
C3125 H3139 0.950 . S
C3126 C3123 1.481 . S
C3126 C3127 1.297 . S
C3126 H3140 0.950 . S
C3127 C3126 1.297 . S
C3127 C3128 1.479 . S
C3127 H3141 0.950 . S
C3128 C3127 1.479 . S
C3128 C3129 1.375 . S
C3128 C3134 1.404 . S
C3129 C3128 1.375 . S
C3129 C3130 1.369 . S
C3129 H3142 0.950 . S
C3130 C3129 1.369 . S
C3130 C3131 1.392 . S
C3130 H3143 0.951 . S
C3131 C3130 1.392 . S
C3131 C3133 1.384 . S
H3132 C3134 0.949 . S
C3133 C3131 1.384 . S
C3133 C3134 1.385 . S
C3133 H3135 0.950 . S
C3134 C3128 1.404 . S
C3134 H3132 0.949 . S
C3134 C3133 1.385 . S
H3135 C3133 0.950 . S
H3136 C3120 0.951 . S
H3137 C3122 0.951 . S
H3138 C3124 0.951 . S
H3139 C3125 0.950 . S
H3140 C3126 0.950 . S
H3141 C3127 0.950 . S
H3142 C3129 0.950 . S
H3143 C3130 0.951 . S
C3144 C3145 1.386 . S
C3144 C3146 1.383 . S
C3144 H3160 0.951 . S
C3145 C3144 1.386 . S
C3145 C3149 1.383 . S
C3146 C3144 1.383 . S
C3146 C3147 1.402 . S
C3146 H3161 0.951 . S
C3147 C3146 1.402 . S
C3147 C3148 1.375 . S
C3147 C3150 1.481 . S
C3148 C3147 1.375 . S
C3148 C3149 1.367 . S
C3148 H3162 0.951 . S
C3149 C3145 1.383 . S
C3149 C3148 1.367 . S
C3149 H3163 0.950 . S
C3150 C3147 1.481 . S
C3150 C3151 1.297 . S
C3150 H3164 0.950 . S
C3151 C3150 1.297 . S
C3151 C3152 1.479 . S
C3151 H3165 0.950 . S
C3152 C3151 1.479 . S
C3152 C3153 1.375 . S
C3152 C3158 1.404 . S
C3153 C3152 1.375 . S
C3153 C3154 1.369 . S
C3153 H3166 0.950 . S
C3154 C3153 1.369 . S
C3154 C3155 1.392 . S
C3154 H3167 0.951 . S
C3155 C3154 1.392 . S
C3155 C3157 1.384 . S
H3156 C3158 0.949 . S
C3157 C3155 1.384 . S
C3157 C3158 1.385 . S
C3157 H3159 0.950 . S
C3158 C3152 1.404 . S
C3158 H3156 0.949 . S
C3158 C3157 1.385 . S
H3159 C3157 0.950 . S
H3160 C3144 0.951 . S
H3161 C3146 0.951 . S
H3162 C3148 0.951 . S
H3163 C3149 0.950 . S
H3164 C3150 0.950 . S
H3165 C3151 0.950 . S
H3166 C3153 0.950 . S
H3167 C3154 0.951 . S
C3168 C3169 1.386 . S
C3168 C3170 1.383 . S
C3168 H3184 0.951 . S
C3169 C3168 1.386 . S
C3169 C3173 1.383 . S
C3170 C3168 1.383 . S
C3170 C3171 1.402 . S
C3170 H3185 0.951 . S
C3171 C3170 1.402 . S
C3171 C3172 1.375 . S
C3171 C3174 1.481 . S
C3172 C3171 1.375 . S
C3172 C3173 1.367 . S
C3172 H3186 0.951 . S
C3173 C3169 1.383 . S
C3173 C3172 1.367 . S
C3173 H3187 0.950 . S
C3174 C3171 1.481 . S
C3174 C3175 1.297 . S
C3174 H3188 0.950 . S
C3175 C3174 1.297 . S
C3175 C3176 1.479 . S
C3175 H3189 0.950 . S
C3176 C3175 1.479 . S
C3176 C3177 1.375 . S
C3176 C3182 1.404 . S
C3177 C3176 1.375 . S
C3177 C3178 1.369 . S
C3177 H3190 0.950 . S
C3178 C3177 1.369 . S
C3178 C3179 1.392 . S
C3178 H3191 0.951 . S
C3179 C3178 1.392 . S
C3179 C3181 1.384 . S
H3180 C3182 0.949 . S
C3181 C3179 1.384 . S
C3181 C3182 1.385 . S
C3181 H3183 0.950 . S
C3182 C3176 1.404 . S
C3182 H3180 0.949 . S
C3182 C3181 1.385 . S
H3183 C3181 0.950 . S
H3184 C3168 0.951 . S
H3185 C3170 0.951 . S
H3186 C3172 0.951 . S
H3187 C3173 0.950 . S
H3188 C3174 0.950 . S
H3189 C3175 0.950 . S
H3190 C3177 0.950 . S
H3191 C3178 0.951 . S
C3192 C3193 1.386 . S
C3192 C3194 1.383 . S
C3192 H3208 0.951 . S
C3193 C3192 1.386 . S
C3193 C3197 1.383 . S
C3194 C3192 1.383 . S
C3194 C3195 1.402 . S
C3194 H3209 0.951 . S
C3195 C3194 1.402 . S
C3195 C3196 1.375 . S
C3195 C3198 1.481 . S
C3196 C3195 1.375 . S
C3196 C3197 1.367 . S
C3196 H3210 0.951 . S
C3197 C3193 1.383 . S
C3197 C3196 1.367 . S
C3197 H3211 0.950 . S
C3198 C3195 1.481 . S
C3198 C3199 1.297 . S
C3198 H3212 0.950 . S
C3199 C3198 1.297 . S
C3199 C3200 1.479 . S
C3199 H3213 0.950 . S
C3200 C3199 1.479 . S
C3200 C3201 1.375 . S
C3200 C3206 1.404 . S
C3201 C3200 1.375 . S
C3201 C3202 1.369 . S
C3201 H3214 0.950 . S
C3202 C3201 1.369 . S
C3202 C3203 1.392 . S
C3202 H3215 0.951 . S
C3203 C3202 1.392 . S
C3203 C3205 1.384 . S
H3204 C3206 0.949 . S
C3205 C3203 1.384 . S
C3205 C3206 1.385 . S
C3205 H3207 0.950 . S
C3206 C3200 1.404 . S
C3206 H3204 0.949 . S
C3206 C3205 1.385 . S
H3207 C3205 0.950 . S
H3208 C3192 0.951 . S
H3209 C3194 0.951 . S
H3210 C3196 0.951 . S
H3211 C3197 0.950 . S
H3212 C3198 0.950 . S
H3213 C3199 0.950 . S
H3214 C3201 0.950 . S
H3215 C3202 0.951 . S
C3216 C3217 1.386 . S
C3216 C3218 1.383 . S
C3216 H3232 0.951 . S
C3217 C3216 1.386 . S
C3217 C3221 1.383 . S
C3218 C3216 1.383 . S
C3218 C3219 1.402 . S
C3218 H3233 0.951 . S
C3219 C3218 1.402 . S
C3219 C3220 1.375 . S
C3219 C3222 1.481 . S
C3220 C3219 1.375 . S
C3220 C3221 1.367 . S
C3220 H3234 0.951 . S
C3221 C3217 1.383 . S
C3221 C3220 1.367 . S
C3221 H3235 0.950 . S
C3222 C3219 1.481 . S
C3222 C3223 1.297 . S
C3222 H3236 0.950 . S
C3223 C3222 1.297 . S
C3223 C3224 1.479 . S
C3223 H3237 0.950 . S
C3224 C3223 1.479 . S
C3224 C3225 1.375 . S
C3224 C3230 1.404 . S
C3225 C3224 1.375 . S
C3225 C3226 1.369 . S
C3225 H3238 0.950 . S
C3226 C3225 1.369 . S
C3226 C3227 1.392 . S
C3226 H3239 0.951 . S
C3227 C3226 1.392 . S
C3227 C3229 1.384 . S
H3228 C3230 0.949 . S
C3229 C3227 1.384 . S
C3229 C3230 1.385 . S
C3229 H3231 0.950 . S
C3230 C3224 1.404 . S
C3230 H3228 0.949 . S
C3230 C3229 1.385 . S
H3231 C3229 0.950 . S
H3232 C3216 0.951 . S
H3233 C3218 0.951 . S
H3234 C3220 0.951 . S
H3235 C3221 0.950 . S
H3236 C3222 0.950 . S
H3237 C3223 0.950 . S
H3238 C3225 0.950 . S
H3239 C3226 0.951 . S
C3240 C3241 1.386 . S
C3240 C3242 1.383 . S
C3240 H3256 0.951 . S
C3241 C3240 1.386 . S
C3241 C3245 1.383 . S
C3242 C3240 1.383 . S
C3242 C3243 1.402 . S
C3242 H3257 0.951 . S
C3243 C3242 1.402 . S
C3243 C3244 1.375 . S
C3243 C3246 1.481 . S
C3244 C3243 1.375 . S
C3244 C3245 1.367 . S
C3244 H3258 0.951 . S
C3245 C3241 1.383 . S
C3245 C3244 1.367 . S
C3245 H3259 0.950 1_556 S
C3246 C3243 1.481 . S
C3246 C3247 1.297 . S
C3246 H3260 0.950 . S
C3247 C3246 1.297 . S
C3247 C3248 1.479 . S
C3247 H3261 0.950 . S
C3248 C3247 1.479 . S
C3248 C3249 1.375 . S
C3248 C3254 1.404 . S
C3249 C3248 1.375 . S
C3249 C3250 1.369 . S
C3249 H3262 0.950 . S
C3250 C3249 1.369 . S
C3250 C3251 1.392 . S
C3250 H3263 0.951 . S
C3251 C3250 1.392 . S
C3251 C3253 1.384 . S
H3252 C3254 0.949 . S
C3253 C3251 1.384 . S
C3253 C3254 1.385 . S
C3253 H3255 0.950 . S
C3254 C3248 1.404 . S
C3254 H3252 0.949 . S
C3254 C3253 1.385 . S
H3255 C3253 0.950 . S
H3256 C3240 0.951 . S
H3257 C3242 0.951 . S
H3258 C3244 0.951 . S
H3259 C3245 0.950 1_554 S
H3260 C3246 0.950 . S
H3261 C3247 0.950 . S
H3262 C3249 0.950 . S
H3263 C3250 0.951 . S
C3264 C3265 1.386 . S
C3264 C3266 1.383 . S
C3264 H3280 0.951 . S
C3265 C3264 1.386 . S
C3265 C3269 1.383 . S
C3266 C3264 1.383 . S
C3266 C3267 1.402 . S
C3266 H3281 0.951 . S
C3267 C3266 1.402 . S
C3267 C3268 1.375 . S
C3267 C3270 1.481 . S
C3268 C3267 1.375 . S
C3268 C3269 1.367 . S
C3268 H3282 0.951 . S
C3269 C3265 1.383 . S
C3269 C3268 1.367 . S
C3269 H3283 0.950 . S
C3270 C3267 1.481 . S
C3270 C3271 1.297 . S
C3270 H3284 0.950 . S
C3271 C3270 1.297 . S
C3271 C3272 1.479 . S
C3271 H3285 0.950 . S
C3272 C3271 1.479 . S
C3272 C3273 1.375 . S
C3272 C3278 1.404 . S
C3273 C3272 1.375 . S
C3273 C3274 1.369 . S
C3273 H3286 0.950 . S
C3274 C3273 1.369 . S
C3274 C3275 1.392 . S
C3274 H3287 0.951 . S
C3275 C3274 1.392 . S
C3275 C3277 1.384 . S
H3276 C3278 0.949 . S
C3277 C3275 1.384 . S
C3277 C3278 1.385 . S
C3277 H3279 0.950 . S
C3278 C3272 1.404 . S
C3278 H3276 0.949 . S
C3278 C3277 1.385 . S
H3279 C3277 0.950 . S
H3280 C3264 0.951 . S
H3281 C3266 0.951 . S
H3282 C3268 0.951 . S
H3283 C3269 0.950 . S
H3284 C3270 0.950 . S
H3285 C3271 0.950 . S
H3286 C3273 0.950 . S
H3287 C3274 0.951 . S
C3288 C3289 1.386 . S
C3288 C3290 1.383 . S
C3288 H3304 0.951 1_556 S
C3289 C3288 1.386 . S
C3289 C3293 1.383 . S
C3290 C3288 1.383 . S
C3290 C3291 1.402 . S
C3290 H3305 0.951 . S
C3291 C3290 1.402 . S
C3291 C3292 1.375 . S
C3291 C3294 1.481 . S
C3292 C3291 1.375 . S
C3292 C3293 1.367 . S
C3292 H3306 0.951 . S
C3293 C3289 1.383 . S
C3293 C3292 1.367 . S
C3293 H3307 0.950 . S
C3294 C3291 1.481 . S
C3294 C3295 1.297 . S
C3294 H3308 0.950 . S
C3295 C3294 1.297 . S
C3295 C3296 1.479 . S
C3295 H3309 0.950 . S
C3296 C3295 1.479 . S
C3296 C3297 1.375 . S
C3296 C3302 1.404 . S
C3297 C3296 1.375 . S
C3297 C3298 1.369 . S
C3297 H3310 0.950 . S
C3298 C3297 1.369 . S
C3298 C3299 1.392 . S
C3298 H3311 0.951 . S
C3299 C3298 1.392 . S
C3299 C3301 1.384 . S
H3300 C3302 0.949 . S
C3301 C3299 1.384 . S
C3301 C3302 1.385 . S
C3301 H3303 0.950 . S
C3302 C3296 1.404 . S
C3302 H3300 0.949 . S
C3302 C3301 1.385 . S
H3303 C3301 0.950 . S
H3304 C3288 0.951 1_554 S
H3305 C3290 0.951 . S
H3306 C3292 0.951 . S
H3307 C3293 0.950 . S
H3308 C3294 0.950 . S
H3309 C3295 0.950 . S
H3310 C3297 0.950 . S
H3311 C3298 0.951 . S
C3312 C3313 1.386 . S
C3312 C3314 1.383 . S
C3312 H3328 0.951 . S
C3313 C3312 1.386 . S
C3313 C3317 1.383 . S
C3314 C3312 1.383 . S
C3314 C3315 1.402 . S
C3314 H3329 0.951 . S
C3315 C3314 1.402 . S
C3315 C3316 1.375 . S
C3315 C3318 1.481 . S
C3316 C3315 1.375 . S
C3316 C3317 1.367 . S
C3316 H3330 0.951 . S
C3317 C3313 1.383 . S
C3317 C3316 1.367 . S
C3317 H3331 0.950 . S
C3318 C3315 1.481 . S
C3318 C3319 1.297 . S
C3318 H3332 0.950 . S
C3319 C3318 1.297 . S
C3319 C3320 1.479 . S
C3319 H3333 0.950 . S
C3320 C3319 1.479 . S
C3320 C3321 1.375 . S
C3320 C3326 1.404 . S
C3321 C3320 1.375 . S
C3321 C3322 1.369 . S
C3321 H3334 0.950 . S
C3322 C3321 1.369 . S
C3322 C3323 1.392 . S
C3322 H3335 0.951 . S
C3323 C3322 1.392 . S
C3323 C3325 1.384 . S
H3324 C3326 0.949 . S
C3325 C3323 1.384 . S
C3325 C3326 1.385 . S
C3325 H3327 0.950 . S
C3326 C3320 1.404 . S
C3326 H3324 0.949 . S
C3326 C3325 1.385 . S
H3327 C3325 0.950 . S
H3328 C3312 0.951 . S
H3329 C3314 0.951 . S
H3330 C3316 0.951 . S
H3331 C3317 0.950 . S
H3332 C3318 0.950 . S
H3333 C3319 0.950 . S
H3334 C3321 0.950 . S
H3335 C3322 0.951 . S
C3336 C3337 1.386 . S
C3336 C3338 1.383 . S
C3336 H3352 0.951 . S
C3337 C3336 1.386 . S
C3337 C3341 1.383 . S
C3338 C3336 1.383 . S
C3338 C3339 1.402 . S
C3338 H3353 0.951 . S
C3339 C3338 1.402 . S
C3339 C3340 1.375 . S
C3339 C3342 1.481 . S
C3340 C3339 1.375 . S
C3340 C3341 1.367 . S
C3340 H3354 0.951 . S
C3341 C3337 1.383 . S
C3341 C3340 1.367 . S
C3341 H3355 0.950 . S
C3342 C3339 1.481 . S
C3342 C3343 1.297 . S
C3342 H3356 0.950 . S
C3343 C3342 1.297 . S
C3343 C3344 1.479 . S
C3343 H3357 0.950 . S
C3344 C3343 1.479 . S
C3344 C3345 1.375 . S
C3344 C3350 1.404 . S
C3345 C3344 1.375 . S
C3345 C3346 1.369 . S
C3345 H3358 0.950 . S
C3346 C3345 1.369 . S
C3346 C3347 1.392 . S
C3346 H3359 0.951 . S
C3347 C3346 1.392 . S
C3347 C3349 1.384 . S
H3348 C3350 0.949 . S
C3349 C3347 1.384 . S
C3349 C3350 1.385 . S
C3349 H3351 0.950 . S
C3350 C3344 1.404 . S
C3350 H3348 0.949 . S
C3350 C3349 1.385 . S
H3351 C3349 0.950 . S
H3352 C3336 0.951 . S
H3353 C3338 0.951 . S
H3354 C3340 0.951 . S
H3355 C3341 0.950 . S
H3356 C3342 0.950 . S
H3357 C3343 0.950 . S
H3358 C3345 0.950 . S
H3359 C3346 0.951 . S
C3360 C3361 1.386 . S
C3360 C3362 1.383 . S
C3360 H3376 0.951 . S
C3361 C3360 1.386 . S
C3361 C3365 1.383 . S
C3362 C3360 1.383 . S
C3362 C3363 1.402 . S
C3362 H3377 0.951 . S
C3363 C3362 1.402 . S
C3363 C3364 1.375 . S
C3363 C3366 1.481 . S
C3364 C3363 1.375 . S
C3364 C3365 1.367 . S
C3364 H3378 0.951 . S
C3365 C3361 1.383 . S
C3365 C3364 1.367 . S
C3365 H3379 0.950 1_556 S
C3366 C3363 1.481 . S
C3366 C3367 1.297 . S
C3366 H3380 0.950 . S
C3367 C3366 1.297 . S
C3367 C3368 1.479 . S
C3367 H3381 0.950 . S
C3368 C3367 1.479 . S
C3368 C3369 1.375 . S
C3368 C3374 1.404 . S
C3369 C3368 1.375 . S
C3369 C3370 1.369 . S
C3369 H3382 0.950 . S
C3370 C3369 1.369 . S
C3370 C3371 1.392 . S
C3370 H3383 0.951 . S
C3371 C3370 1.392 . S
C3371 C3373 1.384 . S
H3372 C3374 0.949 . S
C3373 C3371 1.384 . S
C3373 C3374 1.385 . S
C3373 H3375 0.950 . S
C3374 C3368 1.404 . S
C3374 H3372 0.949 . S
C3374 C3373 1.385 . S
H3375 C3373 0.950 . S
H3376 C3360 0.951 . S
H3377 C3362 0.951 . S
H3378 C3364 0.951 . S
H3379 C3365 0.950 1_554 S
H3380 C3366 0.950 . S
H3381 C3367 0.950 . S
H3382 C3369 0.950 . S
H3383 C3370 0.951 . S
C3384 C3385 1.386 . S
C3384 C3386 1.383 . S
C3384 H3400 0.951 . S
C3385 C3384 1.386 . S
C3385 C3389 1.383 . S
C3386 C3384 1.383 . S
C3386 C3387 1.402 . S
C3386 H3401 0.951 . S
C3387 C3386 1.402 . S
C3387 C3388 1.375 . S
C3387 C3390 1.481 . S
C3388 C3387 1.375 . S
C3388 C3389 1.367 . S
C3388 H3402 0.951 . S
C3389 C3385 1.383 . S
C3389 C3388 1.367 . S
C3389 H3403 0.950 . S
C3390 C3387 1.481 . S
C3390 C3391 1.297 . S
C3390 H3404 0.950 . S
C3391 C3390 1.297 . S
C3391 C3392 1.479 . S
C3391 H3405 0.950 . S
C3392 C3391 1.479 . S
C3392 C3393 1.375 . S
C3392 C3398 1.404 . S
C3393 C3392 1.375 . S
C3393 C3394 1.369 . S
C3393 H3406 0.950 . S
C3394 C3393 1.369 . S
C3394 C3395 1.392 . S
C3394 H3407 0.951 . S
C3395 C3394 1.392 . S
C3395 C3397 1.384 . S
H3396 C3398 0.949 . S
C3397 C3395 1.384 . S
C3397 C3398 1.385 . S
C3397 H3399 0.950 . S
C3398 C3392 1.404 . S
C3398 H3396 0.949 . S
C3398 C3397 1.385 . S
H3399 C3397 0.950 . S
H3400 C3384 0.951 . S
H3401 C3386 0.951 . S
H3402 C3388 0.951 . S
H3403 C3389 0.950 . S
H3404 C3390 0.950 . S
H3405 C3391 0.950 . S
H3406 C3393 0.950 . S
H3407 C3394 0.951 . S
C3408 C3409 1.386 . S
C3408 C3410 1.383 . S
C3408 H3424 0.951 . S
C3409 C3408 1.386 . S
C3409 C3413 1.383 . S
C3410 C3408 1.383 . S
C3410 C3411 1.402 . S
C3410 H3425 0.951 . S
C3411 C3410 1.402 . S
C3411 C3412 1.375 . S
C3411 C3414 1.481 . S
C3412 C3411 1.375 . S
C3412 C3413 1.367 . S
C3412 H3426 0.951 . S
C3413 C3409 1.383 . S
C3413 C3412 1.367 . S
C3413 H3427 0.950 . S
C3414 C3411 1.481 . S
C3414 C3415 1.297 . S
C3414 H3428 0.950 . S
C3415 C3414 1.297 . S
C3415 C3416 1.479 . S
C3415 H3429 0.950 . S
C3416 C3415 1.479 . S
C3416 C3417 1.375 . S
C3416 C3422 1.404 . S
C3417 C3416 1.375 . S
C3417 C3418 1.369 . S
C3417 H3430 0.950 . S
C3418 C3417 1.369 . S
C3418 C3419 1.392 . S
C3418 H3431 0.951 . S
C3419 C3418 1.392 . S
C3419 C3421 1.384 . S
H3420 C3422 0.949 . S
C3421 C3419 1.384 . S
C3421 C3422 1.385 . S
C3421 H3423 0.950 . S
C3422 C3416 1.404 . S
C3422 H3420 0.949 . S
C3422 C3421 1.385 . S
H3423 C3421 0.950 . S
H3424 C3408 0.951 . S
H3425 C3410 0.951 . S
H3426 C3412 0.951 . S
H3427 C3413 0.950 . S
H3428 C3414 0.950 . S
H3429 C3415 0.950 . S
H3430 C3417 0.950 . S
H3431 C3418 0.951 . S
C3432 C3433 1.386 . S
C3432 C3434 1.383 . S
C3432 H3448 0.951 . S
C3433 C3432 1.386 . S
C3433 C3437 1.383 . S
C3434 C3432 1.383 . S
C3434 C3435 1.402 . S
C3434 H3449 0.951 . S
C3435 C3434 1.402 . S
C3435 C3436 1.375 . S
C3435 C3438 1.481 . S
C3436 C3435 1.375 . S
C3436 C3437 1.367 . S
C3436 H3450 0.951 . S
C3437 C3433 1.383 . S
C3437 C3436 1.367 . S
C3437 H3451 0.950 . S
C3438 C3435 1.481 . S
C3438 C3439 1.297 . S
C3438 H3452 0.950 . S
C3439 C3438 1.297 . S
C3439 C3440 1.479 . S
C3439 H3453 0.950 . S
C3440 C3439 1.479 . S
C3440 C3441 1.375 . S
C3440 C3446 1.404 . S
C3441 C3440 1.375 . S
C3441 C3442 1.369 . S
C3441 H3454 0.950 . S
C3442 C3441 1.369 . S
C3442 C3443 1.392 . S
C3442 H3455 0.951 . S
C3443 C3442 1.392 . S
C3443 C3445 1.384 . S
H3444 C3446 0.949 . S
C3445 C3443 1.384 . S
C3445 C3446 1.385 . S
C3445 H3447 0.950 . S
C3446 C3440 1.404 . S
C3446 H3444 0.949 . S
C3446 C3445 1.385 . S
H3447 C3445 0.950 . S
H3448 C3432 0.951 . S
H3449 C3434 0.951 . S
H3450 C3436 0.951 . S
H3451 C3437 0.950 . S
H3452 C3438 0.950 . S
H3453 C3439 0.950 . S
H3454 C3441 0.950 . S
H3455 C3442 0.951 . S
C3456 C3457 1.386 . S
C3456 C3458 1.383 . S
C3456 H3472 0.951 . S
C3457 C3456 1.386 . S
C3457 C3461 1.383 . S
C3458 C3456 1.383 . S
C3458 C3459 1.402 . S
C3458 H3473 0.951 . S
C3459 C3458 1.402 . S
C3459 C3460 1.375 . S
C3459 C3462 1.481 . S
C3460 C3459 1.375 . S
C3460 C3461 1.367 . S
C3460 H3474 0.951 . S
C3461 C3457 1.383 . S
C3461 C3460 1.367 . S
C3461 H3475 0.950 . S
C3462 C3459 1.481 . S
C3462 C3463 1.297 . S
C3462 H3476 0.950 . S
C3463 C3462 1.297 . S
C3463 C3464 1.479 . S
C3463 H3477 0.950 . S
C3464 C3463 1.479 . S
C3464 C3465 1.375 . S
C3464 C3470 1.404 . S
C3465 C3464 1.375 . S
C3465 C3466 1.369 . S
C3465 H3478 0.950 . S
C3466 C3465 1.369 . S
C3466 C3467 1.392 . S
C3466 H3479 0.951 . S
C3467 C3466 1.392 . S
C3467 C3469 1.384 . S
H3468 C3470 0.949 . S
C3469 C3467 1.384 . S
C3469 C3470 1.385 . S
C3469 H3471 0.950 . S
C3470 C3464 1.404 . S
C3470 H3468 0.949 . S
C3470 C3469 1.385 . S
H3471 C3469 0.950 . S
H3472 C3456 0.951 . S
H3473 C3458 0.951 . S
H3474 C3460 0.951 . S
H3475 C3461 0.950 . S
H3476 C3462 0.950 . S
H3477 C3463 0.950 . S
H3478 C3465 0.950 . S
H3479 C3466 0.951 . S
C3480 C3481 1.386 . S
C3480 C3482 1.383 . S
C3480 H3496 0.951 . S
C3481 C3480 1.386 . S
C3481 C3485 1.383 . S
C3482 C3480 1.383 . S
C3482 C3483 1.402 . S
C3482 H3497 0.951 . S
C3483 C3482 1.402 . S
C3483 C3484 1.375 . S
C3483 C3486 1.481 . S
C3484 C3483 1.375 . S
C3484 C3485 1.367 . S
C3484 H3498 0.951 . S
C3485 C3481 1.383 . S
C3485 C3484 1.367 . S
C3485 H3499 0.950 . S
C3486 C3483 1.481 . S
C3486 C3487 1.297 . S
C3486 H3500 0.950 . S
C3487 C3486 1.297 . S
C3487 C3488 1.479 . S
C3487 H3501 0.950 . S
C3488 C3487 1.479 . S
C3488 C3489 1.375 . S
C3488 C3494 1.404 . S
C3489 C3488 1.375 . S
C3489 C3490 1.369 . S
C3489 H3502 0.950 . S
C3490 C3489 1.369 . S
C3490 C3491 1.392 . S
C3490 H3503 0.951 . S
C3491 C3490 1.392 . S
C3491 C3493 1.384 . S
H3492 C3494 0.949 . S
C3493 C3491 1.384 . S
C3493 C3494 1.385 . S
C3493 H3495 0.950 . S
C3494 C3488 1.404 . S
C3494 H3492 0.949 . S
C3494 C3493 1.385 . S
H3495 C3493 0.950 . S
H3496 C3480 0.951 . S
H3497 C3482 0.951 . S
H3498 C3484 0.951 . S
H3499 C3485 0.950 . S
H3500 C3486 0.950 . S
H3501 C3487 0.950 . S
H3502 C3489 0.950 . S
H3503 C3490 0.951 . S
C3504 C3505 1.386 . S
C3504 C3506 1.383 . S
C3504 H3520 0.951 . S
C3505 C3504 1.386 . S
C3505 C3509 1.383 . S
C3506 C3504 1.383 . S
C3506 C3507 1.402 . S
C3506 H3521 0.951 . S
C3507 C3506 1.402 . S
C3507 C3508 1.375 . S
C3507 C3510 1.481 . S
C3508 C3507 1.375 . S
C3508 C3509 1.367 . S
C3508 H3522 0.951 . S
C3509 C3505 1.383 . S
C3509 C3508 1.367 . S
C3509 H3523 0.950 . S
C3510 C3507 1.481 . S
C3510 C3511 1.297 . S
C3510 H3524 0.950 . S
C3511 C3510 1.297 . S
C3511 C3512 1.479 . S
C3511 H3525 0.950 . S
C3512 C3511 1.479 . S
C3512 C3513 1.375 . S
C3512 C3518 1.404 . S
C3513 C3512 1.375 . S
C3513 C3514 1.369 . S
C3513 H3526 0.950 . S
C3514 C3513 1.369 . S
C3514 C3515 1.392 . S
C3514 H3527 0.951 . S
C3515 C3514 1.392 . S
C3515 C3517 1.384 . S
H3516 C3518 0.949 . S
C3517 C3515 1.384 . S
C3517 C3518 1.385 . S
C3517 H3519 0.950 . S
C3518 C3512 1.404 . S
C3518 H3516 0.949 . S
C3518 C3517 1.385 . S
H3519 C3517 0.950 . S
H3520 C3504 0.951 . S
H3521 C3506 0.951 . S
H3522 C3508 0.951 . S
H3523 C3509 0.950 . S
H3524 C3510 0.950 . S
H3525 C3511 0.950 . S
H3526 C3513 0.950 . S
H3527 C3514 0.951 . S
C3528 C3529 1.386 . S
C3528 C3530 1.383 . S
C3528 H3544 0.951 . S
C3529 C3528 1.386 . S
C3529 C3533 1.383 . S
C3530 C3528 1.383 . S
C3530 C3531 1.402 . S
C3530 H3545 0.951 . S
C3531 C3530 1.402 . S
C3531 C3532 1.375 . S
C3531 C3534 1.481 . S
C3532 C3531 1.375 . S
C3532 C3533 1.367 . S
C3532 H3546 0.951 . S
C3533 C3529 1.383 . S
C3533 C3532 1.367 . S
C3533 H3547 0.950 . S
C3534 C3531 1.481 . S
C3534 C3535 1.297 . S
C3534 H3548 0.950 . S
C3535 C3534 1.297 . S
C3535 C3536 1.479 . S
C3535 H3549 0.950 . S
C3536 C3535 1.479 . S
C3536 C3537 1.375 . S
C3536 C3542 1.404 . S
C3537 C3536 1.375 . S
C3537 C3538 1.369 . S
C3537 H3550 0.950 . S
C3538 C3537 1.369 . S
C3538 C3539 1.392 . S
C3538 H3551 0.951 . S
C3539 C3538 1.392 . S
C3539 C3541 1.384 . S
H3540 C3542 0.949 . S
C3541 C3539 1.384 . S
C3541 C3542 1.385 . S
C3541 H3543 0.950 1_455 S
C3542 C3536 1.404 . S
C3542 H3540 0.949 . S
C3542 C3541 1.385 . S
H3543 C3541 0.950 1_655 S
H3544 C3528 0.951 . S
H3545 C3530 0.951 . S
H3546 C3532 0.951 . S
H3547 C3533 0.950 . S
H3548 C3534 0.950 . S
H3549 C3535 0.950 . S
H3550 C3537 0.950 . S
H3551 C3538 0.951 . S
C3552 C3553 1.386 . S
C3552 C3554 1.383 . S
C3552 H3568 0.951 . S
C3553 C3552 1.386 . S
C3553 C3557 1.383 . S
C3554 C3552 1.383 . S
C3554 C3555 1.402 . S
C3554 H3569 0.951 . S
C3555 C3554 1.402 . S
C3555 C3556 1.375 . S
C3555 C3558 1.481 . S
C3556 C3555 1.375 . S
C3556 C3557 1.367 . S
C3556 H3570 0.951 . S
C3557 C3553 1.383 . S
C3557 C3556 1.367 . S
C3557 H3571 0.950 . S
C3558 C3555 1.481 . S
C3558 C3559 1.297 . S
C3558 H3572 0.950 . S
C3559 C3558 1.297 . S
C3559 C3560 1.479 . S
C3559 H3573 0.950 . S
C3560 C3559 1.479 . S
C3560 C3561 1.375 . S
C3560 C3566 1.404 . S
C3561 C3560 1.375 . S
C3561 C3562 1.369 . S
C3561 H3574 0.950 . S
C3562 C3561 1.369 . S
C3562 C3563 1.392 . S
C3562 H3575 0.951 . S
C3563 C3562 1.392 . S
C3563 C3565 1.384 . S
H3564 C3566 0.949 . S
C3565 C3563 1.384 . S
C3565 C3566 1.385 . S
C3565 H3567 0.950 . S
C3566 C3560 1.404 . S
C3566 H3564 0.949 . S
C3566 C3565 1.385 . S
H3567 C3565 0.950 . S
H3568 C3552 0.951 . S
H3569 C3554 0.951 . S
H3570 C3556 0.951 . S
H3571 C3557 0.950 . S
H3572 C3558 0.950 . S
H3573 C3559 0.950 . S
H3574 C3561 0.950 . S
H3575 C3562 0.951 . S
C3576 C3577 1.386 . S
C3576 C3578 1.383 . S
C3576 H3592 0.951 . S
C3577 C3576 1.386 . S
C3577 C3581 1.330 1_565 S
C3578 C3576 1.383 . S
C3578 C3579 1.402 . S
C3578 H3593 0.951 . S
C3579 C3578 1.402 . S
C3579 C3580 1.375 1_565 S
C3579 C3582 1.481 . S
C3580 C3579 1.375 1_545 S
C3580 C3581 1.354 . S
C3580 H3594 0.951 . S
C3581 C3577 1.330 1_545 S
C3581 C3580 1.354 . S
C3581 H3595 1.019 . S
C3582 C3579 1.481 . S
C3582 C3583 1.297 . S
C3582 H3596 0.950 1_565 S
C3583 C3582 1.297 . S
C3583 C3584 1.479 . S
C3583 H3597 0.950 . S
C3584 C3583 1.479 . S
C3584 C3585 1.375 . S
C3584 C3590 1.354 1_565 S
C3585 C3584 1.375 . S
C3585 C3586 1.369 . S
C3585 H3598 0.950 . S
C3586 C3585 1.369 . S
C3586 C3587 1.392 . S
C3586 H3599 0.951 . S
C3587 C3586 1.392 . S
C3587 C3589 1.384 1_565 S
H3588 C3590 1.021 . S
C3589 C3587 1.384 1_545 S
C3589 C3590 1.366 . S
C3589 H3591 0.950 . S
C3590 C3584 1.354 1_545 S
C3590 H3588 1.021 . S
C3590 C3589 1.366 . S
H3591 C3589 0.950 . S
H3592 C3576 0.951 . S
H3593 C3578 0.951 . S
H3594 C3580 0.951 . S
H3595 C3581 1.019 . S
H3596 C3582 0.950 1_545 S
H3597 C3583 0.950 . S
H3598 C3585 0.950 . S
H3599 C3586 0.951 . S
C3600 C3601 1.386 . S
C3600 C3602 1.383 . S
C3600 H3616 0.951 . S
C3601 C3600 1.386 . S
C3601 C3605 1.383 . S
C3602 C3600 1.383 . S
C3602 C3603 1.402 . S
C3602 H3617 0.951 . S
C3603 C3602 1.402 . S
C3603 C3604 1.375 . S
C3603 C3606 1.481 . S
C3604 C3603 1.375 . S
C3604 C3605 1.367 . S
C3604 H3618 0.951 . S
C3605 C3601 1.383 . S
C3605 C3604 1.367 . S
C3605 H3619 0.950 . S
C3606 C3603 1.481 . S
C3606 C3607 1.297 . S
C3606 H3620 0.950 . S
C3607 C3606 1.297 . S
C3607 C3608 1.479 . S
C3607 H3621 0.950 . S
C3608 C3607 1.479 . S
C3608 C3609 1.375 . S
C3608 C3614 1.404 . S
C3609 C3608 1.375 . S
C3609 C3610 1.369 . S
C3609 H3622 0.950 . S
C3610 C3609 1.369 . S
C3610 C3611 1.392 . S
C3610 H3623 0.951 1_565 S
C3611 C3610 1.392 . S
C3611 C3613 1.384 . S
H3612 C3614 0.949 . S
C3613 C3611 1.384 . S
C3613 C3614 1.385 . S
C3613 H3615 0.950 . S
C3614 C3608 1.404 . S
C3614 H3612 0.949 . S
C3614 C3613 1.385 . S
H3615 C3613 0.950 . S
H3616 C3600 0.951 . S
H3617 C3602 0.951 . S
H3618 C3604 0.951 . S
H3619 C3605 0.950 . S
H3620 C3606 0.950 . S
H3621 C3607 0.950 . S
H3622 C3609 0.950 . S
H3623 C3610 0.951 1_545 S
C3624 C3625 1.386 . S
C3624 C3626 1.383 . S
C3624 H3640 0.951 . S
C3625 C3624 1.386 . S
C3625 C3629 1.383 . S
C3626 C3624 1.383 . S
C3626 C3627 1.402 . S
C3626 H3641 0.951 1_455 S
C3627 C3626 1.402 . S
C3627 C3628 1.375 . S
C3627 C3630 1.481 . S
C3628 C3627 1.375 . S
C3628 C3629 1.367 . S
C3628 H3642 0.951 . S
C3629 C3625 1.383 . S
C3629 C3628 1.367 . S
C3629 H3643 0.950 . S
C3630 C3627 1.481 . S
C3630 C3631 1.298 . S
C3630 H3644 0.950 . S
C3631 C3630 1.298 . S
C3631 C3632 1.482 1_455 S
C3631 H3645 0.947 1_455 S
C3632 C3631 1.482 1_655 S
C3632 C3633 1.375 . S
C3632 C3638 1.404 1_655 S
C3633 C3632 1.375 . S
C3633 C3634 1.369 . S
C3633 H3646 0.950 . S
C3634 C3633 1.369 . S
C3634 C3635 1.392 . S
C3634 H3647 0.951 . S
C3635 C3634 1.392 . S
C3635 C3637 1.384 1_655 S
H3636 C3638 0.949 . S
C3637 C3635 1.384 1_455 S
C3637 C3638 1.385 . S
C3637 H3639 0.950 . S
C3638 C3632 1.404 1_455 S
C3638 H3636 0.949 . S
C3638 C3637 1.385 . S
H3639 C3637 0.950 . S
H3640 C3624 0.951 . S
H3641 C3626 0.951 1_655 S
H3642 C3628 0.951 . S
H3643 C3629 0.950 . S
H3644 C3630 0.950 . S
H3645 C3631 0.947 1_655 S
H3646 C3633 0.950 . S
H3647 C3634 0.951 . S
C3648 C3649 1.386 . S
C3648 C3650 1.383 . S
C3648 H3664 0.951 . S
C3649 C3648 1.386 . S
C3649 C3653 1.383 . S
C3650 C3648 1.383 . S
C3650 C3651 1.402 . S
C3650 H3665 0.951 . S
C3651 C3650 1.402 . S
C3651 C3652 1.375 . S
C3651 C3654 1.481 . S
C3652 C3651 1.375 . S
C3652 C3653 1.367 . S
C3652 H3666 0.951 . S
C3653 C3649 1.383 . S
C3653 C3652 1.367 . S
C3653 H3667 0.950 . S
C3654 C3651 1.481 . S
C3654 C3655 1.297 . S
C3654 H3668 0.950 . S
C3655 C3654 1.297 . S
C3655 C3656 1.479 . S
C3655 H3669 0.950 . S
C3656 C3655 1.479 . S
C3656 C3657 1.375 . S
C3656 C3662 1.404 . S
C3657 C3656 1.375 . S
C3657 C3658 1.369 . S
C3657 H3670 0.950 . S
C3658 C3657 1.369 . S
C3658 C3659 1.392 . S
C3658 H3671 0.951 . S
C3659 C3658 1.392 . S
C3659 C3661 1.384 . S
H3660 C3662 0.949 . S
C3661 C3659 1.384 . S
C3661 C3662 1.385 . S
C3661 H3663 0.950 . S
C3662 C3656 1.404 . S
C3662 H3660 0.949 . S
C3662 C3661 1.385 . S
H3663 C3661 0.950 . S
H3664 C3648 0.951 . S
H3665 C3650 0.951 . S
H3666 C3652 0.951 . S
H3667 C3653 0.950 . S
H3668 C3654 0.950 . S
H3669 C3655 0.950 . S
H3670 C3657 0.950 . S
H3671 C3658 0.951 . S
C3672 C3673 1.386 . S
C3672 C3674 1.383 . S
C3672 H3688 0.951 . S
C3673 C3672 1.386 . S
C3673 C3677 1.383 . S
C3674 C3672 1.383 . S
C3674 C3675 1.402 . S
C3674 H3689 0.951 . S
C3675 C3674 1.402 . S
C3675 C3676 1.375 . S
C3675 C3678 1.481 . S
C3676 C3675 1.375 . S
C3676 C3677 1.367 . S
C3676 H3690 0.951 . S
C3677 C3673 1.383 . S
C3677 C3676 1.367 . S
C3677 H3691 0.950 . S
C3678 C3675 1.481 . S
C3678 C3679 1.297 . S
C3678 H3692 0.950 . S
C3679 C3678 1.297 . S
C3679 C3680 1.479 . S
C3679 H3693 0.950 . S
C3680 C3679 1.479 . S
C3680 C3681 1.375 . S
C3680 C3686 1.404 . S
C3681 C3680 1.375 . S
C3681 C3682 1.369 . S
C3681 H3694 0.950 . S
C3682 C3681 1.369 . S
C3682 C3683 1.392 . S
C3682 H3695 0.951 . S
C3683 C3682 1.392 . S
C3683 C3685 1.384 . S
H3684 C3686 0.949 . S
C3685 C3683 1.384 . S
C3685 C3686 1.385 . S
C3685 H3687 0.950 . S
C3686 C3680 1.404 . S
C3686 H3684 0.949 . S
C3686 C3685 1.385 . S
H3687 C3685 0.950 . S
H3688 C3672 0.951 . S
H3689 C3674 0.951 . S
H3690 C3676 0.951 . S
H3691 C3677 0.950 . S
H3692 C3678 0.950 . S
H3693 C3679 0.950 . S
H3694 C3681 0.950 . S
H3695 C3682 0.951 . S
C3696 C3697 1.386 . S
C3696 C3698 1.383 . S
C3696 H3712 0.951 . S
C3697 C3696 1.386 . S
C3697 C3701 1.383 . S
C3698 C3696 1.383 . S
C3698 C3699 1.402 . S
C3698 H3713 0.951 . S
C3699 C3698 1.402 . S
C3699 C3700 1.375 . S
C3699 C3702 1.481 . S
C3700 C3699 1.375 . S
C3700 C3701 1.367 . S
C3700 H3714 0.951 . S
C3701 C3697 1.383 . S
C3701 C3700 1.367 . S
C3701 H3715 0.950 . S
C3702 C3699 1.481 . S
C3702 C3703 1.297 . S
C3702 H3716 0.950 . S
C3703 C3702 1.297 . S
C3703 C3704 1.479 . S
C3703 H3717 0.950 . S
C3704 C3703 1.479 . S
C3704 C3705 1.375 . S
C3704 C3710 1.404 . S
C3705 C3704 1.375 . S
C3705 C3706 1.369 . S
C3705 H3718 0.950 . S
C3706 C3705 1.369 . S
C3706 C3707 1.392 . S
C3706 H3719 0.951 . S
C3707 C3706 1.392 . S
C3707 C3709 1.384 . S
H3708 C3710 0.949 . S
C3709 C3707 1.384 . S
C3709 C3710 1.385 . S
C3709 H3711 0.950 . S
C3710 C3704 1.404 . S
C3710 H3708 0.949 . S
C3710 C3709 1.385 . S
H3711 C3709 0.950 . S
H3712 C3696 0.951 . S
H3713 C3698 0.951 . S
H3714 C3700 0.951 . S
H3715 C3701 0.950 . S
H3716 C3702 0.950 . S
H3717 C3703 0.950 . S
H3718 C3705 0.950 . S
H3719 C3706 0.951 . S
C3720 C3721 1.386 . S
C3720 C3722 1.383 . S
C3720 H3736 0.951 . S
C3721 C3720 1.386 . S
C3721 C3725 1.383 . S
C3722 C3720 1.383 . S
C3722 C3723 1.402 . S
C3722 H3737 0.951 . S
C3723 C3722 1.402 . S
C3723 C3724 1.375 . S
C3723 C3726 1.481 . S
C3724 C3723 1.375 . S
C3724 C3725 1.367 . S
C3724 H3738 0.951 . S
C3725 C3721 1.383 . S
C3725 C3724 1.367 . S
C3725 H3739 0.950 . S
C3726 C3723 1.481 . S
C3726 C3727 1.297 . S
C3726 H3740 0.950 . S
C3727 C3726 1.297 . S
C3727 C3728 1.479 . S
C3727 H3741 0.950 . S
C3728 C3727 1.479 . S
C3728 C3729 1.375 . S
C3728 C3734 1.404 . S
C3729 C3728 1.375 . S
C3729 C3730 1.369 . S
C3729 H3742 0.950 . S
C3730 C3729 1.369 . S
C3730 C3731 1.392 . S
C3730 H3743 0.951 . S
C3731 C3730 1.392 . S
C3731 C3733 1.384 . S
H3732 C3734 0.949 . S
C3733 C3731 1.384 . S
C3733 C3734 1.385 . S
C3733 H3735 0.950 . S
C3734 C3728 1.404 . S
C3734 H3732 0.949 . S
C3734 C3733 1.385 . S
H3735 C3733 0.950 . S
H3736 C3720 0.951 . S
H3737 C3722 0.951 . S
H3738 C3724 0.951 . S
H3739 C3725 0.950 . S
H3740 C3726 0.950 . S
H3741 C3727 0.950 . S
H3742 C3729 0.950 . S
H3743 C3730 0.951 . S
C3744 C3745 1.386 . S
C3744 C3746 1.383 . S
C3744 H3760 0.951 . S
C3745 C3744 1.386 . S
C3745 C3749 1.383 . S
C3746 C3744 1.383 . S
C3746 C3747 1.402 . S
C3746 H3761 0.951 . S
C3747 C3746 1.402 . S
C3747 C3748 1.375 . S
C3747 C3750 1.481 . S
C3748 C3747 1.375 . S
C3748 C3749 1.367 . S
C3748 H3762 0.951 1_545 S
C3749 C3745 1.383 . S
C3749 C3748 1.367 . S
C3749 H3763 0.950 1_545 S
C3750 C3747 1.481 . S
C3750 C3751 1.297 . S
C3750 H3764 0.950 1_545 S
C3751 C3750 1.297 . S
C3751 C3752 1.479 . S
C3751 H3765 0.950 . S
C3752 C3751 1.479 . S
C3752 C3753 1.375 . S
C3752 C3758 1.395 1_545 S
C3753 C3752 1.375 . S
C3753 C3754 1.369 . S
C3753 H3766 0.950 . S
C3754 C3753 1.369 . S
C3754 C3755 1.392 . S
C3754 H3767 0.951 . S
C3755 C3754 1.392 . S
C3755 C3757 1.384 1_545 S
H3756 C3758 0.951 . S
C3757 C3755 1.384 1_565 S
C3757 C3758 1.392 . S
C3757 H3759 0.950 . S
C3758 C3752 1.395 1_565 S
C3758 H3756 0.951 . S
C3758 C3757 1.392 . S
H3759 C3757 0.950 . S
H3760 C3744 0.951 . S
H3761 C3746 0.951 . S
H3762 C3748 0.951 1_565 S
H3763 C3749 0.950 1_565 S
H3764 C3750 0.950 1_565 S
H3765 C3751 0.950 . S
H3766 C3753 0.950 . S
H3767 C3754 0.951 . S
C3768 C3769 1.388 . S
C3768 C3770 1.354 . S
C3768 H3784 0.946 1_655 S
C3769 C3768 1.388 . S
C3769 C3773 1.383 . S
C3770 C3768 1.354 . S
C3770 C3771 1.467 . S
C3770 H3785 0.919 1_655 S
C3771 C3770 1.467 . S
C3771 C3772 1.375 . S
C3771 C3774 1.481 . S
C3772 C3771 1.375 . S
C3772 C3773 1.367 . S
C3772 H3786 0.951 . S
C3773 C3769 1.383 . S
C3773 C3772 1.367 . S
C3773 H3787 0.950 . S
C3774 C3771 1.481 . S
C3774 C3775 1.297 . S
C3774 H3788 0.950 . S
C3775 C3774 1.297 . S
C3775 C3776 1.479 . S
C3775 H3789 0.950 1_655 S
C3776 C3775 1.479 . S
C3776 C3777 1.375 1_655 S
C3776 C3782 1.404 . S
C3777 C3776 1.375 1_455 S
C3777 C3778 1.369 . S
C3777 H3790 0.950 . S
C3778 C3777 1.369 . S
C3778 C3779 1.392 1_455 S
C3778 H3791 0.951 . S
C3779 C3778 1.392 1_655 S
C3779 C3781 1.384 . S
H3780 C3782 0.949 . S
C3781 C3779 1.384 . S
C3781 C3782 1.385 . S
C3781 H3783 0.950 . S
C3782 C3776 1.404 . S
C3782 H3780 0.949 . S
C3782 C3781 1.385 . S
H3783 C3781 0.950 . S
H3784 C3768 0.946 1_455 S
H3785 C3770 0.919 1_455 S
H3786 C3772 0.951 . S
H3787 C3773 0.950 . S
H3788 C3774 0.950 . S
H3789 C3775 0.950 1_455 S
H3790 C3777 0.950 . S
H3791 C3778 0.951 . S
C3792 C3793 1.386 . S
C3792 C3794 1.383 . S
C3792 H3808 0.951 . S
C3793 C3792 1.386 . S
C3793 C3797 1.383 . S
C3794 C3792 1.383 . S
C3794 C3795 1.402 . S
C3794 H3809 0.951 . S
C3795 C3794 1.402 . S
C3795 C3796 1.375 . S
C3795 C3798 1.481 . S
C3796 C3795 1.375 . S
C3796 C3797 1.367 . S
C3796 H3810 0.951 . S
C3797 C3793 1.383 . S
C3797 C3796 1.367 . S
C3797 H3811 0.950 . S
C3798 C3795 1.481 . S
C3798 C3799 1.297 . S
C3798 H3812 0.950 . S
C3799 C3798 1.297 . S
C3799 C3800 1.479 . S
C3799 H3813 0.950 . S
C3800 C3799 1.479 . S
C3800 C3801 1.375 . S
C3800 C3806 1.404 . S
C3801 C3800 1.375 . S
C3801 C3802 1.369 . S
C3801 H3814 0.950 . S
C3802 C3801 1.369 . S
C3802 C3803 1.392 . S
C3802 H3815 0.951 . S
C3803 C3802 1.392 . S
C3803 C3805 1.384 . S
H3804 C3806 0.949 . S
C3805 C3803 1.384 . S
C3805 C3806 1.385 . S
C3805 H3807 0.950 . S
C3806 C3800 1.404 . S
C3806 H3804 0.949 . S
C3806 C3805 1.385 . S
H3807 C3805 0.950 . S
H3808 C3792 0.951 . S
H3809 C3794 0.951 . S
H3810 C3796 0.951 . S
H3811 C3797 0.950 . S
H3812 C3798 0.950 . S
H3813 C3799 0.950 . S
H3814 C3801 0.950 . S
H3815 C3802 0.951 . S
C3816 C3817 1.386 . S
C3816 C3818 1.383 . S
C3816 H3832 0.951 . S
C3817 C3816 1.386 . S
C3817 C3821 1.383 . S
C3818 C3816 1.383 . S
C3818 C3819 1.402 . S
C3818 H3833 0.951 . S
C3819 C3818 1.402 . S
C3819 C3820 1.375 . S
C3819 C3822 1.481 . S
C3820 C3819 1.375 . S
C3820 C3821 1.367 . S
C3820 H3834 0.951 . S
C3821 C3817 1.383 . S
C3821 C3820 1.367 . S
C3821 H3835 0.950 . S
C3822 C3819 1.481 . S
C3822 C3823 1.297 . S
C3822 H3836 0.950 . S
C3823 C3822 1.297 . S
C3823 C3824 1.479 . S
C3823 H3837 0.950 . S
C3824 C3823 1.479 . S
C3824 C3825 1.375 . S
C3824 C3830 1.404 . S
C3825 C3824 1.375 . S
C3825 C3826 1.369 . S
C3825 H3838 0.950 . S
C3826 C3825 1.369 . S
C3826 C3827 1.392 . S
C3826 H3839 0.951 . S
C3827 C3826 1.392 . S
C3827 C3829 1.384 . S
H3828 C3830 0.949 . S
C3829 C3827 1.384 . S
C3829 C3830 1.385 . S
C3829 H3831 0.950 . S
C3830 C3824 1.404 . S
C3830 H3828 0.949 . S
C3830 C3829 1.385 . S
H3831 C3829 0.950 . S
H3832 C3816 0.951 . S
H3833 C3818 0.951 . S
H3834 C3820 0.951 . S
H3835 C3821 0.950 . S
H3836 C3822 0.950 . S
H3837 C3823 0.950 . S
H3838 C3825 0.950 . S
H3839 C3826 0.951 . S
C3840 C3841 1.386 . S
C3840 C3842 1.383 . S
C3840 H3856 0.951 . S
C3841 C3840 1.386 . S
C3841 C3845 1.383 . S
C3842 C3840 1.383 . S
C3842 C3843 1.402 . S
C3842 H3857 0.951 . S
C3843 C3842 1.402 . S
C3843 C3844 1.375 . S
C3843 C3846 1.481 . S
C3844 C3843 1.375 . S
C3844 C3845 1.367 . S
C3844 H3858 0.951 . S
C3845 C3841 1.383 . S
C3845 C3844 1.367 . S
C3845 H3859 0.950 . S
C3846 C3843 1.481 . S
C3846 C3847 1.297 . S
C3846 H3860 0.950 . S
C3847 C3846 1.297 . S
C3847 C3848 1.479 . S
C3847 H3861 0.950 . S
C3848 C3847 1.479 . S
C3848 C3849 1.375 . S
C3848 C3854 1.404 . S
C3849 C3848 1.375 . S
C3849 C3850 1.369 . S
C3849 H3862 0.950 . S
C3850 C3849 1.369 . S
C3850 C3851 1.392 . S
C3850 H3863 0.951 . S
C3851 C3850 1.392 . S
C3851 C3853 1.384 . S
H3852 C3854 0.949 . S
C3853 C3851 1.384 . S
C3853 C3854 1.385 . S
C3853 H3855 0.950 . S
C3854 C3848 1.404 . S
C3854 H3852 0.949 . S
C3854 C3853 1.385 . S
H3855 C3853 0.950 . S
H3856 C3840 0.951 . S
H3857 C3842 0.951 . S
H3858 C3844 0.951 . S
H3859 C3845 0.950 . S
H3860 C3846 0.950 . S
H3861 C3847 0.950 . S
H3862 C3849 0.950 . S
H3863 C3850 0.951 . S
C3864 C3865 1.386 . S
C3864 C3866 1.383 . S
C3864 H3880 0.951 . S
C3865 C3864 1.386 . S
C3865 C3869 1.383 . S
C3866 C3864 1.383 . S
C3866 C3867 1.402 . S
C3866 H3881 0.951 . S
C3867 C3866 1.402 . S
C3867 C3868 1.375 . S
C3867 C3870 1.481 . S
C3868 C3867 1.375 . S
C3868 C3869 1.367 . S
C3868 H3882 0.951 . S
C3869 C3865 1.383 . S
C3869 C3868 1.367 . S
C3869 H3883 0.950 . S
C3870 C3867 1.481 . S
C3870 C3871 1.297 . S
C3870 H3884 0.950 . S
C3871 C3870 1.297 . S
C3871 C3872 1.479 . S
C3871 H3885 0.950 . S
C3872 C3871 1.479 . S
C3872 C3873 1.375 . S
C3872 C3878 1.404 . S
C3873 C3872 1.375 . S
C3873 C3874 1.369 . S
C3873 H3886 0.950 . S
C3874 C3873 1.369 . S
C3874 C3875 1.392 . S
C3874 H3887 0.951 . S
C3875 C3874 1.392 . S
C3875 C3877 1.384 . S
H3876 C3878 0.949 . S
C3877 C3875 1.384 . S
C3877 C3878 1.385 . S
C3877 H3879 0.950 . S
C3878 C3872 1.404 . S
C3878 H3876 0.949 . S
C3878 C3877 1.385 . S
H3879 C3877 0.950 . S
H3880 C3864 0.951 . S
H3881 C3866 0.951 . S
H3882 C3868 0.951 . S
H3883 C3869 0.950 . S
H3884 C3870 0.950 . S
H3885 C3871 0.950 . S
H3886 C3873 0.950 . S
H3887 C3874 0.951 . S
C3888 C3889 1.386 . S
C3888 C3890 1.383 . S
C3888 H3904 0.951 . S
C3889 C3888 1.386 . S
C3889 C3893 1.383 . S
C3890 C3888 1.383 . S
C3890 C3891 1.402 . S
C3890 H3905 0.951 . S
C3891 C3890 1.402 . S
C3891 C3892 1.375 . S
C3891 C3894 1.481 . S
C3892 C3891 1.375 . S
C3892 C3893 1.367 . S
C3892 H3906 0.951 . S
C3893 C3889 1.383 . S
C3893 C3892 1.367 . S
C3893 H3907 0.950 . S
C3894 C3891 1.481 . S
C3894 C3895 1.297 . S
C3894 H3908 0.950 . S
C3895 C3894 1.297 . S
C3895 C3896 1.479 . S
C3895 H3909 0.950 . S
C3896 C3895 1.479 . S
C3896 C3897 1.375 . S
C3896 C3902 1.404 . S
C3897 C3896 1.375 . S
C3897 C3898 1.369 . S
C3897 H3910 0.950 . S
C3898 C3897 1.369 . S
C3898 C3899 1.392 . S
C3898 H3911 0.951 . S
C3899 C3898 1.392 . S
C3899 C3901 1.384 . S
H3900 C3902 0.949 . S
C3901 C3899 1.384 . S
C3901 C3902 1.385 . S
C3901 H3903 0.950 . S
C3902 C3896 1.404 . S
C3902 H3900 0.949 . S
C3902 C3901 1.385 . S
H3903 C3901 0.950 . S
H3904 C3888 0.951 . S
H3905 C3890 0.951 . S
H3906 C3892 0.951 . S
H3907 C3893 0.950 . S
H3908 C3894 0.950 . S
H3909 C3895 0.950 . S
H3910 C3897 0.950 . S
H3911 C3898 0.951 . S
C3912 C3913 1.386 . S
C3912 C3914 1.383 . S
C3912 H3928 0.951 . S
C3913 C3912 1.386 . S
C3913 C3917 1.383 . S
C3914 C3912 1.383 . S
C3914 C3915 1.402 . S
C3914 H3929 0.951 . S
C3915 C3914 1.402 . S
C3915 C3916 1.375 . S
C3915 C3918 1.481 . S
C3916 C3915 1.375 . S
C3916 C3917 1.367 . S
C3916 H3930 0.951 . S
C3917 C3913 1.383 . S
C3917 C3916 1.367 . S
C3917 H3931 0.950 . S
C3918 C3915 1.481 . S
C3918 C3919 1.297 . S
C3918 H3932 0.950 . S
C3919 C3918 1.297 . S
C3919 C3920 1.479 . S
C3919 H3933 0.950 . S
C3920 C3919 1.479 . S
C3920 C3921 1.375 . S
C3920 C3926 1.404 . S
C3921 C3920 1.375 . S
C3921 C3922 1.369 . S
C3921 H3934 0.950 . S
C3922 C3921 1.369 . S
C3922 C3923 1.392 . S
C3922 H3935 0.951 . S
C3923 C3922 1.392 . S
C3923 C3925 1.384 . S
H3924 C3926 0.949 . S
C3925 C3923 1.384 . S
C3925 C3926 1.385 . S
C3925 H3927 0.950 . S
C3926 C3920 1.404 . S
C3926 H3924 0.949 . S
C3926 C3925 1.385 . S
H3927 C3925 0.950 . S
H3928 C3912 0.951 . S
H3929 C3914 0.951 . S
H3930 C3916 0.951 . S
H3931 C3917 0.950 . S
H3932 C3918 0.950 . S
H3933 C3919 0.950 . S
H3934 C3921 0.950 . S
H3935 C3922 0.951 . S
C3936 C3937 1.386 . S
C3936 C3938 1.383 . S
C3936 H3952 0.951 . S
C3937 C3936 1.386 . S
C3937 C3941 1.383 . S
C3938 C3936 1.383 . S
C3938 C3939 1.402 . S
C3938 H3953 0.951 . S
C3939 C3938 1.402 . S
C3939 C3940 1.375 . S
C3939 C3942 1.481 . S
C3940 C3939 1.375 . S
C3940 C3941 1.367 . S
C3940 H3954 0.951 . S
C3941 C3937 1.383 . S
C3941 C3940 1.367 . S
C3941 H3955 0.950 . S
C3942 C3939 1.481 . S
C3942 C3943 1.297 . S
C3942 H3956 0.950 . S
C3943 C3942 1.297 . S
C3943 C3944 1.479 . S
C3943 H3957 0.950 . S
C3944 C3943 1.479 . S
C3944 C3945 1.375 . S
C3944 C3950 1.404 . S
C3945 C3944 1.375 . S
C3945 C3946 1.369 . S
C3945 H3958 0.950 . S
C3946 C3945 1.369 . S
C3946 C3947 1.392 . S
C3946 H3959 0.951 . S
C3947 C3946 1.392 . S
C3947 C3949 1.384 . S
H3948 C3950 0.949 . S
C3949 C3947 1.384 . S
C3949 C3950 1.385 . S
C3949 H3951 0.950 . S
C3950 C3944 1.404 . S
C3950 H3948 0.949 . S
C3950 C3949 1.385 . S
H3951 C3949 0.950 . S
H3952 C3936 0.951 . S
H3953 C3938 0.951 . S
H3954 C3940 0.951 . S
H3955 C3941 0.950 . S
H3956 C3942 0.950 . S
H3957 C3943 0.950 . S
H3958 C3945 0.950 . S
H3959 C3946 0.951 . S
C3960 C3961 1.386 . S
C3960 C3962 1.383 . S
C3960 H3976 0.951 . S
C3961 C3960 1.386 . S
C3961 C3965 1.383 . S
C3962 C3960 1.383 . S
C3962 C3963 1.402 . S
C3962 H3977 0.951 . S
C3963 C3962 1.402 . S
C3963 C3964 1.375 . S
C3963 C3966 1.481 . S
C3964 C3963 1.375 . S
C3964 C3965 1.367 . S
C3964 H3978 0.951 . S
C3965 C3961 1.383 . S
C3965 C3964 1.367 . S
C3965 H3979 0.950 . S
C3966 C3963 1.481 . S
C3966 C3967 1.315 . S
C3966 H3980 0.950 . S
C3967 C3966 1.315 . S
C3967 C3968 1.444 1_655 S
C3967 H3981 0.942 1_655 S
C3968 C3967 1.444 1_455 S
C3968 C3969 1.410 . S
C3968 C3974 1.399 . S
C3969 C3968 1.410 . S
C3969 C3970 1.352 . S
C3969 H3982 0.950 . S
C3970 C3969 1.352 . S
C3970 C3971 1.380 1_455 S
C3970 H3983 0.936 . S
C3971 C3970 1.380 1_655 S
C3971 C3973 1.395 . S
H3972 C3974 0.953 . S
C3973 C3971 1.395 . S
C3973 C3974 1.404 1_655 S
C3973 H3975 0.947 . S
C3974 C3968 1.399 . S
C3974 H3972 0.953 . S
C3974 C3973 1.404 1_455 S
H3975 C3973 0.947 . S
H3976 C3960 0.951 . S
H3977 C3962 0.951 . S
H3978 C3964 0.951 . S
H3979 C3965 0.950 . S
H3980 C3966 0.950 . S
H3981 C3967 0.942 1_455 S
H3982 C3969 0.950 . S
H3983 C3970 0.936 . S
C3984 C3985 1.386 . S
C3984 C3986 1.383 . S
C3984 H4000 0.951 . S
C3985 C3984 1.386 . S
C3985 C3989 1.383 . S
C3986 C3984 1.383 . S
C3986 C3987 1.402 . S
C3986 H4001 0.951 . S
C3987 C3986 1.402 . S
C3987 C3988 1.375 . S
C3987 C3990 1.481 . S
C3988 C3987 1.375 . S
C3988 C3989 1.367 . S
C3988 H4002 0.951 . S
C3989 C3985 1.383 . S
C3989 C3988 1.367 . S
C3989 H4003 0.950 . S
C3990 C3987 1.481 . S
C3990 C3991 1.297 . S
C3990 H4004 0.950 . S
C3991 C3990 1.297 . S
C3991 C3992 1.479 . S
C3991 H4005 0.950 . S
C3992 C3991 1.479 . S
C3992 C3993 1.375 . S
C3992 C3998 1.404 . S
C3993 C3992 1.375 . S
C3993 C3994 1.369 . S
C3993 H4006 0.950 . S
C3994 C3993 1.369 . S
C3994 C3995 1.392 . S
C3994 H4007 0.951 . S
C3995 C3994 1.392 . S
C3995 C3997 1.384 . S
H3996 C3998 0.949 . S
C3997 C3995 1.384 . S
C3997 C3998 1.385 . S
C3997 H3999 0.950 . S
C3998 C3992 1.404 . S
C3998 H3996 0.949 . S
C3998 C3997 1.385 . S
H3999 C3997 0.950 . S
H4000 C3984 0.951 . S
H4001 C3986 0.951 . S
H4002 C3988 0.951 . S
H4003 C3989 0.950 . S
H4004 C3990 0.950 . S
H4005 C3991 0.950 . S
H4006 C3993 0.950 . S
H4007 C3994 0.951 . S
C4008 C4009 1.386 . S
C4008 C4010 1.383 . S
C4008 H4024 0.951 1_545 S
C4009 C4008 1.386 . S
C4009 C4013 1.383 . S
C4010 C4008 1.383 . S
C4010 C4011 1.402 . S
C4010 H4025 0.951 1_545 S
C4011 C4010 1.402 . S
C4011 C4012 1.375 . S
C4011 C4014 1.481 . S
C4012 C4011 1.375 . S
C4012 C4013 1.367 . S
C4012 H4026 0.951 . S
C4013 C4009 1.383 . S
C4013 C4012 1.367 . S
C4013 H4027 0.950 . S
C4014 C4011 1.481 . S
C4014 C4015 1.305 . S
C4014 H4028 0.950 . S
C4015 C4014 1.305 . S
C4015 C4016 1.496 1_545 S
C4015 H4029 0.930 1_545 S
C4016 C4015 1.496 1_565 S
C4016 C4017 1.377 . S
C4016 C4022 1.397 1_565 S
C4017 C4016 1.377 . S
C4017 C4018 1.369 . S
C4017 H4030 0.950 . S
C4018 C4017 1.369 . S
C4018 C4019 1.391 . S
C4018 H4031 0.951 . S
C4019 C4018 1.391 . S
C4019 C4021 1.384 1_565 S
H4020 C4022 0.949 . S
C4021 C4019 1.384 1_545 S
C4021 C4022 1.385 . S
C4021 H4023 0.950 . S
C4022 C4016 1.397 1_545 S
C4022 H4020 0.949 . S
C4022 C4021 1.385 . S
H4023 C4021 0.950 . S
H4024 C4008 0.951 1_565 S
H4025 C4010 0.951 1_565 S
H4026 C4012 0.951 . S
H4027 C4013 0.950 . S
H4028 C4014 0.950 . S
H4029 C4015 0.930 1_565 S
H4030 C4017 0.950 . S
H4031 C4018 0.951 . S
C2305 C4 1.291 . S
C2315 C1307 1.081 1_655 S
C2329 C26 1.637 . S
C2339 C1447 1.020 . S
C2363 C1535 1.036 . S
C2353 C32 1.239 . S
C2377 C40 1.328 . S
C2387 C1675 1.058 1_565 S
C2401 C12 1.343 . S
C2411 C1789 1.135 . S
C2425 C18 1.560 1_556 S
C2435 C1877 1.161 . S
C2449 C46 1.188 . S
C2459 C1763 1.096 . S
C2483 C1903 1.345 . S
C2473 C68 1.540 . S
C2507 C1649 0.964 . S
C2497 C74 1.263 . S
C2521 C82 1.336 . S
C2531 C1561 0.798 . S
C2555 C1333 1.032 1_455 S
C2545 C54 1.372 . S
C2569 C60 1.426 . S
C2579 C1421 1.327 . S
C2593 C88 1.660 . S
C2603 C1991 1.280 . S
C2617 C110 1.748 . S
C2627 C2131 1.100 . S
C2651 C2219 1.353 . S
C2641 C116 1.647 . S
C2665 C124 1.569 . S
C2675 C307 0.963 . S
C2689 C96 1.669 . S
C2699 C421 1.086 . S
C2713 C102 1.613 . S
C2723 C509 1.320 . S
C2737 C130 1.445 . S
C2747 C395 1.277 . S
C2761 C152 1.650 . S
C2771 C535 1.419 . S
C2795 C281 1.440 . S
C2785 C158 1.562 . S
C2819 C2245 1.433 . S
C2809 C166 1.644 . S
C2843 C2017 1.316 . S
C2833 C138 1.528 . S
C2867 C2105 1.480 . S
C2857 C144 1.560 . S
C2881 C172 1.516 . S
C2891 C623 1.249 . S
C2905 C194 1.750 . S
C2915 C763 1.129 . S
C2929 C200 1.666 . S
C2939 C851 1.345 . S
C2953 C208 1.713 . S
C2963 C991 1.070 . S
C2987 C1105 1.048 . S
C2977 C180 1.622 . S
C3011 C1193 1.174 . S
C3001 C186 1.638 . S
C3035 C1079 1.469 . S
C3025 C214 1.622 . S
C3059 C1219 1.325 . S
C3049 C236 1.643 . S
C3073 C242 1.532 . S
C3083 C965 1.327 . S
C3107 C877 1.166 . S
C3097 C250 1.482 . S
C3121 C222 1.588 . S
C3131 C649 1.398 . S
C3155 C737 1.418 . S
C3145 C228 1.526 . S
C3179 C263 0.807 . S
C3169 C5 1.593 . S
C3193 C25 1.543 . S
C3203 C377 0.692 . S
C3227 C481 1.077 . S
C3217 C33 1.516 . S
C3251 C595 1.170 . S
C3241 C39 1.440 . S
C3275 C719 0.815 . S
C3265 C11 1.654 . S
C3299 C823 0.955 . S
C3289 C19 1.347 1_556 S
C3313 C47 1.639 1_556 S
C3323 C833 1.342 . S
C3337 C67 1.651 . S
C3347 C605 1.357 . S
C3361 C75 1.560 1_556 S
C3371 C709 1.545 . S
C3385 C81 1.567 . S
C3395 C367 1.451 . S
C3419 C491 1.389 . S
C3409 C53 1.747 . S
C3433 C61 1.369 . S
C3443 C253 1.452 . S
C3467 C947 0.890 . S
C3457 C89 1.461 . S
C3481 C109 1.679 . S
C3491 C1061 0.871 . S
C3505 C117 1.386 . S
C3515 C1165 1.323 . S
C3539 C1279 0.853 . S
C3529 C123 0.983 . S
C3553 C95 1.485 . S
C3563 C1403 0.748 . S
C3577 C103 1.075 . S
C3587 C1507 1.016 . S
C3601 C131 1.093 . S
C3611 C1517 0.962 1_565 S
C3625 C151 1.136 . S
C3635 C1289 0.828 . S
C3659 C1393 1.309 . S
C3649 C159 1.357 . S
C3673 C165 1.485 . S
C3683 C1051 1.313 . S
C3697 C137 1.749 . S
C3707 C1175 1.323 . S
C3731 C937 1.462 . S
C3721 C145 1.513 . S
C3755 C1631 0.875 . S
C3745 C173 1.160 . S
C3769 C193 1.092 . S
C3779 C1745 0.681 . S
C3793 C201 1.344 . S
C3803 C1849 1.006 . S
C3827 C1963 1.138 . S
C3817 C207 1.371 . S
C3851 C2087 0.929 . S
C3841 C179 1.684 . S
C3865 C187 1.401 . S
C3875 C2191 1.140 . S
C3889 C215 1.479 . S
C3899 C2201 1.336 . S
C3913 C235 1.802 . S
C3923 C1973 1.360 . S
C3947 C2077 1.501 . S
C3937 C243 1.516 . S
C3971 C1735 0.755 1_655 S
C3961 C249 0.985 . S
C3995 C1859 1.215 . S
C3985 C221 1.621 . S
C4009 C229 1.107 . S
C4019 C1621 0.989 . S
