# Generated by pormake.
# Topology zzz, (3,6)-cn, num edge types: 1
# Building blocks:
#     Node 0, Type 0, BuildingBlock: VETTIZ_charged_linker_0, # of connection points: 3
#     Node 1, Type 0, BuildingBlock: VETTIZ_charged_linker_0, # of connection points: 3
#     Node 2, Type 0, BuildingBlock: VETTIZ_charged_linker_0, # of connection points: 3
#     Node 3, Type 0, BuildingBlock: VETTIZ_charged_linker_0, # of connection points: 3
#     Node 4, Type 0, BuildingBlock: VETTIZ_charged_linker_0, # of connection points: 3
#     Node 5, Type 0, BuildingBlock: VETTIZ_charged_linker_0, # of connection points: 3
#     Node 6, Type 0, BuildingBlock: VETTIZ_charged_linker_0, # of connection points: 3
#     Node 7, Type 0, BuildingBlock: VETTIZ_charged_linker_0, # of connection points: 3
#     Node 8, Type 1, BuildingBlock: NUHQIS_clean_sbu_0, # of connection points: 6
#     Node 9, Type 1, BuildingBlock: NUHQIS_clean_sbu_0, # of connection points: 6
#     Node 10, Type 1, BuildingBlock: NUHQIS_clean_sbu_0, # of connection points: 6
#     Node 11, Type 1, BuildingBlock: NUHQIS_clean_sbu_0, # of connection points: 6
#     Edge 12, Type (0, 1), BuildingBlock: CIFDUS_clean_linker_0, # of connection points: 2
#     Edge 13, Type (0, 1), BuildingBlock: CIFDUS_clean_linker_0, # of connection points: 2
#     Edge 14, Type (0, 1), BuildingBlock: CIFDUS_clean_linker_0, # of connection points: 2
#     Edge 15, Type (0, 1), BuildingBlock: CIFDUS_clean_linker_0, # of connection points: 2
#     Edge 16, Type (0, 1), BuildingBlock: CIFDUS_clean_linker_0, # of connection points: 2
#     Edge 17, Type (0, 1), BuildingBlock: CIFDUS_clean_linker_0, # of connection points: 2
#     Edge 18, Type (0, 1), BuildingBlock: CIFDUS_clean_linker_0, # of connection points: 2
#     Edge 19, Type (0, 1), BuildingBlock: CIFDUS_clean_linker_0, # of connection points: 2
#     Edge 20, Type (0, 1), BuildingBlock: CIFDUS_clean_linker_0, # of connection points: 2
#     Edge 21, Type (0, 1), BuildingBlock: CIFDUS_clean_linker_0, # of connection points: 2
#     Edge 22, Type (0, 1), BuildingBlock: CIFDUS_clean_linker_0, # of connection points: 2
#     Edge 23, Type (0, 1), BuildingBlock: CIFDUS_clean_linker_0, # of connection points: 2
#     Edge 24, Type (0, 1), BuildingBlock: CIFDUS_clean_linker_0, # of connection points: 2
#     Edge 25, Type (0, 1), BuildingBlock: CIFDUS_clean_linker_0, # of connection points: 2
#     Edge 26, Type (0, 1), BuildingBlock: CIFDUS_clean_linker_0, # of connection points: 2
#     Edge 27, Type (0, 1), BuildingBlock: CIFDUS_clean_linker_0, # of connection points: 2
#     Edge 28, Type (0, 1), BuildingBlock: CIFDUS_clean_linker_0, # of connection points: 2
#     Edge 29, Type (0, 1), BuildingBlock: CIFDUS_clean_linker_0, # of connection points: 2
#     Edge 30, Type (0, 1), BuildingBlock: CIFDUS_clean_linker_0, # of connection points: 2
#     Edge 31, Type (0, 1), BuildingBlock: CIFDUS_clean_linker_0, # of connection points: 2
#     Edge 32, Type (0, 1), BuildingBlock: CIFDUS_clean_linker_0, # of connection points: 2
#     Edge 33, Type (0, 1), BuildingBlock: CIFDUS_clean_linker_0, # of connection points: 2
#     Edge 34, Type (0, 1), BuildingBlock: CIFDUS_clean_linker_0, # of connection points: 2
#     Edge 35, Type (0, 1), BuildingBlock: CIFDUS_clean_linker_0, # of connection points: 2
# Relax obj value: 0.450
# Max RMSD: 0.256
# Mean RMSD: 0.236
data_MOF--net-zzz--node1-NUHQIS_clean_sbu_0--node2-VETTIZ_charged_linker_0--edge1-CIFDUS_clean_linker_0
_symmetry_space_group_name_H-M    P1
_symmetry_Int_Tables_number       1
_symmetry_cell_setting            triclinic
loop_
_symmetry_equiv_pos_as_xyz
'x, y, z'
_cell_length_a     52.875278
_cell_length_b     52.975311
_cell_length_c     17.172922
_cell_angle_alpha  89.781313
_cell_angle_beta   89.811243
_cell_angle_gamma 89.970692
loop_
_atom_site_label
_atom_site_type_symbol
_atom_site_fract_x
_atom_site_fract_y
_atom_site_fract_z
_atom_type_partial_charge
C0 C 0.81754 0.495 0.40844 0.0
C1 C 0.83472 0.48203 0.45918 0.0
C2 C 0.83142 0.45578 0.46936 0.0
C3 C 0.79997 0.45487 0.3685 0.0
C4 C 0.79941 0.48076 0.36529 0.0
C5 C 0.77673 0.48914 0.31556 0.0
H6 H 0.68741 0.44817 0.04562 0.0
C7 C 0.78263 0.44441 0.31113 0.0
C8 C 0.7672 0.46384 0.28172 0.0
H9 H 0.69048 0.52319 0.141 0.0
H10 H 0.72671 0.51067 0.2227 0.0
H11 H 0.73958 0.44429 0.01092 0.0
H12 H 0.69809 0.41553 0.20418 0.0
H13 H 0.71868 0.39149 0.17127 0.0
H14 H 0.69616 0.40517 0.10484 0.0
H15 H 0.72937 0.41222 0.01195 0.0
H16 H 0.76027 0.4212 0.04679 0.0
C17 C 0.78551 0.50739 0.25118 0.0
C18 C 0.75697 0.50115 0.37007 0.0
C19 C 0.81495 0.36777 0.17036 0.0
C20 C 0.80726 0.35597 0.10098 0.0
C21 C 0.78209 0.35966 0.07609 0.0
C22 C 0.76635 0.37729 0.11339 0.0
C23 C 0.77596 0.39162 0.17544 0.0
C24 C 0.79927 0.38562 0.20585 0.0
C25 C 0.80634 0.40208 0.27342 0.0
C26 C 0.78423 0.42077 0.2732 0.0
C27 C 0.76702 0.41493 0.21432 0.0
C28 C 0.8319 0.41522 0.25537 0.0
C29 C 0.80749 0.38524 0.34748 0.0
C30 C 0.69534 0.46189 0.08534 0.0
C31 C 0.68571 0.48652 0.08732 0.0
C32 C 0.69715 0.50388 0.13912 0.0
C33 C 0.71809 0.49662 0.18649 0.0
C34 C 0.72756 0.47171 0.18267 0.0
C35 C 0.71589 0.45502 0.13215 0.0
C36 C 0.72874 0.42992 0.12903 0.0
C37 C 0.74888 0.43315 0.19053 0.0
C38 C 0.74878 0.45777 0.22257 0.0
C39 C 0.74001 0.42653 0.04572 0.0
C40 C 0.70946 0.40929 0.15311 0.0
H41 H 0.8108 0.42292 0.43902 0.0
H42 H 0.81817 0.51535 0.40312 0.0
H43 H 0.75261 0.48827 0.41961 0.0
H44 H 0.73897 0.50503 0.34016 0.0
H45 H 0.76421 0.51918 0.39424 0.0
H46 H 0.80057 0.4985 0.2152 0.0
H47 H 0.79321 0.525 0.27679 0.0
H48 H 0.76971 0.51255 0.21212 0.0
H49 H 0.83382 0.3652 0.19295 0.0
H50 H 0.77505 0.35012 0.0249 0.0
H51 H 0.74776 0.38 0.09011 0.0
H52 H 0.83077 0.42608 0.19994 0.0
H53 H 0.84747 0.40126 0.25023 0.0
H54 H 0.83764 0.42838 0.30168 0.0
H55 H 0.7905 0.38795 0.38483 0.0
H56 H 0.82478 0.389 0.38201 0.0
H57 H 0.8084 0.36476 0.33368 0.0
H58 H 0.84314 0.44518 0.50944 0.0
C59 C 0.81368 0.44246 0.42618 0.0
C60 C 0.99444 0.79075 0.89102 0.0
C61 C 0.9947 0.81688 0.87812 0.0
C62 C 0.98205 0.83294 0.93071 0.0
C63 C 0.97513 0.79769 0.01714 0.0
C64 C 0.98385 0.78148 0.96037 0.0
C65 C 0.98205 0.75442 0.9858 0.0
H66 H 1.0097 0.66823 0.21903 0.0
C67 C 0.97162 0.78328 0.08964 0.0
C68 C 0.97321 0.75779 0.07041 0.0
H69 H 0.96057 0.6611 0.01815 0.0
H70 H 0.9486 0.70537 0.0323 0.0
H71 H 0.03299 0.72998 0.2082 0.0
H72 H 0.95842 0.7116 0.30068 0.0
H73 H 0.97883 0.72952 0.36178 0.0
H74 H 0.98612 0.69709 0.34204 0.0
H75 H 0.02997 0.70758 0.28694 0.0
H76 H 0.02551 0.74072 0.30463 0.0
C77 C 1.00842 0.74187 0.98102 0.0
C78 C 0.96277 0.74094 0.93282 0.0
C79 C 0.98523 0.8326 0.33758 0.0
C80 C 0.9923 0.82676 0.41394 0.0
C81 C 0.99776 0.80116 0.43197 0.0
C82 C 0.99576 0.7819 0.37437 0.0
C83 C 0.98803 0.78823 0.29815 0.0
C84 C 0.98341 0.81349 0.2814 0.0
C85 C 0.97619 0.81785 0.19832 0.0
C86 C 0.97594 0.79101 0.1677 0.0
C87 C 0.98277 0.77314 0.22573 0.0
C88 C 0.99677 0.83479 0.1592 0.0
C89 C 0.94933 0.82948 0.19633 0.0
C90 C 0.99714 0.67637 0.17614 0.0
C91 C 0.98749 0.66132 0.11357 0.0
C92 C 0.96938 0.67218 0.0635 0.0
C93 C 0.96338 0.69771 0.06836 0.0
C94 C 0.97621 0.71274 0.12139 0.0
C95 C 0.99002 0.70236 0.18069 0.0
C96 C 0.99397 0.72255 0.24412 0.0
C97 C 0.9831 0.74664 0.20511 0.0
C98 C 0.97487 0.73981 0.13055 0.0
C99 C 0.02226 0.72538 0.26219 0.0
C100 C 0.97853 0.71484 0.31646 0.0
H101 H 0.96299 0.83621 0.03946 0.0
H102 H 1.00342 0.7781 0.84995 0.0
H103 H 0.96373 0.74815 0.87198 0.0
H104 H 0.94311 0.74382 0.95412 0.0
H105 H 0.96687 0.7205 0.92796 0.0
H106 H 0.02227 0.75218 0.01766 0.0
H107 H 0.01555 0.74166 0.92013 0.0
H108 H 1.00775 0.72198 1.00111 0.0
H109 H 0.98094 0.85196 0.3217 0.0
H110 H 1.00323 0.79605 0.49065 0.0
H111 H 1.00032 0.76281 0.39037 0.0
H112 H 0.01064 0.84241 0.20159 0.0
H113 H 0.98843 0.85162 0.1305 0.0
H114 H 1.00819 0.82417 0.11596 0.0
H115 H 0.93671 0.82 0.23939 0.0
H116 H 0.9401 0.82709 0.13915 0.0
H117 H 0.94989 0.84992 0.21053 0.0
H118 H 0.98166 0.85316 0.92094 0.0
C119 C 0.97204 0.82336 1.00022 0.0
C120 C 0.83051 0.01068 0.15148 0.0
C121 C 0.85132 0.02409 0.11809 0.0
C122 C 0.85383 0.05004 0.13453 0.0
C123 C 0.81345 0.05002 0.19987 0.0
C124 C 0.81211 0.02417 0.1954 0.0
C125 C 0.78994 0.01454 0.24502 0.0
H126 H 0.68818 0.05056 0.4774 0.0
C127 C 0.79162 0.05956 0.24229 0.0
C128 C 0.77827 0.03931 0.27557 0.0
H129 H 0.70835 0.97396 0.4207 0.0
H130 H 0.74492 0.98926 0.34585 0.0
H131 H 0.7447 0.07625 0.49734 0.0
H132 H 0.68534 0.06954 0.34383 0.0
H133 H 0.70552 0.08478 0.27677 0.0
H134 H 0.69486 0.10055 0.36454 0.0
H135 H 0.714 0.09089 0.49342 0.0
H136 H 0.74109 0.10535 0.44749 0.0
C137 C 0.80042 0.99809 0.31158 0.0
C138 C 0.77146 1.00013 0.19231 0.0
C139 C 0.74447 0.13354 0.13701 0.0
C140 C 0.72109 0.14343 0.16297 0.0
C141 C 0.71623 0.14348 0.24401 0.0
C142 C 0.73113 0.12897 0.29429 0.0
C143 C 0.75005 0.11374 0.26239 0.0
C144 C 0.75867 0.11838 0.18803 0.0
C145 C 0.78099 0.10184 0.16841 0.0
C146 C 0.78094 0.08394 0.23906 0.0
C147 C 0.76115 0.0899 0.28996 0.0
C148 C 0.80473 0.11871 0.16263 0.0
C149 C 0.77624 0.08756 0.09146 0.0
C150 C 0.70079 0.03688 0.45105 0.0
C151 C 0.69555 0.01105 0.45703 0.0
C152 C 0.71198 0.99406 0.41797 0.0
C153 C 0.73318 1.00292 0.37457 0.0
C154 C 0.73766 0.0291 0.36801 0.0
C155 C 0.72106 0.04541 0.40508 0.0
C156 C 0.7256 0.07247 0.38423 0.0
C157 C 0.74894 0.07024 0.33268 0.0
C158 C 0.75643 0.04475 0.32317 0.0
C159 C 0.73155 0.08718 0.45958 0.0
C160 C 0.70183 0.08249 0.3401 0.0
H161 H 0.83833 0.08222 0.19285 0.0
H162 H 0.82879 0.99049 0.14383 0.0
H163 H 0.76614 0.01193 0.14121 0.0
H164 H 0.75379 0.99515 0.22309 0.0
H165 H 0.78026 0.98246 0.17049 0.0
H166 H 0.81541 1.00843 0.34363 0.0
H167 H 0.8088 0.98041 0.28828 0.0
H168 H 0.78567 0.99299 0.35439 0.0
H169 H 0.74982 0.13493 0.07629 0.0
H170 H 0.69928 0.15196 0.26779 0.0
H171 H 0.72622 0.1283 0.35493 0.0
H172 H 0.80012 0.13738 0.13643 0.0
H173 H 0.8192 0.11044 0.12348 0.0
H174 H 0.81306 0.1221 0.22102 0.0
H175 H 0.75844 0.07643 0.09506 0.0
H176 H 0.79199 0.07444 0.07806 0.0
H177 H 0.77484 0.10086 0.04154 0.0
H178 H 0.87004 0.06054 0.11334 0.0
C179 C 0.83519 0.06289 0.17654 0.0
C180 C 0.50138 0.69575 0.39139 0.0
C181 C 0.49072 0.67206 0.41388 0.0
C182 C 0.46954 0.6632 0.37342 0.0
C183 C 0.46999 0.69982 0.28833 0.0
C184 C 0.49047 0.70951 0.32806 0.0
C185 C 0.49764 0.73548 0.29485 0.0
H186 H 0.4811 0.81762 0.98418 0.0
C187 C 0.46319 0.71719 0.22411 0.0
C188 C 0.47924 0.73847 0.22603 0.0
H189 H 0.52674 0.83368 0.18662 0.0
H190 H 0.51521 0.79251 0.24151 0.0
H191 H 0.49117 0.7601 0.96607 0.0
H192 H 0.43523 0.80461 0.08381 0.0
H193 H 0.41878 0.77806 0.05095 0.0
H194 H 0.4338 0.79884 0.98115 0.0
H195 H 0.46664 0.77704 0.91629 0.0
H196 H 0.46216 0.74504 0.94949 0.0
C197 C 0.52537 0.73512 0.26752 0.0
C198 C 0.49275 0.75548 0.35793 0.0
C199 C 0.39855 0.68636 0.02911 0.0
C200 C 0.39146 0.6949 0.95459 0.0
C201 C 0.39897 0.71925 0.93069 0.0
C202 C 0.41498 0.73383 0.97742 0.0
C203 C 0.42371 0.72397 0.04883 0.0
C204 C 0.4148 0.70095 0.07437 0.0
C205 C 0.42708 0.69256 0.14879 0.0
C206 C 0.44515 0.71429 0.16374 0.0
C207 C 0.44312 0.7325 0.10515 0.0
C208 C 0.44132 0.66738 0.13239 0.0
C209 C 0.40611 0.69092 0.21212 0.0
C210 C 0.48841 0.81331 0.04137 0.0
C211 C 0.50452 0.83004 0.08054 0.0
C212 C 0.51423 0.82168 0.15361 0.0
C213 C 0.50735 0.79779 0.18619 0.0
C214 C 0.49009 0.78212 0.14666 0.0
C215 C 0.48081 0.79062 0.07596 0.0
C216 C 0.46075 0.77399 0.04355 0.0
C217 C 0.45934 0.75371 0.10518 0.0
C218 C 0.47703 0.75752 0.1657 0.0
C219 C 0.47041 0.76353 0.96448 0.0
C220 C 0.43583 0.78954 0.03886 0.0
H221 H 0.44316 0.66846 0.28425 0.0
H222 H 0.51744 0.70332 0.42243 0.0
H223 H 0.47331 0.75345 0.3821 0.0
H224 H 0.49428 0.77486 0.33472 0.0
H225 H 0.50639 0.75334 0.40661 0.0
H226 H 0.52848 0.71961 0.2251 0.0
H227 H 0.53828 0.73211 0.31763 0.0
H228 H 0.53072 0.75303 0.23865 0.0
H229 H 0.39375 0.66754 0.04902 0.0
H230 H 0.39373 0.72635 0.87375 0.0
H231 H 0.42095 0.75165 0.95397 0.0
H232 H 0.44733 0.66606 0.07036 0.0
H233 H 0.42917 0.65076 0.14513 0.0
H234 H 0.45918 0.66555 0.16512 0.0
H235 H 0.39088 0.70503 0.20139 0.0
H236 H 0.41312 0.69547 0.27106 0.0
H237 H 0.39713 0.67197 0.21309 0.0
H238 H 0.46092 0.64535 0.38954 0.0
C239 C 0.45919 0.67679 0.3118 0.0
C240 C 0.33807 0.50326 0.31273 0.0
C241 C 0.35832 0.51672 0.34875 0.0
C242 C 0.35825 0.54329 0.3441 0.0
C243 C 0.31677 0.54286 0.28659 0.0
C244 C 0.31767 0.51708 0.27893 0.0
C245 C 0.29583 0.50834 0.22664 0.0
H246 H 0.18385 0.54593 0.04647 0.0
C247 C 0.2935 0.55253 0.25259 0.0
C248 C 0.28128 0.53317 0.21152 0.0
H249 H 0.21636 0.47152 0.03214 0.0
H250 H 0.25255 0.48548 0.11104 0.0
H251 H 0.18473 0.5574 0.18942 0.0
H252 H 0.23633 0.57651 0.01927 0.0
H253 H 0.2347 0.60246 0.08312 0.0
H254 H 0.20592 0.58956 0.04341 0.0
H255 H 0.19044 0.58994 0.17755 0.0
H256 H 0.20579 0.5722 0.25426 0.0
C257 C 0.27954 0.48897 0.27093 0.0
C258 C 0.30709 0.49754 0.15099 0.0
C259 C 0.24735 0.62143 0.3951 0.0
C260 C 0.22393 0.63305 0.37888 0.0
C261 C 0.21548 0.63366 0.30092 0.0
C262 C 0.22769 0.61935 0.24384 0.0
C263 C 0.24786 0.60379 0.26558 0.0
C264 C 0.25907 0.60687 0.33712 0.0
C265 C 0.2825 0.59088 0.34478 0.0
C266 C 0.28107 0.5755 0.26914 0.0
C267 C 0.25943 0.58187 0.22706 0.0
C268 C 0.28043 0.57377 0.41761 0.0
C269 C 0.30555 0.60874 0.34967 0.0
C270 C 0.19865 0.53247 0.0601 0.0
C271 C 0.19692 0.50759 0.03363 0.0
C272 C 0.21707 0.4909 0.05184 0.0
C273 C 0.23804 0.49898 0.09746 0.0
C274 C 0.23913 0.52413 0.12429 0.0
C275 C 0.21941 0.5402 0.10472 0.0
C276 C 0.2226 0.56619 0.13664 0.0
C277 C 0.2477 0.56357 0.17871 0.0
C278 C 0.25782 0.53888 0.17211 0.0
C279 C 0.19991 0.57187 0.19226 0.0
C280 C 0.22486 0.58482 0.06722 0.0
H281 H 0.33942 0.57627 0.30243 0.0
H282 H 0.33836 0.48285 0.31021 0.0
H283 H 0.32064 0.51118 0.12454 0.0
H284 H 0.29244 0.49378 0.107 0.0
H285 H 0.3174 0.47966 0.16291 0.0
H286 H 0.27289 0.49699 0.32713 0.0
H287 H 0.29063 0.47162 0.28364 0.0
H288 H 0.26266 0.48352 0.23715 0.0
H289 H 0.2551 0.62184 0.45334 0.0
H290 H 0.19802 0.64302 0.28519 0.0
H291 H 0.22018 0.61967 0.18599 0.0
H292 H 0.26314 0.56187 0.41491 0.0
H293 H 0.27966 0.5852 0.47166 0.0
H294 H 0.29706 0.56113 0.4226 0.0
H295 H 0.30068 0.62669 0.37957 0.0
H296 H 0.31279 0.61366 0.29071 0.0
H297 H 0.32093 0.60045 0.38529 0.0
H298 H 0.37396 0.55413 0.36667 0.0
C299 C 0.33789 0.55628 0.31145 0.0
C300 C 0.87769 0.2354 0.37355 0.0
C301 C 0.86727 0.21162 0.35488 0.0
C302 C 0.86831 0.20386 0.27614 0.0
C303 C 0.89889 0.23639 0.24878 0.0
C304 C 0.89395 0.24725 0.3199 0.0
C305 C 0.91072 0.26977 0.33396 0.0
H306 H 0.02404 0.31542 0.3466 0.0
C307 C 0.92272 0.24689 0.21817 0.0
C308 C 0.92906 0.26753 0.26464 0.0
H309 H 0.95408 0.3563 0.38518 0.0
H310 H 0.93171 0.32498 0.3081 0.0
H311 H 1.00368 0.25213 0.34954 0.0
H312 H 1.00209 0.30232 0.14818 0.0
H313 H 0.01804 0.27298 0.13494 0.0
H314 H 0.03137 0.29633 0.19823 0.0
H315 H 0.03223 0.26739 0.31656 0.0
H316 H 0.01946 0.24112 0.26391 0.0
C317 C 0.92447 0.26687 0.41285 0.0
C318 C 0.89399 0.29374 0.3318 0.0
C319 C 0.97269 0.18713 0.04793 0.0
C320 C 0.99836 0.18279 0.03255 0.0
C321 C 0.01611 0.19957 0.06663 0.0
C322 C 1.00813 0.22024 0.1137 0.0
C323 C 0.98213 0.22402 0.12845 0.0
C324 C 0.96516 0.20708 0.09626 0.0
C325 C 0.93864 0.21117 0.12367 0.0
C326 C 0.94174 0.23462 0.17332 0.0
C327 C 0.96729 0.2426 0.17672 0.0
C328 C 0.93037 0.18742 0.17154 0.0
C329 C 0.92184 0.21666 0.05189 0.0
C330 C 1.0037 0.31702 0.34184 0.0
C331 C 0.99062 0.33775 0.37685 0.0
C332 C 0.96444 0.34016 0.36323 0.0
C333 C 0.95115 0.32167 0.32262 0.0
C334 C 0.96371 0.29996 0.29816 0.0
C335 C 0.98965 0.29862 0.2996 0.0
C336 C 0.99857 0.27669 0.248 0.0
C337 C 0.97334 0.2647 0.22212 0.0
C338 C 0.95352 0.27806 0.25798 0.0
C339 C 0.01445 0.25825 0.29704 0.0
C340 C 0.01342 0.28758 0.17838 0.0
H341 H 0.88471 0.20952 0.16431 0.0
H342 H 0.87547 0.24316 0.43131 0.0
H343 H 0.87435 0.28971 0.35165 0.0
H344 H 0.89282 0.30169 0.27191 0.0
H345 H 0.90095 0.30838 0.37239 0.0
H346 H 0.93546 0.24897 0.41463 0.0
H347 H 0.9108 0.26684 0.46207 0.0
H348 H 0.93766 0.28272 0.42321 0.0
H349 H 0.95847 0.17427 0.02608 0.0
H350 H 0.03615 0.19673 0.05682 0.0
H351 H 0.02234 0.23223 0.13846 0.0
H352 H 0.94473 0.17208 0.17114 0.0
H353 H 0.91293 0.17873 0.14795 0.0
H354 H 0.92754 0.19181 0.2341 0.0
H355 H 0.93174 0.2294 0.01011 0.0
H356 H 0.9041 0.22649 0.06759 0.0
H357 H 0.9171 0.19894 0.02076 0.0
H358 H 0.85969 0.18648 0.25699 0.0
C359 C 0.8837 0.2166 0.22258 0.0
C360 C 0.31012 0.00935 0.04527 0.0
C361 C 0.33468 0.9983 0.05105 0.0
C362 C 0.34066 0.98471 0.11957 0.0
C363 C 0.30277 1.00019 0.18117 0.0
C364 C 0.29376 1.00875 0.11113 0.0
C365 C 0.26731 0.01963 0.12293 0.0
H366 H 0.18811 0.05752 0.42665 0.0
C367 C 0.28733 0.01078 0.24399 0.0
C368 C 0.26383 0.01778 0.21197 0.0
H369 H 0.16688 0.99485 0.28095 0.0
H370 H 0.20786 0.99844 0.21023 0.0
H371 H 0.24636 0.04072 0.46706 0.0
H372 H 0.23181 0.09154 0.27119 0.0
H373 H 0.24579 0.10324 0.35945 0.0
H374 H 0.21313 0.09596 0.35788 0.0
H375 H 0.22602 0.0675 0.48373 0.0
H376 H 0.25873 0.07241 0.46677 0.0
C377 C 0.24762 1.00346 0.08059 0.0
C378 C 0.26631 0.04722 0.09412 0.0
C379 C 0.3427 0.05909 0.43048 0.0
C380 C 0.34429 0.08551 0.43415 0.0
C381 C 0.32309 0.10022 0.41442 0.0
C382 C 0.3008 0.08843 0.38868 0.0
C383 C 0.30036 0.06207 0.38008 0.0
C384 C 0.3219 0.04815 0.39439 0.0
C385 C 0.32304 0.02458 0.34517 0.0
C386 C 0.29728 0.02576 0.3053 0.0
C387 C 0.28379 0.04694 0.33106 0.0
C388 C 0.32506 1.00131 0.39869 0.0
C389 C 0.34575 0.02662 0.28729 0.0
C390 C 0.1919 0.0448 0.37883 0.0
C391 C 0.1742 0.02594 0.35978 0.0
C392 C 0.17987 0.0098 0.29626 0.0
C393 C 0.20321 0.01185 0.2554 0.0
C394 C 0.2207 0.03044 0.27743 0.0
C395 C 0.21506 0.04635 0.33889 0.0
C396 C 0.23742 0.06239 0.36115 0.0
C397 C 0.25806 0.05004 0.31192 0.0
C398 C 0.24767 0.03393 0.25598 0.0
C399 C 0.24246 0.06057 0.44961 0.0
C400 C 0.23191 0.08979 0.33574 0.0
H401 H 0.33006 0.97603 0.23774 0.0
H402 H 0.30439 0.01893 0.99243 0.0
H403 H 0.28073 0.05883 0.12446 0.0
H404 H 0.24738 0.05557 0.10553 0.0
H405 H 0.26997 0.04831 0.03045 0.0
H406 H 0.24783 0.98375 0.10303 0.0
H407 H 0.25167 1.00303 0.01705 0.0
H408 H 0.22835 0.01136 0.08912 0.0
H409 H 0.35948 0.04771 0.44017 0.0
H410 H 0.32449 0.12061 0.41273 0.0
H411 H 0.28576 0.10002 0.36681 0.0
H412 H 0.3436 1.00106 0.42903 0.0
H413 H 0.32322 0.9836 0.36512 0.0
H414 H 0.3098 1.00144 0.44343 0.0
H415 H 0.33987 0.03504 0.23083 0.0
H416 H 0.35492 1.00812 0.27754 0.0
H417 H 0.36143 0.03857 0.30871 0.0
H418 H 0.35874 0.97527 0.12522 0.0
C419 C 0.3246 0.98545 0.18462 0.0
C420 C 0.52418 0.30321 0.06298 0.0
C421 C 0.53765 0.32085 0.01531 0.0
C422 C 0.56414 0.31855 0.01046 0.0
C423 C 0.564 0.28599 0.10918 0.0
C424 C 0.53798 0.28517 0.10784 0.0
C425 C 0.52863 0.26269 0.15644 0.0
H426 H 0.56316 0.17163 0.42832 0.0
C427 C 0.57346 0.26821 0.16814 0.0
C428 C 0.5532 0.25321 0.19491 0.0
H429 H 0.48985 0.17738 0.31962 0.0
H430 H 0.5044 0.21417 0.24506 0.0
H431 H 0.59826 0.18233 0.28149 0.0
H432 H 0.56662 0.22647 0.46517 0.0
H433 H 0.5929 0.2443 0.436 0.0
H434 H 0.59737 0.21281 0.47442 0.0
H435 H 0.60699 0.1805 0.3824 0.0
H436 H 0.62232 0.20229 0.31695 0.0
C437 C 0.51764 0.24298 0.10018 0.0
C438 C 0.50919 0.2717 0.21712 0.0
C439 C 0.65396 0.29339 0.30345 0.0
C440 C 0.66334 0.28659 0.37706 0.0
C441 C 0.65637 0.26301 0.40873 0.0
C442 C 0.63776 0.24826 0.37267 0.0
C443 C 0.62548 0.2576 0.30582 0.0
C444 C 0.6345 0.27919 0.27027 0.0
C445 C 0.61856 0.28726 0.20223 0.0
C446 C 0.59707 0.26804 0.20723 0.0
C447 C 0.60129 0.25084 0.26781 0.0
C448 C 0.63468 0.28446 0.12694 0.0
C449 C 0.60925 0.31463 0.21709 0.0
C450 C 0.54994 0.18059 0.38894 0.0
C451 C 0.52525 0.17126 0.38086 0.0
C452 C 0.50912 0.18379 0.32711 0.0
C453 C 0.51759 0.20507 0.2834 0.0
C454 C 0.54257 0.21389 0.29244 0.0
C455 C 0.55802 0.20152 0.34534 0.0
C456 C 0.58343 0.21357 0.35269 0.0
C457 C 0.5819 0.23381 0.29051 0.0
C458 C 0.5578 0.23466 0.25505 0.0
C459 C 0.60397 0.19369 0.33287 0.0
C460 C 0.5854 0.22479 0.43615 0.0
H461 H 0.59724 0.30029 0.04953 0.0
H462 H 0.50372 0.30349 0.06493 0.0
H463 H 0.51733 0.28708 0.2531 0.0
H464 H 0.50352 0.25626 0.25694 0.0
H465 H 0.49191 0.27903 0.18814 0.0
H466 H 0.53111 0.23926 0.05166 0.0
H467 H 0.49962 0.24986 0.07455 0.0
H468 H 0.51408 0.22468 0.12882 0.0
H469 H 0.65916 0.31123 0.2771 0.0
H470 H 0.66371 0.25705 0.46469 0.0
H471 H 0.63252 0.231 0.40112 0.0
H472 H 0.6538 0.2765 0.13832 0.0
H473 H 0.63776 0.30299 0.09793 0.0
H474 H 0.6257 0.27136 0.0849 0.0
H475 H 0.59527 0.32132 0.17454 0.0
H476 H 0.62519 0.32825 0.21439 0.0
H477 H 0.60025 0.31608 0.27554 0.0
H478 H 0.57508 0.33113 0.9736 0.0
C479 C 0.57717 0.30103 0.05577 0.0
Tb480 Tb 0.02721 0.99922 0.77213 0.0
Eu481 Eu 0.98312 0.01339 0.64632 0.0
C482 C 0.04277 0.0138 0.60147 0.0
C483 C 1.00477 0.05506 0.77448 0.0
C484 C 0.08082 0.96286 0.83824 0.0
C485 C 0.09179 0.93187 0.74012 0.0
C486 C 0.08532 0.95658 0.75994 0.0
C487 C 0.08717 0.94553 0.89672 0.0
C488 C 0.09364 0.92081 0.87687 0.0
C489 C 0.09332 0.91324 0.79838 0.0
C490 C 0.06263 0.98296 0.85634 0.0
O491 O 0.99214 0.99655 0.84177 0.0
O492 O 0.96099 0.01069 0.75843 0.0
O493 O 0.9843 0.97071 0.64492 0.0
O494 O 0.02451 0.96674 0.69137 0.0
C495 C 0.96843 1.00297 0.82743 0.0
O496 O 0.9467 1.007 0.59063 0.0
O497 O 0.97143 0.03658 0.54755 0.0
O498 O 0.01983 1.00817 0.57778 0.0
O499 O 0.04721 0.01735 0.67573 0.0
O500 O 0.01843 0.03766 0.8098 0.0
O501 O 0.99206 0.05018 0.70994 0.0
C502 C 1.00484 0.95723 0.65453 0.0
O503 O 0.06425 1.00356 0.81492 0.0
O504 O 0.03936 0.97497 0.86113 0.0
C505 C 0.92755 0.04307 0.53607 0.0
C506 C 0.88922 0.07956 0.51746 0.0
C507 C 0.89714 0.06466 0.45416 0.0
C508 C 0.91613 0.0466 0.46349 0.0
C509 C 0.91892 0.05685 0.60048 0.0
C510 C 0.89982 0.07491 0.59132 0.0
C511 C 0.94924 0.02593 0.54252 0.0
H512 H 0.09176 0.92658 0.67922 0.0
H513 H 0.08062 0.96972 0.71367 0.0
H514 H 0.08387 0.95006 0.95739 0.0
H515 H 0.09488 0.90693 0.9232 0.0
H516 H 0.8898 0.06795 0.3962 0.0
H517 H 0.92258 0.03605 0.41325 0.0
H518 H 0.9275 0.05421 0.65716 0.0
H519 H 0.89402 0.08587 0.6414 0.0
Tb520 Tb 0.52248 0.01861 0.82144 0.0
Eu521 Eu 0.50364 0.99026 0.66362 0.0
C522 C 0.51286 0.05003 0.66716 0.0
C523 C 0.46514 1.0013 0.80508 0.0
C524 C 0.5579 0.06269 0.94222 0.0
C525 C 0.5941 0.08386 0.88408 0.0
C526 C 0.57293 0.06831 0.8769 0.0
C527 C 0.56358 0.07371 0.01402 0.0
C528 C 0.58475 0.08936 0.02126 0.0
C529 C 0.6006 0.09409 0.95676 0.0
C530 C 0.53713 0.04446 0.93572 0.0
O531 O 0.51691 0.9795 0.86181 0.0
O532 O 0.51349 0.958 0.74534 0.0
O533 O 0.54529 0.99721 0.64214 0.0
O534 O 0.55843 1.00853 0.76467 0.0
C535 C 0.51554 0.95827 0.82201 0.0
O536 O 0.47269 0.98003 0.58671 0.0
O537 O 0.51101 0.97035 0.55427 0.0
O538 O 0.49741 0.0323 0.6433 0.0
O539 O 0.52783 0.04577 0.72659 0.0
O540 O 0.48066 0.01932 0.8275 0.0
O541 O 0.47199 0.98521 0.75105 0.0
C542 C 0.56337 1.00266 0.69153 0.0
O543 O 0.51873 0.05118 0.88977 0.0
O544 O 0.54406 0.02117 0.92353 0.0
C545 C 0.48404 0.98789 0.45846 0.0
C546 C 0.46459 0.0278 0.36952 0.0
C547 C 0.45193 1.0045 0.37195 0.0
C548 C 0.46161 0.9846 0.41648 0.0
C549 C 0.49856 0.00979 0.44591 0.0
C550 C 0.48889 0.02962 0.40118 0.0
C551 C 0.48777 0.97323 0.53038 0.0
H552 H 0.60583 0.08727 0.83329 0.0
H553 H 0.56873 0.06005 0.82082 0.0
H554 H 0.55214 0.06958 0.06493 0.0
H555 H 0.58945 0.09665 0.07825 0.0
H556 H 0.43304 1.00276 0.34825 0.0
H557 H 0.45006 0.96796 0.42576 0.0
H558 H 0.5159 0.01286 0.47793 0.0
H559 H 0.49907 0.04733 0.39893 0.0
Tb560 Tb 0.5028 0.50515 0.77135 0.0
Eu561 Eu 0.54428 0.48814 0.64174 0.0
C562 C 0.48539 0.49497 0.59679 0.0
C563 C 0.52122 0.44811 0.76523 0.0
C564 C 0.44409 0.53005 0.85919 0.0
C565 C 0.41355 0.55286 0.7805 0.0
C566 C 0.4348 0.53723 0.78591 0.0
C567 C 0.43099 0.53703 0.9265 0.0
C568 C 0.40984 0.55267 0.92126 0.0
C569 C 0.40149 0.56167 0.84837 0.0
C570 C 0.46838 0.51701 0.8664 0.0
O571 O 0.53921 0.51208 0.83064 0.0
O572 O 0.5658 0.48815 0.75503 0.0
O573 O 0.5437 0.53064 0.63431 0.0
O574 O 0.50573 0.53872 0.69426 0.0
C575 C 0.56137 0.50116 0.81855 0.0
O576 O 0.58181 0.49201 0.59044 0.0
O577 O 0.55566 0.46446 0.54398 0.0
O578 O 0.50894 0.49739 0.57301 0.0
O579 O 0.48015 0.49221 0.6714 0.0
O580 O 0.51452 0.46722 0.80943 0.0
O581 O 0.52848 0.45193 0.69283 0.0
C582 C 0.52477 0.54597 0.64939 0.0
O583 O 0.46986 0.49513 0.83237 0.0
O584 O 0.48834 0.53084 0.85285 0.0
C585 C 0.59853 0.4532 0.54932 0.0
C586 C 0.63176 0.41167 0.55656 0.0
C587 C 0.6214 0.42188 0.62513 0.0
C588 C 0.60483 0.44241 0.62149 0.0
C589 C 0.60981 0.44403 0.48131 0.0
C590 C 0.62629 0.42345 0.4848 0.0
C591 C 0.57892 0.47272 0.54435 0.0
H592 H 0.40749 0.55924 0.72355 0.0
H593 H 0.44467 0.53176 0.73321 0.0
H594 H 0.4379 0.53152 0.98342 0.0
H595 H 0.40138 0.55931 0.97492 0.0
H596 H 0.62532 0.41338 0.68128 0.0
H597 H 0.59625 0.4493 0.67473 0.0
H598 H 0.60507 0.45212 0.42517 0.0
H599 H 0.6335 0.41584 0.43065 0.0
Tb600 Tb 1.00181 0.47439 0.82918 0.0
Eu601 Eu 0.02183 0.51623 0.70509 0.0
C602 C 0.01379 0.45798 0.65365 0.0
C603 C 0.05886 0.49332 0.83529 0.0
C604 C 0.97074 0.41859 0.92254 0.0
C605 C 0.96158 0.37547 0.963 0.0
C606 C 0.97863 0.39555 0.95487 0.0
C607 C 0.94601 0.42075 0.89401 0.0
C608 C 0.92891 0.40094 0.90317 0.0
C609 C 0.93617 0.37823 0.93998 0.0
C610 C 0.98772 0.44069 0.92425 0.0
O611 O 0.99068 0.51107 0.87945 0.0
O612 O 0.02011 0.53648 0.82114 0.0
O613 O 0.97896 0.51522 0.68623 0.0
O614 O 0.96924 0.47848 0.75206 0.0
C615 C 1.00343 0.53247 0.87653 0.0
O616 O 0.02106 0.55485 0.66053 0.0
O617 O 0.04588 0.52712 0.60755 0.0
O618 O 0.01356 0.48181 0.63218 0.0
O619 O 0.01414 0.45168 0.72802 0.0
O620 O 0.03828 0.48724 0.8742 0.0
O621 O 0.05743 0.49989 0.76146 0.0
C622 C 0.96282 0.49713 0.70496 0.0
O623 O 1.00851 0.43925 0.88358 0.0
O624 O 0.97702 0.46275 0.9174 0.0
C625 C 0.06067 0.56869 0.61428 0.0
C626 C 0.10546 0.59736 0.61056 0.0
C627 C 0.08888 0.59736 0.54652 0.0
C628 C 0.06669 0.5831 0.54842 0.0
C629 C 0.07626 0.56976 0.68014 0.0
C630 C 0.09849 0.58404 0.67836 0.0
C631 C 0.03949 0.55089 0.61131 0.0
H632 H 0.9681 0.35818 0.99013 0.0
H633 H 0.99775 0.39338 0.97646 0.0
H634 H 0.93943 0.43821 0.86794 0.0
H635 H 0.90955 0.40427 0.88571 0.0
H636 H 0.09383 0.60702 0.49289 0.0
H637 H 0.05485 0.58239 0.49709 0.0
H638 H 0.07179 0.55872 0.73163 0.0
H639 H 0.11075 0.58379 0.72875 0.0
H640 H 0.1234 0.01889 0.32234 0.0
H641 H 0.17423 0.02393 0.51769 0.0
H642 H 0.13875 0.02103 0.60781 0.0
H643 H 0.09325 0.01808 0.63313 0.0
H644 H 0.04141 0.01254 0.44068 0.0
H645 H 0.07694 0.01459 0.34873 0.0
C646 C 0.12669 0.01914 0.3846 0.0
C647 C 0.15168 0.02198 0.41262 0.0
C648 C 0.10588 0.01756 0.4372 0.0
C649 C 0.15536 0.02225 0.49388 0.0
C650 C 0.135 0.02052 0.54582 0.0
C651 C 0.08957 0.01744 0.57109 0.0
C652 C 0.06441 0.0154 0.54447 0.0
C653 C 0.11015 0.01848 0.51839 0.0
C654 C 0.0604 0.01425 0.46346 0.0
C655 C 0.08082 0.01538 0.41059 0.0
H656 H 0.53793 0.15896 0.53154 0.0
H657 H 0.49455 0.13145 0.33725 0.0
H658 H 0.48569 0.09247 0.40888 0.0
H659 H 0.49229 0.06463 0.52578 0.0
H660 H 0.53803 0.09217 0.71442 0.0
H661 H 0.54396 0.1321 0.64633 0.0
C662 C 0.5266 0.14445 0.5042 0.0
C663 C 0.51724 0.14838 0.42795 0.0
C664 C 0.52202 0.12171 0.54521 0.0
C665 C 0.50196 0.12936 0.39562 0.0
C666 C 0.49699 0.10682 0.43666 0.0
C667 C 0.50346 0.07939 0.55181 0.0
C668 C 0.51479 0.07499 0.6252 0.0
C669 C 0.50722 0.10254 0.51122 0.0
C670 C 0.52915 0.09461 0.65813 0.0
C671 C 0.53257 0.11762 0.61909 0.0
H672 H 0.40908 0.5214 0.32267 0.0
H673 H 0.3555 0.48644 0.4784 0.0
H674 H 0.38981 0.47605 0.56925 0.0
H675 H 0.43497 0.48052 0.6102 0.0
H676 H 0.48811 0.51467 0.45021 0.0
H677 H 0.45435 0.52173 0.3565 0.0
C678 C 0.40499 0.51089 0.37555 0.0
C679 C 0.37963 0.50453 0.39304 0.0
C680 C 0.42484 0.50522 0.42789 0.0
C681 C 0.37477 0.49117 0.46245 0.0
C682 C 0.39442 0.48554 0.51504 0.0
C683 C 0.43922 0.48928 0.55455 0.0
C684 C 0.46433 0.49712 0.53816 0.0
C685 C 0.41952 0.49305 0.49944 0.0
C686 C 0.46923 0.50832 0.46512 0.0
C687 C 0.44982 0.51244 0.41113 0.0
H688 H 0.99064 0.38898 0.35996 0.0
H689 H 0.01609 0.33006 0.51415 0.0
H690 H 0.02606 0.36165 0.61398 0.0
H691 H 0.02382 0.40625 0.66213 0.0
H692 H 0.99906 0.46454 0.50329 0.0
H693 H 0.99256 0.43326 0.40215 0.0
C694 C 0.99898 0.38308 0.41471 0.0
C695 C 1.00276 0.35706 0.42892 0.0
C696 C 1.00439 0.40137 0.47216 0.0
C697 C 0.01337 0.34987 0.50073 0.0
C698 C 0.01875 0.36799 0.55839 0.0
C699 C 0.01721 0.41215 0.60522 0.0
C700 C 0.01184 0.43802 0.59142 0.0
C701 C 0.01373 0.39382 0.54566 0.0
C702 C 1.00345 0.44503 0.51657 0.0
C703 C 0.99965 0.42704 0.45818 0.0
H704 H 0.90281 0.02153 0.1325 0.0
H705 H 0.84207 1.00247 0.97708 0.0
H706 H 0.87274 0.99353 0.87322 0.0
H707 H 0.91689 0.99523 0.82256 0.0
H708 H 0.97763 0.01203 0.98105 0.0
H709 H 0.94716 0.01765 0.08699 0.0
C710 C 0.89634 0.01474 0.0765 0.0
C711 C 0.87008 0.01253 0.06294 0.0
C712 C 0.91417 0.00962 0.01693 0.0
C713 C 0.86208 1.00395 0.98969 0.0
C714 C 0.87966 0.99913 0.92989 0.0
C715 C 0.92349 0.99982 0.88051 0.0
C716 C 0.94967 1.00338 0.89326 0.0
C717 C 0.90575 1.00255 0.9421 0.0
C718 C 0.95775 0.00908 0.96917 0.0
C719 C 0.94025 0.0124 0.02995 0.0
H720 H 0.47572 0.8576 0.9756 0.0
H721 H 0.54587 0.86224 0.10332 0.0
H722 H 0.555 0.90261 0.03933 0.0
H723 H 0.54376 0.93631 0.9412 0.0
H724 H 0.47723 0.92581 0.80046 0.0
H725 H 0.4668 0.8875 0.87267 0.0
C726 C 0.4936 0.86652 0.98845 0.0
C727 C 0.51025 0.85575 0.04417 0.0
C728 C 0.49956 0.88895 0.94791 0.0
C729 C 0.53238 0.8695 0.06165 0.0
C730 C 0.53781 0.89268 0.02419 0.0
C731 C 0.5271 0.92548 0.92621 0.0
C732 C 0.51123 0.93406 0.86524 0.0
C733 C 0.52167 0.90253 0.96636 0.0
C734 C 0.4898 0.91969 0.84651 0.0
C735 C 0.48377 0.89777 0.88813 0.0
H736 H 0.63651 0.50406 0.11079 0.0
H737 H 0.6896 0.48337 0.93097 0.0
H738 H 0.65649 0.48663 0.83298 0.0
H739 H 0.61191 0.49229 0.79817 0.0
H740 H 0.55792 0.5137 0.97455 0.0
H741 H 0.59155 0.51332 0.07283 0.0
C742 C 0.6409 0.50086 0.04993 0.0
C743 C 0.66574 0.49352 0.02862 0.0
C744 C 0.62141 0.50253 0.99294 0.0
C745 C 0.67083 0.48909 0.9493 0.0
C746 C 0.6518 0.49081 0.89305 0.0
C747 C 0.60739 0.49703 0.858 0.0
C748 C 0.58213 0.50282 0.8784 0.0
C749 C 0.62691 0.49697 0.91421 0.0
C750 C 0.57702 0.50915 0.95652 0.0
C751 C 0.59634 0.50889 0.01304 0.0
H752 H 0.95962 0.61808 0.09803 0.0
H753 H 0.03539 0.64682 0.0739 0.0
H754 H 0.0475 0.60923 0.99951 0.0
H755 H 0.03508 0.57033 0.92774 0.0
H756 H 0.95947 0.54117 0.95634 0.0
H757 H 0.94883 0.57652 0.04159 0.0
C758 C 0.97903 0.6157 0.07881 0.0
C759 C 0.99663 0.63531 0.09262 0.0
C760 C 0.98573 0.59412 0.03481 0.0
C761 C 0.02158 0.63196 0.06593 0.0
C762 C 0.02839 0.61058 0.02205 0.0
C763 C 0.01633 0.57159 0.95314 0.0
C764 C 0.998 0.55309 0.9343 0.0
C765 C 0.01041 0.59191 1.00381 0.0
C766 C 0.97396 0.55499 0.96913 0.0
C767 C 0.96783 0.5753 0.01805 0.0
H768 H 0.83619 0.16946 0.35132 0.0
H769 H 0.8877 0.20959 0.50221 0.0
H770 H 0.89396 0.17197 0.5786 0.0
H771 H 0.89502 0.12612 0.57958 0.0
H772 H 0.84784 0.08427 0.4213 0.0
H773 H 0.83064 0.12375 0.3697 0.0
C774 C 0.84865 0.17016 0.40123 0.0
C775 C 0.86237 0.1924 0.41744 0.0
C776 C 0.8538 0.14775 0.4424 0.0
C777 C 0.877 0.19304 0.48605 0.0
C778 C 0.88104 0.17121 0.52979 0.0
C779 C 0.88026 0.12546 0.53597 0.0
C780 C 0.87326 0.10225 0.503 0.0
C781 C 0.87108 0.14818 0.5049 0.0
C782 C 0.8541 0.10194 0.44627 0.0
C783 C 0.84423 0.12452 0.41675 0.0
H784 H 0.37138 0.09347 0.30619 0.0
H785 H 0.37518 0.09709 0.55601 0.0
H786 H 0.4197 0.08479 0.55194 0.0
H787 H 0.45049 0.05887 0.48255 0.0
H788 H 0.44255 0.04613 0.23647 0.0
H789 H 0.40653 0.07529 0.23261 0.0
C790 C 0.38254 0.09309 0.35915 0.0
C791 C 0.37014 0.09572 0.43135 0.0
C792 C 0.40698 0.08285 0.35664 0.0
C793 C 0.38441 0.0951 0.49995 0.0
C794 C 0.40967 0.08739 0.49755 0.0
C795 C 0.44172 0.06362 0.42742 0.0
C796 C 0.44921 0.05079 0.35964 0.0
C797 C 0.42022 0.07902 0.42703 0.0
C798 C 0.43716 0.0561 0.28892 0.0
C799 C 0.41653 0.07263 0.28703 0.0
H800 H 0.6483 0.29719 0.52345 0.0
H801 H 0.69888 0.323 0.34253 0.0
H802 H 0.69761 0.36567 0.39603 0.0
H803 H 0.6729 0.39671 0.47126 0.0
H804 H 0.6193 0.37027 0.64336 0.0
H805 H 0.63162 0.32691 0.61814 0.0
C806 C 0.66011 0.31178 0.49784 0.0
C807 C 0.67301 0.30711 0.42759 0.0
C808 C 0.65816 0.33646 0.52638 0.0
C809 C 0.68834 0.32628 0.39575 0.0
C810 C 0.68736 0.35076 0.42578 0.0
C811 C 0.66436 0.38146 0.50445 0.0
C812 C 0.64471 0.38676 0.55752 0.0
C813 C 0.67077 0.35635 0.4873 0.0
C814 C 0.63437 0.36687 0.60185 0.0
C815 C 0.64125 0.34194 0.58695 0.0
H816 H 0.21746 0.60633 0.5123 0.0
H817 H 0.18813 0.67094 0.38797 0.0
H818 H 0.14882 0.66827 0.46266 0.0
H819 H 0.11994 0.64155 0.54044 0.0
H820 H 0.14957 0.57571 0.65778 0.0
H821 H 0.19185 0.58561 0.61111 0.0
C822 C 0.20304 0.62062 0.50354 0.0
C823 C 0.2055 0.63831 0.44256 0.0
C824 C 0.18025 0.61848 0.54485 0.0
C825 C 0.18646 0.65663 0.43287 0.0
C826 C 0.16391 0.65504 0.47537 0.0
C827 C 0.13578 0.62972 0.55716 0.0
C828 C 0.13145 0.60761 0.60102 0.0
C829 C 0.16003 0.63501 0.52772 0.0
C830 C 0.15224 0.59282 0.62401 0.0
C831 C 0.17647 0.59832 0.59664 0.0
H832 H 0.04503 0.81145 0.87496 0.0
H833 H 0.9833 0.84893 0.75907 0.0
H834 H 0.01266 0.87943 0.70252 0.0
H835 H 0.05261 0.90107 0.71576 0.0
H836 H 0.11294 0.86787 0.84925 0.0
H837 H 0.08788 0.82936 0.86663 0.0
C838 C 0.03831 0.82554 0.8339 0.0
C839 C 0.01219 0.82818 0.82106 0.0
C840 C 0.05513 0.84386 0.80538 0.0
C841 C 1.00339 0.84665 0.76922 0.0
C842 C 0.02018 0.86412 0.73721 0.0
C843 C 0.06092 0.88489 0.74461 0.0
C844 C 0.08454 0.88731 0.78123 0.0
C845 C 0.04573 0.8638 0.75895 0.0
C846 C 0.09477 0.86642 0.82065 0.0
C847 C 0.0803 0.84456 0.83131 0.0
H848 H 0.71318 0.11692 0.02987 0.0
H849 H 0.67925 0.17499 0.17221 0.0
H850 H 0.63822 0.16652 0.113 0.0
H851 H 0.61102 0.13696 0.03944 0.0
H852 H 0.64608 0.07901 0.89972 0.0
H853 H 0.68775 0.09378 0.93781 0.0
C854 C 0.69724 0.12864 0.04623 0.0
C855 C 0.6994 0.14602 0.10787 0.0
C856 C 0.67366 0.12337 0.01311 0.0
C857 C 0.67814 0.16084 0.12701 0.0
C858 C 0.65458 0.15597 0.09326 0.0
C859 C 0.62783 0.1279 0.01636 0.0
C860 C 0.62541 0.10666 0.96782 0.0
C861 C 0.6519 0.13624 0.03959 0.0
C862 C 0.64734 0.0954 0.93704 0.0
C863 C 0.67123 0.10373 0.95923 0.0
H864 H 0.35576 0.65824 0.97668 0.0
H865 H 0.4069 0.68875 0.80414 0.0
H866 H 0.40784 0.64851 0.7374 0.0
H867 H 0.40626 0.60298 0.75606 0.0
H868 H 0.35891 0.57111 0.93634 0.0
H869 H 0.3443 0.61329 0.97159 0.0
C870 C 0.36634 0.65628 0.92281 0.0
C871 C 0.3821 0.67612 0.89754 0.0
C872 C 0.3682 0.63251 0.88755 0.0
C873 C 0.39492 0.67373 0.82602 0.0
C874 C 0.3958 0.6505 0.78823 0.0
C875 C 0.3918 0.60501 0.80052 0.0
C876 C 0.38452 0.58403 0.8458 0.0
C877 C 0.38436 0.62934 0.8226 0.0
C878 C 0.3655 0.58711 0.90247 0.0
C879 C 0.35721 0.61125 0.92284 0.0
H880 H 0.85116 0.33074 0.13877 0.0
H881 H 0.80856 0.35758 0.94072 0.0
H882 H 0.84683 0.35888 0.86308 0.0
H883 H 0.8926 0.36536 0.86362 0.0
H884 H 0.9348 0.34888 0.07282 0.0
H885 H 0.89737 0.33049 0.13206 0.0
C886 C 0.85013 0.33662 0.07832 0.0
C887 C 0.82704 0.34548 0.04765 0.0
C888 C 0.87263 0.33992 0.03595 0.0
C889 C 0.82593 0.35118 0.96748 0.0
C890 C 0.84803 0.35237 0.92288 0.0
C891 C 0.89373 0.35756 0.92196 0.0
C892 C 0.91637 0.35968 0.96453 0.0
C893 C 0.87159 0.34897 0.9586 0.0
C894 C 0.91773 0.34801 0.03834 0.0
C895 C 0.89612 0.33768 0.07299 0.0
H896 H 0.97632 0.16467 0.89924 0.0
H897 H 0.0366 0.1484 0.06021 0.0
H898 H 0.04445 0.10809 0.99455 0.0
H899 H 0.03232 0.07588 0.89583 0.0
H900 H 0.97199 0.09304 0.73522 0.0
H901 H 0.96603 0.13404 0.79653 0.0
C902 C 0.99131 0.15241 0.91997 0.0
C903 C 1.00573 0.1598 0.98545 0.0
C904 C 0.99558 0.12907 0.88218 0.0
C905 C 0.02529 0.14359 0.00996 0.0
C906 C 0.02963 0.12031 0.97267 0.0
C907 C 0.01794 0.08861 0.87379 0.0
C908 C 1.00258 0.08094 0.81051 0.0
C909 C 0.01461 0.11259 0.90943 0.0
C910 C 0.98419 0.09806 0.78326 0.0
C911 C 0.9807 0.12166 0.81858 0.0
H912 H 0.36583 0.96368 0.98064 0.0
H913 H 0.35141 0.04356 0.99355 0.0
H914 H 0.39048 0.05211 0.92067 0.0
H915 H 0.43074 0.0368 0.85984 0.0
H916 H 0.44299 0.95661 0.84046 0.0
H917 H 0.40337 0.94838 0.90907 0.0
C918 C 0.37096 0.98296 0.96616 0.0
C919 C 0.35544 1.00293 0.99245 0.0
C920 C 0.39352 0.98773 0.92388 0.0
C921 C 0.36261 0.02777 0.97318 0.0
C922 C 0.38521 0.03269 0.93221 0.0
C923 C 0.42467 0.01755 0.87051 0.0
C924 C 0.44016 0.99735 0.84536 0.0
C925 C 0.40116 0.01284 0.90845 0.0
C926 C 0.43165 0.97254 0.85888 0.0
C927 C 0.40889 0.96778 0.89831 0.0
H928 H 0.5442 0.33466 0.8633 0.0
H929 H 0.5059 0.35744 0.07327 0.0
H930 H 0.49637 0.39867 0.01423 0.0
H931 H 0.5031 0.43008 0.90705 0.0
H932 H 0.54219 0.40631 0.6986 0.0
H933 H 0.54738 0.36416 0.753 0.0
C934 C 0.53325 0.34843 0.89566 0.0
C935 C 0.52577 0.34276 0.97291 0.0
C936 C 0.52844 0.37233 0.86196 0.0
C937 C 0.51161 0.36097 0.01358 0.0
C938 C 0.50649 0.38477 0.98006 0.0
C939 C 0.51257 0.41564 0.87319 0.0
C940 C 0.52237 0.42178 0.7985 0.0
C941 C 0.5155 0.39099 0.90503 0.0
C942 C 0.53442 0.40251 0.75589 0.0
C943 C 0.53744 0.37823 0.78709 0.0
H944 H 0.14763 0.51324 0.07622 0.0
H945 H 0.19388 0.48592 0.88782 0.0
H946 H 0.15587 0.47971 0.80778 0.0
H947 H 0.1088 0.48381 0.78957 0.0
H948 H 0.06356 0.50914 0.98372 0.0
H949 H 0.10146 0.51454 0.06196 0.0
C950 C 0.14941 0.50562 0.0179 0.0
C951 C 0.17373 0.50003 0.98839 0.0
C952 C 0.12744 0.50202 0.97249 0.0
C953 C 0.17551 0.49013 0.91262 0.0
C954 C 0.1537 0.48682 0.8665 0.0
C955 C 0.10729 0.4905 0.84897 0.0
C956 C 0.08309 0.49613 0.88021 0.0
C957 C 0.12947 0.49301 0.89533 0.0
C958 C 0.08169 0.50452 0.95781 0.0
C959 C 0.10345 0.50766 1.0029 0.0
H960 H 0.03157 0.85684 0.46481 0.0
H961 H 0.95144 0.84513 0.49077 0.0
H962 H 0.94789 0.88393 0.5672 0.0
H963 H 0.96708 0.92296 0.62071 0.0
H964 H 0.04744 0.93437 0.59755 0.0
H965 H 0.05135 0.89451 0.52692 0.0
C966 C 0.01346 0.86248 0.48892 0.0
C967 C 0.99184 0.84766 0.47318 0.0
C968 C 0.01151 0.88521 0.53249 0.0
C969 C 0.96843 0.85576 0.50323 0.0
C970 C 0.96636 0.87818 0.54634 0.0
C971 C 0.98549 0.91667 0.60062 0.0
C972 C 1.00696 0.93187 0.6152 0.0
C973 C 0.98767 0.89337 0.56031 0.0
C974 C 0.03059 0.92318 0.58823 0.0
C975 C 0.03284 0.9003 0.54735 0.0
H976 H 0.67759 0.02628 0.59935 0.0
H977 H 0.65902 0.97828 0.40575 0.0
H978 H 0.61692 0.9708 0.46148 0.0
H979 H 0.58401 0.98052 0.5607 0.0
H980 H 0.60343 0.02763 0.75604 0.0
H981 H 0.64618 0.03284 0.70424 0.0
C982 C 0.66446 0.0139 0.56977 0.0
C983 C 0.67164 1.00292 0.49802 0.0
C984 C 0.64017 0.00974 0.60219 0.0
C985 C 0.65429 0.98679 0.46117 0.0
C986 C 0.63004 0.98271 0.49278 0.0
C987 C 0.59764 0.99177 0.59236 0.0
C988 C 0.59019 1.00378 0.66235 0.0
C989 C 0.62254 0.99449 0.56251 0.0
C990 C 0.60838 0.01808 0.70244 0.0
C991 C 0.63293 0.02115 0.67261 0.0
H992 H 0.53026 0.63872 0.41264 0.0
H993 H 0.46958 0.66597 0.55707 0.0
H994 H 0.4748 0.6299 0.64528 0.0
H995 H 0.49355 0.58766 0.67346 0.0
H996 H 0.55476 0.56112 0.52827 0.0
H997 H 0.55241 0.59932 0.44982 0.0
C998 C 0.51893 0.63733 0.46524 0.0
C999 C 0.49999 0.65554 0.47905 0.0
C1000 C 0.52169 0.61607 0.51509 0.0
C1001 C 0.4848 0.65273 0.54608 0.0
C1002 C 0.48752 0.6318 0.59598 0.0
C1003 C 0.5066 0.59034 0.62531 0.0
C1004 C 0.5242 0.57106 0.60731 0.0
C1005 C 0.50539 0.61284 0.57988 0.0
C1006 C 0.54095 0.57528 0.54439 0.0
C1007 C 0.53964 0.59728 0.49893 0.0
H1008 H 0.84906 0.47535 0.61065 0.0
H1009 H 0.87106 0.51477 0.40139 0.0
H1010 H 0.91216 0.52493 0.46022 0.0
H1011 H 0.94408 0.51805 0.56678 0.0
H1012 H 0.92143 0.47541 0.77007 0.0
H1013 H 0.87904 0.47079 0.71769 0.0
C1014 C 0.86267 0.48648 0.57792 0.0
C1015 C 0.85675 0.49409 0.50102 0.0
C1016 C 0.88665 0.49125 0.61086 0.0
C1017 C 0.87473 0.50881 0.46068 0.0
C1018 C 0.89849 0.5143 0.49411 0.0
C1019 C 0.92977 0.50805 0.60001 0.0
C1020 C 0.93633 0.49696 0.67262 0.0
C1021 C 0.90505 0.50494 0.56843 0.0
C1022 C 0.91733 0.48395 0.71408 0.0
C1023 C 0.8929 0.48133 0.68416 0.0
loop_
_geom_bond_atom_site_label_1
_geom_bond_atom_site_label_2
_geom_bond_distance
_geom_bond_site_symmetry_2
_ccdc_geom_bond_type
C0 C1 1.391 . S
C0 C4 1.391 . S
C0 H42 0.948 . S
C1 C0 1.391 . S
C1 C2 1.391 . S
C2 C1 1.391 . S
C2 H58 0.947 . S
C2 C59 1.392 . S
C3 C4 1.391 . S
C3 C7 1.397 . S
C3 C59 1.419 . S
C4 C0 1.391 . S
C4 C3 1.391 . S
C4 C5 1.399 . S
C5 C4 1.399 . S
C5 C8 1.396 . S
C5 C17 1.453 . S
C5 C18 1.684 . S
H6 C30 0.948 . S
C7 C3 1.397 . S
C7 C8 1.394 . S
C7 C26 1.723 . S
C8 C5 1.396 . S
C8 C7 1.394 . S
C8 C38 1.723 . S
H9 C32 0.947 . S
H10 C33 0.948 . S
H11 C39 0.982 . S
H12 C40 0.979 . S
H13 C40 0.980 . S
H14 C40 0.983 . S
H15 C39 0.979 . S
H16 C39 0.977 . S
C17 C5 1.453 . S
C17 H46 0.982 . S
C17 H47 0.979 . S
C17 H48 0.977 . S
C18 C5 1.684 . S
C18 H43 0.979 . S
C18 H44 0.980 . S
C18 H45 0.983 . S
C19 C20 1.391 . S
C19 C24 1.391 . S
C19 H49 0.948 . S
C20 C19 1.391 . S
C20 C21 1.391 . S
C21 C20 1.391 . S
C21 C22 1.392 . S
C21 H50 0.947 . S
C22 C21 1.392 . S
C22 C23 1.419 . S
C22 H51 0.948 . S
C23 C22 1.419 . S
C23 C24 1.391 . S
C23 C27 1.397 . S
C24 C19 1.391 . S
C24 C23 1.391 . S
C24 C25 1.399 . S
C25 C24 1.399 . S
C25 C26 1.396 . S
C25 C28 1.453 . S
C25 C29 1.684 . S
C26 C7 1.723 . S
C26 C25 1.396 . S
C26 C27 1.394 . S
C27 C23 1.397 . S
C27 C26 1.394 . S
C27 C37 1.723 . S
C28 C25 1.453 . S
C28 H52 0.982 . S
C28 H53 0.979 . S
C28 H54 0.977 . S
C29 C25 1.684 . S
C29 H55 0.979 . S
C29 H56 0.980 . S
C29 H57 0.983 . S
C30 H6 0.948 . S
C30 C31 1.391 . S
C30 C35 1.391 . S
C31 C30 1.391 . S
C31 C32 1.391 . S
C32 H9 0.947 . S
C32 C31 1.391 . S
C32 C33 1.392 . S
C33 H10 0.948 . S
C33 C32 1.392 . S
C33 C34 1.419 . S
C34 C33 1.419 . S
C34 C35 1.391 . S
C34 C38 1.397 . S
C35 C30 1.391 . S
C35 C34 1.391 . S
C35 C36 1.399 . S
C36 C35 1.399 . S
C36 C37 1.396 . S
C36 C39 1.453 . S
C36 C40 1.684 . S
C37 C27 1.723 . S
C37 C36 1.396 . S
C37 C38 1.394 . S
C38 C8 1.723 . S
C38 C34 1.397 . S
C38 C37 1.394 . S
C39 H11 0.982 . S
C39 H15 0.979 . S
C39 H16 0.977 . S
C39 C36 1.453 . S
C40 H12 0.979 . S
C40 H13 0.980 . S
C40 H14 0.983 . S
C40 C36 1.684 . S
H41 C59 0.948 . S
H42 C0 0.948 . S
H43 C18 0.979 . S
H44 C18 0.980 . S
H45 C18 0.983 . S
H46 C17 0.982 . S
H47 C17 0.979 . S
H48 C17 0.977 . S
H49 C19 0.948 . S
H50 C21 0.947 . S
H51 C22 0.948 . S
H52 C28 0.982 . S
H53 C28 0.979 . S
H54 C28 0.977 . S
H55 C29 0.979 . S
H56 C29 0.980 . S
H57 C29 0.983 . S
H58 C2 0.947 . S
C59 C2 1.392 . S
C59 C3 1.419 . S
C59 H41 0.948 . S
C60 C61 1.391 . S
C60 C64 1.391 . S
C60 H102 0.948 . S
C61 C60 1.391 . S
C61 C62 1.391 . S
C62 C61 1.391 . S
C62 H118 0.947 . S
C62 C119 1.392 . S
C63 C64 1.391 . S
C63 C67 1.397 1_655 S
C63 C119 1.419 . S
C64 C60 1.391 . S
C64 C63 1.391 . S
C64 C65 1.399 . S
C65 C64 1.399 . S
C65 C68 1.396 1_655 S
C65 C77 1.453 1_655 S
C65 C78 1.684 . S
H66 C90 0.948 . S
C67 C63 1.397 1_455 S
C67 C68 1.394 . S
C67 C86 1.723 . S
C68 C65 1.396 1_455 S
C68 C67 1.394 . S
C68 C98 1.723 . S
H69 C92 0.947 . S
H70 C93 0.948 . S
H71 C99 0.982 . S
H72 C100 0.979 . S
H73 C100 0.980 . S
H74 C100 0.983 . S
H75 C99 0.979 . S
H76 C99 0.977 . S
C77 C65 1.453 1_455 S
C77 H106 0.982 . S
C77 H107 0.979 . S
C77 H108 0.977 . S
C78 C65 1.684 . S
C78 H103 0.979 . S
C78 H104 0.980 . S
C78 H105 0.983 . S
C79 C80 1.391 . S
C79 C84 1.391 . S
C79 H109 0.948 . S
C80 C79 1.391 . S
C80 C81 1.391 . S
C81 C80 1.391 . S
C81 C82 1.392 . S
C81 H110 0.947 . S
C82 C81 1.392 . S
C82 C83 1.419 . S
C82 H111 0.948 . S
C83 C82 1.419 . S
C83 C84 1.391 . S
C83 C87 1.397 1_655 S
C84 C79 1.391 . S
C84 C83 1.391 . S
C84 C85 1.399 . S
C85 C84 1.399 . S
C85 C86 1.396 1_655 S
C85 C88 1.453 1_655 S
C85 C89 1.684 . S
C86 C67 1.723 . S
C86 C85 1.396 1_455 S
C86 C87 1.394 . S
C87 C83 1.397 1_455 S
C87 C86 1.394 . S
C87 C97 1.723 . S
C88 C85 1.453 1_455 S
C88 H112 0.982 . S
C88 H113 0.979 . S
C88 H114 0.977 . S
C89 C85 1.684 . S
C89 H115 0.979 . S
C89 H116 0.980 . S
C89 H117 0.983 . S
C90 H66 0.948 . S
C90 C91 1.391 . S
C90 C95 1.391 . S
C91 C90 1.391 . S
C91 C92 1.391 . S
C92 H69 0.947 . S
C92 C91 1.391 . S
C92 C93 1.392 . S
C93 H70 0.948 . S
C93 C92 1.392 . S
C93 C94 1.419 . S
C94 C93 1.419 . S
C94 C95 1.391 . S
C94 C98 1.397 1_655 S
C95 C90 1.391 . S
C95 C94 1.391 . S
C95 C96 1.399 . S
C96 C95 1.399 . S
C96 C97 1.396 1_655 S
C96 C99 1.453 1_655 S
C96 C100 1.684 . S
C97 C87 1.723 . S
C97 C96 1.396 1_455 S
C97 C98 1.394 . S
C98 C68 1.723 . S
C98 C94 1.397 1_455 S
C98 C97 1.394 . S
C99 H71 0.982 . S
C99 H75 0.979 . S
C99 H76 0.977 . S
C99 C96 1.453 1_455 S
C100 H72 0.979 . S
C100 H73 0.980 . S
C100 H74 0.983 . S
C100 C96 1.684 . S
H101 C119 0.948 . S
H102 C60 0.948 . S
H103 C78 0.979 . S
H104 C78 0.980 . S
H105 C78 0.983 . S
H106 C77 0.982 . S
H107 C77 0.979 . S
H108 C77 0.977 . S
H109 C79 0.948 . S
H110 C81 0.947 . S
H111 C82 0.948 . S
H112 C88 0.982 . S
H113 C88 0.979 . S
H114 C88 0.977 . S
H115 C89 0.979 . S
H116 C89 0.980 . S
H117 C89 0.983 . S
H118 C62 0.947 . S
C119 C62 1.392 . S
C119 C63 1.419 . S
C119 H101 0.948 . S
C120 C121 1.391 . S
C120 C124 1.391 . S
C120 H162 0.948 . S
C121 C120 1.391 . S
C121 C122 1.391 . S
C122 C121 1.391 . S
C122 H178 0.947 . S
C122 C179 1.392 . S
C123 C124 1.391 . S
C123 C127 1.397 1_565 S
C123 C179 1.419 . S
C124 C120 1.391 . S
C124 C123 1.391 . S
C124 C125 1.399 . S
C125 C124 1.399 . S
C125 C128 1.396 1_565 S
C125 C137 1.453 1_565 S
C125 C138 1.684 . S
H126 C150 0.948 . S
C127 C123 1.397 1_545 S
C127 C128 1.394 . S
C127 C146 1.723 . S
C128 C125 1.396 1_545 S
C128 C127 1.394 . S
C128 C158 1.723 . S
H129 C152 0.947 . S
H130 C153 0.948 . S
H131 C159 0.982 . S
H132 C160 0.979 . S
H133 C160 0.980 . S
H134 C160 0.983 . S
H135 C159 0.979 . S
H136 C159 0.977 . S
C137 C125 1.453 1_545 S
C137 H166 0.982 . S
C137 H167 0.979 . S
C137 H168 0.977 . S
C138 C125 1.684 . S
C138 H163 0.979 . S
C138 H164 0.980 . S
C138 H165 0.983 . S
C139 C140 1.391 . S
C139 C144 1.391 . S
C139 H169 0.948 . S
C140 C139 1.391 . S
C140 C141 1.391 . S
C141 C140 1.391 . S
C141 C142 1.392 . S
C141 H170 0.947 . S
C142 C141 1.392 . S
C142 C143 1.419 . S
C142 H171 0.948 . S
C143 C142 1.419 . S
C143 C144 1.391 . S
C143 C147 1.397 1_565 S
C144 C139 1.391 . S
C144 C143 1.391 . S
C144 C145 1.399 . S
C145 C144 1.399 . S
C145 C146 1.396 1_565 S
C145 C148 1.453 1_565 S
C145 C149 1.684 . S
C146 C127 1.723 . S
C146 C145 1.396 1_545 S
C146 C147 1.394 . S
C147 C143 1.397 1_545 S
C147 C146 1.394 . S
C147 C157 1.723 . S
C148 C145 1.453 1_545 S
C148 H172 0.982 . S
C148 H173 0.979 . S
C148 H174 0.977 . S
C149 C145 1.684 . S
C149 H175 0.979 . S
C149 H176 0.980 . S
C149 H177 0.983 . S
C150 H126 0.948 . S
C150 C151 1.391 . S
C150 C155 1.391 . S
C151 C150 1.391 . S
C151 C152 1.391 . S
C152 H129 0.947 . S
C152 C151 1.391 . S
C152 C153 1.392 . S
C153 H130 0.948 . S
C153 C152 1.392 . S
C153 C154 1.419 . S
C154 C153 1.419 . S
C154 C155 1.391 . S
C154 C158 1.397 1_565 S
C155 C150 1.391 . S
C155 C154 1.391 . S
C155 C156 1.399 . S
C156 C155 1.399 . S
C156 C157 1.396 1_565 S
C156 C159 1.453 1_565 S
C156 C160 1.684 . S
C157 C147 1.723 . S
C157 C156 1.396 1_545 S
C157 C158 1.394 . S
C158 C128 1.723 . S
C158 C154 1.397 1_545 S
C158 C157 1.394 . S
C159 H131 0.982 . S
C159 H135 0.979 . S
C159 H136 0.977 . S
C159 C156 1.453 1_545 S
C160 H132 0.979 . S
C160 H133 0.980 . S
C160 H134 0.983 . S
C160 C156 1.684 . S
H161 C179 0.948 . S
H162 C120 0.948 . S
H163 C138 0.979 . S
H164 C138 0.980 . S
H165 C138 0.983 . S
H166 C137 0.982 . S
H167 C137 0.979 . S
H168 C137 0.977 . S
H169 C139 0.948 . S
H170 C141 0.947 . S
H171 C142 0.948 . S
H172 C148 0.982 . S
H173 C148 0.979 . S
H174 C148 0.977 . S
H175 C149 0.979 . S
H176 C149 0.980 . S
H177 C149 0.983 . S
H178 C122 0.947 . S
C179 C122 1.392 . S
C179 C123 1.419 . S
C179 H161 0.948 . S
C180 C181 1.391 . S
C180 C184 1.391 . S
C180 H222 0.948 . S
C181 C180 1.391 . S
C181 C182 1.391 . S
C182 C181 1.391 . S
C182 H238 0.947 . S
C182 C239 1.392 . S
C183 C184 1.391 . S
C183 C187 1.397 . S
C183 C239 1.419 . S
C184 C180 1.391 . S
C184 C183 1.391 . S
C184 C185 1.399 . S
C185 C184 1.399 . S
C185 C188 1.396 . S
C185 C197 1.453 . S
C185 C198 1.684 . S
H186 C210 0.948 . S
C187 C183 1.397 . S
C187 C188 1.394 . S
C187 C206 1.723 . S
C188 C185 1.396 . S
C188 C187 1.394 . S
C188 C218 1.723 . S
H189 C212 0.947 . S
H190 C213 0.948 . S
H191 C219 0.982 . S
H192 C220 0.979 . S
H193 C220 0.980 . S
H194 C220 0.983 . S
H195 C219 0.979 . S
H196 C219 0.977 . S
C197 C185 1.453 . S
C197 H226 0.982 . S
C197 H227 0.979 . S
C197 H228 0.977 . S
C198 C185 1.684 . S
C198 H223 0.979 . S
C198 H224 0.980 . S
C198 H225 0.983 . S
C199 C200 1.391 . S
C199 C204 1.391 . S
C199 H229 0.948 . S
C200 C199 1.391 . S
C200 C201 1.391 . S
C201 C200 1.391 . S
C201 C202 1.392 . S
C201 H230 0.947 . S
C202 C201 1.392 . S
C202 C203 1.419 . S
C202 H231 0.948 . S
C203 C202 1.419 . S
C203 C204 1.391 . S
C203 C207 1.397 . S
C204 C199 1.391 . S
C204 C203 1.391 . S
C204 C205 1.399 . S
C205 C204 1.399 . S
C205 C206 1.396 . S
C205 C208 1.453 . S
C205 C209 1.684 . S
C206 C187 1.723 . S
C206 C205 1.396 . S
C206 C207 1.394 . S
C207 C203 1.397 . S
C207 C206 1.394 . S
C207 C217 1.723 . S
C208 C205 1.453 . S
C208 H232 0.982 . S
C208 H233 0.979 . S
C208 H234 0.977 . S
C209 C205 1.684 . S
C209 H235 0.979 . S
C209 H236 0.980 . S
C209 H237 0.983 . S
C210 H186 0.948 . S
C210 C211 1.391 . S
C210 C215 1.391 . S
C211 C210 1.391 . S
C211 C212 1.391 . S
C212 H189 0.947 . S
C212 C211 1.391 . S
C212 C213 1.392 . S
C213 H190 0.948 . S
C213 C212 1.392 . S
C213 C214 1.419 . S
C214 C213 1.419 . S
C214 C215 1.391 . S
C214 C218 1.397 . S
C215 C210 1.391 . S
C215 C214 1.391 . S
C215 C216 1.399 . S
C216 C215 1.399 . S
C216 C217 1.396 . S
C216 C219 1.453 . S
C216 C220 1.684 . S
C217 C207 1.723 . S
C217 C216 1.396 . S
C217 C218 1.394 . S
C218 C188 1.723 . S
C218 C214 1.397 . S
C218 C217 1.394 . S
C219 H191 0.982 . S
C219 H195 0.979 . S
C219 H196 0.977 . S
C219 C216 1.453 . S
C220 H192 0.979 . S
C220 H193 0.980 . S
C220 H194 0.983 . S
C220 C216 1.684 . S
H221 C239 0.948 . S
H222 C180 0.948 . S
H223 C198 0.979 . S
H224 C198 0.980 . S
H225 C198 0.983 . S
H226 C197 0.982 . S
H227 C197 0.979 . S
H228 C197 0.977 . S
H229 C199 0.948 . S
H230 C201 0.947 . S
H231 C202 0.948 . S
H232 C208 0.982 . S
H233 C208 0.979 . S
H234 C208 0.977 . S
H235 C209 0.979 . S
H236 C209 0.980 . S
H237 C209 0.983 . S
H238 C182 0.947 . S
C239 C182 1.392 . S
C239 C183 1.419 . S
C239 H221 0.948 . S
C240 C241 1.391 . S
C240 C244 1.391 . S
C240 H282 0.948 . S
C241 C240 1.391 . S
C241 C242 1.391 . S
C242 C241 1.391 . S
C242 H298 0.947 . S
C242 C299 1.392 . S
C243 C244 1.391 . S
C243 C247 1.397 . S
C243 C299 1.419 . S
C244 C240 1.391 . S
C244 C243 1.391 . S
C244 C245 1.399 1_554 S
C245 C244 1.399 1_556 S
C245 C248 1.396 1_556 S
C245 C257 1.453 . S
C245 C258 1.684 . S
H246 C270 0.948 . S
C247 C243 1.397 . S
C247 C248 1.394 . S
C247 C266 1.723 . S
C248 C245 1.396 1_554 S
C248 C247 1.394 . S
C248 C278 1.723 1_554 S
H249 C272 0.947 . S
H250 C273 0.948 . S
H251 C279 0.982 . S
H252 C280 0.979 . S
H253 C280 0.980 1_554 S
H254 C280 0.983 . S
H255 C279 0.979 . S
H256 C279 0.977 1_554 S
C257 C245 1.453 . S
C257 H286 0.982 . S
C257 H287 0.979 . S
C257 H288 0.977 . S
C258 C245 1.684 . S
C258 H283 0.979 . S
C258 H284 0.980 . S
C258 H285 0.983 . S
C259 C260 1.391 . S
C259 C264 1.391 . S
C259 H289 0.948 . S
C260 C259 1.391 . S
C260 C261 1.391 . S
C261 C260 1.391 . S
C261 C262 1.392 . S
C261 H290 0.947 . S
C262 C261 1.392 . S
C262 C263 1.419 . S
C262 H291 0.948 . S
C263 C262 1.419 . S
C263 C264 1.391 . S
C263 C267 1.397 . S
C264 C259 1.391 . S
C264 C263 1.391 . S
C264 C265 1.399 . S
C265 C264 1.399 . S
C265 C266 1.396 . S
C265 C268 1.453 . S
C265 C269 1.684 . S
C266 C247 1.723 . S
C266 C265 1.396 . S
C266 C267 1.394 . S
C267 C263 1.397 . S
C267 C266 1.394 . S
C267 C277 1.723 . S
C268 C265 1.453 . S
C268 H292 0.982 . S
C268 H293 0.979 . S
C268 H294 0.977 . S
C269 C265 1.684 . S
C269 H295 0.979 . S
C269 H296 0.980 . S
C269 H297 0.983 . S
C270 H246 0.948 . S
C270 C271 1.391 . S
C270 C275 1.391 . S
C271 C270 1.391 . S
C271 C272 1.391 . S
C272 H249 0.947 . S
C272 C271 1.391 . S
C272 C273 1.392 . S
C273 H250 0.948 . S
C273 C272 1.392 . S
C273 C274 1.419 . S
C274 C273 1.419 . S
C274 C275 1.391 . S
C274 C278 1.397 . S
C275 C270 1.391 . S
C275 C274 1.391 . S
C275 C276 1.399 . S
C276 C275 1.399 . S
C276 C277 1.396 1_556 S
C276 C279 1.453 . S
C276 C280 1.684 . S
C277 C267 1.723 . S
C277 C276 1.396 1_554 S
C277 C278 1.394 1_554 S
C278 C248 1.723 1_556 S
C278 C274 1.397 . S
C278 C277 1.394 1_556 S
C279 H251 0.982 . S
C279 H255 0.979 . S
C279 H256 0.977 1_556 S
C279 C276 1.453 . S
C280 H252 0.979 . S
C280 H253 0.980 1_556 S
C280 H254 0.983 . S
C280 C276 1.684 . S
H281 C299 0.948 . S
H282 C240 0.948 . S
H283 C258 0.979 . S
H284 C258 0.980 . S
H285 C258 0.983 . S
H286 C257 0.982 . S
H287 C257 0.979 . S
H288 C257 0.977 . S
H289 C259 0.948 . S
H290 C261 0.947 . S
H291 C262 0.948 . S
H292 C268 0.982 . S
H293 C268 0.979 . S
H294 C268 0.977 . S
H295 C269 0.979 . S
H296 C269 0.980 . S
H297 C269 0.983 . S
H298 C242 0.947 . S
C299 C242 1.392 . S
C299 C243 1.419 . S
C299 H281 0.948 . S
C300 C301 1.391 . S
C300 C304 1.391 . S
C300 H342 0.948 . S
C301 C300 1.391 . S
C301 C302 1.391 . S
C302 C301 1.391 . S
C302 H358 0.947 . S
C302 C359 1.392 . S
C303 C304 1.391 . S
C303 C307 1.396 1_655 S
C303 C359 1.419 . S
C304 C300 1.391 . S
C304 C303 1.391 . S
C304 C305 1.399 . S
C305 C304 1.399 . S
C305 C308 1.396 1_655 S
C305 C317 1.453 1_655 S
C305 C318 1.684 . S
H306 C330 0.948 . S
C307 C303 1.396 1_455 S
C307 C308 1.395 . S
C307 C326 1.723 . S
C308 C305 1.396 1_455 S
C308 C307 1.395 . S
C308 C338 1.723 . S
H309 C332 0.947 . S
H310 C333 0.948 . S
H311 C339 0.982 . S
H312 C340 0.979 . S
H313 C340 0.980 . S
H314 C340 0.983 . S
H315 C339 0.979 . S
H316 C339 0.977 . S
C317 C305 1.453 1_455 S
C317 H346 0.982 . S
C317 H347 0.979 . S
C317 H348 0.977 . S
C318 C305 1.684 . S
C318 H343 0.979 . S
C318 H344 0.980 . S
C318 H345 0.983 . S
C319 C320 1.391 . S
C319 C324 1.391 . S
C319 H349 0.948 . S
C320 C319 1.391 . S
C320 C321 1.391 . S
C321 C320 1.391 . S
C321 C322 1.392 . S
C321 H350 0.947 . S
C322 C321 1.392 . S
C322 C323 1.419 . S
C322 H351 0.948 . S
C323 C322 1.419 . S
C323 C324 1.391 . S
C323 C327 1.396 1_655 S
C324 C319 1.391 . S
C324 C323 1.391 . S
C324 C325 1.399 . S
C325 C324 1.399 . S
C325 C326 1.396 1_656 S
C325 C328 1.453 1_655 S
C325 C329 1.684 . S
C326 C307 1.723 . S
C326 C325 1.396 1_454 S
C326 C327 1.395 1_554 S
C327 C323 1.396 1_455 S
C327 C326 1.395 1_556 S
C327 C337 1.723 1_556 S
C328 C325 1.453 1_455 S
C328 H352 0.982 . S
C328 H353 0.979 . S
C328 H354 0.977 1_556 S
C329 C325 1.684 . S
C329 H355 0.979 . S
C329 H356 0.980 1_556 S
C329 H357 0.983 . S
C330 H306 0.948 . S
C330 C331 1.391 . S
C330 C335 1.391 . S
C331 C330 1.391 . S
C331 C332 1.391 . S
C332 H309 0.947 . S
C332 C331 1.391 . S
C332 C333 1.392 . S
C333 H310 0.948 . S
C333 C332 1.392 . S
C333 C334 1.419 . S
C334 C333 1.419 . S
C334 C335 1.391 . S
C334 C338 1.396 1_655 S
C335 C330 1.391 . S
C335 C334 1.391 . S
C335 C336 1.399 1_554 S
C336 C335 1.399 1_556 S
C336 C337 1.396 1_656 S
C336 C339 1.453 1_655 S
C336 C340 1.684 . S
C337 C327 1.723 1_554 S
C337 C336 1.396 1_454 S
C337 C338 1.395 . S
C338 C308 1.723 . S
C338 C334 1.396 1_455 S
C338 C337 1.395 . S
C339 H311 0.982 . S
C339 H315 0.979 . S
C339 H316 0.977 . S
C339 C336 1.453 1_455 S
C340 H312 0.979 . S
C340 H313 0.980 . S
C340 H314 0.983 . S
C340 C336 1.684 . S
H341 C359 0.948 . S
H342 C300 0.948 . S
H343 C318 0.979 . S
H344 C318 0.980 . S
H345 C318 0.983 . S
H346 C317 0.982 . S
H347 C317 0.979 . S
H348 C317 0.977 . S
H349 C319 0.948 . S
H350 C321 0.947 . S
H351 C322 0.948 . S
H352 C328 0.982 . S
H353 C328 0.979 . S
H354 C328 0.977 1_554 S
H355 C329 0.979 . S
H356 C329 0.980 1_554 S
H357 C329 0.983 . S
H358 C302 0.947 . S
C359 C302 1.392 . S
C359 C303 1.419 . S
C359 H341 0.948 . S
C360 C361 1.391 . S
C360 C364 1.391 . S
C360 H402 0.948 . S
C361 C360 1.391 . S
C361 C362 1.391 . S
C362 C361 1.391 . S
C362 H418 0.947 . S
C362 C419 1.392 . S
C363 C364 1.391 . S
C363 C367 1.397 1_545 S
C363 C419 1.419 . S
C364 C360 1.391 . S
C364 C363 1.391 . S
C364 C365 1.399 . S
C365 C364 1.399 . S
C365 C368 1.396 1_545 S
C365 C377 1.453 1_545 S
C365 C378 1.684 . S
H366 C390 0.948 . S
C367 C363 1.397 1_565 S
C367 C368 1.394 . S
C367 C386 1.723 1_556 S
C368 C365 1.396 1_565 S
C368 C367 1.394 . S
C368 C398 1.723 1_556 S
H369 C392 0.947 1_556 S
H370 C393 0.948 1_556 S
H371 C399 0.982 . S
H372 C400 0.979 . S
H373 C400 0.980 . S
H374 C400 0.983 . S
H375 C399 0.979 . S
H376 C399 0.977 . S
C377 C365 1.453 1_565 S
C377 H406 0.982 . S
C377 H407 0.979 . S
C377 H408 0.977 . S
C378 C365 1.684 . S
C378 H403 0.979 . S
C378 H404 0.980 . S
C378 H405 0.983 . S
C379 C380 1.391 . S
C379 C384 1.391 . S
C379 H409 0.948 . S
C380 C379 1.391 . S
C380 C381 1.391 . S
C381 C380 1.391 . S
C381 C382 1.392 . S
C381 H410 0.947 . S
C382 C381 1.392 . S
C382 C383 1.419 . S
C382 H411 0.948 . S
C383 C382 1.419 . S
C383 C384 1.391 . S
C383 C387 1.397 1_545 S
C384 C379 1.391 . S
C384 C383 1.391 . S
C384 C385 1.399 . S
C385 C384 1.399 . S
C385 C386 1.396 1_545 S
C385 C388 1.453 1_545 S
C385 C389 1.684 . S
C386 C367 1.723 1_554 S
C386 C385 1.396 1_565 S
C386 C387 1.394 . S
C387 C383 1.397 1_565 S
C387 C386 1.394 . S
C387 C397 1.723 . S
C388 C385 1.453 1_565 S
C388 H412 0.982 . S
C388 H413 0.979 . S
C388 H414 0.977 1_554 S
C389 C385 1.684 . S
C389 H415 0.979 . S
C389 H416 0.980 1_554 S
C389 H417 0.983 . S
C390 H366 0.948 . S
C390 C391 1.391 . S
C390 C395 1.391 . S
C391 C390 1.391 . S
C391 C392 1.391 . S
C392 H369 0.947 1_554 S
C392 C391 1.391 . S
C392 C393 1.392 . S
C393 H370 0.948 1_554 S
C393 C392 1.392 . S
C393 C394 1.419 . S
C394 C393 1.419 . S
C394 C395 1.391 . S
C394 C398 1.397 1_545 S
C395 C390 1.391 . S
C395 C394 1.391 . S
C395 C396 1.399 . S
C396 C395 1.399 . S
C396 C397 1.396 1_545 S
C396 C399 1.453 1_545 S
C396 C400 1.684 . S
C397 C387 1.723 . S
C397 C396 1.396 1_565 S
C397 C398 1.394 . S
C398 C368 1.723 1_554 S
C398 C394 1.397 1_565 S
C398 C397 1.394 . S
C399 H371 0.982 . S
C399 H375 0.979 . S
C399 H376 0.977 . S
C399 C396 1.453 1_565 S
C400 H372 0.979 . S
C400 H373 0.980 . S
C400 H374 0.983 . S
C400 C396 1.684 . S
H401 C419 0.948 . S
H402 C360 0.948 . S
H403 C378 0.979 . S
H404 C378 0.980 . S
H405 C378 0.983 . S
H406 C377 0.982 . S
H407 C377 0.979 . S
H408 C377 0.977 . S
H409 C379 0.948 . S
H410 C381 0.947 . S
H411 C382 0.948 . S
H412 C388 0.982 . S
H413 C388 0.979 . S
H414 C388 0.977 1_556 S
H415 C389 0.979 . S
H416 C389 0.980 1_556 S
H417 C389 0.983 . S
H418 C362 0.947 . S
C419 C362 1.392 . S
C419 C363 1.419 . S
C419 H401 0.948 . S
C420 C421 1.391 . S
C420 C424 1.391 . S
C420 H462 0.948 . S
C421 C420 1.391 . S
C421 C422 1.391 . S
C422 C421 1.391 . S
C422 H478 0.947 . S
C422 C479 1.392 . S
C423 C424 1.391 . S
C423 C427 1.397 . S
C423 C479 1.419 . S
C424 C420 1.391 . S
C424 C423 1.391 . S
C424 C425 1.399 . S
C425 C424 1.399 . S
C425 C428 1.396 . S
C425 C437 1.453 . S
C425 C438 1.684 . S
H426 C450 0.948 . S
C427 C423 1.397 . S
C427 C428 1.394 . S
C427 C446 1.723 1_556 S
C428 C425 1.396 . S
C428 C427 1.394 . S
C428 C458 1.723 1_556 S
H429 C452 0.947 1_556 S
H430 C453 0.948 1_556 S
H431 C459 0.982 . S
H432 C460 0.979 . S
H433 C460 0.980 . S
H434 C460 0.983 . S
H435 C459 0.979 . S
H436 C459 0.977 . S
C437 C425 1.453 . S
C437 H466 0.982 . S
C437 H467 0.979 . S
C437 H468 0.977 . S
C438 C425 1.684 . S
C438 H463 0.979 . S
C438 H464 0.980 . S
C438 H465 0.983 . S
C439 C440 1.391 . S
C439 C444 1.391 . S
C439 H469 0.948 . S
C440 C439 1.391 . S
C440 C441 1.391 . S
C441 C440 1.391 . S
C441 C442 1.392 . S
C441 H470 0.947 . S
C442 C441 1.392 . S
C442 C443 1.419 . S
C442 H471 0.948 . S
C443 C442 1.419 . S
C443 C444 1.391 . S
C443 C447 1.397 . S
C444 C439 1.391 . S
C444 C443 1.391 . S
C444 C445 1.399 . S
C445 C444 1.399 . S
C445 C446 1.396 . S
C445 C448 1.453 . S
C445 C449 1.684 . S
C446 C427 1.723 1_554 S
C446 C445 1.396 . S
C446 C447 1.394 . S
C447 C443 1.397 . S
C447 C446 1.394 . S
C447 C457 1.723 . S
C448 C445 1.453 . S
C448 H472 0.982 . S
C448 H473 0.979 . S
C448 H474 0.977 1_554 S
C449 C445 1.684 . S
C449 H475 0.979 . S
C449 H476 0.980 1_554 S
C449 H477 0.983 . S
C450 H426 0.948 . S
C450 C451 1.391 . S
C450 C455 1.391 . S
C451 C450 1.391 . S
C451 C452 1.391 . S
C452 H429 0.947 1_554 S
C452 C451 1.391 . S
C452 C453 1.392 . S
C453 H430 0.948 1_554 S
C453 C452 1.392 . S
C453 C454 1.419 . S
C454 C453 1.419 . S
C454 C455 1.391 . S
C454 C458 1.397 . S
C455 C450 1.391 . S
C455 C454 1.391 . S
C455 C456 1.399 . S
C456 C455 1.399 . S
C456 C457 1.396 . S
C456 C459 1.453 . S
C456 C460 1.684 . S
C457 C447 1.723 . S
C457 C456 1.396 . S
C457 C458 1.394 . S
C458 C428 1.723 1_554 S
C458 C454 1.397 . S
C458 C457 1.394 . S
C459 H431 0.982 . S
C459 H435 0.979 . S
C459 H436 0.977 . S
C459 C456 1.453 . S
C460 H432 0.979 . S
C460 H433 0.980 . S
C460 H434 0.983 . S
C460 C456 1.684 . S
H461 C479 0.948 . S
H462 C420 0.948 . S
H463 C438 0.979 . S
H464 C438 0.980 . S
H465 C438 0.983 . S
H466 C437 0.982 . S
H467 C437 0.979 . S
H468 C437 0.977 . S
H469 C439 0.948 . S
H470 C441 0.947 . S
H471 C442 0.948 . S
H472 C448 0.982 . S
H473 C448 0.979 . S
H474 C448 0.977 1_556 S
H475 C449 0.979 . S
H476 C449 0.980 1_556 S
H477 C449 0.983 . S
H478 C422 0.947 . S
C479 C422 1.392 . S
C479 C423 1.419 . S
C479 H461 0.948 . S
Tb480 C490 2.825 . S
Tb480 O491 2.347 1_455 S
Tb480 O494 2.366 . S
Tb480 O499 2.418 . S
Tb480 O500 2.384 1_565 S
Tb480 O503 2.479 . S
Tb480 O504 2.471 . S
Eu481 O492 2.418 . S
Eu481 O493 2.384 1_545 S
Eu481 O496 2.479 . S
Eu481 O497 2.471 . S
Eu481 O498 2.347 1_655 S
Eu481 O501 2.366 . S
Eu481 C511 2.825 . S
C482 O498 1.259 1_565 S
C482 O499 1.265 . S
C483 O500 1.255 . S
C483 O501 1.265 1_455 S
C484 C486 1.380 . S
C484 C487 1.374 . S
C484 C490 1.507 . S
C485 C486 1.384 . S
C485 C489 1.387 . S
C485 H512 0.930 . S
C486 C484 1.380 . S
C486 C485 1.384 . S
C486 H513 0.931 . S
C487 C484 1.374 . S
C487 C488 1.390 . S
C487 H514 0.930 1_455 S
C488 C487 1.390 . S
C488 C489 1.391 . S
C488 H515 0.930 1_455 S
C489 C485 1.387 . S
C489 C488 1.391 . S
C490 Tb480 2.825 . S
C490 C484 1.507 . S
C490 O503 1.238 . S
C490 O504 1.247 . S
O491 Tb480 2.347 1_655 S
O491 C495 1.259 1_565 S
O492 Eu481 2.418 . S
O492 C495 1.265 . S
O493 Eu481 2.384 1_565 S
O493 C502 1.255 . S
O494 Tb480 2.366 . S
O494 C502 1.265 1_455 S
C495 O491 1.259 1_545 S
C495 O492 1.265 . S
O496 Eu481 2.479 . S
O496 C511 1.238 . S
O497 Eu481 2.471 . S
O497 C511 1.247 . S
O498 Eu481 2.347 1_455 S
O498 C482 1.259 1_545 S
O499 Tb480 2.418 . S
O499 C482 1.265 . S
O500 Tb480 2.384 1_545 S
O500 C483 1.255 . S
O501 Eu481 2.366 . S
O501 C483 1.265 1_655 S
C502 O493 1.255 . S
C502 O494 1.265 1_655 S
O503 Tb480 2.479 . S
O503 C490 1.238 . S
O504 Tb480 2.471 . S
O504 C490 1.247 . S
C505 C508 1.380 . S
C505 C509 1.374 . S
C505 C511 1.507 . S
C506 C507 1.387 . S
C506 C510 1.391 . S
C507 C506 1.387 . S
C507 C508 1.384 . S
C507 H516 0.930 . S
C508 C505 1.380 . S
C508 C507 1.384 . S
C508 H517 0.931 . S
C509 C505 1.374 . S
C509 C510 1.390 . S
C509 H518 0.930 1_655 S
C510 C506 1.391 . S
C510 C509 1.390 . S
C510 H519 0.930 1_655 S
C511 Eu481 2.825 . S
C511 O496 1.238 . S
C511 O497 1.247 . S
C511 C505 1.507 . S
H512 C485 0.930 . S
H513 C486 0.931 . S
H514 C487 0.930 1_655 S
H515 C488 0.930 1_655 S
H516 C507 0.930 . S
H517 C508 0.931 . S
H518 C509 0.930 1_455 S
H519 C510 0.930 1_455 S
Tb520 C530 2.825 . S
Tb520 O531 2.347 1_545 S
Tb520 O534 2.366 . S
Tb520 O539 2.418 . S
Tb520 O540 2.384 . S
Tb520 O543 2.479 . S
Tb520 O544 2.471 . S
Eu521 O532 2.418 . S
Eu521 O533 2.384 . S
Eu521 O536 2.479 . S
Eu521 O537 2.471 . S
Eu521 O538 2.347 1_565 S
Eu521 O541 2.366 . S
Eu521 C551 2.825 . S
C522 O538 1.259 . S
C522 O539 1.265 . S
C523 O540 1.255 . S
C523 O541 1.265 1_545 S
C524 C526 1.380 . S
C524 C527 1.374 . S
C524 C530 1.507 . S
C525 C526 1.384 . S
C525 C529 1.387 . S
C525 H552 0.930 . S
C526 C524 1.380 . S
C526 C525 1.384 . S
C526 H553 0.931 . S
C527 C524 1.374 . S
C527 C528 1.390 . S
C527 H554 0.930 1_545 S
C528 C527 1.390 . S
C528 C529 1.391 . S
C528 H555 0.930 1_545 S
C529 C525 1.387 . S
C529 C528 1.391 . S
C530 Tb520 2.825 . S
C530 C524 1.507 . S
C530 O543 1.238 . S
C530 O544 1.247 . S
O531 Tb520 2.347 1_565 S
O531 C535 1.259 . S
O532 Eu521 2.418 . S
O532 C535 1.265 . S
O533 Eu521 2.384 . S
O533 C542 1.255 . S
O534 Tb520 2.366 . S
O534 C542 1.265 1_545 S
C535 O531 1.259 . S
C535 O532 1.265 . S
O536 Eu521 2.479 . S
O536 C551 1.238 . S
O537 Eu521 2.471 . S
O537 C551 1.247 . S
O538 Eu521 2.347 1_545 S
O538 C522 1.259 . S
O539 Tb520 2.418 . S
O539 C522 1.265 . S
O540 Tb520 2.384 . S
O540 C523 1.255 . S
O541 Eu521 2.366 . S
O541 C523 1.265 1_565 S
C542 O533 1.255 . S
C542 O534 1.265 1_565 S
O543 Tb520 2.479 . S
O543 C530 1.238 . S
O544 Tb520 2.471 . S
O544 C530 1.247 . S
C545 C548 1.380 . S
C545 C549 1.374 . S
C545 C551 1.507 . S
C546 C547 1.387 . S
C546 C550 1.391 . S
C547 C546 1.387 . S
C547 C548 1.384 . S
C547 H556 0.930 . S
C548 C545 1.380 . S
C548 C547 1.384 . S
C548 H557 0.931 . S
C549 C545 1.374 . S
C549 C550 1.390 . S
C549 H558 0.930 1_565 S
C550 C546 1.391 . S
C550 C549 1.390 . S
C550 H559 0.930 1_565 S
C551 Eu521 2.825 . S
C551 O536 1.238 . S
C551 O537 1.247 . S
C551 C545 1.507 . S
H552 C525 0.930 . S
H553 C526 0.931 . S
H554 C527 0.930 1_565 S
H555 C528 0.930 1_565 S
H556 C547 0.930 . S
H557 C548 0.931 . S
H558 C549 0.930 1_545 S
H559 C550 0.930 1_545 S
Tb560 C570 2.825 . S
Tb560 O571 2.347 . S
Tb560 O574 2.366 . S
Tb560 O579 2.418 . S
Tb560 O580 2.384 . S
Tb560 O583 2.479 . S
Tb560 O584 2.471 . S
Eu561 O572 2.418 . S
Eu561 O573 2.384 . S
Eu561 O576 2.479 . S
Eu561 O577 2.471 . S
Eu561 O578 2.347 . S
Eu561 O581 2.366 . S
Eu561 C591 2.825 . S
C562 O578 1.259 . S
C562 O579 1.265 . S
C563 O580 1.255 . S
C563 O581 1.265 . S
C564 C566 1.380 . S
C564 C567 1.374 . S
C564 C570 1.507 . S
C565 C566 1.384 . S
C565 C569 1.387 . S
C565 H592 0.930 . S
C566 C564 1.380 . S
C566 C565 1.384 . S
C566 H593 0.931 . S
C567 C564 1.374 . S
C567 C568 1.390 . S
C567 H594 0.930 . S
C568 C567 1.390 . S
C568 C569 1.391 . S
C568 H595 0.930 . S
C569 C565 1.387 . S
C569 C568 1.391 . S
C570 Tb560 2.825 . S
C570 C564 1.507 . S
C570 O583 1.238 . S
C570 O584 1.247 . S
O571 Tb560 2.347 . S
O571 C575 1.259 . S
O572 Eu561 2.418 . S
O572 C575 1.265 . S
O573 Eu561 2.384 . S
O573 C582 1.255 . S
O574 Tb560 2.366 . S
O574 C582 1.265 . S
C575 O571 1.259 . S
C575 O572 1.265 . S
O576 Eu561 2.479 . S
O576 C591 1.238 . S
O577 Eu561 2.471 . S
O577 C591 1.247 . S
O578 Eu561 2.347 . S
O578 C562 1.259 . S
O579 Tb560 2.418 . S
O579 C562 1.265 . S
O580 Tb560 2.384 . S
O580 C563 1.255 . S
O581 Eu561 2.366 . S
O581 C563 1.265 . S
C582 O573 1.255 . S
C582 O574 1.265 . S
O583 Tb560 2.479 . S
O583 C570 1.238 . S
O584 Tb560 2.471 . S
O584 C570 1.247 . S
C585 C588 1.380 . S
C585 C589 1.374 . S
C585 C591 1.507 . S
C586 C587 1.387 . S
C586 C590 1.391 . S
C587 C586 1.387 . S
C587 C588 1.384 . S
C587 H596 0.930 . S
C588 C585 1.380 . S
C588 C587 1.384 . S
C588 H597 0.931 . S
C589 C585 1.374 . S
C589 C590 1.390 . S
C589 H598 0.930 . S
C590 C586 1.391 . S
C590 C589 1.390 . S
C590 H599 0.930 . S
C591 Eu561 2.825 . S
C591 O576 1.238 . S
C591 O577 1.247 . S
C591 C585 1.507 . S
H592 C565 0.930 . S
H593 C566 0.931 . S
H594 C567 0.930 . S
H595 C568 0.930 . S
H596 C587 0.930 . S
H597 C588 0.931 . S
H598 C589 0.930 . S
H599 C590 0.930 . S
Tb600 C610 2.825 . S
Tb600 O611 2.347 . S
Tb600 O614 2.366 . S
Tb600 O619 2.418 . S
Tb600 O620 2.384 1_655 S
Tb600 O623 2.479 . S
Tb600 O624 2.471 . S
Eu601 O612 2.418 . S
Eu601 O613 2.384 1_455 S
Eu601 O616 2.479 . S
Eu601 O617 2.471 . S
Eu601 O618 2.347 . S
Eu601 O621 2.366 . S
Eu601 C631 2.825 . S
C602 O618 1.259 1_655 S
C602 O619 1.265 . S
C603 O620 1.255 . S
C603 O621 1.265 . S
C604 C606 1.380 . S
C604 C607 1.374 . S
C604 C610 1.507 . S
C605 C606 1.384 . S
C605 C609 1.387 . S
C605 H632 0.930 . S
C606 C604 1.380 . S
C606 C605 1.384 . S
C606 H633 0.931 . S
C607 C604 1.374 . S
C607 C608 1.390 . S
C607 H634 0.930 . S
C608 C607 1.390 . S
C608 C609 1.391 . S
C608 H635 0.930 . S
C609 C605 1.387 . S
C609 C608 1.391 . S
C610 Tb600 2.825 . S
C610 C604 1.507 . S
C610 O623 1.238 . S
C610 O624 1.247 . S
O611 Tb600 2.347 . S
O611 C615 1.259 1_655 S
O612 Eu601 2.418 . S
O612 C615 1.265 . S
O613 Eu601 2.384 1_655 S
O613 C622 1.255 . S
O614 Tb600 2.366 . S
O614 C622 1.265 . S
C615 O611 1.259 1_455 S
C615 O612 1.265 . S
O616 Eu601 2.479 . S
O616 C631 1.238 . S
O617 Eu601 2.471 . S
O617 C631 1.247 . S
O618 Eu601 2.347 . S
O618 C602 1.259 1_455 S
O619 Tb600 2.418 . S
O619 C602 1.265 . S
O620 Tb600 2.384 1_455 S
O620 C603 1.255 . S
O621 Eu601 2.366 . S
O621 C603 1.265 . S
C622 O613 1.255 . S
C622 O614 1.265 . S
O623 Tb600 2.479 . S
O623 C610 1.238 . S
O624 Tb600 2.471 . S
O624 C610 1.247 . S
C625 C628 1.380 . S
C625 C629 1.374 . S
C625 C631 1.507 . S
C626 C627 1.387 . S
C626 C630 1.391 . S
C627 C626 1.387 . S
C627 C628 1.384 . S
C627 H636 0.930 . S
C628 C625 1.380 . S
C628 C627 1.384 . S
C628 H637 0.931 . S
C629 C625 1.374 . S
C629 C630 1.390 . S
C629 H638 0.930 . S
C630 C626 1.391 . S
C630 C629 1.390 . S
C630 H639 0.930 . S
C631 Eu601 2.825 . S
C631 O616 1.238 . S
C631 O617 1.247 . S
C631 C625 1.507 . S
H632 C605 0.930 . S
H633 C606 0.931 . S
H634 C607 0.930 . S
H635 C608 0.930 . S
H636 C627 0.930 . S
H637 C628 0.931 . S
H638 C629 0.930 . S
H639 C630 0.930 . S
H640 C646 0.929 1_565 S
H641 C649 0.930 . S
H642 C650 0.930 . S
H643 C651 0.929 . S
H644 C654 0.930 . S
H645 C655 0.930 . S
C646 H640 0.929 1_545 S
C646 C647 1.355 . S
C646 C648 1.415 1_545 S
C647 C646 1.355 . S
C647 C649 1.419 . S
C648 C646 1.415 1_565 S
C648 C653 1.423 1_565 S
C648 C655 1.410 . S
C649 H641 0.930 . S
C649 C647 1.419 . S
C649 C650 1.362 . S
C650 H642 0.930 . S
C650 C649 1.362 . S
C650 C653 1.413 . S
C651 H643 0.929 . S
C651 C652 1.354 1_545 S
C651 C653 1.415 . S
C652 C651 1.354 1_565 S
C652 C654 1.421 . S
C653 C648 1.423 1_545 S
C653 C650 1.413 . S
C653 C651 1.415 . S
C654 H644 0.930 . S
C654 C652 1.421 . S
C654 C655 1.362 . S
C655 H645 0.930 . S
C655 C648 1.410 . S
C655 C654 1.362 . S
H656 C662 0.930 . S
H657 C665 0.930 . S
H658 C666 0.930 . S
H659 C667 0.930 . S
H660 C670 0.930 . S
H661 C671 0.930 . S
C662 H656 0.930 . S
C662 C663 1.355 . S
C662 C664 1.415 . S
C663 C662 1.355 . S
C663 C665 1.419 . S
C664 C662 1.415 . S
C664 C669 1.425 . S
C664 C671 1.409 . S
C665 H657 0.930 . S
C665 C663 1.419 . S
C665 C666 1.362 . S
C666 H658 0.930 . S
C666 C665 1.362 . S
C666 C669 1.409 . S
C667 H659 0.930 . S
C667 C668 1.355 . S
C667 C669 1.415 . S
C668 C667 1.355 . S
C668 C670 1.419 . S
C669 C664 1.425 . S
C669 C666 1.409 . S
C669 C667 1.415 . S
C670 H660 0.930 . S
C670 C668 1.419 . S
C670 C671 1.362 . S
C671 H661 0.930 . S
C671 C664 1.409 . S
C671 C670 1.362 . S
H672 C678 0.930 . S
H673 C681 0.930 . S
H674 C682 0.930 . S
H675 C683 0.930 . S
H676 C686 0.930 . S
H677 C687 0.930 . S
C678 H672 0.930 . S
C678 C679 1.355 . S
C678 C680 1.415 . S
C679 C678 1.355 . S
C679 C681 1.419 . S
C680 C678 1.415 . S
C680 C685 1.425 . S
C680 C687 1.409 . S
C681 H673 0.930 . S
C681 C679 1.419 . S
C681 C682 1.362 . S
C682 H674 0.930 . S
C682 C681 1.362 . S
C682 C685 1.409 . S
C683 H675 0.930 . S
C683 C684 1.355 . S
C683 C685 1.415 . S
C684 C683 1.355 . S
C684 C686 1.419 . S
C685 C680 1.425 . S
C685 C682 1.409 . S
C685 C683 1.415 . S
C686 H676 0.930 . S
C686 C684 1.419 . S
C686 C687 1.362 . S
C687 H677 0.930 . S
C687 C680 1.409 . S
C687 C686 1.362 . S
H688 C694 0.930 . S
H689 C697 0.930 . S
H690 C698 0.930 . S
H691 C699 0.930 . S
H692 C702 0.930 . S
H693 C703 0.930 . S
C694 H688 0.930 . S
C694 C695 1.355 1_655 S
C694 C696 1.415 . S
C695 C694 1.355 1_455 S
C695 C697 1.419 . S
C696 C694 1.415 . S
C696 C701 1.425 1_655 S
C696 C703 1.409 . S
C697 H689 0.930 . S
C697 C695 1.419 . S
C697 C698 1.362 . S
C698 H690 0.930 . S
C698 C697 1.362 . S
C698 C701 1.409 . S
C699 H691 0.930 . S
C699 C700 1.355 1_455 S
C699 C701 1.415 . S
C700 C699 1.355 1_655 S
C700 C702 1.419 . S
C701 C696 1.425 1_455 S
C701 C698 1.409 . S
C701 C699 1.415 . S
C702 H692 0.930 . S
C702 C700 1.419 . S
C702 C703 1.362 . S
C703 H693 0.930 . S
C703 C696 1.409 . S
C703 C702 1.362 . S
H704 C710 0.930 . S
H705 C713 0.930 . S
H706 C714 0.930 . S
H707 C715 0.930 . S
H708 C718 0.930 . S
H709 C719 0.930 . S
C710 H704 0.930 . S
C710 C711 1.355 1_545 S
C710 C712 1.415 . S
C711 C710 1.355 1_565 S
C711 C713 1.419 . S
C712 C710 1.415 . S
C712 C717 1.425 1_545 S
C712 C719 1.409 . S
C713 H705 0.930 . S
C713 C711 1.419 . S
C713 C714 1.362 . S
C714 H706 0.930 . S
C714 C713 1.362 . S
C714 C717 1.409 . S
C715 H707 0.930 . S
C715 C716 1.355 1_565 S
C715 C717 1.415 1_556 S
C716 C715 1.355 1_545 S
C716 C718 1.419 . S
C717 C712 1.425 1_565 S
C717 C714 1.409 . S
C717 C715 1.415 1_554 S
C718 H708 0.930 . S
C718 C716 1.419 . S
C718 C719 1.362 1_556 S
C719 H709 0.930 . S
C719 C712 1.409 . S
C719 C718 1.362 1_554 S
H720 C726 0.930 . S
H721 C729 0.930 . S
H722 C730 0.930 . S
H723 C731 0.930 . S
H724 C734 0.930 . S
H725 C735 0.929 1_554 S
C726 H720 0.930 . S
C726 C727 1.355 . S
C726 C728 1.415 . S
C727 C726 1.355 . S
C727 C729 1.419 . S
C728 C726 1.415 . S
C728 C733 1.425 . S
C728 C735 1.397 1_554 S
C729 H721 0.930 . S
C729 C727 1.419 . S
C729 C730 1.362 . S
C730 H722 0.930 . S
C730 C729 1.362 . S
C730 C733 1.409 . S
C731 H723 0.930 . S
C731 C732 1.355 . S
C731 C733 1.415 1_556 S
C732 C731 1.355 . S
C732 C734 1.419 . S
C733 C728 1.425 . S
C733 C730 1.409 . S
C733 C731 1.415 1_554 S
C734 H724 0.930 . S
C734 C732 1.419 . S
C734 C735 1.376 . S
C735 H725 0.929 1_556 S
C735 C728 1.397 1_556 S
C735 C734 1.376 . S
H736 C742 0.930 . S
H737 C745 0.930 . S
H738 C746 0.930 . S
H739 C747 0.930 . S
H740 C750 0.930 . S
H741 C751 0.930 . S
C742 H736 0.930 . S
C742 C743 1.355 . S
C742 C744 1.415 . S
C743 C742 1.355 . S
C743 C745 1.419 . S
C744 C742 1.415 . S
C744 C749 1.425 . S
C744 C751 1.409 . S
C745 H737 0.930 . S
C745 C743 1.419 . S
C745 C746 1.362 . S
C746 H738 0.930 . S
C746 C745 1.362 . S
C746 C749 1.409 . S
C747 H739 0.930 . S
C747 C748 1.355 . S
C747 C749 1.415 1_556 S
C748 C747 1.355 . S
C748 C750 1.419 . S
C749 C744 1.425 . S
C749 C746 1.409 . S
C749 C747 1.415 1_554 S
C750 H740 0.930 . S
C750 C748 1.419 . S
C750 C751 1.362 1_556 S
C751 H741 0.930 . S
C751 C744 1.409 . S
C751 C750 1.362 1_554 S
H752 C758 0.930 . S
H753 C761 0.930 . S
H754 C762 0.930 . S
H755 C763 0.930 . S
H756 C766 0.930 . S
H757 C767 0.930 . S
C758 H752 0.930 . S
C758 C759 1.355 1_655 S
C758 C760 1.415 . S
C759 C758 1.355 1_455 S
C759 C761 1.419 . S
C760 C758 1.415 . S
C760 C765 1.425 1_655 S
C760 C767 1.409 . S
C761 H753 0.930 . S
C761 C759 1.419 . S
C761 C762 1.362 . S
C762 H754 0.930 . S
C762 C761 1.362 . S
C762 C765 1.409 . S
C763 H755 0.930 . S
C763 C764 1.355 1_455 S
C763 C765 1.415 1_556 S
C764 C763 1.355 1_655 S
C764 C766 1.419 . S
C765 C760 1.425 1_455 S
C765 C762 1.409 . S
C765 C763 1.415 1_554 S
C766 H756 0.930 . S
C766 C764 1.419 . S
C766 C767 1.362 1_556 S
C767 H757 0.930 . S
C767 C760 1.409 . S
C767 C766 1.362 1_554 S
H768 C774 0.930 . S
H769 C777 0.930 . S
H770 C778 0.930 . S
H771 C779 0.930 . S
H772 C782 0.930 . S
H773 C783 0.930 . S
C774 H768 0.930 . S
C774 C775 1.355 1_655 S
C774 C776 1.415 . S
C775 C774 1.355 1_455 S
C775 C777 1.419 . S
C776 C774 1.415 . S
C776 C781 1.425 . S
C776 C783 1.409 . S
C777 H769 0.930 . S
C777 C775 1.419 . S
C777 C778 1.362 . S
C778 H770 0.930 . S
C778 C777 1.362 . S
C778 C781 1.409 1_455 S
C779 H771 0.930 . S
C779 C780 1.355 . S
C779 C781 1.415 . S
C780 C779 1.355 . S
C780 C782 1.419 . S
C781 C776 1.425 . S
C781 C778 1.409 1_655 S
C781 C779 1.415 . S
C782 H772 0.930 . S
C782 C780 1.419 . S
C782 C783 1.362 . S
C783 H773 0.930 . S
C783 C776 1.409 . S
C783 C782 1.362 . S
H784 C790 0.930 . S
H785 C793 0.930 . S
H786 C794 0.930 . S
H787 C795 0.930 . S
H788 C798 0.930 . S
H789 C799 0.936 . S
C790 H784 0.930 . S
C790 C791 1.358 . S
C790 C792 1.415 1_545 S
C791 C790 1.358 . S
C791 C793 1.410 1_545 S
C792 C790 1.415 1_565 S
C792 C797 1.425 . S
C792 C799 1.407 1_565 S
C793 H785 0.930 . S
C793 C791 1.410 1_565 S
C793 C794 1.362 . S
C794 H786 0.930 . S
C794 C793 1.362 . S
C794 C797 1.409 . S
C795 H787 0.930 . S
C795 C796 1.355 . S
C795 C797 1.415 . S
C796 C795 1.355 . S
C796 C798 1.419 . S
C797 C792 1.425 . S
C797 C794 1.409 . S
C797 C795 1.415 . S
C798 H788 0.930 . S
C798 C796 1.419 . S
C798 C799 1.358 1_565 S
C799 H789 0.936 . S
C799 C792 1.407 1_545 S
C799 C798 1.358 1_545 S
H800 C806 0.930 . S
H801 C809 0.930 . S
H802 C810 0.930 . S
H803 C811 0.930 . S
H804 C814 0.930 . S
H805 C815 0.930 . S
C806 H800 0.930 . S
C806 C807 1.355 . S
C806 C808 1.415 . S
C807 C806 1.355 . S
C807 C809 1.419 . S
C808 C806 1.415 . S
C808 C813 1.425 . S
C808 C815 1.409 . S
C809 H801 0.930 . S
C809 C807 1.419 . S
C809 C810 1.362 . S
C810 H802 0.930 . S
C810 C809 1.362 . S
C810 C813 1.409 . S
C811 H803 0.930 . S
C811 C812 1.355 . S
C811 C813 1.415 . S
C812 C811 1.355 . S
C812 C814 1.419 . S
C813 C808 1.425 . S
C813 C810 1.409 . S
C813 C811 1.415 . S
C814 H804 0.930 . S
C814 C812 1.419 . S
C814 C815 1.362 . S
C815 H805 0.930 . S
C815 C808 1.409 . S
C815 C814 1.362 . S
H816 C822 0.930 . S
H817 C825 0.930 . S
H818 C826 0.930 . S
H819 C827 0.930 . S
H820 C830 0.930 . S
H821 C831 0.930 . S
C822 H816 0.930 . S
C822 C823 1.355 . S
C822 C824 1.415 . S
C823 C822 1.355 . S
C823 C825 1.419 . S
C824 C822 1.415 . S
C824 C829 1.425 . S
C824 C831 1.409 . S
C825 H817 0.930 . S
C825 C823 1.419 . S
C825 C826 1.362 . S
C826 H818 0.930 . S
C826 C825 1.362 . S
C826 C829 1.409 . S
C827 H819 0.930 . S
C827 C828 1.355 . S
C827 C829 1.415 . S
C828 C827 1.355 . S
C828 C830 1.419 . S
C829 C824 1.425 . S
C829 C826 1.409 . S
C829 C827 1.415 . S
C830 H820 0.930 . S
C830 C828 1.419 . S
C830 C831 1.362 . S
C831 H821 0.930 . S
C831 C824 1.409 . S
C831 C830 1.362 . S
H832 C838 0.930 . S
H833 C841 0.930 . S
H834 C842 0.930 . S
H835 C843 0.930 1_556 S
H836 C846 0.930 . S
H837 C847 0.930 . S
C838 H832 0.930 . S
C838 C839 1.355 1_455 S
C838 C840 1.415 . S
C839 C838 1.355 1_655 S
C839 C841 1.419 . S
C840 C838 1.415 . S
C840 C845 1.425 . S
C840 C847 1.409 . S
C841 H833 0.930 . S
C841 C839 1.419 . S
C841 C842 1.362 . S
C842 H834 0.930 . S
C842 C841 1.362 . S
C842 C845 1.409 1_655 S
C843 H835 0.930 1_554 S
C843 C844 1.355 1_554 S
C843 C845 1.415 . S
C844 C843 1.355 1_556 S
C844 C846 1.419 1_556 S
C845 C840 1.425 . S
C845 C842 1.409 1_455 S
C845 C843 1.415 . S
C846 H836 0.930 . S
C846 C844 1.419 1_554 S
C846 C847 1.362 . S
C847 H837 0.930 . S
C847 C840 1.409 . S
C847 C846 1.362 . S
H848 C854 0.935 . S
H849 C857 0.930 . S
H850 C858 0.930 . S
H851 C859 0.930 . S
H852 C862 0.930 . S
H853 C863 0.930 . S
C854 H848 0.935 . S
C854 C855 1.355 . S
C854 C856 1.409 1_565 S
C855 C854 1.355 . S
C855 C857 1.403 1_565 S
C856 C854 1.409 1_545 S
C856 C861 1.425 . S
C856 C863 1.409 1_554 S
C857 H849 0.930 . S
C857 C855 1.403 1_545 S
C857 C858 1.362 . S
C858 H850 0.930 . S
C858 C857 1.362 . S
C858 C861 1.409 . S
C859 H851 0.930 . S
C859 C860 1.355 1_554 S
C859 C861 1.415 . S
C860 C859 1.355 1_556 S
C860 C862 1.419 . S
C861 C856 1.425 . S
C861 C858 1.409 . S
C861 C859 1.415 . S
C862 H852 0.930 . S
C862 C860 1.419 . S
C862 C863 1.362 . S
C863 H853 0.930 . S
C863 C856 1.409 1_556 S
C863 C862 1.362 . S
H864 C870 0.930 . S
H865 C873 0.930 . S
H866 C874 0.930 . S
H867 C875 0.930 . S
H868 C878 0.930 . S
H869 C879 0.930 . S
C870 H864 0.930 . S
C870 C871 1.355 . S
C870 C872 1.415 . S
C871 C870 1.355 . S
C871 C873 1.419 . S
C872 C870 1.415 . S
C872 C877 1.425 . S
C872 C879 1.409 1_554 S
C873 H865 0.930 . S
C873 C871 1.419 . S
C873 C874 1.362 . S
C874 H866 0.930 . S
C874 C873 1.362 . S
C874 C877 1.409 . S
C875 H867 0.930 . S
C875 C876 1.355 1_554 S
C875 C877 1.415 . S
C876 C875 1.355 1_556 S
C876 C878 1.419 . S
C877 C872 1.425 . S
C877 C874 1.409 . S
C877 C875 1.415 . S
C878 H868 0.930 . S
C878 C876 1.419 . S
C878 C879 1.362 . S
C879 H869 0.930 . S
C879 C872 1.409 1_556 S
C879 C878 1.362 . S
H880 C886 0.930 . S
H881 C889 0.930 . S
H882 C890 0.930 . S
H883 C891 0.930 . S
H884 C894 0.930 . S
H885 C895 0.930 . S
C886 H880 0.930 . S
C886 C887 1.355 . S
C886 C888 1.415 . S
C887 C886 1.355 . S
C887 C889 1.419 . S
C888 C886 1.415 . S
C888 C893 1.425 . S
C888 C895 1.409 . S
C889 H881 0.930 . S
C889 C887 1.419 . S
C889 C890 1.362 1_554 S
C890 H882 0.930 . S
C890 C889 1.362 1_556 S
C890 C893 1.409 1_556 S
C891 H883 0.930 . S
C891 C892 1.355 1_556 S
C891 C893 1.415 1_556 S
C892 C891 1.355 1_554 S
C892 C894 1.419 . S
C893 C888 1.425 . S
C893 C890 1.409 1_554 S
C893 C891 1.415 1_554 S
C894 H884 0.930 . S
C894 C892 1.419 . S
C894 C895 1.362 . S
C895 H885 0.930 . S
C895 C888 1.409 . S
C895 C894 1.362 . S
H896 C902 0.930 . S
H897 C905 0.930 . S
H898 C906 0.930 . S
H899 C907 0.930 . S
H900 C910 0.930 . S
H901 C911 0.930 . S
C902 H896 0.930 . S
C902 C903 1.355 1_655 S
C902 C904 1.421 . S
C903 C902 1.355 1_455 S
C903 C905 1.419 . S
C904 C902 1.421 . S
C904 C909 1.407 1_655 S
C904 C911 1.421 . S
C905 H897 0.930 . S
C905 C903 1.419 . S
C905 C906 1.362 . S
C906 H898 0.930 . S
C906 C905 1.362 . S
C906 C909 1.409 . S
C907 H899 0.930 . S
C907 C908 1.355 . S
C907 C909 1.415 . S
C908 C907 1.355 . S
C908 C910 1.419 1_455 S
C909 C904 1.407 1_455 S
C909 C906 1.409 . S
C909 C907 1.415 . S
C910 H900 0.930 . S
C910 C908 1.419 1_655 S
C910 C911 1.362 . S
C911 H901 0.930 . S
C911 C904 1.421 . S
C911 C910 1.362 . S
H912 C918 0.930 . S
H913 C921 0.930 . S
H914 C922 0.930 . S
H915 C923 0.930 . S
H916 C926 0.930 . S
H917 C927 0.930 . S
C918 H912 0.930 . S
C918 C919 1.355 1_565 S
C918 C920 1.415 . S
C919 C918 1.355 1_545 S
C919 C921 1.419 . S
C920 C918 1.415 . S
C920 C925 1.425 1_565 S
C920 C927 1.409 . S
C921 H913 0.930 . S
C921 C919 1.419 . S
C921 C922 1.362 . S
C922 H914 0.930 . S
C922 C921 1.362 . S
C922 C925 1.409 . S
C923 H915 0.930 . S
C923 C924 1.355 . S
C923 C925 1.415 . S
C924 C923 1.355 . S
C924 C926 1.419 1_545 S
C925 C920 1.425 1_545 S
C925 C922 1.409 . S
C925 C923 1.415 . S
C926 H916 0.930 . S
C926 C924 1.419 1_565 S
C926 C927 1.362 . S
C927 H917 0.930 . S
C927 C920 1.409 . S
C927 C926 1.362 . S
H928 C934 0.930 . S
H929 C937 0.930 . S
H930 C938 0.930 . S
H931 C939 0.930 . S
H932 C942 0.930 . S
H933 C943 0.930 . S
C934 H928 0.930 . S
C934 C935 1.355 . S
C934 C936 1.415 . S
C935 C934 1.355 . S
C935 C937 1.419 . S
C936 C934 1.415 . S
C936 C941 1.425 . S
C936 C943 1.409 . S
C937 H929 0.930 . S
C937 C935 1.419 . S
C937 C938 1.362 . S
C938 H930 0.930 . S
C938 C937 1.362 . S
C938 C941 1.409 . S
C939 H931 0.930 . S
C939 C940 1.355 . S
C939 C941 1.415 . S
C940 C939 1.355 . S
C940 C942 1.419 . S
C941 C936 1.425 . S
C941 C938 1.409 . S
C941 C939 1.415 . S
C942 H932 0.930 . S
C942 C940 1.419 . S
C942 C943 1.362 . S
C943 H933 0.930 . S
C943 C936 1.409 . S
C943 C942 1.362 . S
H944 C950 0.930 . S
H945 C953 0.930 . S
H946 C954 0.930 . S
H947 C955 0.930 . S
H948 C958 0.930 . S
H949 C959 0.930 . S
C950 H944 0.930 . S
C950 C951 1.355 . S
C950 C952 1.415 . S
C951 C950 1.355 . S
C951 C953 1.419 . S
C952 C950 1.415 . S
C952 C957 1.425 . S
C952 C959 1.409 . S
C953 H945 0.930 . S
C953 C951 1.419 . S
C953 C954 1.362 . S
C954 H946 0.930 . S
C954 C953 1.362 . S
C954 C957 1.409 . S
C955 H947 0.930 . S
C955 C956 1.355 . S
C955 C957 1.415 . S
C956 C955 1.355 . S
C956 C958 1.419 . S
C957 C952 1.425 . S
C957 C954 1.409 . S
C957 C955 1.415 . S
C958 H948 0.930 . S
C958 C956 1.419 . S
C958 C959 1.362 . S
C959 H949 0.930 . S
C959 C952 1.409 . S
C959 C958 1.362 . S
H960 C966 0.930 . S
H961 C969 0.930 . S
H962 C970 0.930 . S
H963 C971 0.930 . S
H964 C974 0.930 . S
H965 C975 0.930 . S
C966 H960 0.930 . S
C966 C967 1.355 1_455 S
C966 C968 1.415 . S
C967 C966 1.355 1_655 S
C967 C969 1.419 . S
C968 C966 1.415 . S
C968 C973 1.425 1_455 S
C968 C975 1.409 . S
C969 H961 0.930 . S
C969 C967 1.419 . S
C969 C970 1.362 . S
C970 H962 0.930 . S
C970 C969 1.362 . S
C970 C973 1.409 . S
C971 H963 0.930 . S
C971 C972 1.355 . S
C971 C973 1.415 . S
C972 C971 1.355 . S
C972 C974 1.419 1_655 S
C973 C968 1.425 1_655 S
C973 C970 1.409 . S
C973 C971 1.415 . S
C974 H964 0.930 . S
C974 C972 1.419 1_455 S
C974 C975 1.362 . S
C975 H965 0.930 . S
C975 C968 1.409 . S
C975 C974 1.362 . S
H976 C982 0.930 . S
H977 C985 0.930 . S
H978 C986 0.930 . S
H979 C987 0.930 . S
H980 C990 0.930 . S
H981 C991 0.930 . S
C982 H976 0.930 . S
C982 C983 1.355 1_545 S
C982 C984 1.415 . S
C983 C982 1.355 1_565 S
C983 C985 1.419 . S
C984 C982 1.415 . S
C984 C989 1.425 1_545 S
C984 C991 1.409 . S
C985 H977 0.930 . S
C985 C983 1.419 . S
C985 C986 1.362 . S
C986 H978 0.930 . S
C986 C985 1.362 . S
C986 C989 1.409 . S
C987 H979 0.930 . S
C987 C988 1.355 . S
C987 C989 1.415 . S
C988 C987 1.355 . S
C988 C990 1.419 1_565 S
C989 C984 1.425 1_565 S
C989 C986 1.409 . S
C989 C987 1.415 . S
C990 H980 0.930 . S
C990 C988 1.419 1_545 S
C990 C991 1.362 . S
C991 H981 0.930 . S
C991 C984 1.409 . S
C991 C990 1.362 . S
H992 C998 0.930 . S
H993 C1001 0.930 . S
H994 C1002 0.930 . S
H995 C1003 0.930 . S
H996 C1006 0.930 . S
H997 C1007 0.930 . S
C998 H992 0.930 . S
C998 C999 1.355 . S
C998 C1000 1.415 . S
C999 C998 1.355 . S
C999 C1001 1.419 . S
C1000 C998 1.415 . S
C1000 C1005 1.425 . S
C1000 C1007 1.409 . S
C1001 H993 0.930 . S
C1001 C999 1.419 . S
C1001 C1002 1.362 . S
C1002 H994 0.930 . S
C1002 C1001 1.362 . S
C1002 C1005 1.409 . S
C1003 H995 0.930 . S
C1003 C1004 1.355 . S
C1003 C1005 1.415 . S
C1004 C1003 1.355 . S
C1004 C1006 1.419 . S
C1005 C1000 1.425 . S
C1005 C1002 1.409 . S
C1005 C1003 1.415 . S
C1006 H996 0.930 . S
C1006 C1004 1.419 . S
C1006 C1007 1.362 . S
C1007 H997 0.930 . S
C1007 C1000 1.409 . S
C1007 C1006 1.362 . S
H1008 C1014 0.930 . S
H1009 C1017 0.930 . S
H1010 C1018 0.930 . S
H1011 C1019 0.930 . S
H1012 C1022 0.930 . S
H1013 C1023 0.930 . S
C1014 H1008 0.930 . S
C1014 C1015 1.355 . S
C1014 C1016 1.415 . S
C1015 C1014 1.355 . S
C1015 C1017 1.419 . S
C1016 C1014 1.415 . S
C1016 C1021 1.425 . S
C1016 C1023 1.409 . S
C1017 H1009 0.930 . S
C1017 C1015 1.419 . S
C1017 C1018 1.362 . S
C1018 H1010 0.930 . S
C1018 C1017 1.362 . S
C1018 C1021 1.409 . S
C1019 H1011 0.930 . S
C1019 C1020 1.355 . S
C1019 C1021 1.415 . S
C1020 C1019 1.355 . S
C1020 C1022 1.419 . S
C1021 C1016 1.425 . S
C1021 C1018 1.409 . S
C1021 C1019 1.415 . S
C1022 H1012 0.930 . S
C1022 C1020 1.419 . S
C1022 C1023 1.362 . S
C1023 H1013 0.930 . S
C1023 C1016 1.409 . S
C1023 C1022 1.362 . S
C647 C391 2.408 . S
C652 C482 2.542 . S
C668 C522 2.580 . S
C663 C451 2.454 . S
C684 C562 2.566 . S
C679 C241 2.156 . S
C700 C602 2.547 . S
C695 C331 2.093 1_455 S
C716 C495 2.544 . S
C711 C121 2.092 . S
C727 C211 2.477 . S
C732 C535 2.572 . S
C743 C31 2.441 . S
C748 C575 2.564 . S
C759 C91 2.154 1_455 S
C764 C615 2.573 1_655 S
C780 C506 0.605 . S
C775 C301 0.681 1_455 S
C796 C546 0.422 . S
C791 C380 0.434 . S
C812 C586 0.459 . S
C807 C440 0.431 . S
C823 C260 0.539 . S
C828 C626 0.387 . S
C839 C61 0.547 . S
C844 C489 0.601 . S
C860 C529 0.456 . S
C855 C140 0.460 . S
C876 C569 0.511 . S
C871 C200 0.525 . S
C887 C20 0.603 . S
C892 C609 0.572 1_554 S
C903 C320 3.130 1_455 S
C908 C483 3.398 . S
C919 C361 2.664 . S
C924 C523 3.371 . S
C940 C563 3.359 . S
C935 C421 2.656 . S
C956 C603 3.414 . S
C951 C271 3.171 . S
C967 C80 3.161 . S
C972 C502 3.424 . S
C988 C542 3.377 . S
C983 C151 3.103 . S
C1004 C582 3.379 . S
C999 C181 2.705 . S
C1015 C1 2.712 . S
C1020 C622 3.397 . S
