# Generated by pormake.
# Topology anh, (6,3)-cn, num edge types: 1
# Building blocks:
#     Node 0, Type 0, BuildingBlock: INOVEN_clean_sbu_0, # of connection points: 6
#     Node 1, Type 0, BuildingBlock: INOVEN_clean_sbu_0, # of connection points: 6
#     Node 2, Type 0, BuildingBlock: INOVEN_clean_sbu_0, # of connection points: 6
#     Node 3, Type 1, BuildingBlock: BELTOD_clean_linker_0, # of connection points: 3
#     Node 4, Type 1, BuildingBlock: BELTOD_clean_linker_0, # of connection points: 3
#     Node 5, Type 1, BuildingBlock: BELTOD_clean_linker_0, # of connection points: 3
#     Node 6, Type 1, BuildingBlock: BELTOD_clean_linker_0, # of connection points: 3
#     Node 7, Type 1, BuildingBlock: BELTOD_clean_linker_0, # of connection points: 3
#     Node 8, Type 1, BuildingBlock: BELTOD_clean_linker_0, # of connection points: 3
#     Edge 9, Type (0, 1), BuildingBlock: XIVTED_clean_linker_0, # of connection points: 2
#     Edge 10, Type (0, 1), BuildingBlock: XIVTED_clean_linker_0, # of connection points: 2
#     Edge 11, Type (0, 1), BuildingBlock: XIVTED_clean_linker_0, # of connection points: 2
#     Edge 12, Type (0, 1), BuildingBlock: XIVTED_clean_linker_0, # of connection points: 2
#     Edge 13, Type (0, 1), BuildingBlock: XIVTED_clean_linker_0, # of connection points: 2
#     Edge 14, Type (0, 1), BuildingBlock: XIVTED_clean_linker_0, # of connection points: 2
#     Edge 15, Type (0, 1), BuildingBlock: XIVTED_clean_linker_0, # of connection points: 2
#     Edge 16, Type (0, 1), BuildingBlock: XIVTED_clean_linker_0, # of connection points: 2
#     Edge 17, Type (0, 1), BuildingBlock: XIVTED_clean_linker_0, # of connection points: 2
#     Edge 18, Type (0, 1), BuildingBlock: XIVTED_clean_linker_0, # of connection points: 2
#     Edge 19, Type (0, 1), BuildingBlock: XIVTED_clean_linker_0, # of connection points: 2
#     Edge 20, Type (0, 1), BuildingBlock: XIVTED_clean_linker_0, # of connection points: 2
#     Edge 21, Type (0, 1), BuildingBlock: XIVTED_clean_linker_0, # of connection points: 2
#     Edge 22, Type (0, 1), BuildingBlock: XIVTED_clean_linker_0, # of connection points: 2
#     Edge 23, Type (0, 1), BuildingBlock: XIVTED_clean_linker_0, # of connection points: 2
#     Edge 24, Type (0, 1), BuildingBlock: XIVTED_clean_linker_0, # of connection points: 2
#     Edge 25, Type (0, 1), BuildingBlock: XIVTED_clean_linker_0, # of connection points: 2
#     Edge 26, Type (0, 1), BuildingBlock: XIVTED_clean_linker_0, # of connection points: 2
# Relax obj value: 0.176
# Max RMSD: 0.211
# Mean RMSD: 0.150
data_MOF--net-anh--node1-INOVEN_clean_sbu_0--node2-BELTOD_clean_linker_0--edge1-XIVTED_clean_linker_0
_symmetry_space_group_name_H-M    P1
_symmetry_Int_Tables_number       1
_symmetry_cell_setting            triclinic
loop_
_symmetry_equiv_pos_as_xyz
'x, y, z'
_cell_length_a     35.161244
_cell_length_b     41.415062
_cell_length_c     61.002932
_cell_angle_alpha  92.898851
_cell_angle_beta   89.836373
_cell_angle_gamma 128.32451
loop_
_atom_site_label
_atom_site_type_symbol
_atom_site_fract_x
_atom_site_fract_y
_atom_site_fract_z
_atom_type_partial_charge
Gd0 Gd 0.09601 0.52757 0.13979 0.0
Gd1 Gd 1.04407 0.55656 0.16202 0.0
C2 C 0.15485 0.62635 0.15341 0.0
C3 C 0.14578 0.51779 0.11324 0.0
C4 C 0.19572 0.53238 0.11274 0.0
C5 C 0.22648 0.55179 0.13155 0.0
C6 C 0.21097 0.5228 0.09411 0.0
C7 C 0.28457 0.54619 0.11412 0.0
C8 C 0.25517 0.52975 0.09474 0.0
C9 C 0.27068 0.55861 0.13225 0.0
C10 C 0.09656 0.52641 0.18386 0.0
C11 C 0.98596 0.45831 0.14929 0.0
C12 C 0.98898 0.56134 0.18747 0.0
C13 C 0.93712 0.52954 0.19096 0.0
C14 C 0.90769 0.49952 0.17402 0.0
C15 C 0.91762 0.52639 0.21156 0.0
C16 C 0.8397 0.46315 0.19815 0.0
C17 C 0.869 0.49349 0.21511 0.0
C18 C 0.85955 0.46678 0.17755 0.0
C19 C 1.04394 0.55569 0.11759 0.0
O20 O 0.15276 0.59748 0.14158 0.0
O21 O 0.11822 0.61743 0.16521 0.0
O22 O 0.12004 0.49288 0.12873 0.0
O23 O 0.13944 0.54542 0.11088 0.0
O24 O 0.09635 0.50059 0.17084 0.0
O25 O 0.10146 0.55391 0.17313 0.0
O26 O 0.99009 0.48662 0.16264 0.0
O27 O 1.02012 0.46857 0.13538 0.0
O28 O 0.99994 0.5759 0.16792 0.0
O29 O 1.01669 0.55268 0.19444 0.0
O30 O 1.04733 0.58392 0.12993 0.0
O31 O 1.03801 0.52888 0.12922 0.0
H32 H 0.21513 0.55959 0.14604 0.0
H33 H 0.18751 0.5078 0.07948 0.0
H34 H 0.26446 0.51935 0.08059 0.0
H35 H 0.29279 0.57164 0.14731 0.0
H36 H 0.9221 0.50101 0.15804 0.0
H37 H 0.94009 0.54901 0.22491 0.0
H38 H 0.85446 0.49153 0.2311 0.0
H39 H 0.83766 0.44453 0.16399 0.0
Gd40 Gd 0.62863 0.03197 0.47866 0.0
Gd41 Gd 0.56541 0.05488 0.4674 0.0
C42 C 0.51241 0.95968 0.46859 0.0
C43 C 0.66747 0.00236 0.49604 0.0
C44 C 0.65627 0.96218 0.49893 0.0
C45 C 0.69339 0.95882 0.49679 0.0
C46 C 0.60967 0.92745 0.50412 0.0
C47 C 0.63805 0.88674 0.50555 0.0
C48 C 0.60067 0.89008 0.50745 0.0
C49 C 0.68442 0.92152 0.50004 0.0
C50 C 0.62342 0.04042 0.43556 0.0
C51 C 0.68295 0.12689 0.47378 0.0
C52 C 0.52703 0.08717 0.45336 0.0
C53 C 0.53573 0.12649 0.45857 0.0
C54 C 0.49641 0.12723 0.45949 0.0
C55 C 0.58263 0.16289 0.46403 0.0
C56 C 0.55066 0.20015 0.47164 0.0
C57 C 0.59005 0.19937 0.47038 0.0
C58 C 0.50375 0.16369 0.46601 0.0
C59 C 0.57567 0.04986 0.51081 0.0
O60 O 0.55205 0.9712 0.47942 0.0
O61 O 0.51145 0.98689 0.45877 0.0
O62 O 0.67528 0.01443 0.47601 0.0
O63 O 0.642 0.01051 0.50703 0.0
O64 O 0.66219 0.05109 0.44587 0.0
O65 O 0.58799 0.02334 0.44811 0.0
O66 O 0.64158 0.11492 0.46469 0.0
O67 O 0.68558 0.10067 0.48373 0.0
O68 O 0.50916 0.0618 0.46914 0.0
O69 O 0.56124 0.08923 0.44317 0.0
O70 O 0.53554 0.0379 0.50147 0.0
O71 O 0.60854 0.06562 0.49713 0.0
H72 H 0.7296 0.98528 0.49284 0.0
H73 H 0.58038 0.92929 0.50578 0.0
H74 H 0.56444 0.86378 0.51146 0.0
H75 H 0.71422 0.92027 0.49878 0.0
H76 H 0.45989 0.09942 0.45549 0.0
H77 H 0.61349 0.16302 0.46379 0.0
H78 H 0.62653 0.22671 0.47492 0.0
H79 H 0.47272 0.16335 0.46665 0.0
Gd80 Gd 0.59417 0.55141 0.84867 0.0
Gd81 Gd 0.52525 0.45838 0.84695 0.0
C82 C 0.47624 0.50262 0.84929 0.0
C83 C 0.63995 0.62794 0.8408 0.0
C84 C 0.62935 0.65547 0.83411 0.0
C85 C 0.59591 0.65792 0.84509 0.0
C86 C 0.65403 0.68038 0.81652 0.0
C87 C 0.61318 0.71073 0.82121 0.0
C88 C 0.64594 0.70761 0.81007 0.0
C89 C 0.5881 0.68549 0.83875 0.0
C90 C 0.57544 0.51768 0.88777 0.0
C91 C 0.64461 0.50818 0.8485 0.0
C92 C 0.48288 0.38172 0.85306 0.0
C93 C 0.49521 0.35458 0.84679 0.0
C94 C 0.53069 0.36664 0.8313 0.0
C95 C 0.47305 0.3173 0.85677 0.0
C96 C 0.52191 0.30423 0.8358 0.0
C97 C 0.48622 0.29225 0.85131 0.0
C98 C 0.5438 0.34168 0.82581 0.0
C99 C 0.5445 0.49064 0.80736 0.0
O100 O 0.51944 0.53576 0.84359 0.0
O101 O 0.47065 0.46927 0.85468 0.0
O102 O 0.62806 0.61428 0.86052 0.0
O103 O 0.63109 0.59997 0.8259 0.0
O104 O 0.61794 0.55064 0.88301 0.0
O105 O 0.54527 0.50592 0.87223 0.0
O106 O 0.59992 0.47305 0.85004 0.0
O107 O 0.65193 0.54325 0.8461 0.0
O108 O 0.47101 0.39375 0.83684 0.0
O109 O 0.51263 0.41175 0.86762 0.0
O110 O 0.5026 0.45753 0.81238 0.0
O111 O 0.57486 0.5036 0.82306 0.0
H112 H 0.57604 0.63878 0.85861 0.0
H113 H 0.68002 0.67905 0.80785 0.0
H114 H 0.66626 0.72697 0.79668 0.0
H115 H 0.56231 0.68694 0.84751 0.0
H116 H 0.54837 0.39547 0.82349 0.0
H117 H 0.44591 0.30776 0.86892 0.0
H118 H 0.46908 0.26391 0.85952 0.0
H119 H 0.57083 0.35162 0.81356 0.0
P120 P 0.61828 0.03093 0.19527 0.0
H121 H 0.58739 0.97012 0.15884 0.0
H122 H 0.50813 0.90728 0.14645 0.0
H123 H 0.43998 0.93832 0.19256 0.0
H124 H 0.51951 0.00254 0.20373 0.0
H125 H 0.67425 0.06504 0.15599 0.0
H126 H 0.72489 0.13436 0.14293 0.0
H127 H 0.67617 0.17374 0.19536 0.0
H128 H 0.62265 0.10339 0.20703 0.0
H129 H 0.55289 0.97135 0.22753 0.0
H130 H 0.68244 0.09801 0.22858 0.0
O131 O 0.65406 0.0178 0.19076 0.0
H132 H 0.55212 0.97609 0.26745 0.0
H133 H 0.68127 0.10325 0.26847 0.0
C134 C 0.5594 0.99021 0.18277 0.0
C135 C 0.5553 0.96378 0.16598 0.0
C136 C 0.5098 0.9275 0.15908 0.0
C137 C 0.46739 0.91665 0.16902 0.0
C138 C 0.47155 0.94523 0.18453 0.0
C139 C 0.51716 0.98199 0.19108 0.0
C140 C 0.64622 0.07948 0.18302 0.0
C141 C 0.67378 0.08847 0.16438 0.0
C142 C 0.70331 0.12844 0.15711 0.0
C143 C 0.70647 0.16051 0.16855 0.0
C144 C 0.67531 0.1503 0.18611 0.0
C145 C 0.64486 0.10997 0.19301 0.0
C146 C 0.6159 0.03516 0.22481 0.0
C147 C 0.5802 0.00068 0.23621 0.0
C148 C 0.57989 0.00334 0.25914 0.0
C149 C 0.6161 0.04026 0.27119 0.0
C150 C 0.65266 0.07438 0.25973 0.0
C151 C 0.65291 0.07162 0.23682 0.0
P152 P 0.67968 0.582 0.57829 0.0
H153 H 0.731 0.55419 0.55807 0.0
H154 H 0.70374 0.49045 0.53809 0.0
H155 H 0.55484 0.44314 0.54343 0.0
H156 H 0.58273 0.50732 0.56392 0.0
H157 H 0.67039 0.64188 0.59835 0.0
H158 H 0.65048 0.68347 0.58357 0.0
H159 H 0.62454 0.62306 0.51926 0.0
H160 H 0.64516 0.58166 0.53424 0.0
H161 H 0.72967 0.58419 0.61719 0.0
H162 H 0.58995 0.55113 0.60059 0.0
O163 O 0.74014 0.61531 0.57818 0.0
H164 H 0.70715 0.56991 0.65542 0.0
H165 H 0.56754 0.53801 0.63894 0.0
C166 C 0.65889 0.53565 0.56229 0.0
C167 C 0.6925 0.53034 0.5548 0.0
C168 C 0.67681 0.49382 0.54324 0.0
C169 C 0.62706 0.46166 0.53897 0.0
C170 C 0.59338 0.46713 0.54654 0.0
C171 C 0.60923 0.50385 0.55813 0.0
C172 C 0.65796 0.60784 0.56755 0.0
C173 C 0.65926 0.6368 0.58118 0.0
C174 C 0.64779 0.66059 0.57268 0.0
C175 C 0.63552 0.65642 0.55024 0.0
C176 C 0.63396 0.62711 0.5366 0.0
C177 C 0.6453 0.60315 0.54519 0.0
C178 C 0.66184 0.56954 0.6062 0.0
C179 C 0.69421 0.57409 0.62183 0.0
C180 C 0.68137 0.56615 0.64373 0.0
C181 C 0.63574 0.55332 0.65038 0.0
C182 C 0.60286 0.54761 0.63443 0.0
C183 C 0.61571 0.55536 0.61251 0.0
P184 P 0.08967 0.54547 0.87796 0.0
H185 H 0.14141 0.55096 0.83832 0.0
H186 H 0.20099 0.53947 0.83134 0.0
H187 H 0.16989 0.48339 0.89333 0.0
H188 H 0.1109 0.49464 0.90008 0.0
H189 H 0.06381 0.5821 0.84688 0.0
H190 H 0.98954 0.57265 0.8395 0.0
H191 H 0.9103 0.46449 0.87716 0.0
H192 H 0.98466 0.47309 0.88361 0.0
H193 H 0.13335 0.61387 0.91176 0.0
H194 H 1.03585 0.48088 0.90983 0.0
O195 O 0.13001 0.59458 0.87174 0.0
H196 H 0.12615 0.61665 0.95135 0.0
H197 H 1.02692 0.48348 0.94936 0.0
C198 C 0.12023 0.52337 0.86965 0.0
C199 C 0.14612 0.53495 0.85014 0.0
C200 C 0.18115 0.52898 0.84633 0.0
C201 C 0.1914 0.51088 0.86185 0.0
C202 C 0.16337 0.49715 0.88078 0.0
C203 C 0.12877 0.50349 0.88465 0.0
C204 C 1.03117 0.52887 0.86625 0.0
C205 C 1.03049 0.55565 0.85322 0.0
C206 C 0.98752 0.55055 0.84926 0.0
C207 C 0.94322 0.5185 0.85827 0.0
C208 C 0.94319 0.48984 0.86995 0.0
C209 C 0.98634 0.49486 0.87378 0.0
C210 C 0.0852 0.5471 0.90759 0.0
C211 C 0.11021 0.58514 0.91974 0.0
C212 C 0.10571 0.58676 0.94249 0.0
C213 C 0.07583 0.55031 0.95365 0.0
C214 C 0.05072 0.51222 0.94142 0.0
C215 C 0.05536 0.51068 0.91867 0.0
P216 P 0.13589 0.5197 0.42134 0.0
H217 H 0.22792 0.56838 0.44665 0.0
H218 H 0.28394 0.64093 0.45876 0.0
H219 H 0.17813 0.65623 0.43921 0.0
H220 H 0.12236 0.58312 0.4265 0.0
H221 H 0.11202 0.45053 0.44558 0.0
H222 H 1.03633 0.3902 0.45854 0.0
H223 H 0.9641 0.44027 0.44079 0.0
H224 H 1.04054 0.5005 0.42712 0.0
H225 H 0.1857 0.5856 0.39071 0.0
H226 H 0.05699 0.45854 0.38982 0.0
O227 O 0.17139 0.50581 0.41919 0.0
H228 H 0.17219 0.58709 0.35175 0.0
H229 H 1.04288 0.46001 0.35084 0.0
C230 C 0.17105 0.57032 0.43545 0.0
C231 C 0.21623 0.58702 0.44532 0.0
C232 C 0.24837 0.62876 0.45236 0.0
C233 C 0.23602 0.65487 0.44978 0.0
C234 C 0.18934 0.63734 0.44109 0.0
C235 C 0.15711 0.5954 0.43406 0.0
C236 C 0.08196 0.47995 0.43517 0.0
C237 C 0.08018 0.44898 0.44474 0.0
C238 C 1.03661 0.41435 0.4523 0.0
C239 C 0.99361 0.40989 0.45062 0.0
C240 C 0.99615 0.44216 0.44202 0.0
C241 C 1.03997 0.4769 0.43441 0.0
C242 C 0.12146 0.52238 0.39346 0.0
C243 C 0.15367 0.55835 0.38234 0.0
C244 C 0.14593 0.55918 0.35998 0.0
C245 C 0.10629 0.52374 0.34817 0.0
C246 C 0.07387 0.4878 0.35942 0.0
C247 C 0.0816 0.48707 0.38181 0.0
P248 P 0.66806 0.06416 0.74611 0.0
H249 H 0.71772 0.13637 0.77713 0.0
H250 H 0.69145 0.17204 0.79638 0.0
H251 H 0.54542 0.07897 0.76986 0.0
H252 H 0.57188 0.04241 0.75142 0.0
H253 H 0.70987 0.04833 0.78089 0.0
H254 H 0.68856 0.985 0.79496 0.0
H255 H 0.56152 0.91318 0.75132 0.0
H256 H 0.58324 0.97694 0.7373 0.0
H257 H 0.63115 0.09769 0.71962 0.0
H258 H 0.66675 0.01548 0.70936 0.0
O259 O 0.7286 0.09649 0.7468 0.0
H260 H 0.61051 0.0899 0.68061 0.0
H261 H 0.64673 0.00808 0.67006 0.0
C262 C 0.64694 0.0873 0.76243 0.0
C263 C 0.67994 0.12338 0.77562 0.0
C264 C 0.66487 0.14395 0.78652 0.0
C265 C 0.61648 0.12898 0.78432 0.0
C266 C 0.58291 0.09143 0.77201 0.0
C267 C 0.59799 0.07058 0.76133 0.0
C268 C 0.64888 0.01722 0.75765 0.0
C269 C 0.67729 0.01896 0.77444 0.0
C270 C 0.66484 0.98271 0.78259 0.0
C271 C 0.62356 0.944 0.77412 0.0
C272 C 0.59398 0.94249 0.75791 0.0
C273 C 0.60632 0.97888 0.7499 0.0
C274 C 0.64878 0.0559 0.71762 0.0
C275 C 0.63341 0.07712 0.70914 0.0
C276 C 0.62178 0.07281 0.68675 0.0
C277 C 0.62658 0.04809 0.67232 0.0
C278 C 0.64263 0.0273 0.68081 0.0
C279 C 0.6537 0.03126 0.70326 0.0
P280 P 0.42778 0.29772 0.08252 0.0
H281 H 0.42468 0.23694 0.10732 0.0
H282 H 0.47685 0.24524 0.13759 0.0
H283 H 0.5718 0.37702 0.13187 0.0
H284 H 0.52093 0.3687 0.10172 0.0
H285 H 0.363 0.3013 0.11104 0.0
H286 H 0.35847 0.35678 0.12125 0.0
H287 H 0.48199 0.43912 0.08177 0.0
H288 H 0.48522 0.38366 0.07117 0.0
H289 H 0.52297 0.33402 0.06328 0.0
H290 H 0.37808 0.2824 0.04121 0.0
O291 O 0.37316 0.25181 0.08325 0.0
H292 H 0.55338 0.36254 0.02753 0.0
H293 H 0.40797 0.31146 0.00585 0.0
C294 C 0.46858 0.30228 0.10248 0.0
C295 C 0.45698 0.26753 0.1125 0.0
C296 C 0.48653 0.27224 0.1298 0.0
C297 C 0.52743 0.31183 0.13737 0.0
C298 C 0.53964 0.34625 0.12675 0.0
C299 C 0.51069 0.34149 0.10939 0.0
C300 C 0.42345 0.33794 0.08985 0.0
C301 C 0.38873 0.33122 0.10446 0.0
C302 C 0.38666 0.36312 0.1105 0.0
C303 C 0.41975 0.40235 0.10221 0.0
C304 C 0.45535 0.40911 0.08809 0.0
C305 C 0.45712 0.37724 0.08197 0.0
C306 C 0.44813 0.30574 0.05482 0.0
C307 C 0.49742 0.32765 0.05054 0.0
C308 C 0.51488 0.34444 0.03015 0.0
C309 C 0.4833 0.3398 0.01383 0.0
C310 C 0.4334 0.31529 0.0178 0.0
C311 C 0.41609 0.29848 0.03808 0.0
H312 H 0.35339 0.56509 0.08432 0.0
H313 H 0.3989 0.42297 0.14146 0.0
H314 H 0.30523 0.51957 0.14876 0.0
H315 H 0.43115 0.45723 0.07431 0.0
H316 H 0.38297 0.47233 0.14783 0.0
H317 H 0.40231 0.54165 0.08432 0.0
C318 C 0.35399 0.55101 0.09867 0.0
C319 C 0.32438 0.54343 0.11634 0.0
C320 C 0.39427 0.46946 0.1318 0.0
C321 C 0.3796 0.5161 0.11637 0.0
C322 C 0.40296 0.44105 0.12811 0.0
C323 C 0.41556 0.43542 0.10722 0.0
C324 C 0.39793 0.49219 0.11444 0.0
C325 C 0.42157 0.46049 0.09069 0.0
C326 C 0.38183 0.53758 0.09866 0.0
C327 C 0.32728 0.52586 0.13472 0.0
N328 N 0.41209 0.48736 0.09458 0.0
N329 N 0.35356 0.51199 0.13406 0.0
H330 H 0.69441 0.18614 0.4495 0.0
H331 H 0.97511 0.36048 0.48441 0.0
H332 H 0.77282 0.16695 0.49414 0.0
H333 H 0.90355 0.36893 0.43021 0.0
H334 H 0.89915 0.29304 0.49133 0.0
H335 H 0.76819 0.2564 0.44557 0.0
C336 C 0.72699 0.19673 0.45865 0.0
C337 C 0.72722 0.17037 0.47219 0.0
C338 C 0.90004 0.30977 0.47799 0.0
C339 C 0.8123 0.2512 0.46763 0.0
C340 C 0.94353 0.34832 0.47395 0.0
C341 C 0.94624 0.37063 0.45653 0.0
C342 C 0.85854 0.29321 0.46464 0.0
C343 C 0.90346 0.35336 0.44395 0.0
C344 C 0.76926 0.23691 0.4563 0.0
C345 C 0.77085 0.186 0.48347 0.0
N346 N 0.86161 0.31574 0.44819 0.0
N347 N 0.81157 0.22531 0.48092 0.0
H348 H 0.60923 0.76358 0.84814 0.0
H349 H 0.59551 0.87563 0.74868 0.0
H350 H 0.60255 0.72749 0.77979 0.0
H351 H 0.62883 0.9251 0.81597 0.0
H352 H 0.5859 0.81542 0.76037 0.0
H353 H 0.60464 0.81717 0.83714 0.0
C354 C 0.60619 0.76659 0.83083 0.0
C355 C 0.60659 0.7412 0.81485 0.0
C356 C 0.59501 0.83931 0.77261 0.0
C357 C 0.60165 0.80261 0.80215 0.0
C358 C 0.60012 0.87356 0.76596 0.0
C359 C 0.61324 0.90559 0.78135 0.0
C360 C 0.60285 0.83689 0.79482 0.0
C361 C 0.61936 0.90142 0.8035 0.0
C362 C 0.60389 0.79736 0.82456 0.0
C363 C 0.60306 0.74678 0.79265 0.0
N364 N 0.61428 0.86781 0.80956 0.0
N365 N 0.60088 0.77692 0.78696 0.0
H366 H 0.77281 0.46786 0.21744 0.0
H367 H 0.5693 0.27473 0.14261 0.0
H368 H 0.78764 0.38156 0.18474 0.0
H369 H 0.55792 0.3641 0.1737 0.0
H370 H 0.6379 0.2997 0.16771 0.0
H371 H 0.68492 0.41719 0.21215 0.0
C372 C 0.75749 0.43778 0.20974 0.0
C373 C 0.7875 0.42934 0.20085 0.0
C374 C 0.61962 0.31315 0.16944 0.0
C375 C 0.6872 0.3717 0.19419 0.0
C376 C 0.58036 0.29875 0.15518 0.0
C377 C 0.55906 0.31825 0.15579 0.0
C378 C 0.6376 0.34739 0.18418 0.0
C379 C 0.57443 0.34908 0.17239 0.0
C380 C 0.70726 0.40889 0.20657 0.0
C381 C 0.7657 0.38975 0.19115 0.0
N382 N 0.61343 0.36331 0.18565 0.0
N383 N 0.71688 0.36273 0.18757 0.0
H384 H 0.4295 0.92185 0.44268 0.0
H385 H 0.30547 0.69607 0.48349 0.0
H386 H 0.49659 0.89605 0.4903 0.0
H387 H 0.2519 0.71804 0.42722 0.0
H388 H 0.37093 0.77017 0.48884 0.0
H389 H 0.35976 0.84839 0.43938 0.0
C390 C 0.42959 0.90083 0.4525 0.0
C391 C 0.46925 0.91529 0.46672 0.0
C392 C 0.34471 0.7588 0.47538 0.0
C393 C 0.38918 0.83097 0.46308 0.0
C394 C 0.30729 0.71637 0.47226 0.0
C395 C 0.27303 0.7004 0.45474 0.0
C396 C 0.3481 0.78583 0.46097 0.0
C397 C 0.27696 0.72867 0.44108 0.0
C398 C 0.38972 0.85883 0.45058 0.0
C399 C 0.46712 0.88644 0.47902 0.0
N400 N 0.31385 0.76986 0.44442 0.0
N401 N 0.42787 0.84578 0.47692 0.0
H402 H 0.61321 0.32918 0.82809 0.0
H403 H 0.53017 0.10167 0.80296 0.0
H404 H 0.46422 0.21952 0.83048 0.0
H405 H 0.66959 0.21304 0.78687 0.0
H406 H 0.50694 0.14361 0.81674 0.0
H407 H 0.63622 0.28627 0.81685 0.0
C408 C 0.58523 0.29607 0.82616 0.0
C409 C 0.53656 0.27805 0.83003 0.0
C410 C 0.54267 0.15877 0.81026 0.0
C411 C 0.56293 0.22852 0.81744 0.0
C412 C 0.55592 0.13485 0.8023 0.0
C413 C 0.60203 0.15372 0.79374 0.0
C414 C 0.5758 0.2019 0.80977 0.0
C415 C 0.63403 0.19698 0.79366 0.0
C416 C 0.59847 0.27155 0.81984 0.0
C417 C 0.50221 0.23481 0.82783 0.0
N418 N 0.62031 0.21949 0.80151 0.0
N419 N 0.51602 0.21153 0.82161 0.0
H420 H 0.58539 0.83456 0.53828 0.0
H421 H 0.66759 0.69512 0.51157 0.0
H422 H 0.67161 0.8502 0.4832 0.0
H423 H 0.5861 0.68238 0.56809 0.0
H424 H 0.66141 0.74663 0.49864 0.0
H425 H 0.5775 0.7738 0.54716 0.0
C426 C 0.60215 0.82493 0.52787 0.0
C427 C 0.62956 0.84779 0.51006 0.0
C428 C 0.64454 0.73235 0.51379 0.0
C429 C 0.62116 0.77843 0.52032 0.0
C430 C 0.64773 0.70265 0.5211 0.0
C431 C 0.62763 0.68454 0.54105 0.0
C432 C 0.62111 0.74414 0.52649 0.0
C433 C 0.60288 0.69603 0.55282 0.0
C434 C 0.59788 0.79035 0.53304 0.0
C435 C 0.65088 0.83401 0.49732 0.0
N436 N 0.60059 0.72524 0.54545 0.0
N437 N 0.64646 0.80042 0.50277 0.0
H438 H 0.64611 0.44219 0.85127 0.0
H439 H 0.93822 0.58264 0.85654 0.0
H440 H 0.74237 0.57439 0.84808 0.0
H441 H 0.84471 0.4498 0.85586 0.0
H442 H 0.86681 0.57947 0.85362 0.0
H443 H 0.71708 0.44373 0.85331 0.0
C444 C 0.68203 0.4716 0.85098 0.0
C445 C 0.68768 0.50824 0.84949 0.0
C446 C 0.86173 0.55091 0.85404 0.0
C447 C 0.77 0.51019 0.85191 0.0
C448 C 0.90287 0.55261 0.85553 0.0
C449 C 0.89849 0.51641 0.85628 0.0
C450 C 0.81487 0.51271 0.85335 0.0
C451 C 0.85073 0.47874 0.85555 0.0
C452 C 0.72273 0.47242 0.85215 0.0
C453 C 0.73563 0.54525 0.84918 0.0
N454 N 0.8112 0.47793 0.85412 0.0
N455 N 0.77448 0.54522 0.85041 0.0
H456 H 0.24416 0.65418 0.13952 0.0
H457 H 0.3744 0.8931 0.16799 0.0
H458 H 0.16949 0.69688 0.16889 0.0
H459 H 0.45164 0.84335 0.16028 0.0
H460 H 0.29777 0.82295 0.16332 0.0
H461 H 0.31933 0.72515 0.14167 0.0
C462 C 0.24345 0.67847 0.14634 0.0
C463 C 0.20039 0.66946 0.15414 0.0
C464 C 0.33163 0.82759 0.16255 0.0
C465 C 0.2865 0.75095 0.15652 0.0
C466 C 0.37549 0.86766 0.16529 0.0
C467 C 0.42003 0.87459 0.16454 0.0
C468 C 0.33212 0.79412 0.1588 0.0
C469 C 0.41864 0.84008 0.16057 0.0
C470 C 0.28647 0.71899 0.14762 0.0
C471 C 0.20187 0.70232 0.16282 0.0
N472 N 0.37557 0.80153 0.15785 0.0
N473 N 0.24418 0.74162 0.16374 0.0
H474 H 0.62287 0.27933 0.46082 0.0
H475 H 0.54941 0.38222 0.5475 0.0
H476 H 0.49674 0.20866 0.50039 0.0
H477 H 0.66785 0.45139 0.50362 0.0
H478 H 0.52723 0.31822 0.52951 0.0
H479 H 0.63828 0.34254 0.47562 0.0
C480 C 0.59838 0.27711 0.47262 0.0
C481 C 0.55859 0.23861 0.47945 0.0
C482 C 0.55791 0.34741 0.52374 0.0
C483 C 0.57595 0.31101 0.49648 0.0
C484 C 0.57043 0.38401 0.53393 0.0
C485 C 0.61083 0.42238 0.52721 0.0
C486 C 0.58601 0.34909 0.50672 0.0
C487 C 0.63701 0.42262 0.50967 0.0
C488 C 0.60705 0.31322 0.48099 0.0
C489 C 0.52763 0.23761 0.49453 0.0
N490 N 0.62432 0.38664 0.50015 0.0
N491 N 0.53715 0.27327 0.50264 0.0
H492 H 0.47232 0.56456 0.83814 0.0
H493 H 0.19628 0.44955 0.87388 0.0
H494 H 0.38288 0.44322 0.863 0.0
H495 H 0.28124 0.5658 0.84341 0.0
H496 H 0.26409 0.44728 0.87061 0.0
H497 H 0.40369 0.56601 0.84044 0.0
C498 C 0.43832 0.5381 0.84406 0.0
C499 C 0.43394 0.50364 0.85033 0.0
C500 C 0.26795 0.47327 0.86457 0.0
C501 C 0.35423 0.50527 0.85314 0.0
C502 C 0.22907 0.47474 0.86653 0.0
C503 C 0.23228 0.50797 0.85895 0.0
C504 C 0.31125 0.50539 0.85507 0.0
C505 C 0.27614 0.53919 0.84928 0.0
C506 C 0.39893 0.53898 0.84536 0.0
C507 C 0.38847 0.47049 0.8579 0.0
N508 N 0.31356 0.5372 0.84774 0.0
N509 N 0.35081 0.4722 0.85913 0.0
H510 H 0.96994 0.39055 0.12836 0.0
H511 H 0.7036 0.2261 0.17228 0.0
H512 H 0.90291 0.42575 0.17208 0.0
H513 H 0.79772 0.19641 0.15325 0.0
H514 H 0.76973 0.29863 0.16648 0.0
H515 H 0.89982 0.31818 0.13119 0.0
C516 C 0.94033 0.38317 0.1384 0.0
C517 C 0.94241 0.41443 0.14998 0.0
C518 C 0.77553 0.276 0.16346 0.0
C519 C 0.86179 0.33147 0.15317 0.0
C520 C 0.73786 0.23452 0.16686 0.0
C521 C 0.7446 0.20452 0.16332 0.0
C522 C 0.82014 0.28766 0.15615 0.0
C523 C 0.78989 0.21775 0.15581 0.0
C524 C 0.90037 0.34181 0.14005 0.0
C525 C 0.90285 0.4028 0.16279 0.0
N526 N 0.8257 0.25814 0.15248 0.0
N527 N 0.86413 0.36228 0.16401 0.0
H528 H 1.03937 0.4984 0.09121 0.0
H529 H 0.07111 0.60449 0.97918 0.0
H530 H 0.05765 0.61124 0.08914 0.0
H531 H 0.06972 0.50006 0.98364 0.0
H532 H 0.06372 0.60667 0.01901 0.0
H533 H 1.04721 0.49738 0.0515 0.0
C534 C 1.04497 0.52299 0.08235 0.0
C535 C 1.0479 0.55499 0.09347 0.0
C536 C 0.06505 0.5833 0.01126 0.0
C537 C 0.05683 0.55399 0.04784 0.0
C538 C 0.06954 0.58214 0.9885 0.0
C539 C 0.07105 0.552 0.97791 0.0
C540 C 0.06189 0.55406 0.02361 0.0
C541 C 0.06797 0.52346 0.99092 0.0
C542 C 0.04952 0.52241 0.05965 0.0
C543 C 0.05517 0.58601 0.08116 0.0
N544 N 0.06354 0.5252 0.01301 0.0
N545 N 0.05935 0.58473 0.05898 0.0
H546 H 0.5428 0.00907 0.40911 0.0
H547 H 0.69501 0.07797 0.29947 0.0
H548 H 0.69759 0.07637 0.40767 0.0
H549 H 0.53941 0.00754 0.29863 0.0
H550 H 0.69618 0.08047 0.33942 0.0
H551 H 0.54013 0.01067 0.36892 0.0
C552 C 0.57616 0.02429 0.40033 0.0
C553 C 0.62043 0.04235 0.41162 0.0
C554 C 0.66171 0.06454 0.33055 0.0
C555 C 0.61777 0.04436 0.36592 0.0
C556 C 0.66107 0.06336 0.30768 0.0
C557 C 0.61706 0.0426 0.29561 0.0
C558 C 0.61802 0.04476 0.34159 0.0
C559 C 0.57413 0.0235 0.30725 0.0
C560 C 0.57465 0.02517 0.37744 0.0
C561 C 0.66264 0.06181 0.39957 0.0
N562 N 0.57567 0.025 0.3296 0.0
N563 N 0.66024 0.06219 0.37741 0.0
H564 H 0.48375 0.45869 0.77125 0.0
H565 H 0.69408 0.5978 0.68719 0.0
H566 H 0.63419 0.55051 0.79169 0.0
H567 H 0.5476 0.49271 0.66725 0.0
H568 H 0.67209 0.58493 0.72558 0.0
H569 H 0.50553 0.47554 0.73317 0.0
C570 C 0.52139 0.48262 0.76771 0.0
C571 C 0.55729 0.50312 0.7846 0.0
C572 C 0.64478 0.56474 0.71279 0.0
C573 C 0.58257 0.52252 0.74101 0.0
C574 C 0.65735 0.57187 0.69084 0.0
C575 C 0.62272 0.54619 0.67386 0.0
C576 C 0.59713 0.53177 0.71789 0.0
C577 C 0.57543 0.51365 0.67969 0.0
C578 C 0.53383 0.49215 0.74596 0.0
C579 C 0.60544 0.53397 0.77912 0.0
N580 N 0.5641 0.50738 0.70118 0.0
N581 N 0.61674 0.54266 0.75776 0.0
H582 H 0.65883 0.07553 0.53246 0.0
H583 H 0.54911 0.03592 0.65173 0.0
H584 H 0.50918 0.02132 0.54284 0.0
H585 H 0.68204 0.05484 0.63854 0.0
H586 H 0.53571 0.035 0.61223 0.0
H587 H 0.67016 0.0728 0.57169 0.0
C588 C 0.62831 0.06289 0.54301 0.0
C589 C 0.58293 0.0484 0.53443 0.0
C590 C 0.56766 0.03911 0.61798 0.0
C591 C 0.59575 0.04572 0.57933 0.0
C592 C 0.57542 0.03983 0.6405 0.0
C593 C 0.61675 0.04546 0.6484 0.0
C594 C 0.60182 0.04465 0.60327 0.0
C595 C 0.64949 0.05003 0.63313 0.0
C596 C 0.63478 0.06132 0.56538 0.0
C597 C 0.54473 0.03274 0.54883 0.0
N598 N 0.6415 0.04983 0.61131 0.0
N599 N 0.55204 0.03197 0.57061 0.0
H600 H 0.63887 0.53168 0.92024 0.0
H601 H 0.44263 0.31586 0.97194 0.0
H602 H 0.48836 0.44774 0.89847 0.0
H603 H 0.5669 0.41904 0.01009 0.0
H604 H 0.46734 0.35963 0.94112 0.0
H605 H 0.62029 0.48711 0.95039 0.0
C606 C 0.60198 0.50399 0.92185 0.0
C607 C 0.56511 0.49314 0.90681 0.0
C608 C 0.48934 0.37253 0.95622 0.0
C609 C 0.544 0.44197 0.94072 0.0
C610 C 0.47528 0.34759 0.97384 0.0
C611 C 0.50227 0.36382 0.99383 0.0
C612 C 0.53101 0.41396 0.95844 0.0
C613 C 0.54504 0.40498 0.99501 0.0
C614 C 0.59148 0.47859 0.93896 0.0
C615 C 0.51793 0.45701 0.9096 0.0
N616 N 0.55795 0.42873 0.9776 0.0
N617 N 0.5088 0.43255 0.9261 0.0
H618 H 0.08074 0.46628 0.20822 0.0
H619 H 0.11962 0.58442 0.32424 0.0
H620 H 0.10992 0.58407 0.2143 0.0
H621 H 0.08099 0.46303 0.3169 0.0
H622 H 0.11528 0.58497 0.28422 0.0
H623 H 0.07983 0.46461 0.24817 0.0
C624 C 0.08696 0.49183 0.21802 0.0
C625 C 0.09555 0.52541 0.208 0.0
C626 C 0.10748 0.55813 0.29139 0.0
C627 C 0.09457 0.52379 0.2538 0.0
C628 C 0.11013 0.55785 0.31423 0.0
C629 C 0.1007 0.52363 0.32399 0.0
C630 C 0.0956 0.52404 0.27816 0.0
C631 C 0.08798 0.48987 0.31018 0.0
C632 C 0.08632 0.49083 0.24083 0.0
C633 C 0.10315 0.55759 0.22142 0.0
N634 N 0.08606 0.49104 0.28802 0.0
N635 N 0.10265 0.55607 0.24368 0.0
loop_
_geom_bond_atom_site_label_1
_geom_bond_atom_site_label_2
_geom_bond_distance
_geom_bond_site_symmetry_2
_ccdc_geom_bond_type
Gd0 C3 2.818 . S
Gd0 O20 2.377 . S
Gd0 O22 2.448 . S
Gd0 O23 2.506 . S
Gd0 O24 2.435 . S
Gd0 O25 2.717 . S
Gd0 O27 2.395 1_455 S
Gd0 O31 2.327 . S
Gd1 C12 2.818 1_455 S
Gd1 O21 2.395 . S
Gd1 O25 2.327 . S
Gd1 O26 2.377 1_455 S
Gd1 O28 2.448 1_455 S
Gd1 O29 2.506 1_455 S
Gd1 O30 2.435 . S
Gd1 O31 2.717 . S
C2 O20 1.240 . S
C2 O21 1.240 . S
C3 Gd0 2.818 . S
C3 C4 1.510 . S
C3 O22 1.249 . S
C3 O23 1.252 . S
C4 C3 1.510 . S
C4 C5 1.404 . S
C4 C6 1.352 . S
C5 C4 1.404 . S
C5 C9 1.389 . S
C5 H32 0.930 . S
C6 C4 1.352 . S
C6 C8 1.374 . S
C6 H33 0.931 . S
C7 C8 1.359 . S
C7 C9 1.364 . S
C8 C6 1.374 . S
C8 C7 1.359 . S
C8 H34 0.931 . S
C9 C5 1.389 . S
C9 C7 1.364 . S
C9 H35 0.931 . S
C10 O24 1.256 . S
C10 O25 1.257 . S
C11 O26 1.240 . S
C11 O27 1.240 . S
C12 Gd1 2.818 1_655 S
C12 C13 1.510 . S
C12 O28 1.249 . S
C12 O29 1.252 . S
C13 C12 1.510 . S
C13 C14 1.404 . S
C13 C15 1.352 . S
C14 C13 1.404 . S
C14 C18 1.389 . S
C14 H36 0.930 . S
C15 C13 1.352 . S
C15 C17 1.374 . S
C15 H37 0.931 . S
C16 C17 1.359 . S
C16 C18 1.364 . S
C17 C15 1.374 . S
C17 C16 1.359 . S
C17 H38 0.931 . S
C18 C14 1.389 . S
C18 C16 1.364 . S
C18 H39 0.931 . S
C19 O30 1.256 . S
C19 O31 1.257 . S
O20 Gd0 2.377 . S
O20 C2 1.240 . S
O21 Gd1 2.395 . S
O21 C2 1.240 . S
O22 Gd0 2.448 . S
O22 C3 1.249 . S
O23 Gd0 2.506 . S
O23 C3 1.252 . S
O24 Gd0 2.435 . S
O24 C10 1.256 . S
O25 Gd0 2.717 . S
O25 Gd1 2.327 . S
O25 C10 1.257 . S
O26 Gd1 2.377 1_655 S
O26 C11 1.240 . S
O27 Gd0 2.395 1_655 S
O27 C11 1.240 . S
O28 Gd1 2.448 1_655 S
O28 C12 1.249 . S
O29 Gd1 2.506 1_655 S
O29 C12 1.252 . S
O30 Gd1 2.435 . S
O30 C19 1.256 . S
O31 Gd0 2.327 . S
O31 Gd1 2.717 . S
O31 C19 1.257 . S
H32 C5 0.930 . S
H33 C6 0.931 . S
H34 C8 0.931 . S
H35 C9 0.931 . S
H36 C14 0.930 . S
H37 C15 0.931 . S
H38 C17 0.931 . S
H39 C18 0.931 . S
Gd40 C43 2.818 . S
Gd40 O60 2.377 . S
Gd40 O62 2.448 . S
Gd40 O63 2.506 . S
Gd40 O64 2.435 . S
Gd40 O65 2.717 1_565 S
Gd40 O67 2.395 1_565 S
Gd40 O71 2.327 1_565 S
Gd41 C52 2.818 . S
Gd41 O61 2.395 1_545 S
Gd41 O65 2.327 . S
Gd41 O66 2.377 . S
Gd41 O68 2.448 . S
Gd41 O69 2.506 . S
Gd41 O70 2.435 . S
Gd41 O71 2.717 . S
C42 O60 1.240 . S
C42 O61 1.240 . S
C43 Gd40 2.818 . S
C43 C44 1.510 . S
C43 O62 1.249 . S
C43 O63 1.252 . S
C44 C43 1.510 . S
C44 C45 1.404 . S
C44 C46 1.352 . S
C45 C44 1.404 . S
C45 C49 1.389 . S
C45 H72 0.930 . S
C46 C44 1.352 . S
C46 C48 1.374 . S
C46 H73 0.931 . S
C47 C48 1.359 . S
C47 C49 1.364 . S
C48 C46 1.374 . S
C48 C47 1.359 . S
C48 H74 0.931 . S
C49 C45 1.389 . S
C49 C47 1.364 . S
C49 H75 0.931 . S
C50 O64 1.256 1_545 S
C50 O65 1.257 . S
C51 O66 1.240 . S
C51 O67 1.240 . S
C52 Gd41 2.818 . S
C52 C53 1.510 . S
C52 O68 1.249 . S
C52 O69 1.252 . S
C53 C52 1.510 . S
C53 C54 1.404 . S
C53 C55 1.352 . S
C54 C53 1.404 . S
C54 C58 1.389 . S
C54 H76 0.930 . S
C55 C53 1.352 . S
C55 C57 1.374 . S
C55 H77 0.931 . S
C56 C57 1.359 . S
C56 C58 1.364 . S
C57 C55 1.374 . S
C57 C56 1.359 . S
C57 H78 0.931 . S
C58 C54 1.389 . S
C58 C56 1.364 . S
C58 H79 0.931 . S
C59 O70 1.256 . S
C59 O71 1.257 . S
O60 Gd40 2.377 . S
O60 C42 1.240 . S
O61 Gd41 2.395 1_565 S
O61 C42 1.240 . S
O62 Gd40 2.448 . S
O62 C43 1.249 . S
O63 Gd40 2.506 . S
O63 C43 1.252 . S
O64 Gd40 2.435 . S
O64 C50 1.256 1_565 S
O65 Gd40 2.717 1_545 S
O65 Gd41 2.327 . S
O65 C50 1.257 . S
O66 Gd41 2.377 . S
O66 C51 1.240 . S
O67 Gd40 2.395 1_545 S
O67 C51 1.240 . S
O68 Gd41 2.448 . S
O68 C52 1.249 . S
O69 Gd41 2.506 . S
O69 C52 1.252 . S
O70 Gd41 2.435 . S
O70 C59 1.256 . S
O71 Gd40 2.327 1_545 S
O71 Gd41 2.717 . S
O71 C59 1.257 . S
H72 C45 0.930 . S
H73 C46 0.931 . S
H74 C48 0.931 . S
H75 C49 0.931 . S
H76 C54 0.930 . S
H77 C55 0.931 . S
H78 C57 0.931 . S
H79 C58 0.931 . S
Gd80 C83 2.818 . S
Gd80 O100 2.377 . S
Gd80 O102 2.448 . S
Gd80 O103 2.506 . S
Gd80 O104 2.435 . S
Gd80 O105 2.717 . S
Gd80 O107 2.395 . S
Gd80 O111 2.327 . S
Gd81 C92 2.818 . S
Gd81 O101 2.395 . S
Gd81 O105 2.327 . S
Gd81 O106 2.377 . S
Gd81 O108 2.448 . S
Gd81 O109 2.506 . S
Gd81 O110 2.435 . S
Gd81 O111 2.717 . S
C82 O100 1.240 . S
C82 O101 1.240 . S
C83 Gd80 2.818 . S
C83 C84 1.510 . S
C83 O102 1.249 . S
C83 O103 1.252 . S
C84 C83 1.510 . S
C84 C85 1.404 . S
C84 C86 1.352 . S
C85 C84 1.404 . S
C85 C89 1.389 . S
C85 H112 0.930 . S
C86 C84 1.352 . S
C86 C88 1.374 . S
C86 H113 0.931 . S
C87 C88 1.359 . S
C87 C89 1.364 . S
C88 C86 1.374 . S
C88 C87 1.359 . S
C88 H114 0.931 . S
C89 C85 1.389 . S
C89 C87 1.364 . S
C89 H115 0.931 . S
C90 O104 1.256 . S
C90 O105 1.257 . S
C91 O106 1.240 . S
C91 O107 1.240 . S
C92 Gd81 2.818 . S
C92 C93 1.510 . S
C92 O108 1.249 . S
C92 O109 1.252 . S
C93 C92 1.510 . S
C93 C94 1.404 . S
C93 C95 1.352 . S
C94 C93 1.404 . S
C94 C98 1.389 . S
C94 H116 0.930 . S
C95 C93 1.352 . S
C95 C97 1.374 . S
C95 H117 0.931 . S
C96 C97 1.359 . S
C96 C98 1.364 . S
C97 C95 1.374 . S
C97 C96 1.359 . S
C97 H118 0.931 . S
C98 C94 1.389 . S
C98 C96 1.364 . S
C98 H119 0.931 . S
C99 O110 1.256 . S
C99 O111 1.257 . S
O100 Gd80 2.377 . S
O100 C82 1.240 . S
O101 Gd81 2.395 . S
O101 C82 1.240 . S
O102 Gd80 2.448 . S
O102 C83 1.249 . S
O103 Gd80 2.506 . S
O103 C83 1.252 . S
O104 Gd80 2.435 . S
O104 C90 1.256 . S
O105 Gd80 2.717 . S
O105 Gd81 2.327 . S
O105 C90 1.257 . S
O106 Gd81 2.377 . S
O106 C91 1.240 . S
O107 Gd80 2.395 . S
O107 C91 1.240 . S
O108 Gd81 2.448 . S
O108 C92 1.249 . S
O109 Gd81 2.506 . S
O109 C92 1.252 . S
O110 Gd81 2.435 . S
O110 C99 1.256 . S
O111 Gd80 2.327 . S
O111 Gd81 2.717 . S
O111 C99 1.257 . S
H112 C85 0.930 . S
H113 C86 0.931 . S
H114 C88 0.931 . S
H115 C89 0.931 . S
H116 C94 0.930 . S
H117 C95 0.931 . S
H118 C97 0.931 . S
H119 C98 0.931 . S
P120 O131 1.490 1_545 S
P120 C134 1.812 1_545 S
P120 C140 1.803 . S
P120 C146 1.819 . S
H121 C135 0.941 . S
H122 C136 0.939 . S
H123 C138 0.940 . S
H124 C139 0.940 . S
H125 C141 0.939 . S
H126 C142 0.942 . S
H127 C144 0.940 . S
H128 C145 0.939 . S
H129 C147 0.941 . S
H130 C151 0.939 . S
O131 P120 1.490 1_565 S
H132 C148 0.939 . S
H133 C150 0.940 . S
C134 P120 1.812 1_565 S
C134 C135 1.389 . S
C134 C139 1.391 . S
C135 H121 0.941 . S
C135 C134 1.389 . S
C135 C136 1.397 . S
C136 H122 0.939 . S
C136 C135 1.397 . S
C136 C137 1.378 . S
C137 C136 1.378 . S
C137 C138 1.378 . S
C138 H123 0.940 . S
C138 C137 1.378 . S
C138 C139 1.396 . S
C139 H124 0.940 . S
C139 C134 1.391 . S
C139 C138 1.396 . S
C140 P120 1.803 . S
C140 C141 1.378 . S
C140 C145 1.400 . S
C141 H125 0.939 . S
C141 C140 1.378 . S
C141 C142 1.361 . S
C142 H126 0.942 . S
C142 C141 1.361 . S
C142 C143 1.369 . S
C143 C142 1.369 . S
C143 C144 1.404 . S
C144 H127 0.940 . S
C144 C143 1.404 . S
C144 C145 1.389 . S
C145 H128 0.939 . S
C145 C140 1.400 . S
C145 C144 1.389 . S
C146 P120 1.819 . S
C146 C147 1.391 1_545 S
C146 C151 1.391 . S
C147 H129 0.941 . S
C147 C146 1.391 1_565 S
C147 C148 1.396 . S
C148 H132 0.939 . S
C148 C147 1.396 . S
C148 C149 1.397 1_565 S
C149 C148 1.397 1_545 S
C149 C150 1.385 . S
C150 H133 0.940 . S
C150 C149 1.385 . S
C150 C151 1.388 . S
C151 H130 0.939 . S
C151 C146 1.391 . S
C151 C150 1.388 . S
P152 O163 1.490 . S
P152 C166 1.812 . S
P152 C172 1.803 . S
P152 C178 1.819 . S
H153 C167 0.941 . S
H154 C168 0.939 . S
H155 C170 0.940 . S
H156 C171 0.940 . S
H157 C173 0.939 . S
H158 C174 0.942 . S
H159 C176 0.940 . S
H160 C177 0.939 . S
H161 C179 0.941 . S
H162 C183 0.939 . S
O163 P152 1.490 . S
H164 C180 0.939 . S
H165 C182 0.940 . S
C166 P152 1.812 . S
C166 C167 1.389 . S
C166 C171 1.391 . S
C167 H153 0.941 . S
C167 C166 1.389 . S
C167 C168 1.397 . S
C168 H154 0.939 . S
C168 C167 1.397 . S
C168 C169 1.378 . S
C169 C168 1.378 . S
C169 C170 1.378 . S
C170 H155 0.940 . S
C170 C169 1.378 . S
C170 C171 1.396 . S
C171 H156 0.940 . S
C171 C166 1.391 . S
C171 C170 1.396 . S
C172 P152 1.803 . S
C172 C173 1.378 . S
C172 C177 1.400 . S
C173 H157 0.939 . S
C173 C172 1.378 . S
C173 C174 1.361 . S
C174 H158 0.942 . S
C174 C173 1.361 . S
C174 C175 1.369 . S
C175 C174 1.369 . S
C175 C176 1.404 . S
C176 H159 0.940 . S
C176 C175 1.404 . S
C176 C177 1.389 . S
C177 H160 0.939 . S
C177 C172 1.400 . S
C177 C176 1.389 . S
C178 P152 1.819 . S
C178 C179 1.391 . S
C178 C183 1.391 . S
C179 H161 0.941 . S
C179 C178 1.391 . S
C179 C180 1.396 . S
C180 H164 0.939 . S
C180 C179 1.396 . S
C180 C181 1.397 . S
C181 C180 1.397 . S
C181 C182 1.385 . S
C182 H165 0.940 . S
C182 C181 1.385 . S
C182 C183 1.388 . S
C183 H162 0.939 . S
C183 C178 1.391 . S
C183 C182 1.388 . S
P184 O195 1.490 . S
P184 C198 1.812 . S
P184 C204 1.803 . S
P184 C210 1.819 . S
H185 C199 0.941 . S
H186 C200 0.939 . S
H187 C202 0.940 . S
H188 C203 0.940 . S
H189 C205 0.939 . S
H190 C206 0.942 . S
H191 C208 0.940 . S
H192 C209 0.939 . S
H193 C211 0.941 . S
H194 C215 0.939 . S
O195 P184 1.490 . S
H196 C212 0.939 . S
H197 C214 0.940 1_655 S
C198 P184 1.812 . S
C198 C199 1.389 . S
C198 C203 1.391 . S
C199 H185 0.941 . S
C199 C198 1.389 . S
C199 C200 1.397 . S
C200 H186 0.939 . S
C200 C199 1.397 . S
C200 C201 1.378 . S
C201 C200 1.378 . S
C201 C202 1.378 . S
C202 H187 0.940 . S
C202 C201 1.378 . S
C202 C203 1.396 . S
C203 H188 0.940 . S
C203 C198 1.391 . S
C203 C202 1.396 . S
C204 P184 1.803 . S
C204 C205 1.378 . S
C204 C209 1.400 . S
C205 H189 0.939 . S
C205 C204 1.378 . S
C205 C206 1.361 1_455 S
C206 H190 0.942 . S
C206 C205 1.361 1_655 S
C206 C207 1.369 . S
C207 C206 1.369 . S
C207 C208 1.404 . S
C208 H191 0.940 . S
C208 C207 1.404 . S
C208 C209 1.389 1_655 S
C209 H192 0.939 . S
C209 C204 1.400 . S
C209 C208 1.389 1_455 S
C210 P184 1.819 . S
C210 C211 1.391 . S
C210 C215 1.391 . S
C211 H193 0.941 . S
C211 C210 1.391 . S
C211 C212 1.396 . S
C212 H196 0.939 . S
C212 C211 1.396 . S
C212 C213 1.397 . S
C213 C212 1.397 . S
C213 C214 1.385 . S
C214 H197 0.940 1_455 S
C214 C213 1.385 . S
C214 C215 1.388 . S
C215 H194 0.939 . S
C215 C210 1.391 . S
C215 C214 1.388 . S
P216 O227 1.490 . S
P216 C230 1.812 . S
P216 C236 1.803 1_455 S
P216 C242 1.819 . S
H217 C231 0.941 . S
H218 C232 0.939 . S
H219 C234 0.940 . S
H220 C235 0.940 . S
H221 C237 0.939 . S
H222 C238 0.942 . S
H223 C240 0.940 . S
H224 C241 0.939 . S
H225 C243 0.941 . S
H226 C247 0.939 . S
O227 P216 1.490 . S
H228 C244 0.939 . S
H229 C246 0.940 . S
C230 P216 1.812 . S
C230 C231 1.389 . S
C230 C235 1.391 . S
C231 H217 0.941 . S
C231 C230 1.389 . S
C231 C232 1.397 . S
C232 H218 0.939 . S
C232 C231 1.397 . S
C232 C233 1.378 . S
C233 C232 1.378 . S
C233 C234 1.378 . S
C234 H219 0.940 . S
C234 C233 1.378 . S
C234 C235 1.396 . S
C235 H220 0.940 . S
C235 C230 1.391 . S
C235 C234 1.396 . S
C236 P216 1.803 1_655 S
C236 C237 1.378 . S
C236 C241 1.400 . S
C237 H221 0.939 . S
C237 C236 1.378 . S
C237 C238 1.361 . S
C238 H222 0.942 . S
C238 C237 1.361 . S
C238 C239 1.369 . S
C239 C238 1.369 . S
C239 C240 1.404 . S
C240 H223 0.940 . S
C240 C239 1.404 . S
C240 C241 1.389 . S
C241 H224 0.939 . S
C241 C236 1.400 . S
C241 C240 1.389 . S
C242 P216 1.819 . S
C242 C243 1.391 . S
C242 C247 1.391 1_455 S
C243 H225 0.941 . S
C243 C242 1.391 . S
C243 C244 1.396 . S
C244 H228 0.939 . S
C244 C243 1.396 . S
C244 C245 1.397 . S
C245 C244 1.397 . S
C245 C246 1.385 1_455 S
C246 H229 0.940 . S
C246 C245 1.385 1_655 S
C246 C247 1.388 . S
C247 H226 0.939 . S
C247 C242 1.391 1_655 S
C247 C246 1.388 . S
P248 O259 1.490 . S
P248 C262 1.812 . S
P248 C268 1.803 1_545 S
P248 C274 1.819 . S
H249 C263 0.941 . S
H250 C264 0.939 . S
H251 C266 0.940 . S
H252 C267 0.940 . S
H253 C269 0.940 . S
H254 C270 0.942 . S
H255 C272 0.940 . S
H256 C273 0.939 . S
H257 C275 0.941 . S
H258 C279 0.939 . S
O259 P248 1.490 . S
H260 C276 0.939 . S
H261 C278 0.940 . S
C262 P248 1.812 . S
C262 C263 1.389 . S
C262 C267 1.391 . S
C263 H249 0.941 . S
C263 C262 1.389 . S
C263 C264 1.397 . S
C264 H250 0.939 . S
C264 C263 1.397 . S
C264 C265 1.378 . S
C265 C264 1.378 . S
C265 C266 1.378 . S
C266 H251 0.940 . S
C266 C265 1.378 . S
C266 C267 1.396 . S
C267 H252 0.940 . S
C267 C262 1.391 . S
C267 C266 1.396 . S
C268 P248 1.803 1_565 S
C268 C269 1.378 . S
C268 C273 1.400 . S
C269 H253 0.940 . S
C269 C268 1.378 . S
C269 C270 1.361 . S
C270 H254 0.942 . S
C270 C269 1.361 . S
C270 C271 1.369 . S
C271 C270 1.369 . S
C271 C272 1.404 . S
C272 H255 0.940 . S
C272 C271 1.404 . S
C272 C273 1.389 . S
C273 H256 0.939 . S
C273 C268 1.400 . S
C273 C272 1.389 . S
C274 P248 1.819 . S
C274 C275 1.391 . S
C274 C279 1.391 1_545 S
C275 H257 0.941 . S
C275 C274 1.391 . S
C275 C276 1.396 . S
C276 H260 0.939 . S
C276 C275 1.396 . S
C276 C277 1.397 . S
C277 C276 1.397 . S
C277 C278 1.385 1_545 S
C278 H261 0.940 . S
C278 C277 1.385 1_565 S
C278 C279 1.388 . S
C279 H258 0.939 . S
C279 C274 1.391 1_565 S
C279 C278 1.388 . S
P280 O291 1.490 . S
P280 C294 1.812 . S
P280 C300 1.803 . S
P280 C306 1.819 . S
H281 C295 0.941 . S
H282 C296 0.939 . S
H283 C298 0.940 . S
H284 C299 0.940 . S
H285 C301 0.939 . S
H286 C302 0.942 . S
H287 C304 0.940 . S
H288 C305 0.939 . S
H289 C307 0.941 . S
H290 C311 0.939 . S
O291 P280 1.490 . S
H292 C308 0.939 . S
H293 C310 0.940 . S
C294 P280 1.812 . S
C294 C295 1.389 . S
C294 C299 1.391 . S
C295 H281 0.941 . S
C295 C294 1.389 . S
C295 C296 1.397 . S
C296 H282 0.939 . S
C296 C295 1.397 . S
C296 C297 1.378 . S
C297 C296 1.378 . S
C297 C298 1.378 . S
C298 H283 0.940 . S
C298 C297 1.378 . S
C298 C299 1.396 . S
C299 H284 0.940 . S
C299 C294 1.391 . S
C299 C298 1.396 . S
C300 P280 1.803 . S
C300 C301 1.378 . S
C300 C305 1.400 . S
C301 H285 0.939 . S
C301 C300 1.378 . S
C301 C302 1.361 . S
C302 H286 0.942 . S
C302 C301 1.361 . S
C302 C303 1.369 . S
C303 C302 1.369 . S
C303 C304 1.404 . S
C304 H287 0.940 . S
C304 C303 1.404 . S
C304 C305 1.389 . S
C305 H288 0.939 . S
C305 C300 1.400 . S
C305 C304 1.389 . S
C306 P280 1.819 . S
C306 C307 1.391 . S
C306 C311 1.391 . S
C307 H289 0.941 . S
C307 C306 1.391 . S
C307 C308 1.396 . S
C308 H292 0.939 . S
C308 C307 1.396 . S
C308 C309 1.397 . S
C309 C308 1.397 . S
C309 C310 1.385 . S
C310 H293 0.940 . S
C310 C309 1.385 . S
C310 C311 1.388 . S
C311 H290 0.939 . S
C311 C306 1.391 . S
C311 C310 1.388 . S
H312 C318 0.930 . S
H313 C322 0.930 . S
H314 C327 0.929 . S
H315 C325 0.929 . S
H316 C320 0.929 . S
H317 C326 0.929 . S
C318 H312 0.930 . S
C318 C319 1.367 . S
C318 C326 1.378 . S
C319 C318 1.367 . S
C319 C327 1.433 . S
C320 H316 0.929 . S
C320 C322 1.378 . S
C320 C324 1.350 . S
C321 C324 1.463 . S
C321 C326 1.350 . S
C321 N329 1.427 . S
C322 H313 0.930 . S
C322 C320 1.378 . S
C322 C323 1.367 . S
C323 C322 1.367 . S
C323 C325 1.433 . S
C324 C320 1.350 . S
C324 C321 1.463 . S
C324 N328 1.427 . S
C325 H315 0.929 . S
C325 C323 1.433 . S
C325 N328 1.384 . S
C326 H317 0.929 . S
C326 C318 1.378 . S
C326 C321 1.350 . S
C327 H314 0.929 . S
C327 C319 1.433 . S
C327 N329 1.384 . S
N328 C324 1.427 . S
N328 C325 1.384 . S
N329 C321 1.427 . S
N329 C327 1.384 . S
H330 C336 0.930 . S
H331 C340 0.930 . S
H332 C345 0.929 . S
H333 C343 0.929 . S
H334 C338 0.929 . S
H335 C344 0.929 . S
C336 H330 0.930 . S
C336 C337 1.367 . S
C336 C344 1.378 . S
C337 C336 1.367 . S
C337 C345 1.433 . S
C338 H334 0.929 . S
C338 C340 1.378 . S
C338 C342 1.350 . S
C339 C342 1.463 . S
C339 C344 1.350 . S
C339 N347 1.427 . S
C340 H331 0.930 . S
C340 C338 1.378 . S
C340 C341 1.367 . S
C341 C340 1.367 . S
C341 C343 1.433 . S
C342 C338 1.350 . S
C342 C339 1.463 . S
C342 N346 1.427 . S
C343 H333 0.929 . S
C343 C341 1.433 . S
C343 N346 1.384 . S
C344 H335 0.929 . S
C344 C336 1.378 . S
C344 C339 1.350 . S
C345 H332 0.929 . S
C345 C337 1.433 . S
C345 N347 1.384 . S
N346 C342 1.427 . S
N346 C343 1.384 . S
N347 C339 1.427 . S
N347 C345 1.384 . S
H348 C354 0.930 . S
H349 C358 0.930 . S
H350 C363 0.929 . S
H351 C361 0.929 . S
H352 C356 0.929 . S
H353 C362 0.929 . S
C354 H348 0.930 . S
C354 C355 1.367 . S
C354 C362 1.378 . S
C355 C354 1.367 . S
C355 C363 1.433 . S
C356 H352 0.929 . S
C356 C358 1.378 . S
C356 C360 1.350 . S
C357 C360 1.463 . S
C357 C362 1.350 . S
C357 N365 1.427 . S
C358 H349 0.930 . S
C358 C356 1.378 . S
C358 C359 1.367 . S
C359 C358 1.367 . S
C359 C361 1.433 . S
C360 C356 1.350 . S
C360 C357 1.463 . S
C360 N364 1.427 . S
C361 H351 0.929 . S
C361 C359 1.433 . S
C361 N364 1.384 . S
C362 H353 0.929 . S
C362 C354 1.378 . S
C362 C357 1.350 . S
C363 H350 0.929 . S
C363 C355 1.433 . S
C363 N365 1.384 . S
N364 C360 1.427 . S
N364 C361 1.384 . S
N365 C357 1.427 . S
N365 C363 1.384 . S
H366 C372 0.930 . S
H367 C376 0.930 . S
H368 C381 0.929 . S
H369 C379 0.929 . S
H370 C374 0.929 . S
H371 C380 0.929 . S
C372 H366 0.930 . S
C372 C373 1.367 . S
C372 C380 1.378 . S
C373 C372 1.367 . S
C373 C381 1.433 . S
C374 H370 0.929 . S
C374 C376 1.378 . S
C374 C378 1.350 . S
C375 C378 1.463 . S
C375 C380 1.350 . S
C375 N383 1.427 . S
C376 H367 0.930 . S
C376 C374 1.378 . S
C376 C377 1.367 . S
C377 C376 1.367 . S
C377 C379 1.433 . S
C378 C374 1.350 . S
C378 C375 1.463 . S
C378 N382 1.427 . S
C379 H369 0.929 . S
C379 C377 1.433 . S
C379 N382 1.384 . S
C380 H371 0.929 . S
C380 C372 1.378 . S
C380 C375 1.350 . S
C381 H368 0.929 . S
C381 C373 1.433 . S
C381 N383 1.384 . S
N382 C378 1.427 . S
N382 C379 1.384 . S
N383 C375 1.427 . S
N383 C381 1.384 . S
H384 C390 0.930 . S
H385 C394 0.930 . S
H386 C399 0.929 . S
H387 C397 0.929 . S
H388 C392 0.929 . S
H389 C398 0.929 . S
C390 H384 0.930 . S
C390 C391 1.367 . S
C390 C398 1.378 . S
C391 C390 1.367 . S
C391 C399 1.433 . S
C392 H388 0.929 . S
C392 C394 1.378 . S
C392 C396 1.350 . S
C393 C396 1.463 . S
C393 C398 1.350 . S
C393 N401 1.427 . S
C394 H385 0.930 . S
C394 C392 1.378 . S
C394 C395 1.367 . S
C395 C394 1.367 . S
C395 C397 1.433 . S
C396 C392 1.350 . S
C396 C393 1.463 . S
C396 N400 1.427 . S
C397 H387 0.929 . S
C397 C395 1.433 . S
C397 N400 1.384 . S
C398 H389 0.929 . S
C398 C390 1.378 . S
C398 C393 1.350 . S
C399 H386 0.929 . S
C399 C391 1.433 . S
C399 N401 1.384 . S
N400 C396 1.427 . S
N400 C397 1.384 . S
N401 C393 1.427 . S
N401 C399 1.384 . S
H402 C408 0.930 . S
H403 C412 0.930 . S
H404 C417 0.929 . S
H405 C415 0.929 . S
H406 C410 0.929 . S
H407 C416 0.929 . S
C408 H402 0.930 . S
C408 C409 1.367 . S
C408 C416 1.378 . S
C409 C408 1.367 . S
C409 C417 1.433 . S
C410 H406 0.929 . S
C410 C412 1.378 . S
C410 C414 1.350 . S
C411 C414 1.463 . S
C411 C416 1.350 . S
C411 N419 1.427 . S
C412 H403 0.930 . S
C412 C410 1.378 . S
C412 C413 1.367 . S
C413 C412 1.367 . S
C413 C415 1.433 . S
C414 C410 1.350 . S
C414 C411 1.463 . S
C414 N418 1.427 . S
C415 H405 0.929 . S
C415 C413 1.433 . S
C415 N418 1.384 . S
C416 H407 0.929 . S
C416 C408 1.378 . S
C416 C411 1.350 . S
C417 H404 0.929 . S
C417 C409 1.433 . S
C417 N419 1.384 . S
N418 C414 1.427 . S
N418 C415 1.384 . S
N419 C411 1.427 . S
N419 C417 1.384 . S
H420 C426 0.930 . S
H421 C430 0.930 . S
H422 C435 0.929 . S
H423 C433 0.929 . S
H424 C428 0.929 . S
H425 C434 0.929 . S
C426 H420 0.930 . S
C426 C427 1.367 . S
C426 C434 1.378 . S
C427 C426 1.367 . S
C427 C435 1.433 . S
C428 H424 0.929 . S
C428 C430 1.378 . S
C428 C432 1.350 . S
C429 C432 1.463 . S
C429 C434 1.350 . S
C429 N437 1.427 . S
C430 H421 0.930 . S
C430 C428 1.378 . S
C430 C431 1.367 . S
C431 C430 1.367 . S
C431 C433 1.433 . S
C432 C428 1.350 . S
C432 C429 1.463 . S
C432 N436 1.427 . S
C433 H423 0.929 . S
C433 C431 1.433 . S
C433 N436 1.384 . S
C434 H425 0.929 . S
C434 C426 1.378 . S
C434 C429 1.350 . S
C435 H422 0.929 . S
C435 C427 1.433 . S
C435 N437 1.384 . S
N436 C432 1.427 . S
N436 C433 1.384 . S
N437 C429 1.427 . S
N437 C435 1.384 . S
H438 C444 0.930 . S
H439 C448 0.930 . S
H440 C453 0.929 . S
H441 C451 0.929 . S
H442 C446 0.929 . S
H443 C452 0.929 . S
C444 H438 0.930 . S
C444 C445 1.367 . S
C444 C452 1.378 . S
C445 C444 1.367 . S
C445 C453 1.433 . S
C446 H442 0.929 . S
C446 C448 1.378 . S
C446 C450 1.350 . S
C447 C450 1.463 . S
C447 C452 1.350 . S
C447 N455 1.427 . S
C448 H439 0.930 . S
C448 C446 1.378 . S
C448 C449 1.367 . S
C449 C448 1.367 . S
C449 C451 1.433 . S
C450 C446 1.350 . S
C450 C447 1.463 . S
C450 N454 1.427 . S
C451 H441 0.929 . S
C451 C449 1.433 . S
C451 N454 1.384 . S
C452 H443 0.929 . S
C452 C444 1.378 . S
C452 C447 1.350 . S
C453 H440 0.929 . S
C453 C445 1.433 . S
C453 N455 1.384 . S
N454 C450 1.427 . S
N454 C451 1.384 . S
N455 C447 1.427 . S
N455 C453 1.384 . S
H456 C462 0.930 . S
H457 C466 0.930 . S
H458 C471 0.929 . S
H459 C469 0.929 . S
H460 C464 0.929 . S
H461 C470 0.929 . S
C462 H456 0.930 . S
C462 C463 1.367 . S
C462 C470 1.378 . S
C463 C462 1.367 . S
C463 C471 1.433 . S
C464 H460 0.929 . S
C464 C466 1.378 . S
C464 C468 1.350 . S
C465 C468 1.463 . S
C465 C470 1.350 . S
C465 N473 1.427 . S
C466 H457 0.930 . S
C466 C464 1.378 . S
C466 C467 1.367 . S
C467 C466 1.367 . S
C467 C469 1.433 . S
C468 C464 1.350 . S
C468 C465 1.463 . S
C468 N472 1.427 . S
C469 H459 0.929 . S
C469 C467 1.433 . S
C469 N472 1.384 . S
C470 H461 0.929 . S
C470 C462 1.378 . S
C470 C465 1.350 . S
C471 H458 0.929 . S
C471 C463 1.433 . S
C471 N473 1.384 . S
N472 C468 1.427 . S
N472 C469 1.384 . S
N473 C465 1.427 . S
N473 C471 1.384 . S
H474 C480 0.930 . S
H475 C484 0.930 . S
H476 C489 0.929 . S
H477 C487 0.929 . S
H478 C482 0.929 . S
H479 C488 0.929 . S
C480 H474 0.930 . S
C480 C481 1.367 . S
C480 C488 1.378 . S
C481 C480 1.367 . S
C481 C489 1.433 . S
C482 H478 0.929 . S
C482 C484 1.378 . S
C482 C486 1.350 . S
C483 C486 1.463 . S
C483 C488 1.350 . S
C483 N491 1.427 . S
C484 H475 0.930 . S
C484 C482 1.378 . S
C484 C485 1.367 . S
C485 C484 1.367 . S
C485 C487 1.433 . S
C486 C482 1.350 . S
C486 C483 1.463 . S
C486 N490 1.427 . S
C487 H477 0.929 . S
C487 C485 1.433 . S
C487 N490 1.384 . S
C488 H479 0.929 . S
C488 C480 1.378 . S
C488 C483 1.350 . S
C489 H476 0.929 . S
C489 C481 1.433 . S
C489 N491 1.384 . S
N490 C486 1.427 . S
N490 C487 1.384 . S
N491 C483 1.427 . S
N491 C489 1.384 . S
H492 C498 0.930 . S
H493 C502 0.930 . S
H494 C507 0.929 . S
H495 C505 0.929 . S
H496 C500 0.929 . S
H497 C506 0.929 . S
C498 H492 0.930 . S
C498 C499 1.367 . S
C498 C506 1.378 . S
C499 C498 1.367 . S
C499 C507 1.433 . S
C500 H496 0.929 . S
C500 C502 1.378 . S
C500 C504 1.350 . S
C501 C504 1.463 . S
C501 C506 1.350 . S
C501 N509 1.427 . S
C502 H493 0.930 . S
C502 C500 1.378 . S
C502 C503 1.367 . S
C503 C502 1.367 . S
C503 C505 1.433 . S
C504 C500 1.350 . S
C504 C501 1.463 . S
C504 N508 1.427 . S
C505 H495 0.929 . S
C505 C503 1.433 . S
C505 N508 1.384 . S
C506 H497 0.929 . S
C506 C498 1.378 . S
C506 C501 1.350 . S
C507 H494 0.929 . S
C507 C499 1.433 . S
C507 N509 1.384 . S
N508 C504 1.427 . S
N508 C505 1.384 . S
N509 C501 1.427 . S
N509 C507 1.384 . S
H510 C516 0.930 . S
H511 C520 0.930 . S
H512 C525 0.929 . S
H513 C523 0.929 . S
H514 C518 0.929 . S
H515 C524 0.929 . S
C516 H510 0.930 . S
C516 C517 1.367 . S
C516 C524 1.378 . S
C517 C516 1.367 . S
C517 C525 1.433 . S
C518 H514 0.929 . S
C518 C520 1.378 . S
C518 C522 1.350 . S
C519 C522 1.463 . S
C519 C524 1.350 . S
C519 N527 1.427 . S
C520 H511 0.930 . S
C520 C518 1.378 . S
C520 C521 1.367 . S
C521 C520 1.367 . S
C521 C523 1.433 . S
C522 C518 1.350 . S
C522 C519 1.463 . S
C522 N526 1.427 . S
C523 H513 0.929 . S
C523 C521 1.433 . S
C523 N526 1.384 . S
C524 H515 0.929 . S
C524 C516 1.378 . S
C524 C519 1.350 . S
C525 H512 0.929 . S
C525 C517 1.433 . S
C525 N527 1.384 . S
N526 C522 1.427 . S
N526 C523 1.384 . S
N527 C519 1.427 . S
N527 C525 1.384 . S
H528 C534 0.930 . S
H529 C538 0.930 . S
H530 C543 0.929 . S
H531 C541 0.929 . S
H532 C536 0.929 . S
H533 C542 0.929 . S
C534 H528 0.930 . S
C534 C535 1.367 . S
C534 C542 1.378 . S
C535 C534 1.367 . S
C535 C543 1.433 . S
C536 H532 0.929 . S
C536 C538 1.378 1_554 S
C536 C540 1.350 . S
C537 C540 1.463 . S
C537 C542 1.350 . S
C537 N545 1.427 . S
C538 H529 0.930 . S
C538 C536 1.378 1_556 S
C538 C539 1.367 . S
C539 C538 1.367 . S
C539 C541 1.433 . S
C540 C536 1.350 . S
C540 C537 1.463 . S
C540 N544 1.427 . S
C541 H531 0.929 . S
C541 C539 1.433 . S
C541 N544 1.384 1_556 S
C542 H533 0.929 . S
C542 C534 1.378 . S
C542 C537 1.350 . S
C543 H530 0.929 . S
C543 C535 1.433 . S
C543 N545 1.384 . S
N544 C540 1.427 . S
N544 C541 1.384 1_554 S
N545 C537 1.427 . S
N545 C543 1.384 . S
H546 C552 0.930 . S
H547 C556 0.930 . S
H548 C561 0.929 . S
H549 C559 0.929 . S
H550 C554 0.929 . S
H551 C560 0.929 . S
C552 H546 0.930 . S
C552 C553 1.367 1_565 S
C552 C560 1.378 . S
C553 C552 1.367 1_545 S
C553 C561 1.433 . S
C554 H550 0.929 . S
C554 C556 1.378 . S
C554 C558 1.350 . S
C555 C558 1.463 . S
C555 C560 1.350 1_545 S
C555 N563 1.427 . S
C556 H547 0.930 . S
C556 C554 1.378 . S
C556 C557 1.367 . S
C557 C556 1.367 . S
C557 C559 1.433 1_545 S
C558 C554 1.350 . S
C558 C555 1.463 . S
C558 N562 1.427 1_545 S
C559 H549 0.929 . S
C559 C557 1.433 1_565 S
C559 N562 1.384 . S
C560 H551 0.929 . S
C560 C552 1.378 . S
C560 C555 1.350 1_565 S
C561 H548 0.929 . S
C561 C553 1.433 . S
C561 N563 1.384 . S
N562 C558 1.427 1_565 S
N562 C559 1.384 . S
N563 C555 1.427 . S
N563 C561 1.384 . S
H564 C570 0.930 . S
H565 C574 0.930 . S
H566 C579 0.929 . S
H567 C577 0.929 . S
H568 C572 0.929 . S
H569 C578 0.929 . S
C570 H564 0.930 . S
C570 C571 1.367 . S
C570 C578 1.378 . S
C571 C570 1.367 . S
C571 C579 1.433 . S
C572 H568 0.929 . S
C572 C574 1.378 . S
C572 C576 1.350 . S
C573 C576 1.463 . S
C573 C578 1.350 . S
C573 N581 1.427 . S
C574 H565 0.930 . S
C574 C572 1.378 . S
C574 C575 1.367 . S
C575 C574 1.367 . S
C575 C577 1.433 . S
C576 C572 1.350 . S
C576 C573 1.463 . S
C576 N580 1.427 . S
C577 H567 0.929 . S
C577 C575 1.433 . S
C577 N580 1.384 . S
C578 H569 0.929 . S
C578 C570 1.378 . S
C578 C573 1.350 . S
C579 H566 0.929 . S
C579 C571 1.433 . S
C579 N581 1.384 . S
N580 C576 1.427 . S
N580 C577 1.384 . S
N581 C573 1.427 . S
N581 C579 1.384 . S
H582 C588 0.930 . S
H583 C592 0.930 . S
H584 C597 0.929 . S
H585 C595 0.929 . S
H586 C590 0.929 . S
H587 C596 0.929 . S
C588 H582 0.930 . S
C588 C589 1.367 1_565 S
C588 C596 1.378 . S
C589 C588 1.367 1_545 S
C589 C597 1.433 . S
C590 H586 0.929 . S
C590 C592 1.378 . S
C590 C594 1.350 . S
C591 C594 1.463 . S
C591 C596 1.350 1_545 S
C591 N599 1.427 . S
C592 H583 0.930 . S
C592 C590 1.378 . S
C592 C593 1.357 1_545 S
C593 C592 1.357 1_565 S
C593 C595 1.442 . S
C594 C590 1.350 . S
C594 C591 1.463 . S
C594 N598 1.427 1_545 S
C595 H585 0.929 . S
C595 C593 1.442 . S
C595 N598 1.384 . S
C596 H587 0.929 . S
C596 C588 1.378 . S
C596 C591 1.350 1_565 S
C597 H584 0.929 . S
C597 C589 1.433 . S
C597 N599 1.384 . S
N598 C594 1.427 1_565 S
N598 C595 1.384 . S
N599 C591 1.427 . S
N599 C597 1.384 . S
H600 C606 0.930 . S
H601 C610 0.930 . S
H602 C615 0.929 . S
H603 C613 0.929 1_554 S
H604 C608 0.929 . S
H605 C614 0.929 . S
C606 H600 0.930 . S
C606 C607 1.367 . S
C606 C614 1.378 . S
C607 C606 1.367 . S
C607 C615 1.433 . S
C608 H604 0.929 . S
C608 C610 1.378 . S
C608 C612 1.350 . S
C609 C612 1.463 . S
C609 C614 1.350 . S
C609 N617 1.427 . S
C610 H601 0.930 . S
C610 C608 1.378 . S
C610 C611 1.367 1_556 S
C611 C610 1.367 1_554 S
C611 C613 1.433 1_554 S
C612 C608 1.350 . S
C612 C609 1.463 . S
C612 N616 1.427 . S
C613 H603 0.929 1_556 S
C613 C611 1.433 1_556 S
C613 N616 1.384 . S
C614 H605 0.929 . S
C614 C606 1.378 . S
C614 C609 1.350 . S
C615 H602 0.929 . S
C615 C607 1.433 . S
C615 N617 1.384 . S
N616 C612 1.427 . S
N616 C613 1.384 . S
N617 C609 1.427 . S
N617 C615 1.384 . S
H618 C624 0.930 . S
H619 C628 0.930 . S
H620 C633 0.929 . S
H621 C631 0.929 . S
H622 C626 0.929 . S
H623 C632 0.929 . S
C624 H618 0.930 . S
C624 C625 1.367 . S
C624 C632 1.378 . S
C625 C624 1.367 . S
C625 C633 1.433 . S
C626 H622 0.929 . S
C626 C628 1.378 . S
C626 C630 1.350 . S
C627 C630 1.463 . S
C627 C632 1.350 . S
C627 N635 1.427 . S
C628 H619 0.930 . S
C628 C626 1.378 . S
C628 C629 1.367 . S
C629 C628 1.367 . S
C629 C631 1.433 1_455 S
C630 C626 1.350 . S
C630 C627 1.463 . S
C630 N634 1.427 . S
C631 H621 0.929 . S
C631 C629 1.433 1_655 S
C631 N634 1.384 1_655 S
C632 H623 0.929 . S
C632 C624 1.378 . S
C632 C627 1.350 . S
C633 H620 0.929 . S
C633 C625 1.433 . S
C633 N635 1.384 . S
N634 C630 1.427 . S
N634 C631 1.384 1_455 S
N635 C627 1.427 . S
N635 C633 1.384 . S
C319 C7 0.656 . S
C323 C303 0.619 . S
C337 C51 1.891 . S
C341 C239 1.830 . S
C355 C87 1.242 . S
C359 C271 1.234 . S
C373 C16 0.465 . S
C377 C297 0.410 . S
C395 C233 1.925 . S
C391 C42 1.980 . S
C413 C265 1.308 . S
C409 C96 1.312 . S
C427 C47 1.203 . S
C431 C175 1.222 . S
C445 C91 3.063 . S
C449 C207 2.985 . S
C463 C2 2.018 . S
C467 C137 1.962 . S
C485 C169 1.298 . S
C481 C56 1.307 . S
C503 C201 2.943 . S
C499 C82 2.981 . S
C517 C11 1.883 . S
C521 C143 1.840 . S
C539 C213 1.737 . S
C535 C19 1.715 . S
C553 C50 1.342 . S
C557 C149 1.355 . S
C571 C99 1.464 . S
C575 C181 1.482 . S
C593 C277 1.453 1_565 S
C589 C59 1.458 . S
C611 C309 1.109 . S
C607 C90 1.104 . S
C625 C10 1.333 . S
C629 C245 1.345 . S
