# Generated by pormake.
# Topology zzz, (3,6)-cn, num edge types: 1
# Building blocks:
#     Node 0, Type 0, BuildingBlock: KAKCAD_clean_linker_0, # of connection points: 3
#     Node 1, Type 0, BuildingBlock: KAKCAD_clean_linker_0, # of connection points: 3
#     Node 2, Type 0, BuildingBlock: KAKCAD_clean_linker_0, # of connection points: 3
#     Node 3, Type 0, BuildingBlock: KAKCAD_clean_linker_0, # of connection points: 3
#     Node 4, Type 0, BuildingBlock: KAKCAD_clean_linker_0, # of connection points: 3
#     Node 5, Type 0, BuildingBlock: KAKCAD_clean_linker_0, # of connection points: 3
#     Node 6, Type 0, BuildingBlock: KAKCAD_clean_linker_0, # of connection points: 3
#     Node 7, Type 0, BuildingBlock: KAKCAD_clean_linker_0, # of connection points: 3
#     Node 8, Type 1, BuildingBlock: LEVNOQ01_clean_sbu_1, # of connection points: 6
#     Node 9, Type 1, BuildingBlock: LEVNOQ01_clean_sbu_1, # of connection points: 6
#     Node 10, Type 1, BuildingBlock: LEVNOQ01_clean_sbu_1, # of connection points: 6
#     Node 11, Type 1, BuildingBlock: LEVNOQ01_clean_sbu_1, # of connection points: 6
#     Edge 12, Type (0, 1), BuildingBlock: OJICUG_clean_linker_0, # of connection points: 2
#     Edge 13, Type (0, 1), BuildingBlock: OJICUG_clean_linker_0, # of connection points: 2
#     Edge 14, Type (0, 1), BuildingBlock: OJICUG_clean_linker_0, # of connection points: 2
#     Edge 15, Type (0, 1), BuildingBlock: OJICUG_clean_linker_0, # of connection points: 2
#     Edge 16, Type (0, 1), BuildingBlock: OJICUG_clean_linker_0, # of connection points: 2
#     Edge 17, Type (0, 1), BuildingBlock: OJICUG_clean_linker_0, # of connection points: 2
#     Edge 18, Type (0, 1), BuildingBlock: OJICUG_clean_linker_0, # of connection points: 2
#     Edge 19, Type (0, 1), BuildingBlock: OJICUG_clean_linker_0, # of connection points: 2
#     Edge 20, Type (0, 1), BuildingBlock: OJICUG_clean_linker_0, # of connection points: 2
#     Edge 21, Type (0, 1), BuildingBlock: OJICUG_clean_linker_0, # of connection points: 2
#     Edge 22, Type (0, 1), BuildingBlock: OJICUG_clean_linker_0, # of connection points: 2
#     Edge 23, Type (0, 1), BuildingBlock: OJICUG_clean_linker_0, # of connection points: 2
#     Edge 24, Type (0, 1), BuildingBlock: OJICUG_clean_linker_0, # of connection points: 2
#     Edge 25, Type (0, 1), BuildingBlock: OJICUG_clean_linker_0, # of connection points: 2
#     Edge 26, Type (0, 1), BuildingBlock: OJICUG_clean_linker_0, # of connection points: 2
#     Edge 27, Type (0, 1), BuildingBlock: OJICUG_clean_linker_0, # of connection points: 2
#     Edge 28, Type (0, 1), BuildingBlock: OJICUG_clean_linker_0, # of connection points: 2
#     Edge 29, Type (0, 1), BuildingBlock: OJICUG_clean_linker_0, # of connection points: 2
#     Edge 30, Type (0, 1), BuildingBlock: OJICUG_clean_linker_0, # of connection points: 2
#     Edge 31, Type (0, 1), BuildingBlock: OJICUG_clean_linker_0, # of connection points: 2
#     Edge 32, Type (0, 1), BuildingBlock: OJICUG_clean_linker_0, # of connection points: 2
#     Edge 33, Type (0, 1), BuildingBlock: OJICUG_clean_linker_0, # of connection points: 2
#     Edge 34, Type (0, 1), BuildingBlock: OJICUG_clean_linker_0, # of connection points: 2
#     Edge 35, Type (0, 1), BuildingBlock: OJICUG_clean_linker_0, # of connection points: 2
# Relax obj value: 0.304
# Max RMSD: 0.218
# Mean RMSD: 0.206
data_MOF--net-zzz--node1-LEVNOQ01_clean_sbu_1--node2-KAKCAD_clean_linker_0--edge1-OJICUG_clean_linker_0
_symmetry_space_group_name_H-M    P1
_symmetry_Int_Tables_number       1
_symmetry_cell_setting            triclinic
loop_
_symmetry_equiv_pos_as_xyz
'x, y, z'
_cell_length_a     42.460743
_cell_length_b     44.614628
_cell_length_c     16.413273
_cell_angle_alpha  89.71626
_cell_angle_beta   90.00622
_cell_angle_gamma 88.442819
loop_
_atom_site_label
_atom_site_type_symbol
_atom_site_fract_x
_atom_site_fract_y
_atom_site_fract_z
_atom_type_partial_charge
C0 C 0.86272 0.63337 0.00633 0.0
C1 C 0.8582 0.60631 0.96488 0.0
C2 C 0.83723 0.64826 0.04389 0.0
C3 C 0.80699 0.63614 0.04084 0.0
C4 C 0.80192 0.61188 0.98864 0.0
C5 C 0.82724 0.59693 0.95194 0.0
C6 C 0.78461 0.64069 0.10935 0.0
C7 C 0.75217 0.63791 0.09626 0.0
C8 C 0.73262 0.62613 0.15728 0.0
C9 C 0.74614 0.61851 0.2338 0.0
C10 C 0.77825 0.62347 0.2489 0.0
C11 C 0.79667 0.63608 0.18789 0.0
C12 C 0.79573 0.60777 0.31516 0.0
C13 C 0.80479 0.62289 0.38582 0.0
C14 C 0.80982 0.57973 0.29771 0.0
C15 C 0.83292 0.56718 0.3489 0.0
C16 C 0.84242 0.58222 0.41956 0.0
C17 C 0.70081 0.6157 0.13266 0.0
C18 C 0.68215 0.63246 0.07671 0.0
C19 C 0.6917 0.5865 0.15248 0.0
C20 C 0.66675 0.57339 0.11136 0.0
C21 C 0.6504 0.58902 0.04896 0.0
C22 C 0.65723 0.61924 0.03517 0.0
C23 C 0.82778 0.61011 0.43802 0.0
H24 H 0.88615 0.64186 0.01468 0.0
H25 H 0.84172 0.66726 0.08262 0.0
H26 H 0.77908 0.60175 0.98471 0.0
H27 H 0.82255 0.57626 0.92051 0.0
H28 H 0.74321 0.64077 0.03477 0.0
H29 H 0.82189 0.63705 0.19802 0.0
H30 H 0.73239 0.6071 0.27943 0.0
H31 H 0.79494 0.64499 0.39899 0.0
H32 H 0.80419 0.56826 0.2417 0.0
H33 H 0.84411 0.54607 0.33146 0.0
H34 H 0.68823 0.65517 0.06078 0.0
H35 H 0.70544 0.57274 0.19464 0.0
H36 H 0.83431 0.62217 0.49228 0.0
H37 H 0.64509 0.63194 0.9877 0.0
H38 H 0.6617 0.55018 0.12438 0.0
C39 C 0.99298 0.85514 0.99002 0.0
C40 C 0.02345 0.86575 0.00362 0.0
C41 C 0.98437 0.82756 0.02196 0.0
C42 C 0.00625 0.81032 0.06693 0.0
C43 C 0.03749 0.81935 0.07317 0.0
C44 C 0.04609 0.84693 0.04168 0.0
C45 C 0.99504 0.78811 0.12485 0.0
C46 C 0.98706 0.75948 0.1009 0.0
C47 C 0.97832 0.73804 0.15922 0.0
C48 C 0.97737 0.74607 0.24293 0.0
C49 C 0.98455 0.77567 0.26602 0.0
C50 C 0.9933 0.79618 0.20638 0.0
C51 C 0.98434 0.78727 0.35048 0.0
C52 C 0.95732 0.80292 0.37845 0.0
C53 C 0.01346 0.79328 0.38665 0.0
C54 C 0.01598 0.81621 0.44408 0.0
C55 C 0.98934 0.83369 0.46742 0.0
C56 C 0.97376 0.70711 0.12909 0.0
C57 C 0.95367 0.70278 0.06215 0.0
C58 C 0.99576 0.68431 0.14961 0.0
C59 C 1.0003 0.65956 0.0982 0.0
C60 C 0.98303 0.65726 0.02509 0.0
C61 C 0.95823 0.67811 0.01066 0.0
C62 C 0.95975 0.82577 0.43651 0.0
H63 H 0.97534 0.86884 0.95852 0.0
H64 H 0.96008 0.82089 0.01739 0.0
H65 H 0.05451 0.80624 0.10857 0.0
H66 H 0.06976 0.8544 0.05268 0.0
H67 H 0.98899 0.75354 0.03703 0.0
H68 H 0.99923 0.81881 0.2238 0.0
H69 H 0.97132 0.72968 0.28881 0.0
H70 H 0.93473 0.79943 0.34981 0.0
H71 H 0.03485 0.78243 0.364 0.0
H72 H 0.03929 0.82167 0.46509 0.0
H73 H 0.93655 0.72012 0.04484 0.0
H74 H 0.01168 0.68712 0.20044 0.0
H75 H 0.93861 0.83823 0.45395 0.0
H76 H 0.94436 0.67712 0.95542 0.0
H77 H 0.01906 0.64344 0.1124 0.0
C78 C 0.64508 0.89277 0.03253 0.0
C79 C 0.64884 0.91782 0.9816 0.0
C80 C 0.67116 0.87977 0.07263 0.0
C81 C 0.70119 0.89189 0.06277 0.0
C82 C 0.70535 0.91408 0.00308 0.0
C83 C 0.67947 0.92706 0.96349 0.0
C84 C 0.72501 0.88912 0.12856 0.0
C85 C 0.75711 0.89116 0.11039 0.0
C86 C 0.77839 0.90241 0.16774 0.0
C87 C 0.76696 0.91073 0.24574 0.0
C88 C 0.73514 0.90623 0.2663 0.0
C89 C 0.71486 0.89452 0.20825 0.0
C90 C 0.71984 0.9192 0.3396 0.0
C91 C 0.70504 0.90018 0.39541 0.0
C92 C 0.71144 0.94985 0.33912 0.0
C93 C 0.68734 0.96095 0.38983 0.0
C94 C 0.67134 0.94166 0.44269 0.0
C95 C 0.81051 0.90999 0.13839 0.0
C96 C 0.82688 0.89035 0.08531 0.0
C97 C 0.82213 0.93888 0.14982 0.0
C98 C 0.84771 0.94873 0.10368 0.0
C99 C 0.86205 0.92996 0.0449 0.0
C100 C 0.85217 0.90027 0.03871 0.0
C101 C 0.68127 0.91135 0.44713 0.0
H102 H 0.62185 0.88452 0.04559 0.0
H103 H 0.66737 0.86229 0.11733 0.0
H104 H 0.72799 0.92421 0.99401 0.0
H105 H 0.68347 0.94634 0.92492 0.0
H106 H 0.76474 0.88737 0.04815 0.0
H107 H 0.68991 0.8939 0.22237 0.0
H108 H 0.78231 0.92134 0.28899 0.0
H109 H 0.71035 0.87629 0.39494 0.0
H110 H 0.72173 0.96478 0.29482 0.0
H111 H 0.68052 0.98448 0.38584 0.0
H112 H 0.81876 0.86782 0.07578 0.0
H113 H 0.80993 0.9547 0.18937 0.0
H114 H 0.66938 0.89592 0.48706 0.0
H115 H 0.86298 0.88517 0.99472 0.0
H116 H 0.85462 0.97182 0.10952 0.0
C117 C 0.49537 0.71272 0.45348 0.0
C118 C 0.51796 0.68939 0.46746 0.0
C119 C 0.50102 0.73567 0.39678 0.0
C120 C 0.52956 0.73617 0.35372 0.0
C121 C 0.55346 0.71509 0.37498 0.0
C122 C 0.5477 0.6919 0.43049 0.0
C123 C 0.52974 0.74881 0.26973 0.0
C124 C 0.52927 0.77979 0.24936 0.0
C125 C 0.52747 0.78867 0.1661 0.0
C126 C 0.52409 0.76676 0.10585 0.0
C127 C 0.52381 0.73659 0.12673 0.0
C128 C 0.52743 0.72774 0.2075 0.0
C129 C 0.51411 0.71402 0.06861 0.0
C130 C 0.48185 0.71116 0.05441 0.0
C131 C 0.53532 0.69096 0.04648 0.0
C132 C 0.52408 0.66428 0.01565 0.0
C133 C 0.49143 0.66004 0.0093 0.0
C134 C 0.52656 0.82024 0.13706 0.0
C135 C 0.49855 0.83742 0.14402 0.0
C136 C 0.54922 0.8291 0.07982 0.0
C137 C 0.54262 0.8525 0.02469 0.0
C138 C 0.5131 0.86758 0.02543 0.0
C139 C 0.49194 0.86094 0.08901 0.0
C140 C 0.4705 0.68424 0.02572 0.0
H141 H 0.47251 0.71235 0.48256 0.0
H142 H 0.48192 0.75118 0.38072 0.0
H143 H 0.57543 0.71445 0.34137 0.0
H144 H 0.5658 0.67461 0.43865 0.0
H145 H 0.53039 0.79649 0.29683 0.0
H146 H 0.52618 0.70407 0.22269 0.0
H147 H 0.52053 0.77328 0.04264 0.0
H148 H 0.4652 0.7287 0.0728 0.0
H149 H 0.56031 0.69287 0.05808 0.0
H150 H 0.54096 0.64657 0.00034 0.0
H151 H 0.48048 0.83083 0.18659 0.0
H152 H 0.5708 0.81588 0.07226 0.0
H153 H 0.44525 0.68192 0.02187 0.0
H154 H 0.4693 0.87261 0.09297 0.0
H155 H 0.55955 0.85685 0.97705 0.0
C156 C 0.17361 0.41771 0.51139 0.0
C157 C 0.14262 0.41207 0.48693 0.0
C158 C 0.19896 0.4033 0.47346 0.0
C159 C 0.19391 0.38325 0.40915 0.0
C160 C 0.16304 0.37359 0.39553 0.0
C161 C 0.13747 0.38825 0.43333 0.0
C162 C 0.21792 0.38142 0.34305 0.0
C163 C 0.24983 0.38458 0.36173 0.0
C164 C 0.26988 0.39945 0.30782 0.0
C165 C 0.25871 0.4077 0.22957 0.0
C166 C 0.22755 0.40112 0.20636 0.0
C167 C 0.20783 0.38747 0.26327 0.0
C168 C 0.21212 0.41377 0.13166 0.0
C169 C 0.21356 0.44455 0.11421 0.0
C170 C 0.19019 0.39664 0.08893 0.0
C171 C 0.16869 0.41028 0.03476 0.0
C172 C 0.1689 0.44135 0.02083 0.0
C173 C 0.29857 0.41249 0.34353 0.0
C174 C 0.29469 0.43181 0.41029 0.0
C175 C 0.32922 0.40343 0.32011 0.0
C176 C 0.35543 0.41255 0.36564 0.0
C177 C 0.35107 0.4304 0.4355 0.0
C178 C 0.3205 0.4405 0.45579 0.0
C179 C 0.19224 0.45816 0.05928 0.0
H180 H 0.17868 0.43568 0.55307 0.0
H181 H 0.22219 0.41128 0.48728 0.0
H182 H 0.15839 0.35728 0.34869 0.0
H183 H 0.11378 0.38255 0.4159 0.0
H184 H 0.25793 0.37964 0.42315 0.0
H185 H 0.18305 0.38589 0.24864 0.0
H186 H 0.27336 0.42067 0.18934 0.0
H187 H 0.22963 0.45851 0.14719 0.0
H188 H 0.18846 0.37285 0.10116 0.0
H189 H 0.15149 0.39658 0.00496 0.0
H190 H 0.27134 0.43935 0.42923 0.0
H191 H 0.33276 0.38843 0.26906 0.0
H192 H 0.19303 0.48219 0.05012 0.0
H193 H 0.31647 0.45487 0.508 0.0
H194 H 0.37885 0.40478 0.34827 0.0
C195 C 0.99607 0.183 0.44467 0.0
C196 C 0.01202 0.15496 0.44332 0.0
C197 C 0.01048 0.20846 0.41569 0.0
C198 C 0.04081 0.20647 0.38201 0.0
C199 C 0.0578 0.1791 0.38559 0.0
C200 C 0.04369 0.15363 0.41729 0.0
C201 C 0.04978 0.2303 0.32492 0.0
C202 C 0.04543 0.2602 0.34762 0.0
C203 C 0.03746 0.2823 0.28955 0.0
C204 C 0.03531 0.27416 0.20635 0.0
C205 C 0.04273 0.24426 0.18262 0.0
C206 C 0.05094 0.22298 0.24247 0.0
C207 C 0.03578 0.23183 0.1009 0.0
C208 C 1.00437 0.22622 0.08058 0.0
C209 C 0.0599 0.21637 0.0584 0.0
C210 C 0.05284 0.19417 0.00155 0.0
C211 C 0.02141 0.18661 0.98621 0.0
C212 C 0.02509 0.31125 0.32241 0.0
C213 C 0.99717 0.31082 0.36797 0.0
C214 C 0.04426 0.33632 0.32848 0.0
C215 C 0.03617 0.35997 0.38184 0.0
C216 C 0.00907 0.35866 0.43158 0.0
C217 C 0.98951 0.33382 0.42229 0.0
C218 C 0.99725 0.20386 0.02411 0.0
H219 H 0.97165 0.18527 0.46282 0.0
H220 H 0.99655 0.22915 0.41207 0.0
H221 H 0.08117 0.17708 0.35939 0.0
H222 H 0.05726 0.13274 0.41815 0.0
H223 H 0.04408 0.26558 0.41201 0.0
H224 H 0.05339 0.19955 0.22537 0.0
H225 H 0.02664 0.29033 0.16171 0.0
H226 H 0.98529 0.23701 0.11422 0.0
H227 H 0.08433 0.21972 0.07424 0.0
H228 H 0.07212 0.182 0.97245 0.0
H229 H 0.98248 0.29132 0.36647 0.0
H230 H 0.06634 0.33685 0.29554 0.0
H231 H 0.97274 0.19871 0.01491 0.0
H232 H 0.96901 0.33094 0.46032 0.0
H233 H 0.05168 0.37876 0.38572 0.0
C234 C 0.34237 0.11714 0.50795 0.0
C235 C 0.37224 0.12185 0.47451 0.0
C236 C 0.31555 0.1293 0.47011 0.0
C237 C 0.31831 0.14653 0.39843 0.0
C238 C 0.34848 0.15604 0.3757 0.0
C239 C 0.37532 0.14291 0.41165 0.0
C240 C 0.29277 0.14519 0.33629 0.0
C241 C 0.26135 0.14204 0.36016 0.0
C242 C 0.24018 0.12603 0.31172 0.0
C243 C 0.25 0.11665 0.23311 0.0
C244 C 0.28044 0.12312 0.20462 0.0
C245 C 0.30124 0.13757 0.25649 0.0
C246 C 0.29424 0.11022 0.12878 0.0
C247 C 0.29566 0.07904 0.11782 0.0
C248 C 0.31319 0.12821 0.07929 0.0
C249 C 0.33518 0.11524 0.02579 0.0
C250 C 0.3385 0.08388 0.01926 0.0
C251 C 0.21034 0.11529 0.34946 0.0
C252 C 0.20994 0.10747 0.43289 0.0
C253 C 0.18275 0.11123 0.30344 0.0
C254 C 0.15586 0.09915 0.33978 0.0
C255 C 0.15602 0.09144 0.42287 0.0
C256 C 0.18311 0.09606 0.46903 0.0
C257 C 0.31746 0.06601 0.06341 0.0
H258 H 0.33941 0.10122 0.55728 0.0
H259 H 0.29295 0.12169 0.49102 0.0
H260 H 0.35145 0.17046 0.32316 0.0
H261 H 0.39819 0.14735 0.38599 0.0
H262 H 0.25445 0.14944 0.42046 0.0
H263 H 0.32557 0.13911 0.23746 0.0
H264 H 0.23482 0.10319 0.19595 0.0
H265 H 0.28168 0.06457 0.15576 0.0
H266 H 0.31281 0.15233 0.08702 0.0
H267 H 0.35087 0.12989 0.99353 0.0
H268 H 0.23081 0.1089 0.47037 0.0
H269 H 0.18207 0.11693 0.23927 0.0
H270 H 0.31859 0.04182 0.05836 0.0
H271 H 0.18403 0.08939 0.53261 0.0
H272 H 0.13532 0.09508 0.30273 0.0
C273 C 0.47335 0.32139 0.00802 0.0
C274 C 0.50186 0.33108 0.97445 0.0
C275 C 0.47309 0.29714 0.06283 0.0
C276 C 0.50126 0.28194 0.08507 0.0
C277 C 0.52926 0.28985 0.04609 0.0
C278 C 0.52961 0.31411 0.99165 0.0
C279 C 0.50365 0.26887 0.16795 0.0
C280 C 0.50117 0.2381 0.18755 0.0
C281 C 0.50368 0.22874 0.27013 0.0
C282 C 0.50866 0.25007 0.33121 0.0
C283 C 0.51101 0.28024 0.31088 0.0
C284 C 0.50869 0.28939 0.23002 0.0
C285 C 0.51356 0.30357 0.37236 0.0
C286 C 0.48716 0.32227 0.38577 0.0
C287 C 0.54329 0.31223 0.39886 0.0
C288 C 0.54682 0.34041 0.4339 0.0
C289 C 0.52072 0.36041 0.44098 0.0
C290 C 0.50096 0.19724 0.29721 0.0
C291 C 0.47274 0.18822 0.33331 0.0
C292 C 0.52849 0.17977 0.31013 0.0
C293 C 0.5283 0.15497 0.36286 0.0
C294 C 0.50059 0.14734 0.40457 0.0
C295 C 0.47255 0.16352 0.38639 0.0
C296 C 0.4907 0.35053 0.41889 0.0
H297 H 0.45143 0.33346 0.99526 0.0
H298 H 0.45132 0.29218 0.09393 0.0
H299 H 0.55149 0.27936 0.06443 0.0
H300 H 0.55217 0.32092 0.96824 0.0
H301 H 0.49724 0.22188 0.13999 0.0
H302 H 0.51039 0.31308 0.2153 0.0
H303 H 0.51017 0.24324 0.39467 0.0
H304 H 0.46417 0.31605 0.36384 0.0
H305 H 0.56397 0.29812 0.38738 0.0
H306 H 0.57013 0.34691 0.45235 0.0
H307 H 0.45137 0.20179 0.32588 0.0
H308 H 0.55073 0.18683 0.2851 0.0
H309 H 0.47002 0.3652 0.42194 0.0
H310 H 0.45088 0.15821 0.41719 0.0
H311 H 0.55047 0.14339 0.3761 0.0
O312 O 0.06855 0.98888 0.84413 0.0
Mg313 Mg 0.05797 0.986 0.71982 0.0
O314 O 0.01778 0.98537 0.83089 0.0
Mg315 Mg 1.00123 0.01237 0.71732 0.0
O316 O 0.05005 0.02408 0.65072 0.0
O317 O 0.09516 0.9963 0.65167 0.0
O318 O 0.98372 0.03936 0.60758 0.0
O319 O 1.00566 0.05773 0.79182 0.0
Mg320 Mg 0.9361 0.04228 0.72672 0.0
O321 O 0.95232 1.00232 0.77609 0.0
O322 O 0.93262 0.04612 0.59895 0.0
O323 O 0.9576 0.07861 0.7865 0.0
O324 O 0.90236 0.01932 0.78729 0.0
C325 C 0.01371 0.94393 0.64323 0.0
C326 C 0.04261 0.98076 0.87284 0.0
C327 C 0.07893 0.0192 0.62544 0.0
C328 C 0.9597 0.04892 0.56848 0.0
C329 C 0.98635 0.0796 0.80767 0.0
C330 C 0.92393 0.99937 0.80459 0.0
O331 O 0.04028 0.94488 0.6779 0.0
O332 O 0.99558 0.96732 0.64268 0.0
O333 O 0.41912 0.00762 0.77106 0.0
Mg334 Mg 0.4378 0.97779 0.68003 0.0
O335 O 0.46304 0.02969 0.81358 0.0
Mg336 Mg 0.50328 0.01064 0.72778 0.0
O337 O 0.47988 0.96572 0.73233 0.0
O338 O 0.44396 0.93211 0.71225 0.0
O339 O 0.54376 0.99186 0.64248 0.0
O340 O 0.53344 0.99387 0.83472 0.0
Mg341 Mg 0.56904 0.04921 0.76754 0.0
O342 O 0.5257 0.05475 0.722 0.0
O343 O 0.58682 0.01616 0.68243 0.0
O344 O 0.56093 0.03058 0.88594 0.0
O345 O 0.55693 0.09248 0.71675 0.0
C346 C 0.45492 0.02454 0.56691 0.0
C347 C 0.4332 0.02577 0.81747 0.0
C348 C 0.47014 0.93902 0.74638 0.0
C349 C 0.5735 0.9965 0.63894 0.0
C350 C 0.55215 0.00355 0.88848 0.0
C351 C 0.53116 0.08081 0.69299 0.0
O352 O 0.4416 0.99945 0.56318 0.0
O353 O 0.4746 0.0292 0.62304 0.0
O354 O 0.5441 0.44735 0.77012 0.0
Mg355 Mg 0.55908 0.48783 0.71726 0.0
O356 O 0.49871 0.46764 0.80941 0.0
Mg357 Mg 0.50116 0.51292 0.73276 0.0
O358 O 0.55161 0.52542 0.79013 0.0
O359 O 0.59823 0.50126 0.77125 0.0
O360 O 0.50375 0.55827 0.65593 0.0
O361 O 0.48326 0.5402 0.84264 0.0
Mg362 Mg 0.43525 0.54051 0.71796 0.0
O363 O 0.45231 0.5003 0.67651 0.0
O364 O 0.45468 0.5766 0.65203 0.0
O365 O 0.43161 0.54456 0.84461 0.0
O366 O 0.40204 0.51622 0.66183 0.0
C367 C 0.53709 0.47778 0.57293 0.0
C368 C 0.51819 0.44519 0.80762 0.0
C369 C 0.58177 0.52229 0.80597 0.0
C370 C 0.48363 0.57879 0.63425 0.0
C371 C 0.45792 0.54881 0.87787 0.0
C372 C 0.42395 0.49621 0.64896 0.0
O373 O 0.5648 0.48535 0.58899 0.0
O374 O 0.51533 0.48559 0.62173 0.0
O375 O 0.95009 0.49263 0.88896 0.0
Mg376 Mg 0.94612 0.47704 0.76766 0.0
O377 O 0.97412 0.5298 0.83187 0.0
Mg378 Mg 1.0051 0.51404 0.72523 0.0
O379 O 0.98672 0.46606 0.7087 0.0
O380 O 0.95111 0.43224 0.73823 0.0
O381 O 0.0357 0.49919 0.6197 0.0
O382 O 0.04695 0.49649 0.81093 0.0
Mg383 Mg 0.06641 0.55341 0.68084 0.0
O384 O 0.0241 0.56071 0.73513 0.0
O385 O 0.06354 0.53404 0.56212 0.0
O386 O 0.08748 0.52348 0.76796 0.0
O387 O 0.05659 0.59773 0.71824 0.0
C388 C 0.93504 0.52586 0.63502 0.0
C389 C 0.9568 0.52006 0.8885 0.0
C390 C 0.97638 0.43916 0.69951 0.0
C391 C 0.05418 0.50728 0.56372 0.0
C392 C 0.07631 0.50307 0.81345 0.0
C393 C 0.03131 0.58794 0.75147 0.0
O394 O 0.92323 0.50591 0.68071 0.0
O395 O 0.96433 0.53216 0.63893 0.0
C396 C 0.13381 0.0426 0.45812 0.0
C397 C 0.13072 0.07388 0.46002 0.0
H398 H 0.11967 1.00098 0.50896 0.0
C399 C 0.10757 0.0874 0.51017 0.0
H400 H 0.15182 0.03177 0.42085 0.0
C401 C 0.08872 0.06968 0.56065 0.0
C402 C 0.09363 0.03839 0.56301 0.0
H403 H 0.10523 0.11161 0.51334 0.0
H404 H 0.07192 0.08048 0.6014 0.0
C405 C 0.1156 0.02507 0.50923 0.0
C406 C 0.48738 0.13309 0.54919 0.0
C407 C 0.50218 0.12578 0.47464 0.0
H408 H 0.48483 0.12425 0.67799 0.0
C409 C 0.52188 0.09995 0.47158 0.0
H410 H 0.47219 0.15289 0.55414 0.0
C411 C 0.52867 0.08341 0.54248 0.0
C412 C 0.51604 0.0924 0.61789 0.0
H413 H 0.53336 0.09342 0.41522 0.0
H414 H 0.54564 0.06486 0.5394 0.0
C415 C 0.49454 0.11674 0.62035 0.0
C416 C 0.40218 0.45628 0.45913 0.0
C417 C 0.37751 0.439 0.48917 0.0
H418 H 0.43773 0.48787 0.48875 0.0
C419 C 0.37474 0.43489 0.57386 0.0
H420 H 0.40472 0.45993 0.3942 0.0
C421 C 0.39361 0.45066 0.62756 0.0
C422 C 0.41584 0.47059 0.59769 0.0
H423 H 0.35604 0.42153 0.5986 0.0
H424 H 0.38865 0.44957 0.69226 0.0
C425 C 0.42119 0.47209 0.51322 0.0
C426 C 0.97011 0.38691 0.52044 0.0
C427 C 1.00154 0.3818 0.49586 0.0
H428 H 0.93819 0.40782 0.60399 0.0
C429 C 0.02522 0.3976 0.53702 0.0
H430 H 0.9508 0.37674 0.4888 0.0
C431 C 0.01758 0.41686 0.60255 0.0
C432 C 0.98628 0.41994 0.62975 0.0
H433 H 0.04976 0.3945 0.5205 0.0
H434 H 0.03615 0.42855 0.63329 0.0
C435 C 0.96274 0.40507 0.58689 0.0
C436 C 0.8775 0.93821 0.89939 0.0
C437 C 0.88363 0.94261 0.98271 0.0
H438 H 0.88606 0.95283 0.77683 0.0
C439 C 0.9077 0.96206 0.00478 0.0
H440 H 0.85885 0.92372 0.8803 0.0
C441 C 0.92378 0.97823 0.94498 0.0
C442 C 0.91581 0.97545 0.86237 0.0
H443 H 0.91297 0.96588 0.0684 0.0
H444 H 0.94058 0.99469 0.96379 0.0
C445 C 0.89316 0.95474 0.83997 0.0
C446 C 0.52367 0.90557 0.91289 0.0
C447 C 0.50277 0.88678 0.95456 0.0
H448 H 0.53018 0.93652 0.81349 0.0
C449 C 0.47198 0.88459 0.92414 0.0
H450 H 0.54771 0.90747 0.93361 0.0
C451 C 0.4622 0.90081 0.8553 0.0
C452 C 0.48273 0.92006 0.81456 0.0
H453 H 0.45538 0.86979 0.95256 0.0
H454 H 0.4381 0.89863 0.83496 0.0
C455 C 0.51367 0.92224 0.84403 0.0
C456 C 0.60168 0.58346 0.95976 0.0
C457 C 0.63085 0.57226 0.98989 0.0
H458 H 0.56257 0.5763 0.87859 0.0
C459 C 0.643 0.54507 0.95911 0.0
H460 H 0.59177 0.60448 0.98211 0.0
C461 C 0.62683 0.52947 0.89991 0.0
C462 C 0.59772 0.54032 0.86923 0.0
H463 H 0.66563 0.53604 0.97933 0.0
H464 H 0.63742 0.50863 0.87829 0.0
C465 C 0.585 0.56739 0.90053 0.0
C466 C 0.02689 0.63436 0.94268 0.0
C467 C 0.99441 0.63695 0.95838 0.0
H468 H 0.06345 0.61744 0.86504 0.0
C469 C 0.97357 0.62265 0.90497 0.0
H470 H 0.04372 0.64557 0.98071 0.0
C471 C 0.98511 0.60592 0.83821 0.0
C472 C 0.01759 0.60437 0.82189 0.0
H473 H 0.94839 0.62466 0.91429 0.0
H474 H 0.9687 0.59505 0.79823 0.0
C475 C 0.03823 0.61857 0.87527 0.0
C476 C 0.97021 0.12866 0.5223 0.0
C477 C 0.99511 0.12733 0.46572 0.0
H478 H 0.93761 0.10446 0.59387 0.0
C479 C 1.00348 0.0994 0.4309 0.0
H480 H 0.96339 0.14932 0.5525 0.0
C481 C 0.98917 0.07326 0.45736 0.0
C482 C 0.96533 0.07479 0.51629 0.0
H483 H 0.02179 0.09743 0.38525 0.0
H484 H 0.99802 0.05174 0.43563 0.0
C485 C 0.95504 0.10281 0.5457 0.0
C486 C 0.40514 0.0949 0.57784 0.0
C487 C 0.3984 0.10087 0.49589 0.0
H488 H 0.42862 0.06591 0.66303 0.0
C489 C 0.41267 0.08283 0.43515 0.0
H490 H 0.3942 0.10825 0.62561 0.0
C491 C 0.43184 0.05794 0.45664 0.0
C492 C 0.4374 0.05145 0.53893 0.0
H493 H 0.40739 0.08687 0.3714 0.0
H494 H 0.44164 0.04354 0.4096 0.0
C495 C 0.42463 0.0706 0.59901 0.0
C496 C 0.55201 0.40764 0.44969 0.0
C497 C 0.52457 0.39179 0.46799 0.0
H498 H 0.5776 0.44797 0.46753 0.0
C499 C 0.5002 0.40643 0.51104 0.0
H500 H 0.57094 0.39739 0.41455 0.0
C501 C 0.50323 0.43576 0.53636 0.0
C502 C 0.53142 0.45098 0.52338 0.0
H503 H 0.47899 0.39502 0.52812 0.0
H504 H 0.4841 0.44556 0.57184 0.0
C505 C 0.55557 0.4369 0.47813 0.0
C506 C 0.11757 0.44832 0.58372 0.0
C507 C 0.11707 0.43399 0.50798 0.0
H508 H 0.09917 0.48372 0.65716 0.0
C509 C 0.0949 0.44395 0.44889 0.0
H510 H 0.13372 0.44094 0.63128 0.0
C511 C 0.07441 0.46844 0.4648 0.0
C512 C 0.07647 0.48346 0.53912 0.0
H513 H 0.09408 0.43354 0.38952 0.0
H514 H 0.05728 0.47566 0.4194 0.0
C515 C 0.09788 0.47297 0.59845 0.0
C516 C 0.00843 0.92019 0.99713 0.0
C517 C 0.03088 0.89703 0.98347 0.0
H518 H 0.99532 0.96613 0.97516 0.0
C519 C 0.06022 0.90398 0.95 0.0
H520 H 0.98601 0.91568 0.02557 0.0
C521 C 0.06597 0.93311 0.92423 0.0
C522 C 0.04219 0.95552 0.93009 0.0
H523 H 0.07802 0.88662 0.93899 0.0
H524 H 0.08774 0.93721 0.89214 0.0
C525 C 0.014 0.9492 0.97032 0.0
C526 C 0.59616 0.94326 0.00909 0.0
C527 C 0.62149 0.93689 0.95553 0.0
H528 H 0.55367 0.96974 0.03008 0.0
C529 C 0.62265 0.95209 0.88072 0.0
H530 H 0.59468 0.93211 0.06763 0.0
C531 C 0.60038 0.97433 0.86205 0.0
C532 C 0.57568 0.98123 0.91585 0.0
H533 H 0.6413 0.94742 0.8372 0.0
H534 H 0.60251 0.98625 0.80507 0.0
C535 C 0.57308 0.96515 0.98879 0.0
C536 C 0.45154 0.62784 0.94292 0.0
C537 C 0.47929 0.63022 0.98872 0.0
H538 H 0.42177 0.59926 0.87624 0.0
C539 C 0.49577 0.60383 0.01303 0.0
H540 H 0.43832 0.64754 0.92239 0.0
C541 C 0.48664 0.57601 0.98455 0.0
C542 C 0.46033 0.57409 0.93359 0.0
H543 H 0.51654 0.6047 0.05111 0.0
H544 H 0.50135 0.55634 0.99755 0.0
C545 C 0.44183 0.59998 0.91695 0.0
C546 C 0.91159 0.58251 0.99579 0.0
C547 C 0.88515 0.58583 0.94385 0.0
H548 H 0.95574 0.55893 0.01894 0.0
C549 C 0.88302 0.56698 0.87604 0.0
H550 H 0.9139 0.59642 0.04918 0.0
C551 C 0.90574 0.54467 0.86242 0.0
C552 C 0.93191 0.54129 0.91395 0.0
H553 H 0.86358 0.56918 0.83353 0.0
H554 H 0.90313 0.5303 0.81017 0.0
C555 C 0.93518 0.56068 0.97994 0.0
C556 C 0.03306 0.13329 0.93877 0.0
C557 C 0.01384 0.15965 0.936 0.0
H558 H 0.03976 0.08746 0.90064 0.0
C559 C 0.98643 0.15942 0.88797 0.0
H560 H 0.0541 0.13225 0.97604 0.0
C561 C 0.97802 0.13359 0.84609 0.0
C562 C 0.99685 0.10712 0.85005 0.0
H563 H 0.97128 0.17925 0.88268 0.0
H564 H 0.95653 0.13443 0.81045 0.0
C565 C 0.02477 0.10743 0.89595 0.0
C566 C 0.37513 0.08366 0.89755 0.0
C567 C 0.3647 0.06999 0.96996 0.0
H568 H 0.4058 0.08068 0.7938 0.0
C569 C 0.37989 0.04303 0.99543 0.0
H570 H 0.36397 0.10419 0.87516 0.0
C571 C 0.40374 0.02955 0.94814 0.0
C572 C 0.41341 0.04297 0.87527 0.0
H573 H 0.37321 0.03212 0.05164 0.0
H574 H 0.41399 0.00814 0.96724 0.0
C575 C 0.39922 0.07029 0.85085 0.0
C576 C 0.52512 0.36265 0.86316 0.0
C577 C 0.50339 0.35986 0.92709 0.0
H578 H 0.54659 0.39128 0.77619 0.0
C579 C 0.48483 0.38539 0.94857 0.0
H580 H 0.53938 0.34356 0.84339 0.0
C581 C 0.48869 0.41308 0.90876 0.0
C582 C 0.51143 0.41591 0.84721 0.0
H583 H 0.46808 0.38433 -0.00185 0.0
H584 H 0.47464 0.43241 0.92793 0.0
C585 C 0.52918 0.39018 0.82428 0.0
C586 C 0.11261 0.4491 0.97172 0.0
C587 C 0.14473 0.45633 0.96732 0.0
H588 H 0.06553 0.45822 0.92748 0.0
C589 C 0.15373 0.47853 0.91206 0.0
H590 H 0.10485 0.43222 0.01433 0.0
C591 C 0.13141 0.49335 0.86302 0.0
C592 C 0.09918 0.48656 0.86753 0.0
H593 H 0.17823 0.48435 0.90606 0.0
H594 H 0.13969 0.51023 0.82114 0.0
C595 C 0.09003 0.4641 0.92238 0.0
C596 C 0.01652 0.86229 0.57839 0.0
C597 C 0.99307 0.86135 0.51802 0.0
H598 H 0.04117 0.88863 0.66455 0.0
C599 C 0.97483 0.88775 0.50276 0.0
H600 H 0.03068 0.84248 0.59341 0.0
C601 C 0.98061 0.91444 0.54491 0.0
C602 C 1.00496 0.91547 0.60274 0.0
H603 H 0.95683 0.88819 0.45603 0.0
H604 H 0.96673 0.93447 0.53019 0.0
C605 C 0.02245 0.88889 0.61967 0.0
C606 C 0.64144 0.94612 0.57448 0.0
C607 C 0.64386 0.953 0.49114 0.0
H608 H 0.61672 0.9544 0.68632 0.0
C609 C 0.62025 0.97146 0.4549 0.0
H610 H 0.6592 0.93201 0.60417 0.0
C611 C 0.59559 0.98387 0.50186 0.0
C612 C 0.59427 0.97817 0.58585 0.0
H613 H 0.62121 0.97678 0.3905 0.0
H614 H 0.57854 0.99911 0.47342 0.0
C615 C 0.61708 0.95883 0.62143 0.0
C616 C 0.47868 0.65048 0.5084 0.0
C617 C 0.50952 0.66124 0.51265 0.0
H618 H 0.44666 0.61642 0.54212 0.0
C619 C 0.53228 0.64378 0.55592 0.0
H620 H 0.46055 0.6624 0.47391 0.0
C621 C 0.52437 0.61657 0.59354 0.0
C622 C 0.4934 0.60629 0.58988 0.0
H623 H 0.55622 0.6512 0.56158 0.0
H624 H 0.54232 0.60396 0.62701 0.0
C625 C 0.47074 0.62367 0.54681 0.0
C626 C 0.86753 0.53728 0.48799 0.0
C627 C 0.86724 0.56835 0.47335 0.0
H628 H 0.88937 0.49982 0.54912 0.0
C629 C 0.89089 0.58549 0.50954 0.0
H630 H 0.84965 0.52335 0.46202 0.0
C631 C 0.91407 0.57175 0.55961 0.0
C632 C 0.91364 0.54076 0.57517 0.0
H633 H 0.89155 0.60944 0.49892 0.0
H634 H 0.93162 0.58543 0.58811 0.0
C635 C 0.89029 0.52376 0.53827 0.0
loop_
_geom_bond_atom_site_label_1
_geom_bond_atom_site_label_2
_geom_bond_distance
_geom_bond_site_symmetry_2
_ccdc_geom_bond_type
C0 C1 1.386 . S
C0 C2 1.397 . S
C0 H24 0.931 . S
C1 C0 1.386 . S
C1 C5 1.397 . S
C2 C0 1.397 . S
C2 C3 1.384 . S
C2 H25 0.930 . S
C3 C2 1.384 . S
C3 C4 1.377 . S
C3 C6 1.481 1_556 S
C4 C3 1.377 . S
C4 C5 1.389 . S
C4 H26 0.929 1_556 S
C5 C1 1.397 . S
C5 C4 1.389 . S
C5 H27 0.931 . S
C6 C3 1.481 1_554 S
C6 C7 1.387 . S
C6 C11 1.390 . S
C7 C6 1.387 . S
C7 C8 1.401 . S
C7 H28 0.930 1_554 S
C8 C7 1.401 . S
C8 C9 1.376 . S
C8 C17 1.511 . S
C9 C8 1.376 . S
C9 C10 1.392 . S
C9 H30 0.931 . S
C10 C9 1.392 . S
C10 C11 1.361 . S
C10 C12 1.500 . S
C11 C6 1.390 . S
C11 C10 1.361 . S
C11 H29 0.931 . S
C12 C10 1.500 . S
C12 C13 1.371 . S
C12 C14 1.365 . S
C13 C12 1.371 . S
C13 C23 1.386 . S
C13 H31 0.931 . S
C14 C12 1.365 . S
C14 C15 1.409 . S
C14 H32 0.929 . S
C15 C14 1.409 . S
C15 C16 1.380 . S
C15 H33 0.930 . S
C16 C15 1.380 . S
C16 C23 1.357 . S
C17 C8 1.511 . S
C17 C18 1.341 1_554 S
C17 C19 1.371 . S
C18 C17 1.341 1_556 S
C18 C22 1.394 . S
C18 H34 0.930 . S
C19 C17 1.371 . S
C19 C20 1.392 . S
C19 H35 0.931 . S
C20 C19 1.392 . S
C20 C21 1.331 . S
C20 H38 0.932 . S
C21 C20 1.331 . S
C21 C22 1.336 1_554 S
C22 C18 1.394 . S
C22 C21 1.336 1_556 S
C22 H37 0.929 . S
C23 C13 1.386 . S
C23 C16 1.357 . S
C23 H36 0.928 . S
H24 C0 0.931 . S
H25 C2 0.930 . S
H26 C4 0.929 1_554 S
H27 C5 0.931 . S
H28 C7 0.930 1_556 S
H29 C11 0.931 . S
H30 C9 0.931 . S
H31 C13 0.931 . S
H32 C14 0.929 . S
H33 C15 0.930 . S
H34 C18 0.930 . S
H35 C19 0.931 . S
H36 C23 0.928 . S
H37 C22 0.929 . S
H38 C20 0.932 . S
C39 C40 1.394 . S
C39 C41 1.397 . S
C39 H63 0.931 . S
C40 C39 1.394 . S
C40 C44 1.389 1_655 S
C41 C39 1.397 . S
C41 C42 1.383 1_556 S
C41 H64 0.930 . S
C42 C41 1.383 1_554 S
C42 C43 1.373 1_655 S
C42 C45 1.485 . S
C43 C42 1.373 1_455 S
C43 C44 1.389 1_554 S
C43 H65 0.929 . S
C44 C40 1.389 1_455 S
C44 C43 1.389 1_556 S
C44 H66 0.931 . S
C45 C42 1.485 . S
C45 C46 1.389 . S
C45 C50 1.390 . S
C46 C45 1.389 . S
C46 C47 1.402 . S
C46 H67 0.930 1_554 S
C47 C46 1.402 . S
C47 C48 1.377 . S
C47 C56 1.514 . S
C48 C47 1.377 . S
C48 C49 1.392 . S
C48 H69 0.931 . S
C49 C48 1.392 . S
C49 C50 1.361 . S
C49 C51 1.499 1_655 S
C50 C45 1.390 . S
C50 C49 1.361 . S
C50 H68 0.931 . S
C51 C49 1.499 1_455 S
C51 C52 1.360 1_455 S
C51 C53 1.377 . S
C52 C51 1.360 1_655 S
C52 C62 1.386 . S
C52 H70 0.931 . S
C53 C51 1.377 . S
C53 C54 1.409 . S
C53 H71 0.929 . S
C54 C53 1.409 . S
C54 C55 1.381 . S
C54 H72 0.930 . S
C55 C54 1.381 . S
C55 C62 1.357 1_455 S
C56 C47 1.514 . S
C56 C57 1.341 . S
C56 C58 1.371 1_655 S
C57 C56 1.341 . S
C57 C61 1.394 1_554 S
C57 H73 0.930 1_554 S
C58 C56 1.371 1_455 S
C58 C59 1.392 . S
C58 H74 0.931 . S
C59 C58 1.392 . S
C59 C60 1.322 1_455 S
C59 H77 0.932 . S
C60 C59 1.322 1_655 S
C60 C61 1.345 1_554 S
C61 C57 1.394 1_556 S
C61 C60 1.345 1_556 S
C61 H76 0.929 . S
C62 C52 1.386 . S
C62 C55 1.357 1_655 S
C62 H75 0.928 . S
H63 C39 0.931 . S
H64 C41 0.930 . S
H65 C43 0.929 . S
H66 C44 0.931 . S
H67 C46 0.930 1_556 S
H68 C50 0.931 . S
H69 C48 0.931 . S
H70 C52 0.931 . S
H71 C53 0.929 . S
H72 C54 0.930 . S
H73 C57 0.930 1_556 S
H74 C58 0.931 . S
H75 C62 0.928 . S
H76 C61 0.929 . S
H77 C59 0.932 . S
C78 C79 1.386 . S
C78 C80 1.397 . S
C78 H102 0.931 . S
C79 C78 1.386 . S
C79 C83 1.397 . S
C80 C78 1.397 . S
C80 C81 1.384 . S
C80 H103 0.930 . S
C81 C80 1.384 . S
C81 C82 1.377 . S
C81 C84 1.481 1_556 S
C82 C81 1.377 . S
C82 C83 1.389 . S
C82 H104 0.929 1_556 S
C83 C79 1.397 . S
C83 C82 1.389 . S
C83 H105 0.931 . S
C84 C81 1.481 1_554 S
C84 C85 1.387 . S
C84 C89 1.390 . S
C85 C84 1.387 . S
C85 C86 1.401 . S
C85 H106 0.930 1_554 S
C86 C85 1.401 . S
C86 C87 1.376 . S
C86 C95 1.511 . S
C87 C86 1.376 . S
C87 C88 1.392 . S
C87 H108 0.931 . S
C88 C87 1.392 . S
C88 C89 1.361 . S
C88 C90 1.500 . S
C89 C84 1.390 . S
C89 C88 1.361 . S
C89 H107 0.931 . S
C90 C88 1.500 . S
C90 C91 1.371 . S
C90 C92 1.365 . S
C91 C90 1.371 . S
C91 C101 1.386 . S
C91 H109 0.931 . S
C92 C90 1.365 . S
C92 C93 1.409 . S
C92 H110 0.929 . S
C93 C92 1.409 . S
C93 C94 1.380 . S
C93 H111 0.930 . S
C94 C93 1.380 . S
C94 C101 1.357 . S
C95 C86 1.511 . S
C95 C96 1.341 . S
C95 C97 1.371 . S
C96 C95 1.341 . S
C96 C100 1.394 1_554 S
C96 H112 0.930 1_554 S
C97 C95 1.371 . S
C97 C98 1.392 . S
C97 H113 0.931 . S
C98 C97 1.392 . S
C98 C99 1.331 . S
C98 H116 0.932 . S
C99 C98 1.331 . S
C99 C100 1.336 1_554 S
C100 C96 1.394 1_556 S
C100 C99 1.336 1_556 S
C100 H115 0.929 . S
C101 C91 1.386 . S
C101 C94 1.357 . S
C101 H114 0.928 . S
H102 C78 0.931 . S
H103 C80 0.930 . S
H104 C82 0.929 1_554 S
H105 C83 0.931 . S
H106 C85 0.930 1_556 S
H107 C89 0.931 . S
H108 C87 0.931 . S
H109 C91 0.931 . S
H110 C92 0.929 . S
H111 C93 0.930 . S
H112 C96 0.930 1_556 S
H113 C97 0.931 . S
H114 C101 0.928 . S
H115 C100 0.929 . S
H116 C98 0.932 . S
C117 C118 1.386 . S
C117 C119 1.397 . S
C117 H141 0.931 . S
C118 C117 1.386 . S
C118 C122 1.397 . S
C119 C117 1.397 . S
C119 C120 1.384 . S
C119 H142 0.930 . S
C120 C119 1.384 . S
C120 C121 1.377 . S
C120 C123 1.481 . S
C121 C120 1.377 . S
C121 C122 1.389 . S
C121 H143 0.929 . S
C122 C118 1.397 . S
C122 C121 1.389 . S
C122 H144 0.931 . S
C123 C120 1.481 . S
C123 C124 1.387 . S
C123 C128 1.390 . S
C124 C123 1.387 . S
C124 C125 1.401 . S
C124 H145 0.930 . S
C125 C124 1.401 . S
C125 C126 1.376 . S
C125 C134 1.511 . S
C126 C125 1.376 . S
C126 C127 1.392 . S
C126 H147 0.931 1_554 S
C127 C126 1.392 . S
C127 C128 1.361 . S
C127 C129 1.500 . S
C128 C123 1.390 . S
C128 C127 1.361 . S
C128 H146 0.931 . S
C129 C127 1.500 . S
C129 C130 1.371 1_554 S
C129 C131 1.365 . S
C130 C129 1.371 1_556 S
C130 C140 1.386 . S
C130 H148 0.931 . S
C131 C129 1.365 . S
C131 C132 1.409 1_554 S
C131 H149 0.929 . S
C132 C131 1.409 1_556 S
C132 C133 1.380 . S
C132 H150 0.930 . S
C133 C132 1.380 . S
C133 C140 1.357 . S
C134 C125 1.511 . S
C134 C135 1.341 . S
C134 C136 1.371 . S
C135 C134 1.341 . S
C135 C139 1.394 . S
C135 H151 0.930 . S
C136 C134 1.371 . S
C136 C137 1.392 1_554 S
C136 H152 0.931 1_554 S
C137 C136 1.392 1_556 S
C137 C138 1.331 1_556 S
C137 H155 0.932 . S
C138 C137 1.331 1_554 S
C138 C139 1.336 . S
C139 C135 1.394 . S
C139 C138 1.336 . S
C139 H154 0.929 . S
C140 C130 1.386 . S
C140 C133 1.357 . S
C140 H153 0.928 . S
H141 C117 0.931 . S
H142 C119 0.930 . S
H143 C121 0.929 . S
H144 C122 0.931 . S
H145 C124 0.930 . S
H146 C128 0.931 . S
H147 C126 0.931 1_556 S
H148 C130 0.931 . S
H149 C131 0.929 . S
H150 C132 0.930 . S
H151 C135 0.930 . S
H152 C136 0.931 1_556 S
H153 C140 0.928 . S
H154 C139 0.929 . S
H155 C137 0.932 . S
C156 C157 1.386 . S
C156 C158 1.397 . S
C156 H180 0.931 . S
C157 C156 1.386 . S
C157 C161 1.397 . S
C158 C156 1.397 . S
C158 C159 1.384 . S
C158 H181 0.930 . S
C159 C158 1.384 . S
C159 C160 1.377 . S
C159 C162 1.481 . S
C160 C159 1.377 . S
C160 C161 1.389 . S
C160 H182 0.929 . S
C161 C157 1.397 . S
C161 C160 1.389 . S
C161 H183 0.931 . S
C162 C159 1.481 . S
C162 C163 1.387 . S
C162 C167 1.390 . S
C163 C162 1.387 . S
C163 C164 1.401 . S
C163 H184 0.930 . S
C164 C163 1.401 . S
C164 C165 1.376 . S
C164 C173 1.511 . S
C165 C164 1.376 . S
C165 C166 1.392 . S
C165 H186 0.931 . S
C166 C165 1.392 . S
C166 C167 1.361 . S
C166 C168 1.500 . S
C167 C162 1.390 . S
C167 C166 1.361 . S
C167 H185 0.931 . S
C168 C166 1.500 . S
C168 C169 1.371 . S
C168 C170 1.365 . S
C169 C168 1.371 . S
C169 C179 1.386 . S
C169 H187 0.931 . S
C170 C168 1.365 . S
C170 C171 1.409 . S
C170 H188 0.929 . S
C171 C170 1.409 . S
C171 C172 1.380 . S
C171 H189 0.930 . S
C172 C171 1.380 . S
C172 C179 1.357 . S
C173 C164 1.511 . S
C173 C174 1.341 . S
C173 C175 1.371 . S
C174 C173 1.341 . S
C174 C178 1.394 . S
C174 H190 0.930 . S
C175 C173 1.371 . S
C175 C176 1.392 . S
C175 H191 0.931 . S
C176 C175 1.392 . S
C176 C177 1.331 . S
C176 H194 0.932 . S
C177 C176 1.331 . S
C177 C178 1.336 . S
C178 C174 1.394 . S
C178 C177 1.336 . S
C178 H193 0.929 . S
C179 C169 1.386 . S
C179 C172 1.357 . S
C179 H192 0.928 1_554 S
H180 C156 0.931 . S
H181 C158 0.930 . S
H182 C160 0.929 . S
H183 C161 0.931 . S
H184 C163 0.930 . S
H185 C167 0.931 . S
H186 C165 0.931 . S
H187 C169 0.931 . S
H188 C170 0.929 . S
H189 C171 0.930 . S
H190 C174 0.930 . S
H191 C175 0.931 . S
H192 C179 0.928 1_556 S
H193 C178 0.929 . S
H194 C176 0.932 . S
C195 C196 1.389 . S
C195 C197 1.397 . S
C195 H219 0.931 . S
C196 C195 1.389 . S
C196 C200 1.394 1_655 S
C197 C195 1.397 . S
C197 C198 1.383 . S
C197 H220 0.930 . S
C198 C197 1.383 . S
C198 C199 1.378 1_655 S
C198 C201 1.481 . S
C199 C198 1.378 1_455 S
C199 C200 1.389 . S
C199 H221 0.929 . S
C200 C196 1.394 1_455 S
C200 C199 1.389 . S
C200 H222 0.931 . S
C201 C198 1.481 . S
C201 C202 1.387 . S
C201 C206 1.390 . S
C202 C201 1.387 . S
C202 C203 1.402 . S
C202 H223 0.930 . S
C203 C202 1.402 . S
C203 C204 1.376 . S
C203 C212 1.511 . S
C204 C203 1.376 . S
C204 C205 1.393 . S
C204 H225 0.933 . S
C205 C204 1.393 . S
C205 C206 1.361 . S
C205 C207 1.499 1_655 S
C206 C201 1.390 . S
C206 C205 1.361 . S
C206 H224 0.931 . S
C207 C205 1.499 1_455 S
C207 C208 1.357 1_455 S
C207 C209 1.380 . S
C208 C207 1.357 1_655 S
C208 C218 1.386 . S
C208 H226 0.931 . S
C209 C207 1.380 . S
C209 C210 1.409 . S
C209 H227 0.929 . S
C210 C209 1.409 . S
C210 C211 1.384 1_554 S
C210 H228 0.930 . S
C211 C210 1.384 1_556 S
C211 C218 1.353 1_456 S
C212 C203 1.511 . S
C212 C213 1.341 . S
C212 C214 1.371 1_655 S
C213 C212 1.341 . S
C213 C217 1.394 . S
C213 H229 0.930 . S
C214 C212 1.371 1_455 S
C214 C215 1.392 . S
C214 H230 0.931 . S
C215 C214 1.392 . S
C215 C216 1.325 1_455 S
C215 H233 0.932 . S
C216 C215 1.325 1_655 S
C216 C217 1.343 . S
C217 C213 1.394 . S
C217 C216 1.343 . S
C217 H232 0.929 . S
C218 C208 1.386 . S
C218 C211 1.353 1_654 S
C218 H231 0.928 1_554 S
H219 C195 0.931 . S
H220 C197 0.930 . S
H221 C199 0.929 . S
H222 C200 0.931 . S
H223 C202 0.930 . S
H224 C206 0.931 . S
H225 C204 0.933 . S
H226 C208 0.931 . S
H227 C209 0.929 . S
H228 C210 0.930 . S
H229 C213 0.930 . S
H230 C214 0.931 . S
H231 C218 0.928 1_556 S
H232 C217 0.929 . S
H233 C215 0.932 . S
C234 C235 1.386 . S
C234 C236 1.397 . S
C234 H258 0.931 . S
C235 C234 1.386 . S
C235 C239 1.397 . S
C236 C234 1.397 . S
C236 C237 1.384 . S
C236 H259 0.930 . S
C237 C236 1.384 . S
C237 C238 1.377 . S
C237 C240 1.481 . S
C238 C237 1.377 . S
C238 C239 1.389 . S
C238 H260 0.929 . S
C239 C235 1.397 . S
C239 C238 1.389 . S
C239 H261 0.931 . S
C240 C237 1.481 . S
C240 C241 1.387 . S
C240 C245 1.390 . S
C241 C240 1.387 . S
C241 C242 1.401 . S
C241 H262 0.930 . S
C242 C241 1.401 . S
C242 C243 1.376 . S
C242 C251 1.511 . S
C243 C242 1.376 . S
C243 C244 1.392 . S
C243 H264 0.931 . S
C244 C243 1.392 . S
C244 C245 1.361 . S
C244 C246 1.500 . S
C245 C240 1.390 . S
C245 C244 1.361 . S
C245 H263 0.931 . S
C246 C244 1.500 . S
C246 C247 1.371 . S
C246 C248 1.365 . S
C247 C246 1.371 . S
C247 C257 1.386 . S
C247 H265 0.931 . S
C248 C246 1.365 . S
C248 C249 1.409 . S
C248 H266 0.929 . S
C249 C248 1.409 . S
C249 C250 1.380 . S
C249 H267 0.930 . S
C250 C249 1.380 . S
C250 C257 1.357 . S
C251 C242 1.511 . S
C251 C252 1.341 . S
C251 C253 1.371 . S
C252 C251 1.341 . S
C252 C256 1.394 . S
C252 H268 0.930 . S
C253 C251 1.371 . S
C253 C254 1.392 . S
C253 H269 0.931 . S
C254 C253 1.392 . S
C254 C255 1.331 . S
C254 H272 0.932 . S
C255 C254 1.331 . S
C255 C256 1.336 . S
C256 C252 1.394 . S
C256 C255 1.336 . S
C256 H271 0.929 . S
C257 C247 1.386 . S
C257 C250 1.357 . S
C257 H270 0.928 1_554 S
H258 C234 0.931 . S
H259 C236 0.930 . S
H260 C238 0.929 . S
H261 C239 0.931 . S
H262 C241 0.930 . S
H263 C245 0.931 . S
H264 C243 0.931 . S
H265 C247 0.931 . S
H266 C248 0.929 . S
H267 C249 0.930 . S
H268 C252 0.930 . S
H269 C253 0.931 . S
H270 C257 0.928 1_556 S
H271 C256 0.929 . S
H272 C254 0.932 . S
C273 C274 1.386 1_554 S
C273 C275 1.397 . S
C273 H297 0.931 1_554 S
C274 C273 1.386 1_556 S
C274 C278 1.397 1_556 S
C275 C273 1.397 . S
C275 C276 1.384 . S
C275 H298 0.930 . S
C276 C275 1.384 . S
C276 C277 1.377 . S
C276 C279 1.481 . S
C277 C276 1.377 . S
C277 C278 1.389 . S
C277 H299 0.929 . S
C278 C274 1.397 1_554 S
C278 C277 1.389 . S
C278 H300 0.931 . S
C279 C276 1.481 . S
C279 C280 1.387 . S
C279 C284 1.390 . S
C280 C279 1.387 . S
C280 C281 1.401 . S
C280 H301 0.930 . S
C281 C280 1.401 . S
C281 C282 1.376 . S
C281 C290 1.511 . S
C282 C281 1.376 . S
C282 C283 1.392 . S
C282 H303 0.931 . S
C283 C282 1.392 . S
C283 C284 1.361 . S
C283 C285 1.500 . S
C284 C279 1.390 . S
C284 C283 1.361 . S
C284 H302 0.931 . S
C285 C283 1.500 . S
C285 C286 1.371 . S
C285 C287 1.365 . S
C286 C285 1.371 . S
C286 C296 1.386 . S
C286 H304 0.931 . S
C287 C285 1.365 . S
C287 C288 1.409 . S
C287 H305 0.929 . S
C288 C287 1.409 . S
C288 C289 1.380 . S
C288 H306 0.930 . S
C289 C288 1.380 . S
C289 C296 1.357 . S
C290 C281 1.511 . S
C290 C291 1.341 . S
C290 C292 1.371 . S
C291 C290 1.341 . S
C291 C295 1.394 . S
C291 H307 0.930 . S
C292 C290 1.371 . S
C292 C293 1.392 . S
C292 H308 0.931 . S
C293 C292 1.392 . S
C293 C294 1.331 . S
C293 H311 0.932 . S
C294 C293 1.331 . S
C294 C295 1.336 . S
C295 C291 1.394 . S
C295 C294 1.336 . S
C295 H310 0.929 . S
C296 C286 1.386 . S
C296 C289 1.357 . S
C296 H309 0.928 . S
H297 C273 0.931 1_556 S
H298 C275 0.930 . S
H299 C277 0.929 . S
H300 C278 0.931 . S
H301 C280 0.930 . S
H302 C284 0.931 . S
H303 C282 0.931 . S
H304 C286 0.931 . S
H305 C287 0.929 . S
H306 C288 0.930 . S
H307 C291 0.930 . S
H308 C292 0.931 . S
H309 C296 0.928 . S
H310 C295 0.929 . S
H311 C293 0.932 . S
O312 Mg313 1.990 . S
O312 C326 1.253 . S
Mg313 O312 1.990 . S
Mg313 O316 2.180 1_565 S
Mg313 O317 2.117 . S
Mg313 O331 2.030 . S
O314 Mg315 2.072 1_465 S
O314 C326 1.260 . S
Mg315 O314 2.072 1_645 S
Mg315 O316 2.099 1_655 S
Mg315 O318 2.079 . S
Mg315 O319 2.072 1_655 S
Mg315 O321 2.099 . S
Mg315 O332 2.079 1_545 S
O316 Mg313 2.180 1_545 S
O316 Mg315 2.099 1_455 S
O316 C327 1.279 . S
O317 Mg313 2.117 . S
O317 C327 1.250 1_565 S
O318 Mg315 2.079 . S
O318 C328 1.264 . S
O319 Mg315 2.072 1_455 S
O319 C329 1.260 . S
Mg320 O321 2.180 . S
Mg320 O322 2.030 . S
Mg320 O323 1.990 . S
Mg320 O324 2.117 . S
O321 Mg315 2.099 . S
O321 Mg320 2.180 . S
O321 C330 1.279 . S
O322 Mg320 2.030 . S
O322 C328 1.248 . S
O323 Mg320 1.990 . S
O323 C329 1.253 1_655 S
O324 Mg320 2.117 . S
O324 C330 1.250 . S
C325 O331 1.248 1_655 S
C325 O332 1.264 . S
C326 O312 1.253 . S
C326 O314 1.260 . S
C327 O316 1.279 . S
C327 O317 1.250 1_545 S
C328 O318 1.264 . S
C328 O322 1.248 . S
C329 O319 1.260 . S
C329 O323 1.253 1_455 S
C330 O321 1.279 . S
C330 O324 1.250 . S
O331 Mg313 2.030 . S
O331 C325 1.248 1_455 S
O332 Mg315 2.079 1_565 S
O332 C325 1.264 . S
O333 Mg334 1.990 1_545 S
O333 C347 1.253 . S
Mg334 O333 1.990 1_565 S
Mg334 O337 2.180 . S
Mg334 O338 2.117 . S
Mg334 O352 2.030 1_565 S
O335 Mg336 2.072 . S
O335 C347 1.260 . S
Mg336 O335 2.072 . S
Mg336 O337 2.099 1_545 S
Mg336 O339 2.079 1_545 S
Mg336 O340 2.072 1_545 S
Mg336 O342 2.099 . S
Mg336 O353 2.079 . S
O337 Mg334 2.180 . S
O337 Mg336 2.099 1_565 S
O337 C348 1.279 . S
O338 Mg334 2.117 . S
O338 C348 1.250 . S
O339 Mg336 2.079 1_565 S
O339 C349 1.264 . S
O340 Mg336 2.072 1_565 S
O340 C350 1.260 1_565 S
Mg341 O342 2.180 . S
Mg341 O343 2.004 1_545 S
Mg341 O344 1.990 . S
Mg341 O345 2.117 . S
O342 Mg336 2.099 . S
O342 Mg341 2.180 . S
O342 C351 1.279 . S
O343 Mg341 2.004 1_565 S
O343 C349 1.265 . S
O344 Mg341 1.990 . S
O344 C350 1.253 . S
O345 Mg341 2.117 . S
O345 C351 1.250 . S
C346 O352 1.248 . S
C346 O353 1.264 . S
C347 O333 1.253 . S
C347 O335 1.260 . S
C348 O337 1.279 . S
C348 O338 1.250 . S
C349 O339 1.264 . S
C349 O343 1.265 . S
C350 O340 1.260 1_545 S
C350 O344 1.253 . S
C351 O342 1.279 . S
C351 O345 1.250 . S
O352 Mg334 2.030 1_545 S
O352 C346 1.248 . S
O353 Mg336 2.079 . S
O353 C346 1.264 . S
O354 Mg355 1.990 . S
O354 C368 1.253 . S
Mg355 O354 1.990 . S
Mg355 O358 2.180 . S
Mg355 O359 2.117 . S
Mg355 O373 2.030 . S
O356 Mg357 2.072 . S
O356 C368 1.260 . S
Mg357 O356 2.072 . S
Mg357 O358 2.099 . S
Mg357 O360 2.079 . S
Mg357 O361 2.072 . S
Mg357 O363 2.099 . S
Mg357 O374 2.079 . S
O358 Mg355 2.180 . S
O358 Mg357 2.099 . S
O358 C369 1.279 . S
O359 Mg355 2.117 . S
O359 C369 1.250 . S
O360 Mg357 2.079 . S
O360 C370 1.264 . S
O361 Mg357 2.072 . S
O361 C371 1.260 . S
Mg362 O363 2.180 . S
Mg362 O364 2.030 . S
Mg362 O365 1.990 . S
Mg362 O366 2.117 . S
O363 Mg357 2.099 . S
O363 Mg362 2.180 . S
O363 C372 1.279 . S
O364 Mg362 2.030 . S
O364 C370 1.248 . S
O365 Mg362 1.990 . S
O365 C371 1.253 . S
O366 Mg362 2.117 . S
O366 C372 1.250 . S
C367 O373 1.248 . S
C367 O374 1.264 . S
C368 O354 1.253 . S
C368 O356 1.260 . S
C369 O358 1.279 . S
C369 O359 1.250 . S
C370 O360 1.264 . S
C370 O364 1.248 . S
C371 O361 1.260 . S
C371 O365 1.253 . S
C372 O363 1.279 . S
C372 O366 1.250 . S
O373 Mg355 2.030 . S
O373 C367 1.248 . S
O374 Mg357 2.079 . S
O374 C367 1.264 . S
O375 Mg376 1.990 . S
O375 C389 1.253 . S
Mg376 O375 1.990 . S
Mg376 O379 2.180 . S
Mg376 O380 2.117 . S
Mg376 O394 2.030 . S
O377 Mg378 2.072 1_655 S
O377 C389 1.260 . S
Mg378 O377 2.072 1_455 S
Mg378 O379 2.099 1_455 S
Mg378 O381 2.079 . S
Mg378 O382 2.072 . S
Mg378 O384 2.099 . S
Mg378 O395 2.079 1_455 S
O379 Mg376 2.180 . S
O379 Mg378 2.099 1_655 S
O379 C390 1.279 . S
O380 Mg376 2.117 . S
O380 C390 1.250 . S
O381 Mg378 2.079 . S
O381 C391 1.264 . S
O382 Mg378 2.072 . S
O382 C392 1.260 . S
Mg383 O384 2.180 . S
Mg383 O385 2.030 . S
Mg383 O386 1.990 . S
Mg383 O387 2.117 . S
O384 Mg378 2.099 . S
O384 Mg383 2.180 . S
O384 C393 1.279 . S
O385 Mg383 2.030 . S
O385 C391 1.248 . S
O386 Mg383 1.990 . S
O386 C392 1.253 . S
O387 Mg383 2.117 . S
O387 C393 1.250 . S
C388 O394 1.248 . S
C388 O395 1.264 . S
C389 O375 1.253 . S
C389 O377 1.260 . S
C390 O379 1.279 . S
C390 O380 1.250 . S
C391 O381 1.264 . S
C391 O385 1.248 . S
C392 O382 1.260 . S
C392 O386 1.253 . S
C393 O384 1.279 . S
C393 O387 1.250 . S
O394 Mg376 2.030 . S
O394 C388 1.248 . S
O395 Mg378 2.079 1_655 S
O395 C388 1.264 . S
C396 C397 1.387 . S
C396 H400 0.950 . S
C396 C405 1.390 . S
C397 C396 1.387 . S
C397 C399 1.387 . S
H398 C405 0.950 . S
C399 C397 1.387 . S
C399 C401 1.390 . S
C399 H403 0.950 . S
H400 C396 0.950 . S
C401 C399 1.390 . S
C401 C402 1.387 . S
C401 H404 0.950 . S
C402 C401 1.387 . S
C402 C405 1.387 . S
H403 C399 0.950 . S
H404 C401 0.950 . S
C405 C396 1.390 . S
C405 H398 0.950 . S
C405 C402 1.387 . S
C406 C407 1.387 . S
C406 H410 0.950 . S
C406 C415 1.390 . S
C407 C406 1.387 . S
C407 C409 1.387 . S
H408 C415 0.950 . S
C409 C407 1.387 . S
C409 C411 1.390 . S
C409 H413 0.950 . S
H410 C406 0.950 . S
C411 C409 1.390 . S
C411 C412 1.387 . S
C411 H414 0.950 . S
C412 C411 1.387 . S
C412 C415 1.387 . S
H413 C409 0.950 . S
H414 C411 0.950 . S
C415 C406 1.390 . S
C415 H408 0.950 . S
C415 C412 1.387 . S
C416 C417 1.387 . S
C416 H420 0.950 . S
C416 C425 1.390 . S
C417 C416 1.387 . S
C417 C419 1.387 . S
H418 C425 0.950 . S
C419 C417 1.387 . S
C419 C421 1.390 . S
C419 H423 0.950 . S
H420 C416 0.950 . S
C421 C419 1.390 . S
C421 C422 1.387 . S
C421 H424 0.950 . S
C422 C421 1.387 . S
C422 C425 1.387 . S
H423 C419 0.950 . S
H424 C421 0.950 . S
C425 C416 1.390 . S
C425 H418 0.950 . S
C425 C422 1.387 . S
C426 C427 1.387 . S
C426 H430 0.950 . S
C426 C435 1.390 . S
C427 C426 1.387 . S
C427 C429 1.387 1_655 S
H428 C435 0.950 . S
C429 C427 1.387 1_455 S
C429 C431 1.390 . S
C429 H433 0.950 . S
H430 C426 0.950 . S
C431 C429 1.390 . S
C431 C432 1.387 1_455 S
C431 H434 0.950 . S
C432 C431 1.387 1_655 S
C432 C435 1.387 . S
H433 C429 0.950 . S
H434 C431 0.950 . S
C435 C426 1.390 . S
C435 H428 0.950 . S
C435 C432 1.387 . S
C436 C437 1.387 . S
C436 H440 0.950 . S
C436 C445 1.390 . S
C437 C436 1.387 . S
C437 C439 1.387 . S
H438 C445 0.950 . S
C439 C437 1.387 . S
C439 C441 1.390 . S
C439 H443 0.950 1_556 S
H440 C436 0.950 . S
C441 C439 1.390 . S
C441 C442 1.387 . S
C441 H444 0.950 . S
C442 C441 1.387 . S
C442 C445 1.387 . S
H443 C439 0.950 1_554 S
H444 C441 0.950 . S
C445 C436 1.390 . S
C445 H438 0.950 . S
C445 C442 1.387 . S
C446 C447 1.387 . S
C446 H450 0.950 . S
C446 C455 1.390 . S
C447 C446 1.387 . S
C447 C449 1.387 . S
H448 C455 0.950 . S
C449 C447 1.387 . S
C449 C451 1.390 . S
C449 H453 0.950 . S
H450 C446 0.950 . S
C451 C449 1.390 . S
C451 C452 1.387 . S
C451 H454 0.950 . S
C452 C451 1.387 . S
C452 C455 1.387 . S
H453 C449 0.950 . S
H454 C451 0.950 . S
C455 C446 1.390 . S
C455 H448 0.950 . S
C455 C452 1.387 . S
C456 C457 1.387 . S
C456 H460 0.950 . S
C456 C465 1.390 . S
C457 C456 1.387 . S
C457 C459 1.387 . S
H458 C465 0.950 . S
C459 C457 1.387 . S
C459 C461 1.390 . S
C459 H463 0.950 . S
H460 C456 0.950 . S
C461 C459 1.390 . S
C461 C462 1.387 . S
C461 H464 0.950 . S
C462 C461 1.387 . S
C462 C465 1.387 . S
H463 C459 0.950 . S
H464 C461 0.950 . S
C465 C456 1.390 . S
C465 H458 0.950 . S
C465 C462 1.387 . S
C466 C467 1.387 . S
C466 H470 0.950 1_556 S
C466 C475 1.390 . S
C467 C466 1.387 . S
C467 C469 1.387 1_455 S
H468 C475 0.950 . S
C469 C467 1.387 1_655 S
C469 C471 1.390 . S
C469 H473 0.950 . S
H470 C466 0.950 1_554 S
C471 C469 1.390 . S
C471 C472 1.387 1_655 S
C471 H474 0.950 . S
C472 C471 1.387 1_455 S
C472 C475 1.387 . S
H473 C469 0.950 . S
H474 C471 0.950 . S
C475 C466 1.390 . S
C475 H468 0.950 . S
C475 C472 1.387 . S
C476 C477 1.388 1_655 S
C476 H480 0.950 . S
C476 C485 1.390 . S
C477 C476 1.388 1_455 S
C477 C479 1.388 1_455 S
H478 C485 0.950 . S
C479 C477 1.388 1_655 S
C479 C481 1.390 . S
C479 H483 0.950 1_655 S
H480 C476 0.950 . S
C481 C479 1.390 . S
C481 C482 1.387 . S
C481 H484 0.950 . S
C482 C481 1.387 . S
C482 C485 1.387 . S
H483 C479 0.950 1_455 S
H484 C481 0.950 . S
C485 C476 1.390 . S
C485 H478 0.950 . S
C485 C482 1.387 . S
C486 C487 1.387 . S
C486 H490 0.950 . S
C486 C495 1.390 . S
C487 C486 1.387 . S
C487 C489 1.387 . S
H488 C495 0.950 . S
C489 C487 1.387 . S
C489 C491 1.390 . S
C489 H493 0.950 . S
H490 C486 0.950 . S
C491 C489 1.390 . S
C491 C492 1.387 . S
C491 H494 0.950 . S
C492 C491 1.387 . S
C492 C495 1.387 . S
H493 C489 0.950 . S
H494 C491 0.950 . S
C495 C486 1.390 . S
C495 H488 0.950 . S
C495 C492 1.387 . S
C496 C497 1.387 . S
C496 H500 0.950 . S
C496 C505 1.390 . S
C497 C496 1.387 . S
C497 C499 1.387 . S
H498 C505 0.950 . S
C499 C497 1.387 . S
C499 C501 1.390 . S
C499 H503 0.950 . S
H500 C496 0.950 . S
C501 C499 1.390 . S
C501 C502 1.387 . S
C501 H504 0.950 . S
C502 C501 1.387 . S
C502 C505 1.387 . S
H503 C499 0.950 . S
H504 C501 0.950 . S
C505 C496 1.390 . S
C505 H498 0.950 . S
C505 C502 1.387 . S
C506 C507 1.387 . S
C506 H510 0.950 . S
C506 C515 1.390 . S
C507 C506 1.387 . S
C507 C509 1.387 . S
H508 C515 0.950 . S
C509 C507 1.387 . S
C509 C511 1.390 . S
C509 H513 0.950 . S
H510 C506 0.950 . S
C511 C509 1.390 . S
C511 C512 1.387 . S
C511 H514 0.950 . S
C512 C511 1.387 . S
C512 C515 1.387 . S
H513 C509 0.950 . S
H514 C511 0.950 . S
C515 C506 1.390 . S
C515 H508 0.950 . S
C515 C512 1.387 . S
C516 C517 1.387 . S
C516 H520 0.950 . S
C516 C525 1.390 . S
C517 C516 1.387 . S
C517 C519 1.387 . S
H518 C525 0.950 . S
C519 C517 1.387 . S
C519 C521 1.390 . S
C519 H523 0.950 . S
H520 C516 0.950 . S
C521 C519 1.390 . S
C521 C522 1.387 . S
C521 H524 0.950 . S
C522 C521 1.387 . S
C522 C525 1.387 . S
H523 C519 0.950 . S
H524 C521 0.950 . S
C525 C516 1.390 . S
C525 H518 0.950 . S
C525 C522 1.387 . S
C526 C527 1.387 . S
C526 H530 0.950 . S
C526 C535 1.390 . S
C527 C526 1.387 . S
C527 C529 1.387 . S
H528 C535 0.950 . S
C529 C527 1.387 . S
C529 C531 1.390 . S
C529 H533 0.950 . S
H530 C526 0.950 . S
C531 C529 1.390 . S
C531 C532 1.387 . S
C531 H534 0.950 . S
C532 C531 1.387 . S
C532 C535 1.387 . S
H533 C529 0.950 . S
H534 C531 0.950 . S
C535 C526 1.390 . S
C535 H528 0.950 . S
C535 C532 1.387 . S
C536 C537 1.387 . S
C536 H540 0.950 . S
C536 C545 1.390 . S
C537 C536 1.387 . S
C537 C539 1.387 . S
H538 C545 0.950 . S
C539 C537 1.387 . S
C539 C541 1.390 . S
C539 H543 0.950 . S
H540 C536 0.950 . S
C541 C539 1.390 . S
C541 C542 1.387 . S
C541 H544 0.950 . S
C542 C541 1.387 . S
C542 C545 1.387 . S
H543 C539 0.950 . S
H544 C541 0.950 . S
C545 C536 1.390 . S
C545 H538 0.950 . S
C545 C542 1.387 . S
C546 C547 1.387 . S
C546 H550 0.950 . S
C546 C555 1.390 . S
C547 C546 1.387 . S
C547 C549 1.387 . S
H548 C555 0.950 . S
C549 C547 1.387 . S
C549 C551 1.390 . S
C549 H553 0.950 . S
H550 C546 0.950 . S
C551 C549 1.390 . S
C551 C552 1.387 . S
C551 H554 0.950 . S
C552 C551 1.387 . S
C552 C555 1.387 . S
H553 C549 0.950 . S
H554 C551 0.950 . S
C555 C546 1.390 . S
C555 H548 0.950 . S
C555 C552 1.387 . S
C556 C557 1.387 . S
C556 H560 0.950 1_556 S
C556 C565 1.390 . S
C557 C556 1.387 . S
C557 C559 1.387 1_455 S
H558 C565 0.950 1_554 S
C559 C557 1.387 1_655 S
C559 C561 1.390 . S
C559 H563 0.950 . S
H560 C556 0.950 1_554 S
C561 C559 1.390 . S
C561 C562 1.386 1_655 S
C561 H564 0.951 . S
C562 C561 1.386 1_455 S
C562 C565 1.387 . S
H563 C559 0.950 . S
H564 C561 0.951 . S
C565 C556 1.390 . S
C565 H558 0.950 1_556 S
C565 C562 1.387 . S
C566 C567 1.387 . S
C566 H570 0.950 . S
C566 C575 1.390 . S
C567 C566 1.387 . S
C567 C569 1.387 . S
H568 C575 0.950 . S
C569 C567 1.387 . S
C569 C571 1.390 . S
C569 H573 0.950 1_556 S
H570 C566 0.950 . S
C571 C569 1.390 . S
C571 C572 1.387 . S
C571 H574 0.950 1_556 S
C572 C571 1.387 . S
C572 C575 1.387 . S
H573 C569 0.950 1_554 S
H574 C571 0.950 1_554 S
C575 C566 1.390 . S
C575 H568 0.950 . S
C575 C572 1.387 . S
C576 C577 1.387 . S
C576 H580 0.950 . S
C576 C585 1.390 . S
C577 C576 1.387 . S
C577 C579 1.387 . S
H578 C585 0.950 . S
C579 C577 1.387 . S
C579 C581 1.390 . S
C579 H583 0.950 1_556 S
H580 C576 0.950 . S
C581 C579 1.390 . S
C581 C582 1.387 . S
C581 H584 0.950 1_556 S
C582 C581 1.387 . S
C582 C585 1.387 . S
H583 C579 0.950 1_554 S
H584 C581 0.950 1_554 S
C585 C576 1.390 . S
C585 H578 0.950 . S
C585 C582 1.387 . S
C586 C587 1.387 . S
C586 H590 0.950 1_556 S
C586 C595 1.390 . S
C587 C586 1.387 . S
C587 C589 1.387 . S
H588 C595 0.950 . S
C589 C587 1.387 . S
C589 C591 1.390 . S
C589 H593 0.950 . S
H590 C586 0.950 1_554 S
C591 C589 1.390 . S
C591 C592 1.387 . S
C591 H594 0.950 . S
C592 C591 1.387 . S
C592 C595 1.387 . S
H593 C589 0.950 . S
H594 C591 0.950 . S
C595 C586 1.390 . S
C595 H588 0.950 . S
C595 C592 1.387 . S
C596 C597 1.387 1_455 S
C596 H600 0.950 . S
C596 C605 1.390 . S
C597 C596 1.387 1_655 S
C597 C599 1.387 . S
H598 C605 0.950 . S
C599 C597 1.387 . S
C599 C601 1.390 . S
C599 H603 0.950 . S
H600 C596 0.950 . S
C601 C599 1.390 . S
C601 C602 1.387 . S
C601 H604 0.950 . S
C602 C601 1.387 . S
C602 C605 1.387 1_655 S
H603 C599 0.950 . S
H604 C601 0.950 . S
C605 C596 1.390 . S
C605 H598 0.950 . S
C605 C602 1.387 1_455 S
C606 C607 1.387 . S
C606 H610 0.950 . S
C606 C615 1.390 . S
C607 C606 1.387 . S
C607 C609 1.387 . S
H608 C615 0.950 . S
C609 C607 1.387 . S
C609 C611 1.390 . S
C609 H613 0.950 . S
H610 C606 0.950 . S
C611 C609 1.390 . S
C611 C612 1.387 . S
C611 H614 0.950 . S
C612 C611 1.387 . S
C612 C615 1.387 . S
H613 C609 0.950 . S
H614 C611 0.950 . S
C615 C606 1.390 . S
C615 H608 0.950 . S
C615 C612 1.387 . S
C616 C617 1.387 . S
C616 H620 0.950 . S
C616 C625 1.390 . S
C617 C616 1.387 . S
C617 C619 1.387 . S
H618 C625 0.950 . S
C619 C617 1.387 . S
C619 C621 1.390 . S
C619 H623 0.950 . S
H620 C616 0.950 . S
C621 C619 1.390 . S
C621 C622 1.387 . S
C621 H624 0.950 . S
C622 C621 1.387 . S
C622 C625 1.387 . S
H623 C619 0.950 . S
H624 C621 0.950 . S
C625 C616 1.390 . S
C625 H618 0.950 . S
C625 C622 1.387 . S
C626 C627 1.387 . S
C626 H630 0.950 . S
C626 C635 1.390 . S
C627 C626 1.387 . S
C627 C629 1.387 . S
H628 C635 0.950 . S
C629 C627 1.387 . S
C629 C631 1.390 . S
C629 H633 0.950 . S
H630 C626 0.950 . S
C631 C629 1.390 . S
C631 C632 1.387 . S
C631 H634 0.950 . S
C632 C631 1.387 . S
C632 C635 1.387 . S
H633 C629 0.950 . S
H634 C631 0.950 . S
C635 C626 1.390 . S
C635 H628 0.950 . S
C635 C632 1.387 . S
C397 C255 2.082 . S
C402 C327 2.159 . S
C412 C351 1.555 . S
C407 C294 1.738 . S
C422 C372 2.117 . S
C417 C177 2.055 . S
C432 C390 1.601 . S
C427 C216 1.771 . S
C442 C330 2.015 1_565 S
C437 C99 1.967 1_556 S
C447 C138 1.584 1_556 S
C452 C348 1.399 . S
C457 C21 1.941 1_556 S
C462 C369 1.982 . S
C467 C60 1.605 1_456 S
C472 C393 1.440 . S
C482 C328 0.756 . S
C477 C196 0.758 1_455 S
C492 C346 1.255 . S
C487 C235 1.146 . S
C502 C367 0.742 . S
C497 C289 0.739 . S
C507 C157 1.153 . S
C512 C391 1.263 . S
C517 C40 0.788 1_455 S
C522 C326 0.790 . S
C532 C350 1.342 1_565 S
C527 C79 1.193 . S
C542 C371 0.779 . S
C537 C133 0.777 . S
C547 C1 1.197 . S
C552 C389 1.353 . S
C557 C211 2.011 . S
C562 C329 2.077 . S
C567 C250 2.187 1_556 S
C572 C347 2.304 . S
C582 C368 2.058 . S
C577 C274 2.003 . S
C592 C392 2.317 . S
C587 C172 2.196 1_556 S
C597 C55 1.905 1_655 S
C602 C325 1.940 . S
C612 C349 2.161 . S
C607 C94 2.073 . S
C622 C370 1.921 . S
C617 C118 1.901 . S
C627 C16 2.085 . S
C632 C388 2.182 . S
