# Generated by pormake.
# Topology hwx, (6,3)-cn, num edge types: 1
# Building blocks:
#     Node 0, Type 0, BuildingBlock: OJICUG_clean_sbu_0, # of connection points: 6
#     Node 1, Type 0, BuildingBlock: OJICUG_clean_sbu_0, # of connection points: 6
#     Node 2, Type 0, BuildingBlock: OJICUG_clean_sbu_0, # of connection points: 6
#     Node 3, Type 0, BuildingBlock: OJICUG_clean_sbu_0, # of connection points: 6
#     Node 4, Type 1, BuildingBlock: ESEHIV_clean_linker_0, # of connection points: 3
#     Node 5, Type 1, BuildingBlock: ESEHIV_clean_linker_0, # of connection points: 3
#     Node 6, Type 1, BuildingBlock: ESEHIV_clean_linker_0, # of connection points: 3
#     Node 7, Type 1, BuildingBlock: ESEHIV_clean_linker_0, # of connection points: 3
#     Node 8, Type 1, BuildingBlock: ESEHIV_clean_linker_0, # of connection points: 3
#     Node 9, Type 1, BuildingBlock: ESEHIV_clean_linker_0, # of connection points: 3
#     Node 10, Type 1, BuildingBlock: ESEHIV_clean_linker_0, # of connection points: 3
#     Node 11, Type 1, BuildingBlock: ESEHIV_clean_linker_0, # of connection points: 3
#     Edge 12, Type (0, 1), BuildingBlock: KIFKEQ_clean_linker_1, # of connection points: 2
#     Edge 13, Type (0, 1), BuildingBlock: KIFKEQ_clean_linker_1, # of connection points: 2
#     Edge 14, Type (0, 1), BuildingBlock: KIFKEQ_clean_linker_1, # of connection points: 2
#     Edge 15, Type (0, 1), BuildingBlock: KIFKEQ_clean_linker_1, # of connection points: 2
#     Edge 16, Type (0, 1), BuildingBlock: KIFKEQ_clean_linker_1, # of connection points: 2
#     Edge 17, Type (0, 1), BuildingBlock: KIFKEQ_clean_linker_1, # of connection points: 2
#     Edge 18, Type (0, 1), BuildingBlock: KIFKEQ_clean_linker_1, # of connection points: 2
#     Edge 19, Type (0, 1), BuildingBlock: KIFKEQ_clean_linker_1, # of connection points: 2
#     Edge 20, Type (0, 1), BuildingBlock: KIFKEQ_clean_linker_1, # of connection points: 2
#     Edge 21, Type (0, 1), BuildingBlock: KIFKEQ_clean_linker_1, # of connection points: 2
#     Edge 22, Type (0, 1), BuildingBlock: KIFKEQ_clean_linker_1, # of connection points: 2
#     Edge 23, Type (0, 1), BuildingBlock: KIFKEQ_clean_linker_1, # of connection points: 2
#     Edge 24, Type (0, 1), BuildingBlock: KIFKEQ_clean_linker_1, # of connection points: 2
#     Edge 25, Type (0, 1), BuildingBlock: KIFKEQ_clean_linker_1, # of connection points: 2
#     Edge 26, Type (0, 1), BuildingBlock: KIFKEQ_clean_linker_1, # of connection points: 2
#     Edge 27, Type (0, 1), BuildingBlock: KIFKEQ_clean_linker_1, # of connection points: 2
#     Edge 28, Type (0, 1), BuildingBlock: KIFKEQ_clean_linker_1, # of connection points: 2
#     Edge 29, Type (0, 1), BuildingBlock: KIFKEQ_clean_linker_1, # of connection points: 2
#     Edge 30, Type (0, 1), BuildingBlock: KIFKEQ_clean_linker_1, # of connection points: 2
#     Edge 31, Type (0, 1), BuildingBlock: KIFKEQ_clean_linker_1, # of connection points: 2
#     Edge 32, Type (0, 1), BuildingBlock: KIFKEQ_clean_linker_1, # of connection points: 2
#     Edge 33, Type (0, 1), BuildingBlock: KIFKEQ_clean_linker_1, # of connection points: 2
#     Edge 34, Type (0, 1), BuildingBlock: KIFKEQ_clean_linker_1, # of connection points: 2
#     Edge 35, Type (0, 1), BuildingBlock: KIFKEQ_clean_linker_1, # of connection points: 2
# Relax obj value: 0.076
# Max RMSD: 0.101
# Mean RMSD: 0.093
data_MOF--net-hwx--node1-OJICUG_clean_sbu_0--node2-ESEHIV_clean_linker_0--edge1-KIFKEQ_clean_linker_1
_symmetry_space_group_name_H-M    P1
_symmetry_Int_Tables_number       1
_symmetry_cell_setting            triclinic
loop_
_symmetry_equiv_pos_as_xyz
'x, y, z'
_cell_length_a     48.361656
_cell_length_b     48.401494
_cell_length_c     21.82921
_cell_angle_alpha  90.181157
_cell_angle_beta   90.082733
_cell_angle_gamma 89.944524
loop_
_atom_site_label
_atom_site_type_symbol
_atom_site_fract_x
_atom_site_fract_y
_atom_site_fract_z
_atom_type_partial_charge
Sc0 Sc 0.21385 0.21353 0.07205 0.0
Sc1 Sc 0.17163 0.16603 0.99306 0.0
Sc2 Sc 0.21838 0.20819 0.91218 0.0
O3 O 0.20129 0.19588 0.99239 0.0
C4 C 0.21247 0.26548 0.98196 0.0
C5 C 0.14923 0.20865 0.09375 0.0
C6 C 0.15455 0.2006 0.87591 0.0
C7 C 0.20737 0.14991 0.10944 0.0
C8 C 0.2709 0.20817 0.00171 0.0
C9 C 0.21358 0.14355 0.89083 0.0
O10 O 0.21389 0.25449 0.03463 0.0
O11 O 0.14635 0.18752 0.05955 0.0
O12 O 0.17911 0.20871 0.86567 0.0
O13 O 0.21523 0.1746 0.11908 0.0
O14 O 0.25968 0.20905 0.94905 0.0
O15 O 0.19292 0.14079 0.92631 0.0
O16 O 0.257 0.2083 0.05107 0.0
O17 O 0.1925 0.143 0.0638 0.0
O18 O 0.22602 0.16641 0.88349 0.0
O19 O 0.17214 0.22105 0.10069 0.0
O20 O 0.21259 0.25142 0.93267 0.0
O21 O 0.14802 0.18615 0.92223 0.0
Sc22 Sc 0.27425 0.71264 0.39229 0.0
Sc23 Sc 0.31261 0.66035 0.46681 0.0
Sc24 Sc 0.27811 0.71154 0.55288 0.0
O25 O 0.28835 0.69482 0.4706 0.0
C26 C 0.28604 0.76614 0.47391 0.0
C27 C 0.33631 0.69736 0.3574 0.0
C28 C 0.34136 0.69578 0.57323 0.0
C29 C 0.26989 0.64831 0.35892 0.0
C30 C 0.22123 0.71492 0.47896 0.0
C31 C 0.27461 0.64691 0.58177 0.0
O32 O 0.28242 0.75425 0.42261 0.0
O33 O 0.33826 0.67765 0.39568 0.0
O34 O 0.32013 0.71044 0.5844 0.0
O35 O 0.26411 0.67363 0.35063 0.0
O36 O 0.23508 0.71418 0.52852 0.0
O37 O 0.28954 0.63914 0.53702 0.0
O38 O 0.23244 0.71452 0.42623 0.0
O39 O 0.28656 0.64016 0.40016 0.0
O40 O 0.26943 0.67213 0.59288 0.0
O41 O 0.31473 0.71219 0.35185 0.0
O42 O 0.28531 0.75322 0.52432 0.0
O43 O 0.34158 0.67652 0.53341 0.0
Sc44 Sc 0.77618 0.77582 0.92266 0.0
Sc45 Sc 0.8179 0.82299 0.00421 0.0
Sc46 Sc 0.77102 0.78014 0.08276 0.0
O47 O 0.78836 0.79301 0.00321 0.0
C48 C 0.71882 0.78082 0.99293 0.0
C49 C 0.78184 0.83998 0.88874 0.0
C50 C 0.77623 0.8445 0.10797 0.0
C51 C 0.84063 0.78217 0.90008 0.0
C52 C 0.77752 0.72323 0.01065 0.0
C53 C 0.83493 0.78667 0.11899 0.0
O54 O 0.7329 0.78008 0.94383 0.0
O55 O 0.7968 0.84662 0.93451 0.0
O56 O 0.76374 0.82161 0.11419 0.0
O57 O 0.81794 0.76942 0.89254 0.0
O58 O 0.7763 0.73708 0.06016 0.0
O59 O 0.84153 0.80191 0.0739 0.0
O60 O 0.77699 0.73444 0.95811 0.0
O61 O 0.84319 0.8026 0.93636 0.0
O62 O 0.81031 0.77857 0.12868 0.0
O63 O 0.77413 0.8153 0.87813 0.0
O64 O 0.72983 0.78032 0.0458 0.0
O65 O 0.79677 0.84757 0.07233 0.0
Sc66 Sc 0.71508 0.27658 0.60136 0.0
Sc67 Sc 0.67814 0.3296 0.52586 0.0
Sc68 Sc 0.7119 0.27765 0.44062 0.0
O69 O 0.70168 0.29462 0.52268 0.0
C70 C 0.76839 0.27295 0.51568 0.0
C71 C 0.72083 0.34085 0.63431 0.0
C72 C 0.71675 0.34218 0.41139 0.0
C73 C 0.65327 0.29338 0.63527 0.0
C74 C 0.70255 0.22324 0.51976 0.0
C75 C 0.64905 0.29468 0.419 0.0
O76 O 0.75695 0.27347 0.56816 0.0
O77 O 0.70439 0.34927 0.59289 0.0
O78 O 0.72145 0.31684 0.40041 0.0
O79 O 0.67452 0.27811 0.64132 0.0
O80 O 0.70388 0.23608 0.4693 0.0
O81 O 0.64911 0.31397 0.45877 0.0
O82 O 0.70599 0.23513 0.57113 0.0
O83 O 0.65184 0.31299 0.59664 0.0
O84 O 0.66999 0.27952 0.40833 0.0
O85 O 0.72609 0.31543 0.64282 0.0
O86 O 0.75478 0.27424 0.46582 0.0
O87 O 0.70189 0.35026 0.45597 0.0
H88 H 0.21752 0.55401 0.9677 0.0
H89 H 0.2162 0.47679 0.87027 0.0
H90 H 0.21392 0.47788 0.06773 0.0
C91 C 0.21587 0.53167 0.96804 0.0
C92 C 0.21544 0.51764 0.0241 0.0
C93 C 0.21632 0.51704 0.91251 0.0
C94 C 0.21543 0.48809 0.91319 0.0
C95 C 0.2143 0.47373 0.96898 0.0
C96 C 0.21455 0.48869 0.02434 0.0
H97 H 0.9346 0.74606 0.50724 0.0
H98 H 0.009 0.7318 0.40486 0.0
H99 H 0.0112 0.73322 0.60264 0.0
C100 C 0.95659 0.74163 0.50622 0.0
C101 C 0.97141 0.74009 0.56121 0.0
C102 C 0.97001 0.73831 0.4499 0.0
C103 C -0.00143 0.73352 0.44864 0.0
C104 C 0.01369 0.73148 0.50359 0.0
C105 C -0.00017 0.73452 0.5599 0.0
H106 H 0.77469 0.43459 0.02445 0.0
H107 H 0.77746 0.51151 0.12282 0.0
H108 H 0.77856 0.51098 0.92528 0.0
C109 C 0.77659 0.45692 0.02436 0.0
C110 C 0.77726 0.47107 0.96844 0.0
C111 C 0.77623 0.47142 0.08006 0.0
C112 C 0.77744 0.50035 0.07969 0.0
C113 C 0.77882 0.51485 0.02405 0.0
C114 C 0.77846 0.50002 0.96852 0.0
H115 H 0.055 0.24104 0.47774 0.0
H116 H 0.98079 0.24379 0.58543 0.0
H117 H 0.97744 0.25967 0.39137 0.0
C118 C 0.0329 0.24441 0.48099 0.0
C119 C 0.01782 0.25063 0.42788 0.0
C120 C 0.01979 0.24182 0.53797 0.0
C121 C 0.99118 0.24627 0.54183 0.0
C122 C 0.9757 0.25259 0.48907 0.0
C123 C 0.98918 0.25464 0.43219 0.0
H124 H 0.73981 0.93879 0.5034 0.0
H125 H 0.72091 0.0128 0.60371 0.0
H126 H 0.721 0.01331 0.40574 0.0
C127 C 0.73401 0.96045 0.50373 0.0
C128 C 0.73115 0.97461 0.44828 0.0
C129 C 0.72993 0.97407 0.55963 0.0
C130 C 0.72318 0.00221 0.56018 0.0
C131 C 0.71975 0.01667 0.50478 0.0
C132 C 0.72347 0.00253 0.44885 0.0
H133 H 0.54824 0.28153 0.03211 0.0
H134 H 0.47415 0.25471 0.12241 0.0
H135 H 0.47984 0.25176 0.92533 0.0
C136 C 0.52725 0.27374 0.02967 0.0
C137 C 0.51561 0.26753 0.97246 0.0
C138 C 0.51257 0.26879 0.08387 0.0
C139 C 0.48572 0.25791 0.08056 0.0
C140 C 0.47351 0.25211 0.02341 0.0
C141 C 0.48882 0.2566 0.96961 0.0
H142 H 0.24999 0.05073 0.49664 0.0
H143 H 0.26812 0.97734 0.39337 0.0
H144 H 0.2684 0.97534 0.59126 0.0
C145 C 0.25568 0.02905 0.49541 0.0
C146 C 0.25851 0.01443 0.55026 0.0
C147 C 0.25954 0.01584 0.43895 0.0
C148 C 0.26604 0.98764 0.4373 0.0
C149 C 0.26943 0.97273 0.49211 0.0
C150 C 0.26596 0.98647 0.54858 0.0
H151 H 0.44064 0.71257 0.95959 0.0
H152 H 0.51517 0.73904 0.87057 0.0
H153 H 0.50856 0.74263 0.06749 0.0
C154 C 0.46159 0.72046 0.96239 0.0
C155 C 0.47298 0.72681 0.01975 0.0
C156 C 0.47653 0.72523 0.90846 0.0
C157 C 0.50337 0.73608 0.91221 0.0
C158 C 0.51533 0.74201 0.96955 0.0
C159 C 0.49975 0.73775 0.02306 0.0
H160 H 0.10392 0.17935 0.13028 0.0
H161 H 0.14053 0.26066 0.1377 0.0
H162 H 0.06813 0.19426 0.20139 0.0
H163 H 0.10404 0.27603 0.20656 0.0
H164 H 0.0671 0.27502 0.40136 0.0
H165 H 0.09517 0.26811 0.3107 0.0
H166 H 0.02883 0.22156 0.22661 0.0
H167 H 0.00127 0.22726 0.31947 0.0
C168 C 0.10391 0.20061 0.14597 0.0
C169 C 0.1253 0.21868 0.12943 0.0
C170 C 0.08325 0.20926 0.18643 0.0
C171 C 0.08336 0.23629 0.21045 0.0
C172 C 0.10371 0.25488 0.19025 0.0
C173 C 0.12458 0.2461 0.15065 0.0
C174 C 0.05842 0.26352 0.36328 0.0
C175 C 0.03223 0.25123 0.36799 0.0
C176 C 0.07438 0.25982 0.31082 0.0
C177 C 0.06442 0.24398 0.26137 0.0
C178 C 0.03735 0.23342 0.2643 0.0
C179 C 0.02141 0.23697 0.31717 0.0
H180 H 0.27402 0.59035 0.56851 0.0
H181 H 0.24915 0.65615 0.69113 0.0
H182 H 0.25583 0.5564 0.64059 0.0
H183 H 0.23202 0.62252 0.7633 0.0
H184 H 0.18631 0.56057 0.87012 0.0
H185 H 0.19689 0.58978 0.78235 0.0
H186 H 0.26694 0.53767 0.73908 0.0
H187 H 0.25552 0.50796 0.82548 0.0
C188 C 0.26471 0.59758 0.61072 0.0
C189 C 0.2631 0.62599 0.624 0.0
C190 C 0.25436 0.57813 0.65209 0.0
C191 C 0.24232 0.5867 0.70767 0.0
C192 C 0.24053 0.61512 0.72041 0.0
C193 C 0.25064 0.63447 0.67908 0.0
C194 C 0.20363 0.55518 0.84101 0.0
C195 C 0.22021 0.53221 0.85454 0.0
C196 C 0.20984 0.57195 0.79103 0.0
C197 C 0.23308 0.56637 0.75423 0.0
C198 C 0.24876 0.54247 0.76601 0.0
C199 C 0.2423 0.52548 0.81558 0.0
H200 H 0.89136 0.78771 0.10425 0.0
H201 H 0.82735 0.7659 0.23332 0.0
H202 H 0.9265 0.77256 0.17749 0.0
H203 H 0.86211 0.75188 0.30666 0.0
H204 H 0.92551 0.70834 0.41432 0.0
H205 H 0.89492 0.71729 0.3277 0.0
H206 H 0.94702 0.7855 0.27313 0.0
H207 H 0.97825 0.77543 0.35842 0.0
C208 C 0.8848 0.77983 0.14827 0.0
C209 C 0.85656 0.77794 0.16285 0.0
C210 C 0.90492 0.7712 0.19028 0.0
C211 C 0.89717 0.76074 0.24783 0.0
C212 C 0.8689 0.75909 0.26225 0.0
C213 C 0.8489 0.7674 0.22025 0.0
C214 C 0.93058 0.72487 0.38293 0.0
C215 C 0.954 0.74132 0.39283 0.0
C216 C 0.91301 0.7302 0.33368 0.0
C217 C 0.91818 0.7525 0.2941 0.0
C218 C 0.94248 0.76806 0.30238 0.0
C219 C 0.96033 0.7624 0.35121 0.0
H220 H 0.7232 0.3972 0.62154 0.0
H221 H 0.74685 0.33087 0.74299 0.0
H222 H 0.74146 0.43079 0.69464 0.0
H223 H 0.76395 0.36423 0.81671 0.0
H224 H 0.80729 0.42664 0.92997 0.0
H225 H 0.79795 0.39695 0.84177 0.0
H226 H 0.72945 0.44971 0.79098 0.0
H227 H 0.73973 0.47985 0.87765 0.0
C228 C 0.73232 0.38978 0.66375 0.0
C229 C 0.73343 0.36134 0.67648 0.0
C230 C 0.74268 0.40904 0.70581 0.0
C231 C 0.75413 0.40031 0.76182 0.0
C232 C 0.7558 0.37181 0.7737 0.0
C233 C 0.74575 0.35259 0.73146 0.0
C234 C 0.79059 0.43205 0.89912 0.0
C235 C 0.77416 0.4554 0.91055 0.0
C236 C 0.78506 0.41498 0.84887 0.0
C237 C 0.76265 0.42064 0.80961 0.0
C238 C 0.74707 0.44481 0.81963 0.0
C239 C 0.75287 0.46209 0.86941 0.0
H240 H 0.60624 0.33068 0.39902 0.0
H241 H 0.63528 0.24868 0.35335 0.0
H242 H 0.56772 0.32497 0.32735 0.0
H243 H 0.59694 0.24309 0.28209 0.0
H244 H 0.51657 0.23394 0.1814 0.0
H245 H 0.54496 0.24024 0.27342 0.0
H246 H 0.56774 0.32179 0.21164 0.0
H247 H 0.53932 0.31552 0.12013 0.0
C248 C 0.60417 0.3113 0.37451 0.0
C249 C 0.62399 0.29025 0.38131 0.0
C250 C 0.58218 0.30809 0.33341 0.0
C251 C 0.5794 0.28362 0.29913 0.0
C252 C 0.5984 0.26207 0.30834 0.0
C253 C 0.62052 0.26539 0.34875 0.0
C254 C 0.52714 0.25343 0.18839 0.0
C255 C 0.52602 0.27417 0.14362 0.0
C256 C 0.54347 0.25696 0.24071 0.0
C257 C 0.55864 0.28143 0.24941 0.0
C258 C 0.5561 0.30281 0.20639 0.0
C259 C 0.54005 0.29915 0.15384 0.0
H260 H 0.18414 0.09678 0.86453 0.0
H261 H 0.26263 0.13657 0.83063 0.0
H262 H 0.19588 0.06088 0.79016 0.0
H263 H 0.27428 0.10054 0.75657 0.0
H264 H 0.29218 0.02062 0.64997 0.0
H265 H 0.28258 0.04786 0.74287 0.0
H266 H 0.20096 0.06651 0.6738 0.0
H267 H 0.21069 0.03972 0.58135 0.0
C268 C 0.20411 0.09759 0.8422 0.0
C269 C 0.22231 0.11973 0.85289 0.0
C270 C 0.21076 0.07708 0.79955 0.0
C271 C 0.23589 0.07808 0.76751 0.0
C272 C 0.25484 0.0992 0.78097 0.0
C273 C 0.24806 0.11992 0.82301 0.0
C274 C 0.27212 0.03029 0.6554 0.0
C275 C 0.25219 0.02836 0.60879 0.0
C276 C 0.26667 0.04585 0.70818 0.0
C277 C 0.24102 0.05917 0.71541 0.0
C278 C 0.22076 0.05619 0.66972 0.0
C279 C 0.22638 0.04109 0.61673 0.0
H280 H 0.34555 0.74341 0.28835 0.0
H281 H 0.38007 0.66335 0.33164 0.0
H282 H 0.38188 0.75057 0.21285 0.0
H283 H 0.41645 0.67067 0.25594 0.0
H284 H 0.46394 0.76288 0.11398 0.0
H285 H 0.43387 0.75621 0.20293 0.0
H286 H 0.41493 0.67365 0.14008 0.0
H287 H 0.44503 0.68029 0.05159 0.0
C288 C 0.36101 0.72744 0.28219 0.0
C289 C 0.35976 0.70269 0.31563 0.0
C290 C 0.38194 0.73167 0.23928 0.0
C291 C 0.40188 0.71113 0.22849 0.0
C292 C 0.40116 0.68674 0.26312 0.0
C293 C 0.38041 0.68262 0.30658 0.0
C294 C 0.45364 0.74321 0.11983 0.0
C295 C 0.45662 0.72214 0.07595 0.0
C296 C 0.43636 0.73945 0.17037 0.0
C297 C 0.42209 0.71443 0.17824 0.0
C298 C 0.42588 0.69305 0.13543 0.0
C299 C 0.44288 0.69691 0.0846 0.0
H300 H 0.76043 0.83243 0.77467 0.0
H301 H 0.78323 0.89644 0.90371 0.0
H302 H 0.74585 0.86712 0.70204 0.0
H303 H 0.76759 0.93153 0.831 0.0
H304 H 0.76829 0.98289 0.64899 0.0
H305 H 0.77956 0.95196 0.73405 0.0
H306 H 0.71053 0.89977 0.68394 0.0
H307 H 0.70036 0.93001 0.59765 0.0
C308 C 0.76205 0.85396 0.7879 0.0
C309 C 0.77295 0.86162 0.84516 0.0
C310 C 0.75343 0.87393 0.74629 0.0
C311 C 0.75514 0.90217 0.76091 0.0
C312 C 0.76612 0.90996 0.81816 0.0
C313 C 0.77502 0.88986 0.85984 0.0
C314 C 0.75534 0.96502 0.65721 0.0
C315 C 0.73365 0.95854 0.61698 0.0
C316 C 0.7617 0.94735 0.70587 0.0
C317 C 0.74625 0.9231 0.71521 0.0
C318 C 0.72334 0.91783 0.67709 0.0
C319 C 0.71731 0.93522 0.62808 0.0
H320 H 0.88697 0.81235 0.87489 0.0
H321 H 0.8482 0.73354 0.8382 0.0
H322 H 0.92315 0.80132 0.80084 0.0
H323 H 0.88453 0.72259 0.76449 0.0
H324 H 0.96557 0.70621 0.66018 0.0
H325 H 0.9377 0.71513 0.75238 0.0
H326 H 0.91764 0.79636 0.68392 0.0
H327 H 0.945 0.78725 0.59209 0.0
C328 C 0.88643 0.79248 0.85197 0.0
C329 C 0.86451 0.77397 0.86182 0.0
C330 C 0.90711 0.78623 0.80952 0.0
C331 C 0.90649 0.76119 0.77687 0.0
C332 C 0.88556 0.74196 0.78939 0.0
C333 C 0.86466 0.74835 0.83121 0.0
C334 C 0.95545 0.72604 0.66563 0.0
C335 C 0.95717 0.74604 0.61942 0.0
C336 C 0.93952 0.73111 0.71798 0.0
C337 C 0.92565 0.75646 0.72517 0.0
C338 C 0.92839 0.77679 0.67986 0.0
C339 C 0.94384 0.77155 0.62727 0.0
H340 H 0.71843 0.3987 0.4246 0.0
H341 H 0.74199 0.33246 0.30191 0.0
H342 H 0.73696 0.43232 0.35225 0.0
H343 H 0.75944 0.36579 0.2294 0.0
H344 H 0.80557 0.4272 0.12143 0.0
H345 H 0.79481 0.39801 0.20913 0.0
H346 H 0.7259 0.45129 0.25426 0.0
H347 H 0.7375 0.48095 0.16793 0.0
C348 C 0.72753 0.3913 0.3823 0.0
C349 C 0.72865 0.36287 0.36908 0.0
C350 C 0.73808 0.41057 0.34075 0.0
C351 C 0.74981 0.40181 0.285 0.0
C352 C 0.75117 0.37335 0.27237 0.0
C353 C 0.74088 0.35416 0.31391 0.0
C354 C 0.78845 0.43284 0.15091 0.0
C355 C 0.77225 0.45614 0.13791 0.0
C356 C 0.78214 0.41607 0.20086 0.0
C357 C 0.75917 0.422 0.23822 0.0
C358 C 0.74386 0.4462 0.22691 0.0
C359 C 0.75044 0.46318 0.17738 0.0
H360 H 0.0981 0.19906 0.88987 0.0
H361 H 0.16227 0.21756 0.75845 0.0
H362 H 0.06292 0.20852 0.81151 0.0
H363 H 0.12727 0.2266 0.68095 0.0
H364 H 0.06019 0.20265 0.54421 0.0
H365 H 0.09121 0.1931 0.62942 0.0
H366 H 0.04734 0.25214 0.74155 0.0
H367 H 0.01654 0.26256 0.65516 0.0
C368 C 0.10469 0.20519 0.8445 0.0
C369 C 0.13298 0.20744 0.83029 0.0
C370 C 0.08458 0.21069 0.79995 0.0
C371 C 0.09251 0.21803 0.74036 0.0
C372 C 0.12069 0.22069 0.7265 0.0
C373 C 0.1407 0.21564 0.77103 0.0
C374 C 0.05716 0.21374 0.58685 0.0
C375 C 0.03628 0.23381 0.59252 0.0
C376 C 0.07483 0.20814 0.63564 0.0
C377 C 0.07179 0.22216 0.69152 0.0
C378 C 0.05 0.24108 0.69873 0.0
C379 C 0.03241 0.24697 0.64944 0.0
H380 H 0.26837 0.59191 0.37139 0.0
H381 H 0.24383 0.65804 0.25026 0.0
H382 H 0.25062 0.55816 0.29804 0.0
H383 H 0.22727 0.62455 0.1763 0.0
H384 H 0.18492 0.56178 0.06237 0.0
H385 H 0.19379 0.59147 0.1508 0.0
H386 H 0.26286 0.53949 0.20174 0.0
H387 H 0.25303 0.5093 0.11491 0.0
C388 C 0.25917 0.59925 0.3292 0.0
C389 C 0.25764 0.62768 0.31662 0.0
C390 C 0.24909 0.5799 0.28699 0.0
C391 C 0.23754 0.58854 0.23101 0.0
C392 C 0.23549 0.61703 0.21929 0.0
C393 C 0.24523 0.63632 0.26167 0.0
C394 C 0.20166 0.55655 0.09328 0.0
C395 C 0.21837 0.5334 0.08189 0.0
C396 C 0.20691 0.57361 0.14367 0.0
C397 C 0.22933 0.56817 0.18306 0.0
C398 C 0.24523 0.54421 0.173 0.0
C399 C 0.23969 0.52692 0.12312 0.0
H400 H 0.35454 0.74235 0.63734 0.0
H401 H 0.3848 0.66058 0.59351 0.0
H402 H 0.39284 0.74887 0.70831 0.0
H403 H 0.42328 0.66723 0.66493 0.0
H404 H 0.47265 0.75955 0.81003 0.0
H405 H 0.44481 0.75244 0.71743 0.0
H406 H 0.42276 0.67092 0.78067 0.0
H407 H 0.45059 0.67801 0.87274 0.0
C408 C 0.36958 0.72589 0.64226 0.0
C409 C 0.36645 0.7008 0.61039 0.0
C410 C 0.39167 0.72975 0.68249 0.0
C411 C 0.41097 0.70852 0.69218 0.0
C412 C 0.40857 0.68386 0.65845 0.0
C413 C 0.38661 0.68011 0.61752 0.0
C414 C 0.46236 0.7399 0.80323 0.0
C415 C 0.46348 0.71941 0.84854 0.0
C416 C 0.44636 0.73589 0.75058 0.0
C417 C 0.43155 0.71119 0.74212 0.0
C418 C 0.43413 0.69006 0.78572 0.0
C419 C 0.44984 0.69419 0.83858 0.0
H420 H 0.80573 0.8911 0.13548 0.0
H421 H 0.72742 0.85098 0.16957 0.0
H422 H 0.79401 0.92678 0.21039 0.0
H423 H 0.71578 0.88682 0.24418 0.0
H424 H 0.69756 0.96754 0.34868 0.0
H425 H 0.70726 0.93959 0.25688 0.0
H426 H 0.78885 0.92156 0.32691 0.0
H427 H 0.77902 0.94906 0.41832 0.0
C428 C 0.78582 0.89014 0.15805 0.0
C429 C 0.76764 0.86801 0.14708 0.0
C430 C 0.77918 0.91053 0.20103 0.0
C431 C 0.75408 0.90943 0.23316 0.0
C432 C 0.7352 0.88823 0.2197 0.0
C433 C 0.74198 0.86762 0.17734 0.0
C434 C 0.71764 0.95785 0.34371 0.0
C435 C 0.73753 0.9602 0.39031 0.0
C436 C 0.72314 0.94186 0.29157 0.0
C437 C 0.74881 0.92852 0.28491 0.0
C438 C 0.76902 0.93186 0.33057 0.0
C439 C 0.76335 0.94739 0.38296 0.0
H440 H 0.61026 0.32849 0.66017 0.0
H441 H 0.64283 0.24778 0.70493 0.0
H442 H 0.57357 0.32223 0.73564 0.0
H443 H 0.60619 0.24168 0.78017 0.0
H444 H 0.52394 0.23122 0.87838 0.0
H445 H 0.55418 0.23718 0.78952 0.0
H446 H 0.5745 0.31953 0.85152 0.0
H447 H 0.5442 0.31362 0.93995 0.0
C448 C 0.60943 0.3093 0.68551 0.0
C449 C 0.62962 0.28873 0.6769 0.0
C450 C 0.58849 0.3058 0.72884 0.0
C451 C 0.58713 0.28152 0.76378 0.0
C452 C 0.60662 0.26051 0.75349 0.0
C453 C 0.62773 0.26412 0.71072 0.0
C454 C 0.53455 0.25072 0.87234 0.0
C455 C 0.5319 0.27193 0.91602 0.0
C456 C 0.55195 0.25406 0.82184 0.0
C457 C 0.56669 0.27878 0.8138 0.0
C458 C 0.5632 0.30035 0.85631 0.0
C459 C 0.54607 0.2969 0.90711 0.0
H460 H 0.22731 0.15796 0.22467 0.0
H461 H 0.20705 0.09351 0.09467 0.0
H462 H 0.24183 0.12351 0.2981 0.0
H463 H 0.22266 0.05874 0.168 0.0
H464 H 0.22194 0.0067 0.34818 0.0
H465 H 0.21041 0.03783 0.26376 0.0
H466 H 0.27759 0.09162 0.31792 0.0
H467 H 0.28801 0.06111 0.40357 0.0
C468 C 0.22624 0.1364 0.21146 0.0
C469 C 0.21607 0.12851 0.15371 0.0
C470 C 0.23481 0.11658 0.25351 0.0
C471 C 0.23381 0.0883 0.23875 0.0
C472 C 0.22355 0.08033 0.181 0.0
C473 C 0.21466 0.10024 0.13895 0.0
C474 C 0.23443 0.02498 0.34103 0.0
C475 C 0.25567 0.03178 0.38219 0.0
C476 C 0.22792 0.04278 0.29274 0.0
C477 C 0.24277 0.0675 0.28464 0.0
C478 C 0.26521 0.07318 0.3238 0.0
C479 C 0.27139 0.05565 0.37245 0.0
H480 H 0.21008 0.30215 0.07713 0.0
H481 H 0.21209 0.29808 0.87916 0.0
H482 H 0.20986 0.35224 0.07249 0.0
H483 H 0.2123 0.34848 0.87484 0.0
H484 H 0.1838 0.43935 0.89576 0.0
H485 H 0.18263 0.3889 0.89732 0.0
H486 H 0.24244 0.3887 0.04453 0.0
H487 H 0.24366 0.43899 0.0429 0.0
C488 C 0.2105 0.31189 0.03254 0.0
C489 C 0.21125 0.29601 0.97848 0.0
C490 C 0.21053 0.34065 0.02998 0.0
C491 C 0.21131 0.35429 0.97335 0.0
C492 C 0.21151 0.33852 0.91916 0.0
C493 C 0.2115 0.30966 0.92169 0.0
C494 C 0.19685 0.42848 0.9281 0.0
C495 C 0.2137 0.44311 0.96946 0.0
C496 C 0.19618 0.39963 0.92896 0.0
C497 C 0.21233 0.38487 0.97125 0.0
C498 C 0.22937 0.39952 0.01217 0.0
C499 C 0.23005 0.42832 0.01128 0.0
H500 H 0.18372 0.71604 0.38472 0.0
H501 H 0.18946 0.71669 0.58254 0.0
H502 H 0.13354 0.71894 0.39192 0.0
H503 H 0.13932 0.71912 0.5894 0.0
H504 H 0.05271 0.75785 0.57271 0.0
H505 H 0.10276 0.75276 0.56737 0.0
H506 H 0.09347 0.69136 0.42474 0.0
H507 H 0.04329 0.69639 0.43023 0.0
C508 C 0.17434 0.71669 0.42972 0.0
C509 C 0.19069 0.71627 0.48304 0.0
C510 C 0.14556 0.71816 0.4338 0.0
C511 C 0.13251 0.71928 0.49123 0.0
C512 C 0.14881 0.71864 0.5445 0.0
C513 C 0.17756 0.71713 0.54048 0.0
C514 C 0.06132 0.74297 0.54085 0.0
C515 C 0.04407 0.7275 0.50194 0.0
C516 C 0.08999 0.74008 0.53773 0.0
C517 C 0.10203 0.72169 0.49558 0.0
C518 C 0.08479 0.70599 0.45707 0.0
C519 C 0.05609 0.70886 0.46025 0.0
H520 H 0.77797 0.69063 0.11326 0.0
H521 H 0.78085 0.68653 0.91537 0.0
H522 H 0.77967 0.64033 0.11787 0.0
H523 H 0.78202 0.6364 0.92022 0.0
H524 H 0.81111 0.54815 0.95309 0.0
H525 H 0.81216 0.59853 0.95139 0.0
H526 H 0.74976 0.60106 0.09276 0.0
H527 H 0.74873 0.55071 0.09447 0.0
C528 C 0.77896 0.67907 0.07076 0.0
C529 C 0.77921 0.69269 0.01395 0.0
C530 C 0.77979 0.65023 0.07344 0.0
C531 C 0.78094 0.6344 0.01941 0.0
C532 C 0.7815 0.64801 0.9627 0.0
C533 C 0.78064 0.67679 0.95998 0.0
C534 C 0.79753 0.55949 0.98357 0.0
C535 C 0.77982 0.54548 0.02385 0.0
C536 C 0.79814 0.58833 0.98263 0.0
C537 C 0.78103 0.60377 0.02192 0.0
C538 C 0.7635 0.58975 0.0626 0.0
C539 C 0.76289 0.56091 0.06354 0.0
H540 H 0.80503 0.26529 0.61005 0.0
H541 H 0.80093 0.27559 0.41347 0.0
H542 H 0.8551 0.26068 0.60367 0.0
H543 H 0.85096 0.27161 0.4075 0.0
H544 H 0.93638 0.23133 0.41265 0.0
H545 H 0.8864 0.23671 0.41957 0.0
H546 H 0.89643 0.28741 0.58141 0.0
H547 H 0.94651 0.28179 0.57468 0.0
C548 C 0.81477 0.26674 0.56553 0.0
C549 C 0.79889 0.27069 0.51225 0.0
C550 C 0.84351 0.26425 0.56195 0.0
C551 C 0.85699 0.26572 0.50507 0.0
C552 C 0.84115 0.26994 0.45191 0.0
C553 C 0.81245 0.27236 0.45543 0.0
C554 C 0.92791 0.24383 0.44936 0.0
C555 C 0.94533 0.2562 0.49304 0.0
C556 C 0.89928 0.24694 0.45332 0.0
C557 C 0.88745 0.26254 0.50097 0.0
C558 C 0.90489 0.27494 0.54465 0.0
C559 C 0.93355 0.27177 0.54077 0.0
H560 H 0.70205 0.18711 0.61643 0.0
H561 H 0.69545 0.19031 0.41891 0.0
H562 H 0.70275 0.13677 0.61165 0.0
H563 H 0.69587 0.1401 0.41456 0.0
H564 H 0.68407 0.04483 0.58017 0.0
H565 H 0.6757 0.09463 0.58374 0.0
H566 H 0.73296 0.10605 0.43432 0.0
H567 H 0.74166 0.0566 0.4313 0.0
C568 C 0.70029 0.17714 0.5721 0.0
C569 C 0.69908 0.19282 0.51801 0.0
C570 C 0.70057 0.14828 0.56944 0.0
C571 C 0.69971 0.13454 0.51267 0.0
C572 C 0.69706 0.15016 0.45889 0.0
C573 C 0.6967 0.17896 0.4615 0.0
C574 C 0.69492 0.05801 0.54823 0.0
C575 C 0.71351 0.04672 0.50539 0.0
C576 C 0.69006 0.08648 0.55021 0.0
C577 C 0.70356 0.10419 0.50913 0.0
C578 C 0.72183 0.09287 0.46581 0.0
C579 C 0.7268 0.06449 0.46405 0.0
H580 H 0.30791 0.20627 0.90718 0.0
H581 H 0.30327 0.21213 0.10469 0.0
H582 H 0.35766 0.21322 0.91221 0.0
H583 H 0.35307 0.21952 0.10934 0.0
H584 H 0.44756 0.21372 0.09561 0.0
H585 H 0.39925 0.19896 0.09035 0.0
H586 H 0.38582 0.25382 0.93742 0.0
H587 H 0.43373 0.26868 0.94293 0.0
C588 C 0.31748 0.20881 0.95173 0.0
C589 C 0.30148 0.20901 0.00549 0.0
C590 C 0.34599 0.21291 0.95453 0.0
C591 C 0.35919 0.21729 0.01108 0.0
C592 C 0.34349 0.21607 0.06509 0.0
C593 C 0.31491 0.21196 0.06235 0.0
C594 C 0.43423 0.22265 0.06102 0.0
C595 C 0.44449 0.2423 0.01956 0.0
C596 C 0.40662 0.21416 0.05794 0.0
C597 C 0.38881 0.2251 0.01323 0.0
C598 C 0.39917 0.24457 0.97158 0.0
C599 C 0.42665 0.2531 0.97475 0.0
H600 H 0.29335 0.79898 0.57475 0.0
H601 H 0.28572 0.80237 0.3774 0.0
H602 H 0.29284 0.84917 0.57936 0.0
H603 H 0.28497 0.85272 0.38248 0.0
H604 H 0.30462 0.94465 0.41543 0.0
H605 H 0.31256 0.89478 0.41062 0.0
H606 H 0.25541 0.88313 0.56014 0.0
H607 H 0.24709 0.93263 0.56435 0.0
C608 C 0.29183 0.81037 0.53225 0.0
C609 C 0.28921 0.79657 0.47572 0.0
C610 C 0.29143 0.83915 0.53502 0.0
C611 C 0.28851 0.85481 0.48138 0.0
C612 C 0.28735 0.84115 0.42456 0.0
C613 C 0.28766 0.8123 0.42173 0.0
C614 C 0.29369 0.93141 0.44709 0.0
C615 C 0.27528 0.94263 0.4904 0.0
C616 C 0.2983 0.90291 0.4444 0.0
C617 C 0.28473 0.88513 0.48524 0.0
C618 C 0.26657 0.89638 0.52886 0.0
C619 C 0.26184 0.92477 0.53131 0.0
H620 H 0.68164 0.78448 0.08681 0.0
H621 H 0.68667 0.77662 0.88966 0.0
H622 H 0.63173 0.77899 0.08137 0.0
H623 H 0.63666 0.77073 0.88463 0.0
H624 H 0.54232 0.77959 0.89707 0.0
H625 H 0.591 0.79312 0.90255 0.0
H626 H 0.60261 0.73882 0.05715 0.0
H627 H 0.55439 0.72512 0.05137 0.0
C628 C 0.67213 0.78179 0.04224 0.0
C629 C 0.68826 0.7806 0.98873 0.0
C630 C 0.64352 0.77856 0.03921 0.0
C631 C 0.63035 0.77408 0.98268 0.0
C632 C 0.64623 0.77429 0.92884 0.0
C633 C 0.67491 0.77752 0.93181 0.0
C634 C 0.55533 0.77054 0.93212 0.0
C635 C 0.54448 0.75135 0.97392 0.0
C636 C 0.58314 0.77833 0.9353 0.0
C637 C 0.60054 0.76715 0.9805 0.0
C638 C 0.58958 0.74822 0.0226 0.0
C639 C 0.56191 0.74038 0.01928 0.0
loop_
_geom_bond_atom_site_label_1
_geom_bond_atom_site_label_2
_geom_bond_distance
_geom_bond_site_symmetry_2
_ccdc_geom_bond_type
Sc0 O3 2.030 . S
Sc0 O10 2.105 . S
Sc0 O13 2.105 . S
Sc0 O16 2.105 . S
Sc0 O19 2.105 . S
Sc1 O3 2.025 . S
Sc1 O11 2.108 . S
Sc1 O15 2.101 1_554 S
Sc1 O17 2.108 . S
Sc1 O21 2.101 1_554 S
Sc2 O3 2.021 1_556 S
Sc2 O12 2.105 . S
Sc2 O14 2.105 . S
Sc2 O18 2.105 . S
Sc2 O20 2.105 . S
O3 Sc0 2.030 . S
O3 Sc1 2.025 . S
O3 Sc2 2.021 1_554 S
C4 O10 1.271 . S
C4 O20 1.265 1_554 S
C5 O11 1.268 . S
C5 O19 1.268 . S
C6 O12 1.268 . S
C6 O21 1.268 . S
C7 O13 1.268 . S
C7 O17 1.268 . S
C8 O14 1.262 1_554 S
C8 O16 1.274 . S
C9 O15 1.268 . S
C9 O18 1.268 . S
O10 Sc0 2.105 . S
O10 C4 1.271 . S
O11 Sc1 2.108 . S
O11 C5 1.268 . S
O12 Sc2 2.105 . S
O12 C6 1.268 . S
O13 Sc0 2.105 . S
O13 C7 1.268 . S
O14 Sc2 2.105 . S
O14 C8 1.262 1_556 S
O15 Sc1 2.101 1_556 S
O15 C9 1.268 . S
O16 Sc0 2.105 . S
O16 C8 1.274 . S
O17 Sc1 2.108 . S
O17 C7 1.268 . S
O18 Sc2 2.105 . S
O18 C9 1.268 . S
O19 Sc0 2.105 . S
O19 C5 1.268 . S
O20 Sc2 2.105 . S
O20 C4 1.265 1_556 S
O21 Sc1 2.101 1_556 S
O21 C6 1.268 . S
Sc22 O25 2.025 . S
Sc22 O32 2.105 . S
Sc22 O35 2.105 . S
Sc22 O38 2.105 . S
Sc22 O41 2.105 . S
Sc23 O25 2.025 . S
Sc23 O33 2.105 . S
Sc23 O37 2.105 . S
Sc23 O39 2.105 . S
Sc23 O43 2.105 . S
Sc24 O25 2.025 . S
Sc24 O34 2.105 . S
Sc24 O36 2.105 . S
Sc24 O40 2.105 . S
Sc24 O42 2.105 . S
O25 Sc22 2.025 . S
O25 Sc23 2.025 . S
O25 Sc24 2.025 . S
C26 O32 1.268 . S
C26 O42 1.268 . S
C27 O33 1.268 . S
C27 O41 1.268 . S
C28 O34 1.268 . S
C28 O43 1.268 . S
C29 O35 1.268 . S
C29 O39 1.268 . S
C30 O36 1.268 . S
C30 O38 1.268 . S
C31 O37 1.268 . S
C31 O40 1.268 . S
O32 Sc22 2.105 . S
O32 C26 1.268 . S
O33 Sc23 2.105 . S
O33 C27 1.268 . S
O34 Sc24 2.105 . S
O34 C28 1.268 . S
O35 Sc22 2.105 . S
O35 C29 1.268 . S
O36 Sc24 2.105 . S
O36 C30 1.268 . S
O37 Sc23 2.105 . S
O37 C31 1.268 . S
O38 Sc22 2.105 . S
O38 C30 1.268 . S
O39 Sc23 2.105 . S
O39 C29 1.268 . S
O40 Sc24 2.105 . S
O40 C31 1.268 . S
O41 Sc22 2.105 . S
O41 C27 1.268 . S
O42 Sc24 2.105 . S
O42 C26 1.268 . S
O43 Sc23 2.105 . S
O43 C28 1.268 . S
Sc44 O47 2.021 1_556 S
Sc44 O54 2.105 . S
Sc44 O57 2.105 . S
Sc44 O60 2.105 . S
Sc44 O63 2.105 . S
Sc45 O47 2.025 . S
Sc45 O55 2.101 1_554 S
Sc45 O59 2.108 . S
Sc45 O61 2.101 1_554 S
Sc45 O65 2.108 . S
Sc46 O47 2.030 . S
Sc46 O56 2.105 . S
Sc46 O58 2.105 . S
Sc46 O62 2.105 . S
Sc46 O64 2.105 . S
O47 Sc44 2.021 1_554 S
O47 Sc45 2.025 . S
O47 Sc46 2.030 . S
C48 O54 1.265 1_554 S
C48 O64 1.271 . S
C49 O55 1.268 . S
C49 O63 1.268 . S
C50 O56 1.268 . S
C50 O65 1.268 . S
C51 O57 1.268 . S
C51 O61 1.268 . S
C52 O58 1.274 . S
C52 O60 1.262 1_554 S
C53 O59 1.268 . S
C53 O62 1.268 . S
O54 Sc44 2.105 . S
O54 C48 1.265 1_556 S
O55 Sc45 2.101 1_556 S
O55 C49 1.268 . S
O56 Sc46 2.105 . S
O56 C50 1.268 . S
O57 Sc44 2.105 . S
O57 C51 1.268 . S
O58 Sc46 2.105 . S
O58 C52 1.274 . S
O59 Sc45 2.108 . S
O59 C53 1.268 . S
O60 Sc44 2.105 . S
O60 C52 1.262 1_556 S
O61 Sc45 2.101 1_556 S
O61 C51 1.268 . S
O62 Sc46 2.105 . S
O62 C53 1.268 . S
O63 Sc44 2.105 . S
O63 C49 1.268 . S
O64 Sc46 2.105 . S
O64 C48 1.271 . S
O65 Sc45 2.108 . S
O65 C50 1.268 . S
Sc66 O69 2.025 . S
Sc66 O76 2.105 . S
Sc66 O79 2.105 . S
Sc66 O82 2.105 . S
Sc66 O85 2.105 . S
Sc67 O69 2.025 . S
Sc67 O77 2.105 . S
Sc67 O81 2.105 . S
Sc67 O83 2.105 . S
Sc67 O87 2.105 . S
Sc68 O69 2.025 . S
Sc68 O78 2.105 . S
Sc68 O80 2.105 . S
Sc68 O84 2.105 . S
Sc68 O86 2.105 . S
O69 Sc66 2.025 . S
O69 Sc67 2.025 . S
O69 Sc68 2.025 . S
C70 O76 1.268 . S
C70 O86 1.268 . S
C71 O77 1.268 . S
C71 O85 1.268 . S
C72 O78 1.268 . S
C72 O87 1.268 . S
C73 O79 1.268 . S
C73 O83 1.268 . S
C74 O80 1.268 . S
C74 O82 1.268 . S
C75 O81 1.268 . S
C75 O84 1.268 . S
O76 Sc66 2.105 . S
O76 C70 1.268 . S
O77 Sc67 2.105 . S
O77 C71 1.268 . S
O78 Sc68 2.105 . S
O78 C72 1.268 . S
O79 Sc66 2.105 . S
O79 C73 1.268 . S
O80 Sc68 2.105 . S
O80 C74 1.268 . S
O81 Sc67 2.105 . S
O81 C75 1.268 . S
O82 Sc66 2.105 . S
O82 C74 1.268 . S
O83 Sc67 2.105 . S
O83 C73 1.268 . S
O84 Sc68 2.105 . S
O84 C75 1.268 . S
O85 Sc66 2.105 . S
O85 C71 1.268 . S
O86 Sc68 2.105 . S
O86 C70 1.268 . S
O87 Sc67 2.105 . S
O87 C72 1.268 . S
H88 C91 0.931 . S
H89 C94 0.928 . S
H90 C96 0.930 . S
C91 H88 0.931 . S
C91 C92 1.399 1_556 S
C91 C93 1.374 . S
C92 C91 1.399 1_554 S
C92 C96 1.429 . S
C93 C91 1.374 . S
C93 C94 1.372 . S
C94 H89 0.928 . S
C94 C93 1.372 . S
C94 C95 1.406 . S
C95 C94 1.406 . S
C95 C96 1.388 1_556 S
C96 H90 0.930 . S
C96 C92 1.429 . S
C96 C95 1.388 1_554 S
H97 C100 0.931 . S
H98 C103 0.928 1_455 S
H99 C105 0.930 1_455 S
C100 H97 0.931 . S
C100 C101 1.413 . S
C100 C102 1.360 . S
C101 C100 1.413 . S
C101 C105 1.429 . S
C102 C100 1.360 . S
C102 C103 1.372 . S
C103 H98 0.928 1_655 S
C103 C102 1.372 . S
C103 C104 1.404 1_655 S
C104 C103 1.404 1_455 S
C104 C105 1.391 1_455 S
C105 H99 0.930 1_655 S
C105 C101 1.429 . S
C105 C104 1.391 1_655 S
H106 C109 0.931 . S
H107 C112 0.928 . S
H108 C114 0.930 . S
C109 H106 0.931 . S
C109 C110 1.413 1_554 S
C109 C111 1.360 . S
C110 C109 1.413 1_556 S
C110 C114 1.429 . S
C111 C109 1.360 . S
C111 C112 1.372 . S
C112 H107 0.928 . S
C112 C111 1.372 . S
C112 C113 1.418 . S
C113 C112 1.418 . S
C113 C114 1.376 1_554 S
C114 H108 0.930 . S
C114 C110 1.429 . S
C114 C113 1.376 1_556 S
H115 C118 0.931 . S
H116 C121 0.928 1_655 S
H117 C123 0.930 1_655 S
C118 H115 0.931 . S
C118 C119 1.413 . S
C118 C120 1.360 . S
C119 C118 1.413 . S
C119 C123 1.429 . S
C120 C118 1.360 . S
C120 C121 1.372 . S
C121 H116 0.928 1_455 S
C121 C120 1.372 . S
C121 C122 1.404 1_455 S
C122 C121 1.404 1_655 S
C122 C123 1.391 1_655 S
C123 H117 0.930 1_455 S
C123 C119 1.429 . S
C123 C122 1.391 1_455 S
H124 C127 0.931 . S
H125 C130 0.928 1_545 S
H126 C132 0.930 1_545 S
C127 H124 0.931 . S
C127 C128 1.413 . S
C127 C129 1.360 . S
C128 C127 1.413 . S
C128 C132 1.429 . S
C129 C127 1.360 . S
C129 C130 1.372 . S
C130 H125 0.928 1_565 S
C130 C129 1.372 . S
C130 C131 1.404 1_565 S
C131 C130 1.404 1_545 S
C131 C132 1.391 1_545 S
C132 H126 0.930 1_565 S
C132 C128 1.429 . S
C132 C131 1.391 1_565 S
H133 C136 0.931 . S
H134 C139 0.928 . S
H135 C141 0.930 . S
C136 H133 0.931 . S
C136 C137 1.413 1_554 S
C136 C138 1.360 . S
C137 C136 1.413 1_556 S
C137 C141 1.429 . S
C138 C136 1.360 . S
C138 C139 1.372 . S
C139 H134 0.928 . S
C139 C138 1.372 . S
C139 C140 1.418 . S
C140 C139 1.418 . S
C140 C141 1.376 1_554 S
C141 H135 0.930 . S
C141 C137 1.429 . S
C141 C140 1.376 1_556 S
H142 C145 0.931 . S
H143 C148 0.928 1_565 S
H144 C150 0.930 1_565 S
C145 H142 0.931 . S
C145 C146 1.413 . S
C145 C147 1.360 . S
C146 C145 1.413 . S
C146 C150 1.429 . S
C147 C145 1.360 . S
C147 C148 1.372 . S
C148 H143 0.928 1_545 S
C148 C147 1.372 . S
C148 C149 1.404 1_545 S
C149 C148 1.404 1_565 S
C149 C150 1.391 1_565 S
C150 H144 0.930 1_545 S
C150 C146 1.429 . S
C150 C149 1.391 1_545 S
H151 C154 0.931 . S
H152 C157 0.928 . S
H153 C159 0.930 . S
C154 H151 0.931 . S
C154 C155 1.399 1_556 S
C154 C156 1.374 . S
C155 C154 1.399 1_554 S
C155 C159 1.429 . S
C156 C154 1.374 . S
C156 C157 1.372 . S
C157 H152 0.928 . S
C157 C156 1.372 . S
C157 C158 1.406 . S
C158 C157 1.406 . S
C158 C159 1.388 1_556 S
C159 H153 0.930 . S
C159 C155 1.429 . S
C159 C158 1.388 1_554 S
H160 C168 0.950 . S
H161 C173 0.950 . S
H162 C170 0.950 . S
H163 C172 0.950 . S
H164 C174 0.950 . S
H165 C176 0.950 . S
H166 C178 0.950 . S
H167 C179 0.950 . S
C168 H160 0.950 . S
C168 C169 1.386 . S
C168 C170 1.391 . S
C169 C168 1.386 . S
C169 C173 1.393 . S
C170 H162 0.950 . S
C170 C168 1.391 . S
C170 C171 1.400 . S
C171 C170 1.400 . S
C171 C172 1.398 . S
C171 C177 1.491 . S
C172 H163 0.950 . S
C172 C171 1.398 . S
C172 C173 1.391 . S
C173 H161 0.950 . S
C173 C169 1.393 . S
C173 C172 1.391 . S
C174 H164 0.950 . S
C174 C175 1.386 . S
C174 C176 1.391 . S
C175 C174 1.386 . S
C175 C179 1.393 . S
C176 H165 0.950 . S
C176 C174 1.391 . S
C176 C177 1.400 . S
C177 C171 1.491 . S
C177 C176 1.400 . S
C177 C178 1.398 . S
C178 H166 0.950 . S
C178 C177 1.398 . S
C178 C179 1.391 . S
C179 H167 0.950 . S
C179 C175 1.393 . S
C179 C178 1.391 . S
H180 C188 0.950 . S
H181 C193 0.950 . S
H182 C190 0.950 . S
H183 C192 0.950 . S
H184 C194 0.950 . S
H185 C196 0.950 . S
H186 C198 0.950 . S
H187 C199 0.950 . S
C188 H180 0.950 . S
C188 C189 1.386 . S
C188 C190 1.391 . S
C189 C188 1.386 . S
C189 C193 1.393 . S
C190 H182 0.950 . S
C190 C188 1.391 . S
C190 C191 1.400 . S
C191 C190 1.400 . S
C191 C192 1.398 . S
C191 C197 1.491 . S
C192 H183 0.950 . S
C192 C191 1.398 . S
C192 C193 1.391 . S
C193 H181 0.950 . S
C193 C189 1.393 . S
C193 C192 1.391 . S
C194 H184 0.950 . S
C194 C195 1.386 . S
C194 C196 1.391 . S
C195 C194 1.386 . S
C195 C199 1.393 . S
C196 H185 0.950 . S
C196 C194 1.391 . S
C196 C197 1.400 . S
C197 C191 1.491 . S
C197 C196 1.400 . S
C197 C198 1.398 . S
C198 H186 0.950 . S
C198 C197 1.398 . S
C198 C199 1.391 . S
C199 H187 0.950 . S
C199 C195 1.393 . S
C199 C198 1.391 . S
H200 C208 0.950 . S
H201 C213 0.950 . S
H202 C210 0.950 . S
H203 C212 0.950 . S
H204 C214 0.950 . S
H205 C216 0.950 . S
H206 C218 0.950 . S
H207 C219 0.950 . S
C208 H200 0.950 . S
C208 C209 1.386 . S
C208 C210 1.391 . S
C209 C208 1.386 . S
C209 C213 1.393 . S
C210 H202 0.950 . S
C210 C208 1.391 . S
C210 C211 1.400 . S
C211 C210 1.400 . S
C211 C212 1.398 . S
C211 C217 1.491 . S
C212 H203 0.950 . S
C212 C211 1.398 . S
C212 C213 1.391 . S
C213 H201 0.950 . S
C213 C209 1.393 . S
C213 C212 1.391 . S
C214 H204 0.950 . S
C214 C215 1.386 . S
C214 C216 1.391 . S
C215 C214 1.386 . S
C215 C219 1.393 . S
C216 H205 0.950 . S
C216 C214 1.391 . S
C216 C217 1.400 . S
C217 C211 1.491 . S
C217 C216 1.400 . S
C217 C218 1.398 . S
C218 H206 0.950 . S
C218 C217 1.398 . S
C218 C219 1.391 . S
C219 H207 0.950 . S
C219 C215 1.393 . S
C219 C218 1.391 . S
H220 C228 0.950 . S
H221 C233 0.950 . S
H222 C230 0.950 . S
H223 C232 0.950 . S
H224 C234 0.950 . S
H225 C236 0.950 . S
H226 C238 0.950 . S
H227 C239 0.950 . S
C228 H220 0.950 . S
C228 C229 1.386 . S
C228 C230 1.391 . S
C229 C228 1.386 . S
C229 C233 1.393 . S
C230 H222 0.950 . S
C230 C228 1.391 . S
C230 C231 1.400 . S
C231 C230 1.400 . S
C231 C232 1.398 . S
C231 C237 1.491 . S
C232 H223 0.950 . S
C232 C231 1.398 . S
C232 C233 1.391 . S
C233 H221 0.950 . S
C233 C229 1.393 . S
C233 C232 1.391 . S
C234 H224 0.950 . S
C234 C235 1.386 . S
C234 C236 1.391 . S
C235 C234 1.386 . S
C235 C239 1.393 . S
C236 H225 0.950 . S
C236 C234 1.391 . S
C236 C237 1.400 . S
C237 C231 1.491 . S
C237 C236 1.400 . S
C237 C238 1.398 . S
C238 H226 0.950 . S
C238 C237 1.398 . S
C238 C239 1.391 . S
C239 H227 0.950 . S
C239 C235 1.393 . S
C239 C238 1.391 . S
H240 C248 0.950 . S
H241 C253 0.950 . S
H242 C250 0.950 . S
H243 C252 0.950 . S
H244 C254 0.950 . S
H245 C256 0.950 . S
H246 C258 0.950 . S
H247 C259 0.950 . S
C248 H240 0.950 . S
C248 C249 1.386 . S
C248 C250 1.391 . S
C249 C248 1.386 . S
C249 C253 1.393 . S
C250 H242 0.950 . S
C250 C248 1.391 . S
C250 C251 1.400 . S
C251 C250 1.400 . S
C251 C252 1.398 . S
C251 C257 1.491 . S
C252 H243 0.950 . S
C252 C251 1.398 . S
C252 C253 1.391 . S
C253 H241 0.950 . S
C253 C249 1.393 . S
C253 C252 1.391 . S
C254 H244 0.950 . S
C254 C255 1.386 . S
C254 C256 1.391 . S
C255 C254 1.386 . S
C255 C259 1.393 . S
C256 H245 0.950 . S
C256 C254 1.391 . S
C256 C257 1.400 . S
C257 C251 1.491 . S
C257 C256 1.400 . S
C257 C258 1.398 . S
C258 H246 0.950 . S
C258 C257 1.398 . S
C258 C259 1.391 . S
C259 H247 0.950 . S
C259 C255 1.393 . S
C259 C258 1.391 . S
H260 C268 0.950 . S
H261 C273 0.950 . S
H262 C270 0.950 . S
H263 C272 0.950 . S
H264 C274 0.950 . S
H265 C276 0.950 . S
H266 C278 0.950 . S
H267 C279 0.950 . S
C268 H260 0.950 . S
C268 C269 1.386 . S
C268 C270 1.391 . S
C269 C268 1.386 . S
C269 C273 1.393 . S
C270 H262 0.950 . S
C270 C268 1.391 . S
C270 C271 1.400 . S
C271 C270 1.400 . S
C271 C272 1.398 . S
C271 C277 1.491 . S
C272 H263 0.950 . S
C272 C271 1.398 . S
C272 C273 1.391 . S
C273 H261 0.950 . S
C273 C269 1.393 . S
C273 C272 1.391 . S
C274 H264 0.950 . S
C274 C275 1.386 . S
C274 C276 1.391 . S
C275 C274 1.386 . S
C275 C279 1.393 . S
C276 H265 0.950 . S
C276 C274 1.391 . S
C276 C277 1.400 . S
C277 C271 1.491 . S
C277 C276 1.400 . S
C277 C278 1.398 . S
C278 H266 0.950 . S
C278 C277 1.398 . S
C278 C279 1.391 . S
C279 H267 0.950 . S
C279 C275 1.393 . S
C279 C278 1.391 . S
H280 C288 0.950 . S
H281 C293 0.950 . S
H282 C290 0.950 . S
H283 C292 0.950 . S
H284 C294 0.950 . S
H285 C296 0.950 . S
H286 C298 0.950 . S
H287 C299 0.950 . S
C288 H280 0.950 . S
C288 C289 1.386 . S
C288 C290 1.391 . S
C289 C288 1.386 . S
C289 C293 1.393 . S
C290 H282 0.950 . S
C290 C288 1.391 . S
C290 C291 1.400 . S
C291 C290 1.400 . S
C291 C292 1.398 . S
C291 C297 1.491 . S
C292 H283 0.950 . S
C292 C291 1.398 . S
C292 C293 1.391 . S
C293 H281 0.950 . S
C293 C289 1.393 . S
C293 C292 1.391 . S
C294 H284 0.950 . S
C294 C295 1.386 . S
C294 C296 1.391 . S
C295 C294 1.386 . S
C295 C299 1.393 . S
C296 H285 0.950 . S
C296 C294 1.391 . S
C296 C297 1.400 . S
C297 C291 1.491 . S
C297 C296 1.400 . S
C297 C298 1.398 . S
C298 H286 0.950 . S
C298 C297 1.398 . S
C298 C299 1.391 . S
C299 H287 0.950 . S
C299 C295 1.393 . S
C299 C298 1.391 . S
H300 C308 0.950 . S
H301 C313 0.950 . S
H302 C310 0.950 . S
H303 C312 0.950 . S
H304 C314 0.950 . S
H305 C316 0.950 . S
H306 C318 0.950 . S
H307 C319 0.950 . S
C308 H300 0.950 . S
C308 C309 1.386 . S
C308 C310 1.391 . S
C309 C308 1.386 . S
C309 C313 1.393 . S
C310 H302 0.950 . S
C310 C308 1.391 . S
C310 C311 1.400 . S
C311 C310 1.400 . S
C311 C312 1.398 . S
C311 C317 1.491 . S
C312 H303 0.950 . S
C312 C311 1.398 . S
C312 C313 1.391 . S
C313 H301 0.950 . S
C313 C309 1.393 . S
C313 C312 1.391 . S
C314 H304 0.950 . S
C314 C315 1.386 . S
C314 C316 1.391 . S
C315 C314 1.386 . S
C315 C319 1.393 . S
C316 H305 0.950 . S
C316 C314 1.391 . S
C316 C317 1.400 . S
C317 C311 1.491 . S
C317 C316 1.400 . S
C317 C318 1.398 . S
C318 H306 0.950 . S
C318 C317 1.398 . S
C318 C319 1.391 . S
C319 H307 0.950 . S
C319 C315 1.393 . S
C319 C318 1.391 . S
H320 C328 0.950 . S
H321 C333 0.950 . S
H322 C330 0.950 . S
H323 C332 0.950 . S
H324 C334 0.950 . S
H325 C336 0.950 . S
H326 C338 0.950 . S
H327 C339 0.950 . S
C328 H320 0.950 . S
C328 C329 1.386 . S
C328 C330 1.391 . S
C329 C328 1.386 . S
C329 C333 1.393 . S
C330 H322 0.950 . S
C330 C328 1.391 . S
C330 C331 1.400 . S
C331 C330 1.400 . S
C331 C332 1.398 . S
C331 C337 1.491 . S
C332 H323 0.950 . S
C332 C331 1.398 . S
C332 C333 1.391 . S
C333 H321 0.950 . S
C333 C329 1.393 . S
C333 C332 1.391 . S
C334 H324 0.950 . S
C334 C335 1.386 . S
C334 C336 1.391 . S
C335 C334 1.386 . S
C335 C339 1.393 . S
C336 H325 0.950 . S
C336 C334 1.391 . S
C336 C337 1.400 . S
C337 C331 1.491 . S
C337 C336 1.400 . S
C337 C338 1.398 . S
C338 H326 0.950 . S
C338 C337 1.398 . S
C338 C339 1.391 . S
C339 H327 0.950 . S
C339 C335 1.393 . S
C339 C338 1.391 . S
H340 C348 0.950 . S
H341 C353 0.950 . S
H342 C350 0.950 . S
H343 C352 0.950 . S
H344 C354 0.950 . S
H345 C356 0.950 . S
H346 C358 0.950 . S
H347 C359 0.950 . S
C348 H340 0.950 . S
C348 C349 1.386 . S
C348 C350 1.391 . S
C349 C348 1.386 . S
C349 C353 1.393 . S
C350 H342 0.950 . S
C350 C348 1.391 . S
C350 C351 1.400 . S
C351 C350 1.400 . S
C351 C352 1.398 . S
C351 C357 1.491 . S
C352 H343 0.950 . S
C352 C351 1.398 . S
C352 C353 1.391 . S
C353 H341 0.950 . S
C353 C349 1.393 . S
C353 C352 1.391 . S
C354 H344 0.950 . S
C354 C355 1.386 . S
C354 C356 1.391 . S
C355 C354 1.386 . S
C355 C359 1.393 . S
C356 H345 0.950 . S
C356 C354 1.391 . S
C356 C357 1.400 . S
C357 C351 1.491 . S
C357 C356 1.400 . S
C357 C358 1.398 . S
C358 H346 0.950 . S
C358 C357 1.398 . S
C358 C359 1.391 . S
C359 H347 0.950 . S
C359 C355 1.393 . S
C359 C358 1.391 . S
H360 C368 0.950 . S
H361 C373 0.950 . S
H362 C370 0.950 . S
H363 C372 0.950 . S
H364 C374 0.950 . S
H365 C376 0.950 . S
H366 C378 0.950 . S
H367 C379 0.950 . S
C368 H360 0.950 . S
C368 C369 1.386 . S
C368 C370 1.391 . S
C369 C368 1.386 . S
C369 C373 1.393 . S
C370 H362 0.950 . S
C370 C368 1.391 . S
C370 C371 1.400 . S
C371 C370 1.400 . S
C371 C372 1.398 . S
C371 C377 1.491 . S
C372 H363 0.950 . S
C372 C371 1.398 . S
C372 C373 1.391 . S
C373 H361 0.950 . S
C373 C369 1.393 . S
C373 C372 1.391 . S
C374 H364 0.950 . S
C374 C375 1.386 . S
C374 C376 1.391 . S
C375 C374 1.386 . S
C375 C379 1.393 . S
C376 H365 0.950 . S
C376 C374 1.391 . S
C376 C377 1.400 . S
C377 C371 1.491 . S
C377 C376 1.400 . S
C377 C378 1.398 . S
C378 H366 0.950 . S
C378 C377 1.398 . S
C378 C379 1.391 . S
C379 H367 0.950 . S
C379 C375 1.393 . S
C379 C378 1.391 . S
H380 C388 0.950 . S
H381 C393 0.950 . S
H382 C390 0.950 . S
H383 C392 0.950 . S
H384 C394 0.950 . S
H385 C396 0.950 . S
H386 C398 0.950 . S
H387 C399 0.950 . S
C388 H380 0.950 . S
C388 C389 1.386 . S
C388 C390 1.391 . S
C389 C388 1.386 . S
C389 C393 1.393 . S
C390 H382 0.950 . S
C390 C388 1.391 . S
C390 C391 1.400 . S
C391 C390 1.400 . S
C391 C392 1.398 . S
C391 C397 1.491 . S
C392 H383 0.950 . S
C392 C391 1.398 . S
C392 C393 1.391 . S
C393 H381 0.950 . S
C393 C389 1.393 . S
C393 C392 1.391 . S
C394 H384 0.950 . S
C394 C395 1.386 . S
C394 C396 1.391 . S
C395 C394 1.386 . S
C395 C399 1.393 . S
C396 H385 0.950 . S
C396 C394 1.391 . S
C396 C397 1.400 . S
C397 C391 1.491 . S
C397 C396 1.400 . S
C397 C398 1.398 . S
C398 H386 0.950 . S
C398 C397 1.398 . S
C398 C399 1.391 . S
C399 H387 0.950 . S
C399 C395 1.393 . S
C399 C398 1.391 . S
H400 C408 0.950 . S
H401 C413 0.950 . S
H402 C410 0.950 . S
H403 C412 0.950 . S
H404 C414 0.950 . S
H405 C416 0.950 . S
H406 C418 0.950 . S
H407 C419 0.950 . S
C408 H400 0.950 . S
C408 C409 1.386 . S
C408 C410 1.391 . S
C409 C408 1.386 . S
C409 C413 1.393 . S
C410 H402 0.950 . S
C410 C408 1.391 . S
C410 C411 1.400 . S
C411 C410 1.400 . S
C411 C412 1.398 . S
C411 C417 1.491 . S
C412 H403 0.950 . S
C412 C411 1.398 . S
C412 C413 1.391 . S
C413 H401 0.950 . S
C413 C409 1.393 . S
C413 C412 1.391 . S
C414 H404 0.950 . S
C414 C415 1.386 . S
C414 C416 1.391 . S
C415 C414 1.386 . S
C415 C419 1.393 . S
C416 H405 0.950 . S
C416 C414 1.391 . S
C416 C417 1.400 . S
C417 C411 1.491 . S
C417 C416 1.400 . S
C417 C418 1.398 . S
C418 H406 0.950 . S
C418 C417 1.398 . S
C418 C419 1.391 . S
C419 H407 0.950 . S
C419 C415 1.393 . S
C419 C418 1.391 . S
H420 C428 0.950 . S
H421 C433 0.950 . S
H422 C430 0.950 . S
H423 C432 0.950 . S
H424 C434 0.950 . S
H425 C436 0.950 . S
H426 C438 0.950 . S
H427 C439 0.950 . S
C428 H420 0.950 . S
C428 C429 1.386 . S
C428 C430 1.391 . S
C429 C428 1.386 . S
C429 C433 1.393 . S
C430 H422 0.950 . S
C430 C428 1.391 . S
C430 C431 1.400 . S
C431 C430 1.400 . S
C431 C432 1.398 . S
C431 C437 1.491 . S
C432 H423 0.950 . S
C432 C431 1.398 . S
C432 C433 1.391 . S
C433 H421 0.950 . S
C433 C429 1.393 . S
C433 C432 1.391 . S
C434 H424 0.950 . S
C434 C435 1.386 . S
C434 C436 1.391 . S
C435 C434 1.386 . S
C435 C439 1.393 . S
C436 H425 0.950 . S
C436 C434 1.391 . S
C436 C437 1.400 . S
C437 C431 1.491 . S
C437 C436 1.400 . S
C437 C438 1.398 . S
C438 H426 0.950 . S
C438 C437 1.398 . S
C438 C439 1.391 . S
C439 H427 0.950 . S
C439 C435 1.393 . S
C439 C438 1.391 . S
H440 C448 0.950 . S
H441 C453 0.950 . S
H442 C450 0.950 . S
H443 C452 0.950 . S
H444 C454 0.950 . S
H445 C456 0.950 . S
H446 C458 0.950 . S
H447 C459 0.950 . S
C448 H440 0.950 . S
C448 C449 1.386 . S
C448 C450 1.391 . S
C449 C448 1.386 . S
C449 C453 1.393 . S
C450 H442 0.950 . S
C450 C448 1.391 . S
C450 C451 1.400 . S
C451 C450 1.400 . S
C451 C452 1.398 . S
C451 C457 1.491 . S
C452 H443 0.950 . S
C452 C451 1.398 . S
C452 C453 1.391 . S
C453 H441 0.950 . S
C453 C449 1.393 . S
C453 C452 1.391 . S
C454 H444 0.950 . S
C454 C455 1.386 . S
C454 C456 1.391 . S
C455 C454 1.386 . S
C455 C459 1.393 . S
C456 H445 0.950 . S
C456 C454 1.391 . S
C456 C457 1.400 . S
C457 C451 1.491 . S
C457 C456 1.400 . S
C457 C458 1.398 . S
C458 H446 0.950 . S
C458 C457 1.398 . S
C458 C459 1.391 . S
C459 H447 0.950 . S
C459 C455 1.393 . S
C459 C458 1.391 . S
H460 C468 0.950 . S
H461 C473 0.950 . S
H462 C470 0.950 . S
H463 C472 0.950 . S
H464 C474 0.950 . S
H465 C476 0.950 . S
H466 C478 0.950 . S
H467 C479 0.950 . S
C468 H460 0.950 . S
C468 C469 1.386 . S
C468 C470 1.391 . S
C469 C468 1.386 . S
C469 C473 1.393 . S
C470 H462 0.950 . S
C470 C468 1.391 . S
C470 C471 1.400 . S
C471 C470 1.400 . S
C471 C472 1.398 . S
C471 C477 1.491 . S
C472 H463 0.950 . S
C472 C471 1.398 . S
C472 C473 1.391 . S
C473 H461 0.950 . S
C473 C469 1.393 . S
C473 C472 1.391 . S
C474 H464 0.950 . S
C474 C475 1.386 . S
C474 C476 1.391 . S
C475 C474 1.386 . S
C475 C479 1.393 . S
C476 H465 0.950 . S
C476 C474 1.391 . S
C476 C477 1.400 . S
C477 C471 1.491 . S
C477 C476 1.400 . S
C477 C478 1.398 . S
C478 H466 0.950 . S
C478 C477 1.398 . S
C478 C479 1.391 . S
C479 H467 0.950 . S
C479 C475 1.393 . S
C479 C478 1.391 . S
H480 C488 0.950 . S
H481 C493 0.950 . S
H482 C490 0.950 . S
H483 C492 0.950 . S
H484 C494 0.950 . S
H485 C496 0.950 . S
H486 C498 0.950 . S
H487 C499 0.950 . S
C488 H480 0.950 . S
C488 C489 1.386 1_554 S
C488 C490 1.391 . S
C489 C488 1.386 1_556 S
C489 C493 1.393 . S
C490 H482 0.950 . S
C490 C488 1.391 . S
C490 C491 1.394 1_554 S
C491 C490 1.394 1_556 S
C491 C492 1.405 . S
C491 C497 1.490 1_556 S
C492 H483 0.950 . S
C492 C491 1.405 . S
C492 C493 1.391 . S
C493 H481 0.950 . S
C493 C489 1.393 . S
C493 C492 1.391 . S
C494 H484 0.950 . S
C494 C495 1.386 1_556 S
C494 C496 1.391 . S
C495 C494 1.386 1_554 S
C495 C499 1.393 . S
C496 H485 0.950 . S
C496 C494 1.391 . S
C496 C497 1.400 1_556 S
C497 C491 1.490 1_554 S
C497 C496 1.400 1_554 S
C497 C498 1.398 . S
C498 H486 0.950 . S
C498 C497 1.398 . S
C498 C499 1.391 . S
C499 H487 0.950 . S
C499 C495 1.393 . S
C499 C498 1.391 . S
H500 C508 0.950 . S
H501 C513 0.950 . S
H502 C510 0.950 . S
H503 C512 0.950 . S
H504 C514 0.950 . S
H505 C516 0.950 . S
H506 C518 0.950 . S
H507 C519 0.950 . S
C508 H500 0.950 . S
C508 C509 1.386 . S
C508 C510 1.391 . S
C509 C508 1.386 . S
C509 C513 1.393 . S
C510 H502 0.950 . S
C510 C508 1.391 . S
C510 C511 1.400 . S
C511 C510 1.400 . S
C511 C512 1.398 . S
C511 C517 1.491 . S
C512 H503 0.950 . S
C512 C511 1.398 . S
C512 C513 1.391 . S
C513 H501 0.950 . S
C513 C509 1.393 . S
C513 C512 1.391 . S
C514 H504 0.950 . S
C514 C515 1.386 . S
C514 C516 1.391 . S
C515 C514 1.386 . S
C515 C519 1.393 . S
C516 H505 0.950 . S
C516 C514 1.391 . S
C516 C517 1.400 . S
C517 C511 1.491 . S
C517 C516 1.400 . S
C517 C518 1.398 . S
C518 H506 0.950 . S
C518 C517 1.398 . S
C518 C519 1.391 . S
C519 H507 0.950 . S
C519 C515 1.393 . S
C519 C518 1.391 . S
H520 C528 0.950 . S
H521 C533 0.950 . S
H522 C530 0.950 . S
H523 C532 0.950 . S
H524 C534 0.950 . S
H525 C536 0.950 . S
H526 C538 0.950 . S
H527 C539 0.950 . S
C528 H520 0.950 . S
C528 C529 1.386 1_554 S
C528 C530 1.391 . S
C529 C528 1.386 1_556 S
C529 C533 1.393 . S
C530 H522 0.950 . S
C530 C528 1.391 . S
C530 C531 1.401 . S
C531 C530 1.401 . S
C531 C532 1.398 1_554 S
C531 C537 1.491 . S
C532 H523 0.950 . S
C532 C531 1.398 1_556 S
C532 C533 1.391 . S
C533 H521 0.950 . S
C533 C529 1.393 . S
C533 C532 1.391 . S
C534 H524 0.950 . S
C534 C535 1.373 1_556 S
C534 C536 1.391 . S
C535 C534 1.373 1_554 S
C535 C539 1.405 . S
C536 H525 0.950 . S
C536 C534 1.391 . S
C536 C537 1.392 1_556 S
C537 C531 1.491 . S
C537 C536 1.392 1_554 S
C537 C538 1.407 . S
C538 H526 0.950 . S
C538 C537 1.407 . S
C538 C539 1.391 . S
C539 H527 0.950 . S
C539 C535 1.405 . S
C539 C538 1.391 . S
H540 C548 0.950 . S
H541 C553 0.950 . S
H542 C550 0.950 . S
H543 C552 0.950 . S
H544 C554 0.950 . S
H545 C556 0.950 . S
H546 C558 0.950 . S
H547 C559 0.950 . S
C548 H540 0.950 . S
C548 C549 1.386 . S
C548 C550 1.391 . S
C549 C548 1.386 . S
C549 C553 1.393 . S
C550 H542 0.950 . S
C550 C548 1.391 . S
C550 C551 1.400 . S
C551 C550 1.400 . S
C551 C552 1.398 . S
C551 C557 1.491 . S
C552 H543 0.950 . S
C552 C551 1.398 . S
C552 C553 1.391 . S
C553 H541 0.950 . S
C553 C549 1.393 . S
C553 C552 1.391 . S
C554 H544 0.950 . S
C554 C555 1.386 . S
C554 C556 1.391 . S
C555 C554 1.386 . S
C555 C559 1.393 . S
C556 H545 0.950 . S
C556 C554 1.391 . S
C556 C557 1.400 . S
C557 C551 1.491 . S
C557 C556 1.400 . S
C557 C558 1.398 . S
C558 H546 0.950 . S
C558 C557 1.398 . S
C558 C559 1.391 . S
C559 H547 0.950 . S
C559 C555 1.393 . S
C559 C558 1.391 . S
H560 C568 0.950 . S
H561 C573 0.950 . S
H562 C570 0.950 . S
H563 C572 0.950 . S
H564 C574 0.950 . S
H565 C576 0.950 . S
H566 C578 0.950 . S
H567 C579 0.950 . S
C568 H560 0.950 . S
C568 C569 1.386 . S
C568 C570 1.391 . S
C569 C568 1.386 . S
C569 C573 1.393 . S
C570 H562 0.950 . S
C570 C568 1.391 . S
C570 C571 1.400 . S
C571 C570 1.400 . S
C571 C572 1.398 . S
C571 C577 1.491 . S
C572 H563 0.950 . S
C572 C571 1.398 . S
C572 C573 1.391 . S
C573 H561 0.950 . S
C573 C569 1.393 . S
C573 C572 1.391 . S
C574 H564 0.950 . S
C574 C575 1.386 . S
C574 C576 1.391 . S
C575 C574 1.386 . S
C575 C579 1.393 . S
C576 H565 0.950 . S
C576 C574 1.391 . S
C576 C577 1.400 . S
C577 C571 1.491 . S
C577 C576 1.400 . S
C577 C578 1.398 . S
C578 H566 0.950 . S
C578 C577 1.398 . S
C578 C579 1.391 . S
C579 H567 0.950 . S
C579 C575 1.393 . S
C579 C578 1.391 . S
H580 C588 0.950 . S
H581 C593 0.950 . S
H582 C590 0.950 . S
H583 C592 0.950 . S
H584 C594 0.950 . S
H585 C596 0.950 . S
H586 C598 0.950 . S
H587 C599 0.950 . S
C588 H580 0.950 . S
C588 C589 1.386 1_556 S
C588 C590 1.391 . S
C589 C588 1.386 1_554 S
C589 C593 1.393 . S
C590 H582 0.950 . S
C590 C588 1.391 . S
C590 C591 1.387 1_556 S
C591 C590 1.387 1_554 S
C591 C592 1.412 . S
C591 C597 1.490 1_554 S
C592 H583 0.950 . S
C592 C591 1.412 . S
C592 C593 1.391 . S
C593 H581 0.950 . S
C593 C589 1.393 . S
C593 C592 1.391 . S
C594 H584 0.950 . S
C594 C595 1.374 1_554 S
C594 C596 1.391 . S
C595 C594 1.374 1_556 S
C595 C599 1.405 . S
C596 H585 0.950 . S
C596 C594 1.391 . S
C596 C597 1.399 1_554 S
C597 C591 1.490 1_556 S
C597 C596 1.399 1_556 S
C597 C598 1.400 . S
C598 H586 0.950 . S
C598 C597 1.400 . S
C598 C599 1.391 . S
C599 H587 0.950 . S
C599 C595 1.405 . S
C599 C598 1.391 . S
H600 C608 0.950 . S
H601 C613 0.950 . S
H602 C610 0.950 . S
H603 C612 0.950 . S
H604 C614 0.950 . S
H605 C616 0.950 . S
H606 C618 0.950 . S
H607 C619 0.950 . S
C608 H600 0.950 . S
C608 C609 1.386 . S
C608 C610 1.391 . S
C609 C608 1.386 . S
C609 C613 1.393 . S
C610 H602 0.950 . S
C610 C608 1.391 . S
C610 C611 1.400 . S
C611 C610 1.400 . S
C611 C612 1.398 . S
C611 C617 1.491 . S
C612 H603 0.950 . S
C612 C611 1.398 . S
C612 C613 1.391 . S
C613 H601 0.950 . S
C613 C609 1.393 . S
C613 C612 1.391 . S
C614 H604 0.950 . S
C614 C615 1.386 . S
C614 C616 1.391 . S
C615 C614 1.386 . S
C615 C619 1.393 . S
C616 H605 0.950 . S
C616 C614 1.391 . S
C616 C617 1.400 . S
C617 C611 1.491 . S
C617 C616 1.400 . S
C617 C618 1.398 . S
C618 H606 0.950 . S
C618 C617 1.398 . S
C618 C619 1.391 . S
C619 H607 0.950 . S
C619 C615 1.393 . S
C619 C618 1.391 . S
H620 C628 0.950 . S
H621 C633 0.950 . S
H622 C630 0.950 . S
H623 C632 0.950 . S
H624 C634 0.950 . S
H625 C636 0.950 . S
H626 C638 0.950 . S
H627 C639 0.950 . S
C628 H620 0.950 . S
C628 C629 1.386 . S
C628 C630 1.391 . S
C629 C628 1.386 . S
C629 C633 1.393 1_554 S
C630 H622 0.950 . S
C630 C628 1.391 . S
C630 C631 1.400 . S
C631 C630 1.400 . S
C631 C632 1.398 1_554 S
C631 C637 1.490 1_554 S
C632 H623 0.950 . S
C632 C631 1.398 1_556 S
C632 C633 1.391 . S
C633 H621 0.950 . S
C633 C629 1.393 1_556 S
C633 C632 1.391 . S
C634 H624 0.950 . S
C634 C635 1.386 . S
C634 C636 1.391 . S
C635 C634 1.386 . S
C635 C639 1.393 1_556 S
C636 H625 0.950 . S
C636 C634 1.391 . S
C636 C637 1.404 . S
C637 C631 1.490 1_556 S
C637 C636 1.404 . S
C637 C638 1.395 1_556 S
C638 H626 0.950 . S
C638 C637 1.395 1_554 S
C638 C639 1.391 . S
C639 H627 0.950 . S
C639 C635 1.393 1_554 S
C639 C638 1.391 . S
C169 C5 1.401 . S
C175 C119 1.437 . S
C189 C31 1.402 . S
C195 C93 1.440 . S
C215 C102 1.440 . S
C209 C53 1.401 . S
C229 C71 1.403 . S
C235 C110 1.435 . S
C255 C138 1.438 . S
C249 C75 1.404 . S
C275 C146 1.433 . S
C269 C9 1.406 . S
C295 C155 1.427 . S
C289 C27 1.418 . S
C315 C129 1.429 . S
C309 C49 1.422 . S
C329 C51 1.421 . S
C335 C101 1.429 . S
C349 C72 1.419 . S
C355 C111 1.426 . S
C369 C6 1.415 . S
C375 C120 1.427 . S
C395 C92 1.432 . S
C389 C29 1.417 . S
C409 C28 1.414 . S
C415 C156 1.433 . S
C435 C128 1.431 . S
C429 C50 1.418 . S
C455 C137 1.430 . S
C449 C73 1.419 . S
C469 C7 1.402 . S
C475 C147 1.438 . S
C495 C95 1.483 1_554 S
C489 C4 1.468 1_556 S
C515 C104 1.478 . S
C509 C30 1.476 . S
C529 C52 1.466 1_556 S
C535 C113 1.482 . S
C549 C70 1.466 . S
C555 C122 1.482 . S
C575 C131 1.480 . S
C569 C74 1.473 . S
C589 C8 1.466 . S
C595 C140 1.483 1_556 S
C609 C26 1.477 . S
C615 C149 1.474 . S
C629 C48 1.475 . S
C635 C158 1.476 . S
