# Generated by pormake.
# Topology rtl, (3,6)-cn, num edge types: 1
# Building blocks:
#     Node 0, Type 0, BuildingBlock: PAMTOO_clean_linker_0, # of connection points: 3
#     Node 1, Type 0, BuildingBlock: PAMTOO_clean_linker_0, # of connection points: 3
#     Node 2, Type 0, BuildingBlock: PAMTOO_clean_linker_0, # of connection points: 3
#     Node 3, Type 0, BuildingBlock: PAMTOO_clean_linker_0, # of connection points: 3
#     Node 4, Type 1, BuildingBlock: KUMJIN_clean_sbu_1, # of connection points: 6
#     Node 5, Type 1, BuildingBlock: KUMJIN_clean_sbu_1, # of connection points: 6
#     Edge 6, Type (0, 1), BuildingBlock: KIFKEQ_clean_linker_1, # of connection points: 2
#     Edge 7, Type (0, 1), BuildingBlock: KIFKEQ_clean_linker_1, # of connection points: 2
#     Edge 8, Type (0, 1), BuildingBlock: KIFKEQ_clean_linker_1, # of connection points: 2
#     Edge 9, Type (0, 1), BuildingBlock: KIFKEQ_clean_linker_1, # of connection points: 2
#     Edge 10, Type (0, 1), BuildingBlock: KIFKEQ_clean_linker_1, # of connection points: 2
#     Edge 11, Type (0, 1), BuildingBlock: KIFKEQ_clean_linker_1, # of connection points: 2
#     Edge 12, Type (0, 1), BuildingBlock: KIFKEQ_clean_linker_1, # of connection points: 2
#     Edge 13, Type (0, 1), BuildingBlock: KIFKEQ_clean_linker_1, # of connection points: 2
#     Edge 14, Type (0, 1), BuildingBlock: KIFKEQ_clean_linker_1, # of connection points: 2
#     Edge 15, Type (0, 1), BuildingBlock: KIFKEQ_clean_linker_1, # of connection points: 2
#     Edge 16, Type (0, 1), BuildingBlock: KIFKEQ_clean_linker_1, # of connection points: 2
#     Edge 17, Type (0, 1), BuildingBlock: KIFKEQ_clean_linker_1, # of connection points: 2
# Relax obj value: 0.052
# Max RMSD: 0.217
# Mean RMSD: 0.163
data_MOF--net-rtl--node1-KUMJIN_clean_sbu_1--node2-PAMTOO_clean_linker_0--edge1-KIFKEQ_clean_linker_1
_symmetry_space_group_name_H-M    P1
_symmetry_Int_Tables_number       1
_symmetry_cell_setting            triclinic
loop_
_symmetry_equiv_pos_as_xyz
'x, y, z'
_cell_length_a     35.307331
_cell_length_b     35.525336
_cell_length_c     27.385035
_cell_angle_alpha  79.140772
_cell_angle_beta   99.061261
_cell_angle_gamma 91.433227
loop_
_atom_site_label
_atom_site_type_symbol
_atom_site_fract_x
_atom_site_fract_y
_atom_site_fract_z
_atom_type_partial_charge
H0 H 0.18939 0.92303 0.01105 0.0
H1 H 0.27498 0.84669 0.10508 0.0
H2 H 0.2592 0.85477 0.94492 0.0
H3 H 0.25953 0.77694 0.01288 0.0
C4 C 0.28565 0.78148 0.03976 0.0
O5 O 0.29616 0.81956 0.03086 0.0
H6 H 0.27849 0.77354 0.07851 0.0
C7 C 0.2129 0.90319 0.01453 0.0
C8 C 0.22217 0.89188 0.97135 0.0
C9 C 0.23194 0.88749 0.06275 0.0
C10 C 0.26054 0.85967 0.06803 0.0
C11 C 0.27001 0.84783 0.02544 0.0
C12 C 0.25123 0.86416 0.97732 0.0
H13 H 0.6296 0.67556 0.63327 0.0
H14 H 0.71011 0.75414 0.56746 0.0
H15 H 0.70308 0.74299 0.72442 0.0
H16 H 0.72686 0.82142 0.68166 0.0
C17 C 0.73396 0.81486 0.646 0.0
O18 O 0.73926 0.77586 0.65142 0.0
H19 H 0.7095 0.82486 0.61562 0.0
C20 C 0.65089 0.69776 0.63694 0.0
C21 C 0.66326 0.70755 0.68428 0.0
C22 C 0.66712 0.71461 0.59448 0.0
C23 C 0.69681 0.74123 0.59964 0.0
C24 C 0.70969 0.75123 0.64652 0.0
C25 C 0.69287 0.73464 0.6886 0.0
H26 H 0.85806 0.11679 0.09029 0.0
H27 H 0.78055 0.20077 0.99409 0.0
H28 H 0.79013 0.18854 0.15419 0.0
H29 H 0.71182 0.19756 0.09438 0.0
C30 C 0.71819 0.22094 0.06351 0.0
O31 O 0.7573 0.22665 0.06789 0.0
H32 H 0.70745 0.21228 0.02686 0.0
C33 C 0.8362 0.13855 0.08597 0.0
C34 C 0.82627 0.15001 0.12886 0.0
C35 C 0.81985 0.15653 0.03718 0.0
C36 C 0.79316 0.18631 0.03136 0.0
C37 C 0.78244 0.19748 0.07366 0.0
C38 C 0.79882 0.17937 0.12205 0.0
H39 H 0.41749 0.36153 0.46641 0.0
H40 H 0.34464 0.27578 0.53708 0.0
H41 H 0.34455 0.2924 0.37787 0.0
H42 H 0.26692 0.28238 0.40635 0.0
C43 C 0.27492 0.2678 0.44624 0.0
O44 O 0.31267 0.2558 0.45355 0.0
H45 H 0.27139 0.28866 0.4709 0.0
C46 C 0.397 0.33845 0.46426 0.0
C47 C 0.38354 0.32867 0.41721 0.0
C48 C 0.38344 0.31955 0.50807 0.0
C49 C 0.35595 0.29053 0.50411 0.0
C50 C 0.34176 0.2811 0.45726 0.0
C51 C 0.35603 0.29962 0.41403 0.0
Eu52 Eu 0.0469 0.9795 0.51804 0.0
C53 C 0.9608 0.12963 0.49854 0.0
N54 N 0.99563 0.11928 0.5263 0.0
C55 C 0.0218 0.18007 0.49408 0.0
C56 C 0.9557 0.16536 0.4655 0.0
C57 C 0.02564 0.14419 0.52582 0.0
C58 C 0.98679 0.19058 0.46343 0.0
C59 C 0.89466 0.11317 0.47157 0.0
C60 C 0.93053 0.1038 0.50189 0.0
C61 C 0.88967 0.14852 0.43812 0.0
C62 C 0.92002 0.17459 0.43528 0.0
Eu63 Eu 0.9993 0.05862 0.57908 0.0
N64 N 0.93633 0.06935 0.53396 0.0
C65 C 0.86481 0.08668 0.47568 0.0
C66 C 0.9067 0.04445 0.54008 0.0
C67 C 0.87075 0.05238 0.51047 0.0
H68 H 0.05242 0.13672 0.55042 0.0
H69 H 0.84751 0.0322 0.5149 0.0
H70 H 0.98651 0.90356 0.52322 0.0
H71 H 0.20174 0.97897 0.57067 0.0
H72 H 0.9102 0.01882 0.56835 0.0
H73 H 0.8369 0.09272 0.45285 0.0
H74 H 0.13799 1.00609 0.53018 0.0
H75 H 0.0458 0.19963 0.49344 0.0
H76 H 0.86236 0.15605 0.41437 0.0
H77 H 0.91566 0.20178 0.40939 0.0
H78 H 0.98581 0.83665 0.56754 0.0
H79 H 0.98398 0.21832 0.43863 0.0
H80 H 0.20671 0.91299 0.62061 0.0
N81 N 0.04323 0.9143 0.55707 0.0
C82 C 0.0765 0.89818 0.58387 0.0
C83 C 1.01133 0.85381 0.57325 0.0
C84 C 0.07806 0.8593 0.60782 0.0
C85 C 1.01147 0.89218 0.54922 0.0
C86 C 0.04461 0.83743 0.60335 0.0
N87 N 0.1077 0.95662 0.55909 0.0
C88 C 0.14011 0.9775 0.55255 0.0
C89 C 0.14546 0.90299 0.60752 0.0
C90 C 0.10983 0.91973 0.58403 0.0
C91 C 0.17878 0.92487 0.60326 0.0
C92 C 0.17611 0.96214 0.57511 0.0
H93 H 0.04462 0.80748 0.62114 0.0
H94 H 0.11485 0.81329 0.65227 0.0
H95 H 0.17389 0.85154 0.65185 0.0
O96 O 0.06912 1.00024 0.44787 0.0
O97 O 0.07544 0.99003 0.59457 0.0
O98 O 0.02594 1.00573 0.63247 0.0
O99 O 0.05456 0.94042 0.46767 0.0
O100 O 0.06873 0.04072 0.50512 0.0
O101 O 0.06305 0.06559 0.57603 0.0
O102 O 0.96219 0.07434 0.62931 0.0
O103 O 0.99945 0.06444 0.49447 0.0
O104 O 0.9891 1.00379 0.47966 0.0
O105 O 0.01996 0.09615 0.63181 0.0
O106 O 0.97725 0.99787 0.59886 0.0
O107 O 0.98494 0.96932 0.53147 0.0
C108 C 0.06032 0.99143 0.63506 0.0
C109 C 0.05447 0.96579 0.38172 0.0
C110 C 0.07052 0.95605 0.30163 0.0
C111 C 0.03175 0.96247 0.28006 0.0
C112 C 0.01602 0.9722 0.35987 0.0
C113 C 1.00477 0.97055 0.30907 0.0
C114 C 0.08152 0.95791 0.35267 0.0
C115 C 0.0801 0.06378 0.53701 0.0
C116 C 0.06751 0.96681 0.43478 0.0
C117 C 0.11319 0.84305 0.63348 0.0
C118 C 0.14683 0.8648 0.63318 0.0
C119 C 0.98296 0.04074 0.46625 0.0
C120 C 0.99453 0.0845 0.70843 0.0
C121 C 0.97013 0.08433 0.78754 0.0
C122 C 1.00612 0.07055 0.814 0.0
C123 C 0.02981 0.07013 0.73604 0.0
C124 C 0.96467 0.09144 0.73437 0.0
C125 C 0.03547 0.06329 0.78842 0.0
C126 C 0.96899 0.97109 0.57148 0.0
C127 C 0.98906 0.09311 0.65279 0.0
H128 H 0.02217 0.96076 0.24099 0.0
H129 H 0.99488 0.97832 0.38204 0.0
H130 H 0.97504 0.97537 0.29215 0.0
H131 H 0.11131 0.95363 0.36989 0.0
H132 H 1.01194 0.06585 0.8547 0.0
H133 H 0.05323 0.0644 0.71721 0.0
H134 H 0.93729 0.10211 0.71312 0.0
H135 H 0.0629 0.0526 0.80934 0.0
Eu136 Eu 0.48359 0.49875 0.99517 0.0
C137 C 0.64125 0.56381 0.06484 0.0
N138 N 0.62403 0.53116 0.08524 0.0
C139 C 0.68207 0.49567 0.09106 0.0
C140 C 0.67925 0.56317 0.05495 0.0
C141 C 0.64472 0.49791 0.10125 0.0
C142 C 0.6992 0.52829 0.067 0.0
C143 C 0.63997 0.63324 0.03986 0.0
C144 C 0.62188 0.59853 0.0571 0.0
C145 C 0.67718 0.63245 0.02807 0.0
C146 C 0.69671 0.5975 0.0354 0.0
Eu147 Eu 0.56033 0.53876 0.09963 0.0
N148 N 0.58561 0.5985 0.06784 0.0
C149 C 0.62036 0.66776 0.03596 0.0
C150 C 0.56696 0.63197 0.06641 0.0
C151 C 0.58387 0.66713 0.04989 0.0
H152 H 0.63316 0.4732 0.12326 0.0
H153 H 0.56881 0.69366 0.04794 0.0
H154 H 0.40719 0.55283 0.99597 0.0
H155 H 0.49835 0.34256 0.02773 0.0
H156 H 0.53892 0.63132 0.07767 0.0
H157 H 0.63337 0.69503 0.02308 0.0
H158 H 0.5187 0.40926 1.00379 0.0
H159 H 0.69795 0.46898 0.10289 0.0
H160 H 0.69142 0.65879 0.01426 0.0
H161 H 0.72577 0.59746 0.0273 0.0
H162 H 0.34153 0.54412 0.01568 0.0
H163 H 0.72841 0.5266 0.05997 0.0
H164 H 0.43359 0.32867 0.05002 0.0
N165 N 0.42078 0.4934 0.01439 0.0
C166 C 0.40728 0.45719 0.02603 0.0
C167 C 0.35987 0.51945 0.01943 0.0
C168 C 0.36961 0.45081 0.03678 0.0
C169 C 0.39738 0.52435 0.0091 0.0
C170 C 0.34602 0.48253 0.03384 0.0
N171 N 0.46763 0.43338 0.01714 0.0
C172 C 0.49119 0.40385 0.01584 0.0
C173 C 0.41794 0.38852 0.03954 0.0
C174 C 0.43128 0.42641 0.02731 0.0
C175 C 0.44269 0.35815 0.04051 0.0
C176 C 0.47936 0.36587 0.02828 0.0
H177 H 0.31689 0.4788 0.04169 0.0
H178 H 0.32775 0.40771 0.05814 0.0
H179 H 0.37006 0.35321 0.06079 0.0
O180 O 0.468 0.47131 0.92948 0.0
O181 O 0.47086 0.4904 0.076 0.0
O182 O 0.52997 0.48406 0.12713 0.0
O183 O 0.45655 0.53252 0.92343 0.0
O184 O 0.54346 0.47284 0.01142 0.0
O185 O 0.5662 0.4757 0.09479 0.0
O186 O 0.54465 0.56417 0.16048 0.0
O187 O 0.55168 0.56972 0.01807 0.0
O188 O 0.54188 0.51938 0.97735 0.0
O189 O 0.60147 0.54062 0.16738 0.0
O190 O 0.49917 0.56113 0.08528 0.0
O191 O 0.47736 0.56115 1.00116 0.0
C192 C 0.49294 0.47753 0.11916 0.0
C193 C 0.43757 0.50562 0.84752 0.0
C194 C 0.42613 0.47844 0.77096 0.0
C195 C 0.40799 0.51276 0.74492 0.0
C196 C 0.41915 0.53958 0.8207 0.0
C197 C 0.40434 0.54298 0.76978 0.0
C198 C 0.44053 0.47476 0.82256 0.0
C199 C 0.56509 0.45972 0.0548 0.0
C200 C 0.45425 0.50306 0.90097 0.0
C201 C 0.35654 0.41315 0.04956 0.0
C202 C 0.38063 0.38211 0.05096 0.0
C203 C 0.55357 0.55446 0.97854 0.0
C204 C 0.57842 0.54417 0.24252 0.0
C205 C 0.58838 0.55942 0.32675 0.0
C206 C 0.58255 0.52054 0.34662 0.0
C207 C 0.57283 0.50557 0.26277 0.0
C208 C 0.58593 0.57092 0.27438 0.0
C209 C 0.57471 0.49389 0.31473 0.0
C210 C 0.47839 0.576 0.042 0.0
C211 C 0.57796 0.55742 0.18856 0.0
H212 H 0.39634 0.51607 0.7053 0.0
H213 H 0.41626 0.56361 0.83904 0.0
H214 H 0.39015 0.56924 0.7494 0.0
H215 H 0.45475 0.44839 0.84271 0.0
H216 H 0.58476 0.51055 0.38685 0.0
H217 H 0.56729 0.48459 0.2385 0.0
H218 H 0.58986 0.60078 0.25816 0.0
H219 H 0.5705 0.46405 0.33042 0.0
H220 H 0.28667 0.20481 0.52337 0.0
H221 H 0.20244 0.258 0.39944 0.0
H222 H 0.24098 0.15387 0.54626 0.0
H223 H 0.15665 0.20781 0.42268 0.0
H224 H 0.09929 0.09141 0.4448 0.0
H225 H 0.14802 0.13863 0.42334 0.0
H226 H 0.17857 0.14667 0.58009 0.0
H227 H 0.12953 0.09902 0.60171 0.0
C228 C 0.25858 0.20527 0.50067 0.0
C229 C 0.24844 0.23463 0.45864 0.0
C230 C 0.23232 0.17642 0.51408 0.0
C231 C 0.19533 0.17668 0.48602 0.0
C232 C 0.18519 0.20633 0.44439 0.0
C233 C 0.21137 0.23506 0.43104 0.0
C234 C 0.1166 0.10298 0.4748 0.0
C235 C 0.11062 0.09157 0.52495 0.0
C236 C 0.14433 0.13025 0.46243 0.0
C237 C 0.16705 0.14647 0.49997 0.0
C238 C 0.16165 0.13448 0.55037 0.0
C239 C 0.13346 0.10746 0.56271 0.0
H240 H 0.28589 0.73179 0.97441 0.0
H241 H 0.3575 0.77346 0.09547 0.0
H242 H 0.33515 0.6853 0.97334 0.0
H243 H 0.40775 0.72766 0.09359 0.0
H244 H 0.46173 0.60697 0.12041 0.0
H245 H 0.41839 0.65992 0.11686 0.0
H246 H 0.39733 0.67556 0.95449 0.0
H247 H 0.43992 0.62188 0.95815 0.0
C248 C 0.31257 0.7314 1.0002 0.0
C249 C 0.31794 0.75608 0.03512 0.0
C250 C 0.34095 0.70491 0.99944 0.0
C251 C 0.37547 0.70254 0.03352 0.0
C252 C 0.38131 0.72825 0.06734 0.0
C253 C 0.35277 0.75468 0.0682 0.0
C254 C 0.44803 0.62182 0.08391 0.0
C255 C 0.45395 0.60983 0.0396 0.0
C256 C 0.42335 0.65244 0.08184 0.0
C257 C 0.40414 0.672 0.03538 0.0
C258 C 0.41107 0.66075 0.99098 0.0
C259 C 0.43563 0.63003 0.99307 0.0
H260 H 0.74692 0.86005 0.55718 0.0
H261 H 0.80243 0.81555 0.70822 0.0
H262 H 0.80472 0.89573 0.53951 0.0
H263 H 0.861 0.85011 0.69039 0.0
H264 H 0.94059 0.95305 0.66 0.0
H265 H 0.88495 0.91395 0.67741 0.0
H266 H 0.86912 0.89045 0.52629 0.0
H267 H 0.92351 0.93132 0.50812 0.0
C268 C 0.7717 0.85776 0.58647 0.0
C269 C 0.77017 0.83553 0.63427 0.0
C270 C 0.80497 0.87791 0.57629 0.0
C271 C 0.83762 0.87599 0.61357 0.0
C272 C 0.83625 0.85287 0.66106 0.0
C273 C 0.80286 0.83288 0.67126 0.0
C274 C 0.9253 0.93943 0.63054 0.0
C275 C 0.93678 0.94499 0.58284 0.0
C276 C 0.89354 0.9167 0.64065 0.0
C277 C 0.87248 0.89884 0.60335 0.0
C278 C 0.88434 0.90403 0.55581 0.0
C279 C 0.91595 0.92701 0.5456 0.0
H280 H 0.65909 0.22946 0.11458 0.0
H281 H 0.73061 0.29408 0.01493 0.0
H282 H 0.62361 0.2878 0.1139 0.0
H283 H 0.69583 0.35273 0.01511 0.0
H284 H 0.59381 0.43689 0.97846 0.0
H285 H 0.63215 0.37999 0.98241 0.0
H286 H 0.63061 0.34949 0.14246 0.0
H287 H 0.59157 0.4063 0.13823 0.0
C288 C 0.66759 0.25631 0.09321 0.0
C289 C 0.69803 0.25742 0.06556 0.0
C290 C 0.6474 0.28974 0.09295 0.0
C291 C 0.65702 0.32497 0.06468 0.0
C292 C 0.68751 0.32602 0.03699 0.0
C293 C 0.70764 0.29256 0.03719 0.0
C294 C 0.60171 0.41805 0.01451 0.0
C295 C 0.5897 0.42598 0.05805 0.0
C296 C 0.62394 0.3856 0.01685 0.0
C297 C 0.63451 0.3602 0.06276 0.0
C298 C 0.62268 0.36831 0.10643 0.0
C299 C 0.6006 0.40096 0.10412 0.0
H300 H 0.2218 0.95956 0.0788 0.0
H301 H 0.21227 0.84027 0.14564 0.0
H302 H 0.18855 0.97787 0.14244 0.0
H303 H 0.17817 0.85835 0.20877 0.0
H304 H 0.12996 0.9042 0.32999 0.0
H305 H 0.17696 0.88987 0.27954 0.0
H306 H 0.12247 0.97294 0.15352 0.0
H307 H 0.07684 0.98858 0.20455 0.0
C308 C 0.21306 0.93732 0.10769 0.0
C309 C 0.21915 0.89852 0.10707 0.0
C310 C 0.19381 0.94774 0.1439 0.0
C311 C 0.17993 0.91955 0.18001 0.0
C312 C 0.18855 0.88082 0.1816 0.0
C313 C 0.2081 0.8704 0.14549 0.0
C314 C 0.1284 0.91985 0.29175 0.0
C315 C 0.09946 0.94744 0.27121 0.0
C316 C 0.15516 0.91136 0.26272 0.0
C317 C 0.15356 0.93026 0.21251 0.0
C318 C 0.12497 0.95823 0.1923 0.0
C319 C 0.09834 0.96677 0.22131 0.0
H320 H 0.58874 0.68393 0.68744 0.0
H321 H 0.69863 0.68633 0.7827 0.0
H322 H 0.56256 0.64555 0.75787 0.0
H323 H 0.67104 0.65018 0.85381 0.0
H324 H 0.57213 0.63039 0.96377 0.0
H325 H 0.60064 0.66771 0.89477 0.0
H326 H 0.59213 0.5703 0.82072 0.0
H327 H 0.56627 0.53164 0.89205 0.0
C328 C 0.60742 0.67636 0.72318 0.0
C329 C 0.64615 0.6879 0.72885 0.0
C330 C 0.59223 0.65456 0.76348 0.0
C331 C 0.61502 0.64475 0.8107 0.0
C332 C 0.65309 0.65742 0.81741 0.0
C333 C 0.66867 0.67848 0.77676 0.0
C334 C 0.57746 0.61642 0.93382 0.0
C335 C 0.56832 0.57758 0.9346 0.0
C336 C 0.59332 0.63799 0.89401 0.0
C337 C 0.59887 0.62159 0.85306 0.0
C338 C 0.58834 0.5833 0.85238 0.0
C339 C 0.57351 0.56132 0.89308 0.0
H340 H 0.84873 0.18581 0.20922 0.0
H341 H 0.84914 0.07515 0.16535 0.0
H342 H 0.88361 0.15865 0.29158 0.0
H343 H 0.88639 0.04862 0.24664 0.0
H344 H 0.92588 1.0041 0.4142 0.0
H345 H 0.88539 0.02982 0.33457 0.0
H346 H 0.94648 0.13721 0.32827 0.0
H347 H 0.98639 0.11153 0.4079 0.0
C348 C 0.85598 0.15561 0.21712 0.0
C349 C 0.84608 0.13278 0.18027 0.0
C350 C 0.87662 0.14014 0.26425 0.0
C351 C 0.88831 0.10149 0.27577 0.0
C352 C 0.8777 0.07842 0.23938 0.0
C353 C 0.85674 0.09382 0.19237 0.0
C354 C 0.93062 0.03318 0.39561 0.0
C355 C 0.95903 0.05596 0.41745 0.0
C356 C 0.90749 0.04792 0.34991 0.0
C357 C 0.91244 0.08573 0.32489 0.0
C358 C 0.9412 0.10829 0.3468 0.0
C359 C 0.96421 0.09356 0.39246 0.0
H360 H 0.3393 0.32803 0.57911 0.0
H361 H 0.45545 0.34083 0.54714 0.0
H362 H 0.35719 0.35807 0.65218 0.0
H363 H 0.47313 0.37158 0.62 0.0
H364 H 0.45856 0.48235 0.68689 0.0
H365 H 0.45438 0.43543 0.63188 0.0
H366 H 0.39682 0.35696 0.73662 0.0
H367 H 0.4011 0.40444 0.79189 0.0
C368 C 0.3689 0.3363 0.58837 0.0
C369 C 0.3958 0.33247 0.55676 0.0
C370 C 0.37917 0.35353 0.63039 0.0
C371 C 0.4165 0.36753 0.64162 0.0
C372 C 0.444 0.36158 0.61187 0.0
C373 C 0.4338 0.34414 0.57001 0.0
C374 C 0.44576 0.45474 0.6986 0.0
C375 C 0.42979 0.44708 0.74321 0.0
C376 C 0.44359 0.42773 0.66732 0.0
C377 C 0.42501 0.39257 0.67972 0.0
C378 C 0.411 0.38397 0.72591 0.0
C379 C 0.41362 0.41095 0.75762 0.0
H380 H 0.59364 0.70617 0.54953 0.0
H381 H 0.71151 0.69379 0.53065 0.0
H382 H 0.57241 0.67446 0.47843 0.0
H383 H 0.69044 0.66158 0.45992 0.0
H384 H 0.63988 0.61861 0.31863 0.0
H385 H 0.65629 0.66388 0.37533 0.0
H386 H 0.57561 0.60856 0.46895 0.0
H387 H 0.55787 0.56461 0.4111 0.0
C388 C 0.61496 0.69704 0.52971 0.0
C389 C 0.65424 0.70193 0.546 0.0
C390 C 0.60284 0.67875 0.48916 0.0
C391 C 0.62975 0.66481 0.46412 0.0
C392 C 0.66893 0.6721 0.47823 0.0
C393 C 0.68105 0.69056 0.51876 0.0
C394 C 0.62513 0.61654 0.35082 0.0
C395 C 0.59766 0.58778 0.36045 0.0
C396 C 0.63483 0.64229 0.38357 0.0
C397 C 0.61733 0.63985 0.42672 0.0
C398 C 0.5893 0.61163 0.43572 0.0
C399 C 0.57954 0.58598 0.40296 0.0
H400 H 0.84452 0.20312 0.9572 0.0
H401 H 0.82376 0.08454 0.01712 0.0
H402 H 0.87367 0.18401 0.89062 0.0
H403 H 0.85093 0.06518 0.94916 0.0
H404 H 0.95303 0.04216 0.87561 0.0
H405 H 0.91111 0.05918 0.9297 0.0
H406 H 0.87211 0.15887 0.81738 0.0
H407 H 0.91691 0.14329 0.76465 0.0
C408 C 0.84537 0.17297 0.95529 0.0
C409 C 0.83245 0.14526 0.9927 0.0
C410 C 0.86191 0.16192 0.91689 0.0
C411 C 0.86539 0.12287 0.9146 0.0
C412 C 0.84997 0.09542 0.95034 0.0
C413 C 0.83412 0.10645 0.9892 0.0
C414 C 0.93574 0.06789 0.86238 0.0
C415 C 0.9393 0.09185 0.8162 0.0
C416 C 0.91096 0.07736 0.89321 0.0
C417 C 0.88816 0.11072 0.87846 0.0
C418 C 0.88978 0.13342 0.83069 0.0
C419 C 0.91514 0.12418 0.80002 0.0
H420 H 0.41305 0.29984 0.34534 0.0
H421 H 0.38492 0.40602 0.38622 0.0
H422 H 0.43969 0.33561 0.27336 0.0
H423 H 0.40979 0.44202 0.31325 0.0
H424 H 0.49341 0.49644 0.21063 0.0
H425 H 0.46706 0.45987 0.28241 0.0
H426 H 0.42647 0.37405 0.19368 0.0
H427 H 0.45619 0.40916 0.1246 0.0
C428 C 0.4121 0.33087 0.33837 0.0
C429 C 0.39725 0.35019 0.37146 0.0
C430 C 0.42721 0.35148 0.29702 0.0
C431 C 0.42721 0.3919 0.28738 0.0
C432 C 0.41126 0.41103 0.31997 0.0
C433 C 0.39673 0.39043 0.36164 0.0
C434 C 0.47889 0.46968 0.20686 0.0
C435 C 0.47557 0.45613 0.16153 0.0
C436 C 0.46336 0.44887 0.2477 0.0
C437 C 0.44399 0.41407 0.24393 0.0
C438 C 0.44114 0.40056 0.19837 0.0
C439 C 0.45716 0.42119 0.15796 0.0
H440 H 0.19262 0.96468 0.93649 0.0
H441 H 0.20059 0.85507 0.89147 0.0
H442 H 0.15139 0.98866 0.85694 0.0
H443 H 0.16139 0.88032 0.81075 0.0
H444 H 0.13479 0.96708 0.65515 0.0
H445 H 0.17287 0.94178 0.73579 0.0
H446 H 0.07995 0.965 0.81101 0.0
H447 H 0.04011 0.98748 0.72917 0.0
C448 C 0.18561 0.94559 0.90991 0.0
C449 C 0.19986 0.90768 0.92092 0.0
C450 C 0.16207 0.95948 0.86433 0.0
C451 C 0.15306 0.93616 0.82823 0.0
C452 C 0.16801 0.89878 0.83825 0.0
C453 C 0.19084 0.88453 0.88428 0.0
C454 C 0.12179 0.96569 0.68837 0.0
C455 C 0.08383 0.97811 0.68513 0.0
C456 C 0.1439 0.95165 0.73475 0.0
C457 C 0.12915 0.95112 0.77938 0.0
C458 C 0.0918 0.96493 0.77686 0.0
C459 C 0.0691 0.97783 0.73007 0.0
loop_
_geom_bond_atom_site_label_1
_geom_bond_atom_site_label_2
_geom_bond_distance
_geom_bond_site_symmetry_2
_ccdc_geom_bond_type
H0 C7 0.929 . S
H1 C10 0.930 . S
H2 C12 0.929 . S
H3 C4 0.969 . S
C4 H3 0.969 . S
C4 O5 1.550 . S
C4 H6 0.973 . S
O5 C4 1.550 . S
O5 C11 1.412 . S
H6 C4 0.973 . S
C7 H0 0.929 . S
C7 C8 1.400 1_554 S
C7 C9 1.364 . S
C8 C7 1.400 1_556 S
C8 C12 1.377 . S
C9 C7 1.364 . S
C9 C10 1.374 . S
C10 H1 0.930 . S
C10 C9 1.374 . S
C10 C11 1.383 . S
C11 O5 1.412 . S
C11 C10 1.383 . S
C11 C12 1.394 1_554 S
C12 H2 0.929 . S
C12 C8 1.377 . S
C12 C11 1.394 1_556 S
H13 C20 0.929 . S
H14 C23 0.930 . S
H15 C25 0.929 . S
H16 C17 0.969 . S
C17 H16 0.969 . S
C17 O18 1.550 . S
C17 H19 0.973 . S
O18 C17 1.550 . S
O18 C24 1.412 . S
H19 C17 0.973 . S
C20 H13 0.929 . S
C20 C21 1.400 . S
C20 C22 1.364 . S
C21 C20 1.400 . S
C21 C25 1.377 . S
C22 C20 1.364 . S
C22 C23 1.374 . S
C23 H14 0.930 . S
C23 C22 1.374 . S
C23 C24 1.383 . S
C24 O18 1.412 . S
C24 C23 1.383 . S
C24 C25 1.394 . S
C25 H15 0.929 . S
C25 C21 1.377 . S
C25 C24 1.394 . S
H26 C33 0.929 . S
H27 C36 0.930 1_556 S
H28 C38 0.929 . S
H29 C30 0.969 . S
C30 H29 0.969 . S
C30 O31 1.550 . S
C30 H32 0.973 1_554 S
O31 C30 1.550 . S
O31 C37 1.412 . S
H32 C30 0.973 1_556 S
C33 H26 0.929 . S
C33 C34 1.400 . S
C33 C35 1.364 . S
C34 C33 1.400 . S
C34 C38 1.377 . S
C35 C33 1.364 . S
C35 C36 1.374 . S
C36 H27 0.930 1_554 S
C36 C35 1.374 . S
C36 C37 1.383 . S
C37 O31 1.412 . S
C37 C36 1.383 . S
C37 C38 1.394 . S
C38 H28 0.929 . S
C38 C34 1.377 . S
C38 C37 1.394 . S
H39 C46 0.929 . S
H40 C49 0.930 . S
H41 C51 0.929 . S
H42 C43 0.969 . S
C43 H42 0.969 . S
C43 O44 1.550 . S
C43 H45 0.973 . S
O44 C43 1.550 . S
O44 C50 1.412 . S
H45 C43 0.973 . S
C46 H39 0.929 . S
C46 C47 1.400 . S
C46 C48 1.364 . S
C47 C46 1.400 . S
C47 C51 1.377 . S
C48 C46 1.364 . S
C48 C49 1.374 . S
C49 H40 0.930 . S
C49 C48 1.374 . S
C49 C50 1.383 . S
C50 O44 1.412 . S
C50 C49 1.383 . S
C50 C51 1.394 . S
C51 H41 0.929 . S
C51 C47 1.377 . S
C51 C50 1.394 . S
Eu52 N81 2.600 . S
Eu52 N87 2.562 . S
Eu52 O96 2.462 . S
Eu52 O97 2.373 . S
Eu52 O99 2.432 . S
Eu52 O100 2.291 1_565 S
Eu52 O104 2.335 1_465 S
Eu52 O107 2.372 1_455 S
Eu52 C116 2.787 . S
C53 N54 1.365 . S
C53 C56 1.405 . S
C53 C60 1.448 . S
N54 C53 1.365 . S
N54 C57 1.319 1_655 S
N54 Eu63 2.600 . S
C55 C57 1.397 . S
C55 C58 1.367 1_455 S
C55 H75 0.931 . S
C56 C53 1.405 . S
C56 C58 1.403 . S
C56 C62 1.439 . S
C57 N54 1.319 1_455 S
C57 C55 1.397 . S
C57 H68 0.930 . S
C58 C55 1.367 1_655 S
C58 C56 1.403 . S
C58 H79 0.929 . S
C59 C60 1.430 . S
C59 C61 1.387 . S
C59 C65 1.404 . S
C60 C53 1.448 . S
C60 C59 1.430 . S
C60 N64 1.351 . S
C61 C59 1.387 . S
C61 C62 1.374 . S
C61 H76 0.931 . S
C62 C56 1.439 . S
C62 C61 1.374 . S
C62 H77 0.931 . S
Eu63 N54 2.600 . S
Eu63 N64 2.562 . S
Eu63 O98 2.335 1_655 S
Eu63 O101 2.372 1_655 S
Eu63 O102 2.462 . S
Eu63 O103 2.373 . S
Eu63 O105 2.432 . S
Eu63 O106 2.291 1_545 S
Eu63 C127 2.787 . S
N64 C60 1.351 . S
N64 Eu63 2.562 . S
N64 C66 1.325 . S
C65 C59 1.404 . S
C65 C67 1.366 . S
C65 H73 0.930 . S
C66 N64 1.325 . S
C66 C67 1.416 . S
C66 H72 0.929 . S
C67 C65 1.366 . S
C67 C66 1.416 . S
C67 H69 0.930 . S
H68 C57 0.930 . S
H69 C67 0.930 . S
H70 C85 0.930 1_655 S
H71 C92 0.930 . S
H72 C66 0.929 . S
H73 C65 0.930 . S
H74 C88 0.929 . S
H75 C55 0.931 . S
H76 C61 0.931 . S
H77 C62 0.931 . S
H78 C83 0.931 1_655 S
H79 C58 0.929 . S
H80 C91 0.930 . S
N81 Eu52 2.600 . S
N81 C82 1.365 . S
N81 C85 1.319 . S
C82 N81 1.365 . S
C82 C84 1.405 . S
C82 C90 1.448 . S
C83 H78 0.931 1_455 S
C83 C85 1.397 . S
C83 C86 1.367 . S
C84 C82 1.405 . S
C84 C86 1.403 . S
C84 C117 1.439 . S
C85 H70 0.930 1_455 S
C85 N81 1.319 . S
C85 C83 1.397 . S
C86 C83 1.367 . S
C86 C84 1.403 . S
C86 H93 0.929 . S
N87 Eu52 2.562 . S
N87 C88 1.325 . S
N87 C90 1.351 . S
C88 H74 0.929 . S
C88 N87 1.325 . S
C88 C92 1.416 . S
C89 C90 1.430 . S
C89 C91 1.404 . S
C89 C118 1.387 . S
C90 C82 1.448 . S
C90 N87 1.351 . S
C90 C89 1.430 . S
C91 H80 0.930 . S
C91 C89 1.404 . S
C91 C92 1.366 . S
C92 H71 0.930 . S
C92 C88 1.416 . S
C92 C91 1.366 . S
H93 C86 0.929 . S
H94 C117 0.931 . S
H95 C118 0.931 . S
O96 Eu52 2.462 . S
O96 C116 1.252 . S
O97 Eu52 2.373 . S
O97 C108 1.249 . S
O98 Eu63 2.335 1_455 S
O98 C108 1.264 1_545 S
O99 Eu52 2.432 . S
O99 C116 1.268 . S
O100 Eu52 2.291 1_545 S
O100 C115 1.255 . S
O101 Eu63 2.372 1_455 S
O101 C115 1.257 . S
O102 Eu63 2.462 . S
O102 C127 1.252 . S
O103 Eu63 2.373 . S
O103 C119 1.249 . S
O104 Eu52 2.335 1_645 S
O104 C119 1.264 . S
O105 Eu63 2.432 . S
O105 C127 1.268 . S
O106 Eu63 2.291 1_565 S
O106 C126 1.255 . S
O107 Eu52 2.372 1_655 S
O107 C126 1.257 . S
C108 O97 1.249 . S
C108 O98 1.264 1_565 S
C109 C112 1.382 . S
C109 C114 1.390 . S
C109 C116 1.506 . S
C110 C111 1.398 . S
C110 C114 1.392 . S
C111 C110 1.398 . S
C111 C113 1.372 . S
C111 H128 0.931 . S
C112 C109 1.382 . S
C112 C113 1.390 . S
C112 H129 0.931 . S
C113 C111 1.372 . S
C113 C112 1.390 . S
C113 H130 0.929 . S
C114 C109 1.390 . S
C114 C110 1.392 . S
C114 H131 0.930 . S
C115 O100 1.255 . S
C115 O101 1.257 . S
C116 Eu52 2.787 . S
C116 O96 1.252 . S
C116 O99 1.268 . S
C116 C109 1.506 . S
C117 C84 1.439 . S
C117 H94 0.931 . S
C117 C118 1.374 . S
C118 C89 1.387 . S
C118 H95 0.931 . S
C118 C117 1.374 . S
C119 O103 1.249 . S
C119 O104 1.264 . S
C120 C123 1.382 . S
C120 C124 1.390 . S
C120 C127 1.506 . S
C121 C122 1.398 . S
C121 C124 1.392 . S
C122 C121 1.398 . S
C122 C125 1.372 . S
C122 H132 0.931 . S
C123 C120 1.382 . S
C123 C125 1.390 . S
C123 H133 0.931 . S
C124 C120 1.390 . S
C124 C121 1.392 . S
C124 H134 0.930 . S
C125 C122 1.372 . S
C125 C123 1.390 . S
C125 H135 0.929 . S
C126 O106 1.255 . S
C126 O107 1.257 . S
C127 Eu63 2.787 . S
C127 O102 1.252 . S
C127 O105 1.268 . S
C127 C120 1.506 . S
H128 C111 0.931 . S
H129 C112 0.931 . S
H130 C113 0.929 . S
H131 C114 0.930 . S
H132 C122 0.931 . S
H133 C123 0.931 . S
H134 C124 0.930 . S
H135 C125 0.929 . S
Eu136 N165 2.600 . S
Eu136 N171 2.562 1_556 S
Eu136 O180 2.462 . S
Eu136 O181 2.373 1_556 S
Eu136 O183 2.432 . S
Eu136 O184 2.291 1_556 S
Eu136 O188 2.335 . S
Eu136 O191 2.372 1_556 S
Eu136 C200 2.787 . S
C137 N138 1.365 . S
C137 C140 1.405 . S
C137 C144 1.448 . S
N138 C137 1.365 . S
N138 C141 1.319 . S
N138 Eu147 2.600 . S
C139 C141 1.397 . S
C139 C142 1.367 . S
C139 H159 0.931 . S
C140 C137 1.405 . S
C140 C142 1.403 . S
C140 C146 1.439 . S
C141 N138 1.319 . S
C141 C139 1.397 . S
C141 H152 0.930 . S
C142 C139 1.367 . S
C142 C140 1.403 . S
C142 H163 0.929 . S
C143 C144 1.430 . S
C143 C145 1.387 . S
C143 C149 1.404 . S
C144 C137 1.448 . S
C144 C143 1.430 . S
C144 N148 1.351 . S
C145 C143 1.387 . S
C145 C146 1.374 . S
C145 H160 0.931 . S
C146 C140 1.439 . S
C146 C145 1.374 . S
C146 H161 0.931 . S
Eu147 N138 2.600 . S
Eu147 N148 2.562 . S
Eu147 O182 2.335 . S
Eu147 O185 2.372 . S
Eu147 O186 2.462 . S
Eu147 O187 2.373 . S
Eu147 O189 2.432 . S
Eu147 O190 2.291 . S
Eu147 C211 2.787 . S
N148 C144 1.351 . S
N148 Eu147 2.562 . S
N148 C150 1.325 . S
C149 C143 1.404 . S
C149 C151 1.366 . S
C149 H157 0.930 . S
C150 N148 1.325 . S
C150 C151 1.416 . S
C150 H156 0.929 . S
C151 C149 1.366 . S
C151 C150 1.416 . S
C151 H153 0.930 . S
H152 C141 0.930 . S
H153 C151 0.930 . S
H154 C169 0.930 . S
H155 C176 0.930 . S
H156 C150 0.929 . S
H157 C149 0.930 . S
H158 C172 0.929 . S
H159 C139 0.931 . S
H160 C145 0.931 . S
H161 C146 0.931 . S
H162 C167 0.931 . S
H163 C142 0.929 . S
H164 C175 0.930 . S
N165 Eu136 2.600 . S
N165 C166 1.365 1_556 S
N165 C169 1.319 . S
C166 N165 1.365 1_554 S
C166 C168 1.405 . S
C166 C174 1.448 . S
C167 H162 0.931 . S
C167 C169 1.397 . S
C167 C170 1.367 1_556 S
C168 C166 1.405 . S
C168 C170 1.403 . S
C168 C201 1.439 . S
C169 H154 0.930 . S
C169 N165 1.319 . S
C169 C167 1.397 . S
C170 C167 1.367 1_554 S
C170 C168 1.403 . S
C170 H177 0.929 . S
N171 Eu136 2.562 1_554 S
N171 C172 1.325 . S
N171 C174 1.351 . S
C172 H158 0.929 . S
C172 N171 1.325 . S
C172 C176 1.416 . S
C173 C174 1.430 . S
C173 C175 1.404 . S
C173 C202 1.387 . S
C174 C166 1.448 . S
C174 N171 1.351 . S
C174 C173 1.430 . S
C175 H164 0.930 . S
C175 C173 1.404 . S
C175 C176 1.366 . S
C176 H155 0.930 . S
C176 C172 1.416 . S
C176 C175 1.366 . S
H177 C170 0.929 . S
H178 C201 0.931 . S
H179 C202 0.931 . S
O180 Eu136 2.462 . S
O180 C200 1.252 . S
O181 Eu136 2.373 1_554 S
O181 C192 1.249 . S
O182 Eu147 2.335 . S
O182 C192 1.264 . S
O183 Eu136 2.432 . S
O183 C200 1.268 . S
O184 Eu136 2.291 1_554 S
O184 C199 1.255 . S
O185 Eu147 2.372 . S
O185 C199 1.257 . S
O186 Eu147 2.462 . S
O186 C211 1.252 . S
O187 Eu147 2.373 . S
O187 C203 1.249 1_554 S
O188 Eu136 2.335 . S
O188 C203 1.264 . S
O189 Eu147 2.432 . S
O189 C211 1.268 . S
O190 Eu147 2.291 . S
O190 C210 1.255 . S
O191 Eu136 2.372 1_554 S
O191 C210 1.257 . S
C192 O181 1.249 . S
C192 O182 1.264 . S
C193 C196 1.382 . S
C193 C198 1.390 . S
C193 C200 1.506 . S
C194 C195 1.398 . S
C194 C198 1.392 . S
C195 C194 1.398 . S
C195 C197 1.372 . S
C195 H212 0.931 . S
C196 C193 1.382 . S
C196 C197 1.390 . S
C196 H213 0.931 . S
C197 C195 1.372 . S
C197 C196 1.390 . S
C197 H214 0.929 . S
C198 C193 1.390 . S
C198 C194 1.392 . S
C198 H215 0.930 . S
C199 O184 1.255 . S
C199 O185 1.257 . S
C200 Eu136 2.787 . S
C200 O180 1.252 . S
C200 O183 1.268 . S
C200 C193 1.506 . S
C201 C168 1.439 . S
C201 H178 0.931 . S
C201 C202 1.374 . S
C202 C173 1.387 . S
C202 H179 0.931 . S
C202 C201 1.374 . S
C203 O187 1.249 1_556 S
C203 O188 1.264 . S
C204 C207 1.382 . S
C204 C208 1.390 . S
C204 C211 1.506 . S
C205 C206 1.398 . S
C205 C208 1.392 . S
C206 C205 1.398 . S
C206 C209 1.372 . S
C206 H216 0.931 . S
C207 C204 1.382 . S
C207 C209 1.390 . S
C207 H217 0.931 . S
C208 C204 1.390 . S
C208 C205 1.392 . S
C208 H218 0.930 . S
C209 C206 1.372 . S
C209 C207 1.390 . S
C209 H219 0.929 . S
C210 O190 1.255 . S
C210 O191 1.257 . S
C211 Eu147 2.787 . S
C211 O186 1.252 . S
C211 O189 1.268 . S
C211 C204 1.506 . S
H212 C195 0.931 . S
H213 C196 0.931 . S
H214 C197 0.929 . S
H215 C198 0.930 . S
H216 C206 0.931 . S
H217 C207 0.931 . S
H218 C208 0.930 . S
H219 C209 0.929 . S
H220 C228 0.950 . S
H221 C233 0.950 . S
H222 C230 0.950 . S
H223 C232 0.950 . S
H224 C234 0.950 . S
H225 C236 0.950 . S
H226 C238 0.950 . S
H227 C239 0.950 . S
C228 H220 0.950 . S
C228 C229 1.386 . S
C228 C230 1.391 . S
C229 C228 1.386 . S
C229 C233 1.393 . S
C230 H222 0.950 . S
C230 C228 1.391 . S
C230 C231 1.400 . S
C231 C230 1.400 . S
C231 C232 1.398 . S
C231 C237 1.491 . S
C232 H223 0.950 . S
C232 C231 1.398 . S
C232 C233 1.391 . S
C233 H221 0.950 . S
C233 C229 1.393 . S
C233 C232 1.391 . S
C234 H224 0.950 . S
C234 C235 1.386 . S
C234 C236 1.391 . S
C235 C234 1.386 . S
C235 C239 1.393 . S
C236 H225 0.950 . S
C236 C234 1.391 . S
C236 C237 1.400 . S
C237 C231 1.491 . S
C237 C236 1.400 . S
C237 C238 1.398 . S
C238 H226 0.950 . S
C238 C237 1.398 . S
C238 C239 1.391 . S
C239 H227 0.950 . S
C239 C235 1.393 . S
C239 C238 1.391 . S
H240 C248 0.950 1_556 S
H241 C253 0.950 . S
H242 C250 0.950 1_556 S
H243 C252 0.950 . S
H244 C254 0.950 . S
H245 C256 0.950 . S
H246 C258 0.950 1_556 S
H247 C259 0.950 1_556 S
C248 H240 0.950 1_554 S
C248 C249 1.386 . S
C248 C250 1.391 . S
C249 C248 1.386 . S
C249 C253 1.393 . S
C250 H242 0.950 1_554 S
C250 C248 1.391 . S
C250 C251 1.400 . S
C251 C250 1.400 . S
C251 C252 1.398 . S
C251 C257 1.491 . S
C252 H243 0.950 . S
C252 C251 1.398 . S
C252 C253 1.391 . S
C253 H241 0.950 . S
C253 C249 1.393 . S
C253 C252 1.391 . S
C254 H244 0.950 . S
C254 C255 1.386 . S
C254 C256 1.391 . S
C255 C254 1.386 . S
C255 C259 1.393 . S
C256 H245 0.950 . S
C256 C254 1.391 . S
C256 C257 1.400 . S
C257 C251 1.491 . S
C257 C256 1.400 . S
C257 C258 1.398 . S
C258 H246 0.950 1_554 S
C258 C257 1.398 . S
C258 C259 1.391 . S
C259 H247 0.950 1_554 S
C259 C255 1.393 . S
C259 C258 1.391 . S
H260 C268 0.950 . S
H261 C273 0.950 . S
H262 C270 0.950 . S
H263 C272 0.950 . S
H264 C274 0.950 . S
H265 C276 0.950 . S
H266 C278 0.950 . S
H267 C279 0.950 . S
C268 H260 0.950 . S
C268 C269 1.386 . S
C268 C270 1.391 . S
C269 C268 1.386 . S
C269 C273 1.393 . S
C270 H262 0.950 . S
C270 C268 1.391 . S
C270 C271 1.400 . S
C271 C270 1.400 . S
C271 C272 1.398 . S
C271 C277 1.491 . S
C272 H263 0.950 . S
C272 C271 1.398 . S
C272 C273 1.391 . S
C273 H261 0.950 . S
C273 C269 1.393 . S
C273 C272 1.391 . S
C274 H264 0.950 . S
C274 C275 1.386 . S
C274 C276 1.391 . S
C275 C274 1.386 . S
C275 C279 1.393 . S
C276 H265 0.950 . S
C276 C274 1.391 . S
C276 C277 1.400 . S
C277 C271 1.491 . S
C277 C276 1.400 . S
C277 C278 1.398 . S
C278 H266 0.950 . S
C278 C277 1.398 . S
C278 C279 1.391 . S
C279 H267 0.950 . S
C279 C275 1.393 . S
C279 C278 1.391 . S
H280 C288 0.950 . S
H281 C293 0.950 . S
H282 C290 0.950 . S
H283 C292 0.950 . S
H284 C294 0.950 . S
H285 C296 0.950 . S
H286 C298 0.950 . S
H287 C299 0.950 . S
C288 H280 0.950 . S
C288 C289 1.386 . S
C288 C290 1.391 . S
C289 C288 1.386 . S
C289 C293 1.393 . S
C290 H282 0.950 . S
C290 C288 1.391 . S
C290 C291 1.400 . S
C291 C290 1.400 . S
C291 C292 1.398 . S
C291 C297 1.491 . S
C292 H283 0.950 . S
C292 C291 1.398 . S
C292 C293 1.391 . S
C293 H281 0.950 . S
C293 C289 1.393 . S
C293 C292 1.391 . S
C294 H284 0.950 . S
C294 C295 1.386 . S
C294 C296 1.391 . S
C295 C294 1.386 . S
C295 C299 1.393 . S
C296 H285 0.950 . S
C296 C294 1.391 . S
C296 C297 1.400 . S
C297 C291 1.491 . S
C297 C296 1.400 . S
C297 C298 1.398 . S
C298 H286 0.950 . S
C298 C297 1.398 . S
C298 C299 1.391 . S
C299 H287 0.950 . S
C299 C295 1.393 . S
C299 C298 1.391 . S
H300 C308 0.950 . S
H301 C313 0.950 . S
H302 C310 0.950 . S
H303 C312 0.950 . S
H304 C314 0.950 . S
H305 C316 0.950 . S
H306 C318 0.950 . S
H307 C319 0.950 1_545 S
C308 H300 0.950 . S
C308 C309 1.386 . S
C308 C310 1.391 . S
C309 C308 1.386 . S
C309 C313 1.393 . S
C310 H302 0.950 . S
C310 C308 1.391 . S
C310 C311 1.400 . S
C311 C310 1.400 . S
C311 C312 1.398 . S
C311 C317 1.491 . S
C312 H303 0.950 . S
C312 C311 1.398 . S
C312 C313 1.391 . S
C313 H301 0.950 . S
C313 C309 1.393 . S
C313 C312 1.391 . S
C314 H304 0.950 . S
C314 C315 1.386 . S
C314 C316 1.391 . S
C315 C314 1.386 . S
C315 C319 1.393 . S
C316 H305 0.950 . S
C316 C314 1.391 . S
C316 C317 1.400 . S
C317 C311 1.491 . S
C317 C316 1.400 . S
C317 C318 1.398 . S
C318 H306 0.950 . S
C318 C317 1.398 . S
C318 C319 1.391 . S
C319 H307 0.950 1_565 S
C319 C315 1.393 . S
C319 C318 1.391 . S
H320 C328 0.950 . S
H321 C333 0.950 . S
H322 C330 0.950 . S
H323 C332 0.950 . S
H324 C334 0.950 . S
H325 C336 0.950 . S
H326 C338 0.950 . S
H327 C339 0.950 . S
C328 H320 0.950 . S
C328 C329 1.386 . S
C328 C330 1.391 . S
C329 C328 1.386 . S
C329 C333 1.393 . S
C330 H322 0.950 . S
C330 C328 1.391 . S
C330 C331 1.400 . S
C331 C330 1.400 . S
C331 C332 1.398 . S
C331 C337 1.491 . S
C332 H323 0.950 . S
C332 C331 1.398 . S
C332 C333 1.391 . S
C333 H321 0.950 . S
C333 C329 1.393 . S
C333 C332 1.391 . S
C334 H324 0.950 . S
C334 C335 1.386 . S
C334 C336 1.391 . S
C335 C334 1.386 . S
C335 C339 1.393 . S
C336 H325 0.950 . S
C336 C334 1.391 . S
C336 C337 1.400 . S
C337 C331 1.491 . S
C337 C336 1.400 . S
C337 C338 1.398 . S
C338 H326 0.950 . S
C338 C337 1.398 . S
C338 C339 1.391 . S
C339 H327 0.950 . S
C339 C335 1.393 . S
C339 C338 1.391 . S
H340 C348 0.950 . S
H341 C353 0.950 . S
H342 C350 0.950 . S
H343 C352 0.950 . S
H344 C354 0.950 1_565 S
H345 C356 0.950 . S
H346 C358 0.950 . S
H347 C359 0.950 . S
C348 H340 0.950 . S
C348 C349 1.386 . S
C348 C350 1.391 . S
C349 C348 1.386 . S
C349 C353 1.393 . S
C350 H342 0.950 . S
C350 C348 1.391 . S
C350 C351 1.400 . S
C351 C350 1.400 . S
C351 C352 1.398 . S
C351 C357 1.491 . S
C352 H343 0.950 . S
C352 C351 1.398 . S
C352 C353 1.391 . S
C353 H341 0.950 . S
C353 C349 1.393 . S
C353 C352 1.391 . S
C354 H344 0.950 1_545 S
C354 C355 1.386 . S
C354 C356 1.391 . S
C355 C354 1.386 . S
C355 C359 1.393 . S
C356 H345 0.950 . S
C356 C354 1.391 . S
C356 C357 1.400 . S
C357 C351 1.491 . S
C357 C356 1.400 . S
C357 C358 1.398 . S
C358 H346 0.950 . S
C358 C357 1.398 . S
C358 C359 1.391 . S
C359 H347 0.950 . S
C359 C355 1.393 . S
C359 C358 1.391 . S
H360 C368 0.950 . S
H361 C373 0.950 . S
H362 C370 0.950 . S
H363 C372 0.950 . S
H364 C374 0.950 . S
H365 C376 0.950 . S
H366 C378 0.950 . S
H367 C379 0.950 . S
C368 H360 0.950 . S
C368 C369 1.386 . S
C368 C370 1.391 . S
C369 C368 1.386 . S
C369 C373 1.393 . S
C370 H362 0.950 . S
C370 C368 1.391 . S
C370 C371 1.400 . S
C371 C370 1.400 . S
C371 C372 1.398 . S
C371 C377 1.491 . S
C372 H363 0.950 . S
C372 C371 1.398 . S
C372 C373 1.391 . S
C373 H361 0.950 . S
C373 C369 1.393 . S
C373 C372 1.391 . S
C374 H364 0.950 . S
C374 C375 1.386 . S
C374 C376 1.391 . S
C375 C374 1.386 . S
C375 C379 1.393 . S
C376 H365 0.950 . S
C376 C374 1.391 . S
C376 C377 1.400 . S
C377 C371 1.491 . S
C377 C376 1.400 . S
C377 C378 1.398 . S
C378 H366 0.950 . S
C378 C377 1.398 . S
C378 C379 1.391 . S
C379 H367 0.950 . S
C379 C375 1.393 . S
C379 C378 1.391 . S
H380 C388 0.950 . S
H381 C393 0.950 . S
H382 C390 0.950 . S
H383 C392 0.950 . S
H384 C394 0.950 . S
H385 C396 0.950 . S
H386 C398 0.950 . S
H387 C399 0.950 . S
C388 H380 0.950 . S
C388 C389 1.386 . S
C388 C390 1.391 . S
C389 C388 1.386 . S
C389 C393 1.393 . S
C390 H382 0.950 . S
C390 C388 1.391 . S
C390 C391 1.400 . S
C391 C390 1.400 . S
C391 C392 1.398 . S
C391 C397 1.491 . S
C392 H383 0.950 . S
C392 C391 1.398 . S
C392 C393 1.391 . S
C393 H381 0.950 . S
C393 C389 1.393 . S
C393 C392 1.391 . S
C394 H384 0.950 . S
C394 C395 1.386 . S
C394 C396 1.391 . S
C395 C394 1.386 . S
C395 C399 1.393 . S
C396 H385 0.950 . S
C396 C394 1.391 . S
C396 C397 1.400 . S
C397 C391 1.491 . S
C397 C396 1.400 . S
C397 C398 1.398 . S
C398 H386 0.950 . S
C398 C397 1.398 . S
C398 C399 1.391 . S
C399 H387 0.950 . S
C399 C395 1.393 . S
C399 C398 1.391 . S
H400 C408 0.950 . S
H401 C413 0.950 1_554 S
H402 C410 0.950 . S
H403 C412 0.950 . S
H404 C414 0.950 . S
H405 C416 0.950 . S
H406 C418 0.950 . S
H407 C419 0.950 . S
C408 H400 0.950 . S
C408 C409 1.386 . S
C408 C410 1.391 . S
C409 C408 1.386 . S
C409 C413 1.393 . S
C410 H402 0.950 . S
C410 C408 1.391 . S
C410 C411 1.400 . S
C411 C410 1.400 . S
C411 C412 1.398 . S
C411 C417 1.491 . S
C412 H403 0.950 . S
C412 C411 1.398 . S
C412 C413 1.391 . S
C413 H401 0.950 1_556 S
C413 C409 1.393 . S
C413 C412 1.391 . S
C414 H404 0.950 . S
C414 C415 1.386 . S
C414 C416 1.391 . S
C415 C414 1.386 . S
C415 C419 1.393 . S
C416 H405 0.950 . S
C416 C414 1.391 . S
C416 C417 1.400 . S
C417 C411 1.491 . S
C417 C416 1.400 . S
C417 C418 1.398 . S
C418 H406 0.950 . S
C418 C417 1.398 . S
C418 C419 1.391 . S
C419 H407 0.950 . S
C419 C415 1.393 . S
C419 C418 1.391 . S
H420 C428 0.950 . S
H421 C433 0.950 . S
H422 C430 0.950 . S
H423 C432 0.950 . S
H424 C434 0.950 . S
H425 C436 0.950 . S
H426 C438 0.950 . S
H427 C439 0.950 . S
C428 H420 0.950 . S
C428 C429 1.386 . S
C428 C430 1.391 . S
C429 C428 1.386 . S
C429 C433 1.393 . S
C430 H422 0.950 . S
C430 C428 1.391 . S
C430 C431 1.400 . S
C431 C430 1.400 . S
C431 C432 1.398 . S
C431 C437 1.491 . S
C432 H423 0.950 . S
C432 C431 1.398 . S
C432 C433 1.391 . S
C433 H421 0.950 . S
C433 C429 1.393 . S
C433 C432 1.391 . S
C434 H424 0.950 . S
C434 C435 1.386 . S
C434 C436 1.391 . S
C435 C434 1.386 . S
C435 C439 1.393 . S
C436 H425 0.950 . S
C436 C434 1.391 . S
C436 C437 1.400 . S
C437 C431 1.491 . S
C437 C436 1.400 . S
C437 C438 1.398 . S
C438 H426 0.950 . S
C438 C437 1.398 . S
C438 C439 1.391 . S
C439 H427 0.950 . S
C439 C435 1.393 . S
C439 C438 1.391 . S
H440 C448 0.950 . S
H441 C453 0.950 . S
H442 C450 0.950 . S
H443 C452 0.950 . S
H444 C454 0.950 . S
H445 C456 0.950 . S
H446 C458 0.950 . S
H447 C459 0.950 . S
C448 H440 0.950 . S
C448 C449 1.386 . S
C448 C450 1.391 . S
C449 C448 1.386 . S
C449 C453 1.393 . S
C450 H442 0.950 . S
C450 C448 1.391 . S
C450 C451 1.400 . S
C451 C450 1.400 . S
C451 C452 1.398 . S
C451 C457 1.491 . S
C452 H443 0.950 . S
C452 C451 1.398 . S
C452 C453 1.391 . S
C453 H441 0.950 . S
C453 C449 1.393 . S
C453 C452 1.391 . S
C454 H444 0.950 . S
C454 C455 1.386 . S
C454 C456 1.391 . S
C455 C454 1.386 . S
C455 C459 1.393 . S
C456 H445 0.950 . S
C456 C454 1.391 . S
C456 C457 1.400 . S
C457 C451 1.491 . S
C457 C456 1.400 . S
C457 C458 1.398 . S
C458 H446 0.950 . S
C458 C457 1.398 . S
C458 C459 1.391 . S
C459 H447 0.950 . S
C459 C455 1.393 . S
C459 C458 1.391 . S
C235 C115 1.664 . S
C229 C43 1.556 . S
C249 C4 1.614 . S
C255 C210 1.646 . S
C269 C17 1.604 . S
C275 C126 1.652 . S
C289 C30 1.651 . S
C295 C199 1.649 . S
C315 C110 1.422 . S
C309 C9 1.569 . S
C335 C203 1.673 . S
C329 C21 1.665 . S
C349 C34 1.624 . S
C355 C119 1.626 . S
C369 C48 1.583 . S
C375 C194 1.391 . S
C395 C205 1.398 . S
C389 C22 1.585 . S
C415 C121 1.420 . S
C409 C35 1.571 1_556 S
C435 C192 1.673 . S
C429 C47 1.663 . S
C449 C8 1.622 . S
C455 C108 1.626 . S
