# Generated by pormake.
# Topology ssb, (4,4)-cn, num edge types: 1
# Building blocks:
#     Node 0, Type 0, BuildingBlock: NAWXER_clean_linker_0, # of connection points: 4
#     Node 1, Type 0, BuildingBlock: NAWXER_clean_linker_0, # of connection points: 4
#     Node 2, Type 0, BuildingBlock: NAWXER_clean_linker_0, # of connection points: 4
#     Node 3, Type 0, BuildingBlock: NAWXER_clean_linker_0, # of connection points: 4
#     Node 4, Type 0, BuildingBlock: NAWXER_clean_linker_0, # of connection points: 4
#     Node 5, Type 0, BuildingBlock: NAWXER_clean_linker_0, # of connection points: 4
#     Node 6, Type 0, BuildingBlock: NAWXER_clean_linker_0, # of connection points: 4
#     Node 7, Type 0, BuildingBlock: NAWXER_clean_linker_0, # of connection points: 4
#     Node 8, Type 1, BuildingBlock: KOZSID_clean_sbu_0, # of connection points: 4
#     Node 9, Type 1, BuildingBlock: KOZSID_clean_sbu_0, # of connection points: 4
#     Node 10, Type 1, BuildingBlock: KOZSID_clean_sbu_0, # of connection points: 4
#     Node 11, Type 1, BuildingBlock: KOZSID_clean_sbu_0, # of connection points: 4
#     Node 12, Type 1, BuildingBlock: KOZSID_clean_sbu_0, # of connection points: 4
#     Node 13, Type 1, BuildingBlock: KOZSID_clean_sbu_0, # of connection points: 4
#     Node 14, Type 1, BuildingBlock: KOZSID_clean_sbu_0, # of connection points: 4
#     Node 15, Type 1, BuildingBlock: KOZSID_clean_sbu_0, # of connection points: 4
#     Edge 16, Type (0, 1), None
#     Edge 17, Type (0, 1), None
#     Edge 18, Type (0, 1), None
#     Edge 19, Type (0, 1), None
#     Edge 20, Type (0, 1), None
#     Edge 21, Type (0, 1), None
#     Edge 22, Type (0, 1), None
#     Edge 23, Type (0, 1), None
#     Edge 24, Type (0, 1), None
#     Edge 25, Type (0, 1), None
#     Edge 26, Type (0, 1), None
#     Edge 27, Type (0, 1), None
#     Edge 28, Type (0, 1), None
#     Edge 29, Type (0, 1), None
#     Edge 30, Type (0, 1), None
#     Edge 31, Type (0, 1), None
#     Edge 32, Type (0, 1), None
#     Edge 33, Type (0, 1), None
#     Edge 34, Type (0, 1), None
#     Edge 35, Type (0, 1), None
#     Edge 36, Type (0, 1), None
#     Edge 37, Type (0, 1), None
#     Edge 38, Type (0, 1), None
#     Edge 39, Type (0, 1), None
#     Edge 40, Type (0, 1), None
#     Edge 41, Type (0, 1), None
#     Edge 42, Type (0, 1), None
#     Edge 43, Type (0, 1), None
#     Edge 44, Type (0, 1), None
#     Edge 45, Type (0, 1), None
#     Edge 46, Type (0, 1), None
#     Edge 47, Type (0, 1), None
# Relax obj value: 0.007
# Max RMSD: 0.051
# Mean RMSD: 0.031
data_MOF--net-ssb--node1-KOZSID_clean_sbu_0--node2-NAWXER_clean_linker_0--edge1-none
_symmetry_space_group_name_H-M    P1
_symmetry_Int_Tables_number       1
_symmetry_cell_setting            triclinic
loop_
_symmetry_equiv_pos_as_xyz
'x, y, z'
_cell_length_a     36.400573
_cell_length_b     36.166479
_cell_length_c     26.686189
_cell_angle_alpha  93.733762
_cell_angle_beta   97.397584
_cell_angle_gamma 89.966798
loop_
_atom_site_label
_atom_site_type_symbol
_atom_site_fract_x
_atom_site_fract_y
_atom_site_fract_z
_atom_type_partial_charge
C0 C 0.34689 0.25948 0.15671 0.0
C1 C 0.38291 0.25394 0.18053 0.0
C2 C 0.31662 0.25688 0.1836 0.0
C3 C 0.32198 0.25014 0.23537 0.0
C4 C 0.38826 0.24518 0.23139 0.0
C5 C 0.35801 0.24345 0.25868 0.0
C6 C 0.29042 0.25038 0.26549 0.0
C7 C 0.29615 0.36507 0.20212 0.0
C8 C 0.26521 0.37316 0.16677 0.0
C9 C 0.29569 0.33506 0.23346 0.0
C10 C 0.26429 0.31184 0.23085 0.0
C11 C 0.23371 0.34991 0.16482 0.0
C12 C 0.23318 0.32018 0.19652 0.0
C13 C 0.26353 0.27897 0.26325 0.0
C14 C 0.16611 0.27835 0.41457 0.0
C15 C 0.13959 0.24951 0.40743 0.0
C16 C 0.19582 0.27789 0.38631 0.0
C17 C 0.20025 0.24817 0.35133 0.0
C18 C 0.14383 0.22009 0.37135 0.0
C19 C 0.174 0.21935 0.34376 0.0
C20 C 0.23225 0.24783 0.32271 0.0
C21 C 0.26458 0.12021 0.37188 0.0
C22 C 0.25528 0.12499 0.42156 0.0
C23 C 0.26611 0.15066 0.34144 0.0
C24 C 0.25833 0.18702 0.35949 0.0
C25 C 0.24825 0.16128 0.44014 0.0
C26 C 0.25015 0.19176 0.40994 0.0
C27 C 0.25928 0.21945 0.32581 0.0
H28 H 0.3422 0.26542 0.11712 0.0
H29 H 0.28904 0.2605 0.16397 0.0
H30 H 0.41587 0.24033 0.25015 0.0
H31 H 0.36285 0.23767 0.29831 0.0
H32 H 0.32083 0.38222 0.20635 0.0
H33 H 0.32001 0.33005 0.25999 0.0
H34 H 0.20934 0.35408 0.13809 0.0
H35 H 0.20849 0.30304 0.19329 0.0
H36 H 0.16437 0.30109 0.44258 0.0
H37 H 0.21591 0.30036 0.39264 0.0
H38 H 0.12369 0.19776 0.36391 0.0
H39 H 0.17675 0.19642 0.31632 0.0
H40 H 0.27059 0.09275 0.35648 0.0
H41 H 0.27298 0.14563 0.3033 0.0
H42 H 0.24171 0.16617 0.47846 0.0
H43 H 0.2456 0.21917 0.4266 0.0
N44 N 0.28728 0.22203 0.29657 0.0
N45 N 0.23544 0.27616 0.29197 0.0
C46 C 0.63066 0.27025 0.20904 0.0
C47 C 0.62378 0.25548 0.15872 0.0
C48 C 0.66652 0.27044 0.23498 0.0
C49 C 0.69559 0.2545 0.21161 0.0
C50 C 0.6529 0.23901 0.13573 0.0
C51 C 0.68842 0.23775 0.16247 0.0
C52 C 0.73324 0.25446 0.23923 0.0
C53 C 0.7274 0.35478 0.15029 0.0
C54 C 0.73446 0.38859 0.17854 0.0
C55 C 0.73374 0.32163 0.17332 0.0
C56 C 0.74577 0.32168 0.22545 0.0
C57 C 0.74676 0.38898 0.23055 0.0
C58 C 0.75211 0.35563 0.25398 0.0
C59 C 0.75553 0.28666 0.24902 0.0
C60 C 0.89992 0.23421 0.35085 0.0
C61 C 0.90269 0.25186 0.39968 0.0
C62 C 0.86653 0.23458 0.31846 0.0
C63 C 0.83605 0.25395 0.33373 0.0
C64 C 0.87211 0.27142 0.41462 0.0
C65 C 0.83932 0.27315 0.38144 0.0
C66 C 0.80034 0.25334 0.30076 0.0
C67 C 0.79352 0.15546 0.39425 0.0
C68 C 0.78605 0.1215 0.36666 0.0
C69 C 0.79303 0.18797 0.36925 0.0
C70 C 0.78613 0.18678 0.3162 0.0
C71 C 0.78005 0.11984 0.31372 0.0
C72 C 0.78025 0.15244 0.28852 0.0
C73 C 0.77814 0.22113 0.2905 0.0
H74 H 0.60839 0.2822 0.2279 0.0
H75 H 0.67156 0.28276 0.27337 0.0
H76 H 0.6481 0.22717 0.09708 0.0
H77 H 0.71055 0.22483 0.14428 0.0
H78 H 0.71912 0.35402 0.10973 0.0
H79 H 0.73108 0.29614 0.14964 0.0
H80 H 0.75296 0.41495 0.2526 0.0
H81 H 0.76209 0.35631 0.29408 0.0
H82 H 0.92345 0.2198 0.33805 0.0
H83 H 0.86449 0.21993 0.28147 0.0
H84 H 0.87369 0.28543 0.45199 0.0
H85 H 0.81601 0.28827 0.39371 0.0
H86 H 0.79734 0.15702 0.4353 0.0
H87 H 0.79534 0.214 0.39175 0.0
H88 H 0.77373 0.09368 0.2922 0.0
H89 H 0.77406 0.15106 0.24762 0.0
N90 N 0.74537 0.22291 0.26019 0.0
N91 N 0.78827 0.285 0.27969 0.0
C92 C 0.64561 0.73898 0.12532 0.0
C93 C 0.61333 0.74308 0.1486 0.0
C94 C 0.68046 0.74102 0.15445 0.0
C95 C 0.68367 0.74664 0.20755 0.0
C96 C 0.61628 0.74845 0.20152 0.0
C97 C 0.65118 0.75039 0.23074 0.0
C98 C 0.7206 0.75193 0.23837 0.0
C99 C 0.72466 0.63009 0.17696 0.0
C100 C 0.74341 0.62616 0.13385 0.0
C101 C 0.72645 0.66353 0.20758 0.0
C102 C 0.74793 0.69374 0.19695 0.0
C103 C 0.7642 0.65681 0.1227 0.0
C104 C 0.76702 0.68978 0.1543 0.0
C105 C 0.75119 0.72887 0.23089 0.0
C106 C 0.86637 0.78146 0.40322 0.0
C107 C 0.8983 0.77742 0.37899 0.0
C108 C 0.83119 0.77913 0.37522 0.0
C109 C 0.82717 0.77338 0.32219 0.0
C110 C 0.89455 0.77144 0.32616 0.0
C111 C 0.85923 0.76932 0.29798 0.0
C112 C 0.78989 0.76808 0.29244 0.0
C113 C 0.78753 0.88688 0.36545 0.0
C114 C 0.76438 0.89079 0.40398 0.0
C115 C 0.78647 0.85446 0.33266 0.0
C116 C 0.76171 0.82513 0.33671 0.0
C117 C 0.7403 0.86098 0.40864 0.0
C118 C 0.73853 0.82905 0.37506 0.0
C119 C 0.75913 0.79092 0.30062 0.0
H120 H 0.64384 0.73535 0.08445 0.0
H121 H 0.70484 0.73959 0.13514 0.0
H122 H 0.59161 0.75198 0.22005 0.0
H123 H 0.65281 0.75524 0.27146 0.0
H124 H 0.70878 0.6071 0.18727 0.0
H125 H 0.71163 0.66552 0.24033 0.0
H126 H 0.77882 0.65505 0.08977 0.0
H127 H 0.78376 0.71247 0.14499 0.0
H128 H 0.8686 0.7857 0.44402 0.0
H129 H 0.8072 0.78072 0.39535 0.0
H130 H 0.91887 0.76798 0.30687 0.0
H131 H 0.85694 0.76424 0.25724 0.0
H132 H 0.80622 0.90919 0.36023 0.0
H133 H 0.80454 0.85264 0.30338 0.0
H134 H 0.7223 0.86263 0.438 0.0
H135 H 0.7192 0.80711 0.37946 0.0
N136 N 0.72573 0.78167 0.27313 0.0
N137 N 0.78461 0.73817 0.25805 0.0
C138 C 0.36068 0.71941 0.16889 0.0
C139 C 0.36624 0.74684 0.13541 0.0
C140 C 0.32898 0.71958 0.19365 0.0
C141 C 0.30188 0.74698 0.18517 0.0
C142 C 0.33891 0.77407 0.12685 0.0
C143 C 0.3073 0.77426 0.15167 0.0
C144 C 0.26982 0.7498 0.21461 0.0
C145 C 0.25354 0.64354 0.12061 0.0
C146 C 0.25536 0.6123 0.14913 0.0
C147 C 0.25075 0.67864 0.14434 0.0
C148 C 0.25017 0.68272 0.19689 0.0
C149 C 0.25419 0.61612 0.20139 0.0
C150 C 0.25143 0.65128 0.2252 0.0
C151 C 0.24702 0.71957 0.22228 0.0
C152 C 0.13001 0.79418 0.3358 0.0
C153 C 0.12621 0.76829 0.3721 0.0
C154 C 0.15852 0.79102 0.30515 0.0
C155 C 0.184 0.76182 0.30976 0.0
C156 C 0.15178 0.73896 0.37635 0.0
C157 C 0.18003 0.7356 0.34526 0.0
C158 C 0.21434 0.7582 0.27717 0.0
C159 C 0.25344 0.85596 0.38207 0.0
C160 C 0.25094 0.88966 0.3588 0.0
C161 C 0.24712 0.8228 0.35298 0.0
C162 C 0.23847 0.82307 0.30034 0.0
C163 C 0.24169 0.89004 0.30621 0.0
C164 C 0.23603 0.85672 0.27693 0.0
C165 C 0.23735 0.78814 0.26963 0.0
H166 H 0.38133 0.69835 0.17716 0.0
H167 H 0.32623 0.69891 0.22055 0.0
H168 H 0.34184 0.79529 0.10079 0.0
H169 H 0.28703 0.7959 0.1448 0.0
H170 H 0.2541 0.64067 0.08003 0.0
H171 H 0.24877 0.70251 0.12167 0.0
H172 H 0.25535 0.59198 0.22352 0.0
H173 H 0.25064 0.65399 0.26573 0.0
H174 H 0.11058 0.81668 0.33034 0.0
H175 H 0.1603 0.81117 0.27726 0.0
H176 H 0.15041 0.71875 0.40425 0.0
H177 H 0.19926 0.71281 0.34964 0.0
H178 H 0.25999 0.85534 0.4228 0.0
H179 H 0.25005 0.79693 0.37139 0.0
H180 H 0.2394 0.91597 0.28792 0.0
H181 H 0.23004 0.85712 0.23613 0.0
N182 N 0.26391 0.78296 0.23866 0.0
N183 N 0.22023 0.72481 0.25326 0.0
C184 C 0.1288 0.80175 0.67895 0.0
C185 C 0.12266 0.78338 0.63048 0.0
C186 C 0.16337 0.80018 0.70846 0.0
C187 C 0.192 0.77918 0.69077 0.0
C188 C 0.15133 0.76209 0.61306 0.0
C189 C 0.18555 0.75955 0.64332 0.0
C190 C 0.22773 0.77605 0.72334 0.0
C191 C 0.24266 0.8644 0.61171 0.0
C192 C 0.25085 0.90028 0.63415 0.0
C193 C 0.24419 0.83321 0.6412 0.0
C194 C 0.25355 0.83674 0.69436 0.0
C195 C 0.26063 0.90386 0.68714 0.0
C196 C 0.26214 0.87266 0.71664 0.0
C197 C 0.25606 0.80336 0.72647 0.0
C198 C 0.39017 0.74078 0.83341 0.0
C199 C 0.3964 0.75695 0.88317 0.0
C200 C 0.35584 0.74448 0.80374 0.0
C201 C 0.32773 0.76574 0.82248 0.0
C202 C 0.36818 0.7785 0.90153 0.0
C203 C 0.33464 0.78378 0.8709 0.0
C204 C 0.29158 0.76965 0.79093 0.0
C205 C 0.27722 0.68309 0.90466 0.0
C206 C 0.26568 0.64753 0.88392 0.0
C207 C 0.27587 0.71374 0.87435 0.0
C208 C 0.26451 0.70989 0.82161 0.0
C209 C 0.2529 0.64381 0.83158 0.0
C210 C 0.25247 0.67437 0.80101 0.0
C211 C 0.26286 0.74272 0.78849 0.0
H212 H 0.10671 0.81701 0.69426 0.0
H213 H 0.16756 0.81474 0.74555 0.0
H214 H 0.147 0.74701 0.57633 0.0
H215 H 0.20711 0.74255 0.62953 0.0
H216 H 0.23577 0.86035 0.57102 0.0
H217 H 0.23912 0.80614 0.62193 0.0
H218 H 0.26745 0.93093 0.70579 0.0
H219 H 0.26992 0.87669 0.75719 0.0
H220 H 0.41186 0.7253 0.81745 0.0
H221 H 0.35136 0.7311 0.76591 0.0
H222 H 0.37233 0.79171 0.93947 0.0
H223 H 0.31358 0.80098 0.88561 0.0
H224 H 0.2862 0.68752 0.9449 0.0
H225 H 0.2825 0.74069 0.89297 0.0
H226 H 0.24358 0.61703 0.81401 0.0
H227 H 0.24277 0.67012 0.76094 0.0
N228 N 0.23215 0.74715 0.75425 0.0
N229 N 0.28699 0.79879 0.76036 0.0
C230 C 0.38189 0.27973 0.87774 0.0
C231 C 0.38896 0.26494 0.92532 0.0
C232 C 0.34573 0.28094 0.85314 0.0
C233 C 0.31637 0.26646 0.8752 0.0
C234 C 0.3595 0.25057 0.94744 0.0
C235 C 0.32343 0.25087 0.92216 0.0
C236 C 0.27888 0.26507 0.84709 0.0
C237 C 0.28243 0.37614 0.93356 0.0
C238 C 0.27842 0.40621 0.90287 0.0
C239 C 0.27793 0.34016 0.91175 0.0
C240 C 0.26957 0.33407 0.85904 0.0
C241 C 0.27221 0.40022 0.85013 0.0
C242 C 0.26759 0.36422 0.82828 0.0
C243 C 0.25819 0.29714 0.83644 0.0
C244 C 0.11392 0.23942 0.72646 0.0
C245 C 0.11219 0.2555 0.67969 0.0
C246 C 0.14682 0.24085 0.76001 0.0
C247 C 0.17787 0.25976 0.74814 0.0
C248 C 0.14341 0.27436 0.668 0.0
C249 C 0.17573 0.27716 0.70245 0.0
C250 C 0.21288 0.26085 0.78281 0.0
C251 C 0.22824 0.16236 0.67878 0.0
C252 C 0.23237 0.12859 0.70144 0.0
C253 C 0.22626 0.19499 0.70847 0.0
C254 C 0.22771 0.19419 0.76118 0.0
C255 C 0.23272 0.12724 0.7538 0.0
C256 C 0.23058 0.16012 0.78373 0.0
C257 C 0.23412 0.22893 0.79247 0.0
H258 H 0.40438 0.29031 0.85971 0.0
H259 H 0.34073 0.2924 0.81638 0.0
H260 H 0.36452 0.23884 0.98402 0.0
H261 H 0.30104 0.23913 0.93926 0.0
H262 H 0.28677 0.38064 0.97446 0.0
H263 H 0.2786 0.31738 0.93624 0.0
H264 H 0.26879 0.4234 0.82624 0.0
H265 H 0.26098 0.35997 0.78754 0.0
H266 H 0.08991 0.22553 0.73681 0.0
H267 H 0.14796 0.22757 0.7954 0.0
H268 H 0.14266 0.28713 0.63226 0.0
H269 H 0.19948 0.2919 0.69277 0.0
H270 H 0.22832 0.16358 0.63831 0.0
H271 H 0.22623 0.22092 0.69043 0.0
H272 H 0.23612 0.10112 0.7715 0.0
H273 H 0.23272 0.15916 0.82449 0.0
N274 N 0.26624 0.23212 0.82447 0.0
N275 N 0.22577 0.29393 0.80487 0.0
C276 C 0.86717 0.22679 0.69768 0.0
C277 C 0.87241 0.25449 0.66448 0.0
C278 C 0.83585 0.22687 0.72292 0.0
C279 C 0.80923 0.25473 0.71572 0.0
C280 C 0.84565 0.2825 0.65776 0.0
C281 C 0.81461 0.28282 0.68361 0.0
C282 C 0.77638 0.2553 0.74283 0.0
C283 C 0.76349 0.16006 0.62196 0.0
C284 C 0.75802 0.12464 0.63872 0.0
C285 C 0.76108 0.19228 0.65418 0.0
C286 C 0.75385 0.19022 0.70476 0.0
C287 C 0.74989 0.12241 0.68865 0.0
C288 C 0.74776 0.15464 0.72107 0.0
C289 C 0.75161 0.22471 0.74008 0.0
C290 C 0.63285 0.28817 0.85922 0.0
C291 C 0.6283 0.25922 0.89072 0.0
C292 C 0.66191 0.28756 0.82961 0.0
C293 C 0.68724 0.2582 0.83127 0.0
C294 C 0.65326 0.22944 0.89125 0.0
C295 C 0.68225 0.22884 0.86157 0.0
C296 C 0.71907 0.25799 0.80185 0.0
C297 C 0.73643 0.35377 0.92302 0.0
C298 C 0.74029 0.38905 0.9049 0.0
C299 C 0.73758 0.32133 0.89086 0.0
C300 C 0.74212 0.32315 0.83927 0.0
C301 C 0.74551 0.39101 0.8538 0.0
C302 C 0.74656 0.35859 0.82157 0.0
C303 C 0.7438 0.28862 0.80422 0.0
H304 H 0.88747 0.20523 0.70476 0.0
H305 H 0.83255 0.20535 0.74844 0.0
H306 H 0.84829 0.30394 0.63196 0.0
H307 H 0.7944 0.30465 0.67778 0.0
H308 H 0.76916 0.16285 0.58352 0.0
H309 H 0.76438 0.21891 0.63898 0.0
H310 H 0.74512 0.0956 0.70262 0.0
H311 H 0.74166 0.15167 0.75927 0.0
H312 H 0.61378 0.31117 0.8571 0.0
H313 H 0.6647 0.31013 0.80557 0.0
H314 H 0.65093 0.20689 0.91546 0.0
H315 H 0.70138 0.20585 0.86329 0.0
H316 H 0.73293 0.35128 0.96236 0.0
H317 H 0.73541 0.29475 0.90672 0.0
H318 H 0.74897 0.41773 0.83881 0.0
H319 H 0.7506 0.36127 0.78246 0.0
N320 N 0.77134 0.28585 0.77412 0.0
N321 N 0.72406 0.2274 0.77036 0.0
C322 C 0.86035 0.74829 0.65879 0.0
C323 C 0.88455 0.77898 0.66674 0.0
C324 C 0.83229 0.74448 0.68932 0.0
C325 C 0.82722 0.77172 0.72765 0.0
C326 C 0.88026 0.80575 0.7061 0.0
C327 C 0.8516 0.80232 0.73605 0.0
C328 C 0.79638 0.76772 0.75841 0.0
C329 C 0.76357 0.89478 0.73166 0.0
C330 C 0.75659 0.89073 0.67866 0.0
C331 C 0.76837 0.8635 0.75961 0.0
C332 C 0.76732 0.82818 0.73458 0.0
C333 C 0.75501 0.85529 0.65381 0.0
C334 C 0.76049 0.82416 0.68165 0.0
C335 C 0.76952 0.79523 0.76354 0.0
C336 C 0.675 0.73358 0.91197 0.0
C337 C 0.64158 0.75001 0.89273 0.0
C338 C 0.70639 0.73564 0.88677 0.0
C339 C 0.70458 0.75296 0.84071 0.0
C340 C 0.6399 0.76794 0.84747 0.0
C341 C 0.6709 0.76917 0.82164 0.0
C342 C 0.73756 0.75687 0.81329 0.0
C343 C 0.72943 0.63437 0.83021 0.0
C344 C 0.7573 0.62338 0.86777 0.0
C345 C 0.73165 0.66871 0.80989 0.0
C346 C 0.76192 0.69223 0.82649 0.0
C347 C 0.78831 0.64663 0.88255 0.0
C348 C 0.79076 0.6806 0.86158 0.0
C349 C 0.7641 0.72886 0.80703 0.0
H350 H 0.86317 0.72718 0.62883 0.0
H351 H 0.81394 0.72061 0.68219 0.0
H352 H 0.89848 0.82972 0.71285 0.0
H353 H 0.84851 0.82348 0.76582 0.0
H354 H 0.76506 0.92204 0.75125 0.0
H355 H 0.77303 0.86678 0.80058 0.0
H356 H 0.75016 0.85177 0.61284 0.0
H357 H 0.75883 0.79691 0.66197 0.0
H358 H 0.67712 0.72015 0.94735 0.0
H359 H 0.73214 0.72448 0.90416 0.0
H360 H 0.61445 0.78085 0.83191 0.0
H361 H 0.6685 0.78303 0.78659 0.0
H362 H 0.70557 0.6168 0.81725 0.0
H363 H 0.70959 0.67714 0.78179 0.0
H364 H 0.80999 0.63944 0.91194 0.0
H365 H 0.81448 0.69847 0.87427 0.0
N366 N 0.79254 0.73538 0.78029 0.0
N367 N 0.74141 0.78897 0.79078 0.0
C368 C 0.06051 0.28855 0.62707 0.0
C369 C 0.07102 0.32301 0.65062 0.0
C370 C 0.0523 0.34883 0.62255 0.0
C371 C 0.03116 0.32879 0.58403 0.0
N372 N 0.03469 0.29165 0.5862 0.0
Co373 Co 0.00767 0.25228 0.53906 0.0
N374 N 0.98133 0.29042 0.4966 0.0
C375 C 0.98548 0.32767 0.50328 0.0
C376 C 0.96468 0.34666 0.46711 0.0
C377 C 0.94553 0.32002 0.43587 0.0
C378 C 0.95546 0.28618 0.45531 0.0
N379 N 0.98049 0.21297 0.49175 0.0
C380 C 0.95293 0.21612 0.45283 0.0
C381 C 0.93941 0.18156 0.43292 0.0
C382 C 0.95935 0.1558 0.45964 0.0
C383 C 0.98352 0.17584 0.49464 0.0
N384 N 0.03418 0.21421 0.58173 0.0
C385 C 0.03054 0.17694 0.57432 0.0
C386 C 0.05434 0.15781 0.60697 0.0
C387 C 0.07467 0.18433 0.63692 0.0
C388 C 0.06176 0.21842 0.62117 0.0
N389 N 0.96655 0.25308 0.58138 0.0
C390 C 0.9054 0.25403 0.63668 0.0
C391 C 0.92041 0.22062 0.61977 0.0
C392 C 0.95087 0.22079 0.59292 0.0
C393 C 0.92211 0.28696 0.62613 0.0
C394 C 0.95217 0.28585 0.59843 0.0
N395 N 0.04868 0.25138 0.49659 0.0
C396 C 0.09332 0.21732 0.45235 0.0
C397 C 0.10787 0.25011 0.43768 0.0
C398 C 0.09196 0.28353 0.45288 0.0
C399 C 0.06299 0.28354 0.48245 0.0
C400 C 0.06382 0.21857 0.48105 0.0
H401 H 0.05276 0.30997 0.4935 0.0
H402 H 0.054 0.19258 0.49049 0.0
H403 H 0.96088 0.1944 0.58136 0.0
H404 H 0.96308 0.31191 0.59097 0.0
C405 C 0.00846 0.34407 0.54462 0.0
C406 C 0.07745 0.25397 0.64333 0.0
C407 C 0.9378 0.25116 0.43506 0.0
C408 C 0.0069 0.16069 0.53351 0.0
H409 H 0.09078 0.32896 0.68409 0.0
H410 H 0.05428 0.37866 0.62901 0.0
H411 H 0.96319 0.37635 0.46425 0.0
H412 H 0.92581 0.32501 0.4031 0.0
H413 H 0.9168 0.17527 0.40321 0.0
H414 H 0.95564 0.12601 0.4554 0.0
H415 H 0.05755 0.12807 0.6076 0.0
H416 H 0.09716 0.17883 0.66598 0.0
H417 H 0.90838 0.19425 0.62623 0.0
H418 H 0.91219 0.31365 0.6392 0.0
H419 H 0.1049 0.19064 0.44253 0.0
H420 H 0.10155 0.30979 0.44191 0.0
C421 C 0.7251 0.07262 0.57767 0.0
C422 C 0.6903 0.08635 0.58404 0.0
C423 C 0.66514 0.06387 0.55415 0.0
C424 C 0.68583 0.03766 0.53131 0.0
N425 N 0.72273 0.04211 0.54436 0.0
Co426 Co 0.76192 0.00794 0.52159 0.0
N427 N 0.72494 0.97675 0.47414 0.0
C428 C 0.68823 0.98347 0.46494 0.0
C429 C 0.66972 0.95995 0.42791 0.0
C430 C 0.69613 0.93666 0.4124 0.0
C431 C 0.72942 0.94676 0.44169 0.0
N432 N 0.80073 0.97229 0.50131 0.0
C433 C 0.79805 0.94072 0.46979 0.0
C434 C 0.83191 0.92282 0.47153 0.0
C435 C 0.85672 0.94384 0.50427 0.0
C436 C 0.83677 0.97313 0.52138 0.0
N437 N 0.79915 0.04097 0.56594 0.0
C438 C 0.83622 0.03602 0.5723 0.0
C439 C 0.85528 0.06324 0.6033 0.0
C440 C 0.8288 0.08715 0.61754 0.0
C441 C 0.79489 0.07304 0.59461 0.0
N442 N 0.75584 0.97693 0.57839 0.0
C443 C 0.7538 0.92323 0.64852 0.0
C444 C 0.78306 0.94835 0.65341 0.0
C445 C 0.78357 0.97485 0.61813 0.0
C446 C 0.72393 0.92725 0.61112 0.0
C447 C 0.72516 0.95474 0.5772 0.0
N448 N 0.76853 0.03859 0.46521 0.0
C449 C 0.80942 0.06973 0.41722 0.0
C450 C 0.77968 0.08915 0.39424 0.0
C451 C 0.74404 0.08157 0.4046 0.0
C452 C 0.73906 0.05618 0.44014 0.0
C453 C 0.80317 0.04421 0.45203 0.0
H454 H 0.71143 0.05223 0.44814 0.0
H455 H 0.82696 0.03043 0.46917 0.0
H456 H 0.80748 0.99221 0.62324 0.0
H457 H 0.70145 0.95659 0.54954 0.0
C458 C 0.67175 0.01073 0.49394 0.0
C459 C 0.75942 0.09013 0.60346 0.0
C460 C 0.76415 0.92631 0.4381 0.0
C461 C 0.85155 1.00346 0.55283 0.0
H462 H 0.68379 0.11042 0.60747 0.0
H463 H 0.63532 0.06677 0.54886 0.0
H464 H 0.64042 0.95957 0.41409 0.0
H465 H 0.69117 0.91457 0.38298 0.0
H466 H 0.83819 0.89715 0.45136 0.0
H467 H 0.88596 0.93857 0.514 0.0
H468 H 0.88482 0.06496 0.61532 0.0
H469 H 0.83378 0.11172 0.64294 0.0
H470 H 0.80654 0.94616 0.68246 0.0
H471 H 0.7003 0.9086 0.60722 0.0
H472 H 0.83743 0.07534 0.40994 0.0
H473 H 0.72045 0.09664 0.38742 0.0
C474 C 0.06699 0.81896 0.58721 0.0
C475 C 0.08053 0.85387 0.60536 0.0
C476 C 0.0543 0.87886 0.58846 0.0
C477 C 0.02655 0.85808 0.56032 0.0
N478 N 0.0337 0.82152 0.55825 0.0
Co479 Co 0.00303 0.7821 0.51707 0.0
N480 N 0.97467 0.819 0.47544 0.0
C481 C 0.97403 0.85583 0.48688 0.0
C482 C 0.95084 0.87448 0.4527 0.0
C483 C 0.93532 0.84772 0.41784 0.0
C484 C 0.94989 0.81409 0.43292 0.0
N485 N 0.9725 0.74239 0.47607 0.0
C486 C 0.94845 0.74397 0.43294 0.0
C487 C 0.93215 0.70956 0.4183 0.0
C488 C 0.94566 0.68597 0.45418 0.0
C489 C 0.96947 0.70709 0.48852 0.0
N490 N 0.03113 0.74551 0.55899 0.0
C491 C 0.02061 0.71039 0.56374 0.0
C492 C 0.04516 0.6919 0.59647 0.0
C493 C 0.0729 0.71698 0.61341 0.0
C494 C 0.06377 0.74941 0.58966 0.0
N495 N 0.96622 0.78572 0.56515 0.0
C496 C 0.91302 0.78339 0.63234 0.0
C497 C 0.95076 0.78739 0.65065 0.0
C498 C 0.97696 0.78823 0.61639 0.0
C499 C 0.90244 0.78213 0.58006 0.0
C500 C 0.92927 0.78376 0.5474 0.0
N501 N 0.03987 0.77807 0.46923 0.0
C502 C 0.07927 0.74022 0.42108 0.0
C503 C 0.09582 0.77175 0.40521 0.0
C504 C 0.08304 0.80658 0.42171 0.0
C505 C 0.05503 0.8091 0.45323 0.0
C506 C 0.05167 0.74396 0.45304 0.0
H507 H 0.04611 0.83626 0.46529 0.0
H508 H 0.04015 0.7191 0.46503 0.0
H509 H 0.00593 0.79002 0.63136 0.0
H510 H 0.9199 0.7825 0.50764 0.0
C511 C 0.9979 0.87223 0.52733 0.0
C512 C 0.0855 0.78389 0.59946 0.0
C513 C 0.93542 0.77819 0.40992 0.0
C514 C 0.99138 0.69415 0.5306 0.0
H515 H 0.10683 0.86089 0.62765 0.0
H516 H 0.05636 0.90876 0.59345 0.0
H517 H 0.94588 0.904 0.45299 0.0
H518 H 0.91463 0.85224 0.38594 0.0
H519 H 0.91137 0.70266 0.38625 0.0
H520 H 0.93881 0.65692 0.45517 0.0
H521 H 0.04384 0.66321 0.60544 0.0
H522 H 0.09701 0.71196 0.64024 0.0
H523 H 0.96003 0.78852 0.69095 0.0
H524 H 0.8735 0.7796 0.56439 0.0
H525 H 0.08733 0.71262 0.4088 0.0
H526 H 0.09502 0.83191 0.41131 0.0
C527 C 0.28609 0.95297 0.59797 0.0
C528 C 0.32008 0.94166 0.6216 0.0
C529 C 0.34627 0.96493 0.60854 0.0
C530 C 0.32704 0.98911 0.57771 0.0
N531 N 0.29012 0.98257 0.56973 0.0
Co532 Co 0.25256 0.01292 0.52817 0.0
N533 N 0.29146 0.04669 0.50815 0.0
C534 C 0.32844 0.04274 0.5195 0.0
C535 C 0.34886 0.06827 0.49891 0.0
C536 C 0.32345 0.08966 0.47218 0.0
C537 C 0.28876 0.07598 0.47799 0.0
N538 N 0.21489 0.04516 0.49 0.0
C539 C 0.2189 0.07612 0.46427 0.0
C540 C 0.18475 0.08985 0.44502 0.0
C541 C 0.15841 0.06686 0.45858 0.0
C542 C 0.17775 0.04046 0.48554 0.0
N543 N 0.21399 0.97749 0.54513 0.0
C544 C 0.1775 0.97831 0.52759 0.0
C545 C 0.15745 0.95023 0.54354 0.0
C546 C 0.18266 0.93008 0.57276 0.0
C547 C 0.21693 0.94697 0.57313 0.0
N548 N 0.24785 0.04455 0.58971 0.0
C549 C 0.23881 0.09564 0.66963 0.0
C550 C 0.20894 0.07435 0.64653 0.0
C551 C 0.21409 0.04886 0.60689 0.0
C552 C 0.27374 0.08966 0.65482 0.0
C553 C 0.27773 0.06374 0.61508 0.0
N554 N 0.25663 0.98091 0.46643 0.0
C555 C 0.22613 0.94873 0.39055 0.0
C556 C 0.25548 0.92422 0.3905 0.0
C557 C 0.28707 0.93062 0.42536 0.0
C558 C 0.28737 0.95962 0.46229 0.0
C559 C 0.22725 0.97681 0.4287 0.0
H560 H 0.31217 0.96323 0.48812 0.0
H561 H 0.20317 0.99352 0.42777 0.0
H562 H 0.19001 0.03409 0.58962 0.0
H563 H 0.30485 0.06064 0.60434 0.0
C564 C 0.34297 0.01629 0.5523 0.0
C565 C 0.25111 0.93366 0.60211 0.0
C566 C 0.25423 0.09233 0.45462 0.0
C567 C 0.16245 0.0084 0.5016 0.0
H568 H 0.32557 0.91854 0.64515 0.0
H569 H 0.37593 0.96384 0.61938 0.0
H570 H 0.37871 0.07126 0.50331 0.0
H571 H 0.32973 0.11288 0.45103 0.0
H572 H 0.17946 0.11348 0.42231 0.0
H573 H 0.12872 0.06843 0.4484 0.0
H574 H 0.1278 0.94565 0.53621 0.0
H575 H 0.17635 0.9061 0.59242 0.0
H576 H 0.18143 0.07881 0.6571 0.0
H577 H 0.29739 0.10622 0.67212 0.0
H578 H 0.20137 0.9447 0.36346 0.0
H579 H 0.31076 0.91246 0.42529 0.0
C580 C 0.56039 0.78002 0.10486 0.0
C581 C 0.57351 0.81333 0.12948 0.0
C582 C 0.55429 0.84076 0.10521 0.0
C583 C 0.53068 0.82275 0.06731 0.0
N584 N 0.5331 0.78539 0.0664 0.0
Co585 Co 0.50512 0.74862 0.01597 0.0
N586 N 0.47973 0.78917 0.97714 0.0
C587 C 0.48507 0.8261 0.98685 0.0
C588 C 0.46443 0.84714 0.95299 0.0
C589 C 0.44392 0.82224 0.92037 0.0
C590 C 0.45288 0.78729 0.93679 0.0
N591 N 0.47692 0.71196 0.96547 0.0
C592 C 0.44829 0.71735 0.92856 0.0
C593 C 0.43374 0.68381 0.90629 0.0
C594 C 0.45392 0.65649 0.92945 0.0
C595 C 0.4793 0.67459 0.96495 0.0
N596 N 0.53071 0.70813 0.05494 0.0
C597 C 0.52598 0.6712 0.04475 0.0
C598 C 0.54905 0.65025 0.07611 0.0
C599 C 0.57024 0.67529 0.1078 0.0
C600 C 0.55883 0.71016 0.09376 0.0
N601 N 0.4636 0.74807 0.05795 0.0
C602 C 0.40041 0.74726 0.10974 0.0
C603 C 0.41621 0.71433 0.0926 0.0
C604 C 0.44752 0.71536 0.06731 0.0
C605 C 0.41759 0.7806 0.10167 0.0
C606 C 0.44885 0.78038 0.07605 0.0
N607 N 0.54667 0.74899 0.97391 0.0
C608 C 0.5934 0.71622 0.93163 0.0
C609 C 0.60878 0.74952 0.92043 0.0
C610 C 0.59231 0.78252 0.9356 0.0
C611 C 0.56182 0.78165 0.96254 0.0
C612 C 0.56223 0.71656 0.95743 0.0
H613 H 0.55135 0.80781 0.97428 0.0
H614 H 0.55142 0.69022 0.96391 0.0
H615 H 0.45778 0.68927 0.05492 0.0
H616 H 0.46037 0.80671 0.0708 0.0
C617 C 0.50843 0.84017 0.02941 0.0
C618 C 0.57666 0.7443 0.11692 0.0
C619 C 0.43299 0.75358 0.91539 0.0
C620 C 0.50218 0.65725 1.00247 0.0
H621 H 0.59557 0.81746 0.16063 0.0
H622 H 0.55817 0.87035 0.11295 0.0
H623 H 0.46366 0.87706 0.95284 0.0
H624 H 0.42373 0.82913 0.88901 0.0
H625 H 0.4101 0.6791 0.87769 0.0
H626 H 0.44925 0.6269 0.92309 0.0
H627 H 0.55124 0.62036 0.07478 0.0
H628 H 0.59231 0.66873 0.13701 0.0
H629 H 0.40402 0.68771 0.09752 0.0
H630 H 0.40709 0.80693 0.11517 0.0
H631 H 0.60507 0.68998 0.91991 0.0
H632 H 0.60344 0.80899 0.92767 0.0
C633 C 0.2246 0.55883 0.09519 0.0
C634 C 0.18917 0.56936 0.10382 0.0
C635 C 0.16525 0.55004 0.06801 0.0
C636 C 0.18744 0.52905 0.03976 0.0
N637 N 0.22404 0.53324 0.0559 0.0
Co638 Co 0.26616 0.51 0.02434 0.0
N639 N 0.2311 0.48187 0.97146 0.0
C640 C 0.19366 0.48182 0.96674 0.0
C641 C 0.17722 0.45842 0.92791 0.0
C642 C 0.20591 0.44196 0.90713 0.0
C643 C 0.23827 0.45655 0.93455 0.0
N644 N 0.30828 0.48809 0.99146 0.0
C645 C 0.30788 0.46272 0.95193 0.0
C646 C 0.34325 0.45488 0.94041 0.0
C647 C 0.36704 0.47588 0.97451 0.0
C648 C 0.3448 0.49526 1.00454 0.0
N649 N 0.30123 0.53662 0.07872 0.0
C650 C 0.33861 0.53464 0.08541 0.0
C651 C 0.35504 0.55601 0.12652 0.0
C652 C 0.32641 0.57286 0.14709 0.0
C653 C 0.29416 0.56075 0.11704 0.0
N654 N 0.26602 0.46659 0.06855 0.0
C655 C 0.2656 0.4055 0.13259 0.0
C656 C 0.29856 0.41907 0.1178 0.0
C657 C 0.29819 0.44921 0.0865 0.0
C658 C 0.23289 0.42352 0.11387 0.0
C659 C 0.23367 0.45323 0.08222 0.0
N660 N 0.26621 0.55351 0.98006 0.0
C661 C 0.29663 0.6075 0.95248 0.0
C662 C 0.26605 0.61491 0.91696 0.0
C663 C 0.23555 0.59089 0.91404 0.0
C664 C 0.23596 0.56118 0.94589 0.0
C665 C 0.29636 0.57684 0.98274 0.0
H666 H 0.2112 0.54494 0.94219 0.0
H667 H 0.32101 0.5726 0.00805 0.0
H668 H 0.32439 0.45798 0.07718 0.0
H669 H 0.20755 0.46508 0.06934 0.0
C670 C 0.17479 0.50464 0.9987 0.0
C671 C 0.25787 0.57547 0.12342 0.0
C672 C 0.27503 0.44359 0.92662 0.0
C673 C 0.35745 0.5162 0.04909 0.0
H674 H 0.18155 0.5894 0.13256 0.0
H675 H 0.13531 0.55139 0.06287 0.0
H676 H 0.14791 0.45359 0.91647 0.0
H677 H 0.20324 0.42105 0.87596 0.0
H678 H 0.35096 0.43515 0.91138 0.0
H679 H 0.39701 0.47575 0.97841 0.0
H680 H 0.38436 0.56011 0.13874 0.0
H681 H 0.32898 0.59283 0.17939 0.0
H682 H 0.32486 0.40632 0.12969 0.0
H683 H 0.2064 0.41528 0.124 0.0
H684 H 0.32113 0.62498 0.9564 0.0
H685 H 0.21088 0.59545 0.8879 0.0
C686 C 0.44717 0.29802 0.96997 0.0
C687 C 0.4346 0.33294 0.95728 0.0
C688 C 0.45838 0.35805 0.98447 0.0
C689 C 0.48385 0.33726 0.01236 0.0
N690 N 0.47813 0.30029 1.00423 0.0
Co691 Co 0.50726 0.26015 0.03952 0.0
N692 N 0.53846 0.29743 0.0853 0.0
C693 C 0.53485 0.33471 0.08689 0.0
C694 C 0.56141 0.35333 0.11996 0.0
C695 C 0.58357 0.32645 0.14058 0.0
C696 C 0.56895 0.29265 0.11919 0.0
N697 N 0.53728 0.22006 0.07339 0.0
C698 C 0.56749 0.22252 0.10892 0.0
C699 C 0.58014 0.18773 0.12188 0.0
C700 C 0.55799 0.1624 0.09221 0.0
C701 C 0.533 0.18304 0.06325 0.0
N702 N 0.47517 0.22291 0.99511 0.0
C703 C 0.47748 0.18556 0.99488 0.0
C704 C 0.45063 0.16726 0.96175 0.0
C705 C 0.42927 0.19452 0.9404 0.0
C706 C 0.44433 0.22799 0.96208 0.0
N707 N 0.54303 0.26074 0.98911 0.0
C708 C 0.59796 0.26011 0.9233 0.0
C709 C 0.57919 0.22769 0.93091 0.0
C710 C 0.55215 0.22862 0.96359 0.0
C711 C 0.58788 0.29313 0.94807 0.0
C712 C 0.56048 0.29284 0.98033 0.0
N713 N 0.47141 0.25928 0.08977 0.0
C714 C 0.43402 0.22451 0.13928 0.0
C715 C 0.41464 0.25626 0.15164 0.0
C716 C 0.42488 0.28986 0.13443 0.0
C717 C 0.45366 0.29087 0.10449 0.0
C718 C 0.46191 0.22655 0.10821 0.0
H719 H 0.46058 0.31738 0.09295 0.0
H720 H 0.47467 0.20105 0.0988 0.0
H721 H 0.53937 0.20282 0.96799 0.0
H722 H 0.55434 0.31885 0.99835 0.0
C723 C 0.50972 0.3516 0.05181 0.0
C724 C 0.42733 0.26372 0.95179 0.0
C725 C 0.58611 0.25694 0.12983 0.0
C726 C 0.50476 0.16851 0.02694 0.0
H727 H 0.40995 0.33989 0.93273 0.0
H728 H 0.45607 0.38794 0.98601 0.0
H729 H 0.56542 0.38301 0.12624 0.0
H730 H 0.60846 0.33164 0.16685 0.0
H731 H 0.60337 0.18129 0.14943 0.0
H732 H 0.56002 0.13252 0.09158 0.0
H733 H 0.44661 0.13763 0.95475 0.0
H734 H 0.40487 0.19026 0.91282 0.0
H735 H 0.5853 0.2015 0.91177 0.0
H736 H 0.60167 0.31903 0.94371 0.0
H737 H 0.42681 0.19796 0.15212 0.0
H738 H 0.41063 0.31518 0.14389 0.0
C739 C 0.70705 0.57266 0.0778 0.0
C740 C 0.67281 0.58837 0.08308 0.0
C741 C 0.64659 0.56544 0.05608 0.0
C742 C 0.66599 0.53717 0.03533 0.0
N743 N 0.70315 0.54068 0.04721 0.0
Co744 Co 0.74112 0.50583 0.02226 0.0
N745 N 0.70248 0.47413 0.97831 0.0
C746 C 0.66559 0.4803 0.9722 0.0
C747 C 0.64572 0.45462 0.93946 0.0
C748 C 0.67144 0.43063 0.92338 0.0
C749 C 0.7057 0.44297 0.94741 0.0
N750 N 0.77901 0.47017 0.99898 0.0
C751 C 0.77519 0.43883 0.96729 0.0
C752 C 0.80908 0.42204 0.96347 0.0
C753 C 0.83518 0.44329 0.9936 0.0
C754 C 0.81588 0.47172 0.01423 0.0
N755 N 0.77996 0.53843 0.06423 0.0
C756 C 0.81699 0.53303 0.06839 0.0
C757 C 0.83718 0.55912 0.09982 0.0
C758 C 0.81168 0.58305 0.11629 0.0
C759 C 0.77706 0.57046 0.0935 0.0
N760 N 0.73711 0.47529 0.08017 0.0
C761 C 0.73374 0.42257 0.15148 0.0
C762 C 0.76665 0.44152 0.14914 0.0
C763 C 0.76775 0.46762 0.11327 0.0
C764 C 0.70183 0.43247 0.12097 0.0
C765 C 0.70399 0.45934 0.08642 0.0
N766 N 0.7451 0.53635 0.96463 0.0
C767 C 0.78298 0.56927 0.91441 0.0
C768 C 0.75249 0.58998 0.89546 0.0
C769 C 0.7177 0.58084 0.908 0.0
C770 C 0.71462 0.55372 0.9418 0.0
C771 C 0.77871 0.54281 0.94888 0.0
H772 H 0.68749 0.54847 0.95041 0.0
H773 H 0.80317 0.52891 0.96358 0.0
H774 H 0.79404 0.47995 0.11183 0.0
H775 H 0.67878 0.4656 0.06396 0.0
C776 C 0.65041 0.50924 1.00016 0.0
C777 C 0.74241 0.5898 0.10148 0.0
C778 C 0.74034 0.42378 0.93983 0.0
C779 C 0.83175 0.50157 0.04537 0.0
H780 H 0.66716 0.6142 0.10331 0.0
H781 H 0.61693 0.56964 0.05071 0.0
H782 H 0.61599 0.45321 0.92905 0.0
H783 H 0.66564 0.40657 0.89723 0.0
H784 H 0.8144 0.39708 0.94099 0.0
H785 H 0.86479 0.43881 0.99926 0.0
H786 H 0.86691 0.5602 0.11036 0.0
H787 H 0.81805 0.60681 0.14272 0.0
H788 H 0.792 0.43439 0.17236 0.0
H789 H 0.67571 0.41841 0.1223 0.0
H790 H 0.81032 0.57439 0.90429 0.0
H791 H 0.6931 0.59587 0.89426 0.0
loop_
_geom_bond_atom_site_label_1
_geom_bond_atom_site_label_2
_geom_bond_distance
_geom_bond_site_symmetry_2
_ccdc_geom_bond_type
C0 C1 1.384 . S
C0 C2 1.384 . S
C0 H28 0.931 . S
C1 C0 1.384 . S
C1 C4 1.382 . S
C2 C0 1.384 . S
C2 C3 1.381 . S
C2 H29 0.930 . S
C3 C2 1.381 . S
C3 C5 1.381 . S
C3 C6 1.487 . S
C4 C1 1.382 . S
C4 C5 1.387 . S
C4 H30 0.930 . S
C5 C3 1.381 . S
C5 C4 1.387 . S
C5 H31 0.931 . S
C6 C3 1.487 . S
C6 C13 1.399 . S
C6 N44 1.343 . S
C7 C8 1.384 . S
C7 C9 1.384 . S
C7 H32 0.931 . S
C8 C7 1.384 . S
C8 C11 1.382 . S
C9 C7 1.384 . S
C9 C10 1.381 . S
C9 H33 0.930 . S
C10 C9 1.381 . S
C10 C12 1.381 . S
C10 C13 1.487 . S
C11 C8 1.382 . S
C11 C12 1.387 . S
C11 H34 0.930 . S
C12 C10 1.381 . S
C12 C11 1.387 . S
C12 H35 0.931 . S
C13 C6 1.399 . S
C13 C10 1.487 . S
C13 N45 1.343 . S
C14 C15 1.384 . S
C14 C16 1.384 . S
C14 H36 0.931 . S
C15 C14 1.384 . S
C15 C18 1.382 . S
C16 C14 1.384 . S
C16 C17 1.381 . S
C16 H37 0.930 . S
C17 C16 1.381 . S
C17 C19 1.381 . S
C17 C20 1.487 . S
C18 C15 1.382 . S
C18 C19 1.387 . S
C18 H38 0.930 . S
C19 C17 1.381 . S
C19 C18 1.387 . S
C19 H39 0.931 . S
C20 C17 1.487 . S
C20 C27 1.399 . S
C20 N45 1.343 . S
C21 C22 1.384 . S
C21 C23 1.384 . S
C21 H40 0.931 . S
C22 C21 1.384 . S
C22 C25 1.382 . S
C23 C21 1.384 . S
C23 C24 1.381 . S
C23 H41 0.930 . S
C24 C23 1.381 . S
C24 C26 1.381 . S
C24 C27 1.487 . S
C25 C22 1.382 . S
C25 C26 1.387 . S
C25 H42 0.930 . S
C26 C24 1.381 . S
C26 C25 1.387 . S
C26 H43 0.931 . S
C27 C20 1.399 . S
C27 C24 1.487 . S
C27 N44 1.343 . S
H28 C0 0.931 . S
H29 C2 0.930 . S
H30 C4 0.930 . S
H31 C5 0.931 . S
H32 C7 0.931 . S
H33 C9 0.930 . S
H34 C11 0.930 . S
H35 C12 0.931 . S
H36 C14 0.931 . S
H37 C16 0.930 . S
H38 C18 0.930 . S
H39 C19 0.931 . S
H40 C21 0.931 . S
H41 C23 0.930 . S
H42 C25 0.930 . S
H43 C26 0.931 . S
N44 C6 1.343 . S
N44 C27 1.343 . S
N45 C13 1.343 . S
N45 C20 1.343 . S
C46 C47 1.384 . S
C46 C48 1.384 . S
C46 H74 0.931 . S
C47 C46 1.384 . S
C47 C50 1.382 . S
C48 C46 1.384 . S
C48 C49 1.381 . S
C48 H75 0.930 . S
C49 C48 1.381 . S
C49 C51 1.381 . S
C49 C52 1.487 . S
C50 C47 1.382 . S
C50 C51 1.387 . S
C50 H76 0.930 . S
C51 C49 1.381 . S
C51 C50 1.387 . S
C51 H77 0.931 . S
C52 C49 1.487 . S
C52 C59 1.399 . S
C52 N90 1.343 . S
C53 C54 1.384 . S
C53 C55 1.384 . S
C53 H78 0.931 . S
C54 C53 1.384 . S
C54 C57 1.382 . S
C55 C53 1.384 . S
C55 C56 1.381 . S
C55 H79 0.930 . S
C56 C55 1.381 . S
C56 C58 1.381 . S
C56 C59 1.487 . S
C57 C54 1.382 . S
C57 C58 1.387 . S
C57 H80 0.930 . S
C58 C56 1.381 . S
C58 C57 1.387 . S
C58 H81 0.931 . S
C59 C52 1.399 . S
C59 C56 1.487 . S
C59 N91 1.343 . S
C60 C61 1.384 . S
C60 C62 1.384 . S
C60 H82 0.931 . S
C61 C60 1.384 . S
C61 C64 1.382 . S
C62 C60 1.384 . S
C62 C63 1.381 . S
C62 H83 0.930 . S
C63 C62 1.381 . S
C63 C65 1.381 . S
C63 C66 1.487 . S
C64 C61 1.382 . S
C64 C65 1.387 . S
C64 H84 0.930 . S
C65 C63 1.381 . S
C65 C64 1.387 . S
C65 H85 0.931 . S
C66 C63 1.487 . S
C66 C73 1.399 . S
C66 N91 1.343 . S
C67 C68 1.384 . S
C67 C69 1.384 . S
C67 H86 0.931 . S
C68 C67 1.384 . S
C68 C71 1.382 . S
C69 C67 1.384 . S
C69 C70 1.381 . S
C69 H87 0.930 . S
C70 C69 1.381 . S
C70 C72 1.381 . S
C70 C73 1.487 . S
C71 C68 1.382 . S
C71 C72 1.387 . S
C71 H88 0.930 . S
C72 C70 1.381 . S
C72 C71 1.387 . S
C72 H89 0.931 . S
C73 C66 1.399 . S
C73 C70 1.487 . S
C73 N90 1.343 . S
H74 C46 0.931 . S
H75 C48 0.930 . S
H76 C50 0.930 . S
H77 C51 0.931 . S
H78 C53 0.931 . S
H79 C55 0.930 . S
H80 C57 0.930 . S
H81 C58 0.931 . S
H82 C60 0.931 . S
H83 C62 0.930 . S
H84 C64 0.930 . S
H85 C65 0.931 . S
H86 C67 0.931 . S
H87 C69 0.930 . S
H88 C71 0.930 . S
H89 C72 0.931 . S
N90 C52 1.343 . S
N90 C73 1.343 . S
N91 C59 1.343 . S
N91 C66 1.343 . S
C92 C93 1.384 . S
C92 C94 1.384 . S
C92 H120 0.931 . S
C93 C92 1.384 . S
C93 C96 1.382 . S
C94 C92 1.384 . S
C94 C95 1.381 . S
C94 H121 0.930 . S
C95 C94 1.381 . S
C95 C97 1.381 . S
C95 C98 1.487 . S
C96 C93 1.382 . S
C96 C97 1.387 . S
C96 H122 0.930 . S
C97 C95 1.381 . S
C97 C96 1.387 . S
C97 H123 0.931 . S
C98 C95 1.487 . S
C98 C105 1.399 . S
C98 N136 1.343 . S
C99 C100 1.384 . S
C99 C101 1.384 . S
C99 H124 0.931 . S
C100 C99 1.384 . S
C100 C103 1.382 . S
C101 C99 1.384 . S
C101 C102 1.381 . S
C101 H125 0.930 . S
C102 C101 1.381 . S
C102 C104 1.381 . S
C102 C105 1.487 . S
C103 C100 1.382 . S
C103 C104 1.387 . S
C103 H126 0.930 . S
C104 C102 1.381 . S
C104 C103 1.387 . S
C104 H127 0.931 . S
C105 C98 1.399 . S
C105 C102 1.487 . S
C105 N137 1.343 . S
C106 C107 1.384 . S
C106 C108 1.384 . S
C106 H128 0.931 . S
C107 C106 1.384 . S
C107 C110 1.382 . S
C108 C106 1.384 . S
C108 C109 1.381 . S
C108 H129 0.930 . S
C109 C108 1.381 . S
C109 C111 1.381 . S
C109 C112 1.487 . S
C110 C107 1.382 . S
C110 C111 1.387 . S
C110 H130 0.930 . S
C111 C109 1.381 . S
C111 C110 1.387 . S
C111 H131 0.931 . S
C112 C109 1.487 . S
C112 C119 1.399 . S
C112 N137 1.343 . S
C113 C114 1.384 . S
C113 C115 1.384 . S
C113 H132 0.931 . S
C114 C113 1.384 . S
C114 C117 1.382 . S
C115 C113 1.384 . S
C115 C116 1.381 . S
C115 H133 0.930 . S
C116 C115 1.381 . S
C116 C118 1.381 . S
C116 C119 1.487 . S
C117 C114 1.382 . S
C117 C118 1.387 . S
C117 H134 0.930 . S
C118 C116 1.381 . S
C118 C117 1.387 . S
C118 H135 0.931 . S
C119 C112 1.399 . S
C119 C116 1.487 . S
C119 N136 1.343 . S
H120 C92 0.931 . S
H121 C94 0.930 . S
H122 C96 0.930 . S
H123 C97 0.931 . S
H124 C99 0.931 . S
H125 C101 0.930 . S
H126 C103 0.930 . S
H127 C104 0.931 . S
H128 C106 0.931 . S
H129 C108 0.930 . S
H130 C110 0.930 . S
H131 C111 0.931 . S
H132 C113 0.931 . S
H133 C115 0.930 . S
H134 C117 0.930 . S
H135 C118 0.931 . S
N136 C98 1.343 . S
N136 C119 1.343 . S
N137 C105 1.343 . S
N137 C112 1.343 . S
C138 C139 1.384 . S
C138 C140 1.384 . S
C138 H166 0.931 . S
C139 C138 1.384 . S
C139 C142 1.382 . S
C140 C138 1.384 . S
C140 C141 1.381 . S
C140 H167 0.930 . S
C141 C140 1.381 . S
C141 C143 1.381 . S
C141 C144 1.487 . S
C142 C139 1.382 . S
C142 C143 1.387 . S
C142 H168 0.930 . S
C143 C141 1.381 . S
C143 C142 1.387 . S
C143 H169 0.931 . S
C144 C141 1.487 . S
C144 C151 1.399 . S
C144 N182 1.343 . S
C145 C146 1.384 . S
C145 C147 1.384 . S
C145 H170 0.931 . S
C146 C145 1.384 . S
C146 C149 1.382 . S
C147 C145 1.384 . S
C147 C148 1.381 . S
C147 H171 0.930 . S
C148 C147 1.381 . S
C148 C150 1.381 . S
C148 C151 1.487 . S
C149 C146 1.382 . S
C149 C150 1.387 . S
C149 H172 0.930 . S
C150 C148 1.381 . S
C150 C149 1.387 . S
C150 H173 0.931 . S
C151 C144 1.399 . S
C151 C148 1.487 . S
C151 N183 1.343 . S
C152 C153 1.384 . S
C152 C154 1.384 . S
C152 H174 0.931 . S
C153 C152 1.384 . S
C153 C156 1.382 . S
C154 C152 1.384 . S
C154 C155 1.381 . S
C154 H175 0.930 . S
C155 C154 1.381 . S
C155 C157 1.381 . S
C155 C158 1.487 . S
C156 C153 1.382 . S
C156 C157 1.387 . S
C156 H176 0.930 . S
C157 C155 1.381 . S
C157 C156 1.387 . S
C157 H177 0.931 . S
C158 C155 1.487 . S
C158 C165 1.399 . S
C158 N183 1.343 . S
C159 C160 1.384 . S
C159 C161 1.384 . S
C159 H178 0.931 . S
C160 C159 1.384 . S
C160 C163 1.382 . S
C161 C159 1.384 . S
C161 C162 1.381 . S
C161 H179 0.930 . S
C162 C161 1.381 . S
C162 C164 1.381 . S
C162 C165 1.487 . S
C163 C160 1.382 . S
C163 C164 1.387 . S
C163 H180 0.930 . S
C164 C162 1.381 . S
C164 C163 1.387 . S
C164 H181 0.931 . S
C165 C158 1.399 . S
C165 C162 1.487 . S
C165 N182 1.343 . S
H166 C138 0.931 . S
H167 C140 0.930 . S
H168 C142 0.930 . S
H169 C143 0.931 . S
H170 C145 0.931 . S
H171 C147 0.930 . S
H172 C149 0.930 . S
H173 C150 0.931 . S
H174 C152 0.931 . S
H175 C154 0.930 . S
H176 C156 0.930 . S
H177 C157 0.931 . S
H178 C159 0.931 . S
H179 C161 0.930 . S
H180 C163 0.930 . S
H181 C164 0.931 . S
N182 C144 1.343 . S
N182 C165 1.343 . S
N183 C151 1.343 . S
N183 C158 1.343 . S
C184 C185 1.384 . S
C184 C186 1.384 . S
C184 H212 0.931 . S
C185 C184 1.384 . S
C185 C188 1.382 . S
C186 C184 1.384 . S
C186 C187 1.381 . S
C186 H213 0.930 . S
C187 C186 1.381 . S
C187 C189 1.381 . S
C187 C190 1.487 . S
C188 C185 1.382 . S
C188 C189 1.387 . S
C188 H214 0.930 . S
C189 C187 1.381 . S
C189 C188 1.387 . S
C189 H215 0.931 . S
C190 C187 1.487 . S
C190 C197 1.399 . S
C190 N228 1.343 . S
C191 C192 1.384 . S
C191 C193 1.384 . S
C191 H216 0.931 . S
C192 C191 1.384 . S
C192 C195 1.382 . S
C193 C191 1.384 . S
C193 C194 1.381 . S
C193 H217 0.930 . S
C194 C193 1.381 . S
C194 C196 1.381 . S
C194 C197 1.487 . S
C195 C192 1.382 . S
C195 C196 1.387 . S
C195 H218 0.930 . S
C196 C194 1.381 . S
C196 C195 1.387 . S
C196 H219 0.931 . S
C197 C190 1.399 . S
C197 C194 1.487 . S
C197 N229 1.343 . S
C198 C199 1.384 . S
C198 C200 1.384 . S
C198 H220 0.931 . S
C199 C198 1.384 . S
C199 C202 1.382 . S
C200 C198 1.384 . S
C200 C201 1.381 . S
C200 H221 0.930 . S
C201 C200 1.381 . S
C201 C203 1.381 . S
C201 C204 1.487 . S
C202 C199 1.382 . S
C202 C203 1.387 . S
C202 H222 0.930 . S
C203 C201 1.381 . S
C203 C202 1.387 . S
C203 H223 0.931 . S
C204 C201 1.487 . S
C204 C211 1.399 . S
C204 N229 1.343 . S
C205 C206 1.384 . S
C205 C207 1.384 . S
C205 H224 0.931 . S
C206 C205 1.384 . S
C206 C209 1.382 . S
C207 C205 1.384 . S
C207 C208 1.381 . S
C207 H225 0.930 . S
C208 C207 1.381 . S
C208 C210 1.381 . S
C208 C211 1.487 . S
C209 C206 1.382 . S
C209 C210 1.387 . S
C209 H226 0.930 . S
C210 C208 1.381 . S
C210 C209 1.387 . S
C210 H227 0.931 . S
C211 C204 1.399 . S
C211 C208 1.487 . S
C211 N228 1.343 . S
H212 C184 0.931 . S
H213 C186 0.930 . S
H214 C188 0.930 . S
H215 C189 0.931 . S
H216 C191 0.931 . S
H217 C193 0.930 . S
H218 C195 0.930 . S
H219 C196 0.931 . S
H220 C198 0.931 . S
H221 C200 0.930 . S
H222 C202 0.930 . S
H223 C203 0.931 . S
H224 C205 0.931 . S
H225 C207 0.930 . S
H226 C209 0.930 . S
H227 C210 0.931 . S
N228 C190 1.343 . S
N228 C211 1.343 . S
N229 C197 1.343 . S
N229 C204 1.343 . S
C230 C231 1.384 . S
C230 C232 1.384 . S
C230 H258 0.931 . S
C231 C230 1.384 . S
C231 C234 1.382 . S
C232 C230 1.384 . S
C232 C233 1.381 . S
C232 H259 0.930 . S
C233 C232 1.381 . S
C233 C235 1.381 . S
C233 C236 1.487 . S
C234 C231 1.382 . S
C234 C235 1.387 . S
C234 H260 0.930 . S
C235 C233 1.381 . S
C235 C234 1.387 . S
C235 H261 0.931 . S
C236 C233 1.487 . S
C236 C243 1.399 . S
C236 N274 1.343 . S
C237 C238 1.384 . S
C237 C239 1.384 . S
C237 H262 0.931 . S
C238 C237 1.384 . S
C238 C241 1.382 . S
C239 C237 1.384 . S
C239 C240 1.381 . S
C239 H263 0.930 . S
C240 C239 1.381 . S
C240 C242 1.381 . S
C240 C243 1.487 . S
C241 C238 1.382 . S
C241 C242 1.387 . S
C241 H264 0.930 . S
C242 C240 1.381 . S
C242 C241 1.387 . S
C242 H265 0.931 . S
C243 C236 1.399 . S
C243 C240 1.487 . S
C243 N275 1.343 . S
C244 C245 1.384 . S
C244 C246 1.384 . S
C244 H266 0.931 . S
C245 C244 1.384 . S
C245 C248 1.382 . S
C246 C244 1.384 . S
C246 C247 1.381 . S
C246 H267 0.930 . S
C247 C246 1.381 . S
C247 C249 1.381 . S
C247 C250 1.487 . S
C248 C245 1.382 . S
C248 C249 1.387 . S
C248 H268 0.930 . S
C249 C247 1.381 . S
C249 C248 1.387 . S
C249 H269 0.931 . S
C250 C247 1.487 . S
C250 C257 1.399 . S
C250 N275 1.343 . S
C251 C252 1.384 . S
C251 C253 1.384 . S
C251 H270 0.931 . S
C252 C251 1.384 . S
C252 C255 1.382 . S
C253 C251 1.384 . S
C253 C254 1.381 . S
C253 H271 0.930 . S
C254 C253 1.381 . S
C254 C256 1.381 . S
C254 C257 1.487 . S
C255 C252 1.382 . S
C255 C256 1.387 . S
C255 H272 0.930 . S
C256 C254 1.381 . S
C256 C255 1.387 . S
C256 H273 0.931 . S
C257 C250 1.399 . S
C257 C254 1.487 . S
C257 N274 1.343 . S
H258 C230 0.931 . S
H259 C232 0.930 . S
H260 C234 0.930 . S
H261 C235 0.931 . S
H262 C237 0.931 . S
H263 C239 0.930 . S
H264 C241 0.930 . S
H265 C242 0.931 . S
H266 C244 0.931 . S
H267 C246 0.930 . S
H268 C248 0.930 . S
H269 C249 0.931 . S
H270 C251 0.931 . S
H271 C253 0.930 . S
H272 C255 0.930 . S
H273 C256 0.931 . S
N274 C236 1.343 . S
N274 C257 1.343 . S
N275 C243 1.343 . S
N275 C250 1.343 . S
C276 C277 1.384 . S
C276 C278 1.384 . S
C276 H304 0.931 . S
C277 C276 1.384 . S
C277 C280 1.382 . S
C278 C276 1.384 . S
C278 C279 1.381 . S
C278 H305 0.930 . S
C279 C278 1.381 . S
C279 C281 1.381 . S
C279 C282 1.487 . S
C280 C277 1.382 . S
C280 C281 1.387 . S
C280 H306 0.930 . S
C281 C279 1.381 . S
C281 C280 1.387 . S
C281 H307 0.931 . S
C282 C279 1.487 . S
C282 C289 1.399 . S
C282 N320 1.343 . S
C283 C284 1.384 . S
C283 C285 1.384 . S
C283 H308 0.931 . S
C284 C283 1.384 . S
C284 C287 1.382 . S
C285 C283 1.384 . S
C285 C286 1.381 . S
C285 H309 0.930 . S
C286 C285 1.381 . S
C286 C288 1.381 . S
C286 C289 1.487 . S
C287 C284 1.382 . S
C287 C288 1.387 . S
C287 H310 0.930 . S
C288 C286 1.381 . S
C288 C287 1.387 . S
C288 H311 0.931 . S
C289 C282 1.399 . S
C289 C286 1.487 . S
C289 N321 1.343 . S
C290 C291 1.384 . S
C290 C292 1.384 . S
C290 H312 0.931 . S
C291 C290 1.384 . S
C291 C294 1.382 . S
C292 C290 1.384 . S
C292 C293 1.381 . S
C292 H313 0.930 . S
C293 C292 1.381 . S
C293 C295 1.381 . S
C293 C296 1.487 . S
C294 C291 1.382 . S
C294 C295 1.387 . S
C294 H314 0.930 . S
C295 C293 1.381 . S
C295 C294 1.387 . S
C295 H315 0.931 . S
C296 C293 1.487 . S
C296 C303 1.399 . S
C296 N321 1.343 . S
C297 C298 1.384 . S
C297 C299 1.384 . S
C297 H316 0.931 . S
C298 C297 1.384 . S
C298 C301 1.382 . S
C299 C297 1.384 . S
C299 C300 1.381 . S
C299 H317 0.930 . S
C300 C299 1.381 . S
C300 C302 1.381 . S
C300 C303 1.487 . S
C301 C298 1.382 . S
C301 C302 1.387 . S
C301 H318 0.930 . S
C302 C300 1.381 . S
C302 C301 1.387 . S
C302 H319 0.931 . S
C303 C296 1.399 . S
C303 C300 1.487 . S
C303 N320 1.343 . S
H304 C276 0.931 . S
H305 C278 0.930 . S
H306 C280 0.930 . S
H307 C281 0.931 . S
H308 C283 0.931 . S
H309 C285 0.930 . S
H310 C287 0.930 . S
H311 C288 0.931 . S
H312 C290 0.931 . S
H313 C292 0.930 . S
H314 C294 0.930 . S
H315 C295 0.931 . S
H316 C297 0.931 . S
H317 C299 0.930 . S
H318 C301 0.930 . S
H319 C302 0.931 . S
N320 C282 1.343 . S
N320 C303 1.343 . S
N321 C289 1.343 . S
N321 C296 1.343 . S
C322 C323 1.384 . S
C322 C324 1.384 . S
C322 H350 0.931 . S
C323 C322 1.384 . S
C323 C326 1.382 . S
C324 C322 1.384 . S
C324 C325 1.381 . S
C324 H351 0.930 . S
C325 C324 1.381 . S
C325 C327 1.381 . S
C325 C328 1.487 . S
C326 C323 1.382 . S
C326 C327 1.387 . S
C326 H352 0.930 . S
C327 C325 1.381 . S
C327 C326 1.387 . S
C327 H353 0.931 . S
C328 C325 1.487 . S
C328 C335 1.399 . S
C328 N366 1.343 . S
C329 C330 1.384 . S
C329 C331 1.384 . S
C329 H354 0.931 . S
C330 C329 1.384 . S
C330 C333 1.382 . S
C331 C329 1.384 . S
C331 C332 1.381 . S
C331 H355 0.930 . S
C332 C331 1.381 . S
C332 C334 1.381 . S
C332 C335 1.487 . S
C333 C330 1.382 . S
C333 C334 1.387 . S
C333 H356 0.930 . S
C334 C332 1.381 . S
C334 C333 1.387 . S
C334 H357 0.931 . S
C335 C328 1.399 . S
C335 C332 1.487 . S
C335 N367 1.343 . S
C336 C337 1.384 . S
C336 C338 1.384 . S
C336 H358 0.931 . S
C337 C336 1.384 . S
C337 C340 1.382 . S
C338 C336 1.384 . S
C338 C339 1.381 . S
C338 H359 0.930 . S
C339 C338 1.381 . S
C339 C341 1.381 . S
C339 C342 1.487 . S
C340 C337 1.382 . S
C340 C341 1.387 . S
C340 H360 0.930 . S
C341 C339 1.381 . S
C341 C340 1.387 . S
C341 H361 0.931 . S
C342 C339 1.487 . S
C342 C349 1.399 . S
C342 N367 1.343 . S
C343 C344 1.384 . S
C343 C345 1.384 . S
C343 H362 0.931 . S
C344 C343 1.384 . S
C344 C347 1.382 . S
C345 C343 1.384 . S
C345 C346 1.381 . S
C345 H363 0.930 . S
C346 C345 1.381 . S
C346 C348 1.381 . S
C346 C349 1.487 . S
C347 C344 1.382 . S
C347 C348 1.387 . S
C347 H364 0.930 . S
C348 C346 1.381 . S
C348 C347 1.387 . S
C348 H365 0.931 . S
C349 C342 1.399 . S
C349 C346 1.487 . S
C349 N366 1.343 . S
H350 C322 0.931 . S
H351 C324 0.930 . S
H352 C326 0.930 . S
H353 C327 0.931 . S
H354 C329 0.931 . S
H355 C331 0.930 . S
H356 C333 0.930 . S
H357 C334 0.931 . S
H358 C336 0.931 . S
H359 C338 0.930 . S
H360 C340 0.930 . S
H361 C341 0.931 . S
H362 C343 0.931 . S
H363 C345 0.930 . S
H364 C347 0.930 . S
H365 C348 0.931 . S
N366 C328 1.343 . S
N366 C349 1.343 . S
N367 C335 1.343 . S
N367 C342 1.343 . S
C368 C369 1.443 . S
C368 N372 1.376 . S
C368 C406 1.389 . S
C369 C368 1.443 . S
C369 C370 1.340 . S
C369 H409 0.951 . S
C370 C369 1.340 . S
C370 C371 1.439 . S
C370 H410 0.950 . S
C371 C370 1.439 . S
C371 N372 1.374 . S
C371 C405 1.395 . S
N372 C368 1.376 . S
N372 C371 1.374 . S
N372 Co373 2.008 . S
Co373 N372 2.008 . S
Co373 N374 1.995 1_455 S
Co373 N379 2.008 1_455 S
Co373 N384 1.995 . S
Co373 N389 2.282 1_455 S
Co373 N395 2.282 . S
N374 Co373 1.995 1_655 S
N374 C375 1.376 . S
N374 C378 1.383 . S
C375 N374 1.376 . S
C375 C376 1.446 . S
C375 C405 1.391 1_655 S
C376 C375 1.446 . S
C376 C377 1.339 . S
C376 H411 0.949 . S
C377 C376 1.339 . S
C377 C378 1.439 . S
C377 H412 0.950 . S
C378 N374 1.383 . S
C378 C377 1.439 . S
C378 C407 1.392 . S
N379 Co373 2.008 1_655 S
N379 C380 1.376 . S
N379 C383 1.374 . S
C380 N379 1.376 . S
C380 C381 1.443 . S
C380 C407 1.389 . S
C381 C380 1.443 . S
C381 C382 1.340 . S
C381 H413 0.951 . S
C382 C381 1.340 . S
C382 C383 1.439 . S
C382 H414 0.950 . S
C383 N379 1.374 . S
C383 C382 1.439 . S
C383 C408 1.404 . S
N384 Co373 1.995 . S
N384 C385 1.376 . S
N384 C388 1.383 . S
C385 N384 1.376 . S
C385 C386 1.446 . S
C385 C408 1.382 1_455 S
C386 C385 1.446 . S
C386 C387 1.339 . S
C386 H415 0.949 . S
C387 C386 1.339 . S
C387 C388 1.439 . S
C387 H416 0.950 . S
C388 N384 1.383 . S
C388 C387 1.439 . S
C388 C406 1.392 . S
N389 Co373 2.282 1_655 S
N389 C392 1.332 . S
N389 C394 1.332 . S
C390 C391 1.386 . S
C390 C393 1.388 . S
C391 C390 1.386 . S
C391 C392 1.382 . S
C391 H417 0.950 . S
C392 N389 1.332 . S
C392 C391 1.382 . S
C392 H403 0.952 . S
C393 C390 1.388 . S
C393 C394 1.382 . S
C393 H418 0.950 . S
C394 N389 1.332 . S
C394 C393 1.382 . S
C394 H404 0.948 . S
N395 Co373 2.282 . S
N395 C399 1.332 . S
N395 C400 1.332 . S
C396 C397 1.388 . S
C396 C400 1.382 . S
C396 H419 0.950 . S
C397 C396 1.388 . S
C397 C398 1.386 . S
C398 C397 1.386 . S
C398 C399 1.382 . S
C398 H420 0.950 . S
C399 N395 1.332 . S
C399 C398 1.382 . S
C399 H401 0.952 . S
C400 N395 1.332 . S
C400 C396 1.382 . S
C400 H402 0.948 . S
H401 C399 0.952 . S
H402 C400 0.948 . S
H403 C392 0.952 . S
H404 C394 0.948 . S
C405 C371 1.395 . S
C405 C375 1.391 1_455 S
C406 C368 1.389 . S
C406 C388 1.392 . S
C407 C378 1.392 . S
C407 C380 1.389 . S
C408 C383 1.404 . S
C408 C385 1.382 1_655 S
H409 C369 0.951 . S
H410 C370 0.950 . S
H411 C376 0.949 . S
H412 C377 0.950 . S
H413 C381 0.951 . S
H414 C382 0.950 . S
H415 C386 0.949 . S
H416 C387 0.950 . S
H417 C391 0.950 . S
H418 C393 0.950 . S
H419 C396 0.950 . S
H420 C398 0.950 . S
C421 C422 1.443 . S
C421 N425 1.376 . S
C421 C459 1.389 . S
C422 C421 1.443 . S
C422 C423 1.340 . S
C422 H462 0.951 . S
C423 C422 1.340 . S
C423 C424 1.439 . S
C423 H463 0.950 . S
C424 C423 1.439 . S
C424 N425 1.374 . S
C424 C458 1.395 . S
N425 C421 1.376 . S
N425 C424 1.374 . S
N425 Co426 2.008 . S
Co426 N425 2.008 . S
Co426 N427 1.995 1_545 S
Co426 N432 2.008 1_545 S
Co426 N437 1.995 . S
Co426 N442 2.282 1_545 S
Co426 N448 2.282 . S
N427 Co426 1.995 1_565 S
N427 C428 1.376 . S
N427 C431 1.383 . S
C428 N427 1.376 . S
C428 C429 1.446 . S
C428 C458 1.391 1_565 S
C429 C428 1.446 . S
C429 C430 1.339 . S
C429 H464 0.949 . S
C430 C429 1.339 . S
C430 C431 1.439 . S
C430 H465 0.950 . S
C431 N427 1.383 . S
C431 C430 1.439 . S
C431 C460 1.392 . S
N432 Co426 2.008 1_565 S
N432 C433 1.376 . S
N432 C436 1.374 . S
C433 N432 1.376 . S
C433 C434 1.443 . S
C433 C460 1.389 . S
C434 C433 1.443 . S
C434 C435 1.340 . S
C434 H466 0.951 . S
C435 C434 1.340 . S
C435 C436 1.439 . S
C435 H467 0.950 . S
C436 N432 1.374 . S
C436 C435 1.439 . S
C436 C461 1.403 . S
N437 Co426 1.995 . S
N437 C438 1.376 . S
N437 C441 1.383 . S
C438 N437 1.376 . S
C438 C439 1.446 . S
C438 C461 1.382 1_545 S
C439 C438 1.446 . S
C439 C440 1.339 . S
C439 H468 0.949 . S
C440 C439 1.339 . S
C440 C441 1.439 . S
C440 H469 0.950 . S
C441 N437 1.383 . S
C441 C440 1.439 . S
C441 C459 1.392 . S
N442 Co426 2.282 1_565 S
N442 C445 1.332 . S
N442 C447 1.332 . S
C443 C444 1.386 . S
C443 C446 1.388 . S
C444 C443 1.386 . S
C444 C445 1.382 . S
C444 H470 0.950 . S
C445 N442 1.332 . S
C445 C444 1.382 . S
C445 H456 0.952 . S
C446 C443 1.388 . S
C446 C447 1.382 . S
C446 H471 0.950 . S
C447 N442 1.332 . S
C447 C446 1.382 . S
C447 H457 0.948 . S
N448 Co426 2.282 . S
N448 C452 1.332 . S
N448 C453 1.332 . S
C449 C450 1.388 . S
C449 C453 1.382 . S
C449 H472 0.950 . S
C450 C449 1.388 . S
C450 C451 1.386 . S
C451 C450 1.386 . S
C451 C452 1.382 . S
C451 H473 0.950 . S
C452 N448 1.332 . S
C452 C451 1.382 . S
C452 H454 0.952 . S
C453 N448 1.332 . S
C453 C449 1.382 . S
C453 H455 0.948 . S
H454 C452 0.952 . S
H455 C453 0.948 . S
H456 C445 0.952 . S
H457 C447 0.948 . S
C458 C424 1.395 . S
C458 C428 1.391 1_545 S
C459 C421 1.389 . S
C459 C441 1.392 . S
C460 C431 1.392 . S
C460 C433 1.389 . S
C461 C436 1.403 . S
C461 C438 1.382 1_565 S
H462 C422 0.951 . S
H463 C423 0.950 . S
H464 C429 0.949 . S
H465 C430 0.950 . S
H466 C434 0.951 . S
H467 C435 0.950 . S
H468 C439 0.949 . S
H469 C440 0.950 . S
H470 C444 0.950 . S
H471 C446 0.950 . S
H472 C449 0.950 . S
H473 C451 0.950 . S
C474 C475 1.443 . S
C474 N478 1.376 . S
C474 C512 1.389 . S
C475 C474 1.443 . S
C475 C476 1.340 . S
C475 H515 0.951 . S
C476 C475 1.340 . S
C476 C477 1.439 . S
C476 H516 0.950 . S
C477 C476 1.439 . S
C477 N478 1.374 . S
C477 C511 1.395 . S
N478 C474 1.376 . S
N478 C477 1.374 . S
N478 Co479 2.008 . S
Co479 N478 2.008 . S
Co479 N480 1.995 1_455 S
Co479 N485 2.008 1_455 S
Co479 N490 1.995 . S
Co479 N495 2.282 1_455 S
Co479 N501 2.282 . S
N480 Co479 1.995 1_655 S
N480 C481 1.376 . S
N480 C484 1.383 . S
C481 N480 1.376 . S
C481 C482 1.446 . S
C481 C511 1.391 1_655 S
C482 C481 1.446 . S
C482 C483 1.339 . S
C482 H517 0.949 . S
C483 C482 1.339 . S
C483 C484 1.439 . S
C483 H518 0.950 . S
C484 N480 1.383 . S
C484 C483 1.439 . S
C484 C513 1.392 . S
N485 Co479 2.008 1_655 S
N485 C486 1.376 . S
N485 C489 1.374 . S
C486 N485 1.376 . S
C486 C487 1.443 . S
C486 C513 1.389 . S
C487 C486 1.443 . S
C487 C488 1.340 . S
C487 H519 0.951 . S
C488 C487 1.340 . S
C488 C489 1.439 . S
C488 H520 0.950 . S
C489 N485 1.374 . S
C489 C488 1.439 . S
C489 C514 1.395 . S
N490 Co479 1.995 . S
N490 C491 1.376 . S
N490 C494 1.383 . S
C491 N490 1.376 . S
C491 C492 1.446 . S
C491 C514 1.391 1_455 S
C492 C491 1.446 . S
C492 C493 1.339 . S
C492 H521 0.949 . S
C493 C492 1.339 . S
C493 C494 1.439 . S
C493 H522 0.950 . S
C494 N490 1.383 . S
C494 C493 1.439 . S
C494 C512 1.392 . S
N495 Co479 2.282 1_655 S
N495 C498 1.332 . S
N495 C500 1.332 . S
C496 C497 1.386 . S
C496 C499 1.388 . S
C497 C496 1.386 . S
C497 C498 1.382 . S
C497 H523 0.950 . S
C498 N495 1.332 . S
C498 C497 1.382 . S
C498 H509 0.952 . S
C499 C496 1.388 . S
C499 C500 1.382 . S
C499 H524 0.950 . S
C500 N495 1.332 . S
C500 C499 1.382 . S
C500 H510 0.948 . S
N501 Co479 2.282 . S
N501 C505 1.332 . S
N501 C506 1.332 . S
C502 C503 1.388 . S
C502 C506 1.382 . S
C502 H525 0.950 . S
C503 C502 1.388 . S
C503 C504 1.386 . S
C504 C503 1.386 . S
C504 C505 1.382 . S
C504 H526 0.950 . S
C505 N501 1.332 . S
C505 C504 1.382 . S
C505 H507 0.952 . S
C506 N501 1.332 . S
C506 C502 1.382 . S
C506 H508 0.948 . S
H507 C505 0.952 . S
H508 C506 0.948 . S
H509 C498 0.952 . S
H510 C500 0.948 . S
C511 C477 1.395 . S
C511 C481 1.391 1_455 S
C512 C474 1.389 . S
C512 C494 1.392 . S
C513 C484 1.392 . S
C513 C486 1.389 . S
C514 C489 1.395 . S
C514 C491 1.391 1_655 S
H515 C475 0.951 . S
H516 C476 0.950 . S
H517 C482 0.949 . S
H518 C483 0.950 . S
H519 C487 0.951 . S
H520 C488 0.950 . S
H521 C492 0.949 . S
H522 C493 0.950 . S
H523 C497 0.950 . S
H524 C499 0.950 . S
H525 C502 0.950 . S
H526 C504 0.950 . S
C527 C528 1.443 . S
C527 N531 1.376 . S
C527 C565 1.389 . S
C528 C527 1.443 . S
C528 C529 1.340 . S
C528 H568 0.951 . S
C529 C528 1.340 . S
C529 C530 1.439 . S
C529 H569 0.950 . S
C530 C529 1.439 . S
C530 N531 1.374 . S
C530 C564 1.401 . S
N531 C527 1.376 . S
N531 C530 1.374 . S
N531 Co532 2.008 1_565 S
Co532 N531 2.008 1_545 S
Co532 N533 1.995 . S
Co532 N538 2.008 . S
Co532 N543 1.995 1_545 S
Co532 N548 2.282 . S
Co532 N554 2.282 1_545 S
N533 Co532 1.995 . S
N533 C534 1.376 . S
N533 C537 1.383 . S
C534 N533 1.376 . S
C534 C535 1.446 . S
C534 C564 1.385 1_545 S
C535 C534 1.446 . S
C535 C536 1.339 . S
C535 H570 0.949 . S
C536 C535 1.339 . S
C536 C537 1.439 . S
C536 H571 0.950 . S
C537 N533 1.383 . S
C537 C536 1.439 . S
C537 C566 1.392 . S
N538 Co532 2.008 . S
N538 C539 1.376 . S
N538 C542 1.374 . S
C539 N538 1.376 . S
C539 C540 1.443 . S
C539 C566 1.389 . S
C540 C539 1.443 . S
C540 C541 1.340 . S
C540 H572 0.951 . S
C541 C540 1.340 . S
C541 C542 1.439 . S
C541 H573 0.950 . S
C542 N538 1.374 . S
C542 C541 1.439 . S
C542 C567 1.395 . S
N543 Co532 1.995 1_565 S
N543 C544 1.376 . S
N543 C547 1.383 . S
C544 N543 1.376 . S
C544 C545 1.446 . S
C544 C567 1.391 1_565 S
C545 C544 1.446 . S
C545 C546 1.339 . S
C545 H574 0.949 . S
C546 C545 1.339 . S
C546 C547 1.439 . S
C546 H575 0.950 . S
C547 N543 1.383 . S
C547 C546 1.439 . S
C547 C565 1.392 . S
N548 Co532 2.282 . S
N548 C551 1.332 . S
N548 C553 1.332 . S
C549 C550 1.386 . S
C549 C552 1.388 . S
C550 C549 1.386 . S
C550 C551 1.382 . S
C550 H576 0.950 . S
C551 N548 1.332 . S
C551 C550 1.382 . S
C551 H562 0.952 . S
C552 C549 1.388 . S
C552 C553 1.382 . S
C552 H577 0.950 . S
C553 N548 1.332 . S
C553 C552 1.382 . S
C553 H563 0.948 . S
N554 Co532 2.282 1_565 S
N554 C558 1.332 . S
N554 C559 1.332 . S
C555 C556 1.388 . S
C555 C559 1.382 . S
C555 H578 0.950 . S
C556 C555 1.388 . S
C556 C557 1.386 . S
C557 C556 1.386 . S
C557 C558 1.382 . S
C557 H579 0.950 . S
C558 N554 1.332 . S
C558 C557 1.382 . S
C558 H560 0.952 . S
C559 N554 1.332 . S
C559 C555 1.382 . S
C559 H561 0.948 . S
H560 C558 0.952 . S
H561 C559 0.948 . S
H562 C551 0.952 . S
H563 C553 0.948 . S
C564 C530 1.401 . S
C564 C534 1.385 1_565 S
C565 C527 1.389 . S
C565 C547 1.392 . S
C566 C537 1.392 . S
C566 C539 1.389 . S
C567 C542 1.395 . S
C567 C544 1.391 1_545 S
H568 C528 0.951 . S
H569 C529 0.950 . S
H570 C535 0.949 . S
H571 C536 0.950 . S
H572 C540 0.951 . S
H573 C541 0.950 . S
H574 C545 0.949 . S
H575 C546 0.950 . S
H576 C550 0.950 . S
H577 C552 0.950 . S
H578 C555 0.950 . S
H579 C557 0.950 . S
C580 C581 1.443 . S
C580 N584 1.376 . S
C580 C618 1.389 . S
C581 C580 1.443 . S
C581 C582 1.340 . S
C581 H621 0.951 . S
C582 C581 1.340 . S
C582 C583 1.439 . S
C582 H622 0.950 . S
C583 C582 1.439 . S
C583 N584 1.374 . S
C583 C617 1.395 . S
N584 C580 1.376 . S
N584 C583 1.374 . S
N584 Co585 2.008 . S
Co585 N584 2.008 . S
Co585 N586 1.995 1_554 S
Co585 N591 2.008 1_554 S
Co585 N596 1.995 . S
Co585 N601 2.282 . S
Co585 N607 2.282 1_554 S
N586 Co585 1.995 1_556 S
N586 C587 1.376 . S
N586 C590 1.383 . S
C587 N586 1.376 . S
C587 C588 1.446 . S
C587 C617 1.391 1_556 S
C588 C587 1.446 . S
C588 C589 1.339 . S
C588 H623 0.949 . S
C589 C588 1.339 . S
C589 C590 1.439 . S
C589 H624 0.950 . S
C590 N586 1.383 . S
C590 C589 1.439 . S
C590 C619 1.392 . S
N591 Co585 2.008 1_556 S
N591 C592 1.376 . S
N591 C595 1.374 . S
C592 N591 1.376 . S
C592 C593 1.443 . S
C592 C619 1.389 . S
C593 C592 1.443 . S
C593 C594 1.340 . S
C593 H625 0.951 . S
C594 C593 1.340 . S
C594 C595 1.439 . S
C594 H626 0.950 . S
C595 N591 1.374 . S
C595 C594 1.439 . S
C595 C620 1.395 . S
N596 Co585 1.995 . S
N596 C597 1.376 . S
N596 C600 1.383 . S
C597 N596 1.376 . S
C597 C598 1.446 . S
C597 C620 1.391 1_554 S
C598 C597 1.446 . S
C598 C599 1.339 . S
C598 H627 0.949 . S
C599 C598 1.339 . S
C599 C600 1.439 . S
C599 H628 0.950 . S
C600 N596 1.383 . S
C600 C599 1.439 . S
C600 C618 1.392 . S
N601 Co585 2.282 . S
N601 C604 1.332 . S
N601 C606 1.332 . S
C602 C603 1.386 . S
C602 C605 1.388 . S
C603 C602 1.386 . S
C603 C604 1.382 . S
C603 H629 0.950 . S
C604 N601 1.332 . S
C604 C603 1.382 . S
C604 H615 0.952 . S
C605 C602 1.388 . S
C605 C606 1.382 . S
C605 H630 0.950 . S
C606 N601 1.332 . S
C606 C605 1.382 . S
C606 H616 0.948 . S
N607 Co585 2.282 1_556 S
N607 C611 1.332 . S
N607 C612 1.332 . S
C608 C609 1.388 . S
C608 C612 1.382 . S
C608 H631 0.950 . S
C609 C608 1.388 . S
C609 C610 1.386 . S
C610 C609 1.386 . S
C610 C611 1.382 . S
C610 H632 0.950 . S
C611 N607 1.332 . S
C611 C610 1.382 . S
C611 H613 0.952 . S
C612 N607 1.332 . S
C612 C608 1.382 . S
C612 H614 0.948 . S
H613 C611 0.952 . S
H614 C612 0.948 . S
H615 C604 0.952 . S
H616 C606 0.948 . S
C617 C583 1.395 . S
C617 C587 1.391 1_554 S
C618 C580 1.389 . S
C618 C600 1.392 . S
C619 C590 1.392 . S
C619 C592 1.389 . S
C620 C595 1.395 . S
C620 C597 1.391 1_556 S
H621 C581 0.951 . S
H622 C582 0.950 . S
H623 C588 0.949 . S
H624 C589 0.950 . S
H625 C593 0.951 . S
H626 C594 0.950 . S
H627 C598 0.949 . S
H628 C599 0.950 . S
H629 C603 0.950 . S
H630 C605 0.950 . S
H631 C608 0.950 . S
H632 C610 0.950 . S
C633 C634 1.443 . S
C633 N637 1.376 . S
C633 C671 1.389 . S
C634 C633 1.443 . S
C634 C635 1.340 . S
C634 H674 0.951 . S
C635 C634 1.340 . S
C635 C636 1.439 . S
C635 H675 0.950 . S
C636 C635 1.439 . S
C636 N637 1.374 . S
C636 C670 1.395 1_554 S
N637 C633 1.376 . S
N637 C636 1.374 . S
N637 Co638 2.008 . S
Co638 N637 2.008 . S
Co638 N639 1.995 1_554 S
Co638 N644 2.008 1_554 S
Co638 N649 1.995 . S
Co638 N654 2.282 . S
Co638 N660 2.282 1_554 S
N639 Co638 1.995 1_556 S
N639 C640 1.376 . S
N639 C643 1.383 . S
C640 N639 1.376 . S
C640 C641 1.446 . S
C640 C670 1.391 . S
C641 C640 1.446 . S
C641 C642 1.339 . S
C641 H676 0.949 . S
C642 C641 1.339 . S
C642 C643 1.439 . S
C642 H677 0.950 . S
C643 N639 1.383 . S
C643 C642 1.439 . S
C643 C672 1.392 . S
N644 Co638 2.008 1_556 S
N644 C645 1.376 . S
N644 C648 1.374 1_556 S
C645 N644 1.376 . S
C645 C646 1.443 . S
C645 C672 1.389 . S
C646 C645 1.443 . S
C646 C647 1.340 . S
C646 H678 0.951 . S
C647 C646 1.340 . S
C647 C648 1.439 1_556 S
C647 H679 0.950 . S
C648 N644 1.374 1_554 S
C648 C647 1.439 1_554 S
C648 C673 1.395 . S
N649 Co638 1.995 . S
N649 C650 1.376 . S
N649 C653 1.383 . S
C650 N649 1.376 . S
C650 C651 1.446 . S
C650 C673 1.391 . S
C651 C650 1.446 . S
C651 C652 1.339 . S
C651 H680 0.949 . S
C652 C651 1.339 . S
C652 C653 1.439 . S
C652 H681 0.950 . S
C653 N649 1.383 . S
C653 C652 1.439 . S
C653 C671 1.392 . S
N654 Co638 2.282 . S
N654 C657 1.332 . S
N654 C659 1.332 . S
C655 C656 1.386 . S
C655 C658 1.388 . S
C656 C655 1.386 . S
C656 C657 1.382 . S
C656 H682 0.950 . S
C657 N654 1.332 . S
C657 C656 1.382 . S
C657 H668 0.952 . S
C658 C655 1.388 . S
C658 C659 1.382 . S
C658 H683 0.950 . S
C659 N654 1.332 . S
C659 C658 1.382 . S
C659 H669 0.948 . S
N660 Co638 2.282 1_556 S
N660 C664 1.332 . S
N660 C665 1.332 . S
C661 C662 1.388 . S
C661 C665 1.382 . S
C661 H684 0.950 . S
C662 C661 1.388 . S
C662 C663 1.386 . S
C663 C662 1.386 . S
C663 C664 1.382 . S
C663 H685 0.950 . S
C664 N660 1.332 . S
C664 C663 1.382 . S
C664 H666 0.952 . S
C665 N660 1.332 . S
C665 C661 1.382 . S
C665 H667 0.948 . S
H666 C664 0.952 . S
H667 C665 0.948 . S
H668 C657 0.952 . S
H669 C659 0.948 . S
C670 C636 1.395 1_556 S
C670 C640 1.391 . S
C671 C633 1.389 . S
C671 C653 1.392 . S
C672 C643 1.392 . S
C672 C645 1.389 . S
C673 C648 1.395 . S
C673 C650 1.391 . S
H674 C634 0.951 . S
H675 C635 0.950 . S
H676 C641 0.949 . S
H677 C642 0.950 . S
H678 C646 0.951 . S
H679 C647 0.950 . S
H680 C651 0.949 . S
H681 C652 0.950 . S
H682 C656 0.950 . S
H683 C658 0.950 . S
H684 C661 0.950 . S
H685 C663 0.950 . S
C686 C687 1.443 . S
C686 N690 1.376 1_556 S
C686 C724 1.389 . S
C687 C686 1.443 . S
C687 C688 1.340 1_556 S
C687 H727 0.951 . S
C688 C687 1.340 1_554 S
C688 C689 1.439 . S
C688 H728 0.950 . S
C689 C688 1.439 . S
C689 N690 1.374 . S
C689 C723 1.395 . S
N690 C686 1.376 1_554 S
N690 C689 1.374 . S
N690 Co691 2.008 . S
Co691 N690 2.008 . S
Co691 N692 1.995 . S
Co691 N697 2.008 . S
Co691 N702 1.995 1_554 S
Co691 N707 2.282 1_554 S
Co691 N713 2.282 . S
N692 Co691 1.995 . S
N692 C693 1.376 . S
N692 C696 1.383 . S
C693 N692 1.376 . S
C693 C694 1.446 . S
C693 C723 1.391 . S
C694 C693 1.446 . S
C694 C695 1.339 . S
C694 H729 0.949 . S
C695 C694 1.339 . S
C695 C696 1.439 . S
C695 H730 0.950 . S
C696 N692 1.383 . S
C696 C695 1.439 . S
C696 C725 1.392 . S
N697 Co691 2.008 . S
N697 C698 1.376 . S
N697 C701 1.374 . S
C698 N697 1.376 . S
C698 C699 1.443 . S
C698 C725 1.389 . S
C699 C698 1.443 . S
C699 C700 1.340 . S
C699 H731 0.951 . S
C700 C699 1.340 . S
C700 C701 1.439 . S
C700 H732 0.950 . S
C701 N697 1.374 . S
C701 C700 1.439 . S
C701 C726 1.395 . S
N702 Co691 1.995 1_556 S
N702 C703 1.376 . S
N702 C706 1.383 . S
C703 N702 1.376 . S
C703 C704 1.446 . S
C703 C726 1.391 1_556 S
C704 C703 1.446 . S
C704 C705 1.339 . S
C704 H733 0.949 . S
C705 C704 1.339 . S
C705 C706 1.439 . S
C705 H734 0.950 . S
C706 N702 1.383 . S
C706 C705 1.439 . S
C706 C724 1.392 . S
N707 Co691 2.282 1_556 S
N707 C710 1.332 . S
N707 C712 1.332 . S
C708 C709 1.386 . S
C708 C711 1.388 . S
C709 C708 1.386 . S
C709 C710 1.382 . S
C709 H735 0.950 . S
C710 N707 1.332 . S
C710 C709 1.382 . S
C710 H721 0.952 . S
C711 C708 1.388 . S
C711 C712 1.382 . S
C711 H736 0.950 . S
C712 N707 1.332 . S
C712 C711 1.382 . S
C712 H722 0.948 1_556 S
N713 Co691 2.282 . S
N713 C717 1.332 . S
N713 C718 1.332 . S
C714 C715 1.388 . S
C714 C718 1.382 . S
C714 H737 0.950 . S
C715 C714 1.388 . S
C715 C716 1.386 . S
C716 C715 1.386 . S
C716 C717 1.382 . S
C716 H738 0.950 . S
C717 N713 1.332 . S
C717 C716 1.382 . S
C717 H719 0.952 . S
C718 N713 1.332 . S
C718 C714 1.382 . S
C718 H720 0.948 . S
H719 C717 0.952 . S
H720 C718 0.948 . S
H721 C710 0.952 . S
H722 C712 0.948 1_554 S
C723 C689 1.395 . S
C723 C693 1.391 . S
C724 C686 1.389 . S
C724 C706 1.392 . S
C725 C696 1.392 . S
C725 C698 1.389 . S
C726 C701 1.395 . S
C726 C703 1.391 1_554 S
H727 C687 0.951 . S
H728 C688 0.950 . S
H729 C694 0.949 . S
H730 C695 0.950 . S
H731 C699 0.951 . S
H732 C700 0.950 . S
H733 C704 0.949 . S
H734 C705 0.950 . S
H735 C709 0.950 . S
H736 C711 0.950 . S
H737 C714 0.950 . S
H738 C716 0.950 . S
C739 C740 1.443 . S
C739 N743 1.376 . S
C739 C777 1.389 . S
C740 C739 1.443 . S
C740 C741 1.340 . S
C740 H780 0.951 . S
C741 C740 1.340 . S
C741 C742 1.439 . S
C741 H781 0.950 . S
C742 C741 1.439 . S
C742 N743 1.374 . S
C742 C776 1.395 1_554 S
N743 C739 1.376 . S
N743 C742 1.374 . S
N743 Co744 2.008 . S
Co744 N743 2.008 . S
Co744 N745 1.995 1_554 S
Co744 N750 2.008 1_554 S
Co744 N755 1.995 . S
Co744 N760 2.282 . S
Co744 N766 2.282 1_554 S
N745 Co744 1.995 1_556 S
N745 C746 1.376 . S
N745 C749 1.383 . S
C746 N745 1.376 . S
C746 C747 1.446 . S
C746 C776 1.391 . S
C747 C746 1.446 . S
C747 C748 1.339 . S
C747 H782 0.949 . S
C748 C747 1.339 . S
C748 C749 1.439 . S
C748 H783 0.950 . S
C749 N745 1.383 . S
C749 C748 1.439 . S
C749 C778 1.392 . S
N750 Co744 2.008 1_556 S
N750 C751 1.376 . S
N750 C754 1.374 1_556 S
C751 N750 1.376 . S
C751 C752 1.443 . S
C751 C778 1.389 . S
C752 C751 1.443 . S
C752 C753 1.340 . S
C752 H784 0.951 . S
C753 C752 1.340 . S
C753 C754 1.439 1_556 S
C753 H785 0.950 1_556 S
C754 N750 1.374 1_554 S
C754 C753 1.439 1_554 S
C754 C779 1.395 . S
N755 Co744 1.995 . S
N755 C756 1.376 . S
N755 C759 1.383 . S
C756 N755 1.376 . S
C756 C757 1.446 . S
C756 C779 1.391 . S
C757 C756 1.446 . S
C757 C758 1.339 . S
C757 H786 0.949 . S
C758 C757 1.339 . S
C758 C759 1.439 . S
C758 H787 0.950 . S
C759 N755 1.383 . S
C759 C758 1.439 . S
C759 C777 1.392 . S
N760 Co744 2.282 . S
N760 C763 1.332 . S
N760 C765 1.332 . S
C761 C762 1.386 . S
C761 C764 1.388 . S
C762 C761 1.386 . S
C762 C763 1.382 . S
C762 H788 0.950 . S
C763 N760 1.332 . S
C763 C762 1.382 . S
C763 H774 0.952 . S
C764 C761 1.388 . S
C764 C765 1.382 . S
C764 H789 0.950 . S
C765 N760 1.332 . S
C765 C764 1.382 . S
C765 H775 0.948 . S
N766 Co744 2.282 1_556 S
N766 C770 1.332 . S
N766 C771 1.332 . S
C767 C768 1.388 . S
C767 C771 1.382 . S
C767 H790 0.950 . S
C768 C767 1.388 . S
C768 C769 1.386 . S
C769 C768 1.386 . S
C769 C770 1.382 . S
C769 H791 0.950 . S
C770 N766 1.332 . S
C770 C769 1.382 . S
C770 H772 0.952 . S
C771 N766 1.332 . S
C771 C767 1.382 . S
C771 H773 0.948 . S
H772 C770 0.952 . S
H773 C771 0.948 . S
H774 C763 0.952 . S
H775 C765 0.948 . S
C776 C742 1.395 1_556 S
C776 C746 1.391 . S
C777 C739 1.389 . S
C777 C759 1.392 . S
C778 C749 1.392 . S
C778 C751 1.389 . S
C779 C754 1.395 . S
C779 C756 1.391 . S
H780 C740 0.951 . S
H781 C741 0.950 . S
H782 C747 0.949 . S
H783 C748 0.950 . S
H784 C752 0.951 . S
H785 C753 0.950 1_554 S
H786 C757 0.949 . S
H787 C758 0.950 . S
H788 C762 0.950 . S
H789 C764 0.950 . S
H790 C767 0.950 . S
H791 C769 0.950 . S
C397 C15 1.543 . S
C450 C68 1.206 . S
C513 C107 1.712 . S
C556 C160 1.022 . S
C185 C512 1.708 . S
C549 C252 1.200 . S
C390 C277 1.501 . S
C443 C330 1.107 . S
C496 C323 1.547 . S
C565 C192 2.158 . S
C406 C245 1.671 . S
C459 C284 2.035 . S
C407 C61 1.643 . S
C460 C114 2.174 . S
C503 C153 1.585 . S
C566 C22 1.960 . S
C609 C337 1.455 . S
C206 C662 1.830 . S
C231 C724 1.837 . S
C298 C778 1.909 . S
C47 C725 1.611 . S
C100 C777 2.105 . S
C139 C602 1.624 . S
C655 C8 1.700 . S
C715 C1 1.540 . S
C54 C761 1.386 . S
C93 C618 1.701 . S
C146 C671 1.166 . S
C619 C199 1.641 . S
C672 C238 1.410 . S
C291 C708 1.584 . S
C768 C344 1.237 . S
