# Generated by pormake.
# Topology nom, (4,4)-cn, num edge types: 1
# Building blocks:
#     Node 0, Type 0, BuildingBlock: NAWXER_clean_linker_0, # of connection points: 4
#     Node 1, Type 0, BuildingBlock: NAWXER_clean_linker_0, # of connection points: 4
#     Node 2, Type 0, BuildingBlock: NAWXER_clean_linker_0, # of connection points: 4
#     Node 3, Type 0, BuildingBlock: NAWXER_clean_linker_0, # of connection points: 4
#     Node 4, Type 0, BuildingBlock: NAWXER_clean_linker_0, # of connection points: 4
#     Node 5, Type 0, BuildingBlock: NAWXER_clean_linker_0, # of connection points: 4
#     Node 6, Type 1, BuildingBlock: NAHDIM_clean_sbu_0, # of connection points: 4
#     Node 7, Type 1, BuildingBlock: NAHDIM_clean_sbu_0, # of connection points: 4
#     Node 8, Type 1, BuildingBlock: NAHDIM_clean_sbu_0, # of connection points: 4
#     Node 9, Type 1, BuildingBlock: NAHDIM_clean_sbu_0, # of connection points: 4
#     Node 10, Type 1, BuildingBlock: NAHDIM_clean_sbu_0, # of connection points: 4
#     Node 11, Type 1, BuildingBlock: NAHDIM_clean_sbu_0, # of connection points: 4
#     Edge 12, Type (0, 1), BuildingBlock: TEMPAE_clean_linker_10, # of connection points: 2
#     Edge 13, Type (0, 1), BuildingBlock: TEMPAE_clean_linker_10, # of connection points: 2
#     Edge 14, Type (0, 1), BuildingBlock: TEMPAE_clean_linker_10, # of connection points: 2
#     Edge 15, Type (0, 1), BuildingBlock: TEMPAE_clean_linker_10, # of connection points: 2
#     Edge 16, Type (0, 1), BuildingBlock: TEMPAE_clean_linker_10, # of connection points: 2
#     Edge 17, Type (0, 1), BuildingBlock: TEMPAE_clean_linker_10, # of connection points: 2
#     Edge 18, Type (0, 1), BuildingBlock: TEMPAE_clean_linker_10, # of connection points: 2
#     Edge 19, Type (0, 1), BuildingBlock: TEMPAE_clean_linker_10, # of connection points: 2
#     Edge 20, Type (0, 1), BuildingBlock: TEMPAE_clean_linker_10, # of connection points: 2
#     Edge 21, Type (0, 1), BuildingBlock: TEMPAE_clean_linker_10, # of connection points: 2
#     Edge 22, Type (0, 1), BuildingBlock: TEMPAE_clean_linker_10, # of connection points: 2
#     Edge 23, Type (0, 1), BuildingBlock: TEMPAE_clean_linker_10, # of connection points: 2
#     Edge 24, Type (0, 1), BuildingBlock: TEMPAE_clean_linker_10, # of connection points: 2
#     Edge 25, Type (0, 1), BuildingBlock: TEMPAE_clean_linker_10, # of connection points: 2
#     Edge 26, Type (0, 1), BuildingBlock: TEMPAE_clean_linker_10, # of connection points: 2
#     Edge 27, Type (0, 1), BuildingBlock: TEMPAE_clean_linker_10, # of connection points: 2
#     Edge 28, Type (0, 1), BuildingBlock: TEMPAE_clean_linker_10, # of connection points: 2
#     Edge 29, Type (0, 1), BuildingBlock: TEMPAE_clean_linker_10, # of connection points: 2
#     Edge 30, Type (0, 1), BuildingBlock: TEMPAE_clean_linker_10, # of connection points: 2
#     Edge 31, Type (0, 1), BuildingBlock: TEMPAE_clean_linker_10, # of connection points: 2
#     Edge 32, Type (0, 1), BuildingBlock: TEMPAE_clean_linker_10, # of connection points: 2
#     Edge 33, Type (0, 1), BuildingBlock: TEMPAE_clean_linker_10, # of connection points: 2
#     Edge 34, Type (0, 1), BuildingBlock: TEMPAE_clean_linker_10, # of connection points: 2
#     Edge 35, Type (0, 1), BuildingBlock: TEMPAE_clean_linker_10, # of connection points: 2
# Relax obj value: 0.024
# Max RMSD: 0.118
# Mean RMSD: 0.110
data_MOF--net-nom--node1-NAHDIM_clean_sbu_0--node2-NAWXER_clean_linker_0--edge1-TEMPAE_clean_linker_10
_symmetry_space_group_name_H-M    P1
_symmetry_Int_Tables_number       1
_symmetry_cell_setting            triclinic
loop_
_symmetry_equiv_pos_as_xyz
'x, y, z'
_cell_length_a     52.210472
_cell_length_b     53.808146
_cell_length_c     58.379742
_cell_angle_alpha  89.828334
_cell_angle_beta   90.778923
_cell_angle_gamma 120.98377
loop_
_atom_site_label
_atom_site_type_symbol
_atom_site_fract_x
_atom_site_fract_y
_atom_site_fract_z
_atom_type_partial_charge
C0 C 0.90055 0.48703 0.32608 0.0
C1 C 0.88516 0.46628 0.34311 0.0
C2 C 0.92928 0.49428 0.31999 0.0
C3 C 0.9432 0.48076 0.33062 0.0
C4 C 0.89922 0.45293 0.35394 0.0
C5 C 0.9281 0.46027 0.34783 0.0
C6 C 0.97432 0.48991 0.32496 0.0
C7 C 0.92086 0.44341 0.26209 0.0
C8 C 0.92636 0.46134 0.24298 0.0
C9 C 0.93942 0.45394 0.2815 0.0
C10 C 0.9638 0.48256 0.28211 0.0
C11 C 0.95078 0.48994 0.24363 0.0
C12 C 0.96946 0.50037 0.26295 0.0
C13 C 0.98429 0.49365 0.30219 0.0
C14 C 0.11908 0.55165 0.31277 0.0
C15 C 0.12629 0.57328 0.29629 0.0
C16 C 0.08929 0.53298 0.31889 0.0
C17 C 0.06652 0.53646 0.30919 0.0
C18 C 0.10341 0.57594 0.28601 0.0
C19 C 0.07388 0.55778 0.29244 0.0
C20 C 0.03481 0.5182 0.31568 0.0
C21 C 0.08621 0.55872 0.3815 0.0
C22 C 0.08263 0.53789 0.39778 0.0
C23 C 0.0673 0.55067 0.36227 0.0
C24 C 0.04492 0.52156 0.35877 0.0
C25 C 0.05972 0.50891 0.39449 0.0
C26 C 0.04099 0.50086 0.3752 0.0
C27 C 0.02473 0.51241 0.33855 0.0
H28 H 0.89068 0.49823 0.31782 0.0
H29 H 0.9409 0.51101 0.30729 0.0
H30 H 0.88786 0.43674 0.36705 0.0
H31 H 0.93862 0.44991 0.35648 0.0
H32 H 0.90215 0.4213 0.26204 0.0
H33 H 0.93497 0.43959 0.2959 0.0
H34 H 0.95574 0.5041 0.22902 0.0
H35 H 0.98828 0.52244 0.26297 0.0
H36 H 0.13645 0.54909 0.32073 0.0
H37 H 0.08413 0.51603 0.33124 0.0
H38 H 0.10847 0.5926 0.27338 0.0
H39 H 0.05676 0.56081 0.28456 0.0
H40 H 0.10334 0.5813 0.38381 0.0
H41 H 0.07015 0.56717 0.35015 0.0
H42 H 0.05652 0.49237 0.40668 0.0
H43 H 0.02364 0.47834 0.37294 0.0
N44 N -0.00516 0.49872 0.34229 0.0
N45 N 0.01411 0.50817 0.29845 0.0
C46 C 0.43504 0.91205 0.49753 0.0
C47 C 0.44155 0.89947 0.51612 0.0
C48 C 0.45565 0.94016 0.49064 0.0
C49 C 0.48342 0.95618 0.50195 0.0
C50 C 0.46939 0.91544 0.52741 0.0
C51 C 0.49007 0.94368 0.52048 0.0
C52 C 0.50401 0.98684 0.49588 0.0
C53 C 0.50092 0.93434 0.43566 0.0
C54 C 0.48821 0.9384 0.41568 0.0
C55 C 0.50865 0.95331 0.45425 0.0
C56 C 0.50343 0.97644 0.45332 0.0
C57 C 0.48374 0.96201 0.41458 0.0
C58 C 0.4914 0.98089 0.43317 0.0
C59 C 0.51085 0.99639 0.47302 0.0
C60 C 0.57824 0.12778 0.48283 0.0
C61 C 0.56381 0.13296 0.46458 0.0
C62 C 0.56873 0.09937 0.48958 0.0
C63 C 0.54402 0.07581 0.47864 0.0
C64 C 0.53987 0.10941 0.45315 0.0
C65 C 0.53004 0.08116 0.46014 0.0
C66 C 0.53238 0.0454 0.48566 0.0
C67 C 0.52793 0.08993 0.5503 0.0
C68 C 0.54642 0.08978 0.56798 0.0
C69 C 0.52206 0.07282 0.53072 0.0
C70 C 0.53471 0.05541 0.5285 0.0
C71 C 0.55902 0.07231 0.56564 0.0
C72 C 0.55302 0.05512 0.54615 0.0
C73 C 0.52741 0.03589 0.50866 0.0
H74 H 0.41388 0.90019 0.48837 0.0
H75 H 0.44953 0.94962 0.47679 0.0
H76 H 0.47487 0.90638 0.54193 0.0
H77 H 0.51115 0.95586 0.52971 0.0
H78 H 0.50507 0.91662 0.43686 0.0
H79 H 0.51876 0.94991 0.46933 0.0
H80 H 0.4737 0.96553 0.39951 0.0
H81 H 0.48729 -0.00134 0.43198 0.0
H82 H 0.59704 0.14568 0.49167 0.0
H83 H 0.58073 0.09591 0.50327 0.0
H84 H 0.52834 0.11291 0.43908 0.0
H85 H 0.51108 0.06342 0.45129 0.0
H86 H 0.51799 0.10325 0.55164 0.0
H87 H 0.50737 0.07288 0.51747 0.0
H88 H 0.57297 0.07141 0.57913 0.0
H89 H 0.56261 0.04149 0.54486 0.0
N90 N 0.51321 0.00698 0.51284 0.0
N91 N 0.52423 0.02523 0.46881 0.0
C92 C 0.57231 0.49083 0.58659 0.0
C93 C 0.55214 0.47593 0.56846 0.0
C94 C 0.56374 0.50133 0.60505 0.0
C95 C 0.53474 0.49681 0.60578 0.0
C96 C 0.52318 0.47147 0.56929 0.0
C97 C 0.51465 0.48193 0.58769 0.0
C98 C 0.52545 0.50873 0.62457 0.0
C99 C 0.53834 0.44084 0.65805 0.0
C100 C 0.55913 0.45035 0.67628 0.0
C101 C 0.52968 0.45925 0.64851 0.0
C102 C 0.54212 0.4878 0.65665 0.0
C103 C 0.57148 0.47885 0.68452 0.0
C104 C 0.56299 0.49737 0.67481 0.0
C105 C 0.53101 0.50651 0.64801 0.0
C106 C 0.45924 0.54746 0.69685 0.0
C107 C 0.48015 0.56586 0.71346 0.0
C108 C 0.46814 0.53685 0.67873 0.0
C109 C 0.49825 0.54503 0.67657 0.0
C110 C 0.51015 0.57355 0.71152 0.0
C111 C 0.51908 0.56317 0.69326 0.0
C112 C 0.50799 0.53352 0.65782 0.0
C113 C 0.46865 0.58299 0.62572 0.0
C114 C 0.44498 0.56616 0.61027 0.0
C115 C 0.48762 0.57335 0.63327 0.0
C116 C 0.48279 0.5464 0.62592 0.0
C117 C 0.44131 0.53997 0.60206 0.0
C118 C 0.45993 0.53021 0.60984 0.0
C119 C 0.50115 0.5345 0.63443 0.0
H120 H 0.59489 0.4949 0.58628 0.0
H121 H 0.57991 0.5134 0.61851 0.0
H122 H 0.50697 0.45969 0.55577 0.0
H123 H 0.49219 0.47823 0.58784 0.0
H124 H 0.52798 0.41881 0.65168 0.0
H125 H 0.51252 0.45078 0.63524 0.0
H126 H 0.58761 0.48676 0.69852 0.0
H127 H 0.57252 0.51912 0.68164 0.0
H128 H 0.43587 0.54071 0.6982 0.0
H129 H 0.45144 0.52204 0.66654 0.0
H130 H 0.52671 0.58771 0.72408 0.0
H131 H 0.54234 0.56942 0.6921 0.0
H132 H 0.47215 0.60328 0.63238 0.0
H133 H 0.50574 0.58677 0.64506 0.0
H134 H 0.4239 0.52686 0.58967 0.0
H135 H 0.45604 0.50959 0.60358 0.0
N136 N 0.51039 0.52225 0.6188 0.0
N137 N 0.52259 0.5195 0.66366 0.0
C138 C 0.88503 0.40093 0.80559 0.0
C139 C 0.87187 0.40917 0.78833 0.0
C140 C 0.91414 0.42016 0.81325 0.0
C141 C 0.93056 0.4482 0.80407 0.0
C142 C 0.88844 0.43714 0.77899 0.0
C143 C 0.91758 0.45641 0.78671 0.0
C144 C 0.96194 0.46812 0.81132 0.0
C145 C 0.90781 0.45763 0.87339 0.0
C146 C 0.91345 0.44497 0.8924 0.0
C147 C 0.9265 0.46631 0.85444 0.0
C148 C 0.95089 0.46207 0.85399 0.0
C149 C 0.93802 0.441 0.892 0.0
C150 C 0.95662 0.44957 0.87302 0.0
C151 C 0.97159 0.47223 0.83444 0.0
C152 C 0.10595 0.55254 0.82811 0.0
C153 C 0.11422 0.53791 0.84372 0.0
C154 C 0.076 0.54057 0.8215 0.0
C155 C 0.05411 0.51328 0.82977 0.0
C156 C 0.09218 0.51131 0.85273 0.0
C157 C 0.06244 0.4991 0.84578 0.0
C158 C 0.02234 0.49918 0.82253 0.0
C159 C 0.07465 0.51623 0.75729 0.0
C160 C 0.07123 0.53505 0.74249 0.0
C161 C 0.05557 0.50353 0.77584 0.0
C162 C 0.03299 0.5097 0.78001 0.0
C163 C 0.04817 0.54063 0.7465 0.0
C164 C 0.02916 0.52796 0.76501 0.0
C165 C 0.01258 0.49673 0.79948 0.0
H166 H 0.87279 0.37962 0.81324 0.0
H167 H 0.92395 0.41291 0.82612 0.0
H168 H 0.87908 0.44396 0.76543 0.0
H169 H 0.93002 0.47775 0.77911 0.0
H170 H 0.88935 0.46142 0.87339 0.0
H171 H 0.92216 0.47682 0.84034 0.0
H172 H 0.94276 0.43108 0.90633 0.0
H173 H 0.97543 0.44629 0.87315 0.0
H174 H 0.12261 0.5733 0.82121 0.0
H175 H 0.07005 0.55258 0.80989 0.0
H176 H 0.09809 0.49962 0.86474 0.0
H177 H 0.04596 0.4782 0.85262 0.0
H178 H 0.09226 0.51156 0.75467 0.0
H179 H 0.05849 0.48898 0.78694 0.0
H180 H 0.04458 0.55455 0.73515 0.0
H181 H 0.01158 0.53265 0.76776 0.0
N182 N 0.98277 0.48111 0.79478 0.0
N183 N 0.00139 0.48706 0.83908 0.0
C184 C 0.46515 0.90205 0.97855 0.0
C185 C 0.44099 0.88702 0.96315 0.0
C186 C 0.47286 0.92937 0.98675 0.0
C187 C 0.45662 0.94233 0.97976 0.0
C188 C 0.42482 0.90014 0.95607 0.0
C189 C 0.43277 0.9277 0.96415 0.0
C190 C 0.46622 0.972 0.9875 0.0
C191 C 0.42694 0.9168 0.05029 0.0
C192 C 0.4478 0.92248 0.068 0.0
C193 C 0.43495 0.93515 0.03132 0.0
C194 C 0.46392 0.9595 0.0298 0.0
C195 C 0.47682 0.94668 0.06629 0.0
C196 C 0.48472 0.96511 0.04747 0.0
C197 C 0.47223 0.98034 0.01074 0.0
C198 C 0.52764 0.11118 0.0073 0.0
C199 C 0.55072 0.11793 0.02326 0.0
C200 C 0.50878 0.08251 -2e-05 0.0
C201 C 0.51353 0.06046 0.00791 0.0
C202 C 0.55459 0.09573 0.03188 0.0
C203 C 0.53626 0.06734 0.02423 0.0
C204 C 0.49515 0.03001 -3e-05 0.0
C205 C 0.53437 0.08358 0.93647 0.0
C206 C 0.51237 0.08235 0.92152 0.0
C207 C 0.52648 0.0637 0.95433 0.0
C208 C 0.49642 0.04246 0.95775 0.0
C209 C 0.48236 0.0606 0.92471 0.0
C210 C 0.4745 0.04073 0.94258 0.0
C211 C 0.48769 0.02156 0.97675 0.0
H212 H 0.47858 0.893 0.98392 0.0
H213 H 0.49202 0.94068 0.99818 0.0
H214 H 0.40593 0.88908 0.94438 0.0
H215 H 0.42021 0.93752 0.95835 0.0
H216 H 0.40444 0.89826 0.05117 0.0
H217 H 0.41832 0.93069 0.01813 0.0
H218 H 0.49323 0.95181 0.07983 0.0
H219 H 0.50711 0.98388 0.04675 0.0
H220 H 0.52413 0.12802 0.00063 0.0
H221 H 0.49069 0.07769 0.9881 0.0
H222 H 0.57238 0.1005 0.04408 0.0
H223 H 0.5403 0.05077 0.03078 0.0
H224 H 0.55766 0.10016 0.93454 0.0
H225 H 0.54384 0.06503 0.96556 0.0
H226 H 0.46497 0.05877 0.91325 0.0
H227 H 0.45123 0.02422 0.94475 0.0
N228 N 0.47362 0.99285 0.97139 0.0
N229 N 0.4868 0.00898 0.01599 0.0
C230 C 0.46953 0.582 0.1462 0.0
C231 C 0.44975 0.57604 0.16431 0.0
C232 C 0.47707 0.56177 0.13955 0.0
C233 C 0.46426 0.53462 0.15031 0.0
C234 C 0.43666 0.54876 0.17495 0.0
C235 C 0.4439 0.52828 0.16803 0.0
C236 C 0.47518 0.5147 0.14526 0.0
C237 C 0.4337 0.51841 0.07849 0.0
C238 C 0.45467 0.53532 0.0617 0.0
C239 C 0.44271 0.51057 0.09851 0.0
C240 C 0.47277 0.5191 0.10204 0.0
C241 C 0.48484 0.54387 0.06545 0.0
C242 C 0.49369 0.53549 0.08525 0.0
C243 C 0.48237 0.51039 0.12296 0.0
C244 C 0.5397 0.43851 0.13811 0.0
C245 C 0.56702 0.45659 0.12722 0.0
C246 C 0.51961 0.44796 0.1416 0.0
C247 C 0.52665 0.47561 0.13424 0.0
C248 C 0.57353 0.4839 0.11936 0.0
C249 C 0.55344 0.49323 0.12272 0.0
C250 C 0.50678 0.48694 0.13861 0.0
C251 C 0.54127 0.47652 0.20697 0.0
C252 C 0.51833 0.45732 0.2216 0.0
C253 C 0.53467 0.48707 0.18725 0.0
C254 C 0.50495 0.47827 0.18158 0.0
C255 C 0.48866 0.44907 0.2161 0.0
C256 C 0.48208 0.45956 0.19634 0.0
C257 C 0.4975 0.48911 0.16075 0.0
H258 H 0.47976 0.60263 0.13743 0.0
H259 H 0.49391 0.568 0.1266 0.0
H260 H 0.42165 0.54359 0.18917 0.0
H261 H 0.43417 0.50775 0.17692 0.0
H262 H 0.4102 0.51083 0.07607 0.0
H263 H 0.4261 0.49744 0.1111 0.0
H264 H 0.50178 0.55736 0.05322 0.0
H265 H 0.51702 0.54232 0.08769 0.0
H266 H 0.53416 0.41734 0.14431 0.0
H267 H 0.49879 0.43386 0.15022 0.0
H268 H 0.59419 0.49805 0.11056 0.0
H269 H 0.55915 0.51456 0.11677 0.0
H270 H 0.56434 0.48322 0.21064 0.0
H271 H 0.5528 0.50213 0.17646 0.0
H272 H 0.47054 0.43475 0.22721 0.0
H273 H 0.45905 0.45286 0.19245 0.0
N274 N 0.48233 0.5032 0.16326 0.0
N275 N 0.49855 0.49734 0.12053 0.0
C276 C 0.6159 0.33235 0.41361 0.0
O277 O 0.6412 0.35512 0.42042 0.0
O278 O 0.65715 0.39335 0.38358 0.0
Zn279 Zn 0.61437 0.37758 0.39164 0.0
O280 O 0.61161 0.39872 0.41904 0.0
C281 C 0.57472 0.39023 0.36498 0.0
O282 O 0.56737 0.39532 0.3851 0.0
O283 O 0.59857 0.33599 0.40035 0.0
C284 C 0.5896 0.385 0.43234 0.0
O285 O 0.56935 0.35796 0.42746 0.0
C286 C 0.67826 0.41958 0.38494 0.0
O287 O 0.67258 0.43954 0.39162 0.0
O288 O 0.5933 0.38169 0.36392 0.0
C289 C 0.28591 0.69262 0.5512 0.0
O290 O 0.27631 0.6743 0.53392 0.0
O291 O 0.27913 0.6247 0.57996 0.0
Zn292 Zn 0.25146 0.63984 0.57523 0.0
O293 O 0.22498 0.62282 0.54723 0.0
C294 C 0.19843 0.6201 0.60256 0.0
O295 O 0.18537 0.61731 0.58255 0.0
O296 O 0.27735 0.68299 0.57129 0.0
C297 C 0.21665 0.5983 0.53822 0.0
O298 O 0.22549 0.5816 0.54743 0.0
C299 C 0.29547 0.6236 0.56455 0.0
O300 O 0.2934 0.63111 0.54349 0.0
O301 O 0.22641 0.63006 0.60346 0.0
C302 C 0.60332 0.30368 0.74409 0.0
O303 O 0.63026 0.3114 0.75155 0.0
O304 O 0.6382 0.26458 0.7543 0.0
Zn305 Zn 0.59446 0.24593 0.74668 0.0
O306 O 0.58577 0.22329 0.71741 0.0
C307 C 0.57928 0.22752 0.79305 0.0
O308 O 0.60106 0.25428 0.79693 0.0
O309 O 0.58393 0.27688 0.74166 0.0
C310 C 0.58259 0.19825 0.71696 0.0
O311 O 0.58461 0.18662 0.7362 0.0
C312 C 0.65802 0.27441 0.73893 0.0
O313 O 0.6497 0.27148 0.71728 0.0
O314 O 0.5714 0.2191 0.77248 0.0
C315 C 0.39012 0.68868 0.90904 0.0
O316 O 0.36549 0.66628 0.91676 0.0
O317 O 0.34719 0.62468 0.88256 0.0
Zn318 Zn 0.39132 0.64222 0.889 0.0
O319 O 0.39963 0.62487 0.9168 0.0
C320 C 0.39663 0.61469 0.84908 0.0
O321 O 0.36939 0.5951 0.85505 0.0
O322 O 0.40686 0.68427 0.89616 0.0
C323 C 0.39647 0.59983 0.91757 0.0
O324 O 0.38668 0.58301 0.89937 0.0
C325 C 0.32579 0.59973 0.88797 0.0
O326 O 0.33136 0.58152 0.8987 0.0
O327 O 0.41111 0.63765 0.86109 0.0
C328 C 0.71469 0.39414 0.09543 0.0
O329 O 0.71636 0.37546 0.10898 0.0
O330 O 0.71681 0.33817 0.06482 0.0
Zn331 Zn 0.74959 0.37936 0.06986 0.0
O332 O 0.77526 0.38324 0.09728 0.0
C333 C 0.78369 0.37938 0.0322 0.0
O334 O 0.77766 0.35495 0.04194 0.0
O335 O 0.72869 0.40084 0.07664 0.0
C336 C 0.8035 0.39973 0.09725 0.0
O337 O 0.81664 0.41367 0.07843 0.0
C338 C 0.71777 0.31575 0.07002 0.0
O339 O 0.74207 0.31857 0.07956 0.0
O340 O 0.77396 0.39436 0.04121 0.0
C341 C 0.40622 0.72901 0.2158 0.0
O342 O 0.38827 0.73341 0.20271 0.0
O343 O 0.35285 0.73295 0.25339 0.0
Zn344 Zn 0.39441 0.76329 0.24464 0.0
O345 O 0.39398 0.78622 0.21736 0.0
C346 C 0.40221 0.8002 0.28205 0.0
O347 O 0.37592 0.79436 0.27435 0.0
O348 O 0.41376 0.741 0.23543 0.0
C349 C 0.41018 0.81365 0.21612 0.0
O350 O 0.42724 0.82832 0.23369 0.0
C351 C 0.32945 0.73411 0.24982 0.0
O352 O 0.33155 0.75696 0.23978 0.0
O353 O 0.41544 0.78921 0.27185 0.0
C354 C 0.17864 0.61073 0.30706 0.0
C355 C 0.15758 0.5939 0.2901 0.0
C356 C 0.20735 0.63307 0.30112 0.0
C357 C 0.21513 0.63825 0.27771 0.0
C358 C 0.1943 0.62041 0.2606 0.0
C359 C 0.16565 0.59856 0.26701 0.0
C360 C 0.22891 0.65185 0.3198 0.0
C361 C 0.20198 0.62491 0.2355 0.0
C362 C 0.27553 0.71324 0.25891 0.0
C363 C 0.30021 0.70973 0.25703 0.0
C364 C 0.2478 0.69024 0.26602 0.0
C365 C 0.24463 0.66302 0.27098 0.0
C366 C 0.26942 0.65931 0.269 0.0
C367 C 0.29699 0.68278 0.26221 0.0
C368 C 0.22188 0.69506 0.26821 0.0
C369 C 0.26674 0.63046 0.27378 0.0
H370 H 0.17219 0.60724 0.32489 0.0
H371 H 0.1493 0.58536 0.25395 0.0
H372 H 0.25034 0.65237 0.31833 0.0
H373 H 0.23394 0.67445 0.31786 0.0
H374 H 0.21989 0.64412 0.33719 0.0
H375 H 0.18396 0.60791 0.22451 0.0
H376 H 0.20589 0.64634 0.23004 0.0
H377 H 0.22292 0.62491 0.23253 0.0
H378 H 0.27797 0.73407 0.25507 0.0
H379 H 0.31596 0.67988 0.26067 0.0
H380 H 0.21288 0.68965 0.28581 0.0
H381 H 0.20357 0.68048 0.25624 0.0
H382 H 0.22831 0.7178 0.26447 0.0
H383 H 0.25905 0.62353 0.29154 0.0
H384 H 0.28823 0.63123 0.27154 0.0
H385 H 0.24975 0.61365 0.2621 0.0
C386 C 0.57929 0.17081 0.43448 0.0
C387 C 0.57319 0.1628 0.45751 0.0
C388 C 0.58665 0.19855 0.42724 0.0
C389 C 0.58733 0.21847 0.44338 0.0
C390 C 0.58129 0.21049 0.4667 0.0
C391 C 0.57455 0.18276 0.47354 0.0
C392 C 0.59358 0.2065 0.40232 0.0
C393 C 0.58141 0.23103 0.48433 0.0
C394 C 0.63092 0.29859 0.42937 0.0
C395 C 0.60832 0.30314 0.42109 0.0
C396 C 0.62441 0.27109 0.43655 0.0
C397 C 0.59449 0.24771 0.43584 0.0
C398 C 0.5715 0.2522 0.42769 0.0
C399 C 0.57875 0.27986 0.42018 0.0
C400 C 0.64959 0.26702 0.44471 0.0
C401 C 0.53927 0.22782 0.42703 0.0
H402 H 0.57837 0.15533 0.42215 0.0
H403 H 0.5695 0.17636 0.49131 0.0
H404 H 0.57726 0.21165 0.39477 0.0
H405 H 0.61607 0.2262 0.40078 0.0
H406 H 0.59294 0.18878 0.39212 0.0
H407 H 0.57605 0.2214 0.50173 0.0
H408 H 0.60364 0.25123 0.48502 0.0
H409 H 0.56484 0.23721 0.47937 0.0
H410 H 0.65386 0.3165 0.42994 0.0
H411 H 0.56121 0.28336 0.41393 0.0
H412 H 0.65027 0.25032 0.43407 0.0
H413 H 0.64575 0.25913 0.46263 0.0
H414 H 0.6717 0.28739 0.44392 0.0
H415 H 0.5367 0.21017 0.41567 0.0
H416 H 0.52398 0.23508 0.42079 0.0
H417 H 0.53228 0.21853 0.44441 0.0
C418 C 0.39307 0.55459 0.60065 0.0
C419 C 0.42363 0.5753 0.60305 0.0
C420 C 0.37253 0.56256 0.59365 0.0
C421 C 0.38265 0.59206 0.58934 0.0
C422 C 0.41338 0.61316 0.59187 0.0
C423 C 0.43355 0.60451 0.59858 0.0
C424 C 0.33993 0.53941 0.59107 0.0
C425 C 0.4249 0.64487 0.58763 0.0
C426 C 0.33247 0.60943 0.55368 0.0
C427 C 0.31771 0.61541 0.57072 0.0
C428 C 0.35383 0.60195 0.55947 0.0
C429 C 0.36081 0.60081 0.58283 0.0
C430 C 0.34622 0.60714 0.60008 0.0
C431 C 0.32471 0.61417 0.59383 0.0
C432 C 0.36868 0.59493 0.54063 0.0
C433 C 0.3533 0.60644 0.62517 0.0
H434 H 0.38506 0.53207 0.60452 0.0
H435 H 0.45714 0.6206 0.60013 0.0
H436 H 0.32646 0.5435 0.60335 0.0
H437 H 0.33171 0.5401 0.57359 0.0
H438 H 0.33591 0.5173 0.59414 0.0
H439 H 0.44946 0.65855 0.59032 0.0
H440 H 0.41938 0.64798 0.56984 0.0
H441 H 0.41381 0.6526 0.59928 0.0
H442 H 0.32714 0.61033 0.5358 0.0
H443 H 0.31359 0.61901 0.6071 0.0
H444 H 0.3638 0.57239 0.5426 0.0
H445 H 0.39328 0.60946 0.54187 0.0
H446 H 0.36105 0.59719 0.52331 0.0
H447 H 0.34784 0.58429 0.62998 0.0
H448 H 0.34069 0.61289 0.63643 0.0
H449 H 0.37755 0.62123 0.62851 0.0
C450 C 0.82083 0.39801 0.77614 0.0
C451 C 0.841 0.38854 0.78006 0.0
C452 C 0.79141 0.37863 0.7688 0.0
C453 C 0.78192 0.34907 0.76536 0.0
C454 C 0.80223 0.3394 0.76906 0.0
C455 C 0.83155 0.35927 0.77634 0.0
C456 C 0.77034 0.38972 0.76507 0.0
C457 C 0.7929 0.30804 0.76552 0.0
C458 C 0.69856 0.29597 0.76877 0.0
C459 C 0.69002 0.29161 0.74555 0.0
C460 C 0.72852 0.31409 0.77543 0.0
C461 C 0.75048 0.32818 0.75846 0.0
C462 C 0.74218 0.32321 0.73499 0.0
C463 C 0.71201 0.30495 0.72881 0.0
C464 C 0.73655 0.31878 0.80064 0.0
C465 C 0.76505 0.3378 0.71644 0.0
H466 H 0.8279 0.42051 0.77925 0.0
H467 H 0.84717 0.35192 0.779 0.0
H468 H 0.76103 0.38465 0.74736 0.0
H469 H 0.75127 0.37867 0.77692 0.0
H470 H 0.78147 0.41349 0.76787 0.0
H471 H 0.81157 0.30415 0.76871 0.0
H472 H 0.77438 0.29408 0.77719 0.0
H473 H 0.78441 0.30117 0.74775 0.0
H474 H 0.68173 0.28567 0.78183 0.0
H475 H 0.70562 0.30164 0.71083 0.0
H476 H 0.74561 0.34187 0.80517 0.0
H477 H 0.75427 0.31378 0.8046 0.0
H478 H 0.71704 0.30515 0.81165 0.0
H479 H 0.77503 0.36163 0.71753 0.0
H480 H 0.75521 0.33042 0.69902 0.0
H481 H 0.78347 0.33341 0.71886 0.0
C482 C 0.42464 0.85035 0.93135 0.0
C483 C 0.43314 0.85799 0.95436 0.0
C484 C 0.41778 0.8232 0.92283 0.0
C485 C 0.41982 0.80337 0.93761 0.0
C486 C 0.42849 0.81097 0.96081 0.0
C487 C 0.43479 0.83805 0.96894 0.0
C488 C 0.40828 0.81569 0.89805 0.0
C489 C 0.431 0.79042 0.97709 0.0
C490 C 0.3758 0.72286 0.92454 0.0
C491 C 0.39776 0.71833 0.91535 0.0
C492 C 0.38254 0.75058 0.93127 0.0
C493 C 0.41207 0.7743 0.92908 0.0
C494 C 0.4343 0.76996 0.91958 0.0
C495 C 0.42682 0.74201 0.91265 0.0
C496 C 0.35811 0.7544 0.94103 0.0
C497 C 0.46612 0.79472 0.91725 0.0
H498 H 0.42372 0.86575 0.91988 0.0
H499 H 0.44083 0.84353 0.98683 0.0
H500 H 0.42386 0.81087 0.88913 0.0
H501 H 0.38575 0.79588 0.89697 0.0
H502 H 0.40768 0.83348 0.88883 0.0
H503 H 0.43915 0.80008 0.99438 0.0
H504 H 0.40888 0.77031 0.97885 0.0
H505 H 0.44651 0.78407 0.97015 0.0
H506 H 0.35322 0.70469 0.92646 0.0
H507 H 0.44387 0.73859 0.9056 0.0
H508 H 0.35641 0.77128 0.93134 0.0
H509 H 0.36361 0.76189 0.95908 0.0
H510 H 0.33599 0.734 0.9405 0.0
H511 H 0.46671 0.81245 0.90708 0.0
H512 H 0.48054 0.78791 0.9089 0.0
H513 H 0.47569 0.80375 0.93444 0.0
C514 C 0.61918 0.46636 0.12932 0.0
C515 C 0.58891 0.44728 0.12403 0.0
C516 C 0.64048 0.45844 0.12551 0.0
C517 C 0.63124 0.43085 0.11607 0.0
C518 C 0.60063 0.41132 0.11099 0.0
C519 C 0.57977 0.41975 0.11514 0.0
C520 C 0.67288 0.47968 0.13139 0.0
C521 C 0.59002 0.38177 0.10079 0.0
C522 C 0.68823 0.42033 0.08486 0.0
C523 C 0.69481 0.40516 0.10116 0.0
C524 C 0.66771 0.42902 0.08956 0.0
C525 C 0.65368 0.42257 0.11113 0.0
C526 C 0.66078 0.4079 0.12786 0.0
C527 C 0.6812 0.39927 0.12263 0.0
C528 C 0.66058 0.44458 0.07129 0.0
C529 C 0.64647 0.40094 0.15113 0.0
H530 H 0.62619 0.48752 0.13649 0.0
H531 H 0.55639 0.40509 0.11088 0.0
H532 H 0.68148 0.46963 0.14348 0.0
H533 H 0.6865 0.48538 0.1157 0.0
H534 H 0.67622 0.49994 0.13924 0.0
H535 H 0.56539 0.36899 0.09821 0.0
H536 H 0.60079 0.38414 0.08402 0.0
H537 H 0.59665 0.36937 0.11211 0.0
H538 H 0.69861 0.42489 0.06821 0.0
H539 H 0.68628 0.38765 0.13535 0.0
H540 H 0.66512 0.4658 0.07791 0.0
H541 H 0.63648 0.43169 0.06665 0.0
H542 H 0.67379 0.44836 0.05554 0.0
H543 H 0.65041 0.42106 0.15962 0.0
H544 H 0.65522 0.39031 0.1625 0.0
H545 H 0.62194 0.38635 0.1492 0.0
C546 C 0.42727 0.84949 0.52879 0.0
C547 C 0.41899 0.86992 0.52377 0.0
C548 C 0.40573 0.82096 0.5347 0.0
C549 C 0.37529 0.8128 0.53562 0.0
C550 C 0.36695 0.83357 0.53125 0.0
C551 C 0.38891 0.86189 0.52539 0.0
C552 C 0.41543 0.79935 0.53923 0.0
C553 C 0.33472 0.82569 0.53217 0.0
C554 C 0.31708 0.73379 0.52505 0.0
C555 C 0.30791 0.72365 0.54736 0.0
C556 C 0.33892 0.76278 0.52103 0.0
C557 C 0.35194 0.78212 0.53978 0.0
C558 C 0.3426 0.77216 0.56234 0.0
C559 C 0.32064 0.743 0.56587 0.0
C560 C 0.34823 0.77266 0.49671 0.0
C561 C 0.356 0.79224 0.58272 0.0
H562 H 0.45047 0.85557 0.52742 0.0
H563 H 0.38251 0.87778 0.52193 0.0
H564 H 0.40695 0.78867 0.556 0.0
H565 H 0.40575 0.78213 0.5259 0.0
H566 H 0.44012 0.80959 0.53925 0.0
H567 H 0.33218 0.84478 0.52957 0.0
H568 H 0.32148 0.80935 0.51872 0.0
H569 H 0.32503 0.81578 0.54893 0.0
H570 H 0.30735 0.71901 0.51064 0.0
H571 H 0.31371 0.73531 0.58316 0.0
H572 H 0.37247 0.78111 0.49489 0.0
H573 H 0.34443 0.79064 0.4925 0.0
H574 H 0.33578 0.75491 0.48403 0.0
H575 H 0.38044 0.80106 0.58363 0.0
H576 H 0.34602 0.78118 0.59913 0.0
H577 H 0.35272 0.81094 0.5808 0.0
C578 C 0.57325 0.41254 0.6736 0.0
C579 C 0.56691 0.43012 0.68715 0.0
C580 C 0.57941 0.39242 0.68361 0.0
C581 C 0.57898 0.38967 0.70775 0.0
C582 C 0.5728 0.4075 0.72154 0.0
C583 C 0.56696 0.42762 0.71107 0.0
C584 C 0.58625 0.37401 0.66834 0.0
C585 C 0.57192 0.40502 0.74732 0.0
C586 C 0.56733 0.31848 0.73065 0.0
C587 C 0.59664 0.32603 0.73642 0.0
C588 C 0.56115 0.33918 0.72185 0.0
C589 C 0.58489 0.368 0.7185 0.0
C590 C 0.61443 0.37587 0.72469 0.0
C591 C 0.61992 0.35483 0.73371 0.0
C592 C 0.5293 0.33008 0.71571 0.0
C593 C 0.64036 0.40632 0.72117 0.0
H594 H 0.57351 0.41463 0.65511 0.0
H595 H 0.56168 0.44093 0.72158 0.0
H596 H 0.60843 0.3772 0.67298 0.0
H597 H 0.56947 0.35074 0.67088 0.0
H598 H 0.58625 0.37921 0.64991 0.0
H599 H 0.56706 0.42068 0.75559 0.0
H600 H 0.55455 0.38275 0.75237 0.0
H601 H 0.59363 0.40885 0.75407 0.0
H602 H 0.54922 0.29629 0.7328 0.0
H603 H 0.64266 0.36084 0.73803 0.0
H604 H 0.52724 0.33242 0.697 0.0
H605 H 0.52294 0.34437 0.72443 0.0
H606 H 0.51323 0.30725 0.72051 0.0
H607 H 0.64251 0.41168 0.70266 0.0
H608 H 0.66186 0.40916 0.72755 0.0
H609 H 0.63631 0.42213 0.73008 0.0
C610 C 0.15434 0.55283 0.87341 0.0
C611 C 0.14585 0.54974 0.85026 0.0
C612 C 0.18388 0.56209 0.87992 0.0
C613 C 0.20517 0.56776 0.86281 0.0
C614 C 0.19674 0.56501 0.83937 0.0
C615 C 0.16716 0.55627 0.83336 0.0
C616 C 0.19221 0.56541 0.90506 0.0
C617 C 0.21872 0.57046 0.82068 0.0
C618 C 0.2878 0.61292 0.87762 0.0
C619 C 0.29484 0.59143 0.8819 0.0
C620 C 0.2586 0.60552 0.87166 0.0
C621 C 0.2361 0.57595 0.86947 0.0
C622 C 0.2431 0.55416 0.87366 0.0
C623 C 0.27238 0.56218 0.88008 0.0
C624 C 0.25182 0.62934 0.86779 0.0
C625 C 0.21975 0.5224 0.87114 0.0
H626 H 0.13778 0.54789 0.88643 0.0
H627 H 0.1604 0.55356 0.81546 0.0
H628 H 0.19917 0.54979 0.90994 0.0
H629 H 0.2115 0.58749 0.90856 0.0
H630 H 0.17341 0.56167 0.91613 0.0
H631 H 0.20869 0.56775 0.80329 0.0
H632 H 0.23839 0.59273 0.82224 0.0
H633 H 0.22698 0.55522 0.8225 0.0
H634 H 0.30508 0.63558 0.8792 0.0
H635 H 0.27781 0.54553 0.88324 0.0
H636 H 0.23386 0.62643 0.87943 0.0
H637 H 0.24355 0.6282 0.85 0.0
H638 H 0.27172 0.65125 0.87073 0.0
H639 H 0.20118 0.51655 0.88311 0.0
H640 H 0.22898 0.50818 0.87459 0.0
H641 H 0.21012 0.51793 0.85352 0.0
C642 C 0.57728 0.15525 0.05372 0.0
C643 C 0.57178 0.14814 0.0304 0.0
C644 C 0.5997 0.183 0.06084 0.0
C645 C 0.61735 0.20383 0.04421 0.0
C646 C 0.61131 0.19696 0.0206 0.0
C647 C 0.58835 0.16918 0.01396 0.0
C648 C 0.60506 0.18975 0.08615 0.0
C649 C 0.6299 0.21852 0.00238 0.0
C650 C 0.66368 0.28336 0.06051 0.0
C651 C 0.69193 0.28684 0.06439 0.0
C652 C 0.63906 0.25633 0.0543 0.0
C653 C 0.64294 0.23239 0.05151 0.0
C654 C 0.67138 0.23572 0.05551 0.0
C655 C 0.69551 0.2629 0.06213 0.0
C656 C 0.60894 0.25344 0.05064 0.0
C657 C 0.67642 0.21071 0.0524 0.0
H658 H 0.56429 0.13889 0.06638 0.0
H659 H 0.58421 0.16348 0.99594 0.0
H660 H 0.62732 0.19347 0.09122 0.0
H661 H 0.60509 0.20993 0.09005 0.0
H662 H 0.58788 0.17192 0.09677 0.0
H663 H 0.62156 0.21015 0.98481 0.0
H664 H 0.63001 0.23902 0.00474 0.0
H665 H 0.65339 0.22382 0.00398 0.0
H666 H 0.66077 0.30179 0.06241 0.0
H667 H 0.71735 0.26556 0.06498 0.0
H668 H 0.59215 0.23617 0.06182 0.0
H669 H 0.60126 0.24692 0.03267 0.0
H670 H 0.60948 0.27395 0.05432 0.0
H671 H 0.66163 0.19264 0.06391 0.0
H672 H 0.69994 0.21696 0.05604 0.0
H673 H 0.67057 0.20239 0.03456 0.0
C674 C 0.46733 0.62782 0.17378 0.0
C675 C 0.44396 0.59876 0.17261 0.0
C676 C 0.46229 0.64971 0.18105 0.0
C677 C 0.43329 0.64233 0.18773 0.0
C678 C 0.40971 0.61302 0.18708 0.0
C679 C 0.41529 0.59158 0.17939 0.0
C680 C 0.48794 0.68077 0.18136 0.0
C681 C 0.37853 0.60435 0.1943 0.0
C682 C 0.42515 0.69574 0.22464 0.0
C683 C 0.41508 0.70827 0.20851 0.0
C684 C 0.43118 0.6742 0.21813 0.0
C685 C 0.42749 0.66541 0.19489 0.0
C686 C 0.41812 0.67856 0.17844 0.0
C687 C 0.41181 0.6997 0.18549 0.0
C688 C 0.44083 0.6604 0.23617 0.0
C689 C 0.41448 0.6701 0.15344 0.0
H690 H 0.48972 0.63351 0.1691 0.0
H691 H 0.39707 0.56925 0.17836 0.0
H692 H 0.48258 0.69414 0.17004 0.0
H693 H 0.49144 0.6899 0.19891 0.0
H694 H 0.50915 0.68286 0.17559 0.0
H695 H 0.363 0.58049 0.19375 0.0
H696 H 0.37906 0.61217 0.21196 0.0
H697 H 0.36951 0.61464 0.18288 0.0
H698 H 0.42749 0.70216 0.24249 0.0
H699 H 0.40417 0.70943 0.17294 0.0
H700 H 0.46263 0.66299 0.23162 0.0
H701 H 0.42436 0.63679 0.23694 0.0
H702 H 0.44295 0.66994 0.25344 0.0
H703 H 0.43569 0.67299 0.14687 0.0
H704 H 0.40794 0.68309 0.14272 0.0
H705 H 0.39716 0.64684 0.15139 0.0
C706 C 0.83394 0.45614 0.33288 0.0
C707 C 0.85478 0.45915 0.34974 0.0
C708 C 0.8055 0.45044 0.33883 0.0
C709 C 0.79762 0.44745 0.3622 0.0
C710 C 0.81843 0.45025 0.37931 0.0
C711 C 0.84681 0.45612 0.37287 0.0
C712 C 0.78384 0.44748 0.3201 0.0
C713 C 0.81071 0.44704 0.40439 0.0
C714 C 0.73234 0.45602 0.37843 0.0
C715 C 0.70899 0.42704 0.37945 0.0
C716 C 0.76144 0.46303 0.37299 0.0
C717 C 0.76724 0.44052 0.36864 0.0
C718 C 0.74383 0.41125 0.36991 0.0
C719 C 0.715 0.40488 0.37524 0.0
C720 C 0.7859 0.4945 0.37167 0.0
C721 C 0.74919 0.38664 0.36549 0.0
H722 H 0.83981 0.45805 0.31496 0.0
H723 H 0.86296 0.45882 0.38598 0.0
H724 H 0.76363 0.42546 0.3205 0.0
H725 H 0.77647 0.46321 0.32296 0.0
H726 H 0.79375 0.45118 0.3028 0.0
H727 H 0.82948 0.44997 0.41557 0.0
H728 H 0.80462 0.46319 0.40942 0.0
H729 H 0.79099 0.42524 0.40757 0.0
H730 H 0.72786 0.47324 0.38167 0.0
H731 H 0.69714 0.3824 0.37613 0.0
H732 H 0.79517 0.49951 0.35415 0.0
H733 H 0.80447 0.49883 0.38361 0.0
H734 H 0.77784 0.50941 0.37595 0.0
H735 H 0.75725 0.38805 0.34778 0.0
H736 H 0.72869 0.36506 0.36772 0.0
H737 H 0.76683 0.3883 0.37731 0.0
C738 C 0.13355 0.56463 0.41611 0.0
C739 C 0.10258 0.54633 0.41826 0.0
C740 C 0.15264 0.57268 0.43535 0.0
C741 C 0.1404 0.56232 0.45726 0.0
C742 C 0.10915 0.54379 0.45952 0.0
C743 C 0.09062 0.53596 0.43998 0.0
C744 C 0.18588 0.59232 0.43226 0.0
C745 C 0.09525 0.53255 0.48261 0.0
C746 C 0.19062 0.56364 0.50563 0.0
C747 C 0.19719 0.58892 0.5175 0.0
C748 C 0.17233 0.5548 0.48587 0.0
C749 C 0.16018 0.57154 0.47793 0.0
C750 C 0.16668 0.59702 0.48987 0.0
C751 C 0.18516 0.60545 0.50945 0.0
C752 C 0.16602 0.52758 0.47348 0.0
C753 C 0.15398 0.61533 0.48203 0.0
H754 H 0.1429 0.5724 0.39931 0.0
H755 H 0.06665 0.52207 0.44174 0.0
H756 H 0.19399 0.6127 0.44211 0.0
H757 H 0.19784 0.58175 0.4391 0.0
H758 H 0.19188 0.59789 0.414 0.0
H759 H 0.07062 0.5179 0.48138 0.0
H760 H 0.105 0.5206 0.49081 0.0
H761 H 0.10024 0.55098 0.49406 0.0
H762 H 0.1999 0.55081 0.51168 0.0
H763 H 0.19005 0.62498 0.51853 0.0
H764 H 0.17332 0.53268 0.45544 0.0
H765 H 0.14163 0.51172 0.4731 0.0
H766 H 0.17752 0.51723 0.48166 0.0
H767 H 0.16111 0.62297 0.46429 0.0
H768 H 0.16117 0.63452 0.49326 0.0
H769 H 0.12921 0.60214 0.48179 0.0
C770 C 0.52807 0.10662 0.60035 0.0
C771 C 0.55189 0.10703 0.58918 0.0
C772 C 0.53269 0.12168 0.62102 0.0
C773 C 0.56185 0.13765 0.63064 0.0
C774 C 0.58606 0.13854 0.61924 0.0
C775 C 0.58076 0.12313 0.59866 0.0
C776 C 0.5063 0.1201 0.63277 0.0
C777 C 0.61751 0.15558 0.62886 0.0
C778 C 0.5784 0.19651 0.67418 0.0
C779 C 0.57707 0.18265 0.69491 0.0
C780 C 0.57352 0.18214 0.65313 0.0
C781 C 0.56699 0.15315 0.65281 0.0
C782 C 0.56547 0.13897 0.67366 0.0
C783 C 0.57062 0.15393 0.69447 0.0
C784 C 0.57551 0.19801 0.63122 0.0
C785 C 0.5584 0.108 0.67398 0.0
H786 H 0.50567 0.0939 0.5932 0.0
H787 H 0.59927 0.12374 0.58992 0.0
H788 H 0.50354 0.11023 0.64995 0.0
H789 H 0.51026 0.14223 0.63536 0.0
H790 H 0.48516 0.10714 0.62283 0.0
H791 H 0.63395 0.15458 0.61761 0.0
H792 H 0.62424 0.17862 0.6312 0.0
H793 H 0.61852 0.14707 0.64597 0.0
H794 H 0.58346 0.21874 0.67435 0.0
H795 H 0.56949 0.14305 0.71041 0.0
H796 H 0.55402 0.18623 0.62158 0.0
H797 H 0.59298 0.19877 0.62012 0.0
H798 H 0.58087 0.22055 0.63442 0.0
H799 H 0.53647 0.09365 0.66545 0.0
H800 H 0.5577 0.09999 0.69166 0.0
H801 H 0.57544 0.10615 0.66424 0.0
C802 C 0.47933 0.57415 0.7555 0.0
C803 C 0.47043 0.57618 0.73315 0.0
C804 C 0.46888 0.58219 0.77443 0.0
C805 C 0.44928 0.59274 0.77087 0.0
C806 C 0.44098 0.5957 0.74829 0.0
C807 C 0.45153 0.58722 0.72969 0.0
C808 C 0.47797 0.57841 0.79825 0.0
C809 C 0.42039 0.60718 0.74381 0.0
C810 C 0.39591 0.5821 0.81846 0.0
C811 C 0.41026 0.6095 0.82898 0.0
C812 C 0.40843 0.57643 0.79958 0.0
C813 C 0.43586 0.59878 0.79081 0.0
C814 C 0.45039 0.62658 0.80119 0.0
C815 C 0.43749 0.63158 0.82026 0.0
C816 C 0.39238 0.54641 0.78912 0.0
C817 C 0.47953 0.65099 0.79214 0.0
H818 H 0.49373 0.56537 0.75823 0.0
H819 H 0.44492 0.58913 0.71239 0.0
H820 H 0.48754 0.599 0.80805 0.0
H821 H 0.458 0.56191 0.80758 0.0
H822 H 0.49464 0.57145 0.79804 0.0
H823 H 0.41784 0.61012 0.72524 0.0
H824 H 0.398 0.59194 0.75081 0.0
H825 H 0.42899 0.62828 0.75268 0.0
H826 H 0.37493 0.56488 0.82513 0.0
H827 H 0.44865 0.65284 0.82826 0.0
H828 H 0.40709 0.53716 0.7897 0.0
H829 H 0.38699 0.54753 0.77084 0.0
H830 H 0.37133 0.53139 0.79808 0.0
H831 H 0.49686 0.64492 0.79301 0.0
H832 H 0.48771 0.67148 0.8019 0.0
H833 H 0.47675 0.65495 0.77386 0.0
C834 C 0.86281 0.42124 0.91004 0.0
C835 C 0.89398 0.43625 0.91272 0.0
C836 C 0.84417 0.4124 0.92916 0.0
C837 C 0.85706 0.41883 0.95144 0.0
C838 C 0.88852 0.43433 0.95424 0.0
C839 C 0.90661 0.44282 0.93484 0.0
C840 C 0.8107 0.39577 0.92552 0.0
C841 C 0.90307 0.44172 0.97774 0.0
C842 C 0.81038 0.41643 0.00168 0.0
C843 C 0.802 0.38941 0.01131 0.0
C844 C 0.82816 0.42624 0.98208 0.0
C845 C 0.83767 0.40857 0.97187 0.0
C846 C 0.82907 0.38119 0.98139 0.0
C847 C 0.81138 0.37196 0.00101 0.0
C848 C 0.83698 0.4556 0.9724 0.0
C849 C 0.83873 0.3617 0.97094 0.0
H850 H 0.85298 0.41589 0.89297 0.0
H851 H 0.9307 0.45481 0.93697 0.0
H852 H 0.8009 0.37389 0.93318 0.0
H853 H 0.8007 0.40696 0.9343 0.0
H854 H 0.80426 0.3933 0.90709 0.0
H855 H 0.92785 0.45457 0.97695 0.0
H856 H 0.8954 0.45425 0.98757 0.0
H857 H 0.89633 0.42152 0.9874 0.0
H858 H 0.80323 0.43004 0.00954 0.0
H859 H 0.80495 0.35102 0.0083 0.0
H860 H 0.8294 0.45335 0.95427 0.0
H861 H 0.86167 0.46975 0.97261 0.0
H862 H 0.82738 0.46652 0.98217 0.0
H863 H 0.83123 0.35706 0.95277 0.0
H864 H 0.82964 0.34081 0.98018 0.0
H865 H 0.86347 0.3728 0.97117 0.0
C866 C 0.4583 0.89497 0.09748 0.0
C867 C 0.43926 0.90392 0.08864 0.0
C868 C 0.45161 0.87913 0.11787 0.0
C869 C 0.42534 0.87225 0.1298 0.0
C870 C 0.40567 0.88067 0.12071 0.0
C871 C 0.41282 0.89634 0.10016 0.0
C872 C 0.47297 0.87024 0.12689 0.0
C873 C 0.37756 0.87387 0.13302 0.0
C874 C 0.39899 0.81258 0.17418 0.0
C875 C 0.41182 0.82859 0.19437 0.0
C876 C 0.40258 0.8265 0.15308 0.0
C877 C 0.41915 0.85715 0.1522 0.0
C878 C 0.43122 0.87343 0.17264 0.0
C879 C 0.42752 0.85895 0.19346 0.0
C880 C 0.38951 0.80841 0.13164 0.0
C881 C 0.44876 0.90617 0.17241 0.0
H882 H 0.47857 0.90053 0.08846 0.0
H883 H 0.39821 0.90349 0.09348 0.0
H884 H 0.48242 0.88086 0.14368 0.0
H885 H 0.46093 0.84647 0.12971 0.0
H886 H 0.49171 0.87615 0.11503 0.0
H887 H 0.36393 0.88072 0.12312 0.0
H888 H 0.3637 0.85027 0.13636 0.0
H889 H 0.38348 0.88506 0.14988 0.0
H890 H 0.38684 0.7891 0.17473 0.0
H891 H 0.43732 0.87147 0.209 0.0
H892 H 0.4078 0.81205 0.12006 0.0
H893 H 0.37541 0.81506 0.12224 0.0
H894 H 0.37579 0.78487 0.1354 0.0
H895 H 0.46949 0.91399 0.16248 0.0
H896 H 0.45501 0.9156 0.18993 0.0
H897 H 0.43555 0.91445 0.16381 0.0
C898 C 0.50725 0.41699 0.24894 0.0
C899 C 0.52534 0.44615 0.24262 0.0
C900 C 0.51366 0.4062 0.26875 0.0
C901 C 0.53882 0.42499 0.28252 0.0
C902 C 0.55715 0.45443 0.27625 0.0
C903 C 0.55016 0.46466 0.25642 0.0
C904 C 0.49361 0.37467 0.27488 0.0
C905 C 0.58417 0.47517 0.29052 0.0
C906 C 0.5437 0.40702 0.34481 0.0
C907 C 0.56361 0.39689 0.3437 0.0
C908 C 0.53481 0.41554 0.32494 0.0
C909 C 0.54617 0.41395 0.30347 0.0
C910 C 0.56561 0.40298 0.30214 0.0
C911 C 0.57406 0.39454 0.32226 0.0
C912 C 0.51389 0.42695 0.32701 0.0
C913 C 0.57819 0.40096 0.27955 0.0
H914 H 0.48825 0.40247 0.23821 0.0
H915 H 0.56398 0.48731 0.25185 0.0
H916 H 0.50669 0.36369 0.27528 0.0
H917 H 0.48448 0.37283 0.29226 0.0
H918 H 0.47467 0.36302 0.26254 0.0
H919 H 0.59619 0.49737 0.28324 0.0
H920 H 0.57727 0.47638 0.30818 0.0
H921 H 0.59991 0.46715 0.29183 0.0
H922 H 0.53542 0.40881 0.36127 0.0
H923 H 0.58942 0.3867 0.32122 0.0
H924 H 0.4943 0.41478 0.31537 0.0
H925 H 0.52547 0.45002 0.32173 0.0
H926 H 0.50579 0.42534 0.34477 0.0
H927 H 0.55982 0.38831 0.26701 0.0
H928 H 0.59184 0.39062 0.28128 0.0
H929 H 0.59238 0.42299 0.27236 0.0
C930 C 0.48445 0.92789 0.37361 0.0
C931 C 0.47884 0.91772 0.39621 0.0
C932 C 0.47377 0.90857 0.355 0.0
C933 C 0.45707 0.87837 0.35909 0.0
C934 C 0.45218 0.86793 0.38186 0.0
C935 C 0.46313 0.88775 0.40016 0.0
C936 C 0.47956 0.92051 0.33095 0.0
C937 C 0.43444 0.83587 0.38689 0.0
C938 C 0.40108 0.83137 0.31311 0.0
C939 C 0.41628 0.81978 0.30198 0.0
C940 C 0.41407 0.85027 0.33181 0.0
C941 C 0.44299 0.85782 0.33959 0.0
C942 C 0.45842 0.84608 0.32856 0.0
C943 C 0.44487 0.82717 0.30986 0.0
C944 C 0.39688 0.86234 0.34316 0.0
C945 C 0.4893 0.85367 0.33642 0.0
H946 H 0.497 0.95103 0.37049 0.0
H947 H 0.45849 0.87977 0.41759 0.0
H948 H 0.48979 0.91062 0.3207 0.0
H949 H 0.45809 0.91485 0.32242 0.0
H950 H 0.49452 0.94445 0.33068 0.0
H951 H 0.43456 0.83126 0.40544 0.0
H952 H 0.41093 0.82674 0.38108 0.0
H953 H 0.44354 0.8244 0.37731 0.0
H954 H 0.37897 0.82575 0.30718 0.0
H955 H 0.45675 0.81829 0.30135 0.0
H956 H 0.40957 0.88634 0.342 0.0
H957 H 0.39407 0.85671 0.36161 0.0
H958 H 0.37444 0.85398 0.33522 0.0
H959 H 0.50496 0.87739 0.33503 0.0
H960 H 0.4981 0.84235 0.32624 0.0
H961 H 0.48894 0.84788 0.35472 0.0
C962 C 0.55264 0.46802 0.5263 0.0
C963 C 0.56106 0.46506 0.5486 0.0
C964 C 0.55913 0.45626 0.50744 0.0
C965 C 0.57453 0.44126 0.51093 0.0
C966 C 0.58396 0.43898 0.53329 0.0
C967 C 0.57708 0.4509 0.55189 0.0
C968 C 0.54877 0.4592 0.48384 0.0
C969 C 0.6005 0.4232 0.53764 0.0
C970 C 0.56096 0.38443 0.46644 0.0
C971 C 0.58635 0.39931 0.45277 0.0
C972 C 0.5571 0.39773 0.4856 0.0
C973 C 0.57921 0.4266 0.4913 0.0
C974 C 0.60512 0.44163 0.4778 0.0
C975 C 0.60836 0.42782 0.45865 0.0
C976 C 0.5291 0.38103 0.49954 0.0
C977 C 0.62921 0.4724 0.48345 0.0
H978 H 0.54076 0.47942 0.52362 0.0
H979 H 0.58346 0.44837 0.56909 0.0
H980 H 0.56788 0.46909 0.47196 0.0
H981 H 0.53228 0.43743 0.47693 0.0
H982 H 0.53826 0.47266 0.48392 0.0
H983 H 0.60809 0.42511 0.55576 0.0
H984 H 0.58574 0.39988 0.53338 0.0
H985 H 0.62024 0.43183 0.52642 0.0
H986 H 0.54386 0.36239 0.46206 0.0
H987 H 0.6281 0.43942 0.44822 0.0
H988 H 0.51624 0.39223 0.49905 0.0
H989 H 0.53504 0.3802 0.51773 0.0
H990 H 0.51443 0.35849 0.49318 0.0
H991 H 0.61991 0.48684 0.48226 0.0
H992 H 0.64851 0.48068 0.47176 0.0
H993 H 0.63735 0.47375 0.50132 0.0
C994 C 0.10241 0.57784 0.71746 0.0
C995 C 0.09133 0.54861 0.72273 0.0
C996 C 0.12047 0.59069 0.69833 0.0
C997 C 0.12764 0.57391 0.68415 0.0
C998 C 0.1169 0.54451 0.68956 0.0
C999 C 0.09886 0.53221 0.7088 0.0
C1000 C 0.13164 0.62215 0.69317 0.0
C1001 C 0.12408 0.52592 0.67482 0.0
C1002 C 0.14935 0.5969 0.6225 0.0
C1003 C 0.1805 0.60976 0.62365 0.0
C1004 C 0.1319 0.58545 0.64213 0.0
C1005 C 0.14596 0.58693 0.66341 0.0
C1006 C 0.17743 0.60037 0.66479 0.0
C1007 C 0.19433 0.61162 0.64489 0.0
C1008 C 0.09838 0.57134 0.64003 0.0
C1009 C 0.1932 0.60241 0.68721 0.0
H1010 H 0.09701 0.59073 0.72837 0.0
H1011 H 0.09009 0.50953 0.71264 0.0
H1012 H 0.1564 0.63456 0.69251 0.0
H1013 H 0.1232 0.62402 0.6761 0.0
H1014 H 0.12449 0.63233 0.70614 0.0
H1015 H 0.11461 0.50366 0.68171 0.0
H1016 H 0.11507 0.52438 0.65722 0.0
H1017 H 0.14864 0.53602 0.67348 0.0
H1018 H 0.13847 0.59537 0.60618 0.0
H1019 H 0.21839 0.62155 0.64595 0.0
H1020 H 0.09042 0.5819 0.65192 0.0
H1021 H 0.08748 0.5482 0.645 0.0
H1022 H 0.09098 0.57258 0.62236 0.0
H1023 H 0.18735 0.61354 0.70027 0.0
H1024 H 0.21788 0.61432 0.68551 0.0
H1025 H 0.18569 0.58033 0.69371 0.0
C1026 C 0.54594 0.11133 0.88938 0.0
C1027 C 0.52073 0.10364 0.90263 0.0
C1028 C 0.55424 0.13153 0.8716 0.0
C1029 C 0.53693 0.14439 0.86693 0.0
C1030 C 0.5114 0.13666 0.88018 0.0
C1031 C 0.5036 0.11637 0.89787 0.0
C1032 C 0.58157 0.13913 0.85779 0.0
C1033 C 0.49246 0.14999 0.87576 0.0
C1034 C 0.57611 0.21574 0.8348 0.0
C1035 C 0.56633 0.20668 0.8122 0.0
C1036 C 0.56607 0.19579 0.85289 0.0
C1037 C 0.54579 0.16607 0.84826 0.0
C1038 C 0.5351 0.1569 0.82561 0.0
C1039 C 0.54547 0.17732 0.80785 0.0
C1040 C 0.57788 0.20641 0.87684 0.0
C1041 C 0.5134 0.12539 0.82002 0.0
H1042 H 0.55902 0.10127 0.89276 0.0
H1043 H 0.4843 0.11078 0.90823 0.0
H1044 H 0.57531 0.13417 0.83941 0.0
H1045 H 0.59801 0.16271 0.85917 0.0
H1046 H 0.59255 0.12712 0.86354 0.0
H1047 H 0.47308 0.14137 0.8874 0.0
H1048 H 0.50621 0.17385 0.87803 0.0
H1049 H 0.48403 0.14577 0.8578 0.0
H1050 H 0.59214 0.23838 0.83835 0.0
H1051 H 0.53775 0.17011 0.79045 0.0
H1052 H 0.59123 0.19688 0.88281 0.0
H1053 H 0.55909 0.19925 0.88886 0.0
H1054 H 0.59218 0.23041 0.87779 0.0
H1055 H 0.52406 0.11248 0.82366 0.0
H1056 H 0.50597 0.12203 0.80178 0.0
H1057 H 0.49345 0.11679 0.831 0.0
C1058 C 0.45913 0.54605 0.01948 0.0
C1059 C 0.44518 0.54399 0.0404 0.0
C1060 C 0.45106 0.55498 -0.00055 0.0
C1061 C 0.42789 0.56125 0.00013 0.0
C1062 C 0.41322 0.55862 0.02099 0.0
C1063 C 0.4223 0.55041 0.04091 0.0
C1064 C 0.46757 0.55799 0.97759 0.0
C1065 C 0.38804 0.56464 0.02229 0.0
C1066 C 0.42494 0.61014 0.95447 0.0
C1067 C 0.40414 0.58991 0.93878 0.0
C1068 C 0.43303 0.60109 0.97442 0.0
C1069 C 0.41939 0.5711 0.97908 0.0
C1070 C 0.39795 0.55058 0.9635 0.0
C1071 C 0.39087 0.56024 0.94336 0.0
C1072 C 0.45651 0.62361 0.99034 0.0
C1073 C 0.38239 0.51845 0.96817 0.0
H1074 H 0.47636 0.54055 0.01867 0.0
H1075 H 0.41166 0.54942 0.05696 0.0
H1076 H 0.45176 0.54332 0.96421 0.0
H1077 H 0.47773 0.58046 0.97104 0.0
H1078 H 0.4855 0.55288 0.98005 0.0
H1079 H 0.3778 0.55998 0.03951 0.0
H1080 H 0.39643 0.5877 0.01819 0.0
H1081 H 0.37041 0.5513 0.00942 0.0
H1082 H 0.4354 0.63311 0.95089 0.0
H1083 H 0.37459 0.54455 0.93134 0.0
H1084 H 0.47544 0.61987 0.99227 0.0
H1085 H 0.44709 0.62173 0.00761 0.0
H1086 H 0.46528 0.64605 0.98406 0.0
H1087 H 0.39899 0.51147 0.96915 0.0
H1088 H 0.36548 0.50539 0.95473 0.0
H1089 H 0.37114 0.51361 0.98497 0.0
C1090 C 0.89954 0.42334 0.21274 0.0
C1091 C 0.90703 0.4502 0.22223 0.0
C1092 C 0.88227 0.41314 0.19254 0.0
C1093 C 0.87206 0.43012 0.18177 0.0
C1094 C 0.8791 0.45701 0.19153 0.0
C1095 C 0.89662 0.46678 0.21159 0.0
C1096 C 0.87541 0.38448 0.18251 0.0
C1097 C 0.86832 0.47557 0.18067 0.0
C1098 C 0.85237 0.42148 0.11836 0.0
C1099 C 0.82106 0.4053 0.11872 0.0
C1100 C 0.86928 0.42891 0.13876 0.0
C1101 C 0.8545 0.42017 0.16001 0.0
C1102 C 0.82294 0.40317 0.16046 0.0
C1103 C 0.80658 0.39581 0.13979 0.0
C1104 C 0.90294 0.4468 0.1376 0.0
C1105 C 0.8064 0.39359 0.1828 0.0
H1106 H 0.90782 0.41062 0.22082 0.0
H1107 H 0.9021 0.4874 0.21907 0.0
H1108 H 0.8509 0.36977 0.18053 0.0
H1109 H 0.88512 0.38791 0.16518 0.0
H1110 H 0.88441 0.37359 0.19329 0.0
H1111 H 0.87501 0.4955 0.19081 0.0
H1112 H 0.87753 0.48203 0.16321 0.0
H1113 H 0.84361 0.46301 0.17889 0.0
H1114 H 0.86372 0.42873 0.10214 0.0
H1115 H 0.78238 0.38332 0.14021 0.0
H1116 H 0.91298 0.43606 0.14729 0.0
H1117 H 0.91113 0.46828 0.1457 0.0
H1118 H 0.91103 0.45024 0.1197 0.0
H1119 H 0.81473 0.38193 0.1933 0.0
H1120 H 0.78191 0.37922 0.18016 0.0
H1121 H 0.81057 0.41287 0.19279 0.0
loop_
_geom_bond_atom_site_label_1
_geom_bond_atom_site_label_2
_geom_bond_distance
_geom_bond_site_symmetry_2
_ccdc_geom_bond_type
C0 C1 1.384 . S
C0 C2 1.384 . S
C0 H28 0.931 . S
C1 C0 1.384 . S
C1 C4 1.382 . S
C2 C0 1.384 . S
C2 C3 1.381 . S
C2 H29 0.930 . S
C3 C2 1.381 . S
C3 C5 1.381 . S
C3 C6 1.487 . S
C4 C1 1.382 . S
C4 C5 1.387 . S
C4 H30 0.930 . S
C5 C3 1.381 . S
C5 C4 1.387 . S
C5 H31 0.931 . S
C6 C3 1.487 . S
C6 C13 1.399 . S
C6 N44 1.343 . S
C7 C8 1.384 . S
C7 C9 1.384 . S
C7 H32 0.931 . S
C8 C7 1.384 . S
C8 C11 1.382 . S
C9 C7 1.384 . S
C9 C10 1.381 . S
C9 H33 0.930 . S
C10 C9 1.381 . S
C10 C12 1.381 . S
C10 C13 1.487 . S
C11 C8 1.382 . S
C11 C12 1.387 . S
C11 H34 0.930 . S
C12 C10 1.381 . S
C12 C11 1.387 . S
C12 H35 0.931 . S
C13 C6 1.399 . S
C13 C10 1.487 . S
C13 N45 1.343 1_655 S
C14 C15 1.384 . S
C14 C16 1.384 . S
C14 H36 0.931 . S
C15 C14 1.384 . S
C15 C18 1.382 . S
C16 C14 1.384 . S
C16 C17 1.381 . S
C16 H37 0.930 . S
C17 C16 1.381 . S
C17 C19 1.381 . S
C17 C20 1.487 . S
C18 C15 1.382 . S
C18 C19 1.387 . S
C18 H38 0.930 . S
C19 C17 1.381 . S
C19 C18 1.387 . S
C19 H39 0.931 . S
C20 C17 1.487 . S
C20 C27 1.399 . S
C20 N45 1.343 . S
C21 C22 1.384 . S
C21 C23 1.384 . S
C21 H40 0.931 . S
C22 C21 1.384 . S
C22 C25 1.382 . S
C23 C21 1.384 . S
C23 C24 1.381 . S
C23 H41 0.930 . S
C24 C23 1.381 . S
C24 C26 1.381 . S
C24 C27 1.487 . S
C25 C22 1.382 . S
C25 C26 1.387 . S
C25 H42 0.930 . S
C26 C24 1.381 . S
C26 C25 1.387 . S
C26 H43 0.931 . S
C27 C20 1.399 . S
C27 C24 1.487 . S
C27 N44 1.343 1_455 S
H28 C0 0.931 . S
H29 C2 0.930 . S
H30 C4 0.930 . S
H31 C5 0.931 . S
H32 C7 0.931 . S
H33 C9 0.930 . S
H34 C11 0.930 . S
H35 C12 0.931 . S
H36 C14 0.931 . S
H37 C16 0.930 . S
H38 C18 0.930 . S
H39 C19 0.931 . S
H40 C21 0.931 . S
H41 C23 0.930 . S
H42 C25 0.930 . S
H43 C26 0.931 . S
N44 C6 1.343 . S
N44 C27 1.343 1_655 S
N45 C13 1.343 1_455 S
N45 C20 1.343 . S
C46 C47 1.384 . S
C46 C48 1.384 . S
C46 H74 0.931 . S
C47 C46 1.384 . S
C47 C50 1.382 . S
C48 C46 1.384 . S
C48 C49 1.381 . S
C48 H75 0.930 . S
C49 C48 1.381 . S
C49 C51 1.381 . S
C49 C52 1.487 . S
C50 C47 1.382 . S
C50 C51 1.387 . S
C50 H76 0.930 . S
C51 C49 1.381 . S
C51 C50 1.387 . S
C51 H77 0.931 . S
C52 C49 1.487 . S
C52 C59 1.399 . S
C52 N90 1.343 1_565 S
C53 C54 1.384 . S
C53 C55 1.384 . S
C53 H78 0.931 . S
C54 C53 1.384 . S
C54 C57 1.382 . S
C55 C53 1.384 . S
C55 C56 1.381 . S
C55 H79 0.930 . S
C56 C55 1.381 . S
C56 C58 1.381 . S
C56 C59 1.487 . S
C57 C54 1.382 . S
C57 C58 1.387 . S
C57 H80 0.930 . S
C58 C56 1.381 . S
C58 C57 1.387 . S
C58 H81 0.931 . S
C59 C52 1.399 . S
C59 C56 1.487 . S
C59 N91 1.343 1_565 S
C60 C61 1.384 . S
C60 C62 1.384 . S
C60 H82 0.931 . S
C61 C60 1.384 . S
C61 C64 1.382 . S
C62 C60 1.384 . S
C62 C63 1.381 . S
C62 H83 0.930 . S
C63 C62 1.381 . S
C63 C65 1.381 . S
C63 C66 1.487 . S
C64 C61 1.382 . S
C64 C65 1.387 . S
C64 H84 0.930 . S
C65 C63 1.381 . S
C65 C64 1.387 . S
C65 H85 0.931 . S
C66 C63 1.487 . S
C66 C73 1.399 . S
C66 N91 1.343 . S
C67 C68 1.384 . S
C67 C69 1.384 . S
C67 H86 0.931 . S
C68 C67 1.384 . S
C68 C71 1.382 . S
C69 C67 1.384 . S
C69 C70 1.381 . S
C69 H87 0.930 . S
C70 C69 1.381 . S
C70 C72 1.381 . S
C70 C73 1.487 . S
C71 C68 1.382 . S
C71 C72 1.387 . S
C71 H88 0.930 . S
C72 C70 1.381 . S
C72 C71 1.387 . S
C72 H89 0.931 . S
C73 C66 1.399 . S
C73 C70 1.487 . S
C73 N90 1.343 . S
H74 C46 0.931 . S
H75 C48 0.930 . S
H76 C50 0.930 . S
H77 C51 0.931 . S
H78 C53 0.931 . S
H79 C55 0.930 . S
H80 C57 0.930 . S
H81 C58 0.931 . S
H82 C60 0.931 . S
H83 C62 0.930 . S
H84 C64 0.930 . S
H85 C65 0.931 . S
H86 C67 0.931 . S
H87 C69 0.930 . S
H88 C71 0.930 . S
H89 C72 0.931 . S
N90 C52 1.343 1_545 S
N90 C73 1.343 . S
N91 C59 1.343 1_545 S
N91 C66 1.343 . S
C92 C93 1.384 . S
C92 C94 1.384 . S
C92 H120 0.931 . S
C93 C92 1.384 . S
C93 C96 1.382 . S
C94 C92 1.384 . S
C94 C95 1.381 . S
C94 H121 0.930 . S
C95 C94 1.381 . S
C95 C97 1.381 . S
C95 C98 1.487 . S
C96 C93 1.382 . S
C96 C97 1.387 . S
C96 H122 0.930 . S
C97 C95 1.381 . S
C97 C96 1.387 . S
C97 H123 0.931 . S
C98 C95 1.487 . S
C98 C105 1.399 . S
C98 N136 1.343 . S
C99 C100 1.384 . S
C99 C101 1.384 . S
C99 H124 0.931 . S
C100 C99 1.384 . S
C100 C103 1.382 . S
C101 C99 1.384 . S
C101 C102 1.381 . S
C101 H125 0.930 . S
C102 C101 1.381 . S
C102 C104 1.381 . S
C102 C105 1.487 . S
C103 C100 1.382 . S
C103 C104 1.387 . S
C103 H126 0.930 . S
C104 C102 1.381 . S
C104 C103 1.387 . S
C104 H127 0.931 . S
C105 C98 1.399 . S
C105 C102 1.487 . S
C105 N137 1.343 . S
C106 C107 1.384 . S
C106 C108 1.384 . S
C106 H128 0.931 . S
C107 C106 1.384 . S
C107 C110 1.382 . S
C108 C106 1.384 . S
C108 C109 1.381 . S
C108 H129 0.930 . S
C109 C108 1.381 . S
C109 C111 1.381 . S
C109 C112 1.487 . S
C110 C107 1.382 . S
C110 C111 1.387 . S
C110 H130 0.930 . S
C111 C109 1.381 . S
C111 C110 1.387 . S
C111 H131 0.931 . S
C112 C109 1.487 . S
C112 C119 1.399 . S
C112 N137 1.343 . S
C113 C114 1.384 . S
C113 C115 1.384 . S
C113 H132 0.931 . S
C114 C113 1.384 . S
C114 C117 1.382 . S
C115 C113 1.384 . S
C115 C116 1.381 . S
C115 H133 0.930 . S
C116 C115 1.381 . S
C116 C118 1.381 . S
C116 C119 1.487 . S
C117 C114 1.382 . S
C117 C118 1.387 . S
C117 H134 0.930 . S
C118 C116 1.381 . S
C118 C117 1.387 . S
C118 H135 0.931 . S
C119 C112 1.399 . S
C119 C116 1.487 . S
C119 N136 1.343 . S
H120 C92 0.931 . S
H121 C94 0.930 . S
H122 C96 0.930 . S
H123 C97 0.931 . S
H124 C99 0.931 . S
H125 C101 0.930 . S
H126 C103 0.930 . S
H127 C104 0.931 . S
H128 C106 0.931 . S
H129 C108 0.930 . S
H130 C110 0.930 . S
H131 C111 0.931 . S
H132 C113 0.931 . S
H133 C115 0.930 . S
H134 C117 0.930 . S
H135 C118 0.931 . S
N136 C98 1.343 . S
N136 C119 1.343 . S
N137 C105 1.343 . S
N137 C112 1.343 . S
C138 C139 1.384 . S
C138 C140 1.384 . S
C138 H166 0.931 . S
C139 C138 1.384 . S
C139 C142 1.382 . S
C140 C138 1.384 . S
C140 C141 1.381 . S
C140 H167 0.930 . S
C141 C140 1.381 . S
C141 C143 1.381 . S
C141 C144 1.487 . S
C142 C139 1.382 . S
C142 C143 1.387 . S
C142 H168 0.930 . S
C143 C141 1.381 . S
C143 C142 1.387 . S
C143 H169 0.931 . S
C144 C141 1.487 . S
C144 C151 1.399 . S
C144 N182 1.343 . S
C145 C146 1.384 . S
C145 C147 1.384 . S
C145 H170 0.931 . S
C146 C145 1.384 . S
C146 C149 1.382 . S
C147 C145 1.384 . S
C147 C148 1.381 . S
C147 H171 0.930 . S
C148 C147 1.381 . S
C148 C150 1.381 . S
C148 C151 1.487 . S
C149 C146 1.382 . S
C149 C150 1.387 . S
C149 H172 0.930 . S
C150 C148 1.381 . S
C150 C149 1.387 . S
C150 H173 0.931 . S
C151 C144 1.399 . S
C151 C148 1.487 . S
C151 N183 1.343 1_655 S
C152 C153 1.384 . S
C152 C154 1.384 . S
C152 H174 0.931 . S
C153 C152 1.384 . S
C153 C156 1.382 . S
C154 C152 1.384 . S
C154 C155 1.381 . S
C154 H175 0.930 . S
C155 C154 1.381 . S
C155 C157 1.381 . S
C155 C158 1.487 . S
C156 C153 1.382 . S
C156 C157 1.387 . S
C156 H176 0.930 . S
C157 C155 1.381 . S
C157 C156 1.387 . S
C157 H177 0.931 . S
C158 C155 1.487 . S
C158 C165 1.399 . S
C158 N183 1.343 . S
C159 C160 1.384 . S
C159 C161 1.384 . S
C159 H178 0.931 . S
C160 C159 1.384 . S
C160 C163 1.382 . S
C161 C159 1.384 . S
C161 C162 1.381 . S
C161 H179 0.930 . S
C162 C161 1.381 . S
C162 C164 1.381 . S
C162 C165 1.487 . S
C163 C160 1.382 . S
C163 C164 1.387 . S
C163 H180 0.930 . S
C164 C162 1.381 . S
C164 C163 1.387 . S
C164 H181 0.931 . S
C165 C158 1.399 . S
C165 C162 1.487 . S
C165 N182 1.343 1_455 S
H166 C138 0.931 . S
H167 C140 0.930 . S
H168 C142 0.930 . S
H169 C143 0.931 . S
H170 C145 0.931 . S
H171 C147 0.930 . S
H172 C149 0.930 . S
H173 C150 0.931 . S
H174 C152 0.931 . S
H175 C154 0.930 . S
H176 C156 0.930 . S
H177 C157 0.931 . S
H178 C159 0.931 . S
H179 C161 0.930 . S
H180 C163 0.930 . S
H181 C164 0.931 . S
N182 C144 1.343 . S
N182 C165 1.343 1_655 S
N183 C151 1.343 1_455 S
N183 C158 1.343 . S
C184 C185 1.384 . S
C184 C186 1.384 . S
C184 H212 0.931 . S
C185 C184 1.384 . S
C185 C188 1.382 . S
C186 C184 1.384 . S
C186 C187 1.381 . S
C186 H213 0.944 . S
C187 C186 1.381 . S
C187 C189 1.381 . S
C187 C190 1.487 . S
C188 C185 1.382 . S
C188 C189 1.387 . S
C188 H214 0.930 . S
C189 C187 1.381 . S
C189 C188 1.387 . S
C189 H215 0.931 . S
C190 C187 1.487 . S
C190 C197 1.399 1_556 S
C190 N228 1.327 1_565 S
C191 C192 1.384 . S
C191 C193 1.384 . S
C191 H216 0.931 . S
C192 C191 1.384 . S
C192 C195 1.382 . S
C193 C191 1.384 . S
C193 C194 1.381 . S
C193 H217 0.930 . S
C194 C193 1.381 . S
C194 C196 1.381 . S
C194 C197 1.487 . S
C195 C192 1.382 . S
C195 C196 1.387 . S
C195 H218 0.930 . S
C196 C194 1.381 . S
C196 C195 1.387 . S
C196 H219 0.931 . S
C197 C190 1.399 1_554 S
C197 C194 1.487 . S
C197 N229 1.343 1_565 S
C198 C199 1.384 . S
C198 C200 1.384 1_554 S
C198 H220 0.931 1_554 S
C199 C198 1.384 . S
C199 C202 1.382 . S
C200 C198 1.384 1_556 S
C200 C201 1.381 1_556 S
C200 H221 0.930 . S
C201 C200 1.381 1_554 S
C201 C203 1.381 . S
C201 C204 1.487 1_554 S
C202 C199 1.382 . S
C202 C203 1.387 . S
C202 H222 0.930 . S
C203 C201 1.381 . S
C203 C202 1.387 . S
C203 H223 0.931 . S
C204 C201 1.487 1_556 S
C204 C211 1.399 . S
C204 N229 1.343 1_556 S
C205 C206 1.384 . S
C205 C207 1.384 . S
C205 H224 0.931 . S
C206 C205 1.384 . S
C206 C209 1.382 . S
C207 C205 1.384 . S
C207 C208 1.381 . S
C207 H225 0.930 . S
C208 C207 1.381 . S
C208 C210 1.381 . S
C208 C211 1.487 . S
C209 C206 1.382 . S
C209 C210 1.387 . S
C209 H226 0.930 . S
C210 C208 1.381 . S
C210 C209 1.387 . S
C210 H227 0.931 . S
C211 C204 1.399 . S
C211 C208 1.487 . S
C211 N228 1.365 . S
H212 C184 0.931 . S
H213 C186 0.944 . S
H214 C188 0.930 . S
H215 C189 0.931 . S
H216 C191 0.931 . S
H217 C193 0.930 . S
H218 C195 0.930 . S
H219 C196 0.931 . S
H220 C198 0.931 1_556 S
H221 C200 0.930 . S
H222 C202 0.930 . S
H223 C203 0.931 . S
H224 C205 0.931 . S
H225 C207 0.930 . S
H226 C209 0.930 . S
H227 C210 0.931 . S
N228 C190 1.327 1_545 S
N228 C211 1.365 . S
N229 C197 1.343 1_545 S
N229 C204 1.343 1_554 S
C230 C231 1.384 . S
C230 C232 1.384 . S
C230 H258 0.931 . S
C231 C230 1.384 . S
C231 C234 1.382 . S
C232 C230 1.384 . S
C232 C233 1.381 . S
C232 H259 0.930 . S
C233 C232 1.381 . S
C233 C235 1.381 . S
C233 C236 1.487 . S
C234 C231 1.382 . S
C234 C235 1.387 . S
C234 H260 0.930 . S
C235 C233 1.381 . S
C235 C234 1.387 . S
C235 H261 0.931 . S
C236 C233 1.487 . S
C236 C243 1.399 . S
C236 N274 1.343 . S
C237 C238 1.384 . S
C237 C239 1.384 . S
C237 H262 0.931 . S
C238 C237 1.384 . S
C238 C241 1.382 . S
C239 C237 1.384 . S
C239 C240 1.381 . S
C239 H263 0.930 . S
C240 C239 1.381 . S
C240 C242 1.381 . S
C240 C243 1.487 . S
C241 C238 1.382 . S
C241 C242 1.387 . S
C241 H264 0.930 . S
C242 C240 1.381 . S
C242 C241 1.387 . S
C242 H265 0.931 . S
C243 C236 1.399 . S
C243 C240 1.487 . S
C243 N275 1.343 . S
C244 C245 1.384 . S
C244 C246 1.384 . S
C244 H266 0.931 . S
C245 C244 1.384 . S
C245 C248 1.382 . S
C246 C244 1.384 . S
C246 C247 1.381 . S
C246 H267 0.930 . S
C247 C246 1.381 . S
C247 C249 1.381 . S
C247 C250 1.487 . S
C248 C245 1.382 . S
C248 C249 1.387 . S
C248 H268 0.930 . S
C249 C247 1.381 . S
C249 C248 1.387 . S
C249 H269 0.931 . S
C250 C247 1.487 . S
C250 C257 1.399 . S
C250 N275 1.343 . S
C251 C252 1.384 . S
C251 C253 1.384 . S
C251 H270 0.931 . S
C252 C251 1.384 . S
C252 C255 1.382 . S
C253 C251 1.384 . S
C253 C254 1.381 . S
C253 H271 0.930 . S
C254 C253 1.381 . S
C254 C256 1.381 . S
C254 C257 1.487 . S
C255 C252 1.382 . S
C255 C256 1.387 . S
C255 H272 0.930 . S
C256 C254 1.381 . S
C256 C255 1.387 . S
C256 H273 0.931 . S
C257 C250 1.399 . S
C257 C254 1.487 . S
C257 N274 1.343 . S
H258 C230 0.931 . S
H259 C232 0.930 . S
H260 C234 0.930 . S
H261 C235 0.931 . S
H262 C237 0.931 . S
H263 C239 0.930 . S
H264 C241 0.930 . S
H265 C242 0.931 . S
H266 C244 0.931 . S
H267 C246 0.930 . S
H268 C248 0.930 . S
H269 C249 0.931 . S
H270 C251 0.931 . S
H271 C253 0.930 . S
H272 C255 0.930 . S
H273 C256 0.931 . S
N274 C236 1.343 . S
N274 C257 1.343 . S
N275 C243 1.343 . S
N275 C250 1.343 . S
C276 O277 1.160 . S
C276 O283 1.185 . S
O277 C276 1.160 . S
O278 Zn279 1.899 . S
O278 C286 1.284 . S
Zn279 O278 1.899 . S
Zn279 O280 2.032 . S
Zn279 O283 2.086 . S
Zn279 O288 1.977 . S
O280 Zn279 2.032 . S
O280 C284 1.278 . S
C281 O282 1.203 . S
C281 O288 1.267 . S
O282 C281 1.203 . S
O283 C276 1.185 . S
O283 Zn279 2.086 . S
C284 O280 1.278 . S
C284 O285 1.211 . S
O285 C284 1.211 . S
C286 O278 1.284 . S
C286 O287 1.273 . S
O287 C286 1.273 . S
O288 Zn279 1.977 . S
O288 C281 1.267 . S
C289 O290 1.160 . S
C289 O296 1.185 . S
O290 C289 1.160 . S
O291 Zn292 1.899 . S
O291 C299 1.284 . S
Zn292 O291 1.899 . S
Zn292 O293 2.032 . S
Zn292 O296 2.086 . S
Zn292 O301 1.977 . S
O293 Zn292 2.032 . S
O293 C297 1.278 . S
C294 O295 1.203 . S
C294 O301 1.267 . S
O295 C294 1.203 . S
O296 C289 1.185 . S
O296 Zn292 2.086 . S
C297 O293 1.278 . S
C297 O298 1.211 . S
O298 C297 1.211 . S
C299 O291 1.284 . S
C299 O300 1.273 . S
O300 C299 1.273 . S
O301 Zn292 1.977 . S
O301 C294 1.267 . S
C302 O303 1.160 . S
C302 O309 1.185 . S
O303 C302 1.160 . S
O304 Zn305 1.899 . S
O304 C312 1.284 . S
Zn305 O304 1.899 . S
Zn305 O306 2.032 . S
Zn305 O309 2.086 . S
Zn305 O314 1.977 . S
O306 Zn305 2.032 . S
O306 C310 1.278 . S
C307 O308 1.203 . S
C307 O314 1.267 . S
O308 C307 1.203 . S
O309 C302 1.185 . S
O309 Zn305 2.086 . S
C310 O306 1.278 . S
C310 O311 1.211 . S
O311 C310 1.211 . S
C312 O304 1.284 . S
C312 O313 1.273 . S
O313 C312 1.273 . S
O314 Zn305 1.977 . S
O314 C307 1.267 . S
C315 O316 1.160 . S
C315 O322 1.185 . S
O316 C315 1.160 . S
O317 Zn318 1.899 . S
O317 C325 1.284 . S
Zn318 O317 1.899 . S
Zn318 O319 2.032 . S
Zn318 O322 2.086 . S
Zn318 O327 1.977 . S
O319 Zn318 2.032 . S
O319 C323 1.278 . S
C320 O321 1.203 . S
C320 O327 1.267 . S
O321 C320 1.203 . S
O322 C315 1.185 . S
O322 Zn318 2.086 . S
C323 O319 1.278 . S
C323 O324 1.211 . S
O324 C323 1.211 . S
C325 O317 1.284 . S
C325 O326 1.273 . S
O326 C325 1.273 . S
O327 Zn318 1.977 . S
O327 C320 1.267 . S
C328 O329 1.160 . S
C328 O335 1.185 . S
O329 C328 1.160 . S
O330 Zn331 1.899 . S
O330 C338 1.284 . S
Zn331 O330 1.899 . S
Zn331 O332 2.032 . S
Zn331 O335 2.086 . S
Zn331 O340 1.977 . S
O332 Zn331 2.032 . S
O332 C336 1.278 . S
C333 O334 1.203 . S
C333 O340 1.267 . S
O334 C333 1.203 . S
O335 C328 1.185 . S
O335 Zn331 2.086 . S
C336 O332 1.278 . S
C336 O337 1.211 . S
O337 C336 1.211 . S
C338 O330 1.284 . S
C338 O339 1.273 . S
O339 C338 1.273 . S
O340 Zn331 1.977 . S
O340 C333 1.267 . S
C341 O342 1.160 . S
C341 O348 1.185 . S
O342 C341 1.160 . S
O343 Zn344 1.899 . S
O343 C351 1.284 . S
Zn344 O343 1.899 . S
Zn344 O345 2.032 . S
Zn344 O348 2.086 . S
Zn344 O353 1.977 . S
O345 Zn344 2.032 . S
O345 C349 1.278 . S
C346 O347 1.203 . S
C346 O353 1.267 . S
O347 C346 1.203 . S
O348 C341 1.185 . S
O348 Zn344 2.086 . S
C349 O345 1.278 . S
C349 O350 1.211 . S
O350 C349 1.211 . S
C351 O343 1.284 . S
C351 O352 1.273 . S
O352 C351 1.273 . S
O353 Zn344 1.977 . S
O353 C346 1.267 . S
C354 C355 1.391 . S
C354 C356 1.394 . S
C354 H370 0.931 . S
C355 C354 1.391 . S
C355 C359 1.376 . S
C356 C354 1.394 . S
C356 C357 1.369 . S
C356 C360 1.531 . S
C357 C356 1.369 . S
C357 C358 1.410 . S
C357 C365 1.503 . S
C358 C357 1.410 . S
C358 C359 1.392 . S
C358 C361 1.511 . S
C359 C355 1.376 . S
C359 C358 1.392 . S
C359 H371 0.929 . S
C360 C356 1.531 . S
C360 H372 0.960 . S
C360 H373 0.962 . S
C360 H374 0.960 . S
C361 C358 1.511 . S
C361 H375 0.961 . S
C361 H376 0.961 . S
C361 H377 0.961 . S
C362 C363 1.370 . S
C362 C364 1.363 . S
C362 H378 0.931 . S
C363 C362 1.370 . S
C363 C367 1.408 . S
C364 C362 1.363 . S
C364 C365 1.370 . S
C364 C368 1.524 . S
C365 C357 1.503 . S
C365 C364 1.370 . S
C365 C366 1.403 . S
C366 C365 1.403 . S
C366 C367 1.404 . S
C366 C369 1.539 . S
C367 C363 1.408 . S
C367 C366 1.404 . S
C367 H379 0.930 . S
C368 C364 1.524 . S
C368 H380 0.956 . S
C368 H381 0.961 . S
C368 H382 0.961 . S
C369 C366 1.539 . S
C369 H383 0.958 . S
C369 H384 0.961 . S
C369 H385 0.960 . S
H370 C354 0.931 . S
H371 C359 0.929 . S
H372 C360 0.960 . S
H373 C360 0.962 . S
H374 C360 0.960 . S
H375 C361 0.961 . S
H376 C361 0.961 . S
H377 C361 0.961 . S
H378 C362 0.931 . S
H379 C367 0.930 . S
H380 C368 0.956 . S
H381 C368 0.961 . S
H382 C368 0.961 . S
H383 C369 0.958 . S
H384 C369 0.961 . S
H385 C369 0.960 . S
C386 C387 1.391 . S
C386 C388 1.394 . S
C386 H402 0.931 . S
C387 C386 1.391 . S
C387 C391 1.376 . S
C388 C386 1.394 . S
C388 C389 1.369 . S
C388 C392 1.531 . S
C389 C388 1.369 . S
C389 C390 1.410 . S
C389 C397 1.503 . S
C390 C389 1.410 . S
C390 C391 1.392 . S
C390 C393 1.511 . S
C391 C387 1.376 . S
C391 C390 1.392 . S
C391 H403 0.929 . S
C392 C388 1.531 . S
C392 H404 0.960 . S
C392 H405 0.962 . S
C392 H406 0.960 . S
C393 C390 1.511 . S
C393 H407 0.961 . S
C393 H408 0.961 . S
C393 H409 0.961 . S
C394 C395 1.370 . S
C394 C396 1.363 . S
C394 H410 0.931 . S
C395 C394 1.370 . S
C395 C399 1.408 . S
C396 C394 1.363 . S
C396 C397 1.370 . S
C396 C400 1.524 . S
C397 C389 1.503 . S
C397 C396 1.370 . S
C397 C398 1.403 . S
C398 C397 1.403 . S
C398 C399 1.404 . S
C398 C401 1.539 . S
C399 C395 1.408 . S
C399 C398 1.404 . S
C399 H411 0.930 . S
C400 C396 1.524 . S
C400 H412 0.956 . S
C400 H413 0.961 . S
C400 H414 0.961 . S
C401 C398 1.539 . S
C401 H415 0.958 . S
C401 H416 0.961 . S
C401 H417 0.960 . S
H402 C386 0.931 . S
H403 C391 0.929 . S
H404 C392 0.960 . S
H405 C392 0.962 . S
H406 C392 0.960 . S
H407 C393 0.961 . S
H408 C393 0.961 . S
H409 C393 0.961 . S
H410 C394 0.931 . S
H411 C399 0.930 . S
H412 C400 0.956 . S
H413 C400 0.961 . S
H414 C400 0.961 . S
H415 C401 0.958 . S
H416 C401 0.961 . S
H417 C401 0.960 . S
C418 C419 1.391 . S
C418 C420 1.394 . S
C418 H434 0.931 . S
C419 C418 1.391 . S
C419 C423 1.376 . S
C420 C418 1.394 . S
C420 C421 1.369 . S
C420 C424 1.531 . S
C421 C420 1.369 . S
C421 C422 1.410 . S
C421 C429 1.503 . S
C422 C421 1.410 . S
C422 C423 1.392 . S
C422 C425 1.511 . S
C423 C419 1.376 . S
C423 C422 1.392 . S
C423 H435 0.929 . S
C424 C420 1.531 . S
C424 H436 0.960 . S
C424 H437 0.962 . S
C424 H438 0.960 . S
C425 C422 1.511 . S
C425 H439 0.961 . S
C425 H440 0.961 . S
C425 H441 0.961 . S
C426 C427 1.370 . S
C426 C428 1.363 . S
C426 H442 0.931 . S
C427 C426 1.370 . S
C427 C431 1.408 . S
C428 C426 1.363 . S
C428 C429 1.370 . S
C428 C432 1.524 . S
C429 C421 1.503 . S
C429 C428 1.370 . S
C429 C430 1.403 . S
C430 C429 1.403 . S
C430 C431 1.404 . S
C430 C433 1.539 . S
C431 C427 1.408 . S
C431 C430 1.404 . S
C431 H443 0.930 . S
C432 C428 1.524 . S
C432 H444 0.956 . S
C432 H445 0.961 . S
C432 H446 0.961 . S
C433 C430 1.539 . S
C433 H447 0.958 . S
C433 H448 0.961 . S
C433 H449 0.960 . S
H434 C418 0.931 . S
H435 C423 0.929 . S
H436 C424 0.960 . S
H437 C424 0.962 . S
H438 C424 0.960 . S
H439 C425 0.961 . S
H440 C425 0.961 . S
H441 C425 0.961 . S
H442 C426 0.931 . S
H443 C431 0.930 . S
H444 C432 0.956 . S
H445 C432 0.961 . S
H446 C432 0.961 . S
H447 C433 0.958 . S
H448 C433 0.961 . S
H449 C433 0.960 . S
C450 C451 1.391 . S
C450 C452 1.394 . S
C450 H466 0.931 . S
C451 C450 1.391 . S
C451 C455 1.376 . S
C452 C450 1.394 . S
C452 C453 1.369 . S
C452 C456 1.531 . S
C453 C452 1.369 . S
C453 C454 1.410 . S
C453 C461 1.503 . S
C454 C453 1.410 . S
C454 C455 1.392 . S
C454 C457 1.511 . S
C455 C451 1.376 . S
C455 C454 1.392 . S
C455 H467 0.929 . S
C456 C452 1.531 . S
C456 H468 0.960 . S
C456 H469 0.962 . S
C456 H470 0.960 . S
C457 C454 1.511 . S
C457 H471 0.961 . S
C457 H472 0.961 . S
C457 H473 0.961 . S
C458 C459 1.370 . S
C458 C460 1.363 . S
C458 H474 0.931 . S
C459 C458 1.370 . S
C459 C463 1.408 . S
C460 C458 1.363 . S
C460 C461 1.370 . S
C460 C464 1.524 . S
C461 C453 1.503 . S
C461 C460 1.370 . S
C461 C462 1.403 . S
C462 C461 1.403 . S
C462 C463 1.404 . S
C462 C465 1.539 . S
C463 C459 1.408 . S
C463 C462 1.404 . S
C463 H475 0.930 . S
C464 C460 1.524 . S
C464 H476 0.956 . S
C464 H477 0.961 . S
C464 H478 0.961 . S
C465 C462 1.539 . S
C465 H479 0.958 . S
C465 H480 0.961 . S
C465 H481 0.960 . S
H466 C450 0.931 . S
H467 C455 0.929 . S
H468 C456 0.960 . S
H469 C456 0.962 . S
H470 C456 0.960 . S
H471 C457 0.961 . S
H472 C457 0.961 . S
H473 C457 0.961 . S
H474 C458 0.931 . S
H475 C463 0.930 . S
H476 C464 0.956 . S
H477 C464 0.961 . S
H478 C464 0.961 . S
H479 C465 0.958 . S
H480 C465 0.961 . S
H481 C465 0.960 . S
C482 C483 1.391 . S
C482 C484 1.394 . S
C482 H498 0.931 . S
C483 C482 1.391 . S
C483 C487 1.376 . S
C484 C482 1.394 . S
C484 C485 1.369 . S
C484 C488 1.531 . S
C485 C484 1.369 . S
C485 C486 1.410 . S
C485 C493 1.503 . S
C486 C485 1.410 . S
C486 C487 1.392 . S
C486 C489 1.511 . S
C487 C483 1.376 . S
C487 C486 1.392 . S
C487 H499 0.929 . S
C488 C484 1.531 . S
C488 H500 0.960 . S
C488 H501 0.962 . S
C488 H502 0.960 . S
C489 C486 1.511 . S
C489 H503 0.961 . S
C489 H504 0.961 . S
C489 H505 0.961 . S
C490 C491 1.370 . S
C490 C492 1.363 . S
C490 H506 0.931 . S
C491 C490 1.370 . S
C491 C495 1.408 . S
C492 C490 1.363 . S
C492 C493 1.370 . S
C492 C496 1.524 . S
C493 C485 1.503 . S
C493 C492 1.370 . S
C493 C494 1.403 . S
C494 C493 1.403 . S
C494 C495 1.404 . S
C494 C497 1.539 . S
C495 C491 1.408 . S
C495 C494 1.404 . S
C495 H507 0.930 . S
C496 C492 1.524 . S
C496 H508 0.956 . S
C496 H509 0.961 . S
C496 H510 0.961 . S
C497 C494 1.539 . S
C497 H511 0.958 . S
C497 H512 0.961 . S
C497 H513 0.960 . S
H498 C482 0.931 . S
H499 C487 0.929 . S
H500 C488 0.960 . S
H501 C488 0.962 . S
H502 C488 0.960 . S
H503 C489 0.961 . S
H504 C489 0.961 . S
H505 C489 0.961 . S
H506 C490 0.931 . S
H507 C495 0.930 . S
H508 C496 0.956 . S
H509 C496 0.961 . S
H510 C496 0.961 . S
H511 C497 0.958 . S
H512 C497 0.961 . S
H513 C497 0.960 . S
C514 C515 1.391 . S
C514 C516 1.394 . S
C514 H530 0.931 . S
C515 C514 1.391 . S
C515 C519 1.376 . S
C516 C514 1.394 . S
C516 C517 1.369 . S
C516 C520 1.531 . S
C517 C516 1.369 . S
C517 C518 1.410 . S
C517 C525 1.503 . S
C518 C517 1.410 . S
C518 C519 1.392 . S
C518 C521 1.511 . S
C519 C515 1.376 . S
C519 C518 1.392 . S
C519 H531 0.929 . S
C520 C516 1.531 . S
C520 H532 0.960 . S
C520 H533 0.962 . S
C520 H534 0.960 . S
C521 C518 1.511 . S
C521 H535 0.961 . S
C521 H536 0.961 . S
C521 H537 0.961 . S
C522 C523 1.370 . S
C522 C524 1.363 . S
C522 H538 0.931 . S
C523 C522 1.370 . S
C523 C527 1.408 . S
C524 C522 1.363 . S
C524 C525 1.370 . S
C524 C528 1.524 . S
C525 C517 1.503 . S
C525 C524 1.370 . S
C525 C526 1.403 . S
C526 C525 1.403 . S
C526 C527 1.404 . S
C526 C529 1.539 . S
C527 C523 1.408 . S
C527 C526 1.404 . S
C527 H539 0.930 . S
C528 C524 1.524 . S
C528 H540 0.956 . S
C528 H541 0.961 . S
C528 H542 0.961 . S
C529 C526 1.539 . S
C529 H543 0.958 . S
C529 H544 0.961 . S
C529 H545 0.960 . S
H530 C514 0.931 . S
H531 C519 0.929 . S
H532 C520 0.960 . S
H533 C520 0.962 . S
H534 C520 0.960 . S
H535 C521 0.961 . S
H536 C521 0.961 . S
H537 C521 0.961 . S
H538 C522 0.931 . S
H539 C527 0.930 . S
H540 C528 0.956 . S
H541 C528 0.961 . S
H542 C528 0.961 . S
H543 C529 0.958 . S
H544 C529 0.961 . S
H545 C529 0.960 . S
C546 C547 1.391 . S
C546 C548 1.394 . S
C546 H562 0.931 . S
C547 C546 1.391 . S
C547 C551 1.376 . S
C548 C546 1.394 . S
C548 C549 1.369 . S
C548 C552 1.531 . S
C549 C548 1.369 . S
C549 C550 1.410 . S
C549 C557 1.503 . S
C550 C549 1.410 . S
C550 C551 1.392 . S
C550 C553 1.511 . S
C551 C547 1.376 . S
C551 C550 1.392 . S
C551 H563 0.929 . S
C552 C548 1.531 . S
C552 H564 0.960 . S
C552 H565 0.962 . S
C552 H566 0.960 . S
C553 C550 1.511 . S
C553 H567 0.961 . S
C553 H568 0.961 . S
C553 H569 0.961 . S
C554 C555 1.370 . S
C554 C556 1.363 . S
C554 H570 0.931 . S
C555 C554 1.370 . S
C555 C559 1.408 . S
C556 C554 1.363 . S
C556 C557 1.370 . S
C556 C560 1.524 . S
C557 C549 1.503 . S
C557 C556 1.370 . S
C557 C558 1.403 . S
C558 C557 1.403 . S
C558 C559 1.404 . S
C558 C561 1.539 . S
C559 C555 1.408 . S
C559 C558 1.404 . S
C559 H571 0.930 . S
C560 C556 1.524 . S
C560 H572 0.956 . S
C560 H573 0.961 . S
C560 H574 0.961 . S
C561 C558 1.539 . S
C561 H575 0.958 . S
C561 H576 0.961 . S
C561 H577 0.960 . S
H562 C546 0.931 . S
H563 C551 0.929 . S
H564 C552 0.960 . S
H565 C552 0.962 . S
H566 C552 0.960 . S
H567 C553 0.961 . S
H568 C553 0.961 . S
H569 C553 0.961 . S
H570 C554 0.931 . S
H571 C559 0.930 . S
H572 C560 0.956 . S
H573 C560 0.961 . S
H574 C560 0.961 . S
H575 C561 0.958 . S
H576 C561 0.961 . S
H577 C561 0.960 . S
C578 C579 1.391 . S
C578 C580 1.394 . S
C578 H594 0.931 . S
C579 C578 1.391 . S
C579 C583 1.376 . S
C580 C578 1.394 . S
C580 C581 1.369 . S
C580 C584 1.531 . S
C581 C580 1.369 . S
C581 C582 1.410 . S
C581 C589 1.503 . S
C582 C581 1.410 . S
C582 C583 1.392 . S
C582 C585 1.511 . S
C583 C579 1.376 . S
C583 C582 1.392 . S
C583 H595 0.929 . S
C584 C580 1.531 . S
C584 H596 0.960 . S
C584 H597 0.962 . S
C584 H598 0.960 . S
C585 C582 1.511 . S
C585 H599 0.961 . S
C585 H600 0.961 . S
C585 H601 0.961 . S
C586 C587 1.370 . S
C586 C588 1.363 . S
C586 H602 0.931 . S
C587 C586 1.370 . S
C587 C591 1.408 . S
C588 C586 1.363 . S
C588 C589 1.370 . S
C588 C592 1.524 . S
C589 C581 1.503 . S
C589 C588 1.370 . S
C589 C590 1.403 . S
C590 C589 1.403 . S
C590 C591 1.404 . S
C590 C593 1.539 . S
C591 C587 1.408 . S
C591 C590 1.404 . S
C591 H603 0.930 . S
C592 C588 1.524 . S
C592 H604 0.956 . S
C592 H605 0.961 . S
C592 H606 0.961 . S
C593 C590 1.539 . S
C593 H607 0.958 . S
C593 H608 0.961 . S
C593 H609 0.960 . S
H594 C578 0.931 . S
H595 C583 0.929 . S
H596 C584 0.960 . S
H597 C584 0.962 . S
H598 C584 0.960 . S
H599 C585 0.961 . S
H600 C585 0.961 . S
H601 C585 0.961 . S
H602 C586 0.931 . S
H603 C591 0.930 . S
H604 C592 0.956 . S
H605 C592 0.961 . S
H606 C592 0.961 . S
H607 C593 0.958 . S
H608 C593 0.961 . S
H609 C593 0.960 . S
C610 C611 1.391 . S
C610 C612 1.394 . S
C610 H626 0.931 . S
C611 C610 1.391 . S
C611 C615 1.376 . S
C612 C610 1.394 . S
C612 C613 1.369 . S
C612 C616 1.531 . S
C613 C612 1.369 . S
C613 C614 1.410 . S
C613 C621 1.503 . S
C614 C613 1.410 . S
C614 C615 1.392 . S
C614 C617 1.511 . S
C615 C611 1.376 . S
C615 C614 1.392 . S
C615 H627 0.929 . S
C616 C612 1.531 . S
C616 H628 0.960 . S
C616 H629 0.962 . S
C616 H630 0.960 . S
C617 C614 1.511 . S
C617 H631 0.961 . S
C617 H632 0.961 . S
C617 H633 0.961 . S
C618 C619 1.370 . S
C618 C620 1.363 . S
C618 H634 0.931 . S
C619 C618 1.370 . S
C619 C623 1.408 . S
C620 C618 1.363 . S
C620 C621 1.370 . S
C620 C624 1.524 . S
C621 C613 1.503 . S
C621 C620 1.370 . S
C621 C622 1.403 . S
C622 C621 1.403 . S
C622 C623 1.404 . S
C622 C625 1.539 . S
C623 C619 1.408 . S
C623 C622 1.404 . S
C623 H635 0.930 . S
C624 C620 1.524 . S
C624 H636 0.956 . S
C624 H637 0.961 . S
C624 H638 0.961 . S
C625 C622 1.539 . S
C625 H639 0.958 . S
C625 H640 0.961 . S
C625 H641 0.960 . S
H626 C610 0.931 . S
H627 C615 0.929 . S
H628 C616 0.960 . S
H629 C616 0.962 . S
H630 C616 0.960 . S
H631 C617 0.961 . S
H632 C617 0.961 . S
H633 C617 0.961 . S
H634 C618 0.931 . S
H635 C623 0.930 . S
H636 C624 0.956 . S
H637 C624 0.961 . S
H638 C624 0.961 . S
H639 C625 0.958 . S
H640 C625 0.961 . S
H641 C625 0.960 . S
C642 C643 1.391 . S
C642 C644 1.394 . S
C642 H658 0.931 . S
C643 C642 1.391 . S
C643 C647 1.376 . S
C644 C642 1.394 . S
C644 C645 1.369 . S
C644 C648 1.531 . S
C645 C644 1.369 . S
C645 C646 1.410 . S
C645 C653 1.503 . S
C646 C645 1.410 . S
C646 C647 1.392 . S
C646 C649 1.511 . S
C647 C643 1.376 . S
C647 C646 1.392 . S
C647 H659 0.929 1_554 S
C648 C644 1.531 . S
C648 H660 0.960 . S
C648 H661 0.962 . S
C648 H662 0.960 . S
C649 C646 1.511 . S
C649 H663 0.961 1_554 S
C649 H664 0.961 . S
C649 H665 0.959 1_554 S
C650 C651 1.370 . S
C650 C652 1.363 . S
C650 H666 0.931 . S
C651 C650 1.370 . S
C651 C655 1.408 . S
C652 C650 1.363 . S
C652 C653 1.370 . S
C652 C656 1.524 . S
C653 C645 1.503 . S
C653 C652 1.370 . S
C653 C654 1.403 . S
C654 C653 1.403 . S
C654 C655 1.404 . S
C654 C657 1.539 . S
C655 C651 1.408 . S
C655 C654 1.404 . S
C655 H667 0.930 . S
C656 C652 1.524 . S
C656 H668 0.956 . S
C656 H669 0.961 . S
C656 H670 0.961 . S
C657 C654 1.539 . S
C657 H671 0.958 . S
C657 H672 0.961 . S
C657 H673 0.960 . S
H658 C642 0.931 . S
H659 C647 0.929 1_556 S
H660 C648 0.960 . S
H661 C648 0.962 . S
H662 C648 0.960 . S
H663 C649 0.961 1_556 S
H664 C649 0.961 . S
H665 C649 0.959 1_556 S
H666 C650 0.931 . S
H667 C655 0.930 . S
H668 C656 0.956 . S
H669 C656 0.961 . S
H670 C656 0.961 . S
H671 C657 0.958 . S
H672 C657 0.961 . S
H673 C657 0.960 . S
C674 C675 1.391 . S
C674 C676 1.394 . S
C674 H690 0.931 . S
C675 C674 1.391 . S
C675 C679 1.376 . S
C676 C674 1.394 . S
C676 C677 1.369 . S
C676 C680 1.531 . S
C677 C676 1.369 . S
C677 C678 1.410 . S
C677 C685 1.503 . S
C678 C677 1.410 . S
C678 C679 1.392 . S
C678 C681 1.511 . S
C679 C675 1.376 . S
C679 C678 1.392 . S
C679 H691 0.929 . S
C680 C676 1.531 . S
C680 H692 0.960 . S
C680 H693 0.962 . S
C680 H694 0.960 . S
C681 C678 1.511 . S
C681 H695 0.961 . S
C681 H696 0.961 . S
C681 H697 0.961 . S
C682 C683 1.370 . S
C682 C684 1.363 . S
C682 H698 0.931 . S
C683 C682 1.370 . S
C683 C687 1.408 . S
C684 C682 1.363 . S
C684 C685 1.370 . S
C684 C688 1.524 . S
C685 C677 1.503 . S
C685 C684 1.370 . S
C685 C686 1.403 . S
C686 C685 1.403 . S
C686 C687 1.404 . S
C686 C689 1.539 . S
C687 C683 1.408 . S
C687 C686 1.404 . S
C687 H699 0.930 . S
C688 C684 1.524 . S
C688 H700 0.956 . S
C688 H701 0.961 . S
C688 H702 0.961 . S
C689 C686 1.539 . S
C689 H703 0.958 . S
C689 H704 0.961 . S
C689 H705 0.960 . S
H690 C674 0.931 . S
H691 C679 0.929 . S
H692 C680 0.960 . S
H693 C680 0.962 . S
H694 C680 0.960 . S
H695 C681 0.961 . S
H696 C681 0.961 . S
H697 C681 0.961 . S
H698 C682 0.931 . S
H699 C687 0.930 . S
H700 C688 0.956 . S
H701 C688 0.961 . S
H702 C688 0.961 . S
H703 C689 0.958 . S
H704 C689 0.961 . S
H705 C689 0.960 . S
C706 C707 1.391 . S
C706 C708 1.394 . S
C706 H722 0.931 . S
C707 C706 1.391 . S
C707 C711 1.376 . S
C708 C706 1.394 . S
C708 C709 1.369 . S
C708 C712 1.531 . S
C709 C708 1.369 . S
C709 C710 1.410 . S
C709 C717 1.503 . S
C710 C709 1.410 . S
C710 C711 1.392 . S
C710 C713 1.511 . S
C711 C707 1.376 . S
C711 C710 1.392 . S
C711 H723 0.929 . S
C712 C708 1.531 . S
C712 H724 0.960 . S
C712 H725 0.962 . S
C712 H726 0.960 . S
C713 C710 1.511 . S
C713 H727 0.961 . S
C713 H728 0.961 . S
C713 H729 0.961 . S
C714 C715 1.370 . S
C714 C716 1.363 . S
C714 H730 0.931 . S
C715 C714 1.370 . S
C715 C719 1.408 . S
C716 C714 1.363 . S
C716 C717 1.370 . S
C716 C720 1.524 . S
C717 C709 1.503 . S
C717 C716 1.370 . S
C717 C718 1.403 . S
C718 C717 1.403 . S
C718 C719 1.404 . S
C718 C721 1.539 . S
C719 C715 1.408 . S
C719 C718 1.404 . S
C719 H731 0.930 . S
C720 C716 1.524 . S
C720 H732 0.956 . S
C720 H733 0.961 . S
C720 H734 0.961 . S
C721 C718 1.539 . S
C721 H735 0.958 . S
C721 H736 0.961 . S
C721 H737 0.960 . S
H722 C706 0.931 . S
H723 C711 0.929 . S
H724 C712 0.960 . S
H725 C712 0.962 . S
H726 C712 0.960 . S
H727 C713 0.961 . S
H728 C713 0.961 . S
H729 C713 0.961 . S
H730 C714 0.931 . S
H731 C719 0.930 . S
H732 C720 0.956 . S
H733 C720 0.961 . S
H734 C720 0.961 . S
H735 C721 0.958 . S
H736 C721 0.961 . S
H737 C721 0.960 . S
C738 C739 1.391 . S
C738 C740 1.394 . S
C738 H754 0.931 . S
C739 C738 1.391 . S
C739 C743 1.376 . S
C740 C738 1.394 . S
C740 C741 1.369 . S
C740 C744 1.531 . S
C741 C740 1.369 . S
C741 C742 1.410 . S
C741 C749 1.503 . S
C742 C741 1.410 . S
C742 C743 1.392 . S
C742 C745 1.511 . S
C743 C739 1.376 . S
C743 C742 1.392 . S
C743 H755 0.929 . S
C744 C740 1.531 . S
C744 H756 0.960 . S
C744 H757 0.962 . S
C744 H758 0.960 . S
C745 C742 1.511 . S
C745 H759 0.961 . S
C745 H760 0.961 . S
C745 H761 0.961 . S
C746 C747 1.370 . S
C746 C748 1.363 . S
C746 H762 0.931 . S
C747 C746 1.370 . S
C747 C751 1.408 . S
C748 C746 1.363 . S
C748 C749 1.370 . S
C748 C752 1.524 . S
C749 C741 1.503 . S
C749 C748 1.370 . S
C749 C750 1.403 . S
C750 C749 1.403 . S
C750 C751 1.404 . S
C750 C753 1.539 . S
C751 C747 1.408 . S
C751 C750 1.404 . S
C751 H763 0.930 . S
C752 C748 1.524 . S
C752 H764 0.956 . S
C752 H765 0.961 . S
C752 H766 0.961 . S
C753 C750 1.539 . S
C753 H767 0.958 . S
C753 H768 0.961 . S
C753 H769 0.960 . S
H754 C738 0.931 . S
H755 C743 0.929 . S
H756 C744 0.960 . S
H757 C744 0.962 . S
H758 C744 0.960 . S
H759 C745 0.961 . S
H760 C745 0.961 . S
H761 C745 0.961 . S
H762 C746 0.931 . S
H763 C751 0.930 . S
H764 C752 0.956 . S
H765 C752 0.961 . S
H766 C752 0.961 . S
H767 C753 0.958 . S
H768 C753 0.961 . S
H769 C753 0.960 . S
C770 C771 1.391 . S
C770 C772 1.394 . S
C770 H786 0.931 . S
C771 C770 1.391 . S
C771 C775 1.376 . S
C772 C770 1.394 . S
C772 C773 1.369 . S
C772 C776 1.531 . S
C773 C772 1.369 . S
C773 C774 1.410 . S
C773 C781 1.503 . S
C774 C773 1.410 . S
C774 C775 1.392 . S
C774 C777 1.511 . S
C775 C771 1.376 . S
C775 C774 1.392 . S
C775 H787 0.929 . S
C776 C772 1.531 . S
C776 H788 0.960 . S
C776 H789 0.962 . S
C776 H790 0.960 . S
C777 C774 1.511 . S
C777 H791 0.961 . S
C777 H792 0.961 . S
C777 H793 0.961 . S
C778 C779 1.370 . S
C778 C780 1.363 . S
C778 H794 0.931 . S
C779 C778 1.370 . S
C779 C783 1.408 . S
C780 C778 1.363 . S
C780 C781 1.370 . S
C780 C784 1.524 . S
C781 C773 1.503 . S
C781 C780 1.370 . S
C781 C782 1.403 . S
C782 C781 1.403 . S
C782 C783 1.404 . S
C782 C785 1.539 . S
C783 C779 1.408 . S
C783 C782 1.404 . S
C783 H795 0.930 . S
C784 C780 1.524 . S
C784 H796 0.956 . S
C784 H797 0.961 . S
C784 H798 0.961 . S
C785 C782 1.539 . S
C785 H799 0.958 . S
C785 H800 0.961 . S
C785 H801 0.960 . S
H786 C770 0.931 . S
H787 C775 0.929 . S
H788 C776 0.960 . S
H789 C776 0.962 . S
H790 C776 0.960 . S
H791 C777 0.961 . S
H792 C777 0.961 . S
H793 C777 0.961 . S
H794 C778 0.931 . S
H795 C783 0.930 . S
H796 C784 0.956 . S
H797 C784 0.961 . S
H798 C784 0.961 . S
H799 C785 0.958 . S
H800 C785 0.961 . S
H801 C785 0.960 . S
C802 C803 1.391 . S
C802 C804 1.394 . S
C802 H818 0.931 . S
C803 C802 1.391 . S
C803 C807 1.376 . S
C804 C802 1.394 . S
C804 C805 1.369 . S
C804 C808 1.531 . S
C805 C804 1.369 . S
C805 C806 1.410 . S
C805 C813 1.503 . S
C806 C805 1.410 . S
C806 C807 1.392 . S
C806 C809 1.511 . S
C807 C803 1.376 . S
C807 C806 1.392 . S
C807 H819 0.929 . S
C808 C804 1.531 . S
C808 H820 0.960 . S
C808 H821 0.962 . S
C808 H822 0.960 . S
C809 C806 1.511 . S
C809 H823 0.961 . S
C809 H824 0.961 . S
C809 H825 0.961 . S
C810 C811 1.370 . S
C810 C812 1.363 . S
C810 H826 0.931 . S
C811 C810 1.370 . S
C811 C815 1.408 . S
C812 C810 1.363 . S
C812 C813 1.370 . S
C812 C816 1.524 . S
C813 C805 1.503 . S
C813 C812 1.370 . S
C813 C814 1.403 . S
C814 C813 1.403 . S
C814 C815 1.404 . S
C814 C817 1.539 . S
C815 C811 1.408 . S
C815 C814 1.404 . S
C815 H827 0.930 . S
C816 C812 1.524 . S
C816 H828 0.956 . S
C816 H829 0.961 . S
C816 H830 0.961 . S
C817 C814 1.539 . S
C817 H831 0.958 . S
C817 H832 0.961 . S
C817 H833 0.960 . S
H818 C802 0.931 . S
H819 C807 0.929 . S
H820 C808 0.960 . S
H821 C808 0.962 . S
H822 C808 0.960 . S
H823 C809 0.961 . S
H824 C809 0.961 . S
H825 C809 0.961 . S
H826 C810 0.931 . S
H827 C815 0.930 . S
H828 C816 0.956 . S
H829 C816 0.961 . S
H830 C816 0.961 . S
H831 C817 0.958 . S
H832 C817 0.961 . S
H833 C817 0.960 . S
C834 C835 1.391 . S
C834 C836 1.394 . S
C834 H850 0.931 . S
C835 C834 1.391 . S
C835 C839 1.376 . S
C836 C834 1.394 . S
C836 C837 1.369 . S
C836 C840 1.531 . S
C837 C836 1.369 . S
C837 C838 1.410 . S
C837 C845 1.503 . S
C838 C837 1.410 . S
C838 C839 1.392 . S
C838 C841 1.511 . S
C839 C835 1.376 . S
C839 C838 1.392 . S
C839 H851 0.929 . S
C840 C836 1.531 . S
C840 H852 0.960 . S
C840 H853 0.962 . S
C840 H854 0.960 . S
C841 C838 1.511 . S
C841 H855 0.961 . S
C841 H856 0.961 . S
C841 H857 0.961 . S
C842 C843 1.370 . S
C842 C844 1.363 1_554 S
C842 H858 0.931 . S
C843 C842 1.370 . S
C843 C847 1.408 . S
C844 C842 1.363 1_556 S
C844 C845 1.370 . S
C844 C848 1.524 . S
C845 C837 1.503 . S
C845 C844 1.370 . S
C845 C846 1.403 . S
C846 C845 1.403 . S
C846 C847 1.404 1_556 S
C846 C849 1.539 . S
C847 C843 1.408 . S
C847 C846 1.404 1_554 S
C847 H859 0.930 . S
C848 C844 1.524 . S
C848 H860 0.956 . S
C848 H861 0.961 . S
C848 H862 0.961 . S
C849 C846 1.539 . S
C849 H863 0.958 . S
C849 H864 0.961 . S
C849 H865 0.960 . S
H850 C834 0.931 . S
H851 C839 0.929 . S
H852 C840 0.960 . S
H853 C840 0.962 . S
H854 C840 0.960 . S
H855 C841 0.961 . S
H856 C841 0.961 . S
H857 C841 0.961 . S
H858 C842 0.931 . S
H859 C847 0.930 . S
H860 C848 0.956 . S
H861 C848 0.961 . S
H862 C848 0.961 . S
H863 C849 0.958 . S
H864 C849 0.961 . S
H865 C849 0.960 . S
C866 C867 1.391 . S
C866 C868 1.394 . S
C866 H882 0.931 . S
C867 C866 1.391 . S
C867 C871 1.376 . S
C868 C866 1.394 . S
C868 C869 1.369 . S
C868 C872 1.531 . S
C869 C868 1.369 . S
C869 C870 1.410 . S
C869 C877 1.503 . S
C870 C869 1.410 . S
C870 C871 1.392 . S
C870 C873 1.511 . S
C871 C867 1.376 . S
C871 C870 1.392 . S
C871 H883 0.929 . S
C872 C868 1.531 . S
C872 H884 0.960 . S
C872 H885 0.962 . S
C872 H886 0.960 . S
C873 C870 1.511 . S
C873 H887 0.961 . S
C873 H888 0.961 . S
C873 H889 0.961 . S
C874 C875 1.370 . S
C874 C876 1.363 . S
C874 H890 0.931 . S
C875 C874 1.370 . S
C875 C879 1.408 . S
C876 C874 1.363 . S
C876 C877 1.370 . S
C876 C880 1.524 . S
C877 C869 1.503 . S
C877 C876 1.370 . S
C877 C878 1.403 . S
C878 C877 1.403 . S
C878 C879 1.404 . S
C878 C881 1.539 . S
C879 C875 1.408 . S
C879 C878 1.404 . S
C879 H891 0.930 . S
C880 C876 1.524 . S
C880 H892 0.956 . S
C880 H893 0.961 . S
C880 H894 0.961 . S
C881 C878 1.539 . S
C881 H895 0.958 . S
C881 H896 0.961 . S
C881 H897 0.960 . S
H882 C866 0.931 . S
H883 C871 0.929 . S
H884 C872 0.960 . S
H885 C872 0.962 . S
H886 C872 0.960 . S
H887 C873 0.961 . S
H888 C873 0.961 . S
H889 C873 0.961 . S
H890 C874 0.931 . S
H891 C879 0.930 . S
H892 C880 0.956 . S
H893 C880 0.961 . S
H894 C880 0.961 . S
H895 C881 0.958 . S
H896 C881 0.961 . S
H897 C881 0.960 . S
C898 C899 1.391 . S
C898 C900 1.394 . S
C898 H914 0.931 . S
C899 C898 1.391 . S
C899 C903 1.376 . S
C900 C898 1.394 . S
C900 C901 1.369 . S
C900 C904 1.531 . S
C901 C900 1.369 . S
C901 C902 1.410 . S
C901 C909 1.503 . S
C902 C901 1.410 . S
C902 C903 1.392 . S
C902 C905 1.511 . S
C903 C899 1.376 . S
C903 C902 1.392 . S
C903 H915 0.929 . S
C904 C900 1.531 . S
C904 H916 0.960 . S
C904 H917 0.962 . S
C904 H918 0.960 . S
C905 C902 1.511 . S
C905 H919 0.961 . S
C905 H920 0.961 . S
C905 H921 0.961 . S
C906 C907 1.370 . S
C906 C908 1.363 . S
C906 H922 0.931 . S
C907 C906 1.370 . S
C907 C911 1.408 . S
C908 C906 1.363 . S
C908 C909 1.370 . S
C908 C912 1.524 . S
C909 C901 1.503 . S
C909 C908 1.370 . S
C909 C910 1.403 . S
C910 C909 1.403 . S
C910 C911 1.404 . S
C910 C913 1.539 . S
C911 C907 1.408 . S
C911 C910 1.404 . S
C911 H923 0.930 . S
C912 C908 1.524 . S
C912 H924 0.956 . S
C912 H925 0.961 . S
C912 H926 0.961 . S
C913 C910 1.539 . S
C913 H927 0.958 . S
C913 H928 0.961 . S
C913 H929 0.960 . S
H914 C898 0.931 . S
H915 C903 0.929 . S
H916 C904 0.960 . S
H917 C904 0.962 . S
H918 C904 0.960 . S
H919 C905 0.961 . S
H920 C905 0.961 . S
H921 C905 0.961 . S
H922 C906 0.931 . S
H923 C911 0.930 . S
H924 C912 0.956 . S
H925 C912 0.961 . S
H926 C912 0.961 . S
H927 C913 0.958 . S
H928 C913 0.961 . S
H929 C913 0.960 . S
C930 C931 1.391 . S
C930 C932 1.394 . S
C930 H946 0.931 . S
C931 C930 1.391 . S
C931 C935 1.376 . S
C932 C930 1.394 . S
C932 C933 1.369 . S
C932 C936 1.531 . S
C933 C932 1.369 . S
C933 C934 1.410 . S
C933 C941 1.503 . S
C934 C933 1.410 . S
C934 C935 1.392 . S
C934 C937 1.511 . S
C935 C931 1.376 . S
C935 C934 1.392 . S
C935 H947 0.929 . S
C936 C932 1.531 . S
C936 H948 0.960 . S
C936 H949 0.962 . S
C936 H950 0.960 . S
C937 C934 1.511 . S
C937 H951 0.961 . S
C937 H952 0.961 . S
C937 H953 0.961 . S
C938 C939 1.370 . S
C938 C940 1.363 . S
C938 H954 0.931 . S
C939 C938 1.370 . S
C939 C943 1.408 . S
C940 C938 1.363 . S
C940 C941 1.370 . S
C940 C944 1.524 . S
C941 C933 1.503 . S
C941 C940 1.370 . S
C941 C942 1.403 . S
C942 C941 1.403 . S
C942 C943 1.404 . S
C942 C945 1.539 . S
C943 C939 1.408 . S
C943 C942 1.404 . S
C943 H955 0.930 . S
C944 C940 1.524 . S
C944 H956 0.956 . S
C944 H957 0.961 . S
C944 H958 0.961 . S
C945 C942 1.539 . S
C945 H959 0.958 . S
C945 H960 0.961 . S
C945 H961 0.960 . S
H946 C930 0.931 . S
H947 C935 0.929 . S
H948 C936 0.960 . S
H949 C936 0.962 . S
H950 C936 0.960 . S
H951 C937 0.961 . S
H952 C937 0.961 . S
H953 C937 0.961 . S
H954 C938 0.931 . S
H955 C943 0.930 . S
H956 C944 0.956 . S
H957 C944 0.961 . S
H958 C944 0.961 . S
H959 C945 0.958 . S
H960 C945 0.961 . S
H961 C945 0.960 . S
C962 C963 1.391 . S
C962 C964 1.394 . S
C962 H978 0.931 . S
C963 C962 1.391 . S
C963 C967 1.376 . S
C964 C962 1.394 . S
C964 C965 1.369 . S
C964 C968 1.531 . S
C965 C964 1.369 . S
C965 C966 1.410 . S
C965 C973 1.503 . S
C966 C965 1.410 . S
C966 C967 1.392 . S
C966 C969 1.511 . S
C967 C963 1.376 . S
C967 C966 1.392 . S
C967 H979 0.929 . S
C968 C964 1.531 . S
C968 H980 0.960 . S
C968 H981 0.962 . S
C968 H982 0.960 . S
C969 C966 1.511 . S
C969 H983 0.961 . S
C969 H984 0.961 . S
C969 H985 0.961 . S
C970 C971 1.370 . S
C970 C972 1.363 . S
C970 H986 0.931 . S
C971 C970 1.370 . S
C971 C975 1.408 . S
C972 C970 1.363 . S
C972 C973 1.370 . S
C972 C976 1.524 . S
C973 C965 1.503 . S
C973 C972 1.370 . S
C973 C974 1.403 . S
C974 C973 1.403 . S
C974 C975 1.404 . S
C974 C977 1.539 . S
C975 C971 1.408 . S
C975 C974 1.404 . S
C975 H987 0.930 . S
C976 C972 1.524 . S
C976 H988 0.956 . S
C976 H989 0.961 . S
C976 H990 0.961 . S
C977 C974 1.539 . S
C977 H991 0.958 . S
C977 H992 0.961 . S
C977 H993 0.960 . S
H978 C962 0.931 . S
H979 C967 0.929 . S
H980 C968 0.960 . S
H981 C968 0.962 . S
H982 C968 0.960 . S
H983 C969 0.961 . S
H984 C969 0.961 . S
H985 C969 0.961 . S
H986 C970 0.931 . S
H987 C975 0.930 . S
H988 C976 0.956 . S
H989 C976 0.961 . S
H990 C976 0.961 . S
H991 C977 0.958 . S
H992 C977 0.961 . S
H993 C977 0.960 . S
C994 C995 1.391 . S
C994 C996 1.394 . S
C994 H1010 0.931 . S
C995 C994 1.391 . S
C995 C999 1.376 . S
C996 C994 1.394 . S
C996 C997 1.369 . S
C996 C1000 1.531 . S
C997 C996 1.369 . S
C997 C998 1.410 . S
C997 C1005 1.503 . S
C998 C997 1.410 . S
C998 C999 1.392 . S
C998 C1001 1.511 . S
C999 C995 1.376 . S
C999 C998 1.392 . S
C999 H1011 0.929 . S
C1000 C996 1.531 . S
C1000 H1012 0.960 . S
C1000 H1013 0.962 . S
C1000 H1014 0.960 . S
C1001 C998 1.511 . S
C1001 H1015 0.961 . S
C1001 H1016 0.961 . S
C1001 H1017 0.961 . S
C1002 C1003 1.370 . S
C1002 C1004 1.363 . S
C1002 H1018 0.931 . S
C1003 C1002 1.370 . S
C1003 C1007 1.408 . S
C1004 C1002 1.363 . S
C1004 C1005 1.370 . S
C1004 C1008 1.524 . S
C1005 C997 1.503 . S
C1005 C1004 1.370 . S
C1005 C1006 1.403 . S
C1006 C1005 1.403 . S
C1006 C1007 1.404 . S
C1006 C1009 1.539 . S
C1007 C1003 1.408 . S
C1007 C1006 1.404 . S
C1007 H1019 0.930 . S
C1008 C1004 1.524 . S
C1008 H1020 0.956 . S
C1008 H1021 0.961 . S
C1008 H1022 0.961 . S
C1009 C1006 1.539 . S
C1009 H1023 0.958 . S
C1009 H1024 0.961 . S
C1009 H1025 0.960 . S
H1010 C994 0.931 . S
H1011 C999 0.929 . S
H1012 C1000 0.960 . S
H1013 C1000 0.962 . S
H1014 C1000 0.960 . S
H1015 C1001 0.961 . S
H1016 C1001 0.961 . S
H1017 C1001 0.961 . S
H1018 C1002 0.931 . S
H1019 C1007 0.930 . S
H1020 C1008 0.956 . S
H1021 C1008 0.961 . S
H1022 C1008 0.961 . S
H1023 C1009 0.958 . S
H1024 C1009 0.961 . S
H1025 C1009 0.960 . S
C1026 C1027 1.391 . S
C1026 C1028 1.394 . S
C1026 H1042 0.931 . S
C1027 C1026 1.391 . S
C1027 C1031 1.376 . S
C1028 C1026 1.394 . S
C1028 C1029 1.369 . S
C1028 C1032 1.531 . S
C1029 C1028 1.369 . S
C1029 C1030 1.410 . S
C1029 C1037 1.503 . S
C1030 C1029 1.410 . S
C1030 C1031 1.392 . S
C1030 C1033 1.511 . S
C1031 C1027 1.376 . S
C1031 C1030 1.392 . S
C1031 H1043 0.929 . S
C1032 C1028 1.531 . S
C1032 H1044 0.960 . S
C1032 H1045 0.962 . S
C1032 H1046 0.960 . S
C1033 C1030 1.511 . S
C1033 H1047 0.961 . S
C1033 H1048 0.961 . S
C1033 H1049 0.961 . S
C1034 C1035 1.370 . S
C1034 C1036 1.363 . S
C1034 H1050 0.931 . S
C1035 C1034 1.370 . S
C1035 C1039 1.408 . S
C1036 C1034 1.363 . S
C1036 C1037 1.370 . S
C1036 C1040 1.524 . S
C1037 C1029 1.503 . S
C1037 C1036 1.370 . S
C1037 C1038 1.403 . S
C1038 C1037 1.403 . S
C1038 C1039 1.404 . S
C1038 C1041 1.539 . S
C1039 C1035 1.408 . S
C1039 C1038 1.404 . S
C1039 H1051 0.930 . S
C1040 C1036 1.524 . S
C1040 H1052 0.956 . S
C1040 H1053 0.961 . S
C1040 H1054 0.961 . S
C1041 C1038 1.539 . S
C1041 H1055 0.958 . S
C1041 H1056 0.961 . S
C1041 H1057 0.960 . S
H1042 C1026 0.931 . S
H1043 C1031 0.929 . S
H1044 C1032 0.960 . S
H1045 C1032 0.962 . S
H1046 C1032 0.960 . S
H1047 C1033 0.961 . S
H1048 C1033 0.961 . S
H1049 C1033 0.961 . S
H1050 C1034 0.931 . S
H1051 C1039 0.930 . S
H1052 C1040 0.956 . S
H1053 C1040 0.961 . S
H1054 C1040 0.961 . S
H1055 C1041 0.958 . S
H1056 C1041 0.961 . S
H1057 C1041 0.960 . S
C1058 C1059 1.391 . S
C1058 C1060 1.394 . S
C1058 H1074 0.931 . S
C1059 C1058 1.391 . S
C1059 C1063 1.376 . S
C1060 C1058 1.394 . S
C1060 C1061 1.369 . S
C1060 C1064 1.531 1_554 S
C1061 C1060 1.369 . S
C1061 C1062 1.410 . S
C1061 C1069 1.503 1_554 S
C1062 C1061 1.410 . S
C1062 C1063 1.392 . S
C1062 C1065 1.511 . S
C1063 C1059 1.376 . S
C1063 C1062 1.392 . S
C1063 H1075 0.929 . S
C1064 C1060 1.531 1_556 S
C1064 H1076 0.960 . S
C1064 H1077 0.962 . S
C1064 H1078 0.960 . S
C1065 C1062 1.511 . S
C1065 H1079 0.961 . S
C1065 H1080 0.961 . S
C1065 H1081 0.961 . S
C1066 C1067 1.370 . S
C1066 C1068 1.363 . S
C1066 H1082 0.931 . S
C1067 C1066 1.370 . S
C1067 C1071 1.408 . S
C1068 C1066 1.363 . S
C1068 C1069 1.370 . S
C1068 C1072 1.524 1_556 S
C1069 C1061 1.503 1_556 S
C1069 C1068 1.370 . S
C1069 C1070 1.403 . S
C1070 C1069 1.403 . S
C1070 C1071 1.404 . S
C1070 C1073 1.539 . S
C1071 C1067 1.408 . S
C1071 C1070 1.404 . S
C1071 H1083 0.930 . S
C1072 C1068 1.524 1_554 S
C1072 H1084 0.961 . S
C1072 H1085 0.961 . S
C1072 H1086 0.961 1_554 S
C1073 C1070 1.539 . S
C1073 H1087 0.958 . S
C1073 H1088 0.961 . S
C1073 H1089 0.960 . S
H1074 C1058 0.931 . S
H1075 C1063 0.929 . S
H1076 C1064 0.960 . S
H1077 C1064 0.962 . S
H1078 C1064 0.960 . S
H1079 C1065 0.961 . S
H1080 C1065 0.961 . S
H1081 C1065 0.961 . S
H1082 C1066 0.931 . S
H1083 C1071 0.930 . S
H1084 C1072 0.961 . S
H1085 C1072 0.961 . S
H1086 C1072 0.961 1_556 S
H1087 C1073 0.958 . S
H1088 C1073 0.961 . S
H1089 C1073 0.960 . S
C1090 C1091 1.391 . S
C1090 C1092 1.394 . S
C1090 H1106 0.931 . S
C1091 C1090 1.391 . S
C1091 C1095 1.376 . S
C1092 C1090 1.394 . S
C1092 C1093 1.369 . S
C1092 C1096 1.531 . S
C1093 C1092 1.369 . S
C1093 C1094 1.410 . S
C1093 C1101 1.503 . S
C1094 C1093 1.410 . S
C1094 C1095 1.392 . S
C1094 C1097 1.511 . S
C1095 C1091 1.376 . S
C1095 C1094 1.392 . S
C1095 H1107 0.929 . S
C1096 C1092 1.531 . S
C1096 H1108 0.960 . S
C1096 H1109 0.962 . S
C1096 H1110 0.960 . S
C1097 C1094 1.511 . S
C1097 H1111 0.961 . S
C1097 H1112 0.961 . S
C1097 H1113 0.961 . S
C1098 C1099 1.370 . S
C1098 C1100 1.363 . S
C1098 H1114 0.931 . S
C1099 C1098 1.370 . S
C1099 C1103 1.408 . S
C1100 C1098 1.363 . S
C1100 C1101 1.370 . S
C1100 C1104 1.524 . S
C1101 C1093 1.503 . S
C1101 C1100 1.370 . S
C1101 C1102 1.403 . S
C1102 C1101 1.403 . S
C1102 C1103 1.404 . S
C1102 C1105 1.539 . S
C1103 C1099 1.408 . S
C1103 C1102 1.404 . S
C1103 H1115 0.930 . S
C1104 C1100 1.524 . S
C1104 H1116 0.956 . S
C1104 H1117 0.961 . S
C1104 H1118 0.961 . S
C1105 C1102 1.539 . S
C1105 H1119 0.958 . S
C1105 H1120 0.961 . S
C1105 H1121 0.960 . S
H1106 C1090 0.931 . S
H1107 C1095 0.929 . S
H1108 C1096 0.960 . S
H1109 C1096 0.962 . S
H1110 C1096 0.960 . S
H1111 C1097 0.961 . S
H1112 C1097 0.961 . S
H1113 C1097 0.961 . S
H1114 C1098 0.931 . S
H1115 C1103 0.930 . S
H1116 C1104 0.956 . S
H1117 C1104 0.961 . S
H1118 C1104 0.961 . S
H1119 C1105 0.958 . S
H1120 C1105 0.961 . S
H1121 C1105 0.960 . S
C363 C351 1.597 . S
C355 C15 1.586 . S
C387 C61 1.518 . S
C395 C276 1.503 . S
C419 C114 1.585 . S
C427 C299 1.626 . S
C451 C139 1.447 . S
C459 C312 1.447 . S
C491 C315 1.551 . S
C483 C185 1.578 . S
C515 C245 1.472 . S
C523 C328 1.418 . S
C547 C47 1.498 . S
C555 C289 1.420 . S
C579 C100 1.607 . S
C587 C302 1.523 . S
C611 C153 1.413 . S
C619 C325 1.451 . S
C651 C338 1.628 . S
C643 C199 1.563 . S
C683 C341 1.487 . S
C675 C231 1.544 . S
C715 C286 1.596 . S
C707 C1 1.597 . S
C739 C22 1.464 . S
C747 C297 1.423 . S
C771 C68 1.440 . S
C779 C310 1.406 . S
C811 C320 1.448 . S
C803 C107 1.474 . S
C835 C146 1.454 . S
C843 C333 1.391 . S
C875 C349 1.446 . S
C867 C192 1.492 . S
C907 C281 1.405 . S
C899 C252 1.427 . S
C939 C346 1.412 . S
C931 C54 1.437 . S
C963 C93 1.479 . S
C971 C284 1.464 . S
C1003 C294 1.405 . S
C995 C160 1.434 . S
C1027 C206 1.481 . S
C1035 C307 1.440 . S
C1059 C238 1.440 . S
C1067 C323 1.413 . S
C1091 C8 1.451 . S
C1099 C336 1.437 . S
