# Generated by pormake.
# Topology zzz, (3,6)-cn, num edge types: 1
# Building blocks:
#     Node 0, Type 0, BuildingBlock: KAKCAD_clean_linker_0, # of connection points: 3
#     Node 1, Type 0, BuildingBlock: KAKCAD_clean_linker_0, # of connection points: 3
#     Node 2, Type 0, BuildingBlock: KAKCAD_clean_linker_0, # of connection points: 3
#     Node 3, Type 0, BuildingBlock: KAKCAD_clean_linker_0, # of connection points: 3
#     Node 4, Type 0, BuildingBlock: KAKCAD_clean_linker_0, # of connection points: 3
#     Node 5, Type 0, BuildingBlock: KAKCAD_clean_linker_0, # of connection points: 3
#     Node 6, Type 0, BuildingBlock: KAKCAD_clean_linker_0, # of connection points: 3
#     Node 7, Type 0, BuildingBlock: KAKCAD_clean_linker_0, # of connection points: 3
#     Node 8, Type 1, BuildingBlock: MIFKUJ_clean_sbu_0, # of connection points: 6
#     Node 9, Type 1, BuildingBlock: MIFKUJ_clean_sbu_0, # of connection points: 6
#     Node 10, Type 1, BuildingBlock: MIFKUJ_clean_sbu_0, # of connection points: 6
#     Node 11, Type 1, BuildingBlock: MIFKUJ_clean_sbu_0, # of connection points: 6
#     Edge 12, Type (0, 1), BuildingBlock: TEMPAE_clean_linker_10, # of connection points: 2
#     Edge 13, Type (0, 1), BuildingBlock: TEMPAE_clean_linker_10, # of connection points: 2
#     Edge 14, Type (0, 1), BuildingBlock: TEMPAE_clean_linker_10, # of connection points: 2
#     Edge 15, Type (0, 1), BuildingBlock: TEMPAE_clean_linker_10, # of connection points: 2
#     Edge 16, Type (0, 1), BuildingBlock: TEMPAE_clean_linker_10, # of connection points: 2
#     Edge 17, Type (0, 1), BuildingBlock: TEMPAE_clean_linker_10, # of connection points: 2
#     Edge 18, Type (0, 1), BuildingBlock: TEMPAE_clean_linker_10, # of connection points: 2
#     Edge 19, Type (0, 1), BuildingBlock: TEMPAE_clean_linker_10, # of connection points: 2
#     Edge 20, Type (0, 1), BuildingBlock: TEMPAE_clean_linker_10, # of connection points: 2
#     Edge 21, Type (0, 1), BuildingBlock: TEMPAE_clean_linker_10, # of connection points: 2
#     Edge 22, Type (0, 1), BuildingBlock: TEMPAE_clean_linker_10, # of connection points: 2
#     Edge 23, Type (0, 1), BuildingBlock: TEMPAE_clean_linker_10, # of connection points: 2
#     Edge 24, Type (0, 1), BuildingBlock: TEMPAE_clean_linker_10, # of connection points: 2
#     Edge 25, Type (0, 1), BuildingBlock: TEMPAE_clean_linker_10, # of connection points: 2
#     Edge 26, Type (0, 1), BuildingBlock: TEMPAE_clean_linker_10, # of connection points: 2
#     Edge 27, Type (0, 1), BuildingBlock: TEMPAE_clean_linker_10, # of connection points: 2
#     Edge 28, Type (0, 1), BuildingBlock: TEMPAE_clean_linker_10, # of connection points: 2
#     Edge 29, Type (0, 1), BuildingBlock: TEMPAE_clean_linker_10, # of connection points: 2
#     Edge 30, Type (0, 1), BuildingBlock: TEMPAE_clean_linker_10, # of connection points: 2
#     Edge 31, Type (0, 1), BuildingBlock: TEMPAE_clean_linker_10, # of connection points: 2
#     Edge 32, Type (0, 1), BuildingBlock: TEMPAE_clean_linker_10, # of connection points: 2
#     Edge 33, Type (0, 1), BuildingBlock: TEMPAE_clean_linker_10, # of connection points: 2
#     Edge 34, Type (0, 1), BuildingBlock: TEMPAE_clean_linker_10, # of connection points: 2
#     Edge 35, Type (0, 1), BuildingBlock: TEMPAE_clean_linker_10, # of connection points: 2
# Relax obj value: 0.308
# Max RMSD: 0.213
# Mean RMSD: 0.191
data_MOF--net-zzz--node1-MIFKUJ_clean_sbu_0--node2-KAKCAD_clean_linker_0--edge1-TEMPAE_clean_linker_10
_symmetry_space_group_name_H-M    P1
_symmetry_Int_Tables_number       1
_symmetry_cell_setting            triclinic
loop_
_symmetry_equiv_pos_as_xyz
'x, y, z'
_cell_length_a     57.307069
_cell_length_b     58.489065
_cell_length_c     21.411236
_cell_angle_alpha  89.336322
_cell_angle_beta   89.812639
_cell_angle_gamma 91.037148
loop_
_atom_site_label
_atom_site_type_symbol
_atom_site_fract_x
_atom_site_fract_y
_atom_site_fract_z
_atom_type_partial_charge
C0 C 0.78348 0.57945 0.88883 0.0
C1 C 0.80178 0.56491 0.90544 0.0
C2 C 0.76742 0.58639 0.93397 0.0
C3 C 0.76957 0.57902 0.9964 0.0
C4 C 0.78807 0.56473 0.01276 0.0
C5 C 0.80402 0.55788 0.96799 0.0
C6 C 0.75205 0.58486 0.04447 0.0
C7 C 0.72817 0.58299 0.03175 0.0
C8 C 0.7116 0.58394 0.08012 0.0
C9 C 0.71911 0.58673 0.14229 0.0
C10 C 0.74306 0.58991 0.15479 0.0
C11 C 0.7592 0.58934 0.10559 0.0
C12 C 0.75271 0.5909 0.21863 0.0
C13 C 0.76645 0.60998 0.23536 0.0
C14 C 0.75464 0.57052 0.25327 0.0
C15 C 0.77192 0.56845 0.299 0.0
C16 C 0.78752 0.58677 0.31074 0.0
C17 C 0.68686 0.57981 0.0638 0.0
C18 C 0.67614 0.59434 0.02034 0.0
C19 C 0.67577 0.55904 0.08053 0.0
C20 C 0.65513 0.55216 0.05069 0.0
C21 C 0.64518 0.56605 0.00407 0.0
C22 C 0.65542 0.58761 0.99107 0.0
C23 C 0.78362 0.60797 0.28122 0.0
H24 H 0.78136 0.58513 0.84089 0.0
H25 H 0.75335 0.59745 0.92007 0.0
H26 H 0.79 0.55835 0.06013 0.0
H27 H 0.81818 0.54704 0.98252 0.0
H28 H 0.72242 0.57922 0.98469 0.0
H29 H 0.77769 0.59105 0.11573 0.0
H30 H 0.70656 0.58639 0.18025 0.0
H31 H 0.76545 0.62579 0.20871 0.0
H32 H 0.74456 0.55547 0.24032 0.0
H33 H 0.77445 0.55186 0.32062 0.0
H34 H 0.6846 0.6103 0.00615 0.0
H35 H 0.68394 0.54742 0.11321 0.0
H36 H 0.79503 0.62253 0.29007 0.0
H37 H 0.64834 0.59862 0.95506 0.0
H38 H 0.64751 0.53554 0.06202 0.0
C39 C 0.01389 0.79852 0.86719 0.0
C40 C 0.03104 0.81442 0.8862 0.0
C41 C 0.00766 0.77994 0.90557 0.0
C42 C 0.01845 0.77689 0.96383 0.0
C43 C 0.03661 0.79201 0.98109 0.0
C44 C 0.04288 0.81059 0.94256 0.0
C45 C 0.00906 0.75955 0.00883 0.0
C46 C 0.0021 0.73772 0.98906 0.0
C47 C 0.99095 0.72215 0.03044 0.0
C48 C 0.98671 0.72862 0.09255 0.0
C49 C 0.99378 0.75042 0.11281 0.0
C50 C 0.00508 0.7656 0.07096 0.0
C51 C 0.98775 0.75905 0.17524 0.0
C52 C 0.9644 0.7635 0.18984 0.0
C53 C 0.00552 0.76798 0.21327 0.0
C54 C 1.0002 0.78288 0.26149 0.0
C55 C 0.977 0.7893 0.27217 0.0
C56 C 0.98402 0.69925 0.00735 0.0
C57 C 0.97216 0.6973 0.95031 0.0
C58 C 0.99165 0.67936 0.03772 0.0
C59 C 0.98907 0.65807 0.00901 0.0
C60 C 0.97863 0.65635 0.94978 0.0
C61 C 0.96943 0.67608 0.9219 0.0
C62 C 0.95905 0.7786 0.2379 0.0
H63 H 0.00469 0.80091 0.82354 0.0
H64 H 0.99352 0.76869 0.89107 0.0
H65 H 0.04542 0.78991 0.02542 0.0
H66 H 0.05614 0.8226 0.95843 0.0
H67 H 0.00545 0.7328 0.94125 0.0
H68 H 0.00956 0.78275 0.08613 0.0
H69 H 0.97767 0.71695 0.12448 0.0
H70 H 0.95045 0.75699 0.16061 0.0
H71 H 0.02366 0.76491 0.20234 0.0
H72 H 0.01447 0.79092 0.28658 0.0
H73 H 0.96594 0.71239 0.92623 0.0
H74 H 0.00088 0.68044 0.0817 0.0
H75 H 0.94101 0.78304 0.24554 0.0
H76 H 0.96147 0.67541 0.87613 0.0
H77 H 0.99613 0.64311 0.03188 0.0
C78 C 0.69296 0.91301 0.92058 0.0
C79 C 0.69288 0.93282 0.88264 0.0
C80 C 0.71118 0.90926 0.96231 0.0
C81 C 0.72984 0.92501 0.96588 0.0
C82 C 0.73091 0.94363 0.92395 0.0
C83 C 0.71253 0.94757 0.88285 0.0
C84 C 0.74543 0.92486 0.0205 0.0
C85 C 0.76961 0.9272 0.01339 0.0
C86 C 0.78391 0.93203 0.06504 0.0
C87 C 0.77363 0.9348 0.12441 0.0
C88 C 0.74932 0.93212 0.13164 0.0
C89 C 0.73554 0.92664 0.07989 0.0
C90 C 0.73699 0.9382 0.18954 0.0
C91 C 0.73484 0.92259 0.2395 0.0
C92 C 0.72294 0.95757 0.18839 0.0
C93 C 0.70589 0.96056 0.23394 0.0
C94 C 0.70258 0.94433 0.28236 0.0
C95 C 0.80897 0.93698 0.05326 0.0
C96 C 0.82206 0.92174 0.01771 0.0
C97 C 0.81856 0.95861 0.06679 0.0
C98 C 0.84 0.96557 0.04063 0.0
C99 C 0.85224 0.95094 0.00093 0.0
C100 C 0.84351 0.92861 0.992 0.0
C101 C 0.71784 0.92569 0.28583 0.0
H102 H 0.67838 0.90096 0.92024 0.0
H103 H 0.71008 0.89476 0.99421 0.0
H104 H 0.74502 0.95616 0.92651 0.0
H105 H 0.71302 0.96304 0.85457 0.0
H106 H 0.77714 0.92655 0.96691 0.0
H107 H 0.7167 0.92564 0.08513 0.0
H108 H 0.78429 0.93977 0.16388 0.0
H109 H 0.74527 0.90733 0.24062 0.0
H110 H 0.72403 0.96958 0.1495 0.0
H111 H 0.69435 0.97489 0.22858 0.0
H112 H 0.81497 0.90498 0.00655 0.0
H113 H 0.80871 0.97073 0.09362 0.0
H114 H 0.71608 0.91305 0.32294 0.0
H115 H 0.85239 0.91697 0.96138 0.0
H116 H 0.84644 0.98279 0.04894 0.0
C117 C 0.45273 0.72027 0.2985 0.0
C118 C 0.47698 0.72044 0.30865 0.0
C119 C 0.44338 0.7325 0.24845 0.0
C120 C 0.45807 0.74517 0.2079 0.0
C121 C 0.4818 0.7478 0.22286 0.0
C122 C 0.49121 0.73547 0.27287 0.0
C123 C 0.45043 0.74977 0.14316 0.0
C124 C 0.45382 0.77122 0.11413 0.0
C125 C 0.45036 0.77371 0.0494 0.0
C126 C 0.44394 0.75454 0.0139 0.0
C127 C 0.44079 0.73298 0.04237 0.0
C128 C 0.44327 0.73101 0.10728 0.0
C129 C 0.43788 0.71211 0.00404 0.0
C130 C 0.42376 0.71191 0.95042 0.0
C131 C 0.45049 0.69243 0.01941 0.0
C132 C 0.44937 0.67322 0.98174 0.0
C133 C 0.43588 0.67322 0.92714 0.0
C134 C 0.45497 0.79588 0.01739 0.0
C135 C 0.44365 0.81572 0.03639 0.0
C136 C 0.46996 0.79697 0.96539 0.0
C137 C 0.47319 0.81741 0.93205 0.0
C138 C 0.4613 0.83711 0.94964 0.0
C139 C 0.44663 0.83616 0.00241 0.0
C140 C 0.42274 0.69261 0.91232 0.0
H141 H 0.44125 0.70884 0.32495 0.0
H142 H 0.42503 0.7302 0.23768 0.0
H143 H 0.4935 0.75738 0.19207 0.0
H144 H 0.5099 0.73621 0.28023 0.0
H145 H 0.45997 0.78564 0.14126 0.0
H146 H 0.44111 0.71437 0.12964 0.0
H147 H 0.44233 0.75629 0.96366 0.0
H148 H 0.41372 0.72674 0.93755 0.0
H149 H 0.4619 0.69205 0.05961 0.0
H150 H 0.45942 0.65843 0.99495 0.0
H151 H 0.43197 0.81523 0.07629 0.0
H152 H 0.47901 0.7819 0.95015 0.0
H153 H 0.41226 0.69312 0.87035 0.0
H154 H 0.43739 0.85118 0.0171 0.0
H155 H 0.48447 0.81763 0.89134 0.0
C156 C 0.20983 0.43389 0.30279 0.0
C157 C 0.1894 0.42049 0.29632 0.0
C158 C 0.22918 0.43015 0.265 0.0
C159 C 0.22861 0.41288 0.2199 0.0
C160 C 0.20899 0.39811 0.21745 0.0
C161 C 0.18953 0.40192 0.25524 0.0
C162 C 0.24655 0.41301 0.16965 0.0
C163 C 0.26979 0.41896 0.18267 0.0
C164 C 0.28551 0.4248 0.13446 0.0
C165 C 0.27811 0.42382 0.07189 0.0
C166 C 0.25498 0.41704 0.05801 0.0
C167 C 0.23954 0.41145 0.10718 0.0
C168 C 0.24505 0.41926 0.99432 0.0
C169 C 0.24619 0.44041 0.96263 0.0
C170 C 0.23014 0.40195 0.9715 0.0
C171 C 0.21503 0.40641 0.9219 0.0
C172 C 0.21451 0.42827 0.89406 0.0
C173 C 0.30846 0.43471 0.15191 0.0
C174 C 0.30912 0.45452 0.18822 0.0
C175 C 0.32923 0.42314 0.14037 0.0
C176 C 0.35019 0.43066 0.16773 0.0
C177 C 0.35064 0.44995 0.20663 0.0
C178 C 0.32994 0.46208 0.21517 0.0
C179 C 0.23103 0.44489 0.91293 0.0
H180 H 0.21026 0.44851 0.33339 0.0
H181 H 0.2438 0.44208 0.26776 0.0
H182 H 0.20819 0.3844 0.18389 0.0
H183 H 0.17415 0.39107 0.25003 0.0
H184 H 0.27541 0.42031 0.23083 0.0
H185 H 0.22132 0.40801 0.09672 0.0
H186 H 0.28989 0.42924 0.03465 0.0
H187 H 0.2573 0.45414 0.97967 0.0
H188 H 0.229 0.38545 0.99496 0.0
H189 H 0.20285 0.3931 0.90762 0.0
H190 H 0.29324 0.46362 0.19801 0.0
H191 H 0.32903 0.4077 0.11289 0.0
H192 H 0.23103 0.46194 0.89267 0.0
H193 H 0.32948 0.47676 0.24546 0.0
H194 H 0.36589 0.42106 0.15982 0.0
C195 C 0.95565 0.20778 0.25753 0.0
C196 C 0.97339 0.19495 0.28545 0.0
C197 C 0.96134 0.22558 0.21559 0.0
C198 C 0.98477 0.23036 0.20041 0.0
C199 C 0.00245 0.2178 0.22896 0.0
C200 C 0.99683 0.20035 0.27142 0.0
C201 C 0.99108 0.24729 0.15171 0.0
C202 C 0.98961 0.27067 0.16302 0.0
C203 C 0.99805 0.28683 0.11879 0.0
C204 C 0.00745 0.27916 0.06182 0.0
C205 C 0.00871 0.25558 0.05032 0.0
C206 C 0.00058 0.23987 0.09561 0.0
C207 C 0.0185 0.24634 0.9921 0.0
C208 C 0.00622 0.24835 0.93582 0.0
C209 C 0.03695 0.23096 0.99616 0.0
C210 C 0.04151 0.21615 0.94722 0.0
C211 C 0.0277 0.2164 0.89303 0.0
C212 C 0.99884 0.3113 0.13624 0.0
C213 C 0.97966 0.3209 0.16662 0.0
C214 C 0.01981 0.32405 0.1317 0.0
C215 C 0.02205 0.34521 0.16124 0.0
C216 C 0.00333 0.35402 0.19565 0.0
C217 C 0.98187 0.34198 0.19605 0.0
C218 C 0.01082 0.2335 0.88651 0.0
H219 H 0.93747 0.20385 0.2676 0.0
H220 H 0.94751 0.2351 0.19352 0.0
H221 H 0.02062 0.22124 0.21742 0.0
H222 H 0.01081 0.19048 0.29155 0.0
H223 H 0.98306 0.2762 0.20785 0.0
H224 H 0.00173 0.22165 0.08729 0.0
H225 H 0.0141 0.29137 0.0274 0.0
H226 H 0.9918 0.26 0.9319 0.0
H227 H 0.04653 0.22905 0.03941 0.0
H228 H 0.05451 0.20319 0.95446 0.0
H229 H 0.96323 0.31151 0.17044 0.0
H230 H 0.03492 0.31702 0.10883 0.0
H231 H 1.00016 0.23446 0.84494 0.0
H232 H 0.96713 0.34813 0.22233 0.0
H233 H 0.03869 0.35425 0.15917 0.0
C234 C 0.29566 0.05044 0.27928 0.0
C235 C 0.31285 0.0673 0.28971 0.0
C236 C 0.27664 0.05512 0.24114 0.0
C237 C 0.27471 0.07665 0.21209 0.0
C238 C 0.29146 0.09382 0.22447 0.0
C239 C 0.31032 0.08923 0.26357 0.0
C240 C 0.25698 0.07993 0.16309 0.0
C241 C 0.23387 0.07283 0.1732 0.0
C242 C 0.21795 0.07171 0.12357 0.0
C243 C 0.2254 0.0779 0.06273 0.0
C244 C 0.24864 0.08544 0.05249 0.0
C245 C 0.26404 0.08681 0.10319 0.0
C246 C 0.25895 0.08822 0.9893 0.0
C247 C 0.26113 0.06891 0.95156 0.0
C248 C 0.27253 0.10787 0.97531 0.0
C249 C 0.28992 0.1073 0.92947 0.0
C250 C 0.2941 0.08702 0.89693 0.0
C251 C 0.1942 0.06252 0.13704 0.0
C252 C 0.19174 0.04154 0.16911 0.0
C253 C 0.17444 0.07597 0.12783 0.0
C254 C 0.15292 0.06924 0.15432 0.0
C255 C 0.15085 0.04894 0.19026 0.0
C256 C 0.1704 0.03486 0.19549 0.0
C257 C 0.2786 0.0683 0.90572 0.0
H258 H 0.2973 0.03345 0.29932 0.0
H259 H 0.26412 0.04151 0.23166 0.0
H260 H 0.29032 0.11052 0.20238 0.0
H261 H 0.32349 0.10244 0.27102 0.0
H262 H 0.22843 0.0675 0.2198 0.0
H263 H 0.28226 0.09129 0.09492 0.0
H264 H 0.21357 0.07608 0.02366 0.0
H265 H 0.25111 0.05344 0.962 0.0
H266 H 0.27121 0.12294 0.00399 0.0
H267 H 0.30125 0.12216 0.92287 0.0
H268 H 0.20676 0.03089 0.17687 0.0
H269 H 0.17597 0.09228 0.10356 0.0
H270 H 0.28135 0.05239 0.88159 0.0
H271 H 0.16969 0.01928 0.22332 0.0
H272 H 0.13813 0.08033 0.14857 0.0
C273 C 0.50408 0.2779 0.94475 0.0
C274 C 0.51832 0.2914 0.9047 0.0
C275 C 0.514 0.26498 0.99295 0.0
C276 C 0.53825 0.26552 0.00185 0.0
C277 C 0.55255 0.27736 0.95869 0.0
C278 C 0.54271 0.29007 0.91031 0.0
C279 C 0.54811 0.2585 0.06248 0.0
C280 C 0.54764 0.23564 0.08302 0.0
C281 C 0.55643 0.22988 0.14236 0.0
C282 C 0.56547 0.2473 0.18068 0.0
C283 C 0.56487 0.27039 0.16205 0.0
C284 C 0.55648 0.27566 0.10217 0.0
C285 C 0.57028 0.28908 0.20708 0.0
C286 C 0.5652 0.28616 0.2711 0.0
C287 C 0.57829 0.31073 0.18595 0.0
C288 C 0.57898 0.32935 0.22625 0.0
C289 C 0.57238 0.32669 0.28931 0.0
C290 C 0.55414 0.20626 0.16818 0.0
C291 C 0.53299 0.1939 0.16278 0.0
C292 C 0.57195 0.19718 0.20546 0.0
C293 C 0.56808 0.17718 0.24039 0.0
C294 C 0.54639 0.16559 0.23832 0.0
C295 C 0.52919 0.17374 0.19736 0.0
C296 C 0.56668 0.30458 0.31173 0.0
H297 H 0.48525 0.27848 0.94123 0.0
H298 H 0.50267 0.25613 0.02624 0.0
H299 H 0.57129 0.27816 0.96524 0.0
H300 H 0.55418 0.30043 0.8808 0.0
H301 H 0.54043 0.2225 0.05306 0.0
H302 H 0.55507 0.29333 0.0871 0.0
H303 H 0.57196 0.24288 0.22659 0.0
H304 H 0.55882 0.26996 0.28985 0.0
H305 H 0.58316 0.31361 0.13757 0.0
H306 H 0.58351 0.34602 0.20683 0.0
H307 H 0.51888 0.20046 0.13464 0.0
H308 H 0.58857 0.20613 0.20983 0.0
H309 H 0.56229 0.30159 0.3604 0.0
H310 H 0.51247 0.16495 0.19353 0.0
H311 H 0.58173 0.17151 0.27148 0.0
Zn312 Zn 0.00796 0.0256 0.61725 0.0
Zn313 Zn 0.99164 0.97713 0.55826 0.0
C314 C 0.01779 0.05957 0.71427 0.0
O315 O 0.00603 0.04556 0.75158 0.0
C316 C 0.99074 0.94247 0.46894 0.0
O317 O 0.01223 0.95046 0.46302 0.0
O318 O 0.98657 0.04037 0.55487 0.0
O319 O 0.03373 0.0102 0.56876 0.0
O320 O 0.00835 0.99881 0.49873 0.0
C321 C 0.99779 0.0538 0.51802 0.0
O322 O 0.0206 0.05547 0.52298 0.0
O323 O 0.02183 0.05366 0.65841 0.0
C324 C 0.02733 0.96174 0.65472 0.0
O325 O 0.02819 0.98193 0.68074 0.0
O326 O 0.01451 0.95836 0.6073 0.0
O327 O 0.96667 0.98799 0.61712 0.0
O328 O 0.98897 0.00778 0.68154 0.0
O329 O 0.97692 0.95239 0.50597 0.0
C330 C 0.02875 0.00596 0.51219 0.0
C331 C 0.97057 0.99599 0.67115 0.0
Zn332 Zn 0.48236 0.02275 0.64039 0.0
Zn333 Zn 0.51526 0.98807 0.57204 0.0
C334 C 0.4443 0.03104 0.71874 0.0
O335 O 0.44297 0.00877 0.71188 0.0
C336 C 0.55478 0.97865 0.5055 0.0
O337 O 0.55919 0.99836 0.53216 0.0
O338 O 0.46076 0.01732 0.56848 0.0
O339 O 0.50996 0.0412 0.6061 0.0
O340 O 0.51063 0.01769 0.52675 0.0
C341 C 0.45567 0.03577 0.54009 0.0
O342 O 0.46552 0.0551 0.55754 0.0
O343 O 0.4616 0.04203 0.69487 0.0
C344 C 0.54397 0.97033 0.65935 0.0
O345 O 0.53273 0.95283 0.63493 0.0
O346 O 0.5378 0.99044 0.64412 0.0
O347 O 0.48711 0.97075 0.60555 0.0
O348 O 0.4881 0.99328 0.68716 0.0
O349 O 0.53455 0.96947 0.5116 0.0
C350 C 0.51396 0.03755 0.54861 0.0
C351 C 0.48381 0.97377 0.66368 0.0
Zn352 Zn 0.49538 0.48176 0.6295 0.0
Zn353 Zn 0.50558 0.52916 0.56795 0.0
C354 C 0.50231 0.44419 0.70821 0.0
O355 O 0.52251 0.4551 0.71126 0.0
C356 C 0.4997 0.56508 0.48322 0.0
O357 O 0.47984 0.55368 0.47811 0.0
O358 O 0.5197 0.47005 0.5703 0.0
O359 O 0.46763 0.49183 0.57797 0.0
O360 O 0.49132 0.50674 0.50723 0.0
C361 C 0.51177 0.45553 0.53173 0.0
O362 O 0.4894 0.45023 0.53243 0.0
O363 O 0.48599 0.45304 0.67658 0.0
C364 C 0.46661 0.53801 0.66474 0.0
O365 O 0.46534 0.51685 0.6857 0.0
O366 O 0.48091 0.54357 0.62144 0.0
O367 O 0.53288 0.52069 0.62255 0.0
O368 O 0.51064 0.50293 0.6921 0.0
O369 O 0.51561 0.55685 0.51755 0.0
C370 C 0.47192 0.49715 0.52132 0.0
C371 C 0.52901 0.51448 0.67878 0.0
Zn372 Zn 0.04605 0.51013 0.57447 0.0
Zn373 Zn 0.97131 0.51341 0.56408 0.0
C374 C 0.08115 0.49884 0.66135 0.0
O375 O 0.08092 0.52121 0.66601 0.0
C376 C 0.93685 0.52474 0.47921 0.0
O377 O 0.93534 0.5023 0.48197 0.0
O378 O 0.06794 0.52245 0.50921 0.0
O379 O 0.01859 0.49187 0.534 0.0
O380 O 0.98088 0.48539 0.51718 0.0
C381 C 0.06314 0.51857 0.45266 0.0
O382 O 0.04118 0.51894 0.43574 0.0
O383 O 0.06648 0.48907 0.62549 0.0
C384 C 0.94218 0.52569 0.65671 0.0
O385 O 0.95304 0.54479 0.64042 0.0
O386 O 0.94809 0.50708 0.63172 0.0
O387 O 0.001 0.52602 0.59782 0.0
O388 O 0.03538 0.53591 0.63007 0.0
O389 O 0.95355 0.53479 0.50746 0.0
C390 C 0.00218 0.48026 0.50829 0.0
C391 C 0.01354 0.53847 0.63253 0.0
C392 C 0.12206 0.02049 0.23646 0.0
C393 C 0.1294 0.04334 0.22749 0.0
C394 C 0.10446 0.01457 0.27973 0.0
C395 C 0.09355 0.03193 0.31418 0.0
C396 C 0.09976 0.05513 0.30251 0.0
C397 C 0.11772 0.06056 0.25966 0.0
C398 C 0.09832 0.98962 0.29071 0.0
C399 C 0.08822 0.07418 0.33745 0.0
C400 C 0.03732 0.01602 0.40042 0.0
C401 C 0.04536 0.01249 0.4616 0.0
C402 C 0.05271 0.02276 0.35216 0.0
C403 C 0.07677 0.02566 0.36513 0.0
C404 C 0.08498 0.02211 0.4268 0.0
C405 C 0.06914 0.01574 0.47438 0.0
C406 C 0.0432 0.02687 0.28739 0.0
C407 C 0.11055 0.02483 0.44243 0.0
H408 H 0.1306 0.0071 0.21092 0.0
H409 H 0.12333 0.07824 0.25372 0.0
H410 H 0.10308 0.98461 0.33911 0.0
H411 H 0.07924 0.98668 0.28585 0.0
H412 H 0.1075 0.97829 0.25776 0.0
H413 H 0.09312 0.09131 0.31812 0.0
H414 H 0.06895 0.0721 0.33588 0.0
H415 H 0.09344 0.07348 0.38728 0.0
H416 H 0.0189 0.01385 0.39034 0.0
H417 H 0.07544 0.01305 0.52154 0.0
H418 H 0.05149 0.01518 0.25384 0.0
H419 H 0.04751 0.0446 0.27175 0.0
H420 H 0.02397 0.02424 0.28527 0.0
H421 H 0.12094 0.01294 0.41399 0.0
H422 H 0.11411 0.0214 0.49261 0.0
H423 H 0.11671 0.04245 0.43067 0.0
C424 C 0.51939 0.14422 0.31174 0.0
C425 C 0.54126 0.14618 0.28211 0.0
C426 C 0.51469 0.12687 0.35601 0.0
C427 C 0.53237 0.11127 0.37177 0.0
C428 C 0.55442 0.11304 0.34197 0.0
C429 C 0.55854 0.13036 0.2972 0.0
C430 C 0.49082 0.12527 0.38612 0.0
C431 C 0.57367 0.09664 0.35744 0.0
C432 C 0.52705 0.07799 0.52512 0.0
C433 C 0.51884 0.05669 0.50443 0.0
C434 C 0.53164 0.09597 0.4824 0.0
C435 C 0.52755 0.09259 0.41787 0.0
C436 C 0.51892 0.07123 0.397 0.0
C437 C 0.51483 0.05354 0.4404 0.0
C438 C 0.54099 0.11852 0.50615 0.0
C439 C 0.5139 0.06706 0.32878 0.0
H440 H 0.50605 0.15658 0.30138 0.0
H441 H 0.57536 0.13151 0.27398 0.0
H442 H 0.48278 0.10819 0.3777 0.0
H443 H 0.49241 0.12719 0.43742 0.0
H444 H 0.47889 0.13854 0.36804 0.0
H445 H 0.59006 0.10076 0.33146 0.0
H446 H 0.57741 0.097 0.40824 0.0
H447 H 0.56804 0.07892 0.3461 0.0
H448 H 0.53014 0.0805 0.5745 0.0
H449 H 0.50816 0.03722 0.42401 0.0
H450 H 0.52895 0.13244 0.49331 0.0
H451 H 0.55808 0.12263 0.48379 0.0
H452 H 0.54329 0.11838 0.55766 0.0
H453 H 0.50098 0.07951 0.31141 0.0
H454 H 0.50698 0.04951 0.32038 0.0
H455 H 0.53006 0.06969 0.30075 0.0
C456 C 0.37762 0.47966 0.25201 0.0
C457 C 0.37186 0.45651 0.24278 0.0
C458 C 0.39525 0.48623 0.29384 0.0
C459 C 0.40764 0.46925 0.32688 0.0
C460 C 0.40286 0.44585 0.31516 0.0
C461 C 0.38498 0.43975 0.27342 0.0
C462 C 0.39985 0.51136 0.30484 0.0
C463 C 0.41587 0.42722 0.34892 0.0
C464 C 0.46339 0.48772 0.40985 0.0
C465 C 0.45553 0.49004 0.47156 0.0
C466 C 0.44814 0.48055 0.36241 0.0
C467 C 0.42437 0.47601 0.37683 0.0
C468 C 0.41634 0.47837 0.43906 0.0
C469 C 0.43207 0.48516 0.48575 0.0
C470 C 0.45746 0.47779 0.29695 0.0
C471 C 0.39107 0.47392 0.45625 0.0
H472 H 0.36786 0.49272 0.22773 0.0
H473 H 0.38054 0.42184 0.26714 0.0
H474 H 0.39507 0.51558 0.35358 0.0
H475 H 0.41869 0.51553 0.29888 0.0
H476 H 0.38975 0.52241 0.27262 0.0
H477 H 0.41187 0.41002 0.3298 0.0
H478 H 0.43498 0.43048 0.34582 0.0
H479 H 0.41107 0.42714 0.39916 0.0
H480 H 0.48159 0.49119 0.39873 0.0
H481 H 0.4259 0.48695 0.53334 0.0
H482 H 0.44848 0.48963 0.26452 0.0
H483 H 0.45382 0.46016 0.28061 0.0
H484 H 0.47656 0.48126 0.29389 0.0
H485 H 0.37976 0.48548 0.42884 0.0
H486 H 0.38764 0.47655 0.50674 0.0
H487 H 0.38593 0.45612 0.44442 0.0
C488 C 0.98875 0.3903 0.2423 0.0
C489 C 0.0066 0.37438 0.23602 0.0
C490 C 0.99036 0.40788 0.28623 0.0
C491 C 0.01033 0.40966 0.32479 0.0
C492 C 0.02883 0.39424 0.31694 0.0
C493 C 0.02675 0.3768 0.27266 0.0
C494 C 0.97034 0.42414 0.29265 0.0
C495 C 0.05063 0.39592 0.35606 0.0
C496 C 0.01788 0.46635 0.40745 0.0
C497 C 0.00741 0.46152 0.46536 0.0
C498 C 0.02016 0.44934 0.3623 0.0
C499 C 0.01122 0.42705 0.37503 0.0
C500 C 0.00128 0.42191 0.43439 0.0
C501 C 0.9993 0.43931 0.47871 0.0
C502 C 0.03088 0.45564 0.29981 0.0
C503 C 0.9919 0.39826 0.45018 0.0
H504 H 0.9733 0.38878 0.21351 0.0
H505 H 0.04056 0.36448 0.26859 0.0
H506 H 0.96244 0.42224 0.33985 0.0
H507 H 0.97679 0.44208 0.28774 0.0
H508 H 0.95652 0.42108 0.25731 0.0
H509 H 0.06287 0.38184 0.34676 0.0
H510 H 0.05975 0.41241 0.34584 0.0
H511 H 0.04606 0.39566 0.40648 0.0
H512 H 0.0233 0.48367 0.39609 0.0
H513 H 0.99091 0.43569 0.5233 0.0
H514 H 0.01688 0.45688 0.26431 0.0
H515 H 0.04306 0.44233 0.28424 0.0
H516 H 0.04049 0.47231 0.30118 0.0
H517 H 0.97658 0.39429 0.42037 0.0
H518 H 0.98649 0.39657 0.49992 0.0
H519 H 0.0053 0.3853 0.44037 0.0
C520 C 0.87061 0.98069 0.93075 0.0
C521 C 0.87224 0.95966 0.9625 0.0
C522 C 0.88754 0.98774 0.88678 0.0
C523 C 0.90664 0.97344 0.8743 0.0
C524 C 0.909 0.95271 0.90837 0.0
C525 C 0.89173 0.94603 0.95194 0.0
C526 C 0.88433 0.00992 0.85132 0.0
C527 C 0.92924 0.93712 0.89687 0.0
C528 C 0.9338 0.97743 0.71236 0.0
C529 C 0.95399 0.99073 0.72301 0.0
C530 C 0.91833 0.97167 0.76123 0.0
C531 C 0.92311 0.97938 0.82241 0.0
C532 C 0.94339 0.99286 0.83357 0.0
C533 C 0.95858 0.99838 0.78377 0.0
C534 C 0.89685 0.95728 0.74737 0.0
C535 C 0.94908 0.00137 0.89816 0.0
H536 H 0.85543 0.99115 0.93788 0.0
H537 H 0.89317 0.92985 0.97671 0.0
H538 H 0.90052 0.02058 0.853 0.0
H539 H 0.88077 0.00626 0.80148 0.0
H540 H 0.86967 0.01996 0.87013 0.0
H541 H 0.92965 0.92267 0.93096 0.0
H542 H 0.92797 0.93002 0.84914 0.0
H543 H 0.946 0.94684 0.8995 0.0
H544 H 0.93009 0.97137 0.66572 0.0
H545 H 0.97416 0.00859 0.79265 0.0
H546 H 0.88093 0.96665 0.76048 0.0
H547 H 0.89699 0.94129 0.77574 0.0
H548 H 0.89563 0.95269 0.69727 0.0
H549 H 0.93467 0.01199 0.9157 0.0
H550 H 0.96554 0.01169 0.89908 0.0
H551 H 0.95075 0.98667 0.93095 0.0
C552 C 0.48577 0.86634 0.89235 0.0
C553 C 0.46365 0.85827 0.91126 0.0
C554 C 0.48822 0.88551 0.85276 0.0
C555 C 0.46803 0.89667 0.83102 0.0
C556 C 0.44565 0.88875 0.85057 0.0
C557 C 0.44374 0.86969 0.89081 0.0
C558 C 0.51239 0.89368 0.83374 0.0
C559 C 0.42375 0.90013 0.82796 0.0
C560 C 0.47626 0.95744 0.7703 0.0
C561 C 0.47808 0.95413 0.70563 0.0
C562 C 0.47254 0.93894 0.81154 0.0
C563 C 0.47044 0.91658 0.78756 0.0
C564 C 0.47156 0.91315 0.72225 0.0
C565 C 0.47542 0.93198 0.68202 0.0
C566 C 0.47151 0.94327 0.8809 0.0
C567 C 0.46921 0.88953 0.695 0.0
H568 H 0.50118 0.85762 0.90859 0.0
H569 H 0.42661 0.86329 0.90485 0.0
H570 H 0.5144 0.89271 0.7823 0.0
H571 H 0.51502 0.91186 0.8467 0.0
H572 H 0.5263 0.88344 0.85601 0.0
H573 H 0.4077 0.89212 0.84842 0.0
H574 H 0.42422 0.91853 0.84002 0.0
H575 H 0.4227 0.89911 0.77633 0.0
H576 H 0.47819 0.9745 0.78906 0.0
H577 H 0.47675 0.92927 0.63215 0.0
H578 H 0.48623 0.93466 0.90447 0.0
H579 H 0.45513 0.93592 0.90103 0.0
H580 H 0.47246 0.96179 0.8918 0.0
H581 H 0.48388 0.87885 0.71109 0.0
H582 H 0.4692 0.8899 0.64311 0.0
H583 H 0.45282 0.88107 0.71163 0.0
C584 C 0.62738 0.53536 0.93804 0.0
C585 C 0.62596 0.55721 0.96399 0.0
C586 C 0.61103 0.5277 0.8939 0.0
C587 C 0.59268 0.54218 0.87551 0.0
C588 C 0.59064 0.56393 0.90325 0.0
C589 C 0.60737 0.57123 0.94691 0.0
C590 C 0.61395 0.50447 0.86512 0.0
C591 C 0.57117 0.57976 0.88546 0.0
C592 C 0.56605 0.53362 0.71474 0.0
C593 C 0.54547 0.52127 0.72903 0.0
C594 C 0.58154 0.5405 0.76195 0.0
C595 C 0.57631 0.53499 0.82512 0.0
C596 C 0.55559 0.52252 0.83992 0.0
C597 C 0.54045 0.51577 0.79174 0.0
C598 C 0.60353 0.55367 0.74418 0.0
C599 C 0.54937 0.51638 0.90668 0.0
H600 H 0.64191 0.52458 0.95021 0.0
H601 H 0.60612 0.58808 0.96709 0.0
H602 H 0.59756 0.4942 0.86984 0.0
H603 H 0.61766 0.5065 0.81445 0.0
H604 H 0.62836 0.49479 0.88692 0.0
H605 H 0.57115 0.59546 0.91418 0.0
H606 H 0.57297 0.58488 0.8356 0.0
H607 H 0.55403 0.57082 0.8909 0.0
H608 H 0.57011 0.53797 0.66652 0.0
H609 H 0.52459 0.50627 0.80338 0.0
H610 H 0.61905 0.54431 0.7607 0.0
H611 H 0.60379 0.57055 0.76727 0.0
H612 H 0.60513 0.55647 0.69292 0.0
H613 H 0.5633 0.50588 0.9277 0.0
H614 H 0.53254 0.50672 0.91044 0.0
H615 H 0.54814 0.53215 0.93474 0.0
C616 C 0.00123 0.62351 0.90944 0.0
C617 C 0.98 0.63497 0.91318 0.0
C618 C 0.00438 0.60589 0.86657 0.0
C619 C 0.98583 0.59951 0.82652 0.0
C620 C 0.96385 0.60992 0.83297 0.0
C621 C 0.96122 0.62763 0.87606 0.0
C622 C 0.02807 0.59514 0.8614 0.0
C623 C 0.9435 0.60326 0.792 0.0
C624 C 0.00572 0.57753 0.66957 0.0
C625 C 0.00355 0.55391 0.67852 0.0
C626 C 0.99894 0.59259 0.7165 0.0
C627 C 0.99026 0.58368 0.77409 0.0
C628 C 0.98758 0.55973 0.78265 0.0
C629 C 0.99425 0.54507 0.7345 0.0
C630 C 0.002 0.61802 0.70544 0.0
C631 C 0.97884 0.54954 0.84365 0.0
H632 H 0.0159 0.62924 0.9374 0.0
H633 H 0.94468 0.63625 0.87929 0.0
H634 H 0.02634 0.57623 0.86187 0.0
H635 H 0.03633 0.6003 0.81632 0.0
H636 H 0.03991 0.60037 0.89989 0.0
H637 H 0.92679 0.61012 0.80949 0.0
H638 H 0.94659 0.61 0.74398 0.0
H639 H 0.94178 0.5844 0.78896 0.0
H640 H 0.0132 0.58419 0.62631 0.0
H641 H 0.99296 0.52669 0.74136 0.0
H642 H 0.01529 0.62499 0.73799 0.0
H643 H 0.9854 0.62682 0.71503 0.0
H644 H 0.0076 0.62218 0.65684 0.0
H645 H 0.99277 0.551 0.87931 0.0
H646 H 0.97388 0.53119 0.83912 0.0
H647 H 0.96357 0.55897 0.86113 0.0
C648 C 0.95334 0.15719 0.30371 0.0
C649 C 0.96795 0.17481 0.32558 0.0
C650 C 0.95225 0.13589 0.33462 0.0
C651 C 0.96608 0.13234 0.38838 0.0
C652 C 0.97914 0.1508 0.41371 0.0
C653 C 0.97996 0.17182 0.38181 0.0
C654 C 0.9379 0.11672 0.3067 0.0
C655 C 0.99388 0.14784 0.47155 0.0
C656 C 0.96524 0.08035 0.4954 0.0
C657 C 0.98586 0.06991 0.47644 0.0
C658 C 0.95728 0.09992 0.46396 0.0
C659 C 0.9702 0.10887 0.41246 0.0
C660 C 0.98967 0.0969 0.38963 0.0
C661 C 0.99734 0.07762 0.42223 0.0
C662 C 0.93635 0.11209 0.48932 0.0
C663 C 0.00372 0.10558 0.33413 0.0
H664 H 0.94406 0.15951 0.2601 0.0
H665 H 0.991 0.1856 0.39908 0.0
H666 H 0.94957 0.10521 0.28079 0.0
H667 H 0.92898 0.10636 0.34369 0.0
H668 H 0.9246 0.12327 0.27368 0.0
H669 H 0.00068 0.16445 0.48926 0.0
H670 H 0.98364 0.13917 0.50927 0.0
H671 H 0.00895 0.1369 0.46069 0.0
H672 H 0.95641 0.07438 0.53753 0.0
H673 H 0.01315 0.0693 0.40728 0.0
H674 H 0.9254 0.11885 0.45091 0.0
H675 H 0.94237 0.12684 0.51752 0.0
H676 H 0.92543 0.10065 0.5197 0.0
H677 H 0.99205 0.10996 0.29472 0.0
H678 H 0.01649 0.09284 0.3179 0.0
H679 H 0.01346 0.12139 0.34709 0.0
C680 C 0.34785 0.04335 0.30363 0.0
C681 C 0.33419 0.06145 0.32403 0.0
C682 C 0.36845 0.03769 0.33469 0.0
C683 C 0.37519 0.05017 0.38807 0.0
C684 C 0.36132 0.06837 0.40915 0.0
C685 C 0.34106 0.07399 0.37627 0.0
C686 C 0.38311 0.01855 0.31012 0.0
C687 C 0.36779 0.08179 0.46661 0.0
C688 C 0.41596 0.0238 0.50648 0.0
C689 C 0.43649 0.0365 0.49511 0.0
C690 C 0.3959 0.02772 0.47095 0.0
C691 C 0.39677 0.04424 0.42207 0.0
C692 C 0.41796 0.05604 0.40803 0.0
C693 C 0.43752 0.05227 0.44549 0.0
C694 C 0.37347 0.01519 0.48809 0.0
C695 C 0.41972 0.07331 0.35517 0.0
H696 H 0.34256 0.03388 0.26263 0.0
H697 H 0.33037 0.08795 0.39184 0.0
H698 H 0.401 0.02506 0.29935 0.0
H699 H 0.38473 0.00494 0.34625 0.0
H700 H 0.37561 0.01085 0.26728 0.0
H701 H 0.35477 0.095 0.4777 0.0
H702 H 0.3693 0.07004 0.50743 0.0
H703 H 0.38505 0.09034 0.45976 0.0
H704 H 0.41517 0.01188 0.54562 0.0
H705 H 0.45352 0.06203 0.43693 0.0
H706 H 0.36582 0.00687 0.44643 0.0
H707 H 0.36057 0.02759 0.5053 0.0
H708 H 0.37608 0.00195 0.52491 0.0
H709 H 0.41256 0.06593 0.31159 0.0
H710 H 0.43802 0.07913 0.34635 0.0
H711 H 0.40919 0.08845 0.36645 0.0
C712 C 0.55053 0.34705 0.37292 0.0
C713 C 0.56899 0.34703 0.32959 0.0
C714 C 0.54534 0.36661 0.40689 0.0
C715 C 0.55842 0.38702 0.39604 0.0
C716 C 0.5775 0.3871 0.35399 0.0
C717 C 0.58275 0.36701 0.32179 0.0
C718 C 0.52507 0.36567 0.45228 0.0
C719 C 0.59165 0.40864 0.34077 0.0
C720 C 0.52047 0.4372 0.43117 0.0
C721 C 0.52735 0.44234 0.49206 0.0
C722 C 0.53212 0.42068 0.39676 0.0
C723 C 0.55051 0.4085 0.42503 0.0
C724 C 0.5585 0.41474 0.48514 0.0
C725 C 0.54693 0.43189 0.5178 0.0
C726 C 0.52343 0.41497 0.33217 0.0
C727 C 0.57769 0.40187 0.51742 0.0
H728 H 0.53933 0.33206 0.37867 0.0
H729 H 0.59733 0.36716 0.28947 0.0
H730 H 0.53033 0.37295 0.49785 0.0
H731 H 0.51059 0.3761 0.43383 0.0
H732 H 0.51836 0.34794 0.46038 0.0
H733 H 0.60733 0.40535 0.31183 0.0
H734 H 0.58065 0.42114 0.31561 0.0
H735 H 0.59727 0.4167 0.385 0.0
H736 H 0.50531 0.44544 0.41145 0.0
H737 H 0.552 0.43576 0.56534 0.0
H738 H 0.51353 0.3985 0.33392 0.0
H739 H 0.53829 0.41294 0.29947 0.0
H740 H 0.51177 0.42834 0.31327 0.0
H741 H 0.5707 0.38504 0.53402 0.0
H742 H 0.58464 0.41128 0.55834 0.0
H743 H 0.59227 0.39855 0.48477 0.0
C744 C 0.16738 0.43763 0.38496 0.0
C745 C 0.16736 0.42832 0.32488 0.0
C746 C 0.14831 0.45 0.40658 0.0
C747 C 0.12879 0.45298 0.36718 0.0
C748 C 0.12775 0.44182 0.30904 0.0
C749 C 0.14713 0.4297 0.28835 0.0
C750 C 0.14966 0.46104 0.46991 0.0
C751 C 0.10675 0.44386 0.26709 0.0
C752 C 0.07517 0.47873 0.44004 0.0
C753 C 0.07808 0.50181 0.42311 0.0
C754 C 0.09105 0.4624 0.42046 0.0
C755 C 0.11057 0.46951 0.38414 0.0
C756 C 0.11333 0.49283 0.366 0.0
C757 C 0.09699 0.50879 0.38598 0.0
C758 C 0.08748 0.43791 0.44199 0.0
C759 C 0.13404 0.50105 0.32761 0.0
H760 H 0.18279 0.43618 0.41388 0.0
H761 H 0.14695 0.42262 0.24178 0.0
H762 H 0.15029 0.47992 0.46409 0.0
H763 H 0.13385 0.45659 0.49783 0.0
H764 H 0.16529 0.45572 0.49658 0.0
H765 H 0.10745 0.43196 0.22709 0.0
H766 H 0.09047 0.44031 0.29398 0.0
H767 H 0.10582 0.46161 0.2485 0.0
H768 H 0.06093 0.47361 0.47092 0.0
H769 H 0.09936 0.52678 0.37434 0.0
H770 H 0.09707 0.43524 0.48633 0.0
H771 H 0.09415 0.42564 0.40742 0.0
H772 H 0.06872 0.43397 0.45113 0.0
H773 H 0.15039 0.498 0.35386 0.0
H774 H 0.1332 0.51956 0.31573 0.0
H775 H 0.13504 0.49126 0.28363 0.0
C776 C 0.0574 0.84466 0.83813 0.0
C777 C 0.03484 0.83602 0.85042 0.0
C778 C 0.0608 0.86556 0.80596 0.0
C779 C 0.04116 0.87809 0.78643 0.0
C780 C 0.01837 0.86943 0.79908 0.0
C781 C 0.01552 0.84851 0.83074 0.0
C782 C 0.08531 0.8742 0.79272 0.0
C783 C 0.99693 0.88233 0.77947 0.0
C784 C 0.04024 0.94157 0.75177 0.0
C785 C 0.03695 0.94155 0.68695 0.0
C786 C 0.04363 0.92103 0.7848 0.0
C787 C 0.04396 0.90015 0.75194 0.0
C788 C 0.04301 0.90038 0.68592 0.0
C789 C 0.03941 0.9211 0.65422 0.0
C790 C 0.04459 0.92148 0.85522 0.0
C791 C 0.04361 0.87855 0.64902 0.0
H792 H 0.07236 0.83499 0.85324 0.0
H793 H 0.99806 0.84212 0.8413 0.0
H794 H 0.08795 0.87632 0.74161 0.0
H795 H 0.08806 0.89127 0.81384 0.0
H796 H 0.09871 0.86245 0.81121 0.0
H797 H 0.98048 0.87336 0.79373 0.0
H798 H 0.9972 0.89959 0.80046 0.0
H799 H 0.99681 0.88469 0.72799 0.0
H800 H 0.03839 0.95734 0.77731 0.0
H801 H 0.0372 0.92106 0.60393 0.0
H802 H 0.05827 0.90997 0.87313 0.0
H803 H 0.02762 0.91528 0.8746 0.0
H804 H 0.04809 0.939 0.87286 0.0
H805 H 0.0467 0.88193 0.59846 0.0
H806 H 0.02665 0.86926 0.65431 0.0
H807 H 0.05741 0.86715 0.66679 0.0
C808 C 0.67293 0.94988 0.78919 0.0
C809 C 0.6715 0.93929 0.84821 0.0
C810 C 0.65279 0.95699 0.75797 0.0
C811 C 0.63065 0.95304 0.78615 0.0
C812 C 0.62911 0.94254 0.84589 0.0
C813 C 0.64953 0.93594 0.87631 0.0
C814 C 0.65566 0.96805 0.6943 0.0
C815 C 0.60583 0.93797 0.8774 0.0
C816 C 0.57667 0.98352 0.72853 0.0
C817 C 0.56592 0.96633 0.69315 0.0
C818 C 0.59804 0.97961 0.75849 0.0
C819 C 0.60889 0.95819 0.75194 0.0
C820 C 0.59842 0.94111 0.7147 0.0
C821 C 0.57694 0.94527 0.68647 0.0
C822 C 0.60913 0.99834 0.79676 0.0
C823 C 0.60999 0.91845 0.70444 0.0
H824 H 0.6898 0.95247 0.7669 0.0
H825 H 0.64826 0.92837 0.92266 0.0
H826 H 0.63972 0.9766 0.67743 0.0
H827 H 0.6702 0.98087 0.69504 0.0
H828 H 0.66055 0.95478 0.66029 0.0
H829 H 0.60771 0.93052 0.92504 0.0
H830 H 0.59599 0.95408 0.88079 0.0
H831 H 0.59523 0.92594 0.84896 0.0
H832 H 0.56833 -9e-05 0.73305 0.0
H833 H 0.56904 0.93209 0.65787 0.0
H834 H 0.6268 0.00257 0.77806 0.0
H835 H 0.61129 0.99236 0.84574 0.0
H836 H 0.59863 0.01413 0.79668 0.0
H837 H 0.62769 0.92138 0.68435 0.0
H838 H 0.59986 0.90724 0.67248 0.0
H839 H 0.61208 0.90934 0.74977 0.0
C840 C 0.45807 0.64317 0.87213 0.0
C841 C 0.43663 0.65336 0.88475 0.0
C842 C 0.45938 0.62395 0.83416 0.0
C843 C 0.43875 0.61475 0.80747 0.0
C844 C 0.41706 0.62515 0.81894 0.0
C845 C 0.41624 0.64439 0.8576 0.0
C846 C 0.48292 0.61347 0.82275 0.0
C847 C 0.39477 0.61584 0.79081 0.0
C848 C 0.45311 0.57817 0.66919 0.0
C849 C 0.4545 0.55648 0.69748 0.0
C850 C 0.44603 0.59714 0.70329 0.0
C851 C 0.44035 0.59432 0.76729 0.0
C852 C 0.43987 0.57215 0.79472 0.0
C853 C 0.44688 0.55342 0.7593 0.0
C854 C 0.44654 0.62043 0.67206 0.0
C855 C 0.43391 0.56848 0.86286 0.0
H856 H 0.47395 0.65035 0.89183 0.0
H857 H 0.39962 0.65216 0.86746 0.0
H858 H 0.48261 0.59531 0.83836 0.0
H859 H 0.48698 0.61378 0.77204 0.0
H860 H 0.49723 0.62259 0.84765 0.0
H861 H 0.37943 0.62627 0.80292 0.0
H862 H 0.39643 0.61529 0.73921 0.0
H863 H 0.39152 0.59804 0.8075 0.0
H864 H 0.45865 0.58058 0.62103 0.0
H865 H 0.44784 0.53668 0.78133 0.0
H866 H 0.46195 0.63035 0.68864 0.0
H867 H 0.43077 0.63014 0.68449 0.0
H868 H 0.44765 0.61926 0.62038 0.0
H869 H 0.44851 0.57503 0.89192 0.0
H870 H 0.43089 0.55011 0.87456 0.0
H871 H 0.41812 0.57809 0.87566 0.0
C872 C 0.82915 0.57261 0.81588 0.0
C873 C 0.81891 0.55712 0.8587 0.0
C874 C 0.84774 0.56602 0.77768 0.0
C875 C 0.85629 0.54352 0.78307 0.0
C876 C 0.84511 0.52747 0.82351 0.0
C877 C 0.82643 0.53443 0.86051 0.0
C878 C 0.85903 0.58348 0.73413 0.0
C879 C 0.85379 0.50336 0.83066 0.0
C880 C 0.89923 0.52191 0.66318 0.0
C881 C 0.92048 0.52714 0.69216 0.0
C882 C 0.87803 0.52724 0.69202 0.0
C883 C 0.87835 0.53745 0.75165 0.0
C884 C 0.89989 0.54205 0.78172 0.0
C885 C 0.92075 0.53719 0.7509 0.0
C886 C 0.85545 0.52284 0.6577 0.0
C887 C 0.90095 0.55265 0.84567 0.0
H888 H 0.82341 0.59017 0.81437 0.0
H889 H 0.81817 0.52227 0.89256 0.0
H890 H 0.87649 0.58846 0.75225 0.0
H891 H 0.86164 0.57612 0.68714 0.0
H892 H 0.84847 0.59914 0.72934 0.0
H893 H 0.84199 0.49247 0.86018 0.0
H894 H 0.85559 0.49529 0.78432 0.0
H895 H 0.87135 0.50376 0.85242 0.0
H896 H 0.89926 0.51478 0.61663 0.0
H897 H 0.93732 0.54153 0.77221 0.0
H898 H 0.84668 0.53929 0.64847 0.0
H899 H 0.8434 0.51215 0.68686 0.0
H900 H 0.85822 0.51418 0.61243 0.0
H901 H 0.89439 0.57037 0.84318 0.0
H902 H 0.91897 0.55325 0.86459 0.0
H903 H 0.8896 0.54287 0.87892 0.0
C904 C 0.00758 0.18665 0.82813 0.0
C905 C 0.02848 0.19672 0.84941 0.0
C906 C 0.00742 0.16539 0.79843 0.0
C907 C 0.02863 0.15373 0.79033 0.0
C908 C 0.04994 0.16449 0.80752 0.0
C909 C 0.04962 0.18591 0.8365 0.0
C910 C 0.98432 0.15469 0.77986 0.0
C911 C 0.07294 0.1527 0.79927 0.0
C912 C 0.02232 0.08902 0.79724 0.0
C913 C 0.02315 0.08329 0.73394 0.0
C914 C 0.02494 0.11181 0.81616 0.0
C915 C 0.02812 0.12938 0.7706 0.0
C916 C 0.02955 0.12366 0.70667 0.0
C917 C 0.02722 0.10065 0.68913 0.0
C918 C 0.02358 0.11716 0.88491 0.0
C919 C 0.03255 0.14189 0.65663 0.0
H920 H 0.99109 0.19461 0.83827 0.0
H921 H 0.0659 0.19373 0.85163 0.0
H922 H 0.98535 0.14772 0.73199 0.0
H923 H 0.97998 0.14021 0.81206 0.0
H924 H 0.96989 0.16709 0.78158 0.0
H925 H 0.08807 0.16439 0.80772 0.0
H926 H 0.07388 0.13807 0.8326 0.0
H927 H 0.07442 0.14572 0.75151 0.0
H928 H 0.01925 0.07569 0.83207 0.0
H929 H 0.02766 0.09639 0.63999 0.0
H930 H 0.00799 0.12758 0.89418 0.0
H931 H 0.03913 0.12739 0.89913 0.0
H932 H 0.02248 0.10146 0.91457 0.0
H933 H 0.01684 0.1527 0.65527 0.0
H934 H 0.03514 0.13451 0.60957 0.0
H935 H 0.04767 0.15326 0.6674 0.0
C936 C 0.33755 0.09128 0.89039 0.0
C937 C 0.31651 0.08406 0.86276 0.0
C938 C 0.35921 0.08547 0.8649 0.0
C939 C 0.35994 0.07217 0.8102 0.0
C940 C 0.33882 0.06597 0.77994 0.0
C941 C 0.31735 0.07186 0.80681 0.0
C942 C 0.38125 0.09227 0.89898 0.0
C943 C 0.33886 0.05209 0.72095 0.0
C944 C 0.41801 0.06474 0.72577 0.0
C945 C 0.42431 0.04291 0.74671 0.0
C946 C 0.39712 0.07462 0.74602 0.0
C947 C 0.38249 0.06251 0.789 0.0
C948 C 0.38929 0.04082 0.8119 0.0
C949 C 0.40997 0.03121 0.78999 0.0
C950 C 0.3903 0.0976 0.71987 0.0
C951 C 0.37449 0.02751 0.85871 0.0
H952 H 0.33714 0.10038 0.93418 0.0
H953 H 0.30118 0.06638 0.78497 0.0
H954 H 0.38914 0.07683 0.92013 0.0
H955 H 0.39426 0.09991 0.86607 0.0
H956 H 0.3779 0.10469 0.9367 0.0
H957 H 0.32132 0.05105 0.69914 0.0
H958 H 0.35142 0.05959 0.68652 0.0
H959 H 0.34458 0.03447 0.73185 0.0
H960 H 0.42889 0.07367 0.69153 0.0
H961 H 0.4148 0.01433 0.80627 0.0
H962 H 0.38664 0.10958 0.75832 0.0
H963 H 0.37402 0.0957 0.69235 0.0
H964 H 0.40408 0.10531 0.68923 0.0
H965 H 0.37134 0.03803 0.90058 0.0
H966 H 0.38275 0.01133 0.87383 0.0
H967 H 0.35724 0.0233 0.83805 0.0
C968 C 0.51778 0.31489 0.806 0.0
C969 C 0.50829 0.30975 0.86508 0.0
C970 C 0.51282 0.33557 0.7753 0.0
C971 C 0.49813 0.35147 0.80463 0.0
C972 C 0.48676 0.34539 0.86135 0.0
C973 C 0.49197 0.32458 0.8909 0.0
C974 C 0.52496 0.34122 0.71424 0.0
C975 C 0.47089 0.36178 0.89405 0.0
C976 C 0.51604 0.41357 0.78005 0.0
C977 C 0.49971 0.42104 0.73615 0.0
C978 C 0.51533 0.39111 0.80342 0.0
C979 C 0.49795 0.3756 0.78195 0.0
C980 C 0.48106 0.38312 0.73859 0.0
C981 C 0.48207 0.40585 0.71634 0.0
C982 C 0.53351 0.38388 0.85028 0.0
C983 C 0.46239 0.36703 0.71437 0.0
H984 H 0.53015 0.30333 0.78544 0.0
H985 H 0.48467 0.32084 0.93674 0.0
H986 H 0.51269 0.34906 0.68062 0.0
H987 H 0.53926 0.35387 0.72254 0.0
H988 H 0.53259 0.32585 0.69272 0.0
H989 H 0.46037 0.35313 0.93135 0.0
H990 H 0.4816 0.37554 0.91569 0.0
H991 H 0.4589 0.37 0.86039 0.0
H992 H 0.52963 0.42526 0.79577 0.0
H993 H 0.46949 0.41149 0.68201 0.0
H994 H 0.54424 0.37011 0.83046 0.0
H995 H 0.52492 0.37689 0.89309 0.0
H996 H 0.54532 0.39826 0.86374 0.0
H997 H 0.47059 0.35349 0.68632 0.0
H998 H 0.44948 0.37597 0.68469 0.0
H999 H 0.45304 0.35841 0.75377 0.0
C1000 C 0.17196 0.42828 0.86788 0.0
C1001 C 0.19499 0.43463 0.85188 0.0
C1002 C 0.15292 0.43647 0.83374 0.0
C1003 C 0.15694 0.45135 0.78209 0.0
C1004 C 0.18016 0.45693 0.76376 0.0
C1005 C 0.19891 0.44861 0.79909 0.0
C1006 C 0.12848 0.43023 0.85525 0.0
C1007 C 0.18518 0.47253 0.7085 0.0
C1008 C 0.10646 0.46441 0.67225 0.0
C1009 C 0.09945 0.48576 0.69399 0.0
C1010 C 0.12522 0.45295 0.70019 0.0
C1011 C 0.13692 0.46295 0.7516 0.0
C1012 C 0.12951 0.48426 0.77448 0.0
C1013 C 0.11101 0.49545 0.74513 0.0
C1014 C 0.13278 0.43041 0.67401 0.0
C1015 C 0.14125 0.49538 0.82973 0.0
H1016 H 0.16871 0.41778 0.90916 0.0
H1017 H 0.21664 0.45342 0.78614 0.0
H1018 H 0.11998 0.44562 0.87397 0.0
H1019 H 0.1178 0.42415 0.81544 0.0
H1020 H 0.12831 0.41676 0.89226 0.0
H1021 H 0.20404 0.47322 0.69625 0.0
H1022 H 0.17516 0.46677 0.66713 0.0
H1023 H 0.17953 0.49009 0.7193 0.0
H1024 H 0.09775 0.45696 0.63227 0.0
H1025 H 0.10562 0.51191 0.76227 0.0
H1026 H 0.13209 0.41698 0.71101 0.0
H1027 H 0.15115 0.43188 0.65768 0.0
H1028 H 0.12171 0.4248 0.63434 0.0
H1029 H 0.14053 0.48364 0.8708 0.0
H1030 H 0.13302 0.51172 0.84265 0.0
H1031 H 0.15994 0.49886 0.81895 0.0
C1032 C 0.9844 0.81326 0.36685 0.0
C1033 C 0.97233 0.80968 0.31083 0.0
C1034 C 0.98405 0.83454 0.39648 0.0
C1035 C 0.97142 0.85269 0.3692 0.0
C1036 C 0.9578 0.84865 0.3153 0.0
C1037 C 0.95841 0.82719 0.28679 0.0
C1038 C 0.99854 0.83806 0.45445 0.0
C1039 C 0.9441 0.86751 0.28474 0.0
C1040 C 0.96493 0.90749 0.46154 0.0
C1041 C 0.98406 0.92056 0.43937 0.0
C1042 C 0.96028 0.88545 0.43857 0.0
C1043 C 0.97499 0.87643 0.39202 0.0
C1044 C 0.99378 0.88993 0.36791 0.0
C1045 C 0.99814 0.91176 0.39206 0.0
C1046 C 0.94015 0.87152 0.46556 0.0
C1047 C 0.00971 0.88109 0.31762 0.0
H1048 H 0.99498 0.79971 0.38601 0.0
H1049 H 0.94924 0.82469 0.24313 0.0
H1050 H 0.01397 0.84907 0.44287 0.0
H1051 H 0.98835 0.84695 0.49069 0.0
H1052 H 0.00478 0.82165 0.47433 0.0
H1053 H 0.93184 0.86085 0.24891 0.0
H1054 H 0.93403 0.87698 0.32006 0.0
H1055 H 0.95634 0.87991 0.26176 0.0
H1056 H 0.95407 0.91414 0.49843 0.0
H1057 H 0.01288 0.9218 0.3745 0.0
H1058 H 0.94694 0.85644 0.4911 0.0
H1059 H 0.92879 0.86499 0.42764 0.0
H1060 H 0.92939 0.88156 0.49824 0.0
H1061 H 0.01899 0.86585 0.33528 0.0
H1062 H 0.02291 0.89411 0.30206 0.0
H1063 H 0.99934 0.87569 0.27652 0.0
C1064 C 0.6691 0.9264 0.34341 0.0
C1065 C 0.68198 0.94605 0.32492 0.0
C1066 C 0.64805 0.92811 0.37689 0.0
C1067 C 0.63936 0.94996 0.3909 0.0
C1068 C 0.65262 0.96978 0.37432 0.0
C1069 C 0.67387 0.96756 0.34251 0.0
C1070 C 0.63489 0.90659 0.39624 0.0
C1071 C 0.64407 0.99343 0.38872 0.0
C1072 C 0.57491 0.96161 0.41418 0.0
C1073 C 0.57439 0.96643 0.47792 0.0
C1074 C 0.59577 0.95482 0.38552 0.0
C1075 C 0.61625 0.95245 0.422 0.0
C1076 C 0.61506 0.95543 0.48743 0.0
C1077 C 0.59425 0.96281 0.51436 0.0
C1078 C 0.59632 0.95196 0.31559 0.0
C1079 C 0.63607 0.95244 0.52885 0.0
H1080 H 0.67498 0.90967 0.32987 0.0
H1081 H 0.68393 0.98283 0.3302 0.0
H1082 H 0.63094 0.9069 0.44701 0.0
H1083 H 0.61797 0.90561 0.37131 0.0
H1084 H 0.64482 0.89092 0.38603 0.0
H1085 H 0.65619 0.00712 0.37124 0.0
H1086 H 0.6267 0.99598 0.36723 0.0
H1087 H 0.64199 0.99533 0.43991 0.0
H1088 H 0.55954 0.96467 0.38613 0.0
H1089 H 0.59376 0.96663 0.56381 0.0
H1090 H 0.60486 0.93575 0.30323 0.0
H1091 H 0.60678 0.96616 0.29407 0.0
H1092 H 0.57856 0.95201 0.29496 0.0
H1093 H 0.64759 0.93882 0.51167 0.0
H1094 H 0.63068 0.94814 0.57753 0.0
H1095 H 0.64635 0.96869 0.52969 0.0
C1096 C 0.50541 0.68892 0.32082 0.0
C1097 C 0.48737 0.70178 0.34652 0.0
C1098 C 0.5115 0.66777 0.34694 0.0
C1099 C 0.49927 0.6593 0.40007 0.0
C1100 C 0.48261 0.67317 0.42969 0.0
C1101 C 0.4768 0.69425 0.40241 0.0
C1102 C 0.52941 0.65357 0.31401 0.0
C1103 C 0.46947 0.66491 0.48711 0.0
C1104 C 0.48608 0.5957 0.41126 0.0
C1105 C 0.50178 0.58855 0.45721 0.0
C1106 C 0.4856 0.61856 0.39127 0.0
C1107 C 0.50105 0.63479 0.41836 0.0
C1108 C 0.51748 0.62758 0.46337 0.0
C1109 C 0.51773 0.60446 0.48211 0.0
C1110 C 0.46805 0.62546 0.34233 0.0
C1111 C 0.53414 0.6444 0.49342 0.0
H1112 H 0.51354 0.69444 0.27727 0.0
H1113 H 0.46306 0.70425 0.4229 0.0
H1114 H 0.54125 0.64536 0.34808 0.0
H1115 H 0.52038 0.63973 0.28794 0.0
H1116 H 0.54006 0.66396 0.28034 0.0
H1117 H 0.45988 0.67892 0.50984 0.0
H1118 H 0.45666 0.65138 0.47381 0.0
H1119 H 0.48156 0.65728 0.52158 0.0
H1120 H 0.4738 0.58345 0.39166 0.0
H1121 H 0.52978 0.59906 0.51806 0.0
H1122 H 0.47703 0.63428 0.30263 0.0
H1123 H 0.45558 0.63767 0.3625 0.0
H1124 H 0.45799 0.61058 0.32404 0.0
H1125 H 0.54345 0.65483 0.45726 0.0
H1126 H 0.54722 0.63577 0.52324 0.0
H1127 H 0.52418 0.65635 0.52278 0.0
C1128 C 0.81034 0.56855 0.39806 0.0
C1129 C 0.80977 0.58266 0.34464 0.0
C1130 C 0.83168 0.56172 0.42396 0.0
C1131 C 0.85294 0.56897 0.39535 0.0
C1132 C 0.85248 0.58418 0.34355 0.0
C1133 C 0.83095 0.59084 0.3189 0.0
C1134 C 0.83145 0.54577 0.47993 0.0
C1135 C 0.8747 0.59226 0.31149 0.0
C1136 C 0.91056 0.55851 0.47878 0.0
C1137 C 0.91711 0.53762 0.45307 0.0
C1138 C 0.88974 0.56905 0.46048 0.0
C1139 C 0.8754 0.55859 0.41477 0.0
C1140 C 0.88242 0.53789 0.38725 0.0
C1141 C 0.90306 0.52758 0.40715 0.0
C1142 C 0.88269 0.5909 0.49158 0.0
C1143 C 0.86787 0.52634 0.33763 0.0
H1144 H 0.79408 0.56233 0.41856 0.0
H1145 H 0.83079 0.60143 0.27704 0.0
H1146 H 0.83729 0.52862 0.46559 0.0
H1147 H 0.84379 0.55203 0.516 0.0
H1148 H 0.81379 0.54392 0.50116 0.0
H1149 H 0.87153 0.60596 0.27634 0.0
H1150 H 0.88746 0.59876 0.34618 0.0
H1151 H 0.88282 0.57766 0.28752 0.0
H1152 H 0.92117 0.5661 0.51521 0.0
H1153 H 0.90805 0.5114 0.38733 0.0
H1154 H 0.86653 0.58776 0.51932 0.0
H1155 H 0.87874 0.60418 0.45594 0.0
H1156 H 0.89646 0.59765 0.52314 0.0
H1157 H 0.85051 0.52142 0.35708 0.0
H1158 H 0.87621 0.51076 0.31937 0.0
H1159 H 0.86495 0.53834 0.29804 0.0
loop_
_geom_bond_atom_site_label_1
_geom_bond_atom_site_label_2
_geom_bond_distance
_geom_bond_site_symmetry_2
_ccdc_geom_bond_type
C0 C1 1.386 . S
C0 C2 1.397 . S
C0 H24 0.931 . S
C1 C0 1.386 . S
C1 C5 1.397 . S
C2 C0 1.397 . S
C2 C3 1.384 . S
C2 H25 0.930 . S
C3 C2 1.384 . S
C3 C4 1.377 . S
C3 C6 1.481 . S
C4 C3 1.377 . S
C4 C5 1.389 . S
C4 H26 0.929 . S
C5 C1 1.397 . S
C5 C4 1.389 . S
C5 H27 0.931 . S
C6 C3 1.481 . S
C6 C7 1.387 . S
C6 C11 1.390 1_556 S
C7 C6 1.387 . S
C7 C8 1.401 . S
C7 H28 0.930 . S
C8 C7 1.401 . S
C8 C9 1.376 1_556 S
C8 C17 1.511 . S
C9 C8 1.376 1_554 S
C9 C10 1.392 . S
C9 H30 0.931 . S
C10 C9 1.392 . S
C10 C11 1.361 . S
C10 C12 1.500 . S
C11 C6 1.390 1_554 S
C11 C10 1.361 . S
C11 H29 0.931 . S
C12 C10 1.500 . S
C12 C13 1.371 . S
C12 C14 1.365 . S
C13 C12 1.371 . S
C13 C23 1.386 . S
C13 H31 0.931 . S
C14 C12 1.365 . S
C14 C15 1.409 . S
C14 H32 0.929 . S
C15 C14 1.409 . S
C15 C16 1.380 . S
C15 H33 0.930 . S
C16 C15 1.380 . S
C16 C23 1.357 . S
C17 C8 1.511 . S
C17 C18 1.341 . S
C17 C19 1.371 1_556 S
C18 C17 1.341 . S
C18 C22 1.394 . S
C18 H34 0.930 . S
C19 C17 1.371 1_554 S
C19 C20 1.392 . S
C19 H35 0.931 . S
C20 C19 1.392 . S
C20 C21 1.331 1_554 S
C20 H38 0.932 . S
C21 C20 1.331 1_556 S
C21 C22 1.336 . S
C22 C18 1.394 . S
C22 C21 1.336 . S
C22 H37 0.929 . S
C23 C13 1.386 . S
C23 C16 1.357 . S
C23 H36 0.928 . S
H24 C0 0.931 . S
H25 C2 0.930 . S
H26 C4 0.929 . S
H27 C5 0.931 . S
H28 C7 0.930 . S
H29 C11 0.931 . S
H30 C9 0.931 . S
H31 C13 0.931 . S
H32 C14 0.929 . S
H33 C15 0.930 . S
H34 C18 0.930 . S
H35 C19 0.931 . S
H36 C23 0.928 . S
H37 C22 0.929 . S
H38 C20 0.932 . S
C39 C40 1.394 . S
C39 C41 1.397 . S
C39 H63 0.931 . S
C40 C39 1.394 . S
C40 C44 1.389 1_655 S
C41 C39 1.397 . S
C41 C42 1.389 . S
C41 H64 0.930 . S
C42 C41 1.389 . S
C42 C43 1.373 1_655 S
C42 C45 1.481 . S
C43 C42 1.373 1_455 S
C43 C44 1.389 . S
C43 H65 0.929 . S
C44 C40 1.389 1_455 S
C44 C43 1.389 . S
C44 H66 0.931 . S
C45 C42 1.481 . S
C45 C46 1.388 . S
C45 C50 1.390 1_556 S
C46 C45 1.388 . S
C46 C47 1.403 1_556 S
C46 H67 0.930 . S
C47 C46 1.403 1_554 S
C47 C48 1.376 . S
C47 C56 1.512 . S
C48 C47 1.376 . S
C48 C49 1.392 . S
C48 H69 0.934 . S
C49 C48 1.392 . S
C49 C50 1.361 . S
C49 C51 1.499 1_655 S
C50 C45 1.390 1_554 S
C50 C49 1.361 . S
C50 H68 0.931 . S
C51 C49 1.499 1_455 S
C51 C52 1.362 1_455 S
C51 C53 1.374 . S
C52 C51 1.362 1_655 S
C52 C62 1.386 . S
C52 H70 0.931 . S
C53 C51 1.374 . S
C53 C54 1.409 . S
C53 H71 0.929 . S
C54 C53 1.409 . S
C54 C55 1.379 . S
C54 H72 0.930 . S
C55 C54 1.379 . S
C55 C62 1.358 1_455 S
C56 C47 1.512 . S
C56 C57 1.341 1_554 S
C56 C58 1.371 1_655 S
C57 C56 1.341 1_556 S
C57 C61 1.394 . S
C57 H73 0.930 . S
C58 C56 1.371 1_455 S
C58 C59 1.392 . S
C58 H74 0.931 . S
C59 C58 1.392 . S
C59 C60 1.322 1_454 S
C59 H77 0.932 . S
C60 C59 1.322 1_656 S
C60 C61 1.346 . S
C61 C57 1.394 . S
C61 C60 1.346 . S
C61 H76 0.929 . S
C62 C52 1.386 . S
C62 C55 1.358 1_655 S
C62 H75 0.928 . S
H63 C39 0.931 . S
H64 C41 0.930 . S
H65 C43 0.929 . S
H66 C44 0.931 . S
H67 C46 0.930 . S
H68 C50 0.931 . S
H69 C48 0.934 . S
H70 C52 0.931 . S
H71 C53 0.929 . S
H72 C54 0.930 . S
H73 C57 0.930 . S
H74 C58 0.931 . S
H75 C62 0.928 . S
H76 C61 0.929 . S
H77 C59 0.932 . S
C78 C79 1.386 . S
C78 C80 1.397 . S
C78 H102 0.931 . S
C79 C78 1.386 . S
C79 C83 1.397 . S
C80 C78 1.397 . S
C80 C81 1.384 . S
C80 H103 0.930 . S
C81 C80 1.384 . S
C81 C82 1.377 . S
C81 C84 1.481 . S
C82 C81 1.377 . S
C82 C83 1.389 . S
C82 H104 0.929 . S
C83 C79 1.397 . S
C83 C82 1.389 . S
C83 H105 0.931 . S
C84 C81 1.481 . S
C84 C85 1.387 . S
C84 C89 1.390 1_556 S
C85 C84 1.387 . S
C85 C86 1.401 1_556 S
C85 H106 0.930 . S
C86 C85 1.401 1_554 S
C86 C87 1.376 . S
C86 C95 1.511 . S
C87 C86 1.376 . S
C87 C88 1.392 . S
C87 H108 0.931 . S
C88 C87 1.392 . S
C88 C89 1.361 . S
C88 C90 1.500 . S
C89 C84 1.390 1_554 S
C89 C88 1.361 . S
C89 H107 0.931 . S
C90 C88 1.500 . S
C90 C91 1.371 . S
C90 C92 1.365 . S
C91 C90 1.371 . S
C91 C101 1.386 . S
C91 H109 0.931 . S
C92 C90 1.365 . S
C92 C93 1.409 . S
C92 H110 0.929 . S
C93 C92 1.409 . S
C93 C94 1.380 . S
C93 H111 0.930 . S
C94 C93 1.380 . S
C94 C101 1.357 . S
C95 C86 1.511 . S
C95 C96 1.341 1_554 S
C95 C97 1.371 . S
C96 C95 1.341 1_556 S
C96 C100 1.394 . S
C96 H112 0.930 . S
C97 C95 1.371 . S
C97 C98 1.392 . S
C97 H113 0.931 . S
C98 C97 1.392 . S
C98 C99 1.331 1_554 S
C98 H116 0.932 . S
C99 C98 1.331 1_556 S
C99 C100 1.336 . S
C100 C96 1.394 . S
C100 C99 1.336 . S
C100 H115 0.929 . S
C101 C91 1.386 . S
C101 C94 1.357 . S
C101 H114 0.928 . S
H102 C78 0.931 . S
H103 C80 0.930 . S
H104 C82 0.929 . S
H105 C83 0.931 . S
H106 C85 0.930 . S
H107 C89 0.931 . S
H108 C87 0.931 . S
H109 C91 0.931 . S
H110 C92 0.929 . S
H111 C93 0.930 . S
H112 C96 0.930 . S
H113 C97 0.931 . S
H114 C101 0.928 . S
H115 C100 0.929 . S
H116 C98 0.932 . S
C117 C118 1.386 . S
C117 C119 1.397 . S
C117 H141 0.931 . S
C118 C117 1.386 . S
C118 C122 1.397 . S
C119 C117 1.397 . S
C119 C120 1.384 . S
C119 H142 0.930 . S
C120 C119 1.384 . S
C120 C121 1.377 . S
C120 C123 1.481 . S
C121 C120 1.377 . S
C121 C122 1.389 . S
C121 H143 0.929 . S
C122 C118 1.397 . S
C122 C121 1.389 . S
C122 H144 0.931 . S
C123 C120 1.481 . S
C123 C124 1.387 . S
C123 C128 1.390 . S
C124 C123 1.387 . S
C124 C125 1.401 . S
C124 H145 0.930 . S
C125 C124 1.401 . S
C125 C126 1.376 1_554 S
C125 C134 1.511 . S
C126 C125 1.376 1_556 S
C126 C127 1.392 . S
C126 H147 0.931 . S
C127 C126 1.392 . S
C127 C128 1.361 1_556 S
C127 C129 1.500 . S
C128 C123 1.390 . S
C128 C127 1.361 1_554 S
C128 H146 0.931 . S
C129 C127 1.500 . S
C129 C130 1.371 . S
C129 C131 1.365 . S
C130 C129 1.371 . S
C130 C140 1.386 . S
C130 H148 0.931 . S
C131 C129 1.365 . S
C131 C132 1.409 . S
C131 H149 0.929 . S
C132 C131 1.409 . S
C132 C133 1.380 . S
C132 H150 0.930 . S
C133 C132 1.380 . S
C133 C140 1.357 . S
C134 C125 1.511 . S
C134 C135 1.341 . S
C134 C136 1.371 1_554 S
C135 C134 1.341 . S
C135 C139 1.394 . S
C135 H151 0.930 . S
C136 C134 1.371 1_556 S
C136 C137 1.392 . S
C136 H152 0.931 . S
C137 C136 1.392 . S
C137 C138 1.331 . S
C137 H155 0.932 . S
C138 C137 1.331 . S
C138 C139 1.336 1_556 S
C139 C135 1.394 . S
C139 C138 1.336 1_554 S
C139 H154 0.929 . S
C140 C130 1.386 . S
C140 C133 1.357 . S
C140 H153 0.928 . S
H141 C117 0.931 . S
H142 C119 0.930 . S
H143 C121 0.929 . S
H144 C122 0.931 . S
H145 C124 0.930 . S
H146 C128 0.931 . S
H147 C126 0.931 . S
H148 C130 0.931 . S
H149 C131 0.929 . S
H150 C132 0.930 . S
H151 C135 0.930 . S
H152 C136 0.931 . S
H153 C140 0.928 . S
H154 C139 0.929 . S
H155 C137 0.932 . S
C156 C157 1.386 . S
C156 C158 1.397 . S
C156 H180 0.931 . S
C157 C156 1.386 . S
C157 C161 1.397 . S
C158 C156 1.397 . S
C158 C159 1.384 . S
C158 H181 0.930 . S
C159 C158 1.384 . S
C159 C160 1.377 . S
C159 C162 1.481 . S
C160 C159 1.377 . S
C160 C161 1.389 . S
C160 H182 0.929 . S
C161 C157 1.397 . S
C161 C160 1.389 . S
C161 H183 0.931 . S
C162 C159 1.481 . S
C162 C163 1.387 . S
C162 C167 1.390 . S
C163 C162 1.387 . S
C163 C164 1.401 . S
C163 H184 0.930 . S
C164 C163 1.401 . S
C164 C165 1.376 . S
C164 C173 1.511 . S
C165 C164 1.376 . S
C165 C166 1.392 . S
C165 H186 0.931 . S
C166 C165 1.392 . S
C166 C167 1.361 . S
C166 C168 1.500 . S
C167 C162 1.390 . S
C167 C166 1.361 . S
C167 H185 0.931 . S
C168 C166 1.500 . S
C168 C169 1.371 1_554 S
C168 C170 1.365 . S
C169 C168 1.371 1_556 S
C169 C179 1.386 . S
C169 H187 0.931 1_556 S
C170 C168 1.365 . S
C170 C171 1.409 1_554 S
C170 H188 0.929 . S
C171 C170 1.409 1_556 S
C171 C172 1.380 . S
C171 H189 0.930 . S
C172 C171 1.380 . S
C172 C179 1.357 . S
C173 C164 1.511 . S
C173 C174 1.341 . S
C173 C175 1.371 . S
C174 C173 1.341 . S
C174 C178 1.394 . S
C174 H190 0.930 . S
C175 C173 1.371 . S
C175 C176 1.392 . S
C175 H191 0.931 . S
C176 C175 1.392 . S
C176 C177 1.331 . S
C176 H194 0.932 . S
C177 C176 1.331 . S
C177 C178 1.336 . S
C178 C174 1.394 . S
C178 C177 1.336 . S
C178 H193 0.929 . S
C179 C169 1.386 . S
C179 C172 1.357 . S
C179 H192 0.928 . S
H180 C156 0.931 . S
H181 C158 0.930 . S
H182 C160 0.929 . S
H183 C161 0.931 . S
H184 C163 0.930 . S
H185 C167 0.931 . S
H186 C165 0.931 . S
H187 C169 0.931 1_554 S
H188 C170 0.929 . S
H189 C171 0.930 . S
H190 C174 0.930 . S
H191 C175 0.931 . S
H192 C179 0.928 . S
H193 C178 0.929 . S
H194 C176 0.932 . S
C195 C196 1.388 . S
C195 C197 1.397 . S
C195 H219 0.931 . S
C196 C195 1.388 . S
C196 C200 1.395 1_655 S
C197 C195 1.397 . S
C197 C198 1.382 . S
C197 H220 0.930 . S
C198 C197 1.382 . S
C198 C199 1.379 1_655 S
C198 C201 1.480 . S
C199 C198 1.379 1_455 S
C199 C200 1.389 . S
C199 H221 0.929 . S
C200 C196 1.395 1_455 S
C200 C199 1.389 . S
C200 H222 0.931 . S
C201 C198 1.480 . S
C201 C202 1.388 . S
C201 C206 1.390 . S
C202 C201 1.388 . S
C202 C203 1.401 . S
C202 H223 0.930 . S
C203 C202 1.401 . S
C203 C204 1.376 . S
C203 C212 1.512 . S
C204 C203 1.376 . S
C204 C205 1.391 1_655 S
C204 H225 0.934 . S
C205 C204 1.391 1_455 S
C205 C206 1.361 1_455 S
C205 C207 1.499 . S
C206 C201 1.390 . S
C206 C205 1.361 1_655 S
C206 H224 0.931 . S
C207 C205 1.499 . S
C207 C208 1.357 1_454 S
C207 C209 1.381 . S
C208 C207 1.357 1_656 S
C208 C218 1.386 . S
C208 H226 0.931 . S
C209 C207 1.381 . S
C209 C210 1.409 1_554 S
C209 H227 0.929 . S
C210 C209 1.409 1_556 S
C210 C211 1.384 . S
C210 H228 0.930 . S
C211 C210 1.384 . S
C211 C218 1.353 1_455 S
C212 C203 1.512 . S
C212 C213 1.341 . S
C212 C214 1.371 1_655 S
C213 C212 1.341 . S
C213 C217 1.394 . S
C213 H229 0.930 . S
C214 C212 1.371 1_455 S
C214 C215 1.392 . S
C214 H230 0.931 . S
C215 C214 1.392 . S
C215 C216 1.326 1_455 S
C215 H233 0.932 . S
C216 C215 1.326 1_655 S
C216 C217 1.341 . S
C217 C213 1.394 . S
C217 C216 1.341 . S
C217 H232 0.929 . S
C218 C208 1.386 . S
C218 C211 1.353 1_655 S
C218 H231 0.928 . S
H219 C195 0.931 . S
H220 C197 0.930 . S
H221 C199 0.929 . S
H222 C200 0.931 . S
H223 C202 0.930 . S
H224 C206 0.931 . S
H225 C204 0.934 . S
H226 C208 0.931 . S
H227 C209 0.929 . S
H228 C210 0.930 . S
H229 C213 0.930 . S
H230 C214 0.931 . S
H231 C218 0.928 . S
H232 C217 0.929 . S
H233 C215 0.932 . S
C234 C235 1.386 . S
C234 C236 1.397 . S
C234 H258 0.931 . S
C235 C234 1.386 . S
C235 C239 1.397 . S
C236 C234 1.397 . S
C236 C237 1.384 . S
C236 H259 0.930 . S
C237 C236 1.384 . S
C237 C238 1.377 . S
C237 C240 1.481 . S
C238 C237 1.377 . S
C238 C239 1.389 . S
C238 H260 0.929 . S
C239 C235 1.397 . S
C239 C238 1.389 . S
C239 H261 0.931 . S
C240 C237 1.481 . S
C240 C241 1.387 . S
C240 C245 1.390 . S
C241 C240 1.387 . S
C241 C242 1.401 . S
C241 H262 0.930 . S
C242 C241 1.401 . S
C242 C243 1.376 . S
C242 C251 1.511 . S
C243 C242 1.376 . S
C243 C244 1.392 . S
C243 H264 0.931 . S
C244 C243 1.392 . S
C244 C245 1.361 . S
C244 C246 1.500 . S
C245 C240 1.390 . S
C245 C244 1.361 . S
C245 H263 0.931 . S
C246 C244 1.500 . S
C246 C247 1.371 1_554 S
C246 C248 1.365 . S
C247 C246 1.371 1_556 S
C247 C257 1.386 . S
C247 H265 0.931 . S
C248 C246 1.365 . S
C248 C249 1.409 1_554 S
C248 H266 0.929 . S
C249 C248 1.409 1_556 S
C249 C250 1.380 . S
C249 H267 0.930 . S
C250 C249 1.380 . S
C250 C257 1.357 . S
C251 C242 1.511 . S
C251 C252 1.341 . S
C251 C253 1.371 . S
C252 C251 1.341 . S
C252 C256 1.394 . S
C252 H268 0.930 . S
C253 C251 1.371 . S
C253 C254 1.392 . S
C253 H269 0.931 . S
C254 C253 1.392 . S
C254 C255 1.331 . S
C254 H272 0.932 . S
C255 C254 1.331 . S
C255 C256 1.336 . S
C256 C252 1.394 . S
C256 C255 1.336 . S
C256 H271 0.929 . S
C257 C247 1.386 . S
C257 C250 1.357 . S
C257 H270 0.928 . S
H258 C234 0.931 . S
H259 C236 0.930 . S
H260 C238 0.929 . S
H261 C239 0.931 . S
H262 C241 0.930 . S
H263 C245 0.931 . S
H264 C243 0.931 . S
H265 C247 0.931 . S
H266 C248 0.929 . S
H267 C249 0.930 . S
H268 C252 0.930 . S
H269 C253 0.931 . S
H270 C257 0.928 . S
H271 C256 0.929 . S
H272 C254 0.932 . S
C273 C274 1.386 . S
C273 C275 1.397 . S
C273 H297 0.931 . S
C274 C273 1.386 . S
C274 C278 1.397 . S
C275 C273 1.397 . S
C275 C276 1.384 1_556 S
C275 H298 0.930 . S
C276 C275 1.384 1_554 S
C276 C277 1.378 . S
C276 C279 1.481 . S
C277 C276 1.378 . S
C277 C278 1.387 1_554 S
C277 H299 0.931 . S
C278 C274 1.397 . S
C278 C277 1.387 1_556 S
C278 H300 0.931 . S
C279 C276 1.481 . S
C279 C280 1.387 . S
C279 C284 1.390 . S
C280 C279 1.387 . S
C280 C281 1.401 . S
C280 H301 0.930 . S
C281 C280 1.401 . S
C281 C282 1.376 . S
C281 C290 1.511 . S
C282 C281 1.376 . S
C282 C283 1.392 . S
C282 H303 0.931 . S
C283 C282 1.392 . S
C283 C284 1.361 . S
C283 C285 1.500 . S
C284 C279 1.390 . S
C284 C283 1.361 . S
C284 H302 0.931 . S
C285 C283 1.500 . S
C285 C286 1.371 . S
C285 C287 1.365 . S
C286 C285 1.371 . S
C286 C296 1.386 . S
C286 H304 0.931 . S
C287 C285 1.365 . S
C287 C288 1.409 . S
C287 H305 0.929 . S
C288 C287 1.409 . S
C288 C289 1.380 . S
C288 H306 0.930 . S
C289 C288 1.380 . S
C289 C296 1.357 . S
C290 C281 1.511 . S
C290 C291 1.341 . S
C290 C292 1.371 . S
C291 C290 1.341 . S
C291 C295 1.394 . S
C291 H307 0.930 . S
C292 C290 1.371 . S
C292 C293 1.392 . S
C292 H308 0.931 . S
C293 C292 1.392 . S
C293 C294 1.331 . S
C293 H311 0.932 . S
C294 C293 1.331 . S
C294 C295 1.336 . S
C295 C291 1.394 . S
C295 C294 1.336 . S
C295 H310 0.929 . S
C296 C286 1.386 . S
C296 C289 1.357 . S
C296 H309 0.928 . S
H297 C273 0.931 . S
H298 C275 0.930 . S
H299 C277 0.931 . S
H300 C278 0.931 . S
H301 C280 0.930 . S
H302 C284 0.931 . S
H303 C282 0.931 . S
H304 C286 0.931 . S
H305 C287 0.929 . S
H306 C288 0.930 . S
H307 C291 0.930 . S
H308 C292 0.931 . S
H309 C296 0.928 . S
H310 C295 0.929 . S
H311 C293 0.932 . S
Zn312 O318 1.969 . S
Zn312 O319 1.965 1_655 S
Zn312 O323 2.024 1_655 S
Zn312 O328 1.969 . S
Zn313 O320 1.969 . S
Zn313 O326 1.969 . S
Zn313 O327 1.965 1_455 S
Zn313 O329 2.024 1_455 S
C314 O315 1.229 1_455 S
C314 O323 1.058 . S
O315 C314 1.229 1_655 S
C316 O317 1.229 1_655 S
C316 O329 1.058 . S
O317 C316 1.229 1_455 S
O318 Zn312 1.969 . S
O318 C321 1.267 . S
O319 Zn312 1.965 1_455 S
O319 C330 1.260 . S
O320 Zn313 1.969 . S
O320 C330 1.258 1_565 S
C321 O318 1.267 . S
C321 O322 1.228 1_655 S
O322 C321 1.228 1_455 S
O323 Zn312 2.024 1_455 S
O323 C314 1.058 . S
C324 O325 1.228 1_455 S
C324 O326 1.267 . S
O325 C324 1.228 1_655 S
O326 Zn313 1.969 . S
O326 C324 1.267 . S
O327 Zn313 1.965 1_655 S
O327 C331 1.260 1_565 S
O328 Zn312 1.969 . S
O328 C331 1.258 . S
O329 Zn313 2.024 1_655 S
O329 C316 1.058 . S
C330 O319 1.260 . S
C330 O320 1.258 1_545 S
C331 O327 1.260 1_545 S
C331 O328 1.258 . S
Zn332 O338 1.969 . S
Zn332 O339 1.965 . S
Zn332 O343 2.024 . S
Zn332 O348 1.969 1_545 S
Zn333 O340 1.969 1_565 S
Zn333 O346 1.969 1_565 S
Zn333 O347 1.965 . S
Zn333 O349 2.024 . S
C334 O335 1.229 . S
C334 O343 1.058 . S
O335 C334 1.229 . S
C336 O337 1.229 . S
C336 O349 1.058 . S
O337 C336 1.229 . S
O338 Zn332 1.969 . S
O338 C341 1.267 . S
O339 Zn332 1.965 . S
O339 C350 1.260 . S
O340 Zn333 1.969 1_545 S
O340 C350 1.258 . S
C341 O338 1.267 . S
C341 O342 1.228 . S
O342 C341 1.228 . S
O343 Zn332 2.024 . S
O343 C334 1.058 . S
C344 O345 1.228 . S
C344 O346 1.267 1_565 S
O345 C344 1.228 . S
O346 Zn333 1.969 1_545 S
O346 C344 1.267 1_545 S
O347 Zn333 1.965 . S
O347 C351 1.260 . S
O348 Zn332 1.969 1_565 S
O348 C351 1.258 . S
O349 Zn333 2.024 . S
O349 C336 1.058 . S
C350 O339 1.260 . S
C350 O340 1.258 . S
C351 O347 1.260 . S
C351 O348 1.258 . S
Zn352 O358 1.969 . S
Zn352 O359 1.965 . S
Zn352 O363 2.024 . S
Zn352 O368 1.969 . S
Zn353 O360 1.969 . S
Zn353 O366 1.969 . S
Zn353 O367 1.965 . S
Zn353 O369 2.024 . S
C354 O355 1.229 . S
C354 O363 1.058 . S
O355 C354 1.229 . S
C356 O357 1.229 . S
C356 O369 1.058 . S
O357 C356 1.229 . S
O358 Zn352 1.969 . S
O358 C361 1.267 . S
O359 Zn352 1.965 . S
O359 C370 1.260 . S
O360 Zn353 1.969 . S
O360 C370 1.258 . S
C361 O358 1.267 . S
C361 O362 1.228 . S
O362 C361 1.228 . S
O363 Zn352 2.024 . S
O363 C354 1.058 . S
C364 O365 1.228 . S
C364 O366 1.267 . S
O365 C364 1.228 . S
O366 Zn353 1.969 . S
O366 C364 1.267 . S
O367 Zn353 1.965 . S
O367 C371 1.260 . S
O368 Zn352 1.969 . S
O368 C371 1.258 . S
O369 Zn353 2.024 . S
O369 C356 1.058 . S
C370 O359 1.260 . S
C370 O360 1.258 . S
C371 O367 1.260 . S
C371 O368 1.258 . S
Zn372 O378 1.969 . S
Zn372 O379 1.965 . S
Zn372 O383 2.024 . S
Zn372 O388 1.969 . S
Zn373 O380 1.969 . S
Zn373 O386 1.969 . S
Zn373 O387 1.965 . S
Zn373 O389 2.024 . S
C374 O375 1.229 . S
C374 O383 1.058 . S
O375 C374 1.229 . S
C376 O377 1.229 . S
C376 O389 1.058 . S
O377 C376 1.229 . S
O378 Zn372 1.969 . S
O378 C381 1.267 . S
O379 Zn372 1.965 . S
O379 C390 1.260 1_455 S
O380 Zn373 1.969 . S
O380 C390 1.258 . S
C381 O378 1.267 . S
C381 O382 1.228 . S
O382 C381 1.228 . S
O383 Zn372 2.024 . S
O383 C374 1.058 . S
C384 O385 1.228 . S
C384 O386 1.267 . S
O385 C384 1.228 . S
O386 Zn373 1.969 . S
O386 C384 1.267 . S
O387 Zn373 1.965 . S
O387 C391 1.260 1_655 S
O388 Zn372 1.969 . S
O388 C391 1.258 . S
O389 Zn373 2.024 . S
O389 C376 1.058 . S
C390 O379 1.260 1_655 S
C390 O380 1.258 . S
C391 O387 1.260 1_455 S
C391 O388 1.258 . S
C392 C393 1.391 . S
C392 C394 1.394 . S
C392 H408 0.931 . S
C393 C392 1.391 . S
C393 C397 1.376 . S
C394 C392 1.394 . S
C394 C395 1.369 . S
C394 C398 1.531 . S
C395 C394 1.369 . S
C395 C396 1.410 . S
C395 C403 1.503 . S
C396 C395 1.410 . S
C396 C397 1.392 . S
C396 C399 1.511 . S
C397 C393 1.376 . S
C397 C396 1.392 . S
C397 H409 0.929 . S
C398 C394 1.531 . S
C398 H410 0.960 . S
C398 H411 0.962 . S
C398 H412 0.960 . S
C399 C396 1.511 . S
C399 H413 0.961 . S
C399 H414 0.961 . S
C399 H415 0.961 . S
C400 C401 1.370 . S
C400 C402 1.363 . S
C400 H416 0.931 1_545 S
C401 C400 1.370 . S
C401 C405 1.408 . S
C402 C400 1.363 . S
C402 C403 1.370 . S
C402 C406 1.524 . S
C403 C395 1.503 . S
C403 C402 1.370 . S
C403 C404 1.403 . S
C404 C403 1.403 . S
C404 C405 1.404 . S
C404 C407 1.539 . S
C405 C401 1.408 . S
C405 C404 1.404 . S
C405 H417 0.930 . S
C406 C402 1.524 . S
C406 H418 0.956 . S
C406 H419 0.961 . S
C406 H420 0.961 1_545 S
C407 C404 1.539 . S
C407 H421 0.958 . S
C407 H422 0.961 . S
C407 H423 0.960 . S
H408 C392 0.931 . S
H409 C397 0.929 . S
H410 C398 0.960 . S
H411 C398 0.962 . S
H412 C398 0.960 . S
H413 C399 0.961 . S
H414 C399 0.961 . S
H415 C399 0.961 . S
H416 C400 0.931 1_565 S
H417 C405 0.930 . S
H418 C406 0.956 . S
H419 C406 0.961 . S
H420 C406 0.961 1_565 S
H421 C407 0.958 . S
H422 C407 0.961 . S
H423 C407 0.960 . S
C424 C425 1.391 . S
C424 C426 1.394 . S
C424 H440 0.931 . S
C425 C424 1.391 . S
C425 C429 1.376 . S
C426 C424 1.394 . S
C426 C427 1.369 . S
C426 C430 1.531 . S
C427 C426 1.369 . S
C427 C428 1.410 . S
C427 C435 1.503 . S
C428 C427 1.410 . S
C428 C429 1.392 . S
C428 C431 1.511 . S
C429 C425 1.376 . S
C429 C428 1.392 . S
C429 H441 0.929 . S
C430 C426 1.531 . S
C430 H442 0.960 . S
C430 H443 0.962 . S
C430 H444 0.960 . S
C431 C428 1.511 . S
C431 H445 0.961 . S
C431 H446 0.961 . S
C431 H447 0.961 . S
C432 C433 1.370 . S
C432 C434 1.363 . S
C432 H448 0.931 . S
C433 C432 1.370 . S
C433 C437 1.408 . S
C434 C432 1.363 . S
C434 C435 1.370 . S
C434 C438 1.524 . S
C435 C427 1.503 . S
C435 C434 1.370 . S
C435 C436 1.403 . S
C436 C435 1.403 . S
C436 C437 1.404 . S
C436 C439 1.539 . S
C437 C433 1.408 . S
C437 C436 1.404 . S
C437 H449 0.930 . S
C438 C434 1.524 . S
C438 H450 0.956 . S
C438 H451 0.961 . S
C438 H452 0.961 . S
C439 C436 1.539 . S
C439 H453 0.958 . S
C439 H454 0.961 . S
C439 H455 0.960 . S
H440 C424 0.931 . S
H441 C429 0.929 . S
H442 C430 0.960 . S
H443 C430 0.962 . S
H444 C430 0.960 . S
H445 C431 0.961 . S
H446 C431 0.961 . S
H447 C431 0.961 . S
H448 C432 0.931 . S
H449 C437 0.930 . S
H450 C438 0.956 . S
H451 C438 0.961 . S
H452 C438 0.961 . S
H453 C439 0.958 . S
H454 C439 0.961 . S
H455 C439 0.960 . S
C456 C457 1.391 . S
C456 C458 1.394 . S
C456 H472 0.931 . S
C457 C456 1.391 . S
C457 C461 1.376 . S
C458 C456 1.394 . S
C458 C459 1.369 . S
C458 C462 1.531 . S
C459 C458 1.369 . S
C459 C460 1.410 . S
C459 C467 1.503 . S
C460 C459 1.410 . S
C460 C461 1.392 . S
C460 C463 1.511 . S
C461 C457 1.376 . S
C461 C460 1.392 . S
C461 H473 0.929 . S
C462 C458 1.531 . S
C462 H474 0.960 . S
C462 H475 0.962 . S
C462 H476 0.960 . S
C463 C460 1.511 . S
C463 H477 0.961 . S
C463 H478 0.961 . S
C463 H479 0.961 . S
C464 C465 1.370 . S
C464 C466 1.363 . S
C464 H480 0.931 . S
C465 C464 1.370 . S
C465 C469 1.408 . S
C466 C464 1.363 . S
C466 C467 1.370 . S
C466 C470 1.524 . S
C467 C459 1.503 . S
C467 C466 1.370 . S
C467 C468 1.403 . S
C468 C467 1.403 . S
C468 C469 1.404 . S
C468 C471 1.539 . S
C469 C465 1.408 . S
C469 C468 1.404 . S
C469 H481 0.930 . S
C470 C466 1.524 . S
C470 H482 0.956 . S
C470 H483 0.961 . S
C470 H484 0.961 . S
C471 C468 1.539 . S
C471 H485 0.958 . S
C471 H486 0.961 . S
C471 H487 0.960 . S
H472 C456 0.931 . S
H473 C461 0.929 . S
H474 C462 0.960 . S
H475 C462 0.962 . S
H476 C462 0.960 . S
H477 C463 0.961 . S
H478 C463 0.961 . S
H479 C463 0.961 . S
H480 C464 0.931 . S
H481 C469 0.930 . S
H482 C470 0.956 . S
H483 C470 0.961 . S
H484 C470 0.961 . S
H485 C471 0.958 . S
H486 C471 0.961 . S
H487 C471 0.960 . S
C488 C489 1.378 1_655 S
C488 C490 1.394 . S
C488 H504 0.931 . S
C489 C488 1.378 1_455 S
C489 C493 1.389 . S
C490 C488 1.394 . S
C490 C491 1.373 . S
C490 C494 1.531 . S
C491 C490 1.373 . S
C491 C492 1.405 1_655 S
C491 C499 1.504 . S
C492 C491 1.405 1_455 S
C492 C493 1.392 . S
C492 C495 1.511 . S
C493 C489 1.389 . S
C493 C492 1.392 . S
C493 H505 0.929 . S
C494 C490 1.531 . S
C494 H506 0.960 . S
C494 H507 0.962 . S
C494 H508 0.960 . S
C495 C492 1.511 . S
C495 H509 0.961 . S
C495 H510 0.961 . S
C495 H511 0.961 . S
C496 C497 1.370 . S
C496 C498 1.363 . S
C496 H512 0.931 . S
C497 C496 1.370 . S
C497 C501 1.408 1_655 S
C498 C496 1.363 . S
C498 C499 1.370 . S
C498 C502 1.524 . S
C499 C491 1.504 . S
C499 C498 1.370 . S
C499 C500 1.403 1_655 S
C500 C499 1.403 1_455 S
C500 C501 1.404 . S
C500 C503 1.539 . S
C501 C497 1.408 1_455 S
C501 C500 1.404 . S
C501 H513 0.930 . S
C502 C498 1.524 . S
C502 H514 0.956 . S
C502 H515 0.961 . S
C502 H516 0.961 . S
C503 C500 1.539 . S
C503 H517 0.958 . S
C503 H518 0.961 . S
C503 H519 0.960 . S
H504 C488 0.931 . S
H505 C493 0.929 . S
H506 C494 0.960 . S
H507 C494 0.962 . S
H508 C494 0.960 . S
H509 C495 0.961 . S
H510 C495 0.961 . S
H511 C495 0.961 . S
H512 C496 0.931 . S
H513 C501 0.930 . S
H514 C502 0.956 . S
H515 C502 0.961 . S
H516 C502 0.961 . S
H517 C503 0.958 . S
H518 C503 0.961 . S
H519 C503 0.960 . S
C520 C521 1.391 . S
C520 C522 1.394 . S
C520 H536 0.931 . S
C521 C520 1.391 . S
C521 C525 1.376 . S
C522 C520 1.394 . S
C522 C523 1.369 . S
C522 C526 1.531 . S
C523 C522 1.369 . S
C523 C524 1.410 . S
C523 C531 1.503 . S
C524 C523 1.410 . S
C524 C525 1.392 . S
C524 C527 1.511 . S
C525 C521 1.376 . S
C525 C524 1.392 . S
C525 H537 0.929 . S
C526 C522 1.531 . S
C526 H538 0.960 . S
C526 H539 0.962 . S
C526 H540 0.960 . S
C527 C524 1.511 . S
C527 H541 0.961 . S
C527 H542 0.961 . S
C527 H543 0.961 . S
C528 C529 1.370 . S
C528 C530 1.363 . S
C528 H544 0.931 . S
C529 C528 1.370 . S
C529 C533 1.408 1_565 S
C530 C528 1.363 . S
C530 C531 1.370 . S
C530 C534 1.524 . S
C531 C523 1.503 . S
C531 C530 1.370 . S
C531 C532 1.403 . S
C532 C531 1.403 . S
C532 C533 1.404 1_565 S
C532 C535 1.539 1_565 S
C533 C529 1.408 1_545 S
C533 C532 1.404 1_545 S
C533 H545 0.930 . S
C534 C530 1.524 . S
C534 H546 0.956 . S
C534 H547 0.961 . S
C534 H548 0.961 . S
C535 C532 1.539 1_545 S
C535 H549 0.958 . S
C535 H550 0.961 . S
C535 H551 0.960 . S
H536 C520 0.931 . S
H537 C525 0.929 . S
H538 C526 0.960 . S
H539 C526 0.962 . S
H540 C526 0.960 . S
H541 C527 0.961 . S
H542 C527 0.961 . S
H543 C527 0.961 . S
H544 C528 0.931 . S
H545 C533 0.930 . S
H546 C534 0.956 . S
H547 C534 0.961 . S
H548 C534 0.961 . S
H549 C535 0.958 . S
H550 C535 0.961 . S
H551 C535 0.960 . S
C552 C553 1.391 . S
C552 C554 1.394 . S
C552 H568 0.931 . S
C553 C552 1.391 . S
C553 C557 1.376 . S
C554 C552 1.394 . S
C554 C555 1.369 . S
C554 C558 1.531 . S
C555 C554 1.369 . S
C555 C556 1.410 . S
C555 C563 1.503 . S
C556 C555 1.410 . S
C556 C557 1.392 . S
C556 C559 1.511 . S
C557 C553 1.376 . S
C557 C556 1.392 . S
C557 H569 0.929 . S
C558 C554 1.531 . S
C558 H570 0.960 . S
C558 H571 0.962 . S
C558 H572 0.960 . S
C559 C556 1.511 . S
C559 H573 0.961 . S
C559 H574 0.961 . S
C559 H575 0.961 . S
C560 C561 1.370 . S
C560 C562 1.363 . S
C560 H576 0.931 . S
C561 C560 1.370 . S
C561 C565 1.408 . S
C562 C560 1.363 . S
C562 C563 1.370 . S
C562 C566 1.524 . S
C563 C555 1.503 . S
C563 C562 1.370 . S
C563 C564 1.403 . S
C564 C563 1.403 . S
C564 C565 1.404 . S
C564 C567 1.539 . S
C565 C561 1.408 . S
C565 C564 1.404 . S
C565 H577 0.930 . S
C566 C562 1.524 . S
C566 H578 0.956 . S
C566 H579 0.961 . S
C566 H580 0.961 . S
C567 C564 1.539 . S
C567 H581 0.958 . S
C567 H582 0.961 . S
C567 H583 0.960 . S
H568 C552 0.931 . S
H569 C557 0.929 . S
H570 C558 0.960 . S
H571 C558 0.962 . S
H572 C558 0.960 . S
H573 C559 0.961 . S
H574 C559 0.961 . S
H575 C559 0.961 . S
H576 C560 0.931 . S
H577 C565 0.930 . S
H578 C566 0.956 . S
H579 C566 0.961 . S
H580 C566 0.961 . S
H581 C567 0.958 . S
H582 C567 0.961 . S
H583 C567 0.960 . S
C584 C585 1.391 . S
C584 C586 1.394 . S
C584 H600 0.931 . S
C585 C584 1.391 . S
C585 C589 1.376 . S
C586 C584 1.394 . S
C586 C587 1.369 . S
C586 C590 1.531 . S
C587 C586 1.369 . S
C587 C588 1.410 . S
C587 C595 1.503 . S
C588 C587 1.410 . S
C588 C589 1.392 . S
C588 C591 1.511 . S
C589 C585 1.376 . S
C589 C588 1.392 . S
C589 H601 0.929 . S
C590 C586 1.531 . S
C590 H602 0.960 . S
C590 H603 0.962 . S
C590 H604 0.960 . S
C591 C588 1.511 . S
C591 H605 0.961 . S
C591 H606 0.961 . S
C591 H607 0.961 . S
C592 C593 1.370 . S
C592 C594 1.363 . S
C592 H608 0.931 . S
C593 C592 1.370 . S
C593 C597 1.408 . S
C594 C592 1.363 . S
C594 C595 1.370 . S
C594 C598 1.524 . S
C595 C587 1.503 . S
C595 C594 1.370 . S
C595 C596 1.403 . S
C596 C595 1.403 . S
C596 C597 1.404 . S
C596 C599 1.539 . S
C597 C593 1.408 . S
C597 C596 1.404 . S
C597 H609 0.930 . S
C598 C594 1.524 . S
C598 H610 0.956 . S
C598 H611 0.961 . S
C598 H612 0.961 . S
C599 C596 1.539 . S
C599 H613 0.958 . S
C599 H614 0.961 . S
C599 H615 0.960 . S
H600 C584 0.931 . S
H601 C589 0.929 . S
H602 C590 0.960 . S
H603 C590 0.962 . S
H604 C590 0.960 . S
H605 C591 0.961 . S
H606 C591 0.961 . S
H607 C591 0.961 . S
H608 C592 0.931 . S
H609 C597 0.930 . S
H610 C598 0.956 . S
H611 C598 0.961 . S
H612 C598 0.961 . S
H613 C599 0.958 . S
H614 C599 0.961 . S
H615 C599 0.960 . S
C616 C617 1.391 1_455 S
C616 C618 1.394 . S
C616 H632 0.931 . S
C617 C616 1.391 1_655 S
C617 C621 1.376 . S
C618 C616 1.394 . S
C618 C619 1.369 1_455 S
C618 C622 1.531 . S
C619 C618 1.369 1_655 S
C619 C620 1.410 . S
C619 C627 1.503 . S
C620 C619 1.410 . S
C620 C621 1.392 . S
C620 C623 1.511 . S
C621 C617 1.376 . S
C621 C620 1.392 . S
C621 H633 0.929 . S
C622 C618 1.531 . S
C622 H634 0.960 . S
C622 H635 0.962 . S
C622 H636 0.960 . S
C623 C620 1.511 . S
C623 H637 0.961 . S
C623 H638 0.961 . S
C623 H639 0.961 . S
C624 C625 1.370 . S
C624 C626 1.363 . S
C624 H640 0.931 . S
C625 C624 1.370 . S
C625 C629 1.408 1_455 S
C626 C624 1.363 . S
C626 C627 1.372 1_455 S
C626 C630 1.524 . S
C627 C619 1.503 . S
C627 C626 1.372 1_655 S
C627 C628 1.401 . S
C628 C627 1.401 . S
C628 C629 1.404 . S
C628 C631 1.539 . S
C629 C625 1.408 1_655 S
C629 C628 1.404 . S
C629 H641 0.930 . S
C630 C626 1.524 . S
C630 H642 0.956 . S
C630 H643 0.961 . S
C630 H644 0.961 . S
C631 C628 1.539 . S
C631 H645 0.958 . S
C631 H646 0.961 . S
C631 H647 0.960 . S
H632 C616 0.931 . S
H633 C621 0.929 . S
H634 C622 0.960 . S
H635 C622 0.962 . S
H636 C622 0.960 . S
H637 C623 0.961 . S
H638 C623 0.961 . S
H639 C623 0.961 . S
H640 C624 0.931 . S
H641 C629 0.930 . S
H642 C630 0.956 . S
H643 C630 0.961 . S
H644 C630 0.961 . S
H645 C631 0.958 . S
H646 C631 0.961 . S
H647 C631 0.960 . S
C648 C649 1.391 1_655 S
C648 C650 1.394 . S
C648 H664 0.931 . S
C649 C648 1.391 1_455 S
C649 C653 1.376 . S
C650 C648 1.394 . S
C650 C651 1.369 . S
C650 C654 1.531 . S
C651 C650 1.369 . S
C651 C652 1.410 1_655 S
C651 C659 1.503 . S
C652 C651 1.410 1_455 S
C652 C653 1.392 . S
C652 C655 1.511 . S
C653 C649 1.376 . S
C653 C652 1.392 . S
C653 H665 0.929 . S
C654 C650 1.531 . S
C654 H666 0.960 . S
C654 H667 0.962 . S
C654 H668 0.960 . S
C655 C652 1.511 . S
C655 H669 0.961 . S
C655 H670 0.961 . S
C655 H671 0.961 . S
C656 C657 1.370 . S
C656 C658 1.363 . S
C656 H672 0.931 . S
C657 C656 1.370 . S
C657 C661 1.408 . S
C658 C656 1.363 . S
C658 C659 1.370 . S
C658 C662 1.524 . S
C659 C651 1.503 . S
C659 C658 1.370 . S
C659 C660 1.403 1_655 S
C660 C659 1.403 1_455 S
C660 C661 1.404 1_455 S
C660 C663 1.539 . S
C661 C657 1.408 . S
C661 C660 1.404 1_655 S
C661 H673 0.930 1_655 S
C662 C658 1.524 . S
C662 H674 0.956 . S
C662 H675 0.961 . S
C662 H676 0.961 . S
C663 C660 1.539 . S
C663 H677 0.958 . S
C663 H678 0.961 . S
C663 H679 0.960 . S
H664 C648 0.931 . S
H665 C653 0.929 . S
H666 C654 0.960 . S
H667 C654 0.962 . S
H668 C654 0.960 . S
H669 C655 0.961 . S
H670 C655 0.961 . S
H671 C655 0.961 . S
H672 C656 0.931 . S
H673 C661 0.930 1_455 S
H674 C662 0.956 . S
H675 C662 0.961 . S
H676 C662 0.961 . S
H677 C663 0.958 . S
H678 C663 0.961 . S
H679 C663 0.960 . S
C680 C681 1.391 . S
C680 C682 1.394 . S
C680 H696 0.931 . S
C681 C680 1.391 . S
C681 C685 1.376 . S
C682 C680 1.394 . S
C682 C683 1.369 . S
C682 C686 1.531 . S
C683 C682 1.369 . S
C683 C684 1.410 . S
C683 C691 1.503 . S
C684 C683 1.410 . S
C684 C685 1.392 . S
C684 C687 1.511 . S
C685 C681 1.376 . S
C685 C684 1.392 . S
C685 H697 0.929 . S
C686 C682 1.531 . S
C686 H698 0.960 . S
C686 H699 0.962 . S
C686 H700 0.960 . S
C687 C684 1.511 . S
C687 H701 0.961 . S
C687 H702 0.961 . S
C687 H703 0.961 . S
C688 C689 1.370 . S
C688 C690 1.363 . S
C688 H704 0.931 . S
C689 C688 1.370 . S
C689 C693 1.408 . S
C690 C688 1.363 . S
C690 C691 1.370 . S
C690 C694 1.524 . S
C691 C683 1.503 . S
C691 C690 1.370 . S
C691 C692 1.403 . S
C692 C691 1.403 . S
C692 C693 1.404 . S
C692 C695 1.539 . S
C693 C689 1.408 . S
C693 C692 1.404 . S
C693 H705 0.930 . S
C694 C690 1.524 . S
C694 H706 0.956 . S
C694 H707 0.961 . S
C694 H708 0.961 . S
C695 C692 1.539 . S
C695 H709 0.958 . S
C695 H710 0.961 . S
C695 H711 0.960 . S
H696 C680 0.931 . S
H697 C685 0.929 . S
H698 C686 0.960 . S
H699 C686 0.962 . S
H700 C686 0.960 . S
H701 C687 0.961 . S
H702 C687 0.961 . S
H703 C687 0.961 . S
H704 C688 0.931 . S
H705 C693 0.930 . S
H706 C694 0.956 . S
H707 C694 0.961 . S
H708 C694 0.961 . S
H709 C695 0.958 . S
H710 C695 0.961 . S
H711 C695 0.960 . S
C712 C713 1.391 . S
C712 C714 1.394 . S
C712 H728 0.931 . S
C713 C712 1.391 . S
C713 C717 1.376 . S
C714 C712 1.394 . S
C714 C715 1.369 . S
C714 C718 1.531 . S
C715 C714 1.369 . S
C715 C716 1.410 . S
C715 C723 1.503 . S
C716 C715 1.410 . S
C716 C717 1.392 . S
C716 C719 1.511 . S
C717 C713 1.376 . S
C717 C716 1.392 . S
C717 H729 0.929 . S
C718 C714 1.531 . S
C718 H730 0.960 . S
C718 H731 0.962 . S
C718 H732 0.960 . S
C719 C716 1.511 . S
C719 H733 0.961 . S
C719 H734 0.961 . S
C719 H735 0.961 . S
C720 C721 1.370 . S
C720 C722 1.363 . S
C720 H736 0.931 . S
C721 C720 1.370 . S
C721 C725 1.408 . S
C722 C720 1.363 . S
C722 C723 1.370 . S
C722 C726 1.524 . S
C723 C715 1.503 . S
C723 C722 1.370 . S
C723 C724 1.403 . S
C724 C723 1.403 . S
C724 C725 1.404 . S
C724 C727 1.539 . S
C725 C721 1.408 . S
C725 C724 1.404 . S
C725 H737 0.930 . S
C726 C722 1.524 . S
C726 H738 0.956 . S
C726 H739 0.961 . S
C726 H740 0.961 . S
C727 C724 1.539 . S
C727 H741 0.958 . S
C727 H742 0.961 . S
C727 H743 0.960 . S
H728 C712 0.931 . S
H729 C717 0.929 . S
H730 C718 0.960 . S
H731 C718 0.962 . S
H732 C718 0.960 . S
H733 C719 0.961 . S
H734 C719 0.961 . S
H735 C719 0.961 . S
H736 C720 0.931 . S
H737 C725 0.930 . S
H738 C726 0.956 . S
H739 C726 0.961 . S
H740 C726 0.961 . S
H741 C727 0.958 . S
H742 C727 0.961 . S
H743 C727 0.960 . S
C744 C745 1.391 . S
C744 C746 1.394 . S
C744 H760 0.931 . S
C745 C744 1.391 . S
C745 C749 1.376 . S
C746 C744 1.394 . S
C746 C747 1.369 . S
C746 C750 1.531 . S
C747 C746 1.369 . S
C747 C748 1.410 . S
C747 C755 1.503 . S
C748 C747 1.410 . S
C748 C749 1.392 . S
C748 C751 1.511 . S
C749 C745 1.376 . S
C749 C748 1.392 . S
C749 H761 0.929 . S
C750 C746 1.531 . S
C750 H762 0.960 . S
C750 H763 0.962 . S
C750 H764 0.960 . S
C751 C748 1.511 . S
C751 H765 0.961 . S
C751 H766 0.961 . S
C751 H767 0.961 . S
C752 C753 1.370 . S
C752 C754 1.363 . S
C752 H768 0.931 . S
C753 C752 1.370 . S
C753 C757 1.408 . S
C754 C752 1.363 . S
C754 C755 1.370 . S
C754 C758 1.524 . S
C755 C747 1.503 . S
C755 C754 1.370 . S
C755 C756 1.403 . S
C756 C755 1.403 . S
C756 C757 1.404 . S
C756 C759 1.539 . S
C757 C753 1.408 . S
C757 C756 1.404 . S
C757 H769 0.930 . S
C758 C754 1.524 . S
C758 H770 0.956 . S
C758 H771 0.961 . S
C758 H772 0.961 . S
C759 C756 1.539 . S
C759 H773 0.958 . S
C759 H774 0.961 . S
C759 H775 0.960 . S
H760 C744 0.931 . S
H761 C749 0.929 . S
H762 C750 0.960 . S
H763 C750 0.962 . S
H764 C750 0.960 . S
H765 C751 0.961 . S
H766 C751 0.961 . S
H767 C751 0.961 . S
H768 C752 0.931 . S
H769 C757 0.930 . S
H770 C758 0.956 . S
H771 C758 0.961 . S
H772 C758 0.961 . S
H773 C759 0.958 . S
H774 C759 0.961 . S
H775 C759 0.960 . S
C776 C777 1.354 1_455 S
C776 C778 1.394 . S
C776 H792 0.931 . S
C777 C776 1.354 1_655 S
C777 C781 1.409 . S
C778 C776 1.394 . S
C778 C779 1.369 . S
C778 C782 1.531 . S
C779 C778 1.369 . S
C779 C780 1.410 1_455 S
C779 C787 1.503 . S
C780 C779 1.410 1_655 S
C780 C781 1.392 . S
C780 C783 1.511 . S
C781 C777 1.409 . S
C781 C780 1.392 . S
C781 H793 0.929 . S
C782 C778 1.531 . S
C782 H794 0.960 . S
C782 H795 0.962 . S
C782 H796 0.960 . S
C783 C780 1.511 . S
C783 H797 0.961 . S
C783 H798 0.961 . S
C783 H799 0.961 . S
C784 C785 1.370 . S
C784 C786 1.363 . S
C784 H800 0.931 . S
C785 C784 1.370 . S
C785 C789 1.408 . S
C786 C784 1.363 . S
C786 C787 1.370 . S
C786 C790 1.524 . S
C787 C779 1.503 . S
C787 C786 1.370 . S
C787 C788 1.403 . S
C788 C787 1.403 . S
C788 C789 1.404 . S
C788 C791 1.539 . S
C789 C785 1.408 . S
C789 C788 1.404 . S
C789 H801 0.930 . S
C790 C786 1.524 . S
C790 H802 0.956 . S
C790 H803 0.922 1_455 S
C790 H804 0.961 . S
C791 C788 1.539 . S
C791 H805 0.958 . S
C791 H806 0.961 1_455 S
C791 H807 0.960 1_455 S
H792 C776 0.931 . S
H793 C781 0.929 . S
H794 C782 0.960 . S
H795 C782 0.962 . S
H796 C782 0.960 . S
H797 C783 0.961 . S
H798 C783 0.961 . S
H799 C783 0.961 . S
H800 C784 0.931 . S
H801 C789 0.930 . S
H802 C790 0.956 . S
H803 C790 0.922 1_655 S
H804 C790 0.961 . S
H805 C791 0.958 . S
H806 C791 0.961 1_655 S
H807 C791 0.960 1_655 S
C808 C809 1.391 . S
C808 C810 1.394 . S
C808 H824 0.931 . S
C809 C808 1.391 . S
C809 C813 1.376 . S
C810 C808 1.394 . S
C810 C811 1.369 . S
C810 C814 1.531 . S
C811 C810 1.369 . S
C811 C812 1.410 . S
C811 C819 1.503 . S
C812 C811 1.410 . S
C812 C813 1.392 . S
C812 C815 1.511 . S
C813 C809 1.376 . S
C813 C812 1.392 . S
C813 H825 0.929 . S
C814 C810 1.531 . S
C814 H826 0.960 . S
C814 H827 0.962 . S
C814 H828 0.960 . S
C815 C812 1.511 . S
C815 H829 0.961 . S
C815 H830 0.961 . S
C815 H831 0.961 . S
C816 C817 1.370 . S
C816 C818 1.363 . S
C816 H832 0.931 1_565 S
C817 C816 1.370 . S
C817 C821 1.408 . S
C818 C816 1.363 . S
C818 C819 1.370 . S
C818 C822 1.524 . S
C819 C811 1.503 . S
C819 C818 1.370 . S
C819 C820 1.403 . S
C820 C819 1.403 . S
C820 C821 1.404 . S
C820 C823 1.539 . S
C821 C817 1.408 . S
C821 C820 1.404 . S
C821 H833 0.930 . S
C822 C818 1.524 . S
C822 H834 0.956 . S
C822 H835 0.961 . S
C822 H836 0.961 . S
C823 C820 1.539 . S
C823 H837 0.958 . S
C823 H838 0.961 . S
C823 H839 0.960 . S
H824 C808 0.931 . S
H825 C813 0.929 . S
H826 C814 0.960 . S
H827 C814 0.962 . S
H828 C814 0.960 . S
H829 C815 0.961 . S
H830 C815 0.961 . S
H831 C815 0.961 . S
H832 C816 0.931 1_545 S
H833 C821 0.930 . S
H834 C822 0.956 . S
H835 C822 0.961 . S
H836 C822 0.961 . S
H837 C823 0.958 . S
H838 C823 0.961 . S
H839 C823 0.960 . S
C840 C841 1.391 . S
C840 C842 1.394 . S
C840 H856 0.931 . S
C841 C840 1.391 . S
C841 C845 1.376 . S
C842 C840 1.394 . S
C842 C843 1.369 . S
C842 C846 1.531 . S
C843 C842 1.369 . S
C843 C844 1.410 . S
C843 C851 1.503 . S
C844 C843 1.410 . S
C844 C845 1.392 . S
C844 C847 1.511 . S
C845 C841 1.376 . S
C845 C844 1.392 . S
C845 H857 0.929 . S
C846 C842 1.531 . S
C846 H858 0.960 . S
C846 H859 0.962 . S
C846 H860 0.960 . S
C847 C844 1.511 . S
C847 H861 0.961 . S
C847 H862 0.961 . S
C847 H863 0.961 . S
C848 C849 1.370 . S
C848 C850 1.363 . S
C848 H864 0.931 . S
C849 C848 1.370 . S
C849 C853 1.408 . S
C850 C848 1.363 . S
C850 C851 1.370 . S
C850 C854 1.524 . S
C851 C843 1.503 . S
C851 C850 1.370 . S
C851 C852 1.403 . S
C852 C851 1.403 . S
C852 C853 1.404 . S
C852 C855 1.539 . S
C853 C849 1.408 . S
C853 C852 1.404 . S
C853 H865 0.930 . S
C854 C850 1.524 . S
C854 H866 0.956 . S
C854 H867 0.961 . S
C854 H868 0.961 . S
C855 C852 1.539 . S
C855 H869 0.958 . S
C855 H870 0.961 . S
C855 H871 0.960 . S
H856 C840 0.931 . S
H857 C845 0.929 . S
H858 C846 0.960 . S
H859 C846 0.962 . S
H860 C846 0.960 . S
H861 C847 0.961 . S
H862 C847 0.961 . S
H863 C847 0.961 . S
H864 C848 0.931 . S
H865 C853 0.930 . S
H866 C854 0.956 . S
H867 C854 0.961 . S
H868 C854 0.961 . S
H869 C855 0.958 . S
H870 C855 0.961 . S
H871 C855 0.960 . S
C872 C873 1.391 . S
C872 C874 1.394 . S
C872 H888 0.931 . S
C873 C872 1.391 . S
C873 C877 1.376 . S
C874 C872 1.394 . S
C874 C875 1.369 . S
C874 C878 1.531 . S
C875 C874 1.369 . S
C875 C876 1.410 . S
C875 C883 1.503 . S
C876 C875 1.410 . S
C876 C877 1.392 . S
C876 C879 1.511 . S
C877 C873 1.376 . S
C877 C876 1.392 . S
C877 H889 0.929 . S
C878 C874 1.531 . S
C878 H890 0.960 . S
C878 H891 0.962 . S
C878 H892 0.960 . S
C879 C876 1.511 . S
C879 H893 0.961 . S
C879 H894 0.961 . S
C879 H895 0.961 . S
C880 C881 1.370 . S
C880 C882 1.363 . S
C880 H896 0.931 . S
C881 C880 1.370 . S
C881 C885 1.408 . S
C882 C880 1.363 . S
C882 C883 1.370 . S
C882 C886 1.524 . S
C883 C875 1.503 . S
C883 C882 1.370 . S
C883 C884 1.403 . S
C884 C883 1.403 . S
C884 C885 1.404 . S
C884 C887 1.539 . S
C885 C881 1.408 . S
C885 C884 1.404 . S
C885 H897 0.930 . S
C886 C882 1.524 . S
C886 H898 0.956 . S
C886 H899 0.961 . S
C886 H900 0.961 . S
C887 C884 1.539 . S
C887 H901 0.958 . S
C887 H902 0.961 . S
C887 H903 0.960 . S
H888 C872 0.931 . S
H889 C877 0.929 . S
H890 C878 0.960 . S
H891 C878 0.962 . S
H892 C878 0.960 . S
H893 C879 0.961 . S
H894 C879 0.961 . S
H895 C879 0.961 . S
H896 C880 0.931 . S
H897 C885 0.930 . S
H898 C886 0.956 . S
H899 C886 0.961 . S
H900 C886 0.961 . S
H901 C887 0.958 . S
H902 C887 0.961 . S
H903 C887 0.960 . S
C904 C905 1.391 1_655 S
C904 C906 1.394 . S
C904 H920 0.931 . S
C905 C904 1.391 1_455 S
C905 C909 1.376 . S
C906 C904 1.394 . S
C906 C907 1.369 1_655 S
C906 C910 1.531 . S
C907 C906 1.369 1_455 S
C907 C908 1.410 . S
C907 C915 1.503 . S
C908 C907 1.410 . S
C908 C909 1.392 . S
C908 C911 1.511 . S
C909 C905 1.376 . S
C909 C908 1.392 . S
C909 H921 0.929 . S
C910 C906 1.531 . S
C910 H922 0.960 . S
C910 H923 0.962 . S
C910 H924 0.960 . S
C911 C908 1.511 . S
C911 H925 0.961 . S
C911 H926 0.961 . S
C911 H927 0.961 . S
C912 C913 1.370 1_655 S
C912 C914 1.363 . S
C912 H928 0.931 . S
C913 C912 1.370 1_455 S
C913 C917 1.408 . S
C914 C912 1.363 . S
C914 C915 1.370 1_655 S
C914 C918 1.524 . S
C915 C907 1.503 . S
C915 C914 1.370 1_455 S
C915 C916 1.403 . S
C916 C915 1.403 . S
C916 C917 1.404 . S
C916 C919 1.539 . S
C917 C913 1.408 . S
C917 C916 1.404 . S
C917 H929 0.930 . S
C918 C914 1.524 . S
C918 H930 0.956 . S
C918 H931 0.961 1_655 S
C918 H932 0.961 . S
C919 C916 1.539 . S
C919 H933 0.958 . S
C919 H934 0.961 . S
C919 H935 0.960 . S
H920 C904 0.931 . S
H921 C909 0.929 . S
H922 C910 0.960 . S
H923 C910 0.962 . S
H924 C910 0.960 . S
H925 C911 0.961 . S
H926 C911 0.961 . S
H927 C911 0.961 . S
H928 C912 0.931 . S
H929 C917 0.930 . S
H930 C918 0.956 . S
H931 C918 0.961 1_455 S
H932 C918 0.961 . S
H933 C919 0.958 . S
H934 C919 0.961 . S
H935 C919 0.960 . S
C936 C937 1.391 . S
C936 C938 1.394 . S
C936 H952 0.931 . S
C937 C936 1.391 . S
C937 C941 1.376 . S
C938 C936 1.394 . S
C938 C939 1.369 . S
C938 C942 1.531 . S
C939 C938 1.369 . S
C939 C940 1.410 . S
C939 C947 1.503 . S
C940 C939 1.410 . S
C940 C941 1.392 . S
C940 C943 1.511 . S
C941 C937 1.376 . S
C941 C940 1.392 . S
C941 H953 0.929 . S
C942 C938 1.531 . S
C942 H954 0.960 . S
C942 H955 0.962 . S
C942 H956 0.960 . S
C943 C940 1.511 . S
C943 H957 0.961 . S
C943 H958 0.961 . S
C943 H959 0.961 . S
C944 C945 1.370 . S
C944 C946 1.363 . S
C944 H960 0.931 . S
C945 C944 1.370 . S
C945 C949 1.408 . S
C946 C944 1.363 . S
C946 C947 1.370 . S
C946 C950 1.524 . S
C947 C939 1.503 . S
C947 C946 1.370 . S
C947 C948 1.403 . S
C948 C947 1.403 . S
C948 C949 1.404 . S
C948 C951 1.539 . S
C949 C945 1.408 . S
C949 C948 1.404 . S
C949 H961 0.930 . S
C950 C946 1.524 . S
C950 H962 0.956 . S
C950 H963 0.961 . S
C950 H964 0.961 . S
C951 C948 1.539 . S
C951 H965 0.958 . S
C951 H966 0.961 . S
C951 H967 0.960 . S
H952 C936 0.931 . S
H953 C941 0.929 . S
H954 C942 0.960 . S
H955 C942 0.962 . S
H956 C942 0.960 . S
H957 C943 0.961 . S
H958 C943 0.961 . S
H959 C943 0.961 . S
H960 C944 0.931 . S
H961 C949 0.930 . S
H962 C950 0.956 . S
H963 C950 0.961 . S
H964 C950 0.961 . S
H965 C951 0.958 . S
H966 C951 0.961 . S
H967 C951 0.960 . S
C968 C969 1.391 . S
C968 C970 1.394 . S
C968 H984 0.931 . S
C969 C968 1.391 . S
C969 C973 1.376 . S
C970 C968 1.394 . S
C970 C971 1.369 . S
C970 C974 1.531 . S
C971 C970 1.369 . S
C971 C972 1.410 . S
C971 C979 1.503 . S
C972 C971 1.410 . S
C972 C973 1.392 . S
C972 C975 1.511 . S
C973 C969 1.376 . S
C973 C972 1.392 . S
C973 H985 0.929 . S
C974 C970 1.531 . S
C974 H986 0.960 . S
C974 H987 0.962 . S
C974 H988 0.960 . S
C975 C972 1.511 . S
C975 H989 0.961 . S
C975 H990 0.961 . S
C975 H991 0.961 . S
C976 C977 1.370 . S
C976 C978 1.363 . S
C976 H992 0.931 . S
C977 C976 1.370 . S
C977 C981 1.408 . S
C978 C976 1.363 . S
C978 C979 1.370 . S
C978 C982 1.524 . S
C979 C971 1.503 . S
C979 C978 1.370 . S
C979 C980 1.403 . S
C980 C979 1.403 . S
C980 C981 1.404 . S
C980 C983 1.539 . S
C981 C977 1.408 . S
C981 C980 1.404 . S
C981 H993 0.930 . S
C982 C978 1.524 . S
C982 H994 0.956 . S
C982 H995 0.961 . S
C982 H996 0.961 . S
C983 C980 1.539 . S
C983 H997 0.958 . S
C983 H998 0.961 . S
C983 H999 0.960 . S
H984 C968 0.931 . S
H985 C973 0.929 . S
H986 C974 0.960 . S
H987 C974 0.962 . S
H988 C974 0.960 . S
H989 C975 0.961 . S
H990 C975 0.961 . S
H991 C975 0.961 . S
H992 C976 0.931 . S
H993 C981 0.930 . S
H994 C982 0.956 . S
H995 C982 0.961 . S
H996 C982 0.961 . S
H997 C983 0.958 . S
H998 C983 0.961 . S
H999 C983 0.960 . S
C1000 C1001 1.391 . S
C1000 C1002 1.394 . S
C1000 H1016 0.931 . S
C1001 C1000 1.391 . S
C1001 C1005 1.376 . S
C1002 C1000 1.394 . S
C1002 C1003 1.369 . S
C1002 C1006 1.531 . S
C1003 C1002 1.369 . S
C1003 C1004 1.410 . S
C1003 C1011 1.503 . S
C1004 C1003 1.410 . S
C1004 C1005 1.392 . S
C1004 C1007 1.511 . S
C1005 C1001 1.376 . S
C1005 C1004 1.392 . S
C1005 H1017 0.929 . S
C1006 C1002 1.531 . S
C1006 H1018 0.960 . S
C1006 H1019 0.962 . S
C1006 H1020 0.960 . S
C1007 C1004 1.511 . S
C1007 H1021 0.961 . S
C1007 H1022 0.961 . S
C1007 H1023 0.961 . S
C1008 C1009 1.370 . S
C1008 C1010 1.363 . S
C1008 H1024 0.931 . S
C1009 C1008 1.370 . S
C1009 C1013 1.408 . S
C1010 C1008 1.363 . S
C1010 C1011 1.370 . S
C1010 C1014 1.524 . S
C1011 C1003 1.503 . S
C1011 C1010 1.370 . S
C1011 C1012 1.403 . S
C1012 C1011 1.403 . S
C1012 C1013 1.404 . S
C1012 C1015 1.539 . S
C1013 C1009 1.408 . S
C1013 C1012 1.404 . S
C1013 H1025 0.930 . S
C1014 C1010 1.524 . S
C1014 H1026 0.956 . S
C1014 H1027 0.961 . S
C1014 H1028 0.961 . S
C1015 C1012 1.539 . S
C1015 H1029 0.958 . S
C1015 H1030 0.961 . S
C1015 H1031 0.960 . S
H1016 C1000 0.931 . S
H1017 C1005 0.929 . S
H1018 C1006 0.960 . S
H1019 C1006 0.962 . S
H1020 C1006 0.960 . S
H1021 C1007 0.961 . S
H1022 C1007 0.961 . S
H1023 C1007 0.961 . S
H1024 C1008 0.931 . S
H1025 C1013 0.930 . S
H1026 C1014 0.956 . S
H1027 C1014 0.961 . S
H1028 C1014 0.961 . S
H1029 C1015 0.958 . S
H1030 C1015 0.961 . S
H1031 C1015 0.960 . S
C1032 C1033 1.391 1_455 S
C1032 C1034 1.394 . S
C1032 H1048 0.931 . S
C1033 C1032 1.391 1_655 S
C1033 C1037 1.376 . S
C1034 C1032 1.394 . S
C1034 C1035 1.369 1_455 S
C1034 C1038 1.531 . S
C1035 C1034 1.369 1_655 S
C1035 C1036 1.410 . S
C1035 C1043 1.503 . S
C1036 C1035 1.410 . S
C1036 C1037 1.392 . S
C1036 C1039 1.511 . S
C1037 C1033 1.376 . S
C1037 C1036 1.392 . S
C1037 H1049 0.929 . S
C1038 C1034 1.531 . S
C1038 H1050 0.960 . S
C1038 H1051 0.962 . S
C1038 H1052 0.960 . S
C1039 C1036 1.511 . S
C1039 H1053 0.961 . S
C1039 H1054 0.961 . S
C1039 H1055 0.961 . S
C1040 C1041 1.370 . S
C1040 C1042 1.363 . S
C1040 H1056 0.931 . S
C1041 C1040 1.370 . S
C1041 C1045 1.408 . S
C1042 C1040 1.363 . S
C1042 C1043 1.370 . S
C1042 C1046 1.524 . S
C1043 C1035 1.503 . S
C1043 C1042 1.370 . S
C1043 C1044 1.403 . S
C1044 C1043 1.403 . S
C1044 C1045 1.404 . S
C1044 C1047 1.539 . S
C1045 C1041 1.408 . S
C1045 C1044 1.404 . S
C1045 H1057 0.930 . S
C1046 C1042 1.524 . S
C1046 H1058 0.956 1_655 S
C1046 H1059 0.961 . S
C1046 H1060 0.961 . S
C1047 C1044 1.539 . S
C1047 H1061 0.958 1_655 S
C1047 H1062 0.961 . S
C1047 H1063 0.960 . S
H1048 C1032 0.931 . S
H1049 C1037 0.929 . S
H1050 C1038 0.960 . S
H1051 C1038 0.962 . S
H1052 C1038 0.960 . S
H1053 C1039 0.961 . S
H1054 C1039 0.961 . S
H1055 C1039 0.961 . S
H1056 C1040 0.931 . S
H1057 C1045 0.930 . S
H1058 C1046 0.956 1_455 S
H1059 C1046 0.961 . S
H1060 C1046 0.961 . S
H1061 C1047 0.958 1_455 S
H1062 C1047 0.961 . S
H1063 C1047 0.960 . S
C1064 C1065 1.391 . S
C1064 C1066 1.394 . S
C1064 H1080 0.931 . S
C1065 C1064 1.391 . S
C1065 C1069 1.376 . S
C1066 C1064 1.394 . S
C1066 C1067 1.369 . S
C1066 C1070 1.531 . S
C1067 C1066 1.369 . S
C1067 C1068 1.410 . S
C1067 C1075 1.503 . S
C1068 C1067 1.410 . S
C1068 C1069 1.392 . S
C1068 C1071 1.511 . S
C1069 C1065 1.376 . S
C1069 C1068 1.392 . S
C1069 H1081 0.929 . S
C1070 C1066 1.531 . S
C1070 H1082 0.960 . S
C1070 H1083 0.962 . S
C1070 H1084 0.960 . S
C1071 C1068 1.511 . S
C1071 H1085 0.961 . S
C1071 H1086 0.961 . S
C1071 H1087 0.944 1_565 S
C1072 C1073 1.370 . S
C1072 C1074 1.363 . S
C1072 H1088 0.931 . S
C1073 C1072 1.370 . S
C1073 C1077 1.408 . S
C1074 C1072 1.363 . S
C1074 C1075 1.370 . S
C1074 C1078 1.524 . S
C1075 C1067 1.503 . S
C1075 C1074 1.370 . S
C1075 C1076 1.403 . S
C1076 C1075 1.403 . S
C1076 C1077 1.404 . S
C1076 C1079 1.539 . S
C1077 C1073 1.408 . S
C1077 C1076 1.404 . S
C1077 H1089 0.930 . S
C1078 C1074 1.524 . S
C1078 H1090 0.956 . S
C1078 H1091 0.961 . S
C1078 H1092 0.961 . S
C1079 C1076 1.539 . S
C1079 H1093 0.958 . S
C1079 H1094 0.961 . S
C1079 H1095 0.960 . S
H1080 C1064 0.931 . S
H1081 C1069 0.929 . S
H1082 C1070 0.960 . S
H1083 C1070 0.962 . S
H1084 C1070 0.960 . S
H1085 C1071 0.961 . S
H1086 C1071 0.961 . S
H1087 C1071 0.944 1_545 S
H1088 C1072 0.931 . S
H1089 C1077 0.930 . S
H1090 C1078 0.956 . S
H1091 C1078 0.961 . S
H1092 C1078 0.961 . S
H1093 C1079 0.958 . S
H1094 C1079 0.961 . S
H1095 C1079 0.960 . S
C1096 C1097 1.391 . S
C1096 C1098 1.394 . S
C1096 H1112 0.931 . S
C1097 C1096 1.391 . S
C1097 C1101 1.376 . S
C1098 C1096 1.394 . S
C1098 C1099 1.369 . S
C1098 C1102 1.531 . S
C1099 C1098 1.369 . S
C1099 C1100 1.410 . S
C1099 C1107 1.503 . S
C1100 C1099 1.410 . S
C1100 C1101 1.392 . S
C1100 C1103 1.511 . S
C1101 C1097 1.376 . S
C1101 C1100 1.392 . S
C1101 H1113 0.929 . S
C1102 C1098 1.531 . S
C1102 H1114 0.960 . S
C1102 H1115 0.962 . S
C1102 H1116 0.960 . S
C1103 C1100 1.511 . S
C1103 H1117 0.961 . S
C1103 H1118 0.961 . S
C1103 H1119 0.961 . S
C1104 C1105 1.370 . S
C1104 C1106 1.363 . S
C1104 H1120 0.931 . S
C1105 C1104 1.370 . S
C1105 C1109 1.408 . S
C1106 C1104 1.363 . S
C1106 C1107 1.370 . S
C1106 C1110 1.524 . S
C1107 C1099 1.503 . S
C1107 C1106 1.370 . S
C1107 C1108 1.403 . S
C1108 C1107 1.403 . S
C1108 C1109 1.404 . S
C1108 C1111 1.539 . S
C1109 C1105 1.408 . S
C1109 C1108 1.404 . S
C1109 H1121 0.930 . S
C1110 C1106 1.524 . S
C1110 H1122 0.956 . S
C1110 H1123 0.961 . S
C1110 H1124 0.961 . S
C1111 C1108 1.539 . S
C1111 H1125 0.958 . S
C1111 H1126 0.961 . S
C1111 H1127 0.960 . S
H1112 C1096 0.931 . S
H1113 C1101 0.929 . S
H1114 C1102 0.960 . S
H1115 C1102 0.962 . S
H1116 C1102 0.960 . S
H1117 C1103 0.961 . S
H1118 C1103 0.961 . S
H1119 C1103 0.961 . S
H1120 C1104 0.931 . S
H1121 C1109 0.930 . S
H1122 C1110 0.956 . S
H1123 C1110 0.961 . S
H1124 C1110 0.961 . S
H1125 C1111 0.958 . S
H1126 C1111 0.961 . S
H1127 C1111 0.960 . S
C1128 C1129 1.391 . S
C1128 C1130 1.394 . S
C1128 H1144 0.931 . S
C1129 C1128 1.391 . S
C1129 C1133 1.376 . S
C1130 C1128 1.394 . S
C1130 C1131 1.369 . S
C1130 C1134 1.531 . S
C1131 C1130 1.369 . S
C1131 C1132 1.410 . S
C1131 C1139 1.503 . S
C1132 C1131 1.410 . S
C1132 C1133 1.392 . S
C1132 C1135 1.511 . S
C1133 C1129 1.376 . S
C1133 C1132 1.392 . S
C1133 H1145 0.929 . S
C1134 C1130 1.531 . S
C1134 H1146 0.960 . S
C1134 H1147 0.962 . S
C1134 H1148 0.960 . S
C1135 C1132 1.511 . S
C1135 H1149 0.961 . S
C1135 H1150 0.961 . S
C1135 H1151 0.961 . S
C1136 C1137 1.370 . S
C1136 C1138 1.363 . S
C1136 H1152 0.931 . S
C1137 C1136 1.370 . S
C1137 C1141 1.408 . S
C1138 C1136 1.363 . S
C1138 C1139 1.370 . S
C1138 C1142 1.524 . S
C1139 C1131 1.503 . S
C1139 C1138 1.370 . S
C1139 C1140 1.403 . S
C1140 C1139 1.403 . S
C1140 C1141 1.404 . S
C1140 C1143 1.539 . S
C1141 C1137 1.408 . S
C1141 C1140 1.404 . S
C1141 H1153 0.930 . S
C1142 C1138 1.524 . S
C1142 H1154 0.956 . S
C1142 H1155 0.961 . S
C1142 H1156 0.961 . S
C1143 C1140 1.539 . S
C1143 H1157 0.958 . S
C1143 H1158 0.961 . S
C1143 H1159 0.960 . S
H1144 C1128 0.931 . S
H1145 C1133 0.929 . S
H1146 C1134 0.960 . S
H1147 C1134 0.962 . S
H1148 C1134 0.960 . S
H1149 C1135 0.961 . S
H1150 C1135 0.961 . S
H1151 C1135 0.961 . S
H1152 C1136 0.931 . S
H1153 C1141 0.930 . S
H1154 C1142 0.956 . S
H1155 C1142 0.961 . S
H1156 C1142 0.961 . S
H1157 C1143 0.958 . S
H1158 C1143 0.961 . S
H1159 C1143 0.960 . S
C393 C255 1.828 . S
C401 C330 1.869 . S
C433 C350 1.552 . S
C425 C294 1.604 . S
C465 C370 1.839 . S
C457 C177 1.747 . S
C497 C390 1.562 . S
C489 C216 1.532 1_455 S
C529 C331 1.863 1_565 S
C521 C99 1.830 . S
C553 C138 1.551 . S
C561 C351 1.574 . S
C585 C21 1.782 . S
C593 C371 1.823 . S
C617 C60 1.585 . S
C625 C391 1.544 . S
C657 C321 0.630 . S
C649 C196 0.550 1_455 S
C689 C341 0.807 . S
C681 C235 0.779 . S
C721 C361 0.650 . S
C713 C289 0.696 . S
C745 C157 0.711 . S
C753 C381 0.817 . S
C777 C40 0.647 . S
C785 C324 0.588 . S
C817 C344 0.763 . S
C809 C79 0.874 . S
C849 C364 0.692 . S
C841 C133 0.597 . S
C873 C1 0.722 . S
C881 C384 0.821 . S
C905 C211 2.061 . S
C913 C314 2.000 . S
C937 C250 2.034 . S
C945 C334 2.064 . S
C977 C354 1.931 . S
C969 C274 1.979 . S
C1009 C374 2.146 . S
C1001 C172 2.131 . S
C1033 C55 1.995 1_655 S
C1041 C316 2.024 . S
C1073 C336 2.040 . S
C1065 C94 2.091 . S
C1105 C356 1.929 . S
C1097 C118 1.978 . S
C1129 C16 2.124 . S
C1137 C376 2.160 . S
