# Generated by pormake.
# Topology hwx, (6,3)-cn, num edge types: 1
# Building blocks:
#     Node 0, Type 0, BuildingBlock: OJICUG_clean_sbu_0, # of connection points: 6
#     Node 1, Type 0, BuildingBlock: OJICUG_clean_sbu_0, # of connection points: 6
#     Node 2, Type 0, BuildingBlock: OJICUG_clean_sbu_0, # of connection points: 6
#     Node 3, Type 0, BuildingBlock: OJICUG_clean_sbu_0, # of connection points: 6
#     Node 4, Type 1, BuildingBlock: MIDCAF_clean_linker_0, # of connection points: 3
#     Node 5, Type 1, BuildingBlock: MIDCAF_clean_linker_0, # of connection points: 3
#     Node 6, Type 1, BuildingBlock: MIDCAF_clean_linker_0, # of connection points: 3
#     Node 7, Type 1, BuildingBlock: MIDCAF_clean_linker_0, # of connection points: 3
#     Node 8, Type 1, BuildingBlock: MIDCAF_clean_linker_0, # of connection points: 3
#     Node 9, Type 1, BuildingBlock: MIDCAF_clean_linker_0, # of connection points: 3
#     Node 10, Type 1, BuildingBlock: MIDCAF_clean_linker_0, # of connection points: 3
#     Node 11, Type 1, BuildingBlock: MIDCAF_clean_linker_0, # of connection points: 3
#     Edge 12, Type (0, 1), BuildingBlock: AJUNOK_clean_linker_0, # of connection points: 2
#     Edge 13, Type (0, 1), BuildingBlock: AJUNOK_clean_linker_0, # of connection points: 2
#     Edge 14, Type (0, 1), BuildingBlock: AJUNOK_clean_linker_0, # of connection points: 2
#     Edge 15, Type (0, 1), BuildingBlock: AJUNOK_clean_linker_0, # of connection points: 2
#     Edge 16, Type (0, 1), BuildingBlock: AJUNOK_clean_linker_0, # of connection points: 2
#     Edge 17, Type (0, 1), BuildingBlock: AJUNOK_clean_linker_0, # of connection points: 2
#     Edge 18, Type (0, 1), BuildingBlock: AJUNOK_clean_linker_0, # of connection points: 2
#     Edge 19, Type (0, 1), BuildingBlock: AJUNOK_clean_linker_0, # of connection points: 2
#     Edge 20, Type (0, 1), BuildingBlock: AJUNOK_clean_linker_0, # of connection points: 2
#     Edge 21, Type (0, 1), BuildingBlock: AJUNOK_clean_linker_0, # of connection points: 2
#     Edge 22, Type (0, 1), BuildingBlock: AJUNOK_clean_linker_0, # of connection points: 2
#     Edge 23, Type (0, 1), BuildingBlock: AJUNOK_clean_linker_0, # of connection points: 2
#     Edge 24, Type (0, 1), BuildingBlock: AJUNOK_clean_linker_0, # of connection points: 2
#     Edge 25, Type (0, 1), BuildingBlock: AJUNOK_clean_linker_0, # of connection points: 2
#     Edge 26, Type (0, 1), BuildingBlock: AJUNOK_clean_linker_0, # of connection points: 2
#     Edge 27, Type (0, 1), BuildingBlock: AJUNOK_clean_linker_0, # of connection points: 2
#     Edge 28, Type (0, 1), BuildingBlock: AJUNOK_clean_linker_0, # of connection points: 2
#     Edge 29, Type (0, 1), BuildingBlock: AJUNOK_clean_linker_0, # of connection points: 2
#     Edge 30, Type (0, 1), BuildingBlock: AJUNOK_clean_linker_0, # of connection points: 2
#     Edge 31, Type (0, 1), BuildingBlock: AJUNOK_clean_linker_0, # of connection points: 2
#     Edge 32, Type (0, 1), BuildingBlock: AJUNOK_clean_linker_0, # of connection points: 2
#     Edge 33, Type (0, 1), BuildingBlock: AJUNOK_clean_linker_0, # of connection points: 2
#     Edge 34, Type (0, 1), BuildingBlock: AJUNOK_clean_linker_0, # of connection points: 2
#     Edge 35, Type (0, 1), BuildingBlock: AJUNOK_clean_linker_0, # of connection points: 2
# Relax obj value: 0.078
# Max RMSD: 0.103
# Mean RMSD: 0.095
data_MOF--net-hwx--node1-OJICUG_clean_sbu_0--node2-MIDCAF_clean_linker_0--edge1-AJUNOK_clean_linker_0
_symmetry_space_group_name_H-M    P1
_symmetry_Int_Tables_number       1
_symmetry_cell_setting            triclinic
loop_
_symmetry_equiv_pos_as_xyz
'x, y, z'
_cell_length_a     48.241172
_cell_length_b     48.141044
_cell_length_c     21.822741
_cell_angle_alpha  89.954507
_cell_angle_beta   90.024489
_cell_angle_gamma 90.022901
loop_
_atom_site_label
_atom_site_type_symbol
_atom_site_fract_x
_atom_site_fract_y
_atom_site_fract_z
_atom_type_partial_charge
Sc0 Sc 0.21958 0.22388 0.07849 0.0
Sc1 Sc 0.17724 0.17757 0.99509 0.0
Sc2 Sc 0.22172 0.22448 0.91885 0.0
O3 O 0.20614 0.20854 -0.00257 0.0
C4 C 0.21773 0.27909 -0.0026 0.0
C5 C 0.15477 0.21912 0.09834 0.0
C6 C 0.15783 0.2165 0.88542 0.0
C7 C 0.21271 0.15947 0.11026 0.0
C8 C 0.2754 0.22011 0.00422 0.0
C9 C 0.21996 0.15958 0.89079 0.0
O10 O 0.22094 0.2662 0.04758 0.0
O11 O 0.15172 0.19815 0.06329 0.0
O12 O 0.18177 0.22662 0.87656 0.0
O13 O 0.22015 0.18412 0.12221 0.0
O14 O 0.26349 0.2245 0.95314 0.0
O15 O 0.19997 0.15411 0.92693 0.0
O16 O 0.26228 0.21762 0.05443 0.0
O17 O 0.19837 0.15309 0.06356 0.0
O18 O 0.22974 0.18385 0.88366 0.0
O19 O 0.17789 0.23115 0.10691 0.0
O20 O 0.21547 0.26675 0.94633 0.0
O21 O 0.15272 0.19838 0.92626 0.0
Sc22 Sc 0.26711 0.72836 0.40729 0.0
Sc23 Sc 0.31349 0.68191 0.47982 0.0
Sc24 Sc 0.26777 0.72351 0.56708 0.0
O25 O 0.28283 0.71121 0.48469 0.0
C26 C 0.27061 0.78089 0.49612 0.0
C27 C 0.33178 0.7257 0.37769 0.0
C28 C 0.33268 0.71851 0.59332 0.0
C29 C 0.27408 0.6647 0.36887 0.0
C30 C 0.21253 0.72144 0.48748 0.0
C31 C 0.27381 0.65808 0.58397 0.0
O32 O 0.26872 0.76986 0.44341 0.0
O33 O 0.33699 0.70553 0.41357 0.0
O34 O 0.30838 0.72693 0.60531 0.0
O35 O 0.26396 0.68888 0.36271 0.0
O36 O 0.22533 0.72224 0.53823 0.0
O37 O 0.2933 0.65504 0.54534 0.0
O38 O 0.22474 0.7228 0.436 0.0
O39 O 0.29233 0.65888 0.40895 0.0
O40 O 0.26287 0.68139 0.59629 0.0
O41 O 0.30767 0.73582 0.37086 0.0
O42 O 0.27092 0.76681 0.54529 0.0
O43 O 0.33813 0.70177 0.54998 0.0
Sc44 Sc 0.76839 0.76525 0.92187 0.0
Sc45 Sc 0.80949 0.81244 0.00611 0.0
Sc46 Sc 0.76495 0.76536 0.08211 0.0
O47 O 0.78092 0.78111 0.00337 0.0
C48 C 0.71166 0.76725 -0.00437 0.0
C49 C 0.77293 0.83001 0.8915 0.0
C50 C 0.76707 0.83029 0.11126 0.0
C51 C 0.83317 0.77277 0.90097 0.0
C52 C 0.77217 0.71046 0.00353 0.0
C53 C 0.82882 0.77342 0.11591 0.0
O54 O 0.72511 0.76825 0.94557 0.0
O55 O 0.78832 0.83635 0.93665 0.0
O56 O 0.75725 0.80602 0.11852 0.0
O57 O 0.81023 0.7606 0.89122 0.0
O58 O 0.77068 0.72289 0.05468 0.0
O59 O 0.83382 0.79188 0.0757 0.0
O60 O 0.77071 0.72302 0.95255 0.0
O61 O 0.8359 0.79267 0.93887 0.0
O62 O 0.80497 0.76292 0.12412 0.0
O63 O 0.7651 0.80537 0.88029 0.0
O64 O 0.72331 0.76566 0.04771 0.0
O65 O 0.78643 0.8357 0.07357 0.0
Sc66 Sc 0.72176 0.26666 0.58129 0.0
Sc67 Sc 0.67949 0.31447 0.50129 0.0
Sc68 Sc 0.71979 0.26507 0.42111 0.0
O69 O 0.70703 0.28215 0.50123 0.0
C70 C 0.77585 0.2668 0.49747 0.0
C71 C 0.72121 0.3319 0.60767 0.0
C72 C 0.71791 0.32973 0.38801 0.0
C73 C 0.65769 0.27657 0.61077 0.0
C74 C 0.7147 0.21097 0.50457 0.0
C75 C 0.65551 0.27427 0.39753 0.0
O76 O 0.76396 0.2667 0.54946 0.0
O77 O 0.70265 0.33789 0.56846 0.0
O78 O 0.725 0.30475 0.37806 0.0
O79 O 0.68092 0.26484 0.61997 0.0
O80 O 0.71612 0.22308 0.45303 0.0
O81 O 0.653 0.29472 0.43403 0.0
O82 O 0.7161 0.22407 0.55488 0.0
O83 O 0.65399 0.29548 0.5709 0.0
O84 O 0.67822 0.26159 0.38887 0.0
O85 O 0.72957 0.30729 0.61721 0.0
O86 O 0.76266 0.26666 0.44705 0.0
O87 O 0.70211 0.33688 0.4318 0.0
C88 C 0.2428 0.59504 0.12549 0.0
C89 C 0.2447 0.5835 0.1843 0.0
C90 C 0.24235 0.55461 0.19161 0.0
C91 C 0.23763 0.53759 0.14058 0.0
H92 H 0.21119 0.45741 0.07881 0.0
H93 H 0.20687 0.40702 0.08534 0.0
H94 H 0.23041 0.39991 0.89507 0.0
H95 H 0.23383 0.45025 0.88769 0.0
H96 H 0.24591 0.50831 0.80804 0.0
H97 H 0.2531 0.53496 0.71323 0.0
H98 H 0.22076 0.60822 0.80204 0.0
H99 H 0.21348 0.58199 0.89552 0.0
H100 H 0.23677 0.58807 0.03037 0.0
H101 H 0.24522 0.6172 0.11849 0.0
H102 H 0.24392 0.5453 0.23668 0.0
H103 H 0.23584 0.51537 0.14732 0.0
N104 N 0.22851 0.50385 0.03043 0.0
N105 N 0.22612 0.50092 0.92288 0.0
N106 N 0.23103 0.54408 0.97063 0.0
C107 C 0.22583 0.48828 0.97868 0.0
C108 C 0.22846 0.52891 0.91881 0.0
C109 C 0.23125 0.53187 0.02651 0.0
C110 C 0.22302 0.45781 0.98283 0.0
C111 C 0.21547 0.44511 0.03838 0.0
C112 C 0.21311 0.41626 0.04223 0.0
C113 C 0.21869 0.39959 0.99092 0.0
C114 C 0.22586 0.4123 0.93524 0.0
C115 C 0.22791 0.44113 0.93115 0.0
C116 C 0.22931 0.54317 0.85913 0.0
C117 C 0.23977 0.52994 0.80659 0.0
C118 C 0.24397 0.54513 0.75261 0.0
C119 C 0.23721 0.57349 0.75037 0.0
C120 C 0.22562 0.58624 0.80213 0.0
C121 C 0.22172 0.57127 0.85588 0.0
C122 C 0.23544 0.54928 0.08162 0.0
C123 C 0.2381 0.57821 0.0749 0.0
C124 C 0.90344 0.72659 0.67616 0.0
C125 C 0.91643 0.73712 0.72877 0.0
C126 C 0.94526 0.74128 0.72839 0.0
C127 C 0.96062 0.7361 0.67515 0.0
H128 H 0.03938 0.70961 0.59721 0.0
H129 H 0.08982 0.70692 0.59195 0.0
H130 H 0.08715 0.73219 0.40212 0.0
H131 H 0.03681 0.73409 0.40649 0.0
H132 H 0.97793 0.74249 0.33982 0.0
H133 H 0.9489 0.75104 0.24943 0.0
H134 H 0.87637 0.72713 0.35254 0.0
H135 H 0.90494 0.71836 0.442 0.0
H136 H 0.90772 0.71424 0.58295 0.0
H137 H 0.88122 0.7233 0.67509 0.0
H138 H 0.95578 0.74906 0.76875 0.0
H139 H 0.98266 0.74036 0.67527 0.0
N140 N 0.99021 0.72371 0.56011 0.0
N141 N 0.98843 0.72544 0.45248 0.0
N142 N 0.94749 0.7266 0.50967 0.0
C143 C 0.00348 0.72363 0.50506 0.0
C144 C 0.96037 0.72681 0.45458 0.0
C145 C 0.96213 0.72514 0.56255 0.0
C146 C 0.03404 0.72198 0.50222 0.0
C147 C 0.04952 0.71448 0.55425 0.0
C148 C 0.07839 0.71295 0.55132 0.0
C149 C 0.09233 0.71901 0.49644 0.0
C150 C 0.0769 0.72669 0.44458 0.0
C151 C 0.04805 0.72798 0.4473 0.0
C152 C 0.94372 0.72981 0.39813 0.0
C153 C 0.95585 0.73866 0.34282 0.0
C154 C 0.9393 0.74367 0.29127 0.0
C155 C 0.91054 0.73946 0.2941 0.0
C156 C 0.89859 0.73004 0.34888 0.0
C157 C 0.91497 0.72524 0.40026 0.0
C158 C 0.94725 0.72692 0.62155 0.0
C159 C 0.91864 0.72158 0.6232 0.0
C160 C 0.77281 0.39809 0.83719 0.0
C161 C 0.76304 0.41095 0.78364 0.0
C162 C 0.75973 0.43993 0.78272 0.0
C163 C 0.76566 0.4557 0.83499 0.0
H164 H 0.76733 0.53596 0.90522 0.0
H165 H 0.76687 0.58654 0.90622 0.0
H166 H 0.79316 0.58616 0.09542 0.0
H167 H 0.79281 0.53554 0.0953 0.0
H168 H 0.74986 0.47449 0.1567 0.0
H169 H 0.73707 0.44497 0.24319 0.0
H170 H 0.78835 0.37916 0.1706 0.0
H171 H 0.79973 0.40813 0.08244 0.0
H172 H 0.78549 0.40297 0.93015 0.0
H173 H 0.77503 0.37572 0.83956 0.0
H174 H 0.75214 0.45028 0.74194 0.0
H175 H 0.76228 0.47793 0.83348 0.0
N176 N 0.77844 0.48668 0.94674 0.0
N177 N 0.77916 0.48696 0.05439 0.0
N178 N 0.77792 0.44475 0.0012 0.0
C179 C 0.7795 0.50103 0.00037 0.0
C180 C 0.77854 0.45881 0.05495 0.0
C181 C 0.77776 0.45847 0.9469 0.0
C182 C 0.78011 0.5317 0.00018 0.0
C183 C 0.77319 0.54662 0.94695 0.0
C184 C 0.7731 0.5756 0.94736 0.0
C185 C 0.78033 0.59024 0.00069 0.0
C186 C 0.7874 0.57537 0.05377 0.0
C187 C 0.78723 0.54639 0.05359 0.0
C188 C 0.77555 0.44342 0.11282 0.0
C189 C 0.75887 0.45394 0.16013 0.0
C190 C 0.75167 0.43707 0.20983 0.0
C191 C 0.76161 0.40967 0.21362 0.0
C192 C 0.77999 0.40002 0.16841 0.0
C193 C 0.78662 0.41661 0.11815 0.0
C194 C 0.77461 0.44265 0.88923 0.0
C195 C 0.77857 0.41373 0.8893 0.0
C196 C 0.085 0.26686 0.32209 0.0
C197 C 0.07221 0.25572 0.26985 0.0
C198 C 0.04373 0.24979 0.27117 0.0
C199 C 0.02839 0.25446 0.32459 0.0
H200 H 0.95036 0.28428 0.40174 0.0
H201 H 0.89992 0.28534 0.40295 0.0
H202 H 0.9 0.25332 0.58788 0.0
H203 H 0.95058 0.25308 0.58768 0.0
H204 H 0.00968 0.24783 0.65856 0.0
H205 H 0.03821 0.23907 0.74963 0.0
H206 H 0.11131 0.26306 0.64863 0.0
H207 H 0.08325 0.27206 0.55853 0.0
H208 H 0.08053 0.27912 0.41547 0.0
H209 H 0.10706 0.27114 0.32251 0.0
H210 H 0.03352 0.24106 0.23138 0.0
H211 H 0.00661 0.24903 0.32509 0.0
N212 N -0.00144 0.26736 0.43839 0.0
N213 N -0.00025 0.26502 0.54594 0.0
N214 N 0.04104 0.2644 0.48966 0.0
C215 C 0.98501 0.26709 0.49299 0.0
C216 C 0.02785 0.26382 0.54447 0.0
C217 C 0.02661 0.26606 0.43653 0.0
C218 C 0.95446 0.26837 0.49445 0.0
C219 C 0.93966 0.27744 0.44269 0.0
C220 C 0.91078 0.27791 0.4432 0.0
C221 C 0.89611 0.2689 0.49508 0.0
C222 C 0.91085 0.26038 0.5473 0.0
C223 C 0.93978 0.26019 0.54708 0.0
C224 C 0.04421 0.26059 0.60127 0.0
C225 C 0.03179 0.25163 0.65616 0.0
C226 C 0.04804 0.2465 0.70811 0.0
C227 C 0.07682 0.25069 0.70608 0.0
C228 C 0.08908 0.26018 0.65169 0.0
C229 C 0.07298 0.2651 0.59992 0.0
C230 C 0.04152 0.26458 0.37765 0.0
C231 C 0.06985 0.27121 0.37544 0.0
C232 C 0.71591 0.89737 0.34047 0.0
C233 C 0.72429 0.91017 0.28573 0.0
C234 C 0.72501 0.93932 0.28262 0.0
C235 C 0.71901 0.9553 0.33454 0.0
H236 H 0.6871 0.03573 0.41791 0.0
H237 H 0.6858 0.08649 0.42047 0.0
H238 H 0.7362 0.08589 0.58423 0.0
H239 H 0.7362 0.03538 0.58354 0.0
H240 H 0.74457 0.9749 0.65524 0.0
H241 H 0.75789 0.9458 0.74228 0.0
H242 H 0.70536 0.88 0.67395 0.0
H243 H 0.69327 0.90849 0.58564 0.0
H244 H 0.70451 0.90251 0.4341 0.0
H245 H 0.71518 0.87494 0.34427 0.0
H246 H 0.73088 0.94971 0.24054 0.0
H247 H 0.72086 0.97767 0.3315 0.0
N248 N 0.71005 0.98665 0.44756 0.0
N249 N 0.714 0.98719 0.55496 0.0
N250 N 0.71229 0.94487 0.50244 0.0
C251 C 0.71158 0.00109 0.50103 0.0
C252 C 0.714 0.95906 0.5559 0.0
C253 C 0.7105 0.95842 0.44805 0.0
C254 C 0.71151 0.03168 0.50085 0.0
C255 C 0.69777 0.04652 0.45453 0.0
C256 C 0.69705 0.07553 0.45598 0.0
C257 C 0.71041 0.09016 0.50328 0.0
C258 C 0.72482 0.07523 0.54852 0.0
C259 C 0.72504 0.04629 0.54779 0.0
C260 C 0.71817 0.94374 0.61354 0.0
C261 C 0.73549 0.95441 0.65965 0.0
C262 C 0.74299 0.93782 0.70962 0.0
C263 C 0.73278 0.91056 0.71474 0.0
C264 C 0.71393 0.90076 0.67065 0.0
C265 C 0.70693 0.91706 0.62024 0.0
C266 C 0.71225 0.94233 0.39039 0.0
C267 C 0.70993 0.91323 0.39212 0.0
C268 C 0.58591 0.23199 0.83691 0.0
C269 C 0.57398 0.24411 0.78474 0.0
C270 C 0.54565 0.25076 0.78495 0.0
C271 C 0.52956 0.24559 0.83713 0.0
H272 H 0.45011 0.21438 0.90613 0.0
H273 H 0.3998 0.20944 0.9077 0.0
H274 H 0.3989 0.23026 0.10013 0.0
H275 H 0.44913 0.23448 0.09936 0.0
H276 H 0.50685 0.24894 0.1679 0.0
H277 H 0.53418 0.25662 0.26128 0.0
H278 H 0.60777 0.22907 0.16684 0.0
H279 H 0.5809 0.22145 0.07413 0.0
H280 H 0.58005 0.21835 0.92899 0.0
H281 H 0.60783 0.22706 0.83811 0.0
H282 H 0.53612 0.26023 0.74514 0.0
H283 H 0.50788 0.25143 0.83686 0.0
N284 N 0.49815 0.22928 0.94802 0.0
N285 N 0.49827 0.22967 0.05571 0.0
N286 N 0.54001 0.23301 0.00178 0.0
C287 C 0.4841 0.22798 0.002 0.0
C288 C 0.52625 0.23209 0.05581 0.0
C289 C 0.52618 0.23176 0.94781 0.0
C290 C 0.45365 0.22484 0.00261 0.0
C291 C 0.43923 0.21778 0.94886 0.0
C292 C 0.41045 0.21492 0.9497 0.0
C293 C 0.39556 0.21916 0.00418 0.0
C294 C 0.40994 0.22618 0.05787 0.0
C295 C 0.43871 0.22884 0.0572 0.0
C296 C 0.54178 0.23466 0.11371 0.0
C297 C 0.52879 0.24416 0.16746 0.0
C298 C 0.54434 0.24866 0.22068 0.0
C299 C 0.57288 0.24314 0.22103 0.0
C300 C 0.58566 0.23303 0.16783 0.0
C301 C 0.5703 0.22889 0.11469 0.0
C302 C 0.54182 0.23428 0.89004 0.0
C303 C 0.57004 0.22719 0.88903 0.0
C304 C 0.27435 0.0928 0.6658 0.0
C305 C 0.26372 0.08 0.7186 0.0
C306 C 0.25999 0.05108 0.7192 0.0
C307 C 0.26609 0.03533 0.66707 0.0
H308 H 0.29783 0.95597 0.59114 0.0
H309 H 0.29803 0.90529 0.59144 0.0
H310 H 0.25903 0.90497 0.41318 0.0
H311 H 0.25986 0.95551 0.41162 0.0
H312 H 0.24706 0.01501 0.34521 0.0
H313 H 0.23254 0.04354 0.25823 0.0
H314 H 0.2781 0.11308 0.33258 0.0
H315 H 0.29149 0.08502 0.42061 0.0
H316 H 0.28752 0.08785 0.57309 0.0
H317 H 0.27699 0.11514 0.66382 0.0
H318 H 0.25177 0.0408 0.75946 0.0
H319 H 0.26217 0.01318 0.6681 0.0
N320 N 0.27895 0.00459 0.55509 0.0
N321 N 0.27568 0.00441 0.44767 0.0
N322 N 0.27589 0.04655 0.50113 0.0
C323 C 0.27819 0.99032 0.50137 0.0
C324 C 0.27482 0.03255 0.4473 0.0
C325 C 0.27779 0.03276 0.5552 0.0
C326 C 0.27872 0.9597 0.50147 0.0
C327 C 0.2893 0.94506 0.55204 0.0
C328 C 0.28926 0.91606 0.55241 0.0
C329 C 0.27814 0.90122 0.50274 0.0
C330 C 0.26786 0.91589 0.45195 0.0
C331 C 0.26828 0.94483 0.45116 0.0
C332 C 0.27011 0.04795 0.38989 0.0
C333 C 0.25439 0.03624 0.34222 0.0
C334 C 0.24618 0.05252 0.29229 0.0
C335 C 0.25405 0.08059 0.28883 0.0
C336 C 0.27134 0.09163 0.33459 0.0
C337 C 0.27908 0.07557 0.38485 0.0
C338 C 0.27554 0.04837 0.61326 0.0
C339 C 0.28019 0.07718 0.61369 0.0
C340 C 0.40035 0.77666 0.15123 0.0
C341 C 0.41272 0.76646 0.20492 0.0
C342 C 0.44147 0.76184 0.20598 0.0
C343 C 0.45742 0.76657 0.15345 0.0
H344 H 0.53711 0.79075 0.07995 0.0
H345 H 0.58756 0.78954 0.08104 0.0
H346 H 0.5879 0.76061 0.89382 0.0
H347 H 0.53737 0.76251 0.89178 0.0
H348 H 0.47944 0.75581 0.82038 0.0
H349 H 0.45174 0.74535 0.72898 0.0
H350 H 0.37752 0.76931 0.82583 0.0
H351 H 0.40475 0.78008 0.91609 0.0
H352 H 0.40577 0.78819 0.05763 0.0
H353 H 0.37816 0.77991 0.1488 0.0
H354 H 0.45142 0.75391 0.24692 0.0
H355 H 0.47939 0.76196 0.15485 0.0
N356 N 0.48846 0.77729 0.04009 0.0
N357 N 0.48827 0.77362 0.93269 0.0
N358 N 0.44645 0.77432 0.98693 0.0
C359 C 0.50255 0.77613 0.98616 0.0
C360 C 0.46015 0.77285 0.93284 0.0
C361 C 0.46034 0.77648 0.04066 0.0
C362 C 0.53318 0.77646 0.98598 0.0
C363 C 0.54788 0.78415 0.03893 0.0
C364 C 0.57677 0.78333 0.03972 0.0
C365 C 0.59155 0.77445 0.9879 0.0
C366 C 0.57696 0.7675 0.9344 0.0
C367 C 0.54804 0.76854 0.93338 0.0
C368 C 0.4443 0.76875 0.87557 0.0
C369 C 0.45727 0.75926 0.82175 0.0
C370 C 0.44148 0.75315 0.76961 0.0
C371 C 0.41262 0.75683 0.77035 0.0
C372 C 0.39982 0.76683 0.82366 0.0
C373 C 0.41546 0.77278 0.87557 0.0
C374 C 0.44474 0.77553 0.09886 0.0
C375 C 0.41617 0.78115 0.09882 0.0
C376 C 0.11031 0.21132 0.15474 0.0
C377 C 0.13076 0.22969 0.13307 0.0
C378 C 0.09 0.22038 0.19612 0.0
C379 C 0.08949 0.24807 0.21665 0.0
H380 H 0.11096 0.18952 0.14257 0.0
H381 H 0.07571 0.20526 0.21498 0.0
S382 S 0.13495 0.30538 0.16417 0.0
N383 N 0.14678 0.27761 0.12835 0.0
N384 N 0.10853 0.29451 0.20589 0.0
C385 C 0.10838 0.26705 0.19143 0.0
C386 C 0.12905 0.25788 0.14965 0.0
C387 C 0.28165 0.6129 0.63766 0.0
C388 C 0.26332 0.6336 0.61715 0.0
C389 C 0.27253 0.59192 0.67747 0.0
C390 C 0.24479 0.59095 0.6973 0.0
H391 H 0.30345 0.61388 0.62596 0.0
H392 H 0.28763 0.57751 0.69592 0.0
S393 S 0.18763 0.63692 0.6463 0.0
N394 N 0.2155 0.64951 0.61225 0.0
N395 N 0.19836 0.60984 0.68633 0.0
C396 C 0.22585 0.61007 0.67269 0.0
C397 C 0.23513 0.6315 0.63279 0.0
C398 C 0.87306 0.78155 0.17316 0.0
C399 C 0.85159 0.76348 0.15541 0.0
C400 C 0.89311 0.77315 0.21588 0.0
C401 C 0.89238 0.74638 0.24172 0.0
H402 H 0.87366 0.80268 0.15609 0.0
H403 H 0.90846 0.7881 0.23094 0.0
S404 S 0.84351 0.68975 0.20212 0.0
N405 N 0.8329 0.71656 0.16117 0.0
N406 N 0.87072 0.70083 0.24096 0.0
C407 C 0.87218 0.72758 0.22122 0.0
C408 C 0.85173 0.73612 0.17817 0.0
C409 C 0.71715 0.37687 0.66448 0.0
C410 C 0.73342 0.35425 0.64534 0.0
C411 C 0.72744 0.39619 0.7069 0.0
C412 C 0.75438 0.39359 0.73104 0.0
H413 H 0.69589 0.37887 0.64906 0.0
H414 H 0.71375 0.4124 0.72325 0.0
S415 S 0.80691 0.34116 0.68661 0.0
N416 N 0.77892 0.33247 0.64752 0.0
N417 N 0.79828 0.36897 0.72652 0.0
C418 C 0.77147 0.37227 0.70877 0.0
C419 C 0.76098 0.35255 0.66607 0.0
C420 C 0.61165 0.28444 0.34062 0.0
C421 C 0.63139 0.26508 0.36128 0.0
C422 C 0.59133 0.27673 0.29791 0.0
C423 C 0.59014 0.24946 0.27502 0.0
H424 H 0.61288 0.30597 0.35472 0.0
H425 H 0.57756 0.29255 0.27999 0.0
S426 S 0.63355 0.18993 0.32357 0.0
N427 N 0.64595 0.21665 0.36225 0.0
N428 N 0.60774 0.20233 0.28206 0.0
C429 C 0.6083 0.22949 0.29902 0.0
C430 C 0.62895 0.23727 0.3422 0.0
C431 C 0.21603 0.11489 0.83278 0.0
C432 C 0.23241 0.13702 0.85415 0.0
C433 C 0.22681 0.09542 0.79136 0.0
C434 C 0.25434 0.0974 0.77042 0.0
H435 H 0.1944 0.11339 0.84567 0.0
H436 H 0.21312 0.07959 0.7732 0.0
S437 S 0.30711 0.14832 0.82152 0.0
N438 N 0.27851 0.15759 0.85763 0.0
N439 N 0.29867 0.12089 0.78014 0.0
C440 C 0.27142 0.11821 0.79487 0.0
C441 C 0.26048 0.13805 0.83669 0.0
C442 C 0.37658 0.72071 0.3211 0.0
C443 C 0.35448 0.73759 0.34057 0.0
C444 C 0.39644 0.73077 0.27978 0.0
C445 C 0.39494 0.75806 0.25696 0.0
H446 H 0.3778 0.6992 0.33548 0.0
H447 H 0.41219 0.71663 0.26313 0.0
S448 S 0.34422 0.81206 0.30249 0.0
N449 N 0.33437 0.78396 0.34008 0.0
N450 N 0.37186 0.80282 0.26282 0.0
C451 C 0.37413 0.7757 0.27944 0.0
C452 C 0.35386 0.76547 0.32116 0.0
C453 C 0.76142 0.84496 0.78593 0.0
C454 C 0.7641 0.85178 0.8482 0.0
C455 C 0.75166 0.86429 0.7435 0.0
C456 C 0.74374 0.89116 0.76167 0.0
H457 H 0.767 0.82444 0.76967 0.0
H458 H 0.75035 0.85807 0.69588 0.0
S459 S 0.74636 0.91925 0.91987 0.0
N460 N 0.75833 0.88724 0.9264 0.0
N461 N 0.7391 0.92363 0.84648 0.0
C462 C 0.74659 0.89845 0.82381 0.0
C463 C 0.75695 0.87874 0.86713 0.0
C464 C 0.85802 0.73577 0.84354 0.0
C465 C 0.85739 0.76329 0.86517 0.0
C466 C 0.87848 0.7269 0.80273 0.0
C467 C 0.89904 0.74525 0.78168 0.0
H468 H 0.84206 0.72111 0.85675 0.0
H469 H 0.87752 0.70582 0.78548 0.0
S470 S 0.90783 0.81891 0.82752 0.0
N471 N 0.88025 0.80834 0.86581 0.0
N472 N 0.91855 0.79174 0.78791 0.0
C473 C 0.89966 0.77237 0.80554 0.0
C474 C 0.87885 0.78139 0.84758 0.0
C475 C 0.73171 0.34414 0.28325 0.0
C476 C 0.72833 0.35105 0.3453 0.0
C477 C 0.74239 0.36331 0.24147 0.0
C478 C 0.7506 0.39005 0.26015 0.0
H479 H 0.72579 0.32379 0.2666 0.0
H480 H 0.74397 0.35714 0.19387 0.0
S481 S 0.74727 0.41787 0.41854 0.0
N482 N 0.73434 0.38619 0.4241 0.0
N483 N 0.75538 0.42217 0.3456 0.0
C484 C 0.74744 0.39724 0.32227 0.0
C485 C 0.73611 0.37775 0.36484 0.0
C486 C 0.11368 0.20848 0.82777 0.0
C487 C 0.1351 0.22651 0.84593 0.0
C488 C 0.0938 0.21694 0.78469 0.0
C489 C 0.09468 0.24373 0.75893 0.0
H490 H 0.11302 0.18734 0.84472 0.0
H491 H 0.07851 0.20202 0.76924 0.0
S492 S 0.14345 0.30028 0.79977 0.0
N493 N 0.15387 0.2734 0.84078 0.0
N494 N 0.11637 0.28927 0.76037 0.0
C495 C 0.1148 0.2625 0.77996 0.0
C496 C 0.13507 0.25389 0.82334 0.0
C497 C 0.27983 0.61789 0.31973 0.0
C498 C 0.26452 0.64266 0.32631 0.0
C499 C 0.27249 0.59795 0.27574 0.0
C500 C 0.24959 0.6021 0.23705 0.0
H501 H 0.29821 0.61429 0.34712 0.0
H502 H 0.28554 0.57982 0.2701 0.0
S503 S 0.20043 0.66117 0.24078 0.0
N504 N 0.22365 0.66863 0.29383 0.0
N505 N 0.20999 0.63101 0.21196 0.0
C506 C 0.23319 0.62584 0.2455 0.0
C507 C 0.24062 0.64616 0.28988 0.0
C508 C 0.37729 0.71231 0.65041 0.0
C509 C 0.35539 0.72952 0.63136 0.0
C510 C 0.39689 0.72182 0.6931 0.0
C511 C 0.39523 0.74884 0.71741 0.0
H512 H 0.37846 0.691 0.6347 0.0
H513 H 0.41253 0.70749 0.70953 0.0
S514 S 0.34491 0.80349 0.67313 0.0
N515 N 0.33529 0.77586 0.63373 0.0
N516 N 0.37231 0.79375 0.7131 0.0
C517 C 0.37466 0.76681 0.6951 0.0
C518 C 0.35467 0.75714 0.65226 0.0
C519 C 0.72895 0.84973 0.17551 0.0
C520 C 0.7555 0.85289 0.14959 0.0
C521 C 0.71838 0.86922 0.21682 0.0
C522 C 0.73393 0.89262 0.23412 0.0
H523 H 0.71638 0.83171 0.16482 0.0
H524 H 0.69815 0.86551 0.2368 0.0
S525 S 0.80407 0.91133 0.17779 0.0
N526 N 0.79659 0.88204 0.14209 0.0
N527 N 0.77684 0.91845 0.2208 0.0
C528 C 0.76001 0.89673 0.20671 0.0
C529 C 0.77076 0.87692 0.16422 0.0
C530 C 0.61483 0.28699 0.67094 0.0
C531 C 0.634 0.26751 0.64842 0.0
C532 C 0.59415 0.27898 0.71258 0.0
C533 C 0.59195 0.25125 0.7323 0.0
H534 H 0.61667 0.30873 0.65871 0.0
H535 H 0.58077 0.29479 0.73183 0.0
S536 S 0.63351 0.19161 0.67746 0.0
N537 N 0.64709 0.21881 0.64241 0.0
N538 N 0.60802 0.20381 0.72006 0.0
C539 C 0.60966 0.23133 0.70656 0.0
C540 C 0.63077 0.23946 0.66475 0.0
C541 C 0.22155 0.14415 0.21673 0.0
C542 C 0.22112 0.13775 0.15398 0.0
C543 C 0.23171 0.12524 0.25965 0.0
C544 C 0.24229 0.09929 0.2415 0.0
H545 H 0.21409 0.16408 0.23287 0.0
H546 H 0.23141 0.1311 0.30757 0.0
S547 S 0.24603 0.07265 0.08223 0.0
N548 N 0.2317 0.10366 0.07535 0.0
N549 N 0.25165 0.06811 0.15627 0.0
C550 C 0.24155 0.09237 0.17888 0.0
C551 C 0.23079 0.11161 0.13503 0.0
C552 C 0.20381 0.32442 0.95107 0.0
C553 C 0.21723 0.30976 -0.0017 0.0
C554 C 0.2039 0.35347 0.94971 0.0
C555 C 0.21758 0.36893 0.99529 0.0
H556 H 0.1931 0.31338 0.91485 0.0
H557 H 0.19323 0.36393 0.91259 0.0
S558 S 0.25695 0.34055 0.12729 0.0
N559 N 0.24498 0.31289 0.09129 0.0
N560 N 0.24563 0.36752 0.08784 0.0
C561 C 0.23104 0.35457 0.04283 0.0
C562 C 0.23076 0.32498 0.04454 0.0
C563 C 0.16748 0.73207 0.53788 0.0
C564 C 0.182 0.71979 0.48903 0.0
C565 C 0.13852 0.73149 0.54016 0.0
C566 C 0.123 0.71835 0.49397 0.0
H567 H 0.17855 0.74276 0.57408 0.0
H568 H 0.12819 0.74186 0.5778 0.0
S569 S 0.15115 0.68037 0.36001 0.0
N570 N 0.17883 0.69258 0.39549 0.0
N571 N 0.12427 0.69088 0.40059 0.0
C572 C 0.13726 0.70527 0.44581 0.0
C573 C 0.16679 0.70613 0.44313 0.0
C574 C 0.76431 0.66391 0.05081 0.0
C575 C 0.7755 0.68 0.00307 0.0
C576 C 0.76621 0.6349 0.04994 0.0
C577 C 0.77961 0.62099 0.00163 0.0
H578 H 0.75341 0.67374 0.08839 0.0
H579 H 0.75661 0.62326 0.08676 0.0
S580 S 0.81532 0.65382 0.86959 0.0
N581 N 0.80219 0.6801 0.90847 0.0
N582 N 0.8063 0.62557 0.90766 0.0
C583 C 0.79172 0.63689 0.95471 0.0
C584 C 0.78955 0.6664 0.95526 0.0
C585 C 0.82146 0.27869 0.54468 0.0
C586 C 0.80643 0.26711 0.49568 0.0
C587 C 0.85046 0.27929 0.54406 0.0
C588 C 0.86546 0.26816 0.49462 0.0
H589 H 0.81076 0.28765 0.58355 0.0
H590 H 0.86121 0.28878 0.58229 0.0
S591 S 0.83605 0.23334 0.35759 0.0
N592 N 0.80874 0.24313 0.39767 0.0
N593 N 0.86329 0.24374 0.39722 0.0
C594 C 0.85073 0.2561 0.44583 0.0
C595 C 0.82121 0.2557 0.44618 0.0
C596 C 0.71606 0.16508 0.45099 0.0
C597 C 0.7122 0.18025 0.50553 0.0
C598 C 0.71505 0.13605 0.45057 0.0
C599 C 0.70996 0.12096 0.50455 0.0
H600 H 0.72046 0.17562 0.40822 0.0
H601 H 0.71895 0.12534 0.40779 0.0
S602 S 0.69629 0.15043 0.65867 0.0
N603 N 0.7019 0.17777 0.61473 0.0
N604 N 0.69917 0.12321 0.61325 0.0
C605 C 0.70524 0.13577 0.55908 0.0
C606 C 0.70654 0.16537 0.55974 0.0
C607 C 0.32109 0.23246 0.95886 0.0
C608 C 0.30595 0.21866 0.0048 0.0
C609 C 0.35004 0.23214 0.95867 0.0
C610 C 0.36495 0.21785 0.00412 0.0
H611 H 0.31054 0.24413 0.92337 0.0
H612 H 0.36083 0.24371 0.92335 0.0
S613 S 0.3352 0.17602 0.1309 0.0
N614 N 0.30797 0.18886 0.09483 0.0
N615 N 0.36258 0.1879 0.09376 0.0
C616 C 0.35013 0.20331 0.0494 0.0
C617 C 0.32058 0.2038 0.0499 0.0
C618 C 0.28301 0.82651 0.44943 0.0
C619 C 0.27295 0.81144 0.5 0.0
C620 C 0.28511 0.85546 0.45124 0.0
C621 C 0.27702 0.87048 0.50348 0.0
H622 H 0.28947 0.81589 0.40809 0.0
H623 H 0.29315 0.86617 0.41133 0.0
S624 S 0.2484 0.84103 0.64736 0.0
N625 N 0.25461 0.81372 0.6038 0.0
N626 N 0.2579 0.86828 0.60649 0.0
C627 C 0.26699 0.85571 0.55448 0.0
C628 C 0.26509 0.82617 0.55289 0.0
C629 C 0.66743 0.7814 0.94455 0.0
C630 C 0.68105 0.7682 0.9936 0.0
C631 C 0.63845 0.7833 0.94288 0.0
C632 C 0.62211 0.77195 0.99003 0.0
H633 H 0.67923 0.7908 0.90774 0.0
H634 H 0.6288 0.7941 0.9049 0.0
S635 S 0.64746 0.73271 0.12524 0.0
N636 N 0.67586 0.74207 0.08848 0.0
N637 N 0.62145 0.74527 0.08464 0.0
C638 C 0.63542 0.75807 0.03845 0.0
C639 C 0.66487 0.75628 0.0404 0.0
loop_
_geom_bond_atom_site_label_1
_geom_bond_atom_site_label_2
_geom_bond_distance
_geom_bond_site_symmetry_2
_ccdc_geom_bond_type
Sc0 O3 2.032 . S
Sc0 O10 2.105 . S
Sc0 O13 2.105 . S
Sc0 O16 2.105 . S
Sc0 O19 2.105 . S
Sc1 O3 2.025 . S
Sc1 O11 2.110 . S
Sc1 O15 2.100 1_554 S
Sc1 O17 2.110 . S
Sc1 O21 2.100 1_554 S
Sc2 O3 2.019 1_556 S
Sc2 O12 2.105 . S
Sc2 O14 2.105 . S
Sc2 O18 2.105 . S
Sc2 O20 2.105 . S
O3 Sc0 2.032 . S
O3 Sc1 2.025 . S
O3 Sc2 2.019 1_554 S
C4 O10 1.271 . S
C4 O20 1.266 1_554 S
C5 O11 1.268 . S
C5 O19 1.268 . S
C6 O12 1.268 . S
C6 O21 1.268 . S
C7 O13 1.268 . S
C7 O17 1.268 . S
C8 O14 1.257 1_554 S
C8 O16 1.279 . S
C9 O15 1.268 . S
C9 O18 1.268 . S
O10 Sc0 2.105 . S
O10 C4 1.271 . S
O11 Sc1 2.110 . S
O11 C5 1.268 . S
O12 Sc2 2.105 . S
O12 C6 1.268 . S
O13 Sc0 2.105 . S
O13 C7 1.268 . S
O14 Sc2 2.105 . S
O14 C8 1.257 1_556 S
O15 Sc1 2.100 1_556 S
O15 C9 1.268 . S
O16 Sc0 2.105 . S
O16 C8 1.279 . S
O17 Sc1 2.110 . S
O17 C7 1.268 . S
O18 Sc2 2.105 . S
O18 C9 1.268 . S
O19 Sc0 2.105 . S
O19 C5 1.268 . S
O20 Sc2 2.105 . S
O20 C4 1.266 1_556 S
O21 Sc1 2.100 1_556 S
O21 C6 1.268 . S
Sc22 O25 2.025 . S
Sc22 O32 2.105 . S
Sc22 O35 2.105 . S
Sc22 O38 2.105 . S
Sc22 O41 2.105 . S
Sc23 O25 2.025 . S
Sc23 O33 2.105 . S
Sc23 O37 2.105 . S
Sc23 O39 2.105 . S
Sc23 O43 2.105 . S
Sc24 O25 2.025 . S
Sc24 O34 2.105 . S
Sc24 O36 2.105 . S
Sc24 O40 2.105 . S
Sc24 O42 2.105 . S
O25 Sc22 2.025 . S
O25 Sc23 2.025 . S
O25 Sc24 2.025 . S
C26 O32 1.268 . S
C26 O42 1.268 . S
C27 O33 1.268 . S
C27 O41 1.268 . S
C28 O34 1.268 . S
C28 O43 1.268 . S
C29 O35 1.268 . S
C29 O39 1.268 . S
C30 O36 1.268 . S
C30 O38 1.268 . S
C31 O37 1.268 . S
C31 O40 1.268 . S
O32 Sc22 2.105 . S
O32 C26 1.268 . S
O33 Sc23 2.105 . S
O33 C27 1.268 . S
O34 Sc24 2.105 . S
O34 C28 1.268 . S
O35 Sc22 2.105 . S
O35 C29 1.268 . S
O36 Sc24 2.105 . S
O36 C30 1.268 . S
O37 Sc23 2.105 . S
O37 C31 1.268 . S
O38 Sc22 2.105 . S
O38 C30 1.268 . S
O39 Sc23 2.105 . S
O39 C29 1.268 . S
O40 Sc24 2.105 . S
O40 C31 1.268 . S
O41 Sc22 2.105 . S
O41 C27 1.268 . S
O42 Sc24 2.105 . S
O42 C26 1.268 . S
O43 Sc23 2.105 . S
O43 C28 1.268 . S
Sc44 O47 2.019 1_556 S
Sc44 O54 2.105 . S
Sc44 O57 2.105 . S
Sc44 O60 2.105 . S
Sc44 O63 2.105 . S
Sc45 O47 2.025 . S
Sc45 O55 2.100 1_554 S
Sc45 O59 2.110 . S
Sc45 O61 2.100 1_554 S
Sc45 O65 2.110 . S
Sc46 O47 2.032 . S
Sc46 O56 2.105 . S
Sc46 O58 2.105 . S
Sc46 O62 2.105 . S
Sc46 O64 2.105 . S
O47 Sc44 2.019 1_554 S
O47 Sc45 2.025 . S
O47 Sc46 2.032 . S
C48 O54 1.266 1_554 S
C48 O64 1.271 . S
C49 O55 1.268 . S
C49 O63 1.268 . S
C50 O56 1.268 . S
C50 O65 1.268 . S
C51 O57 1.268 . S
C51 O61 1.268 . S
C52 O58 1.279 . S
C52 O60 1.257 1_554 S
C53 O59 1.268 . S
C53 O62 1.268 . S
O54 Sc44 2.105 . S
O54 C48 1.266 1_556 S
O55 Sc45 2.100 1_556 S
O55 C49 1.268 . S
O56 Sc46 2.105 . S
O56 C50 1.268 . S
O57 Sc44 2.105 . S
O57 C51 1.268 . S
O58 Sc46 2.105 . S
O58 C52 1.279 . S
O59 Sc45 2.110 . S
O59 C53 1.268 . S
O60 Sc44 2.105 . S
O60 C52 1.257 1_556 S
O61 Sc45 2.100 1_556 S
O61 C51 1.268 . S
O62 Sc46 2.105 . S
O62 C53 1.268 . S
O63 Sc44 2.105 . S
O63 C49 1.268 . S
O64 Sc46 2.105 . S
O64 C48 1.271 . S
O65 Sc45 2.110 . S
O65 C50 1.268 . S
Sc66 O69 2.025 . S
Sc66 O76 2.105 . S
Sc66 O79 2.105 . S
Sc66 O82 2.105 . S
Sc66 O85 2.105 . S
Sc67 O69 2.025 . S
Sc67 O77 2.105 . S
Sc67 O81 2.105 . S
Sc67 O83 2.105 . S
Sc67 O87 2.105 . S
Sc68 O69 2.025 . S
Sc68 O78 2.105 . S
Sc68 O80 2.105 . S
Sc68 O84 2.105 . S
Sc68 O86 2.105 . S
O69 Sc66 2.025 . S
O69 Sc67 2.025 . S
O69 Sc68 2.025 . S
C70 O76 1.268 . S
C70 O86 1.268 . S
C71 O77 1.268 . S
C71 O85 1.268 . S
C72 O78 1.268 . S
C72 O87 1.268 . S
C73 O79 1.268 . S
C73 O83 1.268 . S
C74 O80 1.268 . S
C74 O82 1.268 . S
C75 O81 1.268 . S
C75 O84 1.268 . S
O76 Sc66 2.105 . S
O76 C70 1.268 . S
O77 Sc67 2.105 . S
O77 C71 1.268 . S
O78 Sc68 2.105 . S
O78 C72 1.268 . S
O79 Sc66 2.105 . S
O79 C73 1.268 . S
O80 Sc68 2.105 . S
O80 C74 1.268 . S
O81 Sc67 2.105 . S
O81 C75 1.268 . S
O82 Sc66 2.105 . S
O82 C74 1.268 . S
O83 Sc67 2.105 . S
O83 C73 1.268 . S
O84 Sc68 2.105 . S
O84 C75 1.268 . S
O85 Sc66 2.105 . S
O85 C71 1.268 . S
O86 Sc68 2.105 . S
O86 C70 1.268 . S
O87 Sc67 2.105 . S
O87 C72 1.268 . S
C88 C89 1.384 . S
C88 H101 0.947 . S
C88 C123 1.382 . S
C89 C88 1.384 . S
C89 C90 1.378 . S
C90 C89 1.378 . S
C90 C91 1.378 . S
C90 H102 0.952 . S
C91 C90 1.378 . S
C91 H103 0.950 . S
C91 C122 1.383 . S
H92 C111 0.947 . S
H93 C112 0.946 . S
H94 C114 0.953 . S
H95 C115 0.945 . S
H96 C117 0.952 . S
H97 C118 0.949 . S
H98 C120 0.950 . S
H99 C121 0.948 . S
H100 C123 0.951 . S
H101 C88 0.947 . S
H102 C90 0.952 . S
H103 C91 0.950 . S
N104 C107 1.382 1_554 S
N104 C109 1.363 . S
N105 C107 1.371 . S
N105 C108 1.372 . S
N106 C108 1.361 . S
N106 C109 1.377 1_556 S
C107 N104 1.382 1_556 S
C107 N105 1.371 . S
C107 C110 1.480 . S
C108 N105 1.372 . S
C108 N106 1.361 . S
C108 C116 1.457 . S
C109 N104 1.363 . S
C109 N106 1.377 1_554 S
C109 C122 1.479 . S
C110 C107 1.480 . S
C110 C111 1.383 1_556 S
C110 C115 1.385 . S
C111 H92 0.947 . S
C111 C110 1.383 1_554 S
C111 C112 1.388 . S
C112 H93 0.946 . S
C112 C111 1.388 . S
C112 C113 1.384 1_554 S
C113 C112 1.384 1_556 S
C113 C114 1.377 . S
C114 H94 0.953 . S
C114 C113 1.377 . S
C114 C115 1.369 . S
C115 H95 0.945 . S
C115 C110 1.385 . S
C115 C114 1.369 . S
C116 C108 1.457 . S
C116 C117 1.372 . S
C116 C121 1.364 . S
C117 H96 0.952 . S
C117 C116 1.372 . S
C117 C118 1.389 . S
C118 H97 0.949 . S
C118 C117 1.389 . S
C118 C119 1.387 . S
C119 C118 1.387 . S
C119 C120 1.372 . S
C120 H98 0.950 . S
C120 C119 1.372 . S
C120 C121 1.379 . S
C121 H99 0.948 . S
C121 C116 1.364 . S
C121 C120 1.379 . S
C122 C91 1.383 . S
C122 C109 1.479 . S
C122 C123 1.398 . S
C123 C88 1.382 . S
C123 H100 0.951 . S
C123 C122 1.398 . S
C124 C125 1.384 . S
C124 H137 0.947 . S
C124 C159 1.382 . S
C125 C124 1.384 . S
C125 C126 1.378 . S
C126 C125 1.378 . S
C126 C127 1.378 . S
C126 H138 0.952 . S
C127 C126 1.378 . S
C127 H139 0.950 . S
C127 C158 1.383 . S
H128 C147 0.947 . S
H129 C148 0.946 . S
H130 C150 0.953 . S
H131 C151 0.945 . S
H132 C153 0.952 . S
H133 C154 0.949 . S
H134 C156 0.950 . S
H135 C157 0.948 . S
H136 C159 0.951 . S
H137 C124 0.947 . S
H138 C126 0.952 . S
H139 C127 0.950 . S
N140 C143 1.382 1_655 S
N140 C145 1.363 . S
N141 C143 1.371 1_655 S
N141 C144 1.372 . S
N142 C144 1.361 . S
N142 C145 1.377 . S
C143 N140 1.382 1_455 S
C143 N141 1.371 1_455 S
C143 C146 1.480 . S
C144 N141 1.372 . S
C144 N142 1.361 . S
C144 C152 1.457 . S
C145 N140 1.363 . S
C145 N142 1.377 . S
C145 C158 1.479 . S
C146 C143 1.480 . S
C146 C147 1.383 . S
C146 C151 1.385 . S
C147 H128 0.947 . S
C147 C146 1.383 . S
C147 C148 1.388 . S
C148 H129 0.946 . S
C148 C147 1.388 . S
C148 C149 1.384 . S
C149 C148 1.384 . S
C149 C150 1.377 . S
C150 H130 0.953 . S
C150 C149 1.377 . S
C150 C151 1.369 . S
C151 H131 0.945 . S
C151 C146 1.385 . S
C151 C150 1.369 . S
C152 C144 1.457 . S
C152 C153 1.372 . S
C152 C157 1.364 . S
C153 H132 0.952 . S
C153 C152 1.372 . S
C153 C154 1.389 . S
C154 H133 0.949 . S
C154 C153 1.389 . S
C154 C155 1.387 . S
C155 C154 1.387 . S
C155 C156 1.372 . S
C156 H134 0.950 . S
C156 C155 1.372 . S
C156 C157 1.379 . S
C157 H135 0.948 . S
C157 C152 1.364 . S
C157 C156 1.379 . S
C158 C127 1.383 . S
C158 C145 1.479 . S
C158 C159 1.398 . S
C159 C124 1.382 . S
C159 H136 0.951 . S
C159 C158 1.398 . S
C160 C161 1.384 . S
C160 H173 0.947 . S
C160 C195 1.382 . S
C161 C160 1.384 . S
C161 C162 1.378 . S
C162 C161 1.378 . S
C162 C163 1.378 . S
C162 H174 0.952 . S
C163 C162 1.378 . S
C163 H175 0.950 . S
C163 C194 1.383 . S
H164 C183 0.947 . S
H165 C184 0.946 . S
H166 C186 0.953 . S
H167 C187 0.945 . S
H168 C189 0.952 . S
H169 C190 0.949 . S
H170 C192 0.950 . S
H171 C193 0.948 . S
H172 C195 0.951 . S
H173 C160 0.947 . S
H174 C162 0.952 . S
H175 C163 0.950 . S
N176 C179 1.382 1_556 S
N176 C181 1.363 . S
N177 C179 1.371 . S
N177 C180 1.372 . S
N178 C180 1.361 . S
N178 C181 1.377 1_554 S
C179 N176 1.382 1_554 S
C179 N177 1.371 . S
C179 C182 1.480 . S
C180 N177 1.372 . S
C180 N178 1.361 . S
C180 C188 1.457 . S
C181 N176 1.363 . S
C181 N178 1.377 1_556 S
C181 C194 1.479 . S
C182 C179 1.480 . S
C182 C183 1.383 1_554 S
C182 C187 1.385 . S
C183 H164 0.947 . S
C183 C182 1.383 1_556 S
C183 C184 1.388 . S
C184 H165 0.946 . S
C184 C183 1.388 . S
C184 C185 1.384 1_556 S
C185 C184 1.384 1_554 S
C185 C186 1.377 . S
C186 H166 0.953 . S
C186 C185 1.377 . S
C186 C187 1.369 . S
C187 H167 0.945 . S
C187 C182 1.385 . S
C187 C186 1.369 . S
C188 C180 1.457 . S
C188 C189 1.372 . S
C188 C193 1.364 . S
C189 H168 0.952 . S
C189 C188 1.372 . S
C189 C190 1.389 . S
C190 H169 0.949 . S
C190 C189 1.389 . S
C190 C191 1.387 . S
C191 C190 1.387 . S
C191 C192 1.372 . S
C192 H170 0.950 . S
C192 C191 1.372 . S
C192 C193 1.379 . S
C193 H171 0.948 . S
C193 C188 1.364 . S
C193 C192 1.379 . S
C194 C163 1.383 . S
C194 C181 1.479 . S
C194 C195 1.398 . S
C195 C160 1.382 . S
C195 H172 0.951 . S
C195 C194 1.398 . S
C196 C197 1.384 . S
C196 H209 0.947 . S
C196 C231 1.382 . S
C197 C196 1.384 . S
C197 C198 1.378 . S
C198 C197 1.378 . S
C198 C199 1.378 . S
C198 H210 0.952 . S
C199 C198 1.378 . S
C199 H211 0.950 . S
C199 C230 1.383 . S
H200 C219 0.947 . S
H201 C220 0.946 . S
H202 C222 0.953 . S
H203 C223 0.945 . S
H204 C225 0.952 . S
H205 C226 0.949 . S
H206 C228 0.950 . S
H207 C229 0.948 . S
H208 C231 0.951 . S
H209 C196 0.947 . S
H210 C198 0.952 . S
H211 C199 0.950 . S
N212 C215 1.382 1_455 S
N212 C217 1.363 . S
N213 C215 1.371 1_455 S
N213 C216 1.372 . S
N214 C216 1.361 . S
N214 C217 1.377 . S
C215 N212 1.382 1_655 S
C215 N213 1.371 1_655 S
C215 C218 1.480 . S
C216 N213 1.372 . S
C216 N214 1.361 . S
C216 C224 1.457 . S
C217 N212 1.363 . S
C217 N214 1.377 . S
C217 C230 1.479 . S
C218 C215 1.480 . S
C218 C219 1.383 . S
C218 C223 1.385 . S
C219 H200 0.947 . S
C219 C218 1.383 . S
C219 C220 1.388 . S
C220 H201 0.946 . S
C220 C219 1.388 . S
C220 C221 1.384 . S
C221 C220 1.384 . S
C221 C222 1.377 . S
C222 H202 0.953 . S
C222 C221 1.377 . S
C222 C223 1.369 . S
C223 H203 0.945 . S
C223 C218 1.385 . S
C223 C222 1.369 . S
C224 C216 1.457 . S
C224 C225 1.372 . S
C224 C229 1.364 . S
C225 H204 0.952 . S
C225 C224 1.372 . S
C225 C226 1.389 . S
C226 H205 0.949 . S
C226 C225 1.389 . S
C226 C227 1.387 . S
C227 C226 1.387 . S
C227 C228 1.372 . S
C228 H206 0.950 . S
C228 C227 1.372 . S
C228 C229 1.379 . S
C229 H207 0.948 . S
C229 C224 1.364 . S
C229 C228 1.379 . S
C230 C199 1.383 . S
C230 C217 1.479 . S
C230 C231 1.398 . S
C231 C196 1.382 . S
C231 H208 0.951 . S
C231 C230 1.398 . S
C232 C233 1.384 . S
C232 H245 0.947 . S
C232 C267 1.382 . S
C233 C232 1.384 . S
C233 C234 1.378 . S
C234 C233 1.378 . S
C234 C235 1.378 . S
C234 H246 0.952 . S
C235 C234 1.378 . S
C235 H247 0.950 . S
C235 C266 1.383 . S
H236 C255 0.947 . S
H237 C256 0.946 . S
H238 C258 0.953 . S
H239 C259 0.945 . S
H240 C261 0.952 . S
H241 C262 0.949 . S
H242 C264 0.950 . S
H243 C265 0.948 . S
H244 C267 0.951 . S
H245 C232 0.947 . S
H246 C234 0.952 . S
H247 C235 0.950 . S
N248 C251 1.382 1_565 S
N248 C253 1.363 . S
N249 C251 1.371 1_565 S
N249 C252 1.372 . S
N250 C252 1.361 . S
N250 C253 1.377 . S
C251 N248 1.382 1_545 S
C251 N249 1.371 1_545 S
C251 C254 1.480 . S
C252 N249 1.372 . S
C252 N250 1.361 . S
C252 C260 1.457 . S
C253 N248 1.363 . S
C253 N250 1.377 . S
C253 C266 1.479 . S
C254 C251 1.480 . S
C254 C255 1.383 . S
C254 C259 1.385 . S
C255 H236 0.947 . S
C255 C254 1.383 . S
C255 C256 1.388 . S
C256 H237 0.946 . S
C256 C255 1.388 . S
C256 C257 1.384 . S
C257 C256 1.384 . S
C257 C258 1.377 . S
C258 H238 0.953 . S
C258 C257 1.377 . S
C258 C259 1.369 . S
C259 H239 0.945 . S
C259 C254 1.385 . S
C259 C258 1.369 . S
C260 C252 1.457 . S
C260 C261 1.372 . S
C260 C265 1.364 . S
C261 H240 0.952 . S
C261 C260 1.372 . S
C261 C262 1.389 . S
C262 H241 0.949 . S
C262 C261 1.389 . S
C262 C263 1.387 . S
C263 C262 1.387 . S
C263 C264 1.372 . S
C264 H242 0.950 . S
C264 C263 1.372 . S
C264 C265 1.379 . S
C265 H243 0.948 . S
C265 C260 1.364 . S
C265 C264 1.379 . S
C266 C235 1.383 . S
C266 C253 1.479 . S
C266 C267 1.398 . S
C267 C232 1.382 . S
C267 H244 0.951 . S
C267 C266 1.398 . S
C268 C269 1.384 . S
C268 H281 0.947 . S
C268 C303 1.382 . S
C269 C268 1.384 . S
C269 C270 1.378 . S
C270 C269 1.378 . S
C270 C271 1.378 . S
C270 H282 0.952 . S
C271 C270 1.378 . S
C271 H283 0.950 . S
C271 C302 1.383 . S
H272 C291 0.947 . S
H273 C292 0.946 . S
H274 C294 0.953 . S
H275 C295 0.945 . S
H276 C297 0.952 . S
H277 C298 0.949 . S
H278 C300 0.950 . S
H279 C301 0.948 . S
H280 C303 0.951 . S
H281 C268 0.947 . S
H282 C270 0.952 . S
H283 C271 0.950 . S
N284 C287 1.382 1_556 S
N284 C289 1.363 . S
N285 C287 1.371 . S
N285 C288 1.372 . S
N286 C288 1.361 . S
N286 C289 1.377 1_554 S
C287 N284 1.382 1_554 S
C287 N285 1.371 . S
C287 C290 1.480 . S
C288 N285 1.372 . S
C288 N286 1.361 . S
C288 C296 1.457 . S
C289 N284 1.363 . S
C289 N286 1.377 1_556 S
C289 C302 1.479 . S
C290 C287 1.480 . S
C290 C291 1.383 1_554 S
C290 C295 1.385 . S
C291 H272 0.947 . S
C291 C290 1.383 1_556 S
C291 C292 1.388 . S
C292 H273 0.946 . S
C292 C291 1.388 . S
C292 C293 1.384 1_556 S
C293 C292 1.384 1_554 S
C293 C294 1.377 . S
C294 H274 0.953 . S
C294 C293 1.377 . S
C294 C295 1.369 . S
C295 H275 0.945 . S
C295 C290 1.385 . S
C295 C294 1.369 . S
C296 C288 1.457 . S
C296 C297 1.372 . S
C296 C301 1.364 . S
C297 H276 0.952 . S
C297 C296 1.372 . S
C297 C298 1.389 . S
C298 H277 0.949 . S
C298 C297 1.389 . S
C298 C299 1.387 . S
C299 C298 1.387 . S
C299 C300 1.372 . S
C300 H278 0.950 . S
C300 C299 1.372 . S
C300 C301 1.379 . S
C301 H279 0.948 . S
C301 C296 1.364 . S
C301 C300 1.379 . S
C302 C271 1.383 . S
C302 C289 1.479 . S
C302 C303 1.398 . S
C303 C268 1.382 . S
C303 H280 0.951 . S
C303 C302 1.398 . S
C304 C305 1.384 . S
C304 H317 0.947 . S
C304 C339 1.382 . S
C305 C304 1.384 . S
C305 C306 1.378 . S
C306 C305 1.378 . S
C306 C307 1.378 . S
C306 H318 0.952 . S
C307 C306 1.378 . S
C307 H319 0.950 . S
C307 C338 1.383 . S
H308 C327 0.947 . S
H309 C328 0.946 . S
H310 C330 0.953 . S
H311 C331 0.945 . S
H312 C333 0.952 . S
H313 C334 0.949 . S
H314 C336 0.950 . S
H315 C337 0.948 . S
H316 C339 0.951 . S
H317 C304 0.947 . S
H318 C306 0.952 . S
H319 C307 0.950 . S
N320 C323 1.382 1_545 S
N320 C325 1.363 . S
N321 C323 1.371 1_545 S
N321 C324 1.372 . S
N322 C324 1.361 . S
N322 C325 1.377 . S
C323 N320 1.382 1_565 S
C323 N321 1.371 1_565 S
C323 C326 1.480 . S
C324 N321 1.372 . S
C324 N322 1.361 . S
C324 C332 1.457 . S
C325 N320 1.363 . S
C325 N322 1.377 . S
C325 C338 1.479 . S
C326 C323 1.480 . S
C326 C327 1.383 . S
C326 C331 1.385 . S
C327 H308 0.947 . S
C327 C326 1.383 . S
C327 C328 1.388 . S
C328 H309 0.946 . S
C328 C327 1.388 . S
C328 C329 1.384 . S
C329 C328 1.384 . S
C329 C330 1.377 . S
C330 H310 0.953 . S
C330 C329 1.377 . S
C330 C331 1.369 . S
C331 H311 0.945 . S
C331 C326 1.385 . S
C331 C330 1.369 . S
C332 C324 1.457 . S
C332 C333 1.372 . S
C332 C337 1.364 . S
C333 H312 0.952 . S
C333 C332 1.372 . S
C333 C334 1.389 . S
C334 H313 0.949 . S
C334 C333 1.389 . S
C334 C335 1.387 . S
C335 C334 1.387 . S
C335 C336 1.372 . S
C336 H314 0.950 . S
C336 C335 1.372 . S
C336 C337 1.379 . S
C337 H315 0.948 . S
C337 C332 1.364 . S
C337 C336 1.379 . S
C338 C307 1.383 . S
C338 C325 1.479 . S
C338 C339 1.398 . S
C339 C304 1.382 . S
C339 H316 0.951 . S
C339 C338 1.398 . S
C340 C341 1.384 . S
C340 H353 0.947 . S
C340 C375 1.382 . S
C341 C340 1.384 . S
C341 C342 1.378 . S
C342 C341 1.378 . S
C342 C343 1.378 . S
C342 H354 0.952 . S
C343 C342 1.378 . S
C343 H355 0.950 . S
C343 C374 1.383 . S
H344 C363 0.947 . S
H345 C364 0.946 . S
H346 C366 0.953 . S
H347 C367 0.945 . S
H348 C369 0.952 . S
H349 C370 0.949 . S
H350 C372 0.950 . S
H351 C373 0.948 . S
H352 C375 0.951 . S
H353 C340 0.947 . S
H354 C342 0.952 . S
H355 C343 0.950 . S
N356 C359 1.382 1_554 S
N356 C361 1.363 . S
N357 C359 1.371 . S
N357 C360 1.372 . S
N358 C360 1.361 . S
N358 C361 1.377 1_556 S
C359 N356 1.382 1_556 S
C359 N357 1.371 . S
C359 C362 1.480 . S
C360 N357 1.372 . S
C360 N358 1.361 . S
C360 C368 1.457 . S
C361 N356 1.363 . S
C361 N358 1.377 1_554 S
C361 C374 1.479 . S
C362 C359 1.480 . S
C362 C363 1.383 1_556 S
C362 C367 1.385 . S
C363 H344 0.947 . S
C363 C362 1.383 1_554 S
C363 C364 1.388 . S
C364 H345 0.946 . S
C364 C363 1.388 . S
C364 C365 1.384 1_554 S
C365 C364 1.384 1_556 S
C365 C366 1.377 . S
C366 H346 0.953 . S
C366 C365 1.377 . S
C366 C367 1.369 . S
C367 H347 0.945 . S
C367 C362 1.385 . S
C367 C366 1.369 . S
C368 C360 1.457 . S
C368 C369 1.372 . S
C368 C373 1.364 . S
C369 H348 0.952 . S
C369 C368 1.372 . S
C369 C370 1.389 . S
C370 H349 0.949 . S
C370 C369 1.389 . S
C370 C371 1.387 . S
C371 C370 1.387 . S
C371 C372 1.372 . S
C372 H350 0.950 . S
C372 C371 1.372 . S
C372 C373 1.379 . S
C373 H351 0.948 . S
C373 C368 1.364 . S
C373 C372 1.379 . S
C374 C343 1.383 . S
C374 C361 1.479 . S
C374 C375 1.398 . S
C375 C340 1.382 . S
C375 H352 0.951 . S
C375 C374 1.398 . S
C376 C377 1.369 . S
C376 C378 1.419 . S
C376 H380 0.930 . S
C377 C376 1.369 . S
C377 C386 1.429 . S
C378 C376 1.419 . S
C378 C379 1.363 . S
C378 H381 0.929 . S
C379 C378 1.363 . S
C379 C385 1.428 . S
H380 C376 0.930 . S
H381 C378 0.929 . S
S382 N383 1.613 . S
S382 N384 1.610 . S
N383 S382 1.613 . S
N383 C386 1.350 . S
N384 S382 1.610 . S
N384 C385 1.351 . S
C385 C379 1.428 . S
C385 N384 1.351 . S
C385 C386 1.434 . S
C386 C377 1.429 . S
C386 N383 1.350 . S
C386 C385 1.434 . S
C387 C388 1.369 . S
C387 C389 1.419 . S
C387 H391 0.930 . S
C388 C387 1.369 . S
C388 C397 1.429 . S
C389 C387 1.419 . S
C389 C390 1.363 . S
C389 H392 0.929 . S
C390 C389 1.363 . S
C390 C396 1.428 . S
H391 C387 0.930 . S
H392 C389 0.929 . S
S393 N394 1.613 . S
S393 N395 1.610 . S
N394 S393 1.613 . S
N394 C397 1.350 . S
N395 S393 1.610 . S
N395 C396 1.351 . S
C396 C390 1.428 . S
C396 N395 1.351 . S
C396 C397 1.434 . S
C397 C388 1.429 . S
C397 N394 1.350 . S
C397 C396 1.434 . S
C398 C399 1.369 . S
C398 C400 1.419 . S
C398 H402 0.930 . S
C399 C398 1.369 . S
C399 C408 1.429 . S
C400 C398 1.419 . S
C400 C401 1.363 . S
C400 H403 0.929 . S
C401 C400 1.363 . S
C401 C407 1.428 . S
H402 C398 0.930 . S
H403 C400 0.929 . S
S404 N405 1.613 . S
S404 N406 1.610 . S
N405 S404 1.613 . S
N405 C408 1.350 . S
N406 S404 1.610 . S
N406 C407 1.351 . S
C407 C401 1.428 . S
C407 N406 1.351 . S
C407 C408 1.434 . S
C408 C399 1.429 . S
C408 N405 1.350 . S
C408 C407 1.434 . S
C409 C410 1.369 . S
C409 C411 1.419 . S
C409 H413 0.930 . S
C410 C409 1.369 . S
C410 C419 1.429 . S
C411 C409 1.419 . S
C411 C412 1.363 . S
C411 H414 0.929 . S
C412 C411 1.363 . S
C412 C418 1.428 . S
H413 C409 0.930 . S
H414 C411 0.929 . S
S415 N416 1.613 . S
S415 N417 1.610 . S
N416 S415 1.613 . S
N416 C419 1.350 . S
N417 S415 1.610 . S
N417 C418 1.351 . S
C418 C412 1.428 . S
C418 N417 1.351 . S
C418 C419 1.434 . S
C419 C410 1.429 . S
C419 N416 1.350 . S
C419 C418 1.434 . S
C420 C421 1.369 . S
C420 C422 1.419 . S
C420 H424 0.930 . S
C421 C420 1.369 . S
C421 C430 1.429 . S
C422 C420 1.419 . S
C422 C423 1.363 . S
C422 H425 0.929 . S
C423 C422 1.363 . S
C423 C429 1.428 . S
H424 C420 0.930 . S
H425 C422 0.929 . S
S426 N427 1.613 . S
S426 N428 1.610 . S
N427 S426 1.613 . S
N427 C430 1.350 . S
N428 S426 1.610 . S
N428 C429 1.351 . S
C429 C423 1.428 . S
C429 N428 1.351 . S
C429 C430 1.434 . S
C430 C421 1.429 . S
C430 N427 1.350 . S
C430 C429 1.434 . S
C431 C432 1.369 . S
C431 C433 1.419 . S
C431 H435 0.930 . S
C432 C431 1.369 . S
C432 C441 1.429 . S
C433 C431 1.419 . S
C433 C434 1.363 . S
C433 H436 0.929 . S
C434 C433 1.363 . S
C434 C440 1.428 . S
H435 C431 0.930 . S
H436 C433 0.929 . S
S437 N438 1.613 . S
S437 N439 1.610 . S
N438 S437 1.613 . S
N438 C441 1.350 . S
N439 S437 1.610 . S
N439 C440 1.351 . S
C440 C434 1.428 . S
C440 N439 1.351 . S
C440 C441 1.434 . S
C441 C432 1.429 . S
C441 N438 1.350 . S
C441 C440 1.434 . S
C442 C443 1.369 . S
C442 C444 1.419 . S
C442 H446 0.930 . S
C443 C442 1.369 . S
C443 C452 1.429 . S
C444 C442 1.419 . S
C444 C445 1.363 . S
C444 H447 0.929 . S
C445 C444 1.363 . S
C445 C451 1.428 . S
H446 C442 0.930 . S
H447 C444 0.929 . S
S448 N449 1.613 . S
S448 N450 1.610 . S
N449 S448 1.613 . S
N449 C452 1.350 . S
N450 S448 1.610 . S
N450 C451 1.351 . S
C451 C445 1.428 . S
C451 N450 1.351 . S
C451 C452 1.434 . S
C452 C443 1.429 . S
C452 N449 1.350 . S
C452 C451 1.434 . S
C453 C454 1.369 . S
C453 C455 1.419 . S
C453 H457 0.930 . S
C454 C453 1.369 . S
C454 C463 1.429 . S
C455 C453 1.419 . S
C455 C456 1.363 . S
C455 H458 0.929 . S
C456 C455 1.363 . S
C456 C462 1.428 . S
H457 C453 0.930 . S
H458 C455 0.929 . S
S459 N460 1.613 . S
S459 N461 1.610 . S
N460 S459 1.613 . S
N460 C463 1.350 . S
N461 S459 1.610 . S
N461 C462 1.351 . S
C462 C456 1.428 . S
C462 N461 1.351 . S
C462 C463 1.434 . S
C463 C454 1.429 . S
C463 N460 1.350 . S
C463 C462 1.434 . S
C464 C465 1.369 . S
C464 C466 1.419 . S
C464 H468 0.930 . S
C465 C464 1.369 . S
C465 C474 1.429 . S
C466 C464 1.419 . S
C466 C467 1.363 . S
C466 H469 0.929 . S
C467 C466 1.363 . S
C467 C473 1.428 . S
H468 C464 0.930 . S
H469 C466 0.929 . S
S470 N471 1.613 . S
S470 N472 1.610 . S
N471 S470 1.613 . S
N471 C474 1.350 . S
N472 S470 1.610 . S
N472 C473 1.351 . S
C473 C467 1.428 . S
C473 N472 1.351 . S
C473 C474 1.434 . S
C474 C465 1.429 . S
C474 N471 1.350 . S
C474 C473 1.434 . S
C475 C476 1.369 . S
C475 C477 1.419 . S
C475 H479 0.930 . S
C476 C475 1.369 . S
C476 C485 1.429 . S
C477 C475 1.419 . S
C477 C478 1.363 . S
C477 H480 0.929 . S
C478 C477 1.363 . S
C478 C484 1.428 . S
H479 C475 0.930 . S
H480 C477 0.929 . S
S481 N482 1.613 . S
S481 N483 1.610 . S
N482 S481 1.613 . S
N482 C485 1.350 . S
N483 S481 1.610 . S
N483 C484 1.351 . S
C484 C478 1.428 . S
C484 N483 1.351 . S
C484 C485 1.434 . S
C485 C476 1.429 . S
C485 N482 1.350 . S
C485 C484 1.434 . S
C486 C487 1.369 . S
C486 C488 1.419 . S
C486 H490 0.930 . S
C487 C486 1.369 . S
C487 C496 1.429 . S
C488 C486 1.419 . S
C488 C489 1.363 . S
C488 H491 0.929 . S
C489 C488 1.363 . S
C489 C495 1.428 . S
H490 C486 0.930 . S
H491 C488 0.929 . S
S492 N493 1.613 . S
S492 N494 1.610 . S
N493 S492 1.613 . S
N493 C496 1.350 . S
N494 S492 1.610 . S
N494 C495 1.351 . S
C495 C489 1.428 . S
C495 N494 1.351 . S
C495 C496 1.434 . S
C496 C487 1.429 . S
C496 N493 1.350 . S
C496 C495 1.434 . S
C497 C498 1.369 . S
C497 C499 1.419 . S
C497 H501 0.930 . S
C498 C497 1.369 . S
C498 C507 1.429 . S
C499 C497 1.419 . S
C499 C500 1.363 . S
C499 H502 0.929 . S
C500 C499 1.363 . S
C500 C506 1.428 . S
H501 C497 0.930 . S
H502 C499 0.929 . S
S503 N504 1.613 . S
S503 N505 1.610 . S
N504 S503 1.613 . S
N504 C507 1.350 . S
N505 S503 1.610 . S
N505 C506 1.351 . S
C506 C500 1.428 . S
C506 N505 1.351 . S
C506 C507 1.434 . S
C507 C498 1.429 . S
C507 N504 1.350 . S
C507 C506 1.434 . S
C508 C509 1.369 . S
C508 C510 1.419 . S
C508 H512 0.930 . S
C509 C508 1.369 . S
C509 C518 1.429 . S
C510 C508 1.419 . S
C510 C511 1.363 . S
C510 H513 0.929 . S
C511 C510 1.363 . S
C511 C517 1.428 . S
H512 C508 0.930 . S
H513 C510 0.929 . S
S514 N515 1.613 . S
S514 N516 1.610 . S
N515 S514 1.613 . S
N515 C518 1.350 . S
N516 S514 1.610 . S
N516 C517 1.351 . S
C517 C511 1.428 . S
C517 N516 1.351 . S
C517 C518 1.434 . S
C518 C509 1.429 . S
C518 N515 1.350 . S
C518 C517 1.434 . S
C519 C520 1.369 . S
C519 C521 1.419 . S
C519 H523 0.930 . S
C520 C519 1.369 . S
C520 C529 1.429 . S
C521 C519 1.419 . S
C521 C522 1.363 . S
C521 H524 0.929 . S
C522 C521 1.363 . S
C522 C528 1.428 . S
H523 C519 0.930 . S
H524 C521 0.929 . S
S525 N526 1.613 . S
S525 N527 1.610 . S
N526 S525 1.613 . S
N526 C529 1.350 . S
N527 S525 1.610 . S
N527 C528 1.351 . S
C528 C522 1.428 . S
C528 N527 1.351 . S
C528 C529 1.434 . S
C529 C520 1.429 . S
C529 N526 1.350 . S
C529 C528 1.434 . S
C530 C531 1.369 . S
C530 C532 1.419 . S
C530 H534 0.930 . S
C531 C530 1.369 . S
C531 C540 1.429 . S
C532 C530 1.419 . S
C532 C533 1.363 . S
C532 H535 0.929 . S
C533 C532 1.363 . S
C533 C539 1.428 . S
H534 C530 0.930 . S
H535 C532 0.929 . S
S536 N537 1.613 . S
S536 N538 1.610 . S
N537 S536 1.613 . S
N537 C540 1.350 . S
N538 S536 1.610 . S
N538 C539 1.351 . S
C539 C533 1.428 . S
C539 N538 1.351 . S
C539 C540 1.434 . S
C540 C531 1.429 . S
C540 N537 1.350 . S
C540 C539 1.434 . S
C541 C542 1.369 . S
C541 C543 1.419 . S
C541 H545 0.930 . S
C542 C541 1.369 . S
C542 C551 1.429 . S
C543 C541 1.419 . S
C543 C544 1.363 . S
C543 H546 0.929 . S
C544 C543 1.363 . S
C544 C550 1.428 . S
H545 C541 0.930 . S
H546 C543 0.929 . S
S547 N548 1.613 . S
S547 N549 1.610 . S
N548 S547 1.613 . S
N548 C551 1.350 . S
N549 S547 1.610 . S
N549 C550 1.351 . S
C550 C544 1.428 . S
C550 N549 1.351 . S
C550 C551 1.434 . S
C551 C542 1.429 . S
C551 N548 1.350 . S
C551 C550 1.434 . S
C552 C553 1.361 1_556 S
C552 C554 1.419 . S
C552 H556 0.930 . S
C553 C552 1.361 1_554 S
C553 C562 1.438 . S
C554 C552 1.419 . S
C554 C555 1.360 1_556 S
C554 H557 0.929 . S
C555 C554 1.360 1_554 S
C555 C561 1.431 . S
H556 C552 0.930 . S
H557 C554 0.929 . S
S558 N559 1.613 . S
S558 N560 1.610 . S
N559 S558 1.613 . S
N559 C562 1.350 . S
N560 S558 1.610 . S
N560 C561 1.351 . S
C561 C555 1.431 . S
C561 N560 1.351 . S
C561 C562 1.434 . S
C562 C553 1.438 . S
C562 N559 1.350 . S
C562 C561 1.434 . S
C563 C564 1.369 . S
C563 C565 1.419 . S
C563 H567 0.930 . S
C564 C563 1.369 . S
C564 C573 1.429 . S
C565 C563 1.419 . S
C565 C566 1.363 . S
C565 H568 0.929 . S
C566 C565 1.363 . S
C566 C572 1.428 . S
H567 C563 0.930 . S
H568 C565 0.929 . S
S569 N570 1.613 . S
S569 N571 1.610 . S
N570 S569 1.613 . S
N570 C573 1.350 . S
N571 S569 1.610 . S
N571 C572 1.351 . S
C572 C566 1.428 . S
C572 N571 1.351 . S
C572 C573 1.434 . S
C573 C564 1.429 . S
C573 N570 1.350 . S
C573 C572 1.434 . S
C574 C575 1.370 . S
C574 C576 1.419 . S
C574 H578 0.930 . S
C575 C574 1.370 . S
C575 C584 1.428 1_554 S
C576 C574 1.419 . S
C576 C577 1.368 . S
C576 H579 0.929 . S
C577 C576 1.368 . S
C577 C583 1.423 1_554 S
H578 C574 0.930 . S
H579 C576 0.929 . S
S580 N581 1.613 . S
S580 N582 1.610 . S
N581 S580 1.613 . S
N581 C584 1.350 . S
N582 S580 1.610 . S
N582 C583 1.351 . S
C583 C577 1.423 1_556 S
C583 N582 1.351 . S
C583 C584 1.434 . S
C584 C575 1.428 1_556 S
C584 N581 1.350 . S
C584 C583 1.434 . S
C585 C586 1.369 . S
C585 C587 1.419 . S
C585 H589 0.930 . S
C586 C585 1.369 . S
C586 C595 1.429 . S
C587 C585 1.419 . S
C587 C588 1.363 . S
C587 H590 0.929 . S
C588 C587 1.363 . S
C588 C594 1.428 . S
H589 C585 0.930 . S
H590 C587 0.929 . S
S591 N592 1.613 . S
S591 N593 1.610 . S
N592 S591 1.613 . S
N592 C595 1.350 . S
N593 S591 1.610 . S
N593 C594 1.351 . S
C594 C588 1.428 . S
C594 N593 1.351 . S
C594 C595 1.434 . S
C595 C586 1.429 . S
C595 N592 1.350 . S
C595 C594 1.434 . S
C596 C597 1.369 . S
C596 C598 1.419 . S
C596 H600 0.930 . S
C597 C596 1.369 . S
C597 C606 1.429 . S
C598 C596 1.419 . S
C598 C599 1.363 . S
C598 H601 0.929 . S
C599 C598 1.363 . S
C599 C605 1.428 . S
H600 C596 0.930 . S
H601 C598 0.929 . S
S602 N603 1.613 . S
S602 N604 1.610 . S
N603 S602 1.613 . S
N603 C606 1.350 . S
N604 S602 1.610 . S
N604 C605 1.351 . S
C605 C599 1.428 . S
C605 N604 1.351 . S
C605 C606 1.434 . S
C606 C597 1.429 . S
C606 N603 1.350 . S
C606 C605 1.434 . S
C607 C608 1.369 1_556 S
C607 C609 1.419 . S
C607 H611 0.930 . S
C608 C607 1.369 1_554 S
C608 C617 1.429 . S
C609 C607 1.419 . S
C609 C610 1.363 1_556 S
C609 H612 0.929 . S
C610 C609 1.363 1_554 S
C610 C616 1.428 . S
H611 C607 0.930 . S
H612 C609 0.929 . S
S613 N614 1.613 . S
S613 N615 1.610 . S
N614 S613 1.613 . S
N614 C617 1.350 . S
N615 S613 1.610 . S
N615 C616 1.351 . S
C616 C610 1.428 . S
C616 N615 1.351 . S
C616 C617 1.434 . S
C617 C608 1.429 . S
C617 N614 1.350 . S
C617 C616 1.434 . S
C618 C619 1.369 . S
C618 C620 1.419 . S
C618 H622 0.930 . S
C619 C618 1.369 . S
C619 C628 1.429 . S
C620 C618 1.419 . S
C620 C621 1.363 . S
C620 H623 0.929 . S
C621 C620 1.363 . S
C621 C627 1.428 . S
H622 C618 0.930 . S
H623 C620 0.929 . S
S624 N625 1.613 . S
S624 N626 1.610 . S
N625 S624 1.613 . S
N625 C628 1.350 . S
N626 S624 1.610 . S
N626 C627 1.351 . S
C627 C621 1.428 . S
C627 N626 1.351 . S
C627 C628 1.434 . S
C628 C619 1.429 . S
C628 N625 1.350 . S
C628 C627 1.434 . S
C629 C630 1.357 1_556 S
C629 C631 1.419 . S
C629 H633 0.930 . S
C630 C629 1.357 1_554 S
C630 C639 1.441 . S
C631 C629 1.419 . S
C631 C632 1.359 1_556 S
C631 H634 0.929 . S
C632 C631 1.359 1_554 S
C632 C638 1.433 . S
H633 C629 0.930 . S
H634 C631 0.929 . S
S635 N636 1.613 . S
S635 N637 1.610 . S
N636 S635 1.613 . S
N636 C639 1.350 . S
N637 S635 1.610 . S
N637 C638 1.351 . S
C638 C632 1.433 . S
C638 N637 1.351 . S
C638 C639 1.434 . S
C639 C630 1.441 . S
C639 N636 1.350 . S
C639 C638 1.434 . S
C377 C5 1.547 . S
C379 C197 1.535 . S
C388 C31 1.549 . S
C390 C119 1.492 . S
C401 C155 1.492 . S
C399 C53 1.548 . S
C410 C71 1.544 . S
C412 C161 1.532 . S
C423 C299 1.489 . S
C421 C75 1.549 . S
C434 C305 1.534 . S
C432 C9 1.546 . S
C445 C341 1.534 . S
C443 C27 1.545 . S
C456 C263 1.494 . S
C454 C49 1.550 . S
C465 C51 1.547 . S
C467 C125 1.507 . S
C476 C72 1.552 . S
C478 C191 1.527 . S
C487 C6 1.550 . S
C489 C227 1.526 . S
C500 C89 1.508 . S
C498 C29 1.543 . S
C509 C28 1.552 . S
C511 C371 1.527 . S
C522 C233 1.505 . S
C520 C50 1.545 . S
C533 C269 1.510 . S
C531 C73 1.546 . S
C542 C7 1.550 . S
C544 C335 1.526 . S
C555 C113 1.495 1_554 S
C553 C4 1.533 . S
C566 C149 1.495 . S
C564 C30 1.533 . S
C575 C52 1.534 . S
C577 C185 1.531 . S
C586 C70 1.533 . S
C588 C221 1.528 . S
C599 C257 1.497 . S
C597 C74 1.534 . S
C608 C8 1.534 . S
C610 C293 1.497 . S
C619 C26 1.532 . S
C621 C329 1.528 . S
C630 C48 1.533 . S
C632 C365 1.529 1_554 S
