# Generated by pormake.
# Topology anh, (6,3)-cn, num edge types: 1
# Building blocks:
#     Node 0, Type 0, BuildingBlock: CUWYAW_clean_sbu_0, # of connection points: 6
#     Node 1, Type 0, BuildingBlock: CUWYAW_clean_sbu_0, # of connection points: 6
#     Node 2, Type 0, BuildingBlock: CUWYAW_clean_sbu_0, # of connection points: 6
#     Node 3, Type 1, BuildingBlock: KAKCAD_clean_linker_0, # of connection points: 3
#     Node 4, Type 1, BuildingBlock: KAKCAD_clean_linker_0, # of connection points: 3
#     Node 5, Type 1, BuildingBlock: KAKCAD_clean_linker_0, # of connection points: 3
#     Node 6, Type 1, BuildingBlock: KAKCAD_clean_linker_0, # of connection points: 3
#     Node 7, Type 1, BuildingBlock: KAKCAD_clean_linker_0, # of connection points: 3
#     Node 8, Type 1, BuildingBlock: KAKCAD_clean_linker_0, # of connection points: 3
#     Edge 9, Type (0, 1), BuildingBlock: XUDNAN_clean_linker_2, # of connection points: 2
#     Edge 10, Type (0, 1), BuildingBlock: XUDNAN_clean_linker_2, # of connection points: 2
#     Edge 11, Type (0, 1), BuildingBlock: XUDNAN_clean_linker_2, # of connection points: 2
#     Edge 12, Type (0, 1), BuildingBlock: XUDNAN_clean_linker_2, # of connection points: 2
#     Edge 13, Type (0, 1), BuildingBlock: XUDNAN_clean_linker_2, # of connection points: 2
#     Edge 14, Type (0, 1), BuildingBlock: XUDNAN_clean_linker_2, # of connection points: 2
#     Edge 15, Type (0, 1), BuildingBlock: XUDNAN_clean_linker_2, # of connection points: 2
#     Edge 16, Type (0, 1), BuildingBlock: XUDNAN_clean_linker_2, # of connection points: 2
#     Edge 17, Type (0, 1), BuildingBlock: XUDNAN_clean_linker_2, # of connection points: 2
#     Edge 18, Type (0, 1), BuildingBlock: XUDNAN_clean_linker_2, # of connection points: 2
#     Edge 19, Type (0, 1), BuildingBlock: XUDNAN_clean_linker_2, # of connection points: 2
#     Edge 20, Type (0, 1), BuildingBlock: XUDNAN_clean_linker_2, # of connection points: 2
#     Edge 21, Type (0, 1), BuildingBlock: XUDNAN_clean_linker_2, # of connection points: 2
#     Edge 22, Type (0, 1), BuildingBlock: XUDNAN_clean_linker_2, # of connection points: 2
#     Edge 23, Type (0, 1), BuildingBlock: XUDNAN_clean_linker_2, # of connection points: 2
#     Edge 24, Type (0, 1), BuildingBlock: XUDNAN_clean_linker_2, # of connection points: 2
#     Edge 25, Type (0, 1), BuildingBlock: XUDNAN_clean_linker_2, # of connection points: 2
#     Edge 26, Type (0, 1), BuildingBlock: XUDNAN_clean_linker_2, # of connection points: 2
# Relax obj value: 0.242
# Max RMSD: 0.185
# Mean RMSD: 0.155
data_MOF--net-anh--node1-CUWYAW_clean_sbu_0--node2-KAKCAD_clean_linker_0--edge1-XUDNAN_clean_linker_2
_symmetry_space_group_name_H-M    P1
_symmetry_Int_Tables_number       1
_symmetry_cell_setting            triclinic
loop_
_symmetry_equiv_pos_as_xyz
'x, y, z'
_cell_length_a     36.37512
_cell_length_b     36.558362
_cell_length_c     67.19743
_cell_angle_alpha  90.38895
_cell_angle_beta   89.703639
_cell_angle_gamma 119.76445
loop_
_atom_site_label
_atom_site_type_symbol
_atom_site_fract_x
_atom_site_fract_y
_atom_site_fract_z
_atom_type_partial_charge
C0 C 1.03852 0.41158 0.1698 0.0
Eu1 Eu 1.09273 0.49185 0.16865 0.0
C2 C 0.99581 0.38624 0.16148 0.0
C3 C 0.96336 0.35668 0.17355 0.0
C4 C 0.9214 0.33745 0.16718 0.0
C5 C 0.91113 0.34722 0.1485 0.0
C6 C 0.94415 0.37486 0.13589 0.0
C7 C 0.9861 0.39448 0.14238 0.0
C8 C 0.12441 0.5431 0.20107 0.0
C9 C 1.04156 0.54357 0.15968 0.0
C10 C 0.19137 0.66168 0.15551 0.0
Eu11 Eu 0.14144 0.58086 0.15768 0.0
C12 C 0.23385 0.69618 0.15048 0.0
C13 C 0.23717 0.72626 0.13668 0.0
C14 C 0.27352 0.76578 0.13605 0.0
C15 C 0.30684 0.77579 0.14938 0.0
C16 C 0.30583 0.74367 0.16118 0.0
C17 C 0.26941 0.70406 0.16181 0.0
C18 C 0.10911 0.527 0.12639 0.0
C19 C 0.19418 0.5291 0.16213 0.0
O20 O 1.06954 0.42853 0.15696 0.0
O21 O 1.04211 0.43773 0.18402 0.0
O22 O 0.12348 0.50735 0.19893 0.0
O23 O 0.10817 0.55026 0.18597 0.0
O24 O 1.04003 0.50649 0.15832 0.0
O25 O 1.07844 0.57763 0.1631 0.0
O26 O 0.18692 0.63978 0.17161 0.0
O27 O 0.16665 0.63927 0.14092 0.0
O28 O 0.11005 0.5629 0.127 0.0
O29 O 0.12656 0.52277 0.14151 0.0
O30 O 0.19651 0.56633 0.15991 0.0
O31 O 0.15681 0.49486 0.1651 0.0
H32 H 0.97022 0.35017 0.18837 0.0
H33 H 0.89693 0.31705 0.17751 0.0
H34 H 0.93748 0.38274 0.12135 0.0
H35 H 1.01064 0.4174 0.13279 0.0
H36 H 0.21016 0.72074 0.12774 0.0
H37 H 0.27324 0.78983 0.12682 0.0
H38 H 0.33143 0.7505 0.1714 0.0
H39 H 0.26787 0.68111 0.17238 0.0
C40 C 0.55604 0.18424 0.4873 0.0
Eu41 Eu 0.60049 0.14816 0.4951 0.0
C42 C 0.56652 0.22541 0.47913 0.0
C43 C 0.60853 0.2541 0.474 0.0
C44 C 0.62074 0.29582 0.46981 0.0
C45 C 0.59141 0.31001 0.47142 0.0
C46 C 0.54881 0.28089 0.47566 0.0
C47 C 0.53635 0.23864 0.47933 0.0
C48 C 0.61195 0.12162 0.53148 0.0
C49 C 0.70465 0.21403 0.49147 0.0
C50 C 0.71995 0.09162 0.49437 0.0
Eu51 Eu 0.65976 0.10942 0.48954 0.0
C52 C 0.73561 0.06675 0.50449 0.0
C53 C 0.77066 0.06604 0.49629 0.0
C54 C 0.79042 1.04772 0.50663 0.0
C55 C 0.77528 1.02945 0.52539 0.0
C56 C 0.73935 1.02933 0.5334 0.0
C57 C 0.71969 1.04802 0.52303 0.0
C58 C 0.63351 0.12917 0.45578 0.0
C59 C 0.55742 1.04484 0.48962 0.0
O60 O 0.55874 0.15751 0.47507 0.0
O61 O 0.57315 0.18625 0.50465 0.0
O62 O 0.5884 0.13839 0.52846 0.0
O63 O 0.62719 0.1189 0.51496 0.0
O64 O 0.6661 0.20918 0.49437 0.0
O65 O 0.70948 0.18051 0.48902 0.0
O66 O 0.7156 0.11902 0.50527 0.0
O67 O 0.69054 0.07329 0.48079 0.0
O68 O 0.64078 0.0978 0.45666 0.0
O69 O 0.64355 0.14913 0.47193 0.0
O70 O 0.59531 1.04937 0.49392 0.0
O71 O 0.55288 0.07857 0.48711 0.0
H72 H 0.63269 0.24527 0.47472 0.0
H73 H 0.65401 0.31781 0.46722 0.0
H74 H 0.52584 0.29137 0.4773 0.0
H75 H 0.50389 0.21705 0.4836 0.0
H76 H 0.78371 0.081 0.48212 0.0
H77 H 0.81838 1.04904 0.50016 0.0
H78 H 0.72656 1.01501 0.54769 0.0
H79 H 0.69279 1.04867 0.52963 0.0
C80 C 0.76689 0.66935 0.82249 0.0
Eu81 Eu 0.68546 0.62839 0.82794 0.0
C82 C 0.79903 0.65751 0.82685 0.0
C83 C 0.79023 0.62607 0.84093 0.0
C84 C 0.81778 0.61034 0.84335 0.0
C85 C 0.8545 0.62544 0.8316 0.0
C86 C 0.86393 0.65783 0.81788 0.0
C87 C 0.83617 0.67362 0.81545 0.0
C88 C 0.64898 0.59982 0.86445 0.0
C89 C 0.63786 0.5262 0.82484 0.0
C90 C 0.51129 0.55154 0.83561 0.0
Eu91 Eu 0.59134 0.5837 0.82752 0.0
C92 C 0.47143 0.51154 0.8339 0.0
C93 C 0.47078 0.47298 0.83181 0.0
C94 C 0.43213 0.43509 0.83172 0.0
C95 C 0.39371 0.43536 0.83363 0.0
C96 C 0.3948 0.47431 0.83514 0.0
C97 C 0.43329 0.51198 0.83525 0.0
C98 C 0.62655 0.58544 0.79193 0.0
C99 C 0.64088 0.68745 0.82341 0.0
O100 O 0.73994 0.64625 0.80869 0.0
O101 O 0.74844 0.67557 0.83793 0.0
O102 O 0.68074 0.59681 0.85765 0.0
O103 O 0.63786 0.61752 0.85163 0.0
O104 O 0.6725 0.56214 0.82057 0.0
O105 O 0.60284 0.52657 0.83064 0.0
O106 O 0.52843 0.57122 0.81898 0.0
O107 O 0.53903 0.55255 0.84832 0.0
O108 O 0.59178 0.55315 0.79812 0.0
O109 O 0.63935 0.61539 0.80422 0.0
O110 O 0.6036 0.65203 0.82388 0.0
O111 O 0.67643 0.68584 0.82502 0.0
H112 H 0.76142 0.61279 0.84969 0.0
H113 H 0.81002 0.5859 0.85428 0.0
H114 H 0.89188 0.66985 0.80856 0.0
H115 H 0.84299 0.69739 0.80427 0.0
H116 H 0.50009 0.47218 0.83065 0.0
H117 H 0.4323 0.40563 0.83045 0.0
H118 H 0.36596 0.47575 0.83707 0.0
H119 H 0.43331 0.5415 0.83694 0.0
C120 C 0.57344 0.23458 0.31595 0.0
C121 C 0.55781 0.19588 0.32593 0.0
C122 C 0.55909 0.23619 0.29686 0.0
C123 C 0.52907 0.19911 0.28723 0.0
C124 C 0.51393 0.16044 0.29716 0.0
C125 C 0.52774 0.15891 0.31628 0.0
C126 C 0.51489 0.19995 0.26656 0.0
C127 C 0.54431 0.22534 0.25194 0.0
C128 C 0.53276 0.22028 0.23175 0.0
C129 C 0.4912 0.19075 0.22636 0.0
C130 C 0.46236 0.1636 0.24051 0.0
C131 C 0.47344 0.17033 0.26068 0.0
C132 C 0.42864 0.12171 0.23358 0.0
C133 C 0.40586 0.11773 0.21609 0.0
C134 C 0.42778 0.08571 0.24136 0.0
C135 C 0.40948 1.04817 0.23061 0.0
C136 C 0.39112 1.04553 0.21193 0.0
C137 C 0.56562 0.23815 0.21599 0.0
C138 C 0.59788 0.28054 0.21632 0.0
C139 C 0.56602 0.21132 0.20097 0.0
C140 C 0.59831 0.22615 0.1869 0.0
C141 C 0.63115 0.26809 0.18751 0.0
C142 C 0.63033 0.2955 0.20207 0.0
C143 C 0.38723 0.07989 0.20534 0.0
H144 H 0.59713 0.2637 0.32276 0.0
H145 H 0.57151 0.26648 0.28966 0.0
H146 H 0.49178 0.13096 0.29008 0.0
H147 H 0.51444 0.12858 0.32352 0.0
H148 H 0.57711 0.24604 0.25598 0.0
H149 H 0.45078 0.14954 0.27159 0.0
H150 H 0.48319 0.18529 0.21069 0.0
H151 H 0.40557 0.14484 0.20987 0.0
H152 H 0.44536 0.0876 0.25466 0.0
H153 H 0.41338 1.0226 0.2362 0.0
H154 H 0.59834 0.30177 0.22776 0.0
H155 H 0.54219 0.17825 0.20053 0.0
H156 H 0.37211 0.07843 0.19128 0.0
H157 H 0.65571 0.32792 0.20295 0.0
H158 H 0.59828 0.20441 0.17584 0.0
C159 C 0.80697 0.68144 0.66635 0.0
C160 C 0.80599 0.64576 0.67461 0.0
C161 C 0.8244 0.69569 0.64754 0.0
C162 C 0.84142 0.67469 0.63656 0.0
C163 C 0.8425 0.64037 0.64527 0.0
C164 C 0.82489 0.62599 0.6641 0.0
C165 C 0.8532 0.68549 0.61534 0.0
C166 C 0.87294 0.72763 0.60896 0.0
C167 C 0.87703 0.73734 0.58856 0.0
C168 C 0.86413 0.70448 0.57457 0.0
C169 C 0.84282 0.66246 0.5807 0.0
C170 C 0.83811 0.6531 0.60104 0.0
C171 C 0.81688 0.6295 0.56609 0.0
C172 C 0.77267 0.60944 0.5677 0.0
C173 C 0.83525 0.62101 0.5496 0.0
C174 C 0.80954 0.5921 0.53506 0.0
C175 C 0.76505 0.57206 0.53656 0.0
C176 C 0.88551 0.77962 0.58197 0.0
C177 C 0.86069 0.78228 0.56668 0.0
C178 C 0.91387 0.81668 0.59224 0.0
C179 C 0.91584 0.85506 0.58785 0.0
C180 C 0.88982 0.85701 0.573 0.0
C181 C 0.86296 0.82037 0.56222 0.0
C182 C 0.74706 0.58141 0.55303 0.0
H183 H 0.79206 0.69697 0.6739 0.0
H184 H 0.82219 0.72165 0.64115 0.0
H185 H 0.85577 0.62381 0.63724 0.0
H186 H 0.82504 0.59873 0.67021 0.0
H187 H 0.88205 0.75255 0.61989 0.0
H188 H 0.81969 0.62047 0.60563 0.0
H189 H 0.86647 0.71128 0.55879 0.0
H190 H 0.75789 0.61651 0.58005 0.0
H191 H 0.86937 0.63668 0.54801 0.0
H192 H 0.8246 0.58526 0.52279 0.0
H193 H 0.83736 0.75445 0.55885 0.0
H194 H 0.93358 0.8158 0.60403 0.0
H195 H 0.71308 0.56762 0.5545 0.0
H196 H 0.84163 0.82045 0.55104 0.0
H197 H 0.93693 0.88292 0.59635 0.0
C198 C 1.04953 0.36281 0.99157 0.0
C199 C 1.01923 0.36934 0.00153 0.0
C200 C 1.04579 0.35378 0.97125 0.0
C201 C 1.01135 0.35054 0.96037 0.0
C202 C 0.98031 0.35588 0.9705 0.0
C203 C 0.98439 0.3655 0.99086 0.0
C204 C 1.01013 0.34524 0.93834 0.0
C205 C 1.026 0.32107 0.9293 0.0
C206 C 1.03242 0.3222 0.9086 0.0
C207 C 1.01973 0.34557 0.89678 0.0
C208 C 1.00214 0.36846 0.90545 0.0
C209 C 0.99767 0.36828 0.92621 0.0
C210 C 0.99159 0.39547 0.89311 0.0
C211 C 1.0196 0.42142 0.87824 0.0
C212 C 0.95439 0.39707 0.89682 0.0
C213 C 0.94582 0.42469 0.88625 0.0
C214 C 0.97425 0.45136 0.8717 0.0
C215 C 1.05752 0.30406 0.89965 0.0
C216 C 1.09254 0.3071 0.90995 0.0
C217 C 1.05012 0.28832 0.88001 0.0
C218 C 1.07899 0.27934 0.87042 0.0
C219 C 0.11536 0.28515 0.88039 0.0
C220 C 0.12091 0.2975 0.90048 0.0
C221 C 1.01102 0.44912 0.86766 0.0
H222 H 1.07712 0.3663 -0.00065 0.0
H223 H 1.07093 0.35103 0.96397 0.0
H224 H 0.95311 0.35314 0.96267 0.0
H225 H 0.96044 0.37011 -0.00176 0.0
H226 H 1.03482 0.30248 0.93851 0.0
H227 H 0.98691 0.38831 0.93298 0.0
H228 H 1.02502 0.34743 0.88085 0.0
H229 H 1.04879 0.42127 0.8752 0.0
H230 H 0.93211 0.37727 0.9081 0.0
H231 H 0.91748 0.42602 0.88993 0.0
H232 H 0.09993 0.31974 0.92493 0.0
H233 H 1.02301 0.28465 0.87175 0.0
H234 H 1.03337 0.46903 0.85644 0.0
H235 H 0.14901 0.30299 0.90846 0.0
H236 H 1.07388 0.26964 0.85494 0.0
C237 C 0.15106 0.65179 0.35454 0.0
C238 C 0.13637 0.61283 0.34467 0.0
C239 C 0.15115 0.65433 0.37541 0.0
C240 C 0.13675 0.61802 0.38722 0.0
C241 C 0.12265 0.57912 0.37737 0.0
C242 C 0.12242 0.57656 0.35647 0.0
C243 C 0.13588 0.62065 0.40962 0.0
C244 C 0.10232 0.58874 0.42057 0.0
C245 C 0.10018 0.58978 0.44155 0.0
C246 C 0.13354 0.6257 0.45169 0.0
C247 C 0.1681 0.65914 0.44091 0.0
C248 C 0.16829 0.65516 0.41996 0.0
C249 C 0.20524 0.6985 0.45041 0.0
C250 C 0.2223 0.73842 0.4411 0.0
C251 C 0.22734 0.69655 0.4672 0.0
C252 C 0.2657 0.7322 0.47368 0.0
C253 C 0.28383 0.77166 0.46375 0.0
C254 C 1.06189 0.55273 0.45166 0.0
C255 C 1.03737 0.55835 0.46641 0.0
C256 C 1.04615 0.51094 0.44458 0.0
C257 C 1.00702 0.47693 0.4511 0.0
C258 C 0.98127 0.4827 0.46513 0.0
C259 C 0.99802 0.5242 0.47297 0.0
C260 C 0.26043 0.77396 0.44758 0.0
H261 H 0.16273 0.68064 0.34614 0.0
H262 H 0.1619 0.68485 0.38227 0.0
H263 H 0.11184 0.55044 0.38581 0.0
H264 H 0.11047 0.54588 0.3496 0.0
H265 H 1.07667 0.56307 0.41252 0.0
H266 H 0.19476 0.67892 0.41154 0.0
H267 H 0.13261 0.6276 0.46775 0.0
H268 H 0.20653 0.7421 0.42829 0.0
H269 H 0.21596 0.66693 0.4749 0.0
H270 H 0.28141 0.72844 0.48648 0.0
H271 H 1.04767 0.58957 0.47233 0.0
H272 H 1.06376 0.5045 0.4334 0.0
H273 H 0.27234 0.80295 0.43929 0.0
H274 H 0.98049 0.53072 0.48413 0.0
H275 H 0.9963 0.44627 0.44443 0.0
C276 C 0.59927 0.0682 0.68668 0.0
C277 C 0.63402 0.10113 0.67678 0.0
C278 C 0.59671 0.06751 0.70758 0.0
C279 C 0.62824 0.10032 0.71907 0.0
C280 C 0.66258 0.13364 0.70916 0.0
C281 C 0.6657 0.13377 0.68829 0.0
C282 C 0.62571 0.09949 0.74133 0.0
C283 C 0.62344 0.06537 0.75185 0.0
C284 C 0.62263 0.06397 0.77287 0.0
C285 C 0.62365 0.09895 0.78339 0.0
C286 C 0.62419 0.13349 0.77292 0.0
C287 C 0.62615 0.133 0.75191 0.0
C288 C 0.623 0.17089 0.78287 0.0
C289 C 0.59925 0.18806 0.77437 0.0
C290 C 0.64835 0.19272 0.7994 0.0
C291 C 0.65144 0.23099 0.80638 0.0
C292 C 0.62913 0.24918 0.79726 0.0
C293 C 0.62159 1.02567 0.78275 0.0
C294 C 0.59735 0.98473 0.77443 0.0
C295 C 0.64805 1.02955 0.79884 0.0
C296 C 0.65178 0.99468 0.80551 0.0
C297 C 0.62913 0.95417 0.79647 0.0
C298 C 0.60097 0.94995 0.78109 0.0
C299 C 0.60216 0.22607 0.78138 0.0
H300 H 0.57445 1.04254 0.67825 0.0
H301 H 0.56986 1.04146 0.71479 0.0
H302 H 0.68743 0.15927 0.71759 0.0
H303 H 0.69276 0.15966 0.68112 0.0
H304 H 0.62391 1.04023 0.74342 0.0
H305 H 0.62811 0.15914 0.74352 0.0
H306 H 0.62277 0.09869 0.79949 0.0
H307 H 0.57875 0.17242 0.7618 0.0
H308 H 0.66725 0.18119 0.8065 0.0
H309 H 0.67197 0.2466 0.81893 0.0
H310 H 0.57599 0.9796 0.76221 0.0
H311 H 0.6674 1.06003 0.80578 0.0
H312 H 0.5843 0.23813 0.77372 0.0
H313 H 0.58276 0.92001 0.77353 0.0
H314 H 0.67314 0.9999 0.81772 0.0
C315 C 0.65013 0.55711 0.02024 0.0
C316 C 0.62869 0.57671 0.01195 0.0
C317 C 0.64859 0.5493 0.04084 0.0
C318 C 0.62636 0.56166 0.05406 0.0
C319 C 0.60551 0.58172 0.04572 0.0
C320 C 0.60582 0.58815 0.0252 0.0
C321 C 0.62455 0.55401 0.0763 0.0
C322 C 0.65737 0.55181 0.08637 0.0
C323 C 0.65656 0.5459 0.10722 0.0
C324 C 0.62185 0.54413 0.11829 0.0
C325 C 0.58825 0.54668 0.10853 0.0
C326 C 0.58992 0.54986 0.08761 0.0
C327 C 0.55053 0.54613 0.11908 0.0
C328 C 0.52771 0.51775 0.13447 0.0
C329 C 0.5341 0.57165 0.1121 0.0
C330 C 0.49553 0.56734 0.11924 0.0
C331 C 0.47136 0.53747 0.1339 0.0
C332 C 0.69329 0.54299 0.11663 0.0
C333 C 0.71077 0.5204 0.10705 0.0
C334 C 0.71397 0.56551 0.13401 0.0
C335 C 0.75157 0.56707 0.14088 0.0
C336 C 0.77 0.54581 0.13081 0.0
C337 C 0.74804 0.52161 0.11401 0.0
C338 C 0.48903 0.51353 0.14173 0.0
H339 H 0.6686 0.54799 0.01093 0.0
H340 H 0.66474 0.53326 0.04628 0.0
H341 H 0.5889 0.59311 0.055 0.0
H342 H 0.58754 0.60204 0.01989 0.0
H343 H 0.68469 0.55597 0.07802 0.0
H344 H 0.56316 0.54854 0.07999 0.0
H345 H 0.62101 0.54083 0.13431 0.0
H346 H 0.5388 0.49749 0.1404 0.0
H347 H 0.55066 0.5946 0.10054 0.0
H348 H 0.48402 0.58659 0.11257 0.0
H349 H 0.69595 0.50219 0.09376 0.0
H350 H 0.70209 0.58345 0.1419 0.0
H351 H 0.47275 0.49088 0.15341 0.0
H352 H 0.76057 0.50478 0.10566 0.0
H353 H 0.76657 0.58559 0.15406 0.0
H354 H 0.2779 0.58892 0.15076 0.0
H355 H 0.20031 0.45823 0.16831 0.0
H356 H 0.2614 0.44734 0.16375 0.0
H357 H 0.33772 0.57037 0.11271 0.0
H358 H 0.38724 0.6174 0.11796 0.0
H359 H 0.33792 0.61604 0.12313 0.0
H360 H 0.3606 0.63697 0.15972 0.0
H361 H 0.41006 0.6385 0.15465 0.0
H362 H 0.37614 0.60578 0.17437 0.0
H363 H 0.33093 0.44912 0.15637 0.0
H364 H 0.40218 0.46338 0.14702 0.0
H365 H 0.43831 0.59352 0.13463 0.0
C366 C 0.27377 0.55807 0.15381 0.0
C367 C 0.23346 0.52449 0.16004 0.0
C368 C 0.23017 0.48469 0.16361 0.0
C369 C 0.26499 0.47809 0.16103 0.0
C370 C 0.30385 0.51147 0.15479 0.0
C371 C 0.30859 0.55079 0.15125 0.0
C372 C 0.35402 0.58099 0.14437 0.0
C373 C 0.35423 0.59716 0.12329 0.0
C374 C 0.37654 0.61775 0.15916 0.0
C375 C 0.37384 0.55248 0.14451 0.0
C376 C 0.34417 0.51254 0.15063 0.0
C377 C 0.35443 0.4805 0.15175 0.0
C378 C 0.39565 0.48918 0.14652 0.0
C379 C 0.4274 0.52985 0.14017 0.0
C380 C 0.41562 0.56187 0.13924 0.0
H381 H 0.78953 0.23928 0.48159 0.0
H382 H 0.70755 0.29064 0.49571 0.0
H383 H 0.7678 0.36259 0.49114 0.0
H384 H 0.88469 0.32214 0.50589 0.0
H385 H 0.92045 0.32265 0.48708 0.0
H386 H 0.8712 0.27499 0.49181 0.0
H387 H 0.85105 0.27091 0.45471 0.0
H388 H 0.9002 0.31859 0.44987 0.0
H389 H 0.8506 0.31523 0.44335 0.0
H390 H 0.8383 0.43092 0.48453 0.0
H391 H 0.91012 0.48751 0.47625 0.0
H392 H 0.94901 0.39407 0.4664 0.0
C393 C 0.78415 0.2656 0.48388 0.0
C394 C 0.74291 0.25833 0.48923 0.0
C395 C 0.73814 0.2944 0.49177 0.0
C396 C 0.77251 0.3358 0.48917 0.0
C397 C 0.8124 0.34173 0.48389 0.0
C398 C 0.8184 0.30753 0.48125 0.0
C399 C 0.86454 0.32282 0.47528 0.0
C400 C 0.88651 0.30987 0.49095 0.0
C401 C 0.86672 0.30587 0.45457 0.0
C402 C 0.88353 0.3708 0.47494 0.0
C403 C 0.85279 0.38093 0.48002 0.0
C404 C 0.86246 0.42303 0.48068 0.0
C405 C 0.90403 0.45539 0.47606 0.0
C406 C 0.93679 0.44656 0.47072 0.0
C407 C 0.9256 0.40299 0.47022 0.0
H408 H 0.57928 0.71009 0.81187 0.0
H409 H 0.71115 0.76467 0.82904 0.0
H410 H 0.72105 0.83565 0.82466 0.0
H411 H 0.59721 0.78797 0.77379 0.0
H412 H 0.54967 0.79007 0.77909 0.0
H413 H 0.55155 0.74264 0.78405 0.0
H414 H 0.53032 0.74448 0.82064 0.0
H415 H 0.52834 0.7919 0.81578 0.0
H416 H 0.56137 0.79109 0.83547 0.0
H417 H 0.71827 0.90246 0.81819 0.0
H418 H 0.70333 0.95894 0.80955 0.0
H419 H 0.57322 0.8652 0.796 0.0
C420 C 0.61019 0.73693 0.81484 0.0
C421 C 0.64439 0.73072 0.82094 0.0
C422 C 0.68421 0.76748 0.82438 0.0
C423 C 0.69026 0.80843 0.82194 0.0
C424 C 0.65637 0.81342 0.81586 0.0
C425 C 0.61703 0.77874 0.81228 0.0
C426 C 0.5864 0.7937 0.80547 0.0
C427 C 0.57024 0.77763 0.78434 0.0
C428 C 0.5494 0.77943 0.82022 0.0
C429 C 0.61468 0.8419 0.80579 0.0
C430 C 0.65487 0.85232 0.81194 0.0
C431 C 0.68674 0.89446 0.81348 0.0
C432 C 0.67768 0.92672 0.80864 0.0
C433 C 0.63683 0.91777 0.80219 0.0
C434 C 0.60496 0.8741 0.80076 0.0
H435 H 0.95722 0.48501 0.14721 0.0
H436 H 1.03689 0.61493 0.16612 0.0
H437 H 0.97766 0.62813 0.16144 0.0
H438 H 0.89797 0.50579 0.10902 0.0
H439 H 0.84897 0.45851 0.11465 0.0
H440 H 0.89897 0.46106 0.11932 0.0
H441 H 0.87361 0.43985 0.15641 0.0
H442 H 0.82517 0.44041 0.15126 0.0
H443 H 0.85974 0.47284 0.17084 0.0
H444 H 0.90979 0.62899 0.15448 0.0
H445 H 0.83941 0.61734 0.14522 0.0
H446 H 0.79999 0.48733 0.13019 0.0
C447 C 0.9622 0.5162 0.15045 0.0
C448 C 1.00271 0.54884 0.15711 0.0
C449 C 1.00699 0.58909 0.16102 0.0
C450 C 0.97319 0.59707 0.1584 0.0
C451 C 0.93419 0.5647 0.15175 0.0
C452 C 0.92833 0.52499 0.14781 0.0
C453 C 0.88268 0.49612 0.14079 0.0
C454 C 0.88207 0.47932 0.11971 0.0
C455 C 0.85888 0.46009 0.15567 0.0
C456 C 0.86442 0.52601 0.14093 0.0
C457 C 0.89478 0.5653 0.14759 0.0
C458 C 0.88582 0.5982 0.14932 0.0
C459 C 0.84522 0.59109 0.14411 0.0
C460 C 0.81299 0.55131 0.137 0.0
C461 C 0.82334 0.51833 0.13542 0.0
H462 H 0.47421 1.01813 0.47577 0.0
H463 H 0.55278 0.96911 0.49822 0.0
H464 H 0.49296 0.89671 0.49458 0.0
H465 H 0.37516 0.93949 0.49909 0.0
H466 H 0.34234 0.93548 0.47824 0.0
H467 H 0.39096 0.98393 0.48285 0.0
H468 H 0.41647 0.9814 0.44717 0.0
H469 H 0.36794 0.93294 0.44246 0.0
H470 H 0.41821 0.93524 0.43893 0.0
H471 H 0.42362 0.82768 0.48835 0.0
H472 H 0.35299 0.76952 0.47956 0.0
H473 H 0.31626 0.86025 0.46075 0.0
C474 C 0.4789 0.99225 0.48003 0.0
C475 C 0.51917 1.00038 0.48743 0.0
C476 C 0.52305 0.96477 0.49256 0.0
C477 C 0.48889 0.92309 0.49054 0.0
C478 C 0.45004 0.91627 0.48321 0.0
C479 C 0.44482 0.9499 0.47796 0.0
C480 C 0.39965 0.9334 0.47014 0.0
C481 C 0.37561 0.94901 0.48337 0.0
C482 C 0.40064 0.94654 0.44838 0.0
C483 C 0.3804 0.88545 0.47181 0.0
C484 C 0.41016 0.87644 0.47948 0.0
C485 C 0.40018 0.83467 0.48244 0.0
C486 C 0.35929 0.80144 0.4775 0.0
C487 C 0.32751 0.80902 0.46951 0.0
C488 C 0.33899 0.8523 0.46667 0.0
H489 H 0.57585 0.4419 0.81411 0.0
H490 H 0.70748 0.51887 0.83137 0.0
H491 H 0.71811 0.45788 0.82712 0.0
H492 H 0.55837 0.34283 0.83718 0.0
H493 H 0.52607 0.30956 0.81714 0.0
H494 H 0.52728 0.35855 0.82247 0.0
H495 H 0.54921 0.38213 0.78611 0.0
H496 H 0.54819 0.33329 0.78068 0.0
H497 H 0.59547 0.38281 0.7759 0.0
H498 H 0.7162 0.3887 0.82048 0.0
H499 H 0.7024 0.31789 0.81117 0.0
H500 H 0.57231 0.28182 0.79704 0.0
C501 C 0.60671 0.44573 0.8173 0.0
C502 C 0.64073 0.48597 0.82335 0.0
C503 C 0.68071 0.48906 0.82682 0.0
C504 C 0.68716 0.45428 0.82444 0.0
C505 C 0.65353 0.41555 0.81829 0.0
C506 C 0.61402 0.4109 0.81468 0.0
C507 C 0.58402 0.36571 0.80742 0.0
C508 C 0.54671 0.3428 0.82191 0.0
C509 C 0.56828 0.36601 0.78627 0.0
C510 C 0.61278 0.34597 0.80757 0.0
C511 C 0.65268 0.37549 0.81405 0.0
C512 C 0.6849 0.36535 0.81551 0.0
C513 C 0.67652 0.32441 0.81028 0.0
C514 C 0.63604 0.29282 0.80344 0.0
C515 C 0.60379 0.30447 0.80208 0.0
H516 H 0.80938 0.98321 0.51021 0.0
H517 H 0.79112 1.03388 0.56563 0.0
H518 H 0.82812 1.00295 0.58373 0.0
H519 H 0.79131 0.88742 0.52866 0.0
H520 H 0.83085 0.88477 0.51341 0.0
H521 H 0.80606 0.91384 0.50497 0.0
H522 H 0.87995 0.98048 0.501 0.0
H523 H 0.90497 0.95159 0.50964 0.0
H524 H 0.91546 0.99977 0.52196 0.0
H525 H 0.86184 0.96122 0.59594 0.0
H526 H 0.88452 0.90852 0.60131 0.0
H527 H 0.885 0.89014 0.53751 0.0
C528 C 0.81393 0.98869 0.52609 0.0
C529 C 0.79747 1.01113 0.53647 0.0
C530 C 0.80305 1.01641 0.55737 0.0
C531 C 0.8245 0.99945 0.56774 0.0
C532 C 0.84058 0.97775 0.55696 0.0
C533 C 0.83552 0.97242 0.53659 0.0
C534 C 0.8531 0.9455 0.52857 0.0
C535 C 0.81825 0.90553 0.51831 0.0
C536 C 0.89061 0.97087 0.51446 0.0
C537 C 0.86757 0.93523 0.5477 0.0
C538 C 0.86067 0.95453 0.56392 0.0
C539 C 0.86814 0.94658 0.58333 0.0
C540 C 0.88134 0.91685 0.58623 0.0
C541 C 0.88662 0.89539 0.56981 0.0
C542 C 0.88134 0.90617 0.55033 0.0
H543 H 0.82912 0.54183 0.8344 0.0
H544 H 0.94136 0.66566 0.83332 0.0
H545 H 0.98589 0.6332 0.83958 0.0
H546 H 0.85887 0.50361 0.87439 0.0
H547 H 0.83643 0.45044 0.86508 0.0
H548 H 0.81442 0.48268 0.85761 0.0
H549 H 0.82558 0.47069 0.82056 0.0
H550 H 0.84759 0.43821 0.82788 0.0
H551 H 0.87751 0.483 0.81198 0.0
H552 H 1.01678 0.58789 0.84993 0.0
H553 H 1.03159 0.53392 0.8635 0.0
H554 H 0.89871 0.43997 0.85759 0.0
C555 C 0.86313 0.56212 0.83527 0.0
C556 C 0.88186 0.60625 0.83346 0.0
C557 C 0.92646 0.63172 0.83449 0.0
C558 C 0.95193 0.61356 0.83807 0.0
C559 C 0.93225 0.56995 0.84032 0.0
C560 C 0.88885 0.54457 0.83881 0.0
C561 C 0.87501 0.49906 0.84329 0.0
C562 C 0.8444 0.48304 0.86115 0.0
C563 C 0.85527 0.4711 0.82482 0.0
C564 C 0.91725 0.50295 0.84831 0.0
C565 C 0.95 0.54392 0.84624 0.0
C566 C 0.99152 0.55557 0.85126 0.0
C567 C 0.99964 0.52465 0.85889 0.0
C568 C 0.96632 0.48269 0.86155 0.0
C569 C 0.92482 0.47177 0.85579 0.0
H570 H 0.32251 0.80835 0.18651 0.0
H571 H 0.35035 0.84387 0.1245 0.0
H572 H 0.37877 0.91873 0.13399 0.0
H573 H 0.28172 0.87075 0.19716 0.0
H574 H 0.30195 0.8848 0.22214 0.0
H575 H 0.29295 0.83587 0.21143 0.0
H576 H 0.37097 0.85594 0.21775 0.0
H577 H 0.38004 0.90446 0.22917 0.0
H578 H 0.41311 0.90563 0.20884 0.0
H579 H 0.39511 0.98805 0.15007 0.0
H580 H 0.40353 1.04679 0.17147 0.0
H581 H 0.35819 0.96245 0.22218 0.0
C582 C 0.33661 0.83198 0.175 0.0
C583 C 0.33497 0.82047 0.15481 0.0
C584 C 0.35188 0.85224 0.14009 0.0
C585 C 0.36789 0.89471 0.14535 0.0
C586 C 0.36663 0.90459 0.16534 0.0
C587 C 0.35198 0.87411 0.17995 0.0
C588 C 0.34944 0.89171 0.19999 0.0
C589 C 0.30381 0.86946 0.20814 0.0
C590 C 0.38024 0.88931 0.21481 0.0
C591 C 0.36369 0.93664 0.19431 0.0
C592 C 0.37405 0.94374 0.17436 0.0
C593 C 0.38734 0.98288 0.16574 0.0
C594 C 0.39131 1.01588 0.17798 0.0
C595 C 0.38139 1.00932 0.19857 0.0
C596 C 0.36664 0.96882 0.20661 0.0
H597 H 0.58078 0.34956 0.50288 0.0
H598 H 0.64293 0.37249 0.44556 0.0
H599 H 0.68753 0.44793 0.45426 0.0
H600 H 0.59172 0.45844 0.51084 0.0
H601 H 0.60258 0.45671 0.53686 0.0
H602 H 0.56717 0.4088 0.52377 0.0
H603 H 0.61282 0.37626 0.53483 0.0
H604 H 0.64883 0.42408 0.54751 0.0
H605 H 0.66842 0.40277 0.52865 0.0
H606 H 0.73439 0.51643 0.47176 0.0
H607 H 0.77842 0.5719 0.49602 0.0
H608 H 0.68894 0.50034 0.54278 0.0
C609 C 0.60194 0.37104 0.49172 0.0
C610 C 0.60781 0.35573 0.47339 0.0
C611 C 0.63747 0.38408 0.4595 0.0
C612 C 0.66291 0.42687 0.46436 0.0
C613 C 0.65827 0.44054 0.48316 0.0
C614 C 0.6281 0.41344 0.49655 0.0
C615 C 0.63427 0.43344 0.51692 0.0
C616 C 0.5967 0.43973 0.52241 0.0
C617 C 0.64154 0.40761 0.53289 0.0
C618 C 0.67386 0.47511 0.51323 0.0
C619 C 0.68665 0.47922 0.49359 0.0
C620 C 0.72425 0.51382 0.48711 0.0
C621 C 0.74939 0.54489 0.50108 0.0
C622 C 0.73728 0.54071 0.5214 0.0
C623 C 0.69874 0.50538 0.52734 0.0
H624 H 0.31709 0.41619 0.8177 0.0
H625 H 0.37744 0.36604 0.85562 0.0
H626 H 0.30737 0.30798 0.86545 0.0
H627 H 0.24551 0.40761 0.85043 0.0
H628 H 0.20215 0.39354 0.8335 0.0
H629 H 0.25557 0.42244 0.82459 0.0
H630 H 0.23913 0.36485 0.79789 0.0
H631 H 0.18529 0.3356 0.80678 0.0
H632 H 0.21734 0.3107 0.80535 0.0
H633 H 0.23348 0.2677 0.87773 0.0
H634 H 0.16309 0.24937 0.89118 0.0
H635 H 0.15001 0.32575 0.84584 0.0
C636 C 0.31552 0.39212 0.82754 0.0
C637 C 0.35271 0.39562 0.83586 0.0
C638 C 0.34946 0.36368 0.84877 0.0
C639 C 0.30969 0.33053 0.85445 0.0
C640 C 0.27349 0.32941 0.8469 0.0
C641 C 0.27609 0.35912 0.83346 0.0
C642 C 0.23324 0.35541 0.83012 0.0
C643 C 0.23421 0.39719 0.83497 0.0
C644 C 0.21784 0.34075 0.80876 0.0
C645 C 0.20679 0.32138 0.84499 0.0
C646 C 0.23022 0.3058 0.85408 0.0
C647 C 0.21441 0.27862 0.8703 0.0
C648 C 0.17448 0.26847 0.87789 0.0
C649 C 0.15099 0.28572 0.86935 0.0
C650 C 0.16666 0.31095 0.85219 0.0
H651 H 0.84044 0.27148 0.15703 0.0
H652 H 0.88026 0.39278 0.12993 0.0
H653 H 0.80682 0.37872 0.13077 0.0
H654 H 0.72719 0.21517 0.1355 0.0
H655 H 0.70709 0.18673 0.15845 0.0
H656 H 0.75929 0.20009 0.14981 0.0
H657 H 0.79049 0.23693 0.18356 0.0
H658 H 0.73887 0.22459 0.19216 0.0
H659 H 0.78118 0.2786 0.19196 0.0
H660 H 0.73673 0.36299 0.14462 0.0
H661 H 0.67093 0.33908 0.16432 0.0
H662 H 0.67614 0.22809 0.18216 0.0
C663 C 0.83349 0.29455 0.15074 0.0
C664 C 0.86628 0.33354 0.14373 0.0
C665 C 0.8558 0.36263 0.13534 0.0
C666 C 0.8141 0.35506 0.1359 0.0
C667 C 0.78322 0.31809 0.14471 0.0
C668 C 0.79211 0.28759 0.15138 0.0
C669 C 0.75485 0.25309 0.16245 0.0
C670 C 0.73598 0.2113 0.15085 0.0
C671 C 0.76711 0.24807 0.18378 0.0
C672 C 0.72511 0.27079 0.16243 0.0
C673 C 0.74162 0.30796 0.15186 0.0
C674 C 0.72257 0.33304 0.15224 0.0
C675 C 0.68559 0.31956 0.16361 0.0
C676 C 0.66826 0.28143 0.17436 0.0
C677 C 0.68803 0.25665 0.17349 0.0
H678 H 1.06868 0.52896 0.09214 0.0
H679 H 0.11344 0.45535 0.12362 0.0
H680 H 1.08669 0.40242 0.09679 0.0
H681 H 0.97335 0.43893 0.07002 0.0
H682 H 0.97953 0.46545 0.04669 0.0
H683 H 0.9976 0.49553 0.06945 0.0
H684 H 1.0727 0.53996 0.05437 0.0
H685 H 1.05484 0.51026 0.03157 0.0
H686 H 0.0997 0.51364 0.04452 0.0
H687 H 1.0609 0.36054 0.0659 0.0
H688 H 1.04056 0.33377 0.0316 0.0
H689 H 1.01381 0.43451 0.01908 0.0
C690 C 1.07228 0.50139 0.09343 0.0
C691 C 1.09243 0.49581 0.11009 0.0
C692 C 0.0973 0.45979 0.11117 0.0
C693 C 1.08221 0.42951 0.09601 0.0
C694 C 1.06251 0.4358 0.07976 0.0
C695 C 1.05763 0.47086 0.07826 0.0
C696 C 1.03831 0.47143 0.0584 0.0
C697 C 0.9946 0.4676 0.06132 0.0
C698 C 1.06818 0.51117 0.04652 0.0
C699 C 1.03447 0.43199 0.04881 0.0
C700 C 1.04799 0.41162 0.06157 0.0
C701 C 1.0498 0.37589 0.05581 0.0
C702 C 1.03837 0.36103 0.0363 0.0
C703 C 1.02553 0.382 0.02277 0.0
C704 C 1.02272 0.41741 0.02926 0.0
H705 H 0.61099 0.09212 0.41842 0.0
H706 H 0.63673 0.20376 0.45197 0.0
H707 H 0.61998 0.23288 0.42276 0.0
H708 H 0.65851 0.148 0.37244 0.0
H709 H 0.62022 0.10682 0.35661 0.0
H710 H 0.63302 0.09392 0.38047 0.0
H711 H 0.55366 1.0562 0.39035 0.0
H712 H 0.54064 0.06901 0.36653 0.0
H713 H 0.52492 0.08454 0.38909 0.0
H714 H 0.59888 0.24914 0.39047 0.0
H715 H 0.57687 0.25304 0.35635 0.0
H716 H 0.57054 0.1338 0.34223 0.0
C717 C 0.61295 0.1226 0.41954 0.0
C718 C 0.62399 0.1454 0.43764 0.0
C719 C 0.6269 0.18539 0.43847 0.0
C720 C 0.61787 0.20232 0.42188 0.0
C721 C 0.60666 0.17908 0.40432 0.0
C722 C 0.60453 0.1403 0.4029 0.0
C723 C 0.59254 0.12254 0.38199 0.0
C724 C 0.6282 0.11754 0.37231 0.0
C725 C 0.55043 0.08059 0.382 0.0
C726 C 0.58788 0.15721 0.37209 0.0
C727 C 0.5961 0.18942 0.38529 0.0
C728 C 0.59281 0.22437 0.37986 0.0
C729 C 0.58061 0.22645 0.36036 0.0
C730 C 0.57215 0.19394 0.34643 0.0
C731 C 0.57624 0.15904 0.35247 0.0
H732 H 0.69601 0.65238 0.77581 0.0
H733 H 0.61193 0.51784 0.76887 0.0
H734 H 0.65382 0.51736 0.73984 0.0
H735 H 0.70943 0.67747 0.72503 0.0
H736 H 0.76445 0.71723 0.72706 0.0
H737 H 0.72965 0.70603 0.74805 0.0
H738 H 0.77985 0.6915 0.76961 0.0
H739 H 0.81474 0.70222 0.74862 0.0
H740 H 0.79357 0.6527 0.76151 0.0
H741 H 0.70233 0.53248 0.71058 0.0
H742 H 0.75097 0.56254 0.68201 0.0
H743 H 0.80435 0.68708 0.70858 0.0
C744 C 0.68671 0.62277 0.76828 0.0
C745 C 0.65093 0.58513 0.7745 0.0
C746 C 0.63926 0.54703 0.76421 0.0
C747 C 0.66302 0.54641 0.74784 0.0
C748 C 0.69834 0.58412 0.7421 0.0
C749 C 0.71009 0.62161 0.75199 0.0
C750 C 0.74799 0.65813 0.74224 0.0
C751 C 0.73721 0.69167 0.73517 0.0
C752 C 0.78631 0.67725 0.75633 0.0
C753 C 0.75484 0.63559 0.72488 0.0
C754 C 0.72636 0.59282 0.72526 0.0
C755 C 0.72517 0.56582 0.71025 0.0
C756 C 0.75312 0.58316 0.69414 0.0
C757 C 0.78159 0.62712 0.69312 0.0
C758 C 0.78296 0.65338 0.70896 0.0
H759 H 0.56367 0.10686 0.56461 0.0
H760 H 0.68082 0.11524 0.54428 0.0
H761 H 0.69877 0.10871 0.57926 0.0
H762 H 0.60206 0.16644 0.60825 0.0
H763 H 0.55553 0.13444 0.62301 0.0
H764 H 0.55105 0.13697 0.59646 0.0
H765 H 0.51557 1.05572 0.59392 0.0
H766 H 0.51951 1.05285 0.62053 0.0
H767 H 0.5419 1.02949 0.6043 0.0
H768 H 0.70674 0.10927 0.6175 0.0
H769 H 0.70049 0.10849 0.6543 0.0
H770 H 0.57572 0.09502 0.64904 0.0
C771 C 0.59282 0.10659 0.56746 0.0
C772 C 0.62089 0.11154 0.5517 0.0
C773 C 0.6587 0.11113 0.55607 0.0
C774 C 0.66919 0.10768 0.57593 0.0
C775 C 0.64117 0.10391 0.59121 0.0
C776 C 0.6033 0.10246 0.58707 0.0
C777 C 0.57858 0.09848 0.60599 0.0
C778 C 0.5714 0.13634 0.60857 0.0
C779 C 0.53639 1.05664 0.60619 0.0
C780 C 0.60873 0.09888 0.62159 0.0
C781 C 0.64484 0.10231 0.61283 0.0
C782 C 0.67826 0.10587 0.6244 0.0
C783 C 0.67455 0.10561 0.6453 0.0
C784 C 0.63748 0.10128 0.65456 0.0
C785 C 0.60415 0.09766 0.64242 0.0
H786 H 0.65745 0.5518 0.89371 0.0
H787 H 0.62088 0.64664 0.8843 0.0
H788 H 0.61284 0.6514 0.92061 0.0
H789 H 0.58184 0.49899 0.93471 0.0
H790 H 0.61726 0.48677 0.94802 0.0
H791 H 0.62019 0.49077 0.92128 0.0
H792 H 0.69974 0.54657 0.92373 0.0
H793 H 0.69695 0.54309 0.95048 0.0
H794 H 0.71577 0.59334 0.93857 0.0
H795 H 0.61623 0.65136 0.95797 0.0
H796 H 0.61917 0.6392 0.99345 0.0
H797 H 0.64354 0.53669 0.97941 0.0
C798 C 0.64734 0.57324 0.89934 0.0
C799 C 0.63998 0.59905 0.88614 0.0
C800 C 0.62658 0.62651 0.89406 0.0
C801 C 0.62216 0.62959 0.9147 0.0
C802 C 0.63031 0.6043 0.92732 0.0
C803 C 0.64163 0.57589 0.91996 0.0
C804 C 0.64705 0.55143 0.93687 0.0
C805 C 0.61465 0.50418 0.93511 0.0
C806 C 0.69259 0.55907 0.93744 0.0
C807 C 0.6378 0.57111 0.95488 0.0
C808 C 0.62883 0.60191 0.94895 0.0
C809 C 0.62188 0.62637 0.96275 0.0
C810 C 0.62314 0.61866 0.9831 0.0
C811 C 0.63005 0.58572 0.98987 0.0
C812 C 0.63792 0.562 0.97525 0.0
H813 H 0.14477 0.52065 0.23654 0.0
H814 H 0.11233 0.60953 0.21099 0.0
H815 H 0.11353 0.63821 0.24467 0.0
H816 H 1.08128 0.49772 0.28002 0.0
H817 H 0.11855 0.49382 0.29619 0.0
H818 H 0.1175 0.482 0.27007 0.0
H819 H 0.19717 0.53727 0.26709 0.0
H820 H 0.19855 0.54906 0.29325 0.0
H821 H 0.21555 0.59067 0.27521 0.0
H822 H 0.11479 0.65465 0.28172 0.0
H823 H 0.11767 0.65888 0.31835 0.0
H824 H 0.15072 0.55994 0.3198 0.0
C825 C 0.13838 0.54649 0.23798 0.0
C826 C 0.12851 0.5629 0.22104 0.0
C827 C 0.1201 0.59653 0.22367 0.0
C828 C 0.12064 0.61295 0.24278 0.0
C829 C 0.12979 0.59556 0.25919 0.0
C830 C 0.13877 0.56321 0.25694 0.0
C831 C 0.14671 0.5494 0.27699 0.0
C832 C 0.11406 0.50298 0.28105 0.0
C833 C 0.1922 0.55707 0.2782 0.0
C834 C 0.14037 0.57867 0.29094 0.0
C835 C 0.13074 0.60513 0.28038 0.0
C836 C 0.12276 0.63434 0.29007 0.0
C837 C 0.12477 0.63668 0.31099 0.0
C838 C 0.13479 0.61005 0.32226 0.0
C839 C 0.14265 0.58066 0.31187 0.0
loop_
_geom_bond_atom_site_label_1
_geom_bond_atom_site_label_2
_geom_bond_distance
_geom_bond_site_symmetry_2
_ccdc_geom_bond_type
C0 Eu1 2.843 . S
C0 C2 1.500 . S
C0 O20 1.257 . S
C0 O21 1.260 . S
Eu1 C0 2.843 . S
Eu1 O20 2.481 . S
Eu1 O21 2.486 . S
Eu1 O22 2.430 1_655 S
Eu1 O23 2.669 1_655 S
Eu1 O24 2.405 . S
Eu1 O29 2.357 1_655 S
Eu1 O31 2.363 1_655 S
C2 C0 1.500 . S
C2 C3 1.377 . S
C2 C7 1.377 . S
C3 C2 1.377 . S
C3 C4 1.395 . S
C3 H32 0.931 . S
C4 C3 1.395 . S
C4 C5 1.383 . S
C4 H33 0.931 . S
C5 C4 1.383 . S
C5 C6 1.394 . S
C6 C5 1.394 . S
C6 C7 1.378 . S
C6 H34 0.931 . S
C7 C2 1.377 . S
C7 C6 1.378 . S
C7 H35 0.931 . S
C8 O22 1.259 . S
C8 O23 1.270 . S
C9 O24 1.251 . S
C9 O25 1.251 . S
C10 Eu11 2.835 . S
C10 C12 1.500 . S
C10 O26 1.257 . S
C10 O27 1.260 . S
Eu11 C10 2.835 . S
Eu11 O23 2.355 . S
Eu11 O25 2.374 1_455 S
Eu11 O26 2.473 . S
Eu11 O27 2.480 . S
Eu11 O28 2.430 . S
Eu11 O29 2.670 . S
Eu11 O30 2.394 . S
C12 C10 1.500 . S
C12 C13 1.377 . S
C12 C17 1.377 . S
C13 C12 1.377 . S
C13 C14 1.395 . S
C13 H36 0.931 . S
C14 C13 1.395 . S
C14 C15 1.383 . S
C14 H37 0.931 . S
C15 C14 1.383 . S
C15 C16 1.394 . S
C16 C15 1.394 . S
C16 C17 1.378 . S
C16 H38 0.931 . S
C17 C12 1.377 . S
C17 C16 1.378 . S
C17 H39 0.931 . S
C18 O28 1.259 . S
C18 O29 1.270 . S
C19 O30 1.251 . S
C19 O31 1.251 . S
O20 C0 1.257 . S
O20 Eu1 2.481 . S
O21 C0 1.260 . S
O21 Eu1 2.486 . S
O22 Eu1 2.430 1_455 S
O22 C8 1.259 . S
O23 Eu1 2.669 1_455 S
O23 C8 1.270 . S
O23 Eu11 2.355 . S
O24 Eu1 2.405 . S
O24 C9 1.251 . S
O25 C9 1.251 . S
O25 Eu11 2.374 1_655 S
O26 C10 1.257 . S
O26 Eu11 2.473 . S
O27 C10 1.260 . S
O27 Eu11 2.480 . S
O28 Eu11 2.430 . S
O28 C18 1.259 . S
O29 Eu1 2.357 1_455 S
O29 Eu11 2.670 . S
O29 C18 1.270 . S
O30 Eu11 2.394 . S
O30 C19 1.251 . S
O31 Eu1 2.363 1_455 S
O31 C19 1.251 . S
H32 C3 0.931 . S
H33 C4 0.931 . S
H34 C6 0.931 . S
H35 C7 0.931 . S
H36 C13 0.931 . S
H37 C14 0.931 . S
H38 C16 0.931 . S
H39 C17 0.931 . S
C40 Eu41 2.835 . S
C40 C42 1.500 . S
C40 O60 1.257 . S
C40 O61 1.260 . S
Eu41 C40 2.835 . S
Eu41 O60 2.473 . S
Eu41 O61 2.480 . S
Eu41 O62 2.430 . S
Eu41 O63 2.670 . S
Eu41 O64 2.394 . S
Eu41 O69 2.355 . S
Eu41 O71 2.374 1_545 S
C42 C40 1.500 . S
C42 C43 1.377 . S
C42 C47 1.377 . S
C43 C42 1.377 . S
C43 C44 1.395 . S
C43 H72 0.931 . S
C44 C43 1.395 . S
C44 C45 1.383 . S
C44 H73 0.931 . S
C45 C44 1.383 . S
C45 C46 1.394 . S
C46 C45 1.394 . S
C46 C47 1.378 . S
C46 H74 0.931 . S
C47 C42 1.377 . S
C47 C46 1.378 . S
C47 H75 0.931 . S
C48 O62 1.259 . S
C48 O63 1.270 . S
C49 O64 1.251 . S
C49 O65 1.251 . S
C50 Eu51 2.835 1_565 S
C50 C52 1.500 . S
C50 O66 1.257 . S
C50 O67 1.260 . S
Eu51 C50 2.835 1_545 S
Eu51 O63 2.355 . S
Eu51 O65 2.374 . S
Eu51 O66 2.473 1_545 S
Eu51 O67 2.480 1_545 S
Eu51 O68 2.430 . S
Eu51 O69 2.670 . S
Eu51 O70 2.394 1_545 S
C52 C50 1.500 . S
C52 C53 1.377 . S
C52 C57 1.377 . S
C53 C52 1.377 . S
C53 C54 1.395 . S
C53 H76 0.931 . S
C54 C53 1.395 . S
C54 C55 1.383 . S
C54 H77 0.931 . S
C55 C54 1.383 . S
C55 C56 1.394 . S
C56 C55 1.394 . S
C56 C57 1.378 . S
C56 H78 0.931 . S
C57 C52 1.377 . S
C57 C56 1.378 . S
C57 H79 0.931 . S
C58 O68 1.259 . S
C58 O69 1.270 . S
C59 O70 1.251 . S
C59 O71 1.251 . S
O60 C40 1.257 . S
O60 Eu41 2.473 . S
O61 C40 1.260 . S
O61 Eu41 2.480 . S
O62 Eu41 2.430 . S
O62 C48 1.259 . S
O63 Eu41 2.670 . S
O63 C48 1.270 . S
O63 Eu51 2.355 . S
O64 Eu41 2.394 . S
O64 C49 1.251 . S
O65 C49 1.251 . S
O65 Eu51 2.374 . S
O66 C50 1.257 . S
O66 Eu51 2.473 1_565 S
O67 C50 1.260 . S
O67 Eu51 2.480 1_565 S
O68 Eu51 2.430 . S
O68 C58 1.259 . S
O69 Eu41 2.355 . S
O69 Eu51 2.670 . S
O69 C58 1.270 . S
O70 Eu51 2.394 1_565 S
O70 C59 1.251 . S
O71 Eu41 2.374 1_565 S
O71 C59 1.251 . S
H72 C43 0.931 . S
H73 C44 0.931 . S
H74 C46 0.931 . S
H75 C47 0.931 . S
H76 C53 0.931 . S
H77 C54 0.931 . S
H78 C56 0.931 . S
H79 C57 0.931 . S
C80 Eu81 2.835 . S
C80 C82 1.500 . S
C80 O100 1.257 . S
C80 O101 1.260 . S
Eu81 C80 2.835 . S
Eu81 O100 2.473 . S
Eu81 O101 2.480 . S
Eu81 O102 2.430 . S
Eu81 O103 2.670 . S
Eu81 O104 2.394 . S
Eu81 O109 2.355 . S
Eu81 O111 2.374 . S
C82 C80 1.500 . S
C82 C83 1.377 . S
C82 C87 1.377 . S
C83 C82 1.377 . S
C83 C84 1.395 . S
C83 H112 0.931 . S
C84 C83 1.395 . S
C84 C85 1.383 . S
C84 H113 0.931 . S
C85 C84 1.383 . S
C85 C86 1.394 . S
C86 C85 1.394 . S
C86 C87 1.378 . S
C86 H114 0.931 . S
C87 C82 1.377 . S
C87 C86 1.378 . S
C87 H115 0.931 . S
C88 O102 1.259 . S
C88 O103 1.270 . S
C89 O104 1.251 . S
C89 O105 1.251 . S
C90 Eu91 2.835 . S
C90 C92 1.500 . S
C90 O106 1.257 . S
C90 O107 1.260 . S
Eu91 C90 2.835 . S
Eu91 O103 2.355 . S
Eu91 O105 2.374 . S
Eu91 O106 2.473 . S
Eu91 O107 2.480 . S
Eu91 O108 2.430 . S
Eu91 O109 2.670 . S
Eu91 O110 2.394 . S
C92 C90 1.500 . S
C92 C93 1.377 . S
C92 C97 1.377 . S
C93 C92 1.377 . S
C93 C94 1.395 . S
C93 H116 0.931 . S
C94 C93 1.395 . S
C94 C95 1.383 . S
C94 H117 0.931 . S
C95 C94 1.383 . S
C95 C96 1.394 . S
C96 C95 1.394 . S
C96 C97 1.378 . S
C96 H118 0.931 . S
C97 C92 1.377 . S
C97 C96 1.378 . S
C97 H119 0.931 . S
C98 O108 1.259 . S
C98 O109 1.270 . S
C99 O110 1.251 . S
C99 O111 1.251 . S
O100 C80 1.257 . S
O100 Eu81 2.473 . S
O101 C80 1.260 . S
O101 Eu81 2.480 . S
O102 Eu81 2.430 . S
O102 C88 1.259 . S
O103 Eu81 2.670 . S
O103 C88 1.270 . S
O103 Eu91 2.355 . S
O104 Eu81 2.394 . S
O104 C89 1.251 . S
O105 C89 1.251 . S
O105 Eu91 2.374 . S
O106 C90 1.257 . S
O106 Eu91 2.473 . S
O107 C90 1.260 . S
O107 Eu91 2.480 . S
O108 Eu91 2.430 . S
O108 C98 1.259 . S
O109 Eu81 2.355 . S
O109 Eu91 2.670 . S
O109 C98 1.270 . S
O110 Eu91 2.394 . S
O110 C99 1.251 . S
O111 Eu81 2.374 . S
O111 C99 1.251 . S
H112 C83 0.931 . S
H113 C84 0.931 . S
H114 C86 0.931 . S
H115 C87 0.931 . S
H116 C93 0.931 . S
H117 C94 0.931 . S
H118 C96 0.931 . S
H119 C97 0.931 . S
C120 C121 1.386 . S
C120 C122 1.397 . S
C120 H144 0.931 . S
C121 C120 1.386 . S
C121 C125 1.397 . S
C122 C120 1.397 . S
C122 C123 1.384 . S
C122 H145 0.930 . S
C123 C122 1.384 . S
C123 C124 1.377 . S
C123 C126 1.481 . S
C124 C123 1.377 . S
C124 C125 1.389 . S
C124 H146 0.929 1_545 S
C125 C121 1.397 . S
C125 C124 1.389 . S
C125 H147 0.931 1_545 S
C126 C123 1.481 . S
C126 C127 1.387 . S
C126 C131 1.390 . S
C127 C126 1.387 . S
C127 C128 1.401 . S
C127 H148 0.930 . S
C128 C127 1.401 . S
C128 C129 1.376 . S
C128 C137 1.511 . S
C129 C128 1.376 . S
C129 C130 1.392 . S
C129 H150 0.931 . S
C130 C129 1.392 . S
C130 C131 1.361 . S
C130 C132 1.500 1_545 S
C131 C126 1.390 . S
C131 C130 1.361 . S
C131 H149 0.931 . S
C132 C130 1.500 1_565 S
C132 C133 1.385 . S
C132 C134 1.365 . S
C133 C132 1.385 . S
C133 C143 1.401 . S
C133 H151 0.903 1_565 S
C134 C132 1.365 . S
C134 C135 1.409 . S
C134 H152 0.929 . S
C135 C134 1.409 . S
C135 C136 1.380 . S
C135 H153 0.930 . S
C136 C135 1.380 . S
C136 C143 1.357 . S
C137 C128 1.511 . S
C137 C138 1.341 . S
C137 C139 1.371 . S
C138 C137 1.341 . S
C138 C142 1.394 . S
C138 H154 0.930 . S
C139 C137 1.371 . S
C139 C140 1.392 . S
C139 H155 0.931 . S
C140 C139 1.392 . S
C140 C141 1.331 . S
C140 H158 0.932 . S
C141 C140 1.331 . S
C141 C142 1.336 . S
C142 C138 1.394 . S
C142 C141 1.336 . S
C142 H157 0.929 . S
C143 C133 1.401 . S
C143 C136 1.357 . S
C143 H156 0.928 . S
H144 C120 0.931 . S
H145 C122 0.930 . S
H146 C124 0.929 1_565 S
H147 C125 0.931 1_565 S
H148 C127 0.930 . S
H149 C131 0.931 . S
H150 C129 0.931 . S
H151 C133 0.903 1_545 S
H152 C134 0.929 . S
H153 C135 0.930 . S
H154 C138 0.930 . S
H155 C139 0.931 . S
H156 C143 0.928 . S
H157 C142 0.929 . S
H158 C140 0.932 . S
C159 C160 1.386 . S
C159 C161 1.397 . S
C159 H183 0.931 . S
C160 C159 1.386 . S
C160 C164 1.397 . S
C161 C159 1.397 . S
C161 C162 1.384 . S
C161 H184 0.930 . S
C162 C161 1.384 . S
C162 C163 1.377 . S
C162 C165 1.481 . S
C163 C162 1.377 . S
C163 C164 1.389 . S
C163 H185 0.929 . S
C164 C160 1.397 . S
C164 C163 1.389 . S
C164 H186 0.931 . S
C165 C162 1.481 . S
C165 C166 1.387 . S
C165 C170 1.390 . S
C166 C165 1.387 . S
C166 C167 1.401 . S
C166 H187 0.930 . S
C167 C166 1.401 . S
C167 C168 1.376 . S
C167 C176 1.511 . S
C168 C167 1.376 . S
C168 C169 1.392 . S
C168 H189 0.931 . S
C169 C168 1.392 . S
C169 C170 1.361 . S
C169 C171 1.500 . S
C170 C165 1.390 . S
C170 C169 1.361 . S
C170 H188 0.931 . S
C171 C169 1.500 . S
C171 C172 1.371 . S
C171 C173 1.365 . S
C172 C171 1.371 . S
C172 C182 1.386 . S
C172 H190 0.931 . S
C173 C171 1.365 . S
C173 C174 1.409 . S
C173 H191 0.929 . S
C174 C173 1.409 . S
C174 C175 1.380 . S
C174 H192 0.930 . S
C175 C174 1.380 . S
C175 C182 1.357 . S
C176 C167 1.511 . S
C176 C177 1.341 . S
C176 C178 1.371 . S
C177 C176 1.341 . S
C177 C181 1.394 . S
C177 H193 0.930 . S
C178 C176 1.371 . S
C178 C179 1.392 . S
C178 H194 0.931 . S
C179 C178 1.392 . S
C179 C180 1.331 . S
C179 H197 0.932 . S
C180 C179 1.331 . S
C180 C181 1.336 . S
C181 C177 1.394 . S
C181 C180 1.336 . S
C181 H196 0.929 . S
C182 C172 1.386 . S
C182 C175 1.357 . S
C182 H195 0.928 . S
H183 C159 0.931 . S
H184 C161 0.930 . S
H185 C163 0.929 . S
H186 C164 0.931 . S
H187 C166 0.930 . S
H188 C170 0.931 . S
H189 C168 0.931 . S
H190 C172 0.931 . S
H191 C173 0.929 . S
H192 C174 0.930 . S
H193 C177 0.930 . S
H194 C178 0.931 . S
H195 C182 0.928 . S
H196 C181 0.929 . S
H197 C179 0.932 . S
C198 C199 1.386 . S
C198 C200 1.397 . S
C198 H222 0.931 . S
C199 C198 1.386 . S
C199 C203 1.397 1_455 S
C200 C198 1.397 . S
C200 C201 1.384 . S
C200 H223 0.930 . S
C201 C200 1.384 . S
C201 C202 1.377 1_455 S
C201 C204 1.481 . S
C202 C201 1.377 1_655 S
C202 C203 1.389 . S
C202 H224 0.929 . S
C203 C199 1.397 1_655 S
C203 C202 1.389 . S
C203 H225 0.931 . S
C204 C201 1.481 . S
C204 C205 1.387 . S
C204 C209 1.390 1_455 S
C205 C204 1.387 . S
C205 C206 1.401 . S
C205 H226 0.930 . S
C206 C205 1.401 . S
C206 C207 1.376 . S
C206 C215 1.511 . S
C207 C206 1.376 . S
C207 C208 1.392 1_455 S
C207 H228 0.931 . S
C208 C207 1.392 1_655 S
C208 C209 1.361 . S
C208 C210 1.500 . S
C209 C204 1.390 1_655 S
C209 C208 1.361 . S
C209 H227 0.931 . S
C210 C208 1.500 . S
C210 C211 1.371 . S
C210 C212 1.365 . S
C211 C210 1.371 . S
C211 C221 1.386 . S
C211 H229 0.931 . S
C212 C210 1.365 . S
C212 C213 1.409 . S
C212 H230 0.929 . S
C213 C212 1.409 . S
C213 C214 1.380 . S
C213 H231 0.930 . S
C214 C213 1.380 . S
C214 C221 1.357 . S
C215 C206 1.511 . S
C215 C216 1.341 . S
C215 C217 1.371 . S
C216 C215 1.341 . S
C216 C220 1.394 . S
C216 H232 0.930 . S
C217 C215 1.371 . S
C217 C218 1.392 . S
C217 H233 0.931 . S
C218 C217 1.392 . S
C218 C219 1.331 . S
C218 H236 0.932 . S
C219 C218 1.331 . S
C219 C220 1.336 . S
C220 C216 1.394 . S
C220 C219 1.336 . S
C220 H235 0.929 . S
C221 C211 1.386 . S
C221 C214 1.357 . S
C221 H234 0.928 . S
H222 C198 0.931 . S
H223 C200 0.930 . S
H224 C202 0.929 . S
H225 C203 0.931 . S
H226 C205 0.930 . S
H227 C209 0.931 . S
H228 C207 0.931 . S
H229 C211 0.931 . S
H230 C212 0.929 . S
H231 C213 0.930 . S
H232 C216 0.930 . S
H233 C217 0.931 . S
H234 C221 0.928 . S
H235 C220 0.929 . S
H236 C218 0.932 . S
C237 C238 1.386 . S
C237 C239 1.397 . S
C237 H261 0.931 1_455 S
C238 C237 1.386 . S
C238 C242 1.397 . S
C239 C237 1.397 . S
C239 C240 1.384 . S
C239 H262 0.930 1_455 S
C240 C239 1.384 . S
C240 C241 1.377 . S
C240 C243 1.481 . S
C241 C240 1.377 . S
C241 C242 1.389 . S
C241 H263 0.929 . S
C242 C238 1.397 . S
C242 C241 1.389 . S
C242 H264 0.931 . S
C243 C240 1.481 . S
C243 C244 1.387 . S
C243 C248 1.390 . S
C244 C243 1.387 . S
C244 C245 1.401 . S
C244 H265 0.930 1_455 S
C245 C244 1.401 . S
C245 C246 1.376 . S
C245 C254 1.511 1_455 S
C246 C245 1.376 . S
C246 C247 1.392 . S
C246 H267 0.931 . S
C247 C246 1.392 . S
C247 C248 1.361 . S
C247 C249 1.500 . S
C248 C243 1.390 . S
C248 C247 1.361 . S
C248 H266 0.931 . S
C249 C247 1.500 . S
C249 C250 1.371 . S
C249 C251 1.365 . S
C250 C249 1.371 . S
C250 C260 1.386 . S
C250 H268 0.931 . S
C251 C249 1.365 . S
C251 C252 1.409 . S
C251 H269 0.929 . S
C252 C251 1.409 . S
C252 C253 1.380 . S
C252 H270 0.930 . S
C253 C252 1.380 . S
C253 C260 1.357 . S
C254 C245 1.511 1_655 S
C254 C255 1.341 . S
C254 C256 1.371 . S
C255 C254 1.341 . S
C255 C259 1.394 . S
C255 H271 0.930 . S
C256 C254 1.371 . S
C256 C257 1.392 . S
C256 H272 0.931 1_655 S
C257 C256 1.392 . S
C257 C258 1.331 . S
C257 H275 0.932 . S
C258 C257 1.331 . S
C258 C259 1.336 . S
C259 C255 1.394 . S
C259 C258 1.336 . S
C259 H274 0.929 . S
C260 C250 1.386 . S
C260 C253 1.357 . S
C260 H273 0.928 . S
H261 C237 0.931 1_655 S
H262 C239 0.930 1_655 S
H263 C241 0.929 . S
H264 C242 0.931 . S
H265 C244 0.930 1_655 S
H266 C248 0.931 . S
H267 C246 0.931 . S
H268 C250 0.931 . S
H269 C251 0.929 . S
H270 C252 0.930 . S
H271 C255 0.930 . S
H272 C256 0.931 1_455 S
H273 C260 0.928 . S
H274 C259 0.929 . S
H275 C257 0.932 . S
C276 C277 1.386 1_565 S
C276 C278 1.397 . S
C276 H300 0.931 . S
C277 C276 1.386 1_545 S
C277 C281 1.397 . S
C278 C276 1.397 . S
C278 C279 1.384 1_565 S
C278 H301 0.930 . S
C279 C278 1.384 1_545 S
C279 C280 1.377 . S
C279 C282 1.481 . S
C280 C279 1.377 . S
C280 C281 1.389 . S
C280 H302 0.929 . S
C281 C277 1.397 . S
C281 C280 1.389 . S
C281 H303 0.931 . S
C282 C279 1.481 . S
C282 C283 1.387 1_545 S
C282 C287 1.390 . S
C283 C282 1.387 1_565 S
C283 C284 1.401 . S
C283 H304 0.930 . S
C284 C283 1.401 . S
C284 C285 1.376 1_565 S
C284 C293 1.511 . S
C285 C284 1.376 1_545 S
C285 C286 1.392 . S
C285 H306 0.931 . S
C286 C285 1.392 . S
C286 C287 1.361 . S
C286 C288 1.500 . S
C287 C282 1.390 . S
C287 C286 1.361 . S
C287 H305 0.931 . S
C288 C286 1.500 . S
C288 C289 1.371 . S
C288 C290 1.365 . S
C289 C288 1.371 . S
C289 C299 1.386 . S
C289 H307 0.931 . S
C290 C288 1.365 . S
C290 C291 1.409 . S
C290 H308 0.929 . S
C291 C290 1.409 . S
C291 C292 1.380 . S
C291 H309 0.930 . S
C292 C291 1.380 . S
C292 C299 1.357 . S
C293 C284 1.511 . S
C293 C294 1.341 . S
C293 C295 1.371 . S
C294 C293 1.341 . S
C294 C298 1.394 . S
C294 H310 0.930 . S
C295 C293 1.371 . S
C295 C296 1.392 . S
C295 H311 0.931 . S
C296 C295 1.392 . S
C296 C297 1.331 . S
C296 H314 0.932 . S
C297 C296 1.331 . S
C297 C298 1.336 . S
C298 C294 1.394 . S
C298 C297 1.336 . S
C298 H313 0.929 . S
C299 C289 1.386 . S
C299 C292 1.357 . S
C299 H312 0.928 . S
H300 C276 0.931 . S
H301 C278 0.930 . S
H302 C280 0.929 . S
H303 C281 0.931 . S
H304 C283 0.930 . S
H305 C287 0.931 . S
H306 C285 0.931 . S
H307 C289 0.931 . S
H308 C290 0.929 . S
H309 C291 0.930 . S
H310 C294 0.930 . S
H311 C295 0.931 . S
H312 C299 0.928 . S
H313 C298 0.929 . S
H314 C296 0.932 . S
C315 C316 1.386 . S
C315 C317 1.397 . S
C315 H339 0.931 . S
C316 C315 1.386 . S
C316 C320 1.397 . S
C317 C315 1.397 . S
C317 C318 1.384 . S
C317 H340 0.930 . S
C318 C317 1.384 . S
C318 C319 1.377 . S
C318 C321 1.481 . S
C319 C318 1.377 . S
C319 C320 1.389 . S
C319 H341 0.929 . S
C320 C316 1.397 . S
C320 C319 1.389 . S
C320 H342 0.931 . S
C321 C318 1.481 . S
C321 C322 1.387 . S
C321 C326 1.390 . S
C322 C321 1.387 . S
C322 C323 1.401 . S
C322 H343 0.930 . S
C323 C322 1.401 . S
C323 C324 1.376 . S
C323 C332 1.511 . S
C324 C323 1.376 . S
C324 C325 1.392 . S
C324 H345 0.931 . S
C325 C324 1.392 . S
C325 C326 1.361 . S
C325 C327 1.500 . S
C326 C321 1.390 . S
C326 C325 1.361 . S
C326 H344 0.931 . S
C327 C325 1.500 . S
C327 C328 1.371 . S
C327 C329 1.365 . S
C328 C327 1.371 . S
C328 C338 1.386 . S
C328 H346 0.931 . S
C329 C327 1.365 . S
C329 C330 1.409 . S
C329 H347 0.929 . S
C330 C329 1.409 . S
C330 C331 1.380 . S
C330 H348 0.930 . S
C331 C330 1.380 . S
C331 C338 1.357 . S
C332 C323 1.511 . S
C332 C333 1.341 . S
C332 C334 1.371 . S
C333 C332 1.341 . S
C333 C337 1.394 . S
C333 H349 0.930 . S
C334 C332 1.371 . S
C334 C335 1.392 . S
C334 H350 0.931 . S
C335 C334 1.392 . S
C335 C336 1.331 . S
C335 H353 0.932 . S
C336 C335 1.331 . S
C336 C337 1.336 . S
C337 C333 1.394 . S
C337 C336 1.336 . S
C337 H352 0.929 . S
C338 C328 1.386 . S
C338 C331 1.357 . S
C338 H351 0.928 . S
H339 C315 0.931 . S
H340 C317 0.930 . S
H341 C319 0.929 . S
H342 C320 0.931 . S
H343 C322 0.930 . S
H344 C326 0.931 . S
H345 C324 0.931 . S
H346 C328 0.931 . S
H347 C329 0.929 . S
H348 C330 0.930 . S
H349 C333 0.930 . S
H350 C334 0.931 . S
H351 C338 0.928 . S
H352 C337 0.929 . S
H353 C335 0.932 . S
H354 C366 0.930 . S
H355 C368 0.930 . S
H356 C369 0.930 . S
H357 C373 0.959 . S
H358 C373 0.959 . S
H359 C373 0.961 . S
H360 C374 0.960 . S
H361 C374 0.961 . S
H362 C374 0.959 . S
H363 C377 0.929 . S
H364 C378 0.931 . S
H365 C380 0.930 . S
C366 H354 0.930 . S
C366 C367 1.399 . S
C366 C371 1.399 . S
C367 C366 1.399 . S
C367 C368 1.376 . S
C368 H355 0.930 . S
C368 C367 1.376 . S
C368 C369 1.388 . S
C369 H356 0.930 . S
C369 C368 1.388 . S
C369 C370 1.390 . S
C370 C369 1.390 . S
C370 C371 1.394 . S
C370 C376 1.465 . S
C371 C366 1.399 . S
C371 C370 1.394 . S
C371 C372 1.516 . S
C372 C371 1.516 . S
C372 C373 1.502 . S
C372 C374 1.561 . S
C372 C375 1.526 . S
C373 H357 0.959 . S
C373 H358 0.959 . S
C373 H359 0.961 . S
C373 C372 1.502 . S
C374 H360 0.960 . S
C374 H361 0.961 . S
C374 H362 0.959 . S
C374 C372 1.561 . S
C375 C372 1.526 . S
C375 C376 1.396 . S
C375 C380 1.390 . S
C376 C370 1.465 . S
C376 C375 1.396 . S
C376 C377 1.399 . S
C377 H363 0.929 . S
C377 C376 1.399 . S
C377 C378 1.385 . S
C378 H364 0.931 . S
C378 C377 1.385 . S
C378 C379 1.389 . S
C379 C378 1.389 . S
C379 C380 1.387 . S
C380 H365 0.930 . S
C380 C375 1.390 . S
C380 C379 1.387 . S
H381 C393 0.930 . S
H382 C395 0.930 . S
H383 C396 0.930 . S
H384 C400 0.959 . S
H385 C400 0.959 . S
H386 C400 0.961 . S
H387 C401 0.960 . S
H388 C401 0.961 . S
H389 C401 0.959 . S
H390 C404 0.929 . S
H391 C405 0.931 . S
H392 C407 0.930 . S
C393 H381 0.930 . S
C393 C394 1.399 . S
C393 C398 1.399 . S
C394 C393 1.399 . S
C394 C395 1.376 . S
C395 H382 0.930 . S
C395 C394 1.376 . S
C395 C396 1.388 . S
C396 H383 0.930 . S
C396 C395 1.388 . S
C396 C397 1.390 . S
C397 C396 1.390 . S
C397 C398 1.394 . S
C397 C403 1.465 . S
C398 C393 1.399 . S
C398 C397 1.394 . S
C398 C399 1.516 . S
C399 C398 1.516 . S
C399 C400 1.502 . S
C399 C401 1.561 . S
C399 C402 1.526 . S
C400 H384 0.959 . S
C400 H385 0.959 . S
C400 H386 0.961 . S
C400 C399 1.502 . S
C401 H387 0.960 . S
C401 H388 0.961 . S
C401 H389 0.959 . S
C401 C399 1.561 . S
C402 C399 1.526 . S
C402 C403 1.396 . S
C402 C407 1.390 . S
C403 C397 1.465 . S
C403 C402 1.396 . S
C403 C404 1.399 . S
C404 H390 0.929 . S
C404 C403 1.399 . S
C404 C405 1.385 . S
C405 H391 0.931 . S
C405 C404 1.385 . S
C405 C406 1.389 . S
C406 C405 1.389 . S
C406 C407 1.387 . S
C407 H392 0.930 . S
C407 C402 1.390 . S
C407 C406 1.387 . S
H408 C420 0.930 . S
H409 C422 0.930 . S
H410 C423 0.930 . S
H411 C427 0.959 . S
H412 C427 0.959 . S
H413 C427 0.961 . S
H414 C428 0.960 . S
H415 C428 0.961 . S
H416 C428 0.959 . S
H417 C431 0.929 . S
H418 C432 0.931 . S
H419 C434 0.930 . S
C420 H408 0.930 . S
C420 C421 1.399 . S
C420 C425 1.399 . S
C421 C420 1.399 . S
C421 C422 1.376 . S
C422 H409 0.930 . S
C422 C421 1.376 . S
C422 C423 1.388 . S
C423 H410 0.930 . S
C423 C422 1.388 . S
C423 C424 1.390 . S
C424 C423 1.390 . S
C424 C425 1.394 . S
C424 C430 1.465 . S
C425 C420 1.399 . S
C425 C424 1.394 . S
C425 C426 1.516 . S
C426 C425 1.516 . S
C426 C427 1.502 . S
C426 C428 1.561 . S
C426 C429 1.526 . S
C427 H411 0.959 . S
C427 H412 0.959 . S
C427 H413 0.961 . S
C427 C426 1.502 . S
C428 H414 0.960 . S
C428 H415 0.961 . S
C428 H416 0.959 . S
C428 C426 1.561 . S
C429 C426 1.526 . S
C429 C430 1.396 . S
C429 C434 1.390 . S
C430 C424 1.465 . S
C430 C429 1.396 . S
C430 C431 1.399 . S
C431 H417 0.929 . S
C431 C430 1.399 . S
C431 C432 1.385 . S
C432 H418 0.931 . S
C432 C431 1.385 . S
C432 C433 1.389 . S
C433 C432 1.389 . S
C433 C434 1.387 . S
C434 H419 0.930 . S
C434 C429 1.390 . S
C434 C433 1.387 . S
H435 C447 0.930 . S
H436 C449 0.930 . S
H437 C450 0.930 . S
H438 C454 0.959 . S
H439 C454 0.959 . S
H440 C454 0.961 . S
H441 C455 0.960 . S
H442 C455 0.961 . S
H443 C455 0.959 . S
H444 C458 0.929 . S
H445 C459 0.931 . S
H446 C461 0.930 . S
C447 H435 0.930 . S
C447 C448 1.399 . S
C447 C452 1.399 . S
C448 C447 1.399 . S
C448 C449 1.376 . S
C449 H436 0.930 . S
C449 C448 1.376 . S
C449 C450 1.388 . S
C450 H437 0.930 . S
C450 C449 1.388 . S
C450 C451 1.390 . S
C451 C450 1.390 . S
C451 C452 1.394 . S
C451 C457 1.465 . S
C452 C447 1.399 . S
C452 C451 1.394 . S
C452 C453 1.516 . S
C453 C452 1.516 . S
C453 C454 1.502 . S
C453 C455 1.561 . S
C453 C456 1.526 . S
C454 H438 0.959 . S
C454 H439 0.959 . S
C454 H440 0.961 . S
C454 C453 1.502 . S
C455 H441 0.960 . S
C455 H442 0.961 . S
C455 H443 0.959 . S
C455 C453 1.561 . S
C456 C453 1.526 . S
C456 C457 1.396 . S
C456 C461 1.390 . S
C457 C451 1.465 . S
C457 C456 1.396 . S
C457 C458 1.399 . S
C458 H444 0.929 . S
C458 C457 1.399 . S
C458 C459 1.385 . S
C459 H445 0.931 . S
C459 C458 1.385 . S
C459 C460 1.389 . S
C460 C459 1.389 . S
C460 C461 1.387 . S
C461 H446 0.930 . S
C461 C456 1.390 . S
C461 C460 1.387 . S
H462 C474 0.930 . S
H463 C476 0.930 . S
H464 C477 0.930 . S
H465 C481 0.959 . S
H466 C481 0.959 . S
H467 C481 0.961 . S
H468 C482 0.960 . S
H469 C482 0.961 . S
H470 C482 0.959 . S
H471 C485 0.929 . S
H472 C486 0.931 . S
H473 C488 0.930 . S
C474 H462 0.930 . S
C474 C475 1.399 . S
C474 C479 1.399 . S
C475 C474 1.399 . S
C475 C476 1.376 . S
C476 H463 0.930 . S
C476 C475 1.376 . S
C476 C477 1.388 . S
C477 H464 0.930 . S
C477 C476 1.388 . S
C477 C478 1.390 . S
C478 C477 1.390 . S
C478 C479 1.394 . S
C478 C484 1.465 . S
C479 C474 1.399 . S
C479 C478 1.394 . S
C479 C480 1.516 . S
C480 C479 1.516 . S
C480 C481 1.502 . S
C480 C482 1.561 . S
C480 C483 1.526 . S
C481 H465 0.959 . S
C481 H466 0.959 . S
C481 H467 0.961 . S
C481 C480 1.502 . S
C482 H468 0.960 . S
C482 H469 0.961 . S
C482 H470 0.959 . S
C482 C480 1.561 . S
C483 C480 1.526 . S
C483 C484 1.396 . S
C483 C488 1.390 . S
C484 C478 1.465 . S
C484 C483 1.396 . S
C484 C485 1.399 . S
C485 H471 0.929 . S
C485 C484 1.399 . S
C485 C486 1.385 . S
C486 H472 0.931 . S
C486 C485 1.385 . S
C486 C487 1.389 . S
C487 C486 1.389 . S
C487 C488 1.387 . S
C488 H473 0.930 . S
C488 C483 1.390 . S
C488 C487 1.387 . S
H489 C501 0.930 . S
H490 C503 0.930 . S
H491 C504 0.930 . S
H492 C508 0.959 . S
H493 C508 0.959 . S
H494 C508 0.961 . S
H495 C509 0.960 . S
H496 C509 0.961 . S
H497 C509 0.959 . S
H498 C512 0.929 . S
H499 C513 0.931 . S
H500 C515 0.930 . S
C501 H489 0.930 . S
C501 C502 1.399 . S
C501 C506 1.399 . S
C502 C501 1.399 . S
C502 C503 1.376 . S
C503 H490 0.930 . S
C503 C502 1.376 . S
C503 C504 1.388 . S
C504 H491 0.930 . S
C504 C503 1.388 . S
C504 C505 1.390 . S
C505 C504 1.390 . S
C505 C506 1.394 . S
C505 C511 1.465 . S
C506 C501 1.399 . S
C506 C505 1.394 . S
C506 C507 1.516 . S
C507 C506 1.516 . S
C507 C508 1.502 . S
C507 C509 1.561 . S
C507 C510 1.526 . S
C508 H492 0.959 . S
C508 H493 0.959 . S
C508 H494 0.961 . S
C508 C507 1.502 . S
C509 H495 0.960 . S
C509 H496 0.961 . S
C509 H497 0.959 . S
C509 C507 1.561 . S
C510 C507 1.526 . S
C510 C511 1.396 . S
C510 C515 1.390 . S
C511 C505 1.465 . S
C511 C510 1.396 . S
C511 C512 1.399 . S
C512 H498 0.929 . S
C512 C511 1.399 . S
C512 C513 1.385 . S
C513 H499 0.931 . S
C513 C512 1.385 . S
C513 C514 1.389 . S
C514 C513 1.389 . S
C514 C515 1.387 . S
C515 H500 0.930 . S
C515 C510 1.390 . S
C515 C514 1.387 . S
H516 C528 0.930 . S
H517 C530 0.930 . S
H518 C531 0.930 . S
H519 C535 0.959 . S
H520 C535 0.959 . S
H521 C535 0.961 . S
H522 C536 0.960 . S
H523 C536 0.961 . S
H524 C536 0.959 . S
H525 C539 0.929 . S
H526 C540 0.931 . S
H527 C542 0.930 . S
C528 H516 0.930 . S
C528 C529 1.399 . S
C528 C533 1.399 . S
C529 C528 1.399 . S
C529 C530 1.376 . S
C530 H517 0.930 . S
C530 C529 1.376 . S
C530 C531 1.388 . S
C531 H518 0.930 . S
C531 C530 1.388 . S
C531 C532 1.390 . S
C532 C531 1.390 . S
C532 C533 1.394 . S
C532 C538 1.465 . S
C533 C528 1.399 . S
C533 C532 1.394 . S
C533 C534 1.516 . S
C534 C533 1.516 . S
C534 C535 1.502 . S
C534 C536 1.561 . S
C534 C537 1.526 . S
C535 H519 0.959 . S
C535 H520 0.959 . S
C535 H521 0.961 . S
C535 C534 1.502 . S
C536 H522 0.960 . S
C536 H523 0.961 . S
C536 H524 0.959 . S
C536 C534 1.561 . S
C537 C534 1.526 . S
C537 C538 1.396 . S
C537 C542 1.390 . S
C538 C532 1.465 . S
C538 C537 1.396 . S
C538 C539 1.399 . S
C539 H525 0.929 . S
C539 C538 1.399 . S
C539 C540 1.385 . S
C540 H526 0.931 . S
C540 C539 1.385 . S
C540 C541 1.389 . S
C541 C540 1.389 . S
C541 C542 1.387 . S
C542 H527 0.930 . S
C542 C537 1.390 . S
C542 C541 1.387 . S
H543 C555 0.930 . S
H544 C557 0.930 . S
H545 C558 0.930 . S
H546 C562 0.959 . S
H547 C562 0.959 . S
H548 C562 0.961 . S
H549 C563 0.960 . S
H550 C563 0.961 . S
H551 C563 0.959 . S
H552 C566 0.929 . S
H553 C567 0.931 . S
H554 C569 0.930 . S
C555 H543 0.930 . S
C555 C556 1.399 . S
C555 C560 1.399 . S
C556 C555 1.399 . S
C556 C557 1.376 . S
C557 H544 0.930 . S
C557 C556 1.376 . S
C557 C558 1.388 . S
C558 H545 0.930 . S
C558 C557 1.388 . S
C558 C559 1.390 . S
C559 C558 1.390 . S
C559 C560 1.394 . S
C559 C565 1.465 . S
C560 C555 1.399 . S
C560 C559 1.394 . S
C560 C561 1.516 . S
C561 C560 1.516 . S
C561 C562 1.502 . S
C561 C563 1.561 . S
C561 C564 1.526 . S
C562 H546 0.959 . S
C562 H547 0.959 . S
C562 H548 0.961 . S
C562 C561 1.502 . S
C563 H549 0.960 . S
C563 H550 0.961 . S
C563 H551 0.959 . S
C563 C561 1.561 . S
C564 C561 1.526 . S
C564 C565 1.396 . S
C564 C569 1.390 . S
C565 C559 1.465 . S
C565 C564 1.396 . S
C565 C566 1.399 . S
C566 H552 0.929 . S
C566 C565 1.399 . S
C566 C567 1.385 . S
C567 H553 0.931 . S
C567 C566 1.385 . S
C567 C568 1.389 . S
C568 C567 1.389 . S
C568 C569 1.387 . S
C569 H554 0.930 . S
C569 C564 1.390 . S
C569 C568 1.387 . S
H570 C582 0.930 . S
H571 C584 0.930 . S
H572 C585 0.930 . S
H573 C589 0.959 . S
H574 C589 0.959 . S
H575 C589 0.961 . S
H576 C590 0.960 . S
H577 C590 0.961 . S
H578 C590 0.959 . S
H579 C593 0.929 . S
H580 C594 0.931 . S
H581 C596 0.930 . S
C582 H570 0.930 . S
C582 C583 1.399 . S
C582 C587 1.399 . S
C583 C582 1.399 . S
C583 C584 1.376 . S
C584 H571 0.930 . S
C584 C583 1.376 . S
C584 C585 1.388 . S
C585 H572 0.930 . S
C585 C584 1.388 . S
C585 C586 1.390 . S
C586 C585 1.390 . S
C586 C587 1.394 . S
C586 C592 1.465 . S
C587 C582 1.399 . S
C587 C586 1.394 . S
C587 C588 1.516 . S
C588 C587 1.516 . S
C588 C589 1.502 . S
C588 C590 1.561 . S
C588 C591 1.526 . S
C589 H573 0.959 . S
C589 H574 0.959 . S
C589 H575 0.961 . S
C589 C588 1.502 . S
C590 H576 0.960 . S
C590 H577 0.961 . S
C590 H578 0.959 . S
C590 C588 1.561 . S
C591 C588 1.526 . S
C591 C592 1.396 . S
C591 C596 1.390 . S
C592 C586 1.465 . S
C592 C591 1.396 . S
C592 C593 1.399 . S
C593 H579 0.929 . S
C593 C592 1.399 . S
C593 C594 1.385 . S
C594 H580 0.931 . S
C594 C593 1.385 . S
C594 C595 1.389 . S
C595 C594 1.389 . S
C595 C596 1.387 . S
C596 H581 0.930 . S
C596 C591 1.390 . S
C596 C595 1.387 . S
H597 C609 0.930 . S
H598 C611 0.930 . S
H599 C612 0.930 . S
H600 C616 0.959 . S
H601 C616 0.959 . S
H602 C616 0.961 . S
H603 C617 0.960 . S
H604 C617 0.961 . S
H605 C617 0.959 . S
H606 C620 0.929 . S
H607 C621 0.931 . S
H608 C623 0.930 . S
C609 H597 0.930 . S
C609 C610 1.399 . S
C609 C614 1.399 . S
C610 C609 1.399 . S
C610 C611 1.376 . S
C611 H598 0.930 . S
C611 C610 1.376 . S
C611 C612 1.388 . S
C612 H599 0.930 . S
C612 C611 1.388 . S
C612 C613 1.390 . S
C613 C612 1.390 . S
C613 C614 1.394 . S
C613 C619 1.465 . S
C614 C609 1.399 . S
C614 C613 1.394 . S
C614 C615 1.516 . S
C615 C614 1.516 . S
C615 C616 1.502 . S
C615 C617 1.561 . S
C615 C618 1.526 . S
C616 H600 0.959 . S
C616 H601 0.959 . S
C616 H602 0.961 . S
C616 C615 1.502 . S
C617 H603 0.960 . S
C617 H604 0.961 . S
C617 H605 0.959 . S
C617 C615 1.561 . S
C618 C615 1.526 . S
C618 C619 1.396 . S
C618 C623 1.390 . S
C619 C613 1.465 . S
C619 C618 1.396 . S
C619 C620 1.399 . S
C620 H606 0.929 . S
C620 C619 1.399 . S
C620 C621 1.385 . S
C621 H607 0.931 . S
C621 C620 1.385 . S
C621 C622 1.389 . S
C622 C621 1.389 . S
C622 C623 1.387 . S
C623 H608 0.930 . S
C623 C618 1.390 . S
C623 C622 1.387 . S
H624 C636 0.930 . S
H625 C638 0.930 . S
H626 C639 0.930 . S
H627 C643 0.959 . S
H628 C643 0.959 . S
H629 C643 0.961 . S
H630 C644 0.960 . S
H631 C644 0.961 . S
H632 C644 0.959 . S
H633 C647 0.929 . S
H634 C648 0.931 . S
H635 C650 0.930 . S
C636 H624 0.930 . S
C636 C637 1.399 . S
C636 C641 1.399 . S
C637 C636 1.399 . S
C637 C638 1.376 . S
C638 H625 0.930 . S
C638 C637 1.376 . S
C638 C639 1.388 . S
C639 H626 0.930 . S
C639 C638 1.388 . S
C639 C640 1.390 . S
C640 C639 1.390 . S
C640 C641 1.394 . S
C640 C646 1.465 . S
C641 C636 1.399 . S
C641 C640 1.394 . S
C641 C642 1.516 . S
C642 C641 1.516 . S
C642 C643 1.502 . S
C642 C644 1.561 . S
C642 C645 1.526 . S
C643 H627 0.959 . S
C643 H628 0.959 . S
C643 H629 0.961 . S
C643 C642 1.502 . S
C644 H630 0.960 . S
C644 H631 0.961 . S
C644 H632 0.959 . S
C644 C642 1.561 . S
C645 C642 1.526 . S
C645 C646 1.396 . S
C645 C650 1.390 . S
C646 C640 1.465 . S
C646 C645 1.396 . S
C646 C647 1.399 . S
C647 H633 0.929 . S
C647 C646 1.399 . S
C647 C648 1.385 . S
C648 H634 0.931 . S
C648 C647 1.385 . S
C648 C649 1.389 . S
C649 C648 1.389 . S
C649 C650 1.387 . S
C650 H635 0.930 . S
C650 C645 1.390 . S
C650 C649 1.387 . S
H651 C663 0.930 . S
H652 C665 0.930 . S
H653 C666 0.930 . S
H654 C670 0.959 . S
H655 C670 0.959 . S
H656 C670 0.961 . S
H657 C671 0.960 . S
H658 C671 0.961 . S
H659 C671 0.959 . S
H660 C674 0.929 . S
H661 C675 0.931 . S
H662 C677 0.930 . S
C663 H651 0.930 . S
C663 C664 1.399 . S
C663 C668 1.399 . S
C664 C663 1.399 . S
C664 C665 1.376 . S
C665 H652 0.930 . S
C665 C664 1.376 . S
C665 C666 1.388 . S
C666 H653 0.930 . S
C666 C665 1.388 . S
C666 C667 1.390 . S
C667 C666 1.390 . S
C667 C668 1.394 . S
C667 C673 1.465 . S
C668 C663 1.399 . S
C668 C667 1.394 . S
C668 C669 1.516 . S
C669 C668 1.516 . S
C669 C670 1.502 . S
C669 C671 1.561 . S
C669 C672 1.526 . S
C670 H654 0.959 . S
C670 H655 0.959 . S
C670 H656 0.961 . S
C670 C669 1.502 . S
C671 H657 0.960 . S
C671 H658 0.961 . S
C671 H659 0.959 . S
C671 C669 1.561 . S
C672 C669 1.526 . S
C672 C673 1.396 . S
C672 C677 1.390 . S
C673 C667 1.465 . S
C673 C672 1.396 . S
C673 C674 1.399 . S
C674 H660 0.929 . S
C674 C673 1.399 . S
C674 C675 1.385 . S
C675 H661 0.931 . S
C675 C674 1.385 . S
C675 C676 1.389 . S
C676 C675 1.389 . S
C676 C677 1.387 . S
C677 H662 0.930 . S
C677 C672 1.390 . S
C677 C676 1.387 . S
H678 C690 0.930 . S
H679 C692 0.930 . S
H680 C693 0.930 . S
H681 C697 0.959 1_655 S
H682 C697 0.959 . S
H683 C697 0.961 . S
H684 C698 0.960 . S
H685 C698 0.961 . S
H686 C698 0.959 . S
H687 C701 0.929 1_655 S
H688 C702 0.932 1_655 S
H689 C704 0.930 . S
C690 H678 0.930 . S
C690 C691 1.399 . S
C690 C695 1.399 . S
C691 C690 1.399 . S
C691 C692 1.376 . S
C692 H679 0.930 . S
C692 C691 1.376 . S
C692 C693 1.388 . S
C693 H680 0.930 . S
C693 C692 1.388 . S
C693 C694 1.390 . S
C694 C693 1.390 . S
C694 C695 1.394 . S
C694 C700 1.465 . S
C695 C690 1.399 . S
C695 C694 1.394 . S
C695 C696 1.516 . S
C696 C695 1.516 . S
C696 C697 1.502 . S
C696 C698 1.561 . S
C696 C699 1.526 . S
C697 H681 0.959 1_455 S
C697 H682 0.959 . S
C697 H683 0.961 . S
C697 C696 1.502 . S
C698 H684 0.960 . S
C698 H685 0.961 . S
C698 H686 0.959 . S
C698 C696 1.561 . S
C699 C696 1.526 . S
C699 C700 1.396 . S
C699 C704 1.390 . S
C700 C694 1.465 . S
C700 C699 1.396 . S
C700 C701 1.399 . S
C701 H687 0.929 1_455 S
C701 C700 1.399 . S
C701 C702 1.385 . S
C702 H688 0.932 1_455 S
C702 C701 1.385 . S
C702 C703 1.388 . S
C703 C702 1.388 . S
C703 C704 1.387 . S
C704 H689 0.930 . S
C704 C699 1.390 . S
C704 C703 1.387 . S
H705 C717 0.930 1_565 S
H706 C719 0.930 . S
H707 C720 0.930 . S
H708 C724 0.959 . S
H709 C724 0.959 . S
H710 C724 0.961 . S
H711 C725 0.960 . S
H712 C725 0.961 . S
H713 C725 0.959 . S
H714 C728 0.929 . S
H715 C729 0.931 . S
H716 C731 0.930 1_565 S
C717 H705 0.930 1_545 S
C717 C718 1.399 . S
C717 C722 1.399 . S
C718 C717 1.399 . S
C718 C719 1.376 . S
C719 H706 0.930 . S
C719 C718 1.376 . S
C719 C720 1.388 . S
C720 H707 0.930 . S
C720 C719 1.388 . S
C720 C721 1.390 . S
C721 C720 1.390 . S
C721 C722 1.394 . S
C721 C727 1.465 . S
C722 C717 1.399 . S
C722 C721 1.394 . S
C722 C723 1.516 1_545 S
C723 C722 1.516 1_565 S
C723 C724 1.502 . S
C723 C725 1.561 . S
C723 C726 1.526 1_565 S
C724 H708 0.959 . S
C724 H709 0.959 . S
C724 H710 0.961 . S
C724 C723 1.502 . S
C725 H711 0.960 . S
C725 H712 0.961 . S
C725 H713 0.959 . S
C725 C723 1.561 . S
C726 C723 1.526 1_545 S
C726 C727 1.396 . S
C726 C731 1.390 . S
C727 C721 1.465 . S
C727 C726 1.396 . S
C727 C728 1.399 . S
C728 H714 0.929 . S
C728 C727 1.399 . S
C728 C729 1.385 . S
C729 H715 0.931 . S
C729 C728 1.385 . S
C729 C730 1.389 . S
C730 C729 1.389 . S
C730 C731 1.387 . S
C731 H716 0.930 1_545 S
C731 C726 1.390 . S
C731 C730 1.387 . S
H732 C744 0.930 . S
H733 C746 0.930 . S
H734 C747 0.930 . S
H735 C751 0.959 . S
H736 C751 0.959 . S
H737 C751 0.961 . S
H738 C752 0.960 . S
H739 C752 0.961 . S
H740 C752 0.959 . S
H741 C755 0.929 . S
H742 C756 0.931 . S
H743 C758 0.930 . S
C744 H732 0.930 . S
C744 C745 1.399 . S
C744 C749 1.399 . S
C745 C744 1.399 . S
C745 C746 1.376 . S
C746 H733 0.930 . S
C746 C745 1.376 . S
C746 C747 1.388 . S
C747 H734 0.930 . S
C747 C746 1.388 . S
C747 C748 1.390 . S
C748 C747 1.390 . S
C748 C749 1.394 . S
C748 C754 1.465 . S
C749 C744 1.399 . S
C749 C748 1.394 . S
C749 C750 1.516 . S
C750 C749 1.516 . S
C750 C751 1.502 . S
C750 C752 1.561 . S
C750 C753 1.526 . S
C751 H735 0.959 . S
C751 H736 0.959 . S
C751 H737 0.961 . S
C751 C750 1.502 . S
C752 H738 0.960 . S
C752 H739 0.961 . S
C752 H740 0.959 . S
C752 C750 1.561 . S
C753 C750 1.526 . S
C753 C754 1.396 . S
C753 C758 1.390 . S
C754 C748 1.465 . S
C754 C753 1.396 . S
C754 C755 1.399 . S
C755 H741 0.929 . S
C755 C754 1.399 . S
C755 C756 1.385 . S
C756 H742 0.931 . S
C756 C755 1.385 . S
C756 C757 1.389 . S
C757 C756 1.389 . S
C757 C758 1.387 . S
C758 H743 0.930 . S
C758 C753 1.390 . S
C758 C757 1.387 . S
H759 C771 0.930 . S
H760 C773 0.930 . S
H761 C774 0.930 . S
H762 C778 0.959 . S
H763 C778 0.959 . S
H764 C778 0.961 . S
H765 C779 0.960 . S
H766 C779 0.961 . S
H767 C779 0.959 . S
H768 C782 0.929 . S
H769 C783 0.931 . S
H770 C785 0.930 . S
C771 H759 0.930 . S
C771 C772 1.399 1_565 S
C771 C776 1.399 1_565 S
C772 C771 1.399 1_545 S
C772 C773 1.376 . S
C773 H760 0.930 . S
C773 C772 1.376 . S
C773 C774 1.388 . S
C774 H761 0.930 . S
C774 C773 1.388 . S
C774 C775 1.390 . S
C775 C774 1.390 . S
C775 C776 1.394 . S
C775 C781 1.465 . S
C776 C771 1.399 1_545 S
C776 C775 1.394 . S
C776 C777 1.516 1_545 S
C777 C776 1.516 1_565 S
C777 C778 1.502 . S
C777 C779 1.561 . S
C777 C780 1.524 1_565 S
C778 H762 0.959 . S
C778 H763 0.959 . S
C778 H764 0.961 . S
C778 C777 1.502 . S
C779 H765 0.960 . S
C779 H766 0.961 . S
C779 H767 0.959 . S
C779 C777 1.561 . S
C780 C777 1.524 1_545 S
C780 C781 1.399 . S
C780 C785 1.389 1_545 S
C781 C775 1.465 . S
C781 C780 1.399 . S
C781 C782 1.399 . S
C782 H768 0.929 . S
C782 C781 1.399 . S
C782 C783 1.385 . S
C783 H769 0.931 . S
C783 C782 1.385 . S
C783 C784 1.389 . S
C784 C783 1.389 . S
C784 C785 1.387 1_545 S
C785 H770 0.930 . S
C785 C780 1.389 1_565 S
C785 C784 1.387 1_565 S
H786 C798 0.930 . S
H787 C800 0.930 . S
H788 C801 0.930 . S
H789 C805 0.959 . S
H790 C805 0.959 . S
H791 C805 0.961 . S
H792 C806 0.960 . S
H793 C806 0.961 . S
H794 C806 0.959 . S
H795 C809 0.929 . S
H796 C810 0.931 . S
H797 C812 0.930 . S
C798 H786 0.930 . S
C798 C799 1.399 . S
C798 C803 1.399 . S
C799 C798 1.399 . S
C799 C800 1.376 . S
C800 H787 0.930 . S
C800 C799 1.376 . S
C800 C801 1.388 . S
C801 H788 0.930 . S
C801 C800 1.388 . S
C801 C802 1.390 . S
C802 C801 1.390 . S
C802 C803 1.394 . S
C802 C808 1.465 . S
C803 C798 1.399 . S
C803 C802 1.394 . S
C803 C804 1.516 . S
C804 C803 1.516 . S
C804 C805 1.502 . S
C804 C806 1.561 . S
C804 C807 1.526 . S
C805 H789 0.959 . S
C805 H790 0.959 . S
C805 H791 0.961 . S
C805 C804 1.502 . S
C806 H792 0.960 . S
C806 H793 0.961 . S
C806 H794 0.959 . S
C806 C804 1.561 . S
C807 C804 1.526 . S
C807 C808 1.396 . S
C807 C812 1.390 . S
C808 C802 1.465 . S
C808 C807 1.396 . S
C808 C809 1.399 . S
C809 H795 0.929 . S
C809 C808 1.399 . S
C809 C810 1.385 . S
C810 H796 0.931 . S
C810 C809 1.385 . S
C810 C811 1.389 . S
C811 C810 1.389 . S
C811 C812 1.387 . S
C812 H797 0.930 . S
C812 C807 1.390 . S
C812 C811 1.387 . S
H813 C825 0.930 . S
H814 C827 0.930 . S
H815 C828 0.930 . S
H816 C832 0.959 . S
H817 C832 0.959 . S
H818 C832 0.961 . S
H819 C833 0.960 . S
H820 C833 0.961 . S
H821 C833 0.959 . S
H822 C836 0.929 . S
H823 C837 0.931 1_655 S
H824 C839 0.930 . S
C825 H813 0.930 . S
C825 C826 1.399 . S
C825 C830 1.399 . S
C826 C825 1.399 . S
C826 C827 1.376 1_455 S
C827 H814 0.930 . S
C827 C826 1.376 1_655 S
C827 C828 1.388 . S
C828 H815 0.930 . S
C828 C827 1.388 . S
C828 C829 1.390 1_655 S
C829 C828 1.390 1_455 S
C829 C830 1.394 . S
C829 C835 1.465 . S
C830 C825 1.399 . S
C830 C829 1.394 . S
C830 C831 1.516 . S
C831 C830 1.516 . S
C831 C832 1.502 . S
C831 C833 1.561 . S
C831 C834 1.526 . S
C832 H816 0.959 . S
C832 H817 0.959 . S
C832 H818 0.961 . S
C832 C831 1.502 . S
C833 H819 0.960 . S
C833 H820 0.961 . S
C833 H821 0.959 . S
C833 C831 1.561 . S
C834 C831 1.526 . S
C834 C835 1.396 . S
C834 C839 1.390 . S
C835 C829 1.465 . S
C835 C834 1.396 . S
C835 C836 1.399 1_455 S
C836 H822 0.929 . S
C836 C835 1.399 1_655 S
C836 C837 1.385 1_655 S
C837 H823 0.931 1_455 S
C837 C836 1.385 1_455 S
C837 C838 1.389 . S
C838 C837 1.389 . S
C838 C839 1.387 . S
C839 H824 0.930 . S
C839 C834 1.390 . S
C839 C838 1.387 . S
C367 C19 2.995 . S
C379 C331 2.965 . S
C394 C49 3.084 . S
C406 C258 3.022 . S
C421 C99 2.983 . S
C433 C297 2.947 . S
C448 C9 3.061 . S
C460 C336 3.029 . S
C487 C253 2.928 . S
C475 C59 2.972 . S
C514 C292 3.005 . S
C502 C89 3.074 . S
C529 C55 0.349 . S
C541 C180 0.371 . S
C556 C85 0.427 . S
C568 C214 0.276 . S
C583 C15 0.475 . S
C595 C136 0.419 . S
C622 C175 0.374 . S
C610 C45 0.449 . S
C649 C219 0.485 . S
C637 C95 0.377 . S
C664 C5 0.322 . S
C676 C141 0.336 . S
C703 C199 1.084 1_554 S
C691 C18 1.089 . S
C718 C58 1.090 . S
C730 C121 1.075 . S
C745 C98 1.064 . S
C757 C160 1.073 . S
C784 C277 1.790 . S
C772 C48 1.717 . S
C811 C316 1.792 1_556 S
C799 C88 1.669 . S
C826 C8 1.690 . S
C838 C238 1.789 . S
